# Generated by pormake.
# Topology umv, (4)-cn, num edge types: 1
# Building blocks:
#     Node 0, Type 0, BuildingBlock: QUQFOY_clean_sbu_3, # of connection points: 4
#     Node 1, Type 0, BuildingBlock: QUQFOY_clean_sbu_3, # of connection points: 4
#     Node 2, Type 0, BuildingBlock: QUQFOY_clean_sbu_3, # of connection points: 4
#     Node 3, Type 0, BuildingBlock: QUQFOY_clean_sbu_3, # of connection points: 4
#     Node 4, Type 0, BuildingBlock: QUQFOY_clean_sbu_3, # of connection points: 4
#     Node 5, Type 0, BuildingBlock: QUQFOY_clean_sbu_3, # of connection points: 4
#     Node 6, Type 0, BuildingBlock: QUQFOY_clean_sbu_3, # of connection points: 4
#     Node 7, Type 0, BuildingBlock: QUQFOY_clean_sbu_3, # of connection points: 4
#     Node 8, Type 0, BuildingBlock: QUQFOY_clean_sbu_3, # of connection points: 4
#     Node 9, Type 0, BuildingBlock: QUQFOY_clean_sbu_3, # of connection points: 4
#     Node 10, Type 0, BuildingBlock: QUQFOY_clean_sbu_3, # of connection points: 4
#     Node 11, Type 0, BuildingBlock: QUQFOY_clean_sbu_3, # of connection points: 4
#     Node 12, Type 0, BuildingBlock: QUQFOY_clean_sbu_3, # of connection points: 4
#     Node 13, Type 0, BuildingBlock: QUQFOY_clean_sbu_3, # of connection points: 4
#     Node 14, Type 0, BuildingBlock: QUQFOY_clean_sbu_3, # of connection points: 4
#     Node 15, Type 0, BuildingBlock: QUQFOY_clean_sbu_3, # of connection points: 4
#     Node 16, Type 0, BuildingBlock: QUQFOY_clean_sbu_3, # of connection points: 4
#     Node 17, Type 0, BuildingBlock: QUQFOY_clean_sbu_3, # of connection points: 4
#     Node 18, Type 0, BuildingBlock: QUQFOY_clean_sbu_3, # of connection points: 4
#     Node 19, Type 0, BuildingBlock: QUQFOY_clean_sbu_3, # of connection points: 4
#     Node 20, Type 0, BuildingBlock: QUQFOY_clean_sbu_3, # of connection points: 4
#     Node 21, Type 0, BuildingBlock: QUQFOY_clean_sbu_3, # of connection points: 4
#     Node 22, Type 0, BuildingBlock: QUQFOY_clean_sbu_3, # of connection points: 4
#     Node 23, Type 0, BuildingBlock: QUQFOY_clean_sbu_3, # of connection points: 4
#     Node 24, Type 0, BuildingBlock: QUQFOY_clean_sbu_3, # of connection points: 4
#     Node 25, Type 0, BuildingBlock: QUQFOY_clean_sbu_3, # of connection points: 4
#     Node 26, Type 0, BuildingBlock: QUQFOY_clean_sbu_3, # of connection points: 4
#     Node 27, Type 0, BuildingBlock: QUQFOY_clean_sbu_3, # of connection points: 4
#     Node 28, Type 0, BuildingBlock: QUQFOY_clean_sbu_3, # of connection points: 4
#     Node 29, Type 0, BuildingBlock: QUQFOY_clean_sbu_3, # of connection points: 4
#     Node 30, Type 0, BuildingBlock: QUQFOY_clean_sbu_3, # of connection points: 4
#     Node 31, Type 0, BuildingBlock: QUQFOY_clean_sbu_3, # of connection points: 4
#     Edge 32, Type (0, 0), BuildingBlock: MIFKUJ_clean_linker_0, # of connection points: 2
#     Edge 33, Type (0, 0), BuildingBlock: MIFKUJ_clean_linker_0, # of connection points: 2
#     Edge 34, Type (0, 0), BuildingBlock: MIFKUJ_clean_linker_0, # of connection points: 2
#     Edge 35, Type (0, 0), BuildingBlock: MIFKUJ_clean_linker_0, # of connection points: 2
#     Edge 36, Type (0, 0), BuildingBlock: MIFKUJ_clean_linker_0, # of connection points: 2
#     Edge 37, Type (0, 0), BuildingBlock: MIFKUJ_clean_linker_0, # of connection points: 2
#     Edge 38, Type (0, 0), BuildingBlock: MIFKUJ_clean_linker_0, # of connection points: 2
#     Edge 39, Type (0, 0), BuildingBlock: MIFKUJ_clean_linker_0, # of connection points: 2
#     Edge 40, Type (0, 0), BuildingBlock: MIFKUJ_clean_linker_0, # of connection points: 2
#     Edge 41, Type (0, 0), BuildingBlock: MIFKUJ_clean_linker_0, # of connection points: 2
#     Edge 42, Type (0, 0), BuildingBlock: MIFKUJ_clean_linker_0, # of connection points: 2
#     Edge 43, Type (0, 0), BuildingBlock: MIFKUJ_clean_linker_0, # of connection points: 2
#     Edge 44, Type (0, 0), BuildingBlock: MIFKUJ_clean_linker_0, # of connection points: 2
#     Edge 45, Type (0, 0), BuildingBlock: MIFKUJ_clean_linker_0, # of connection points: 2
#     Edge 46, Type (0, 0), BuildingBlock: MIFKUJ_clean_linker_0, # of connection points: 2
#     Edge 47, Type (0, 0), BuildingBlock: MIFKUJ_clean_linker_0, # of connection points: 2
#     Edge 48, Type (0, 0), BuildingBlock: MIFKUJ_clean_linker_0, # of connection points: 2
#     Edge 49, Type (0, 0), BuildingBlock: MIFKUJ_clean_linker_0, # of connection points: 2
#     Edge 50, Type (0, 0), BuildingBlock: MIFKUJ_clean_linker_0, # of connection points: 2
#     Edge 51, Type (0, 0), BuildingBlock: MIFKUJ_clean_linker_0, # of connection points: 2
#     Edge 52, Type (0, 0), BuildingBlock: MIFKUJ_clean_linker_0, # of connection points: 2
#     Edge 53, Type (0, 0), BuildingBlock: MIFKUJ_clean_linker_0, # of connection points: 2
#     Edge 54, Type (0, 0), BuildingBlock: MIFKUJ_clean_linker_0, # of connection points: 2
#     Edge 55, Type (0, 0), BuildingBlock: MIFKUJ_clean_linker_0, # of connection points: 2
#     Edge 56, Type (0, 0), BuildingBlock: MIFKUJ_clean_linker_0, # of connection points: 2
#     Edge 57, Type (0, 0), BuildingBlock: MIFKUJ_clean_linker_0, # of connection points: 2
#     Edge 58, Type (0, 0), BuildingBlock: MIFKUJ_clean_linker_0, # of connection points: 2
#     Edge 59, Type (0, 0), BuildingBlock: MIFKUJ_clean_linker_0, # of connection points: 2
#     Edge 60, Type (0, 0), BuildingBlock: MIFKUJ_clean_linker_0, # of connection points: 2
#     Edge 61, Type (0, 0), BuildingBlock: MIFKUJ_clean_linker_0, # of connection points: 2
#     Edge 62, Type (0, 0), BuildingBlock: MIFKUJ_clean_linker_0, # of connection points: 2
#     Edge 63, Type (0, 0), BuildingBlock: MIFKUJ_clean_linker_0, # of connection points: 2
#     Edge 64, Type (0, 0), BuildingBlock: MIFKUJ_clean_linker_0, # of connection points: 2
#     Edge 65, Type (0, 0), BuildingBlock: MIFKUJ_clean_linker_0, # of connection points: 2
#     Edge 66, Type (0, 0), BuildingBlock: MIFKUJ_clean_linker_0, # of connection points: 2
#     Edge 67, Type (0, 0), BuildingBlock: MIFKUJ_clean_linker_0, # of connection points: 2
#     Edge 68, Type (0, 0), BuildingBlock: MIFKUJ_clean_linker_0, # of connection points: 2
#     Edge 69, Type (0, 0), BuildingBlock: MIFKUJ_clean_linker_0, # of connection points: 2
#     Edge 70, Type (0, 0), BuildingBlock: MIFKUJ_clean_linker_0, # of connection points: 2
#     Edge 71, Type (0, 0), BuildingBlock: MIFKUJ_clean_linker_0, # of connection points: 2
#     Edge 72, Type (0, 0), BuildingBlock: MIFKUJ_clean_linker_0, # of connection points: 2
#     Edge 73, Type (0, 0), BuildingBlock: MIFKUJ_clean_linker_0, # of connection points: 2
#     Edge 74, Type (0, 0), BuildingBlock: MIFKUJ_clean_linker_0, # of connection points: 2
#     Edge 75, Type (0, 0), BuildingBlock: MIFKUJ_clean_linker_0, # of connection points: 2
#     Edge 76, Type (0, 0), BuildingBlock: MIFKUJ_clean_linker_0, # of connection points: 2
#     Edge 77, Type (0, 0), BuildingBlock: MIFKUJ_clean_linker_0, # of connection points: 2
#     Edge 78, Type (0, 0), BuildingBlock: MIFKUJ_clean_linker_0, # of connection points: 2
#     Edge 79, Type (0, 0), BuildingBlock: MIFKUJ_clean_linker_0, # of connection points: 2
#     Edge 80, Type (0, 0), BuildingBlock: MIFKUJ_clean_linker_0, # of connection points: 2
#     Edge 81, Type (0, 0), BuildingBlock: MIFKUJ_clean_linker_0, # of connection points: 2
#     Edge 82, Type (0, 0), BuildingBlock: MIFKUJ_clean_linker_0, # of connection points: 2
#     Edge 83, Type (0, 0), BuildingBlock: MIFKUJ_clean_linker_0, # of connection points: 2
#     Edge 84, Type (0, 0), BuildingBlock: MIFKUJ_clean_linker_0, # of connection points: 2
#     Edge 85, Type (0, 0), BuildingBlock: MIFKUJ_clean_linker_0, # of connection points: 2
#     Edge 86, Type (0, 0), BuildingBlock: MIFKUJ_clean_linker_0, # of connection points: 2
#     Edge 87, Type (0, 0), BuildingBlock: MIFKUJ_clean_linker_0, # of connection points: 2
#     Edge 88, Type (0, 0), BuildingBlock: MIFKUJ_clean_linker_0, # of connection points: 2
#     Edge 89, Type (0, 0), BuildingBlock: MIFKUJ_clean_linker_0, # of connection points: 2
#     Edge 90, Type (0, 0), BuildingBlock: MIFKUJ_clean_linker_0, # of connection points: 2
#     Edge 91, Type (0, 0), BuildingBlock: MIFKUJ_clean_linker_0, # of connection points: 2
#     Edge 92, Type (0, 0), BuildingBlock: MIFKUJ_clean_linker_0, # of connection points: 2
#     Edge 93, Type (0, 0), BuildingBlock: MIFKUJ_clean_linker_0, # of connection points: 2
#     Edge 94, Type (0, 0), BuildingBlock: MIFKUJ_clean_linker_0, # of connection points: 2
#     Edge 95, Type (0, 0), BuildingBlock: MIFKUJ_clean_linker_0, # of connection points: 2
# Relax obj value: 0.125
# Max RMSD: 0.107
# Mean RMSD: 0.107
data_MOF--net-umv--node1-QUQFOY_clean_sbu_3--edge1-MIFKUJ_clean_linker_0
_symmetry_space_group_name_H-M    P1
_symmetry_Int_Tables_number       1
_symmetry_cell_setting            triclinic
loop_
_symmetry_equiv_pos_as_xyz
'x, y, z'
_cell_length_a     137.72535
_cell_length_b     33.587187
_cell_length_c     79.773943
_cell_angle_alpha  90.00862
_cell_angle_beta   89.939563
_cell_angle_gamma 89.984122
loop_
_atom_site_label
_atom_site_type_symbol
_atom_site_fract_x
_atom_site_fract_y
_atom_site_fract_z
_atom_type_partial_charge
C0 C 0.03997 0.05617 0.33806 0.0
O1 O 0.04295 0.0809 0.3489 0.0
Cd2 Cd 0.04996 0.14303 0.34223 0.0
O3 O 0.04012 0.06461 0.32247 0.0
Cd4 Cd 0.04381 0.12366 0.3048 0.0
C5 C 0.06731 0.11563 0.31233 0.0
O6 O 0.03837 0.17331 0.32455 0.0
O7 O 0.04826 0.19457 0.30574 0.0
O8 O 0.02841 0.11177 0.29147 0.0
C9 C 0.04256 0.20258 0.31774 0.0
O10 O 0.06497 0.12943 0.32668 0.0
C11 C 0.03109 0.12234 0.27693 0.0
O12 O 0.06084 0.10729 0.3015 0.0
O13 O 0.04006 0.13003 0.27498 0.0
C14 C 0.19245 0.17254 0.34466 0.0
O15 O 0.18859 0.14782 0.35468 0.0
Cd16 Cd 0.18444 0.08182 0.34792 0.0
O17 O 0.19433 0.16281 0.32952 0.0
Cd18 Cd 0.19275 0.10153 0.3119 0.0
C19 C 0.1685 0.09979 0.31552 0.0
O20 O 0.19872 0.06003 0.334 0.0
O21 O 0.19267 0.02749 0.31333 0.0
O22 O 0.20829 0.11966 0.29978 0.0
C23 C 0.1975 0.02697 0.32683 0.0
O24 O 0.17014 0.08824 0.33044 0.0
C25 C 0.20632 0.10751 0.28512 0.0
O26 O 0.17546 0.10862 0.30571 0.0
O27 O 0.19765 0.09631 0.2825 0.0
C28 C 0.0529 0.19424 0.91258 0.0
O29 O 0.05875 0.17585 0.90301 0.0
Cd30 Cd 0.06526 0.11198 0.90744 0.0
O31 O 0.05001 0.17874 0.92633 0.0
Cd32 Cd 0.05232 0.1135 0.94098 0.0
C33 C 0.07642 0.12501 0.94566 0.0
O34 O 0.05082 0.07819 0.91497 0.0
O35 O 0.05394 0.04077 0.93613 0.0
O36 O 0.03538 0.11986 0.94924 0.0
C37 C 0.05175 0.04352 0.92077 0.0
O38 O 0.07691 0.12032 0.92987 0.0
C39 C 0.03654 0.10441 0.96361 0.0
O40 O 0.06832 0.12472 0.95329 0.0
O41 O 0.04519 0.09668 0.96799 0.0
C42 C 0.19543 0.05487 0.90951 0.0
O43 O 0.19152 0.08187 0.90067 0.0
Cd44 Cd 0.18794 0.14695 0.90984 0.0
O45 O 0.19777 0.0614 0.92473 0.0
Cd46 Cd 0.19722 0.12074 0.94339 0.0
C47 C 0.17325 0.12727 0.94392 0.0
O48 O 0.20266 0.16733 0.92255 0.0
O49 O 0.19508 0.19415 0.94316 0.0
O50 O 0.21325 0.10478 0.95396 0.0
C51 C 0.20041 0.19862 0.93035 0.0
O52 O 0.17438 0.14337 0.92959 0.0
C53 C 0.21141 0.11471 0.96897 0.0
O54 O 0.18041 0.11195 0.95162 0.0
O55 O 0.20265 0.12328 0.97238 0.0
C56 C 0.93868 0.92147 0.66094 0.0
O57 O 0.93412 0.8942 0.65322 0.0
Cd58 Cd 0.93348 0.82623 0.66109 0.0
O59 O 0.94286 0.9144 0.67491 0.0
Cd60 Cd 0.9445 0.85477 0.69319 0.0
C61 C 0.92071 0.83463 0.69748 0.0
O62 O 0.94972 0.81595 0.66965 0.0
O63 O 0.94708 0.78134 0.69177 0.0
O64 O 0.96029 0.87964 0.70195 0.0
C65 C 0.95054 0.78302 0.67707 0.0
O66 O 0.9214 0.81871 0.68306 0.0
C67 C 0.95957 0.86682 0.71687 0.0
O68 O 0.92776 0.85409 0.70371 0.0
O69 O 0.95135 0.85314 0.72122 0.0
C70 C 0.80142 0.82557 0.66244 0.0
O71 O 0.80595 0.85194 0.65414 0.0
Cd72 Cd 0.80815 0.91896 0.66219 0.0
O73 O 0.79794 0.8333 0.67693 0.0
Cd74 Cd 0.79781 0.89327 0.69537 0.0
C75 C 0.82212 0.90292 0.69692 0.0
O76 O 0.79248 0.93446 0.67272 0.0
O77 O 0.79695 0.96747 0.69437 0.0
O78 O 0.78202 0.87132 0.70545 0.0
C79 C 0.79276 0.96739 0.68023 0.0
O80 O 0.8213 0.91858 0.68247 0.0
C81 C 0.78322 0.88414 0.72027 0.0
O82 O 0.81478 0.88783 0.70424 0.0
O83 O 0.79161 0.89709 0.72392 0.0
C84 C 0.94364 0.82838 0.08918 0.0
O85 O 0.93925 0.85635 0.09673 0.0
Cd86 Cd 0.93588 0.91961 0.08496 0.0
O87 O 0.94633 0.83238 0.07396 0.0
Cd88 Cd 0.94536 0.88669 0.05286 0.0
C89 C 0.92132 0.89215 0.0522 0.0
O90 O 0.95077 0.93712 0.07196 0.0
O91 O 0.94342 0.96001 0.05032 0.0
O92 O 0.96133 0.86757 0.04276 0.0
C93 C 0.94872 0.96679 0.06296 0.0
O94 O 0.92236 0.91343 0.06528 0.0
C95 C 0.95962 0.87607 0.02756 0.0
O96 O 0.92848 0.87374 0.04575 0.0
O97 O 0.95092 0.88504 0.02389 0.0
C98 C 0.80562 0.92182 0.08609 0.0
O99 O 0.80983 0.89413 0.09414 0.0
Cd100 Cd 0.81014 0.82579 0.08666 0.0
O101 O 0.80127 0.9147 0.07229 0.0
Cd102 Cd 0.79858 0.8543 0.05496 0.0
C103 C 0.82236 0.83494 0.04973 0.0
O104 O 0.79376 0.81518 0.07877 0.0
O105 O 0.79611 0.78117 0.05632 0.0
O106 O 0.78263 0.87903 0.04692 0.0
C107 C 0.79283 0.78251 0.07116 0.0
O108 O 0.82203 0.81925 0.06423 0.0
C109 C 0.7832 0.86666 0.03191 0.0
O110 O 0.81505 0.85325 0.04376 0.0
O111 O 0.79139 0.85331 0.0272 0.0
C112 C 0.0424 0.56873 0.83989 0.0
O113 O 0.04531 0.59649 0.84945 0.0
Cd114 Cd 0.05012 0.66112 0.8413 0.0
O115 O 0.04175 0.57369 0.82405 0.0
Cd116 Cd 0.04404 0.63083 0.80433 0.0
C117 C 0.06794 0.63858 0.81207 0.0
O118 O 0.03698 0.67678 0.82362 0.0
O119 O 0.04403 0.70499 0.8029 0.0
O120 O 0.02942 0.60994 0.79008 0.0
C121 C 0.03876 0.70854 0.81582 0.0
O122 O 0.06541 0.6543 0.82595 0.0
C123 C 0.03218 0.62107 0.77564 0.0
O124 O 0.06162 0.62452 0.80204 0.0
O125 O 0.04101 0.63146 0.77423 0.0
C126 C 0.19397 0.66904 0.83727 0.0
O127 O 0.19084 0.64308 0.84749 0.0
Cd128 Cd 0.18691 0.57675 0.84014 0.0
O129 O 0.19532 0.66053 0.82187 0.0
Cd130 Cd 0.19417 0.60024 0.80403 0.0
C131 C 0.1703 0.59336 0.80831 0.0
O132 O 0.20071 0.55624 0.82485 0.0
O133 O 0.19295 0.5267 0.80512 0.0
O134 O 0.20962 0.62113 0.7928 0.0
C135 C 0.19853 0.52399 0.8177 0.0
O136 O 0.17242 0.57852 0.82254 0.0
C137 C 0.20824 0.60713 0.77824 0.0
O138 O 0.17682 0.60835 0.79891 0.0
O139 O 0.19975 0.59437 0.77502 0.0
C140 C 0.04965 0.6727 0.40489 0.0
O141 O 0.05313 0.647 0.39491 0.0
Cd142 Cd 0.05999 0.58642 0.40329 0.0
O143 O 0.04946 0.66636 0.42067 0.0
Cd144 Cd 0.0537 0.60984 0.43984 0.0
C145 C 0.07723 0.61982 0.43178 0.0
O146 O 0.04776 0.56005 0.421 0.0
O147 O 0.0574 0.53743 0.43984 0.0
O148 O 0.03835 0.62458 0.45324 0.0
C149 C 0.05133 0.53022 0.42833 0.0
O150 O 0.0749 0.60468 0.41772 0.0
C151 C 0.04082 0.61228 0.46764 0.0
O152 O 0.07081 0.6272 0.44286 0.0
O153 O 0.0497 0.60317 0.4696 0.0
C154 C 0.20604 0.55397 0.41562 0.0
O155 O 0.20453 0.58023 0.40447 0.0
Cd156 Cd 0.20029 0.64744 0.40883 0.0
O157 O 0.20568 0.56244 0.43122 0.0
Cd158 Cd 0.20366 0.62484 0.44798 0.0
C159 C 0.18052 0.63559 0.43551 0.0
O160 O 0.2123 0.66543 0.42837 0.0
O161 O 0.20425 0.69868 0.44653 0.0
O162 O 0.21719 0.60528 0.46536 0.0
C163 C 0.2102 0.699 0.43441 0.0
O164 O 0.18409 0.6464 0.42148 0.0
C165 C 0.2136 0.61856 0.47891 0.0
O166 O 0.186 0.62385 0.44739 0.0
O167 O 0.20482 0.63007 0.47838 0.0
C168 C 0.94852 0.44573 0.15963 0.0
O169 O 0.94579 0.42273 0.14794 0.0
Cd170 Cd 0.93984 0.35755 0.15215 0.0
O171 O 0.94866 0.43392 0.17482 0.0
Cd172 Cd 0.94579 0.3701 0.18973 0.0
C173 C 0.92216 0.37528 0.18239 0.0
O174 O 0.95213 0.32666 0.16826 0.0
O175 O 0.94251 0.29855 0.18587 0.0
O176 O 0.96098 0.38198 0.20383 0.0
C177 C 0.94858 0.29486 0.17403 0.0
O178 O 0.92457 0.36432 0.16766 0.0
C179 C 0.95833 0.36774 0.21783 0.0
O180 O 0.9286 0.38283 0.19337 0.0
O181 O 0.94945 0.35814 0.21927 0.0
C182 C 0.80053 0.30995 0.15913 0.0
O183 O 0.80266 0.3374 0.14882 0.0
Cd184 Cd 0.80338 0.4065 0.15424 0.0
O185 O 0.79842 0.31783 0.17437 0.0
Cd186 Cd 0.79669 0.38042 0.19104 0.0
C187 C 0.82023 0.40503 0.186 0.0
O188 O 0.78859 0.41496 0.16886 0.0
O189 O 0.79311 0.45305 0.18889 0.0
O190 O 0.78252 0.35454 0.20548 0.0
C191 C 0.78836 0.44907 0.17541 0.0
O192 O 0.81788 0.41632 0.17131 0.0
C193 C 0.78484 0.36869 0.21969 0.0
O194 O 0.81405 0.3883 0.19555 0.0
O195 O 0.79326 0.38384 0.2209 0.0
C196 C 0.95052 0.2934 0.5826 0.0
O197 O 0.94681 0.31492 0.59401 0.0
Cd198 Cd 0.94038 0.37894 0.58986 0.0
O199 O 0.95158 0.30637 0.56767 0.0
Cd200 Cd 0.94957 0.37245 0.55357 0.0
C201 C 0.92545 0.36286 0.55545 0.0
O202 O 0.95405 0.41049 0.57788 0.0
O203 O 0.94772 0.4451 0.55808 0.0
O204 O 0.96569 0.36182 0.5423 0.0
C205 C 0.95209 0.44441 0.57203 0.0
O206 O 0.92658 0.36947 0.57105 0.0
C207 C 0.96401 0.37866 0.52837 0.0
O208 O 0.93272 0.3614 0.5456 0.0
O209 O 0.95528 0.38865 0.52546 0.0
C210 C 0.80566 0.44985 0.58313 0.0
O211 O 0.81018 0.42708 0.59314 0.0
Cd212 Cd 0.81203 0.35728 0.59073 0.0
O213 O 0.80208 0.43667 0.56947 0.0
Cd214 Cd 0.80209 0.37087 0.55514 0.0
C215 C 0.8263 0.35447 0.55564 0.0
O216 O 0.79679 0.33689 0.58018 0.0
O217 O 0.80041 0.29827 0.55964 0.0
O218 O 0.78627 0.3881 0.54389 0.0
C219 C 0.79692 0.3021 0.57423 0.0
O220 O 0.82506 0.34638 0.57106 0.0
C221 C 0.78778 0.3734 0.52948 0.0
O222 O 0.81933 0.36789 0.54679 0.0
O223 O 0.79635 0.36134 0.52645 0.0
C224 C 0.54556 0.06387 0.83986 0.0
O225 O 0.5481 0.0928 0.8491 0.0
Cd226 Cd 0.55082 0.15872 0.83914 0.0
O227 O 0.54403 0.06892 0.82424 0.0
Cd228 Cd 0.54392 0.12476 0.80399 0.0
C229 C 0.5676 0.13924 0.80776 0.0
O230 O 0.53715 0.17419 0.82252 0.0
O231 O 0.54475 0.19757 0.80118 0.0
O232 O 0.52869 0.09908 0.79379 0.0
C233 C 0.5394 0.2042 0.81382 0.0
O234 O 0.56529 0.1568 0.82136 0.0
C235 C 0.53027 0.10726 0.77851 0.0
O236 O 0.56133 0.12016 0.7992 0.0
O237 O 0.53872 0.11969 0.7748 0.0
C238 C 0.69536 0.18194 0.84258 0.0
O239 O 0.69186 0.15796 0.85328 0.0
Cd240 Cd 0.68732 0.09163 0.84776 0.0
O241 O 0.69646 0.17154 0.8273 0.0
Cd242 Cd 0.6937 0.10954 0.81087 0.0
C243 C 0.66985 0.10687 0.81755 0.0
O244 O 0.70086 0.06889 0.83216 0.0
O245 O 0.69263 0.03617 0.81391 0.0
O246 O 0.70855 0.12576 0.79614 0.0
C247 C 0.6987 0.03569 0.82582 0.0
O248 O 0.6722 0.09394 0.83199 0.0
C249 C 0.70603 0.10982 0.7824 0.0
O250 O 0.6763 0.11858 0.80725 0.0
O251 O 0.69728 0.09825 0.7813 0.0
C252 C 0.55895 0.18196 0.41563 0.0
O253 O 0.56428 0.15818 0.40732 0.0
Cd254 Cd 0.56582 0.08853 0.41178 0.0
O255 O 0.55435 0.17008 0.4286 0.0
Cd256 Cd 0.5533 0.10555 0.4436 0.0
C257 C 0.57722 0.0903 0.44927 0.0
O258 O 0.5495 0.0716 0.41789 0.0
O259 O 0.55161 0.0326 0.43889 0.0
O260 O 0.53699 0.12275 0.45292 0.0
C261 C 0.54877 0.03705 0.42391 0.0
O262 O 0.57733 0.07712 0.43434 0.0
C263 C 0.53804 0.10818 0.46749 0.0
O264 O 0.56971 0.10692 0.45533 0.0
O265 O 0.5465 0.09644 0.4714 0.0
C266 C 0.69539 0.04576 0.41845 0.0
O267 O 0.69029 0.07111 0.4106 0.0
Cd268 Cd 0.68786 0.13876 0.41769 0.0
O269 O 0.69951 0.05485 0.43226 0.0
Cd270 Cd 0.69966 0.1167 0.44946 0.0
C271 C 0.67558 0.12469 0.45424 0.0
O272 O 0.70358 0.15882 0.42604 0.0
O273 O 0.69871 0.19026 0.4479 0.0
O274 O 0.71629 0.10357 0.45772 0.0
C275 C 0.70269 0.19159 0.43359 0.0
O276 O 0.67575 0.14111 0.43987 0.0
C277 C 0.71524 0.1163 0.4726 0.0
O278 O 0.68315 0.10848 0.46031 0.0
O279 O 0.70662 0.12391 0.47729 0.0
C280 C 0.44573 0.9396 0.16467 0.0
O281 O 0.44209 0.91367 0.15498 0.0
Cd282 Cd 0.43712 0.84939 0.16338 0.0
O283 O 0.44727 0.93199 0.18011 0.0
Cd284 Cd 0.44593 0.87121 0.19791 0.0
C285 C 0.42194 0.86921 0.19708 0.0
O286 O 0.45113 0.82417 0.17688 0.0
O287 O 0.44312 0.79834 0.19726 0.0
O288 O 0.46205 0.88463 0.20853 0.0
C289 C 0.44849 0.79316 0.18455 0.0
O290 O 0.42322 0.85487 0.18245 0.0
C291 C 0.46026 0.87355 0.22341 0.0
O292 O 0.4291 0.8819 0.20561 0.0
O293 O 0.45146 0.86576 0.22687 0.0
C294 C 0.3029 0.80351 0.16704 0.0
O295 O 0.30899 0.82347 0.15855 0.0
Cd296 Cd 0.31444 0.88869 0.16351 0.0
O297 O 0.29902 0.81769 0.18031 0.0
Cd298 Cd 0.30057 0.88165 0.19629 0.0
C299 C 0.32471 0.87096 0.20214 0.0
O300 O 0.29975 0.92027 0.17106 0.0
O301 O 0.30259 0.95469 0.19322 0.0
O302 O 0.28336 0.87499 0.20232 0.0
C303 C 0.30073 0.9541 0.17768 0.0
O304 O 0.32544 0.87874 0.18659 0.0
C305 C 0.28392 0.8882 0.21719 0.0
O306 O 0.31647 0.86888 0.20934 0.0
O307 O 0.29238 0.89472 0.22287 0.0
C308 C 0.44514 0.82114 0.59032 0.0
O309 O 0.44024 0.84875 0.59715 0.0
Cd310 Cd 0.43735 0.9123 0.58563 0.0
O311 O 0.44858 0.82528 0.57554 0.0
Cd312 Cd 0.44822 0.87993 0.55433 0.0
C313 C 0.42412 0.88556 0.55122 0.0
O314 O 0.45294 0.92751 0.57492 0.0
O315 O 0.44731 0.95416 0.55253 0.0
O316 O 0.46445 0.86071 0.54556 0.0
C317 C 0.45187 0.95842 0.5662 0.0
O318 O 0.42463 0.90609 0.5646 0.0
C319 C 0.46326 0.87006 0.53029 0.0
O320 O 0.43157 0.86804 0.54534 0.0
O321 O 0.4547 0.87934 0.52588 0.0
C322 C 0.30491 0.93111 0.58763 0.0
O323 O 0.30933 0.90527 0.59637 0.0
Cd324 Cd 0.31125 0.83755 0.58844 0.0
O325 O 0.3015 0.92217 0.57326 0.0
Cd326 Cd 0.30095 0.86154 0.55567 0.0
C327 C 0.32474 0.84825 0.55274 0.0
O328 O 0.29566 0.81965 0.57832 0.0
O329 O 0.30117 0.78775 0.55699 0.0
O330 O 0.28486 0.88233 0.54707 0.0
C331 C 0.29651 0.78695 0.57069 0.0
O332 O 0.3239 0.83242 0.56715 0.0
C333 C 0.28557 0.86887 0.53227 0.0
O334 O 0.31768 0.86646 0.54591 0.0
O335 O 0.29391 0.85668 0.52775 0.0
C336 C 0.55014 0.55635 0.33493 0.0
O337 O 0.55387 0.58292 0.34422 0.0
Cd338 Cd 0.55664 0.65037 0.33694 0.0
O339 O 0.54747 0.56392 0.31996 0.0
Cd340 Cd 0.54702 0.62562 0.30278 0.0
C341 C 0.57102 0.64068 0.30207 0.0
O342 O 0.54133 0.66636 0.32558 0.0
O343 O 0.54607 0.69961 0.30419 0.0
O344 O 0.53131 0.60595 0.29184 0.0
C345 C 0.54188 0.69959 0.31834 0.0
O346 O 0.56991 0.65548 0.31664 0.0
C347 C 0.53293 0.61869 0.27712 0.0
O348 O 0.56406 0.62338 0.29456 0.0
O349 O 0.54154 0.62979 0.2739 0.0
C350 C 0.68848 0.67436 0.33606 0.0
O351 O 0.68197 0.65353 0.34316 0.0
Cd352 Cd 0.67856 0.58535 0.33762 0.0
O353 O 0.69333 0.6607 0.32369 0.0
Cd354 Cd 0.69295 0.59793 0.3074 0.0
C355 C 0.66892 0.59621 0.2989 0.0
O356 O 0.69437 0.56048 0.33292 0.0
O357 O 0.69284 0.52435 0.31083 0.0
O358 O 0.70996 0.61078 0.30114 0.0
C359 C 0.69461 0.52634 0.3264 0.0
O360 O 0.66788 0.58215 0.31358 0.0
C361 C 0.70957 0.59699 0.28634 0.0
O362 O 0.67712 0.60895 0.29386 0.0
O363 O 0.70124 0.58742 0.28086 0.0
C364 C 0.54703 0.67111 0.90762 0.0
O365 O 0.54934 0.64512 0.89679 0.0
Cd366 Cd 0.55483 0.58047 0.90332 0.0
O367 O 0.54697 0.66263 0.92321 0.0
Cd368 Cd 0.54947 0.60168 0.94062 0.0
C369 C 0.573 0.60427 0.93188 0.0
O370 O 0.54263 0.55466 0.92125 0.0
O371 O 0.5524 0.52908 0.93926 0.0
O372 O 0.53452 0.61794 0.95488 0.0
C373 C 0.54609 0.52371 0.92793 0.0
O374 O 0.57035 0.59102 0.91762 0.0
C375 C 0.53732 0.60688 0.96928 0.0
O376 O 0.56676 0.61319 0.94305 0.0
O377 O 0.54618 0.59683 0.97068 0.0
C378 C 0.70295 0.56449 0.91116 0.0
O379 O 0.70053 0.59174 0.90098 0.0
Cd380 Cd 0.69506 0.65555 0.90817 0.0
O381 O 0.70271 0.57024 0.92699 0.0
Cd382 Cd 0.69933 0.62877 0.94564 0.0
C383 C 0.67595 0.63217 0.93479 0.0
O384 O 0.70731 0.67438 0.92728 0.0
O385 O 0.69815 0.7028 0.94536 0.0
O386 O 0.71348 0.61031 0.96183 0.0
C387 C 0.70457 0.70629 0.93407 0.0
O388 O 0.67913 0.64637 0.92104 0.0
C389 C 0.71016 0.6226 0.97574 0.0
O390 O 0.68177 0.62077 0.94621 0.0
O391 O 0.70128 0.63275 0.97601 0.0
C392 C 0.45142 0.44959 0.66553 0.0
O393 O 0.449 0.42997 0.6526 0.0
Cd394 Cd 0.44181 0.36652 0.65258 0.0
O395 O 0.45055 0.43477 0.68018 0.0
Cd396 Cd 0.44632 0.36765 0.69149 0.0
C397 C 0.42309 0.37894 0.68155 0.0
O398 O 0.45297 0.32942 0.66857 0.0
O399 O 0.4428 0.29798 0.68417 0.0
O400 O 0.46115 0.37109 0.7074 0.0
C401 C 0.44906 0.29678 0.67255 0.0
O402 O 0.4261 0.37297 0.66664 0.0
C403 C 0.45785 0.35377 0.72033 0.0
O404 O 0.42903 0.38091 0.69374 0.0
O405 O 0.44878 0.34681 0.7206 0.0
C406 C 0.29358 0.3131 0.6613 0.0
O407 O 0.29509 0.33988 0.6504 0.0
Cd408 Cd 0.30047 0.40483 0.65666 0.0
O409 O 0.29415 0.32079 0.67693 0.0
Cd410 Cd 0.29636 0.38156 0.69451 0.0
C411 C 0.31964 0.38348 0.68376 0.0
O412 O 0.28873 0.42826 0.67583 0.0
O413 O 0.2984 0.45462 0.69373 0.0
O414 O 0.28181 0.36266 0.70928 0.0
C415 C 0.29207 0.45956 0.6824 0.0
O416 O 0.3164 0.39649 0.66984 0.0
C417 C 0.28462 0.37472 0.72355 0.0
O418 O 0.31387 0.37303 0.69544 0.0
O419 O 0.29342 0.38577 0.72471 0.0
C420 C 0.44332 0.32217 0.09011 0.0
O421 O 0.43865 0.3473 0.09883 0.0
Cd422 Cd 0.43509 0.413 0.08983 0.0
O423 O 0.44631 0.33109 0.07545 0.0
Cd424 Cd 0.44575 0.39104 0.0573 0.0
C425 C 0.42173 0.39286 0.05455 0.0
O426 O 0.45017 0.4366 0.07923 0.0
O427 O 0.44338 0.46441 0.05803 0.0
O428 O 0.4621 0.37419 0.04851 0.0
C429 C 0.44822 0.46824 0.07143 0.0
O430 O 0.42216 0.40965 0.06884 0.0
C431 C 0.46103 0.38567 0.03348 0.0
O432 O 0.4293 0.37842 0.04772 0.0
O433 O 0.45254 0.39629 0.02915 0.0
C434 C 0.30169 0.44845 0.08072 0.0
O435 O 0.30754 0.42824 0.08959 0.0
Cd436 Cd 0.31078 0.35882 0.08673 0.0
O437 O 0.29762 0.43341 0.06786 0.0
Cd438 Cd 0.29894 0.36861 0.05343 0.0
C439 C 0.32316 0.36028 0.05003 0.0
O440 O 0.29554 0.33211 0.07893 0.0
O441 O 0.29944 0.29603 0.05772 0.0
O442 O 0.2825 0.37921 0.04353 0.0
C443 C 0.29632 0.29778 0.07264 0.0
O444 O 0.32295 0.34875 0.0652 0.0
C445 C 0.28404 0.36505 0.02902 0.0
O446 O 0.31566 0.37469 0.04296 0.0
O447 O 0.29276 0.35637 0.02539 0.0
H448 H 0.0827 0.12335 0.33342 0.0
H449 H 0.09984 0.12418 0.32621 0.0
H450 H 0.09286 0.10103 0.27443 0.0
H451 H 0.07551 0.09978 0.28157 0.0
H452 H 0.10893 0.05763 0.28577 0.0
H453 H 0.09909 0.19216 0.28364 0.0
H454 H 0.09064 0.25318 0.29272 0.0
H455 H 0.10783 0.25647 0.33756 0.0
H456 H 0.11628 0.19511 0.3289 0.0
H457 H 0.16129 0.1016 0.28336 0.0
H458 H 0.14413 0.10801 0.27502 0.0
H459 H 0.13584 0.1155 0.32708 0.0
H460 H 0.15273 0.10852 0.33545 0.0
H461 H 0.12754 0.17559 0.30505 0.0
H462 H 0.13362 0.03087 0.30925 0.0
H463 H 0.14188 0.9694 0.3001 0.0
H464 H 0.13174 0.98792 0.24981 0.0
H465 H 0.12352 0.04983 0.25866 0.0
C466 C 0.08476 0.11817 0.32049 0.0
C467 C 0.07772 0.11191 0.30804 0.0
C468 C 0.09458 0.11883 0.31638 0.0
C469 C 0.09758 0.11361 0.29973 0.0
C470 C 0.09065 0.10552 0.28733 0.0
C471 C 0.08076 0.10476 0.29145 0.0
C472 C 0.10802 0.11726 0.29565 0.0
C473 C 0.11299 0.08384 0.28951 0.0
C474 C 0.11329 0.15163 0.30037 0.0
C475 C 0.10832 0.18891 0.30561 0.0
C476 C 0.10104 0.20577 0.29548 0.0
C477 C 0.09625 0.24044 0.30055 0.0
C478 C 0.09869 0.25869 0.31571 0.0
C479 C 0.10595 0.24233 0.32581 0.0
C480 C 0.11076 0.20763 0.32081 0.0
C481 C 0.15578 0.10473 0.29297 0.0
C482 C 0.15833 0.10437 0.31005 0.0
C483 C 0.14603 0.10836 0.2882 0.0
C484 C 0.13879 0.11234 0.30047 0.0
C485 C 0.14136 0.11264 0.31745 0.0
C486 C 0.15101 0.10839 0.3222 0.0
C487 C 0.12841 0.11526 0.29612 0.0
C488 C 0.12345 0.15004 0.30067 0.0
C489 C 0.12317 0.08237 0.28979 0.0
C490 C 0.12808 0.04518 0.28455 0.0
C491 C 0.13323 0.02201 0.29621 0.0
C492 C 0.13789 0.98706 0.29109 0.0
C493 C 0.13737 0.97484 0.27437 0.0
C494 C 0.13216 -0.00252 0.26275 0.0
C495 C 0.1275 0.03248 0.26781 0.0
H496 H 0.14097 0.94777 0.27043 0.0
H497 H 0.09497 0.28552 0.31962 0.0
H498 H 0.16689 0.08357 0.97089 0.0
H499 H 0.15047 0.08296 0.98294 0.0
H500 H 0.1414 0.1706 0.94666 0.0
H501 H 0.15762 0.17132 0.93459 0.0
H502 H 0.13441 0.1862 0.97892 0.0
H503 H 0.13747 0.07479 0.93911 0.0
H504 H 0.14473 0.01163 0.92946 0.0
H505 H 0.13724 0.95625 0.97624 0.0
H506 H 0.13003 0.01932 0.98622 0.0
H507 H 0.09162 0.17031 0.9364 0.0
H508 H 0.10773 0.17183 0.94899 0.0
H509 H 0.09812 0.09159 0.98786 0.0
H510 H 0.08174 0.09094 0.97542 0.0
H511 H 0.11457 0.06557 0.96833 0.0
H512 H 0.10579 0.17481 0.00182 0.0
H513 H 0.09793 0.23849 0.00903 0.0
H514 H 0.11568 0.29913 0.97288 0.0
H515 H 0.12355 0.23577 0.96524 0.0
C516 C 0.1614 0.10288 0.96559 0.0
C517 C 0.16352 0.12724 0.9517 0.0
C518 C 0.15205 0.10255 0.97251 0.0
C519 C 0.14476 0.12685 0.96571 0.0
C520 C 0.14695 0.15189 0.95217 0.0
C521 C 0.15621 0.15196 0.94518 0.0
C522 C 0.1346 0.12457 0.97154 0.0
C523 C 0.13005 0.15976 0.97686 0.0
C524 C 0.12902 0.08958 0.96947 0.0
C525 C 0.13336 0.05182 0.96349 0.0
C526 C 0.13746 0.04922 0.94738 0.0
C527 C 0.14154 0.01344 0.94184 0.0
C528 C 0.14148 0.97999 0.95226 0.0
C529 C 0.13731 0.98222 0.96821 0.0
C530 C 0.13323 0.01796 0.97381 0.0
C531 C 0.09288 0.15383 0.94788 0.0
C532 C 0.08551 0.13046 0.95496 0.0
C533 C 0.10205 0.15488 0.95512 0.0
C534 C 0.10407 0.13205 0.96942 0.0
C535 C 0.09664 0.1097 0.97693 0.0
C536 C 0.08733 0.10941 0.96986 0.0
C537 C 0.1143 0.12793 0.97465 0.0
C538 C 0.11892 0.09154 0.97135 0.0
C539 C 0.11992 0.16194 0.97842 0.0
C540 C 0.11528 0.2004 0.98298 0.0
C541 C 0.10799 0.20167 0.99534 0.0
C542 C 0.10354 0.23775 0.99951 0.0
C543 C 0.10631 0.27284 0.99143 0.0
C544 C 0.11356 0.27193 0.97916 0.0
C545 C 0.11804 0.23594 0.97493 0.0
H546 H 0.10285 0.30074 0.99467 0.0
H547 H 0.14464 0.95231 0.94795 0.0
H548 H 0.91248 0.8923 0.71698 0.0
H549 H 0.89535 0.89679 0.72492 0.0
H550 H 0.89049 0.77861 0.70534 0.0
H551 H 0.90748 0.77491 0.69671 0.0
H552 H 0.8792 0.8267 0.69069 0.0
H553 H 0.88678 0.80354 0.74786 0.0
H554 H 0.89539 0.812 0.7747 0.0
H555 H 0.88556 0.93311 0.7777 0.0
H556 H 0.877 0.92559 0.75075 0.0
H557 H 0.82794 0.85413 0.72266 0.0
H558 H 0.84474 0.83831 0.73047 0.0
H559 H 0.85515 0.9264 0.69551 0.0
H560 H 0.83852 0.94221 0.68758 0.0
H561 H 0.86261 0.88228 0.74075 0.0
H562 H 0.87026 0.87669 0.66977 0.0
H563 H 0.86137 0.86512 0.64337 0.0
H564 H 0.84071 0.79213 0.66947 0.0
H565 H 0.84956 0.80272 0.69595 0.0
C566 C 0.9078 0.86686 0.71485 0.0
C567 C 0.91122 0.83351 0.70602 0.0
C568 C 0.89802 0.86934 0.71947 0.0
C569 C 0.8916 0.83809 0.71566 0.0
C570 C 0.89528 0.80324 0.70828 0.0
C571 C 0.90498 0.80113 0.70335 0.0
C572 C 0.88094 0.84432 0.71655 0.0
C573 C 0.8756 0.83828 0.70178 0.0
C574 C 0.87616 0.85935 0.73097 0.0
C575 C 0.88129 0.86405 0.74721 0.0
C576 C 0.88651 0.83208 0.75417 0.0
C577 C 0.89138 0.83669 0.76942 0.0
C578 C 0.89104 0.87308 0.77789 0.0
C579 C 0.88581 0.90493 0.77113 0.0
C580 C 0.88094 0.90049 0.75588 0.0
C581 C 0.83381 0.87086 0.71698 0.0
C582 C 0.83193 0.89887 0.70426 0.0
C583 C 0.84338 0.86189 0.72151 0.0
C584 C 0.85114 0.88087 0.7134 0.0
C585 C 0.84924 0.91125 0.70181 0.0
C586 C 0.83973 0.92008 0.69723 0.0
C587 C 0.86114 0.86529 0.71487 0.0
C588 C 0.86628 0.86987 0.72991 0.0
C589 C 0.86577 0.84813 0.70082 0.0
C590 C 0.86053 0.8408 0.68486 0.0
C591 C 0.86385 0.858 0.66984 0.0
C592 C 0.85881 0.85163 0.65487 0.0
C593 C 0.85046 0.828 0.65475 0.0
C594 C 0.84715 0.81053 0.66959 0.0
C595 C 0.85217 0.81674 0.68459 0.0
H596 H 0.84657 0.82317 0.64315 0.0
H597 H 0.8948 0.87659 0.78969 0.0
H598 H 0.91251 0.8242 0.04173 0.0
H599 H 0.89551 0.81639 0.0336 0.0
H600 H 0.89148 0.94374 0.03723 0.0
H601 H 0.90826 0.9509 0.0467 0.0
H602 H 0.87801 0.91341 0.05251 0.0
H603 H 0.89045 0.88621 0.99832 0.0
H604 H 0.90084 0.85543 0.97672 0.0
H605 H 0.88924 0.74028 0.98877 0.0
H606 H 0.87888 0.77026 0.01061 0.0
H607 H 0.82908 0.89351 0.02918 0.0
H608 H 0.84603 0.90406 0.02095 0.0
H609 H 0.85379 0.79065 0.0424 0.0
H610 H 0.83693 0.78038 0.0511 0.0
H611 H 0.86469 0.82049 0.00999 0.0
H612 H 0.85518 0.8532 0.06852 0.0
H613 H 0.84438 0.88747 0.08857 0.0
H614 H 0.85051 -0.00055 0.06484 0.0
H615 H 0.86122 0.96562 0.04446 0.0
C616 C 0.90799 0.85046 0.04052 0.0
C617 C 0.9116 0.88807 0.0449 0.0
C618 C 0.8983 0.8461 0.03571 0.0
C619 C 0.89217 0.87953 0.03458 0.0
C620 C 0.896 0.91742 0.03808 0.0
C621 C 0.90558 0.92157 0.04345 0.0
C622 C 0.88156 0.8746 0.03175 0.0
C623 C 0.87517 0.89387 0.04286 0.0
C624 C 0.87772 0.84875 0.01934 0.0
C625 C 0.88393 0.8305 0.00619 0.0
C626 C 0.89016 0.85429 0.99645 0.0
C627 C 0.89604 0.83698 0.98415 0.0
C628 C 0.89571 0.79592 0.9814 0.0
C629 C 0.88949 0.77209 0.99092 0.0
C630 C 0.8836 0.78924 0.00325 0.0
C631 C 0.83433 0.8702 0.0316 0.0
C632 C 0.83176 0.83637 0.04096 0.0
C633 C 0.84399 0.87625 0.02686 0.0
C634 C 0.8511 0.84814 0.03114 0.0
C635 C 0.84836 0.81248 0.03892 0.0
C636 C 0.83876 0.8068 0.04398 0.0
C637 C 0.86145 0.85913 0.03072 0.0
C638 C 0.86769 0.8408 0.0192 0.0
C639 C 0.8652 0.88653 0.04246 0.0
C640 C 0.85889 0.90686 0.05487 0.0
C641 C 0.85415 0.88507 0.0675 0.0
C642 C 0.84806 0.90441 0.07893 0.0
C643 C 0.84673 0.9456 0.07795 0.0
C644 C 0.85152 0.96753 0.06556 0.0
C645 C 0.8576 0.9483 0.05407 0.0
H646 H 0.84202 0.96054 0.08681 0.0
H647 H 0.90027 0.78258 0.97187 0.0
H648 H 0.07657 0.59549 0.78689 0.0
H649 H 0.094 0.58632 0.78206 0.0
H650 H 0.10029 0.66667 0.82281 0.0
H651 H 0.08298 0.67544 0.82793 0.0
H652 H 0.10968 0.63419 0.77497 0.0
H653 H 0.11814 0.62846 0.8461 0.0
H654 H 0.10998 0.60999 0.87253 0.0
H655 H 0.09117 0.53046 0.8457 0.0
H656 H 0.0993 0.54803 0.81916 0.0
H657 H 0.16055 0.65273 0.79205 0.0
H658 H 0.14293 0.65773 0.78823 0.0
H659 H 0.13948 0.5397 0.80889 0.0
H660 H 0.15696 0.53577 0.81358 0.0
H661 H 0.12817 0.58526 0.82417 0.0
H662 H 0.13484 0.56477 0.76604 0.0
H663 H 0.14278 0.5768 0.73878 0.0
H664 H 0.13116 0.69541 0.73769 0.0
H665 H 0.12326 0.68429 0.76506 0.0
C666 C 0.08167 0.61148 0.79472 0.0
C667 C 0.07839 0.63568 0.80797 0.0
C668 C 0.09162 0.60635 0.79188 0.0
C669 C 0.09842 0.62535 0.80224 0.0
C670 C 0.09515 0.65121 0.81486 0.0
C671 C 0.08525 0.65613 0.81777 0.0
C672 C 0.10889 0.61605 0.80082 0.0
C673 C 0.11376 0.62338 0.78567 0.0
C674 C 0.11413 0.60104 0.81468 0.0
C675 C 0.10927 0.58987 0.83063 0.0
C676 C 0.11229 0.60691 0.84586 0.0
C677 C 0.10766 0.59661 0.86085 0.0
C678 C 0.10004 0.56916 0.86078 0.0
C679 C 0.09705 0.55183 0.84573 0.0
C680 C 0.10166 0.56198 0.8307 0.0
C681 C 0.15601 0.62766 0.79545 0.0
C682 C 0.16004 0.59403 0.80323 0.0
C683 C 0.14595 0.63041 0.79319 0.0
C684 C 0.13985 0.59905 0.79826 0.0
C685 C 0.14401 0.56444 0.80503 0.0
C686 C 0.15399 0.56215 0.80767 0.0
C687 C 0.12912 0.6037 0.7983 0.0
C688 C 0.12416 0.59572 0.81332 0.0
C689 C 0.12382 0.61704 0.78417 0.0
C690 C 0.12852 0.62378 0.76767 0.0
C691 C 0.13404 0.59352 0.76005 0.0
C692 C 0.13852 0.60016 0.74457 0.0
C693 C 0.13749 0.63687 0.73653 0.0
C694 C 0.13196 0.667 0.74394 0.0
C695 C 0.12747 0.66052 0.75942 0.0
H696 H 0.14097 0.64196 0.72454 0.0
H697 H 0.09646 0.56126 0.8724 0.0
H698 H 0.09119 0.63588 0.40889 0.0
H699 H 0.10863 0.6404 0.41349 0.0
H700 H 0.10427 0.62429 0.46664 0.0
H701 H 0.08662 0.62102 0.46212 0.0
H702 H 0.11895 0.6767 0.46035 0.0
H703 H 0.11072 0.54557 0.44317 0.0
H704 H 0.10281 0.49403 0.42592 0.0
H705 H 0.11883 0.53318 0.38276 0.0
H706 H 0.12673 0.58537 0.39969 0.0
H707 H 0.17011 0.62141 0.4643 0.0
H708 H 0.1524 0.62028 0.46744 0.0
H709 H 0.14919 0.64953 0.41511 0.0
H710 H 0.16677 0.65096 0.41183 0.0
H711 H 0.13831 0.58326 0.42556 0.0
H712 H 0.14533 0.71878 0.44348 0.0
H713 H 0.15318 0.76883 0.46158 0.0
H714 H 0.13957 0.7173 0.5049 0.0
H715 H 0.13175 0.66657 0.48706 0.0
C716 C 0.09392 0.63375 0.42159 0.0
C717 C 0.08758 0.62752 0.43513 0.0
C718 C 0.10389 0.63624 0.4242 0.0
C719 C 0.10775 0.63155 0.44035 0.0
C720 C 0.10142 0.62762 0.45406 0.0
C721 C 0.09137 0.62576 0.45147 0.0
C722 C 0.11841 0.62865 0.44247 0.0
C723 C 0.12319 0.6558 0.45299 0.0
C724 C 0.12393 0.60124 0.43291 0.0
C725 C 0.11928 0.56954 0.42269 0.0
C726 C 0.11252 0.54334 0.42998 0.0
C727 C 0.10804 0.514 0.42026 0.0
C728 C 0.11031 0.51037 0.40325 0.0
C729 C 0.11708 0.53603 0.39594 0.0
C730 C 0.12157 0.56546 0.4056 0.0
C731 C 0.16563 0.62776 0.45348 0.0
C732 C 0.16986 0.63606 0.43779 0.0
C733 C 0.15553 0.62725 0.45533 0.0
C734 C 0.14952 0.63484 0.4415 0.0
C735 C 0.15372 0.64351 0.42591 0.0
C736 C 0.16378 0.64434 0.42408 0.0
C737 C 0.13884 0.63232 0.44288 0.0
C738 C 0.13406 0.60381 0.43309 0.0
C739 C 0.13337 0.65804 0.45328 0.0
C740 C 0.13805 0.6886 0.46397 0.0
C741 C 0.14409 0.71789 0.45688 0.0
C742 C 0.14851 0.74643 0.46709 0.0
C743 C 0.1469 0.74616 0.48439 0.0
C744 C 0.14083 0.71742 0.4915 0.0
C745 C 0.13639 0.68879 0.48135 0.0
H746 H 0.15033 0.76829 0.49227 0.0
H747 H 0.10683 0.48764 0.39575 0.0
H748 H 0.90671 0.3586 0.1623 0.0
H749 H 0.88954 0.36507 0.16892 0.0
H750 H 0.89668 0.40602 0.21866 0.0
H751 H 0.91401 0.39999 0.21209 0.0
H752 H 0.87839 0.32933 0.19234 0.0
H753 H 0.87882 0.47556 0.22915 0.0
H754 H 0.88903 0.5354 0.2326 0.0
H755 H 0.89942 0.52278 0.1821 0.0
H756 H 0.88919 0.46322 0.17832 0.0
H757 H 0.82917 0.36746 0.21226 0.0
H758 H 0.8466 0.36558 0.21819 0.0
H759 H 0.8518 0.44812 0.17775 0.0
H760 H 0.83445 0.45023 0.17174 0.0
H761 H 0.86399 0.4614 0.2051 0.0
H762 H 0.85277 0.35266 0.16964 0.0
H763 H 0.84264 0.29406 0.16323 0.0
H764 H 0.85404 0.23351 0.20635 0.0
H765 H 0.86414 0.29207 0.21314 0.0
C766 C 0.90467 0.36897 0.17468 0.0
C767 C 0.91175 0.37896 0.18664 0.0
C768 C 0.89484 0.37241 0.17846 0.0
C769 C 0.89185 0.38604 0.19426 0.0
C770 C 0.89886 0.39566 0.20635 0.0
C771 C 0.90874 0.39218 0.20257 0.0
C772 C 0.88136 0.39106 0.19761 0.0
C773 C 0.87525 0.35807 0.1954 0.0
C774 C 0.87728 0.42859 0.20152 0.0
C775 C 0.88334 0.46471 0.20354 0.0
C776 C 0.88327 0.48565 0.21879 0.0
C777 C 0.88906 0.5195 0.2208 0.0
C778 C 0.89491 0.5328 0.2076 0.0
C779 C 0.89493 0.51237 0.19234 0.0
C780 C 0.88915 0.47855 0.19026 0.0
C781 C 0.834 0.38588 0.20487 0.0
C782 C 0.83045 0.40855 0.19137 0.0
C783 C 0.84395 0.38476 0.20828 0.0
C784 C 0.85046 0.40645 0.19831 0.0
C785 C 0.84687 0.43124 0.18561 0.0
C786 C 0.83696 0.43215 0.18211 0.0
C787 C 0.86104 0.3998 0.19955 0.0
C788 C 0.86715 0.43242 0.2026 0.0
C789 C 0.86515 0.36206 0.1961 0.0
C790 C 0.8591 0.32688 0.19202 0.0
C791 C 0.85305 0.32697 0.17783 0.0
C792 C 0.84733 0.29376 0.17412 0.0
C793 C 0.84767 0.26013 0.18441 0.0
C794 C 0.85376 0.25962 0.19842 0.0
C795 C 0.85948 0.2928 0.20221 0.0
H796 H 0.84324 0.23443 0.18151 0.0
H797 H 0.89939 0.55898 0.20919 0.0
H798 H 0.91859 0.37636 0.52366 0.0
H799 H 0.90173 0.36899 0.5139 0.0
H800 H 0.89335 0.32657 0.56285 0.0
H801 H 0.90998 0.33457 0.57271 0.0
H802 H 0.88563 0.28156 0.53465 0.0
H803 H 0.89002 0.41917 0.55524 0.0
H804 H 0.89768 0.48548 0.55393 0.0
H805 H 0.88869 0.49795 0.50267 0.0
H806 H 0.88107 0.43142 0.50365 0.0
H807 H 0.84154 0.31654 0.57003 0.0
H808 H 0.85804 0.31147 0.55984 0.0
H809 H 0.85007 0.37396 0.51464 0.0
H810 H 0.83331 0.3799 0.52503 0.0
H811 H 0.86616 0.40498 0.52841 0.0
H812 H 0.85696 0.27609 0.51197 0.0
H813 H 0.84899 0.21055 0.51387 0.0
H814 H 0.8668 0.18015 0.55611 0.0
H815 H 0.87479 0.24569 0.55465 0.0
C816 C 0.91314 0.36514 0.53225 0.0
C817 C 0.91555 0.35631 0.54897 0.0
C818 C 0.90355 0.36095 0.52666 0.0
C819 C 0.89635 0.34715 0.53767 0.0
C820 C 0.89884 0.33706 0.55416 0.0
C821 C 0.90832 0.34193 0.55981 0.0
C822 C 0.88603 0.34539 0.53273 0.0
C823 C 0.88134 0.30838 0.53308 0.0
C824 C 0.88054 0.38033 0.52998 0.0
C825 C 0.88511 0.42019 0.52944 0.0
C826 C 0.88976 0.43592 0.54365 0.0
C827 C 0.89407 0.47356 0.54298 0.0
C828 C 0.89371 0.49585 0.52821 0.0
C829 C 0.88899 0.4806 0.51409 0.0
C830 C 0.88468 0.44294 0.51469 0.0
C831 C 0.84321 0.32894 0.55782 0.0
C832 C 0.8361 0.34884 0.54838 0.0
C833 C 0.85267 0.3256 0.55191 0.0
C834 C 0.85527 0.34166 0.53632 0.0
C835 C 0.84818 0.36099 0.52663 0.0
C836 C 0.83862 0.36433 0.53257 0.0
C837 C 0.86564 0.34118 0.53134 0.0
C838 C 0.87039 0.37778 0.52915 0.0
C839 C 0.87119 0.30573 0.53228 0.0
C840 C 0.86649 0.26592 0.53317 0.0
C841 C 0.85916 0.25551 0.52171 0.0
C842 C 0.85463 0.21834 0.52271 0.0
C843 C 0.85739 0.1912 0.5351 0.0
C844 C 0.86469 0.20117 0.5465 0.0
C845 C 0.86924 0.23831 0.54556 0.0
H846 H 0.85387 0.16244 0.53586 0.0
H847 H 0.89705 0.525 0.52771 0.0
H848 H 0.65476 0.07181 0.83383 0.0
H849 H 0.63752 0.07778 0.82768 0.0
H850 H 0.64404 0.15303 0.78529 0.0
H851 H 0.66143 0.14644 0.79117 0.0
H852 H 0.62701 0.14217 0.82884 0.0
H853 H 0.6253 0.14283 0.7564 0.0
H854 H 0.63424 0.11488 0.7323 0.0
H855 H 0.64414 0.01777 0.76283 0.0
H856 H 0.63515 0.04484 0.78704 0.0
H857 H 0.58021 0.20066 0.81051 0.0
H858 H 0.5978 0.19849 0.80652 0.0
H859 H 0.59571 0.07612 0.79038 0.0
H860 H 0.578 0.07896 0.79349 0.0
H861 H 0.6106 0.11205 0.77494 0.0
H862 H 0.59904 0.09931 0.8319 0.0
H863 H 0.58971 0.12073 0.85673 0.0
H864 H 0.60625 0.22895 0.85902 0.0
H865 H 0.6156 0.20837 0.83406 0.0
C866 C 0.65256 0.08944 0.82311 0.0
C867 C 0.65946 0.10889 0.81305 0.0
C868 C 0.64269 0.09282 0.81962 0.0
C869 C 0.6395 0.11586 0.80605 0.0
C870 C 0.64636 0.13473 0.79572 0.0
C871 C 0.65628 0.13107 0.79914 0.0
C872 C 0.62895 0.12164 0.80345 0.0
C873 C 0.62345 0.13569 0.81702 0.0
C874 C 0.62429 0.11291 0.78808 0.0
C875 C 0.62965 0.09615 0.77357 0.0
C876 C 0.62936 0.11546 0.75795 0.0
C877 C 0.63444 0.09977 0.74427 0.0
C878 C 0.63979 0.06466 0.74605 0.0
C879 C 0.64003 0.04507 0.76149 0.0
C880 C 0.63496 0.0606 0.7752 0.0
C881 C 0.5835 0.17364 0.80572 0.0
C882 C 0.57783 0.13975 0.80256 0.0
C883 C 0.59353 0.17242 0.80344 0.0
C884 C 0.59807 0.13681 0.79862 0.0
C885 C 0.59235 0.10384 0.7942 0.0
C886 C 0.58225 0.10541 0.79604 0.0
C887 C 0.60872 0.13243 0.80035 0.0
C888 C 0.61422 0.11882 0.78668 0.0
C889 C 0.6134 0.1405 0.81578 0.0
C890 C 0.60795 0.15247 0.83104 0.0
C891 C 0.60066 0.12773 0.83767 0.0
C892 C 0.59537 0.13973 0.85176 0.0
C893 C 0.59737 0.17623 0.85942 0.0
C894 C 0.6047 0.20072 0.85306 0.0
C895 C 0.61 0.18889 0.83895 0.0
H896 H 0.59324 0.18551 0.8703 0.0
H897 H 0.64372 0.05258 0.73545 0.0
H898 H 0.66099 0.17895 0.45453 0.0
H899 H 0.64429 0.16824 0.46396 0.0
H900 H 0.65207 0.05145 0.48191 0.0
H901 H 0.66893 0.06253 0.47298 0.0
H902 H 0.63738 0.06068 0.45381 0.0
H903 H 0.64441 0.10327 0.50989 0.0
H904 H 0.65103 0.14889 0.53121 0.0
H905 H 0.63186 0.24138 0.51436 0.0
H906 H 0.62522 0.19651 0.49276 0.0
H907 H 0.58796 0.02561 0.45752 0.0
H908 H 0.60458 0.02563 0.46842 0.0
H909 H 0.60381 0.15401 0.47147 0.0
H910 H 0.58693 0.15351 0.46188 0.0
H911 H 0.61555 0.12971 0.49391 0.0
H912 H 0.61174 0.10161 0.4353 0.0
H913 H 0.60561 0.06574 0.41049 0.0
H914 H 0.6193 0.95829 0.42758 0.0
H915 H 0.62541 0.99347 0.45262 0.0
C916 C 0.6592 0.15152 0.46098 0.0
C917 C 0.66619 0.12144 0.46296 0.0
C918 C 0.64969 0.14555 0.46643 0.0
C919 C 0.647 0.10915 0.47366 0.0
C920 C 0.65408 0.07988 0.47651 0.0
C921 C 0.66367 0.08624 0.47142 0.0
C922 C 0.63659 0.0995 0.47521 0.0
C923 C 0.63261 0.07474 0.4629 0.0
C924 C 0.63042 0.11952 0.48657 0.0
C925 C 0.63435 0.14654 0.49963 0.0
C926 C 0.64166 0.13343 0.51063 0.0
C927 C 0.64541 0.15914 0.52279 0.0
C928 C 0.64188 0.19802 0.52412 0.0
C929 C 0.63458 0.21125 0.51332 0.0
C930 C 0.63081 0.18565 0.50113 0.0
C931 C 0.59127 0.0536 0.46109 0.0
C932 C 0.58629 0.08957 0.45884 0.0
C933 C 0.60077 0.05369 0.46719 0.0
C934 C 0.60557 0.08992 0.47023 0.0
C935 C 0.6003 0.12568 0.46915 0.0
C936 C 0.59068 0.12545 0.46363 0.0
C937 C 0.61628 0.09107 0.47235 0.0
C938 C 0.62032 0.11455 0.48516 0.0
C939 C 0.62255 0.07123 0.46097 0.0
C940 C 0.61891 0.05 0.44592 0.0
C941 C 0.61338 0.07027 0.43381 0.0
C942 C 0.60992 0.05008 0.41971 0.0
C943 C 0.61203 0.00973 0.41749 0.0
C944 C 0.61764 0.98952 0.42935 0.0
C945 C 0.62111 0.00956 0.44349 0.0
H946 H 0.60934 0.99414 0.40657 0.0
H947 H 0.64479 0.21789 0.53355 0.0
H948 H 0.33913 0.82274 0.19233 0.0
H949 H 0.35546 0.81905 0.2038 0.0
H950 H 0.34725 0.89938 0.24362 0.0
H951 H 0.33065 0.90267 0.23209 0.0
H952 H 0.36291 0.92573 0.22527 0.0
H953 H 0.35536 0.80888 0.25484 0.0
H954 H 0.34797 0.74327 0.2602 0.0
H955 H 0.365 0.692 0.22059 0.0
H956 H 0.37238 0.75736 0.21479 0.0
H957 H 0.41554 0.90784 0.2254 0.0
H958 H 0.39908 0.90656 0.23733 0.0
H959 H 0.38979 0.82891 0.19738 0.0
H960 H 0.40604 0.83019 0.18539 0.0
H961 H 0.38337 0.80459 0.22937 0.0
H962 H 0.38546 0.92508 0.19448 0.0
H963 H 0.39233 0.99076 0.18733 0.0
H964 H 0.38516 0.03418 0.23644 0.0
H965 H 0.37835 0.96851 0.24394 0.0
C966 C 0.34073 0.83863 0.20383 0.0
C967 C 0.33371 0.86298 0.21136 0.0
C968 C 0.35004 0.83632 0.21046 0.0
C969 C 0.35255 0.85865 0.22467 0.0
C970 C 0.34541 0.88162 0.23275 0.0
C971 C 0.33596 0.88338 0.22622 0.0
C972 C 0.36296 0.86216 0.22902 0.0
C973 C 0.36739 0.89944 0.22686 0.0
C974 C 0.3688 0.82783 0.23096 0.0
C975 C 0.36445 0.78816 0.23441 0.0
C976 C 0.3575 0.78367 0.24721 0.0
C977 C 0.35331 0.74649 0.25033 0.0
C978 C 0.35602 0.71348 0.24075 0.0
C979 C 0.36293 0.71758 0.22803 0.0
C980 C 0.36714 0.75469 0.22485 0.0
C981 C 0.40998 0.89048 0.2192 0.0
C982 C 0.41207 0.86929 0.2044 0.0
C983 C 0.40061 0.88971 0.22605 0.0
C984 C 0.39327 0.86744 0.21827 0.0
C985 C 0.39539 0.84597 0.20365 0.0
C986 C 0.40467 0.84705 0.19673 0.0
C987 C 0.38317 0.8676 0.22455 0.0
C988 C 0.37887 0.83105 0.22869 0.0
C989 C 0.37744 0.9025 0.22435 0.0
C990 C 0.38154 0.94182 0.21985 0.0
C991 C 0.38544 0.94854 0.2038 0.0
C992 C 0.3893 0.98577 0.19967 0.0
C993 C 0.38922 0.01658 0.21145 0.0
C994 C 0.38525 0.01025 0.22736 0.0
C995 C 0.38139 0.97305 0.23155 0.0
H996 H 0.3922 0.04538 0.20823 0.0
H997 H 0.35276 0.68473 0.24318 0.0
H998 H 0.33603 0.78352 0.54754 0.0
H999 H 0.353 0.78291 0.53844 0.0
H1000 H 0.35205 0.91057 0.53205 0.0
H1001 H 0.33485 0.91058 0.53992 0.0
H1002 H 0.36434 0.88276 0.51094 0.0
H1003 H 0.35917 0.86401 0.56997 0.0
H1004 H 0.35255 0.83186 0.59533 0.0
H1005 H 0.36691 0.72267 0.58224 0.0
H1006 H 0.37351 0.75407 0.55667 0.0
H1007 H 0.40932 0.93879 0.54996 0.0
H1008 H 0.3926 0.9261 0.54111 0.0
H1009 H 0.40047 0.80652 0.52685 0.0
H1010 H 0.41734 0.81946 0.53519 0.0
H1011 H 0.38535 0.82088 0.5542 0.0
H1012 H 0.39332 0.85251 0.49722 0.0
H1013 H 0.40039 0.89363 0.47471 0.0
H1014 H 0.38126 0.98986 0.48762 0.0
H1015 H 0.37417 0.94953 0.51038 0.0
C1016 C 0.33941 0.81119 0.54371 0.0
C1017 C 0.33426 0.84714 0.54453 0.0
C1018 C 0.34909 0.81091 0.53861 0.0
C1019 C 0.3539 0.84686 0.53509 0.0
C1020 C 0.34853 0.88247 0.53478 0.0
C1021 C 0.33873 0.88253 0.53932 0.0
C1022 C 0.36464 0.84804 0.53367 0.0
C1023 C 0.36893 0.86922 0.52039 0.0
C1024 C 0.37067 0.83016 0.54595 0.0
C1025 C 0.36672 0.81121 0.56131 0.0
C1026 C 0.36085 0.83306 0.57245 0.0
C1027 C 0.35712 0.81499 0.58686 0.0
C1028 C 0.35928 0.77521 0.59036 0.0
C1029 C 0.36521 0.75345 0.57948 0.0
C1030 C 0.36896 0.77135 0.56503 0.0
C1031 C 0.40754 0.91016 0.54452 0.0
C1032 C 0.41456 0.87999 0.54333 0.0
C1033 C 0.39802 0.90305 0.53939 0.0
C1034 C 0.39537 0.86549 0.53329 0.0
C1035 C 0.40245 0.83581 0.53138 0.0
C1036 C 0.41205 0.84323 0.53614 0.0
C1037 C 0.38498 0.8558 0.53161 0.0
C1038 C 0.38076 0.83337 0.54447 0.0
C1039 C 0.37905 0.87375 0.51933 0.0
C1040 C 0.38326 0.89804 0.50559 0.0
C1041 C 0.39067 0.88255 0.49536 0.0
C1042 C 0.39467 0.9057 0.48253 0.0
C1043 C 0.39129 0.94436 0.47976 0.0
C1044 C 0.38388 0.95991 0.48978 0.0
C1045 C 0.37985 0.93688 0.50263 0.0
H1046 H 0.39439 0.96224 0.46982 0.0
H1047 H 0.35638 0.76127 0.60153 0.0
H1048 H 0.65428 0.54373 0.29412 0.0
H1049 H 0.63792 0.55948 0.2842 0.0
H1050 H 0.64708 0.67909 0.27259 0.0
H1051 H 0.66361 0.66291 0.28191 0.0
H1052 H 0.63234 0.66471 0.3 0.0
H1053 H 0.63858 0.63889 0.24221 0.0
H1054 H 0.64462 0.60032 0.21808 0.0
H1055 H 0.62478 0.5057 0.22973 0.0
H1056 H 0.61871 0.54342 0.2541 0.0
H1057 H 0.58271 0.7052 0.29913 0.0
H1058 H 0.5995 0.70657 0.28906 0.0
H1059 H 0.598 0.58041 0.27881 0.0
H1060 H 0.58096 0.57995 0.28756 0.0
H1061 H 0.6096 0.61036 0.2576 0.0
H1062 H 0.60667 0.62244 0.31766 0.0
H1063 H 0.60112 0.65249 0.34422 0.0
H1064 H 0.61532 0.76215 0.33135 0.0
H1065 H 0.62086 0.73283 0.30462 0.0
C1066 C 0.65289 0.57281 0.28876 0.0
C1067 C 0.66014 0.60217 0.28877 0.0
C1068 C 0.64358 0.58174 0.28306 0.0
C1069 C 0.64134 0.62039 0.27767 0.0
C1070 C 0.64874 0.64898 0.27654 0.0
C1071 C 0.65815 0.63971 0.28183 0.0
C1072 C 0.63104 0.63241 0.27682 0.0
C1073 C 0.62737 0.65393 0.29046 0.0
C1074 C 0.62462 0.61677 0.26474 0.0
C1075 C 0.62823 0.59394 0.25007 0.0
C1076 C 0.63556 0.60971 0.23973 0.0
C1077 C 0.63898 0.58802 0.22597 0.0
C1078 C 0.6351 0.55056 0.22238 0.0
C1079 C 0.62778 0.53473 0.23252 0.0
C1080 C 0.62433 0.55629 0.24629 0.0
C1081 C 0.58595 0.67804 0.29438 0.0
C1082 C 0.58066 0.64237 0.29425 0.0
C1083 C 0.59554 0.67874 0.28871 0.0
C1084 C 0.60015 0.64333 0.28367 0.0
C1085 C 0.59465 0.60812 0.28268 0.0
C1086 C 0.58494 0.60776 0.28776 0.0
C1087 C 0.61083 0.64199 0.28104 0.0
C1088 C 0.61457 0.62222 0.26688 0.0
C1089 C 0.61737 0.658 0.29299 0.0
C1090 C 0.61407 0.67564 0.30906 0.0
C1091 C 0.60855 0.65304 0.32046 0.0
C1092 C 0.60542 0.66992 0.33554 0.0
C1093 C 0.60783 0.70925 0.33944 0.0
C1094 C 0.61343 0.73173 0.32829 0.0
C1095 C 0.61657 0.715 0.31318 0.0
H1096 H 0.6054 0.72227 0.35112 0.0
H1097 H 0.63775 0.53381 0.21173 0.0
H1098 H 0.66603 0.62153 0.96434 0.0
H1099 H 0.64838 0.6206 0.96831 0.0
H1100 H 0.64437 0.63504 0.91499 0.0
H1101 H 0.66187 0.63718 0.91102 0.0
H1102 H 0.63284 0.68335 0.93099 0.0
H1103 H 0.64148 0.54374 0.93591 0.0
H1104 H 0.65 0.48615 0.94822 0.0
H1105 H 0.63707 0.51097 0.9961 0.0
H1106 H 0.62856 0.56903 0.9841 0.0
H1107 H 0.58771 0.60525 0.9091 0.0
H1108 H 0.60499 0.61427 0.91439 0.0
H1109 H 0.59939 0.62412 0.96742 0.0
H1110 H 0.58194 0.61542 0.96225 0.0
H1111 H 0.61531 0.57075 0.95754 0.0
H1112 H 0.60451 0.70488 0.95002 0.0
H1113 H 0.59548 0.75873 0.93596 0.0
H1114 H 0.61229 0.74111 0.89121 0.0
H1115 H 0.62133 0.68672 0.90492 0.0
C1116 C 0.66137 0.62432 0.95348 0.0
C1117 C 0.66534 0.62952 0.93737 0.0
C1118 C 0.65129 0.62373 0.95576 0.0
C1119 C 0.64505 0.62764 0.94193 0.0
C1120 C 0.64904 0.6323 0.92586 0.0
C1121 C 0.65906 0.63338 0.92361 0.0
C1122 C 0.63435 0.62732 0.94393 0.0
C1123 C 0.62902 0.65866 0.93678 0.0
C1124 C 0.62935 0.59577 0.95196 0.0
C1125 C 0.63449 0.561 0.95917 0.0
C1126 C 0.64053 0.53711 0.9491 0.0
C1127 C 0.64534 0.50435 0.95601 0.0
C1128 C 0.6441 0.49499 0.97295 0.0
C1129 C 0.63804 0.51832 0.983 0.0
C1130 C 0.63322 0.55114 0.97615 0.0
C1131 C 0.59012 0.6093 0.92191 0.0
C1132 C 0.58345 0.60971 0.93526 0.0
C1133 C 0.59999 0.61457 0.92489 0.0
C1134 C 0.60341 0.62011 0.94126 0.0
C1135 C 0.59684 0.61997 0.9547 0.0
C1136 C 0.5869 0.61517 0.9517 0.0
C1137 C 0.6139 0.62592 0.94404 0.0
C1138 C 0.61916 0.5958 0.95212 0.0
C1139 C 0.61886 0.65832 0.93669 0.0
C1140 C 0.61356 0.69156 0.92848 0.0
C1141 C 0.60624 0.71232 0.93715 0.0
C1142 C 0.60113 0.74297 0.92925 0.0
C1143 C 0.60329 0.75329 0.9127 0.0
C1144 C 0.61061 0.73308 0.90403 0.0
C1145 C 0.61575 0.70238 0.91188 0.0
H1146 H 0.59931 0.77698 0.90659 0.0
H1147 H 0.64783 0.46961 0.97828 0.0
H1148 H 0.33375 0.39764 0.66057 0.0
H1149 H 0.35124 0.3928 0.66415 0.0
H1150 H 0.34729 0.35789 0.71573 0.0
H1151 H 0.32962 0.36286 0.71232 0.0
H1152 H 0.36188 0.41577 0.71109 0.0
H1153 H 0.35338 0.28831 0.68925 0.0
H1154 H 0.34525 0.24129 0.67013 0.0
H1155 H 0.36093 0.29029 0.62841 0.0
H1156 H 0.36905 0.33803 0.64723 0.0
H1157 H 0.41333 0.37079 0.71136 0.0
H1158 H 0.39569 0.36838 0.71544 0.0
H1159 H 0.39147 0.3909 0.66269 0.0
H1160 H 0.40896 0.3924 0.65847 0.0
H1161 H 0.38086 0.3298 0.67251 0.0
H1162 H 0.38753 0.46275 0.69346 0.0
H1163 H 0.39541 0.51158 0.71211 0.0
H1164 H 0.38315 0.45321 0.75509 0.0
H1165 H 0.3753 0.40371 0.73668 0.0
C1166 C 0.33655 0.3889 0.67271 0.0
C1167 C 0.33027 0.38045 0.68615 0.0
C1168 C 0.34657 0.38604 0.67471 0.0
C1169 C 0.35053 0.37453 0.69014 0.0
C1170 C 0.34434 0.36667 0.70371 0.0
C1171 C 0.33426 0.36938 0.70171 0.0
C1172 C 0.36118 0.37093 0.69182 0.0
C1173 C 0.36606 0.39639 0.70292 0.0
C1174 C 0.36658 0.34591 0.68103 0.0
C1175 C 0.36179 0.31692 0.66966 0.0
C1176 C 0.35505 0.28924 0.67598 0.0
C1177 C 0.35045 0.26243 0.66519 0.0
C1178 C 0.35256 0.26284 0.64806 0.0
C1179 C 0.3593 0.29 0.64168 0.0
C1180 C 0.36391 0.3169 0.65241 0.0
C1181 C 0.40862 0.37569 0.70069 0.0
C1182 C 0.41253 0.38157 0.68458 0.0
C1183 C 0.39856 0.37432 0.70304 0.0
C1184 C 0.39227 0.37942 0.68936 0.0
C1185 C 0.39618 0.38655 0.6734 0.0
C1186 C 0.40619 0.38752 0.67102 0.0
C1187 C 0.38161 0.37588 0.69127 0.0
C1188 C 0.37672 0.34877 0.68089 0.0
C1189 C 0.37623 0.39949 0.70268 0.0
C1190 C 0.38093 0.42927 0.71371 0.0
C1191 C 0.38658 0.46014 0.70689 0.0
C1192 C 0.39103 0.48797 0.71742 0.0
C1193 C 0.38981 0.48542 0.73477 0.0
C1194 C 0.38411 0.4551 0.74164 0.0
C1195 C 0.37965 0.42717 0.73117 0.0
H1196 H 0.39325 0.507 0.7429 0.0
H1197 H 0.34898 0.24207 0.63973 0.0
H1198 H 0.3334 0.42182 0.03703 0.0
H1199 H 0.35047 0.42042 0.02872 0.0
H1200 H 0.35075 0.29243 0.03437 0.0
H1201 H 0.33388 0.29455 0.04393 0.0
H1202 H 0.36435 0.31796 0.0509 0.0
H1203 H 0.35536 0.34399 0.9951 0.0
H1204 H 0.34685 0.37522 0.97133 0.0
H1205 H 0.36022 0.48743 0.98277 0.0
H1206 H 0.36871 0.45707 0.00677 0.0
H1207 H 0.41544 0.33148 0.03498 0.0
H1208 H 0.39877 0.32018 0.02509 0.0
H1209 H 0.39009 0.43364 0.04547 0.0
H1210 H 0.40659 0.44447 0.05589 0.0
H1211 H 0.38169 0.4039 0.0101 0.0
H1212 H 0.38613 0.37362 0.071 0.0
H1213 H 0.39502 0.33875 0.09349 0.0
H1214 H 0.39029 0.22695 0.06866 0.0
H1215 H 0.38149 0.26137 0.04591 0.0
C1216 C 0.33707 0.39339 0.03599 0.0
C1217 C 0.33243 0.35831 0.04108 0.0
C1218 C 0.34681 0.39246 0.03112 0.0
C1219 C 0.35196 0.35623 0.03079 0.0
C1220 C 0.347 0.32078 0.0346 0.0
C1221 C 0.33736 0.32191 0.03997 0.0
C1222 C 0.36273 0.35617 0.02924 0.0
C1223 C 0.36808 0.33586 0.04158 0.0
C1224 C 0.36773 0.37965 0.01724 0.0
C1225 C 0.36264 0.39823 0.00282 0.0
C1226 C 0.35644 0.3754 0.99263 0.0
C1227 C 0.35162 0.39294 0.9791 0.0
C1228 C 0.35299 0.43329 0.97555 0.0
C1229 C 0.35918 0.45617 0.98552 0.0
C1230 C 0.36401 0.43878 0.99908 0.0
C1231 C 0.41001 0.35434 0.037 0.0
C1232 C 0.41223 0.38864 0.04633 0.0
C1233 C 0.40054 0.34793 0.03129 0.0
C1234 C 0.39329 0.37624 0.03449 0.0
C1235 C 0.39566 0.41173 0.04276 0.0
C1236 C 0.40503 0.41768 0.04883 0.0
C1237 C 0.38298 0.36643 0.03182 0.0
C1238 C 0.37782 0.38505 0.01889 0.0
C1239 C 0.37811 0.34068 0.04296 0.0
C1240 C 0.38327 0.32004 0.05671 0.0
C1241 C 0.38706 0.34164 0.07029 0.0
C1242 C 0.39207 0.32197 0.08309 0.0
C1243 C 0.39325 0.28067 0.08248 0.0
C1244 C 0.38939 0.25894 0.0691 0.0
C1245 C 0.3844 0.27851 0.05626 0.0
H1246 H 0.39712 0.26548 0.09239 0.0
H1247 H 0.34925 0.44681 0.96507 0.0
H1248 H 0.0119 0.10318 0.27628 0.0
H1249 H -0.00076 0.1445 0.26393 0.0
H1250 H 0.02101 0.21355 0.2381 0.0
H1251 H 0.03374 0.17225 0.25039 0.0
H1252 H 0.01048 0.25722 0.26089 0.0
H1253 H 0.00401 0.16778 0.21591 0.0
H1254 H 0.00049 0.10357 0.20225 0.0
H1255 H 0.97388 0.09398 0.23003 0.0
H1256 H 0.9773 0.15788 0.24406 0.0
H1257 H 0.97755 0.3867 0.21862 0.0
H1258 H 0.99025 0.34451 0.23025 0.0
H1259 H 0.96859 0.27305 0.25516 0.0
H1260 H 0.9558 0.31506 0.24349 0.0
H1261 H 0.97915 0.23064 0.23253 0.0
H1262 H 0.9857 0.31973 0.27772 0.0
H1263 H 0.98924 0.38384 0.29146 0.0
H1264 H 0.01573 0.39398 0.26337 0.0
H1265 H 0.01229 0.33018 0.24926 0.0
C1266 C 0.01397 0.12599 0.26736 0.0
C1267 C 0.0238 0.13508 0.26457 0.0
C1268 C 0.00672 0.14963 0.26032 0.0
C1269 C 0.00923 0.18249 0.25038 0.0
C1270 C 0.01897 0.1885 0.24589 0.0
C1271 C 0.02622 0.16464 0.25283 0.0
C1272 C 0.00197 0.21404 0.24733 0.0
C1273 C 0.0037 0.25171 0.25438 0.0
C1274 C 0.993 0.20617 0.23946 0.0
C1275 C 0.99096 0.16749 0.23117 0.0
C1276 C 0.99745 0.1518 0.21925 0.0
C1277 C 0.99547 0.11549 0.2114 0.0
C1278 C 0.98698 0.09466 0.2153 0.0
C1279 C 0.98046 0.11013 0.22704 0.0
C1280 C 0.98241 0.14642 0.23493 0.0
C1281 C 0.9755 0.36306 0.22716 0.0
C1282 C 0.96568 0.35361 0.22985 0.0
C1283 C 0.98278 0.33892 0.23379 0.0
C1284 C 0.98033 0.30527 0.2433 0.0
C1285 C 0.97059 0.2987 0.24769 0.0
C1286 C 0.9633 0.32296 0.24111 0.0
C1287 C 0.98765 0.27382 0.24612 0.0
C1288 C 0.98593 0.23617 0.23903 0.0
C1289 C 0.99663 0.2817 0.25396 0.0
C1290 C -0.00132 0.32032 0.2623 0.0
C1291 C 0.99223 0.33581 0.27433 0.0
C1292 C 0.99423 0.37206 0.28222 0.0
C1293 C 0.00269 0.39302 0.27826 0.0
C1294 C 0.00917 0.37773 0.26641 0.0
C1295 C 0.00721 0.34151 0.25848 0.0
H1296 H 0.00423 0.42106 0.28439 0.0
H1297 H 0.98545 0.06657 0.2092 0.0
H1298 H 0.22569 0.12144 0.28889 0.0
H1299 H 0.2387 0.08714 0.27414 0.0
H1300 H 0.21789 0.03727 0.23963 0.0
H1301 H 0.20476 0.07089 0.25462 0.0
H1302 H 0.22773 0.98035 0.25453 0.0
H1303 H 0.23637 0.09991 0.22616 0.0
H1304 H 0.24038 0.17101 0.22287 0.0
H1305 H 0.26524 0.15648 0.25473 0.0
H1306 H 0.26131 0.08538 0.2584 0.0
H1307 H 0.265 0.88032 0.20754 0.0
H1308 H 0.25123 0.91888 0.21798 0.0
H1309 H 0.26931 0.96883 0.25677 0.0
H1310 H 0.28314 0.93048 0.24638 0.0
H1311 H 0.26051 0.02597 0.23743 0.0
H1312 H 0.25113 0.90723 0.26696 0.0
H1313 H 0.24708 0.83608 0.26998 0.0
H1314 H 0.22352 0.84962 0.23525 0.0
H1315 H 0.2275 0.92079 0.23186 0.0
C1316 C 0.2239 0.10434 0.2778 0.0
C1317 C 0.21418 0.09833 0.27309 0.0
C1318 C 0.23137 0.08475 0.26933 0.0
C1319 C 0.22926 0.05931 0.25586 0.0
C1320 C 0.21966 0.0565 0.25009 0.0
C1321 C 0.21217 0.07598 0.25861 0.0
C1322 C 0.23679 0.03144 0.24959 0.0
C1323 C 0.23483 0.99041 0.25042 0.0
C1324 C 0.24614 0.04447 0.24474 0.0
C1325 C 0.2485 0.08733 0.24266 0.0
C1326 C 0.24265 0.11193 0.23259 0.0
C1327 C 0.24492 0.15223 0.23062 0.0
C1328 C 0.25305 0.16827 0.23861 0.0
C1329 C 0.25894 0.14402 0.24855 0.0
C1330 C 0.2567 0.1037 0.25056 0.0
C1331 C 0.26598 0.8986 0.2186 0.0
C1332 C 0.27518 0.90263 0.22605 0.0
C1333 C 0.2581 0.92068 0.22453 0.0
C1334 C 0.25929 0.94698 0.23803 0.0
C1335 C 0.26828 0.94889 0.24624 0.0
C1336 C 0.27615 0.92671 0.24037 0.0
C1337 C 0.25145 0.97512 0.24258 0.0
C1338 C 0.25337 0.01609 0.2414 0.0
C1339 C 0.24205 0.96208 0.24706 0.0
C1340 C 0.23968 0.91925 0.24902 0.0
C1341 C 0.24514 0.89496 0.25985 0.0
C1342 C 0.24284 0.85464 0.26165 0.0
C1343 C 0.23507 0.83831 0.25277 0.0
C1344 C 0.22955 0.86229 0.2421 0.0
C1345 C 0.23181 0.90263 0.24024 0.0
H1346 H 0.2333 0.80709 0.25419 0.0
H1347 H 0.25479 0.19947 0.23707 0.0
H1348 H 0.03697 0.05436 0.99047 0.0
H1349 H 0.02348 0.01401 0.00077 0.0
H1350 H 0.00378 0.07726 0.96833 0.0
H1351 H 0.01726 0.1176 0.95777 0.0
H1352 H 0.99603 0.05596 0.00107 0.0
H1353 H 0.01225 -0.00154 0.95326 0.0
H1354 H 0.02653 0.97544 0.93727 0.0
H1355 H 0.03314 0.89092 0.97599 0.0
H1356 H 0.01898 0.91392 0.99235 0.0
H1357 H 0.95864 0.91745 0.99825 0.0
H1358 H 0.97207 0.95408 0.98558 0.0
H1359 H 0.99225 0.89441 0.01833 0.0
H1360 H 0.97884 0.85802 0.03132 0.0
H1361 H -0.00036 0.9139 0.98477 0.0
H1362 H 0.98396 0.97187 0.03288 0.0
H1363 H 0.97005 -0.00475 0.04961 0.0
H1364 H 0.96277 0.07964 0.0112 0.0
H1365 H 0.97653 0.05598 0.99401 0.0
C1366 C 0.02973 0.06059 0.98589 0.0
C1367 C 0.02819 0.08878 0.97314 0.0
C1368 C 0.02205 0.03734 0.99172 0.0
C1369 C 0.01272 0.04223 0.98502 0.0
C1370 C 0.01096 0.07297 0.97354 0.0
C1371 C 0.01867 0.09599 0.96755 0.0
C1372 C 0.00507 0.01273 0.98869 0.0
C1373 C 0.99674 0.02503 0.99732 0.0
C1374 C 0.00614 0.9723 0.98398 0.0
C1375 C 0.01461 0.9582 0.97411 0.0
C1376 C 0.0168 0.97522 0.95844 0.0
C1377 C 0.02486 0.96214 0.9493 0.0
C1378 C 0.03075 0.9318 0.95563 0.0
C1379 C 0.02857 0.91445 0.97111 0.0
C1380 C 0.02053 0.92748 0.98032 0.0
C1381 C 0.96597 0.91083 0.00231 0.0
C1382 C 0.96767 0.88546 0.01602 0.0
C1383 C 0.97362 0.93199 0.99511 0.0
C1384 C 0.98307 0.92752 0.00134 0.0
C1385 C 0.98497 0.89839 0.01348 0.0
C1386 C 0.9773 0.87758 0.02086 0.0
C1387 C 0.99059 0.95715 0.99712 0.0
C1388 C -0.0011 0.94487 0.98841 0.0
C1389 C 0.98953 -0.00238 0.00181 0.0
C1390 C 0.98119 0.01172 0.01204 0.0
C1391 C 0.97932 -0.00498 0.02788 0.0
C1392 C 0.97147 0.0084 0.03748 0.0
C1393 C 0.9655 0.03886 0.03147 0.0
C1394 C 0.96738 0.05597 0.01583 0.0
C1395 C 0.9752 0.04254 0.00614 0.0
H1396 H 0.95946 0.04931 0.03895 0.0
H1397 H 0.03697 0.92165 0.94853 0.0
H1398 H 0.20994 0.15545 0.99843 0.0
H1399 H 0.22277 0.19657 0.01041 0.0
H1400 H 0.24363 0.14278 0.97704 0.0
H1401 H 0.23084 0.10163 0.96487 0.0
H1402 H 0.25152 0.1672 0.0086 0.0
H1403 H 0.23289 0.21749 0.96241 0.0
H1404 H 0.21787 0.23364 0.94722 0.0
H1405 H 0.20942 0.31388 0.98653 0.0
H1406 H 0.22437 0.29753 0.00216 0.0
H1407 H 0.28512 0.31991 0.00066 0.0
H1408 H 0.27227 0.27663 0.99017 0.0
H1409 H 0.25182 0.33185 0.0239 0.0
H1410 H 0.26463 0.37532 0.03453 0.0
H1411 H 0.24367 0.30657 0.99262 0.0
H1412 H 0.26355 0.25655 0.0381 0.0
H1413 H 0.27912 0.23981 0.0516 0.0
H1414 H 0.28575 0.15858 0.01162 0.0
H1415 H 0.27029 0.1754 0.99772 0.0
C1416 C 0.21732 0.15104 0.99412 0.0
C1417 C 0.21935 0.1261 0.9804 0.0
C1418 C 0.22463 0.17474 0.00094 0.0
C1419 C 0.23404 0.17339 0.99424 0.0
C1420 C 0.23637 0.14444 0.98223 0.0
C1421 C 0.22905 0.12092 0.97531 0.0
C1422 C 0.24091 0.20616 0.99755 0.0
C1423 C 0.24985 0.19761 0.00505 0.0
C1424 C 0.23867 0.2458 0.99287 0.0
C1425 C 0.22968 0.25588 0.98355 0.0
C1426 C 0.22778 0.23826 0.9679 0.0
C1427 C 0.21928 0.24751 0.9592 0.0
C1428 C 0.21266 0.2747 0.96591 0.0
C1429 C 0.21454 0.29274 0.98136 0.0
C1430 C 0.22303 0.28349 0.99015 0.0
C1431 C 0.27782 0.32397 0.0054 0.0
C1432 C 0.27593 0.35035 0.0187 0.0
C1433 C 0.2705 0.29904 0.99945 0.0
C1434 C 0.26121 0.30041 0.00665 0.0
C1435 C 0.259 0.33015 0.01836 0.0
C1436 C 0.26632 0.355 0.02439 0.0
C1437 C 0.25428 0.26767 0.00374 0.0
C1438 C 0.24533 0.27622 0.99629 0.0
C1439 C 0.25656 0.22798 0.00833 0.0
C1440 C 0.2658 0.21752 0.01679 0.0
C1441 C 0.26836 0.23536 0.03212 0.0
C1442 C 0.27717 0.22583 0.03985 0.0
C1443 C 0.28343 0.1982 0.03245 0.0
C1444 C 0.2809 0.18001 0.01732 0.0
C1445 C 0.27211 0.18952 0.00952 0.0
H1446 H 0.29024 0.19077 0.03844 0.0
H1447 H 0.20608 0.28187 0.95911 0.0
H1448 H 0.96056 0.8262 0.74637 0.0
H1449 H 0.97455 0.78871 0.75597 0.0
H1450 H 0.99256 0.84764 0.71927 0.0
H1451 H 0.97844 0.8845 0.70919 0.0
H1452 H 0.99342 0.77142 0.71463 0.0
H1453 H 0.99716 0.85373 0.76243 0.0
H1454 H 0.99246 0.89189 0.78756 0.0
H1455 H 0.9827 0.78451 0.81142 0.0
H1456 H 0.98721 0.74573 0.78635 0.0
H1457 H 0.0352 0.66482 0.74721 0.0
H1458 H 0.0231 0.70888 0.73478 0.0
H1459 H 0.00064 0.65156 0.76371 0.0
H1460 H 0.01267 0.60741 0.77622 0.0
H1461 H 0.00357 0.7316 0.77179 0.0
H1462 H -0.00067 0.65082 0.72231 0.0
H1463 H 0.00472 0.61439 0.69713 0.0
H1464 H 0.01651 0.72224 0.67662 0.0
H1465 H 0.0113 0.75925 0.70179 0.0
C1466 C 0.96756 0.83248 0.74077 0.0
C1467 C 0.96834 0.85766 0.72676 0.0
C1468 C 0.9756 0.81094 0.7463 0.0
C1469 C 0.9846 0.81491 0.73819 0.0
C1470 C 0.98565 0.84373 0.72557 0.0
C1471 C 0.97758 0.86505 0.71992 0.0
C1472 C 0.99231 0.7848 0.74104 0.0
C1473 C 0.9958 0.76334 0.72713 0.0
C1474 C 0.99527 0.77359 0.75734 0.0
C1475 C 0.99247 0.79684 0.77243 0.0
C1476 C 0.99393 0.83827 0.77298 0.0
C1477 C 0.99132 0.86001 0.78723 0.0
C1478 C 0.98727 0.84065 0.80107 0.0
C1479 C 0.98584 0.79948 0.80069 0.0
C1480 C 0.98844 0.77759 0.78647 0.0
C1481 C 0.02763 0.66023 0.75033 0.0
C1482 C 0.02492 0.63341 0.76306 0.0
C1483 C 0.02072 0.68563 0.74326 0.0
C1484 C 0.01104 0.68404 0.74868 0.0
C1485 C 0.00812 0.65355 0.75958 0.0
C1486 C 0.01501 0.62814 0.76663 0.0
C1487 C 0.00442 0.71785 0.74545 0.0
C1488 C 0.00121 0.74004 0.75931 0.0
C1489 C 0.00184 0.73001 0.72912 0.0
C1490 C 0.00501 0.70772 0.71403 0.0
C1491 C 0.00316 0.6667 0.71251 0.0
C1492 C 0.00616 0.64596 0.69822 0.0
C1493 C 0.01098 0.66596 0.68531 0.0
C1494 C 0.01279 0.70677 0.68664 0.0
C1495 C 0.0098 0.72765 0.70091 0.0
H1496 H 0.0133 0.64986 0.67425 0.0
H1497 H 0.98525 0.85753 0.81209 0.0
H1498 H 0.70376 0.05614 0.75703 0.0
H1499 H 0.7167 0.01508 0.74524 0.0
H1500 H 0.73811 0.08837 0.76979 0.0
H1501 H 0.72523 0.12966 0.7816 0.0
H1502 H 0.74477 0.05983 0.74013 0.0
H1503 H 0.73001 0.01051 0.78986 0.0
H1504 H 0.71663 0.98974 0.80836 0.0
H1505 H 0.70906 0.8965 0.77396 0.0
H1506 H 0.72235 0.91718 0.75506 0.0
H1507 H 0.78299 0.92761 0.74913 0.0
H1508 H 0.76888 0.96272 0.7603 0.0
H1509 H 0.75021 0.89783 0.72668 0.0
H1510 H 0.76429 0.8627 0.71526 0.0
H1511 H 0.74195 0.92056 0.7606 0.0
H1512 H 0.75847 0.97528 0.71114 0.0
H1513 H 0.77307 -0.00166 0.69608 0.0
H1514 H 0.77858 0.08417 0.73481 0.0
H1515 H 0.76408 0.0612 0.75022 0.0
C1516 C 0.71123 0.06455 0.75938 0.0
C1517 C 0.71348 0.09564 0.77052 0.0
C1518 C 0.71861 0.04077 0.75276 0.0
C1519 C 0.72832 0.04801 0.75711 0.0
C1520 C 0.73064 0.08203 0.76647 0.0
C1521 C 0.72327 0.1057 0.77316 0.0
C1522 C 0.73589 0.01793 0.75362 0.0
C1523 C 0.74416 0.02945 0.74464 0.0
C1524 C 0.73511 0.97835 0.75967 0.0
C1525 C 0.72708 0.96579 0.77092 0.0
C1526 C 0.72543 0.98586 0.78613 0.0
C1527 C 0.71786 0.97407 0.79671 0.0
C1528 C 0.71194 0.94199 0.7923 0.0
C1529 C 0.71361 0.9215 0.77731 0.0
C1530 C 0.72117 0.93323 0.76666 0.0
C1531 C 0.77585 0.91952 0.74457 0.0
C1532 C 0.77477 0.89305 0.73104 0.0
C1533 C 0.7678 0.93975 0.75094 0.0
C1534 C 0.75858 0.9334 0.744 0.0
C1535 C 0.7573 0.90323 0.73208 0.0
C1536 C 0.76536 0.88318 0.72559 0.0
C1537 C 0.75075 0.96251 0.74701 0.0
C1538 C 0.74247 0.95082 0.75593 0.0
C1539 C 0.75161 0.00225 0.74129 0.0
C1540 C 0.76025 0.01627 0.7319 0.0
C1541 C 0.76284 -0.00116 0.7165 0.0
C1542 C 0.77109 0.01193 0.70789 0.0
C1543 C 0.77676 0.04263 0.71452 0.0
C1544 C 0.77418 0.06036 0.72972 0.0
C1545 C 0.76595 0.04735 0.73838 0.0
H1546 H 0.78313 0.05282 0.70788 0.0
H1547 H 0.7061 0.93287 0.80053 0.0
H1548 H 0.72959 0.608 0.97784 0.0
H1549 H 0.74122 0.65178 0.99142 0.0
H1550 H 0.71783 0.71262 0.01677 0.0
H1551 H 0.7061 0.66919 0.00295 0.0
H1552 H 0.72762 0.7626 0.99752 0.0
H1553 H 0.73634 0.6679 0.03902 0.0
H1554 H 0.74108 0.60302 0.05092 0.0
H1555 H 0.7673 0.60422 0.02175 0.0
H1556 H 0.76266 0.66886 0.0095 0.0
H1557 H 0.76439 0.88466 0.04005 0.0
H1558 H 0.75026 0.84619 0.03101 0.0
H1559 H 0.76781 0.78669 0.99392 0.0
H1560 H 0.78191 0.82537 0.00259 0.0
H1561 H 0.76012 0.73875 0.02217 0.0
H1562 H 0.75053 0.83156 0.97936 0.0
H1563 H 0.74567 0.89662 0.9678 0.0
H1564 H 0.72089 0.89906 0.00048 0.0
H1565 H 0.72569 0.83424 0.01245 0.0
C1566 C 0.72693 0.62949 0.98688 0.0
C1567 C 0.71691 0.63579 0.989 0.0
C1568 C 0.73361 0.65461 0.99466 0.0
C1569 C 0.73038 0.68597 0.00489 0.0
C1570 C 0.72046 0.6889 0.00875 0.0
C1571 C 0.71377 0.66376 0.00095 0.0
C1572 C 0.73708 0.71911 0.00894 0.0
C1573 C 0.73464 0.75754 0.00331 0.0
C1574 C 0.74633 0.71234 0.01605 0.0
C1575 C 0.74911 0.67316 0.02324 0.0
C1576 C 0.74307 0.65418 0.03502 0.0
C1577 C 0.74575 0.61747 0.04186 0.0
C1578 C 0.75448 0.59948 0.03707 0.0
C1579 C 0.76054 0.61818 0.02545 0.0
C1580 C 0.7579 0.65489 0.01857 0.0
C1581 C 0.76514 0.8648 0.02943 0.0
C1582 C 0.77432 0.85731 0.02231 0.0
C1583 C 0.75706 0.84274 0.02433 0.0
C1584 C 0.7581 0.81315 0.01207 0.0
C1585 C 0.76694 0.80925 0.00351 0.0
C1586 C 0.77498 0.83157 0.00845 0.0
C1587 C 0.75069 0.78166 0.01046 0.0
C1588 C 0.75303 0.7437 0.01661 0.0
C1589 C 0.74135 0.78894 0.00394 0.0
C1590 C 0.73856 0.8283 0.997 0.0
C1591 C 0.74413 0.84621 0.98427 0.0
C1592 C 0.74136 0.883 0.9776 0.0
C1593 C 0.73301 0.90207 0.98347 0.0
C1594 C 0.72738 0.88433 0.99599 0.0
C1595 C 0.73012 0.84756 0.00272 0.0
H1596 H 0.73087 0.93051 0.97827 0.0
H1597 H 0.75654 0.57107 0.04239 0.0
H1598 H 0.22714 0.62937 0.78228 0.0
H1599 H 0.2411 0.59016 0.77327 0.0
H1600 H 0.22242 0.51797 0.74232 0.0
H1601 H 0.2084 0.55692 0.75134 0.0
H1602 H 0.2317 0.47523 0.76701 0.0
H1603 H 0.24036 0.57151 0.72491 0.0
H1604 H 0.24427 0.63829 0.714 0.0
H1605 H 0.26855 0.64607 0.74757 0.0
H1606 H 0.2647 0.57954 0.75886 0.0
H1607 H 0.26552 0.3539 0.72452 0.0
H1608 H 0.25279 0.3936 0.73741 0.0
H1609 H 0.27436 0.46199 0.76399 0.0
H1610 H 0.2872 0.42267 0.75085 0.0
H1611 H 0.26413 0.5082 0.74389 0.0
H1612 H 0.25638 0.41175 0.78509 0.0
H1613 H 0.2526 0.34588 0.79705 0.0
H1614 H 0.22687 0.33897 0.76687 0.0
H1615 H 0.23055 0.40456 0.75453 0.0
C1616 C 0.22605 0.60627 0.77299 0.0
C1617 C 0.21664 0.59566 0.7678 0.0
C1618 C 0.23405 0.58378 0.76789 0.0
C1619 C 0.23274 0.5507 0.75741 0.0
C1620 C 0.22354 0.54315 0.7506 0.0
C1621 C 0.21554 0.56572 0.75564 0.0
C1622 C 0.24056 0.52077 0.75568 0.0
C1623 C 0.23876 0.48215 0.76169 0.0
C1624 C 0.24988 0.53058 0.74958 0.0
C1625 C 0.25218 0.57068 0.74286 0.0
C1626 C 0.24648 0.58761 0.73009 0.0
C1627 C 0.2487 0.62539 0.72381 0.0
C1628 C 0.25664 0.64646 0.73012 0.0
C1629 C 0.26239 0.62975 0.74271 0.0
C1630 C 0.2602 0.59198 0.74904 0.0
C1631 C 0.26756 0.3762 0.73368 0.0
C1632 C 0.27736 0.38583 0.73635 0.0
C1633 C 0.26024 0.39894 0.74108 0.0
C1634 C 0.26263 0.43125 0.75144 0.0
C1635 C 0.27238 0.43746 0.75586 0.0
C1636 C 0.27971 0.4147 0.74845 0.0
C1637 C 0.25524 0.46222 0.75494 0.0
C1638 C 0.25711 0.50116 0.74932 0.0
C1639 C 0.246 0.45279 0.76154 0.0
C1640 C 0.2438 0.41301 0.76876 0.0
C1641 C 0.24996 0.39604 0.78086 0.0
C1642 C 0.24783 0.35877 0.78774 0.0
C1643 C 0.23952 0.3382 0.78268 0.0
C1644 C 0.23331 0.35491 0.77076 0.0
C1645 C 0.23542 0.39217 0.76383 0.0
H1646 H 0.23788 0.30936 0.78802 0.0
H1647 H 0.25835 0.67569 0.72524 0.0
H1648 H 0.04286 0.55908 0.49317 0.0
H1649 H 0.02972 0.51971 0.50532 0.0
H1650 H 0.00864 0.59484 0.48092 0.0
H1651 H 0.02175 0.63413 0.46851 0.0
H1652 H 0.00261 0.565 0.51293 0.0
H1653 H 0.01592 0.52071 0.46038 0.0
H1654 H 0.02875 0.49957 0.44082 0.0
H1655 H 0.0356 0.40051 0.4727 0.0
H1656 H 0.02295 0.42174 0.49274 0.0
H1657 H 0.96312 0.4359 0.50423 0.0
H1658 H 0.97673 0.47631 0.49444 0.0
H1659 H 0.99676 0.39879 0.52011 0.0
H1660 H 0.98317 0.35838 0.53018 0.0
H1661 H 0.00351 0.42921 0.48826 0.0
H1662 H 0.98999 0.47362 0.54079 0.0
H1663 H 0.9769 0.49481 0.55996 0.0
H1664 H 0.97014 0.59273 0.5274 0.0
H1665 H 0.9831 0.57179 0.50792 0.0
C1666 C 0.03544 0.56832 0.49094 0.0
C1667 C 0.03332 0.59928 0.47966 0.0
C1668 C 0.02794 0.54556 0.4978 0.0
C1669 C 0.01826 0.55388 0.49364 0.0
C1670 C 0.01609 0.58783 0.48413 0.0
C1671 C 0.02359 0.6103 0.47709 0.0
C1672 C 0.01056 0.52443 0.49717 0.0
C1673 C 0.00277 0.53541 0.50747 0.0
C1674 C 0.01085 0.48571 0.4901 0.0
C1675 C 0.01858 0.47321 0.47821 0.0
C1676 C 0.02025 0.49476 0.46336 0.0
C1677 C 0.02748 0.48268 0.45215 0.0
C1678 C 0.03302 0.44874 0.45552 0.0
C1679 C 0.03133 0.42686 0.47013 0.0
C1680 C 0.02414 0.43895 0.48144 0.0
C1681 C 0.97043 0.42657 0.50732 0.0
C1682 C 0.97208 0.39428 0.51816 0.0
C1683 C 0.97819 0.4499 0.50182 0.0
C1684 C 0.98768 0.44093 0.50691 0.0
C1685 C 0.98945 0.40627 0.5162 0.0
C1686 C 0.98169 0.38318 0.52188 0.0
C1687 C 0.99559 0.46978 0.50403 0.0
C1688 C 0.0034 0.4587 0.49382 0.0
C1689 C 0.9953 0.50839 0.51115 0.0
C1690 C 0.98745 0.52088 0.5228 0.0
C1691 C 0.98565 0.49943 0.53763 0.0
C1692 C 0.97827 0.51144 0.54857 0.0
C1693 C 0.97268 0.54504 0.54488 0.0
C1694 C 0.97447 0.56668 0.53024 0.0
C1695 C 0.98183 0.55477 0.51924 0.0
H1696 H 0.967 0.5544 0.55339 0.0
H1697 H 0.03858 0.4393 0.44678 0.0
H1698 H 0.23291 0.60318 0.48222 0.0
H1699 H 0.2443 0.64709 0.4962 0.0
H1700 H 0.22053 0.70792 0.52049 0.0
H1701 H 0.20903 0.66455 0.5061 0.0
H1702 H 0.23014 0.75785 0.5019 0.0
H1703 H 0.23941 0.66465 0.54328 0.0
H1704 H 0.24435 0.60033 0.55546 0.0
H1705 H 0.27048 0.60179 0.52608 0.0
H1706 H 0.26565 0.66583 0.51351 0.0
H1707 H 0.26671 0.88718 0.53964 0.0
H1708 H 0.25277 0.84595 0.53207 0.0
H1709 H 0.2706 0.78044 0.49723 0.0
H1710 H 0.28454 0.82166 0.50454 0.0
H1711 H 0.26304 0.73583 0.52523 0.0
H1712 H 0.25241 0.82702 0.48218 0.0
H1713 H 0.24729 0.89213 0.47098 0.0
H1714 H 0.22341 0.89492 0.5056 0.0
H1715 H 0.22847 0.83003 0.51717 0.0
C1716 C 0.23011 0.62468 0.49111 0.0
C1717 C 0.22007 0.63119 0.49266 0.0
C1718 C 0.23665 0.64987 0.49917 0.0
C1719 C 0.23326 0.68136 0.50916 0.0
C1720 C 0.22329 0.68416 0.51263 0.0
C1721 C 0.21672 0.65907 0.50449 0.0
C1722 C 0.23986 0.71496 0.51312 0.0
C1723 C 0.23724 0.75316 0.50742 0.0
C1724 C 0.2492 0.70879 0.51995 0.0
C1725 C 0.25213 0.67003 0.52737 0.0
C1726 C 0.24617 0.65112 0.5393 0.0
C1727 C 0.24896 0.61472 0.5463 0.0
C1728 C 0.25771 0.59696 0.54153 0.0
C1729 C 0.2637 0.61558 0.52976 0.0
C1730 C 0.26095 0.65198 0.52272 0.0
C1731 C 0.26756 0.86522 0.5298 0.0
C1732 C 0.27678 0.857 0.52298 0.0
C1733 C 0.25959 0.84157 0.52556 0.0
C1734 C 0.26076 0.80968 0.51441 0.0
C1735 C 0.26963 0.8047 0.50602 0.0
C1736 C 0.27757 0.82853 0.51013 0.0
C1737 C 0.25337 0.77794 0.51358 0.0
C1738 C 0.25586 0.74034 0.51995 0.0
C1739 C 0.2439 0.78476 0.50756 0.0
C1740 C 0.24089 0.8239 0.50069 0.0
C1741 C 0.24613 0.84172 0.48754 0.0
C1742 C 0.24322 0.87853 0.48109 0.0
C1743 C 0.23505 0.89771 0.48761 0.0
C1744 C 0.22975 0.88006 0.50058 0.0
C1745 C 0.23263 0.84326 0.50708 0.0
H1746 H 0.2328 0.9262 0.48259 0.0
H1747 H 0.25986 0.56879 0.54698 0.0
H1748 H 0.78706 0.40744 0.2496 0.0
H1749 H 0.77426 0.44476 0.26384 0.0
H1750 H 0.75279 0.38949 0.23217 0.0
H1751 H 0.7655 0.35187 0.21793 0.0
H1752 H 0.75472 0.47296 0.22824 0.0
H1753 H 0.75109 0.37623 0.27238 0.0
H1754 H 0.75668 0.3331 0.29545 0.0
H1755 H 0.76666 0.4356 0.32258 0.0
H1756 H 0.76126 0.47934 0.29956 0.0
H1757 H 0.71084 0.55728 0.25664 0.0
H1758 H 0.7248 0.51993 0.24654 0.0
H1759 H 0.74244 0.57 0.28594 0.0
H1760 H 0.72838 0.60686 0.2964 0.0
H1761 H 0.74351 0.49216 0.28674 0.0
H1762 H 0.74713 0.58951 0.24417 0.0
H1763 H 0.74236 0.63481 0.22131 0.0
H1764 H 0.73361 0.53497 0.1913 0.0
H1765 H 0.7382 0.48905 0.21408 0.0
C1766 C 0.77958 0.40183 0.24616 0.0
C1767 C 0.77731 0.37747 0.23236 0.0
C1768 C 0.77227 0.4233 0.2543 0.0
C1769 C 0.76264 0.42042 0.24878 0.0
C1770 C 0.76023 0.39236 0.23645 0.0
C1771 C 0.7675 0.3707 0.2284 0.0
C1772 C 0.75548 0.45115 0.2536 0.0
C1773 C 0.75213 0.47683 0.24099 0.0
C1774 C 0.75256 0.45733 0.27035 0.0
C1775 C 0.75587 0.43103 0.28415 0.0
C1776 C 0.75457 0.38956 0.28318 0.0
C1777 C 0.75768 0.365 0.29627 0.0
C1778 C 0.76205 0.38159 0.31045 0.0
C1779 C 0.76329 0.42279 0.31158 0.0
C1780 C 0.7602 0.44747 0.29852 0.0
C1781 C 0.71776 0.5614 0.26285 0.0
C1782 C 0.71848 0.58465 0.27744 0.0
C1783 C 0.72576 0.53999 0.25704 0.0
C1784 C 0.73466 0.54195 0.26556 0.0
C1785 C 0.73562 0.56781 0.27927 0.0
C1786 C 0.72759 0.5891 0.28515 0.0
C1787 C 0.74254 0.51361 0.26129 0.0
C1788 C 0.7461 0.4885 0.27399 0.0
C1789 C 0.74579 0.5083 0.24463 0.0
C1790 C 0.74294 0.53583 0.23091 0.0
C1791 C 0.74411 0.57721 0.23276 0.0
C1792 C 0.74145 0.60301 0.2198 0.0
C1793 C 0.73767 0.58779 0.20487 0.0
C1794 C 0.73654 0.54672 0.20287 0.0
C1795 C 0.73918 0.52079 0.2158 0.0
H1796 H 0.73562 0.60781 0.19485 0.0
H1797 H 0.76444 0.36253 0.32057 0.0
H1798 H 0.76848 0.38613 0.53507 0.0
H1799 H 0.75534 0.34579 0.5236 0.0
H1800 H 0.77526 0.29257 0.48839 0.0
H1801 H 0.78848 0.3327 0.49981 0.0
H1802 H 0.75544 0.29893 0.4766 0.0
H1803 H 0.77405 0.25395 0.52441 0.0
H1804 H 0.78084 0.26201 0.55265 0.0
H1805 H 0.75212 0.26962 0.57335 0.0
H1806 H 0.74512 0.26351 0.54498 0.0
H1807 H 0.73434 0.11382 0.46351 0.0
H1808 H 0.74683 0.16005 0.47308 0.0
H1809 H 0.72758 0.20281 0.51177 0.0
H1810 H 0.71505 0.1565 0.50238 0.0
H1811 H 0.74655 0.20381 0.52178 0.0
H1812 H 0.72762 0.24964 0.47559 0.0
H1813 H 0.72006 0.24643 0.44767 0.0
H1814 H 0.74821 0.23917 0.4247 0.0
H1815 H 0.75596 0.24187 0.45258 0.0
C1816 C 0.77001 0.36709 0.52443 0.0
C1817 C 0.77957 0.36177 0.51864 0.0
C1818 C 0.76248 0.34398 0.51792 0.0
C1819 C 0.76443 0.31549 0.50551 0.0
C1820 C 0.77366 0.31417 0.4981 0.0
C1821 C 0.78121 0.33717 0.50465 0.0
C1822 C 0.75748 0.28277 0.50245 0.0
C1823 C 0.75355 0.27791 0.4864 0.0
C1824 C 0.75489 0.25589 0.51541 0.0
C1825 C 0.75907 0.25882 0.53253 0.0
C1826 C 0.76917 0.2578 0.53494 0.0
C1827 C 0.77307 0.26197 0.55101 0.0
C1828 C 0.76693 0.26616 0.56485 0.0
C1829 C 0.75687 0.2664 0.56262 0.0
C1830 C 0.75293 0.26277 0.54653 0.0
C1831 C 0.73288 0.13196 0.47446 0.0
C1832 C 0.72363 0.1321 0.48197 0.0
C1833 C 0.73999 0.15865 0.4798 0.0
C1834 C 0.73798 0.18569 0.49274 0.0
C1835 C 0.72921 0.18251 0.50159 0.0
C1836 C 0.72208 0.15584 0.49625 0.0
C1837 C 0.74455 0.21971 0.49588 0.0
C1838 C 0.74841 0.22482 0.51196 0.0
C1839 C 0.74696 0.24711 0.48301 0.0
C1840 C 0.74236 0.24542 0.4662 0.0
C1841 C 0.7322 0.24695 0.4646 0.0
C1842 C 0.72788 0.24527 0.44877 0.0
C1843 C 0.73364 0.24228 0.43441 0.0
C1844 C 0.74375 0.24125 0.43585 0.0
C1845 C 0.74811 0.24291 0.45166 0.0
H1846 H 0.73028 0.24105 0.42216 0.0
H1847 H 0.76998 0.26919 0.5773 0.0
H1848 H 0.47743 0.36313 0.72226 0.0
H1849 H 0.48875 0.31381 0.73325 0.0
H1850 H 0.46495 0.24893 0.7553 0.0
H1851 H 0.4535 0.29806 0.74422 0.0
H1852 H 0.48409 0.24935 0.77394 0.0
H1853 H 0.4697 0.21964 0.71964 0.0
H1854 H 0.46502 0.2369 0.69069 0.0
H1855 H 0.4948 0.26175 0.67863 0.0
H1856 H 0.49964 0.24506 0.70756 0.0
H1857 H 0.51171 0.08033 0.7823 0.0
H1858 H 0.49744 0.11399 0.77101 0.0
H1859 H 0.5158 0.18326 0.73832 0.0
H1860 H 0.53007 0.14917 0.74924 0.0
H1861 H 0.49776 0.17565 0.7253 0.0
H1862 H 0.51236 0.21381 0.77772 0.0
H1863 H 0.51836 0.20163 0.80633 0.0
H1864 H 0.4897 0.16768 0.82204 0.0
H1865 H 0.48356 0.17896 0.79335 0.0
C1866 C 0.47462 0.33925 0.72998 0.0
C1867 C 0.46456 0.33396 0.73206 0.0
C1868 C 0.4811 0.31102 0.73618 0.0
C1869 C 0.47761 0.27737 0.74465 0.0
C1870 C 0.46772 0.27463 0.74863 0.0
C1871 C 0.46121 0.30284 0.74235 0.0
C1872 C 0.48408 0.24288 0.74712 0.0
C1873 C 0.48693 0.23263 0.76338 0.0
C1874 C 0.48792 0.22184 0.73324 0.0
C1875 C 0.48502 0.23136 0.71578 0.0
C1876 C 0.47524 0.22904 0.71084 0.0
C1877 C 0.47256 0.23868 0.69443 0.0
C1878 C 0.47961 0.25049 0.68285 0.0
C1879 C 0.48935 0.25261 0.68763 0.0
C1880 C 0.49207 0.243 0.70401 0.0
C1881 C 0.51267 0.10132 0.77212 0.0
C1882 C 0.52201 0.11305 0.76701 0.0
C1883 C 0.50451 0.12071 0.76576 0.0
C1884 C 0.50563 0.15218 0.75436 0.0
C1885 C 0.5148 0.15945 0.74732 0.0
C1886 C 0.52297 0.1398 0.75356 0.0
C1887 C 0.49781 0.18193 0.75216 0.0
C1888 C 0.49475 0.19161 0.73593 0.0
C1889 C 0.49391 0.20296 0.76606 0.0
C1890 C 0.49753 0.19676 0.78337 0.0
C1891 C 0.50735 0.20351 0.78725 0.0
C1892 C 0.51078 0.19678 0.80348 0.0
C1893 C 0.50443 0.18382 0.81601 0.0
C1894 C 0.49462 0.17765 0.81232 0.0
C1895 C 0.49116 0.18417 0.79607 0.0
H1896 H 0.5071 0.17866 0.82858 0.0
H1897 H 0.47754 0.25788 0.67015 0.0
H1898 H 0.48247 0.85993 0.53754 0.0
H1899 H 0.4957 0.89909 0.52561 0.0
H1900 H 0.47638 0.94428 0.4876 0.0
H1901 H 0.46311 0.90496 0.49934 0.0
H1902 H 0.49577 0.93834 0.4766 0.0
H1903 H 0.47746 0.99416 0.52273 0.0
H1904 H 0.47032 0.99445 0.55105 0.0
H1905 H 0.49865 0.97991 0.57264 0.0
H1906 H 0.50595 0.97925 0.54436 0.0
H1907 H 0.51888 0.11724 0.45965 0.0
H1908 H 0.5056 0.07727 0.47099 0.0
H1909 H 0.52472 0.03058 0.50898 0.0
H1910 H 0.53802 0.07066 0.49785 0.0
H1911 H 0.50536 0.03757 0.51975 0.0
H1912 H 0.5237 0.98107 0.47388 0.0
H1913 H 0.53109 0.98549 0.44582 0.0
H1914 H 0.50294 0.00314 0.42396 0.0
H1915 H 0.49538 -0.00089 0.45197 0.0
C1916 C 0.48111 0.87688 0.52623 0.0
C1917 C 0.47168 0.88016 0.51964 0.0
C1918 C 0.48868 0.89943 0.51949 0.0
C1919 C 0.4869 0.92548 0.50609 0.0
C1920 C 0.47785 0.92468 0.49808 0.0
C1921 C 0.47027 0.90207 0.50481 0.0
C1922 C 0.49389 0.95756 0.50216 0.0
C1923 C 0.49781 0.96018 0.48598 0.0
C1924 C 0.49659 0.98595 0.51446 0.0
C1925 C 0.49223 0.98625 0.53145 0.0
C1926 C 0.48215 0.99071 0.53351 0.0
C1927 C 0.47808 0.991 0.54957 0.0
C1928 C 0.48402 0.98705 0.56365 0.0
C1929 C 0.49406 0.9829 0.56171 0.0
C1930 C 0.49817 0.98262 0.54568 0.0
C1931 C 0.52017 0.09971 0.47082 0.0
C1932 C 0.52955 0.09637 0.47763 0.0
C1933 C 0.51259 0.0767 0.47721 0.0
C1934 C 0.5143 0.05017 0.49047 0.0
C1935 C 0.52331 0.05059 0.49861 0.0
C1936 C 0.5309 0.07358 0.49223 0.0
C1937 C 0.50724 0.01825 0.49425 0.0
C1938 C 0.50333 0.01567 0.51039 0.0
C1939 C 0.50456 0.98991 0.48194 0.0
C1940 C 0.50899 0.99002 0.465 0.0
C1941 C 0.51909 0.98582 0.46307 0.0
C1942 C 0.52331 0.98823 0.44717 0.0
C1943 C 0.5175 0.99452 0.43308 0.0
C1944 C 0.50744 -0.00184 0.43487 0.0
C1945 C 0.50317 -0.00429 0.45075 0.0
H1946 H 0.5208 -0.00341 0.42079 0.0
H1947 H 0.48088 0.98734 0.57608 0.0
H1948 H 0.45882 0.8295 0.25205 0.0
H1949 H 0.47155 0.78624 0.26302 0.0
H1950 H 0.49234 0.8414 0.22988 0.0
H1951 H 0.47969 0.88487 0.21893 0.0
H1952 H 0.47944 0.73351 0.24119 0.0
H1953 H 0.51531 0.8245 0.24438 0.0
H1954 H 0.52096 0.89057 0.25369 0.0
H1955 H 0.4969 0.89889 0.28778 0.0
H1956 H 0.49117 0.83267 0.27885 0.0
H1957 H 0.53386 0.66178 0.24817 0.0
H1958 H 0.52088 0.70441 0.23768 0.0
H1959 H 0.50066 0.64848 0.27162 0.0
H1960 H 0.51357 0.60567 0.28215 0.0
H1961 H 0.51319 0.75661 0.26034 0.0
H1962 H 0.47743 0.66533 0.25741 0.0
H1963 H 0.47177 0.5993 0.24806 0.0
H1964 H 0.49561 0.59168 0.2135 0.0
H1965 H 0.50135 0.65785 0.22246 0.0
C1966 C 0.46618 0.83368 0.24762 0.0
C1967 C 0.46822 0.85998 0.23436 0.0
C1968 C 0.47344 0.80868 0.25381 0.0
C1969 C 0.48283 0.81013 0.24703 0.0
C1970 C 0.48514 0.83977 0.2353 0.0
C1971 C 0.47789 0.86468 0.22906 0.0
C1972 C 0.48972 0.77711 0.25006 0.0
C1973 C 0.48677 0.73841 0.24571 0.0
C1974 C 0.49937 0.78386 0.25532 0.0
C1975 C 0.50276 0.82374 0.2608 0.0
C1976 C 0.51124 0.84037 0.2539 0.0
C1977 C 0.51445 0.87786 0.25911 0.0
C1978 C 0.50927 0.89897 0.27128 0.0
C1979 C 0.50088 0.88258 0.27829 0.0
C1980 C 0.49763 0.8451 0.27314 0.0
C1981 C 0.52656 0.65727 0.25289 0.0
C1982 C 0.52478 0.63105 0.26629 0.0
C1983 C 0.51917 0.68191 0.24696 0.0
C1984 C 0.50988 0.68014 0.25413 0.0
C1985 C 0.50779 0.65038 0.26593 0.0
C1986 C 0.51519 0.62582 0.27192 0.0
C1987 C 0.50292 0.71305 0.25143 0.0
C1988 C 0.50586 0.75172 0.25585 0.0
C1989 C 0.49326 0.70627 0.24624 0.0
C1990 C 0.48988 0.6664 0.24076 0.0
C1991 C 0.48145 0.64961 0.24779 0.0
C1992 C 0.47823 0.61215 0.24256 0.0
C1993 C 0.48335 0.59125 0.23024 0.0
C1994 C 0.49168 0.60781 0.2231 0.0
C1995 C 0.49494 0.64526 0.22828 0.0
H1996 H 0.48084 0.56226 0.2262 0.0
H1997 H 0.51178 0.92798 0.2753 0.0
H1998 H 0.4799 0.36437 0.03894 0.0
H1999 H 0.49406 0.40004 0.02816 0.0
H2000 H 0.47564 0.46608 0.9945 0.0
H2001 H 0.46147 0.43033 0.00499 0.0
H2002 H 0.50264 0.42487 0.99474 0.0
H2003 H 0.47963 0.56393 0.00709 0.0
H2004 H 0.46495 0.58274 0.02305 0.0
H2005 H 0.47131 0.49287 0.05971 0.0
H2006 H 0.48613 0.47445 0.04429 0.0
H2007 H 0.51823 0.62806 0.9703 0.0
H2008 H 0.50552 0.59018 0.98442 0.0
H2009 H 0.52728 0.52337 0.01122 0.0
H2010 H 0.54005 0.56107 0.99713 0.0
H2011 H 0.49906 0.56337 0.01591 0.0
H2012 H 0.52257 0.42491 0.00196 0.0
H2013 H 0.53651 0.40641 0.98407 0.0
H2014 H 0.52835 0.4959 0.94832 0.0
H2015 H 0.51427 0.51409 0.96572 0.0
C2016 C 0.47892 0.38523 0.02873 0.0
C2017 C 0.46956 0.39523 0.02306 0.0
C2018 C 0.48702 0.40554 0.02258 0.0
C2019 C 0.48581 0.43619 0.01087 0.0
C2020 C 0.47666 0.4427 0.00369 0.0
C2021 C 0.46857 0.42214 0.00968 0.0
C2022 C 0.49359 0.46576 0.00843 0.0
C2023 C 0.50195 0.45494 -0.00043 0.0
C2024 C 0.49255 0.50512 0.01455 0.0
C2025 C 0.48392 0.5175 0.02441 0.0
C2026 C 0.47793 0.54846 0.01864 0.0
C2027 C 0.46958 0.55908 0.02761 0.0
C2028 C 0.46718 0.53898 0.04238 0.0
C2029 C 0.47316 0.50846 0.04829 0.0
C2030 C 0.48153 0.49793 0.03944 0.0
C2031 C 0.52031 0.60652 0.97974 0.0
C2032 C 0.53012 0.59674 0.98228 0.0
C2033 C 0.51303 0.58491 0.98782 0.0
C2034 C 0.51551 0.55328 0.99844 0.0
C2035 C 0.52526 0.54732 0.00282 0.0
C2036 C 0.53255 0.56906 0.99481 0.0
C2037 C 0.50817 0.52251 0.00227 0.0
C2038 C 0.49984 0.53314 0.0113 0.0
C2039 C 0.50919 0.48308 0.99614 0.0
C2040 C 0.51745 0.47121 0.98527 0.0
C2041 C 0.52373 0.44042 0.99023 0.0
C2042 C 0.53165 0.42997 0.98015 0.0
C2043 C 0.53334 0.45003 0.96507 0.0
C2044 C 0.52706 0.48037 0.95998 0.0
C2045 C 0.51911 0.49075 0.96994 0.0
H2046 H 0.5395 0.44203 0.95732 0.0
H2047 H 0.46069 0.54708 0.04926 0.0
H2048 H 0.03579 0.50262 0.41144 0.0
H2049 H 0.03485 0.44178 0.39473 0.0
H2050 H 0.06379 0.40964 0.41028 0.0
H2051 H 0.06465 0.47 0.42766 0.0
H2052 H 0.05797 0.42172 0.37182 0.0
H2053 H 0.05069 0.3515 0.42344 0.0
H2054 H 0.04162 0.34428 0.44992 0.0
H2055 H 0.01485 0.3367 0.42257 0.0
H2056 H 0.02375 0.34453 0.39592 0.0
H2057 H 0.05901 0.24409 0.32404 0.0
H2058 H 0.06092 0.29791 0.34431 0.0
H2059 H 0.0299 0.2989 0.35265 0.0
H2060 H 0.02813 0.24291 0.33325 0.0
H2061 H 0.03785 0.30108 0.38076 0.0
H2062 H 0.04308 0.37557 0.33057 0.0
H2063 H 0.05028 0.3921 0.30312 0.0
H2064 H 0.07846 0.40112 0.32577 0.0
H2065 H 0.07145 0.38418 0.35333 0.0
C2066 C 0.04184 0.48201 0.41166 0.0
C2067 C 0.05028 0.49073 0.42079 0.0
C2068 C 0.0413 0.44746 0.40212 0.0
C2069 C 0.04927 0.42168 0.40132 0.0
C2070 C 0.05759 0.42942 0.41088 0.0
C2071 C 0.05804 0.46361 0.42081 0.0
C2072 C 0.0491 0.38889 0.3892 0.0
C2073 C 0.05378 0.39476 0.3738 0.0
C2074 C 0.04322 0.35514 0.39172 0.0
C2075 C 0.03789 0.34887 0.40769 0.0
C2076 C 0.04286 0.34851 0.42308 0.0
C2077 C 0.03775 0.34428 0.43812 0.0
C2078 C 0.02766 0.34014 0.43794 0.0
C2079 C 0.02267 0.33994 0.4227 0.0
C2080 C 0.02775 0.3442 0.40761 0.0
C2081 C 0.05259 0.25654 0.32993 0.0
C2082 C 0.04341 0.23991 0.32707 0.0
C2083 C 0.05368 0.28729 0.34151 0.0
C2084 C 0.04554 0.30283 0.34992 0.0
C2085 C 0.0363 0.2873 0.3464 0.0
C2086 C 0.03526 0.25569 0.33522 0.0
C2087 C 0.04673 0.33359 0.36307 0.0
C2088 C 0.04219 0.32758 0.37868 0.0
C2089 C 0.0525 0.36799 0.36054 0.0
C2090 C 0.05675 0.37819 0.34398 0.0
C2091 C 0.05082 0.38078 0.32967 0.0
C2092 C 0.05487 0.39028 0.3141 0.0
C2093 C 0.06483 0.39754 0.3127 0.0
C2094 C 0.07075 0.39543 0.32687 0.0
C2095 C 0.06674 0.38593 0.34248 0.0
H2096 H 0.06794 0.40489 0.30063 0.0
H2097 H 0.02371 0.33703 0.4496 0.0
H2098 H 0.20249 0.77324 0.43918 0.0
H2099 H 0.20259 0.82789 0.41891 0.0
H2100 H 0.2216 0.76033 0.38664 0.0
H2101 H 0.2217 0.706 0.40691 0.0
H2102 H 0.22561 0.83885 0.38502 0.0
H2103 H 0.19804 0.75364 0.38066 0.0
H2104 H 0.18389 0.71662 0.39142 0.0
H2105 H 0.17014 0.82652 0.40535 0.0
H2106 H 0.1843 0.86418 0.39497 0.0
H2107 H 0.19314 0.95007 0.318 0.0
H2108 H 0.19757 0.88941 0.3334 0.0
H2109 H 0.21313 0.96045 0.36957 0.0
H2110 H 0.20888 0.02054 0.35431 0.0
H2111 H 0.19243 0.87118 0.36487 0.0
H2112 H 0.23211 0.9108 0.38492 0.0
H2113 H 0.24654 0.94319 0.37271 0.0
H2114 H 0.23634 0.91608 0.32317 0.0
H2115 H 0.22192 0.88301 0.33507 0.0
C2116 C 0.20689 0.77048 0.42798 0.0
C2117 C 0.21192 0.73511 0.42442 0.0
C2118 C 0.20691 0.80159 0.4164 0.0
C2119 C 0.2119 0.79752 0.40114 0.0
C2120 C 0.21764 0.76379 0.39829 0.0
C2121 C 0.21765 0.73277 0.40986 0.0
C2122 C 0.21034 0.82636 0.38749 0.0
C2123 C 0.21837 0.84604 0.38059 0.0
C2124 C 0.20092 0.83418 0.38126 0.0
C2125 C 0.19227 0.81172 0.38715 0.0
C2126 C 0.19203 0.76991 0.3861 0.0
C2127 C 0.184 0.74881 0.39213 0.0
C2128 C 0.17613 0.7692 0.39909 0.0
C2129 C 0.17625 0.81076 0.39997 0.0
C2130 C 0.18427 0.832 0.39401 0.0
C2131 C 0.19761 0.95254 0.32911 0.0
C2132 C 0.20061 0.98993 0.33504 0.0
C2133 C 0.20012 0.918 0.33787 0.0
C2134 C 0.20575 0.92054 0.3525 0.0
C2135 C 0.20894 0.95779 0.35814 0.0
C2136 C 0.20642 0.99214 0.34947 0.0
C2137 C 0.20767 0.88502 0.36285 0.0
C2138 C 0.19969 0.86385 0.36914 0.0
C2139 C 0.21716 0.87513 0.36817 0.0
C2140 C 0.22589 0.89463 0.36091 0.0
C2141 C 0.23297 0.91153 0.37143 0.0
C2142 C 0.24114 0.93007 0.36455 0.0
C2143 C 0.24235 0.93177 0.34717 0.0
C2144 C 0.23538 0.91486 0.33663 0.0
C2145 C 0.2272 0.89627 0.34343 0.0
H2146 H 0.24868 0.94615 0.34188 0.0
H2147 H 0.16993 0.75281 0.40377 0.0
H2148 H 0.05112 0.04244 0.88688 0.0
H2149 H 0.04735 0.98625 0.86876 0.0
H2150 H 0.04466 0.91 0.91207 0.0
H2151 H 0.0487 0.96635 0.93039 0.0
H2152 H 0.05433 0.87358 0.88755 0.0
H2153 H 0.02457 0.9438 0.89224 0.0
H2154 H 0.01356 0.00164 0.89196 0.0
H2155 H 0.01949 0.01993 0.83967 0.0
H2156 H 0.03066 0.96252 0.83969 0.0
H2157 H 0.02963 0.72142 0.84544 0.0
H2158 H 0.03004 0.78202 0.86218 0.0
H2159 H 0.0446 0.84365 0.82197 0.0
H2160 H 0.04442 0.78255 0.80508 0.0
H2161 H 0.02796 0.88598 0.8454 0.0
H2162 H 0.05959 0.81698 0.84349 0.0
H2163 H 0.06912 0.75483 0.84481 0.0
H2164 H 0.05783 0.73108 0.894 0.0
H2165 H 0.04808 0.79275 0.8928 0.0
C2166 C 0.04977 0.01367 0.89256 0.0
C2167 C 0.05014 0.00866 0.91002 0.0
C2168 C 0.04756 0.98168 0.8822 0.0
C2169 C 0.04553 0.94426 0.88911 0.0
C2170 C 0.04615 0.9388 0.90654 0.0
C2171 C 0.04847 0.97086 0.91695 0.0
C2172 C 0.04286 0.91096 0.87798 0.0
C2173 C 0.04849 0.87623 0.87849 0.0
C2174 C 0.03526 0.91447 0.8661 0.0
C2175 C 0.02853 0.94903 0.86601 0.0
C2176 C 0.02359 0.96034 0.88071 0.0
C2177 C 0.01731 0.99302 0.88059 0.0
C2178 C 0.01584 0.0145 0.86581 0.0
C2179 C 0.02064 0.00328 0.85111 0.0
C2180 C 0.02694 0.97064 0.85116 0.0
C2181 C 0.03274 0.74804 0.83996 0.0
C2182 C 0.03719 0.74712 0.8241 0.0
C2183 C 0.03291 0.78261 0.84952 0.0
C2184 C 0.03741 0.81681 0.84328 0.0
C2185 C 0.04108 0.81726 0.82688 0.0
C2186 C 0.04101 0.78241 0.81732 0.0
C2187 C 0.03957 0.84959 0.85482 0.0
C2188 C 0.0338 0.88381 0.85446 0.0
C2189 C 0.04693 0.84547 0.86701 0.0
C2190 C 0.05305 0.8092 0.86798 0.0
C2191 C 0.05909 0.79833 0.85453 0.0
C2192 C 0.06453 0.76323 0.85525 0.0
C2193 C 0.06406 0.73896 0.86946 0.0
C2194 C 0.05818 0.74987 0.88299 0.0
C2195 C 0.0527 0.7849 0.8823 0.0
H2196 H 0.06826 0.71177 0.86999 0.0
H2197 H 0.01097 0.03979 0.86574 0.0
H2198 H 0.21316 0.50739 0.83906 0.0
H2199 H 0.21444 0.44983 0.8577 0.0
H2200 H 0.18875 0.39917 0.83539 0.0
H2201 H 0.18755 0.45633 0.81636 0.0
H2202 H 0.19615 0.43052 0.87932 0.0
H2203 H 0.19486 0.33055 0.82995 0.0
H2204 H 0.20138 0.31273 0.80208 0.0
H2205 H 0.23047 0.32708 0.82044 0.0
H2206 H 0.22408 0.34543 0.84836 0.0
H2207 H 0.18674 0.25641 0.92721 0.0
H2208 H 0.18729 0.31265 0.90781 0.0
H2209 H 0.21697 0.28339 0.89523 0.0
H2210 H 0.21614 0.22546 0.91372 0.0
H2211 H 0.20795 0.29346 0.86824 0.0
H2212 H 0.20965 0.36938 0.91906 0.0
H2213 H 0.20468 0.39119 0.94731 0.0
H2214 H 0.17717 0.42994 0.92794 0.0
H2215 H 0.18192 0.4078 0.89961 0.0
C2216 C 0.20794 0.48346 0.83784 0.0
C2217 C 0.20024 0.48619 0.82638 0.0
C2218 C 0.20867 0.45076 0.84847 0.0
C2219 C 0.2017 0.42051 0.8478 0.0
C2220 C 0.19427 0.42211 0.83583 0.0
C2221 C 0.19359 0.45467 0.82501 0.0
C2222 C 0.20168 0.38968 0.86084 0.0
C2223 C 0.19861 0.40032 0.87698 0.0
C2224 C 0.20519 0.35109 0.85772 0.0
C2225 C 0.20901 0.3396 0.8411 0.0
C2226 C 0.20264 0.3301 0.82798 0.0
C2227 C 0.20631 0.31989 0.8122 0.0
C2228 C 0.21633 0.31885 0.80948 0.0
C2229 C 0.22271 0.32795 0.82255 0.0
C2230 C 0.21907 0.33826 0.83834 0.0
C2231 C 0.19344 0.26273 0.9206 0.0
C2232 C 0.20142 0.23702 0.9219 0.0
C2233 C 0.19377 0.29485 0.90952 0.0
C2234 C 0.2022 0.30244 0.90009 0.0
C2235 C 0.21037 0.27797 0.90225 0.0
C2236 C 0.20993 0.24519 0.9129 0.0
C2237 C 0.20228 0.33377 0.88704 0.0
C2238 C 0.20542 0.32344 0.87081 0.0
C2239 C 0.19896 0.37297 0.89021 0.0
C2240 C 0.19612 0.38662 0.90723 0.0
C2241 C 0.20252 0.38232 0.92084 0.0
C2242 C 0.19974 0.39477 0.93687 0.0
C2243 C 0.19061 0.41188 0.93942 0.0
C2244 C 0.18424 0.41666 0.92594 0.0
C2245 C 0.18698 0.4042 0.9099 0.0
H2246 H 0.18847 0.42149 0.95184 0.0
H2247 H 0.21915 0.31088 0.79727 0.0
H2248 H 0.95672 0.78048 0.64485 0.0
H2249 H 0.95955 0.72165 0.62772 0.0
H2250 H 0.95439 0.64637 0.67058 0.0
H2251 H 0.95134 0.70552 0.68797 0.0
H2252 H 0.97188 0.63068 0.64116 0.0
H2253 H 0.93673 0.64284 0.65461 0.0
H2254 H 0.92214 0.68479 0.65784 0.0
H2255 H 0.9254 0.72659 0.60727 0.0
H2256 H 0.94011 0.68531 0.60387 0.0
H2257 H 0.95918 0.44811 0.6037 0.0
H2258 H 0.96118 0.50692 0.62114 0.0
H2259 H 0.95112 0.58112 0.58053 0.0
H2260 H 0.94884 0.52187 0.56303 0.0
H2261 H 0.94213 0.59956 0.60853 0.0
H2262 H 0.97487 0.5806 0.59236 0.0
H2263 H 0.99011 0.54399 0.58745 0.0
H2264 H 0.99267 0.52079 0.6402 0.0
H2265 H 0.97732 0.55661 0.64541 0.0
C2266 C 0.95633 0.7515 0.65077 0.0
C2267 C 0.95363 0.74748 0.66769 0.0
C2268 C 0.95803 0.71801 0.64097 0.0
C2269 C 0.95715 0.68004 0.64796 0.0
C2270 C 0.95513 0.67572 0.6651 0.0
C2271 C 0.95334 0.70938 0.67494 0.0
C2272 C 0.95691 0.6455 0.63671 0.0
C2273 C 0.96537 0.62315 0.63421 0.0
C2274 C 0.94852 0.63742 0.62717 0.0
C2275 C 0.93955 0.66134 0.62905 0.0
C2276 C 0.93437 0.66121 0.64424 0.0
C2277 C 0.92607 0.68482 0.64609 0.0
C2278 C 0.92286 0.70843 0.63278 0.0
C2279 C 0.92791 0.70834 0.61757 0.0
C2280 C 0.93622 0.68482 0.61568 0.0
C2281 C 0.95745 0.47695 0.59841 0.0
C2282 C 0.95379 0.48047 0.58204 0.0
C2283 C 0.95867 0.51056 0.60837 0.0
C2284 C 0.9564 0.54836 0.60206 0.0
C2285 C 0.95291 0.55211 0.5856 0.0
C2286 C 0.95161 0.51835 0.57564 0.0
C2287 C 0.95707 0.58347 0.61313 0.0
C2288 C 0.94868 0.60646 0.6155 0.0
C2289 C 0.9656 0.59237 0.62231 0.0
C2290 C 0.97489 0.57104 0.61927 0.0
C2291 C 0.97863 0.56743 0.60291 0.0
C2292 C 0.9873 0.54684 0.60007 0.0
C2293 C 0.99235 0.53002 0.6135 0.0
C2294 C 0.98875 0.53381 0.62981 0.0
C2295 C 0.98006 0.55428 0.63271 0.0
H2296 H -0.00094 0.5141 0.61128 0.0
H2297 H 0.91644 0.72671 0.63424 0.0
H2298 H 0.7823 0.97275 0.65163 0.0
H2299 H 0.77995 0.03164 0.63422 0.0
H2300 H 0.79457 0.10364 0.67113 0.0
H2301 H 0.79722 0.0444 0.68855 0.0
H2302 H 0.7757 0.13608 0.65088 0.0
H2303 H 0.80888 0.07902 0.6466 0.0
H2304 H 0.81963 0.02092 0.64277 0.0
H2305 H 0.80568 0.99415 0.59598 0.0
H2306 H 0.79474 0.05173 0.59972 0.0
H2307 H 0.79365 0.30188 0.60777 0.0
H2308 H 0.79019 0.24493 0.62557 0.0
H2309 H 0.79034 0.16796 0.58218 0.0
H2310 H 0.79454 0.22473 0.56441 0.0
H2311 H 0.79992 0.13456 0.60472 0.0
H2312 H 0.76892 0.19444 0.60464 0.0
H2313 H 0.75675 0.24799 0.60684 0.0
H2314 H 0.76402 0.2648 0.6587 0.0
H2315 H 0.77637 0.2118 0.65674 0.0
C2316 C 0.78488 0.00122 0.65621 0.0
C2317 C 0.79005 0.00405 0.67134 0.0
C2318 C 0.78345 0.03477 0.64631 0.0
C2319 C 0.78709 0.07163 0.65147 0.0
C2320 C 0.79164 0.07526 0.66711 0.0
C2321 C 0.79318 0.04149 0.67698 0.0
C2322 C 0.78754 0.1045 0.63938 0.0
C2323 C 0.78103 0.13629 0.64085 0.0
C2324 C 0.7942 0.10328 0.62594 0.0
C2325 C 0.80094 0.06936 0.62352 0.0
C2326 C 0.80806 0.06054 0.63557 0.0
C2327 C 0.81419 0.02774 0.6334 0.0
C2328 C 0.81332 0.00379 0.61916 0.0
C2329 C 0.80634 0.01269 0.60702 0.0
C2330 C 0.80018 0.04539 0.60915 0.0
C2331 C 0.79289 0.27286 0.60199 0.0
C2332 C 0.79431 0.2677 0.5847 0.0
C2333 C 0.7908 0.24035 0.61217 0.0
C2334 C 0.78978 0.20224 0.60519 0.0
C2335 C 0.79105 0.19713 0.58784 0.0
C2336 C 0.79341 0.22955 0.5777 0.0
C2337 C 0.78819 0.16745 0.61623 0.0
C2338 C 0.79448 0.13484 0.61458 0.0
C2339 C 0.78113 0.16758 0.62919 0.0
C2340 C 0.77363 0.19924 0.63051 0.0
C2341 C 0.76797 0.2097 0.61649 0.0
C2342 C 0.76104 0.23996 0.6177 0.0
C2343 C 0.75962 0.25981 0.6329 0.0
C2344 C 0.76513 0.24939 0.64693 0.0
C2345 C 0.77209 0.2192 0.64579 0.0
H2346 H 0.75425 0.28324 0.63381 0.0
H2347 H 0.81807 0.9784 0.61751 0.0
H2348 H 0.93416 0.24237 0.16706 0.0
H2349 H 0.93478 0.18794 0.14682 0.0
H2350 H 0.96538 0.20983 0.13906 0.0
H2351 H 0.96455 0.26623 0.15843 0.0
H2352 H 0.958 0.201 0.11084 0.0
H2353 H 0.95578 0.12478 0.16094 0.0
H2354 H 0.94944 0.1033 0.1884 0.0
H2355 H 0.9221 0.07353 0.16582 0.0
H2356 H 0.92824 0.09531 0.13824 0.0
H2357 H 0.96389 0.99316 0.08116 0.0
H2358 H 0.96448 0.05396 0.09806 0.0
H2359 H 0.93658 0.08932 0.0786 0.0
H2360 H 0.93612 0.02918 0.06111 0.0
H2361 H 0.94276 0.0688 0.11951 0.0
H2362 H 0.94702 0.14921 0.06823 0.0
H2363 H 0.95578 0.16285 0.04187 0.0
H2364 H 0.98242 0.1764 0.0692 0.0
H2365 H 0.97384 0.162 0.09569 0.0
C2366 C 0.94105 0.23496 0.16125 0.0
C2367 C 0.94933 0.25808 0.16428 0.0
C2368 C 0.94141 0.20381 0.14972 0.0
C2369 C 0.95016 0.19441 0.14151 0.0
C2370 C 0.95854 0.21661 0.14514 0.0
C2371 C 0.95809 0.24853 0.15628 0.0
C2372 C 0.95043 0.16305 0.12845 0.0
C2373 C 0.95472 0.17203 0.11288 0.0
C2374 C 0.94617 0.12514 0.13097 0.0
C2375 C 0.94244 0.11206 0.14755 0.0
C2376 C 0.94839 0.11395 0.16185 0.0
C2377 C 0.94484 0.10166 0.17744 0.0
C2378 C 0.93536 0.08716 0.17887 0.0
C2379 C 0.92943 0.08482 0.1647 0.0
C2380 C 0.93295 0.09709 0.14908 0.0
C2381 C 0.95805 0.01465 0.08007 0.0
C2382 C 0.94997 0.00679 0.0699 0.0
C2383 C 0.95839 0.04915 0.0897 0.0
C2384 C 0.95058 0.07576 0.08947 0.0
C2385 C 0.94271 0.06907 0.07871 0.0
C2386 C 0.94247 0.03495 0.06873 0.0
C2387 C 0.95013 0.10736 0.10214 0.0
C2388 C 0.94591 0.09809 0.11763 0.0
C2389 C 0.95472 0.14435 0.09975 0.0
C2390 C 0.95981 0.15409 0.08389 0.0
C2391 C 0.95476 0.1547 0.06859 0.0
C2392 C 0.95969 0.16264 0.05363 0.0
C2393 C 0.96966 0.17037 0.05385 0.0
C2394 C 0.97471 0.17035 0.06904 0.0
C2395 C 0.96981 0.16232 0.08403 0.0
H2396 H 0.97347 0.17647 0.04226 0.0
H2397 H 0.93263 0.07766 0.19094 0.0
H2398 H 0.78061 0.44761 0.14417 0.0
H2399 H 0.77772 0.50426 0.12579 0.0
H2400 H 0.78527 0.58474 0.1658 0.0
H2401 H 0.7884 0.52789 0.18438 0.0
H2402 H 0.76801 0.60533 0.13998 0.0
H2403 H 0.80261 0.57187 0.14642 0.0
H2404 H 0.81591 0.5227 0.14727 0.0
H2405 H 0.8087 0.4841 0.09749 0.0
H2406 H 0.79523 0.5326 0.0965 0.0
H2407 H 0.78656 0.77886 0.10333 0.0
H2408 H 0.78215 0.71998 0.11927 0.0
H2409 H 0.78656 0.64691 0.07539 0.0
H2410 H 0.79124 0.70614 0.05931 0.0
H2411 H 0.79607 0.61796 0.10117 0.0
H2412 H 0.7637 0.65991 0.09211 0.0
H2413 H 0.74982 0.70615 0.09074 0.0
H2414 H 0.75185 0.72663 0.14375 0.0
H2415 H 0.76584 0.68093 0.14542 0.0
C2416 C 0.78147 0.47733 0.14922 0.0
C2417 C 0.78492 0.48341 0.16561 0.0
C2418 C 0.77975 0.50959 0.13872 0.0
C2419 C 0.78134 0.54834 0.1445 0.0
C2420 C 0.78398 0.55482 0.16125 0.0
C2421 C 0.78583 0.52242 0.17177 0.0
C2422 C 0.78177 0.58109 0.13234 0.0
C2423 C 0.77415 0.60858 0.13156 0.0
C2424 C 0.78963 0.58394 0.12103 0.0
C2425 C 0.79785 0.55546 0.12146 0.0
C2426 C 0.80381 0.55264 0.13572 0.0
C2427 C 0.81138 0.52494 0.13622 0.0
C2428 C 0.81313 0.5002 0.12246 0.0
C2429 C 0.80733 0.50322 0.10815 0.0
C2430 C 0.79973 0.53081 0.10761 0.0
C2431 C 0.7865 0.75035 0.09698 0.0
C2432 C 0.78935 0.74698 0.08012 0.0
C2433 C 0.78387 0.71675 0.10608 0.0
C2434 C 0.78392 0.67915 0.09847 0.0
C2435 C 0.78645 0.67576 0.08146 0.0
C2436 C 0.78913 0.70951 0.07232 0.0
C2437 C 0.78237 0.64333 0.10887 0.0
C2438 C 0.78982 0.6149 0.10936 0.0
C2439 C 0.77429 0.63961 0.11978 0.0
C2440 C 0.76587 0.66715 0.11887 0.0
C2441 C 0.76124 0.6745 0.10347 0.0
C2442 C 0.75334 0.70058 0.10263 0.0
C2443 C 0.74997 0.71937 0.11714 0.0
C2444 C 0.75448 0.71205 0.13252 0.0
C2445 C 0.76238 0.686 0.13342 0.0
H2446 H 0.74385 0.73955 0.11647 0.0
H2447 H 0.81899 0.47876 0.12287 0.0
H2448 H 0.5525 0.26454 0.81137 0.0
H2449 H 0.55329 0.32317 0.82961 0.0
H2450 H 0.52567 0.29171 0.85138 0.0
H2451 H 0.525 0.23225 0.83366 0.0
H2452 H 0.53224 0.38476 0.84287 0.0
H2453 H 0.53943 0.25686 0.87304 0.0
H2454 H 0.5485 0.19348 0.87335 0.0
H2455 H 0.57537 0.25731 0.86858 0.0
H2456 H 0.56642 0.32104 0.86795 0.0
H2457 H 0.52953 0.4898 0.91695 0.0
H2458 H 0.52814 0.43428 0.89732 0.0
H2459 H 0.55932 0.42016 0.89785 0.0
H2460 H 0.5606 0.47368 0.91858 0.0
H2461 H 0.55204 0.35209 0.89306 0.0
H2462 H 0.54709 0.47771 0.8675 0.0
H2463 H 0.54004 0.54452 0.86351 0.0
H2464 H 0.51197 0.49263 0.85515 0.0
H2465 H 0.51882 0.42549 0.85937 0.0
C2466 C 0.54645 0.27089 0.81964 0.0
C2467 C 0.5387 0.24399 0.82123 0.0
C2468 C 0.54692 0.30424 0.83003 0.0
C2469 C 0.53955 0.31132 0.84177 0.0
C2470 C 0.53139 0.28655 0.84228 0.0
C2471 C 0.53102 0.25271 0.83221 0.0
C2472 C 0.54101 0.34068 0.85516 0.0
C2473 C 0.53647 0.37775 0.85395 0.0
C2474 C 0.54689 0.3317 0.86914 0.0
C2475 C 0.55226 0.29358 0.87032 0.0
C2476 C 0.54726 0.25732 0.87198 0.0
C2477 C 0.55238 0.22136 0.87221 0.0
C2478 C 0.5625 0.22136 0.87095 0.0
C2479 C 0.56753 0.25735 0.86954 0.0
C2480 C 0.56244 0.29339 0.86926 0.0
C2481 C 0.53602 0.47381 0.91329 0.0
C2482 C 0.54515 0.48567 0.91918 0.0
C2483 C 0.53526 0.44253 0.90192 0.0
C2484 C 0.54366 0.42408 0.89562 0.0
C2485 C 0.55274 0.43418 0.90241 0.0
C2486 C 0.55347 0.46462 0.91427 0.0
C2487 C 0.543 0.39644 0.8812 0.0
C2488 C 0.54777 0.35955 0.88209 0.0
C2489 C 0.5376 0.40628 0.86661 0.0
C2490 C 0.53345 0.44658 0.8639 0.0
C2491 C 0.5394 0.48055 0.86491 0.0
C2492 C 0.53544 0.51848 0.8626 0.0
C2493 C 0.52556 0.52282 0.85911 0.0
C2494 C 0.51962 0.48922 0.85787 0.0
C2495 C 0.52354 0.45122 0.86021 0.0
H2496 H 0.5225 0.55221 0.85733 0.0
H2497 H 0.56645 0.19349 0.87108 0.0
H2498 H 0.71932 0.72187 0.9127 0.0
H2499 H 0.72109 0.78003 0.89465 0.0
H2500 H 0.69607 0.83394 0.91809 0.0
H2501 H 0.69435 0.77594 0.93643 0.0
H2502 H 0.70807 0.80104 0.8719 0.0
H2503 H 0.69786 0.93436 0.91506 0.0
H2504 H 0.7001 0.95492 0.9445 0.0
H2505 H 0.72571 0.88246 0.9479 0.0
H2506 H 0.72372 0.86198 0.91844 0.0
H2507 H 0.68907 0.96463 0.82644 0.0
H2508 H 0.69262 0.90805 0.84476 0.0
H2509 H 0.7184 0.96767 0.86258 0.0
H2510 H 0.71465 0.02479 0.84484 0.0
H2511 H 0.70834 0.94373 0.88788 0.0
H2512 H 0.71964 0.88324 0.83721 0.0
H2513 H 0.71872 0.86248 0.80761 0.0
H2514 H 0.69393 0.7896 0.8187 0.0
H2515 H 0.69468 0.81003 0.84838 0.0
C2516 C 0.71433 0.74652 0.91425 0.0
C2517 C 0.70664 0.74437 0.9258 0.0
C2518 C 0.71533 0.77958 0.9039 0.0
C2519 C 0.70868 0.811 0.90497 0.0
C2520 C 0.70133 0.81003 0.91719 0.0
C2521 C 0.70035 0.77697 0.92765 0.0
C2522 C 0.7089 0.84299 0.89233 0.0
C2523 C 0.70821 0.83228 0.87536 0.0
C2524 C 0.70922 0.88356 0.8969 0.0
C2525 C 0.71058 0.89637 0.91457 0.0
C2526 C 0.704 0.92299 0.92206 0.0
C2527 C 0.70522 0.93461 0.93876 0.0
C2528 C 0.71303 0.91992 0.94808 0.0
C2529 C 0.71965 0.89373 0.9407 0.0
C2530 C 0.71847 0.88206 0.924 0.0
C2531 C 0.69558 0.96522 0.83406 0.0
C2532 C 0.70154 -0.00099 0.83444 0.0
C2533 C 0.69762 0.93292 0.84447 0.0
C2534 C 0.70578 0.93374 0.85504 0.0
C2535 C 0.71203 0.96664 0.85465 0.0
C2536 C 0.7099 -0.00089 0.8445 0.0
C2537 C 0.70741 0.90182 0.86743 0.0
C2538 C 0.70836 0.91251 0.88438 0.0
C2539 C 0.70757 0.86123 0.8628 0.0
C2540 C 0.70718 0.84835 0.84501 0.0
C2541 C 0.71397 0.86291 0.83333 0.0
C2542 C 0.71348 0.85118 0.81653 0.0
C2543 C 0.70625 0.82488 0.81126 0.0
C2544 C 0.69952 0.81002 0.8228 0.0
C2545 C 0.69999 0.82155 0.83962 0.0
H2546 H 0.70586 0.81595 0.79824 0.0
H2547 H 0.71395 0.92889 0.96102 0.0
H2548 H 0.54346 0.7765 0.30726 0.0
H2549 H 0.54204 0.83701 0.32424 0.0
H2550 H 0.53465 0.76586 0.36747 0.0
H2551 H 0.53572 0.70578 0.35056 0.0
H2552 H 0.5248 0.83255 0.36831 0.0
H2553 H 0.55807 0.79484 0.36002 0.0
H2554 H 0.57266 0.7774 0.34364 0.0
H2555 H 0.57214 0.8923 0.32005 0.0
H2556 H 0.55745 0.9102 0.33613 0.0
H2557 H 0.54653 0.95858 0.43265 0.0
H2558 H 0.54258 0.90301 0.41383 0.0
H2559 H 0.54091 0.98434 0.37213 0.0
H2560 H 0.54457 0.0399 0.39073 0.0
H2561 H 0.55469 0.91494 0.37007 0.0
H2562 H 0.52081 0.95036 0.37945 0.0
H2563 H 0.50649 0.96493 0.39697 0.0
H2564 H 0.5094 0.85152 0.42131 0.0
H2565 H 0.52369 0.83609 0.40372 0.0
C2566 C 0.54138 0.77392 0.32031 0.0
C2567 C 0.53987 0.73647 0.32766 0.0
C2568 C 0.54059 0.80841 0.32999 0.0
C2569 C 0.53845 0.80574 0.34718 0.0
C2570 C 0.53635 0.76856 0.35425 0.0
C2571 C 0.53702 0.73423 0.34457 0.0
C2572 C 0.53918 0.84098 0.35818 0.0
C2573 C 0.53135 0.85043 0.36874 0.0
C2574 C 0.54774 0.86428 0.35875 0.0
C2575 C 0.5566 0.85368 0.34912 0.0
C2576 C 0.56102 0.81627 0.35124 0.0
C2577 C 0.56932 0.80632 0.34203 0.0
C2578 C 0.57331 0.83368 0.33078 0.0
C2579 C 0.56903 0.8711 0.32875 0.0
C2580 C 0.56072 0.88117 0.33791 0.0
C2581 C 0.54518 0.96461 0.41952 0.0
C2582 C 0.54591 0.00347 0.41314 0.0
C2583 C 0.5429 0.93298 0.40884 0.0
C2584 C 0.54145 0.93992 0.39169 0.0
C2585 C 0.54198 0.97868 0.38537 0.0
C2586 C 0.5441 0.01026 0.39602 0.0
C2587 C 0.5403 0.90645 0.38001 0.0
C2588 C 0.54811 0.89721 0.36945 0.0
C2589 C 0.53183 0.88296 0.37969 0.0
C2590 C 0.52334 0.89225 0.3904 0.0
C2591 C 0.51842 0.92865 0.38861 0.0
C2592 C 0.51028 0.93696 0.39849 0.0
C2593 C 0.50706 0.90925 0.41031 0.0
C2594 C 0.51192 0.87299 0.41217 0.0
C2595 C 0.52 0.86435 0.40218 0.0
H2596 H 0.50078 0.91584 0.41801 0.0
H2597 H 0.57973 0.82592 0.32366 0.0
H2598 H 0.71222 0.20147 0.40416 0.0
H2599 H 0.7127 0.26113 0.38683 0.0
H2600 H 0.69714 0.32614 0.42504 0.0
H2601 H 0.69655 0.26612 0.44247 0.0
H2602 H 0.68833 0.33014 0.39486 0.0
H2603 H 0.72028 0.35012 0.41618 0.0
H2604 H 0.73701 0.33123 0.42371 0.0
H2605 H 0.74335 0.30627 0.37206 0.0
H2606 H 0.72662 0.32476 0.36421 0.0
H2607 H 0.69271 0.52176 0.36003 0.0
H2608 H 0.69566 0.46432 0.37797 0.0
H2609 H 0.70343 0.39408 0.33473 0.0
H2610 H 0.7003 0.45176 0.31644 0.0
H2611 H 0.71665 0.3928 0.36678 0.0
H2612 H 0.6841 0.37092 0.34618 0.0
H2613 H 0.66738 0.3915 0.3394 0.0
H2614 H 0.66234 0.42135 0.39102 0.0
H2615 H 0.6791 0.40151 0.39806 0.0
C2616 C 0.70902 0.22863 0.40899 0.0
C2617 C 0.7042 0.22912 0.42451 0.0
C2618 C 0.70937 0.26274 0.39913 0.0
C2619 C 0.70495 0.29791 0.40468 0.0
C2620 C 0.70058 0.29911 0.42057 0.0
C2621 C 0.70025 0.26493 0.4305 0.0
C2622 C 0.70395 0.33181 0.39308 0.0
C2623 C 0.69454 0.34422 0.38893 0.0
C2624 C 0.71205 0.34923 0.385 0.0
C2625 C 0.72216 0.33852 0.38962 0.0
C2626 C 0.72522 0.34037 0.40643 0.0
C2627 C 0.73471 0.32983 0.41076 0.0
C2628 C 0.74123 0.31742 0.39838 0.0
C2629 C 0.73829 0.31582 0.38164 0.0
C2630 C 0.72881 0.32645 0.37723 0.0
C2631 C 0.69505 0.49413 0.35429 0.0
C2632 C 0.69624 0.49103 0.33685 0.0
C2633 C 0.69675 0.46148 0.36456 0.0
C2634 C 0.69978 0.42533 0.3576 0.0
C2635 C 0.70113 0.42203 0.34023 0.0
C2636 C 0.69927 0.45471 0.32985 0.0
C2637 C 0.70106 0.39082 0.36868 0.0
C2638 C 0.71049 0.37844 0.37273 0.0
C2639 C 0.69299 0.37345 0.37677 0.0
C2640 C 0.68288 0.38513 0.37261 0.0
C2641 C 0.67946 0.38224 0.35605 0.0
C2642 C 0.66997 0.39369 0.35217 0.0
C2643 C 0.66381 0.40783 0.36476 0.0
C2644 C 0.66712 0.41044 0.38127 0.0
C2645 C 0.67661 0.39906 0.38522 0.0
H2646 H 0.65646 0.41668 0.36173 0.0
H2647 H 0.74856 0.30912 0.40177 0.0
H2648 H 0.46395 0.49606 0.08773 0.0
H2649 H 0.46457 0.55284 0.10681 0.0
H2650 H 0.43455 0.57926 0.09572 0.0
H2651 H 0.43425 0.52449 0.07545 0.0
H2652 H 0.44284 0.64438 0.10167 0.0
H2653 H 0.44221 0.52027 0.13072 0.0
H2654 H 0.4475 0.45228 0.138 0.0
H2655 H 0.47511 0.49744 0.15418 0.0
H2656 H 0.47004 0.56566 0.14677 0.0
H2657 H 0.43553 0.73174 0.18459 0.0
H2658 H 0.43594 0.67326 0.16609 0.0
H2659 H 0.46406 0.70901 0.14769 0.0
H2660 H 0.46357 0.76808 0.16567 0.0
H2661 H 0.45569 0.61165 0.15819 0.0
H2662 H 0.45519 0.73576 0.12071 0.0
H2663 H 0.44787 0.80191 0.11587 0.0
H2664 H 0.41935 0.75082 0.11914 0.0
H2665 H 0.42653 0.6845 0.12424 0.0
C2666 C 0.45762 0.51496 0.08896 0.0
C2667 C 0.44907 0.50633 0.08017 0.0
C2668 C 0.45791 0.54695 0.10005 0.0
C2669 C 0.4495 0.56937 0.1032 0.0
C2670 C 0.44112 0.56218 0.09362 0.0
C2671 C 0.44094 0.53104 0.08202 0.0
C2672 C 0.44929 0.59862 0.1171 0.0
C2673 C 0.44562 0.6369 0.11399 0.0
C2674 C 0.45274 0.58897 0.13339 0.0
C2675 C 0.45577 0.54803 0.13806 0.0
C2676 C 0.44943 0.51567 0.13575 0.0
C2677 C 0.45239 0.4771 0.1399 0.0
C2678 C 0.46164 0.47054 0.14652 0.0
C2679 C 0.46795 0.50256 0.14904 0.0
C2680 C 0.46503 0.5412 0.14488 0.0
C2681 C 0.4419 0.72647 0.17692 0.0
C2682 C 0.4495 0.75429 0.17639 0.0
C2683 C 0.44211 0.69324 0.16639 0.0
C2684 C 0.45 0.68732 0.15558 0.0
C2685 C 0.45792 0.7134 0.156 0.0
C2686 C 0.45762 0.74699 0.16621 0.0
C2687 C 0.44953 0.65686 0.14241 0.0
C2688 C 0.45298 0.61859 0.14576 0.0
C2689 C 0.44565 0.66597 0.12653 0.0
C2690 C 0.44138 0.70543 0.12294 0.0
C2691 C 0.44736 0.73875 0.12045 0.0
C2692 C 0.44324 0.77623 0.11767 0.0
C2693 C 0.43315 0.78058 0.11723 0.0
C2694 C 0.42716 0.74742 0.11951 0.0
C2695 C 0.43125 0.70991 0.12234 0.0
H2696 H 0.42998 0.80962 0.11509 0.0
H2697 H 0.46392 0.44065 0.14972 0.0
H2698 H 0.29926 0.0312 0.18845 0.0
H2699 H 0.29782 0.09095 0.17088 0.0
H2700 H 0.29965 0.01811 0.12645 0.0
H2701 H 0.30104 0.9586 0.14377 0.0
H2702 H 0.31177 0.08527 0.12595 0.0
H2703 H 0.2784 0.04978 0.13789 0.0
H2704 H 0.26461 0.03464 0.15657 0.0
H2705 H 0.26703 0.15038 0.17905 0.0
H2706 H 0.28093 0.16601 0.16064 0.0
H2707 H 0.2984 0.22016 0.06316 0.0
H2708 H 0.29808 0.16153 0.08134 0.0
H2709 H 0.29207 0.23655 0.12405 0.0
H2710 H 0.29201 0.29494 0.1059 0.0
H2711 H 0.28213 0.1694 0.12635 0.0
H2712 H 0.31514 0.20624 0.1154 0.0
H2713 H 0.32929 0.22296 0.09782 0.0
H2714 H 0.32821 0.1071 0.07514 0.0
H2715 H 0.31395 0.08989 0.09242 0.0
C2716 C 0.2994 0.02808 0.17494 0.0
C2717 C 0.30024 0.9904 0.16745 0.0
C2718 C 0.29853 0.06207 0.16496 0.0
C2719 C 0.29858 0.05865 0.14743 0.0
C2720 C 0.2996 0.02117 0.13997 0.0
C2721 C 0.30036 0.98727 0.14989 0.0
C2722 C 0.29758 0.09403 0.1367 0.0
C2723 C 0.30526 0.10349 0.12589 0.0
C2724 C 0.28917 0.11815 0.13704 0.0
C2725 C 0.28077 0.10889 0.14802 0.0
C2726 C 0.27604 0.07187 0.14691 0.0
C2727 C 0.26819 0.06323 0.15743 0.0
C2728 C 0.26496 0.09148 0.16903 0.0
C2729 C 0.26955 0.1285 0.17008 0.0
C2730 C 0.27741 0.13728 0.1596 0.0
C2731 C 0.29686 0.22401 0.07637 0.0
C2732 C 0.29532 0.26205 0.08315 0.0
C2733 C 0.29673 0.1906 0.08675 0.0
C2734 C 0.29525 0.19491 0.10407 0.0
C2735 C 0.29327 0.23266 0.11072 0.0
C2736 C 0.29328 0.26598 0.10034 0.0
C2737 C 0.29629 0.16047 0.11542 0.0
C2738 C 0.28865 0.15124 0.1264 0.0
C2739 C 0.30479 0.13679 0.11541 0.0
C2740 C 0.31342 0.14692 0.10509 0.0
C2741 C 0.31788 0.18443 0.10658 0.0
C2742 C 0.32592 0.19398 0.09668 0.0
C2743 C 0.32963 0.16615 0.08534 0.0
C2744 C 0.32532 0.12865 0.08391 0.0
C2745 C 0.31726 0.11897 0.09376 0.0
H2746 H 0.33587 0.1736 0.07768 0.0
H2747 H 0.25889 0.08473 0.17716 0.0
H2748 H 0.43676 0.2337 0.6691 0.0
H2749 H 0.43839 0.17816 0.64951 0.0
H2750 H 0.46601 0.2246 0.63285 0.0
H2751 H 0.46409 0.28144 0.65163 0.0
H2752 H 0.45644 0.20209 0.60715 0.0
H2753 H 0.46377 0.14269 0.66034 0.0
H2754 H 0.46091 0.12546 0.68999 0.0
H2755 H 0.43506 0.06182 0.67634 0.0
H2756 H 0.43768 0.07918 0.64663 0.0
H2757 H 0.46469 0.97405 0.59075 0.0
H2758 H 0.46611 0.03497 0.60709 0.0
H2759 H 0.4444 0.09088 0.57597 0.0
H2760 H 0.4432 0.02998 0.5591 0.0
H2761 H 0.45204 0.06224 0.62557 0.0
H2762 H 0.44738 0.1926 0.57827 0.0
H2763 H 0.45198 0.20914 0.54919 0.0
H2764 H 0.47615 0.12864 0.55213 0.0
H2765 H 0.47179 0.11212 0.58128 0.0
C2766 C 0.4432 0.23182 0.66133 0.0
C2767 C 0.45034 0.26157 0.6619 0.0
C2768 C 0.44414 0.20009 0.65017 0.0
C2769 C 0.45238 0.19698 0.63986 0.0
C2770 C 0.45958 0.22647 0.64064 0.0
C2771 C 0.45851 0.2587 0.65146 0.0
C2772 C 0.45348 0.16328 0.6281 0.0
C2773 C 0.45551 0.17147 0.61118 0.0
C2774 C 0.45242 0.12336 0.63342 0.0
C2775 C 0.45088 0.1125 0.65127 0.0
C2776 C 0.45744 0.12521 0.66367 0.0
C2777 C 0.45587 0.1154 0.68049 0.0
C2778 C 0.4478 0.09261 0.68505 0.0
C2779 C 0.4413 0.0795 0.67279 0.0
C2780 C 0.44283 0.08928 0.65596 0.0
C2781 C 0.46038 -0.00034 0.58714 0.0
C2782 C 0.45377 -0.00262 0.57381 0.0
C2783 C 0.46118 0.03434 0.59652 0.0
C2784 C 0.4553 0.0672 0.59285 0.0
C2785 C 0.44906 0.06586 0.57891 0.0
C2786 C 0.44837 0.03115 0.56932 0.0
C2787 C 0.45502 0.10102 0.60464 0.0
C2788 C 0.45305 0.09284 0.62156 0.0
C2789 C 0.45644 0.14075 0.5994 0.0
C2790 C 0.45918 0.15082 0.58191 0.0
C2791 C 0.45369 0.17855 0.57273 0.0
C2792 C 0.45626 0.18792 0.55623 0.0
C2793 C 0.46433 0.16986 0.5488 0.0
C2794 C 0.46988 0.1425 0.55787 0.0
C2795 C 0.46735 0.13309 0.57438 0.0
H2796 H 0.4663 0.17713 0.53602 0.0
H2797 H 0.44659 0.08506 0.69807 0.0
H2798 H 0.2771 0.4822 0.66259 0.0
H2799 H 0.27663 0.53965 0.64382 0.0
H2800 H 0.3043 0.57902 0.66306 0.0
H2801 H 0.30461 0.52243 0.68232 0.0
H2802 H 0.29355 0.64063 0.65616 0.0
H2803 H 0.30281 0.52184 0.62762 0.0
H2804 H 0.30125 0.45196 0.61855 0.0
H2805 H 0.27484 0.48031 0.59257 0.0
H2806 H 0.27616 0.55027 0.60174 0.0
H2807 H 0.30528 0.71438 0.56719 0.0
H2808 H 0.30335 0.65714 0.58599 0.0
H2809 H 0.28036 0.71861 0.61219 0.0
H2810 H 0.2825 0.77618 0.59389 0.0
H2811 H 0.28971 0.60588 0.596 0.0
H2812 H 0.28353 0.70883 0.65363 0.0
H2813 H 0.28741 0.77748 0.66238 0.0
H2814 H 0.31209 0.77832 0.62944 0.0
H2815 H 0.30845 0.7095 0.62072 0.0
C2816 C 0.28297 0.50367 0.66306 0.0
C2817 C 0.29094 0.49778 0.67371 0.0
C2818 C 0.28272 0.53626 0.65229 0.0
C2819 C 0.29057 0.56285 0.65173 0.0
C2820 C 0.29821 0.55862 0.66322 0.0
C2821 C 0.29838 0.52635 0.67422 0.0
C2822 C 0.29113 0.59333 0.63842 0.0
C2823 C 0.29267 0.63306 0.64303 0.0
C2824 C 0.29029 0.58316 0.62124 0.0
C2825 C 0.28954 0.54122 0.61551 0.0
C2826 C 0.29664 0.51312 0.62007 0.0
C2827 C 0.2958 0.4735 0.6149 0.0
C2828 C 0.28794 0.46169 0.60502 0.0
C2829 C 0.28092 0.4895 0.60024 0.0
C2830 C 0.28171 0.52915 0.60542 0.0
C2831 C 0.29969 0.71521 0.57675 0.0
C2832 C 0.29415 0.74973 0.57937 0.0
C2833 C 0.29858 0.68259 0.58745 0.0
C2834 C 0.29188 0.68419 0.6007 0.0
C2835 C 0.28573 0.71726 0.60228 0.0
C2836 C 0.28694 0.75001 0.59182 0.0
C2837 C 0.29189 0.65321 0.61381 0.0
C2838 C 0.29051 0.61341 0.60916 0.0
C2839 C 0.29326 0.66307 0.63091 0.0
C2840 C 0.29565 0.70415 0.6364 0.0
C2841 C 0.28981 0.7236 0.64833 0.0
C2842 C 0.29197 0.76255 0.65327 0.0
C2843 C 0.29998 0.78229 0.64643 0.0
C2844 C 0.30588 0.76305 0.63469 0.0
C2845 C 0.30377 0.72408 0.62974 0.0
H2846 H 0.30162 0.81247 0.65024 0.0
H2847 H 0.2873 0.43099 0.60103 0.0
H2848 H 0.04228 0.73754 0.4217 0.0
H2849 H 0.03712 0.80106 0.4094 0.0
H2850 H 0.04322 0.7555 0.35994 0.0
H2851 H 0.04838 0.69253 0.37194 0.0
H2852 H 0.0525 0.82526 0.36659 0.0
H2853 H 0.02047 0.7705 0.37106 0.0
H2854 H 0.0065 0.73968 0.38541 0.0
H2855 H 0.00426 0.84082 0.41811 0.0
H2856 H 0.01831 0.87202 0.40412 0.0
H2857 H 0.0383 0.98847 0.31929 0.0
H2858 H 0.03618 0.92068 0.32989 0.0
H2859 H 0.03254 0.96636 0.38004 0.0
H2860 H 0.03469 0.03413 0.36962 0.0
H2861 H 0.02103 0.89603 0.37255 0.0
H2862 H 0.05394 0.94643 0.37051 0.0
H2863 H 0.06795 0.97813 0.35663 0.0
H2864 H 0.06862 0.88439 0.32003 0.0
H2865 H 0.05449 0.85248 0.33356 0.0
C2866 C 0.04242 0.74098 0.4082 0.0
C2867 C 0.04586 0.71021 0.39782 0.0
C2868 C 0.03942 0.7771 0.40121 0.0
C2869 C 0.03979 0.78273 0.38379 0.0
C2870 C 0.04289 0.75162 0.37342 0.0
C2871 C 0.04588 0.7157 0.38034 0.0
C2872 C 0.03791 0.82212 0.37634 0.0
C2873 C 0.04556 0.84038 0.36766 0.0
C2874 C 0.02894 0.84215 0.37817 0.0
C2875 C 0.02051 0.8234 0.38666 0.0
C2876 C 0.01706 0.786 0.38143 0.0
C2877 C 0.00911 0.7685 0.38947 0.0
C2878 C 0.00451 0.78823 0.40269 0.0
C2879 C 0.00784 0.82555 0.40788 0.0
C2880 C 0.01579 0.84317 0.39989 0.0
C2881 C 0.0368 0.98416 0.33249 0.0
C2882 C 0.03688 0.01641 0.3437 0.0
C2883 C 0.03555 0.9455 0.33851 0.0
C2884 C 0.03431 0.93878 0.35574 0.0
C2885 C 0.03348 0.97113 0.3667 0.0
C2886 C 0.03482 0.00972 0.36074 0.0
C2887 C 0.03557 0.89851 0.36264 0.0
C2888 C 0.0279 0.88044 0.37135 0.0
C2889 C 0.04454 0.8785 0.36096 0.0
C2890 C 0.05309 0.89736 0.35291 0.0
C2891 C 0.05702 0.93278 0.35941 0.0
C2892 C 0.06499 0.95075 0.35163 0.0
C2893 C 0.06915 0.93336 0.33742 0.0
C2894 C 0.06537 0.89788 0.33101 0.0
C2895 C 0.05739 0.87983 0.33873 0.0
H2896 H 0.07533 0.94731 0.33141 0.0
H2897 H -0.00164 0.77464 0.4089 0.0
H2898 H 0.21527 0.53137 0.38723 0.0
H2899 H 0.21602 0.46457 0.37529 0.0
H2900 H 0.20145 0.41769 0.41895 0.0
H2901 H 0.20099 0.48461 0.43128 0.0
H2902 H 0.21463 0.36525 0.40667 0.0
H2903 H 0.18855 0.44603 0.38454 0.0
H2904 H 0.1816 0.50551 0.37095 0.0
H2905 H 0.19899 0.48399 0.32716 0.0
H2906 H 0.20614 0.42464 0.3406 0.0
H2907 H 0.18846 0.20304 0.3755 0.0
H2908 H 0.19361 0.26658 0.38701 0.0
H2909 H 0.20789 0.29544 0.34042 0.0
H2910 H 0.20267 0.23153 0.32859 0.0
H2911 H 0.19701 0.35668 0.35252 0.0
H2912 H 0.22135 0.26933 0.37388 0.0
H2913 H 0.2277 0.20921 0.38781 0.0
H2914 H 0.21304 0.24186 0.43331 0.0
H2915 H 0.20649 0.30191 0.41959 0.0
C2916 C 0.2124 0.50666 0.39442 0.0
C2917 C 0.20792 0.51303 0.41002 0.0
C2918 C 0.21283 0.4686 0.38759 0.0
C2919 C 0.20856 0.43649 0.39605 0.0
C2920 C 0.20473 0.44224 0.4122 0.0
C2921 C 0.20446 0.48036 0.41921 0.0
C2922 C 0.20721 0.39806 0.38737 0.0
C2923 C 0.21074 0.36325 0.39488 0.0
C2924 C 0.20232 0.39575 0.37178 0.0
C2925 C 0.19795 0.43118 0.36363 0.0
C2926 C 0.19094 0.45414 0.37205 0.0
C2927 C 0.18696 0.48781 0.36438 0.0
C2928 C 0.18987 0.49859 0.34822 0.0
C2929 C 0.19675 0.47565 0.33969 0.0
C2930 C 0.20077 0.44199 0.34732 0.0
C2931 C 0.1927 0.22278 0.36763 0.0
C2932 C 0.19519 0.21214 0.35113 0.0
C2933 C 0.19569 0.25899 0.37431 0.0
C2934 C 0.2013 0.28522 0.36468 0.0
C2935 C 0.20364 0.27527 0.34807 0.0
C2936 C 0.20063 0.23889 0.34134 0.0
C2937 C 0.20431 0.32372 0.37192 0.0
C2938 C 0.20106 0.35863 0.36415 0.0
C2939 C 0.20939 0.326 0.38731 0.0
C2940 C 0.21338 0.29003 0.39566 0.0
C2941 C 0.21942 0.26356 0.38682 0.0
C2942 C 0.22307 0.22951 0.39469 0.0
C2943 C 0.22076 0.22169 0.41143 0.0
C2944 C 0.21482 0.24796 0.42035 0.0
C2945 C 0.21115 0.28204 0.41254 0.0
H2946 H 0.22359 0.19531 0.4175 0.0
H2947 H 0.18679 0.52467 0.3423 0.0
H2948 H 0.04352 0.49435 0.82611 0.0
H2949 H 0.04093 0.43096 0.84055 0.0
H2950 H 0.03216 0.49415 0.88523 0.0
H2951 H 0.03517 0.55733 0.8711 0.0
H2952 H 0.04504 0.44383 0.89315 0.0
H2953 H 0.01594 0.43462 0.86176 0.0
H2954 H 0.00536 0.43706 0.83688 0.0
H2955 H 0.02149 0.34151 0.8144 0.0
H2956 H 0.03226 0.33884 0.83904 0.0
H2957 H 0.04228 0.24907 0.93056 0.0
H2958 H 0.03612 0.31342 0.92044 0.0
H2959 H 0.04853 0.29012 0.87174 0.0
H2960 H 0.05467 0.2266 0.88158 0.0
H2961 H 0.02982 0.32186 0.87003 0.0
H2962 H 0.06079 0.34475 0.89888 0.0
H2963 H 0.07144 0.34293 0.92373 0.0
H2964 H 0.05092 0.4139 0.95119 0.0
H2965 H 0.0401 0.4157 0.92653 0.0
C2966 C 0.04089 0.49457 0.83892 0.0
C2967 C 0.03967 0.53055 0.84758 0.0
C2968 C 0.03933 0.45839 0.84713 0.0
C2969 C 0.03627 0.45778 0.86397 0.0
C2970 C 0.03455 0.49387 0.87228 0.0
C2971 C 0.0363 0.52991 0.86421 0.0
C2972 C 0.03601 0.41988 0.87344 0.0
C2973 C 0.04146 0.41747 0.8883 0.0
C2974 C 0.03142 0.38533 0.86711 0.0
C2975 C 0.02494 0.38667 0.85225 0.0
C2976 C 0.01727 0.41429 0.85147 0.0
C2977 C 0.01124 0.41569 0.83741 0.0
C2978 C 0.01276 0.38949 0.82406 0.0
C2979 C 0.02031 0.36178 0.82475 0.0
C2980 C 0.02638 0.36026 0.83878 0.0
C2981 C 0.04366 0.25771 0.9177 0.0
C2982 C 0.04905 0.23297 0.90693 0.0
C2983 C 0.04011 0.29428 0.91194 0.0
C2984 C 0.04186 0.30626 0.89534 0.0
C2985 C 0.04703 0.28119 0.88454 0.0
C2986 C 0.05063 0.24505 0.89028 0.0
C2987 C 0.03905 0.34605 0.88925 0.0
C2988 C 0.03307 0.34872 0.87507 0.0
C2989 C 0.04308 0.38094 0.89621 0.0
C2990 C 0.0496 0.37991 0.91097 0.0
C2991 C 0.05852 0.35968 0.91027 0.0
C2992 C 0.06459 0.3587 0.9243 0.0
C2993 C 0.06184 0.37816 0.93905 0.0
C2994 C 0.05303 0.39875 0.93977 0.0
C2995 C 0.04693 0.39976 0.92578 0.0
H2996 H 0.06655 0.37738 0.9499 0.0
H2997 H 0.00808 0.39063 0.81318 0.0
H2998 H 0.19601 0.03802 0.87626 0.0
H2999 H 0.19811 0.97326 0.86308 0.0
H3000 H 0.20115 0.91856 0.91173 0.0
H3001 H 0.19928 0.98388 0.92513 0.0
H3002 H 0.21359 0.88617 0.88871 0.0
H3003 H 0.1796 0.91665 0.89236 0.0
H3004 H 0.16492 0.95768 0.88855 0.0
H3005 H 0.1692 0.95644 0.83523 0.0
H3006 H 0.18399 0.91585 0.83874 0.0
H3007 H 0.19671 0.69143 0.86968 0.0
H3008 H 0.19959 0.75841 0.88037 0.0
H3009 H 0.19912 0.8046 0.82992 0.0
H3010 H 0.1963 0.73733 0.81902 0.0
H3011 H 0.18636 0.84239 0.85238 0.0
H3012 H 0.21979 0.80513 0.84934 0.0
H3013 H 0.23409 0.76248 0.85406 0.0
H3014 H 0.23037 0.77381 0.9073 0.0
H3015 H 0.21595 0.81606 0.9029 0.0
C3016 C 0.19717 0.01229 0.8842 0.0
C3017 C 0.19732 0.01585 0.90175 0.0
C3018 C 0.19839 0.97534 0.87663 0.0
C3019 C 0.1996 0.94116 0.88646 0.0
C3020 C 0.20019 0.94471 0.90396 0.0
C3021 C 0.19908 0.98191 0.91158 0.0
C3022 C 0.19963 0.90161 0.87844 0.0
C3023 C 0.20761 0.87634 0.88089 0.0
C3024 C 0.19189 0.88934 0.86799 0.0
C3025 C 0.18296 0.91357 0.86583 0.0
C3026 C 0.17745 0.92539 0.87983 0.0
C3027 C 0.1691 0.94852 0.87773 0.0
C3028 C 0.16614 0.95976 0.86166 0.0
C3029 C 0.17151 0.94778 0.84767 0.0
C3030 C 0.17987 0.92468 0.84971 0.0
C3031 C 0.19729 0.71576 0.86083 0.0
C3032 C 0.19619 0.70926 0.84352 0.0
C3033 C 0.19902 0.7539 0.86695 0.0
C3034 C 0.19964 0.78618 0.85589 0.0
C3035 C 0.19872 0.77983 0.83859 0.0
C3036 C 0.1971 0.74151 0.83242 0.0
C3037 C 0.20031 0.82688 0.86264 0.0
C3038 C 0.19241 0.85234 0.86002 0.0
C3039 C 0.20806 0.83899 0.87307 0.0
C3040 C 0.21673 0.81351 0.87578 0.0
C3041 C 0.22196 0.79824 0.86205 0.0
C3042 C 0.23011 0.77419 0.86467 0.0
C3043 C 0.23313 0.76537 0.88097 0.0
C3044 C 0.22802 0.78064 0.89468 0.0
C3045 C 0.21987 0.80468 0.89213 0.0
H3046 H 0.23944 0.74676 0.88297 0.0
H3047 H 0.15968 0.97766 0.86006 0.0
H3048 H 0.94787 0.22666 0.56367 0.0
H3049 H 0.94822 0.15786 0.5741 0.0
H3050 H 0.95908 0.19942 0.6217 0.0
H3051 H 0.95858 0.26791 0.61148 0.0
H3052 H 0.96633 0.12195 0.61141 0.0
H3053 H 0.93634 0.19784 0.61858 0.0
H3054 H 0.92276 0.23825 0.60778 0.0
H3055 H 0.91446 0.1428 0.57496 0.0
H3056 H 0.92811 0.10208 0.5854 0.0
H3057 H 0.94884 0.98651 0.67217 0.0
H3058 H 0.95253 0.04721 0.65645 0.0
H3059 H 0.93568 0.00372 0.61471 0.0
H3060 H 0.93173 0.94383 0.6304 0.0
H3061 H 0.93215 0.07887 0.61935 0.0
H3062 H 0.96076 -0.00129 0.61496 0.0
H3063 H 0.9745 0.95849 0.62523 0.0
H3064 H 0.98563 0.05972 0.65188 0.0
H3065 H 0.97187 0.10043 0.64196 0.0
C3066 C 0.95065 0.22082 0.57613 0.0
C3067 C 0.95307 0.25229 0.58691 0.0
C3068 C 0.95084 0.18168 0.58206 0.0
C3069 C 0.95358 0.1739 0.5987 0.0
C3070 C 0.95696 0.20496 0.60883 0.0
C3071 C 0.95661 0.24399 0.60303 0.0
C3072 C 0.95132 0.13537 0.60658 0.0
C3073 C 0.95888 0.11233 0.61317 0.0
C3074 C 0.94159 0.12298 0.60868 0.0
C3075 C 0.9333 0.14715 0.60261 0.0
C3076 C 0.93166 0.18562 0.60897 0.0
C3077 C 0.92395 0.20855 0.60293 0.0
C3078 C 0.91777 0.19315 0.59065 0.0
C3079 C 0.91927 0.15472 0.58444 0.0
C3080 C 0.92699 0.13171 0.59041 0.0
C3081 C 0.94582 0.99013 0.65973 0.0
C3082 C 0.94003 0.96024 0.65252 0.0
C3083 C 0.94801 0.02461 0.6507 0.0
C3084 C 0.94455 0.02949 0.63427 0.0
C3085 C 0.93848 0.00041 0.62732 0.0
C3086 C 0.93622 0.96618 0.63635 0.0
C3087 C 0.94717 0.06498 0.62428 0.0
C3088 C 0.93964 0.08779 0.61738 0.0
C3089 C 0.95694 0.07689 0.62185 0.0
C3090 C 0.96523 0.05252 0.62783 0.0
C3091 C 0.96609 0.01232 0.62311 0.0
C3092 C 0.97389 0.98945 0.62885 0.0
C3093 C 0.98092 0.00652 0.63923 0.0
C3094 C 0.98017 0.04653 0.64386 0.0
C3095 C 0.97238 0.06952 0.63817 0.0
H3096 H 0.98695 0.98876 0.64366 0.0
H3097 H 0.9118 0.21096 0.58599 0.0
H3098 H 0.78984 0.49639 0.57645 0.0
H3099 H 0.78585 0.5604 0.58965 0.0
H3100 H 0.81356 0.55959 0.61492 0.0
H3101 H 0.81738 0.49543 0.60232 0.0
H3102 H 0.79969 0.57501 0.63643 0.0
H3103 H 0.80824 0.62007 0.57988 0.0
H3104 H 0.80615 0.62245 0.54918 0.0
H3105 H 0.77671 0.66189 0.55547 0.0
H3106 H 0.7786 0.65931 0.58622 0.0
H3107 H 0.8105 0.79616 0.6349 0.0
H3108 H 0.80779 0.73268 0.62114 0.0
H3109 H 0.78601 0.70264 0.65795 0.0
H3110 H 0.78883 0.76642 0.67215 0.0
H3111 H 0.79238 0.70053 0.60626 0.0
H3112 H 0.78711 0.60069 0.66323 0.0
H3113 H 0.79065 0.59902 0.69356 0.0
H3114 H 0.81609 0.6705 0.68563 0.0
H3115 H 0.81275 0.67221 0.65526 0.0
C3116 C 0.79512 0.51039 0.58458 0.0
C3117 C 0.8039 0.49112 0.58843 0.0
C3118 C 0.79283 0.54677 0.59216 0.0
C3119 C 0.79938 0.56455 0.60337 0.0
C3120 C 0.80834 0.5461 0.60652 0.0
C3121 C 0.81055 0.50964 0.59921 0.0
C3122 C 0.79702 0.60189 0.61231 0.0
C3123 C 0.79799 0.6024 0.62984 0.0
C3124 C 0.79463 0.63743 0.60377 0.0
C3125 C 0.79352 0.63903 0.58532 0.0
C3126 C 0.8013 0.62896 0.5747 0.0
C3127 C 0.80016 0.6304 0.5573 0.0
C3128 C 0.79129 0.64218 0.55038 0.0
C3129 C 0.78356 0.65268 0.56085 0.0
C3130 C 0.78467 0.65125 0.57826 0.0
C3131 C 0.80513 0.77615 0.64013 0.0
C3132 C 0.79991 0.78623 0.65467 0.0
C3133 C 0.80353 0.73997 0.63215 0.0
C3134 C 0.79667 0.71307 0.63847 0.0
C3135 C 0.79137 0.72299 0.65293 0.0
C3136 C 0.79302 0.75928 0.66105 0.0
C3137 C 0.79563 0.67393 0.63021 0.0
C3138 C 0.79385 0.67296 0.61288 0.0
C3139 C 0.79747 0.63803 0.63886 0.0
C3140 C 0.79961 0.637 0.65705 0.0
C3141 C 0.79346 0.616 0.66799 0.0
C3142 C 0.79543 0.61504 0.68517 0.0
C3143 C 0.80357 0.63478 0.69153 0.0
C3144 C 0.80977 0.65537 0.68071 0.0
C3145 C 0.80784 0.65637 0.66351 0.0
H3146 H 0.80508 0.63403 0.70484 0.0
H3147 H 0.79042 0.64328 0.5369 0.0
H3148 H 0.94927 0.51016 0.18061 0.0
H3149 H 0.95146 0.57995 0.17241 0.0
H3150 H 0.95597 0.54371 0.1211 0.0
H3151 H 0.95379 0.47428 0.12912 0.0
H3152 H 0.96787 0.60785 0.13097 0.0
H3153 H 0.93394 0.5655 0.13284 0.0
H3154 H 0.91955 0.5379 0.14716 0.0
H3155 H 0.92091 0.63139 0.18381 0.0
H3156 H 0.9354 0.65921 0.16981 0.0
H3157 H 0.95096 0.75848 0.07677 0.0
H3158 H 0.95445 0.69756 0.0924 0.0
H3159 H 0.94522 0.75462 0.13821 0.0
H3160 H 0.94149 0.81513 0.12267 0.0
H3161 H 0.93721 0.68477 0.13564 0.0
H3162 H 0.96939 0.73458 0.13062 0.0
H3163 H 0.98382 0.7621 0.11645 0.0
H3164 H 0.98614 0.65643 0.08641 0.0
H3165 H 0.97164 0.62848 0.10023 0.0
C3166 C 0.95092 0.51708 0.16766 0.0
C3167 C 0.95119 0.48696 0.15544 0.0
C3168 C 0.95218 0.55684 0.16302 0.0
C3169 C 0.95378 0.56676 0.14615 0.0
C3170 C 0.95474 0.53652 0.13418 0.0
C3171 C 0.95341 0.49694 0.13876 0.0
C3172 C 0.95323 0.60839 0.14044 0.0
C3173 C 0.9612 0.62487 0.13198 0.0
C3174 C 0.94457 0.6306 0.14212 0.0
C3175 C 0.93581 0.61413 0.15041 0.0
C3176 C 0.93121 0.57998 0.14402 0.0
C3177 C 0.92303 0.56433 0.15207 0.0
C3178 C 0.91934 0.58281 0.16642 0.0
C3179 C 0.9238 0.61706 0.17272 0.0
C3180 C 0.93199 0.63278 0.16473 0.0
C3181 C 0.94971 0.75807 0.09017 0.0
C3182 C 0.9459 0.79153 0.09846 0.0
C3183 C 0.95178 0.72338 0.09912 0.0
C3184 C 0.95022 0.7218 0.11651 0.0
C3185 C 0.9465 0.75527 0.12481 0.0
C3186 C 0.94435 0.78979 0.11588 0.0
C3187 C 0.95182 0.68437 0.12584 0.0
C3188 C 0.94401 0.66847 0.13494 0.0
C3189 C 0.96064 0.66288 0.12477 0.0
C3190 C 0.96938 0.67955 0.1164 0.0
C3191 C 0.97293 0.71732 0.12091 0.0
C3192 C 0.98113 0.73298 0.11295 0.0
C3193 C 0.98588 0.71106 0.10051 0.0
C3194 C 0.98245 0.67339 0.09604 0.0
C3195 C 0.97425 0.6576 0.10395 0.0
H3196 H 0.99223 0.72323 0.09437 0.0
H3197 H 0.91302 0.57067 0.17264 0.0
H3198 H 0.79749 0.28587 0.12718 0.0
H3199 H 0.79778 0.21809 0.11626 0.0
H3200 H 0.80358 0.17288 0.16584 0.0
H3201 H 0.80313 0.24112 0.17706 0.0
H3202 H 0.81661 0.14659 0.13808 0.0
H3203 H 0.78281 0.1553 0.1531 0.0
H3204 H 0.76661 0.18647 0.15368 0.0
H3205 H 0.76514 0.18057 0.09997 0.0
H3206 H 0.78141 0.14989 0.09905 0.0
H3207 H 0.81174 0.94398 0.11716 0.0
H3208 H 0.81056 0.00933 0.13009 0.0
H3209 H 0.79789 0.05659 0.08481 0.0
H3210 H 0.79879 0.99061 0.07183 0.0
H3211 H 0.78817 0.08146 0.11153 0.0
H3212 H 0.82145 0.076 0.0953 0.0
H3213 H 0.83782 0.04678 0.09306 0.0
H3214 H 0.84077 0.05008 0.14662 0.0
H3215 H 0.82433 0.07866 0.14921 0.0
C3216 C 0.79879 0.26153 0.13581 0.0
C3217 C 0.80033 0.26867 0.15296 0.0
C3218 C 0.79891 0.2229 0.12955 0.0
C3219 C 0.80067 0.19077 0.14028 0.0
C3220 C 0.80219 0.19755 0.15744 0.0
C3221 C 0.8019 0.23634 0.1638 0.0
C3222 C 0.80127 0.15034 0.13324 0.0
C3223 C 0.81038 0.13184 0.13256 0.0
C3224 C 0.79318 0.13227 0.12548 0.0
C3225 C 0.78337 0.15062 0.126 0.0
C3226 C 0.77908 0.16098 0.1414 0.0
C3227 C 0.76987 0.17849 0.14179 0.0
C3228 C 0.76486 0.18558 0.12687 0.0
C3229 C 0.76903 0.17509 0.11152 0.0
C3230 C 0.77824 0.1576 0.11106 0.0
C3231 C 0.80876 0.96825 0.10985 0.0
C3232 C 0.80539 0.96214 0.09342 0.0
C3233 C 0.80812 0.00565 0.11728 0.0
C3234 C 0.80425 0.03787 0.10834 0.0
C3235 C 0.80091 0.03203 0.0919 0.0
C3236 C 0.80147 0.99441 0.08449 0.0
C3237 C 0.80353 0.07741 0.11636 0.0
C3238 C 0.79441 0.09592 0.11715 0.0
C3239 C 0.81166 0.09583 0.12396 0.0
C3240 C 0.82161 0.07913 0.12245 0.0
C3241 C 0.82556 0.07023 0.10661 0.0
C3242 C 0.83485 0.05381 0.10528 0.0
C3243 C 0.84032 0.04649 0.11969 0.0
C3244 C 0.83651 0.05571 0.13547 0.0
C3245 C 0.82721 0.07204 0.13687 0.0
H3246 H 0.84752 0.03376 0.11863 0.0
H3247 H 0.75773 0.19913 0.1272 0.0
H3248 H 0.54388 0.69544 0.87558 0.0
H3249 H 0.54211 0.76338 0.86545 0.0
H3250 H 0.5435 0.80735 0.9162 0.0
H3251 H 0.54519 0.73894 0.92658 0.0
H3252 H 0.52989 0.84796 0.89606 0.0
H3253 H 0.56339 0.81012 0.89441 0.0
H3254 H 0.5773 0.76665 0.88776 0.0
H3255 H 0.57094 0.77651 0.83524 0.0
H3256 H 0.5569 0.81964 0.8416 0.0
H3257 H 0.54514 0.0446 0.87312 0.0
H3258 H 0.54376 0.97826 0.88546 0.0
H3259 H 0.54203 0.92666 0.83604 0.0
H3260 H 0.54338 0.99291 0.82353 0.0
H3261 H 0.5558 0.891 0.85673 0.0
H3262 H 0.52227 0.93032 0.85884 0.0
H3263 H 0.50855 0.97429 0.86599 0.0
H3264 H 0.5153 0.96302 0.91831 0.0
H3265 H 0.52916 0.91941 0.91145 0.0
C3266 C 0.54371 0.71943 0.88465 0.0
C3267 C 0.54483 0.71189 0.90188 0.0
C3268 C 0.54269 0.75822 0.87882 0.0
C3269 C 0.54286 0.79025 0.89007 0.0
C3270 C 0.54341 0.78288 0.90735 0.0
C3271 C 0.5444 0.74387 0.91324 0.0
C3272 C 0.54314 0.83131 0.88353 0.0
C3273 C 0.53561 0.85767 0.88765 0.0
C3274 C 0.55056 0.84354 0.87239 0.0
C3275 C 0.55904 0.81782 0.86849 0.0
C3276 C 0.56491 0.80277 0.88145 0.0
C3277 C 0.57283 0.77824 0.87773 0.0
C3278 C 0.57499 0.76874 0.86109 0.0
C3279 C 0.56925 0.78386 0.84812 0.0
C3280 C 0.56132 0.80839 0.85178 0.0
C3281 C 0.54442 0.01918 0.86486 0.0
C3282 C 0.5444 0.02396 0.84733 0.0
C3283 C 0.54358 0.98137 0.87194 0.0
C3284 C 0.54274 0.94777 0.86163 0.0
C3285 C 0.54265 0.95239 0.84416 0.0
C3286 C 0.54341 0.99021 0.83706 0.0
C3287 C 0.54248 0.90758 0.86905 0.0
C3288 C 0.55007 0.88138 0.86514 0.0
C3289 C 0.53516 0.89575 0.88046 0.0
C3290 C 0.52682 0.92194 0.88461 0.0
C3291 C 0.52089 0.93751 0.87186 0.0
C3292 C 0.51307 0.96231 0.87586 0.0
C3293 C 0.51107 0.97154 0.89259 0.0
C3294 C 0.51687 0.9559 0.90535 0.0
C3295 C 0.5247 0.93111 0.90142 0.0
H3296 H 0.50501 0.99073 0.89566 0.0
H3297 H 0.58112 0.74974 0.85823 0.0
H3298 H 0.70324 0.49183 0.92683 0.0
H3299 H 0.70596 0.42701 0.91352 0.0
H3300 H 0.71222 0.4855 0.86656 0.0
H3301 H 0.70937 0.54995 0.87962 0.0
H3302 H 0.69822 0.43284 0.86305 0.0
H3303 H 0.72981 0.4338 0.8869 0.0
H3304 H 0.74215 0.44104 0.90904 0.0
H3305 H 0.72949 0.34353 0.93614 0.0
H3306 H 0.71698 0.33605 0.91428 0.0
H3307 H 0.70258 0.24344 0.82362 0.0
H3308 H 0.70766 0.30923 0.83362 0.0
H3309 H 0.70048 0.2753 0.8843 0.0
H3310 H 0.69549 0.20987 0.87457 0.0
H3311 H 0.71757 0.31741 0.88271 0.0
H3312 H 0.68449 0.32615 0.86166 0.0
H3313 H 0.67183 0.31939 0.84 0.0
H3314 H 0.68741 0.39999 0.80801 0.0
H3315 H 0.70023 0.40679 0.82942 0.0
C3316 C 0.70538 0.4908 0.91377 0.0
C3317 C 0.70592 0.52577 0.90418 0.0
C3318 C 0.70699 0.45384 0.9062 0.0
C3319 C 0.70928 0.45158 0.88905 0.0
C3320 C 0.71041 0.48666 0.87978 0.0
C3321 C 0.70874 0.52341 0.88726 0.0
C3322 C 0.70925 0.41287 0.8803 0.0
C3323 C 0.70264 0.40788 0.86709 0.0
C3324 C 0.71489 0.38023 0.88578 0.0
C3325 C 0.72241 0.38455 0.89898 0.0
C3326 C 0.7296 0.41409 0.89764 0.0
C3327 C 0.73664 0.41821 0.91013 0.0
C3328 C 0.7366 0.39281 0.924 0.0
C3329 C 0.72952 0.36319 0.92539 0.0
C3330 C 0.72246 0.35897 0.91294 0.0
C3331 C 0.70213 0.24999 0.8369 0.0
C3332 C 0.69853 0.22163 0.84827 0.0
C3333 C 0.70506 0.28744 0.84258 0.0
C3334 C 0.70442 0.29695 0.85968 0.0
C3335 C 0.70109 0.26836 0.87107 0.0
C3336 C 0.69814 0.23111 0.86544 0.0
C3337 C 0.70644 0.33754 0.86574 0.0
C3338 C 0.71337 0.34279 0.87846 0.0
C3339 C 0.70109 0.37055 0.85986 0.0
C3340 C 0.69337 0.36657 0.84702 0.0
C3341 C 0.68525 0.34216 0.84994 0.0
C3342 C 0.67804 0.33837 0.83773 0.0
C3343 C 0.67883 0.35913 0.82261 0.0
C3344 C 0.68682 0.38384 0.8197 0.0
C3345 C 0.69406 0.38768 0.83187 0.0
H3346 H 0.67324 0.35617 0.81317 0.0
H3347 H 0.74205 0.39604 0.93366 0.0
H3348 H 0.54092 0.54034 0.36389 0.0
H3349 H 0.53961 0.47597 0.37799 0.0
H3350 H 0.55489 0.42019 0.33691 0.0
H3351 H 0.55559 0.48444 0.32226 0.0
H3352 H 0.54203 0.37101 0.34859 0.0
H3353 H 0.56657 0.45473 0.37408 0.0
H3354 H 0.57259 0.51563 0.38788 0.0
H3355 H 0.55246 0.49822 0.42837 0.0
H3356 H 0.54624 0.43745 0.4147 0.0
H3357 H 0.56669 0.21418 0.3873 0.0
H3358 H 0.56274 0.27788 0.37452 0.0
H3359 H 0.54365 0.30553 0.4158 0.0
H3360 H 0.54752 0.24128 0.42881 0.0
H3361 H 0.55612 0.36855 0.40584 0.0
H3362 H 0.53343 0.27807 0.38129 0.0
H3363 H 0.52827 0.21622 0.36725 0.0
H3364 H 0.54597 0.24517 0.32462 0.0
H3365 H 0.55135 0.30693 0.33852 0.0
C3366 C 0.54384 0.51408 0.35779 0.0
C3367 C 0.54845 0.51697 0.34217 0.0
C3368 C 0.54314 0.47746 0.36587 0.0
C3369 C 0.54743 0.44353 0.35875 0.0
C3370 C 0.55159 0.44607 0.34268 0.0
C3371 C 0.55202 0.48262 0.33434 0.0
C3372 C 0.54818 0.40618 0.36851 0.0
C3373 C 0.54517 0.37045 0.36105 0.0
C3374 C 0.55205 0.40557 0.38498 0.0
C3375 C 0.55588 0.44181 0.39329 0.0
C3376 C 0.5634 0.46402 0.38589 0.0
C3377 C 0.56685 0.4985 0.39368 0.0
C3378 C 0.5629 0.51085 0.40897 0.0
C3379 C 0.55551 0.48866 0.41651 0.0
C3380 C 0.55202 0.45419 0.40876 0.0
C3381 C 0.5617 0.2338 0.39379 0.0
C3382 C 0.55737 0.22252 0.40905 0.0
C3383 C 0.55941 0.27009 0.38639 0.0
C3384 C 0.55277 0.29585 0.39408 0.0
C3385 C 0.54873 0.28567 0.40964 0.0
C3386 C 0.55097 0.24909 0.41705 0.0
C3387 C 0.55019 0.33352 0.38574 0.0
C3388 C 0.55285 0.36926 0.39347 0.0
C3389 C 0.54612 0.33405 0.36947 0.0
C3390 C 0.54284 0.29703 0.36101 0.0
C3391 C 0.53628 0.27112 0.36898 0.0
C3392 C 0.53331 0.23609 0.36103 0.0
C3393 C 0.5368 0.22673 0.34506 0.0
C3394 C 0.54327 0.25244 0.33699 0.0
C3395 C 0.54627 0.2875 0.34489 0.0
H3396 H 0.53449 0.1996 0.33893 0.0
H3397 H 0.56557 0.53756 0.41498 0.0
H3398 H 0.68624 0.01614 0.39105 0.0
H3399 H 0.68861 0.952 0.37772 0.0
H3400 H 0.71012 0.92103 0.4148 0.0
H3401 H 0.70768 0.98573 0.42854 0.0
H3402 H 0.70415 0.91866 0.36322 0.0
H3403 H 0.70794 0.81839 0.42045 0.0
H3404 H 0.70402 0.8175 0.45066 0.0
H3405 H 0.67932 0.89263 0.44182 0.0
H3406 H 0.68303 0.89357 0.41155 0.0
H3407 H 0.70533 0.71678 0.3323 0.0
H3408 H 0.70989 0.77795 0.34708 0.0
H3409 H 0.68173 0.78089 0.37085 0.0
H3410 H 0.67724 0.71956 0.35657 0.0
H3411 H 0.69548 0.7943 0.39322 0.0
H3412 H 0.68776 0.84087 0.33671 0.0
H3413 H 0.68997 0.84306 0.30603 0.0
H3414 H 0.71974 0.87776 0.31255 0.0
H3415 H 0.71772 0.87533 0.34329 0.0
C3416 C 0.69149 -0.00415 0.39644 0.0
C3417 C 0.69676 0.00603 0.4109 0.0
C3418 C 0.69289 0.95925 0.38871 0.0
C3419 C 0.69957 0.93192 0.39521 0.0
C3420 C 0.7049 0.94179 0.40962 0.0
C3421 C 0.70348 0.97862 0.41747 0.0
C3422 C 0.70045 0.89259 0.38708 0.0
C3423 C 0.70241 0.8913 0.36982 0.0
C3424 C 0.69821 0.85702 0.3957 0.0
C3425 C 0.69585 0.85648 0.41382 0.0
C3426 C 0.70167 0.83468 0.42498 0.0
C3427 C 0.69948 0.83415 0.4421 0.0
C3428 C 0.69145 0.85514 0.44816 0.0
C3429 C 0.68556 0.87654 0.43711 0.0
C3430 C 0.68771 0.87711 0.41998 0.0
C3431 C 0.70009 0.73078 0.34054 0.0
C3432 C 0.69093 0.71346 0.34329 0.0
C3433 C 0.70272 0.76557 0.34902 0.0
C3434 C 0.69616 0.7838 0.36011 0.0
C3435 C 0.68695 0.767 0.36251 0.0
C3436 C 0.68436 0.73213 0.35424 0.0
C3437 C 0.69869 0.82071 0.3692 0.0
C3438 C 0.6975 0.8214 0.38668 0.0
C3439 C 0.70143 0.85591 0.36071 0.0
C3440 C 0.70263 0.85743 0.34226 0.0
C3441 C 0.69479 0.84867 0.33159 0.0
C3442 C 0.69601 0.85001 0.3142 0.0
C3443 C 0.705 0.8604 0.30734 0.0
C3444 C 0.71279 0.86961 0.31787 0.0
C3445 C 0.71161 0.86828 0.33528 0.0
H3446 H 0.70593 0.86142 0.29388 0.0
H3447 H 0.68977 0.85472 0.46142 0.0
H3448 H 0.44004 0.29731 0.12213 0.0
H3449 H 0.44343 0.2321 0.13412 0.0
H3450 H 0.45499 0.19243 0.08669 0.0
H3451 H 0.45158 0.25786 0.07447 0.0
H3452 H 0.44157 0.14114 0.10014 0.0
H3453 H 0.47024 0.20817 0.11835 0.0
H3454 H 0.4797 0.26227 0.13135 0.0
H3455 H 0.46556 0.24087 0.17849 0.0
H3456 H 0.45591 0.187 0.16572 0.0
H3457 H 0.45268 0.95462 0.1336 0.0
H3458 H 0.45538 0.01949 0.12064 0.0
H3459 H 0.44674 0.07741 0.16663 0.0
H3460 H 0.44454 0.01219 0.17995 0.0
H3461 H 0.4606 0.11864 0.15208 0.0
H3462 H 0.43047 0.05963 0.13356 0.0
H3463 H 0.42026 0.00715 0.12103 0.0
H3464 H 0.43632 0.01568 0.07501 0.0
H3465 H 0.44671 0.06788 0.08735 0.0
C3466 C 0.44333 0.27483 0.11422 0.0
C3467 C 0.4455 0.2827 0.09731 0.0
C3468 C 0.44535 0.2377 0.12115 0.0
C3469 C 0.44958 0.20775 0.11133 0.0
C3470 C 0.45178 0.21539 0.09447 0.0
C3471 C 0.44982 0.25269 0.08752 0.0
C3472 C 0.45102 0.16766 0.11848 0.0
C3473 C 0.4459 0.13597 0.11128 0.0
C3474 C 0.45646 0.16142 0.13327 0.0
C3475 C 0.4623 0.19369 0.14103 0.0
C3476 C 0.46909 0.21518 0.13146 0.0
C3477 C 0.4745 0.24578 0.13879 0.0
C3478 C 0.47322 0.25504 0.15573 0.0
C3479 C 0.46654 0.23366 0.16537 0.0
C3480 C 0.46111 0.20306 0.15809 0.0
C3481 C 0.45148 0.98125 0.14099 0.0
C3482 C 0.44826 0.97866 0.15766 0.0
C3483 C 0.453 0.01823 0.13358 0.0
C3484 C 0.45099 0.05325 0.14252 0.0
C3485 C 0.44827 0.05072 0.15947 0.0
C3486 C 0.44699 0.01358 0.16705 0.0
C3487 C 0.45104 0.09221 0.13386 0.0
C3488 C 0.45639 0.12368 0.14079 0.0
C3489 C 0.44571 0.09848 0.1189 0.0
C3490 C 0.43942 0.06733 0.11143 0.0
C3491 C 0.43185 0.05013 0.1208 0.0
C3492 C 0.42604 0.02046 0.11373 0.0
C3493 C 0.42766 0.00801 0.09725 0.0
C3494 C 0.43509 0.0253 0.08778 0.0
C3495 C 0.44094 0.05494 0.0948 0.0
H3496 H 0.42315 0.98503 0.0918 0.0
H3497 H 0.47741 0.27875 0.16138 0.0
H3498 H 0.28504 0.76731 0.16846 0.0
H3499 H 0.28001 0.70818 0.15237 0.0
H3500 H 0.30946 0.6934 0.13485 0.0
H3501 H 0.31441 0.75211 0.15047 0.0
H3502 H 0.29663 0.69568 0.10918 0.0
H3503 H 0.2996 0.63255 0.16443 0.0
H3504 H 0.29502 0.62337 0.19408 0.0
H3505 H 0.26556 0.59979 0.17955 0.0
H3506 H 0.26996 0.6093 0.1498 0.0
H3507 H 0.31292 0.49995 0.09816 0.0
H3508 H 0.30796 0.56313 0.1107 0.0
H3509 H 0.27931 0.54972 0.08971 0.0
H3510 H 0.28432 0.48658 0.07663 0.0
H3511 H 0.28493 0.56622 0.13121 0.0
H3512 H 0.28381 0.61646 0.07445 0.0
H3513 H 0.28986 0.62205 0.04543 0.0
H3514 H 0.31698 0.66809 0.06355 0.0
H3515 H 0.31113 0.66218 0.09269 0.0
C3516 C 0.29044 0.75075 0.16145 0.0
C3517 C 0.30008 0.76427 0.16053 0.0
C3518 C 0.28756 0.71727 0.15221 0.0
C3519 C 0.29435 0.69699 0.14221 0.0
C3520 C 0.30408 0.70913 0.14224 0.0
C3521 C 0.30691 0.7425 0.15125 0.0
C3522 C 0.29152 0.66401 0.13099 0.0
C3523 C 0.29392 0.66753 0.11394 0.0
C3524 C 0.28769 0.62779 0.1371 0.0
C3525 C 0.28507 0.62221 0.15495 0.0
C3526 C 0.29213 0.62578 0.16758 0.0
C3527 C 0.28957 0.62043 0.18439 0.0
C3528 C 0.28 0.61116 0.1887 0.0
C3529 C 0.27297 0.60709 0.1762 0.0
C3530 C 0.27549 0.61245 0.15937 0.0
C3531 C 0.30561 0.51072 0.096 0.0
C3532 C 0.29901 0.48859 0.08641 0.0
C3533 C 0.30279 0.54662 0.10319 0.0
C3534 C 0.29328 0.56063 0.10114 0.0
C3535 C 0.28668 0.53912 0.09136 0.0
C3536 C 0.28957 0.5034 0.08383 0.0
C3537 C 0.2905 0.59763 0.10971 0.0
C3538 C 0.28713 0.59495 0.12627 0.0
C3539 C 0.29352 0.63463 0.10324 0.0
C3540 C 0.29705 0.63864 0.08574 0.0
C3541 C 0.29109 0.62745 0.07224 0.0
C3542 C 0.29448 0.63075 0.05578 0.0
C3543 C 0.3038 0.64536 0.05265 0.0
C3544 C 0.30975 0.65678 0.06599 0.0
C3545 C 0.3064 0.65352 0.08248 0.0
H3546 H 0.30642 0.64788 0.03989 0.0
H3547 H 0.27803 0.60701 0.20173 0.0
H3548 H 0.46119 0.47875 0.63885 0.0
H3549 H 0.46351 0.54848 0.63167 0.0
H3550 H 0.45136 0.58332 0.67936 0.0
H3551 H 0.44902 0.51295 0.68668 0.0
H3552 H 0.44119 0.61117 0.65256 0.0
H3553 H 0.47414 0.61153 0.66978 0.0
H3554 H 0.4909 0.58654 0.67225 0.0
H3555 H 0.49462 0.59613 0.61896 0.0
H3556 H 0.47782 0.62062 0.61611 0.0
H3557 H 0.44086 0.80825 0.62317 0.0
H3558 H 0.44468 0.7501 0.64004 0.0
H3559 H 0.45815 0.69422 0.59723 0.0
H3560 H 0.45453 0.7531 0.58016 0.0
H3561 H 0.46869 0.68294 0.62606 0.0
H3562 H 0.43552 0.66914 0.60817 0.0
H3563 H 0.41851 0.69015 0.60434 0.0
H3564 H 0.4151 0.70119 0.65765 0.0
H3565 H 0.43214 0.68075 0.66178 0.0
C3566 C 0.45927 0.50124 0.64801 0.0
C3567 C 0.45478 0.4907 0.66319 0.0
C3568 C 0.46069 0.54107 0.64397 0.0
C3569 C 0.45761 0.571 0.655 0.0
C3570 C 0.45382 0.56051 0.67074 0.0
C3571 C 0.45249 0.52044 0.6749 0.0
C3572 C 0.45667 0.61202 0.64861 0.0
C3573 C 0.44725 0.62749 0.64723 0.0
C3574 C 0.46454 0.63234 0.6411 0.0
C3575 C 0.47468 0.61779 0.64273 0.0
C3576 C 0.4785 0.60806 0.65856 0.0
C3577 C 0.48802 0.59402 0.66004 0.0
C3578 C 0.49382 0.58971 0.64577 0.0
C3579 C 0.49012 0.5995 0.63 0.0
C3580 C 0.4806 0.61355 0.62846 0.0
C3581 C 0.44462 0.78365 0.61726 0.0
C3582 C 0.4473 0.78511 0.60024 0.0
C3583 C 0.44682 0.75047 0.62697 0.0
C3584 C 0.45161 0.71782 0.61983 0.0
C3585 C 0.45445 0.71927 0.60294 0.0
C3586 C 0.45232 0.75272 0.59319 0.0
C3587 C 0.45321 0.6815 0.62986 0.0
C3588 C 0.4627 0.66699 0.63179 0.0
C3589 C 0.44539 0.66157 0.63772 0.0
C3590 C 0.43514 0.67391 0.63527 0.0
C3591 C 0.43117 0.6764 0.61906 0.0
C3592 C 0.42152 0.68813 0.61684 0.0
C3593 C 0.41574 0.69713 0.63074 0.0
C3594 C 0.41959 0.6943 0.64689 0.0
C3595 C 0.42924 0.68262 0.64918 0.0
H3596 H 0.40826 0.70619 0.62899 0.0
H3597 H 0.50118 0.57883 0.64694 0.0
H3598 H 0.30989 0.9578 0.61876 0.0
H3599 H 0.3059 0.02182 0.6314 0.0
H3600 H 0.29169 0.05835 0.58576 0.0
H3601 H 0.29569 0.99426 0.57288 0.0
H3602 H 0.30384 0.11551 0.59864 0.0
H3603 H 0.27818 0.03125 0.61842 0.0
H3604 H 0.27116 0.97156 0.63171 0.0
H3605 H 0.28579 -0.00043 0.67773 0.0
H3606 H 0.29302 0.05915 0.66464 0.0
H3607 H 0.28523 0.29068 0.63201 0.0
H3608 H 0.28481 0.22385 0.62005 0.0
H3609 H 0.29785 0.17676 0.66505 0.0
H3610 H 0.29797 0.24361 0.67736 0.0
H3611 H 0.28513 0.12451 0.65175 0.0
H3612 H 0.31195 0.2037 0.6319 0.0
H3613 H 0.31961 0.2627 0.6191 0.0
H3614 H 0.30355 0.24303 0.57373 0.0
H3615 H 0.2957 0.18417 0.58636 0.0
C3616 C 0.30595 0.97945 0.61134 0.0
C3617 C 0.30308 0.97091 0.59481 0.0
C3618 C 0.30362 0.01588 0.61865 0.0
C3619 C 0.29836 0.04437 0.60959 0.0
C3620 C 0.2957 0.03648 0.59296 0.0
C3621 C 0.298 -7e-05 0.58563 0.0
C3622 C 0.2959 0.08287 0.6174 0.0
C3623 C 0.2996 0.11759 0.61008 0.0
C3624 C 0.29058 0.08523 0.63256 0.0
C3625 C 0.28621 0.0495 0.64049 0.0
C3626 C 0.27997 0.02452 0.63133 0.0
C3627 C 0.27594 0.99073 0.63884 0.0
C3628 C 0.27805 0.98173 0.65555 0.0
C3629 C 0.28417 0.00656 0.66479 0.0
C3630 C 0.28823 0.04037 0.65733 0.0
C3631 C 0.28783 0.26594 0.63948 0.0
C3632 C 0.29178 0.27224 0.65549 0.0
C3633 C 0.2876 0.22785 0.63263 0.0
C3634 C 0.29154 0.19566 0.6415 0.0
C3635 C 0.29483 0.20135 0.65798 0.0
C3636 C 0.2949 0.23947 0.66498 0.0
C3637 C 0.29309 0.15711 0.633 0.0
C3638 C 0.28928 0.12243 0.64021 0.0
C3639 C 0.29839 0.15463 0.6178 0.0
C3640 C 0.30317 0.1898 0.61013 0.0
C3641 C 0.31001 0.21212 0.61924 0.0
C3642 C 0.31439 0.24551 0.61201 0.0
C3643 C 0.31205 0.25667 0.59563 0.0
C3644 C 0.30534 0.23438 0.58643 0.0
C3645 C 0.30093 0.20099 0.59361 0.0
H3646 H 0.31544 0.28254 0.59005 0.0
H3647 H 0.27492 0.95555 0.66134 0.0
loop_
_geom_bond_atom_site_label_1
_geom_bond_atom_site_label_2
_geom_bond_distance
_geom_bond_site_symmetry_2
_ccdc_geom_bond_type
C0 O1 1.306 . S
C0 O3 1.160 . S
O1 C0 1.306 . S
O1 Cd2 2.228 . S
Cd2 O1 2.228 . S
Cd2 O6 2.273 . S
Cd2 O10 2.277 . S
O3 C0 1.160 . S
O3 Cd4 2.203 . S
Cd4 O3 2.203 . S
Cd4 O6 2.411 . S
Cd4 O7 2.333 . S
Cd4 O8 2.352 . S
Cd4 O12 2.277 . S
Cd4 O13 2.356 . S
C5 O10 1.209 . S
C5 O12 1.226 . S
O6 Cd2 2.273 . S
O6 Cd4 2.411 . S
O6 C9 1.320 . S
O7 Cd4 2.333 . S
O7 C9 1.214 . S
O8 Cd4 2.352 . S
O8 C11 1.258 . S
C9 O6 1.320 . S
C9 O7 1.214 . S
O10 Cd2 2.277 . S
O10 C5 1.209 . S
C11 O8 1.258 . S
C11 O13 1.282 . S
O12 Cd4 2.277 . S
O12 C5 1.226 . S
O13 Cd4 2.356 . S
O13 C11 1.282 . S
C14 O15 1.306 . S
C14 O17 1.160 . S
O15 C14 1.306 . S
O15 Cd16 2.228 . S
Cd16 O15 2.228 . S
Cd16 O20 2.273 . S
Cd16 O24 2.277 . S
O17 C14 1.160 . S
O17 Cd18 2.203 . S
Cd18 O17 2.203 . S
Cd18 O20 2.411 . S
Cd18 O21 2.333 . S
Cd18 O22 2.352 . S
Cd18 O26 2.277 . S
Cd18 O27 2.356 . S
C19 O24 1.209 . S
C19 O26 1.226 . S
O20 Cd16 2.273 . S
O20 Cd18 2.411 . S
O20 C23 1.320 . S
O21 Cd18 2.333 . S
O21 C23 1.214 . S
O22 Cd18 2.352 . S
O22 C25 1.258 . S
C23 O20 1.320 . S
C23 O21 1.214 . S
O24 Cd16 2.277 . S
O24 C19 1.209 . S
C25 O22 1.258 . S
C25 O27 1.282 . S
O26 Cd18 2.277 . S
O26 C19 1.226 . S
O27 Cd18 2.356 . S
O27 C25 1.282 . S
C28 O29 1.306 . S
C28 O31 1.160 . S
O29 C28 1.306 . S
O29 Cd30 2.228 . S
Cd30 O29 2.228 . S
Cd30 O34 2.273 . S
Cd30 O38 2.277 . S
O31 C28 1.160 . S
O31 Cd32 2.203 . S
Cd32 O31 2.203 . S
Cd32 O34 2.411 . S
Cd32 O35 2.333 . S
Cd32 O36 2.352 . S
Cd32 O40 2.277 . S
Cd32 O41 2.356 . S
C33 O38 1.209 . S
C33 O40 1.226 . S
O34 Cd30 2.273 . S
O34 Cd32 2.411 . S
O34 C37 1.320 . S
O35 Cd32 2.333 . S
O35 C37 1.214 . S
O36 Cd32 2.352 . S
O36 C39 1.258 . S
C37 O34 1.320 . S
C37 O35 1.214 . S
O38 Cd30 2.277 . S
O38 C33 1.209 . S
C39 O36 1.258 . S
C39 O41 1.282 . S
O40 Cd32 2.277 . S
O40 C33 1.226 . S
O41 Cd32 2.356 . S
O41 C39 1.282 . S
C42 O43 1.306 . S
C42 O45 1.160 . S
O43 C42 1.306 . S
O43 Cd44 2.228 . S
Cd44 O43 2.228 . S
Cd44 O48 2.273 . S
Cd44 O52 2.277 . S
O45 C42 1.160 . S
O45 Cd46 2.203 . S
Cd46 O45 2.203 . S
Cd46 O48 2.411 . S
Cd46 O49 2.333 . S
Cd46 O50 2.352 . S
Cd46 O54 2.277 . S
Cd46 O55 2.356 . S
C47 O52 1.209 . S
C47 O54 1.226 . S
O48 Cd44 2.273 . S
O48 Cd46 2.411 . S
O48 C51 1.320 . S
O49 Cd46 2.333 . S
O49 C51 1.214 . S
O50 Cd46 2.352 . S
O50 C53 1.258 . S
C51 O48 1.320 . S
C51 O49 1.214 . S
O52 Cd44 2.277 . S
O52 C47 1.209 . S
C53 O50 1.258 . S
C53 O55 1.282 . S
O54 Cd46 2.277 . S
O54 C47 1.226 . S
O55 Cd46 2.356 . S
O55 C53 1.282 . S
C56 O57 1.306 . S
C56 O59 1.160 . S
O57 C56 1.306 . S
O57 Cd58 2.228 . S
Cd58 O57 2.228 . S
Cd58 O62 2.273 . S
Cd58 O66 2.277 . S
O59 C56 1.160 . S
O59 Cd60 2.203 . S
Cd60 O59 2.203 . S
Cd60 O62 2.411 . S
Cd60 O63 2.333 . S
Cd60 O64 2.352 . S
Cd60 O68 2.277 . S
Cd60 O69 2.356 . S
C61 O66 1.209 . S
C61 O68 1.226 . S
O62 Cd58 2.273 . S
O62 Cd60 2.411 . S
O62 C65 1.320 . S
O63 Cd60 2.333 . S
O63 C65 1.214 . S
O64 Cd60 2.352 . S
O64 C67 1.258 . S
C65 O62 1.320 . S
C65 O63 1.214 . S
O66 Cd58 2.277 . S
O66 C61 1.209 . S
C67 O64 1.258 . S
C67 O69 1.282 . S
O68 Cd60 2.277 . S
O68 C61 1.226 . S
O69 Cd60 2.356 . S
O69 C67 1.282 . S
C70 O71 1.306 . S
C70 O73 1.160 . S
O71 C70 1.306 . S
O71 Cd72 2.228 . S
Cd72 O71 2.228 . S
Cd72 O76 2.273 . S
Cd72 O80 2.277 . S
O73 C70 1.160 . S
O73 Cd74 2.203 . S
Cd74 O73 2.203 . S
Cd74 O76 2.411 . S
Cd74 O77 2.333 . S
Cd74 O78 2.352 . S
Cd74 O82 2.277 . S
Cd74 O83 2.356 . S
C75 O80 1.209 . S
C75 O82 1.226 . S
O76 Cd72 2.273 . S
O76 Cd74 2.411 . S
O76 C79 1.320 . S
O77 Cd74 2.333 . S
O77 C79 1.214 . S
O78 Cd74 2.352 . S
O78 C81 1.258 . S
C79 O76 1.320 . S
C79 O77 1.214 . S
O80 Cd72 2.277 . S
O80 C75 1.209 . S
C81 O78 1.258 . S
C81 O83 1.282 . S
O82 Cd74 2.277 . S
O82 C75 1.226 . S
O83 Cd74 2.356 . S
O83 C81 1.282 . S
C84 O85 1.306 . S
C84 O87 1.160 . S
O85 C84 1.306 . S
O85 Cd86 2.228 . S
Cd86 O85 2.228 . S
Cd86 O90 2.273 . S
Cd86 O94 2.277 . S
O87 C84 1.160 . S
O87 Cd88 2.203 . S
Cd88 O87 2.203 . S
Cd88 O90 2.411 . S
Cd88 O91 2.333 . S
Cd88 O92 2.352 . S
Cd88 O96 2.277 . S
Cd88 O97 2.356 . S
C89 O94 1.209 . S
C89 O96 1.226 . S
O90 Cd86 2.273 . S
O90 Cd88 2.411 . S
O90 C93 1.320 . S
O91 Cd88 2.333 . S
O91 C93 1.214 . S
O92 Cd88 2.352 . S
O92 C95 1.258 . S
C93 O90 1.320 . S
C93 O91 1.214 . S
O94 Cd86 2.277 . S
O94 C89 1.209 . S
C95 O92 1.258 . S
C95 O97 1.282 . S
O96 Cd88 2.277 . S
O96 C89 1.226 . S
O97 Cd88 2.356 . S
O97 C95 1.282 . S
C98 O99 1.306 . S
C98 O101 1.160 . S
O99 C98 1.306 . S
O99 Cd100 2.228 . S
Cd100 O99 2.228 . S
Cd100 O104 2.273 . S
Cd100 O108 2.277 . S
O101 C98 1.160 . S
O101 Cd102 2.203 . S
Cd102 O101 2.203 . S
Cd102 O104 2.411 . S
Cd102 O105 2.333 . S
Cd102 O106 2.352 . S
Cd102 O110 2.277 . S
Cd102 O111 2.356 . S
C103 O108 1.209 . S
C103 O110 1.226 . S
O104 Cd100 2.273 . S
O104 Cd102 2.411 . S
O104 C107 1.320 . S
O105 Cd102 2.333 . S
O105 C107 1.214 . S
O106 Cd102 2.352 . S
O106 C109 1.258 . S
C107 O104 1.320 . S
C107 O105 1.214 . S
O108 Cd100 2.277 . S
O108 C103 1.209 . S
C109 O106 1.258 . S
C109 O111 1.282 . S
O110 Cd102 2.277 . S
O110 C103 1.226 . S
O111 Cd102 2.356 . S
O111 C109 1.282 . S
C112 O113 1.306 . S
C112 O115 1.160 . S
O113 C112 1.306 . S
O113 Cd114 2.228 . S
Cd114 O113 2.228 . S
Cd114 O118 2.273 . S
Cd114 O122 2.277 . S
O115 C112 1.160 . S
O115 Cd116 2.203 . S
Cd116 O115 2.203 . S
Cd116 O118 2.411 . S
Cd116 O119 2.333 . S
Cd116 O120 2.352 . S
Cd116 O124 2.277 . S
Cd116 O125 2.356 . S
C117 O122 1.209 . S
C117 O124 1.226 . S
O118 Cd114 2.273 . S
O118 Cd116 2.411 . S
O118 C121 1.320 . S
O119 Cd116 2.333 . S
O119 C121 1.214 . S
O120 Cd116 2.352 . S
O120 C123 1.258 . S
C121 O118 1.320 . S
C121 O119 1.214 . S
O122 Cd114 2.277 . S
O122 C117 1.209 . S
C123 O120 1.258 . S
C123 O125 1.282 . S
O124 Cd116 2.277 . S
O124 C117 1.226 . S
O125 Cd116 2.356 . S
O125 C123 1.282 . S
C126 O127 1.306 . S
C126 O129 1.160 . S
O127 C126 1.306 . S
O127 Cd128 2.228 . S
Cd128 O127 2.228 . S
Cd128 O132 2.273 . S
Cd128 O136 2.277 . S
O129 C126 1.160 . S
O129 Cd130 2.203 . S
Cd130 O129 2.203 . S
Cd130 O132 2.411 . S
Cd130 O133 2.333 . S
Cd130 O134 2.352 . S
Cd130 O138 2.277 . S
Cd130 O139 2.356 . S
C131 O136 1.209 . S
C131 O138 1.226 . S
O132 Cd128 2.273 . S
O132 Cd130 2.411 . S
O132 C135 1.320 . S
O133 Cd130 2.333 . S
O133 C135 1.214 . S
O134 Cd130 2.352 . S
O134 C137 1.258 . S
C135 O132 1.320 . S
C135 O133 1.214 . S
O136 Cd128 2.277 . S
O136 C131 1.209 . S
C137 O134 1.258 . S
C137 O139 1.282 . S
O138 Cd130 2.277 . S
O138 C131 1.226 . S
O139 Cd130 2.356 . S
O139 C137 1.282 . S
C140 O141 1.306 . S
C140 O143 1.160 . S
O141 C140 1.306 . S
O141 Cd142 2.228 . S
Cd142 O141 2.228 . S
Cd142 O146 2.273 . S
Cd142 O150 2.277 . S
O143 C140 1.160 . S
O143 Cd144 2.203 . S
Cd144 O143 2.203 . S
Cd144 O146 2.411 . S
Cd144 O147 2.333 . S
Cd144 O148 2.352 . S
Cd144 O152 2.277 . S
Cd144 O153 2.356 . S
C145 O150 1.209 . S
C145 O152 1.226 . S
O146 Cd142 2.273 . S
O146 Cd144 2.411 . S
O146 C149 1.320 . S
O147 Cd144 2.333 . S
O147 C149 1.214 . S
O148 Cd144 2.352 . S
O148 C151 1.258 . S
C149 O146 1.320 . S
C149 O147 1.214 . S
O150 Cd142 2.277 . S
O150 C145 1.209 . S
C151 O148 1.258 . S
C151 O153 1.282 . S
O152 Cd144 2.277 . S
O152 C145 1.226 . S
O153 Cd144 2.356 . S
O153 C151 1.282 . S
C154 O155 1.306 . S
C154 O157 1.160 . S
O155 C154 1.306 . S
O155 Cd156 2.228 . S
Cd156 O155 2.228 . S
Cd156 O160 2.273 . S
Cd156 O164 2.277 . S
O157 C154 1.160 . S
O157 Cd158 2.203 . S
Cd158 O157 2.203 . S
Cd158 O160 2.411 . S
Cd158 O161 2.333 . S
Cd158 O162 2.352 . S
Cd158 O166 2.277 . S
Cd158 O167 2.356 . S
C159 O164 1.209 . S
C159 O166 1.226 . S
O160 Cd156 2.273 . S
O160 Cd158 2.411 . S
O160 C163 1.320 . S
O161 Cd158 2.333 . S
O161 C163 1.214 . S
O162 Cd158 2.352 . S
O162 C165 1.258 . S
C163 O160 1.320 . S
C163 O161 1.214 . S
O164 Cd156 2.277 . S
O164 C159 1.209 . S
C165 O162 1.258 . S
C165 O167 1.282 . S
O166 Cd158 2.277 . S
O166 C159 1.226 . S
O167 Cd158 2.356 . S
O167 C165 1.282 . S
C168 O169 1.306 . S
C168 O171 1.160 . S
O169 C168 1.306 . S
O169 Cd170 2.228 . S
Cd170 O169 2.228 . S
Cd170 O174 2.273 . S
Cd170 O178 2.277 . S
O171 C168 1.160 . S
O171 Cd172 2.203 . S
Cd172 O171 2.203 . S
Cd172 O174 2.411 . S
Cd172 O175 2.333 . S
Cd172 O176 2.352 . S
Cd172 O180 2.277 . S
Cd172 O181 2.356 . S
C173 O178 1.209 . S
C173 O180 1.226 . S
O174 Cd170 2.273 . S
O174 Cd172 2.411 . S
O174 C177 1.320 . S
O175 Cd172 2.333 . S
O175 C177 1.214 . S
O176 Cd172 2.352 . S
O176 C179 1.258 . S
C177 O174 1.320 . S
C177 O175 1.214 . S
O178 Cd170 2.277 . S
O178 C173 1.209 . S
C179 O176 1.258 . S
C179 O181 1.282 . S
O180 Cd172 2.277 . S
O180 C173 1.226 . S
O181 Cd172 2.356 . S
O181 C179 1.282 . S
C182 O183 1.306 . S
C182 O185 1.160 . S
O183 C182 1.306 . S
O183 Cd184 2.228 . S
Cd184 O183 2.228 . S
Cd184 O188 2.273 . S
Cd184 O192 2.277 . S
O185 C182 1.160 . S
O185 Cd186 2.203 . S
Cd186 O185 2.203 . S
Cd186 O188 2.411 . S
Cd186 O189 2.333 . S
Cd186 O190 2.352 . S
Cd186 O194 2.277 . S
Cd186 O195 2.356 . S
C187 O192 1.209 . S
C187 O194 1.226 . S
O188 Cd184 2.273 . S
O188 Cd186 2.411 . S
O188 C191 1.320 . S
O189 Cd186 2.333 . S
O189 C191 1.214 . S
O190 Cd186 2.352 . S
O190 C193 1.258 . S
C191 O188 1.320 . S
C191 O189 1.214 . S
O192 Cd184 2.277 . S
O192 C187 1.209 . S
C193 O190 1.258 . S
C193 O195 1.282 . S
O194 Cd186 2.277 . S
O194 C187 1.226 . S
O195 Cd186 2.356 . S
O195 C193 1.282 . S
C196 O197 1.306 . S
C196 O199 1.160 . S
O197 C196 1.306 . S
O197 Cd198 2.228 . S
Cd198 O197 2.228 . S
Cd198 O202 2.273 . S
Cd198 O206 2.277 . S
O199 C196 1.160 . S
O199 Cd200 2.203 . S
Cd200 O199 2.203 . S
Cd200 O202 2.411 . S
Cd200 O203 2.333 . S
Cd200 O204 2.352 . S
Cd200 O208 2.277 . S
Cd200 O209 2.356 . S
C201 O206 1.209 . S
C201 O208 1.226 . S
O202 Cd198 2.273 . S
O202 Cd200 2.411 . S
O202 C205 1.320 . S
O203 Cd200 2.333 . S
O203 C205 1.214 . S
O204 Cd200 2.352 . S
O204 C207 1.258 . S
C205 O202 1.320 . S
C205 O203 1.214 . S
O206 Cd198 2.277 . S
O206 C201 1.209 . S
C207 O204 1.258 . S
C207 O209 1.282 . S
O208 Cd200 2.277 . S
O208 C201 1.226 . S
O209 Cd200 2.356 . S
O209 C207 1.282 . S
C210 O211 1.306 . S
C210 O213 1.160 . S
O211 C210 1.306 . S
O211 Cd212 2.228 . S
Cd212 O211 2.228 . S
Cd212 O216 2.273 . S
Cd212 O220 2.277 . S
O213 C210 1.160 . S
O213 Cd214 2.203 . S
Cd214 O213 2.203 . S
Cd214 O216 2.411 . S
Cd214 O217 2.333 . S
Cd214 O218 2.352 . S
Cd214 O222 2.277 . S
Cd214 O223 2.356 . S
C215 O220 1.209 . S
C215 O222 1.226 . S
O216 Cd212 2.273 . S
O216 Cd214 2.411 . S
O216 C219 1.320 . S
O217 Cd214 2.333 . S
O217 C219 1.214 . S
O218 Cd214 2.352 . S
O218 C221 1.258 . S
C219 O216 1.320 . S
C219 O217 1.214 . S
O220 Cd212 2.277 . S
O220 C215 1.209 . S
C221 O218 1.258 . S
C221 O223 1.282 . S
O222 Cd214 2.277 . S
O222 C215 1.226 . S
O223 Cd214 2.356 . S
O223 C221 1.282 . S
C224 O225 1.306 . S
C224 O227 1.160 . S
O225 C224 1.306 . S
O225 Cd226 2.228 . S
Cd226 O225 2.228 . S
Cd226 O230 2.273 . S
Cd226 O234 2.277 . S
O227 C224 1.160 . S
O227 Cd228 2.203 . S
Cd228 O227 2.203 . S
Cd228 O230 2.411 . S
Cd228 O231 2.333 . S
Cd228 O232 2.352 . S
Cd228 O236 2.277 . S
Cd228 O237 2.356 . S
C229 O234 1.209 . S
C229 O236 1.226 . S
O230 Cd226 2.273 . S
O230 Cd228 2.411 . S
O230 C233 1.320 . S
O231 Cd228 2.333 . S
O231 C233 1.214 . S
O232 Cd228 2.352 . S
O232 C235 1.258 . S
C233 O230 1.320 . S
C233 O231 1.214 . S
O234 Cd226 2.277 . S
O234 C229 1.209 . S
C235 O232 1.258 . S
C235 O237 1.282 . S
O236 Cd228 2.277 . S
O236 C229 1.226 . S
O237 Cd228 2.356 . S
O237 C235 1.282 . S
C238 O239 1.306 . S
C238 O241 1.160 . S
O239 C238 1.306 . S
O239 Cd240 2.228 . S
Cd240 O239 2.228 . S
Cd240 O244 2.273 . S
Cd240 O248 2.277 . S
O241 C238 1.160 . S
O241 Cd242 2.203 . S
Cd242 O241 2.203 . S
Cd242 O244 2.411 . S
Cd242 O245 2.333 . S
Cd242 O246 2.352 . S
Cd242 O250 2.277 . S
Cd242 O251 2.356 . S
C243 O248 1.209 . S
C243 O250 1.226 . S
O244 Cd240 2.273 . S
O244 Cd242 2.411 . S
O244 C247 1.320 . S
O245 Cd242 2.333 . S
O245 C247 1.214 . S
O246 Cd242 2.352 . S
O246 C249 1.258 . S
C247 O244 1.320 . S
C247 O245 1.214 . S
O248 Cd240 2.277 . S
O248 C243 1.209 . S
C249 O246 1.258 . S
C249 O251 1.282 . S
O250 Cd242 2.277 . S
O250 C243 1.226 . S
O251 Cd242 2.356 . S
O251 C249 1.282 . S
C252 O253 1.306 . S
C252 O255 1.160 . S
O253 C252 1.306 . S
O253 Cd254 2.228 . S
Cd254 O253 2.228 . S
Cd254 O258 2.273 . S
Cd254 O262 2.277 . S
O255 C252 1.160 . S
O255 Cd256 2.203 . S
Cd256 O255 2.203 . S
Cd256 O258 2.411 . S
Cd256 O259 2.333 . S
Cd256 O260 2.352 . S
Cd256 O264 2.277 . S
Cd256 O265 2.356 . S
C257 O262 1.209 . S
C257 O264 1.226 . S
O258 Cd254 2.273 . S
O258 Cd256 2.411 . S
O258 C261 1.320 . S
O259 Cd256 2.333 . S
O259 C261 1.214 . S
O260 Cd256 2.352 . S
O260 C263 1.258 . S
C261 O258 1.320 . S
C261 O259 1.214 . S
O262 Cd254 2.277 . S
O262 C257 1.209 . S
C263 O260 1.258 . S
C263 O265 1.282 . S
O264 Cd256 2.277 . S
O264 C257 1.226 . S
O265 Cd256 2.356 . S
O265 C263 1.282 . S
C266 O267 1.306 . S
C266 O269 1.160 . S
O267 C266 1.306 . S
O267 Cd268 2.228 . S
Cd268 O267 2.228 . S
Cd268 O272 2.273 . S
Cd268 O276 2.277 . S
O269 C266 1.160 . S
O269 Cd270 2.203 . S
Cd270 O269 2.203 . S
Cd270 O272 2.411 . S
Cd270 O273 2.333 . S
Cd270 O274 2.352 . S
Cd270 O278 2.277 . S
Cd270 O279 2.356 . S
C271 O276 1.209 . S
C271 O278 1.226 . S
O272 Cd268 2.273 . S
O272 Cd270 2.411 . S
O272 C275 1.320 . S
O273 Cd270 2.333 . S
O273 C275 1.214 . S
O274 Cd270 2.352 . S
O274 C277 1.258 . S
C275 O272 1.320 . S
C275 O273 1.214 . S
O276 Cd268 2.277 . S
O276 C271 1.209 . S
C277 O274 1.258 . S
C277 O279 1.282 . S
O278 Cd270 2.277 . S
O278 C271 1.226 . S
O279 Cd270 2.356 . S
O279 C277 1.282 . S
C280 O281 1.306 . S
C280 O283 1.160 . S
O281 C280 1.306 . S
O281 Cd282 2.228 . S
Cd282 O281 2.228 . S
Cd282 O286 2.273 . S
Cd282 O290 2.277 . S
O283 C280 1.160 . S
O283 Cd284 2.203 . S
Cd284 O283 2.203 . S
Cd284 O286 2.411 . S
Cd284 O287 2.333 . S
Cd284 O288 2.352 . S
Cd284 O292 2.277 . S
Cd284 O293 2.356 . S
C285 O290 1.209 . S
C285 O292 1.226 . S
O286 Cd282 2.273 . S
O286 Cd284 2.411 . S
O286 C289 1.320 . S
O287 Cd284 2.333 . S
O287 C289 1.214 . S
O288 Cd284 2.352 . S
O288 C291 1.258 . S
C289 O286 1.320 . S
C289 O287 1.214 . S
O290 Cd282 2.277 . S
O290 C285 1.209 . S
C291 O288 1.258 . S
C291 O293 1.282 . S
O292 Cd284 2.277 . S
O292 C285 1.226 . S
O293 Cd284 2.356 . S
O293 C291 1.282 . S
C294 O295 1.306 . S
C294 O297 1.160 . S
O295 C294 1.306 . S
O295 Cd296 2.228 . S
Cd296 O295 2.228 . S
Cd296 O300 2.273 . S
Cd296 O304 2.277 . S
O297 C294 1.160 . S
O297 Cd298 2.203 . S
Cd298 O297 2.203 . S
Cd298 O300 2.411 . S
Cd298 O301 2.333 . S
Cd298 O302 2.352 . S
Cd298 O306 2.277 . S
Cd298 O307 2.356 . S
C299 O304 1.209 . S
C299 O306 1.226 . S
O300 Cd296 2.273 . S
O300 Cd298 2.411 . S
O300 C303 1.320 . S
O301 Cd298 2.333 . S
O301 C303 1.214 . S
O302 Cd298 2.352 . S
O302 C305 1.258 . S
C303 O300 1.320 . S
C303 O301 1.214 . S
O304 Cd296 2.277 . S
O304 C299 1.209 . S
C305 O302 1.258 . S
C305 O307 1.282 . S
O306 Cd298 2.277 . S
O306 C299 1.226 . S
O307 Cd298 2.356 . S
O307 C305 1.282 . S
C308 O309 1.306 . S
C308 O311 1.160 . S
O309 C308 1.306 . S
O309 Cd310 2.228 . S
Cd310 O309 2.228 . S
Cd310 O314 2.273 . S
Cd310 O318 2.277 . S
O311 C308 1.160 . S
O311 Cd312 2.203 . S
Cd312 O311 2.203 . S
Cd312 O314 2.411 . S
Cd312 O315 2.333 . S
Cd312 O316 2.352 . S
Cd312 O320 2.277 . S
Cd312 O321 2.356 . S
C313 O318 1.209 . S
C313 O320 1.226 . S
O314 Cd310 2.273 . S
O314 Cd312 2.411 . S
O314 C317 1.320 . S
O315 Cd312 2.333 . S
O315 C317 1.214 . S
O316 Cd312 2.352 . S
O316 C319 1.258 . S
C317 O314 1.320 . S
C317 O315 1.214 . S
O318 Cd310 2.277 . S
O318 C313 1.209 . S
C319 O316 1.258 . S
C319 O321 1.282 . S
O320 Cd312 2.277 . S
O320 C313 1.226 . S
O321 Cd312 2.356 . S
O321 C319 1.282 . S
C322 O323 1.306 . S
C322 O325 1.160 . S
O323 C322 1.306 . S
O323 Cd324 2.228 . S
Cd324 O323 2.228 . S
Cd324 O328 2.273 . S
Cd324 O332 2.277 . S
O325 C322 1.160 . S
O325 Cd326 2.203 . S
Cd326 O325 2.203 . S
Cd326 O328 2.411 . S
Cd326 O329 2.333 . S
Cd326 O330 2.352 . S
Cd326 O334 2.277 . S
Cd326 O335 2.356 . S
C327 O332 1.209 . S
C327 O334 1.226 . S
O328 Cd324 2.273 . S
O328 Cd326 2.411 . S
O328 C331 1.320 . S
O329 Cd326 2.333 . S
O329 C331 1.214 . S
O330 Cd326 2.352 . S
O330 C333 1.258 . S
C331 O328 1.320 . S
C331 O329 1.214 . S
O332 Cd324 2.277 . S
O332 C327 1.209 . S
C333 O330 1.258 . S
C333 O335 1.282 . S
O334 Cd326 2.277 . S
O334 C327 1.226 . S
O335 Cd326 2.356 . S
O335 C333 1.282 . S
C336 O337 1.306 . S
C336 O339 1.160 . S
O337 C336 1.306 . S
O337 Cd338 2.228 . S
Cd338 O337 2.228 . S
Cd338 O342 2.273 . S
Cd338 O346 2.277 . S
O339 C336 1.160 . S
O339 Cd340 2.203 . S
Cd340 O339 2.203 . S
Cd340 O342 2.411 . S
Cd340 O343 2.333 . S
Cd340 O344 2.352 . S
Cd340 O348 2.277 . S
Cd340 O349 2.356 . S
C341 O346 1.209 . S
C341 O348 1.226 . S
O342 Cd338 2.273 . S
O342 Cd340 2.411 . S
O342 C345 1.320 . S
O343 Cd340 2.333 . S
O343 C345 1.214 . S
O344 Cd340 2.352 . S
O344 C347 1.258 . S
C345 O342 1.320 . S
C345 O343 1.214 . S
O346 Cd338 2.277 . S
O346 C341 1.209 . S
C347 O344 1.258 . S
C347 O349 1.282 . S
O348 Cd340 2.277 . S
O348 C341 1.226 . S
O349 Cd340 2.356 . S
O349 C347 1.282 . S
C350 O351 1.306 . S
C350 O353 1.160 . S
O351 C350 1.306 . S
O351 Cd352 2.228 . S
Cd352 O351 2.228 . S
Cd352 O356 2.273 . S
Cd352 O360 2.277 . S
O353 C350 1.160 . S
O353 Cd354 2.203 . S
Cd354 O353 2.203 . S
Cd354 O356 2.411 . S
Cd354 O357 2.333 . S
Cd354 O358 2.352 . S
Cd354 O362 2.277 . S
Cd354 O363 2.356 . S
C355 O360 1.209 . S
C355 O362 1.226 . S
O356 Cd352 2.273 . S
O356 Cd354 2.411 . S
O356 C359 1.320 . S
O357 Cd354 2.333 . S
O357 C359 1.214 . S
O358 Cd354 2.352 . S
O358 C361 1.258 . S
C359 O356 1.320 . S
C359 O357 1.214 . S
O360 Cd352 2.277 . S
O360 C355 1.209 . S
C361 O358 1.258 . S
C361 O363 1.282 . S
O362 Cd354 2.277 . S
O362 C355 1.226 . S
O363 Cd354 2.356 . S
O363 C361 1.282 . S
C364 O365 1.306 . S
C364 O367 1.160 . S
O365 C364 1.306 . S
O365 Cd366 2.228 . S
Cd366 O365 2.228 . S
Cd366 O370 2.273 . S
Cd366 O374 2.277 . S
O367 C364 1.160 . S
O367 Cd368 2.203 . S
Cd368 O367 2.203 . S
Cd368 O370 2.411 . S
Cd368 O371 2.333 . S
Cd368 O372 2.352 . S
Cd368 O376 2.277 . S
Cd368 O377 2.356 . S
C369 O374 1.209 . S
C369 O376 1.226 . S
O370 Cd366 2.273 . S
O370 Cd368 2.411 . S
O370 C373 1.320 . S
O371 Cd368 2.333 . S
O371 C373 1.214 . S
O372 Cd368 2.352 . S
O372 C375 1.258 . S
C373 O370 1.320 . S
C373 O371 1.214 . S
O374 Cd366 2.277 . S
O374 C369 1.209 . S
C375 O372 1.258 . S
C375 O377 1.282 . S
O376 Cd368 2.277 . S
O376 C369 1.226 . S
O377 Cd368 2.356 . S
O377 C375 1.282 . S
C378 O379 1.306 . S
C378 O381 1.160 . S
O379 C378 1.306 . S
O379 Cd380 2.228 . S
Cd380 O379 2.228 . S
Cd380 O384 2.273 . S
Cd380 O388 2.277 . S
O381 C378 1.160 . S
O381 Cd382 2.203 . S
Cd382 O381 2.203 . S
Cd382 O384 2.411 . S
Cd382 O385 2.333 . S
Cd382 O386 2.352 . S
Cd382 O390 2.277 . S
Cd382 O391 2.356 . S
C383 O388 1.209 . S
C383 O390 1.226 . S
O384 Cd380 2.273 . S
O384 Cd382 2.411 . S
O384 C387 1.320 . S
O385 Cd382 2.333 . S
O385 C387 1.214 . S
O386 Cd382 2.352 . S
O386 C389 1.258 . S
C387 O384 1.320 . S
C387 O385 1.214 . S
O388 Cd380 2.277 . S
O388 C383 1.209 . S
C389 O386 1.258 . S
C389 O391 1.282 . S
O390 Cd382 2.277 . S
O390 C383 1.226 . S
O391 Cd382 2.356 . S
O391 C389 1.282 . S
C392 O393 1.306 . S
C392 O395 1.160 . S
O393 C392 1.306 . S
O393 Cd394 2.228 . S
Cd394 O393 2.228 . S
Cd394 O398 2.273 . S
Cd394 O402 2.277 . S
O395 C392 1.160 . S
O395 Cd396 2.203 . S
Cd396 O395 2.203 . S
Cd396 O398 2.411 . S
Cd396 O399 2.333 . S
Cd396 O400 2.352 . S
Cd396 O404 2.277 . S
Cd396 O405 2.356 . S
C397 O402 1.209 . S
C397 O404 1.226 . S
O398 Cd394 2.273 . S
O398 Cd396 2.411 . S
O398 C401 1.320 . S
O399 Cd396 2.333 . S
O399 C401 1.214 . S
O400 Cd396 2.352 . S
O400 C403 1.258 . S
C401 O398 1.320 . S
C401 O399 1.214 . S
O402 Cd394 2.277 . S
O402 C397 1.209 . S
C403 O400 1.258 . S
C403 O405 1.282 . S
O404 Cd396 2.277 . S
O404 C397 1.226 . S
O405 Cd396 2.356 . S
O405 C403 1.282 . S
C406 O407 1.306 . S
C406 O409 1.160 . S
O407 C406 1.306 . S
O407 Cd408 2.228 . S
Cd408 O407 2.228 . S
Cd408 O412 2.273 . S
Cd408 O416 2.277 . S
O409 C406 1.160 . S
O409 Cd410 2.203 . S
Cd410 O409 2.203 . S
Cd410 O412 2.411 . S
Cd410 O413 2.333 . S
Cd410 O414 2.352 . S
Cd410 O418 2.277 . S
Cd410 O419 2.356 . S
C411 O416 1.209 . S
C411 O418 1.226 . S
O412 Cd408 2.273 . S
O412 Cd410 2.411 . S
O412 C415 1.320 . S
O413 Cd410 2.333 . S
O413 C415 1.214 . S
O414 Cd410 2.352 . S
O414 C417 1.258 . S
C415 O412 1.320 . S
C415 O413 1.214 . S
O416 Cd408 2.277 . S
O416 C411 1.209 . S
C417 O414 1.258 . S
C417 O419 1.282 . S
O418 Cd410 2.277 . S
O418 C411 1.226 . S
O419 Cd410 2.356 . S
O419 C417 1.282 . S
C420 O421 1.306 . S
C420 O423 1.160 . S
O421 C420 1.306 . S
O421 Cd422 2.228 . S
Cd422 O421 2.228 . S
Cd422 O426 2.273 . S
Cd422 O430 2.277 . S
O423 C420 1.160 . S
O423 Cd424 2.203 . S
Cd424 O423 2.203 . S
Cd424 O426 2.411 . S
Cd424 O427 2.333 . S
Cd424 O428 2.352 . S
Cd424 O432 2.277 . S
Cd424 O433 2.356 . S
C425 O430 1.209 . S
C425 O432 1.226 . S
O426 Cd422 2.273 . S
O426 Cd424 2.411 . S
O426 C429 1.320 . S
O427 Cd424 2.333 . S
O427 C429 1.214 . S
O428 Cd424 2.352 . S
O428 C431 1.258 . S
C429 O426 1.320 . S
C429 O427 1.214 . S
O430 Cd422 2.277 . S
O430 C425 1.209 . S
C431 O428 1.258 . S
C431 O433 1.282 . S
O432 Cd424 2.277 . S
O432 C425 1.226 . S
O433 Cd424 2.356 . S
O433 C431 1.282 . S
C434 O435 1.306 . S
C434 O437 1.160 . S
O435 C434 1.306 . S
O435 Cd436 2.228 . S
Cd436 O435 2.228 . S
Cd436 O440 2.273 . S
Cd436 O444 2.277 . S
O437 C434 1.160 . S
O437 Cd438 2.203 . S
Cd438 O437 2.203 . S
Cd438 O440 2.411 . S
Cd438 O441 2.333 . S
Cd438 O442 2.352 . S
Cd438 O446 2.277 . S
Cd438 O447 2.356 . S
C439 O444 1.209 . S
C439 O446 1.226 . S
O440 Cd436 2.273 . S
O440 Cd438 2.411 . S
O440 C443 1.320 . S
O441 Cd438 2.333 . S
O441 C443 1.214 . S
O442 Cd438 2.352 . S
O442 C445 1.258 . S
C443 O440 1.320 . S
C443 O441 1.214 . S
O444 Cd436 2.277 . S
O444 C439 1.209 . S
C445 O442 1.258 . S
C445 O447 1.282 . S
O446 Cd438 2.277 . S
O446 C439 1.226 . S
O447 Cd438 2.356 . S
O447 C445 1.282 . S
H448 C466 0.951 . S
H449 C468 0.951 . S
H450 C470 0.950 . S
H451 C471 0.950 . S
H452 C473 0.950 . S
H453 C476 0.950 . S
H454 C477 0.950 . S
H455 C479 0.950 . S
H456 C480 0.950 . S
H457 C481 0.951 . S
H458 C483 0.951 . S
H459 C485 0.950 . S
H460 C486 0.950 . S
H461 C488 0.950 . S
H462 C491 0.950 . S
H463 C492 0.950 . S
H464 C494 0.950 . S
H465 C495 0.950 . S
C466 H448 0.951 . S
C466 C467 1.366 . S
C466 C468 1.388 . S
C467 C466 1.366 . S
C467 C471 1.385 . S
C468 H449 0.951 . S
C468 C466 1.388 . S
C468 C469 1.366 . S
C469 C468 1.366 . S
C469 C470 1.414 . S
C469 C472 1.499 . S
C470 H450 0.950 . S
C470 C469 1.414 . S
C470 C471 1.374 . S
C471 H451 0.950 . S
C471 C467 1.385 . S
C471 C470 1.374 . S
C472 C469 1.499 . S
C472 C473 1.373 . S
C472 C474 1.389 . S
C473 H452 0.950 . S
C473 C472 1.373 . S
C473 C489 1.377 . S
C474 C472 1.389 . S
C474 C475 1.524 . S
C474 C488 1.377 . S
C475 C474 1.524 . S
C475 C476 1.397 . S
C475 C480 1.363 . S
C476 H453 0.950 . S
C476 C475 1.397 . S
C476 C477 1.334 . S
C477 H454 0.950 . S
C477 C476 1.334 . S
C477 C478 1.287 . S
C478 C477 1.287 . S
C478 C479 1.524 . S
C478 H497 0.913 . S
C479 H455 0.950 . S
C479 C478 1.524 . S
C479 C480 1.415 . S
C480 H456 0.950 . S
C480 C475 1.363 . S
C480 C479 1.415 . S
C481 H457 0.951 . S
C481 C482 1.366 . S
C481 C483 1.388 . S
C482 C481 1.366 . S
C482 C486 1.385 . S
C483 H458 0.951 . S
C483 C481 1.388 . S
C483 C484 1.366 . S
C484 C483 1.366 . S
C484 C485 1.414 . S
C484 C487 1.499 . S
C485 H459 0.950 . S
C485 C484 1.414 . S
C485 C486 1.374 . S
C486 H460 0.950 . S
C486 C482 1.385 . S
C486 C485 1.374 . S
C487 C484 1.499 . S
C487 C488 1.373 . S
C487 C489 1.389 . S
C488 H461 0.950 . S
C488 C474 1.377 . S
C488 C487 1.373 . S
C489 C473 1.377 . S
C489 C487 1.389 . S
C489 C490 1.524 . S
C490 C489 1.524 . S
C490 C491 1.397 . S
C490 C495 1.363 . S
C491 H462 0.950 . S
C491 C490 1.397 . S
C491 C492 1.334 1_545 S
C492 H463 0.950 . S
C492 C491 1.334 1_565 S
C492 C493 1.287 . S
C493 C492 1.287 . S
C493 C494 1.524 1_565 S
C493 H496 0.999 . S
C494 H464 0.950 . S
C494 C493 1.524 1_545 S
C494 C495 1.415 . S
C495 H465 0.950 . S
C495 C490 1.363 . S
C495 C494 1.415 . S
H496 C493 0.999 . S
H497 C478 0.913 . S
H498 C516 0.951 . S
H499 C518 0.951 . S
H500 C520 0.950 . S
H501 C521 0.950 . S
H502 C523 0.950 . S
H503 C526 0.950 . S
H504 C527 0.950 . S
H505 C529 0.950 . S
H506 C530 0.950 . S
H507 C531 0.951 . S
H508 C533 0.951 . S
H509 C535 0.950 . S
H510 C536 0.950 . S
H511 C538 0.950 . S
H512 C541 0.950 . S
H513 C542 0.950 . S
H514 C544 0.950 . S
H515 C545 0.950 . S
C516 H498 0.951 . S
C516 C517 1.366 . S
C516 C518 1.388 . S
C517 C516 1.366 . S
C517 C521 1.385 . S
C518 H499 0.951 . S
C518 C516 1.388 . S
C518 C519 1.366 . S
C519 C518 1.366 . S
C519 C520 1.414 . S
C519 C522 1.499 . S
C520 H500 0.950 . S
C520 C519 1.414 . S
C520 C521 1.374 . S
C521 H501 0.950 . S
C521 C517 1.385 . S
C521 C520 1.374 . S
C522 C519 1.499 . S
C522 C523 1.373 . S
C522 C524 1.389 . S
C523 H502 0.950 . S
C523 C522 1.373 . S
C523 C539 1.377 . S
C524 C522 1.389 . S
C524 C525 1.524 . S
C524 C538 1.377 . S
C525 C524 1.524 . S
C525 C526 1.397 . S
C525 C530 1.363 . S
C526 H503 0.950 . S
C526 C525 1.397 . S
C526 C527 1.334 . S
C527 H504 0.950 . S
C527 C526 1.334 . S
C527 C528 1.287 . S
C528 C527 1.287 . S
C528 C529 1.524 1_545 S
C528 H547 0.913 1_545 S
C529 H505 0.950 . S
C529 C528 1.524 1_565 S
C529 C530 1.415 1_565 S
C530 H506 0.950 . S
C530 C525 1.363 . S
C530 C529 1.415 1_545 S
C531 H507 0.951 . S
C531 C532 1.366 . S
C531 C533 1.388 . S
C532 C531 1.366 . S
C532 C536 1.385 . S
C533 H508 0.951 . S
C533 C531 1.388 . S
C533 C534 1.366 . S
C534 C533 1.366 . S
C534 C535 1.414 . S
C534 C537 1.499 . S
C535 H509 0.950 . S
C535 C534 1.414 . S
C535 C536 1.374 . S
C536 H510 0.950 . S
C536 C532 1.385 . S
C536 C535 1.374 . S
C537 C534 1.499 . S
C537 C538 1.373 . S
C537 C539 1.389 . S
C538 H511 0.950 . S
C538 C524 1.377 . S
C538 C537 1.373 . S
C539 C523 1.377 . S
C539 C537 1.389 . S
C539 C540 1.524 . S
C540 C539 1.524 . S
C540 C541 1.397 . S
C540 C545 1.363 . S
C541 H512 0.950 . S
C541 C540 1.397 . S
C541 C542 1.334 . S
C542 H513 0.950 . S
C542 C541 1.334 . S
C542 C543 1.287 . S
C543 C542 1.287 . S
C543 C544 1.524 . S
C543 H546 0.999 . S
C544 H514 0.950 . S
C544 C543 1.524 . S
C544 C545 1.415 . S
C545 H515 0.950 . S
C545 C540 1.363 . S
C545 C544 1.415 . S
H546 C543 0.999 . S
H547 C528 0.913 1_565 S
H548 C566 0.951 . S
H549 C568 0.951 . S
H550 C570 0.950 . S
H551 C571 0.950 . S
H552 C573 0.950 . S
H553 C576 0.950 . S
H554 C577 0.950 . S
H555 C579 0.950 . S
H556 C580 0.950 . S
H557 C581 0.951 . S
H558 C583 0.951 . S
H559 C585 0.950 . S
H560 C586 0.950 . S
H561 C588 0.950 . S
H562 C591 0.950 . S
H563 C592 0.950 . S
H564 C594 0.950 . S
H565 C595 0.950 . S
C566 H548 0.951 . S
C566 C567 1.366 . S
C566 C568 1.388 . S
C567 C566 1.366 . S
C567 C571 1.385 . S
C568 H549 0.951 . S
C568 C566 1.388 . S
C568 C569 1.366 . S
C569 C568 1.366 . S
C569 C570 1.414 . S
C569 C572 1.499 . S
C570 H550 0.950 . S
C570 C569 1.414 . S
C570 C571 1.374 . S
C571 H551 0.950 . S
C571 C567 1.385 . S
C571 C570 1.374 . S
C572 C569 1.499 . S
C572 C573 1.373 . S
C572 C574 1.389 . S
C573 H552 0.950 . S
C573 C572 1.373 . S
C573 C589 1.377 . S
C574 C572 1.389 . S
C574 C575 1.524 . S
C574 C588 1.377 . S
C575 C574 1.524 . S
C575 C576 1.397 . S
C575 C580 1.363 . S
C576 H553 0.950 . S
C576 C575 1.397 . S
C576 C577 1.334 . S
C577 H554 0.950 . S
C577 C576 1.334 . S
C577 C578 1.287 . S
C578 C577 1.287 . S
C578 C579 1.524 . S
C578 H597 0.913 . S
C579 H555 0.950 . S
C579 C578 1.524 . S
C579 C580 1.415 . S
C580 H556 0.950 . S
C580 C575 1.363 . S
C580 C579 1.415 . S
C581 H557 0.951 . S
C581 C582 1.366 . S
C581 C583 1.388 . S
C582 C581 1.366 . S
C582 C586 1.385 . S
C583 H558 0.951 . S
C583 C581 1.388 . S
C583 C584 1.366 . S
C584 C583 1.366 . S
C584 C585 1.414 . S
C584 C587 1.499 . S
C585 H559 0.950 . S
C585 C584 1.414 . S
C585 C586 1.374 . S
C586 H560 0.950 . S
C586 C582 1.385 . S
C586 C585 1.374 . S
C587 C584 1.499 . S
C587 C588 1.373 . S
C587 C589 1.389 . S
C588 H561 0.950 . S
C588 C574 1.377 . S
C588 C587 1.373 . S
C589 C573 1.377 . S
C589 C587 1.389 . S
C589 C590 1.524 . S
C590 C589 1.524 . S
C590 C591 1.397 . S
C590 C595 1.363 . S
C591 H562 0.950 . S
C591 C590 1.397 . S
C591 C592 1.334 . S
C592 H563 0.950 . S
C592 C591 1.334 . S
C592 C593 1.287 . S
C593 C592 1.287 . S
C593 C594 1.524 . S
C593 H596 0.999 . S
C594 H564 0.950 . S
C594 C593 1.524 . S
C594 C595 1.415 . S
C595 H565 0.950 . S
C595 C590 1.363 . S
C595 C594 1.415 . S
H596 C593 0.999 . S
H597 C578 0.913 . S
H598 C616 0.951 . S
H599 C618 0.951 . S
H600 C620 0.950 . S
H601 C621 0.950 . S
H602 C623 0.950 . S
H603 C626 0.950 . S
H604 C627 0.950 . S
H605 C629 0.950 . S
H606 C630 0.950 . S
H607 C631 0.951 . S
H608 C633 0.951 . S
H609 C635 0.950 . S
H610 C636 0.950 . S
H611 C638 0.950 . S
H612 C641 0.950 . S
H613 C642 0.950 . S
H614 C644 0.950 1_545 S
H615 C645 0.950 . S
C616 H598 0.951 . S
C616 C617 1.366 . S
C616 C618 1.388 . S
C617 C616 1.366 . S
C617 C621 1.385 . S
C618 H599 0.951 . S
C618 C616 1.388 . S
C618 C619 1.366 . S
C619 C618 1.366 . S
C619 C620 1.414 . S
C619 C622 1.499 . S
C620 H600 0.950 . S
C620 C619 1.414 . S
C620 C621 1.374 . S
C621 H601 0.950 . S
C621 C617 1.385 . S
C621 C620 1.374 . S
C622 C619 1.499 . S
C622 C623 1.373 . S
C622 C624 1.389 . S
C623 H602 0.950 . S
C623 C622 1.373 . S
C623 C639 1.377 . S
C624 C622 1.389 . S
C624 C625 1.524 . S
C624 C638 1.377 . S
C625 C624 1.524 . S
C625 C626 1.397 . S
C625 C630 1.363 . S
C626 H603 0.950 . S
C626 C625 1.397 . S
C626 C627 1.334 . S
C627 H604 0.950 . S
C627 C626 1.334 . S
C627 C628 1.287 . S
C628 C627 1.287 . S
C628 C629 1.524 . S
C628 H647 0.913 . S
C629 H605 0.950 . S
C629 C628 1.524 . S
C629 C630 1.415 . S
C630 H606 0.950 . S
C630 C625 1.363 . S
C630 C629 1.415 . S
C631 H607 0.951 . S
C631 C632 1.366 . S
C631 C633 1.388 . S
C632 C631 1.366 . S
C632 C636 1.385 . S
C633 H608 0.951 . S
C633 C631 1.388 . S
C633 C634 1.366 . S
C634 C633 1.366 . S
C634 C635 1.414 . S
C634 C637 1.499 . S
C635 H609 0.950 . S
C635 C634 1.414 . S
C635 C636 1.374 . S
C636 H610 0.950 . S
C636 C632 1.385 . S
C636 C635 1.374 . S
C637 C634 1.499 . S
C637 C638 1.373 . S
C637 C639 1.389 . S
C638 H611 0.950 . S
C638 C624 1.377 . S
C638 C637 1.373 . S
C639 C623 1.377 . S
C639 C637 1.389 . S
C639 C640 1.524 . S
C640 C639 1.524 . S
C640 C641 1.397 . S
C640 C645 1.363 . S
C641 H612 0.950 . S
C641 C640 1.397 . S
C641 C642 1.334 . S
C642 H613 0.950 . S
C642 C641 1.334 . S
C642 C643 1.287 . S
C643 C642 1.287 . S
C643 C644 1.524 . S
C643 H646 0.999 . S
C644 H614 0.950 1_565 S
C644 C643 1.524 . S
C644 C645 1.415 . S
C645 H615 0.950 . S
C645 C640 1.363 . S
C645 C644 1.415 . S
H646 C643 0.999 . S
H647 C628 0.913 . S
H648 C666 0.951 . S
H649 C668 0.951 . S
H650 C670 0.950 . S
H651 C671 0.950 . S
H652 C673 0.950 . S
H653 C676 0.950 . S
H654 C677 0.950 . S
H655 C679 0.950 . S
H656 C680 0.950 . S
H657 C681 0.951 . S
H658 C683 0.951 . S
H659 C685 0.950 . S
H660 C686 0.950 . S
H661 C688 0.950 . S
H662 C691 0.950 . S
H663 C692 0.950 . S
H664 C694 0.950 . S
H665 C695 0.950 . S
C666 H648 0.951 . S
C666 C667 1.366 . S
C666 C668 1.388 . S
C667 C666 1.366 . S
C667 C671 1.385 . S
C668 H649 0.951 . S
C668 C666 1.388 . S
C668 C669 1.366 . S
C669 C668 1.366 . S
C669 C670 1.414 . S
C669 C672 1.499 . S
C670 H650 0.950 . S
C670 C669 1.414 . S
C670 C671 1.374 . S
C671 H651 0.950 . S
C671 C667 1.385 . S
C671 C670 1.374 . S
C672 C669 1.499 . S
C672 C673 1.373 . S
C672 C674 1.389 . S
C673 H652 0.950 . S
C673 C672 1.373 . S
C673 C689 1.377 . S
C674 C672 1.389 . S
C674 C675 1.524 . S
C674 C688 1.377 . S
C675 C674 1.524 . S
C675 C676 1.397 . S
C675 C680 1.363 . S
C676 H653 0.950 . S
C676 C675 1.397 . S
C676 C677 1.334 . S
C677 H654 0.950 . S
C677 C676 1.334 . S
C677 C678 1.287 . S
C678 C677 1.287 . S
C678 C679 1.524 . S
C678 H697 0.913 . S
C679 H655 0.950 . S
C679 C678 1.524 . S
C679 C680 1.415 . S
C680 H656 0.950 . S
C680 C675 1.363 . S
C680 C679 1.415 . S
C681 H657 0.951 . S
C681 C682 1.366 . S
C681 C683 1.388 . S
C682 C681 1.366 . S
C682 C686 1.385 . S
C683 H658 0.951 . S
C683 C681 1.388 . S
C683 C684 1.366 . S
C684 C683 1.366 . S
C684 C685 1.414 . S
C684 C687 1.499 . S
C685 H659 0.950 . S
C685 C684 1.414 . S
C685 C686 1.374 . S
C686 H660 0.950 . S
C686 C682 1.385 . S
C686 C685 1.374 . S
C687 C684 1.499 . S
C687 C688 1.373 . S
C687 C689 1.389 . S
C688 H661 0.950 . S
C688 C674 1.377 . S
C688 C687 1.373 . S
C689 C673 1.377 . S
C689 C687 1.389 . S
C689 C690 1.524 . S
C690 C689 1.524 . S
C690 C691 1.397 . S
C690 C695 1.363 . S
C691 H662 0.950 . S
C691 C690 1.397 . S
C691 C692 1.334 . S
C692 H663 0.950 . S
C692 C691 1.334 . S
C692 C693 1.287 . S
C693 C692 1.287 . S
C693 C694 1.524 . S
C693 H696 0.999 . S
C694 H664 0.950 . S
C694 C693 1.524 . S
C694 C695 1.415 . S
C695 H665 0.950 . S
C695 C690 1.363 . S
C695 C694 1.415 . S
H696 C693 0.999 . S
H697 C678 0.913 . S
H698 C716 0.951 . S
H699 C718 0.951 . S
H700 C720 0.950 . S
H701 C721 0.950 . S
H702 C723 0.950 . S
H703 C726 0.950 . S
H704 C727 0.950 . S
H705 C729 0.950 . S
H706 C730 0.950 . S
H707 C731 0.951 . S
H708 C733 0.951 . S
H709 C735 0.950 . S
H710 C736 0.950 . S
H711 C738 0.950 . S
H712 C741 0.950 . S
H713 C742 0.950 . S
H714 C744 0.950 . S
H715 C745 0.950 . S
C716 H698 0.951 . S
C716 C717 1.366 . S
C716 C718 1.388 . S
C717 C716 1.366 . S
C717 C721 1.385 . S
C718 H699 0.951 . S
C718 C716 1.388 . S
C718 C719 1.366 . S
C719 C718 1.366 . S
C719 C720 1.414 . S
C719 C722 1.499 . S
C720 H700 0.950 . S
C720 C719 1.414 . S
C720 C721 1.374 . S
C721 H701 0.950 . S
C721 C717 1.385 . S
C721 C720 1.374 . S
C722 C719 1.499 . S
C722 C723 1.373 . S
C722 C724 1.389 . S
C723 H702 0.950 . S
C723 C722 1.373 . S
C723 C739 1.377 . S
C724 C722 1.389 . S
C724 C725 1.524 . S
C724 C738 1.377 . S
C725 C724 1.524 . S
C725 C726 1.397 . S
C725 C730 1.363 . S
C726 H703 0.950 . S
C726 C725 1.397 . S
C726 C727 1.334 . S
C727 H704 0.950 . S
C727 C726 1.334 . S
C727 C728 1.287 . S
C728 C727 1.287 . S
C728 C729 1.524 . S
C728 H747 0.913 . S
C729 H705 0.950 . S
C729 C728 1.524 . S
C729 C730 1.415 . S
C730 H706 0.950 . S
C730 C725 1.363 . S
C730 C729 1.415 . S
C731 H707 0.951 . S
C731 C732 1.366 . S
C731 C733 1.388 . S
C732 C731 1.366 . S
C732 C736 1.385 . S
C733 H708 0.951 . S
C733 C731 1.388 . S
C733 C734 1.366 . S
C734 C733 1.366 . S
C734 C735 1.414 . S
C734 C737 1.499 . S
C735 H709 0.950 . S
C735 C734 1.414 . S
C735 C736 1.374 . S
C736 H710 0.950 . S
C736 C732 1.385 . S
C736 C735 1.374 . S
C737 C734 1.499 . S
C737 C738 1.373 . S
C737 C739 1.389 . S
C738 H711 0.950 . S
C738 C724 1.377 . S
C738 C737 1.373 . S
C739 C723 1.377 . S
C739 C737 1.389 . S
C739 C740 1.524 . S
C740 C739 1.524 . S
C740 C741 1.397 . S
C740 C745 1.363 . S
C741 H712 0.950 . S
C741 C740 1.397 . S
C741 C742 1.334 . S
C742 H713 0.950 . S
C742 C741 1.334 . S
C742 C743 1.287 . S
C743 C742 1.287 . S
C743 C744 1.524 . S
C743 H746 0.999 . S
C744 H714 0.950 . S
C744 C743 1.524 . S
C744 C745 1.415 . S
C745 H715 0.950 . S
C745 C740 1.363 . S
C745 C744 1.415 . S
H746 C743 0.999 . S
H747 C728 0.913 . S
H748 C766 0.951 . S
H749 C768 0.951 . S
H750 C770 0.950 . S
H751 C771 0.950 . S
H752 C773 0.950 . S
H753 C776 0.950 . S
H754 C777 0.950 . S
H755 C779 0.950 . S
H756 C780 0.950 . S
H757 C781 0.951 . S
H758 C783 0.951 . S
H759 C785 0.950 . S
H760 C786 0.950 . S
H761 C788 0.950 . S
H762 C791 0.950 . S
H763 C792 0.950 . S
H764 C794 0.950 . S
H765 C795 0.950 . S
C766 H748 0.951 . S
C766 C767 1.366 . S
C766 C768 1.388 . S
C767 C766 1.366 . S
C767 C771 1.385 . S
C768 H749 0.951 . S
C768 C766 1.388 . S
C768 C769 1.366 . S
C769 C768 1.366 . S
C769 C770 1.414 . S
C769 C772 1.499 . S
C770 H750 0.950 . S
C770 C769 1.414 . S
C770 C771 1.374 . S
C771 H751 0.950 . S
C771 C767 1.385 . S
C771 C770 1.374 . S
C772 C769 1.499 . S
C772 C773 1.373 . S
C772 C774 1.389 . S
C773 H752 0.950 . S
C773 C772 1.373 . S
C773 C789 1.377 . S
C774 C772 1.389 . S
C774 C775 1.524 . S
C774 C788 1.377 . S
C775 C774 1.524 . S
C775 C776 1.397 . S
C775 C780 1.363 . S
C776 H753 0.950 . S
C776 C775 1.397 . S
C776 C777 1.334 . S
C777 H754 0.950 . S
C777 C776 1.334 . S
C777 C778 1.287 . S
C778 C777 1.287 . S
C778 C779 1.524 . S
C778 H797 0.913 . S
C779 H755 0.950 . S
C779 C778 1.524 . S
C779 C780 1.415 . S
C780 H756 0.950 . S
C780 C775 1.363 . S
C780 C779 1.415 . S
C781 H757 0.951 . S
C781 C782 1.366 . S
C781 C783 1.388 . S
C782 C781 1.366 . S
C782 C786 1.385 . S
C783 H758 0.951 . S
C783 C781 1.388 . S
C783 C784 1.366 . S
C784 C783 1.366 . S
C784 C785 1.414 . S
C784 C787 1.499 . S
C785 H759 0.950 . S
C785 C784 1.414 . S
C785 C786 1.374 . S
C786 H760 0.950 . S
C786 C782 1.385 . S
C786 C785 1.374 . S
C787 C784 1.499 . S
C787 C788 1.373 . S
C787 C789 1.389 . S
C788 H761 0.950 . S
C788 C774 1.377 . S
C788 C787 1.373 . S
C789 C773 1.377 . S
C789 C787 1.389 . S
C789 C790 1.524 . S
C790 C789 1.524 . S
C790 C791 1.397 . S
C790 C795 1.363 . S
C791 H762 0.950 . S
C791 C790 1.397 . S
C791 C792 1.334 . S
C792 H763 0.950 . S
C792 C791 1.334 . S
C792 C793 1.287 . S
C793 C792 1.287 . S
C793 C794 1.524 . S
C793 H796 0.999 . S
C794 H764 0.950 . S
C794 C793 1.524 . S
C794 C795 1.415 . S
C795 H765 0.950 . S
C795 C790 1.363 . S
C795 C794 1.415 . S
H796 C793 0.999 . S
H797 C778 0.913 . S
H798 C816 0.951 . S
H799 C818 0.951 . S
H800 C820 0.950 . S
H801 C821 0.950 . S
H802 C823 0.950 . S
H803 C826 0.950 . S
H804 C827 0.950 . S
H805 C829 0.950 . S
H806 C830 0.950 . S
H807 C831 0.951 . S
H808 C833 0.951 . S
H809 C835 0.950 . S
H810 C836 0.950 . S
H811 C838 0.950 . S
H812 C841 0.950 . S
H813 C842 0.950 . S
H814 C844 0.950 . S
H815 C845 0.950 . S
C816 H798 0.951 . S
C816 C817 1.366 . S
C816 C818 1.388 . S
C817 C816 1.366 . S
C817 C821 1.385 . S
C818 H799 0.951 . S
C818 C816 1.388 . S
C818 C819 1.366 . S
C819 C818 1.366 . S
C819 C820 1.414 . S
C819 C822 1.499 . S
C820 H800 0.950 . S
C820 C819 1.414 . S
C820 C821 1.374 . S
C821 H801 0.950 . S
C821 C817 1.385 . S
C821 C820 1.374 . S
C822 C819 1.499 . S
C822 C823 1.373 . S
C822 C824 1.389 . S
C823 H802 0.950 . S
C823 C822 1.373 . S
C823 C839 1.377 . S
C824 C822 1.389 . S
C824 C825 1.524 . S
C824 C838 1.377 . S
C825 C824 1.524 . S
C825 C826 1.397 . S
C825 C830 1.363 . S
C826 H803 0.950 . S
C826 C825 1.397 . S
C826 C827 1.334 . S
C827 H804 0.950 . S
C827 C826 1.334 . S
C827 C828 1.287 . S
C828 C827 1.287 . S
C828 C829 1.524 . S
C828 H847 0.913 . S
C829 H805 0.950 . S
C829 C828 1.524 . S
C829 C830 1.415 . S
C830 H806 0.950 . S
C830 C825 1.363 . S
C830 C829 1.415 . S
C831 H807 0.951 . S
C831 C832 1.366 . S
C831 C833 1.388 . S
C832 C831 1.366 . S
C832 C836 1.385 . S
C833 H808 0.951 . S
C833 C831 1.388 . S
C833 C834 1.366 . S
C834 C833 1.366 . S
C834 C835 1.414 . S
C834 C837 1.499 . S
C835 H809 0.950 . S
C835 C834 1.414 . S
C835 C836 1.374 . S
C836 H810 0.950 . S
C836 C832 1.385 . S
C836 C835 1.374 . S
C837 C834 1.499 . S
C837 C838 1.373 . S
C837 C839 1.389 . S
C838 H811 0.950 . S
C838 C824 1.377 . S
C838 C837 1.373 . S
C839 C823 1.377 . S
C839 C837 1.389 . S
C839 C840 1.524 . S
C840 C839 1.524 . S
C840 C841 1.397 . S
C840 C845 1.363 . S
C841 H812 0.950 . S
C841 C840 1.397 . S
C841 C842 1.334 . S
C842 H813 0.950 . S
C842 C841 1.334 . S
C842 C843 1.287 . S
C843 C842 1.287 . S
C843 C844 1.524 . S
C843 H846 0.999 . S
C844 H814 0.950 . S
C844 C843 1.524 . S
C844 C845 1.415 . S
C845 H815 0.950 . S
C845 C840 1.363 . S
C845 C844 1.415 . S
H846 C843 0.999 . S
H847 C828 0.913 . S
H848 C866 0.951 . S
H849 C868 0.951 . S
H850 C870 0.950 . S
H851 C871 0.950 . S
H852 C873 0.950 . S
H853 C876 0.950 . S
H854 C877 0.950 . S
H855 C879 0.950 1_565 S
H856 C880 0.950 . S
H857 C881 0.951 . S
H858 C883 0.951 . S
H859 C885 0.950 . S
H860 C886 0.950 . S
H861 C888 0.950 . S
H862 C891 0.950 . S
H863 C892 0.950 . S
H864 C894 0.950 . S
H865 C895 0.950 . S
C866 H848 0.951 . S
C866 C867 1.366 . S
C866 C868 1.388 . S
C867 C866 1.366 . S
C867 C871 1.385 . S
C868 H849 0.951 . S
C868 C866 1.388 . S
C868 C869 1.366 . S
C869 C868 1.366 . S
C869 C870 1.414 . S
C869 C872 1.499 . S
C870 H850 0.950 . S
C870 C869 1.414 . S
C870 C871 1.374 . S
C871 H851 0.950 . S
C871 C867 1.385 . S
C871 C870 1.374 . S
C872 C869 1.499 . S
C872 C873 1.373 . S
C872 C874 1.389 . S
C873 H852 0.950 . S
C873 C872 1.373 . S
C873 C889 1.377 . S
C874 C872 1.389 . S
C874 C875 1.524 . S
C874 C888 1.377 . S
C875 C874 1.524 . S
C875 C876 1.397 . S
C875 C880 1.363 . S
C876 H853 0.950 . S
C876 C875 1.397 . S
C876 C877 1.334 . S
C877 H854 0.950 . S
C877 C876 1.334 . S
C877 C878 1.287 . S
C878 C877 1.287 . S
C878 C879 1.524 . S
C878 H897 0.913 . S
C879 H855 0.950 1_545 S
C879 C878 1.524 . S
C879 C880 1.415 . S
C880 H856 0.950 . S
C880 C875 1.363 . S
C880 C879 1.415 . S
C881 H857 0.951 . S
C881 C882 1.366 . S
C881 C883 1.388 . S
C882 C881 1.366 . S
C882 C886 1.385 . S
C883 H858 0.951 . S
C883 C881 1.388 . S
C883 C884 1.366 . S
C884 C883 1.366 . S
C884 C885 1.414 . S
C884 C887 1.499 . S
C885 H859 0.950 . S
C885 C884 1.414 . S
C885 C886 1.374 . S
C886 H860 0.950 . S
C886 C882 1.385 . S
C886 C885 1.374 . S
C887 C884 1.499 . S
C887 C888 1.373 . S
C887 C889 1.389 . S
C888 H861 0.950 . S
C888 C874 1.377 . S
C888 C887 1.373 . S
C889 C873 1.377 . S
C889 C887 1.389 . S
C889 C890 1.524 . S
C890 C889 1.524 . S
C890 C891 1.397 . S
C890 C895 1.363 . S
C891 H862 0.950 . S
C891 C890 1.397 . S
C891 C892 1.334 . S
C892 H863 0.950 . S
C892 C891 1.334 . S
C892 C893 1.287 . S
C893 C892 1.287 . S
C893 C894 1.524 . S
C893 H896 0.999 . S
C894 H864 0.950 . S
C894 C893 1.524 . S
C894 C895 1.415 . S
C895 H865 0.950 . S
C895 C890 1.363 . S
C895 C894 1.415 . S
H896 C893 0.999 . S
H897 C878 0.913 . S
H898 C916 0.951 . S
H899 C918 0.951 . S
H900 C920 0.950 . S
H901 C921 0.950 . S
H902 C923 0.950 . S
H903 C926 0.950 . S
H904 C927 0.950 . S
H905 C929 0.950 . S
H906 C930 0.950 . S
H907 C931 0.951 . S
H908 C933 0.951 . S
H909 C935 0.950 . S
H910 C936 0.950 . S
H911 C938 0.950 . S
H912 C941 0.950 . S
H913 C942 0.950 . S
H914 C944 0.950 1_565 S
H915 C945 0.950 . S
C916 H898 0.951 . S
C916 C917 1.366 . S
C916 C918 1.388 . S
C917 C916 1.366 . S
C917 C921 1.385 . S
C918 H899 0.951 . S
C918 C916 1.388 . S
C918 C919 1.366 . S
C919 C918 1.366 . S
C919 C920 1.414 . S
C919 C922 1.499 . S
C920 H900 0.950 . S
C920 C919 1.414 . S
C920 C921 1.374 . S
C921 H901 0.950 . S
C921 C917 1.385 . S
C921 C920 1.374 . S
C922 C919 1.499 . S
C922 C923 1.373 . S
C922 C924 1.389 . S
C923 H902 0.950 . S
C923 C922 1.373 . S
C923 C939 1.377 . S
C924 C922 1.389 . S
C924 C925 1.524 . S
C924 C938 1.377 . S
C925 C924 1.524 . S
C925 C926 1.397 . S
C925 C930 1.363 . S
C926 H903 0.950 . S
C926 C925 1.397 . S
C926 C927 1.334 . S
C927 H904 0.950 . S
C927 C926 1.334 . S
C927 C928 1.287 . S
C928 C927 1.287 . S
C928 C929 1.524 . S
C928 H947 0.913 . S
C929 H905 0.950 . S
C929 C928 1.524 . S
C929 C930 1.415 . S
C930 H906 0.950 . S
C930 C925 1.363 . S
C930 C929 1.415 . S
C931 H907 0.951 . S
C931 C932 1.366 . S
C931 C933 1.388 . S
C932 C931 1.366 . S
C932 C936 1.385 . S
C933 H908 0.951 . S
C933 C931 1.388 . S
C933 C934 1.366 . S
C934 C933 1.366 . S
C934 C935 1.414 . S
C934 C937 1.499 . S
C935 H909 0.950 . S
C935 C934 1.414 . S
C935 C936 1.374 . S
C936 H910 0.950 . S
C936 C932 1.385 . S
C936 C935 1.374 . S
C937 C934 1.499 . S
C937 C938 1.373 . S
C937 C939 1.389 . S
C938 H911 0.950 . S
C938 C924 1.377 . S
C938 C937 1.373 . S
C939 C923 1.377 . S
C939 C937 1.389 . S
C939 C940 1.524 . S
C940 C939 1.524 . S
C940 C941 1.397 . S
C940 C945 1.363 . S
C941 H912 0.950 . S
C941 C940 1.397 . S
C941 C942 1.334 . S
C942 H913 0.950 . S
C942 C941 1.334 . S
C942 C943 1.287 . S
C943 C942 1.287 . S
C943 C944 1.524 . S
C943 H946 0.999 . S
C944 H914 0.950 1_545 S
C944 C943 1.524 . S
C944 C945 1.415 . S
C945 H915 0.950 . S
C945 C940 1.363 . S
C945 C944 1.415 . S
H946 C943 0.999 . S
H947 C928 0.913 . S
H948 C966 0.951 . S
H949 C968 0.951 . S
H950 C970 0.950 . S
H951 C971 0.950 . S
H952 C973 0.950 . S
H953 C976 0.950 . S
H954 C977 0.950 . S
H955 C979 0.950 . S
H956 C980 0.950 . S
H957 C981 0.951 . S
H958 C983 0.951 . S
H959 C985 0.950 . S
H960 C986 0.950 . S
H961 C988 0.950 . S
H962 C991 0.950 . S
H963 C992 0.950 . S
H964 C994 0.950 . S
H965 C995 0.950 . S
C966 H948 0.951 . S
C966 C967 1.366 . S
C966 C968 1.388 . S
C967 C966 1.366 . S
C967 C971 1.385 . S
C968 H949 0.951 . S
C968 C966 1.388 . S
C968 C969 1.366 . S
C969 C968 1.366 . S
C969 C970 1.414 . S
C969 C972 1.499 . S
C970 H950 0.950 . S
C970 C969 1.414 . S
C970 C971 1.374 . S
C971 H951 0.950 . S
C971 C967 1.385 . S
C971 C970 1.374 . S
C972 C969 1.499 . S
C972 C973 1.373 . S
C972 C974 1.389 . S
C973 H952 0.950 . S
C973 C972 1.373 . S
C973 C989 1.377 . S
C974 C972 1.389 . S
C974 C975 1.524 . S
C974 C988 1.377 . S
C975 C974 1.524 . S
C975 C976 1.397 . S
C975 C980 1.363 . S
C976 H953 0.950 . S
C976 C975 1.397 . S
C976 C977 1.334 . S
C977 H954 0.950 . S
C977 C976 1.334 . S
C977 C978 1.287 . S
C978 C977 1.287 . S
C978 C979 1.524 . S
C978 H997 0.913 . S
C979 H955 0.950 . S
C979 C978 1.524 . S
C979 C980 1.415 . S
C980 H956 0.950 . S
C980 C975 1.363 . S
C980 C979 1.415 . S
C981 H957 0.951 . S
C981 C982 1.366 . S
C981 C983 1.388 . S
C982 C981 1.366 . S
C982 C986 1.385 . S
C983 H958 0.951 . S
C983 C981 1.388 . S
C983 C984 1.366 . S
C984 C983 1.366 . S
C984 C985 1.414 . S
C984 C987 1.499 . S
C985 H959 0.950 . S
C985 C984 1.414 . S
C985 C986 1.374 . S
C986 H960 0.950 . S
C986 C982 1.385 . S
C986 C985 1.374 . S
C987 C984 1.499 . S
C987 C988 1.373 . S
C987 C989 1.389 . S
C988 H961 0.950 . S
C988 C974 1.377 . S
C988 C987 1.373 . S
C989 C973 1.377 . S
C989 C987 1.389 . S
C989 C990 1.524 . S
C990 C989 1.524 . S
C990 C991 1.397 . S
C990 C995 1.363 . S
C991 H962 0.950 . S
C991 C990 1.397 . S
C991 C992 1.334 . S
C992 H963 0.950 . S
C992 C991 1.334 . S
C992 C993 1.287 1_565 S
C993 C992 1.287 1_545 S
C993 C994 1.524 . S
C993 H996 0.999 . S
C994 H964 0.950 . S
C994 C993 1.524 . S
C994 C995 1.415 1_545 S
C995 H965 0.950 . S
C995 C990 1.363 . S
C995 C994 1.415 1_565 S
H996 C993 0.999 . S
H997 C978 0.913 . S
H998 C1016 0.951 . S
H999 C1018 0.951 . S
H1000 C1020 0.950 . S
H1001 C1021 0.950 . S
H1002 C1023 0.950 . S
H1003 C1026 0.950 . S
H1004 C1027 0.950 . S
H1005 C1029 0.950 . S
H1006 C1030 0.950 . S
H1007 C1031 0.951 . S
H1008 C1033 0.951 . S
H1009 C1035 0.950 . S
H1010 C1036 0.950 . S
H1011 C1038 0.950 . S
H1012 C1041 0.950 . S
H1013 C1042 0.950 . S
H1014 C1044 0.950 1_545 S
H1015 C1045 0.950 . S
C1016 H998 0.951 . S
C1016 C1017 1.366 . S
C1016 C1018 1.388 . S
C1017 C1016 1.366 . S
C1017 C1021 1.385 . S
C1018 H999 0.951 . S
C1018 C1016 1.388 . S
C1018 C1019 1.366 . S
C1019 C1018 1.366 . S
C1019 C1020 1.414 . S
C1019 C1022 1.499 . S
C1020 H1000 0.950 . S
C1020 C1019 1.414 . S
C1020 C1021 1.374 . S
C1021 H1001 0.950 . S
C1021 C1017 1.385 . S
C1021 C1020 1.374 . S
C1022 C1019 1.499 . S
C1022 C1023 1.373 . S
C1022 C1024 1.389 . S
C1023 H1002 0.950 . S
C1023 C1022 1.373 . S
C1023 C1039 1.377 . S
C1024 C1022 1.389 . S
C1024 C1025 1.524 . S
C1024 C1038 1.377 . S
C1025 C1024 1.524 . S
C1025 C1026 1.397 . S
C1025 C1030 1.363 . S
C1026 H1003 0.950 . S
C1026 C1025 1.397 . S
C1026 C1027 1.334 . S
C1027 H1004 0.950 . S
C1027 C1026 1.334 . S
C1027 C1028 1.287 . S
C1028 C1027 1.287 . S
C1028 C1029 1.524 . S
C1028 H1047 0.913 . S
C1029 H1005 0.950 . S
C1029 C1028 1.524 . S
C1029 C1030 1.415 . S
C1030 H1006 0.950 . S
C1030 C1025 1.363 . S
C1030 C1029 1.415 . S
C1031 H1007 0.951 . S
C1031 C1032 1.366 . S
C1031 C1033 1.388 . S
C1032 C1031 1.366 . S
C1032 C1036 1.385 . S
C1033 H1008 0.951 . S
C1033 C1031 1.388 . S
C1033 C1034 1.366 . S
C1034 C1033 1.366 . S
C1034 C1035 1.414 . S
C1034 C1037 1.499 . S
C1035 H1009 0.950 . S
C1035 C1034 1.414 . S
C1035 C1036 1.374 . S
C1036 H1010 0.950 . S
C1036 C1032 1.385 . S
C1036 C1035 1.374 . S
C1037 C1034 1.499 . S
C1037 C1038 1.373 . S
C1037 C1039 1.389 . S
C1038 H1011 0.950 . S
C1038 C1024 1.377 . S
C1038 C1037 1.373 . S
C1039 C1023 1.377 . S
C1039 C1037 1.389 . S
C1039 C1040 1.524 . S
C1040 C1039 1.524 . S
C1040 C1041 1.397 . S
C1040 C1045 1.363 . S
C1041 H1012 0.950 . S
C1041 C1040 1.397 . S
C1041 C1042 1.334 . S
C1042 H1013 0.950 . S
C1042 C1041 1.334 . S
C1042 C1043 1.287 . S
C1043 C1042 1.287 . S
C1043 C1044 1.524 . S
C1043 H1046 0.999 . S
C1044 H1014 0.950 1_565 S
C1044 C1043 1.524 . S
C1044 C1045 1.415 . S
C1045 H1015 0.950 . S
C1045 C1040 1.363 . S
C1045 C1044 1.415 . S
H1046 C1043 0.999 . S
H1047 C1028 0.913 . S
H1048 C1066 0.951 . S
H1049 C1068 0.951 . S
H1050 C1070 0.950 . S
H1051 C1071 0.950 . S
H1052 C1073 0.950 . S
H1053 C1076 0.950 . S
H1054 C1077 0.950 . S
H1055 C1079 0.950 . S
H1056 C1080 0.950 . S
H1057 C1081 0.951 . S
H1058 C1083 0.951 . S
H1059 C1085 0.950 . S
H1060 C1086 0.950 . S
H1061 C1088 0.950 . S
H1062 C1091 0.950 . S
H1063 C1092 0.950 . S
H1064 C1094 0.950 . S
H1065 C1095 0.950 . S
C1066 H1048 0.951 . S
C1066 C1067 1.366 . S
C1066 C1068 1.388 . S
C1067 C1066 1.366 . S
C1067 C1071 1.385 . S
C1068 H1049 0.951 . S
C1068 C1066 1.388 . S
C1068 C1069 1.366 . S
C1069 C1068 1.366 . S
C1069 C1070 1.414 . S
C1069 C1072 1.499 . S
C1070 H1050 0.950 . S
C1070 C1069 1.414 . S
C1070 C1071 1.374 . S
C1071 H1051 0.950 . S
C1071 C1067 1.385 . S
C1071 C1070 1.374 . S
C1072 C1069 1.499 . S
C1072 C1073 1.373 . S
C1072 C1074 1.389 . S
C1073 H1052 0.950 . S
C1073 C1072 1.373 . S
C1073 C1089 1.377 . S
C1074 C1072 1.389 . S
C1074 C1075 1.524 . S
C1074 C1088 1.377 . S
C1075 C1074 1.524 . S
C1075 C1076 1.397 . S
C1075 C1080 1.363 . S
C1076 H1053 0.950 . S
C1076 C1075 1.397 . S
C1076 C1077 1.334 . S
C1077 H1054 0.950 . S
C1077 C1076 1.334 . S
C1077 C1078 1.287 . S
C1078 C1077 1.287 . S
C1078 C1079 1.524 . S
C1078 H1097 0.913 . S
C1079 H1055 0.950 . S
C1079 C1078 1.524 . S
C1079 C1080 1.415 . S
C1080 H1056 0.950 . S
C1080 C1075 1.363 . S
C1080 C1079 1.415 . S
C1081 H1057 0.951 . S
C1081 C1082 1.366 . S
C1081 C1083 1.388 . S
C1082 C1081 1.366 . S
C1082 C1086 1.385 . S
C1083 H1058 0.951 . S
C1083 C1081 1.388 . S
C1083 C1084 1.366 . S
C1084 C1083 1.366 . S
C1084 C1085 1.414 . S
C1084 C1087 1.499 . S
C1085 H1059 0.950 . S
C1085 C1084 1.414 . S
C1085 C1086 1.374 . S
C1086 H1060 0.950 . S
C1086 C1082 1.385 . S
C1086 C1085 1.374 . S
C1087 C1084 1.499 . S
C1087 C1088 1.373 . S
C1087 C1089 1.389 . S
C1088 H1061 0.950 . S
C1088 C1074 1.377 . S
C1088 C1087 1.373 . S
C1089 C1073 1.377 . S
C1089 C1087 1.389 . S
C1089 C1090 1.524 . S
C1090 C1089 1.524 . S
C1090 C1091 1.397 . S
C1090 C1095 1.363 . S
C1091 H1062 0.950 . S
C1091 C1090 1.397 . S
C1091 C1092 1.334 . S
C1092 H1063 0.950 . S
C1092 C1091 1.334 . S
C1092 C1093 1.287 . S
C1093 C1092 1.287 . S
C1093 C1094 1.524 . S
C1093 H1096 0.999 . S
C1094 H1064 0.950 . S
C1094 C1093 1.524 . S
C1094 C1095 1.415 . S
C1095 H1065 0.950 . S
C1095 C1090 1.363 . S
C1095 C1094 1.415 . S
H1096 C1093 0.999 . S
H1097 C1078 0.913 . S
H1098 C1116 0.951 . S
H1099 C1118 0.951 . S
H1100 C1120 0.950 . S
H1101 C1121 0.950 . S
H1102 C1123 0.950 . S
H1103 C1126 0.950 . S
H1104 C1127 0.950 . S
H1105 C1129 0.950 . S
H1106 C1130 0.950 . S
H1107 C1131 0.951 . S
H1108 C1133 0.951 . S
H1109 C1135 0.950 . S
H1110 C1136 0.950 . S
H1111 C1138 0.950 . S
H1112 C1141 0.950 . S
H1113 C1142 0.950 . S
H1114 C1144 0.950 . S
H1115 C1145 0.950 . S
C1116 H1098 0.951 . S
C1116 C1117 1.366 . S
C1116 C1118 1.388 . S
C1117 C1116 1.366 . S
C1117 C1121 1.385 . S
C1118 H1099 0.951 . S
C1118 C1116 1.388 . S
C1118 C1119 1.366 . S
C1119 C1118 1.366 . S
C1119 C1120 1.414 . S
C1119 C1122 1.499 . S
C1120 H1100 0.950 . S
C1120 C1119 1.414 . S
C1120 C1121 1.374 . S
C1121 H1101 0.950 . S
C1121 C1117 1.385 . S
C1121 C1120 1.374 . S
C1122 C1119 1.499 . S
C1122 C1123 1.373 . S
C1122 C1124 1.389 . S
C1123 H1102 0.950 . S
C1123 C1122 1.373 . S
C1123 C1139 1.377 . S
C1124 C1122 1.389 . S
C1124 C1125 1.524 . S
C1124 C1138 1.377 . S
C1125 C1124 1.524 . S
C1125 C1126 1.397 . S
C1125 C1130 1.363 . S
C1126 H1103 0.950 . S
C1126 C1125 1.397 . S
C1126 C1127 1.334 . S
C1127 H1104 0.950 . S
C1127 C1126 1.334 . S
C1127 C1128 1.287 . S
C1128 C1127 1.287 . S
C1128 C1129 1.524 . S
C1128 H1147 0.913 . S
C1129 H1105 0.950 . S
C1129 C1128 1.524 . S
C1129 C1130 1.415 . S
C1130 H1106 0.950 . S
C1130 C1125 1.363 . S
C1130 C1129 1.415 . S
C1131 H1107 0.951 . S
C1131 C1132 1.366 . S
C1131 C1133 1.388 . S
C1132 C1131 1.366 . S
C1132 C1136 1.385 . S
C1133 H1108 0.951 . S
C1133 C1131 1.388 . S
C1133 C1134 1.366 . S
C1134 C1133 1.366 . S
C1134 C1135 1.414 . S
C1134 C1137 1.499 . S
C1135 H1109 0.950 . S
C1135 C1134 1.414 . S
C1135 C1136 1.374 . S
C1136 H1110 0.950 . S
C1136 C1132 1.385 . S
C1136 C1135 1.374 . S
C1137 C1134 1.499 . S
C1137 C1138 1.373 . S
C1137 C1139 1.389 . S
C1138 H1111 0.950 . S
C1138 C1124 1.377 . S
C1138 C1137 1.373 . S
C1139 C1123 1.377 . S
C1139 C1137 1.389 . S
C1139 C1140 1.524 . S
C1140 C1139 1.524 . S
C1140 C1141 1.397 . S
C1140 C1145 1.363 . S
C1141 H1112 0.950 . S
C1141 C1140 1.397 . S
C1141 C1142 1.334 . S
C1142 H1113 0.950 . S
C1142 C1141 1.334 . S
C1142 C1143 1.287 . S
C1143 C1142 1.287 . S
C1143 C1144 1.524 . S
C1143 H1146 0.999 . S
C1144 H1114 0.950 . S
C1144 C1143 1.524 . S
C1144 C1145 1.415 . S
C1145 H1115 0.950 . S
C1145 C1140 1.363 . S
C1145 C1144 1.415 . S
H1146 C1143 0.999 . S
H1147 C1128 0.913 . S
H1148 C1166 0.951 . S
H1149 C1168 0.951 . S
H1150 C1170 0.950 . S
H1151 C1171 0.950 . S
H1152 C1173 0.950 . S
H1153 C1176 0.950 . S
H1154 C1177 0.950 . S
H1155 C1179 0.950 . S
H1156 C1180 0.950 . S
H1157 C1181 0.951 . S
H1158 C1183 0.951 . S
H1159 C1185 0.950 . S
H1160 C1186 0.950 . S
H1161 C1188 0.950 . S
H1162 C1191 0.950 . S
H1163 C1192 0.950 . S
H1164 C1194 0.950 . S
H1165 C1195 0.950 . S
C1166 H1148 0.951 . S
C1166 C1167 1.366 . S
C1166 C1168 1.388 . S
C1167 C1166 1.366 . S
C1167 C1171 1.385 . S
C1168 H1149 0.951 . S
C1168 C1166 1.388 . S
C1168 C1169 1.366 . S
C1169 C1168 1.366 . S
C1169 C1170 1.414 . S
C1169 C1172 1.499 . S
C1170 H1150 0.950 . S
C1170 C1169 1.414 . S
C1170 C1171 1.374 . S
C1171 H1151 0.950 . S
C1171 C1167 1.385 . S
C1171 C1170 1.374 . S
C1172 C1169 1.499 . S
C1172 C1173 1.373 . S
C1172 C1174 1.389 . S
C1173 H1152 0.950 . S
C1173 C1172 1.373 . S
C1173 C1189 1.377 . S
C1174 C1172 1.389 . S
C1174 C1175 1.524 . S
C1174 C1188 1.377 . S
C1175 C1174 1.524 . S
C1175 C1176 1.397 . S
C1175 C1180 1.363 . S
C1176 H1153 0.950 . S
C1176 C1175 1.397 . S
C1176 C1177 1.334 . S
C1177 H1154 0.950 . S
C1177 C1176 1.334 . S
C1177 C1178 1.287 . S
C1178 C1177 1.287 . S
C1178 C1179 1.524 . S
C1178 H1197 0.913 . S
C1179 H1155 0.950 . S
C1179 C1178 1.524 . S
C1179 C1180 1.415 . S
C1180 H1156 0.950 . S
C1180 C1175 1.363 . S
C1180 C1179 1.415 . S
C1181 H1157 0.951 . S
C1181 C1182 1.366 . S
C1181 C1183 1.388 . S
C1182 C1181 1.366 . S
C1182 C1186 1.385 . S
C1183 H1158 0.951 . S
C1183 C1181 1.388 . S
C1183 C1184 1.366 . S
C1184 C1183 1.366 . S
C1184 C1185 1.414 . S
C1184 C1187 1.499 . S
C1185 H1159 0.950 . S
C1185 C1184 1.414 . S
C1185 C1186 1.374 . S
C1186 H1160 0.950 . S
C1186 C1182 1.385 . S
C1186 C1185 1.374 . S
C1187 C1184 1.499 . S
C1187 C1188 1.373 . S
C1187 C1189 1.389 . S
C1188 H1161 0.950 . S
C1188 C1174 1.377 . S
C1188 C1187 1.373 . S
C1189 C1173 1.377 . S
C1189 C1187 1.389 . S
C1189 C1190 1.524 . S
C1190 C1189 1.524 . S
C1190 C1191 1.397 . S
C1190 C1195 1.363 . S
C1191 H1162 0.950 . S
C1191 C1190 1.397 . S
C1191 C1192 1.334 . S
C1192 H1163 0.950 . S
C1192 C1191 1.334 . S
C1192 C1193 1.287 . S
C1193 C1192 1.287 . S
C1193 C1194 1.524 . S
C1193 H1196 0.999 . S
C1194 H1164 0.950 . S
C1194 C1193 1.524 . S
C1194 C1195 1.415 . S
C1195 H1165 0.950 . S
C1195 C1190 1.363 . S
C1195 C1194 1.415 . S
H1196 C1193 0.999 . S
H1197 C1178 0.913 . S
H1198 C1216 0.951 . S
H1199 C1218 0.951 . S
H1200 C1220 0.950 . S
H1201 C1221 0.950 . S
H1202 C1223 0.950 . S
H1203 C1226 0.950 . S
H1204 C1227 0.950 . S
H1205 C1229 0.950 . S
H1206 C1230 0.950 . S
H1207 C1231 0.951 . S
H1208 C1233 0.951 . S
H1209 C1235 0.950 . S
H1210 C1236 0.950 . S
H1211 C1238 0.950 . S
H1212 C1241 0.950 . S
H1213 C1242 0.950 . S
H1214 C1244 0.950 . S
H1215 C1245 0.950 . S
C1216 H1198 0.951 . S
C1216 C1217 1.366 . S
C1216 C1218 1.388 . S
C1217 C1216 1.366 . S
C1217 C1221 1.385 . S
C1218 H1199 0.951 . S
C1218 C1216 1.388 . S
C1218 C1219 1.366 . S
C1219 C1218 1.366 . S
C1219 C1220 1.414 . S
C1219 C1222 1.499 . S
C1220 H1200 0.950 . S
C1220 C1219 1.414 . S
C1220 C1221 1.374 . S
C1221 H1201 0.950 . S
C1221 C1217 1.385 . S
C1221 C1220 1.374 . S
C1222 C1219 1.499 . S
C1222 C1223 1.373 . S
C1222 C1224 1.389 . S
C1223 H1202 0.950 . S
C1223 C1222 1.373 . S
C1223 C1239 1.377 . S
C1224 C1222 1.389 . S
C1224 C1225 1.524 . S
C1224 C1238 1.377 . S
C1225 C1224 1.524 . S
C1225 C1226 1.397 . S
C1225 C1230 1.363 . S
C1226 H1203 0.950 . S
C1226 C1225 1.397 . S
C1226 C1227 1.334 . S
C1227 H1204 0.950 . S
C1227 C1226 1.334 . S
C1227 C1228 1.287 . S
C1228 C1227 1.287 . S
C1228 C1229 1.524 . S
C1228 H1247 0.913 . S
C1229 H1205 0.950 . S
C1229 C1228 1.524 . S
C1229 C1230 1.415 . S
C1230 H1206 0.950 . S
C1230 C1225 1.363 . S
C1230 C1229 1.415 . S
C1231 H1207 0.951 . S
C1231 C1232 1.366 . S
C1231 C1233 1.388 . S
C1232 C1231 1.366 . S
C1232 C1236 1.385 . S
C1233 H1208 0.951 . S
C1233 C1231 1.388 . S
C1233 C1234 1.366 . S
C1234 C1233 1.366 . S
C1234 C1235 1.414 . S
C1234 C1237 1.499 . S
C1235 H1209 0.950 . S
C1235 C1234 1.414 . S
C1235 C1236 1.374 . S
C1236 H1210 0.950 . S
C1236 C1232 1.385 . S
C1236 C1235 1.374 . S
C1237 C1234 1.499 . S
C1237 C1238 1.373 . S
C1237 C1239 1.389 . S
C1238 H1211 0.950 . S
C1238 C1224 1.377 . S
C1238 C1237 1.373 . S
C1239 C1223 1.377 . S
C1239 C1237 1.389 . S
C1239 C1240 1.524 . S
C1240 C1239 1.524 . S
C1240 C1241 1.397 . S
C1240 C1245 1.363 . S
C1241 H1212 0.950 . S
C1241 C1240 1.397 . S
C1241 C1242 1.334 . S
C1242 H1213 0.950 . S
C1242 C1241 1.334 . S
C1242 C1243 1.287 . S
C1243 C1242 1.287 . S
C1243 C1244 1.524 . S
C1243 H1246 0.999 . S
C1244 H1214 0.950 . S
C1244 C1243 1.524 . S
C1244 C1245 1.415 . S
C1245 H1215 0.950 . S
C1245 C1240 1.363 . S
C1245 C1244 1.415 . S
H1246 C1243 0.999 . S
H1247 C1228 0.913 . S
H1248 C1266 0.951 . S
H1249 C1268 0.951 . S
H1250 C1270 0.950 . S
H1251 C1271 0.950 . S
H1252 C1273 0.950 . S
H1253 C1276 0.950 . S
H1254 C1277 0.950 . S
H1255 C1279 0.950 . S
H1256 C1280 0.950 1_655 S
H1257 C1281 0.951 . S
H1258 C1283 0.951 . S
H1259 C1285 0.950 . S
H1260 C1286 0.950 . S
H1261 C1288 0.950 . S
H1262 C1291 0.950 . S
H1263 C1292 0.950 . S
H1264 C1294 0.950 . S
H1265 C1295 0.950 1_455 S
C1266 H1248 0.951 . S
C1266 C1267 1.366 . S
C1266 C1268 1.388 . S
C1267 C1266 1.366 . S
C1267 C1271 1.385 . S
C1268 H1249 0.951 . S
C1268 C1266 1.388 . S
C1268 C1269 1.366 . S
C1269 C1268 1.366 . S
C1269 C1270 1.414 . S
C1269 C1272 1.499 . S
C1270 H1250 0.950 . S
C1270 C1269 1.414 . S
C1270 C1271 1.374 . S
C1271 H1251 0.950 . S
C1271 C1267 1.385 . S
C1271 C1270 1.374 . S
C1272 C1269 1.499 . S
C1272 C1273 1.373 . S
C1272 C1274 1.389 . S
C1273 H1252 0.950 . S
C1273 C1272 1.373 . S
C1273 C1289 1.377 1_455 S
C1274 C1272 1.389 . S
C1274 C1275 1.524 . S
C1274 C1288 1.377 1_455 S
C1275 C1274 1.524 . S
C1275 C1276 1.397 . S
C1275 C1280 1.363 . S
C1276 H1253 0.950 . S
C1276 C1275 1.397 . S
C1276 C1277 1.334 . S
C1277 H1254 0.950 . S
C1277 C1276 1.334 . S
C1277 C1278 1.287 . S
C1278 C1277 1.287 . S
C1278 C1279 1.524 . S
C1278 H1297 0.913 . S
C1279 H1255 0.950 . S
C1279 C1278 1.524 . S
C1279 C1280 1.415 . S
C1280 H1256 0.950 1_455 S
C1280 C1275 1.363 . S
C1280 C1279 1.415 . S
C1281 H1257 0.951 . S
C1281 C1282 1.366 . S
C1281 C1283 1.388 . S
C1282 C1281 1.366 . S
C1282 C1286 1.385 . S
C1283 H1258 0.951 . S
C1283 C1281 1.388 . S
C1283 C1284 1.366 . S
C1284 C1283 1.366 . S
C1284 C1285 1.414 . S
C1284 C1287 1.499 . S
C1285 H1259 0.950 . S
C1285 C1284 1.414 . S
C1285 C1286 1.374 . S
C1286 H1260 0.950 . S
C1286 C1282 1.385 . S
C1286 C1285 1.374 . S
C1287 C1284 1.499 . S
C1287 C1288 1.373 . S
C1287 C1289 1.389 . S
C1288 H1261 0.950 . S
C1288 C1274 1.377 1_655 S
C1288 C1287 1.373 . S
C1289 C1273 1.377 1_655 S
C1289 C1287 1.389 . S
C1289 C1290 1.524 . S
C1290 C1289 1.524 . S
C1290 C1291 1.397 . S
C1290 C1295 1.363 . S
C1291 H1262 0.950 . S
C1291 C1290 1.397 . S
C1291 C1292 1.334 . S
C1292 H1263 0.950 . S
C1292 C1291 1.334 . S
C1292 C1293 1.287 . S
C1293 C1292 1.287 . S
C1293 C1294 1.524 . S
C1293 H1296 0.999 . S
C1294 H1264 0.950 . S
C1294 C1293 1.524 . S
C1294 C1295 1.415 . S
C1295 H1265 0.950 1_655 S
C1295 C1290 1.363 . S
C1295 C1294 1.415 . S
H1296 C1293 0.999 . S
H1297 C1278 0.913 . S
H1298 C1316 0.951 . S
H1299 C1318 0.951 . S
H1300 C1320 0.950 . S
H1301 C1321 0.950 . S
H1302 C1323 0.950 . S
H1303 C1326 0.950 . S
H1304 C1327 0.950 . S
H1305 C1329 0.950 . S
H1306 C1330 0.950 . S
H1307 C1331 0.951 . S
H1308 C1333 0.951 . S
H1309 C1335 0.950 . S
H1310 C1336 0.950 . S
H1311 C1338 0.950 . S
H1312 C1341 0.950 . S
H1313 C1342 0.950 . S
H1314 C1344 0.950 . S
H1315 C1345 0.950 . S
C1316 H1298 0.951 . S
C1316 C1317 1.366 . S
C1316 C1318 1.388 . S
C1317 C1316 1.366 . S
C1317 C1321 1.385 . S
C1318 H1299 0.951 . S
C1318 C1316 1.388 . S
C1318 C1319 1.366 . S
C1319 C1318 1.366 . S
C1319 C1320 1.414 . S
C1319 C1322 1.499 . S
C1320 H1300 0.950 . S
C1320 C1319 1.414 . S
C1320 C1321 1.374 . S
C1321 H1301 0.950 . S
C1321 C1317 1.385 . S
C1321 C1320 1.374 . S
C1322 C1319 1.499 . S
C1322 C1323 1.373 1_545 S
C1322 C1324 1.389 . S
C1323 H1302 0.950 . S
C1323 C1322 1.373 1_565 S
C1323 C1339 1.377 . S
C1324 C1322 1.389 . S
C1324 C1325 1.524 . S
C1324 C1338 1.377 . S
C1325 C1324 1.524 . S
C1325 C1326 1.397 . S
C1325 C1330 1.363 . S
C1326 H1303 0.950 . S
C1326 C1325 1.397 . S
C1326 C1327 1.334 . S
C1327 H1304 0.950 . S
C1327 C1326 1.334 . S
C1327 C1328 1.287 . S
C1328 C1327 1.287 . S
C1328 C1329 1.524 . S
C1328 H1347 0.913 . S
C1329 H1305 0.950 . S
C1329 C1328 1.524 . S
C1329 C1330 1.415 . S
C1330 H1306 0.950 . S
C1330 C1325 1.363 . S
C1330 C1329 1.415 . S
C1331 H1307 0.951 . S
C1331 C1332 1.366 . S
C1331 C1333 1.388 . S
C1332 C1331 1.366 . S
C1332 C1336 1.385 . S
C1333 H1308 0.951 . S
C1333 C1331 1.388 . S
C1333 C1334 1.366 . S
C1334 C1333 1.366 . S
C1334 C1335 1.414 . S
C1334 C1337 1.499 . S
C1335 H1309 0.950 . S
C1335 C1334 1.414 . S
C1335 C1336 1.374 . S
C1336 H1310 0.950 . S
C1336 C1332 1.385 . S
C1336 C1335 1.374 . S
C1337 C1334 1.499 . S
C1337 C1338 1.373 1_565 S
C1337 C1339 1.389 . S
C1338 H1311 0.950 . S
C1338 C1324 1.377 . S
C1338 C1337 1.373 1_545 S
C1339 C1323 1.377 . S
C1339 C1337 1.389 . S
C1339 C1340 1.524 . S
C1340 C1339 1.524 . S
C1340 C1341 1.397 . S
C1340 C1345 1.363 . S
C1341 H1312 0.950 . S
C1341 C1340 1.397 . S
C1341 C1342 1.334 . S
C1342 H1313 0.950 . S
C1342 C1341 1.334 . S
C1342 C1343 1.287 . S
C1343 C1342 1.287 . S
C1343 C1344 1.524 . S
C1343 H1346 0.999 . S
C1344 H1314 0.950 . S
C1344 C1343 1.524 . S
C1344 C1345 1.415 . S
C1345 H1315 0.950 . S
C1345 C1340 1.363 . S
C1345 C1344 1.415 . S
H1346 C1343 0.999 . S
H1347 C1328 0.913 . S
H1348 C1366 0.951 . S
H1349 C1368 0.951 . S
H1350 C1370 0.950 . S
H1351 C1371 0.950 . S
H1352 C1373 0.950 . S
H1353 C1376 0.950 . S
H1354 C1377 0.950 . S
H1355 C1379 0.950 1_554 S
H1356 C1380 0.950 . S
H1357 C1381 0.951 . S
H1358 C1383 0.951 . S
H1359 C1385 0.950 . S
H1360 C1386 0.950 . S
H1361 C1388 0.950 . S
H1362 C1391 0.950 . S
H1363 C1392 0.950 . S
H1364 C1394 0.950 1_556 S
H1365 C1395 0.950 . S
C1366 H1348 0.951 . S
C1366 C1367 1.366 . S
C1366 C1368 1.388 . S
C1367 C1366 1.366 . S
C1367 C1371 1.385 . S
C1368 H1349 0.951 . S
C1368 C1366 1.388 . S
C1368 C1369 1.366 . S
C1369 C1368 1.366 . S
C1369 C1370 1.414 . S
C1369 C1372 1.499 . S
C1370 H1350 0.950 . S
C1370 C1369 1.414 . S
C1370 C1371 1.374 . S
C1371 H1351 0.950 . S
C1371 C1367 1.385 . S
C1371 C1370 1.374 . S
C1372 C1369 1.499 . S
C1372 C1373 1.373 1_455 S
C1372 C1374 1.389 1_545 S
C1373 H1352 0.950 . S
C1373 C1372 1.373 1_655 S
C1373 C1389 1.377 1_556 S
C1374 C1372 1.389 1_565 S
C1374 C1375 1.524 . S
C1374 C1388 1.377 1_556 S
C1375 C1374 1.524 . S
C1375 C1376 1.397 . S
C1375 C1380 1.363 1_556 S
C1376 H1353 0.950 . S
C1376 C1375 1.397 . S
C1376 C1377 1.334 . S
C1377 H1354 0.950 . S
C1377 C1376 1.334 . S
C1377 C1378 1.287 . S
C1378 C1377 1.287 . S
C1378 C1379 1.524 . S
C1378 H1397 0.913 . S
C1379 H1355 0.950 1_556 S
C1379 C1378 1.524 . S
C1379 C1380 1.415 1_556 S
C1380 H1356 0.950 . S
C1380 C1375 1.363 1_554 S
C1380 C1379 1.415 1_554 S
C1381 H1357 0.951 . S
C1381 C1382 1.366 . S
C1381 C1383 1.388 . S
C1382 C1381 1.366 . S
C1382 C1386 1.385 . S
C1383 H1358 0.951 . S
C1383 C1381 1.388 . S
C1383 C1384 1.366 . S
C1384 C1383 1.366 . S
C1384 C1385 1.414 . S
C1384 C1387 1.499 . S
C1385 H1359 0.950 . S
C1385 C1384 1.414 . S
C1385 C1386 1.374 . S
C1386 H1360 0.950 . S
C1386 C1382 1.385 . S
C1386 C1385 1.374 . S
C1387 C1384 1.499 . S
C1387 C1388 1.373 1_655 S
C1387 C1389 1.389 1_565 S
C1388 H1361 0.950 . S
C1388 C1374 1.377 1_554 S
C1388 C1387 1.373 1_455 S
C1389 C1373 1.377 1_554 S
C1389 C1387 1.389 1_545 S
C1389 C1390 1.524 . S
C1390 C1389 1.524 . S
C1390 C1391 1.397 . S
C1390 C1395 1.363 1_554 S
C1391 H1362 0.950 . S
C1391 C1390 1.397 . S
C1391 C1392 1.334 . S
C1392 H1363 0.950 . S
C1392 C1391 1.334 . S
C1392 C1393 1.287 . S
C1393 C1392 1.287 . S
C1393 C1394 1.524 . S
C1393 H1396 0.999 . S
C1394 H1364 0.950 1_554 S
C1394 C1393 1.524 . S
C1394 C1395 1.415 1_554 S
C1395 H1365 0.950 . S
C1395 C1390 1.363 1_556 S
C1395 C1394 1.415 1_556 S
H1396 C1393 0.999 . S
H1397 C1378 0.913 . S
H1398 C1416 0.951 . S
H1399 C1418 0.951 . S
H1400 C1420 0.950 . S
H1401 C1421 0.950 . S
H1402 C1423 0.950 . S
H1403 C1426 0.950 . S
H1404 C1427 0.950 . S
H1405 C1429 0.950 1_554 S
H1406 C1430 0.950 . S
H1407 C1431 0.951 . S
H1408 C1433 0.951 . S
H1409 C1435 0.950 . S
H1410 C1436 0.950 . S
H1411 C1438 0.950 . S
H1412 C1441 0.950 . S
H1413 C1442 0.950 . S
H1414 C1444 0.950 1_556 S
H1415 C1445 0.950 . S
C1416 H1398 0.951 . S
C1416 C1417 1.366 . S
C1416 C1418 1.388 . S
C1417 C1416 1.366 . S
C1417 C1421 1.385 . S
C1418 H1399 0.951 . S
C1418 C1416 1.388 . S
C1418 C1419 1.366 . S
C1419 C1418 1.366 . S
C1419 C1420 1.414 . S
C1419 C1422 1.499 . S
C1420 H1400 0.950 . S
C1420 C1419 1.414 . S
C1420 C1421 1.374 . S
C1421 H1401 0.950 . S
C1421 C1417 1.385 . S
C1421 C1420 1.374 . S
C1422 C1419 1.499 . S
C1422 C1423 1.373 . S
C1422 C1424 1.389 . S
C1423 H1402 0.950 . S
C1423 C1422 1.373 . S
C1423 C1439 1.377 1_556 S
C1424 C1422 1.389 . S
C1424 C1425 1.524 . S
C1424 C1438 1.377 1_556 S
C1425 C1424 1.524 . S
C1425 C1426 1.397 . S
C1425 C1430 1.363 1_556 S
C1426 H1403 0.950 . S
C1426 C1425 1.397 . S
C1426 C1427 1.334 . S
C1427 H1404 0.950 . S
C1427 C1426 1.334 . S
C1427 C1428 1.287 . S
C1428 C1427 1.287 . S
C1428 C1429 1.524 . S
C1428 H1447 0.913 . S
C1429 H1405 0.950 1_556 S
C1429 C1428 1.524 . S
C1429 C1430 1.415 1_556 S
C1430 H1406 0.950 . S
C1430 C1425 1.363 1_554 S
C1430 C1429 1.415 1_554 S
C1431 H1407 0.951 . S
C1431 C1432 1.366 . S
C1431 C1433 1.388 . S
C1432 C1431 1.366 . S
C1432 C1436 1.385 . S
C1433 H1408 0.951 . S
C1433 C1431 1.388 . S
C1433 C1434 1.366 . S
C1434 C1433 1.366 . S
C1434 C1435 1.414 . S
C1434 C1437 1.499 . S
C1435 H1409 0.950 . S
C1435 C1434 1.414 . S
C1435 C1436 1.374 . S
C1436 H1410 0.950 . S
C1436 C1432 1.385 . S
C1436 C1435 1.374 . S
C1437 C1434 1.499 . S
C1437 C1438 1.373 . S
C1437 C1439 1.389 . S
C1438 H1411 0.950 . S
C1438 C1424 1.377 1_554 S
C1438 C1437 1.373 . S
C1439 C1423 1.377 1_554 S
C1439 C1437 1.389 . S
C1439 C1440 1.524 . S
C1440 C1439 1.524 . S
C1440 C1441 1.397 . S
C1440 C1445 1.363 1_554 S
C1441 H1412 0.950 . S
C1441 C1440 1.397 . S
C1441 C1442 1.334 . S
C1442 H1413 0.950 . S
C1442 C1441 1.334 . S
C1442 C1443 1.287 . S
C1443 C1442 1.287 . S
C1443 C1444 1.524 . S
C1443 H1446 0.999 . S
C1444 H1414 0.950 1_554 S
C1444 C1443 1.524 . S
C1444 C1445 1.415 1_554 S
C1445 H1415 0.950 . S
C1445 C1440 1.363 1_556 S
C1445 C1444 1.415 1_556 S
H1446 C1443 0.999 . S
H1447 C1428 0.913 . S
H1448 C1466 0.951 . S
H1449 C1468 0.951 . S
H1450 C1470 0.950 . S
H1451 C1471 0.950 . S
H1452 C1473 0.950 . S
H1453 C1476 0.950 . S
H1454 C1477 0.950 . S
H1455 C1479 0.950 . S
H1456 C1480 0.950 . S
H1457 C1481 0.951 . S
H1458 C1483 0.951 . S
H1459 C1485 0.950 . S
H1460 C1486 0.950 . S
H1461 C1488 0.950 . S
H1462 C1491 0.950 . S
H1463 C1492 0.950 . S
H1464 C1494 0.950 . S
H1465 C1495 0.950 . S
C1466 H1448 0.951 . S
C1466 C1467 1.366 . S
C1466 C1468 1.388 . S
C1467 C1466 1.366 . S
C1467 C1471 1.385 . S
C1468 H1449 0.951 . S
C1468 C1466 1.388 . S
C1468 C1469 1.366 . S
C1469 C1468 1.366 . S
C1469 C1470 1.414 . S
C1469 C1472 1.499 . S
C1470 H1450 0.950 . S
C1470 C1469 1.414 . S
C1470 C1471 1.374 . S
C1471 H1451 0.950 . S
C1471 C1467 1.385 . S
C1471 C1470 1.374 . S
C1472 C1469 1.499 . S
C1472 C1473 1.373 1_655 S
C1472 C1474 1.389 . S
C1473 H1452 0.950 . S
C1473 C1472 1.373 1_455 S
C1473 C1489 1.377 . S
C1474 C1472 1.389 . S
C1474 C1475 1.524 . S
C1474 C1488 1.377 . S
C1475 C1474 1.524 . S
C1475 C1476 1.397 . S
C1475 C1480 1.363 . S
C1476 H1453 0.950 . S
C1476 C1475 1.397 . S
C1476 C1477 1.334 . S
C1477 H1454 0.950 . S
C1477 C1476 1.334 . S
C1477 C1478 1.287 . S
C1478 C1477 1.287 . S
C1478 C1479 1.524 . S
C1478 H1497 0.913 . S
C1479 H1455 0.950 . S
C1479 C1478 1.524 . S
C1479 C1480 1.415 . S
C1480 H1456 0.950 . S
C1480 C1475 1.363 . S
C1480 C1479 1.415 . S
C1481 H1457 0.951 . S
C1481 C1482 1.366 . S
C1481 C1483 1.388 . S
C1482 C1481 1.366 . S
C1482 C1486 1.385 . S
C1483 H1458 0.951 . S
C1483 C1481 1.388 . S
C1483 C1484 1.366 . S
C1484 C1483 1.366 . S
C1484 C1485 1.414 . S
C1484 C1487 1.499 . S
C1485 H1459 0.950 . S
C1485 C1484 1.414 . S
C1485 C1486 1.374 . S
C1486 H1460 0.950 . S
C1486 C1482 1.385 . S
C1486 C1485 1.374 . S
C1487 C1484 1.499 . S
C1487 C1488 1.373 1_455 S
C1487 C1489 1.389 . S
C1488 H1461 0.950 . S
C1488 C1474 1.377 . S
C1488 C1487 1.373 1_655 S
C1489 C1473 1.377 . S
C1489 C1487 1.389 . S
C1489 C1490 1.524 . S
C1490 C1489 1.524 . S
C1490 C1491 1.397 . S
C1490 C1495 1.363 . S
C1491 H1462 0.950 . S
C1491 C1490 1.397 . S
C1491 C1492 1.334 . S
C1492 H1463 0.950 . S
C1492 C1491 1.334 . S
C1492 C1493 1.287 . S
C1493 C1492 1.287 . S
C1493 C1494 1.524 . S
C1493 H1496 0.999 . S
C1494 H1464 0.950 . S
C1494 C1493 1.524 . S
C1494 C1495 1.415 . S
C1495 H1465 0.950 . S
C1495 C1490 1.363 . S
C1495 C1494 1.415 . S
H1496 C1493 0.999 . S
H1497 C1478 0.913 . S
H1498 C1516 0.951 . S
H1499 C1518 0.951 . S
H1500 C1520 0.950 . S
H1501 C1521 0.950 . S
H1502 C1523 0.950 . S
H1503 C1526 0.950 . S
H1504 C1527 0.950 . S
H1505 C1529 0.950 . S
H1506 C1530 0.950 . S
H1507 C1531 0.951 . S
H1508 C1533 0.951 . S
H1509 C1535 0.950 . S
H1510 C1536 0.950 . S
H1511 C1538 0.950 . S
H1512 C1541 0.950 . S
H1513 C1542 0.950 . S
H1514 C1544 0.950 . S
H1515 C1545 0.950 . S
C1516 H1498 0.951 . S
C1516 C1517 1.366 . S
C1516 C1518 1.388 . S
C1517 C1516 1.366 . S
C1517 C1521 1.385 . S
C1518 H1499 0.951 . S
C1518 C1516 1.388 . S
C1518 C1519 1.366 . S
C1519 C1518 1.366 . S
C1519 C1520 1.414 . S
C1519 C1522 1.499 . S
C1520 H1500 0.950 . S
C1520 C1519 1.414 . S
C1520 C1521 1.374 . S
C1521 H1501 0.950 . S
C1521 C1517 1.385 . S
C1521 C1520 1.374 . S
C1522 C1519 1.499 . S
C1522 C1523 1.373 . S
C1522 C1524 1.389 1_545 S
C1523 H1502 0.950 . S
C1523 C1522 1.373 . S
C1523 C1539 1.377 . S
C1524 C1522 1.389 1_565 S
C1524 C1525 1.524 . S
C1524 C1538 1.377 . S
C1525 C1524 1.524 . S
C1525 C1526 1.397 . S
C1525 C1530 1.363 . S
C1526 H1503 0.950 . S
C1526 C1525 1.397 . S
C1526 C1527 1.334 . S
C1527 H1504 0.950 . S
C1527 C1526 1.334 . S
C1527 C1528 1.287 . S
C1528 C1527 1.287 . S
C1528 C1529 1.524 . S
C1528 H1547 0.913 . S
C1529 H1505 0.950 . S
C1529 C1528 1.524 . S
C1529 C1530 1.415 . S
C1530 H1506 0.950 . S
C1530 C1525 1.363 . S
C1530 C1529 1.415 . S
C1531 H1507 0.951 . S
C1531 C1532 1.366 . S
C1531 C1533 1.388 . S
C1532 C1531 1.366 . S
C1532 C1536 1.385 . S
C1533 H1508 0.951 . S
C1533 C1531 1.388 . S
C1533 C1534 1.366 . S
C1534 C1533 1.366 . S
C1534 C1535 1.414 . S
C1534 C1537 1.499 . S
C1535 H1509 0.950 . S
C1535 C1534 1.414 . S
C1535 C1536 1.374 . S
C1536 H1510 0.950 . S
C1536 C1532 1.385 . S
C1536 C1535 1.374 . S
C1537 C1534 1.499 . S
C1537 C1538 1.373 . S
C1537 C1539 1.389 1_565 S
C1538 H1511 0.950 . S
C1538 C1524 1.377 . S
C1538 C1537 1.373 . S
C1539 C1523 1.377 . S
C1539 C1537 1.389 1_545 S
C1539 C1540 1.524 . S
C1540 C1539 1.524 . S
C1540 C1541 1.397 . S
C1540 C1545 1.363 . S
C1541 H1512 0.950 . S
C1541 C1540 1.397 . S
C1541 C1542 1.334 . S
C1542 H1513 0.950 . S
C1542 C1541 1.334 . S
C1542 C1543 1.287 . S
C1543 C1542 1.287 . S
C1543 C1544 1.524 . S
C1543 H1546 0.999 . S
C1544 H1514 0.950 . S
C1544 C1543 1.524 . S
C1544 C1545 1.415 . S
C1545 H1515 0.950 . S
C1545 C1540 1.363 . S
C1545 C1544 1.415 . S
H1546 C1543 0.999 . S
H1547 C1528 0.913 . S
H1548 C1566 0.951 . S
H1549 C1568 0.951 . S
H1550 C1570 0.950 . S
H1551 C1571 0.950 . S
H1552 C1573 0.950 . S
H1553 C1576 0.950 . S
H1554 C1577 0.950 . S
H1555 C1579 0.950 . S
H1556 C1580 0.950 . S
H1557 C1581 0.951 . S
H1558 C1583 0.951 . S
H1559 C1585 0.950 . S
H1560 C1586 0.950 . S
H1561 C1588 0.950 . S
H1562 C1591 0.950 . S
H1563 C1592 0.950 . S
H1564 C1594 0.950 . S
H1565 C1595 0.950 . S
C1566 H1548 0.951 . S
C1566 C1567 1.366 . S
C1566 C1568 1.388 . S
C1567 C1566 1.366 . S
C1567 C1571 1.385 . S
C1568 H1549 0.951 . S
C1568 C1566 1.388 . S
C1568 C1569 1.366 . S
C1569 C1568 1.366 . S
C1569 C1570 1.414 . S
C1569 C1572 1.499 . S
C1570 H1550 0.950 . S
C1570 C1569 1.414 . S
C1570 C1571 1.374 . S
C1571 H1551 0.950 . S
C1571 C1567 1.385 . S
C1571 C1570 1.374 . S
C1572 C1569 1.499 . S
C1572 C1573 1.373 . S
C1572 C1574 1.389 . S
C1573 H1552 0.950 . S
C1573 C1572 1.373 . S
C1573 C1589 1.377 1_556 S
C1574 C1572 1.389 . S
C1574 C1575 1.524 . S
C1574 C1588 1.377 1_556 S
C1575 C1574 1.524 . S
C1575 C1576 1.397 1_556 S
C1575 C1580 1.363 . S
C1576 H1553 0.950 . S
C1576 C1575 1.397 1_554 S
C1576 C1577 1.334 . S
C1577 H1554 0.950 . S
C1577 C1576 1.334 . S
C1577 C1578 1.273 1_554 S
C1578 C1577 1.273 1_556 S
C1578 C1579 1.543 . S
C1578 H1597 0.913 . S
C1579 H1555 0.950 . S
C1579 C1578 1.543 . S
C1579 C1580 1.415 . S
C1580 H1556 0.950 . S
C1580 C1575 1.363 . S
C1580 C1579 1.415 . S
C1581 H1557 0.951 . S
C1581 C1582 1.366 . S
C1581 C1583 1.388 . S
C1582 C1581 1.366 . S
C1582 C1586 1.385 . S
C1583 H1558 0.951 . S
C1583 C1581 1.388 . S
C1583 C1584 1.366 . S
C1584 C1583 1.366 . S
C1584 C1585 1.414 . S
C1584 C1587 1.499 . S
C1585 H1559 0.950 . S
C1585 C1584 1.414 . S
C1585 C1586 1.374 . S
C1586 H1560 0.950 . S
C1586 C1582 1.385 . S
C1586 C1585 1.374 . S
C1587 C1584 1.499 . S
C1587 C1588 1.373 . S
C1587 C1589 1.389 . S
C1588 H1561 0.950 . S
C1588 C1574 1.377 1_554 S
C1588 C1587 1.373 . S
C1589 C1573 1.377 1_554 S
C1589 C1587 1.389 . S
C1589 C1590 1.524 . S
C1590 C1589 1.524 . S
C1590 C1591 1.397 1_554 S
C1590 C1595 1.363 . S
C1591 H1562 0.950 . S
C1591 C1590 1.397 1_556 S
C1591 C1592 1.334 . S
C1592 H1563 0.950 . S
C1592 C1591 1.334 . S
C1592 C1593 1.273 1_556 S
C1593 C1592 1.273 1_554 S
C1593 C1594 1.543 . S
C1593 H1596 0.999 . S
C1594 H1564 0.950 . S
C1594 C1593 1.543 . S
C1594 C1595 1.415 . S
C1595 H1565 0.950 . S
C1595 C1590 1.363 . S
C1595 C1594 1.415 . S
H1596 C1593 0.999 . S
H1597 C1578 0.913 . S
H1598 C1616 0.951 . S
H1599 C1618 0.951 . S
H1600 C1620 0.950 . S
H1601 C1621 0.950 . S
H1602 C1623 0.950 . S
H1603 C1626 0.950 . S
H1604 C1627 0.950 . S
H1605 C1629 0.950 . S
H1606 C1630 0.950 . S
H1607 C1631 0.951 . S
H1608 C1633 0.951 . S
H1609 C1635 0.950 . S
H1610 C1636 0.950 . S
H1611 C1638 0.950 . S
H1612 C1641 0.950 . S
H1613 C1642 0.950 . S
H1614 C1644 0.950 . S
H1615 C1645 0.950 . S
C1616 H1598 0.951 . S
C1616 C1617 1.366 . S
C1616 C1618 1.388 . S
C1617 C1616 1.366 . S
C1617 C1621 1.385 . S
C1618 H1599 0.951 . S
C1618 C1616 1.388 . S
C1618 C1619 1.366 . S
C1619 C1618 1.366 . S
C1619 C1620 1.414 . S
C1619 C1622 1.499 . S
C1620 H1600 0.950 . S
C1620 C1619 1.414 . S
C1620 C1621 1.374 . S
C1621 H1601 0.950 . S
C1621 C1617 1.385 . S
C1621 C1620 1.374 . S
C1622 C1619 1.499 . S
C1622 C1623 1.373 . S
C1622 C1624 1.389 . S
C1623 H1602 0.950 . S
C1623 C1622 1.373 . S
C1623 C1639 1.377 . S
C1624 C1622 1.389 . S
C1624 C1625 1.524 . S
C1624 C1638 1.377 . S
C1625 C1624 1.524 . S
C1625 C1626 1.397 . S
C1625 C1630 1.363 . S
C1626 H1603 0.950 . S
C1626 C1625 1.397 . S
C1626 C1627 1.334 . S
C1627 H1604 0.950 . S
C1627 C1626 1.334 . S
C1627 C1628 1.287 . S
C1628 C1627 1.287 . S
C1628 C1629 1.524 . S
C1628 H1647 0.913 . S
C1629 H1605 0.950 . S
C1629 C1628 1.524 . S
C1629 C1630 1.415 . S
C1630 H1606 0.950 . S
C1630 C1625 1.363 . S
C1630 C1629 1.415 . S
C1631 H1607 0.951 . S
C1631 C1632 1.366 . S
C1631 C1633 1.388 . S
C1632 C1631 1.366 . S
C1632 C1636 1.385 . S
C1633 H1608 0.951 . S
C1633 C1631 1.388 . S
C1633 C1634 1.366 . S
C1634 C1633 1.366 . S
C1634 C1635 1.414 . S
C1634 C1637 1.499 . S
C1635 H1609 0.950 . S
C1635 C1634 1.414 . S
C1635 C1636 1.374 . S
C1636 H1610 0.950 . S
C1636 C1632 1.385 . S
C1636 C1635 1.374 . S
C1637 C1634 1.499 . S
C1637 C1638 1.373 . S
C1637 C1639 1.389 . S
C1638 H1611 0.950 . S
C1638 C1624 1.377 . S
C1638 C1637 1.373 . S
C1639 C1623 1.377 . S
C1639 C1637 1.389 . S
C1639 C1640 1.524 . S
C1640 C1639 1.524 . S
C1640 C1641 1.397 . S
C1640 C1645 1.363 . S
C1641 H1612 0.950 . S
C1641 C1640 1.397 . S
C1641 C1642 1.334 . S
C1642 H1613 0.950 . S
C1642 C1641 1.334 . S
C1642 C1643 1.287 . S
C1643 C1642 1.287 . S
C1643 C1644 1.524 . S
C1643 H1646 0.999 . S
C1644 H1614 0.950 . S
C1644 C1643 1.524 . S
C1644 C1645 1.415 . S
C1645 H1615 0.950 . S
C1645 C1640 1.363 . S
C1645 C1644 1.415 . S
H1646 C1643 0.999 . S
H1647 C1628 0.913 . S
H1648 C1666 0.951 . S
H1649 C1668 0.951 . S
H1650 C1670 0.950 . S
H1651 C1671 0.950 . S
H1652 C1673 0.950 . S
H1653 C1676 0.950 . S
H1654 C1677 0.950 . S
H1655 C1679 0.950 . S
H1656 C1680 0.950 . S
H1657 C1681 0.951 . S
H1658 C1683 0.951 . S
H1659 C1685 0.950 . S
H1660 C1686 0.950 . S
H1661 C1688 0.950 . S
H1662 C1691 0.950 . S
H1663 C1692 0.950 . S
H1664 C1694 0.950 . S
H1665 C1695 0.950 . S
C1666 H1648 0.951 . S
C1666 C1667 1.366 . S
C1666 C1668 1.388 . S
C1667 C1666 1.366 . S
C1667 C1671 1.385 . S
C1668 H1649 0.951 . S
C1668 C1666 1.388 . S
C1668 C1669 1.366 . S
C1669 C1668 1.366 . S
C1669 C1670 1.414 . S
C1669 C1672 1.499 . S
C1670 H1650 0.950 . S
C1670 C1669 1.414 . S
C1670 C1671 1.374 . S
C1671 H1651 0.950 . S
C1671 C1667 1.385 . S
C1671 C1670 1.374 . S
C1672 C1669 1.499 . S
C1672 C1673 1.404 . S
C1672 C1674 1.389 . S
C1673 H1652 0.950 . S
C1673 C1672 1.404 . S
C1673 C1689 1.345 1_455 S
C1674 C1672 1.389 . S
C1674 C1675 1.524 . S
C1674 C1688 1.345 1_455 S
C1675 C1674 1.524 . S
C1675 C1676 1.397 . S
C1675 C1680 1.363 . S
C1676 H1653 0.950 . S
C1676 C1675 1.397 . S
C1676 C1677 1.334 . S
C1677 H1654 0.950 . S
C1677 C1676 1.334 . S
C1677 C1678 1.287 . S
C1678 C1677 1.287 . S
C1678 C1679 1.524 . S
C1678 H1697 0.913 . S
C1679 H1655 0.950 . S
C1679 C1678 1.524 . S
C1679 C1680 1.415 . S
C1680 H1656 0.950 . S
C1680 C1675 1.363 . S
C1680 C1679 1.415 . S
C1681 H1657 0.951 . S
C1681 C1682 1.366 . S
C1681 C1683 1.388 . S
C1682 C1681 1.366 . S
C1682 C1686 1.385 . S
C1683 H1658 0.951 . S
C1683 C1681 1.388 . S
C1683 C1684 1.366 . S
C1684 C1683 1.366 . S
C1684 C1685 1.414 . S
C1684 C1687 1.499 . S
C1685 H1659 0.950 . S
C1685 C1684 1.414 . S
C1685 C1686 1.374 . S
C1686 H1660 0.950 . S
C1686 C1682 1.385 . S
C1686 C1685 1.374 . S
C1687 C1684 1.499 . S
C1687 C1688 1.404 . S
C1687 C1689 1.389 . S
C1688 H1661 0.950 . S
C1688 C1674 1.345 1_655 S
C1688 C1687 1.404 . S
C1689 C1673 1.345 1_655 S
C1689 C1687 1.389 . S
C1689 C1690 1.524 . S
C1690 C1689 1.524 . S
C1690 C1691 1.397 . S
C1690 C1695 1.363 . S
C1691 H1662 0.950 . S
C1691 C1690 1.397 . S
C1691 C1692 1.334 . S
C1692 H1663 0.950 . S
C1692 C1691 1.334 . S
C1692 C1693 1.287 . S
C1693 C1692 1.287 . S
C1693 C1694 1.524 . S
C1693 H1696 0.999 . S
C1694 H1664 0.950 . S
C1694 C1693 1.524 . S
C1694 C1695 1.415 . S
C1695 H1665 0.950 . S
C1695 C1690 1.363 . S
C1695 C1694 1.415 . S
H1696 C1693 0.999 . S
H1697 C1678 0.913 . S
H1698 C1716 0.951 . S
H1699 C1718 0.951 . S
H1700 C1720 0.950 . S
H1701 C1721 0.950 . S
H1702 C1723 0.950 . S
H1703 C1726 0.950 . S
H1704 C1727 0.950 . S
H1705 C1729 0.950 . S
H1706 C1730 0.950 . S
H1707 C1731 0.951 . S
H1708 C1733 0.951 . S
H1709 C1735 0.950 . S
H1710 C1736 0.950 . S
H1711 C1738 0.950 . S
H1712 C1741 0.950 . S
H1713 C1742 0.950 . S
H1714 C1744 0.950 . S
H1715 C1745 0.950 . S
C1716 H1698 0.951 . S
C1716 C1717 1.366 . S
C1716 C1718 1.388 . S
C1717 C1716 1.366 . S
C1717 C1721 1.385 . S
C1718 H1699 0.951 . S
C1718 C1716 1.388 . S
C1718 C1719 1.366 . S
C1719 C1718 1.366 . S
C1719 C1720 1.414 . S
C1719 C1722 1.499 . S
C1720 H1700 0.950 . S
C1720 C1719 1.414 . S
C1720 C1721 1.374 . S
C1721 H1701 0.950 . S
C1721 C1717 1.385 . S
C1721 C1720 1.374 . S
C1722 C1719 1.499 . S
C1722 C1723 1.373 . S
C1722 C1724 1.389 . S
C1723 H1702 0.950 . S
C1723 C1722 1.373 . S
C1723 C1739 1.377 . S
C1724 C1722 1.389 . S
C1724 C1725 1.524 . S
C1724 C1738 1.377 . S
C1725 C1724 1.524 . S
C1725 C1726 1.397 . S
C1725 C1730 1.363 . S
C1726 H1703 0.950 . S
C1726 C1725 1.397 . S
C1726 C1727 1.334 . S
C1727 H1704 0.950 . S
C1727 C1726 1.334 . S
C1727 C1728 1.287 . S
C1728 C1727 1.287 . S
C1728 C1729 1.524 . S
C1728 H1747 0.913 . S
C1729 H1705 0.950 . S
C1729 C1728 1.524 . S
C1729 C1730 1.415 . S
C1730 H1706 0.950 . S
C1730 C1725 1.363 . S
C1730 C1729 1.415 . S
C1731 H1707 0.951 . S
C1731 C1732 1.366 . S
C1731 C1733 1.388 . S
C1732 C1731 1.366 . S
C1732 C1736 1.385 . S
C1733 H1708 0.951 . S
C1733 C1731 1.388 . S
C1733 C1734 1.366 . S
C1734 C1733 1.366 . S
C1734 C1735 1.414 . S
C1734 C1737 1.499 . S
C1735 H1709 0.950 . S
C1735 C1734 1.414 . S
C1735 C1736 1.374 . S
C1736 H1710 0.950 . S
C1736 C1732 1.385 . S
C1736 C1735 1.374 . S
C1737 C1734 1.499 . S
C1737 C1738 1.373 . S
C1737 C1739 1.389 . S
C1738 H1711 0.950 . S
C1738 C1724 1.377 . S
C1738 C1737 1.373 . S
C1739 C1723 1.377 . S
C1739 C1737 1.389 . S
C1739 C1740 1.524 . S
C1740 C1739 1.524 . S
C1740 C1741 1.397 . S
C1740 C1745 1.363 . S
C1741 H1712 0.950 . S
C1741 C1740 1.397 . S
C1741 C1742 1.334 . S
C1742 H1713 0.950 . S
C1742 C1741 1.334 . S
C1742 C1743 1.287 . S
C1743 C1742 1.287 . S
C1743 C1744 1.524 . S
C1743 H1746 0.999 . S
C1744 H1714 0.950 . S
C1744 C1743 1.524 . S
C1744 C1745 1.415 . S
C1745 H1715 0.950 . S
C1745 C1740 1.363 . S
C1745 C1744 1.415 . S
H1746 C1743 0.999 . S
H1747 C1728 0.913 . S
H1748 C1766 0.951 . S
H1749 C1768 0.951 . S
H1750 C1770 0.950 . S
H1751 C1771 0.950 . S
H1752 C1773 0.950 . S
H1753 C1776 0.950 . S
H1754 C1777 0.950 . S
H1755 C1779 0.950 . S
H1756 C1780 0.950 . S
H1757 C1781 0.951 . S
H1758 C1783 0.951 . S
H1759 C1785 0.950 . S
H1760 C1786 0.950 . S
H1761 C1788 0.950 . S
H1762 C1791 0.950 . S
H1763 C1792 0.950 . S
H1764 C1794 0.950 . S
H1765 C1795 0.950 . S
C1766 H1748 0.951 . S
C1766 C1767 1.366 . S
C1766 C1768 1.388 . S
C1767 C1766 1.366 . S
C1767 C1771 1.385 . S
C1768 H1749 0.951 . S
C1768 C1766 1.388 . S
C1768 C1769 1.366 . S
C1769 C1768 1.366 . S
C1769 C1770 1.414 . S
C1769 C1772 1.499 . S
C1770 H1750 0.950 . S
C1770 C1769 1.414 . S
C1770 C1771 1.374 . S
C1771 H1751 0.950 . S
C1771 C1767 1.385 . S
C1771 C1770 1.374 . S
C1772 C1769 1.499 . S
C1772 C1773 1.373 . S
C1772 C1774 1.389 . S
C1773 H1752 0.950 . S
C1773 C1772 1.373 . S
C1773 C1789 1.377 . S
C1774 C1772 1.389 . S
C1774 C1775 1.524 . S
C1774 C1788 1.377 . S
C1775 C1774 1.524 . S
C1775 C1776 1.397 . S
C1775 C1780 1.363 . S
C1776 H1753 0.950 . S
C1776 C1775 1.397 . S
C1776 C1777 1.334 . S
C1777 H1754 0.950 . S
C1777 C1776 1.334 . S
C1777 C1778 1.287 . S
C1778 C1777 1.287 . S
C1778 C1779 1.524 . S
C1778 H1797 0.913 . S
C1779 H1755 0.950 . S
C1779 C1778 1.524 . S
C1779 C1780 1.415 . S
C1780 H1756 0.950 . S
C1780 C1775 1.363 . S
C1780 C1779 1.415 . S
C1781 H1757 0.951 . S
C1781 C1782 1.366 . S
C1781 C1783 1.388 . S
C1782 C1781 1.366 . S
C1782 C1786 1.385 . S
C1783 H1758 0.951 . S
C1783 C1781 1.388 . S
C1783 C1784 1.366 . S
C1784 C1783 1.366 . S
C1784 C1785 1.414 . S
C1784 C1787 1.499 . S
C1785 H1759 0.950 . S
C1785 C1784 1.414 . S
C1785 C1786 1.374 . S
C1786 H1760 0.950 . S
C1786 C1782 1.385 . S
C1786 C1785 1.374 . S
C1787 C1784 1.499 . S
C1787 C1788 1.373 . S
C1787 C1789 1.389 . S
C1788 H1761 0.950 . S
C1788 C1774 1.377 . S
C1788 C1787 1.373 . S
C1789 C1773 1.377 . S
C1789 C1787 1.389 . S
C1789 C1790 1.524 . S
C1790 C1789 1.524 . S
C1790 C1791 1.397 . S
C1790 C1795 1.363 . S
C1791 H1762 0.950 . S
C1791 C1790 1.397 . S
C1791 C1792 1.334 . S
C1792 H1763 0.950 . S
C1792 C1791 1.334 . S
C1792 C1793 1.287 . S
C1793 C1792 1.287 . S
C1793 C1794 1.524 . S
C1793 H1796 0.999 . S
C1794 H1764 0.950 . S
C1794 C1793 1.524 . S
C1794 C1795 1.415 . S
C1795 H1765 0.950 . S
C1795 C1790 1.363 . S
C1795 C1794 1.415 . S
H1796 C1793 0.999 . S
H1797 C1778 0.913 . S
H1798 C1816 0.951 . S
H1799 C1818 0.951 . S
H1800 C1820 0.950 . S
H1801 C1821 0.950 . S
H1802 C1823 0.950 . S
H1803 C1826 0.950 . S
H1804 C1827 0.950 . S
H1805 C1829 0.950 . S
H1806 C1830 0.950 . S
H1807 C1831 0.951 . S
H1808 C1833 0.951 . S
H1809 C1835 0.950 . S
H1810 C1836 0.950 . S
H1811 C1838 0.950 . S
H1812 C1841 0.950 . S
H1813 C1842 0.950 . S
H1814 C1844 0.950 . S
H1815 C1845 0.950 . S
C1816 H1798 0.951 . S
C1816 C1817 1.366 . S
C1816 C1818 1.388 . S
C1817 C1816 1.366 . S
C1817 C1821 1.385 . S
C1818 H1799 0.951 . S
C1818 C1816 1.388 . S
C1818 C1819 1.366 . S
C1819 C1818 1.366 . S
C1819 C1820 1.414 . S
C1819 C1822 1.499 . S
C1820 H1800 0.950 . S
C1820 C1819 1.414 . S
C1820 C1821 1.374 . S
C1821 H1801 0.950 . S
C1821 C1817 1.385 . S
C1821 C1820 1.374 . S
C1822 C1819 1.499 . S
C1822 C1823 1.373 . S
C1822 C1824 1.389 . S
C1823 H1802 0.950 . S
C1823 C1822 1.373 . S
C1823 C1839 1.377 . S
C1824 C1822 1.389 . S
C1824 C1825 1.524 . S
C1824 C1838 1.377 . S
C1825 C1824 1.524 . S
C1825 C1826 1.397 . S
C1825 C1830 1.363 . S
C1826 H1803 0.950 . S
C1826 C1825 1.397 . S
C1826 C1827 1.334 . S
C1827 H1804 0.950 . S
C1827 C1826 1.334 . S
C1827 C1828 1.287 . S
C1828 C1827 1.287 . S
C1828 C1829 1.524 . S
C1828 H1847 0.913 . S
C1829 H1805 0.950 . S
C1829 C1828 1.524 . S
C1829 C1830 1.415 . S
C1830 H1806 0.950 . S
C1830 C1825 1.363 . S
C1830 C1829 1.415 . S
C1831 H1807 0.951 . S
C1831 C1832 1.366 . S
C1831 C1833 1.388 . S
C1832 C1831 1.366 . S
C1832 C1836 1.385 . S
C1833 H1808 0.951 . S
C1833 C1831 1.388 . S
C1833 C1834 1.366 . S
C1834 C1833 1.366 . S
C1834 C1835 1.414 . S
C1834 C1837 1.499 . S
C1835 H1809 0.950 . S
C1835 C1834 1.414 . S
C1835 C1836 1.374 . S
C1836 H1810 0.950 . S
C1836 C1832 1.385 . S
C1836 C1835 1.374 . S
C1837 C1834 1.499 . S
C1837 C1838 1.373 . S
C1837 C1839 1.389 . S
C1838 H1811 0.950 . S
C1838 C1824 1.377 . S
C1838 C1837 1.373 . S
C1839 C1823 1.377 . S
C1839 C1837 1.389 . S
C1839 C1840 1.524 . S
C1840 C1839 1.524 . S
C1840 C1841 1.397 . S
C1840 C1845 1.363 . S
C1841 H1812 0.950 . S
C1841 C1840 1.397 . S
C1841 C1842 1.334 . S
C1842 H1813 0.950 . S
C1842 C1841 1.334 . S
C1842 C1843 1.287 . S
C1843 C1842 1.287 . S
C1843 C1844 1.524 . S
C1843 H1846 0.999 . S
C1844 H1814 0.950 . S
C1844 C1843 1.524 . S
C1844 C1845 1.415 . S
C1845 H1815 0.950 . S
C1845 C1840 1.363 . S
C1845 C1844 1.415 . S
H1846 C1843 0.999 . S
H1847 C1828 0.913 . S
H1848 C1866 0.951 . S
H1849 C1868 0.951 . S
H1850 C1870 0.950 . S
H1851 C1871 0.950 . S
H1852 C1873 0.950 . S
H1853 C1876 0.950 . S
H1854 C1877 0.950 . S
H1855 C1879 0.950 . S
H1856 C1880 0.950 . S
H1857 C1881 0.951 . S
H1858 C1883 0.951 . S
H1859 C1885 0.950 . S
H1860 C1886 0.950 . S
H1861 C1888 0.950 . S
H1862 C1891 0.950 . S
H1863 C1892 0.950 . S
H1864 C1894 0.950 . S
H1865 C1895 0.950 . S
C1866 H1848 0.951 . S
C1866 C1867 1.366 . S
C1866 C1868 1.388 . S
C1867 C1866 1.366 . S
C1867 C1871 1.385 . S
C1868 H1849 0.951 . S
C1868 C1866 1.388 . S
C1868 C1869 1.366 . S
C1869 C1868 1.366 . S
C1869 C1870 1.414 . S
C1869 C1872 1.499 . S
C1870 H1850 0.950 . S
C1870 C1869 1.414 . S
C1870 C1871 1.374 . S
C1871 H1851 0.950 . S
C1871 C1867 1.385 . S
C1871 C1870 1.374 . S
C1872 C1869 1.499 . S
C1872 C1873 1.373 . S
C1872 C1874 1.389 . S
C1873 H1852 0.950 . S
C1873 C1872 1.373 . S
C1873 C1889 1.377 . S
C1874 C1872 1.389 . S
C1874 C1875 1.524 . S
C1874 C1888 1.377 . S
C1875 C1874 1.524 . S
C1875 C1876 1.397 . S
C1875 C1880 1.363 . S
C1876 H1853 0.950 . S
C1876 C1875 1.397 . S
C1876 C1877 1.334 . S
C1877 H1854 0.950 . S
C1877 C1876 1.334 . S
C1877 C1878 1.287 . S
C1878 C1877 1.287 . S
C1878 C1879 1.524 . S
C1878 H1897 0.913 . S
C1879 H1855 0.950 . S
C1879 C1878 1.524 . S
C1879 C1880 1.415 . S
C1880 H1856 0.950 . S
C1880 C1875 1.363 . S
C1880 C1879 1.415 . S
C1881 H1857 0.951 . S
C1881 C1882 1.366 . S
C1881 C1883 1.388 . S
C1882 C1881 1.366 . S
C1882 C1886 1.385 . S
C1883 H1858 0.951 . S
C1883 C1881 1.388 . S
C1883 C1884 1.366 . S
C1884 C1883 1.366 . S
C1884 C1885 1.414 . S
C1884 C1887 1.499 . S
C1885 H1859 0.950 . S
C1885 C1884 1.414 . S
C1885 C1886 1.374 . S
C1886 H1860 0.950 . S
C1886 C1882 1.385 . S
C1886 C1885 1.374 . S
C1887 C1884 1.499 . S
C1887 C1888 1.373 . S
C1887 C1889 1.389 . S
C1888 H1861 0.950 . S
C1888 C1874 1.377 . S
C1888 C1887 1.373 . S
C1889 C1873 1.377 . S
C1889 C1887 1.389 . S
C1889 C1890 1.524 . S
C1890 C1889 1.524 . S
C1890 C1891 1.397 . S
C1890 C1895 1.363 . S
C1891 H1862 0.950 . S
C1891 C1890 1.397 . S
C1891 C1892 1.334 . S
C1892 H1863 0.950 . S
C1892 C1891 1.334 . S
C1892 C1893 1.287 . S
C1893 C1892 1.287 . S
C1893 C1894 1.524 . S
C1893 H1896 0.999 . S
C1894 H1864 0.950 . S
C1894 C1893 1.524 . S
C1894 C1895 1.415 . S
C1895 H1865 0.950 . S
C1895 C1890 1.363 . S
C1895 C1894 1.415 . S
H1896 C1893 0.999 . S
H1897 C1878 0.913 . S
H1898 C1916 0.951 . S
H1899 C1918 0.951 . S
H1900 C1920 0.950 1_545 S
H1901 C1921 0.950 . S
H1902 C1923 0.950 . S
H1903 C1926 0.950 . S
H1904 C1927 0.950 . S
H1905 C1929 0.950 . S
H1906 C1930 0.950 . S
H1907 C1931 0.951 . S
H1908 C1933 0.951 . S
H1909 C1935 0.950 1_565 S
H1910 C1936 0.950 . S
H1911 C1938 0.950 . S
H1912 C1941 0.950 . S
H1913 C1942 0.950 . S
H1914 C1944 0.950 . S
H1915 C1945 0.950 . S
C1916 H1898 0.951 . S
C1916 C1917 1.366 . S
C1916 C1918 1.388 . S
C1917 C1916 1.366 . S
C1917 C1921 1.385 . S
C1918 H1899 0.951 . S
C1918 C1916 1.388 . S
C1918 C1919 1.366 . S
C1919 C1918 1.366 . S
C1919 C1920 1.414 . S
C1919 C1922 1.499 . S
C1920 H1900 0.950 1_565 S
C1920 C1919 1.414 . S
C1920 C1921 1.374 . S
C1921 H1901 0.950 . S
C1921 C1917 1.385 . S
C1921 C1920 1.374 . S
C1922 C1919 1.499 . S
C1922 C1923 1.373 1_565 S
C1922 C1924 1.389 . S
C1923 H1902 0.950 . S
C1923 C1922 1.373 1_545 S
C1923 C1939 1.377 . S
C1924 C1922 1.389 . S
C1924 C1925 1.524 . S
C1924 C1938 1.377 . S
C1925 C1924 1.524 . S
C1925 C1926 1.397 . S
C1925 C1930 1.363 . S
C1926 H1903 0.950 . S
C1926 C1925 1.397 . S
C1926 C1927 1.334 . S
C1927 H1904 0.950 . S
C1927 C1926 1.334 . S
C1927 C1928 1.287 . S
C1928 C1927 1.287 . S
C1928 C1929 1.524 . S
C1928 H1947 0.913 . S
C1929 H1905 0.950 . S
C1929 C1928 1.524 . S
C1929 C1930 1.415 . S
C1930 H1906 0.950 . S
C1930 C1925 1.363 . S
C1930 C1929 1.415 . S
C1931 H1907 0.951 . S
C1931 C1932 1.366 . S
C1931 C1933 1.388 . S
C1932 C1931 1.366 . S
C1932 C1936 1.385 . S
C1933 H1908 0.951 . S
C1933 C1931 1.388 . S
C1933 C1934 1.366 . S
C1934 C1933 1.366 . S
C1934 C1935 1.414 . S
C1934 C1937 1.499 . S
C1935 H1909 0.950 1_545 S
C1935 C1934 1.414 . S
C1935 C1936 1.374 . S
C1936 H1910 0.950 . S
C1936 C1932 1.385 . S
C1936 C1935 1.374 . S
C1937 C1934 1.499 . S
C1937 C1938 1.373 1_545 S
C1937 C1939 1.389 . S
C1938 H1911 0.950 . S
C1938 C1924 1.377 . S
C1938 C1937 1.373 1_565 S
C1939 C1923 1.377 . S
C1939 C1937 1.389 . S
C1939 C1940 1.524 . S
C1940 C1939 1.524 . S
C1940 C1941 1.397 . S
C1940 C1945 1.363 . S
C1941 H1912 0.950 . S
C1941 C1940 1.397 . S
C1941 C1942 1.334 . S
C1942 H1913 0.950 . S
C1942 C1941 1.334 . S
C1942 C1943 1.287 . S
C1943 C1942 1.287 . S
C1943 C1944 1.524 . S
C1943 H1946 0.999 . S
C1944 H1914 0.950 . S
C1944 C1943 1.524 . S
C1944 C1945 1.415 . S
C1945 H1915 0.950 . S
C1945 C1940 1.363 . S
C1945 C1944 1.415 . S
H1946 C1943 0.999 . S
H1947 C1928 0.913 . S
H1948 C1966 0.951 . S
H1949 C1968 0.951 . S
H1950 C1970 0.950 . S
H1951 C1971 0.950 . S
H1952 C1973 0.950 . S
H1953 C1976 0.950 . S
H1954 C1977 0.950 . S
H1955 C1979 0.950 . S
H1956 C1980 0.950 . S
H1957 C1981 0.951 . S
H1958 C1983 0.951 . S
H1959 C1985 0.950 . S
H1960 C1986 0.950 . S
H1961 C1988 0.950 . S
H1962 C1991 0.950 . S
H1963 C1992 0.950 . S
H1964 C1994 0.950 . S
H1965 C1995 0.950 . S
C1966 H1948 0.951 . S
C1966 C1967 1.366 . S
C1966 C1968 1.388 . S
C1967 C1966 1.366 . S
C1967 C1971 1.385 . S
C1968 H1949 0.951 . S
C1968 C1966 1.388 . S
C1968 C1969 1.366 . S
C1969 C1968 1.366 . S
C1969 C1970 1.414 . S
C1969 C1972 1.499 . S
C1970 H1950 0.950 . S
C1970 C1969 1.414 . S
C1970 C1971 1.374 . S
C1971 H1951 0.950 . S
C1971 C1967 1.385 . S
C1971 C1970 1.374 . S
C1972 C1969 1.499 . S
C1972 C1973 1.373 . S
C1972 C1974 1.389 . S
C1973 H1952 0.950 . S
C1973 C1972 1.373 . S
C1973 C1989 1.377 . S
C1974 C1972 1.389 . S
C1974 C1975 1.524 . S
C1974 C1988 1.377 . S
C1975 C1974 1.524 . S
C1975 C1976 1.397 . S
C1975 C1980 1.363 . S
C1976 H1953 0.950 . S
C1976 C1975 1.397 . S
C1976 C1977 1.334 . S
C1977 H1954 0.950 . S
C1977 C1976 1.334 . S
C1977 C1978 1.287 . S
C1978 C1977 1.287 . S
C1978 C1979 1.524 . S
C1978 H1997 0.913 . S
C1979 H1955 0.950 . S
C1979 C1978 1.524 . S
C1979 C1980 1.415 . S
C1980 H1956 0.950 . S
C1980 C1975 1.363 . S
C1980 C1979 1.415 . S
C1981 H1957 0.951 . S
C1981 C1982 1.366 . S
C1981 C1983 1.388 . S
C1982 C1981 1.366 . S
C1982 C1986 1.385 . S
C1983 H1958 0.951 . S
C1983 C1981 1.388 . S
C1983 C1984 1.366 . S
C1984 C1983 1.366 . S
C1984 C1985 1.414 . S
C1984 C1987 1.499 . S
C1985 H1959 0.950 . S
C1985 C1984 1.414 . S
C1985 C1986 1.374 . S
C1986 H1960 0.950 . S
C1986 C1982 1.385 . S
C1986 C1985 1.374 . S
C1987 C1984 1.499 . S
C1987 C1988 1.373 . S
C1987 C1989 1.389 . S
C1988 H1961 0.950 . S
C1988 C1974 1.377 . S
C1988 C1987 1.373 . S
C1989 C1973 1.377 . S
C1989 C1987 1.389 . S
C1989 C1990 1.524 . S
C1990 C1989 1.524 . S
C1990 C1991 1.397 . S
C1990 C1995 1.363 . S
C1991 H1962 0.950 . S
C1991 C1990 1.397 . S
C1991 C1992 1.334 . S
C1992 H1963 0.950 . S
C1992 C1991 1.334 . S
C1992 C1993 1.287 . S
C1993 C1992 1.287 . S
C1993 C1994 1.524 . S
C1993 H1996 0.999 . S
C1994 H1964 0.950 . S
C1994 C1993 1.524 . S
C1994 C1995 1.415 . S
C1995 H1965 0.950 . S
C1995 C1990 1.363 . S
C1995 C1994 1.415 . S
H1996 C1993 0.999 . S
H1997 C1978 0.913 . S
H1998 C2016 0.951 . S
H1999 C2018 0.951 . S
H2000 C2020 0.950 . S
H2001 C2021 0.950 . S
H2002 C2023 0.950 . S
H2003 C2026 0.950 1_556 S
H2004 C2027 0.950 . S
H2005 C2029 0.950 . S
H2006 C2030 0.950 . S
H2007 C2031 0.951 . S
H2008 C2033 0.951 . S
H2009 C2035 0.950 . S
H2010 C2036 0.950 . S
H2011 C2038 0.950 . S
H2012 C2041 0.950 1_554 S
H2013 C2042 0.950 . S
H2014 C2044 0.950 . S
H2015 C2045 0.950 . S
C2016 H1998 0.951 . S
C2016 C2017 1.366 . S
C2016 C2018 1.388 . S
C2017 C2016 1.366 . S
C2017 C2021 1.385 . S
C2018 H1999 0.951 . S
C2018 C2016 1.388 . S
C2018 C2019 1.366 . S
C2019 C2018 1.366 . S
C2019 C2020 1.414 . S
C2019 C2022 1.499 . S
C2020 H2000 0.950 . S
C2020 C2019 1.414 . S
C2020 C2021 1.374 . S
C2021 H2001 0.950 . S
C2021 C2017 1.385 . S
C2021 C2020 1.374 . S
C2022 C2019 1.499 . S
C2022 C2023 1.373 . S
C2022 C2024 1.389 . S
C2023 H2002 0.950 . S
C2023 C2022 1.373 . S
C2023 C2039 1.377 1_554 S
C2024 C2022 1.389 . S
C2024 C2025 1.524 . S
C2024 C2038 1.377 1_554 S
C2025 C2024 1.524 . S
C2025 C2026 1.397 . S
C2025 C2030 1.363 . S
C2026 H2003 0.950 1_554 S
C2026 C2025 1.397 . S
C2026 C2027 1.334 . S
C2027 H2004 0.950 . S
C2027 C2026 1.334 . S
C2027 C2028 1.287 . S
C2028 C2027 1.287 . S
C2028 C2029 1.524 . S
C2028 H2047 0.913 . S
C2029 H2005 0.950 . S
C2029 C2028 1.524 . S
C2029 C2030 1.415 . S
C2030 H2006 0.950 . S
C2030 C2025 1.363 . S
C2030 C2029 1.415 . S
C2031 H2007 0.951 . S
C2031 C2032 1.366 . S
C2031 C2033 1.388 . S
C2032 C2031 1.366 . S
C2032 C2036 1.385 . S
C2033 H2008 0.951 . S
C2033 C2031 1.388 . S
C2033 C2034 1.366 . S
C2034 C2033 1.366 . S
C2034 C2035 1.414 . S
C2034 C2037 1.499 . S
C2035 H2009 0.950 . S
C2035 C2034 1.414 . S
C2035 C2036 1.374 . S
C2036 H2010 0.950 . S
C2036 C2032 1.385 . S
C2036 C2035 1.374 . S
C2037 C2034 1.499 . S
C2037 C2038 1.373 . S
C2037 C2039 1.389 . S
C2038 H2011 0.950 . S
C2038 C2024 1.377 1_556 S
C2038 C2037 1.373 . S
C2039 C2023 1.377 1_556 S
C2039 C2037 1.389 . S
C2039 C2040 1.524 . S
C2040 C2039 1.524 . S
C2040 C2041 1.397 . S
C2040 C2045 1.363 . S
C2041 H2012 0.950 1_556 S
C2041 C2040 1.397 . S
C2041 C2042 1.334 . S
C2042 H2013 0.950 . S
C2042 C2041 1.334 . S
C2042 C2043 1.287 . S
C2043 C2042 1.287 . S
C2043 C2044 1.524 . S
C2043 H2046 0.999 . S
C2044 H2014 0.950 . S
C2044 C2043 1.524 . S
C2044 C2045 1.415 . S
C2045 H2015 0.950 . S
C2045 C2040 1.363 . S
C2045 C2044 1.415 . S
H2046 C2043 0.999 . S
H2047 C2028 0.913 . S
H2048 C2066 0.951 . S
H2049 C2068 0.951 . S
H2050 C2070 0.950 . S
H2051 C2071 0.950 . S
H2052 C2073 0.950 . S
H2053 C2076 0.950 . S
H2054 C2077 0.950 . S
H2055 C2079 0.950 . S
H2056 C2080 0.950 . S
H2057 C2081 0.951 . S
H2058 C2083 0.951 . S
H2059 C2085 0.950 . S
H2060 C2086 0.950 . S
H2061 C2088 0.950 . S
H2062 C2091 0.950 . S
H2063 C2092 0.950 . S
H2064 C2094 0.950 . S
H2065 C2095 0.950 . S
C2066 H2048 0.951 . S
C2066 C2067 1.366 . S
C2066 C2068 1.388 . S
C2067 C2066 1.366 . S
C2067 C2071 1.385 . S
C2068 H2049 0.951 . S
C2068 C2066 1.388 . S
C2068 C2069 1.366 . S
C2069 C2068 1.366 . S
C2069 C2070 1.414 . S
C2069 C2072 1.499 . S
C2070 H2050 0.950 . S
C2070 C2069 1.414 . S
C2070 C2071 1.374 . S
C2071 H2051 0.950 . S
C2071 C2067 1.385 . S
C2071 C2070 1.374 . S
C2072 C2069 1.499 . S
C2072 C2073 1.373 . S
C2072 C2074 1.389 . S
C2073 H2052 0.950 . S
C2073 C2072 1.373 . S
C2073 C2089 1.377 . S
C2074 C2072 1.389 . S
C2074 C2075 1.524 . S
C2074 C2088 1.377 . S
C2075 C2074 1.524 . S
C2075 C2076 1.397 . S
C2075 C2080 1.363 . S
C2076 H2053 0.950 . S
C2076 C2075 1.397 . S
C2076 C2077 1.334 . S
C2077 H2054 0.950 . S
C2077 C2076 1.334 . S
C2077 C2078 1.287 . S
C2078 C2077 1.287 . S
C2078 C2079 1.524 . S
C2078 H2097 0.913 . S
C2079 H2055 0.950 . S
C2079 C2078 1.524 . S
C2079 C2080 1.415 . S
C2080 H2056 0.950 . S
C2080 C2075 1.363 . S
C2080 C2079 1.415 . S
C2081 H2057 0.951 . S
C2081 C2082 1.366 . S
C2081 C2083 1.388 . S
C2082 C2081 1.366 . S
C2082 C2086 1.385 . S
C2083 H2058 0.951 . S
C2083 C2081 1.388 . S
C2083 C2084 1.366 . S
C2084 C2083 1.366 . S
C2084 C2085 1.414 . S
C2084 C2087 1.499 . S
C2085 H2059 0.950 . S
C2085 C2084 1.414 . S
C2085 C2086 1.374 . S
C2086 H2060 0.950 . S
C2086 C2082 1.385 . S
C2086 C2085 1.374 . S
C2087 C2084 1.499 . S
C2087 C2088 1.373 . S
C2087 C2089 1.389 . S
C2088 H2061 0.950 . S
C2088 C2074 1.377 . S
C2088 C2087 1.373 . S
C2089 C2073 1.377 . S
C2089 C2087 1.389 . S
C2089 C2090 1.524 . S
C2090 C2089 1.524 . S
C2090 C2091 1.397 . S
C2090 C2095 1.363 . S
C2091 H2062 0.950 . S
C2091 C2090 1.397 . S
C2091 C2092 1.334 . S
C2092 H2063 0.950 . S
C2092 C2091 1.334 . S
C2092 C2093 1.287 . S
C2093 C2092 1.287 . S
C2093 C2094 1.524 . S
C2093 H2096 0.999 . S
C2094 H2064 0.950 . S
C2094 C2093 1.524 . S
C2094 C2095 1.415 . S
C2095 H2065 0.950 . S
C2095 C2090 1.363 . S
C2095 C2094 1.415 . S
H2096 C2093 0.999 . S
H2097 C2078 0.913 . S
H2098 C2116 0.951 . S
H2099 C2118 0.951 . S
H2100 C2120 0.950 . S
H2101 C2121 0.950 . S
H2102 C2123 0.950 . S
H2103 C2126 0.950 . S
H2104 C2127 0.950 . S
H2105 C2129 0.950 . S
H2106 C2130 0.950 . S
H2107 C2131 0.951 . S
H2108 C2133 0.951 . S
H2109 C2135 0.950 . S
H2110 C2136 0.950 . S
H2111 C2138 0.950 . S
H2112 C2141 0.950 . S
H2113 C2142 0.950 . S
H2114 C2144 0.950 . S
H2115 C2145 0.950 . S
C2116 H2098 0.951 . S
C2116 C2117 1.366 . S
C2116 C2118 1.388 . S
C2117 C2116 1.366 . S
C2117 C2121 1.385 . S
C2118 H2099 0.951 . S
C2118 C2116 1.388 . S
C2118 C2119 1.366 . S
C2119 C2118 1.366 . S
C2119 C2120 1.414 . S
C2119 C2122 1.499 . S
C2120 H2100 0.950 . S
C2120 C2119 1.414 . S
C2120 C2121 1.374 . S
C2121 H2101 0.950 . S
C2121 C2117 1.385 . S
C2121 C2120 1.374 . S
C2122 C2119 1.499 . S
C2122 C2123 1.373 . S
C2122 C2124 1.389 . S
C2123 H2102 0.950 . S
C2123 C2122 1.373 . S
C2123 C2139 1.377 . S
C2124 C2122 1.389 . S
C2124 C2125 1.524 . S
C2124 C2138 1.377 . S
C2125 C2124 1.524 . S
C2125 C2126 1.397 . S
C2125 C2130 1.363 . S
C2126 H2103 0.950 . S
C2126 C2125 1.397 . S
C2126 C2127 1.334 . S
C2127 H2104 0.950 . S
C2127 C2126 1.334 . S
C2127 C2128 1.287 . S
C2128 C2127 1.287 . S
C2128 C2129 1.524 . S
C2128 H2147 0.913 . S
C2129 H2105 0.950 . S
C2129 C2128 1.524 . S
C2129 C2130 1.415 . S
C2130 H2106 0.950 . S
C2130 C2125 1.363 . S
C2130 C2129 1.415 . S
C2131 H2107 0.951 . S
C2131 C2132 1.366 1_565 S
C2131 C2133 1.388 . S
C2132 C2131 1.366 1_545 S
C2132 C2136 1.385 . S
C2133 H2108 0.951 . S
C2133 C2131 1.388 . S
C2133 C2134 1.366 . S
C2134 C2133 1.366 . S
C2134 C2135 1.414 . S
C2134 C2137 1.499 . S
C2135 H2109 0.950 . S
C2135 C2134 1.414 . S
C2135 C2136 1.374 1_565 S
C2136 H2110 0.950 . S
C2136 C2132 1.385 . S
C2136 C2135 1.374 1_545 S
C2137 C2134 1.499 . S
C2137 C2138 1.373 . S
C2137 C2139 1.389 . S
C2138 H2111 0.950 . S
C2138 C2124 1.377 . S
C2138 C2137 1.373 . S
C2139 C2123 1.377 . S
C2139 C2137 1.389 . S
C2139 C2140 1.524 . S
C2140 C2139 1.524 . S
C2140 C2141 1.397 . S
C2140 C2145 1.363 . S
C2141 H2112 0.950 . S
C2141 C2140 1.397 . S
C2141 C2142 1.334 . S
C2142 H2113 0.950 . S
C2142 C2141 1.334 . S
C2142 C2143 1.287 . S
C2143 C2142 1.287 . S
C2143 C2144 1.524 . S
C2143 H2146 0.999 . S
C2144 H2114 0.950 . S
C2144 C2143 1.524 . S
C2144 C2145 1.415 . S
C2145 H2115 0.950 . S
C2145 C2140 1.363 . S
C2145 C2144 1.415 . S
H2146 C2143 0.999 . S
H2147 C2128 0.913 . S
H2148 C2166 0.951 . S
H2149 C2168 0.951 . S
H2150 C2170 0.950 . S
H2151 C2171 0.950 . S
H2152 C2173 0.950 . S
H2153 C2176 0.950 . S
H2154 C2177 0.950 . S
H2155 C2179 0.950 . S
H2156 C2180 0.950 . S
H2157 C2181 0.951 . S
H2158 C2183 0.951 . S
H2159 C2185 0.950 . S
H2160 C2186 0.950 . S
H2161 C2188 0.950 . S
H2162 C2191 0.950 . S
H2163 C2192 0.950 . S
H2164 C2194 0.950 . S
H2165 C2195 0.950 . S
C2166 H2148 0.951 . S
C2166 C2167 1.366 . S
C2166 C2168 1.388 1_545 S
C2167 C2166 1.366 . S
C2167 C2171 1.385 1_545 S
C2168 H2149 0.951 . S
C2168 C2166 1.388 1_565 S
C2168 C2169 1.366 . S
C2169 C2168 1.366 . S
C2169 C2170 1.414 . S
C2169 C2172 1.499 . S
C2170 H2150 0.950 . S
C2170 C2169 1.414 . S
C2170 C2171 1.374 . S
C2171 H2151 0.950 . S
C2171 C2167 1.385 1_565 S
C2171 C2170 1.374 . S
C2172 C2169 1.499 . S
C2172 C2173 1.373 . S
C2172 C2174 1.389 . S
C2173 H2152 0.950 . S
C2173 C2172 1.373 . S
C2173 C2189 1.377 . S
C2174 C2172 1.389 . S
C2174 C2175 1.524 . S
C2174 C2188 1.377 . S
C2175 C2174 1.524 . S
C2175 C2176 1.397 . S
C2175 C2180 1.363 . S
C2176 H2153 0.950 . S
C2176 C2175 1.397 . S
C2176 C2177 1.334 . S
C2177 H2154 0.950 . S
C2177 C2176 1.334 . S
C2177 C2178 1.287 . S
C2178 C2177 1.287 . S
C2178 C2179 1.524 . S
C2178 H2197 0.913 . S
C2179 H2155 0.950 . S
C2179 C2178 1.524 . S
C2179 C2180 1.415 . S
C2180 H2156 0.950 . S
C2180 C2175 1.363 . S
C2180 C2179 1.415 . S
C2181 H2157 0.951 . S
C2181 C2182 1.366 . S
C2181 C2183 1.388 . S
C2182 C2181 1.366 . S
C2182 C2186 1.385 . S
C2183 H2158 0.951 . S
C2183 C2181 1.388 . S
C2183 C2184 1.366 . S
C2184 C2183 1.366 . S
C2184 C2185 1.414 . S
C2184 C2187 1.499 . S
C2185 H2159 0.950 . S
C2185 C2184 1.414 . S
C2185 C2186 1.374 . S
C2186 H2160 0.950 . S
C2186 C2182 1.385 . S
C2186 C2185 1.374 . S
C2187 C2184 1.499 . S
C2187 C2188 1.373 . S
C2187 C2189 1.389 . S
C2188 H2161 0.950 . S
C2188 C2174 1.377 . S
C2188 C2187 1.373 . S
C2189 C2173 1.377 . S
C2189 C2187 1.389 . S
C2189 C2190 1.524 . S
C2190 C2189 1.524 . S
C2190 C2191 1.397 . S
C2190 C2195 1.363 . S
C2191 H2162 0.950 . S
C2191 C2190 1.397 . S
C2191 C2192 1.334 . S
C2192 H2163 0.950 . S
C2192 C2191 1.334 . S
C2192 C2193 1.287 . S
C2193 C2192 1.287 . S
C2193 C2194 1.524 . S
C2193 H2196 0.999 . S
C2194 H2164 0.950 . S
C2194 C2193 1.524 . S
C2194 C2195 1.415 . S
C2195 H2165 0.950 . S
C2195 C2190 1.363 . S
C2195 C2194 1.415 . S
H2196 C2193 0.999 . S
H2197 C2178 0.913 . S
H2198 C2216 0.951 . S
H2199 C2218 0.951 . S
H2200 C2220 0.950 . S
H2201 C2221 0.950 . S
H2202 C2223 0.950 . S
H2203 C2226 0.950 . S
H2204 C2227 0.950 . S
H2205 C2229 0.950 . S
H2206 C2230 0.950 . S
H2207 C2231 0.951 . S
H2208 C2233 0.951 . S
H2209 C2235 0.950 . S
H2210 C2236 0.950 . S
H2211 C2238 0.950 . S
H2212 C2241 0.950 . S
H2213 C2242 0.950 . S
H2214 C2244 0.950 . S
H2215 C2245 0.950 . S
C2216 H2198 0.951 . S
C2216 C2217 1.366 . S
C2216 C2218 1.388 . S
C2217 C2216 1.366 . S
C2217 C2221 1.385 . S
C2218 H2199 0.951 . S
C2218 C2216 1.388 . S
C2218 C2219 1.366 . S
C2219 C2218 1.366 . S
C2219 C2220 1.414 . S
C2219 C2222 1.499 . S
C2220 H2200 0.950 . S
C2220 C2219 1.414 . S
C2220 C2221 1.374 . S
C2221 H2201 0.950 . S
C2221 C2217 1.385 . S
C2221 C2220 1.374 . S
C2222 C2219 1.499 . S
C2222 C2223 1.373 . S
C2222 C2224 1.389 . S
C2223 H2202 0.950 . S
C2223 C2222 1.373 . S
C2223 C2239 1.377 . S
C2224 C2222 1.389 . S
C2224 C2225 1.524 . S
C2224 C2238 1.377 . S
C2225 C2224 1.524 . S
C2225 C2226 1.397 . S
C2225 C2230 1.363 . S
C2226 H2203 0.950 . S
C2226 C2225 1.397 . S
C2226 C2227 1.334 . S
C2227 H2204 0.950 . S
C2227 C2226 1.334 . S
C2227 C2228 1.287 . S
C2228 C2227 1.287 . S
C2228 C2229 1.524 . S
C2228 H2247 0.913 . S
C2229 H2205 0.950 . S
C2229 C2228 1.524 . S
C2229 C2230 1.415 . S
C2230 H2206 0.950 . S
C2230 C2225 1.363 . S
C2230 C2229 1.415 . S
C2231 H2207 0.951 . S
C2231 C2232 1.366 . S
C2231 C2233 1.388 . S
C2232 C2231 1.366 . S
C2232 C2236 1.385 . S
C2233 H2208 0.951 . S
C2233 C2231 1.388 . S
C2233 C2234 1.366 . S
C2234 C2233 1.366 . S
C2234 C2235 1.414 . S
C2234 C2237 1.499 . S
C2235 H2209 0.950 . S
C2235 C2234 1.414 . S
C2235 C2236 1.374 . S
C2236 H2210 0.950 . S
C2236 C2232 1.385 . S
C2236 C2235 1.374 . S
C2237 C2234 1.499 . S
C2237 C2238 1.373 . S
C2237 C2239 1.389 . S
C2238 H2211 0.950 . S
C2238 C2224 1.377 . S
C2238 C2237 1.373 . S
C2239 C2223 1.377 . S
C2239 C2237 1.389 . S
C2239 C2240 1.524 . S
C2240 C2239 1.524 . S
C2240 C2241 1.397 . S
C2240 C2245 1.363 . S
C2241 H2212 0.950 . S
C2241 C2240 1.397 . S
C2241 C2242 1.334 . S
C2242 H2213 0.950 . S
C2242 C2241 1.334 . S
C2242 C2243 1.287 . S
C2243 C2242 1.287 . S
C2243 C2244 1.524 . S
C2243 H2246 0.999 . S
C2244 H2214 0.950 . S
C2244 C2243 1.524 . S
C2244 C2245 1.415 . S
C2245 H2215 0.950 . S
C2245 C2240 1.363 . S
C2245 C2244 1.415 . S
H2246 C2243 0.999 . S
H2247 C2228 0.913 . S
H2248 C2266 0.951 . S
H2249 C2268 0.951 . S
H2250 C2270 0.950 . S
H2251 C2271 0.950 . S
H2252 C2273 0.950 . S
H2253 C2276 0.950 . S
H2254 C2277 0.950 . S
H2255 C2279 0.950 . S
H2256 C2280 0.950 . S
H2257 C2281 0.951 . S
H2258 C2283 0.951 . S
H2259 C2285 0.950 . S
H2260 C2286 0.950 . S
H2261 C2288 0.950 . S
H2262 C2291 0.950 . S
H2263 C2292 0.950 . S
H2264 C2294 0.950 . S
H2265 C2295 0.950 . S
C2266 H2248 0.951 . S
C2266 C2267 1.366 . S
C2266 C2268 1.388 . S
C2267 C2266 1.366 . S
C2267 C2271 1.385 . S
C2268 H2249 0.951 . S
C2268 C2266 1.388 . S
C2268 C2269 1.366 . S
C2269 C2268 1.366 . S
C2269 C2270 1.414 . S
C2269 C2272 1.499 . S
C2270 H2250 0.950 . S
C2270 C2269 1.414 . S
C2270 C2271 1.374 . S
C2271 H2251 0.950 . S
C2271 C2267 1.385 . S
C2271 C2270 1.374 . S
C2272 C2269 1.499 . S
C2272 C2273 1.373 . S
C2272 C2274 1.389 . S
C2273 H2252 0.950 . S
C2273 C2272 1.373 . S
C2273 C2289 1.377 . S
C2274 C2272 1.389 . S
C2274 C2275 1.524 . S
C2274 C2288 1.377 . S
C2275 C2274 1.524 . S
C2275 C2276 1.397 . S
C2275 C2280 1.363 . S
C2276 H2253 0.950 . S
C2276 C2275 1.397 . S
C2276 C2277 1.334 . S
C2277 H2254 0.950 . S
C2277 C2276 1.334 . S
C2277 C2278 1.287 . S
C2278 C2277 1.287 . S
C2278 C2279 1.524 . S
C2278 H2297 0.913 . S
C2279 H2255 0.950 . S
C2279 C2278 1.524 . S
C2279 C2280 1.415 . S
C2280 H2256 0.950 . S
C2280 C2275 1.363 . S
C2280 C2279 1.415 . S
C2281 H2257 0.951 . S
C2281 C2282 1.366 . S
C2281 C2283 1.388 . S
C2282 C2281 1.366 . S
C2282 C2286 1.385 . S
C2283 H2258 0.951 . S
C2283 C2281 1.388 . S
C2283 C2284 1.366 . S
C2284 C2283 1.366 . S
C2284 C2285 1.414 . S
C2284 C2287 1.499 . S
C2285 H2259 0.950 . S
C2285 C2284 1.414 . S
C2285 C2286 1.374 . S
C2286 H2260 0.950 . S
C2286 C2282 1.385 . S
C2286 C2285 1.374 . S
C2287 C2284 1.499 . S
C2287 C2288 1.373 . S
C2287 C2289 1.389 . S
C2288 H2261 0.950 . S
C2288 C2274 1.377 . S
C2288 C2287 1.373 . S
C2289 C2273 1.377 . S
C2289 C2287 1.389 . S
C2289 C2290 1.524 . S
C2290 C2289 1.524 . S
C2290 C2291 1.397 . S
C2290 C2295 1.363 . S
C2291 H2262 0.950 . S
C2291 C2290 1.397 . S
C2291 C2292 1.334 . S
C2292 H2263 0.950 . S
C2292 C2291 1.334 . S
C2292 C2293 1.287 . S
C2293 C2292 1.287 . S
C2293 C2294 1.524 . S
C2293 H2296 0.999 . S
C2294 H2264 0.950 . S
C2294 C2293 1.524 . S
C2294 C2295 1.415 . S
C2295 H2265 0.950 . S
C2295 C2290 1.363 . S
C2295 C2294 1.415 . S
H2296 C2293 0.999 . S
H2297 C2278 0.913 . S
H2298 C2316 0.951 . S
H2299 C2318 0.951 . S
H2300 C2320 0.950 . S
H2301 C2321 0.950 . S
H2302 C2323 0.950 . S
H2303 C2326 0.950 . S
H2304 C2327 0.950 1_565 S
H2305 C2329 0.950 . S
H2306 C2330 0.950 . S
H2307 C2331 0.951 . S
H2308 C2333 0.951 . S
H2309 C2335 0.950 . S
H2310 C2336 0.950 . S
H2311 C2338 0.950 . S
H2312 C2341 0.950 . S
H2313 C2342 0.950 . S
H2314 C2344 0.950 . S
H2315 C2345 0.950 . S
C2316 H2298 0.951 . S
C2316 C2317 1.366 . S
C2316 C2318 1.388 1_565 S
C2317 C2316 1.366 . S
C2317 C2321 1.385 1_565 S
C2318 H2299 0.951 . S
C2318 C2316 1.388 1_545 S
C2318 C2319 1.366 . S
C2319 C2318 1.366 . S
C2319 C2320 1.414 . S
C2319 C2322 1.499 . S
C2320 H2300 0.950 . S
C2320 C2319 1.414 . S
C2320 C2321 1.374 . S
C2321 H2301 0.950 . S
C2321 C2317 1.385 1_545 S
C2321 C2320 1.374 . S
C2322 C2319 1.499 . S
C2322 C2323 1.373 . S
C2322 C2324 1.389 . S
C2323 H2302 0.950 . S
C2323 C2322 1.373 . S
C2323 C2339 1.377 . S
C2324 C2322 1.389 . S
C2324 C2325 1.524 . S
C2324 C2338 1.377 . S
C2325 C2324 1.524 . S
C2325 C2326 1.397 . S
C2325 C2330 1.363 . S
C2326 H2303 0.950 . S
C2326 C2325 1.397 . S
C2326 C2327 1.334 . S
C2327 H2304 0.950 1_545 S
C2327 C2326 1.334 . S
C2327 C2328 1.287 . S
C2328 C2327 1.287 . S
C2328 C2329 1.524 . S
C2328 H2347 0.913 1_545 S
C2329 H2305 0.950 . S
C2329 C2328 1.524 . S
C2329 C2330 1.415 . S
C2330 H2306 0.950 . S
C2330 C2325 1.363 . S
C2330 C2329 1.415 . S
C2331 H2307 0.951 . S
C2331 C2332 1.366 . S
C2331 C2333 1.388 . S
C2332 C2331 1.366 . S
C2332 C2336 1.385 . S
C2333 H2308 0.951 . S
C2333 C2331 1.388 . S
C2333 C2334 1.366 . S
C2334 C2333 1.366 . S
C2334 C2335 1.414 . S
C2334 C2337 1.499 . S
C2335 H2309 0.950 . S
C2335 C2334 1.414 . S
C2335 C2336 1.374 . S
C2336 H2310 0.950 . S
C2336 C2332 1.385 . S
C2336 C2335 1.374 . S
C2337 C2334 1.499 . S
C2337 C2338 1.373 . S
C2337 C2339 1.389 . S
C2338 H2311 0.950 . S
C2338 C2324 1.377 . S
C2338 C2337 1.373 . S
C2339 C2323 1.377 . S
C2339 C2337 1.389 . S
C2339 C2340 1.524 . S
C2340 C2339 1.524 . S
C2340 C2341 1.397 . S
C2340 C2345 1.363 . S
C2341 H2312 0.950 . S
C2341 C2340 1.397 . S
C2341 C2342 1.334 . S
C2342 H2313 0.950 . S
C2342 C2341 1.334 . S
C2342 C2343 1.287 . S
C2343 C2342 1.287 . S
C2343 C2344 1.524 . S
C2343 H2346 0.999 . S
C2344 H2314 0.950 . S
C2344 C2343 1.524 . S
C2344 C2345 1.415 . S
C2345 H2315 0.950 . S
C2345 C2340 1.363 . S
C2345 C2344 1.415 . S
H2346 C2343 0.999 . S
H2347 C2328 0.913 1_565 S
H2348 C2366 0.951 . S
H2349 C2368 0.951 . S
H2350 C2370 0.950 . S
H2351 C2371 0.950 . S
H2352 C2373 0.950 . S
H2353 C2376 0.950 . S
H2354 C2377 0.950 . S
H2355 C2379 0.950 . S
H2356 C2380 0.950 . S
H2357 C2381 0.951 . S
H2358 C2383 0.951 . S
H2359 C2385 0.950 . S
H2360 C2386 0.950 . S
H2361 C2388 0.950 . S
H2362 C2391 0.950 . S
H2363 C2392 0.950 . S
H2364 C2394 0.950 . S
H2365 C2395 0.950 . S
C2366 H2348 0.951 . S
C2366 C2367 1.366 . S
C2366 C2368 1.388 . S
C2367 C2366 1.366 . S
C2367 C2371 1.385 . S
C2368 H2349 0.951 . S
C2368 C2366 1.388 . S
C2368 C2369 1.366 . S
C2369 C2368 1.366 . S
C2369 C2370 1.414 . S
C2369 C2372 1.499 . S
C2370 H2350 0.950 . S
C2370 C2369 1.414 . S
C2370 C2371 1.374 . S
C2371 H2351 0.950 . S
C2371 C2367 1.385 . S
C2371 C2370 1.374 . S
C2372 C2369 1.499 . S
C2372 C2373 1.373 . S
C2372 C2374 1.389 . S
C2373 H2352 0.950 . S
C2373 C2372 1.373 . S
C2373 C2389 1.377 . S
C2374 C2372 1.389 . S
C2374 C2375 1.524 . S
C2374 C2388 1.377 . S
C2375 C2374 1.524 . S
C2375 C2376 1.397 . S
C2375 C2380 1.363 . S
C2376 H2353 0.950 . S
C2376 C2375 1.397 . S
C2376 C2377 1.334 . S
C2377 H2354 0.950 . S
C2377 C2376 1.334 . S
C2377 C2378 1.287 . S
C2378 C2377 1.287 . S
C2378 C2379 1.524 . S
C2378 H2397 0.913 . S
C2379 H2355 0.950 . S
C2379 C2378 1.524 . S
C2379 C2380 1.415 . S
C2380 H2356 0.950 . S
C2380 C2375 1.363 . S
C2380 C2379 1.415 . S
C2381 H2357 0.951 . S
C2381 C2382 1.366 . S
C2381 C2383 1.388 1_565 S
C2382 C2381 1.366 . S
C2382 C2386 1.385 . S
C2383 H2358 0.951 . S
C2383 C2381 1.388 1_545 S
C2383 C2384 1.366 . S
C2384 C2383 1.366 . S
C2384 C2385 1.414 . S
C2384 C2387 1.499 . S
C2385 H2359 0.950 . S
C2385 C2384 1.414 . S
C2385 C2386 1.374 1_545 S
C2386 H2360 0.950 . S
C2386 C2382 1.385 . S
C2386 C2385 1.374 1_565 S
C2387 C2384 1.499 . S
C2387 C2388 1.373 . S
C2387 C2389 1.389 . S
C2388 H2361 0.950 . S
C2388 C2374 1.377 . S
C2388 C2387 1.373 . S
C2389 C2373 1.377 . S
C2389 C2387 1.389 . S
C2389 C2390 1.524 . S
C2390 C2389 1.524 . S
C2390 C2391 1.397 . S
C2390 C2395 1.363 . S
C2391 H2362 0.950 . S
C2391 C2390 1.397 . S
C2391 C2392 1.334 . S
C2392 H2363 0.950 . S
C2392 C2391 1.334 . S
C2392 C2393 1.287 . S
C2393 C2392 1.287 . S
C2393 C2394 1.524 . S
C2393 H2396 0.999 . S
C2394 H2364 0.950 . S
C2394 C2393 1.524 . S
C2394 C2395 1.415 . S
C2395 H2365 0.950 . S
C2395 C2390 1.363 . S
C2395 C2394 1.415 . S
H2396 C2393 0.999 . S
H2397 C2378 0.913 . S
H2398 C2416 0.951 . S
H2399 C2418 0.951 . S
H2400 C2420 0.950 . S
H2401 C2421 0.950 . S
H2402 C2423 0.950 . S
H2403 C2426 0.950 . S
H2404 C2427 0.950 . S
H2405 C2429 0.950 . S
H2406 C2430 0.950 . S
H2407 C2431 0.951 . S
H2408 C2433 0.951 . S
H2409 C2435 0.950 . S
H2410 C2436 0.950 . S
H2411 C2438 0.950 . S
H2412 C2441 0.950 . S
H2413 C2442 0.950 . S
H2414 C2444 0.950 . S
H2415 C2445 0.950 . S
C2416 H2398 0.951 . S
C2416 C2417 1.366 . S
C2416 C2418 1.388 . S
C2417 C2416 1.366 . S
C2417 C2421 1.385 . S
C2418 H2399 0.951 . S
C2418 C2416 1.388 . S
C2418 C2419 1.366 . S
C2419 C2418 1.366 . S
C2419 C2420 1.414 . S
C2419 C2422 1.499 . S
C2420 H2400 0.950 . S
C2420 C2419 1.414 . S
C2420 C2421 1.374 . S
C2421 H2401 0.950 . S
C2421 C2417 1.385 . S
C2421 C2420 1.374 . S
C2422 C2419 1.499 . S
C2422 C2423 1.373 . S
C2422 C2424 1.389 . S
C2423 H2402 0.950 . S
C2423 C2422 1.373 . S
C2423 C2439 1.377 . S
C2424 C2422 1.389 . S
C2424 C2425 1.524 . S
C2424 C2438 1.377 . S
C2425 C2424 1.524 . S
C2425 C2426 1.397 . S
C2425 C2430 1.363 . S
C2426 H2403 0.950 . S
C2426 C2425 1.397 . S
C2426 C2427 1.334 . S
C2427 H2404 0.950 . S
C2427 C2426 1.334 . S
C2427 C2428 1.287 . S
C2428 C2427 1.287 . S
C2428 C2429 1.524 . S
C2428 H2447 0.913 . S
C2429 H2405 0.950 . S
C2429 C2428 1.524 . S
C2429 C2430 1.415 . S
C2430 H2406 0.950 . S
C2430 C2425 1.363 . S
C2430 C2429 1.415 . S
C2431 H2407 0.951 . S
C2431 C2432 1.366 . S
C2431 C2433 1.388 . S
C2432 C2431 1.366 . S
C2432 C2436 1.385 . S
C2433 H2408 0.951 . S
C2433 C2431 1.388 . S
C2433 C2434 1.366 . S
C2434 C2433 1.366 . S
C2434 C2435 1.414 . S
C2434 C2437 1.499 . S
C2435 H2409 0.950 . S
C2435 C2434 1.414 . S
C2435 C2436 1.374 . S
C2436 H2410 0.950 . S
C2436 C2432 1.385 . S
C2436 C2435 1.374 . S
C2437 C2434 1.499 . S
C2437 C2438 1.373 . S
C2437 C2439 1.389 . S
C2438 H2411 0.950 . S
C2438 C2424 1.377 . S
C2438 C2437 1.373 . S
C2439 C2423 1.377 . S
C2439 C2437 1.389 . S
C2439 C2440 1.524 . S
C2440 C2439 1.524 . S
C2440 C2441 1.397 . S
C2440 C2445 1.363 . S
C2441 H2412 0.950 . S
C2441 C2440 1.397 . S
C2441 C2442 1.334 . S
C2442 H2413 0.950 . S
C2442 C2441 1.334 . S
C2442 C2443 1.287 . S
C2443 C2442 1.287 . S
C2443 C2444 1.524 . S
C2443 H2446 0.999 . S
C2444 H2414 0.950 . S
C2444 C2443 1.524 . S
C2444 C2445 1.415 . S
C2445 H2415 0.950 . S
C2445 C2440 1.363 . S
C2445 C2444 1.415 . S
H2446 C2443 0.999 . S
H2447 C2428 0.913 . S
H2448 C2466 0.951 . S
H2449 C2468 0.951 . S
H2450 C2470 0.950 . S
H2451 C2471 0.950 . S
H2452 C2473 0.950 . S
H2453 C2476 0.950 . S
H2454 C2477 0.950 . S
H2455 C2479 0.950 . S
H2456 C2480 0.950 . S
H2457 C2481 0.951 . S
H2458 C2483 0.951 . S
H2459 C2485 0.950 . S
H2460 C2486 0.950 . S
H2461 C2488 0.950 . S
H2462 C2491 0.950 . S
H2463 C2492 0.950 . S
H2464 C2494 0.950 . S
H2465 C2495 0.950 . S
C2466 H2448 0.951 . S
C2466 C2467 1.366 . S
C2466 C2468 1.388 . S
C2467 C2466 1.366 . S
C2467 C2471 1.385 . S
C2468 H2449 0.951 . S
C2468 C2466 1.388 . S
C2468 C2469 1.366 . S
C2469 C2468 1.366 . S
C2469 C2470 1.414 . S
C2469 C2472 1.499 . S
C2470 H2450 0.950 . S
C2470 C2469 1.414 . S
C2470 C2471 1.374 . S
C2471 H2451 0.950 . S
C2471 C2467 1.385 . S
C2471 C2470 1.374 . S
C2472 C2469 1.499 . S
C2472 C2473 1.373 . S
C2472 C2474 1.389 . S
C2473 H2452 0.950 . S
C2473 C2472 1.373 . S
C2473 C2489 1.377 . S
C2474 C2472 1.389 . S
C2474 C2475 1.524 . S
C2474 C2488 1.377 . S
C2475 C2474 1.524 . S
C2475 C2476 1.397 . S
C2475 C2480 1.363 . S
C2476 H2453 0.950 . S
C2476 C2475 1.397 . S
C2476 C2477 1.334 . S
C2477 H2454 0.950 . S
C2477 C2476 1.334 . S
C2477 C2478 1.287 . S
C2478 C2477 1.287 . S
C2478 C2479 1.524 . S
C2478 H2497 0.913 . S
C2479 H2455 0.950 . S
C2479 C2478 1.524 . S
C2479 C2480 1.415 . S
C2480 H2456 0.950 . S
C2480 C2475 1.363 . S
C2480 C2479 1.415 . S
C2481 H2457 0.951 . S
C2481 C2482 1.366 . S
C2481 C2483 1.388 . S
C2482 C2481 1.366 . S
C2482 C2486 1.385 . S
C2483 H2458 0.951 . S
C2483 C2481 1.388 . S
C2483 C2484 1.366 . S
C2484 C2483 1.366 . S
C2484 C2485 1.414 . S
C2484 C2487 1.499 . S
C2485 H2459 0.950 . S
C2485 C2484 1.414 . S
C2485 C2486 1.374 . S
C2486 H2460 0.950 . S
C2486 C2482 1.385 . S
C2486 C2485 1.374 . S
C2487 C2484 1.499 . S
C2487 C2488 1.373 . S
C2487 C2489 1.389 . S
C2488 H2461 0.950 . S
C2488 C2474 1.377 . S
C2488 C2487 1.373 . S
C2489 C2473 1.377 . S
C2489 C2487 1.389 . S
C2489 C2490 1.524 . S
C2490 C2489 1.524 . S
C2490 C2491 1.397 . S
C2490 C2495 1.363 . S
C2491 H2462 0.950 . S
C2491 C2490 1.397 . S
C2491 C2492 1.334 . S
C2492 H2463 0.950 . S
C2492 C2491 1.334 . S
C2492 C2493 1.287 . S
C2493 C2492 1.287 . S
C2493 C2494 1.524 . S
C2493 H2496 0.999 . S
C2494 H2464 0.950 . S
C2494 C2493 1.524 . S
C2494 C2495 1.415 . S
C2495 H2465 0.950 . S
C2495 C2490 1.363 . S
C2495 C2494 1.415 . S
H2496 C2493 0.999 . S
H2497 C2478 0.913 . S
H2498 C2516 0.951 . S
H2499 C2518 0.951 . S
H2500 C2520 0.950 . S
H2501 C2521 0.950 . S
H2502 C2523 0.950 . S
H2503 C2526 0.950 . S
H2504 C2527 0.950 . S
H2505 C2529 0.950 . S
H2506 C2530 0.950 . S
H2507 C2531 0.945 1_545 S
H2508 C2533 0.951 . S
H2509 C2535 0.950 . S
H2510 C2536 0.950 . S
H2511 C2538 0.950 . S
H2512 C2541 0.950 . S
H2513 C2542 0.950 . S
H2514 C2544 0.950 . S
H2515 C2545 0.950 . S
C2516 H2498 0.951 . S
C2516 C2517 1.366 . S
C2516 C2518 1.388 . S
C2517 C2516 1.366 . S
C2517 C2521 1.385 . S
C2518 H2499 0.951 . S
C2518 C2516 1.388 . S
C2518 C2519 1.366 . S
C2519 C2518 1.366 . S
C2519 C2520 1.414 . S
C2519 C2522 1.499 . S
C2520 H2500 0.950 . S
C2520 C2519 1.414 . S
C2520 C2521 1.374 . S
C2521 H2501 0.950 . S
C2521 C2517 1.385 . S
C2521 C2520 1.374 . S
C2522 C2519 1.499 . S
C2522 C2523 1.373 . S
C2522 C2524 1.389 . S
C2523 H2502 0.950 . S
C2523 C2522 1.373 . S
C2523 C2539 1.377 . S
C2524 C2522 1.389 . S
C2524 C2525 1.524 . S
C2524 C2538 1.377 . S
C2525 C2524 1.524 . S
C2525 C2526 1.397 . S
C2525 C2530 1.363 . S
C2526 H2503 0.950 . S
C2526 C2525 1.397 . S
C2526 C2527 1.334 . S
C2527 H2504 0.950 . S
C2527 C2526 1.334 . S
C2527 C2528 1.287 . S
C2528 C2527 1.287 . S
C2528 C2529 1.524 . S
C2528 H2547 0.913 . S
C2529 H2505 0.950 . S
C2529 C2528 1.524 . S
C2529 C2530 1.415 . S
C2530 H2506 0.950 . S
C2530 C2525 1.363 . S
C2530 C2529 1.415 . S
C2531 H2507 0.945 1_565 S
C2531 C2532 1.350 1_565 S
C2531 C2533 1.409 . S
C2532 C2531 1.350 1_545 S
C2532 C2536 1.385 . S
C2533 H2508 0.951 . S
C2533 C2531 1.409 . S
C2533 C2534 1.366 . S
C2534 C2533 1.366 . S
C2534 C2535 1.414 . S
C2534 C2537 1.499 . S
C2535 H2509 0.950 . S
C2535 C2534 1.414 . S
C2535 C2536 1.374 1_565 S
C2536 H2510 0.950 . S
C2536 C2532 1.385 . S
C2536 C2535 1.374 1_545 S
C2537 C2534 1.499 . S
C2537 C2538 1.373 . S
C2537 C2539 1.389 . S
C2538 H2511 0.950 . S
C2538 C2524 1.377 . S
C2538 C2537 1.373 . S
C2539 C2523 1.377 . S
C2539 C2537 1.389 . S
C2539 C2540 1.524 . S
C2540 C2539 1.524 . S
C2540 C2541 1.397 . S
C2540 C2545 1.363 . S
C2541 H2512 0.950 . S
C2541 C2540 1.397 . S
C2541 C2542 1.334 . S
C2542 H2513 0.950 . S
C2542 C2541 1.334 . S
C2542 C2543 1.287 . S
C2543 C2542 1.287 . S
C2543 C2544 1.524 . S
C2543 H2546 0.999 . S
C2544 H2514 0.950 . S
C2544 C2543 1.524 . S
C2544 C2545 1.415 . S
C2545 H2515 0.950 . S
C2545 C2540 1.363 . S
C2545 C2544 1.415 . S
H2546 C2543 0.999 . S
H2547 C2528 0.913 . S
H2548 C2566 0.951 . S
H2549 C2568 0.951 . S
H2550 C2570 0.950 . S
H2551 C2571 0.950 . S
H2552 C2573 0.950 . S
H2553 C2576 0.950 . S
H2554 C2577 0.950 . S
H2555 C2579 0.950 . S
H2556 C2580 0.950 . S
H2557 C2581 0.951 . S
H2558 C2583 0.951 . S
H2559 C2585 0.950 . S
H2560 C2586 0.950 . S
H2561 C2588 0.950 . S
H2562 C2591 0.950 . S
H2563 C2592 0.950 . S
H2564 C2594 0.950 . S
H2565 C2595 0.950 . S
C2566 H2548 0.951 . S
C2566 C2567 1.366 . S
C2566 C2568 1.388 . S
C2567 C2566 1.366 . S
C2567 C2571 1.385 . S
C2568 H2549 0.951 . S
C2568 C2566 1.388 . S
C2568 C2569 1.366 . S
C2569 C2568 1.366 . S
C2569 C2570 1.414 . S
C2569 C2572 1.499 . S
C2570 H2550 0.950 . S
C2570 C2569 1.414 . S
C2570 C2571 1.374 . S
C2571 H2551 0.950 . S
C2571 C2567 1.385 . S
C2571 C2570 1.374 . S
C2572 C2569 1.499 . S
C2572 C2573 1.373 . S
C2572 C2574 1.389 . S
C2573 H2552 0.950 . S
C2573 C2572 1.373 . S
C2573 C2589 1.377 . S
C2574 C2572 1.389 . S
C2574 C2575 1.524 . S
C2574 C2588 1.377 . S
C2575 C2574 1.524 . S
C2575 C2576 1.397 . S
C2575 C2580 1.363 . S
C2576 H2553 0.950 . S
C2576 C2575 1.397 . S
C2576 C2577 1.334 . S
C2577 H2554 0.950 . S
C2577 C2576 1.334 . S
C2577 C2578 1.287 . S
C2578 C2577 1.287 . S
C2578 C2579 1.524 . S
C2578 H2597 0.913 . S
C2579 H2555 0.950 . S
C2579 C2578 1.524 . S
C2579 C2580 1.415 . S
C2580 H2556 0.950 . S
C2580 C2575 1.363 . S
C2580 C2579 1.415 . S
C2581 H2557 0.951 . S
C2581 C2582 1.366 1_565 S
C2581 C2583 1.388 . S
C2582 C2581 1.366 1_545 S
C2582 C2586 1.385 . S
C2583 H2558 0.951 . S
C2583 C2581 1.388 . S
C2583 C2584 1.366 . S
C2584 C2583 1.366 . S
C2584 C2585 1.414 . S
C2584 C2587 1.499 . S
C2585 H2559 0.950 . S
C2585 C2584 1.414 . S
C2585 C2586 1.374 1_565 S
C2586 H2560 0.950 . S
C2586 C2582 1.385 . S
C2586 C2585 1.374 1_545 S
C2587 C2584 1.499 . S
C2587 C2588 1.373 . S
C2587 C2589 1.389 . S
C2588 H2561 0.950 . S
C2588 C2574 1.377 . S
C2588 C2587 1.373 . S
C2589 C2573 1.377 . S
C2589 C2587 1.389 . S
C2589 C2590 1.524 . S
C2590 C2589 1.524 . S
C2590 C2591 1.397 . S
C2590 C2595 1.363 . S
C2591 H2562 0.950 . S
C2591 C2590 1.397 . S
C2591 C2592 1.334 . S
C2592 H2563 0.950 . S
C2592 C2591 1.334 . S
C2592 C2593 1.287 . S
C2593 C2592 1.287 . S
C2593 C2594 1.524 . S
C2593 H2596 0.999 . S
C2594 H2564 0.950 . S
C2594 C2593 1.524 . S
C2594 C2595 1.415 . S
C2595 H2565 0.950 . S
C2595 C2590 1.363 . S
C2595 C2594 1.415 . S
H2596 C2593 0.999 . S
H2597 C2578 0.913 . S
H2598 C2616 0.951 . S
H2599 C2618 0.951 . S
H2600 C2620 0.950 . S
H2601 C2621 0.950 . S
H2602 C2623 0.950 . S
H2603 C2626 0.950 . S
H2604 C2627 0.950 . S
H2605 C2629 0.950 . S
H2606 C2630 0.950 . S
H2607 C2631 0.951 . S
H2608 C2633 0.951 . S
H2609 C2635 0.950 . S
H2610 C2636 0.950 . S
H2611 C2638 0.950 . S
H2612 C2641 0.950 . S
H2613 C2642 0.950 . S
H2614 C2644 0.950 . S
H2615 C2645 0.950 . S
C2616 H2598 0.951 . S
C2616 C2617 1.366 . S
C2616 C2618 1.388 . S
C2617 C2616 1.366 . S
C2617 C2621 1.385 . S
C2618 H2599 0.951 . S
C2618 C2616 1.388 . S
C2618 C2619 1.366 . S
C2619 C2618 1.366 . S
C2619 C2620 1.414 . S
C2619 C2622 1.499 . S
C2620 H2600 0.950 . S
C2620 C2619 1.414 . S
C2620 C2621 1.374 . S
C2621 H2601 0.950 . S
C2621 C2617 1.385 . S
C2621 C2620 1.374 . S
C2622 C2619 1.499 . S
C2622 C2623 1.373 . S
C2622 C2624 1.389 . S
C2623 H2602 0.950 . S
C2623 C2622 1.373 . S
C2623 C2639 1.377 . S
C2624 C2622 1.389 . S
C2624 C2625 1.524 . S
C2624 C2638 1.377 . S
C2625 C2624 1.524 . S
C2625 C2626 1.397 . S
C2625 C2630 1.363 . S
C2626 H2603 0.950 . S
C2626 C2625 1.397 . S
C2626 C2627 1.334 . S
C2627 H2604 0.950 . S
C2627 C2626 1.334 . S
C2627 C2628 1.287 . S
C2628 C2627 1.287 . S
C2628 C2629 1.524 . S
C2628 H2647 0.913 . S
C2629 H2605 0.950 . S
C2629 C2628 1.524 . S
C2629 C2630 1.415 . S
C2630 H2606 0.950 . S
C2630 C2625 1.363 . S
C2630 C2629 1.415 . S
C2631 H2607 0.951 . S
C2631 C2632 1.366 . S
C2631 C2633 1.388 . S
C2632 C2631 1.366 . S
C2632 C2636 1.385 . S
C2633 H2608 0.951 . S
C2633 C2631 1.388 . S
C2633 C2634 1.366 . S
C2634 C2633 1.366 . S
C2634 C2635 1.414 . S
C2634 C2637 1.499 . S
C2635 H2609 0.950 . S
C2635 C2634 1.414 . S
C2635 C2636 1.374 . S
C2636 H2610 0.950 . S
C2636 C2632 1.385 . S
C2636 C2635 1.374 . S
C2637 C2634 1.499 . S
C2637 C2638 1.373 . S
C2637 C2639 1.389 . S
C2638 H2611 0.950 . S
C2638 C2624 1.377 . S
C2638 C2637 1.373 . S
C2639 C2623 1.377 . S
C2639 C2637 1.389 . S
C2639 C2640 1.524 . S
C2640 C2639 1.524 . S
C2640 C2641 1.397 . S
C2640 C2645 1.363 . S
C2641 H2612 0.950 . S
C2641 C2640 1.397 . S
C2641 C2642 1.334 . S
C2642 H2613 0.950 . S
C2642 C2641 1.334 . S
C2642 C2643 1.287 . S
C2643 C2642 1.287 . S
C2643 C2644 1.524 . S
C2643 H2646 0.999 . S
C2644 H2614 0.950 . S
C2644 C2643 1.524 . S
C2644 C2645 1.415 . S
C2645 H2615 0.950 . S
C2645 C2640 1.363 . S
C2645 C2644 1.415 . S
H2646 C2643 0.999 . S
H2647 C2628 0.913 . S
H2648 C2666 0.951 . S
H2649 C2668 0.951 . S
H2650 C2670 0.950 . S
H2651 C2671 0.950 . S
H2652 C2673 0.950 . S
H2653 C2676 0.950 . S
H2654 C2677 0.950 . S
H2655 C2679 0.950 . S
H2656 C2680 0.950 . S
H2657 C2681 0.951 . S
H2658 C2683 0.951 . S
H2659 C2685 0.950 . S
H2660 C2686 0.950 . S
H2661 C2688 0.950 . S
H2662 C2691 0.950 . S
H2663 C2692 0.950 . S
H2664 C2694 0.950 . S
H2665 C2695 0.950 . S
C2666 H2648 0.951 . S
C2666 C2667 1.366 . S
C2666 C2668 1.388 . S
C2667 C2666 1.366 . S
C2667 C2671 1.385 . S
C2668 H2649 0.951 . S
C2668 C2666 1.388 . S
C2668 C2669 1.366 . S
C2669 C2668 1.366 . S
C2669 C2670 1.414 . S
C2669 C2672 1.499 . S
C2670 H2650 0.950 . S
C2670 C2669 1.414 . S
C2670 C2671 1.374 . S
C2671 H2651 0.950 . S
C2671 C2667 1.385 . S
C2671 C2670 1.374 . S
C2672 C2669 1.499 . S
C2672 C2673 1.373 . S
C2672 C2674 1.389 . S
C2673 H2652 0.950 . S
C2673 C2672 1.373 . S
C2673 C2689 1.377 . S
C2674 C2672 1.389 . S
C2674 C2675 1.524 . S
C2674 C2688 1.377 . S
C2675 C2674 1.524 . S
C2675 C2676 1.397 . S
C2675 C2680 1.363 . S
C2676 H2653 0.950 . S
C2676 C2675 1.397 . S
C2676 C2677 1.334 . S
C2677 H2654 0.950 . S
C2677 C2676 1.334 . S
C2677 C2678 1.287 . S
C2678 C2677 1.287 . S
C2678 C2679 1.524 . S
C2678 H2697 0.913 . S
C2679 H2655 0.950 . S
C2679 C2678 1.524 . S
C2679 C2680 1.415 . S
C2680 H2656 0.950 . S
C2680 C2675 1.363 . S
C2680 C2679 1.415 . S
C2681 H2657 0.951 . S
C2681 C2682 1.366 . S
C2681 C2683 1.388 . S
C2682 C2681 1.366 . S
C2682 C2686 1.385 . S
C2683 H2658 0.951 . S
C2683 C2681 1.388 . S
C2683 C2684 1.366 . S
C2684 C2683 1.366 . S
C2684 C2685 1.414 . S
C2684 C2687 1.499 . S
C2685 H2659 0.950 . S
C2685 C2684 1.414 . S
C2685 C2686 1.374 . S
C2686 H2660 0.950 . S
C2686 C2682 1.385 . S
C2686 C2685 1.374 . S
C2687 C2684 1.499 . S
C2687 C2688 1.373 . S
C2687 C2689 1.389 . S
C2688 H2661 0.950 . S
C2688 C2674 1.377 . S
C2688 C2687 1.373 . S
C2689 C2673 1.377 . S
C2689 C2687 1.389 . S
C2689 C2690 1.524 . S
C2690 C2689 1.524 . S
C2690 C2691 1.397 . S
C2690 C2695 1.363 . S
C2691 H2662 0.950 . S
C2691 C2690 1.397 . S
C2691 C2692 1.334 . S
C2692 H2663 0.950 . S
C2692 C2691 1.334 . S
C2692 C2693 1.287 . S
C2693 C2692 1.287 . S
C2693 C2694 1.524 . S
C2693 H2696 0.999 . S
C2694 H2664 0.950 . S
C2694 C2693 1.524 . S
C2694 C2695 1.415 . S
C2695 H2665 0.950 . S
C2695 C2690 1.363 . S
C2695 C2694 1.415 . S
H2696 C2693 0.999 . S
H2697 C2678 0.913 . S
H2698 C2716 0.951 . S
H2699 C2718 0.951 . S
H2700 C2720 0.950 . S
H2701 C2721 0.950 . S
H2702 C2723 0.950 . S
H2703 C2726 0.950 . S
H2704 C2727 0.950 . S
H2705 C2729 0.950 . S
H2706 C2730 0.950 . S
H2707 C2731 0.951 . S
H2708 C2733 0.951 . S
H2709 C2735 0.950 . S
H2710 C2736 0.950 . S
H2711 C2738 0.950 . S
H2712 C2741 0.950 . S
H2713 C2742 0.950 . S
H2714 C2744 0.950 . S
H2715 C2745 0.950 . S
C2716 H2698 0.951 . S
C2716 C2717 1.366 1_545 S
C2716 C2718 1.388 . S
C2717 C2716 1.366 1_565 S
C2717 C2721 1.385 . S
C2718 H2699 0.951 . S
C2718 C2716 1.388 . S
C2718 C2719 1.366 . S
C2719 C2718 1.366 . S
C2719 C2720 1.414 . S
C2719 C2722 1.499 . S
C2720 H2700 0.950 . S
C2720 C2719 1.414 . S
C2720 C2721 1.374 1_545 S
C2721 H2701 0.950 . S
C2721 C2717 1.385 . S
C2721 C2720 1.374 1_565 S
C2722 C2719 1.499 . S
C2722 C2723 1.373 . S
C2722 C2724 1.389 . S
C2723 H2702 0.950 . S
C2723 C2722 1.373 . S
C2723 C2739 1.377 . S
C2724 C2722 1.389 . S
C2724 C2725 1.524 . S
C2724 C2738 1.377 . S
C2725 C2724 1.524 . S
C2725 C2726 1.397 . S
C2725 C2730 1.363 . S
C2726 H2703 0.950 . S
C2726 C2725 1.397 . S
C2726 C2727 1.334 . S
C2727 H2704 0.950 . S
C2727 C2726 1.334 . S
C2727 C2728 1.287 . S
C2728 C2727 1.287 . S
C2728 C2729 1.524 . S
C2728 H2747 0.913 . S
C2729 H2705 0.950 . S
C2729 C2728 1.524 . S
C2729 C2730 1.415 . S
C2730 H2706 0.950 . S
C2730 C2725 1.363 . S
C2730 C2729 1.415 . S
C2731 H2707 0.951 . S
C2731 C2732 1.366 . S
C2731 C2733 1.388 . S
C2732 C2731 1.366 . S
C2732 C2736 1.385 . S
C2733 H2708 0.951 . S
C2733 C2731 1.388 . S
C2733 C2734 1.366 . S
C2734 C2733 1.366 . S
C2734 C2735 1.414 . S
C2734 C2737 1.499 . S
C2735 H2709 0.950 . S
C2735 C2734 1.414 . S
C2735 C2736 1.374 . S
C2736 H2710 0.950 . S
C2736 C2732 1.385 . S
C2736 C2735 1.374 . S
C2737 C2734 1.499 . S
C2737 C2738 1.373 . S
C2737 C2739 1.389 . S
C2738 H2711 0.950 . S
C2738 C2724 1.377 . S
C2738 C2737 1.373 . S
C2739 C2723 1.377 . S
C2739 C2737 1.389 . S
C2739 C2740 1.524 . S
C2740 C2739 1.524 . S
C2740 C2741 1.397 . S
C2740 C2745 1.363 . S
C2741 H2712 0.950 . S
C2741 C2740 1.397 . S
C2741 C2742 1.334 . S
C2742 H2713 0.950 . S
C2742 C2741 1.334 . S
C2742 C2743 1.287 . S
C2743 C2742 1.287 . S
C2743 C2744 1.524 . S
C2743 H2746 0.999 . S
C2744 H2714 0.950 . S
C2744 C2743 1.524 . S
C2744 C2745 1.415 . S
C2745 H2715 0.950 . S
C2745 C2740 1.363 . S
C2745 C2744 1.415 . S
H2746 C2743 0.999 . S
H2747 C2728 0.913 . S
H2748 C2766 0.951 . S
H2749 C2768 0.951 . S
H2750 C2770 0.950 . S
H2751 C2771 0.950 . S
H2752 C2773 0.950 . S
H2753 C2776 0.950 . S
H2754 C2777 0.950 . S
H2755 C2779 0.950 . S
H2756 C2780 0.950 . S
H2757 C2781 0.951 . S
H2758 C2783 0.951 . S
H2759 C2785 0.950 . S
H2760 C2786 0.950 . S
H2761 C2788 0.950 . S
H2762 C2791 0.950 . S
H2763 C2792 0.950 . S
H2764 C2794 0.950 . S
H2765 C2795 0.950 . S
C2766 H2748 0.951 . S
C2766 C2767 1.366 . S
C2766 C2768 1.388 . S
C2767 C2766 1.366 . S
C2767 C2771 1.385 . S
C2768 H2749 0.951 . S
C2768 C2766 1.388 . S
C2768 C2769 1.366 . S
C2769 C2768 1.366 . S
C2769 C2770 1.414 . S
C2769 C2772 1.499 . S
C2770 H2750 0.950 . S
C2770 C2769 1.414 . S
C2770 C2771 1.374 . S
C2771 H2751 0.950 . S
C2771 C2767 1.385 . S
C2771 C2770 1.374 . S
C2772 C2769 1.499 . S
C2772 C2773 1.373 . S
C2772 C2774 1.389 . S
C2773 H2752 0.950 . S
C2773 C2772 1.373 . S
C2773 C2789 1.377 . S
C2774 C2772 1.389 . S
C2774 C2775 1.524 . S
C2774 C2788 1.377 . S
C2775 C2774 1.524 . S
C2775 C2776 1.397 . S
C2775 C2780 1.363 . S
C2776 H2753 0.950 . S
C2776 C2775 1.397 . S
C2776 C2777 1.334 . S
C2777 H2754 0.950 . S
C2777 C2776 1.334 . S
C2777 C2778 1.287 . S
C2778 C2777 1.287 . S
C2778 C2779 1.524 . S
C2778 H2797 0.913 . S
C2779 H2755 0.950 . S
C2779 C2778 1.524 . S
C2779 C2780 1.415 . S
C2780 H2756 0.950 . S
C2780 C2775 1.363 . S
C2780 C2779 1.415 . S
C2781 H2757 0.951 . S
C2781 C2782 1.366 . S
C2781 C2783 1.388 1_565 S
C2782 C2781 1.366 . S
C2782 C2786 1.385 . S
C2783 H2758 0.951 . S
C2783 C2781 1.388 1_545 S
C2783 C2784 1.366 . S
C2784 C2783 1.366 . S
C2784 C2785 1.414 . S
C2784 C2787 1.499 . S
C2785 H2759 0.950 . S
C2785 C2784 1.414 . S
C2785 C2786 1.374 1_545 S
C2786 H2760 0.950 . S
C2786 C2782 1.385 . S
C2786 C2785 1.374 1_565 S
C2787 C2784 1.499 . S
C2787 C2788 1.373 . S
C2787 C2789 1.389 . S
C2788 H2761 0.950 . S
C2788 C2774 1.377 . S
C2788 C2787 1.373 . S
C2789 C2773 1.377 . S
C2789 C2787 1.389 . S
C2789 C2790 1.524 . S
C2790 C2789 1.524 . S
C2790 C2791 1.397 . S
C2790 C2795 1.363 . S
C2791 H2762 0.950 . S
C2791 C2790 1.397 . S
C2791 C2792 1.334 . S
C2792 H2763 0.950 . S
C2792 C2791 1.334 . S
C2792 C2793 1.287 . S
C2793 C2792 1.287 . S
C2793 C2794 1.524 . S
C2793 H2796 0.999 . S
C2794 H2764 0.950 . S
C2794 C2793 1.524 . S
C2794 C2795 1.415 . S
C2795 H2765 0.950 . S
C2795 C2790 1.363 . S
C2795 C2794 1.415 . S
H2796 C2793 0.999 . S
H2797 C2778 0.913 . S
H2798 C2816 0.951 . S
H2799 C2818 0.951 . S
H2800 C2820 0.950 . S
H2801 C2821 0.950 . S
H2802 C2823 0.950 . S
H2803 C2826 0.950 . S
H2804 C2827 0.950 . S
H2805 C2829 0.950 . S
H2806 C2830 0.950 . S
H2807 C2831 0.951 . S
H2808 C2833 0.951 . S
H2809 C2835 0.950 . S
H2810 C2836 0.950 . S
H2811 C2838 0.950 . S
H2812 C2841 0.950 . S
H2813 C2842 0.950 . S
H2814 C2844 0.950 . S
H2815 C2845 0.950 . S
C2816 H2798 0.951 . S
C2816 C2817 1.366 . S
C2816 C2818 1.388 . S
C2817 C2816 1.366 . S
C2817 C2821 1.385 . S
C2818 H2799 0.951 . S
C2818 C2816 1.388 . S
C2818 C2819 1.366 . S
C2819 C2818 1.366 . S
C2819 C2820 1.414 . S
C2819 C2822 1.499 . S
C2820 H2800 0.950 . S
C2820 C2819 1.414 . S
C2820 C2821 1.374 . S
C2821 H2801 0.950 . S
C2821 C2817 1.385 . S
C2821 C2820 1.374 . S
C2822 C2819 1.499 . S
C2822 C2823 1.373 . S
C2822 C2824 1.389 . S
C2823 H2802 0.950 . S
C2823 C2822 1.373 . S
C2823 C2839 1.377 . S
C2824 C2822 1.389 . S
C2824 C2825 1.524 . S
C2824 C2838 1.377 . S
C2825 C2824 1.524 . S
C2825 C2826 1.397 . S
C2825 C2830 1.363 . S
C2826 H2803 0.950 . S
C2826 C2825 1.397 . S
C2826 C2827 1.334 . S
C2827 H2804 0.950 . S
C2827 C2826 1.334 . S
C2827 C2828 1.287 . S
C2828 C2827 1.287 . S
C2828 C2829 1.524 . S
C2828 H2847 0.913 . S
C2829 H2805 0.950 . S
C2829 C2828 1.524 . S
C2829 C2830 1.415 . S
C2830 H2806 0.950 . S
C2830 C2825 1.363 . S
C2830 C2829 1.415 . S
C2831 H2807 0.951 . S
C2831 C2832 1.366 . S
C2831 C2833 1.388 . S
C2832 C2831 1.366 . S
C2832 C2836 1.385 . S
C2833 H2808 0.951 . S
C2833 C2831 1.388 . S
C2833 C2834 1.366 . S
C2834 C2833 1.366 . S
C2834 C2835 1.414 . S
C2834 C2837 1.499 . S
C2835 H2809 0.950 . S
C2835 C2834 1.414 . S
C2835 C2836 1.374 . S
C2836 H2810 0.950 . S
C2836 C2832 1.385 . S
C2836 C2835 1.374 . S
C2837 C2834 1.499 . S
C2837 C2838 1.373 . S
C2837 C2839 1.389 . S
C2838 H2811 0.950 . S
C2838 C2824 1.377 . S
C2838 C2837 1.373 . S
C2839 C2823 1.377 . S
C2839 C2837 1.389 . S
C2839 C2840 1.524 . S
C2840 C2839 1.524 . S
C2840 C2841 1.397 . S
C2840 C2845 1.363 . S
C2841 H2812 0.950 . S
C2841 C2840 1.397 . S
C2841 C2842 1.334 . S
C2842 H2813 0.950 . S
C2842 C2841 1.334 . S
C2842 C2843 1.287 . S
C2843 C2842 1.287 . S
C2843 C2844 1.524 . S
C2843 H2846 0.999 . S
C2844 H2814 0.950 . S
C2844 C2843 1.524 . S
C2844 C2845 1.415 . S
C2845 H2815 0.950 . S
C2845 C2840 1.363 . S
C2845 C2844 1.415 . S
H2846 C2843 0.999 . S
H2847 C2828 0.913 . S
H2848 C2866 0.951 . S
H2849 C2868 0.951 . S
H2850 C2870 0.950 . S
H2851 C2871 0.950 . S
H2852 C2873 0.950 . S
H2853 C2876 0.950 . S
H2854 C2877 0.950 . S
H2855 C2879 0.950 . S
H2856 C2880 0.950 . S
H2857 C2881 0.951 1_545 S
H2858 C2883 0.951 . S
H2859 C2885 0.950 . S
H2860 C2886 0.950 . S
H2861 C2888 0.950 . S
H2862 C2891 0.950 . S
H2863 C2892 0.950 1_545 S
H2864 C2894 0.950 . S
H2865 C2895 0.950 . S
C2866 H2848 0.951 . S
C2866 C2867 1.366 . S
C2866 C2868 1.388 . S
C2867 C2866 1.366 . S
C2867 C2871 1.385 . S
C2868 H2849 0.951 . S
C2868 C2866 1.388 . S
C2868 C2869 1.366 . S
C2869 C2868 1.366 . S
C2869 C2870 1.414 . S
C2869 C2872 1.499 . S
C2870 H2850 0.950 . S
C2870 C2869 1.414 . S
C2870 C2871 1.374 . S
C2871 H2851 0.950 . S
C2871 C2867 1.385 . S
C2871 C2870 1.374 . S
C2872 C2869 1.499 . S
C2872 C2873 1.373 . S
C2872 C2874 1.389 . S
C2873 H2852 0.950 . S
C2873 C2872 1.373 . S
C2873 C2889 1.377 . S
C2874 C2872 1.389 . S
C2874 C2875 1.524 . S
C2874 C2888 1.377 . S
C2875 C2874 1.524 . S
C2875 C2876 1.397 . S
C2875 C2880 1.363 . S
C2876 H2853 0.950 . S
C2876 C2875 1.397 . S
C2876 C2877 1.334 . S
C2877 H2854 0.950 . S
C2877 C2876 1.334 . S
C2877 C2878 1.287 . S
C2878 C2877 1.287 . S
C2878 C2879 1.524 . S
C2878 H2897 0.913 . S
C2879 H2855 0.950 . S
C2879 C2878 1.524 . S
C2879 C2880 1.415 . S
C2880 H2856 0.950 . S
C2880 C2875 1.363 . S
C2880 C2879 1.415 . S
C2881 H2857 0.951 1_565 S
C2881 C2882 1.366 1_565 S
C2881 C2883 1.388 . S
C2882 C2881 1.366 1_545 S
C2882 C2886 1.385 . S
C2883 H2858 0.951 . S
C2883 C2881 1.388 . S
C2883 C2884 1.366 . S
C2884 C2883 1.366 . S
C2884 C2885 1.414 . S
C2884 C2887 1.499 . S
C2885 H2859 0.950 . S
C2885 C2884 1.414 . S
C2885 C2886 1.374 1_565 S
C2886 H2860 0.950 . S
C2886 C2882 1.385 . S
C2886 C2885 1.374 1_545 S
C2887 C2884 1.499 . S
C2887 C2888 1.373 . S
C2887 C2889 1.389 . S
C2888 H2861 0.950 . S
C2888 C2874 1.377 . S
C2888 C2887 1.373 . S
C2889 C2873 1.377 . S
C2889 C2887 1.389 . S
C2889 C2890 1.524 . S
C2890 C2889 1.524 . S
C2890 C2891 1.397 . S
C2890 C2895 1.363 . S
C2891 H2862 0.950 . S
C2891 C2890 1.397 . S
C2891 C2892 1.334 . S
C2892 H2863 0.950 1_565 S
C2892 C2891 1.334 . S
C2892 C2893 1.287 . S
C2893 C2892 1.287 . S
C2893 C2894 1.524 . S
C2893 H2896 0.999 . S
C2894 H2864 0.950 . S
C2894 C2893 1.524 . S
C2894 C2895 1.415 . S
C2895 H2865 0.950 . S
C2895 C2890 1.363 . S
C2895 C2894 1.415 . S
H2896 C2893 0.999 . S
H2897 C2878 0.913 . S
H2898 C2916 0.951 . S
H2899 C2918 0.951 . S
H2900 C2920 0.950 . S
H2901 C2921 0.950 . S
H2902 C2923 0.950 . S
H2903 C2926 0.950 . S
H2904 C2927 0.950 . S
H2905 C2929 0.950 . S
H2906 C2930 0.950 . S
H2907 C2931 0.951 . S
H2908 C2933 0.951 . S
H2909 C2935 0.950 . S
H2910 C2936 0.950 . S
H2911 C2938 0.950 . S
H2912 C2941 0.950 . S
H2913 C2942 0.950 . S
H2914 C2944 0.950 . S
H2915 C2945 0.950 . S
C2916 H2898 0.951 . S
C2916 C2917 1.366 . S
C2916 C2918 1.388 . S
C2917 C2916 1.366 . S
C2917 C2921 1.385 . S
C2918 H2899 0.951 . S
C2918 C2916 1.388 . S
C2918 C2919 1.366 . S
C2919 C2918 1.366 . S
C2919 C2920 1.414 . S
C2919 C2922 1.499 . S
C2920 H2900 0.950 . S
C2920 C2919 1.414 . S
C2920 C2921 1.374 . S
C2921 H2901 0.950 . S
C2921 C2917 1.385 . S
C2921 C2920 1.374 . S
C2922 C2919 1.499 . S
C2922 C2923 1.373 . S
C2922 C2924 1.389 . S
C2923 H2902 0.950 . S
C2923 C2922 1.373 . S
C2923 C2939 1.377 . S
C2924 C2922 1.389 . S
C2924 C2925 1.524 . S
C2924 C2938 1.377 . S
C2925 C2924 1.524 . S
C2925 C2926 1.397 . S
C2925 C2930 1.363 . S
C2926 H2903 0.950 . S
C2926 C2925 1.397 . S
C2926 C2927 1.334 . S
C2927 H2904 0.950 . S
C2927 C2926 1.334 . S
C2927 C2928 1.287 . S
C2928 C2927 1.287 . S
C2928 C2929 1.524 . S
C2928 H2947 0.913 . S
C2929 H2905 0.950 . S
C2929 C2928 1.524 . S
C2929 C2930 1.415 . S
C2930 H2906 0.950 . S
C2930 C2925 1.363 . S
C2930 C2929 1.415 . S
C2931 H2907 0.951 . S
C2931 C2932 1.366 . S
C2931 C2933 1.388 . S
C2932 C2931 1.366 . S
C2932 C2936 1.385 . S
C2933 H2908 0.951 . S
C2933 C2931 1.388 . S
C2933 C2934 1.366 . S
C2934 C2933 1.366 . S
C2934 C2935 1.414 . S
C2934 C2937 1.499 . S
C2935 H2909 0.950 . S
C2935 C2934 1.414 . S
C2935 C2936 1.374 . S
C2936 H2910 0.950 . S
C2936 C2932 1.385 . S
C2936 C2935 1.374 . S
C2937 C2934 1.499 . S
C2937 C2938 1.373 . S
C2937 C2939 1.389 . S
C2938 H2911 0.950 . S
C2938 C2924 1.377 . S
C2938 C2937 1.373 . S
C2939 C2923 1.377 . S
C2939 C2937 1.389 . S
C2939 C2940 1.524 . S
C2940 C2939 1.524 . S
C2940 C2941 1.397 . S
C2940 C2945 1.363 . S
C2941 H2912 0.950 . S
C2941 C2940 1.397 . S
C2941 C2942 1.334 . S
C2942 H2913 0.950 . S
C2942 C2941 1.334 . S
C2942 C2943 1.287 . S
C2943 C2942 1.287 . S
C2943 C2944 1.524 . S
C2943 H2946 0.999 . S
C2944 H2914 0.950 . S
C2944 C2943 1.524 . S
C2944 C2945 1.415 . S
C2945 H2915 0.950 . S
C2945 C2940 1.363 . S
C2945 C2944 1.415 . S
H2946 C2943 0.999 . S
H2947 C2928 0.913 . S
H2948 C2966 0.951 . S
H2949 C2968 0.951 . S
H2950 C2970 0.950 . S
H2951 C2971 0.950 . S
H2952 C2973 0.950 . S
H2953 C2976 0.950 . S
H2954 C2977 0.950 . S
H2955 C2979 0.950 . S
H2956 C2980 0.950 . S
H2957 C2981 0.951 . S
H2958 C2983 0.951 . S
H2959 C2985 0.950 . S
H2960 C2986 0.950 . S
H2961 C2988 0.950 . S
H2962 C2991 0.950 . S
H2963 C2992 0.950 . S
H2964 C2994 0.950 . S
H2965 C2995 0.950 . S
C2966 H2948 0.951 . S
C2966 C2967 1.366 . S
C2966 C2968 1.388 . S
C2967 C2966 1.366 . S
C2967 C2971 1.385 . S
C2968 H2949 0.951 . S
C2968 C2966 1.388 . S
C2968 C2969 1.366 . S
C2969 C2968 1.366 . S
C2969 C2970 1.414 . S
C2969 C2972 1.499 . S
C2970 H2950 0.950 . S
C2970 C2969 1.414 . S
C2970 C2971 1.374 . S
C2971 H2951 0.950 . S
C2971 C2967 1.385 . S
C2971 C2970 1.374 . S
C2972 C2969 1.499 . S
C2972 C2973 1.373 . S
C2972 C2974 1.389 . S
C2973 H2952 0.950 . S
C2973 C2972 1.373 . S
C2973 C2989 1.377 . S
C2974 C2972 1.389 . S
C2974 C2975 1.524 . S
C2974 C2988 1.377 . S
C2975 C2974 1.524 . S
C2975 C2976 1.397 . S
C2975 C2980 1.363 . S
C2976 H2953 0.950 . S
C2976 C2975 1.397 . S
C2976 C2977 1.334 . S
C2977 H2954 0.950 . S
C2977 C2976 1.334 . S
C2977 C2978 1.287 . S
C2978 C2977 1.287 . S
C2978 C2979 1.524 . S
C2978 H2997 0.913 . S
C2979 H2955 0.950 . S
C2979 C2978 1.524 . S
C2979 C2980 1.415 . S
C2980 H2956 0.950 . S
C2980 C2975 1.363 . S
C2980 C2979 1.415 . S
C2981 H2957 0.951 . S
C2981 C2982 1.366 . S
C2981 C2983 1.388 . S
C2982 C2981 1.366 . S
C2982 C2986 1.385 . S
C2983 H2958 0.951 . S
C2983 C2981 1.388 . S
C2983 C2984 1.366 . S
C2984 C2983 1.366 . S
C2984 C2985 1.414 . S
C2984 C2987 1.499 . S
C2985 H2959 0.950 . S
C2985 C2984 1.414 . S
C2985 C2986 1.374 . S
C2986 H2960 0.950 . S
C2986 C2982 1.385 . S
C2986 C2985 1.374 . S
C2987 C2984 1.499 . S
C2987 C2988 1.373 . S
C2987 C2989 1.389 . S
C2988 H2961 0.950 . S
C2988 C2974 1.377 . S
C2988 C2987 1.373 . S
C2989 C2973 1.377 . S
C2989 C2987 1.389 . S
C2989 C2990 1.524 . S
C2990 C2989 1.524 . S
C2990 C2991 1.397 . S
C2990 C2995 1.363 . S
C2991 H2962 0.950 . S
C2991 C2990 1.397 . S
C2991 C2992 1.334 . S
C2992 H2963 0.950 . S
C2992 C2991 1.334 . S
C2992 C2993 1.287 . S
C2993 C2992 1.287 . S
C2993 C2994 1.524 . S
C2993 H2996 0.999 . S
C2994 H2964 0.950 . S
C2994 C2993 1.524 . S
C2994 C2995 1.415 . S
C2995 H2965 0.950 . S
C2995 C2990 1.363 . S
C2995 C2994 1.415 . S
H2996 C2993 0.999 . S
H2997 C2978 0.913 . S
H2998 C3016 0.951 . S
H2999 C3018 0.951 . S
H3000 C3020 0.950 . S
H3001 C3021 0.950 . S
H3002 C3023 0.950 . S
H3003 C3026 0.950 . S
H3004 C3027 0.950 . S
H3005 C3029 0.950 . S
H3006 C3030 0.950 . S
H3007 C3031 0.951 . S
H3008 C3033 0.951 . S
H3009 C3035 0.950 . S
H3010 C3036 0.950 . S
H3011 C3038 0.950 . S
H3012 C3041 0.950 . S
H3013 C3042 0.950 . S
H3014 C3044 0.950 . S
H3015 C3045 0.950 . S
C3016 H2998 0.951 . S
C3016 C3017 1.366 . S
C3016 C3018 1.388 1_545 S
C3017 C3016 1.366 . S
C3017 C3021 1.385 1_545 S
C3018 H2999 0.951 . S
C3018 C3016 1.388 1_565 S
C3018 C3019 1.366 . S
C3019 C3018 1.366 . S
C3019 C3020 1.414 . S
C3019 C3022 1.499 . S
C3020 H3000 0.950 . S
C3020 C3019 1.414 . S
C3020 C3021 1.374 . S
C3021 H3001 0.950 . S
C3021 C3017 1.385 1_565 S
C3021 C3020 1.374 . S
C3022 C3019 1.499 . S
C3022 C3023 1.373 . S
C3022 C3024 1.389 . S
C3023 H3002 0.950 . S
C3023 C3022 1.373 . S
C3023 C3039 1.377 . S
C3024 C3022 1.389 . S
C3024 C3025 1.524 . S
C3024 C3038 1.377 . S
C3025 C3024 1.524 . S
C3025 C3026 1.397 . S
C3025 C3030 1.363 . S
C3026 H3003 0.950 . S
C3026 C3025 1.397 . S
C3026 C3027 1.334 . S
C3027 H3004 0.950 . S
C3027 C3026 1.334 . S
C3027 C3028 1.287 . S
C3028 C3027 1.287 . S
C3028 C3029 1.524 . S
C3028 H3047 0.913 . S
C3029 H3005 0.950 . S
C3029 C3028 1.524 . S
C3029 C3030 1.415 . S
C3030 H3006 0.950 . S
C3030 C3025 1.363 . S
C3030 C3029 1.415 . S
C3031 H3007 0.951 . S
C3031 C3032 1.366 . S
C3031 C3033 1.388 . S
C3032 C3031 1.366 . S
C3032 C3036 1.385 . S
C3033 H3008 0.951 . S
C3033 C3031 1.388 . S
C3033 C3034 1.366 . S
C3034 C3033 1.366 . S
C3034 C3035 1.414 . S
C3034 C3037 1.499 . S
C3035 H3009 0.950 . S
C3035 C3034 1.414 . S
C3035 C3036 1.374 . S
C3036 H3010 0.950 . S
C3036 C3032 1.385 . S
C3036 C3035 1.374 . S
C3037 C3034 1.499 . S
C3037 C3038 1.373 . S
C3037 C3039 1.389 . S
C3038 H3011 0.950 . S
C3038 C3024 1.377 . S
C3038 C3037 1.373 . S
C3039 C3023 1.377 . S
C3039 C3037 1.389 . S
C3039 C3040 1.524 . S
C3040 C3039 1.524 . S
C3040 C3041 1.397 . S
C3040 C3045 1.363 . S
C3041 H3012 0.950 . S
C3041 C3040 1.397 . S
C3041 C3042 1.334 . S
C3042 H3013 0.950 . S
C3042 C3041 1.334 . S
C3042 C3043 1.287 . S
C3043 C3042 1.287 . S
C3043 C3044 1.524 . S
C3043 H3046 0.999 . S
C3044 H3014 0.950 . S
C3044 C3043 1.524 . S
C3044 C3045 1.415 . S
C3045 H3015 0.950 . S
C3045 C3040 1.363 . S
C3045 C3044 1.415 . S
H3046 C3043 0.999 . S
H3047 C3028 0.913 . S
H3048 C3066 0.951 . S
H3049 C3068 0.951 . S
H3050 C3070 0.950 . S
H3051 C3071 0.950 . S
H3052 C3073 0.950 . S
H3053 C3076 0.950 . S
H3054 C3077 0.950 . S
H3055 C3079 0.950 . S
H3056 C3080 0.950 . S
H3057 C3081 0.951 1_565 S
H3058 C3083 0.951 . S
H3059 C3085 0.950 . S
H3060 C3086 0.950 . S
H3061 C3088 0.950 . S
H3062 C3091 0.950 . S
H3063 C3092 0.950 1_565 S
H3064 C3094 0.950 . S
H3065 C3095 0.950 . S
C3066 H3048 0.951 . S
C3066 C3067 1.366 . S
C3066 C3068 1.388 . S
C3067 C3066 1.366 . S
C3067 C3071 1.385 . S
C3068 H3049 0.951 . S
C3068 C3066 1.388 . S
C3068 C3069 1.366 . S
C3069 C3068 1.366 . S
C3069 C3070 1.414 . S
C3069 C3072 1.499 . S
C3070 H3050 0.950 . S
C3070 C3069 1.414 . S
C3070 C3071 1.374 . S
C3071 H3051 0.950 . S
C3071 C3067 1.385 . S
C3071 C3070 1.374 . S
C3072 C3069 1.499 . S
C3072 C3073 1.373 . S
C3072 C3074 1.389 . S
C3073 H3052 0.950 . S
C3073 C3072 1.373 . S
C3073 C3089 1.377 . S
C3074 C3072 1.389 . S
C3074 C3075 1.524 . S
C3074 C3088 1.377 . S
C3075 C3074 1.524 . S
C3075 C3076 1.397 . S
C3075 C3080 1.363 . S
C3076 H3053 0.950 . S
C3076 C3075 1.397 . S
C3076 C3077 1.334 . S
C3077 H3054 0.950 . S
C3077 C3076 1.334 . S
C3077 C3078 1.287 . S
C3078 C3077 1.287 . S
C3078 C3079 1.524 . S
C3078 H3097 0.913 . S
C3079 H3055 0.950 . S
C3079 C3078 1.524 . S
C3079 C3080 1.415 . S
C3080 H3056 0.950 . S
C3080 C3075 1.363 . S
C3080 C3079 1.415 . S
C3081 H3057 0.951 1_545 S
C3081 C3082 1.366 1_545 S
C3081 C3083 1.388 . S
C3082 C3081 1.366 1_565 S
C3082 C3086 1.385 . S
C3083 H3058 0.951 . S
C3083 C3081 1.388 . S
C3083 C3084 1.366 . S
C3084 C3083 1.366 . S
C3084 C3085 1.414 . S
C3084 C3087 1.499 . S
C3085 H3059 0.950 . S
C3085 C3084 1.414 . S
C3085 C3086 1.374 1_545 S
C3086 H3060 0.950 . S
C3086 C3082 1.385 . S
C3086 C3085 1.374 1_565 S
C3087 C3084 1.499 . S
C3087 C3088 1.373 . S
C3087 C3089 1.389 . S
C3088 H3061 0.950 . S
C3088 C3074 1.377 . S
C3088 C3087 1.373 . S
C3089 C3073 1.377 . S
C3089 C3087 1.389 . S
C3089 C3090 1.524 . S
C3090 C3089 1.524 . S
C3090 C3091 1.397 . S
C3090 C3095 1.363 . S
C3091 H3062 0.950 . S
C3091 C3090 1.397 . S
C3091 C3092 1.334 . S
C3092 H3063 0.950 1_545 S
C3092 C3091 1.334 . S
C3092 C3093 1.287 . S
C3093 C3092 1.287 . S
C3093 C3094 1.524 . S
C3093 H3096 0.999 . S
C3094 H3064 0.950 . S
C3094 C3093 1.524 . S
C3094 C3095 1.415 . S
C3095 H3065 0.950 . S
C3095 C3090 1.363 . S
C3095 C3094 1.415 . S
H3096 C3093 0.999 . S
H3097 C3078 0.913 . S
H3098 C3116 0.951 . S
H3099 C3118 0.951 . S
H3100 C3120 0.950 . S
H3101 C3121 0.950 . S
H3102 C3123 0.950 . S
H3103 C3126 0.950 . S
H3104 C3127 0.950 . S
H3105 C3129 0.950 . S
H3106 C3130 0.950 . S
H3107 C3131 0.951 . S
H3108 C3133 0.951 . S
H3109 C3135 0.950 . S
H3110 C3136 0.950 . S
H3111 C3138 0.950 . S
H3112 C3141 0.950 . S
H3113 C3142 0.950 . S
H3114 C3144 0.950 . S
H3115 C3145 0.950 . S
C3116 H3098 0.951 . S
C3116 C3117 1.366 . S
C3116 C3118 1.388 . S
C3117 C3116 1.366 . S
C3117 C3121 1.385 . S
C3118 H3099 0.951 . S
C3118 C3116 1.388 . S
C3118 C3119 1.366 . S
C3119 C3118 1.366 . S
C3119 C3120 1.414 . S
C3119 C3122 1.499 . S
C3120 H3100 0.950 . S
C3120 C3119 1.414 . S
C3120 C3121 1.374 . S
C3121 H3101 0.950 . S
C3121 C3117 1.385 . S
C3121 C3120 1.374 . S
C3122 C3119 1.499 . S
C3122 C3123 1.373 . S
C3122 C3124 1.389 . S
C3123 H3102 0.950 . S
C3123 C3122 1.373 . S
C3123 C3139 1.377 . S
C3124 C3122 1.389 . S
C3124 C3125 1.524 . S
C3124 C3138 1.377 . S
C3125 C3124 1.524 . S
C3125 C3126 1.397 . S
C3125 C3130 1.363 . S
C3126 H3103 0.950 . S
C3126 C3125 1.397 . S
C3126 C3127 1.334 . S
C3127 H3104 0.950 . S
C3127 C3126 1.334 . S
C3127 C3128 1.287 . S
C3128 C3127 1.287 . S
C3128 C3129 1.524 . S
C3128 H3147 0.913 . S
C3129 H3105 0.950 . S
C3129 C3128 1.524 . S
C3129 C3130 1.415 . S
C3130 H3106 0.950 . S
C3130 C3125 1.363 . S
C3130 C3129 1.415 . S
C3131 H3107 0.951 . S
C3131 C3132 1.366 . S
C3131 C3133 1.388 . S
C3132 C3131 1.366 . S
C3132 C3136 1.385 . S
C3133 H3108 0.951 . S
C3133 C3131 1.388 . S
C3133 C3134 1.366 . S
C3134 C3133 1.366 . S
C3134 C3135 1.414 . S
C3134 C3137 1.499 . S
C3135 H3109 0.950 . S
C3135 C3134 1.414 . S
C3135 C3136 1.374 . S
C3136 H3110 0.950 . S
C3136 C3132 1.385 . S
C3136 C3135 1.374 . S
C3137 C3134 1.499 . S
C3137 C3138 1.373 . S
C3137 C3139 1.389 . S
C3138 H3111 0.950 . S
C3138 C3124 1.377 . S
C3138 C3137 1.373 . S
C3139 C3123 1.377 . S
C3139 C3137 1.389 . S
C3139 C3140 1.524 . S
C3140 C3139 1.524 . S
C3140 C3141 1.397 . S
C3140 C3145 1.363 . S
C3141 H3112 0.950 . S
C3141 C3140 1.397 . S
C3141 C3142 1.334 . S
C3142 H3113 0.950 . S
C3142 C3141 1.334 . S
C3142 C3143 1.287 . S
C3143 C3142 1.287 . S
C3143 C3144 1.524 . S
C3143 H3146 0.999 . S
C3144 H3114 0.950 . S
C3144 C3143 1.524 . S
C3144 C3145 1.415 . S
C3145 H3115 0.950 . S
C3145 C3140 1.363 . S
C3145 C3144 1.415 . S
H3146 C3143 0.999 . S
H3147 C3128 0.913 . S
H3148 C3166 0.951 . S
H3149 C3168 0.951 . S
H3150 C3170 0.950 . S
H3151 C3171 0.950 . S
H3152 C3173 0.950 . S
H3153 C3176 0.950 . S
H3154 C3177 0.950 . S
H3155 C3179 0.950 . S
H3156 C3180 0.950 . S
H3157 C3181 0.951 . S
H3158 C3183 0.951 . S
H3159 C3185 0.950 . S
H3160 C3186 0.950 . S
H3161 C3188 0.950 . S
H3162 C3191 0.950 . S
H3163 C3192 0.950 . S
H3164 C3194 0.950 . S
H3165 C3195 0.950 . S
C3166 H3148 0.951 . S
C3166 C3167 1.366 . S
C3166 C3168 1.388 . S
C3167 C3166 1.366 . S
C3167 C3171 1.385 . S
C3168 H3149 0.951 . S
C3168 C3166 1.388 . S
C3168 C3169 1.366 . S
C3169 C3168 1.366 . S
C3169 C3170 1.414 . S
C3169 C3172 1.499 . S
C3170 H3150 0.950 . S
C3170 C3169 1.414 . S
C3170 C3171 1.374 . S
C3171 H3151 0.950 . S
C3171 C3167 1.385 . S
C3171 C3170 1.374 . S
C3172 C3169 1.499 . S
C3172 C3173 1.373 . S
C3172 C3174 1.389 . S
C3173 H3152 0.950 . S
C3173 C3172 1.373 . S
C3173 C3189 1.377 . S
C3174 C3172 1.389 . S
C3174 C3175 1.524 . S
C3174 C3188 1.377 . S
C3175 C3174 1.524 . S
C3175 C3176 1.397 . S
C3175 C3180 1.363 . S
C3176 H3153 0.950 . S
C3176 C3175 1.397 . S
C3176 C3177 1.334 . S
C3177 H3154 0.950 . S
C3177 C3176 1.334 . S
C3177 C3178 1.287 . S
C3178 C3177 1.287 . S
C3178 C3179 1.524 . S
C3178 H3197 0.913 . S
C3179 H3155 0.950 . S
C3179 C3178 1.524 . S
C3179 C3180 1.415 . S
C3180 H3156 0.950 . S
C3180 C3175 1.363 . S
C3180 C3179 1.415 . S
C3181 H3157 0.951 . S
C3181 C3182 1.366 . S
C3181 C3183 1.388 . S
C3182 C3181 1.366 . S
C3182 C3186 1.385 . S
C3183 H3158 0.951 . S
C3183 C3181 1.388 . S
C3183 C3184 1.366 . S
C3184 C3183 1.366 . S
C3184 C3185 1.414 . S
C3184 C3187 1.499 . S
C3185 H3159 0.950 . S
C3185 C3184 1.414 . S
C3185 C3186 1.374 . S
C3186 H3160 0.950 . S
C3186 C3182 1.385 . S
C3186 C3185 1.374 . S
C3187 C3184 1.499 . S
C3187 C3188 1.373 . S
C3187 C3189 1.389 . S
C3188 H3161 0.950 . S
C3188 C3174 1.377 . S
C3188 C3187 1.373 . S
C3189 C3173 1.377 . S
C3189 C3187 1.389 . S
C3189 C3190 1.524 . S
C3190 C3189 1.524 . S
C3190 C3191 1.397 . S
C3190 C3195 1.363 . S
C3191 H3162 0.950 . S
C3191 C3190 1.397 . S
C3191 C3192 1.334 . S
C3192 H3163 0.950 . S
C3192 C3191 1.334 . S
C3192 C3193 1.287 . S
C3193 C3192 1.287 . S
C3193 C3194 1.524 . S
C3193 H3196 0.999 . S
C3194 H3164 0.950 . S
C3194 C3193 1.524 . S
C3194 C3195 1.415 . S
C3195 H3165 0.950 . S
C3195 C3190 1.363 . S
C3195 C3194 1.415 . S
H3196 C3193 0.999 . S
H3197 C3178 0.913 . S
H3198 C3216 0.951 . S
H3199 C3218 0.951 . S
H3200 C3220 0.950 . S
H3201 C3221 0.950 . S
H3202 C3223 0.950 . S
H3203 C3226 0.950 . S
H3204 C3227 0.950 . S
H3205 C3229 0.950 . S
H3206 C3230 0.950 . S
H3207 C3231 0.951 . S
H3208 C3233 0.951 . S
H3209 C3235 0.950 . S
H3210 C3236 0.950 . S
H3211 C3238 0.950 . S
H3212 C3241 0.950 . S
H3213 C3242 0.950 . S
H3214 C3244 0.950 . S
H3215 C3245 0.950 . S
C3216 H3198 0.951 . S
C3216 C3217 1.366 . S
C3216 C3218 1.388 . S
C3217 C3216 1.366 . S
C3217 C3221 1.385 . S
C3218 H3199 0.951 . S
C3218 C3216 1.388 . S
C3218 C3219 1.366 . S
C3219 C3218 1.366 . S
C3219 C3220 1.414 . S
C3219 C3222 1.499 . S
C3220 H3200 0.950 . S
C3220 C3219 1.414 . S
C3220 C3221 1.374 . S
C3221 H3201 0.950 . S
C3221 C3217 1.385 . S
C3221 C3220 1.374 . S
C3222 C3219 1.499 . S
C3222 C3223 1.373 . S
C3222 C3224 1.389 . S
C3223 H3202 0.950 . S
C3223 C3222 1.373 . S
C3223 C3239 1.377 . S
C3224 C3222 1.389 . S
C3224 C3225 1.524 . S
C3224 C3238 1.377 . S
C3225 C3224 1.524 . S
C3225 C3226 1.397 . S
C3225 C3230 1.363 . S
C3226 H3203 0.950 . S
C3226 C3225 1.397 . S
C3226 C3227 1.334 . S
C3227 H3204 0.950 . S
C3227 C3226 1.334 . S
C3227 C3228 1.287 . S
C3228 C3227 1.287 . S
C3228 C3229 1.524 . S
C3228 H3247 0.913 . S
C3229 H3205 0.950 . S
C3229 C3228 1.524 . S
C3229 C3230 1.415 . S
C3230 H3206 0.950 . S
C3230 C3225 1.363 . S
C3230 C3229 1.415 . S
C3231 H3207 0.951 . S
C3231 C3232 1.366 . S
C3231 C3233 1.388 1_565 S
C3232 C3231 1.366 . S
C3232 C3236 1.385 1_565 S
C3233 H3208 0.951 . S
C3233 C3231 1.388 1_545 S
C3233 C3234 1.366 . S
C3234 C3233 1.366 . S
C3234 C3235 1.414 . S
C3234 C3237 1.499 . S
C3235 H3209 0.950 . S
C3235 C3234 1.414 . S
C3235 C3236 1.374 . S
C3236 H3210 0.950 . S
C3236 C3232 1.385 1_545 S
C3236 C3235 1.374 . S
C3237 C3234 1.499 . S
C3237 C3238 1.373 . S
C3237 C3239 1.389 . S
C3238 H3211 0.950 . S
C3238 C3224 1.377 . S
C3238 C3237 1.373 . S
C3239 C3223 1.377 . S
C3239 C3237 1.389 . S
C3239 C3240 1.524 . S
C3240 C3239 1.524 . S
C3240 C3241 1.397 . S
C3240 C3245 1.363 . S
C3241 H3212 0.950 . S
C3241 C3240 1.397 . S
C3241 C3242 1.334 . S
C3242 H3213 0.950 . S
C3242 C3241 1.334 . S
C3242 C3243 1.287 . S
C3243 C3242 1.287 . S
C3243 C3244 1.524 . S
C3243 H3246 0.999 . S
C3244 H3214 0.950 . S
C3244 C3243 1.524 . S
C3244 C3245 1.415 . S
C3245 H3215 0.950 . S
C3245 C3240 1.363 . S
C3245 C3244 1.415 . S
H3246 C3243 0.999 . S
H3247 C3228 0.913 . S
H3248 C3266 0.951 . S
H3249 C3268 0.951 . S
H3250 C3270 0.950 . S
H3251 C3271 0.950 . S
H3252 C3273 0.950 . S
H3253 C3276 0.950 . S
H3254 C3277 0.950 . S
H3255 C3279 0.950 . S
H3256 C3280 0.950 . S
H3257 C3281 0.951 . S
H3258 C3283 0.951 . S
H3259 C3285 0.950 . S
H3260 C3286 0.950 . S
H3261 C3288 0.950 . S
H3262 C3291 0.950 . S
H3263 C3292 0.950 . S
H3264 C3294 0.950 . S
H3265 C3295 0.950 . S
C3266 H3248 0.951 . S
C3266 C3267 1.366 . S
C3266 C3268 1.388 . S
C3267 C3266 1.366 . S
C3267 C3271 1.385 . S
C3268 H3249 0.951 . S
C3268 C3266 1.388 . S
C3268 C3269 1.366 . S
C3269 C3268 1.366 . S
C3269 C3270 1.414 . S
C3269 C3272 1.499 . S
C3270 H3250 0.950 . S
C3270 C3269 1.414 . S
C3270 C3271 1.374 . S
C3271 H3251 0.950 . S
C3271 C3267 1.385 . S
C3271 C3270 1.374 . S
C3272 C3269 1.499 . S
C3272 C3273 1.373 . S
C3272 C3274 1.389 . S
C3273 H3252 0.950 . S
C3273 C3272 1.373 . S
C3273 C3289 1.377 . S
C3274 C3272 1.389 . S
C3274 C3275 1.524 . S
C3274 C3288 1.377 . S
C3275 C3274 1.524 . S
C3275 C3276 1.397 . S
C3275 C3280 1.363 . S
C3276 H3253 0.950 . S
C3276 C3275 1.397 . S
C3276 C3277 1.334 . S
C3277 H3254 0.950 . S
C3277 C3276 1.334 . S
C3277 C3278 1.287 . S
C3278 C3277 1.287 . S
C3278 C3279 1.524 . S
C3278 H3297 0.913 . S
C3279 H3255 0.950 . S
C3279 C3278 1.524 . S
C3279 C3280 1.415 . S
C3280 H3256 0.950 . S
C3280 C3275 1.363 . S
C3280 C3279 1.415 . S
C3281 H3257 0.951 . S
C3281 C3282 1.366 . S
C3281 C3283 1.388 1_545 S
C3282 C3281 1.366 . S
C3282 C3286 1.385 1_545 S
C3283 H3258 0.951 . S
C3283 C3281 1.388 1_565 S
C3283 C3284 1.366 . S
C3284 C3283 1.366 . S
C3284 C3285 1.414 . S
C3284 C3287 1.499 . S
C3285 H3259 0.950 . S
C3285 C3284 1.414 . S
C3285 C3286 1.374 . S
C3286 H3260 0.950 . S
C3286 C3282 1.385 1_565 S
C3286 C3285 1.374 . S
C3287 C3284 1.499 . S
C3287 C3288 1.373 . S
C3287 C3289 1.389 . S
C3288 H3261 0.950 . S
C3288 C3274 1.377 . S
C3288 C3287 1.373 . S
C3289 C3273 1.377 . S
C3289 C3287 1.389 . S
C3289 C3290 1.524 . S
C3290 C3289 1.524 . S
C3290 C3291 1.397 . S
C3290 C3295 1.363 . S
C3291 H3262 0.950 . S
C3291 C3290 1.397 . S
C3291 C3292 1.334 . S
C3292 H3263 0.950 . S
C3292 C3291 1.334 . S
C3292 C3293 1.287 . S
C3293 C3292 1.287 . S
C3293 C3294 1.524 . S
C3293 H3296 0.999 . S
C3294 H3264 0.950 . S
C3294 C3293 1.524 . S
C3294 C3295 1.415 . S
C3295 H3265 0.950 . S
C3295 C3290 1.363 . S
C3295 C3294 1.415 . S
H3296 C3293 0.999 . S
H3297 C3278 0.913 . S
H3298 C3316 0.951 . S
H3299 C3318 0.951 . S
H3300 C3320 0.950 . S
H3301 C3321 0.950 . S
H3302 C3323 0.950 . S
H3303 C3326 0.950 . S
H3304 C3327 0.950 . S
H3305 C3329 0.950 . S
H3306 C3330 0.950 . S
H3307 C3331 0.951 . S
H3308 C3333 0.951 . S
H3309 C3335 0.950 . S
H3310 C3336 0.950 . S
H3311 C3338 0.950 . S
H3312 C3341 0.950 . S
H3313 C3342 0.950 . S
H3314 C3344 0.950 . S
H3315 C3345 0.950 . S
C3316 H3298 0.951 . S
C3316 C3317 1.366 . S
C3316 C3318 1.388 . S
C3317 C3316 1.366 . S
C3317 C3321 1.385 . S
C3318 H3299 0.951 . S
C3318 C3316 1.388 . S
C3318 C3319 1.366 . S
C3319 C3318 1.366 . S
C3319 C3320 1.414 . S
C3319 C3322 1.499 . S
C3320 H3300 0.950 . S
C3320 C3319 1.414 . S
C3320 C3321 1.374 . S
C3321 H3301 0.950 . S
C3321 C3317 1.385 . S
C3321 C3320 1.374 . S
C3322 C3319 1.499 . S
C3322 C3323 1.373 . S
C3322 C3324 1.389 . S
C3323 H3302 0.950 . S
C3323 C3322 1.373 . S
C3323 C3339 1.377 . S
C3324 C3322 1.389 . S
C3324 C3325 1.524 . S
C3324 C3338 1.377 . S
C3325 C3324 1.524 . S
C3325 C3326 1.397 . S
C3325 C3330 1.363 . S
C3326 H3303 0.950 . S
C3326 C3325 1.397 . S
C3326 C3327 1.334 . S
C3327 H3304 0.950 . S
C3327 C3326 1.334 . S
C3327 C3328 1.287 . S
C3328 C3327 1.287 . S
C3328 C3329 1.524 . S
C3328 H3347 0.913 . S
C3329 H3305 0.950 . S
C3329 C3328 1.524 . S
C3329 C3330 1.415 . S
C3330 H3306 0.950 . S
C3330 C3325 1.363 . S
C3330 C3329 1.415 . S
C3331 H3307 0.951 . S
C3331 C3332 1.366 . S
C3331 C3333 1.388 . S
C3332 C3331 1.366 . S
C3332 C3336 1.385 . S
C3333 H3308 0.951 . S
C3333 C3331 1.388 . S
C3333 C3334 1.366 . S
C3334 C3333 1.366 . S
C3334 C3335 1.414 . S
C3334 C3337 1.499 . S
C3335 H3309 0.950 . S
C3335 C3334 1.414 . S
C3335 C3336 1.374 . S
C3336 H3310 0.950 . S
C3336 C3332 1.385 . S
C3336 C3335 1.374 . S
C3337 C3334 1.499 . S
C3337 C3338 1.373 . S
C3337 C3339 1.389 . S
C3338 H3311 0.950 . S
C3338 C3324 1.377 . S
C3338 C3337 1.373 . S
C3339 C3323 1.377 . S
C3339 C3337 1.389 . S
C3339 C3340 1.524 . S
C3340 C3339 1.524 . S
C3340 C3341 1.397 . S
C3340 C3345 1.363 . S
C3341 H3312 0.950 . S
C3341 C3340 1.397 . S
C3341 C3342 1.334 . S
C3342 H3313 0.950 . S
C3342 C3341 1.334 . S
C3342 C3343 1.287 . S
C3343 C3342 1.287 . S
C3343 C3344 1.524 . S
C3343 H3346 0.999 . S
C3344 H3314 0.950 . S
C3344 C3343 1.524 . S
C3344 C3345 1.415 . S
C3345 H3315 0.950 . S
C3345 C3340 1.363 . S
C3345 C3344 1.415 . S
H3346 C3343 0.999 . S
H3347 C3328 0.913 . S
H3348 C3366 0.951 . S
H3349 C3368 0.951 . S
H3350 C3370 0.950 . S
H3351 C3371 0.950 . S
H3352 C3373 0.950 . S
H3353 C3376 0.950 . S
H3354 C3377 0.950 . S
H3355 C3379 0.950 . S
H3356 C3380 0.950 . S
H3357 C3381 0.951 . S
H3358 C3383 0.951 . S
H3359 C3385 0.950 . S
H3360 C3386 0.950 . S
H3361 C3388 0.950 . S
H3362 C3391 0.950 . S
H3363 C3392 0.950 . S
H3364 C3394 0.950 . S
H3365 C3395 0.950 . S
C3366 H3348 0.951 . S
C3366 C3367 1.366 . S
C3366 C3368 1.388 . S
C3367 C3366 1.366 . S
C3367 C3371 1.385 . S
C3368 H3349 0.951 . S
C3368 C3366 1.388 . S
C3368 C3369 1.366 . S
C3369 C3368 1.366 . S
C3369 C3370 1.414 . S
C3369 C3372 1.499 . S
C3370 H3350 0.950 . S
C3370 C3369 1.414 . S
C3370 C3371 1.374 . S
C3371 H3351 0.950 . S
C3371 C3367 1.385 . S
C3371 C3370 1.374 . S
C3372 C3369 1.499 . S
C3372 C3373 1.373 . S
C3372 C3374 1.389 . S
C3373 H3352 0.950 . S
C3373 C3372 1.373 . S
C3373 C3389 1.377 . S
C3374 C3372 1.389 . S
C3374 C3375 1.524 . S
C3374 C3388 1.377 . S
C3375 C3374 1.524 . S
C3375 C3376 1.397 . S
C3375 C3380 1.363 . S
C3376 H3353 0.950 . S
C3376 C3375 1.397 . S
C3376 C3377 1.334 . S
C3377 H3354 0.950 . S
C3377 C3376 1.334 . S
C3377 C3378 1.287 . S
C3378 C3377 1.287 . S
C3378 C3379 1.524 . S
C3378 H3397 0.913 . S
C3379 H3355 0.950 . S
C3379 C3378 1.524 . S
C3379 C3380 1.415 . S
C3380 H3356 0.950 . S
C3380 C3375 1.363 . S
C3380 C3379 1.415 . S
C3381 H3357 0.951 . S
C3381 C3382 1.366 . S
C3381 C3383 1.388 . S
C3382 C3381 1.366 . S
C3382 C3386 1.385 . S
C3383 H3358 0.951 . S
C3383 C3381 1.388 . S
C3383 C3384 1.366 . S
C3384 C3383 1.366 . S
C3384 C3385 1.414 . S
C3384 C3387 1.499 . S
C3385 H3359 0.950 . S
C3385 C3384 1.414 . S
C3385 C3386 1.374 . S
C3386 H3360 0.950 . S
C3386 C3382 1.385 . S
C3386 C3385 1.374 . S
C3387 C3384 1.499 . S
C3387 C3388 1.373 . S
C3387 C3389 1.389 . S
C3388 H3361 0.950 . S
C3388 C3374 1.377 . S
C3388 C3387 1.373 . S
C3389 C3373 1.377 . S
C3389 C3387 1.389 . S
C3389 C3390 1.524 . S
C3390 C3389 1.524 . S
C3390 C3391 1.397 . S
C3390 C3395 1.363 . S
C3391 H3362 0.950 . S
C3391 C3390 1.397 . S
C3391 C3392 1.334 . S
C3392 H3363 0.950 . S
C3392 C3391 1.334 . S
C3392 C3393 1.287 . S
C3393 C3392 1.287 . S
C3393 C3394 1.524 . S
C3393 H3396 0.999 . S
C3394 H3364 0.950 . S
C3394 C3393 1.524 . S
C3394 C3395 1.415 . S
C3395 H3365 0.950 . S
C3395 C3390 1.363 . S
C3395 C3394 1.415 . S
H3396 C3393 0.999 . S
H3397 C3378 0.913 . S
H3398 C3416 0.951 . S
H3399 C3418 0.951 . S
H3400 C3420 0.950 . S
H3401 C3421 0.950 . S
H3402 C3423 0.950 . S
H3403 C3426 0.950 . S
H3404 C3427 0.950 . S
H3405 C3429 0.950 . S
H3406 C3430 0.950 . S
H3407 C3431 0.951 . S
H3408 C3433 0.951 . S
H3409 C3435 0.950 . S
H3410 C3436 0.950 . S
H3411 C3438 0.950 . S
H3412 C3441 0.950 . S
H3413 C3442 0.950 . S
H3414 C3444 0.950 . S
H3415 C3445 0.950 . S
C3416 H3398 0.951 . S
C3416 C3417 1.366 . S
C3416 C3418 1.388 1_545 S
C3417 C3416 1.366 . S
C3417 C3421 1.385 . S
C3418 H3399 0.951 . S
C3418 C3416 1.388 1_565 S
C3418 C3419 1.366 . S
C3419 C3418 1.366 . S
C3419 C3420 1.414 . S
C3419 C3422 1.499 . S
C3420 H3400 0.950 . S
C3420 C3419 1.414 . S
C3420 C3421 1.374 1_565 S
C3421 H3401 0.950 . S
C3421 C3417 1.385 . S
C3421 C3420 1.374 1_545 S
C3422 C3419 1.499 . S
C3422 C3423 1.373 . S
C3422 C3424 1.389 . S
C3423 H3402 0.950 . S
C3423 C3422 1.373 . S
C3423 C3439 1.377 . S
C3424 C3422 1.389 . S
C3424 C3425 1.524 . S
C3424 C3438 1.377 . S
C3425 C3424 1.524 . S
C3425 C3426 1.397 . S
C3425 C3430 1.363 . S
C3426 H3403 0.950 . S
C3426 C3425 1.397 . S
C3426 C3427 1.334 . S
C3427 H3404 0.950 . S
C3427 C3426 1.334 . S
C3427 C3428 1.287 . S
C3428 C3427 1.287 . S
C3428 C3429 1.524 . S
C3428 H3447 0.913 . S
C3429 H3405 0.950 . S
C3429 C3428 1.524 . S
C3429 C3430 1.415 . S
C3430 H3406 0.950 . S
C3430 C3425 1.363 . S
C3430 C3429 1.415 . S
C3431 H3407 0.951 . S
C3431 C3432 1.366 . S
C3431 C3433 1.388 . S
C3432 C3431 1.366 . S
C3432 C3436 1.385 . S
C3433 H3408 0.951 . S
C3433 C3431 1.388 . S
C3433 C3434 1.366 . S
C3434 C3433 1.366 . S
C3434 C3435 1.414 . S
C3434 C3437 1.499 . S
C3435 H3409 0.950 . S
C3435 C3434 1.414 . S
C3435 C3436 1.374 . S
C3436 H3410 0.950 . S
C3436 C3432 1.385 . S
C3436 C3435 1.374 . S
C3437 C3434 1.499 . S
C3437 C3438 1.373 . S
C3437 C3439 1.389 . S
C3438 H3411 0.950 . S
C3438 C3424 1.377 . S
C3438 C3437 1.373 . S
C3439 C3423 1.377 . S
C3439 C3437 1.389 . S
C3439 C3440 1.524 . S
C3440 C3439 1.524 . S
C3440 C3441 1.397 . S
C3440 C3445 1.363 . S
C3441 H3412 0.950 . S
C3441 C3440 1.397 . S
C3441 C3442 1.334 . S
C3442 H3413 0.950 . S
C3442 C3441 1.334 . S
C3442 C3443 1.287 . S
C3443 C3442 1.287 . S
C3443 C3444 1.524 . S
C3443 H3446 0.999 . S
C3444 H3414 0.950 . S
C3444 C3443 1.524 . S
C3444 C3445 1.415 . S
C3445 H3415 0.950 . S
C3445 C3440 1.363 . S
C3445 C3444 1.415 . S
H3446 C3443 0.999 . S
H3447 C3428 0.913 . S
H3448 C3466 0.951 . S
H3449 C3468 0.951 . S
H3450 C3470 0.950 . S
H3451 C3471 0.950 . S
H3452 C3473 0.950 . S
H3453 C3476 0.950 . S
H3454 C3477 0.950 . S
H3455 C3479 0.950 . S
H3456 C3480 0.950 . S
H3457 C3481 0.951 . S
H3458 C3483 0.951 . S
H3459 C3485 0.950 . S
H3460 C3486 0.950 1_565 S
H3461 C3488 0.950 . S
H3462 C3491 0.950 . S
H3463 C3492 0.950 . S
H3464 C3494 0.950 . S
H3465 C3495 0.950 . S
C3466 H3448 0.951 . S
C3466 C3467 1.366 . S
C3466 C3468 1.388 . S
C3467 C3466 1.366 . S
C3467 C3471 1.385 . S
C3468 H3449 0.951 . S
C3468 C3466 1.388 . S
C3468 C3469 1.366 . S
C3469 C3468 1.366 . S
C3469 C3470 1.414 . S
C3469 C3472 1.499 . S
C3470 H3450 0.950 . S
C3470 C3469 1.414 . S
C3470 C3471 1.374 . S
C3471 H3451 0.950 . S
C3471 C3467 1.385 . S
C3471 C3470 1.374 . S
C3472 C3469 1.499 . S
C3472 C3473 1.373 . S
C3472 C3474 1.389 . S
C3473 H3452 0.950 . S
C3473 C3472 1.373 . S
C3473 C3489 1.377 . S
C3474 C3472 1.389 . S
C3474 C3475 1.524 . S
C3474 C3488 1.377 . S
C3475 C3474 1.524 . S
C3475 C3476 1.397 . S
C3475 C3480 1.363 . S
C3476 H3453 0.950 . S
C3476 C3475 1.397 . S
C3476 C3477 1.334 . S
C3477 H3454 0.950 . S
C3477 C3476 1.334 . S
C3477 C3478 1.287 . S
C3478 C3477 1.287 . S
C3478 C3479 1.524 . S
C3478 H3497 0.913 . S
C3479 H3455 0.950 . S
C3479 C3478 1.524 . S
C3479 C3480 1.415 . S
C3480 H3456 0.950 . S
C3480 C3475 1.363 . S
C3480 C3479 1.415 . S
C3481 H3457 0.951 . S
C3481 C3482 1.366 . S
C3481 C3483 1.388 1_565 S
C3482 C3481 1.366 . S
C3482 C3486 1.385 1_565 S
C3483 H3458 0.951 . S
C3483 C3481 1.388 1_545 S
C3483 C3484 1.366 . S
C3484 C3483 1.366 . S
C3484 C3485 1.414 . S
C3484 C3487 1.499 . S
C3485 H3459 0.950 . S
C3485 C3484 1.414 . S
C3485 C3486 1.374 . S
C3486 H3460 0.950 1_545 S
C3486 C3482 1.385 1_545 S
C3486 C3485 1.374 . S
C3487 C3484 1.499 . S
C3487 C3488 1.373 . S
C3487 C3489 1.389 . S
C3488 H3461 0.950 . S
C3488 C3474 1.377 . S
C3488 C3487 1.373 . S
C3489 C3473 1.377 . S
C3489 C3487 1.389 . S
C3489 C3490 1.524 . S
C3490 C3489 1.524 . S
C3490 C3491 1.397 . S
C3490 C3495 1.363 . S
C3491 H3462 0.950 . S
C3491 C3490 1.397 . S
C3491 C3492 1.334 1_545 S
C3492 H3463 0.950 . S
C3492 C3491 1.334 1_565 S
C3492 C3493 1.287 . S
C3493 C3492 1.287 . S
C3493 C3494 1.524 1_565 S
C3493 H3496 0.999 . S
C3494 H3464 0.950 . S
C3494 C3493 1.524 1_545 S
C3494 C3495 1.415 . S
C3495 H3465 0.950 . S
C3495 C3490 1.363 . S
C3495 C3494 1.415 . S
H3496 C3493 0.999 . S
H3497 C3478 0.913 . S
H3498 C3516 0.951 . S
H3499 C3518 0.951 . S
H3500 C3520 0.950 . S
H3501 C3521 0.950 . S
H3502 C3523 0.950 . S
H3503 C3526 0.950 . S
H3504 C3527 0.950 . S
H3505 C3529 0.950 . S
H3506 C3530 0.950 . S
H3507 C3531 0.951 . S
H3508 C3533 0.951 . S
H3509 C3535 0.950 . S
H3510 C3536 0.950 . S
H3511 C3538 0.950 . S
H3512 C3541 0.950 . S
H3513 C3542 0.950 . S
H3514 C3544 0.950 . S
H3515 C3545 0.950 . S
C3516 H3498 0.951 . S
C3516 C3517 1.366 . S
C3516 C3518 1.388 . S
C3517 C3516 1.366 . S
C3517 C3521 1.385 . S
C3518 H3499 0.951 . S
C3518 C3516 1.388 . S
C3518 C3519 1.366 . S
C3519 C3518 1.366 . S
C3519 C3520 1.414 . S
C3519 C3522 1.499 . S
C3520 H3500 0.950 . S
C3520 C3519 1.414 . S
C3520 C3521 1.374 . S
C3521 H3501 0.950 . S
C3521 C3517 1.385 . S
C3521 C3520 1.374 . S
C3522 C3519 1.499 . S
C3522 C3523 1.373 . S
C3522 C3524 1.389 . S
C3523 H3502 0.950 . S
C3523 C3522 1.373 . S
C3523 C3539 1.377 . S
C3524 C3522 1.389 . S
C3524 C3525 1.524 . S
C3524 C3538 1.377 . S
C3525 C3524 1.524 . S
C3525 C3526 1.397 . S
C3525 C3530 1.363 . S
C3526 H3503 0.950 . S
C3526 C3525 1.397 . S
C3526 C3527 1.334 . S
C3527 H3504 0.950 . S
C3527 C3526 1.334 . S
C3527 C3528 1.287 . S
C3528 C3527 1.287 . S
C3528 C3529 1.524 . S
C3528 H3547 0.913 . S
C3529 H3505 0.950 . S
C3529 C3528 1.524 . S
C3529 C3530 1.415 . S
C3530 H3506 0.950 . S
C3530 C3525 1.363 . S
C3530 C3529 1.415 . S
C3531 H3507 0.951 . S
C3531 C3532 1.366 . S
C3531 C3533 1.388 . S
C3532 C3531 1.366 . S
C3532 C3536 1.385 . S
C3533 H3508 0.951 . S
C3533 C3531 1.388 . S
C3533 C3534 1.366 . S
C3534 C3533 1.366 . S
C3534 C3535 1.414 . S
C3534 C3537 1.499 . S
C3535 H3509 0.950 . S
C3535 C3534 1.414 . S
C3535 C3536 1.374 . S
C3536 H3510 0.950 . S
C3536 C3532 1.385 . S
C3536 C3535 1.374 . S
C3537 C3534 1.499 . S
C3537 C3538 1.373 . S
C3537 C3539 1.389 . S
C3538 H3511 0.950 . S
C3538 C3524 1.377 . S
C3538 C3537 1.373 . S
C3539 C3523 1.377 . S
C3539 C3537 1.389 . S
C3539 C3540 1.524 . S
C3540 C3539 1.524 . S
C3540 C3541 1.397 . S
C3540 C3545 1.363 . S
C3541 H3512 0.950 . S
C3541 C3540 1.397 . S
C3541 C3542 1.334 . S
C3542 H3513 0.950 . S
C3542 C3541 1.334 . S
C3542 C3543 1.287 . S
C3543 C3542 1.287 . S
C3543 C3544 1.524 . S
C3543 H3546 0.999 . S
C3544 H3514 0.950 . S
C3544 C3543 1.524 . S
C3544 C3545 1.415 . S
C3545 H3515 0.950 . S
C3545 C3540 1.363 . S
C3545 C3544 1.415 . S
H3546 C3543 0.999 . S
H3547 C3528 0.913 . S
H3548 C3566 0.951 . S
H3549 C3568 0.951 . S
H3550 C3570 0.950 . S
H3551 C3571 0.950 . S
H3552 C3573 0.950 . S
H3553 C3576 0.950 . S
H3554 C3577 0.950 . S
H3555 C3579 0.950 . S
H3556 C3580 0.950 . S
H3557 C3581 0.951 . S
H3558 C3583 0.951 . S
H3559 C3585 0.950 . S
H3560 C3586 0.950 . S
H3561 C3588 0.950 . S
H3562 C3591 0.950 . S
H3563 C3592 0.950 . S
H3564 C3594 0.950 . S
H3565 C3595 0.950 . S
C3566 H3548 0.951 . S
C3566 C3567 1.366 . S
C3566 C3568 1.388 . S
C3567 C3566 1.366 . S
C3567 C3571 1.385 . S
C3568 H3549 0.951 . S
C3568 C3566 1.388 . S
C3568 C3569 1.366 . S
C3569 C3568 1.366 . S
C3569 C3570 1.414 . S
C3569 C3572 1.499 . S
C3570 H3550 0.950 . S
C3570 C3569 1.414 . S
C3570 C3571 1.374 . S
C3571 H3551 0.950 . S
C3571 C3567 1.385 . S
C3571 C3570 1.374 . S
C3572 C3569 1.499 . S
C3572 C3573 1.373 . S
C3572 C3574 1.389 . S
C3573 H3552 0.950 . S
C3573 C3572 1.373 . S
C3573 C3589 1.377 . S
C3574 C3572 1.389 . S
C3574 C3575 1.524 . S
C3574 C3588 1.377 . S
C3575 C3574 1.524 . S
C3575 C3576 1.397 . S
C3575 C3580 1.363 . S
C3576 H3553 0.950 . S
C3576 C3575 1.397 . S
C3576 C3577 1.334 . S
C3577 H3554 0.950 . S
C3577 C3576 1.334 . S
C3577 C3578 1.287 . S
C3578 C3577 1.287 . S
C3578 C3579 1.524 . S
C3578 H3597 0.913 . S
C3579 H3555 0.950 . S
C3579 C3578 1.524 . S
C3579 C3580 1.415 . S
C3580 H3556 0.950 . S
C3580 C3575 1.363 . S
C3580 C3579 1.415 . S
C3581 H3557 0.951 . S
C3581 C3582 1.366 . S
C3581 C3583 1.388 . S
C3582 C3581 1.366 . S
C3582 C3586 1.385 . S
C3583 H3558 0.951 . S
C3583 C3581 1.388 . S
C3583 C3584 1.366 . S
C3584 C3583 1.366 . S
C3584 C3585 1.414 . S
C3584 C3587 1.499 . S
C3585 H3559 0.950 . S
C3585 C3584 1.414 . S
C3585 C3586 1.374 . S
C3586 H3560 0.950 . S
C3586 C3582 1.385 . S
C3586 C3585 1.374 . S
C3587 C3584 1.499 . S
C3587 C3588 1.373 . S
C3587 C3589 1.389 . S
C3588 H3561 0.950 . S
C3588 C3574 1.377 . S
C3588 C3587 1.373 . S
C3589 C3573 1.377 . S
C3589 C3587 1.389 . S
C3589 C3590 1.524 . S
C3590 C3589 1.524 . S
C3590 C3591 1.397 . S
C3590 C3595 1.363 . S
C3591 H3562 0.950 . S
C3591 C3590 1.397 . S
C3591 C3592 1.334 . S
C3592 H3563 0.950 . S
C3592 C3591 1.334 . S
C3592 C3593 1.287 . S
C3593 C3592 1.287 . S
C3593 C3594 1.524 . S
C3593 H3596 0.999 . S
C3594 H3564 0.950 . S
C3594 C3593 1.524 . S
C3594 C3595 1.415 . S
C3595 H3565 0.950 . S
C3595 C3590 1.363 . S
C3595 C3594 1.415 . S
H3596 C3593 0.999 . S
H3597 C3578 0.913 . S
H3598 C3616 0.951 . S
H3599 C3618 0.951 . S
H3600 C3620 0.950 . S
H3601 C3621 0.953 . S
H3602 C3623 0.950 . S
H3603 C3626 0.950 . S
H3604 C3627 0.950 . S
H3605 C3629 0.950 . S
H3606 C3630 0.950 . S
H3607 C3631 0.951 . S
H3608 C3633 0.951 . S
H3609 C3635 0.950 . S
H3610 C3636 0.950 . S
H3611 C3638 0.950 . S
H3612 C3641 0.950 . S
H3613 C3642 0.950 . S
H3614 C3644 0.950 . S
H3615 C3645 0.950 . S
C3616 H3598 0.951 . S
C3616 C3617 1.366 . S
C3616 C3618 1.388 1_565 S
C3617 C3616 1.366 . S
C3617 C3621 1.390 . S
C3618 H3599 0.951 . S
C3618 C3616 1.388 1_545 S
C3618 C3619 1.366 . S
C3619 C3618 1.366 . S
C3619 C3620 1.414 . S
C3619 C3622 1.499 . S
C3620 H3600 0.950 . S
C3620 C3619 1.414 . S
C3620 C3621 1.366 1_545 S
C3621 H3601 0.953 . S
C3621 C3617 1.390 . S
C3621 C3620 1.366 1_565 S
C3622 C3619 1.499 . S
C3622 C3623 1.373 . S
C3622 C3624 1.389 . S
C3623 H3602 0.950 . S
C3623 C3622 1.373 . S
C3623 C3639 1.377 . S
C3624 C3622 1.389 . S
C3624 C3625 1.524 . S
C3624 C3638 1.377 . S
C3625 C3624 1.524 . S
C3625 C3626 1.397 . S
C3625 C3630 1.363 . S
C3626 H3603 0.950 . S
C3626 C3625 1.397 . S
C3626 C3627 1.334 1_545 S
C3627 H3604 0.950 . S
C3627 C3626 1.334 1_565 S
C3627 C3628 1.287 . S
C3628 C3627 1.287 . S
C3628 C3629 1.524 1_565 S
C3628 H3647 0.913 . S
C3629 H3605 0.950 . S
C3629 C3628 1.524 1_545 S
C3629 C3630 1.415 . S
C3630 H3606 0.950 . S
C3630 C3625 1.363 . S
C3630 C3629 1.415 . S
C3631 H3607 0.951 . S
C3631 C3632 1.366 . S
C3631 C3633 1.388 . S
C3632 C3631 1.366 . S
C3632 C3636 1.385 . S
C3633 H3608 0.951 . S
C3633 C3631 1.388 . S
C3633 C3634 1.366 . S
C3634 C3633 1.366 . S
C3634 C3635 1.414 . S
C3634 C3637 1.499 . S
C3635 H3609 0.950 . S
C3635 C3634 1.414 . S
C3635 C3636 1.374 . S
C3636 H3610 0.950 . S
C3636 C3632 1.385 . S
C3636 C3635 1.374 . S
C3637 C3634 1.499 . S
C3637 C3638 1.373 . S
C3637 C3639 1.389 . S
C3638 H3611 0.950 . S
C3638 C3624 1.377 . S
C3638 C3637 1.373 . S
C3639 C3623 1.377 . S
C3639 C3637 1.389 . S
C3639 C3640 1.524 . S
C3640 C3639 1.524 . S
C3640 C3641 1.397 . S
C3640 C3645 1.363 . S
C3641 H3612 0.950 . S
C3641 C3640 1.397 . S
C3641 C3642 1.334 . S
C3642 H3613 0.950 . S
C3642 C3641 1.334 . S
C3642 C3643 1.287 . S
C3643 C3642 1.287 . S
C3643 C3644 1.524 . S
C3643 H3646 0.999 . S
C3644 H3614 0.950 . S
C3644 C3643 1.524 . S
C3644 C3645 1.415 . S
C3645 H3615 0.950 . S
C3645 C3640 1.363 . S
C3645 C3644 1.415 . S
H3646 C3643 0.999 . S
H3647 C3628 0.913 . S
C467 C5 1.401 . S
C482 C19 1.401 . S
C517 C47 1.401 . S
C532 C33 1.401 . S
C567 C61 1.401 . S
C582 C75 1.401 . S
C617 C89 1.401 . S
C632 C103 1.401 . S
C667 C117 1.401 . S
C682 C131 1.401 . S
C717 C145 1.401 . S
C732 C159 1.401 . S
C767 C173 1.401 . S
C782 C187 1.401 . S
C817 C201 1.401 . S
C832 C215 1.401 . S
C867 C243 1.401 . S
C882 C229 1.401 . S
C917 C271 1.401 . S
C932 C257 1.401 . S
C967 C299 1.401 . S
C982 C285 1.401 . S
C1017 C327 1.401 . S
C1032 C313 1.401 . S
C1067 C355 1.401 . S
C1082 C341 1.401 . S
C1117 C383 1.401 . S
C1132 C369 1.401 . S
C1167 C411 1.401 . S
C1182 C397 1.401 . S
C1217 C439 1.401 . S
C1232 C425 1.401 . S
C1267 C11 1.408 . S
C1282 C179 1.408 . S
C1317 C25 1.408 . S
C1332 C305 1.408 . S
C1367 C39 1.409 . S
C1382 C95 1.409 . S
C1417 C53 1.409 . S
C1432 C445 1.409 . S
C1467 C67 1.408 . S
C1482 C123 1.408 . S
C1517 C249 1.409 . S
C1532 C81 1.409 . S
C1567 C389 1.408 . S
C1582 C109 1.408 . S
C1617 C137 1.408 . S
C1632 C417 1.408 . S
C1667 C151 1.409 . S
C1682 C207 1.409 . S
C1717 C165 1.408 . S
C1732 C333 1.408 . S
C1767 C193 1.408 . S
C1782 C361 1.408 . S
C1817 C221 1.408 . S
C1832 C277 1.408 . S
C1867 C403 1.408 . S
C1882 C235 1.408 . S
C1917 C319 1.409 . S
C1932 C263 1.409 . S
C1967 C291 1.408 . S
C1982 C347 1.408 . S
C2017 C431 1.409 . S
C2032 C375 1.409 . S
C2067 C149 0.599 . S
C2082 C9 0.599 . S
C2117 C163 0.598 . S
C2132 C23 0.598 . S
C2167 C37 0.598 . S
C2182 C121 0.598 . S
C2217 C135 0.599 . S
C2232 C51 0.599 . S
C2267 C65 0.598 . S
C2282 C205 0.598 . S
C2317 C79 0.598 . S
C2332 C219 0.598 . S
C2367 C177 0.599 . S
C2382 C93 0.599 . S
C2417 C191 0.598 . S
C2432 C107 0.598 . S
C2467 C233 0.598 . S
C2482 C373 0.598 . S
C2517 C387 0.599 . S
C2532 C247 0.599 . S
C2567 C345 0.598 . S
C2582 C261 0.598 . S
C2617 C275 0.599 . S
C2632 C359 0.598 . S
C2667 C429 0.598 . S
C2682 C289 0.598 . S
C2717 C303 0.598 . S
C2732 C443 0.598 . S
C2767 C401 0.599 . S
C2782 C317 0.599 . S
C2817 C415 0.598 . S
C2832 C331 0.598 . S
C2867 C140 1.547 . S
C2882 C0 1.547 . S
C2917 C154 1.547 . S
C2932 C14 1.547 . S
C2967 C112 1.546 . S
C2982 C28 1.547 . S
C3017 C42 1.547 . S
C3032 C126 1.546 . S
C3067 C196 1.547 . S
C3082 C56 1.547 . S
C3117 C210 1.547 . S
C3132 C70 1.547 . S
C3167 C168 1.547 . S
C3182 C84 1.547 . S
C3217 C182 1.546 . S
C3232 C98 1.547 . S
C3267 C364 1.547 . S
C3282 C224 1.547 . S
C3317 C378 1.546 . S
C3332 C238 1.547 . S
C3367 C336 1.547 . S
C3382 C252 1.547 . S
C3417 C266 1.547 . S
C3432 C350 1.546 . S
C3467 C420 1.547 . S
C3482 C280 1.547 . S
C3517 C294 1.546 . S
C3532 C434 1.547 . S
C3567 C392 1.546 . S
C3582 C308 1.547 . S
C3617 C322 1.547 . S
C3632 C406 1.547 . S
