# Generated by pormake.
# Topology umw, (4)-cn, num edge types: 1
# Building blocks:
#     Node 0, Type 0, BuildingBlock: UXUYUI_clean_sbu_0, # of connection points: 4
#     Node 1, Type 0, BuildingBlock: UXUYUI_clean_sbu_0, # of connection points: 4
#     Node 2, Type 0, BuildingBlock: UXUYUI_clean_sbu_0, # of connection points: 4
#     Node 3, Type 0, BuildingBlock: UXUYUI_clean_sbu_0, # of connection points: 4
#     Node 4, Type 0, BuildingBlock: UXUYUI_clean_sbu_0, # of connection points: 4
#     Node 5, Type 0, BuildingBlock: UXUYUI_clean_sbu_0, # of connection points: 4
#     Node 6, Type 0, BuildingBlock: UXUYUI_clean_sbu_0, # of connection points: 4
#     Node 7, Type 0, BuildingBlock: UXUYUI_clean_sbu_0, # of connection points: 4
#     Edge 8, Type (0, 0), BuildingBlock: ZUJKAS_clean_linker_0, # of connection points: 2
#     Edge 9, Type (0, 0), BuildingBlock: ZUJKAS_clean_linker_0, # of connection points: 2
#     Edge 10, Type (0, 0), BuildingBlock: ZUJKAS_clean_linker_0, # of connection points: 2
#     Edge 11, Type (0, 0), BuildingBlock: ZUJKAS_clean_linker_0, # of connection points: 2
#     Edge 12, Type (0, 0), BuildingBlock: ZUJKAS_clean_linker_0, # of connection points: 2
#     Edge 13, Type (0, 0), BuildingBlock: ZUJKAS_clean_linker_0, # of connection points: 2
#     Edge 14, Type (0, 0), BuildingBlock: ZUJKAS_clean_linker_0, # of connection points: 2
#     Edge 15, Type (0, 0), BuildingBlock: ZUJKAS_clean_linker_0, # of connection points: 2
#     Edge 16, Type (0, 0), BuildingBlock: ZUJKAS_clean_linker_0, # of connection points: 2
#     Edge 17, Type (0, 0), BuildingBlock: ZUJKAS_clean_linker_0, # of connection points: 2
#     Edge 18, Type (0, 0), BuildingBlock: ZUJKAS_clean_linker_0, # of connection points: 2
#     Edge 19, Type (0, 0), BuildingBlock: ZUJKAS_clean_linker_0, # of connection points: 2
#     Edge 20, Type (0, 0), BuildingBlock: ZUJKAS_clean_linker_0, # of connection points: 2
#     Edge 21, Type (0, 0), BuildingBlock: ZUJKAS_clean_linker_0, # of connection points: 2
#     Edge 22, Type (0, 0), BuildingBlock: ZUJKAS_clean_linker_0, # of connection points: 2
#     Edge 23, Type (0, 0), BuildingBlock: ZUJKAS_clean_linker_0, # of connection points: 2
# Relax obj value: 0.239
# Max RMSD: 0.148
# Mean RMSD: 0.148
data_MOF--net-umw--node1-UXUYUI_clean_sbu_0--edge1-ZUJKAS_clean_linker_0
_symmetry_space_group_name_H-M    P1
_symmetry_Int_Tables_number       1
_symmetry_cell_setting            triclinic
loop_
_symmetry_equiv_pos_as_xyz
'x, y, z'
_cell_length_a     75.811008
_cell_length_b     75.83459
_cell_length_c     41.887622
_cell_angle_alpha  90.00657
_cell_angle_beta   90.003159
_cell_angle_gamma 89.978441
loop_
_atom_site_label
_atom_site_type_symbol
_atom_site_fract_x
_atom_site_fract_y
_atom_site_fract_z
_atom_type_partial_charge
Li0 Li 0.38363 0.15244 0.26837 0.0
Li1 Li 0.40314 0.17335 0.29333 0.0
Li2 Li 0.37536 0.18279 0.27098 0.0
Li3 Li 0.39876 0.17411 0.23647 0.0
C4 C 0.36331 0.16265 0.32098 0.0
N5 N 0.33103 0.15527 0.34856 0.0
C6 C 0.36098 0.16461 0.35388 0.0
C7 C 0.34922 0.15691 0.30211 0.0
C8 C 0.34456 0.16082 0.36737 0.0
C9 C 0.33301 0.15325 0.3165 0.0
C10 C 0.41795 0.14102 0.27613 0.0
C11 C 0.439 0.1172 0.27389 0.0
N12 N 0.43503 0.11292 0.30459 0.0
C13 C 0.4141 0.1364 0.30769 0.0
C14 C 0.43052 0.13137 0.25909 0.0
C15 C 0.42287 0.12215 0.32163 0.0
C16 C 0.37464 0.11949 0.24195 0.0
N17 N 0.37624 0.1285 0.26984 0.0
C18 C 0.37036 0.10244 0.29996 0.0
C19 C 0.37398 0.12042 0.29852 0.0
C20 C 0.36915 0.09262 0.27161 0.0
C21 C 0.37102 0.10142 0.24227 0.0
H22 H 0.3767 0.12625 0.21952 0.0
H23 H 0.3755 0.12782 0.32039 0.0
C24 C 0.4127 0.18401 0.35483 0.0
N25 N 0.41924 0.17717 0.32732 0.0
C26 C 0.42368 0.1864 0.38121 0.0
C27 C 0.44803 0.17504 0.35009 0.0
C28 C 0.43657 0.17283 0.32437 0.0
C29 C 0.44159 0.18174 0.37912 0.0
H30 H 0.39886 0.18739 0.35637 0.0
H31 H 0.44147 0.16747 0.30217 0.0
C32 C 0.36601 0.17575 0.2082 0.0
N33 N 0.35087 0.19348 0.15749 0.0
C34 C 0.36861 0.19389 0.2046 0.0
C35 C 0.35569 0.16663 0.18603 0.0
C36 C 0.36085 0.20261 0.17881 0.0
C37 C 0.34815 0.17583 0.16055 0.0
C38 C 0.41376 0.20415 0.26433 0.0
C39 C 0.41325 0.22235 0.26938 0.0
C40 C 0.42981 0.19598 0.25711 0.0
C41 C 0.42883 0.2321 0.26711 0.0
C42 C 0.4451 0.20619 0.25504 0.0
N43 N 0.4443 0.22389 0.26005 0.0
C44 C 0.36051 0.21206 0.29905 0.0
C45 C 0.3398 0.19544 0.26913 0.0
C46 C 0.34719 0.22301 0.31047 0.0
N47 N 0.35657 0.19849 0.27918 0.0
C48 C 0.326 0.20601 0.28017 0.0
C49 C 0.32962 0.21983 0.30155 0.0
H50 H 0.37396 0.21391 0.30704 0.0
H51 H 0.33704 0.18439 0.25358 0.0
C52 C 0.41756 0.1633 0.18293 0.0
N53 N 0.41046 0.17779 0.197 0.0
C54 C 0.4284 0.16508 0.15625 0.0
C55 C 0.42382 0.19662 0.15821 0.0
C56 C 0.41299 0.19422 0.18482 0.0
C57 C 0.43202 0.18195 0.14403 0.0
H58 H 0.41518 0.15041 0.19307 0.0
H59 H 0.4072 0.20553 0.19651 0.0
O60 O 0.37926 0.1666 0.30745 0.0
O61 O 0.40948 0.15485 0.26175 0.0
O62 O 0.37346 0.1668 0.23316 0.0
O63 O 0.39855 0.1945 0.26658 0.0
H64 H 0.37174 0.16905 0.36883 0.0
H65 H 0.35073 0.15535 0.2766 0.0
H66 H 0.34257 0.1623 0.39281 0.0
H67 H 0.322 0.14884 0.30216 0.0
H68 H 0.44875 0.10961 0.26096 0.0
H69 H 0.40448 0.14372 0.32134 0.0
H70 H 0.43369 0.13479 0.23468 0.0
H71 H 0.42 0.11843 0.34602 0.0
H72 H 0.36881 0.09622 0.32306 0.0
H73 H 0.3704 0.09431 0.21988 0.0
H74 H 0.41811 0.19143 0.40321 0.0
H75 H 0.46179 0.17152 0.34727 0.0
H76 H 0.37648 0.20122 0.22151 0.0
H77 H 0.35355 0.15258 0.1885 0.0
H78 H 0.36276 0.21664 0.17574 0.0
H79 H 0.34014 0.16894 0.1432 0.0
H80 H 0.40093 0.22887 0.27497 0.0
H81 H 0.43048 0.18193 0.25295 0.0
H82 H 0.42863 0.24621 0.27096 0.0
H83 H 0.45759 0.20003 0.24943 0.0
H84 H 0.35051 0.23332 0.32733 0.0
H85 H 0.31262 0.2032 0.27264 0.0
H86 H 0.43414 0.15338 0.14567 0.0
H87 H 0.42634 0.20987 0.14975 0.0
Li88 Li 0.82421 0.40439 0.54379 0.0
Li89 Li 0.84588 0.38629 0.51943 0.0
Li90 Li 0.82363 0.40086 0.48709 0.0
Li91 Li 0.81586 0.37641 0.523 0.0
C92 C 0.8559 0.42112 0.52664 0.0
N93 N 0.88351 0.43947 0.55407 0.0
C94 C 0.8606 0.418 0.55842 0.0
C95 C 0.86523 0.43359 0.50884 0.0
C96 C 0.87459 0.4274 0.57185 0.0
C97 C 0.87915 0.44273 0.52313 0.0
C98 C 0.83757 0.3655 0.57145 0.0
C99 C 0.84723 0.33537 0.56541 0.0
N100 N 0.84798 0.33373 0.59772 0.0
C101 C 0.83842 0.36351 0.60458 0.0
C102 C 0.842 0.35131 0.55167 0.0
C103 C 0.84373 0.34735 0.6174 0.0
C104 C 0.8131 0.41313 0.60528 0.0
N105 N 0.81942 0.42019 0.57778 0.0
C106 C 0.81883 0.44911 0.60024 0.0
C107 C 0.8222 0.43781 0.57467 0.0
C108 C 0.81251 0.44216 0.62916 0.0
C109 C 0.80952 0.42393 0.63142 0.0
H110 H 0.81095 0.39905 0.60689 0.0
H111 H 0.82707 0.44307 0.55234 0.0
C112 C 0.87873 0.37636 0.49308 0.0
N113 N 0.86996 0.37944 0.52082 0.0
C114 C 0.89666 0.37205 0.49362 0.0
C115 C 0.89601 0.37397 0.55124 0.0
C116 C 0.87818 0.37825 0.54957 0.0
C117 C 0.90555 0.37098 0.52302 0.0
H118 H 0.87185 0.37751 0.47056 0.0
H119 H 0.87095 0.38082 0.5713 0.0
C120 C 0.79187 0.41159 0.52689 0.0
N121 N 0.76934 0.43737 0.54947 0.0
C122 C 0.77843 0.40721 0.5483 0.0
C123 C 0.79379 0.42906 0.51682 0.0
C124 C 0.7672 0.42045 0.55949 0.0
C125 C 0.78228 0.4419 0.52853 0.0
C126 C 0.82365 0.36754 0.45922 0.0
C127 C 0.8058 0.37058 0.45288 0.0
C128 C 0.83328 0.35624 0.43946 0.0
C129 C 0.79788 0.36223 0.42684 0.0
C130 C 0.82488 0.34812 0.41366 0.0
N131 N 0.8075 0.35127 0.40794 0.0
C132 C 0.83365 0.41871 0.43199 0.0
C133 C 0.80267 0.41604 0.43812 0.0
C134 C 0.83143 0.42941 0.40523 0.0
N135 N 0.81938 0.41258 0.44808 0.0
C136 C 0.79982 0.42673 0.41148 0.0
C137 C 0.81432 0.43389 0.39509 0.0
H138 H 0.84677 0.41569 0.44057 0.0
H139 H 0.79156 0.41106 0.45156 0.0
C140 C 0.79374 0.35852 0.56211 0.0
N141 N 0.80131 0.35688 0.53289 0.0
C142 C 0.78393 0.34476 0.57495 0.0
C143 C 0.78961 0.32778 0.52715 0.0
C144 C 0.79957 0.34187 0.51534 0.0
C145 C 0.78186 0.32913 0.5575 0.0
H146 H 0.79578 0.37043 0.57583 0.0
H147 H 0.80622 0.34059 0.49268 0.0
O148 O 0.84231 0.41205 0.51278 0.0
O149 O 0.83219 0.38124 0.55874 0.0
O150 O 0.8033 0.39891 0.51626 0.0
O151 O 0.83185 0.37564 0.48435 0.0
H152 H 0.85354 0.40841 0.57262 0.0
H153 H 0.86176 0.43618 0.48421 0.0
H154 H 0.87837 0.42509 0.5964 0.0
H155 H 0.88649 0.45242 0.50961 0.0
H156 H 0.85068 0.32429 0.55039 0.0
H157 H 0.835 0.37435 0.62021 0.0
H158 H 0.8414 0.35254 0.52599 0.0
H159 H 0.84444 0.34563 0.643 0.0
H160 H 0.82109 0.46312 0.59738 0.0
H161 H 0.80485 0.418 0.65337 0.0
H162 H 0.90356 0.37004 0.47129 0.0
H163 H 0.90227 0.37304 0.57442 0.0
H164 H 0.7767 0.39377 0.55625 0.0
H165 H 0.80429 0.43273 0.50062 0.0
H166 H 0.75678 0.41726 0.57616 0.0
H167 H 0.78369 0.45549 0.52112 0.0
H168 H 0.79806 0.37915 0.46797 0.0
H169 H 0.84712 0.35377 0.44403 0.0
H170 H 0.78407 0.36445 0.4217 0.0
H171 H 0.83218 0.33934 0.39818 0.0
H172 H 0.84297 0.4344 0.39297 0.0
H173 H 0.78642 0.42997 0.40467 0.0
H174 H 0.77804 0.34633 0.59834 0.0
H175 H 0.78841 0.31582 0.5132 0.0
Li176 Li 0.59183 0.82474 0.7926 0.0
Li177 Li 0.60837 0.84593 0.76369 0.0
Li178 Li 0.59534 0.81977 0.73553 0.0
Li179 Li 0.62084 0.8177 0.77323 0.0
C180 C 0.5657 0.84253 0.76411 0.0
N181 N 0.53051 0.84808 0.77843 0.0
C182 C 0.56093 0.85291 0.79034 0.0
C183 C 0.55251 0.83501 0.74514 0.0
C184 C 0.54309 0.85554 0.7972 0.0
C185 C 0.53481 0.83797 0.75277 0.0
C186 C 0.62039 0.85047 0.81982 0.0
C187 C 0.64329 0.87212 0.82808 0.0
N188 N 0.63205 0.88178 0.84636 0.0
C189 C 0.60907 0.86065 0.83868 0.0
C190 C 0.63766 0.85628 0.81446 0.0
C191 C 0.61522 0.87641 0.85191 0.0
C192 C 0.58268 0.82249 0.85759 0.0
N193 N 0.57619 0.82023 0.82763 0.0
C194 C 0.54799 0.81218 0.84859 0.0
C195 C 0.55936 0.81459 0.82278 0.0
C196 C 0.5541 0.81531 0.87974 0.0
C197 C 0.5718 0.82021 0.8841 0.0
H198 H 0.59631 0.82623 0.86093 0.0
H199 H 0.5547 0.81212 0.79883 0.0
C200 C 0.62892 0.87602 0.74601 0.0
N201 N 0.61342 0.87045 0.75889 0.0
C202 C 0.63327 0.89394 0.74626 0.0
C203 C 0.60535 0.89999 0.77188 0.0
C204 C 0.60152 0.88206 0.77094 0.0
C205 C 0.62153 0.90609 0.75998 0.0
H206 H 0.63813 0.86652 0.73646 0.0
H207 H 0.58928 0.87736 0.78074 0.0
C208 C 0.59358 0.78996 0.79037 0.0
N209 N 0.58123 0.7649 0.83273 0.0
C210 C 0.60323 0.78588 0.81783 0.0
C211 C 0.57762 0.78131 0.78448 0.0
C212 C 0.59677 0.77317 0.83894 0.0
C213 C 0.57161 0.76867 0.80618 0.0
C214 C 0.63416 0.82357 0.71661 0.0
C215 C 0.63236 0.81082 0.69273 0.0
C216 C 0.651 0.82908 0.72585 0.0
C217 C 0.64748 0.80371 0.67862 0.0
C218 C 0.66579 0.82162 0.71121 0.0
N219 N 0.66373 0.8092 0.68809 0.0
C220 C 0.58097 0.82411 0.67493 0.0
C221 C 0.57944 0.79472 0.69409 0.0
C222 C 0.57112 0.81961 0.64802 0.0
N223 N 0.58456 0.81178 0.69754 0.0
C224 C 0.56944 0.78966 0.66762 0.0
C225 C 0.56489 0.80228 0.64448 0.0
H226 H 0.58519 0.83759 0.67851 0.0
H227 H 0.58275 0.78515 0.71223 0.0
C228 C 0.65108 0.80907 0.80868 0.0
N229 N 0.64129 0.80429 0.78294 0.0
C230 C 0.665 0.7985 0.81892 0.0
C231 C 0.65851 0.77818 0.77601 0.0
C232 C 0.64474 0.78923 0.76646 0.0
C233 C 0.66867 0.78268 0.80285 0.0
H234 H 0.6476 0.82064 0.82223 0.0
H235 H 0.63643 0.78553 0.74658 0.0
O236 O 0.58312 0.83985 0.75681 0.0
O237 O 0.61448 0.83521 0.80593 0.0
O238 O 0.59948 0.80269 0.76984 0.0
O239 O 0.61952 0.83051 0.731 0.0
H240 H 0.57085 0.85848 0.80583 0.0
H241 H 0.55583 0.82689 0.72484 0.0
H242 H 0.53925 0.8634 0.81761 0.0
H243 H 0.52449 0.8322 0.73831 0.0
H244 H 0.65657 0.8768 0.8239 0.0
H245 H 0.59559 0.85663 0.84271 0.0
H246 H 0.64652 0.84885 0.79935 0.0
H247 H 0.60656 0.88444 0.86641 0.0
H248 H 0.53457 0.80795 0.84421 0.0
H249 H 0.57708 0.82274 0.90768 0.0
H250 H 0.64587 0.89815 0.73679 0.0
H251 H 0.59577 0.90899 0.78204 0.0
H252 H 0.61545 0.79264 0.82308 0.0
H253 H 0.56978 0.78455 0.76373 0.0
H254 H 0.60408 0.76994 0.86034 0.0
H255 H 0.55924 0.76195 0.80201 0.0
H256 H 0.61946 0.80637 0.68527 0.0
H257 H 0.65266 0.8388 0.74449 0.0
H258 H 0.64628 0.79379 0.66018 0.0
H259 H 0.67889 0.82568 0.7183 0.0
H260 H 0.56775 0.82979 0.63093 0.0
H261 H 0.56508 0.77611 0.66552 0.0
H262 H 0.67219 0.80221 0.84023 0.0
H263 H 0.6609 0.76606 0.76304 0.0
Li264 Li 0.14888 0.6094 0.01801 0.0
Li265 Li 0.16967 0.59063 0.04618 0.0
Li266 Li 0.17929 0.61939 0.02647 0.0
Li267 Li 0.17449 0.5949 0.98994 0.0
C268 C 0.15455 0.62931 0.07237 0.0
N269 N 0.14227 0.66017 0.09948 0.0
C270 C 0.15169 0.63027 0.10526 0.0
C271 C 0.15119 0.64404 0.05324 0.0
C272 C 0.14547 0.64599 0.11853 0.0
C273 C 0.14498 0.65952 0.0674 0.0
C274 C 0.14837 0.56769 0.02031 0.0
C275 C 0.15425 0.53667 0.02702 0.0
N276 N 0.13825 0.5347 0.0413 0.0
C277 C 0.13195 0.56536 0.03483 0.0
C278 C 0.15958 0.55325 0.01614 0.0
C279 C 0.12709 0.54857 0.04535 0.0
C280 C 0.11767 0.62139 0.98768 0.0
N281 N 0.12492 0.61607 0.01574 0.0
C282 C 0.09746 0.61975 0.04279 0.0
C283 C 0.11525 0.61511 0.04298 0.0
C284 C 0.08953 0.62526 0.01418 0.0
C285 C 0.09985 0.62606 0.98634 0.0
H286 H 0.1257 0.62188 0.96636 0.0
H287 H 0.12134 0.61057 0.06483 0.0
C288 C 0.18637 0.56576 0.08673 0.0
N289 N 0.17121 0.57477 0.08101 0.0
C290 C 0.18751 0.5543 0.11271 0.0
C291 C 0.15744 0.56172 0.1265 0.0
C292 C 0.15692 0.57309 0.10034 0.0
C293 C 0.17292 0.55217 0.13303 0.0
H294 H 0.19765 0.56764 0.0714 0.0
H295 H 0.14511 0.58062 0.09537 0.0
C296 C 0.1712 0.63165 0.96412 0.0
N297 N 0.18286 0.65592 0.9197 0.0
C298 C 0.18783 0.62977 0.95018 0.0
C299 C 0.1605 0.64589 0.95554 0.0
C300 C 0.19349 0.64217 0.92774 0.0
C301 C 0.16663 0.65802 0.93303 0.0
C302 C 0.20821 0.59196 0.0134 0.0
C303 C 0.22063 0.60491 0.00576 0.0
C304 C 0.21247 0.57416 0.00929 0.0
C305 C 0.23708 0.59984 0.99384 0.0
C306 C 0.22906 0.56963 0.9973 0.0
N307 N 0.24091 0.58245 0.98988 0.0
C308 C 0.19834 0.63751 0.07039 0.0
C309 C 0.19713 0.65353 0.02181 0.0
C310 C 0.2079 0.65097 0.0849 0.0
N311 N 0.19308 0.63903 0.03951 0.0
C312 C 0.20704 0.6672 0.03523 0.0
C313 C 0.21236 0.666 0.06724 0.0
H314 H 0.1949 0.62584 0.08386 0.0
H315 H 0.19262 0.65466 0.99751 0.0
C316 C 0.16702 0.57342 0.9383 0.0
N317 N 0.18047 0.58294 0.95106 0.0
C318 C 0.16977 0.56299 0.91136 0.0
C319 C 0.20012 0.57265 0.91039 0.0
C320 C 0.19674 0.58301 0.93729 0.0
C321 C 0.18656 0.56233 0.8973 0.0
H322 H 0.15416 0.57368 0.94944 0.0
H323 H 0.20724 0.59085 0.94724 0.0
O324 O 0.16072 0.61401 0.05915 0.0
O325 O 0.15355 0.58409 0.01052 0.0
O326 O 0.16535 0.61963 0.986 0.0
O327 O 0.19211 0.59667 0.02543 0.0
H328 H 0.15425 0.61897 0.12037 0.0
H329 H 0.15335 0.64355 0.02776 0.0
H330 H 0.14318 0.64693 0.14396 0.0
H331 H 0.14233 0.67102 0.05289 0.0
H332 H 0.16283 0.52539 0.02414 0.0
H333 H 0.12312 0.57642 0.03819 0.0
H334 H 0.17231 0.55486 0.00484 0.0
H335 H 0.11446 0.54657 0.05682 0.0
H336 H 0.0899 0.61863 0.06463 0.0
H337 H 0.09423 0.6303 0.96384 0.0
H338 H 0.19982 0.54748 0.11718 0.0
H339 H 0.14581 0.56036 0.14131 0.0
H340 H 0.19639 0.61907 0.95706 0.0
H341 H 0.1476 0.64758 0.96621 0.0
H342 H 0.20636 0.6409 0.91686 0.0
H343 H 0.15849 0.66912 0.92617 0.0
H344 H 0.2176 0.61874 0.00885 0.0
H345 H 0.20301 0.56396 0.01494 0.0
H346 H 0.24679 0.60972 0.98772 0.0
H347 H 0.2325 0.55592 0.99382 0.0
H348 H 0.21196 0.64955 0.10957 0.0
H349 H 0.21025 0.67869 0.02101 0.0
H350 H 0.15897 0.55513 0.90219 0.0
H351 H 0.21319 0.5727 0.89998 0.0
Li352 Li 0.40439 0.81969 0.30367 0.0
Li353 Li 0.37957 0.81364 0.27072 0.0
Li354 Li 0.40667 0.82358 0.24702 0.0
Li355 Li 0.38716 0.84451 0.27742 0.0
C356 C 0.40984 0.78716 0.28474 0.0
N357 N 0.42479 0.7586 0.31556 0.0
C358 C 0.39912 0.7739 0.29743 0.0
C359 C 0.42817 0.78585 0.28762 0.0
C360 C 0.40694 0.75957 0.31291 0.0
C361 C 0.43547 0.77133 0.30335 0.0
C362 C 0.36451 0.82303 0.32673 0.0
C363 C 0.33548 0.83032 0.34622 0.0
N364 N 0.33393 0.81377 0.35839 0.0
C365 C 0.36268 0.80613 0.33957 0.0
C366 C 0.35085 0.83527 0.33014 0.0
C367 C 0.34709 0.80168 0.35542 0.0
C368 C 0.43217 0.82439 0.34663 0.0
N369 N 0.41783 0.81412 0.34095 0.0
C370 C 0.42492 0.79582 0.38567 0.0
C371 C 0.4138 0.80029 0.3603 0.0
C372 C 0.44018 0.80586 0.3914 0.0
C373 C 0.44354 0.82051 0.37179 0.0
H374 H 0.43489 0.83556 0.33146 0.0
H375 H 0.40222 0.79244 0.35565 0.0
C376 C 0.36465 0.7845 0.24176 0.0
N377 N 0.36023 0.79845 0.26047 0.0
C378 C 0.35162 0.77383 0.22852 0.0
C379 C 0.32958 0.79186 0.25444 0.0
C380 C 0.34308 0.80232 0.26691 0.0
C381 C 0.33376 0.77752 0.23456 0.0
H382 H 0.37834 0.78213 0.23589 0.0
H383 H 0.33975 0.81394 0.28046 0.0
C384 C 0.42761 0.84873 0.26674 0.0
N385 N 0.45615 0.86405 0.23651 0.0
C386 C 0.42612 0.86559 0.25354 0.0
C387 C 0.44368 0.83973 0.26484 0.0
C388 C 0.44069 0.8731 0.23831 0.0
C389 C 0.45793 0.84767 0.24936 0.0
C390 C 0.36918 0.82918 0.21686 0.0
C391 C 0.37151 0.81788 0.19084 0.0
C392 C 0.35273 0.83693 0.2223 0.0
C393 C 0.35719 0.81433 0.17085 0.0
C394 C 0.33875 0.83305 0.20174 0.0
N395 N 0.34124 0.8219 0.17669 0.0
C396 C 0.43071 0.80711 0.20501 0.0
C397 C 0.42165 0.83583 0.18977 0.0
C398 C 0.44148 0.8058 0.17812 0.0
N399 N 0.42124 0.82202 0.21041 0.0
C400 C 0.43227 0.83511 0.16259 0.0
C401 C 0.44238 0.81994 0.15651 0.0
H402 H 0.4298 0.79617 0.22141 0.0
H403 H 0.41377 0.84743 0.19453 0.0
C404 C 0.37853 0.87637 0.30864 0.0
N405 N 0.37946 0.8681 0.27993 0.0
C406 C 0.37427 0.89427 0.31017 0.0
C407 C 0.37182 0.89464 0.2526 0.0
C408 C 0.37604 0.87674 0.25221 0.0
C409 C 0.37112 0.90371 0.28183 0.0
H410 H 0.38141 0.86912 0.33026 0.0
H411 H 0.37717 0.86984 0.2297 0.0
O412 O 0.40244 0.80134 0.26956 0.0
O413 O 0.37969 0.82771 0.31132 0.0
O414 O 0.41339 0.841 0.28117 0.0
O415 O 0.38288 0.8324 0.23723 0.0
H416 H 0.38492 0.77472 0.2957 0.0
H417 H 0.43667 0.79602 0.27817 0.0
H418 H 0.3988 0.74925 0.32295 0.0
H419 H 0.44962 0.77022 0.30593 0.0
H420 H 0.32477 0.83963 0.34895 0.0
H421 H 0.37307 0.79649 0.33697 0.0
H422 H 0.35205 0.84841 0.32031 0.0
H423 H 0.34544 0.7886 0.3653 0.0
H424 H 0.42181 0.7844 0.4001 0.0
H425 H 0.45484 0.82894 0.37584 0.0
H426 H 0.35553 0.76326 0.21265 0.0
H427 H 0.31602 0.7952 0.25984 0.0
H428 H 0.41383 0.87278 0.25487 0.0
H429 H 0.44507 0.82668 0.27491 0.0
H430 H 0.4397 0.8861 0.22786 0.0
H431 H 0.4704 0.8408 0.2475 0.0
H432 H 0.38418 0.81176 0.18641 0.0
H433 H 0.35071 0.84561 0.2425 0.0
H434 H 0.35874 0.8055 0.15077 0.0
H435 H 0.32589 0.83882 0.20579 0.0
H436 H 0.44879 0.79374 0.17403 0.0
H437 H 0.43267 0.84636 0.1467 0.0
H438 H 0.37369 0.90069 0.33324 0.0
H439 H 0.36981 0.90142 0.23014 0.0
Li440 Li 0.17677 0.40011 0.5566 0.0
Li441 Li 0.18235 0.37597 0.52216 0.0
Li442 Li 0.17306 0.40249 0.49812 0.0
Li443 Li 0.15212 0.38272 0.52904 0.0
C444 C 0.20513 0.41383 0.52348 0.0
N445 N 0.22482 0.44449 0.52559 0.0
C446 C 0.22354 0.41302 0.52484 0.0
C447 C 0.19677 0.43025 0.52317 0.0
C448 C 0.23326 0.42866 0.52591 0.0
C449 C 0.20693 0.44559 0.52424 0.0
C450 C 0.17674 0.36214 0.57949 0.0
C451 C 0.1762 0.33293 0.60213 0.0
N452 N 0.19311 0.33512 0.61223 0.0
C453 C 0.19405 0.36418 0.59031 0.0
C454 C 0.16766 0.34647 0.5856 0.0
C455 C 0.20213 0.35033 0.60673 0.0
C456 C 0.16762 0.41925 0.61073 0.0
N457 N 0.18175 0.41311 0.59419 0.0
C458 C 0.20157 0.42839 0.62886 0.0
C459 C 0.19853 0.41701 0.60321 0.0
C460 C 0.18718 0.43566 0.64543 0.0
C461 C 0.17003 0.43061 0.63652 0.0
H462 H 0.15443 0.4157 0.60325 0.0
H463 H 0.20955 0.41168 0.59002 0.0
C464 C 0.21381 0.35953 0.50357 0.0
N465 N 0.19725 0.35621 0.51431 0.0
C466 C 0.22416 0.34589 0.49146 0.0
C467 C 0.20046 0.32552 0.50297 0.0
C468 C 0.1906 0.33956 0.51498 0.0
C469 C 0.21729 0.3287 0.49022 0.0
H470 H 0.21859 0.37294 0.50265 0.0
H471 H 0.17723 0.33734 0.52296 0.0
C472 C 0.14429 0.42246 0.53028 0.0
N473 N 0.12032 0.44989 0.52652 0.0
C474 C 0.12808 0.42004 0.51499 0.0
C475 C 0.1482 0.43882 0.54401 0.0
C476 C 0.11618 0.43407 0.51322 0.0
C477 C 0.13594 0.45253 0.54176 0.0
C478 C 0.16904 0.36645 0.4662 0.0
C479 C 0.18328 0.36971 0.44586 0.0
C480 C 0.16012 0.35034 0.46437 0.0
C481 C 0.18855 0.35667 0.4243 0.0
C482 C 0.16576 0.33766 0.44242 0.0
N483 N 0.17976 0.34105 0.42305 0.0
C484 C 0.19021 0.42051 0.44739 0.0
C485 C 0.15926 0.4246 0.44979 0.0
C486 C 0.19131 0.43134 0.42051 0.0
N487 N 0.17437 0.41756 0.46169 0.0
C488 C 0.15975 0.43557 0.42309 0.0
C489 C 0.17594 0.4391 0.40815 0.0
H490 H 0.202 0.41439 0.45674 0.0
H491 H 0.14677 0.42151 0.46069 0.0
C492 C 0.12046 0.37432 0.56094 0.0
N493 N 0.12859 0.37495 0.53207 0.0
C494 C 0.10266 0.36972 0.56293 0.0
C495 C 0.10217 0.36617 0.50554 0.0
C496 C 0.11993 0.37086 0.50466 0.0
C497 C 0.09324 0.36575 0.53491 0.0
H498 H 0.12774 0.37771 0.58229 0.0
H499 H 0.12671 0.37178 0.48201 0.0
O500 O 0.19549 0.39856 0.52291 0.0
O501 O 0.16868 0.37549 0.56316 0.0
O502 O 0.15598 0.40872 0.53277 0.0
O503 O 0.16401 0.37887 0.48808 0.0
H504 H 0.23026 0.40043 0.52533 0.0
H505 H 0.18262 0.43114 0.52175 0.0
H506 H 0.2475 0.42822 0.52704 0.0
H507 H 0.20059 0.45837 0.52394 0.0
H508 H 0.16938 0.32068 0.60689 0.0
H509 H 0.20122 0.37627 0.58575 0.0
H510 H 0.15422 0.34476 0.57743 0.0
H511 H 0.21557 0.35165 0.61507 0.0
H512 H 0.215 0.43193 0.63487 0.0
H513 H 0.15857 0.43558 0.64908 0.0
H514 H 0.23696 0.34896 0.48142 0.0
H515 H 0.19473 0.31244 0.50255 0.0
H516 H 0.12481 0.40755 0.50413 0.0
H517 H 0.16052 0.44097 0.55642 0.0
H518 H 0.10365 0.43238 0.50124 0.0
H519 H 0.13883 0.46525 0.55222 0.0
H520 H 0.1904 0.38204 0.44714 0.0
H521 H 0.14917 0.34753 0.48013 0.0
H522 H 0.19966 0.35895 0.40865 0.0
H523 H 0.15909 0.32509 0.44093 0.0
H524 H 0.20407 0.43372 0.4097 0.0
H525 H 0.14754 0.44096 0.41386 0.0
H526 H 0.0963 0.36942 0.58608 0.0
H527 H 0.09535 0.36354 0.48332 0.0
Li528 Li 0.61674 0.18381 0.76642 0.0
Li529 Li 0.59414 0.17708 0.8036 0.0
Li530 Li 0.61063 0.15324 0.77266 0.0
Li531 Li 0.5894 0.17432 0.7455 0.0
C532 C 0.63216 0.17758 0.82351 0.0
N533 N 0.65842 0.19402 0.8581 0.0
C534 C 0.62979 0.19484 0.83434 0.0
C535 C 0.6478 0.16861 0.83043 0.0
C536 C 0.64325 0.20295 0.85173 0.0
C537 C 0.66094 0.17717 0.84792 0.0
C538 C 0.5788 0.20588 0.774 0.0
C539 C 0.54717 0.20762 0.77934 0.0
N540 N 0.54832 0.2255 0.78107 0.0
C541 C 0.57967 0.22426 0.77576 0.0
C542 C 0.56243 0.19749 0.77576 0.0
C543 C 0.56412 0.23395 0.77936 0.0
C544 C 0.63059 0.21457 0.74107 0.0
N545 N 0.63546 0.19949 0.75621 0.0
C546 C 0.66583 0.20505 0.74495 0.0
C547 C 0.6527 0.19476 0.759 0.0
C548 C 0.66105 0.22013 0.72758 0.0
C549 C 0.64324 0.22514 0.72645 0.0
H550 H 0.61677 0.21779 0.73865 0.0
H551 H 0.65617 0.1824 0.77015 0.0
C552 C 0.57674 0.1673 0.85951 0.0
N553 N 0.58266 0.18152 0.84297 0.0
C554 C 0.56644 0.1696 0.88677 0.0
C555 C 0.5692 0.20117 0.8803 0.0
C556 C 0.57952 0.19824 0.85322 0.0
C557 C 0.56225 0.18673 0.89711 0.0
H558 H 0.57955 0.15415 0.85085 0.0
H559 H 0.58468 0.20933 0.83999 0.0
C560 C 0.6251 0.17085 0.70993 0.0
N561 N 0.65031 0.18156 0.66643 0.0
C562 C 0.62098 0.18357 0.68696 0.0
C563 C 0.64199 0.16345 0.71059 0.0
C564 C 0.63393 0.18886 0.66525 0.0
C565 C 0.65455 0.16906 0.6884 0.0
C566 C 0.57128 0.14462 0.77779 0.0
C567 C 0.57362 0.12893 0.76078 0.0
C568 C 0.55529 0.1477 0.79351 0.0
C569 C 0.55986 0.1167 0.75941 0.0
C570 C 0.54186 0.13514 0.79159 0.0
N571 N 0.5444 0.12004 0.77471 0.0
C572 C 0.61879 0.12028 0.80057 0.0
C573 C 0.62308 0.1223 0.7446 0.0
C574 C 0.62303 0.10234 0.80002 0.0
N575 N 0.61869 0.12972 0.77302 0.0
C576 C 0.62745 0.10448 0.74296 0.0
C577 C 0.62712 0.09417 0.7708 0.0
H578 H 0.61503 0.12655 0.82274 0.0
H579 H 0.62258 0.13008 0.72301 0.0
C580 C 0.5705 0.19258 0.69776 0.0
N581 N 0.57305 0.17644 0.71111 0.0
C582 C 0.55926 0.19455 0.67161 0.0
C583 C 0.55363 0.1632 0.67315 0.0
C584 C 0.56499 0.16185 0.69922 0.0
C585 C 0.55071 0.1797 0.65887 0.0
H586 H 0.57747 0.20392 0.70701 0.0
H587 H 0.5676 0.14911 0.70952 0.0
O588 O 0.61921 0.16947 0.80625 0.0
O589 O 0.594 0.19628 0.77087 0.0
O590 O 0.61273 0.16586 0.73194 0.0
O591 O 0.58476 0.1566 0.77994 0.0
H592 H 0.61776 0.20196 0.82904 0.0
H593 H 0.64978 0.15522 0.8222 0.0
H594 H 0.64166 0.21635 0.86013 0.0
H595 H 0.67316 0.17044 0.85337 0.0
H596 H 0.53442 0.20128 0.7807 0.0
H597 H 0.59225 0.23097 0.77455 0.0
H598 H 0.5615 0.18334 0.7741 0.0
H599 H 0.5646 0.24818 0.78083 0.0
H600 H 0.67942 0.20068 0.74596 0.0
H601 H 0.63909 0.23676 0.71343 0.0
H602 H 0.56123 0.1581 0.89885 0.0
H603 H 0.56652 0.21457 0.8878 0.0
H604 H 0.60801 0.18948 0.6862 0.0
H605 H 0.64547 0.15374 0.72844 0.0
H606 H 0.63098 0.19882 0.64755 0.0
H607 H 0.66772 0.16356 0.68881 0.0
H608 H 0.58581 0.12632 0.7483 0.0
H609 H 0.55325 0.15962 0.80721 0.0
H610 H 0.56148 0.10457 0.74615 0.0
H611 H 0.52943 0.13739 0.80359 0.0
H612 H 0.62238 0.09483 0.82197 0.0
H613 H 0.63071 0.09877 0.72001 0.0
H614 H 0.55769 0.20746 0.66096 0.0
H615 H 0.54724 0.15142 0.66423 0.0
Li616 Li 0.81197 0.61554 0.01332 0.0
Li617 Li 0.82026 0.59234 0.05081 0.0
Li618 Li 0.84232 0.60708 0.01879 0.0
Li619 Li 0.8219 0.58748 0.99439 0.0
C620 C 0.81818 0.62592 0.07655 0.0
N621 N 0.8001 0.64215 0.12574 0.0
C622 C 0.80001 0.62335 0.07999 0.0
C623 C 0.82714 0.63674 0.09814 0.0
C624 C 0.79112 0.63167 0.10501 0.0
C625 C 0.81777 0.64483 0.12284 0.0
C626 C 0.78993 0.57828 0.01437 0.0
C627 C 0.78394 0.54714 0.01889 0.0
N628 N 0.76905 0.54932 0.00122 0.0
C629 C 0.77456 0.58021 0.99629 0.0
C630 C 0.79467 0.56161 0.02579 0.0
C631 C 0.76418 0.56541 0.98989 0.0
C632 C 0.78623 0.63027 0.97645 0.0
N633 N 0.7965 0.63405 0.00207 0.0
C634 C 0.786 0.66374 0.00296 0.0
C635 C 0.79667 0.65038 0.01546 0.0
C636 C 0.77524 0.66018 0.97639 0.0
C637 C 0.77538 0.64315 0.96326 0.0
H638 H 0.78696 0.61735 0.9656 0.0
H639 H 0.80541 0.6532 0.0352 0.0
C640 C 0.82961 0.57529 0.10728 0.0
N641 N 0.81559 0.5815 0.09052 0.0
C642 C 0.82695 0.56546 0.13499 0.0
C643 C 0.79546 0.56904 0.1281 0.0
C644 C 0.79875 0.57886 0.10055 0.0
C645 C 0.80967 0.56196 0.14541 0.0
H646 H 0.84284 0.57755 0.09853 0.0
H647 H 0.78785 0.58394 0.08664 0.0
C648 C 0.83358 0.62655 0.96488 0.0
N649 N 0.84247 0.65828 0.93675 0.0
C650 C 0.83396 0.62808 0.93165 0.0
C651 C 0.8377 0.64117 0.98382 0.0
C652 C 0.83851 0.64423 0.91788 0.0
C653 C 0.84216 0.65709 0.96914 0.0
C654 C 0.85388 0.57262 0.01378 0.0
C655 C 0.85891 0.57583 0.9822 0.0
C656 C 0.86338 0.56049 0.03211 0.0
C657 C 0.87339 0.56686 0.96949 0.0
C658 C 0.87778 0.55179 0.01852 0.0
N659 N 0.88245 0.55513 0.98776 0.0
C660 C 0.87451 0.61735 0.04676 0.0
C661 C 0.87482 0.61652 0.99019 0.0
C662 C 0.8924 0.62174 0.0474 0.0
N663 N 0.86619 0.61471 0.01843 0.0
C664 C 0.89265 0.62096 0.9897 0.0
C665 C 0.90176 0.6234 0.01857 0.0
H666 H 0.86732 0.61563 0.06885 0.0
H667 H 0.86799 0.61417 0.96796 0.0
C668 C 0.81087 0.57738 0.93389 0.0
N669 N 0.81799 0.57097 0.96126 0.0
C670 C 0.8076 0.56615 0.90823 0.0
C671 C 0.81886 0.54186 0.93964 0.0
C672 C 0.82188 0.55358 0.96474 0.0
C673 C 0.8117 0.54815 0.91086 0.0
H674 H 0.80781 0.59128 0.93201 0.0
H675 H 0.82732 0.54882 0.987 0.0
O676 O 0.8273 0.61788 0.05241 0.0
O677 O 0.8005 0.59253 0.02025 0.0
O678 O 0.82894 0.61083 0.97854 0.0
O679 O 0.83983 0.5813 0.02698 0.0
H680 H 0.79279 0.61513 0.06349 0.0
H681 H 0.8412 0.63885 0.0958 0.0
H682 H 0.77706 0.62981 0.10793 0.0
H683 H 0.82454 0.65324 0.13972 0.0
H684 H 0.7875 0.53416 0.02743 0.0
H685 H 0.77065 0.593 0.9873 0.0
H686 H 0.80668 0.55981 0.03937 0.0
H687 H 0.75225 0.56671 0.9759 0.0
H688 H 0.78629 0.67671 0.01374 0.0
H689 H 0.76766 0.63995 0.94229 0.0
H690 H 0.83827 0.56006 0.14737 0.0
H691 H 0.78196 0.5668 0.1355 0.0
H692 H 0.83077 0.6169 0.91667 0.0
H693 H 0.83746 0.64029 0.00957 0.0
H694 H 0.83886 0.6456 0.89218 0.0
H695 H 0.84537 0.6685 0.9835 0.0
H696 H 0.85173 0.58513 0.96759 0.0
H697 H 0.85966 0.55785 0.05659 0.0
H698 H 0.87742 0.56924 0.9451 0.0
H699 H 0.88526 0.54238 0.03245 0.0
H700 H 0.89895 0.62326 0.07021 0.0
H701 H 0.89925 0.62234 0.96691 0.0
H702 H 0.80225 0.57158 0.88635 0.0
H703 H 0.82199 0.52804 0.94278 0.0
H704 H 0.44275 0.20843 0.42329 0.0
H705 H 0.4616 0.21036 0.47067 0.0
H706 H 0.48575 0.1607 0.44606 0.0
H707 H 0.46684 0.15849 0.39905 0.0
H708 H 0.46368 0.18542 0.52157 0.0
H709 H 0.52804 0.1941 0.46043 0.0
H710 H 0.50718 0.19776 0.44064 0.0
H711 H 0.51534 0.17572 0.44619 0.0
C712 C 0.45205 0.1979 0.42801 0.0
C713 C 0.45335 0.18334 0.40731 0.0
C714 C 0.46285 0.19908 0.45497 0.0
C715 C 0.47522 0.18581 0.46152 0.0
C716 C 0.47655 0.17127 0.44098 0.0
H717 H 0.54886 0.15739 0.60774 0.0
H718 H 0.52996 0.15992 0.56075 0.0
C719 C 0.46575 0.17005 0.41411 0.0
C720 C 0.48627 0.18671 0.49053 0.0
H721 H 0.52903 0.18716 0.51587 0.0
C722 C 0.47797 0.186 0.52043 0.0
C723 C 0.50487 0.18746 0.4888 0.0
C724 C 0.51442 0.18897 0.45731 0.0
C725 C 0.48784 0.18533 0.54874 0.0
C726 C 0.50646 0.18571 0.54698 0.0
C727 C 0.51474 0.18682 0.51709 0.0
C728 C 0.51766 0.18429 0.57579 0.0
C729 C 0.47828 0.18354 0.58018 0.0
C730 C 0.51707 0.19724 0.59969 0.0
C731 C 0.52774 0.19574 0.62677 0.0
C732 C 0.53925 0.18131 0.63029 0.0
C733 C 0.53991 0.16848 0.60607 0.0
C734 C 0.52923 0.16998 0.57908 0.0
H735 H 0.46434 0.17938 0.57687 0.0
H736 H 0.48499 0.17383 0.59587 0.0
H737 H 0.47827 0.19647 0.59257 0.0
H738 H 0.50843 0.20854 0.59732 0.0
H739 H 0.52685 0.2058 0.64506 0.0
H740 H 0.78507 0.44135 0.67168 0.0
H741 H 0.78125 0.45954 0.71951 0.0
H742 H 0.82954 0.4871 0.6979 0.0
H743 H 0.83352 0.46896 0.65027 0.0
H744 H 0.80404 0.46189 0.77108 0.0
H745 H 0.79476 0.52728 0.71449 0.0
H746 H 0.79281 0.50687 0.69254 0.0
H747 H 0.8142 0.51607 0.70078 0.0
C748 C 0.79485 0.45131 0.67711 0.0
C749 C 0.80958 0.45376 0.65717 0.0
C750 C 0.7926 0.46173 0.70432 0.0
C751 C 0.80497 0.47482 0.71193 0.0
C752 C 0.81962 0.47736 0.692 0.0
H753 H 0.83389 0.52243 0.88918 0.0
H754 H 0.83021 0.5038 0.84207 0.0
C755 C 0.82188 0.46698 0.6648 0.0
C756 C 0.80317 0.48518 0.74166 0.0
H757 H 0.80188 0.52728 0.77021 0.0
C758 C 0.80336 0.47618 0.77093 0.0
C759 C 0.80202 0.50378 0.74134 0.0
C760 C 0.80075 0.51407 0.7106 0.0
C761 C 0.80317 0.48537 0.79999 0.0
C762 C 0.80309 0.50401 0.79964 0.0
C763 C 0.80214 0.51298 0.77038 0.0
C764 C 0.80471 0.51451 0.82925 0.0
C765 C 0.80314 0.47504 0.83077 0.0
C766 C 0.79169 0.52686 0.83739 0.0
C767 C 0.79377 0.53755 0.86428 0.0
C768 C 0.80897 0.53614 0.88337 0.0
C769 C 0.8219 0.52361 0.87529 0.0
C770 C 0.81981 0.51295 0.84839 0.0
H771 H 0.79795 0.46148 0.82722 0.0
H772 H 0.81687 0.47391 0.83976 0.0
H773 H 0.79509 0.48173 0.84932 0.0
H774 H 0.77997 0.52829 0.82282 0.0
H775 H 0.7835 0.54696 0.87008 0.0
H776 H 0.43467 0.831 0.0959 0.0
H777 H 0.45341 0.82908 0.04848 0.0
H778 H 0.49427 0.80431 0.10434 0.0
H779 H 0.47572 0.80634 0.15197 0.0
H780 H 0.48747 0.84368 0.0401 0.0
H781 H 0.48793 0.77072 0.02775 0.0
H782 H 0.472 0.78225 0.05209 0.0
H783 H 0.49405 0.7788 0.06653 0.0
C784 C 0.44769 0.82524 0.09815 0.0
C785 C 0.4537 0.81878 0.12769 0.0
C786 C 0.45832 0.82406 0.07101 0.0
C787 C 0.47508 0.81631 0.07287 0.0
C788 C 0.4812 0.80998 0.1023 0.0
H789 H 0.56074 0.80119 0.93874 0.0
H790 H 0.54133 0.80139 0.98547 0.0
C791 C 0.47059 0.81115 0.12947 0.0
C792 C 0.4864 0.8154 0.04418 0.0
H793 H 0.50726 0.78673 0.99394 0.0
C794 C 0.49174 0.83124 0.02987 0.0
C795 C 0.49196 0.79914 0.03108 0.0
C796 C 0.48609 0.78173 0.04493 0.0
C797 C 0.50276 0.83127 0.003 0.0
C798 C 0.50828 0.81501 0.98981 0.0
C799 C 0.50296 0.79916 0.00415 0.0
C800 C 0.51966 0.81423 0.96119 0.0
C801 C 0.50873 0.84871 0.98939 0.0
C802 C 0.51371 0.82103 0.93197 0.0
C803 C 0.52478 0.82104 0.90534 0.0
C804 C 0.54197 0.81414 0.90743 0.0
C805 C 0.54767 0.80684 0.93652 0.0
C806 C 0.53658 0.80684 0.96315 0.0
H807 H 0.50701 0.85965 0.00676 0.0
H808 H 0.52281 0.84814 0.98215 0.0
H809 H 0.50075 0.85182 0.96791 0.0
H810 H 0.50057 0.82652 0.92988 0.0
H811 H 0.52004 0.82689 0.88337 0.0
H812 H 0.15895 0.47043 0.39883 0.0
H813 H 0.15959 0.48913 0.3512 0.0
H814 H 0.19546 0.45282 0.30577 0.0
H815 H 0.19468 0.43387 0.35313 0.0
H816 H 0.19074 0.50462 0.32092 0.0
H817 H 0.15352 0.45893 0.24169 0.0
H818 H 0.15305 0.45711 0.28468 0.0
H819 H 0.17201 0.4497 0.26281 0.0
C820 C 0.16687 0.46636 0.37861 0.0
C821 C 0.1767 0.45064 0.37963 0.0
C822 C 0.1673 0.47709 0.35154 0.0
C823 C 0.17742 0.47222 0.32496 0.0
C824 C 0.18741 0.45667 0.32597 0.0
H825 H 0.1887 0.51972 0.13698 0.0
H826 H 0.19088 0.50055 0.18379 0.0
C827 C 0.18707 0.44596 0.35311 0.0
C828 C 0.17755 0.48352 0.29624 0.0
H829 H 0.1643 0.48513 0.21846 0.0
C830 C 0.18498 0.5004 0.29848 0.0
C831 C 0.17009 0.47786 0.26707 0.0
C832 C 0.16158 0.45996 0.26376 0.0
C833 C 0.18523 0.51181 0.27214 0.0
C834 C 0.17745 0.5063 0.24309 0.0
C835 C 0.17022 0.48931 0.24078 0.0
C836 C 0.17637 0.51808 0.21498 0.0
C837 C 0.19406 0.52955 0.27553 0.0
C838 C 0.16731 0.53417 0.21693 0.0
C839 C 0.16619 0.54523 0.19036 0.0
C840 C 0.17396 0.54031 0.16119 0.0
C841 C 0.18282 0.52404 0.15921 0.0
C842 C 0.18398 0.51302 0.18586 0.0
H843 H 0.20367 0.52964 0.29556 0.0
H844 H 0.20103 0.53332 0.25325 0.0
H845 H 0.1839 0.5397 0.28063 0.0
H846 H 0.16102 0.53816 0.239 0.0
H847 H 0.15941 0.55773 0.19282 0.0
H848 H 0.32822 0.25538 0.31169 0.0
H849 H 0.30623 0.27165 0.34271 0.0
H850 H 0.27642 0.2238 0.35618 0.0
H851 H 0.29858 0.20734 0.32578 0.0
H852 H 0.26881 0.27529 0.33491 0.0
H853 H 0.28761 0.2415 0.44789 0.0
H854 H 0.30122 0.24077 0.41255 0.0
H855 H 0.2817 0.22744 0.41501 0.0
C856 C 0.31694 0.24835 0.32113 0.0
C857 C 0.31518 0.23007 0.31653 0.0
C858 C 0.30437 0.25766 0.33869 0.0
C859 C 0.2899 0.24884 0.35207 0.0
C860 C 0.28765 0.23076 0.34635 0.0
H861 H 0.20395 0.305 0.44757 0.0
H862 H 0.22038 0.28395 0.41475 0.0
C863 C 0.30021 0.22143 0.32872 0.0
C864 C 0.27765 0.25854 0.37315 0.0
H865 H 0.26496 0.26272 0.45099 0.0
C866 C 0.26782 0.27248 0.36024 0.0
C867 C 0.27662 0.25489 0.40621 0.0
C868 C 0.28742 0.24043 0.42144 0.0
C869 C 0.25706 0.28304 0.37964 0.0
C870 C 0.25603 0.27939 0.4127 0.0
C871 C 0.26572 0.26534 0.42557 0.0
C872 C 0.24583 0.29076 0.43458 0.0
C873 C 0.24737 0.2984 0.36486 0.0
C874 C 0.25467 0.30102 0.45738 0.0
C875 C 0.24532 0.31293 0.47636 0.0
C876 C 0.22696 0.31467 0.47295 0.0
C877 C 0.21806 0.30382 0.45099 0.0
C878 C 0.22743 0.29193 0.43198 0.0
H879 H 0.25223 0.30141 0.34044 0.0
H880 H 0.23312 0.29519 0.36323 0.0
H881 H 0.24878 0.31039 0.37987 0.0
H882 H 0.26887 0.3002 0.45981 0.0
H883 H 0.25249 0.321 0.49329 0.0
H884 H 0.78496 0.31528 0.61712 0.0
H885 H 0.76569 0.29354 0.64248 0.0
H886 H 0.73633 0.2882 0.55481 0.0
H887 H 0.75558 0.31009 0.52926 0.0
H888 H 0.71642 0.29755 0.61203 0.0
H889 H 0.75961 0.23917 0.63008 0.0
H890 H 0.76896 0.26003 0.64147 0.0
H891 H 0.76406 0.2558 0.60024 0.0
C892 C 0.77454 0.30928 0.60315 0.0
C893 C 0.77164 0.3144 0.57133 0.0
C894 C 0.76367 0.29678 0.61755 0.0
C895 C 0.74974 0.2892 0.60038 0.0
C896 C 0.74715 0.29384 0.56829 0.0
H897 H 0.65841 0.23006 0.66549 0.0
H898 H 0.68007 0.24613 0.63357 0.0
C899 C 0.75814 0.30626 0.55374 0.0
C900 C 0.73679 0.27798 0.61707 0.0
H901 H 0.73227 0.23935 0.65795 0.0
C902 C 0.71978 0.28473 0.62178 0.0
C903 C 0.7414 0.26143 0.63006 0.0
C904 C 0.75946 0.25355 0.62508 0.0
C905 C 0.70729 0.27552 0.63991 0.0
C906 C 0.71184 0.25891 0.65291 0.0
C907 C 0.72884 0.25208 0.64793 0.0
C908 C 0.69911 0.24849 0.67185 0.0
C909 C 0.68955 0.28397 0.64589 0.0
C910 C 0.70292 0.24395 0.70361 0.0
C911 C 0.6906 0.23464 0.72184 0.0
C912 C 0.67429 0.22982 0.70856 0.0
C913 C 0.67071 0.23403 0.67654 0.0
C914 C 0.68306 0.24318 0.65829 0.0
H915 H 0.68997 0.29847 0.64205 0.0
H916 H 0.67974 0.27838 0.62904 0.0
H917 H 0.68492 0.28139 0.6706 0.0
H918 H 0.7153 0.24786 0.71442 0.0
H919 H 0.69369 0.23147 0.74643 0.0
H920 H 0.78467 0.69439 0.96441 0.0
H921 H 0.76751 0.71682 0.93596 0.0
H922 H 0.72484 0.67975 0.92439 0.0
H923 H 0.74159 0.65753 0.95368 0.0
H924 H 0.75523 0.71464 0.87364 0.0
H925 H 0.69966 0.72327 0.95813 0.0
H926 H 0.71999 0.71252 0.96927 0.0
H927 H 0.70332 0.70064 0.94755 0.0
C928 C 0.77147 0.69116 0.95644 0.0
C929 C 0.76445 0.67421 0.96135 0.0
C930 C 0.76176 0.70393 0.93998 0.0
C931 C 0.74485 0.69999 0.92841 0.0
C932 C 0.73774 0.68316 0.93363 0.0
H933 H 0.66522 0.74718 0.81085 0.0
H934 H 0.68522 0.72736 0.83933 0.0
C935 C 0.7474 0.67043 0.95008 0.0
C936 C 0.7349 0.7131 0.90947 0.0
H937 H 0.69537 0.73447 0.90534 0.0
C938 C 0.74223 0.71915 0.8807 0.0
C939 C 0.71796 0.71895 0.91883 0.0
C940 C 0.70983 0.71365 0.95029 0.0
C941 C 0.73276 0.73046 0.86045 0.0
C942 C 0.71563 0.73586 0.86942 0.0
C943 C 0.70847 0.73011 0.89847 0.0
C944 C 0.70477 0.74742 0.84901 0.0
C945 C 0.74086 0.73615 0.82922 0.0
C946 C 0.70935 0.76516 0.84464 0.0
C947 C 0.69798 0.77651 0.8283 0.0
C948 C 0.68186 0.77027 0.81613 0.0
C949 C 0.67765 0.75232 0.81954 0.0
C950 C 0.68898 0.74101 0.83599 0.0
H951 H 0.7528 0.72833 0.82321 0.0
H952 H 0.73116 0.73485 0.80949 0.0
H953 H 0.7447 0.75024 0.83084 0.0
H954 H 0.72141 0.77036 0.85485 0.0
H955 H 0.70159 0.79027 0.82588 0.0
H956 H 0.24324 0.68019 0.04628 0.0
H957 H 0.26235 0.70092 0.07501 0.0
H958 H 0.22369 0.70467 0.15036 0.0
H959 H 0.20495 0.68342 0.1223 0.0
H960 H 0.2594 0.7341 0.09575 0.0
H961 H 0.26634 0.68929 0.19957 0.0
H962 H 0.25602 0.68248 0.16283 0.0
H963 H 0.24386 0.6952 0.19171 0.0
C964 C 0.23881 0.68561 0.06884 0.0
C965 C 0.2228 0.68013 0.08238 0.0
C966 C 0.2497 0.6974 0.08523 0.0
C967 C 0.24464 0.70398 0.11522 0.0
C968 C 0.22812 0.69933 0.12776 0.0
H969 H 0.30206 0.78908 0.21064 0.0
H970 H 0.27962 0.77179 0.18297 0.0
C971 C 0.21738 0.68731 0.11167 0.0
C972 C 0.25692 0.71518 0.13381 0.0
H973 H 0.27851 0.71787 0.20514 0.0
C974 C 0.26361 0.73056 0.11967 0.0
C975 C 0.26262 0.71037 0.16481 0.0
C976 C 0.25699 0.69335 0.18051 0.0
C977 C 0.27584 0.74129 0.13566 0.0
C978 C 0.28107 0.73678 0.16707 0.0
C979 C 0.27434 0.72141 0.1812 0.0
C980 C 0.29418 0.74726 0.1852 0.0
C981 C 0.28344 0.75698 0.11829 0.0
C982 C 0.30942 0.73905 0.19706 0.0
C983 C 0.32201 0.74876 0.2138 0.0
C984 C 0.31972 0.76696 0.21882 0.0
C985 C 0.30422 0.77508 0.20751 0.0
C986 C 0.2915 0.76527 0.19114 0.0
H987 H 0.28199 0.75567 0.092 0.0
H988 H 0.2763 0.76907 0.12575 0.0
H989 H 0.29765 0.75872 0.12394 0.0
H990 H 0.31169 0.72512 0.19305 0.0
H991 H 0.33358 0.74199 0.22271 0.0
H992 H 0.34825 0.92328 0.2454 0.0
H993 H 0.346 0.95548 0.24278 0.0
H994 H 0.38488 0.96009 0.31743 0.0
H995 H 0.38773 0.92806 0.31942 0.0
H996 H 0.3377 0.98109 0.28973 0.0
H997 H 0.40588 0.98889 0.24374 0.0
H998 H 0.39469 0.96789 0.24444 0.0
H999 H 0.40461 0.97651 0.28019 0.0
C1000 C 0.35636 0.93116 0.2612 0.0
C1001 C 0.36829 0.92309 0.28242 0.0
C1002 C 0.35496 0.94953 0.25981 0.0
C1003 C 0.36551 0.96012 0.2795 0.0
C1004 C 0.37686 0.95212 0.30163 0.0
H1005 H 0.3856 0.06964 0.31181 0.0
H1006 H 0.3831 0.03756 0.31302 0.0
C1007 C 0.3783 0.9338 0.30299 0.0
C1008 C 0.36509 0.97954 0.27639 0.0
H1009 H 0.39122 0.01506 0.26031 0.0
C1010 C 0.34933 0.98855 0.28306 0.0
C1011 C 0.38027 0.98917 0.2674 0.0
C1012 C 0.39728 0.98014 0.25822 0.0
C1013 C 0.34857 0.00706 0.28216 0.0
C1014 C 0.36391 0.01666 0.27407 0.0
C1015 C 0.37952 0.00762 0.2667 0.0
C1016 C 0.36435 0.03614 0.27419 0.0
C1017 C 0.33158 0.01624 0.29083 0.0
C1018 C 0.35461 0.04594 0.2519 0.0
C1019 C 0.35595 0.06433 0.25121 0.0
C1020 C 0.36705 0.07318 0.27283 0.0
C1021 C 0.37668 0.06327 0.29522 0.0
C1022 C 0.37537 0.04493 0.29582 0.0
H1023 H 0.32199 0.00712 0.30221 0.0
H1024 H 0.33415 0.0274 0.30734 0.0
H1025 H 0.32545 0.02167 0.26888 0.0
H1026 H 0.34623 0.03934 0.23469 0.0
H1027 H 0.34832 0.07163 0.23378 0.0
H1028 H 0.92461 0.34715 0.48774 0.0
H1029 H 0.95647 0.34161 0.49023 0.0
H1030 H 0.96163 0.38115 0.56362 0.0
H1031 H 0.93001 0.38689 0.5611 0.0
H1032 H 0.98369 0.36593 0.47958 0.0
H1033 H 0.98737 0.33864 0.60205 0.0
H1034 H 0.9669 0.3403 0.58017 0.0
H1035 H 0.97585 0.35929 0.60018 0.0
C1036 C 0.93256 0.35467 0.50437 0.0
C1037 C 0.92477 0.36736 0.52441 0.0
C1038 C 0.9507 0.35141 0.50589 0.0
C1039 C 0.96129 0.36071 0.52759 0.0
C1040 C 0.95359 0.37348 0.54736 0.0
H1041 H 0.06832 0.38284 0.57041 0.0
H1042 H 0.03635 0.37898 0.56839 0.0
C1043 C 0.93551 0.37675 0.54585 0.0
C1044 C 0.98059 0.35789 0.52853 0.0
H1045 H 0.0146 0.34874 0.57928 0.0
C1046 C 0.99047 0.36188 0.50118 0.0
C1047 C 0.98933 0.35259 0.55677 0.0
C1048 C 0.97931 0.34729 0.58637 0.0
C1049 C 0.00897 0.36162 0.5018 0.0
C1050 C 0.01772 0.35697 0.53042 0.0
C1051 C 0.00782 0.35235 0.55743 0.0
C1052 C 0.03712 0.35803 0.53337 0.0
C1053 C 0.019 0.36716 0.47233 0.0
C1054 C 0.04812 0.34718 0.51496 0.0
C1055 C 0.06641 0.34931 0.51614 0.0
C1056 C 0.07399 0.36226 0.53589 0.0
C1057 C 0.06292 0.37262 0.55522 0.0
C1058 C 0.04465 0.3705 0.55399 0.0
H1059 H 0.01031 0.37356 0.45438 0.0
H1060 H 0.02978 0.37645 0.47863 0.0
H1061 H 0.02505 0.35536 0.46112 0.0
H1062 H 0.04253 0.33726 0.49935 0.0
H1063 H 0.07462 0.34093 0.50136 0.0
H1064 H 0.61743 0.92755 0.81154 0.0
H1065 H 0.62177 0.95947 0.814 0.0
H1066 H 0.64009 0.95941 0.71654 0.0
H1067 H 0.63575 0.92736 0.71385 0.0
H1068 H 0.65968 0.98217 0.76078 0.0
H1069 H 0.58701 0.99195 0.76436 0.0
H1070 H 0.59564 0.97727 0.7942 0.0
H1071 H 0.59699 0.97131 0.75276 0.0
C1072 C 0.62244 0.93433 0.79066 0.0
C1073 C 0.62597 0.92505 0.76231 0.0
C1074 C 0.62496 0.95252 0.79215 0.0
C1075 C 0.63097 0.96175 0.7653 0.0
C1076 C 0.6354 0.95245 0.73747 0.0
H1077 H 0.61438 0.07171 0.72553 0.0
H1078 H 0.61726 0.03971 0.72348 0.0
C1079 C 0.63293 0.9342 0.73598 0.0
C1080 C 0.63143 0.98122 0.76566 0.0
H1081 H 0.60472 0.01729 0.77113 0.0
C1082 C 0.6477 0.9899 0.76302 0.0
C1083 C 0.61572 0.99118 0.76822 0.0
C1084 C 0.59781 0.98251 0.76978 0.0
C1085 C 0.64868 0.0084 0.76328 0.0
C1086 C 0.63299 0.01832 0.7665 0.0
C1087 C 0.61673 0.0096 0.76886 0.0
C1088 C 0.63289 0.03781 0.76654 0.0
C1089 C 0.66639 0.01721 0.75953 0.0
C1090 C 0.64082 0.04734 0.79142 0.0
C1091 C 0.63929 0.06571 0.79258 0.0
C1092 C 0.62977 0.07481 0.7689 0.0
C1093 C 0.62208 0.06517 0.74382 0.0
C1094 C 0.62361 0.04687 0.7427 0.0
H1095 H 0.67657 0.00792 0.75047 0.0
H1096 H 0.66547 0.0286 0.74296 0.0
H1097 H 0.67082 0.02223 0.78309 0.0
H1098 H 0.64779 0.04054 0.81034 0.0
H1099 H 0.64544 0.07278 0.8121 0.0
H1100 H 0.92671 0.60862 0.97986 0.0
H1101 H 0.95848 0.61378 0.98014 0.0
H1102 H 0.95249 0.65067 0.0577 0.0
H1103 H 0.9205 0.64588 0.05722 0.0
H1104 H 0.97747 0.64755 0.9739 0.0
H1105 H 0.9889 0.61273 0.08924 0.0
H1106 H 0.96901 0.60966 0.06615 0.0
H1107 H 0.97219 0.62959 0.08848 0.0
C1108 C 0.93206 0.61805 0.99668 0.0
C1109 C 0.92104 0.62687 0.01849 0.0
C1110 C 0.95023 0.62091 0.99689 0.0
C1111 C 0.95777 0.63251 0.01905 0.0
C1112 C 0.94688 0.64152 0.04065 0.0
H1113 H 0.07049 0.64454 0.05731 0.0
H1114 H 0.03853 0.64919 0.05818 0.0
C1115 C 0.92864 0.63871 0.04041 0.0
C1116 C 0.97712 0.63474 0.01975 0.0
H1117 H 0.01378 0.62359 0.06237 0.0
C1118 C 0.98545 0.64248 0.99334 0.0
C1119 C 0.98739 0.62818 0.04526 0.0
C1120 C 0.97902 0.61946 0.07388 0.0
C1121 C 0.00389 0.64355 0.99149 0.0
C1122 C 0.01421 0.63631 0.01639 0.0
C1123 C 0.00584 0.62912 0.0433 0.0
C1124 C 0.03367 0.63499 0.01424 0.0
C1125 C 0.01213 0.65241 0.9629 0.0
C1126 C 0.04153 0.62551 0.98921 0.0
C1127 C 0.05975 0.62285 0.98864 0.0
C1128 C 0.07043 0.62943 0.01333 0.0
C1129 C 0.06257 0.63917 0.03811 0.0
C1130 C 0.04434 0.6419 0.03857 0.0
H1131 H 0.00296 0.6621 0.95193 0.0
H1132 H 0.02454 0.65929 0.96944 0.0
H1133 H 0.01523 0.64229 0.9446 0.0
H1134 H 0.0335 0.61963 0.97065 0.0
H1135 H 0.06539 0.61504 0.96953 0.0
H1136 H 0.53499 0.21019 0.90098 0.0
H1137 H 0.51321 0.213 0.94382 0.0
H1138 H 0.53937 0.17168 0.9964 0.0
H1139 H 0.56142 0.16905 0.95403 0.0
H1140 H 0.49084 0.18555 0.96407 0.0
H1141 H 0.53201 0.21047 0.06378 0.0
H1142 H 0.53893 0.21164 0.02257 0.0
H1143 H 0.54092 0.19132 0.04438 0.0
C1144 C 0.53634 0.20198 0.92199 0.0
C1145 C 0.54994 0.18942 0.92418 0.0
C1146 C 0.52383 0.20353 0.94633 0.0
C1147 C 0.52481 0.19269 0.97338 0.0
C1148 C 0.53856 0.18038 0.97594 0.0
H1149 H 0.46335 0.16474 0.13631 0.0
H1150 H 0.48503 0.1686 0.09386 0.0
C1151 C 0.55104 0.17877 0.95159 0.0
C1152 C 0.51078 0.19329 -0.00213 0.0
H1153 H 0.50366 0.19904 0.07761 0.0
C1154 C 0.49355 0.18872 0.98885 0.0
C1155 C 0.51443 0.19742 0.0301 0.0
C1156 C 0.53254 0.20315 0.04082 0.0
C1157 C 0.47998 0.18742 0.0115 0.0
C1158 C 0.48373 0.19112 0.04389 0.0
C1159 C 0.50086 0.19617 0.05275 0.0
C1160 C 0.47032 0.18891 0.06924 0.0
C1161 C 0.46195 0.18139 0.0008 0.0
C1162 C 0.45488 0.19912 0.06951 0.0
C1163 C 0.44231 0.19679 0.09358 0.0
C1164 C 0.44504 0.18427 0.11787 0.0
C1165 C 0.46064 0.17422 0.11761 0.0
C1166 C 0.47314 0.17653 0.09355 0.0
H1167 H 0.46229 0.17539 0.97661 0.0
H1168 H 0.4564 0.17162 0.01779 0.0
H1169 H 0.45292 0.19289 2e-05 0.0
H1170 H 0.4526 0.20895 0.05121 0.0
H1171 H 0.43042 0.20471 0.09306 0.0
H1172 H 0.78528 0.53559 0.15051 0.0
H1173 H 0.7819 0.51439 0.19413 0.0
H1174 H 0.82422 0.53973 0.24539 0.0
H1175 H 0.82737 0.56125 0.20232 0.0
H1176 H 0.80822 0.49133 0.21418 0.0
H1177 H 0.78627 0.53394 0.31404 0.0
H1178 H 0.78513 0.54083 0.27281 0.0
H1179 H 0.80565 0.54204 0.29426 0.0
C1180 C 0.79357 0.53691 0.17143 0.0
C1181 C 0.80658 0.55011 0.17302 0.0
C1182 C 0.7917 0.52473 0.19621 0.0
C1183 C 0.80267 0.52562 0.22311 0.0
C1184 C 0.8154 0.53901 0.22509 0.0
H1185 H 0.83265 0.46425 0.38434 0.0
H1186 H 0.82824 0.48574 0.34171 0.0
C1187 C 0.81731 0.55117 0.20032 0.0
C1188 C 0.80184 0.51178 0.24793 0.0
H1189 H 0.79744 0.50544 0.32817 0.0
C1190 C 0.80561 0.49433 0.23905 0.0
C1191 C 0.79842 0.51578 0.2803 0.0
C1192 C 0.79347 0.53414 0.29094 0.0
C1193 C 0.80686 0.48089 0.26195 0.0
C1194 C 0.804 0.48501 0.29445 0.0
C1195 C 0.79969 0.50235 0.3032 0.0
C1196 C 0.80646 0.47177 0.31997 0.0
C1197 C 0.81199 0.46256 0.25137 0.0
C1198 C 0.79561 0.45682 0.3219 0.0
C1199 C 0.79821 0.44439 0.3461 0.0
C1200 C 0.81168 0.44675 0.36881 0.0
C1201 C 0.82241 0.46184 0.36686 0.0
C1202 C 0.8198 0.47423 0.34272 0.0
H1203 H 0.81715 0.4624 0.22655 0.0
H1204 H 0.82216 0.45694 0.2675 0.0
H1205 H 0.80023 0.45387 0.25232 0.0
H1206 H 0.78508 0.45483 0.30479 0.0
H1207 H 0.78976 0.43288 0.34692 0.0
H1208 H 0.56766 0.81164 0.58162 0.0
H1209 H 0.54568 0.80725 0.53946 0.0
H1210 H 0.51264 0.77866 0.60528 0.0
H1211 H 0.53444 0.78314 0.6477 0.0
H1212 H 0.528 0.77315 0.51647 0.0
H1213 H 0.48363 0.82319 0.57184 0.0
H1214 H 0.50694 0.82229 0.58063 0.0
H1215 H 0.49236 0.80604 0.59702 0.0
C1216 C 0.55578 0.8043 0.58703 0.0
C1217 C 0.55272 0.79782 0.61798 0.0
C1218 C 0.54331 0.80173 0.56292 0.0
C1219 C 0.52755 0.79276 0.56945 0.0
C1220 C 0.52474 0.78567 0.59993 0.0
H1221 H 0.43239 0.79383 0.45163 0.0
H1222 H 0.45305 0.78749 0.49502 0.0
C1223 C 0.53724 0.78815 0.62402 0.0
C1224 C 0.51361 0.7919 0.54489 0.0
H1225 H 0.47446 0.81061 0.52349 0.0
C1226 C 0.5162 0.7812 0.51802 0.0
C1227 C 0.49824 0.80235 0.54727 0.0
C1228 C 0.49504 0.81422 0.5756 0.0
C1229 C 0.50383 0.78085 0.49308 0.0
C1230 C 0.48878 0.79188 0.49479 0.0
C1231 C 0.48599 0.80217 0.5222 0.0
C1232 C 0.4764 0.79395 0.46767 0.0
C1233 C 0.50701 0.76864 0.46522 0.0
C1234 C 0.48265 0.79965 0.43789 0.0
C1235 C 0.47092 0.80307 0.41299 0.0
C1236 C 0.45263 0.80117 0.41747 0.0
C1237 C 0.44639 0.79524 0.44723 0.0
C1238 C 0.45818 0.79171 0.47211 0.0
H1239 H 0.51515 0.75711 0.47239 0.0
H1240 H 0.49442 0.76378 0.45496 0.0
H1241 H 0.51433 0.77585 0.44635 0.0
H1242 H 0.4966 0.8019 0.4341 0.0
H1243 H 0.47621 0.80735 0.39027 0.0
H1244 H 0.16583 0.55731 0.84474 0.0
H1245 H 0.17024 0.53605 0.80151 0.0
H1246 H 0.21927 0.51946 0.84417 0.0
H1247 H 0.21484 0.54052 0.88786 0.0
H1248 H 0.20062 0.53214 0.75807 0.0
H1249 H 0.18848 0.4737 0.83568 0.0
H1250 H 0.1818 0.49567 0.84709 0.0
H1251 H 0.20461 0.48948 0.849 0.0
C1252 C 0.17755 0.54913 0.84492 0.0
C1253 C 0.18993 0.55049 0.8698 0.0
C1254 C 0.18009 0.53709 0.82015 0.0
C1255 C 0.19497 0.5261 0.81993 0.0
C1256 C 0.20762 0.52774 0.84417 0.0
H1257 H 0.2124 0.4359 0.69251 0.0
H1258 H 0.21681 0.45827 0.73402 0.0
C1259 C 0.20513 0.53986 0.86892 0.0
C1260 C 0.19684 0.51261 0.7947 0.0
H1261 H 0.19355 0.46836 0.78121 0.0
C1262 C 0.19923 0.51818 0.76309 0.0
C1263 C 0.19514 0.49443 0.80149 0.0
C1264 C 0.19226 0.48785 0.83509 0.0
C1265 C 0.19964 0.50601 0.73787 0.0
C1266 C 0.19715 0.48788 0.74448 0.0
C1267 C 0.19541 0.48227 0.77624 0.0
C1268 C 0.19506 0.47469 0.71868 0.0
C1269 C 0.20266 0.5127 0.70439 0.0
C1270 C 0.18126 0.47643 0.69661 0.0
C1271 C 0.17877 0.46378 0.67288 0.0
C1272 C 0.18992 0.44899 0.67091 0.0
C1273 C 0.20371 0.44723 0.69318 0.0
C1274 C 0.2062 0.45994 0.71696 0.0
H1275 H 0.20988 0.52545 0.70448 0.0
H1276 H 0.21023 0.50303 0.68993 0.0
H1277 H 0.18973 0.51492 0.69265 0.0
H1278 H 0.17226 0.48751 0.69794 0.0
H1279 H 0.16817 0.46567 0.65588 0.0
loop_
_geom_bond_atom_site_label_1
_geom_bond_atom_site_label_2
_geom_bond_distance
_geom_bond_site_symmetry_2
_ccdc_geom_bond_type
Li0 N17 1.990 . S
Li0 O60 1.956 . S
Li0 O61 1.970 . S
Li0 O62 1.961 . S
Li1 N25 1.990 . S
Li1 O60 1.970 . S
Li1 O61 1.956 . S
Li1 O63 1.961 . S
Li2 N47 1.990 . S
Li2 O60 1.961 . S
Li2 O62 1.956 . S
Li2 O63 1.970 . S
Li3 N53 1.990 . S
Li3 O61 1.961 . S
Li3 O62 1.970 . S
Li3 O63 1.956 . S
C4 C6 1.348 . S
C4 C7 1.356 . S
C4 O60 1.325 . S
N5 C8 1.314 . S
N5 C9 1.279 . S
C6 C4 1.348 . S
C6 C8 1.353 . S
C6 H64 0.929 . S
C7 C4 1.356 . S
C7 C9 1.358 . S
C7 H65 0.930 . S
C8 N5 1.314 . S
C8 C6 1.353 . S
C8 H66 0.930 . S
C9 N5 1.279 . S
C9 C7 1.358 . S
C9 H67 0.930 . S
C10 C13 1.348 . S
C10 C14 1.356 . S
C10 O61 1.325 . S
C11 N12 1.279 . S
C11 C14 1.358 . S
C11 H68 0.930 . S
N12 C11 1.279 . S
N12 C15 1.314 . S
C13 C10 1.348 . S
C13 C15 1.353 . S
C13 H69 0.929 . S
C14 C10 1.356 . S
C14 C11 1.358 . S
C14 H70 0.930 . S
C15 N12 1.314 . S
C15 C13 1.353 . S
C15 H71 0.930 . S
C16 N17 1.314 . S
C16 C21 1.353 . S
C16 H22 0.930 . S
N17 Li0 1.990 . S
N17 C16 1.314 . S
N17 C19 1.279 . S
C18 C19 1.358 . S
C18 C20 1.356 . S
C18 H72 0.930 . S
C19 N17 1.279 . S
C19 C18 1.358 . S
C19 H23 0.930 . S
C20 C18 1.356 . S
C20 C21 1.348 . S
C21 C16 1.353 . S
C21 C20 1.348 . S
C21 H73 0.929 . S
H22 C16 0.930 . S
H23 C19 0.930 . S
C24 N25 1.314 . S
C24 C26 1.353 . S
C24 H30 0.930 . S
N25 Li1 1.990 . S
N25 C24 1.314 . S
N25 C28 1.279 . S
C26 C24 1.353 . S
C26 C29 1.348 . S
C26 H74 0.929 . S
C27 C28 1.358 . S
C27 C29 1.356 . S
C27 H75 0.930 . S
C28 N25 1.279 . S
C28 C27 1.358 . S
C28 H31 0.930 . S
C29 C26 1.348 . S
C29 C27 1.356 . S
H30 C24 0.930 . S
H31 C28 0.930 . S
C32 C34 1.348 . S
C32 C35 1.356 . S
C32 O62 1.325 . S
N33 C36 1.314 . S
N33 C37 1.279 . S
C34 C32 1.348 . S
C34 C36 1.353 . S
C34 H76 0.929 . S
C35 C32 1.356 . S
C35 C37 1.358 . S
C35 H77 0.930 . S
C36 N33 1.314 . S
C36 C34 1.353 . S
C36 H78 0.930 . S
C37 N33 1.279 . S
C37 C35 1.358 . S
C37 H79 0.930 . S
C38 C39 1.348 . S
C38 C40 1.356 . S
C38 O63 1.325 . S
C39 C38 1.348 . S
C39 C41 1.353 . S
C39 H80 0.929 . S
C40 C38 1.356 . S
C40 C42 1.358 . S
C40 H81 0.930 . S
C41 C39 1.353 . S
C41 N43 1.314 . S
C41 H82 0.930 . S
C42 C40 1.358 . S
C42 N43 1.279 . S
C42 H83 0.930 . S
N43 C41 1.314 . S
N43 C42 1.279 . S
C44 C46 1.353 . S
C44 N47 1.314 . S
C44 H50 0.930 . S
C45 N47 1.279 . S
C45 C48 1.358 . S
C45 H51 0.930 . S
C46 C44 1.353 . S
C46 C49 1.348 . S
C46 H84 0.929 . S
N47 Li2 1.990 . S
N47 C44 1.314 . S
N47 C45 1.279 . S
C48 C45 1.358 . S
C48 C49 1.356 . S
C48 H85 0.930 . S
C49 C46 1.348 . S
C49 C48 1.356 . S
H50 C44 0.930 . S
H51 C45 0.930 . S
C52 N53 1.314 . S
C52 C54 1.353 . S
C52 H58 0.930 . S
N53 Li3 1.990 . S
N53 C52 1.314 . S
N53 C56 1.279 . S
C54 C52 1.353 . S
C54 C57 1.348 . S
C54 H86 0.929 . S
C55 C56 1.358 . S
C55 C57 1.356 . S
C55 H87 0.930 . S
C56 N53 1.279 . S
C56 C55 1.358 . S
C56 H59 0.930 . S
C57 C54 1.348 . S
C57 C55 1.356 . S
H58 C52 0.930 . S
H59 C56 0.930 . S
O60 Li0 1.956 . S
O60 Li1 1.970 . S
O60 Li2 1.961 . S
O60 C4 1.325 . S
O61 Li0 1.970 . S
O61 Li1 1.956 . S
O61 Li3 1.961 . S
O61 C10 1.325 . S
O62 Li0 1.961 . S
O62 Li2 1.956 . S
O62 Li3 1.970 . S
O62 C32 1.325 . S
O63 Li1 1.961 . S
O63 Li2 1.970 . S
O63 Li3 1.956 . S
O63 C38 1.325 . S
H64 C6 0.929 . S
H65 C7 0.930 . S
H66 C8 0.930 . S
H67 C9 0.930 . S
H68 C11 0.930 . S
H69 C13 0.929 . S
H70 C14 0.930 . S
H71 C15 0.930 . S
H72 C18 0.930 . S
H73 C21 0.929 . S
H74 C26 0.929 . S
H75 C27 0.930 . S
H76 C34 0.929 . S
H77 C35 0.930 . S
H78 C36 0.930 . S
H79 C37 0.930 . S
H80 C39 0.929 . S
H81 C40 0.930 . S
H82 C41 0.930 . S
H83 C42 0.930 . S
H84 C46 0.929 . S
H85 C48 0.930 . S
H86 C54 0.929 . S
H87 C55 0.930 . S
Li88 N105 1.990 . S
Li88 O148 1.956 . S
Li88 O149 1.970 . S
Li88 O150 1.961 . S
Li89 N113 1.990 . S
Li89 O148 1.970 . S
Li89 O149 1.956 . S
Li89 O151 1.961 . S
Li90 N135 1.990 . S
Li90 O148 1.961 . S
Li90 O150 1.956 . S
Li90 O151 1.970 . S
Li91 N141 1.990 . S
Li91 O149 1.961 . S
Li91 O150 1.970 . S
Li91 O151 1.956 . S
C92 C94 1.348 . S
C92 C95 1.356 . S
C92 O148 1.325 . S
N93 C96 1.314 . S
N93 C97 1.279 . S
C94 C92 1.348 . S
C94 C96 1.353 . S
C94 H152 0.929 . S
C95 C92 1.356 . S
C95 C97 1.358 . S
C95 H153 0.930 . S
C96 N93 1.314 . S
C96 C94 1.353 . S
C96 H154 0.930 . S
C97 N93 1.279 . S
C97 C95 1.358 . S
C97 H155 0.930 . S
C98 C101 1.348 . S
C98 C102 1.356 . S
C98 O149 1.325 . S
C99 N100 1.279 . S
C99 C102 1.358 . S
C99 H156 0.930 . S
N100 C99 1.279 . S
N100 C103 1.314 . S
C101 C98 1.348 . S
C101 C103 1.353 . S
C101 H157 0.929 . S
C102 C98 1.356 . S
C102 C99 1.358 . S
C102 H158 0.930 . S
C103 N100 1.314 . S
C103 C101 1.353 . S
C103 H159 0.930 . S
C104 N105 1.314 . S
C104 C109 1.353 . S
C104 H110 0.930 . S
N105 Li88 1.990 . S
N105 C104 1.314 . S
N105 C107 1.279 . S
C106 C107 1.358 . S
C106 C108 1.356 . S
C106 H160 0.930 . S
C107 N105 1.279 . S
C107 C106 1.358 . S
C107 H111 0.930 . S
C108 C106 1.356 . S
C108 C109 1.348 . S
C109 C104 1.353 . S
C109 C108 1.348 . S
C109 H161 0.929 . S
H110 C104 0.930 . S
H111 C107 0.930 . S
C112 N113 1.314 . S
C112 C114 1.353 . S
C112 H118 0.930 . S
N113 Li89 1.990 . S
N113 C112 1.314 . S
N113 C116 1.279 . S
C114 C112 1.353 . S
C114 C117 1.348 . S
C114 H162 0.929 . S
C115 C116 1.358 . S
C115 C117 1.356 . S
C115 H163 0.930 . S
C116 N113 1.279 . S
C116 C115 1.358 . S
C116 H119 0.930 . S
C117 C114 1.348 . S
C117 C115 1.356 . S
H118 C112 0.930 . S
H119 C116 0.930 . S
C120 C122 1.348 . S
C120 C123 1.356 . S
C120 O150 1.325 . S
N121 C124 1.314 . S
N121 C125 1.279 . S
C122 C120 1.348 . S
C122 C124 1.353 . S
C122 H164 0.929 . S
C123 C120 1.356 . S
C123 C125 1.358 . S
C123 H165 0.930 . S
C124 N121 1.314 . S
C124 C122 1.353 . S
C124 H166 0.930 . S
C125 N121 1.279 . S
C125 C123 1.358 . S
C125 H167 0.930 . S
C126 C127 1.348 . S
C126 C128 1.356 . S
C126 O151 1.325 . S
C127 C126 1.348 . S
C127 C129 1.353 . S
C127 H168 0.929 . S
C128 C126 1.356 . S
C128 C130 1.358 . S
C128 H169 0.930 . S
C129 C127 1.353 . S
C129 N131 1.314 . S
C129 H170 0.930 . S
C130 C128 1.358 . S
C130 N131 1.279 . S
C130 H171 0.930 . S
N131 C129 1.314 . S
N131 C130 1.279 . S
C132 C134 1.353 . S
C132 N135 1.314 . S
C132 H138 0.930 . S
C133 N135 1.279 . S
C133 C136 1.358 . S
C133 H139 0.930 . S
C134 C132 1.353 . S
C134 C137 1.348 . S
C134 H172 0.929 . S
N135 Li90 1.990 . S
N135 C132 1.314 . S
N135 C133 1.279 . S
C136 C133 1.358 . S
C136 C137 1.356 . S
C136 H173 0.930 . S
C137 C134 1.348 . S
C137 C136 1.356 . S
H138 C132 0.930 . S
H139 C133 0.930 . S
C140 N141 1.314 . S
C140 C142 1.353 . S
C140 H146 0.930 . S
N141 Li91 1.990 . S
N141 C140 1.314 . S
N141 C144 1.279 . S
C142 C140 1.353 . S
C142 C145 1.348 . S
C142 H174 0.929 . S
C143 C144 1.358 . S
C143 C145 1.356 . S
C143 H175 0.930 . S
C144 N141 1.279 . S
C144 C143 1.358 . S
C144 H147 0.930 . S
C145 C142 1.348 . S
C145 C143 1.356 . S
H146 C140 0.930 . S
H147 C144 0.930 . S
O148 Li88 1.956 . S
O148 Li89 1.970 . S
O148 Li90 1.961 . S
O148 C92 1.325 . S
O149 Li88 1.970 . S
O149 Li89 1.956 . S
O149 Li91 1.961 . S
O149 C98 1.325 . S
O150 Li88 1.961 . S
O150 Li90 1.956 . S
O150 Li91 1.970 . S
O150 C120 1.325 . S
O151 Li89 1.961 . S
O151 Li90 1.970 . S
O151 Li91 1.956 . S
O151 C126 1.325 . S
H152 C94 0.929 . S
H153 C95 0.930 . S
H154 C96 0.930 . S
H155 C97 0.930 . S
H156 C99 0.930 . S
H157 C101 0.929 . S
H158 C102 0.930 . S
H159 C103 0.930 . S
H160 C106 0.930 . S
H161 C109 0.929 . S
H162 C114 0.929 . S
H163 C115 0.930 . S
H164 C122 0.929 . S
H165 C123 0.930 . S
H166 C124 0.930 . S
H167 C125 0.930 . S
H168 C127 0.929 . S
H169 C128 0.930 . S
H170 C129 0.930 . S
H171 C130 0.930 . S
H172 C134 0.929 . S
H173 C136 0.930 . S
H174 C142 0.929 . S
H175 C143 0.930 . S
Li176 N193 1.990 . S
Li176 O236 1.956 . S
Li176 O237 1.970 . S
Li176 O238 1.961 . S
Li177 N201 1.990 . S
Li177 O236 1.970 . S
Li177 O237 1.956 . S
Li177 O239 1.961 . S
Li178 N223 1.990 . S
Li178 O236 1.961 . S
Li178 O238 1.956 . S
Li178 O239 1.970 . S
Li179 N229 1.990 . S
Li179 O237 1.961 . S
Li179 O238 1.970 . S
Li179 O239 1.956 . S
C180 C182 1.348 . S
C180 C183 1.356 . S
C180 O236 1.325 . S
N181 C184 1.314 . S
N181 C185 1.279 . S
C182 C180 1.348 . S
C182 C184 1.353 . S
C182 H240 0.929 . S
C183 C180 1.356 . S
C183 C185 1.358 . S
C183 H241 0.930 . S
C184 N181 1.314 . S
C184 C182 1.353 . S
C184 H242 0.930 . S
C185 N181 1.279 . S
C185 C183 1.358 . S
C185 H243 0.930 . S
C186 C189 1.348 . S
C186 C190 1.356 . S
C186 O237 1.325 . S
C187 N188 1.279 . S
C187 C190 1.358 . S
C187 H244 0.930 . S
N188 C187 1.279 . S
N188 C191 1.314 . S
C189 C186 1.348 . S
C189 C191 1.353 . S
C189 H245 0.929 . S
C190 C186 1.356 . S
C190 C187 1.358 . S
C190 H246 0.930 . S
C191 N188 1.314 . S
C191 C189 1.353 . S
C191 H247 0.930 . S
C192 N193 1.314 . S
C192 C197 1.353 . S
C192 H198 0.930 . S
N193 Li176 1.990 . S
N193 C192 1.314 . S
N193 C195 1.279 . S
C194 C195 1.358 . S
C194 C196 1.356 . S
C194 H248 0.930 . S
C195 N193 1.279 . S
C195 C194 1.358 . S
C195 H199 0.930 . S
C196 C194 1.356 . S
C196 C197 1.348 . S
C197 C192 1.353 . S
C197 C196 1.348 . S
C197 H249 0.929 . S
H198 C192 0.930 . S
H199 C195 0.930 . S
C200 N201 1.314 . S
C200 C202 1.353 . S
C200 H206 0.930 . S
N201 Li177 1.990 . S
N201 C200 1.314 . S
N201 C204 1.279 . S
C202 C200 1.353 . S
C202 C205 1.348 . S
C202 H250 0.929 . S
C203 C204 1.358 . S
C203 C205 1.356 . S
C203 H251 0.930 . S
C204 N201 1.279 . S
C204 C203 1.358 . S
C204 H207 0.930 . S
C205 C202 1.348 . S
C205 C203 1.356 . S
H206 C200 0.930 . S
H207 C204 0.930 . S
C208 C210 1.348 . S
C208 C211 1.356 . S
C208 O238 1.325 . S
N209 C212 1.314 . S
N209 C213 1.279 . S
C210 C208 1.348 . S
C210 C212 1.353 . S
C210 H252 0.929 . S
C211 C208 1.356 . S
C211 C213 1.358 . S
C211 H253 0.930 . S
C212 N209 1.314 . S
C212 C210 1.353 . S
C212 H254 0.930 . S
C213 N209 1.279 . S
C213 C211 1.358 . S
C213 H255 0.930 . S
C214 C215 1.348 . S
C214 C216 1.356 . S
C214 O239 1.325 . S
C215 C214 1.348 . S
C215 C217 1.353 . S
C215 H256 0.929 . S
C216 C214 1.356 . S
C216 C218 1.358 . S
C216 H257 0.930 . S
C217 C215 1.353 . S
C217 N219 1.314 . S
C217 H258 0.930 . S
C218 C216 1.358 . S
C218 N219 1.279 . S
C218 H259 0.930 . S
N219 C217 1.314 . S
N219 C218 1.279 . S
C220 C222 1.353 . S
C220 N223 1.314 . S
C220 H226 0.930 . S
C221 N223 1.279 . S
C221 C224 1.358 . S
C221 H227 0.930 . S
C222 C220 1.353 . S
C222 C225 1.348 . S
C222 H260 0.929 . S
N223 Li178 1.990 . S
N223 C220 1.314 . S
N223 C221 1.279 . S
C224 C221 1.358 . S
C224 C225 1.356 . S
C224 H261 0.930 . S
C225 C222 1.348 . S
C225 C224 1.356 . S
H226 C220 0.930 . S
H227 C221 0.930 . S
C228 N229 1.314 . S
C228 C230 1.353 . S
C228 H234 0.930 . S
N229 Li179 1.990 . S
N229 C228 1.314 . S
N229 C232 1.279 . S
C230 C228 1.353 . S
C230 C233 1.348 . S
C230 H262 0.929 . S
C231 C232 1.358 . S
C231 C233 1.356 . S
C231 H263 0.930 . S
C232 N229 1.279 . S
C232 C231 1.358 . S
C232 H235 0.930 . S
C233 C230 1.348 . S
C233 C231 1.356 . S
H234 C228 0.930 . S
H235 C232 0.930 . S
O236 Li176 1.956 . S
O236 Li177 1.970 . S
O236 Li178 1.961 . S
O236 C180 1.325 . S
O237 Li176 1.970 . S
O237 Li177 1.956 . S
O237 Li179 1.961 . S
O237 C186 1.325 . S
O238 Li176 1.961 . S
O238 Li178 1.956 . S
O238 Li179 1.970 . S
O238 C208 1.325 . S
O239 Li177 1.961 . S
O239 Li178 1.970 . S
O239 Li179 1.956 . S
O239 C214 1.325 . S
H240 C182 0.929 . S
H241 C183 0.930 . S
H242 C184 0.930 . S
H243 C185 0.930 . S
H244 C187 0.930 . S
H245 C189 0.929 . S
H246 C190 0.930 . S
H247 C191 0.930 . S
H248 C194 0.930 . S
H249 C197 0.929 . S
H250 C202 0.929 . S
H251 C203 0.930 . S
H252 C210 0.929 . S
H253 C211 0.930 . S
H254 C212 0.930 . S
H255 C213 0.930 . S
H256 C215 0.929 . S
H257 C216 0.930 . S
H258 C217 0.930 . S
H259 C218 0.930 . S
H260 C222 0.929 . S
H261 C224 0.930 . S
H262 C230 0.929 . S
H263 C231 0.930 . S
Li264 N281 1.990 . S
Li264 O324 1.956 . S
Li264 O325 1.970 . S
Li264 O326 1.964 . S
Li265 N289 1.990 . S
Li265 O324 1.970 . S
Li265 O325 1.956 . S
Li265 O327 1.961 . S
Li266 N311 1.990 . S
Li266 O324 1.961 . S
Li266 O326 1.959 . S
Li266 O327 1.970 . S
Li267 N317 1.981 1_554 S
Li267 O325 1.967 . S
Li267 O326 1.970 . S
Li267 O327 1.964 . S
C268 C270 1.348 . S
C268 C271 1.356 . S
C268 O324 1.325 . S
N269 C272 1.314 . S
N269 C273 1.279 . S
C270 C268 1.348 . S
C270 C272 1.353 . S
C270 H328 0.929 . S
C271 C268 1.356 . S
C271 C273 1.358 . S
C271 H329 0.930 . S
C272 N269 1.314 . S
C272 C270 1.353 . S
C272 H330 0.930 . S
C273 N269 1.279 . S
C273 C271 1.358 . S
C273 H331 0.930 . S
C274 C277 1.348 . S
C274 C278 1.356 . S
C274 O325 1.325 . S
C275 N276 1.279 . S
C275 C278 1.358 . S
C275 H332 0.930 . S
N276 C275 1.279 . S
N276 C279 1.314 . S
C277 C274 1.348 . S
C277 C279 1.353 . S
C277 H333 0.929 . S
C278 C274 1.356 . S
C278 C275 1.358 . S
C278 H334 0.930 . S
C279 N276 1.314 . S
C279 C277 1.353 . S
C279 H335 0.930 . S
C280 N281 1.314 . S
C280 C285 1.354 . S
C280 H286 0.930 1_554 S
N281 Li264 1.990 . S
N281 C280 1.314 . S
N281 C283 1.279 . S
C282 C283 1.358 . S
C282 C284 1.356 . S
C282 H336 0.930 . S
C283 N281 1.279 . S
C283 C282 1.358 . S
C283 H287 0.930 . S
C284 C282 1.356 . S
C284 C285 1.351 . S
C285 C280 1.354 . S
C285 C284 1.351 . S
C285 H337 0.926 1_554 S
H286 C280 0.930 1_556 S
H287 C283 0.930 . S
C288 N289 1.314 . S
C288 C290 1.353 . S
C288 H294 0.930 . S
N289 Li265 1.990 . S
N289 C288 1.314 . S
N289 C292 1.279 . S
C290 C288 1.353 . S
C290 C293 1.348 . S
C290 H338 0.929 . S
C291 C292 1.358 . S
C291 C293 1.356 . S
C291 H339 0.930 . S
C292 N289 1.279 . S
C292 C291 1.358 . S
C292 H295 0.930 . S
C293 C290 1.348 . S
C293 C291 1.356 . S
H294 C288 0.930 . S
H295 C292 0.930 . S
C296 C298 1.348 . S
C296 C299 1.356 . S
C296 O326 1.322 1_556 S
N297 C300 1.314 . S
N297 C301 1.279 . S
C298 C296 1.348 . S
C298 C300 1.353 . S
C298 H340 0.929 . S
C299 C296 1.356 . S
C299 C301 1.358 . S
C299 H341 0.928 . S
C300 N297 1.314 . S
C300 C298 1.353 . S
C300 H342 0.930 . S
C301 N297 1.279 . S
C301 C299 1.358 . S
C301 H343 0.930 . S
C302 C303 1.348 . S
C302 C304 1.356 . S
C302 O327 1.325 . S
C303 C302 1.348 . S
C303 C305 1.353 . S
C303 H344 0.929 . S
C304 C302 1.356 . S
C304 C306 1.358 . S
C304 H345 0.930 . S
C305 C303 1.353 . S
C305 N307 1.314 . S
C305 H346 0.930 . S
C306 C304 1.358 . S
C306 N307 1.279 . S
C306 H347 0.930 . S
N307 C305 1.314 . S
N307 C306 1.279 . S
C308 C310 1.353 . S
C308 N311 1.314 . S
C308 H314 0.930 . S
C309 N311 1.279 . S
C309 C312 1.358 . S
C309 H315 0.930 . S
C310 C308 1.353 . S
C310 C313 1.348 . S
C310 H348 0.929 . S
N311 Li266 1.990 . S
N311 C308 1.314 . S
N311 C309 1.279 . S
C312 C309 1.358 . S
C312 C313 1.356 . S
C312 H349 0.930 . S
C313 C310 1.348 . S
C313 C312 1.356 . S
H314 C308 0.930 . S
H315 C309 0.930 . S
C316 N317 1.314 . S
C316 C318 1.353 . S
C316 H322 0.930 . S
N317 Li267 1.981 1_556 S
N317 C316 1.314 . S
N317 C320 1.279 . S
C318 C316 1.353 . S
C318 C321 1.348 . S
C318 H350 0.929 . S
C319 C320 1.358 . S
C319 C321 1.356 . S
C319 H351 0.930 . S
C320 N317 1.279 . S
C320 C319 1.358 . S
C320 H323 0.930 . S
C321 C318 1.348 . S
C321 C319 1.356 . S
H322 C316 0.930 . S
H323 C320 0.930 . S
O324 Li264 1.956 . S
O324 Li265 1.970 . S
O324 Li266 1.961 . S
O324 C268 1.325 . S
O325 Li264 1.970 . S
O325 Li265 1.956 . S
O325 Li267 1.967 . S
O325 C274 1.325 . S
O326 Li264 1.964 . S
O326 Li266 1.959 . S
O326 Li267 1.970 . S
O326 C296 1.322 1_554 S
O327 Li265 1.961 . S
O327 Li266 1.970 . S
O327 Li267 1.964 . S
O327 C302 1.325 . S
H328 C270 0.929 . S
H329 C271 0.930 . S
H330 C272 0.930 . S
H331 C273 0.930 . S
H332 C275 0.930 . S
H333 C277 0.929 . S
H334 C278 0.930 . S
H335 C279 0.930 . S
H336 C282 0.930 . S
H337 C285 0.926 1_556 S
H338 C290 0.929 . S
H339 C291 0.930 . S
H340 C298 0.929 . S
H341 C299 0.928 . S
H342 C300 0.930 . S
H343 C301 0.930 . S
H344 C303 0.929 . S
H345 C304 0.930 . S
H346 C305 0.930 . S
H347 C306 0.930 . S
H348 C310 0.929 . S
H349 C312 0.930 . S
H350 C318 0.929 . S
H351 C319 0.930 . S
Li352 N369 1.990 . S
Li352 O412 1.956 . S
Li352 O413 1.970 . S
Li352 O414 1.961 . S
Li353 N377 1.990 . S
Li353 O412 1.970 . S
Li353 O413 1.956 . S
Li353 O415 1.961 . S
Li354 N399 1.990 . S
Li354 O412 1.961 . S
Li354 O414 1.956 . S
Li354 O415 1.970 . S
Li355 N405 1.990 . S
Li355 O413 1.961 . S
Li355 O414 1.970 . S
Li355 O415 1.956 . S
C356 C358 1.348 . S
C356 C359 1.356 . S
C356 O412 1.325 . S
N357 C360 1.314 . S
N357 C361 1.279 . S
C358 C356 1.348 . S
C358 C360 1.353 . S
C358 H416 0.929 . S
C359 C356 1.356 . S
C359 C361 1.358 . S
C359 H417 0.930 . S
C360 N357 1.314 . S
C360 C358 1.353 . S
C360 H418 0.930 . S
C361 N357 1.279 . S
C361 C359 1.358 . S
C361 H419 0.930 . S
C362 C365 1.348 . S
C362 C366 1.356 . S
C362 O413 1.325 . S
C363 N364 1.279 . S
C363 C366 1.358 . S
C363 H420 0.930 . S
N364 C363 1.279 . S
N364 C367 1.314 . S
C365 C362 1.348 . S
C365 C367 1.353 . S
C365 H421 0.929 . S
C366 C362 1.356 . S
C366 C363 1.358 . S
C366 H422 0.930 . S
C367 N364 1.314 . S
C367 C365 1.353 . S
C367 H423 0.930 . S
C368 N369 1.314 . S
C368 C373 1.353 . S
C368 H374 0.930 . S
N369 Li352 1.990 . S
N369 C368 1.314 . S
N369 C371 1.279 . S
C370 C371 1.358 . S
C370 C372 1.356 . S
C370 H424 0.930 . S
C371 N369 1.279 . S
C371 C370 1.358 . S
C371 H375 0.930 . S
C372 C370 1.356 . S
C372 C373 1.348 . S
C373 C368 1.353 . S
C373 C372 1.348 . S
C373 H425 0.929 . S
H374 C368 0.930 . S
H375 C371 0.930 . S
C376 N377 1.314 . S
C376 C378 1.353 . S
C376 H382 0.930 . S
N377 Li353 1.990 . S
N377 C376 1.314 . S
N377 C380 1.279 . S
C378 C376 1.353 . S
C378 C381 1.348 . S
C378 H426 0.929 . S
C379 C380 1.358 . S
C379 C381 1.356 . S
C379 H427 0.930 . S
C380 N377 1.279 . S
C380 C379 1.358 . S
C380 H383 0.930 . S
C381 C378 1.348 . S
C381 C379 1.356 . S
H382 C376 0.930 . S
H383 C380 0.930 . S
C384 C386 1.348 . S
C384 C387 1.356 . S
C384 O414 1.325 . S
N385 C388 1.314 . S
N385 C389 1.279 . S
C386 C384 1.348 . S
C386 C388 1.353 . S
C386 H428 0.929 . S
C387 C384 1.356 . S
C387 C389 1.358 . S
C387 H429 0.930 . S
C388 N385 1.314 . S
C388 C386 1.353 . S
C388 H430 0.930 . S
C389 N385 1.279 . S
C389 C387 1.358 . S
C389 H431 0.930 . S
C390 C391 1.348 . S
C390 C392 1.356 . S
C390 O415 1.325 . S
C391 C390 1.348 . S
C391 C393 1.353 . S
C391 H432 0.929 . S
C392 C390 1.356 . S
C392 C394 1.358 . S
C392 H433 0.930 . S
C393 C391 1.353 . S
C393 N395 1.314 . S
C393 H434 0.930 . S
C394 C392 1.358 . S
C394 N395 1.279 . S
C394 H435 0.930 . S
N395 C393 1.314 . S
N395 C394 1.279 . S
C396 C398 1.353 . S
C396 N399 1.314 . S
C396 H402 0.930 . S
C397 N399 1.279 . S
C397 C400 1.358 . S
C397 H403 0.930 . S
C398 C396 1.353 . S
C398 C401 1.348 . S
C398 H436 0.929 . S
N399 Li354 1.990 . S
N399 C396 1.314 . S
N399 C397 1.279 . S
C400 C397 1.358 . S
C400 C401 1.356 . S
C400 H437 0.930 . S
C401 C398 1.348 . S
C401 C400 1.356 . S
H402 C396 0.930 . S
H403 C397 0.930 . S
C404 N405 1.314 . S
C404 C406 1.353 . S
C404 H410 0.930 . S
N405 Li355 1.990 . S
N405 C404 1.314 . S
N405 C408 1.279 . S
C406 C404 1.353 . S
C406 C409 1.348 . S
C406 H438 0.929 . S
C407 C408 1.358 . S
C407 C409 1.356 . S
C407 H439 0.930 . S
C408 N405 1.279 . S
C408 C407 1.358 . S
C408 H411 0.930 . S
C409 C406 1.348 . S
C409 C407 1.356 . S
H410 C404 0.930 . S
H411 C408 0.930 . S
O412 Li352 1.956 . S
O412 Li353 1.970 . S
O412 Li354 1.961 . S
O412 C356 1.325 . S
O413 Li352 1.970 . S
O413 Li353 1.956 . S
O413 Li355 1.961 . S
O413 C362 1.325 . S
O414 Li352 1.961 . S
O414 Li354 1.956 . S
O414 Li355 1.970 . S
O414 C384 1.325 . S
O415 Li353 1.961 . S
O415 Li354 1.970 . S
O415 Li355 1.956 . S
O415 C390 1.325 . S
H416 C358 0.929 . S
H417 C359 0.930 . S
H418 C360 0.930 . S
H419 C361 0.930 . S
H420 C363 0.930 . S
H421 C365 0.929 . S
H422 C366 0.930 . S
H423 C367 0.930 . S
H424 C370 0.930 . S
H425 C373 0.929 . S
H426 C378 0.929 . S
H427 C379 0.930 . S
H428 C386 0.929 . S
H429 C387 0.930 . S
H430 C388 0.930 . S
H431 C389 0.930 . S
H432 C391 0.929 . S
H433 C392 0.930 . S
H434 C393 0.930 . S
H435 C394 0.930 . S
H436 C398 0.929 . S
H437 C400 0.930 . S
H438 C406 0.929 . S
H439 C407 0.930 . S
Li440 N457 1.990 . S
Li440 O500 1.956 . S
Li440 O501 1.970 . S
Li440 O502 1.961 . S
Li441 N465 1.990 . S
Li441 O500 1.970 . S
Li441 O501 1.956 . S
Li441 O503 1.961 . S
Li442 N487 1.990 . S
Li442 O500 1.961 . S
Li442 O502 1.956 . S
Li442 O503 1.970 . S
Li443 N493 1.990 . S
Li443 O501 1.961 . S
Li443 O502 1.970 . S
Li443 O503 1.956 . S
C444 C446 1.348 . S
C444 C447 1.356 . S
C444 O500 1.325 . S
N445 C448 1.314 . S
N445 C449 1.279 . S
C446 C444 1.348 . S
C446 C448 1.353 . S
C446 H504 0.929 . S
C447 C444 1.356 . S
C447 C449 1.358 . S
C447 H505 0.930 . S
C448 N445 1.314 . S
C448 C446 1.353 . S
C448 H506 0.930 . S
C449 N445 1.279 . S
C449 C447 1.358 . S
C449 H507 0.930 . S
C450 C453 1.348 . S
C450 C454 1.356 . S
C450 O501 1.325 . S
C451 N452 1.279 . S
C451 C454 1.358 . S
C451 H508 0.930 . S
N452 C451 1.279 . S
N452 C455 1.314 . S
C453 C450 1.348 . S
C453 C455 1.353 . S
C453 H509 0.929 . S
C454 C450 1.356 . S
C454 C451 1.358 . S
C454 H510 0.930 . S
C455 N452 1.314 . S
C455 C453 1.353 . S
C455 H511 0.930 . S
C456 N457 1.314 . S
C456 C461 1.353 . S
C456 H462 0.930 . S
N457 Li440 1.990 . S
N457 C456 1.314 . S
N457 C459 1.279 . S
C458 C459 1.358 . S
C458 C460 1.356 . S
C458 H512 0.930 . S
C459 N457 1.279 . S
C459 C458 1.358 . S
C459 H463 0.930 . S
C460 C458 1.356 . S
C460 C461 1.348 . S
C461 C456 1.353 . S
C461 C460 1.348 . S
C461 H513 0.929 . S
H462 C456 0.930 . S
H463 C459 0.930 . S
C464 N465 1.314 . S
C464 C466 1.353 . S
C464 H470 0.930 . S
N465 Li441 1.990 . S
N465 C464 1.314 . S
N465 C468 1.279 . S
C466 C464 1.353 . S
C466 C469 1.348 . S
C466 H514 0.929 . S
C467 C468 1.358 . S
C467 C469 1.356 . S
C467 H515 0.930 . S
C468 N465 1.279 . S
C468 C467 1.358 . S
C468 H471 0.930 . S
C469 C466 1.348 . S
C469 C467 1.356 . S
H470 C464 0.930 . S
H471 C468 0.930 . S
C472 C474 1.348 . S
C472 C475 1.356 . S
C472 O502 1.325 . S
N473 C476 1.314 . S
N473 C477 1.279 . S
C474 C472 1.348 . S
C474 C476 1.353 . S
C474 H516 0.929 . S
C475 C472 1.356 . S
C475 C477 1.358 . S
C475 H517 0.930 . S
C476 N473 1.314 . S
C476 C474 1.353 . S
C476 H518 0.930 . S
C477 N473 1.279 . S
C477 C475 1.358 . S
C477 H519 0.930 . S
C478 C479 1.348 . S
C478 C480 1.356 . S
C478 O503 1.325 . S
C479 C478 1.348 . S
C479 C481 1.353 . S
C479 H520 0.929 . S
C480 C478 1.356 . S
C480 C482 1.358 . S
C480 H521 0.930 . S
C481 C479 1.353 . S
C481 N483 1.314 . S
C481 H522 0.930 . S
C482 C480 1.358 . S
C482 N483 1.279 . S
C482 H523 0.930 . S
N483 C481 1.314 . S
N483 C482 1.279 . S
C484 C486 1.353 . S
C484 N487 1.314 . S
C484 H490 0.930 . S
C485 N487 1.279 . S
C485 C488 1.358 . S
C485 H491 0.930 . S
C486 C484 1.353 . S
C486 C489 1.348 . S
C486 H524 0.929 . S
N487 Li442 1.990 . S
N487 C484 1.314 . S
N487 C485 1.279 . S
C488 C485 1.358 . S
C488 C489 1.356 . S
C488 H525 0.930 . S
C489 C486 1.348 . S
C489 C488 1.356 . S
H490 C484 0.930 . S
H491 C485 0.930 . S
C492 N493 1.314 . S
C492 C494 1.353 . S
C492 H498 0.930 . S
N493 Li443 1.990 . S
N493 C492 1.314 . S
N493 C496 1.279 . S
C494 C492 1.353 . S
C494 C497 1.348 . S
C494 H526 0.929 . S
C495 C496 1.358 . S
C495 C497 1.356 . S
C495 H527 0.930 . S
C496 N493 1.279 . S
C496 C495 1.358 . S
C496 H499 0.930 . S
C497 C494 1.348 . S
C497 C495 1.356 . S
H498 C492 0.930 . S
H499 C496 0.930 . S
O500 Li440 1.956 . S
O500 Li441 1.970 . S
O500 Li442 1.961 . S
O500 C444 1.325 . S
O501 Li440 1.970 . S
O501 Li441 1.956 . S
O501 Li443 1.961 . S
O501 C450 1.325 . S
O502 Li440 1.961 . S
O502 Li442 1.956 . S
O502 Li443 1.970 . S
O502 C472 1.325 . S
O503 Li441 1.961 . S
O503 Li442 1.970 . S
O503 Li443 1.956 . S
O503 C478 1.325 . S
H504 C446 0.929 . S
H505 C447 0.930 . S
H506 C448 0.930 . S
H507 C449 0.930 . S
H508 C451 0.930 . S
H509 C453 0.929 . S
H510 C454 0.930 . S
H511 C455 0.930 . S
H512 C458 0.930 . S
H513 C461 0.929 . S
H514 C466 0.929 . S
H515 C467 0.930 . S
H516 C474 0.929 . S
H517 C475 0.930 . S
H518 C476 0.930 . S
H519 C477 0.930 . S
H520 C479 0.929 . S
H521 C480 0.930 . S
H522 C481 0.930 . S
H523 C482 0.930 . S
H524 C486 0.929 . S
H525 C488 0.930 . S
H526 C494 0.929 . S
H527 C495 0.930 . S
Li528 N545 1.990 . S
Li528 O588 1.956 . S
Li528 O589 1.970 . S
Li528 O590 1.961 . S
Li529 N553 1.990 . S
Li529 O588 1.970 . S
Li529 O589 1.956 . S
Li529 O591 1.961 . S
Li530 N575 1.990 . S
Li530 O588 1.961 . S
Li530 O590 1.956 . S
Li530 O591 1.970 . S
Li531 N581 1.990 . S
Li531 O589 1.961 . S
Li531 O590 1.970 . S
Li531 O591 1.956 . S
C532 C534 1.348 . S
C532 C535 1.356 . S
C532 O588 1.325 . S
N533 C536 1.314 . S
N533 C537 1.279 . S
C534 C532 1.348 . S
C534 C536 1.353 . S
C534 H592 0.929 . S
C535 C532 1.356 . S
C535 C537 1.358 . S
C535 H593 0.930 . S
C536 N533 1.314 . S
C536 C534 1.353 . S
C536 H594 0.930 . S
C537 N533 1.279 . S
C537 C535 1.358 . S
C537 H595 0.930 . S
C538 C541 1.348 . S
C538 C542 1.356 . S
C538 O589 1.325 . S
C539 N540 1.279 . S
C539 C542 1.358 . S
C539 H596 0.930 . S
N540 C539 1.279 . S
N540 C543 1.314 . S
C541 C538 1.348 . S
C541 C543 1.353 . S
C541 H597 0.929 . S
C542 C538 1.356 . S
C542 C539 1.358 . S
C542 H598 0.930 . S
C543 N540 1.314 . S
C543 C541 1.353 . S
C543 H599 0.930 . S
C544 N545 1.314 . S
C544 C549 1.353 . S
C544 H550 0.930 . S
N545 Li528 1.990 . S
N545 C544 1.314 . S
N545 C547 1.279 . S
C546 C547 1.358 . S
C546 C548 1.356 . S
C546 H600 0.930 . S
C547 N545 1.279 . S
C547 C546 1.358 . S
C547 H551 0.930 . S
C548 C546 1.356 . S
C548 C549 1.348 . S
C549 C544 1.353 . S
C549 C548 1.348 . S
C549 H601 0.929 . S
H550 C544 0.930 . S
H551 C547 0.930 . S
C552 N553 1.314 . S
C552 C554 1.353 . S
C552 H558 0.930 . S
N553 Li529 1.990 . S
N553 C552 1.314 . S
N553 C556 1.279 . S
C554 C552 1.353 . S
C554 C557 1.348 . S
C554 H602 0.929 . S
C555 C556 1.358 . S
C555 C557 1.356 . S
C555 H603 0.930 . S
C556 N553 1.279 . S
C556 C555 1.358 . S
C556 H559 0.930 . S
C557 C554 1.348 . S
C557 C555 1.356 . S
H558 C552 0.930 . S
H559 C556 0.930 . S
C560 C562 1.348 . S
C560 C563 1.356 . S
C560 O590 1.325 . S
N561 C564 1.314 . S
N561 C565 1.279 . S
C562 C560 1.348 . S
C562 C564 1.353 . S
C562 H604 0.929 . S
C563 C560 1.356 . S
C563 C565 1.358 . S
C563 H605 0.930 . S
C564 N561 1.314 . S
C564 C562 1.353 . S
C564 H606 0.930 . S
C565 N561 1.279 . S
C565 C563 1.358 . S
C565 H607 0.930 . S
C566 C567 1.348 . S
C566 C568 1.356 . S
C566 O591 1.325 . S
C567 C566 1.348 . S
C567 C569 1.353 . S
C567 H608 0.929 . S
C568 C566 1.356 . S
C568 C570 1.358 . S
C568 H609 0.930 . S
C569 C567 1.353 . S
C569 N571 1.314 . S
C569 H610 0.930 . S
C570 C568 1.358 . S
C570 N571 1.279 . S
C570 H611 0.930 . S
N571 C569 1.314 . S
N571 C570 1.279 . S
C572 C574 1.353 . S
C572 N575 1.314 . S
C572 H578 0.930 . S
C573 N575 1.279 . S
C573 C576 1.358 . S
C573 H579 0.930 . S
C574 C572 1.353 . S
C574 C577 1.348 . S
C574 H612 0.929 . S
N575 Li530 1.990 . S
N575 C572 1.314 . S
N575 C573 1.279 . S
C576 C573 1.358 . S
C576 C577 1.356 . S
C576 H613 0.930 . S
C577 C574 1.348 . S
C577 C576 1.356 . S
H578 C572 0.930 . S
H579 C573 0.930 . S
C580 N581 1.314 . S
C580 C582 1.353 . S
C580 H586 0.930 . S
N581 Li531 1.990 . S
N581 C580 1.314 . S
N581 C584 1.279 . S
C582 C580 1.353 . S
C582 C585 1.348 . S
C582 H614 0.929 . S
C583 C584 1.358 . S
C583 C585 1.356 . S
C583 H615 0.930 . S
C584 N581 1.279 . S
C584 C583 1.358 . S
C584 H587 0.930 . S
C585 C582 1.348 . S
C585 C583 1.356 . S
H586 C580 0.930 . S
H587 C584 0.930 . S
O588 Li528 1.956 . S
O588 Li529 1.970 . S
O588 Li530 1.961 . S
O588 C532 1.325 . S
O589 Li528 1.970 . S
O589 Li529 1.956 . S
O589 Li531 1.961 . S
O589 C538 1.325 . S
O590 Li528 1.961 . S
O590 Li530 1.956 . S
O590 Li531 1.970 . S
O590 C560 1.325 . S
O591 Li529 1.961 . S
O591 Li530 1.970 . S
O591 Li531 1.956 . S
O591 C566 1.325 . S
H592 C534 0.929 . S
H593 C535 0.930 . S
H594 C536 0.930 . S
H595 C537 0.930 . S
H596 C539 0.930 . S
H597 C541 0.929 . S
H598 C542 0.930 . S
H599 C543 0.930 . S
H600 C546 0.930 . S
H601 C549 0.929 . S
H602 C554 0.929 . S
H603 C555 0.930 . S
H604 C562 0.929 . S
H605 C563 0.930 . S
H606 C564 0.930 . S
H607 C565 0.930 . S
H608 C567 0.929 . S
H609 C568 0.930 . S
H610 C569 0.930 . S
H611 C570 0.930 . S
H612 C574 0.929 . S
H613 C576 0.930 . S
H614 C582 0.929 . S
H615 C583 0.930 . S
Li616 N633 1.990 . S
Li616 O676 1.956 . S
Li616 O677 1.970 . S
Li616 O678 1.961 1_554 S
Li617 N641 1.990 . S
Li617 O676 1.970 . S
Li617 O677 1.956 . S
Li617 O679 1.961 . S
Li618 N663 1.990 . S
Li618 O676 1.961 . S
Li618 O678 1.956 1_554 S
Li618 O679 1.970 . S
Li619 N669 1.990 . S
Li619 O677 1.961 1_556 S
Li619 O678 1.970 . S
Li619 O679 1.956 1_556 S
C620 C622 1.348 . S
C620 C623 1.356 . S
C620 O676 1.325 . S
N621 C624 1.314 . S
N621 C625 1.279 . S
C622 C620 1.348 . S
C622 C624 1.353 . S
C622 H680 0.929 . S
C623 C620 1.356 . S
C623 C625 1.358 . S
C623 H681 0.930 . S
C624 N621 1.314 . S
C624 C622 1.353 . S
C624 H682 0.930 . S
C625 N621 1.279 . S
C625 C623 1.358 . S
C625 H683 0.930 . S
C626 C629 1.348 . S
C626 C630 1.356 . S
C626 O677 1.325 . S
C627 N628 1.279 . S
C627 C630 1.358 . S
C627 H684 0.930 . S
N628 C627 1.279 . S
N628 C631 1.314 . S
C629 C626 1.348 . S
C629 C631 1.353 . S
C629 H685 0.929 . S
C630 C626 1.356 . S
C630 C627 1.358 . S
C630 H686 0.930 . S
C631 N628 1.314 . S
C631 C629 1.353 . S
C631 H687 0.930 . S
C632 N633 1.314 1_556 S
C632 C637 1.353 . S
C632 H638 0.930 . S
N633 Li616 1.990 . S
N633 C632 1.314 1_554 S
N633 C635 1.279 . S
C634 C635 1.358 . S
C634 C636 1.356 1_554 S
C634 H688 0.930 . S
C635 N633 1.279 . S
C635 C634 1.358 . S
C635 H639 0.930 . S
C636 C634 1.356 1_556 S
C636 C637 1.348 . S
C637 C632 1.353 . S
C637 C636 1.348 . S
C637 H689 0.929 . S
H638 C632 0.930 . S
H639 C635 0.930 . S
C640 N641 1.314 . S
C640 C642 1.353 . S
C640 H646 0.930 . S
N641 Li617 1.990 . S
N641 C640 1.314 . S
N641 C644 1.279 . S
C642 C640 1.353 . S
C642 C645 1.348 . S
C642 H690 0.929 . S
C643 C644 1.358 . S
C643 C645 1.356 . S
C643 H691 0.930 . S
C644 N641 1.279 . S
C644 C643 1.358 . S
C644 H647 0.930 . S
C645 C642 1.348 . S
C645 C643 1.356 . S
H646 C640 0.930 . S
H647 C644 0.930 . S
C648 C650 1.348 . S
C648 C651 1.356 . S
C648 O678 1.325 . S
N649 C652 1.314 . S
N649 C653 1.279 . S
C650 C648 1.348 . S
C650 C652 1.353 . S
C650 H692 0.929 . S
C651 C648 1.356 . S
C651 C653 1.358 . S
C651 H693 0.930 . S
C652 N649 1.314 . S
C652 C650 1.353 . S
C652 H694 0.930 . S
C653 N649 1.279 . S
C653 C651 1.358 . S
C653 H695 0.930 . S
C654 C655 1.348 . S
C654 C656 1.356 . S
C654 O679 1.325 . S
C655 C654 1.348 . S
C655 C657 1.353 . S
C655 H696 0.929 . S
C656 C654 1.356 . S
C656 C658 1.358 . S
C656 H697 0.930 . S
C657 C655 1.353 . S
C657 N659 1.314 . S
C657 H698 0.930 . S
C658 C656 1.358 . S
C658 N659 1.279 . S
C658 H699 0.930 . S
N659 C657 1.314 . S
N659 C658 1.279 . S
C660 C662 1.353 . S
C660 N663 1.314 . S
C660 H666 0.930 . S
C661 N663 1.279 1_556 S
C661 C664 1.358 . S
C661 H667 0.930 . S
C662 C660 1.353 . S
C662 C665 1.348 . S
C662 H700 0.929 . S
N663 Li618 1.990 . S
N663 C660 1.314 . S
N663 C661 1.279 1_554 S
C664 C661 1.358 . S
C664 C665 1.356 1_556 S
C664 H701 0.930 . S
C665 C662 1.348 . S
C665 C664 1.356 1_554 S
H666 C660 0.930 . S
H667 C661 0.930 . S
C668 N669 1.314 . S
C668 C670 1.353 . S
C668 H674 0.930 . S
N669 Li619 1.990 . S
N669 C668 1.314 . S
N669 C672 1.279 . S
C670 C668 1.353 . S
C670 C673 1.348 . S
C670 H702 0.929 . S
C671 C672 1.358 . S
C671 C673 1.356 . S
C671 H703 0.930 . S
C672 N669 1.279 . S
C672 C671 1.358 . S
C672 H675 0.930 . S
C673 C670 1.348 . S
C673 C671 1.356 . S
H674 C668 0.930 . S
H675 C672 0.930 . S
O676 Li616 1.956 . S
O676 Li617 1.970 . S
O676 Li618 1.961 . S
O676 C620 1.325 . S
O677 Li616 1.970 . S
O677 Li617 1.956 . S
O677 Li619 1.961 1_554 S
O677 C626 1.325 . S
O678 Li616 1.961 1_556 S
O678 Li618 1.956 1_556 S
O678 Li619 1.970 . S
O678 C648 1.325 . S
O679 Li617 1.961 . S
O679 Li618 1.970 . S
O679 Li619 1.956 1_554 S
O679 C654 1.325 . S
H680 C622 0.929 . S
H681 C623 0.930 . S
H682 C624 0.930 . S
H683 C625 0.930 . S
H684 C627 0.930 . S
H685 C629 0.929 . S
H686 C630 0.930 . S
H687 C631 0.930 . S
H688 C634 0.930 . S
H689 C637 0.929 . S
H690 C642 0.929 . S
H691 C643 0.930 . S
H692 C650 0.929 . S
H693 C651 0.930 . S
H694 C652 0.930 . S
H695 C653 0.930 . S
H696 C655 0.929 . S
H697 C656 0.930 . S
H698 C657 0.930 . S
H699 C658 0.930 . S
H700 C662 0.929 . S
H701 C664 0.930 . S
H702 C670 0.929 . S
H703 C671 0.930 . S
H704 C712 0.929 . S
H705 C714 0.930 . S
H706 C716 0.930 . S
H707 C719 0.929 . S
H708 C722 0.930 . S
H709 C724 0.960 . S
H710 C724 0.960 . S
H711 C724 0.960 . S
C712 H704 0.929 . S
C712 C713 1.377 . S
C712 C714 1.384 . S
C713 C712 1.377 . S
C713 C719 1.390 . S
C714 H705 0.930 . S
C714 C712 1.384 . S
C714 C715 1.372 . S
C715 C714 1.372 . S
C715 C716 1.400 . S
C715 C720 1.490 . S
C716 H706 0.930 . S
C716 C715 1.400 . S
C716 C719 1.386 . S
H717 C733 0.930 . S
H718 C734 0.931 . S
C719 H707 0.929 . S
C719 C713 1.390 . S
C719 C716 1.386 . S
C720 C715 1.490 . S
C720 C722 1.395 . S
C720 C723 1.403 . S
H721 C727 0.930 . S
C722 H708 0.930 . S
C722 C720 1.395 . S
C722 C725 1.403 . S
C723 C720 1.403 . S
C723 C724 1.524 . S
C723 C727 1.400 . S
C724 H709 0.960 . S
C724 H710 0.960 . S
C724 H711 0.960 . S
C724 C723 1.524 . S
C725 C722 1.403 . S
C725 C726 1.392 . S
C725 C729 1.495 . S
C726 C725 1.392 . S
C726 C727 1.385 . S
C726 C728 1.478 . S
C727 H721 0.930 . S
C727 C723 1.400 . S
C727 C726 1.385 . S
C728 C726 1.478 . S
C728 C730 1.381 . S
C728 C734 1.383 . S
C729 C725 1.495 . S
C729 H735 0.959 . S
C729 H736 0.961 . S
C729 H737 0.960 . S
C730 C728 1.381 . S
C730 C731 1.394 . S
C730 H738 0.930 . S
C731 C730 1.394 . S
C731 C732 1.383 . S
C731 H739 0.929 . S
C732 C731 1.383 . S
C732 C733 1.377 . S
C733 H717 0.930 . S
C733 C732 1.377 . S
C733 C734 1.379 . S
C734 H718 0.931 . S
C734 C728 1.383 . S
C734 C733 1.379 . S
H735 C729 0.959 . S
H736 C729 0.961 . S
H737 C729 0.960 . S
H738 C730 0.930 . S
H739 C731 0.929 . S
H740 C748 0.929 . S
H741 C750 0.930 . S
H742 C752 0.930 . S
H743 C755 0.929 . S
H744 C758 0.930 . S
H745 C760 0.960 . S
H746 C760 0.960 . S
H747 C760 0.960 . S
C748 H740 0.929 . S
C748 C749 1.377 . S
C748 C750 1.384 . S
C749 C748 1.377 . S
C749 C755 1.390 . S
C750 H741 0.930 . S
C750 C748 1.384 . S
C750 C751 1.372 . S
C751 C750 1.372 . S
C751 C752 1.400 . S
C751 C756 1.490 . S
C752 H742 0.930 . S
C752 C751 1.400 . S
C752 C755 1.386 . S
H753 C769 0.930 . S
H754 C770 0.931 . S
C755 H743 0.929 . S
C755 C749 1.390 . S
C755 C752 1.386 . S
C756 C751 1.490 . S
C756 C758 1.395 . S
C756 C759 1.403 . S
H757 C763 0.930 . S
C758 H744 0.930 . S
C758 C756 1.395 . S
C758 C761 1.403 . S
C759 C756 1.403 . S
C759 C760 1.524 . S
C759 C763 1.400 . S
C760 H745 0.960 . S
C760 H746 0.960 . S
C760 H747 0.960 . S
C760 C759 1.524 . S
C761 C758 1.403 . S
C761 C762 1.392 . S
C761 C765 1.495 . S
C762 C761 1.392 . S
C762 C763 1.385 . S
C762 C764 1.478 . S
C763 H757 0.930 . S
C763 C759 1.400 . S
C763 C762 1.385 . S
C764 C762 1.478 . S
C764 C766 1.381 . S
C764 C770 1.383 . S
C765 C761 1.495 . S
C765 H771 0.959 . S
C765 H772 0.961 . S
C765 H773 0.960 . S
C766 C764 1.381 . S
C766 C767 1.394 . S
C766 H774 0.930 . S
C767 C766 1.394 . S
C767 C768 1.383 . S
C767 H775 0.929 . S
C768 C767 1.383 . S
C768 C769 1.377 . S
C769 H753 0.930 . S
C769 C768 1.377 . S
C769 C770 1.379 . S
C770 H754 0.931 . S
C770 C764 1.383 . S
C770 C769 1.379 . S
H771 C765 0.959 . S
H772 C765 0.961 . S
H773 C765 0.960 . S
H774 C766 0.930 . S
H775 C767 0.929 . S
H776 C784 0.929 . S
H777 C786 0.930 . S
H778 C788 0.930 . S
H779 C791 0.929 . S
H780 C794 0.930 . S
H781 C796 0.949 1_556 S
H782 C796 0.960 . S
H783 C796 0.960 . S
C784 H776 0.929 . S
C784 C785 1.377 . S
C784 C786 1.384 . S
C785 C784 1.377 . S
C785 C791 1.390 . S
C786 H777 0.930 . S
C786 C784 1.384 . S
C786 C787 1.372 . S
C787 C786 1.372 . S
C787 C788 1.400 . S
C787 C792 1.490 . S
C788 H778 0.930 . S
C788 C787 1.400 . S
C788 C791 1.386 . S
H789 C805 0.930 . S
H790 C806 0.931 . S
C791 H779 0.929 . S
C791 C785 1.390 . S
C791 C788 1.386 . S
C792 C787 1.490 . S
C792 C794 1.395 . S
C792 C795 1.403 . S
H793 C799 0.930 . S
C794 H780 0.930 . S
C794 C792 1.395 . S
C794 C797 1.403 . S
C795 C792 1.403 . S
C795 C796 1.524 . S
C795 C799 1.400 1_554 S
C796 H781 0.949 1_554 S
C796 H782 0.960 . S
C796 H783 0.960 . S
C796 C795 1.524 . S
C797 C794 1.403 . S
C797 C798 1.392 1_554 S
C797 C801 1.495 . S
C798 C797 1.392 1_556 S
C798 C799 1.385 . S
C798 C800 1.478 . S
C799 H793 0.930 . S
C799 C795 1.400 1_556 S
C799 C798 1.385 . S
C800 C798 1.478 . S
C800 C802 1.381 . S
C800 C806 1.383 . S
C801 C797 1.495 . S
C801 H807 0.959 . S
C801 H808 0.961 . S
C801 H809 0.960 . S
C802 C800 1.381 . S
C802 C803 1.394 . S
C802 H810 0.930 . S
C803 C802 1.394 . S
C803 C804 1.383 . S
C803 H811 0.929 . S
C804 C803 1.383 . S
C804 C805 1.377 . S
C805 H789 0.930 . S
C805 C804 1.377 . S
C805 C806 1.379 . S
C806 H790 0.931 . S
C806 C800 1.383 . S
C806 C805 1.379 . S
H807 C801 0.959 . S
H808 C801 0.961 . S
H809 C801 0.960 . S
H810 C802 0.930 . S
H811 C803 0.929 . S
H812 C820 0.929 . S
H813 C822 0.930 . S
H814 C824 0.930 . S
H815 C827 0.929 . S
H816 C830 0.930 . S
H817 C832 0.960 . S
H818 C832 0.960 . S
H819 C832 0.960 . S
C820 H812 0.929 . S
C820 C821 1.377 . S
C820 C822 1.384 . S
C821 C820 1.377 . S
C821 C827 1.390 . S
C822 H813 0.930 . S
C822 C820 1.384 . S
C822 C823 1.372 . S
C823 C822 1.372 . S
C823 C824 1.400 . S
C823 C828 1.490 . S
C824 H814 0.930 . S
C824 C823 1.400 . S
C824 C827 1.386 . S
H825 C841 0.930 . S
H826 C842 0.931 . S
C827 H815 0.929 . S
C827 C821 1.390 . S
C827 C824 1.386 . S
C828 C823 1.490 . S
C828 C830 1.395 . S
C828 C831 1.403 . S
H829 C835 0.930 . S
C830 H816 0.930 . S
C830 C828 1.395 . S
C830 C833 1.403 . S
C831 C828 1.403 . S
C831 C832 1.524 . S
C831 C835 1.400 . S
C832 H817 0.960 . S
C832 H818 0.960 . S
C832 H819 0.960 . S
C832 C831 1.524 . S
C833 C830 1.403 . S
C833 C834 1.392 . S
C833 C837 1.495 . S
C834 C833 1.392 . S
C834 C835 1.385 . S
C834 C836 1.478 . S
C835 H829 0.930 . S
C835 C831 1.400 . S
C835 C834 1.385 . S
C836 C834 1.478 . S
C836 C838 1.381 . S
C836 C842 1.383 . S
C837 C833 1.495 . S
C837 H843 0.959 . S
C837 H844 0.961 . S
C837 H845 0.960 . S
C838 C836 1.381 . S
C838 C839 1.394 . S
C838 H846 0.930 . S
C839 C838 1.394 . S
C839 C840 1.383 . S
C839 H847 0.929 . S
C840 C839 1.383 . S
C840 C841 1.377 . S
C841 H825 0.930 . S
C841 C840 1.377 . S
C841 C842 1.379 . S
C842 H826 0.931 . S
C842 C836 1.383 . S
C842 C841 1.379 . S
H843 C837 0.959 . S
H844 C837 0.961 . S
H845 C837 0.960 . S
H846 C838 0.930 . S
H847 C839 0.929 . S
H848 C856 0.929 . S
H849 C858 0.930 . S
H850 C860 0.930 . S
H851 C863 0.929 . S
H852 C866 0.930 . S
H853 C868 0.960 . S
H854 C868 0.960 . S
H855 C868 0.960 . S
C856 H848 0.929 . S
C856 C857 1.377 . S
C856 C858 1.384 . S
C857 C856 1.377 . S
C857 C863 1.390 . S
C858 H849 0.930 . S
C858 C856 1.384 . S
C858 C859 1.372 . S
C859 C858 1.372 . S
C859 C860 1.400 . S
C859 C864 1.490 . S
C860 H850 0.930 . S
C860 C859 1.400 . S
C860 C863 1.386 . S
H861 C877 0.930 . S
H862 C878 0.931 . S
C863 H851 0.929 . S
C863 C857 1.390 . S
C863 C860 1.386 . S
C864 C859 1.490 . S
C864 C866 1.395 . S
C864 C867 1.403 . S
H865 C871 0.930 . S
C866 H852 0.930 . S
C866 C864 1.395 . S
C866 C869 1.403 . S
C867 C864 1.403 . S
C867 C868 1.524 . S
C867 C871 1.400 . S
C868 H853 0.960 . S
C868 H854 0.960 . S
C868 H855 0.960 . S
C868 C867 1.524 . S
C869 C866 1.403 . S
C869 C870 1.392 . S
C869 C873 1.495 . S
C870 C869 1.392 . S
C870 C871 1.385 . S
C870 C872 1.478 . S
C871 H865 0.930 . S
C871 C867 1.400 . S
C871 C870 1.385 . S
C872 C870 1.478 . S
C872 C874 1.381 . S
C872 C878 1.383 . S
C873 C869 1.495 . S
C873 H879 0.959 . S
C873 H880 0.961 . S
C873 H881 0.960 . S
C874 C872 1.381 . S
C874 C875 1.394 . S
C874 H882 0.930 . S
C875 C874 1.394 . S
C875 C876 1.383 . S
C875 H883 0.929 . S
C876 C875 1.383 . S
C876 C877 1.377 . S
C877 H861 0.930 . S
C877 C876 1.377 . S
C877 C878 1.379 . S
C878 H862 0.931 . S
C878 C872 1.383 . S
C878 C877 1.379 . S
H879 C873 0.959 . S
H880 C873 0.961 . S
H881 C873 0.960 . S
H882 C874 0.930 . S
H883 C875 0.929 . S
H884 C892 0.929 . S
H885 C894 0.930 . S
H886 C896 0.930 . S
H887 C899 0.929 . S
H888 C902 0.930 . S
H889 C904 0.960 . S
H890 C904 0.960 . S
H891 C904 0.960 . S
C892 H884 0.929 . S
C892 C893 1.377 . S
C892 C894 1.384 . S
C893 C892 1.377 . S
C893 C899 1.390 . S
C894 H885 0.930 . S
C894 C892 1.384 . S
C894 C895 1.372 . S
C895 C894 1.372 . S
C895 C896 1.400 . S
C895 C900 1.490 . S
C896 H886 0.930 . S
C896 C895 1.400 . S
C896 C899 1.386 . S
H897 C913 0.930 . S
H898 C914 0.931 . S
C899 H887 0.929 . S
C899 C893 1.390 . S
C899 C896 1.386 . S
C900 C895 1.490 . S
C900 C902 1.395 . S
C900 C903 1.403 . S
H901 C907 0.930 . S
C902 H888 0.930 . S
C902 C900 1.395 . S
C902 C905 1.403 . S
C903 C900 1.403 . S
C903 C904 1.524 . S
C903 C907 1.400 . S
C904 H889 0.960 . S
C904 H890 0.960 . S
C904 H891 0.960 . S
C904 C903 1.524 . S
C905 C902 1.403 . S
C905 C906 1.392 . S
C905 C909 1.495 . S
C906 C905 1.392 . S
C906 C907 1.385 . S
C906 C908 1.478 . S
C907 H901 0.930 . S
C907 C903 1.400 . S
C907 C906 1.385 . S
C908 C906 1.478 . S
C908 C910 1.381 . S
C908 C914 1.383 . S
C909 C905 1.495 . S
C909 H915 0.959 . S
C909 H916 0.961 . S
C909 H917 0.960 . S
C910 C908 1.381 . S
C910 C911 1.394 . S
C910 H918 0.930 . S
C911 C910 1.394 . S
C911 C912 1.383 . S
C911 H919 0.929 . S
C912 C911 1.383 . S
C912 C913 1.377 . S
C913 H897 0.930 . S
C913 C912 1.377 . S
C913 C914 1.379 . S
C914 H898 0.931 . S
C914 C908 1.383 . S
C914 C913 1.379 . S
H915 C909 0.959 . S
H916 C909 0.961 . S
H917 C909 0.960 . S
H918 C910 0.930 . S
H919 C911 0.929 . S
H920 C928 0.929 . S
H921 C930 0.930 . S
H922 C932 0.930 . S
H923 C935 0.929 . S
H924 C938 0.930 . S
H925 C940 0.960 . S
H926 C940 0.960 . S
H927 C940 0.960 . S
C928 H920 0.929 . S
C928 C929 1.377 . S
C928 C930 1.384 . S
C929 C928 1.377 . S
C929 C935 1.390 . S
C930 H921 0.930 . S
C930 C928 1.384 . S
C930 C931 1.372 . S
C931 C930 1.372 . S
C931 C932 1.400 . S
C931 C936 1.490 . S
C932 H922 0.930 . S
C932 C931 1.400 . S
C932 C935 1.386 . S
H933 C949 0.930 . S
H934 C950 0.931 . S
C935 H923 0.929 . S
C935 C929 1.390 . S
C935 C932 1.386 . S
C936 C931 1.490 . S
C936 C938 1.395 . S
C936 C939 1.403 . S
H937 C943 0.930 . S
C938 H924 0.930 . S
C938 C936 1.395 . S
C938 C941 1.403 . S
C939 C936 1.403 . S
C939 C940 1.524 . S
C939 C943 1.400 . S
C940 H925 0.960 . S
C940 H926 0.960 . S
C940 H927 0.960 . S
C940 C939 1.524 . S
C941 C938 1.403 . S
C941 C942 1.392 . S
C941 C945 1.495 . S
C942 C941 1.392 . S
C942 C943 1.385 . S
C942 C944 1.478 . S
C943 H937 0.930 . S
C943 C939 1.400 . S
C943 C942 1.385 . S
C944 C942 1.478 . S
C944 C946 1.381 . S
C944 C950 1.383 . S
C945 C941 1.495 . S
C945 H951 0.959 . S
C945 H952 0.961 . S
C945 H953 0.960 . S
C946 C944 1.381 . S
C946 C947 1.394 . S
C946 H954 0.930 . S
C947 C946 1.394 . S
C947 C948 1.383 . S
C947 H955 0.929 . S
C948 C947 1.383 . S
C948 C949 1.377 . S
C949 H933 0.930 . S
C949 C948 1.377 . S
C949 C950 1.379 . S
C950 H934 0.931 . S
C950 C944 1.383 . S
C950 C949 1.379 . S
H951 C945 0.959 . S
H952 C945 0.961 . S
H953 C945 0.960 . S
H954 C946 0.930 . S
H955 C947 0.929 . S
H956 C964 0.929 . S
H957 C966 0.930 . S
H958 C968 0.930 . S
H959 C971 0.929 . S
H960 C974 0.930 . S
H961 C976 0.960 . S
H962 C976 0.960 . S
H963 C976 0.960 . S
C964 H956 0.929 . S
C964 C965 1.377 . S
C964 C966 1.384 . S
C965 C964 1.377 . S
C965 C971 1.390 . S
C966 H957 0.930 . S
C966 C964 1.384 . S
C966 C967 1.372 . S
C967 C966 1.372 . S
C967 C968 1.400 . S
C967 C972 1.490 . S
C968 H958 0.930 . S
C968 C967 1.400 . S
C968 C971 1.386 . S
H969 C985 0.930 . S
H970 C986 0.931 . S
C971 H959 0.929 . S
C971 C965 1.390 . S
C971 C968 1.386 . S
C972 C967 1.490 . S
C972 C974 1.395 . S
C972 C975 1.403 . S
H973 C979 0.930 . S
C974 H960 0.930 . S
C974 C972 1.395 . S
C974 C977 1.403 . S
C975 C972 1.403 . S
C975 C976 1.524 . S
C975 C979 1.400 . S
C976 H961 0.960 . S
C976 H962 0.960 . S
C976 H963 0.960 . S
C976 C975 1.524 . S
C977 C974 1.403 . S
C977 C978 1.392 . S
C977 C981 1.495 . S
C978 C977 1.392 . S
C978 C979 1.385 . S
C978 C980 1.478 . S
C979 H973 0.930 . S
C979 C975 1.400 . S
C979 C978 1.385 . S
C980 C978 1.478 . S
C980 C982 1.381 . S
C980 C986 1.383 . S
C981 C977 1.495 . S
C981 H987 0.959 . S
C981 H988 0.961 . S
C981 H989 0.960 . S
C982 C980 1.381 . S
C982 C983 1.394 . S
C982 H990 0.930 . S
C983 C982 1.394 . S
C983 C984 1.383 . S
C983 H991 0.929 . S
C984 C983 1.383 . S
C984 C985 1.377 . S
C985 H969 0.930 . S
C985 C984 1.377 . S
C985 C986 1.379 . S
C986 H970 0.931 . S
C986 C980 1.383 . S
C986 C985 1.379 . S
H987 C981 0.959 . S
H988 C981 0.961 . S
H989 C981 0.960 . S
H990 C982 0.930 . S
H991 C983 0.929 . S
H992 C1000 0.929 . S
H993 C1002 0.930 . S
H994 C1004 0.930 . S
H995 C1007 0.929 . S
H996 C1010 0.930 . S
H997 C1012 0.960 . S
H998 C1012 0.960 . S
H999 C1012 0.960 . S
C1000 H992 0.929 . S
C1000 C1001 1.377 . S
C1000 C1002 1.384 . S
C1001 C1000 1.377 . S
C1001 C1007 1.390 . S
C1002 H993 0.930 . S
C1002 C1000 1.384 . S
C1002 C1003 1.372 . S
C1003 C1002 1.372 . S
C1003 C1004 1.400 . S
C1003 C1008 1.490 . S
C1004 H994 0.930 . S
C1004 C1003 1.400 . S
C1004 C1007 1.386 . S
H1005 C1021 0.930 . S
H1006 C1022 0.931 . S
C1007 H995 0.929 . S
C1007 C1001 1.390 . S
C1007 C1004 1.386 . S
C1008 C1003 1.490 . S
C1008 C1010 1.395 . S
C1008 C1011 1.403 . S
H1009 C1015 0.930 . S
C1010 H996 0.930 . S
C1010 C1008 1.395 . S
C1010 C1013 1.403 1_565 S
C1011 C1008 1.403 . S
C1011 C1012 1.524 . S
C1011 C1015 1.400 1_565 S
C1012 H997 0.960 . S
C1012 H998 0.960 . S
C1012 H999 0.960 . S
C1012 C1011 1.524 . S
C1013 C1010 1.403 1_545 S
C1013 C1014 1.392 . S
C1013 C1017 1.495 . S
C1014 C1013 1.392 . S
C1014 C1015 1.385 . S
C1014 C1016 1.478 . S
C1015 H1009 0.930 . S
C1015 C1011 1.400 1_545 S
C1015 C1014 1.385 . S
C1016 C1014 1.478 . S
C1016 C1018 1.381 . S
C1016 C1022 1.383 . S
C1017 C1013 1.495 . S
C1017 H1023 0.959 . S
C1017 H1024 0.961 . S
C1017 H1025 0.960 . S
C1018 C1016 1.381 . S
C1018 C1019 1.394 . S
C1018 H1026 0.930 . S
C1019 C1018 1.394 . S
C1019 C1020 1.383 . S
C1019 H1027 0.929 . S
C1020 C1019 1.383 . S
C1020 C1021 1.377 . S
C1021 H1005 0.930 . S
C1021 C1020 1.377 . S
C1021 C1022 1.379 . S
C1022 H1006 0.931 . S
C1022 C1016 1.383 . S
C1022 C1021 1.379 . S
H1023 C1017 0.959 . S
H1024 C1017 0.961 . S
H1025 C1017 0.960 . S
H1026 C1018 0.930 . S
H1027 C1019 0.929 . S
H1028 C1036 0.929 . S
H1029 C1038 0.930 . S
H1030 C1040 0.930 . S
H1031 C1043 0.929 . S
H1032 C1046 0.930 . S
H1033 C1048 0.960 . S
H1034 C1048 0.960 . S
H1035 C1048 0.960 . S
C1036 H1028 0.929 . S
C1036 C1037 1.377 . S
C1036 C1038 1.384 . S
C1037 C1036 1.377 . S
C1037 C1043 1.390 . S
C1038 H1029 0.930 . S
C1038 C1036 1.384 . S
C1038 C1039 1.372 . S
C1039 C1038 1.372 . S
C1039 C1040 1.400 . S
C1039 C1044 1.490 . S
C1040 H1030 0.930 . S
C1040 C1039 1.400 . S
C1040 C1043 1.386 . S
H1041 C1057 0.930 . S
H1042 C1058 0.931 . S
C1043 H1031 0.929 . S
C1043 C1037 1.390 . S
C1043 C1040 1.386 . S
C1044 C1039 1.490 . S
C1044 C1046 1.395 . S
C1044 C1047 1.403 . S
H1045 C1051 0.930 . S
C1046 H1032 0.930 . S
C1046 C1044 1.395 . S
C1046 C1049 1.403 1_655 S
C1047 C1044 1.403 . S
C1047 C1048 1.524 . S
C1047 C1051 1.400 1_655 S
C1048 H1033 0.960 . S
C1048 H1034 0.960 . S
C1048 H1035 0.960 . S
C1048 C1047 1.524 . S
C1049 C1046 1.403 1_455 S
C1049 C1050 1.392 . S
C1049 C1053 1.495 . S
C1050 C1049 1.392 . S
C1050 C1051 1.385 . S
C1050 C1052 1.478 . S
C1051 H1045 0.930 . S
C1051 C1047 1.400 1_455 S
C1051 C1050 1.385 . S
C1052 C1050 1.478 . S
C1052 C1054 1.381 . S
C1052 C1058 1.383 . S
C1053 C1049 1.495 . S
C1053 H1059 0.959 . S
C1053 H1060 0.961 . S
C1053 H1061 0.960 . S
C1054 C1052 1.381 . S
C1054 C1055 1.394 . S
C1054 H1062 0.930 . S
C1055 C1054 1.394 . S
C1055 C1056 1.383 . S
C1055 H1063 0.929 . S
C1056 C1055 1.383 . S
C1056 C1057 1.377 . S
C1057 H1041 0.930 . S
C1057 C1056 1.377 . S
C1057 C1058 1.379 . S
C1058 H1042 0.931 . S
C1058 C1052 1.383 . S
C1058 C1057 1.379 . S
H1059 C1053 0.959 . S
H1060 C1053 0.961 . S
H1061 C1053 0.960 . S
H1062 C1054 0.930 . S
H1063 C1055 0.929 . S
H1064 C1072 0.929 . S
H1065 C1074 0.930 . S
H1066 C1076 0.930 . S
H1067 C1079 0.929 . S
H1068 C1082 0.930 . S
H1069 C1084 0.960 . S
H1070 C1084 0.960 . S
H1071 C1084 0.960 . S
C1072 H1064 0.929 . S
C1072 C1073 1.377 . S
C1072 C1074 1.384 . S
C1073 C1072 1.377 . S
C1073 C1079 1.390 . S
C1074 H1065 0.930 . S
C1074 C1072 1.384 . S
C1074 C1075 1.372 . S
C1075 C1074 1.372 . S
C1075 C1076 1.400 . S
C1075 C1080 1.490 . S
C1076 H1066 0.930 . S
C1076 C1075 1.400 . S
C1076 C1079 1.386 . S
H1077 C1093 0.930 . S
H1078 C1094 0.931 . S
C1079 H1067 0.929 . S
C1079 C1073 1.390 . S
C1079 C1076 1.386 . S
C1080 C1075 1.490 . S
C1080 C1082 1.395 . S
C1080 C1083 1.403 . S
H1081 C1087 0.930 . S
C1082 H1068 0.930 . S
C1082 C1080 1.395 . S
C1082 C1085 1.403 1_565 S
C1083 C1080 1.403 . S
C1083 C1084 1.524 . S
C1083 C1087 1.400 1_565 S
C1084 H1069 0.960 . S
C1084 H1070 0.960 . S
C1084 H1071 0.960 . S
C1084 C1083 1.524 . S
C1085 C1082 1.403 1_545 S
C1085 C1086 1.392 . S
C1085 C1089 1.495 . S
C1086 C1085 1.392 . S
C1086 C1087 1.385 . S
C1086 C1088 1.478 . S
C1087 H1081 0.930 . S
C1087 C1083 1.400 1_545 S
C1087 C1086 1.385 . S
C1088 C1086 1.478 . S
C1088 C1090 1.381 . S
C1088 C1094 1.383 . S
C1089 C1085 1.495 . S
C1089 H1095 0.959 . S
C1089 H1096 0.961 . S
C1089 H1097 0.960 . S
C1090 C1088 1.381 . S
C1090 C1091 1.394 . S
C1090 H1098 0.930 . S
C1091 C1090 1.394 . S
C1091 C1092 1.383 . S
C1091 H1099 0.929 . S
C1092 C1091 1.383 . S
C1092 C1093 1.377 . S
C1093 H1077 0.930 . S
C1093 C1092 1.377 . S
C1093 C1094 1.379 . S
C1094 H1078 0.931 . S
C1094 C1088 1.383 . S
C1094 C1093 1.379 . S
H1095 C1089 0.959 . S
H1096 C1089 0.961 . S
H1097 C1089 0.960 . S
H1098 C1090 0.930 . S
H1099 C1091 0.929 . S
H1100 C1108 0.929 1_556 S
H1101 C1110 0.930 1_556 S
H1102 C1112 0.930 . S
H1103 C1115 0.929 . S
H1104 C1118 0.930 . S
H1105 C1120 0.960 . S
H1106 C1120 0.960 . S
H1107 C1120 0.960 . S
C1108 H1100 0.929 1_554 S
C1108 C1109 1.377 . S
C1108 C1110 1.384 . S
C1109 C1108 1.377 . S
C1109 C1115 1.390 . S
C1110 H1101 0.930 1_554 S
C1110 C1108 1.384 . S
C1110 C1111 1.372 . S
C1111 C1110 1.372 . S
C1111 C1112 1.400 . S
C1111 C1116 1.490 . S
C1112 H1102 0.930 . S
C1112 C1111 1.400 . S
C1112 C1115 1.386 . S
H1113 C1129 0.930 . S
H1114 C1130 0.931 . S
C1115 H1103 0.929 . S
C1115 C1109 1.390 . S
C1115 C1112 1.386 . S
C1116 C1111 1.490 . S
C1116 C1118 1.395 1_554 S
C1116 C1119 1.403 . S
H1117 C1123 0.930 . S
C1118 H1104 0.930 . S
C1118 C1116 1.395 1_556 S
C1118 C1121 1.403 1_655 S
C1119 C1116 1.403 . S
C1119 C1120 1.524 . S
C1119 C1123 1.400 1_655 S
C1120 H1105 0.960 . S
C1120 H1106 0.960 . S
C1120 H1107 0.960 . S
C1120 C1119 1.524 . S
C1121 C1118 1.403 1_455 S
C1121 C1122 1.392 1_556 S
C1121 C1125 1.495 . S
C1122 C1121 1.392 1_554 S
C1122 C1123 1.385 . S
C1122 C1124 1.478 . S
C1123 H1117 0.930 . S
C1123 C1119 1.400 1_455 S
C1123 C1122 1.385 . S
C1124 C1122 1.478 . S
C1124 C1126 1.381 . S
C1124 C1130 1.383 . S
C1125 C1121 1.495 . S
C1125 H1131 0.959 . S
C1125 H1132 0.961 . S
C1125 H1133 0.960 . S
C1126 C1124 1.381 . S
C1126 C1127 1.394 . S
C1126 H1134 0.930 1_554 S
C1127 C1126 1.394 . S
C1127 C1128 1.383 . S
C1127 H1135 0.934 . S
C1128 C1127 1.383 . S
C1128 C1129 1.377 . S
C1129 H1113 0.930 . S
C1129 C1128 1.377 . S
C1129 C1130 1.379 . S
C1130 H1114 0.931 . S
C1130 C1124 1.383 . S
C1130 C1129 1.379 . S
H1131 C1125 0.959 . S
H1132 C1125 0.961 . S
H1133 C1125 0.960 . S
H1134 C1126 0.930 1_556 S
H1135 C1127 0.934 . S
H1136 C1144 0.929 . S
H1137 C1146 0.930 . S
H1138 C1148 0.930 . S
H1139 C1151 0.929 . S
H1140 C1154 0.930 . S
H1141 C1156 0.960 . S
H1142 C1156 0.960 . S
H1143 C1156 0.960 . S
C1144 H1136 0.929 . S
C1144 C1145 1.377 . S
C1144 C1146 1.384 . S
C1145 C1144 1.377 . S
C1145 C1151 1.390 . S
C1146 H1137 0.930 . S
C1146 C1144 1.384 . S
C1146 C1147 1.372 . S
C1147 C1146 1.372 . S
C1147 C1148 1.400 . S
C1147 C1152 1.490 . S
C1148 H1138 0.930 . S
C1148 C1147 1.400 . S
C1148 C1151 1.386 . S
H1149 C1165 0.930 . S
H1150 C1166 0.931 . S
C1151 H1139 0.929 . S
C1151 C1145 1.390 . S
C1151 C1148 1.386 . S
C1152 C1147 1.490 . S
C1152 C1154 1.395 . S
C1152 C1155 1.403 1_556 S
H1153 C1159 0.930 . S
C1154 H1140 0.930 . S
C1154 C1152 1.395 . S
C1154 C1157 1.403 1_556 S
C1155 C1152 1.403 1_554 S
C1155 C1156 1.524 . S
C1155 C1159 1.400 . S
C1156 H1141 0.960 . S
C1156 H1142 0.960 . S
C1156 H1143 0.960 . S
C1156 C1155 1.524 . S
C1157 C1154 1.403 1_554 S
C1157 C1158 1.392 . S
C1157 C1161 1.495 1_554 S
C1158 C1157 1.392 . S
C1158 C1159 1.385 . S
C1158 C1160 1.478 . S
C1159 H1153 0.930 . S
C1159 C1155 1.400 . S
C1159 C1158 1.385 . S
C1160 C1158 1.478 . S
C1160 C1162 1.381 . S
C1160 C1166 1.383 . S
C1161 C1157 1.495 1_556 S
C1161 H1167 0.959 . S
C1161 H1168 0.961 1_556 S
C1161 H1169 0.960 1_556 S
C1162 C1160 1.381 . S
C1162 C1163 1.394 . S
C1162 H1170 0.930 . S
C1163 C1162 1.394 . S
C1163 C1164 1.383 . S
C1163 H1171 0.929 . S
C1164 C1163 1.383 . S
C1164 C1165 1.377 . S
C1165 H1149 0.930 . S
C1165 C1164 1.377 . S
C1165 C1166 1.379 . S
C1166 H1150 0.931 . S
C1166 C1160 1.383 . S
C1166 C1165 1.379 . S
H1167 C1161 0.959 . S
H1168 C1161 0.961 1_554 S
H1169 C1161 0.960 1_554 S
H1170 C1162 0.930 . S
H1171 C1163 0.929 . S
H1172 C1180 0.929 . S
H1173 C1182 0.930 . S
H1174 C1184 0.930 . S
H1175 C1187 0.929 . S
H1176 C1190 0.930 . S
H1177 C1192 0.960 . S
H1178 C1192 0.960 . S
H1179 C1192 0.960 . S
C1180 H1172 0.929 . S
C1180 C1181 1.377 . S
C1180 C1182 1.384 . S
C1181 C1180 1.377 . S
C1181 C1187 1.390 . S
C1182 H1173 0.930 . S
C1182 C1180 1.384 . S
C1182 C1183 1.372 . S
C1183 C1182 1.372 . S
C1183 C1184 1.400 . S
C1183 C1188 1.490 . S
C1184 H1174 0.930 . S
C1184 C1183 1.400 . S
C1184 C1187 1.386 . S
H1185 C1201 0.930 . S
H1186 C1202 0.931 . S
C1187 H1175 0.929 . S
C1187 C1181 1.390 . S
C1187 C1184 1.386 . S
C1188 C1183 1.490 . S
C1188 C1190 1.395 . S
C1188 C1191 1.403 . S
H1189 C1195 0.930 . S
C1190 H1176 0.930 . S
C1190 C1188 1.395 . S
C1190 C1193 1.403 . S
C1191 C1188 1.403 . S
C1191 C1192 1.524 . S
C1191 C1195 1.400 . S
C1192 H1177 0.960 . S
C1192 H1178 0.960 . S
C1192 H1179 0.960 . S
C1192 C1191 1.524 . S
C1193 C1190 1.403 . S
C1193 C1194 1.392 . S
C1193 C1197 1.495 . S
C1194 C1193 1.392 . S
C1194 C1195 1.385 . S
C1194 C1196 1.478 . S
C1195 H1189 0.930 . S
C1195 C1191 1.400 . S
C1195 C1194 1.385 . S
C1196 C1194 1.478 . S
C1196 C1198 1.381 . S
C1196 C1202 1.383 . S
C1197 C1193 1.495 . S
C1197 H1203 0.959 . S
C1197 H1204 0.961 . S
C1197 H1205 0.960 . S
C1198 C1196 1.381 . S
C1198 C1199 1.394 . S
C1198 H1206 0.930 . S
C1199 C1198 1.394 . S
C1199 C1200 1.383 . S
C1199 H1207 0.929 . S
C1200 C1199 1.383 . S
C1200 C1201 1.377 . S
C1201 H1185 0.930 . S
C1201 C1200 1.377 . S
C1201 C1202 1.379 . S
C1202 H1186 0.931 . S
C1202 C1196 1.383 . S
C1202 C1201 1.379 . S
H1203 C1197 0.959 . S
H1204 C1197 0.961 . S
H1205 C1197 0.960 . S
H1206 C1198 0.930 . S
H1207 C1199 0.929 . S
H1208 C1216 0.929 . S
H1209 C1218 0.930 . S
H1210 C1220 0.930 . S
H1211 C1223 0.929 . S
H1212 C1226 0.930 . S
H1213 C1228 0.960 . S
H1214 C1228 0.960 . S
H1215 C1228 0.960 . S
C1216 H1208 0.929 . S
C1216 C1217 1.377 . S
C1216 C1218 1.384 . S
C1217 C1216 1.377 . S
C1217 C1223 1.390 . S
C1218 H1209 0.930 . S
C1218 C1216 1.384 . S
C1218 C1219 1.372 . S
C1219 C1218 1.372 . S
C1219 C1220 1.400 . S
C1219 C1224 1.490 . S
C1220 H1210 0.930 . S
C1220 C1219 1.400 . S
C1220 C1223 1.386 . S
H1221 C1237 0.930 . S
H1222 C1238 0.931 . S
C1223 H1211 0.929 . S
C1223 C1217 1.390 . S
C1223 C1220 1.386 . S
C1224 C1219 1.490 . S
C1224 C1226 1.395 . S
C1224 C1227 1.403 . S
H1225 C1231 0.930 . S
C1226 H1212 0.930 . S
C1226 C1224 1.395 . S
C1226 C1229 1.403 . S
C1227 C1224 1.403 . S
C1227 C1228 1.524 . S
C1227 C1231 1.400 . S
C1228 H1213 0.960 . S
C1228 H1214 0.960 . S
C1228 H1215 0.960 . S
C1228 C1227 1.524 . S
C1229 C1226 1.403 . S
C1229 C1230 1.392 . S
C1229 C1233 1.495 . S
C1230 C1229 1.392 . S
C1230 C1231 1.385 . S
C1230 C1232 1.478 . S
C1231 H1225 0.930 . S
C1231 C1227 1.400 . S
C1231 C1230 1.385 . S
C1232 C1230 1.478 . S
C1232 C1234 1.381 . S
C1232 C1238 1.383 . S
C1233 C1229 1.495 . S
C1233 H1239 0.959 . S
C1233 H1240 0.961 . S
C1233 H1241 0.960 . S
C1234 C1232 1.381 . S
C1234 C1235 1.394 . S
C1234 H1242 0.930 . S
C1235 C1234 1.394 . S
C1235 C1236 1.383 . S
C1235 H1243 0.929 . S
C1236 C1235 1.383 . S
C1236 C1237 1.377 . S
C1237 H1221 0.930 . S
C1237 C1236 1.377 . S
C1237 C1238 1.379 . S
C1238 H1222 0.931 . S
C1238 C1232 1.383 . S
C1238 C1237 1.379 . S
H1239 C1233 0.959 . S
H1240 C1233 0.961 . S
H1241 C1233 0.960 . S
H1242 C1234 0.930 . S
H1243 C1235 0.929 . S
H1244 C1252 0.929 . S
H1245 C1254 0.930 . S
H1246 C1256 0.930 . S
H1247 C1259 0.929 . S
H1248 C1262 0.930 . S
H1249 C1264 0.960 . S
H1250 C1264 0.960 . S
H1251 C1264 0.960 . S
C1252 H1244 0.929 . S
C1252 C1253 1.377 . S
C1252 C1254 1.384 . S
C1253 C1252 1.377 . S
C1253 C1259 1.390 . S
C1254 H1245 0.930 . S
C1254 C1252 1.384 . S
C1254 C1255 1.372 . S
C1255 C1254 1.372 . S
C1255 C1256 1.400 . S
C1255 C1260 1.490 . S
C1256 H1246 0.930 . S
C1256 C1255 1.400 . S
C1256 C1259 1.386 . S
H1257 C1273 0.930 . S
H1258 C1274 0.931 . S
C1259 H1247 0.929 . S
C1259 C1253 1.390 . S
C1259 C1256 1.386 . S
C1260 C1255 1.490 . S
C1260 C1262 1.395 . S
C1260 C1263 1.403 . S
H1261 C1267 0.930 . S
C1262 H1248 0.930 . S
C1262 C1260 1.395 . S
C1262 C1265 1.403 . S
C1263 C1260 1.403 . S
C1263 C1264 1.524 . S
C1263 C1267 1.400 . S
C1264 H1249 0.960 . S
C1264 H1250 0.960 . S
C1264 H1251 0.960 . S
C1264 C1263 1.524 . S
C1265 C1262 1.403 . S
C1265 C1266 1.392 . S
C1265 C1269 1.495 . S
C1266 C1265 1.392 . S
C1266 C1267 1.385 . S
C1266 C1268 1.478 . S
C1267 H1261 0.930 . S
C1267 C1263 1.400 . S
C1267 C1266 1.385 . S
C1268 C1266 1.478 . S
C1268 C1270 1.381 . S
C1268 C1274 1.383 . S
C1269 C1265 1.495 . S
C1269 H1275 0.959 . S
C1269 H1276 0.961 . S
C1269 H1277 0.960 . S
C1270 C1268 1.381 . S
C1270 C1271 1.394 . S
C1270 H1278 0.930 . S
C1271 C1270 1.394 . S
C1271 C1272 1.383 . S
C1271 H1279 0.929 . S
C1272 C1271 1.383 . S
C1272 C1273 1.377 . S
C1273 H1257 0.930 . S
C1273 C1272 1.377 . S
C1273 C1274 1.379 . S
C1274 H1258 0.931 . S
C1274 C1268 1.383 . S
C1274 C1273 1.379 . S
H1275 C1269 0.959 . S
H1276 C1269 0.961 . S
H1277 C1269 0.960 . S
H1278 C1270 0.930 . S
H1279 C1271 0.929 . S
C713 C29 0.714 . S
C732 C585 0.713 . S
C749 C108 0.714 . S
C768 C673 0.714 . S
C785 C401 0.710 . S
C804 C196 0.704 . S
C821 C489 0.709 . S
C840 C293 0.716 . S
C857 C49 1.138 . S
C876 C469 1.110 . S
C893 C145 1.140 . S
C912 C548 1.144 . S
C929 C636 1.151 . S
C948 C233 1.171 . S
C965 C313 1.140 . S
C984 C381 1.110 . S
C1001 C409 1.253 . S
C1020 C20 1.269 . S
C1037 C117 1.258 . S
C1056 C497 1.250 . S
C1073 C205 1.254 . S
C1092 C577 1.267 . S
C1109 C665 1.252 . S
C1128 C284 1.258 . S
C1145 C557 1.676 . S
C1164 C57 1.682 . S
C1181 C645 1.674 . S
C1200 C137 1.670 . S
C1217 C225 1.672 . S
C1236 C372 1.667 . S
C1253 C321 1.670 . S
C1272 C460 1.657 . S
