# Generated by pormake.
# Topology vmg, (6)-cn, num edge types: 1
# Building blocks:
#     Node 0, Type 0, BuildingBlock: IZENUY_clean_sbu_0, # of connection points: 6
#     Node 1, Type 0, BuildingBlock: IZENUY_clean_sbu_0, # of connection points: 6
#     Node 2, Type 0, BuildingBlock: IZENUY_clean_sbu_0, # of connection points: 6
#     Node 3, Type 0, BuildingBlock: IZENUY_clean_sbu_0, # of connection points: 6
#     Node 4, Type 0, BuildingBlock: IZENUY_clean_sbu_0, # of connection points: 6
#     Node 5, Type 0, BuildingBlock: IZENUY_clean_sbu_0, # of connection points: 6
#     Node 6, Type 0, BuildingBlock: IZENUY_clean_sbu_0, # of connection points: 6
#     Node 7, Type 0, BuildingBlock: IZENUY_clean_sbu_0, # of connection points: 6
#     Edge 8, Type (0, 0), BuildingBlock: TEMPAE_clean_linker_10, # of connection points: 2
#     Edge 9, Type (0, 0), BuildingBlock: TEMPAE_clean_linker_10, # of connection points: 2
#     Edge 10, Type (0, 0), BuildingBlock: TEMPAE_clean_linker_10, # of connection points: 2
#     Edge 11, Type (0, 0), BuildingBlock: TEMPAE_clean_linker_10, # of connection points: 2
#     Edge 12, Type (0, 0), BuildingBlock: TEMPAE_clean_linker_10, # of connection points: 2
#     Edge 13, Type (0, 0), BuildingBlock: TEMPAE_clean_linker_10, # of connection points: 2
#     Edge 14, Type (0, 0), BuildingBlock: TEMPAE_clean_linker_10, # of connection points: 2
#     Edge 15, Type (0, 0), BuildingBlock: TEMPAE_clean_linker_10, # of connection points: 2
#     Edge 16, Type (0, 0), BuildingBlock: TEMPAE_clean_linker_10, # of connection points: 2
#     Edge 17, Type (0, 0), BuildingBlock: TEMPAE_clean_linker_10, # of connection points: 2
#     Edge 18, Type (0, 0), BuildingBlock: TEMPAE_clean_linker_10, # of connection points: 2
#     Edge 19, Type (0, 0), BuildingBlock: TEMPAE_clean_linker_10, # of connection points: 2
#     Edge 20, Type (0, 0), BuildingBlock: TEMPAE_clean_linker_10, # of connection points: 2
#     Edge 21, Type (0, 0), BuildingBlock: TEMPAE_clean_linker_10, # of connection points: 2
#     Edge 22, Type (0, 0), BuildingBlock: TEMPAE_clean_linker_10, # of connection points: 2
#     Edge 23, Type (0, 0), BuildingBlock: TEMPAE_clean_linker_10, # of connection points: 2
#     Edge 24, Type (0, 0), BuildingBlock: TEMPAE_clean_linker_10, # of connection points: 2
#     Edge 25, Type (0, 0), BuildingBlock: TEMPAE_clean_linker_10, # of connection points: 2
#     Edge 26, Type (0, 0), BuildingBlock: TEMPAE_clean_linker_10, # of connection points: 2
#     Edge 27, Type (0, 0), BuildingBlock: TEMPAE_clean_linker_10, # of connection points: 2
#     Edge 28, Type (0, 0), BuildingBlock: TEMPAE_clean_linker_10, # of connection points: 2
#     Edge 29, Type (0, 0), BuildingBlock: TEMPAE_clean_linker_10, # of connection points: 2
#     Edge 30, Type (0, 0), BuildingBlock: TEMPAE_clean_linker_10, # of connection points: 2
#     Edge 31, Type (0, 0), BuildingBlock: TEMPAE_clean_linker_10, # of connection points: 2
# Relax obj value: 0.255
# Max RMSD: 0.238
# Mean RMSD: 0.238
data_MOF--net-vmg--node1-IZENUY_clean_sbu_0--edge1-TEMPAE_clean_linker_10
_symmetry_space_group_name_H-M    P1
_symmetry_Int_Tables_number       1
_symmetry_cell_setting            triclinic
loop_
_symmetry_equiv_pos_as_xyz
'x, y, z'
_cell_length_a     28.550019
_cell_length_b     44.912152
_cell_length_c     26.727001
_cell_angle_alpha  90.015724
_cell_angle_beta   101.22647
_cell_angle_gamma 89.946934
loop_
_atom_site_label
_atom_site_type_symbol
_atom_site_fract_x
_atom_site_fract_y
_atom_site_fract_z
_atom_type_partial_charge
Fe0 Fe 0.24893 0.39236 0.19485 0.0
Fe1 Fe 0.17688 0.40457 0.09628 0.0
O2 O 0.22529 0.41631 0.14352 0.0
Fe3 Fe 0.24883 0.45245 0.13918 0.0
O4 O 0.23367 0.46308 0.19858 0.0
O5 O 0.26216 0.42306 0.2423 0.0
O6 O 0.19201 0.38935 0.21433 0.0
C7 C 0.15324 0.38183 0.18637 0.0
C8 C 0.33143 0.41773 0.1795 0.0
O9 O 0.14952 0.38044 0.13845 0.0
C10 C 0.23384 0.43845 0.03967 0.0
O11 O 0.2393 0.35785 0.15505 0.0
O12 O 0.21143 0.37486 0.07748 0.0
O13 O 0.3102 0.44254 0.17071 0.0
O14 O 0.30802 0.39402 0.18014 0.0
C15 C 0.14875 0.46068 0.10527 0.0
O16 O 0.19446 0.42676 0.04454 0.0
O17 O 0.26528 0.4438 0.07872 0.0
C18 C 0.23219 0.35492 0.10662 0.0
O19 O 0.14041 0.43393 0.11358 0.0
O20 O 0.19139 0.46922 0.10702 0.0
C21 C 0.24801 0.45005 0.24043 0.0
Fe22 Fe 0.76045 0.45181 0.37702 0.0
Fe23 Fe 0.77365 0.38992 0.33227 0.0
O24 O 0.78649 0.41587 0.38308 0.0
Fe25 Fe 0.82758 0.40665 0.43955 0.0
O26 O 0.8482 0.44432 0.45274 0.0
O27 O 0.81964 0.46939 0.38378 0.0
O28 O 0.7558 0.45451 0.30862 0.0
C29 C 0.78021 0.44237 0.27985 0.0
C30 C 0.76131 0.43677 0.48041 0.0
O31 O 0.79408 0.41568 0.28739 0.0
C32 C 0.77793 0.35276 0.41495 0.0
O33 O 0.70055 0.43627 0.36859 0.0
O34 O 0.71143 0.4021 0.31245 0.0
O35 O 0.78271 0.41205 0.47916 0.0
O36 O 0.75958 0.45557 0.44479 0.0
C37 C 0.87309 0.38549 0.36474 0.0
O38 O 0.7527 0.36221 0.37365 0.0
O39 O 0.81433 0.36698 0.43665 0.0
C40 C 0.68393 0.41775 0.3339 0.0
O41 O 0.83402 0.37368 0.34334 0.0
O42 O 0.87497 0.40195 0.40339 0.0
C43 C 0.85346 0.46377 0.42065 0.0
Fe44 Fe 0.76068 0.56643 0.88073 0.0
Fe45 Fe 0.75785 0.62678 0.82564 0.0
O46 O 0.78386 0.60249 0.87531 0.0
Fe47 Fe 0.83454 0.61418 0.91995 0.0
O48 O 0.87006 0.58562 0.89845 0.0
O49 O 0.81979 0.54961 0.90587 0.0
O50 O 0.76983 0.55598 0.81871 0.0
C51 C 0.75405 0.56949 0.77777 0.0
C52 C 0.78479 0.57809 0.98071 0.0
O53 O 0.74126 0.59668 0.77749 0.0
C54 C 0.77921 0.66349 0.915 0.0
O55 O 0.69803 0.57689 0.85524 0.0
O56 O 0.70059 0.62538 0.84429 0.0
O57 O 0.82256 0.59048 0.97269 0.0
O58 O 0.75022 0.57433 0.94407 0.0
C59 C 0.85221 0.63769 0.82839 0.0
O60 O 0.77013 0.66094 0.86637 0.0
O61 O 0.80062 0.64306 0.94271 0.0
C62 C 0.67717 0.60187 0.84676 0.0
O63 O 0.81303 0.62924 0.80252 0.0
O64 O 0.85747 0.63983 0.87634 0.0
C65 C 0.86147 0.55836 0.90267 0.0
Fe66 Fe 0.2437 0.6285 0.693 0.0
Fe67 Fe 0.17847 0.61868 0.58908 0.0
O68 O 0.22355 0.60572 0.63921 0.0
Fe69 Fe 0.24734 0.56975 0.63513 0.0
O70 O 0.22742 0.55793 0.69167 0.0
O71 O 0.25365 0.59697 0.73896 0.0
O72 O 0.18461 0.63042 0.70677 0.0
C73 C 0.14772 0.63891 0.67667 0.0
C74 C 0.32812 0.60362 0.6834 0.0
O75 O 0.14818 0.64243 0.62974 0.0
C76 C 0.24009 0.58551 0.53713 0.0
O77 O 0.2368 0.66389 0.65524 0.0
O78 O 0.21597 0.64831 0.57574 0.0
O79 O 0.3072 0.57898 0.67168 0.0
O80 O 0.30466 0.62735 0.68389 0.0
C81 C 0.14838 0.56245 0.59398 0.0
O82 O 0.19976 0.59712 0.53865 0.0
O83 O 0.26866 0.57969 0.57809 0.0
C84 C 0.2342 0.66773 0.60742 0.0
O85 O 0.13906 0.58933 0.6004 0.0
O86 O 0.19133 0.55386 0.5979 0.0
C87 C 0.23885 0.57015 0.73473 0.0
Fe88 Fe 0.72786 0.88979 0.18494 0.0
Fe89 Fe 0.67468 0.90612 0.07716 0.0
O90 O 0.71536 0.91553 0.13381 0.0
Fe91 Fe 0.74146 0.95143 0.13964 0.0
O92 O 0.74569 0.95442 0.20799 0.0
O93 O 0.70711 0.9158 0.22934 0.0
O94 O 0.66751 0.8736 0.17354 0.0
C95 C 0.62852 0.88528 0.1515 0.0
C96 C 0.81766 0.91725 0.18347 0.0
O97 O 0.62695 0.90163 0.11279 0.0
C98 C 0.74126 0.93595 0.03658 0.0
O99 O 0.74921 0.86191 0.14413 0.0
O100 O 0.68798 0.86645 0.0806 0.0
O101 O 0.80131 0.93573 0.1486 0.0
O102 O 0.78996 0.90192 0.20507 0.0
C103 C 0.64865 0.96339 0.09524 0.0
O104 O 0.71992 0.91126 0.03801 0.0
O105 O 0.74276 0.9549 0.07192 0.0
C106 C 0.72439 0.85234 0.10272 0.0
O107 O 0.6541 0.94378 0.06345 0.0
O108 O 0.68227 0.96911 0.13226 0.0
C109 C 0.7212 0.94245 0.23683 0.0
Fe110 Fe 0.25127 0.95254 0.37596 0.0
Fe111 Fe 0.25251 0.89183 0.32257 0.0
O112 O 0.27607 0.91658 0.3727 0.0
Fe113 Fe 0.32573 0.90619 0.41958 0.0
O114 O 0.36007 0.93612 0.4005 0.0
O115 O 0.30783 0.97043 0.40748 0.0
O116 O 0.26594 0.96269 0.31616 0.0
C117 C 0.25202 0.94904 0.27482 0.0
C118 C 0.26729 0.93942 0.4757 0.0
O119 O 0.23832 0.92197 0.27397 0.0
C120 C 0.2744 0.85497 0.4122 0.0
O121 O 0.19032 0.94185 0.34494 0.0
O122 O 0.19365 0.89327 0.33796 0.0
O123 O 0.30718 0.92835 0.47089 0.0
O124 O 0.23545 0.94414 0.4367 0.0
C125 C 0.34871 0.88246 0.32976 0.0
O126 O 0.26336 0.8579 0.36375 0.0
O127 O 0.29409 0.87572 0.44016 0.0
C128 C 0.16969 0.91684 0.33767 0.0
O129 O 0.3091 0.88879 0.30224 0.0
O130 O 0.35382 0.88232 0.37782 0.0
C131 C 0.35072 0.96272 0.40868 0.0
Fe132 Fe 0.25517 0.06916 0.87913 0.0
Fe133 Fe 0.25607 0.12886 0.8241 0.0
O134 O 0.27818 0.10542 0.87644 0.0
Fe135 Fe 0.32434 0.1176 0.92599 0.0
O136 O 0.36291 0.08821 0.91256 0.0
O137 O 0.31104 0.05294 0.91587 0.0
O138 O 0.27536 0.0587 0.82216 0.0
C139 C 0.26208 0.07132 0.77968 0.0
C140 C 0.26278 0.08382 0.97762 0.0
O141 O 0.24557 0.09782 0.77692 0.0
C142 C 0.27061 0.16766 0.91116 0.0
O143 O 0.19525 0.07825 0.8427 0.0
O144 O 0.1956 0.12694 0.83595 0.0
O145 O 0.30309 0.09563 0.97622 0.0
O146 O 0.23403 0.07815 0.93664 0.0
C147 C 0.35246 0.13924 0.83751 0.0
O148 O 0.26366 0.16372 0.86297 0.0
O149 O 0.28867 0.14761 0.94165 0.0
C150 C 0.17306 0.10275 0.8347 0.0
O151 O 0.31448 0.13166 0.80807 0.0
O152 O 0.354 0.14147 0.88508 0.0
C153 C 0.35387 0.06138 0.91926 0.0
Fe154 Fe 0.74494 0.12657 0.69173 0.0
Fe155 Fe 0.6681 0.11519 0.59689 0.0
O156 O 0.71748 0.10256 0.64228 0.0
Fe157 Fe 0.73807 0.06577 0.63826 0.0
O158 O 0.72639 0.0567 0.69991 0.0
O159 O 0.75997 0.0964 0.74017 0.0
O160 O 0.68961 0.13048 0.71459 0.0
C161 C 0.65066 0.13916 0.68821 0.0
C162 C 0.82384 0.09901 0.67138 0.0
O163 O 0.64605 0.14146 0.64029 0.0
C164 C 0.7172 0.07722 0.53791 0.0
O165 O 0.73445 0.16079 0.65105 0.0
O166 O 0.70406 0.14313 0.57465 0.0
O167 O 0.80096 0.07464 0.66534 0.0
O168 O 0.80234 0.12345 0.67273 0.0
C169 C 0.63709 0.06026 0.61346 0.0
O170 O 0.67996 0.09088 0.54469 0.0
O171 O 0.75065 0.07244 0.57539 0.0
C172 C 0.72584 0.16336 0.60247 0.0
O173 O 0.6302 0.08772 0.61754 0.0
O174 O 0.67843 0.05038 0.61165 0.0
C175 C 0.74427 0.06987 0.74059 0.0
C176 C 0.61575 0.40552 0.26316 0.0
C177 C 0.632 0.4173 0.31216 0.0
C178 C 0.5672 0.40594 0.24038 0.0
C179 C 0.53371 0.41795 0.26751 0.0
C180 C 0.54966 0.42957 0.31723 0.0
C181 C 0.59872 0.42936 0.33882 0.0
C182 C 0.55179 0.39372 0.18703 0.0
C183 C 0.51485 0.4421 0.34766 0.0
C184 C 0.41207 0.44197 0.19302 0.0
C185 C 0.38382 0.41711 0.19865 0.0
C186 C 0.46099 0.4425 0.21496 0.0
C187 C 0.48195 0.41781 0.24394 0.0
C188 C 0.45371 0.39259 0.24946 0.0
C189 C 0.40517 0.39244 0.22639 0.0
C190 C 0.4902 0.46953 0.20731 0.0
C191 C 0.4746 0.36594 0.28048 0.0
H192 H 0.64117 0.39642 0.24194 0.0
H193 H 0.61098 0.43845 0.37669 0.0
H194 H 0.5268 0.37485 0.18727 0.0
H195 H 0.5324 0.41111 0.16161 0.0
H196 H 0.58248 0.38586 0.1706 0.0
H197 H 0.53289 0.44997 0.38599 0.0
H198 H 0.49491 0.46099 0.32682 0.0
H199 H 0.48826 0.42486 0.35246 0.0
H200 H 0.39587 0.4611 0.17166 0.0
H201 H 0.38361 0.37323 0.23145 0.0
H202 H 0.5206 0.46287 0.18945 0.0
H203 H 0.50545 0.47973 0.24473 0.0
H204 H 0.46877 0.48662 0.18287 0.0
H205 H 0.50403 0.35624 0.2641 0.0
H206 H 0.44759 0.34833 0.28188 0.0
H207 H 0.49004 0.37294 0.32007 0.0
C208 C 0.606 0.624 0.79063 0.0
C209 C 0.62497 0.60284 0.82773 0.0
C210 C 0.55769 0.62356 0.76713 0.0
C211 C 0.5271 0.60201 0.78218 0.0
C212 C 0.54562 0.58114 0.82079 0.0
C213 C 0.59465 0.58145 0.84252 0.0
C214 C 0.53969 0.64571 0.72521 0.0
C215 C 0.51371 0.55845 0.83894 0.0
C216 C 0.39549 0.62171 0.74978 0.0
C217 C 0.37927 0.60364 0.70715 0.0
C218 C 0.44313 0.62057 0.77564 0.0
C219 C 0.47572 0.60164 0.75739 0.0
C220 C 0.45966 0.58359 0.71391 0.0
C221 C 0.4113 0.5844 0.68983 0.0
C222 C 0.45852 0.63952 0.82266 0.0
C223 C 0.49369 0.56384 0.69234 0.0
H224 H 0.62941 0.64027 0.77831 0.0
H225 H 0.60927 0.56504 0.87106 0.0
H226 H 0.52367 0.63373 0.68967 0.0
H227 H 0.51128 0.65979 0.73592 0.0
H228 H 0.56848 0.66047 0.71704 0.0
H229 H 0.53311 0.54489 0.87117 0.0
H230 H 0.48332 0.5698 0.85129 0.0
H231 H 0.49848 0.54329 0.80718 0.0
H232 H 0.37049 0.63615 0.76388 0.0
H233 H 0.39863 0.57035 0.65699 0.0
H234 H 0.48517 0.65621 0.81578 0.0
H235 H 0.47598 0.62543 0.8551 0.0
H236 H 0.42806 0.65147 0.83386 0.0
H237 H 0.52262 0.57752 0.68175 0.0
H238 H 0.47558 0.55136 0.65811 0.0
H239 H 0.51078 0.54764 0.72158 0.0
C240 C 0.08887 0.94065 0.32416 0.0
C241 C 0.11736 0.91583 0.31886 0.0
C242 C 0.04003 0.94103 0.30213 0.0
C243 C 0.01938 0.91619 0.27343 0.0
C244 C 0.0478 0.89095 0.26839 0.0
C245 C 0.09632 0.89096 0.29155 0.0
C246 C 0.0106 0.9681 0.30926 0.0
C247 C 0.02716 0.86415 0.2377 0.0
C248 C 0.88558 0.9046 0.25413 0.0
C249 C 0.86953 0.91641 0.20512 0.0
C250 C 0.93412 0.90463 0.27684 0.0
C251 C 0.96774 0.91629 0.24962 0.0
C252 C 0.95202 0.92788 0.19985 0.0
C253 C 0.90297 0.92805 0.17831 0.0
C254 C 0.94934 0.89248 0.33026 0.0
C255 C 0.98702 0.94006 0.16938 0.0
H256 H 0.10487 0.95992 0.34524 0.0
H257 H 0.11812 0.87178 0.28679 0.0
H258 H 0.99555 0.97816 0.27166 0.0
H259 H 0.98005 0.96151 0.32692 0.0
H260 H 0.03181 0.98528 0.33365 0.0
H261 H 0.05423 0.84646 0.23692 0.0
H262 H 0.9975 0.85464 0.25388 0.0
H263 H 0.01208 0.87093 0.1979 0.0
H264 H 0.86002 0.8958 0.27542 0.0
H265 H 0.89084 0.93713 0.14042 0.0
H266 H 0.96851 0.90994 0.35569 0.0
H267 H 0.97449 0.87364 0.33027 0.0
H268 H 0.91859 0.88462 0.34653 0.0
H269 H 0.00685 0.95907 0.18991 0.0
H270 H 0.96916 0.94768 0.13082 0.0
H271 H 0.01368 0.92272 0.16511 0.0
C272 C 0.08915 0.12088 0.82774 0.0
C273 C 0.12204 0.10225 0.81063 0.0
C274 C 0.04054 0.1203 0.80428 0.0
C275 C 0.02515 0.10158 0.76146 0.0
C276 C 0.05876 0.08337 0.74331 0.0
C277 C 0.10663 0.08352 0.76874 0.0
C278 C 0.00557 0.13929 0.82583 0.0
C279 C 0.04429 0.06392 0.69677 0.0
C280 C 0.89539 0.07721 0.72729 0.0
C281 C 0.87596 0.09832 0.6904 0.0
C282 C 0.9437 0.07829 0.75115 0.0
C283 C 0.97373 0.10036 0.73643 0.0
C284 C 0.95459 0.12111 0.69784 0.0
C285 C 0.90561 0.12024 0.67604 0.0
C286 C 0.96222 0.05636 0.79321 0.0
C287 C 0.98577 0.14427 0.67975 0.0
H288 H 0.1013 0.13538 0.8601 0.0
H289 H 0.1324 0.06949 0.75503 0.0
H290 H 0.98776 0.15528 0.79661 0.0
H291 H 0.97728 0.12501 0.83636 0.0
H292 H 0.02306 0.15198 0.86008 0.0
H293 H 0.07534 0.05256 0.68572 0.0
H294 H 0.0186 0.04673 0.70413 0.0
H295 H 0.026 0.07752 0.66407 0.0
H296 H 0.87223 0.06063 0.73922 0.0
H297 H 0.89045 0.13664 0.6477 0.0
H298 H 0.97762 0.06852 0.82876 0.0
H299 H 0.99122 0.04268 0.78278 0.0
H300 H 0.93383 0.0412 0.80121 0.0
H301 H 1.00011 0.15972 0.71139 0.0
H302 H 0.96605 0.15749 0.64722 0.0
H303 H 0.01678 0.1334 0.66785 0.0
C304 C 0.25822 0.32932 0.03461 0.0
C305 C 0.24368 0.32718 0.08172 0.0
C306 C 0.26279 0.304 1.00533 0.0
C307 C 0.25186 0.27569 0.02311 0.0
C308 C 0.23811 0.27323 0.07125 0.0
C309 C 0.23456 0.29907 0.1003 0.0
C310 C 0.27876 0.30763 0.955 0.0
C311 C 0.22599 0.24341 0.09136 0.0
C312 C 0.22339 0.21315 0.92481 0.0
C313 C 0.26637 0.19727 0.93385 0.0
C314 C 0.21791 0.23873 0.95381 0.0
C315 C 0.25658 0.24867 0.99194 0.0
C316 C 0.30052 0.23318 0.99961 0.0
C317 C 0.3047 0.20761 0.97081 0.0
C318 C 0.17043 0.25461 0.94472 0.0
C319 C 0.343 0.24332 0.03884 0.0
H320 H 0.26535 0.35109 0.02019 0.0
H321 H 0.22262 0.29742 0.1363 0.0
H322 H 0.31121 0.29405 0.95479 0.0
H323 H 0.25058 0.29944 0.92344 0.0
H324 H 0.28678 0.33118 0.94714 0.0
H325 H 0.21551 0.24526 0.12915 0.0
H326 H 0.19617 0.23306 0.06405 0.0
H327 H 0.25706 0.22818 0.09491 0.0
H328 H 0.19356 0.20485 0.89685 0.0
H329 H 0.33799 0.19524 0.97782 0.0
H330 H 0.17515 0.27823 0.93461 0.0
H331 H 0.15577 0.25453 0.98025 0.0
H332 H 0.14398 0.24414 0.91374 0.0
H333 H 0.35205 0.2667 0.03126 0.0
H334 H 0.37504 0.22923 0.03904 0.0
H335 H 0.33414 0.24272 0.07744 0.0
C336 C 0.72203 0.31282 0.43495 0.0
C337 C 0.76843 0.3238 0.438 0.0
C338 C 0.7137 0.28714 0.46246 0.0
C339 C 0.75275 0.27193 0.49295 0.0
C340 C 0.79966 0.28256 0.49484 0.0
C341 C 0.80683 0.30832 0.46771 0.0
C342 C 0.66312 0.27659 0.45968 0.0
C343 C 0.84247 0.26678 0.52576 0.0
C344 C 0.73621 0.21918 0.6006 0.0
C345 C 0.73554 0.19137 0.57663 0.0
C346 C 0.7406 0.24569 0.57353 0.0
C347 C 0.74524 0.24429 0.52162 0.0
C348 C 0.74553 0.21619 0.49774 0.0
C349 C 0.74041 0.19023 0.52534 0.0
C350 C 0.73989 0.27522 0.60029 0.0
C351 C 0.75157 0.2135 0.44301 0.0
H352 H 0.69221 0.32484 0.41257 0.0
H353 H 0.8429 0.31651 0.47005 0.0
H354 H 0.6592 0.25346 0.44486 0.0
H355 H 0.65469 0.27626 0.4985 0.0
H356 H 0.63666 0.29097 0.43479 0.0
H357 H 0.87667 0.27775 0.52275 0.0
H358 H 0.83954 0.26617 0.56653 0.0
H359 H 0.8436 0.24338 0.51272 0.0
H360 H 0.73194 0.22026 0.63997 0.0
H361 H 0.74019 0.16881 0.50655 0.0
H362 H 0.71109 0.28951 0.57886 0.0
H363 H 0.77414 0.28706 0.60128 0.0
H364 H 0.7342 0.27265 0.64001 0.0
H365 H 0.72299 0.2261 0.41761 0.0
H366 H 0.7505 0.19 0.42985 0.0
H367 H 0.78618 0.22338 0.43873 0.0
C368 C 0.78122 0.81309 0.08234 0.0
C369 C 0.73452 0.82345 0.07992 0.0
C370 C 0.79012 0.78756 0.05474 0.0
C371 C 0.75135 0.77187 0.0248 0.0
C372 C 0.70415 0.78185 0.0236 0.0
C373 C 0.69641 0.80749 0.05078 0.0
C374 C 0.84098 0.7777 0.05677 0.0
C375 C 0.66165 0.76551 0.99335 0.0
C376 C 0.76803 0.7193 0.9169 0.0
C377 C 0.76985 0.69151 0.94108 0.0
C378 C 0.76328 0.74577 0.94398 0.0
C379 C 0.75948 0.74433 0.99613 0.0
C380 C 0.76051 0.71627 0.02029 0.0
C381 C 0.76592 0.69035 0.99266 0.0
C382 C 0.76259 0.77529 0.91693 0.0
C383 C 0.75542 0.71353 0.07532 0.0
H384 H 0.8108 0.82551 0.10425 0.0
H385 H 0.66013 0.81525 0.04891 0.0
H386 H 0.84596 0.75463 0.07164 0.0
H387 H 0.84886 0.77754 0.01772 0.0
H388 H 0.86715 0.79242 0.08126 0.0
H389 H 0.62719 0.776 0.99686 0.0
H390 H 0.66402 0.76495 0.95243 0.0
H391 H 0.66158 0.74209 1.00656 0.0
H392 H 0.77151 0.7204 0.87727 0.0
H393 H 0.76697 0.66896 0.01165 0.0
H394 H 0.79095 0.79 0.93797 0.0
H395 H 0.72793 0.78663 0.9162 0.0
H396 H 0.76799 0.77278 0.87709 0.0
H397 H 0.78371 0.72659 0.1002 0.0
H398 H 0.7577 0.69006 0.08874 0.0
H399 H 0.72055 0.72285 0.08009 0.0
C400 C 0.26944 0.69506 0.54351 0.0
C401 C 0.24685 0.69614 0.58562 0.0
C402 C 0.27409 0.72057 0.51471 0.0
C403 C 0.25493 0.74791 0.52771 0.0
C404 C 0.23308 0.74936 0.57108 0.0
C405 C 0.22959 0.72341 0.59986 0.0
C406 C 0.29872 0.71809 0.4697 0.0
C407 C 0.21205 0.77809 0.58601 0.0
C408 C 0.3045 0.81884 0.48127 0.0
C409 C 0.26993 0.82618 0.438 0.0
C410 C 0.29996 0.79354 0.51054 0.0
C411 C 0.25946 0.77508 0.4968 0.0
C412 C 0.22459 0.78204 0.45271 0.0
C413 C 0.23045 0.80745 0.42346 0.0
C414 C 0.33858 0.78664 0.55635 0.0
C415 C 0.18076 0.76293 0.43705 0.0
H416 H 0.28249 0.67387 0.53228 0.0
H417 H 0.21118 0.72413 0.6317 0.0
H418 H 0.27339 0.72389 0.43405 0.0
H419 H 0.3288 0.73411 0.47391 0.0
H420 H 0.31281 0.69534 0.46555 0.0
H421 H 0.19638 0.77558 0.6207 0.0
H422 H 0.23992 0.79561 0.59316 0.0
H423 H 0.18379 0.78597 0.5542 0.0
H424 H 0.33538 0.83311 0.49251 0.0
H425 H 0.20347 0.81322 0.39042 0.0
H426 H 0.35376 0.76424 0.55215 0.0
H427 H 0.32324 0.78625 0.59141 0.0
H428 H 0.36806 0.80317 0.56162 0.0
H429 H 0.19138 0.73987 0.42933 0.0
H430 H 0.15657 0.77161 0.40246 0.0
H431 H 0.16074 0.76175 0.46866 0.0
C432 C 0.90071 0.51843 0.95965 0.0
C433 C 0.90288 0.53932 0.92132 0.0
C434 C 0.94252 0.50592 0.98776 0.0
C435 C 0.98713 0.5142 0.9764 0.0
C436 C 0.98924 0.53368 0.93537 0.0
C437 C 0.94692 0.54618 0.90839 0.0
C438 C 0.93911 0.48492 0.03108 0.0
C439 C 0.03622 0.54232 0.92146 0.0
C440 C 0.09461 0.50445 0.08341 0.0
C441 C 0.11015 0.47633 0.07158 0.0
C442 C 0.05479 0.51755 0.05193 0.0
C443 C 0.03151 0.50225 1.00754 0.0
C444 C 0.04893 0.47454 0.99437 0.0
C445 C 0.08764 0.46173 0.02701 0.0
C446 C 0.03654 0.54712 0.067 0.0
C447 C 0.02578 0.45792 0.94678 0.0
H448 H 0.86672 0.5134 0.97009 0.0
H449 H 0.94842 0.5624 0.87867 0.0
H450 H 0.95552 0.46318 0.02487 0.0
H451 H 0.95928 0.49412 0.0675 0.0
H452 H 0.9016 0.48103 0.03511 0.0
H453 H 0.03123 0.55574 0.88589 0.0
H454 H 0.0576 0.55553 0.95289 0.0
H455 H 0.05731 0.52217 0.91641 0.0
H456 H 0.11235 0.51556 0.11794 0.0
H457 H 0.10014 0.43996 0.01788 0.0
H458 H 1.0001 0.54429 0.07505 0.0
H459 H 0.03386 0.56323 0.0351 0.0
H460 H 0.05992 0.55671 0.10132 0.0
H461 H 0.98955 0.45052 0.95045 0.0
H462 H 0.04677 0.43805 0.93967 0.0
H463 H 0.02162 0.47274 0.91299 0.0
C464 C 0.06518 0.54456 0.57974 0.0
C465 C 0.10939 0.54487 0.56475 0.0
C466 C 0.02492 0.53269 0.54771 0.0
C467 C 0.02884 0.52196 0.49879 0.0
C468 C 0.07352 0.52245 0.48337 0.0
C469 C 0.11354 0.53361 0.51695 0.0
C470 C 0.9784 0.53122 0.56661 0.0
C471 C 0.07893 0.51219 0.43099 0.0
C472 C 0.93953 0.46214 0.45458 0.0
C473 C 0.90027 0.47857 0.4289 0.0
C474 C 0.98288 0.47574 0.47425 0.0
C475 C 0.9875 0.50664 0.46739 0.0
C476 C 0.94993 0.52287 0.43657 0.0
C477 C 0.90611 0.50859 0.41771 0.0
C478 C 0.02221 0.45742 0.50611 0.0
C479 C 0.9552 0.55555 0.42611 0.0
H480 H 0.06214 0.5539 0.61641 0.0
H481 H 0.14758 0.53486 0.50485 0.0
H482 H 0.95021 0.54366 0.54045 0.0
H483 H 0.96647 0.50772 0.5671 0.0
H484 H 0.98155 0.54058 0.60561 0.0
H485 H 0.11686 0.50785 0.42932 0.0
H486 H 0.05805 0.49171 0.41906 0.0
H487 H 0.06524 0.52985 0.40289 0.0
H488 H 0.93559 0.43864 0.46206 0.0
H489 H 0.87603 0.52117 0.39712 0.0
H490 H 0.02864 0.46529 0.54624 0.0
H491 H 0.05601 0.46012 0.49205 0.0
H492 H 0.01338 0.43332 0.50564 0.0
H493 H 0.95351 0.56856 0.46099 0.0
H494 H 0.92658 0.56362 0.39475 0.0
H495 H 0.99046 0.55993 0.41595 0.0
C496 C 0.56269 0.96176 0.06089 0.0
C497 C 0.60186 0.97824 0.0865 0.0
C498 C 0.51938 0.97533 0.04084 0.0
C499 C 0.51472 1.00628 0.04719 0.0
C500 C 0.5522 0.02262 0.07788 0.0
C501 C 0.59597 1.00834 0.09716 0.0
C502 C 0.48014 0.9569 0.00916 0.0
C503 C 0.54688 0.05537 0.08775 0.0
C504 C 0.4372 0.04358 0.93402 0.0
C505 C 0.39293 0.04399 0.94885 0.0
C506 C 0.47746 0.0319 0.96637 0.0
C507 C 0.47344 0.02148 0.01544 0.0
C508 C 0.42871 0.0221 0.03072 0.0
C509 C 0.3887 0.03303 0.99681 0.0
C510 C 0.52405 0.03026 0.94765 0.0
C511 C 0.42319 0.0122 0.08325 0.0
H512 H 0.56667 0.93821 0.05379 0.0
H513 H 0.62599 0.02098 0.11767 0.0
H514 H 0.44628 0.95972 0.02311 0.0
H515 H 0.47377 0.96457 0.96892 0.0
H516 H 0.48901 0.93279 0.01 0.0
H517 H 0.57542 0.06357 0.11905 0.0
H518 H 0.54868 0.06816 0.05268 0.0
H519 H 0.51156 0.0599 0.09769 0.0
H520 H 0.4403 0.0527 0.89722 0.0
H521 H 0.3546 0.03435 0.00876 0.0
H522 H 0.53605 1.00674 0.94756 0.0
H523 H 0.55217 0.0428 0.9737 0.0
H524 H 0.52099 0.03941 0.90852 0.0
H525 H 0.38523 1.00801 0.08494 0.0
H526 H 0.4369 0.02999 0.11107 0.0
H527 H 0.444 0.99173 0.09554 0.0
C528 C 0.40382 1.00696 0.42966 0.0
C529 C 0.38866 0.9789 0.44224 0.0
C530 C 0.44315 0.02056 0.46108 0.0
C531 C 0.46627 1.00584 0.50616 0.0
C532 C 0.44913 0.97823 0.52007 0.0
C533 C 0.41101 0.96489 0.48745 0.0
C534 C 0.46118 0.04996 0.44515 0.0
C535 C 0.47213 0.9622 0.56837 0.0
C536 C 0.59703 0.02122 0.5552 0.0
C537 C 0.59489 0.04223 0.59338 0.0
C538 C 0.5552 0.00921 0.52641 0.0
C539 C 0.51053 0.01804 0.53703 0.0
C540 C 0.50832 0.03785 0.5776 0.0
C541 C 0.55071 0.04995 0.60515 0.0
C542 C 0.55873 0.98797 0.48343 0.0
C543 C 0.46123 0.04702 0.59074 0.0
H544 H 0.38622 0.01759 0.3946 0.0
H545 H 0.39895 0.94311 0.49704 0.0
H546 H 0.46384 0.06639 0.47657 0.0
H547 H 0.4976 0.04701 0.43709 0.0
H548 H 0.4377 0.05922 0.41058 0.0
H549 H 0.451 0.94258 0.57624 0.0
H550 H 0.50831 0.95449 0.56502 0.0
H551 H 0.47635 0.97749 0.60156 0.0
H552 H 0.63115 0.0156 0.54558 0.0
H553 H 0.54924 0.06631 0.63468 0.0
H554 H 0.5389 0.99708 0.44679 0.0
H555 H 0.54206 0.96635 0.48976 0.0
H556 H 0.59629 0.98383 0.47975 0.0
H557 H 0.43996 0.05972 0.55855 0.0
H558 H 0.46605 0.06107 0.62558 0.0
H559 H 0.44011 0.02706 0.59672 0.0
C560 C 0.11735 0.36522 0.25993 0.0
C561 C 0.11123 0.37651 0.21015 0.0
C562 C 0.07894 0.36381 0.28573 0.0
C563 C 0.03363 0.37491 0.26188 0.0
C564 C 0.02704 0.38581 0.21117 0.0
C565 C 0.06576 0.38605 0.18565 0.0
C566 C 0.08724 0.35124 0.33912 0.0
C567 C 0.97972 0.3986 0.18476 0.0
C568 C 0.92097 0.3562 0.31227 0.0
C569 C 0.91629 0.38124 0.34232 0.0
C570 C 0.95971 0.3534 0.28709 0.0
C571 C 0.99386 0.37659 0.29082 0.0
C572 C 0.98948 0.40179 0.32154 0.0
C573 C 0.9511 0.40363 0.3473 0.0
C574 C 0.96379 0.3258 0.25598 0.0
C575 C 0.02441 0.42735 0.32588 0.0
H576 H 0.15248 0.35785 0.27902 0.0
H577 H 0.06106 0.39526 0.1475 0.0
H578 H 0.08426 0.36926 0.36671 0.0
H579 H 0.05959 0.33439 0.34237 0.0
H580 H 0.12302 0.34076 0.35022 0.0
H581 H 0.98003 0.40543 0.14488 0.0
H582 H 0.95082 0.38206 0.18432 0.0
H583 H 0.97084 0.41833 0.20614 0.0
H584 H 0.89418 0.33882 0.30825 0.0
H585 H 0.94726 0.42328 0.36965 0.0
H586 H 0.99965 0.31562 0.26806 0.0
H587 H 0.95987 0.33179 0.21512 0.0
H588 H 0.93627 0.30893 0.25978 0.0
H589 H 0.06126 0.41926 0.34037 0.0
H590 H 0.01626 0.44519 0.35172 0.0
H591 H 0.0237 0.43712 0.2876 0.0
C592 C 0.09631 0.62425 0.73736 0.0
C593 C 0.10333 0.6425 0.69684 0.0
C594 C 0.05434 0.62589 0.75695 0.0
C595 C 0.01882 0.64693 0.73657 0.0
C596 C 0.02598 0.66587 0.69624 0.0
C597 C 0.06792 0.66308 0.67617 0.0
C598 C 0.04765 0.60456 0.79877 0.0
C599 C 0.98939 0.68905 0.67444 0.0
C600 C 0.89434 0.62812 0.7567 0.0
C601 C 0.89276 0.64308 0.80246 0.0
C602 C 0.9345 0.63 0.73386 0.0
C603 C 0.97361 0.64798 0.75654 0.0
C604 C 0.97121 0.66436 0.80134 0.0
C605 C 0.9311 0.66133 0.82428 0.0
C606 C 0.93611 0.61135 0.68716 0.0
C607 C 0.01172 0.68429 0.82599 0.0
H608 H 0.12331 0.60798 0.75299 0.0
H609 H 0.07335 0.67724 0.64497 0.0
H610 H 0.04279 0.61711 0.83313 0.0
H611 H 0.01493 0.59107 0.7861 0.0
H612 H 0.07845 0.58918 0.80978 0.0
H613 H 0.00147 0.70316 0.64526 0.0
H614 H 0.95541 0.67809 0.65671 0.0
H615 H 0.98166 0.7036 0.70543 0.0
H616 H 0.86501 0.6137 0.73991 0.0
H617 H 0.92992 0.67303 0.8595 0.0
H618 H 0.96448 0.59421 0.69661 0.0
H619 H 0.94521 0.62536 0.65627 0.0
H620 H 0.90165 0.59994 0.6725 0.0
H621 H 0.04301 0.67051 0.84308 0.0
H622 H 0.00182 0.69842 0.85644 0.0
H623 H 0.02294 0.69891 0.79698 0.0
C624 C 0.38378 0.86563 0.25566 0.0
C625 C 0.39029 0.87721 0.30528 0.0
C626 C 0.42195 0.86398 0.22953 0.0
C627 C 0.46735 0.87511 0.25292 0.0
C628 C 0.47431 0.88633 0.30342 0.0
C629 C 0.43586 0.88682 0.32925 0.0
C630 C 0.41332 0.8511 0.17635 0.0
C631 C 0.52177 0.89912 0.32932 0.0
C632 C 0.58015 0.85601 0.20327 0.0
C633 C 0.585 0.88099 0.1732 0.0
C634 C 0.54114 0.85328 0.228 0.0
C635 C 0.50691 0.87647 0.22376 0.0
C636 C 0.51135 0.90155 0.19285 0.0
C637 C 0.55001 0.90333 0.16756 0.0
C638 C 0.53699 0.8258 0.25936 0.0
C639 C 0.4763 0.92711 0.188 0.0
H640 H 0.3486 0.85817 0.23699 0.0
H641 H 0.44088 0.89622 0.3673 0.0
H642 H 0.41623 0.86892 0.14841 0.0
H643 H 0.44086 0.83411 0.17323 0.0
H644 H 0.37748 0.84069 0.16564 0.0
H645 H 0.52167 0.90634 0.36906 0.0
H646 H 0.55055 0.88244 0.33005 0.0
H647 H 0.53067 0.9186 0.30739 0.0
H648 H 0.60708 0.83867 0.20774 0.0
H649 H 0.55398 0.92293 0.14516 0.0
H650 H 0.50102 0.81577 0.24761 0.0
H651 H 0.54123 0.83193 0.3002 0.0
H652 H 0.56431 0.80877 0.2555 0.0
H653 H 0.43944 0.91894 0.17395 0.0
H654 H 0.48423 0.94469 0.16161 0.0
H655 H 0.47718 0.93724 0.22605 0.0
C656 C 0.60554 0.12743 0.75677 0.0
C657 C 0.60919 0.144 0.71317 0.0
C658 C 0.56442 0.12882 0.7782 0.0
C659 C 0.52645 0.148 0.75653 0.0
C660 C 0.53085 0.16583 0.71389 0.0
C661 C 0.5718 0.16321 0.69211 0.0
C662 C 0.56072 0.10862 0.82245 0.0
C663 C 0.49177 0.18713 0.69051 0.0
C664 C 0.40167 0.12647 0.77319 0.0
C665 C 0.39612 0.14331 0.81592 0.0
C666 C 0.44371 0.12793 0.7535 0.0
C667 C 0.4808 0.14745 0.776 0.0
C668 C 0.47488 0.16522 0.81825 0.0
C669 C 0.43293 0.16253 0.83834 0.0
C670 C 0.44897 0.1078 0.70959 0.0
C671 C 0.51301 0.18689 0.84239 0.0
H672 H 0.63403 0.11221 0.77282 0.0
H673 H 0.5745 0.1761 0.6585 0.0
H674 H 0.55263 0.12178 0.85483 0.0
H675 H 0.53087 0.0927 0.81084 0.0
H676 H 0.59403 0.09574 0.83595 0.0
H677 H 0.5029 0.20182 0.66149 0.0
H678 H 0.45977 0.17444 0.67197 0.0
H679 H 0.48112 0.20121 0.72056 0.0
H680 H 0.37363 0.11123 0.75612 0.0
H681 H 0.42875 0.17562 0.87128 0.0
H682 H 0.48037 0.09299 0.72112 0.0
H683 H 0.4554 0.12123 0.67678 0.0
H684 H 0.41691 0.09372 0.69665 0.0
H685 H 0.5458 0.1746 0.85998 0.0
H686 H 0.50145 0.20075 0.87222 0.0
H687 H 0.52261 0.20178 0.81282 0.0
C688 C 0.19455 0.46151 0.95694 0.0
C689 C 0.2366 0.45451 0.99182 0.0
C690 C 0.19515 0.48105 0.91612 0.0
C691 C 0.23905 0.49332 0.90905 0.0
C692 C 0.28189 0.48547 0.9429 0.0
C693 C 0.2801 0.46636 0.98413 0.0
C694 C 0.14858 0.4891 0.88128 0.0
C695 C 0.32952 0.49761 0.93599 0.0
C696 C 0.24403 0.52015 0.77575 0.0
C697 C 0.24008 0.55117 0.78033 0.0
C698 C 0.24455 0.50124 0.8175 0.0
C699 C 0.24027 0.51351 0.8651 0.0
C700 C 0.23636 0.54482 0.87021 0.0
C701 C 0.23679 0.56335 0.82779 0.0
C702 C 0.24943 0.46807 0.81052 0.0
C703 C 0.23094 0.55864 0.92024 0.0
H704 H 0.16069 0.45271 0.96265 0.0
H705 H 0.31271 0.46113 0.01093 0.0
H706 H 0.14969 0.48261 0.84149 0.0
H707 H 0.1174 0.4781 0.89264 0.0
H708 H 0.14311 0.51356 0.88156 0.0
H709 H 0.35962 0.48888 0.96501 0.0
H710 H 0.33586 0.49177 0.89751 0.0
H711 H 0.3294 0.52226 0.93859 0.0
H712 H 0.24712 0.51052 0.73933 0.0
H713 H 0.23349 0.58727 0.83145 0.0
H714 H 0.21722 0.4565 0.81812 0.0
H715 H 0.2805 0.45943 0.83829 0.0
H716 H 0.25414 0.46219 0.77143 0.0
H717 H 0.19812 0.55006 0.93165 0.0
H718 H 0.22879 0.58332 0.91813 0.0
H719 H 0.26157 0.55229 0.95069 0.0
C720 C 0.71091 0.46752 0.52573 0.0
C721 C 0.75045 0.44861 0.52838 0.0
C722 C 0.70696 0.48677 0.56606 0.0
C723 C 0.74387 0.48747 0.60986 0.0
C724 C 0.78253 0.46715 0.61402 0.0
C725 C 0.78522 0.44778 0.57324 0.0
C726 C 0.66467 0.50756 0.56046 0.0
C727 C 0.82263 0.46721 0.6601 0.0
C728 C 0.76439 0.55897 0.68846 0.0
C729 C 0.74533 0.55119 0.73104 0.0
C730 C 0.76366 0.53854 0.64826 0.0
C731 C 0.74269 0.51002 0.65064 0.0
C732 C 0.72144 0.50278 0.69262 0.0
C733 C 0.72341 0.52333 0.73243 0.0
C734 C 0.78702 0.54701 0.60427 0.0
C735 C 0.698 0.47294 0.69634 0.0
H736 H 0.68434 0.46844 0.4907 0.0
H737 H 0.81641 0.43375 0.57487 0.0
H738 H 0.64818 0.50641 0.59472 0.0
H739 H 0.67674 0.53082 0.55718 0.0
H740 H 0.63699 0.50232 0.52626 0.0
H741 H 0.84855 0.44888 0.65889 0.0
H742 H 0.84198 0.48873 0.66219 0.0
H743 H 0.80817 0.46506 0.69555 0.0
H744 H 0.78202 0.58031 0.68787 0.0
H745 H 0.70875 0.51733 0.76557 0.0
H746 H 0.76118 0.54464 0.56769 0.0
H747 H 0.81726 0.53171 0.60277 0.0
H748 H 0.80069 0.57022 0.60747 0.0
H749 H 0.67093 0.46859 0.6613 0.0
H750 H 0.68038 0.47156 0.72985 0.0
H751 H 0.72515 0.455 0.69947 0.0
C752 C 0.79664 0.4479 0.19047 0.0
C753 C 0.7896 0.46048 0.23642 0.0
C754 C 0.79963 0.46621 0.14822 0.0
C755 C 0.79566 0.49761 0.15243 0.0
C756 C 0.7911 0.51028 0.19961 0.0
C757 C 0.78827 0.49165 0.24079 0.0
C758 C 0.80523 0.45196 0.09862 0.0
C759 C 0.78715 0.54357 0.20618 0.0
C760 C 0.83155 0.55211 0.05757 0.0
C761 C 0.78714 0.55941 0.02705 0.0
C762 C 0.83513 0.53122 0.09729 0.0
C763 C 0.79329 0.5175 0.10729 0.0
C764 C 0.74836 0.52495 0.07697 0.0
C765 C 0.74585 0.54572 0.03721 0.0
C766 C 0.8837 0.52394 0.12869 0.0
C767 C 0.70279 0.51114 0.08679 0.0
H768 H 0.79797 0.42389 0.18693 0.0
H769 H 0.78389 0.50164 0.27654 0.0
H770 H 0.77218 0.45544 0.06959 0.0
H771 H 0.83493 0.46259 0.08396 0.0
H772 H 0.81225 0.42767 0.10275 0.0
H773 H 0.78642 0.54992 0.2462 0.0
H774 H 0.81761 0.55506 0.19436 0.0
H775 H 0.75398 0.55188 0.18134 0.0
H776 H 0.86385 0.56209 0.04956 0.0
H777 H 0.71147 0.55099 0.01364 0.0
H778 H 0.88955 0.4995 0.12981 0.0
H779 H 0.88566 0.53146 0.16858 0.0
H780 H 0.91306 0.53471 0.11351 0.0
H781 H 0.70539 0.4865 0.08586 0.0
H782 H 0.67098 0.51825 0.05839 0.0
H783 H 0.69734 0.51746 0.12539 0.0
C784 C 0.24117 0.45879 0.3314 0.0
C785 C 0.25449 0.46872 0.2866 0.0
C786 C 0.24155 0.47846 0.3725 0.0
C787 C 0.25652 0.50838 0.36869 0.0
C788 C 0.27227 0.51792 0.32439 0.0
C789 C 0.27065 0.49805 0.28378 0.0
C790 C 0.22412 0.46763 0.41909 0.0
C791 C 0.28953 0.54935 0.31919 0.0
C792 C 0.20942 0.56732 0.44817 0.0
C793 C 0.2472 0.56987 0.49026 0.0
C794 C 0.21214 0.54752 0.40818 0.0
C795 C 0.25387 0.53015 0.40998 0.0
C796 C 0.29313 0.53385 0.45083 0.0
C797 C 0.28935 0.55366 0.49043 0.0
C798 C 0.16994 0.54475 0.36451 0.0
C799 C 0.33862 0.51621 0.45348 0.0
H800 H 0.2284 0.43617 0.33333 0.0
H801 H 0.28149 0.50564 0.24922 0.0
H802 H 0.25164 0.47168 0.45386 0.0
H803 H 0.19179 0.48032 0.4234 0.0
H804 H 0.21523 0.44353 0.41687 0.0
H805 H 0.30418 0.55245 0.28396 0.0
H806 H 0.25959 0.56521 0.31828 0.0
H807 H 0.3176 0.55525 0.35258 0.0
H808 H 0.17675 0.57975 0.44752 0.0
H809 H 0.31891 0.55558 0.52257 0.0
H810 H 0.15931 0.52107 0.35836 0.0
H811 H 0.18 0.55282 0.32884 0.0
H812 H 0.1386 0.55776 0.37112 0.0
H813 H 0.33113 0.49213 0.45674 0.0
H814 H 0.36674 0.52279 0.48647 0.0
H815 H 0.35267 0.51928 0.41794 0.0
C816 C 0.71533 0.94807 0.94465 0.0
C817 C 0.75148 0.94769 0.98836 0.0
C818 C 0.71766 0.96774 0.90424 0.0
C819 C 0.75744 0.98706 0.90748 0.0
C820 C 0.79561 0.98508 0.94995 0.0
C821 C 0.79192 0.96564 0.9901 0.0
C822 C 0.67612 0.96924 0.85969 0.0
C823 C 0.83911 1.00473 0.95441 0.0
C824 C 0.77442 0.02308 0.78392 0.0
C825 C 0.75404 0.0513 0.78694 0.0
C826 C 0.77717 1.00236 0.82354 0.0
C827 C 0.75845 0.00986 0.86712 0.0
C828 C 0.73935 0.03879 0.87124 0.0
C829 C 0.73765 0.05934 0.83106 0.0
C830 C 0.79849 0.97204 0.81786 0.0
C831 C 0.71885 0.04757 0.91707 0.0
H832 H 0.68344 0.93484 0.94387 0.0
H833 H 0.8195 0.96568 0.02434 0.0
H834 H 0.65845 0.99129 0.85917 0.0
H835 H 0.68885 0.96693 0.82323 0.0
H836 H 0.64916 0.95165 0.86152 0.0
H837 H 0.86756 0.99843 0.98731 0.0
H838 H 0.85392 1.00355 0.91904 0.0
H839 H 0.82888 0.02824 0.95929 0.0
H840 H 0.78713 0.01692 0.74964 0.0
H841 H 0.72131 0.08101 0.83298 0.0
H842 H 0.77038 0.95476 0.81525 0.0
H843 H 0.82632 0.96681 0.85185 0.0
H844 H 0.81464 0.97052 0.78333 0.0
H845 H 0.68778 0.03319 0.91949 0.0
H846 H 0.70706 0.07119 0.91541 0.0
H847 H 0.74576 0.04412 0.95257 0.0
C848 C 0.26308 0.0651 0.68634 0.0
C849 C 0.25951 0.05273 0.73354 0.0
C850 C 0.26326 0.04669 0.64369 0.0
C851 C 0.25886 0.01539 0.64845 0.0
C852 C 0.25392 1.00301 0.69572 0.0
C853 C 0.25462 0.02176 0.73763 0.0
C854 C 0.26925 0.06059 0.59394 0.0
C855 C 0.24852 0.96984 0.7023 0.0
C856 C 0.22034 0.96781 0.52995 0.0
C857 C 0.26403 0.95576 0.52313 0.0
C858 C 0.2181 0.9873 0.57052 0.0
C859 C 0.26065 0.99526 0.60466 0.0
C860 C 0.30473 0.9828 0.59851 0.0
C861 C 0.30579 0.96291 0.55828 0.0
C862 C 0.1703 0.99969 0.57649 0.0
C863 C 0.35099 0.9909 0.63385 0.0
H864 H 0.26705 0.08899 0.68315 0.0
H865 H 0.25119 0.01205 0.77387 0.0
H866 H 0.30256 0.05224 0.58325 0.0
H867 H 0.23918 0.05407 0.56299 0.0
H868 H 0.27092 0.08528 0.59609 0.0
H869 H 0.24299 0.96392 0.74109 0.0
H870 H 0.21779 0.96137 0.67392 0.0
H871 H 0.28091 0.95814 0.69538 0.0
H872 H 0.18793 0.96245 0.50293 0.0
H873 H 0.33978 0.95391 0.5533 0.0
H874 H 0.17071 0.02434 0.57404 0.0
H875 H 0.16319 0.99386 0.61466 0.0
H876 H 0.14051 0.99111 0.54695 0.0
H877 H 0.35624 0.01537 0.6339 0.0
H878 H 0.38244 0.98005 0.62274 0.0
H879 H 0.34953 0.98422 0.67347 0.0
C880 C 0.26084 0.95709 0.18424 0.0
C881 C 0.2457 0.96716 0.228 0.0
C882 C 0.26136 0.97656 0.14303 0.0
C883 C 0.24564 1.00643 0.14574 0.0
C884 C 0.22815 0.01608 0.18896 0.0
C885 C 0.22871 0.9964 0.22962 0.0
C886 C 0.28056 0.96558 0.0976 0.0
C887 C 0.21019 0.04747 0.19303 0.0
C888 C 0.29309 0.06555 0.06678 0.0
C889 C 0.25568 0.0679 0.02427 0.0
C890 C 0.2902 0.04571 0.1067 0.0
C891 C 0.24878 0.02798 0.10426 0.0
C892 C 0.21001 0.03132 0.06279 0.0
C893 C 0.21384 0.05128 0.02344 0.0
C894 C 0.33181 0.04334 0.15109 0.0
C895 C 0.16493 0.01321 0.05928 0.0
H896 H 0.27438 0.93458 0.1833 0.0
H897 H 0.2166 1.00411 0.26342 0.0
H898 H 0.25425 0.96977 0.0619 0.0
H899 H 0.31346 0.97806 0.09481 0.0
H900 H 0.28913 0.94143 0.10017 0.0
H901 H 0.19477 0.05079 0.22772 0.0
H902 H 0.23995 0.06347 0.19416 0.0
H903 H 0.18253 0.053 0.15905 0.0
H904 H 0.32553 0.07827 0.06792 0.0
H905 H 0.18456 0.05299 0.99098 0.0
H906 H 0.34313 0.01978 0.15742 0.0
H907 H 0.32078 0.0512 0.1864 0.0
H908 H 0.36296 0.05675 0.14516 0.0
H909 H 0.17334 0.98917 0.05715 0.0
H910 H 0.13737 0.01918 0.02537 0.0
H911 H 0.14968 0.0165 0.09401 0.0
C912 C 0.67076 0.05237 0.45967 0.0
C913 C 0.71499 0.05873 0.49134 0.0
C914 C 0.66709 0.0317 0.41958 0.0
C915 C 0.70869 0.01725 0.41035 0.0
C916 C 0.75345 0.02376 0.44184 0.0
C917 C 0.75603 0.0443 0.48197 0.0
C918 C 0.61868 0.02541 0.38699 0.0
C919 C 0.79878 0.00917 0.4329 0.0
C920 C 0.70372 0.94803 0.32586 0.0
C921 C 0.71223 0.96062 0.28048 0.0
C922 C 0.70082 0.96624 0.36829 0.0
C923 C 0.70639 0.99757 0.3649 0.0
C924 C 0.71258 0.0103 0.31832 0.0
C925 C 0.71527 0.99176 0.27693 0.0
C926 C 0.69348 0.95193 0.41722 0.0
C927 C 0.71829 0.04352 0.31262 0.0
H928 H 0.63862 0.06291 0.46707 0.0
H929 H 0.79025 0.04885 0.50643 0.0
H930 H 0.61794 0.03308 0.34739 0.0
H931 H 0.61171 1.0011 0.38525 0.0
H932 H 0.58938 0.03668 0.40159 0.0
H933 H 0.83042 0.0156 0.4621 0.0
H934 H 0.79504 0.98459 0.43323 0.0
H935 H 0.80539 0.01553 0.39476 0.0
H936 H 0.70106 0.92405 0.32881 0.0
H937 H 0.72081 1.00182 0.24166 0.0
H938 H 0.66376 0.96301 0.43126 0.0
H939 H 0.72614 0.95475 0.44702 0.0
H940 H 0.6855 0.92777 0.41245 0.0
H941 H 0.68794 0.05553 0.32377 0.0
H942 H 0.72032 0.04999 0.27298 0.0
H943 H 0.75137 0.05112 0.33844 0.0
loop_
_geom_bond_atom_site_label_1
_geom_bond_atom_site_label_2
_geom_bond_distance
_geom_bond_site_symmetry_2
_ccdc_geom_bond_type
Fe0 O2 1.918 . S
Fe0 O5 1.997 . S
Fe0 O6 2.002 . S
Fe0 O11 1.976 . S
Fe0 O14 1.996 . S
Fe1 O2 1.918 . S
Fe1 O9 1.997 . S
Fe1 O12 1.996 . S
Fe1 O16 1.976 . S
Fe1 O19 2.002 . S
O2 Fe0 1.918 . S
O2 Fe1 1.918 . S
O2 Fe3 1.918 . S
Fe3 O2 1.918 . S
Fe3 O4 2.002 . S
Fe3 O13 1.976 . S
Fe3 O17 1.996 . S
Fe3 O20 1.997 . S
O4 Fe3 2.002 . S
O4 C21 1.295 . S
O5 Fe0 1.997 . S
O5 C21 1.235 . S
O6 Fe0 2.002 . S
O6 C7 1.295 . S
C7 O6 1.295 . S
C7 O9 1.235 . S
C8 O13 1.287 . S
C8 O14 1.255 . S
O9 Fe1 1.997 . S
O9 C7 1.235 . S
C10 O16 1.287 . S
C10 O17 1.255 . S
O11 Fe0 1.976 . S
O11 C18 1.287 . S
O12 Fe1 1.996 . S
O12 C18 1.255 . S
O13 Fe3 1.976 . S
O13 C8 1.287 . S
O14 Fe0 1.996 . S
O14 C8 1.255 . S
C15 O19 1.295 . S
C15 O20 1.235 . S
O16 Fe1 1.976 . S
O16 C10 1.287 . S
O17 Fe3 1.996 . S
O17 C10 1.255 . S
C18 O11 1.287 . S
C18 O12 1.255 . S
O19 Fe1 2.002 . S
O19 C15 1.295 . S
O20 Fe3 1.997 . S
O20 C15 1.235 . S
C21 O4 1.295 . S
C21 O5 1.235 . S
Fe22 O24 1.918 . S
Fe22 O27 1.997 . S
Fe22 O28 2.002 . S
Fe22 O33 1.976 . S
Fe22 O36 1.996 . S
Fe23 O24 1.918 . S
Fe23 O31 1.997 . S
Fe23 O34 1.996 . S
Fe23 O38 1.976 . S
Fe23 O41 2.002 . S
O24 Fe22 1.918 . S
O24 Fe23 1.918 . S
O24 Fe25 1.918 . S
Fe25 O24 1.918 . S
Fe25 O26 2.002 . S
Fe25 O35 1.976 . S
Fe25 O39 1.996 . S
Fe25 O42 1.997 . S
O26 Fe25 2.002 . S
O26 C43 1.295 . S
O27 Fe22 1.997 . S
O27 C43 1.235 . S
O28 Fe22 2.002 . S
O28 C29 1.295 . S
C29 O28 1.295 . S
C29 O31 1.235 . S
C30 O35 1.287 . S
C30 O36 1.255 . S
O31 Fe23 1.997 . S
O31 C29 1.235 . S
C32 O38 1.287 . S
C32 O39 1.255 . S
O33 Fe22 1.976 . S
O33 C40 1.287 . S
O34 Fe23 1.996 . S
O34 C40 1.255 . S
O35 Fe25 1.976 . S
O35 C30 1.287 . S
O36 Fe22 1.996 . S
O36 C30 1.255 . S
C37 O41 1.295 . S
C37 O42 1.235 . S
O38 Fe23 1.976 . S
O38 C32 1.287 . S
O39 Fe25 1.996 . S
O39 C32 1.255 . S
C40 O33 1.287 . S
C40 O34 1.255 . S
O41 Fe23 2.002 . S
O41 C37 1.295 . S
O42 Fe25 1.997 . S
O42 C37 1.235 . S
C43 O26 1.295 . S
C43 O27 1.235 . S
Fe44 O46 1.918 . S
Fe44 O49 1.997 . S
Fe44 O50 2.002 . S
Fe44 O55 1.976 . S
Fe44 O58 1.996 . S
Fe45 O46 1.918 . S
Fe45 O53 1.997 . S
Fe45 O56 1.996 . S
Fe45 O60 1.976 . S
Fe45 O63 2.002 . S
O46 Fe44 1.918 . S
O46 Fe45 1.918 . S
O46 Fe47 1.918 . S
Fe47 O46 1.918 . S
Fe47 O48 2.002 . S
Fe47 O57 1.976 . S
Fe47 O61 1.996 . S
Fe47 O64 1.997 . S
O48 Fe47 2.002 . S
O48 C65 1.295 . S
O49 Fe44 1.997 . S
O49 C65 1.235 . S
O50 Fe44 2.002 . S
O50 C51 1.295 . S
C51 O50 1.295 . S
C51 O53 1.235 . S
C52 O57 1.287 . S
C52 O58 1.255 . S
O53 Fe45 1.997 . S
O53 C51 1.235 . S
C54 O60 1.287 . S
C54 O61 1.255 . S
O55 Fe44 1.976 . S
O55 C62 1.287 . S
O56 Fe45 1.996 . S
O56 C62 1.255 . S
O57 Fe47 1.976 . S
O57 C52 1.287 . S
O58 Fe44 1.996 . S
O58 C52 1.255 . S
C59 O63 1.295 . S
C59 O64 1.235 . S
O60 Fe45 1.976 . S
O60 C54 1.287 . S
O61 Fe47 1.996 . S
O61 C54 1.255 . S
C62 O55 1.287 . S
C62 O56 1.255 . S
O63 Fe45 2.002 . S
O63 C59 1.295 . S
O64 Fe47 1.997 . S
O64 C59 1.235 . S
C65 O48 1.295 . S
C65 O49 1.235 . S
Fe66 O68 1.918 . S
Fe66 O71 1.997 . S
Fe66 O72 2.002 . S
Fe66 O77 1.976 . S
Fe66 O80 1.996 . S
Fe67 O68 1.918 . S
Fe67 O75 1.997 . S
Fe67 O78 1.996 . S
Fe67 O82 1.976 . S
Fe67 O85 2.002 . S
O68 Fe66 1.918 . S
O68 Fe67 1.918 . S
O68 Fe69 1.918 . S
Fe69 O68 1.918 . S
Fe69 O70 2.002 . S
Fe69 O79 1.976 . S
Fe69 O83 1.996 . S
Fe69 O86 1.997 . S
O70 Fe69 2.002 . S
O70 C87 1.295 . S
O71 Fe66 1.997 . S
O71 C87 1.235 . S
O72 Fe66 2.002 . S
O72 C73 1.295 . S
C73 O72 1.295 . S
C73 O75 1.235 . S
C74 O79 1.287 . S
C74 O80 1.255 . S
O75 Fe67 1.997 . S
O75 C73 1.235 . S
C76 O82 1.287 . S
C76 O83 1.255 . S
O77 Fe66 1.976 . S
O77 C84 1.287 . S
O78 Fe67 1.996 . S
O78 C84 1.255 . S
O79 Fe69 1.976 . S
O79 C74 1.287 . S
O80 Fe66 1.996 . S
O80 C74 1.255 . S
C81 O85 1.295 . S
C81 O86 1.235 . S
O82 Fe67 1.976 . S
O82 C76 1.287 . S
O83 Fe69 1.996 . S
O83 C76 1.255 . S
C84 O77 1.287 . S
C84 O78 1.255 . S
O85 Fe67 2.002 . S
O85 C81 1.295 . S
O86 Fe69 1.997 . S
O86 C81 1.235 . S
C87 O70 1.295 . S
C87 O71 1.235 . S
Fe88 O90 1.918 . S
Fe88 O93 1.997 . S
Fe88 O94 2.002 . S
Fe88 O99 1.976 . S
Fe88 O102 1.996 . S
Fe89 O90 1.918 . S
Fe89 O97 1.997 . S
Fe89 O100 1.996 . S
Fe89 O104 1.976 . S
Fe89 O107 2.002 . S
O90 Fe88 1.918 . S
O90 Fe89 1.918 . S
O90 Fe91 1.918 . S
Fe91 O90 1.918 . S
Fe91 O92 2.002 . S
Fe91 O101 1.976 . S
Fe91 O105 1.996 . S
Fe91 O108 1.997 . S
O92 Fe91 2.002 . S
O92 C109 1.295 . S
O93 Fe88 1.997 . S
O93 C109 1.235 . S
O94 Fe88 2.002 . S
O94 C95 1.295 . S
C95 O94 1.295 . S
C95 O97 1.235 . S
C96 O101 1.287 . S
C96 O102 1.255 . S
O97 Fe89 1.997 . S
O97 C95 1.235 . S
C98 O104 1.287 . S
C98 O105 1.255 . S
O99 Fe88 1.976 . S
O99 C106 1.287 . S
O100 Fe89 1.996 . S
O100 C106 1.255 . S
O101 Fe91 1.976 . S
O101 C96 1.287 . S
O102 Fe88 1.996 . S
O102 C96 1.255 . S
C103 O107 1.295 . S
C103 O108 1.235 . S
O104 Fe89 1.976 . S
O104 C98 1.287 . S
O105 Fe91 1.996 . S
O105 C98 1.255 . S
C106 O99 1.287 . S
C106 O100 1.255 . S
O107 Fe89 2.002 . S
O107 C103 1.295 . S
O108 Fe91 1.997 . S
O108 C103 1.235 . S
C109 O92 1.295 . S
C109 O93 1.235 . S
Fe110 O112 1.918 . S
Fe110 O115 1.997 . S
Fe110 O116 2.002 . S
Fe110 O121 1.976 . S
Fe110 O124 1.996 . S
Fe111 O112 1.918 . S
Fe111 O119 1.997 . S
Fe111 O122 1.996 . S
Fe111 O126 1.976 . S
Fe111 O129 2.002 . S
O112 Fe110 1.918 . S
O112 Fe111 1.918 . S
O112 Fe113 1.918 . S
Fe113 O112 1.918 . S
Fe113 O114 2.002 . S
Fe113 O123 1.976 . S
Fe113 O127 1.996 . S
Fe113 O130 1.997 . S
O114 Fe113 2.002 . S
O114 C131 1.295 . S
O115 Fe110 1.997 . S
O115 C131 1.235 . S
O116 Fe110 2.002 . S
O116 C117 1.295 . S
C117 O116 1.295 . S
C117 O119 1.235 . S
C118 O123 1.287 . S
C118 O124 1.255 . S
O119 Fe111 1.997 . S
O119 C117 1.235 . S
C120 O126 1.287 . S
C120 O127 1.255 . S
O121 Fe110 1.976 . S
O121 C128 1.287 . S
O122 Fe111 1.996 . S
O122 C128 1.255 . S
O123 Fe113 1.976 . S
O123 C118 1.287 . S
O124 Fe110 1.996 . S
O124 C118 1.255 . S
C125 O129 1.295 . S
C125 O130 1.235 . S
O126 Fe111 1.976 . S
O126 C120 1.287 . S
O127 Fe113 1.996 . S
O127 C120 1.255 . S
C128 O121 1.287 . S
C128 O122 1.255 . S
O129 Fe111 2.002 . S
O129 C125 1.295 . S
O130 Fe113 1.997 . S
O130 C125 1.235 . S
C131 O114 1.295 . S
C131 O115 1.235 . S
Fe132 O134 1.918 . S
Fe132 O137 1.997 . S
Fe132 O138 2.002 . S
Fe132 O143 1.976 . S
Fe132 O146 1.996 . S
Fe133 O134 1.918 . S
Fe133 O141 1.997 . S
Fe133 O144 1.996 . S
Fe133 O148 1.976 . S
Fe133 O151 2.002 . S
O134 Fe132 1.918 . S
O134 Fe133 1.918 . S
O134 Fe135 1.918 . S
Fe135 O134 1.918 . S
Fe135 O136 2.002 . S
Fe135 O145 1.976 . S
Fe135 O149 1.996 . S
Fe135 O152 1.997 . S
O136 Fe135 2.002 . S
O136 C153 1.295 . S
O137 Fe132 1.997 . S
O137 C153 1.235 . S
O138 Fe132 2.002 . S
O138 C139 1.295 . S
C139 O138 1.295 . S
C139 O141 1.235 . S
C140 O145 1.287 . S
C140 O146 1.255 . S
O141 Fe133 1.997 . S
O141 C139 1.235 . S
C142 O148 1.287 . S
C142 O149 1.255 . S
O143 Fe132 1.976 . S
O143 C150 1.287 . S
O144 Fe133 1.996 . S
O144 C150 1.255 . S
O145 Fe135 1.976 . S
O145 C140 1.287 . S
O146 Fe132 1.996 . S
O146 C140 1.255 . S
C147 O151 1.295 . S
C147 O152 1.235 . S
O148 Fe133 1.976 . S
O148 C142 1.287 . S
O149 Fe135 1.996 . S
O149 C142 1.255 . S
C150 O143 1.287 . S
C150 O144 1.255 . S
O151 Fe133 2.002 . S
O151 C147 1.295 . S
O152 Fe135 1.997 . S
O152 C147 1.235 . S
C153 O136 1.295 . S
C153 O137 1.235 . S
Fe154 O156 1.918 . S
Fe154 O159 1.997 . S
Fe154 O160 2.002 . S
Fe154 O165 1.976 . S
Fe154 O168 1.996 . S
Fe155 O156 1.918 . S
Fe155 O163 1.997 . S
Fe155 O166 1.996 . S
Fe155 O170 1.976 . S
Fe155 O173 2.002 . S
O156 Fe154 1.918 . S
O156 Fe155 1.918 . S
O156 Fe157 1.918 . S
Fe157 O156 1.918 . S
Fe157 O158 2.002 . S
Fe157 O167 1.976 . S
Fe157 O171 1.996 . S
Fe157 O174 1.997 . S
O158 Fe157 2.002 . S
O158 C175 1.295 . S
O159 Fe154 1.997 . S
O159 C175 1.235 . S
O160 Fe154 2.002 . S
O160 C161 1.295 . S
C161 O160 1.295 . S
C161 O163 1.235 . S
C162 O167 1.287 . S
C162 O168 1.255 . S
O163 Fe155 1.997 . S
O163 C161 1.235 . S
C164 O170 1.287 . S
C164 O171 1.255 . S
O165 Fe154 1.976 . S
O165 C172 1.287 . S
O166 Fe155 1.996 . S
O166 C172 1.255 . S
O167 Fe157 1.976 . S
O167 C162 1.287 . S
O168 Fe154 1.996 . S
O168 C162 1.255 . S
C169 O173 1.295 . S
C169 O174 1.235 . S
O170 Fe155 1.976 . S
O170 C164 1.287 . S
O171 Fe157 1.996 . S
O171 C164 1.255 . S
C172 O165 1.287 . S
C172 O166 1.255 . S
O173 Fe155 2.002 . S
O173 C169 1.295 . S
O174 Fe157 1.997 . S
O174 C169 1.235 . S
C175 O158 1.295 . S
C175 O159 1.235 . S
C176 C177 1.391 . S
C176 C178 1.394 . S
C176 H192 0.931 . S
C177 C176 1.391 . S
C177 C181 1.376 . S
C178 C176 1.394 . S
C178 C179 1.369 . S
C178 C182 1.531 . S
C179 C178 1.369 . S
C179 C180 1.410 . S
C179 C187 1.503 . S
C180 C179 1.410 . S
C180 C181 1.392 . S
C180 C183 1.511 . S
C181 C177 1.376 . S
C181 C180 1.392 . S
C181 H193 0.929 . S
C182 C178 1.531 . S
C182 H194 0.960 . S
C182 H195 0.962 . S
C182 H196 0.960 . S
C183 C180 1.511 . S
C183 H197 0.961 . S
C183 H198 0.961 . S
C183 H199 0.961 . S
C184 C185 1.370 . S
C184 C186 1.363 . S
C184 H200 0.931 . S
C185 C184 1.370 . S
C185 C189 1.408 . S
C186 C184 1.363 . S
C186 C187 1.370 . S
C186 C190 1.524 . S
C187 C179 1.503 . S
C187 C186 1.370 . S
C187 C188 1.403 . S
C188 C187 1.403 . S
C188 C189 1.404 . S
C188 C191 1.539 . S
C189 C185 1.408 . S
C189 C188 1.404 . S
C189 H201 0.930 . S
C190 C186 1.524 . S
C190 H202 0.956 . S
C190 H203 0.961 . S
C190 H204 0.961 . S
C191 C188 1.539 . S
C191 H205 0.958 . S
C191 H206 0.961 . S
C191 H207 0.960 . S
H192 C176 0.931 . S
H193 C181 0.929 . S
H194 C182 0.960 . S
H195 C182 0.962 . S
H196 C182 0.960 . S
H197 C183 0.961 . S
H198 C183 0.961 . S
H199 C183 0.961 . S
H200 C184 0.931 . S
H201 C189 0.930 . S
H202 C190 0.956 . S
H203 C190 0.961 . S
H204 C190 0.961 . S
H205 C191 0.958 . S
H206 C191 0.961 . S
H207 C191 0.960 . S
C208 C209 1.391 . S
C208 C210 1.394 . S
C208 H224 0.931 . S
C209 C208 1.391 . S
C209 C213 1.376 . S
C210 C208 1.394 . S
C210 C211 1.369 . S
C210 C214 1.531 . S
C211 C210 1.369 . S
C211 C212 1.410 . S
C211 C219 1.503 . S
C212 C211 1.410 . S
C212 C213 1.392 . S
C212 C215 1.511 . S
C213 C209 1.376 . S
C213 C212 1.392 . S
C213 H225 0.929 . S
C214 C210 1.531 . S
C214 H226 0.960 . S
C214 H227 0.962 . S
C214 H228 0.960 . S
C215 C212 1.511 . S
C215 H229 0.961 . S
C215 H230 0.961 . S
C215 H231 0.961 . S
C216 C217 1.370 . S
C216 C218 1.363 . S
C216 H232 0.931 . S
C217 C216 1.370 . S
C217 C221 1.408 . S
C218 C216 1.363 . S
C218 C219 1.370 . S
C218 C222 1.524 . S
C219 C211 1.503 . S
C219 C218 1.370 . S
C219 C220 1.403 . S
C220 C219 1.403 . S
C220 C221 1.404 . S
C220 C223 1.539 . S
C221 C217 1.408 . S
C221 C220 1.404 . S
C221 H233 0.930 . S
C222 C218 1.524 . S
C222 H234 0.956 . S
C222 H235 0.961 . S
C222 H236 0.961 . S
C223 C220 1.539 . S
C223 H237 0.958 . S
C223 H238 0.961 . S
C223 H239 0.960 . S
H224 C208 0.931 . S
H225 C213 0.929 . S
H226 C214 0.960 . S
H227 C214 0.962 . S
H228 C214 0.960 . S
H229 C215 0.961 . S
H230 C215 0.961 . S
H231 C215 0.961 . S
H232 C216 0.931 . S
H233 C221 0.930 . S
H234 C222 0.956 . S
H235 C222 0.961 . S
H236 C222 0.961 . S
H237 C223 0.958 . S
H238 C223 0.961 . S
H239 C223 0.960 . S
C240 C241 1.391 . S
C240 C242 1.394 . S
C240 H256 0.931 . S
C241 C240 1.391 . S
C241 C245 1.376 . S
C242 C240 1.394 . S
C242 C243 1.369 . S
C242 C246 1.531 1_455 S
C243 C242 1.369 . S
C243 C244 1.410 . S
C243 C251 1.503 1_455 S
C244 C243 1.410 . S
C244 C245 1.392 . S
C244 C247 1.511 . S
C245 C241 1.376 . S
C245 C244 1.392 . S
C245 H257 0.929 . S
C246 C242 1.531 1_655 S
C246 H258 0.960 . S
C246 H259 0.962 . S
C246 H260 0.960 1_655 S
C247 C244 1.511 . S
C247 H261 0.961 . S
C247 H262 0.961 . S
C247 H263 0.961 . S
C248 C249 1.370 . S
C248 C250 1.363 . S
C248 H264 0.931 . S
C249 C248 1.370 . S
C249 C253 1.408 . S
C250 C248 1.363 . S
C250 C251 1.370 . S
C250 C254 1.524 . S
C251 C243 1.503 1_655 S
C251 C250 1.370 . S
C251 C252 1.403 . S
C252 C251 1.403 . S
C252 C253 1.404 . S
C252 C255 1.539 . S
C253 C249 1.408 . S
C253 C252 1.404 . S
C253 H265 0.930 . S
C254 C250 1.524 . S
C254 H266 0.956 . S
C254 H267 0.961 1_655 S
C254 H268 0.961 . S
C255 C252 1.539 . S
C255 H269 0.958 . S
C255 H270 0.961 . S
C255 H271 0.962 1_655 S
H256 C240 0.931 . S
H257 C245 0.929 . S
H258 C246 0.960 . S
H259 C246 0.962 . S
H260 C246 0.960 1_455 S
H261 C247 0.961 . S
H262 C247 0.961 . S
H263 C247 0.961 . S
H264 C248 0.931 . S
H265 C253 0.930 . S
H266 C254 0.956 . S
H267 C254 0.961 1_455 S
H268 C254 0.961 . S
H269 C255 0.958 . S
H270 C255 0.961 . S
H271 C255 0.962 1_455 S
C272 C273 1.391 . S
C272 C274 1.394 . S
C272 H288 0.931 . S
C273 C272 1.391 . S
C273 C277 1.376 . S
C274 C272 1.394 . S
C274 C275 1.369 . S
C274 C278 1.541 . S
C275 C274 1.369 . S
C275 C276 1.410 . S
C275 C283 1.503 1_455 S
C276 C275 1.410 . S
C276 C277 1.392 . S
C276 C279 1.511 . S
C277 C273 1.376 . S
C277 C276 1.392 . S
C277 H289 0.929 . S
C278 C274 1.541 . S
C278 H290 0.953 1_455 S
C278 H291 0.955 1_455 S
C278 H292 0.964 . S
C279 C276 1.511 . S
C279 H293 0.961 . S
C279 H294 0.961 . S
C279 H295 0.961 . S
C280 C281 1.370 . S
C280 C282 1.363 . S
C280 H296 0.931 . S
C281 C280 1.370 . S
C281 C285 1.408 . S
C282 C280 1.363 . S
C282 C283 1.370 . S
C282 C286 1.524 . S
C283 C275 1.503 1_655 S
C283 C282 1.370 . S
C283 C284 1.403 . S
C284 C283 1.403 . S
C284 C285 1.404 . S
C284 C287 1.539 . S
C285 C281 1.408 . S
C285 C284 1.404 . S
C285 H297 0.930 . S
C286 C282 1.524 . S
C286 H298 0.956 . S
C286 H299 0.961 . S
C286 H300 0.961 . S
C287 C284 1.539 . S
C287 H301 0.958 . S
C287 H302 0.961 . S
C287 H303 0.960 1_655 S
H288 C272 0.931 . S
H289 C277 0.929 . S
H290 C278 0.953 1_655 S
H291 C278 0.955 1_655 S
H292 C278 0.964 . S
H293 C279 0.961 . S
H294 C279 0.961 . S
H295 C279 0.961 . S
H296 C280 0.931 . S
H297 C285 0.930 . S
H298 C286 0.956 . S
H299 C286 0.961 . S
H300 C286 0.961 . S
H301 C287 0.958 . S
H302 C287 0.961 . S
H303 C287 0.960 1_455 S
C304 C305 1.391 . S
C304 C306 1.394 . S
C304 H320 0.931 . S
C305 C304 1.391 . S
C305 C309 1.376 . S
C306 C304 1.394 . S
C306 C307 1.369 . S
C306 C310 1.531 . S
C307 C306 1.369 . S
C307 C308 1.410 . S
C307 C315 1.503 1_554 S
C308 C307 1.410 . S
C308 C309 1.392 . S
C308 C311 1.511 . S
C309 C305 1.376 . S
C309 C308 1.392 . S
C309 H321 0.929 . S
C310 C306 1.531 . S
C310 H322 0.960 . S
C310 H323 0.962 1_554 S
C310 H324 0.960 . S
C311 C308 1.511 . S
C311 H325 0.961 . S
C311 H326 0.961 . S
C311 H327 0.961 . S
C312 C313 1.370 . S
C312 C314 1.363 . S
C312 H328 0.931 . S
C313 C312 1.370 . S
C313 C317 1.408 . S
C314 C312 1.363 . S
C314 C315 1.370 . S
C314 C318 1.524 . S
C315 C307 1.503 1_556 S
C315 C314 1.370 . S
C315 C316 1.403 1_556 S
C316 C315 1.403 1_554 S
C316 C317 1.404 1_554 S
C316 C319 1.539 . S
C317 C313 1.408 . S
C317 C316 1.404 1_556 S
C317 H329 0.930 1_556 S
C318 C314 1.524 . S
C318 H330 0.956 . S
C318 H331 0.961 . S
C318 H332 0.961 . S
C319 C316 1.539 . S
C319 H333 0.958 . S
C319 H334 0.961 . S
C319 H335 0.960 . S
H320 C304 0.931 . S
H321 C309 0.929 . S
H322 C310 0.960 . S
H323 C310 0.962 1_556 S
H324 C310 0.960 . S
H325 C311 0.961 . S
H326 C311 0.961 . S
H327 C311 0.961 . S
H328 C312 0.931 . S
H329 C317 0.930 1_554 S
H330 C318 0.956 . S
H331 C318 0.961 . S
H332 C318 0.961 . S
H333 C319 0.958 . S
H334 C319 0.961 . S
H335 C319 0.960 . S
C336 C337 1.391 . S
C336 C338 1.394 . S
C336 H352 0.931 . S
C337 C336 1.391 . S
C337 C341 1.376 . S
C338 C336 1.394 . S
C338 C339 1.369 . S
C338 C342 1.531 . S
C339 C338 1.369 . S
C339 C340 1.410 . S
C339 C347 1.503 . S
C340 C339 1.410 . S
C340 C341 1.392 . S
C340 C343 1.511 . S
C341 C337 1.376 . S
C341 C340 1.392 . S
C341 H353 0.929 . S
C342 C338 1.531 . S
C342 H354 0.960 . S
C342 H355 0.962 . S
C342 H356 0.960 . S
C343 C340 1.511 . S
C343 H357 0.961 . S
C343 H358 0.961 . S
C343 H359 0.961 . S
C344 C345 1.370 . S
C344 C346 1.363 . S
C344 H360 0.931 . S
C345 C344 1.370 . S
C345 C349 1.408 . S
C346 C344 1.363 . S
C346 C347 1.370 . S
C346 C350 1.524 . S
C347 C339 1.503 . S
C347 C346 1.370 . S
C347 C348 1.403 . S
C348 C347 1.403 . S
C348 C349 1.404 . S
C348 C351 1.539 . S
C349 C345 1.408 . S
C349 C348 1.404 . S
C349 H361 0.930 . S
C350 C346 1.524 . S
C350 H362 0.956 . S
C350 H363 0.961 . S
C350 H364 0.961 . S
C351 C348 1.539 . S
C351 H365 0.958 . S
C351 H366 0.961 . S
C351 H367 0.960 . S
H352 C336 0.931 . S
H353 C341 0.929 . S
H354 C342 0.960 . S
H355 C342 0.962 . S
H356 C342 0.960 . S
H357 C343 0.961 . S
H358 C343 0.961 . S
H359 C343 0.961 . S
H360 C344 0.931 . S
H361 C349 0.930 . S
H362 C350 0.956 . S
H363 C350 0.961 . S
H364 C350 0.961 . S
H365 C351 0.958 . S
H366 C351 0.961 . S
H367 C351 0.960 . S
C368 C369 1.391 . S
C368 C370 1.394 . S
C368 H384 0.931 . S
C369 C368 1.391 . S
C369 C373 1.376 . S
C370 C368 1.394 . S
C370 C371 1.369 . S
C370 C374 1.531 . S
C371 C370 1.369 . S
C371 C372 1.410 . S
C371 C379 1.503 1_554 S
C372 C371 1.410 . S
C372 C373 1.392 . S
C372 C375 1.511 1_554 S
C373 C369 1.376 . S
C373 C372 1.392 . S
C373 H385 0.929 . S
C374 C370 1.531 . S
C374 H386 0.960 . S
C374 H387 0.962 . S
C374 H388 0.960 . S
C375 C372 1.511 1_556 S
C375 H389 0.961 . S
C375 H390 0.961 . S
C375 H391 0.961 . S
C376 C377 1.370 . S
C376 C378 1.363 . S
C376 H392 0.931 . S
C377 C376 1.370 . S
C377 C381 1.408 . S
C378 C376 1.363 . S
C378 C379 1.370 . S
C378 C382 1.524 . S
C379 C371 1.503 1_556 S
C379 C378 1.370 . S
C379 C380 1.406 . S
C380 C379 1.406 . S
C380 C381 1.411 . S
C380 C383 1.530 1_556 S
C381 C377 1.408 . S
C381 C380 1.411 . S
C381 H393 0.930 . S
C382 C378 1.524 . S
C382 H394 0.956 . S
C382 H395 0.961 . S
C382 H396 0.961 . S
C383 C380 1.530 1_554 S
C383 H397 0.958 . S
C383 H398 0.961 . S
C383 H399 0.960 . S
H384 C368 0.931 . S
H385 C373 0.929 . S
H386 C374 0.960 . S
H387 C374 0.962 . S
H388 C374 0.960 . S
H389 C375 0.961 . S
H390 C375 0.961 . S
H391 C375 0.961 . S
H392 C376 0.931 . S
H393 C381 0.930 . S
H394 C382 0.956 . S
H395 C382 0.961 . S
H396 C382 0.961 . S
H397 C383 0.958 . S
H398 C383 0.961 . S
H399 C383 0.960 . S
C400 C401 1.391 . S
C400 C402 1.394 . S
C400 H416 0.931 . S
C401 C400 1.391 . S
C401 C405 1.376 . S
C402 C400 1.394 . S
C402 C403 1.369 . S
C402 C406 1.531 . S
C403 C402 1.369 . S
C403 C404 1.410 . S
C403 C411 1.503 . S
C404 C403 1.410 . S
C404 C405 1.392 . S
C404 C407 1.511 . S
C405 C401 1.376 . S
C405 C404 1.392 . S
C405 H417 0.929 . S
C406 C402 1.531 . S
C406 H418 0.960 . S
C406 H419 0.962 . S
C406 H420 0.960 . S
C407 C404 1.511 . S
C407 H421 0.961 . S
C407 H422 0.961 . S
C407 H423 0.961 . S
C408 C409 1.370 . S
C408 C410 1.363 . S
C408 H424 0.931 . S
C409 C408 1.370 . S
C409 C413 1.408 . S
C410 C408 1.363 . S
C410 C411 1.370 . S
C410 C414 1.524 . S
C411 C403 1.503 . S
C411 C410 1.370 . S
C411 C412 1.403 . S
C412 C411 1.403 . S
C412 C413 1.404 . S
C412 C415 1.539 . S
C413 C409 1.408 . S
C413 C412 1.404 . S
C413 H425 0.930 . S
C414 C410 1.524 . S
C414 H426 0.956 . S
C414 H427 0.961 . S
C414 H428 0.961 . S
C415 C412 1.539 . S
C415 H429 0.958 . S
C415 H430 0.961 . S
C415 H431 0.960 . S
H416 C400 0.931 . S
H417 C405 0.929 . S
H418 C406 0.960 . S
H419 C406 0.962 . S
H420 C406 0.960 . S
H421 C407 0.961 . S
H422 C407 0.961 . S
H423 C407 0.961 . S
H424 C408 0.931 . S
H425 C413 0.930 . S
H426 C414 0.956 . S
H427 C414 0.961 . S
H428 C414 0.961 . S
H429 C415 0.958 . S
H430 C415 0.961 . S
H431 C415 0.960 . S
C432 C433 1.391 . S
C432 C434 1.394 . S
C432 H448 0.931 . S
C433 C432 1.391 . S
C433 C437 1.376 . S
C434 C432 1.394 . S
C434 C435 1.369 . S
C434 C438 1.531 . S
C435 C434 1.369 . S
C435 C436 1.410 . S
C435 C443 1.503 1_656 S
C436 C435 1.410 . S
C436 C437 1.392 . S
C436 C439 1.511 1_655 S
C437 C433 1.376 . S
C437 C436 1.392 . S
C437 H449 0.929 . S
C438 C434 1.531 . S
C438 H450 0.960 . S
C438 H451 0.962 1_556 S
C438 H452 0.960 . S
C439 C436 1.511 1_455 S
C439 H453 0.961 . S
C439 H454 0.961 . S
C439 H455 0.961 . S
C440 C441 1.370 . S
C440 C442 1.363 . S
C440 H456 0.931 . S
C441 C440 1.370 . S
C441 C445 1.408 . S
C442 C440 1.363 . S
C442 C443 1.370 . S
C442 C446 1.508 1_455 S
C443 C435 1.503 1_454 S
C443 C442 1.370 . S
C443 C444 1.403 1_554 S
C444 C443 1.403 1_556 S
C444 C445 1.404 1_556 S
C444 C447 1.539 . S
C445 C441 1.408 . S
C445 C444 1.404 1_554 S
C445 H457 0.930 1_554 S
C446 C442 1.508 1_655 S
C446 H458 0.973 . S
C446 H459 0.965 . S
C446 H460 0.956 1_655 S
C447 C444 1.539 . S
C447 H461 0.958 . S
C447 H462 0.961 . S
C447 H463 0.960 . S
H448 C432 0.931 . S
H449 C437 0.929 . S
H450 C438 0.960 . S
H451 C438 0.962 1_554 S
H452 C438 0.960 . S
H453 C439 0.961 . S
H454 C439 0.961 . S
H455 C439 0.961 . S
H456 C440 0.931 . S
H457 C445 0.930 1_556 S
H458 C446 0.973 . S
H459 C446 0.965 . S
H460 C446 0.956 1_455 S
H461 C447 0.958 . S
H462 C447 0.961 . S
H463 C447 0.960 . S
C464 C465 1.391 . S
C464 C466 1.394 . S
C464 H480 0.931 . S
C465 C464 1.391 . S
C465 C469 1.376 . S
C466 C464 1.394 . S
C466 C467 1.369 . S
C466 C470 1.531 1_455 S
C467 C466 1.369 . S
C467 C468 1.410 . S
C467 C475 1.503 1_455 S
C468 C467 1.410 . S
C468 C469 1.392 . S
C468 C471 1.511 . S
C469 C465 1.376 . S
C469 C468 1.392 . S
C469 H481 0.929 . S
C470 C466 1.531 1_655 S
C470 H482 0.960 . S
C470 H483 0.962 . S
C470 H484 0.960 . S
C471 C468 1.511 . S
C471 H485 0.961 . S
C471 H486 0.961 . S
C471 H487 0.961 . S
C472 C473 1.370 . S
C472 C474 1.363 . S
C472 H488 0.931 . S
C473 C472 1.370 . S
C473 C477 1.408 . S
C474 C472 1.363 . S
C474 C475 1.370 . S
C474 C478 1.524 1_655 S
C475 C467 1.503 1_655 S
C475 C474 1.370 . S
C475 C476 1.403 . S
C476 C475 1.403 . S
C476 C477 1.404 . S
C476 C479 1.539 . S
C477 C473 1.408 . S
C477 C476 1.404 . S
C477 H489 0.930 . S
C478 C474 1.524 1_455 S
C478 H490 0.956 . S
C478 H491 0.961 . S
C478 H492 0.961 1_455 S
C479 C476 1.539 . S
C479 H493 0.958 . S
C479 H494 0.961 . S
C479 H495 0.960 . S
H480 C464 0.931 . S
H481 C469 0.929 . S
H482 C470 0.960 . S
H483 C470 0.962 . S
H484 C470 0.960 . S
H485 C471 0.961 . S
H486 C471 0.961 . S
H487 C471 0.961 . S
H488 C472 0.931 . S
H489 C477 0.930 . S
H490 C478 0.956 . S
H491 C478 0.961 . S
H492 C478 0.961 1_655 S
H493 C479 0.958 . S
H494 C479 0.961 . S
H495 C479 0.960 . S
C496 C497 1.391 . S
C496 C498 1.394 . S
C496 H512 0.931 . S
C497 C496 1.391 . S
C497 C501 1.376 1_565 S
C498 C496 1.394 . S
C498 C499 1.369 . S
C498 C502 1.531 . S
C499 C498 1.369 . S
C499 C500 1.410 1_565 S
C499 C507 1.503 1_564 S
C500 C499 1.410 1_545 S
C500 C501 1.392 . S
C500 C503 1.511 . S
C501 C497 1.376 1_545 S
C501 C500 1.392 . S
C501 H513 0.929 . S
C502 C498 1.531 . S
C502 H514 0.960 . S
C502 H515 0.962 1_554 S
C502 H516 0.960 . S
C503 C500 1.511 . S
C503 H517 0.961 . S
C503 H518 0.961 1_554 S
C503 H519 0.961 . S
C504 C505 1.370 . S
C504 C506 1.363 . S
C504 H520 0.931 . S
C505 C504 1.370 . S
C505 C509 1.408 . S
C506 C504 1.363 . S
C506 C507 1.370 . S
C506 C510 1.524 1_545 S
C507 C499 1.503 1_546 S
C507 C506 1.370 . S
C507 C508 1.403 1_556 S
C508 C507 1.403 1_554 S
C508 C509 1.404 1_554 S
C508 C511 1.539 . S
C509 C505 1.408 . S
C509 C508 1.404 1_556 S
C509 H521 0.930 1_556 S
C510 C506 1.524 1_565 S
C510 H522 0.956 . S
C510 H523 0.961 1_565 S
C510 H524 0.961 . S
C511 C508 1.539 . S
C511 H525 0.958 . S
C511 H526 0.961 . S
C511 H527 0.960 . S
H512 C496 0.931 . S
H513 C501 0.929 . S
H514 C502 0.960 . S
H515 C502 0.962 1_556 S
H516 C502 0.960 . S
H517 C503 0.961 . S
H518 C503 0.961 1_556 S
H519 C503 0.961 . S
H520 C504 0.931 . S
H521 C509 0.930 1_554 S
H522 C510 0.956 . S
H523 C510 0.961 1_545 S
H524 C510 0.961 . S
H525 C511 0.958 . S
H526 C511 0.961 . S
H527 C511 0.960 . S
C528 C529 1.391 1_545 S
C528 C530 1.394 . S
C528 H544 0.931 . S
C529 C528 1.391 1_565 S
C529 C533 1.376 . S
C530 C528 1.394 . S
C530 C531 1.369 1_545 S
C530 C534 1.531 . S
C531 C530 1.369 1_565 S
C531 C532 1.410 . S
C531 C539 1.503 1_565 S
C532 C531 1.410 . S
C532 C533 1.392 . S
C532 C535 1.511 . S
C533 C529 1.376 . S
C533 C532 1.392 . S
C533 H545 0.929 . S
C534 C530 1.531 . S
C534 H546 0.960 . S
C534 H547 0.962 . S
C534 H548 0.960 . S
C535 C532 1.511 . S
C535 H549 0.961 . S
C535 H550 0.961 . S
C535 H551 0.961 . S
C536 C537 1.370 . S
C536 C538 1.363 . S
C536 H552 0.931 . S
C537 C536 1.370 . S
C537 C541 1.408 . S
C538 C536 1.363 . S
C538 C539 1.370 . S
C538 C542 1.524 1_545 S
C539 C531 1.503 1_545 S
C539 C538 1.370 . S
C539 C540 1.403 . S
C540 C539 1.403 . S
C540 C541 1.404 . S
C540 C543 1.539 . S
C541 C537 1.408 . S
C541 C540 1.404 . S
C541 H553 0.930 . S
C542 C538 1.524 1_565 S
C542 H554 0.956 . S
C542 H555 0.961 . S
C542 H556 0.961 . S
C543 C540 1.539 . S
C543 H557 0.958 . S
C543 H558 0.961 . S
C543 H559 0.960 . S
H544 C528 0.931 . S
H545 C533 0.929 . S
H546 C534 0.960 . S
H547 C534 0.962 . S
H548 C534 0.960 . S
H549 C535 0.961 . S
H550 C535 0.961 . S
H551 C535 0.961 . S
H552 C536 0.931 . S
H553 C541 0.930 . S
H554 C542 0.956 . S
H555 C542 0.961 . S
H556 C542 0.961 . S
H557 C543 0.958 . S
H558 C543 0.961 . S
H559 C543 0.960 . S
C560 C561 1.391 . S
C560 C562 1.394 . S
C560 H576 0.931 . S
C561 C560 1.391 . S
C561 C565 1.376 . S
C562 C560 1.394 . S
C562 C563 1.369 . S
C562 C566 1.531 . S
C563 C562 1.369 . S
C563 C564 1.410 . S
C563 C571 1.503 1_455 S
C564 C563 1.410 . S
C564 C565 1.392 . S
C564 C567 1.511 1_455 S
C565 C561 1.376 . S
C565 C564 1.392 . S
C565 H577 0.929 . S
C566 C562 1.531 . S
C566 H578 0.960 . S
C566 H579 0.962 . S
C566 H580 0.960 . S
C567 C564 1.511 1_655 S
C567 H581 0.961 . S
C567 H582 0.961 . S
C567 H583 0.961 . S
C568 C569 1.370 . S
C568 C570 1.363 . S
C568 H584 0.931 . S
C569 C568 1.370 . S
C569 C573 1.408 . S
C570 C568 1.363 . S
C570 C571 1.370 . S
C570 C574 1.524 . S
C571 C563 1.503 1_655 S
C571 C570 1.370 . S
C571 C572 1.403 . S
C572 C571 1.403 . S
C572 C573 1.404 . S
C572 C575 1.539 . S
C573 C569 1.408 . S
C573 C572 1.404 . S
C573 H585 0.930 . S
C574 C570 1.524 . S
C574 H586 0.956 1_655 S
C574 H587 0.961 . S
C574 H588 0.961 . S
C575 C572 1.539 . S
C575 H589 0.958 1_655 S
C575 H590 0.961 . S
C575 H591 0.960 . S
H576 C560 0.931 . S
H577 C565 0.929 . S
H578 C566 0.960 . S
H579 C566 0.962 . S
H580 C566 0.960 . S
H581 C567 0.961 . S
H582 C567 0.961 . S
H583 C567 0.961 . S
H584 C568 0.931 . S
H585 C573 0.930 . S
H586 C574 0.956 1_455 S
H587 C574 0.961 . S
H588 C574 0.961 . S
H589 C575 0.958 1_455 S
H590 C575 0.961 . S
H591 C575 0.960 . S
C592 C593 1.391 . S
C592 C594 1.394 . S
C592 H608 0.931 . S
C593 C592 1.391 . S
C593 C597 1.376 . S
C594 C592 1.394 . S
C594 C595 1.369 . S
C594 C598 1.531 . S
C595 C594 1.369 . S
C595 C596 1.410 . S
C595 C603 1.503 1_455 S
C596 C595 1.410 . S
C596 C597 1.392 . S
C596 C599 1.511 1_455 S
C597 C593 1.376 . S
C597 C596 1.392 . S
C597 H609 0.929 . S
C598 C594 1.531 . S
C598 H610 0.960 . S
C598 H611 0.962 . S
C598 H612 0.960 . S
C599 C596 1.511 1_655 S
C599 H613 0.961 . S
C599 H614 0.961 . S
C599 H615 0.961 . S
C600 C601 1.370 . S
C600 C602 1.363 . S
C600 H616 0.931 . S
C601 C600 1.370 . S
C601 C605 1.408 . S
C602 C600 1.363 . S
C602 C603 1.370 . S
C602 C606 1.524 . S
C603 C595 1.503 1_655 S
C603 C602 1.370 . S
C603 C604 1.403 . S
C604 C603 1.403 . S
C604 C605 1.404 . S
C604 C607 1.539 . S
C605 C601 1.408 . S
C605 C604 1.404 . S
C605 H617 0.930 . S
C606 C602 1.524 . S
C606 H618 0.956 1_655 S
C606 H619 0.961 . S
C606 H620 0.961 . S
C607 C604 1.539 . S
C607 H621 0.958 . S
C607 H622 0.961 . S
C607 H623 0.960 . S
H608 C592 0.931 . S
H609 C597 0.929 . S
H610 C598 0.960 . S
H611 C598 0.962 . S
H612 C598 0.960 . S
H613 C599 0.961 . S
H614 C599 0.961 . S
H615 C599 0.961 . S
H616 C600 0.931 . S
H617 C605 0.930 . S
H618 C606 0.956 1_455 S
H619 C606 0.961 . S
H620 C606 0.961 . S
H621 C607 0.958 . S
H622 C607 0.961 . S
H623 C607 0.960 . S
C624 C625 1.391 . S
C624 C626 1.394 . S
C624 H640 0.931 . S
C625 C624 1.391 . S
C625 C629 1.376 . S
C626 C624 1.394 . S
C626 C627 1.369 . S
C626 C630 1.531 . S
C627 C626 1.369 . S
C627 C628 1.410 . S
C627 C635 1.503 . S
C628 C627 1.410 . S
C628 C629 1.392 . S
C628 C631 1.511 . S
C629 C625 1.376 . S
C629 C628 1.392 . S
C629 H641 0.929 . S
C630 C626 1.531 . S
C630 H642 0.960 . S
C630 H643 0.962 . S
C630 H644 0.960 . S
C631 C628 1.511 . S
C631 H645 0.961 . S
C631 H646 0.961 . S
C631 H647 0.961 . S
C632 C633 1.370 . S
C632 C634 1.363 . S
C632 H648 0.931 . S
C633 C632 1.370 . S
C633 C637 1.408 . S
C634 C632 1.363 . S
C634 C635 1.370 . S
C634 C638 1.524 . S
C635 C627 1.503 . S
C635 C634 1.370 . S
C635 C636 1.403 . S
C636 C635 1.403 . S
C636 C637 1.404 . S
C636 C639 1.539 . S
C637 C633 1.408 . S
C637 C636 1.404 . S
C637 H649 0.930 . S
C638 C634 1.524 . S
C638 H650 0.956 . S
C638 H651 0.961 . S
C638 H652 0.961 . S
C639 C636 1.539 . S
C639 H653 0.958 . S
C639 H654 0.961 . S
C639 H655 0.960 . S
H640 C624 0.931 . S
H641 C629 0.929 . S
H642 C630 0.960 . S
H643 C630 0.962 . S
H644 C630 0.960 . S
H645 C631 0.961 . S
H646 C631 0.961 . S
H647 C631 0.961 . S
H648 C632 0.931 . S
H649 C637 0.930 . S
H650 C638 0.956 . S
H651 C638 0.961 . S
H652 C638 0.961 . S
H653 C639 0.958 . S
H654 C639 0.961 . S
H655 C639 0.960 . S
C656 C657 1.391 . S
C656 C658 1.394 . S
C656 H672 0.931 . S
C657 C656 1.391 . S
C657 C661 1.376 . S
C658 C656 1.394 . S
C658 C659 1.369 . S
C658 C662 1.531 . S
C659 C658 1.369 . S
C659 C660 1.410 . S
C659 C667 1.503 . S
C660 C659 1.410 . S
C660 C661 1.392 . S
C660 C663 1.511 . S
C661 C657 1.376 . S
C661 C660 1.392 . S
C661 H673 0.929 . S
C662 C658 1.531 . S
C662 H674 0.960 . S
C662 H675 0.962 . S
C662 H676 0.960 . S
C663 C660 1.511 . S
C663 H677 0.961 . S
C663 H678 0.961 . S
C663 H679 0.961 . S
C664 C665 1.370 . S
C664 C666 1.363 . S
C664 H680 0.931 . S
C665 C664 1.370 . S
C665 C669 1.408 . S
C666 C664 1.363 . S
C666 C667 1.370 . S
C666 C670 1.524 . S
C667 C659 1.503 . S
C667 C666 1.370 . S
C667 C668 1.403 . S
C668 C667 1.403 . S
C668 C669 1.404 . S
C668 C671 1.539 . S
C669 C665 1.408 . S
C669 C668 1.404 . S
C669 H681 0.930 . S
C670 C666 1.524 . S
C670 H682 0.956 . S
C670 H683 0.961 . S
C670 H684 0.961 . S
C671 C668 1.539 . S
C671 H685 0.958 . S
C671 H686 0.961 . S
C671 H687 0.960 . S
H672 C656 0.931 . S
H673 C661 0.929 . S
H674 C662 0.960 . S
H675 C662 0.962 . S
H676 C662 0.960 . S
H677 C663 0.961 . S
H678 C663 0.961 . S
H679 C663 0.961 . S
H680 C664 0.931 . S
H681 C669 0.930 . S
H682 C670 0.956 . S
H683 C670 0.961 . S
H684 C670 0.961 . S
H685 C671 0.958 . S
H686 C671 0.961 . S
H687 C671 0.960 . S
C688 C689 1.391 . S
C688 C690 1.394 . S
C688 H704 0.931 . S
C689 C688 1.391 . S
C689 C693 1.376 . S
C690 C688 1.394 . S
C690 C691 1.369 . S
C690 C694 1.531 . S
C691 C690 1.369 . S
C691 C692 1.410 . S
C691 C699 1.503 . S
C692 C691 1.410 . S
C692 C693 1.392 . S
C692 C695 1.511 . S
C693 C689 1.376 . S
C693 C692 1.392 . S
C693 H705 0.929 . S
C694 C690 1.531 . S
C694 H706 0.960 . S
C694 H707 0.962 . S
C694 H708 0.960 . S
C695 C692 1.511 . S
C695 H709 0.961 . S
C695 H710 0.961 . S
C695 H711 0.961 . S
C696 C697 1.370 . S
C696 C698 1.363 . S
C696 H712 0.931 . S
C697 C696 1.370 . S
C697 C701 1.408 . S
C698 C696 1.363 . S
C698 C699 1.370 . S
C698 C702 1.524 . S
C699 C691 1.503 . S
C699 C698 1.370 . S
C699 C700 1.403 . S
C700 C699 1.403 . S
C700 C701 1.404 . S
C700 C703 1.539 . S
C701 C697 1.408 . S
C701 C700 1.404 . S
C701 H713 0.930 . S
C702 C698 1.524 . S
C702 H714 0.956 . S
C702 H715 0.961 . S
C702 H716 0.961 . S
C703 C700 1.539 . S
C703 H717 0.958 . S
C703 H718 0.961 . S
C703 H719 0.960 . S
H704 C688 0.931 . S
H705 C693 0.929 . S
H706 C694 0.960 . S
H707 C694 0.962 . S
H708 C694 0.960 . S
H709 C695 0.961 . S
H710 C695 0.961 . S
H711 C695 0.961 . S
H712 C696 0.931 . S
H713 C701 0.930 . S
H714 C702 0.956 . S
H715 C702 0.961 . S
H716 C702 0.961 . S
H717 C703 0.958 . S
H718 C703 0.961 . S
H719 C703 0.960 . S
C720 C721 1.391 . S
C720 C722 1.394 . S
C720 H736 0.931 . S
C721 C720 1.391 . S
C721 C725 1.376 . S
C722 C720 1.394 . S
C722 C723 1.369 . S
C722 C726 1.531 . S
C723 C722 1.369 . S
C723 C724 1.410 . S
C723 C731 1.503 . S
C724 C723 1.410 . S
C724 C725 1.392 . S
C724 C727 1.511 . S
C725 C721 1.376 . S
C725 C724 1.392 . S
C725 H737 0.929 . S
C726 C722 1.531 . S
C726 H738 0.960 . S
C726 H739 0.962 . S
C726 H740 0.960 . S
C727 C724 1.511 . S
C727 H741 0.961 . S
C727 H742 0.961 . S
C727 H743 0.961 . S
C728 C729 1.370 . S
C728 C730 1.363 . S
C728 H744 0.931 . S
C729 C728 1.370 . S
C729 C733 1.408 . S
C730 C728 1.363 . S
C730 C731 1.370 . S
C730 C734 1.524 . S
C731 C723 1.503 . S
C731 C730 1.370 . S
C731 C732 1.403 . S
C732 C731 1.403 . S
C732 C733 1.404 . S
C732 C735 1.539 . S
C733 C729 1.408 . S
C733 C732 1.404 . S
C733 H745 0.930 . S
C734 C730 1.524 . S
C734 H746 0.956 . S
C734 H747 0.961 . S
C734 H748 0.961 . S
C735 C732 1.539 . S
C735 H749 0.958 . S
C735 H750 0.961 . S
C735 H751 0.960 . S
H736 C720 0.931 . S
H737 C725 0.929 . S
H738 C726 0.960 . S
H739 C726 0.962 . S
H740 C726 0.960 . S
H741 C727 0.961 . S
H742 C727 0.961 . S
H743 C727 0.961 . S
H744 C728 0.931 . S
H745 C733 0.930 . S
H746 C734 0.956 . S
H747 C734 0.961 . S
H748 C734 0.961 . S
H749 C735 0.958 . S
H750 C735 0.961 . S
H751 C735 0.960 . S
C752 C753 1.391 . S
C752 C754 1.394 . S
C752 H768 0.931 . S
C753 C752 1.391 . S
C753 C757 1.376 . S
C754 C752 1.394 . S
C754 C755 1.369 . S
C754 C758 1.531 . S
C755 C754 1.369 . S
C755 C756 1.410 . S
C755 C763 1.503 . S
C756 C755 1.410 . S
C756 C757 1.392 . S
C756 C759 1.511 . S
C757 C753 1.376 . S
C757 C756 1.392 . S
C757 H769 0.929 . S
C758 C754 1.531 . S
C758 H770 0.960 . S
C758 H771 0.962 . S
C758 H772 0.960 . S
C759 C756 1.511 . S
C759 H773 0.961 . S
C759 H774 0.961 . S
C759 H775 0.961 . S
C760 C761 1.370 . S
C760 C762 1.363 . S
C760 H776 0.931 . S
C761 C760 1.370 . S
C761 C765 1.408 . S
C762 C760 1.363 . S
C762 C763 1.370 . S
C762 C766 1.524 . S
C763 C755 1.503 . S
C763 C762 1.370 . S
C763 C764 1.403 . S
C764 C763 1.403 . S
C764 C765 1.404 . S
C764 C767 1.539 . S
C765 C761 1.408 . S
C765 C764 1.404 . S
C765 H777 0.930 1_554 S
C766 C762 1.524 . S
C766 H778 0.956 . S
C766 H779 0.961 . S
C766 H780 0.961 . S
C767 C764 1.539 . S
C767 H781 0.958 . S
C767 H782 0.961 . S
C767 H783 0.960 . S
H768 C752 0.931 . S
H769 C757 0.929 . S
H770 C758 0.960 . S
H771 C758 0.962 . S
H772 C758 0.960 . S
H773 C759 0.961 . S
H774 C759 0.961 . S
H775 C759 0.961 . S
H776 C760 0.931 . S
H777 C765 0.930 1_556 S
H778 C766 0.956 . S
H779 C766 0.961 . S
H780 C766 0.961 . S
H781 C767 0.958 . S
H782 C767 0.961 . S
H783 C767 0.960 . S
C784 C785 1.391 . S
C784 C786 1.394 . S
C784 H800 0.931 . S
C785 C784 1.391 . S
C785 C789 1.376 . S
C786 C784 1.394 . S
C786 C787 1.369 . S
C786 C790 1.531 . S
C787 C786 1.369 . S
C787 C788 1.410 . S
C787 C795 1.503 . S
C788 C787 1.410 . S
C788 C789 1.392 . S
C788 C791 1.511 . S
C789 C785 1.376 . S
C789 C788 1.392 . S
C789 H801 0.929 . S
C790 C786 1.531 . S
C790 H802 0.960 . S
C790 H803 0.962 . S
C790 H804 0.960 . S
C791 C788 1.511 . S
C791 H805 0.961 . S
C791 H806 0.961 . S
C791 H807 0.961 . S
C792 C793 1.370 . S
C792 C794 1.363 . S
C792 H808 0.931 . S
C793 C792 1.370 . S
C793 C797 1.408 . S
C794 C792 1.363 . S
C794 C795 1.370 . S
C794 C798 1.524 . S
C795 C787 1.503 . S
C795 C794 1.370 . S
C795 C796 1.403 . S
C796 C795 1.403 . S
C796 C797 1.404 . S
C796 C799 1.539 . S
C797 C793 1.408 . S
C797 C796 1.404 . S
C797 H809 0.930 . S
C798 C794 1.524 . S
C798 H810 0.956 . S
C798 H811 0.961 . S
C798 H812 0.961 . S
C799 C796 1.539 . S
C799 H813 0.958 . S
C799 H814 0.961 . S
C799 H815 0.960 . S
H800 C784 0.931 . S
H801 C789 0.929 . S
H802 C790 0.960 . S
H803 C790 0.962 . S
H804 C790 0.960 . S
H805 C791 0.961 . S
H806 C791 0.961 . S
H807 C791 0.961 . S
H808 C792 0.931 . S
H809 C797 0.930 . S
H810 C798 0.956 . S
H811 C798 0.961 . S
H812 C798 0.961 . S
H813 C799 0.958 . S
H814 C799 0.961 . S
H815 C799 0.960 . S
C816 C817 1.391 . S
C816 C818 1.394 . S
C816 H832 0.931 . S
C817 C816 1.391 . S
C817 C821 1.376 . S
C818 C816 1.394 . S
C818 C819 1.369 . S
C818 C822 1.531 1_565 S
C819 C818 1.369 . S
C819 C820 1.410 . S
C819 C827 1.503 1_565 S
C820 C819 1.410 . S
C820 C821 1.392 . S
C820 C823 1.511 . S
C821 C817 1.376 . S
C821 C820 1.392 . S
C821 H833 0.929 . S
C822 C818 1.531 1_545 S
C822 H834 0.960 . S
C822 H835 0.962 . S
C822 H836 0.960 . S
C823 C820 1.511 . S
C823 H837 0.961 . S
C823 H838 0.961 . S
C823 H839 0.961 . S
C824 C825 1.370 . S
C824 C826 1.363 1_545 S
C824 H840 0.931 . S
C825 C824 1.370 . S
C825 C829 1.408 . S
C826 C824 1.363 1_565 S
C826 C827 1.370 1_565 S
C826 C830 1.524 . S
C827 C819 1.503 1_545 S
C827 C826 1.370 1_545 S
C827 C828 1.403 . S
C828 C827 1.403 . S
C828 C829 1.404 . S
C828 C831 1.539 . S
C829 C825 1.408 . S
C829 C828 1.404 . S
C829 H841 0.930 . S
C830 C826 1.524 . S
C830 H842 0.956 . S
C830 H843 0.961 . S
C830 H844 0.961 . S
C831 C828 1.539 . S
C831 H845 0.958 . S
C831 H846 0.961 . S
C831 H847 0.960 . S
H832 C816 0.931 . S
H833 C821 0.929 . S
H834 C822 0.960 . S
H835 C822 0.962 . S
H836 C822 0.960 . S
H837 C823 0.961 . S
H838 C823 0.961 . S
H839 C823 0.961 . S
H840 C824 0.931 . S
H841 C829 0.930 . S
H842 C830 0.956 . S
H843 C830 0.961 . S
H844 C830 0.961 . S
H845 C831 0.958 . S
H846 C831 0.961 . S
H847 C831 0.960 . S
C848 C849 1.391 . S
C848 C850 1.394 . S
C848 H864 0.931 . S
C849 C848 1.391 . S
C849 C853 1.376 . S
C850 C848 1.394 . S
C850 C851 1.369 1_545 S
C850 C854 1.531 . S
C851 C850 1.369 1_565 S
C851 C852 1.410 . S
C851 C859 1.503 . S
C852 C851 1.410 . S
C852 C853 1.392 1_565 S
C852 C855 1.511 . S
C853 C849 1.376 . S
C853 C852 1.392 1_545 S
C853 H865 0.929 . S
C854 C850 1.531 . S
C854 H866 0.960 . S
C854 H867 0.962 . S
C854 H868 0.960 . S
C855 C852 1.511 . S
C855 H869 0.961 . S
C855 H870 0.961 . S
C855 H871 0.961 . S
C856 C857 1.370 . S
C856 C858 1.363 . S
C856 H872 0.931 . S
C857 C856 1.370 . S
C857 C861 1.408 . S
C858 C856 1.363 . S
C858 C859 1.370 . S
C858 C862 1.524 1_565 S
C859 C851 1.503 . S
C859 C858 1.370 . S
C859 C860 1.403 . S
C860 C859 1.403 . S
C860 C861 1.404 . S
C860 C863 1.539 . S
C861 C857 1.408 . S
C861 C860 1.404 . S
C861 H873 0.930 . S
C862 C858 1.524 1_545 S
C862 H874 0.956 . S
C862 H875 0.961 . S
C862 H876 0.961 . S
C863 C860 1.539 . S
C863 H877 0.958 . S
C863 H878 0.961 . S
C863 H879 0.960 . S
H864 C848 0.931 . S
H865 C853 0.929 . S
H866 C854 0.960 . S
H867 C854 0.962 . S
H868 C854 0.960 . S
H869 C855 0.961 . S
H870 C855 0.961 . S
H871 C855 0.961 . S
H872 C856 0.931 . S
H873 C861 0.930 . S
H874 C862 0.956 . S
H875 C862 0.961 . S
H876 C862 0.961 . S
H877 C863 0.958 . S
H878 C863 0.961 . S
H879 C863 0.960 . S
C880 C881 1.391 . S
C880 C882 1.394 . S
C880 H896 0.931 . S
C881 C880 1.391 . S
C881 C885 1.376 . S
C882 C880 1.394 . S
C882 C883 1.369 . S
C882 C886 1.531 . S
C883 C882 1.369 . S
C883 C884 1.410 . S
C883 C891 1.503 1_565 S
C884 C883 1.410 . S
C884 C885 1.392 . S
C884 C887 1.511 . S
C885 C881 1.376 . S
C885 C884 1.392 . S
C885 H897 0.929 . S
C886 C882 1.531 . S
C886 H898 0.960 . S
C886 H899 0.962 1_565 S
C886 H900 0.960 . S
C887 C884 1.511 . S
C887 H901 0.961 . S
C887 H902 0.961 1_565 S
C887 H903 0.961 . S
C888 C889 1.370 . S
C888 C890 1.363 . S
C888 H904 0.931 . S
C889 C888 1.370 . S
C889 C893 1.408 . S
C890 C888 1.363 . S
C890 C891 1.370 . S
C890 C894 1.524 . S
C891 C883 1.503 1_545 S
C891 C890 1.370 . S
C891 C892 1.403 . S
C892 C891 1.403 . S
C892 C893 1.404 . S
C892 C895 1.539 1_545 S
C893 C889 1.408 . S
C893 C892 1.404 . S
C893 H905 0.930 1_554 S
C894 C890 1.524 . S
C894 H906 0.956 . S
C894 H907 0.961 . S
C894 H908 0.961 . S
C895 C892 1.539 1_565 S
C895 H909 0.958 . S
C895 H910 0.961 . S
C895 H911 0.960 . S
H896 C880 0.931 . S
H897 C885 0.929 . S
H898 C886 0.960 . S
H899 C886 0.962 1_545 S
H900 C886 0.960 . S
H901 C887 0.961 . S
H902 C887 0.961 1_545 S
H903 C887 0.961 . S
H904 C888 0.931 . S
H905 C893 0.930 1_556 S
H906 C894 0.956 . S
H907 C894 0.961 . S
H908 C894 0.961 . S
H909 C895 0.958 . S
H910 C895 0.961 . S
H911 C895 0.960 . S
C912 C913 1.391 . S
C912 C914 1.394 . S
C912 H928 0.931 . S
C913 C912 1.391 . S
C913 C917 1.376 . S
C914 C912 1.394 . S
C914 C915 1.369 . S
C914 C918 1.531 . S
C915 C914 1.369 . S
C915 C916 1.410 . S
C915 C923 1.503 . S
C916 C915 1.410 . S
C916 C917 1.392 . S
C916 C919 1.511 . S
C917 C913 1.376 . S
C917 C916 1.392 . S
C917 H929 0.929 . S
C918 C914 1.531 . S
C918 H930 0.960 . S
C918 H931 0.962 . S
C918 H932 0.960 . S
C919 C916 1.511 . S
C919 H933 0.966 . S
C919 H934 0.961 1_545 S
C919 H935 0.961 . S
C920 C921 1.370 . S
C920 C922 1.363 . S
C920 H936 0.931 . S
C921 C920 1.370 . S
C921 C925 1.408 . S
C922 C920 1.363 . S
C922 C923 1.370 1_565 S
C922 C926 1.524 . S
C923 C915 1.503 . S
C923 C922 1.370 1_545 S
C923 C924 1.403 . S
C924 C923 1.403 . S
C924 C925 1.404 1_545 S
C924 C927 1.539 . S
C925 C921 1.408 . S
C925 C924 1.404 1_565 S
C925 H937 0.930 . S
C926 C922 1.524 . S
C926 H938 0.956 . S
C926 H939 0.961 . S
C926 H940 0.961 . S
C927 C924 1.539 . S
C927 H941 0.958 . S
C927 H942 0.961 . S
C927 H943 0.960 . S
H928 C912 0.931 . S
H929 C917 0.929 . S
H930 C918 0.960 . S
H931 C918 0.962 . S
H932 C918 0.960 . S
H933 C919 0.966 . S
H934 C919 0.961 1_565 S
H935 C919 0.961 . S
H936 C920 0.931 . S
H937 C925 0.930 . S
H938 C926 0.956 . S
H939 C926 0.961 . S
H940 C926 0.961 . S
H941 C927 0.958 . S
H942 C927 0.961 . S
H943 C927 0.960 . S
C177 C40 1.363 . S
C185 C8 1.349 . S
C209 C62 1.331 . S
C217 C74 1.363 . S
C241 C128 1.354 . S
C249 C96 1.354 . S
C273 C150 1.341 . S
C281 C162 1.360 . S
C305 C18 1.633 . S
C313 C142 1.617 . S
C337 C32 1.633 . S
C345 C172 1.617 . S
C369 C106 1.628 . S
C377 C54 1.620 . S
C401 C84 1.605 . S
C409 C120 1.628 . S
C433 C65 1.036 . S
C441 C15 0.989 . S
C465 C81 0.956 . S
C473 C43 1.020 . S
C497 C103 1.033 . S
C505 C153 0.986 . S
C529 C131 0.990 . S
C537 C169 1.009 . S
C561 C7 1.533 . S
C569 C37 1.546 . S
C593 C73 1.564 . S
C601 C59 1.557 . S
C625 C125 1.539 . S
C633 C95 1.545 . S
C657 C161 1.561 . S
C665 C147 1.558 . S
C689 C10 1.225 1_556 S
C697 C87 1.309 . S
C721 C30 1.288 . S
C729 C51 1.299 . S
C753 C29 1.307 . S
C761 C52 1.255 1_554 S
C785 C21 1.306 . S
C793 C76 1.256 . S
C817 C98 1.243 1_556 S
C825 C175 1.305 . S
C849 C139 1.301 . S
C857 C118 1.268 . S
C881 C117 1.312 . S
C889 C140 1.250 1_554 S
C913 C164 1.296 . S
C921 C109 1.299 . S
