# Generated by pormake.
# Topology uog, (4)-cn, num edge types: 1
# Building blocks:
#     Node 0, Type 0, BuildingBlock: KOZSID_clean_sbu_0, # of connection points: 4
#     Node 1, Type 0, BuildingBlock: KOZSID_clean_sbu_0, # of connection points: 4
#     Node 2, Type 0, BuildingBlock: KOZSID_clean_sbu_0, # of connection points: 4
#     Node 3, Type 0, BuildingBlock: KOZSID_clean_sbu_0, # of connection points: 4
#     Node 4, Type 0, BuildingBlock: KOZSID_clean_sbu_0, # of connection points: 4
#     Node 5, Type 0, BuildingBlock: KOZSID_clean_sbu_0, # of connection points: 4
#     Edge 6, Type (0, 0), BuildingBlock: AJUNOK_clean_linker_0, # of connection points: 2
#     Edge 7, Type (0, 0), BuildingBlock: AJUNOK_clean_linker_0, # of connection points: 2
#     Edge 8, Type (0, 0), BuildingBlock: AJUNOK_clean_linker_0, # of connection points: 2
#     Edge 9, Type (0, 0), BuildingBlock: AJUNOK_clean_linker_0, # of connection points: 2
#     Edge 10, Type (0, 0), BuildingBlock: AJUNOK_clean_linker_0, # of connection points: 2
#     Edge 11, Type (0, 0), BuildingBlock: AJUNOK_clean_linker_0, # of connection points: 2
#     Edge 12, Type (0, 0), BuildingBlock: AJUNOK_clean_linker_0, # of connection points: 2
#     Edge 13, Type (0, 0), BuildingBlock: AJUNOK_clean_linker_0, # of connection points: 2
#     Edge 14, Type (0, 0), BuildingBlock: AJUNOK_clean_linker_0, # of connection points: 2
#     Edge 15, Type (0, 0), BuildingBlock: AJUNOK_clean_linker_0, # of connection points: 2
#     Edge 16, Type (0, 0), BuildingBlock: AJUNOK_clean_linker_0, # of connection points: 2
#     Edge 17, Type (0, 0), BuildingBlock: AJUNOK_clean_linker_0, # of connection points: 2
# Relax obj value: 0.022
# Max RMSD: 0.265
# Mean RMSD: 0.265
data_MOF--net-uog--node1-KOZSID_clean_sbu_0--edge1-AJUNOK_clean_linker_0
_symmetry_space_group_name_H-M    P1
_symmetry_Int_Tables_number       1
_symmetry_cell_setting            triclinic
loop_
_symmetry_equiv_pos_as_xyz
'x, y, z'
_cell_length_a     29.754071
_cell_length_b     29.624305
_cell_length_c     35.564518
_cell_angle_alpha  89.955048
_cell_angle_beta   90.184367
_cell_angle_gamma 119.94923
loop_
_atom_site_label
_atom_site_type_symbol
_atom_site_fract_x
_atom_site_fract_y
_atom_site_fract_z
_atom_type_partial_charge
C0 C 0.58284 0.3303 0.24186 0.0
C1 C 0.53487 0.31887 0.25579 0.0
C2 C 0.4989 0.29017 0.22857 0.0
C3 C 0.52676 0.28616 0.19928 0.0
N4 N 0.57795 0.31005 0.20642 0.0
Co5 Co 0.6327 0.32365 0.16837 0.0
N6 N 0.58204 0.28617 0.12675 0.0
C7 C 0.53018 0.26134 0.13009 0.0
C8 C 0.50497 0.23359 0.09836 0.0
C9 C 0.54345 0.24101 0.07353 0.0
C10 C 0.59018 0.2733 0.09136 0.0
N11 N 0.68907 0.34311 0.13058 0.0
C12 C 0.68617 0.33574 0.09291 0.0
C13 C 0.73433 0.36543 0.07604 0.0
C14 C 0.76925 0.38947 0.10431 0.0
C15 C 0.74031 0.37443 0.13649 0.0
N16 N 0.6848 0.35671 0.20969 0.0
C17 C 0.73615 0.37455 0.20727 0.0
C18 C 0.76112 0.38572 0.24126 0.0
C19 C 0.72341 0.37519 0.26704 0.0
C20 C 0.67779 0.35963 0.24697 0.0
N21 N 0.62756 0.25429 0.17993 0.0
C22 C 0.58836 0.14385 0.18485 0.0
C23 C 0.61968 0.17395 0.15479 0.0
C24 C 0.63915 0.22831 0.1532 0.0
C25 C 0.5819 0.17196 0.21425 0.0
C26 C 0.602 0.22647 0.21148 0.0
N27 N 0.63198 0.39022 0.15666 0.0
C28 C 0.62502 0.46369 0.18094 0.0
C29 C 0.59522 0.46283 0.14991 0.0
C30 C 0.58934 0.42855 0.12064 0.0
C31 C 0.60905 0.39409 0.12406 0.0
C32 C 0.64305 0.42761 0.18368 0.0
H33 H 0.60336 0.3692 0.10042 0.0
H34 H 0.66404 0.42916 0.20863 0.0
H35 H 0.66187 0.24845 0.12929 0.0
H36 H 0.59506 0.24531 0.23478 0.0
C37 C 0.50728 0.26376 0.16391 0.0
C38 C 0.63241 0.35911 0.26302 0.0
C39 C 0.64178 0.29306 0.07371 0.0
C40 C 0.76039 0.38508 0.17263 0.0
H41 H 0.52668 0.3305 0.28254 0.0
H42 H 0.45752 0.27543 0.2296 0.0
H43 H 0.46354 0.21004 0.09397 0.0
H44 H 0.53776 0.2247 0.04556 0.0
H45 H 0.74388 0.36652 0.04665 0.0
H46 H 0.81095 0.41331 0.1018 0.0
H47 H 0.80214 0.40163 0.24657 0.0
H48 H 0.7296 0.38181 0.29698 0.0
H49 H 0.62779 0.1555 0.13159 0.0
H50 H 0.56111 0.15208 0.23944 0.0
H51 H 0.63235 0.49046 0.20394 0.0
H52 H 0.56872 0.42769 0.09524 0.0
C53 C 0.28683 0.57016 0.58632 0.0
C54 C 0.24225 0.52651 0.59868 0.0
C55 C 0.22305 0.493 0.56859 0.0
C56 C 0.25666 0.51807 0.53943 0.0
N57 N 0.29678 0.5648 0.54937 0.0
Co58 Co 0.34601 0.61863 0.51282 0.0
N59 N 0.32157 0.56986 0.46913 0.0
C60 C 0.27947 0.52195 0.46891 0.0
C61 C 0.27046 0.49805 0.43438 0.0
C62 C 0.30921 0.53332 0.41137 0.0
C63 C 0.33989 0.57684 0.43319 0.0
N64 N 0.39483 0.67445 0.47779 0.0
C65 C 0.41112 0.67015 0.44328 0.0
C66 C 0.45316 0.71705 0.43148 0.0
C67 C 0.46207 0.75267 0.45864 0.0
C68 C 0.42639 0.72549 0.48595 0.0
N69 N 0.37305 0.66796 0.55628 0.0
C70 C 0.41125 0.71812 0.55588 0.0
C71 C 0.43089 0.73796 0.59069 0.0
C72 C 0.4023 0.69821 0.61482 0.0
C73 C 0.3657 0.65733 0.5934 0.0
N74 N 0.39978 0.59724 0.52242 0.0
C75 C 0.47319 0.56065 0.52355 0.0
C76 C 0.48912 0.61428 0.52247 0.0
C77 C 0.45229 0.63157 0.5222 0.0
C78 C 0.41938 0.52643 0.5253 0.0
C79 C 0.38405 0.54512 0.52478 0.0
N80 N 0.28858 0.63458 0.50162 0.0
C81 C 0.20539 0.61954 0.52526 0.0
C82 C 0.18225 0.60608 0.48956 0.0
C83 C 0.2158 0.61395 0.45926 0.0
C84 C 0.26862 0.62875 0.46583 0.0
C85 C 0.25821 0.63506 0.5303 0.0
H86 H 0.2919 0.63145 0.4419 0.0
H87 H 0.27276 0.64283 0.55815 0.0
H88 H 0.46685 0.67284 0.5207 0.0
H89 H 0.34359 0.51646 0.52509 0.0
C90 C 0.25061 0.50086 0.50193 0.0
C91 C 0.31633 0.61829 0.60898 0.0
C92 C 0.38368 0.62546 0.4183 0.0
C93 C 0.43214 0.74344 0.52246 0.0
H94 H 0.22447 0.52047 0.62608 0.0
H95 H 0.18755 0.45573 0.56769 0.0
H96 H 0.23937 0.45966 0.42675 0.0
H97 H 0.31396 0.52808 0.38183 0.0
H98 H 0.47478 0.72491 0.40556 0.0
H99 H 0.4935 0.79265 0.45967 0.0
H100 H 0.46269 0.7763 0.59761 0.0
H101 H 0.40568 0.69961 0.64489 0.0
H102 H 0.52985 0.64311 0.52051 0.0
H103 H 0.40414 0.48477 0.52679 0.0
H104 H 0.18228 0.61637 0.54965 0.0
H105 H 0.20078 0.60573 0.4308 0.0
C106 C 0.76429 0.27492 0.91245 0.0
C107 C 0.76106 0.22777 0.92102 0.0
C108 C 0.77752 0.21303 0.88981 0.0
C109 C 0.78921 0.25145 0.86367 0.0
N110 N 0.78266 0.29055 0.8766 0.0
Co111 Co 0.77902 0.34399 0.84372 0.0
N112 N 0.80156 0.32273 0.79727 0.0
C113 C 0.80975 0.28211 0.79466 0.0
C114 C 0.82396 0.27585 0.75918 0.0
C115 C 0.82453 0.31487 0.73794 0.0
C116 C 0.81061 0.3429 0.76169 0.0
N117 N 0.77109 0.3956 0.81189 0.0
C118 C 0.78329 0.40956 0.77544 0.0
C119 C 0.77552 0.45066 0.76567 0.0
C120 C 0.75656 0.46219 0.79658 0.0
C121 C 0.7546 0.42836 0.82355 0.0
N122 N 0.76018 0.36896 0.89023 0.0
C123 C 0.7524 0.40986 0.89309 0.0
C124 C 0.74939 0.42382 0.92928 0.0
C125 C 0.75437 0.38874 0.95101 0.0
C126 C 0.75883 0.35465 0.92656 0.0
N127 N 0.85494 0.39644 0.85295 0.0
C128 C 0.9654 0.46805 0.85614 0.0
C129 C 0.92898 0.48535 0.85383 0.0
C130 C 0.87474 0.44948 0.85256 0.0
C131 C 0.94427 0.41375 0.85761 0.0
C132 C 0.8901 0.37935 0.85601 0.0
N133 N 0.70469 0.28783 0.83336 0.0
C134 C 0.63228 0.21013 0.86083 0.0
C135 C 0.62318 0.18098 0.82755 0.0
C136 C 0.65196 0.20936 0.79601 0.0
C137 C 0.69105 0.26244 0.79925 0.0
C138 C 0.67137 0.2632 0.86257 0.0
H139 H 0.71178 0.28157 0.77411 0.0
H140 H 0.67646 0.283 0.88853 0.0
H141 H 0.84942 0.46544 0.85038 0.0
H142 H 0.87738 0.33856 0.85635 0.0
C143 C 0.80187 0.25007 0.82587 0.0
C144 C 0.74675 0.30256 0.93799 0.0
C145 C 0.80092 0.38462 0.74854 0.0
C146 C 0.74757 0.43392 0.86133 0.0
H147 H 0.74623 0.20512 0.94642 0.0
H148 H 0.77811 0.17709 0.88596 0.0
H149 H 0.83192 0.24586 0.74964 0.0
H150 H 0.8326 0.32103 0.70815 0.0
H151 H 0.78365 0.47105 0.7391 0.0
H152 H 0.74828 0.49367 0.79969 0.0
H153 H 0.74282 0.45479 0.93867 0.0
H154 H 0.75052 0.38567 0.98126 0.0
H155 H 0.94202 0.5265 0.85179 0.0
H156 H 0.96955 0.39736 0.85987 0.0
H157 H 0.61136 0.19183 0.88632 0.0
H158 H 0.64518 0.19044 0.76888 0.0
C159 C 0.49899 0.7274 0.24888 0.0
C160 C 0.54325 0.7342 0.26708 0.0
C161 C 0.58114 0.74915 0.24015 0.0
C162 C 0.5582 0.75093 0.20701 0.0
N163 N 0.50858 0.73913 0.21162 0.0
Co164 Co 0.46102 0.73326 0.16996 0.0
N165 N 0.51808 0.77035 0.1332 0.0
C166 C 0.56688 0.7797 0.13751 0.0
C167 C 0.59746 0.80448 0.10686 0.0
C168 C 0.56569 0.81089 0.08177 0.0
C169 C 0.51736 0.78979 0.09852 0.0
N170 N 0.41212 0.7254 0.12879 0.0
C171 C 0.4205 0.75522 0.09802 0.0
C172 C 0.37388 0.74363 0.08063 0.0
C173 C 0.33546 0.70316 0.09981 0.0
C174 C 0.36026 0.69345 0.12844 0.0
N175 N 0.40204 0.69613 0.20575 0.0
C176 C 0.35185 0.66509 0.19594 0.0
C177 C 0.31981 0.63851 0.2251 0.0
C178 C 0.35146 0.65249 0.25555 0.0
C179 C 0.40148 0.68783 0.24323 0.0
N180 N 0.47053 0.80375 0.18332 0.0
C181 C 0.49975 0.9121 0.1867 0.0
C182 C 0.44856 0.87279 0.17745 0.0
C183 C 0.43472 0.81915 0.17623 0.0
C184 C 0.53417 0.89465 0.19627 0.0
C185 C 0.5193 0.84171 0.19427 0.0
N186 N 0.4579 0.66554 0.15669 0.0
C187 C 0.46904 0.59475 0.18125 0.0
C188 C 0.49413 0.59294 0.14851 0.0
C189 C 0.49595 0.6248 0.1185 0.0
C190 C 0.47646 0.65955 0.12281 0.0
C191 C 0.45132 0.63073 0.18473 0.0
H192 H 0.47992 0.68412 0.09932 0.0
H193 H 0.43612 0.63259 0.2116 0.0
H194 H 0.39569 0.79066 0.16799 0.0
H195 H 0.54936 0.83278 0.19977 0.0
C196 C 0.58286 0.76864 0.17195 0.0
C197 C 0.44759 0.70567 0.267 0.0
C198 C 0.47105 0.78662 0.08012 0.0
C199 C 0.33493 0.66439 0.15967 0.0
H200 H 0.54741 0.72794 0.29656 0.0
H201 H 0.62081 0.7582 0.24438 0.0
H202 H 0.63822 0.81729 0.10339 0.0
H203 H 0.57665 0.8289 0.05433 0.0
H204 H 0.3682 0.76134 0.05579 0.0
H205 H 0.29412 0.68517 0.09486 0.0
H206 H 0.27843 0.61158 0.22422 0.0
H207 H 0.33889 0.63582 0.28319 0.0
H208 H 0.41979 0.88328 0.16966 0.0
H209 H 0.57366 0.92216 0.20454 0.0
H210 H 0.4656 0.57035 0.20502 0.0
H211 H 0.51358 0.62393 0.09213 0.0
C212 C 0.80042 0.49496 0.57724 0.0
C213 C 0.82405 0.54156 0.59692 0.0
C214 C 0.83348 0.58012 0.57136 0.0
C215 C 0.81506 0.55506 0.53752 0.0
N216 N 0.79436 0.50318 0.54014 0.0
Co217 Co 0.76676 0.45338 0.49694 0.0
N218 N 0.77587 0.50789 0.45933 0.0
C219 C 0.79649 0.55888 0.46682 0.0
C220 C 0.79103 0.58603 0.43745 0.0
C221 C 0.76486 0.54979 0.40974 0.0
C222 C 0.75608 0.50234 0.42351 0.0
N223 N 0.74292 0.40334 0.45365 0.0
C224 C 0.73796 0.41108 0.41667 0.0
C225 C 0.7336 0.37047 0.39456 0.0
C226 C 0.73406 0.33488 0.41852 0.0
C227 C 0.73969 0.35636 0.45352 0.0
N228 N 0.75419 0.39639 0.53322 0.0
C229 C 0.74213 0.34737 0.52403 0.0
C230 C 0.73741 0.31656 0.55405 0.0
C231 C 0.74813 0.34795 0.5845 0.0
C232 C 0.75881 0.39659 0.57121 0.0
N233 N 0.69498 0.44342 0.50705 0.0
C234 C 0.6173 0.47376 0.5152 0.0
C235 C 0.62387 0.4531 0.48138 0.0
C236 C 0.66156 0.43736 0.47834 0.0
C237 C 0.64593 0.4717 0.5461 0.0
C238 C 0.68325 0.45571 0.5416 0.0
N239 N 0.8403 0.46873 0.48837 0.0
C240 C 0.92331 0.4879 0.51589 0.0
C241 C 0.95082 0.50995 0.4825 0.0
C242 C 0.9202 0.50818 0.45135 0.0
C243 C 0.86574 0.48794 0.45488 0.0
C244 C 0.86927 0.46737 0.51804 0.0
H245 H 0.84462 0.48899 0.4305 0.0
H246 H 0.85192 0.45227 0.54476 0.0
H247 H 0.66447 0.42208 0.4522 0.0
H248 H 0.70357 0.45536 0.5664 0.0
C249 C 0.81452 0.57805 0.50313 0.0
C250 C 0.78172 0.4433 0.59494 0.0
C251 C 0.73005 0.45251 0.40202 0.0
C252 C 0.73851 0.33202 0.4869 0.0
H253 H 0.83296 0.54693 0.62667 0.0
H254 H 0.85116 0.62145 0.57692 0.0
H255 H 0.80269 0.62696 0.43682 0.0
H256 H 0.75313 0.55749 0.38282 0.0
H257 H 0.72834 0.36614 0.36441 0.0
H258 H 0.72964 0.29735 0.41139 0.0
H259 H 0.72948 0.27669 0.55371 0.0
H260 H 0.75124 0.33677 0.61291 0.0
H261 H 0.60144 0.4508 0.45669 0.0
H262 H 0.64011 0.48287 0.57383 0.0
H263 H 0.94348 0.48775 0.54122 0.0
H264 H 0.93781 0.52229 0.42415 0.0
C265 C 0.36205 0.79979 0.91503 0.0
C266 C 0.33436 0.81374 0.93898 0.0
C267 C 0.29347 0.81018 0.91848 0.0
C268 C 0.29829 0.79418 0.8832 0.0
N269 N 0.33968 0.78754 0.88011 0.0
Co270 Co 0.35917 0.76257 0.83408 0.0
N271 N 0.30419 0.76378 0.80174 0.0
C272 C 0.26541 0.77048 0.81473 0.0
C273 C 0.22727 0.75919 0.7884 0.0
C274 C 0.24193 0.7428 0.75705 0.0
C275 C 0.28837 0.74521 0.76595 0.0
N276 N 0.38208 0.74084 0.78806 0.0
C277 C 0.36646 0.73737 0.75194 0.0
C278 C 0.39869 0.73034 0.72767 0.0
C279 C 0.43378 0.72542 0.74921 0.0
C280 C 0.42165 0.73118 0.78528 0.0
N281 N 0.41286 0.75783 0.86542 0.0
C282 C 0.44525 0.74078 0.8541 0.0
C283 C 0.48386 0.7502 0.87923 0.0
C284 C 0.47614 0.77502 0.90833 0.0
C285 C 0.43191 0.77781 0.89982 0.0
N286 N 0.30418 0.68841 0.84645 0.0
C287 C 0.19698 0.60952 0.85357 0.0
C288 C 0.22528 0.61537 0.82049 0.0
C289 C 0.27852 0.65358 0.81802 0.0
C290 C 0.22662 0.63882 0.88473 0.0
C291 C 0.27984 0.67671 0.88081 0.0
N292 N 0.41026 0.83827 0.82279 0.0
C293 C 0.49817 0.91357 0.82198 0.0
C294 C 0.47987 0.9493 0.82116 0.0
C295 C 0.42578 0.92726 0.81856 0.0
C296 C 0.39234 0.87282 0.8197 0.0
C297 C 0.46319 0.85888 0.82255 0.0
H298 H 0.3516 0.8594 0.81923 0.0
H299 H 0.47965 0.83386 0.82382 0.0
H300 H 0.29771 0.65691 0.79206 0.0
H301 H 0.29999 0.69849 0.9055 0.0
C302 C 0.26497 0.78439 0.85243 0.0
C303 C 0.40685 0.79465 0.92715 0.0
C304 C 0.31502 0.7266 0.74071 0.0
C305 C 0.44755 0.72919 0.81683 0.0
H306 H 0.34236 0.82437 0.96835 0.0
H307 H 0.2635 0.81781 0.92829 0.0
H308 H 0.1919 0.76062 0.79206 0.0
H309 H 0.22021 0.72895 0.73107 0.0
H310 H 0.39475 0.72612 0.69771 0.0
H311 H 0.46399 0.7179 0.73978 0.0
H312 H 0.51617 0.74351 0.87552 0.0
H313 H 0.50035 0.78933 0.93319 0.0
H314 H 0.20606 0.59239 0.79578 0.0
H315 H 0.20877 0.63344 0.91206 0.0
H316 H 0.53943 0.92765 0.82333 0.0
H317 H 0.40869 0.95191 0.81592 0.0
C318 C 0.59131 0.06035 0.17157 0.0
C319 C 0.56393 0.08439 0.18546 0.0
C320 C 0.56988 1.00556 0.17151 0.0
C321 C 0.5195 0.97081 0.18528 0.0
H322 H 0.63035 0.08412 0.16101 0.0
H323 H 0.59343 0.99031 0.16032 0.0
S324 S 0.42954 1.01228 0.22341 0.0
N325 N 0.48174 0.06768 0.21201 0.0
N326 N 0.44245 0.9657 0.2127 0.0
C327 C 0.49118 0.99411 0.19872 0.0
C328 C 0.51309 0.05021 0.19879 0.0
C329 C 0.49905 0.49443 0.50084 0.0
C330 C 0.51113 0.53976 0.52188 0.0
C331 C 0.53292 0.47366 0.49889 0.0
C332 C 0.58103 0.49652 0.51812 0.0
H333 H 0.46302 0.4748 0.48517 0.0
H334 H 0.52077 0.43878 0.48232 0.0
S335 S 0.63266 0.61609 0.57713 0.0
N336 N 0.57575 0.6065 0.5627 0.0
N337 N 0.6392 0.56873 0.55837 0.0
C338 C 0.59379 0.542 0.53917 0.0
C339 C 0.55927 0.56323 0.54111 0.0
C340 C 0.05798 0.49212 0.83669 0.0
C341 C 1.02445 0.50515 0.85612 0.0
C342 C 0.11272 0.52531 0.83616 0.0
C343 C 0.13784 0.57367 0.85529 0.0
H344 H 1.04177 0.45593 0.82112 0.0
H345 H 0.1356 0.51245 0.82072 0.0
S346 S 0.06926 0.62769 0.91049 0.0
N347 N 1.02202 0.57091 0.8955 0.0
N348 N 0.12339 0.63309 0.89368 0.0
C349 C 0.10487 0.58735 0.87479 0.0
C350 C 1.04902 0.5535 0.87531 0.0
C351 C 0.0899 0.53726 0.50664 0.0
C352 C 0.12357 0.58137 0.48513 0.0
C353 C 1.03519 0.51404 0.50453 0.0
C354 C 1.01022 0.53398 0.48135 0.0
H355 H 0.10609 0.52013 0.52535 0.0
H356 H 1.01233 0.47976 0.52151 0.0
S357 S 0.08086 0.65059 0.41988 0.0
N358 N 0.12772 0.64415 0.43953 0.0
N359 N 1.02595 0.60269 0.43666 0.0
C360 C 1.04376 0.57822 0.45945 0.0
C361 C 0.09974 0.60126 0.46112 0.0
C362 C 0.56394 1.03365 0.80389 0.0
C363 C 0.5161 1.00852 0.82326 0.0
C364 C 0.59735 0.08862 0.80498 0.0
C365 C 0.58534 0.12203 0.82578 0.0
H366 H 0.57562 1.01071 0.78722 0.0
H367 H 0.63355 0.10499 0.78971 0.0
S368 S 0.46531 0.07688 0.88231 0.0
N369 N 0.45971 1.0226 0.86508 0.0
N370 N 0.52058 0.12446 0.86589 0.0
C371 C 0.5376 0.09736 0.84531 0.0
C372 C 0.50371 0.04143 0.84432 0.0
C373 C 0.5739 0.58183 0.15014 0.0
C374 C 0.51954 0.55947 0.14673 0.0
C375 C 0.5981 0.55083 0.15137 0.0
C376 C 0.56924 0.49593 0.14844 0.0
H377 H 0.59795 0.62372 0.15264 0.0
H378 H 0.63986 0.5701 0.15442 0.0
S379 S 0.42575 0.41779 0.13979 0.0
N380 N 0.43777 0.47858 0.14142 0.0
N381 N 0.48271 0.42096 0.14244 0.0
C382 C 0.51492 0.47329 0.14472 0.0
C383 C 0.4903 0.50473 0.14424 0.0
C384 C 0.66237 0.28191 0.96989 0.0
C385 C 0.70798 0.27785 0.96986 0.0
C386 C 0.63611 0.27998 1.00334 0.0
C387 C 0.65284 0.27184 0.03829 0.0
H388 H 0.65026 0.29315 0.9446 0.0
H389 H 0.60607 0.29045 1.00212 0.0
S390 S 0.76243 0.24718 0.05348 0.0
N391 N 0.76424 0.25898 0.00797 0.0
N392 N 0.71174 0.24943 0.06984 0.0
C393 C 0.69326 0.25963 0.0379 0.0
C394 C 0.72165 0.2642 1.00408 0.0
C395 C 0.44427 0.64827 0.32101 0.0
C396 C 0.43762 0.68936 0.30744 0.0
C397 C 0.42311 0.62402 0.35583 0.0
C398 C 0.39216 0.63801 0.37719 0.0
H399 H 0.46518 0.63424 0.30433 0.0
H400 H 0.43189 0.59502 0.3665 0.0
S401 S 0.36058 0.74096 0.353 0.0
N402 N 0.39873 0.74319 0.31859 0.0
N403 N 0.35404 0.69372 0.38114 0.0
C404 C 0.38342 0.67735 0.36289 0.0
C405 C 0.40798 0.70445 0.3292 0.0
C406 C 0.74941 0.38526 0.69282 0.0
C407 C 0.79775 0.39598 0.70769 0.0
C408 C 0.74548 0.40554 0.65804 0.0
C409 C 0.78947 0.43582 0.63571 0.0
H410 H 0.71437 0.3624 0.70899 0.0
H411 H 0.7073 0.39533 0.64758 0.0
S412 S 0.92492 0.47405 0.66089 0.0
N413 N 0.89073 0.44005 0.69758 0.0
N414 N 0.88286 0.47439 0.63056 0.0
C415 C 0.83799 0.4463 0.64988 0.0
C416 C 0.84218 0.42695 0.68603 0.0
C417 C 0.44773 0.83912 0.98919 0.0
C418 C 0.42078 0.79321 0.96769 0.0
C419 C 0.46959 0.83888 0.02456 0.0
C420 C 0.46782 0.79345 0.03861 0.0
H421 H 0.45182 0.87529 0.97864 0.0
H422 H 0.48622 0.87381 0.04165 0.0
S423 S 0.40274 0.66355 0.99298 0.0
N424 N 0.39184 0.70074 0.96415 0.0
N425 N 0.43847 0.7021 0.0275 0.0
C426 C 0.44337 0.74824 0.01628 0.0
C427 C 0.4178 0.74746 0.98209 0.0
C428 C 0.70871 0.4654 0.33462 0.0
C429 C 0.69247 0.4385 0.369 0.0
C430 C 0.68271 0.44232 0.30052 0.0
C431 C 0.64111 0.39016 0.29885 0.0
H432 H 0.74469 0.50213 0.33322 0.0
H433 H 0.69967 0.46304 0.27461 0.0
S434 S 0.57757 0.30586 0.3812 0.0
N435 N 0.62475 0.36017 0.39943 0.0
N436 N 0.58103 0.31537 0.33535 0.0
C437 C 0.62122 0.36506 0.33321 0.0
C438 C 0.64573 0.38951 0.36812 0.0
C439 C 0.28367 0.6393 0.70886 0.0
C440 C 0.29074 0.69033 0.70744 0.0
C441 C 0.28558 0.61297 0.67625 0.0
C442 C 0.29422 0.63614 0.64055 0.0
H443 H 0.28222 0.62149 0.73563 0.0
H444 H 0.28549 0.57659 0.67961 0.0
S445 S 0.30679 0.76566 0.62069 0.0
N446 N 0.30021 0.75977 0.66676 0.0
N447 N 0.30304 0.71119 0.60572 0.0
C448 C 0.29535 0.68467 0.63844 0.0
C449 C 0.29364 0.71135 0.67169 0.0
loop_
_geom_bond_atom_site_label_1
_geom_bond_atom_site_label_2
_geom_bond_distance
_geom_bond_site_symmetry_2
_ccdc_geom_bond_type
C0 C1 1.443 . S
C0 N4 1.376 . S
C0 C38 1.389 . S
C1 C0 1.443 . S
C1 C2 1.340 . S
C1 H41 0.951 . S
C2 C1 1.340 . S
C2 C3 1.439 . S
C2 H42 0.950 . S
C3 C2 1.439 . S
C3 N4 1.374 . S
C3 C37 1.395 . S
N4 C0 1.376 . S
N4 C3 1.374 . S
N4 Co5 2.008 . S
Co5 N4 2.008 . S
Co5 N6 1.995 . S
Co5 N11 2.008 . S
Co5 N16 1.995 . S
Co5 N21 2.282 . S
Co5 N27 2.282 . S
N6 Co5 1.995 . S
N6 C7 1.376 . S
N6 C10 1.383 . S
C7 N6 1.376 . S
C7 C8 1.446 . S
C7 C37 1.391 . S
C8 C7 1.446 . S
C8 C9 1.339 . S
C8 H43 0.949 . S
C9 C8 1.339 . S
C9 C10 1.439 . S
C9 H44 0.950 . S
C10 N6 1.383 . S
C10 C9 1.439 . S
C10 C39 1.392 . S
N11 Co5 2.008 . S
N11 C12 1.376 . S
N11 C15 1.374 . S
C12 N11 1.376 . S
C12 C13 1.443 . S
C12 C39 1.389 . S
C13 C12 1.443 . S
C13 C14 1.340 . S
C13 H45 0.951 . S
C14 C13 1.340 . S
C14 C15 1.439 . S
C14 H46 0.950 . S
C15 N11 1.374 . S
C15 C14 1.439 . S
C15 C40 1.395 . S
N16 Co5 1.995 . S
N16 C17 1.376 . S
N16 C20 1.383 . S
C17 N16 1.376 . S
C17 C18 1.446 . S
C17 C40 1.391 . S
C18 C17 1.446 . S
C18 C19 1.339 . S
C18 H47 0.949 . S
C19 C18 1.339 . S
C19 C20 1.439 . S
C19 H48 0.950 . S
C20 N16 1.383 . S
C20 C19 1.439 . S
C20 C38 1.392 . S
N21 Co5 2.282 . S
N21 C24 1.332 . S
N21 C26 1.332 . S
C22 C23 1.386 . S
C22 C25 1.388 . S
C23 C22 1.386 . S
C23 C24 1.382 . S
C23 H49 0.950 . S
C24 N21 1.332 . S
C24 C23 1.382 . S
C24 H35 0.952 . S
C25 C22 1.388 . S
C25 C26 1.382 . S
C25 H50 0.950 . S
C26 N21 1.332 . S
C26 C25 1.382 . S
C26 H36 0.948 . S
N27 Co5 2.282 . S
N27 C31 1.332 . S
N27 C32 1.332 . S
C28 C29 1.388 . S
C28 C32 1.382 . S
C28 H51 0.950 . S
C29 C28 1.388 . S
C29 C30 1.386 . S
C30 C29 1.386 . S
C30 C31 1.382 . S
C30 H52 0.950 . S
C31 N27 1.332 . S
C31 C30 1.382 . S
C31 H33 0.952 . S
C32 N27 1.332 . S
C32 C28 1.382 . S
C32 H34 0.948 . S
H33 C31 0.952 . S
H34 C32 0.948 . S
H35 C24 0.952 . S
H36 C26 0.948 . S
C37 C3 1.395 . S
C37 C7 1.391 . S
C38 C0 1.389 . S
C38 C20 1.392 . S
C39 C10 1.392 . S
C39 C12 1.389 . S
C40 C15 1.395 . S
C40 C17 1.391 . S
H41 C1 0.951 . S
H42 C2 0.950 . S
H43 C8 0.949 . S
H44 C9 0.950 . S
H45 C13 0.951 . S
H46 C14 0.950 . S
H47 C18 0.949 . S
H48 C19 0.950 . S
H49 C23 0.950 . S
H50 C25 0.950 . S
H51 C28 0.950 . S
H52 C30 0.950 . S
C53 C54 1.443 . S
C53 N57 1.376 . S
C53 C91 1.389 . S
C54 C53 1.443 . S
C54 C55 1.340 . S
C54 H94 0.951 . S
C55 C54 1.340 . S
C55 C56 1.439 . S
C55 H95 0.950 . S
C56 C55 1.439 . S
C56 N57 1.374 . S
C56 C90 1.395 . S
N57 C53 1.376 . S
N57 C56 1.374 . S
N57 Co58 2.008 . S
Co58 N57 2.008 . S
Co58 N59 1.995 . S
Co58 N64 2.008 . S
Co58 N69 1.995 . S
Co58 N74 2.282 . S
Co58 N80 2.282 . S
N59 Co58 1.995 . S
N59 C60 1.376 . S
N59 C63 1.383 . S
C60 N59 1.376 . S
C60 C61 1.446 . S
C60 C90 1.391 . S
C61 C60 1.446 . S
C61 C62 1.339 . S
C61 H96 0.949 . S
C62 C61 1.339 . S
C62 C63 1.439 . S
C62 H97 0.950 . S
C63 N59 1.383 . S
C63 C62 1.439 . S
C63 C92 1.392 . S
N64 Co58 2.008 . S
N64 C65 1.376 . S
N64 C68 1.374 . S
C65 N64 1.376 . S
C65 C66 1.443 . S
C65 C92 1.389 . S
C66 C65 1.443 . S
C66 C67 1.340 . S
C66 H98 0.951 . S
C67 C66 1.340 . S
C67 C68 1.439 . S
C67 H99 0.950 . S
C68 N64 1.374 . S
C68 C67 1.439 . S
C68 C93 1.395 . S
N69 Co58 1.995 . S
N69 C70 1.376 . S
N69 C73 1.383 . S
C70 N69 1.376 . S
C70 C71 1.446 . S
C70 C93 1.391 . S
C71 C70 1.446 . S
C71 C72 1.339 . S
C71 H100 0.949 . S
C72 C71 1.339 . S
C72 C73 1.439 . S
C72 H101 0.950 . S
C73 N69 1.383 . S
C73 C72 1.439 . S
C73 C91 1.392 . S
N74 Co58 2.282 . S
N74 C77 1.332 . S
N74 C79 1.332 . S
C75 C76 1.386 . S
C75 C78 1.388 . S
C76 C75 1.386 . S
C76 C77 1.382 . S
C76 H102 0.950 . S
C77 N74 1.332 . S
C77 C76 1.382 . S
C77 H88 0.952 . S
C78 C75 1.388 . S
C78 C79 1.382 . S
C78 H103 0.950 . S
C79 N74 1.332 . S
C79 C78 1.382 . S
C79 H89 0.948 . S
N80 Co58 2.282 . S
N80 C84 1.332 . S
N80 C85 1.332 . S
C81 C82 1.388 . S
C81 C85 1.382 . S
C81 H104 0.950 . S
C82 C81 1.388 . S
C82 C83 1.386 . S
C83 C82 1.386 . S
C83 C84 1.382 . S
C83 H105 0.950 . S
C84 N80 1.332 . S
C84 C83 1.382 . S
C84 H86 0.952 . S
C85 N80 1.332 . S
C85 C81 1.382 . S
C85 H87 0.948 . S
H86 C84 0.952 . S
H87 C85 0.948 . S
H88 C77 0.952 . S
H89 C79 0.948 . S
C90 C56 1.395 . S
C90 C60 1.391 . S
C91 C53 1.389 . S
C91 C73 1.392 . S
C92 C63 1.392 . S
C92 C65 1.389 . S
C93 C68 1.395 . S
C93 C70 1.391 . S
H94 C54 0.951 . S
H95 C55 0.950 . S
H96 C61 0.949 . S
H97 C62 0.950 . S
H98 C66 0.951 . S
H99 C67 0.950 . S
H100 C71 0.949 . S
H101 C72 0.950 . S
H102 C76 0.950 . S
H103 C78 0.950 . S
H104 C81 0.950 . S
H105 C83 0.950 . S
C106 C107 1.443 . S
C106 N110 1.376 . S
C106 C144 1.389 . S
C107 C106 1.443 . S
C107 C108 1.340 . S
C107 H147 0.951 . S
C108 C107 1.340 . S
C108 C109 1.439 . S
C108 H148 0.950 . S
C109 C108 1.439 . S
C109 N110 1.374 . S
C109 C143 1.395 . S
N110 C106 1.376 . S
N110 C109 1.374 . S
N110 Co111 2.008 . S
Co111 N110 2.008 . S
Co111 N112 1.995 . S
Co111 N117 2.008 . S
Co111 N122 1.995 . S
Co111 N127 2.282 . S
Co111 N133 2.282 . S
N112 Co111 1.995 . S
N112 C113 1.376 . S
N112 C116 1.383 . S
C113 N112 1.376 . S
C113 C114 1.446 . S
C113 C143 1.391 . S
C114 C113 1.446 . S
C114 C115 1.339 . S
C114 H149 0.949 . S
C115 C114 1.339 . S
C115 C116 1.439 . S
C115 H150 0.950 . S
C116 N112 1.383 . S
C116 C115 1.439 . S
C116 C145 1.392 . S
N117 Co111 2.008 . S
N117 C118 1.376 . S
N117 C121 1.374 . S
C118 N117 1.376 . S
C118 C119 1.443 . S
C118 C145 1.389 . S
C119 C118 1.443 . S
C119 C120 1.340 . S
C119 H151 0.951 . S
C120 C119 1.340 . S
C120 C121 1.439 . S
C120 H152 0.950 . S
C121 N117 1.374 . S
C121 C120 1.439 . S
C121 C146 1.395 . S
N122 Co111 1.995 . S
N122 C123 1.376 . S
N122 C126 1.383 . S
C123 N122 1.376 . S
C123 C124 1.446 . S
C123 C146 1.391 . S
C124 C123 1.446 . S
C124 C125 1.339 . S
C124 H153 0.949 . S
C125 C124 1.339 . S
C125 C126 1.439 . S
C125 H154 0.950 . S
C126 N122 1.383 . S
C126 C125 1.439 . S
C126 C144 1.392 . S
N127 Co111 2.282 . S
N127 C130 1.332 . S
N127 C132 1.332 . S
C128 C129 1.386 . S
C128 C131 1.388 . S
C129 C128 1.386 . S
C129 C130 1.382 . S
C129 H155 0.950 . S
C130 N127 1.332 . S
C130 C129 1.382 . S
C130 H141 0.952 . S
C131 C128 1.388 . S
C131 C132 1.382 . S
C131 H156 0.950 . S
C132 N127 1.332 . S
C132 C131 1.382 . S
C132 H142 0.948 . S
N133 Co111 2.282 . S
N133 C137 1.332 . S
N133 C138 1.332 . S
C134 C135 1.388 . S
C134 C138 1.382 . S
C134 H157 0.950 . S
C135 C134 1.388 . S
C135 C136 1.386 . S
C136 C135 1.386 . S
C136 C137 1.382 . S
C136 H158 0.950 . S
C137 N133 1.332 . S
C137 C136 1.382 . S
C137 H139 0.952 . S
C138 N133 1.332 . S
C138 C134 1.382 . S
C138 H140 0.948 . S
H139 C137 0.952 . S
H140 C138 0.948 . S
H141 C130 0.952 . S
H142 C132 0.948 . S
C143 C109 1.395 . S
C143 C113 1.391 . S
C144 C106 1.389 . S
C144 C126 1.392 . S
C145 C116 1.392 . S
C145 C118 1.389 . S
C146 C121 1.395 . S
C146 C123 1.391 . S
H147 C107 0.951 . S
H148 C108 0.950 . S
H149 C114 0.949 . S
H150 C115 0.950 . S
H151 C119 0.951 . S
H152 C120 0.950 . S
H153 C124 0.949 . S
H154 C125 0.950 . S
H155 C129 0.950 . S
H156 C131 0.950 . S
H157 C134 0.950 . S
H158 C136 0.950 . S
C159 C160 1.443 . S
C159 N163 1.376 . S
C159 C197 1.389 . S
C160 C159 1.443 . S
C160 C161 1.340 . S
C160 H200 0.951 . S
C161 C160 1.340 . S
C161 C162 1.439 . S
C161 H201 0.950 . S
C162 C161 1.439 . S
C162 N163 1.374 . S
C162 C196 1.395 . S
N163 C159 1.376 . S
N163 C162 1.374 . S
N163 Co164 2.008 . S
Co164 N163 2.008 . S
Co164 N165 1.995 . S
Co164 N170 2.008 . S
Co164 N175 1.995 . S
Co164 N180 2.282 . S
Co164 N186 2.282 . S
N165 Co164 1.995 . S
N165 C166 1.376 . S
N165 C169 1.383 . S
C166 N165 1.376 . S
C166 C167 1.446 . S
C166 C196 1.391 . S
C167 C166 1.446 . S
C167 C168 1.339 . S
C167 H202 0.949 . S
C168 C167 1.339 . S
C168 C169 1.439 . S
C168 H203 0.950 . S
C169 N165 1.383 . S
C169 C168 1.439 . S
C169 C198 1.392 . S
N170 Co164 2.008 . S
N170 C171 1.376 . S
N170 C174 1.374 . S
C171 N170 1.376 . S
C171 C172 1.443 . S
C171 C198 1.389 . S
C172 C171 1.443 . S
C172 C173 1.340 . S
C172 H204 0.951 . S
C173 C172 1.340 . S
C173 C174 1.439 . S
C173 H205 0.950 . S
C174 N170 1.374 . S
C174 C173 1.439 . S
C174 C199 1.395 . S
N175 Co164 1.995 . S
N175 C176 1.376 . S
N175 C179 1.383 . S
C176 N175 1.376 . S
C176 C177 1.446 . S
C176 C199 1.391 . S
C177 C176 1.446 . S
C177 C178 1.339 . S
C177 H206 0.949 . S
C178 C177 1.339 . S
C178 C179 1.439 . S
C178 H207 0.950 . S
C179 N175 1.383 . S
C179 C178 1.439 . S
C179 C197 1.392 . S
N180 Co164 2.282 . S
N180 C183 1.332 . S
N180 C185 1.332 . S
C181 C182 1.386 . S
C181 C184 1.388 . S
C182 C181 1.386 . S
C182 C183 1.382 . S
C182 H208 0.950 . S
C183 N180 1.332 . S
C183 C182 1.382 . S
C183 H194 0.952 . S
C184 C181 1.388 . S
C184 C185 1.382 . S
C184 H209 0.950 . S
C185 N180 1.332 . S
C185 C184 1.382 . S
C185 H195 0.948 . S
N186 Co164 2.282 . S
N186 C190 1.332 . S
N186 C191 1.332 . S
C187 C188 1.388 . S
C187 C191 1.382 . S
C187 H210 0.950 . S
C188 C187 1.388 . S
C188 C189 1.386 . S
C189 C188 1.386 . S
C189 C190 1.382 . S
C189 H211 0.950 . S
C190 N186 1.332 . S
C190 C189 1.382 . S
C190 H192 0.952 . S
C191 N186 1.332 . S
C191 C187 1.382 . S
C191 H193 0.948 . S
H192 C190 0.952 . S
H193 C191 0.948 . S
H194 C183 0.952 . S
H195 C185 0.948 . S
C196 C162 1.395 . S
C196 C166 1.391 . S
C197 C159 1.389 . S
C197 C179 1.392 . S
C198 C169 1.392 . S
C198 C171 1.389 . S
C199 C174 1.395 . S
C199 C176 1.391 . S
H200 C160 0.951 . S
H201 C161 0.950 . S
H202 C167 0.949 . S
H203 C168 0.950 . S
H204 C172 0.951 . S
H205 C173 0.950 . S
H206 C177 0.949 . S
H207 C178 0.950 . S
H208 C182 0.950 . S
H209 C184 0.950 . S
H210 C187 0.950 . S
H211 C189 0.950 . S
C212 C213 1.443 . S
C212 N216 1.376 . S
C212 C250 1.389 . S
C213 C212 1.443 . S
C213 C214 1.340 . S
C213 H253 0.951 . S
C214 C213 1.340 . S
C214 C215 1.439 . S
C214 H254 0.950 . S
C215 C214 1.439 . S
C215 N216 1.374 . S
C215 C249 1.395 . S
N216 C212 1.376 . S
N216 C215 1.374 . S
N216 Co217 2.008 . S
Co217 N216 2.008 . S
Co217 N218 1.995 . S
Co217 N223 2.008 . S
Co217 N228 1.995 . S
Co217 N233 2.282 . S
Co217 N239 2.282 . S
N218 Co217 1.995 . S
N218 C219 1.376 . S
N218 C222 1.383 . S
C219 N218 1.376 . S
C219 C220 1.446 . S
C219 C249 1.391 . S
C220 C219 1.446 . S
C220 C221 1.339 . S
C220 H255 0.949 . S
C221 C220 1.339 . S
C221 C222 1.439 . S
C221 H256 0.950 . S
C222 N218 1.383 . S
C222 C221 1.439 . S
C222 C251 1.392 . S
N223 Co217 2.008 . S
N223 C224 1.376 . S
N223 C227 1.374 . S
C224 N223 1.376 . S
C224 C225 1.443 . S
C224 C251 1.389 . S
C225 C224 1.443 . S
C225 C226 1.340 . S
C225 H257 0.951 . S
C226 C225 1.340 . S
C226 C227 1.439 . S
C226 H258 0.950 . S
C227 N223 1.374 . S
C227 C226 1.439 . S
C227 C252 1.395 . S
N228 Co217 1.995 . S
N228 C229 1.376 . S
N228 C232 1.383 . S
C229 N228 1.376 . S
C229 C230 1.446 . S
C229 C252 1.391 . S
C230 C229 1.446 . S
C230 C231 1.339 . S
C230 H259 0.949 . S
C231 C230 1.339 . S
C231 C232 1.439 . S
C231 H260 0.950 . S
C232 N228 1.383 . S
C232 C231 1.439 . S
C232 C250 1.392 . S
N233 Co217 2.282 . S
N233 C236 1.332 . S
N233 C238 1.332 . S
C234 C235 1.386 . S
C234 C237 1.388 . S
C235 C234 1.386 . S
C235 C236 1.382 . S
C235 H261 0.950 . S
C236 N233 1.332 . S
C236 C235 1.382 . S
C236 H247 0.952 . S
C237 C234 1.388 . S
C237 C238 1.382 . S
C237 H262 0.950 . S
C238 N233 1.332 . S
C238 C237 1.382 . S
C238 H248 0.948 . S
N239 Co217 2.282 . S
N239 C243 1.332 . S
N239 C244 1.332 . S
C240 C241 1.388 . S
C240 C244 1.382 . S
C240 H263 0.950 . S
C241 C240 1.388 . S
C241 C242 1.386 . S
C242 C241 1.386 . S
C242 C243 1.382 . S
C242 H264 0.950 . S
C243 N239 1.332 . S
C243 C242 1.382 . S
C243 H245 0.952 . S
C244 N239 1.332 . S
C244 C240 1.382 . S
C244 H246 0.948 . S
H245 C243 0.952 . S
H246 C244 0.948 . S
H247 C236 0.952 . S
H248 C238 0.948 . S
C249 C215 1.395 . S
C249 C219 1.391 . S
C250 C212 1.389 . S
C250 C232 1.392 . S
C251 C222 1.392 . S
C251 C224 1.389 . S
C252 C227 1.395 . S
C252 C229 1.391 . S
H253 C213 0.951 . S
H254 C214 0.950 . S
H255 C220 0.949 . S
H256 C221 0.950 . S
H257 C225 0.951 . S
H258 C226 0.950 . S
H259 C230 0.949 . S
H260 C231 0.950 . S
H261 C235 0.950 . S
H262 C237 0.950 . S
H263 C240 0.950 . S
H264 C242 0.950 . S
C265 C266 1.443 . S
C265 N269 1.376 . S
C265 C303 1.389 . S
C266 C265 1.443 . S
C266 C267 1.340 . S
C266 H306 0.951 . S
C267 C266 1.340 . S
C267 C268 1.439 . S
C267 H307 0.950 . S
C268 C267 1.439 . S
C268 N269 1.374 . S
C268 C302 1.395 . S
N269 C265 1.376 . S
N269 C268 1.374 . S
N269 Co270 2.008 . S
Co270 N269 2.008 . S
Co270 N271 1.995 . S
Co270 N276 2.008 . S
Co270 N281 1.995 . S
Co270 N286 2.282 . S
Co270 N292 2.282 . S
N271 Co270 1.995 . S
N271 C272 1.376 . S
N271 C275 1.383 . S
C272 N271 1.376 . S
C272 C273 1.446 . S
C272 C302 1.391 . S
C273 C272 1.446 . S
C273 C274 1.339 . S
C273 H308 0.949 . S
C274 C273 1.339 . S
C274 C275 1.439 . S
C274 H309 0.950 . S
C275 N271 1.383 . S
C275 C274 1.439 . S
C275 C304 1.392 . S
N276 Co270 2.008 . S
N276 C277 1.376 . S
N276 C280 1.374 . S
C277 N276 1.376 . S
C277 C278 1.443 . S
C277 C304 1.389 . S
C278 C277 1.443 . S
C278 C279 1.340 . S
C278 H310 0.951 . S
C279 C278 1.340 . S
C279 C280 1.439 . S
C279 H311 0.950 . S
C280 N276 1.374 . S
C280 C279 1.439 . S
C280 C305 1.395 . S
N281 Co270 1.995 . S
N281 C282 1.376 . S
N281 C285 1.383 . S
C282 N281 1.376 . S
C282 C283 1.446 . S
C282 C305 1.391 . S
C283 C282 1.446 . S
C283 C284 1.339 . S
C283 H312 0.949 . S
C284 C283 1.339 . S
C284 C285 1.439 . S
C284 H313 0.950 . S
C285 N281 1.383 . S
C285 C284 1.439 . S
C285 C303 1.392 . S
N286 Co270 2.282 . S
N286 C289 1.332 . S
N286 C291 1.332 . S
C287 C288 1.386 . S
C287 C290 1.388 . S
C288 C287 1.386 . S
C288 C289 1.382 . S
C288 H314 0.950 . S
C289 N286 1.332 . S
C289 C288 1.382 . S
C289 H300 0.952 . S
C290 C287 1.388 . S
C290 C291 1.382 . S
C290 H315 0.950 . S
C291 N286 1.332 . S
C291 C290 1.382 . S
C291 H301 0.948 . S
N292 Co270 2.282 . S
N292 C296 1.332 . S
N292 C297 1.332 . S
C293 C294 1.388 . S
C293 C297 1.382 . S
C293 H316 0.950 . S
C294 C293 1.388 . S
C294 C295 1.386 . S
C295 C294 1.386 . S
C295 C296 1.382 . S
C295 H317 0.950 . S
C296 N292 1.332 . S
C296 C295 1.382 . S
C296 H298 0.952 . S
C297 N292 1.332 . S
C297 C293 1.382 . S
C297 H299 0.948 . S
H298 C296 0.952 . S
H299 C297 0.948 . S
H300 C289 0.952 . S
H301 C291 0.948 . S
C302 C268 1.395 . S
C302 C272 1.391 . S
C303 C265 1.389 . S
C303 C285 1.392 . S
C304 C275 1.392 . S
C304 C277 1.389 . S
C305 C280 1.395 . S
C305 C282 1.391 . S
H306 C266 0.951 . S
H307 C267 0.950 . S
H308 C273 0.949 . S
H309 C274 0.950 . S
H310 C278 0.951 . S
H311 C279 0.950 . S
H312 C283 0.949 . S
H313 C284 0.950 . S
H314 C288 0.950 . S
H315 C290 0.950 . S
H316 C293 0.950 . S
H317 C295 0.950 . S
C318 C319 1.369 . S
C318 C320 1.419 1_545 S
C318 H322 0.930 . S
C319 C318 1.369 . S
C319 C328 1.429 . S
C320 C318 1.419 1_565 S
C320 C321 1.363 . S
C320 H323 0.929 . S
C321 C320 1.363 . S
C321 C327 1.428 . S
H322 C318 0.930 . S
H323 C320 0.929 . S
S324 N325 1.613 1_565 S
S324 N326 1.610 . S
N325 S324 1.613 1_545 S
N325 C328 1.350 . S
N326 S324 1.610 . S
N326 C327 1.351 . S
C327 C321 1.428 . S
C327 N326 1.351 . S
C327 C328 1.434 1_565 S
C328 C319 1.429 . S
C328 N325 1.350 . S
C328 C327 1.434 1_545 S
C329 C330 1.369 . S
C329 C331 1.419 . S
C329 H333 0.930 . S
C330 C329 1.369 . S
C330 C339 1.429 . S
C331 C329 1.419 . S
C331 C332 1.363 . S
C331 H334 0.929 . S
C332 C331 1.363 . S
C332 C338 1.428 . S
H333 C329 0.930 . S
H334 C331 0.929 . S
S335 N336 1.613 . S
S335 N337 1.610 . S
N336 S335 1.613 . S
N336 C339 1.350 . S
N337 S335 1.610 . S
N337 C338 1.351 . S
C338 C332 1.428 . S
C338 N337 1.351 . S
C338 C339 1.434 . S
C339 C330 1.429 . S
C339 N336 1.350 . S
C339 C338 1.434 . S
C340 C341 1.369 . S
C340 C342 1.419 1_655 S
C340 H344 0.930 . S
C341 C340 1.369 . S
C341 C350 1.429 . S
C342 C340 1.419 1_455 S
C342 C343 1.363 . S
C342 H345 0.929 . S
C343 C342 1.363 . S
C343 C349 1.428 . S
H344 C340 0.930 . S
H345 C342 0.929 . S
S346 N347 1.613 . S
S346 N348 1.610 1_655 S
N347 S346 1.613 . S
N347 C350 1.350 . S
N348 S346 1.610 1_455 S
N348 C349 1.351 . S
C349 C343 1.428 . S
C349 N348 1.351 . S
C349 C350 1.434 1_455 S
C350 C341 1.429 . S
C350 N347 1.350 . S
C350 C349 1.434 1_655 S
C351 C352 1.369 . S
C351 C353 1.419 1_455 S
C351 H355 0.930 . S
C352 C351 1.369 . S
C352 C361 1.429 . S
C353 C351 1.419 1_655 S
C353 C354 1.363 . S
C353 H356 0.929 . S
C354 C353 1.363 . S
C354 C360 1.428 . S
H355 C351 0.930 . S
H356 C353 0.929 . S
S357 N358 1.613 . S
S357 N359 1.610 1_455 S
N358 S357 1.613 . S
N358 C361 1.350 . S
N359 S357 1.610 1_655 S
N359 C360 1.351 . S
C360 C354 1.428 . S
C360 N359 1.351 . S
C360 C361 1.434 1_655 S
C361 C352 1.429 . S
C361 N358 1.350 . S
C361 C360 1.434 1_455 S
C362 C363 1.369 . S
C362 C364 1.419 1_565 S
C362 H366 0.930 . S
C363 C362 1.369 . S
C363 C372 1.429 . S
C364 C362 1.419 1_545 S
C364 C365 1.363 . S
C364 H367 0.929 . S
C365 C364 1.363 . S
C365 C371 1.428 . S
H366 C362 0.930 . S
H367 C364 0.929 . S
S368 N369 1.613 1_545 S
S368 N370 1.610 . S
N369 S368 1.613 1_565 S
N369 C372 1.350 . S
N370 S368 1.610 . S
N370 C371 1.351 . S
C371 C365 1.428 . S
C371 N370 1.351 . S
C371 C372 1.434 1_545 S
C372 C363 1.429 . S
C372 N369 1.350 . S
C372 C371 1.434 1_565 S
C373 C374 1.369 . S
C373 C375 1.419 . S
C373 H377 0.930 . S
C374 C373 1.369 . S
C374 C383 1.429 . S
C375 C373 1.419 . S
C375 C376 1.363 . S
C375 H378 0.929 . S
C376 C375 1.363 . S
C376 C382 1.428 . S
H377 C373 0.930 . S
H378 C375 0.929 . S
S379 N380 1.613 . S
S379 N381 1.610 . S
N380 S379 1.613 . S
N380 C383 1.350 . S
N381 S379 1.610 . S
N381 C382 1.351 . S
C382 C376 1.428 . S
C382 N381 1.351 . S
C382 C383 1.434 . S
C383 C374 1.429 . S
C383 N380 1.350 . S
C383 C382 1.434 . S
C384 C385 1.369 . S
C384 C386 1.419 . S
C384 H388 0.930 . S
C385 C384 1.369 . S
C385 C394 1.429 1_556 S
C386 C384 1.419 . S
C386 C387 1.363 1_556 S
C386 H389 0.929 . S
C387 C386 1.363 1_554 S
C387 C393 1.428 . S
H388 C384 0.930 . S
H389 C386 0.929 . S
S390 N391 1.613 . S
S390 N392 1.610 . S
N391 S390 1.613 . S
N391 C394 1.350 . S
N392 S390 1.610 . S
N392 C393 1.351 . S
C393 C387 1.428 . S
C393 N392 1.351 . S
C393 C394 1.434 . S
C394 C385 1.429 1_554 S
C394 N391 1.350 . S
C394 C393 1.434 . S
C395 C396 1.369 . S
C395 C397 1.419 . S
C395 H399 0.930 . S
C396 C395 1.369 . S
C396 C405 1.429 . S
C397 C395 1.419 . S
C397 C398 1.363 . S
C397 H400 0.929 . S
C398 C397 1.363 . S
C398 C404 1.428 . S
H399 C395 0.930 . S
H400 C397 0.929 . S
S401 N402 1.613 . S
S401 N403 1.610 . S
N402 S401 1.613 . S
N402 C405 1.350 . S
N403 S401 1.610 . S
N403 C404 1.351 . S
C404 C398 1.428 . S
C404 N403 1.351 . S
C404 C405 1.434 . S
C405 C396 1.429 . S
C405 N402 1.350 . S
C405 C404 1.434 . S
C406 C407 1.369 . S
C406 C408 1.419 . S
C406 H410 0.930 . S
C407 C406 1.369 . S
C407 C416 1.429 . S
C408 C406 1.419 . S
C408 C409 1.363 . S
C408 H411 0.929 . S
C409 C408 1.363 . S
C409 C415 1.428 . S
H410 C406 0.930 . S
H411 C408 0.929 . S
S412 N413 1.613 . S
S412 N414 1.610 . S
N413 S412 1.613 . S
N413 C416 1.350 . S
N414 S412 1.610 . S
N414 C415 1.351 . S
C415 C409 1.428 . S
C415 N414 1.351 . S
C415 C416 1.434 . S
C416 C407 1.429 . S
C416 N413 1.350 . S
C416 C415 1.434 . S
C417 C418 1.369 . S
C417 C419 1.419 1_556 S
C417 H421 0.930 . S
C418 C417 1.369 . S
C418 C427 1.429 . S
C419 C417 1.419 1_554 S
C419 C420 1.363 . S
C419 H422 0.929 . S
C420 C419 1.363 . S
C420 C426 1.428 . S
H421 C417 0.930 . S
H422 C419 0.929 . S
S423 N424 1.613 . S
S423 N425 1.610 1_556 S
N424 S423 1.613 . S
N424 C427 1.350 . S
N425 S423 1.610 1_554 S
N425 C426 1.351 . S
C426 C420 1.428 . S
C426 N425 1.351 . S
C426 C427 1.434 1_554 S
C427 C418 1.429 . S
C427 N424 1.350 . S
C427 C426 1.434 1_556 S
C428 C429 1.369 . S
C428 C430 1.419 . S
C428 H432 0.930 . S
C429 C428 1.369 . S
C429 C438 1.429 . S
C430 C428 1.419 . S
C430 C431 1.363 . S
C430 H433 0.929 . S
C431 C430 1.363 . S
C431 C437 1.428 . S
H432 C428 0.930 . S
H433 C430 0.929 . S
S434 N435 1.613 . S
S434 N436 1.610 . S
N435 S434 1.613 . S
N435 C438 1.350 . S
N436 S434 1.610 . S
N436 C437 1.351 . S
C437 C431 1.428 . S
C437 N436 1.351 . S
C437 C438 1.434 . S
C438 C429 1.429 . S
C438 N435 1.350 . S
C438 C437 1.434 . S
C439 C440 1.369 . S
C439 C441 1.419 . S
C439 H443 0.930 . S
C440 C439 1.369 . S
C440 C449 1.429 . S
C441 C439 1.419 . S
C441 C442 1.363 . S
C441 H444 0.929 . S
C442 C441 1.363 . S
C442 C448 1.428 . S
H443 C439 0.930 . S
H444 C441 0.929 . S
S445 N446 1.613 . S
S445 N447 1.610 . S
N446 S445 1.613 . S
N446 C449 1.350 . S
N447 S445 1.610 . S
N447 C448 1.351 . S
C448 C442 1.428 . S
C448 N447 1.351 . S
C448 C449 1.434 . S
C449 C440 1.429 . S
C449 N446 1.350 . S
C449 C448 1.434 . S
C319 C22 1.692 . S
C321 C181 1.698 . S
C330 C75 1.696 . S
C332 C234 1.695 . S
C341 C128 1.699 . S
C343 C287 1.692 . S
C352 C82 1.706 . S
C354 C241 1.700 . S
C363 C294 1.699 . S
C365 C135 1.705 . S
C374 C188 1.706 . S
C376 C29 1.700 . S
C385 C144 2.313 . S
C387 C39 2.290 . S
C396 C197 2.312 . S
C398 C92 2.290 . S
C407 C145 2.296 . S
C409 C250 2.310 . S
C418 C303 2.309 . S
C420 C198 2.292 . S
C429 C251 2.289 . S
C431 C38 2.312 . S
C440 C304 2.297 . S
C442 C91 2.307 . S
