# Generated by pormake.
# Topology wiu, (6)-cn, num edge types: 1
# Building blocks:
#     Node 0, Type 0, BuildingBlock: GEDQOX_clean_sbu_0, # of connection points: 6
#     Node 1, Type 0, BuildingBlock: GEDQOX_clean_sbu_0, # of connection points: 6
#     Node 2, Type 0, BuildingBlock: GEDQOX_clean_sbu_0, # of connection points: 6
#     Node 3, Type 0, BuildingBlock: GEDQOX_clean_sbu_0, # of connection points: 6
#     Node 4, Type 0, BuildingBlock: GEDQOX_clean_sbu_0, # of connection points: 6
#     Node 5, Type 0, BuildingBlock: GEDQOX_clean_sbu_0, # of connection points: 6
#     Node 6, Type 0, BuildingBlock: GEDQOX_clean_sbu_0, # of connection points: 6
#     Node 7, Type 0, BuildingBlock: GEDQOX_clean_sbu_0, # of connection points: 6
#     Node 8, Type 0, BuildingBlock: GEDQOX_clean_sbu_0, # of connection points: 6
#     Node 9, Type 0, BuildingBlock: GEDQOX_clean_sbu_0, # of connection points: 6
#     Node 10, Type 0, BuildingBlock: GEDQOX_clean_sbu_0, # of connection points: 6
#     Node 11, Type 0, BuildingBlock: GEDQOX_clean_sbu_0, # of connection points: 6
#     Node 12, Type 0, BuildingBlock: GEDQOX_clean_sbu_0, # of connection points: 6
#     Node 13, Type 0, BuildingBlock: GEDQOX_clean_sbu_0, # of connection points: 6
#     Node 14, Type 0, BuildingBlock: GEDQOX_clean_sbu_0, # of connection points: 6
#     Node 15, Type 0, BuildingBlock: GEDQOX_clean_sbu_0, # of connection points: 6
#     Edge 16, Type (0, 0), BuildingBlock: XIVTED_clean_linker_0, # of connection points: 2
#     Edge 17, Type (0, 0), BuildingBlock: XIVTED_clean_linker_0, # of connection points: 2
#     Edge 18, Type (0, 0), BuildingBlock: XIVTED_clean_linker_0, # of connection points: 2
#     Edge 19, Type (0, 0), BuildingBlock: XIVTED_clean_linker_0, # of connection points: 2
#     Edge 20, Type (0, 0), BuildingBlock: XIVTED_clean_linker_0, # of connection points: 2
#     Edge 21, Type (0, 0), BuildingBlock: XIVTED_clean_linker_0, # of connection points: 2
#     Edge 22, Type (0, 0), BuildingBlock: XIVTED_clean_linker_0, # of connection points: 2
#     Edge 23, Type (0, 0), BuildingBlock: XIVTED_clean_linker_0, # of connection points: 2
#     Edge 24, Type (0, 0), BuildingBlock: XIVTED_clean_linker_0, # of connection points: 2
#     Edge 25, Type (0, 0), BuildingBlock: XIVTED_clean_linker_0, # of connection points: 2
#     Edge 26, Type (0, 0), BuildingBlock: XIVTED_clean_linker_0, # of connection points: 2
#     Edge 27, Type (0, 0), BuildingBlock: XIVTED_clean_linker_0, # of connection points: 2
#     Edge 28, Type (0, 0), BuildingBlock: XIVTED_clean_linker_0, # of connection points: 2
#     Edge 29, Type (0, 0), BuildingBlock: XIVTED_clean_linker_0, # of connection points: 2
#     Edge 30, Type (0, 0), BuildingBlock: XIVTED_clean_linker_0, # of connection points: 2
#     Edge 31, Type (0, 0), BuildingBlock: XIVTED_clean_linker_0, # of connection points: 2
#     Edge 32, Type (0, 0), BuildingBlock: XIVTED_clean_linker_0, # of connection points: 2
#     Edge 33, Type (0, 0), BuildingBlock: XIVTED_clean_linker_0, # of connection points: 2
#     Edge 34, Type (0, 0), BuildingBlock: XIVTED_clean_linker_0, # of connection points: 2
#     Edge 35, Type (0, 0), BuildingBlock: XIVTED_clean_linker_0, # of connection points: 2
#     Edge 36, Type (0, 0), BuildingBlock: XIVTED_clean_linker_0, # of connection points: 2
#     Edge 37, Type (0, 0), BuildingBlock: XIVTED_clean_linker_0, # of connection points: 2
#     Edge 38, Type (0, 0), BuildingBlock: XIVTED_clean_linker_0, # of connection points: 2
#     Edge 39, Type (0, 0), BuildingBlock: XIVTED_clean_linker_0, # of connection points: 2
#     Edge 40, Type (0, 0), BuildingBlock: XIVTED_clean_linker_0, # of connection points: 2
#     Edge 41, Type (0, 0), BuildingBlock: XIVTED_clean_linker_0, # of connection points: 2
#     Edge 42, Type (0, 0), BuildingBlock: XIVTED_clean_linker_0, # of connection points: 2
#     Edge 43, Type (0, 0), BuildingBlock: XIVTED_clean_linker_0, # of connection points: 2
#     Edge 44, Type (0, 0), BuildingBlock: XIVTED_clean_linker_0, # of connection points: 2
#     Edge 45, Type (0, 0), BuildingBlock: XIVTED_clean_linker_0, # of connection points: 2
#     Edge 46, Type (0, 0), BuildingBlock: XIVTED_clean_linker_0, # of connection points: 2
#     Edge 47, Type (0, 0), BuildingBlock: XIVTED_clean_linker_0, # of connection points: 2
#     Edge 48, Type (0, 0), BuildingBlock: XIVTED_clean_linker_0, # of connection points: 2
#     Edge 49, Type (0, 0), BuildingBlock: XIVTED_clean_linker_0, # of connection points: 2
#     Edge 50, Type (0, 0), BuildingBlock: XIVTED_clean_linker_0, # of connection points: 2
#     Edge 51, Type (0, 0), BuildingBlock: XIVTED_clean_linker_0, # of connection points: 2
#     Edge 52, Type (0, 0), BuildingBlock: XIVTED_clean_linker_0, # of connection points: 2
#     Edge 53, Type (0, 0), BuildingBlock: XIVTED_clean_linker_0, # of connection points: 2
#     Edge 54, Type (0, 0), BuildingBlock: XIVTED_clean_linker_0, # of connection points: 2
#     Edge 55, Type (0, 0), BuildingBlock: XIVTED_clean_linker_0, # of connection points: 2
#     Edge 56, Type (0, 0), BuildingBlock: XIVTED_clean_linker_0, # of connection points: 2
#     Edge 57, Type (0, 0), BuildingBlock: XIVTED_clean_linker_0, # of connection points: 2
#     Edge 58, Type (0, 0), BuildingBlock: XIVTED_clean_linker_0, # of connection points: 2
#     Edge 59, Type (0, 0), BuildingBlock: XIVTED_clean_linker_0, # of connection points: 2
#     Edge 60, Type (0, 0), BuildingBlock: XIVTED_clean_linker_0, # of connection points: 2
#     Edge 61, Type (0, 0), BuildingBlock: XIVTED_clean_linker_0, # of connection points: 2
#     Edge 62, Type (0, 0), BuildingBlock: XIVTED_clean_linker_0, # of connection points: 2
#     Edge 63, Type (0, 0), BuildingBlock: XIVTED_clean_linker_0, # of connection points: 2
# Relax obj value: 0.232
# Max RMSD: 0.312
# Mean RMSD: 0.267
data_MOF--net-wiu--node1-GEDQOX_clean_sbu_0--edge1-XIVTED_clean_linker_0
_symmetry_space_group_name_H-M    P1
_symmetry_Int_Tables_number       1
_symmetry_cell_setting            triclinic
loop_
_symmetry_equiv_pos_as_xyz
'x, y, z'
_cell_length_a     29.28723
_cell_length_b     28.368895
_cell_length_c     87.940402
_cell_angle_alpha  77.527283
_cell_angle_beta   78.540383
_cell_angle_gamma 77.122616
loop_
_atom_site_label
_atom_site_type_symbol
_atom_site_fract_x
_atom_site_fract_y
_atom_site_fract_z
_atom_type_partial_charge
Nd0 Nd 0.37344 0.02916 0.12267 0.0
Nd1 Nd 0.30224 0.07122 0.10148 0.0
C2 C 0.42344 -0.01492 0.14584 0.0
C3 C 0.4186 -0.00909 0.16278 0.0
C4 C 0.37452 0.00898 0.17133 0.0
C5 C 0.37078 0.01731 0.18684 0.0
C6 C 0.41099 0.00764 0.1945 0.0
C7 C 0.45513 -0.01066 0.18583 0.0
C8 C 0.45882 -0.01871 0.17027 0.0
C9 C 0.38615 0.11795 0.1044 0.0
C10 C 0.28827 0.11465 0.13394 0.0
C11 C 0.23768 0.12307 0.08413 0.0
C12 C 0.22821 0.12822 0.06808 0.0
C13 C 0.26521 0.11837 0.05569 0.0
C14 C 0.25506 0.12002 0.04071 0.0
C15 C 0.2078 0.13095 0.03801 0.0
C16 C 0.17095 0.14114 0.05045 0.0
C17 C 0.18114 0.13985 0.06538 0.0
C18 C 0.27961 -0.01107 0.1226 0.0
C19 C 0.39892 0.00816 0.08448 0.0
O20 O 0.39155 0.96572 0.14195 0.0
O21 O 0.43445 0.02235 0.13516 0.0
O22 O 0.38978 0.10638 0.11926 0.0
O23 O 0.37629 0.08307 0.09978 0.0
O24 O 0.31774 0.07452 0.13891 0.0
O25 O 0.28089 0.1249 0.11919 0.0
O26 O 0.27444 0.13949 0.08574 0.0
O27 O 0.23381 0.08069 0.09312 0.0
O28 O 0.2816 -0.00508 0.10744 0.0
O29 O 0.29584 0.02289 0.12574 0.0
O30 O 0.35838 0.03852 0.08245 0.0
O31 O 0.41098 -0.00528 0.09912 0.0
H32 H 0.34278 0.01724 0.16597 0.0
H33 H 0.33612 0.03227 0.1927 0.0
H34 H 0.48707 -0.01939 0.1911 0.0
H35 H 0.49343 0.96767 0.16404 0.0
H36 H 0.30177 0.1086 0.05766 0.0
H37 H 0.28407 0.11155 0.03135 0.0
H38 H 0.13427 0.15015 0.04862 0.0
H39 H 0.15222 0.14719 0.07488 0.0
Nd40 Nd 0.61977 0.58703 0.36163 0.0
Nd41 Nd 0.61523 0.5191 0.34304 0.0
C42 C 0.62781 0.63469 0.38341 0.0
C43 C 0.62326 0.63143 0.40042 0.0
C44 C 0.61574 0.58817 0.411 0.0
C45 C 0.61526 0.58512 0.42712 0.0
C46 C 0.62185 0.62548 0.43279 0.0
C47 C 0.62793 0.66912 0.42211 0.0
C48 C 0.62868 0.67198 0.40606 0.0
C49 C 0.57097 0.63277 0.33707 0.0
C50 C 0.52834 0.5303 0.37142 0.0
C51 C 0.6195 0.46159 0.32255 0.0
C52 C 0.63131 0.46177 0.30558 0.0
C53 C 0.6497 0.50055 0.29524 0.0
C54 C 0.66254 0.49908 0.27914 0.0
C55 C 0.6571 0.45877 0.27319 0.0
C56 C 0.63823 0.42024 0.28366 0.0
C57 C 0.62555 0.42175 0.29973 0.0
C58 C 0.652 0.47249 0.37043 0.0
C59 C 0.68284 0.60279 0.32696 0.0
O60 O 0.66289 0.60427 0.37695 0.0
O61 O 0.5887 0.64038 0.37768 0.0
O62 O 0.6006 0.65141 0.34199 0.0
O63 O 0.56638 0.59152 0.34544 0.0
O64 O 0.55692 0.55087 0.3768 0.0
O65 O 0.54039 0.51905 0.35718 0.0
O66 O 0.58078 0.49118 0.32736 0.0
O67 O 0.65482 0.46113 0.32964 0.0
O68 O 0.62074 0.45851 0.36483 0.0
O69 O 0.66408 0.5108 0.36145 0.0
O70 O 0.65862 0.57191 0.32437 0.0
O71 O 0.67963 0.60969 0.34154 0.0
H72 H 0.61104 0.55672 0.40676 0.0
H73 H 0.61015 0.55119 0.43511 0.0
H74 H 0.63388 0.70055 0.42606 0.0
H75 H 0.6346 0.70557 0.39798 0.0
H76 H 0.65445 0.53165 0.29962 0.0
H77 H 0.67727 0.52915 0.27142 0.0
H78 H 0.63266 0.38915 0.27943 0.0
H79 H 0.61133 0.39155 0.3076 0.0
Nd80 Nd 0.17256 0.87471 0.59575 0.0
Nd81 Nd 0.23181 0.82419 0.57003 0.0
C82 C 0.1359 0.93699 0.61538 0.0
C83 C 0.14113 0.94173 0.63113 0.0
C84 C 0.16669 0.9029 0.6407 0.0
C85 C 0.16933 0.90697 0.65602 0.0
C86 C 0.1466 0.95004 0.66193 0.0
C87 C 0.12221 -0.01068 0.65206 0.0
C88 C 0.11942 -0.01491 0.63678 0.0
C89 C 0.13353 0.80228 0.59069 0.0
C90 C 0.23171 0.76386 0.60582 0.0
C91 C 0.28082 0.79589 0.54375 0.0
C92 C 0.28197 0.80361 0.52657 0.0
C93 C 0.24437 0.83363 0.51933 0.0
C94 C 0.25011 0.84847 0.50287 0.0
C95 C 0.29381 0.83405 0.49342 0.0
C96 C 0.33061 0.80233 0.50073 0.0
C97 C 0.32469 0.78729 0.51712 0.0
C98 C 0.2832 0.85919 0.58693 0.0
C99 C 0.14069 0.91464 0.56066 0.0
O100 O 0.17234 0.94263 0.60435 0.0
O101 O 0.11678 0.90027 0.61471 0.0
O102 O 0.13225 0.81198 0.60458 0.0
O103 O 0.15422 0.83118 0.57992 0.0
O104 O 0.21743 0.80809 0.60983 0.0
O105 O 0.23332 0.75816 0.59105 0.0
O106 O 0.25012 0.77116 0.55328 0.0
O107 O 0.2857 0.83412 0.54891 0.0
O108 O 0.29527 0.81741 0.58227 0.0
O109 O 0.24466 0.88269 0.58225 0.0
O110 O 0.17741 0.88162 0.55572 0.0
O111 O 0.13255 0.92058 0.57552 0.0
H112 H 0.18382 0.8692 0.63641 0.0
H113 H 0.18803 0.87591 0.66337 0.0
H114 H 0.10513 0.02331 0.65615 0.0
H115 H 0.09988 0.01548 0.62943 0.0
H116 H 0.21141 0.84721 0.52644 0.0
H117 H 0.22112 0.8731 0.49764 0.0
H118 H 0.36443 0.78992 0.49381 0.0
H119 H 0.35436 0.76459 0.52249 0.0
Nd120 Nd 0.8091 0.50394 0.84411 0.0
Nd121 Nd 0.90186 0.53647 0.84284 0.0
C122 C 0.74025 0.46566 0.83911 0.0
C123 C 0.74019 0.43268 0.82838 0.0
C124 C 0.78212 0.41713 0.81842 0.0
C125 C 0.78368 0.3826 0.8091 0.0
C126 C 0.74332 0.36282 0.80961 0.0
C127 C 0.70105 0.3793 0.81939 0.0
C128 C 0.69956 0.41393 0.82874 0.0
C129 C 0.79725 0.58668 0.85695 0.0
C130 C 0.86644 0.54698 0.80906 0.0
C131 C 0.97488 0.56789 0.84879 0.0
C132 C -0.00031 0.56871 0.86195 0.0
C133 C 0.97823 0.56038 0.87782 0.0
C134 C 0.0038 0.55852 0.89 0.0
C135 C 0.05162 0.56466 0.88663 0.0
C136 C 0.07274 0.57297 0.87066 0.0
C137 C 0.04715 0.57494 0.85854 0.0
C138 C 0.91124 0.45049 0.83218 0.0
C139 C 0.85275 0.47119 0.87589 0.0
O140 O 0.76562 0.44606 0.85033 0.0
O141 O 0.74686 0.51008 0.83245 0.0
O142 O 0.77157 0.55311 0.86184 0.0
O143 O 0.82609 0.57883 0.8445 0.0
O144 O 0.83594 0.51976 0.81744 0.0
O145 O 0.89353 0.56478 0.81614 0.0
O146 O 0.93294 0.59577 0.84782 0.0
O147 O 0.97768 0.5248 0.84532 0.0
O148 O 0.93806 0.48268 0.82601 0.0
O149 O 0.8834 0.46248 0.84419 0.0
O150 O 0.87958 0.50466 0.86954 0.0
O151 O 0.82745 0.45766 0.86736 0.0
H152 H 0.81396 0.43103 0.81808 0.0
H153 H 0.81659 0.37126 0.80155 0.0
H154 H 0.66952 0.36439 0.82018 0.0
H155 H 0.66706 0.42526 0.83649 0.0
H156 H 0.94189 0.5548 0.88082 0.0
H157 H 0.98622 0.55142 0.90208 0.0
H158 H 0.10903 0.57862 0.86746 0.0
H159 H 0.0647 0.58106 0.84641 0.0
Nd160 Nd 0.68855 0.86796 0.96142 0.0
Nd161 Nd 0.62862 0.93597 0.93984 0.0
C162 C 0.73189 0.80952 0.98416 0.0
C163 C 0.74977 0.81458 0.99811 0.0
C164 C 0.72002 0.83753 1.01009 0.0
C165 C 0.7383 0.84304 1.02297 0.0
C166 C 0.78667 0.82589 1.02407 0.0
C167 C 0.81627 0.80297 1.01203 0.0
C168 C 0.79792 0.79723 0.99921 0.0
C169 C 0.73732 0.93177 0.93936 0.0
C170 C 0.60687 0.95426 0.97699 0.0
C171 C 0.59874 -0.01702 0.91271 0.0
C172 C 0.6037 0.97203 0.89625 0.0
C173 C 0.62949 -0.00172 0.88315 0.0
C174 C 0.63237 -0.01039 0.8677 0.0
C175 C 0.60931 0.95448 0.86469 0.0
C176 C 0.5837 0.92811 0.87786 0.0
C177 C 0.58098 0.93666 0.89328 0.0
C178 C 0.58173 0.87061 0.9606 0.0
C179 C 0.69187 0.83038 0.93009 0.0
O180 O 0.68592 0.81806 0.98463 0.0
O181 O 0.75433 0.82772 0.97056 0.0
O182 O 0.75262 0.88529 0.94335 0.0
O183 O 0.69625 0.94501 0.94697 0.0
O184 O 0.64101 0.91535 0.97902 0.0
O185 O 0.59744 0.97442 0.96236 0.0
O186 O 0.63568 -0.00865 0.91731 0.0
O187 O 0.57379 0.95729 0.92412 0.0
O188 O 0.56259 0.91614 0.9561 0.0
O189 O 0.62346 0.85963 0.95336 0.0
O190 O 0.67463 0.87719 0.92512 0.0
O191 O 0.6923 0.81415 0.94524 0.0
H192 H 0.68269 0.85123 1.00954 0.0
H193 H 0.71438 0.86013 0.03217 0.0
H194 H 0.85377 0.7899 1.01241 0.0
H195 H 0.8215 0.77959 0.99006 0.0
H196 H 0.64714 0.02609 0.88481 0.0
H197 H 0.65201 0.0114 0.85805 0.0
H198 H 0.56595 0.90024 0.87632 0.0
H199 H 0.56066 0.91546 0.90292 0.0
Nd200 Nd 0.38538 0.43292 0.7182 0.0
Nd201 Nd 0.37732 0.3735 0.69757 0.0
C202 C 0.38743 0.48284 0.74004 0.0
C203 C 0.37603 0.48077 0.75707 0.0
C204 C 0.36283 0.43897 0.76726 0.0
C205 C 0.34809 0.43967 0.78336 0.0
C206 C 0.34618 0.48231 0.78937 0.0
C207 C 0.36023 0.5237 0.77906 0.0
C208 C 0.37493 0.5229 0.76304 0.0
C209 C 0.34885 0.48946 0.69182 0.0
C210 C 0.32279 0.34543 0.73382 0.0
C211 C 0.34495 0.33001 0.67923 0.0
C212 C 0.32951 0.33947 0.66388 0.0
C213 C 0.33738 0.38137 0.65267 0.0
C214 C 0.32239 0.38926 0.63805 0.0
C215 C 0.29931 0.35533 0.63453 0.0
C216 C 0.2912 0.31371 0.64594 0.0
C217 C 0.30616 0.30593 0.66051 0.0
C218 C 0.45167 0.3311 0.71352 0.0
C219 C 0.46545 0.42969 0.68731 0.0
O220 O 0.424 0.4513 0.73476 0.0
O221 O 0.35098 0.48888 0.73285 0.0
O222 O 0.38184 0.49844 0.6979 0.0
O223 O 0.33559 0.45014 0.69952 0.0
O224 O 0.33333 0.3866 0.73571 0.0
O225 O 0.33772 0.33088 0.72011 0.0
O226 O 0.31764 0.35411 0.68976 0.0
O227 O 0.38997 0.32758 0.67918 0.0
O228 O 0.45264 0.33114 0.69872 0.0
O229 O 0.41148 0.35142 0.71974 0.0
O230 O 0.432 0.41796 0.68143 0.0
O231 O 0.45911 0.43078 0.70257 0.0
H232 H 0.36326 0.40625 0.76273 0.0
H233 H 0.33738 0.4073 0.79103 0.0
H234 H 0.36015 0.55669 0.78338 0.0
H235 H 0.38486 0.5555 0.75526 0.0
H236 H 0.35527 0.40769 0.6552 0.0
H237 H 0.32881 0.42181 0.62952 0.0
H238 H 0.27432 0.28646 0.64349 0.0
H239 H 0.29988 0.27341 0.6691 0.0
Nd240 Nd 0.77614 0.12496 0.48946 0.0
Nd241 Nd 0.85481 0.09297 0.46319 0.0
C242 C 0.71723 0.15807 0.51369 0.0
C243 C 0.70919 0.14016 0.53105 0.0
C244 C 0.74735 0.11865 0.53933 0.0
C245 C 0.73929 0.10154 0.55567 0.0
C246 C 0.69284 0.10507 0.56419 0.0
C247 C 0.65471 0.12616 0.55581 0.0
C248 C 0.66283 0.14357 0.53946 0.0
C249 C 0.75378 0.06473 0.4716 0.0
C250 C 0.86432 0.03526 0.49872 0.0
C251 C 0.90336 0.05717 0.43835 0.0
C252 C 0.89611 0.05566 0.42252 0.0
C253 C 0.85979 0.08898 0.41551 0.0
C254 C 0.85059 0.08414 0.40099 0.0
C255 C 0.87747 0.04573 0.3934 0.0
C256 C 0.91426 0.01294 0.40041 0.0
C257 C 0.92345 0.01789 0.41488 0.0
C258 C 0.88511 0.13788 0.48282 0.0
C259 C 0.78167 0.19863 0.45442 0.0
O260 O 0.75718 0.17296 0.50755 0.0
O261 O 0.70561 0.13221 0.50494 0.0
O262 O 0.74171 0.06032 0.48681 0.0
O263 O 0.77661 0.09887 0.46695 0.0
O264 O 0.8315 0.07136 0.50361 0.0
O265 O 0.86956 0.02869 0.48398 0.0
O266 O 0.87752 0.03216 0.44984 0.0
O267 O 0.90627 0.10004 0.4411 0.0
O268 O 0.91179 0.1037 0.47565 0.0
O269 O 0.84512 0.15065 0.47827 0.0
O270 O 0.81745 0.16495 0.44936 0.0
O271 O 0.76038 0.19326 0.46943 0.0
H272 H 0.78352 0.11485 0.53317 0.0
H273 H 0.76957 0.08489 0.56161 0.0
H274 H 0.61851 0.12997 0.56192 0.0
H275 H 0.63276 0.15979 0.53338 0.0
H276 H 0.83796 0.11796 0.42141 0.0
H277 H 0.82179 0.10966 0.39591 0.0
H278 H 0.93596 -0.01654 0.39469 0.0
H279 H 0.95141 -0.00827 0.42024 0.0
Nd280 Nd 0.0907 0.41799 0.21716 0.0
Nd281 Nd 0.1849 0.44889 0.21601 0.0
C282 C 0.01855 0.38633 0.21077 0.0
C283 C 0.99534 0.38543 0.19723 0.0
C284 C 0.02037 0.38627 0.18181 0.0
C285 C 0.99683 0.38706 0.16923 0.0
C286 C 0.94757 0.3873 0.17171 0.0
C287 C 0.92281 0.38672 0.18721 0.0
C288 C 0.94636 0.38579 0.19975 0.0
C289 C 0.08253 0.50404 0.22748 0.0
C290 C 0.1423 0.48103 0.184 0.0
C291 C 0.25476 0.48593 0.22093 0.0
C292 C 0.25638 0.51944 0.23133 0.0
C293 C 0.21499 0.53741 0.24111 0.0
C294 C 0.21514 0.57277 0.24994 0.0
C295 C 0.25672 0.59086 0.24915 0.0
C296 C 0.29841 0.57182 0.23959 0.0
C297 C 0.29817 0.53646 0.23071 0.0
C298 C 0.19423 0.36516 0.20387 0.0
C299 C 0.12565 0.4081 0.25095 0.0
O300 O 0.06031 0.35843 0.21212 0.0
O301 O 0.01508 0.42942 0.21437 0.0
O302 O 0.05448 0.4729 0.23352 0.0
O303 O 0.11093 0.49125 0.21567 0.0
O304 O 0.11361 0.44942 0.19051 0.0
O305 O 0.16859 0.49363 0.19241 0.0
O306 O 0.22965 0.50564 0.20964 0.0
O307 O 0.24693 0.44211 0.22787 0.0
O308 O 0.22128 0.39744 0.19871 0.0
O309 O 0.1658 0.37485 0.21618 0.0
O310 O 0.15665 0.43475 0.24255 0.0
O311 O 0.09834 0.39041 0.24391 0.0
H312 H 0.05804 0.38663 0.17947 0.0
H313 H 0.01723 0.38816 0.1575 0.0
H314 H 0.88519 0.38618 0.18974 0.0
H315 H 0.92613 0.38543 0.2115 0.0
H316 H 0.1823 0.52481 0.24165 0.0
H317 H 0.18261 0.58611 0.25734 0.0
H318 H 0.33087 0.58534 0.23858 0.0
H319 H 0.33029 0.52326 0.22311 0.0
Nd320 Nd 0.8681 0.5254 0.61987 0.0
Nd321 Nd 0.80495 0.59212 0.59871 0.0
C322 C 0.90087 0.47926 0.64661 0.0
C323 C 0.89617 0.48989 0.66311 0.0
C324 C 0.86221 0.47257 0.6756 0.0
C325 C 0.85911 0.48153 0.69103 0.0
C326 C 0.88994 0.5081 0.69465 0.0
C327 C 0.92388 0.52538 0.68209 0.0
C328 C 0.92698 0.51638 0.6667 0.0
C329 C 0.90929 0.59673 0.5997 0.0
C330 C 0.79933 0.62684 0.63084 0.0
C331 C 0.76078 0.65113 0.57625 0.0
C332 C 0.7438 0.64729 0.56201 0.0
C333 C 0.77319 0.62196 0.55053 0.0
C334 C 0.75552 0.61743 0.53739 0.0
C335 C 0.70813 0.63799 0.53556 0.0
C336 C 0.67892 0.66337 0.5471 0.0
C337 C 0.69667 0.66804 0.56018 0.0
C338 C 0.7596 0.52532 0.62054 0.0
C339 C 0.89041 0.50888 0.58269 0.0
O340 O 0.86444 0.46908 0.64221 0.0
O341 O 0.92413 0.50646 0.63514 0.0
O342 O 0.93143 0.55186 0.60338 0.0
O343 O 0.86771 0.60349 0.60726 0.0
O344 O 0.81946 0.58061 0.63529 0.0
O345 O 0.79742 0.64429 0.61582 0.0
O346 O 0.80665 0.64395 0.57588 0.0
O347 O 0.7387 0.63066 0.58958 0.0
O348 O 0.7415 0.57089 0.61615 0.0
O349 O 0.8011 0.51401 0.61288 0.0
O350 O 0.85488 0.54664 0.58089 0.0
O351 O 0.90063 0.48861 0.5972 0.0
H352 H 0.83808 0.45163 0.6735 0.0
H353 H 0.83286 0.46664 0.7002 0.0
H354 H 0.94799 0.54654 0.68404 0.0
H355 H 0.95388 0.53029 0.65756 0.0
H356 H 0.80972 0.60562 0.55169 0.0
H357 H 0.77914 0.59831 0.52859 0.0
H358 H 0.64212 0.67907 0.54615 0.0
H359 H 0.67339 0.68748 0.56898 0.0
Nd360 Nd 0.12058 0.09294 0.86153 0.0
Nd361 Nd 0.11567 0.02334 0.84423 0.0
C362 C 0.12903 0.14338 0.8825 0.0
C363 C 0.1278 0.14099 0.89933 0.0
C364 C 0.13478 0.09584 0.9097 0.0
C365 C 0.13912 0.09466 0.92533 0.0
C366 C 0.13671 0.13859 0.93067 0.0
C367 C 0.12753 0.1837 0.92037 0.0
C368 C 0.12314 0.18484 0.90481 0.0
C369 C 0.07236 0.1376 0.83669 0.0
C370 C 0.02795 0.03844 0.87182 0.0
C371 C 0.12058 0.96241 0.82481 0.0
C372 C 0.1262 0.96393 0.80783 0.0
C373 C 0.11632 0.00869 0.79748 0.0
C374 C 0.12068 0.00934 0.78134 0.0
C375 C 0.13538 0.96529 0.77536 0.0
C376 C 0.14614 0.9207 0.78578 0.0
C377 C 0.14146 0.92007 0.80192 0.0
C378 C 0.15128 -0.02023 0.87196 0.0
C379 C 0.18389 0.10508 0.82698 0.0
O380 O 0.16458 0.11486 0.87547 0.0
O381 O 0.08892 0.14584 0.87778 0.0
O382 O 0.10227 0.15622 0.84146 0.0
O383 O 0.06724 0.09684 0.8453 0.0
O384 O 0.05722 0.05823 0.87716 0.0
O385 O 0.03986 0.02696 0.85762 0.0
O386 O 0.08072 -0.01316 0.8312 0.0
O387 O 0.15746 0.96792 0.83003 0.0
O388 O 0.11813 0.96661 0.86713 0.0
O389 O 0.16481 0.01624 0.86239 0.0
O390 O 0.15866 0.07458 0.82475 0.0
O391 O 0.18108 0.11298 0.84141 0.0
H392 H 0.13842 0.06164 0.90558 0.0
H393 H 0.14639 0.0594 0.93302 0.0
H394 H 0.12472 0.21811 0.92426 0.0
H395 H 0.11757 0.21995 0.89691 0.0
H396 H 0.10494 0.04297 0.80189 0.0
H397 H 0.11271 0.04424 0.77354 0.0
H398 H 0.15711 0.88621 0.7815 0.0
H399 H 0.14933 0.88528 0.80981 0.0
Nd400 Nd 0.66368 0.36748 0.09544 0.0
Nd401 Nd 0.72427 0.31792 0.06982 0.0
C402 C 0.63092 0.41218 0.11989 0.0
C403 C 0.64582 0.41815 0.13416 0.0
C404 C 0.68659 0.38845 0.13957 0.0
C405 C 0.69978 0.39482 0.15333 0.0
C406 C 0.67215 0.43081 0.16187 0.0
C407 C 0.63157 0.46065 0.15622 0.0
C408 C 0.61866 0.45442 0.14246 0.0
C409 C 0.61366 0.32035 0.08251 0.0
C410 C 0.72342 0.25358 0.10481 0.0
C411 C 0.76997 0.28897 0.04313 0.0
C412 C 0.77144 0.30596 1.0259 0.0
C413 C 0.79242 0.27313 1.01553 0.0
C414 C 0.80001 0.28999 0.99918 0.0
C415 C 0.7871 0.34024 0.99284 0.0
C416 C 0.76475 0.37282 1.00328 0.0
C417 C 0.7569 0.35586 1.01962 0.0
C418 C 0.77386 0.35562 0.08656 0.0
C419 C 0.63879 0.41418 0.06036 0.0
O420 O 0.65291 0.43289 0.10652 0.0
O421 O 0.62381 0.36849 0.11956 0.0
O422 O 0.59598 0.36032 0.08814 0.0
O423 O 0.65563 0.30314 0.08518 0.0
O424 O 0.70478 0.29665 0.1092 0.0
O425 O 0.72938 0.24927 0.08975 0.0
O426 O 0.73273 0.27191 0.05134 0.0
O427 O 0.78471 0.31702 0.05035 0.0
O428 O 0.78778 0.3141 0.08169 0.0
O429 O 0.7349 0.37805 0.0819 0.0
O430 O 0.67058 0.37648 0.05602 0.0
O431 O 0.6341 0.42356 0.07474 0.0
H432 H 0.708 0.3603 0.13321 0.0
H433 H 0.73144 0.37156 0.15729 0.0
H434 H 0.60893 0.488 0.16265 0.0
H435 H 0.58704 0.47756 0.13841 0.0
H436 H 0.80437 0.23461 1.0201 0.0
H437 H 0.81761 0.26387 0.99154 0.0
H438 H 0.75364 0.41157 0.99884 0.0
H439 H 0.74071 0.38201 1.02738 0.0
Nd440 Nd 0.31271 0.00223 0.34376 0.0
Nd441 Nd 0.40536 0.03465 0.34439 0.0
C442 C 0.24583 0.96385 0.3374 0.0
C443 C 0.24568 0.93112 0.32658 0.0
C444 C 0.28787 0.91355 0.31708 0.0
C445 C 0.28878 0.8789 0.30784 0.0
C446 C 0.24748 0.86117 0.30794 0.0
C447 C 0.20504 0.87979 0.31725 0.0
C448 C 0.20422 0.91442 0.32651 0.0
C449 C 0.29896 0.0871 0.3556 0.0
C450 C 0.37625 0.04329 0.30975 0.0
C451 C 0.47349 0.06806 0.35272 0.0
C452 C 0.49952 0.0624 0.3663 0.0
C453 C 0.47745 0.07774 0.38065 0.0
C454 C 0.50383 0.07392 0.39282 0.0
C455 C 0.5531 0.05484 0.391 0.0
C456 C 0.57466 0.03885 0.3767 0.0
C457 C 0.54842 0.04273 0.36459 0.0
C458 C 0.41674 0.94707 0.33462 0.0
C459 C 0.35044 0.97057 0.37685 0.0
O460 O 0.27025 0.94375 0.34885 0.0
O461 O 0.25295 0.00826 0.33093 0.0
O462 O 0.27196 0.05466 0.36018 0.0
O463 O 0.33017 0.0769 0.3439 0.0
O464 O 0.34584 0.01523 0.31763 0.0
O465 O 0.40067 0.06264 0.31738 0.0
O466 O 0.42924 0.09118 0.35362 0.0
O467 O 0.48135 0.03058 0.34554 0.0
O468 O 0.44548 0.97777 0.32905 0.0
O469 O 0.38628 0.96106 0.34581 0.0
O470 O 0.38147 -7e-05 0.37064 0.0
O471 O 0.32344 0.96012 0.3682 0.0
H472 H 0.32032 0.92592 0.31705 0.0
H473 H 0.3219 0.86584 0.30067 0.0
H474 H 0.17276 0.8665 0.31776 0.0
H475 H 0.17148 0.9273 0.3339 0.0
H476 H 0.4399 0.09321 0.38244 0.0
H477 H 0.48568 0.0871 0.40352 0.0
H478 H 0.61209 0.023 0.3748 0.0
H479 H 0.56667 0.03058 0.35373 0.0
Nd480 Nd 0.18518 0.36824 0.46042 0.0
Nd481 Nd 0.12213 0.43363 0.43899 0.0
C482 C 0.23144 0.31365 0.483 0.0
C483 C 0.23191 0.31422 0.49956 0.0
C484 C 0.19142 0.33539 0.50904 0.0
C485 C 0.19441 0.34217 0.52405 0.0
C486 C 0.23798 0.3279 0.52972 0.0
C487 C 0.27789 0.3048 0.5204 0.0
C488 C 0.27486 0.29815 0.50542 0.0
C489 C 0.23179 0.42901 0.43652 0.0
C490 C 0.10032 0.45238 0.47602 0.0
C491 C 0.08869 0.48077 0.41246 0.0
C492 C 0.09424 0.47225 0.39582 0.0
C493 C 0.1374 0.44922 0.38797 0.0
C494 C 0.14074 0.43898 0.37271 0.0
C495 C 0.10104 0.45158 0.3647 0.0
C496 C 0.058 0.47499 0.37264 0.0
C497 C 0.0547 0.48497 0.3879 0.0
C498 C 0.07746 0.369 0.46091 0.0
C499 C 0.18842 0.3284 0.42927 0.0
O500 O 0.19366 0.30337 0.47961 0.0
O501 O 0.2467 0.35025 0.47304 0.0
O502 O 0.24699 0.38264 0.44094 0.0
O503 O 0.19174 0.44349 0.44458 0.0
O504 O 0.13439 0.4134 0.47807 0.0
O505 O 0.09113 0.47264 0.46138 0.0
O506 O 0.12435 0.49154 0.41715 0.0
O507 O 0.06719 0.45049 0.42336 0.0
O508 O 0.05716 0.41374 0.4559 0.0
O509 O 0.11898 0.35815 0.45347 0.0
O510 O 0.16646 0.37375 0.42443 0.0
O511 O 0.19404 0.31358 0.44412 0.0
H512 H 0.15794 0.34805 0.50467 0.0
H513 H 0.16314 0.36025 0.53094 0.0
H514 H 0.31169 0.29256 0.5246 0.0
H515 H 0.30643 0.28184 0.49821 0.0
H516 H 0.16855 0.43854 0.39371 0.0
H517 H 0.17449 0.42027 0.36734 0.0
H518 H 0.02663 0.48625 0.36703 0.0
H519 H 0.02083 0.50259 0.3936 0.0
Nd520 Nd 0.88264 0.9303 0.21707 0.0
Nd521 Nd 0.8768 0.86361 0.19878 0.0
C522 C 0.87773 -0.01075 0.23709 0.0
C523 C 0.86893 -0.00856 0.25395 0.0
C524 C 0.89242 0.95516 0.26483 0.0
C525 C 0.88573 0.9604 0.2806 0.0
C526 C 0.8553 0.00185 0.28571 0.0
C527 C 0.83058 0.03707 0.27485 0.0
C528 C 0.83751 0.03196 0.25911 0.0
C529 C 0.84679 0.9786 0.18968 0.0
C530 C 0.8146 0.84784 0.23358 0.0
C531 C 0.86794 0.81759 0.17668 0.0
C532 C 0.87209 0.82364 0.15958 0.0
C533 C 0.87439 0.86948 0.14981 0.0
C534 C 0.87478 0.87487 0.1336 0.0
C535 C 0.87323 0.83437 0.12701 0.0
C536 C 0.87235 0.78829 0.13687 0.0
C537 C 0.87176 0.78304 0.15302 0.0
C538 C 0.92558 0.81633 0.2232 0.0
C539 C 0.97008 0.91745 0.18918 0.0
O540 O 0.91731 0.9622 0.23155 0.0
O541 O 0.8414 -0.01344 0.231 0.0
O542 O 0.87959 -0.00977 0.19517 0.0
O543 O 0.83351 0.94065 0.19852 0.0
O544 O 0.83983 0.87789 0.23609 0.0
O545 O 0.81691 0.84152 0.21898 0.0
O546 O 0.83286 0.84683 0.18364 0.0
O547 O 0.90727 0.81131 0.18233 0.0
O548 O 0.89542 0.79843 0.21827 0.0
O549 O 0.93077 0.85748 0.21491 0.0
O550 O 0.94069 0.89825 0.18368 0.0
O551 O 0.95828 0.92829 0.20346 0.0
H552 H 0.91667 0.92339 0.26112 0.0
H553 H 0.90563 0.93285 0.28864 0.0
H554 H 0.80627 0.06893 0.27848 0.0
H555 H 0.81887 0.06017 0.25087 0.0
H556 H 0.87504 0.9011 0.15476 0.0
H557 H 0.87584 0.9107 0.12627 0.0
H558 H 0.87032 0.75658 0.13221 0.0
H559 H 0.8699 0.74746 0.16046 0.0
Nd560 Nd 0.27148 0.63283 0.98987 0.0
Nd561 Nd 0.33792 0.59316 0.96358 0.0
C562 C 0.21796 0.65548 1.01639 0.0
C563 C 0.21347 0.64235 0.03374 0.0
C564 C 0.25234 0.61843 0.04138 0.0
C565 C 0.24557 0.60182 0.05778 0.0
C566 C 0.19975 0.60834 0.06675 0.0
C567 C 0.16122 0.63313 0.059 0.0
C568 C 0.16805 0.64993 0.0427 0.0
C569 C 0.22794 0.59695 0.97083 0.0
C570 C 0.36265 0.54264 0.99849 0.0
C571 C 0.37663 0.55334 0.93843 0.0
C572 C 0.36306 0.54559 0.92418 0.0
C573 C 0.32032 0.57116 0.91914 0.0
C574 C 0.30661 0.56052 0.9061 0.0
C575 C 0.33571 0.52442 0.8979 0.0
C576 C 0.37877 0.49947 0.90297 0.0
C577 C 0.39218 0.50987 0.91604 0.0
C578 C 0.38038 0.6418 0.9787 0.0
C579 C 0.27294 0.70496 0.95589 0.0
O580 O 0.25144 0.6793 1.00854 0.0
O581 O 0.21235 0.62153 1.00937 0.0
O582 O 0.21124 0.63661 0.97661 0.0
O583 O 0.26704 0.57533 0.97554 0.0
O584 O 0.32809 0.57742 1.00339 0.0
O585 O 0.36917 0.5359 0.98374 0.0
O586 O 0.3575 0.52896 0.95165 0.0
O587 O 0.37786 0.59854 0.93927 0.0
O588 O 0.40231 0.60443 0.97216 0.0
O589 O 0.33843 0.65586 0.97578 0.0
O590 O 0.29688 0.66514 0.95027 0.0
O591 O 0.26254 0.70443 0.97132 0.0
H592 H 0.28762 0.61166 0.03465 0.0
H593 H 0.276 0.58258 0.06334 0.0
H594 H 0.12561 0.63949 0.06554 0.0
H595 H 0.13753 0.668 0.03702 0.0
H596 H 0.29739 0.5988 0.9254 0.0
H597 H 0.27312 0.58014 0.90255 0.0
H598 H 0.40255 0.47233 0.89671 0.0
H599 H 0.42526 0.48982 0.91984 0.0
Nd600 Nd 0.60091 0.92213 0.71648 0.0
Nd601 Nd 0.69511 0.95482 0.71445 0.0
C602 C 0.53016 0.8872 0.71067 0.0
C603 C 0.50671 0.88712 0.69712 0.0
C604 C 0.53255 0.8821 0.68209 0.0
C605 C 0.50907 0.883 0.6695 0.0
C606 C 0.45912 0.88927 0.6716 0.0
C607 C 0.43353 0.89479 0.68666 0.0
C608 C 0.45701 0.89366 0.69922 0.0
C609 C 0.59226 0.01004 0.7256 0.0
C610 C 0.65098 -0.0164 0.68242 0.0
C611 C 0.76427 -0.00609 0.7188 0.0
C612 C 0.76525 0.02692 0.72942 0.0
C613 C 0.72416 0.04175 0.73984 0.0
C614 C 0.72319 0.07661 0.74896 0.0
C615 C 0.76335 0.09738 0.74782 0.0
C616 C 0.80488 0.08153 0.73762 0.0
C617 C 0.80574 0.04661 0.72844 0.0
C618 C 0.70497 0.86864 0.70371 0.0
C619 C 0.63651 0.91621 0.74991 0.0
O620 O 0.57299 0.86114 0.71137 0.0
O621 O 0.52475 0.92959 0.71499 0.0
O622 O 0.56385 -0.02056 0.73196 0.0
O623 O 0.62081 -0.00418 0.71401 0.0
O624 O 0.62128 0.95345 0.68957 0.0
O625 O 0.67934 -0.00434 0.69025 0.0
O626 O 0.7378 0.0134 0.70786 0.0
O627 O 0.75836 0.94931 0.72553 0.0
O628 O 0.7318 0.90091 0.69797 0.0
O629 O 0.67629 0.88009 0.71576 0.0
O630 O 0.66713 0.94269 0.7411 0.0
O631 O 0.60929 0.89711 0.74327 0.0
H632 H 0.57087 0.87768 0.68003 0.0
H633 H 0.53011 0.87929 0.65807 0.0
H634 H 0.39525 0.89906 0.68886 0.0
H635 H 0.43619 0.89785 0.71066 0.0
H636 H 0.69244 0.02714 0.74067 0.0
H637 H 0.69088 0.08749 0.75685 0.0
H638 H 0.83622 0.09719 0.73637 0.0
H639 H 0.83759 0.03585 0.72034 0.0
H640 H 0.45959 0.09822 0.08107 0.0
H641 H 0.52802 0.35848 0.07375 0.0
H642 H 0.37599 0.21481 0.10469 0.0
H643 H 0.63008 0.22295 0.07975 0.0
H644 H 0.46867 0.31238 0.07203 0.0
H645 H 0.51723 0.15164 0.06837 0.0
C646 C 0.45261 0.13571 0.08309 0.0
C647 C 0.41354 0.15257 0.09393 0.0
C648 C 0.50443 0.29299 0.07328 0.0
C649 C 0.47802 0.21311 0.07941 0.0
C650 C 0.53819 0.31905 0.07435 0.0
C651 C 0.58326 0.29397 0.07748 0.0
C652 C 0.51606 0.24171 0.07528 0.0
C653 C 0.59524 0.24326 0.07769 0.0
C654 C 0.48542 0.16584 0.07592 0.0
C655 C 0.40597 0.20084 0.09641 0.0
N656 N 0.56129 0.21837 0.07696 0.0
N657 N 0.43821 0.22953 0.08925 0.0
H658 H 0.58236 0.69607 0.30957 0.0
H659 H 0.36932 0.87142 0.34794 0.0
H660 H 0.4757 0.64675 0.3473 0.0
H661 H 0.47584 0.91633 0.30929 0.0
H662 H 0.39062 0.78815 0.34192 0.0
H663 H 0.52691 0.77228 0.30264 0.0
C664 C 0.54643 0.70066 0.31597 0.0
C665 C 0.53354 0.66597 0.32915 0.0
C666 C 0.40865 0.81645 0.33453 0.0
C667 C 0.47105 0.75386 0.32202 0.0
C668 C 0.39668 0.86384 0.33803 0.0
C669 C 0.42239 0.89988 0.3295 0.0
C670 C 0.44681 0.80536 0.32254 0.0
C671 C 0.45643 0.88889 0.31651 0.0
C672 C 0.51484 0.74431 0.31213 0.0
C673 C 0.48684 0.67317 0.33711 0.0
N674 N 0.46834 0.84232 0.31362 0.0
N675 N 0.4576 0.71723 0.33377 0.0
H676 H 0.1389 0.75253 0.5669 0.0
H677 H 0.88005 0.69463 0.60009 0.0
H678 H 0.04556 0.80199 0.60724 0.0
H679 H 0.99508 0.58888 0.58088 0.0
H680 H 0.93107 0.75615 0.59223 0.0
H681 H 0.07687 0.71222 0.56284 0.0
C682 C 0.10526 0.75507 0.57478 0.0
C683 C 0.09739 0.77905 0.58767 0.0
C684 C 0.94457 0.7198 0.58937 0.0
C685 C 0.0267 0.73593 0.58271 0.0
C686 C 0.9156 0.68483 0.59383 0.0
C687 C 0.93429 0.63651 0.59158 0.0
C688 C 0.99205 0.70603 0.58261 0.0
C689 C 0.98015 0.62562 0.5832 0.0
C690 C 0.07004 0.73266 0.57239 0.0
C691 C 0.05328 0.78252 0.59743 0.0
N692 N 0.00805 0.66002 0.57925 0.0
N693 N 0.01953 0.76102 0.59477 0.0
H694 H 0.97644 0.14625 0.8453 0.0
H695 H 0.96414 0.42342 0.80533 0.0
H696 H 0.08447 0.20577 0.8104 0.0
H697 H 0.87215 0.37037 0.84729 0.0
H698 H 0.98784 0.34007 0.79965 0.0
H699 H 0.91944 0.22185 0.83828 0.0
C700 C 0.9875 0.17433 0.83564 0.0
C701 C 0.03517 0.17074 0.8286 0.0
C702 C 0.96173 0.34675 0.80994 0.0
C703 C 0.97103 0.25691 0.82079 0.0
C704 C 0.94845 0.39422 0.81323 0.0
C705 C 0.91782 0.40303 0.82714 0.0
C706 C 0.94487 0.30789 0.82081 0.0
C707 C 0.89714 0.36452 0.8367 0.0
C708 C 0.95513 0.21759 0.83173 0.0
C709 C 0.04801 0.20788 0.81623 0.0
N710 N 0.91199 0.31818 0.83357 0.0
N711 N 0.01633 0.25001 0.81293 0.0
H712 H 0.49271 0.89019 0.97672 0.0
H713 H 0.46771 0.61294 0.98709 0.0
H714 H 0.60842 0.7706 0.96753 0.0
H715 H 0.35175 0.73682 0.98353 0.0
H716 H 0.51827 0.6667 0.99033 0.0
H717 H 0.44159 0.83084 0.98926 0.0
C718 C 0.5075 0.85131 0.97756 0.0
C719 C 0.5542 0.83501 0.97063 0.0
C720 C 0.4815 0.68193 0.98918 0.0
C721 C 0.49622 0.76735 0.98495 0.0
C722 C 0.45272 0.6514 0.98729 0.0
C723 C 0.40625 0.67118 0.98445 0.0
C724 C 0.46358 0.73246 0.98809 0.0
C725 C 0.38787 0.72062 0.9853 0.0
C726 C 0.47839 0.81756 0.98477 0.0
C727 C 0.57216 0.78448 0.97241 0.0
N728 N 0.41703 0.75001 0.98669 0.0
N729 N 0.54276 0.75227 0.97915 0.0
H730 H 0.64672 0.0798 0.71299 0.0
H731 H 0.43575 0.277 0.7432 0.0
H732 H 0.5276 0.04876 0.74862 0.0
H733 H 0.54525 0.30438 0.70347 0.0
H734 H 0.48674 0.1997 0.75285 0.0
H735 H 0.62818 0.16493 0.71708 0.0
C736 C 0.61705 0.09084 0.72183 0.0
C737 C 0.58733 0.05813 0.73001 0.0
C738 C 0.50028 0.2234 0.74231 0.0
C739 C 0.56559 0.15507 0.73462 0.0
C740 C 0.47127 0.26757 0.73686 0.0
C741 C 0.48606 0.29572 0.72228 0.0
C742 C 0.54375 0.20778 0.73298 0.0
C743 C 0.53232 0.28252 0.71455 0.0
C744 C 0.60661 0.1393 0.72424 0.0
C745 C 0.55034 0.07357 0.74169 0.0
N746 N 0.55923 0.2388 0.71979 0.0
N747 N 0.53971 0.12138 0.74338 0.0
H748 H 0.10811 0.2705 0.47062 0.0
H749 H 0.84969 0.23235 0.48761 0.0
H750 H 0.98829 0.38847 0.47689 0.0
H751 H 0.96872 0.11312 0.49383 0.0
H752 H 0.89747 0.28904 0.49074 0.0
H753 H 0.05852 0.21167 0.48539 0.0
C754 C 0.07155 0.28396 0.47534 0.0
C755 C 0.05156 0.33392 0.47206 0.0
C756 C 0.91284 0.25026 0.49187 0.0
C757 C 0.99467 0.26739 0.48878 0.0
C758 C 0.88544 0.21796 0.49011 0.0
C759 C 0.90623 0.1687 0.48978 0.0
C760 C 0.96122 0.23289 0.49298 0.0
C761 C 0.95221 0.15146 0.49341 0.0
C762 C 0.04325 0.25051 0.48384 0.0
C763 C 0.00448 0.34987 0.47873 0.0
N764 N 0.97877 0.1838 0.49439 0.0
N765 N 0.97722 0.31657 0.48647 0.0
H766 H 0.03152 0.53067 0.25461 0.0
H767 H 0.02156 0.80737 0.21488 0.0
H768 H 0.12316 0.58327 0.2125 0.0
H769 H 0.91264 0.74785 0.24935 0.0
H770 H 0.07834 0.73171 0.22206 0.0
H771 H 0.00953 0.61373 0.26054 0.0
C772 C 0.04751 0.55971 0.24674 0.0
C773 C 0.07743 0.55096 0.23269 0.0
C774 C 0.0425 0.73601 0.22849 0.0
C775 C 0.05229 0.64572 0.2393 0.0
C776 C 0.01025 0.77926 0.22448 0.0
C777 C 0.96243 0.78281 0.23134 0.0
C778 C 0.02632 0.69671 0.23936 0.0
C779 C 0.94922 0.7457 0.24364 0.0
C780 C 0.03523 0.60698 0.25017 0.0
C781 C 0.09864 0.58915 0.22318 0.0
N782 N 0.98082 0.70361 0.24706 0.0
N783 N 0.08465 0.63538 0.22643 0.0
H784 H 0.49703 0.96536 0.07865 0.0
H785 H 0.51198 0.00439 0.98295 0.0
H786 H 0.37668 0.02482 0.05449 0.0
H787 H 0.63164 0.93648 1.00675 0.0
H788 H 0.46323 0.01547 1.00879 0.0
H789 H 0.54717 0.95562 0.05285 0.0
C790 C 0.48073 0.97584 0.0681 0.0
C791 C 0.43167 -0.00428 0.06922 0.0
C792 C 0.50031 -0.00151 1.00838 0.0
C793 C 0.49013 -0.0145 0.039 0.0
C794 C 0.52853 -0.00734 0.99346 0.0
C795 C 0.57684 0.96978 0.99224 0.0
C796 C 0.51988 -0.01851 1.02255 0.0
C797 C 0.59495 0.95444 1.00673 0.0
C798 C 0.50968 0.97061 0.0532 0.0
C799 C 0.41385 0.00918 0.05466 0.0
N800 N 0.56696 0.96043 1.02099 0.0
N801 N 0.44254 0.00402 0.04048 0.0
H802 H 0.73079 0.67639 0.32746 0.0
H803 H 0.76613 0.77463 0.23315 0.0
H804 H 0.68631 0.60905 0.29479 0.0
H805 H 0.81178 0.84143 0.26572 0.0
H806 H 0.73612 0.71486 0.25543 0.0
H807 H 0.76087 0.73621 0.30521 0.0
C808 C 0.72773 0.6736 0.31563 0.0
C809 C 0.70603 0.6367 0.31322 0.0
C810 C 0.75244 0.74271 0.25776 0.0
C811 C 0.74028 0.7067 0.28731 0.0
C812 C 0.76946 0.7773 0.24497 0.0
C813 C 0.79147 0.81399 0.24735 0.0
C814 C 0.75729 0.74407 0.27328 0.0
C815 C 0.7949 0.81446 0.26311 0.0
C816 C 0.7448 0.70821 0.30286 0.0
C817 C 0.70296 0.63609 0.29743 0.0
N818 N 0.77824 0.78031 0.27533 0.0
N819 N 0.71961 0.67028 0.28523 0.0
H820 H 0.0574 -0.02003 0.56744 0.0
H821 H 0.94784 0.97028 0.4911 0.0
H822 H 0.13407 0.89849 0.53117 0.0
H823 H 0.87132 0.0475 0.52844 0.0
H824 H 0.01572 0.94295 0.50546 0.0
H825 H 0.99016 0.00623 0.55294 0.0
C826 C 0.0606 0.96804 0.55631 0.0
C827 C 0.10224 0.93695 0.5506 0.0
C828 C 0.98393 0.96551 0.51059 0.0
C829 C 0.02384 0.9666 0.53385 0.0
C830 C 0.94476 -0.01917 0.50244 0.0
C831 C 0.90302 0.01108 0.50852 0.0
C832 C 0.98198 -0.01944 0.52501 0.0
C833 C 0.90217 0.02397 0.52321 0.0
C834 C 0.02177 -0.01713 0.54806 0.0
C835 C 0.10331 0.92267 0.5361 0.0
N836 N 0.94078 0.00894 0.53083 0.0
N837 N 0.06492 0.93735 0.52833 0.0
H838 H 0.67675 0.35278 0.79311 0.0
H839 H 0.8312 0.10897 0.76351 0.0
H840 H 0.81552 0.28469 0.80492 0.0
H841 H 0.69086 0.17492 0.75278 0.0
H842 H 0.82679 0.17392 0.77834 0.0
H843 H 0.68152 0.28824 0.7781 0.0
C844 C 0.70814 0.32416 0.7926 0.0
C845 C 0.7458 0.32424 0.80028 0.0
C846 C 0.79694 0.17416 0.77275 0.0
C847 C 0.7517 0.25041 0.78299 0.0
C848 C 0.79955 0.13722 0.76422 0.0
C849 C 0.76131 0.1364 0.75693 0.0
C850 C 0.75584 0.21068 0.77398 0.0
C851 C 0.72092 0.17364 0.75841 0.0
C852 C 0.71096 0.28744 0.78396 0.0
C853 C 0.78591 0.28656 0.79901 0.0
N854 N 0.71927 0.20925 0.76674 0.0
N855 N 0.78777 0.25119 0.79055 0.0
H856 H 0.30074 0.35331 0.76553 0.0
H857 H 0.19604 0.10227 0.79503 0.0
H858 H 0.29306 0.25918 0.73401 0.0
H859 H 0.22486 0.18432 0.82683 0.0
H860 H 0.22835 0.1604 0.77264 0.0
H861 H 0.2692 0.29458 0.78787 0.0
C862 C 0.29212 0.32062 0.76321 0.0
C863 C 0.29973 0.31181 0.74765 0.0
C864 C 0.22792 0.1656 0.78451 0.0
C865 C 0.26329 0.24336 0.77355 0.0
C866 C 0.20956 0.1321 0.79738 0.0
C867 C 0.20784 0.1376 0.81306 0.0
C868 C 0.24446 0.20579 0.78711 0.0
C869 C 0.22562 0.17782 0.8151 0.0
C870 C 0.27423 0.28676 0.77607 0.0
C871 C 0.28789 0.26811 0.74567 0.0
N872 N 0.24278 0.21013 0.8024 0.0
N873 N 0.27039 0.23594 0.75834 0.0
H874 H 0.1812 0.85356 0.2909 0.0
H875 H 0.32467 0.59994 0.26529 0.0
H876 H 0.317 0.77996 0.3042 0.0
H877 H 0.18759 0.6723 0.25283 0.0
H878 H 0.32324 0.66624 0.27921 0.0
H879 H 0.18338 0.78792 0.27664 0.0
C880 C 0.21143 0.82354 0.29086 0.0
C881 C 0.24895 0.82234 0.29879 0.0
C882 C 0.29345 0.66759 0.27345 0.0
C883 C 0.25185 0.74711 0.28236 0.0
C884 C 0.29435 0.62984 0.26543 0.0
C885 C 0.25616 0.63044 0.25789 0.0
C886 C 0.25413 0.70638 0.27392 0.0
C887 C 0.21752 0.66986 0.25866 0.0
C888 C 0.21275 0.78615 0.28265 0.0
C889 C 0.28755 0.78283 0.2981 0.0
N890 N 0.21753 0.70621 0.2665 0.0
N891 N 0.28794 0.74679 0.29007 0.0
H892 H 0.12611 0.43783 0.5054 0.0
H893 H 0.8648 0.5254 0.55316 0.0
H894 H 0.00386 0.49842 0.48233 0.0
H895 H 0.98664 0.46235 0.57627 0.0
H896 H 0.91422 0.51552 0.52768 0.0
H897 H 0.07662 0.44764 0.53087 0.0
C898 C 0.08888 0.45385 0.50554 0.0
C899 C 0.07 0.46753 0.49124 0.0
C900 C 0.93039 0.50342 0.53826 0.0
C901 C 0.01144 0.47861 0.52129 0.0
C902 C 0.9019 0.50887 0.55303 0.0
C903 C 0.92069 0.49448 0.56735 0.0
C904 C 0.9792 0.48348 0.53728 0.0
C905 C 0.9696 0.47345 0.56587 0.0
C906 C 0.06036 0.45928 0.52031 0.0
C907 C 0.02097 0.48797 0.49271 0.0
N908 N 0.99674 0.46889 0.5513 0.0
N909 N 0.99381 0.49261 0.50728 0.0
H910 H 0.63464 0.40278 0.03027 0.0
H911 H 0.36674 0.55376 1.02865 0.0
H912 H 0.55452 0.47865 0.06749 0.0
H913 H 0.44788 0.47995 0.9911 0.0
H914 H 0.43406 0.52562 0.04314 0.0
H915 H 0.56745 0.4314 1.01574 0.0
C916 C 0.60331 0.42613 0.03533 0.0
C917 C 0.60099 0.43846 0.0502 0.0
C918 C 0.43712 0.51519 0.03178 0.0
C919 C 0.52249 0.47088 0.03352 0.0
C920 C 0.39831 0.53099 1.0235 0.0
C921 C 0.40087 0.51908 1.00855 0.0
C922 C 0.4795 0.48716 1.02519 0.0
C923 C 0.44355 0.48986 1.00258 0.0
C924 C 0.56459 0.44221 1.02702 0.0
C925 C 0.55867 0.46846 0.05605 0.0
N926 N 0.48088 0.4752 1.01083 0.0
N927 N 0.52136 0.48329 0.0478 0.0
H928 H 0.23975 0.20895 0.12666 0.0
H929 H 0.19162 0.26649 0.21464 0.0
H930 H 0.28394 0.10039 0.16617 0.0
H931 H 0.19995 0.37655 0.17242 0.0
H932 H 0.20768 0.20265 0.19805 0.0
H933 H 0.2074 0.26815 0.14437 0.0
C934 C 0.24226 0.19732 0.13908 0.0
C935 C 0.26506 0.14962 0.14486 0.0
C936 C 0.20525 0.24091 0.19248 0.0
C937 C 0.22773 0.21747 0.1653 0.0
C938 C 0.19565 0.27723 0.20193 0.0
C939 C 0.19459 0.32667 0.19485 0.0
C940 C 0.21286 0.25452 0.17592 0.0
C941 C 0.20072 0.33874 0.17833 0.0
C942 C 0.22386 0.23124 0.14919 0.0
C943 C 0.26711 0.13685 0.16113 0.0
N944 N 0.20959 0.30306 0.16945 0.0
N945 N 0.24885 0.17058 0.17077 0.0
H946 H 0.48801 0.54971 0.40131 0.0
H947 H 0.26132 0.42851 0.40546 0.0
H948 H 0.46122 0.49018 0.36346 0.0
H949 H 0.28011 0.49303 0.44326 0.0
H950 H 0.33114 0.4577 0.38925 0.0
H951 H 0.41086 0.53417 0.41641 0.0
C952 C 0.46607 0.53339 0.39615 0.0
C953 C 0.48167 0.52106 0.38104 0.0
C954 C 0.31965 0.46657 0.40095 0.0
C955 C 0.39271 0.50341 0.39832 0.0
C956 C 0.27925 0.45046 0.41014 0.0
C957 C 0.26393 0.45962 0.42557 0.0
C958 C 0.34612 0.49117 0.4073 0.0
C959 C 0.28977 0.48653 0.43125 0.0
C960 C 0.42184 0.52468 0.40478 0.0
C961 C 0.45122 0.5002 0.37503 0.0
N962 N 0.32979 0.50092 0.4222 0.0
N963 N 0.40865 0.49201 0.38365 0.0
H964 H 0.24858 0.6637 0.60515 0.0
H965 H 0.34108 0.58754 0.68837 0.0
H966 H 0.24817 0.76552 0.63521 0.0
H967 H 0.30287 0.47954 0.66794 0.0
H968 H 0.31075 0.65181 0.66774 0.0
H969 H 0.27219 0.59498 0.62637 0.0
C970 C 0.25346 0.67173 0.61614 0.0
C971 C 0.24638 0.72082 0.61828 0.0
C972 C 0.30847 0.61425 0.66772 0.0
C973 C 0.27353 0.64217 0.64263 0.0
C974 C 0.32584 0.57729 0.67957 0.0
C975 C 0.32443 0.52785 0.68001 0.0
C976 C 0.29002 0.60229 0.65578 0.0
C977 C 0.3043 0.51717 0.66817 0.0
C978 C 0.26668 0.63241 0.62829 0.0
C979 C 0.25305 0.72863 0.63289 0.0
N980 N 0.28833 0.55402 0.65642 0.0
N981 N 0.26639 0.69005 0.64433 0.0
H982 H 0.14693 0.52698 0.88859 0.0
H983 H 0.13628 0.62953 0.96742 0.0
H984 H 0.01941 0.59998 0.91445 0.0
H985 H 0.26114 0.53359 0.9488 0.0
H986 H 0.09458 0.61776 0.94773 0.0
H987 H 0.19067 0.52889 0.90953 0.0
C988 C 0.12796 0.54343 0.89862 0.0
C989 C 0.079 0.56345 0.8996 0.0
C990 C 0.13099 0.59886 0.94788 0.0
C991 C 0.12929 0.56525 0.92381 0.0
C992 C 0.15502 0.60551 0.95922 0.0
C993 C 0.20263 0.5828 0.95979 0.0
C994 C 0.15446 0.56959 0.93665 0.0
C995 C 0.22458 0.55196 0.9488 0.0
C996 C 0.15305 0.5441 0.91066 0.0
C997 C 0.05671 0.5835 0.9131 0.0
N998 N 0.20052 0.54669 0.93755 0.0
N999 N 0.08192 0.58408 0.9245 0.0
H1000 H 0.79274 0.68731 0.8471 0.0
H1001 H 0.72792 0.73212 0.9368 0.0
H1002 H 0.79151 0.57324 0.88834 0.0
H1003 H 0.70174 0.8498 0.89745 0.0
H1004 H 0.76106 0.67557 0.91848 0.0
H1005 H 0.77043 0.74943 0.86451 0.0
C1006 C 0.78903 0.67541 0.85977 0.0
C1007 C 0.79409 0.62517 0.86633 0.0
C1008 C 0.74815 0.71373 0.91377 0.0
C1009 C 0.76807 0.69542 0.88621 0.0
C1010 C 0.72904 0.7462 0.92428 0.0
C1011 C 0.7116 0.79593 0.91874 0.0
C1012 C 0.75014 0.73069 0.89745 0.0
C1013 C 0.71449 0.81173 0.9023 0.0
C1014 C 0.77576 0.71075 0.8697 0.0
C1015 C 0.78793 0.61162 0.88281 0.0
N1016 N 0.73328 0.77922 0.89223 0.0
N1017 N 0.77521 0.64633 0.89211 0.0
H1018 H 0.49178 0.43238 0.65523 0.0
H1019 H 0.75006 0.49178 0.65222 0.0
H1020 H 0.545 0.44542 0.69618 0.0
H1021 H 0.69347 0.48974 0.61087 0.0
H1022 H 0.67989 0.46335 0.66879 0.0
H1023 H 0.56824 0.4446 0.63908 0.0
C1024 C 0.51941 0.43788 0.66085 0.0
C1025 C 0.51145 0.43823 0.67714 0.0
C1026 C 0.68328 0.46782 0.6561 0.0
C1027 C 0.59986 0.45175 0.65863 0.0
C1028 C 0.72386 0.48314 0.64664 0.0
C1029 C 0.72842 0.49154 0.63014 0.0
C1030 C 0.64643 0.46154 0.64902 0.0
C1031 C 0.6921 0.4822 0.62354 0.0
C1032 C 0.56325 0.4447 0.65161 0.0
C1033 C 0.54906 0.44523 0.68369 0.0
N1034 N 0.65264 0.46812 0.63295 0.0
N1035 N 0.59133 0.45175 0.67446 0.0
H1036 H 0.79872 0.20611 0.42241 0.0
H1037 H 0.6707 0.48681 0.39868 0.0
H1038 H 0.72572 0.29043 0.45839 0.0
H1039 H 0.69217 0.37718 0.36961 0.0
H1040 H 0.7027 0.42228 0.41982 0.0
H1041 H 0.77194 0.27464 0.4023 0.0
C1042 C 0.77718 0.23913 0.42617 0.0
C1043 C 0.76455 0.24193 0.4423 0.0
C1044 C 0.70088 0.4126 0.40873 0.0
C1045 C 0.73369 0.32202 0.41886 0.0
C1046 C 0.68317 0.44952 0.3966 0.0
C1047 C 0.67932 0.43755 0.38225 0.0
C1048 C 0.71558 0.36353 0.40637 0.0
C1049 C 0.69496 0.38829 0.38037 0.0
C1050 C 0.76174 0.27845 0.41457 0.0
C1051 C 0.73623 0.28621 0.44617 0.0
N1052 N 0.71246 0.35347 0.39216 0.0
N1053 N 0.72195 0.32454 0.43457 0.0
H1054 H 0.7441 0.42686 0.10598 0.0
H1055 H 0.98027 0.33886 0.14653 0.0
H1056 H 0.86124 0.31275 0.09336 0.0
H1057 H 0.85679 0.43454 0.16625 0.0
H1058 H 0.93873 0.33657 0.12535 0.0
H1059 H 0.78575 0.43762 0.1265 0.0
C1060 C 0.77857 0.40446 0.10738 0.0
C1061 C 0.79884 0.36858 0.09795 0.0
C1062 C 0.92058 0.35823 0.13427 0.0
C1063 C 0.84701 0.38088 0.12129 0.0
C1064 C 0.94458 0.35986 0.14638 0.0
C1065 C 0.92236 0.38694 0.15835 0.0
C1066 C 0.87368 0.38401 0.13389 0.0
C1067 C 0.87543 0.4126 0.15747 0.0
C1068 C 0.80234 0.41047 0.11914 0.0
C1069 C 0.84385 0.34072 0.10034 0.0
N1070 N 0.85276 0.41053 0.1455 0.0
N1071 N 0.86612 0.34741 0.11167 0.0
H1072 H 0.79944 0.6056 0.663 0.0
H1073 H 0.68868 0.88292 0.67386 0.0
H1074 H 0.75349 0.72268 0.62576 0.0
H1075 H 0.72276 0.76798 0.71299 0.0
H1076 H 0.70539 0.82194 0.65682 0.0
H1077 H 0.76733 0.66146 0.68198 0.0
C1078 C 0.7825 0.64293 0.6588 0.0
C1079 C 0.77951 0.65948 0.64269 0.0
C1080 C 0.70854 0.80959 0.66917 0.0
C1081 C 0.74243 0.72351 0.6644 0.0
C1082 C 0.6985 0.84447 0.67895 0.0
C1083 C 0.70369 0.83032 0.69488 0.0
C1084 C 0.72522 0.75999 0.67522 0.0
C1085 C 0.71755 0.78015 0.70081 0.0
C1086 C 0.76404 0.67475 0.66967 0.0
C1087 C 0.75699 0.70821 0.638 0.0
N1088 N 0.72851 0.74674 0.69092 0.0
N1089 N 0.73961 0.73835 0.64875 0.0
H1090 H 0.7811 0.00036 0.94576 0.0
H1091 H 0.96101 -0.00092 0.86365 0.0
H1092 H 0.76906 0.92932 0.90855 0.0
H1093 H 0.98771 0.05658 0.90195 0.0
H1094 H 0.88572 -0.01744 0.87909 0.0
H1095 H 0.8502 0.03172 0.92904 0.0
C1096 C 0.79183 -0.00697 0.93384 0.0
C1097 C 0.7685 0.96329 0.92836 0.0
C1098 C 0.90781 -0.0011 0.88418 0.0
C1099 C 0.84859 -0.00266 0.90939 0.0
C1100 C 0.95115 0.00836 0.87533 0.0
C1101 C 0.98138 0.02909 0.88146 0.0
C1102 C 0.8938 0.01011 0.89944 0.0
C1103 C 0.9659 0.04038 0.89671 0.0
C1104 C 0.83177 0.01022 0.9244 0.0
C1105 C 0.78528 0.95306 0.9131 0.0
N1106 N 0.92338 0.03063 0.90517 0.0
N1107 N 0.82411 0.96982 0.90423 0.0
H1108 H 0.80559 0.96446 0.16528 0.0
H1109 H 0.73221 0.25558 0.13497 0.0
H1110 H 0.83023 0.07732 0.18684 0.0
H1111 H 0.7492 0.1533 0.10348 0.0
H1112 H 0.75664 0.18758 0.15555 0.0
H1113 H 0.77366 0.0294 0.14415 0.0
C1114 C 0.80352 0.00271 0.16574 0.0
C1115 C 0.82052 0.01536 0.17792 0.0
C1116 C 0.75507 0.17968 0.14417 0.0
C1117 C 0.78421 0.08965 0.15387 0.0
C1118 C 0.74093 0.21875 0.13232 0.0
C1119 C 0.73861 0.21064 0.1173 0.0
C1120 C 0.76692 0.13125 0.14127 0.0
C1121 C 0.75065 0.16158 0.11481 0.0
C1122 C 0.78574 0.03973 0.15362 0.0
C1123 C 0.8176 0.0656 0.17776 0.0
N1124 N 0.76417 0.12377 0.12665 0.0
N1125 N 0.79987 0.10048 0.16607 0.0
H1126 H 0.77986 0.06664 0.44019 0.0
H1127 H 0.5281 0.03619 0.42372 0.0
H1128 H 0.66507 0.03759 0.47775 0.0
H1129 H 0.6455 0.06844 0.38743 0.0
H1130 H 0.57703 0.03286 0.44376 0.0
H1131 H 0.73197 0.06139 0.42107 0.0
C1132 C 0.74473 0.05831 0.44445 0.0
C1133 C 0.72678 0.05234 0.46066 0.0
C1134 C 0.59209 0.04045 0.4314 0.0
C1135 C 0.67049 0.04725 0.43858 0.0
C1136 C 0.56398 0.04273 0.41988 0.0
C1137 C 0.58231 0.05246 0.40366 0.0
C1138 C 0.63913 0.04804 0.42679 0.0
C1139 C 0.62956 0.05991 0.39965 0.0
C1140 C 0.71713 0.05563 0.43348 0.0
C1141 C 0.6807 0.04196 0.46542 0.0
N1142 N 0.65596 0.05761 0.41104 0.0
N1143 N 0.65406 0.04014 0.45444 0.0
H1144 H 0.23032 0.23155 0.43575 0.0
H1145 H 0.29042 0.18782 0.34598 0.0
H1146 H 0.19408 0.34676 0.39678 0.0
H1147 H 0.29702 0.07286 0.3869 0.0
H1148 H 0.26678 0.24934 0.36356 0.0
H1149 H 0.26511 0.17565 0.41729 0.0
C1150 C 0.22955 0.24524 0.42329 0.0
C1151 C 0.20877 0.2941 0.41789 0.0
C1152 C 0.27421 0.21064 0.36864 0.0
C1153 C 0.24928 0.22969 0.39646 0.0
C1154 C 0.2883 0.17567 0.35861 0.0
C1155 C 0.29605 0.12532 0.36503 0.0
C1156 C 0.26829 0.19487 0.38513 0.0
C1157 C 0.29163 0.11136 0.38148 0.0
C1158 C 0.2496 0.21316 0.41271 0.0
C1159 C 0.20931 0.30941 0.40153 0.0
N1160 N 0.278 0.14577 0.39091 0.0
N1161 N 0.22916 0.27736 0.3914 0.0
H1162 H 0.03859 0.95552 0.19722 0.0
H1163 H 0.21982 0.93604 0.11609 0.0
H1164 H 0.00995 0.89711 0.15942 0.0
H1165 H 0.24543 -0.00208 0.15358 0.0
H1166 H 0.14593 0.9162 0.13234 0.0
H1167 H 0.11582 0.96733 0.18192 0.0
C1168 C 0.04838 0.94518 0.18568 0.0
C1169 C 0.01718 0.92539 0.17965 0.0
C1170 C 0.16787 0.93367 0.1371 0.0
C1171 C 0.10669 0.93875 0.16193 0.0
C1172 C 0.21042 0.94471 0.12783 0.0
C1173 C 0.23922 0.96876 0.1334 0.0
C1174 C 0.15362 0.94671 0.15212 0.0
C1175 C 0.22465 -0.02072 0.14875 0.0
C1176 C 0.09277 0.95188 0.17694 0.0
C1177 C 0.03246 0.91264 0.1646 0.0
N1178 N 0.18293 0.96855 0.15747 0.0
N1179 N 0.07591 0.91956 0.15629 0.0
H1180 H 0.24637 0.94245 0.87361 0.0
H1181 H 0.19885 0.78235 0.96067 0.0
H1182 H 0.10663 0.94452 0.90081 0.0
H1183 H 0.31186 0.73193 0.92491 0.0
H1184 H 0.17213 0.85455 0.94115 0.0
H1185 H 0.27872 0.8784 0.89471 0.0
C1186 C 0.22275 0.93048 0.8842 0.0
C1187 C 0.17379 0.94913 0.88553 0.0
C1188 C 0.203 0.82782 0.93762 0.0
C1189 C 0.21037 0.87592 0.90964 0.0
C1190 C 0.21837 0.78663 0.94878 0.0
C1191 C 0.25757 0.75064 0.94447 0.0
C1192 C 0.22756 0.83396 0.92206 0.0
C1193 C 0.28126 0.75837 0.92879 0.0
C1194 C 0.24109 0.89355 0.89614 0.0
C1195 C 0.14463 0.93135 0.89936 0.0
N1196 N 0.26609 0.79909 0.91823 0.0
N1197 N 0.16326 0.89604 0.91085 0.0
H1198 H 0.48667 0.83096 0.6489 0.0
H1199 H 0.26008 0.93633 0.60413 0.0
H1200 H 0.37361 0.94567 0.66392 0.0
H1201 H 0.36531 0.80747 0.59614 0.0
H1202 H 0.30237 0.94628 0.62457 0.0
H1203 H 0.44474 0.82817 0.62788 0.0
C1204 C 0.45323 0.85599 0.64772 0.0
C1205 C 0.43395 0.8886 0.65832 0.0
C1206 C 0.31611 0.91594 0.61827 0.0
C1207 C 0.38482 0.88522 0.63409 0.0
C1208 C 0.29187 0.91025 0.60661 0.0
C1209 C 0.30862 0.87068 0.59846 0.0
C1210 C 0.35775 0.88219 0.62162 0.0
C1211 C 0.35065 0.83847 0.60208 0.0
C1212 C 0.42898 0.85413 0.63572 0.0
C1213 C 0.38979 0.91946 0.6562 0.0
N1214 N 0.37347 0.8449 0.61329 0.0
N1215 N 0.36681 0.91704 0.64437 0.0
H1216 H 0.1406 0.08919 0.03111 0.0
H1217 H 0.1933 0.19068 0.93858 0.0
H1218 H 0.25017 0.17303 1.00928 0.0
H1219 H 0.10364 0.08374 0.9588 0.0
H1220 H 0.21038 0.18879 0.96474 0.0
H1221 H 0.12258 0.09063 1.00499 0.0
C1222 C 0.16071 0.10806 1.0208 0.0
C1223 C 0.19685 0.13114 1.02231 0.0
C1224 C 0.18698 0.1657 0.96349 0.0
C1225 C 0.17662 0.13276 0.99249 0.0
C1226 C 0.17692 0.16705 0.94858 0.0
C1227 C 0.14675 0.13755 0.94657 0.0
C1228 C 0.16658 0.13477 0.97652 0.0
C1229 C 0.12725 0.10688 0.95986 0.0
C1230 C 0.15062 0.10861 1.00592 0.0
C1231 C 0.22229 0.15448 1.00861 0.0
N1232 N 0.13737 0.1064 0.97432 0.0
N1233 N 0.21154 0.15487 0.99426 0.0
H1234 H 0.70339 0.35723 0.18542 0.0
H1235 H 0.64248 0.5344 0.24826 0.0
H1236 H 0.66596 0.51522 0.1732 0.0
H1237 H 0.70078 0.37943 0.25913 0.0
H1238 H 0.65753 0.52924 0.22032 0.0
H1239 H 0.71024 0.3654 0.21188 0.0
C1240 C 0.69747 0.39371 0.18819 0.0
C1241 C 0.68333 0.43557 0.17713 0.0
C1242 C 0.66749 0.49644 0.2288 0.0
C1243 C 0.69009 0.44512 0.20754 0.0
C1244 C 0.65908 0.49942 0.24477 0.0
C1245 C 0.66984 0.45715 0.25609 0.0
C1246 C 0.6865 0.45081 0.22411 0.0
C1247 C 0.69086 0.41272 0.25085 0.0
C1248 C 0.70107 0.39833 0.20336 0.0
C1249 C 0.67575 0.48186 0.18148 0.0
N1250 N 0.69807 0.41061 0.23526 0.0
N1251 N 0.67861 0.48536 0.1964 0.0
H1252 H 0.23444 0.84486 0.47177 0.0
H1253 H 0.40341 0.97501 0.39905 0.0
H1254 H 0.37171 0.86876 0.47569 0.0
H1255 H 0.28292 0.91885 0.39392 0.0
H1256 H 0.39012 0.94172 0.42742 0.0
H1257 H 0.24886 0.8779 0.44347 0.0
C1258 C 0.26756 0.85715 0.46669 0.0
C1259 C 0.30198 0.85373 0.47614 0.0
C1260 C 0.36675 0.93659 0.42004 0.0
C1261 C 0.31879 0.89177 0.4437 0.0
C1262 C 0.37432 0.9556 0.40384 0.0
C1263 C 0.34441 0.94962 0.39401 0.0
C1264 C 0.32867 0.91191 0.42651 0.0
C1265 C 0.30712 0.92425 0.40095 0.0
C1266 C 0.27591 0.8758 0.45052 0.0
C1267 C 0.34443 0.87 0.46885 0.0
N1268 N 0.30025 0.90659 0.41672 0.0
N1269 N 0.35155 0.88844 0.45311 0.0
H1270 H 0.81061 0.52189 0.71773 0.0
H1271 H 0.946 0.55528 0.78548 0.0
H1272 H 0.96161 0.51709 0.71012 0.0
H1273 H 0.79818 0.54641 0.79214 0.0
H1274 H 0.95273 0.54833 0.75749 0.0
H1275 H 0.80597 0.53597 0.74445 0.0
C1276 C 0.84304 0.5234 0.72159 0.0
C1277 C 0.88667 0.51776 0.7113 0.0
C1278 C 0.91871 0.54848 0.76506 0.0
C1279 C 0.88128 0.53514 0.74248 0.0
C1280 C 0.91474 0.55306 0.78105 0.0
C1281 C 0.87133 0.5519 0.79135 0.0
C1282 C 0.87896 0.5429 0.75921 0.0
C1283 C 0.83244 0.54767 0.78481 0.0
C1284 C 0.84024 0.53193 0.73697 0.0
C1285 C 0.92692 0.52159 0.7173 0.0
N1286 N 0.83721 0.54328 0.76939 0.0
N1287 N 0.92326 0.52983 0.73236 0.0
H1288 H 0.81849 0.90894 0.10942 0.0
H1289 H 0.85191 0.75911 0.03998 0.0
H1290 H 0.91805 0.77268 0.10634 0.0
H1291 H 0.76541 0.90399 0.03969 0.0
H1292 H 0.88072 0.76641 0.06334 0.0
H1293 H 0.80345 0.91153 0.08289 0.0
C1294 C 0.83787 0.88005 0.10305 0.0
C1295 C 0.86915 0.84021 0.11017 0.0
C1296 C 0.85572 0.79681 0.05811 0.0
C1297 C 0.8514 0.84242 0.07995 0.0
C1298 C 0.83937 0.79274 0.04471 0.0
C1299 C 0.80595 0.8309 0.03789 0.0
C1300 C 0.83829 0.83917 0.06486 0.0
C1301 C 0.79046 0.87327 0.04472 0.0
C1302 C 0.82901 0.88136 0.08794 0.0
C1303 C 0.8929 0.80354 0.10141 0.0
N1304 N 0.80651 0.87613 0.0579 0.0
N1305 N 0.88315 0.80527 0.08683 0.0
H1306 H 0.34662 0.43512 0.88905 0.0
H1307 H 0.28805 0.55712 0.80283 0.0
H1308 H 0.29554 0.59015 0.87423 0.0
H1309 H 0.36941 0.41112 0.81458 0.0
H1310 H 0.2728 0.56398 0.83066 0.0
H1311 H 0.33729 0.42058 0.86356 0.0
C1312 C 0.33308 0.46606 0.88048 0.0
C1313 C 0.32286 0.5141 0.88364 0.0
C1314 C 0.29352 0.53024 0.82717 0.0
C1315 C 0.3116 0.49757 0.85457 0.0
C1316 C 0.30241 0.52636 0.8113 0.0
C1317 C 0.33088 0.48387 0.80636 0.0
C1318 C 0.31326 0.49136 0.8382 0.0
C1319 C 0.34744 0.4446 0.81787 0.0
C1320 C 0.32757 0.45767 0.86598 0.0
C1321 C 0.30402 0.55256 0.87231 0.0
N1322 N 0.3389 0.44954 0.83325 0.0
N1323 N 0.29957 0.54353 0.85818 0.0
H1324 H 0.70896 0.0449 0.66428 0.0
H1325 H 0.62342 0.05527 0.58213 0.0
H1326 H 0.60157 0.96708 0.66079 0.0
H1327 H 0.7429 0.11435 0.58642 0.0
H1328 H 0.61102 0.02666 0.6108 0.0
H1329 H 0.71769 0.07438 0.63594 0.0
C1330 C 0.68693 0.03407 0.6576 0.0
C1331 C 0.65437 0.0033 0.6651 0.0
C1332 C 0.63996 0.04586 0.60546 0.0
C1333 C 0.6645 0.03733 0.63222 0.0
C1334 C 0.64694 0.0625 0.58907 0.0
C1335 C 0.68442 0.0873 0.58171 0.0
C1336 C 0.67037 0.05435 0.61468 0.0
C1337 C 0.71397 0.09491 0.59141 0.0
C1338 C 0.6921 0.05095 0.64132 0.0
C1339 C 0.62705 -0.00924 0.65561 0.0
N1340 N 0.70624 0.07869 0.60729 0.0
N1341 N 0.63272 0.00779 0.6397 0.0
H1342 H 0.17778 0.44971 0.34039 0.0
H1343 H 0.04653 0.39805 0.27462 0.0
H1344 H 0.03245 0.42912 0.35075 0.0
H1345 H 0.19339 0.4111 0.26766 0.0
H1346 H 0.03962 0.40577 0.30255 0.0
H1347 H 0.18304 0.43314 0.31398 0.0
C1348 C 0.14692 0.4413 0.33728 0.0
C1349 C 0.10459 0.44093 0.34819 0.0
C1350 C 0.07347 0.40637 0.29492 0.0
C1351 C 0.11032 0.42232 0.3172 0.0
C1352 C 0.07753 0.40142 0.27897 0.0
C1353 C 0.12069 0.40363 0.26861 0.0
C1354 C 0.11281 0.41363 0.30061 0.0
C1355 C 0.15928 0.40917 0.27503 0.0
C1356 C 0.14991 0.43207 0.322 0.0
C1357 C 0.06579 0.4307 0.34291 0.0
N1358 N 0.15435 0.41414 0.29038 0.0
N1359 N 0.06956 0.42195 0.32792 0.0
H1360 H 0.66978 0.54899 0.45185 0.0
H1361 H 0.64869 0.70797 0.51825 0.0
H1362 H 0.58334 0.69372 0.45179 0.0
H1363 H 0.72482 0.55811 0.52096 0.0
H1364 H 0.62 0.70101 0.49481 0.0
H1365 H 0.68508 0.54857 0.47821 0.0
C1366 C 0.6533 0.58029 0.45751 0.0
C1367 C 0.62567 0.62169 0.44956 0.0
C1368 C 0.64273 0.6695 0.50058 0.0
C1369 C 0.64375 0.62187 0.47955 0.0
C1370 C 0.65899 0.67339 0.51402 0.0
C1371 C 0.68939 0.63362 0.52156 0.0
C1372 C 0.65716 0.62563 0.49454 0.0
C1373 C 0.70212 0.58999 0.51537 0.0
C1374 C 0.66234 0.5802 0.4725 0.0
C1375 C 0.60561 0.66144 0.45738 0.0
N1376 N 0.68615 0.58725 0.50216 0.0
N1377 N 0.61542 0.66074 0.47187 0.0
H1378 H 0.22008 0.91681 0.67903 0.0
H1379 H 0.07076 0.01497 0.75625 0.0
H1380 H 0.07353 -0.00924 0.68262 0.0
H1381 H 0.20608 0.91598 0.75596 0.0
H1382 H 0.07455 0.01298 0.7284 0.0
H1383 H 0.21855 0.92154 0.70657 0.0
C1384 C 0.18757 0.93391 0.68561 0.0
C1385 C 0.14689 0.95349 0.67849 0.0
C1386 C 0.10347 -0.00826 0.73441 0.0
C1387 C 0.14512 0.95955 0.70989 0.0
C1388 C 0.10146 -0.00685 0.75027 0.0
C1389 C 0.13817 0.96559 0.75838 0.0
C1390 C 0.14259 0.96278 0.7266 0.0
C1391 C 0.17683 0.93737 0.75014 0.0
C1392 C 0.1868 0.93678 0.70129 0.0
C1393 C 0.10597 0.9759 0.68752 0.0
N1394 N 0.17808 0.93672 0.73467 0.0
N1395 N 0.10615 0.97832 0.70274 0.0
H1396 H 0.87945 0.50391 0.8996 0.0
H1397 H 0.77874 0.29819 0.96834 0.0
H1398 H 0.8148 0.39086 0.89147 0.0
H1399 H 0.82093 0.42423 0.97763 0.0
H1400 H 0.7981 0.32824 0.94004 0.0
H1401 H 0.86513 0.47173 0.92806 0.0
C1402 C 0.86275 0.47206 0.90375 0.0
C1403 C 0.84831 0.45016 0.89307 0.0
C1404 C 0.80312 0.3494 0.94825 0.0
C1405 C 0.83156 0.41324 0.92566 0.0
C1406 C 0.79224 0.3321 0.96445 0.0
C1407 C 0.79803 0.35868 0.97547 0.0
C1408 C 0.82035 0.39356 0.9429 0.0
C1409 C 0.81523 0.40277 0.96962 0.0
C1410 C 0.85429 0.45388 0.92002 0.0
C1411 C 0.82642 0.40917 0.8992 0.0
N1412 N 0.82587 0.41871 0.95378 0.0
N1413 N 0.81875 0.39216 0.91502 0.0
H1414 H 0.45609 0.05802 0.28658 0.0
H1415 H 0.33569 0.00014 0.21913 0.0
H1416 H 0.3119 0.03725 0.2922 0.0
H1417 H 0.47626 0.03426 0.20901 0.0
H1418 H 0.3283 0.0145 0.24587 0.0
H1419 H 0.46591 0.05166 0.25837 0.0
C1420 C 0.42626 0.05316 0.2819 0.0
C1421 C 0.383 0.04838 0.29199 0.0
C1422 C 0.36086 0.01905 0.23784 0.0
C1423 C 0.3943 0.03992 0.25965 0.0
C1424 C 0.36506 0.01111 0.22235 0.0
C1425 C 0.40663 0.01612 0.21135 0.0
C1426 C 0.39847 0.03208 0.24283 0.0
C1427 C 0.44357 0.02923 0.21686 0.0
C1428 C 0.43201 0.04901 0.26579 0.0
C1429 C 0.34604 0.0411 0.28511 0.0
N1430 N 0.43866 0.03665 0.23208 0.0
N1431 N 0.35261 0.03692 0.26963 0.0
H1432 H 0.35051 0.38476 0.60577 0.0
H1433 H 0.17671 0.31737 0.5577 0.0
H1434 H 0.2177 0.33941 0.62741 0.0
H1435 H 0.30937 0.36361 0.53646 0.0
H1436 H 0.18711 0.33272 0.58301 0.0
H1437 H 0.33171 0.38567 0.5799 0.0
C1438 C 0.31703 0.37575 0.60507 0.0
C1439 C 0.28583 0.36151 0.61876 0.0
C1440 C 0.21382 0.33971 0.57279 0.0
C1441 C 0.26447 0.36154 0.58921 0.0
C1442 C 0.20783 0.33108 0.55835 0.0
C1443 C 0.24255 0.3386 0.54503 0.0
C1444 C 0.25479 0.35601 0.57388 0.0
C1445 C 0.28227 0.35624 0.54652 0.0
C1446 C 0.30646 0.37591 0.59029 0.0
C1447 C 0.24318 0.34967 0.61715 0.0
N1448 N 0.28742 0.36409 0.5607 0.0
N1449 N 0.23393 0.34955 0.60264 0.0
H1450 H 0.87219 0.96068 0.38461 0.0
H1451 H 0.85156 0.08804 0.29547 0.0
H1452 H 0.85979 0.11685 0.36769 0.0
H1453 H 0.85093 0.93381 0.31316 0.0
H1454 H 0.85007 0.09993 0.32217 0.0
H1455 H 0.86077 0.95049 0.35883 0.0
C1456 C 0.86702 -0.00717 0.37545 0.0
C1457 C 0.86742 0.03962 0.3782 0.0
C1458 C 0.84989 0.06354 0.32025 0.0
C1459 C 0.8541 0.02832 0.34874 0.0
C1460 C 0.85044 0.05675 0.305 0.0
C1461 C 0.85146 0.00979 0.30206 0.0
C1462 C 0.85072 0.02304 0.33266 0.0
C1463 C 0.8509 0.97049 0.31485 0.0
C1464 C 0.86024 -0.01296 0.36077 0.0
C1465 C 0.8596 0.08016 0.36605 0.0
N1466 N 0.85083 0.97795 0.3296 0.0
N1467 N 0.85365 0.07351 0.35179 0.0
H1468 H 0.09505 0.46591 0.16171 0.0
H1469 H 0.25247 0.61135 0.08903 0.0
H1470 H 0.20268 0.54101 0.16681 0.0
H1471 H 0.12864 0.56093 0.08402 0.0
H1472 H 0.2375 0.58072 0.11745 0.0
H1473 H 0.10865 0.49636 0.13315 0.0
C1474 C 0.1213 0.48896 0.15688 0.0
C1475 C 0.14762 0.50092 0.16676 0.0
C1476 C 0.21353 0.57638 0.11014 0.0
C1477 C 0.16377 0.53542 0.13404 0.0
C1478 C 0.22228 0.59359 0.09388 0.0
C1479 C 0.19172 0.58894 0.08408 0.0
C1480 C 0.17412 0.55384 0.11673 0.0
C1481 C 0.15282 0.56597 0.09112 0.0
C1482 C 0.1291 0.50628 0.14056 0.0
C1483 C 0.18135 0.5308 0.15975 0.0
N1484 N 0.14521 0.54922 0.10697 0.0
N1485 N 0.18853 0.54675 0.14389 0.0
H1486 H 0.54115 0.92955 0.85123 0.0
H1487 H 0.70351 0.92647 0.7658 0.0
H1488 H 0.68372 0.95827 0.83957 0.0
H1489 H 0.56015 0.90088 0.77452 0.0
H1490 H 0.69638 0.9336 0.79324 0.0
H1491 H 0.54687 0.91532 0.82426 0.0
C1492 C 0.57385 0.93264 0.84314 0.0
C1493 C 0.61198 0.94542 0.84802 0.0
C1494 C 0.66638 0.92607 0.78932 0.0
C1495 C 0.61853 0.92917 0.81664 0.0
C1496 C 0.67043 0.92173 0.77351 0.0
C1497 C 0.63243 0.91283 0.76755 0.0
C1498 C 0.62377 0.92181 0.79971 0.0
C1499 C 0.59068 0.90721 0.77843 0.0
C1500 C 0.57691 0.92468 0.82761 0.0
C1501 C 0.65291 0.94938 0.8366 0.0
N1502 N 0.58739 0.91207 0.79388 0.0
N1503 N 0.65497 0.94133 0.82166 0.0
loop_
_geom_bond_atom_site_label_1
_geom_bond_atom_site_label_2
_geom_bond_distance
_geom_bond_site_symmetry_2
_ccdc_geom_bond_type
Nd0 C2 2.836 . S
Nd0 O20 2.500 . S
Nd0 O21 2.492 . S
Nd0 O22 2.487 . S
Nd0 O23 2.682 . S
Nd0 O24 2.410 . S
Nd0 O29 2.414 . S
Nd0 O31 2.424 . S
Nd1 C11 2.836 . S
Nd1 O23 2.414 . S
Nd1 O25 2.424 . S
Nd1 O26 2.500 . S
Nd1 O27 2.492 . S
Nd1 O28 2.487 . S
Nd1 O29 2.682 . S
Nd1 O30 2.410 . S
C2 Nd0 2.836 . S
C2 C3 1.498 . S
C2 O20 1.258 . S
C2 O21 1.239 . S
C3 C2 1.498 . S
C3 C4 1.366 . S
C3 C8 1.407 . S
C4 C3 1.366 . S
C4 C5 1.392 . S
C4 H32 0.930 . S
C5 C4 1.392 . S
C5 C6 1.398 . S
C5 H33 0.929 . S
C6 C5 1.398 . S
C6 C7 1.352 . S
C7 C6 1.352 . S
C7 C8 1.384 . S
C7 H34 0.930 . S
C8 C3 1.407 . S
C8 C7 1.384 . S
C8 H35 0.929 . S
C9 O22 1.241 . S
C9 O23 1.273 . S
C10 O24 1.251 . S
C10 O25 1.268 . S
C11 Nd1 2.836 . S
C11 C12 1.498 . S
C11 O26 1.258 . S
C11 O27 1.239 . S
C12 C11 1.498 . S
C12 C13 1.366 . S
C12 C17 1.407 . S
C13 C12 1.366 . S
C13 C14 1.394 1_554 S
C13 H36 0.930 . S
C14 C13 1.394 1_556 S
C14 C15 1.398 . S
C14 H37 0.929 . S
C15 C14 1.398 . S
C15 C16 1.352 1_556 S
C16 C15 1.352 1_554 S
C16 C17 1.384 . S
C16 H38 0.930 . S
C17 C12 1.407 . S
C17 C16 1.384 . S
C17 H39 0.929 . S
C18 O28 1.241 . S
C18 O29 1.273 . S
C19 O30 1.251 . S
C19 O31 1.268 . S
O20 Nd0 2.500 . S
O20 C2 1.258 . S
O21 Nd0 2.492 . S
O21 C2 1.239 . S
O22 Nd0 2.487 . S
O22 C9 1.241 . S
O23 Nd0 2.682 . S
O23 Nd1 2.414 . S
O23 C9 1.273 . S
O24 Nd0 2.410 . S
O24 C10 1.251 . S
O25 Nd1 2.424 . S
O25 C10 1.268 . S
O26 Nd1 2.500 . S
O26 C11 1.258 . S
O27 Nd1 2.492 . S
O27 C11 1.239 . S
O28 Nd1 2.487 . S
O28 C18 1.241 . S
O29 Nd0 2.414 . S
O29 Nd1 2.682 . S
O29 C18 1.273 . S
O30 Nd1 2.410 . S
O30 C19 1.251 . S
O31 Nd0 2.424 . S
O31 C19 1.268 . S
H32 C4 0.930 . S
H33 C5 0.929 . S
H34 C7 0.930 . S
H35 C8 0.929 . S
H36 C13 0.930 . S
H37 C14 0.929 . S
H38 C16 0.930 . S
H39 C17 0.929 . S
Nd40 C42 2.836 . S
Nd40 O60 2.500 . S
Nd40 O61 2.492 . S
Nd40 O62 2.487 . S
Nd40 O63 2.682 . S
Nd40 O64 2.410 . S
Nd40 O69 2.414 . S
Nd40 O71 2.424 . S
Nd41 C51 2.836 . S
Nd41 O63 2.414 . S
Nd41 O65 2.424 . S
Nd41 O66 2.500 . S
Nd41 O67 2.492 . S
Nd41 O68 2.487 . S
Nd41 O69 2.682 . S
Nd41 O70 2.410 . S
C42 Nd40 2.836 . S
C42 C43 1.498 . S
C42 O60 1.258 . S
C42 O61 1.239 . S
C43 C42 1.498 . S
C43 C44 1.366 . S
C43 C48 1.407 . S
C44 C43 1.366 . S
C44 C45 1.392 . S
C44 H72 0.930 . S
C45 C44 1.392 . S
C45 C46 1.398 . S
C45 H73 0.929 . S
C46 C45 1.398 . S
C46 C47 1.352 . S
C47 C46 1.352 . S
C47 C48 1.384 . S
C47 H74 0.930 . S
C48 C43 1.407 . S
C48 C47 1.384 . S
C48 H75 0.929 . S
C49 O62 1.241 . S
C49 O63 1.273 . S
C50 O64 1.251 . S
C50 O65 1.268 . S
C51 Nd41 2.836 . S
C51 C52 1.498 . S
C51 O66 1.258 . S
C51 O67 1.239 . S
C52 C51 1.498 . S
C52 C53 1.366 . S
C52 C57 1.407 . S
C53 C52 1.366 . S
C53 C54 1.392 . S
C53 H76 0.930 . S
C54 C53 1.392 . S
C54 C55 1.398 . S
C54 H77 0.929 . S
C55 C54 1.398 . S
C55 C56 1.352 . S
C56 C55 1.352 . S
C56 C57 1.384 . S
C56 H78 0.930 . S
C57 C52 1.407 . S
C57 C56 1.384 . S
C57 H79 0.929 . S
C58 O68 1.241 . S
C58 O69 1.273 . S
C59 O70 1.251 . S
C59 O71 1.268 . S
O60 Nd40 2.500 . S
O60 C42 1.258 . S
O61 Nd40 2.492 . S
O61 C42 1.239 . S
O62 Nd40 2.487 . S
O62 C49 1.241 . S
O63 Nd40 2.682 . S
O63 Nd41 2.414 . S
O63 C49 1.273 . S
O64 Nd40 2.410 . S
O64 C50 1.251 . S
O65 Nd41 2.424 . S
O65 C50 1.268 . S
O66 Nd41 2.500 . S
O66 C51 1.258 . S
O67 Nd41 2.492 . S
O67 C51 1.239 . S
O68 Nd41 2.487 . S
O68 C58 1.241 . S
O69 Nd40 2.414 . S
O69 Nd41 2.682 . S
O69 C58 1.273 . S
O70 Nd41 2.410 . S
O70 C59 1.251 . S
O71 Nd40 2.424 . S
O71 C59 1.268 . S
H72 C44 0.930 . S
H73 C45 0.929 . S
H74 C47 0.930 . S
H75 C48 0.929 . S
H76 C53 0.930 . S
H77 C54 0.929 . S
H78 C56 0.930 . S
H79 C57 0.929 . S
Nd80 C82 2.836 . S
Nd80 O100 2.500 . S
Nd80 O101 2.492 . S
Nd80 O102 2.487 . S
Nd80 O103 2.682 . S
Nd80 O104 2.410 . S
Nd80 O109 2.414 . S
Nd80 O111 2.424 . S
Nd81 C91 2.836 . S
Nd81 O103 2.414 . S
Nd81 O105 2.424 . S
Nd81 O106 2.500 . S
Nd81 O107 2.492 . S
Nd81 O108 2.487 . S
Nd81 O109 2.682 . S
Nd81 O110 2.410 . S
C82 Nd80 2.836 . S
C82 C83 1.498 . S
C82 O100 1.258 . S
C82 O101 1.239 . S
C83 C82 1.498 . S
C83 C84 1.366 . S
C83 C88 1.407 . S
C84 C83 1.366 . S
C84 C85 1.392 . S
C84 H112 0.930 . S
C85 C84 1.392 . S
C85 C86 1.398 . S
C85 H113 0.929 . S
C86 C85 1.398 . S
C86 C87 1.352 . S
C87 C86 1.352 . S
C87 C88 1.384 . S
C87 H114 0.930 . S
C88 C83 1.407 . S
C88 C87 1.384 . S
C88 H115 0.929 . S
C89 O102 1.241 . S
C89 O103 1.273 . S
C90 O104 1.251 . S
C90 O105 1.268 . S
C91 Nd81 2.836 . S
C91 C92 1.498 . S
C91 O106 1.258 . S
C91 O107 1.239 . S
C92 C91 1.498 . S
C92 C93 1.366 . S
C92 C97 1.407 . S
C93 C92 1.366 . S
C93 C94 1.392 . S
C93 H116 0.930 . S
C94 C93 1.392 . S
C94 C95 1.398 . S
C94 H117 0.929 . S
C95 C94 1.398 . S
C95 C96 1.352 . S
C96 C95 1.352 . S
C96 C97 1.384 . S
C96 H118 0.930 . S
C97 C92 1.407 . S
C97 C96 1.384 . S
C97 H119 0.929 . S
C98 O108 1.241 . S
C98 O109 1.273 . S
C99 O110 1.251 . S
C99 O111 1.268 . S
O100 Nd80 2.500 . S
O100 C82 1.258 . S
O101 Nd80 2.492 . S
O101 C82 1.239 . S
O102 Nd80 2.487 . S
O102 C89 1.241 . S
O103 Nd80 2.682 . S
O103 Nd81 2.414 . S
O103 C89 1.273 . S
O104 Nd80 2.410 . S
O104 C90 1.251 . S
O105 Nd81 2.424 . S
O105 C90 1.268 . S
O106 Nd81 2.500 . S
O106 C91 1.258 . S
O107 Nd81 2.492 . S
O107 C91 1.239 . S
O108 Nd81 2.487 . S
O108 C98 1.241 . S
O109 Nd80 2.414 . S
O109 Nd81 2.682 . S
O109 C98 1.273 . S
O110 Nd81 2.410 . S
O110 C99 1.251 . S
O111 Nd80 2.424 . S
O111 C99 1.268 . S
H112 C84 0.930 . S
H113 C85 0.929 . S
H114 C87 0.930 . S
H115 C88 0.929 . S
H116 C93 0.930 . S
H117 C94 0.929 . S
H118 C96 0.930 . S
H119 C97 0.929 . S
Nd120 C122 2.836 . S
Nd120 O140 2.500 . S
Nd120 O141 2.492 . S
Nd120 O142 2.487 . S
Nd120 O143 2.682 . S
Nd120 O144 2.410 . S
Nd120 O149 2.414 . S
Nd120 O151 2.424 . S
Nd121 C131 2.836 1_655 S
Nd121 O143 2.414 . S
Nd121 O145 2.424 . S
Nd121 O146 2.500 . S
Nd121 O147 2.492 1_655 S
Nd121 O148 2.487 1_655 S
Nd121 O149 2.682 . S
Nd121 O150 2.410 . S
C122 Nd120 2.836 . S
C122 C123 1.498 . S
C122 O140 1.258 . S
C122 O141 1.239 . S
C123 C122 1.498 . S
C123 C124 1.366 . S
C123 C128 1.407 . S
C124 C123 1.366 . S
C124 C125 1.392 . S
C124 H152 0.930 . S
C125 C124 1.392 . S
C125 C126 1.398 . S
C125 H153 0.929 . S
C126 C125 1.398 . S
C126 C127 1.352 . S
C127 C126 1.352 . S
C127 C128 1.384 . S
C127 H154 0.930 . S
C128 C123 1.407 . S
C128 C127 1.384 . S
C128 H155 0.929 . S
C129 O142 1.241 . S
C129 O143 1.273 . S
C130 O144 1.251 . S
C130 O145 1.268 . S
C131 Nd121 2.836 1_455 S
C131 C132 1.498 . S
C131 O146 1.258 1_455 S
C131 O147 1.239 . S
C132 C131 1.498 . S
C132 C133 1.366 . S
C132 C137 1.407 . S
C133 C132 1.366 . S
C133 C134 1.392 . S
C133 H156 0.930 1_455 S
C134 C133 1.392 . S
C134 C135 1.398 . S
C134 H157 0.929 . S
C135 C134 1.398 . S
C135 C136 1.352 . S
C136 C135 1.352 . S
C136 C137 1.384 . S
C136 H158 0.930 . S
C137 C132 1.407 . S
C137 C136 1.384 . S
C137 H159 0.929 . S
C138 O148 1.241 1_655 S
C138 O149 1.273 . S
C139 O150 1.251 . S
C139 O151 1.268 . S
O140 Nd120 2.500 . S
O140 C122 1.258 . S
O141 Nd120 2.492 . S
O141 C122 1.239 . S
O142 Nd120 2.487 . S
O142 C129 1.241 . S
O143 Nd120 2.682 . S
O143 Nd121 2.414 . S
O143 C129 1.273 . S
O144 Nd120 2.410 . S
O144 C130 1.251 . S
O145 Nd121 2.424 . S
O145 C130 1.268 . S
O146 Nd121 2.500 . S
O146 C131 1.258 1_655 S
O147 Nd121 2.492 1_455 S
O147 C131 1.239 . S
O148 Nd121 2.487 1_455 S
O148 C138 1.241 1_455 S
O149 Nd120 2.414 . S
O149 Nd121 2.682 . S
O149 C138 1.273 . S
O150 Nd121 2.410 . S
O150 C139 1.251 . S
O151 Nd120 2.424 . S
O151 C139 1.268 . S
H152 C124 0.930 . S
H153 C125 0.929 . S
H154 C127 0.930 . S
H155 C128 0.929 . S
H156 C133 0.930 1_655 S
H157 C134 0.929 . S
H158 C136 0.930 . S
H159 C137 0.929 . S
Nd160 C162 2.836 . S
Nd160 O180 2.500 . S
Nd160 O181 2.492 . S
Nd160 O182 2.487 . S
Nd160 O183 2.682 . S
Nd160 O184 2.410 . S
Nd160 O189 2.414 . S
Nd160 O191 2.424 . S
Nd161 C171 2.836 . S
Nd161 O183 2.414 . S
Nd161 O185 2.424 . S
Nd161 O186 2.500 . S
Nd161 O187 2.492 . S
Nd161 O188 2.487 . S
Nd161 O189 2.682 . S
Nd161 O190 2.410 . S
C162 Nd160 2.836 . S
C162 C163 1.498 . S
C162 O180 1.258 . S
C162 O181 1.239 . S
C163 C162 1.498 . S
C163 C164 1.366 . S
C163 C168 1.407 . S
C164 C163 1.366 . S
C164 C165 1.393 1_556 S
C164 H192 0.930 . S
C165 C164 1.393 1_554 S
C165 C166 1.398 . S
C165 H193 0.929 . S
C166 C165 1.398 . S
C166 C167 1.352 1_554 S
C167 C166 1.352 1_556 S
C167 C168 1.384 . S
C167 H194 0.930 . S
C168 C163 1.407 . S
C168 C167 1.384 . S
C168 H195 0.929 . S
C169 O182 1.241 . S
C169 O183 1.273 . S
C170 O184 1.251 . S
C170 O185 1.268 . S
C171 Nd161 2.836 . S
C171 C172 1.498 . S
C171 O186 1.258 . S
C171 O187 1.239 . S
C172 C171 1.498 . S
C172 C173 1.366 . S
C172 C177 1.407 . S
C173 C172 1.366 . S
C173 C174 1.392 . S
C173 H196 0.930 . S
C174 C173 1.392 . S
C174 C175 1.398 . S
C174 H197 0.929 . S
C175 C174 1.398 . S
C175 C176 1.352 . S
C176 C175 1.352 . S
C176 C177 1.384 . S
C176 H198 0.930 . S
C177 C172 1.407 . S
C177 C176 1.384 . S
C177 H199 0.929 . S
C178 O188 1.241 . S
C178 O189 1.273 . S
C179 O190 1.251 . S
C179 O191 1.268 . S
O180 Nd160 2.500 . S
O180 C162 1.258 . S
O181 Nd160 2.492 . S
O181 C162 1.239 . S
O182 Nd160 2.487 . S
O182 C169 1.241 . S
O183 Nd160 2.682 . S
O183 Nd161 2.414 . S
O183 C169 1.273 . S
O184 Nd160 2.410 . S
O184 C170 1.251 . S
O185 Nd161 2.424 . S
O185 C170 1.268 . S
O186 Nd161 2.500 . S
O186 C171 1.258 . S
O187 Nd161 2.492 . S
O187 C171 1.239 . S
O188 Nd161 2.487 . S
O188 C178 1.241 . S
O189 Nd160 2.414 . S
O189 Nd161 2.682 . S
O189 C178 1.273 . S
O190 Nd161 2.410 . S
O190 C179 1.251 . S
O191 Nd160 2.424 . S
O191 C179 1.268 . S
H192 C164 0.930 . S
H193 C165 0.929 . S
H194 C167 0.930 . S
H195 C168 0.929 . S
H196 C173 0.930 . S
H197 C174 0.929 . S
H198 C176 0.930 . S
H199 C177 0.929 . S
Nd200 C202 2.836 . S
Nd200 O220 2.500 . S
Nd200 O221 2.492 . S
Nd200 O222 2.487 . S
Nd200 O223 2.682 . S
Nd200 O224 2.410 . S
Nd200 O229 2.414 . S
Nd200 O231 2.424 . S
Nd201 C211 2.836 . S
Nd201 O223 2.414 . S
Nd201 O225 2.424 . S
Nd201 O226 2.500 . S
Nd201 O227 2.492 . S
Nd201 O228 2.487 . S
Nd201 O229 2.682 . S
Nd201 O230 2.410 . S
C202 Nd200 2.836 . S
C202 C203 1.498 . S
C202 O220 1.258 . S
C202 O221 1.239 . S
C203 C202 1.498 . S
C203 C204 1.366 . S
C203 C208 1.407 . S
C204 C203 1.366 . S
C204 C205 1.392 . S
C204 H232 0.930 . S
C205 C204 1.392 . S
C205 C206 1.398 . S
C205 H233 0.929 . S
C206 C205 1.398 . S
C206 C207 1.352 . S
C207 C206 1.352 . S
C207 C208 1.384 . S
C207 H234 0.930 . S
C208 C203 1.407 . S
C208 C207 1.384 . S
C208 H235 0.929 . S
C209 O222 1.241 . S
C209 O223 1.273 . S
C210 O224 1.251 . S
C210 O225 1.268 . S
C211 Nd201 2.836 . S
C211 C212 1.498 . S
C211 O226 1.258 . S
C211 O227 1.239 . S
C212 C211 1.498 . S
C212 C213 1.366 . S
C212 C217 1.407 . S
C213 C212 1.366 . S
C213 C214 1.392 . S
C213 H236 0.930 . S
C214 C213 1.392 . S
C214 C215 1.398 . S
C214 H237 0.929 . S
C215 C214 1.398 . S
C215 C216 1.352 . S
C216 C215 1.352 . S
C216 C217 1.384 . S
C216 H238 0.930 . S
C217 C212 1.407 . S
C217 C216 1.384 . S
C217 H239 0.929 . S
C218 O228 1.241 . S
C218 O229 1.273 . S
C219 O230 1.251 . S
C219 O231 1.268 . S
O220 Nd200 2.500 . S
O220 C202 1.258 . S
O221 Nd200 2.492 . S
O221 C202 1.239 . S
O222 Nd200 2.487 . S
O222 C209 1.241 . S
O223 Nd200 2.682 . S
O223 Nd201 2.414 . S
O223 C209 1.273 . S
O224 Nd200 2.410 . S
O224 C210 1.251 . S
O225 Nd201 2.424 . S
O225 C210 1.268 . S
O226 Nd201 2.500 . S
O226 C211 1.258 . S
O227 Nd201 2.492 . S
O227 C211 1.239 . S
O228 Nd201 2.487 . S
O228 C218 1.241 . S
O229 Nd200 2.414 . S
O229 Nd201 2.682 . S
O229 C218 1.273 . S
O230 Nd201 2.410 . S
O230 C219 1.251 . S
O231 Nd200 2.424 . S
O231 C219 1.268 . S
H232 C204 0.930 . S
H233 C205 0.929 . S
H234 C207 0.930 . S
H235 C208 0.929 . S
H236 C213 0.930 . S
H237 C214 0.929 . S
H238 C216 0.930 . S
H239 C217 0.929 . S
Nd240 C242 2.836 . S
Nd240 O260 2.500 . S
Nd240 O261 2.492 . S
Nd240 O262 2.487 . S
Nd240 O263 2.682 . S
Nd240 O264 2.410 . S
Nd240 O269 2.414 . S
Nd240 O271 2.424 . S
Nd241 C251 2.836 . S
Nd241 O263 2.414 . S
Nd241 O265 2.424 . S
Nd241 O266 2.500 . S
Nd241 O267 2.492 . S
Nd241 O268 2.487 . S
Nd241 O269 2.682 . S
Nd241 O270 2.410 . S
C242 Nd240 2.836 . S
C242 C243 1.498 . S
C242 O260 1.258 . S
C242 O261 1.239 . S
C243 C242 1.498 . S
C243 C244 1.366 . S
C243 C248 1.407 . S
C244 C243 1.366 . S
C244 C245 1.392 . S
C244 H272 0.930 . S
C245 C244 1.392 . S
C245 C246 1.398 . S
C245 H273 0.929 . S
C246 C245 1.398 . S
C246 C247 1.352 . S
C247 C246 1.352 . S
C247 C248 1.384 . S
C247 H274 0.930 . S
C248 C243 1.407 . S
C248 C247 1.384 . S
C248 H275 0.929 . S
C249 O262 1.241 . S
C249 O263 1.273 . S
C250 O264 1.251 . S
C250 O265 1.268 . S
C251 Nd241 2.836 . S
C251 C252 1.498 . S
C251 O266 1.258 . S
C251 O267 1.239 . S
C252 C251 1.498 . S
C252 C253 1.366 . S
C252 C257 1.407 . S
C253 C252 1.366 . S
C253 C254 1.392 . S
C253 H276 0.930 . S
C254 C253 1.392 . S
C254 C255 1.398 . S
C254 H277 0.929 . S
C255 C254 1.398 . S
C255 C256 1.352 . S
C256 C255 1.352 . S
C256 C257 1.384 . S
C256 H278 0.930 . S
C257 C252 1.407 . S
C257 C256 1.384 . S
C257 H279 0.929 . S
C258 O268 1.241 . S
C258 O269 1.273 . S
C259 O270 1.251 . S
C259 O271 1.268 . S
O260 Nd240 2.500 . S
O260 C242 1.258 . S
O261 Nd240 2.492 . S
O261 C242 1.239 . S
O262 Nd240 2.487 . S
O262 C249 1.241 . S
O263 Nd240 2.682 . S
O263 Nd241 2.414 . S
O263 C249 1.273 . S
O264 Nd240 2.410 . S
O264 C250 1.251 . S
O265 Nd241 2.424 . S
O265 C250 1.268 . S
O266 Nd241 2.500 . S
O266 C251 1.258 . S
O267 Nd241 2.492 . S
O267 C251 1.239 . S
O268 Nd241 2.487 . S
O268 C258 1.241 . S
O269 Nd240 2.414 . S
O269 Nd241 2.682 . S
O269 C258 1.273 . S
O270 Nd241 2.410 . S
O270 C259 1.251 . S
O271 Nd240 2.424 . S
O271 C259 1.268 . S
H272 C244 0.930 . S
H273 C245 0.929 . S
H274 C247 0.930 . S
H275 C248 0.929 . S
H276 C253 0.930 . S
H277 C254 0.929 . S
H278 C256 0.930 . S
H279 C257 0.929 . S
Nd280 C282 2.836 1_455 S
Nd280 O300 2.500 . S
Nd280 O301 2.492 1_455 S
Nd280 O302 2.487 1_455 S
Nd280 O303 2.682 . S
Nd280 O304 2.410 . S
Nd280 O309 2.414 . S
Nd280 O311 2.424 . S
Nd281 C291 2.836 . S
Nd281 O303 2.414 . S
Nd281 O305 2.424 . S
Nd281 O306 2.500 . S
Nd281 O307 2.492 . S
Nd281 O308 2.487 . S
Nd281 O309 2.682 . S
Nd281 O310 2.410 . S
C282 Nd280 2.836 1_655 S
C282 C283 1.498 . S
C282 O300 1.258 1_655 S
C282 O301 1.239 . S
C283 C282 1.498 . S
C283 C284 1.366 . S
C283 C288 1.407 . S
C284 C283 1.366 . S
C284 C285 1.392 . S
C284 H312 0.930 1_655 S
C285 C284 1.392 . S
C285 C286 1.398 . S
C285 H313 0.929 . S
C286 C285 1.398 . S
C286 C287 1.352 . S
C287 C286 1.352 . S
C287 C288 1.384 . S
C287 H314 0.930 . S
C288 C283 1.407 . S
C288 C287 1.384 . S
C288 H315 0.929 . S
C289 O302 1.241 1_455 S
C289 O303 1.273 . S
C290 O304 1.251 . S
C290 O305 1.268 . S
C291 Nd281 2.836 . S
C291 C292 1.498 . S
C291 O306 1.258 . S
C291 O307 1.239 . S
C292 C291 1.498 . S
C292 C293 1.366 . S
C292 C297 1.407 . S
C293 C292 1.366 . S
C293 C294 1.392 . S
C293 H316 0.930 . S
C294 C293 1.392 . S
C294 C295 1.398 . S
C294 H317 0.929 . S
C295 C294 1.398 . S
C295 C296 1.352 . S
C296 C295 1.352 . S
C296 C297 1.384 . S
C296 H318 0.930 . S
C297 C292 1.407 . S
C297 C296 1.384 . S
C297 H319 0.929 . S
C298 O308 1.241 . S
C298 O309 1.273 . S
C299 O310 1.251 . S
C299 O311 1.268 . S
O300 Nd280 2.500 . S
O300 C282 1.258 1_455 S
O301 Nd280 2.492 1_655 S
O301 C282 1.239 . S
O302 Nd280 2.487 1_655 S
O302 C289 1.241 1_655 S
O303 Nd280 2.682 . S
O303 Nd281 2.414 . S
O303 C289 1.273 . S
O304 Nd280 2.410 . S
O304 C290 1.251 . S
O305 Nd281 2.424 . S
O305 C290 1.268 . S
O306 Nd281 2.500 . S
O306 C291 1.258 . S
O307 Nd281 2.492 . S
O307 C291 1.239 . S
O308 Nd281 2.487 . S
O308 C298 1.241 . S
O309 Nd280 2.414 . S
O309 Nd281 2.682 . S
O309 C298 1.273 . S
O310 Nd281 2.410 . S
O310 C299 1.251 . S
O311 Nd280 2.424 . S
O311 C299 1.268 . S
H312 C284 0.930 1_455 S
H313 C285 0.929 . S
H314 C287 0.930 . S
H315 C288 0.929 . S
H316 C293 0.930 . S
H317 C294 0.929 . S
H318 C296 0.930 . S
H319 C297 0.929 . S
Nd320 C322 2.836 . S
Nd320 O340 2.500 . S
Nd320 O341 2.492 . S
Nd320 O342 2.487 . S
Nd320 O343 2.682 . S
Nd320 O344 2.410 . S
Nd320 O349 2.414 . S
Nd320 O351 2.424 . S
Nd321 C331 2.836 . S
Nd321 O343 2.414 . S
Nd321 O345 2.424 . S
Nd321 O346 2.500 . S
Nd321 O347 2.492 . S
Nd321 O348 2.487 . S
Nd321 O349 2.682 . S
Nd321 O350 2.410 . S
C322 Nd320 2.836 . S
C322 C323 1.498 . S
C322 O340 1.258 . S
C322 O341 1.239 . S
C323 C322 1.498 . S
C323 C324 1.366 . S
C323 C328 1.407 . S
C324 C323 1.366 . S
C324 C325 1.392 . S
C324 H352 0.930 . S
C325 C324 1.392 . S
C325 C326 1.398 . S
C325 H353 0.929 . S
C326 C325 1.398 . S
C326 C327 1.352 . S
C327 C326 1.352 . S
C327 C328 1.384 . S
C327 H354 0.930 . S
C328 C323 1.407 . S
C328 C327 1.384 . S
C328 H355 0.929 . S
C329 O342 1.241 . S
C329 O343 1.273 . S
C330 O344 1.251 . S
C330 O345 1.268 . S
C331 Nd321 2.836 . S
C331 C332 1.498 . S
C331 O346 1.258 . S
C331 O347 1.239 . S
C332 C331 1.498 . S
C332 C333 1.366 . S
C332 C337 1.407 . S
C333 C332 1.366 . S
C333 C334 1.392 . S
C333 H356 0.930 . S
C334 C333 1.392 . S
C334 C335 1.398 . S
C334 H357 0.929 . S
C335 C334 1.398 . S
C335 C336 1.352 . S
C336 C335 1.352 . S
C336 C337 1.384 . S
C336 H358 0.930 . S
C337 C332 1.407 . S
C337 C336 1.384 . S
C337 H359 0.929 . S
C338 O348 1.241 . S
C338 O349 1.273 . S
C339 O350 1.251 . S
C339 O351 1.268 . S
O340 Nd320 2.500 . S
O340 C322 1.258 . S
O341 Nd320 2.492 . S
O341 C322 1.239 . S
O342 Nd320 2.487 . S
O342 C329 1.241 . S
O343 Nd320 2.682 . S
O343 Nd321 2.414 . S
O343 C329 1.273 . S
O344 Nd320 2.410 . S
O344 C330 1.251 . S
O345 Nd321 2.424 . S
O345 C330 1.268 . S
O346 Nd321 2.500 . S
O346 C331 1.258 . S
O347 Nd321 2.492 . S
O347 C331 1.239 . S
O348 Nd321 2.487 . S
O348 C338 1.241 . S
O349 Nd320 2.414 . S
O349 Nd321 2.682 . S
O349 C338 1.273 . S
O350 Nd321 2.410 . S
O350 C339 1.251 . S
O351 Nd320 2.424 . S
O351 C339 1.268 . S
H352 C324 0.930 . S
H353 C325 0.929 . S
H354 C327 0.930 . S
H355 C328 0.929 . S
H356 C333 0.930 . S
H357 C334 0.929 . S
H358 C336 0.930 . S
H359 C337 0.929 . S
Nd360 C362 2.836 . S
Nd360 O380 2.500 . S
Nd360 O381 2.492 . S
Nd360 O382 2.487 . S
Nd360 O383 2.682 . S
Nd360 O384 2.410 . S
Nd360 O389 2.414 . S
Nd360 O391 2.424 . S
Nd361 C371 2.836 . S
Nd361 O383 2.414 . S
Nd361 O385 2.424 . S
Nd361 O386 2.500 . S
Nd361 O387 2.492 . S
Nd361 O388 2.487 1_545 S
Nd361 O389 2.682 . S
Nd361 O390 2.410 . S
C362 Nd360 2.836 . S
C362 C363 1.498 . S
C362 O380 1.258 . S
C362 O381 1.239 . S
C363 C362 1.498 . S
C363 C364 1.366 . S
C363 C368 1.407 . S
C364 C363 1.366 . S
C364 C365 1.392 . S
C364 H392 0.930 . S
C365 C364 1.392 . S
C365 C366 1.398 . S
C365 H393 0.929 . S
C366 C365 1.398 . S
C366 C367 1.352 . S
C367 C366 1.352 . S
C367 C368 1.384 . S
C367 H394 0.930 . S
C368 C363 1.407 . S
C368 C367 1.384 . S
C368 H395 0.929 . S
C369 O382 1.241 . S
C369 O383 1.273 . S
C370 O384 1.251 . S
C370 O385 1.268 . S
C371 Nd361 2.836 . S
C371 C372 1.498 . S
C371 O386 1.258 . S
C371 O387 1.239 . S
C372 C371 1.498 . S
C372 C373 1.366 . S
C372 C377 1.407 . S
C373 C372 1.366 . S
C373 C374 1.392 . S
C373 H396 0.930 . S
C374 C373 1.392 . S
C374 C375 1.398 . S
C374 H397 0.929 . S
C375 C374 1.398 . S
C375 C376 1.352 . S
C376 C375 1.352 . S
C376 C377 1.384 . S
C376 H398 0.930 1_545 S
C377 C372 1.407 . S
C377 C376 1.384 . S
C377 H399 0.929 1_545 S
C378 O388 1.241 . S
C378 O389 1.273 1_565 S
C379 O390 1.251 . S
C379 O391 1.268 . S
O380 Nd360 2.500 . S
O380 C362 1.258 . S
O381 Nd360 2.492 . S
O381 C362 1.239 . S
O382 Nd360 2.487 . S
O382 C369 1.241 . S
O383 Nd360 2.682 . S
O383 Nd361 2.414 . S
O383 C369 1.273 . S
O384 Nd360 2.410 . S
O384 C370 1.251 . S
O385 Nd361 2.424 . S
O385 C370 1.268 . S
O386 Nd361 2.500 . S
O386 C371 1.258 . S
O387 Nd361 2.492 . S
O387 C371 1.239 . S
O388 Nd361 2.487 1_565 S
O388 C378 1.241 . S
O389 Nd360 2.414 . S
O389 Nd361 2.682 . S
O389 C378 1.273 1_545 S
O390 Nd361 2.410 . S
O390 C379 1.251 . S
O391 Nd360 2.424 . S
O391 C379 1.268 . S
H392 C364 0.930 . S
H393 C365 0.929 . S
H394 C367 0.930 . S
H395 C368 0.929 . S
H396 C373 0.930 . S
H397 C374 0.929 . S
H398 C376 0.930 1_565 S
H399 C377 0.929 1_565 S
Nd400 C402 2.836 . S
Nd400 O420 2.500 . S
Nd400 O421 2.492 . S
Nd400 O422 2.487 . S
Nd400 O423 2.682 . S
Nd400 O424 2.410 . S
Nd400 O429 2.414 . S
Nd400 O431 2.424 . S
Nd401 C411 2.836 . S
Nd401 O423 2.414 . S
Nd401 O425 2.424 . S
Nd401 O426 2.500 . S
Nd401 O427 2.492 . S
Nd401 O428 2.487 . S
Nd401 O429 2.682 . S
Nd401 O430 2.410 . S
C402 Nd400 2.836 . S
C402 C403 1.498 . S
C402 O420 1.258 . S
C402 O421 1.239 . S
C403 C402 1.498 . S
C403 C404 1.366 . S
C403 C408 1.407 . S
C404 C403 1.366 . S
C404 C405 1.392 . S
C404 H432 0.930 . S
C405 C404 1.392 . S
C405 C406 1.398 . S
C405 H433 0.929 . S
C406 C405 1.398 . S
C406 C407 1.352 . S
C407 C406 1.352 . S
C407 C408 1.384 . S
C407 H434 0.930 . S
C408 C403 1.407 . S
C408 C407 1.384 . S
C408 H435 0.929 . S
C409 O422 1.241 . S
C409 O423 1.273 . S
C410 O424 1.251 . S
C410 O425 1.268 . S
C411 Nd401 2.836 . S
C411 C412 1.532 . S
C411 O426 1.258 . S
C411 O427 1.239 . S
C412 C411 1.532 . S
C412 C413 1.345 1_554 S
C412 C417 1.394 1_554 S
C413 C412 1.345 1_556 S
C413 C414 1.392 . S
C413 H436 0.930 . S
C414 C413 1.392 . S
C414 C415 1.398 . S
C414 H437 0.929 . S
C415 C414 1.398 . S
C415 C416 1.352 . S
C416 C415 1.352 . S
C416 C417 1.384 . S
C416 H438 0.930 . S
C417 C412 1.394 1_556 S
C417 C416 1.384 . S
C417 H439 0.929 . S
C418 O428 1.241 . S
C418 O429 1.273 . S
C419 O430 1.251 . S
C419 O431 1.268 . S
O420 Nd400 2.500 . S
O420 C402 1.258 . S
O421 Nd400 2.492 . S
O421 C402 1.239 . S
O422 Nd400 2.487 . S
O422 C409 1.241 . S
O423 Nd400 2.682 . S
O423 Nd401 2.414 . S
O423 C409 1.273 . S
O424 Nd400 2.410 . S
O424 C410 1.251 . S
O425 Nd401 2.424 . S
O425 C410 1.268 . S
O426 Nd401 2.500 . S
O426 C411 1.258 . S
O427 Nd401 2.492 . S
O427 C411 1.239 . S
O428 Nd401 2.487 . S
O428 C418 1.241 . S
O429 Nd400 2.414 . S
O429 Nd401 2.682 . S
O429 C418 1.273 . S
O430 Nd401 2.410 . S
O430 C419 1.251 . S
O431 Nd400 2.424 . S
O431 C419 1.268 . S
H432 C404 0.930 . S
H433 C405 0.929 . S
H434 C407 0.930 . S
H435 C408 0.929 . S
H436 C413 0.930 . S
H437 C414 0.929 . S
H438 C416 0.930 . S
H439 C417 0.929 . S
Nd440 C442 2.836 . S
Nd440 O460 2.500 . S
Nd440 O461 2.492 . S
Nd440 O462 2.487 1_565 S
Nd440 O463 2.682 1_565 S
Nd440 O464 2.410 . S
Nd440 O469 2.414 . S
Nd440 O471 2.424 . S
Nd441 C451 2.836 1_565 S
Nd441 O463 2.414 1_565 S
Nd441 O465 2.425 . S
Nd441 O466 2.500 1_565 S
Nd441 O467 2.492 . S
Nd441 O468 2.487 . S
Nd441 O469 2.682 . S
Nd441 O470 2.410 . S
C442 Nd440 2.836 . S
C442 C443 1.498 . S
C442 O460 1.258 . S
C442 O461 1.239 . S
C443 C442 1.498 . S
C443 C444 1.366 . S
C443 C448 1.407 . S
C444 C443 1.366 . S
C444 C445 1.392 . S
C444 H472 0.930 . S
C445 C444 1.392 . S
C445 C446 1.398 . S
C445 H473 0.929 . S
C446 C445 1.398 . S
C446 C447 1.352 . S
C447 C446 1.352 . S
C447 C448 1.384 . S
C447 H474 0.930 . S
C448 C443 1.407 . S
C448 C447 1.384 . S
C448 H475 0.929 . S
C449 O462 1.241 . S
C449 O463 1.273 . S
C450 O464 1.251 . S
C450 O465 1.267 . S
C451 Nd441 2.836 1_545 S
C451 C452 1.498 . S
C451 O466 1.258 . S
C451 O467 1.239 1_545 S
C452 C451 1.498 . S
C452 C453 1.366 . S
C452 C457 1.407 . S
C453 C452 1.366 . S
C453 C454 1.392 . S
C453 H476 0.930 . S
C454 C453 1.392 . S
C454 C455 1.398 . S
C454 H477 0.929 . S
C455 C454 1.398 . S
C455 C456 1.352 . S
C456 C455 1.352 . S
C456 C457 1.384 . S
C456 H478 0.930 . S
C457 C452 1.407 . S
C457 C456 1.384 . S
C457 H479 0.929 1_545 S
C458 O468 1.241 . S
C458 O469 1.273 . S
C459 O470 1.251 . S
C459 O471 1.268 . S
O460 Nd440 2.500 . S
O460 C442 1.258 . S
O461 Nd440 2.492 . S
O461 C442 1.239 . S
O462 Nd440 2.487 1_545 S
O462 C449 1.241 . S
O463 Nd440 2.682 1_545 S
O463 Nd441 2.414 1_545 S
O463 C449 1.273 . S
O464 Nd440 2.410 . S
O464 C450 1.251 . S
O465 Nd441 2.425 . S
O465 C450 1.267 . S
O466 Nd441 2.500 1_545 S
O466 C451 1.258 . S
O467 Nd441 2.492 . S
O467 C451 1.239 1_565 S
O468 Nd441 2.487 . S
O468 C458 1.241 . S
O469 Nd440 2.414 . S
O469 Nd441 2.682 . S
O469 C458 1.273 . S
O470 Nd441 2.410 . S
O470 C459 1.251 . S
O471 Nd440 2.424 . S
O471 C459 1.268 . S
H472 C444 0.930 . S
H473 C445 0.929 . S
H474 C447 0.930 . S
H475 C448 0.929 . S
H476 C453 0.930 . S
H477 C454 0.929 . S
H478 C456 0.930 . S
H479 C457 0.929 1_565 S
Nd480 C482 2.836 . S
Nd480 O500 2.500 . S
Nd480 O501 2.492 . S
Nd480 O502 2.487 . S
Nd480 O503 2.682 . S
Nd480 O504 2.410 . S
Nd480 O509 2.414 . S
Nd480 O511 2.424 . S
Nd481 C491 2.836 . S
Nd481 O503 2.414 . S
Nd481 O505 2.424 . S
Nd481 O506 2.500 . S
Nd481 O507 2.492 . S
Nd481 O508 2.487 . S
Nd481 O509 2.682 . S
Nd481 O510 2.410 . S
C482 Nd480 2.836 . S
C482 C483 1.498 . S
C482 O500 1.258 . S
C482 O501 1.239 . S
C483 C482 1.498 . S
C483 C484 1.366 . S
C483 C488 1.407 . S
C484 C483 1.366 . S
C484 C485 1.392 . S
C484 H512 0.930 . S
C485 C484 1.392 . S
C485 C486 1.398 . S
C485 H513 0.929 . S
C486 C485 1.398 . S
C486 C487 1.352 . S
C487 C486 1.352 . S
C487 C488 1.384 . S
C487 H514 0.930 . S
C488 C483 1.407 . S
C488 C487 1.384 . S
C488 H515 0.929 . S
C489 O502 1.241 . S
C489 O503 1.273 . S
C490 O504 1.251 . S
C490 O505 1.268 . S
C491 Nd481 2.836 . S
C491 C492 1.498 . S
C491 O506 1.258 . S
C491 O507 1.239 . S
C492 C491 1.498 . S
C492 C493 1.366 . S
C492 C497 1.407 . S
C493 C492 1.366 . S
C493 C494 1.392 . S
C493 H516 0.930 . S
C494 C493 1.392 . S
C494 C495 1.398 . S
C494 H517 0.929 . S
C495 C494 1.398 . S
C495 C496 1.352 . S
C496 C495 1.352 . S
C496 C497 1.384 . S
C496 H518 0.930 . S
C497 C492 1.407 . S
C497 C496 1.384 . S
C497 H519 0.929 . S
C498 O508 1.241 . S
C498 O509 1.273 . S
C499 O510 1.251 . S
C499 O511 1.268 . S
O500 Nd480 2.500 . S
O500 C482 1.258 . S
O501 Nd480 2.492 . S
O501 C482 1.239 . S
O502 Nd480 2.487 . S
O502 C489 1.241 . S
O503 Nd480 2.682 . S
O503 Nd481 2.414 . S
O503 C489 1.273 . S
O504 Nd480 2.410 . S
O504 C490 1.251 . S
O505 Nd481 2.424 . S
O505 C490 1.268 . S
O506 Nd481 2.500 . S
O506 C491 1.258 . S
O507 Nd481 2.492 . S
O507 C491 1.239 . S
O508 Nd481 2.487 . S
O508 C498 1.241 . S
O509 Nd480 2.414 . S
O509 Nd481 2.682 . S
O509 C498 1.273 . S
O510 Nd481 2.410 . S
O510 C499 1.251 . S
O511 Nd480 2.424 . S
O511 C499 1.268 . S
H512 C484 0.930 . S
H513 C485 0.929 . S
H514 C487 0.930 . S
H515 C488 0.929 . S
H516 C493 0.930 . S
H517 C494 0.929 . S
H518 C496 0.930 . S
H519 C497 0.929 . S
Nd520 C522 2.836 . S
Nd520 O540 2.500 . S
Nd520 O541 2.492 . S
Nd520 O542 2.487 1_565 S
Nd520 O543 2.682 . S
Nd520 O544 2.410 . S
Nd520 O549 2.414 . S
Nd520 O551 2.424 . S
Nd521 C531 2.836 . S
Nd521 O543 2.414 . S
Nd521 O545 2.424 . S
Nd521 O546 2.500 . S
Nd521 O547 2.492 . S
Nd521 O548 2.487 . S
Nd521 O549 2.682 . S
Nd521 O550 2.410 . S
C522 Nd520 2.836 . S
C522 C523 1.498 . S
C522 O540 1.258 . S
C522 O541 1.239 . S
C523 C522 1.498 . S
C523 C524 1.366 . S
C523 C528 1.407 . S
C524 C523 1.366 . S
C524 C525 1.392 . S
C524 H552 0.930 . S
C525 C524 1.392 . S
C525 C526 1.398 . S
C525 H553 0.929 . S
C526 C525 1.398 . S
C526 C527 1.352 . S
C527 C526 1.352 . S
C527 C528 1.384 . S
C527 H554 0.930 1_565 S
C528 C523 1.407 . S
C528 C527 1.384 . S
C528 H555 0.929 1_565 S
C529 O542 1.241 . S
C529 O543 1.273 1_545 S
C530 O544 1.251 . S
C530 O545 1.268 . S
C531 Nd521 2.836 . S
C531 C532 1.498 . S
C531 O546 1.258 . S
C531 O547 1.239 . S
C532 C531 1.498 . S
C532 C533 1.366 . S
C532 C537 1.407 . S
C533 C532 1.366 . S
C533 C534 1.392 . S
C533 H556 0.930 . S
C534 C533 1.392 . S
C534 C535 1.398 . S
C534 H557 0.929 . S
C535 C534 1.398 . S
C535 C536 1.352 . S
C536 C535 1.352 . S
C536 C537 1.384 . S
C536 H558 0.930 . S
C537 C532 1.407 . S
C537 C536 1.384 . S
C537 H559 0.929 . S
C538 O548 1.241 . S
C538 O549 1.273 . S
C539 O550 1.251 . S
C539 O551 1.268 . S
O540 Nd520 2.500 . S
O540 C522 1.258 . S
O541 Nd520 2.492 . S
O541 C522 1.239 . S
O542 Nd520 2.487 1_545 S
O542 C529 1.241 . S
O543 Nd520 2.682 . S
O543 Nd521 2.414 . S
O543 C529 1.273 1_565 S
O544 Nd520 2.410 . S
O544 C530 1.251 . S
O545 Nd521 2.424 . S
O545 C530 1.268 . S
O546 Nd521 2.500 . S
O546 C531 1.258 . S
O547 Nd521 2.492 . S
O547 C531 1.239 . S
O548 Nd521 2.487 . S
O548 C538 1.241 . S
O549 Nd520 2.414 . S
O549 Nd521 2.682 . S
O549 C538 1.273 . S
O550 Nd521 2.410 . S
O550 C539 1.251 . S
O551 Nd520 2.424 . S
O551 C539 1.268 . S
H552 C524 0.930 . S
H553 C525 0.929 . S
H554 C527 0.930 1_545 S
H555 C528 0.929 1_545 S
H556 C533 0.930 . S
H557 C534 0.929 . S
H558 C536 0.930 . S
H559 C537 0.929 . S
Nd560 C562 2.836 . S
Nd560 O580 2.500 . S
Nd560 O581 2.492 . S
Nd560 O582 2.487 . S
Nd560 O583 2.682 . S
Nd560 O584 2.410 . S
Nd560 O589 2.414 . S
Nd560 O591 2.424 . S
Nd561 C571 2.836 . S
Nd561 O583 2.414 . S
Nd561 O585 2.424 . S
Nd561 O586 2.500 . S
Nd561 O587 2.492 . S
Nd561 O588 2.487 . S
Nd561 O589 2.682 . S
Nd561 O590 2.410 . S
C562 Nd560 2.836 . S
C562 C563 1.532 . S
C562 O580 1.258 . S
C562 O581 1.239 . S
C563 C562 1.532 . S
C563 C564 1.345 1_556 S
C563 C568 1.394 1_556 S
C564 C563 1.345 1_554 S
C564 C565 1.392 . S
C564 H592 0.930 . S
C565 C564 1.392 . S
C565 C566 1.398 . S
C565 H593 0.929 . S
C566 C565 1.398 . S
C566 C567 1.352 . S
C567 C566 1.352 . S
C567 C568 1.384 . S
C567 H594 0.930 . S
C568 C563 1.394 1_554 S
C568 C567 1.384 . S
C568 H595 0.929 . S
C569 O582 1.241 . S
C569 O583 1.273 . S
C570 O584 1.251 . S
C570 O585 1.268 . S
C571 Nd561 2.836 . S
C571 C572 1.498 . S
C571 O586 1.258 . S
C571 O587 1.239 . S
C572 C571 1.498 . S
C572 C573 1.366 . S
C572 C577 1.407 . S
C573 C572 1.366 . S
C573 C574 1.392 . S
C573 H596 0.930 . S
C574 C573 1.392 . S
C574 C575 1.398 . S
C574 H597 0.929 . S
C575 C574 1.398 . S
C575 C576 1.352 . S
C576 C575 1.352 . S
C576 C577 1.384 . S
C576 H598 0.930 . S
C577 C572 1.407 . S
C577 C576 1.384 . S
C577 H599 0.929 . S
C578 O588 1.241 . S
C578 O589 1.273 . S
C579 O590 1.251 . S
C579 O591 1.268 . S
O580 Nd560 2.500 . S
O580 C562 1.258 . S
O581 Nd560 2.492 . S
O581 C562 1.239 . S
O582 Nd560 2.487 . S
O582 C569 1.241 . S
O583 Nd560 2.682 . S
O583 Nd561 2.414 . S
O583 C569 1.273 . S
O584 Nd560 2.410 . S
O584 C570 1.251 . S
O585 Nd561 2.424 . S
O585 C570 1.268 . S
O586 Nd561 2.500 . S
O586 C571 1.258 . S
O587 Nd561 2.492 . S
O587 C571 1.239 . S
O588 Nd561 2.487 . S
O588 C578 1.241 . S
O589 Nd560 2.414 . S
O589 Nd561 2.682 . S
O589 C578 1.273 . S
O590 Nd561 2.410 . S
O590 C579 1.251 . S
O591 Nd560 2.424 . S
O591 C579 1.268 . S
H592 C564 0.930 . S
H593 C565 0.929 . S
H594 C567 0.930 . S
H595 C568 0.929 . S
H596 C573 0.930 . S
H597 C574 0.929 . S
H598 C576 0.930 . S
H599 C577 0.929 . S
Nd600 C602 2.836 1_545 S
Nd600 O620 2.500 1_545 S
Nd600 O621 2.492 . S
Nd600 O622 2.487 . S
Nd600 O623 2.682 . S
Nd600 O624 2.410 . S
Nd600 O629 2.414 1_545 S
Nd600 O631 2.425 . S
Nd601 C611 2.836 . S
Nd601 O623 2.414 . S
Nd601 O625 2.424 . S
Nd601 O626 2.500 . S
Nd601 O627 2.492 . S
Nd601 O628 2.487 1_545 S
Nd601 O629 2.682 1_545 S
Nd601 O630 2.410 . S
C602 Nd600 2.836 1_565 S
C602 C603 1.498 . S
C602 O620 1.258 . S
C602 O621 1.239 1_565 S
C603 C602 1.498 . S
C603 C604 1.366 . S
C603 C608 1.407 . S
C604 C603 1.366 . S
C604 C605 1.392 . S
C604 H632 0.930 . S
C605 C604 1.392 . S
C605 C606 1.398 . S
C605 H633 0.929 . S
C606 C605 1.398 . S
C606 C607 1.352 . S
C607 C606 1.352 . S
C607 C608 1.384 . S
C607 H634 0.930 . S
C608 C603 1.407 . S
C608 C607 1.384 . S
C608 H635 0.929 1_565 S
C609 O622 1.241 . S
C609 O623 1.273 . S
C610 O624 1.251 . S
C610 O625 1.268 . S
C611 Nd601 2.836 . S
C611 C612 1.498 . S
C611 O626 1.258 . S
C611 O627 1.239 . S
C612 C611 1.498 . S
C612 C613 1.366 . S
C612 C617 1.407 . S
C613 C612 1.366 . S
C613 C614 1.392 . S
C613 H636 0.930 . S
C614 C613 1.392 . S
C614 C615 1.398 . S
C614 H637 0.929 . S
C615 C614 1.398 . S
C615 C616 1.352 . S
C616 C615 1.352 . S
C616 C617 1.384 . S
C616 H638 0.930 . S
C617 C612 1.407 . S
C617 C616 1.384 . S
C617 H639 0.929 . S
C618 O628 1.241 . S
C618 O629 1.273 . S
C619 O630 1.251 . S
C619 O631 1.267 . S
O620 Nd600 2.500 1_565 S
O620 C602 1.258 . S
O621 Nd600 2.492 . S
O621 C602 1.239 1_545 S
O622 Nd600 2.487 . S
O622 C609 1.241 . S
O623 Nd600 2.682 . S
O623 Nd601 2.414 . S
O623 C609 1.273 . S
O624 Nd600 2.410 . S
O624 C610 1.251 . S
O625 Nd601 2.424 . S
O625 C610 1.268 . S
O626 Nd601 2.500 . S
O626 C611 1.258 . S
O627 Nd601 2.492 . S
O627 C611 1.239 . S
O628 Nd601 2.487 1_565 S
O628 C618 1.241 . S
O629 Nd600 2.414 1_565 S
O629 Nd601 2.682 1_565 S
O629 C618 1.273 . S
O630 Nd601 2.410 . S
O630 C619 1.251 . S
O631 Nd600 2.425 . S
O631 C619 1.267 . S
H632 C604 0.930 . S
H633 C605 0.929 . S
H634 C607 0.930 . S
H635 C608 0.929 1_545 S
H636 C613 0.930 . S
H637 C614 0.929 . S
H638 C616 0.930 . S
H639 C617 0.929 . S
H640 C646 0.930 . S
H641 C650 0.930 . S
H642 C655 0.929 . S
H643 C653 0.929 . S
H644 C648 0.929 . S
H645 C654 0.929 . S
C646 H640 0.930 . S
C646 C647 1.367 . S
C646 C654 1.378 . S
C647 C646 1.367 . S
C647 C655 1.433 . S
C648 H644 0.929 . S
C648 C650 1.378 . S
C648 C652 1.350 . S
C649 C652 1.463 . S
C649 C654 1.350 . S
C649 N657 1.427 . S
C650 H641 0.930 . S
C650 C648 1.378 . S
C650 C651 1.367 . S
C651 C650 1.367 . S
C651 C653 1.433 . S
C652 C648 1.350 . S
C652 C649 1.463 . S
C652 N656 1.427 . S
C653 H643 0.929 . S
C653 C651 1.433 . S
C653 N656 1.384 . S
C654 H645 0.929 . S
C654 C646 1.378 . S
C654 C649 1.350 . S
C655 H642 0.929 . S
C655 C647 1.433 . S
C655 N657 1.384 . S
N656 C652 1.427 . S
N656 C653 1.384 . S
N657 C649 1.427 . S
N657 C655 1.384 . S
H658 C664 0.930 . S
H659 C668 0.930 . S
H660 C673 0.929 . S
H661 C671 0.929 . S
H662 C666 0.929 . S
H663 C672 0.929 . S
C664 H658 0.930 . S
C664 C665 1.367 . S
C664 C672 1.378 . S
C665 C664 1.367 . S
C665 C673 1.433 . S
C666 H662 0.929 . S
C666 C668 1.378 . S
C666 C670 1.350 . S
C667 C670 1.463 . S
C667 C672 1.350 . S
C667 N675 1.427 . S
C668 H659 0.930 . S
C668 C666 1.378 . S
C668 C669 1.367 . S
C669 C668 1.367 . S
C669 C671 1.433 . S
C670 C666 1.350 . S
C670 C667 1.463 . S
C670 N674 1.427 . S
C671 H661 0.929 . S
C671 C669 1.433 . S
C671 N674 1.384 . S
C672 H663 0.929 . S
C672 C664 1.378 . S
C672 C667 1.350 . S
C673 H660 0.929 . S
C673 C665 1.433 . S
C673 N675 1.384 . S
N674 C670 1.427 . S
N674 C671 1.384 . S
N675 C667 1.427 . S
N675 C673 1.384 . S
H676 C682 0.930 . S
H677 C686 0.930 . S
H678 C691 0.929 . S
H679 C689 0.929 . S
H680 C684 0.929 . S
H681 C690 0.929 . S
C682 H676 0.930 . S
C682 C683 1.367 . S
C682 C690 1.378 . S
C683 C682 1.367 . S
C683 C691 1.433 . S
C684 H680 0.929 . S
C684 C686 1.378 . S
C684 C688 1.350 . S
C685 C688 1.463 1_455 S
C685 C690 1.350 . S
C685 N693 1.427 . S
C686 H677 0.930 . S
C686 C684 1.378 . S
C686 C687 1.367 . S
C687 C686 1.367 . S
C687 C689 1.433 . S
C688 C684 1.350 . S
C688 C685 1.463 1_655 S
C688 N692 1.427 . S
C689 H679 0.929 . S
C689 C687 1.433 . S
C689 N692 1.384 . S
C690 H681 0.929 . S
C690 C682 1.378 . S
C690 C685 1.350 . S
C691 H678 0.929 . S
C691 C683 1.433 . S
C691 N693 1.384 . S
N692 C688 1.427 . S
N692 C689 1.384 . S
N693 C685 1.427 . S
N693 C691 1.384 . S
H694 C700 0.930 . S
H695 C704 0.930 . S
H696 C709 0.929 . S
H697 C707 0.929 . S
H698 C702 0.929 . S
H699 C708 0.929 . S
C700 H694 0.930 . S
C700 C701 1.367 . S
C700 C708 1.378 . S
C701 C700 1.367 . S
C701 C709 1.433 . S
C702 H698 0.929 . S
C702 C704 1.378 . S
C702 C706 1.354 . S
C703 C706 1.460 1_455 S
C703 C708 1.350 . S
C703 N711 1.427 . S
C704 H695 0.930 . S
C704 C702 1.378 . S
C704 C705 1.367 . S
C705 C704 1.367 . S
C705 C707 1.433 . S
C706 C702 1.354 . S
C706 C703 1.460 1_655 S
C706 N710 1.426 . S
C707 H697 0.929 . S
C707 C705 1.433 . S
C707 N710 1.384 . S
C708 H699 0.929 . S
C708 C700 1.378 . S
C708 C703 1.350 . S
C709 H696 0.929 . S
C709 C701 1.433 . S
C709 N711 1.384 . S
N710 C706 1.426 . S
N710 C707 1.384 . S
N711 C703 1.427 . S
N711 C709 1.384 . S
H712 C718 0.930 . S
H713 C722 0.930 . S
H714 C727 0.929 . S
H715 C725 0.929 . S
H716 C720 0.929 . S
H717 C726 0.929 . S
C718 H712 0.930 . S
C718 C719 1.367 . S
C718 C726 1.378 . S
C719 C718 1.367 . S
C719 C727 1.433 . S
C720 H716 0.929 . S
C720 C722 1.378 . S
C720 C724 1.350 . S
C721 C724 1.463 . S
C721 C726 1.350 . S
C721 N729 1.427 . S
C722 H713 0.930 . S
C722 C720 1.378 . S
C722 C723 1.367 . S
C723 C722 1.367 . S
C723 C725 1.433 . S
C724 C720 1.350 . S
C724 C721 1.463 . S
C724 N728 1.427 . S
C725 H715 0.929 . S
C725 C723 1.433 . S
C725 N728 1.384 . S
C726 H717 0.929 . S
C726 C718 1.378 . S
C726 C721 1.350 . S
C727 H714 0.929 . S
C727 C719 1.433 . S
C727 N729 1.384 . S
N728 C724 1.427 . S
N728 C725 1.384 . S
N729 C721 1.427 . S
N729 C727 1.384 . S
H730 C736 0.930 . S
H731 C740 0.930 . S
H732 C745 0.929 . S
H733 C743 0.929 . S
H734 C738 0.929 . S
H735 C744 0.929 . S
C736 H730 0.930 . S
C736 C737 1.367 . S
C736 C744 1.378 . S
C737 C736 1.367 . S
C737 C745 1.433 . S
C738 H734 0.929 . S
C738 C740 1.378 . S
C738 C742 1.350 . S
C739 C742 1.463 . S
C739 C744 1.350 . S
C739 N747 1.427 . S
C740 H731 0.930 . S
C740 C738 1.378 . S
C740 C741 1.367 . S
C741 C740 1.367 . S
C741 C743 1.433 . S
C742 C738 1.350 . S
C742 C739 1.463 . S
C742 N746 1.427 . S
C743 H733 0.929 . S
C743 C741 1.433 . S
C743 N746 1.384 . S
C744 H735 0.929 . S
C744 C736 1.378 . S
C744 C739 1.350 . S
C745 H732 0.929 . S
C745 C737 1.433 . S
C745 N747 1.384 . S
N746 C742 1.427 . S
N746 C743 1.384 . S
N747 C739 1.427 . S
N747 C745 1.384 . S
H748 C754 0.930 . S
H749 C758 0.930 . S
H750 C763 0.929 . S
H751 C761 0.929 . S
H752 C756 0.929 . S
H753 C762 0.929 . S
C754 H748 0.930 . S
C754 C755 1.367 . S
C754 C762 1.378 . S
C755 C754 1.367 . S
C755 C763 1.433 . S
C756 H752 0.929 . S
C756 C758 1.378 . S
C756 C760 1.350 . S
C757 C760 1.463 1_455 S
C757 C762 1.350 . S
C757 N765 1.427 . S
C758 H749 0.930 . S
C758 C756 1.378 . S
C758 C759 1.367 . S
C759 C758 1.367 . S
C759 C761 1.433 . S
C760 C756 1.350 . S
C760 C757 1.463 1_655 S
C760 N764 1.427 . S
C761 H751 0.929 . S
C761 C759 1.433 . S
C761 N764 1.384 . S
C762 H753 0.929 . S
C762 C754 1.378 . S
C762 C757 1.350 . S
C763 H750 0.929 . S
C763 C755 1.433 . S
C763 N765 1.384 . S
N764 C760 1.427 . S
N764 C761 1.384 . S
N765 C757 1.427 . S
N765 C763 1.384 . S
H766 C772 0.930 1_655 S
H767 C776 0.930 . S
H768 C781 0.929 . S
H769 C779 0.929 . S
H770 C774 0.929 1_455 S
H771 C780 0.929 . S
C772 H766 0.930 1_455 S
C772 C773 1.367 . S
C772 C780 1.378 1_455 S
C773 C772 1.367 . S
C773 C781 1.433 . S
C774 H770 0.929 1_655 S
C774 C776 1.378 . S
C774 C778 1.350 . S
C775 C778 1.465 . S
C775 C780 1.355 . S
C775 N783 1.420 1_655 S
C776 H767 0.930 . S
C776 C774 1.378 . S
C776 C777 1.367 . S
C777 C776 1.367 . S
C777 C779 1.433 . S
C778 C774 1.350 . S
C778 C775 1.465 . S
C778 N782 1.427 . S
C779 H769 0.929 . S
C779 C777 1.433 . S
C779 N782 1.384 . S
C780 H771 0.929 . S
C780 C772 1.378 1_655 S
C780 C775 1.355 . S
C781 H768 0.929 . S
C781 C773 1.433 . S
C781 N783 1.384 . S
N782 C778 1.427 . S
N782 C779 1.384 . S
N783 C775 1.420 1_455 S
N783 C781 1.384 . S
H784 C790 0.930 1_565 S
H785 C794 0.930 1_545 S
H786 C799 0.929 . S
H787 C797 0.929 . S
H788 C792 0.929 . S
H789 C798 0.929 . S
C790 H784 0.930 1_545 S
C790 C791 1.367 . S
C790 C798 1.378 1_545 S
C791 C790 1.367 . S
C791 C799 1.433 . S
C792 H788 0.929 . S
C792 C794 1.378 1_545 S
C792 C796 1.350 1_545 S
C793 C796 1.463 1_544 S
C793 C798 1.350 1_545 S
C793 N801 1.427 . S
C794 H785 0.930 1_565 S
C794 C792 1.378 1_565 S
C794 C795 1.367 . S
C795 C794 1.367 . S
C795 C797 1.433 . S
C796 C792 1.350 1_565 S
C796 C793 1.463 1_566 S
C796 N800 1.427 . S
C797 H787 0.929 . S
C797 C795 1.433 . S
C797 N800 1.384 . S
C798 H789 0.929 . S
C798 C790 1.378 1_565 S
C798 C793 1.350 1_565 S
C799 H786 0.929 . S
C799 C791 1.433 . S
C799 N801 1.384 . S
N800 C796 1.427 . S
N800 C797 1.384 . S
N801 C793 1.427 . S
N801 C799 1.384 . S
H802 C808 0.930 . S
H803 C812 0.930 . S
H804 C817 0.929 . S
H805 C815 0.929 . S
H806 C810 0.929 . S
H807 C816 0.929 . S
C808 H802 0.930 . S
C808 C809 1.367 . S
C808 C816 1.378 . S
C809 C808 1.367 . S
C809 C817 1.433 . S
C810 H806 0.929 . S
C810 C812 1.378 . S
C810 C814 1.350 . S
C811 C814 1.463 . S
C811 C816 1.350 . S
C811 N819 1.427 . S
C812 H803 0.930 . S
C812 C810 1.378 . S
C812 C813 1.367 . S
C813 C812 1.367 . S
C813 C815 1.433 . S
C814 C810 1.350 . S
C814 C811 1.463 . S
C814 N818 1.427 . S
C815 H805 0.929 . S
C815 C813 1.433 . S
C815 N818 1.384 . S
C816 H807 0.929 . S
C816 C808 1.378 . S
C816 C811 1.350 . S
C817 H804 0.929 . S
C817 C809 1.433 . S
C817 N819 1.384 . S
N818 C814 1.427 . S
N818 C815 1.384 . S
N819 C811 1.427 . S
N819 C817 1.384 . S
H820 C826 0.930 . S
H821 C830 0.930 . S
H822 C835 0.929 . S
H823 C833 0.929 . S
H824 C828 0.929 . S
H825 C834 0.929 . S
C826 H820 0.930 . S
C826 C827 1.367 1_545 S
C826 C834 1.378 . S
C827 C826 1.367 1_565 S
C827 C835 1.433 . S
C828 H824 0.929 . S
C828 C830 1.378 . S
C828 C832 1.350 1_565 S
C829 C832 1.463 1_465 S
C829 C834 1.350 1_565 S
C829 N837 1.427 . S
C830 H821 0.930 . S
C830 C828 1.378 . S
C830 C831 1.367 1_565 S
C831 C830 1.367 1_545 S
C831 C833 1.433 . S
C832 C828 1.350 1_545 S
C832 C829 1.463 1_645 S
C832 N836 1.427 . S
C833 H823 0.929 . S
C833 C831 1.433 . S
C833 N836 1.384 . S
C834 H825 0.929 . S
C834 C826 1.378 . S
C834 C829 1.350 1_545 S
C835 H822 0.929 . S
C835 C827 1.433 . S
C835 N837 1.384 . S
N836 C832 1.427 . S
N836 C833 1.384 . S
N837 C829 1.427 . S
N837 C835 1.384 . S
H838 C844 0.930 . S
H839 C848 0.930 . S
H840 C853 0.929 . S
H841 C851 0.929 . S
H842 C846 0.929 . S
H843 C852 0.929 . S
C844 H838 0.930 . S
C844 C845 1.367 . S
C844 C852 1.378 . S
C845 C844 1.367 . S
C845 C853 1.433 . S
C846 H842 0.929 . S
C846 C848 1.378 . S
C846 C850 1.350 . S
C847 C850 1.463 . S
C847 C852 1.350 . S
C847 N855 1.427 . S
C848 H839 0.930 . S
C848 C846 1.378 . S
C848 C849 1.367 . S
C849 C848 1.367 . S
C849 C851 1.433 . S
C850 C846 1.350 . S
C850 C847 1.463 . S
C850 N854 1.427 . S
C851 H841 0.929 . S
C851 C849 1.433 . S
C851 N854 1.384 . S
C852 H843 0.929 . S
C852 C844 1.378 . S
C852 C847 1.350 . S
C853 H840 0.929 . S
C853 C845 1.433 . S
C853 N855 1.384 . S
N854 C850 1.427 . S
N854 C851 1.384 . S
N855 C847 1.427 . S
N855 C853 1.384 . S
H856 C862 0.930 . S
H857 C866 0.930 . S
H858 C871 0.929 . S
H859 C869 0.929 . S
H860 C864 0.929 . S
H861 C870 0.929 . S
C862 H856 0.930 . S
C862 C863 1.367 . S
C862 C870 1.378 . S
C863 C862 1.367 . S
C863 C871 1.433 . S
C864 H860 0.929 . S
C864 C866 1.378 . S
C864 C868 1.350 . S
C865 C868 1.463 . S
C865 C870 1.350 . S
C865 N873 1.427 . S
C866 H857 0.930 . S
C866 C864 1.378 . S
C866 C867 1.367 . S
C867 C866 1.367 . S
C867 C869 1.433 . S
C868 C864 1.350 . S
C868 C865 1.463 . S
C868 N872 1.427 . S
C869 H859 0.929 . S
C869 C867 1.433 . S
C869 N872 1.384 . S
C870 H861 0.929 . S
C870 C862 1.378 . S
C870 C865 1.350 . S
C871 H858 0.929 . S
C871 C863 1.433 . S
C871 N873 1.384 . S
N872 C868 1.427 . S
N872 C869 1.384 . S
N873 C865 1.427 . S
N873 C871 1.384 . S
H874 C880 0.930 . S
H875 C884 0.930 . S
H876 C889 0.929 . S
H877 C887 0.929 . S
H878 C882 0.929 . S
H879 C888 0.929 . S
C880 H874 0.930 . S
C880 C881 1.367 . S
C880 C888 1.378 . S
C881 C880 1.367 . S
C881 C889 1.433 . S
C882 H878 0.929 . S
C882 C884 1.378 . S
C882 C886 1.350 . S
C883 C886 1.463 . S
C883 C888 1.350 . S
C883 N891 1.427 . S
C884 H875 0.930 . S
C884 C882 1.378 . S
C884 C885 1.367 . S
C885 C884 1.367 . S
C885 C887 1.433 . S
C886 C882 1.350 . S
C886 C883 1.463 . S
C886 N890 1.427 . S
C887 H877 0.929 . S
C887 C885 1.433 . S
C887 N890 1.384 . S
C888 H879 0.929 . S
C888 C880 1.378 . S
C888 C883 1.350 . S
C889 H876 0.929 . S
C889 C881 1.433 . S
C889 N891 1.384 . S
N890 C886 1.427 . S
N890 C887 1.384 . S
N891 C883 1.427 . S
N891 C889 1.384 . S
H892 C898 0.930 . S
H893 C902 0.930 . S
H894 C907 0.929 . S
H895 C905 0.929 . S
H896 C900 0.929 . S
H897 C906 0.929 . S
C898 H892 0.930 . S
C898 C899 1.367 . S
C898 C906 1.378 . S
C899 C898 1.367 . S
C899 C907 1.433 . S
C900 H896 0.929 . S
C900 C902 1.378 . S
C900 C904 1.350 . S
C901 C904 1.463 1_455 S
C901 C906 1.350 . S
C901 N909 1.427 . S
C902 H893 0.930 . S
C902 C900 1.378 . S
C902 C903 1.367 . S
C903 C902 1.367 . S
C903 C905 1.433 . S
C904 C900 1.350 . S
C904 C901 1.463 1_655 S
C904 N908 1.427 . S
C905 H895 0.929 . S
C905 C903 1.433 . S
C905 N908 1.384 . S
C906 H897 0.929 . S
C906 C898 1.378 . S
C906 C901 1.350 . S
C907 H894 0.929 . S
C907 C899 1.433 . S
C907 N909 1.384 . S
N908 C904 1.427 . S
N908 C905 1.384 . S
N909 C901 1.427 . S
N909 C907 1.384 . S
H910 C916 0.930 . S
H911 C920 0.930 . S
H912 C925 0.929 . S
H913 C923 0.929 . S
H914 C918 0.929 . S
H915 C924 0.929 . S
C916 H910 0.930 . S
C916 C917 1.367 . S
C916 C924 1.378 . S
C917 C916 1.367 . S
C917 C925 1.433 . S
C918 H914 0.929 . S
C918 C920 1.378 . S
C918 C922 1.350 . S
C919 C922 1.463 1_554 S
C919 C924 1.350 . S
C919 N927 1.427 . S
C920 H911 0.930 . S
C920 C918 1.378 . S
C920 C921 1.367 . S
C921 C920 1.367 . S
C921 C923 1.433 . S
C922 C918 1.350 . S
C922 C919 1.463 1_556 S
C922 N926 1.427 . S
C923 H913 0.929 . S
C923 C921 1.433 . S
C923 N926 1.384 . S
C924 H915 0.929 . S
C924 C916 1.378 . S
C924 C919 1.350 . S
C925 H912 0.929 . S
C925 C917 1.433 . S
C925 N927 1.384 . S
N926 C922 1.427 . S
N926 C923 1.384 . S
N927 C919 1.427 . S
N927 C925 1.384 . S
H928 C934 0.930 . S
H929 C938 0.930 . S
H930 C943 0.929 . S
H931 C941 0.929 . S
H932 C936 0.929 . S
H933 C942 0.929 . S
C934 H928 0.930 . S
C934 C935 1.367 . S
C934 C942 1.378 . S
C935 C934 1.367 . S
C935 C943 1.433 . S
C936 H932 0.929 . S
C936 C938 1.378 . S
C936 C940 1.350 . S
C937 C940 1.463 . S
C937 C942 1.350 . S
C937 N945 1.427 . S
C938 H929 0.930 . S
C938 C936 1.378 . S
C938 C939 1.367 . S
C939 C938 1.367 . S
C939 C941 1.433 . S
C940 C936 1.350 . S
C940 C937 1.463 . S
C940 N944 1.427 . S
C941 H931 0.929 . S
C941 C939 1.433 . S
C941 N944 1.384 . S
C942 H933 0.929 . S
C942 C934 1.378 . S
C942 C937 1.350 . S
C943 H930 0.929 . S
C943 C935 1.433 . S
C943 N945 1.384 . S
N944 C940 1.427 . S
N944 C941 1.384 . S
N945 C937 1.427 . S
N945 C943 1.384 . S
H946 C952 0.930 . S
H947 C956 0.930 . S
H948 C961 0.929 . S
H949 C959 0.929 . S
H950 C954 0.929 . S
H951 C960 0.929 . S
C952 H946 0.930 . S
C952 C953 1.367 . S
C952 C960 1.378 . S
C953 C952 1.367 . S
C953 C961 1.433 . S
C954 H950 0.929 . S
C954 C956 1.378 . S
C954 C958 1.350 . S
C955 C958 1.463 . S
C955 C960 1.350 . S
C955 N963 1.427 . S
C956 H947 0.930 . S
C956 C954 1.378 . S
C956 C957 1.367 . S
C957 C956 1.367 . S
C957 C959 1.433 . S
C958 C954 1.350 . S
C958 C955 1.463 . S
C958 N962 1.427 . S
C959 H949 0.929 . S
C959 C957 1.433 . S
C959 N962 1.384 . S
C960 H951 0.929 . S
C960 C952 1.378 . S
C960 C955 1.350 . S
C961 H948 0.929 . S
C961 C953 1.433 . S
C961 N963 1.384 . S
N962 C958 1.427 . S
N962 C959 1.384 . S
N963 C955 1.427 . S
N963 C961 1.384 . S
H964 C970 0.930 . S
H965 C974 0.930 . S
H966 C979 0.929 . S
H967 C977 0.929 . S
H968 C972 0.929 . S
H969 C978 0.929 . S
C970 H964 0.930 . S
C970 C971 1.367 . S
C970 C978 1.378 . S
C971 C970 1.367 . S
C971 C979 1.433 . S
C972 H968 0.929 . S
C972 C974 1.378 . S
C972 C976 1.350 . S
C973 C976 1.463 . S
C973 C978 1.350 . S
C973 N981 1.427 . S
C974 H965 0.930 . S
C974 C972 1.378 . S
C974 C975 1.367 . S
C975 C974 1.367 . S
C975 C977 1.433 . S
C976 C972 1.350 . S
C976 C973 1.463 . S
C976 N980 1.427 . S
C977 H967 0.929 . S
C977 C975 1.433 . S
C977 N980 1.384 . S
C978 H969 0.929 . S
C978 C970 1.378 . S
C978 C973 1.350 . S
C979 H966 0.929 . S
C979 C971 1.433 . S
C979 N981 1.384 . S
N980 C976 1.427 . S
N980 C977 1.384 . S
N981 C973 1.427 . S
N981 C979 1.384 . S
H982 C988 0.930 . S
H983 C992 0.930 . S
H984 C997 0.929 . S
H985 C995 0.929 . S
H986 C990 0.929 . S
H987 C996 0.929 . S
C988 H982 0.930 . S
C988 C989 1.367 . S
C988 C996 1.378 . S
C989 C988 1.367 . S
C989 C997 1.433 . S
C990 H986 0.929 . S
C990 C992 1.378 . S
C990 C994 1.350 . S
C991 C994 1.463 . S
C991 C996 1.350 . S
C991 N999 1.427 . S
C992 H983 0.930 . S
C992 C990 1.378 . S
C992 C993 1.367 . S
C993 C992 1.367 . S
C993 C995 1.433 . S
C994 C990 1.350 . S
C994 C991 1.463 . S
C994 N998 1.427 . S
C995 H985 0.929 . S
C995 C993 1.433 . S
C995 N998 1.384 . S
C996 H987 0.929 . S
C996 C988 1.378 . S
C996 C991 1.350 . S
C997 H984 0.929 . S
C997 C989 1.433 . S
C997 N999 1.384 . S
N998 C994 1.427 . S
N998 C995 1.384 . S
N999 C991 1.427 . S
N999 C997 1.384 . S
H1000 C1006 0.930 . S
H1001 C1010 0.930 . S
H1002 C1015 0.929 . S
H1003 C1013 0.929 . S
H1004 C1008 0.929 . S
H1005 C1014 0.929 . S
C1006 H1000 0.930 . S
C1006 C1007 1.367 . S
C1006 C1014 1.378 . S
C1007 C1006 1.367 . S
C1007 C1015 1.433 . S
C1008 H1004 0.929 . S
C1008 C1010 1.378 . S
C1008 C1012 1.350 . S
C1009 C1012 1.463 . S
C1009 C1014 1.350 . S
C1009 N1017 1.427 . S
C1010 H1001 0.930 . S
C1010 C1008 1.378 . S
C1010 C1011 1.367 . S
C1011 C1010 1.367 . S
C1011 C1013 1.433 . S
C1012 C1008 1.350 . S
C1012 C1009 1.463 . S
C1012 N1016 1.427 . S
C1013 H1003 0.929 . S
C1013 C1011 1.433 . S
C1013 N1016 1.384 . S
C1014 H1005 0.929 . S
C1014 C1006 1.378 . S
C1014 C1009 1.350 . S
C1015 H1002 0.929 . S
C1015 C1007 1.433 . S
C1015 N1017 1.384 . S
N1016 C1012 1.427 . S
N1016 C1013 1.384 . S
N1017 C1009 1.427 . S
N1017 C1015 1.384 . S
H1018 C1024 0.930 . S
H1019 C1028 0.930 . S
H1020 C1033 0.929 . S
H1021 C1031 0.929 . S
H1022 C1026 0.929 . S
H1023 C1032 0.929 . S
C1024 H1018 0.930 . S
C1024 C1025 1.367 . S
C1024 C1032 1.378 . S
C1025 C1024 1.367 . S
C1025 C1033 1.433 . S
C1026 H1022 0.929 . S
C1026 C1028 1.378 . S
C1026 C1030 1.350 . S
C1027 C1030 1.463 . S
C1027 C1032 1.350 . S
C1027 N1035 1.427 . S
C1028 H1019 0.930 . S
C1028 C1026 1.378 . S
C1028 C1029 1.367 . S
C1029 C1028 1.367 . S
C1029 C1031 1.433 . S
C1030 C1026 1.350 . S
C1030 C1027 1.463 . S
C1030 N1034 1.427 . S
C1031 H1021 0.929 . S
C1031 C1029 1.433 . S
C1031 N1034 1.384 . S
C1032 H1023 0.929 . S
C1032 C1024 1.378 . S
C1032 C1027 1.350 . S
C1033 H1020 0.929 . S
C1033 C1025 1.433 . S
C1033 N1035 1.384 . S
N1034 C1030 1.427 . S
N1034 C1031 1.384 . S
N1035 C1027 1.427 . S
N1035 C1033 1.384 . S
H1036 C1042 0.930 . S
H1037 C1046 0.930 . S
H1038 C1051 0.929 . S
H1039 C1049 0.929 . S
H1040 C1044 0.929 . S
H1041 C1050 0.929 . S
C1042 H1036 0.930 . S
C1042 C1043 1.367 . S
C1042 C1050 1.378 . S
C1043 C1042 1.367 . S
C1043 C1051 1.433 . S
C1044 H1040 0.929 . S
C1044 C1046 1.378 . S
C1044 C1048 1.350 . S
C1045 C1048 1.463 . S
C1045 C1050 1.350 . S
C1045 N1053 1.427 . S
C1046 H1037 0.930 . S
C1046 C1044 1.378 . S
C1046 C1047 1.367 . S
C1047 C1046 1.367 . S
C1047 C1049 1.433 . S
C1048 C1044 1.350 . S
C1048 C1045 1.463 . S
C1048 N1052 1.427 . S
C1049 H1039 0.929 . S
C1049 C1047 1.433 . S
C1049 N1052 1.384 . S
C1050 H1041 0.929 . S
C1050 C1042 1.378 . S
C1050 C1045 1.350 . S
C1051 H1038 0.929 . S
C1051 C1043 1.433 . S
C1051 N1053 1.384 . S
N1052 C1048 1.427 . S
N1052 C1049 1.384 . S
N1053 C1045 1.427 . S
N1053 C1051 1.384 . S
H1054 C1060 0.930 . S
H1055 C1064 0.930 . S
H1056 C1069 0.929 . S
H1057 C1067 0.929 . S
H1058 C1062 0.929 . S
H1059 C1068 0.929 . S
C1060 H1054 0.930 . S
C1060 C1061 1.367 . S
C1060 C1068 1.378 . S
C1061 C1060 1.367 . S
C1061 C1069 1.433 . S
C1062 H1058 0.929 . S
C1062 C1064 1.378 . S
C1062 C1066 1.350 . S
C1063 C1066 1.463 . S
C1063 C1068 1.350 . S
C1063 N1071 1.427 . S
C1064 H1055 0.930 . S
C1064 C1062 1.378 . S
C1064 C1065 1.367 . S
C1065 C1064 1.367 . S
C1065 C1067 1.433 . S
C1066 C1062 1.350 . S
C1066 C1063 1.463 . S
C1066 N1070 1.427 . S
C1067 H1057 0.929 . S
C1067 C1065 1.433 . S
C1067 N1070 1.384 . S
C1068 H1059 0.929 . S
C1068 C1060 1.378 . S
C1068 C1063 1.350 . S
C1069 H1056 0.929 . S
C1069 C1061 1.433 . S
C1069 N1071 1.384 . S
N1070 C1066 1.427 . S
N1070 C1067 1.384 . S
N1071 C1063 1.427 . S
N1071 C1069 1.384 . S
H1072 C1078 0.930 . S
H1073 C1082 0.930 . S
H1074 C1087 0.929 . S
H1075 C1085 0.929 . S
H1076 C1080 0.929 . S
H1077 C1086 0.929 . S
C1078 H1072 0.930 . S
C1078 C1079 1.367 . S
C1078 C1086 1.378 . S
C1079 C1078 1.367 . S
C1079 C1087 1.433 . S
C1080 H1076 0.929 . S
C1080 C1082 1.378 . S
C1080 C1084 1.350 . S
C1081 C1084 1.463 . S
C1081 C1086 1.350 . S
C1081 N1089 1.427 . S
C1082 H1073 0.930 . S
C1082 C1080 1.378 . S
C1082 C1083 1.367 . S
C1083 C1082 1.367 . S
C1083 C1085 1.433 . S
C1084 C1080 1.350 . S
C1084 C1081 1.463 . S
C1084 N1088 1.427 . S
C1085 H1075 0.929 . S
C1085 C1083 1.433 . S
C1085 N1088 1.384 . S
C1086 H1077 0.929 . S
C1086 C1078 1.378 . S
C1086 C1081 1.350 . S
C1087 H1074 0.929 . S
C1087 C1079 1.433 . S
C1087 N1089 1.384 . S
N1088 C1084 1.427 . S
N1088 C1085 1.384 . S
N1089 C1081 1.427 . S
N1089 C1087 1.384 . S
H1090 C1096 0.930 1_545 S
H1091 C1100 0.930 1_455 S
H1092 C1105 0.929 . S
H1093 C1103 0.929 . S
H1094 C1098 0.929 . S
H1095 C1104 0.929 . S
C1096 H1090 0.930 1_565 S
C1096 C1097 1.367 . S
C1096 C1104 1.378 1_565 S
C1097 C1096 1.367 . S
C1097 C1105 1.433 . S
C1098 H1094 0.929 . S
C1098 C1100 1.378 . S
C1098 C1102 1.350 . S
C1099 C1102 1.463 . S
C1099 C1104 1.350 1_565 S
C1099 N1107 1.427 . S
C1100 H1091 0.930 1_655 S
C1100 C1098 1.378 . S
C1100 C1101 1.372 1_565 S
C1101 C1100 1.372 1_545 S
C1101 C1103 1.437 . S
C1102 C1098 1.350 . S
C1102 C1099 1.463 . S
C1102 N1106 1.427 1_565 S
C1103 H1093 0.929 . S
C1103 C1101 1.437 . S
C1103 N1106 1.384 . S
C1104 H1095 0.929 . S
C1104 C1096 1.378 1_545 S
C1104 C1099 1.350 1_545 S
C1105 H1092 0.929 . S
C1105 C1097 1.433 . S
C1105 N1107 1.384 . S
N1106 C1102 1.427 1_545 S
N1106 C1103 1.384 . S
N1107 C1099 1.427 . S
N1107 C1105 1.384 . S
H1108 C1114 0.930 . S
H1109 C1118 0.930 . S
H1110 C1123 0.929 . S
H1111 C1121 0.929 . S
H1112 C1116 0.929 . S
H1113 C1122 0.929 . S
C1114 H1108 0.930 . S
C1114 C1115 1.367 . S
C1114 C1122 1.378 . S
C1115 C1114 1.367 . S
C1115 C1123 1.433 . S
C1116 H1112 0.929 . S
C1116 C1118 1.378 . S
C1116 C1120 1.350 . S
C1117 C1120 1.463 . S
C1117 C1122 1.350 . S
C1117 N1125 1.427 . S
C1118 H1109 0.930 . S
C1118 C1116 1.378 . S
C1118 C1119 1.367 . S
C1119 C1118 1.367 . S
C1119 C1121 1.433 . S
C1120 C1116 1.350 . S
C1120 C1117 1.463 . S
C1120 N1124 1.427 . S
C1121 H1111 0.929 . S
C1121 C1119 1.433 . S
C1121 N1124 1.384 . S
C1122 H1113 0.929 . S
C1122 C1114 1.378 . S
C1122 C1117 1.350 . S
C1123 H1110 0.929 . S
C1123 C1115 1.433 . S
C1123 N1125 1.384 . S
N1124 C1120 1.427 . S
N1124 C1121 1.384 . S
N1125 C1117 1.427 . S
N1125 C1123 1.384 . S
H1126 C1132 0.930 . S
H1127 C1136 0.930 . S
H1128 C1141 0.929 . S
H1129 C1139 0.929 . S
H1130 C1134 0.929 . S
H1131 C1140 0.929 . S
C1132 H1126 0.930 . S
C1132 C1133 1.367 . S
C1132 C1140 1.378 . S
C1133 C1132 1.367 . S
C1133 C1141 1.433 . S
C1134 H1130 0.929 . S
C1134 C1136 1.378 . S
C1134 C1138 1.350 . S
C1135 C1138 1.463 . S
C1135 C1140 1.350 . S
C1135 N1143 1.427 . S
C1136 H1127 0.930 . S
C1136 C1134 1.378 . S
C1136 C1137 1.367 . S
C1137 C1136 1.367 . S
C1137 C1139 1.433 . S
C1138 C1134 1.350 . S
C1138 C1135 1.463 . S
C1138 N1142 1.427 . S
C1139 H1129 0.929 . S
C1139 C1137 1.433 . S
C1139 N1142 1.384 . S
C1140 H1131 0.929 . S
C1140 C1132 1.378 . S
C1140 C1135 1.350 . S
C1141 H1128 0.929 . S
C1141 C1133 1.433 . S
C1141 N1143 1.384 . S
N1142 C1138 1.427 . S
N1142 C1139 1.384 . S
N1143 C1135 1.427 . S
N1143 C1141 1.384 . S
H1144 C1150 0.930 . S
H1145 C1154 0.930 . S
H1146 C1159 0.929 . S
H1147 C1157 0.929 . S
H1148 C1152 0.929 . S
H1149 C1158 0.929 . S
C1150 H1144 0.930 . S
C1150 C1151 1.367 . S
C1150 C1158 1.378 . S
C1151 C1150 1.367 . S
C1151 C1159 1.433 . S
C1152 H1148 0.929 . S
C1152 C1154 1.378 . S
C1152 C1156 1.350 . S
C1153 C1156 1.463 . S
C1153 C1158 1.350 . S
C1153 N1161 1.427 . S
C1154 H1145 0.930 . S
C1154 C1152 1.378 . S
C1154 C1155 1.367 . S
C1155 C1154 1.367 . S
C1155 C1157 1.433 . S
C1156 C1152 1.350 . S
C1156 C1153 1.463 . S
C1156 N1160 1.427 . S
C1157 H1147 0.929 . S
C1157 C1155 1.433 . S
C1157 N1160 1.384 . S
C1158 H1149 0.929 . S
C1158 C1150 1.378 . S
C1158 C1153 1.350 . S
C1159 H1146 0.929 . S
C1159 C1151 1.433 . S
C1159 N1161 1.384 . S
N1160 C1156 1.427 . S
N1160 C1157 1.384 . S
N1161 C1153 1.427 . S
N1161 C1159 1.384 . S
H1162 C1168 0.930 . S
H1163 C1172 0.930 . S
H1164 C1177 0.929 1_655 S
H1165 C1175 0.929 . S
H1166 C1170 0.929 . S
H1167 C1176 0.929 . S
C1168 H1162 0.930 . S
C1168 C1169 1.386 . S
C1168 C1176 1.378 . S
C1169 C1168 1.386 . S
C1169 C1177 1.435 . S
C1170 H1166 0.929 . S
C1170 C1172 1.378 . S
C1170 C1174 1.350 . S
C1171 C1174 1.463 . S
C1171 C1176 1.350 1_545 S
C1171 N1179 1.427 . S
C1172 H1163 0.930 . S
C1172 C1170 1.378 . S
C1172 C1173 1.367 . S
C1173 C1172 1.367 . S
C1173 C1175 1.433 . S
C1174 C1170 1.350 . S
C1174 C1171 1.463 . S
C1174 N1178 1.427 . S
C1175 H1165 0.929 . S
C1175 C1173 1.433 . S
C1175 N1178 1.384 . S
C1176 H1167 0.929 . S
C1176 C1168 1.378 . S
C1176 C1171 1.350 1_565 S
C1177 H1164 0.929 1_455 S
C1177 C1169 1.435 . S
C1177 N1179 1.384 1_565 S
N1178 C1174 1.427 . S
N1178 C1175 1.384 . S
N1179 C1171 1.427 . S
N1179 C1177 1.384 1_545 S
H1180 C1186 0.930 . S
H1181 C1190 0.930 . S
H1182 C1195 0.929 . S
H1183 C1193 0.929 . S
H1184 C1188 0.929 . S
H1185 C1194 0.929 . S
C1186 H1180 0.930 . S
C1186 C1187 1.367 . S
C1186 C1194 1.378 . S
C1187 C1186 1.367 . S
C1187 C1195 1.433 . S
C1188 H1184 0.929 . S
C1188 C1190 1.378 . S
C1188 C1192 1.350 . S
C1189 C1192 1.463 . S
C1189 C1194 1.350 . S
C1189 N1197 1.427 . S
C1190 H1181 0.930 . S
C1190 C1188 1.378 . S
C1190 C1191 1.367 . S
C1191 C1190 1.367 . S
C1191 C1193 1.433 . S
C1192 C1188 1.350 . S
C1192 C1189 1.463 . S
C1192 N1196 1.427 . S
C1193 H1183 0.929 . S
C1193 C1191 1.433 . S
C1193 N1196 1.384 . S
C1194 H1185 0.929 . S
C1194 C1186 1.378 . S
C1194 C1189 1.350 . S
C1195 H1182 0.929 . S
C1195 C1187 1.433 . S
C1195 N1197 1.384 . S
N1196 C1192 1.427 . S
N1196 C1193 1.384 . S
N1197 C1189 1.427 . S
N1197 C1195 1.384 . S
H1198 C1204 0.930 . S
H1199 C1208 0.930 . S
H1200 C1213 0.929 1_545 S
H1201 C1211 0.929 . S
H1202 C1206 0.929 . S
H1203 C1212 0.929 . S
C1204 H1198 0.930 . S
C1204 C1205 1.367 . S
C1204 C1212 1.378 . S
C1205 C1204 1.367 . S
C1205 C1213 1.433 . S
C1206 H1202 0.929 . S
C1206 C1208 1.378 . S
C1206 C1210 1.350 . S
C1207 C1210 1.463 . S
C1207 C1212 1.350 . S
C1207 N1215 1.427 . S
C1208 H1199 0.930 . S
C1208 C1206 1.378 . S
C1208 C1209 1.367 . S
C1209 C1208 1.367 . S
C1209 C1211 1.433 . S
C1210 C1206 1.350 . S
C1210 C1207 1.463 . S
C1210 N1214 1.427 . S
C1211 H1201 0.929 . S
C1211 C1209 1.433 . S
C1211 N1214 1.384 . S
C1212 H1203 0.929 . S
C1212 C1204 1.378 . S
C1212 C1207 1.350 . S
C1213 H1200 0.929 1_565 S
C1213 C1205 1.433 . S
C1213 N1215 1.384 . S
N1214 C1210 1.427 . S
N1214 C1211 1.384 . S
N1215 C1207 1.427 . S
N1215 C1213 1.384 . S
H1216 C1222 0.930 . S
H1217 C1226 0.930 . S
H1218 C1231 0.929 . S
H1219 C1229 0.929 . S
H1220 C1224 0.929 . S
H1221 C1230 0.929 . S
C1222 H1216 0.930 . S
C1222 C1223 1.367 . S
C1222 C1230 1.378 . S
C1223 C1222 1.367 . S
C1223 C1231 1.433 . S
C1224 H1220 0.929 . S
C1224 C1226 1.378 . S
C1224 C1228 1.350 . S
C1225 C1228 1.463 . S
C1225 C1230 1.350 . S
C1225 N1233 1.427 . S
C1226 H1217 0.930 . S
C1226 C1224 1.378 . S
C1226 C1227 1.367 . S
C1227 C1226 1.367 . S
C1227 C1229 1.433 . S
C1228 C1224 1.350 . S
C1228 C1225 1.463 . S
C1228 N1232 1.427 . S
C1229 H1219 0.929 . S
C1229 C1227 1.433 . S
C1229 N1232 1.384 . S
C1230 H1221 0.929 . S
C1230 C1222 1.378 . S
C1230 C1225 1.350 . S
C1231 H1218 0.929 . S
C1231 C1223 1.433 . S
C1231 N1233 1.384 . S
N1232 C1228 1.427 . S
N1232 C1229 1.384 . S
N1233 C1225 1.427 . S
N1233 C1231 1.384 . S
H1234 C1240 0.930 . S
H1235 C1244 0.930 . S
H1236 C1249 0.929 . S
H1237 C1247 0.929 . S
H1238 C1242 0.929 . S
H1239 C1248 0.929 . S
C1240 H1234 0.930 . S
C1240 C1241 1.367 . S
C1240 C1248 1.378 . S
C1241 C1240 1.367 . S
C1241 C1249 1.433 . S
C1242 H1238 0.929 . S
C1242 C1244 1.378 . S
C1242 C1246 1.350 . S
C1243 C1246 1.463 . S
C1243 C1248 1.350 . S
C1243 N1251 1.427 . S
C1244 H1235 0.930 . S
C1244 C1242 1.378 . S
C1244 C1245 1.367 . S
C1245 C1244 1.367 . S
C1245 C1247 1.433 . S
C1246 C1242 1.350 . S
C1246 C1243 1.463 . S
C1246 N1250 1.427 . S
C1247 H1237 0.929 . S
C1247 C1245 1.433 . S
C1247 N1250 1.384 . S
C1248 H1239 0.929 . S
C1248 C1240 1.378 . S
C1248 C1243 1.350 . S
C1249 H1236 0.929 . S
C1249 C1241 1.433 . S
C1249 N1251 1.384 . S
N1250 C1246 1.427 . S
N1250 C1247 1.384 . S
N1251 C1243 1.427 . S
N1251 C1249 1.384 . S
H1252 C1258 0.930 . S
H1253 C1262 0.930 . S
H1254 C1267 0.929 . S
H1255 C1265 0.929 . S
H1256 C1260 0.929 . S
H1257 C1266 0.929 . S
C1258 H1252 0.930 . S
C1258 C1259 1.367 . S
C1258 C1266 1.378 . S
C1259 C1258 1.367 . S
C1259 C1267 1.433 . S
C1260 H1256 0.929 . S
C1260 C1262 1.378 . S
C1260 C1264 1.350 . S
C1261 C1264 1.463 . S
C1261 C1266 1.350 . S
C1261 N1269 1.427 . S
C1262 H1253 0.930 . S
C1262 C1260 1.378 . S
C1262 C1263 1.367 . S
C1263 C1262 1.367 . S
C1263 C1265 1.433 . S
C1264 C1260 1.350 . S
C1264 C1261 1.463 . S
C1264 N1268 1.427 . S
C1265 H1255 0.929 . S
C1265 C1263 1.433 . S
C1265 N1268 1.384 . S
C1266 H1257 0.929 . S
C1266 C1258 1.378 . S
C1266 C1261 1.350 . S
C1267 H1254 0.929 . S
C1267 C1259 1.433 . S
C1267 N1269 1.384 . S
N1268 C1264 1.427 . S
N1268 C1265 1.384 . S
N1269 C1261 1.427 . S
N1269 C1267 1.384 . S
H1270 C1276 0.930 . S
H1271 C1280 0.930 . S
H1272 C1285 0.929 . S
H1273 C1283 0.929 . S
H1274 C1278 0.929 . S
H1275 C1284 0.929 . S
C1276 H1270 0.930 . S
C1276 C1277 1.367 . S
C1276 C1284 1.378 . S
C1277 C1276 1.367 . S
C1277 C1285 1.433 . S
C1278 H1274 0.929 . S
C1278 C1280 1.378 . S
C1278 C1282 1.350 . S
C1279 C1282 1.463 . S
C1279 C1284 1.350 . S
C1279 N1287 1.427 . S
C1280 H1271 0.930 . S
C1280 C1278 1.378 . S
C1280 C1281 1.367 . S
C1281 C1280 1.367 . S
C1281 C1283 1.433 . S
C1282 C1278 1.350 . S
C1282 C1279 1.463 . S
C1282 N1286 1.427 . S
C1283 H1273 0.929 . S
C1283 C1281 1.433 . S
C1283 N1286 1.384 . S
C1284 H1275 0.929 . S
C1284 C1276 1.378 . S
C1284 C1279 1.350 . S
C1285 H1272 0.929 . S
C1285 C1277 1.433 . S
C1285 N1287 1.384 . S
N1286 C1282 1.427 . S
N1286 C1283 1.384 . S
N1287 C1279 1.427 . S
N1287 C1285 1.384 . S
H1288 C1294 0.930 . S
H1289 C1298 0.930 . S
H1290 C1303 0.929 . S
H1291 C1301 0.929 . S
H1292 C1296 0.929 . S
H1293 C1302 0.929 . S
C1294 H1288 0.930 . S
C1294 C1295 1.367 . S
C1294 C1302 1.378 . S
C1295 C1294 1.367 . S
C1295 C1303 1.433 . S
C1296 H1292 0.929 . S
C1296 C1298 1.378 . S
C1296 C1300 1.350 . S
C1297 C1300 1.463 . S
C1297 C1302 1.350 . S
C1297 N1305 1.427 . S
C1298 H1289 0.930 . S
C1298 C1296 1.378 . S
C1298 C1299 1.367 . S
C1299 C1298 1.367 . S
C1299 C1301 1.433 . S
C1300 C1296 1.350 . S
C1300 C1297 1.463 . S
C1300 N1304 1.427 . S
C1301 H1291 0.929 . S
C1301 C1299 1.433 . S
C1301 N1304 1.384 . S
C1302 H1293 0.929 . S
C1302 C1294 1.378 . S
C1302 C1297 1.350 . S
C1303 H1290 0.929 . S
C1303 C1295 1.433 . S
C1303 N1305 1.384 . S
N1304 C1300 1.427 . S
N1304 C1301 1.384 . S
N1305 C1297 1.427 . S
N1305 C1303 1.384 . S
H1306 C1312 0.930 . S
H1307 C1316 0.930 . S
H1308 C1321 0.929 . S
H1309 C1319 0.929 . S
H1310 C1314 0.929 . S
H1311 C1320 0.929 . S
C1312 H1306 0.930 . S
C1312 C1313 1.367 . S
C1312 C1320 1.378 . S
C1313 C1312 1.367 . S
C1313 C1321 1.433 . S
C1314 H1310 0.929 . S
C1314 C1316 1.378 . S
C1314 C1318 1.350 . S
C1315 C1318 1.463 . S
C1315 C1320 1.350 . S
C1315 N1323 1.427 . S
C1316 H1307 0.930 . S
C1316 C1314 1.378 . S
C1316 C1317 1.367 . S
C1317 C1316 1.367 . S
C1317 C1319 1.433 . S
C1318 C1314 1.350 . S
C1318 C1315 1.463 . S
C1318 N1322 1.427 . S
C1319 H1309 0.929 . S
C1319 C1317 1.433 . S
C1319 N1322 1.384 . S
C1320 H1311 0.929 . S
C1320 C1312 1.378 . S
C1320 C1315 1.350 . S
C1321 H1308 0.929 . S
C1321 C1313 1.433 . S
C1321 N1323 1.384 . S
N1322 C1318 1.427 . S
N1322 C1319 1.384 . S
N1323 C1315 1.427 . S
N1323 C1321 1.384 . S
H1324 C1330 0.930 . S
H1325 C1334 0.930 . S
H1326 C1339 0.929 . S
H1327 C1337 0.929 . S
H1328 C1332 0.929 . S
H1329 C1338 0.929 . S
C1330 H1324 0.930 . S
C1330 C1331 1.367 . S
C1330 C1338 1.378 . S
C1331 C1330 1.367 . S
C1331 C1339 1.433 . S
C1332 H1328 0.929 . S
C1332 C1334 1.378 . S
C1332 C1336 1.350 . S
C1333 C1336 1.463 . S
C1333 C1338 1.350 . S
C1333 N1341 1.427 . S
C1334 H1325 0.930 . S
C1334 C1332 1.378 . S
C1334 C1335 1.367 . S
C1335 C1334 1.367 . S
C1335 C1337 1.433 . S
C1336 C1332 1.350 . S
C1336 C1333 1.463 . S
C1336 N1340 1.427 . S
C1337 H1327 0.929 . S
C1337 C1335 1.433 . S
C1337 N1340 1.384 . S
C1338 H1329 0.929 . S
C1338 C1330 1.378 . S
C1338 C1333 1.350 . S
C1339 H1326 0.929 . S
C1339 C1331 1.433 . S
C1339 N1341 1.384 . S
N1340 C1336 1.427 . S
N1340 C1337 1.384 . S
N1341 C1333 1.427 . S
N1341 C1339 1.384 . S
H1342 C1348 0.930 . S
H1343 C1352 0.930 . S
H1344 C1357 0.929 . S
H1345 C1355 0.929 . S
H1346 C1350 0.929 . S
H1347 C1356 0.929 . S
C1348 H1342 0.930 . S
C1348 C1349 1.367 . S
C1348 C1356 1.378 . S
C1349 C1348 1.367 . S
C1349 C1357 1.433 . S
C1350 H1346 0.929 . S
C1350 C1352 1.378 . S
C1350 C1354 1.350 . S
C1351 C1354 1.463 . S
C1351 C1356 1.350 . S
C1351 N1359 1.427 . S
C1352 H1343 0.930 . S
C1352 C1350 1.378 . S
C1352 C1353 1.367 . S
C1353 C1352 1.367 . S
C1353 C1355 1.433 . S
C1354 C1350 1.350 . S
C1354 C1351 1.463 . S
C1354 N1358 1.427 . S
C1355 H1345 0.929 . S
C1355 C1353 1.433 . S
C1355 N1358 1.384 . S
C1356 H1347 0.929 . S
C1356 C1348 1.378 . S
C1356 C1351 1.350 . S
C1357 H1344 0.929 . S
C1357 C1349 1.433 . S
C1357 N1359 1.384 . S
N1358 C1354 1.427 . S
N1358 C1355 1.384 . S
N1359 C1351 1.427 . S
N1359 C1357 1.384 . S
H1360 C1366 0.930 . S
H1361 C1370 0.930 . S
H1362 C1375 0.929 . S
H1363 C1373 0.929 . S
H1364 C1368 0.929 . S
H1365 C1374 0.929 . S
C1366 H1360 0.930 . S
C1366 C1367 1.367 . S
C1366 C1374 1.378 . S
C1367 C1366 1.367 . S
C1367 C1375 1.433 . S
C1368 H1364 0.929 . S
C1368 C1370 1.378 . S
C1368 C1372 1.350 . S
C1369 C1372 1.463 . S
C1369 C1374 1.350 . S
C1369 N1377 1.427 . S
C1370 H1361 0.930 . S
C1370 C1368 1.378 . S
C1370 C1371 1.367 . S
C1371 C1370 1.367 . S
C1371 C1373 1.433 . S
C1372 C1368 1.350 . S
C1372 C1369 1.463 . S
C1372 N1376 1.427 . S
C1373 H1363 0.929 . S
C1373 C1371 1.433 . S
C1373 N1376 1.384 . S
C1374 H1365 0.929 . S
C1374 C1366 1.378 . S
C1374 C1369 1.350 . S
C1375 H1362 0.929 . S
C1375 C1367 1.433 . S
C1375 N1377 1.384 . S
N1376 C1372 1.427 . S
N1376 C1373 1.384 . S
N1377 C1369 1.427 . S
N1377 C1375 1.384 . S
H1378 C1384 0.930 . S
H1379 C1388 0.932 . S
H1380 C1393 0.929 . S
H1381 C1391 0.929 . S
H1382 C1386 0.929 . S
H1383 C1392 0.929 . S
C1384 H1378 0.930 . S
C1384 C1385 1.367 . S
C1384 C1392 1.378 . S
C1385 C1384 1.367 . S
C1385 C1393 1.433 . S
C1386 H1382 0.929 . S
C1386 C1388 1.378 . S
C1386 C1390 1.350 . S
C1387 C1390 1.463 . S
C1387 C1392 1.350 . S
C1387 N1395 1.427 . S
C1388 H1379 0.932 . S
C1388 C1386 1.378 . S
C1388 C1389 1.367 1_565 S
C1389 C1388 1.367 1_545 S
C1389 C1391 1.433 . S
C1390 C1386 1.350 . S
C1390 C1387 1.463 . S
C1390 N1394 1.427 . S
C1391 H1381 0.929 . S
C1391 C1389 1.433 . S
C1391 N1394 1.384 1_545 S
C1392 H1383 0.929 . S
C1392 C1384 1.378 . S
C1392 C1387 1.350 . S
C1393 H1380 0.929 . S
C1393 C1385 1.433 . S
C1393 N1395 1.384 . S
N1394 C1390 1.427 . S
N1394 C1391 1.384 1_565 S
N1395 C1387 1.427 . S
N1395 C1393 1.384 . S
H1396 C1402 0.930 . S
H1397 C1406 0.930 . S
H1398 C1411 0.929 . S
H1399 C1409 0.929 . S
H1400 C1404 0.929 . S
H1401 C1410 0.929 . S
C1402 H1396 0.930 . S
C1402 C1403 1.367 . S
C1402 C1410 1.378 . S
C1403 C1402 1.367 . S
C1403 C1411 1.433 . S
C1404 H1400 0.929 . S
C1404 C1406 1.378 . S
C1404 C1408 1.350 . S
C1405 C1408 1.463 . S
C1405 C1410 1.350 . S
C1405 N1413 1.427 . S
C1406 H1397 0.930 . S
C1406 C1404 1.378 . S
C1406 C1407 1.367 . S
C1407 C1406 1.367 . S
C1407 C1409 1.433 . S
C1408 C1404 1.350 . S
C1408 C1405 1.463 . S
C1408 N1412 1.427 . S
C1409 H1399 0.929 . S
C1409 C1407 1.433 . S
C1409 N1412 1.384 . S
C1410 H1401 0.929 . S
C1410 C1402 1.378 . S
C1410 C1405 1.350 . S
C1411 H1398 0.929 . S
C1411 C1403 1.433 . S
C1411 N1413 1.384 . S
N1412 C1408 1.427 . S
N1412 C1409 1.384 . S
N1413 C1405 1.427 . S
N1413 C1411 1.384 . S
H1414 C1420 0.930 . S
H1415 C1424 0.930 1_565 S
H1416 C1429 0.929 . S
H1417 C1427 0.929 . S
H1418 C1422 0.929 . S
H1419 C1428 0.929 . S
C1420 H1414 0.930 . S
C1420 C1421 1.367 . S
C1420 C1428 1.378 . S
C1421 C1420 1.367 . S
C1421 C1429 1.433 1_545 S
C1422 H1418 0.929 . S
C1422 C1424 1.378 1_565 S
C1422 C1426 1.350 1_565 S
C1423 C1426 1.463 . S
C1423 C1428 1.350 . S
C1423 N1431 1.427 1_545 S
C1424 H1415 0.930 1_545 S
C1424 C1422 1.378 1_545 S
C1424 C1425 1.367 . S
C1425 C1424 1.367 . S
C1425 C1427 1.433 . S
C1426 C1422 1.350 1_545 S
C1426 C1423 1.463 . S
C1426 N1430 1.427 . S
C1427 H1417 0.929 . S
C1427 C1425 1.433 . S
C1427 N1430 1.384 . S
C1428 H1419 0.929 . S
C1428 C1420 1.378 . S
C1428 C1423 1.350 . S
C1429 H1416 0.929 . S
C1429 C1421 1.433 1_565 S
C1429 N1431 1.384 . S
N1430 C1426 1.427 . S
N1430 C1427 1.384 . S
N1431 C1423 1.427 1_565 S
N1431 C1429 1.384 . S
H1432 C1438 0.930 . S
H1433 C1442 0.930 . S
H1434 C1447 0.929 . S
H1435 C1445 0.929 . S
H1436 C1440 0.929 . S
H1437 C1446 0.929 . S
C1438 H1432 0.930 . S
C1438 C1439 1.367 . S
C1438 C1446 1.378 . S
C1439 C1438 1.367 . S
C1439 C1447 1.433 . S
C1440 H1436 0.929 . S
C1440 C1442 1.378 . S
C1440 C1444 1.350 . S
C1441 C1444 1.463 . S
C1441 C1446 1.350 . S
C1441 N1449 1.427 . S
C1442 H1433 0.930 . S
C1442 C1440 1.378 . S
C1442 C1443 1.367 . S
C1443 C1442 1.367 . S
C1443 C1445 1.433 . S
C1444 C1440 1.350 . S
C1444 C1441 1.463 . S
C1444 N1448 1.427 . S
C1445 H1435 0.929 . S
C1445 C1443 1.433 . S
C1445 N1448 1.384 . S
C1446 H1437 0.929 . S
C1446 C1438 1.378 . S
C1446 C1441 1.350 . S
C1447 H1434 0.929 . S
C1447 C1439 1.433 . S
C1447 N1449 1.384 . S
N1448 C1444 1.427 . S
N1448 C1445 1.384 . S
N1449 C1441 1.427 . S
N1449 C1447 1.384 . S
H1450 C1456 0.930 . S
H1451 C1460 0.930 . S
H1452 C1465 0.929 . S
H1453 C1463 0.929 . S
H1454 C1458 0.929 . S
H1455 C1464 0.929 . S
C1456 H1450 0.930 . S
C1456 C1457 1.367 . S
C1456 C1464 1.378 . S
C1457 C1456 1.367 . S
C1457 C1465 1.433 . S
C1458 H1454 0.929 . S
C1458 C1460 1.378 . S
C1458 C1462 1.350 . S
C1459 C1462 1.463 . S
C1459 C1464 1.350 . S
C1459 N1467 1.427 . S
C1460 H1451 0.930 . S
C1460 C1458 1.378 . S
C1460 C1461 1.367 1_545 S
C1461 C1460 1.367 1_565 S
C1461 C1463 1.433 . S
C1462 C1458 1.350 . S
C1462 C1459 1.463 . S
C1462 N1466 1.427 1_545 S
C1463 H1453 0.929 . S
C1463 C1461 1.433 . S
C1463 N1466 1.384 . S
C1464 H1455 0.929 . S
C1464 C1456 1.378 . S
C1464 C1459 1.350 . S
C1465 H1452 0.929 . S
C1465 C1457 1.433 . S
C1465 N1467 1.384 . S
N1466 C1462 1.427 1_565 S
N1466 C1463 1.384 . S
N1467 C1459 1.427 . S
N1467 C1465 1.384 . S
H1468 C1474 0.930 . S
H1469 C1478 0.930 . S
H1470 C1483 0.929 . S
H1471 C1481 0.929 . S
H1472 C1476 0.929 . S
H1473 C1482 0.929 . S
C1474 H1468 0.930 . S
C1474 C1475 1.367 . S
C1474 C1482 1.378 . S
C1475 C1474 1.367 . S
C1475 C1483 1.433 . S
C1476 H1472 0.929 . S
C1476 C1478 1.378 . S
C1476 C1480 1.350 . S
C1477 C1480 1.463 . S
C1477 C1482 1.350 . S
C1477 N1485 1.427 . S
C1478 H1469 0.930 . S
C1478 C1476 1.378 . S
C1478 C1479 1.367 . S
C1479 C1478 1.367 . S
C1479 C1481 1.433 . S
C1480 C1476 1.350 . S
C1480 C1477 1.463 . S
C1480 N1484 1.427 . S
C1481 H1471 0.929 . S
C1481 C1479 1.433 . S
C1481 N1484 1.384 . S
C1482 H1473 0.929 . S
C1482 C1474 1.378 . S
C1482 C1477 1.350 . S
C1483 H1470 0.929 . S
C1483 C1475 1.433 . S
C1483 N1485 1.384 . S
N1484 C1480 1.427 . S
N1484 C1481 1.384 . S
N1485 C1477 1.427 . S
N1485 C1483 1.384 . S
H1486 C1492 0.930 . S
H1487 C1496 0.930 . S
H1488 C1501 0.929 . S
H1489 C1499 0.929 . S
H1490 C1494 0.929 . S
H1491 C1500 0.929 . S
C1492 H1486 0.930 . S
C1492 C1493 1.367 . S
C1492 C1500 1.378 . S
C1493 C1492 1.367 . S
C1493 C1501 1.433 . S
C1494 H1490 0.929 . S
C1494 C1496 1.378 . S
C1494 C1498 1.350 . S
C1495 C1498 1.463 . S
C1495 C1500 1.350 . S
C1495 N1503 1.427 . S
C1496 H1487 0.930 . S
C1496 C1494 1.378 . S
C1496 C1497 1.367 . S
C1497 C1496 1.367 . S
C1497 C1499 1.433 1_565 S
C1498 C1494 1.350 . S
C1498 C1495 1.463 . S
C1498 N1502 1.427 . S
C1499 H1489 0.929 . S
C1499 C1497 1.433 1_545 S
C1499 N1502 1.384 1_545 S
C1500 H1491 0.929 . S
C1500 C1492 1.378 . S
C1500 C1495 1.350 . S
C1501 H1488 0.929 . S
C1501 C1493 1.433 . S
C1501 N1503 1.384 . S
N1502 C1498 1.427 . S
N1502 C1499 1.384 1_565 S
N1503 C1495 1.427 . S
N1503 C1501 1.384 . S
C647 C9 0.683 . S
C651 C409 0.694 . S
C665 C49 0.746 . S
C669 C458 0.283 . S
C683 C89 0.715 . S
C687 C329 0.686 . S
C701 C369 0.744 . S
C705 C138 0.270 . S
C719 C178 0.707 . S
C723 C578 0.677 . S
C737 C609 0.248 . S
C741 C218 0.787 . S
C755 C498 0.680 . S
C759 C258 0.716 . S
C773 C289 0.250 . S
C777 C538 0.759 . S
C791 C19 3.589 . S
C795 C170 3.589 . S
C809 C59 2.905 . S
C813 C530 2.905 . S
C827 C99 2.381 . S
C831 C250 2.381 . S
C845 C126 1.644 . S
C849 C615 1.644 . S
C863 C210 2.908 . S
C867 C379 2.908 . S
C881 C446 1.641 . S
C885 C295 1.641 . S
C899 C490 3.586 . S
C903 C339 3.586 . S
C917 C419 2.375 . S
C921 C570 2.375 . S
C935 C10 1.543 . S
C939 C298 1.555 . S
C953 C50 1.785 . S
C957 C489 1.791 . S
C971 C90 1.618 . S
C975 C209 1.612 . S
C989 C135 0.711 . S
C993 C569 0.705 . S
C1007 C129 1.552 . S
C1011 C179 1.546 . S
C1025 C219 1.791 . S
C1029 C338 1.801 . S
C1043 C259 1.624 . S
C1047 C58 1.615 . S
C1061 C418 0.733 . S
C1065 C286 0.722 . S
C1079 C330 1.554 . S
C1083 C618 1.544 . S
C1097 C169 1.796 . S
C1101 C370 1.776 1_655 S
C1115 C529 1.616 . S
C1119 C410 1.624 . S
C1133 C249 0.731 . S
C1137 C455 0.723 . S
C1151 C499 1.543 . S
C1155 C449 1.555 . S
C1169 C539 1.761 1_455 S
C1173 C18 1.790 . S
C1187 C378 1.617 . S
C1191 C579 1.623 . S
C1205 C606 0.717 . S
C1209 C98 0.731 . S
C1223 C15 1.572 . S
C1227 C366 1.538 . S
C1241 C406 1.652 . S
C1245 C55 1.686 . S
C1259 C95 1.741 . S
C1263 C459 1.720 . S
C1277 C326 2.252 . S
C1281 C130 2.237 . S
C1295 C535 1.535 . S
C1299 C166 1.572 . S
C1313 C575 1.641 . S
C1317 C206 1.677 . S
C1331 C610 1.708 . S
C1335 C246 1.731 . S
C1349 C495 2.250 . S
C1353 C299 2.235 . S
C1367 C46 1.542 . S
C1371 C335 1.578 . S
C1385 C86 1.640 . S
C1389 C375 1.676 . S
C1403 C139 1.720 . S
C1407 C415 1.741 . S
C1421 C450 2.233 1_545 S
C1425 C6 2.249 . S
C1439 C215 1.554 . S
C1443 C486 1.588 . S
C1457 C255 1.638 . S
C1461 C526 1.675 . S
C1475 C290 1.718 . S
C1479 C566 1.739 . S
C1493 C175 2.250 . S
C1497 C619 2.232 1_565 S
