# Generated by pormake.
# Topology ung, (4)-cn, num edge types: 1
# Building blocks:
#     Node 0, Type 0, BuildingBlock: ESEHIV_clean_sbu_0, # of connection points: 4
#     Node 1, Type 0, BuildingBlock: ESEHIV_clean_sbu_0, # of connection points: 4
#     Node 2, Type 0, BuildingBlock: ESEHIV_clean_sbu_0, # of connection points: 4
#     Node 3, Type 0, BuildingBlock: ESEHIV_clean_sbu_0, # of connection points: 4
#     Node 4, Type 0, BuildingBlock: ESEHIV_clean_sbu_0, # of connection points: 4
#     Node 5, Type 0, BuildingBlock: ESEHIV_clean_sbu_0, # of connection points: 4
#     Node 6, Type 0, BuildingBlock: ESEHIV_clean_sbu_0, # of connection points: 4
#     Node 7, Type 0, BuildingBlock: ESEHIV_clean_sbu_0, # of connection points: 4
#     Node 8, Type 0, BuildingBlock: ESEHIV_clean_sbu_0, # of connection points: 4
#     Node 9, Type 0, BuildingBlock: ESEHIV_clean_sbu_0, # of connection points: 4
#     Node 10, Type 0, BuildingBlock: ESEHIV_clean_sbu_0, # of connection points: 4
#     Node 11, Type 0, BuildingBlock: ESEHIV_clean_sbu_0, # of connection points: 4
#     Node 12, Type 0, BuildingBlock: ESEHIV_clean_sbu_0, # of connection points: 4
#     Node 13, Type 0, BuildingBlock: ESEHIV_clean_sbu_0, # of connection points: 4
#     Node 14, Type 0, BuildingBlock: ESEHIV_clean_sbu_0, # of connection points: 4
#     Node 15, Type 0, BuildingBlock: ESEHIV_clean_sbu_0, # of connection points: 4
#     Node 16, Type 0, BuildingBlock: ESEHIV_clean_sbu_0, # of connection points: 4
#     Node 17, Type 0, BuildingBlock: ESEHIV_clean_sbu_0, # of connection points: 4
#     Edge 18, Type (0, 0), BuildingBlock: ZUJKAS_clean_linker_0, # of connection points: 2
#     Edge 19, Type (0, 0), BuildingBlock: ZUJKAS_clean_linker_0, # of connection points: 2
#     Edge 20, Type (0, 0), BuildingBlock: ZUJKAS_clean_linker_0, # of connection points: 2
#     Edge 21, Type (0, 0), BuildingBlock: ZUJKAS_clean_linker_0, # of connection points: 2
#     Edge 22, Type (0, 0), BuildingBlock: ZUJKAS_clean_linker_0, # of connection points: 2
#     Edge 23, Type (0, 0), BuildingBlock: ZUJKAS_clean_linker_0, # of connection points: 2
#     Edge 24, Type (0, 0), BuildingBlock: ZUJKAS_clean_linker_0, # of connection points: 2
#     Edge 25, Type (0, 0), BuildingBlock: ZUJKAS_clean_linker_0, # of connection points: 2
#     Edge 26, Type (0, 0), BuildingBlock: ZUJKAS_clean_linker_0, # of connection points: 2
#     Edge 27, Type (0, 0), BuildingBlock: ZUJKAS_clean_linker_0, # of connection points: 2
#     Edge 28, Type (0, 0), BuildingBlock: ZUJKAS_clean_linker_0, # of connection points: 2
#     Edge 29, Type (0, 0), BuildingBlock: ZUJKAS_clean_linker_0, # of connection points: 2
#     Edge 30, Type (0, 0), BuildingBlock: ZUJKAS_clean_linker_0, # of connection points: 2
#     Edge 31, Type (0, 0), BuildingBlock: ZUJKAS_clean_linker_0, # of connection points: 2
#     Edge 32, Type (0, 0), BuildingBlock: ZUJKAS_clean_linker_0, # of connection points: 2
#     Edge 33, Type (0, 0), BuildingBlock: ZUJKAS_clean_linker_0, # of connection points: 2
#     Edge 34, Type (0, 0), BuildingBlock: ZUJKAS_clean_linker_0, # of connection points: 2
#     Edge 35, Type (0, 0), BuildingBlock: ZUJKAS_clean_linker_0, # of connection points: 2
#     Edge 36, Type (0, 0), BuildingBlock: ZUJKAS_clean_linker_0, # of connection points: 2
#     Edge 37, Type (0, 0), BuildingBlock: ZUJKAS_clean_linker_0, # of connection points: 2
#     Edge 38, Type (0, 0), BuildingBlock: ZUJKAS_clean_linker_0, # of connection points: 2
#     Edge 39, Type (0, 0), BuildingBlock: ZUJKAS_clean_linker_0, # of connection points: 2
#     Edge 40, Type (0, 0), BuildingBlock: ZUJKAS_clean_linker_0, # of connection points: 2
#     Edge 41, Type (0, 0), BuildingBlock: ZUJKAS_clean_linker_0, # of connection points: 2
#     Edge 42, Type (0, 0), BuildingBlock: ZUJKAS_clean_linker_0, # of connection points: 2
#     Edge 43, Type (0, 0), BuildingBlock: ZUJKAS_clean_linker_0, # of connection points: 2
#     Edge 44, Type (0, 0), BuildingBlock: ZUJKAS_clean_linker_0, # of connection points: 2
#     Edge 45, Type (0, 0), BuildingBlock: ZUJKAS_clean_linker_0, # of connection points: 2
#     Edge 46, Type (0, 0), BuildingBlock: ZUJKAS_clean_linker_0, # of connection points: 2
#     Edge 47, Type (0, 0), BuildingBlock: ZUJKAS_clean_linker_0, # of connection points: 2
#     Edge 48, Type (0, 0), BuildingBlock: ZUJKAS_clean_linker_0, # of connection points: 2
#     Edge 49, Type (0, 0), BuildingBlock: ZUJKAS_clean_linker_0, # of connection points: 2
#     Edge 50, Type (0, 0), BuildingBlock: ZUJKAS_clean_linker_0, # of connection points: 2
#     Edge 51, Type (0, 0), BuildingBlock: ZUJKAS_clean_linker_0, # of connection points: 2
#     Edge 52, Type (0, 0), BuildingBlock: ZUJKAS_clean_linker_0, # of connection points: 2
#     Edge 53, Type (0, 0), BuildingBlock: ZUJKAS_clean_linker_0, # of connection points: 2
# Relax obj value: 0.011
# Max RMSD: 0.182
# Mean RMSD: 0.159
data_MOF--net-ung--node1-ESEHIV_clean_sbu_0--edge1-ZUJKAS_clean_linker_0
_symmetry_space_group_name_H-M    P1
_symmetry_Int_Tables_number       1
_symmetry_cell_setting            triclinic
loop_
_symmetry_equiv_pos_as_xyz
'x, y, z'
_cell_length_a     114.12115
_cell_length_b     111.90794
_cell_length_c     27.11887
_cell_angle_alpha  95.442507
_cell_angle_beta   87.253609
_cell_angle_gamma 122.00377
loop_
_atom_site_label
_atom_site_type_symbol
_atom_site_fract_x
_atom_site_fract_y
_atom_site_fract_z
_atom_type_partial_charge
Cu0 Cu 0.04789 0.59865 0.25102 0.0
N1 N 0.04355 0.58936 0.3093 0.0
N2 N 0.04295 0.5765 0.36905 0.0
C3 C 0.04773 0.58096 0.32351 0.0
C4 C 0.03542 0.5823 0.38363 0.0
C5 C 0.03584 0.59021 0.34686 0.0
O6 O 0.05068 0.58744 0.19742 0.0
C7 C 0.072 0.62242 0.29826 0.0
O8 O 0.07229 0.61295 0.32243 0.0
H9 H 0.05442 0.57847 0.30139 0.0
H10 H 0.03092 0.59625 0.34753 0.0
N11 N 0.03274 0.59941 0.23251 0.0
N12 N 1.02013 0.60655 0.19905 0.0
C13 C 0.03299 0.60975 0.20971 0.0
C14 C 1.0193 0.58937 0.23659 0.0
C15 C 1.01151 0.59373 0.21604 0.0
C16 C 0.06087 0.58575 0.19204 0.0
O17 O 0.07136 0.59277 0.22292 0.0
H18 H 0.04244 0.61922 0.19988 0.0
H19 H 1.01547 0.57948 0.25282 0.0
O20 O 0.0631 0.61828 0.2639 0.0
H21 H 0.02991 0.58091 0.41829 0.0
H22 H 1.00034 0.58789 0.21385 0.0
Cu23 Cu 0.49177 0.46995 0.2195 0.0
N24 N 0.4974 0.4812 0.16586 0.0
N25 N 0.5106 0.49516 0.10684 0.0
C26 C 0.50995 0.48764 0.14427 0.0
C27 C 0.49796 0.49338 0.10511 0.0
C28 C 0.48989 0.48484 0.14156 0.0
O29 O 0.50776 0.47894 0.26428 0.0
C30 C 0.47621 0.44504 0.15973 0.0
O31 O 0.47163 0.45271 0.14524 0.0
H32 H 0.51839 0.48674 0.15567 0.0
H33 H 0.47929 0.48158 0.15 0.0
N34 N 0.47706 0.4704 0.25156 0.0
N35 N 0.45713 0.46414 0.291 0.0
C36 C 0.46517 0.45964 0.26881 0.0
C37 C 0.47656 0.48206 0.26333 0.0
C38 C 0.46433 0.47826 0.28751 0.0
C39 C 0.50695 0.48091 0.31112 0.0
O40 O 0.49472 0.47497 0.33205 0.0
H41 H 0.46248 0.44876 0.26495 0.0
H42 H 0.48464 0.49263 0.25533 0.0
O43 O 0.48538 0.45042 0.19381 0.0
H44 H 0.49483 0.49815 0.07997 0.0
H45 H 0.46117 0.48544 0.30234 0.0
Cu46 Cu 0.61569 0.02676 0.32961 0.0
N47 N 0.60459 0.02079 0.27259 0.0
N48 N 0.59181 0.02012 0.21087 0.0
C49 C 0.59896 0.02727 0.25294 0.0
C50 C 0.59304 1.00872 0.20387 0.0
C51 C 0.6009 1.00918 0.24181 0.0
O52 O 0.60622 0.03084 0.38454 0.0
C53 C 0.64 0.03943 0.27648 0.0
O54 O 0.63307 0.02684 0.25258 0.0
H55 H 0.60032 0.03717 0.26854 0.0
H56 H 0.60383 1.00161 0.24632 0.0
N57 N 0.61703 1.01179 0.34784 0.0
N58 N 0.62488 0.99953 0.37946 0.0
C59 C 0.62805 1.01232 0.36665 0.0
C60 C 0.60657 0.99827 0.34884 0.0
C61 C 0.61136 0.99068 0.36802 0.0
C62 C 0.60333 0.04044 0.38851 0.0
O63 O 0.60821 0.04988 0.35571 0.0
H64 H 0.63804 0.02198 0.37241 0.0
H65 H 0.59609 0.99427 0.3373 0.0
O66 O 0.63431 0.04219 0.3138 0.0
H67 H 0.58847 1.00054 0.17374 0.0
H68 H 0.60529 0.97951 0.37332 0.0
Cu69 Cu 0.06001 0.46328 0.75757 0.0
N70 N 0.06595 0.47451 0.70383 0.0
N71 N 0.0672 0.4884 0.64689 0.0
C72 C 0.06137 0.48259 0.68986 0.0
C73 C 0.07578 0.48377 0.63361 0.0
C74 C 0.07495 0.4752 0.6686 0.0
O75 O 0.05455 0.47259 0.81071 0.0
C76 C 0.03815 0.43335 0.75346 0.0
O77 O 0.03929 0.43406 0.80177 0.0
H78 H 0.05359 0.4838 0.71 0.0
H79 H 0.08034 0.46964 0.66798 0.0
N80 N 0.07489 0.46243 0.78034 0.0
N81 N 0.08759 0.45643 0.81984 0.0
C82 C 0.07471 0.45262 0.80649 0.0
C83 C 0.08834 0.47258 0.77668 0.0
C84 C 0.09615 0.46897 0.80117 0.0
C85 C 0.06408 0.48508 0.82615 0.0
O86 O 0.07629 0.49053 0.80529 0.0
H87 H 0.06539 0.44315 0.81693 0.0
H88 H 0.0922 0.48215 0.75828 0.0
O89 O 0.04545 0.44449 0.73076 0.0
H90 H 0.08219 0.48634 0.60085 0.0
H91 H 0.10729 0.47509 0.80509 0.0
Cu92 Cu 0.64059 0.60708 0.67863 0.0
N93 N 0.63636 0.59696 0.73468 0.0
N94 N 0.62434 0.58307 0.7955 0.0
C95 C 0.62375 0.5887 0.75432 0.0
C96 C 0.6379 0.588 0.80159 0.0
C97 C 0.64525 0.59654 0.76414 0.0
O98 O 0.6242 0.59664 0.6357 0.0
C99 C 0.63895 0.62911 0.73358 0.0
O100 O 0.62712 0.61857 0.74847 0.0
H101 H 0.61439 0.58711 0.73907 0.0
H102 H 0.65632 0.60208 0.75872 0.0
N103 N 0.65568 0.60746 0.64627 0.0
N104 N 0.67531 0.61436 0.60376 0.0
C105 C 0.66674 0.61827 0.62522 0.0
C106 C 0.65735 0.59641 0.63815 0.0
C107 C 0.66939 0.60061 0.61206 0.0
C108 C 0.62475 0.5943 0.58894 0.0
O109 O 0.63683 0.60053 0.56689 0.0
H110 H 0.66829 0.62867 0.6248 0.0
H111 H 0.65022 0.58599 0.65021 0.0
O112 O 0.6459 0.62646 0.70113 0.0
H113 H 0.64225 0.58554 0.83069 0.0
H114 H 0.67352 0.59403 0.60056 0.0
Cu115 Cu 0.48806 0.04503 0.79656 0.0
N116 N 0.49996 0.05149 0.85136 0.0
N117 N 0.51387 0.05298 0.91047 0.0
C118 C 0.50694 0.04598 0.86786 0.0
C119 C 0.51112 0.06329 0.92094 0.0
C120 C 0.50253 0.0623 0.88471 0.0
O121 O 0.49628 0.03953 0.74097 0.0
C122 C 0.45857 0.02334 0.7956 0.0
O123 O 0.45862 0.02424 0.74764 0.0
H124 H 0.5066 0.03677 0.84986 0.0
H125 H 0.49827 0.06888 0.88318 0.0
N126 N 0.48747 0.06034 0.77696 0.0
N127 N 0.4814 0.07363 0.7418 0.0
C128 C 0.47721 0.06057 0.755 0.0
C129 C 0.49843 0.07366 0.77766 0.0
C130 C 0.49473 0.08187 0.75636 0.0
C131 C 0.49878 0.02966 0.73756 0.0
O132 O 0.49411 0.02064 0.77179 0.0
H133 H 0.46708 0.0513 0.74714 0.0
H134 H 0.50855 0.07709 0.79164 0.0
O135 O 0.46986 0.0306 0.81982 0.0
H136 H 0.515 0.07103 0.95255 0.0
H137 H 0.50142 0.09303 0.75163 0.0
Cu138 Cu 0.72752 0.94184 0.6536 0.0
N139 N 0.72212 0.93015 0.70556 0.0
N140 N 0.72078 0.91499 0.75716 0.0
C141 C 0.7262 0.92123 0.71456 0.0
C142 C 0.71297 0.92018 0.77534 0.0
C143 C 0.71383 0.9295 0.74347 0.0
O144 O 0.73466 0.93399 0.60165 0.0
C145 C 0.74674 0.9724 0.66092 0.0
O146 O 0.74532 0.97187 0.61283 0.0
H147 H 0.73327 0.91965 0.69102 0.0
H148 H 0.70886 0.93551 0.74781 0.0
N149 N 0.71173 0.94072 0.63031 0.0
N150 N 0.69705 0.94582 0.60043 0.0
C151 C 0.71013 0.95098 0.61563 0.0
C152 C 0.69928 0.92873 0.62415 0.0
C153 C 0.69022 0.93182 0.60585 0.0
C154 C 0.7325 0.93346 0.55556 0.0
O155 O 0.72692 0.94022 0.54099 0.0
H156 H 0.71834 0.96199 0.6164 0.0
H157 H 0.69701 0.91842 0.63207 0.0
O158 O 0.74061 0.96097 0.68247 0.0
H159 H 0.70701 0.9174 0.80918 0.0
H160 H 0.67951 0.92425 0.5963 0.0
Cu161 Cu 0.15275 0.7997 0.61206 0.0
N162 N 0.164 0.80635 0.66848 0.0
N163 N 0.17888 0.8208 0.72868 0.0
C164 C 0.1733 0.81988 0.68448 0.0
C165 C 0.17288 0.80733 0.74059 0.0
C166 C 0.16373 0.79847 0.70348 0.0
O167 O 0.16142 0.81501 0.56769 0.0
C168 C 0.12351 0.79031 0.61111 0.0
O169 O 0.12431 0.79014 0.56258 0.0
H170 H 0.17561 0.82886 0.66481 0.0
H171 H 0.15718 0.78708 0.70234 0.0
N172 N 0.15258 0.78374 0.58245 0.0
N173 N 0.14627 0.76261 0.5433 0.0
C174 C 0.14224 0.77175 0.55904 0.0
C175 C 0.16347 0.78214 0.5812 0.0
C176 C 0.15963 0.76917 0.55726 0.0
C177 C 0.16223 0.81312 0.52084 0.0
O178 O 0.15541 0.8002 0.49937 0.0
H179 H 0.13196 0.7697 0.55419 0.0
H180 H 0.17353 0.78992 0.59669 0.0
O181 O 0.13431 0.79437 0.6363 0.0
H182 H 0.17496 0.80407 0.77373 0.0
H183 H 0.16626 0.765 0.55005 0.0
Cu184 Cu 0.29306 0.37212 0.61539 0.0
N185 N 0.28615 0.3771 0.6725 0.0
N186 N 0.27176 0.37683 0.73222 0.0
C187 C 0.27286 0.37216 0.68535 0.0
C188 C 0.28487 0.38506 0.74921 0.0
C189 C 0.29367 0.38516 0.71247 0.0
O190 O 0.28062 0.3675 0.56011 0.0
C191 C 0.29966 0.35008 0.60643 0.0
O192 O 0.30091 0.3512 0.55841 0.0
H193 H 0.26415 0.36483 0.66172 0.0
H194 H 0.30478 0.39041 0.71519 0.0
N195 N 0.31019 0.38781 0.59941 0.0
N196 N 0.33079 0.40147 0.56423 0.0
C197 C 0.32034 0.38809 0.5708 0.0
C198 C 0.31437 0.40144 0.61131 0.0
C199 C 0.32704 0.40987 0.58988 0.0
C200 C 0.26823 0.35709 0.55449 0.0
O201 O 0.2631 0.34721 0.58571 0.0
H202 H 0.31986 0.37871 0.55374 0.0
H203 H 0.30847 0.40501 0.63326 0.0
O204 O 0.29584 0.35734 0.6335 0.0
H205 H 0.28789 0.39049 0.78584 0.0
H206 H 0.33299 0.42131 0.59284 0.0
Cu207 Cu 0.72426 0.79916 0.09802 0.0
N208 N 0.72051 0.80505 0.16065 0.0
N209 N 0.72059 0.81902 0.22585 0.0
C210 C 0.72412 0.8183 0.17776 0.0
C211 C 0.71447 0.80565 0.2392 0.0
C212 C 0.71444 0.7971 0.19901 0.0
O213 O 0.73 0.81447 0.05575 0.0
C214 C 0.74847 0.80154 0.13443 0.0
O215 O 0.7506 0.81342 0.15737 0.0
H216 H 0.7296 0.82729 0.15575 0.0
H217 H 0.71044 0.78589 0.19795 0.0
N218 N 0.70829 0.78286 0.07143 0.0
N219 N 0.69431 0.76202 0.02894 0.0
C220 C 0.70751 0.77204 0.04189 0.0
C221 C 0.6952 0.77962 0.07739 0.0
C222 C 0.68656 0.76681 0.05137 0.0
C223 C 0.72945 0.81291 1.00863 0.0
O224 O 0.72599 0.80056 0.98599 0.0
H225 H 0.71645 0.77151 0.03047 0.0
H226 H 0.69216 0.78619 0.09893 0.0
O227 O 0.73814 0.79433 0.10536 0.0
H228 H 0.71026 0.80226 0.2754 0.0
H229 H 0.67545 0.76157 0.04854 0.0
Cu230 Cu 0.29599 0.94445 0.13788 0.0
N231 N 0.28968 0.93336 0.19212 0.0
N232 N 0.27576 0.91863 0.24832 0.0
C233 C 0.2765 0.92392 0.20457 0.0
C234 C 0.28899 0.92497 0.26362 0.0
C235 C 0.29751 0.93401 0.22899 0.0
O236 O 0.28086 0.93547 0.08984 0.0
C237 C 0.30545 0.97421 0.13901 0.0
O238 O 0.30587 0.97261 0.09047 0.0
H239 H 0.26763 0.92131 0.18275 0.0
H240 H 0.30865 0.94077 0.23087 0.0
N241 N 0.31134 0.94433 0.10981 0.0
N242 N 0.33087 0.94991 0.0682 0.0
C243 C 0.3225 0.95445 0.08658 0.0
C244 C 0.31278 0.93311 0.10633 0.0
C245 C 0.32475 0.93649 0.08087 0.0
C246 C 0.28256 0.93572 0.04309 0.0
O247 O 0.29505 0.94366 0.02534 0.0
H248 H 0.32424 0.96476 0.08192 0.0
H249 H 0.30548 0.92307 0.12076 0.0
O250 O 0.30125 0.96357 0.16392 0.0
H251 H 0.29231 0.92321 0.29747 0.0
H252 H 0.32863 0.92956 0.07245 0.0
Cu253 Cu 0.15468 0.36849 0.13841 0.0
N254 N 0.16738 0.37556 0.19073 0.0
N255 N 0.18233 0.37725 0.24578 0.0
C256 C 0.17274 0.36886 0.21058 0.0
C257 C 0.18295 0.38969 0.24812 0.0
C258 C 0.17373 0.38861 0.21424 0.0
O259 O 0.16122 0.3596 0.08861 0.0
C260 C 0.12521 0.3489 0.13958 0.0
O261 O 0.12579 0.34949 0.09132 0.0
H262 H 0.16995 0.35817 0.19836 0.0
H263 H 0.17192 0.39682 0.20673 0.0
N264 N 0.15533 0.38351 0.11023 0.0
N265 N 0.1494 0.39606 0.06978 0.0
C266 C 0.14488 0.38497 0.09743 0.0
C267 C 0.16677 0.39411 0.09051 0.0
C268 C 0.16316 0.40182 0.06542 0.0
C269 C 0.15962 0.35925 0.04221 0.0
O270 O 0.1514 0.36301 0.02668 0.0
H271 H 0.13412 0.37762 0.10555 0.0
H272 H 0.17694 0.39565 0.09214 0.0
O273 O 0.13633 0.35581 0.16484 0.0
H274 H 0.18958 0.39892 0.27264 0.0
H275 H 0.17003 0.41073 0.04432 0.0
Cu276 Cu 0.38104 0.27507 0.91817 0.0
N277 N 0.37663 0.26517 0.97503 0.0
N278 N 0.37566 0.25175 0.0332 0.0
C279 C 0.37836 0.2546 0.98513 0.0
C280 C 0.37198 0.26074 0.05378 0.0
C281 C 0.37258 0.26896 0.01793 0.0
O282 O 0.38402 0.26459 0.8623 0.0
C283 C 0.40294 0.30474 0.91271 0.0
O284 O 0.3997 0.3034 0.86584 0.0
H285 H 0.38212 0.24956 0.95861 0.0
H286 H 0.37066 0.27749 0.02309 0.0
N287 N 0.36574 0.27603 0.90199 0.0
N288 N 0.35181 0.28115 0.866 0.0
C289 C 0.36498 0.28458 0.87195 0.0
C290 C 0.35263 0.26697 0.91543 0.0
C291 C 0.34404 0.27008 0.8934 0.0
C292 C 0.39299 0.26108 0.85977 0.0
O293 O 0.40215 0.26574 0.89548 0.0
H294 H 0.37377 0.29278 0.85333 0.0
H295 H 0.34949 0.25846 0.93884 0.0
O296 O 0.39673 0.294 0.93791 0.0
H297 H 0.36928 0.26149 0.09228 0.0
H298 H 0.33291 0.26458 0.89713 0.0
Cu299 Cu 0.80961 0.13085 0.99686 0.0
N300 N 0.81433 0.1405 0.93947 0.0
N301 N 0.82676 0.15411 0.87862 0.0
C302 C 0.82711 0.14904 0.92153 0.0
C303 C 0.81322 0.14852 0.86946 0.0
C304 C 0.8056 0.14013 0.90692 0.0
O305 O 0.82579 0.14127 0.04086 0.0
C306 C 0.81074 0.10818 0.94467 0.0
O307 O 0.82261 0.11845 0.9289 0.0
H308 H 0.83645 0.15149 0.93978 0.0
H309 H 0.79446 0.13408 0.91008 0.0
N310 N 0.79451 0.1311 0.02647 0.0
N311 N 0.77471 0.12507 0.06681 0.0
C312 C 0.78351 0.12092 0.05001 0.0
C313 C 0.79261 0.142 0.02826 0.0
C314 C 0.78047 0.13834 0.05289 0.0
C315 C 0.82508 0.14429 0.08705 0.0
O316 O 0.81289 0.13888 0.1081 0.0
H317 H 0.78213 0.11078 0.05516 0.0
H318 H 0.79957 0.15192 1.01248 0.0
O319 O 0.80396 0.11124 0.97663 0.0
H320 H 0.80906 0.15012 0.83742 0.0
H321 H 0.77616 0.14494 0.05923 0.0
Cu322 Cu 0.96617 0.70744 0.89138 0.0
N323 N 0.95641 0.70202 0.83178 0.0
N324 N 0.94305 0.70061 0.77094 0.0
C325 C 0.94851 0.7066 0.81637 0.0
C326 C 0.94769 0.6919 0.75753 0.0
C327 C 0.95593 0.69281 0.79506 0.0
O328 O 0.95717 0.71454 0.93826 0.0
C329 C 0.98953 0.72966 0.84497 0.0
O330 O 0.9801 0.73074 0.82338 0.0
H331 H 0.9468 0.71415 0.83822 0.0
H332 H 0.96129 0.68724 0.79549 0.0
N333 N 0.96433 0.69125 0.91419 0.0
N334 N 0.96859 0.67629 0.94709 0.0
C335 C 0.97398 0.68963 0.93408 0.0
C336 C 0.95249 0.67859 0.91469 0.0
C337 C 0.95507 0.66937 0.93487 0.0
C338 C 0.95492 0.71165 0.98342 0.0
O339 O 0.96042 0.70524 1.00159 0.0
H340 H 0.9847 0.69804 0.93867 0.0
H341 H 0.94264 0.67629 0.9017 0.0
O342 O 0.98575 0.72092 0.878 0.0
H343 H 0.94555 0.68554 0.72265 0.0
H344 H 0.94744 0.65848 0.94099 0.0
Cu345 Cu 0.39148 0.13927 0.42957 0.0
N346 N 0.39627 0.14926 0.37256 0.0
N347 N 0.39732 0.16253 0.31362 0.0
C348 C 0.39089 0.15629 0.35526 0.0
C349 C 0.40709 0.1593 0.30437 0.0
C350 C 0.40637 0.15108 0.34052 0.0
O351 O 0.38784 0.14958 0.48425 0.0
C352 C 0.368 0.11532 0.37953 0.0
O353 O 0.36736 0.12476 0.35645 0.0
H354 H 0.38257 0.15698 0.37303 0.0
H355 H 0.41279 0.14674 0.34335 0.0
N356 N 0.40691 0.13921 0.44968 0.0
N357 N 0.42024 0.13286 0.48287 0.0
C358 C 0.40725 0.12881 0.4698 0.0
C359 C 0.42005 0.1502 0.45031 0.0
C360 C 0.42828 0.14633 0.47051 0.0
C361 C 0.37832 0.15232 0.48774 0.0
O362 O 0.36869 0.14687 0.45344 0.0
H363 H 0.39813 0.11856 0.47508 0.0
H364 H 0.42335 0.16044 0.43794 0.0
O365 O 0.37686 0.11949 0.41405 0.0
H366 H 0.41413 0.1625 0.27327 0.0
H367 H 0.43928 0.15313 0.47709 0.0
Cu368 Cu 0.95872 0.26809 0.45671 0.0
N369 N 0.9534 0.25674 0.50972 0.0
N370 N 0.94048 0.24214 0.56764 0.0
C371 C 0.94055 0.24859 0.52772 0.0
C372 C 0.95385 0.24647 0.57476 0.0
C373 C 0.96176 0.25546 0.53912 0.0
O374 O 0.9427 0.25907 0.41193 0.0
C375 C 0.96898 0.29829 0.46469 0.0
O376 O 0.96961 0.29772 0.4161 0.0
H377 H 0.93146 0.24743 0.5117 0.0
H378 H 0.97286 0.26086 0.53526 0.0
N379 N 0.97371 0.26804 0.42513 0.0
N380 N 0.99342 0.27408 0.38435 0.0
C381 C 0.98536 0.27864 0.40581 0.0
C382 C 0.97452 0.25648 0.41594 0.0
C383 C 0.98659 0.26014 0.39094 0.0
C384 C 0.94347 0.25661 0.36534 0.0
O385 O 0.95569 0.262 0.34456 0.0
H386 H 0.98772 0.28938 0.40654 0.0
H387 H 0.96676 0.24606 0.42647 0.0
O388 O 0.96431 0.28701 0.48641 0.0
H389 H 0.95775 0.24365 0.60432 0.0
H390 H 0.9901 0.25304 0.37894 0.0
Cu391 Cu 0.83455 0.71876 0.35826 0.0
N392 N 0.84563 0.72535 0.41493 0.0
N393 N 0.85943 0.72709 0.47484 0.0
C394 C 0.853 0.72027 0.43132 0.0
C395 C 0.85591 0.73682 0.48599 0.0
C396 C 0.8474 0.73569 0.44909 0.0
O397 O 0.84352 0.71217 0.30913 0.0
C398 C 0.80524 0.69697 0.35348 0.0
O399 O 0.80587 0.69826 0.30562 0.0
H400 H 0.85358 0.71174 0.41157 0.0
H401 H 0.84265 0.74183 0.44762 0.0
N402 N 0.83412 0.73394 0.33639 0.0
N403 N 0.82721 0.74747 0.30871 0.0
C404 C 0.82331 0.73441 0.3209 0.0
C405 C 0.84518 0.74711 0.33381 0.0
C406 C 0.84097 0.75546 0.31687 0.0
C407 C 0.84602 0.71569 0.26468 0.0
O408 O 0.84084 0.72261 0.24819 0.0
H409 H 0.81279 0.72544 0.31933 0.0
H410 H 0.8556 0.75037 0.34358 0.0
O411 O 0.8162 0.70423 0.37954 0.0
H412 H 0.85895 0.74402 0.51908 0.0
H413 H 0.84759 0.76652 0.31036 0.0
H414 H 0.08387 0.50775 0.88168 0.0
H415 H 0.08131 0.5234 0.94355 0.0
H416 H 0.0371 0.4984 0.92293 0.0
H417 H 0.03961 0.48228 0.8613 0.0
H418 H 0.07175 0.53991 0.93079 0.0
H419 H 0.03955 0.50292 0.07202 0.0
H420 H 0.04778 0.49823 0.02209 0.0
H421 H 0.03214 0.49779 1.01098 0.0
C422 C 0.07355 0.50544 0.89051 0.0
C423 C 0.06194 0.49374 0.86639 0.0
C424 C 0.07211 0.51445 0.92601 0.0
C425 C 0.05902 0.51212 0.93839 0.0
C426 C 0.04731 0.50031 0.9149 0.0
H427 H 0.03901 0.56633 0.13251 0.0
H428 H 0.03801 0.54845 0.07031 0.0
C429 C 0.04875 0.49112 0.87949 0.0
C430 C 0.05799 0.52255 0.97411 0.0
H431 H 0.0446 0.52641 0.08596 0.0
C432 C 0.06579 0.53691 0.96468 0.0
C433 C 0.05019 0.51871 0.01841 0.0
C434 C 0.04203 0.5036 0.03187 0.0
C435 C 0.06616 0.54747 0.99829 0.0
C436 C 0.05856 0.54366 0.04279 0.0
C437 C 0.05045 0.5293 0.05183 0.0
C438 C 0.05919 0.5545 0.08077 0.0
C439 C 0.07469 0.56268 0.98599 0.0
C440 C 0.07142 0.56383 0.10754 0.0
C441 C 0.07202 0.57404 0.14336 0.0
C442 C 0.06041 0.5752 0.15299 0.0
C443 C 0.04818 0.56583 0.12593 0.0
C444 C 0.04756 0.55555 0.09046 0.0
H445 H 0.07765 0.5636 0.94627 0.0
H446 H 0.06894 0.56809 0.995 0.0
H447 H 0.08429 0.56829 1.00857 0.0
H448 H 0.08049 0.56314 0.10096 0.0
H449 H 0.08158 0.58102 0.16354 0.0
H450 H 0.62566 0.57855 0.89148 0.0
H451 H 0.60656 0.56292 0.94369 0.0
H452 H 0.57791 0.55161 0.82456 0.0
H453 H 0.597 0.56675 0.77129 0.0
H454 H 0.58405 0.56377 0.97538 0.0
H455 H 0.56711 0.51309 0.86389 0.0
H456 H 0.58336 0.52912 0.85339 0.0
H457 H 0.56756 0.5262 0.82919 0.0
C458 C 0.61535 0.5726 0.8759 0.0
C459 C 0.61298 0.57391 0.82674 0.0
C460 C 0.6044 0.56372 0.90607 0.0
C461 C 0.5908 0.55588 0.88789 0.0
C462 C 0.58834 0.55728 0.83915 0.0
H463 H 0.51 0.50123 1.01286 0.0
H464 H 0.52975 0.51606 0.96109 0.0
C465 C 0.59929 0.56613 0.80885 0.0
C466 C 0.57918 0.54657 0.92043 0.0
H467 H 0.55214 0.51259 0.92905 0.0
C468 C 0.57714 0.55256 0.9654 0.0
C469 C 0.57016 0.53192 0.9075 0.0
C470 C 0.57221 0.52466 0.86111 0.0
C471 C 0.56615 0.54439 0.99714 0.0
C472 C 0.55705 0.5298 0.98388 0.0
C473 C 0.55912 0.52378 0.9391 0.0
C474 C 0.54514 0.52066 0.01553 0.0
C475 C 0.56417 0.55152 0.04404 0.0
C476 C 0.54722 0.51814 0.06315 0.0
C477 C 0.53592 0.50966 0.09294 0.0
C478 C 0.52231 0.50354 0.07571 0.0
C479 C 0.52031 0.50594 0.02765 0.0
C480 C 0.53159 0.51435 0.99785 0.0
H481 H 0.57014 0.56321 0.04356 0.0
H482 H 0.55307 0.54778 0.04973 0.0
H483 H 0.56775 0.54882 0.07614 0.0
H484 H 0.55759 0.52274 0.07729 0.0
H485 H 0.53786 0.50812 0.12977 0.0
H486 H 0.58058 0.03595 0.23816 0.0
H487 H 0.56759 0.04161 0.18564 0.0
H488 H 0.57331 0.01842 0.06052 0.0
H489 H 0.5863 1.01275 0.11259 0.0
H490 H 0.57541 0.05593 0.10014 0.0
H491 H 0.53159 1.00077 0.06067 0.0
H492 H 0.54405 1.00573 0.10908 0.0
H493 H 0.54821 1.0033 0.04558 0.0
C494 C 0.57916 0.03212 0.19943 0.0
C495 C 0.58441 0.02378 0.1798 0.0
C496 C 0.57167 0.03532 0.16948 0.0
C497 C 0.56924 0.03021 0.11934 0.0
C498 C 0.57472 0.02216 0.09938 0.0
H499 H 0.52646 0.03863 0.87928 0.0
H500 H 0.54019 0.03334 0.92932 0.0
C501 C 0.58217 0.01893 0.12928 0.0
C502 C 0.56114 0.03347 0.08775 0.0
H503 H 0.53221 0.0182 0.01518 0.0
C504 C 0.56594 0.04768 0.08174 0.0
C505 C 0.54879 0.02271 0.0636 0.0
C506 C 0.54276 1.00727 0.07032 0.0
C507 C 0.55884 0.0514 0.05174 0.0
C508 C 0.54648 0.04064 0.02768 0.0
C509 C 0.54171 0.02643 0.0335 0.0
C510 C 0.53818 0.0439 0.99724 0.0
C511 C 0.56475 0.06683 0.04533 0.0
C512 C 0.5323 0.05141 0.01892 0.0
C513 C 0.52437 0.05437 0.99053 0.0
C514 C 0.52207 0.04985 0.93972 0.0
C515 C 0.52788 0.04219 0.91825 0.0
C516 C 0.5358 0.03921 0.94677 0.0
H517 H 0.5759 0.0734 0.05519 0.0
H518 H 0.56348 0.0684 1.00658 0.0
H519 H 0.55919 0.07068 0.07 0.0
H520 H 0.53372 0.05485 0.05805 0.0
H521 H 0.51986 0.06002 1.00877 0.0
H522 H 0.59074 0.02189 0.46061 0.0
H523 H 0.57283 0.01985 0.5188 0.0
H524 H 0.57517 0.05573 0.46185 0.0
H525 H 0.59299 0.05777 0.40309 0.0
H526 H 0.57287 0.03884 0.59322 0.0
H527 H 0.534 0.0256 0.44891 0.0
H528 H 0.54945 0.02521 0.43557 0.0
H529 H 0.55024 0.04176 0.44168 0.0
C530 C 0.58752 0.02941 0.46053 0.0
C531 C 0.5933 0.03996 0.42682 0.0
C532 C 0.57724 0.02821 0.49387 0.0
C533 C 0.57242 0.03746 0.49414 0.0
C534 C 0.57847 0.04827 0.46164 0.0
H535 H 0.51105 0.04745 0.6632 0.0
H536 H 0.52862 0.04886 0.60463 0.0
C537 C 0.58876 0.04949 0.42829 0.0
C538 C 0.5611 0.03576 0.52845 0.0
H539 H 0.52837 0.02969 0.53157 0.0
C540 C 0.56312 0.03677 0.57973 0.0
C541 C 0.54835 0.03305 0.51092 0.0
C542 C 0.54528 0.03121 0.45627 0.0
C543 C 0.55289 0.03546 0.6139 0.0
C544 C 0.54014 0.03277 0.59638 0.0
C545 C 0.53811 0.03173 0.54508 0.0
C546 C 0.52891 0.03134 0.6307 0.0
C547 C 0.55599 0.03736 0.66855 0.0
C548 C 0.52287 0.02076 0.66412 0.0
C549 C 0.51278 0.0199 0.69778 0.0
C550 C 0.50842 0.02957 0.69861 0.0
C551 C 0.51414 0.03983 0.66383 0.0
C552 C 0.52422 0.04067 0.63024 0.0
H553 H 0.56726 0.0429 0.67583 0.0
H554 H 0.5519 0.04344 0.68913 0.0
H555 H 0.55097 0.02682 0.68334 0.0
H556 H 0.52606 1.01321 0.66448 0.0
H557 H 0.5086 1.01184 0.7238 0.0
H558 H 0.04136 0.57495 0.46893 0.0
H559 H 0.04549 0.55996 0.51581 0.0
H560 H 0.05471 0.54308 0.38047 0.0
H561 H 0.05044 0.55792 0.33297 0.0
H562 H 0.03211 0.53025 0.50745 0.0
H563 H 0.08827 0.55582 0.46907 0.0
H564 H 0.0787 0.564 0.45813 0.0
H565 H 0.07754 0.55019 0.41498 0.0
C566 C 0.04417 0.568 0.44886 0.0
C567 C 0.04556 0.56771 0.39692 0.0
C568 C 0.04659 0.55947 0.47589 0.0
C569 C 0.05058 0.55052 0.45179 0.0
C570 C 0.05192 0.55012 0.4 0.0
H571 H 0.06984 0.49107 0.54783 0.0
H572 H 0.0655 0.50605 0.50177 0.0
C573 C 0.04947 0.55864 0.37286 0.0
C574 C 0.05305 0.54143 0.48088 0.0
H575 H 0.07775 0.53484 0.51065 0.0
C576 C 0.0421 0.53128 0.50833 0.0
C577 C 0.06608 0.54278 0.48199 0.0
C578 C 0.07838 0.55386 0.45485 0.0
C579 C 0.04375 0.52225 0.53602 0.0
C580 C 0.0568 0.52361 0.53717 0.0
C581 C 0.06775 0.53379 0.50979 0.0
C582 C 0.05927 0.51442 0.56581 0.0
C583 C 0.0314 0.5111 0.5627 0.0
C584 C 0.05735 0.5142 0.61737 0.0
C585 C 0.05984 0.50561 0.64396 0.0
C586 C 0.06447 0.49718 0.61961 0.0
C587 C 0.06647 0.49753 0.568 0.0
C588 C 0.06393 0.50606 0.54149 0.0
H589 H 1.02153 0.50896 0.54753 0.0
H590 H 0.03121 0.50104 0.56015 0.0
H591 H 0.03197 0.51482 0.60243 0.0
H592 H 0.05408 0.52081 0.6372 0.0
H593 H 0.0584 0.50578 0.68369 0.0
H594 H 0.59842 0.57688 0.62364 0.0
H595 H 0.57849 0.55737 0.57717 0.0
H596 H 0.60266 0.56731 0.4433 0.0
H597 H 0.62261 0.58668 0.48931 0.0
H598 H 0.56414 0.55675 0.49493 0.0
H599 H 0.58858 0.52546 0.44943 0.0
H600 H 0.59555 0.54027 0.49569 0.0
H601 H 0.59857 0.54319 0.431 0.0
C602 C 0.59948 0.57499 0.58423 0.0
C603 C 0.61219 0.58334 0.56036 0.0
C604 C 0.58807 0.5638 0.55772 0.0
C605 C 0.58914 0.56065 0.50689 0.0
C606 C 0.60165 0.56928 0.48268 0.0
H607 H 0.53357 0.4981 0.27863 0.0
H608 H 0.55337 0.51715 0.32683 0.0
C609 C 0.61304 0.58045 0.50908 0.0
C610 C 0.57721 0.54838 0.47911 0.0
H611 H 0.56729 0.51734 0.40932 0.0
C612 C 0.5648 0.54809 0.47647 0.0
C613 C 0.57805 0.53706 0.45489 0.0
C614 C 0.59085 0.53639 0.45816 0.0
C615 C 0.55336 0.53701 0.44943 0.0
C616 C 0.55422 0.52571 0.42507 0.0
C617 C 0.56661 0.52598 0.42785 0.0
C618 C 0.54238 0.51358 0.39644 0.0
C619 C 0.54057 0.5377 0.44612 0.0
C620 C 0.52971 0.5049 0.4197 0.0
C621 C 0.51838 0.49398 0.39228 0.0
C622 C 0.51946 0.49141 0.34092 0.0
C623 C 0.53234 0.49975 0.31806 0.0
C624 C 0.54367 0.51069 0.34557 0.0
H625 H 0.54282 0.5486 0.45532 0.0
H626 H 0.53597 0.53395 0.40843 0.0
H627 H 0.53279 0.53078 0.47289 0.0
H628 H 0.52853 0.50666 0.45909 0.0
H629 H 0.50868 0.48775 0.41129 0.0
H630 H 0.72384 0.82345 0.32584 0.0
H631 H 0.7274 0.84408 0.37865 0.0
H632 H 0.72691 0.86363 0.24991 0.0
H633 H 0.72313 0.84289 0.19677 0.0
H634 H 0.7493 0.87353 0.37511 0.0
H635 H 0.69726 0.86436 0.34342 0.0
H636 H 0.70118 0.85075 0.32931 0.0
H637 H 0.70692 0.86461 0.28874 0.0
C638 C 0.72437 0.83206 0.30867 0.0
C639 C 0.72307 0.83141 0.25693 0.0
C640 C 0.72651 0.84391 0.33895 0.0
C641 C 0.72727 0.85535 0.31837 0.0
C642 C 0.72619 0.85486 0.26673 0.0
H643 H 0.73036 0.93089 0.45446 0.0
H644 H 0.73049 0.91291 0.39609 0.0
C645 C 0.72413 0.84303 0.23632 0.0
C646 C 0.7291 0.8677 0.35111 0.0
H647 H 0.71281 0.88503 0.39231 0.0
C648 C 0.74133 0.87607 0.37888 0.0
C649 C 0.71873 0.87104 0.3559 0.0
C650 C 0.70522 0.86219 0.32813 0.0
C651 C 0.74353 0.88775 0.41091 0.0
C652 C 0.73305 0.89096 0.41638 0.0
C653 C 0.72087 0.88263 0.38822 0.0
C654 C 0.73431 0.90269 0.45165 0.0
C655 C 0.75718 0.89669 0.43776 0.0
C656 C 0.73656 0.90312 0.50249 0.0
C657 C 0.73664 0.91352 0.53599 0.0
C658 C 0.73425 0.92361 0.51954 0.0
C659 C 0.73227 0.92332 0.46851 0.0
C660 C 0.73229 0.913 0.43503 0.0
H661 H 0.76544 0.8957 0.41816 0.0
H662 H 0.76047 0.90801 0.44174 0.0
H663 H 0.75612 0.89306 0.4753 0.0
H664 H 0.7378 0.89513 0.51663 0.0
H665 H 0.73804 0.91329 0.57504 0.0
H666 H 0.16539 0.81326 0.41998 0.0
H667 H 0.18376 0.83196 0.3729 0.0
H668 H 0.20059 0.8586 0.50815 0.0
H669 H 0.18223 0.84002 0.55563 0.0
H670 H 0.19289 0.86285 0.37201 0.0
H671 H 0.23228 0.85354 0.44112 0.0
H672 H 0.21399 0.84053 0.44279 0.0
H673 H 0.22146 0.85571 0.48685 0.0
C674 C 0.17288 0.82316 0.43975 0.0
C675 C 0.17233 0.82508 0.49172 0.0
C676 C 0.18338 0.83385 0.41271 0.0
C677 C 0.19363 0.84661 0.43704 0.0
C678 C 0.19285 0.84878 0.48865 0.0
H679 H 0.27246 0.91715 0.34766 0.0
H680 H 0.25212 0.9 0.39196 0.0
C681 C 0.18229 0.83815 0.51572 0.0
C682 C 0.20549 0.85738 0.40877 0.0
H683 H 0.24019 0.87232 0.39042 0.0
C684 C 0.20324 0.86494 0.37591 0.0
C685 C 0.21898 0.86008 0.41394 0.0
C686 C 0.22191 0.85201 0.44777 0.0
C687 C 0.21419 0.87536 0.34887 0.0
C688 C 0.22771 0.87801 0.35375 0.0
C689 C 0.22988 0.87035 0.38654 0.0
C690 C 0.23984 0.8888 0.32605 0.0
C691 C 0.2112 0.88369 0.31653 0.0
C692 C 0.23984 0.8883 0.27399 0.0
C693 C 0.2515 0.89821 0.24848 0.0
C694 C 0.26351 0.90869 0.27439 0.0
C695 C 0.26347 0.90914 0.32644 0.0
C696 C 0.2518 0.89935 0.35188 0.0
H697 H 0.20161 0.88343 0.32815 0.0
H698 H 0.21987 0.89489 0.31744 0.0
H699 H 0.20973 0.87898 0.27773 0.0
H700 H 0.23093 0.88007 0.25293 0.0
H701 H 0.25124 0.89744 0.20842 0.0
H702 H 0.24115 0.33686 0.53142 0.0
H703 H 0.22601 0.33806 0.47359 0.0
H704 H 0.25958 0.37898 0.4361 0.0
H705 H 0.2748 0.3777 0.49246 0.0
H706 H 0.21781 0.35648 0.47633 0.0
H707 H 0.24569 0.36032 0.30045 0.0
H708 H 0.24965 0.35537 0.35584 0.0
H709 H 0.25674 0.37372 0.34684 0.0
C710 C 0.24538 0.34601 0.51023 0.0
C711 C 0.25925 0.35713 0.51649 0.0
C712 C 0.23669 0.3467 0.47725 0.0
C713 C 0.24167 0.35851 0.44971 0.0
C714 C 0.25554 0.36957 0.4557 0.0
H715 H 0.2082 0.39534 0.28232 0.0
H716 H 0.22192 0.38972 0.33102 0.0
C717 C 0.26424 0.36885 0.48833 0.0
C718 C 0.23223 0.35974 0.41713 0.0
H719 H 0.22915 0.36743 0.30103 0.0
C720 C 0.2202 0.35867 0.43781 0.0
C721 C 0.23528 0.36257 0.36671 0.0
C722 C 0.24747 0.36291 0.34103 0.0
C723 C 0.21148 0.36087 0.41012 0.0
C724 C 0.21483 0.3642 0.3604 0.0
C725 C 0.22666 0.36497 0.33931 0.0
C726 C 0.20643 0.36741 0.33028 0.0
C727 C 0.19896 0.36008 0.43458 0.0
C728 C 0.1932 0.35671 0.31328 0.0
C729 C 0.18533 0.35989 0.28522 0.0
C730 C 0.1905 0.37386 0.27394 0.0
C731 C 0.20381 0.38452 0.29088 0.0
C732 C 0.21171 0.38131 0.31847 0.0
H733 H 0.19876 0.3592 0.47511 0.0
H734 H 0.19871 0.3696 0.42818 0.0
H735 H 0.18947 0.35071 0.41789 0.0
H736 H 0.18897 0.34589 0.32173 0.0
H737 H 0.17511 0.35145 0.27307 0.0
H738 H 0.18189 0.3574 0.06259 0.0
H739 H 0.19918 0.35802 1.00422 0.0
H740 H 0.17571 0.35721 0.8826 0.0
H741 H 0.15854 0.35696 0.94083 0.0
H742 H 0.19888 0.341 0.92449 0.0
H743 H 0.21266 0.39295 0.86399 0.0
H744 H 0.20173 0.38544 0.91669 0.0
H745 H 0.1948 0.37935 0.8549 0.0
C746 C 0.18029 0.35717 0.02338 0.0
C747 C 0.16888 0.35729 1.00649 0.0
C748 C 0.19022 0.35756 0.99001 0.0
C749 C 0.18895 0.35803 0.93907 0.0
C750 C 0.17713 0.35727 0.92183 0.0
H751 H 0.24703 0.37008 0.69575 0.0
H752 H 0.22604 0.36427 0.74328 0.0
C753 C 0.16725 0.357 0.95519 0.0
C754 C 0.20024 0.35987 0.90453 0.0
H755 H 0.22392 0.38218 0.82333 0.0
C756 C 0.20432 0.34999 0.9023 0.0
C757 C 0.20739 0.37162 0.87556 0.0
C758 C 0.20404 0.38303 0.8781 0.0
C759 C 0.21534 0.35155 0.87205 0.0
C760 C 0.22255 0.36337 0.84358 0.0
C761 C 0.21832 0.37309 0.845 0.0
C762 C 0.23503 0.36628 0.81433 0.0
C763 C 0.21918 0.34054 0.8707 0.0
C764 C 0.24706 0.36945 0.83852 0.0
C765 C 0.25904 0.37283 0.81157 0.0
C766 C 0.25927 0.37312 0.75973 0.0
C767 C 0.24716 0.36984 0.73551 0.0
C768 C 0.23518 0.36657 0.76263 0.0
H769 H 0.21064 0.33047 0.88427 0.0
H770 H 0.22195 0.33834 0.83254 0.0
H771 H 0.22831 0.34452 0.8949 0.0
H772 H 0.24724 0.3695 0.87844 0.0
H773 H 0.26811 0.37514 0.8314 0.0
H774 H 0.73 0.81368 0.90776 0.0
H775 H 0.73089 0.83181 0.86096 0.0
H776 H 0.73295 0.85592 0.9977 0.0
H777 H 0.73244 0.83809 0.04461 0.0
H778 H 0.71251 0.83973 0.8614 0.0
H779 H 0.76313 0.88648 0.92079 0.0
H780 H 0.75811 0.86876 0.93231 0.0
H781 H 0.75228 0.87833 0.97253 0.0
C782 C 0.73088 0.82296 0.92788 0.0
C783 C 0.73121 0.82444 0.97999 0.0
C784 C 0.73135 0.8333 0.90104 0.0
C785 C 0.73219 0.84536 0.92567 0.0
C786 C 0.73268 0.84693 0.97768 0.0
H787 H 0.72022 0.91149 0.85498 0.0
H788 H 0.72347 0.89444 0.89275 0.0
C789 C 0.7323 0.83665 1.00453 0.0
C790 C 0.73159 0.8558 0.89726 0.0
H791 H 0.74756 0.89112 0.8825 0.0
C792 C 0.72028 0.85094 0.86552 0.0
C793 C 0.74173 0.87045 0.90252 0.0
C794 C 0.75456 0.8763 0.93349 0.0
C795 C 0.71859 0.86036 0.84038 0.0
C796 C 0.7285 0.87501 0.84686 0.0
C797 C 0.73994 0.87987 0.87779 0.0
C798 C 0.72686 0.8855 0.82337 0.0
C799 C 0.70597 0.85463 0.80831 0.0
C800 C 0.72784 0.88624 0.77181 0.0
C801 C 0.72599 0.896 0.75004 0.0
C802 C 0.72305 0.90515 0.77945 0.0
C803 C 0.72224 0.90446 0.83116 0.0
C804 C 0.7242 0.89479 0.85287 0.0
H805 H 0.69818 0.84336 0.81361 0.0
H806 H 0.70108 0.86093 0.81652 0.0
H807 H 0.70909 0.85544 0.76879 0.0
H808 H 0.73002 0.87925 0.74842 0.0
H809 H 0.72661 0.8962 0.71016 0.0
H810 H 0.28212 0.93454 0.94179 0.0
H811 H 0.2638 0.91672 0.88551 0.0
H812 H 0.23868 0.89608 1.01061 0.0
H813 H 0.25676 0.91405 0.06705 0.0
H814 H 0.25395 0.88911 0.87446 0.0
H815 H 0.21063 0.89641 0.92831 0.0
H816 H 0.22819 0.90912 0.94783 0.0
H817 H 0.21766 0.89349 0.98034 0.0
C818 C 0.27259 0.92636 0.95738 0.0
C819 C 0.27091 0.92579 1.00903 0.0
C820 C 0.26213 0.91614 0.9251 0.0
C821 C 0.24974 0.90512 0.94364 0.0
C822 C 0.24796 0.90466 0.99522 0.0
H823 H 0.18156 0.82449 0.82869 0.0
H824 H 0.19887 0.84556 0.87821 0.0
C825 C 0.25837 0.91493 0.02754 0.0
C826 C 0.23915 0.89358 0.90917 0.0
H827 H 0.20468 0.87475 0.88056 0.0
C828 C 0.24321 0.88611 0.8754 0.0
C829 C 0.22511 0.88961 0.91023 0.0
C830 C 0.22016 0.89768 0.94328 0.0
C831 C 0.2336 0.87456 0.84397 0.0
C832 C 0.21954 0.87038 0.84605 0.0
C833 C 0.21547 0.87795 0.87916 0.0
C834 C 0.20883 0.85783 0.81549 0.0
C835 C 0.23847 0.86661 0.80981 0.0
C836 C 0.20856 0.85778 0.76373 0.0
C837 C 0.19864 0.84572 0.73522 0.0
C838 C 0.18885 0.83344 0.75793 0.0
C839 C 0.18907 0.83365 0.80988 0.0
C840 C 0.1989 0.84573 0.83832 0.0
H841 H 0.24918 0.86968 0.8185 0.0
H842 H 0.23149 0.85503 0.81217 0.0
H843 H 0.23823 0.86887 0.77104 0.0
H844 H 0.21606 0.86705 0.74539 0.0
H845 H 0.19881 0.8459 0.69536 0.0
H846 H 0.37446 0.24832 0.78279 0.0
H847 H 0.37188 0.22978 0.72051 0.0
H848 H 0.40691 0.23155 0.7824 0.0
H849 H 0.40945 0.24996 0.84536 0.0
H850 H 0.38962 0.22931 0.64852 0.0
H851 H 0.37737 0.18967 0.78224 0.0
H852 H 0.37739 0.20567 0.7994 0.0
H853 H 0.3934 0.20614 0.79464 0.0
C854 C 0.38167 0.24483 0.78315 0.0
C855 C 0.39212 0.25062 0.81944 0.0
C856 C 0.38016 0.23419 0.74744 0.0
C857 C 0.38902 0.22903 0.74726 0.0
C858 C 0.39973 0.23509 0.78244 0.0
H859 H 0.39696 0.1656 0.56417 0.0
H860 H 0.39916 0.18398 0.62638 0.0
C861 C 0.40124 0.24572 0.81823 0.0
C862 C 0.38703 0.21735 0.71018 0.0
H863 H 0.38083 0.18376 0.69872 0.0
C864 C 0.38763 0.21933 0.65951 0.0
C865 C 0.38441 0.20429 0.72442 0.0
C866 C 0.38297 0.20121 0.7781 0.0
C867 C 0.38599 0.20876 0.62283 0.0
C868 C 0.38342 0.19572 0.63709 0.0
C869 C 0.38279 0.19374 0.68774 0.0
C870 C 0.38164 0.18413 0.60004 0.0
C871 C 0.38737 0.21179 0.56912 0.0
C872 C 0.37086 0.1778 0.56508 0.0
C873 C 0.36955 0.16723 0.52936 0.0
C874 C 0.37897 0.16272 0.52794 0.0
C875 C 0.38952 0.16881 0.56395 0.0
C876 C 0.39081 0.17935 0.59963 0.0
H877 H 0.3927 0.22331 0.56485 0.0
H878 H 0.39318 0.20757 0.54806 0.0
H879 H 0.37693 0.20658 0.55241 0.0
H880 H 0.36347 0.18108 0.56526 0.0
H881 H 0.36127 0.16276 0.50241 0.0
H882 H 0.85195 0.15693 0.87231 0.0
H883 H 0.87132 0.17219 0.81971 0.0
H884 H 0.84712 0.18702 0.76208 0.0
H885 H 0.82785 0.17207 0.81529 0.0
H886 H 0.87157 0.17187 0.71475 0.0
H887 H 0.88346 0.2238 0.80472 0.0
H888 H 0.87302 0.20751 0.83409 0.0
H889 H 0.8657 0.21187 0.78686 0.0
C890 C 0.8508 0.16358 0.84901 0.0
C891 C 0.83832 0.16328 0.84826 0.0
C892 C 0.86186 0.17223 0.81869 0.0
C893 C 0.86073 0.18088 0.78738 0.0
C894 C 0.84831 0.18061 0.78649 0.0
H895 H 0.91577 0.24045 0.57682 0.0
H896 H 0.89619 0.22508 0.62822 0.0
C897 C 0.83724 0.17192 0.81661 0.0
C898 C 0.8724 0.18987 0.75463 0.0
H899 H 0.89509 0.22416 0.72956 0.0
C900 C 0.87676 0.18331 0.7181 0.0
C901 C 0.87911 0.20479 0.75888 0.0
C902 C 0.8752 0.21246 0.79849 0.0
C903 C 0.8875 0.19123 0.68519 0.0
C904 C 0.89428 0.20616 0.6896 0.0
C905 C 0.88989 0.21272 0.72611 0.0
C906 C 0.90606 0.21519 0.65721 0.0
C907 C 0.89126 0.18349 0.64527 0.0
C908 C 0.91818 0.21484 0.65655 0.0
C909 C 0.92936 0.22354 0.62684 0.0
C910 C 0.92876 0.23291 0.59738 0.0
C911 C 0.91659 0.23326 0.59832 0.0
C912 C 0.9054 0.22453 0.62802 0.0
H913 H 0.8827 0.17232 0.63785 0.0
H914 H 0.89393 0.18874 0.61016 0.0
H915 H 0.90038 0.18345 0.65748 0.0
H916 H 0.91907 0.20794 0.67946 0.0
H917 H 0.93846 0.22284 0.62692 0.0
H918 H 0.92451 0.68279 0.69971 0.0
H919 H 0.91042 0.68747 0.64916 0.0
H920 H 0.92742 0.72875 0.72675 0.0
H921 H 0.94182 0.72431 0.77663 0.0
H922 H 0.89044 0.69431 0.67997 0.0
H923 H 0.93384 0.73709 0.57993 0.0
H924 H 0.93588 0.7252 0.61403 0.0
H925 H 0.93529 0.73966 0.64628 0.0
C926 C 0.92538 0.69292 0.70576 0.0
C927 C 0.9344 0.70321 0.74211 0.0
C928 C 0.91723 0.69554 0.67701 0.0
C929 C 0.91801 0.70853 0.68368 0.0
C930 C 0.92682 0.71874 0.72041 0.0
H931 H 0.87877 0.74518 0.54363 0.0
H932 H 0.89253 0.74029 0.59486 0.0
C933 C 0.93494 0.71612 0.74929 0.0
C934 C 0.90949 0.71132 0.65251 0.0
H935 H 0.91155 0.73294 0.56717 0.0
C936 C 0.89504 0.70272 0.65515 0.0
C937 C 0.91552 0.72231 0.62023 0.0
C938 C 0.93098 0.73154 0.61445 0.0
C939 C 0.88644 0.70498 0.62706 0.0
C940 C 0.89247 0.71595 0.59464 0.0
C941 C 0.90693 0.72454 0.59201 0.0
C942 C 0.88398 0.71878 0.56338 0.0
C943 C 0.87099 0.69581 0.63331 0.0
C944 C 0.87471 0.70838 0.52807 0.0
C945 C 0.86671 0.7111 0.49891 0.0
C946 C 0.86788 0.72433 0.50415 0.0
C947 C 0.87738 0.7348 0.53903 0.0
C948 C 0.88535 0.73206 0.5682 0.0
H949 H 0.86822 0.69063 0.66861 0.0
H950 H 0.86606 0.70209 0.63251 0.0
H951 H 0.86664 0.68738 0.60244 0.0
H952 H 0.87368 0.69815 0.52292 0.0
H953 H 0.85949 0.70274 0.47278 0.0
H954 H 0.85366 0.72212 0.1689 0.0
H955 H 0.87184 0.7211 0.12089 0.0
H956 H 0.88 0.70445 0.24285 0.0
H957 H 0.86169 0.70524 0.29097 0.0
H958 H 0.89945 0.73528 0.1432 0.0
H959 H 0.87782 0.6775 0.12727 0.0
H960 H 0.86756 0.68501 0.14675 0.0
H961 H 0.87898 0.68488 0.18987 0.0
C962 C 0.85917 0.71803 0.18536 0.0
C963 C 0.85613 0.7137 0.23385 0.0
C964 C 0.86961 0.71751 0.15784 0.0
C965 C 0.87725 0.71257 0.17792 0.0
C966 C 0.8741 0.70803 0.22604 0.0
H967 H 0.94734 0.70584 0.07964 0.0
H968 H 0.929 0.70684 0.12648 0.0
C969 C 0.86363 0.70853 0.25362 0.0
C970 C 0.88889 0.71284 0.14937 0.0
H971 H 0.90116 0.69209 0.10219 0.0
C972 C 0.89978 0.72581 0.13399 0.0
C973 C 0.88938 0.70052 0.13736 0.0
C974 C 0.87776 0.68616 0.15072 0.0
C975 C 0.9112 0.72684 0.10788 0.0
C976 C 0.9117 0.71452 0.09604 0.0
C977 C 0.90081 0.70155 0.11133 0.0
C978 C 0.92344 0.71482 0.06807 0.0
C979 C 0.92281 0.74117 0.09429 0.0
C980 C 0.92654 0.71907 0.01957 0.0
C981 C 0.93709 0.71856 0.99259 0.0
C982 C 0.94473 0.71369 1.01343 0.0
C983 C 0.94174 0.70969 0.06234 0.0
C984 C 0.9312 0.7102 0.08921 0.0
H985 H 0.9226 0.74987 0.11688 0.0
H986 H 0.93301 0.74241 0.09925 0.0
H987 H 0.92174 0.74227 0.05478 0.0
H988 H 0.92055 0.72244 1.00204 0.0
H989 H 0.939 0.7216 0.95492 0.0
H990 H 0.37231 0.15857 0.29558 0.0
H991 H 0.36743 0.17221 0.24351 0.0
H992 H 0.41107 0.19939 0.21616 0.0
H993 H 0.41585 0.18542 0.26638 0.0
H994 H 0.37363 0.19803 0.25036 0.0
H995 H 0.39757 0.19068 0.07782 0.0
H996 H 0.39493 0.18089 0.13064 0.0
H997 H 0.40988 0.19849 0.12748 0.0
C998 C 0.38082 0.16744 0.27831 0.0
C999 C 0.39444 0.17085 0.28462 0.0
C1000 C 0.37804 0.17522 0.24843 0.0
C1001 C 0.38884 0.18665 0.22464 0.0
C1002 C 0.40249 0.19031 0.23234 0.0
H1003 H 0.38512 0.25585 0.12642 0.0
H1004 H 0.38772 0.23946 0.17106 0.0
C1005 C 0.40524 0.18239 0.26141 0.0
C1006 C 0.3859 0.19507 0.19341 0.0
H1007 H 0.3933 0.2096 0.0821 0.0
C1008 C 0.37782 0.20042 0.21337 0.0
C1009 C 0.39106 0.19799 0.14455 0.0
C1010 C 0.3987 0.19157 0.1187 0.0
C1011 C 0.37517 0.20893 0.18673 0.0
C1012 C 0.38121 0.21271 0.13939 0.0
C1013 C 0.38886 0.20696 0.11868 0.0
C1014 C 0.37994 0.22283 0.11132 0.0
C1015 C 0.36573 0.21355 0.20952 0.0
C1016 C 0.37539 0.21934 0.06174 0.0
C1017 C 0.3742 0.2289 0.03566 0.0
C1018 C 0.37741 0.24207 0.05883 0.0
C1019 C 0.38224 0.24565 0.10798 0.0
C1020 C 0.38366 0.23622 0.13367 0.0
H1021 H 0.35834 0.20597 0.23571 0.0
H1022 H 0.37201 0.22396 0.23083 0.0
H1023 H 0.35975 0.21456 0.18083 0.0
H1024 H 0.37258 0.20914 0.04339 0.0
H1025 H 0.37047 0.22588 0.99783 0.0
H1026 H 0.94173 0.24878 0.26593 0.0
H1027 H 0.9216 0.2301 0.21873 0.0
H1028 H 0.89658 0.22173 0.3503 0.0
H1029 H 0.91667 0.24054 0.39782 0.0
H1030 H 0.90631 0.20173 0.23421 0.0
H1031 H 0.87264 0.22381 0.24901 0.0
H1032 H 0.89083 0.23439 0.2638 0.0
H1033 H 0.87868 0.22285 0.30755 0.0
C1034 C 0.93191 0.24313 0.28482 0.0
C1035 C 0.93086 0.24625 0.33578 0.0
C1036 C 0.9204 0.23239 0.25771 0.0
C1037 C 0.90751 0.22454 0.2807 0.0
C1038 C 0.90634 0.22778 0.33139 0.0
H1039 H 0.82697 0.15282 0.18586 0.0
H1040 H 0.84715 0.17179 0.23202 0.0
C1041 C 0.91786 0.23855 0.3586 0.0
C1042 C 0.89551 0.21256 0.25211 0.0
H1043 H 0.86239 0.19997 0.21573 0.0
C1044 C 0.89673 0.20139 0.22995 0.0
C1045 C 0.88298 0.21206 0.24657 0.0
C1046 C 0.88119 0.22397 0.26757 0.0
C1047 C 0.88572 0.18965 0.20333 0.0
C1048 C 0.87317 0.18913 0.19785 0.0
C1049 C 0.87197 0.20032 0.21993 0.0
C1050 C 0.86112 0.17707 0.16974 0.0
C1051 C 0.8875 0.17773 0.18243 0.0
C1052 C 0.8622 0.1736 0.11919 0.0
C1053 C 0.85064 0.16266 0.09258 0.0
C1054 C 0.83771 0.15501 0.11587 0.0
C1055 C 0.83673 0.15842 0.16663 0.0
C1056 C 0.84828 0.16932 0.19314 0.0
H1057 H 0.89608 0.17791 0.20095 0.0
H1058 H 0.87788 0.1673 0.18636 0.0
H1059 H 0.88999 0.1788 0.14242 0.0
H1060 H 0.8719 0.17957 0.09993 0.0
H1061 H 0.85177 0.16044 0.05348 0.0
H1062 H 0.09309 0.63493 0.36601 0.0
H1063 H 0.10552 0.65947 0.4016 0.0
H1064 H 0.08278 0.66905 0.30696 0.0
H1065 H 0.07026 0.64448 0.27101 0.0
H1066 H 0.12186 0.68575 0.35312 0.0
H1067 H 0.07574 0.68102 0.45078 0.0
H1068 H 0.07648 0.66576 0.42762 0.0
H1069 H 0.07386 0.67559 0.38557 0.0
C1070 C 0.0908 0.64226 0.35234 0.0
C1071 C 0.08062 0.63768 0.31571 0.0
C1072 C 0.09792 0.6563 0.3728 0.0
C1073 C 0.09493 0.66605 0.35753 0.0
C1074 C 0.08511 0.66166 0.31986 0.0
H1075 H 0.12472 0.75323 0.48005 0.0
H1076 H 0.11215 0.73014 0.43216 0.0
C1077 C 0.07803 0.64762 0.29907 0.0
C1078 C 0.10198 0.68071 0.38177 0.0
H1079 H 0.09655 0.70318 0.45977 0.0
C1080 C 0.11633 0.68958 0.3763 0.0
C1081 C 0.09474 0.68575 0.41175 0.0
C1082 C 0.07937 0.67656 0.41977 0.0
C1083 C 0.12363 0.70333 0.40005 0.0
C1084 C 0.11647 0.70823 0.4314 0.0
C1085 C 0.10206 0.69945 0.43596 0.0
C1086 C 0.12383 0.72217 0.46119 0.0
C1087 C 0.13894 0.71251 0.39077 0.0
C1088 C 0.1343 0.72527 0.49451 0.0
C1089 C 0.14149 0.73842 0.52172 0.0
C1090 C 0.13828 0.74879 0.51686 0.0
C1091 C 0.12744 0.7455 0.4848 0.0
C1092 C 0.12029 0.73232 0.45724 0.0
H1093 H 0.1419 0.70917 0.35487 0.0
H1094 H 0.14226 0.7238 0.39067 0.0
H1095 H 0.14467 0.71154 0.42051 0.0
H1096 H 0.13694 0.71749 0.4996 0.0
H1097 H 0.14953 0.74044 0.5469 0.0
H1098 H 0.4465 0.4388 0.33015 0.0
H1099 H 0.42422 0.42535 0.372 0.0
H1100 H 0.4155 0.45747 0.3489 0.0
H1101 H 0.43739 0.47066 0.30576 0.0
H1102 H 0.41483 0.43328 0.4566 0.0
H1103 H 0.38017 0.42191 0.29988 0.0
H1104 H 0.39825 0.42813 0.29142 0.0
H1105 H 0.39292 0.44041 0.31008 0.0
C1106 C 0.43975 0.44289 0.3332 0.0
C1107 C 0.44381 0.45586 0.31441 0.0
C1108 C 0.42704 0.43522 0.35745 0.0
C1109 C 0.41806 0.44027 0.36299 0.0
C1110 C 0.42208 0.45318 0.34424 0.0
H1111 H 0.34531 0.4257 0.51796 0.0
H1112 H 0.36632 0.43367 0.46907 0.0
C1113 C 0.43474 0.46083 0.32006 0.0
C1114 C 0.40475 0.43247 0.39017 0.0
H1115 H 0.37016 0.41945 0.38108 0.0
C1116 C 0.40503 0.43005 0.43988 0.0
C1117 C 0.39193 0.4282 0.36834 0.0
C1118 C 0.39075 0.42966 0.31435 0.0
C1119 C 0.39297 0.42412 0.46895 0.0
C1120 C 0.38028 0.4204 0.4476 0.0
C1121 C 0.37992 0.42239 0.39749 0.0
C1122 C 0.36742 0.41526 0.47734 0.0
C1123 C 0.39398 0.42245 0.52284 0.0
C1124 C 0.36093 0.40215 0.4979 0.0
C1125 C 0.34885 0.39754 0.52609 0.0
C1126 C 0.34308 0.40599 0.53438 0.0
C1127 C 0.34956 0.41903 0.51317 0.0
C1128 C 0.36155 0.42357 0.48485 0.0
H1129 H 0.40488 0.42802 0.53571 0.0
H1130 H 0.38844 0.42657 0.54633 0.0
H1131 H 0.38903 0.41106 0.52829 0.0
H1132 H 0.36518 0.39548 0.49205 0.0
H1133 H 0.34417 0.38749 0.54199 0.0
H1134 H 0.71082 0.96991 0.55242 0.0
H1135 H 0.70087 0.98207 0.51741 0.0
H1136 H 0.66056 0.95085 0.56875 0.0
H1137 H 0.67041 0.9389 0.60465 0.0
H1138 H 0.68001 0.97097 0.44474 0.0
H1139 H 0.66372 0.98808 0.6189 0.0
H1140 H 0.67591 0.98243 0.61773 0.0
H1141 H 0.65765 0.96958 0.61374 0.0
C1142 C 0.69988 0.96577 0.55693 0.0
C1143 C 0.69142 0.95341 0.58141 0.0
C1144 C 0.6942 0.97269 0.53664 0.0
C1145 C 0.68 0.96749 0.541 0.0
C1146 C 0.67158 0.95522 0.56564 0.0
H1147 H 0.61699 0.9782 0.43832 0.0
H1148 H 0.63171 0.97186 0.47606 0.0
C1149 C 0.67722 0.94829 0.5857 0.0
C1150 C 0.67375 0.97442 0.51813 0.0
H1151 H 0.65342 0.98818 0.54414 0.0
C1152 C 0.67437 0.97495 0.46647 0.0
C1153 C 0.66642 0.97962 0.54655 0.0
C1154 C 0.66598 0.98005 0.60235 0.0
C1155 C 0.66727 0.97986 0.44228 0.0
C1156 C 0.65952 0.98458 0.47061 0.0
C1157 C 0.65931 0.98451 0.52241 0.0
C1158 C 0.6508 0.98872 0.4472 0.0
C1159 C 0.6676 0.97936 0.38646 0.0
C1160 C 0.65662 1.00042 0.41869 0.0
C1161 C 0.64817 1.00405 0.39664 0.0
C1162 C 0.63372 0.99604 0.40272 0.0
C1163 C 0.628 0.98445 0.43193 0.0
C1164 C 0.63643 0.98087 0.45395 0.0
H1165 H 0.67175 0.97288 0.3698 0.0
H1166 H 0.65709 0.97496 0.37133 0.0
H1167 H 0.67431 0.99025 0.37487 0.0
H1168 H 0.6677 1.00677 0.4136 0.0
H1169 H 0.65293 1.01299 0.37431 0.0
H1170 H 0.66036 0.06429 0.32559 0.0
H1171 H 0.684 0.08053 0.29635 0.0
H1172 H 0.67508 0.05423 0.15964 0.0
H1173 H 0.65173 0.03803 0.18832 0.0
H1174 H 0.70439 0.07065 0.25525 0.0
H1175 H 0.69087 0.09728 0.12584 0.0
H1176 H 0.68049 0.08931 0.1794 0.0
H1177 H 0.67977 0.07835 0.12543 0.0
C1178 C 0.66343 0.06204 0.28923 0.0
C1179 C 0.65413 0.04985 0.25936 0.0
C1180 C 0.67694 0.07128 0.27267 0.0
C1181 C 0.68126 0.06858 0.22575 0.0
C1182 C 0.67195 0.05654 0.19584 0.0
H1183 H 0.75864 0.09646 0.07145 0.0
H1184 H 0.73651 0.08325 0.11412 0.0
C1185 C 0.65859 0.04727 0.21245 0.0
C1186 C 0.6955 0.07811 0.20752 0.0
H1187 H 0.71344 0.10129 0.11961 0.0
C1188 C 0.70643 0.07748 0.22598 0.0
C1189 C 0.69811 0.08697 0.16931 0.0
C1190 C 0.68675 0.08816 0.14884 0.0
C1191 C 0.71985 0.08523 0.20627 0.0
C1192 C 0.72236 0.09374 0.16688 0.0
C1193 C 0.7115 0.09468 0.14953 0.0
C1194 C 0.73617 0.10176 0.14299 0.0
C1195 C 0.73124 0.08426 0.22772 0.0
C1196 C 0.74332 0.11655 0.14465 0.0
C1197 C 0.75602 0.12415 0.12052 0.0
C1198 C 0.76184 0.11715 0.09348 0.0
C1199 C 0.75465 0.10229 0.09223 0.0
C1200 C 0.74196 0.09469 0.11667 0.0
H1201 H 0.72846 0.08004 0.26479 0.0
H1202 H 0.73317 0.07704 0.20271 0.0
H1203 H 0.74099 0.09478 0.23101 0.0
H1204 H 0.73907 0.12224 0.16472 0.0
H1205 H 0.76125 0.13555 0.12329 0.0
H1206 H 0.99214 0.69066 1.00277 0.0
H1207 H 1.00336 0.6806 0.04327 0.0
H1208 H 0.97177 0.6388 0.98591 0.0
H1209 H 0.96085 0.64873 0.94404 0.0
H1210 H 0.993 0.66165 0.11464 0.0
H1211 H 1.00647 0.63884 0.94804 0.0
H1212 H 1.00133 0.65147 0.94476 0.0
H1213 H 0.9885 0.63304 0.9494 0.0
C1214 C 0.98771 0.67936 0.99803 0.0
C1215 C 0.97556 0.67054 0.96996 0.0
C1216 C 0.99409 0.67361 0.02152 0.0
C1217 C 0.98854 0.65895 0.01706 0.0
C1218 C 0.97644 0.65015 0.9891 0.0
H1219 H 0.99727 0.59668 0.14282 0.0
H1220 H 0.99073 0.61052 0.09983 0.0
C1221 C 0.97008 0.65587 0.96564 0.0
C1222 C 0.99496 0.65269 0.0432 0.0
H1223 H 1.00666 0.6301 0.02528 0.0
C1224 C 0.99618 0.65492 0.09506 0.0
C1225 C 0.99916 0.64393 0.01767 0.0
C1226 C 0.99894 0.64179 0.96186 0.0
C1227 C 1.00089 0.64813 0.12214 0.0
C1228 C 1.00458 0.63897 0.09666 0.0
C1229 C 1.00374 0.63705 0.04477 0.0
C1230 C 1.00874 0.63076 0.12325 0.0
C1231 C 1.00138 0.65036 0.17792 0.0
C1232 C 1.02112 0.63753 0.15042 0.0
C1233 C 0.0249 0.62961 0.17515 0.0
C1234 C 1.01635 0.61478 0.17331 0.0
C1235 C 1.004 0.60807 0.14575 0.0
C1236 C 1.00028 0.61597 0.12083 0.0
H1237 H 0.99595 0.65578 0.1923 0.0
H1238 H 0.99664 0.64008 0.19455 0.0
H1239 H 1.01231 0.65696 0.19031 0.0
H1240 H 0.02788 0.64892 0.1523 0.0
H1241 H 0.03443 0.63513 0.19621 0.0
H1242 H 0.41341 0.31114 1.00717 0.0
H1243 H 0.42747 0.3346 0.0511 0.0
H1244 H 0.42823 0.35403 0.92029 0.0
H1245 H 0.41428 0.33065 0.87581 0.0
H1246 H 0.45559 0.36126 0.01598 0.0
H1247 H 0.40981 0.3665 0.04329 0.0
H1248 H 0.40822 0.3495 0.03364 0.0
H1249 H 0.41237 0.36017 0.98264 0.0
C1250 C 0.4167 0.32039 0.98745 0.0
C1251 C 0.41264 0.31896 0.93788 0.0
C1252 C 0.42476 0.3338 1.01267 0.0
C1253 C 0.42883 0.34604 0.98904 0.0
C1254 C 0.42517 0.3447 0.93923 0.0
H1255 H 0.46186 0.43398 0.07339 0.0
H1256 H 0.45141 0.41003 0.03462 0.0
C1257 C 0.41721 0.33131 0.91383 0.0
C1258 C 0.43621 0.36019 0.01711 0.0
H1259 H 0.43137 0.38628 0.06882 0.0
C1260 C 0.45033 0.36675 0.02781 0.0
C1261 C 0.42929 0.36727 0.03257 0.0
C1262 C 0.41406 0.36054 0.02286 0.0
C1263 C 0.45784 0.38046 0.05214 0.0
C1264 C 0.45094 0.38764 0.06722 0.0
C1265 C 0.43672 0.38086 0.05733 0.0
C1266 C 0.45826 0.40248 0.09056 0.0
C1267 C 0.47317 0.3873 0.05972 0.0
C1268 C 0.46579 0.40643 0.13507 0.0
C1269 C 0.47199 0.42034 0.15731 0.0
C1270 C 0.47057 0.43047 0.13587 0.0
C1271 C 0.46312 0.42647 0.09123 0.0
C1272 C 0.4571 0.41272 0.0689 0.0
H1273 H 0.47744 0.382 0.03512 0.0
H1274 H 0.47882 0.39866 0.05272 0.0
H1275 H 0.47515 0.38653 0.09861 0.0
H1276 H 0.4666 0.3987 0.15326 0.0
H1277 H 0.47756 0.42304 0.19185 0.0
H1278 H 0.98163 0.32488 0.43171 0.0
H1279 H 0.99225 0.34762 0.48157 0.0
H1280 H 0.97972 0.32587 0.61513 0.0
H1281 H 0.96925 0.30315 0.56578 0.0
H1282 H 0.98129 0.35887 0.55274 0.0
H1283 H 1.02116 0.35297 0.63668 0.0
H1284 H 1.01094 0.34173 0.58388 0.0
H1285 H 1.00378 0.33858 0.64521 0.0
C1286 C 0.98108 0.32492 0.47169 0.0
C1287 C 0.97465 0.31213 0.49461 0.0
C1288 C 0.98717 0.33795 0.50018 0.0
C1289 C 0.98703 0.33851 0.55219 0.0
C1290 C 0.98025 0.32576 0.57513 0.0
H1291 H 0.02263 0.40699 0.78825 0.0
H1292 H 1.00949 0.38412 0.73992 0.0
C1293 C 0.97418 0.31274 0.54674 0.0
C1294 C 0.99404 0.35239 0.58245 0.0
H1295 H 1.01948 0.37244 0.66885 0.0
C1296 C 0.98967 0.36185 0.57801 0.0
C1297 C 1.00498 0.35631 0.61553 0.0
C1298 C 1.0106 0.34694 0.62041 0.0
C1299 C 0.99577 0.37499 0.60626 0.0
C1300 C 1.00672 0.37892 0.63931 0.0
C1301 C 1.01106 0.36943 0.64378 0.0
C1302 C 1.01405 0.39292 0.6688 0.0
C1303 C 0.99023 0.38442 0.60119 0.0
C1304 C 1.02103 0.40554 0.64509 0.0
C1305 C 0.02853 0.41864 0.67264 0.0
C1306 C 0.02933 0.41946 0.72465 0.0
C1307 C 0.02222 0.40681 0.74836 0.0
C1308 C 1.01471 0.39369 0.72073 0.0
H1309 H 0.97956 0.37835 0.58589 0.0
H1310 H 0.9902 0.38992 0.63746 0.0
H1311 H 0.99691 0.39254 0.57541 0.0
H1312 H 1.02096 0.40525 0.60508 0.0
H1313 H 0.03394 0.42813 0.65297 0.0
H1314 H 0.68686 0.60514 0.53227 0.0
H1315 H 0.70874 0.61925 0.48978 0.0
H1316 H 0.71472 0.65709 0.57117 0.0
H1317 H 0.69275 0.64299 0.61415 0.0
H1318 H 0.72102 0.66053 0.4713 0.0
H1319 H 0.74697 0.63645 0.5499 0.0
H1320 H 0.73095 0.62373 0.51925 0.0
H1321 H 0.73093 0.63409 0.57417 0.0
C1322 C 0.69285 0.61644 0.54164 0.0
C1323 C 0.68805 0.62287 0.57725 0.0
C1324 C 0.7054 0.62451 0.5172 0.0
C1325 C 0.71356 0.63921 0.52793 0.0
C1326 C 0.70866 0.64575 0.56245 0.0
H1327 H 0.80033 0.69298 0.45224 0.0
H1328 H 0.7781 0.67923 0.49341 0.0
C1329 C 0.69605 0.63767 0.5869 0.0
C1330 C 0.72714 0.64772 0.50295 0.0
H1331 H 0.75859 0.65113 0.48423 0.0
C1332 C 0.72925 0.65851 0.47425 0.0
C1333 C 0.73798 0.64522 0.50725 0.0
C1334 C 0.73669 0.63434 0.53968 0.0
C1335 C 0.74178 0.66667 0.44909 0.0
C1336 C 0.75243 0.66383 0.45201 0.0
C1337 C 0.75039 0.65321 0.48142 0.0
C1338 C 0.76594 0.67204 0.42616 0.0
C1339 C 0.74358 0.67846 0.42045 0.0
C1340 C 0.7666 0.67241 0.37438 0.0
C1341 C 0.77935 0.68031 0.35059 0.0
C1342 C 0.79173 0.68794 0.37805 0.0
C1343 C 0.79103 0.68727 0.4298 0.0
C1344 C 0.77831 0.6794 0.45349 0.0
H1345 H 0.73613 0.68167 0.43255 0.0
H1346 H 0.75423 0.68787 0.42479 0.0
H1347 H 0.74174 0.67479 0.38053 0.0
H1348 H 0.75725 0.66655 0.35228 0.0
H1349 H 0.77947 0.68051 0.31072 0.0
H1350 H 0.44598 0.13711 0.48262 0.0
H1351 H 0.45396 0.125 0.52835 0.0
H1352 H 0.41281 0.09833 0.58409 0.0
H1353 H 0.40471 0.11059 0.53903 0.0
H1354 H 0.45177 0.12344 0.63452 0.0
H1355 H 0.42513 0.07032 0.53065 0.0
H1356 H 0.42778 0.08585 0.50454 0.0
H1357 H 0.41476 0.07761 0.55073 0.0
C1358 C 0.43858 0.12871 0.50463 0.0
C1359 C 0.42468 0.12495 0.50727 0.0
C1360 C 0.44317 0.12173 0.53056 0.0
C1361 C 0.43398 0.11071 0.5594 0.0
C1362 C 0.42004 0.10667 0.56147 0.0
H1363 H 0.45355 0.06214 0.74171 0.0
H1364 H 0.44088 0.07044 0.69955 0.0
C1365 C 0.41543 0.1137 0.53559 0.0
C1366 C 0.43929 0.10407 0.58918 0.0
H1367 H 0.43905 0.07367 0.59846 0.0
C1368 C 0.44894 0.11254 0.62679 0.0
C1369 C 0.43547 0.0898 0.57943 0.0
C1370 C 0.42528 0.08032 0.53899 0.0
C1371 C 0.45504 0.10723 0.65435 0.0
C1372 C 0.45168 0.09313 0.64327 0.0
C1373 C 0.44167 0.08449 0.60677 0.0
C1374 C 0.45909 0.08756 0.66722 0.0
C1375 C 0.46506 0.11679 0.69518 0.0
C1376 C 0.47345 0.09415 0.66195 0.0
C1377 C 0.48067 0.08946 0.68588 0.0
C1378 C 0.47371 0.07796 0.71543 0.0
C1379 C 0.45923 0.07101 0.71926 0.0
C1380 C 0.45198 0.07577 0.69531 0.0
H1381 H 0.46328 0.12538 0.70897 0.0
H1382 H 0.46422 0.11077 0.72683 0.0
H1383 H 0.47576 0.1218 0.68062 0.0
H1384 H 0.47912 0.103 0.63935 0.0
H1385 H 0.49175 0.09483 0.6809 0.0
H1386 H 0.34144 0.93858 1.0008 0.0
H1387 H 0.36296 0.95107 0.95468 0.0
H1388 H 0.37051 0.9909 0.02336 0.0
H1389 H 0.34886 0.97841 0.0698 0.0
H1390 H 0.37608 0.99197 0.92356 0.0
H1391 H 0.40155 0.96856 1.0099 0.0
H1392 H 0.38521 0.95551 0.98205 0.0
H1393 H 0.38587 0.96708 0.03419 0.0
C1394 C 0.34771 0.94999 1.00665 0.0
C1395 C 0.34344 0.95744 0.0397 0.0
C1396 C 0.36006 0.95713 0.98014 0.0
C1397 C 0.36856 0.97193 0.98625 0.0
C1398 C 0.36419 0.97947 0.01821 0.0
H1399 H 0.45473 0.02096 0.89558 0.0
H1400 H 0.43294 1.00871 0.94058 0.0
C1401 C 0.35177 0.97231 0.04467 0.0
C1402 C 0.38193 0.97947 0.95898 0.0
H1403 H 0.41264 0.98125 0.93934 0.0
C1404 C 0.38409 0.98966 0.92716 0.0
C1405 C 0.39252 0.97663 0.96406 0.0
C1406 C 0.39126 0.96646 0.99976 0.0
C1407 C 0.39638 0.99687 0.89972 0.0
C1408 C 0.40674 0.99364 0.90339 0.0
C1409 C 0.40467 0.98363 0.9359 0.0
C1410 C 0.41999 1.00083 0.87518 0.0
C1411 C 0.39826 1.00811 0.86787 0.0
C1412 C 0.42008 1.00027 0.82314 0.0
C1413 C 0.43258 1.00733 0.79715 0.0
C1414 C 0.4453 0.015 0.82259 0.0
C1415 C 0.44517 0.01519 0.87462 0.0
C1416 C 0.43269 1.00818 0.90052 0.0
H1417 H 0.39131 1.012 0.8795 0.0
H1418 H 0.4091 0.01725 0.86934 0.0
H1419 H 0.39574 1.00359 0.82887 0.0
H1420 H 0.41047 0.99438 0.80253 0.0
H1421 H 0.43225 1.00688 0.75713 0.0
H1422 H 0.10612 0.46791 0.89428 0.0
H1423 H 0.11463 0.45612 0.9397 0.0
H1424 H 0.08726 0.41668 0.85535 0.0
H1425 H 0.07821 0.42845 0.81167 0.0
H1426 H 0.08869 0.41171 0.94702 0.0
H1427 H 0.14212 0.44726 0.88385 0.0
H1428 H 0.13572 0.45706 0.91842 0.0
H1429 H 0.12768 0.44736 0.8604 0.0
C1430 C 0.10188 0.4567 0.88576 0.0
C1431 C 0.09164 0.4491 0.84914 0.0
C1432 C 0.10681 0.44998 0.91142 0.0
C1433 C 0.10197 0.43559 0.89987 0.0
C1434 C 0.09129 0.42782 0.86468 0.0
H1435 H 0.1519 0.4023 0.97501 0.0
H1436 H 0.1391 0.41034 0.93319 0.0
C1437 C 0.0861 0.43451 0.83975 0.0
C1438 C 0.10833 0.42882 0.92361 0.0
H1439 H 0.13942 0.43303 0.94852 0.0
C1440 C 0.09978 0.41631 0.94704 0.0
C1441 C 0.12279 0.4346 0.92286 0.0
C1442 C 0.13258 0.44721 0.89455 0.0
C1443 C 0.10529 0.4096 0.97038 0.0
C1444 C 0.11982 0.41584 0.97197 0.0
C1445 C 0.1283 0.42825 0.94798 0.0
C1446 C 0.12658 0.40963 0.99684 0.0
C1447 C 0.09541 0.3957 0.99179 0.0
C1448 C 0.12376 0.4063 0.04654 0.0
C1449 C 0.13089 0.40134 0.07009 0.0
C1450 C 0.14126 0.40006 0.04491 0.0
C1451 C 0.14403 0.40332 0.99533 0.0
C1452 C 0.1367 0.40792 0.97147 0.0
H1453 H 0.08513 0.39021 0.97352 0.0
H1454 H 0.09944 0.38855 0.98784 0.0
H1455 H 0.09391 0.39771 0.03174 0.0
H1456 H 0.11635 0.4079 0.06765 0.0
H1457 H 0.12869 0.39903 0.1085 0.0
H1458 H 0.66461 0.65292 0.72155 0.0
H1459 H 0.67476 0.67596 0.76944 0.0
H1460 H 0.63667 0.66114 0.8502 0.0
H1461 H 0.62653 0.63811 0.8032 0.0
H1462 H 0.66702 0.69601 0.78284 0.0
H1463 H 0.66495 0.67441 0.96089 0.0
H1464 H 0.66242 0.66441 0.90188 0.0
H1465 H 0.64853 0.66576 0.93011 0.0
C1466 C 0.65836 0.65459 0.74925 0.0
C1467 C 0.64477 0.64358 0.75872 0.0
C1468 C 0.66419 0.66778 0.77667 0.0
C1469 C 0.6566 0.67021 0.81424 0.0
C1470 C 0.64287 0.65943 0.82231 0.0
H1471 H 0.66886 0.738 0.02951 0.0
H1472 H 0.66039 0.71626 0.9756 0.0
C1473 C 0.63704 0.64627 0.79507 0.0
C1474 C 0.66301 0.68391 0.84546 0.0
H1475 H 0.67028 0.69811 0.96556 0.0
C1476 C 0.66784 0.69649 0.82274 0.0
C1477 C 0.66414 0.68458 0.89758 0.0
C1478 C 0.65986 0.6716 0.92409 0.0
C1479 C 0.67331 0.70961 0.85084 0.0
C1480 C 0.67419 0.71021 0.90305 0.0
C1481 C 0.66956 0.69766 0.92562 0.0
C1482 C 0.67951 0.72366 0.93519 0.0
C1483 C 0.6777 0.72264 0.82455 0.0
C1484 C 0.69317 0.73508 0.93098 0.0
C1485 C 0.69806 0.74762 0.96179 0.0
C1486 C 0.68941 0.74901 0.99759 0.0
C1487 C 0.67578 0.73746 1.00196 0.0
C1488 C 0.67092 0.72495 0.9713 0.0
H1489 H 0.67339 0.71993 0.78641 0.0
H1490 H 0.67437 0.72936 0.84542 0.0
H1491 H 0.68913 0.72894 0.82183 0.0
H1492 H 0.70009 0.73427 0.90407 0.0
H1493 H 0.70857 0.75627 0.95706 0.0
H1494 H 0.75093 0.97721 0.76146 0.0
H1495 H 0.76203 0.99988 0.81139 0.0
H1496 H 0.7711 0.02175 0.679 0.0
H1497 H 0.75985 0.9991 0.6287 0.0
H1498 H 0.78867 0.02335 0.81145 0.0
H1499 H 0.75087 0.03734 0.76407 0.0
H1500 H 0.7478 0.0198 0.75059 0.0
H1501 H 0.75887 0.0336 0.71127 0.0
C1502 C 0.75532 0.98683 0.7428 0.0
C1503 C 0.75439 0.98627 0.69092 0.0
C1504 C 0.76168 0.99981 0.77151 0.0
C1505 C 0.7672 1.01255 0.74916 0.0
C1506 C 0.76665 1.01207 0.69728 0.0
H1507 H 0.82295 0.09818 0.878 0.0
H1508 H 0.81246 0.07478 0.8334 0.0
C1509 C 0.76029 0.99908 0.66849 0.0
C1510 C 0.77346 0.02628 0.78023 0.0
H1511 H 0.7707 0.05511 0.80964 0.0
C1512 C 0.78472 0.03028 0.8111 0.0
C1513 C 0.76819 0.03525 0.78049 0.0
C1514 C 0.75569 0.03126 0.75022 0.0
C1515 C 0.79102 0.04309 0.84131 0.0
C1516 C 0.78603 0.05226 0.84033 0.0
C1517 C 0.7746 0.04814 0.81021 0.0
C1518 C 0.79262 0.06628 0.86966 0.0
C1519 C 0.80283 0.04659 0.87457 0.0
C1520 C 0.78496 0.06942 0.9048 0.0
C1521 C 0.79095 0.08285 0.9305 0.0
C1522 C 0.8047 0.0935 0.92119 0.0
C1523 C 0.81237 0.09025 0.88639 0.0
C1524 C 0.8064 0.07682 0.86092 0.0
H1525 H 0.80295 0.037 0.88113 0.0
H1526 H 0.81274 0.05401 0.85671 0.0
H1527 H 0.80226 0.05175 0.91087 0.0
H1528 H 0.77429 0.06149 0.91205 0.0
H1529 H 0.7847 0.08498 0.95675 0.0
H1530 H 0.11778 0.78628 0.70962 0.0
H1531 H 0.09539 0.77643 0.75095 0.0
H1532 H 0.07614 0.77276 0.61272 0.0
H1533 H 0.09846 0.78228 0.57076 0.0
H1534 H 0.07743 0.78516 0.76421 0.0
H1535 H 0.05187 0.73319 0.65464 0.0
H1536 H 0.07026 0.74564 0.65235 0.0
H1537 H 0.05866 0.74781 0.61698 0.0
C1538 C 0.1088 0.78338 0.68788 0.0
C1539 C 0.10995 0.785 0.63664 0.0
C1540 C 0.09597 0.77775 0.71167 0.0
C1541 C 0.08396 0.77356 0.68492 0.0
C1542 C 0.08515 0.77553 0.63404 0.0
H1543 H 1.00017 0.74757 0.77085 0.0
H1544 H 0.02333 0.7585 0.73503 0.0
C1545 C 0.09797 0.78109 0.6101 0.0
C1546 C 0.07028 0.76723 0.71043 0.0
H1547 H 0.03738 0.73811 0.70739 0.0
C1548 C 0.06872 0.77484 0.75186 0.0
C1549 C 0.05887 0.75368 0.69479 0.0
C1550 C 0.06 0.74453 0.65258 0.0
C1551 C 0.05604 0.76943 0.77714 0.0
C1552 C 0.04462 0.75608 0.7607 0.0
C1553 C 0.04617 0.74838 0.71976 0.0
C1554 C 0.03087 0.75008 0.78485 0.0
C1555 C 0.05479 0.778 0.82106 0.0
C1556 C 0.02746 0.74181 0.82516 0.0
C1557 C 1.01417 0.7355 0.84588 0.0
C1558 C 1.00404 0.73734 0.82657 0.0
C1559 C 1.00767 0.74592 0.78684 0.0
C1560 C 1.02091 0.75217 0.76616 0.0
H1561 H 0.06461 0.78824 0.82932 0.0
H1562 H 0.04657 0.78011 0.81391 0.0
H1563 H 0.05168 0.77187 0.85421 0.0
H1564 H 0.03502 0.74006 0.84006 0.0
H1565 H 1.01176 0.72895 0.8763 0.0
H1566 H 0.30708 0.33192 0.56169 0.0
H1567 H 0.31525 0.3189 0.60187 0.0
H1568 H 0.31093 0.33659 0.74487 0.0
H1569 H 0.30239 0.3492 0.70537 0.0
H1570 H 0.33754 0.32809 0.65769 0.0
H1571 H 0.29127 0.29575 0.76989 0.0
H1572 H 0.29115 0.30562 0.72128 0.0
H1573 H 0.29767 0.31423 0.78198 0.0
C1574 C 0.3077 0.33288 0.60173 0.0
C1575 C 0.30394 0.34152 0.63022 0.0
C1576 C 0.31242 0.32546 0.62468 0.0
C1577 C 0.31349 0.32653 0.67657 0.0
C1578 C 0.30983 0.33522 0.70495 0.0
H1579 H 0.36481 0.3087 0.84678 0.0
H1580 H 0.35578 0.31957 0.79855 0.0
C1581 C 0.305 0.34251 0.68216 0.0
C1582 C 0.31891 0.31901 0.70114 0.0
H1583 H 0.31205 0.29738 0.79336 0.0
C1584 C 0.3319 0.32126 0.68706 0.0
C1585 C 0.31151 0.30991 0.73899 0.0
C1586 C 0.29707 0.30611 0.75355 0.0
C1587 C 0.33783 0.31499 0.71053 0.0
C1588 C 0.33075 0.30653 0.75026 0.0
C1589 C 0.31761 0.30401 0.76345 0.0
C1590 C 0.33661 0.29999 0.77833 0.0
C1591 C 0.35149 0.31732 0.69179 0.0
C1592 C 0.32877 0.28542 0.78433 0.0
C1593 C 0.33381 0.27927 0.81265 0.0
C1594 C 0.34687 0.28751 0.83551 0.0
C1595 C 0.35481 0.30206 0.82907 0.0
C1596 C 0.34966 0.30826 0.80125 0.0
H1597 H 0.35326 0.32002 0.65264 0.0
H1598 H 0.35997 0.3263 0.7144 0.0
H1599 H 0.35207 0.30781 0.69444 0.0
H1600 H 0.31868 0.27878 0.76715 0.0
H1601 H 0.32751 0.26802 0.8164 0.0
H1602 H 1.01229 0.30238 0.39769 0.0
H1603 H 0.03466 0.31563 0.35622 0.0
H1604 H 0.02657 0.27734 0.27199 0.0
H1605 H 1.00428 0.26409 0.31285 0.0
H1606 H 0.05253 0.29235 0.31386 0.0
H1607 H 0.04283 0.32743 0.21432 0.0
H1608 H 0.03989 0.32798 0.27995 0.0
H1609 H 0.02912 0.31197 0.24178 0.0
C1610 C 1.01519 0.29681 0.3699 0.0
C1611 C 1.00644 0.28212 0.35888 0.0
C1612 C 0.02799 0.30441 0.34616 0.0
C1613 C 0.03227 0.29751 0.31061 0.0
C1614 C 0.02353 0.2829 0.29934 0.0
H1615 H 0.09935 0.33379 0.09767 0.0
H1616 H 0.07704 0.32133 0.13981 0.0
C1617 C 1.01078 0.27531 0.32301 0.0
C1618 C 0.04601 0.30532 0.28608 0.0
H1619 H 0.06561 0.33191 0.21075 0.0
C1620 C 0.05539 0.30101 0.29135 0.0
C1621 C 0.04969 0.31651 0.25618 0.0
C1622 C 0.03983 0.3212 0.24721 0.0
C1623 C 0.06834 0.30761 0.26789 0.0
C1624 C 0.07215 0.319 0.23887 0.0
C1625 C 0.06273 0.32325 0.23327 0.0
C1626 C 0.08577 0.3265 0.21348 0.0
C1627 C 0.07771 0.3021 0.27347 0.0
C1628 C 0.09814 0.33364 0.24082 0.0
C1629 C 0.11093 0.34074 0.21682 0.0
C1630 C 0.11164 0.34093 0.1649 0.0
C1631 C 0.09922 0.33382 0.13763 0.0
C1632 C 0.08644 0.32672 0.16169 0.0
H1633 H 0.07193 0.29121 0.28574 0.0
H1634 H 0.083 0.30206 0.23807 0.0
H1635 H 0.08572 0.30905 0.30179 0.0
H1636 H 0.09791 0.33386 0.28085 0.0
H1637 H 0.12025 0.34618 0.23909 0.0
H1638 H 0.83146 0.7738 0.32134 0.0
H1639 H 0.81761 0.78194 0.28813 0.0
H1640 H 0.78982 0.73998 0.22062 0.0
H1641 H 0.80361 0.73173 0.25432 0.0
H1642 H 0.81215 0.78254 0.19276 0.0
H1643 H 0.76295 0.74888 0.29059 0.0
H1644 H 0.77899 0.75079 0.30745 0.0
H1645 H 0.76928 0.73914 0.25479 0.0
C1646 C 0.82241 0.76628 0.29944 0.0
C1647 C 0.81866 0.75209 0.29053 0.0
C1648 C 0.81446 0.77095 0.28056 0.0
C1649 C 0.80255 0.76157 0.25231 0.0
C1650 C 0.79876 0.74737 0.24327 0.0
H1651 H 0.74459 0.77552 0.10513 0.0
H1652 H 0.75794 0.76571 0.13026 0.0
C1653 C 0.80667 0.74266 0.2625 0.0
C1654 C 0.79445 0.76684 0.23126 0.0
H1655 H 0.76249 0.76259 0.23017 0.0
C1656 C 0.80129 0.77818 0.20102 0.0
C1657 C 0.78026 0.76114 0.24186 0.0
C1658 C 0.77245 0.7494 0.2758 0.0
C1659 C 0.79437 0.78394 0.18117 0.0
C1660 C 0.78024 0.77833 0.19217 0.0
C1661 C 0.77332 0.76686 0.22168 0.0
C1662 C 0.77258 0.78454 0.17489 0.0
C1663 C 0.80221 0.79592 0.14823 0.0
C1664 C 0.77638 0.7984 0.19158 0.0
C1665 C 0.76877 0.80404 0.1774 0.0
C1666 C 0.75716 0.79592 0.14622 0.0
C1667 C 0.7535 0.7821 0.12895 0.0
C1668 C 0.76109 0.77645 0.14341 0.0
H1669 H 0.81176 0.79659 0.13327 0.0
H1670 H 0.79567 0.7947 0.11678 0.0
H1671 H 0.80526 0.80606 0.17007 0.0
H1672 H 0.78508 0.80477 0.21651 0.0
H1673 H 0.77185 0.81468 0.1916 0.0
H1674 H 0.30448 0.981 0.23842 0.0
H1675 H 0.31387 1.00453 0.28146 0.0
H1676 H 0.32759 0.02329 0.1422 0.0
H1677 H 0.31824 0.9998 0.09874 0.0
H1678 H 0.34807 0.03607 0.21835 0.0
H1679 H 0.29885 0.03112 0.28275 0.0
H1680 H 0.30104 0.01707 0.29726 0.0
H1681 H 0.29953 0.01939 0.23374 0.0
C1682 C 0.30939 0.99011 0.2168 0.0
C1683 C 0.31055 0.98846 0.16499 0.0
C1684 C 0.31471 1.00357 0.24151 0.0
C1685 C 0.32131 0.01569 0.21506 0.0
C1686 C 0.32248 1.01409 0.16338 0.0
H1687 H 0.34763 0.10278 0.30885 0.0
H1688 H 0.33606 0.07844 0.2713 0.0
C1689 C 0.31709 1.00063 0.13857 0.0
C1690 C 0.32748 0.03006 0.2414 0.0
H1691 H 0.31957 0.05162 0.31354 0.0
C1692 C 0.34184 0.03947 0.23916 0.0
C1693 C 0.31934 0.03453 0.26825 0.0
C1694 C 0.30382 0.02507 0.27047 0.0
C1695 C 0.34829 0.05315 0.26341 0.0
C1696 C 0.34018 0.05754 0.29107 0.0
C1697 C 0.32579 0.0482 0.29281 0.0
C1698 C 0.34645 0.07198 0.31687 0.0
C1699 C 0.36371 0.06291 0.25849 0.0
C1700 C 0.35586 0.07636 0.35604 0.0
C1701 C 0.36246 0.09028 0.37784 0.0
C1702 C 0.3598 0.10012 0.36083 0.0
C1703 C 0.34997 0.09553 0.32283 0.0
C1704 C 0.34334 0.0816 0.30127 0.0
H1705 H 0.36799 0.05907 0.22772 0.0
H1706 H 0.36638 0.07373 0.25202 0.0
H1707 H 0.3688 0.06359 0.2934 0.0
H1708 H 0.35828 0.06906 0.36923 0.0
H1709 H 0.36995 0.09342 0.40701 0.0
loop_
_geom_bond_atom_site_label_1
_geom_bond_atom_site_label_2
_geom_bond_distance
_geom_bond_site_symmetry_2
_ccdc_geom_bond_type
Cu0 N1 1.999 . S
Cu0 O6 1.974 . S
Cu0 N11 1.985 . S
Cu0 O20 1.959 . S
N1 Cu0 1.999 . S
N1 C3 1.263 . S
N1 C5 1.389 . S
N2 C3 1.358 . S
N2 C4 1.400 . S
C3 N1 1.263 . S
C3 N2 1.358 . S
C3 H9 0.930 . S
C4 N2 1.400 . S
C4 C5 1.351 . S
C4 H21 0.930 . S
C5 N1 1.389 . S
C5 C4 1.351 . S
C5 H10 0.930 . S
O6 Cu0 1.974 . S
O6 C16 1.282 . S
C7 O8 1.261 . S
C7 O20 1.251 . S
O8 C7 1.261 . S
H9 C3 0.930 . S
H10 C5 0.930 . S
N11 Cu0 1.985 . S
N11 C13 1.335 . S
N11 C14 1.390 . S
N12 C13 1.345 . S
N12 C15 1.336 . S
C13 N11 1.335 . S
C13 N12 1.345 . S
C13 H18 0.930 . S
C14 N11 1.390 . S
C14 C15 1.346 . S
C14 H19 0.930 . S
C15 N12 1.336 . S
C15 C14 1.346 . S
C15 H22 0.929 . S
C16 O6 1.282 . S
C16 O17 1.216 . S
O17 C16 1.216 . S
H18 C13 0.930 . S
H19 C14 0.930 . S
O20 Cu0 1.959 . S
O20 C7 1.251 . S
H21 C4 0.930 . S
H22 C15 0.929 . S
Cu23 N24 1.999 . S
Cu23 O29 1.974 . S
Cu23 N34 1.985 . S
Cu23 O43 1.959 . S
N24 Cu23 1.999 . S
N24 C26 1.263 . S
N24 C28 1.389 . S
N25 C26 1.358 . S
N25 C27 1.400 . S
C26 N24 1.263 . S
C26 N25 1.358 . S
C26 H32 0.930 . S
C27 N25 1.400 . S
C27 C28 1.351 . S
C27 H44 0.930 . S
C28 N24 1.389 . S
C28 C27 1.351 . S
C28 H33 0.930 . S
O29 Cu23 1.974 . S
O29 C39 1.282 . S
C30 O31 1.261 . S
C30 O43 1.251 . S
O31 C30 1.261 . S
H32 C26 0.930 . S
H33 C28 0.930 . S
N34 Cu23 1.985 . S
N34 C36 1.335 . S
N34 C37 1.390 . S
N35 C36 1.345 . S
N35 C38 1.336 . S
C36 N34 1.335 . S
C36 N35 1.345 . S
C36 H41 0.930 . S
C37 N34 1.390 . S
C37 C38 1.346 . S
C37 H42 0.930 . S
C38 N35 1.336 . S
C38 C37 1.346 . S
C38 H45 0.929 . S
C39 O29 1.282 . S
C39 O40 1.216 . S
O40 C39 1.216 . S
H41 C36 0.930 . S
H42 C37 0.930 . S
O43 Cu23 1.959 . S
O43 C30 1.251 . S
H44 C27 0.930 . S
H45 C38 0.929 . S
Cu46 N47 1.999 . S
Cu46 O52 1.974 . S
Cu46 N57 1.985 . S
Cu46 O66 1.959 . S
N47 Cu46 1.999 . S
N47 C49 1.263 . S
N47 C51 1.389 . S
N48 C49 1.358 . S
N48 C50 1.400 . S
C49 N47 1.263 . S
C49 N48 1.358 . S
C49 H55 0.930 . S
C50 N48 1.400 . S
C50 C51 1.351 . S
C50 H67 0.930 . S
C51 N47 1.389 . S
C51 C50 1.351 . S
C51 H56 0.930 . S
O52 Cu46 1.974 . S
O52 C62 1.282 . S
C53 O54 1.261 . S
C53 O66 1.251 . S
O54 C53 1.261 . S
H55 C49 0.930 . S
H56 C51 0.930 . S
N57 Cu46 1.985 . S
N57 C59 1.335 . S
N57 C60 1.390 . S
N58 C59 1.345 . S
N58 C61 1.336 . S
C59 N57 1.335 . S
C59 N58 1.345 . S
C59 H64 0.930 . S
C60 N57 1.390 . S
C60 C61 1.346 . S
C60 H65 0.930 . S
C61 N58 1.336 . S
C61 C60 1.346 . S
C61 H68 0.929 . S
C62 O52 1.282 . S
C62 O63 1.216 . S
O63 C62 1.216 . S
H64 C59 0.930 . S
H65 C60 0.930 . S
O66 Cu46 1.959 . S
O66 C53 1.251 . S
H67 C50 0.930 . S
H68 C61 0.929 . S
Cu69 N70 1.999 . S
Cu69 O75 1.974 . S
Cu69 N80 1.985 . S
Cu69 O89 1.959 . S
N70 Cu69 1.999 . S
N70 C72 1.263 . S
N70 C74 1.389 . S
N71 C72 1.358 . S
N71 C73 1.400 . S
C72 N70 1.263 . S
C72 N71 1.358 . S
C72 H78 0.930 . S
C73 N71 1.400 . S
C73 C74 1.351 . S
C73 H90 0.930 . S
C74 N70 1.389 . S
C74 C73 1.351 . S
C74 H79 0.930 . S
O75 Cu69 1.974 . S
O75 C85 1.282 . S
C76 O77 1.261 . S
C76 O89 1.251 . S
O77 C76 1.261 . S
H78 C72 0.930 . S
H79 C74 0.930 . S
N80 Cu69 1.985 . S
N80 C82 1.335 . S
N80 C83 1.390 . S
N81 C82 1.345 . S
N81 C84 1.336 . S
C82 N80 1.335 . S
C82 N81 1.345 . S
C82 H87 0.930 . S
C83 N80 1.390 . S
C83 C84 1.346 . S
C83 H88 0.930 . S
C84 N81 1.336 . S
C84 C83 1.346 . S
C84 H91 0.929 . S
C85 O75 1.282 . S
C85 O86 1.216 . S
O86 C85 1.216 . S
H87 C82 0.930 . S
H88 C83 0.930 . S
O89 Cu69 1.959 . S
O89 C76 1.251 . S
H90 C73 0.930 . S
H91 C84 0.929 . S
Cu92 N93 1.999 . S
Cu92 O98 1.974 . S
Cu92 N103 1.985 . S
Cu92 O112 1.959 . S
N93 Cu92 1.999 . S
N93 C95 1.263 . S
N93 C97 1.389 . S
N94 C95 1.358 . S
N94 C96 1.400 . S
C95 N93 1.263 . S
C95 N94 1.358 . S
C95 H101 0.930 . S
C96 N94 1.400 . S
C96 C97 1.351 . S
C96 H113 0.930 . S
C97 N93 1.389 . S
C97 C96 1.351 . S
C97 H102 0.930 . S
O98 Cu92 1.974 . S
O98 C108 1.282 . S
C99 O100 1.261 . S
C99 O112 1.251 . S
O100 C99 1.261 . S
H101 C95 0.930 . S
H102 C97 0.930 . S
N103 Cu92 1.985 . S
N103 C105 1.335 . S
N103 C106 1.390 . S
N104 C105 1.345 . S
N104 C107 1.336 . S
C105 N103 1.335 . S
C105 N104 1.345 . S
C105 H110 0.930 . S
C106 N103 1.390 . S
C106 C107 1.346 . S
C106 H111 0.930 . S
C107 N104 1.336 . S
C107 C106 1.346 . S
C107 H114 0.929 . S
C108 O98 1.282 . S
C108 O109 1.216 . S
O109 C108 1.216 . S
H110 C105 0.930 . S
H111 C106 0.930 . S
O112 Cu92 1.959 . S
O112 C99 1.251 . S
H113 C96 0.930 . S
H114 C107 0.929 . S
Cu115 N116 1.999 . S
Cu115 O121 1.974 . S
Cu115 N126 1.985 . S
Cu115 O135 1.959 . S
N116 Cu115 1.999 . S
N116 C118 1.263 . S
N116 C120 1.389 . S
N117 C118 1.358 . S
N117 C119 1.400 . S
C118 N116 1.263 . S
C118 N117 1.358 . S
C118 H124 0.930 . S
C119 N117 1.400 . S
C119 C120 1.351 . S
C119 H136 0.930 . S
C120 N116 1.389 . S
C120 C119 1.351 . S
C120 H125 0.930 . S
O121 Cu115 1.974 . S
O121 C131 1.282 . S
C122 O123 1.261 . S
C122 O135 1.251 . S
O123 C122 1.261 . S
H124 C118 0.930 . S
H125 C120 0.930 . S
N126 Cu115 1.985 . S
N126 C128 1.335 . S
N126 C129 1.390 . S
N127 C128 1.345 . S
N127 C130 1.336 . S
C128 N126 1.335 . S
C128 N127 1.345 . S
C128 H133 0.930 . S
C129 N126 1.390 . S
C129 C130 1.346 . S
C129 H134 0.930 . S
C130 N127 1.336 . S
C130 C129 1.346 . S
C130 H137 0.929 . S
C131 O121 1.282 . S
C131 O132 1.216 . S
O132 C131 1.216 . S
H133 C128 0.930 . S
H134 C129 0.930 . S
O135 Cu115 1.959 . S
O135 C122 1.251 . S
H136 C119 0.930 . S
H137 C130 0.929 . S
Cu138 N139 1.999 . S
Cu138 O144 1.974 . S
Cu138 N149 1.985 . S
Cu138 O158 1.959 . S
N139 Cu138 1.999 . S
N139 C141 1.263 . S
N139 C143 1.389 . S
N140 C141 1.358 . S
N140 C142 1.400 . S
C141 N139 1.263 . S
C141 N140 1.358 . S
C141 H147 0.930 . S
C142 N140 1.400 . S
C142 C143 1.351 . S
C142 H159 0.930 . S
C143 N139 1.389 . S
C143 C142 1.351 . S
C143 H148 0.930 . S
O144 Cu138 1.974 . S
O144 C154 1.282 . S
C145 O146 1.261 . S
C145 O158 1.251 . S
O146 C145 1.261 . S
H147 C141 0.930 . S
H148 C143 0.930 . S
N149 Cu138 1.985 . S
N149 C151 1.335 . S
N149 C152 1.390 . S
N150 C151 1.345 . S
N150 C153 1.336 . S
C151 N149 1.335 . S
C151 N150 1.345 . S
C151 H156 0.930 . S
C152 N149 1.390 . S
C152 C153 1.346 . S
C152 H157 0.930 . S
C153 N150 1.336 . S
C153 C152 1.346 . S
C153 H160 0.929 . S
C154 O144 1.282 . S
C154 O155 1.216 . S
O155 C154 1.216 . S
H156 C151 0.930 . S
H157 C152 0.930 . S
O158 Cu138 1.959 . S
O158 C145 1.251 . S
H159 C142 0.930 . S
H160 C153 0.929 . S
Cu161 N162 1.999 . S
Cu161 O167 1.974 . S
Cu161 N172 1.985 . S
Cu161 O181 1.959 . S
N162 Cu161 1.999 . S
N162 C164 1.263 . S
N162 C166 1.389 . S
N163 C164 1.358 . S
N163 C165 1.400 . S
C164 N162 1.263 . S
C164 N163 1.358 . S
C164 H170 0.930 . S
C165 N163 1.400 . S
C165 C166 1.351 . S
C165 H182 0.930 . S
C166 N162 1.389 . S
C166 C165 1.351 . S
C166 H171 0.930 . S
O167 Cu161 1.974 . S
O167 C177 1.282 . S
C168 O169 1.261 . S
C168 O181 1.251 . S
O169 C168 1.261 . S
H170 C164 0.930 . S
H171 C166 0.930 . S
N172 Cu161 1.985 . S
N172 C174 1.335 . S
N172 C175 1.390 . S
N173 C174 1.345 . S
N173 C176 1.336 . S
C174 N172 1.335 . S
C174 N173 1.345 . S
C174 H179 0.930 . S
C175 N172 1.390 . S
C175 C176 1.346 . S
C175 H180 0.930 . S
C176 N173 1.336 . S
C176 C175 1.346 . S
C176 H183 0.929 . S
C177 O167 1.282 . S
C177 O178 1.216 . S
O178 C177 1.216 . S
H179 C174 0.930 . S
H180 C175 0.930 . S
O181 Cu161 1.959 . S
O181 C168 1.251 . S
H182 C165 0.930 . S
H183 C176 0.929 . S
Cu184 N185 1.999 . S
Cu184 O190 1.974 . S
Cu184 N195 1.985 . S
Cu184 O204 1.959 . S
N185 Cu184 1.999 . S
N185 C187 1.263 . S
N185 C189 1.389 . S
N186 C187 1.358 . S
N186 C188 1.400 . S
C187 N185 1.263 . S
C187 N186 1.358 . S
C187 H193 0.930 . S
C188 N186 1.400 . S
C188 C189 1.351 . S
C188 H205 0.930 . S
C189 N185 1.389 . S
C189 C188 1.351 . S
C189 H194 0.930 . S
O190 Cu184 1.974 . S
O190 C200 1.282 . S
C191 O192 1.261 . S
C191 O204 1.251 . S
O192 C191 1.261 . S
H193 C187 0.930 . S
H194 C189 0.930 . S
N195 Cu184 1.985 . S
N195 C197 1.335 . S
N195 C198 1.390 . S
N196 C197 1.345 . S
N196 C199 1.336 . S
C197 N195 1.335 . S
C197 N196 1.345 . S
C197 H202 0.930 . S
C198 N195 1.390 . S
C198 C199 1.346 . S
C198 H203 0.930 . S
C199 N196 1.336 . S
C199 C198 1.346 . S
C199 H206 0.929 . S
C200 O190 1.282 . S
C200 O201 1.216 . S
O201 C200 1.216 . S
H202 C197 0.930 . S
H203 C198 0.930 . S
O204 Cu184 1.959 . S
O204 C191 1.251 . S
H205 C188 0.930 . S
H206 C199 0.929 . S
Cu207 N208 1.999 . S
Cu207 O213 1.974 . S
Cu207 N218 1.985 . S
Cu207 O227 1.959 . S
N208 Cu207 1.999 . S
N208 C210 1.263 . S
N208 C212 1.389 . S
N209 C210 1.358 . S
N209 C211 1.400 . S
C210 N208 1.263 . S
C210 N209 1.358 . S
C210 H216 0.930 . S
C211 N209 1.400 . S
C211 C212 1.351 . S
C211 H228 0.930 . S
C212 N208 1.389 . S
C212 C211 1.351 . S
C212 H217 0.930 . S
O213 Cu207 1.974 . S
O213 C223 1.282 . S
C214 O215 1.261 . S
C214 O227 1.251 . S
O215 C214 1.261 . S
H216 C210 0.930 . S
H217 C212 0.930 . S
N218 Cu207 1.985 . S
N218 C220 1.335 . S
N218 C221 1.390 1_554 S
N219 C220 1.345 1_556 S
N219 C222 1.336 . S
C220 N218 1.335 . S
C220 N219 1.345 1_554 S
C220 H225 0.930 . S
C221 N218 1.390 1_556 S
C221 C222 1.346 . S
C221 H226 0.930 . S
C222 N219 1.336 . S
C222 C221 1.346 . S
C222 H229 0.929 . S
C223 O213 1.282 . S
C223 O224 1.215 1_554 S
O224 C223 1.215 1_556 S
H225 C220 0.930 . S
H226 C221 0.930 . S
O227 Cu207 1.959 . S
O227 C214 1.251 . S
H228 C211 0.930 . S
H229 C222 0.929 . S
Cu230 N231 1.999 . S
Cu230 O236 1.974 . S
Cu230 N241 1.985 . S
Cu230 O250 1.959 . S
N231 Cu230 1.999 . S
N231 C233 1.263 . S
N231 C235 1.389 . S
N232 C233 1.358 . S
N232 C234 1.400 . S
C233 N231 1.263 . S
C233 N232 1.358 . S
C233 H239 0.930 . S
C234 N232 1.400 . S
C234 C235 1.351 . S
C234 H251 0.930 . S
C235 N231 1.389 . S
C235 C234 1.351 . S
C235 H240 0.930 . S
O236 Cu230 1.974 . S
O236 C246 1.282 . S
C237 O238 1.261 . S
C237 O250 1.251 . S
O238 C237 1.261 . S
H239 C233 0.930 . S
H240 C235 0.930 . S
N241 Cu230 1.985 . S
N241 C243 1.335 . S
N241 C244 1.390 . S
N242 C243 1.345 . S
N242 C245 1.336 1_554 S
C243 N241 1.335 . S
C243 N242 1.345 . S
C243 H248 0.930 . S
C244 N241 1.390 . S
C244 C245 1.346 1_554 S
C244 H249 0.930 1_554 S
C245 N242 1.336 1_556 S
C245 C244 1.346 1_556 S
C245 H252 0.929 . S
C246 O236 1.282 . S
C246 O247 1.216 . S
O247 C246 1.216 . S
H248 C243 0.930 . S
H249 C244 0.930 1_556 S
O250 Cu230 1.959 . S
O250 C237 1.251 . S
H251 C234 0.930 . S
H252 C245 0.929 . S
Cu253 N254 1.999 . S
Cu253 O259 1.974 . S
Cu253 N264 1.985 . S
Cu253 O273 1.959 . S
N254 Cu253 1.999 . S
N254 C256 1.263 . S
N254 C258 1.389 . S
N255 C256 1.358 . S
N255 C257 1.400 . S
C256 N254 1.263 . S
C256 N255 1.358 . S
C256 H262 0.930 . S
C257 N255 1.400 . S
C257 C258 1.351 . S
C257 H274 0.930 . S
C258 N254 1.389 . S
C258 C257 1.351 . S
C258 H263 0.930 . S
O259 Cu253 1.974 . S
O259 C269 1.282 . S
C260 O261 1.261 . S
C260 O273 1.251 . S
O261 C260 1.261 . S
H262 C256 0.930 . S
H263 C258 0.930 . S
N264 Cu253 1.985 . S
N264 C266 1.335 . S
N264 C267 1.390 . S
N265 C266 1.345 . S
N265 C268 1.336 1_554 S
C266 N264 1.335 . S
C266 N265 1.345 . S
C266 H271 0.930 . S
C267 N264 1.390 . S
C267 C268 1.346 1_554 S
C267 H272 0.930 1_554 S
C268 N265 1.336 1_556 S
C268 C267 1.346 1_556 S
C268 H275 0.929 . S
C269 O259 1.282 . S
C269 O270 1.216 . S
O270 C269 1.216 . S
H271 C266 0.930 . S
H272 C267 0.930 1_556 S
O273 Cu253 1.959 . S
O273 C260 1.251 . S
H274 C257 0.930 . S
H275 C268 0.929 . S
Cu276 N277 1.999 . S
Cu276 O282 1.974 . S
Cu276 N287 1.985 . S
Cu276 O296 1.959 . S
N277 Cu276 1.999 . S
N277 C279 1.263 . S
N277 C281 1.389 1_556 S
N278 C279 1.358 . S
N278 C280 1.400 1_556 S
C279 N277 1.263 . S
C279 N278 1.358 . S
C279 H285 0.930 . S
C280 N278 1.400 1_554 S
C280 C281 1.351 . S
C280 H297 0.930 . S
C281 N277 1.389 1_554 S
C281 C280 1.351 . S
C281 H286 0.930 . S
O282 Cu276 1.974 . S
O282 C292 1.282 . S
C283 O284 1.261 . S
C283 O296 1.251 . S
O284 C283 1.261 . S
H285 C279 0.930 . S
H286 C281 0.930 . S
N287 Cu276 1.985 . S
N287 C289 1.335 . S
N287 C290 1.390 . S
N288 C289 1.345 . S
N288 C291 1.336 . S
C289 N287 1.335 . S
C289 N288 1.345 . S
C289 H294 0.930 . S
C290 N287 1.390 . S
C290 C291 1.346 . S
C290 H295 0.930 . S
C291 N288 1.336 . S
C291 C290 1.346 . S
C291 H298 0.929 . S
C292 O282 1.282 . S
C292 O293 1.216 . S
O293 C292 1.216 . S
H294 C289 0.930 . S
H295 C290 0.930 . S
O296 Cu276 1.959 . S
O296 C283 1.251 . S
H297 C280 0.930 . S
H298 C291 0.929 . S
Cu299 N300 1.999 . S
Cu299 O305 1.974 1_556 S
Cu299 N310 1.985 1_556 S
Cu299 O319 1.959 . S
N300 Cu299 1.999 . S
N300 C302 1.263 . S
N300 C304 1.389 . S
N301 C302 1.358 . S
N301 C303 1.400 . S
C302 N300 1.263 . S
C302 N301 1.358 . S
C302 H308 0.930 . S
C303 N301 1.400 . S
C303 C304 1.351 . S
C303 H320 0.930 . S
C304 N300 1.389 . S
C304 C303 1.351 . S
C304 H309 0.930 . S
O305 Cu299 1.974 1_554 S
O305 C315 1.282 . S
C306 O307 1.261 . S
C306 O319 1.251 . S
O307 C306 1.261 . S
H308 C302 0.930 . S
H309 C304 0.930 . S
N310 Cu299 1.985 1_554 S
N310 C312 1.335 . S
N310 C313 1.390 . S
N311 C312 1.345 . S
N311 C314 1.336 . S
C312 N310 1.335 . S
C312 N311 1.345 . S
C312 H317 0.930 1_554 S
C313 N310 1.390 . S
C313 C314 1.346 . S
C313 H318 0.930 . S
C314 N311 1.336 . S
C314 C313 1.346 . S
C314 H321 0.929 . S
C315 O305 1.282 . S
C315 O316 1.216 . S
O316 C315 1.216 . S
H317 C312 0.930 1_556 S
H318 C313 0.930 . S
O319 Cu299 1.959 . S
O319 C306 1.251 . S
H320 C303 0.930 . S
H321 C314 0.929 . S
Cu322 N323 1.999 . S
Cu322 O328 1.974 . S
Cu322 N333 1.985 . S
Cu322 O342 1.959 . S
N323 Cu322 1.999 . S
N323 C325 1.263 . S
N323 C327 1.389 . S
N324 C325 1.358 . S
N324 C326 1.400 . S
C325 N323 1.263 . S
C325 N324 1.358 . S
C325 H331 0.930 . S
C326 N324 1.400 . S
C326 C327 1.351 . S
C326 H343 0.930 . S
C327 N323 1.389 . S
C327 C326 1.351 . S
C327 H332 0.930 . S
O328 Cu322 1.974 . S
O328 C338 1.282 . S
C329 O330 1.261 . S
C329 O342 1.251 . S
O330 C329 1.261 . S
H331 C325 0.930 . S
H332 C327 0.930 . S
N333 Cu322 1.985 . S
N333 C335 1.335 . S
N333 C336 1.390 . S
N334 C335 1.345 . S
N334 C337 1.335 1_556 S
C335 N333 1.335 . S
C335 N334 1.345 . S
C335 H340 0.930 . S
C336 N333 1.390 . S
C336 C337 1.346 1_556 S
C336 H341 0.930 . S
C337 N334 1.335 1_554 S
C337 C336 1.346 1_554 S
C337 H344 0.931 . S
C338 O328 1.282 . S
C338 O339 1.216 . S
O339 C338 1.216 . S
H340 C335 0.930 . S
H341 C336 0.930 . S
O342 Cu322 1.959 . S
O342 C329 1.251 . S
H343 C326 0.930 . S
H344 C337 0.931 . S
Cu345 N346 1.999 . S
Cu345 O351 1.974 . S
Cu345 N356 1.985 . S
Cu345 O365 1.959 . S
N346 Cu345 1.999 . S
N346 C348 1.263 . S
N346 C350 1.389 . S
N347 C348 1.358 . S
N347 C349 1.400 . S
C348 N346 1.263 . S
C348 N347 1.358 . S
C348 H354 0.930 . S
C349 N347 1.400 . S
C349 C350 1.351 . S
C349 H366 0.930 . S
C350 N346 1.389 . S
C350 C349 1.351 . S
C350 H355 0.930 . S
O351 Cu345 1.974 . S
O351 C361 1.282 . S
C352 O353 1.261 . S
C352 O365 1.251 . S
O353 C352 1.261 . S
H354 C348 0.930 . S
H355 C350 0.930 . S
N356 Cu345 1.985 . S
N356 C358 1.335 . S
N356 C359 1.390 . S
N357 C358 1.345 . S
N357 C360 1.336 . S
C358 N356 1.335 . S
C358 N357 1.345 . S
C358 H363 0.930 . S
C359 N356 1.390 . S
C359 C360 1.346 . S
C359 H364 0.930 . S
C360 N357 1.336 . S
C360 C359 1.346 . S
C360 H367 0.929 . S
C361 O351 1.282 . S
C361 O362 1.216 . S
O362 C361 1.216 . S
H363 C358 0.930 . S
H364 C359 0.930 . S
O365 Cu345 1.959 . S
O365 C352 1.251 . S
H366 C349 0.930 . S
H367 C360 0.929 . S
Cu368 N369 1.999 . S
Cu368 O374 1.974 . S
Cu368 N379 1.985 . S
Cu368 O388 1.959 . S
N369 Cu368 1.999 . S
N369 C371 1.263 . S
N369 C373 1.389 . S
N370 C371 1.358 . S
N370 C372 1.400 . S
C371 N369 1.263 . S
C371 N370 1.358 . S
C371 H377 0.930 . S
C372 N370 1.400 . S
C372 C373 1.351 . S
C372 H389 0.930 . S
C373 N369 1.389 . S
C373 C372 1.351 . S
C373 H378 0.930 . S
O374 Cu368 1.974 . S
O374 C384 1.282 . S
C375 O376 1.261 . S
C375 O388 1.251 . S
O376 C375 1.261 . S
H377 C371 0.930 . S
H378 C373 0.930 . S
N379 Cu368 1.985 . S
N379 C381 1.335 . S
N379 C382 1.390 . S
N380 C381 1.345 . S
N380 C383 1.336 . S
C381 N379 1.335 . S
C381 N380 1.345 . S
C381 H386 0.930 . S
C382 N379 1.390 . S
C382 C383 1.346 . S
C382 H387 0.930 . S
C383 N380 1.336 . S
C383 C382 1.346 . S
C383 H390 0.929 . S
C384 O374 1.282 . S
C384 O385 1.216 . S
O385 C384 1.216 . S
H386 C381 0.930 . S
H387 C382 0.930 . S
O388 Cu368 1.959 . S
O388 C375 1.251 . S
H389 C372 0.930 . S
H390 C383 0.929 . S
Cu391 N392 1.999 . S
Cu391 O397 1.974 . S
Cu391 N402 1.985 . S
Cu391 O411 1.959 . S
N392 Cu391 1.999 . S
N392 C394 1.263 . S
N392 C396 1.389 . S
N393 C394 1.358 . S
N393 C395 1.400 . S
C394 N392 1.263 . S
C394 N393 1.358 . S
C394 H400 0.930 . S
C395 N393 1.400 . S
C395 C396 1.351 . S
C395 H412 0.930 . S
C396 N392 1.389 . S
C396 C395 1.351 . S
C396 H401 0.930 . S
O397 Cu391 1.974 . S
O397 C407 1.282 . S
C398 O399 1.261 . S
C398 O411 1.251 . S
O399 C398 1.261 . S
H400 C394 0.930 . S
H401 C396 0.930 . S
N402 Cu391 1.985 . S
N402 C404 1.335 . S
N402 C405 1.390 . S
N403 C404 1.345 . S
N403 C406 1.336 . S
C404 N402 1.335 . S
C404 N403 1.345 . S
C404 H409 0.930 . S
C405 N402 1.390 . S
C405 C406 1.346 . S
C405 H410 0.930 . S
C406 N403 1.336 . S
C406 C405 1.346 . S
C406 H413 0.929 . S
C407 O397 1.282 . S
C407 O408 1.216 . S
O408 C407 1.216 . S
H409 C404 0.930 . S
H410 C405 0.930 . S
O411 Cu391 1.959 . S
O411 C398 1.251 . S
H412 C395 0.930 . S
H413 C406 0.929 . S
H414 C422 0.929 . S
H415 C424 0.930 . S
H416 C426 0.930 . S
H417 C429 0.929 . S
H418 C432 0.930 . S
H419 C434 0.891 1_655 S
H420 C434 0.960 . S
H421 C434 0.960 . S
C422 H414 0.929 . S
C422 C423 1.377 . S
C422 C424 1.384 . S
C423 C422 1.377 . S
C423 C429 1.390 . S
C424 H415 0.930 . S
C424 C422 1.384 . S
C424 C425 1.372 . S
C425 C424 1.372 . S
C425 C426 1.400 . S
C425 C430 1.490 . S
C426 H416 0.930 . S
C426 C425 1.400 . S
C426 C429 1.386 . S
H427 C443 0.930 . S
H428 C444 0.931 . S
C429 H417 0.929 . S
C429 C423 1.390 . S
C429 C426 1.386 . S
C430 C425 1.490 . S
C430 C432 1.395 . S
C430 C433 1.403 . S
H431 C437 0.930 . S
C432 H418 0.930 . S
C432 C430 1.395 . S
C432 C435 1.403 1_556 S
C433 C430 1.403 . S
C433 C434 1.524 . S
C433 C437 1.400 1_556 S
C434 H419 0.891 1_455 S
C434 H420 0.960 . S
C434 H421 0.960 . S
C434 C433 1.524 . S
C435 C432 1.403 1_554 S
C435 C436 1.392 . S
C435 C439 1.495 . S
C436 C435 1.392 . S
C436 C437 1.385 . S
C436 C438 1.478 . S
C437 H431 0.930 . S
C437 C433 1.400 1_554 S
C437 C436 1.385 . S
C438 C436 1.478 . S
C438 C440 1.381 . S
C438 C444 1.383 . S
C439 C435 1.495 . S
C439 H445 0.959 . S
C439 H446 0.961 . S
C439 H447 0.960 . S
C440 C438 1.381 . S
C440 C441 1.394 . S
C440 H448 0.930 . S
C441 C440 1.394 . S
C441 C442 1.383 . S
C441 H449 0.929 . S
C442 C441 1.383 . S
C442 C443 1.377 . S
C443 H427 0.930 . S
C443 C442 1.377 . S
C443 C444 1.379 . S
C444 H428 0.931 . S
C444 C438 1.383 . S
C444 C443 1.379 . S
H445 C439 0.959 . S
H446 C439 0.961 . S
H447 C439 0.960 . S
H448 C440 0.930 . S
H449 C441 0.929 . S
H450 C458 0.929 . S
H451 C460 0.930 . S
H452 C462 0.930 . S
H453 C465 0.929 . S
H454 C468 0.930 . S
H455 C470 0.960 . S
H456 C470 0.960 . S
H457 C470 0.960 . S
C458 H450 0.929 . S
C458 C459 1.377 . S
C458 C460 1.384 . S
C459 C458 1.377 . S
C459 C465 1.390 . S
C460 H451 0.930 . S
C460 C458 1.384 . S
C460 C461 1.372 . S
C461 C460 1.372 . S
C461 C462 1.400 . S
C461 C466 1.490 . S
C462 H452 0.930 . S
C462 C461 1.400 . S
C462 C465 1.386 . S
H463 C479 0.930 . S
H464 C480 0.931 1_556 S
C465 H453 0.929 . S
C465 C459 1.390 . S
C465 C462 1.386 . S
C466 C461 1.490 . S
C466 C468 1.395 . S
C466 C469 1.403 . S
H467 C473 0.930 . S
C468 H454 0.930 . S
C468 C466 1.395 . S
C468 C471 1.403 . S
C469 C466 1.403 . S
C469 C470 1.524 . S
C469 C473 1.400 . S
C470 H455 0.960 . S
C470 H456 0.960 . S
C470 H457 0.960 . S
C470 C469 1.524 . S
C471 C468 1.403 . S
C471 C472 1.392 . S
C471 C475 1.495 1_556 S
C472 C471 1.392 . S
C472 C473 1.385 . S
C472 C474 1.478 1_556 S
C473 H467 0.930 . S
C473 C469 1.400 . S
C473 C472 1.385 . S
C474 C472 1.478 1_554 S
C474 C476 1.381 . S
C474 C480 1.383 . S
C475 C471 1.495 1_554 S
C475 H481 0.959 . S
C475 H482 0.961 . S
C475 H483 0.960 . S
C476 C474 1.381 . S
C476 C477 1.394 . S
C476 H484 0.930 . S
C477 C476 1.394 . S
C477 C478 1.383 . S
C477 H485 0.929 . S
C478 C477 1.383 . S
C478 C479 1.377 . S
C479 H463 0.930 . S
C479 C478 1.377 . S
C479 C480 1.379 . S
C480 H464 0.931 1_554 S
C480 C474 1.383 . S
C480 C479 1.379 . S
H481 C475 0.959 . S
H482 C475 0.961 . S
H483 C475 0.960 . S
H484 C476 0.930 . S
H485 C477 0.929 . S
H486 C494 0.929 . S
H487 C496 0.930 . S
H488 C498 0.930 . S
H489 C501 0.929 . S
H490 C504 0.930 . S
H491 C506 0.945 1_565 S
H492 C506 0.955 1_565 S
H493 C506 0.941 . S
C494 H486 0.929 . S
C494 C495 1.377 . S
C494 C496 1.384 . S
C495 C494 1.377 . S
C495 C501 1.390 . S
C496 H487 0.930 . S
C496 C494 1.384 . S
C496 C497 1.372 . S
C497 C496 1.372 . S
C497 C498 1.400 . S
C497 C502 1.490 . S
C498 H488 0.930 . S
C498 C497 1.400 . S
C498 C501 1.386 . S
H499 C515 0.930 . S
H500 C516 0.931 . S
C501 H489 0.929 . S
C501 C495 1.390 . S
C501 C498 1.386 . S
C502 C497 1.490 . S
C502 C504 1.395 . S
C502 C505 1.403 . S
H503 C509 0.930 . S
C504 H490 0.930 . S
C504 C502 1.395 . S
C504 C507 1.403 . S
C505 C502 1.403 . S
C505 C506 1.566 . S
C505 C509 1.400 . S
C506 H491 0.945 1_545 S
C506 H492 0.955 1_545 S
C506 H493 0.941 . S
C506 C505 1.566 . S
C507 C504 1.403 . S
C507 C508 1.392 . S
C507 C511 1.495 . S
C508 C507 1.392 . S
C508 C509 1.385 . S
C508 C510 1.478 1_554 S
C509 H503 0.930 . S
C509 C505 1.400 . S
C509 C508 1.385 . S
C510 C508 1.478 1_556 S
C510 C512 1.381 . S
C510 C516 1.383 . S
C511 C507 1.495 . S
C511 H517 0.959 . S
C511 H518 0.961 1_554 S
C511 H519 0.960 . S
C512 C510 1.381 . S
C512 C513 1.394 . S
C512 H520 0.930 1_556 S
C513 C512 1.394 . S
C513 C514 1.383 . S
C513 H521 0.929 . S
C514 C513 1.383 . S
C514 C515 1.377 . S
C515 H499 0.930 . S
C515 C514 1.377 . S
C515 C516 1.379 . S
C516 H500 0.931 . S
C516 C510 1.383 . S
C516 C515 1.379 . S
H517 C511 0.959 . S
H518 C511 0.961 1_556 S
H519 C511 0.960 . S
H520 C512 0.930 1_554 S
H521 C513 0.929 . S
H522 C530 0.929 . S
H523 C532 0.930 . S
H524 C534 0.930 . S
H525 C537 0.929 . S
H526 C540 0.930 . S
H527 C542 0.960 . S
H528 C542 0.960 . S
H529 C542 0.960 . S
C530 H522 0.929 . S
C530 C531 1.377 . S
C530 C532 1.384 . S
C531 C530 1.377 . S
C531 C537 1.390 . S
C532 H523 0.930 . S
C532 C530 1.384 . S
C532 C533 1.372 . S
C533 C532 1.372 . S
C533 C534 1.400 . S
C533 C538 1.490 . S
C534 H524 0.930 . S
C534 C533 1.400 . S
C534 C537 1.386 . S
H535 C551 0.930 . S
H536 C552 0.931 . S
C537 H525 0.929 . S
C537 C531 1.390 . S
C537 C534 1.386 . S
C538 C533 1.490 . S
C538 C540 1.395 . S
C538 C541 1.403 . S
H539 C545 0.930 . S
C540 H526 0.930 . S
C540 C538 1.395 . S
C540 C543 1.403 . S
C541 C538 1.403 . S
C541 C542 1.524 . S
C541 C545 1.400 . S
C542 H527 0.960 . S
C542 H528 0.960 . S
C542 H529 0.960 . S
C542 C541 1.524 . S
C543 C540 1.403 . S
C543 C544 1.392 . S
C543 C547 1.495 . S
C544 C543 1.392 . S
C544 C545 1.385 . S
C544 C546 1.478 . S
C545 H539 0.930 . S
C545 C541 1.400 . S
C545 C544 1.385 . S
C546 C544 1.478 . S
C546 C548 1.381 . S
C546 C552 1.383 . S
C547 C543 1.495 . S
C547 H553 0.959 . S
C547 H554 0.961 . S
C547 H555 0.960 . S
C548 C546 1.381 . S
C548 C549 1.394 . S
C548 H556 0.930 . S
C549 C548 1.394 . S
C549 C550 1.383 . S
C549 H557 0.929 . S
C550 C549 1.383 . S
C550 C551 1.377 . S
C551 H535 0.930 . S
C551 C550 1.377 . S
C551 C552 1.379 . S
C552 H536 0.931 . S
C552 C546 1.383 . S
C552 C551 1.379 . S
H553 C547 0.959 . S
H554 C547 0.961 . S
H555 C547 0.960 . S
H556 C548 0.930 . S
H557 C549 0.929 . S
H558 C566 0.929 . S
H559 C568 0.930 . S
H560 C570 0.930 . S
H561 C573 0.929 . S
H562 C576 0.930 . S
H563 C578 0.960 . S
H564 C578 0.960 . S
H565 C578 0.960 . S
C566 H558 0.929 . S
C566 C567 1.377 . S
C566 C568 1.384 . S
C567 C566 1.377 . S
C567 C573 1.390 . S
C568 H559 0.930 . S
C568 C566 1.384 . S
C568 C569 1.372 . S
C569 C568 1.372 . S
C569 C570 1.400 . S
C569 C574 1.490 . S
C570 H560 0.930 . S
C570 C569 1.400 . S
C570 C573 1.386 . S
H571 C587 0.930 . S
H572 C588 0.931 . S
C573 H561 0.929 . S
C573 C567 1.390 . S
C573 C570 1.386 . S
C574 C569 1.490 . S
C574 C576 1.395 . S
C574 C577 1.403 . S
H575 C581 0.930 . S
C576 H562 0.930 . S
C576 C574 1.395 . S
C576 C579 1.403 . S
C577 C574 1.403 . S
C577 C578 1.524 . S
C577 C581 1.400 . S
C578 H563 0.960 . S
C578 H564 0.960 . S
C578 H565 0.960 . S
C578 C577 1.524 . S
C579 C576 1.403 . S
C579 C580 1.392 . S
C579 C583 1.495 . S
C580 C579 1.392 . S
C580 C581 1.385 . S
C580 C582 1.478 . S
C581 H575 0.930 . S
C581 C577 1.400 . S
C581 C580 1.385 . S
C582 C580 1.478 . S
C582 C584 1.381 . S
C582 C588 1.383 . S
C583 C579 1.495 . S
C583 H589 0.959 . S
C583 H590 0.961 . S
C583 H591 0.960 . S
C584 C582 1.381 . S
C584 C585 1.394 . S
C584 H592 0.930 . S
C585 C584 1.394 . S
C585 C586 1.383 . S
C585 H593 0.929 . S
C586 C585 1.383 . S
C586 C587 1.377 . S
C587 H571 0.930 . S
C587 C586 1.377 . S
C587 C588 1.379 . S
C588 H572 0.931 . S
C588 C582 1.383 . S
C588 C587 1.379 . S
H589 C583 0.959 . S
H590 C583 0.961 . S
H591 C583 0.960 . S
H592 C584 0.930 . S
H593 C585 0.929 . S
H594 C602 0.929 . S
H595 C604 0.930 . S
H596 C606 0.930 . S
H597 C609 0.929 . S
H598 C612 0.930 . S
H599 C614 0.960 . S
H600 C614 0.960 . S
H601 C614 0.960 . S
C602 H594 0.929 . S
C602 C603 1.377 . S
C602 C604 1.384 . S
C603 C602 1.377 . S
C603 C609 1.390 . S
C604 H595 0.930 . S
C604 C602 1.384 . S
C604 C605 1.372 . S
C605 C604 1.372 . S
C605 C606 1.400 . S
C605 C610 1.490 . S
C606 H596 0.930 . S
C606 C605 1.400 . S
C606 C609 1.386 . S
H607 C623 0.930 . S
H608 C624 0.931 . S
C609 H597 0.929 . S
C609 C603 1.390 . S
C609 C606 1.386 . S
C610 C605 1.490 . S
C610 C612 1.395 . S
C610 C613 1.403 . S
H611 C617 0.930 . S
C612 H598 0.930 . S
C612 C610 1.395 . S
C612 C615 1.403 . S
C613 C610 1.403 . S
C613 C614 1.524 . S
C613 C617 1.400 . S
C614 H599 0.960 . S
C614 H600 0.960 . S
C614 H601 0.960 . S
C614 C613 1.524 . S
C615 C612 1.403 . S
C615 C616 1.392 . S
C615 C619 1.495 . S
C616 C615 1.392 . S
C616 C617 1.385 . S
C616 C618 1.478 . S
C617 H611 0.930 . S
C617 C613 1.400 . S
C617 C616 1.385 . S
C618 C616 1.478 . S
C618 C620 1.381 . S
C618 C624 1.383 . S
C619 C615 1.495 . S
C619 H625 0.959 . S
C619 H626 0.961 . S
C619 H627 0.960 . S
C620 C618 1.381 . S
C620 C621 1.394 . S
C620 H628 0.930 . S
C621 C620 1.394 . S
C621 C622 1.383 . S
C621 H629 0.929 . S
C622 C621 1.383 . S
C622 C623 1.377 . S
C623 H607 0.930 . S
C623 C622 1.377 . S
C623 C624 1.379 . S
C624 H608 0.931 . S
C624 C618 1.383 . S
C624 C623 1.379 . S
H625 C619 0.959 . S
H626 C619 0.961 . S
H627 C619 0.960 . S
H628 C620 0.930 . S
H629 C621 0.929 . S
H630 C638 0.929 . S
H631 C640 0.930 . S
H632 C642 0.930 . S
H633 C645 0.929 . S
H634 C648 0.930 . S
H635 C650 0.960 . S
H636 C650 0.960 . S
H637 C650 0.960 . S
C638 H630 0.929 . S
C638 C639 1.377 . S
C638 C640 1.384 . S
C639 C638 1.377 . S
C639 C645 1.390 . S
C640 H631 0.930 . S
C640 C638 1.384 . S
C640 C641 1.372 . S
C641 C640 1.372 . S
C641 C642 1.400 . S
C641 C646 1.490 . S
C642 H632 0.930 . S
C642 C641 1.400 . S
C642 C645 1.386 . S
H643 C659 0.930 . S
H644 C660 0.931 . S
C645 H633 0.929 . S
C645 C639 1.390 . S
C645 C642 1.386 . S
C646 C641 1.490 . S
C646 C648 1.395 . S
C646 C649 1.403 . S
H647 C653 0.930 . S
C648 H634 0.930 . S
C648 C646 1.395 . S
C648 C651 1.403 . S
C649 C646 1.403 . S
C649 C650 1.524 . S
C649 C653 1.400 . S
C650 H635 0.960 . S
C650 H636 0.960 . S
C650 H637 0.960 . S
C650 C649 1.524 . S
C651 C648 1.403 . S
C651 C652 1.392 . S
C651 C655 1.495 . S
C652 C651 1.392 . S
C652 C653 1.385 . S
C652 C654 1.478 . S
C653 H647 0.930 . S
C653 C649 1.400 . S
C653 C652 1.385 . S
C654 C652 1.478 . S
C654 C656 1.381 . S
C654 C660 1.383 . S
C655 C651 1.495 . S
C655 H661 0.959 . S
C655 H662 0.961 . S
C655 H663 0.960 . S
C656 C654 1.381 . S
C656 C657 1.394 . S
C656 H664 0.930 . S
C657 C656 1.394 . S
C657 C658 1.383 . S
C657 H665 0.929 . S
C658 C657 1.383 . S
C658 C659 1.377 . S
C659 H643 0.930 . S
C659 C658 1.377 . S
C659 C660 1.379 . S
C660 H644 0.931 . S
C660 C654 1.383 . S
C660 C659 1.379 . S
H661 C655 0.959 . S
H662 C655 0.961 . S
H663 C655 0.960 . S
H664 C656 0.930 . S
H665 C657 0.929 . S
H666 C674 0.929 . S
H667 C676 0.930 . S
H668 C678 0.930 . S
H669 C681 0.929 . S
H670 C684 0.930 . S
H671 C686 0.960 . S
H672 C686 0.960 . S
H673 C686 0.960 . S
C674 H666 0.929 . S
C674 C675 1.377 . S
C674 C676 1.384 . S
C675 C674 1.377 . S
C675 C681 1.390 . S
C676 H667 0.930 . S
C676 C674 1.384 . S
C676 C677 1.372 . S
C677 C676 1.372 . S
C677 C678 1.400 . S
C677 C682 1.490 . S
C678 H668 0.930 . S
C678 C677 1.400 . S
C678 C681 1.386 . S
H679 C695 0.930 . S
H680 C696 0.931 . S
C681 H669 0.929 . S
C681 C675 1.390 . S
C681 C678 1.386 . S
C682 C677 1.490 . S
C682 C684 1.395 . S
C682 C685 1.403 . S
H683 C689 0.930 . S
C684 H670 0.930 . S
C684 C682 1.395 . S
C684 C687 1.403 . S
C685 C682 1.403 . S
C685 C686 1.524 . S
C685 C689 1.400 . S
C686 H671 0.960 . S
C686 H672 0.960 . S
C686 H673 0.960 . S
C686 C685 1.524 . S
C687 C684 1.403 . S
C687 C688 1.392 . S
C687 C691 1.495 . S
C688 C687 1.392 . S
C688 C689 1.385 . S
C688 C690 1.478 . S
C689 H683 0.930 . S
C689 C685 1.400 . S
C689 C688 1.385 . S
C690 C688 1.478 . S
C690 C692 1.381 . S
C690 C696 1.383 . S
C691 C687 1.495 . S
C691 H697 0.959 . S
C691 H698 0.961 . S
C691 H699 0.960 . S
C692 C690 1.381 . S
C692 C693 1.394 . S
C692 H700 0.930 . S
C693 C692 1.394 . S
C693 C694 1.383 . S
C693 H701 0.929 . S
C694 C693 1.383 . S
C694 C695 1.377 . S
C695 H679 0.930 . S
C695 C694 1.377 . S
C695 C696 1.379 . S
C696 H680 0.931 . S
C696 C690 1.383 . S
C696 C695 1.379 . S
H697 C691 0.959 . S
H698 C691 0.961 . S
H699 C691 0.960 . S
H700 C692 0.930 . S
H701 C693 0.929 . S
H702 C710 0.929 . S
H703 C712 0.930 . S
H704 C714 0.930 . S
H705 C717 0.929 . S
H706 C720 0.930 . S
H707 C722 0.960 . S
H708 C722 0.960 . S
H709 C722 0.960 . S
C710 H702 0.929 . S
C710 C711 1.377 . S
C710 C712 1.384 . S
C711 C710 1.377 . S
C711 C717 1.390 . S
C712 H703 0.930 . S
C712 C710 1.384 . S
C712 C713 1.372 . S
C713 C712 1.372 . S
C713 C714 1.400 . S
C713 C718 1.490 . S
C714 H704 0.930 . S
C714 C713 1.400 . S
C714 C717 1.386 . S
H715 C731 0.930 . S
H716 C732 0.931 . S
C717 H705 0.929 . S
C717 C711 1.390 . S
C717 C714 1.386 . S
C718 C713 1.490 . S
C718 C720 1.395 . S
C718 C721 1.403 . S
H719 C725 0.930 . S
C720 H706 0.930 . S
C720 C718 1.395 . S
C720 C723 1.403 . S
C721 C718 1.403 . S
C721 C722 1.524 . S
C721 C725 1.400 . S
C722 H707 0.960 . S
C722 H708 0.960 . S
C722 H709 0.960 . S
C722 C721 1.524 . S
C723 C720 1.403 . S
C723 C724 1.392 . S
C723 C727 1.495 . S
C724 C723 1.392 . S
C724 C725 1.385 . S
C724 C726 1.478 . S
C725 H719 0.930 . S
C725 C721 1.400 . S
C725 C724 1.385 . S
C726 C724 1.478 . S
C726 C728 1.381 . S
C726 C732 1.383 . S
C727 C723 1.495 . S
C727 H733 0.959 . S
C727 H734 0.961 . S
C727 H735 0.960 . S
C728 C726 1.381 . S
C728 C729 1.394 . S
C728 H736 0.930 . S
C729 C728 1.394 . S
C729 C730 1.383 . S
C729 H737 0.929 . S
C730 C729 1.383 . S
C730 C731 1.377 . S
C731 H715 0.930 . S
C731 C730 1.377 . S
C731 C732 1.379 . S
C732 H716 0.931 . S
C732 C726 1.383 . S
C732 C731 1.379 . S
H733 C727 0.959 . S
H734 C727 0.961 . S
H735 C727 0.960 . S
H736 C728 0.930 . S
H737 C729 0.929 . S
H738 C746 0.929 . S
H739 C748 0.930 . S
H740 C750 0.930 . S
H741 C753 0.929 . S
H742 C756 0.930 . S
H743 C758 0.960 . S
H744 C758 0.960 . S
H745 C758 0.960 . S
C746 H738 0.929 . S
C746 C747 1.377 . S
C746 C748 1.384 1_554 S
C747 C746 1.377 . S
C747 C753 1.390 1_554 S
C748 H739 0.930 . S
C748 C746 1.384 1_556 S
C748 C749 1.372 . S
C749 C748 1.372 . S
C749 C750 1.400 . S
C749 C754 1.490 . S
C750 H740 0.930 . S
C750 C749 1.400 . S
C750 C753 1.386 . S
H751 C767 0.930 . S
H752 C768 0.931 . S
C753 H741 0.929 . S
C753 C747 1.390 1_556 S
C753 C750 1.386 . S
C754 C749 1.490 . S
C754 C756 1.395 . S
C754 C757 1.403 . S
H755 C761 0.930 . S
C756 H742 0.930 . S
C756 C754 1.395 . S
C756 C759 1.403 . S
C757 C754 1.403 . S
C757 C758 1.524 . S
C757 C761 1.400 . S
C758 H743 0.960 . S
C758 H744 0.960 . S
C758 H745 0.960 . S
C758 C757 1.524 . S
C759 C756 1.403 . S
C759 C760 1.392 . S
C759 C763 1.495 . S
C760 C759 1.392 . S
C760 C761 1.385 . S
C760 C762 1.478 . S
C761 H755 0.930 . S
C761 C757 1.400 . S
C761 C760 1.385 . S
C762 C760 1.478 . S
C762 C764 1.381 . S
C762 C768 1.383 . S
C763 C759 1.495 . S
C763 H769 0.959 . S
C763 H770 0.961 . S
C763 H771 0.960 . S
C764 C762 1.381 . S
C764 C765 1.394 . S
C764 H772 0.930 . S
C765 C764 1.394 . S
C765 C766 1.383 . S
C765 H773 0.929 . S
C766 C765 1.383 . S
C766 C767 1.377 . S
C767 H751 0.930 . S
C767 C766 1.377 . S
C767 C768 1.379 . S
C768 H752 0.931 . S
C768 C762 1.383 . S
C768 C767 1.379 . S
H769 C763 0.959 . S
H770 C763 0.961 . S
H771 C763 0.960 . S
H772 C764 0.930 . S
H773 C765 0.929 . S
H774 C782 0.929 . S
H775 C784 0.930 . S
H776 C786 0.930 . S
H777 C789 0.929 1_554 S
H778 C792 0.930 . S
H779 C794 0.960 . S
H780 C794 0.960 . S
H781 C794 0.960 . S
C782 H774 0.929 . S
C782 C783 1.377 . S
C782 C784 1.384 . S
C783 C782 1.377 . S
C783 C789 1.390 . S
C784 H775 0.930 . S
C784 C782 1.384 . S
C784 C785 1.372 . S
C785 C784 1.372 . S
C785 C786 1.400 . S
C785 C790 1.490 . S
C786 H776 0.930 . S
C786 C785 1.400 . S
C786 C789 1.386 . S
H787 C803 0.930 . S
H788 C804 0.931 . S
C789 H777 0.929 1_556 S
C789 C783 1.390 . S
C789 C786 1.386 . S
C790 C785 1.490 . S
C790 C792 1.395 . S
C790 C793 1.403 . S
H791 C797 0.930 . S
C792 H778 0.930 . S
C792 C790 1.395 . S
C792 C795 1.403 . S
C793 C790 1.403 . S
C793 C794 1.524 . S
C793 C797 1.400 . S
C794 H779 0.960 . S
C794 H780 0.960 . S
C794 H781 0.960 . S
C794 C793 1.524 . S
C795 C792 1.403 . S
C795 C796 1.392 . S
C795 C799 1.495 . S
C796 C795 1.392 . S
C796 C797 1.385 . S
C796 C798 1.478 . S
C797 H791 0.930 . S
C797 C793 1.400 . S
C797 C796 1.385 . S
C798 C796 1.478 . S
C798 C800 1.381 . S
C798 C804 1.383 . S
C799 C795 1.495 . S
C799 H805 0.959 . S
C799 H806 0.961 . S
C799 H807 0.960 . S
C800 C798 1.381 . S
C800 C801 1.394 . S
C800 H808 0.930 . S
C801 C800 1.394 . S
C801 C802 1.383 . S
C801 H809 0.929 . S
C802 C801 1.383 . S
C802 C803 1.377 . S
C803 H787 0.930 . S
C803 C802 1.377 . S
C803 C804 1.379 . S
C804 H788 0.931 . S
C804 C798 1.383 . S
C804 C803 1.379 . S
H805 C799 0.959 . S
H806 C799 0.961 . S
H807 C799 0.960 . S
H808 C800 0.930 . S
H809 C801 0.929 . S
H810 C818 0.929 . S
H811 C820 0.930 . S
H812 C822 0.930 . S
H813 C825 0.929 . S
H814 C828 0.930 . S
H815 C830 0.960 . S
H816 C830 0.960 . S
H817 C830 0.960 . S
C818 H810 0.929 . S
C818 C819 1.377 1_556 S
C818 C820 1.384 . S
C819 C818 1.377 1_554 S
C819 C825 1.390 . S
C820 H811 0.930 . S
C820 C818 1.384 . S
C820 C821 1.372 . S
C821 C820 1.372 . S
C821 C822 1.400 . S
C821 C826 1.490 . S
C822 H812 0.930 . S
C822 C821 1.400 . S
C822 C825 1.386 1_556 S
H823 C839 0.930 . S
H824 C840 0.931 . S
C825 H813 0.929 . S
C825 C819 1.390 . S
C825 C822 1.386 1_554 S
C826 C821 1.490 . S
C826 C828 1.395 . S
C826 C829 1.403 . S
H827 C833 0.930 . S
C828 H814 0.930 . S
C828 C826 1.395 . S
C828 C831 1.403 . S
C829 C826 1.403 . S
C829 C830 1.524 . S
C829 C833 1.400 . S
C830 H815 0.960 . S
C830 H816 0.960 . S
C830 H817 0.960 . S
C830 C829 1.524 . S
C831 C828 1.403 . S
C831 C832 1.392 . S
C831 C835 1.495 . S
C832 C831 1.392 . S
C832 C833 1.385 . S
C832 C834 1.478 . S
C833 H827 0.930 . S
C833 C829 1.400 . S
C833 C832 1.385 . S
C834 C832 1.478 . S
C834 C836 1.381 . S
C834 C840 1.383 . S
C835 C831 1.495 . S
C835 H841 0.959 . S
C835 H842 0.961 . S
C835 H843 0.960 . S
C836 C834 1.381 . S
C836 C837 1.394 . S
C836 H844 0.930 . S
C837 C836 1.394 . S
C837 C838 1.383 . S
C837 H845 0.929 . S
C838 C837 1.383 . S
C838 C839 1.377 . S
C839 H823 0.930 . S
C839 C838 1.377 . S
C839 C840 1.379 . S
C840 H824 0.931 . S
C840 C834 1.383 . S
C840 C839 1.379 . S
H841 C835 0.959 . S
H842 C835 0.961 . S
H843 C835 0.960 . S
H844 C836 0.930 . S
H845 C837 0.929 . S
H846 C854 0.929 . S
H847 C856 0.930 . S
H848 C858 0.930 . S
H849 C861 0.929 . S
H850 C864 0.930 . S
H851 C866 0.960 . S
H852 C866 0.960 . S
H853 C866 0.960 . S
C854 H846 0.929 . S
C854 C855 1.377 . S
C854 C856 1.384 . S
C855 C854 1.377 . S
C855 C861 1.390 . S
C856 H847 0.930 . S
C856 C854 1.384 . S
C856 C857 1.372 . S
C857 C856 1.372 . S
C857 C858 1.400 . S
C857 C862 1.490 . S
C858 H848 0.930 . S
C858 C857 1.400 . S
C858 C861 1.386 . S
H859 C875 0.930 . S
H860 C876 0.931 . S
C861 H849 0.929 . S
C861 C855 1.390 . S
C861 C858 1.386 . S
C862 C857 1.490 . S
C862 C864 1.395 . S
C862 C865 1.403 . S
H863 C869 0.930 . S
C864 H850 0.930 . S
C864 C862 1.395 . S
C864 C867 1.403 . S
C865 C862 1.403 . S
C865 C866 1.524 . S
C865 C869 1.400 . S
C866 H851 0.960 . S
C866 H852 0.960 . S
C866 H853 0.960 . S
C866 C865 1.524 . S
C867 C864 1.403 . S
C867 C868 1.392 . S
C867 C871 1.495 . S
C868 C867 1.392 . S
C868 C869 1.385 . S
C868 C870 1.478 . S
C869 H863 0.930 . S
C869 C865 1.400 . S
C869 C868 1.385 . S
C870 C868 1.478 . S
C870 C872 1.381 . S
C870 C876 1.383 . S
C871 C867 1.495 . S
C871 H877 0.959 . S
C871 H878 0.961 . S
C871 H879 0.960 . S
C872 C870 1.381 . S
C872 C873 1.394 . S
C872 H880 0.930 . S
C873 C872 1.394 . S
C873 C874 1.383 . S
C873 H881 0.929 . S
C874 C873 1.383 . S
C874 C875 1.377 . S
C875 H859 0.930 . S
C875 C874 1.377 . S
C875 C876 1.379 . S
C876 H860 0.931 . S
C876 C870 1.383 . S
C876 C875 1.379 . S
H877 C871 0.959 . S
H878 C871 0.961 . S
H879 C871 0.960 . S
H880 C872 0.930 . S
H881 C873 0.929 . S
H882 C890 0.929 . S
H883 C892 0.930 . S
H884 C894 0.930 . S
H885 C897 0.929 . S
H886 C900 0.930 . S
H887 C902 0.960 . S
H888 C902 0.960 . S
H889 C902 0.960 . S
C890 H882 0.929 . S
C890 C891 1.377 . S
C890 C892 1.384 . S
C891 C890 1.377 . S
C891 C897 1.390 . S
C892 H883 0.930 . S
C892 C890 1.384 . S
C892 C893 1.372 . S
C893 C892 1.372 . S
C893 C894 1.400 . S
C893 C898 1.490 . S
C894 H884 0.930 . S
C894 C893 1.400 . S
C894 C897 1.386 . S
H895 C911 0.930 . S
H896 C912 0.931 . S
C897 H885 0.929 . S
C897 C891 1.390 . S
C897 C894 1.386 . S
C898 C893 1.490 . S
C898 C900 1.395 . S
C898 C901 1.403 . S
H899 C905 0.930 . S
C900 H886 0.930 . S
C900 C898 1.395 . S
C900 C903 1.403 . S
C901 C898 1.403 . S
C901 C902 1.524 . S
C901 C905 1.400 . S
C902 H887 0.960 . S
C902 H888 0.960 . S
C902 H889 0.960 . S
C902 C901 1.524 . S
C903 C900 1.403 . S
C903 C904 1.392 . S
C903 C907 1.495 . S
C904 C903 1.392 . S
C904 C905 1.385 . S
C904 C906 1.478 . S
C905 H899 0.930 . S
C905 C901 1.400 . S
C905 C904 1.385 . S
C906 C904 1.478 . S
C906 C908 1.381 . S
C906 C912 1.383 . S
C907 C903 1.495 . S
C907 H913 0.959 . S
C907 H914 0.961 . S
C907 H915 0.960 . S
C908 C906 1.381 . S
C908 C909 1.394 . S
C908 H916 0.930 . S
C909 C908 1.394 . S
C909 C910 1.383 . S
C909 H917 0.929 . S
C910 C909 1.383 . S
C910 C911 1.377 . S
C911 H895 0.930 . S
C911 C910 1.377 . S
C911 C912 1.379 . S
C912 H896 0.931 . S
C912 C906 1.383 . S
C912 C911 1.379 . S
H913 C907 0.959 . S
H914 C907 0.961 . S
H915 C907 0.960 . S
H916 C908 0.930 . S
H917 C909 0.929 . S
H918 C926 0.929 . S
H919 C928 0.930 . S
H920 C930 0.930 . S
H921 C933 0.929 . S
H922 C936 0.930 . S
H923 C938 0.960 . S
H924 C938 0.960 . S
H925 C938 0.960 . S
C926 H918 0.929 . S
C926 C927 1.377 . S
C926 C928 1.384 . S
C927 C926 1.377 . S
C927 C933 1.390 . S
C928 H919 0.930 . S
C928 C926 1.384 . S
C928 C929 1.372 . S
C929 C928 1.372 . S
C929 C930 1.400 . S
C929 C934 1.490 . S
C930 H920 0.930 . S
C930 C929 1.400 . S
C930 C933 1.386 . S
H931 C947 0.930 . S
H932 C948 0.931 . S
C933 H921 0.929 . S
C933 C927 1.390 . S
C933 C930 1.386 . S
C934 C929 1.490 . S
C934 C936 1.395 . S
C934 C937 1.403 . S
H935 C941 0.930 . S
C936 H922 0.930 . S
C936 C934 1.395 . S
C936 C939 1.403 . S
C937 C934 1.403 . S
C937 C938 1.524 . S
C937 C941 1.400 . S
C938 H923 0.960 . S
C938 H924 0.960 . S
C938 H925 0.960 . S
C938 C937 1.524 . S
C939 C936 1.403 . S
C939 C940 1.392 . S
C939 C943 1.495 . S
C940 C939 1.392 . S
C940 C941 1.385 . S
C940 C942 1.478 . S
C941 H935 0.930 . S
C941 C937 1.400 . S
C941 C940 1.385 . S
C942 C940 1.478 . S
C942 C944 1.381 . S
C942 C948 1.383 . S
C943 C939 1.495 . S
C943 H949 0.959 . S
C943 H950 0.961 . S
C943 H951 0.960 . S
C944 C942 1.381 . S
C944 C945 1.394 . S
C944 H952 0.930 . S
C945 C944 1.394 . S
C945 C946 1.383 . S
C945 H953 0.929 . S
C946 C945 1.383 . S
C946 C947 1.377 . S
C947 H931 0.930 . S
C947 C946 1.377 . S
C947 C948 1.379 . S
C948 H932 0.931 . S
C948 C942 1.383 . S
C948 C947 1.379 . S
H949 C943 0.959 . S
H950 C943 0.961 . S
H951 C943 0.960 . S
H952 C944 0.930 . S
H953 C945 0.929 . S
H954 C962 0.929 . S
H955 C964 0.930 . S
H956 C966 0.930 . S
H957 C969 0.929 . S
H958 C972 0.930 . S
H959 C974 0.960 . S
H960 C974 0.960 . S
H961 C974 0.960 . S
C962 H954 0.929 . S
C962 C963 1.377 . S
C962 C964 1.384 . S
C963 C962 1.377 . S
C963 C969 1.390 . S
C964 H955 0.930 . S
C964 C962 1.384 . S
C964 C965 1.372 . S
C965 C964 1.372 . S
C965 C966 1.400 . S
C965 C970 1.490 . S
C966 H956 0.930 . S
C966 C965 1.400 . S
C966 C969 1.386 . S
H967 C983 0.930 . S
H968 C984 0.931 . S
C969 H957 0.929 . S
C969 C963 1.390 . S
C969 C966 1.386 . S
C970 C965 1.490 . S
C970 C972 1.395 . S
C970 C973 1.403 . S
H971 C977 0.930 . S
C972 H958 0.930 . S
C972 C970 1.395 . S
C972 C975 1.403 . S
C973 C970 1.403 . S
C973 C974 1.524 . S
C973 C977 1.400 . S
C974 H959 0.960 . S
C974 H960 0.960 . S
C974 H961 0.960 . S
C974 C973 1.524 . S
C975 C972 1.403 . S
C975 C976 1.392 . S
C975 C979 1.495 . S
C976 C975 1.392 . S
C976 C977 1.385 . S
C976 C978 1.478 . S
C977 H971 0.930 . S
C977 C973 1.400 . S
C977 C976 1.385 . S
C978 C976 1.478 . S
C978 C980 1.381 . S
C978 C984 1.383 . S
C979 C975 1.495 . S
C979 H985 0.959 . S
C979 H986 0.961 1_554 S
C979 H987 0.960 1_554 S
C980 C978 1.381 . S
C980 C981 1.394 1_554 S
C980 H988 0.930 . S
C981 C980 1.394 1_556 S
C981 C982 1.383 . S
C981 H989 0.929 . S
C982 C981 1.383 . S
C982 C983 1.377 1_556 S
C983 H967 0.930 . S
C983 C982 1.377 1_554 S
C983 C984 1.379 . S
C984 H968 0.931 . S
C984 C978 1.383 . S
C984 C983 1.379 . S
H985 C979 0.959 . S
H986 C979 0.961 1_556 S
H987 C979 0.960 1_556 S
H988 C980 0.930 . S
H989 C981 0.929 . S
H990 C998 0.929 . S
H991 C1000 0.930 . S
H992 C1002 0.930 . S
H993 C1005 0.929 . S
H994 C1008 0.930 . S
H995 C1010 0.960 . S
H996 C1010 0.960 . S
H997 C1010 0.960 . S
C998 H990 0.929 . S
C998 C999 1.377 . S
C998 C1000 1.384 . S
C999 C998 1.377 . S
C999 C1005 1.390 . S
C1000 H991 0.930 . S
C1000 C998 1.384 . S
C1000 C1001 1.372 . S
C1001 C1000 1.372 . S
C1001 C1002 1.400 . S
C1001 C1006 1.490 . S
C1002 H992 0.930 . S
C1002 C1001 1.400 . S
C1002 C1005 1.386 . S
H1003 C1019 0.930 . S
H1004 C1020 0.931 . S
C1005 H993 0.929 . S
C1005 C999 1.390 . S
C1005 C1002 1.386 . S
C1006 C1001 1.490 . S
C1006 C1008 1.395 . S
C1006 C1009 1.403 . S
H1007 C1013 0.930 . S
C1008 H994 0.930 . S
C1008 C1006 1.395 . S
C1008 C1011 1.403 . S
C1009 C1006 1.403 . S
C1009 C1010 1.524 . S
C1009 C1013 1.400 . S
C1010 H995 0.960 . S
C1010 H996 0.960 . S
C1010 H997 0.960 . S
C1010 C1009 1.524 . S
C1011 C1008 1.403 . S
C1011 C1012 1.392 . S
C1011 C1015 1.495 . S
C1012 C1011 1.392 . S
C1012 C1013 1.385 . S
C1012 C1014 1.478 . S
C1013 H1007 0.930 . S
C1013 C1009 1.400 . S
C1013 C1012 1.385 . S
C1014 C1012 1.478 . S
C1014 C1016 1.381 . S
C1014 C1020 1.383 . S
C1015 C1011 1.495 . S
C1015 H1021 0.959 . S
C1015 H1022 0.961 . S
C1015 H1023 0.960 . S
C1016 C1014 1.381 . S
C1016 C1017 1.394 . S
C1016 H1024 0.930 . S
C1017 C1016 1.394 . S
C1017 C1018 1.383 . S
C1017 H1025 0.919 1_554 S
C1018 C1017 1.383 . S
C1018 C1019 1.377 . S
C1019 H1003 0.930 . S
C1019 C1018 1.377 . S
C1019 C1020 1.379 . S
C1020 H1004 0.931 . S
C1020 C1014 1.383 . S
C1020 C1019 1.379 . S
H1021 C1015 0.959 . S
H1022 C1015 0.961 . S
H1023 C1015 0.960 . S
H1024 C1016 0.930 . S
H1025 C1017 0.919 1_556 S
H1026 C1034 0.929 . S
H1027 C1036 0.930 . S
H1028 C1038 0.930 . S
H1029 C1041 0.929 . S
H1030 C1044 0.930 . S
H1031 C1046 0.960 . S
H1032 C1046 0.960 . S
H1033 C1046 0.960 . S
C1034 H1026 0.929 . S
C1034 C1035 1.377 . S
C1034 C1036 1.384 . S
C1035 C1034 1.377 . S
C1035 C1041 1.390 . S
C1036 H1027 0.930 . S
C1036 C1034 1.384 . S
C1036 C1037 1.372 . S
C1037 C1036 1.372 . S
C1037 C1038 1.400 . S
C1037 C1042 1.490 . S
C1038 H1028 0.930 . S
C1038 C1037 1.400 . S
C1038 C1041 1.386 . S
H1039 C1055 0.930 . S
H1040 C1056 0.931 . S
C1041 H1029 0.929 . S
C1041 C1035 1.390 . S
C1041 C1038 1.386 . S
C1042 C1037 1.490 . S
C1042 C1044 1.395 . S
C1042 C1045 1.403 . S
H1043 C1049 0.930 . S
C1044 H1030 0.930 . S
C1044 C1042 1.395 . S
C1044 C1047 1.403 . S
C1045 C1042 1.403 . S
C1045 C1046 1.524 . S
C1045 C1049 1.400 . S
C1046 H1031 0.960 . S
C1046 H1032 0.960 . S
C1046 H1033 0.960 . S
C1046 C1045 1.524 . S
C1047 C1044 1.403 . S
C1047 C1048 1.392 . S
C1047 C1051 1.495 . S
C1048 C1047 1.392 . S
C1048 C1049 1.385 . S
C1048 C1050 1.478 . S
C1049 H1043 0.930 . S
C1049 C1045 1.400 . S
C1049 C1048 1.385 . S
C1050 C1048 1.478 . S
C1050 C1052 1.381 . S
C1050 C1056 1.383 . S
C1051 C1047 1.495 . S
C1051 H1057 0.959 . S
C1051 H1058 0.961 . S
C1051 H1059 0.960 . S
C1052 C1050 1.381 . S
C1052 C1053 1.394 . S
C1052 H1060 0.930 . S
C1053 C1052 1.394 . S
C1053 C1054 1.383 . S
C1053 H1061 0.929 . S
C1054 C1053 1.383 . S
C1054 C1055 1.377 . S
C1055 H1039 0.930 . S
C1055 C1054 1.377 . S
C1055 C1056 1.379 . S
C1056 H1040 0.931 . S
C1056 C1050 1.383 . S
C1056 C1055 1.379 . S
H1057 C1051 0.959 . S
H1058 C1051 0.961 . S
H1059 C1051 0.960 . S
H1060 C1052 0.930 . S
H1061 C1053 0.929 . S
H1062 C1070 0.929 . S
H1063 C1072 0.930 . S
H1064 C1074 0.930 . S
H1065 C1077 0.929 . S
H1066 C1080 0.930 . S
H1067 C1082 0.960 . S
H1068 C1082 0.960 . S
H1069 C1082 0.960 . S
C1070 H1062 0.929 . S
C1070 C1071 1.377 . S
C1070 C1072 1.384 . S
C1071 C1070 1.377 . S
C1071 C1077 1.390 . S
C1072 H1063 0.930 . S
C1072 C1070 1.384 . S
C1072 C1073 1.372 . S
C1073 C1072 1.372 . S
C1073 C1074 1.400 . S
C1073 C1078 1.490 . S
C1074 H1064 0.930 . S
C1074 C1073 1.400 . S
C1074 C1077 1.386 . S
H1075 C1091 0.930 . S
H1076 C1092 0.931 . S
C1077 H1065 0.929 . S
C1077 C1071 1.390 . S
C1077 C1074 1.386 . S
C1078 C1073 1.490 . S
C1078 C1080 1.395 . S
C1078 C1081 1.403 . S
H1079 C1085 0.930 . S
C1080 H1066 0.930 . S
C1080 C1078 1.395 . S
C1080 C1083 1.403 . S
C1081 C1078 1.403 . S
C1081 C1082 1.524 . S
C1081 C1085 1.400 . S
C1082 H1067 0.960 . S
C1082 H1068 0.960 . S
C1082 H1069 0.960 . S
C1082 C1081 1.524 . S
C1083 C1080 1.403 . S
C1083 C1084 1.392 . S
C1083 C1087 1.495 . S
C1084 C1083 1.392 . S
C1084 C1085 1.385 . S
C1084 C1086 1.478 . S
C1085 H1079 0.930 . S
C1085 C1081 1.400 . S
C1085 C1084 1.385 . S
C1086 C1084 1.478 . S
C1086 C1088 1.381 . S
C1086 C1092 1.383 . S
C1087 C1083 1.495 . S
C1087 H1093 0.959 . S
C1087 H1094 0.961 . S
C1087 H1095 0.960 . S
C1088 C1086 1.381 . S
C1088 C1089 1.394 . S
C1088 H1096 0.930 . S
C1089 C1088 1.394 . S
C1089 C1090 1.383 . S
C1089 H1097 0.929 . S
C1090 C1089 1.383 . S
C1090 C1091 1.377 . S
C1091 H1075 0.930 . S
C1091 C1090 1.377 . S
C1091 C1092 1.379 . S
C1092 H1076 0.931 . S
C1092 C1086 1.383 . S
C1092 C1091 1.379 . S
H1093 C1087 0.959 . S
H1094 C1087 0.961 . S
H1095 C1087 0.960 . S
H1096 C1088 0.930 . S
H1097 C1089 0.929 . S
H1098 C1106 0.929 . S
H1099 C1108 0.930 . S
H1100 C1110 0.930 . S
H1101 C1113 0.929 . S
H1102 C1116 0.930 . S
H1103 C1118 0.960 . S
H1104 C1118 0.960 . S
H1105 C1118 0.960 . S
C1106 H1098 0.929 . S
C1106 C1107 1.377 . S
C1106 C1108 1.384 . S
C1107 C1106 1.377 . S
C1107 C1113 1.390 . S
C1108 H1099 0.930 . S
C1108 C1106 1.384 . S
C1108 C1109 1.372 . S
C1109 C1108 1.372 . S
C1109 C1110 1.400 . S
C1109 C1114 1.490 . S
C1110 H1100 0.930 . S
C1110 C1109 1.400 . S
C1110 C1113 1.386 . S
H1111 C1127 0.930 . S
H1112 C1128 0.931 . S
C1113 H1101 0.929 . S
C1113 C1107 1.390 . S
C1113 C1110 1.386 . S
C1114 C1109 1.490 . S
C1114 C1116 1.395 . S
C1114 C1117 1.403 . S
H1115 C1121 0.930 . S
C1116 H1102 0.930 . S
C1116 C1114 1.395 . S
C1116 C1119 1.403 . S
C1117 C1114 1.403 . S
C1117 C1118 1.524 . S
C1117 C1121 1.400 . S
C1118 H1103 0.960 . S
C1118 H1104 0.960 . S
C1118 H1105 0.960 . S
C1118 C1117 1.524 . S
C1119 C1116 1.403 . S
C1119 C1120 1.392 . S
C1119 C1123 1.495 . S
C1120 C1119 1.392 . S
C1120 C1121 1.385 . S
C1120 C1122 1.478 . S
C1121 H1115 0.930 . S
C1121 C1117 1.400 . S
C1121 C1120 1.385 . S
C1122 C1120 1.478 . S
C1122 C1124 1.381 . S
C1122 C1128 1.383 . S
C1123 C1119 1.495 . S
C1123 H1129 0.959 . S
C1123 H1130 0.961 . S
C1123 H1131 0.960 . S
C1124 C1122 1.381 . S
C1124 C1125 1.394 . S
C1124 H1132 0.930 . S
C1125 C1124 1.394 . S
C1125 C1126 1.383 . S
C1125 H1133 0.929 . S
C1126 C1125 1.383 . S
C1126 C1127 1.377 . S
C1127 H1111 0.930 . S
C1127 C1126 1.377 . S
C1127 C1128 1.379 . S
C1128 H1112 0.931 . S
C1128 C1122 1.383 . S
C1128 C1127 1.379 . S
H1129 C1123 0.959 . S
H1130 C1123 0.961 . S
H1131 C1123 0.960 . S
H1132 C1124 0.930 . S
H1133 C1125 0.929 . S
H1134 C1142 0.929 . S
H1135 C1144 0.930 . S
H1136 C1146 0.930 . S
H1137 C1149 0.929 . S
H1138 C1152 0.930 . S
H1139 C1154 0.962 . S
H1140 C1154 0.960 . S
H1141 C1154 0.960 . S
C1142 H1134 0.929 . S
C1142 C1143 1.377 . S
C1142 C1144 1.384 . S
C1143 C1142 1.377 . S
C1143 C1149 1.390 . S
C1144 H1135 0.930 . S
C1144 C1142 1.384 . S
C1144 C1145 1.372 . S
C1145 C1144 1.372 . S
C1145 C1146 1.400 . S
C1145 C1150 1.490 . S
C1146 H1136 0.930 . S
C1146 C1145 1.400 . S
C1146 C1149 1.386 . S
H1147 C1163 0.930 . S
H1148 C1164 0.931 . S
C1149 H1137 0.929 . S
C1149 C1143 1.390 . S
C1149 C1146 1.386 . S
C1150 C1145 1.490 . S
C1150 C1152 1.395 . S
C1150 C1153 1.403 . S
H1151 C1157 0.930 . S
C1152 H1138 0.930 . S
C1152 C1150 1.395 . S
C1152 C1155 1.403 . S
C1153 C1150 1.403 . S
C1153 C1154 1.524 . S
C1153 C1157 1.400 . S
C1154 H1139 0.962 . S
C1154 H1140 0.960 . S
C1154 H1141 0.960 . S
C1154 C1153 1.524 . S
C1155 C1152 1.403 . S
C1155 C1156 1.392 . S
C1155 C1159 1.495 . S
C1156 C1155 1.392 . S
C1156 C1157 1.385 . S
C1156 C1158 1.478 . S
C1157 H1151 0.930 . S
C1157 C1153 1.400 . S
C1157 C1156 1.385 . S
C1158 C1156 1.478 . S
C1158 C1160 1.416 . S
C1158 C1164 1.383 . S
C1159 C1155 1.495 . S
C1159 H1165 0.959 . S
C1159 H1166 0.961 . S
C1159 H1167 0.960 . S
C1160 C1158 1.416 . S
C1160 C1161 1.337 1_565 S
C1160 H1168 0.959 . S
C1161 C1160 1.337 1_545 S
C1161 C1162 1.383 . S
C1161 H1169 0.929 . S
C1162 C1161 1.383 . S
C1162 C1163 1.377 1_545 S
C1163 H1147 0.930 . S
C1163 C1162 1.377 1_565 S
C1163 C1164 1.379 . S
C1164 H1148 0.931 . S
C1164 C1158 1.383 . S
C1164 C1163 1.379 . S
H1165 C1159 0.959 . S
H1166 C1159 0.961 . S
H1167 C1159 0.960 . S
H1168 C1160 0.959 . S
H1169 C1161 0.929 . S
H1170 C1178 0.929 . S
H1171 C1180 0.930 . S
H1172 C1182 0.930 . S
H1173 C1185 0.929 . S
H1174 C1188 0.930 . S
H1175 C1190 0.960 . S
H1176 C1190 0.960 . S
H1177 C1190 0.960 . S
C1178 H1170 0.929 . S
C1178 C1179 1.377 . S
C1178 C1180 1.384 . S
C1179 C1178 1.377 . S
C1179 C1185 1.390 . S
C1180 H1171 0.930 . S
C1180 C1178 1.384 . S
C1180 C1181 1.372 . S
C1181 C1180 1.372 . S
C1181 C1182 1.400 . S
C1181 C1186 1.490 . S
C1182 H1172 0.930 . S
C1182 C1181 1.400 . S
C1182 C1185 1.386 . S
H1183 C1199 0.930 . S
H1184 C1200 0.931 . S
C1185 H1173 0.929 . S
C1185 C1179 1.390 . S
C1185 C1182 1.386 . S
C1186 C1181 1.490 . S
C1186 C1188 1.395 . S
C1186 C1189 1.403 . S
H1187 C1193 0.930 . S
C1188 H1174 0.930 . S
C1188 C1186 1.395 . S
C1188 C1191 1.403 . S
C1189 C1186 1.403 . S
C1189 C1190 1.524 . S
C1189 C1193 1.400 . S
C1190 H1175 0.960 . S
C1190 H1176 0.960 . S
C1190 H1177 0.960 . S
C1190 C1189 1.524 . S
C1191 C1188 1.403 . S
C1191 C1192 1.392 . S
C1191 C1195 1.495 . S
C1192 C1191 1.392 . S
C1192 C1193 1.385 . S
C1192 C1194 1.478 . S
C1193 H1187 0.930 . S
C1193 C1189 1.400 . S
C1193 C1192 1.385 . S
C1194 C1192 1.478 . S
C1194 C1196 1.381 . S
C1194 C1200 1.383 . S
C1195 C1191 1.495 . S
C1195 H1201 0.959 . S
C1195 H1202 0.961 . S
C1195 H1203 0.960 . S
C1196 C1194 1.381 . S
C1196 C1197 1.394 . S
C1196 H1204 0.930 . S
C1197 C1196 1.394 . S
C1197 C1198 1.383 . S
C1197 H1205 0.929 . S
C1198 C1197 1.383 . S
C1198 C1199 1.377 . S
C1199 H1183 0.930 . S
C1199 C1198 1.377 . S
C1199 C1200 1.379 . S
C1200 H1184 0.931 . S
C1200 C1194 1.383 . S
C1200 C1199 1.379 . S
H1201 C1195 0.959 . S
H1202 C1195 0.961 . S
H1203 C1195 0.960 . S
H1204 C1196 0.930 . S
H1205 C1197 0.929 . S
H1206 C1214 0.929 . S
H1207 C1216 0.930 . S
H1208 C1218 0.930 . S
H1209 C1221 0.929 . S
H1210 C1224 0.930 . S
H1211 C1226 0.960 . S
H1212 C1226 0.960 . S
H1213 C1226 0.960 . S
C1214 H1206 0.929 . S
C1214 C1215 1.377 1_554 S
C1214 C1216 1.384 . S
C1215 C1214 1.377 1_556 S
C1215 C1221 1.390 . S
C1216 H1207 0.930 . S
C1216 C1214 1.384 . S
C1216 C1217 1.372 . S
C1217 C1216 1.372 . S
C1217 C1218 1.400 1_554 S
C1217 C1222 1.490 . S
C1218 H1208 0.930 . S
C1218 C1217 1.400 1_556 S
C1218 C1221 1.386 . S
H1219 C1235 0.930 1_655 S
H1220 C1236 0.931 . S
C1221 H1209 0.929 . S
C1221 C1215 1.390 . S
C1221 C1218 1.386 . S
C1222 C1217 1.490 . S
C1222 C1224 1.395 . S
C1222 C1225 1.403 . S
H1223 C1229 0.930 . S
C1224 H1210 0.930 . S
C1224 C1222 1.395 . S
C1224 C1227 1.403 . S
C1225 C1222 1.403 . S
C1225 C1226 1.524 1_554 S
C1225 C1229 1.400 . S
C1226 H1211 0.960 . S
C1226 H1212 0.960 . S
C1226 H1213 0.960 . S
C1226 C1225 1.524 1_556 S
C1227 C1224 1.403 . S
C1227 C1228 1.392 . S
C1227 C1231 1.495 . S
C1228 C1227 1.392 . S
C1228 C1229 1.385 . S
C1228 C1230 1.478 1_655 S
C1229 H1223 0.930 . S
C1229 C1225 1.400 . S
C1229 C1228 1.385 . S
C1230 C1228 1.478 1_455 S
C1230 C1232 1.381 . S
C1230 C1236 1.383 1_455 S
C1231 C1227 1.495 . S
C1231 H1237 0.959 . S
C1231 H1238 0.961 . S
C1231 H1239 0.960 1_655 S
C1232 C1230 1.381 . S
C1232 C1233 1.394 . S
C1232 H1240 0.930 . S
C1233 C1232 1.394 . S
C1233 C1234 1.383 . S
C1233 H1241 0.929 . S
C1234 C1233 1.383 . S
C1234 C1235 1.377 . S
C1235 H1219 0.930 1_455 S
C1235 C1234 1.377 . S
C1235 C1236 1.379 1_455 S
C1236 H1220 0.931 . S
C1236 C1230 1.383 1_655 S
C1236 C1235 1.379 1_655 S
H1237 C1231 0.959 . S
H1238 C1231 0.961 . S
H1239 C1231 0.960 1_455 S
H1240 C1232 0.930 . S
H1241 C1233 0.929 . S
H1242 C1250 0.929 . S
H1243 C1252 0.930 . S
H1244 C1254 0.930 . S
H1245 C1257 0.929 . S
H1246 C1260 0.930 . S
H1247 C1262 0.960 . S
H1248 C1262 0.960 . S
H1249 C1262 0.960 . S
C1250 H1242 0.929 . S
C1250 C1251 1.377 1_554 S
C1250 C1252 1.384 . S
C1251 C1250 1.377 1_556 S
C1251 C1257 1.390 . S
C1252 H1243 0.930 . S
C1252 C1250 1.384 . S
C1252 C1253 1.372 . S
C1253 C1252 1.372 . S
C1253 C1254 1.400 1_554 S
C1253 C1258 1.490 . S
C1254 H1244 0.930 . S
C1254 C1253 1.400 1_556 S
C1254 C1257 1.386 . S
H1255 C1271 0.930 . S
H1256 C1272 0.931 . S
C1257 H1245 0.929 . S
C1257 C1251 1.390 . S
C1257 C1254 1.386 . S
C1258 C1253 1.490 . S
C1258 C1260 1.395 . S
C1258 C1261 1.403 . S
H1259 C1265 0.930 . S
C1260 H1246 0.930 . S
C1260 C1258 1.395 . S
C1260 C1263 1.403 . S
C1261 C1258 1.403 . S
C1261 C1262 1.524 1_554 S
C1261 C1265 1.400 . S
C1262 H1247 0.960 . S
C1262 H1248 0.960 . S
C1262 H1249 0.960 . S
C1262 C1261 1.524 1_556 S
C1263 C1260 1.403 . S
C1263 C1264 1.392 . S
C1263 C1267 1.495 . S
C1264 C1263 1.392 . S
C1264 C1265 1.385 . S
C1264 C1266 1.478 . S
C1265 H1259 0.930 . S
C1265 C1261 1.400 . S
C1265 C1264 1.385 . S
C1266 C1264 1.478 . S
C1266 C1268 1.381 . S
C1266 C1272 1.383 . S
C1267 C1263 1.495 . S
C1267 H1273 0.959 . S
C1267 H1274 0.961 . S
C1267 H1275 0.960 . S
C1268 C1266 1.381 . S
C1268 C1269 1.394 . S
C1268 H1276 0.930 . S
C1269 C1268 1.394 . S
C1269 C1270 1.383 . S
C1269 H1277 0.929 . S
C1270 C1269 1.383 . S
C1270 C1271 1.377 . S
C1271 H1255 0.930 . S
C1271 C1270 1.377 . S
C1271 C1272 1.379 . S
C1272 H1256 0.931 . S
C1272 C1266 1.383 . S
C1272 C1271 1.379 . S
H1273 C1267 0.959 . S
H1274 C1267 0.961 . S
H1275 C1267 0.960 . S
H1276 C1268 0.930 . S
H1277 C1269 0.929 . S
H1278 C1286 0.929 . S
H1279 C1288 0.930 . S
H1280 C1290 0.930 . S
H1281 C1293 0.929 . S
H1282 C1296 0.930 . S
H1283 C1298 0.960 . S
H1284 C1298 0.960 . S
H1285 C1298 0.960 1_655 S
C1286 H1278 0.929 . S
C1286 C1287 1.377 . S
C1286 C1288 1.384 . S
C1287 C1286 1.377 . S
C1287 C1293 1.390 . S
C1288 H1279 0.930 . S
C1288 C1286 1.384 . S
C1288 C1289 1.372 . S
C1289 C1288 1.372 . S
C1289 C1290 1.400 . S
C1289 C1294 1.490 . S
C1290 H1280 0.930 . S
C1290 C1289 1.400 . S
C1290 C1293 1.386 . S
H1291 C1307 0.930 . S
H1292 C1308 0.929 . S
C1293 H1281 0.929 . S
C1293 C1287 1.390 . S
C1293 C1290 1.386 . S
C1294 C1289 1.490 . S
C1294 C1296 1.395 . S
C1294 C1297 1.403 . S
H1295 C1301 0.868 1_455 S
C1296 H1282 0.930 . S
C1296 C1294 1.395 . S
C1296 C1299 1.403 . S
C1297 C1294 1.403 . S
C1297 C1298 1.524 1_655 S
C1297 C1301 1.392 . S
C1298 H1283 0.960 . S
C1298 H1284 0.960 . S
C1298 H1285 0.960 1_455 S
C1298 C1297 1.524 1_455 S
C1299 C1296 1.403 . S
C1299 C1300 1.392 . S
C1299 C1303 1.495 . S
C1300 C1299 1.392 . S
C1300 C1301 1.456 . S
C1300 C1302 1.478 . S
C1301 H1295 0.868 1_655 S
C1301 C1297 1.392 . S
C1301 C1300 1.456 . S
C1302 C1300 1.478 . S
C1302 C1304 1.381 1_655 S
C1302 C1308 1.383 1_655 S
C1303 C1299 1.495 . S
C1303 H1309 0.959 . S
C1303 H1310 0.961 . S
C1303 H1311 0.960 . S
C1304 C1302 1.381 1_455 S
C1304 C1305 1.394 . S
C1304 H1312 0.922 1_455 S
C1305 C1304 1.394 . S
C1305 C1306 1.383 . S
C1305 H1313 0.929 . S
C1306 C1305 1.383 . S
C1306 C1307 1.377 . S
C1307 H1291 0.930 . S
C1307 C1306 1.377 . S
C1307 C1308 1.379 . S
C1308 H1292 0.929 . S
C1308 C1302 1.383 1_455 S
C1308 C1307 1.379 . S
H1309 C1303 0.959 . S
H1310 C1303 0.961 . S
H1311 C1303 0.960 . S
H1312 C1304 0.922 1_655 S
H1313 C1305 0.929 . S
H1314 C1322 0.929 . S
H1315 C1324 0.930 . S
H1316 C1326 0.930 . S
H1317 C1329 0.929 . S
H1318 C1332 0.930 . S
H1319 C1334 0.960 . S
H1320 C1334 0.960 . S
H1321 C1334 0.960 . S
C1322 H1314 0.929 . S
C1322 C1323 1.377 . S
C1322 C1324 1.384 . S
C1323 C1322 1.377 . S
C1323 C1329 1.390 . S
C1324 H1315 0.930 . S
C1324 C1322 1.384 . S
C1324 C1325 1.372 . S
C1325 C1324 1.372 . S
C1325 C1326 1.400 . S
C1325 C1330 1.490 . S
C1326 H1316 0.930 . S
C1326 C1325 1.400 . S
C1326 C1329 1.386 . S
H1327 C1343 0.930 . S
H1328 C1344 0.931 . S
C1329 H1317 0.929 . S
C1329 C1323 1.390 . S
C1329 C1326 1.386 . S
C1330 C1325 1.490 . S
C1330 C1332 1.395 . S
C1330 C1333 1.403 . S
H1331 C1337 0.930 . S
C1332 H1318 0.930 . S
C1332 C1330 1.395 . S
C1332 C1335 1.403 . S
C1333 C1330 1.403 . S
C1333 C1334 1.524 . S
C1333 C1337 1.400 . S
C1334 H1319 0.960 . S
C1334 H1320 0.960 . S
C1334 H1321 0.960 . S
C1334 C1333 1.524 . S
C1335 C1332 1.403 . S
C1335 C1336 1.392 . S
C1335 C1339 1.495 . S
C1336 C1335 1.392 . S
C1336 C1337 1.385 . S
C1336 C1338 1.478 . S
C1337 H1331 0.930 . S
C1337 C1333 1.400 . S
C1337 C1336 1.385 . S
C1338 C1336 1.478 . S
C1338 C1340 1.381 . S
C1338 C1344 1.383 . S
C1339 C1335 1.495 . S
C1339 H1345 0.959 . S
C1339 H1346 0.961 . S
C1339 H1347 0.960 . S
C1340 C1338 1.381 . S
C1340 C1341 1.394 . S
C1340 H1348 0.930 . S
C1341 C1340 1.394 . S
C1341 C1342 1.383 . S
C1341 H1349 0.929 . S
C1342 C1341 1.383 . S
C1342 C1343 1.377 . S
C1343 H1327 0.930 . S
C1343 C1342 1.377 . S
C1343 C1344 1.379 . S
C1344 H1328 0.931 . S
C1344 C1338 1.383 . S
C1344 C1343 1.379 . S
H1345 C1339 0.959 . S
H1346 C1339 0.961 . S
H1347 C1339 0.960 . S
H1348 C1340 0.930 . S
H1349 C1341 0.929 . S
H1350 C1358 0.929 . S
H1351 C1360 0.930 . S
H1352 C1362 0.930 . S
H1353 C1365 0.929 . S
H1354 C1368 0.930 . S
H1355 C1370 0.960 . S
H1356 C1370 0.960 . S
H1357 C1370 0.960 . S
C1358 H1350 0.929 . S
C1358 C1359 1.377 . S
C1358 C1360 1.384 . S
C1359 C1358 1.377 . S
C1359 C1365 1.390 . S
C1360 H1351 0.930 . S
C1360 C1358 1.384 . S
C1360 C1361 1.372 . S
C1361 C1360 1.372 . S
C1361 C1362 1.400 . S
C1361 C1366 1.490 . S
C1362 H1352 0.930 . S
C1362 C1361 1.400 . S
C1362 C1365 1.386 . S
H1363 C1379 0.930 . S
H1364 C1380 0.931 . S
C1365 H1353 0.929 . S
C1365 C1359 1.390 . S
C1365 C1362 1.386 . S
C1366 C1361 1.490 . S
C1366 C1368 1.395 . S
C1366 C1369 1.403 . S
H1367 C1373 0.930 . S
C1368 H1354 0.930 . S
C1368 C1366 1.395 . S
C1368 C1371 1.403 . S
C1369 C1366 1.403 . S
C1369 C1370 1.524 . S
C1369 C1373 1.400 . S
C1370 H1355 0.960 . S
C1370 H1356 0.960 . S
C1370 H1357 0.960 . S
C1370 C1369 1.524 . S
C1371 C1368 1.403 . S
C1371 C1372 1.392 . S
C1371 C1375 1.495 . S
C1372 C1371 1.392 . S
C1372 C1373 1.385 . S
C1372 C1374 1.478 . S
C1373 H1367 0.930 . S
C1373 C1369 1.400 . S
C1373 C1372 1.385 . S
C1374 C1372 1.478 . S
C1374 C1376 1.381 . S
C1374 C1380 1.383 . S
C1375 C1371 1.495 . S
C1375 H1381 0.959 . S
C1375 H1382 0.961 . S
C1375 H1383 0.960 . S
C1376 C1374 1.381 . S
C1376 C1377 1.394 . S
C1376 H1384 0.930 . S
C1377 C1376 1.394 . S
C1377 C1378 1.383 . S
C1377 H1385 0.929 . S
C1378 C1377 1.383 . S
C1378 C1379 1.377 . S
C1379 H1363 0.930 . S
C1379 C1378 1.377 . S
C1379 C1380 1.379 . S
C1380 H1364 0.931 . S
C1380 C1374 1.383 . S
C1380 C1379 1.379 . S
H1381 C1375 0.959 . S
H1382 C1375 0.961 . S
H1383 C1375 0.960 . S
H1384 C1376 0.930 . S
H1385 C1377 0.929 . S
H1386 C1394 0.929 . S
H1387 C1396 0.930 . S
H1388 C1398 0.930 1_554 S
H1389 C1401 0.929 . S
H1390 C1404 0.930 . S
H1391 C1406 0.960 . S
H1392 C1406 0.960 . S
H1393 C1406 0.960 . S
C1394 H1386 0.929 . S
C1394 C1395 1.377 1_556 S
C1394 C1396 1.384 . S
C1395 C1394 1.377 1_554 S
C1395 C1401 1.390 . S
C1396 H1387 0.930 . S
C1396 C1394 1.384 . S
C1396 C1397 1.372 . S
C1397 C1396 1.372 . S
C1397 C1398 1.400 . S
C1397 C1402 1.490 . S
C1398 H1388 0.930 1_556 S
C1398 C1397 1.400 . S
C1398 C1401 1.386 1_556 S
H1399 C1415 0.930 . S
H1400 C1416 0.931 . S
C1401 H1389 0.929 . S
C1401 C1395 1.390 . S
C1401 C1398 1.386 1_554 S
C1402 C1397 1.490 . S
C1402 C1404 1.395 . S
C1402 C1405 1.403 . S
H1403 C1409 0.930 . S
C1404 H1390 0.930 . S
C1404 C1402 1.395 . S
C1404 C1407 1.403 . S
C1405 C1402 1.403 . S
C1405 C1406 1.524 1_556 S
C1405 C1409 1.400 . S
C1406 H1391 0.960 . S
C1406 H1392 0.960 . S
C1406 H1393 0.960 . S
C1406 C1405 1.524 1_554 S
C1407 C1404 1.403 . S
C1407 C1408 1.392 . S
C1407 C1411 1.495 . S
C1408 C1407 1.392 . S
C1408 C1409 1.385 . S
C1408 C1410 1.478 . S
C1409 H1403 0.930 . S
C1409 C1405 1.400 . S
C1409 C1408 1.385 . S
C1410 C1408 1.478 . S
C1410 C1412 1.381 . S
C1410 C1416 1.383 1_565 S
C1411 C1407 1.495 . S
C1411 H1417 0.959 . S
C1411 H1418 0.961 . S
C1411 H1419 0.960 . S
C1412 C1410 1.381 . S
C1412 C1413 1.394 . S
C1412 H1420 0.930 . S
C1413 C1412 1.394 . S
C1413 C1414 1.383 1_565 S
C1413 H1421 0.929 . S
C1414 C1413 1.383 1_545 S
C1414 C1415 1.377 . S
C1415 H1399 0.930 . S
C1415 C1414 1.377 . S
C1415 C1416 1.379 . S
C1416 H1400 0.931 . S
C1416 C1410 1.383 1_545 S
C1416 C1415 1.379 . S
H1417 C1411 0.959 . S
H1418 C1411 0.961 . S
H1419 C1411 0.960 . S
H1420 C1412 0.930 . S
H1421 C1413 0.929 . S
H1422 C1430 0.929 . S
H1423 C1432 0.930 . S
H1424 C1434 0.930 . S
H1425 C1437 0.929 . S
H1426 C1440 0.930 . S
H1427 C1442 0.960 . S
H1428 C1442 0.960 . S
H1429 C1442 0.960 . S
C1430 H1422 0.929 . S
C1430 C1431 1.377 . S
C1430 C1432 1.384 . S
C1431 C1430 1.377 . S
C1431 C1437 1.390 . S
C1432 H1423 0.930 . S
C1432 C1430 1.384 . S
C1432 C1433 1.372 . S
C1433 C1432 1.372 . S
C1433 C1434 1.400 . S
C1433 C1438 1.490 . S
C1434 H1424 0.930 . S
C1434 C1433 1.400 . S
C1434 C1437 1.386 . S
H1435 C1451 0.930 . S
H1436 C1452 0.931 . S
C1437 H1425 0.929 . S
C1437 C1431 1.390 . S
C1437 C1434 1.386 . S
C1438 C1433 1.490 . S
C1438 C1440 1.395 . S
C1438 C1441 1.403 . S
H1439 C1445 0.930 . S
C1440 H1426 0.930 . S
C1440 C1438 1.395 . S
C1440 C1443 1.403 . S
C1441 C1438 1.403 . S
C1441 C1442 1.524 . S
C1441 C1445 1.400 . S
C1442 H1427 0.960 . S
C1442 H1428 0.960 . S
C1442 H1429 0.960 . S
C1442 C1441 1.524 . S
C1443 C1440 1.403 . S
C1443 C1444 1.392 . S
C1443 C1447 1.495 1_556 S
C1444 C1443 1.392 . S
C1444 C1445 1.385 . S
C1444 C1446 1.478 . S
C1445 H1439 0.930 . S
C1445 C1441 1.400 . S
C1445 C1444 1.385 . S
C1446 C1444 1.478 . S
C1446 C1448 1.381 1_556 S
C1446 C1452 1.383 . S
C1447 C1443 1.495 1_554 S
C1447 H1453 0.959 . S
C1447 H1454 0.961 . S
C1447 H1455 0.960 . S
C1448 C1446 1.381 1_554 S
C1448 C1449 1.394 . S
C1448 H1456 0.930 . S
C1449 C1448 1.394 . S
C1449 C1450 1.383 . S
C1449 H1457 0.929 . S
C1450 C1449 1.383 . S
C1450 C1451 1.377 1_554 S
C1451 H1435 0.930 . S
C1451 C1450 1.377 1_556 S
C1451 C1452 1.379 . S
C1452 H1436 0.931 . S
C1452 C1446 1.383 . S
C1452 C1451 1.379 . S
H1453 C1447 0.959 . S
H1454 C1447 0.961 . S
H1455 C1447 0.960 . S
H1456 C1448 0.930 . S
H1457 C1449 0.929 . S
H1458 C1466 0.929 . S
H1459 C1468 0.930 . S
H1460 C1470 0.930 . S
H1461 C1473 0.929 . S
H1462 C1476 0.930 . S
H1463 C1478 0.960 . S
H1464 C1478 0.960 . S
H1465 C1478 0.960 . S
C1466 H1458 0.929 . S
C1466 C1467 1.377 . S
C1466 C1468 1.384 . S
C1467 C1466 1.377 . S
C1467 C1473 1.390 . S
C1468 H1459 0.930 . S
C1468 C1466 1.384 . S
C1468 C1469 1.372 . S
C1469 C1468 1.372 . S
C1469 C1470 1.400 . S
C1469 C1474 1.490 . S
C1470 H1460 0.930 . S
C1470 C1469 1.400 . S
C1470 C1473 1.386 . S
H1471 C1487 0.930 . S
H1472 C1488 0.931 . S
C1473 H1461 0.929 . S
C1473 C1467 1.390 . S
C1473 C1470 1.386 . S
C1474 C1469 1.490 . S
C1474 C1476 1.395 . S
C1474 C1477 1.403 . S
H1475 C1481 0.930 . S
C1476 H1462 0.930 . S
C1476 C1474 1.395 . S
C1476 C1479 1.403 . S
C1477 C1474 1.403 . S
C1477 C1478 1.524 . S
C1477 C1481 1.400 . S
C1478 H1463 0.960 . S
C1478 H1464 0.960 . S
C1478 H1465 0.960 . S
C1478 C1477 1.524 . S
C1479 C1476 1.403 . S
C1479 C1480 1.392 . S
C1479 C1483 1.495 . S
C1480 C1479 1.392 . S
C1480 C1481 1.385 . S
C1480 C1482 1.478 . S
C1481 H1475 0.930 . S
C1481 C1477 1.400 . S
C1481 C1480 1.385 . S
C1482 C1480 1.478 . S
C1482 C1484 1.381 . S
C1482 C1488 1.383 . S
C1483 C1479 1.495 . S
C1483 H1489 0.959 . S
C1483 H1490 0.961 . S
C1483 H1491 0.960 . S
C1484 C1482 1.381 . S
C1484 C1485 1.394 . S
C1484 H1492 0.930 . S
C1485 C1484 1.394 . S
C1485 C1486 1.383 . S
C1485 H1493 0.929 . S
C1486 C1485 1.383 . S
C1486 C1487 1.377 . S
C1487 H1471 0.930 . S
C1487 C1486 1.377 . S
C1487 C1488 1.379 . S
C1488 H1472 0.931 . S
C1488 C1482 1.383 . S
C1488 C1487 1.379 . S
H1489 C1483 0.959 . S
H1490 C1483 0.961 . S
H1491 C1483 0.960 . S
H1492 C1484 0.930 . S
H1493 C1485 0.929 . S
H1494 C1502 0.929 . S
H1495 C1504 0.930 . S
H1496 C1506 0.930 . S
H1497 C1509 0.929 . S
H1498 C1512 0.980 . S
H1499 C1514 0.960 . S
H1500 C1514 0.960 . S
H1501 C1514 0.960 . S
C1502 H1494 0.929 . S
C1502 C1503 1.377 . S
C1502 C1504 1.384 . S
C1503 C1502 1.377 . S
C1503 C1509 1.390 . S
C1504 H1495 0.930 . S
C1504 C1502 1.384 . S
C1504 C1505 1.372 . S
C1505 C1504 1.372 . S
C1505 C1506 1.400 . S
C1505 C1510 1.490 1_565 S
C1506 H1496 0.930 . S
C1506 C1505 1.400 . S
C1506 C1509 1.386 . S
H1507 C1523 0.930 . S
H1508 C1524 0.931 . S
C1509 H1497 0.929 . S
C1509 C1503 1.390 . S
C1509 C1506 1.386 . S
C1510 C1505 1.490 1_545 S
C1510 C1512 1.395 . S
C1510 C1513 1.403 . S
H1511 C1517 0.930 . S
C1512 H1498 0.980 . S
C1512 C1510 1.395 . S
C1512 C1515 1.403 . S
C1513 C1510 1.403 . S
C1513 C1514 1.524 . S
C1513 C1517 1.400 . S
C1514 H1499 0.960 . S
C1514 H1500 0.960 . S
C1514 H1501 0.960 . S
C1514 C1513 1.524 . S
C1515 C1512 1.403 . S
C1515 C1516 1.392 . S
C1515 C1519 1.495 . S
C1516 C1515 1.392 . S
C1516 C1517 1.385 . S
C1516 C1518 1.478 . S
C1517 H1511 0.930 . S
C1517 C1513 1.400 . S
C1517 C1516 1.385 . S
C1518 C1516 1.478 . S
C1518 C1520 1.381 . S
C1518 C1524 1.383 . S
C1519 C1515 1.495 . S
C1519 H1525 0.959 . S
C1519 H1526 0.961 . S
C1519 H1527 0.960 . S
C1520 C1518 1.381 . S
C1520 C1521 1.394 . S
C1520 H1528 0.930 . S
C1521 C1520 1.394 . S
C1521 C1522 1.383 . S
C1521 H1529 0.929 . S
C1522 C1521 1.383 . S
C1522 C1523 1.377 . S
C1523 H1507 0.930 . S
C1523 C1522 1.377 . S
C1523 C1524 1.379 . S
C1524 H1508 0.931 . S
C1524 C1518 1.383 . S
C1524 C1523 1.379 . S
H1525 C1519 0.959 . S
H1526 C1519 0.961 . S
H1527 C1519 0.960 . S
H1528 C1520 0.930 . S
H1529 C1521 0.929 . S
H1530 C1538 0.929 . S
H1531 C1540 0.930 . S
H1532 C1542 0.930 . S
H1533 C1545 0.929 . S
H1534 C1548 0.930 . S
H1535 C1550 0.960 . S
H1536 C1550 0.960 . S
H1537 C1550 0.960 . S
C1538 H1530 0.929 . S
C1538 C1539 1.377 . S
C1538 C1540 1.384 . S
C1539 C1538 1.377 . S
C1539 C1545 1.390 . S
C1540 H1531 0.930 . S
C1540 C1538 1.384 . S
C1540 C1541 1.372 . S
C1541 C1540 1.372 . S
C1541 C1542 1.400 . S
C1541 C1546 1.490 . S
C1542 H1532 0.930 . S
C1542 C1541 1.400 . S
C1542 C1545 1.386 . S
H1543 C1559 0.930 . S
H1544 C1560 0.926 . S
C1545 H1533 0.929 . S
C1545 C1539 1.390 . S
C1545 C1542 1.386 . S
C1546 C1541 1.490 . S
C1546 C1548 1.395 . S
C1546 C1549 1.403 . S
H1547 C1553 0.930 . S
C1548 H1534 0.930 . S
C1548 C1546 1.395 . S
C1548 C1551 1.403 . S
C1549 C1546 1.403 . S
C1549 C1550 1.524 . S
C1549 C1553 1.400 . S
C1550 H1535 0.960 . S
C1550 H1536 0.960 . S
C1550 H1537 0.960 . S
C1550 C1549 1.524 . S
C1551 C1548 1.403 . S
C1551 C1552 1.392 . S
C1551 C1555 1.495 . S
C1552 C1551 1.392 . S
C1552 C1553 1.385 . S
C1552 C1554 1.478 . S
C1553 H1547 0.930 . S
C1553 C1549 1.400 . S
C1553 C1552 1.385 . S
C1554 C1552 1.478 . S
C1554 C1556 1.381 . S
C1554 C1560 1.476 . S
C1555 C1551 1.495 . S
C1555 H1561 0.959 . S
C1555 H1562 0.961 . S
C1555 H1563 0.960 . S
C1556 C1554 1.381 . S
C1556 C1557 1.394 1_455 S
C1556 H1564 0.930 . S
C1557 C1556 1.394 1_655 S
C1557 C1558 1.383 . S
C1557 H1565 0.929 . S
C1558 C1557 1.383 . S
C1558 C1559 1.377 . S
C1559 H1543 0.930 . S
C1559 C1558 1.377 . S
C1559 C1560 1.299 1_655 S
C1560 H1544 0.926 . S
C1560 C1554 1.476 . S
C1560 C1559 1.299 1_455 S
H1561 C1555 0.959 . S
H1562 C1555 0.961 . S
H1563 C1555 0.960 . S
H1564 C1556 0.930 . S
H1565 C1557 0.929 . S
H1566 C1574 0.929 . S
H1567 C1576 0.930 . S
H1568 C1578 0.930 . S
H1569 C1581 0.929 . S
H1570 C1584 0.930 . S
H1571 C1586 0.960 . S
H1572 C1586 0.960 . S
H1573 C1586 0.960 . S
C1574 H1566 0.929 . S
C1574 C1575 1.377 . S
C1574 C1576 1.384 . S
C1575 C1574 1.377 . S
C1575 C1581 1.390 . S
C1576 H1567 0.930 . S
C1576 C1574 1.384 . S
C1576 C1577 1.372 . S
C1577 C1576 1.372 . S
C1577 C1578 1.400 . S
C1577 C1582 1.490 . S
C1578 H1568 0.930 . S
C1578 C1577 1.400 . S
C1578 C1581 1.386 . S
H1579 C1595 0.930 . S
H1580 C1596 0.931 . S
C1581 H1569 0.929 . S
C1581 C1575 1.390 . S
C1581 C1578 1.386 . S
C1582 C1577 1.490 . S
C1582 C1584 1.395 . S
C1582 C1585 1.403 . S
H1583 C1589 0.930 . S
C1584 H1570 0.930 . S
C1584 C1582 1.395 . S
C1584 C1587 1.403 . S
C1585 C1582 1.403 . S
C1585 C1586 1.524 . S
C1585 C1589 1.400 . S
C1586 H1571 0.960 . S
C1586 H1572 0.960 . S
C1586 H1573 0.960 . S
C1586 C1585 1.524 . S
C1587 C1584 1.403 . S
C1587 C1588 1.392 . S
C1587 C1591 1.495 . S
C1588 C1587 1.392 . S
C1588 C1589 1.385 . S
C1588 C1590 1.478 . S
C1589 H1583 0.930 . S
C1589 C1585 1.400 . S
C1589 C1588 1.385 . S
C1590 C1588 1.478 . S
C1590 C1592 1.381 . S
C1590 C1596 1.383 . S
C1591 C1587 1.495 . S
C1591 H1597 0.959 . S
C1591 H1598 0.961 . S
C1591 H1599 0.960 . S
C1592 C1590 1.381 . S
C1592 C1593 1.394 . S
C1592 H1600 0.930 . S
C1593 C1592 1.394 . S
C1593 C1594 1.383 . S
C1593 H1601 0.929 . S
C1594 C1593 1.383 . S
C1594 C1595 1.377 . S
C1595 H1579 0.930 . S
C1595 C1594 1.377 . S
C1595 C1596 1.379 . S
C1596 H1580 0.931 . S
C1596 C1590 1.383 . S
C1596 C1595 1.379 . S
H1597 C1591 0.959 . S
H1598 C1591 0.961 . S
H1599 C1591 0.960 . S
H1600 C1592 0.930 . S
H1601 C1593 0.929 . S
H1602 C1610 0.929 . S
H1603 C1612 0.930 . S
H1604 C1614 0.930 . S
H1605 C1617 0.929 . S
H1606 C1620 0.930 . S
H1607 C1622 0.960 . S
H1608 C1622 0.960 . S
H1609 C1622 0.960 . S
C1610 H1602 0.929 . S
C1610 C1611 1.377 . S
C1610 C1612 1.384 1_655 S
C1611 C1610 1.377 . S
C1611 C1617 1.390 . S
C1612 H1603 0.930 . S
C1612 C1610 1.384 1_455 S
C1612 C1613 1.372 . S
C1613 C1612 1.372 . S
C1613 C1614 1.400 . S
C1613 C1618 1.490 . S
C1614 H1604 0.930 . S
C1614 C1613 1.400 . S
C1614 C1617 1.386 1_455 S
H1615 C1631 0.930 . S
H1616 C1632 0.931 . S
C1617 H1605 0.929 . S
C1617 C1611 1.390 . S
C1617 C1614 1.386 1_655 S
C1618 C1613 1.490 . S
C1618 C1620 1.395 . S
C1618 C1621 1.403 . S
H1619 C1625 0.930 . S
C1620 H1606 0.930 . S
C1620 C1618 1.395 . S
C1620 C1623 1.403 . S
C1621 C1618 1.403 . S
C1621 C1622 1.524 . S
C1621 C1625 1.400 . S
C1622 H1607 0.960 . S
C1622 H1608 0.960 . S
C1622 H1609 0.960 . S
C1622 C1621 1.524 . S
C1623 C1620 1.403 . S
C1623 C1624 1.392 . S
C1623 C1627 1.495 . S
C1624 C1623 1.392 . S
C1624 C1625 1.385 . S
C1624 C1626 1.478 . S
C1625 H1619 0.930 . S
C1625 C1621 1.400 . S
C1625 C1624 1.385 . S
C1626 C1624 1.478 . S
C1626 C1628 1.381 . S
C1626 C1632 1.383 . S
C1627 C1623 1.495 . S
C1627 H1633 0.959 . S
C1627 H1634 0.961 . S
C1627 H1635 0.960 . S
C1628 C1626 1.381 . S
C1628 C1629 1.394 . S
C1628 H1636 0.930 . S
C1629 C1628 1.394 . S
C1629 C1630 1.383 . S
C1629 H1637 0.929 . S
C1630 C1629 1.383 . S
C1630 C1631 1.377 . S
C1631 H1615 0.930 . S
C1631 C1630 1.377 . S
C1631 C1632 1.379 . S
C1632 H1616 0.931 . S
C1632 C1626 1.383 . S
C1632 C1631 1.379 . S
H1633 C1627 0.959 . S
H1634 C1627 0.961 . S
H1635 C1627 0.960 . S
H1636 C1628 0.930 . S
H1637 C1629 0.929 . S
H1638 C1646 0.929 . S
H1639 C1648 0.930 . S
H1640 C1650 0.930 . S
H1641 C1653 0.929 . S
H1642 C1656 0.930 . S
H1643 C1658 0.960 . S
H1644 C1658 0.960 . S
H1645 C1658 0.960 . S
C1646 H1638 0.929 . S
C1646 C1647 1.377 . S
C1646 C1648 1.384 . S
C1647 C1646 1.377 . S
C1647 C1653 1.390 . S
C1648 H1639 0.930 . S
C1648 C1646 1.384 . S
C1648 C1649 1.372 . S
C1649 C1648 1.372 . S
C1649 C1650 1.400 . S
C1649 C1654 1.490 . S
C1650 H1640 0.930 . S
C1650 C1649 1.400 . S
C1650 C1653 1.386 . S
H1651 C1667 0.930 . S
H1652 C1668 0.931 . S
C1653 H1641 0.929 . S
C1653 C1647 1.390 . S
C1653 C1650 1.386 . S
C1654 C1649 1.490 . S
C1654 C1656 1.395 . S
C1654 C1657 1.403 . S
H1655 C1661 0.930 . S
C1656 H1642 0.930 . S
C1656 C1654 1.395 . S
C1656 C1659 1.403 . S
C1657 C1654 1.403 . S
C1657 C1658 1.524 . S
C1657 C1661 1.400 . S
C1658 H1643 0.960 . S
C1658 H1644 0.960 . S
C1658 H1645 0.960 . S
C1658 C1657 1.524 . S
C1659 C1656 1.403 . S
C1659 C1660 1.392 . S
C1659 C1663 1.495 . S
C1660 C1659 1.392 . S
C1660 C1661 1.385 . S
C1660 C1662 1.478 . S
C1661 H1655 0.930 . S
C1661 C1657 1.400 . S
C1661 C1660 1.385 . S
C1662 C1660 1.478 . S
C1662 C1664 1.381 . S
C1662 C1668 1.383 . S
C1663 C1659 1.495 . S
C1663 H1669 0.959 . S
C1663 H1670 0.961 . S
C1663 H1671 0.960 . S
C1664 C1662 1.381 . S
C1664 C1665 1.394 . S
C1664 H1672 0.930 . S
C1665 C1664 1.394 . S
C1665 C1666 1.383 . S
C1665 H1673 0.929 . S
C1666 C1665 1.383 . S
C1666 C1667 1.377 . S
C1667 H1651 0.930 . S
C1667 C1666 1.377 . S
C1667 C1668 1.379 . S
C1668 H1652 0.931 . S
C1668 C1662 1.383 . S
C1668 C1667 1.379 . S
H1669 C1663 0.959 . S
H1670 C1663 0.961 . S
H1671 C1663 0.960 . S
H1672 C1664 0.930 . S
H1673 C1665 0.929 . S
H1674 C1682 0.929 . S
H1675 C1684 0.930 . S
H1676 C1686 0.938 1_545 S
H1677 C1689 0.929 . S
H1678 C1692 0.930 . S
H1679 C1694 0.960 . S
H1680 C1694 0.960 . S
H1681 C1694 0.960 . S
C1682 H1674 0.929 . S
C1682 C1683 1.377 . S
C1682 C1684 1.384 . S
C1683 C1682 1.377 . S
C1683 C1689 1.390 . S
C1684 H1675 0.930 . S
C1684 C1682 1.384 . S
C1684 C1685 1.372 . S
C1685 C1684 1.372 . S
C1685 C1686 1.400 . S
C1685 C1690 1.490 1_565 S
C1686 H1676 0.938 1_565 S
C1686 C1685 1.400 . S
C1686 C1689 1.386 . S
H1687 C1703 0.930 . S
H1688 C1704 0.931 . S
C1689 H1677 0.929 . S
C1689 C1683 1.390 . S
C1689 C1686 1.386 . S
C1690 C1685 1.490 1_545 S
C1690 C1692 1.395 . S
C1690 C1693 1.403 . S
H1691 C1697 0.930 . S
C1692 H1678 0.930 . S
C1692 C1690 1.395 . S
C1692 C1695 1.403 . S
C1693 C1690 1.403 . S
C1693 C1694 1.524 . S
C1693 C1697 1.400 . S
C1694 H1679 0.960 . S
C1694 H1680 0.960 . S
C1694 H1681 0.960 . S
C1694 C1693 1.524 . S
C1695 C1692 1.403 . S
C1695 C1696 1.392 . S
C1695 C1699 1.495 . S
C1696 C1695 1.392 . S
C1696 C1697 1.385 . S
C1696 C1698 1.478 . S
C1697 H1691 0.930 . S
C1697 C1693 1.400 . S
C1697 C1696 1.385 . S
C1698 C1696 1.478 . S
C1698 C1700 1.381 . S
C1698 C1704 1.383 . S
C1699 C1695 1.495 . S
C1699 H1705 0.959 . S
C1699 H1706 0.961 . S
C1699 H1707 0.960 . S
C1700 C1698 1.381 . S
C1700 C1701 1.394 . S
C1700 H1708 0.930 . S
C1701 C1700 1.394 . S
C1701 C1702 1.383 . S
C1701 H1709 0.929 . S
C1702 C1701 1.383 . S
C1702 C1703 1.377 . S
C1703 H1687 0.930 . S
C1703 C1702 1.377 . S
C1703 C1704 1.379 . S
C1704 H1688 0.931 . S
C1704 C1698 1.383 . S
C1704 C1703 1.379 . S
H1705 C1699 0.959 . S
H1706 C1699 0.961 . S
H1707 C1699 0.960 . S
H1708 C1700 0.930 . S
H1709 C1701 0.929 . S
C423 C85 1.663 . S
C442 C16 1.646 . S
C459 N94 1.647 . S
C478 N25 1.645 . S
C495 N48 1.641 . S
C514 N117 1.616 . S
C531 C62 1.792 . S
C550 C131 1.791 . S
C567 N2 1.753 . S
C586 N71 1.769 . S
C603 C108 1.794 . S
C622 C39 1.782 . S
C639 N209 1.842 . S
C658 C154 1.891 . S
C675 C177 1.885 . S
C694 N232 1.848 . S
C711 C200 1.836 . S
C730 N255 1.768 . S
C747 C269 1.652 . S
C766 N186 1.579 . S
C783 C223 1.624 1_556 S
C802 N140 1.583 . S
C819 C246 1.683 . S
C838 N163 1.621 . S
C855 C292 1.699 . S
C874 C361 1.699 . S
C891 N301 1.688 . S
C910 N370 1.685 . S
C927 N324 1.671 . S
C946 N393 1.678 . S
C963 C407 1.815 . S
C982 C338 1.825 . S
C999 N347 1.779 . S
C1018 N278 1.747 1_554 S
C1035 C384 1.814 . S
C1054 C315 1.819 . S
C1071 C7 1.570 . S
C1090 N173 1.527 . S
C1107 N35 1.548 . S
C1126 N196 1.547 . S
C1143 N150 1.538 . S
C1162 N58 1.537 . S
C1179 C53 1.653 . S
C1198 N311 1.646 . S
C1215 N334 1.624 . S
C1234 N12 1.638 . S
C1251 C283 1.616 . S
C1270 C30 1.609 . S
C1287 C375 1.615 . S
C1306 C76 1.605 . S
C1323 N104 1.624 . S
C1342 C398 1.637 . S
C1359 N357 1.625 . S
C1378 N127 1.609 . S
C1395 N242 1.633 . S
C1414 C122 1.652 . S
C1431 N81 1.619 . S
C1450 N265 1.635 . S
C1467 C99 1.670 . S
C1486 N219 1.640 . S
C1503 C145 1.715 . S
C1522 C306 1.701 . S
C1539 C168 1.707 . S
C1558 C329 1.696 . S
C1575 C191 1.709 . S
C1594 N288 1.696 . S
C1611 N380 1.608 . S
C1630 C260 1.621 . S
C1647 N403 1.606 . S
C1666 C214 1.603 . S
C1683 C237 1.606 . S
C1702 C352 1.618 . S
