# Generated by pormake.
# Topology snp, (6)-cn, num edge types: 1
# Building blocks:
#     Node 0, Type 0, BuildingBlock: JUFBIX_clean_sbu_0, # of connection points: 6
#     Node 1, Type 0, BuildingBlock: JUFBIX_clean_sbu_0, # of connection points: 6
#     Node 2, Type 0, BuildingBlock: JUFBIX_clean_sbu_0, # of connection points: 6
#     Node 3, Type 0, BuildingBlock: JUFBIX_clean_sbu_0, # of connection points: 6
#     Edge 4, Type (0, 0), BuildingBlock: KIFKEQ_clean_linker_1, # of connection points: 2
#     Edge 5, Type (0, 0), BuildingBlock: KIFKEQ_clean_linker_1, # of connection points: 2
#     Edge 6, Type (0, 0), BuildingBlock: KIFKEQ_clean_linker_1, # of connection points: 2
#     Edge 7, Type (0, 0), BuildingBlock: KIFKEQ_clean_linker_1, # of connection points: 2
#     Edge 8, Type (0, 0), BuildingBlock: KIFKEQ_clean_linker_1, # of connection points: 2
#     Edge 9, Type (0, 0), BuildingBlock: KIFKEQ_clean_linker_1, # of connection points: 2
#     Edge 10, Type (0, 0), BuildingBlock: KIFKEQ_clean_linker_1, # of connection points: 2
#     Edge 11, Type (0, 0), BuildingBlock: KIFKEQ_clean_linker_1, # of connection points: 2
#     Edge 12, Type (0, 0), BuildingBlock: KIFKEQ_clean_linker_1, # of connection points: 2
#     Edge 13, Type (0, 0), BuildingBlock: KIFKEQ_clean_linker_1, # of connection points: 2
#     Edge 14, Type (0, 0), BuildingBlock: KIFKEQ_clean_linker_1, # of connection points: 2
#     Edge 15, Type (0, 0), BuildingBlock: KIFKEQ_clean_linker_1, # of connection points: 2
# Relax obj value: 0.716
# Max RMSD: 0.268
# Mean RMSD: 0.265
data_MOF--net-snp--node1-JUFBIX_clean_sbu_0--edge1-KIFKEQ_clean_linker_1
_symmetry_space_group_name_H-M    P1
_symmetry_Int_Tables_number       1
_symmetry_cell_setting            triclinic
loop_
_symmetry_equiv_pos_as_xyz
'x, y, z'
_cell_length_a     27.763846
_cell_length_b     27.284402
_cell_length_c     27.650769
_cell_angle_alpha  88.000114
_cell_angle_beta   97.018191
_cell_angle_gamma 98.421772
loop_
_atom_site_label
_atom_site_type_symbol
_atom_site_fract_x
_atom_site_fract_y
_atom_site_fract_z
_atom_type_partial_charge
Co0 Co 0.24837 0.07346 0.09525 0.0
C1 C 0.32896 0.04577 0.06298 0.0
Co2 Co 0.22983 0.0134 0.04164 0.0
C3 C 0.2418 0.12823 0.18089 0.0
C4 C 0.29438 0.16611 0.13701 0.0
N5 N 0.26188 0.12452 0.13938 0.0
N6 N 0.26046 0.17051 0.20473 0.0
C7 C 0.29366 0.19439 0.17706 0.0
H8 H 0.21364 0.10045 0.19297 0.0
H9 H 0.31732 0.17516 0.1081 0.0
C10 C 0.14993 0.03782 0.07579 0.0
N11 N 0.21742 0.96178 0.99705 0.0
C12 C 0.18965 0.95778 0.95313 0.0
C13 C 0.23927 0.92059 1.00147 0.0
N14 N 0.1939 0.91595 0.9299 0.0
C15 C 0.22502 0.89253 0.96049 0.0
C16 C 0.23846 0.98121 0.13972 0.0
O17 O 0.18119 0.06834 0.10098 0.0
O18 O 0.16323 0.01307 0.04306 0.0
O19 O 0.22841 0.96619 0.09593 0.0
O20 O 0.25328 0.02694 0.14693 0.0
O21 O 0.29715 0.01363 0.04076 0.0
H22 H 0.26487 0.91198 0.03222 0.0
H23 H 0.16798 -0.01426 0.93787 0.0
O24 O 0.31558 0.07713 0.08942 0.0
O25 O 0.24223 0.11986 0.04412 0.0
O26 O 0.2298 0.06159 0.98942 0.0
C27 C 0.23483 0.10734 0.99982 0.0
H28 H 0.31648 0.22942 0.18536 0.0
H29 H 0.23663 0.85745 0.95381 0.0
Co30 Co 0.02032 0.24868 0.66965 0.0
C31 C 0.02869 0.33801 0.62069 0.0
Co32 Co 0.08431 0.2619 0.62786 0.0
C33 C 0.96829 0.21481 0.75133 0.0
C34 C 0.92312 0.25014 0.69663 0.0
N35 N 0.96853 0.23772 0.70722 0.0
N36 N 0.92459 0.21231 0.76874 0.0
C37 C 0.89609 0.23469 0.7344 0.0
H38 H -0.00021 0.20037 0.77041 0.0
H39 H 0.91034 0.26871 0.66334 0.0
C40 C 0.07571 0.17236 0.67637 0.0
N41 N 0.13668 0.2715 0.5907 0.0
C42 C 0.13435 0.27035 0.54165 0.0
C43 C 0.18485 0.27356 0.6067 0.0
N44 N 0.17877 0.27053 0.52651 0.0
C45 C 0.21077 0.27313 0.56737 0.0
C46 C 0.10739 0.29134 0.72264 0.0
O47 O 0.03783 0.18678 0.68919 0.0
O48 O 0.1016 0.19987 0.64856 0.0
O49 O 0.12483 0.29077 0.68232 0.0
O50 O 0.06187 0.27717 0.72407 0.0
O51 O 0.06665 0.32412 0.60719 0.0
H52 H 0.2 0.27231 0.64455 0.0
H53 H 0.10047 0.2674 0.51738 0.0
O54 O 0.00355 0.3107 0.64934 0.0
O55 O -0.02114 0.2191 0.61467 0.0
O56 O 0.04269 0.23136 0.57414 0.0
C57 C -0.00234 0.21493 0.57557 0.0
H58 H 0.85801 0.23843 0.73582 0.0
H59 H 0.24962 0.27131 0.56897 0.0
Co60 Co 0.76531 -0.0031 0.14564 0.0
C61 C 0.83518 0.93503 0.14761 0.0
Co62 Co 0.74608 0.93573 0.0931 0.0
C63 C 0.80468 0.04549 0.23682 0.0
C64 C 0.77246 0.09444 0.18441 0.0
N65 N 0.78165 0.04734 0.19089 0.0
N66 N 0.80996 0.08953 0.2593 0.0
C67 C 0.78964 0.12035 0.22632 0.0
H68 H 0.81688 0.0123 0.25357 0.0
H69 H 0.75458 0.10909 0.15121 0.0
C70 C 0.67559 -0.00286 0.0926 0.0
N71 N 0.73024 0.88566 0.04796 0.0
C72 C 0.75834 0.8742 1.01467 0.0
C73 C 0.68766 0.85492 0.03899 0.0
N74 N 0.73493 0.83789 0.98475 0.0
C75 C 0.69041 0.82552 1.0002 0.0
C76 C 0.71957 0.90921 0.18386 0.0
O77 O 0.70534 0.01883 0.12624 0.0
O78 O 0.68603 0.95927 0.0729 0.0
O79 O 0.71739 0.89407 0.14063 0.0
O80 O 0.73684 0.95413 0.1933 0.0
O81 O 0.806 0.91265 0.11384 0.0
H82 H 0.65618 0.85488 0.05851 0.0
H83 H 0.79517 0.89281 1.01219 0.0
O84 O 0.82481 0.97407 0.16502 0.0
O85 O 0.79473 0.0392 0.09686 0.0
O86 O 0.77598 0.97758 0.04601 0.0
C87 C 0.79546 0.0219 0.05481 0.0
H88 H 0.78819 0.15919 0.23169 0.0
H89 H 0.6611 0.79861 0.98353 0.0
Co90 Co 0.91975 0.7617 0.56112 0.0
C91 C 0.95771 0.85943 0.54488 0.0
Co92 Co -0.01829 0.7737 0.51599 0.0
C93 C 0.86827 0.74738 0.64758 0.0
C94 C 0.82181 0.76631 0.58443 0.0
N95 N 0.8675 0.7559 0.59898 0.0
N96 N 0.82531 0.75259 0.66373 0.0
C97 C 0.7959 0.76407 0.62388 0.0
H98 H 0.9002 0.73919 0.67115 0.0
H99 H 0.80871 0.77789 0.54808 0.0
C100 C 0.94702 0.67513 0.53745 0.0
N101 N 0.03383 0.78025 0.47798 0.0
C102 C 0.04198 0.80928 0.43813 0.0
C103 C 0.07137 0.75353 0.48425 0.0
N104 N 0.08285 0.8012 0.41913 0.0
C105 C 0.10131 0.76614 0.44828 0.0
C106 C 0.01082 0.77463 0.61668 0.0
O107 O 0.91693 0.69297 0.56051 0.0
O108 O -0.02215 0.70396 0.51549 0.0
O109 O 0.02741 0.77748 0.57544 0.0
O110 O 0.96488 0.76511 0.6178 0.0
O111 O -0.01484 0.84238 0.51809 0.0
H112 H 0.07641 0.72615 0.51297 0.0
H113 H 0.01778 0.83499 0.42275 0.0
O114 O 0.92384 0.83052 0.56249 0.0
O115 O 0.87573 0.75929 0.50396 0.0
O116 O 0.93562 0.77148 0.45816 0.0
C117 C 0.88985 0.7649 0.46201 0.0
H118 H 0.75939 0.77366 0.62369 0.0
H119 H 0.13445 0.75095 0.4442 0.0
H120 H 0.90338 0.97257 0.22081 0.0
H121 H 0.87803 0.86652 0.10462 0.0
H122 H -0.00983 -0.01702 0.21498 0.0
H123 H 0.96588 0.87499 0.1005 0.0
H124 H 0.13822 0.02526 0.17081 0.0
H125 H 0.07124 0.97331 0.2048 0.0
H126 H -0.00508 0.95073 0.05931 0.0
H127 H 0.06348 5e-05 0.0255 0.0
C128 C 0.91668 0.94959 0.19565 0.0
C129 C 0.88425 0.92161 0.16064 0.0
C130 C 0.96671 0.95514 0.19264 0.0
C131 C -0.01585 0.93219 0.15494 0.0
C132 C 0.95268 0.89502 0.12815 0.0
C133 C 0.90245 0.89006 0.13061 0.0
C134 C 0.10652 0.00995 0.1463 0.0
C135 C 0.10488 0.0177 0.09565 0.0
C136 C 0.06876 0.97941 0.1657 0.0
C137 C 0.02822 0.95716 0.13481 0.0
C138 C 0.02639 0.96587 0.08412 0.0
C139 C 0.06472 -0.0046 0.0647 0.0
H140 H 0.00804 0.94414 0.51051 0.0
H141 H 0.95768 0.8724 0.64067 0.0
H142 H 0.05507 0.01112 0.55985 0.0
H143 H 0.00764 0.93634 0.69025 0.0
H144 H 0.02424 0.10324 0.73056 0.0
H145 H 0.00433 0.01781 0.70743 0.0
H146 H 0.12362 0.03623 0.61823 0.0
H147 H 0.14184 0.12325 0.63951 0.0
C148 C 0.00668 0.94319 0.54954 0.0
C149 C -0.02208 0.90442 0.57155 0.0
C150 C 0.03475 0.98051 0.57808 0.0
C151 C 0.03569 0.97866 0.62923 0.0
C152 C 0.00728 0.93929 0.65105 0.0
C153 C -0.02198 0.90308 0.62245 0.0
C154 C 0.04751 0.08865 0.70753 0.0
C155 C 0.08225 0.12027 0.68405 0.0
C156 C 0.03623 0.03932 0.69433 0.0
C157 C 0.06055 0.02126 0.65849 0.0
C158 C 0.10261 0.05019 0.64388 0.0
C159 C 0.1134 0.09986 0.65651 0.0
H160 H 0.63342 0.05982 0.14244 0.0
H161 H 0.61169 0.97403 1.011 0.0
H162 H 0.55082 0.0797 0.12578 0.0
H163 H 0.52933 -0.0039 0.99279 0.0
H164 H 0.40393 0.12126 0.08301 0.0
H165 H 0.49084 0.11953 0.07814 0.0
H166 H 0.45683 0.96832 0.02848 0.0
H167 H 0.37044 0.97105 0.03108 0.0
C168 C 0.61128 0.04621 0.10931 0.0
C169 C 0.62835 0.01451 0.07852 0.0
C170 C 0.56406 0.05807 0.09945 0.0
C171 C 0.53335 0.03904 0.0582 0.0
C172 C 0.55185 0.01037 0.02545 0.0
C173 C 0.5989 -0.0022 0.03578 0.0
C174 C 0.41525 0.08795 0.0706 0.0
C175 C 0.38085 0.04606 0.05807 0.0
C176 C 0.46484 0.08694 0.06776 0.0
C177 C 0.48071 0.04372 0.05316 0.0
C178 C 0.44585 0.00254 0.03898 0.0
C179 C 0.39635 0.00384 0.04106 0.0
H180 H 0.08346 0.41697 0.58153 0.0
H181 H 0.93732 0.36313 0.61664 0.0
H182 H 0.05708 0.49544 0.55352 0.0
H183 H 0.91021 0.44055 0.5865 0.0
H184 H 0.90608 0.60756 0.60046 0.0
H185 H 0.92179 0.52282 0.61425 0.0
H186 H 0.00822 0.53686 0.49315 0.0
H187 H -0.00581 0.62275 0.48078 0.0
C188 C 0.04556 0.42179 0.58262 0.0
C189 C 0.0126 0.38454 0.6019 0.0
C190 C 0.03026 0.46646 0.5661 0.0
C191 C -0.01848 0.47422 0.56788 0.0
C192 C 0.94819 0.43604 0.58551 0.0
C193 C 0.9637 0.39175 0.60275 0.0
C194 C 0.92772 0.59229 0.57625 0.0
C195 C 0.94949 0.62178 0.54001 0.0
C196 C 0.93654 0.54359 0.58396 0.0
C197 C 0.96671 0.5233 0.55509 0.0
C198 C -0.01426 0.55187 0.51668 0.0
C199 C -0.02253 0.60086 0.5094 0.0
H200 H 0.11858 0.21529 0.45805 0.0
H201 H 0.26195 0.30195 0.48584 0.0
H202 H 0.1376 0.19318 0.37866 0.0
H203 H 0.28137 0.27906 0.40637 0.0
H204 H 0.27578 0.26435 0.23947 0.0
H205 H 0.25534 0.29109 0.3166 0.0
H206 H 0.19522 0.14062 0.35054 0.0
H207 H 0.21651 0.11341 0.27414 0.0
C208 C 0.15391 0.23024 0.44694 0.0
C209 C 0.18877 0.26053 0.47819 0.0
C210 C 0.165 0.21706 0.40168 0.0
C211 C 0.21105 0.23414 0.38647 0.0
C212 C 0.24547 0.26555 0.41707 0.0
C213 C 0.23452 0.27839 0.4626 0.0
C214 C 0.25868 0.23674 0.26343 0.0
C215 C 0.24787 0.18659 0.25023 0.0
C216 C 0.24686 0.2522 0.30763 0.0
C217 C 0.22355 0.21799 0.33947 0.0
C218 C 0.21252 0.16797 0.32635 0.0
C219 C 0.22469 0.15241 0.28239 0.0
H220 H 0.85669 0.2361 0.82311 0.0
H221 H 0.96015 0.13373 0.81536 0.0
H222 H 0.82912 0.19213 0.8956 0.0
H223 H 0.93318 0.09035 0.88813 0.0
H224 H 0.82083 -0.01103 0.97108 0.0
H225 H 0.85574 0.03751 0.90508 0.0
H226 H 0.8575 0.17186 0.9837 0.0
H227 H 0.82234 0.12296 0.05042 0.0
C228 C 0.87368 0.20437 0.83699 0.0
C229 C 0.91042 0.18828 0.81325 0.0
C230 C 0.85826 0.17952 0.8788 0.0
C231 C 0.87887 0.13769 0.8975 0.0
C232 C 0.91632 0.12223 0.87437 0.0
C233 C 0.93205 0.14734 0.83288 0.0
C234 C 0.82878 0.02886 0.97454 0.0
C235 C 0.8186 0.05214 1.01598 0.0
C236 C 0.84915 0.05665 0.93678 0.0
C237 C 0.85946 0.10851 0.93917 0.0
C238 C 0.84966 0.13194 0.98073 0.0
C239 C 0.82976 0.10397 0.01898 0.0
H240 H 0.90449 0.7751 0.36561 0.0
H241 H 0.79152 0.76414 0.46179 0.0
H242 H 0.84513 0.79529 0.29767 0.0
H243 H 0.73313 0.78568 0.39424 0.0
H244 H 0.72464 0.81056 0.17998 0.0
H245 H 0.75615 0.76063 0.2481 0.0
H246 H 0.74312 0.87493 0.34766 0.0
H247 H 0.71301 0.92587 0.27952 0.0
C248 C 0.86693 0.77601 0.3721 0.0
C249 C 0.853 0.7688 0.41923 0.0
C250 C 0.83293 0.78724 0.33323 0.0
C251 C 0.78474 0.79203 0.34106 0.0
C252 C 0.77008 0.78214 0.38748 0.0
C253 C 0.80373 0.77004 0.42608 0.0
C254 C 0.72638 0.82427 0.21655 0.0
C255 C 0.71729 0.87265 0.22437 0.0
C256 C 0.7448 0.79572 0.25541 0.0
C257 C 0.7528 0.81449 0.30267 0.0
C258 C 0.73729 0.85979 0.31135 0.0
C259 C 0.71989 0.88886 0.27239 0.0
H260 H -0.01681 0.7741 0.70788 0.0
H261 H 0.10919 0.81335 0.62952 0.0
H262 H 0.02922 0.8116 0.78076 0.0
H263 H 0.15585 0.85081 0.70365 0.0
H264 H 0.23072 0.86178 0.86664 0.0
H265 H 0.18928 0.8272 0.78966 0.0
H266 H 0.06343 0.89775 0.80778 0.0
H267 H 0.10479 0.93192 0.88521 0.0
C268 C 0.02101 0.79009 0.70623 0.0
C269 C 0.04242 0.79041 0.66255 0.0
C270 C 0.04726 0.81217 0.7481 0.0
C271 C 0.09597 0.83486 0.74791 0.0
C272 C 0.11831 0.8336 0.70494 0.0
C273 C 0.0917 0.81187 0.66257 0.0
C274 C 0.19421 0.86995 0.85421 0.0
C275 C 0.17082 0.89916 0.88244 0.0
C276 C 0.17068 0.85051 0.80983 0.0
C277 C 0.1229 0.8593 0.79277 0.0
C278 C 0.10003 0.88974 0.82024 0.0
C279 C 0.12382 0.90967 0.8644 0.0
H280 H 0.8055 0.88456 0.93236 0.0
H281 H 0.70316 0.74976 0.94031 0.0
H282 H 0.8305 0.85631 0.85828 0.0
H283 H 0.72803 0.72172 0.86553 0.0
H284 H 0.7372 0.7313 0.69762 0.0
H285 H 0.71824 0.74673 0.77905 0.0
H286 H 0.87199 0.79408 0.82458 0.0
H287 H 0.89071 0.78001 0.74272 0.0
C288 C 0.78887 0.84849 0.91895 0.0
C289 C 0.75205 0.81959 0.94247 0.0
C290 C 0.8033 0.83226 0.87631 0.0
C291 C 0.78123 0.78677 0.85595 0.0
C292 C 0.7453 0.75724 0.87999 0.0
C293 C 0.73097 0.7734 0.92281 0.0
C294 C 0.76696 0.74462 0.72514 0.0
C295 C 0.81535 0.75481 0.71352 0.0
C296 C 0.75619 0.75303 0.77194 0.0
C297 C 0.79358 0.772 0.80821 0.0
C298 C 0.84229 0.78004 0.79725 0.0
C299 C 0.85309 0.77142 0.75045 0.0
H300 H 0.24565 0.00725 0.23503 0.0
H301 H 0.19261 0.88434 0.13909 0.0
H302 H 0.20603 0.96257 0.30046 0.0
H303 H 0.1532 0.83924 0.20541 0.0
H304 H 0.13332 0.76013 0.35704 0.0
H305 H 0.17302 0.80088 0.28917 0.0
H306 H 0.11857 0.9362 0.31695 0.0
H307 H 0.07905 0.89539 0.3852 0.0
C308 C 0.22642 0.97023 0.22803 0.0
C309 C 0.22273 0.94938 0.18156 0.0
C310 C 0.2031 0.94487 0.26555 0.0
C311 C 0.17586 0.89761 0.25806 0.0
C312 C 0.17397 0.8756 0.2124 0.0
C313 C 0.19686 0.90132 0.17446 0.0
C314 C 0.12981 0.79859 0.34871 0.0
C315 C 0.10331 0.82461 0.3769 0.0
C316 C 0.15225 0.82181 0.30952 0.0
C317 C 0.14938 0.87191 0.29784 0.0
C318 C 0.12204 0.89772 0.32538 0.0
C319 C 0.09901 0.87426 0.36421 0.0
H320 H 0.20534 0.28486 0.73406 0.0
H321 H 0.08425 0.29713 0.8153 0.0
H322 H 0.24862 0.24978 0.80591 0.0
H323 H 0.12823 0.26299 0.88732 0.0
H324 H 0.22516 0.20379 1.01251 0.0
H325 H 0.20722 0.26581 0.94981 0.0
H326 H 0.2142 0.16103 0.83837 0.0
H327 H 0.23145 0.09841 0.90102 0.0
C328 C 0.18886 0.28234 0.76774 0.0
C329 C 0.14071 0.29249 0.76863 0.0
C330 C 0.2136 0.26184 0.80875 0.0
C331 C 0.19113 0.25258 0.85154 0.0
C332 C 0.14622 0.26953 0.85458 0.0
C333 C 0.12109 0.28926 0.81334 0.0
C334 C 0.2236 0.19409 0.97463 0.0
C335 C 0.22927 0.14598 0.96161 0.0
C336 C 0.21343 0.22972 0.93889 0.0
C337 C 0.20965 0.21825 0.88947 0.0
C338 C 0.21768 0.17099 0.87636 0.0
C339 C 0.22709 0.13503 0.91213 0.0
H340 H 0.78833 0.15802 0.3186 0.0
H341 H 0.88545 0.04962 0.30973 0.0
H342 H 0.83202 0.18389 0.3976 0.0
H343 H 0.92882 0.07498 0.38932 0.0
H344 H 0.03118 0.18569 0.49409 0.0
H345 H -0.01645 0.15054 0.42041 0.0
H346 H 0.84969 0.15537 0.48376 0.0
H347 H 0.89755 0.19089 0.55789 0.0
C348 C 0.81889 0.13956 0.33364 0.0
C349 C 0.83364 0.10204 0.30764 0.0
C350 C 0.84361 0.15402 0.37918 0.0
C351 C 0.884 0.13162 0.39973 0.0
C352 C 0.89809 0.09327 0.37428 0.0
C353 C 0.87301 0.07845 0.32887 0.0
C354 C -0.00842 0.17913 0.49251 0.0
C355 C 0.96815 0.19146 0.53181 0.0
C356 C 0.96429 0.15856 0.45034 0.0
C357 C 0.91281 0.15016 0.44616 0.0
C358 C 0.88931 0.16179 0.48572 0.0
C359 C 0.9167 0.18194 0.52823 0.0
loop_
_geom_bond_atom_site_label_1
_geom_bond_atom_site_label_2
_geom_bond_distance
_geom_bond_site_symmetry_2
_ccdc_geom_bond_type
Co0 N5 2.057 . S
Co0 O17 2.021 . S
Co0 O20 2.062 . S
Co0 O24 2.117 . S
Co0 O25 2.020 . S
C1 O21 1.259 . S
C1 O24 1.258 . S
Co2 N11 2.057 1_544 S
Co2 O18 2.117 . S
Co2 O19 2.020 1_545 S
Co2 O21 2.021 . S
Co2 O26 2.062 1_554 S
C3 N5 1.316 . S
C3 N6 1.347 . S
C3 H8 0.931 . S
C4 N5 1.375 . S
C4 C7 1.350 . S
C4 H9 0.930 . S
N5 Co0 2.057 . S
N5 C3 1.316 . S
N5 C4 1.375 . S
N6 C3 1.347 . S
N6 C7 1.373 . S
C7 C4 1.350 . S
C7 N6 1.373 . S
C7 H28 0.931 . S
H8 C3 0.931 . S
H9 C4 0.930 . S
C10 O17 1.259 . S
C10 O18 1.258 . S
N11 Co2 2.057 1_566 S
N11 C12 1.316 . S
N11 C13 1.375 . S
C12 N11 1.316 . S
C12 N14 1.347 . S
C12 H23 0.931 . S
C13 N11 1.375 . S
C13 C15 1.350 . S
C13 H22 0.930 . S
N14 C12 1.347 . S
N14 C15 1.373 . S
C15 C13 1.350 . S
C15 N14 1.373 . S
C15 H29 0.931 . S
C16 O19 1.256 . S
C16 O20 1.255 1_565 S
O17 Co0 2.021 . S
O17 C10 1.259 . S
O18 Co2 2.117 . S
O18 C10 1.258 . S
O19 Co2 2.020 1_565 S
O19 C16 1.256 . S
O20 Co0 2.062 . S
O20 C16 1.255 1_545 S
O21 C1 1.259 . S
O21 Co2 2.021 . S
H22 C13 0.930 . S
H23 C12 0.931 . S
O24 Co0 2.117 . S
O24 C1 1.258 . S
O25 Co0 2.020 . S
O25 C27 1.256 1_554 S
O26 Co2 2.062 1_556 S
O26 C27 1.255 . S
C27 O25 1.256 1_556 S
C27 O26 1.255 . S
H28 C7 0.931 . S
H29 C15 0.931 . S
Co30 N35 2.057 1_455 S
Co30 O47 2.021 . S
Co30 O50 2.062 . S
Co30 O54 2.117 . S
Co30 O55 2.020 1_455 S
C31 O51 1.259 . S
C31 O54 1.258 . S
Co32 N41 2.057 . S
Co32 O48 2.117 . S
Co32 O49 2.020 . S
Co32 O51 2.021 . S
Co32 O56 2.062 . S
C33 N35 1.316 . S
C33 N36 1.347 . S
C33 H38 0.931 . S
C34 N35 1.375 . S
C34 C37 1.350 . S
C34 H39 0.930 . S
N35 Co30 2.057 1_655 S
N35 C33 1.316 . S
N35 C34 1.375 . S
N36 C33 1.347 . S
N36 C37 1.373 . S
C37 C34 1.350 . S
C37 N36 1.373 . S
C37 H58 0.931 . S
H38 C33 0.931 . S
H39 C34 0.930 . S
C40 O47 1.259 . S
C40 O48 1.258 . S
N41 Co32 2.057 . S
N41 C42 1.316 . S
N41 C43 1.375 . S
C42 N41 1.316 . S
C42 N44 1.347 . S
C42 H53 0.931 . S
C43 N41 1.375 . S
C43 C45 1.350 . S
C43 H52 0.930 . S
N44 C42 1.347 . S
N44 C45 1.373 . S
C45 C43 1.350 . S
C45 N44 1.373 . S
C45 H59 0.931 . S
C46 O49 1.256 . S
C46 O50 1.255 . S
O47 Co30 2.021 . S
O47 C40 1.259 . S
O48 Co32 2.117 . S
O48 C40 1.258 . S
O49 Co32 2.020 . S
O49 C46 1.256 . S
O50 Co30 2.062 . S
O50 C46 1.255 . S
O51 C31 1.259 . S
O51 Co32 2.021 . S
H52 C43 0.930 . S
H53 C42 0.931 . S
O54 Co30 2.117 . S
O54 C31 1.258 . S
O55 Co30 2.020 1_655 S
O55 C57 1.256 . S
O56 Co32 2.062 . S
O56 C57 1.255 1_455 S
C57 O55 1.256 . S
C57 O56 1.255 1_655 S
H58 C37 0.931 . S
H59 C45 0.931 . S
Co60 N65 2.057 . S
Co60 O77 2.021 . S
Co60 O80 2.062 1_545 S
Co60 O84 2.117 . S
Co60 O85 2.020 . S
C61 O81 1.259 . S
C61 O84 1.258 1_565 S
Co62 N71 2.057 . S
Co62 O78 2.117 . S
Co62 O79 2.020 . S
Co62 O81 2.021 . S
Co62 O86 2.062 1_565 S
C63 N65 1.316 . S
C63 N66 1.347 . S
C63 H68 0.931 . S
C64 N65 1.375 . S
C64 C67 1.350 . S
C64 H69 0.930 . S
N65 Co60 2.057 . S
N65 C63 1.316 . S
N65 C64 1.375 . S
N66 C63 1.347 . S
N66 C67 1.373 . S
C67 C64 1.350 . S
C67 N66 1.373 . S
C67 H88 0.931 . S
H68 C63 0.931 . S
H69 C64 0.930 . S
C70 O77 1.259 . S
C70 O78 1.258 1_545 S
N71 Co62 2.057 . S
N71 C72 1.316 1_554 S
N71 C73 1.375 1_554 S
C72 N71 1.316 1_556 S
C72 N74 1.347 . S
C72 H83 0.931 . S
C73 N71 1.375 1_556 S
C73 C75 1.350 . S
C73 H82 0.930 1_556 S
N74 C72 1.347 . S
N74 C75 1.373 . S
C75 C73 1.350 . S
C75 N74 1.373 . S
C75 H89 0.931 . S
C76 O79 1.256 . S
C76 O80 1.255 . S
O77 Co60 2.021 . S
O77 C70 1.259 . S
O78 Co62 2.117 . S
O78 C70 1.258 1_565 S
O79 Co62 2.020 . S
O79 C76 1.256 . S
O80 Co60 2.062 1_565 S
O80 C76 1.255 . S
O81 C61 1.259 . S
O81 Co62 2.021 . S
H82 C73 0.930 1_554 S
H83 C72 0.931 . S
O84 Co60 2.117 . S
O84 C61 1.258 1_545 S
O85 Co60 2.020 . S
O85 C87 1.256 . S
O86 Co62 2.062 1_545 S
O86 C87 1.255 . S
C87 O85 1.256 . S
C87 O86 1.255 . S
H88 C67 0.931 . S
H89 C75 0.931 . S
Co90 N95 2.057 . S
Co90 O107 2.021 . S
Co90 O110 2.062 1_655 S
Co90 O114 2.117 . S
Co90 O115 2.020 . S
C91 O111 1.259 . S
C91 O114 1.258 1_455 S
Co92 N101 2.057 . S
Co92 O108 2.117 . S
Co92 O109 2.020 . S
Co92 O111 2.021 . S
Co92 O116 2.062 1_455 S
C93 N95 1.316 . S
C93 N96 1.347 . S
C93 H98 0.931 . S
C94 N95 1.375 . S
C94 C97 1.350 . S
C94 H99 0.930 . S
N95 Co90 2.057 . S
N95 C93 1.316 . S
N95 C94 1.375 . S
N96 C93 1.347 . S
N96 C97 1.373 . S
C97 C94 1.350 . S
C97 N96 1.373 . S
C97 H118 0.931 . S
H98 C93 0.931 . S
H99 C94 0.930 . S
C100 O107 1.259 . S
C100 O108 1.258 1_655 S
N101 Co92 2.057 . S
N101 C102 1.316 . S
N101 C103 1.375 . S
C102 N101 1.316 . S
C102 N104 1.347 . S
C102 H113 0.931 . S
C103 N101 1.375 . S
C103 C105 1.350 . S
C103 H112 0.930 . S
N104 C102 1.347 . S
N104 C105 1.373 . S
C105 C103 1.350 . S
C105 N104 1.373 . S
C105 H119 0.931 . S
C106 O109 1.256 . S
C106 O110 1.255 . S
O107 Co90 2.021 . S
O107 C100 1.259 . S
O108 Co92 2.117 . S
O108 C100 1.258 1_455 S
O109 Co92 2.020 . S
O109 C106 1.256 . S
O110 Co90 2.062 1_455 S
O110 C106 1.255 . S
O111 C91 1.259 . S
O111 Co92 2.021 . S
H112 C103 0.930 . S
H113 C102 0.931 . S
O114 Co90 2.117 . S
O114 C91 1.258 1_655 S
O115 Co90 2.020 . S
O115 C117 1.256 . S
O116 Co92 2.062 1_655 S
O116 C117 1.255 . S
C117 O115 1.256 . S
C117 O116 1.255 . S
H118 C97 0.931 . S
H119 C105 0.931 . S
H120 C128 0.950 . S
H121 C133 0.950 . S
H122 C130 0.950 . S
H123 C132 0.950 1_455 S
H124 C134 0.950 1_565 S
H125 C136 0.950 1_565 S
H126 C138 0.950 . S
H127 C139 0.950 . S
C128 H120 0.950 . S
C128 C129 1.386 . S
C128 C130 1.391 . S
C129 C128 1.386 . S
C129 C133 1.393 1_545 S
C130 H122 0.950 . S
C130 C128 1.391 . S
C130 C131 1.412 . S
C131 C130 1.412 . S
C131 C132 1.403 1_545 S
C131 C137 1.474 1_655 S
C132 H123 0.950 1_655 S
C132 C131 1.403 1_565 S
C132 C133 1.391 . S
C133 H121 0.950 . S
C133 C129 1.393 1_565 S
C133 C132 1.391 . S
C134 H124 0.950 1_545 S
C134 C135 1.386 . S
C134 C136 1.391 . S
C135 C134 1.386 . S
C135 C139 1.393 . S
C136 H125 0.950 1_545 S
C136 C134 1.391 . S
C136 C137 1.400 . S
C137 C131 1.474 1_455 S
C137 C136 1.400 . S
C137 C138 1.398 . S
C138 H126 0.950 . S
C138 C137 1.398 . S
C138 C139 1.391 . S
C139 H127 0.950 . S
C139 C135 1.393 . S
C139 C138 1.391 . S
H140 C148 0.950 . S
H141 C153 0.950 . S
H142 C150 0.950 . S
H143 C152 0.950 . S
H144 C154 0.950 1_655 S
H145 C156 0.950 . S
H146 C158 0.950 . S
H147 C159 0.950 . S
C148 H140 0.950 . S
C148 C149 1.385 1_455 S
C148 C150 1.391 . S
C149 C148 1.385 1_655 S
C149 C153 1.394 . S
C150 H142 0.950 . S
C150 C148 1.391 . S
C150 C151 1.400 . S
C151 C150 1.400 . S
C151 C152 1.398 1_455 S
C151 C157 1.491 1_565 S
C152 H143 0.950 . S
C152 C151 1.398 1_655 S
C152 C153 1.391 . S
C153 H141 0.950 . S
C153 C149 1.394 . S
C153 C152 1.391 . S
C154 H144 0.950 1_455 S
C154 C155 1.386 . S
C154 C156 1.391 1_455 S
C155 C154 1.386 . S
C155 C159 1.393 . S
C156 H145 0.950 . S
C156 C154 1.391 1_655 S
C156 C157 1.400 1_655 S
C157 C151 1.491 1_545 S
C157 C156 1.400 1_455 S
C157 C158 1.398 . S
C158 H146 0.950 . S
C158 C157 1.398 . S
C158 C159 1.391 . S
C159 H147 0.950 . S
C159 C155 1.393 . S
C159 C158 1.391 . S
H160 C168 0.950 . S
H161 C173 0.950 . S
H162 C170 0.950 . S
H163 C172 0.950 . S
H164 C174 0.950 . S
H165 C176 0.950 . S
H166 C178 0.950 1_565 S
H167 C179 0.949 1_565 S
C168 H160 0.950 . S
C168 C169 1.392 . S
C168 C170 1.391 . S
C169 C168 1.392 . S
C169 C173 1.380 1_565 S
C170 H162 0.950 . S
C170 C168 1.391 . S
C170 C171 1.400 1_565 S
C171 C170 1.400 1_545 S
C171 C172 1.398 . S
C171 C177 1.491 . S
C172 H163 0.950 . S
C172 C171 1.398 . S
C172 C173 1.391 . S
C173 H161 0.950 . S
C173 C169 1.380 1_545 S
C173 C172 1.391 . S
C174 H164 0.950 . S
C174 C175 1.386 . S
C174 C176 1.391 . S
C175 C174 1.386 . S
C175 C179 1.393 . S
C176 H165 0.950 . S
C176 C174 1.391 . S
C176 C177 1.400 . S
C177 C171 1.491 . S
C177 C176 1.400 . S
C177 C178 1.398 . S
C178 H166 0.950 1_545 S
C178 C177 1.398 . S
C178 C179 1.391 . S
C179 H167 0.949 1_545 S
C179 C175 1.393 . S
C179 C178 1.391 . S
H180 C188 0.950 . S
H181 C193 0.950 1_655 S
H182 C190 0.950 . S
H183 C192 0.950 . S
H184 C194 0.950 . S
H185 C196 0.950 . S
H186 C198 0.950 . S
H187 C199 0.950 . S
C188 H180 0.950 . S
C188 C189 1.386 . S
C188 C190 1.391 . S
C189 C188 1.386 . S
C189 C193 1.393 . S
C190 H182 0.950 . S
C190 C188 1.391 . S
C190 C191 1.400 . S
C191 C190 1.400 . S
C191 C192 1.398 1_455 S
C191 C197 1.491 . S
C192 H183 0.950 . S
C192 C191 1.398 1_655 S
C192 C193 1.391 1_655 S
C193 H181 0.950 1_455 S
C193 C189 1.393 . S
C193 C192 1.391 1_455 S
C194 H184 0.950 . S
C194 C195 1.386 . S
C194 C196 1.391 . S
C195 C194 1.386 . S
C195 C199 1.393 1_655 S
C196 H185 0.950 . S
C196 C194 1.391 . S
C196 C197 1.400 1_655 S
C197 C191 1.491 . S
C197 C196 1.400 1_455 S
C197 C198 1.398 . S
C198 H186 0.950 . S
C198 C197 1.398 . S
C198 C199 1.391 . S
C199 H187 0.950 . S
C199 C195 1.393 1_455 S
C199 C198 1.391 . S
H200 C208 0.950 . S
H201 C213 0.950 . S
H202 C210 0.950 . S
H203 C212 0.950 . S
H204 C214 0.950 . S
H205 C216 0.950 . S
H206 C218 0.950 . S
H207 C219 0.950 . S
C208 H200 0.950 . S
C208 C209 1.386 . S
C208 C210 1.391 . S
C209 C208 1.386 . S
C209 C213 1.393 . S
C210 H202 0.950 . S
C210 C208 1.391 . S
C210 C211 1.400 . S
C211 C210 1.400 . S
C211 C212 1.398 . S
C211 C217 1.491 . S
C212 H203 0.950 . S
C212 C211 1.398 . S
C212 C213 1.391 . S
C213 H201 0.950 . S
C213 C209 1.393 . S
C213 C212 1.391 . S
C214 H204 0.950 . S
C214 C215 1.386 . S
C214 C216 1.391 . S
C215 C214 1.386 . S
C215 C219 1.393 . S
C216 H205 0.950 . S
C216 C214 1.391 . S
C216 C217 1.400 . S
C217 C211 1.491 . S
C217 C216 1.400 . S
C217 C218 1.398 . S
C218 H206 0.950 . S
C218 C217 1.398 . S
C218 C219 1.391 . S
C219 H207 0.950 . S
C219 C215 1.393 . S
C219 C218 1.391 . S
H220 C228 0.950 . S
H221 C233 0.950 . S
H222 C230 0.950 . S
H223 C232 0.950 . S
H224 C234 0.950 . S
H225 C236 0.950 . S
H226 C238 0.950 . S
H227 C239 0.950 1_554 S
C228 H220 0.950 . S
C228 C229 1.386 . S
C228 C230 1.391 . S
C229 C228 1.386 . S
C229 C233 1.393 . S
C230 H222 0.950 . S
C230 C228 1.391 . S
C230 C231 1.400 . S
C231 C230 1.400 . S
C231 C232 1.398 . S
C231 C237 1.491 . S
C232 H223 0.950 . S
C232 C231 1.398 . S
C232 C233 1.391 . S
C233 H221 0.950 . S
C233 C229 1.393 . S
C233 C232 1.391 . S
C234 H224 0.950 . S
C234 C235 1.386 . S
C234 C236 1.391 . S
C235 C234 1.386 . S
C235 C239 1.393 . S
C236 H225 0.950 . S
C236 C234 1.391 . S
C236 C237 1.400 . S
C237 C231 1.491 . S
C237 C236 1.400 . S
C237 C238 1.398 . S
C238 H226 0.950 . S
C238 C237 1.398 . S
C238 C239 1.391 . S
C239 H227 0.950 1_556 S
C239 C235 1.393 . S
C239 C238 1.391 . S
H240 C248 0.950 . S
H241 C253 0.950 . S
H242 C250 0.950 . S
H243 C252 0.950 . S
H244 C254 0.950 . S
H245 C256 0.950 . S
H246 C258 0.950 . S
H247 C259 0.950 . S
C248 H240 0.950 . S
C248 C249 1.386 . S
C248 C250 1.391 . S
C249 C248 1.386 . S
C249 C253 1.393 . S
C250 H242 0.950 . S
C250 C248 1.391 . S
C250 C251 1.400 . S
C251 C250 1.400 . S
C251 C252 1.398 . S
C251 C257 1.491 . S
C252 H243 0.950 . S
C252 C251 1.398 . S
C252 C253 1.391 . S
C253 H241 0.950 . S
C253 C249 1.393 . S
C253 C252 1.391 . S
C254 H244 0.950 . S
C254 C255 1.386 . S
C254 C256 1.391 . S
C255 C254 1.386 . S
C255 C259 1.393 . S
C256 H245 0.950 . S
C256 C254 1.391 . S
C256 C257 1.400 . S
C257 C251 1.491 . S
C257 C256 1.400 . S
C257 C258 1.398 . S
C258 H246 0.950 . S
C258 C257 1.398 . S
C258 C259 1.391 . S
C259 H247 0.950 . S
C259 C255 1.393 . S
C259 C258 1.391 . S
H260 C268 0.950 . S
H261 C273 0.950 . S
H262 C270 0.950 . S
H263 C272 0.950 . S
H264 C274 0.950 . S
H265 C276 0.950 . S
H266 C278 0.950 . S
H267 C279 0.950 . S
C268 H260 0.950 . S
C268 C269 1.386 . S
C268 C270 1.391 . S
C269 C268 1.386 . S
C269 C273 1.393 . S
C270 H262 0.950 . S
C270 C268 1.391 . S
C270 C271 1.400 . S
C271 C270 1.400 . S
C271 C272 1.398 . S
C271 C277 1.491 . S
C272 H263 0.950 . S
C272 C271 1.398 . S
C272 C273 1.391 . S
C273 H261 0.950 . S
C273 C269 1.393 . S
C273 C272 1.391 . S
C274 H264 0.950 . S
C274 C275 1.386 . S
C274 C276 1.391 . S
C275 C274 1.386 . S
C275 C279 1.393 . S
C276 H265 0.950 . S
C276 C274 1.391 . S
C276 C277 1.400 . S
C277 C271 1.491 . S
C277 C276 1.400 . S
C277 C278 1.398 . S
C278 H266 0.950 . S
C278 C277 1.398 . S
C278 C279 1.391 . S
C279 H267 0.950 . S
C279 C275 1.393 . S
C279 C278 1.391 . S
H280 C288 0.950 . S
H281 C293 0.950 . S
H282 C290 0.950 . S
H283 C292 0.950 . S
H284 C294 0.950 . S
H285 C296 0.950 . S
H286 C298 0.950 . S
H287 C299 0.950 . S
C288 H280 0.950 . S
C288 C289 1.386 . S
C288 C290 1.391 . S
C289 C288 1.386 . S
C289 C293 1.393 . S
C290 H282 0.950 . S
C290 C288 1.391 . S
C290 C291 1.400 . S
C291 C290 1.400 . S
C291 C292 1.398 . S
C291 C297 1.491 . S
C292 H283 0.950 . S
C292 C291 1.398 . S
C292 C293 1.391 . S
C293 H281 0.950 . S
C293 C289 1.393 . S
C293 C292 1.391 . S
C294 H284 0.950 . S
C294 C295 1.386 . S
C294 C296 1.391 . S
C295 C294 1.386 . S
C295 C299 1.393 . S
C296 H285 0.950 . S
C296 C294 1.391 . S
C296 C297 1.400 . S
C297 C291 1.491 . S
C297 C296 1.400 . S
C297 C298 1.398 . S
C298 H286 0.950 . S
C298 C297 1.398 . S
C298 C299 1.391 . S
C299 H287 0.950 . S
C299 C295 1.393 . S
C299 C298 1.391 . S
H300 C308 0.950 1_545 S
H301 C313 0.950 . S
H302 C310 0.950 . S
H303 C312 0.950 . S
H304 C314 0.950 . S
H305 C316 0.950 . S
H306 C318 0.950 . S
H307 C319 0.950 . S
C308 H300 0.950 1_565 S
C308 C309 1.386 . S
C308 C310 1.391 . S
C309 C308 1.386 . S
C309 C313 1.393 . S
C310 H302 0.950 . S
C310 C308 1.391 . S
C310 C311 1.400 . S
C311 C310 1.400 . S
C311 C312 1.398 . S
C311 C317 1.491 . S
C312 H303 0.950 . S
C312 C311 1.398 . S
C312 C313 1.391 . S
C313 H301 0.950 . S
C313 C309 1.393 . S
C313 C312 1.391 . S
C314 H304 0.950 . S
C314 C315 1.386 . S
C314 C316 1.391 . S
C315 C314 1.386 . S
C315 C319 1.393 . S
C316 H305 0.950 . S
C316 C314 1.391 . S
C316 C317 1.400 . S
C317 C311 1.491 . S
C317 C316 1.400 . S
C317 C318 1.398 . S
C318 H306 0.950 . S
C318 C317 1.398 . S
C318 C319 1.391 . S
C319 H307 0.950 . S
C319 C315 1.393 . S
C319 C318 1.391 . S
H320 C328 0.950 . S
H321 C333 0.950 . S
H322 C330 0.950 . S
H323 C332 0.950 . S
H324 C334 0.950 . S
H325 C336 0.950 . S
H326 C338 0.950 . S
H327 C339 0.950 . S
C328 H320 0.950 . S
C328 C329 1.386 . S
C328 C330 1.391 . S
C329 C328 1.386 . S
C329 C333 1.393 . S
C330 H322 0.950 . S
C330 C328 1.391 . S
C330 C331 1.400 . S
C331 C330 1.400 . S
C331 C332 1.398 . S
C331 C337 1.491 . S
C332 H323 0.950 . S
C332 C331 1.398 . S
C332 C333 1.391 . S
C333 H321 0.950 . S
C333 C329 1.393 . S
C333 C332 1.391 . S
C334 H324 0.950 . S
C334 C335 1.386 . S
C334 C336 1.391 . S
C335 C334 1.386 . S
C335 C339 1.393 . S
C336 H325 0.950 . S
C336 C334 1.391 . S
C336 C337 1.400 . S
C337 C331 1.491 . S
C337 C336 1.400 . S
C337 C338 1.398 . S
C338 H326 0.950 . S
C338 C337 1.398 . S
C338 C339 1.391 . S
C339 H327 0.950 . S
C339 C335 1.393 . S
C339 C338 1.391 . S
H340 C348 0.950 . S
H341 C353 0.950 . S
H342 C350 0.950 . S
H343 C352 0.950 . S
H344 C354 0.950 . S
H345 C356 0.950 . S
H346 C358 0.950 . S
H347 C359 0.950 . S
C348 H340 0.950 . S
C348 C349 1.386 . S
C348 C350 1.391 . S
C349 C348 1.386 . S
C349 C353 1.393 . S
C350 H342 0.950 . S
C350 C348 1.391 . S
C350 C351 1.400 . S
C351 C350 1.400 . S
C351 C352 1.398 . S
C351 C357 1.491 . S
C352 H343 0.950 . S
C352 C351 1.398 . S
C352 C353 1.391 . S
C353 H341 0.950 . S
C353 C349 1.393 . S
C353 C352 1.391 . S
C354 H344 0.950 . S
C354 C355 1.386 . S
C354 C356 1.391 . S
C355 C354 1.386 . S
C355 C359 1.393 . S
C356 H345 0.950 . S
C356 C354 1.391 . S
C356 C357 1.400 . S
C357 C351 1.491 . S
C357 C356 1.400 . S
C357 C358 1.398 . S
C358 H346 0.950 . S
C358 C357 1.398 . S
C358 C359 1.391 . S
C359 H347 0.950 . S
C359 C355 1.393 . S
C359 C358 1.391 . S
C129 C61 0.483 1_545 S
C135 C10 0.483 . S
C149 C91 0.590 1_655 S
C155 C40 0.592 . S
C169 C70 0.655 1_565 S
C175 C1 0.655 . S
C189 C31 0.723 . S
C195 C100 0.722 . S
C209 N44 1.112 . S
C215 N6 1.178 . S
C229 N36 1.484 . S
C235 C87 1.447 1_556 S
C249 C117 1.538 . S
C255 C76 1.538 . S
C269 C106 1.308 . S
C275 N14 1.231 . S
C289 N74 1.181 . S
C295 N96 1.082 . S
C309 C16 1.446 . S
C315 N104 1.484 . S
C329 C46 1.540 . S
C335 C27 1.529 . S
C349 N66 1.233 . S
C355 C57 1.307 . S
