# Generated by pormake.
# Topology ana, (4)-cn, num edge types: 1
# Building blocks:
#     Node 0, Type 0, BuildingBlock: NAHDIM_clean_sbu_0, # of connection points: 4
#     Node 1, Type 0, BuildingBlock: NAHDIM_clean_sbu_0, # of connection points: 4
#     Node 2, Type 0, BuildingBlock: NAHDIM_clean_sbu_0, # of connection points: 4
#     Node 3, Type 0, BuildingBlock: NAHDIM_clean_sbu_0, # of connection points: 4
#     Node 4, Type 0, BuildingBlock: NAHDIM_clean_sbu_0, # of connection points: 4
#     Node 5, Type 0, BuildingBlock: NAHDIM_clean_sbu_0, # of connection points: 4
#     Node 6, Type 0, BuildingBlock: NAHDIM_clean_sbu_0, # of connection points: 4
#     Node 7, Type 0, BuildingBlock: NAHDIM_clean_sbu_0, # of connection points: 4
#     Node 8, Type 0, BuildingBlock: NAHDIM_clean_sbu_0, # of connection points: 4
#     Node 9, Type 0, BuildingBlock: NAHDIM_clean_sbu_0, # of connection points: 4
#     Node 10, Type 0, BuildingBlock: NAHDIM_clean_sbu_0, # of connection points: 4
#     Node 11, Type 0, BuildingBlock: NAHDIM_clean_sbu_0, # of connection points: 4
#     Node 12, Type 0, BuildingBlock: NAHDIM_clean_sbu_0, # of connection points: 4
#     Node 13, Type 0, BuildingBlock: NAHDIM_clean_sbu_0, # of connection points: 4
#     Node 14, Type 0, BuildingBlock: NAHDIM_clean_sbu_0, # of connection points: 4
#     Node 15, Type 0, BuildingBlock: NAHDIM_clean_sbu_0, # of connection points: 4
#     Node 16, Type 0, BuildingBlock: NAHDIM_clean_sbu_0, # of connection points: 4
#     Node 17, Type 0, BuildingBlock: NAHDIM_clean_sbu_0, # of connection points: 4
#     Node 18, Type 0, BuildingBlock: NAHDIM_clean_sbu_0, # of connection points: 4
#     Node 19, Type 0, BuildingBlock: NAHDIM_clean_sbu_0, # of connection points: 4
#     Node 20, Type 0, BuildingBlock: NAHDIM_clean_sbu_0, # of connection points: 4
#     Node 21, Type 0, BuildingBlock: NAHDIM_clean_sbu_0, # of connection points: 4
#     Node 22, Type 0, BuildingBlock: NAHDIM_clean_sbu_0, # of connection points: 4
#     Node 23, Type 0, BuildingBlock: NAHDIM_clean_sbu_0, # of connection points: 4
#     Node 24, Type 0, BuildingBlock: NAHDIM_clean_sbu_0, # of connection points: 4
#     Node 25, Type 0, BuildingBlock: NAHDIM_clean_sbu_0, # of connection points: 4
#     Node 26, Type 0, BuildingBlock: NAHDIM_clean_sbu_0, # of connection points: 4
#     Node 27, Type 0, BuildingBlock: NAHDIM_clean_sbu_0, # of connection points: 4
#     Node 28, Type 0, BuildingBlock: NAHDIM_clean_sbu_0, # of connection points: 4
#     Node 29, Type 0, BuildingBlock: NAHDIM_clean_sbu_0, # of connection points: 4
#     Node 30, Type 0, BuildingBlock: NAHDIM_clean_sbu_0, # of connection points: 4
#     Node 31, Type 0, BuildingBlock: NAHDIM_clean_sbu_0, # of connection points: 4
#     Node 32, Type 0, BuildingBlock: NAHDIM_clean_sbu_0, # of connection points: 4
#     Node 33, Type 0, BuildingBlock: NAHDIM_clean_sbu_0, # of connection points: 4
#     Node 34, Type 0, BuildingBlock: NAHDIM_clean_sbu_0, # of connection points: 4
#     Node 35, Type 0, BuildingBlock: NAHDIM_clean_sbu_0, # of connection points: 4
#     Node 36, Type 0, BuildingBlock: NAHDIM_clean_sbu_0, # of connection points: 4
#     Node 37, Type 0, BuildingBlock: NAHDIM_clean_sbu_0, # of connection points: 4
#     Node 38, Type 0, BuildingBlock: NAHDIM_clean_sbu_0, # of connection points: 4
#     Node 39, Type 0, BuildingBlock: NAHDIM_clean_sbu_0, # of connection points: 4
#     Node 40, Type 0, BuildingBlock: NAHDIM_clean_sbu_0, # of connection points: 4
#     Node 41, Type 0, BuildingBlock: NAHDIM_clean_sbu_0, # of connection points: 4
#     Node 42, Type 0, BuildingBlock: NAHDIM_clean_sbu_0, # of connection points: 4
#     Node 43, Type 0, BuildingBlock: NAHDIM_clean_sbu_0, # of connection points: 4
#     Node 44, Type 0, BuildingBlock: NAHDIM_clean_sbu_0, # of connection points: 4
#     Node 45, Type 0, BuildingBlock: NAHDIM_clean_sbu_0, # of connection points: 4
#     Node 46, Type 0, BuildingBlock: NAHDIM_clean_sbu_0, # of connection points: 4
#     Node 47, Type 0, BuildingBlock: NAHDIM_clean_sbu_0, # of connection points: 4
#     Edge 48, Type (0, 0), BuildingBlock: KIFKEQ_clean_linker_1, # of connection points: 2
#     Edge 49, Type (0, 0), BuildingBlock: KIFKEQ_clean_linker_1, # of connection points: 2
#     Edge 50, Type (0, 0), BuildingBlock: KIFKEQ_clean_linker_1, # of connection points: 2
#     Edge 51, Type (0, 0), BuildingBlock: KIFKEQ_clean_linker_1, # of connection points: 2
#     Edge 52, Type (0, 0), BuildingBlock: KIFKEQ_clean_linker_1, # of connection points: 2
#     Edge 53, Type (0, 0), BuildingBlock: KIFKEQ_clean_linker_1, # of connection points: 2
#     Edge 54, Type (0, 0), BuildingBlock: KIFKEQ_clean_linker_1, # of connection points: 2
#     Edge 55, Type (0, 0), BuildingBlock: KIFKEQ_clean_linker_1, # of connection points: 2
#     Edge 56, Type (0, 0), BuildingBlock: KIFKEQ_clean_linker_1, # of connection points: 2
#     Edge 57, Type (0, 0), BuildingBlock: KIFKEQ_clean_linker_1, # of connection points: 2
#     Edge 58, Type (0, 0), BuildingBlock: KIFKEQ_clean_linker_1, # of connection points: 2
#     Edge 59, Type (0, 0), BuildingBlock: KIFKEQ_clean_linker_1, # of connection points: 2
#     Edge 60, Type (0, 0), BuildingBlock: KIFKEQ_clean_linker_1, # of connection points: 2
#     Edge 61, Type (0, 0), BuildingBlock: KIFKEQ_clean_linker_1, # of connection points: 2
#     Edge 62, Type (0, 0), BuildingBlock: KIFKEQ_clean_linker_1, # of connection points: 2
#     Edge 63, Type (0, 0), BuildingBlock: KIFKEQ_clean_linker_1, # of connection points: 2
#     Edge 64, Type (0, 0), BuildingBlock: KIFKEQ_clean_linker_1, # of connection points: 2
#     Edge 65, Type (0, 0), BuildingBlock: KIFKEQ_clean_linker_1, # of connection points: 2
#     Edge 66, Type (0, 0), BuildingBlock: KIFKEQ_clean_linker_1, # of connection points: 2
#     Edge 67, Type (0, 0), BuildingBlock: KIFKEQ_clean_linker_1, # of connection points: 2
#     Edge 68, Type (0, 0), BuildingBlock: KIFKEQ_clean_linker_1, # of connection points: 2
#     Edge 69, Type (0, 0), BuildingBlock: KIFKEQ_clean_linker_1, # of connection points: 2
#     Edge 70, Type (0, 0), BuildingBlock: KIFKEQ_clean_linker_1, # of connection points: 2
#     Edge 71, Type (0, 0), BuildingBlock: KIFKEQ_clean_linker_1, # of connection points: 2
#     Edge 72, Type (0, 0), BuildingBlock: KIFKEQ_clean_linker_1, # of connection points: 2
#     Edge 73, Type (0, 0), BuildingBlock: KIFKEQ_clean_linker_1, # of connection points: 2
#     Edge 74, Type (0, 0), BuildingBlock: KIFKEQ_clean_linker_1, # of connection points: 2
#     Edge 75, Type (0, 0), BuildingBlock: KIFKEQ_clean_linker_1, # of connection points: 2
#     Edge 76, Type (0, 0), BuildingBlock: KIFKEQ_clean_linker_1, # of connection points: 2
#     Edge 77, Type (0, 0), BuildingBlock: KIFKEQ_clean_linker_1, # of connection points: 2
#     Edge 78, Type (0, 0), BuildingBlock: KIFKEQ_clean_linker_1, # of connection points: 2
#     Edge 79, Type (0, 0), BuildingBlock: KIFKEQ_clean_linker_1, # of connection points: 2
#     Edge 80, Type (0, 0), BuildingBlock: KIFKEQ_clean_linker_1, # of connection points: 2
#     Edge 81, Type (0, 0), BuildingBlock: KIFKEQ_clean_linker_1, # of connection points: 2
#     Edge 82, Type (0, 0), BuildingBlock: KIFKEQ_clean_linker_1, # of connection points: 2
#     Edge 83, Type (0, 0), BuildingBlock: KIFKEQ_clean_linker_1, # of connection points: 2
#     Edge 84, Type (0, 0), BuildingBlock: KIFKEQ_clean_linker_1, # of connection points: 2
#     Edge 85, Type (0, 0), BuildingBlock: KIFKEQ_clean_linker_1, # of connection points: 2
#     Edge 86, Type (0, 0), BuildingBlock: KIFKEQ_clean_linker_1, # of connection points: 2
#     Edge 87, Type (0, 0), BuildingBlock: KIFKEQ_clean_linker_1, # of connection points: 2
#     Edge 88, Type (0, 0), BuildingBlock: KIFKEQ_clean_linker_1, # of connection points: 2
#     Edge 89, Type (0, 0), BuildingBlock: KIFKEQ_clean_linker_1, # of connection points: 2
#     Edge 90, Type (0, 0), BuildingBlock: KIFKEQ_clean_linker_1, # of connection points: 2
#     Edge 91, Type (0, 0), BuildingBlock: KIFKEQ_clean_linker_1, # of connection points: 2
#     Edge 92, Type (0, 0), BuildingBlock: KIFKEQ_clean_linker_1, # of connection points: 2
#     Edge 93, Type (0, 0), BuildingBlock: KIFKEQ_clean_linker_1, # of connection points: 2
#     Edge 94, Type (0, 0), BuildingBlock: KIFKEQ_clean_linker_1, # of connection points: 2
#     Edge 95, Type (0, 0), BuildingBlock: KIFKEQ_clean_linker_1, # of connection points: 2
#     Edge 96, Type (0, 0), BuildingBlock: KIFKEQ_clean_linker_1, # of connection points: 2
#     Edge 97, Type (0, 0), BuildingBlock: KIFKEQ_clean_linker_1, # of connection points: 2
#     Edge 98, Type (0, 0), BuildingBlock: KIFKEQ_clean_linker_1, # of connection points: 2
#     Edge 99, Type (0, 0), BuildingBlock: KIFKEQ_clean_linker_1, # of connection points: 2
#     Edge 100, Type (0, 0), BuildingBlock: KIFKEQ_clean_linker_1, # of connection points: 2
#     Edge 101, Type (0, 0), BuildingBlock: KIFKEQ_clean_linker_1, # of connection points: 2
#     Edge 102, Type (0, 0), BuildingBlock: KIFKEQ_clean_linker_1, # of connection points: 2
#     Edge 103, Type (0, 0), BuildingBlock: KIFKEQ_clean_linker_1, # of connection points: 2
#     Edge 104, Type (0, 0), BuildingBlock: KIFKEQ_clean_linker_1, # of connection points: 2
#     Edge 105, Type (0, 0), BuildingBlock: KIFKEQ_clean_linker_1, # of connection points: 2
#     Edge 106, Type (0, 0), BuildingBlock: KIFKEQ_clean_linker_1, # of connection points: 2
#     Edge 107, Type (0, 0), BuildingBlock: KIFKEQ_clean_linker_1, # of connection points: 2
#     Edge 108, Type (0, 0), BuildingBlock: KIFKEQ_clean_linker_1, # of connection points: 2
#     Edge 109, Type (0, 0), BuildingBlock: KIFKEQ_clean_linker_1, # of connection points: 2
#     Edge 110, Type (0, 0), BuildingBlock: KIFKEQ_clean_linker_1, # of connection points: 2
#     Edge 111, Type (0, 0), BuildingBlock: KIFKEQ_clean_linker_1, # of connection points: 2
#     Edge 112, Type (0, 0), BuildingBlock: KIFKEQ_clean_linker_1, # of connection points: 2
#     Edge 113, Type (0, 0), BuildingBlock: KIFKEQ_clean_linker_1, # of connection points: 2
#     Edge 114, Type (0, 0), BuildingBlock: KIFKEQ_clean_linker_1, # of connection points: 2
#     Edge 115, Type (0, 0), BuildingBlock: KIFKEQ_clean_linker_1, # of connection points: 2
#     Edge 116, Type (0, 0), BuildingBlock: KIFKEQ_clean_linker_1, # of connection points: 2
#     Edge 117, Type (0, 0), BuildingBlock: KIFKEQ_clean_linker_1, # of connection points: 2
#     Edge 118, Type (0, 0), BuildingBlock: KIFKEQ_clean_linker_1, # of connection points: 2
#     Edge 119, Type (0, 0), BuildingBlock: KIFKEQ_clean_linker_1, # of connection points: 2
#     Edge 120, Type (0, 0), BuildingBlock: KIFKEQ_clean_linker_1, # of connection points: 2
#     Edge 121, Type (0, 0), BuildingBlock: KIFKEQ_clean_linker_1, # of connection points: 2
#     Edge 122, Type (0, 0), BuildingBlock: KIFKEQ_clean_linker_1, # of connection points: 2
#     Edge 123, Type (0, 0), BuildingBlock: KIFKEQ_clean_linker_1, # of connection points: 2
#     Edge 124, Type (0, 0), BuildingBlock: KIFKEQ_clean_linker_1, # of connection points: 2
#     Edge 125, Type (0, 0), BuildingBlock: KIFKEQ_clean_linker_1, # of connection points: 2
#     Edge 126, Type (0, 0), BuildingBlock: KIFKEQ_clean_linker_1, # of connection points: 2
#     Edge 127, Type (0, 0), BuildingBlock: KIFKEQ_clean_linker_1, # of connection points: 2
#     Edge 128, Type (0, 0), BuildingBlock: KIFKEQ_clean_linker_1, # of connection points: 2
#     Edge 129, Type (0, 0), BuildingBlock: KIFKEQ_clean_linker_1, # of connection points: 2
#     Edge 130, Type (0, 0), BuildingBlock: KIFKEQ_clean_linker_1, # of connection points: 2
#     Edge 131, Type (0, 0), BuildingBlock: KIFKEQ_clean_linker_1, # of connection points: 2
#     Edge 132, Type (0, 0), BuildingBlock: KIFKEQ_clean_linker_1, # of connection points: 2
#     Edge 133, Type (0, 0), BuildingBlock: KIFKEQ_clean_linker_1, # of connection points: 2
#     Edge 134, Type (0, 0), BuildingBlock: KIFKEQ_clean_linker_1, # of connection points: 2
#     Edge 135, Type (0, 0), BuildingBlock: KIFKEQ_clean_linker_1, # of connection points: 2
#     Edge 136, Type (0, 0), BuildingBlock: KIFKEQ_clean_linker_1, # of connection points: 2
#     Edge 137, Type (0, 0), BuildingBlock: KIFKEQ_clean_linker_1, # of connection points: 2
#     Edge 138, Type (0, 0), BuildingBlock: KIFKEQ_clean_linker_1, # of connection points: 2
#     Edge 139, Type (0, 0), BuildingBlock: KIFKEQ_clean_linker_1, # of connection points: 2
#     Edge 140, Type (0, 0), BuildingBlock: KIFKEQ_clean_linker_1, # of connection points: 2
#     Edge 141, Type (0, 0), BuildingBlock: KIFKEQ_clean_linker_1, # of connection points: 2
#     Edge 142, Type (0, 0), BuildingBlock: KIFKEQ_clean_linker_1, # of connection points: 2
#     Edge 143, Type (0, 0), BuildingBlock: KIFKEQ_clean_linker_1, # of connection points: 2
# Relax obj value: 0.186
# Max RMSD: 0.212
# Mean RMSD: 0.197
data_MOF--net-ana--node1-NAHDIM_clean_sbu_0--edge1-KIFKEQ_clean_linker_1
_symmetry_space_group_name_H-M    P1
_symmetry_Int_Tables_number       1
_symmetry_cell_setting            triclinic
loop_
_symmetry_equiv_pos_as_xyz
'x, y, z'
_cell_length_a     66.955323
_cell_length_b     64.31642
_cell_length_c     64.225292
_cell_angle_alpha  90.03554
_cell_angle_beta   90.132298
_cell_angle_gamma 90.48788
loop_
_atom_site_label
_atom_site_type_symbol
_atom_site_fract_x
_atom_site_fract_y
_atom_site_fract_z
_atom_type_partial_charge
C0 C 0.12945 0.24517 0.37586 0.0
O1 O 0.13131 0.22936 0.36306 0.0
O2 O 0.16166 0.20279 0.39361 0.0
Zn3 Zn 0.13514 0.21255 0.40416 0.0
O4 O 0.11308 0.19482 0.39237 0.0
C5 C 0.15023 0.20988 0.44611 0.0
O6 O 0.16733 0.21414 0.43701 0.0
O7 O 0.13082 0.242 0.39533 0.0
C8 C 0.11084 0.17615 0.39844 0.0
O9 O 0.12333 0.16857 0.41225 0.0
C10 C 0.1636 0.1908 0.37802 0.0
O11 O 0.14765 0.18448 0.3678 0.0
O12 O 0.13437 0.20942 0.43524 0.0
C13 C 0.10289 0.86212 0.67341 0.0
O14 O 0.10362 0.8457 0.66128 0.0
O15 O 0.11101 0.86168 0.61855 0.0
Zn16 Zn 0.09815 0.8848 0.63449 0.0
O17 O 0.11009 0.91242 0.62666 0.0
C18 C 0.05874 0.86816 0.63143 0.0
O19 O 0.06827 0.85098 0.63598 0.0
O20 O 0.10127 0.8801 0.66536 0.0
C21 C 0.10197 0.92363 0.61277 0.0
O22 O 0.08594 0.91667 0.6031 0.0
C23 C 0.12871 0.85608 0.62277 0.0
O24 O 0.13894 0.86634 0.63698 0.0
O25 O 0.06865 0.88492 0.62912 0.0
C26 C 0.3584 0.77492 0.86083 0.0
O27 O 0.35704 0.78881 0.84591 0.0
O28 O 0.32929 0.82155 0.87834 0.0
Zn29 Zn 0.35598 0.81086 0.88694 0.0
O30 O 0.37834 0.8263 0.87311 0.0
C31 C 0.37452 0.81753 0.92746 0.0
O32 O 0.3911 0.81991 0.9168 0.0
O33 O 0.35799 0.78086 0.87967 0.0
C34 C 0.38145 0.84563 0.87571 0.0
O35 O 0.36909 0.85636 0.88729 0.0
C36 C 0.32566 0.83239 0.86227 0.0
O37 O 0.34025 0.83731 0.84951 0.0
O38 O 0.35825 0.81363 0.91795 0.0
C39 C 0.3939 0.10669 0.16461 0.0
O40 O 0.37974 0.10326 0.15081 0.0
O41 O 0.40462 0.13807 0.11678 0.0
Zn42 Zn 0.41679 0.11184 0.12766 0.0
O43 O 0.4048 0.08631 0.11466 0.0
C44 C 0.45595 0.12727 0.13305 0.0
O45 O 0.44606 0.14013 0.14506 0.0
O46 O 0.41151 0.11059 0.15835 0.0
C47 C 0.41374 0.06925 0.11772 0.0
O48 O 0.43081 0.06946 0.12786 0.0
C49 C 0.38654 0.13994 0.11109 0.0
O50 O 0.37473 0.12352 0.11094 0.0
O51 O 0.44639 0.11313 0.12334 0.0
C52 C 0.11029 0.86501 0.04858 0.0
O53 O 0.10448 0.88119 0.05943 0.0
O54 O 0.09386 0.86039 0.10003 0.0
Zn55 Zn 0.11953 0.84872 0.08909 0.0
O56 O 0.14434 0.86423 0.09798 0.0
C57 C 0.11634 0.81061 0.11379 0.0
O58 O 0.10775 0.82245 0.12773 0.0
O59 O 0.11763 0.84949 0.058 0.0
C60 C 0.15251 0.86113 0.11557 0.0
O61 O 0.14354 0.84895 0.12909 0.0
C62 C 0.08906 0.86629 0.11821 0.0
O63 O 0.10225 0.86581 0.13336 0.0
O64 O 0.12222 0.81852 0.09673 0.0
C65 C 0.42582 0.87724 0.35918 0.0
O66 O 0.41225 0.8723 0.37312 0.0
O67 O 0.37555 0.90317 0.34153 0.0
Zn68 Zn 0.39139 0.87816 0.33289 0.0
O69 O 0.38111 0.85225 0.34667 0.0
C70 C 0.39367 0.86002 0.29114 0.0
O71 O 0.39862 0.84271 0.30062 0.0
O72 O 0.42033 0.8811 0.34065 0.0
C73 C 0.36697 0.84063 0.34022 0.0
O74 O 0.35717 0.84572 0.32325 0.0
C75 C 0.38336 0.91858 0.35101 0.0
O76 O 0.40228 0.91791 0.35636 0.0
O77 O 0.38983 0.87613 0.30182 0.0
C78 C 0.39314 0.13806 0.53076 0.0
O79 O 0.39721 0.12185 0.5424 0.0
O80 O 0.41466 0.14714 0.58161 0.0
Zn81 Zn 0.38827 0.15655 0.57059 0.0
O82 O 0.36545 0.13913 0.58098 0.0
C83 C 0.369 0.19383 0.5871 0.0
O84 O 0.35312 0.18196 0.58952 0.0
O85 O 0.38879 0.15515 0.53949 0.0
C86 C 0.36161 0.13651 0.60016 0.0
O87 O 0.37371 0.14455 0.6142 0.0
C88 C 0.41902 0.12923 0.58851 0.0
O89 O 0.40523 0.11461 0.58918 0.0
O90 O 0.38478 0.18628 0.57929 0.0
C91 C 0.05194 0.11813 0.854 0.0
O92 O 0.06552 0.11561 0.86857 0.0
O93 O 0.09208 0.08274 0.83501 0.0
Zn94 Zn 0.08631 0.11273 0.82977 0.0
O95 O 0.1016 0.13193 0.84873 0.0
C96 C 0.10714 0.10921 0.79165 0.0
O97 O 0.11657 0.09522 0.80276 0.0
O98 O 0.05723 0.11739 0.83503 0.0
C99 C 0.1185 0.14001 0.84456 0.0
O100 O 0.12782 0.13445 0.8275 0.0
C101 C 0.09948 0.07476 0.85133 0.0
O102 O 0.10401 0.0867 0.86729 0.0
O103 O 0.09301 0.1193 0.79997 0.0
C104 C 0.16071 0.36384 0.13394 0.0
O105 O 0.1477 0.34899 0.12976 0.0
O106 O 0.10754 0.38313 0.14116 0.0
Zn107 Zn 0.1287 0.38973 0.12002 0.0
O108 O 0.12471 0.37396 0.09346 0.0
C109 C 0.13485 0.43296 0.12726 0.0
O110 O 0.14203 0.4257 0.14484 0.0
O111 O 0.15568 0.38266 0.13136 0.0
C112 C 0.1081 0.36712 0.08663 0.0
O113 O 0.09181 0.36995 0.0976 0.0
C114 C 0.09159 0.3937 0.14187 0.0
O115 O 0.08872 0.40838 0.128 0.0
O116 O 0.12825 0.42025 0.11371 0.0
C117 C 0.62258 0.07219 0.84866 0.0
O118 O 0.61301 0.08609 0.83756 0.0
O119 O 0.64812 0.12302 0.87358 0.0
Zn120 Zn 0.654 0.10351 0.8501 0.0
O121 O 0.64618 0.11451 0.82205 0.0
C122 C 0.69612 0.11024 0.84334 0.0
O123 O 0.69005 0.12736 0.83423 0.0
O124 O 0.63996 0.07643 0.85547 0.0
C125 C 0.65065 0.10284 0.80682 0.0
O126 O 0.65991 0.08529 0.81057 0.0
C127 C 0.63056 0.12658 0.88003 0.0
O128 O 0.61525 0.11872 0.86981 0.0
O129 O 0.68327 0.09772 0.85083 0.0
C130 C 0.86546 0.92536 0.37052 0.0
O131 O 0.87443 0.90832 0.36446 0.0
O132 O 0.83763 0.88129 0.39946 0.0
Zn133 Zn 0.83231 0.89727 0.37333 0.0
O134 O 0.84174 0.88211 0.34794 0.0
C135 C 0.79129 0.88841 0.36433 0.0
O136 O 0.79899 0.87081 0.35793 0.0
O137 O 0.84702 0.92456 0.37513 0.0
C138 C 0.83807 0.89092 0.33069 0.0
O139 O 0.82805 0.90841 0.33071 0.0
C140 C 0.85397 0.8722 0.40342 0.0
O141 O 0.86814 0.87203 0.38932 0.0
O142 O 0.80283 0.9025 0.37143 0.0
C143 C 0.8501 0.03809 0.13553 0.0
O144 O 0.86469 0.04923 0.14369 0.0
O145 O 0.84564 0.09176 0.10638 0.0
Zn146 Zn 0.83338 0.07843 0.13169 0.0
O147 O 0.8477 0.08715 0.15787 0.0
C148 C 0.8015 0.10691 0.13464 0.0
O149 O 0.81662 0.11962 0.13806 0.0
O150 O 0.83451 0.04725 0.12913 0.0
C151 C 0.86061 0.10173 0.15889 0.0
O152 O 0.86464 0.11273 0.14217 0.0
C153 C 0.85922 0.08364 0.09531 0.0
O154 O 0.86674 0.06568 0.10081 0.0
O155 O 0.80488 0.08765 0.13228 0.0
C156 C 0.34692 0.53308 0.60921 0.0
O157 O 0.3603 0.54807 0.60768 0.0
O158 O 0.33488 0.58561 0.59956 0.0
Zn159 Zn 0.32505 0.56741 0.62283 0.0
O160 O 0.34106 0.57206 0.64897 0.0
C161 C 0.29086 0.58615 0.64181 0.0
O162 O 0.30473 0.5961 0.65245 0.0
O163 O 0.32925 0.53768 0.61459 0.0
C164 C 0.34058 0.55731 0.66213 0.0
O165 O 0.32957 0.54078 0.65808 0.0
C166 C 0.32973 0.60438 0.59685 0.0
O167 O 0.31759 0.61313 0.61022 0.0
O168 O 0.29601 0.57277 0.62831 0.0
C169 C 0.13936 0.5512 0.39201 0.0
O170 O 0.13679 0.56145 0.40948 0.0
O171 O 0.14712 0.60327 0.40267 0.0
Zn172 Zn 0.16055 0.58853 0.37914 0.0
O173 O 0.15425 0.6017 0.3516 0.0
C174 C 0.19948 0.60583 0.38215 0.0
O175 O 0.1893 0.62252 0.3773 0.0
O176 O 0.14971 0.55939 0.37756 0.0
C177 C 0.16611 0.59833 0.33657 0.0
O178 O 0.18236 0.58753 0.33997 0.0
C179 C 0.14317 0.6225 0.40407 0.0
O180 O 0.14789 0.6351 0.38873 0.0
O181 O 0.19024 0.5886 0.38406 0.0
C182 C 0.28791 0.38248 0.88174 0.0
O183 O 0.29954 0.36682 0.87701 0.0
O184 O 0.33785 0.3958 0.86424 0.0
Zn185 Zn 0.32534 0.40135 0.89192 0.0
O186 O 0.3347 0.3818 0.91413 0.0
C187 C 0.32271 0.44604 0.89456 0.0
O188 O 0.30626 0.44312 0.88372 0.0
O189 O 0.29568 0.39912 0.88881 0.0
C190 C 0.35064 0.38611 0.92406 0.0
O191 O 0.36129 0.40243 0.91848 0.0
C192 C 0.34646 0.37924 0.85855 0.0
O193 O 0.34795 0.36364 0.87164 0.0
O194 O 0.33285 0.4304 0.90013 0.0
C195 C 0.84278 0.86346 0.62886 0.0
O196 O 0.85053 0.84728 0.63827 0.0
O197 O 0.87321 0.8258 0.60529 0.0
Zn198 Zn 0.87392 0.85624 0.59868 0.0
O199 O 0.87087 0.85955 0.56789 0.0
C200 C 0.90904 0.86101 0.62344 0.0
O201 O 0.89935 0.84789 0.6355 0.0
O202 O 0.85102 0.87045 0.61247 0.0
C203 C 0.88125 0.84901 0.55522 0.0
O204 O 0.89459 0.83602 0.5625 0.0
C205 C 0.86202 0.81301 0.59559 0.0
O206 O 0.85001 0.81983 0.58096 0.0
O207 O 0.90053 0.86777 0.60714 0.0
C208 C 0.9844 0.10266 0.35602 0.0
O209 O 0.97264 0.09584 0.37092 0.0
O210 O 0.94168 0.06881 0.34292 0.0
Zn211 Zn 0.94843 0.09767 0.33323 0.0
O212 O 0.93232 0.11858 0.34895 0.0
C213 C 0.93634 0.11585 0.29376 0.0
O214 O 0.93741 0.13355 0.30394 0.0
O215 O 0.97743 0.10428 0.33768 0.0
C216 C 0.91342 0.11934 0.34741 0.0
O217 O 0.90405 0.10587 0.3354 0.0
C218 C 0.93306 0.06478 0.36008 0.0
O219 O 0.92914 0.08001 0.37304 0.0
O220 O 0.94105 0.09912 0.30299 0.0
C221 C 0.67172 0.16602 0.08397 0.0
O222 O 0.67238 0.18346 0.07333 0.0
O223 O 0.6299 0.19975 0.08167 0.0
Zn224 Zn 0.6309 0.16979 0.07338 0.0
O225 O 0.6318 0.16775 0.0421 0.0
C226 C 0.60018 0.158 0.1026 0.0
O227 O 0.61149 0.16829 0.11588 0.0
O228 O 0.65506 0.15669 0.08613 0.0
C229 C 0.62049 0.15497 0.03251 0.0
O230 O 0.60866 0.14265 0.04327 0.0
C231 C 0.61782 0.21176 0.07242 0.0
O232 O 0.60673 0.20433 0.05719 0.0
O233 O 0.60587 0.15619 0.08385 0.0
C234 C 0.52211 0.89044 0.84958 0.0
O235 O 0.53173 0.89997 0.86472 0.0
O236 O 0.56801 0.91644 0.84019 0.0
Zn237 Zn 0.56169 0.88644 0.83473 0.0
O238 O 0.57308 0.86755 0.85658 0.0
C239 C 0.58794 0.88865 0.79989 0.0
O240 O 0.59609 0.90318 0.8116 0.0
O241 O 0.53196 0.88302 0.83447 0.0
C242 C 0.59162 0.86369 0.85784 0.0
O243 O 0.60408 0.87307 0.8451 0.0
C244 C 0.57471 0.92422 0.85701 0.0
O245 O 0.5779 0.91213 0.87313 0.0
O246 O 0.57273 0.87881 0.8066 0.0
C247 C 0.91017 0.14436 0.8979 0.0
O248 O 0.90638 0.15916 0.9114 0.0
O249 O 0.87083 0.12672 0.93544 0.0
Zn250 Zn 0.86944 0.13629 0.90569 0.0
O251 O 0.86257 0.16658 0.90454 0.0
C252 C 0.83394 0.11153 0.89947 0.0
O253 O 0.83463 0.11009 0.91986 0.0
O254 O 0.89614 0.13209 0.89244 0.0
C255 C 0.85678 0.17401 0.88725 0.0
O256 O 0.85567 0.16171 0.87094 0.0
C257 C 0.87422 0.13928 0.95034 0.0
O258 O 0.87684 0.15913 0.94629 0.0
O259 O 0.84792 0.12103 0.89001 0.0
C260 C 0.56516 0.10582 0.61264 0.0
O261 O 0.57382 0.08816 0.60803 0.0
O262 O 0.61526 0.09646 0.60141 0.0
Zn263 Zn 0.60578 0.12242 0.61534 0.0
O264 O 0.61413 0.14845 0.60029 0.0
C265 C 0.60608 0.13037 0.65968 0.0
O266 O 0.58873 0.13895 0.65579 0.0
O267 O 0.57582 0.12189 0.61618 0.0
C268 C 0.62693 0.16102 0.60791 0.0
O269 O 0.63623 0.15605 0.62522 0.0
C270 C 0.6322 0.08883 0.60572 0.0
O271 O 0.64453 0.0994 0.61773 0.0
O272 O 0.61599 0.12259 0.64479 0.0
C273 C 0.57082 0.854 0.3916 0.0
O274 O 0.575 0.83739 0.40261 0.0
O275 O 0.6129 0.85686 0.4258 0.0
Zn276 Zn 0.61199 0.85523 0.39445 0.0
O277 O 0.61487 0.82578 0.38478 0.0
C278 C 0.64547 0.88387 0.39284 0.0
O279 O 0.64006 0.88814 0.412 0.0
O280 O 0.58513 0.86543 0.38522 0.0
C281 C 0.6296 0.81457 0.38996 0.0
O282 O 0.64339 0.82219 0.40247 0.0
C283 C 0.61036 0.84165 0.43819 0.0
O284 O 0.60717 0.82291 0.43068 0.0
O285 O 0.6349 0.87133 0.3821 0.0
C286 C 0.94059 0.85684 0.13325 0.0
O287 O 0.93037 0.85226 0.11634 0.0
O288 O 0.8903 0.87894 0.13474 0.0
Zn289 Zn 0.90166 0.85424 0.14939 0.0
O290 O 0.89545 0.8275 0.13438 0.0
C291 C 0.90009 0.85018 0.19476 0.0
O292 O 0.91917 0.84575 0.19352 0.0
O293 O 0.93138 0.85839 0.15043 0.0
C294 C 0.88381 0.81382 0.14204 0.0
O295 O 0.87478 0.81764 0.15975 0.0
C296 C 0.87256 0.88487 0.13817 0.0
O297 O 0.86086 0.87333 0.1499 0.0
O298 O 0.89031 0.85391 0.17824 0.0
C299 C 0.78392 0.61292 0.85187 0.0
O300 O 0.7986 0.62598 0.84784 0.0
O301 O 0.83149 0.59618 0.83468 0.0
Zn302 Zn 0.81675 0.58649 0.86005 0.0
O303 O 0.82737 0.59951 0.88636 0.0
C304 C 0.83442 0.54655 0.85502 0.0
O305 O 0.84825 0.55794 0.84594 0.0
O306 O 0.78803 0.59444 0.85726 0.0
C307 C 0.8426 0.59245 0.89573 0.0
O308 O 0.85249 0.57701 0.8874 0.0
C309 C 0.84464 0.6105 0.83396 0.0
O310 O 0.84948 0.62064 0.85102 0.0
O311 O 0.81899 0.55535 0.86225 0.0
C312 C 0.30106 0.8747 0.12076 0.0
O313 O 0.31099 0.85877 0.12814 0.0
O314 O 0.3524 0.87408 0.13243 0.0
Zn315 Zn 0.3401 0.88675 0.10689 0.0
O316 O 0.34506 0.86965 0.08145 0.0
C317 C 0.34357 0.93132 0.10994 0.0
O318 O 0.32694 0.92924 0.12059 0.0
O319 O 0.31045 0.88885 0.11096 0.0
C320 C 0.3622 0.86342 0.07594 0.0
O321 O 0.37776 0.86751 0.0878 0.0
C322 C 0.36943 0.87999 0.13902 0.0
O323 O 0.37962 0.89382 0.12828 0.0
O324 O 0.35176 0.91525 0.10239 0.0
C325 C 0.21617 0.11623 0.62346 0.0
O326 O 0.20691 0.13035 0.63456 0.0
O327 O 0.16656 0.11422 0.63904 0.0
Zn328 Zn 0.17617 0.10623 0.61068 0.0
O329 O 0.1691 0.12787 0.58932 0.0
C330 C 0.14744 0.07238 0.60797 0.0
O331 O 0.13545 0.08594 0.61658 0.0
O332 O 0.206 0.10409 0.6119 0.0
C333 C 0.15459 0.12611 0.57666 0.0
O334 O 0.14301 0.10955 0.57752 0.0
C335 C 0.15071 0.12411 0.64314 0.0
O336 O 0.13908 0.13029 0.62789 0.0
O337 O 0.16522 0.07781 0.60353 0.0
C338 C 0.18341 0.87804 0.84432 0.0
O339 O 0.17509 0.88085 0.826 0.0
O340 O 0.13342 0.86804 0.83267 0.0
Zn341 Zn 0.143 0.88156 0.85907 0.0
O342 O 0.13144 0.86896 0.88496 0.0
C343 C 0.12274 0.92021 0.84963 0.0
O344 O 0.11038 0.90806 0.83929 0.0
O345 O 0.17256 0.87793 0.86053 0.0
C346 C 0.11554 0.87555 0.89335 0.0
O347 O 0.10501 0.88976 0.88372 0.0
C348 C 0.11584 0.86214 0.82796 0.0
O349 O 0.10136 0.86407 0.84158 0.0
O350 O 0.1376 0.9123 0.85895 0.0
C351 C 0.70366 0.38333 0.359 0.0
O352 O 0.68634 0.37396 0.36165 0.0
O353 O 0.6594 0.40433 0.33568 0.0
Zn354 Zn 0.6772 0.41648 0.35785 0.0
O355 O 0.66652 0.41132 0.38651 0.0
C356 C 0.68108 0.4598 0.36855 0.0
O357 O 0.68404 0.45225 0.3873 0.0
O358 O 0.70402 0.40291 0.35637 0.0
C359 C 0.64895 0.41526 0.3927 0.0
O360 O 0.63573 0.42259 0.37953 0.0
C361 C 0.64595 0.39048 0.33806 0.0
O362 O 0.64263 0.38265 0.35663 0.0
O363 O 0.67883 0.44734 0.35334 0.0
C364 C 0.80281 0.38992 0.63032 0.0
O365 O 0.81377 0.37418 0.63635 0.0
O366 O 0.85183 0.40171 0.65127 0.0
Zn367 Zn 0.84136 0.40677 0.62251 0.0
O368 O 0.84993 0.38446 0.60273 0.0
C369 C 0.84182 0.45083 0.61958 0.0
O370 O 0.82572 0.44826 0.63098 0.0
O371 O 0.81142 0.40624 0.62358 0.0
C372 C 0.86571 0.38539 0.59183 0.0
O373 O 0.87768 0.40159 0.59365 0.0
C374 C 0.8578 0.38424 0.65795 0.0
O375 O 0.85767 0.36809 0.64542 0.0
O376 O 0.85114 0.43489 0.61331 0.0
C377 C 0.70276 0.5669 0.12542 0.0
O378 O 0.69575 0.5512 0.11446 0.0
O379 O 0.64784 0.59262 0.1521 0.0
Zn380 Zn 0.66114 0.57956 0.12749 0.0
O381 O 0.65502 0.59572 0.10145 0.0
C382 C 0.63721 0.54429 0.1134 0.0
O383 O 0.62885 0.558 0.10108 0.0
O384 O 0.69079 0.58036 0.13256 0.0
C385 C 0.66228 0.58974 0.08422 0.0
O386 O 0.67313 0.57283 0.08379 0.0
C387 C 0.62906 0.59154 0.1548 0.0
O388 O 0.61786 0.58241 0.14062 0.0
O389 O 0.65138 0.54999 0.12537 0.0
C390 C 0.62801 0.7259 0.91619 0.0
O391 O 0.6463 0.72042 0.92104 0.0
O392 O 0.64512 0.6754 0.89722 0.0
Zn393 Zn 0.62062 0.68146 0.91418 0.0
O394 O 0.59693 0.66607 0.90252 0.0
C395 C 0.64264 0.66887 0.95054 0.0
O396 O 0.65802 0.67272 0.93844 0.0
O397 O 0.61484 0.71191 0.91304 0.0
C398 C 0.59255 0.64769 0.90829 0.0
O399 O 0.60389 0.63842 0.92211 0.0
C400 C 0.64602 0.66119 0.8835 0.0
O401 O 0.62998 0.65012 0.87915 0.0
O402 O 0.62512 0.67215 0.94371 0.0
C403 C 0.56238 0.36759 0.21093 0.0
O404 O 0.54348 0.3729 0.21121 0.0
O405 O 0.56646 0.34971 0.14596 0.0
Zn406 Zn 0.55847 0.37191 0.16605 0.0
O407 O 0.56871 0.39979 0.15669 0.0
C408 C 0.5178 0.37828 0.15397 0.0
O409 O 0.52638 0.38538 0.137 0.0
O410 O 0.5713 0.3659 0.19358 0.0
C411 C 0.57274 0.40455 0.13796 0.0
O412 O 0.56951 0.39087 0.1231 0.0
C413 C 0.58481 0.3463 0.14248 0.0
O414 O 0.59839 0.35787 0.15182 0.0
O415 O 0.52866 0.37185 0.16882 0.0
C416 C 0.85206 0.24913 0.4025 0.0
O417 O 0.84254 0.26078 0.38902 0.0
O418 O 0.8306 0.29912 0.41152 0.0
Zn419 Zn 0.856 0.28807 0.42392 0.0
O420 O 0.87954 0.3023 0.4108 0.0
C421 C 0.87274 0.2968 0.46429 0.0
O422 O 0.88957 0.29265 0.45473 0.0
O423 O 0.85863 0.25733 0.4192 0.0
C424 C 0.88158 0.32195 0.41137 0.0
O425 O 0.86779 0.3332 0.42041 0.0
C426 C 0.82994 0.30771 0.3937 0.0
O427 O 0.84621 0.30879 0.38236 0.0
O428 O 0.85637 0.29501 0.45437 0.0
C429 C 0.90108 0.64135 0.69232 0.0
O430 O 0.90256 0.66052 0.6854 0.0
O431 O 0.89411 0.65694 0.64068 0.0
Zn432 Zn 0.90794 0.63086 0.64924 0.0
O433 O 0.89678 0.60623 0.63385 0.0
C434 C 0.94632 0.65091 0.64797 0.0
O435 O 0.9359 0.66691 0.65434 0.0
O436 O 0.90309 0.62631 0.67968 0.0
C437 C 0.90706 0.58974 0.63291 0.0
O438 O 0.92506 0.58975 0.6411 0.0
C439 C 0.89308 0.66325 0.622 0.0
O440 O 0.9009 0.65197 0.60708 0.0
O441 O 0.93743 0.63373 0.64445 0.0
C442 C 0.62681 0.38364 0.5435 0.0
O443 O 0.63234 0.39652 0.55836 0.0
O444 O 0.60096 0.36311 0.59343 0.0
Zn445 Zn 0.62567 0.35552 0.57767 0.0
O446 O 0.65006 0.36905 0.58991 0.0
C447 C 0.61654 0.31193 0.57193 0.0
O448 O 0.59952 0.31907 0.56476 0.0
O449 O 0.6228 0.36486 0.54807 0.0
C450 C 0.65714 0.36334 0.60733 0.0
O451 O 0.64762 0.34903 0.6181 0.0
C452 C 0.59455 0.35248 0.60873 0.0
O453 O 0.60472 0.33627 0.61503 0.0
O454 O 0.62981 0.32469 0.57822 0.0
C455 C 0.92771 0.36923 0.86183 0.0
O456 O 0.92145 0.3876 0.86778 0.0
O457 O 0.877 0.38686 0.86395 0.0
Zn458 Zn 0.88564 0.35939 0.85259 0.0
O459 O 0.87252 0.33521 0.86679 0.0
C460 C 0.88828 0.37273 0.81105 0.0
O461 O 0.90022 0.38625 0.82021 0.0
O462 O 0.91519 0.35573 0.85541 0.0
C463 C 0.8573 0.3258 0.85946 0.0
O464 O 0.84857 0.33313 0.84269 0.0
C465 C 0.85953 0.3932 0.85978 0.0
O466 O 0.84718 0.38081 0.84967 0.0
O467 O 0.87962 0.35897 0.82205 0.0
C468 C 0.86019 0.62421 0.04785 0.0
O469 O 0.84488 0.63097 0.05859 0.0
O470 O 0.90449 0.61469 0.09821 0.0
Zn471 Zn 0.87751 0.62349 0.08824 0.0
O472 O 0.85506 0.60721 0.10149 0.0
C473 C 0.88801 0.66679 0.08927 0.0
O474 O 0.90425 0.65997 0.08018 0.0
O475 O 0.87621 0.61967 0.05737 0.0
C476 C 0.84411 0.61569 0.11516 0.0
O477 O 0.84858 0.63453 0.12166 0.0
C478 C 0.91136 0.62066 0.11569 0.0
O479 O 0.89986 0.63141 0.12819 0.0
O480 O 0.87431 0.65392 0.09412 0.0
C481 C 0.55928 0.62407 0.37161 0.0
O482 O 0.57372 0.62152 0.38523 0.0
O483 O 0.60796 0.60471 0.35302 0.0
Zn484 Zn 0.59216 0.6292 0.3432 0.0
O485 O 0.60421 0.65573 0.35423 0.0
C486 C 0.58501 0.61495 0.3014 0.0
O487 O 0.576 0.59954 0.3111 0.0
O488 O 0.56368 0.62718 0.35264 0.0
C489 C 0.61536 0.66709 0.34289 0.0
O490 O 0.61959 0.661 0.3239 0.0
C491 C 0.62464 0.60113 0.34436 0.0
O492 O 0.6311 0.61383 0.32979 0.0
O493 O 0.59268 0.62965 0.312 0.0
C494 C 0.69646 0.88978 0.63875 0.0
O495 O 0.68664 0.89591 0.6553 0.0
O496 O 0.64336 0.89016 0.64429 0.0
Zn497 Zn 0.65831 0.89388 0.61761 0.0
O498 O 0.64728 0.87632 0.59438 0.0
C499 C 0.64155 0.93473 0.61385 0.0
O500 O 0.62668 0.92595 0.62397 0.0
O501 O 0.68723 0.88744 0.62159 0.0
C502 C 0.62944 0.87837 0.588 0.0
O503 O 0.61752 0.89116 0.59781 0.0
C504 C 0.64099 0.87336 0.65439 0.0
O505 O 0.64828 0.85598 0.64696 0.0
O506 O 0.65675 0.92397 0.6093 0.0
C507 C 0.30573 0.32938 0.13492 0.0
O508 O 0.31325 0.31251 0.14324 0.0
O509 O 0.34652 0.30011 0.11444 0.0
Zn510 Zn 0.34285 0.3309 0.11154 0.0
O511 O 0.34538 0.33889 0.08142 0.0
C512 C 0.37471 0.33734 0.14129 0.0
O513 O 0.36941 0.31872 0.14775 0.0
O514 O 0.31591 0.33957 0.12167 0.0
C515 C 0.3552 0.32838 0.06824 0.0
O516 O 0.36399 0.31116 0.07409 0.0
C517 C 0.33631 0.28669 0.10442 0.0
O518 O 0.32201 0.29292 0.0919 0.0
O519 O 0.36484 0.34585 0.12675 0.0
C520 C 0.45953 0.59286 0.8613 0.0
O521 O 0.44604 0.59024 0.87591 0.0
O522 O 0.4116 0.57189 0.85658 0.0
Zn523 Zn 0.42449 0.59211 0.83673 0.0
O524 O 0.41345 0.62065 0.84128 0.0
C525 C 0.40357 0.57177 0.80356 0.0
O526 O 0.39284 0.56509 0.81932 0.0
O527 O 0.45392 0.59363 0.8424 0.0
C528 C 0.3993 0.62807 0.83045 0.0
O529 O 0.39124 0.61676 0.81557 0.0
C530 C 0.39604 0.57599 0.86708 0.0
O531 O 0.38813 0.59456 0.86576 0.0
O532 O 0.41871 0.58332 0.80711 0.0
C533 C 0.15615 0.64855 0.62481 0.0
O534 O 0.14874 0.66222 0.63782 0.0
O535 O 0.1349 0.69569 0.59974 0.0
Zn536 Zn 0.12832 0.66567 0.59413 0.0
O537 O 0.12814 0.66 0.56352 0.0
C538 C 0.09371 0.6677 0.62091 0.0
O539 O 0.10451 0.68151 0.63111 0.0
O540 O 0.1493 0.64742 0.60639 0.0
C541 C 0.11787 0.66964 0.55002 0.0
O542 O 0.10635 0.68499 0.55588 0.0
C543 C 0.14448 0.7071 0.58699 0.0
O544 O 0.15082 0.69914 0.5694 0.0
O545 O 0.10113 0.6587 0.60515 0.0
C546 C 0.00718 0.38395 0.35107 0.0
O547 O 0.02438 0.37703 0.35791 0.0
O548 O 0.04578 0.42872 0.33366 0.0
Zn549 Zn 0.03332 0.40279 0.32182 0.0
O550 O 0.05175 0.3787 0.3264 0.0
C551 C 0.02688 0.38947 0.28027 0.0
O552 O 0.02351 0.37183 0.29002 0.0
O553 O 0.00695 0.39608 0.33544 0.0
C554 C 0.07038 0.37998 0.33004 0.0
O555 O 0.07917 0.39829 0.3308 0.0
C556 C 0.05131 0.42993 0.35258 0.0
O557 O 0.0479 0.41415 0.36508 0.0
O558 O 0.0304 0.40574 0.29094 0.0
C559 C 0.41838 0.65224 0.41664 0.0
O560 O 0.41588 0.6652 0.43223 0.0
O561 O 0.37438 0.65623 0.446 0.0
Zn562 Zn 0.3768 0.65813 0.4149 0.0
O563 O 0.37559 0.68807 0.40598 0.0
C564 C 0.34545 0.62715 0.41073 0.0
O565 O 0.35333 0.61966 0.42788 0.0
O566 O 0.4032 0.64634 0.40622 0.0
C567 C 0.35935 0.69631 0.40001 0.0
O568 O 0.34285 0.68513 0.39994 0.0
C569 C 0.35858 0.66187 0.45527 0.0
O570 O 0.34385 0.66968 0.44431 0.0
O571 O 0.35373 0.64267 0.40193 0.0
C572 C 0.06028 0.6263 0.1346 0.0
O573 O 0.07078 0.63461 0.11943 0.0
O574 O 0.11107 0.5955 0.13742 0.0
Zn575 Zn 0.09934 0.62055 0.15161 0.0
O576 O 0.1084 0.64743 0.13859 0.0
C577 C 0.1232 0.61029 0.18728 0.0
O578 O 0.13342 0.6001 0.1732 0.0
O579 O 0.06933 0.61907 0.15039 0.0
C580 C 0.12205 0.65861 0.14675 0.0
O581 O 0.13162 0.65173 0.1632 0.0
C582 C 0.10131 0.58347 0.12535 0.0
O583 O 0.08293 0.58823 0.12015 0.0
O584 O 0.10776 0.62025 0.18173 0.0
C585 C 0.06981 0.3241 0.88267 0.0
O586 O 0.07253 0.30497 0.88918 0.0
O587 O 0.11155 0.33179 0.92423 0.0
Zn588 Zn 0.11078 0.32629 0.89356 0.0
O589 O 0.11327 0.29563 0.8891 0.0
C590 C 0.14077 0.35756 0.88822 0.0
O591 O 0.13069 0.36641 0.9033 0.0
O592 O 0.08461 0.33659 0.88234 0.0
C593 C 0.1298 0.28625 0.89098 0.0
O594 O 0.14603 0.29695 0.89554 0.0
C595 C 0.10201 0.32074 0.9373 0.0
O596 O 0.09123 0.30489 0.9307 0.0
O597 O 0.1343 0.34059 0.88054 0.0
C598 C 0.45169 0.36793 0.65226 0.0
O599 O 0.4386 0.36987 0.63713 0.0
O600 O 0.40464 0.38999 0.65994 0.0
Zn601 Zn 0.41561 0.36434 0.67365 0.0
O602 O 0.40626 0.33828 0.65942 0.0
C603 C 0.39096 0.37108 0.709 0.0
O604 O 0.37933 0.37889 0.69453 0.0
O605 O 0.4454 0.36538 0.67074 0.0
C606 C 0.38844 0.33141 0.65854 0.0
O607 O 0.37402 0.34192 0.66739 0.0
C608 C 0.39365 0.39045 0.64379 0.0
O609 O 0.3883 0.37299 0.63467 0.0
O610 O 0.40777 0.36371 0.70381 0.0
C611 C 0.30051 0.13439 0.35027 0.0
O612 O 0.31611 0.14675 0.3482 0.0
O613 O 0.34319 0.11058 0.32328 0.0
Zn614 Zn 0.33133 0.10482 0.35137 0.0
O615 O 0.3465 0.11914 0.37425 0.0
C616 C 0.32587 0.06081 0.34403 0.0
O617 O 0.31809 0.06705 0.32633 0.0
O618 O 0.3032 0.11493 0.35179 0.0
C619 C 0.36268 0.11157 0.38116 0.0
O620 O 0.37012 0.09505 0.3721 0.0
C621 C 0.35797 0.10036 0.31649 0.0
O622 O 0.36622 0.08626 0.32845 0.0
O623 O 0.33195 0.07426 0.35711 0.0
H624 H 0.10677 0.37662 0.34919 0.0
H625 H 0.05925 0.34019 0.32123 0.0
H626 H 0.1239 0.34456 0.359 0.0
H627 H 0.07634 0.30836 0.33094 0.0
H628 H 0.11982 0.25546 0.33593 0.0
H629 H 0.10811 0.28891 0.32313 0.0
H630 H 0.11545 0.31522 0.38456 0.0
H631 H 0.12719 0.28175 0.39747 0.0
C632 C 0.10012 0.36181 0.34493 0.0
C633 C 0.08164 0.36088 0.33454 0.0
C634 C 0.10986 0.34351 0.35062 0.0
C635 C 0.10142 0.32404 0.3457 0.0
C636 C 0.08328 0.32317 0.33473 0.0
C637 C 0.07344 0.34139 0.3293 0.0
C638 C 0.11916 0.26842 0.34668 0.0
C639 C 0.12423 0.26592 0.36777 0.0
C640 C 0.11241 0.28753 0.33934 0.0
C641 C 0.11078 0.30457 0.35289 0.0
C642 C 0.1167 0.30236 0.37376 0.0
C643 C 0.12329 0.28317 0.38116 0.0
H644 H 0.03326 0.83541 0.63738 0.0
H645 H 0.03437 0.9012 0.62361 0.0
H646 H -0.00308 0.8357 0.63702 0.0
H647 H -0.00207 0.90152 0.62361 0.0
H648 H 0.93395 0.8852 0.59986 0.0
H649 H 0.97014 0.88802 0.60255 0.0
H650 H 0.96901 0.84925 0.65745 0.0
H651 H 0.9328 0.84609 0.65457 0.0
C652 C 0.02576 0.84994 0.6343 0.0
C653 C 0.0367 0.86827 0.63049 0.0
C654 C 0.00493 0.85015 0.63429 0.0
C655 C 0.99457 0.86868 0.63047 0.0
C656 C 0.0055 0.88699 0.62649 0.0
C657 C 0.02636 0.88679 0.62653 0.0
C658 C 0.94137 0.8775 0.61267 0.0
C659 C 0.93052 0.86524 0.62688 0.0
C660 C 0.96212 0.87918 0.61425 0.0
C661 C 0.97244 0.86864 0.63006 0.0
C662 C 0.96149 0.85721 0.64486 0.0
C663 C 0.94074 0.85554 0.6433 0.0
H664 H 0.36328 0.7571 0.82247 0.0
H665 H 0.36136 0.74274 0.88821 0.0
H666 H 0.37188 0.72105 0.81493 0.0
H667 H 0.36962 0.70679 0.88061 0.0
H668 H 0.41145 0.65438 0.86133 0.0
H669 H 0.39987 0.68942 0.86824 0.0
H670 H 0.35885 0.68474 0.81639 0.0
H671 H 0.37066 0.64962 0.80922 0.0
C672 C 0.36446 0.74622 0.83527 0.0
C673 C 0.36185 0.75282 0.85594 0.0
C674 C 0.36929 0.72557 0.83094 0.0
C675 C 0.3716 0.71118 0.84721 0.0
C676 C 0.36828 0.71763 0.86779 0.0
C677 C 0.36346 0.73822 0.87212 0.0
C678 C 0.39994 0.66077 0.8514 0.0
C679 C 0.39198 0.64922 0.83472 0.0
C680 C 0.39321 0.6808 0.85545 0.0
C681 C 0.37838 0.68976 0.84291 0.0
C682 C 0.3704 0.67826 0.82621 0.0
C683 C 0.3771 0.65814 0.82218 0.0
H684 H 0.48127 0.10179 0.11181 0.0
H685 H 0.47996 0.15815 0.14844 0.0
H686 H 0.51703 0.10661 0.10638 0.0
H687 H 0.51554 0.16328 0.14254 0.0
H688 H 0.58264 0.15997 0.14102 0.0
H689 H 0.54846 0.1502 0.15009 0.0
H690 H 0.53811 0.12985 0.0868 0.0
H691 H 0.57229 0.13903 0.0779 0.0
C692 C 0.48861 0.1152 0.11871 0.0
C693 C 0.47776 0.12967 0.13044 0.0
C694 C 0.50909 0.118 0.11554 0.0
C695 C 0.51914 0.13537 0.12395 0.0
C696 C 0.50834 0.14957 0.13608 0.0
C697 C 0.48789 0.14672 0.13933 0.0
C698 C 0.57313 0.15317 0.12912 0.0
C699 C 0.58014 0.15041 0.10872 0.0
C700 C 0.55351 0.14769 0.13428 0.0
C701 C 0.5405 0.13937 0.11913 0.0
C702 C 0.54777 0.13597 0.09892 0.0
C703 C 0.56737 0.14138 0.09378 0.0
H704 H 0.10694 0.67697 0.11181 0.0
H705 H 0.14326 0.68943 0.16624 0.0
H706 H 0.10775 0.71389 0.10305 0.0
H707 H 0.14398 0.72632 0.15742 0.0
H708 H 0.11216 0.79026 0.15078 0.0
H709 H 0.11638 0.75322 0.15747 0.0
H710 H 0.13137 0.74339 0.09288 0.0
H711 H 0.12721 0.78049 0.0861 0.0
C712 C 0.11534 0.68753 0.12172 0.0
C713 C 0.12489 0.68032 0.13981 0.0
C714 C 0.11585 0.70864 0.11666 0.0
C715 C 0.12576 0.72293 0.12969 0.0
C716 C 0.13603 0.71562 0.14727 0.0
C717 C 0.1357 0.69449 0.15222 0.0
C718 C 0.11642 0.78023 0.13802 0.0
C719 C 0.11928 0.78827 0.11791 0.0
C720 C 0.11899 0.75907 0.14189 0.0
C721 C 0.12427 0.74551 0.12569 0.0
C722 C 0.12723 0.75353 0.1056 0.0
C723 C 0.12489 0.77475 0.10177 0.0
H724 H 0.44245 0.86959 0.3972 0.0
H725 H 0.4577 0.88422 0.33347 0.0
H726 H 0.47776 0.86619 0.40558 0.0
H727 H 0.49303 0.88041 0.34181 0.0
H728 H 0.55634 0.88687 0.36902 0.0
H729 H 0.52132 0.89496 0.36197 0.0
H730 H 0.50303 0.84061 0.39678 0.0
H731 H 0.53771 0.83274 0.40407 0.0
C732 C 0.45333 0.87219 0.38501 0.0
C733 C 0.44726 0.87697 0.36463 0.0
C734 C 0.47355 0.87015 0.38979 0.0
C735 C 0.48815 0.87281 0.3743 0.0
C736 C 0.48214 0.8784 0.35411 0.0
C737 C 0.46189 0.88046 0.34932 0.0
C738 C 0.5448 0.87671 0.37519 0.0
C739 C 0.54979 0.85917 0.3871 0.0
C740 C 0.52478 0.88131 0.3711 0.0
C741 C 0.50942 0.86849 0.37893 0.0
C742 C 0.51448 0.85101 0.39085 0.0
C743 C 0.53441 0.84641 0.39488 0.0
H744 H 0.34401 0.21121 0.61574 0.0
H745 H 0.39481 0.22491 0.57659 0.0
H746 H 0.34746 0.24531 0.63214 0.0
H747 H 0.3978 0.2592 0.59231 0.0
H748 H 0.41542 0.30383 0.64368 0.0
H749 H 0.40899 0.27165 0.62515 0.0
H750 H 0.34546 0.28262 0.62858 0.0
H751 H 0.35195 0.31476 0.6479 0.0
C752 C 0.35565 0.22168 0.61036 0.0
C753 C 0.36932 0.21532 0.59511 0.0
C754 C 0.35759 0.24124 0.61969 0.0
C755 C 0.37311 0.25487 0.61376 0.0
C756 C 0.38602 0.24888 0.59764 0.0
C757 C 0.38424 0.22928 0.58854 0.0
C758 C 0.40006 0.29945 0.64048 0.0
C759 C 0.38419 0.31187 0.64724 0.0
C760 C 0.39637 0.28104 0.62968 0.0
C761 C 0.37671 0.27465 0.62514 0.0
C762 C 0.36078 0.28703 0.63195 0.0
C763 C 0.36449 0.30546 0.64295 0.0
H764 H 0.01953 0.12084 0.82809 0.0
H765 H 0.03697 0.1245 0.89286 0.0
H766 H 0.98497 0.12788 0.83782 0.0
H767 H 0.00251 0.13136 0.90249 0.0
H768 H 0.9438 0.16564 0.90942 0.0
H769 H 0.97792 0.15973 0.89794 0.0
H770 H 0.9572 0.11039 0.85746 0.0
H771 H 0.92293 0.11638 0.8688 0.0
C772 C 0.016 0.12312 0.84438 0.0
C773 C 0.03098 0.12214 0.85971 0.0
C774 C -0.00379 0.12705 0.84993 0.0
C775 C 0.9911 0.13025 0.87089 0.0
C776 C 0.00608 0.12924 0.88619 0.0
C777 C 0.02579 0.12518 0.88067 0.0
C778 C 0.94647 0.15361 0.89799 0.0
C779 C 0.93067 0.14141 0.8901 0.0
C780 C 0.96603 0.15016 0.89151 0.0
C781 C 0.97021 0.13452 0.87692 0.0
C782 C 0.95438 0.12265 0.86862 0.0
C783 C 0.93479 0.12601 0.8752 0.0
H784 H 0.35728 0.10293 0.18275 0.0
H785 H 0.42008 0.10982 0.19725 0.0
H786 H 0.34953 0.10256 0.21979 0.0
H787 H 0.41223 0.10958 0.23438 0.0
H788 H 0.38966 0.08196 0.29732 0.0
H789 H 0.39896 0.08428 0.26067 0.0
H790 H 0.35064 0.12703 0.24986 0.0
H791 H 0.34121 0.12465 0.28641 0.0
C792 C 0.36943 0.10439 0.19383 0.0
C793 C 0.38929 0.10639 0.18708 0.0
C794 C 0.36497 0.10432 0.21504 0.0
C795 C 0.38027 0.10613 0.22994 0.0
C796 C 0.40015 0.10803 0.22322 0.0
C797 C 0.40462 0.10824 0.20198 0.0
C798 C 0.38111 0.09198 0.28716 0.0
C799 C 0.36463 0.10302 0.29474 0.0
C800 C 0.3865 0.09337 0.26621 0.0
C801 C 0.37543 0.10572 0.25242 0.0
C802 C 0.35926 0.11716 0.2601 0.0
C803 C 0.35395 0.11588 0.28106 0.0
H804 H 0.11747 0.19993 0.46954 0.0
H805 H 0.18196 0.20278 0.47188 0.0
H806 H 0.11697 0.18298 0.50346 0.0
H807 H 0.18147 0.18536 0.50547 0.0
H808 H 0.17523 0.16255 0.57106 0.0
H809 H 0.17273 0.1866 0.54186 0.0
H810 H 0.12566 0.14861 0.51517 0.0
H811 H 0.12779 0.12492 0.54456 0.0
C812 C 0.13153 0.19716 0.47739 0.0
C813 C 0.14977 0.20249 0.46791 0.0
C814 C 0.13124 0.18733 0.49677 0.0
C815 C 0.14918 0.18256 0.50706 0.0
C816 C 0.16737 0.18894 0.49808 0.0
C817 C 0.16765 0.19885 0.47874 0.0
C818 C 0.16418 0.15948 0.55908 0.0
C819 C 0.15183 0.14171 0.56002 0.0
C820 C 0.16281 0.17322 0.54231 0.0
C821 C 0.1491 0.16947 0.52611 0.0
C822 C 0.13622 0.15213 0.5275 0.0
C823 C 0.13755 0.13844 0.54429 0.0
H824 H 0.0806 0.86647 0.80694 0.0
H825 H 0.14159 0.8464 0.79952 0.0
H826 H 0.0756 0.86386 0.76924 0.0
H827 H 0.1365 0.8436 0.76199 0.0
H828 H 0.11483 0.8283 0.69576 0.0
H829 H 0.11569 0.82456 0.73368 0.0
H830 H 0.09209 0.88645 0.7404 0.0
H831 H 0.0914 0.89034 0.70261 0.0
C832 C 0.09274 0.86098 0.79734 0.0
C833 C 0.11151 0.85677 0.80609 0.0
C834 C 0.08993 0.85964 0.77579 0.0
C835 C 0.10572 0.85369 0.76277 0.0
C836 C 0.12406 0.84812 0.7717 0.0
C837 C 0.12697 0.8498 0.79315 0.0
C838 C 0.10975 0.84106 0.70535 0.0
C839 C 0.10318 0.85967 0.69625 0.0
C840 C 0.11024 0.8389 0.727 0.0
C841 C 0.10382 0.85516 0.73988 0.0
C842 C 0.09686 0.87358 0.73078 0.0
C843 C 0.09667 0.87587 0.70918 0.0
H844 H 0.40279 0.83701 0.95147 0.0
H845 H 0.34588 0.80505 0.95483 0.0
H846 H 0.40057 0.84542 0.98842 0.0
H847 H 0.34401 0.81268 0.99186 0.0
H848 H 0.33354 0.85654 0.04656 0.0
H849 H 0.33774 0.84295 0.01169 0.0
H850 H 0.40052 0.83334 0.02386 0.0
H851 H 0.39641 0.84772 0.0588 0.0
C852 C 0.38999 0.83145 0.9602 0.0
C853 C 0.37437 0.82064 0.95022 0.0
C854 C 0.38877 0.83615 0.98141 0.0
C855 C 0.372 0.82993 0.99308 0.0
C856 C 0.35691 0.81815 0.98325 0.0
C857 C 0.35801 0.81369 0.96204 0.0
C858 C 0.34823 0.85138 0.04192 0.0
C859 C 0.36467 0.85333 0.05543 0.0
C860 C 0.35062 0.84342 0.02192 0.0
C861 C 0.36947 0.837 0.01494 0.0
C862 C 0.38584 0.83839 0.02865 0.0
C863 C 0.38347 0.84651 0.04871 0.0
H864 H 0.393 0.8948 0.26716 0.0
H865 H 0.39197 0.8277 0.26331 0.0
H866 H 0.39005 0.89702 0.22949 0.0
H867 H 0.3889 0.83 0.22532 0.0
H868 H 0.35308 0.85029 0.16441 0.0
H869 H 0.36162 0.84338 0.20072 0.0
H870 H 0.40981 0.88826 0.19717 0.0
H871 H 0.40134 0.89524 0.1609 0.0
C872 C 0.39223 0.8805 0.25825 0.0
C873 C 0.39262 0.86106 0.2682 0.0
C874 C 0.39072 0.88179 0.23666 0.0
C875 C 0.38936 0.86368 0.22451 0.0
C876 C 0.38991 0.84419 0.23437 0.0
C877 C 0.3917 0.84289 0.25606 0.0
C878 C 0.36571 0.85843 0.17127 0.0
C879 C 0.37638 0.87351 0.15987 0.0
C880 C 0.37065 0.85438 0.19201 0.0
C881 C 0.38623 0.86544 0.20177 0.0
C882 C 0.39757 0.87969 0.19006 0.0
C883 C 0.39275 0.88362 0.16928 0.0
H884 H 0.38686 0.16884 0.50219 0.0
H885 H 0.39789 0.10294 0.50754 0.0
H886 H 0.38332 0.16511 0.46457 0.0
H887 H 0.39383 0.09912 0.47011 0.0
H888 H 0.39639 0.09823 0.40096 0.0
H889 H 0.40732 0.10693 0.43617 0.0
H890 H 0.35847 0.15005 0.44181 0.0
H891 H 0.3479 0.14183 0.40653 0.0
C892 C 0.38863 0.15358 0.49533 0.0
C893 C 0.39247 0.13614 0.50785 0.0
C894 C 0.38654 0.15144 0.47379 0.0
C895 C 0.3882 0.13181 0.46434 0.0
C896 C 0.39274 0.11452 0.47682 0.0
C897 C 0.3949 0.11667 0.49833 0.0
C898 C 0.38821 0.10985 0.40959 0.0
C899 C 0.37113 0.11914 0.40106 0.0
C900 C 0.3944 0.11474 0.4298 0.0
C901 C 0.38361 0.12896 0.4419 0.0
C902 C 0.36723 0.13915 0.43289 0.0
C903 C 0.36109 0.13433 0.41267 0.0
H904 H 0.13487 0.08834 0.76918 0.0
H905 H 0.0933 0.13924 0.76508 0.0
H906 H 0.14527 0.0947 0.73359 0.0
H907 H 0.10414 0.14596 0.72935 0.0
H908 H 0.1133 0.13189 0.65828 0.0
H909 H 0.10262 0.13021 0.69462 0.0
H910 H 0.16371 0.11999 0.71366 0.0
H911 H 0.17422 0.12105 0.67748 0.0
C912 C 0.12804 0.101 0.76072 0.0
C913 C 0.11328 0.11331 0.76997 0.0
C914 C 0.13412 0.10476 0.74034 0.0
C915 C 0.12569 0.12099 0.72871 0.0
C916 C 0.11084 0.13327 0.73789 0.0
C917 C 0.10468 0.12947 0.75835 0.0
C918 C 0.12445 0.1296 0.67029 0.0
C919 C 0.14453 0.12629 0.66505 0.0
C920 C 0.11835 0.12869 0.69109 0.0
C921 C 0.13228 0.1246 0.70697 0.0
C922 C 0.15253 0.12261 0.70174 0.0
C923 C 0.15857 0.12333 0.68102 0.0
H924 H 0.09984 0.89714 0.02308 0.0
H925 H 0.11621 0.83229 0.02228 0.0
H926 H 0.09827 0.89715 0.9852 0.0
H927 H 0.11403 0.83211 0.98443 0.0
H928 H 0.13681 0.85007 0.91892 0.0
H929 H 0.13317 0.84601 0.95627 0.0
H930 H 0.08059 0.88451 0.95493 0.0
H931 H 0.08459 0.88911 0.91746 0.0
C932 C 0.10288 0.88283 0.01483 0.0
C933 C 0.10836 0.86479 0.02566 0.0
C934 C 0.1018 0.88277 0.9931 0.0
C935 C 0.10605 0.86462 0.98176 0.0
C936 C 0.11096 0.84643 0.99267 0.0
C937 C 0.11217 0.84653 0.01437 0.0
C938 C 0.12428 0.85742 0.92649 0.0
C939 C 0.11114 0.87014 0.91524 0.0
C940 C 0.12213 0.855 0.94795 0.0
C941 C 0.10671 0.86513 0.95865 0.0
C942 C 0.09286 0.87684 0.9472 0.0
C943 C 0.09506 0.87934 0.92571 0.0
H944 H 0.27773 0.30855 0.15819 0.0
H945 H 0.28662 0.36407 0.12135 0.0
H946 H 0.24251 0.31729 0.16238 0.0
H947 H 0.25157 0.37252 0.12519 0.0
H948 H 0.19066 0.3908 0.14487 0.0
H949 H 0.22593 0.38303 0.1495 0.0
H950 H 0.21339 0.31782 0.13921 0.0
H951 H 0.17804 0.32551 0.13504 0.0
C952 C 0.27224 0.3227 0.15117 0.0
C953 C 0.28493 0.33553 0.13931 0.0
C954 C 0.25206 0.32764 0.15348 0.0
C955 C 0.24423 0.34556 0.14406 0.0
C956 C 0.25714 0.35875 0.13288 0.0
C957 C 0.27724 0.35381 0.13054 0.0
C958 C 0.19538 0.37476 0.14388 0.0
C959 C 0.18159 0.3588 0.13931 0.0
C960 C 0.2156 0.37033 0.14647 0.0
C961 C 0.22249 0.34985 0.14447 0.0
C962 C 0.20855 0.33374 0.14101 0.0
C963 C 0.18829 0.33817 0.13848 0.0
H964 H 0.71332 0.07618 0.86102 0.0
H965 H 0.72747 0.13612 0.83416 0.0
H966 H 0.74812 0.07212 0.87129 0.0
H967 H 0.76216 0.13222 0.84479 0.0
H968 H 0.82568 0.11718 0.85812 0.0
H969 H 0.79337 0.11308 0.84094 0.0
H970 H 0.76815 0.08924 0.89809 0.0
H971 H 0.80043 0.09295 0.91515 0.0
C972 C 0.72389 0.08839 0.8571 0.0
C973 C 0.71759 0.10662 0.84703 0.0
C974 C 0.74381 0.08608 0.86304 0.0
C975 C 0.75784 0.10192 0.85904 0.0
C976 C 0.75176 0.11962 0.84794 0.0
C977 C 0.73183 0.12193 0.84196 0.0
C978 C 0.81334 0.11064 0.8669 0.0
C979 C 0.81554 0.10564 0.8881 0.0
C980 C 0.79481 0.10842 0.85707 0.0
C981 C 0.77816 0.10108 0.86822 0.0
C982 C 0.78071 0.09479 0.88901 0.0
C983 C 0.79921 0.09704 0.89884 0.0
H984 H 0.12065 0.45305 0.09279 0.0
H985 H 0.1452 0.46409 0.15415 0.0
H986 H 0.11556 0.49031 0.08844 0.0
H987 H 0.13967 0.50116 0.15001 0.0
H988 H 0.13835 0.56831 0.13443 0.0
H989 H 0.14934 0.5324 0.13159 0.0
H990 H 0.09296 0.51553 0.10309 0.0
H991 H 0.08217 0.55146 0.10542 0.0
C992 C 0.12508 0.46343 0.1053 0.0
C993 C 0.13318 0.45561 0.12389 0.0
C994 C 0.12209 0.48477 0.10282 0.0
C995 C 0.12714 0.49871 0.11889 0.0
C996 C 0.13588 0.49091 0.13719 0.0
C997 C 0.1389 0.46961 0.13964 0.0
C998 C 0.12845 0.55702 0.12718 0.0
C999 C 0.10927 0.56268 0.12041 0.0
C1000 C 0.13471 0.53642 0.12568 0.0
C1001 C 0.12191 0.52105 0.11742 0.0
C1002 C 0.10324 0.52699 0.10942 0.0
C1003 C 0.09701 0.54761 0.11085 0.0
H1004 H 0.66179 0.87657 0.35455 0.0
H1005 H 0.67459 0.90507 0.41413 0.0
H1006 H 0.6966 0.8812 0.34446 0.0
H1007 H 0.70943 0.90925 0.40421 0.0
H1008 H 0.77042 0.92217 0.37805 0.0
H1009 H 0.73429 0.92524 0.38167 0.0
H1010 H 0.72663 0.86366 0.35575 0.0
H1011 H 0.76259 0.86076 0.35174 0.0
C1012 C 0.67195 0.88412 0.36538 0.0
C1013 C 0.66548 0.89017 0.38527 0.0
C1014 C 0.69192 0.88665 0.35963 0.0
C1015 C 0.70586 0.89528 0.37365 0.0
C1016 C 0.69908 0.90265 0.39298 0.0
C1017 C 0.67909 0.90016 0.39872 0.0
C1018 C 0.76099 0.9094 0.37288 0.0
C1019 C 0.76938 0.89114 0.36479 0.0
C1020 C 0.7403 0.91114 0.37503 0.0
C1021 C 0.72758 0.89468 0.36909 0.0
C1022 C 0.73596 0.87676 0.36023 0.0
C1023 C 0.75662 0.87502 0.35809 0.0
H1024 H 0.89412 0.91331 0.11584 0.0
H1025 H 0.83793 0.90497 0.14795 0.0
H1026 H 0.88738 0.95027 0.11217 0.0
H1027 H 0.83134 0.94206 0.1444 0.0
H1028 H 0.82167 0.00963 0.12329 0.0
H1029 H 0.82551 0.97195 0.11998 0.0
H1030 H 0.88714 0.97775 0.13931 0.0
H1031 H 0.88341 0.01517 0.14251 0.0
C1032 C 0.88018 0.91928 0.12181 0.0
C1033 C 0.8667 0.90625 0.13249 0.0
C1034 C 0.87638 0.94047 0.11979 0.0
C1035 C 0.85901 0.94908 0.12832 0.0
C1036 C 0.84485 0.93584 0.13765 0.0
C1037 C 0.84866 0.9146 0.13973 0.0
C1038 C 0.83605 0.00284 0.12673 0.0
C1039 C 0.85223 0.01536 0.13321 0.0
C1040 C 0.83822 0.98129 0.12487 0.0
C1041 C 0.85665 0.97195 0.12923 0.0
C1042 C 0.87284 0.98454 0.13549 0.0
C1043 C 0.87064 0.00598 0.13751 0.0
H1044 H 0.17635 0.64785 0.66206 0.0
H1045 H 0.17584 0.6209 0.60039 0.0
H1046 H 0.20738 0.62964 0.66982 0.0
H1047 H 0.20691 0.60344 0.60781 0.0
H1048 H 0.25807 0.56528 0.62711 0.0
H1049 H 0.22363 0.5772 0.62668 0.0
H1050 H 0.24162 0.63297 0.65961 0.0
H1051 H 0.27584 0.62062 0.66076 0.0
C1052 C 0.18275 0.63793 0.65024 0.0
C1053 C 0.17372 0.63598 0.63056 0.0
C1054 C 0.20058 0.62758 0.65464 0.0
C1055 C 0.20973 0.61514 0.63942 0.0
C1056 C 0.2002 0.6126 0.62005 0.0
C1057 C 0.1824 0.62281 0.61571 0.0
C1058 C 0.25459 0.57993 0.63453 0.0
C1059 C 0.2697 0.59214 0.64372 0.0
C1060 C 0.23487 0.58682 0.63421 0.0
C1061 C 0.22988 0.6062 0.64283 0.0
C1062 C 0.24485 0.61788 0.65299 0.0
C1063 C 0.26453 0.61087 0.65352 0.0
H1064 H 0.06213 0.4642 0.33014 0.0
H1065 H 0.06823 0.43612 0.39095 0.0
H1066 H 0.08414 0.49252 0.34086 0.0
H1067 H 0.09057 0.46442 0.40156 0.0
H1068 H 0.11218 0.53181 0.41735 0.0
H1069 H 0.09069 0.5022 0.40868 0.0
H1070 H 0.1197 0.49696 0.34892 0.0
H1071 H 0.14093 0.52669 0.35737 0.0
C1072 C 0.06811 0.46409 0.34583 0.0
C1073 C 0.06348 0.44786 0.35967 0.0
C1074 C 0.08087 0.48024 0.35191 0.0
C1075 C 0.08929 0.48055 0.37197 0.0
C1076 C 0.08425 0.46463 0.38602 0.0
C1077 C 0.07149 0.44841 0.37992 0.0
C1078 C 0.11413 0.52419 0.40246 0.0
C1079 C 0.12813 0.53173 0.38797 0.0
C1080 C 0.10184 0.5072 0.39752 0.0
C1081 C 0.10333 0.49746 0.37801 0.0
C1082 C 0.11792 0.50445 0.36391 0.0
C1083 C 0.13019 0.52139 0.36883 0.0
H1084 H 0.40965 0.53705 0.87513 0.0
H1085 H 0.35836 0.57652 0.88353 0.0
H1086 H 0.39047 0.50744 0.88766 0.0
H1087 H 0.33915 0.54676 0.89644 0.0
H1088 H 0.30859 0.48254 0.87878 0.0
H1089 H 0.32589 0.51597 0.87809 0.0
H1090 H 0.3729 0.49088 0.91654 0.0
H1091 H 0.35581 0.45729 0.91691 0.0
C1092 C 0.39439 0.5395 0.88007 0.0
C1093 C 0.38543 0.55905 0.87804 0.0
C1094 C 0.38343 0.52254 0.88744 0.0
C1095 C 0.36324 0.52474 0.89292 0.0
C1096 C 0.35462 0.54457 0.8921 0.0
C1097 C 0.36564 0.56161 0.8848 0.0
C1098 C 0.3224 0.48426 0.88745 0.0
C1099 C 0.33105 0.46717 0.89751 0.0
C1100 C 0.33226 0.50348 0.88718 0.0
C1101 C 0.3509 0.50596 0.89703 0.0
C1102 C 0.35873 0.48931 0.90849 0.0
C1103 C 0.34891 0.47009 0.90872 0.0
H1104 H 0.89051 0.68312 0.58436 0.0
H1105 H 0.8771 0.69047 0.64977 0.0
H1106 H 0.88025 0.71895 0.57808 0.0
H1107 H 0.86672 0.72606 0.6434 0.0
H1108 H 0.88137 0.79464 0.62794 0.0
H1109 H 0.88607 0.75769 0.63397 0.0
H1110 H 0.85109 0.74343 0.57912 0.0
H1111 H 0.84643 0.78062 0.57293 0.0
C1112 C 0.88512 0.69225 0.59733 0.0
C1113 C 0.88484 0.68404 0.61759 0.0
C1114 C 0.87915 0.71272 0.59371 0.0
C1115 C 0.87288 0.72532 0.6103 0.0
C1116 C 0.87178 0.71679 0.63038 0.0
C1117 C 0.87767 0.69637 0.63399 0.0
C1118 C 0.87454 0.78366 0.61723 0.0
C1119 C 0.86358 0.79054 0.59992 0.0
C1120 C 0.87713 0.76248 0.62077 0.0
C1121 C 0.86891 0.7477 0.60703 0.0
C1122 C 0.85768 0.75452 0.58988 0.0
C1123 C 0.85494 0.77578 0.58642 0.0
H1124 H 0.0116 0.12027 0.32948 0.0
H1125 H 0.00315 0.10256 0.3938 0.0
H1126 H 0.04378 0.13596 0.33843 0.0
H1127 H 0.03512 0.11855 0.40276 0.0
H1128 H 0.10035 0.13658 0.40988 0.0
H1129 H 0.07138 0.11639 0.39822 0.0
H1130 H 0.05404 0.16695 0.35796 0.0
H1131 H 0.08309 0.18696 0.3693 0.0
C1132 C 0.01667 0.11957 0.34548 0.0
C1133 C 0.00474 0.11032 0.36096 0.0
C1134 C 0.03506 0.12865 0.35062 0.0
C1135 C 0.04191 0.12863 0.37132 0.0
C1136 C 0.03035 0.11866 0.38664 0.0
C1137 C 0.01196 0.1096 0.38151 0.0
C1138 C 0.09044 0.14331 0.39841 0.0
C1139 C 0.09395 0.16342 0.3906 0.0
C1140 C 0.07381 0.13178 0.3918 0.0
C1141 C 0.06041 0.14009 0.37721 0.0
C1142 C 0.06422 0.15999 0.36902 0.0
C1143 C 0.0808 0.17153 0.37565 0.0
H1144 H 0.59265 0.24119 0.05685 0.0
H1145 H 0.63671 0.23096 0.10499 0.0
H1146 H 0.58606 0.27559 0.07112 0.0
H1147 H 0.62981 0.26511 0.11947 0.0
H1148 H 0.62261 0.33334 0.13337 0.0
H1149 H 0.63213 0.3025 0.1137 0.0
H1150 H 0.56985 0.28825 0.10246 0.0
H1151 H 0.56035 0.31919 0.12167 0.0
C1152 C 0.60103 0.24632 0.07038 0.0
C1153 C 0.61508 0.23328 0.07989 0.0
C1154 C 0.59718 0.26599 0.0786 0.0
C1155 C 0.60731 0.27301 0.0965 0.0
C1156 C 0.6219 0.26027 0.10553 0.0
C1157 C 0.62576 0.24062 0.09731 0.0
C1158 C 0.61096 0.32374 0.1265 0.0
C1159 C 0.59072 0.32862 0.12922 0.0
C1160 C 0.61642 0.30603 0.11532 0.0
C1161 C 0.60175 0.29288 0.10661 0.0
C1162 C 0.58154 0.29818 0.10875 0.0
C1163 C 0.57608 0.31585 0.11991 0.0
H1164 H 0.41001 0.82724 0.85203 0.0
H1165 H 0.3954 0.88531 0.88207 0.0
H1166 H 0.44282 0.84089 0.84335 0.0
H1167 H 0.42826 0.89922 0.87286 0.0
H1168 H 0.49734 0.9006 0.88162 0.0
H1169 H 0.46194 0.89246 0.88495 0.0
H1170 H 0.46189 0.8656 0.82325 0.0
H1171 H 0.49747 0.87325 0.82013 0.0
C1172 C 0.41366 0.84308 0.85646 0.0
C1173 C 0.40018 0.85511 0.86798 0.0
C1174 C 0.43247 0.85097 0.85133 0.0
C1175 C 0.43821 0.87111 0.85753 0.0
C1176 C 0.42436 0.88353 0.86814 0.0
C1177 C 0.40551 0.87561 0.87331 0.0
C1178 C 0.48974 0.89314 0.86868 0.0
C1179 C 0.50026 0.88731 0.85073 0.0
C1180 C 0.46939 0.88863 0.87052 0.0
C1181 C 0.45911 0.87828 0.85441 0.0
C1182 C 0.46946 0.8733 0.83607 0.0
C1183 C 0.48983 0.87772 0.83427 0.0
H1184 H 0.85567 0.2033 0.91813 0.0
H1185 H 0.84792 0.19531 0.85177 0.0
H1186 H 0.8509 0.24065 0.91424 0.0
H1187 H 0.84377 0.23258 0.8478 0.0
H1188 H 0.82813 0.29925 0.8452 0.0
H1189 H 0.82367 0.26269 0.85434 0.0
H1190 H 0.87073 0.26844 0.90022 0.0
H1191 H 0.87475 0.30493 0.89159 0.0
C1192 C 0.85285 0.2095 0.90273 0.0
C1193 C 0.85239 0.19639 0.88522 0.0
C1194 C 0.85016 0.2309 0.9005 0.0
C1195 C 0.84706 0.23964 0.8807 0.0
C1196 C 0.84584 0.22638 0.86333 0.0
C1197 C 0.84841 0.20499 0.86557 0.0
C1198 C 0.83721 0.2928 0.85755 0.0
C1199 C 0.85201 0.30491 0.86743 0.0
C1200 C 0.83474 0.27182 0.86269 0.0
C1201 C 0.84705 0.26255 0.87778 0.0
C1202 C 0.86088 0.27507 0.88863 0.0
C1203 C 0.86329 0.29602 0.88356 0.0
H1204 H 0.43477 0.09253 0.60266 0.0
H1205 H 0.45047 0.15625 0.58824 0.0
H1206 H 0.46967 0.08563 0.61147 0.0
H1207 H 0.48507 0.14927 0.59647 0.0
H1208 H 0.54285 0.1375 0.62797 0.0
H1209 H 0.50691 0.14194 0.62514 0.0
H1210 H 0.50182 0.08269 0.5937 0.0
H1211 H 0.53782 0.07794 0.59712 0.0
C1212 C 0.44562 0.10506 0.60143 0.0
C1213 C 0.43985 0.12493 0.59473 0.0
C1214 C 0.4656 0.10108 0.60637 0.0
C1215 C 0.48013 0.11692 0.60475 0.0
C1216 C 0.47423 0.13681 0.59829 0.0
C1217 C 0.45436 0.14077 0.5934 0.0
C1218 C 0.53405 0.12532 0.62062 0.0
C1219 C 0.54318 0.1075 0.61252 0.0
C1220 C 0.51346 0.1279 0.61893 0.0
C1221 C 0.50154 0.11281 0.60892 0.0
C1222 C 0.51056 0.09454 0.60162 0.0
C1223 C 0.5312 0.09187 0.60347 0.0
H1224 H 0.65032 0.78236 0.40717 0.0
H1225 H 0.61096 0.79789 0.35617 0.0
H1226 H 0.65009 0.74594 0.39582 0.0
H1227 H 0.61102 0.76173 0.34476 0.0
H1228 H 0.63011 0.69909 0.31955 0.0
H1229 H 0.63654 0.7348 0.33083 0.0
H1230 H 0.62116 0.71797 0.39386 0.0
H1231 H 0.6145 0.68225 0.38264 0.0
C1232 C 0.64184 0.77804 0.39342 0.0
C1233 C 0.63059 0.7929 0.38258 0.0
C1234 C 0.64166 0.75726 0.387 0.0
C1235 C 0.6306 0.75114 0.3694 0.0
C1236 C 0.61983 0.76611 0.35826 0.0
C1237 C 0.6197 0.78676 0.36487 0.0
C1238 C 0.62838 0.70291 0.33587 0.0
C1239 C 0.62161 0.68793 0.35018 0.0
C1240 C 0.632 0.72334 0.34228 0.0
C1241 C 0.62924 0.72907 0.36316 0.0
C1242 C 0.6235 0.71388 0.37769 0.0
C1243 C 0.61959 0.6935 0.37124 0.0
H1244 H 0.06882 0.86021 0.15466 0.0
H1245 H 0.06135 0.88084 0.09119 0.0
H1246 H 0.03261 0.86001 0.15924 0.0
H1247 H 0.02533 0.88154 0.09593 0.0
H1248 H 0.96493 0.8495 0.10027 0.0
H1249 H 0.00073 0.85498 0.09805 0.0
H1250 H 0.00153 0.87833 0.1612 0.0
H1251 H 0.96555 0.87211 0.16364 0.0
C1252 C 0.05945 0.8653 0.14191 0.0
C1253 C 0.06782 0.87027 0.12249 0.0
C1254 C 0.0387 0.86521 0.14451 0.0
C1255 C 0.02602 0.87034 0.1278 0.0
C1256 C 0.0346 0.87688 0.10892 0.0
C1257 C 0.05525 0.87667 0.10624 0.0
C1258 C 0.9727 0.85584 0.11368 0.0
C1259 C 0.9624 0.86036 0.13212 0.0
C1260 C 0.99325 0.85918 0.11236 0.0
C1261 C 0.00403 0.86735 0.12937 0.0
C1262 C 0.99372 0.8719 0.14786 0.0
C1263 C 0.9731 0.86839 0.14923 0.0
H1264 H 0.62669 0.90743 0.67434 0.0
H1265 H 0.63411 0.84108 0.68156 0.0
H1266 H 0.61366 0.90962 0.7095 0.0
H1267 H 0.62096 0.84342 0.71708 0.0
H1268 H 0.57649 0.8582 0.77226 0.0
H1269 H 0.58872 0.85312 0.73671 0.0
H1270 H 0.62955 0.90485 0.74467 0.0
H1271 H 0.61744 0.91 0.77994 0.0
C1272 C 0.62545 0.89326 0.68338 0.0
C1273 C 0.63161 0.87408 0.67519 0.0
C1274 C 0.61807 0.89457 0.70357 0.0
C1275 C 0.61656 0.87674 0.71607 0.0
C1276 C 0.62198 0.8574 0.70772 0.0
C1277 C 0.62954 0.85609 0.68745 0.0
C1278 C 0.58815 0.86841 0.76643 0.0
C1279 C 0.59589 0.88462 0.77885 0.0
C1280 C 0.59519 0.86542 0.74615 0.0
C1281 C 0.60992 0.87872 0.73793 0.0
C1282 C 0.61796 0.89457 0.75053 0.0
C1283 C 0.61107 0.89745 0.77077 0.0
H1284 H 0.89867 0.82693 0.5237 0.0
H1285 H 0.85556 0.87514 0.53559 0.0
H1286 H 0.89176 0.82949 0.4864 0.0
H1287 H 0.84902 0.87796 0.49852 0.0
H1288 H 0.82679 0.86612 0.43433 0.0
H1289 H 0.83344 0.85821 0.47071 0.0
H1290 H 0.89648 0.85377 0.45731 0.0
H1291 H 0.88976 0.8612 0.4207 0.0
C1292 C 0.8878 0.83811 0.51837 0.0
C1293 C 0.87763 0.8508 0.5326 0.0
C1294 C 0.88389 0.8396 0.49702 0.0
C1295 C 0.86971 0.85378 0.48954 0.0
C1296 C 0.85971 0.86656 0.50381 0.0
C1297 C 0.86359 0.86506 0.52507 0.0
C1298 C 0.84205 0.86318 0.43907 0.0
C1299 C 0.85778 0.86453 0.42471 0.0
C1300 C 0.84587 0.85877 0.45994 0.0
C1301 C 0.86553 0.85575 0.46695 0.0
C1302 C 0.88116 0.85597 0.45238 0.0
C1303 C 0.87732 0.86028 0.43142 0.0
H1304 H 0.85825 0.0791 0.19466 0.0
H1305 H 0.88853 0.13206 0.16735 0.0
H1306 H 0.87779 0.08347 0.22633 0.0
H1307 H 0.90828 0.1363 0.19921 0.0
H1308 H 0.92172 0.14796 0.2703 0.0
H1309 H 0.90389 0.14546 0.23711 0.0
H1310 H 0.91324 0.07911 0.23638 0.0
H1311 H 0.93082 0.08149 0.26947 0.0
C1312 C 0.86904 0.09172 0.19542 0.0
C1313 C 0.87188 0.10519 0.17844 0.0
C1314 C 0.88034 0.09412 0.21353 0.0
C1315 C 0.89471 0.11009 0.21515 0.0
C1316 C 0.89727 0.12389 0.19839 0.0
C1317 C 0.88601 0.12141 0.18016 0.0
C1318 C 0.92016 0.13288 0.26294 0.0
C1319 C 0.92753 0.1149 0.27263 0.0
C1320 C 0.91 0.13147 0.24391 0.0
C1321 C 0.90696 0.11206 0.23431 0.0
C1322 C 0.91502 0.09423 0.24362 0.0
C1323 C 0.92521 0.09563 0.26253 0.0
H1324 H 0.65932 0.14226 0.90598 0.0
H1325 H 0.59556 0.13219 0.90115 0.0
H1326 H 0.65557 0.15203 0.94229 0.0
H1327 H 0.59176 0.1425 0.93747 0.0
H1328 H 0.59922 0.12842 0.00767 0.0
H1329 H 0.60036 0.12551 0.96996 0.0
H1330 H 0.6427 0.17653 0.96745 0.0
H1331 H 0.64192 0.17915 0.00535 0.0
C1332 C 0.64443 0.14256 0.91253 0.0
C1333 C 0.62777 0.13614 0.90075 0.0
C1334 C 0.64228 0.14829 0.93336 0.0
C1335 C 0.62339 0.14778 0.94285 0.0
C1336 C 0.60656 0.14265 0.9307 0.0
C1337 C 0.60872 0.13689 0.90985 0.0
C1338 C 0.60871 0.1391 -0.0009 0.0
C1339 C 0.62062 0.15389 0.00952 0.0
C1340 C 0.60921 0.13756 0.97744 0.0
C1341 C 0.62159 0.15082 0.96568 0.0
C1342 C 0.63316 0.16595 0.97608 0.0
C1343 C 0.63269 0.16746 -0.00222 0.0
H1344 H 0.63121 0.13771 0.79338 0.0
H1345 H 0.65734 0.0805 0.77153 0.0
H1346 H 0.62143 0.14624 0.75776 0.0
H1347 H 0.6472 0.08876 0.73619 0.0
H1348 H 0.64272 0.11717 0.67249 0.0
H1349 H 0.65441 0.11237 0.70806 0.0
H1350 H 0.59788 0.13439 0.73131 0.0
H1351 H 0.58635 0.13973 0.69569 0.0
C1352 C 0.63487 0.12697 0.781 0.0
C1353 C 0.64505 0.10842 0.78528 0.0
C1354 C 0.62918 0.1318 0.76061 0.0
C1355 C 0.63356 0.1182 0.74412 0.0
C1356 C 0.64388 0.09975 0.74845 0.0
C1357 C 0.64958 0.09494 0.76877 0.0
C1358 C 0.63282 0.12113 0.68519 0.0
C1359 C 0.61355 0.1287 0.68127 0.0
C1360 C 0.63949 0.11828 0.70558 0.0
C1361 C 0.62701 0.12282 0.72253 0.0
C1362 C 0.60794 0.13094 0.71862 0.0
C1363 C 0.60129 0.13389 0.69819 0.0
H1364 H 0.61382 0.81264 0.4691 0.0
H1365 H 0.60806 0.87869 0.45855 0.0
H1366 H 0.61575 0.81892 0.50667 0.0
H1367 H 0.60985 0.88485 0.49593 0.0
H1368 H 0.59677 0.88792 0.56449 0.0
H1369 H 0.58982 0.87697 0.52879 0.0
H1370 H 0.64155 0.83738 0.53009 0.0
H1371 H 0.64861 0.84832 0.56578 0.0
C1372 C 0.61282 0.82845 0.4748 0.0
C1373 C 0.61088 0.84518 0.46089 0.0
C1374 C 0.61395 0.83202 0.49625 0.0
C1375 C 0.61283 0.85234 0.50415 0.0
C1376 C 0.61048 0.869 0.49026 0.0
C1377 C 0.60963 0.86548 0.46886 0.0
C1378 C 0.60645 0.87658 0.55732 0.0
C1379 C 0.62337 0.86917 0.56785 0.0
C1380 C 0.60252 0.87041 0.53686 0.0
C1381 C 0.61527 0.85651 0.52667 0.0
C1382 C 0.63144 0.84806 0.53763 0.0
C1383 C 0.63552 0.8544 0.55802 0.0
H1384 H 0.86243 0.85732 0.32533 0.0
H1385 H 0.83154 0.90548 0.2915 0.0
H1386 H 0.87663 0.84466 0.29271 0.0
H1387 H 0.84593 0.89308 0.25915 0.0
H1388 H 0.86055 0.85645 0.20215 0.0
H1389 H 0.8446 0.86364 0.23533 0.0
H1390 H 0.90128 0.85686 0.26677 0.0
H1391 H 0.91727 0.84924 0.23352 0.0
C1392 C 0.85859 0.86513 0.31094 0.0
C1393 C 0.84588 0.88242 0.31098 0.0
C1394 C 0.86681 0.85794 0.2923 0.0
C1395 C 0.86238 0.86785 0.27337 0.0
C1396 C 0.8494 0.88491 0.27343 0.0
C1397 C 0.84125 0.89211 0.29201 0.0
C1398 C 0.86961 0.85629 0.21615 0.0
C1399 C 0.89024 0.85251 0.21518 0.0
C1400 C 0.86047 0.86049 0.23515 0.0
C1401 C 0.87173 0.86107 0.25362 0.0
C1402 C 0.89219 0.8564 0.25281 0.0
C1403 C 0.90136 0.85214 0.23375 0.0
H1404 H 0.8792 0.16208 0.98595 0.0
H1405 H 0.87029 0.0992 0.96378 0.0
H1406 H 0.87856 0.14953 0.0218 0.0
H1407 H 0.8694 0.08676 -0.00045 0.0
H1408 H 0.88405 0.06816 0.06543 0.0
H1409 H 0.89031 0.08239 0.03083 0.0
H1410 H 0.85291 0.13489 0.0451 0.0
H1411 H 0.84687 0.12089 0.07974 0.0
C1412 C 0.87718 0.14559 0.98871 0.0
C1413 C 0.87469 0.13165 0.97203 0.0
C1414 C 0.87676 0.13842 0.00924 0.0
C1415 C 0.87392 0.11717 0.01348 0.0
C1416 C 0.87188 0.10319 -0.00322 0.0
C1417 C 0.87223 0.11035 0.97628 0.0
C1418 C 0.87738 0.08287 0.06129 0.0
C1419 C 0.86482 0.0933 0.07526 0.0
C1420 C 0.88088 0.09095 0.04143 0.0
C1421 C 0.87197 0.10966 0.0352 0.0
C1422 C 0.86012 0.12053 0.0495 0.0
C1423 C 0.85657 0.11243 0.06932 0.0
H1424 H 0.77029 0.652 0.84367 0.0
H1425 H 0.75028 0.59012 0.86026 0.0
H1426 H 0.7362 0.6646 0.84715 0.0
H1427 H 0.71633 0.6028 0.86404 0.0
H1428 H 0.65445 0.62864 0.8576 0.0
H1429 H 0.68731 0.6175 0.84583 0.0
H1430 H 0.71445 0.66999 0.87734 0.0
H1431 H 0.68172 0.68129 0.88884 0.0
C1432 C 0.7586 0.64105 0.84787 0.0
C1433 C 0.76302 0.62011 0.85191 0.0
C1434 C 0.7391 0.64829 0.84992 0.0
C1435 C 0.72362 0.63472 0.856 0.0
C1436 C 0.72789 0.6136 0.85913 0.0
C1437 C 0.74739 0.60637 0.85711 0.0
C1438 C 0.6674 0.63797 0.86175 0.0
C1439 C 0.6655 0.65574 0.87432 0.0
C1440 C 0.68622 0.63153 0.85509 0.0
C1441 C 0.70346 0.64279 0.86077 0.0
C1442 C 0.70144 0.66109 0.87252 0.0
C1443 C 0.68267 0.66748 0.87923 0.0
H1444 H 0.27628 0.84566 0.13817 0.0
H1445 H 0.27616 0.90584 0.10826 0.0
H1446 H 0.23999 0.84587 0.13934 0.0
H1447 H 0.23977 0.90627 0.10989 0.0
H1448 H 0.17713 0.88207 0.08877 0.0
H1449 H 0.21287 0.88795 0.09247 0.0
H1450 H 0.21091 0.86195 0.15447 0.0
H1451 H 0.17516 0.85557 0.15057 0.0
C1452 C 0.26852 0.85907 0.13209 0.0
C1453 C 0.2791 0.87563 0.12293 0.0
C1454 C 0.24769 0.85928 0.13293 0.0
C1455 C 0.23696 0.87609 0.12468 0.0
C1456 C 0.24759 0.89297 0.11613 0.0
C1457 C 0.26844 0.89274 0.11525 0.0
C1458 C 0.18423 0.87792 0.10334 0.0
C1459 C 0.17334 0.86807 0.11926 0.0
C1460 C 0.20475 0.8814 0.1055 0.0
C1461 C 0.2148 0.87518 0.12367 0.0
C1462 C 0.20367 0.86653 0.14011 0.0
C1463 C 0.18315 0.863 0.13792 0.0
H1464 H 0.80805 0.51782 0.87081 0.0
H1465 H 0.86742 0.52419 0.84511 0.0
H1466 H 0.81327 0.48047 0.87511 0.0
H1467 H 0.87249 0.48704 0.84927 0.0
H1468 H 0.8832 0.42389 0.87622 0.0
H1469 H 0.87632 0.46101 0.87737 0.0
H1470 H 0.81746 0.44956 0.85199 0.0
H1471 H 0.8242 0.41236 0.85102 0.0
C1472 C 0.82219 0.51127 0.86609 0.0
C1473 C 0.83731 0.52395 0.85759 0.0
C1474 C 0.82515 0.48991 0.86852 0.0
C1475 C 0.84333 0.48088 0.86266 0.0
C1476 C 0.85844 0.4936 0.85426 0.0
C1477 C 0.85546 0.51487 0.85171 0.0
C1478 C 0.86867 0.42923 0.87118 0.0
C1479 C 0.85432 0.4152 0.86331 0.0
C1480 C 0.86479 0.4505 0.87173 0.0
C1481 C 0.84646 0.45819 0.86451 0.0
C1482 C 0.83169 0.44407 0.85773 0.0
C1483 C 0.8356 0.42278 0.8571 0.0
H1484 H 0.24245 0.14269 0.64272 0.0
H1485 H 0.23975 0.08763 0.60416 0.0
H1486 H 0.27866 0.14329 0.63965 0.0
H1487 H 0.27606 0.08792 0.60155 0.0
H1488 H 0.33379 0.11833 0.57489 0.0
H1489 H 0.29935 0.10999 0.58329 0.0
H1490 H 0.31021 0.12663 0.64756 0.0
H1491 H 0.34477 0.13553 0.639 0.0
C1492 C 0.2496 0.13051 0.63387 0.0
C1493 C 0.23821 0.11531 0.62342 0.0
C1494 C 0.2704 0.13075 0.63227 0.0
C1495 C 0.28025 0.11572 0.62025 0.0
C1496 C 0.26889 0.09991 0.61065 0.0
C1497 C 0.24809 0.09973 0.61218 0.0
C1498 C 0.32896 0.1199 0.5909 0.0
C1499 C 0.34194 0.12789 0.60622 0.0
C1500 C 0.30921 0.11496 0.59576 0.0
C1501 C 0.30197 0.11783 0.61607 0.0
C1502 C 0.31527 0.12458 0.63169 0.0
C1503 C 0.3351 0.12953 0.62682 0.0
H1504 H 0.14615 0.94995 0.86829 0.0
H1505 H 0.09115 0.94153 0.83379 0.0
H1506 H 0.14042 0.98735 0.86951 0.0
H1507 H 0.08523 0.97875 0.83545 0.0
H1508 H 0.0939 0.04703 0.81981 0.0
H1509 H 0.09956 0.00984 0.82025 0.0
H1510 H 0.11836 0.01369 0.88455 0.0
H1511 H 0.11306 0.05127 0.88403 0.0
C1512 C 0.13278 0.95606 0.86106 0.0
C1513 C 0.11917 0.9428 0.85079 0.0
C1514 C 0.12945 0.97746 0.86191 0.0
C1515 C 0.11242 0.98601 0.85251 0.0
C1516 C 0.09866 0.97268 0.84254 0.0
C1517 C 0.10201 0.95132 0.84166 0.0
C1518 C 0.09921 0.04001 0.83411 0.0
C1519 C 0.10298 0.05212 0.85193 0.0
C1520 C 0.10234 0.01863 0.83436 0.0
C1521 C 0.10925 0.00879 0.85247 0.0
C1522 C 0.11316 0.02088 0.87031 0.0
C1523 C 0.11004 0.04236 0.87005 0.0
H1524 H 0.79309 0.30509 0.41154 0.0
H1525 H 0.8246 0.33232 0.35944 0.0
H1526 H 0.76272 0.32267 0.40079 0.0
H1527 H 0.79403 0.34981 0.34859 0.0
H1528 H 0.74217 0.39784 0.35618 0.0
H1529 H 0.77278 0.37841 0.36256 0.0
H1530 H 0.7379 0.32246 0.37222 0.0
H1531 H 0.70736 0.34179 0.36609 0.0
C1532 C 0.7935 0.31469 0.39769 0.0
C1533 C 0.81126 0.31736 0.38637 0.0
C1534 C 0.77606 0.32466 0.39146 0.0
C1535 C 0.77602 0.33759 0.37384 0.0
C1536 C 0.7937 0.34006 0.36234 0.0
C1537 C 0.81114 0.32995 0.36849 0.0
C1538 C 0.74106 0.38135 0.35946 0.0
C1539 C 0.72234 0.3714 0.36084 0.0
C1540 C 0.75858 0.37022 0.363 0.0
C1541 C 0.75769 0.34897 0.36805 0.0
C1542 C 0.73901 0.33889 0.36867 0.0
C1543 C 0.72154 0.34997 0.36507 0.0
H1544 H 0.82622 0.48778 0.63217 0.0
H1545 H 0.87643 0.46155 0.59948 0.0
H1546 H 0.84197 0.52192 0.63077 0.0
H1547 H 0.89206 0.49593 0.59771 0.0
H1548 H 0.92404 0.55135 0.63145 0.0
H1549 H 0.90762 0.51836 0.62373 0.0
H1550 H 0.85307 0.55071 0.60906 0.0
H1551 H 0.8694 0.58377 0.61721 0.0
C1552 C 0.84046 0.48936 0.62435 0.0
C1553 C 0.85019 0.4719 0.61618 0.0
C1554 C 0.84944 0.50899 0.6234 0.0
C1555 C 0.86834 0.51162 0.61423 0.0
C1556 C 0.87762 0.49434 0.60513 0.0
C1557 C 0.86862 0.47467 0.60607 0.0
C1558 C 0.90863 0.55148 0.62628 0.0
C1559 C 0.89795 0.57016 0.62524 0.0
C1560 C 0.89924 0.53255 0.62171 0.0
C1561 C 0.87898 0.5319 0.61595 0.0
C1562 C 0.86861 0.55069 0.61378 0.0
C1563 C 0.878 0.56963 0.61836 0.0
H1564 H 0.6066 0.52692 0.0908 0.0
H1565 H 0.64915 0.51337 0.13958 0.0
H1566 H 0.59118 0.49271 0.09572 0.0
H1567 H 0.63384 0.47925 0.14431 0.0
H1568 H 0.5849 0.43421 0.16564 0.0
H1569 H 0.60111 0.46735 0.15825 0.0
H1570 H 0.598 0.45437 0.09234 0.0
H1571 H 0.58157 0.42106 0.09969 0.0
C1572 C 0.6128 0.51659 0.1024 0.0
C1573 C 0.62899 0.52294 0.11492 0.0
C1574 C 0.60401 0.49698 0.10515 0.0
C1575 C 0.61119 0.48343 0.12054 0.0
C1576 C 0.62778 0.48952 0.13256 0.0
C1577 C 0.63662 0.50904 0.12976 0.0
C1578 C 0.58759 0.43839 0.14955 0.0
C1579 C 0.58197 0.42496 0.13324 0.0
C1580 C 0.59702 0.45732 0.14534 0.0
C1581 C 0.60097 0.46335 0.12473 0.0
C1582 C 0.59507 0.45013 0.10837 0.0
C1583 C 0.58573 0.43106 0.11259 0.0
H1584 H 0.59175 0.74181 0.90587 0.0
H1585 H 0.65302 0.75986 0.91798 0.0
H1586 H 0.58411 0.7772 0.89591 0.0
H1587 H 0.64518 0.79567 0.90844 0.0
H1588 H 0.62818 0.84512 0.85794 0.0
H1589 H 0.63759 0.81351 0.8762 0.0
H1590 H 0.58038 0.81248 0.90722 0.0
H1591 H 0.57074 0.84376 0.88847 0.0
C1592 C 0.60354 0.75342 0.90674 0.0
C1593 C 0.62305 0.74796 0.91251 0.0
C1594 C 0.5991 0.77381 0.90119 0.0
C1595 C 0.61404 0.7893 0.90134 0.0
C1596 C 0.6334 0.78404 0.90793 0.0
C1597 C 0.63786 0.76355 0.91348 0.0
C1598 C 0.61774 0.83835 0.86892 0.0
C1599 C 0.59858 0.84672 0.87148 0.0
C1600 C 0.62318 0.82027 0.8795 0.0
C1601 C 0.60962 0.81029 0.89296 0.0
C1602 C 0.591 0.81953 0.89661 0.0
C1603 C 0.58551 0.8375 0.88593 0.0
H1604 H 0.49537 0.36459 0.18686 0.0
H1605 H 0.49057 0.38696 0.12361 0.0
H1606 H 0.45944 0.35803 0.1875 0.0
H1607 H 0.45485 0.37994 0.12408 0.0
H1608 H 0.38926 0.37607 0.13216 0.0
H1609 H 0.42294 0.3893 0.13844 0.0
H1610 H 0.43736 0.33279 0.17139 0.0
H1611 H 0.40357 0.31982 0.1656 0.0
C1612 C 0.48663 0.36825 0.17315 0.0
C1613 C 0.49584 0.37612 0.15511 0.0
C1614 C 0.46607 0.36441 0.1735 0.0
C1615 C 0.45429 0.36835 0.15582 0.0
C1616 C 0.46342 0.37698 0.13808 0.0
C1617 C 0.48395 0.38087 0.13774 0.0
C1618 C 0.39951 0.36664 0.14108 0.0
C1619 C 0.39384 0.34677 0.14813 0.0
C1620 C 0.41884 0.37418 0.14458 0.0
C1621 C 0.43293 0.36197 0.15512 0.0
C1622 C 0.42685 0.34267 0.16333 0.0
C1623 C 0.40748 0.33517 0.15992 0.0
H1624 H 0.87345 0.12778 0.34501 0.0
H1625 H 0.9284 0.14859 0.37405 0.0
H1626 H 0.85586 0.15688 0.36088 0.0
H1627 H 0.91096 0.17773 0.38951 0.0
H1628 H 0.87331 0.22142 0.42585 0.0
H1629 H 0.88582 0.18767 0.41487 0.0
H1630 H 0.85584 0.19454 0.35566 0.0
H1631 H 0.843 0.22804 0.36675 0.0
C1632 C 0.88174 0.13845 0.35489 0.0
C1633 C 0.90235 0.13597 0.35815 0.0
C1634 C 0.87168 0.15515 0.36391 0.0
C1635 C 0.88202 0.16962 0.37642 0.0
C1636 C 0.90249 0.16671 0.3802 0.0
C1637 C 0.91253 0.15008 0.37117 0.0
C1638 C 0.86912 0.21559 0.41062 0.0
C1639 C 0.85737 0.22753 0.39706 0.0
C1640 C 0.87637 0.19629 0.40429 0.0
C1641 C 0.87202 0.18855 0.38431 0.0
C1642 C 0.85936 0.19999 0.37121 0.0
C1643 C 0.8521 0.21927 0.37753 0.0
H1644 H 0.96951 0.6859 0.65148 0.0
H1645 H 0.97253 0.62012 0.63815 0.0
H1646 H 0.00543 0.68907 0.64617 0.0
H1647 H 0.0085 0.6232 0.63337 0.0
H1648 H 0.06686 0.64237 0.60109 0.0
H1649 H 0.03153 0.63796 0.60859 0.0
H1650 H 0.03737 0.67959 0.66114 0.0
H1651 H 0.07275 0.68445 0.6533 0.0
C1652 C 0.97785 0.67209 0.64756 0.0
C1653 C 0.96816 0.65278 0.64512 0.0
C1654 C -0.00153 0.67388 0.64467 0.0
C1655 C 0.00984 0.65639 0.63935 0.0
C1656 C 0.00014 0.63703 0.63717 0.0
C1657 C 0.97953 0.63525 0.63999 0.0
C1658 C 0.06067 0.65049 0.61434 0.0
C1659 C 0.07261 0.66384 0.62655 0.0
C1660 C 0.04041 0.64786 0.61871 0.0
C1661 C 0.03161 0.65846 0.63543 0.0
C1662 C 0.04364 0.67145 0.64795 0.0
C1663 C 0.06394 0.67412 0.64354 0.0
H1664 H 0.65116 0.2923 0.58231 0.0
H1665 H 0.58944 0.28045 0.56605 0.0
H1666 H 0.65615 0.25524 0.58775 0.0
H1667 H 0.59425 0.24347 0.57213 0.0
H1668 H 0.61056 0.17618 0.57199 0.0
H1669 H 0.61006 0.21223 0.56035 0.0
H1670 H 0.64646 0.23001 0.61321 0.0
H1671 H 0.64747 0.19397 0.62446 0.0
C1672 C 0.63866 0.28177 0.57985 0.0
C1673 C 0.61985 0.28932 0.57389 0.0
C1674 C 0.64151 0.26053 0.58305 0.0
C1675 C 0.62559 0.24637 0.58051 0.0
C1676 C 0.60693 0.25389 0.57396 0.0
C1677 C 0.60411 0.27512 0.57061 0.0
C1678 C 0.61873 0.18774 0.58093 0.0
C1679 C 0.62891 0.18224 0.59926 0.0
C1680 C 0.61832 0.20843 0.57434 0.0
C1681 C 0.628 0.22407 0.58597 0.0
C1682 C 0.63899 0.21837 0.60374 0.0
C1683 C 0.63949 0.19768 0.61026 0.0
H1684 H 0.03543 0.30127 0.88303 0.0
H1685 H 0.05823 0.36309 0.87058 0.0
H1686 H 0.00167 0.31317 0.87667 0.0
H1687 H 0.02425 0.37495 0.86371 0.0
H1688 H 0.95834 0.39158 0.87967 0.0
H1689 H 0.99326 0.38128 0.88299 0.0
H1690 H 0.98029 0.32481 0.84887 0.0
H1691 H 0.9455 0.33478 0.84601 0.0
C1692 C 0.03327 0.31737 0.8787 0.0
C1693 C 0.04952 0.33124 0.87734 0.0
C1694 C 0.01389 0.32417 0.87493 0.0
C1695 C 0.01028 0.345 0.86963 0.0
C1696 C 0.02655 0.35885 0.86797 0.0
C1697 C 0.046 0.35203 0.87177 0.0
C1698 C 0.963 0.37703 0.8728 0.0
C1699 C 0.94911 0.36389 0.86281 0.0
C1700 C 0.98301 0.37119 0.87459 0.0
C1701 C 0.98949 0.35214 0.86635 0.0
C1702 C 0.9757 0.33938 0.85575 0.0
C1703 C 0.95575 0.34515 0.85406 0.0
H1704 H 0.85516 0.68639 0.10465 0.0
H1705 H 0.91643 0.69736 0.08637 0.0
H1706 H 0.85237 0.72262 0.11523 0.0
H1707 H 0.91384 0.73341 0.09754 0.0
H1708 H 0.89926 0.80127 0.10476 0.0
H1709 H 0.89873 0.76634 0.09002 0.0
H1710 H 0.86457 0.74447 0.14279 0.0
H1711 H 0.86459 0.77945 0.15719 0.0
C1712 C 0.86803 0.69654 0.10288 0.0
C1713 C 0.88605 0.68899 0.09476 0.0
C1714 C 0.86646 0.71728 0.10904 0.0
C1715 C 0.88291 0.73091 0.10733 0.0
C1716 C 0.90079 0.72343 0.0988 0.0
C1717 C 0.90233 0.70271 0.09252 0.0
C1718 C 0.89145 0.78904 0.11309 0.0
C1719 C 0.88206 0.79311 0.1322 0.0
C1720 C 0.89126 0.76899 0.10471 0.0
C1721 C 0.88174 0.75256 0.11529 0.0
C1722 C 0.87184 0.75679 0.13409 0.0
C1723 C 0.87194 0.77685 0.14242 0.0
H1724 H 0.45351 0.66228 0.43587 0.0
H1725 H 0.4292 0.62686 0.38436 0.0
H1726 H 0.48713 0.65296 0.42532 0.0
H1727 H 0.46295 0.61719 0.37403 0.0
H1728 H 0.52621 0.63027 0.34748 0.0
H1729 H 0.49191 0.63477 0.35898 0.0
H1730 H 0.5102 0.62406 0.42261 0.0
H1731 H 0.54466 0.61995 0.41116 0.0
C1732 C 0.45532 0.65232 0.42241 0.0
C1733 C 0.43868 0.64543 0.41087 0.0
C1734 C 0.47461 0.64685 0.41645 0.0
C1735 C 0.47772 0.63434 0.39883 0.0
C1736 C 0.46105 0.62705 0.38754 0.0
C1737 C 0.44172 0.63252 0.39352 0.0
C1738 C 0.52291 0.6287 0.36391 0.0
C1739 C 0.53821 0.62493 0.37843 0.0
C1740 C 0.50321 0.63114 0.37049 0.0
C1741 C 0.49834 0.62987 0.39172 0.0
C1742 C 0.51353 0.62543 0.40617 0.0
C1743 C 0.53325 0.62297 0.39959 0.0
H1744 H 0.83861 0.59119 0.79674 0.0
H1745 H 0.87265 0.64081 0.82574 0.0
H1746 H 0.85413 0.59902 0.76355 0.0
H1747 H 0.88853 0.64845 0.79228 0.0
H1748 H 0.89145 0.66962 0.72249 0.0
H1749 H 0.87935 0.66235 0.75759 0.0
H1750 H 0.88663 0.59655 0.74679 0.0
H1751 H 0.89832 0.60371 0.71166 0.0
C1752 C 0.84949 0.60373 0.79607 0.0
C1753 C 0.85439 0.61539 0.81391 0.0
C1754 C 0.85851 0.6081 0.77704 0.0
C1755 C 0.87268 0.62423 0.77534 0.0
C1756 C 0.87759 0.63598 0.79312 0.0
C1757 C 0.86855 0.63156 0.81227 0.0
C1758 C 0.89064 0.65361 0.72768 0.0
C1759 C 0.89561 0.63722 0.71421 0.0
C1760 C 0.8838 0.64947 0.74782 0.0
C1761 C 0.88184 0.62887 0.75485 0.0
C1762 C 0.88762 0.61257 0.74166 0.0
C1763 C 0.8944 0.61669 0.72156 0.0
H1764 H 0.67757 0.5822 0.04566 0.0
H1765 H 0.63961 0.62463 0.07924 0.0
H1766 H 0.67276 0.60237 0.014 0.0
H1767 H 0.63499 0.64494 0.04749 0.0
H1768 H 0.61432 0.65984 0.9799 0.0
H1769 H 0.61895 0.64123 0.01264 0.0
H1770 H 0.68219 0.63707 0.0004 0.0
H1771 H 0.67761 0.65549 0.96762 0.0
C1772 C 0.66821 0.59584 0.0463 0.0
C1773 C 0.65899 0.60183 0.06497 0.0
C1774 C 0.66557 0.60747 0.02819 0.0
C1775 C 0.6536 0.6253 0.02831 0.0
C1776 C 0.64419 0.63119 0.04691 0.0
C1777 C 0.64691 0.6196 0.06509 0.0
C1778 C 0.62924 0.65509 0.98427 0.0
C1779 C 0.64559 0.65906 0.97112 0.0
C1780 C 0.63188 0.64451 0.00306 0.0
C1781 C 0.65091 0.63758 0.009 0.0
C1782 C 0.66731 0.64196 -0.00393 0.0
C1783 C 0.66469 0.65264 0.97736 0.0
H1784 H 0.60153 0.35708 0.21541 0.0
H1785 H 0.54938 0.37459 0.2507 0.0
H1786 H 0.62174 0.35902 0.24692 0.0
H1787 H 0.56977 0.37676 0.28222 0.0
H1788 H 0.61173 0.36673 0.33789 0.0
H1789 H 0.59116 0.35724 0.3077 0.0
H1790 H 0.63248 0.38972 0.26739 0.0
H1791 H 0.65297 0.39903 0.29726 0.0
C1792 C 0.59432 0.36112 0.22993 0.0
C1793 C 0.57391 0.366 0.2305 0.0
C1794 C 0.60592 0.36228 0.24795 0.0
C1795 C 0.59737 0.36831 0.26694 0.0
C1796 C 0.57673 0.37198 0.2678 0.0
C1797 C 0.56509 0.37084 0.24973 0.0
C1798 C 0.61647 0.37166 0.32255 0.0
C1799 C 0.63392 0.3837 0.31996 0.0
C1800 C 0.60467 0.3663 0.30532 0.0
C1801 C 0.61027 0.37267 0.28522 0.0
C1802 C 0.62793 0.38431 0.28265 0.0
C1803 C 0.63959 0.3898 0.29981 0.0
H1804 H 0.84537 0.34888 0.58618 0.0
H1805 H 0.89411 0.38558 0.56123 0.0
H1806 H 0.84869 0.32431 0.55758 0.0
H1807 H 0.89712 0.3612 0.53234 0.0
H1808 H 0.90523 0.30725 0.4882 0.0
H1809 H 0.90536 0.32588 0.52134 0.0
H1810 H 0.84083 0.32621 0.52082 0.0
H1811 H 0.84067 0.30733 0.48806 0.0
C1812 C 0.8569 0.35163 0.57467 0.0
C1813 C 0.86932 0.36933 0.57582 0.0
C1814 C 0.85874 0.33758 0.55825 0.0
C1815 C 0.873 0.34092 0.54256 0.0
C1816 C 0.88608 0.35807 0.54426 0.0
C1817 C 0.88428 0.37212 0.56076 0.0
C1818 C 0.89107 0.31103 0.49533 0.0
C1819 C 0.87293 0.30593 0.48543 0.0
C1820 C 0.89116 0.32181 0.51425 0.0
C1821 C 0.87312 0.32762 0.52366 0.0
C1822 C 0.855 0.32176 0.51414 0.0
C1823 C 0.85491 0.31104 0.49526 0.0
H1824 H 0.90392 0.40076 0.7836 0.0
H1825 H 0.86512 0.34681 0.78713 0.0
H1826 H 0.89799 0.40281 0.74623 0.0
H1827 H 0.85899 0.34908 0.74973 0.0
H1828 H 0.86757 0.34864 0.67889 0.0
H1829 H 0.87611 0.34524 0.71574 0.0
H1830 H 0.8697 0.41156 0.72362 0.0
H1831 H 0.86147 0.41503 0.68692 0.0
C1832 C 0.89413 0.38933 0.77641 0.0
C1833 C 0.88492 0.37368 0.78834 0.0
C1834 C 0.89068 0.39056 0.75501 0.0
C1835 C 0.87798 0.37614 0.74508 0.0
C1836 C 0.86902 0.36028 0.75693 0.0
C1837 C 0.87242 0.35907 0.77837 0.0
C1838 C 0.86812 0.36249 0.68847 0.0
C1839 C 0.86382 0.38209 0.67999 0.0
C1840 C 0.87289 0.36053 0.70958 0.0
C1841 C 0.87356 0.37813 0.72255 0.0
C1842 C 0.86955 0.39774 0.71397 0.0
C1843 C 0.86471 0.3997 0.69294 0.0
H1844 H 0.86934 0.57573 0.92299 0.0
H1845 H 0.82694 0.62562 0.9165 0.0
H1846 H 0.87451 0.58509 0.9593 0.0
H1847 H 0.8326 0.63544 0.95271 0.0
H1848 H 0.82687 0.62722 0.02351 0.0
H1849 H 0.82418 0.62149 0.98616 0.0
H1850 H 0.88769 0.61033 0.9831 0.0
H1851 H 0.89025 0.6154 0.02061 0.0
C1852 C 0.86139 0.58895 0.92921 0.0
C1853 C 0.84759 0.59981 0.91693 0.0
C1854 C 0.86443 0.59439 0.95003 0.0
C1855 C 0.85384 0.61092 0.95899 0.0
C1856 C 0.84069 0.62236 0.94641 0.0
C1857 C 0.83755 0.61682 0.92562 0.0
C1858 C 0.84027 0.62363 0.01486 0.0
C1859 C 0.85874 0.62162 0.02503 0.0
C1860 C 0.83877 0.6205 0.9934 0.0
C1861 C 0.85573 0.61545 0.9816 0.0
C1862 C 0.87428 0.61388 0.99175 0.0
C1863 C 0.87576 0.61687 0.01324 0.0
H1864 H 0.60341 0.64406 0.27698 0.0
H1865 H 0.57352 0.58427 0.27429 0.0
H1866 H 0.61155 0.6413 0.24014 0.0
H1867 H 0.58201 0.58137 0.23753 0.0
H1868 H 0.5904 0.5871 0.16801 0.0
H1869 H 0.57704 0.59544 0.20234 0.0
H1870 H 0.6348 0.61956 0.22098 0.0
H1871 H 0.64803 0.6116 0.18672 0.0
C1872 C 0.59842 0.63041 0.26849 0.0
C1873 C 0.58801 0.61427 0.27861 0.0
C1874 C 0.60316 0.62881 0.24741 0.0
C1875 C 0.59759 0.61104 0.23598 0.0
C1876 C 0.58636 0.59534 0.24586 0.0
C1877 C 0.58161 0.59695 0.26697 0.0
C1878 C 0.60016 0.59445 0.17935 0.0
C1879 C 0.62032 0.59854 0.1747 0.0
C1880 C 0.59253 0.59912 0.19903 0.0
C1881 C 0.60488 0.60806 0.2144 0.0
C1882 C 0.62481 0.6129 0.20942 0.0
C1883 C 0.63244 0.6082 0.18981 0.0
H1884 H 0.64389 0.41873 0.52745 0.0
H1885 H 0.61029 0.36373 0.50993 0.0
H1886 H 0.64731 0.42806 0.49078 0.0
H1887 H 0.61358 0.3733 0.47322 0.0
H1888 H 0.61192 0.4098 0.41002 0.0
H1889 H 0.6042 0.40376 0.44691 0.0
H1890 H 0.66697 0.4082 0.46189 0.0
H1891 H 0.67473 0.41385 0.42529 0.0
C1892 C 0.63698 0.40881 0.51581 0.0
C1893 C 0.62699 0.39039 0.52154 0.0
C1894 C 0.63898 0.41414 0.49486 0.0
C1895 C 0.63077 0.40133 0.47928 0.0
C1896 C 0.61994 0.38347 0.485 0.0
C1897 C 0.61818 0.37795 0.50596 0.0
C1898 C 0.62401 0.40955 0.42125 0.0
C1899 C 0.64391 0.41219 0.41482 0.0
C1900 C 0.6196 0.40606 0.44226 0.0
C1901 C 0.635 0.40565 0.45714 0.0
C1902 C 0.65482 0.40867 0.45072 0.0
C1903 C 0.65925 0.41174 0.42977 0.0
H1904 H 0.72155 0.8845 0.60598 0.0
H1905 H 0.72082 0.88879 0.67317 0.0
H1906 H 0.75761 0.88084 0.6067 0.0
H1907 H 0.75724 0.88502 0.6738 0.0
H1908 H 0.8179 0.84831 0.65922 0.0
H1909 H 0.7826 0.85652 0.66393 0.0
H1910 H 0.78716 0.9037 0.61637 0.0
H1911 H 0.82227 0.89557 0.61155 0.0
C1912 C 0.72907 0.88464 0.62093 0.0
C1913 C 0.71832 0.88696 0.63953 0.0
C1914 C 0.74976 0.88272 0.62131 0.0
C1915 C 0.7602 0.88291 0.64029 0.0
C1916 C 0.74951 0.88488 0.65897 0.0
C1917 C 0.72872 0.88705 0.65858 0.0
C1918 C 0.81148 0.86074 0.65009 0.0
C1919 C 0.82278 0.87102 0.63474 0.0
C1920 C 0.7913 0.86545 0.65284 0.0
C1921 C 0.78214 0.88047 0.64024 0.0
C1922 C 0.79381 0.89178 0.626 0.0
C1923 C 0.81393 0.88715 0.62331 0.0
H1924 H 0.22326 0.64016 0.37826 0.0
H1925 H 0.22526 0.57446 0.39217 0.0
H1926 H 0.25919 0.64272 0.38318 0.0
H1927 H 0.26145 0.57699 0.39676 0.0
H1928 H 0.32028 0.59948 0.42991 0.0
H1929 H 0.28533 0.59256 0.42144 0.0
H1930 H 0.2904 0.63205 0.36729 0.0
H1931 H 0.32518 0.63932 0.37595 0.0
C1932 C 0.23138 0.62621 0.38224 0.0
C1933 C 0.22139 0.60712 0.38488 0.0
C1934 C 0.25203 0.62765 0.38489 0.0
C1935 C 0.2632 0.61002 0.39022 0.0
C1936 C 0.25323 0.59087 0.39278 0.0
C1937 C 0.23252 0.58942 0.39009 0.0
C1938 C 0.31404 0.6064 0.416 0.0
C1939 C 0.32544 0.62015 0.40375 0.0
C1940 C 0.29401 0.60238 0.41111 0.0
C1941 C 0.28503 0.612 0.39386 0.0
C1942 C 0.29679 0.62476 0.38093 0.0
C1943 C 0.31676 0.62881 0.38583 0.0
H1944 H 0.60812 0.06169 0.58436 0.0
H1945 H 0.66483 0.06585 0.61651 0.0
H1946 H 0.6114 0.02406 0.58239 0.0
H1947 H 0.66794 0.02815 0.61468 0.0
H1948 H 0.6718 0.95928 0.59867 0.0
H1949 H 0.671 -0.0033 0.59204 0.0
H1950 H 0.60909 -0.00205 0.61071 0.0
H1951 H 0.6098 0.96071 0.61719 0.0
C1952 C 0.62147 0.05464 0.59067 0.0
C1953 C 0.63608 0.06674 0.60089 0.0
C1954 C 0.62327 0.03307 0.58963 0.0
C1955 C 0.63976 0.02316 0.59868 0.0
C1956 C 0.65509 0.03536 0.60751 0.0
C1957 C 0.65326 0.05697 0.60862 0.0
C1958 C 0.65797 0.96753 0.60115 0.0
C1959 C 0.64088 0.95707 0.60857 0.0
C1960 C 0.65755 0.98894 0.59741 0.0
C1961 C 0.63998 0.00022 0.6008 0.0
C1962 C 0.62277 0.98963 0.60766 0.0
C1963 C 0.62323 0.96831 0.61155 0.0
H1964 H 0.16503 0.34383 0.85702 0.0
H1965 H 0.16258 0.38779 0.90785 0.0
H1966 H 0.2003 0.35203 0.85212 0.0
H1967 H 0.1979 0.39545 0.90345 0.0
H1968 H 0.26029 0.4133 0.88508 0.0
H1969 H 0.22407 0.40995 0.8827 0.0
H1970 H 0.22994 0.34403 0.87127 0.0
H1971 H 0.2661 0.34753 0.87295 0.0
C1972 C 0.17196 0.35542 0.86698 0.0
C1973 C 0.16108 0.36499 0.88298 0.0
C1974 C 0.19221 0.36001 0.86428 0.0
C1975 C 0.20202 0.37415 0.8776 0.0
C1976 C 0.19082 0.3846 0.89279 0.0
C1977 C 0.17054 0.38014 0.89539 0.0
C1978 C 0.25383 0.39812 0.8819 0.0
C1979 C 0.26603 0.38064 0.87937 0.0
C1980 C 0.23307 0.3962 0.8806 0.0
C1981 C 0.22407 0.37672 0.87687 0.0
C1982 C 0.23635 0.35934 0.87382 0.0
C1983 C 0.2571 0.3613 0.87497 0.0
H1984 H 0.36405 0.39777 0.61525 0.0
H1985 H 0.40843 0.42878 0.65345 0.0
H1986 H 0.35263 0.43159 0.60256 0.0
H1987 H 0.39708 0.46229 0.6408 0.0
H1988 H 0.38443 0.51836 0.60256 0.0
H1989 H 0.39594 0.48287 0.60746 0.0
H1990 H 0.33542 0.46263 0.6195 0.0
H1991 H 0.32377 0.49817 0.61455 0.0
C1992 C 0.37145 0.41176 0.62081 0.0
C1993 C 0.38708 0.41064 0.63541 0.0
C1994 C 0.36488 0.43106 0.61359 0.0
C1995 C 0.37406 0.4495 0.62061 0.0
C1996 C 0.38992 0.44831 0.63488 0.0
C1997 C 0.3963 0.42911 0.64227 0.0
C1998 C 0.37349 0.50631 0.60587 0.0
C1999 C 0.35322 0.51114 0.60847 0.0
C2000 C 0.38012 0.48601 0.60875 0.0
C2001 C 0.3666 0.47011 0.61414 0.0
C2002 C 0.34614 0.47461 0.6153 0.0
C2003 C 0.33951 0.49497 0.61254 0.0
H2004 H 0.78932 0.14714 0.13833 0.0
H2005 H 0.76806 0.08557 0.12211 0.0
H2006 H 0.75717 0.16152 0.12828 0.0
H2007 H 0.73609 0.10004 0.11159 0.0
H2008 H 0.67538 0.13121 0.10816 0.0
H2009 H 0.70587 0.11707 0.12324 0.0
H2010 H 0.74008 0.16713 0.09554 0.0
H2011 H 0.70965 0.18149 0.0809 0.0
C2012 C 0.77774 0.13665 0.13277 0.0
C2013 C 0.7813 0.11524 0.13085 0.0
C2014 C 0.75936 0.14492 0.12688 0.0
C2015 C 0.74415 0.13196 0.11889 0.0
C2016 C 0.74742 0.11043 0.11783 0.0
C2017 C 0.7658 0.10215 0.12377 0.0
C2018 C 0.68941 0.13923 0.10536 0.0
C2019 C 0.6901 0.15745 0.0933 0.0
C2020 C 0.70688 0.13109 0.11394 0.0
C2021 C 0.7254 0.141 0.11064 0.0
C2022 C 0.72602 0.1593 0.09869 0.0
C2023 C 0.70858 0.16745 0.09015 0.0
H2024 H 0.63934 0.03962 0.86935 0.0
H2025 H 0.58581 0.05778 0.83653 0.0
H2026 H 0.62593 0.00459 0.87327 0.0
H2027 H 0.57219 0.02277 0.84091 0.0
H2028 H 0.5699 0.9527 0.8261 0.0
H2029 H 0.5798 0.98906 0.82621 0.0
H2030 H 0.6002 0.98324 0.88981 0.0
H2031 H 0.59062 0.94648 0.88959 0.0
C2032 C 0.62459 0.03621 0.86319 0.0
C2033 C 0.61372 0.05143 0.85242 0.0
C2034 C 0.61684 0.01616 0.8656 0.0
C2035 C 0.59803 0.01088 0.85733 0.0
C2036 C 0.58686 0.0263 0.84719 0.0
C2037 C 0.59463 0.04636 0.84474 0.0
C2038 C 0.57636 0.95915 0.8402 0.0
C2039 C 0.57959 0.94665 0.85781 0.0
C2040 C 0.5819 0.98008 0.8403 0.0
C2041 C 0.59076 0.98905 0.85802 0.0
C2042 C 0.59358 0.9767 0.87584 0.0
C2043 C 0.58803 0.95568 0.87575 0.0
H2044 H 0.91053 0.0513 0.39301 0.0
H2045 H 0.93852 0.03014 0.33631 0.0
H2046 H 0.89554 0.01691 0.39779 0.0
H2047 H 0.92326 -0.00396 0.34089 0.0
H2048 H 0.905 0.93201 0.36244 0.0
H2049 H 0.92311 0.96503 0.36251 0.0
H2050 H 0.86916 -0.00322 0.38035 0.0
H2051 H 0.85112 0.96372 0.38069 0.0
C2052 C 0.91363 0.03929 0.38167 0.0
C2053 C 0.92561 0.04349 0.36421 0.0
C2054 C 0.90494 0.01964 0.38435 0.0
C2055 C 0.90811 0.00381 0.36965 0.0
C2056 C 0.92069 0.00782 0.35261 0.0
C2057 C 0.92934 0.02743 0.34993 0.0
C2058 C 0.89702 0.94602 0.3665 0.0
C2059 C 0.87659 0.94527 0.37142 0.0
C2060 C 0.90739 0.96493 0.36648 0.0
C2061 C 0.89755 0.98352 0.37136 0.0
C2062 C 0.87723 0.9827 0.37677 0.0
C2063 C 0.86685 0.96378 0.37681 0.0
H2064 H 0.36448 0.26922 0.12935 0.0
H2065 H 0.32108 0.2541 0.08163 0.0
H2066 H 0.37576 0.23344 0.12938 0.0
H2067 H 0.33269 0.21813 0.08147 0.0
H2068 H 0.34743 0.1511 0.10557 0.0
H2069 H 0.33419 0.18635 0.10344 0.0
H2070 H 0.39428 0.21128 0.10547 0.0
H2071 H 0.40747 0.17629 0.10795 0.0
C2072 C 0.3573 0.25825 0.11888 0.0
C2073 C 0.34196 0.26455 0.10538 0.0
C2074 C 0.36388 0.23776 0.11879 0.0
C2075 C 0.35532 0.22305 0.1052 0.0
C2076 C 0.33954 0.22913 0.09214 0.0
C2077 C 0.33293 0.24972 0.09221 0.0
C2078 C 0.35781 0.16411 0.10532 0.0
C2079 C 0.37848 0.16091 0.10716 0.0
C2080 C 0.35022 0.18428 0.10406 0.0
C2081 C 0.36318 0.20157 0.10463 0.0
C2082 C 0.38388 0.19828 0.10549 0.0
C2083 C 0.39144 0.1782 0.10677 0.0
H2084 H 0.56793 0.66134 0.87738 0.0
H2085 H 0.57654 0.61025 0.92009 0.0
H2086 H 0.53718 0.64516 0.8649 0.0
H2087 H 0.54578 0.59393 0.90736 0.0
H2088 H 0.47629 0.59139 0.90001 0.0
H2089 H 0.50986 0.60227 0.91008 0.0
H2090 H 0.52402 0.61469 0.84567 0.0
H2091 H 0.4903 0.60404 0.83554 0.0
C2092 C 0.56336 0.64656 0.88398 0.0
C2093 C 0.57459 0.63715 0.89985 0.0
C2094 C 0.54582 0.6372 0.87669 0.0
C2095 C 0.53908 0.61828 0.88516 0.0
C2096 C 0.55054 0.60861 0.90068 0.0
C2097 C 0.56817 0.61793 0.90791 0.0
C2098 C 0.48662 0.5962 0.88795 0.0
C2099 C 0.48057 0.59707 0.867 0.0
C2100 C 0.50591 0.60231 0.89372 0.0
C2101 C 0.51952 0.60946 0.87868 0.0
C2102 C 0.51374 0.6095 0.85762 0.0
C2103 C 0.49447 0.60331 0.85183 0.0
H2104 H 0.15209 0.73824 0.55913 0.0
H2105 H 0.14219 0.72654 0.62456 0.0
H2106 H 0.15249 0.7757 0.56595 0.0
H2107 H 0.14285 0.76387 0.63133 0.0
H2108 H 0.1582 0.83185 0.63893 0.0
H2109 H 0.16618 0.79619 0.62897 0.0
H2110 H 0.12361 0.79943 0.57853 0.0
H2111 H 0.11542 0.83497 0.58856 0.0
C2112 C 0.15036 0.74365 0.57499 0.0
C2113 C 0.14696 0.72951 0.5913 0.0
C2114 C 0.15054 0.76504 0.57885 0.0
C2115 C 0.14773 0.7726 0.59914 0.0
C2116 C 0.14527 0.75842 0.61557 0.0
C2117 C 0.14474 0.73708 0.61167 0.0
C2118 C 0.15087 0.82512 0.62544 0.0
C2119 C 0.13606 0.83611 0.61462 0.0
C2120 C 0.15538 0.80471 0.61982 0.0
C2121 C 0.14543 0.7951 0.60308 0.0
C2122 C 0.13159 0.80655 0.59142 0.0
C2123 C 0.12684 0.82683 0.59722 0.0
H2124 H 0.00312 0.35518 0.38182 0.0
H2125 H 0.96884 0.39581 0.34207 0.0
H2126 H 0.97238 0.34115 0.39643 0.0
H2127 H 0.93792 0.38158 0.3568 0.0
H2128 H 0.88897 0.36351 0.40571 0.0
H2129 H 0.91914 0.37969 0.39134 0.0
H2130 H 0.94465 0.31895 0.38207 0.0
H2131 H 0.91471 0.30279 0.3964 0.0
C2132 C 0.98903 0.36121 0.37626 0.0
C2133 C 0.98842 0.37652 0.36068 0.0
C2134 C 0.97142 0.35308 0.38457 0.0
C2135 C 0.9528 0.36016 0.3776 0.0
C2136 C 0.95212 0.37592 0.36248 0.0
C2137 C 0.96979 0.38398 0.35402 0.0
C2138 C 0.90102 0.35363 0.40057 0.0
C2139 C 0.8995 0.33188 0.40226 0.0
C2140 C 0.91821 0.36289 0.39226 0.0
C2141 C 0.93424 0.35056 0.38573 0.0
C2142 C 0.93261 0.32883 0.38725 0.0
C2143 C 0.91541 0.31959 0.39535 0.0
H2144 H 0.34305 0.80838 0.32706 0.0
H2145 H 0.38255 0.82733 0.37705 0.0
H2146 H 0.34004 0.77387 0.34264 0.0
H2147 H 0.3792 0.79311 0.39277 0.0
H2148 H 0.39093 0.72331 0.39746 0.0
H2149 H 0.39101 0.75867 0.38409 0.0
H2150 H 0.3275 0.75416 0.37262 0.0
H2151 H 0.32746 0.71851 0.38566 0.0
C2152 C 0.35083 0.8053 0.34153 0.0
C2153 C 0.3632 0.82052 0.3507 0.0
C2154 C 0.34905 0.78555 0.35049 0.0
C2155 C 0.35957 0.78069 0.36882 0.0
C2156 C 0.37123 0.79623 0.37842 0.0
C2157 C 0.37306 0.81589 0.36945 0.0
C2158 C 0.37695 0.72985 0.39217 0.0
C2159 C 0.3592 0.71807 0.3926 0.0
C2160 C 0.37697 0.75019 0.38463 0.0
C2161 C 0.35924 0.75925 0.37736 0.0
C2162 C 0.34143 0.74754 0.37793 0.0
C2163 C 0.34141 0.72716 0.38549 0.0
H2164 H 0.03721 0.63503 0.10076 0.0
H2165 H 0.03373 0.61325 0.16433 0.0
H2166 H 0.00111 0.63155 0.09746 0.0
H2167 H -0.00253 0.6097 0.16091 0.0
H2168 H 0.93169 0.63317 0.15063 0.0
H2169 H 0.96782 0.63321 0.15606 0.0
H2170 H 0.97571 0.60291 0.09667 0.0
H2171 H 0.93973 0.60292 0.09112 0.0
C2172 C 0.02875 0.62949 0.11403 0.0
C2173 C 0.03833 0.62441 0.1328 0.0
C2174 C 0.00808 0.62735 0.11208 0.0
C2175 C -0.00348 0.62022 0.12889 0.0
C2176 C 0.00604 0.61531 0.14774 0.0
C2177 C 0.02678 0.61729 0.14965 0.0
C2178 C 0.94111 0.62625 0.13886 0.0
C2179 C 0.93285 0.61823 0.12036 0.0
C2180 C 0.96178 0.62623 0.14201 0.0
C2181 C 0.97455 0.61829 0.12667 0.0
C2182 C 0.96623 0.60945 0.1086 0.0
C2183 C 0.9456 0.60935 0.1055 0.0
H2184 H 0.09838 0.25937 0.8879 0.0
H2185 H 0.16292 0.26179 0.88693 0.0
H2186 H 0.09919 0.22232 0.88085 0.0
H2187 H 0.1637 0.22435 0.87994 0.0
H2188 H 0.14837 0.16754 0.83456 0.0
H2189 H 0.15372 0.20199 0.84957 0.0
H2190 H 0.10912 0.1888 0.89632 0.0
H2191 H 0.10352 0.15452 0.88119 0.0
C2192 C 0.11277 0.25195 0.88635 0.0
C2193 C 0.13058 0.26353 0.88782 0.0
C2194 C 0.11324 0.23065 0.88253 0.0
C2195 C 0.13152 0.22041 0.87998 0.0
C2196 C 0.1494 0.23188 0.8818 0.0
C2197 C 0.14894 0.25326 0.88583 0.0
C2198 C 0.14007 0.17178 0.84836 0.0
C2199 C 0.1252 0.1585 0.8564 0.0
C2200 C 0.14319 0.1915 0.857 0.0
C2201 C 0.13153 0.1982 0.87384 0.0
C2202 C 0.118 0.18418 0.88305 0.0
C2203 C 0.11486 0.16452 0.87441 0.0
H2204 H 0.57439 0.33053 0.63861 0.0
H2205 H 0.57015 0.385 0.59949 0.0
H2206 H 0.54039 0.33619 0.65079 0.0
H2207 H 0.53634 0.39083 0.61196 0.0
H2208 H 0.46935 0.3746 0.61471 0.0
H2209 H 0.50463 0.37272 0.60626 0.0
H2210 H 0.51836 0.35949 0.67064 0.0
H2211 H 0.48282 0.36105 0.67913 0.0
C2212 C 0.56633 0.34388 0.63285 0.0
C2213 C 0.57488 0.35717 0.6179 0.0
C2214 C 0.54688 0.34719 0.63992 0.0
C2215 C 0.53563 0.36385 0.63217 0.0
C2216 C 0.54453 0.37765 0.61793 0.0
C2217 C 0.56393 0.37434 0.61086 0.0
C2218 C 0.47986 0.3714 0.62712 0.0
C2219 C 0.47328 0.36788 0.64758 0.0
C2220 C 0.50012 0.37048 0.6223 0.0
C2221 C 0.51429 0.36601 0.6378 0.0
C2222 C 0.50776 0.3628 0.65834 0.0
C2223 C 0.48744 0.36378 0.6632 0.0
H2224 H 0.02682 0.35629 0.25365 0.0
H2225 H 0.03476 0.42304 0.25547 0.0
H2226 H 0.03817 0.35591 0.21759 0.0
H2227 H 0.04631 0.42258 0.21958 0.0
H2228 H 0.05918 0.41746 0.15139 0.0
H2229 H 0.03857 0.41542 0.18264 0.0
H2230 H 0.07188 0.36199 0.20326 0.0
H2231 H 0.09229 0.36383 0.17203 0.0
C2232 C 0.03062 0.37092 0.24626 0.0
C2233 C 0.03017 0.38966 0.25752 0.0
C2234 C 0.03721 0.37068 0.22564 0.0
C2235 C 0.04336 0.38917 0.21585 0.0
C2236 C 0.04156 0.40808 0.22664 0.0
C2237 C 0.03505 0.40832 0.24728 0.0
C2238 C 0.06189 0.40507 0.16243 0.0
C2239 C 0.07752 0.39094 0.15936 0.0
C2240 C 0.05012 0.40396 0.18035 0.0
C2241 C 0.05367 0.38863 0.19545 0.0
C2242 C 0.06862 0.37385 0.19182 0.0
C2243 C 0.08043 0.37502 0.17398 0.0
H2244 H 0.33533 0.34895 0.93747 0.0
H2245 H 0.37608 0.39849 0.95495 0.0
H2246 H 0.3391 0.33353 0.97206 0.0
H2247 H 0.37958 0.38316 0.98951 0.0
H2248 H 0.34963 0.36768 0.0539 0.0
H2249 H 0.35178 0.3799 0.01802 0.0
H2250 H 0.36635 0.31792 -0.00242 0.0
H2251 H 0.36454 0.30563 0.03368 0.0
C2252 C 0.34533 0.35634 0.94856 0.0
C2253 C 0.35526 0.37503 0.94358 0.0
C2254 C 0.34754 0.34748 0.96828 0.0
C2255 C 0.35948 0.35731 0.9834 0.0
C2256 C 0.37016 0.37541 0.97811 0.0
C2257 C 0.3682 0.3841 0.95832 0.0
C2258 C 0.35338 0.35666 0.04178 0.0
C2259 C 0.35687 0.3357 0.04655 0.0
C2260 C 0.35476 0.36369 0.0213 0.0
C2261 C 0.35933 0.34984 0.00514 0.0
C2262 C 0.36282 0.32886 0.00983 0.0
C2263 C 0.36182 0.32188 0.03043 0.0
H2264 H 0.34655 0.5264 0.6903 0.0
H2265 H 0.36046 0.59103 0.67835 0.0
H2266 H 0.36407 0.52854 0.72343 0.0
H2267 H 0.3776 0.59333 0.71189 0.0
H2268 H 0.41984 0.58621 0.76711 0.0
H2269 H 0.40648 0.58172 0.73192 0.0
H2270 H 0.35791 0.5446 0.75655 0.0
H2271 H 0.37142 0.54861 0.79141 0.0
C2272 C 0.35333 0.54109 0.69476 0.0
C2273 C 0.35196 0.55861 0.6818 0.0
C2274 C 0.36333 0.54233 0.71379 0.0
C2275 C 0.37209 0.56115 0.72038 0.0
C2276 C 0.37119 0.57855 0.70717 0.0
C2277 C 0.36125 0.57728 0.68803 0.0
C2278 C 0.40645 0.57688 0.76494 0.0
C2279 C 0.39666 0.5678 0.78205 0.0
C2280 C 0.39873 0.57445 0.74482 0.0
C2281 C 0.38111 0.56285 0.74145 0.0
C2282 C 0.37165 0.55338 0.75854 0.0
C2283 C 0.37935 0.55579 0.77858 0.0
H2284 H 0.13684 0.63599 0.53425 0.0
H2285 H 0.10212 0.68932 0.5158 0.0
H2286 H 0.13985 0.62566 0.49811 0.0
H2287 H 0.10508 0.6787 0.47924 0.0
H2288 H 0.14135 0.66306 0.41727 0.0
H2289 H 0.13257 0.67527 0.45217 0.0
H2290 H 0.11782 0.6123 0.47016 0.0
H2291 H 0.12679 0.60009 0.43565 0.0
C2292 C 0.12976 0.64549 0.52247 0.0
C2293 C 0.11922 0.66347 0.52791 0.0
C2294 C 0.13136 0.63946 0.50175 0.0
C2295 C 0.12252 0.65127 0.48588 0.0
C2296 C 0.11205 0.66935 0.49119 0.0
C2297 C 0.1103 0.67535 0.51208 0.0
C2298 C 0.13592 0.65191 0.4286 0.0
C2299 C 0.13512 0.63057 0.42385 0.0
C2300 C 0.13083 0.65891 0.44852 0.0
C2301 C 0.12485 0.64467 0.46394 0.0
C2302 C 0.1228 0.62356 0.4587 0.0
C2303 C 0.12791 0.61659 0.43891 0.0
H2304 H 0.11 0.63508 0.21895 0.0
H2305 H 0.15154 0.58594 0.20509 0.0
H2306 H 0.12133 0.63533 0.25509 0.0
H2307 H 0.16233 0.58565 0.24121 0.0
H2308 H 0.19029 0.59957 0.30259 0.0
H2309 H 0.18054 0.60502 0.26648 0.0
H2310 H 0.1195 0.61458 0.28588 0.0
H2311 H 0.12947 0.60994 0.32206 0.0
C2312 C 0.12147 0.62426 0.22365 0.0
C2313 C 0.12988 0.61047 0.20919 0.0
C2314 C 0.12792 0.62436 0.24437 0.0
C2315 C 0.1428 0.61057 0.25107 0.0
C2316 C 0.15116 0.5968 0.23653 0.0
C2317 C 0.14485 0.59683 0.21583 0.0
C2318 C 0.17485 0.60312 0.29915 0.0
C2319 C 0.16061 0.60414 0.31511 0.0
C2320 C 0.16922 0.60609 0.27844 0.0
C2321 C 0.14917 0.60989 0.27322 0.0
C2322 C 0.1351 0.61184 0.28932 0.0
C2323 C 0.14079 0.6091 0.31008 0.0
H2324 H 0.13922 0.35833 0.06094 0.0
H2325 H 0.07486 0.35416 0.06508 0.0
H2326 H 0.13775 0.34528 0.02544 0.0
H2327 H 0.07343 0.3413 0.02928 0.0
H2328 H 0.08149 0.30244 0.96938 0.0
H2329 H 0.08299 0.31163 0.00632 0.0
H2330 H 0.12591 0.36018 0.99246 0.0
H2331 H 0.12464 0.35094 0.95579 0.0
C2332 C 0.12475 0.35454 0.05432 0.0
C2333 C 0.10713 0.35749 0.06576 0.0
C2334 C 0.12392 0.34714 0.03394 0.0
C2335 C 0.10547 0.34251 0.02452 0.0
C2336 C 0.08787 0.34465 0.0362 0.0
C2337 C 0.08869 0.3521 0.05665 0.0
C2338 C 0.09129 0.31502 0.97426 0.0
C2339 C 0.10296 0.32595 0.95968 0.0
C2340 C 0.09207 0.32032 0.99537 0.0
C2341 C 0.10463 0.33654 0.00226 0.0
C2342 C 0.11632 0.34739 0.98766 0.0
C2343 C 0.11549 0.34217 0.96662 0.0
H2344 H 0.34552 0.40892 0.82837 0.0
H2345 H 0.36444 0.34585 0.83992 0.0
H2346 H 0.3567 0.40619 0.79256 0.0
H2347 H 0.37544 0.34307 0.80372 0.0
H2348 H 0.41116 0.35607 0.74289 0.0
H2349 H 0.40092 0.35747 0.77936 0.0
H2350 H 0.34609 0.38746 0.7612 0.0
H2351 H 0.35637 0.38636 0.72492 0.0
C2352 C 0.35205 0.39444 0.82327 0.0
C2353 C 0.35399 0.37755 0.83699 0.0
C2354 C 0.35836 0.39285 0.80268 0.0
C2355 C 0.36676 0.37436 0.79527 0.0
C2356 C 0.3691 0.35756 0.80905 0.0
C2357 C 0.36273 0.35913 0.82973 0.0
C2358 C 0.39691 0.36292 0.7467 0.0
C2359 C 0.38463 0.37123 0.73103 0.0
C2360 C 0.39101 0.36362 0.76756 0.0
C2361 C 0.37277 0.37269 0.77314 0.0
C2362 C 0.36039 0.38067 0.75741 0.0
C2363 C 0.36624 0.37995 0.73661 0.0
H2364 H 0.32485 0.66634 0.47869 0.0
H2365 H 0.38649 0.64724 0.48252 0.0
H2366 H 0.31956 0.65495 0.51444 0.0
H2367 H 0.3813 0.6363 0.51842 0.0
H2368 H 0.35502 0.59066 0.56673 0.0
H2369 H 0.36332 0.60747 0.534 0.0
H2370 H 0.32759 0.66039 0.5512 0.0
H2371 H 0.31889 0.64331 0.58396 0.0
C2372 C 0.33736 0.66006 0.48727 0.0
C2373 C 0.35601 0.65745 0.47769 0.0
C2374 C 0.33436 0.65364 0.50782 0.0
C2375 C 0.34996 0.64454 0.5192 0.0
C2376 C 0.36888 0.6429 0.50993 0.0
C2377 C 0.37187 0.64926 0.48938 0.0
C2378 C 0.34905 0.60596 0.56366 0.0
C2379 C 0.33617 0.61558 0.57789 0.0
C2380 C 0.35395 0.61568 0.54494 0.0
C2381 C 0.34611 0.63527 0.53998 0.0
C2382 C 0.33369 0.64519 0.55448 0.0
C2383 C 0.3288 0.63545 0.57328 0.0
H2384 H 0.19955 0.20321 0.39402 0.0
H2385 H 0.17293 0.16176 0.34855 0.0
H2386 H 0.23248 0.19001 0.3854 0.0
H2387 H 0.20602 0.14868 0.33982 0.0
H2388 H 0.26509 0.11313 0.35283 0.0
H2389 H 0.23185 0.12752 0.3578 0.0
H2390 H 0.25681 0.18965 0.35633 0.0
H2391 H 0.29009 0.17532 0.35156 0.0
C2392 C 0.20073 0.19139 0.38207 0.0
C2393 C 0.18362 0.18348 0.37201 0.0
C2394 C 0.21962 0.18393 0.37705 0.0
C2395 C 0.2218 0.16833 0.36194 0.0
C2396 C 0.20473 0.16059 0.35167 0.0
C2397 C 0.18582 0.16815 0.35661 0.0
C2398 C 0.26348 0.12987 0.35343 0.0
C2399 C 0.28023 0.14309 0.35194 0.0
C2400 C 0.24443 0.13809 0.35615 0.0
C2401 C 0.24177 0.15969 0.35752 0.0
C2402 C 0.25846 0.17292 0.35557 0.0
C2403 C 0.2775 0.16471 0.35274 0.0
H2404 H 0.78011 0.35598 0.64029 0.0
H2405 H 0.77573 0.41993 0.62027 0.0
H2406 H 0.74406 0.3521 0.63747 0.0
H2407 H 0.73951 0.4162 0.61799 0.0
H2408 H 0.68205 0.39002 0.58668 0.0
H2409 H 0.7166 0.39836 0.595 0.0
H2410 H 0.71209 0.36207 0.65144 0.0
H2411 H 0.67755 0.35321 0.6428 0.0
C2412 C 0.77142 0.36931 0.63557 0.0
C2413 C 0.7808 0.38819 0.63028 0.0
C2414 C 0.75071 0.36713 0.63412 0.0
C2415 C 0.73889 0.38383 0.62745 0.0
C2416 C 0.74822 0.40296 0.62289 0.0
C2417 C 0.76896 0.40511 0.62426 0.0
C2418 C 0.68832 0.38402 0.60101 0.0
C2419 C 0.67713 0.37073 0.61395 0.0
C2420 C 0.70813 0.38892 0.60586 0.0
C2421 C 0.71717 0.38074 0.6238 0.0
C2422 C 0.70565 0.36832 0.6373 0.0
C2423 C 0.68583 0.36335 0.63242 0.0
H2424 H 0.34497 0.92645 0.33871 0.0
H2425 H 0.39604 0.95465 0.36925 0.0
H2426 H 0.32772 0.95971 0.33968 0.0
H2427 H 0.379 0.98785 0.36982 0.0
H2428 H 0.34045 0.043 0.37943 0.0
H2429 H 0.35129 0.00725 0.38406 0.0
H2430 H 0.33203 0.99274 0.32141 0.0
H2431 H 0.32077 0.02838 0.31692 0.0
C2432 C 0.35244 0.93967 0.34583 0.0
C2433 C 0.37196 0.93796 0.35374 0.0
C2434 C 0.34259 0.95874 0.34627 0.0
C2435 C 0.35203 0.97644 0.3547 0.0
C2436 C 0.3712 0.97447 0.36343 0.0
C2437 C 0.38104 0.95544 0.36297 0.0
C2438 C 0.33825 0.03211 0.36674 0.0
C2439 C 0.32997 0.03858 0.34771 0.0
C2440 C 0.34455 0.01165 0.36938 0.0
C2441 C 0.34274 -0.00277 0.35303 0.0
C2442 C 0.33348 0.00342 0.33438 0.0
C2443 C 0.32713 0.02389 0.33176 0.0
H2444 H 0.83229 0.57519 0.10966 0.0
H2445 H 0.81252 0.63413 0.13402 0.0
H2446 H 0.79921 0.56032 0.11592 0.0
H2447 H 0.77936 0.61978 0.13923 0.0
H2448 H 0.72223 0.58917 0.15542 0.0
H2449 H 0.75768 0.59784 0.15699 0.0
H2450 H 0.76744 0.56194 0.10098 0.0
H2451 H 0.73223 0.55237 0.10025 0.0
C2452 C 0.8209 0.58492 0.11647 0.0
C2453 C 0.82496 0.60586 0.12123 0.0
C2454 C 0.80188 0.57646 0.11992 0.0
C2455 C 0.78644 0.58885 0.12788 0.0
C2456 C 0.79085 0.60958 0.13339 0.0
C2457 C 0.80991 0.61791 0.13027 0.0
C2458 C 0.73207 0.5829 0.14366 0.0
C2459 C 0.72448 0.57026 0.12762 0.0
C2460 C 0.75238 0.58797 0.14445 0.0
C2461 C 0.76549 0.5809 0.12893 0.0
C2462 C 0.75795 0.5675 0.11338 0.0
C2463 C 0.73769 0.56209 0.11285 0.0
H2464 H 0.61686 0.57306 0.37528 0.0
H2465 H 0.65792 0.58626 0.32507 0.0
H2466 H 0.63387 0.54038 0.38195 0.0
H2467 H 0.67501 0.55359 0.33188 0.0
H2468 H 0.67634 0.4807 0.33189 0.0
H2469 H 0.66539 0.51643 0.32725 0.0
H2470 H 0.66614 0.52539 0.3939 0.0
H2471 H 0.67698 0.48956 0.39862 0.0
C2472 C 0.62965 0.56911 0.36582 0.0
C2473 C 0.63594 0.58218 0.34955 0.0
C2474 C 0.63948 0.55045 0.36974 0.0
C2475 C 0.65575 0.54442 0.35741 0.0
C2476 C 0.66241 0.55777 0.34151 0.0
C2477 C 0.65265 0.5765 0.33768 0.0
C2478 C 0.67447 0.49037 0.34555 0.0
C2479 C 0.67735 0.48223 0.36563 0.0
C2480 C 0.6683 0.51088 0.34288 0.0
C2481 C 0.66476 0.52364 0.36023 0.0
C2482 C 0.66852 0.51581 0.38026 0.0
C2483 C 0.67484 0.49533 0.38294 0.0
H2484 H 0.20991 0.87001 0.81297 0.0
H2485 H 0.20564 0.87646 0.87981 0.0
H2486 H 0.24484 0.85988 0.81656 0.0
H2487 H 0.24051 0.86689 0.88331 0.0
H2488 H 0.29232 0.82237 0.8843 0.0
H2489 H 0.25861 0.83481 0.87912 0.0
H2490 H 0.27853 0.87183 0.8269 0.0
H2491 H 0.31251 0.85894 0.83182 0.0
C2492 C 0.21649 0.86954 0.82838 0.0
C2493 C 0.20497 0.87377 0.84613 0.0
C2494 C 0.23651 0.86383 0.83042 0.0
C2495 C 0.24534 0.86233 0.85023 0.0
C2496 C 0.234 0.86744 0.86786 0.0
C2497 C 0.21404 0.87302 0.86585 0.0
C2498 C 0.28959 0.83315 0.87169 0.0
C2499 C 0.30513 0.83974 0.85853 0.0
C2500 C 0.27026 0.8404 0.86881 0.0
C2501 C 0.26596 0.85451 0.85276 0.0
C2502 C 0.2814 0.86089 0.83935 0.0
C2503 C 0.30084 0.85357 0.84221 0.0
H2504 H 0.32963 0.96885 0.12318 0.0
H2505 H 0.37948 0.94038 0.09177 0.0
H2506 H 0.3467 0.00242 0.12176 0.0
H2507 H 0.39642 0.97406 0.09015 0.0
H2508 H 0.42935 0.03036 0.12097 0.0
H2509 H 0.412 -0.00273 0.11622 0.0
H2510 H 0.35866 0.02975 0.0976 0.0
H2511 H 0.37594 0.06296 0.1026 0.0
C2512 C 0.34413 0.96978 0.11578 0.0
C2513 C 0.35326 0.95192 0.10773 0.0
C2514 C 0.35385 0.98906 0.11483 0.0
C2515 C 0.37292 0.99085 0.10587 0.0
C2516 C 0.38182 0.97309 0.09733 0.0
C2517 C 0.37207 0.95383 0.0982 0.0
C2518 C 0.414 0.03046 0.11562 0.0
C2519 C 0.40397 0.04927 0.11233 0.0
C2520 C 0.40409 0.01148 0.11278 0.0
C2521 C 0.38393 0.01093 0.10666 0.0
C2522 C 0.37412 0.02972 0.10258 0.0
C2523 C 0.38406 0.04872 0.10532 0.0
H2524 H 0.13683 0.94113 0.62667 0.0
H2525 H 0.08428 0.95419 0.58986 0.0
H2526 H 0.14805 0.97704 0.62244 0.0
H2527 H 0.09561 0.99014 0.58562 0.0
H2528 H 0.10971 0.05657 0.61218 0.0
H2529 H 0.09929 0.02019 0.61042 0.0
H2530 H 0.15964 0.00255 0.59535 0.0
H2531 H 0.17016 0.03895 0.59716 0.0
C2532 C 0.12778 0.9516 0.6175 0.0
C2533 C 0.1096 0.94486 0.60872 0.0
C2534 C 0.13427 0.97213 0.61497 0.0
C2535 C 0.12266 0.98637 0.60375 0.0
C2536 C 0.10475 0.97951 0.5945 0.0
C2537 C 0.09833 0.95892 0.59686 0.0
C2538 C 0.12072 0.04497 0.60827 0.0
C2539 C 0.14078 0.05062 0.60496 0.0
C2540 C 0.11472 0.02415 0.60714 0.0
C2541 C 0.12868 0.00856 0.60283 0.0
C2542 C 0.14862 0.01425 0.5989 0.0
C2543 C 0.1546 0.0351 0.59985 0.0
loop_
_geom_bond_atom_site_label_1
_geom_bond_atom_site_label_2
_geom_bond_distance
_geom_bond_site_symmetry_2
_ccdc_geom_bond_type
C0 O1 1.160 . S
C0 O7 1.185 . S
O1 C0 1.160 . S
O2 Zn3 1.899 . S
O2 C10 1.284 . S
Zn3 O2 1.899 . S
Zn3 O4 2.032 . S
Zn3 O7 2.086 . S
Zn3 O12 1.977 . S
O4 Zn3 2.032 . S
O4 C8 1.278 . S
C5 O6 1.203 . S
C5 O12 1.267 . S
O6 C5 1.203 . S
O7 C0 1.185 . S
O7 Zn3 2.086 . S
C8 O4 1.278 . S
C8 O9 1.211 . S
O9 C8 1.211 . S
C10 O2 1.284 . S
C10 O11 1.273 . S
O11 C10 1.273 . S
O12 Zn3 1.977 . S
O12 C5 1.267 . S
C13 O14 1.160 . S
C13 O20 1.185 . S
O14 C13 1.160 . S
O15 Zn16 1.899 . S
O15 C23 1.284 . S
Zn16 O15 1.899 . S
Zn16 O17 2.032 . S
Zn16 O20 2.086 . S
Zn16 O25 1.977 . S
O17 Zn16 2.032 . S
O17 C21 1.278 . S
C18 O19 1.203 . S
C18 O25 1.267 . S
O19 C18 1.203 . S
O20 C13 1.185 . S
O20 Zn16 2.086 . S
C21 O17 1.278 . S
C21 O22 1.211 . S
O22 C21 1.211 . S
C23 O15 1.284 . S
C23 O24 1.273 . S
O24 C23 1.273 . S
O25 Zn16 1.977 . S
O25 C18 1.267 . S
C26 O27 1.160 . S
C26 O33 1.185 . S
O27 C26 1.160 . S
O28 Zn29 1.899 . S
O28 C36 1.284 . S
Zn29 O28 1.899 . S
Zn29 O30 2.032 . S
Zn29 O33 2.086 . S
Zn29 O38 1.977 . S
O30 Zn29 2.032 . S
O30 C34 1.278 . S
C31 O32 1.203 . S
C31 O38 1.267 . S
O32 C31 1.203 . S
O33 C26 1.185 . S
O33 Zn29 2.086 . S
C34 O30 1.278 . S
C34 O35 1.211 . S
O35 C34 1.211 . S
C36 O28 1.284 . S
C36 O37 1.273 . S
O37 C36 1.273 . S
O38 Zn29 1.977 . S
O38 C31 1.267 . S
C39 O40 1.160 . S
C39 O46 1.185 . S
O40 C39 1.160 . S
O41 Zn42 1.899 . S
O41 C49 1.284 . S
Zn42 O41 1.899 . S
Zn42 O43 2.032 . S
Zn42 O46 2.086 . S
Zn42 O51 1.977 . S
O43 Zn42 2.032 . S
O43 C47 1.278 . S
C44 O45 1.203 . S
C44 O51 1.267 . S
O45 C44 1.203 . S
O46 C39 1.185 . S
O46 Zn42 2.086 . S
C47 O43 1.278 . S
C47 O48 1.211 . S
O48 C47 1.211 . S
C49 O41 1.284 . S
C49 O50 1.273 . S
O50 C49 1.273 . S
O51 Zn42 1.977 . S
O51 C44 1.267 . S
C52 O53 1.160 . S
C52 O59 1.185 . S
O53 C52 1.160 . S
O54 Zn55 1.899 . S
O54 C62 1.284 . S
Zn55 O54 1.899 . S
Zn55 O56 2.032 . S
Zn55 O59 2.086 . S
Zn55 O64 1.977 . S
O56 Zn55 2.032 . S
O56 C60 1.278 . S
C57 O58 1.203 . S
C57 O64 1.267 . S
O58 C57 1.203 . S
O59 C52 1.185 . S
O59 Zn55 2.086 . S
C60 O56 1.278 . S
C60 O61 1.211 . S
O61 C60 1.211 . S
C62 O54 1.284 . S
C62 O63 1.273 . S
O63 C62 1.273 . S
O64 Zn55 1.977 . S
O64 C57 1.267 . S
C65 O66 1.160 . S
C65 O72 1.185 . S
O66 C65 1.160 . S
O67 Zn68 1.899 . S
O67 C75 1.284 . S
Zn68 O67 1.899 . S
Zn68 O69 2.032 . S
Zn68 O72 2.086 . S
Zn68 O77 1.977 . S
O69 Zn68 2.032 . S
O69 C73 1.278 . S
C70 O71 1.203 . S
C70 O77 1.267 . S
O71 C70 1.203 . S
O72 C65 1.185 . S
O72 Zn68 2.086 . S
C73 O69 1.278 . S
C73 O74 1.211 . S
O74 C73 1.211 . S
C75 O67 1.284 . S
C75 O76 1.273 . S
O76 C75 1.273 . S
O77 Zn68 1.977 . S
O77 C70 1.267 . S
C78 O79 1.160 . S
C78 O85 1.185 . S
O79 C78 1.160 . S
O80 Zn81 1.899 . S
O80 C88 1.284 . S
Zn81 O80 1.899 . S
Zn81 O82 2.032 . S
Zn81 O85 2.086 . S
Zn81 O90 1.977 . S
O82 Zn81 2.032 . S
O82 C86 1.278 . S
C83 O84 1.203 . S
C83 O90 1.267 . S
O84 C83 1.203 . S
O85 C78 1.185 . S
O85 Zn81 2.086 . S
C86 O82 1.278 . S
C86 O87 1.211 . S
O87 C86 1.211 . S
C88 O80 1.284 . S
C88 O89 1.273 . S
O89 C88 1.273 . S
O90 Zn81 1.977 . S
O90 C83 1.267 . S
C91 O92 1.160 . S
C91 O98 1.185 . S
O92 C91 1.160 . S
O93 Zn94 1.899 . S
O93 C101 1.284 . S
Zn94 O93 1.899 . S
Zn94 O95 2.032 . S
Zn94 O98 2.086 . S
Zn94 O103 1.977 . S
O95 Zn94 2.032 . S
O95 C99 1.278 . S
C96 O97 1.203 . S
C96 O103 1.267 . S
O97 C96 1.203 . S
O98 C91 1.185 . S
O98 Zn94 2.086 . S
C99 O95 1.278 . S
C99 O100 1.211 . S
O100 C99 1.211 . S
C101 O93 1.284 . S
C101 O102 1.273 . S
O102 C101 1.273 . S
O103 Zn94 1.977 . S
O103 C96 1.267 . S
C104 O105 1.160 . S
C104 O111 1.185 . S
O105 C104 1.160 . S
O106 Zn107 1.899 . S
O106 C114 1.284 . S
Zn107 O106 1.899 . S
Zn107 O108 2.032 . S
Zn107 O111 2.086 . S
Zn107 O116 1.977 . S
O108 Zn107 2.032 . S
O108 C112 1.278 . S
C109 O110 1.203 . S
C109 O116 1.267 . S
O110 C109 1.203 . S
O111 C104 1.185 . S
O111 Zn107 2.086 . S
C112 O108 1.278 . S
C112 O113 1.211 . S
O113 C112 1.211 . S
C114 O106 1.284 . S
C114 O115 1.273 . S
O115 C114 1.273 . S
O116 Zn107 1.977 . S
O116 C109 1.267 . S
C117 O118 1.160 . S
C117 O124 1.185 . S
O118 C117 1.160 . S
O119 Zn120 1.899 . S
O119 C127 1.284 . S
Zn120 O119 1.899 . S
Zn120 O121 2.032 . S
Zn120 O124 2.086 . S
Zn120 O129 1.977 . S
O121 Zn120 2.032 . S
O121 C125 1.278 . S
C122 O123 1.203 . S
C122 O129 1.267 . S
O123 C122 1.203 . S
O124 C117 1.185 . S
O124 Zn120 2.086 . S
C125 O121 1.278 . S
C125 O126 1.211 . S
O126 C125 1.211 . S
C127 O119 1.284 . S
C127 O128 1.273 . S
O128 C127 1.273 . S
O129 Zn120 1.977 . S
O129 C122 1.267 . S
C130 O131 1.160 . S
C130 O137 1.185 . S
O131 C130 1.160 . S
O132 Zn133 1.899 . S
O132 C140 1.284 . S
Zn133 O132 1.899 . S
Zn133 O134 2.032 . S
Zn133 O137 2.086 . S
Zn133 O142 1.977 . S
O134 Zn133 2.032 . S
O134 C138 1.278 . S
C135 O136 1.203 . S
C135 O142 1.267 . S
O136 C135 1.203 . S
O137 C130 1.185 . S
O137 Zn133 2.086 . S
C138 O134 1.278 . S
C138 O139 1.211 . S
O139 C138 1.211 . S
C140 O132 1.284 . S
C140 O141 1.273 . S
O141 C140 1.273 . S
O142 Zn133 1.977 . S
O142 C135 1.267 . S
C143 O144 1.160 . S
C143 O150 1.185 . S
O144 C143 1.160 . S
O145 Zn146 1.899 . S
O145 C153 1.284 . S
Zn146 O145 1.899 . S
Zn146 O147 2.032 . S
Zn146 O150 2.086 . S
Zn146 O155 1.977 . S
O147 Zn146 2.032 . S
O147 C151 1.278 . S
C148 O149 1.203 . S
C148 O155 1.267 . S
O149 C148 1.203 . S
O150 C143 1.185 . S
O150 Zn146 2.086 . S
C151 O147 1.278 . S
C151 O152 1.211 . S
O152 C151 1.211 . S
C153 O145 1.284 . S
C153 O154 1.273 . S
O154 C153 1.273 . S
O155 Zn146 1.977 . S
O155 C148 1.267 . S
C156 O157 1.160 . S
C156 O163 1.185 . S
O157 C156 1.160 . S
O158 Zn159 1.899 . S
O158 C166 1.284 . S
Zn159 O158 1.899 . S
Zn159 O160 2.032 . S
Zn159 O163 2.086 . S
Zn159 O168 1.977 . S
O160 Zn159 2.032 . S
O160 C164 1.278 . S
C161 O162 1.203 . S
C161 O168 1.267 . S
O162 C161 1.203 . S
O163 C156 1.185 . S
O163 Zn159 2.086 . S
C164 O160 1.278 . S
C164 O165 1.211 . S
O165 C164 1.211 . S
C166 O158 1.284 . S
C166 O167 1.273 . S
O167 C166 1.273 . S
O168 Zn159 1.977 . S
O168 C161 1.267 . S
C169 O170 1.160 . S
C169 O176 1.185 . S
O170 C169 1.160 . S
O171 Zn172 1.899 . S
O171 C179 1.284 . S
Zn172 O171 1.899 . S
Zn172 O173 2.032 . S
Zn172 O176 2.086 . S
Zn172 O181 1.977 . S
O173 Zn172 2.032 . S
O173 C177 1.278 . S
C174 O175 1.203 . S
C174 O181 1.267 . S
O175 C174 1.203 . S
O176 C169 1.185 . S
O176 Zn172 2.086 . S
C177 O173 1.278 . S
C177 O178 1.211 . S
O178 C177 1.211 . S
C179 O171 1.284 . S
C179 O180 1.273 . S
O180 C179 1.273 . S
O181 Zn172 1.977 . S
O181 C174 1.267 . S
C182 O183 1.160 . S
C182 O189 1.185 . S
O183 C182 1.160 . S
O184 Zn185 1.899 . S
O184 C192 1.284 . S
Zn185 O184 1.899 . S
Zn185 O186 2.032 . S
Zn185 O189 2.086 . S
Zn185 O194 1.977 . S
O186 Zn185 2.032 . S
O186 C190 1.278 . S
C187 O188 1.203 . S
C187 O194 1.267 . S
O188 C187 1.203 . S
O189 C182 1.185 . S
O189 Zn185 2.086 . S
C190 O186 1.278 . S
C190 O191 1.211 . S
O191 C190 1.211 . S
C192 O184 1.284 . S
C192 O193 1.273 . S
O193 C192 1.273 . S
O194 Zn185 1.977 . S
O194 C187 1.267 . S
C195 O196 1.160 . S
C195 O202 1.185 . S
O196 C195 1.160 . S
O197 Zn198 1.899 . S
O197 C205 1.284 . S
Zn198 O197 1.899 . S
Zn198 O199 2.032 . S
Zn198 O202 2.086 . S
Zn198 O207 1.977 . S
O199 Zn198 2.032 . S
O199 C203 1.278 . S
C200 O201 1.203 . S
C200 O207 1.267 . S
O201 C200 1.203 . S
O202 C195 1.185 . S
O202 Zn198 2.086 . S
C203 O199 1.278 . S
C203 O204 1.211 . S
O204 C203 1.211 . S
C205 O197 1.284 . S
C205 O206 1.273 . S
O206 C205 1.273 . S
O207 Zn198 1.977 . S
O207 C200 1.267 . S
C208 O209 1.160 . S
C208 O215 1.185 . S
O209 C208 1.160 . S
O210 Zn211 1.899 . S
O210 C218 1.284 . S
Zn211 O210 1.899 . S
Zn211 O212 2.032 . S
Zn211 O215 2.086 . S
Zn211 O220 1.977 . S
O212 Zn211 2.032 . S
O212 C216 1.278 . S
C213 O214 1.203 . S
C213 O220 1.267 . S
O214 C213 1.203 . S
O215 C208 1.185 . S
O215 Zn211 2.086 . S
C216 O212 1.278 . S
C216 O217 1.211 . S
O217 C216 1.211 . S
C218 O210 1.284 . S
C218 O219 1.273 . S
O219 C218 1.273 . S
O220 Zn211 1.977 . S
O220 C213 1.267 . S
C221 O222 1.160 . S
C221 O228 1.185 . S
O222 C221 1.160 . S
O223 Zn224 1.899 . S
O223 C231 1.284 . S
Zn224 O223 1.899 . S
Zn224 O225 2.032 . S
Zn224 O228 2.086 . S
Zn224 O233 1.977 . S
O225 Zn224 2.032 . S
O225 C229 1.278 . S
C226 O227 1.203 . S
C226 O233 1.267 . S
O227 C226 1.203 . S
O228 C221 1.185 . S
O228 Zn224 2.086 . S
C229 O225 1.278 . S
C229 O230 1.211 . S
O230 C229 1.211 . S
C231 O223 1.284 . S
C231 O232 1.273 . S
O232 C231 1.273 . S
O233 Zn224 1.977 . S
O233 C226 1.267 . S
C234 O235 1.160 . S
C234 O241 1.185 . S
O235 C234 1.160 . S
O236 Zn237 1.899 . S
O236 C244 1.284 . S
Zn237 O236 1.899 . S
Zn237 O238 2.032 . S
Zn237 O241 2.086 . S
Zn237 O246 1.977 . S
O238 Zn237 2.032 . S
O238 C242 1.278 . S
C239 O240 1.203 . S
C239 O246 1.267 . S
O240 C239 1.203 . S
O241 C234 1.185 . S
O241 Zn237 2.086 . S
C242 O238 1.278 . S
C242 O243 1.211 . S
O243 C242 1.211 . S
C244 O236 1.284 . S
C244 O245 1.273 . S
O245 C244 1.273 . S
O246 Zn237 1.977 . S
O246 C239 1.267 . S
C247 O248 1.160 . S
C247 O254 1.185 . S
O248 C247 1.160 . S
O249 Zn250 1.899 . S
O249 C257 1.284 . S
Zn250 O249 1.899 . S
Zn250 O251 2.032 . S
Zn250 O254 2.086 . S
Zn250 O259 1.977 . S
O251 Zn250 2.032 . S
O251 C255 1.278 . S
C252 O253 1.203 . S
C252 O259 1.267 . S
O253 C252 1.203 . S
O254 C247 1.185 . S
O254 Zn250 2.086 . S
C255 O251 1.278 . S
C255 O256 1.211 . S
O256 C255 1.211 . S
C257 O249 1.284 . S
C257 O258 1.273 . S
O258 C257 1.273 . S
O259 Zn250 1.977 . S
O259 C252 1.267 . S
C260 O261 1.160 . S
C260 O267 1.185 . S
O261 C260 1.160 . S
O262 Zn263 1.899 . S
O262 C270 1.284 . S
Zn263 O262 1.899 . S
Zn263 O264 2.032 . S
Zn263 O267 2.086 . S
Zn263 O272 1.977 . S
O264 Zn263 2.032 . S
O264 C268 1.278 . S
C265 O266 1.203 . S
C265 O272 1.267 . S
O266 C265 1.203 . S
O267 C260 1.185 . S
O267 Zn263 2.086 . S
C268 O264 1.278 . S
C268 O269 1.211 . S
O269 C268 1.211 . S
C270 O262 1.284 . S
C270 O271 1.273 . S
O271 C270 1.273 . S
O272 Zn263 1.977 . S
O272 C265 1.267 . S
C273 O274 1.160 . S
C273 O280 1.185 . S
O274 C273 1.160 . S
O275 Zn276 1.899 . S
O275 C283 1.284 . S
Zn276 O275 1.899 . S
Zn276 O277 2.032 . S
Zn276 O280 2.086 . S
Zn276 O285 1.977 . S
O277 Zn276 2.032 . S
O277 C281 1.278 . S
C278 O279 1.203 . S
C278 O285 1.267 . S
O279 C278 1.203 . S
O280 C273 1.185 . S
O280 Zn276 2.086 . S
C281 O277 1.278 . S
C281 O282 1.211 . S
O282 C281 1.211 . S
C283 O275 1.284 . S
C283 O284 1.273 . S
O284 C283 1.273 . S
O285 Zn276 1.977 . S
O285 C278 1.267 . S
C286 O287 1.160 . S
C286 O293 1.185 . S
O287 C286 1.160 . S
O288 Zn289 1.899 . S
O288 C296 1.284 . S
Zn289 O288 1.899 . S
Zn289 O290 2.032 . S
Zn289 O293 2.086 . S
Zn289 O298 1.977 . S
O290 Zn289 2.032 . S
O290 C294 1.278 . S
C291 O292 1.203 . S
C291 O298 1.267 . S
O292 C291 1.203 . S
O293 C286 1.185 . S
O293 Zn289 2.086 . S
C294 O290 1.278 . S
C294 O295 1.211 . S
O295 C294 1.211 . S
C296 O288 1.284 . S
C296 O297 1.273 . S
O297 C296 1.273 . S
O298 Zn289 1.977 . S
O298 C291 1.267 . S
C299 O300 1.160 . S
C299 O306 1.185 . S
O300 C299 1.160 . S
O301 Zn302 1.899 . S
O301 C309 1.284 . S
Zn302 O301 1.899 . S
Zn302 O303 2.032 . S
Zn302 O306 2.086 . S
Zn302 O311 1.977 . S
O303 Zn302 2.032 . S
O303 C307 1.278 . S
C304 O305 1.203 . S
C304 O311 1.267 . S
O305 C304 1.203 . S
O306 C299 1.185 . S
O306 Zn302 2.086 . S
C307 O303 1.278 . S
C307 O308 1.211 . S
O308 C307 1.211 . S
C309 O301 1.284 . S
C309 O310 1.273 . S
O310 C309 1.273 . S
O311 Zn302 1.977 . S
O311 C304 1.267 . S
C312 O313 1.160 . S
C312 O319 1.185 . S
O313 C312 1.160 . S
O314 Zn315 1.899 . S
O314 C322 1.284 . S
Zn315 O314 1.899 . S
Zn315 O316 2.032 . S
Zn315 O319 2.086 . S
Zn315 O324 1.977 . S
O316 Zn315 2.032 . S
O316 C320 1.278 . S
C317 O318 1.203 . S
C317 O324 1.267 . S
O318 C317 1.203 . S
O319 C312 1.185 . S
O319 Zn315 2.086 . S
C320 O316 1.278 . S
C320 O321 1.211 . S
O321 C320 1.211 . S
C322 O314 1.284 . S
C322 O323 1.273 . S
O323 C322 1.273 . S
O324 Zn315 1.977 . S
O324 C317 1.267 . S
C325 O326 1.160 . S
C325 O332 1.185 . S
O326 C325 1.160 . S
O327 Zn328 1.899 . S
O327 C335 1.284 . S
Zn328 O327 1.899 . S
Zn328 O329 2.032 . S
Zn328 O332 2.086 . S
Zn328 O337 1.977 . S
O329 Zn328 2.032 . S
O329 C333 1.278 . S
C330 O331 1.203 . S
C330 O337 1.267 . S
O331 C330 1.203 . S
O332 C325 1.185 . S
O332 Zn328 2.086 . S
C333 O329 1.278 . S
C333 O334 1.211 . S
O334 C333 1.211 . S
C335 O327 1.284 . S
C335 O336 1.273 . S
O336 C335 1.273 . S
O337 Zn328 1.977 . S
O337 C330 1.267 . S
C338 O339 1.160 . S
C338 O345 1.185 . S
O339 C338 1.160 . S
O340 Zn341 1.899 . S
O340 C348 1.284 . S
Zn341 O340 1.899 . S
Zn341 O342 2.032 . S
Zn341 O345 2.086 . S
Zn341 O350 1.977 . S
O342 Zn341 2.032 . S
O342 C346 1.278 . S
C343 O344 1.203 . S
C343 O350 1.267 . S
O344 C343 1.203 . S
O345 C338 1.185 . S
O345 Zn341 2.086 . S
C346 O342 1.278 . S
C346 O347 1.211 . S
O347 C346 1.211 . S
C348 O340 1.284 . S
C348 O349 1.273 . S
O349 C348 1.273 . S
O350 Zn341 1.977 . S
O350 C343 1.267 . S
C351 O352 1.160 . S
C351 O358 1.185 . S
O352 C351 1.160 . S
O353 Zn354 1.899 . S
O353 C361 1.284 . S
Zn354 O353 1.899 . S
Zn354 O355 2.032 . S
Zn354 O358 2.086 . S
Zn354 O363 1.977 . S
O355 Zn354 2.032 . S
O355 C359 1.278 . S
C356 O357 1.203 . S
C356 O363 1.267 . S
O357 C356 1.203 . S
O358 C351 1.185 . S
O358 Zn354 2.086 . S
C359 O355 1.278 . S
C359 O360 1.211 . S
O360 C359 1.211 . S
C361 O353 1.284 . S
C361 O362 1.273 . S
O362 C361 1.273 . S
O363 Zn354 1.977 . S
O363 C356 1.267 . S
C364 O365 1.160 . S
C364 O371 1.185 . S
O365 C364 1.160 . S
O366 Zn367 1.899 . S
O366 C374 1.284 . S
Zn367 O366 1.899 . S
Zn367 O368 2.032 . S
Zn367 O371 2.086 . S
Zn367 O376 1.977 . S
O368 Zn367 2.032 . S
O368 C372 1.278 . S
C369 O370 1.203 . S
C369 O376 1.267 . S
O370 C369 1.203 . S
O371 C364 1.185 . S
O371 Zn367 2.086 . S
C372 O368 1.278 . S
C372 O373 1.211 . S
O373 C372 1.211 . S
C374 O366 1.284 . S
C374 O375 1.273 . S
O375 C374 1.273 . S
O376 Zn367 1.977 . S
O376 C369 1.267 . S
C377 O378 1.160 . S
C377 O384 1.185 . S
O378 C377 1.160 . S
O379 Zn380 1.899 . S
O379 C387 1.284 . S
Zn380 O379 1.899 . S
Zn380 O381 2.032 . S
Zn380 O384 2.086 . S
Zn380 O389 1.977 . S
O381 Zn380 2.032 . S
O381 C385 1.278 . S
C382 O383 1.203 . S
C382 O389 1.267 . S
O383 C382 1.203 . S
O384 C377 1.185 . S
O384 Zn380 2.086 . S
C385 O381 1.278 . S
C385 O386 1.211 . S
O386 C385 1.211 . S
C387 O379 1.284 . S
C387 O388 1.273 . S
O388 C387 1.273 . S
O389 Zn380 1.977 . S
O389 C382 1.267 . S
C390 O391 1.160 . S
C390 O397 1.185 . S
O391 C390 1.160 . S
O392 Zn393 1.899 . S
O392 C400 1.284 . S
Zn393 O392 1.899 . S
Zn393 O394 2.032 . S
Zn393 O397 2.086 . S
Zn393 O402 1.977 . S
O394 Zn393 2.032 . S
O394 C398 1.278 . S
C395 O396 1.203 . S
C395 O402 1.267 . S
O396 C395 1.203 . S
O397 C390 1.185 . S
O397 Zn393 2.086 . S
C398 O394 1.278 . S
C398 O399 1.211 . S
O399 C398 1.211 . S
C400 O392 1.284 . S
C400 O401 1.273 . S
O401 C400 1.273 . S
O402 Zn393 1.977 . S
O402 C395 1.267 . S
C403 O404 1.160 . S
C403 O410 1.185 . S
O404 C403 1.160 . S
O405 Zn406 1.899 . S
O405 C413 1.284 . S
Zn406 O405 1.899 . S
Zn406 O407 2.032 . S
Zn406 O410 2.086 . S
Zn406 O415 1.977 . S
O407 Zn406 2.032 . S
O407 C411 1.278 . S
C408 O409 1.203 . S
C408 O415 1.267 . S
O409 C408 1.203 . S
O410 C403 1.185 . S
O410 Zn406 2.086 . S
C411 O407 1.278 . S
C411 O412 1.211 . S
O412 C411 1.211 . S
C413 O405 1.284 . S
C413 O414 1.273 . S
O414 C413 1.273 . S
O415 Zn406 1.977 . S
O415 C408 1.267 . S
C416 O417 1.160 . S
C416 O423 1.185 . S
O417 C416 1.160 . S
O418 Zn419 1.899 . S
O418 C426 1.284 . S
Zn419 O418 1.899 . S
Zn419 O420 2.032 . S
Zn419 O423 2.086 . S
Zn419 O428 1.977 . S
O420 Zn419 2.032 . S
O420 C424 1.278 . S
C421 O422 1.203 . S
C421 O428 1.267 . S
O422 C421 1.203 . S
O423 C416 1.185 . S
O423 Zn419 2.086 . S
C424 O420 1.278 . S
C424 O425 1.211 . S
O425 C424 1.211 . S
C426 O418 1.284 . S
C426 O427 1.273 . S
O427 C426 1.273 . S
O428 Zn419 1.977 . S
O428 C421 1.267 . S
C429 O430 1.160 . S
C429 O436 1.185 . S
O430 C429 1.160 . S
O431 Zn432 1.899 . S
O431 C439 1.284 . S
Zn432 O431 1.899 . S
Zn432 O433 2.032 . S
Zn432 O436 2.086 . S
Zn432 O441 1.977 . S
O433 Zn432 2.032 . S
O433 C437 1.278 . S
C434 O435 1.203 . S
C434 O441 1.267 . S
O435 C434 1.203 . S
O436 C429 1.185 . S
O436 Zn432 2.086 . S
C437 O433 1.278 . S
C437 O438 1.211 . S
O438 C437 1.211 . S
C439 O431 1.284 . S
C439 O440 1.273 . S
O440 C439 1.273 . S
O441 Zn432 1.977 . S
O441 C434 1.267 . S
C442 O443 1.160 . S
C442 O449 1.185 . S
O443 C442 1.160 . S
O444 Zn445 1.899 . S
O444 C452 1.284 . S
Zn445 O444 1.899 . S
Zn445 O446 2.032 . S
Zn445 O449 2.086 . S
Zn445 O454 1.977 . S
O446 Zn445 2.032 . S
O446 C450 1.278 . S
C447 O448 1.203 . S
C447 O454 1.267 . S
O448 C447 1.203 . S
O449 C442 1.185 . S
O449 Zn445 2.086 . S
C450 O446 1.278 . S
C450 O451 1.211 . S
O451 C450 1.211 . S
C452 O444 1.284 . S
C452 O453 1.273 . S
O453 C452 1.273 . S
O454 Zn445 1.977 . S
O454 C447 1.267 . S
C455 O456 1.160 . S
C455 O462 1.185 . S
O456 C455 1.160 . S
O457 Zn458 1.899 . S
O457 C465 1.284 . S
Zn458 O457 1.899 . S
Zn458 O459 2.032 . S
Zn458 O462 2.086 . S
Zn458 O467 1.977 . S
O459 Zn458 2.032 . S
O459 C463 1.278 . S
C460 O461 1.203 . S
C460 O467 1.267 . S
O461 C460 1.203 . S
O462 C455 1.185 . S
O462 Zn458 2.086 . S
C463 O459 1.278 . S
C463 O464 1.211 . S
O464 C463 1.211 . S
C465 O457 1.284 . S
C465 O466 1.273 . S
O466 C465 1.273 . S
O467 Zn458 1.977 . S
O467 C460 1.267 . S
C468 O469 1.160 . S
C468 O475 1.185 . S
O469 C468 1.160 . S
O470 Zn471 1.899 . S
O470 C478 1.284 . S
Zn471 O470 1.899 . S
Zn471 O472 2.032 . S
Zn471 O475 2.086 . S
Zn471 O480 1.977 . S
O472 Zn471 2.032 . S
O472 C476 1.278 . S
C473 O474 1.203 . S
C473 O480 1.267 . S
O474 C473 1.203 . S
O475 C468 1.185 . S
O475 Zn471 2.086 . S
C476 O472 1.278 . S
C476 O477 1.211 . S
O477 C476 1.211 . S
C478 O470 1.284 . S
C478 O479 1.273 . S
O479 C478 1.273 . S
O480 Zn471 1.977 . S
O480 C473 1.267 . S
C481 O482 1.160 . S
C481 O488 1.185 . S
O482 C481 1.160 . S
O483 Zn484 1.899 . S
O483 C491 1.284 . S
Zn484 O483 1.899 . S
Zn484 O485 2.032 . S
Zn484 O488 2.086 . S
Zn484 O493 1.977 . S
O485 Zn484 2.032 . S
O485 C489 1.278 . S
C486 O487 1.203 . S
C486 O493 1.267 . S
O487 C486 1.203 . S
O488 C481 1.185 . S
O488 Zn484 2.086 . S
C489 O485 1.278 . S
C489 O490 1.211 . S
O490 C489 1.211 . S
C491 O483 1.284 . S
C491 O492 1.273 . S
O492 C491 1.273 . S
O493 Zn484 1.977 . S
O493 C486 1.267 . S
C494 O495 1.160 . S
C494 O501 1.185 . S
O495 C494 1.160 . S
O496 Zn497 1.899 . S
O496 C504 1.284 . S
Zn497 O496 1.899 . S
Zn497 O498 2.032 . S
Zn497 O501 2.086 . S
Zn497 O506 1.977 . S
O498 Zn497 2.032 . S
O498 C502 1.278 . S
C499 O500 1.203 . S
C499 O506 1.267 . S
O500 C499 1.203 . S
O501 C494 1.185 . S
O501 Zn497 2.086 . S
C502 O498 1.278 . S
C502 O503 1.211 . S
O503 C502 1.211 . S
C504 O496 1.284 . S
C504 O505 1.273 . S
O505 C504 1.273 . S
O506 Zn497 1.977 . S
O506 C499 1.267 . S
C507 O508 1.160 . S
C507 O514 1.185 . S
O508 C507 1.160 . S
O509 Zn510 1.899 . S
O509 C517 1.284 . S
Zn510 O509 1.899 . S
Zn510 O511 2.032 . S
Zn510 O514 2.086 . S
Zn510 O519 1.977 . S
O511 Zn510 2.032 . S
O511 C515 1.278 . S
C512 O513 1.203 . S
C512 O519 1.267 . S
O513 C512 1.203 . S
O514 C507 1.185 . S
O514 Zn510 2.086 . S
C515 O511 1.278 . S
C515 O516 1.211 . S
O516 C515 1.211 . S
C517 O509 1.284 . S
C517 O518 1.273 . S
O518 C517 1.273 . S
O519 Zn510 1.977 . S
O519 C512 1.267 . S
C520 O521 1.160 . S
C520 O527 1.185 . S
O521 C520 1.160 . S
O522 Zn523 1.899 . S
O522 C530 1.284 . S
Zn523 O522 1.899 . S
Zn523 O524 2.032 . S
Zn523 O527 2.086 . S
Zn523 O532 1.977 . S
O524 Zn523 2.032 . S
O524 C528 1.278 . S
C525 O526 1.203 . S
C525 O532 1.267 . S
O526 C525 1.203 . S
O527 C520 1.185 . S
O527 Zn523 2.086 . S
C528 O524 1.278 . S
C528 O529 1.211 . S
O529 C528 1.211 . S
C530 O522 1.284 . S
C530 O531 1.273 . S
O531 C530 1.273 . S
O532 Zn523 1.977 . S
O532 C525 1.267 . S
C533 O534 1.160 . S
C533 O540 1.185 . S
O534 C533 1.160 . S
O535 Zn536 1.899 . S
O535 C543 1.284 . S
Zn536 O535 1.899 . S
Zn536 O537 2.032 . S
Zn536 O540 2.086 . S
Zn536 O545 1.977 . S
O537 Zn536 2.032 . S
O537 C541 1.278 . S
C538 O539 1.203 . S
C538 O545 1.267 . S
O539 C538 1.203 . S
O540 C533 1.185 . S
O540 Zn536 2.086 . S
C541 O537 1.278 . S
C541 O542 1.211 . S
O542 C541 1.211 . S
C543 O535 1.284 . S
C543 O544 1.273 . S
O544 C543 1.273 . S
O545 Zn536 1.977 . S
O545 C538 1.267 . S
C546 O547 1.160 . S
C546 O553 1.185 . S
O547 C546 1.160 . S
O548 Zn549 1.899 . S
O548 C556 1.284 . S
Zn549 O548 1.899 . S
Zn549 O550 2.032 . S
Zn549 O553 2.086 . S
Zn549 O558 1.977 . S
O550 Zn549 2.032 . S
O550 C554 1.278 . S
C551 O552 1.203 . S
C551 O558 1.267 . S
O552 C551 1.203 . S
O553 C546 1.185 . S
O553 Zn549 2.086 . S
C554 O550 1.278 . S
C554 O555 1.211 . S
O555 C554 1.211 . S
C556 O548 1.284 . S
C556 O557 1.273 . S
O557 C556 1.273 . S
O558 Zn549 1.977 . S
O558 C551 1.267 . S
C559 O560 1.160 . S
C559 O566 1.185 . S
O560 C559 1.160 . S
O561 Zn562 1.899 . S
O561 C569 1.284 . S
Zn562 O561 1.899 . S
Zn562 O563 2.032 . S
Zn562 O566 2.086 . S
Zn562 O571 1.977 . S
O563 Zn562 2.032 . S
O563 C567 1.278 . S
C564 O565 1.203 . S
C564 O571 1.267 . S
O565 C564 1.203 . S
O566 C559 1.185 . S
O566 Zn562 2.086 . S
C567 O563 1.278 . S
C567 O568 1.211 . S
O568 C567 1.211 . S
C569 O561 1.284 . S
C569 O570 1.273 . S
O570 C569 1.273 . S
O571 Zn562 1.977 . S
O571 C564 1.267 . S
C572 O573 1.160 . S
C572 O579 1.185 . S
O573 C572 1.160 . S
O574 Zn575 1.899 . S
O574 C582 1.284 . S
Zn575 O574 1.899 . S
Zn575 O576 2.032 . S
Zn575 O579 2.086 . S
Zn575 O584 1.977 . S
O576 Zn575 2.032 . S
O576 C580 1.278 . S
C577 O578 1.203 . S
C577 O584 1.267 . S
O578 C577 1.203 . S
O579 C572 1.185 . S
O579 Zn575 2.086 . S
C580 O576 1.278 . S
C580 O581 1.211 . S
O581 C580 1.211 . S
C582 O574 1.284 . S
C582 O583 1.273 . S
O583 C582 1.273 . S
O584 Zn575 1.977 . S
O584 C577 1.267 . S
C585 O586 1.160 . S
C585 O592 1.185 . S
O586 C585 1.160 . S
O587 Zn588 1.899 . S
O587 C595 1.284 . S
Zn588 O587 1.899 . S
Zn588 O589 2.032 . S
Zn588 O592 2.086 . S
Zn588 O597 1.977 . S
O589 Zn588 2.032 . S
O589 C593 1.278 . S
C590 O591 1.203 . S
C590 O597 1.267 . S
O591 C590 1.203 . S
O592 C585 1.185 . S
O592 Zn588 2.086 . S
C593 O589 1.278 . S
C593 O594 1.211 . S
O594 C593 1.211 . S
C595 O587 1.284 . S
C595 O596 1.273 . S
O596 C595 1.273 . S
O597 Zn588 1.977 . S
O597 C590 1.267 . S
C598 O599 1.160 . S
C598 O605 1.185 . S
O599 C598 1.160 . S
O600 Zn601 1.899 . S
O600 C608 1.284 . S
Zn601 O600 1.899 . S
Zn601 O602 2.032 . S
Zn601 O605 2.086 . S
Zn601 O610 1.977 . S
O602 Zn601 2.032 . S
O602 C606 1.278 . S
C603 O604 1.203 . S
C603 O610 1.267 . S
O604 C603 1.203 . S
O605 C598 1.185 . S
O605 Zn601 2.086 . S
C606 O602 1.278 . S
C606 O607 1.211 . S
O607 C606 1.211 . S
C608 O600 1.284 . S
C608 O609 1.273 . S
O609 C608 1.273 . S
O610 Zn601 1.977 . S
O610 C603 1.267 . S
C611 O612 1.160 . S
C611 O618 1.185 . S
O612 C611 1.160 . S
O613 Zn614 1.899 . S
O613 C621 1.284 . S
Zn614 O613 1.899 . S
Zn614 O615 2.032 . S
Zn614 O618 2.086 . S
Zn614 O623 1.977 . S
O615 Zn614 2.032 . S
O615 C619 1.278 . S
C616 O617 1.203 . S
C616 O623 1.267 . S
O617 C616 1.203 . S
O618 C611 1.185 . S
O618 Zn614 2.086 . S
C619 O615 1.278 . S
C619 O620 1.211 . S
O620 C619 1.211 . S
C621 O613 1.284 . S
C621 O622 1.273 . S
O622 C621 1.273 . S
O623 Zn614 1.977 . S
O623 C616 1.267 . S
H624 C632 0.950 . S
H625 C637 0.950 . S
H626 C634 0.950 . S
H627 C636 0.950 . S
H628 C638 0.950 . S
H629 C640 0.950 . S
H630 C642 0.950 . S
H631 C643 0.950 . S
C632 H624 0.950 . S
C632 C633 1.386 . S
C632 C634 1.391 . S
C633 C632 1.386 . S
C633 C637 1.393 . S
C634 H626 0.950 . S
C634 C632 1.391 . S
C634 C635 1.400 . S
C635 C634 1.400 . S
C635 C636 1.398 . S
C635 C641 1.491 . S
C636 H627 0.950 . S
C636 C635 1.398 . S
C636 C637 1.391 . S
C637 H625 0.950 . S
C637 C633 1.393 . S
C637 C636 1.391 . S
C638 H628 0.950 . S
C638 C639 1.386 . S
C638 C640 1.391 . S
C639 C638 1.386 . S
C639 C643 1.393 . S
C640 H629 0.950 . S
C640 C638 1.391 . S
C640 C641 1.400 . S
C641 C635 1.491 . S
C641 C640 1.400 . S
C641 C642 1.398 . S
C642 H630 0.950 . S
C642 C641 1.398 . S
C642 C643 1.391 . S
C643 H631 0.950 . S
C643 C639 1.393 . S
C643 C642 1.391 . S
H644 C652 0.950 . S
H645 C657 0.950 . S
H646 C654 0.950 1_655 S
H647 C656 0.950 1_655 S
H648 C658 0.950 . S
H649 C660 0.950 . S
H650 C662 0.950 . S
H651 C663 0.950 . S
C652 H644 0.950 . S
C652 C653 1.386 . S
C652 C654 1.391 . S
C653 C652 1.386 . S
C653 C657 1.393 . S
C654 H646 0.950 1_455 S
C654 C652 1.391 . S
C654 C655 1.400 1_455 S
C655 C654 1.400 1_655 S
C655 C656 1.398 1_655 S
C655 C661 1.491 . S
C656 H647 0.950 1_455 S
C656 C655 1.398 1_455 S
C656 C657 1.391 . S
C657 H645 0.950 . S
C657 C653 1.393 . S
C657 C656 1.391 . S
C658 H648 0.950 . S
C658 C659 1.386 . S
C658 C660 1.391 . S
C659 C658 1.386 . S
C659 C663 1.393 . S
C660 H649 0.950 . S
C660 C658 1.391 . S
C660 C661 1.400 . S
C661 C655 1.491 . S
C661 C660 1.400 . S
C661 C662 1.398 . S
C662 H650 0.950 . S
C662 C661 1.398 . S
C662 C663 1.391 . S
C663 H651 0.950 . S
C663 C659 1.393 . S
C663 C662 1.391 . S
H664 C672 0.950 . S
H665 C677 0.950 . S
H666 C674 0.950 . S
H667 C676 0.950 . S
H668 C678 0.950 . S
H669 C680 0.950 . S
H670 C682 0.950 . S
H671 C683 0.950 . S
C672 H664 0.950 . S
C672 C673 1.386 . S
C672 C674 1.391 . S
C673 C672 1.386 . S
C673 C677 1.393 . S
C674 H666 0.950 . S
C674 C672 1.391 . S
C674 C675 1.400 . S
C675 C674 1.400 . S
C675 C676 1.398 . S
C675 C681 1.491 . S
C676 H667 0.950 . S
C676 C675 1.398 . S
C676 C677 1.391 . S
C677 H665 0.950 . S
C677 C673 1.393 . S
C677 C676 1.391 . S
C678 H668 0.950 . S
C678 C679 1.386 . S
C678 C680 1.391 . S
C679 C678 1.386 . S
C679 C683 1.393 . S
C680 H669 0.950 . S
C680 C678 1.391 . S
C680 C681 1.400 . S
C681 C675 1.491 . S
C681 C680 1.400 . S
C681 C682 1.398 . S
C682 H670 0.950 . S
C682 C681 1.398 . S
C682 C683 1.391 . S
C683 H671 0.950 . S
C683 C679 1.393 . S
C683 C682 1.391 . S
H684 C692 0.950 . S
H685 C697 0.950 . S
H686 C694 0.950 . S
H687 C696 0.950 . S
H688 C698 0.950 . S
H689 C700 0.950 . S
H690 C702 0.950 . S
H691 C703 0.950 . S
C692 H684 0.950 . S
C692 C693 1.386 . S
C692 C694 1.391 . S
C693 C692 1.386 . S
C693 C697 1.393 . S
C694 H686 0.950 . S
C694 C692 1.391 . S
C694 C695 1.400 . S
C695 C694 1.400 . S
C695 C696 1.398 . S
C695 C701 1.491 . S
C696 H687 0.950 . S
C696 C695 1.398 . S
C696 C697 1.391 . S
C697 H685 0.950 . S
C697 C693 1.393 . S
C697 C696 1.391 . S
C698 H688 0.950 . S
C698 C699 1.386 . S
C698 C700 1.391 . S
C699 C698 1.386 . S
C699 C703 1.393 . S
C700 H689 0.950 . S
C700 C698 1.391 . S
C700 C701 1.400 . S
C701 C695 1.491 . S
C701 C700 1.400 . S
C701 C702 1.398 . S
C702 H690 0.950 . S
C702 C701 1.398 . S
C702 C703 1.391 . S
C703 H691 0.950 . S
C703 C699 1.393 . S
C703 C702 1.391 . S
H704 C712 0.950 . S
H705 C717 0.950 . S
H706 C714 0.950 . S
H707 C716 0.950 . S
H708 C718 0.950 . S
H709 C720 0.950 . S
H710 C722 0.950 . S
H711 C723 0.950 . S
C712 H704 0.950 . S
C712 C713 1.386 . S
C712 C714 1.391 . S
C713 C712 1.386 . S
C713 C717 1.393 . S
C714 H706 0.950 . S
C714 C712 1.391 . S
C714 C715 1.400 . S
C715 C714 1.400 . S
C715 C716 1.398 . S
C715 C721 1.491 . S
C716 H707 0.950 . S
C716 C715 1.398 . S
C716 C717 1.391 . S
C717 H705 0.950 . S
C717 C713 1.393 . S
C717 C716 1.391 . S
C718 H708 0.950 . S
C718 C719 1.386 . S
C718 C720 1.391 . S
C719 C718 1.386 . S
C719 C723 1.393 . S
C720 H709 0.950 . S
C720 C718 1.391 . S
C720 C721 1.400 . S
C721 C715 1.491 . S
C721 C720 1.400 . S
C721 C722 1.398 . S
C722 H710 0.950 . S
C722 C721 1.398 . S
C722 C723 1.391 . S
C723 H711 0.950 . S
C723 C719 1.393 . S
C723 C722 1.391 . S
H724 C732 0.950 . S
H725 C737 0.950 . S
H726 C734 0.950 . S
H727 C736 0.950 . S
H728 C738 0.950 . S
H729 C740 0.950 . S
H730 C742 0.950 . S
H731 C743 0.950 . S
C732 H724 0.950 . S
C732 C733 1.386 . S
C732 C734 1.391 . S
C733 C732 1.386 . S
C733 C737 1.393 . S
C734 H726 0.950 . S
C734 C732 1.391 . S
C734 C735 1.400 . S
C735 C734 1.400 . S
C735 C736 1.398 . S
C735 C741 1.491 . S
C736 H727 0.950 . S
C736 C735 1.398 . S
C736 C737 1.391 . S
C737 H725 0.950 . S
C737 C733 1.393 . S
C737 C736 1.391 . S
C738 H728 0.950 . S
C738 C739 1.386 . S
C738 C740 1.391 . S
C739 C738 1.386 . S
C739 C743 1.393 . S
C740 H729 0.950 . S
C740 C738 1.391 . S
C740 C741 1.400 . S
C741 C735 1.491 . S
C741 C740 1.400 . S
C741 C742 1.398 . S
C742 H730 0.950 . S
C742 C741 1.398 . S
C742 C743 1.391 . S
C743 H731 0.950 . S
C743 C739 1.393 . S
C743 C742 1.391 . S
H744 C752 0.950 . S
H745 C757 0.950 . S
H746 C754 0.950 . S
H747 C756 0.950 . S
H748 C758 0.950 . S
H749 C760 0.950 . S
H750 C762 0.950 . S
H751 C763 0.950 . S
C752 H744 0.950 . S
C752 C753 1.386 . S
C752 C754 1.391 . S
C753 C752 1.386 . S
C753 C757 1.393 . S
C754 H746 0.950 . S
C754 C752 1.391 . S
C754 C755 1.400 . S
C755 C754 1.400 . S
C755 C756 1.398 . S
C755 C761 1.491 . S
C756 H747 0.950 . S
C756 C755 1.398 . S
C756 C757 1.391 . S
C757 H745 0.950 . S
C757 C753 1.393 . S
C757 C756 1.391 . S
C758 H748 0.950 . S
C758 C759 1.386 . S
C758 C760 1.391 . S
C759 C758 1.386 . S
C759 C763 1.393 . S
C760 H749 0.950 . S
C760 C758 1.391 . S
C760 C761 1.400 . S
C761 C755 1.491 . S
C761 C760 1.400 . S
C761 C762 1.398 . S
C762 H750 0.950 . S
C762 C761 1.398 . S
C762 C763 1.391 . S
C763 H751 0.950 . S
C763 C759 1.393 . S
C763 C762 1.391 . S
H764 C772 0.950 . S
H765 C777 0.950 . S
H766 C774 0.950 . S
H767 C776 0.950 1_655 S
H768 C778 0.950 . S
H769 C780 0.950 . S
H770 C782 0.950 . S
H771 C783 0.950 . S
C772 H764 0.950 . S
C772 C773 1.386 . S
C772 C774 1.391 1_455 S
C773 C772 1.386 . S
C773 C777 1.393 . S
C774 H766 0.950 . S
C774 C772 1.391 1_655 S
C774 C775 1.400 . S
C775 C774 1.400 . S
C775 C776 1.398 1_655 S
C775 C781 1.491 . S
C776 H767 0.950 1_455 S
C776 C775 1.398 1_455 S
C776 C777 1.391 . S
C777 H765 0.950 . S
C777 C773 1.393 . S
C777 C776 1.391 . S
C778 H768 0.950 . S
C778 C779 1.386 . S
C778 C780 1.391 . S
C779 C778 1.386 . S
C779 C783 1.393 . S
C780 H769 0.950 . S
C780 C778 1.391 . S
C780 C781 1.400 . S
C781 C775 1.491 . S
C781 C780 1.400 . S
C781 C782 1.398 . S
C782 H770 0.950 . S
C782 C781 1.398 . S
C782 C783 1.391 . S
C783 H771 0.950 . S
C783 C779 1.393 . S
C783 C782 1.391 . S
H784 C792 0.950 . S
H785 C797 0.950 . S
H786 C794 0.950 . S
H787 C796 0.950 . S
H788 C798 0.950 . S
H789 C800 0.950 . S
H790 C802 0.950 . S
H791 C803 0.950 . S
C792 H784 0.950 . S
C792 C793 1.386 . S
C792 C794 1.391 . S
C793 C792 1.386 . S
C793 C797 1.393 . S
C794 H786 0.950 . S
C794 C792 1.391 . S
C794 C795 1.400 . S
C795 C794 1.400 . S
C795 C796 1.398 . S
C795 C801 1.491 . S
C796 H787 0.950 . S
C796 C795 1.398 . S
C796 C797 1.391 . S
C797 H785 0.950 . S
C797 C793 1.393 . S
C797 C796 1.391 . S
C798 H788 0.950 . S
C798 C799 1.386 . S
C798 C800 1.391 . S
C799 C798 1.386 . S
C799 C803 1.393 . S
C800 H789 0.950 . S
C800 C798 1.391 . S
C800 C801 1.400 . S
C801 C795 1.491 . S
C801 C800 1.400 . S
C801 C802 1.398 . S
C802 H790 0.950 . S
C802 C801 1.398 . S
C802 C803 1.391 . S
C803 H791 0.950 . S
C803 C799 1.393 . S
C803 C802 1.391 . S
H804 C812 0.950 . S
H805 C817 0.950 . S
H806 C814 0.950 . S
H807 C816 0.950 . S
H808 C818 0.950 . S
H809 C820 0.950 . S
H810 C822 0.950 . S
H811 C823 0.950 . S
C812 H804 0.950 . S
C812 C813 1.386 . S
C812 C814 1.391 . S
C813 C812 1.386 . S
C813 C817 1.393 . S
C814 H806 0.950 . S
C814 C812 1.391 . S
C814 C815 1.400 . S
C815 C814 1.400 . S
C815 C816 1.398 . S
C815 C821 1.491 . S
C816 H807 0.950 . S
C816 C815 1.398 . S
C816 C817 1.391 . S
C817 H805 0.950 . S
C817 C813 1.393 . S
C817 C816 1.391 . S
C818 H808 0.950 . S
C818 C819 1.386 . S
C818 C820 1.391 . S
C819 C818 1.386 . S
C819 C823 1.393 . S
C820 H809 0.950 . S
C820 C818 1.391 . S
C820 C821 1.400 . S
C821 C815 1.491 . S
C821 C820 1.400 . S
C821 C822 1.398 . S
C822 H810 0.950 . S
C822 C821 1.398 . S
C822 C823 1.391 . S
C823 H811 0.950 . S
C823 C819 1.393 . S
C823 C822 1.391 . S
H824 C832 0.950 . S
H825 C837 0.950 . S
H826 C834 0.950 . S
H827 C836 0.950 . S
H828 C838 0.950 . S
H829 C840 0.950 . S
H830 C842 0.950 . S
H831 C843 0.950 . S
C832 H824 0.950 . S
C832 C833 1.386 . S
C832 C834 1.391 . S
C833 C832 1.386 . S
C833 C837 1.393 . S
C834 H826 0.950 . S
C834 C832 1.391 . S
C834 C835 1.400 . S
C835 C834 1.400 . S
C835 C836 1.398 . S
C835 C841 1.491 . S
C836 H827 0.950 . S
C836 C835 1.398 . S
C836 C837 1.391 . S
C837 H825 0.950 . S
C837 C833 1.393 . S
C837 C836 1.391 . S
C838 H828 0.950 . S
C838 C839 1.386 . S
C838 C840 1.391 . S
C839 C838 1.386 . S
C839 C843 1.393 . S
C840 H829 0.950 . S
C840 C838 1.391 . S
C840 C841 1.400 . S
C841 C835 1.491 . S
C841 C840 1.400 . S
C841 C842 1.398 . S
C842 H830 0.950 . S
C842 C841 1.398 . S
C842 C843 1.391 . S
C843 H831 0.950 . S
C843 C839 1.393 . S
C843 C842 1.391 . S
H844 C852 0.950 . S
H845 C857 0.950 . S
H846 C854 0.950 . S
H847 C856 0.950 . S
H848 C858 0.950 . S
H849 C860 0.950 . S
H850 C862 0.950 . S
H851 C863 0.950 . S
C852 H844 0.950 . S
C852 C853 1.386 . S
C852 C854 1.391 . S
C853 C852 1.386 . S
C853 C857 1.393 . S
C854 H846 0.950 . S
C854 C852 1.391 . S
C854 C855 1.400 1_556 S
C855 C854 1.400 1_554 S
C855 C856 1.398 . S
C855 C861 1.491 . S
C856 H847 0.950 . S
C856 C855 1.398 . S
C856 C857 1.391 1_554 S
C857 H845 0.950 . S
C857 C853 1.393 . S
C857 C856 1.391 1_556 S
C858 H848 0.950 . S
C858 C859 1.386 . S
C858 C860 1.391 . S
C859 C858 1.386 . S
C859 C863 1.393 . S
C860 H849 0.950 . S
C860 C858 1.391 . S
C860 C861 1.400 . S
C861 C855 1.491 . S
C861 C860 1.400 . S
C861 C862 1.398 . S
C862 H850 0.950 . S
C862 C861 1.398 . S
C862 C863 1.391 . S
C863 H851 0.950 . S
C863 C859 1.393 . S
C863 C862 1.391 . S
H864 C872 0.950 . S
H865 C877 0.950 . S
H866 C874 0.950 . S
H867 C876 0.950 . S
H868 C878 0.950 . S
H869 C880 0.950 . S
H870 C882 0.950 . S
H871 C883 0.950 . S
C872 H864 0.950 . S
C872 C873 1.386 . S
C872 C874 1.391 . S
C873 C872 1.386 . S
C873 C877 1.393 . S
C874 H866 0.950 . S
C874 C872 1.391 . S
C874 C875 1.400 . S
C875 C874 1.400 . S
C875 C876 1.398 . S
C875 C881 1.491 . S
C876 H867 0.950 . S
C876 C875 1.398 . S
C876 C877 1.391 . S
C877 H865 0.950 . S
C877 C873 1.393 . S
C877 C876 1.391 . S
C878 H868 0.950 . S
C878 C879 1.386 . S
C878 C880 1.391 . S
C879 C878 1.386 . S
C879 C883 1.393 . S
C880 H869 0.950 . S
C880 C878 1.391 . S
C880 C881 1.400 . S
C881 C875 1.491 . S
C881 C880 1.400 . S
C881 C882 1.398 . S
C882 H870 0.950 . S
C882 C881 1.398 . S
C882 C883 1.391 . S
C883 H871 0.950 . S
C883 C879 1.393 . S
C883 C882 1.391 . S
H884 C892 0.950 . S
H885 C897 0.950 . S
H886 C894 0.950 . S
H887 C896 0.950 . S
H888 C898 0.950 . S
H889 C900 0.950 . S
H890 C902 0.950 . S
H891 C903 0.950 . S
C892 H884 0.950 . S
C892 C893 1.386 . S
C892 C894 1.391 . S
C893 C892 1.386 . S
C893 C897 1.393 . S
C894 H886 0.950 . S
C894 C892 1.391 . S
C894 C895 1.400 . S
C895 C894 1.400 . S
C895 C896 1.398 . S
C895 C901 1.491 . S
C896 H887 0.950 . S
C896 C895 1.398 . S
C896 C897 1.391 . S
C897 H885 0.950 . S
C897 C893 1.393 . S
C897 C896 1.391 . S
C898 H888 0.950 . S
C898 C899 1.386 . S
C898 C900 1.391 . S
C899 C898 1.386 . S
C899 C903 1.393 . S
C900 H889 0.950 . S
C900 C898 1.391 . S
C900 C901 1.400 . S
C901 C895 1.491 . S
C901 C900 1.400 . S
C901 C902 1.398 . S
C902 H890 0.950 . S
C902 C901 1.398 . S
C902 C903 1.391 . S
C903 H891 0.950 . S
C903 C899 1.393 . S
C903 C902 1.391 . S
H904 C912 0.950 . S
H905 C917 0.950 . S
H906 C914 0.950 . S
H907 C916 0.950 . S
H908 C918 0.950 . S
H909 C920 0.950 . S
H910 C922 0.950 . S
H911 C923 0.950 . S
C912 H904 0.950 . S
C912 C913 1.386 . S
C912 C914 1.391 . S
C913 C912 1.386 . S
C913 C917 1.393 . S
C914 H906 0.950 . S
C914 C912 1.391 . S
C914 C915 1.400 . S
C915 C914 1.400 . S
C915 C916 1.398 . S
C915 C921 1.491 . S
C916 H907 0.950 . S
C916 C915 1.398 . S
C916 C917 1.391 . S
C917 H905 0.950 . S
C917 C913 1.393 . S
C917 C916 1.391 . S
C918 H908 0.950 . S
C918 C919 1.386 . S
C918 C920 1.391 . S
C919 C918 1.386 . S
C919 C923 1.393 . S
C920 H909 0.950 . S
C920 C918 1.391 . S
C920 C921 1.400 . S
C921 C915 1.491 . S
C921 C920 1.400 . S
C921 C922 1.398 . S
C922 H910 0.950 . S
C922 C921 1.398 . S
C922 C923 1.391 . S
C923 H911 0.950 . S
C923 C919 1.393 . S
C923 C922 1.391 . S
H924 C932 0.950 . S
H925 C937 0.950 . S
H926 C934 0.949 . S
H927 C936 0.950 . S
H928 C938 0.950 . S
H929 C940 0.950 . S
H930 C942 0.950 . S
H931 C943 0.950 . S
C932 H924 0.950 . S
C932 C933 1.386 . S
C932 C934 1.393 1_554 S
C933 C932 1.386 . S
C933 C937 1.393 . S
C934 H926 0.949 . S
C934 C932 1.393 1_556 S
C934 C935 1.399 . S
C935 C934 1.399 . S
C935 C936 1.398 . S
C935 C941 1.491 . S
C936 H927 0.950 . S
C936 C935 1.398 . S
C936 C937 1.391 1_556 S
C937 H925 0.950 . S
C937 C933 1.393 . S
C937 C936 1.391 1_554 S
C938 H928 0.950 . S
C938 C939 1.386 . S
C938 C940 1.391 . S
C939 C938 1.386 . S
C939 C943 1.393 . S
C940 H929 0.950 . S
C940 C938 1.391 . S
C940 C941 1.400 . S
C941 C935 1.491 . S
C941 C940 1.400 . S
C941 C942 1.398 . S
C942 H930 0.950 . S
C942 C941 1.398 . S
C942 C943 1.391 . S
C943 H931 0.950 . S
C943 C939 1.393 . S
C943 C942 1.391 . S
H944 C952 0.950 . S
H945 C957 0.950 . S
H946 C954 0.950 . S
H947 C956 0.950 . S
H948 C958 0.950 . S
H949 C960 0.950 . S
H950 C962 0.950 . S
H951 C963 0.950 . S
C952 H944 0.950 . S
C952 C953 1.386 . S
C952 C954 1.391 . S
C953 C952 1.386 . S
C953 C957 1.393 . S
C954 H946 0.950 . S
C954 C952 1.391 . S
C954 C955 1.400 . S
C955 C954 1.400 . S
C955 C956 1.398 . S
C955 C961 1.491 . S
C956 H947 0.950 . S
C956 C955 1.398 . S
C956 C957 1.391 . S
C957 H945 0.950 . S
C957 C953 1.393 . S
C957 C956 1.391 . S
C958 H948 0.950 . S
C958 C959 1.386 . S
C958 C960 1.391 . S
C959 C958 1.386 . S
C959 C963 1.393 . S
C960 H949 0.950 . S
C960 C958 1.391 . S
C960 C961 1.400 . S
C961 C955 1.491 . S
C961 C960 1.400 . S
C961 C962 1.398 . S
C962 H950 0.950 . S
C962 C961 1.398 . S
C962 C963 1.391 . S
C963 H951 0.950 . S
C963 C959 1.393 . S
C963 C962 1.391 . S
H964 C972 0.950 . S
H965 C977 0.950 . S
H966 C974 0.950 . S
H967 C976 0.950 . S
H968 C978 0.950 . S
H969 C980 0.950 . S
H970 C982 0.950 . S
H971 C983 0.950 . S
C972 H964 0.950 . S
C972 C973 1.386 . S
C972 C974 1.391 . S
C973 C972 1.386 . S
C973 C977 1.393 . S
C974 H966 0.950 . S
C974 C972 1.391 . S
C974 C975 1.400 . S
C975 C974 1.400 . S
C975 C976 1.398 . S
C975 C981 1.491 . S
C976 H967 0.950 . S
C976 C975 1.398 . S
C976 C977 1.391 . S
C977 H965 0.950 . S
C977 C973 1.393 . S
C977 C976 1.391 . S
C978 H968 0.950 . S
C978 C979 1.386 . S
C978 C980 1.391 . S
C979 C978 1.386 . S
C979 C983 1.393 . S
C980 H969 0.950 . S
C980 C978 1.391 . S
C980 C981 1.400 . S
C981 C975 1.491 . S
C981 C980 1.400 . S
C981 C982 1.398 . S
C982 H970 0.950 . S
C982 C981 1.398 . S
C982 C983 1.391 . S
C983 H971 0.950 . S
C983 C979 1.393 . S
C983 C982 1.391 . S
H984 C992 0.950 . S
H985 C997 0.950 . S
H986 C994 0.950 . S
H987 C996 0.950 . S
H988 C998 0.950 . S
H989 C1000 0.950 . S
H990 C1002 0.950 . S
H991 C1003 0.950 . S
C992 H984 0.950 . S
C992 C993 1.386 . S
C992 C994 1.391 . S
C993 C992 1.386 . S
C993 C997 1.393 . S
C994 H986 0.950 . S
C994 C992 1.391 . S
C994 C995 1.400 . S
C995 C994 1.400 . S
C995 C996 1.398 . S
C995 C1001 1.491 . S
C996 H987 0.950 . S
C996 C995 1.398 . S
C996 C997 1.391 . S
C997 H985 0.950 . S
C997 C993 1.393 . S
C997 C996 1.391 . S
C998 H988 0.950 . S
C998 C999 1.386 . S
C998 C1000 1.391 . S
C999 C998 1.386 . S
C999 C1003 1.393 . S
C1000 H989 0.950 . S
C1000 C998 1.391 . S
C1000 C1001 1.400 . S
C1001 C995 1.491 . S
C1001 C1000 1.400 . S
C1001 C1002 1.398 . S
C1002 H990 0.950 . S
C1002 C1001 1.398 . S
C1002 C1003 1.391 . S
C1003 H991 0.950 . S
C1003 C999 1.393 . S
C1003 C1002 1.391 . S
H1004 C1012 0.950 . S
H1005 C1017 0.950 . S
H1006 C1014 0.950 . S
H1007 C1016 0.950 . S
H1008 C1018 0.950 . S
H1009 C1020 0.950 . S
H1010 C1022 0.950 . S
H1011 C1023 0.950 . S
C1012 H1004 0.950 . S
C1012 C1013 1.386 . S
C1012 C1014 1.391 . S
C1013 C1012 1.386 . S
C1013 C1017 1.393 . S
C1014 H1006 0.950 . S
C1014 C1012 1.391 . S
C1014 C1015 1.400 . S
C1015 C1014 1.400 . S
C1015 C1016 1.398 . S
C1015 C1021 1.491 . S
C1016 H1007 0.950 . S
C1016 C1015 1.398 . S
C1016 C1017 1.391 . S
C1017 H1005 0.950 . S
C1017 C1013 1.393 . S
C1017 C1016 1.391 . S
C1018 H1008 0.950 . S
C1018 C1019 1.386 . S
C1018 C1020 1.391 . S
C1019 C1018 1.386 . S
C1019 C1023 1.393 . S
C1020 H1009 0.950 . S
C1020 C1018 1.391 . S
C1020 C1021 1.400 . S
C1021 C1015 1.491 . S
C1021 C1020 1.400 . S
C1021 C1022 1.398 . S
C1022 H1010 0.950 . S
C1022 C1021 1.398 . S
C1022 C1023 1.391 . S
C1023 H1011 0.950 . S
C1023 C1019 1.393 . S
C1023 C1022 1.391 . S
H1024 C1032 0.950 . S
H1025 C1037 0.950 . S
H1026 C1034 0.950 . S
H1027 C1036 0.950 . S
H1028 C1038 0.950 . S
H1029 C1040 0.950 . S
H1030 C1042 0.950 1_565 S
H1031 C1043 0.950 . S
C1032 H1024 0.950 . S
C1032 C1033 1.386 . S
C1032 C1034 1.391 . S
C1033 C1032 1.386 . S
C1033 C1037 1.393 . S
C1034 H1026 0.950 . S
C1034 C1032 1.391 . S
C1034 C1035 1.400 . S
C1035 C1034 1.400 . S
C1035 C1036 1.398 . S
C1035 C1041 1.491 . S
C1036 H1027 0.950 . S
C1036 C1035 1.398 . S
C1036 C1037 1.391 . S
C1037 H1025 0.950 . S
C1037 C1033 1.393 . S
C1037 C1036 1.391 . S
C1038 H1028 0.950 . S
C1038 C1039 1.386 . S
C1038 C1040 1.391 1_545 S
C1039 C1038 1.386 . S
C1039 C1043 1.393 . S
C1040 H1029 0.950 . S
C1040 C1038 1.391 1_565 S
C1040 C1041 1.400 . S
C1041 C1035 1.491 . S
C1041 C1040 1.400 . S
C1041 C1042 1.398 1_565 S
C1042 H1030 0.950 1_545 S
C1042 C1041 1.398 1_545 S
C1042 C1043 1.391 . S
C1043 H1031 0.950 . S
C1043 C1039 1.393 . S
C1043 C1042 1.391 . S
H1044 C1052 0.950 . S
H1045 C1057 0.950 . S
H1046 C1054 0.950 . S
H1047 C1056 0.950 . S
H1048 C1058 0.950 . S
H1049 C1060 0.950 . S
H1050 C1062 0.950 . S
H1051 C1063 0.950 . S
C1052 H1044 0.950 . S
C1052 C1053 1.386 . S
C1052 C1054 1.391 . S
C1053 C1052 1.386 . S
C1053 C1057 1.393 . S
C1054 H1046 0.950 . S
C1054 C1052 1.391 . S
C1054 C1055 1.400 . S
C1055 C1054 1.400 . S
C1055 C1056 1.398 . S
C1055 C1061 1.491 . S
C1056 H1047 0.950 . S
C1056 C1055 1.398 . S
C1056 C1057 1.391 . S
C1057 H1045 0.950 . S
C1057 C1053 1.393 . S
C1057 C1056 1.391 . S
C1058 H1048 0.950 . S
C1058 C1059 1.386 . S
C1058 C1060 1.391 . S
C1059 C1058 1.386 . S
C1059 C1063 1.393 . S
C1060 H1049 0.950 . S
C1060 C1058 1.391 . S
C1060 C1061 1.400 . S
C1061 C1055 1.491 . S
C1061 C1060 1.400 . S
C1061 C1062 1.398 . S
C1062 H1050 0.950 . S
C1062 C1061 1.398 . S
C1062 C1063 1.391 . S
C1063 H1051 0.950 . S
C1063 C1059 1.393 . S
C1063 C1062 1.391 . S
H1064 C1072 0.950 . S
H1065 C1077 0.950 . S
H1066 C1074 0.950 . S
H1067 C1076 0.950 . S
H1068 C1078 0.950 . S
H1069 C1080 0.950 . S
H1070 C1082 0.950 . S
H1071 C1083 0.950 . S
C1072 H1064 0.950 . S
C1072 C1073 1.386 . S
C1072 C1074 1.391 . S
C1073 C1072 1.386 . S
C1073 C1077 1.393 . S
C1074 H1066 0.950 . S
C1074 C1072 1.391 . S
C1074 C1075 1.400 . S
C1075 C1074 1.400 . S
C1075 C1076 1.398 . S
C1075 C1081 1.491 . S
C1076 H1067 0.950 . S
C1076 C1075 1.398 . S
C1076 C1077 1.391 . S
C1077 H1065 0.950 . S
C1077 C1073 1.393 . S
C1077 C1076 1.391 . S
C1078 H1068 0.950 . S
C1078 C1079 1.386 . S
C1078 C1080 1.391 . S
C1079 C1078 1.386 . S
C1079 C1083 1.393 . S
C1080 H1069 0.950 . S
C1080 C1078 1.391 . S
C1080 C1081 1.400 . S
C1081 C1075 1.491 . S
C1081 C1080 1.400 . S
C1081 C1082 1.398 . S
C1082 H1070 0.950 . S
C1082 C1081 1.398 . S
C1082 C1083 1.391 . S
C1083 H1071 0.950 . S
C1083 C1079 1.393 . S
C1083 C1082 1.391 . S
H1084 C1092 0.950 . S
H1085 C1097 0.950 . S
H1086 C1094 0.950 . S
H1087 C1096 0.950 . S
H1088 C1098 0.950 . S
H1089 C1100 0.950 . S
H1090 C1102 0.950 . S
H1091 C1103 0.950 . S
C1092 H1084 0.950 . S
C1092 C1093 1.386 . S
C1092 C1094 1.391 . S
C1093 C1092 1.386 . S
C1093 C1097 1.393 . S
C1094 H1086 0.950 . S
C1094 C1092 1.391 . S
C1094 C1095 1.400 . S
C1095 C1094 1.400 . S
C1095 C1096 1.398 . S
C1095 C1101 1.491 . S
C1096 H1087 0.950 . S
C1096 C1095 1.398 . S
C1096 C1097 1.391 . S
C1097 H1085 0.950 . S
C1097 C1093 1.393 . S
C1097 C1096 1.391 . S
C1098 H1088 0.950 . S
C1098 C1099 1.386 . S
C1098 C1100 1.391 . S
C1099 C1098 1.386 . S
C1099 C1103 1.393 . S
C1100 H1089 0.950 . S
C1100 C1098 1.391 . S
C1100 C1101 1.400 . S
C1101 C1095 1.491 . S
C1101 C1100 1.400 . S
C1101 C1102 1.398 . S
C1102 H1090 0.950 . S
C1102 C1101 1.398 . S
C1102 C1103 1.391 . S
C1103 H1091 0.950 . S
C1103 C1099 1.393 . S
C1103 C1102 1.391 . S
H1104 C1112 0.950 . S
H1105 C1117 0.950 . S
H1106 C1114 0.950 . S
H1107 C1116 0.950 . S
H1108 C1118 0.950 . S
H1109 C1120 0.950 . S
H1110 C1122 0.950 . S
H1111 C1123 0.950 . S
C1112 H1104 0.950 . S
C1112 C1113 1.386 . S
C1112 C1114 1.391 . S
C1113 C1112 1.386 . S
C1113 C1117 1.393 . S
C1114 H1106 0.950 . S
C1114 C1112 1.391 . S
C1114 C1115 1.400 . S
C1115 C1114 1.400 . S
C1115 C1116 1.398 . S
C1115 C1121 1.491 . S
C1116 H1107 0.950 . S
C1116 C1115 1.398 . S
C1116 C1117 1.391 . S
C1117 H1105 0.950 . S
C1117 C1113 1.393 . S
C1117 C1116 1.391 . S
C1118 H1108 0.950 . S
C1118 C1119 1.386 . S
C1118 C1120 1.391 . S
C1119 C1118 1.386 . S
C1119 C1123 1.393 . S
C1120 H1109 0.950 . S
C1120 C1118 1.391 . S
C1120 C1121 1.400 . S
C1121 C1115 1.491 . S
C1121 C1120 1.400 . S
C1121 C1122 1.398 . S
C1122 H1110 0.950 . S
C1122 C1121 1.398 . S
C1122 C1123 1.391 . S
C1123 H1111 0.950 . S
C1123 C1119 1.393 . S
C1123 C1122 1.391 . S
H1124 C1132 0.950 . S
H1125 C1137 0.950 . S
H1126 C1134 0.950 . S
H1127 C1136 0.941 1_455 S
H1128 C1138 0.950 . S
H1129 C1140 0.950 . S
H1130 C1142 0.950 . S
H1131 C1143 0.950 . S
C1132 H1124 0.950 . S
C1132 C1133 1.386 . S
C1132 C1134 1.391 1_655 S
C1133 C1132 1.386 . S
C1133 C1137 1.393 . S
C1134 H1126 0.950 . S
C1134 C1132 1.391 1_455 S
C1134 C1135 1.400 . S
C1135 C1134 1.400 . S
C1135 C1136 1.363 1_455 S
C1135 C1141 1.491 . S
C1136 H1127 0.941 1_655 S
C1136 C1135 1.363 1_655 S
C1136 C1137 1.437 . S
C1137 H1125 0.950 . S
C1137 C1133 1.393 . S
C1137 C1136 1.437 . S
C1138 H1128 0.950 . S
C1138 C1139 1.386 . S
C1138 C1140 1.391 . S
C1139 C1138 1.386 . S
C1139 C1143 1.393 . S
C1140 H1129 0.950 . S
C1140 C1138 1.391 . S
C1140 C1141 1.400 . S
C1141 C1135 1.491 . S
C1141 C1140 1.400 . S
C1141 C1142 1.398 . S
C1142 H1130 0.950 . S
C1142 C1141 1.398 . S
C1142 C1143 1.391 . S
C1143 H1131 0.950 . S
C1143 C1139 1.393 . S
C1143 C1142 1.391 . S
H1144 C1152 0.950 . S
H1145 C1157 0.950 . S
H1146 C1154 0.950 . S
H1147 C1156 0.950 . S
H1148 C1158 0.950 . S
H1149 C1160 0.950 . S
H1150 C1162 0.950 . S
H1151 C1163 0.950 . S
C1152 H1144 0.950 . S
C1152 C1153 1.386 . S
C1152 C1154 1.391 . S
C1153 C1152 1.386 . S
C1153 C1157 1.393 . S
C1154 H1146 0.950 . S
C1154 C1152 1.391 . S
C1154 C1155 1.400 . S
C1155 C1154 1.400 . S
C1155 C1156 1.398 . S
C1155 C1161 1.491 . S
C1156 H1147 0.950 . S
C1156 C1155 1.398 . S
C1156 C1157 1.391 . S
C1157 H1145 0.950 . S
C1157 C1153 1.393 . S
C1157 C1156 1.391 . S
C1158 H1148 0.950 . S
C1158 C1159 1.386 . S
C1158 C1160 1.391 . S
C1159 C1158 1.386 . S
C1159 C1163 1.393 . S
C1160 H1149 0.950 . S
C1160 C1158 1.391 . S
C1160 C1161 1.400 . S
C1161 C1155 1.491 . S
C1161 C1160 1.400 . S
C1161 C1162 1.398 . S
C1162 H1150 0.950 . S
C1162 C1161 1.398 . S
C1162 C1163 1.391 . S
C1163 H1151 0.950 . S
C1163 C1159 1.393 . S
C1163 C1162 1.391 . S
H1164 C1172 0.950 . S
H1165 C1177 0.950 . S
H1166 C1174 0.950 . S
H1167 C1176 0.950 . S
H1168 C1178 0.950 . S
H1169 C1180 0.950 . S
H1170 C1182 0.950 . S
H1171 C1183 0.950 . S
C1172 H1164 0.950 . S
C1172 C1173 1.386 . S
C1172 C1174 1.391 . S
C1173 C1172 1.386 . S
C1173 C1177 1.393 . S
C1174 H1166 0.950 . S
C1174 C1172 1.391 . S
C1174 C1175 1.400 . S
C1175 C1174 1.400 . S
C1175 C1176 1.398 . S
C1175 C1181 1.491 . S
C1176 H1167 0.950 . S
C1176 C1175 1.398 . S
C1176 C1177 1.391 . S
C1177 H1165 0.950 . S
C1177 C1173 1.393 . S
C1177 C1176 1.391 . S
C1178 H1168 0.950 . S
C1178 C1179 1.386 . S
C1178 C1180 1.391 . S
C1179 C1178 1.386 . S
C1179 C1183 1.393 . S
C1180 H1169 0.950 . S
C1180 C1178 1.391 . S
C1180 C1181 1.400 . S
C1181 C1175 1.491 . S
C1181 C1180 1.400 . S
C1181 C1182 1.398 . S
C1182 H1170 0.950 . S
C1182 C1181 1.398 . S
C1182 C1183 1.391 . S
C1183 H1171 0.950 . S
C1183 C1179 1.393 . S
C1183 C1182 1.391 . S
H1184 C1192 0.950 . S
H1185 C1197 0.950 . S
H1186 C1194 0.950 . S
H1187 C1196 0.950 . S
H1188 C1198 0.950 . S
H1189 C1200 0.950 . S
H1190 C1202 0.950 . S
H1191 C1203 0.950 . S
C1192 H1184 0.950 . S
C1192 C1193 1.386 . S
C1192 C1194 1.391 . S
C1193 C1192 1.386 . S
C1193 C1197 1.393 . S
C1194 H1186 0.950 . S
C1194 C1192 1.391 . S
C1194 C1195 1.400 . S
C1195 C1194 1.400 . S
C1195 C1196 1.398 . S
C1195 C1201 1.491 . S
C1196 H1187 0.950 . S
C1196 C1195 1.398 . S
C1196 C1197 1.391 . S
C1197 H1185 0.950 . S
C1197 C1193 1.393 . S
C1197 C1196 1.391 . S
C1198 H1188 0.950 . S
C1198 C1199 1.386 . S
C1198 C1200 1.391 . S
C1199 C1198 1.386 . S
C1199 C1203 1.393 . S
C1200 H1189 0.950 . S
C1200 C1198 1.391 . S
C1200 C1201 1.400 . S
C1201 C1195 1.491 . S
C1201 C1200 1.400 . S
C1201 C1202 1.398 . S
C1202 H1190 0.950 . S
C1202 C1201 1.398 . S
C1202 C1203 1.391 . S
C1203 H1191 0.950 . S
C1203 C1199 1.393 . S
C1203 C1202 1.391 . S
H1204 C1212 0.950 . S
H1205 C1217 0.950 . S
H1206 C1214 0.950 . S
H1207 C1216 0.950 . S
H1208 C1218 0.950 . S
H1209 C1220 0.950 . S
H1210 C1222 0.950 . S
H1211 C1223 0.950 . S
C1212 H1204 0.950 . S
C1212 C1213 1.386 . S
C1212 C1214 1.391 . S
C1213 C1212 1.386 . S
C1213 C1217 1.393 . S
C1214 H1206 0.950 . S
C1214 C1212 1.391 . S
C1214 C1215 1.400 . S
C1215 C1214 1.400 . S
C1215 C1216 1.398 . S
C1215 C1221 1.491 . S
C1216 H1207 0.950 . S
C1216 C1215 1.398 . S
C1216 C1217 1.391 . S
C1217 H1205 0.950 . S
C1217 C1213 1.393 . S
C1217 C1216 1.391 . S
C1218 H1208 0.950 . S
C1218 C1219 1.386 . S
C1218 C1220 1.391 . S
C1219 C1218 1.386 . S
C1219 C1223 1.393 . S
C1220 H1209 0.950 . S
C1220 C1218 1.391 . S
C1220 C1221 1.400 . S
C1221 C1215 1.491 . S
C1221 C1220 1.400 . S
C1221 C1222 1.398 . S
C1222 H1210 0.950 . S
C1222 C1221 1.398 . S
C1222 C1223 1.391 . S
C1223 H1211 0.950 . S
C1223 C1219 1.393 . S
C1223 C1222 1.391 . S
H1224 C1232 0.950 . S
H1225 C1237 0.950 . S
H1226 C1234 0.950 . S
H1227 C1236 0.950 . S
H1228 C1238 0.950 . S
H1229 C1240 0.950 . S
H1230 C1242 0.950 . S
H1231 C1243 0.950 . S
C1232 H1224 0.950 . S
C1232 C1233 1.386 . S
C1232 C1234 1.391 . S
C1233 C1232 1.386 . S
C1233 C1237 1.393 . S
C1234 H1226 0.950 . S
C1234 C1232 1.391 . S
C1234 C1235 1.400 . S
C1235 C1234 1.400 . S
C1235 C1236 1.398 . S
C1235 C1241 1.491 . S
C1236 H1227 0.950 . S
C1236 C1235 1.398 . S
C1236 C1237 1.391 . S
C1237 H1225 0.950 . S
C1237 C1233 1.393 . S
C1237 C1236 1.391 . S
C1238 H1228 0.950 . S
C1238 C1239 1.386 . S
C1238 C1240 1.391 . S
C1239 C1238 1.386 . S
C1239 C1243 1.393 . S
C1240 H1229 0.950 . S
C1240 C1238 1.391 . S
C1240 C1241 1.400 . S
C1241 C1235 1.491 . S
C1241 C1240 1.400 . S
C1241 C1242 1.398 . S
C1242 H1230 0.950 . S
C1242 C1241 1.398 . S
C1242 C1243 1.391 . S
C1243 H1231 0.950 . S
C1243 C1239 1.393 . S
C1243 C1242 1.391 . S
H1244 C1252 0.950 . S
H1245 C1257 0.950 . S
H1246 C1254 0.950 . S
H1247 C1256 0.950 . S
H1248 C1258 0.950 . S
H1249 C1260 0.950 1_455 S
H1250 C1262 0.950 . S
H1251 C1263 0.950 . S
C1252 H1244 0.950 . S
C1252 C1253 1.386 . S
C1252 C1254 1.391 . S
C1253 C1252 1.386 . S
C1253 C1257 1.393 . S
C1254 H1246 0.950 . S
C1254 C1252 1.391 . S
C1254 C1255 1.400 . S
C1255 C1254 1.400 . S
C1255 C1256 1.398 . S
C1255 C1261 1.491 . S
C1256 H1247 0.950 . S
C1256 C1255 1.398 . S
C1256 C1257 1.391 . S
C1257 H1245 0.950 . S
C1257 C1253 1.393 . S
C1257 C1256 1.391 . S
C1258 H1248 0.950 . S
C1258 C1259 1.386 . S
C1258 C1260 1.391 . S
C1259 C1258 1.386 . S
C1259 C1263 1.393 . S
C1260 H1249 0.950 1_655 S
C1260 C1258 1.391 . S
C1260 C1261 1.400 1_655 S
C1261 C1255 1.491 . S
C1261 C1260 1.400 1_455 S
C1261 C1262 1.398 . S
C1262 H1250 0.950 . S
C1262 C1261 1.398 . S
C1262 C1263 1.391 1_455 S
C1263 H1251 0.950 . S
C1263 C1259 1.393 . S
C1263 C1262 1.391 1_655 S
H1264 C1272 0.950 . S
H1265 C1277 0.950 . S
H1266 C1274 0.950 . S
H1267 C1276 0.950 . S
H1268 C1278 0.950 . S
H1269 C1280 0.950 . S
H1270 C1282 0.950 . S
H1271 C1283 0.950 . S
C1272 H1264 0.950 . S
C1272 C1273 1.386 . S
C1272 C1274 1.391 . S
C1273 C1272 1.386 . S
C1273 C1277 1.393 . S
C1274 H1266 0.950 . S
C1274 C1272 1.391 . S
C1274 C1275 1.400 . S
C1275 C1274 1.400 . S
C1275 C1276 1.398 . S
C1275 C1281 1.491 . S
C1276 H1267 0.950 . S
C1276 C1275 1.398 . S
C1276 C1277 1.391 . S
C1277 H1265 0.950 . S
C1277 C1273 1.393 . S
C1277 C1276 1.391 . S
C1278 H1268 0.950 . S
C1278 C1279 1.386 . S
C1278 C1280 1.391 . S
C1279 C1278 1.386 . S
C1279 C1283 1.393 . S
C1280 H1269 0.950 . S
C1280 C1278 1.391 . S
C1280 C1281 1.400 . S
C1281 C1275 1.491 . S
C1281 C1280 1.400 . S
C1281 C1282 1.398 . S
C1282 H1270 0.950 . S
C1282 C1281 1.398 . S
C1282 C1283 1.391 . S
C1283 H1271 0.950 . S
C1283 C1279 1.393 . S
C1283 C1282 1.391 . S
H1284 C1292 0.950 . S
H1285 C1297 0.950 . S
H1286 C1294 0.950 . S
H1287 C1296 0.950 . S
H1288 C1298 0.950 . S
H1289 C1300 0.950 . S
H1290 C1302 0.950 . S
H1291 C1303 0.950 . S
C1292 H1284 0.950 . S
C1292 C1293 1.386 . S
C1292 C1294 1.391 . S
C1293 C1292 1.386 . S
C1293 C1297 1.393 . S
C1294 H1286 0.950 . S
C1294 C1292 1.391 . S
C1294 C1295 1.400 . S
C1295 C1294 1.400 . S
C1295 C1296 1.398 . S
C1295 C1301 1.491 . S
C1296 H1287 0.950 . S
C1296 C1295 1.398 . S
C1296 C1297 1.391 . S
C1297 H1285 0.950 . S
C1297 C1293 1.393 . S
C1297 C1296 1.391 . S
C1298 H1288 0.950 . S
C1298 C1299 1.386 . S
C1298 C1300 1.391 . S
C1299 C1298 1.386 . S
C1299 C1303 1.393 . S
C1300 H1289 0.950 . S
C1300 C1298 1.391 . S
C1300 C1301 1.400 . S
C1301 C1295 1.491 . S
C1301 C1300 1.400 . S
C1301 C1302 1.398 . S
C1302 H1290 0.950 . S
C1302 C1301 1.398 . S
C1302 C1303 1.391 . S
C1303 H1291 0.950 . S
C1303 C1299 1.393 . S
C1303 C1302 1.391 . S
H1304 C1312 0.950 . S
H1305 C1317 0.950 . S
H1306 C1314 0.950 . S
H1307 C1316 0.950 . S
H1308 C1318 0.950 . S
H1309 C1320 0.950 . S
H1310 C1322 0.950 . S
H1311 C1323 0.950 . S
C1312 H1304 0.950 . S
C1312 C1313 1.386 . S
C1312 C1314 1.391 . S
C1313 C1312 1.386 . S
C1313 C1317 1.393 . S
C1314 H1306 0.950 . S
C1314 C1312 1.391 . S
C1314 C1315 1.400 . S
C1315 C1314 1.400 . S
C1315 C1316 1.398 . S
C1315 C1321 1.491 . S
C1316 H1307 0.950 . S
C1316 C1315 1.398 . S
C1316 C1317 1.391 . S
C1317 H1305 0.950 . S
C1317 C1313 1.393 . S
C1317 C1316 1.391 . S
C1318 H1308 0.950 . S
C1318 C1319 1.386 . S
C1318 C1320 1.391 . S
C1319 C1318 1.386 . S
C1319 C1323 1.393 . S
C1320 H1309 0.950 . S
C1320 C1318 1.391 . S
C1320 C1321 1.400 . S
C1321 C1315 1.491 . S
C1321 C1320 1.400 . S
C1321 C1322 1.398 . S
C1322 H1310 0.950 . S
C1322 C1321 1.398 . S
C1322 C1323 1.391 . S
C1323 H1311 0.950 . S
C1323 C1319 1.393 . S
C1323 C1322 1.391 . S
H1324 C1332 0.950 . S
H1325 C1337 0.950 . S
H1326 C1334 0.950 . S
H1327 C1336 0.950 . S
H1328 C1338 0.950 . S
H1329 C1340 0.950 1_556 S
H1330 C1342 0.950 1_556 S
H1331 C1343 0.950 . S
C1332 H1324 0.950 . S
C1332 C1333 1.386 . S
C1332 C1334 1.391 . S
C1333 C1332 1.386 . S
C1333 C1337 1.393 . S
C1334 H1326 0.950 . S
C1334 C1332 1.391 . S
C1334 C1335 1.400 . S
C1335 C1334 1.400 . S
C1335 C1336 1.398 . S
C1335 C1341 1.491 . S
C1336 H1327 0.950 . S
C1336 C1335 1.398 . S
C1336 C1337 1.391 . S
C1337 H1325 0.950 . S
C1337 C1333 1.393 . S
C1337 C1336 1.391 . S
C1338 H1328 0.950 . S
C1338 C1339 1.386 . S
C1338 C1340 1.391 . S
C1339 C1338 1.386 . S
C1339 C1343 1.393 . S
C1340 H1329 0.950 1_554 S
C1340 C1338 1.391 . S
C1340 C1341 1.400 1_554 S
C1341 C1335 1.491 . S
C1341 C1340 1.400 1_556 S
C1341 C1342 1.398 1_556 S
C1342 H1330 0.950 1_554 S
C1342 C1341 1.398 1_554 S
C1342 C1343 1.391 . S
C1343 H1331 0.950 . S
C1343 C1339 1.393 . S
C1343 C1342 1.391 . S
H1344 C1352 0.950 . S
H1345 C1357 0.950 . S
H1346 C1354 0.950 . S
H1347 C1356 0.950 . S
H1348 C1358 0.950 . S
H1349 C1360 0.950 . S
H1350 C1362 0.950 . S
H1351 C1363 0.950 . S
C1352 H1344 0.950 . S
C1352 C1353 1.386 . S
C1352 C1354 1.391 . S
C1353 C1352 1.386 . S
C1353 C1357 1.393 . S
C1354 H1346 0.950 . S
C1354 C1352 1.391 . S
C1354 C1355 1.400 . S
C1355 C1354 1.400 . S
C1355 C1356 1.398 . S
C1355 C1361 1.491 . S
C1356 H1347 0.950 . S
C1356 C1355 1.398 . S
C1356 C1357 1.391 . S
C1357 H1345 0.950 . S
C1357 C1353 1.393 . S
C1357 C1356 1.391 . S
C1358 H1348 0.950 . S
C1358 C1359 1.386 . S
C1358 C1360 1.391 . S
C1359 C1358 1.386 . S
C1359 C1363 1.393 . S
C1360 H1349 0.950 . S
C1360 C1358 1.391 . S
C1360 C1361 1.400 . S
C1361 C1355 1.491 . S
C1361 C1360 1.400 . S
C1361 C1362 1.398 . S
C1362 H1350 0.950 . S
C1362 C1361 1.398 . S
C1362 C1363 1.391 . S
C1363 H1351 0.950 . S
C1363 C1359 1.393 . S
C1363 C1362 1.391 . S
H1364 C1372 0.950 . S
H1365 C1377 0.950 . S
H1366 C1374 0.950 . S
H1367 C1376 0.950 . S
H1368 C1378 0.950 . S
H1369 C1380 0.950 . S
H1370 C1382 0.950 . S
H1371 C1383 0.950 . S
C1372 H1364 0.950 . S
C1372 C1373 1.386 . S
C1372 C1374 1.391 . S
C1373 C1372 1.386 . S
C1373 C1377 1.393 . S
C1374 H1366 0.950 . S
C1374 C1372 1.391 . S
C1374 C1375 1.400 . S
C1375 C1374 1.400 . S
C1375 C1376 1.398 . S
C1375 C1381 1.491 . S
C1376 H1367 0.950 . S
C1376 C1375 1.398 . S
C1376 C1377 1.391 . S
C1377 H1365 0.950 . S
C1377 C1373 1.393 . S
C1377 C1376 1.391 . S
C1378 H1368 0.950 . S
C1378 C1379 1.386 . S
C1378 C1380 1.391 . S
C1379 C1378 1.386 . S
C1379 C1383 1.393 . S
C1380 H1369 0.950 . S
C1380 C1378 1.391 . S
C1380 C1381 1.400 . S
C1381 C1375 1.491 . S
C1381 C1380 1.400 . S
C1381 C1382 1.398 . S
C1382 H1370 0.950 . S
C1382 C1381 1.398 . S
C1382 C1383 1.391 . S
C1383 H1371 0.950 . S
C1383 C1379 1.393 . S
C1383 C1382 1.391 . S
H1384 C1392 0.950 . S
H1385 C1397 0.950 . S
H1386 C1394 0.950 . S
H1387 C1396 0.950 . S
H1388 C1398 0.950 . S
H1389 C1400 0.950 . S
H1390 C1402 0.950 . S
H1391 C1403 0.950 . S
C1392 H1384 0.950 . S
C1392 C1393 1.386 . S
C1392 C1394 1.391 . S
C1393 C1392 1.386 . S
C1393 C1397 1.393 . S
C1394 H1386 0.950 . S
C1394 C1392 1.391 . S
C1394 C1395 1.400 . S
C1395 C1394 1.400 . S
C1395 C1396 1.398 . S
C1395 C1401 1.491 . S
C1396 H1387 0.950 . S
C1396 C1395 1.398 . S
C1396 C1397 1.391 . S
C1397 H1385 0.950 . S
C1397 C1393 1.393 . S
C1397 C1396 1.391 . S
C1398 H1388 0.950 . S
C1398 C1399 1.386 . S
C1398 C1400 1.391 . S
C1399 C1398 1.386 . S
C1399 C1403 1.393 . S
C1400 H1389 0.950 . S
C1400 C1398 1.391 . S
C1400 C1401 1.400 . S
C1401 C1395 1.491 . S
C1401 C1400 1.400 . S
C1401 C1402 1.398 . S
C1402 H1390 0.950 . S
C1402 C1401 1.398 . S
C1402 C1403 1.391 . S
C1403 H1391 0.950 . S
C1403 C1399 1.393 . S
C1403 C1402 1.391 . S
H1404 C1412 0.950 . S
H1405 C1417 0.950 . S
H1406 C1414 0.950 1_554 S
H1407 C1416 0.950 . S
H1408 C1418 0.950 . S
H1409 C1420 0.950 . S
H1410 C1422 0.950 . S
H1411 C1423 0.950 . S
C1412 H1404 0.950 . S
C1412 C1413 1.386 . S
C1412 C1414 1.391 . S
C1413 C1412 1.386 . S
C1413 C1417 1.393 . S
C1414 H1406 0.950 1_556 S
C1414 C1412 1.391 . S
C1414 C1415 1.400 1_556 S
C1415 C1414 1.400 1_554 S
C1415 C1416 1.398 1_554 S
C1415 C1421 1.491 . S
C1416 H1407 0.950 . S
C1416 C1415 1.398 1_556 S
C1416 C1417 1.391 . S
C1417 H1405 0.950 . S
C1417 C1413 1.393 . S
C1417 C1416 1.391 . S
C1418 H1408 0.950 . S
C1418 C1419 1.386 . S
C1418 C1420 1.391 . S
C1419 C1418 1.386 . S
C1419 C1423 1.393 . S
C1420 H1409 0.950 . S
C1420 C1418 1.391 . S
C1420 C1421 1.400 . S
C1421 C1415 1.491 . S
C1421 C1420 1.400 . S
C1421 C1422 1.398 . S
C1422 H1410 0.950 . S
C1422 C1421 1.398 . S
C1422 C1423 1.391 . S
C1423 H1411 0.950 . S
C1423 C1419 1.393 . S
C1423 C1422 1.391 . S
H1424 C1432 0.950 . S
H1425 C1437 0.950 . S
H1426 C1434 0.950 . S
H1427 C1436 0.950 . S
H1428 C1438 0.950 . S
H1429 C1440 0.950 . S
H1430 C1442 0.950 . S
H1431 C1443 0.950 . S
C1432 H1424 0.950 . S
C1432 C1433 1.386 . S
C1432 C1434 1.391 . S
C1433 C1432 1.386 . S
C1433 C1437 1.393 . S
C1434 H1426 0.950 . S
C1434 C1432 1.391 . S
C1434 C1435 1.400 . S
C1435 C1434 1.400 . S
C1435 C1436 1.398 . S
C1435 C1441 1.491 . S
C1436 H1427 0.950 . S
C1436 C1435 1.398 . S
C1436 C1437 1.391 . S
C1437 H1425 0.950 . S
C1437 C1433 1.393 . S
C1437 C1436 1.391 . S
C1438 H1428 0.950 . S
C1438 C1439 1.386 . S
C1438 C1440 1.391 . S
C1439 C1438 1.386 . S
C1439 C1443 1.393 . S
C1440 H1429 0.950 . S
C1440 C1438 1.391 . S
C1440 C1441 1.400 . S
C1441 C1435 1.491 . S
C1441 C1440 1.400 . S
C1441 C1442 1.398 . S
C1442 H1430 0.950 . S
C1442 C1441 1.398 . S
C1442 C1443 1.391 . S
C1443 H1431 0.950 . S
C1443 C1439 1.393 . S
C1443 C1442 1.391 . S
H1444 C1452 0.950 . S
H1445 C1457 0.950 . S
H1446 C1454 0.950 . S
H1447 C1456 0.950 . S
H1448 C1458 0.950 . S
H1449 C1460 0.950 . S
H1450 C1462 0.950 . S
H1451 C1463 0.950 . S
C1452 H1444 0.950 . S
C1452 C1453 1.386 . S
C1452 C1454 1.391 . S
C1453 C1452 1.386 . S
C1453 C1457 1.393 . S
C1454 H1446 0.950 . S
C1454 C1452 1.391 . S
C1454 C1455 1.400 . S
C1455 C1454 1.400 . S
C1455 C1456 1.398 . S
C1455 C1461 1.491 . S
C1456 H1447 0.950 . S
C1456 C1455 1.398 . S
C1456 C1457 1.391 . S
C1457 H1445 0.950 . S
C1457 C1453 1.393 . S
C1457 C1456 1.391 . S
C1458 H1448 0.950 . S
C1458 C1459 1.386 . S
C1458 C1460 1.391 . S
C1459 C1458 1.386 . S
C1459 C1463 1.393 . S
C1460 H1449 0.950 . S
C1460 C1458 1.391 . S
C1460 C1461 1.400 . S
C1461 C1455 1.491 . S
C1461 C1460 1.400 . S
C1461 C1462 1.398 . S
C1462 H1450 0.950 . S
C1462 C1461 1.398 . S
C1462 C1463 1.391 . S
C1463 H1451 0.950 . S
C1463 C1459 1.393 . S
C1463 C1462 1.391 . S
H1464 C1472 0.950 . S
H1465 C1477 0.950 . S
H1466 C1474 0.950 . S
H1467 C1476 0.950 . S
H1468 C1478 0.950 . S
H1469 C1480 0.950 . S
H1470 C1482 0.950 . S
H1471 C1483 0.950 . S
C1472 H1464 0.950 . S
C1472 C1473 1.386 . S
C1472 C1474 1.391 . S
C1473 C1472 1.386 . S
C1473 C1477 1.393 . S
C1474 H1466 0.950 . S
C1474 C1472 1.391 . S
C1474 C1475 1.400 . S
C1475 C1474 1.400 . S
C1475 C1476 1.398 . S
C1475 C1481 1.491 . S
C1476 H1467 0.950 . S
C1476 C1475 1.398 . S
C1476 C1477 1.391 . S
C1477 H1465 0.950 . S
C1477 C1473 1.393 . S
C1477 C1476 1.391 . S
C1478 H1468 0.950 . S
C1478 C1479 1.386 . S
C1478 C1480 1.391 . S
C1479 C1478 1.386 . S
C1479 C1483 1.393 . S
C1480 H1469 0.950 . S
C1480 C1478 1.391 . S
C1480 C1481 1.400 . S
C1481 C1475 1.491 . S
C1481 C1480 1.400 . S
C1481 C1482 1.398 . S
C1482 H1470 0.950 . S
C1482 C1481 1.398 . S
C1482 C1483 1.391 . S
C1483 H1471 0.950 . S
C1483 C1479 1.393 . S
C1483 C1482 1.391 . S
H1484 C1492 0.950 . S
H1485 C1497 0.950 . S
H1486 C1494 0.950 . S
H1487 C1496 0.950 . S
H1488 C1498 0.950 . S
H1489 C1500 0.950 . S
H1490 C1502 0.950 . S
H1491 C1503 0.950 . S
C1492 H1484 0.950 . S
C1492 C1493 1.386 . S
C1492 C1494 1.391 . S
C1493 C1492 1.386 . S
C1493 C1497 1.393 . S
C1494 H1486 0.950 . S
C1494 C1492 1.391 . S
C1494 C1495 1.400 . S
C1495 C1494 1.400 . S
C1495 C1496 1.398 . S
C1495 C1501 1.491 . S
C1496 H1487 0.950 . S
C1496 C1495 1.398 . S
C1496 C1497 1.391 . S
C1497 H1485 0.950 . S
C1497 C1493 1.393 . S
C1497 C1496 1.391 . S
C1498 H1488 0.950 . S
C1498 C1499 1.386 . S
C1498 C1500 1.391 . S
C1499 C1498 1.386 . S
C1499 C1503 1.393 . S
C1500 H1489 0.950 . S
C1500 C1498 1.391 . S
C1500 C1501 1.400 . S
C1501 C1495 1.491 . S
C1501 C1500 1.400 . S
C1501 C1502 1.398 . S
C1502 H1490 0.950 . S
C1502 C1501 1.398 . S
C1502 C1503 1.391 . S
C1503 H1491 0.950 . S
C1503 C1499 1.393 . S
C1503 C1502 1.391 . S
H1504 C1512 0.950 . S
H1505 C1517 0.950 . S
H1506 C1514 0.950 . S
H1507 C1516 0.950 1_545 S
H1508 C1518 0.950 . S
H1509 C1520 0.950 . S
H1510 C1522 0.950 . S
H1511 C1523 0.950 . S
C1512 H1504 0.950 . S
C1512 C1513 1.386 . S
C1512 C1514 1.391 1_565 S
C1513 C1512 1.386 . S
C1513 C1517 1.393 . S
C1514 H1506 0.950 . S
C1514 C1512 1.391 1_545 S
C1514 C1515 1.400 . S
C1515 C1514 1.400 . S
C1515 C1516 1.398 1_545 S
C1515 C1521 1.491 . S
C1516 H1507 0.950 1_565 S
C1516 C1515 1.398 1_565 S
C1516 C1517 1.391 . S
C1517 H1505 0.950 . S
C1517 C1513 1.393 . S
C1517 C1516 1.391 . S
C1518 H1508 0.950 . S
C1518 C1519 1.386 . S
C1518 C1520 1.391 . S
C1519 C1518 1.386 . S
C1519 C1523 1.393 . S
C1520 H1509 0.950 . S
C1520 C1518 1.391 . S
C1520 C1521 1.400 . S
C1521 C1515 1.491 . S
C1521 C1520 1.400 . S
C1521 C1522 1.398 . S
C1522 H1510 0.950 . S
C1522 C1521 1.398 . S
C1522 C1523 1.391 . S
C1523 H1511 0.950 . S
C1523 C1519 1.393 . S
C1523 C1522 1.391 . S
H1524 C1532 0.950 . S
H1525 C1537 0.950 . S
H1526 C1534 0.950 . S
H1527 C1536 0.950 . S
H1528 C1538 0.950 . S
H1529 C1540 0.950 . S
H1530 C1542 0.950 . S
H1531 C1543 0.950 . S
C1532 H1524 0.950 . S
C1532 C1533 1.386 . S
C1532 C1534 1.391 . S
C1533 C1532 1.386 . S
C1533 C1537 1.393 . S
C1534 H1526 0.950 . S
C1534 C1532 1.391 . S
C1534 C1535 1.400 . S
C1535 C1534 1.400 . S
C1535 C1536 1.398 . S
C1535 C1541 1.491 . S
C1536 H1527 0.950 . S
C1536 C1535 1.398 . S
C1536 C1537 1.391 . S
C1537 H1525 0.950 . S
C1537 C1533 1.393 . S
C1537 C1536 1.391 . S
C1538 H1528 0.950 . S
C1538 C1539 1.386 . S
C1538 C1540 1.391 . S
C1539 C1538 1.386 . S
C1539 C1543 1.393 . S
C1540 H1529 0.950 . S
C1540 C1538 1.391 . S
C1540 C1541 1.400 . S
C1541 C1535 1.491 . S
C1541 C1540 1.400 . S
C1541 C1542 1.398 . S
C1542 H1530 0.950 . S
C1542 C1541 1.398 . S
C1542 C1543 1.391 . S
C1543 H1531 0.950 . S
C1543 C1539 1.393 . S
C1543 C1542 1.391 . S
H1544 C1552 0.950 . S
H1545 C1557 0.950 . S
H1546 C1554 0.950 . S
H1547 C1556 0.950 . S
H1548 C1558 0.950 . S
H1549 C1560 0.950 . S
H1550 C1562 0.950 . S
H1551 C1563 0.950 . S
C1552 H1544 0.950 . S
C1552 C1553 1.386 . S
C1552 C1554 1.391 . S
C1553 C1552 1.386 . S
C1553 C1557 1.393 . S
C1554 H1546 0.950 . S
C1554 C1552 1.391 . S
C1554 C1555 1.400 . S
C1555 C1554 1.400 . S
C1555 C1556 1.398 . S
C1555 C1561 1.491 . S
C1556 H1547 0.950 . S
C1556 C1555 1.398 . S
C1556 C1557 1.391 . S
C1557 H1545 0.950 . S
C1557 C1553 1.393 . S
C1557 C1556 1.391 . S
C1558 H1548 0.950 . S
C1558 C1559 1.386 . S
C1558 C1560 1.391 . S
C1559 C1558 1.386 . S
C1559 C1563 1.393 . S
C1560 H1549 0.950 . S
C1560 C1558 1.391 . S
C1560 C1561 1.400 . S
C1561 C1555 1.491 . S
C1561 C1560 1.400 . S
C1561 C1562 1.398 . S
C1562 H1550 0.950 . S
C1562 C1561 1.398 . S
C1562 C1563 1.391 . S
C1563 H1551 0.950 . S
C1563 C1559 1.393 . S
C1563 C1562 1.391 . S
H1564 C1572 0.950 . S
H1565 C1577 0.950 . S
H1566 C1574 0.950 . S
H1567 C1576 0.950 . S
H1568 C1578 0.950 . S
H1569 C1580 0.950 . S
H1570 C1582 0.950 . S
H1571 C1583 0.950 . S
C1572 H1564 0.950 . S
C1572 C1573 1.386 . S
C1572 C1574 1.391 . S
C1573 C1572 1.386 . S
C1573 C1577 1.393 . S
C1574 H1566 0.950 . S
C1574 C1572 1.391 . S
C1574 C1575 1.400 . S
C1575 C1574 1.400 . S
C1575 C1576 1.398 . S
C1575 C1581 1.491 . S
C1576 H1567 0.950 . S
C1576 C1575 1.398 . S
C1576 C1577 1.391 . S
C1577 H1565 0.950 . S
C1577 C1573 1.393 . S
C1577 C1576 1.391 . S
C1578 H1568 0.950 . S
C1578 C1579 1.386 . S
C1578 C1580 1.391 . S
C1579 C1578 1.386 . S
C1579 C1583 1.393 . S
C1580 H1569 0.950 . S
C1580 C1578 1.391 . S
C1580 C1581 1.400 . S
C1581 C1575 1.491 . S
C1581 C1580 1.400 . S
C1581 C1582 1.398 . S
C1582 H1570 0.950 . S
C1582 C1581 1.398 . S
C1582 C1583 1.391 . S
C1583 H1571 0.950 . S
C1583 C1579 1.393 . S
C1583 C1582 1.391 . S
H1584 C1592 0.950 . S
H1585 C1597 0.950 . S
H1586 C1594 0.950 . S
H1587 C1596 0.950 . S
H1588 C1598 0.950 . S
H1589 C1600 0.950 . S
H1590 C1602 0.950 . S
H1591 C1603 0.950 . S
C1592 H1584 0.950 . S
C1592 C1593 1.386 . S
C1592 C1594 1.391 . S
C1593 C1592 1.386 . S
C1593 C1597 1.393 . S
C1594 H1586 0.950 . S
C1594 C1592 1.391 . S
C1594 C1595 1.400 . S
C1595 C1594 1.400 . S
C1595 C1596 1.398 . S
C1595 C1601 1.491 . S
C1596 H1587 0.950 . S
C1596 C1595 1.398 . S
C1596 C1597 1.391 . S
C1597 H1585 0.950 . S
C1597 C1593 1.393 . S
C1597 C1596 1.391 . S
C1598 H1588 0.950 . S
C1598 C1599 1.386 . S
C1598 C1600 1.391 . S
C1599 C1598 1.386 . S
C1599 C1603 1.393 . S
C1600 H1589 0.950 . S
C1600 C1598 1.391 . S
C1600 C1601 1.400 . S
C1601 C1595 1.491 . S
C1601 C1600 1.400 . S
C1601 C1602 1.398 . S
C1602 H1590 0.950 . S
C1602 C1601 1.398 . S
C1602 C1603 1.391 . S
C1603 H1591 0.950 . S
C1603 C1599 1.393 . S
C1603 C1602 1.391 . S
H1604 C1612 0.950 . S
H1605 C1617 0.950 . S
H1606 C1614 0.950 . S
H1607 C1616 0.950 . S
H1608 C1618 0.950 . S
H1609 C1620 0.950 . S
H1610 C1622 0.950 . S
H1611 C1623 0.950 . S
C1612 H1604 0.950 . S
C1612 C1613 1.386 . S
C1612 C1614 1.391 . S
C1613 C1612 1.386 . S
C1613 C1617 1.393 . S
C1614 H1606 0.950 . S
C1614 C1612 1.391 . S
C1614 C1615 1.400 . S
C1615 C1614 1.400 . S
C1615 C1616 1.398 . S
C1615 C1621 1.491 . S
C1616 H1607 0.950 . S
C1616 C1615 1.398 . S
C1616 C1617 1.391 . S
C1617 H1605 0.950 . S
C1617 C1613 1.393 . S
C1617 C1616 1.391 . S
C1618 H1608 0.950 . S
C1618 C1619 1.386 . S
C1618 C1620 1.391 . S
C1619 C1618 1.386 . S
C1619 C1623 1.393 . S
C1620 H1609 0.950 . S
C1620 C1618 1.391 . S
C1620 C1621 1.400 . S
C1621 C1615 1.491 . S
C1621 C1620 1.400 . S
C1621 C1622 1.398 . S
C1622 H1610 0.950 . S
C1622 C1621 1.398 . S
C1622 C1623 1.391 . S
C1623 H1611 0.950 . S
C1623 C1619 1.393 . S
C1623 C1622 1.391 . S
H1624 C1632 0.950 . S
H1625 C1637 0.950 . S
H1626 C1634 0.950 . S
H1627 C1636 0.950 . S
H1628 C1638 0.950 . S
H1629 C1640 0.950 . S
H1630 C1642 0.950 . S
H1631 C1643 0.950 . S
C1632 H1624 0.950 . S
C1632 C1633 1.386 . S
C1632 C1634 1.391 . S
C1633 C1632 1.386 . S
C1633 C1637 1.393 . S
C1634 H1626 0.950 . S
C1634 C1632 1.391 . S
C1634 C1635 1.400 . S
C1635 C1634 1.400 . S
C1635 C1636 1.398 . S
C1635 C1641 1.491 . S
C1636 H1627 0.950 . S
C1636 C1635 1.398 . S
C1636 C1637 1.391 . S
C1637 H1625 0.950 . S
C1637 C1633 1.393 . S
C1637 C1636 1.391 . S
C1638 H1628 0.950 . S
C1638 C1639 1.386 . S
C1638 C1640 1.391 . S
C1639 C1638 1.386 . S
C1639 C1643 1.393 . S
C1640 H1629 0.950 . S
C1640 C1638 1.391 . S
C1640 C1641 1.400 . S
C1641 C1635 1.491 . S
C1641 C1640 1.400 . S
C1641 C1642 1.398 . S
C1642 H1630 0.950 . S
C1642 C1641 1.398 . S
C1642 C1643 1.391 . S
C1643 H1631 0.950 . S
C1643 C1639 1.393 . S
C1643 C1642 1.391 . S
H1644 C1652 0.950 . S
H1645 C1657 0.950 . S
H1646 C1654 0.950 1_455 S
H1647 C1656 0.950 1_455 S
H1648 C1658 0.950 . S
H1649 C1660 0.950 . S
H1650 C1662 0.950 . S
H1651 C1663 0.950 . S
C1652 H1644 0.950 . S
C1652 C1653 1.386 . S
C1652 C1654 1.391 . S
C1653 C1652 1.386 . S
C1653 C1657 1.393 . S
C1654 H1646 0.950 1_655 S
C1654 C1652 1.391 . S
C1654 C1655 1.400 1_655 S
C1655 C1654 1.400 1_455 S
C1655 C1656 1.398 1_455 S
C1655 C1661 1.491 . S
C1656 H1647 0.950 1_655 S
C1656 C1655 1.398 1_655 S
C1656 C1657 1.391 . S
C1657 H1645 0.950 . S
C1657 C1653 1.393 . S
C1657 C1656 1.391 . S
C1658 H1648 0.950 . S
C1658 C1659 1.386 . S
C1658 C1660 1.391 . S
C1659 C1658 1.386 . S
C1659 C1663 1.393 . S
C1660 H1649 0.950 . S
C1660 C1658 1.391 . S
C1660 C1661 1.400 . S
C1661 C1655 1.491 . S
C1661 C1660 1.400 . S
C1661 C1662 1.398 . S
C1662 H1650 0.950 . S
C1662 C1661 1.398 . S
C1662 C1663 1.391 . S
C1663 H1651 0.950 . S
C1663 C1659 1.393 . S
C1663 C1662 1.391 . S
H1664 C1672 0.950 . S
H1665 C1677 0.950 . S
H1666 C1674 0.950 . S
H1667 C1676 0.950 . S
H1668 C1678 0.950 . S
H1669 C1680 0.950 . S
H1670 C1682 0.950 . S
H1671 C1683 0.950 . S
C1672 H1664 0.950 . S
C1672 C1673 1.386 . S
C1672 C1674 1.391 . S
C1673 C1672 1.386 . S
C1673 C1677 1.393 . S
C1674 H1666 0.950 . S
C1674 C1672 1.391 . S
C1674 C1675 1.400 . S
C1675 C1674 1.400 . S
C1675 C1676 1.398 . S
C1675 C1681 1.491 . S
C1676 H1667 0.950 . S
C1676 C1675 1.398 . S
C1676 C1677 1.391 . S
C1677 H1665 0.950 . S
C1677 C1673 1.393 . S
C1677 C1676 1.391 . S
C1678 H1668 0.950 . S
C1678 C1679 1.386 . S
C1678 C1680 1.391 . S
C1679 C1678 1.386 . S
C1679 C1683 1.393 . S
C1680 H1669 0.950 . S
C1680 C1678 1.391 . S
C1680 C1681 1.400 . S
C1681 C1675 1.491 . S
C1681 C1680 1.400 . S
C1681 C1682 1.398 . S
C1682 H1670 0.950 . S
C1682 C1681 1.398 . S
C1682 C1683 1.391 . S
C1683 H1671 0.950 . S
C1683 C1679 1.393 . S
C1683 C1682 1.391 . S
H1684 C1692 0.950 . S
H1685 C1697 0.950 . S
H1686 C1694 0.950 . S
H1687 C1696 0.950 . S
H1688 C1698 0.950 . S
H1689 C1700 0.950 1_455 S
H1690 C1702 0.953 . S
H1691 C1703 0.950 . S
C1692 H1684 0.950 . S
C1692 C1693 1.386 . S
C1692 C1694 1.391 . S
C1693 C1692 1.386 . S
C1693 C1697 1.393 . S
C1694 H1686 0.950 . S
C1694 C1692 1.391 . S
C1694 C1695 1.400 . S
C1695 C1694 1.400 . S
C1695 C1696 1.398 . S
C1695 C1701 1.491 . S
C1696 H1687 0.950 . S
C1696 C1695 1.398 . S
C1696 C1697 1.391 . S
C1697 H1685 0.950 . S
C1697 C1693 1.393 . S
C1697 C1696 1.391 . S
C1698 H1688 0.950 . S
C1698 C1699 1.386 . S
C1698 C1700 1.391 . S
C1699 C1698 1.386 . S
C1699 C1703 1.393 . S
C1700 H1689 0.950 1_655 S
C1700 C1698 1.391 . S
C1700 C1701 1.400 1_655 S
C1701 C1695 1.491 . S
C1701 C1700 1.400 1_455 S
C1701 C1702 1.398 1_455 S
C1702 H1690 0.953 . S
C1702 C1701 1.398 1_655 S
C1702 C1703 1.391 . S
C1703 H1691 0.950 . S
C1703 C1699 1.393 . S
C1703 C1702 1.391 . S
H1704 C1712 0.950 . S
H1705 C1717 0.950 . S
H1706 C1714 0.950 . S
H1707 C1716 0.950 . S
H1708 C1718 0.950 . S
H1709 C1720 0.950 . S
H1710 C1722 0.950 . S
H1711 C1723 0.950 . S
C1712 H1704 0.950 . S
C1712 C1713 1.386 . S
C1712 C1714 1.391 . S
C1713 C1712 1.386 . S
C1713 C1717 1.393 . S
C1714 H1706 0.950 . S
C1714 C1712 1.391 . S
C1714 C1715 1.400 . S
C1715 C1714 1.400 . S
C1715 C1716 1.398 . S
C1715 C1721 1.491 . S
C1716 H1707 0.950 . S
C1716 C1715 1.398 . S
C1716 C1717 1.391 . S
C1717 H1705 0.950 . S
C1717 C1713 1.393 . S
C1717 C1716 1.391 . S
C1718 H1708 0.950 . S
C1718 C1719 1.386 . S
C1718 C1720 1.391 . S
C1719 C1718 1.386 . S
C1719 C1723 1.393 . S
C1720 H1709 0.950 . S
C1720 C1718 1.391 . S
C1720 C1721 1.400 . S
C1721 C1715 1.491 . S
C1721 C1720 1.400 . S
C1721 C1722 1.398 . S
C1722 H1710 0.950 . S
C1722 C1721 1.398 . S
C1722 C1723 1.391 . S
C1723 H1711 0.950 . S
C1723 C1719 1.393 . S
C1723 C1722 1.391 . S
H1724 C1732 0.950 . S
H1725 C1737 0.950 . S
H1726 C1734 0.950 . S
H1727 C1736 0.950 . S
H1728 C1738 0.950 . S
H1729 C1740 0.950 . S
H1730 C1742 0.950 . S
H1731 C1743 0.950 . S
C1732 H1724 0.950 . S
C1732 C1733 1.386 . S
C1732 C1734 1.391 . S
C1733 C1732 1.386 . S
C1733 C1737 1.393 . S
C1734 H1726 0.950 . S
C1734 C1732 1.391 . S
C1734 C1735 1.400 . S
C1735 C1734 1.400 . S
C1735 C1736 1.398 . S
C1735 C1741 1.491 . S
C1736 H1727 0.950 . S
C1736 C1735 1.398 . S
C1736 C1737 1.391 . S
C1737 H1725 0.950 . S
C1737 C1733 1.393 . S
C1737 C1736 1.391 . S
C1738 H1728 0.950 . S
C1738 C1739 1.386 . S
C1738 C1740 1.391 . S
C1739 C1738 1.386 . S
C1739 C1743 1.393 . S
C1740 H1729 0.950 . S
C1740 C1738 1.391 . S
C1740 C1741 1.400 . S
C1741 C1735 1.491 . S
C1741 C1740 1.400 . S
C1741 C1742 1.398 . S
C1742 H1730 0.950 . S
C1742 C1741 1.398 . S
C1742 C1743 1.391 . S
C1743 H1731 0.950 . S
C1743 C1739 1.393 . S
C1743 C1742 1.391 . S
H1744 C1752 0.950 . S
H1745 C1757 0.950 . S
H1746 C1754 0.950 . S
H1747 C1756 0.950 . S
H1748 C1758 0.950 . S
H1749 C1760 0.950 . S
H1750 C1762 0.950 . S
H1751 C1763 0.950 . S
C1752 H1744 0.950 . S
C1752 C1753 1.386 . S
C1752 C1754 1.391 . S
C1753 C1752 1.386 . S
C1753 C1757 1.393 . S
C1754 H1746 0.950 . S
C1754 C1752 1.391 . S
C1754 C1755 1.400 . S
C1755 C1754 1.400 . S
C1755 C1756 1.398 . S
C1755 C1761 1.491 . S
C1756 H1747 0.950 . S
C1756 C1755 1.398 . S
C1756 C1757 1.391 . S
C1757 H1745 0.950 . S
C1757 C1753 1.393 . S
C1757 C1756 1.391 . S
C1758 H1748 0.950 . S
C1758 C1759 1.386 . S
C1758 C1760 1.391 . S
C1759 C1758 1.386 . S
C1759 C1763 1.393 . S
C1760 H1749 0.950 . S
C1760 C1758 1.391 . S
C1760 C1761 1.400 . S
C1761 C1755 1.491 . S
C1761 C1760 1.400 . S
C1761 C1762 1.398 . S
C1762 H1750 0.950 . S
C1762 C1761 1.398 . S
C1762 C1763 1.391 . S
C1763 H1751 0.950 . S
C1763 C1759 1.393 . S
C1763 C1762 1.391 . S
H1764 C1772 0.950 . S
H1765 C1777 0.950 . S
H1766 C1774 0.950 . S
H1767 C1776 0.950 . S
H1768 C1778 0.950 . S
H1769 C1780 0.950 . S
H1770 C1782 0.950 . S
H1771 C1783 0.950 . S
C1772 H1764 0.950 . S
C1772 C1773 1.386 . S
C1772 C1774 1.391 . S
C1773 C1772 1.386 . S
C1773 C1777 1.393 . S
C1774 H1766 0.950 . S
C1774 C1772 1.391 . S
C1774 C1775 1.400 . S
C1775 C1774 1.400 . S
C1775 C1776 1.398 . S
C1775 C1781 1.491 . S
C1776 H1767 0.950 . S
C1776 C1775 1.398 . S
C1776 C1777 1.391 . S
C1777 H1765 0.950 . S
C1777 C1773 1.393 . S
C1777 C1776 1.391 . S
C1778 H1768 0.950 . S
C1778 C1779 1.386 . S
C1778 C1780 1.391 1_556 S
C1779 C1778 1.386 . S
C1779 C1783 1.393 . S
C1780 H1769 0.950 . S
C1780 C1778 1.391 1_554 S
C1780 C1781 1.400 . S
C1781 C1775 1.491 . S
C1781 C1780 1.400 . S
C1781 C1782 1.398 1_554 S
C1782 H1770 0.950 . S
C1782 C1781 1.398 1_556 S
C1782 C1783 1.391 . S
C1783 H1771 0.950 . S
C1783 C1779 1.393 . S
C1783 C1782 1.391 . S
H1784 C1792 0.950 . S
H1785 C1797 0.950 . S
H1786 C1794 0.950 . S
H1787 C1796 0.950 . S
H1788 C1798 0.950 . S
H1789 C1800 0.950 . S
H1790 C1802 0.950 . S
H1791 C1803 0.950 . S
C1792 H1784 0.950 . S
C1792 C1793 1.386 . S
C1792 C1794 1.391 . S
C1793 C1792 1.386 . S
C1793 C1797 1.393 . S
C1794 H1786 0.950 . S
C1794 C1792 1.391 . S
C1794 C1795 1.400 . S
C1795 C1794 1.400 . S
C1795 C1796 1.398 . S
C1795 C1801 1.491 . S
C1796 H1787 0.950 . S
C1796 C1795 1.398 . S
C1796 C1797 1.391 . S
C1797 H1785 0.950 . S
C1797 C1793 1.393 . S
C1797 C1796 1.391 . S
C1798 H1788 0.950 . S
C1798 C1799 1.386 . S
C1798 C1800 1.391 . S
C1799 C1798 1.386 . S
C1799 C1803 1.393 . S
C1800 H1789 0.950 . S
C1800 C1798 1.391 . S
C1800 C1801 1.400 . S
C1801 C1795 1.491 . S
C1801 C1800 1.400 . S
C1801 C1802 1.398 . S
C1802 H1790 0.950 . S
C1802 C1801 1.398 . S
C1802 C1803 1.391 . S
C1803 H1791 0.950 . S
C1803 C1799 1.393 . S
C1803 C1802 1.391 . S
H1804 C1812 0.950 . S
H1805 C1817 0.950 . S
H1806 C1814 0.950 . S
H1807 C1816 0.950 . S
H1808 C1818 0.950 . S
H1809 C1820 0.950 . S
H1810 C1822 0.950 . S
H1811 C1823 0.950 . S
C1812 H1804 0.950 . S
C1812 C1813 1.386 . S
C1812 C1814 1.391 . S
C1813 C1812 1.386 . S
C1813 C1817 1.393 . S
C1814 H1806 0.950 . S
C1814 C1812 1.391 . S
C1814 C1815 1.400 . S
C1815 C1814 1.400 . S
C1815 C1816 1.398 . S
C1815 C1821 1.491 . S
C1816 H1807 0.950 . S
C1816 C1815 1.398 . S
C1816 C1817 1.391 . S
C1817 H1805 0.950 . S
C1817 C1813 1.393 . S
C1817 C1816 1.391 . S
C1818 H1808 0.950 . S
C1818 C1819 1.386 . S
C1818 C1820 1.391 . S
C1819 C1818 1.386 . S
C1819 C1823 1.393 . S
C1820 H1809 0.950 . S
C1820 C1818 1.391 . S
C1820 C1821 1.400 . S
C1821 C1815 1.491 . S
C1821 C1820 1.400 . S
C1821 C1822 1.398 . S
C1822 H1810 0.950 . S
C1822 C1821 1.398 . S
C1822 C1823 1.391 . S
C1823 H1811 0.950 . S
C1823 C1819 1.393 . S
C1823 C1822 1.391 . S
H1824 C1832 0.950 . S
H1825 C1837 0.950 . S
H1826 C1834 0.950 . S
H1827 C1836 0.950 . S
H1828 C1838 0.950 . S
H1829 C1840 0.950 . S
H1830 C1842 0.950 . S
H1831 C1843 0.950 . S
C1832 H1824 0.950 . S
C1832 C1833 1.386 . S
C1832 C1834 1.391 . S
C1833 C1832 1.386 . S
C1833 C1837 1.393 . S
C1834 H1826 0.950 . S
C1834 C1832 1.391 . S
C1834 C1835 1.400 . S
C1835 C1834 1.400 . S
C1835 C1836 1.398 . S
C1835 C1841 1.491 . S
C1836 H1827 0.950 . S
C1836 C1835 1.398 . S
C1836 C1837 1.391 . S
C1837 H1825 0.950 . S
C1837 C1833 1.393 . S
C1837 C1836 1.391 . S
C1838 H1828 0.950 . S
C1838 C1839 1.386 . S
C1838 C1840 1.391 . S
C1839 C1838 1.386 . S
C1839 C1843 1.393 . S
C1840 H1829 0.950 . S
C1840 C1838 1.391 . S
C1840 C1841 1.400 . S
C1841 C1835 1.491 . S
C1841 C1840 1.400 . S
C1841 C1842 1.398 . S
C1842 H1830 0.950 . S
C1842 C1841 1.398 . S
C1842 C1843 1.391 . S
C1843 H1831 0.950 . S
C1843 C1839 1.393 . S
C1843 C1842 1.391 . S
H1844 C1852 0.950 . S
H1845 C1857 0.950 . S
H1846 C1854 0.950 . S
H1847 C1856 0.950 . S
H1848 C1858 0.950 . S
H1849 C1860 0.948 1_556 S
H1850 C1862 0.950 . S
H1851 C1863 0.950 . S
C1852 H1844 0.950 . S
C1852 C1853 1.386 . S
C1852 C1854 1.391 . S
C1853 C1852 1.386 . S
C1853 C1857 1.393 . S
C1854 H1846 0.950 . S
C1854 C1852 1.391 . S
C1854 C1855 1.400 . S
C1855 C1854 1.400 . S
C1855 C1856 1.398 . S
C1855 C1861 1.491 . S
C1856 H1847 0.950 . S
C1856 C1855 1.398 . S
C1856 C1857 1.391 . S
C1857 H1845 0.950 . S
C1857 C1853 1.393 . S
C1857 C1856 1.391 . S
C1858 H1848 0.950 . S
C1858 C1859 1.386 . S
C1858 C1860 1.400 . S
C1859 C1858 1.386 . S
C1859 C1863 1.393 . S
C1860 H1849 0.948 1_554 S
C1860 C1858 1.400 . S
C1860 C1861 1.394 1_554 S
C1861 C1855 1.491 . S
C1861 C1860 1.394 1_556 S
C1861 C1862 1.398 . S
C1862 H1850 0.950 . S
C1862 C1861 1.398 . S
C1862 C1863 1.391 1_556 S
C1863 H1851 0.950 . S
C1863 C1859 1.393 . S
C1863 C1862 1.391 1_554 S
H1864 C1872 0.950 . S
H1865 C1877 0.950 . S
H1866 C1874 0.950 . S
H1867 C1876 0.950 . S
H1868 C1878 0.950 . S
H1869 C1880 0.950 . S
H1870 C1882 0.950 . S
H1871 C1883 0.950 . S
C1872 H1864 0.950 . S
C1872 C1873 1.386 . S
C1872 C1874 1.391 . S
C1873 C1872 1.386 . S
C1873 C1877 1.393 . S
C1874 H1866 0.950 . S
C1874 C1872 1.391 . S
C1874 C1875 1.400 . S
C1875 C1874 1.400 . S
C1875 C1876 1.398 . S
C1875 C1881 1.491 . S
C1876 H1867 0.950 . S
C1876 C1875 1.398 . S
C1876 C1877 1.391 . S
C1877 H1865 0.950 . S
C1877 C1873 1.393 . S
C1877 C1876 1.391 . S
C1878 H1868 0.950 . S
C1878 C1879 1.386 . S
C1878 C1880 1.391 . S
C1879 C1878 1.386 . S
C1879 C1883 1.393 . S
C1880 H1869 0.950 . S
C1880 C1878 1.391 . S
C1880 C1881 1.400 . S
C1881 C1875 1.491 . S
C1881 C1880 1.400 . S
C1881 C1882 1.398 . S
C1882 H1870 0.950 . S
C1882 C1881 1.398 . S
C1882 C1883 1.391 . S
C1883 H1871 0.950 . S
C1883 C1879 1.393 . S
C1883 C1882 1.391 . S
H1884 C1892 0.950 . S
H1885 C1897 0.950 . S
H1886 C1894 0.950 . S
H1887 C1896 0.950 . S
H1888 C1898 0.950 . S
H1889 C1900 0.950 . S
H1890 C1902 0.950 . S
H1891 C1903 0.950 . S
C1892 H1884 0.950 . S
C1892 C1893 1.386 . S
C1892 C1894 1.391 . S
C1893 C1892 1.386 . S
C1893 C1897 1.393 . S
C1894 H1886 0.950 . S
C1894 C1892 1.391 . S
C1894 C1895 1.400 . S
C1895 C1894 1.400 . S
C1895 C1896 1.398 . S
C1895 C1901 1.491 . S
C1896 H1887 0.950 . S
C1896 C1895 1.398 . S
C1896 C1897 1.391 . S
C1897 H1885 0.950 . S
C1897 C1893 1.393 . S
C1897 C1896 1.391 . S
C1898 H1888 0.950 . S
C1898 C1899 1.386 . S
C1898 C1900 1.391 . S
C1899 C1898 1.386 . S
C1899 C1903 1.393 . S
C1900 H1889 0.950 . S
C1900 C1898 1.391 . S
C1900 C1901 1.400 . S
C1901 C1895 1.491 . S
C1901 C1900 1.400 . S
C1901 C1902 1.398 . S
C1902 H1890 0.950 . S
C1902 C1901 1.398 . S
C1902 C1903 1.391 . S
C1903 H1891 0.950 . S
C1903 C1899 1.393 . S
C1903 C1902 1.391 . S
H1904 C1912 0.950 . S
H1905 C1917 0.950 . S
H1906 C1914 0.950 . S
H1907 C1916 0.950 . S
H1908 C1918 0.950 . S
H1909 C1920 0.950 . S
H1910 C1922 0.950 . S
H1911 C1923 0.950 . S
C1912 H1904 0.950 . S
C1912 C1913 1.386 . S
C1912 C1914 1.391 . S
C1913 C1912 1.386 . S
C1913 C1917 1.393 . S
C1914 H1906 0.950 . S
C1914 C1912 1.391 . S
C1914 C1915 1.400 . S
C1915 C1914 1.400 . S
C1915 C1916 1.398 . S
C1915 C1921 1.491 . S
C1916 H1907 0.950 . S
C1916 C1915 1.398 . S
C1916 C1917 1.391 . S
C1917 H1905 0.950 . S
C1917 C1913 1.393 . S
C1917 C1916 1.391 . S
C1918 H1908 0.950 . S
C1918 C1919 1.386 . S
C1918 C1920 1.391 . S
C1919 C1918 1.386 . S
C1919 C1923 1.393 . S
C1920 H1909 0.950 . S
C1920 C1918 1.391 . S
C1920 C1921 1.400 . S
C1921 C1915 1.491 . S
C1921 C1920 1.400 . S
C1921 C1922 1.398 . S
C1922 H1910 0.950 . S
C1922 C1921 1.398 . S
C1922 C1923 1.391 . S
C1923 H1911 0.950 . S
C1923 C1919 1.393 . S
C1923 C1922 1.391 . S
H1924 C1932 0.950 . S
H1925 C1937 0.950 . S
H1926 C1934 0.950 . S
H1927 C1936 0.950 . S
H1928 C1938 0.950 . S
H1929 C1940 0.950 . S
H1930 C1942 0.950 . S
H1931 C1943 0.950 . S
C1932 H1924 0.950 . S
C1932 C1933 1.386 . S
C1932 C1934 1.391 . S
C1933 C1932 1.386 . S
C1933 C1937 1.393 . S
C1934 H1926 0.950 . S
C1934 C1932 1.391 . S
C1934 C1935 1.400 . S
C1935 C1934 1.400 . S
C1935 C1936 1.398 . S
C1935 C1941 1.491 . S
C1936 H1927 0.950 . S
C1936 C1935 1.398 . S
C1936 C1937 1.391 . S
C1937 H1925 0.950 . S
C1937 C1933 1.393 . S
C1937 C1936 1.391 . S
C1938 H1928 0.950 . S
C1938 C1939 1.386 . S
C1938 C1940 1.391 . S
C1939 C1938 1.386 . S
C1939 C1943 1.393 . S
C1940 H1929 0.950 . S
C1940 C1938 1.391 . S
C1940 C1941 1.400 . S
C1941 C1935 1.491 . S
C1941 C1940 1.400 . S
C1941 C1942 1.398 . S
C1942 H1930 0.950 . S
C1942 C1941 1.398 . S
C1942 C1943 1.391 . S
C1943 H1931 0.950 . S
C1943 C1939 1.393 . S
C1943 C1942 1.391 . S
H1944 C1952 0.950 . S
H1945 C1957 0.950 . S
H1946 C1954 0.950 . S
H1947 C1956 0.950 . S
H1948 C1958 0.950 . S
H1949 C1960 0.950 . S
H1950 C1962 0.950 . S
H1951 C1963 0.950 . S
C1952 H1944 0.950 . S
C1952 C1953 1.386 . S
C1952 C1954 1.391 . S
C1953 C1952 1.386 . S
C1953 C1957 1.393 . S
C1954 H1946 0.950 . S
C1954 C1952 1.391 . S
C1954 C1955 1.400 . S
C1955 C1954 1.400 . S
C1955 C1956 1.398 . S
C1955 C1961 1.491 . S
C1956 H1947 0.950 . S
C1956 C1955 1.398 . S
C1956 C1957 1.391 . S
C1957 H1945 0.950 . S
C1957 C1953 1.393 . S
C1957 C1956 1.391 . S
C1958 H1948 0.950 . S
C1958 C1959 1.386 . S
C1958 C1960 1.391 1_565 S
C1959 C1958 1.386 . S
C1959 C1963 1.393 . S
C1960 H1949 0.950 . S
C1960 C1958 1.391 1_545 S
C1960 C1961 1.400 . S
C1961 C1955 1.491 . S
C1961 C1960 1.400 . S
C1961 C1962 1.398 1_545 S
C1962 H1950 0.950 . S
C1962 C1961 1.398 1_565 S
C1962 C1963 1.391 . S
C1963 H1951 0.950 . S
C1963 C1959 1.393 . S
C1963 C1962 1.391 . S
H1964 C1972 0.950 . S
H1965 C1977 0.950 . S
H1966 C1974 0.950 . S
H1967 C1976 0.950 . S
H1968 C1978 0.950 . S
H1969 C1980 0.950 . S
H1970 C1982 0.950 . S
H1971 C1983 0.950 . S
C1972 H1964 0.950 . S
C1972 C1973 1.386 . S
C1972 C1974 1.391 . S
C1973 C1972 1.386 . S
C1973 C1977 1.393 . S
C1974 H1966 0.950 . S
C1974 C1972 1.391 . S
C1974 C1975 1.400 . S
C1975 C1974 1.400 . S
C1975 C1976 1.398 . S
C1975 C1981 1.491 . S
C1976 H1967 0.950 . S
C1976 C1975 1.398 . S
C1976 C1977 1.391 . S
C1977 H1965 0.950 . S
C1977 C1973 1.393 . S
C1977 C1976 1.391 . S
C1978 H1968 0.950 . S
C1978 C1979 1.386 . S
C1978 C1980 1.391 . S
C1979 C1978 1.386 . S
C1979 C1983 1.393 . S
C1980 H1969 0.950 . S
C1980 C1978 1.391 . S
C1980 C1981 1.400 . S
C1981 C1975 1.491 . S
C1981 C1980 1.400 . S
C1981 C1982 1.398 . S
C1982 H1970 0.950 . S
C1982 C1981 1.398 . S
C1982 C1983 1.391 . S
C1983 H1971 0.950 . S
C1983 C1979 1.393 . S
C1983 C1982 1.391 . S
H1984 C1992 0.950 . S
H1985 C1997 0.950 . S
H1986 C1994 0.950 . S
H1987 C1996 0.950 . S
H1988 C1998 0.950 . S
H1989 C2000 0.950 . S
H1990 C2002 0.950 . S
H1991 C2003 0.950 . S
C1992 H1984 0.950 . S
C1992 C1993 1.386 . S
C1992 C1994 1.391 . S
C1993 C1992 1.386 . S
C1993 C1997 1.393 . S
C1994 H1986 0.950 . S
C1994 C1992 1.391 . S
C1994 C1995 1.400 . S
C1995 C1994 1.400 . S
C1995 C1996 1.398 . S
C1995 C2001 1.491 . S
C1996 H1987 0.950 . S
C1996 C1995 1.398 . S
C1996 C1997 1.391 . S
C1997 H1985 0.950 . S
C1997 C1993 1.393 . S
C1997 C1996 1.391 . S
C1998 H1988 0.950 . S
C1998 C1999 1.386 . S
C1998 C2000 1.391 . S
C1999 C1998 1.386 . S
C1999 C2003 1.393 . S
C2000 H1989 0.950 . S
C2000 C1998 1.391 . S
C2000 C2001 1.400 . S
C2001 C1995 1.491 . S
C2001 C2000 1.400 . S
C2001 C2002 1.398 . S
C2002 H1990 0.950 . S
C2002 C2001 1.398 . S
C2002 C2003 1.391 . S
C2003 H1991 0.950 . S
C2003 C1999 1.393 . S
C2003 C2002 1.391 . S
H2004 C2012 0.950 . S
H2005 C2017 0.950 . S
H2006 C2014 0.950 . S
H2007 C2016 0.950 . S
H2008 C2018 0.950 . S
H2009 C2020 0.950 . S
H2010 C2022 0.950 . S
H2011 C2023 0.950 . S
C2012 H2004 0.950 . S
C2012 C2013 1.386 . S
C2012 C2014 1.391 . S
C2013 C2012 1.386 . S
C2013 C2017 1.393 . S
C2014 H2006 0.950 . S
C2014 C2012 1.391 . S
C2014 C2015 1.400 . S
C2015 C2014 1.400 . S
C2015 C2016 1.398 . S
C2015 C2021 1.491 . S
C2016 H2007 0.950 . S
C2016 C2015 1.398 . S
C2016 C2017 1.391 . S
C2017 H2005 0.950 . S
C2017 C2013 1.393 . S
C2017 C2016 1.391 . S
C2018 H2008 0.950 . S
C2018 C2019 1.386 . S
C2018 C2020 1.391 . S
C2019 C2018 1.386 . S
C2019 C2023 1.393 . S
C2020 H2009 0.950 . S
C2020 C2018 1.391 . S
C2020 C2021 1.400 . S
C2021 C2015 1.491 . S
C2021 C2020 1.400 . S
C2021 C2022 1.398 . S
C2022 H2010 0.950 . S
C2022 C2021 1.398 . S
C2022 C2023 1.391 . S
C2023 H2011 0.950 . S
C2023 C2019 1.393 . S
C2023 C2022 1.391 . S
H2024 C2032 0.950 . S
H2025 C2037 0.950 . S
H2026 C2034 0.954 . S
H2027 C2036 0.950 . S
H2028 C2038 0.950 . S
H2029 C2040 0.950 . S
H2030 C2042 0.950 . S
H2031 C2043 0.950 . S
C2032 H2024 0.950 . S
C2032 C2033 1.386 . S
C2032 C2034 1.384 1_545 S
C2033 C2032 1.386 . S
C2033 C2037 1.393 . S
C2034 H2026 0.954 . S
C2034 C2032 1.384 1_565 S
C2034 C2035 1.403 . S
C2035 C2034 1.403 . S
C2035 C2036 1.398 1_565 S
C2035 C2041 1.491 . S
C2036 H2027 0.950 . S
C2036 C2035 1.398 1_545 S
C2036 C2037 1.391 . S
C2037 H2025 0.950 . S
C2037 C2033 1.393 . S
C2037 C2036 1.391 . S
C2038 H2028 0.950 . S
C2038 C2039 1.386 . S
C2038 C2040 1.391 . S
C2039 C2038 1.386 . S
C2039 C2043 1.393 . S
C2040 H2029 0.950 . S
C2040 C2038 1.391 . S
C2040 C2041 1.400 . S
C2041 C2035 1.491 . S
C2041 C2040 1.400 . S
C2041 C2042 1.398 . S
C2042 H2030 0.950 . S
C2042 C2041 1.398 . S
C2042 C2043 1.391 . S
C2043 H2031 0.950 . S
C2043 C2039 1.393 . S
C2043 C2042 1.391 . S
H2044 C2052 0.950 . S
H2045 C2057 0.950 . S
H2046 C2054 0.950 . S
H2047 C2056 0.950 . S
H2048 C2058 0.950 . S
H2049 C2060 0.950 . S
H2050 C2062 0.950 . S
H2051 C2063 0.950 . S
C2052 H2044 0.950 . S
C2052 C2053 1.386 . S
C2052 C2054 1.391 . S
C2053 C2052 1.386 . S
C2053 C2057 1.393 . S
C2054 H2046 0.950 . S
C2054 C2052 1.391 . S
C2054 C2055 1.400 . S
C2055 C2054 1.400 . S
C2055 C2056 1.398 . S
C2055 C2061 1.491 . S
C2056 H2047 0.950 . S
C2056 C2055 1.398 . S
C2056 C2057 1.391 . S
C2057 H2045 0.950 . S
C2057 C2053 1.393 . S
C2057 C2056 1.391 . S
C2058 H2048 0.950 . S
C2058 C2059 1.386 . S
C2058 C2060 1.391 . S
C2059 C2058 1.386 . S
C2059 C2063 1.393 . S
C2060 H2049 0.950 . S
C2060 C2058 1.391 . S
C2060 C2061 1.400 1_565 S
C2061 C2055 1.491 . S
C2061 C2060 1.400 1_545 S
C2061 C2062 1.398 . S
C2062 H2050 0.950 . S
C2062 C2061 1.398 . S
C2062 C2063 1.391 1_545 S
C2063 H2051 0.950 . S
C2063 C2059 1.393 . S
C2063 C2062 1.391 1_565 S
H2064 C2072 0.950 . S
H2065 C2077 0.950 . S
H2066 C2074 0.950 . S
H2067 C2076 0.950 . S
H2068 C2078 0.950 . S
H2069 C2080 0.950 . S
H2070 C2082 0.950 . S
H2071 C2083 0.950 . S
C2072 H2064 0.950 . S
C2072 C2073 1.386 . S
C2072 C2074 1.391 . S
C2073 C2072 1.386 . S
C2073 C2077 1.393 . S
C2074 H2066 0.950 . S
C2074 C2072 1.391 . S
C2074 C2075 1.400 . S
C2075 C2074 1.400 . S
C2075 C2076 1.398 . S
C2075 C2081 1.491 . S
C2076 H2067 0.950 . S
C2076 C2075 1.398 . S
C2076 C2077 1.391 . S
C2077 H2065 0.950 . S
C2077 C2073 1.393 . S
C2077 C2076 1.391 . S
C2078 H2068 0.950 . S
C2078 C2079 1.386 . S
C2078 C2080 1.391 . S
C2079 C2078 1.386 . S
C2079 C2083 1.393 . S
C2080 H2069 0.950 . S
C2080 C2078 1.391 . S
C2080 C2081 1.400 . S
C2081 C2075 1.491 . S
C2081 C2080 1.400 . S
C2081 C2082 1.398 . S
C2082 H2070 0.950 . S
C2082 C2081 1.398 . S
C2082 C2083 1.391 . S
C2083 H2071 0.950 . S
C2083 C2079 1.393 . S
C2083 C2082 1.391 . S
H2084 C2092 0.950 . S
H2085 C2097 0.950 . S
H2086 C2094 0.950 . S
H2087 C2096 0.950 . S
H2088 C2098 0.950 . S
H2089 C2100 0.950 . S
H2090 C2102 0.950 . S
H2091 C2103 0.950 . S
C2092 H2084 0.950 . S
C2092 C2093 1.386 . S
C2092 C2094 1.391 . S
C2093 C2092 1.386 . S
C2093 C2097 1.393 . S
C2094 H2086 0.950 . S
C2094 C2092 1.391 . S
C2094 C2095 1.400 . S
C2095 C2094 1.400 . S
C2095 C2096 1.398 . S
C2095 C2101 1.491 . S
C2096 H2087 0.950 . S
C2096 C2095 1.398 . S
C2096 C2097 1.391 . S
C2097 H2085 0.950 . S
C2097 C2093 1.393 . S
C2097 C2096 1.391 . S
C2098 H2088 0.950 . S
C2098 C2099 1.386 . S
C2098 C2100 1.391 . S
C2099 C2098 1.386 . S
C2099 C2103 1.393 . S
C2100 H2089 0.950 . S
C2100 C2098 1.391 . S
C2100 C2101 1.400 . S
C2101 C2095 1.491 . S
C2101 C2100 1.400 . S
C2101 C2102 1.398 . S
C2102 H2090 0.950 . S
C2102 C2101 1.398 . S
C2102 C2103 1.391 . S
C2103 H2091 0.950 . S
C2103 C2099 1.393 . S
C2103 C2102 1.391 . S
H2104 C2112 0.950 . S
H2105 C2117 0.950 . S
H2106 C2114 0.950 . S
H2107 C2116 0.950 . S
H2108 C2118 0.950 . S
H2109 C2120 0.950 . S
H2110 C2122 0.950 . S
H2111 C2123 0.950 . S
C2112 H2104 0.950 . S
C2112 C2113 1.386 . S
C2112 C2114 1.391 . S
C2113 C2112 1.386 . S
C2113 C2117 1.393 . S
C2114 H2106 0.950 . S
C2114 C2112 1.391 . S
C2114 C2115 1.400 . S
C2115 C2114 1.400 . S
C2115 C2116 1.398 . S
C2115 C2121 1.491 . S
C2116 H2107 0.950 . S
C2116 C2115 1.398 . S
C2116 C2117 1.391 . S
C2117 H2105 0.950 . S
C2117 C2113 1.393 . S
C2117 C2116 1.391 . S
C2118 H2108 0.950 . S
C2118 C2119 1.386 . S
C2118 C2120 1.391 . S
C2119 C2118 1.386 . S
C2119 C2123 1.393 . S
C2120 H2109 0.950 . S
C2120 C2118 1.391 . S
C2120 C2121 1.400 . S
C2121 C2115 1.491 . S
C2121 C2120 1.400 . S
C2121 C2122 1.398 . S
C2122 H2110 0.950 . S
C2122 C2121 1.398 . S
C2122 C2123 1.391 . S
C2123 H2111 0.950 . S
C2123 C2119 1.393 . S
C2123 C2122 1.391 . S
H2124 C2132 0.950 . S
H2125 C2137 0.950 . S
H2126 C2134 0.950 . S
H2127 C2136 0.950 . S
H2128 C2138 0.950 . S
H2129 C2140 0.950 . S
H2130 C2142 0.950 . S
H2131 C2143 0.950 . S
C2132 H2124 0.950 . S
C2132 C2133 1.386 . S
C2132 C2134 1.391 1_455 S
C2133 C2132 1.386 . S
C2133 C2137 1.393 . S
C2134 H2126 0.950 . S
C2134 C2132 1.391 1_655 S
C2134 C2135 1.400 . S
C2135 C2134 1.400 . S
C2135 C2136 1.398 . S
C2135 C2141 1.491 . S
C2136 H2127 0.950 . S
C2136 C2135 1.398 . S
C2136 C2137 1.391 1_655 S
C2137 H2125 0.950 . S
C2137 C2133 1.393 . S
C2137 C2136 1.391 1_455 S
C2138 H2128 0.950 . S
C2138 C2139 1.386 . S
C2138 C2140 1.391 . S
C2139 C2138 1.386 . S
C2139 C2143 1.393 . S
C2140 H2129 0.950 . S
C2140 C2138 1.391 . S
C2140 C2141 1.400 . S
C2141 C2135 1.491 . S
C2141 C2140 1.400 . S
C2141 C2142 1.398 . S
C2142 H2130 0.950 . S
C2142 C2141 1.398 . S
C2142 C2143 1.391 . S
C2143 H2131 0.950 . S
C2143 C2139 1.393 . S
C2143 C2142 1.391 . S
H2144 C2152 0.950 . S
H2145 C2157 0.950 . S
H2146 C2154 0.950 . S
H2147 C2156 0.950 . S
H2148 C2158 0.950 . S
H2149 C2160 0.950 . S
H2150 C2162 0.950 . S
H2151 C2163 0.950 . S
C2152 H2144 0.950 . S
C2152 C2153 1.386 . S
C2152 C2154 1.391 . S
C2153 C2152 1.386 . S
C2153 C2157 1.393 . S
C2154 H2146 0.950 . S
C2154 C2152 1.391 . S
C2154 C2155 1.400 . S
C2155 C2154 1.400 . S
C2155 C2156 1.398 . S
C2155 C2161 1.491 . S
C2156 H2147 0.950 . S
C2156 C2155 1.398 . S
C2156 C2157 1.391 . S
C2157 H2145 0.950 . S
C2157 C2153 1.393 . S
C2157 C2156 1.391 . S
C2158 H2148 0.950 . S
C2158 C2159 1.386 . S
C2158 C2160 1.391 . S
C2159 C2158 1.386 . S
C2159 C2163 1.393 . S
C2160 H2149 0.950 . S
C2160 C2158 1.391 . S
C2160 C2161 1.400 . S
C2161 C2155 1.491 . S
C2161 C2160 1.400 . S
C2161 C2162 1.398 . S
C2162 H2150 0.950 . S
C2162 C2161 1.398 . S
C2162 C2163 1.391 . S
C2163 H2151 0.950 . S
C2163 C2159 1.393 . S
C2163 C2162 1.391 . S
H2164 C2172 0.950 . S
H2165 C2177 0.950 . S
H2166 C2174 0.940 1_655 S
H2167 C2176 0.950 . S
H2168 C2178 0.950 . S
H2169 C2180 0.950 . S
H2170 C2182 0.950 . S
H2171 C2183 0.950 . S
C2172 H2164 0.950 . S
C2172 C2173 1.386 . S
C2172 C2174 1.434 . S
C2173 C2172 1.386 . S
C2173 C2177 1.393 . S
C2174 H2166 0.940 1_455 S
C2174 C2172 1.434 . S
C2174 C2175 1.369 1_455 S
C2175 C2174 1.369 1_655 S
C2175 C2176 1.398 . S
C2175 C2181 1.491 . S
C2176 H2167 0.950 . S
C2176 C2175 1.398 . S
C2176 C2177 1.391 1_655 S
C2177 H2165 0.950 . S
C2177 C2173 1.393 . S
C2177 C2176 1.391 1_455 S
C2178 H2168 0.950 . S
C2178 C2179 1.386 . S
C2178 C2180 1.391 . S
C2179 C2178 1.386 . S
C2179 C2183 1.393 . S
C2180 H2169 0.950 . S
C2180 C2178 1.391 . S
C2180 C2181 1.400 . S
C2181 C2175 1.491 . S
C2181 C2180 1.400 . S
C2181 C2182 1.398 . S
C2182 H2170 0.950 . S
C2182 C2181 1.398 . S
C2182 C2183 1.391 . S
C2183 H2171 0.950 . S
C2183 C2179 1.393 . S
C2183 C2182 1.391 . S
H2184 C2192 0.950 . S
H2185 C2197 0.950 . S
H2186 C2194 0.950 . S
H2187 C2196 0.950 . S
H2188 C2198 0.950 . S
H2189 C2200 0.950 . S
H2190 C2202 0.950 . S
H2191 C2203 0.950 . S
C2192 H2184 0.950 . S
C2192 C2193 1.386 . S
C2192 C2194 1.391 . S
C2193 C2192 1.386 . S
C2193 C2197 1.393 . S
C2194 H2186 0.950 . S
C2194 C2192 1.391 . S
C2194 C2195 1.400 . S
C2195 C2194 1.400 . S
C2195 C2196 1.398 . S
C2195 C2201 1.491 . S
C2196 H2187 0.950 . S
C2196 C2195 1.398 . S
C2196 C2197 1.391 . S
C2197 H2185 0.950 . S
C2197 C2193 1.393 . S
C2197 C2196 1.391 . S
C2198 H2188 0.950 . S
C2198 C2199 1.386 . S
C2198 C2200 1.391 . S
C2199 C2198 1.386 . S
C2199 C2203 1.393 . S
C2200 H2189 0.950 . S
C2200 C2198 1.391 . S
C2200 C2201 1.400 . S
C2201 C2195 1.491 . S
C2201 C2200 1.400 . S
C2201 C2202 1.398 . S
C2202 H2190 0.950 . S
C2202 C2201 1.398 . S
C2202 C2203 1.391 . S
C2203 H2191 0.950 . S
C2203 C2199 1.393 . S
C2203 C2202 1.391 . S
H2204 C2212 0.950 . S
H2205 C2217 0.950 . S
H2206 C2214 0.950 . S
H2207 C2216 0.950 . S
H2208 C2218 0.950 . S
H2209 C2220 0.950 . S
H2210 C2222 0.950 . S
H2211 C2223 0.950 . S
C2212 H2204 0.950 . S
C2212 C2213 1.386 . S
C2212 C2214 1.391 . S
C2213 C2212 1.386 . S
C2213 C2217 1.393 . S
C2214 H2206 0.950 . S
C2214 C2212 1.391 . S
C2214 C2215 1.400 . S
C2215 C2214 1.400 . S
C2215 C2216 1.398 . S
C2215 C2221 1.491 . S
C2216 H2207 0.950 . S
C2216 C2215 1.398 . S
C2216 C2217 1.391 . S
C2217 H2205 0.950 . S
C2217 C2213 1.393 . S
C2217 C2216 1.391 . S
C2218 H2208 0.950 . S
C2218 C2219 1.386 . S
C2218 C2220 1.391 . S
C2219 C2218 1.386 . S
C2219 C2223 1.393 . S
C2220 H2209 0.950 . S
C2220 C2218 1.391 . S
C2220 C2221 1.400 . S
C2221 C2215 1.491 . S
C2221 C2220 1.400 . S
C2221 C2222 1.398 . S
C2222 H2210 0.950 . S
C2222 C2221 1.398 . S
C2222 C2223 1.391 . S
C2223 H2211 0.950 . S
C2223 C2219 1.393 . S
C2223 C2222 1.391 . S
H2224 C2232 0.950 . S
H2225 C2237 0.950 . S
H2226 C2234 0.950 . S
H2227 C2236 0.950 . S
H2228 C2238 0.950 . S
H2229 C2240 0.950 . S
H2230 C2242 0.950 . S
H2231 C2243 0.950 . S
C2232 H2224 0.950 . S
C2232 C2233 1.386 . S
C2232 C2234 1.391 . S
C2233 C2232 1.386 . S
C2233 C2237 1.393 . S
C2234 H2226 0.950 . S
C2234 C2232 1.391 . S
C2234 C2235 1.400 . S
C2235 C2234 1.400 . S
C2235 C2236 1.398 . S
C2235 C2241 1.491 . S
C2236 H2227 0.950 . S
C2236 C2235 1.398 . S
C2236 C2237 1.391 . S
C2237 H2225 0.950 . S
C2237 C2233 1.393 . S
C2237 C2236 1.391 . S
C2238 H2228 0.950 . S
C2238 C2239 1.386 . S
C2238 C2240 1.391 . S
C2239 C2238 1.386 . S
C2239 C2243 1.393 . S
C2240 H2229 0.950 . S
C2240 C2238 1.391 . S
C2240 C2241 1.400 . S
C2241 C2235 1.491 . S
C2241 C2240 1.400 . S
C2241 C2242 1.398 . S
C2242 H2230 0.950 . S
C2242 C2241 1.398 . S
C2242 C2243 1.391 . S
C2243 H2231 0.950 . S
C2243 C2239 1.393 . S
C2243 C2242 1.391 . S
H2244 C2252 0.950 . S
H2245 C2257 0.950 . S
H2246 C2254 0.950 . S
H2247 C2256 0.950 . S
H2248 C2258 0.950 . S
H2249 C2260 0.950 . S
H2250 C2262 0.950 . S
H2251 C2263 0.950 . S
C2252 H2244 0.950 . S
C2252 C2253 1.386 . S
C2252 C2254 1.391 . S
C2253 C2252 1.386 . S
C2253 C2257 1.393 . S
C2254 H2246 0.950 . S
C2254 C2252 1.391 . S
C2254 C2255 1.400 . S
C2255 C2254 1.400 . S
C2255 C2256 1.398 . S
C2255 C2261 1.491 . S
C2256 H2247 0.950 . S
C2256 C2255 1.398 . S
C2256 C2257 1.391 . S
C2257 H2245 0.950 . S
C2257 C2253 1.393 . S
C2257 C2256 1.391 . S
C2258 H2248 0.950 . S
C2258 C2259 1.386 . S
C2258 C2260 1.391 . S
C2259 C2258 1.386 . S
C2259 C2263 1.393 . S
C2260 H2249 0.950 . S
C2260 C2258 1.391 . S
C2260 C2261 1.400 1_554 S
C2261 C2255 1.491 . S
C2261 C2260 1.400 1_556 S
C2261 C2262 1.398 . S
C2262 H2250 0.950 . S
C2262 C2261 1.398 . S
C2262 C2263 1.391 1_556 S
C2263 H2251 0.950 . S
C2263 C2259 1.393 . S
C2263 C2262 1.391 1_554 S
H2264 C2272 0.950 . S
H2265 C2277 0.950 . S
H2266 C2274 0.950 . S
H2267 C2276 0.950 . S
H2268 C2278 0.950 . S
H2269 C2280 0.950 . S
H2270 C2282 0.950 . S
H2271 C2283 0.950 . S
C2272 H2264 0.950 . S
C2272 C2273 1.386 . S
C2272 C2274 1.391 . S
C2273 C2272 1.386 . S
C2273 C2277 1.393 . S
C2274 H2266 0.950 . S
C2274 C2272 1.391 . S
C2274 C2275 1.400 . S
C2275 C2274 1.400 . S
C2275 C2276 1.398 . S
C2275 C2281 1.491 . S
C2276 H2267 0.950 . S
C2276 C2275 1.398 . S
C2276 C2277 1.391 . S
C2277 H2265 0.950 . S
C2277 C2273 1.393 . S
C2277 C2276 1.391 . S
C2278 H2268 0.950 . S
C2278 C2279 1.386 . S
C2278 C2280 1.391 . S
C2279 C2278 1.386 . S
C2279 C2283 1.393 . S
C2280 H2269 0.950 . S
C2280 C2278 1.391 . S
C2280 C2281 1.400 . S
C2281 C2275 1.491 . S
C2281 C2280 1.400 . S
C2281 C2282 1.398 . S
C2282 H2270 0.950 . S
C2282 C2281 1.398 . S
C2282 C2283 1.391 . S
C2283 H2271 0.950 . S
C2283 C2279 1.393 . S
C2283 C2282 1.391 . S
H2284 C2292 0.950 . S
H2285 C2297 0.950 . S
H2286 C2294 0.950 . S
H2287 C2296 0.950 . S
H2288 C2298 0.950 . S
H2289 C2300 0.950 . S
H2290 C2302 0.950 . S
H2291 C2303 0.950 . S
C2292 H2284 0.950 . S
C2292 C2293 1.386 . S
C2292 C2294 1.391 . S
C2293 C2292 1.386 . S
C2293 C2297 1.393 . S
C2294 H2286 0.950 . S
C2294 C2292 1.391 . S
C2294 C2295 1.400 . S
C2295 C2294 1.400 . S
C2295 C2296 1.398 . S
C2295 C2301 1.491 . S
C2296 H2287 0.950 . S
C2296 C2295 1.398 . S
C2296 C2297 1.391 . S
C2297 H2285 0.950 . S
C2297 C2293 1.393 . S
C2297 C2296 1.391 . S
C2298 H2288 0.950 . S
C2298 C2299 1.386 . S
C2298 C2300 1.391 . S
C2299 C2298 1.386 . S
C2299 C2303 1.393 . S
C2300 H2289 0.950 . S
C2300 C2298 1.391 . S
C2300 C2301 1.400 . S
C2301 C2295 1.491 . S
C2301 C2300 1.400 . S
C2301 C2302 1.398 . S
C2302 H2290 0.950 . S
C2302 C2301 1.398 . S
C2302 C2303 1.391 . S
C2303 H2291 0.950 . S
C2303 C2299 1.393 . S
C2303 C2302 1.391 . S
H2304 C2312 0.950 . S
H2305 C2317 0.950 . S
H2306 C2314 0.950 . S
H2307 C2316 0.950 . S
H2308 C2318 0.950 . S
H2309 C2320 0.950 . S
H2310 C2322 0.950 . S
H2311 C2323 0.950 . S
C2312 H2304 0.950 . S
C2312 C2313 1.386 . S
C2312 C2314 1.391 . S
C2313 C2312 1.386 . S
C2313 C2317 1.393 . S
C2314 H2306 0.950 . S
C2314 C2312 1.391 . S
C2314 C2315 1.400 . S
C2315 C2314 1.400 . S
C2315 C2316 1.398 . S
C2315 C2321 1.491 . S
C2316 H2307 0.950 . S
C2316 C2315 1.398 . S
C2316 C2317 1.391 . S
C2317 H2305 0.950 . S
C2317 C2313 1.393 . S
C2317 C2316 1.391 . S
C2318 H2308 0.950 . S
C2318 C2319 1.386 . S
C2318 C2320 1.391 . S
C2319 C2318 1.386 . S
C2319 C2323 1.393 . S
C2320 H2309 0.950 . S
C2320 C2318 1.391 . S
C2320 C2321 1.400 . S
C2321 C2315 1.491 . S
C2321 C2320 1.400 . S
C2321 C2322 1.398 . S
C2322 H2310 0.950 . S
C2322 C2321 1.398 . S
C2322 C2323 1.391 . S
C2323 H2311 0.950 . S
C2323 C2319 1.393 . S
C2323 C2322 1.391 . S
H2324 C2332 0.950 . S
H2325 C2337 0.950 . S
H2326 C2334 0.950 . S
H2327 C2336 0.950 . S
H2328 C2338 0.950 . S
H2329 C2340 0.969 . S
H2330 C2342 0.950 . S
H2331 C2343 0.950 . S
C2332 H2324 0.950 . S
C2332 C2333 1.386 . S
C2332 C2334 1.391 . S
C2333 C2332 1.386 . S
C2333 C2337 1.393 . S
C2334 H2326 0.950 . S
C2334 C2332 1.391 . S
C2334 C2335 1.400 . S
C2335 C2334 1.400 . S
C2335 C2336 1.398 . S
C2335 C2341 1.491 . S
C2336 H2327 0.950 . S
C2336 C2335 1.398 . S
C2336 C2337 1.391 . S
C2337 H2325 0.950 . S
C2337 C2333 1.393 . S
C2337 C2336 1.391 . S
C2338 H2328 0.950 . S
C2338 C2339 1.386 . S
C2338 C2340 1.361 1_556 S
C2339 C2338 1.386 . S
C2339 C2343 1.393 . S
C2340 H2329 0.969 . S
C2340 C2338 1.361 1_554 S
C2340 C2341 1.412 . S
C2341 C2335 1.491 . S
C2341 C2340 1.412 . S
C2341 C2342 1.398 1_554 S
C2342 H2330 0.950 . S
C2342 C2341 1.398 1_556 S
C2342 C2343 1.391 . S
C2343 H2331 0.950 . S
C2343 C2339 1.393 . S
C2343 C2342 1.391 . S
H2344 C2352 0.950 . S
H2345 C2357 0.950 . S
H2346 C2354 0.950 . S
H2347 C2356 0.950 . S
H2348 C2358 0.950 . S
H2349 C2360 0.950 . S
H2350 C2362 0.950 . S
H2351 C2363 0.950 . S
C2352 H2344 0.950 . S
C2352 C2353 1.386 . S
C2352 C2354 1.391 . S
C2353 C2352 1.386 . S
C2353 C2357 1.393 . S
C2354 H2346 0.950 . S
C2354 C2352 1.391 . S
C2354 C2355 1.400 . S
C2355 C2354 1.400 . S
C2355 C2356 1.398 . S
C2355 C2361 1.491 . S
C2356 H2347 0.950 . S
C2356 C2355 1.398 . S
C2356 C2357 1.391 . S
C2357 H2345 0.950 . S
C2357 C2353 1.393 . S
C2357 C2356 1.391 . S
C2358 H2348 0.950 . S
C2358 C2359 1.386 . S
C2358 C2360 1.391 . S
C2359 C2358 1.386 . S
C2359 C2363 1.393 . S
C2360 H2349 0.950 . S
C2360 C2358 1.391 . S
C2360 C2361 1.400 . S
C2361 C2355 1.491 . S
C2361 C2360 1.400 . S
C2361 C2362 1.398 . S
C2362 H2350 0.950 . S
C2362 C2361 1.398 . S
C2362 C2363 1.391 . S
C2363 H2351 0.950 . S
C2363 C2359 1.393 . S
C2363 C2362 1.391 . S
H2364 C2372 0.950 . S
H2365 C2377 0.950 . S
H2366 C2374 0.950 . S
H2367 C2376 0.950 . S
H2368 C2378 0.950 . S
H2369 C2380 0.950 . S
H2370 C2382 0.950 . S
H2371 C2383 0.950 . S
C2372 H2364 0.950 . S
C2372 C2373 1.386 . S
C2372 C2374 1.391 . S
C2373 C2372 1.386 . S
C2373 C2377 1.393 . S
C2374 H2366 0.950 . S
C2374 C2372 1.391 . S
C2374 C2375 1.400 . S
C2375 C2374 1.400 . S
C2375 C2376 1.398 . S
C2375 C2381 1.491 . S
C2376 H2367 0.950 . S
C2376 C2375 1.398 . S
C2376 C2377 1.391 . S
C2377 H2365 0.950 . S
C2377 C2373 1.393 . S
C2377 C2376 1.391 . S
C2378 H2368 0.950 . S
C2378 C2379 1.386 . S
C2378 C2380 1.391 . S
C2379 C2378 1.386 . S
C2379 C2383 1.393 . S
C2380 H2369 0.950 . S
C2380 C2378 1.391 . S
C2380 C2381 1.400 . S
C2381 C2375 1.491 . S
C2381 C2380 1.400 . S
C2381 C2382 1.398 . S
C2382 H2370 0.950 . S
C2382 C2381 1.398 . S
C2382 C2383 1.391 . S
C2383 H2371 0.950 . S
C2383 C2379 1.393 . S
C2383 C2382 1.391 . S
H2384 C2392 0.950 . S
H2385 C2397 0.950 . S
H2386 C2394 0.950 . S
H2387 C2396 0.950 . S
H2388 C2398 0.950 . S
H2389 C2400 0.950 . S
H2390 C2402 0.950 . S
H2391 C2403 0.950 . S
C2392 H2384 0.950 . S
C2392 C2393 1.386 . S
C2392 C2394 1.391 . S
C2393 C2392 1.386 . S
C2393 C2397 1.393 . S
C2394 H2386 0.950 . S
C2394 C2392 1.391 . S
C2394 C2395 1.400 . S
C2395 C2394 1.400 . S
C2395 C2396 1.398 . S
C2395 C2401 1.491 . S
C2396 H2387 0.950 . S
C2396 C2395 1.398 . S
C2396 C2397 1.391 . S
C2397 H2385 0.950 . S
C2397 C2393 1.393 . S
C2397 C2396 1.391 . S
C2398 H2388 0.950 . S
C2398 C2399 1.386 . S
C2398 C2400 1.391 . S
C2399 C2398 1.386 . S
C2399 C2403 1.393 . S
C2400 H2389 0.950 . S
C2400 C2398 1.391 . S
C2400 C2401 1.400 . S
C2401 C2395 1.491 . S
C2401 C2400 1.400 . S
C2401 C2402 1.398 . S
C2402 H2390 0.950 . S
C2402 C2401 1.398 . S
C2402 C2403 1.391 . S
C2403 H2391 0.950 . S
C2403 C2399 1.393 . S
C2403 C2402 1.391 . S
H2404 C2412 0.950 . S
H2405 C2417 0.950 . S
H2406 C2414 0.950 . S
H2407 C2416 0.950 . S
H2408 C2418 0.950 . S
H2409 C2420 0.950 . S
H2410 C2422 0.950 . S
H2411 C2423 0.950 . S
C2412 H2404 0.950 . S
C2412 C2413 1.386 . S
C2412 C2414 1.391 . S
C2413 C2412 1.386 . S
C2413 C2417 1.393 . S
C2414 H2406 0.950 . S
C2414 C2412 1.391 . S
C2414 C2415 1.400 . S
C2415 C2414 1.400 . S
C2415 C2416 1.398 . S
C2415 C2421 1.491 . S
C2416 H2407 0.950 . S
C2416 C2415 1.398 . S
C2416 C2417 1.391 . S
C2417 H2405 0.950 . S
C2417 C2413 1.393 . S
C2417 C2416 1.391 . S
C2418 H2408 0.950 . S
C2418 C2419 1.386 . S
C2418 C2420 1.391 . S
C2419 C2418 1.386 . S
C2419 C2423 1.393 . S
C2420 H2409 0.950 . S
C2420 C2418 1.391 . S
C2420 C2421 1.400 . S
C2421 C2415 1.491 . S
C2421 C2420 1.400 . S
C2421 C2422 1.398 . S
C2422 H2410 0.950 . S
C2422 C2421 1.398 . S
C2422 C2423 1.391 . S
C2423 H2411 0.950 . S
C2423 C2419 1.393 . S
C2423 C2422 1.391 . S
H2424 C2432 0.950 . S
H2425 C2437 0.950 . S
H2426 C2434 0.950 . S
H2427 C2436 0.950 . S
H2428 C2438 0.950 . S
H2429 C2440 0.950 . S
H2430 C2442 0.950 1_565 S
H2431 C2443 0.950 . S
C2432 H2424 0.950 . S
C2432 C2433 1.386 . S
C2432 C2434 1.391 . S
C2433 C2432 1.386 . S
C2433 C2437 1.393 . S
C2434 H2426 0.950 . S
C2434 C2432 1.391 . S
C2434 C2435 1.400 . S
C2435 C2434 1.400 . S
C2435 C2436 1.398 . S
C2435 C2441 1.491 . S
C2436 H2427 0.950 . S
C2436 C2435 1.398 . S
C2436 C2437 1.391 . S
C2437 H2425 0.950 . S
C2437 C2433 1.393 . S
C2437 C2436 1.391 . S
C2438 H2428 0.950 . S
C2438 C2439 1.386 . S
C2438 C2440 1.391 1_545 S
C2439 C2438 1.386 . S
C2439 C2443 1.393 . S
C2440 H2429 0.950 . S
C2440 C2438 1.391 1_565 S
C2440 C2441 1.400 . S
C2441 C2435 1.491 . S
C2441 C2440 1.400 . S
C2441 C2442 1.398 1_565 S
C2442 H2430 0.950 1_545 S
C2442 C2441 1.398 1_545 S
C2442 C2443 1.391 . S
C2443 H2431 0.950 . S
C2443 C2439 1.393 . S
C2443 C2442 1.391 . S
H2444 C2452 0.950 . S
H2445 C2457 0.950 . S
H2446 C2454 0.950 . S
H2447 C2456 0.950 . S
H2448 C2458 0.950 . S
H2449 C2460 0.950 . S
H2450 C2462 0.950 . S
H2451 C2463 0.950 . S
C2452 H2444 0.950 . S
C2452 C2453 1.386 . S
C2452 C2454 1.391 . S
C2453 C2452 1.386 . S
C2453 C2457 1.393 . S
C2454 H2446 0.950 . S
C2454 C2452 1.391 . S
C2454 C2455 1.400 . S
C2455 C2454 1.400 . S
C2455 C2456 1.398 . S
C2455 C2461 1.491 . S
C2456 H2447 0.950 . S
C2456 C2455 1.398 . S
C2456 C2457 1.391 . S
C2457 H2445 0.950 . S
C2457 C2453 1.393 . S
C2457 C2456 1.391 . S
C2458 H2448 0.950 . S
C2458 C2459 1.386 . S
C2458 C2460 1.391 . S
C2459 C2458 1.386 . S
C2459 C2463 1.393 . S
C2460 H2449 0.950 . S
C2460 C2458 1.391 . S
C2460 C2461 1.400 . S
C2461 C2455 1.491 . S
C2461 C2460 1.400 . S
C2461 C2462 1.398 . S
C2462 H2450 0.950 . S
C2462 C2461 1.398 . S
C2462 C2463 1.391 . S
C2463 H2451 0.950 . S
C2463 C2459 1.393 . S
C2463 C2462 1.391 . S
H2464 C2472 0.950 . S
H2465 C2477 0.950 . S
H2466 C2474 0.950 . S
H2467 C2476 0.950 . S
H2468 C2478 0.950 . S
H2469 C2480 0.950 . S
H2470 C2482 0.950 . S
H2471 C2483 0.950 . S
C2472 H2464 0.950 . S
C2472 C2473 1.386 . S
C2472 C2474 1.391 . S
C2473 C2472 1.386 . S
C2473 C2477 1.393 . S
C2474 H2466 0.950 . S
C2474 C2472 1.391 . S
C2474 C2475 1.400 . S
C2475 C2474 1.400 . S
C2475 C2476 1.398 . S
C2475 C2481 1.491 . S
C2476 H2467 0.950 . S
C2476 C2475 1.398 . S
C2476 C2477 1.391 . S
C2477 H2465 0.950 . S
C2477 C2473 1.393 . S
C2477 C2476 1.391 . S
C2478 H2468 0.950 . S
C2478 C2479 1.386 . S
C2478 C2480 1.391 . S
C2479 C2478 1.386 . S
C2479 C2483 1.393 . S
C2480 H2469 0.950 . S
C2480 C2478 1.391 . S
C2480 C2481 1.400 . S
C2481 C2475 1.491 . S
C2481 C2480 1.400 . S
C2481 C2482 1.398 . S
C2482 H2470 0.950 . S
C2482 C2481 1.398 . S
C2482 C2483 1.391 . S
C2483 H2471 0.950 . S
C2483 C2479 1.393 . S
C2483 C2482 1.391 . S
H2484 C2492 0.950 . S
H2485 C2497 0.950 . S
H2486 C2494 0.950 . S
H2487 C2496 0.950 . S
H2488 C2498 0.950 . S
H2489 C2500 0.950 . S
H2490 C2502 0.950 . S
H2491 C2503 0.950 . S
C2492 H2484 0.950 . S
C2492 C2493 1.386 . S
C2492 C2494 1.391 . S
C2493 C2492 1.386 . S
C2493 C2497 1.393 . S
C2494 H2486 0.950 . S
C2494 C2492 1.391 . S
C2494 C2495 1.400 . S
C2495 C2494 1.400 . S
C2495 C2496 1.398 . S
C2495 C2501 1.491 . S
C2496 H2487 0.950 . S
C2496 C2495 1.398 . S
C2496 C2497 1.391 . S
C2497 H2485 0.950 . S
C2497 C2493 1.393 . S
C2497 C2496 1.391 . S
C2498 H2488 0.950 . S
C2498 C2499 1.386 . S
C2498 C2500 1.391 . S
C2499 C2498 1.386 . S
C2499 C2503 1.393 . S
C2500 H2489 0.950 . S
C2500 C2498 1.391 . S
C2500 C2501 1.400 . S
C2501 C2495 1.491 . S
C2501 C2500 1.400 . S
C2501 C2502 1.398 . S
C2502 H2490 0.950 . S
C2502 C2501 1.398 . S
C2502 C2503 1.391 . S
C2503 H2491 0.950 . S
C2503 C2499 1.393 . S
C2503 C2502 1.391 . S
H2504 C2512 0.950 . S
H2505 C2517 0.950 . S
H2506 C2514 0.956 . S
H2507 C2516 0.950 . S
H2508 C2518 0.950 . S
H2509 C2520 0.950 . S
H2510 C2522 0.950 . S
H2511 C2523 0.950 . S
C2512 H2504 0.950 . S
C2512 C2513 1.386 . S
C2512 C2514 1.391 . S
C2513 C2512 1.386 . S
C2513 C2517 1.393 . S
C2514 H2506 0.956 . S
C2514 C2512 1.391 . S
C2514 C2515 1.400 1_565 S
C2515 C2514 1.400 1_545 S
C2515 C2516 1.398 . S
C2515 C2521 1.491 . S
C2516 H2507 0.950 . S
C2516 C2515 1.398 . S
C2516 C2517 1.391 1_545 S
C2517 H2505 0.950 . S
C2517 C2513 1.393 . S
C2517 C2516 1.391 1_565 S
C2518 H2508 0.950 . S
C2518 C2519 1.386 . S
C2518 C2520 1.391 . S
C2519 C2518 1.386 . S
C2519 C2523 1.393 . S
C2520 H2509 0.950 . S
C2520 C2518 1.391 . S
C2520 C2521 1.400 . S
C2521 C2515 1.491 . S
C2521 C2520 1.400 . S
C2521 C2522 1.398 . S
C2522 H2510 0.950 . S
C2522 C2521 1.398 . S
C2522 C2523 1.391 . S
C2523 H2511 0.950 . S
C2523 C2519 1.393 . S
C2523 C2522 1.391 . S
H2524 C2532 0.950 . S
H2525 C2537 0.950 . S
H2526 C2534 0.950 . S
H2527 C2536 0.950 . S
H2528 C2538 0.950 . S
H2529 C2540 0.948 1_565 S
H2530 C2542 0.950 . S
H2531 C2543 0.950 . S
C2532 H2524 0.950 . S
C2532 C2533 1.386 . S
C2532 C2534 1.391 . S
C2533 C2532 1.386 . S
C2533 C2537 1.393 . S
C2534 H2526 0.950 . S
C2534 C2532 1.391 . S
C2534 C2535 1.400 . S
C2535 C2534 1.400 . S
C2535 C2536 1.398 . S
C2535 C2541 1.491 . S
C2536 H2527 0.950 . S
C2536 C2535 1.398 . S
C2536 C2537 1.391 . S
C2537 H2525 0.950 . S
C2537 C2533 1.393 . S
C2537 C2536 1.391 . S
C2538 H2528 0.950 . S
C2538 C2539 1.386 . S
C2538 C2540 1.391 . S
C2539 C2538 1.386 . S
C2539 C2543 1.393 . S
C2540 H2529 0.948 1_545 S
C2540 C2538 1.391 . S
C2540 C2541 1.400 1_545 S
C2541 C2535 1.491 . S
C2541 C2540 1.400 1_565 S
C2541 C2542 1.398 . S
C2542 H2530 0.950 . S
C2542 C2541 1.398 . S
C2542 C2543 1.391 1_565 S
C2543 H2531 0.950 . S
C2543 C2539 1.393 . S
C2543 C2542 1.391 1_545 S
C633 C554 1.128 . S
C639 C0 1.122 . S
C653 C18 1.254 . S
C659 C200 1.178 . S
C673 C26 1.163 . S
C679 C528 1.137 . S
C693 C44 1.248 . S
C699 C226 1.217 . S
C713 C580 1.132 . S
C719 C57 1.167 . S
C733 C65 1.253 . S
C739 C273 1.202 . S
C753 C83 1.135 . S
C759 C606 1.147 . S
C773 C91 1.236 . S
C779 C247 1.223 . S
C793 C39 1.168 . S
C799 C621 1.178 . S
C813 C5 1.182 . S
C819 C333 1.198 . S
C833 C348 1.159 . S
C839 C13 1.144 . S
C853 C31 1.181 . S
C859 C320 1.166 . S
C873 C70 1.214 . S
C879 C322 1.228 . S
C893 C78 1.103 . S
C899 C619 1.092 . S
C913 C96 1.218 . S
C919 C335 1.251 . S
C933 C52 1.118 . S
C939 C346 1.105 . S
C953 C507 1.193 . S
C959 C104 1.222 . S
C973 C122 1.273 . S
C979 C252 1.182 . S
C993 C109 1.215 . S
C999 C582 1.249 . S
C1013 C278 1.235 . S
C1019 C135 1.298 . S
C1033 C296 1.211 . S
C1039 C143 1.198 . S
C1053 C533 1.223 . S
C1059 C161 1.223 . S
C1073 C556 1.155 . S
C1079 C169 1.146 . S
C1093 C530 1.229 . S
C1099 C187 1.197 . S
C1113 C439 1.230 . S
C1119 C205 1.221 . S
C1133 C208 1.199 . S
C1139 C8 1.180 . S
C1153 C231 1.241 . S
C1159 C413 1.241 . S
C1173 C34 1.159 . S
C1179 C234 1.180 . S
C1193 C255 1.206 . S
C1199 C463 1.206 . S
C1213 C88 1.229 . S
C1219 C260 1.218 . S
C1233 C281 1.240 . S
C1239 C489 1.217 . S
C1253 C62 1.229 . S
C1259 C286 1.218 . S
C1273 C504 1.234 . S
C1279 C239 1.216 . S
C1293 C203 1.199 . S
C1299 C140 1.209 . S
C1313 C151 1.206 . S
C1319 C213 1.229 . S
C1333 C127 1.225 . S
C1339 C229 1.206 . S
C1353 C125 1.225 . S
C1359 C265 1.219 . S
C1373 C283 1.263 . S
C1379 C502 1.234 . S
C1393 C138 1.214 . S
C1399 C291 1.206 . S
C1413 C257 1.264 . S
C1419 C153 1.261 . S
C1433 C299 1.184 . S
C1439 C400 1.197 . S
C1453 C312 1.200 . S
C1459 C60 1.179 . S
C1473 C304 1.186 . S
C1479 C465 1.217 . S
C1493 C325 1.205 . S
C1499 C86 1.195 . S
C1513 C343 1.198 . S
C1519 C101 1.232 . S
C1533 C426 1.176 . S
C1539 C351 1.152 . S
C1553 C369 1.239 . S
C1559 C437 1.242 . S
C1573 C382 1.245 . S
C1579 C411 1.213 . S
C1593 C390 1.145 . S
C1599 C242 1.111 . S
C1613 C408 1.237 . S
C1619 C512 1.158 . S
C1633 C216 1.115 . S
C1639 C416 1.140 . S
C1653 C434 1.275 . S
C1659 C538 1.197 . S
C1673 C447 1.151 . S
C1679 C268 1.167 . S
C1693 C585 1.178 . S
C1699 C455 1.227 . S
C1713 C473 1.122 . S
C1719 C294 1.137 . S
C1733 C559 1.208 . S
C1739 C481 1.261 . S
C1753 C309 1.176 . S
C1759 C429 1.165 . S
C1773 C385 1.175 . S
C1779 C395 1.181 . S
C1793 C403 1.147 . S
C1799 C361 1.163 . S
C1813 C372 1.162 . S
C1819 C421 1.184 . S
C1833 C460 1.219 . S
C1839 C374 1.229 . S
C1853 C307 1.111 . S
C1859 C468 1.103 . S
C1873 C486 1.209 . S
C1879 C387 1.243 . S
C1893 C442 1.118 . S
C1899 C359 1.084 . S
C1913 C494 1.189 . S
C1919 C195 1.161 . S
C1933 C174 1.266 . S
C1939 C564 1.224 . S
C1953 C270 1.259 . S
C1959 C499 1.226 . S
C1973 C590 1.208 . S
C1979 C182 1.251 . S
C1993 C608 1.185 . S
C1999 C156 1.162 . S
C2013 C148 1.238 . S
C2019 C221 1.190 . S
C2033 C117 1.137 . S
C2039 C244 1.157 . S
C2053 C218 1.178 . S
C2059 C130 1.157 . S
C2073 C517 1.250 . S
C2079 C49 1.249 . S
C2093 C398 1.187 . S
C2099 C520 1.208 . S
C2113 C543 1.238 . S
C2119 C23 1.239 . S
C2133 C546 1.154 . S
C2139 C424 1.164 . S
C2153 C73 1.183 . S
C2159 C567 1.209 . S
C2173 C572 1.208 . S
C2179 C478 1.226 . S
C2193 C593 1.212 . S
C2199 C99 1.221 . S
C2213 C452 1.204 . S
C2219 C598 1.195 . S
C2233 C551 1.230 . S
C2239 C114 1.234 . S
C2253 C190 1.169 . S
C2259 C515 1.209 . S
C2273 C164 1.225 . S
C2279 C525 1.240 . S
C2293 C541 1.197 . S
C2299 C179 1.217 . S
C2313 C577 1.226 . S
C2319 C177 1.220 . S
C2333 C112 1.236 . S
C2339 C595 1.258 . S
C2353 C192 1.221 . S
C2359 C603 1.206 . S
C2373 C569 1.267 . S
C2379 C166 1.264 . S
C2393 C10 1.196 . S
C2399 C611 1.174 . S
C2413 C364 1.193 . S
C2419 C450 1.167 . S
C2433 C75 1.215 . S
C2439 C616 1.193 . S
C2453 C476 1.186 . S
C2459 C377 1.188 . S
C2473 C491 1.219 . S
C2479 C356 1.206 . S
C2493 C338 1.178 . S
C2499 C36 1.190 . S
C2513 C317 1.255 . S
C2519 C47 1.245 . S
C2533 C21 1.227 . S
C2539 C330 1.258 . S
