# Generated by pormake.
# Topology umx, (4)-cn, num edge types: 1
# Building blocks:
#     Node 0, Type 0, BuildingBlock: GALJAG_clean_sbu_0, # of connection points: 4
#     Node 1, Type 0, BuildingBlock: GALJAG_clean_sbu_0, # of connection points: 4
#     Node 2, Type 0, BuildingBlock: GALJAG_clean_sbu_0, # of connection points: 4
#     Node 3, Type 0, BuildingBlock: GALJAG_clean_sbu_0, # of connection points: 4
#     Node 4, Type 0, BuildingBlock: GALJAG_clean_sbu_0, # of connection points: 4
#     Node 5, Type 0, BuildingBlock: GALJAG_clean_sbu_0, # of connection points: 4
#     Node 6, Type 0, BuildingBlock: GALJAG_clean_sbu_0, # of connection points: 4
#     Node 7, Type 0, BuildingBlock: GALJAG_clean_sbu_0, # of connection points: 4
#     Edge 8, Type (0, 0), BuildingBlock: MIFKUJ_clean_linker_0, # of connection points: 2
#     Edge 9, Type (0, 0), BuildingBlock: MIFKUJ_clean_linker_0, # of connection points: 2
#     Edge 10, Type (0, 0), BuildingBlock: MIFKUJ_clean_linker_0, # of connection points: 2
#     Edge 11, Type (0, 0), BuildingBlock: MIFKUJ_clean_linker_0, # of connection points: 2
#     Edge 12, Type (0, 0), BuildingBlock: MIFKUJ_clean_linker_0, # of connection points: 2
#     Edge 13, Type (0, 0), BuildingBlock: MIFKUJ_clean_linker_0, # of connection points: 2
#     Edge 14, Type (0, 0), BuildingBlock: MIFKUJ_clean_linker_0, # of connection points: 2
#     Edge 15, Type (0, 0), BuildingBlock: MIFKUJ_clean_linker_0, # of connection points: 2
#     Edge 16, Type (0, 0), BuildingBlock: MIFKUJ_clean_linker_0, # of connection points: 2
#     Edge 17, Type (0, 0), BuildingBlock: MIFKUJ_clean_linker_0, # of connection points: 2
#     Edge 18, Type (0, 0), BuildingBlock: MIFKUJ_clean_linker_0, # of connection points: 2
#     Edge 19, Type (0, 0), BuildingBlock: MIFKUJ_clean_linker_0, # of connection points: 2
#     Edge 20, Type (0, 0), BuildingBlock: MIFKUJ_clean_linker_0, # of connection points: 2
#     Edge 21, Type (0, 0), BuildingBlock: MIFKUJ_clean_linker_0, # of connection points: 2
#     Edge 22, Type (0, 0), BuildingBlock: MIFKUJ_clean_linker_0, # of connection points: 2
#     Edge 23, Type (0, 0), BuildingBlock: MIFKUJ_clean_linker_0, # of connection points: 2
# Relax obj value: 0.096
# Max RMSD: 0.176
# Mean RMSD: 0.176
data_MOF--net-umx--node1-GALJAG_clean_sbu_0--edge1-MIFKUJ_clean_linker_0
_symmetry_space_group_name_H-M    P1
_symmetry_Int_Tables_number       1
_symmetry_cell_setting            triclinic
loop_
_symmetry_equiv_pos_as_xyz
'x, y, z'
_cell_length_a     49.881052
_cell_length_b     49.880681
_cell_length_c     37.359077
_cell_angle_alpha  90.057739
_cell_angle_beta   90.071882
_cell_angle_gamma 89.990104
loop_
_atom_site_label
_atom_site_type_symbol
_atom_site_fract_x
_atom_site_fract_y
_atom_site_fract_z
_atom_type_partial_charge
In0 In 0.17668 0.44701 0.03085 0.0
O1 O 0.19583 0.47667 0.07046 0.0
O2 O 0.1839 0.43833 0.08956 0.0
C3 C 0.18925 0.46483 0.96501 0.0
C4 C 0.20106 0.39959 0.02363 0.0
C5 C 0.12397 0.45844 0.03372 0.0
O6 O 0.19839 0.476 0.99291 0.0
O7 O 0.17368 0.44539 0.97064 0.0
O8 O 0.13255 0.43467 0.03162 0.0
O9 O 0.14195 0.47617 0.03487 0.0
C10 C 0.19418 0.46077 0.0967 0.0
O11 O 0.17631 0.40132 0.03072 0.0
O12 O 0.21327 0.42168 0.02089 0.0
In13 In 0.55017 0.18453 0.51956 0.0
O14 O 0.59583 0.18516 0.52166 0.0
O15 O 0.57486 0.22218 0.51527 0.0
C16 C 0.54216 0.13124 0.5228 0.0
C17 C 0.53335 0.20025 0.58489 0.0
C18 C 0.5339 0.19754 0.45289 0.0
O19 O 0.56525 0.14138 0.51993 0.0
O20 O 0.52325 0.14798 0.5243 0.0
O21 O 0.52324 0.20788 0.48034 0.0
O22 O 0.55194 0.18055 0.45941 0.0
C23 C 0.59716 0.21035 0.5182 0.0
O24 O 0.51753 0.19934 0.55842 0.0
O25 O 0.55708 0.19327 0.57823 0.0
In26 In 0.79527 0.54956 0.02385 0.0
O27 O 0.76979 0.52913 0.06749 0.0
O28 O 0.80331 0.55284 0.08299 0.0
C29 C 0.77759 0.53082 0.9606 0.0
C30 C 0.77408 0.59879 0.01937 0.0
C31 C 0.84687 0.53468 0.01895 0.0
O32 O 0.77542 0.517 0.98886 0.0
O33 O 0.78863 0.55333 0.96462 0.0
O34 O 0.8398 0.55901 0.01958 0.0
O35 O 0.82788 0.518 0.0204 0.0
C36 C 0.78395 0.53841 0.09276 0.0
O37 O 0.79916 0.59501 0.01906 0.0
O38 O 0.76006 0.57788 0.02296 0.0
In39 In 0.48369 0.79595 0.54958 0.0
O40 O 0.50505 0.77104 0.59307 0.0
O41 O 0.48758 0.80833 0.60744 0.0
C42 C 0.5011 0.77348 0.48813 0.0
C43 C 0.43403 0.77574 0.55367 0.0
C44 C 0.49242 0.84822 0.53681 0.0
O45 O 0.51723 0.77983 0.51286 0.0
O46 O 0.47686 0.77822 0.49479 0.0
O47 O 0.46934 0.83893 0.54301 0.0
O48 O 0.51104 0.83107 0.53674 0.0
C49 C 0.49984 0.78765 0.61766 0.0
O50 O 0.43828 0.79979 0.54464 0.0
O51 O 0.45477 0.76234 0.56122 0.0
In52 In 0.18907 0.55209 0.53104 0.0
O53 O 0.20754 0.52178 0.49188 0.0
O54 O 0.18698 0.55581 0.47096 0.0
C55 C 0.20297 0.53675 0.59749 0.0
C56 C 0.21941 0.59612 0.52789 0.0
C57 C 0.13588 0.54419 0.53437 0.0
O58 O 0.20564 0.52118 0.57094 0.0
O59 O 0.19339 0.5595 0.59029 0.0
O60 O 0.14592 0.56747 0.53449 0.0
O61 O 0.15265 0.52533 0.53259 0.0
C62 C 0.19999 0.53467 0.46447 0.0
O63 O 0.19405 0.59749 0.52818 0.0
O64 O 0.22903 0.57269 0.52904 0.0
In65 In 0.45265 0.19147 0.02415 0.0
O66 O 0.40722 0.18791 0.02638 0.0
O67 O 0.42442 0.22526 0.01039 0.0
C68 C 0.46135 0.13911 0.03745 0.0
C69 C 0.46845 0.19966 0.95599 0.0
C70 C 0.47107 0.21451 0.08511 0.0
O71 O 0.43839 0.14957 0.0398 0.0
O72 O 0.47973 0.15502 0.02836 0.0
O73 O 0.48668 0.20633 0.06089 0.0
O74 O 0.44658 0.2118 0.07803 0.0
C75 C 0.4034 0.21178 0.01614 0.0
O76 O 0.47818 0.21298 0.98173 0.0
O77 O 0.45155 0.18214 0.96493 0.0
In78 In 0.80572 0.46064 0.52462 0.0
O79 O 0.77601 0.4835 0.48895 0.0
O80 O 0.81458 0.47426 0.46805 0.0
C81 C 0.78645 0.46938 0.59107 0.0
C82 C 0.78861 0.41071 0.51071 0.0
C83 C 0.85732 0.47463 0.53262 0.0
O84 O 0.78485 0.48689 0.56674 0.0
O85 O 0.79746 0.4478 0.58166 0.0
O86 O 0.8503 0.45139 0.5229 0.0
O87 O 0.83827 0.49073 0.53843 0.0
C88 C 0.79189 0.48462 0.46267 0.0
O89 O 0.81233 0.41533 0.52087 0.0
O90 O 0.77407 0.43121 0.50708 0.0
In91 In 0.53688 0.80835 0.04767 0.0
O92 O 0.58119 0.81533 0.03418 0.0
O93 O 0.56417 0.77698 0.02401 0.0
C94 C 0.52375 0.86005 0.05705 0.0
C95 C 0.50816 0.79391 0.98974 0.0
C96 C 0.53408 0.78888 0.11495 0.0
O97 O 0.54656 0.85276 0.046 0.0
O98 O 0.50758 0.84118 0.06352 0.0
O99 O 0.51497 0.78642 0.09299 0.0
O100 O 0.55432 0.80089 0.10283 0.0
C101 C 0.58457 0.79181 0.02248 0.0
O102 O 0.51241 0.77793 0.01533 0.0
O103 O 0.51724 0.81724 0.99434 0.0
H104 H 0.20773 0.42674 0.15033 0.0
H105 H 0.21634 0.4378 0.21298 0.0
H106 H 0.20583 0.52184 0.18923 0.0
H107 H 0.19854 0.51084 0.12597 0.0
H108 H 0.24306 0.51682 0.2376 0.0
H109 H 0.15407 0.4815 0.22395 0.0
H110 H 0.11988 0.44848 0.20564 0.0
H111 H 0.15573 0.38948 0.2743 0.0
H112 H 0.19035 0.42207 0.29267 0.0
H113 H 0.19391 0.56409 0.40398 0.0
H114 H 0.20051 0.54971 0.34219 0.0
H115 H 0.22473 0.47139 0.37887 0.0
H116 H 0.21829 0.4858 0.44124 0.0
H117 H 0.18477 0.47072 0.32576 0.0
H118 H 0.27078 0.51121 0.34472 0.0
H119 H 0.30181 0.54711 0.36333 0.0
H120 H 0.26764 0.59996 0.28494 0.0
H121 H 0.23611 0.56453 0.26622 0.0
C122 C 0.20762 0.4476 0.15842 0.0
C123 C 0.2022 0.46794 0.13348 0.0
C124 C 0.21242 0.4539 0.19426 0.0
C125 C 0.21101 0.4806 0.20608 0.0
C126 C 0.20688 0.50107 0.18082 0.0
C127 C 0.20267 0.4948 0.14472 0.0
C128 C 0.21232 0.48699 0.24493 0.0
C129 C 0.23018 0.50687 0.25682 0.0
C130 C 0.19583 0.47371 0.27023 0.0
C131 C 0.17496 0.45413 0.25937 0.0
C132 C 0.15476 0.46143 0.23495 0.0
C133 C 0.1353 0.4428 0.22459 0.0
C134 C 0.13568 0.41688 0.23872 0.0
C135 C 0.15549 0.40955 0.26333 0.0
C136 C 0.17503 0.4281 0.27374 0.0
C137 C 0.20086 0.54386 0.39897 0.0
C138 C 0.20552 0.52601 0.42741 0.0
C139 C 0.20478 0.53574 0.36365 0.0
C140 C 0.21333 0.50959 0.356 0.0
C141 C 0.21825 0.49172 0.38431 0.0
C142 C 0.21461 0.49996 0.41983 0.0
C143 C 0.21533 0.50063 0.31828 0.0
C144 C 0.19796 0.48035 0.3066 0.0
C145 C 0.23185 0.51393 0.29317 0.0
C146 C 0.25095 0.53523 0.30422 0.0
C147 C 0.26974 0.53055 0.33162 0.0
C148 C 0.28744 0.55081 0.34217 0.0
C149 C 0.28667 0.57581 0.32536 0.0
C150 C 0.26822 0.58059 0.29794 0.0
C151 C 0.25045 0.56041 0.28732 0.0
H152 H 0.30042 0.59145 0.3335 0.0
H153 H 0.1206 0.40248 0.23066 0.0
H154 H 0.48402 0.19434 0.61572 0.0
H155 H 0.47277 0.20084 0.67894 0.0
H156 H 0.55279 0.23038 0.69903 0.0
H157 H 0.5644 0.22237 0.63648 0.0
H158 H 0.54258 0.19677 0.74648 0.0
H159 H 0.49323 0.27126 0.70172 0.0
H160 H 0.46129 0.29562 0.66324 0.0
H161 H 0.39684 0.24662 0.70206 0.0
H162 H 0.42845 0.22169 0.74043 0.0
H163 H 0.50995 0.22943 0.92877 0.0
H164 H 0.52104 0.23623 0.8653 0.0
H165 H 0.45297 0.18806 0.83466 0.0
H166 H 0.44203 0.18094 0.8976 0.0
H167 H 0.45869 0.23627 0.79429 0.0
H168 H 0.51136 0.15979 0.83469 0.0
H169 H 0.54431 0.13758 0.87403 0.0
H170 H 0.60419 0.19501 0.84355 0.0
H171 H 0.57145 0.21778 0.80439 0.0
C172 C 0.49899 0.20262 0.63362 0.0
C173 C 0.52507 0.20775 0.6214 0.0
C174 C 0.49255 0.20649 0.66973 0.0
C175 C 0.51186 0.21634 0.69393 0.0
C176 C 0.53756 0.22262 0.68111 0.0
C177 C 0.54416 0.21813 0.64533 0.0
C178 C 0.50615 0.21792 0.733 0.0
C179 C 0.52447 0.20599 0.75681 0.0
C180 C 0.48238 0.22953 0.74681 0.0
C181 C 0.46327 0.24446 0.72375 0.0
C182 C 0.47228 0.26553 0.70186 0.0
C183 C 0.45422 0.27947 0.6801 0.0
C184 C 0.42706 0.27263 0.68015 0.0
C185 C 0.41789 0.25188 0.70203 0.0
C186 C 0.43586 0.23786 0.72382 0.0
C187 C 0.49737 0.22038 0.90844 0.0
C188 C 0.47527 0.2045 0.91808 0.0
C189 C 0.50367 0.2243 0.87229 0.0
C190 C 0.48779 0.21262 0.84538 0.0
C191 C 0.46539 0.19732 0.85503 0.0
C192 C 0.4593 0.19312 0.89101 0.0
C193 C 0.49503 0.2151 0.80711 0.0
C194 C 0.47696 0.2276 0.78363 0.0
C195 C 0.51922 0.20445 0.79359 0.0
C196 C 0.53889 0.19066 0.81696 0.0
C197 C 0.53149 0.16781 0.83662 0.0
C198 C 0.55013 0.1551 0.85884 0.0
C199 C 0.5763 0.16493 0.86138 0.0
C200 C 0.5839 0.18745 0.84162 0.0
C201 C 0.56532 0.20026 0.8194 0.0
H202 H 0.59071 0.15506 0.87858 0.0
H203 H 0.41312 0.28345 0.66328 0.0
H204 H 0.82524 0.50332 0.41132 0.0
H205 H 0.81365 0.51648 0.35025 0.0
H206 H 0.73008 0.50185 0.37227 0.0
H207 H 0.74156 0.4892 0.43411 0.0
H208 H 0.75367 0.47509 0.30814 0.0
H209 H 0.74254 0.56168 0.36047 0.0
H210 H 0.75488 0.60007 0.39869 0.0
H211 H 0.82635 0.61222 0.33686 0.0
H212 H 0.81466 0.57364 0.29859 0.0
H213 H 0.73871 0.51716 0.12391 0.0
H214 H 0.73034 0.51117 0.18828 0.0
H215 H 0.80939 0.54186 0.21159 0.0
H216 H 0.81739 0.54859 0.1481 0.0
H217 H 0.77531 0.56359 0.25511 0.0
H218 H 0.7928 0.47307 0.21274 0.0
H219 H 0.78431 0.43289 0.17587 0.0
H220 H 0.70496 0.42663 0.21954 0.0
H221 H 0.7129 0.46699 0.25637 0.0
C222 C 0.80435 0.50332 0.40334 0.0
C223 C 0.78427 0.49532 0.42735 0.0
C224 C 0.79776 0.51084 0.36851 0.0
C225 C 0.77103 0.51014 0.35689 0.0
C226 C 0.7508 0.50256 0.38091 0.0
C227 C 0.75736 0.49552 0.41614 0.0
C228 C 0.76496 0.51596 0.31895 0.0
C229 C 0.75766 0.49461 0.2965 0.0
C230 C 0.77071 0.54128 0.30396 0.0
C231 C 0.77776 0.56466 0.32675 0.0
C232 C 0.76098 0.57241 0.35517 0.0
C233 C 0.76785 0.59424 0.37682 0.0
C234 C 0.79139 0.60856 0.37023 0.0
C235 C 0.8081 0.60112 0.34193 0.0
C236 C 0.80134 0.57929 0.3202 0.0
C237 C 0.75424 0.52252 0.1429 0.0
C238 C 0.77867 0.53336 0.13105 0.0
C239 C 0.74947 0.51909 0.1796 0.0
C240 C 0.76926 0.52605 0.20483 0.0
C241 C 0.7937 0.53659 0.19277 0.0
C242 C 0.79831 0.5403 0.15638 0.0
C243 C 0.76516 0.52241 0.24391 0.0
C244 C 0.77054 0.54422 0.26665 0.0
C245 C 0.75809 0.49738 0.2591 0.0
C246 C 0.7533 0.47323 0.23689 0.0
C247 C 0.77346 0.46325 0.21423 0.0
C248 C 0.76877 0.44042 0.1934 0.0
C249 C 0.74407 0.42728 0.19526 0.0
C250 C 0.72405 0.43688 0.21804 0.0
C251 C 0.72863 0.45972 0.2389 0.0
H252 H 0.74048 0.4096 0.17912 0.0
H253 H 0.79668 0.62545 0.38704 0.0
H254 H 0.50788 0.74321 0.96214 0.0
H255 H 0.50234 0.73125 0.89884 0.0
H256 H 0.48131 0.81315 0.87467 0.0
H257 H 0.48705 0.82522 0.93756 0.0
H258 H 0.45257 0.77518 0.83374 0.0
H259 H 0.54441 0.79562 0.87157 0.0
H260 H 0.58366 0.78714 0.91021 0.0
H261 H 0.58872 0.70656 0.87032 0.0
H262 H 0.54912 0.71441 0.83194 0.0
H263 H 0.49472 0.82309 0.67207 0.0
H264 H 0.4942 0.81349 0.73593 0.0
H265 H 0.51411 0.73087 0.71467 0.0
H266 H 0.51466 0.74038 0.64999 0.0
H267 H 0.54075 0.75583 0.7777 0.0
H268 H 0.45374 0.73956 0.7297 0.0
H269 H 0.41415 0.74906 0.69222 0.0
H270 H 0.39967 0.82149 0.75132 0.0
H271 H 0.43945 0.81267 0.78878 0.0
C272 C 0.50117 0.75842 0.94349 0.0
C273 C 0.49808 0.78518 0.95456 0.0
C274 C 0.49816 0.75159 0.90737 0.0
C275 C 0.49177 0.77142 0.88212 0.0
C276 C 0.48627 0.79758 0.89377 0.0
C277 C 0.4896 0.80447 0.92967 0.0
C278 C 0.49416 0.76625 0.84327 0.0
C279 C 0.47175 0.77071 0.82145 0.0
C280 C 0.51915 0.75983 0.8274 0.0
C281 C 0.54361 0.75548 0.84926 0.0
C282 C 0.55382 0.77605 0.87117 0.0
C283 C 0.5761 0.77136 0.89305 0.0
C284 C 0.58855 0.74628 0.89289 0.0
C285 C 0.57894 0.72593 0.87055 0.0
C286 C 0.55658 0.73049 0.84873 0.0
C287 C 0.49945 0.80295 0.68088 0.0
C288 C 0.50446 0.78241 0.65604 0.0
C289 C 0.4991 0.7975 0.71739 0.0
C290 C 0.50365 0.7714 0.72986 0.0
C291 C 0.51043 0.75111 0.70542 0.0
C292 C 0.51078 0.75658 0.6686 0.0
C293 C 0.49927 0.76557 0.76822 0.0
C294 C 0.52134 0.75927 0.78993 0.0
C295 C 0.47393 0.77024 0.78406 0.0
C296 C 0.44968 0.77548 0.76198 0.0
C297 C 0.44222 0.7576 0.73458 0.0
C298 C 0.41973 0.76286 0.71334 0.0
C299 C 0.40442 0.78587 0.71937 0.0
C300 C 0.41154 0.80366 0.74669 0.0
C301 C 0.43404 0.79851 0.76798 0.0
H302 H 0.38701 0.78991 0.70289 0.0
H303 H 0.60569 0.74264 0.91 0.0
H304 H 0.78405 0.4328 0.64491 0.0
H305 H 0.77513 0.44123 0.70819 0.0
H306 H 0.76098 0.52476 0.68505 0.0
H307 H 0.7701 0.51649 0.62153 0.0
H308 H 0.79793 0.51702 0.73821 0.0
H309 H 0.70975 0.48389 0.70907 0.0
H310 H 0.67825 0.45086 0.68363 0.0
H311 H 0.70667 0.39131 0.75739 0.0
H312 H 0.73865 0.42388 0.78294 0.0
H313 H 0.76231 0.56196 0.90531 0.0
H314 H 0.75609 0.54858 0.84311 0.0
H315 H 0.76899 0.46586 0.87211 0.0
H316 H 0.77444 0.47923 0.93518 0.0
H317 H 0.73198 0.47119 0.81654 0.0
H318 H 0.82066 0.50068 0.84368 0.0
H319 H 0.85521 0.53081 0.86847 0.0
H320 H 0.82937 0.59361 0.79786 0.0
H321 H 0.79438 0.56396 0.77301 0.0
C322 C 0.77868 0.45291 0.65321 0.0
C323 C 0.77794 0.47406 0.62836 0.0
C324 C 0.77343 0.45764 0.68935 0.0
C325 C 0.76728 0.48358 0.70127 0.0
C326 C 0.76566 0.50458 0.67632 0.0
C327 C 0.7708 0.49983 0.64009 0.0
C328 C 0.76493 0.48925 0.74006 0.0
C329 C 0.78316 0.50738 0.75519 0.0
C330 C 0.74648 0.47567 0.76242 0.0
C331 C 0.72675 0.45628 0.74773 0.0
C332 C 0.70939 0.46371 0.71974 0.0
C333 C 0.69144 0.44507 0.70531 0.0
C334 C 0.69051 0.41898 0.71882 0.0
C335 C 0.70743 0.41152 0.74693 0.0
C336 C 0.72545 0.43007 0.76143 0.0
C337 C 0.76326 0.54084 0.89858 0.0
C338 C 0.76922 0.52163 0.92483 0.0
C339 C 0.75971 0.53323 0.86305 0.0
C340 C 0.76272 0.50632 0.8529 0.0
C341 C 0.76672 0.48676 0.87943 0.0
C342 C 0.76986 0.49438 0.91534 0.0
C343 C 0.76457 0.49947 0.81437 0.0
C344 C 0.74654 0.48097 0.79942 0.0
C345 C 0.78356 0.51231 0.79206 0.0
C346 C 0.80473 0.53017 0.80672 0.0
C347 C 0.82222 0.52098 0.83362 0.0
C348 C 0.84189 0.53796 0.84766 0.0
C349 C 0.84444 0.56413 0.83481 0.0
C350 C 0.82735 0.57334 0.80782 0.0
C351 C 0.8076 0.55645 0.79372 0.0
H352 H 0.85969 0.57724 0.84571 0.0
H353 H 0.67665 0.40456 0.70755 0.0
H354 H 0.57219 0.79468 0.1665 0.0
H355 H 0.56879 0.78313 0.22972 0.0
H356 H 0.48974 0.75065 0.21163 0.0
H357 H 0.49281 0.76275 0.1482 0.0
H358 H 0.4897 0.78414 0.26633 0.0
H359 H 0.54416 0.7098 0.2313 0.0
H360 H 0.58252 0.68727 0.20257 0.0
H361 H 0.63694 0.72982 0.27128 0.0
H362 H 0.59893 0.7529 0.3001 0.0
H363 H 0.47159 0.74418 0.44168 0.0
H364 H 0.48044 0.73729 0.37811 0.0
H365 H 0.55732 0.77598 0.38969 0.0
H366 H 0.5488 0.78226 0.45391 0.0
H367 H 0.55797 0.73548 0.33801 0.0
H368 H 0.50451 0.81292 0.36795 0.0
H369 H 0.46667 0.83633 0.39671 0.0
H370 H 0.41094 0.78859 0.33646 0.0
H371 H 0.44848 0.76461 0.30773 0.0
C372 C 0.55418 0.78479 0.17587 0.0
C373 C 0.5327 0.7797 0.15246 0.0
C374 C 0.55236 0.77801 0.21201 0.0
C375 C 0.52914 0.76573 0.22538 0.0
C376 C 0.50789 0.76003 0.20184 0.0
C377 C 0.50965 0.76693 0.16565 0.0
C378 C 0.5262 0.76107 0.26438 0.0
C379 C 0.50435 0.77297 0.28182 0.0
C380 C 0.54575 0.74723 0.2848 0.0
C381 C 0.56867 0.73323 0.26769 0.0
C382 C 0.56431 0.7145 0.24012 0.0
C383 C 0.586 0.7016 0.22384 0.0
C384 C 0.61215 0.70715 0.23504 0.0
C385 C 0.61667 0.72555 0.26262 0.0
C386 C 0.59506 0.73852 0.27897 0.0
C387 C 0.49071 0.75054 0.43088 0.0
C388 C 0.5094 0.76406 0.45247 0.0
C389 C 0.49572 0.74662 0.39457 0.0
C390 C 0.51923 0.75671 0.37908 0.0
C391 C 0.53899 0.76816 0.40116 0.0
C392 C 0.53412 0.77174 0.43778 0.0
C393 C 0.52146 0.75844 0.33961 0.0
C394 C 0.5432 0.74624 0.32226 0.0
C395 C 0.50189 0.77213 0.3191 0.0
C396 C 0.47929 0.7868 0.33597 0.0
C397 C 0.48418 0.8073 0.36101 0.0
C398 C 0.46279 0.82068 0.37729 0.0
C399 C 0.43641 0.8139 0.36849 0.0
C400 C 0.43138 0.79379 0.3433 0.0
C401 C 0.4527 0.78031 0.32699 0.0
H402 H 0.41988 0.82428 0.38113 0.0
H403 H 0.62891 0.69715 0.2224 0.0
H404 H 0.18273 0.43595 0.90417 0.0
H405 H 0.19281 0.44948 0.8429 0.0
H406 H 0.22149 0.52589 0.88117 0.0
H407 H 0.21178 0.51221 0.94309 0.0
H408 H 0.18231 0.52795 0.82447 0.0
H409 H 0.266 0.48533 0.85138 0.0
H410 H 0.29498 0.44885 0.87342 0.0
H411 H 0.26296 0.39577 0.79356 0.0
H412 H 0.23347 0.43183 0.77137 0.0
H413 H 0.21599 0.57003 0.65206 0.0
H414 H 0.22125 0.55868 0.7152 0.0
H415 H 0.2081 0.47517 0.69034 0.0
H416 H 0.20409 0.48642 0.6266 0.0
H417 H 0.24336 0.47905 0.74235 0.0
H418 H 0.15663 0.51707 0.71997 0.0
H419 H 0.12452 0.55093 0.69811 0.0
H420 H 0.15828 0.6094 0.76955 0.0
H421 H 0.19085 0.57596 0.7915 0.0
C422 C 0.19134 0.45558 0.89963 0.0
C423 C 0.19639 0.47311 0.92834 0.0
C424 C 0.19724 0.4632 0.86463 0.0
C425 C 0.20807 0.48857 0.85761 0.0
C426 C 0.21326 0.50615 0.88619 0.0
C427 C 0.20774 0.49834 0.92142 0.0
C428 C 0.21225 0.49708 0.82012 0.0
C429 C 0.1961 0.51771 0.80664 0.0
C430 C 0.22952 0.48296 0.79676 0.0
C431 C 0.24737 0.46126 0.80988 0.0
C432 C 0.26497 0.46583 0.83869 0.0
C433 C 0.28152 0.44523 0.85118 0.0
C434 C 0.28077 0.41999 0.83494 0.0
C435 C 0.26351 0.41533 0.80612 0.0
C436 C 0.2469 0.43585 0.79355 0.0
C437 C 0.21461 0.5492 0.66002 0.0
C438 C 0.20932 0.5291 0.63463 0.0
C439 C 0.21751 0.54274 0.69612 0.0
C440 C 0.21433 0.51617 0.70769 0.0
C441 C 0.21047 0.49584 0.68207 0.0
C442 C 0.20815 0.50226 0.64572 0.0
C443 C 0.21332 0.50994 0.74654 0.0
C444 C 0.22988 0.48962 0.76023 0.0
C445 C 0.19601 0.52399 0.77009 0.0
C446 C 0.17636 0.5441 0.75708 0.0
C447 C 0.15732 0.5372 0.73084 0.0
C448 C 0.13903 0.55631 0.71846 0.0
C449 C 0.13941 0.58232 0.73236 0.0
C450 C 0.15804 0.58926 0.75876 0.0
C451 C 0.17641 0.57024 0.77119 0.0
H452 H 0.12523 0.59709 0.72275 0.0
H453 H 0.2936 0.40407 0.84466 0.0
H454 H 0.4944 0.23195 0.42994 0.0
H455 H 0.48375 0.2441 0.36777 0.0
H456 H 0.54724 0.19246 0.33044 0.0
H457 H 0.55795 0.18037 0.39198 0.0
H458 H 0.54711 0.24116 0.29587 0.0
H459 H 0.48315 0.17151 0.32884 0.0
H460 H 0.44682 0.15246 0.36562 0.0
H461 H 0.3966 0.21981 0.3405 0.0
H462 H 0.43279 0.23942 0.30391 0.0
H463 H 0.51879 0.20346 0.1176 0.0
H464 H 0.52985 0.21007 0.18069 0.0
H465 H 0.45508 0.25211 0.19629 0.0
H466 H 0.44344 0.2443 0.13357 0.0
H467 H 0.45882 0.21673 0.24419 0.0
H468 H 0.51952 0.28339 0.20361 0.0
H469 H 0.55539 0.30336 0.16694 0.0
H470 H 0.61121 0.24478 0.2062 0.0
H471 H 0.5756 0.22422 0.24273 0.0
C472 C 0.50604 0.22324 0.40842 0.0
C473 C 0.52689 0.2051 0.4158 0.0
C474 C 0.49997 0.2302 0.37298 0.0
C475 C 0.51471 0.21913 0.34451 0.0
C476 C 0.53572 0.20134 0.35198 0.0
C477 C 0.54168 0.19431 0.3872 0.0
C478 C 0.50792 0.22508 0.3067 0.0
C479 C 0.52784 0.23582 0.28441 0.0
C480 C 0.4825 0.21892 0.29213 0.0
C481 C 0.46076 0.20708 0.31403 0.0
C482 C 0.46444 0.18235 0.33141 0.0
C483 C 0.44386 0.17144 0.35217 0.0
C484 C 0.41945 0.18496 0.3555 0.0
C485 C 0.41554 0.20939 0.33797 0.0
C486 C 0.43606 0.22041 0.31721 0.0
C487 C 0.50505 0.21468 0.13431 0.0
C488 C 0.48023 0.22328 0.12081 0.0
C489 C 0.51142 0.21858 0.17041 0.0
C490 C 0.49338 0.23176 0.19341 0.0
C491 C 0.46929 0.24178 0.17924 0.0
C492 C 0.4627 0.23742 0.14336 0.0
C493 C 0.49824 0.23238 0.23274 0.0
C494 C 0.47795 0.22275 0.25545 0.0
C495 C 0.52327 0.23983 0.24768 0.0
C496 C 0.5448 0.25216 0.22576 0.0
C497 C 0.53939 0.27465 0.20424 0.0
C498 C 0.55969 0.28609 0.18351 0.0
C499 C 0.58555 0.27532 0.1842 0.0
C500 C 0.59117 0.25311 0.20569 0.0
C501 C 0.57094 0.24157 0.22646 0.0
H502 H 0.60123 0.28421 0.16812 0.0
H503 H 0.40354 0.17647 0.37157 0.0
H504 H 0.89127 0.56659 0.02109 0.0
H505 H 0.93817 0.55233 0.02235 0.0
H506 H 0.91329 0.46961 0.01581 0.0
H507 H 0.86634 0.48372 0.01521 0.0
H508 H 0.95079 0.47612 0.06612 0.0
H509 H 0.93983 0.50154 0.94342 0.0
H510 H 0.92718 0.53133 0.89356 0.0
H511 H 0.98478 0.58961 0.92897 0.0
H512 H 0.99749 0.56033 0.97939 0.0
H513 H 0.08133 0.42421 0.02874 0.0
H514 H 0.03374 0.43614 0.02541 0.0
H515 H 0.05429 0.5199 0.03452 0.0
H516 H 0.10179 0.50817 0.03744 0.0
H517 H 0.01865 0.51129 0.98129 0.0
H518 H 0.02843 0.48625 0.10508 0.0
H519 H 0.04091 0.45635 0.15492 0.0
H520 H 0.98543 0.39698 0.11683 0.0
H521 H 0.97288 0.4264 0.06645 0.0
C522 C 0.89582 0.54539 0.0197 0.0
C523 C 0.8752 0.52627 0.01799 0.0
C524 C 0.9226 0.53726 0.02031 0.0
C525 C 0.92921 0.50991 0.01883 0.0
C526 C 0.90862 0.49081 0.01697 0.0
C527 C 0.88184 0.49891 0.01651 0.0
C528 C 0.95758 0.50122 0.02008 0.0
C529 C 0.96556 0.48348 0.04723 0.0
C530 C 0.9769 0.51125 0.99585 0.0
C531 C 0.96944 0.52882 0.96538 0.0
C532 C 0.94966 0.52079 0.94074 0.0
C533 C 0.9425 0.53758 0.91234 0.0
C534 C 0.95513 0.56237 0.90814 0.0
C535 C 0.97499 0.5704 0.93228 0.0
C536 C 0.9822 0.55371 0.96075 0.0
C537 C 0.07565 0.44514 0.03024 0.0
C538 C 0.09522 0.46526 0.03339 0.0
C539 C 0.0485 0.45192 0.0284 0.0
C540 C 0.04053 0.4789 0.02992 0.0
C541 C 0.06005 0.49897 0.03323 0.0
C542 C 0.08715 0.49222 0.03504 0.0
C543 C 0.01186 0.48637 0.02747 0.0
C544 C 0.00384 0.50385 7e-05 0.0
C545 C 0.9925 0.47607 0.05141 0.0
C546 C -8e-05 0.45841 0.08179 0.0
C547 C 0.01905 0.46673 0.10717 0.0
C548 C 0.02611 0.44989 0.13555 0.0
C549 C 0.01403 0.42475 0.13898 0.0
C550 C 0.9948 0.41644 0.1141 0.0
C551 C 0.98769 0.4332 0.08565 0.0
H552 H 0.01952 0.41174 0.16097 0.0
H553 H 0.94955 0.57534 0.88615 0.0
H554 H 0.45649 0.88919 0.54256 0.0
H555 H 0.46547 0.9372 0.53754 0.0
H556 H 0.5485 0.92042 0.51415 0.0
H557 H 0.53976 0.87236 0.5199 0.0
H558 H 0.54418 0.95868 0.56347 0.0
H559 H 0.50471 0.94117 0.44853 0.0
H560 H 0.47022 0.92422 0.40693 0.0
H561 H 0.41208 0.97731 0.45339 0.0
H562 H 0.44614 0.99432 0.49562 0.0
H563 H 0.57883 0.09134 0.51275 0.0
H564 H 0.57069 0.04298 0.51287 0.0
H565 H 0.487 0.05701 0.53532 0.0
H566 H 0.4949 0.10537 0.53437 0.0
H567 H 0.49242 0.01992 0.48489 0.0
H568 H 0.53089 0.03627 0.60095 0.0
H569 H 0.56483 0.05306 0.64347 0.0
H570 H 0.62424 0.00204 0.59574 0.0
H571 H 0.59072 0.9852 0.55261 0.0
C572 C 0.47661 0.89573 0.53607 0.0
C573 C 0.49744 0.87708 0.53162 0.0
C574 C 0.48169 0.92316 0.53307 0.0
C575 C 0.5076 0.93236 0.52512 0.0
C576 C 0.52836 0.91372 0.52028 0.0
C577 C 0.52333 0.8863 0.52347 0.0
C578 C 0.51328 0.96147 0.52329 0.0
C579 C 0.53317 0.97202 0.54586 0.0
C580 C 0.49841 0.97893 0.501 0.0
C581 C 0.47793 0.96886 0.47544 0.0
C582 C 0.48453 0.9491 0.45005 0.0
C583 C 0.46506 0.9395 0.42633 0.0
C584 C 0.43896 0.94964 0.42757 0.0
C585 C 0.4323 0.96946 0.45248 0.0
C586 C 0.45168 0.9791 0.47629 0.0
C587 C 0.55872 0.08409 0.51781 0.0
C588 C 0.53751 0.10207 0.52367 0.0
C589 C 0.55411 0.05647 0.51797 0.0
C590 C 0.52829 0.0464 0.52449 0.0
C591 C 0.50707 0.06437 0.53022 0.0
C592 C 0.51163 0.09197 0.5298 0.0
C593 C 0.52329 0.01713 0.52512 0.0
C594 C 0.50352 0.00656 0.50237 0.0
C595 C 0.5382 -0.00035 0.54733 0.0
C596 C 0.55836 0.00968 0.57333 0.0
C597 C 0.55124 0.02878 0.59935 0.0
C598 C 0.57039 0.03828 0.62359 0.0
C599 C 0.59669 0.02868 0.62225 0.0
C600 C 0.60387 0.00949 0.59672 0.0
C601 C 0.5848 -5e-05 0.57239 0.0
H602 H 0.61149 0.03606 0.64104 0.0
H603 H 0.42392 0.94218 0.40919 0.0
H604 H 0.11098 0.49599 0.5292 0.0
H605 H 0.06296 0.48694 0.53014 0.0
H606 H 0.04687 0.57132 0.54362 0.0
H607 H 0.09524 0.58063 0.54274 0.0
H608 H 0.01642 0.53773 0.58915 0.0
H609 H 0.03755 0.54581 0.46448 0.0
H610 H 0.06311 0.5365 0.40941 0.0
H611 H 0.04233 0.45314 0.41643 0.0
H612 H 0.01696 0.46188 0.47188 0.0
H613 H 0.87705 0.5242 0.54871 0.0
H614 H 0.92407 0.53799 0.5508 0.0
H615 H 0.94849 0.45711 0.52583 0.0
H616 H 0.9015 0.4433 0.52305 0.0
H617 H 0.97427 0.49229 0.48511 0.0
H618 H 0.95517 0.48296 0.61038 0.0
H619 H 0.93047 0.49102 0.6665 0.0
H620 H 0.9479 0.57514 0.65952 0.0
H621 H 0.97241 0.56764 0.60305 0.0
C622 C 0.09727 0.51266 0.53242 0.0
C623 C 0.10681 0.53905 0.53571 0.0
C624 C 0.06985 0.50745 0.53287 0.0
C625 C 0.05145 0.5285 0.53657 0.0
C626 C 0.06085 0.55484 0.54065 0.0
C627 C 0.08839 0.56012 0.54001 0.0
C628 C 0.02241 0.52273 0.53571 0.0
C629 C 0.00701 0.52823 0.56622 0.0
C630 C 0.01046 0.50977 0.50603 0.0
C631 C 0.02553 0.50448 0.47251 0.0
C632 C 0.03859 0.52546 0.45444 0.0
C633 C 0.05302 0.52029 0.42313 0.0
C634 C 0.05439 0.49424 0.40947 0.0
C635 C 0.04127 0.47331 0.42706 0.0
C636 C 0.02684 0.47836 0.45841 0.0
C637 C 0.89246 0.50933 0.54389 0.0
C638 C 0.88566 0.48268 0.53568 0.0
C639 C 0.9193 0.51722 0.54523 0.0
C640 C 0.93976 0.49853 0.53873 0.0
C641 C 0.93298 0.47185 0.53089 0.0
C642 C 0.90616 0.46397 0.52941 0.0
C643 C 0.96823 0.50691 0.5388 0.0
C644 C 0.98354 0.50195 0.50803 0.0
C645 C 0.9801 0.52021 0.56833 0.0
C646 C 0.96537 0.52477 0.60227 0.0
C647 C 0.95353 0.50321 0.62064 0.0
C648 C 0.93961 0.50767 0.65255 0.0
C649 C 0.93755 0.53359 0.66651 0.0
C650 C 0.94947 0.55509 0.64864 0.0
C651 C 0.9634 0.55074 0.61669 0.0
H652 H 0.92677 0.537 0.69122 0.0
H653 H 0.06557 0.49028 0.38522 0.0
H654 H 0.55537 0.90368 0.04538 0.0
H655 H 0.54246 0.95085 0.04876 0.0
H656 H 0.46251 0.92799 0.08038 0.0
H657 H 0.47524 0.88064 0.07672 0.0
H658 H 0.46205 0.96503 0.02736 0.0
H659 H 0.50459 0.95491 0.14115 0.0
H660 H 0.5405 0.94174 0.18299 0.0
H661 H 0.59486 0.99606 0.13138 0.0
H662 H 0.55937 0.00929 0.08888 0.0
H663 H 0.42543 0.10106 0.05908 0.0
H664 H 0.43401 0.05326 0.06882 0.0
H665 H 0.51704 0.06478 0.04036 0.0
H666 H 0.50872 0.11253 0.03123 0.0
H667 H 0.51254 0.03279 0.09761 0.0
H668 H 0.472 0.03926 0.98049 0.0
H669 H 0.43682 0.05217 0.93738 0.0
H670 H 0.37942 0.00443 0.99444 0.0
H671 H 0.41422 0.99152 0.03818 0.0
C672 C 0.53509 0.90869 0.05331 0.0
C673 C 0.5163 0.88851 0.06081 0.0
C674 C 0.52778 0.93565 0.05539 0.0
C675 C 0.50161 0.94289 0.06518 0.0
C676 C 0.48283 0.92278 0.07288 0.0
C677 C 0.49014 0.89578 0.07086 0.0
C678 C 0.49366 0.97147 0.06578 0.0
C679 C 0.47273 0.97979 0.04327 0.0
C680 C 0.50798 0.99073 0.086 0.0
C681 C 0.52935 0.98294 0.11165 0.0
C682 C 0.52425 0.9639 0.13855 0.0
C683 C 0.54453 0.95645 0.16242 0.0
C684 C 0.56996 0.96802 0.1598 0.0
C685 C 0.57515 0.98711 0.13336 0.0
C686 C 0.55495 0.99462 0.10941 0.0
C687 C 0.44552 0.09338 0.05504 0.0
C688 C 0.46639 0.11044 0.04422 0.0
C689 C 0.45037 0.0661 0.06053 0.0
C690 C 0.4761 0.05546 0.05495 0.0
C691 C 0.49704 0.0726 0.04484 0.0
C692 C 0.49224 0.09984 0.03949 0.0
C693 C 0.48124 0.02637 0.05876 0.0
C694 C 0.50165 0.01796 0.08208 0.0
C695 C 0.46652 0.00703 0.03918 0.0
C696 C 0.44563 0.01468 0.01282 0.0
C697 C 0.45183 0.03169 0.984 0.0
C698 C 0.43197 0.03897 0.95943 0.0
C699 C 0.40588 0.02919 0.96324 0.0
C700 C 0.39962 0.01203 0.99157 0.0
C701 C 0.4194 0.00471 0.01624 0.0
H702 H 0.39053 0.03485 0.94419 0.0
H703 H 0.58563 0.96222 0.17831 0.0
H704 H 0.18306 0.34917 0.04017 0.0
H705 H 0.20779 0.3068 0.03341 0.0
H706 H 0.27463 0.35001 0.98834 0.0
H707 H 0.25034 0.39205 0.99517 0.0
H708 H 0.26258 0.30254 0.95146 0.0
H709 H 0.27473 0.3353 0.07459 0.0
H710 H 0.25778 0.34814 0.1342 0.0
H711 H 0.22268 0.27011 0.14679 0.0
H712 H 0.23917 0.25696 0.08698 0.0
H713 H 0.391 0.25976 0.98646 0.0
H714 H 0.347 0.28057 0.98177 0.0
H715 H 0.31083 0.21134 0.03124 0.0
H716 H 0.3552 0.19022 0.03611 0.0
H717 H 0.29522 0.25868 0.06243 0.0
H718 H 0.29656 0.2228 0.94568 0.0
H719 H 0.31542 0.21072 0.88689 0.0
H720 H 0.32567 0.29404 0.86164 0.0
H721 H 0.30728 0.30666 0.92049 0.0
C722 C 0.20295 0.34949 0.02859 0.0
C723 C 0.21493 0.37384 0.01845 0.0
C724 C 0.21698 0.32536 0.02471 0.0
C725 C 0.24296 0.32538 0.01034 0.0
C726 C 0.25451 0.3496 -0.00074 0.0
C727 C 0.2407 0.37361 0.00346 0.0
C728 C 0.25935 0.30077 0.00885 0.0
C729 C 0.2696 0.2927 0.97561 0.0
C730 C 0.26764 0.28739 0.04031 0.0
C731 C 0.25782 0.29529 0.07619 0.0
C732 C 0.26319 0.32098 0.08996 0.0
C733 C 0.25371 0.3283 0.12379 0.0
C734 C 0.23907 0.30999 0.14421 0.0
C735 C 0.23395 0.2843 0.13089 0.0
C736 C 0.24335 0.2769 0.09704 0.0
C737 C 0.37368 0.24881 0.99605 0.0
C738 C 0.37648 0.22343 0.01173 0.0
C739 C 0.34852 0.26063 0.99308 0.0
C740 C 0.32563 0.2473 0.00568 0.0
C741 C 0.32826 0.2218 0.02109 0.0
C742 C 0.35354 0.20982 0.02385 0.0
C743 C 0.29959 0.26143 0.00515 0.0
C744 C 0.28748 0.26757 0.03801 0.0
C745 C 0.28962 0.27306 0.9733 0.0
C746 C 0.30053 0.26567 0.93762 0.0
C747 C 0.30296 0.23856 0.92769 0.0
C748 C 0.31357 0.23161 0.89433 0.0
C749 C 0.32174 0.2516 0.87055 0.0
C750 C 0.31929 0.27858 0.88007 0.0
C751 C 0.30872 0.28564 0.91341 0.0
H752 H 0.32996 0.24617 0.84474 0.0
H753 H 0.23175 0.31568 0.1704 0.0
H754 H 0.7396 0.39738 0.48526 0.0
H755 H 0.71753 0.35397 0.48946 0.0
H756 H 0.7897 0.31902 0.53262 0.0
H757 H 0.81216 0.36285 0.52879 0.0
H758 H 0.75023 0.28809 0.47337 0.0
H759 H 0.75845 0.32498 0.59279 0.0
H760 H 0.75862 0.3623 0.63616 0.0
H761 H 0.67721 0.38117 0.60855 0.0
H762 H 0.67673 0.34427 0.5645 0.0
H763 H 0.64819 0.19021 0.52376 0.0
H764 H 0.69018 0.21597 0.52624 0.0
H765 H 0.64519 0.2895 0.51644 0.0
H766 H 0.60355 0.26417 0.51411 0.0
H767 H 0.68231 0.29169 0.57027 0.0
H768 H 0.67661 0.2626 0.44526 0.0
H769 H 0.67496 0.2283 0.39768 0.0
H770 H 0.75018 0.19616 0.43368 0.0
H771 H 0.75208 0.23012 0.48176 0.0
C772 C 0.75103 0.3804 0.49498 0.0
C773 C 0.77747 0.38352 0.50715 0.0
C774 C 0.73841 0.35562 0.49723 0.0
C775 C 0.75201 0.33355 0.51158 0.0
C776 C 0.77902 0.33596 0.52142 0.0
C777 C 0.79174 0.36094 0.51927 0.0
C778 C 0.73639 0.30936 0.51998 0.0
C779 C 0.73594 0.28823 0.49525 0.0
C780 C 0.71763 0.31 0.54825 0.0
C781 C 0.71763 0.33194 0.57519 0.0
C782 C 0.74066 0.33722 0.59576 0.0
C783 C 0.7408 0.35828 0.6205 0.0
C784 C 0.71795 0.37412 0.62508 0.0
C785 C 0.69489 0.36888 0.60498 0.0
C786 C 0.69467 0.34787 0.58015 0.0
C787 C 0.64737 0.21187 0.52209 0.0
C788 C 0.62265 0.22523 0.51876 0.0
C789 C 0.6713 0.22649 0.52351 0.0
C790 C 0.6707 0.25459 0.52166 0.0
C791 C 0.64603 0.26782 0.51821 0.0
C792 C 0.62226 0.25331 0.5167 0.0
C793 C 0.69546 0.27078 0.52293 0.0
C794 C 0.69741 0.29063 0.54942 0.0
C795 C 0.71547 0.26894 0.49623 0.0
C796 C 0.7143 0.24861 0.46736 0.0
C797 C 0.69267 0.24806 0.44321 0.0
C798 C 0.69171 0.22872 0.41612 0.0
C799 C 0.7124 0.21 0.41274 0.0
C800 C 0.73413 0.21063 0.43638 0.0
C801 C 0.73516 0.22991 0.46355 0.0
H802 H 0.71163 0.19505 0.39175 0.0
H803 H 0.7181 0.39042 0.64425 0.0
H804 H 0.79804 0.64827 0.02225 0.0
H805 H 0.77653 0.692 0.01172 0.0
H806 H 0.70128 0.65212 0.99156 0.0
H807 H 0.72229 0.60881 0.00253 0.0
H808 H 0.71486 0.69347 0.94073 0.0
H809 H 0.71153 0.67603 0.07093 0.0
H810 H 0.73329 0.66854 0.12942 0.0
H811 H 0.77617 0.74275 0.11868 0.0
H812 H 0.75486 0.75048 0.05987 0.0
H813 H 0.59338 0.74509 0.98771 0.0
H814 H 0.63618 0.72428 0.97456 0.0
H815 H 0.67754 0.79416 0.01479 0.0
H816 H 0.63419 0.81505 0.02887 0.0
H817 H 0.69577 0.75106 0.04597 0.0
H818 H 0.68452 0.77484 0.92561 0.0
H819 H 0.66172 0.78232 0.86792 0.0
H820 H 0.6467 0.69791 0.85806 0.0
H821 H 0.66895 0.6899 0.91597 0.0
C822 C 0.77692 0.64895 0.01554 0.0
C823 C 0.76175 0.62524 0.01346 0.0
C824 C 0.76476 0.67383 0.0094 0.0
C825 C 0.73743 0.67514 0.0006 0.0
C826 C 0.72246 0.65144 0.99797 0.0
C827 C 0.73444 0.62675 0.00459 0.0
C828 C 0.72338 0.70097 0.99628 0.0
C829 C 0.71079 0.70635 0.96349 0.0
C830 C 0.71919 0.71832 0.02563 0.0
C831 C 0.73194 0.71363 0.06087 0.0
C832 C 0.72579 0.69061 0.08092 0.0
C833 C 0.73799 0.68635 0.11414 0.0
C834 C 0.75619 0.7051 0.12769 0.0
C835 C 0.76214 0.7282 0.1081 0.0
C836 C 0.75002 0.73253 0.07483 0.0
C837 C 0.61154 0.75627 0.99323 0.0
C838 C 0.61052 0.78151 0.00975 0.0
C839 C 0.63608 0.74448 0.98525 0.0
C840 C 0.66016 0.75778 0.99326 0.0
C841 C 0.6592 0.78363 0.00817 0.0
C842 C 0.63449 0.79552 0.01619 0.0
C843 C 0.68568 0.74268 0.99087 0.0
C844 C 0.70057 0.73921 0.02246 0.0
C845 C 0.69204 0.72719 0.96025 0.0
C846 C 0.67856 0.73177 0.92522 0.0
C847 C 0.67627 0.75786 0.91125 0.0
C848 C 0.66346 0.76219 0.87846 0.0
C849 C 0.65292 0.74059 0.85924 0.0
C850 C 0.65506 0.71461 0.87285 0.0
C851 C 0.66781 0.71015 0.90566 0.0
H852 H 0.64293 0.744 0.83391 0.0
H853 H 0.7656 0.70178 0.15342 0.0
H854 H 0.3858 0.79968 0.53864 0.0
H855 H 0.34248 0.77707 0.52949 0.0
H856 H 0.37931 0.70112 0.55443 0.0
H857 H 0.4222 0.72333 0.56407 0.0
H858 H 0.35022 0.70467 0.48628 0.0
H859 H 0.34289 0.7266 0.61407 0.0
H860 H 0.3408 0.75878 0.66414 0.0
H861 H 0.27216 0.79655 0.61638 0.0
H862 H 0.27414 0.76481 0.5657 0.0
H863 H 0.27355 0.59674 0.53178 0.0
H864 H 0.30314 0.63536 0.53018 0.0
H865 H 0.23496 0.68804 0.51958 0.0
H866 H 0.2048 0.64903 0.52186 0.0
H867 H 0.27201 0.70694 0.56821 0.0
H868 H 0.27321 0.67799 0.44762 0.0
H869 H 0.27507 0.64558 0.3978 0.0
H870 H 0.35447 0.62221 0.42946 0.0
H871 H 0.35296 0.65414 0.47981 0.0
C872 C 0.38448 0.77821 0.54263 0.0
C873 C 0.40734 0.7632 0.55191 0.0
C874 C 0.35982 0.7654 0.53735 0.0
C875 C 0.35794 0.73749 0.54101 0.0
C876 C 0.38054 0.72268 0.55126 0.0
C877 C 0.40497 0.73542 0.5569 0.0
C878 C 0.33291 0.72302 0.53299 0.0
C879 C 0.33299 0.70521 0.50398 0.0
C880 C 0.31013 0.72472 0.55529 0.0
C881 C 0.30889 0.7436 0.58587 0.0
C882 C 0.32753 0.74194 0.61406 0.0
C883 C 0.32632 0.76006 0.64259 0.0
C884 C 0.30641 0.77976 0.64338 0.0
C885 C 0.28761 0.78132 0.61569 0.0
C886 C 0.28876 0.76328 0.58706 0.0
C887 C 0.26475 0.61649 0.52899 0.0
C888 C 0.23688 0.61989 0.5267 0.0
C889 C 0.28172 0.63856 0.52791 0.0
C890 C 0.27125 0.66449 0.52402 0.0
C891 C 0.24338 0.66812 0.52228 0.0
C892 C 0.22625 0.64589 0.52352 0.0
C893 C 0.28997 0.68743 0.5226 0.0
C894 C 0.28872 0.70695 0.54966 0.0
C895 C 0.31169 0.68747 0.49827 0.0
C896 C 0.31294 0.6685 0.46758 0.0
C897 C 0.29104 0.66587 0.44406 0.0
C898 C 0.29203 0.64757 0.41572 0.0
C899 C 0.31487 0.63185 0.41048 0.0
C900 C 0.3368 0.63444 0.43352 0.0
C901 C 0.33591 0.65268 0.46193 0.0
H902 H 0.31559 0.61767 0.38857 0.0
H903 H 0.30551 0.79376 0.66549 0.0
loop_
_geom_bond_atom_site_label_1
_geom_bond_atom_site_label_2
_geom_bond_distance
_geom_bond_site_symmetry_2
_ccdc_geom_bond_type
In0 O1 2.294 . S
In0 O2 2.326 . S
In0 O6 2.266 1_554 S
In0 O7 2.326 1_554 S
In0 O8 2.266 . S
In0 O9 2.326 . S
In0 O11 2.294 . S
In0 O12 2.326 . S
O1 In0 2.294 . S
O1 C10 1.240 . S
O2 In0 2.326 . S
O2 C10 1.252 . S
C3 O6 1.252 . S
C3 O7 1.260 . S
C4 O11 1.240 . S
C4 O12 1.252 . S
C5 O8 1.252 . S
C5 O9 1.260 . S
O6 In0 2.266 1_556 S
O6 C3 1.252 . S
O7 In0 2.326 1_556 S
O7 C3 1.260 . S
O8 In0 2.266 . S
O8 C5 1.252 . S
O9 In0 2.326 . S
O9 C5 1.260 . S
C10 O1 1.240 . S
C10 O2 1.252 . S
O11 In0 2.294 . S
O11 C4 1.240 . S
O12 In0 2.326 . S
O12 C4 1.252 . S
In13 O14 2.294 . S
In13 O15 2.326 . S
In13 O19 2.266 . S
In13 O20 2.326 . S
In13 O21 2.266 . S
In13 O22 2.326 . S
In13 O24 2.294 . S
In13 O25 2.326 . S
O14 In13 2.294 . S
O14 C23 1.240 . S
O15 In13 2.326 . S
O15 C23 1.252 . S
C16 O19 1.252 . S
C16 O20 1.260 . S
C17 O24 1.240 . S
C17 O25 1.252 . S
C18 O21 1.252 . S
C18 O22 1.260 . S
O19 In13 2.266 . S
O19 C16 1.252 . S
O20 In13 2.326 . S
O20 C16 1.260 . S
O21 In13 2.266 . S
O21 C18 1.252 . S
O22 In13 2.326 . S
O22 C18 1.260 . S
C23 O14 1.240 . S
C23 O15 1.252 . S
O24 In13 2.294 . S
O24 C17 1.240 . S
O25 In13 2.326 . S
O25 C17 1.252 . S
In26 O27 2.294 . S
In26 O28 2.326 . S
In26 O32 2.266 1_554 S
In26 O33 2.326 1_554 S
In26 O34 2.266 . S
In26 O35 2.326 . S
In26 O37 2.294 . S
In26 O38 2.326 . S
O27 In26 2.294 . S
O27 C36 1.240 . S
O28 In26 2.326 . S
O28 C36 1.252 . S
C29 O32 1.252 . S
C29 O33 1.260 . S
C30 O37 1.240 . S
C30 O38 1.252 . S
C31 O34 1.252 . S
C31 O35 1.260 . S
O32 In26 2.266 1_556 S
O32 C29 1.252 . S
O33 In26 2.326 1_556 S
O33 C29 1.260 . S
O34 In26 2.266 . S
O34 C31 1.252 . S
O35 In26 2.326 . S
O35 C31 1.260 . S
C36 O27 1.240 . S
C36 O28 1.252 . S
O37 In26 2.294 . S
O37 C30 1.240 . S
O38 In26 2.326 . S
O38 C30 1.252 . S
In39 O40 2.294 . S
In39 O41 2.326 . S
In39 O45 2.266 . S
In39 O46 2.326 . S
In39 O47 2.266 . S
In39 O48 2.326 . S
In39 O50 2.294 . S
In39 O51 2.326 . S
O40 In39 2.294 . S
O40 C49 1.240 . S
O41 In39 2.326 . S
O41 C49 1.252 . S
C42 O45 1.252 . S
C42 O46 1.260 . S
C43 O50 1.240 . S
C43 O51 1.252 . S
C44 O47 1.252 . S
C44 O48 1.260 . S
O45 In39 2.266 . S
O45 C42 1.252 . S
O46 In39 2.326 . S
O46 C42 1.260 . S
O47 In39 2.266 . S
O47 C44 1.252 . S
O48 In39 2.326 . S
O48 C44 1.260 . S
C49 O40 1.240 . S
C49 O41 1.252 . S
O50 In39 2.294 . S
O50 C43 1.240 . S
O51 In39 2.326 . S
O51 C43 1.252 . S
In52 O53 2.294 . S
In52 O54 2.326 . S
In52 O58 2.266 . S
In52 O59 2.326 . S
In52 O60 2.266 . S
In52 O61 2.326 . S
In52 O63 2.294 . S
In52 O64 2.326 . S
O53 In52 2.294 . S
O53 C62 1.240 . S
O54 In52 2.326 . S
O54 C62 1.252 . S
C55 O58 1.252 . S
C55 O59 1.260 . S
C56 O63 1.240 . S
C56 O64 1.252 . S
C57 O60 1.252 . S
C57 O61 1.260 . S
O58 In52 2.266 . S
O58 C55 1.252 . S
O59 In52 2.326 . S
O59 C55 1.260 . S
O60 In52 2.266 . S
O60 C57 1.252 . S
O61 In52 2.326 . S
O61 C57 1.260 . S
C62 O53 1.240 . S
C62 O54 1.252 . S
O63 In52 2.294 . S
O63 C56 1.240 . S
O64 In52 2.326 . S
O64 C56 1.252 . S
In65 O66 2.294 . S
In65 O67 2.326 . S
In65 O71 2.266 . S
In65 O72 2.326 . S
In65 O73 2.266 . S
In65 O74 2.326 . S
In65 O76 2.294 . S
In65 O77 2.326 1_554 S
O66 In65 2.294 . S
O66 C75 1.240 . S
O67 In65 2.326 . S
O67 C75 1.252 . S
C68 O71 1.252 . S
C68 O72 1.260 . S
C69 O76 1.240 1_556 S
C69 O77 1.252 . S
C70 O73 1.252 . S
C70 O74 1.260 . S
O71 In65 2.266 . S
O71 C68 1.252 . S
O72 In65 2.326 . S
O72 C68 1.260 . S
O73 In65 2.266 . S
O73 C70 1.252 . S
O74 In65 2.326 . S
O74 C70 1.260 . S
C75 O66 1.240 . S
C75 O67 1.252 . S
O76 In65 2.294 . S
O76 C69 1.240 1_554 S
O77 In65 2.326 1_556 S
O77 C69 1.252 . S
In78 O79 2.294 . S
In78 O80 2.326 . S
In78 O84 2.266 . S
In78 O85 2.326 . S
In78 O86 2.266 . S
In78 O87 2.326 . S
In78 O89 2.294 . S
In78 O90 2.326 . S
O79 In78 2.294 . S
O79 C88 1.240 . S
O80 In78 2.326 . S
O80 C88 1.252 . S
C81 O84 1.252 . S
C81 O85 1.260 . S
C82 O89 1.240 . S
C82 O90 1.252 . S
C83 O86 1.252 . S
C83 O87 1.260 . S
O84 In78 2.266 . S
O84 C81 1.252 . S
O85 In78 2.326 . S
O85 C81 1.260 . S
O86 In78 2.266 . S
O86 C83 1.252 . S
O87 In78 2.326 . S
O87 C83 1.260 . S
C88 O79 1.240 . S
C88 O80 1.252 . S
O89 In78 2.294 . S
O89 C82 1.240 . S
O90 In78 2.326 . S
O90 C82 1.252 . S
In91 O92 2.294 . S
In91 O93 2.326 . S
In91 O97 2.266 . S
In91 O98 2.326 . S
In91 O99 2.266 . S
In91 O100 2.326 . S
In91 O102 2.294 . S
In91 O103 2.326 1_554 S
O92 In91 2.294 . S
O92 C101 1.240 . S
O93 In91 2.326 . S
O93 C101 1.252 . S
C94 O97 1.252 . S
C94 O98 1.260 . S
C95 O102 1.240 1_556 S
C95 O103 1.252 . S
C96 O99 1.252 . S
C96 O100 1.260 . S
O97 In91 2.266 . S
O97 C94 1.252 . S
O98 In91 2.326 . S
O98 C94 1.260 . S
O99 In91 2.266 . S
O99 C96 1.252 . S
O100 In91 2.326 . S
O100 C96 1.260 . S
C101 O92 1.240 . S
C101 O93 1.252 . S
O102 In91 2.294 . S
O102 C95 1.240 1_554 S
O103 In91 2.326 1_556 S
O103 C95 1.252 . S
H104 C122 0.951 . S
H105 C124 0.951 . S
H106 C126 0.950 . S
H107 C127 0.950 . S
H108 C129 0.950 . S
H109 C132 0.950 . S
H110 C133 0.950 . S
H111 C135 0.950 . S
H112 C136 0.950 . S
H113 C137 0.951 . S
H114 C139 0.951 . S
H115 C141 0.950 . S
H116 C142 0.950 . S
H117 C144 0.950 . S
H118 C147 0.950 . S
H119 C148 0.950 . S
H120 C150 0.950 . S
H121 C151 0.950 . S
C122 H104 0.951 . S
C122 C123 1.366 . S
C122 C124 1.388 . S
C123 C122 1.366 . S
C123 C127 1.385 . S
C124 H105 0.951 . S
C124 C122 1.388 . S
C124 C125 1.366 . S
C125 C124 1.366 . S
C125 C126 1.414 . S
C125 C128 1.499 . S
C126 H106 0.950 . S
C126 C125 1.414 . S
C126 C127 1.374 . S
C127 H107 0.950 . S
C127 C123 1.385 . S
C127 C126 1.374 . S
C128 C125 1.499 . S
C128 C129 1.373 . S
C128 C130 1.389 . S
C129 H108 0.950 . S
C129 C128 1.373 . S
C129 C145 1.377 . S
C130 C128 1.389 . S
C130 C131 1.524 . S
C130 C144 1.377 . S
C131 C130 1.524 . S
C131 C132 1.397 . S
C131 C136 1.363 . S
C132 H109 0.950 . S
C132 C131 1.397 . S
C132 C133 1.334 . S
C133 H110 0.950 . S
C133 C132 1.334 . S
C133 C134 1.287 . S
C134 C133 1.287 . S
C134 C135 1.524 . S
C134 H153 0.913 . S
C135 H111 0.950 . S
C135 C134 1.524 . S
C135 C136 1.415 . S
C136 H112 0.950 . S
C136 C131 1.363 . S
C136 C135 1.415 . S
C137 H113 0.951 . S
C137 C138 1.366 . S
C137 C139 1.388 . S
C138 C137 1.366 . S
C138 C142 1.385 . S
C139 H114 0.951 . S
C139 C137 1.388 . S
C139 C140 1.366 . S
C140 C139 1.366 . S
C140 C141 1.414 . S
C140 C143 1.499 . S
C141 H115 0.950 . S
C141 C140 1.414 . S
C141 C142 1.374 . S
C142 H116 0.950 . S
C142 C138 1.385 . S
C142 C141 1.374 . S
C143 C140 1.499 . S
C143 C144 1.373 . S
C143 C145 1.389 . S
C144 H117 0.950 . S
C144 C130 1.377 . S
C144 C143 1.373 . S
C145 C129 1.377 . S
C145 C143 1.389 . S
C145 C146 1.524 . S
C146 C145 1.524 . S
C146 C147 1.397 . S
C146 C151 1.363 . S
C147 H118 0.950 . S
C147 C146 1.397 . S
C147 C148 1.334 . S
C148 H119 0.950 . S
C148 C147 1.334 . S
C148 C149 1.287 . S
C149 C148 1.287 . S
C149 C150 1.524 . S
C149 H152 0.999 . S
C150 H120 0.950 . S
C150 C149 1.524 . S
C150 C151 1.415 . S
C151 H121 0.950 . S
C151 C146 1.363 . S
C151 C150 1.415 . S
H152 C149 0.999 . S
H153 C134 0.913 . S
H154 C172 0.951 . S
H155 C174 0.951 . S
H156 C176 0.950 . S
H157 C177 0.950 . S
H158 C179 0.950 . S
H159 C182 0.950 . S
H160 C183 0.950 . S
H161 C185 0.950 . S
H162 C186 0.950 . S
H163 C187 0.951 . S
H164 C189 0.951 . S
H165 C191 0.950 . S
H166 C192 0.950 . S
H167 C194 0.950 . S
H168 C197 0.950 . S
H169 C198 0.950 . S
H170 C200 0.950 . S
H171 C201 0.950 . S
C172 H154 0.951 . S
C172 C173 1.366 . S
C172 C174 1.388 . S
C173 C172 1.366 . S
C173 C177 1.385 . S
C174 H155 0.951 . S
C174 C172 1.388 . S
C174 C175 1.366 . S
C175 C174 1.366 . S
C175 C176 1.414 . S
C175 C178 1.499 . S
C176 H156 0.950 . S
C176 C175 1.414 . S
C176 C177 1.374 . S
C177 H157 0.950 . S
C177 C173 1.385 . S
C177 C176 1.374 . S
C178 C175 1.499 . S
C178 C179 1.373 . S
C178 C180 1.389 . S
C179 H158 0.950 . S
C179 C178 1.373 . S
C179 C195 1.377 . S
C180 C178 1.389 . S
C180 C181 1.524 . S
C180 C194 1.377 . S
C181 C180 1.524 . S
C181 C182 1.397 . S
C181 C186 1.363 . S
C182 H159 0.950 . S
C182 C181 1.397 . S
C182 C183 1.334 . S
C183 H160 0.950 . S
C183 C182 1.334 . S
C183 C184 1.287 . S
C184 C183 1.287 . S
C184 C185 1.524 . S
C184 H203 0.913 . S
C185 H161 0.950 . S
C185 C184 1.524 . S
C185 C186 1.415 . S
C186 H162 0.950 . S
C186 C181 1.363 . S
C186 C185 1.415 . S
C187 H163 0.951 . S
C187 C188 1.366 . S
C187 C189 1.388 . S
C188 C187 1.366 . S
C188 C192 1.385 . S
C189 H164 0.951 . S
C189 C187 1.388 . S
C189 C190 1.366 . S
C190 C189 1.366 . S
C190 C191 1.414 . S
C190 C193 1.499 . S
C191 H165 0.950 . S
C191 C190 1.414 . S
C191 C192 1.374 . S
C192 H166 0.950 . S
C192 C188 1.385 . S
C192 C191 1.374 . S
C193 C190 1.499 . S
C193 C194 1.373 . S
C193 C195 1.389 . S
C194 H167 0.950 . S
C194 C180 1.377 . S
C194 C193 1.373 . S
C195 C179 1.377 . S
C195 C193 1.389 . S
C195 C196 1.524 . S
C196 C195 1.524 . S
C196 C197 1.397 . S
C196 C201 1.363 . S
C197 H168 0.950 . S
C197 C196 1.397 . S
C197 C198 1.334 . S
C198 H169 0.950 . S
C198 C197 1.334 . S
C198 C199 1.287 . S
C199 C198 1.287 . S
C199 C200 1.524 . S
C199 H202 0.999 . S
C200 H170 0.950 . S
C200 C199 1.524 . S
C200 C201 1.415 . S
C201 H171 0.950 . S
C201 C196 1.363 . S
C201 C200 1.415 . S
H202 C199 0.999 . S
H203 C184 0.913 . S
H204 C222 0.951 . S
H205 C224 0.951 . S
H206 C226 0.950 . S
H207 C227 0.950 . S
H208 C229 0.950 . S
H209 C232 0.950 . S
H210 C233 0.950 . S
H211 C235 0.950 . S
H212 C236 0.950 . S
H213 C237 0.951 . S
H214 C239 0.951 . S
H215 C241 0.950 . S
H216 C242 0.950 . S
H217 C244 0.950 . S
H218 C247 0.950 . S
H219 C248 0.950 . S
H220 C250 0.950 . S
H221 C251 0.950 . S
C222 H204 0.951 . S
C222 C223 1.366 . S
C222 C224 1.388 . S
C223 C222 1.366 . S
C223 C227 1.385 . S
C224 H205 0.951 . S
C224 C222 1.388 . S
C224 C225 1.366 . S
C225 C224 1.366 . S
C225 C226 1.414 . S
C225 C228 1.499 . S
C226 H206 0.950 . S
C226 C225 1.414 . S
C226 C227 1.374 . S
C227 H207 0.950 . S
C227 C223 1.385 . S
C227 C226 1.374 . S
C228 C225 1.499 . S
C228 C229 1.373 . S
C228 C230 1.389 . S
C229 H208 0.950 . S
C229 C228 1.373 . S
C229 C245 1.377 . S
C230 C228 1.389 . S
C230 C231 1.524 . S
C230 C244 1.377 . S
C231 C230 1.524 . S
C231 C232 1.397 . S
C231 C236 1.363 . S
C232 H209 0.950 . S
C232 C231 1.397 . S
C232 C233 1.334 . S
C233 H210 0.950 . S
C233 C232 1.334 . S
C233 C234 1.287 . S
C234 C233 1.287 . S
C234 C235 1.524 . S
C234 H253 0.913 . S
C235 H211 0.950 . S
C235 C234 1.524 . S
C235 C236 1.415 . S
C236 H212 0.950 . S
C236 C231 1.363 . S
C236 C235 1.415 . S
C237 H213 0.951 . S
C237 C238 1.366 . S
C237 C239 1.388 . S
C238 C237 1.366 . S
C238 C242 1.385 . S
C239 H214 0.951 . S
C239 C237 1.388 . S
C239 C240 1.366 . S
C240 C239 1.366 . S
C240 C241 1.414 . S
C240 C243 1.499 . S
C241 H215 0.950 . S
C241 C240 1.414 . S
C241 C242 1.374 . S
C242 H216 0.950 . S
C242 C238 1.385 . S
C242 C241 1.374 . S
C243 C240 1.499 . S
C243 C244 1.373 . S
C243 C245 1.389 . S
C244 H217 0.950 . S
C244 C230 1.377 . S
C244 C243 1.373 . S
C245 C229 1.377 . S
C245 C243 1.389 . S
C245 C246 1.524 . S
C246 C245 1.524 . S
C246 C247 1.397 . S
C246 C251 1.363 . S
C247 H218 0.950 . S
C247 C246 1.397 . S
C247 C248 1.334 . S
C248 H219 0.950 . S
C248 C247 1.334 . S
C248 C249 1.287 . S
C249 C248 1.287 . S
C249 C250 1.524 . S
C249 H252 0.999 . S
C250 H220 0.950 . S
C250 C249 1.524 . S
C250 C251 1.415 . S
C251 H221 0.950 . S
C251 C246 1.363 . S
C251 C250 1.415 . S
H252 C249 0.999 . S
H253 C234 0.913 . S
H254 C272 0.951 . S
H255 C274 0.951 . S
H256 C276 0.950 . S
H257 C277 0.950 . S
H258 C279 0.950 . S
H259 C282 0.950 . S
H260 C283 0.950 . S
H261 C285 0.950 . S
H262 C286 0.950 . S
H263 C287 0.951 . S
H264 C289 0.951 . S
H265 C291 0.950 . S
H266 C292 0.950 . S
H267 C294 0.950 . S
H268 C297 0.950 . S
H269 C298 0.950 . S
H270 C300 0.950 . S
H271 C301 0.950 . S
C272 H254 0.951 . S
C272 C273 1.366 . S
C272 C274 1.388 . S
C273 C272 1.366 . S
C273 C277 1.385 . S
C274 H255 0.951 . S
C274 C272 1.388 . S
C274 C275 1.366 . S
C275 C274 1.366 . S
C275 C276 1.414 . S
C275 C278 1.499 . S
C276 H256 0.950 . S
C276 C275 1.414 . S
C276 C277 1.374 . S
C277 H257 0.950 . S
C277 C273 1.385 . S
C277 C276 1.374 . S
C278 C275 1.499 . S
C278 C279 1.373 . S
C278 C280 1.389 . S
C279 H258 0.950 . S
C279 C278 1.373 . S
C279 C295 1.377 . S
C280 C278 1.389 . S
C280 C281 1.524 . S
C280 C294 1.377 . S
C281 C280 1.524 . S
C281 C282 1.397 . S
C281 C286 1.363 . S
C282 H259 0.950 . S
C282 C281 1.397 . S
C282 C283 1.334 . S
C283 H260 0.950 . S
C283 C282 1.334 . S
C283 C284 1.287 . S
C284 C283 1.287 . S
C284 C285 1.524 . S
C284 H303 0.913 . S
C285 H261 0.950 . S
C285 C284 1.524 . S
C285 C286 1.415 . S
C286 H262 0.950 . S
C286 C281 1.363 . S
C286 C285 1.415 . S
C287 H263 0.951 . S
C287 C288 1.366 . S
C287 C289 1.388 . S
C288 C287 1.366 . S
C288 C292 1.385 . S
C289 H264 0.951 . S
C289 C287 1.388 . S
C289 C290 1.366 . S
C290 C289 1.366 . S
C290 C291 1.414 . S
C290 C293 1.499 . S
C291 H265 0.950 . S
C291 C290 1.414 . S
C291 C292 1.374 . S
C292 H266 0.950 . S
C292 C288 1.385 . S
C292 C291 1.374 . S
C293 C290 1.499 . S
C293 C294 1.373 . S
C293 C295 1.389 . S
C294 H267 0.950 . S
C294 C280 1.377 . S
C294 C293 1.373 . S
C295 C279 1.377 . S
C295 C293 1.389 . S
C295 C296 1.524 . S
C296 C295 1.524 . S
C296 C297 1.397 . S
C296 C301 1.363 . S
C297 H268 0.950 . S
C297 C296 1.397 . S
C297 C298 1.334 . S
C298 H269 0.950 . S
C298 C297 1.334 . S
C298 C299 1.287 . S
C299 C298 1.287 . S
C299 C300 1.524 . S
C299 H302 0.999 . S
C300 H270 0.950 . S
C300 C299 1.524 . S
C300 C301 1.415 . S
C301 H271 0.950 . S
C301 C296 1.363 . S
C301 C300 1.415 . S
H302 C299 0.999 . S
H303 C284 0.913 . S
H304 C322 0.951 . S
H305 C324 0.951 . S
H306 C326 0.950 . S
H307 C327 0.950 . S
H308 C329 0.950 . S
H309 C332 0.950 . S
H310 C333 0.950 . S
H311 C335 0.950 . S
H312 C336 0.950 . S
H313 C337 0.951 . S
H314 C339 0.951 . S
H315 C341 0.950 . S
H316 C342 0.950 . S
H317 C344 0.950 . S
H318 C347 0.950 . S
H319 C348 0.950 . S
H320 C350 0.950 . S
H321 C351 0.950 . S
C322 H304 0.951 . S
C322 C323 1.366 . S
C322 C324 1.388 . S
C323 C322 1.366 . S
C323 C327 1.385 . S
C324 H305 0.951 . S
C324 C322 1.388 . S
C324 C325 1.366 . S
C325 C324 1.366 . S
C325 C326 1.414 . S
C325 C328 1.499 . S
C326 H306 0.950 . S
C326 C325 1.414 . S
C326 C327 1.374 . S
C327 H307 0.950 . S
C327 C323 1.385 . S
C327 C326 1.374 . S
C328 C325 1.499 . S
C328 C329 1.373 . S
C328 C330 1.389 . S
C329 H308 0.950 . S
C329 C328 1.373 . S
C329 C345 1.377 . S
C330 C328 1.389 . S
C330 C331 1.524 . S
C330 C344 1.377 . S
C331 C330 1.524 . S
C331 C332 1.397 . S
C331 C336 1.363 . S
C332 H309 0.950 . S
C332 C331 1.397 . S
C332 C333 1.334 . S
C333 H310 0.950 . S
C333 C332 1.334 . S
C333 C334 1.287 . S
C334 C333 1.287 . S
C334 C335 1.524 . S
C334 H353 0.913 . S
C335 H311 0.950 . S
C335 C334 1.524 . S
C335 C336 1.415 . S
C336 H312 0.950 . S
C336 C331 1.363 . S
C336 C335 1.415 . S
C337 H313 0.951 . S
C337 C338 1.366 . S
C337 C339 1.388 . S
C338 C337 1.366 . S
C338 C342 1.385 . S
C339 H314 0.951 . S
C339 C337 1.388 . S
C339 C340 1.366 . S
C340 C339 1.366 . S
C340 C341 1.414 . S
C340 C343 1.499 . S
C341 H315 0.950 . S
C341 C340 1.414 . S
C341 C342 1.374 . S
C342 H316 0.950 . S
C342 C338 1.385 . S
C342 C341 1.374 . S
C343 C340 1.499 . S
C343 C344 1.373 . S
C343 C345 1.389 . S
C344 H317 0.950 . S
C344 C330 1.377 . S
C344 C343 1.373 . S
C345 C329 1.377 . S
C345 C343 1.389 . S
C345 C346 1.524 . S
C346 C345 1.524 . S
C346 C347 1.397 . S
C346 C351 1.363 . S
C347 H318 0.950 . S
C347 C346 1.397 . S
C347 C348 1.334 . S
C348 H319 0.950 . S
C348 C347 1.334 . S
C348 C349 1.287 . S
C349 C348 1.287 . S
C349 C350 1.524 . S
C349 H352 0.999 . S
C350 H320 0.950 . S
C350 C349 1.524 . S
C350 C351 1.415 . S
C351 H321 0.950 . S
C351 C346 1.363 . S
C351 C350 1.415 . S
H352 C349 0.999 . S
H353 C334 0.913 . S
H354 C372 0.951 . S
H355 C374 0.951 . S
H356 C376 0.950 . S
H357 C377 0.950 . S
H358 C379 0.950 . S
H359 C382 0.950 . S
H360 C383 0.950 . S
H361 C385 0.950 . S
H362 C386 0.950 . S
H363 C387 0.951 . S
H364 C389 0.951 . S
H365 C391 0.950 . S
H366 C392 0.950 . S
H367 C394 0.950 . S
H368 C397 0.950 . S
H369 C398 0.950 . S
H370 C400 0.950 . S
H371 C401 0.950 . S
C372 H354 0.951 . S
C372 C373 1.366 . S
C372 C374 1.388 . S
C373 C372 1.366 . S
C373 C377 1.385 . S
C374 H355 0.951 . S
C374 C372 1.388 . S
C374 C375 1.366 . S
C375 C374 1.366 . S
C375 C376 1.414 . S
C375 C378 1.499 . S
C376 H356 0.950 . S
C376 C375 1.414 . S
C376 C377 1.374 . S
C377 H357 0.950 . S
C377 C373 1.385 . S
C377 C376 1.374 . S
C378 C375 1.499 . S
C378 C379 1.373 . S
C378 C380 1.389 . S
C379 H358 0.950 . S
C379 C378 1.373 . S
C379 C395 1.377 . S
C380 C378 1.389 . S
C380 C381 1.524 . S
C380 C394 1.377 . S
C381 C380 1.524 . S
C381 C382 1.397 . S
C381 C386 1.363 . S
C382 H359 0.950 . S
C382 C381 1.397 . S
C382 C383 1.334 . S
C383 H360 0.950 . S
C383 C382 1.334 . S
C383 C384 1.287 . S
C384 C383 1.287 . S
C384 C385 1.524 . S
C384 H403 0.913 . S
C385 H361 0.950 . S
C385 C384 1.524 . S
C385 C386 1.415 . S
C386 H362 0.950 . S
C386 C381 1.363 . S
C386 C385 1.415 . S
C387 H363 0.951 . S
C387 C388 1.366 . S
C387 C389 1.388 . S
C388 C387 1.366 . S
C388 C392 1.385 . S
C389 H364 0.951 . S
C389 C387 1.388 . S
C389 C390 1.366 . S
C390 C389 1.366 . S
C390 C391 1.414 . S
C390 C393 1.499 . S
C391 H365 0.950 . S
C391 C390 1.414 . S
C391 C392 1.374 . S
C392 H366 0.950 . S
C392 C388 1.385 . S
C392 C391 1.374 . S
C393 C390 1.499 . S
C393 C394 1.373 . S
C393 C395 1.389 . S
C394 H367 0.950 . S
C394 C380 1.377 . S
C394 C393 1.373 . S
C395 C379 1.377 . S
C395 C393 1.389 . S
C395 C396 1.524 . S
C396 C395 1.524 . S
C396 C397 1.397 . S
C396 C401 1.363 . S
C397 H368 0.950 . S
C397 C396 1.397 . S
C397 C398 1.334 . S
C398 H369 0.950 . S
C398 C397 1.334 . S
C398 C399 1.287 . S
C399 C398 1.287 . S
C399 C400 1.524 . S
C399 H402 0.999 . S
C400 H370 0.950 . S
C400 C399 1.524 . S
C400 C401 1.415 . S
C401 H371 0.950 . S
C401 C396 1.363 . S
C401 C400 1.415 . S
H402 C399 0.999 . S
H403 C384 0.913 . S
H404 C422 0.951 . S
H405 C424 0.951 . S
H406 C426 0.950 . S
H407 C427 0.950 . S
H408 C429 0.950 . S
H409 C432 0.950 . S
H410 C433 0.950 . S
H411 C435 0.950 . S
H412 C436 0.950 . S
H413 C437 0.951 . S
H414 C439 0.951 . S
H415 C441 0.950 . S
H416 C442 0.950 . S
H417 C444 0.950 . S
H418 C447 0.950 . S
H419 C448 0.950 . S
H420 C450 0.950 . S
H421 C451 0.950 . S
C422 H404 0.951 . S
C422 C423 1.366 . S
C422 C424 1.388 . S
C423 C422 1.366 . S
C423 C427 1.385 . S
C424 H405 0.951 . S
C424 C422 1.388 . S
C424 C425 1.366 . S
C425 C424 1.366 . S
C425 C426 1.414 . S
C425 C428 1.499 . S
C426 H406 0.950 . S
C426 C425 1.414 . S
C426 C427 1.374 . S
C427 H407 0.950 . S
C427 C423 1.385 . S
C427 C426 1.374 . S
C428 C425 1.499 . S
C428 C429 1.373 . S
C428 C430 1.389 . S
C429 H408 0.950 . S
C429 C428 1.373 . S
C429 C445 1.377 . S
C430 C428 1.389 . S
C430 C431 1.524 . S
C430 C444 1.377 . S
C431 C430 1.524 . S
C431 C432 1.397 . S
C431 C436 1.363 . S
C432 H409 0.950 . S
C432 C431 1.397 . S
C432 C433 1.334 . S
C433 H410 0.950 . S
C433 C432 1.334 . S
C433 C434 1.287 . S
C434 C433 1.287 . S
C434 C435 1.524 . S
C434 H453 0.913 . S
C435 H411 0.950 . S
C435 C434 1.524 . S
C435 C436 1.415 . S
C436 H412 0.950 . S
C436 C431 1.363 . S
C436 C435 1.415 . S
C437 H413 0.951 . S
C437 C438 1.366 . S
C437 C439 1.388 . S
C438 C437 1.366 . S
C438 C442 1.385 . S
C439 H414 0.951 . S
C439 C437 1.388 . S
C439 C440 1.366 . S
C440 C439 1.366 . S
C440 C441 1.414 . S
C440 C443 1.499 . S
C441 H415 0.950 . S
C441 C440 1.414 . S
C441 C442 1.374 . S
C442 H416 0.950 . S
C442 C438 1.385 . S
C442 C441 1.374 . S
C443 C440 1.499 . S
C443 C444 1.373 . S
C443 C445 1.389 . S
C444 H417 0.950 . S
C444 C430 1.377 . S
C444 C443 1.373 . S
C445 C429 1.377 . S
C445 C443 1.389 . S
C445 C446 1.524 . S
C446 C445 1.524 . S
C446 C447 1.397 . S
C446 C451 1.363 . S
C447 H418 0.950 . S
C447 C446 1.397 . S
C447 C448 1.334 . S
C448 H419 0.950 . S
C448 C447 1.334 . S
C448 C449 1.287 . S
C449 C448 1.287 . S
C449 C450 1.524 . S
C449 H452 0.999 . S
C450 H420 0.950 . S
C450 C449 1.524 . S
C450 C451 1.415 . S
C451 H421 0.950 . S
C451 C446 1.363 . S
C451 C450 1.415 . S
H452 C449 0.999 . S
H453 C434 0.913 . S
H454 C472 0.951 . S
H455 C474 0.951 . S
H456 C476 0.950 . S
H457 C477 0.950 . S
H458 C479 0.950 . S
H459 C482 0.950 . S
H460 C483 0.950 . S
H461 C485 0.950 . S
H462 C486 0.950 . S
H463 C487 0.951 . S
H464 C489 0.951 . S
H465 C491 0.950 . S
H466 C492 0.950 . S
H467 C494 0.950 . S
H468 C497 0.950 . S
H469 C498 0.950 . S
H470 C500 0.950 . S
H471 C501 0.950 . S
C472 H454 0.951 . S
C472 C473 1.366 . S
C472 C474 1.388 . S
C473 C472 1.366 . S
C473 C477 1.385 . S
C474 H455 0.951 . S
C474 C472 1.388 . S
C474 C475 1.366 . S
C475 C474 1.366 . S
C475 C476 1.414 . S
C475 C478 1.499 . S
C476 H456 0.950 . S
C476 C475 1.414 . S
C476 C477 1.374 . S
C477 H457 0.950 . S
C477 C473 1.385 . S
C477 C476 1.374 . S
C478 C475 1.499 . S
C478 C479 1.373 . S
C478 C480 1.389 . S
C479 H458 0.950 . S
C479 C478 1.373 . S
C479 C495 1.377 . S
C480 C478 1.389 . S
C480 C481 1.524 . S
C480 C494 1.377 . S
C481 C480 1.524 . S
C481 C482 1.397 . S
C481 C486 1.363 . S
C482 H459 0.950 . S
C482 C481 1.397 . S
C482 C483 1.334 . S
C483 H460 0.950 . S
C483 C482 1.334 . S
C483 C484 1.287 . S
C484 C483 1.287 . S
C484 C485 1.524 . S
C484 H503 0.913 . S
C485 H461 0.950 . S
C485 C484 1.524 . S
C485 C486 1.415 . S
C486 H462 0.950 . S
C486 C481 1.363 . S
C486 C485 1.415 . S
C487 H463 0.951 . S
C487 C488 1.366 . S
C487 C489 1.388 . S
C488 C487 1.366 . S
C488 C492 1.385 . S
C489 H464 0.951 . S
C489 C487 1.388 . S
C489 C490 1.366 . S
C490 C489 1.366 . S
C490 C491 1.414 . S
C490 C493 1.499 . S
C491 H465 0.950 . S
C491 C490 1.414 . S
C491 C492 1.374 . S
C492 H466 0.950 . S
C492 C488 1.385 . S
C492 C491 1.374 . S
C493 C490 1.499 . S
C493 C494 1.373 . S
C493 C495 1.389 . S
C494 H467 0.950 . S
C494 C480 1.377 . S
C494 C493 1.373 . S
C495 C479 1.377 . S
C495 C493 1.389 . S
C495 C496 1.524 . S
C496 C495 1.524 . S
C496 C497 1.397 . S
C496 C501 1.363 . S
C497 H468 0.950 . S
C497 C496 1.397 . S
C497 C498 1.334 . S
C498 H469 0.950 . S
C498 C497 1.334 . S
C498 C499 1.287 . S
C499 C498 1.287 . S
C499 C500 1.524 . S
C499 H502 0.999 . S
C500 H470 0.950 . S
C500 C499 1.524 . S
C500 C501 1.415 . S
C501 H471 0.950 . S
C501 C496 1.363 . S
C501 C500 1.415 . S
H502 C499 0.999 . S
H503 C484 0.913 . S
H504 C522 0.951 . S
H505 C524 0.951 . S
H506 C526 0.950 . S
H507 C527 0.950 . S
H508 C529 0.950 . S
H509 C532 0.950 . S
H510 C533 0.950 . S
H511 C535 0.950 1_554 S
H512 C536 0.950 1_455 S
H513 C537 0.951 . S
H514 C539 0.951 . S
H515 C541 0.950 . S
H516 C542 0.950 . S
H517 C544 0.951 1_556 S
H518 C547 0.950 . S
H519 C548 0.950 . S
H520 C550 0.950 . S
H521 C551 0.950 1_656 S
C522 H504 0.951 . S
C522 C523 1.366 . S
C522 C524 1.388 . S
C523 C522 1.366 . S
C523 C527 1.385 1_554 S
C524 H505 0.951 . S
C524 C522 1.388 . S
C524 C525 1.366 . S
C525 C524 1.366 . S
C525 C526 1.414 1_554 S
C525 C528 1.499 . S
C526 H506 0.950 . S
C526 C525 1.414 1_556 S
C526 C527 1.374 . S
C527 H507 0.950 . S
C527 C523 1.385 1_556 S
C527 C526 1.374 . S
C528 C525 1.499 . S
C528 C529 1.373 . S
C528 C530 1.389 . S
C529 H508 0.950 . S
C529 C528 1.373 . S
C529 C545 1.377 1_655 S
C530 C528 1.389 . S
C530 C531 1.524 1_554 S
C530 C544 1.377 1_655 S
C531 C530 1.524 1_556 S
C531 C532 1.397 . S
C531 C536 1.363 1_556 S
C532 H509 0.950 . S
C532 C531 1.397 . S
C532 C533 1.334 . S
C533 H510 0.950 . S
C533 C532 1.334 . S
C533 C534 1.287 . S
C534 C533 1.287 . S
C534 C535 1.524 . S
C534 H553 0.913 . S
C535 H511 0.950 1_556 S
C535 C534 1.524 . S
C535 C536 1.415 1_556 S
C536 H512 0.950 1_655 S
C536 C531 1.363 1_554 S
C536 C535 1.415 1_554 S
C537 H513 0.951 . S
C537 C538 1.366 1_556 S
C537 C539 1.388 . S
C538 C537 1.366 1_554 S
C538 C542 1.385 . S
C539 H514 0.951 . S
C539 C537 1.388 . S
C539 C540 1.366 1_556 S
C540 C539 1.366 1_554 S
C540 C541 1.414 . S
C540 C543 1.499 . S
C541 H515 0.950 . S
C541 C540 1.414 . S
C541 C542 1.374 . S
C542 H516 0.950 . S
C542 C538 1.385 . S
C542 C541 1.374 . S
C543 C540 1.499 . S
C543 C544 1.373 . S
C543 C545 1.389 . S
C544 H517 0.951 1_554 S
C544 C530 1.377 1_455 S
C544 C543 1.373 . S
C545 C529 1.377 1_455 S
C545 C543 1.389 . S
C545 C546 1.524 . S
C546 C545 1.524 . S
C546 C547 1.397 . S
C546 C551 1.363 . S
C547 H518 0.950 . S
C547 C546 1.397 . S
C547 C548 1.334 . S
C548 H519 0.950 . S
C548 C547 1.334 . S
C548 C549 1.287 . S
C549 C548 1.287 . S
C549 C550 1.524 . S
C549 H552 0.999 . S
C550 H520 0.950 . S
C550 C549 1.524 . S
C550 C551 1.415 . S
C551 H521 0.950 1_454 S
C551 C546 1.363 . S
C551 C550 1.415 . S
H552 C549 0.999 . S
H553 C534 0.913 . S
H554 C572 0.951 . S
H555 C574 0.951 . S
H556 C576 0.950 . S
H557 C577 0.950 . S
H558 C579 0.950 . S
H559 C582 0.950 . S
H560 C583 0.950 . S
H561 C585 0.950 . S
H562 C586 0.950 1_545 S
H563 C587 0.951 . S
H564 C589 0.951 . S
H565 C591 0.950 . S
H566 C592 0.950 . S
H567 C594 0.950 . S
H568 C597 0.950 . S
H569 C598 0.950 . S
H570 C600 0.950 . S
H571 C601 0.950 1_565 S
C572 H554 0.951 . S
C572 C573 1.366 . S
C572 C574 1.388 . S
C573 C572 1.366 . S
C573 C577 1.385 . S
C574 H555 0.951 . S
C574 C572 1.388 . S
C574 C575 1.366 . S
C575 C574 1.366 . S
C575 C576 1.414 . S
C575 C578 1.499 . S
C576 H556 0.950 . S
C576 C575 1.414 . S
C576 C577 1.374 . S
C577 H557 0.950 . S
C577 C573 1.385 . S
C577 C576 1.374 . S
C578 C575 1.499 . S
C578 C579 1.373 . S
C578 C580 1.389 . S
C579 H558 0.950 . S
C579 C578 1.373 . S
C579 C595 1.377 1_565 S
C580 C578 1.389 . S
C580 C581 1.524 . S
C580 C594 1.377 1_565 S
C581 C580 1.524 . S
C581 C582 1.397 . S
C581 C586 1.363 . S
C582 H559 0.950 . S
C582 C581 1.397 . S
C582 C583 1.334 . S
C583 H560 0.950 . S
C583 C582 1.334 . S
C583 C584 1.287 . S
C584 C583 1.287 . S
C584 C585 1.524 . S
C584 H603 0.913 . S
C585 H561 0.950 . S
C585 C584 1.524 . S
C585 C586 1.415 . S
C586 H562 0.950 1_565 S
C586 C581 1.363 . S
C586 C585 1.415 . S
C587 H563 0.951 . S
C587 C588 1.366 . S
C587 C589 1.388 . S
C588 C587 1.366 . S
C588 C592 1.385 . S
C589 H564 0.951 . S
C589 C587 1.388 . S
C589 C590 1.366 . S
C590 C589 1.366 . S
C590 C591 1.414 . S
C590 C593 1.499 . S
C591 H565 0.950 . S
C591 C590 1.414 . S
C591 C592 1.374 . S
C592 H566 0.950 . S
C592 C588 1.385 . S
C592 C591 1.374 . S
C593 C590 1.499 . S
C593 C594 1.373 . S
C593 C595 1.389 . S
C594 H567 0.950 . S
C594 C580 1.377 1_545 S
C594 C593 1.373 . S
C595 C579 1.377 1_545 S
C595 C593 1.389 . S
C595 C596 1.524 . S
C596 C595 1.524 . S
C596 C597 1.397 . S
C596 C601 1.363 . S
C597 H568 0.950 . S
C597 C596 1.397 . S
C597 C598 1.334 . S
C598 H569 0.950 . S
C598 C597 1.334 . S
C598 C599 1.287 . S
C599 C598 1.287 . S
C599 C600 1.524 . S
C599 H602 0.999 . S
C600 H570 0.950 . S
C600 C599 1.524 . S
C600 C601 1.415 . S
C601 H571 0.950 1_545 S
C601 C596 1.363 . S
C601 C600 1.415 . S
H602 C599 0.999 . S
H603 C584 0.913 . S
H604 C622 0.951 . S
H605 C624 0.951 . S
H606 C626 0.950 . S
H607 C627 0.950 . S
H608 C629 0.950 . S
H609 C632 0.950 . S
H610 C633 0.950 . S
H611 C635 0.950 . S
H612 C636 0.950 . S
H613 C637 0.951 . S
H614 C639 0.951 . S
H615 C641 0.950 . S
H616 C642 0.950 . S
H617 C644 0.950 . S
H618 C647 0.950 . S
H619 C648 0.950 . S
H620 C650 0.950 . S
H621 C651 0.950 . S
C622 H604 0.951 . S
C622 C623 1.366 . S
C622 C624 1.388 . S
C623 C622 1.366 . S
C623 C627 1.385 . S
C624 H605 0.951 . S
C624 C622 1.388 . S
C624 C625 1.366 . S
C625 C624 1.366 . S
C625 C626 1.414 . S
C625 C628 1.499 . S
C626 H606 0.950 . S
C626 C625 1.414 . S
C626 C627 1.374 . S
C627 H607 0.950 . S
C627 C623 1.385 . S
C627 C626 1.374 . S
C628 C625 1.499 . S
C628 C629 1.373 . S
C628 C630 1.389 . S
C629 H608 0.950 . S
C629 C628 1.373 . S
C629 C645 1.377 1_455 S
C630 C628 1.389 . S
C630 C631 1.524 . S
C630 C644 1.377 1_455 S
C631 C630 1.524 . S
C631 C632 1.397 . S
C631 C636 1.363 . S
C632 H609 0.950 . S
C632 C631 1.397 . S
C632 C633 1.334 . S
C633 H610 0.950 . S
C633 C632 1.334 . S
C633 C634 1.287 . S
C634 C633 1.287 . S
C634 C635 1.524 . S
C634 H653 0.913 . S
C635 H611 0.950 . S
C635 C634 1.524 . S
C635 C636 1.415 . S
C636 H612 0.950 . S
C636 C631 1.363 . S
C636 C635 1.415 . S
C637 H613 0.951 . S
C637 C638 1.366 . S
C637 C639 1.388 . S
C638 C637 1.366 . S
C638 C642 1.385 . S
C639 H614 0.951 . S
C639 C637 1.388 . S
C639 C640 1.366 . S
C640 C639 1.366 . S
C640 C641 1.414 . S
C640 C643 1.499 . S
C641 H615 0.950 . S
C641 C640 1.414 . S
C641 C642 1.374 . S
C642 H616 0.950 . S
C642 C638 1.385 . S
C642 C641 1.374 . S
C643 C640 1.499 . S
C643 C644 1.373 . S
C643 C645 1.389 . S
C644 H617 0.950 . S
C644 C630 1.377 1_655 S
C644 C643 1.373 . S
C645 C629 1.377 1_655 S
C645 C643 1.389 . S
C645 C646 1.524 . S
C646 C645 1.524 . S
C646 C647 1.397 . S
C646 C651 1.363 . S
C647 H618 0.950 . S
C647 C646 1.397 . S
C647 C648 1.334 . S
C648 H619 0.950 . S
C648 C647 1.334 . S
C648 C649 1.287 . S
C649 C648 1.287 . S
C649 C650 1.524 . S
C649 H652 0.999 . S
C650 H620 0.950 . S
C650 C649 1.524 . S
C650 C651 1.415 . S
C651 H621 0.950 . S
C651 C646 1.363 . S
C651 C650 1.415 . S
H652 C649 0.999 . S
H653 C634 0.913 . S
H654 C672 0.951 . S
H655 C674 0.951 . S
H656 C676 0.950 . S
H657 C677 0.950 . S
H658 C679 0.950 . S
H659 C682 0.950 . S
H660 C683 0.950 . S
H661 C685 0.950 . S
H662 C686 0.950 1_545 S
H663 C687 0.951 . S
H664 C689 0.951 . S
H665 C691 0.950 . S
H666 C692 0.950 . S
H667 C694 0.950 . S
H668 C697 0.950 . S
H669 C698 0.950 . S
H670 C700 0.950 . S
H671 C701 0.950 1_565 S
C672 H654 0.951 . S
C672 C673 1.366 . S
C672 C674 1.388 . S
C673 C672 1.366 . S
C673 C677 1.385 . S
C674 H655 0.951 . S
C674 C672 1.388 . S
C674 C675 1.366 . S
C675 C674 1.366 . S
C675 C676 1.414 . S
C675 C678 1.499 . S
C676 H656 0.950 . S
C676 C675 1.414 . S
C676 C677 1.374 . S
C677 H657 0.950 . S
C677 C673 1.385 . S
C677 C676 1.374 . S
C678 C675 1.499 . S
C678 C679 1.373 . S
C678 C680 1.389 . S
C679 H658 0.950 . S
C679 C678 1.373 . S
C679 C695 1.377 1_565 S
C680 C678 1.389 . S
C680 C681 1.524 . S
C680 C694 1.377 1_565 S
C681 C680 1.524 . S
C681 C682 1.397 . S
C681 C686 1.363 . S
C682 H659 0.950 . S
C682 C681 1.397 . S
C682 C683 1.334 . S
C683 H660 0.950 . S
C683 C682 1.334 . S
C683 C684 1.287 . S
C684 C683 1.287 . S
C684 C685 1.524 . S
C684 H703 0.913 . S
C685 H661 0.950 . S
C685 C684 1.524 . S
C685 C686 1.415 . S
C686 H662 0.950 1_565 S
C686 C681 1.363 . S
C686 C685 1.415 . S
C687 H663 0.951 . S
C687 C688 1.366 . S
C687 C689 1.388 . S
C688 C687 1.366 . S
C688 C692 1.385 . S
C689 H664 0.951 . S
C689 C687 1.388 . S
C689 C690 1.366 . S
C690 C689 1.366 . S
C690 C691 1.414 . S
C690 C693 1.499 . S
C691 H665 0.950 . S
C691 C690 1.414 . S
C691 C692 1.374 . S
C692 H666 0.950 . S
C692 C688 1.385 . S
C692 C691 1.374 . S
C693 C690 1.499 . S
C693 C694 1.373 . S
C693 C695 1.389 . S
C694 H667 0.950 . S
C694 C680 1.377 1_545 S
C694 C693 1.373 . S
C695 C679 1.377 1_545 S
C695 C693 1.389 . S
C695 C696 1.524 . S
C696 C695 1.524 . S
C696 C697 1.397 1_554 S
C696 C701 1.363 . S
C697 H668 0.950 . S
C697 C696 1.397 1_556 S
C697 C698 1.334 . S
C698 H669 0.950 . S
C698 C697 1.334 . S
C698 C699 1.287 . S
C699 C698 1.287 . S
C699 C700 1.524 1_556 S
C699 H702 0.999 . S
C700 H670 0.950 . S
C700 C699 1.524 1_554 S
C700 C701 1.415 . S
C701 H671 0.950 1_545 S
C701 C696 1.363 . S
C701 C700 1.415 . S
H702 C699 0.999 . S
H703 C684 0.913 . S
H704 C722 0.951 . S
H705 C724 0.951 . S
H706 C726 0.950 . S
H707 C727 0.950 . S
H708 C729 0.950 1_556 S
H709 C732 0.950 . S
H710 C733 0.950 . S
H711 C735 0.950 . S
H712 C736 0.950 . S
H713 C737 0.951 . S
H714 C739 0.951 . S
H715 C741 0.950 . S
H716 C742 0.950 . S
H717 C744 0.950 . S
H718 C747 0.950 . S
H719 C748 0.950 . S
H720 C750 0.950 . S
H721 C751 0.950 . S
C722 H704 0.951 . S
C722 C723 1.366 . S
C722 C724 1.388 . S
C723 C722 1.366 . S
C723 C727 1.385 . S
C724 H705 0.951 . S
C724 C722 1.388 . S
C724 C725 1.366 . S
C725 C724 1.366 . S
C725 C726 1.414 . S
C725 C728 1.499 . S
C726 H706 0.950 . S
C726 C725 1.414 . S
C726 C727 1.374 . S
C727 H707 0.950 . S
C727 C723 1.385 . S
C727 C726 1.374 . S
C728 C725 1.499 . S
C728 C729 1.373 . S
C728 C730 1.389 . S
C729 H708 0.950 1_554 S
C729 C728 1.373 . S
C729 C745 1.376 1_554 S
C730 C728 1.389 . S
C730 C731 1.524 . S
C730 C744 1.377 . S
C731 C730 1.524 . S
C731 C732 1.397 . S
C731 C736 1.363 . S
C732 H709 0.950 . S
C732 C731 1.397 . S
C732 C733 1.334 . S
C733 H710 0.950 . S
C733 C732 1.334 . S
C733 C734 1.287 . S
C734 C733 1.287 . S
C734 C735 1.524 . S
C734 H753 0.913 . S
C735 H711 0.950 . S
C735 C734 1.524 . S
C735 C736 1.415 . S
C736 H712 0.950 . S
C736 C731 1.363 . S
C736 C735 1.415 . S
C737 H713 0.951 . S
C737 C738 1.366 . S
C737 C739 1.388 . S
C738 C737 1.366 . S
C738 C742 1.385 . S
C739 H714 0.951 . S
C739 C737 1.388 . S
C739 C740 1.366 . S
C740 C739 1.366 . S
C740 C741 1.414 . S
C740 C743 1.499 . S
C741 H715 0.950 . S
C741 C740 1.414 . S
C741 C742 1.374 . S
C742 H716 0.950 . S
C742 C738 1.385 . S
C742 C741 1.374 . S
C743 C740 1.499 . S
C743 C744 1.373 . S
C743 C745 1.389 1_554 S
C744 H717 0.950 . S
C744 C730 1.377 . S
C744 C743 1.373 . S
C745 C729 1.376 1_556 S
C745 C743 1.389 1_556 S
C745 C746 1.525 . S
C746 C745 1.525 . S
C746 C747 1.397 . S
C746 C751 1.363 . S
C747 H718 0.950 . S
C747 C746 1.397 . S
C747 C748 1.334 . S
C748 H719 0.950 . S
C748 C747 1.334 . S
C748 C749 1.287 . S
C749 C748 1.287 . S
C749 C750 1.524 . S
C749 H752 0.999 . S
C750 H720 0.950 . S
C750 C749 1.524 . S
C750 C751 1.415 . S
C751 H721 0.950 . S
C751 C746 1.363 . S
C751 C750 1.415 . S
H752 C749 0.999 . S
H753 C734 0.913 . S
H754 C772 0.951 . S
H755 C774 0.951 . S
H756 C776 0.950 . S
H757 C777 0.950 . S
H758 C779 0.950 . S
H759 C782 0.950 . S
H760 C783 0.950 . S
H761 C785 0.950 . S
H762 C786 0.950 . S
H763 C787 0.951 . S
H764 C789 0.951 . S
H765 C791 0.950 . S
H766 C792 0.950 . S
H767 C794 0.950 . S
H768 C797 0.950 . S
H769 C798 0.950 . S
H770 C800 0.950 . S
H771 C801 0.950 . S
C772 H754 0.951 . S
C772 C773 1.366 . S
C772 C774 1.388 . S
C773 C772 1.366 . S
C773 C777 1.385 . S
C774 H755 0.951 . S
C774 C772 1.388 . S
C774 C775 1.366 . S
C775 C774 1.366 . S
C775 C776 1.414 . S
C775 C778 1.499 . S
C776 H756 0.950 . S
C776 C775 1.414 . S
C776 C777 1.374 . S
C777 H757 0.950 . S
C777 C773 1.385 . S
C777 C776 1.374 . S
C778 C775 1.499 . S
C778 C779 1.373 . S
C778 C780 1.389 . S
C779 H758 0.950 . S
C779 C778 1.373 . S
C779 C795 1.377 . S
C780 C778 1.389 . S
C780 C781 1.524 . S
C780 C794 1.377 . S
C781 C780 1.524 . S
C781 C782 1.397 . S
C781 C786 1.363 . S
C782 H759 0.950 . S
C782 C781 1.397 . S
C782 C783 1.334 . S
C783 H760 0.950 . S
C783 C782 1.334 . S
C783 C784 1.287 . S
C784 C783 1.287 . S
C784 C785 1.524 . S
C784 H803 0.913 . S
C785 H761 0.950 . S
C785 C784 1.524 . S
C785 C786 1.415 . S
C786 H762 0.950 . S
C786 C781 1.363 . S
C786 C785 1.415 . S
C787 H763 0.951 . S
C787 C788 1.366 . S
C787 C789 1.388 . S
C788 C787 1.366 . S
C788 C792 1.385 . S
C789 H764 0.951 . S
C789 C787 1.388 . S
C789 C790 1.366 . S
C790 C789 1.366 . S
C790 C791 1.414 . S
C790 C793 1.499 . S
C791 H765 0.950 . S
C791 C790 1.414 . S
C791 C792 1.374 . S
C792 H766 0.950 . S
C792 C788 1.385 . S
C792 C791 1.374 . S
C793 C790 1.499 . S
C793 C794 1.373 . S
C793 C795 1.389 . S
C794 H767 0.950 . S
C794 C780 1.377 . S
C794 C793 1.373 . S
C795 C779 1.377 . S
C795 C793 1.389 . S
C795 C796 1.524 . S
C796 C795 1.524 . S
C796 C797 1.397 . S
C796 C801 1.363 . S
C797 H768 0.950 . S
C797 C796 1.397 . S
C797 C798 1.334 . S
C798 H769 0.950 . S
C798 C797 1.334 . S
C798 C799 1.287 . S
C799 C798 1.287 . S
C799 C800 1.524 . S
C799 H802 0.999 . S
C800 H770 0.950 . S
C800 C799 1.524 . S
C800 C801 1.415 . S
C801 H771 0.950 . S
C801 C796 1.363 . S
C801 C800 1.415 . S
H802 C799 0.999 . S
H803 C784 0.913 . S
H804 C822 0.951 . S
H805 C824 0.951 . S
H806 C826 0.950 . S
H807 C827 0.950 . S
H808 C829 0.950 1_556 S
H809 C832 0.950 . S
H810 C833 0.950 . S
H811 C835 0.950 . S
H812 C836 0.950 . S
H813 C837 0.951 . S
H814 C839 0.951 . S
H815 C841 0.950 . S
H816 C842 0.950 . S
H817 C844 0.950 . S
H818 C847 0.950 . S
H819 C848 0.950 . S
H820 C850 0.950 . S
H821 C851 0.950 . S
C822 H804 0.951 . S
C822 C823 1.366 . S
C822 C824 1.388 . S
C823 C822 1.366 . S
C823 C827 1.385 . S
C824 H805 0.951 . S
C824 C822 1.388 . S
C824 C825 1.366 . S
C825 C824 1.366 . S
C825 C826 1.414 . S
C825 C828 1.499 . S
C826 H806 0.950 . S
C826 C825 1.414 . S
C826 C827 1.374 . S
C827 H807 0.950 . S
C827 C823 1.385 . S
C827 C826 1.374 . S
C828 C825 1.499 . S
C828 C829 1.373 . S
C828 C830 1.389 . S
C829 H808 0.950 1_554 S
C829 C828 1.373 . S
C829 C845 1.377 . S
C830 C828 1.389 . S
C830 C831 1.524 . S
C830 C844 1.377 . S
C831 C830 1.524 . S
C831 C832 1.397 . S
C831 C836 1.363 . S
C832 H809 0.950 . S
C832 C831 1.397 . S
C832 C833 1.334 . S
C833 H810 0.950 . S
C833 C832 1.334 . S
C833 C834 1.287 . S
C834 C833 1.287 . S
C834 C835 1.524 . S
C834 H853 0.913 . S
C835 H811 0.950 . S
C835 C834 1.524 . S
C835 C836 1.415 . S
C836 H812 0.950 . S
C836 C831 1.363 . S
C836 C835 1.415 . S
C837 H813 0.951 . S
C837 C838 1.366 . S
C837 C839 1.388 . S
C838 C837 1.366 . S
C838 C842 1.385 . S
C839 H814 0.951 . S
C839 C837 1.388 . S
C839 C840 1.366 . S
C840 C839 1.366 . S
C840 C841 1.414 . S
C840 C843 1.499 . S
C841 H815 0.950 . S
C841 C840 1.414 . S
C841 C842 1.374 . S
C842 H816 0.950 . S
C842 C838 1.385 . S
C842 C841 1.374 . S
C843 C840 1.499 . S
C843 C844 1.373 . S
C843 C845 1.389 . S
C844 H817 0.950 . S
C844 C830 1.377 . S
C844 C843 1.373 . S
C845 C829 1.377 . S
C845 C843 1.389 . S
C845 C846 1.524 1_554 S
C846 C845 1.524 1_556 S
C846 C847 1.397 . S
C846 C851 1.363 . S
C847 H818 0.950 . S
C847 C846 1.397 . S
C847 C848 1.334 . S
C848 H819 0.950 . S
C848 C847 1.334 . S
C848 C849 1.287 . S
C849 C848 1.287 . S
C849 C850 1.524 . S
C849 H852 0.999 . S
C850 H820 0.950 . S
C850 C849 1.524 . S
C850 C851 1.415 . S
C851 H821 0.950 . S
C851 C846 1.363 . S
C851 C850 1.415 . S
H852 C849 0.999 . S
H853 C834 0.913 . S
H854 C872 0.951 . S
H855 C874 0.951 . S
H856 C876 0.950 . S
H857 C877 0.950 . S
H858 C879 0.950 . S
H859 C882 0.950 . S
H860 C883 0.950 . S
H861 C885 0.950 . S
H862 C886 0.950 . S
H863 C887 0.951 . S
H864 C889 0.951 . S
H865 C891 0.950 . S
H866 C892 0.950 . S
H867 C894 0.950 . S
H868 C897 0.950 . S
H869 C898 0.950 . S
H870 C900 0.950 . S
H871 C901 0.950 . S
C872 H854 0.951 . S
C872 C873 1.366 . S
C872 C874 1.388 . S
C873 C872 1.366 . S
C873 C877 1.385 . S
C874 H855 0.951 . S
C874 C872 1.388 . S
C874 C875 1.366 . S
C875 C874 1.366 . S
C875 C876 1.414 . S
C875 C878 1.499 . S
C876 H856 0.950 . S
C876 C875 1.414 . S
C876 C877 1.374 . S
C877 H857 0.950 . S
C877 C873 1.385 . S
C877 C876 1.374 . S
C878 C875 1.499 . S
C878 C879 1.373 . S
C878 C880 1.389 . S
C879 H858 0.950 . S
C879 C878 1.373 . S
C879 C895 1.377 . S
C880 C878 1.389 . S
C880 C881 1.524 . S
C880 C894 1.377 . S
C881 C880 1.524 . S
C881 C882 1.397 . S
C881 C886 1.363 . S
C882 H859 0.950 . S
C882 C881 1.397 . S
C882 C883 1.334 . S
C883 H860 0.950 . S
C883 C882 1.334 . S
C883 C884 1.287 . S
C884 C883 1.287 . S
C884 C885 1.524 . S
C884 H903 0.913 . S
C885 H861 0.950 . S
C885 C884 1.524 . S
C885 C886 1.415 . S
C886 H862 0.950 . S
C886 C881 1.363 . S
C886 C885 1.415 . S
C887 H863 0.951 . S
C887 C888 1.366 . S
C887 C889 1.388 . S
C888 C887 1.366 . S
C888 C892 1.385 . S
C889 H864 0.951 . S
C889 C887 1.388 . S
C889 C890 1.366 . S
C890 C889 1.366 . S
C890 C891 1.414 . S
C890 C893 1.499 . S
C891 H865 0.950 . S
C891 C890 1.414 . S
C891 C892 1.374 . S
C892 H866 0.950 . S
C892 C888 1.385 . S
C892 C891 1.374 . S
C893 C890 1.499 . S
C893 C894 1.373 . S
C893 C895 1.389 . S
C894 H867 0.950 . S
C894 C880 1.377 . S
C894 C893 1.373 . S
C895 C879 1.377 . S
C895 C893 1.389 . S
C895 C896 1.524 . S
C896 C895 1.524 . S
C896 C897 1.397 . S
C896 C901 1.363 . S
C897 H868 0.950 . S
C897 C896 1.397 . S
C897 C898 1.334 . S
C898 H869 0.950 . S
C898 C897 1.334 . S
C898 C899 1.287 . S
C899 C898 1.287 . S
C899 C900 1.524 . S
C899 H902 0.999 . S
C900 H870 0.950 . S
C900 C899 1.524 . S
C900 C901 1.415 . S
C901 H871 0.950 . S
C901 C896 1.363 . S
C901 C900 1.415 . S
H902 C899 0.999 . S
H903 C884 0.913 . S
C123 C10 1.618 . S
C138 C62 1.617 . S
C173 C17 1.617 . S
C188 C69 1.617 . S
C223 C88 1.617 . S
C238 C36 1.617 . S
C273 C95 1.618 . S
C288 C49 1.618 . S
C323 C81 0.871 . S
C338 C29 0.871 . S
C373 C96 0.871 . S
C388 C42 0.871 . S
C423 C3 0.871 . S
C438 C55 0.871 . S
C473 C18 0.870 . S
C488 C70 0.870 . S
C523 C31 1.412 . S
C538 C5 1.412 . S
C573 C44 1.412 . S
C588 C16 1.412 . S
C623 C57 1.412 . S
C638 C83 1.412 . S
C673 C94 1.412 . S
C688 C68 1.412 . S
C723 C4 1.392 . S
C738 C75 1.392 . S
C773 C82 1.392 . S
C788 C23 1.392 . S
C823 C30 1.392 . S
C838 C101 1.392 . S
C873 C43 1.392 . S
C888 C56 1.392 . S
