# Generated by pormake.
# Topology bcs, (6)-cn, num edge types: 1
# Building blocks:
#     Node 0, Type 0, BuildingBlock: CUWYAW_clean_sbu_0, # of connection points: 6
#     Node 1, Type 0, BuildingBlock: CUWYAW_clean_sbu_0, # of connection points: 6
#     Node 2, Type 0, BuildingBlock: CUWYAW_clean_sbu_0, # of connection points: 6
#     Node 3, Type 0, BuildingBlock: CUWYAW_clean_sbu_0, # of connection points: 6
#     Node 4, Type 0, BuildingBlock: CUWYAW_clean_sbu_0, # of connection points: 6
#     Node 5, Type 0, BuildingBlock: CUWYAW_clean_sbu_0, # of connection points: 6
#     Node 6, Type 0, BuildingBlock: CUWYAW_clean_sbu_0, # of connection points: 6
#     Node 7, Type 0, BuildingBlock: CUWYAW_clean_sbu_0, # of connection points: 6
#     Node 8, Type 0, BuildingBlock: CUWYAW_clean_sbu_0, # of connection points: 6
#     Node 9, Type 0, BuildingBlock: CUWYAW_clean_sbu_0, # of connection points: 6
#     Node 10, Type 0, BuildingBlock: CUWYAW_clean_sbu_0, # of connection points: 6
#     Node 11, Type 0, BuildingBlock: CUWYAW_clean_sbu_0, # of connection points: 6
#     Node 12, Type 0, BuildingBlock: CUWYAW_clean_sbu_0, # of connection points: 6
#     Node 13, Type 0, BuildingBlock: CUWYAW_clean_sbu_0, # of connection points: 6
#     Node 14, Type 0, BuildingBlock: CUWYAW_clean_sbu_0, # of connection points: 6
#     Node 15, Type 0, BuildingBlock: CUWYAW_clean_sbu_0, # of connection points: 6
#     Edge 16, Type (0, 0), BuildingBlock: AJUNOK_clean_linker_0, # of connection points: 2
#     Edge 17, Type (0, 0), BuildingBlock: AJUNOK_clean_linker_0, # of connection points: 2
#     Edge 18, Type (0, 0), BuildingBlock: AJUNOK_clean_linker_0, # of connection points: 2
#     Edge 19, Type (0, 0), BuildingBlock: AJUNOK_clean_linker_0, # of connection points: 2
#     Edge 20, Type (0, 0), BuildingBlock: AJUNOK_clean_linker_0, # of connection points: 2
#     Edge 21, Type (0, 0), BuildingBlock: AJUNOK_clean_linker_0, # of connection points: 2
#     Edge 22, Type (0, 0), BuildingBlock: AJUNOK_clean_linker_0, # of connection points: 2
#     Edge 23, Type (0, 0), BuildingBlock: AJUNOK_clean_linker_0, # of connection points: 2
#     Edge 24, Type (0, 0), BuildingBlock: AJUNOK_clean_linker_0, # of connection points: 2
#     Edge 25, Type (0, 0), BuildingBlock: AJUNOK_clean_linker_0, # of connection points: 2
#     Edge 26, Type (0, 0), BuildingBlock: AJUNOK_clean_linker_0, # of connection points: 2
#     Edge 27, Type (0, 0), BuildingBlock: AJUNOK_clean_linker_0, # of connection points: 2
#     Edge 28, Type (0, 0), BuildingBlock: AJUNOK_clean_linker_0, # of connection points: 2
#     Edge 29, Type (0, 0), BuildingBlock: AJUNOK_clean_linker_0, # of connection points: 2
#     Edge 30, Type (0, 0), BuildingBlock: AJUNOK_clean_linker_0, # of connection points: 2
#     Edge 31, Type (0, 0), BuildingBlock: AJUNOK_clean_linker_0, # of connection points: 2
#     Edge 32, Type (0, 0), BuildingBlock: AJUNOK_clean_linker_0, # of connection points: 2
#     Edge 33, Type (0, 0), BuildingBlock: AJUNOK_clean_linker_0, # of connection points: 2
#     Edge 34, Type (0, 0), BuildingBlock: AJUNOK_clean_linker_0, # of connection points: 2
#     Edge 35, Type (0, 0), BuildingBlock: AJUNOK_clean_linker_0, # of connection points: 2
#     Edge 36, Type (0, 0), BuildingBlock: AJUNOK_clean_linker_0, # of connection points: 2
#     Edge 37, Type (0, 0), BuildingBlock: AJUNOK_clean_linker_0, # of connection points: 2
#     Edge 38, Type (0, 0), BuildingBlock: AJUNOK_clean_linker_0, # of connection points: 2
#     Edge 39, Type (0, 0), BuildingBlock: AJUNOK_clean_linker_0, # of connection points: 2
#     Edge 40, Type (0, 0), BuildingBlock: AJUNOK_clean_linker_0, # of connection points: 2
#     Edge 41, Type (0, 0), BuildingBlock: AJUNOK_clean_linker_0, # of connection points: 2
#     Edge 42, Type (0, 0), BuildingBlock: AJUNOK_clean_linker_0, # of connection points: 2
#     Edge 43, Type (0, 0), BuildingBlock: AJUNOK_clean_linker_0, # of connection points: 2
#     Edge 44, Type (0, 0), BuildingBlock: AJUNOK_clean_linker_0, # of connection points: 2
#     Edge 45, Type (0, 0), BuildingBlock: AJUNOK_clean_linker_0, # of connection points: 2
#     Edge 46, Type (0, 0), BuildingBlock: AJUNOK_clean_linker_0, # of connection points: 2
#     Edge 47, Type (0, 0), BuildingBlock: AJUNOK_clean_linker_0, # of connection points: 2
#     Edge 48, Type (0, 0), BuildingBlock: AJUNOK_clean_linker_0, # of connection points: 2
#     Edge 49, Type (0, 0), BuildingBlock: AJUNOK_clean_linker_0, # of connection points: 2
#     Edge 50, Type (0, 0), BuildingBlock: AJUNOK_clean_linker_0, # of connection points: 2
#     Edge 51, Type (0, 0), BuildingBlock: AJUNOK_clean_linker_0, # of connection points: 2
#     Edge 52, Type (0, 0), BuildingBlock: AJUNOK_clean_linker_0, # of connection points: 2
#     Edge 53, Type (0, 0), BuildingBlock: AJUNOK_clean_linker_0, # of connection points: 2
#     Edge 54, Type (0, 0), BuildingBlock: AJUNOK_clean_linker_0, # of connection points: 2
#     Edge 55, Type (0, 0), BuildingBlock: AJUNOK_clean_linker_0, # of connection points: 2
#     Edge 56, Type (0, 0), BuildingBlock: AJUNOK_clean_linker_0, # of connection points: 2
#     Edge 57, Type (0, 0), BuildingBlock: AJUNOK_clean_linker_0, # of connection points: 2
#     Edge 58, Type (0, 0), BuildingBlock: AJUNOK_clean_linker_0, # of connection points: 2
#     Edge 59, Type (0, 0), BuildingBlock: AJUNOK_clean_linker_0, # of connection points: 2
#     Edge 60, Type (0, 0), BuildingBlock: AJUNOK_clean_linker_0, # of connection points: 2
#     Edge 61, Type (0, 0), BuildingBlock: AJUNOK_clean_linker_0, # of connection points: 2
#     Edge 62, Type (0, 0), BuildingBlock: AJUNOK_clean_linker_0, # of connection points: 2
#     Edge 63, Type (0, 0), BuildingBlock: AJUNOK_clean_linker_0, # of connection points: 2
# Relax obj value: 0.367
# Max RMSD: 0.243
# Mean RMSD: 0.175
data_MOF--net-bcs--node1-CUWYAW_clean_sbu_0--edge1-AJUNOK_clean_linker_0
_symmetry_space_group_name_H-M    P1
_symmetry_Int_Tables_number       1
_symmetry_cell_setting            triclinic
loop_
_symmetry_equiv_pos_as_xyz
'x, y, z'
_cell_length_a     33.09105
_cell_length_b     32.303139
_cell_length_c     31.578338
_cell_angle_alpha  77.645589
_cell_angle_beta   117.90242
_cell_angle_gamma 109.74787
loop_
_atom_site_label
_atom_site_type_symbol
_atom_site_fract_x
_atom_site_fract_y
_atom_site_fract_z
_atom_type_partial_charge
C0 C 1.07325 0.11113 0.08869 0.0
Eu1 Eu 0.08575 0.05556 0.04084 0.0
C2 C 1.04232 0.12717 0.10801 0.0
C3 C 1.01215 0.15576 0.07991 0.0
C4 C 0.9874 0.17384 0.09701 0.0
C5 C 0.9899 0.16629 0.14496 0.0
C6 C 1.02005 0.13738 0.17315 0.0
C7 C 1.04495 0.11929 0.15594 0.0
C8 C 0.13436 0.10895 0.95721 0.0
C9 C 1.01009 0.07727 0.93956 0.0
C10 C 0.09297 0.95314 0.94539 0.0
Eu11 Eu 1.08116 1.00926 0.99329 0.0
C12 C 0.12182 0.93618 0.92418 0.0
C13 C 0.16206 0.91862 0.95364 0.0
C14 C 0.18531 0.89945 0.93564 0.0
C15 C 0.17124 0.89481 0.88562 0.0
C16 C 0.13115 0.91278 0.85613 0.0
C17 C 0.10773 0.93187 0.8742 0.0
C18 C 1.03145 0.95284 0.0744 0.0
C19 C 0.15763 0.98888 0.09626 0.0
O20 O 1.06275 0.11335 0.04308 0.0
O21 O 0.09654 0.0809 0.10955 0.0
O22 O 0.13763 0.08229 0.9982 0.0
O23 O 0.13563 0.08213 0.99781 0.0
O24 O 1.01517 0.06754 0.98365 0.0
O25 O 1.03631 0.05851 0.9311 0.0
O26 O 0.10713 0.95361 0.99145 0.0
O27 O 1.06699 0.98131 0.92431 0.0
O28 O 1.02956 0.98262 0.03599 0.0
O29 O 1.03111 0.98277 0.03602 0.0
O30 O 0.15177 0.99651 0.05174 0.0
O31 O 0.13143 1.00812 0.10401 0.0
H32 H 1.00776 0.16523 0.04333 0.0
H33 H 0.96547 0.19411 0.07095 0.0
H34 H 1.02557 0.12879 0.21014 0.0
H35 H 1.06727 0.09893 0.18143 0.0
H36 H 0.17615 0.91919 0.99218 0.0
H37 H 0.21558 0.88845 0.9625 0.0
H38 H 0.11649 0.91147 0.81768 0.0
H39 H 1.07723 0.94301 0.84795 0.0
C40 C 0.42636 0.8663 0.21967 0.0
Eu41 Eu 0.36963 0.80669 0.25094 0.0
C42 C 0.41869 0.90499 0.18642 0.0
C43 C 0.37279 0.90601 0.15155 0.0
C44 C 0.36618 0.94196 0.11805 0.0
C45 C 0.40568 0.97629 0.11767 0.0
C46 C 0.45097 0.97692 0.15579 0.0
C47 C 0.45731 0.94152 0.1899 0.0
C48 C 0.29659 0.74074 0.20057 0.0
C49 C 0.27782 0.85335 0.21867 0.0
C50 C 0.25183 0.71305 0.32707 0.0
Eu51 Eu 0.30856 0.76928 0.29354 0.0
C52 C 0.25596 0.6728 0.35844 0.0
C53 C 0.29927 0.66993 0.39757 0.0
C54 C 0.30151 0.632 0.42863 0.0
C55 C 0.26045 0.59659 0.4211 0.0
C56 C 0.21825 0.59862 0.37931 0.0
C57 C 0.21618 0.63638 0.34841 0.0
C58 C 0.38134 0.83727 0.34156 0.0
C59 C 0.39683 0.71931 0.32258 0.0
O60 O 0.42608 0.86796 0.26047 0.0
O61 O 0.40223 0.82805 0.20119 0.0
O62 O 0.34059 0.74568 0.21034 0.0
O63 O 0.29298 0.77067 0.21749 0.0
O64 O 0.3186 0.85558 0.21714 0.0
O65 O 0.26376 0.81925 0.24573 0.0
O66 O 0.24873 0.71104 0.28474 0.0
O67 O 0.2802 0.75007 0.34669 0.0
O68 O 0.33723 0.83252 0.331 0.0
O69 O 0.385 0.80613 0.3265 0.0
O70 O 0.35577 0.71727 0.32343 0.0
O71 O 0.41277 0.75479 0.29792 0.0
H72 H 0.34233 0.87813 0.14858 0.0
H73 H 0.33083 0.94092 0.08987 0.0
H74 H 0.48249 1.00264 0.15685 0.0
H75 H 0.49276 0.94164 0.21737 0.0
H76 H 0.33101 0.69738 0.40491 0.0
H77 H 0.3348 0.63125 0.45966 0.0
H78 H 0.18546 0.57254 0.37216 0.0
H79 H 0.18297 0.6378 0.31763 0.0
C80 C 0.66456 0.09172 0.44454 0.0
Eu81 Eu 0.61141 0.06253 0.49095 0.0
C82 C 0.68945 0.07899 0.42377 0.0
C83 C 0.68914 0.10048 0.38013 0.0
C84 C 0.7059 0.08498 0.35526 0.0
C85 C 0.72359 0.04798 0.37409 0.0
C86 C 0.72719 1.02862 0.41968 0.0
C87 C 0.70982 0.0438 0.44426 0.0
C88 C 0.63638 0.11179 0.565 0.0
C89 C 0.64809 0.98438 0.57664 0.0
C90 C 0.50963 1.00613 0.58795 0.0
Eu91 Eu 0.55867 1.02519 0.53799 0.0
C92 C 0.51945 1.02298 0.63203 0.0
C93 C 0.48361 1.01218 0.64739 0.0
C94 C 0.49044 1.03343 0.68518 0.0
C95 C 0.53316 0.06582 0.70784 0.0
C96 C 0.5701 0.07464 0.69413 0.0
C97 C 0.56319 0.05343 0.65623 0.0
C98 C 0.5312 0.97247 0.4664 0.0
C99 C 0.52509 0.10761 0.45343 0.0
O100 O 0.61831 0.07764 0.42376 0.0
O101 O 0.68156 0.08963 0.4912 0.0
O102 O 0.62689 0.12714 0.52122 0.0
O103 O 0.63005 0.07102 0.56741 0.0
O104 O 0.64418 1.00177 0.53269 0.0
O105 O 0.62201 0.99582 0.59149 0.0
O106 O 0.53718 0.98334 0.59218 0.0
O107 O 0.50382 1.03498 0.55137 0.0
O108 O 0.53767 0.95904 0.50983 0.0
O109 O 0.53933 1.01393 0.46192 0.0
O110 O 0.52339 0.08433 0.49357 0.0
O111 O 0.55565 0.10131 0.44116 0.0
H112 H 0.67349 0.12778 0.364 0.0
H113 H 0.70182 0.09997 0.31987 0.0
H114 H 0.74089 1.00011 0.43497 0.0
H115 H 0.71036 1.0269 0.47801 0.0
H116 H 0.44968 0.98882 0.62884 0.0
H117 H 0.4613 1.02626 0.69492 0.0
H118 H 0.60354 0.09902 0.71152 0.0
H119 H 0.59119 0.06204 0.64451 0.0
C120 C 0.2249 0.32583 0.68538 0.0
Eu121 Eu 0.29856 0.29437 0.73335 0.0
C122 C 0.21635 0.36525 0.69097 0.0
C123 C 0.17191 0.36231 0.68778 0.0
C124 C 0.16608 0.3956 0.70422 0.0
C125 C 0.20511 0.43151 0.72555 0.0
C126 C 0.24904 0.43549 0.7263 0.0
C127 C 0.25456 0.40263 0.70889 0.0
C128 C 0.2937 0.22088 0.70015 0.0
C129 C 0.27152 0.22609 0.8309 0.0
C130 C 0.43855 0.24145 0.84769 0.0
Eu131 Eu 0.36448 0.2721 0.79567 0.0
C132 C 0.46099 0.21457 0.83813 0.0
C133 C 0.50913 0.23059 0.84708 0.0
C134 C 0.52967 0.20686 0.83431 0.0
C135 C 0.50225 0.16676 0.81272 0.0
C136 C 0.45457 0.15016 0.80533 0.0
C137 C 0.43404 0.17389 0.8177 0.0
C138 C 0.36729 0.34824 0.82399 0.0
C139 C 0.39227 0.33929 0.69897 0.0
O140 O 0.25736 0.33174 0.67085 0.0
O141 O 0.22932 0.29706 0.72176 0.0
O142 O 0.29323 0.25853 0.67659 0.0
O143 O 0.30217 0.22476 0.74278 0.0
O144 O 0.25589 0.24942 0.78668 0.0
O145 O 0.31836 0.23104 0.84396 0.0
O146 O 0.39645 0.22204 0.84591 0.0
O147 O 0.44114 0.28069 0.82623 0.0
O148 O 0.36809 0.31146 0.84978 0.0
O149 O 0.3606 0.34204 0.78297 0.0
O150 O 0.40589 0.31172 0.74023 0.0
O151 O 0.34731 0.33926 0.6887 0.0
H152 H 0.14232 0.3333 0.67469 0.0
H153 H 0.13175 0.39194 0.70291 0.0
H154 H 0.28014 0.46198 0.74384 0.0
H155 H 0.28958 0.40486 0.71287 0.0
H156 H 0.53052 0.26181 0.86306 0.0
H157 H 0.56667 0.22 0.84076 0.0
H158 H 0.43256 0.11956 0.78821 0.0
H159 H 0.39676 0.16076 0.81014 0.0
C160 C 0.2 1.01476 0.50878 0.0
Eu161 Eu 0.12584 1.02184 0.51141 0.0
C162 C 0.22117 0.04359 0.47675 0.0
C163 C 0.20833 1.02921 0.43196 0.0
C164 C 0.21384 0.05958 0.39487 0.0
C165 C 0.23254 0.10487 0.40191 0.0
C166 C 0.24965 0.1188 0.44795 0.0
C167 C 0.24419 0.08845 0.48504 0.0
C168 C 1.03791 0.96637 0.46627 0.0
C169 C 0.09918 0.10114 0.43254 0.0
C170 C 0.97079 0.06624 0.4857 0.0
Eu171 Eu 1.0501 0.05417 0.50278 0.0
C172 C 0.94529 0.04171 0.5154 0.0
C173 C 0.96219 0.05397 0.5622 0.0
C174 C 0.9543 1.02264 0.59757 0.0
C175 C 0.92954 0.97856 0.58679 0.0
C176 C 0.90776 0.9677 0.53879 0.0
C177 C 0.91487 0.99915 0.5033 0.0
C178 C 0.13662 0.0908 0.57408 0.0
C179 C 1.08259 0.98448 0.58705 0.0
O180 O 0.20307 1.03339 0.54364 0.0
O181 O 0.15741 0.98904 0.4862 0.0
O182 O 1.07418 0.95387 0.49989 0.0
O183 O 1.04917 1.00793 0.45888 0.0
O184 O 0.12369 0.07213 0.44913 0.0
O185 O 1.06892 0.10165 0.4483 0.0
O186 O 0.97362 0.0415 0.45989 0.0
O187 O 1.01159 0.09497 0.50756 0.0
O188 O 0.09693 0.0779 0.57819 0.0
O189 O 0.12874 0.08431 0.53251 0.0
O190 O 1.04418 0.99412 0.55286 0.0
O191 O 0.12305 0.99771 0.58271 0.0
H192 H 0.1907 0.99486 0.42443 0.0
H193 H 0.20115 0.04785 0.35995 0.0
H194 H 0.26603 0.15336 0.45494 0.0
H195 H 0.25531 0.1006 0.51927 0.0
H196 H 0.98502 0.0867 0.57265 0.0
H197 H 0.96934 1.03252 0.63377 0.0
H198 H 0.88764 0.93419 0.52905 0.0
H199 H 0.90067 0.98871 0.46745 0.0
C200 C 0.37764 0.70728 0.88841 0.0
Eu201 Eu 0.33259 0.74365 0.80449 0.0
C202 C 0.42669 0.72717 0.92162 0.0
C203 C 0.45323 0.70106 0.95804 0.0
C204 C 0.50246 0.7132 0.97388 0.0
C205 C 0.52425 0.74965 0.95074 0.0
C206 C 0.49903 0.78007 0.92177 0.0
C207 C 0.4502 0.76885 0.9076 0.0
C208 C 0.25023 0.70253 0.72941 0.0
C209 C 0.38281 0.74019 0.72962 0.0
C210 C 0.26286 0.83602 0.64761 0.0
Eu211 Eu 0.3155 0.80002 0.72612 0.0
C212 C 0.22045 0.84585 0.6421 0.0
C213 C 0.21729 0.88915 0.63032 0.0
C214 C 0.18496 0.90136 0.63807 0.0
C215 C 0.15568 0.87054 0.65823 0.0
C216 C 0.15618 0.82649 0.66662 0.0
C217 C 0.1884 0.81415 0.6586 0.0
C218 C 0.39863 0.8412 0.79839 0.0
C219 C 0.27065 0.80853 0.80345 0.0
O220 O 0.34708 0.72812 0.88032 0.0
O221 O 0.37375 0.69721 0.84863 0.0
O222 O 0.25573 0.69873 0.77343 0.0
O223 O 0.2886 0.7269 0.72825 0.0
O224 O 0.38208 0.72911 0.77341 0.0
O225 O 0.35784 0.76917 0.70265 0.0
O226 O 0.26012 0.7942 0.65291 0.0
O227 O 0.30334 0.85903 0.67843 0.0
O228 O 0.39239 0.84238 0.75422 0.0
O229 O 0.3611 0.81702 0.8023 0.0
O230 O 0.27134 0.81958 0.75989 0.0
O231 O 0.29389 0.77819 0.8292 0.0
H232 H 0.43575 0.66898 0.96966 0.0
H233 H 0.52157 0.68955 0.997 0.0
H234 H 0.5151 0.80852 0.90389 0.0
H235 H 0.42994 0.78947 0.88003 0.0
H236 H 0.24159 0.91401 0.61776 0.0
H237 H 0.18373 0.93537 0.62948 0.0
H238 H 0.13318 0.80218 0.68111 0.0
H239 H 0.19018 0.78034 0.66835 0.0
C240 C 0.56822 0.13861 0.93798 0.0
Eu241 Eu 0.5795 0.06172 0.97667 0.0
C242 C 0.54271 0.16228 0.94807 0.0
C243 C 0.49416 0.14368 0.93732 0.0
C244 C 0.47307 0.15822 0.9584 0.0
C245 C 0.50003 0.19149 0.99082 0.0
C246 C 0.54734 0.21278 0.99838 0.0
C247 C 0.5685 0.19835 0.97704 0.0
C248 C 0.53528 0.98473 0.92938 0.0
C249 C 0.50036 1.02318 0.0167 0.0
C250 C 0.60068 0.91147 0.0837 0.0
Eu251 Eu 0.58469 0.98607 0.04279 0.0
C252 C 0.63018 0.89194 0.07436 0.0
C253 C 0.67975 0.91092 0.09219 0.0
C254 C 0.7061 0.90132 0.07351 0.0
C255 C 0.68338 0.8736 0.03551 0.0
C256 C 0.6343 0.8532 0.01898 0.0
C257 C 0.60815 0.86156 0.03882 0.0
C258 C 0.6271 0.06296 0.08971 0.0
C259 C 0.66018 1.02148 0.99744 0.0
O260 O 0.60764 0.13346 0.9742 0.0
O261 O 0.54242 0.10246 0.91561 0.0
O262 O 0.56171 1.02025 0.91678 0.0
O263 O 0.53278 0.99182 0.96604 0.0
O264 O 0.52774 0.05934 1.00553 0.0
O265 O 0.51215 0.98594 0.02878 0.0
O266 O 0.56048 0.91411 0.04707 0.0
O267 O 0.62291 0.94778 0.10627 0.0
O268 O 0.59963 1.02762 0.10122 0.0
O269 O 0.63096 0.056 0.0537 0.0
O270 O 0.63501 0.98662 1.01285 0.0
O271 O 0.64899 0.05895 0.98493 0.0
H272 H 0.47305 0.11586 0.91515 0.0
H273 H 0.43647 0.14134 0.95182 0.0
H274 H 0.56856 0.23918 0.02252 0.0
H275 H 0.6059 0.21334 0.98587 0.0
H276 H 0.69796 0.93551 0.11844 0.0
H277 H 0.74378 0.91797 0.08663 0.0
H278 H 0.61564 0.83217 0.9893 0.0
H279 H 0.57002 0.84683 0.02369 0.0
C280 C 0.35918 0.35134 0.38218 0.0
Eu281 Eu 0.3558 0.32197 0.30928 0.0
C282 C 0.32871 0.36123 0.39887 0.0
C283 C 0.33935 0.40369 0.41247 0.0
C284 C 0.31448 0.41197 0.43401 0.0
C285 C 0.2788 0.37777 0.4426 0.0
C286 C 0.26703 0.3358 0.42724 0.0
C287 C 0.29183 0.32757 0.40584 0.0
C288 C 0.41752 0.35825 0.2687 0.0
C289 C 0.27607 0.35697 0.20159 0.0
C290 C 0.32579 0.2452 0.15177 0.0
Eu291 Eu 0.32881 0.27804 0.22222 0.0
C292 C 0.35608 0.22937 0.14022 0.0
C293 C 0.33469 0.19691 0.10728 0.0
C294 C 0.36101 0.18781 0.08812 0.0
C295 C 0.40903 0.21139 0.10135 0.0
C296 C 0.43138 0.24114 0.13752 0.0
C297 C 0.40521 0.24948 0.15738 0.0
C298 C 0.26924 0.24194 0.26558 0.0
C299 C 0.40694 0.24183 0.32888 0.0
O300 O 0.35234 0.30991 0.37784 0.0
O301 O 0.36813 0.37729 0.34789 0.0
O302 O 0.43018 0.35441 0.31464 0.0
O303 O 0.37301 0.34409 0.24716 0.0
O304 O 0.29378 0.3538 0.25003 0.0
O305 O 0.28684 0.33159 0.18203 0.0
O306 O 0.33846 0.28738 0.15708 0.0
O307 O 0.31043 0.22114 0.18291 0.0
O308 O 0.25489 0.24537 0.21934 0.0
O309 O 0.31361 0.25617 0.28508 0.0
O310 O 0.38993 0.24557 0.28066 0.0
O311 O 0.39631 0.26717 0.34859 0.0
H312 H 0.36787 0.43013 0.40779 0.0
H313 H 0.32378 0.44483 0.4448 0.0
H314 H 0.24003 0.3087 0.43375 0.0
H315 H 0.2833 0.29438 0.39651 0.0
H316 H 0.29702 0.18028 0.09441 0.0
H317 H 0.34321 0.16389 0.06115 0.0
H318 H 0.4684 0.25965 0.1487 0.0
H319 H 0.42291 0.27303 0.18455 0.0
C320 C 0.66082 0.51394 0.98601 0.0
Eu321 Eu 0.59349 0.53154 0.99279 0.0
C322 C 0.69514 0.54632 0.96986 0.0
C323 C 0.69599 0.53924 0.92804 0.0
C324 C 0.71143 0.57498 0.90037 0.0
C325 C 0.72645 0.61805 0.91447 0.0
C326 C 0.7309 0.62463 0.95903 0.0
C327 C 0.71527 0.58895 0.98658 0.0
C328 C 0.50041 0.50411 0.92666 0.0
C329 C 0.57524 0.6217 0.94651 0.0
C330 C 0.47654 0.58368 0.03174 0.0
Eu331 Eu 0.53335 0.5571 0.0156 0.0
C332 C 0.46782 0.56953 0.07506 0.0
C333 C 0.50673 0.57252 0.12087 0.0
C334 C 0.50241 0.54385 0.15937 0.0
C335 C 0.45916 0.51224 0.15251 0.0
C336 C 0.41879 0.51338 0.10886 0.0
C337 C 0.42306 0.54204 0.07035 0.0
C338 C 0.6261 0.57903 0.08371 0.0
C339 C 0.54702 0.46444 0.0605 0.0
O340 O 0.66367 0.51965 0.02723 0.0
O341 O 0.61722 0.50612 0.95257 0.0
O342 O 0.53607 0.52386 0.91608 0.0
O343 O 0.5153 0.50246 0.97162 0.0
O344 O 0.61022 0.60334 0.96903 0.0
O345 O 0.53488 0.60167 0.94995 0.0
O346 O 0.4613 0.55223 1.00337 0.0
O347 O 0.51936 0.60785 0.03857 0.0
O348 O 0.5897 0.55852 0.09276 0.0
O349 O 0.6121 0.5845 0.03871 0.0
O350 O 0.51693 0.48779 0.04685 0.0
O351 O 0.58321 0.47784 0.04902 0.0
H352 H 0.68037 0.50675 0.91433 0.0
H353 H 0.70902 0.56925 0.86658 0.0
H354 H 0.74303 0.6576 0.9708 0.0
H355 H 0.71488 0.59547 0.01858 0.0
H356 H 0.54174 0.59368 0.12595 0.0
H357 H 0.53382 0.54355 0.19292 0.0
H358 H 0.38493 0.48937 0.10327 0.0
H359 H 0.39258 0.53917 0.03559 0.0
C360 C 0.88938 0.21471 0.3779 0.0
Eu361 Eu 0.83355 0.24848 0.30022 0.0
C362 C 0.93326 0.20902 0.38177 0.0
C363 C 0.93778 0.16659 0.3864 0.0
C364 C 0.97346 0.16047 0.3787 0.0
C365 C 1.00502 0.19667 0.36597 0.0
C366 C 1.00165 0.23922 0.36294 0.0
C367 C 0.96615 0.24541 0.37086 0.0
C368 C 0.75458 0.20496 0.22594 0.0
C369 C 0.88336 0.24703 0.22364 0.0
C370 C 0.75597 0.33301 0.13863 0.0
Eu371 Eu 0.814 0.30453 0.22013 0.0
C372 C 0.70759 0.3332 0.12654 0.0
C373 C 0.68378 0.30538 0.1537 0.0
C374 C 0.63955 0.30802 0.14577 0.0
C375 C 0.61826 0.33783 0.10991 0.0
C376 C 0.64093 0.3638 0.08099 0.0
C377 C 0.68546 0.36162 0.0894 0.0
C378 C 0.8944 0.34785 0.29255 0.0
C379 C 0.76817 0.30898 0.29927 0.0
O380 O 0.88877 0.25557 0.37345 0.0
O381 O 0.8497 0.19022 0.34764 0.0
O382 O 0.75786 0.20228 0.26928 0.0
O383 O 0.79248 0.23128 0.22475 0.0
O384 O 0.87912 0.23258 0.26544 0.0
O385 O 0.86153 0.2787 0.19864 0.0
O386 O 0.76146 0.29364 0.14654 0.0
O387 O 0.79051 0.35964 0.171 0.0
O388 O 0.88916 0.35062 0.2484 0.0
O389 O 0.85701 0.32197 0.29559 0.0
O390 O 0.7714 0.3228 0.2569 0.0
O391 O 0.78916 0.27669 0.3237 0.0
H392 H 0.91264 0.13809 0.39411 0.0
H393 H 0.97643 0.1273 0.38278 0.0
H394 H 1.02598 0.26753 0.35384 0.0
H395 H 0.96334 0.27869 0.36621 0.0
H396 H 0.70006 0.2825 0.18206 0.0
H397 H 0.62294 0.28823 0.16873 0.0
H398 H 0.62546 0.38779 0.05369 0.0
H399 H 0.70319 0.38306 0.06806 0.0
C400 C 1.04656 0.64102 0.43132 0.0
Eu401 Eu 1.06282 0.56688 0.47402 0.0
C402 C 1.01803 0.66226 0.43994 0.0
C403 C 0.96804 0.64626 0.41964 0.0
C404 C 0.94193 0.65735 0.43759 0.0
C405 C 0.96535 0.68448 0.47613 0.0
C406 C 1.0146 0.7038 0.49334 0.0
C407 C 1.04073 0.6929 0.47532 0.0
C408 C 1.02269 0.49007 0.42737 0.0
C409 C 0.98257 0.52904 0.51184 0.0
C410 C 1.08373 0.41809 0.58327 0.0
Eu411 Eu 1.06718 0.4921 0.53996 0.0
C412 C 0.12177 0.4036 0.58392 0.0
C413 C 0.1659 0.43455 0.59148 0.0
C414 C 0.19549 0.42809 0.57496 0.0
C415 C 0.18274 0.38959 0.55243 0.0
C416 C 0.14136 0.35627 0.55032 0.0
C417 C 0.11077 0.36348 0.56531 0.0
C418 C 0.11004 0.5691 0.58701 0.0
C419 C 0.14892 0.53192 0.50286 0.0
O420 O 0.08697 0.63874 0.46776 0.0
O421 O 1.02344 0.60401 0.41017 0.0
O422 O 1.05083 0.52553 0.41702 0.0
O423 O 1.01706 0.49666 0.46234 0.0
O424 O 1.01104 0.56525 0.50249 0.0
O425 O 0.99375 0.49157 0.52336 0.0
O426 O 1.04922 0.42049 0.54056 0.0
O427 O 0.0974 0.45282 0.60665 0.0
O428 O 1.08176 0.53417 0.59794 0.0
O429 O 0.1139 0.56185 0.55124 0.0
O430 O 0.12184 0.4957 0.51423 0.0
O431 O 0.13617 0.56864 0.4894 0.0
H432 H 0.94927 0.62296 0.39198 0.0
H433 H 0.90388 0.64234 0.42359 0.0
H434 H 1.03319 0.72546 0.52258 0.0
H435 H 1.07906 0.70618 0.49134 0.0
H436 H 0.17558 0.46592 0.60576 0.0
H437 H 0.22618 0.4551 0.5764 0.0
H438 H 0.13103 0.32573 0.53422 0.0
H439 H 1.07699 0.33912 0.55912 0.0
C440 C 0.73839 0.83828 0.20468 0.0
Eu441 Eu 0.80405 0.79647 0.24138 0.0
C442 C 0.73602 0.88083 0.21034 0.0
C443 C 0.69208 0.88498 0.20172 0.0
C444 C 0.69014 0.92025 0.21871 0.0
C445 C 0.73231 0.95086 0.24599 0.0
C446 C 0.77605 0.94869 0.25111 0.0
C447 C 0.77785 0.91377 0.23314 0.0
C448 C 0.77994 0.71911 0.20069 0.0
C449 C 0.77614 0.72195 0.33482 0.0
C450 C 0.93085 0.71902 0.32652 0.0
Eu451 Eu 0.86533 0.76022 0.293 0.0
C452 C 0.96869 0.71884 0.31429 0.0
C453 C 1.01626 0.72812 0.34893 0.0
C454 C 1.05071 0.71905 0.34123 0.0
C455 C 1.03815 0.70281 0.29774 0.0
C456 C 0.99185 0.69824 0.26117 0.0
C457 C 0.95728 0.7059 0.26942 0.0
C458 C 0.88504 0.83101 0.33999 0.0
C459 C 0.89397 0.83732 0.20107 0.0
O460 O 0.76392 0.83819 0.18354 0.0
O461 O 0.74623 0.8121 0.24338 0.0
O462 O 0.78314 0.75754 0.17827 0.0
O463 O 0.79289 0.72374 0.24405 0.0
O464 O 0.76568 0.75508 0.29882 0.0
O465 O 0.81708 0.71615 0.33898 0.0
O466 O 0.88709 0.70306 0.29566 0.0
O467 O 0.93634 0.75423 0.34458 0.0
O468 O 0.87923 0.79059 0.35786 0.0
O469 O 0.87458 0.83198 0.2957 0.0
O470 O 0.90356 0.8029 0.23554 0.0
O471 O 0.85381 0.84336 0.19826 0.0
H472 H 0.65957 0.85954 0.18448 0.0
H473 H 0.65599 0.9215 0.21413 0.0
H474 H 0.80908 0.97147 0.27264 0.0
H475 H 0.81205 0.91048 0.24047 0.0
H476 H 1.02616 0.74 0.38295 0.0
H477 H 0.08633 0.72276 0.3698 0.0
H478 H 0.98151 0.68555 0.22737 0.0
H479 H 0.92121 0.69955 0.24141 0.0
C480 C 0.89931 0.34165 0.68754 0.0
Eu481 Eu 0.85995 0.2979 0.74358 0.0
C482 C 0.88639 0.37712 0.6507 0.0
C483 C 0.88242 0.37486 0.60525 0.0
C484 C 0.87187 0.40891 0.57027 0.0
C485 C 0.86501 0.44605 0.5801 0.0
C486 C 0.86493 0.44628 0.62446 0.0
C487 C 0.87593 0.41224 0.65967 0.0
C488 C 0.78415 0.22624 0.714 0.0
C489 C 0.77731 0.35312 0.71858 0.0
C490 C 0.77733 0.23567 0.85719 0.0
Eu491 Eu 0.8176 0.27793 0.80137 0.0
C492 C 0.78102 0.19378 0.8854 0.0
C493 C 0.78094 0.18784 0.93041 0.0
C494 C 0.78229 0.14736 0.95651 0.0
C495 C 0.78402 0.11216 0.93802 0.0
C496 C 0.78836 0.11971 0.89473 0.0
C497 C 0.78622 0.16003 0.86828 0.0
C498 C 0.89108 0.35187 0.82805 0.0
C499 C 0.89731 0.22002 0.8236 0.0
O500 O 0.91606 0.35087 0.73202 0.0
O501 O 0.86841 0.30309 0.67812 0.0
O502 O 0.82639 0.22827 0.72048 0.0
O503 O 0.78418 0.26127 0.72572 0.0
O504 O 0.81118 0.34857 0.70908 0.0
O505 O 0.77058 0.32617 0.75446 0.0
O506 O 0.75588 0.23335 0.8106 0.0
O507 O 0.81627 0.26793 0.87121 0.0
O508 O 0.84858 0.34838 0.82182 0.0
O509 O 0.89282 0.3165 0.81862 0.0
O510 O 0.86222 0.22387 0.83163 0.0
O511 O 0.90671 0.24915 0.79025 0.0
H512 H 0.88939 0.34759 0.5974 0.0
H513 H 0.87341 0.4076 0.5371 0.0
H514 H 0.85993 0.47433 0.63315 0.0
H515 H 0.87787 0.41429 0.69438 0.0
H516 H 0.77791 0.21387 0.94451 0.0
H517 H 0.77821 0.14283 0.98942 0.0
H518 H 0.79072 0.0937 0.88003 0.0
H519 H 0.78722 0.16428 0.8338 0.0
C520 C 0.88344 0.8686 0.87492 0.0
Eu521 Eu 0.86528 0.82774 0.80237 0.0
C522 C 0.85409 0.86771 0.89857 0.0
C523 C 0.8733 0.89201 0.9387 0.0
C524 C 0.84501 0.891 0.96098 0.0
C525 C 0.79715 0.86578 0.94333 0.0
C526 C 0.77838 0.84086 0.90356 0.0
C527 C 0.80658 0.84195 0.88126 0.0
C528 C 0.90372 0.85133 0.73797 0.0
C529 C 0.77261 0.85534 0.70208 0.0
C530 C 0.7906 0.7281 0.64436 0.0
Eu531 Eu 0.81425 0.76958 0.71858 0.0
C532 C 0.8157 0.71512 0.62381 0.0
C533 C 0.78985 0.69301 0.58134 0.0
C534 C 0.81358 0.68545 0.55819 0.0
C535 C 0.86348 0.69994 0.57728 0.0
C536 C 0.88922 0.72149 0.62033 0.0
C537 C 0.86551 0.72888 0.6435 0.0
C538 C 0.77251 0.75046 0.77934 0.0
C539 C 0.9051 0.74017 0.81968 0.0
O540 O 0.89375 0.83185 0.87959 0.0
O541 O 0.87025 0.88603 0.83093 0.0
O542 O 0.92903 0.85772 0.78354 0.0
O543 O 0.86111 0.8362 0.7305 0.0
O544 O 0.79957 0.85759 0.74996 0.0
O545 O 0.77433 0.82462 0.68092 0.0
O546 O 0.79856 0.77058 0.64364 0.0
O547 O 0.79127 0.70784 0.68514 0.0
O548 O 0.74874 0.74617 0.73333 0.0
O549 O 0.81603 0.76174 0.78991 0.0
O550 O 0.87865 0.73805 0.77166 0.0
O551 O 0.90343 0.77131 0.84042 0.0
H552 H 0.90999 0.91188 0.95263 0.0
H553 H 0.86028 0.91051 0.99148 0.0
H554 H 0.74194 0.82041 0.8898 0.0
H555 H 0.79134 0.82272 0.85046 0.0
H556 H 0.75131 0.68264 0.56544 0.0
H557 H 0.79299 0.66872 0.52515 0.0
H558 H 0.92762 0.73389 0.63528 0.0
H559 H 0.88592 0.74665 0.6759 0.0
C560 C 0.57266 0.60856 0.58987 0.0
Eu561 Eu 0.5852 0.55453 0.5403 0.0
C562 C 0.54136 0.62384 0.60946 0.0
C563 C 0.5376 0.60939 0.65442 0.0
C564 C 0.51289 0.62677 0.67261 0.0
C565 C 0.48892 0.66106 0.64842 0.0
C566 C 0.49308 0.67536 0.60353 0.0
C567 C 0.51754 0.65796 0.5854 0.0
C568 C 0.63734 0.61097 0.46116 0.0
C569 C 0.51136 0.57776 0.43776 0.0
C570 C 0.59209 0.45265 0.44358 0.0
Eu571 Eu 0.58099 0.50838 0.49254 0.0
C572 C 0.6212 0.43572 0.42269 0.0
C573 C 0.65316 0.40862 0.45067 0.0
C574 C 0.67606 0.38952 0.43221 0.0
C575 C 0.67008 0.39485 0.38311 0.0
C576 C 0.63851 0.42252 0.35515 0.0
C577 C 0.61513 0.4413 0.37358 0.0
C578 C 0.53145 0.45521 0.57523 0.0
C579 C 0.65734 0.48802 0.59538 0.0
O580 O 0.56391 0.61292 0.54451 0.0
O581 O 0.59441 0.57717 0.60957 0.0
O582 O 0.63802 0.58061 0.49886 0.0
O583 O 0.63661 0.58048 0.49883 0.0
O584 O 0.51567 0.56889 0.48169 0.0
O585 O 0.5377 0.55837 0.43031 0.0
O586 O 0.60438 0.4512 0.48953 0.0
O587 O 0.56821 0.4825 0.42314 0.0
O588 O 0.52837 0.48169 0.5342 0.0
O589 O 0.53049 0.48184 0.53471 0.0
O590 O 0.65106 0.49511 0.55076 0.0
O591 O 0.63156 0.50759 0.6034 0.0
H592 H 0.55459 0.58416 0.67682 0.0
H593 H 0.51296 0.61265 0.70694 0.0
H594 H 0.47816 0.70171 0.58141 0.0
H595 H 0.51837 0.67263 0.55152 0.0
H596 H 0.66059 0.40125 0.48826 0.0
H597 H 0.69954 0.37035 0.45798 0.0
H598 H 0.63053 0.42936 0.31742 0.0
H599 H 0.59126 0.46037 0.34816 0.0
C600 C 0.16601 0.58979 0.93644 0.0
Eu601 Eu 0.11668 0.56607 0.98662 0.0
C602 C 0.18249 0.57228 0.91033 0.0
C603 C 0.17575 0.59071 0.86393 0.0
C604 C 0.18487 0.57146 0.83511 0.0
C605 C 0.20169 0.53397 0.85264 0.0
C606 C 0.21084 0.51691 0.90016 0.0
C607 C 0.20098 0.53579 0.92882 0.0
C608 C 0.14653 0.61937 0.05871 0.0
C609 C 0.15307 0.48782 0.07343 0.0
C610 C 1.02775 0.52358 0.09618 0.0
Eu611 Eu 1.06719 0.53328 0.03871 0.0
C612 C 1.04725 0.5416 0.14271 0.0
C613 C 1.01803 0.53482 0.16564 0.0
C614 C 1.03329 0.55931 0.2044 0.0
C615 C 1.07779 0.59111 0.22036 0.0
C616 C 0.10855 0.5952 0.19978 0.0
C617 C 0.09333 0.57052 0.1611 0.0
C618 C 1.03366 0.47807 0.96751 0.0
C619 C 1.02896 0.61044 0.94801 0.0
O620 O 0.12017 0.58322 0.91792 0.0
O621 O 0.18505 0.58439 0.9832 0.0
O622 O 0.13556 0.63281 1.01429 0.0
O623 O 0.13947 0.57837 0.06283 0.0
O624 O 0.14768 0.50422 0.02874 0.0
O625 O 0.12926 0.50114 0.08968 0.0
O626 O 1.04637 0.49458 0.09475 0.0
O627 O 1.02334 0.55319 0.0603 0.0
O628 O 1.03917 0.46542 1.01096 0.0
O629 O 1.04409 0.51956 0.96248 0.0
O630 O 1.02865 0.58943 0.98956 0.0
O631 O 1.0592 0.60309 0.93591 0.0
H632 H 0.16121 0.61879 0.84915 0.0
H633 H 0.17619 0.5844 0.79832 0.0
H634 H 0.2239 0.48797 0.91445 0.0
H635 H 0.20623 0.52102 0.96456 0.0
H636 H 0.98241 0.51267 0.15178 0.0
H637 H 1.00873 0.5558 0.21944 0.0
H638 H 0.14309 0.61927 0.21168 0.0
H639 H 0.11635 0.57597 0.14369 0.0
C640 C 0.1936 0.15893 0.85088 0.0
C641 C 0.23842 0.19523 0.86517 0.0
C642 C 0.16558 0.13244 0.88008 0.0
C643 C 0.17571 0.13476 0.9309 0.0
H644 H 0.17826 0.14995 0.8143 0.0
H645 H 0.1328 0.10846 0.86037 0.0
S646 S 0.28223 0.2305 0.98984 0.0
N647 N 0.28561 0.23344 0.93872 0.0
N648 N 0.23644 0.18825 0.98861 0.0
C649 C 0.21935 0.17266 0.94513 0.0
C650 C 0.24836 0.19975 0.91535 0.0
C651 C 0.22778 0.95138 0.12479 0.0
C652 C 0.18999 0.95663 0.13192 0.0
C653 C 0.25541 0.91995 0.1524 0.0
C654 C 0.24756 0.88894 0.18951 0.0
H655 H 0.23642 0.97212 0.09668 0.0
H656 H 0.28307 0.91955 0.14349 0.0
S657 S 0.15149 0.88418 0.22327 0.0
N658 N 0.14662 0.92464 0.18064 0.0
N659 N 0.19566 0.86651 0.22988 0.0
C660 C 0.20937 0.89328 0.19674 0.0
C661 C 0.18185 0.92614 0.1692 0.0
C662 C 0.45077 0.9475 0.39859 0.0
C663 C 0.49664 0.9423 0.42774 0.0
C664 C 0.41393 0.91362 0.37015 0.0
C665 C 0.42182 0.87367 0.36914 0.0
H666 H 0.44258 0.97683 0.3999 0.0
H667 H 0.37874 0.91843 0.34952 0.0
S668 S 0.53655 0.84514 0.43679 0.0
N669 N 0.54834 0.89488 0.45283 0.0
N670 N 0.47992 0.83215 0.39793 0.0
C671 C 0.46817 0.8691 0.39629 0.0
C672 C 0.50532 0.90314 0.42602 0.0
C673 C 0.51323 0.09742 0.80311 0.0
C674 C 0.52117 0.14332 0.79398 0.0
C675 C 0.52086 0.07283 0.77757 0.0
C676 C 0.53637 0.09319 0.74178 0.0
H677 H 0.49819 0.07997 0.82803 0.0
H678 H 0.51171 1.03735 0.78378 0.0
S679 S 0.56378 0.21271 0.70522 0.0
N680 N 0.54732 0.20855 0.74825 0.0
N681 N 0.56123 0.16212 0.69964 0.0
C682 C 0.54707 0.13938 0.73414 0.0
C683 C 0.53953 0.16452 0.76041 0.0
C684 C 0.12117 0.95903 0.67018 0.0
C685 C 1.07975 0.95279 0.62688 0.0
C686 C 0.14351 0.92533 0.6906 0.0
C687 C 0.1237 0.88558 0.66787 0.0
H688 H 0.14162 0.99208 0.68158 0.0
H689 H 0.18036 0.93394 0.71677 0.0
S690 S 0.99998 0.84584 0.57743 0.0
N691 N 1.00806 0.89895 0.57927 0.0
N692 N 1.05027 0.83497 0.61769 0.0
C693 C 1.07541 0.87511 0.63581 0.0
C694 C 1.05274 0.90947 0.61519 0.0
C695 C 0.43216 0.88133 0.87458 0.0
C696 C 0.43556 0.87635 0.83296 0.0
C697 C 0.4647 0.91548 0.90588 0.0
C698 C 0.50229 0.94681 0.89715 0.0
H699 H 0.40361 0.85891 0.88286 0.0
H700 H 0.45974 0.91776 0.93678 0.0
S701 S 0.52915 0.94745 0.79496 0.0
N702 N 0.48156 0.90518 0.78648 0.0
N703 N 0.54163 0.9688 0.84418 0.0
C704 C 0.5066 0.9416 0.85623 0.0
C705 C 0.47369 0.90673 0.82458 0.0
C706 C 0.43415 0.2073 0.99698 0.0
C707 C 0.47964 0.2005 0.01971 0.0
C708 C 0.41189 0.21091 0.0238 0.0
C709 C 0.43413 0.2077 0.07437 0.0
H710 H 0.41543 0.20936 0.95814 0.0
H711 H 0.37691 0.2163 1.00473 0.0
S712 S 0.5526 0.18831 0.15111 0.0
N713 N 0.5459 0.18978 0.09565 0.0
N714 N 0.50394 0.19668 0.14611 0.0
C715 C 0.47985 0.20139 0.09757 0.0
C716 C 0.50261 0.19775 0.07022 0.0
C717 C 0.25338 0.13176 0.33229 0.0
C718 C 0.23425 0.13753 0.36137 0.0
C719 C 0.26003 0.1644 0.29719 0.0
C720 C 0.24738 0.20366 0.2897 0.0
H721 H 0.26573 0.10298 0.33847 0.0
H722 H 0.27818 0.16025 0.278 0.0
S723 S 0.18901 0.23184 0.35039 0.0
N724 N 0.19748 0.18334 0.37604 0.0
N725 N 0.21074 0.24485 0.31019 0.0
C726 C 0.22541 0.20865 0.31604 0.0
C727 C 0.21866 0.17551 0.35188 0.0
C728 C 0.9303 0.18941 0.22548 0.0
C729 C 0.9113 0.22699 0.20391 0.0
C730 C 0.95406 0.171 0.20708 0.0
C731 C 0.96262 0.18756 0.16477 0.0
H732 H 0.92635 0.17302 0.25756 0.0
H733 H 0.96534 0.14205 0.22651 0.0
S734 S 0.92163 0.28625 0.09202 0.0
N735 N 0.90439 0.27932 0.13498 0.0
N736 N 0.94767 0.24722 0.1027 0.0
C737 C 0.9437 0.22526 0.14289 0.0
C738 C 0.9192 0.2438 0.16142 0.0
C739 C 0.18897 0.50734 0.46767 0.0
C740 C 0.19225 0.53141 0.50173 0.0
C741 C 0.22229 0.52264 0.44837 0.0
C742 C 0.25682 0.56363 0.46083 0.0
H743 H 0.15743 0.48077 0.45116 0.0
H744 H 0.21483 0.50762 0.41698 0.0
S745 S 0.29392 0.62208 0.56777 0.0
N746 N 0.24321 0.58499 0.56174 0.0
N747 N 0.30516 0.61468 0.52463 0.0
C748 C 0.26755 0.57989 0.50394 0.0
C749 C 0.23421 0.5641 0.52392 0.0
C750 C 0.69698 0.9275 0.59066 0.0
C751 C 0.68046 0.95189 0.60913 0.0
C752 C 0.72515 0.89699 0.61989 0.0
C753 C 0.74066 0.88843 0.67078 0.0
H754 H 0.68752 0.93151 0.55254 0.0
H755 H 0.73543 0.8801 0.60196 0.0
S756 S 0.70927 0.94314 0.73968 0.0
N757 N 0.68339 0.96361 0.6841 0.0
N758 N 0.73597 0.90929 0.73735 0.0
C759 C 0.72493 0.91302 0.6898 0.0
C760 C 0.6954 0.94337 0.65991 0.0
C761 C 0.43539 0.43319 0.91853 0.0
C762 C 0.45929 0.46902 0.89672 0.0
C763 C 0.40376 0.39516 0.89398 0.0
C764 C 0.3936 0.39173 0.84607 0.0
H765 H 0.44297 0.43349 0.95575 0.0
H766 H 0.38854 0.36756 0.91333 0.0
S767 S 0.43973 0.47964 0.7696 0.0
N768 N 0.46591 0.50068 0.82241 0.0
N769 N 0.40538 0.43021 0.77579 0.0
C770 C 0.41388 0.42895 0.82246 0.0
C771 C 0.44687 0.46731 0.84783 0.0
C772 C 0.94694 0.85773 0.42049 0.0
C773 C 0.91946 0.86792 0.37162 0.0
C774 C 0.98407 0.89013 0.45049 0.0
C775 C 0.99477 0.93462 0.43381 0.0
H776 H 0.94124 0.82396 0.43552 0.0
H777 H 1.00552 0.87994 0.48695 0.0
S778 S 0.93166 0.97991 0.3099 0.0
N779 N 0.90473 0.92647 0.30829 0.0
N780 N 0.97313 0.98778 0.36553 0.0
C781 C 0.96625 0.94592 0.38567 0.0
C782 C 0.92901 0.91252 0.35448 0.0
C783 C 0.467 0.67543 0.71831 0.0
C784 C 0.46143 0.68124 0.66915 0.0
C785 C 0.44318 0.69342 0.73712 0.0
C786 C 0.41038 0.71996 0.70948 0.0
H787 H 0.49093 0.65647 0.7438 0.0
H788 H 0.45118 0.68618 0.77485 0.0
S789 S 0.37685 0.7447 0.5776 0.0
N790 N 0.41502 0.71583 0.59324 0.0
N791 N 0.37337 0.74829 0.62707 0.0
C792 C 0.40392 0.72556 0.66031 0.0
C793 C 0.42794 0.70714 0.64108 0.0
C794 C 0.74567 1.03716 0.02297 0.0
C795 C 0.69915 1.01849 0.98982 0.0
C796 C 0.78076 0.06004 1.007 0.0
C797 C 0.76845 0.06672 0.95738 0.0
H798 H 0.7531 0.03987 0.0597 0.0
H799 H 0.81411 0.07981 0.03206 0.0
S800 S 0.6573 1.00711 0.8611 0.0
N801 N 0.64752 0.99406 0.90962 0.0
N802 N 0.7126 1.03848 0.87878 0.0
C803 C 0.72591 1.0387 0.92652 0.0
C804 C 0.69071 1.01471 0.943 0.0
C805 C 0.19512 0.4419 0.15512 0.0
C806 C 0.18478 0.45438 0.10545 0.0
C807 C 0.22366 0.41173 0.18503 0.0
C808 C 0.2443 0.39011 0.1683 0.0
H809 H 0.18108 0.45597 0.17176 0.0
H810 H 0.22929 0.40511 0.22218 0.0
S811 S 0.23017 0.40978 0.04153 0.0
N812 N 0.20005 0.44108 0.04226 0.0
N813 N 0.25104 0.38565 0.09612 0.0
C814 C 0.23411 0.4022 0.11862 0.0
C815 C 0.20559 0.4334 0.08837 0.0
C816 C 0.77811 0.68874 0.89611 0.0
C817 C 0.73454 0.65608 0.88129 0.0
C818 C 0.78834 0.72208 0.86331 0.0
C819 C 0.75535 0.72366 0.81468 0.0
H820 H 0.80534 0.68719 0.93255 0.0
H821 H 0.82351 0.74511 0.87554 0.0
S822 S 0.63215 0.65163 0.76144 0.0
N823 N 0.65512 0.63153 0.81762 0.0
N824 N 0.67457 0.69419 0.75553 0.0
C825 C 0.70994 0.69377 0.80071 0.0
C826 C 0.69956 0.65978 0.83415 0.0
C827 C 0.53962 0.3513 0.0621 0.0
C828 C 0.57763 0.34902 0.10746 0.0
C829 C 0.51932 0.38632 0.04878 0.0
C830 C 0.5369 0.41923 0.08066 0.0
H831 H 0.5316 0.331 0.03442 0.0
H832 H 0.4967 0.39186 1.01115 0.0
S833 S 0.61899 0.41577 0.20905 0.0
N834 N 0.61945 0.37286 0.18884 0.0
N835 N 0.58083 0.43893 0.16305 0.0
C836 C 0.56566 0.41081 0.12892 0.0
C837 C 0.58637 0.37521 0.14268 0.0
C838 C 0.95494 0.41905 0.40183 0.0
C839 C 0.99199 0.45252 0.39427 0.0
C840 C 0.92461 0.38508 0.36971 0.0
C841 C 0.92955 0.38267 0.32817 0.0
H842 H 0.94877 0.41941 0.43253 0.0
H843 H 0.89639 0.36085 0.37716 0.0
S844 S 1.02239 0.46062 0.2927 0.0
N845 N 1.03272 0.47954 0.34246 0.0
N846 N 0.97629 0.41656 0.28283 0.0
C847 C 0.96714 0.41536 0.32083 0.0
C848 C 0.99803 0.44987 0.35351 0.0
C849 C 0.71956 0.62853 0.43407 0.0
C850 C 0.67761 0.6367 0.43354 0.0
C851 C 0.74883 0.65369 0.40527 0.0
C852 C 0.7429 0.69242 0.3693 0.0
H853 H 0.73089 0.60094 0.45767 0.0
H854 H 0.77798 0.64127 0.41196 0.0
S855 S 0.64111 0.73422 0.34965 0.0
N856 N 0.63617 0.69243 0.38912 0.0
N857 N 0.68636 0.7353 0.34001 0.0
C858 C 0.70154 0.70085 0.36894 0.0
C859 C 0.67192 0.67543 0.39811 0.0
C860 C 0.96724 0.37243 0.90199 0.0
C861 C 0.93253 0.38541 0.85869 0.0
C862 C 1.00107 0.40316 0.93618 0.0
C863 C 1.00214 0.44809 0.92781 0.0
H864 H 0.96649 0.33795 0.91077 0.0
H865 H 1.02571 0.39142 0.97011 0.0
S866 S 0.92166 0.49923 0.81765 0.0
N867 N 0.90277 0.44629 0.80794 0.0
N868 N 0.96751 0.50432 0.87109 0.0
C869 C 0.96946 0.46183 0.88326 0.0
C870 C 0.93428 0.43037 0.84904 0.0
C871 C 0.97073 0.8635 0.16867 0.0
C872 C 0.92683 0.86817 0.16656 0.0
C873 C 0.99935 0.88946 0.14011 0.0
C874 C 0.99141 0.92615 0.10212 0.0
H875 H 0.98477 0.83803 0.19439 0.0
H876 H 1.03067 0.87946 0.14906 0.0
S877 S 0.88221 0.95983 0.07618 0.0
N878 N 0.87956 0.91923 0.11758 0.0
N879 N 0.92938 0.96402 0.06811 0.0
C880 C 0.94737 0.93181 0.09923 0.0
C881 C 0.91787 0.90522 0.12879 0.0
C882 C 0.95533 0.17054 0.83771 0.0
C883 C 0.92545 0.18271 0.8518 0.0
C884 C 0.98076 0.13675 0.86347 0.0
C885 C 0.97918 0.11158 0.90633 0.0
H886 H 0.95945 0.18753 0.80588 0.0
H887 H 1.00275 0.13105 0.84975 0.0
S888 S 0.90839 0.12947 0.96171 0.0
N889 N 0.8984 0.16499 0.91433 0.0
N890 N 0.94358 0.1041 0.96065 0.0
C891 C 0.94947 0.1237 0.92057 0.0
C892 C 0.92374 0.15778 0.89441 0.0
C893 C 0.74167 0.15207 0.68149 0.0
C894 C 0.74158 0.19577 0.6804 0.0
C895 C 0.70564 0.12411 0.64554 0.0
C896 C 0.66904 0.13936 0.60635 0.0
H897 H 0.77063 0.13979 0.70964 0.0
H898 H 0.708 0.09112 0.64714 0.0
S899 S 0.65058 0.24992 0.58846 0.0
N900 N 0.69964 0.25192 0.63892 0.0
N901 N 0.63301 0.19989 0.57023 0.0
C902 C 0.66743 0.18238 0.60581 0.0
C903 C 0.70343 0.21048 0.64317 0.0
C904 C 0.7066 0.97954 0.33847 0.0
C905 C 0.72965 1.02478 0.34286 0.0
C906 C 0.70747 0.95653 0.30655 0.0
C907 C 0.73112 0.97781 0.27739 0.0
H908 H 0.68673 0.96179 0.35915 0.0
H909 H 0.68966 0.92153 0.30501 0.0
S910 S 0.79777 0.09579 0.27552 0.0
N911 N 0.77771 0.09018 0.31611 0.0
N912 N 0.77876 0.04649 0.25505 0.0
C913 C 0.75479 1.02298 0.2815 0.0
C914 C 0.75397 0.04662 0.31431 0.0
C915 C 1.03399 0.15373 0.33547 0.0
C916 C 1.04424 0.18919 0.36145 0.0
C917 C 1.06605 0.12847 0.35136 0.0
C918 C 0.10527 0.13572 0.39623 0.0
H919 H 0.99838 0.14095 0.30852 0.0
H920 H 1.05348 0.09709 0.33591 0.0
S921 S 0.15932 0.23714 0.46101 0.0
N922 N 0.10624 0.2413 0.42022 0.0
N923 N 0.16438 0.19109 0.45169 0.0
C924 C 0.12244 0.17798 0.41278 0.0
C925 C 0.09096 0.20483 0.39605 0.0
C926 C 0.68438 0.13603 0.19708 0.0
C927 C 0.72086 0.17033 0.18945 0.0
C928 C 0.6543 0.10224 0.16464 0.0
C929 C 0.65886 0.10069 0.12261 0.0
H930 H 0.67927 0.13488 0.22881 0.0
H931 H 0.62735 0.07676 0.17296 0.0
S932 S 0.74835 0.18231 0.08503 0.0
N933 N 0.75924 0.20009 0.13564 0.0
N934 N 0.70322 0.13741 0.0755 0.0
C935 C 0.69485 0.13498 0.11428 0.0
C936 C 0.72553 0.16937 0.14731 0.0
C937 C 0.78294 0.85941 0.01613 0.0
C938 C 0.76674 0.86606 0.96597 0.0
C939 C 0.75532 0.86082 0.03829 0.0
C940 C 0.71048 0.86896 1.0111 0.0
H941 H 0.81723 0.85304 0.03842 0.0
H942 H 0.76925 0.85568 0.07704 0.0
S943 S 0.65292 0.89053 0.87877 0.0
N944 N 0.70365 0.88225 0.88989 0.0
N945 N 0.65188 0.88513 0.93145 0.0
C946 C 0.69386 0.87557 0.9609 0.0
C947 C 0.72194 0.87408 0.93837 0.0
C948 C 0.88253 0.91226 0.61719 0.0
C949 C 0.92621 0.94378 0.62517 0.0
C950 C 0.87731 0.88041 0.6531 0.0
C951 C 0.91516 0.87925 0.69917 0.0
H952 H 0.85148 0.91302 0.58343 0.0
H953 H 0.84226 0.85799 0.64515 0.0
S954 S 1.03917 0.94947 0.73569 0.0
N955 N 1.01015 0.96784 0.67997 0.0
N956 N 0.99942 0.909 0.74892 0.0
C957 C 0.95989 0.90881 0.70694 0.0
C958 C 0.96554 0.94095 0.6697 0.0
C959 C 0.21554 0.85989 0.7976 0.0
C960 C 0.24499 0.83031 0.82437 0.0
C961 C 0.19276 0.87912 0.81642 0.0
C962 C 0.19692 0.87234 0.86501 0.0
H963 H 0.20971 0.86868 0.76064 0.0
H964 H 0.17152 0.90058 0.79175 0.0
S965 S 0.26956 0.79778 0.95366 0.0
N966 N 0.27546 0.79604 0.90502 0.0
N967 N 0.23547 0.83067 0.93894 0.0
C968 C 0.22661 0.84288 0.89226 0.0
C969 C 0.24926 0.82288 0.87287 0.0
C970 C 0.94734 0.54246 0.55866 0.0
C971 C 0.94083 0.53053 0.51537 0.0
C972 C 0.91297 0.52201 0.57603 0.0
C973 C 0.87308 0.48793 0.55107 0.0
H974 H 0.98175 0.56195 0.58245 0.0
H975 H 0.92286 0.52641 0.61302 0.0
S976 S 0.83052 0.46314 0.42583 0.0
N977 N 0.88488 0.49641 0.44032 0.0
N978 N 0.81957 0.45871 0.47284 0.0
C979 C 0.86065 0.48595 0.50235 0.0
C980 C 0.89577 0.50616 0.48486 0.0
C981 C 0.48799 0.15779 0.37436 0.0
C982 C 0.49428 0.14165 0.42238 0.0
C983 C 0.46047 0.18878 0.3452 0.0
C984 C 0.43736 0.20781 0.36144 0.0
H985 H 0.50437 0.14594 0.35842 0.0
H986 H 0.45777 0.19827 0.30915 0.0
S987 S 0.44115 0.17855 0.48416 0.0
N988 N 0.4728 0.14874 0.48361 0.0
N989 N 0.42391 0.20613 0.43118 0.0
C990 C 0.44364 0.19222 0.40955 0.0
C991 C 0.47087 0.15994 0.43889 0.0
C992 C 0.70582 0.63585 0.10418 0.0
C993 C 0.67018 0.60869 0.11833 0.0
C994 C 0.74241 0.67045 0.13188 0.0
C995 C 0.74586 0.67833 0.17575 0.0
H996 H 0.70399 0.63198 0.07008 0.0
H997 H 0.76724 0.69211 0.11801 0.0
S998 S 0.667 0.61158 0.23375 0.0
N999 N 0.64455 0.58882 0.1825 0.0
N1000 N 0.71379 0.65245 0.23495 0.0
C1001 C 0.71315 0.64881 0.19254 0.0
C1002 C 0.67536 0.61422 0.16389 0.0
C1003 C 0.22659 0.15129 0.68729 0.0
C1004 C 0.26134 0.18089 0.6733 0.0
C1005 C 0.18741 0.121 0.65561 0.0
C1006 C 0.18169 0.11873 0.60894 0.0
H1007 H 0.22782 0.15354 0.72163 0.0
H1008 H 0.16043 0.10035 0.66717 0.0
S1009 S 0.26585 0.18557 0.55715 0.0
N1010 N 0.28947 0.20359 0.61114 0.0
N1011 N 0.21685 0.14614 0.5523 0.0
C1012 C 0.21802 0.14596 0.59591 0.0
C1013 C 0.25752 0.17713 0.6279 0.0
C1014 C 0.72658 0.36988 0.30072 0.0
C1015 C 0.7424 0.33041 0.32035 0.0
C1016 C 0.70494 0.3896 0.3204 0.0
C1017 C 0.69532 0.37245 0.36201 0.0
H1018 H 0.73151 0.38682 0.26927 0.0
H1019 H 0.69648 0.42009 0.30267 0.0
S1020 S 0.72805 0.26905 0.42981 0.0
N1021 N 0.74539 0.27582 0.38692 0.0
N1022 N 0.70558 0.31028 0.42128 0.0
C1023 C 0.7111 0.33294 0.38203 0.0
C1024 C 0.7336 0.31311 0.36231 0.0
C1025 C 0.46533 0.05512 0.05154 0.0
C1026 C 0.45934 1.02484 0.02175 0.0
C1027 C 0.4367 0.0444 0.076 0.0
C1028 C 0.4037 1.00248 0.07239 0.0
H1029 H 0.49607 0.08369 0.06132 0.0
H1030 H 0.44705 0.06467 0.10462 0.0
S1031 S 0.35964 0.92476 0.9791 0.0
N1032 N 0.4068 0.96144 0.9751 0.0
N1033 N 0.35304 0.94099 0.02108 0.0
C1034 C 0.38939 0.97861 0.03289 0.0
C1035 C 0.41835 0.98941 1.00817 0.0
C1036 C 0.97949 0.66757 0.93246 0.0
C1037 C 0.99639 0.6428 0.9148 0.0
C1038 C 0.95163 0.69827 0.90259 0.0
C1039 C 0.93659 0.70662 0.85169 0.0
H1040 H 0.98859 0.66388 0.97049 0.0
H1041 H 0.94125 0.71552 0.92007 0.0
S1042 S 0.96849 0.65035 0.78457 0.0
N1043 N 0.99401 0.63028 0.84043 0.0
N1044 N 0.94183 0.68467 0.78603 0.0
C1045 C 0.95253 0.68148 0.83346 0.0
C1046 C 0.98189 0.65105 0.86403 0.0
C1047 C 0.46426 0.47672 0.23304 0.0
C1048 C 0.45778 0.47333 0.18656 0.0
C1049 C 0.4563 0.4386 0.26257 0.0
C1050 C 0.44186 0.39636 0.24623 0.0
H1051 H 0.47277 0.50871 0.24544 0.0
H1052 H 0.45778 0.4422 0.29664 0.0
S1053 S 0.42987 0.37103 0.1313 0.0
N1054 N 0.44369 0.42534 0.12859 0.0
N1055 N 0.42816 0.35402 0.18378 0.0
C1056 C 0.43956 0.3931 0.20164 0.0
C1057 C 0.44771 0.43158 0.1718 0.0
C1058 C 0.55093 0.68509 0.89363 0.0
C1059 C 0.58526 0.66945 0.93487 0.0
C1060 C 0.53896 0.72225 0.89492 0.0
C1061 C 0.55892 0.74219 0.93855 0.0
H1062 H 0.52838 0.66495 0.86313 0.0
H1063 H 0.50737 0.72912 0.86506 0.0
S1064 S 0.66369 0.72489 0.04835 0.0
N1065 N 0.65121 0.68686 1.0131 0.0
N1066 N 0.62435 0.75318 0.01757 0.0
C1067 C 0.60012 0.73303 0.97565 0.0
C1068 C 0.61417 0.6969 0.97331 0.0
C1069 C 0.14285 0.60534 0.66536 0.0
C1070 C 0.14431 0.60522 0.62129 0.0
C1071 C 0.17595 0.63731 0.69917 0.0
C1072 C 0.21286 0.67062 0.69124 0.0
H1073 H 0.1161 0.58012 0.67423 0.0
H1074 H 0.17298 0.63549 0.73223 0.0
S1075 S 0.23054 0.6879 0.58007 0.0
N1076 N 0.18436 0.64397 0.57059 0.0
N1077 N 0.24664 0.70257 0.63391 0.0
C1078 C 0.21391 0.67158 0.64675 0.0
C1079 C 0.17988 0.63938 0.61209 0.0
C1080 C 0.47285 0.40271 0.6813 0.0
C1081 C 0.42578 0.36958 0.66511 0.0
C1082 C 0.50151 0.42894 0.65279 0.0
C1083 C 0.48993 0.42952 0.6011 0.0
H1084 H 0.48953 0.40915 0.71887 0.0
H1085 H 0.53598 0.45026 0.67374 0.0
S1086 S 0.37554 0.34322 0.53551 0.0
N1087 N 0.37398 0.33747 0.58803 0.0
N1088 N 0.42396 0.3829 0.53896 0.0
C1089 C 0.44361 0.39497 0.5845 0.0
C1090 C 0.4141 0.36785 0.61373 0.0
C1091 C 0.26183 0.66879 0.16308 0.0
C1092 C 0.25595 0.7087 0.16711 0.0
C1093 C 0.22518 0.63889 0.12953 0.0
C1094 C 0.18185 0.64846 0.09787 0.0
H1095 H 0.29523 0.66079 0.18575 0.0
H1096 H 0.23156 0.60893 0.127 0.0
S1097 S 0.14753 0.74725 0.09511 0.0
N1098 N 0.20221 0.7549 0.13841 0.0
N1099 N 0.13421 0.69954 0.07375 0.0
C1100 C 0.17506 0.6877 0.10211 0.0
C1101 C 0.21187 0.71761 0.13722 0.0
C1102 C 0.7482 0.41271 0.64584 0.0
C1103 C 0.74718 0.38854 0.68909 0.0
C1104 C 0.72074 0.44413 0.61813 0.0
C1105 C 0.68969 0.45582 0.63075 0.0
H1106 H 0.77022 0.40683 0.63227 0.0
H1107 H 0.72392 0.4595 0.58541 0.0
S1108 S 0.67172 0.40352 0.7404 0.0
N1109 N 0.70999 0.38019 0.74219 0.0
N1110 N 0.66069 0.43796 0.69198 0.0
C1111 C 0.68852 0.43227 0.67419 0.0
C1112 C 0.71614 0.39964 0.70228 0.0
C1113 C 1.06998 0.63968 0.31307 0.0
C1114 C 1.06891 0.68254 0.2922 0.0
C1115 C 1.07867 0.61091 0.29288 0.0
C1116 C 0.08707 0.62452 0.25165 0.0
H1117 H 1.05855 0.62667 0.34147 0.0
H1118 H 1.07441 0.57678 0.30679 0.0
S1119 S 0.09923 0.737 0.1912 0.0
N1120 N 0.0851 0.73974 0.23405 0.0
N1121 N 0.10244 0.68611 0.19627 0.0
C1122 C 0.09273 0.6692 0.23484 0.0
C1123 C 1.08333 0.69822 0.25513 0.0
C1124 C 0.89871 0.7036 0.47765 0.0
C1125 C 0.93952 0.68833 0.50199 0.0
C1126 C 0.87379 0.70667 0.50208 0.0
C1127 C 0.88871 0.69421 0.55152 0.0
H1128 H 0.88643 0.71377 0.43973 0.0
H1129 H 0.84317 0.71962 0.48235 0.0
S1130 S 0.98991 0.64688 0.62975 0.0
N1131 N 0.99158 0.65743 0.57698 0.0
N1132 N 0.94439 0.6625 0.62271 0.0
C1133 C 0.92855 0.67752 0.57572 0.0
C1134 C 0.95403 0.67473 0.55098 0.0
C1135 C 0.49693 0.65101 0.37787 0.0
C1136 C 0.48019 0.61113 0.40251 0.0
C1137 C 0.47082 0.68436 0.35282 0.0
C1138 C 0.42506 0.68166 0.34952 0.0
H1139 H 0.53178 0.65759 0.37913 0.0
H1140 H 0.48756 0.71337 0.33619 0.0
S1141 S 0.36159 0.583 0.40369 0.0
N1142 N 0.41207 0.57196 0.41907 0.0
N1143 N 0.36429 0.63128 0.37273 0.0
C1144 C 0.40768 0.64137 0.37305 0.0
C1145 C 0.43444 0.60783 0.39892 0.0
C1146 C 0.18131 0.43952 0.78635 0.0
C1147 C 0.20219 0.45975 0.75453 0.0
C1148 C 0.18185 0.46393 0.81805 0.0
C1149 C 0.20376 0.50947 0.81965 0.0
H1150 H 0.16539 0.40423 0.78775 0.0
H1151 H 0.16469 0.44692 0.84138 0.0
S1152 S 0.26338 0.57842 0.74375 0.0
N1153 N 0.24422 0.52824 0.72543 0.0
N1154 N 0.24709 0.57418 0.78696 0.0
C1155 C 0.22459 0.53039 0.7879 0.0
C1156 C 0.2235 0.50549 0.755 0.0
C1157 C 0.20575 0.36789 0.45308 0.0
C1158 C 0.25535 0.3843 0.46991 0.0
C1159 C 0.18293 0.36944 0.48022 0.0
C1160 C 0.20881 0.38666 0.52587 0.0
H1161 H 0.18431 0.3537 0.41852 0.0
H1162 H 0.14449 0.35745 0.46482 0.0
S1163 S 0.33982 0.43393 0.58637 0.0
N1164 N 0.32974 0.41976 0.53434 0.0
N1165 N 0.28729 0.41994 0.58692 0.0
C1166 C 0.25858 0.40329 0.54312 0.0
C1167 C 0.2817 0.40284 0.51478 0.0
loop_
_geom_bond_atom_site_label_1
_geom_bond_atom_site_label_2
_geom_bond_distance
_geom_bond_site_symmetry_2
_ccdc_geom_bond_type
C0 Eu1 2.835 . S
C0 C2 1.500 1_455 S
C0 O20 1.257 1_455 S
C0 O21 1.260 . S
Eu1 C0 2.835 . S
Eu1 O20 2.473 1_455 S
Eu1 O21 2.480 . S
Eu1 O22 2.430 . S
Eu1 O23 2.670 1_554 S
Eu1 O24 2.394 1_454 S
Eu1 O29 2.355 1_445 S
Eu1 O31 2.374 1_545 S
C2 C0 1.500 1_655 S
C2 C3 1.377 1_655 S
C2 C7 1.377 . S
C3 C2 1.377 1_455 S
C3 C4 1.395 . S
C3 H32 0.931 . S
C4 C3 1.395 . S
C4 C5 1.383 1_455 S
C4 H33 0.931 . S
C5 C4 1.383 1_655 S
C5 C6 1.394 . S
C6 C5 1.394 . S
C6 C7 1.378 . S
C6 H34 0.931 . S
C7 C2 1.377 . S
C7 C6 1.378 . S
C7 H35 0.931 . S
C8 O22 1.259 1_556 S
C8 O23 1.270 . S
C9 O24 1.251 . S
C9 O25 1.251 . S
C10 Eu11 2.836 . S
C10 C12 1.499 1_655 S
C10 O26 1.257 1_655 S
C10 O27 1.262 . S
Eu11 C10 2.836 . S
Eu11 O23 2.355 1_665 S
Eu11 O25 2.374 1_565 S
Eu11 O26 2.473 1_655 S
Eu11 O27 2.480 . S
Eu11 O28 2.430 . S
Eu11 O29 2.670 1_556 S
Eu11 O30 2.394 1_656 S
C12 C10 1.499 1_455 S
C12 C13 1.377 1_455 S
C12 C17 1.377 . S
C13 C12 1.377 1_655 S
C13 C14 1.395 . S
C13 H36 0.931 . S
C14 C13 1.395 . S
C14 C15 1.383 1_655 S
C14 H37 0.931 . S
C15 C14 1.383 1_455 S
C15 C16 1.394 . S
C16 C15 1.394 . S
C16 C17 1.378 . S
C16 H38 0.931 . S
C17 C12 1.377 . S
C17 C16 1.378 . S
C17 H39 0.931 . S
C18 O28 1.259 1_554 S
C18 O29 1.270 . S
C19 O30 1.251 . S
C19 O31 1.251 . S
O20 C0 1.257 1_655 S
O20 Eu1 2.473 1_655 S
O21 C0 1.260 . S
O21 Eu1 2.480 . S
O22 Eu1 2.430 . S
O22 C8 1.259 1_554 S
O23 Eu1 2.670 1_556 S
O23 C8 1.270 . S
O23 Eu11 2.355 1_445 S
O24 Eu1 2.394 1_656 S
O24 C9 1.251 . S
O25 C9 1.251 . S
O25 Eu11 2.374 1_545 S
O26 C10 1.257 1_455 S
O26 Eu11 2.473 1_455 S
O27 C10 1.262 . S
O27 Eu11 2.480 . S
O28 Eu11 2.430 . S
O28 C18 1.259 1_556 S
O29 Eu1 2.355 1_665 S
O29 Eu11 2.670 1_554 S
O29 C18 1.270 . S
O30 Eu11 2.394 1_454 S
O30 C19 1.251 . S
O31 Eu1 2.374 1_565 S
O31 C19 1.251 . S
H32 C3 0.931 . S
H33 C4 0.931 . S
H34 C6 0.931 . S
H35 C7 0.931 . S
H36 C13 0.931 . S
H37 C14 0.931 . S
H38 C16 0.931 . S
H39 C17 0.931 . S
C40 Eu41 2.835 . S
C40 C42 1.500 . S
C40 O60 1.257 . S
C40 O61 1.260 . S
Eu41 C40 2.835 . S
Eu41 O60 2.473 . S
Eu41 O61 2.480 . S
Eu41 O62 2.430 . S
Eu41 O63 2.670 . S
Eu41 O64 2.394 . S
Eu41 O69 2.355 . S
Eu41 O71 2.374 . S
C42 C40 1.500 . S
C42 C43 1.377 . S
C42 C47 1.377 . S
C43 C42 1.377 . S
C43 C44 1.395 . S
C43 H72 0.931 . S
C44 C43 1.395 . S
C44 C45 1.383 . S
C44 H73 0.931 . S
C45 C44 1.383 . S
C45 C46 1.394 . S
C46 C45 1.394 . S
C46 C47 1.378 . S
C46 H74 0.931 . S
C47 C42 1.377 . S
C47 C46 1.378 . S
C47 H75 0.931 . S
C48 O62 1.259 . S
C48 O63 1.270 . S
C49 O64 1.251 . S
C49 O65 1.251 . S
C50 Eu51 2.835 . S
C50 C52 1.500 . S
C50 O66 1.257 . S
C50 O67 1.260 . S
Eu51 C50 2.835 . S
Eu51 O63 2.355 . S
Eu51 O65 2.374 . S
Eu51 O66 2.473 . S
Eu51 O67 2.480 . S
Eu51 O68 2.430 . S
Eu51 O69 2.670 . S
Eu51 O70 2.394 . S
C52 C50 1.500 . S
C52 C53 1.377 . S
C52 C57 1.377 . S
C53 C52 1.377 . S
C53 C54 1.395 . S
C53 H76 0.931 . S
C54 C53 1.395 . S
C54 C55 1.383 . S
C54 H77 0.931 . S
C55 C54 1.383 . S
C55 C56 1.394 . S
C56 C55 1.394 . S
C56 C57 1.378 . S
C56 H78 0.931 . S
C57 C52 1.377 . S
C57 C56 1.378 . S
C57 H79 0.931 . S
C58 O68 1.259 . S
C58 O69 1.270 . S
C59 O70 1.251 . S
C59 O71 1.251 . S
O60 C40 1.257 . S
O60 Eu41 2.473 . S
O61 C40 1.260 . S
O61 Eu41 2.480 . S
O62 Eu41 2.430 . S
O62 C48 1.259 . S
O63 Eu41 2.670 . S
O63 C48 1.270 . S
O63 Eu51 2.355 . S
O64 Eu41 2.394 . S
O64 C49 1.251 . S
O65 C49 1.251 . S
O65 Eu51 2.374 . S
O66 C50 1.257 . S
O66 Eu51 2.473 . S
O67 C50 1.260 . S
O67 Eu51 2.480 . S
O68 Eu51 2.430 . S
O68 C58 1.259 . S
O69 Eu41 2.355 . S
O69 Eu51 2.670 . S
O69 C58 1.270 . S
O70 Eu51 2.394 . S
O70 C59 1.251 . S
O71 Eu41 2.374 . S
O71 C59 1.251 . S
H72 C43 0.931 . S
H73 C44 0.931 . S
H74 C46 0.931 . S
H75 C47 0.931 . S
H76 C53 0.931 . S
H77 C54 0.931 . S
H78 C56 0.931 . S
H79 C57 0.931 . S
C80 Eu81 2.835 1_565 S
C80 C82 1.500 . S
C80 O100 1.257 . S
C80 O101 1.260 1_565 S
Eu81 C80 2.835 1_545 S
Eu81 O100 2.473 1_545 S
Eu81 O101 2.480 . S
Eu81 O102 2.430 . S
Eu81 O103 2.670 . S
Eu81 O104 2.394 1_545 S
Eu81 O109 2.355 1_545 S
Eu81 O111 2.374 . S
C82 C80 1.500 . S
C82 C83 1.377 . S
C82 C87 1.377 . S
C83 C82 1.377 . S
C83 C84 1.395 . S
C83 H112 0.931 1_565 S
C84 C83 1.395 . S
C84 C85 1.383 . S
C84 H113 0.931 . S
C85 C84 1.383 . S
C85 C86 1.394 . S
C86 C85 1.394 . S
C86 C87 1.378 . S
C86 H114 0.931 . S
C87 C82 1.377 . S
C87 C86 1.378 . S
C87 H115 0.931 . S
C88 O102 1.259 . S
C88 O103 1.270 . S
C89 O104 1.251 . S
C89 O105 1.251 . S
C90 Eu91 2.835 1_545 S
C90 C92 1.500 . S
C90 O106 1.257 . S
C90 O107 1.260 1_545 S
Eu91 C90 2.835 1_565 S
Eu91 O103 2.355 1_565 S
Eu91 O105 2.374 . S
Eu91 O106 2.473 1_565 S
Eu91 O107 2.480 . S
Eu91 O108 2.430 . S
Eu91 O109 2.670 . S
Eu91 O110 2.394 1_565 S
C92 C90 1.500 . S
C92 C93 1.377 . S
C92 C97 1.377 . S
C93 C92 1.377 . S
C93 C94 1.395 . S
C93 H116 0.931 1_545 S
C94 C93 1.395 . S
C94 C95 1.383 . S
C94 H117 0.931 . S
C95 C94 1.383 . S
C95 C96 1.394 . S
C96 C95 1.394 . S
C96 C97 1.378 . S
C96 H118 0.931 . S
C97 C92 1.377 . S
C97 C96 1.378 . S
C97 H119 0.931 . S
C98 O108 1.259 . S
C98 O109 1.270 . S
C99 O110 1.251 . S
C99 O111 1.251 . S
O100 C80 1.257 . S
O100 Eu81 2.473 1_565 S
O101 C80 1.260 1_545 S
O101 Eu81 2.480 . S
O102 Eu81 2.430 . S
O102 C88 1.259 . S
O103 Eu81 2.670 . S
O103 C88 1.270 . S
O103 Eu91 2.355 1_545 S
O104 Eu81 2.394 1_565 S
O104 C89 1.251 . S
O105 C89 1.251 . S
O105 Eu91 2.374 . S
O106 C90 1.257 . S
O106 Eu91 2.473 1_545 S
O107 C90 1.260 1_565 S
O107 Eu91 2.480 . S
O108 Eu91 2.430 . S
O108 C98 1.259 . S
O109 Eu81 2.355 1_565 S
O109 Eu91 2.670 . S
O109 C98 1.270 . S
O110 Eu91 2.394 1_545 S
O110 C99 1.251 . S
O111 Eu81 2.374 . S
O111 C99 1.251 . S
H112 C83 0.931 1_545 S
H113 C84 0.931 . S
H114 C86 0.931 . S
H115 C87 0.931 . S
H116 C93 0.931 1_565 S
H117 C94 0.931 . S
H118 C96 0.931 . S
H119 C97 0.931 . S
C120 Eu121 2.835 . S
C120 C122 1.500 . S
C120 O140 1.257 . S
C120 O141 1.260 . S
Eu121 C120 2.835 . S
Eu121 O140 2.473 . S
Eu121 O141 2.480 . S
Eu121 O142 2.430 . S
Eu121 O143 2.670 . S
Eu121 O144 2.394 . S
Eu121 O149 2.355 . S
Eu121 O151 2.374 . S
C122 C120 1.500 . S
C122 C123 1.377 . S
C122 C127 1.377 . S
C123 C122 1.377 . S
C123 C124 1.395 . S
C123 H152 0.931 . S
C124 C123 1.395 . S
C124 C125 1.383 . S
C124 H153 0.931 . S
C125 C124 1.383 . S
C125 C126 1.394 . S
C126 C125 1.394 . S
C126 C127 1.378 . S
C126 H154 0.931 . S
C127 C122 1.377 . S
C127 C126 1.378 . S
C127 H155 0.931 . S
C128 O142 1.259 . S
C128 O143 1.270 . S
C129 O144 1.251 . S
C129 O145 1.251 . S
C130 Eu131 2.835 . S
C130 C132 1.500 . S
C130 O146 1.257 . S
C130 O147 1.260 . S
Eu131 C130 2.835 . S
Eu131 O143 2.355 . S
Eu131 O145 2.374 . S
Eu131 O146 2.473 . S
Eu131 O147 2.480 . S
Eu131 O148 2.430 . S
Eu131 O149 2.670 . S
Eu131 O150 2.394 . S
C132 C130 1.500 . S
C132 C133 1.377 . S
C132 C137 1.377 . S
C133 C132 1.377 . S
C133 C134 1.395 . S
C133 H156 0.931 . S
C134 C133 1.395 . S
C134 C135 1.383 . S
C134 H157 0.931 . S
C135 C134 1.383 . S
C135 C136 1.394 . S
C136 C135 1.394 . S
C136 C137 1.378 . S
C136 H158 0.931 . S
C137 C132 1.377 . S
C137 C136 1.378 . S
C137 H159 0.931 . S
C138 O148 1.259 . S
C138 O149 1.270 . S
C139 O150 1.251 . S
C139 O151 1.251 . S
O140 C120 1.257 . S
O140 Eu121 2.473 . S
O141 C120 1.260 . S
O141 Eu121 2.480 . S
O142 Eu121 2.430 . S
O142 C128 1.259 . S
O143 Eu121 2.670 . S
O143 C128 1.270 . S
O143 Eu131 2.355 . S
O144 Eu121 2.394 . S
O144 C129 1.251 . S
O145 C129 1.251 . S
O145 Eu131 2.374 . S
O146 C130 1.257 . S
O146 Eu131 2.473 . S
O147 C130 1.260 . S
O147 Eu131 2.480 . S
O148 Eu131 2.430 . S
O148 C138 1.259 . S
O149 Eu121 2.355 . S
O149 Eu131 2.670 . S
O149 C138 1.270 . S
O150 Eu131 2.394 . S
O150 C139 1.251 . S
O151 Eu121 2.374 . S
O151 C139 1.251 . S
H152 C123 0.931 . S
H153 C124 0.931 . S
H154 C126 0.931 . S
H155 C127 0.931 . S
H156 C133 0.931 . S
H157 C134 0.931 . S
H158 C136 0.931 . S
H159 C137 0.931 . S
C160 Eu161 2.835 . S
C160 C162 1.500 . S
C160 O180 1.257 . S
C160 O181 1.260 . S
Eu161 C160 2.835 . S
Eu161 O180 2.473 . S
Eu161 O181 2.480 . S
Eu161 O182 2.430 1_445 S
Eu161 O183 2.670 1_445 S
Eu161 O184 2.394 1_455 S
Eu161 O189 2.355 . S
Eu161 O191 2.374 1_545 S
C162 C160 1.500 . S
C162 C163 1.377 . S
C162 C167 1.377 . S
C163 C162 1.377 . S
C163 C164 1.395 . S
C163 H192 0.931 . S
C164 C163 1.395 . S
C164 C165 1.383 . S
C164 H193 0.931 . S
C165 C164 1.383 . S
C165 C166 1.394 . S
C166 C165 1.394 . S
C166 C167 1.378 . S
C166 H194 0.931 . S
C167 C162 1.377 . S
C167 C166 1.378 . S
C167 H195 0.931 . S
C168 O182 1.259 . S
C168 O183 1.270 . S
C169 O184 1.251 . S
C169 O185 1.251 . S
C170 Eu171 2.835 . S
C170 C172 1.500 . S
C170 O186 1.257 . S
C170 O187 1.260 . S
Eu171 C170 2.835 . S
Eu171 O183 2.355 . S
Eu171 O185 2.374 1_565 S
Eu171 O186 2.473 . S
Eu171 O187 2.480 . S
Eu171 O188 2.430 1_665 S
Eu171 O189 2.670 1_665 S
Eu171 O190 2.394 1_655 S
C172 C170 1.500 . S
C172 C173 1.377 . S
C172 C177 1.377 . S
C173 C172 1.377 . S
C173 C174 1.395 . S
C173 H196 0.931 . S
C174 C173 1.395 . S
C174 C175 1.383 . S
C174 H197 0.931 . S
C175 C174 1.383 . S
C175 C176 1.394 . S
C176 C175 1.394 . S
C176 C177 1.378 . S
C176 H198 0.931 . S
C177 C172 1.377 . S
C177 C176 1.378 . S
C177 H199 0.931 . S
C178 O188 1.259 . S
C178 O189 1.270 . S
C179 O190 1.251 . S
C179 O191 1.251 . S
O180 C160 1.257 . S
O180 Eu161 2.473 . S
O181 C160 1.260 . S
O181 Eu161 2.480 . S
O182 Eu161 2.430 1_665 S
O182 C168 1.259 . S
O183 Eu161 2.670 1_665 S
O183 C168 1.270 . S
O183 Eu171 2.355 . S
O184 Eu161 2.394 1_655 S
O184 C169 1.251 . S
O185 C169 1.251 . S
O185 Eu171 2.374 1_545 S
O186 C170 1.257 . S
O186 Eu171 2.473 . S
O187 C170 1.260 . S
O187 Eu171 2.480 . S
O188 Eu171 2.430 1_445 S
O188 C178 1.259 . S
O189 Eu161 2.355 . S
O189 Eu171 2.670 1_445 S
O189 C178 1.270 . S
O190 Eu171 2.394 1_455 S
O190 C179 1.251 . S
O191 Eu161 2.374 1_565 S
O191 C179 1.251 . S
H192 C163 0.931 . S
H193 C164 0.931 . S
H194 C166 0.931 . S
H195 C167 0.931 . S
H196 C173 0.931 . S
H197 C174 0.931 . S
H198 C176 0.931 . S
H199 C177 0.931 . S
C200 Eu201 2.835 . S
C200 C202 1.500 . S
C200 O220 1.257 . S
C200 O221 1.260 . S
Eu201 C200 2.835 . S
Eu201 O220 2.473 . S
Eu201 O221 2.480 . S
Eu201 O222 2.430 . S
Eu201 O223 2.670 . S
Eu201 O224 2.394 . S
Eu201 O229 2.355 . S
Eu201 O231 2.374 . S
C202 C200 1.500 . S
C202 C203 1.377 . S
C202 C207 1.377 . S
C203 C202 1.377 . S
C203 C204 1.395 . S
C203 H232 0.931 . S
C204 C203 1.395 . S
C204 C205 1.383 . S
C204 H233 0.931 . S
C205 C204 1.383 . S
C205 C206 1.394 . S
C206 C205 1.394 . S
C206 C207 1.378 . S
C206 H234 0.931 . S
C207 C202 1.377 . S
C207 C206 1.378 . S
C207 H235 0.931 . S
C208 O222 1.259 . S
C208 O223 1.270 . S
C209 O224 1.251 . S
C209 O225 1.251 . S
C210 Eu211 2.835 . S
C210 C212 1.500 . S
C210 O226 1.257 . S
C210 O227 1.260 . S
Eu211 C210 2.835 . S
Eu211 O223 2.355 . S
Eu211 O225 2.374 . S
Eu211 O226 2.473 . S
Eu211 O227 2.480 . S
Eu211 O228 2.430 . S
Eu211 O229 2.670 . S
Eu211 O230 2.394 . S
C212 C210 1.500 . S
C212 C213 1.377 . S
C212 C217 1.377 . S
C213 C212 1.377 . S
C213 C214 1.395 . S
C213 H236 0.931 . S
C214 C213 1.395 . S
C214 C215 1.383 . S
C214 H237 0.931 . S
C215 C214 1.383 . S
C215 C216 1.394 . S
C216 C215 1.394 . S
C216 C217 1.378 . S
C216 H238 0.931 . S
C217 C212 1.377 . S
C217 C216 1.378 . S
C217 H239 0.931 . S
C218 O228 1.259 . S
C218 O229 1.270 . S
C219 O230 1.251 . S
C219 O231 1.251 . S
O220 C200 1.257 . S
O220 Eu201 2.473 . S
O221 C200 1.260 . S
O221 Eu201 2.480 . S
O222 Eu201 2.430 . S
O222 C208 1.259 . S
O223 Eu201 2.670 . S
O223 C208 1.270 . S
O223 Eu211 2.355 . S
O224 Eu201 2.394 . S
O224 C209 1.251 . S
O225 C209 1.251 . S
O225 Eu211 2.374 . S
O226 C210 1.257 . S
O226 Eu211 2.473 . S
O227 C210 1.260 . S
O227 Eu211 2.480 . S
O228 Eu211 2.430 . S
O228 C218 1.259 . S
O229 Eu201 2.355 . S
O229 Eu211 2.670 . S
O229 C218 1.270 . S
O230 Eu211 2.394 . S
O230 C219 1.251 . S
O231 Eu201 2.374 . S
O231 C219 1.251 . S
H232 C203 0.931 . S
H233 C204 0.931 . S
H234 C206 0.931 . S
H235 C207 0.931 . S
H236 C213 0.931 . S
H237 C214 0.931 . S
H238 C216 0.931 . S
H239 C217 0.931 . S
C240 Eu241 2.835 1_554 S
C240 C242 1.500 . S
C240 O260 1.257 . S
C240 O261 1.260 1_554 S
Eu241 C240 2.835 1_556 S
Eu241 O260 2.473 1_556 S
Eu241 O261 2.480 . S
Eu241 O262 2.430 1_545 S
Eu241 O263 2.670 1_545 S
Eu241 O264 2.394 1_546 S
Eu241 O269 2.355 1_556 S
Eu241 O271 2.374 . S
C242 C240 1.500 . S
C242 C243 1.377 . S
C242 C247 1.377 . S
C243 C242 1.377 . S
C243 C244 1.395 . S
C243 H272 0.931 1_554 S
C244 C243 1.395 . S
C244 C245 1.383 . S
C244 H273 0.931 1_554 S
C245 C244 1.383 . S
C245 C246 1.394 . S
C246 C245 1.394 . S
C246 C247 1.378 . S
C246 H274 0.931 . S
C247 C242 1.377 . S
C247 C246 1.378 . S
C247 H275 0.931 . S
C248 O262 1.259 . S
C248 O263 1.270 . S
C249 O264 1.251 . S
C249 O265 1.251 . S
C250 Eu251 2.835 1_556 S
C250 C252 1.500 . S
C250 O266 1.257 . S
C250 O267 1.260 1_556 S
Eu251 C250 2.835 1_554 S
Eu251 O263 2.355 1_554 S
Eu251 O265 2.374 . S
Eu251 O266 2.473 1_554 S
Eu251 O267 2.480 . S
Eu251 O268 2.430 1_565 S
Eu251 O269 2.670 1_565 S
Eu251 O270 2.394 1_564 S
C252 C250 1.500 . S
C252 C253 1.377 . S
C252 C257 1.377 . S
C253 C252 1.377 . S
C253 C254 1.395 . S
C253 H276 0.931 1_556 S
C254 C253 1.395 . S
C254 C255 1.383 . S
C254 H277 0.931 1_556 S
C255 C254 1.383 . S
C255 C256 1.394 . S
C256 C255 1.394 . S
C256 C257 1.378 . S
C256 H278 0.931 . S
C257 C252 1.377 . S
C257 C256 1.378 . S
C257 H279 0.931 . S
C258 O268 1.259 . S
C258 O269 1.270 . S
C259 O270 1.251 . S
C259 O271 1.251 . S
O260 C240 1.257 . S
O260 Eu241 2.473 1_554 S
O261 C240 1.260 1_556 S
O261 Eu241 2.480 . S
O262 Eu241 2.430 1_565 S
O262 C248 1.259 . S
O263 Eu241 2.670 1_565 S
O263 C248 1.270 . S
O263 Eu251 2.355 1_556 S
O264 Eu241 2.394 1_564 S
O264 C249 1.251 . S
O265 C249 1.251 . S
O265 Eu251 2.374 . S
O266 C250 1.257 . S
O266 Eu251 2.473 1_556 S
O267 C250 1.260 1_554 S
O267 Eu251 2.480 . S
O268 Eu251 2.430 1_545 S
O268 C258 1.259 . S
O269 Eu241 2.355 1_554 S
O269 Eu251 2.670 1_545 S
O269 C258 1.270 . S
O270 Eu251 2.394 1_546 S
O270 C259 1.251 . S
O271 Eu241 2.374 . S
O271 C259 1.251 . S
H272 C243 0.931 1_556 S
H273 C244 0.931 1_556 S
H274 C246 0.931 . S
H275 C247 0.931 . S
H276 C253 0.931 1_554 S
H277 C254 0.931 1_554 S
H278 C256 0.931 . S
H279 C257 0.931 . S
C280 Eu281 2.835 . S
C280 C282 1.500 . S
C280 O300 1.257 . S
C280 O301 1.260 . S
Eu281 C280 2.835 . S
Eu281 O300 2.473 . S
Eu281 O301 2.480 . S
Eu281 O302 2.430 . S
Eu281 O303 2.670 . S
Eu281 O304 2.394 . S
Eu281 O309 2.355 . S
Eu281 O311 2.374 . S
C282 C280 1.500 . S
C282 C283 1.377 . S
C282 C287 1.377 . S
C283 C282 1.377 . S
C283 C284 1.395 . S
C283 H312 0.931 . S
C284 C283 1.395 . S
C284 C285 1.383 . S
C284 H313 0.931 . S
C285 C284 1.383 . S
C285 C286 1.394 . S
C286 C285 1.394 . S
C286 C287 1.378 . S
C286 H314 0.931 . S
C287 C282 1.377 . S
C287 C286 1.378 . S
C287 H315 0.931 . S
C288 O302 1.259 . S
C288 O303 1.270 . S
C289 O304 1.251 . S
C289 O305 1.251 . S
C290 Eu291 2.835 . S
C290 C292 1.500 . S
C290 O306 1.257 . S
C290 O307 1.260 . S
Eu291 C290 2.835 . S
Eu291 O303 2.355 . S
Eu291 O305 2.374 . S
Eu291 O306 2.473 . S
Eu291 O307 2.480 . S
Eu291 O308 2.430 . S
Eu291 O309 2.670 . S
Eu291 O310 2.394 . S
C292 C290 1.500 . S
C292 C293 1.377 . S
C292 C297 1.377 . S
C293 C292 1.377 . S
C293 C294 1.395 . S
C293 H316 0.931 . S
C294 C293 1.395 . S
C294 C295 1.383 . S
C294 H317 0.931 . S
C295 C294 1.383 . S
C295 C296 1.394 . S
C296 C295 1.394 . S
C296 C297 1.378 . S
C296 H318 0.931 . S
C297 C292 1.377 . S
C297 C296 1.378 . S
C297 H319 0.931 . S
C298 O308 1.259 . S
C298 O309 1.270 . S
C299 O310 1.251 . S
C299 O311 1.251 . S
O300 C280 1.257 . S
O300 Eu281 2.473 . S
O301 C280 1.260 . S
O301 Eu281 2.480 . S
O302 Eu281 2.430 . S
O302 C288 1.259 . S
O303 Eu281 2.670 . S
O303 C288 1.270 . S
O303 Eu291 2.355 . S
O304 Eu281 2.394 . S
O304 C289 1.251 . S
O305 C289 1.251 . S
O305 Eu291 2.374 . S
O306 C290 1.257 . S
O306 Eu291 2.473 . S
O307 C290 1.260 . S
O307 Eu291 2.480 . S
O308 Eu291 2.430 . S
O308 C298 1.259 . S
O309 Eu281 2.355 . S
O309 Eu291 2.670 . S
O309 C298 1.270 . S
O310 Eu291 2.394 . S
O310 C299 1.251 . S
O311 Eu281 2.374 . S
O311 C299 1.251 . S
H312 C283 0.931 . S
H313 C284 0.931 . S
H314 C286 0.931 . S
H315 C287 0.931 . S
H316 C293 0.931 . S
H317 C294 0.931 . S
H318 C296 0.931 . S
H319 C297 0.931 . S
C320 Eu321 2.835 . S
C320 C322 1.500 . S
C320 O340 1.257 . S
C320 O341 1.260 . S
Eu321 C320 2.835 . S
Eu321 O340 2.473 . S
Eu321 O341 2.480 . S
Eu321 O342 2.430 . S
Eu321 O343 2.670 . S
Eu321 O344 2.394 . S
Eu321 O349 2.355 1_556 S
Eu321 O351 2.374 1_556 S
C322 C320 1.500 . S
C322 C323 1.377 . S
C322 C327 1.377 . S
C323 C322 1.377 . S
C323 C324 1.395 . S
C323 H352 0.931 . S
C324 C323 1.395 . S
C324 C325 1.383 . S
C324 H353 0.931 . S
C325 C324 1.383 . S
C325 C326 1.394 . S
C326 C325 1.394 . S
C326 C327 1.378 . S
C326 H354 0.931 . S
C327 C322 1.377 . S
C327 C326 1.378 . S
C327 H355 0.931 . S
C328 O342 1.259 . S
C328 O343 1.270 . S
C329 O344 1.251 . S
C329 O345 1.251 . S
C330 Eu331 2.835 . S
C330 C332 1.500 . S
C330 O346 1.257 . S
C330 O347 1.260 . S
Eu331 C330 2.835 . S
Eu331 O343 2.355 1_554 S
Eu331 O345 2.374 1_554 S
Eu331 O346 2.473 . S
Eu331 O347 2.480 . S
Eu331 O348 2.430 . S
Eu331 O349 2.670 . S
Eu331 O350 2.394 . S
C332 C330 1.500 . S
C332 C333 1.377 . S
C332 C337 1.377 . S
C333 C332 1.377 . S
C333 C334 1.395 . S
C333 H356 0.931 . S
C334 C333 1.395 . S
C334 C335 1.383 . S
C334 H357 0.931 . S
C335 C334 1.383 . S
C335 C336 1.394 . S
C336 C335 1.394 . S
C336 C337 1.378 . S
C336 H358 0.931 . S
C337 C332 1.377 . S
C337 C336 1.378 . S
C337 H359 0.931 . S
C338 O348 1.259 . S
C338 O349 1.270 . S
C339 O350 1.251 . S
C339 O351 1.251 . S
O340 C320 1.257 . S
O340 Eu321 2.473 . S
O341 C320 1.260 . S
O341 Eu321 2.480 . S
O342 Eu321 2.430 . S
O342 C328 1.259 . S
O343 Eu321 2.670 . S
O343 C328 1.270 . S
O343 Eu331 2.355 1_556 S
O344 Eu321 2.394 . S
O344 C329 1.251 . S
O345 C329 1.251 . S
O345 Eu331 2.374 1_556 S
O346 C330 1.257 . S
O346 Eu331 2.473 . S
O347 C330 1.260 . S
O347 Eu331 2.480 . S
O348 Eu331 2.430 . S
O348 C338 1.259 . S
O349 Eu321 2.355 1_554 S
O349 Eu331 2.670 . S
O349 C338 1.270 . S
O350 Eu331 2.394 . S
O350 C339 1.251 . S
O351 Eu321 2.374 1_554 S
O351 C339 1.251 . S
H352 C323 0.931 . S
H353 C324 0.931 . S
H354 C326 0.931 . S
H355 C327 0.931 . S
H356 C333 0.931 . S
H357 C334 0.931 . S
H358 C336 0.931 . S
H359 C337 0.931 . S
C360 Eu361 2.835 . S
C360 C362 1.500 . S
C360 O380 1.257 . S
C360 O381 1.260 . S
Eu361 C360 2.835 . S
Eu361 O380 2.473 . S
Eu361 O381 2.480 . S
Eu361 O382 2.430 . S
Eu361 O383 2.670 . S
Eu361 O384 2.394 . S
Eu361 O389 2.355 . S
Eu361 O391 2.374 . S
C362 C360 1.500 . S
C362 C363 1.377 . S
C362 C367 1.377 . S
C363 C362 1.377 . S
C363 C364 1.395 . S
C363 H392 0.931 . S
C364 C363 1.395 . S
C364 C365 1.383 . S
C364 H393 0.931 . S
C365 C364 1.383 . S
C365 C366 1.394 . S
C366 C365 1.394 . S
C366 C367 1.378 . S
C366 H394 0.931 . S
C367 C362 1.377 . S
C367 C366 1.378 . S
C367 H395 0.931 . S
C368 O382 1.259 . S
C368 O383 1.270 . S
C369 O384 1.251 . S
C369 O385 1.251 . S
C370 Eu371 2.835 . S
C370 C372 1.500 . S
C370 O386 1.257 . S
C370 O387 1.260 . S
Eu371 C370 2.835 . S
Eu371 O383 2.355 . S
Eu371 O385 2.374 . S
Eu371 O386 2.473 . S
Eu371 O387 2.480 . S
Eu371 O388 2.430 . S
Eu371 O389 2.670 . S
Eu371 O390 2.394 . S
C372 C370 1.500 . S
C372 C373 1.377 . S
C372 C377 1.377 . S
C373 C372 1.377 . S
C373 C374 1.395 . S
C373 H396 0.931 . S
C374 C373 1.395 . S
C374 C375 1.383 . S
C374 H397 0.931 . S
C375 C374 1.383 . S
C375 C376 1.394 . S
C376 C375 1.394 . S
C376 C377 1.378 . S
C376 H398 0.931 . S
C377 C372 1.377 . S
C377 C376 1.378 . S
C377 H399 0.931 . S
C378 O388 1.259 . S
C378 O389 1.270 . S
C379 O390 1.251 . S
C379 O391 1.251 . S
O380 C360 1.257 . S
O380 Eu361 2.473 . S
O381 C360 1.260 . S
O381 Eu361 2.480 . S
O382 Eu361 2.430 . S
O382 C368 1.259 . S
O383 Eu361 2.670 . S
O383 C368 1.270 . S
O383 Eu371 2.355 . S
O384 Eu361 2.394 . S
O384 C369 1.251 . S
O385 C369 1.251 . S
O385 Eu371 2.374 . S
O386 C370 1.257 . S
O386 Eu371 2.473 . S
O387 C370 1.260 . S
O387 Eu371 2.480 . S
O388 Eu371 2.430 . S
O388 C378 1.259 . S
O389 Eu361 2.355 . S
O389 Eu371 2.670 . S
O389 C378 1.270 . S
O390 Eu371 2.394 . S
O390 C379 1.251 . S
O391 Eu361 2.374 . S
O391 C379 1.251 . S
H392 C363 0.931 . S
H393 C364 0.931 . S
H394 C366 0.931 . S
H395 C367 0.931 . S
H396 C373 0.931 . S
H397 C374 0.931 . S
H398 C376 0.931 . S
H399 C377 0.931 . S
C400 Eu401 2.835 . S
C400 C402 1.500 . S
C400 O420 1.257 . S
C400 O421 1.260 . S
Eu401 C400 2.835 . S
Eu401 O420 2.473 . S
Eu401 O421 2.480 . S
Eu401 O422 2.430 . S
Eu401 O423 2.670 . S
Eu401 O424 2.394 . S
Eu401 O429 2.355 1_655 S
Eu401 O431 2.374 1_655 S
C402 C400 1.500 . S
C402 C403 1.377 . S
C402 C407 1.377 . S
C403 C402 1.377 . S
C403 C404 1.395 . S
C403 H432 0.931 . S
C404 C403 1.395 . S
C404 C405 1.383 . S
C404 H433 0.931 . S
C405 C404 1.383 . S
C405 C406 1.394 . S
C406 C405 1.394 . S
C406 C407 1.378 . S
C406 H434 0.931 . S
C407 C402 1.377 . S
C407 C406 1.378 . S
C407 H435 0.931 . S
C408 O422 1.259 . S
C408 O423 1.270 . S
C409 O424 1.251 . S
C409 O425 1.251 . S
C410 Eu411 2.835 . S
C410 C412 1.500 . S
C410 O426 1.257 . S
C410 O427 1.260 . S
Eu411 C410 2.835 . S
Eu411 O423 2.355 1_455 S
Eu411 O425 2.374 1_455 S
Eu411 O426 2.473 . S
Eu411 O427 2.480 . S
Eu411 O428 2.430 . S
Eu411 O429 2.670 . S
Eu411 O430 2.394 . S
C412 C410 1.500 . S
C412 C413 1.377 . S
C412 C417 1.377 . S
C413 C412 1.377 . S
C413 C414 1.395 . S
C413 H436 0.931 . S
C414 C413 1.395 . S
C414 C415 1.383 . S
C414 H437 0.931 . S
C415 C414 1.383 . S
C415 C416 1.394 . S
C416 C415 1.394 . S
C416 C417 1.378 . S
C416 H438 0.931 . S
C417 C412 1.377 . S
C417 C416 1.378 . S
C417 H439 0.931 . S
C418 O428 1.259 . S
C418 O429 1.270 . S
C419 O430 1.251 . S
C419 O431 1.251 . S
O420 C400 1.257 . S
O420 Eu401 2.473 . S
O421 C400 1.260 . S
O421 Eu401 2.480 . S
O422 Eu401 2.430 . S
O422 C408 1.259 . S
O423 Eu401 2.670 . S
O423 C408 1.270 . S
O423 Eu411 2.355 1_655 S
O424 Eu401 2.394 . S
O424 C409 1.251 . S
O425 C409 1.251 . S
O425 Eu411 2.374 1_655 S
O426 C410 1.257 . S
O426 Eu411 2.473 . S
O427 C410 1.260 . S
O427 Eu411 2.480 . S
O428 Eu411 2.430 . S
O428 C418 1.259 . S
O429 Eu401 2.355 1_455 S
O429 Eu411 2.670 . S
O429 C418 1.270 . S
O430 Eu411 2.394 . S
O430 C419 1.251 . S
O431 Eu401 2.374 1_455 S
O431 C419 1.251 . S
H432 C403 0.931 . S
H433 C404 0.931 . S
H434 C406 0.931 . S
H435 C407 0.931 . S
H436 C413 0.931 . S
H437 C414 0.931 . S
H438 C416 0.931 . S
H439 C417 0.931 . S
C440 Eu441 2.835 . S
C440 C442 1.500 . S
C440 O460 1.257 . S
C440 O461 1.260 . S
Eu441 C440 2.835 . S
Eu441 O460 2.473 . S
Eu441 O461 2.480 . S
Eu441 O462 2.430 . S
Eu441 O463 2.670 . S
Eu441 O464 2.394 . S
Eu441 O469 2.355 . S
Eu441 O471 2.374 . S
C442 C440 1.500 . S
C442 C443 1.377 . S
C442 C447 1.377 . S
C443 C442 1.377 . S
C443 C444 1.395 . S
C443 H472 0.931 . S
C444 C443 1.395 . S
C444 C445 1.383 . S
C444 H473 0.931 . S
C445 C444 1.383 . S
C445 C446 1.394 . S
C446 C445 1.394 . S
C446 C447 1.378 . S
C446 H474 0.931 . S
C447 C442 1.377 . S
C447 C446 1.378 . S
C447 H475 0.931 . S
C448 O462 1.259 . S
C448 O463 1.270 . S
C449 O464 1.251 . S
C449 O465 1.251 . S
C450 Eu451 2.835 . S
C450 C452 1.500 . S
C450 O466 1.257 . S
C450 O467 1.260 . S
Eu451 C450 2.835 . S
Eu451 O463 2.355 . S
Eu451 O465 2.374 . S
Eu451 O466 2.473 . S
Eu451 O467 2.480 . S
Eu451 O468 2.430 . S
Eu451 O469 2.670 . S
Eu451 O470 2.394 . S
C452 C450 1.500 . S
C452 C453 1.377 . S
C452 C457 1.377 . S
C453 C452 1.377 . S
C453 C454 1.395 . S
C453 H476 0.931 . S
C454 C453 1.395 . S
C454 C455 1.383 . S
C454 H477 0.931 . S
C455 C454 1.383 . S
C455 C456 1.394 . S
C456 C455 1.394 . S
C456 C457 1.378 . S
C456 H478 0.931 . S
C457 C452 1.377 . S
C457 C456 1.378 . S
C457 H479 0.931 . S
C458 O468 1.259 . S
C458 O469 1.270 . S
C459 O470 1.251 . S
C459 O471 1.251 . S
O460 C440 1.257 . S
O460 Eu441 2.473 . S
O461 C440 1.260 . S
O461 Eu441 2.480 . S
O462 Eu441 2.430 . S
O462 C448 1.259 . S
O463 Eu441 2.670 . S
O463 C448 1.270 . S
O463 Eu451 2.355 . S
O464 Eu441 2.394 . S
O464 C449 1.251 . S
O465 C449 1.251 . S
O465 Eu451 2.374 . S
O466 C450 1.257 . S
O466 Eu451 2.473 . S
O467 C450 1.260 . S
O467 Eu451 2.480 . S
O468 Eu451 2.430 . S
O468 C458 1.259 . S
O469 Eu441 2.355 . S
O469 Eu451 2.670 . S
O469 C458 1.270 . S
O470 Eu451 2.394 . S
O470 C459 1.251 . S
O471 Eu441 2.374 . S
O471 C459 1.251 . S
H472 C443 0.931 . S
H473 C444 0.931 . S
H474 C446 0.931 . S
H475 C447 0.931 . S
H476 C453 0.931 . S
H477 C454 0.931 . S
H478 C456 0.931 . S
H479 C457 0.931 . S
C480 Eu481 2.835 . S
C480 C482 1.500 . S
C480 O500 1.257 . S
C480 O501 1.260 . S
Eu481 C480 2.835 . S
Eu481 O500 2.473 . S
Eu481 O501 2.480 . S
Eu481 O502 2.430 . S
Eu481 O503 2.670 . S
Eu481 O504 2.394 . S
Eu481 O509 2.355 . S
Eu481 O511 2.374 . S
C482 C480 1.500 . S
C482 C483 1.377 . S
C482 C487 1.377 . S
C483 C482 1.377 . S
C483 C484 1.395 . S
C483 H512 0.931 . S
C484 C483 1.395 . S
C484 C485 1.383 . S
C484 H513 0.931 . S
C485 C484 1.383 . S
C485 C486 1.394 . S
C486 C485 1.394 . S
C486 C487 1.378 . S
C486 H514 0.931 . S
C487 C482 1.377 . S
C487 C486 1.378 . S
C487 H515 0.931 . S
C488 O502 1.259 . S
C488 O503 1.270 . S
C489 O504 1.251 . S
C489 O505 1.251 . S
C490 Eu491 2.835 . S
C490 C492 1.500 . S
C490 O506 1.257 . S
C490 O507 1.260 . S
Eu491 C490 2.835 . S
Eu491 O503 2.355 . S
Eu491 O505 2.374 . S
Eu491 O506 2.473 . S
Eu491 O507 2.480 . S
Eu491 O508 2.430 . S
Eu491 O509 2.670 . S
Eu491 O510 2.394 . S
C492 C490 1.500 . S
C492 C493 1.377 . S
C492 C497 1.377 . S
C493 C492 1.377 . S
C493 C494 1.395 . S
C493 H516 0.931 . S
C494 C493 1.395 . S
C494 C495 1.383 . S
C494 H517 0.931 . S
C495 C494 1.383 . S
C495 C496 1.394 . S
C496 C495 1.394 . S
C496 C497 1.378 . S
C496 H518 0.931 . S
C497 C492 1.377 . S
C497 C496 1.378 . S
C497 H519 0.931 . S
C498 O508 1.259 . S
C498 O509 1.270 . S
C499 O510 1.251 . S
C499 O511 1.251 . S
O500 C480 1.257 . S
O500 Eu481 2.473 . S
O501 C480 1.260 . S
O501 Eu481 2.480 . S
O502 Eu481 2.430 . S
O502 C488 1.259 . S
O503 Eu481 2.670 . S
O503 C488 1.270 . S
O503 Eu491 2.355 . S
O504 Eu481 2.394 . S
O504 C489 1.251 . S
O505 C489 1.251 . S
O505 Eu491 2.374 . S
O506 C490 1.257 . S
O506 Eu491 2.473 . S
O507 C490 1.260 . S
O507 Eu491 2.480 . S
O508 Eu491 2.430 . S
O508 C498 1.259 . S
O509 Eu481 2.355 . S
O509 Eu491 2.670 . S
O509 C498 1.270 . S
O510 Eu491 2.394 . S
O510 C499 1.251 . S
O511 Eu481 2.374 . S
O511 C499 1.251 . S
H512 C483 0.931 . S
H513 C484 0.931 . S
H514 C486 0.931 . S
H515 C487 0.931 . S
H516 C493 0.931 . S
H517 C494 0.931 . S
H518 C496 0.931 . S
H519 C497 0.931 . S
C520 Eu521 2.835 . S
C520 C522 1.500 . S
C520 O540 1.257 . S
C520 O541 1.260 . S
Eu521 C520 2.835 . S
Eu521 O540 2.473 . S
Eu521 O541 2.480 . S
Eu521 O542 2.430 . S
Eu521 O543 2.670 . S
Eu521 O544 2.394 . S
Eu521 O549 2.355 . S
Eu521 O551 2.374 . S
C522 C520 1.500 . S
C522 C523 1.377 . S
C522 C527 1.377 . S
C523 C522 1.377 . S
C523 C524 1.395 . S
C523 H552 0.931 . S
C524 C523 1.395 . S
C524 C525 1.383 . S
C524 H553 0.931 . S
C525 C524 1.383 . S
C525 C526 1.394 . S
C526 C525 1.394 . S
C526 C527 1.378 . S
C526 H554 0.931 . S
C527 C522 1.377 . S
C527 C526 1.378 . S
C527 H555 0.931 . S
C528 O542 1.259 . S
C528 O543 1.270 . S
C529 O544 1.251 . S
C529 O545 1.251 . S
C530 Eu531 2.835 . S
C530 C532 1.500 . S
C530 O546 1.257 . S
C530 O547 1.260 . S
Eu531 C530 2.835 . S
Eu531 O543 2.355 . S
Eu531 O545 2.374 . S
Eu531 O546 2.473 . S
Eu531 O547 2.480 . S
Eu531 O548 2.430 . S
Eu531 O549 2.670 . S
Eu531 O550 2.394 . S
C532 C530 1.500 . S
C532 C533 1.377 . S
C532 C537 1.377 . S
C533 C532 1.377 . S
C533 C534 1.395 . S
C533 H556 0.931 . S
C534 C533 1.395 . S
C534 C535 1.383 . S
C534 H557 0.931 . S
C535 C534 1.383 . S
C535 C536 1.394 . S
C536 C535 1.394 . S
C536 C537 1.378 . S
C536 H558 0.931 . S
C537 C532 1.377 . S
C537 C536 1.378 . S
C537 H559 0.931 . S
C538 O548 1.259 . S
C538 O549 1.270 . S
C539 O550 1.251 . S
C539 O551 1.251 . S
O540 C520 1.257 . S
O540 Eu521 2.473 . S
O541 C520 1.260 . S
O541 Eu521 2.480 . S
O542 Eu521 2.430 . S
O542 C528 1.259 . S
O543 Eu521 2.670 . S
O543 C528 1.270 . S
O543 Eu531 2.355 . S
O544 Eu521 2.394 . S
O544 C529 1.251 . S
O545 C529 1.251 . S
O545 Eu531 2.374 . S
O546 C530 1.257 . S
O546 Eu531 2.473 . S
O547 C530 1.260 . S
O547 Eu531 2.480 . S
O548 Eu531 2.430 . S
O548 C538 1.259 . S
O549 Eu521 2.355 . S
O549 Eu531 2.670 . S
O549 C538 1.270 . S
O550 Eu531 2.394 . S
O550 C539 1.251 . S
O551 Eu521 2.374 . S
O551 C539 1.251 . S
H552 C523 0.931 . S
H553 C524 0.931 . S
H554 C526 0.931 . S
H555 C527 0.931 . S
H556 C533 0.931 . S
H557 C534 0.931 . S
H558 C536 0.931 . S
H559 C537 0.931 . S
C560 Eu561 2.835 . S
C560 C562 1.500 . S
C560 O580 1.257 . S
C560 O581 1.260 . S
Eu561 C560 2.835 . S
Eu561 O580 2.473 . S
Eu561 O581 2.480 . S
Eu561 O582 2.430 . S
Eu561 O583 2.670 . S
Eu561 O584 2.394 . S
Eu561 O589 2.355 . S
Eu561 O591 2.374 . S
C562 C560 1.500 . S
C562 C563 1.377 . S
C562 C567 1.377 . S
C563 C562 1.377 . S
C563 C564 1.395 . S
C563 H592 0.931 . S
C564 C563 1.395 . S
C564 C565 1.383 . S
C564 H593 0.931 . S
C565 C564 1.383 . S
C565 C566 1.394 . S
C566 C565 1.394 . S
C566 C567 1.378 . S
C566 H594 0.931 . S
C567 C562 1.377 . S
C567 C566 1.378 . S
C567 H595 0.931 . S
C568 O582 1.259 . S
C568 O583 1.270 . S
C569 O584 1.251 . S
C569 O585 1.251 . S
C570 Eu571 2.835 . S
C570 C572 1.500 . S
C570 O586 1.257 . S
C570 O587 1.260 . S
Eu571 C570 2.835 . S
Eu571 O583 2.355 . S
Eu571 O585 2.374 . S
Eu571 O586 2.473 . S
Eu571 O587 2.480 . S
Eu571 O588 2.430 . S
Eu571 O589 2.670 . S
Eu571 O590 2.394 . S
C572 C570 1.500 . S
C572 C573 1.377 . S
C572 C577 1.377 . S
C573 C572 1.377 . S
C573 C574 1.395 . S
C573 H596 0.931 . S
C574 C573 1.395 . S
C574 C575 1.383 . S
C574 H597 0.931 . S
C575 C574 1.383 . S
C575 C576 1.394 . S
C576 C575 1.394 . S
C576 C577 1.378 . S
C576 H598 0.931 . S
C577 C572 1.377 . S
C577 C576 1.378 . S
C577 H599 0.931 . S
C578 O588 1.259 . S
C578 O589 1.270 . S
C579 O590 1.251 . S
C579 O591 1.251 . S
O580 C560 1.257 . S
O580 Eu561 2.473 . S
O581 C560 1.260 . S
O581 Eu561 2.480 . S
O582 Eu561 2.430 . S
O582 C568 1.259 . S
O583 Eu561 2.670 . S
O583 C568 1.270 . S
O583 Eu571 2.355 . S
O584 Eu561 2.394 . S
O584 C569 1.251 . S
O585 C569 1.251 . S
O585 Eu571 2.374 . S
O586 C570 1.257 . S
O586 Eu571 2.473 . S
O587 C570 1.260 . S
O587 Eu571 2.480 . S
O588 Eu571 2.430 . S
O588 C578 1.259 . S
O589 Eu561 2.355 . S
O589 Eu571 2.670 . S
O589 C578 1.270 . S
O590 Eu571 2.394 . S
O590 C579 1.251 . S
O591 Eu561 2.374 . S
O591 C579 1.251 . S
H592 C563 0.931 . S
H593 C564 0.931 . S
H594 C566 0.931 . S
H595 C567 0.931 . S
H596 C573 0.931 . S
H597 C574 0.931 . S
H598 C576 0.931 . S
H599 C577 0.931 . S
C600 Eu601 2.835 . S
C600 C602 1.500 . S
C600 O620 1.257 . S
C600 O621 1.260 . S
Eu601 C600 2.835 . S
Eu601 O620 2.473 . S
Eu601 O621 2.480 . S
Eu601 O622 2.430 1_556 S
Eu601 O623 2.670 1_556 S
Eu601 O624 2.394 1_556 S
Eu601 O629 2.355 1_455 S
Eu601 O631 2.374 1_455 S
C602 C600 1.500 . S
C602 C603 1.377 . S
C602 C607 1.377 . S
C603 C602 1.377 . S
C603 C604 1.395 . S
C603 H632 0.931 . S
C604 C603 1.395 . S
C604 C605 1.383 . S
C604 H633 0.931 . S
C605 C604 1.383 . S
C605 C606 1.394 . S
C606 C605 1.394 . S
C606 C607 1.378 . S
C606 H634 0.931 . S
C607 C602 1.377 . S
C607 C606 1.378 . S
C607 H635 0.931 . S
C608 O622 1.259 . S
C608 O623 1.270 . S
C609 O624 1.251 . S
C609 O625 1.251 . S
C610 Eu611 2.835 . S
C610 C612 1.500 . S
C610 O626 1.257 . S
C610 O627 1.260 . S
Eu611 C610 2.835 . S
Eu611 O623 2.355 1_655 S
Eu611 O625 2.374 1_655 S
Eu611 O626 2.473 . S
Eu611 O627 2.480 . S
Eu611 O628 2.430 1_554 S
Eu611 O629 2.670 1_554 S
Eu611 O630 2.394 1_554 S
C612 C610 1.500 . S
C612 C613 1.377 . S
C612 C617 1.377 . S
C613 C612 1.377 . S
C613 C614 1.395 . S
C613 H636 0.931 . S
C614 C613 1.395 . S
C614 C615 1.383 . S
C614 H637 0.931 . S
C615 C614 1.383 . S
C615 C616 1.394 . S
C616 C615 1.394 . S
C616 C617 1.378 . S
C616 H638 0.931 . S
C617 C612 1.377 . S
C617 C616 1.378 . S
C617 H639 0.931 . S
C618 O628 1.259 . S
C618 O629 1.270 . S
C619 O630 1.251 . S
C619 O631 1.251 . S
O620 C600 1.257 . S
O620 Eu601 2.473 . S
O621 C600 1.260 . S
O621 Eu601 2.480 . S
O622 Eu601 2.430 1_554 S
O622 C608 1.259 . S
O623 Eu601 2.670 1_554 S
O623 C608 1.270 . S
O623 Eu611 2.355 1_455 S
O624 Eu601 2.394 1_554 S
O624 C609 1.251 . S
O625 C609 1.251 . S
O625 Eu611 2.374 1_455 S
O626 C610 1.257 . S
O626 Eu611 2.473 . S
O627 C610 1.260 . S
O627 Eu611 2.480 . S
O628 Eu611 2.430 1_556 S
O628 C618 1.259 . S
O629 Eu601 2.355 1_655 S
O629 Eu611 2.670 1_556 S
O629 C618 1.270 . S
O630 Eu611 2.394 1_556 S
O630 C619 1.251 . S
O631 Eu601 2.374 1_655 S
O631 C619 1.251 . S
H632 C603 0.931 . S
H633 C604 0.931 . S
H634 C606 0.931 . S
H635 C607 0.931 . S
H636 C613 0.931 . S
H637 C614 0.931 . S
H638 C616 0.931 . S
H639 C617 0.931 . S
C640 C641 1.369 . S
C640 C642 1.419 . S
C640 H644 0.930 . S
C641 C640 1.369 . S
C641 C650 1.429 . S
C642 C640 1.419 . S
C642 C643 1.363 . S
C642 H645 0.929 . S
C643 C642 1.363 . S
C643 C649 1.428 . S
H644 C640 0.930 . S
H645 C642 0.929 . S
S646 N647 1.613 . S
S646 N648 1.610 . S
N647 S646 1.613 . S
N647 C650 1.350 . S
N648 S646 1.610 . S
N648 C649 1.351 . S
C649 C643 1.428 . S
C649 N648 1.351 . S
C649 C650 1.434 . S
C650 C641 1.429 . S
C650 N647 1.350 . S
C650 C649 1.434 . S
C651 C652 1.369 . S
C651 C653 1.419 . S
C651 H655 0.930 . S
C652 C651 1.369 . S
C652 C661 1.429 . S
C653 C651 1.419 . S
C653 C654 1.363 . S
C653 H656 0.929 . S
C654 C653 1.363 . S
C654 C660 1.428 . S
H655 C651 0.930 . S
H656 C653 0.929 . S
S657 N658 1.613 . S
S657 N659 1.610 . S
N658 S657 1.613 . S
N658 C661 1.350 . S
N659 S657 1.610 . S
N659 C660 1.351 . S
C660 C654 1.428 . S
C660 N659 1.351 . S
C660 C661 1.434 . S
C661 C652 1.429 . S
C661 N658 1.350 . S
C661 C660 1.434 . S
C662 C663 1.369 . S
C662 C664 1.419 . S
C662 H666 0.930 . S
C663 C662 1.369 . S
C663 C672 1.429 . S
C664 C662 1.419 . S
C664 C665 1.363 . S
C664 H667 0.929 . S
C665 C664 1.363 . S
C665 C671 1.428 . S
H666 C662 0.930 . S
H667 C664 0.929 . S
S668 N669 1.613 . S
S668 N670 1.610 . S
N669 S668 1.613 . S
N669 C672 1.350 . S
N670 S668 1.610 . S
N670 C671 1.351 . S
C671 C665 1.428 . S
C671 N670 1.351 . S
C671 C672 1.434 . S
C672 C663 1.429 . S
C672 N669 1.350 . S
C672 C671 1.434 . S
C673 C674 1.369 . S
C673 C675 1.419 . S
C673 H677 0.930 . S
C674 C673 1.369 . S
C674 C683 1.429 . S
C675 C673 1.419 . S
C675 C676 1.363 . S
C675 H678 0.929 . S
C676 C675 1.363 . S
C676 C682 1.428 . S
H677 C673 0.930 . S
H678 C675 0.929 . S
S679 N680 1.613 . S
S679 N681 1.610 . S
N680 S679 1.613 . S
N680 C683 1.350 . S
N681 S679 1.610 . S
N681 C682 1.351 . S
C682 C676 1.428 . S
C682 N681 1.351 . S
C682 C683 1.434 . S
C683 C674 1.429 . S
C683 N680 1.350 . S
C683 C682 1.434 . S
C684 C685 1.369 . S
C684 C686 1.419 . S
C684 H688 0.930 . S
C685 C684 1.369 . S
C685 C694 1.429 . S
C686 C684 1.419 . S
C686 C687 1.363 . S
C686 H689 0.929 . S
C687 C686 1.363 . S
C687 C693 1.428 . S
H688 C684 0.930 . S
H689 C686 0.929 . S
S690 N691 1.613 . S
S690 N692 1.610 1_655 S
N691 S690 1.613 . S
N691 C694 1.350 1_655 S
N692 S690 1.610 1_455 S
N692 C693 1.351 . S
C693 C687 1.428 . S
C693 N692 1.351 . S
C693 C694 1.434 . S
C694 C685 1.429 . S
C694 N691 1.350 1_455 S
C694 C693 1.434 . S
C695 C696 1.369 . S
C695 C697 1.419 . S
C695 H699 0.930 . S
C696 C695 1.369 . S
C696 C705 1.429 . S
C697 C695 1.419 . S
C697 C698 1.363 . S
C697 H700 0.929 . S
C698 C697 1.363 . S
C698 C704 1.428 . S
H699 C695 0.930 . S
H700 C697 0.929 . S
S701 N702 1.613 . S
S701 N703 1.610 . S
N702 S701 1.613 . S
N702 C705 1.350 . S
N703 S701 1.610 . S
N703 C704 1.351 . S
C704 C698 1.428 . S
C704 N703 1.351 . S
C704 C705 1.434 . S
C705 C696 1.429 . S
C705 N702 1.350 . S
C705 C704 1.434 . S
C706 C707 1.369 . S
C706 C708 1.419 . S
C706 H710 0.930 . S
C707 C706 1.369 . S
C707 C716 1.429 . S
C708 C706 1.419 . S
C708 C709 1.363 . S
C708 H711 0.929 . S
C709 C708 1.363 . S
C709 C715 1.428 . S
H710 C706 0.930 . S
H711 C708 0.929 . S
S712 N713 1.613 . S
S712 N714 1.610 . S
N713 S712 1.613 . S
N713 C716 1.350 . S
N714 S712 1.610 . S
N714 C715 1.351 . S
C715 C709 1.428 . S
C715 N714 1.351 . S
C715 C716 1.434 . S
C716 C707 1.429 . S
C716 N713 1.350 . S
C716 C715 1.434 . S
C717 C718 1.369 . S
C717 C719 1.419 . S
C717 H721 0.930 . S
C718 C717 1.369 . S
C718 C727 1.429 . S
C719 C717 1.419 . S
C719 C720 1.363 . S
C719 H722 0.929 . S
C720 C719 1.363 . S
C720 C726 1.428 . S
H721 C717 0.930 . S
H722 C719 0.929 . S
S723 N724 1.613 . S
S723 N725 1.610 . S
N724 S723 1.613 . S
N724 C727 1.350 . S
N725 S723 1.610 . S
N725 C726 1.351 . S
C726 C720 1.428 . S
C726 N725 1.351 . S
C726 C727 1.434 . S
C727 C718 1.429 . S
C727 N724 1.350 . S
C727 C726 1.434 . S
C728 C729 1.369 . S
C728 C730 1.419 . S
C728 H732 0.930 . S
C729 C728 1.369 . S
C729 C738 1.429 . S
C730 C728 1.419 . S
C730 C731 1.363 . S
C730 H733 0.929 . S
C731 C730 1.363 . S
C731 C737 1.428 . S
H732 C728 0.930 . S
H733 C730 0.929 . S
S734 N735 1.613 . S
S734 N736 1.610 . S
N735 S734 1.613 . S
N735 C738 1.350 . S
N736 S734 1.610 . S
N736 C737 1.351 . S
C737 C731 1.428 . S
C737 N736 1.351 . S
C737 C738 1.434 . S
C738 C729 1.429 . S
C738 N735 1.350 . S
C738 C737 1.434 . S
C739 C740 1.369 . S
C739 C741 1.419 . S
C739 H743 0.930 . S
C740 C739 1.369 . S
C740 C749 1.429 . S
C741 C739 1.419 . S
C741 C742 1.363 . S
C741 H744 0.929 . S
C742 C741 1.363 . S
C742 C748 1.428 . S
H743 C739 0.930 . S
H744 C741 0.929 . S
S745 N746 1.613 . S
S745 N747 1.610 . S
N746 S745 1.613 . S
N746 C749 1.350 . S
N747 S745 1.610 . S
N747 C748 1.351 . S
C748 C742 1.428 . S
C748 N747 1.351 . S
C748 C749 1.434 . S
C749 C740 1.429 . S
C749 N746 1.350 . S
C749 C748 1.434 . S
C750 C751 1.369 . S
C750 C752 1.419 . S
C750 H754 0.930 . S
C751 C750 1.369 . S
C751 C760 1.429 . S
C752 C750 1.419 . S
C752 C753 1.363 . S
C752 H755 0.929 . S
C753 C752 1.363 . S
C753 C759 1.428 . S
H754 C750 0.930 . S
H755 C752 0.929 . S
S756 N757 1.613 . S
S756 N758 1.610 . S
N757 S756 1.613 . S
N757 C760 1.350 . S
N758 S756 1.610 . S
N758 C759 1.351 . S
C759 C753 1.428 . S
C759 N758 1.351 . S
C759 C760 1.434 . S
C760 C751 1.429 . S
C760 N757 1.350 . S
C760 C759 1.434 . S
C761 C762 1.369 . S
C761 C763 1.419 . S
C761 H765 0.930 . S
C762 C761 1.369 . S
C762 C771 1.429 . S
C763 C761 1.419 . S
C763 C764 1.363 . S
C763 H766 0.929 . S
C764 C763 1.363 . S
C764 C770 1.428 . S
H765 C761 0.930 . S
H766 C763 0.929 . S
S767 N768 1.613 . S
S767 N769 1.610 . S
N768 S767 1.613 . S
N768 C771 1.350 . S
N769 S767 1.610 . S
N769 C770 1.351 . S
C770 C764 1.428 . S
C770 N769 1.351 . S
C770 C771 1.434 . S
C771 C762 1.429 . S
C771 N768 1.350 . S
C771 C770 1.434 . S
C772 C773 1.369 . S
C772 C774 1.419 . S
C772 H776 0.930 . S
C773 C772 1.369 . S
C773 C782 1.429 . S
C774 C772 1.419 . S
C774 C775 1.363 . S
C774 H777 0.929 . S
C775 C774 1.363 . S
C775 C781 1.428 . S
H776 C772 0.930 . S
H777 C774 0.929 . S
S778 N779 1.613 . S
S778 N780 1.610 . S
N779 S778 1.613 . S
N779 C782 1.350 . S
N780 S778 1.610 . S
N780 C781 1.351 . S
C781 C775 1.428 . S
C781 N780 1.351 . S
C781 C782 1.434 . S
C782 C773 1.429 . S
C782 N779 1.350 . S
C782 C781 1.434 . S
C783 C784 1.369 . S
C783 C785 1.419 . S
C783 H787 0.930 . S
C784 C783 1.369 . S
C784 C793 1.429 . S
C785 C783 1.419 . S
C785 C786 1.363 . S
C785 H788 0.929 . S
C786 C785 1.363 . S
C786 C792 1.428 . S
H787 C783 0.930 . S
H788 C785 0.929 . S
S789 N790 1.613 . S
S789 N791 1.610 . S
N790 S789 1.613 . S
N790 C793 1.350 . S
N791 S789 1.610 . S
N791 C792 1.351 . S
C792 C786 1.428 . S
C792 N791 1.351 . S
C792 C793 1.434 . S
C793 C784 1.429 . S
C793 N790 1.350 . S
C793 C792 1.434 . S
C794 C795 1.369 . S
C794 C796 1.419 . S
C794 H798 0.930 . S
C795 C794 1.369 . S
C795 C804 1.429 . S
C796 C794 1.419 . S
C796 C797 1.363 . S
C796 H799 0.929 . S
C797 C796 1.363 . S
C797 C803 1.428 . S
H798 C794 0.930 . S
H799 C796 0.929 . S
S800 N801 1.613 . S
S800 N802 1.610 . S
N801 S800 1.613 . S
N801 C804 1.350 . S
N802 S800 1.610 . S
N802 C803 1.351 . S
C803 C797 1.428 . S
C803 N802 1.351 . S
C803 C804 1.434 . S
C804 C795 1.429 . S
C804 N801 1.350 . S
C804 C803 1.434 . S
C805 C806 1.369 . S
C805 C807 1.419 . S
C805 H809 0.930 . S
C806 C805 1.369 . S
C806 C815 1.429 . S
C807 C805 1.419 . S
C807 C808 1.363 . S
C807 H810 0.929 . S
C808 C807 1.363 . S
C808 C814 1.428 . S
H809 C805 0.930 . S
H810 C807 0.929 . S
S811 N812 1.613 . S
S811 N813 1.610 . S
N812 S811 1.613 . S
N812 C815 1.350 . S
N813 S811 1.610 . S
N813 C814 1.351 . S
C814 C808 1.428 . S
C814 N813 1.351 . S
C814 C815 1.434 . S
C815 C806 1.429 . S
C815 N812 1.350 . S
C815 C814 1.434 . S
C816 C817 1.369 . S
C816 C818 1.419 . S
C816 H820 0.930 . S
C817 C816 1.369 . S
C817 C826 1.429 . S
C818 C816 1.419 . S
C818 C819 1.363 . S
C818 H821 0.929 . S
C819 C818 1.363 . S
C819 C825 1.428 . S
H820 C816 0.930 . S
H821 C818 0.929 . S
S822 N823 1.613 . S
S822 N824 1.610 . S
N823 S822 1.613 . S
N823 C826 1.350 . S
N824 S822 1.610 . S
N824 C825 1.351 . S
C825 C819 1.428 . S
C825 N824 1.351 . S
C825 C826 1.434 . S
C826 C817 1.429 . S
C826 N823 1.350 . S
C826 C825 1.434 . S
C827 C828 1.369 . S
C827 C829 1.419 . S
C827 H831 0.930 . S
C828 C827 1.369 . S
C828 C837 1.429 . S
C829 C827 1.419 . S
C829 C830 1.363 . S
C829 H832 0.929 . S
C830 C829 1.363 . S
C830 C836 1.428 . S
H831 C827 0.930 . S
H832 C829 0.929 . S
S833 N834 1.613 . S
S833 N835 1.610 . S
N834 S833 1.613 . S
N834 C837 1.350 . S
N835 S833 1.610 . S
N835 C836 1.351 . S
C836 C830 1.428 . S
C836 N835 1.351 . S
C836 C837 1.434 . S
C837 C828 1.429 . S
C837 N834 1.350 . S
C837 C836 1.434 . S
C838 C839 1.369 . S
C838 C840 1.419 . S
C838 H842 0.930 . S
C839 C838 1.369 . S
C839 C848 1.429 . S
C840 C838 1.419 . S
C840 C841 1.363 . S
C840 H843 0.929 . S
C841 C840 1.363 . S
C841 C847 1.428 . S
H842 C838 0.930 . S
H843 C840 0.929 . S
S844 N845 1.613 . S
S844 N846 1.610 . S
N845 S844 1.613 . S
N845 C848 1.350 . S
N846 S844 1.610 . S
N846 C847 1.351 . S
C847 C841 1.428 . S
C847 N846 1.351 . S
C847 C848 1.434 . S
C848 C839 1.429 . S
C848 N845 1.350 . S
C848 C847 1.434 . S
C849 C850 1.369 . S
C849 C851 1.419 . S
C849 H853 0.930 . S
C850 C849 1.369 . S
C850 C859 1.429 . S
C851 C849 1.419 . S
C851 C852 1.363 . S
C851 H854 0.929 . S
C852 C851 1.363 . S
C852 C858 1.428 . S
H853 C849 0.930 . S
H854 C851 0.929 . S
S855 N856 1.613 . S
S855 N857 1.610 . S
N856 S855 1.613 . S
N856 C859 1.350 . S
N857 S855 1.610 . S
N857 C858 1.351 . S
C858 C852 1.428 . S
C858 N857 1.351 . S
C858 C859 1.434 . S
C859 C850 1.429 . S
C859 N856 1.350 . S
C859 C858 1.434 . S
C860 C861 1.369 . S
C860 C862 1.419 . S
C860 H864 0.930 . S
C861 C860 1.369 . S
C861 C870 1.429 . S
C862 C860 1.419 . S
C862 C863 1.363 . S
C862 H865 0.929 . S
C863 C862 1.363 . S
C863 C869 1.428 . S
H864 C860 0.930 . S
H865 C862 0.929 . S
S866 N867 1.613 . S
S866 N868 1.610 . S
N867 S866 1.613 . S
N867 C870 1.350 . S
N868 S866 1.610 . S
N868 C869 1.351 . S
C869 C863 1.428 . S
C869 N868 1.351 . S
C869 C870 1.434 . S
C870 C861 1.429 . S
C870 N867 1.350 . S
C870 C869 1.434 . S
C871 C872 1.369 . S
C871 C873 1.419 . S
C871 H875 0.930 . S
C872 C871 1.369 . S
C872 C881 1.429 . S
C873 C871 1.419 . S
C873 C874 1.363 . S
C873 H876 0.929 . S
C874 C873 1.363 . S
C874 C880 1.428 . S
H875 C871 0.930 . S
H876 C873 0.929 . S
S877 N878 1.613 . S
S877 N879 1.610 . S
N878 S877 1.613 . S
N878 C881 1.350 . S
N879 S877 1.610 . S
N879 C880 1.351 . S
C880 C874 1.428 . S
C880 N879 1.351 . S
C880 C881 1.434 . S
C881 C872 1.429 . S
C881 N878 1.350 . S
C881 C880 1.434 . S
C882 C883 1.369 . S
C882 C884 1.419 . S
C882 H886 0.930 . S
C883 C882 1.369 . S
C883 C892 1.429 . S
C884 C882 1.419 . S
C884 C885 1.363 . S
C884 H887 0.929 . S
C885 C884 1.363 . S
C885 C891 1.428 . S
H886 C882 0.930 . S
H887 C884 0.929 . S
S888 N889 1.613 . S
S888 N890 1.610 . S
N889 S888 1.613 . S
N889 C892 1.350 . S
N890 S888 1.610 . S
N890 C891 1.351 . S
C891 C885 1.428 . S
C891 N890 1.351 . S
C891 C892 1.434 . S
C892 C883 1.429 . S
C892 N889 1.350 . S
C892 C891 1.434 . S
C893 C894 1.369 . S
C893 C895 1.419 . S
C893 H897 0.930 . S
C894 C893 1.369 . S
C894 C903 1.429 . S
C895 C893 1.419 . S
C895 C896 1.363 . S
C895 H898 0.929 . S
C896 C895 1.363 . S
C896 C902 1.428 . S
H897 C893 0.930 . S
H898 C895 0.929 . S
S899 N900 1.613 . S
S899 N901 1.610 . S
N900 S899 1.613 . S
N900 C903 1.350 . S
N901 S899 1.610 . S
N901 C902 1.351 . S
C902 C896 1.428 . S
C902 N901 1.351 . S
C902 C903 1.434 . S
C903 C894 1.429 . S
C903 N900 1.350 . S
C903 C902 1.434 . S
C904 C905 1.369 . S
C904 C906 1.419 . S
C904 H908 0.930 . S
C905 C904 1.369 . S
C905 C914 1.429 . S
C906 C904 1.419 . S
C906 C907 1.363 . S
C906 H909 0.929 . S
C907 C906 1.363 . S
C907 C913 1.428 . S
H908 C904 0.930 . S
H909 C906 0.929 . S
S910 N911 1.613 . S
S910 N912 1.610 . S
N911 S910 1.613 . S
N911 C914 1.350 . S
N912 S910 1.610 . S
N912 C913 1.351 . S
C913 C907 1.428 . S
C913 N912 1.351 . S
C913 C914 1.434 . S
C914 C905 1.429 . S
C914 N911 1.350 . S
C914 C913 1.434 . S
C915 C916 1.369 . S
C915 C917 1.419 . S
C915 H919 0.930 . S
C916 C915 1.369 . S
C916 C925 1.429 . S
C917 C915 1.419 . S
C917 C918 1.363 . S
C917 H920 0.929 . S
C918 C917 1.363 . S
C918 C924 1.428 . S
H919 C915 0.930 . S
H920 C917 0.929 . S
S921 N922 1.613 . S
S921 N923 1.610 . S
N922 S921 1.613 . S
N922 C925 1.350 . S
N923 S921 1.610 . S
N923 C924 1.351 . S
C924 C918 1.428 . S
C924 N923 1.351 . S
C924 C925 1.434 . S
C925 C916 1.429 . S
C925 N922 1.350 . S
C925 C924 1.434 . S
C926 C927 1.369 . S
C926 C928 1.419 . S
C926 H930 0.930 . S
C927 C926 1.369 . S
C927 C936 1.429 . S
C928 C926 1.419 . S
C928 C929 1.363 . S
C928 H931 0.929 . S
C929 C928 1.363 . S
C929 C935 1.428 . S
H930 C926 0.930 . S
H931 C928 0.929 . S
S932 N933 1.613 . S
S932 N934 1.610 . S
N933 S932 1.613 . S
N933 C936 1.350 . S
N934 S932 1.610 . S
N934 C935 1.351 . S
C935 C929 1.428 . S
C935 N934 1.351 . S
C935 C936 1.434 . S
C936 C927 1.429 . S
C936 N933 1.350 . S
C936 C935 1.434 . S
C937 C938 1.369 . S
C937 C939 1.419 . S
C937 H941 0.930 . S
C938 C937 1.369 . S
C938 C947 1.429 . S
C939 C937 1.419 . S
C939 C940 1.363 . S
C939 H942 0.929 . S
C940 C939 1.363 . S
C940 C946 1.428 . S
H941 C937 0.930 . S
H942 C939 0.929 . S
S943 N944 1.613 . S
S943 N945 1.610 . S
N944 S943 1.613 . S
N944 C947 1.350 . S
N945 S943 1.610 . S
N945 C946 1.351 . S
C946 C940 1.428 . S
C946 N945 1.351 . S
C946 C947 1.434 . S
C947 C938 1.429 . S
C947 N944 1.350 . S
C947 C946 1.434 . S
C948 C949 1.369 . S
C948 C950 1.419 . S
C948 H952 0.930 . S
C949 C948 1.369 . S
C949 C958 1.429 . S
C950 C948 1.419 . S
C950 C951 1.363 . S
C950 H953 0.929 . S
C951 C950 1.363 . S
C951 C957 1.428 . S
H952 C948 0.930 . S
H953 C950 0.929 . S
S954 N955 1.613 . S
S954 N956 1.610 . S
N955 S954 1.613 . S
N955 C958 1.350 . S
N956 S954 1.610 . S
N956 C957 1.351 . S
C957 C951 1.428 . S
C957 N956 1.351 . S
C957 C958 1.434 . S
C958 C949 1.429 . S
C958 N955 1.350 . S
C958 C957 1.434 . S
C959 C960 1.369 . S
C959 C961 1.419 . S
C959 H963 0.930 . S
C960 C959 1.369 . S
C960 C969 1.429 . S
C961 C959 1.419 . S
C961 C962 1.363 . S
C961 H964 0.929 . S
C962 C961 1.363 . S
C962 C968 1.428 . S
H963 C959 0.930 . S
H964 C961 0.929 . S
S965 N966 1.613 . S
S965 N967 1.610 . S
N966 S965 1.613 . S
N966 C969 1.350 . S
N967 S965 1.610 . S
N967 C968 1.351 . S
C968 C962 1.428 . S
C968 N967 1.351 . S
C968 C969 1.434 . S
C969 C960 1.429 . S
C969 N966 1.350 . S
C969 C968 1.434 . S
C970 C971 1.369 . S
C970 C972 1.419 . S
C970 H974 0.930 . S
C971 C970 1.369 . S
C971 C980 1.429 . S
C972 C970 1.419 . S
C972 C973 1.363 . S
C972 H975 0.929 . S
C973 C972 1.363 . S
C973 C979 1.428 . S
H974 C970 0.930 . S
H975 C972 0.929 . S
S976 N977 1.613 . S
S976 N978 1.610 . S
N977 S976 1.613 . S
N977 C980 1.350 . S
N978 S976 1.610 . S
N978 C979 1.351 . S
C979 C973 1.428 . S
C979 N978 1.351 . S
C979 C980 1.434 . S
C980 C971 1.429 . S
C980 N977 1.350 . S
C980 C979 1.434 . S
C981 C982 1.369 . S
C981 C983 1.419 . S
C981 H985 0.930 . S
C982 C981 1.369 . S
C982 C991 1.429 . S
C983 C981 1.419 . S
C983 C984 1.363 . S
C983 H986 0.929 . S
C984 C983 1.363 . S
C984 C990 1.428 . S
H985 C981 0.930 . S
H986 C983 0.929 . S
S987 N988 1.613 . S
S987 N989 1.610 . S
N988 S987 1.613 . S
N988 C991 1.350 . S
N989 S987 1.610 . S
N989 C990 1.351 . S
C990 C984 1.428 . S
C990 N989 1.351 . S
C990 C991 1.434 . S
C991 C982 1.429 . S
C991 N988 1.350 . S
C991 C990 1.434 . S
C992 C993 1.369 . S
C992 C994 1.419 . S
C992 H996 0.930 . S
C993 C992 1.369 . S
C993 C1002 1.429 . S
C994 C992 1.419 . S
C994 C995 1.363 . S
C994 H997 0.929 . S
C995 C994 1.363 . S
C995 C1001 1.428 . S
H996 C992 0.930 . S
H997 C994 0.929 . S
S998 N999 1.613 . S
S998 N1000 1.610 . S
N999 S998 1.613 . S
N999 C1002 1.350 . S
N1000 S998 1.610 . S
N1000 C1001 1.351 . S
C1001 C995 1.428 . S
C1001 N1000 1.351 . S
C1001 C1002 1.434 . S
C1002 C993 1.429 . S
C1002 N999 1.350 . S
C1002 C1001 1.434 . S
C1003 C1004 1.369 . S
C1003 C1005 1.419 . S
C1003 H1007 0.930 . S
C1004 C1003 1.369 . S
C1004 C1013 1.429 . S
C1005 C1003 1.419 . S
C1005 C1006 1.363 . S
C1005 H1008 0.929 . S
C1006 C1005 1.363 . S
C1006 C1012 1.428 . S
H1007 C1003 0.930 . S
H1008 C1005 0.929 . S
S1009 N1010 1.613 . S
S1009 N1011 1.610 . S
N1010 S1009 1.613 . S
N1010 C1013 1.350 . S
N1011 S1009 1.610 . S
N1011 C1012 1.351 . S
C1012 C1006 1.428 . S
C1012 N1011 1.351 . S
C1012 C1013 1.434 . S
C1013 C1004 1.429 . S
C1013 N1010 1.350 . S
C1013 C1012 1.434 . S
C1014 C1015 1.369 . S
C1014 C1016 1.419 . S
C1014 H1018 0.930 . S
C1015 C1014 1.369 . S
C1015 C1024 1.429 . S
C1016 C1014 1.419 . S
C1016 C1017 1.363 . S
C1016 H1019 0.929 . S
C1017 C1016 1.363 . S
C1017 C1023 1.428 . S
H1018 C1014 0.930 . S
H1019 C1016 0.929 . S
S1020 N1021 1.613 . S
S1020 N1022 1.610 . S
N1021 S1020 1.613 . S
N1021 C1024 1.350 . S
N1022 S1020 1.610 . S
N1022 C1023 1.351 . S
C1023 C1017 1.428 . S
C1023 N1022 1.351 . S
C1023 C1024 1.434 . S
C1024 C1015 1.429 . S
C1024 N1021 1.350 . S
C1024 C1023 1.434 . S
C1025 C1026 1.369 . S
C1025 C1027 1.419 . S
C1025 H1029 0.930 . S
C1026 C1025 1.369 . S
C1026 C1035 1.429 . S
C1027 C1025 1.419 . S
C1027 C1028 1.363 . S
C1027 H1030 0.929 . S
C1028 C1027 1.363 . S
C1028 C1034 1.428 . S
H1029 C1025 0.930 . S
H1030 C1027 0.929 . S
S1031 N1032 1.613 1_556 S
S1031 N1033 1.610 1_556 S
N1032 S1031 1.613 1_554 S
N1032 C1035 1.350 . S
N1033 S1031 1.610 1_554 S
N1033 C1034 1.351 . S
C1034 C1028 1.428 . S
C1034 N1033 1.351 . S
C1034 C1035 1.434 . S
C1035 C1026 1.429 . S
C1035 N1032 1.350 . S
C1035 C1034 1.434 . S
C1036 C1037 1.369 . S
C1036 C1038 1.419 . S
C1036 H1040 0.930 . S
C1037 C1036 1.369 . S
C1037 C1046 1.429 . S
C1038 C1036 1.419 . S
C1038 C1039 1.363 . S
C1038 H1041 0.929 . S
C1039 C1038 1.363 . S
C1039 C1045 1.428 . S
H1040 C1036 0.930 . S
H1041 C1038 0.929 . S
S1042 N1043 1.613 . S
S1042 N1044 1.610 . S
N1043 S1042 1.613 . S
N1043 C1046 1.350 . S
N1044 S1042 1.610 . S
N1044 C1045 1.351 . S
C1045 C1039 1.428 . S
C1045 N1044 1.351 . S
C1045 C1046 1.434 . S
C1046 C1037 1.429 . S
C1046 N1043 1.350 . S
C1046 C1045 1.434 . S
C1047 C1048 1.369 . S
C1047 C1049 1.419 . S
C1047 H1051 0.930 . S
C1048 C1047 1.369 . S
C1048 C1057 1.429 . S
C1049 C1047 1.419 . S
C1049 C1050 1.363 . S
C1049 H1052 0.929 . S
C1050 C1049 1.363 . S
C1050 C1056 1.428 . S
H1051 C1047 0.930 . S
H1052 C1049 0.929 . S
S1053 N1054 1.613 . S
S1053 N1055 1.610 . S
N1054 S1053 1.613 . S
N1054 C1057 1.350 . S
N1055 S1053 1.610 . S
N1055 C1056 1.351 . S
C1056 C1050 1.428 . S
C1056 N1055 1.351 . S
C1056 C1057 1.434 . S
C1057 C1048 1.429 . S
C1057 N1054 1.350 . S
C1057 C1056 1.434 . S
C1058 C1059 1.369 . S
C1058 C1060 1.419 . S
C1058 H1062 0.930 . S
C1059 C1058 1.369 . S
C1059 C1068 1.429 . S
C1060 C1058 1.419 . S
C1060 C1061 1.363 . S
C1060 H1063 0.929 . S
C1061 C1060 1.363 . S
C1061 C1067 1.428 . S
H1062 C1058 0.930 . S
H1063 C1060 0.929 . S
S1064 N1065 1.613 . S
S1064 N1066 1.610 . S
N1065 S1064 1.613 . S
N1065 C1068 1.350 1_554 S
N1066 S1064 1.610 . S
N1066 C1067 1.351 1_554 S
C1067 C1061 1.428 . S
C1067 N1066 1.351 1_556 S
C1067 C1068 1.434 . S
C1068 C1059 1.429 . S
C1068 N1065 1.350 1_556 S
C1068 C1067 1.434 . S
C1069 C1070 1.369 . S
C1069 C1071 1.419 . S
C1069 H1073 0.930 . S
C1070 C1069 1.369 . S
C1070 C1079 1.429 . S
C1071 C1069 1.419 . S
C1071 C1072 1.363 . S
C1071 H1074 0.929 . S
C1072 C1071 1.363 . S
C1072 C1078 1.428 . S
H1073 C1069 0.930 . S
H1074 C1071 0.929 . S
S1075 N1076 1.613 . S
S1075 N1077 1.610 . S
N1076 S1075 1.613 . S
N1076 C1079 1.350 . S
N1077 S1075 1.610 . S
N1077 C1078 1.351 . S
C1078 C1072 1.428 . S
C1078 N1077 1.351 . S
C1078 C1079 1.434 . S
C1079 C1070 1.429 . S
C1079 N1076 1.350 . S
C1079 C1078 1.434 . S
C1080 C1081 1.369 . S
C1080 C1082 1.419 . S
C1080 H1084 0.930 . S
C1081 C1080 1.369 . S
C1081 C1090 1.429 . S
C1082 C1080 1.419 . S
C1082 C1083 1.363 . S
C1082 H1085 0.929 . S
C1083 C1082 1.363 . S
C1083 C1089 1.428 . S
H1084 C1080 0.930 . S
H1085 C1082 0.929 . S
S1086 N1087 1.613 . S
S1086 N1088 1.610 . S
N1087 S1086 1.613 . S
N1087 C1090 1.350 . S
N1088 S1086 1.610 . S
N1088 C1089 1.351 . S
C1089 C1083 1.428 . S
C1089 N1088 1.351 . S
C1089 C1090 1.434 . S
C1090 C1081 1.429 . S
C1090 N1087 1.350 . S
C1090 C1089 1.434 . S
C1091 C1092 1.369 . S
C1091 C1093 1.419 . S
C1091 H1095 0.930 . S
C1092 C1091 1.369 . S
C1092 C1101 1.429 . S
C1093 C1091 1.419 . S
C1093 C1094 1.363 . S
C1093 H1096 0.929 . S
C1094 C1093 1.363 . S
C1094 C1100 1.428 . S
H1095 C1091 0.930 . S
H1096 C1093 0.929 . S
S1097 N1098 1.613 . S
S1097 N1099 1.610 . S
N1098 S1097 1.613 . S
N1098 C1101 1.350 . S
N1099 S1097 1.610 . S
N1099 C1100 1.351 . S
C1100 C1094 1.428 . S
C1100 N1099 1.351 . S
C1100 C1101 1.434 . S
C1101 C1092 1.429 . S
C1101 N1098 1.350 . S
C1101 C1100 1.434 . S
C1102 C1103 1.369 . S
C1102 C1104 1.419 . S
C1102 H1106 0.930 . S
C1103 C1102 1.369 . S
C1103 C1112 1.429 . S
C1104 C1102 1.419 . S
C1104 C1105 1.363 . S
C1104 H1107 0.929 . S
C1105 C1104 1.363 . S
C1105 C1111 1.428 . S
H1106 C1102 0.930 . S
H1107 C1104 0.929 . S
S1108 N1109 1.613 . S
S1108 N1110 1.610 . S
N1109 S1108 1.613 . S
N1109 C1112 1.350 . S
N1110 S1108 1.610 . S
N1110 C1111 1.351 . S
C1111 C1105 1.428 . S
C1111 N1110 1.351 . S
C1111 C1112 1.434 . S
C1112 C1103 1.429 . S
C1112 N1109 1.350 . S
C1112 C1111 1.434 . S
C1113 C1114 1.369 . S
C1113 C1115 1.419 . S
C1113 H1117 0.930 . S
C1114 C1113 1.369 . S
C1114 C1123 1.429 . S
C1115 C1113 1.419 . S
C1115 C1116 1.363 . S
C1115 H1118 0.929 . S
C1116 C1115 1.363 . S
C1116 C1122 1.428 . S
H1117 C1113 0.930 . S
H1118 C1115 0.929 . S
S1119 N1120 1.613 . S
S1119 N1121 1.610 . S
N1120 S1119 1.613 . S
N1120 C1123 1.350 . S
N1121 S1119 1.610 . S
N1121 C1122 1.351 . S
C1122 C1116 1.428 . S
C1122 N1121 1.351 . S
C1122 C1123 1.434 . S
C1123 C1114 1.429 . S
C1123 N1120 1.350 . S
C1123 C1122 1.434 . S
C1124 C1125 1.369 . S
C1124 C1126 1.419 . S
C1124 H1128 0.930 . S
C1125 C1124 1.369 . S
C1125 C1134 1.429 . S
C1126 C1124 1.419 . S
C1126 C1127 1.363 . S
C1126 H1129 0.929 . S
C1127 C1126 1.363 . S
C1127 C1133 1.428 . S
H1128 C1124 0.930 . S
H1129 C1126 0.929 . S
S1130 N1131 1.613 . S
S1130 N1132 1.610 . S
N1131 S1130 1.613 . S
N1131 C1134 1.350 . S
N1132 S1130 1.610 . S
N1132 C1133 1.351 . S
C1133 C1127 1.428 . S
C1133 N1132 1.351 . S
C1133 C1134 1.434 . S
C1134 C1125 1.429 . S
C1134 N1131 1.350 . S
C1134 C1133 1.434 . S
C1135 C1136 1.369 . S
C1135 C1137 1.419 . S
C1135 H1139 0.930 . S
C1136 C1135 1.369 . S
C1136 C1145 1.429 . S
C1137 C1135 1.419 . S
C1137 C1138 1.363 . S
C1137 H1140 0.929 . S
C1138 C1137 1.363 . S
C1138 C1144 1.428 . S
H1139 C1135 0.930 . S
H1140 C1137 0.929 . S
S1141 N1142 1.613 . S
S1141 N1143 1.610 . S
N1142 S1141 1.613 . S
N1142 C1145 1.350 . S
N1143 S1141 1.610 . S
N1143 C1144 1.351 . S
C1144 C1138 1.428 . S
C1144 N1143 1.351 . S
C1144 C1145 1.434 . S
C1145 C1136 1.429 . S
C1145 N1142 1.350 . S
C1145 C1144 1.434 . S
C1146 C1147 1.369 . S
C1146 C1148 1.419 . S
C1146 H1150 0.930 . S
C1147 C1146 1.369 . S
C1147 C1156 1.429 . S
C1148 C1146 1.419 . S
C1148 C1149 1.363 . S
C1148 H1151 0.929 . S
C1149 C1148 1.363 . S
C1149 C1155 1.428 . S
H1150 C1146 0.930 . S
H1151 C1148 0.929 . S
S1152 N1153 1.613 . S
S1152 N1154 1.610 . S
N1153 S1152 1.613 . S
N1153 C1156 1.350 . S
N1154 S1152 1.610 . S
N1154 C1155 1.351 . S
C1155 C1149 1.428 . S
C1155 N1154 1.351 . S
C1155 C1156 1.434 . S
C1156 C1147 1.429 . S
C1156 N1153 1.350 . S
C1156 C1155 1.434 . S
C1157 C1158 1.369 . S
C1157 C1159 1.419 . S
C1157 H1161 0.930 . S
C1158 C1157 1.369 . S
C1158 C1167 1.429 . S
C1159 C1157 1.419 . S
C1159 C1160 1.363 . S
C1159 H1162 0.929 . S
C1160 C1159 1.363 . S
C1160 C1166 1.428 . S
H1161 C1157 0.930 . S
H1162 C1159 0.929 . S
S1163 N1164 1.613 . S
S1163 N1165 1.610 . S
N1164 S1163 1.613 . S
N1164 C1167 1.350 . S
N1165 S1163 1.610 . S
N1165 C1166 1.351 . S
C1166 C1160 1.428 . S
C1166 N1165 1.351 . S
C1166 C1167 1.434 . S
C1167 C1158 1.429 . S
C1167 N1164 1.350 . S
C1167 C1166 1.434 . S
C641 C129 3.663 . S
C643 C8 3.677 . S
C652 C19 3.054 . S
C654 C49 3.077 . S
C663 C98 1.292 . S
C665 C58 1.250 . S
C674 C135 0.911 . S
C676 C95 0.936 . S
C685 C179 0.517 . S
C687 C215 0.412 . S
C696 C218 1.317 . S
C698 C248 1.398 . S
C707 C245 0.683 . S
C709 C295 0.713 . S
C718 C165 1.014 . S
C720 C298 1.035 . S
C729 C369 3.373 . S
C731 C5 3.332 . S
C740 C419 0.920 . S
C742 C55 0.899 . S
C751 C89 3.066 . S
C753 C529 3.011 . S
C762 C328 1.259 . S
C764 C138 1.315 . S
C773 C458 1.316 . S
C775 C168 1.261 . S
C784 C565 3.332 . S
C786 C209 3.373 . S
C795 C259 0.921 . S
C797 C495 0.900 . S
C806 C609 3.067 . S
C808 C289 3.011 . S
C817 C325 1.012 . S
C819 C538 1.034 . S
C828 C375 0.417 . S
C830 C339 0.493 . S
C839 C408 1.397 . S
C841 C378 1.315 . S
C850 C568 3.677 . S
C852 C449 3.662 . S
C861 C498 1.248 . S
C863 C618 1.293 . S
C872 C459 3.662 . S
C874 C18 3.677 . S
C883 C499 3.077 . S
C885 C9 3.055 . S
C894 C488 1.248 . S
C896 C88 1.288 . S
C905 C85 0.939 . S
C907 C445 0.912 . S
C916 C365 0.427 . S
C918 C169 0.498 . S
C927 C368 1.316 . S
C929 C258 1.399 . S
C938 C525 0.719 . S
C940 C255 0.685 . S
C949 C175 1.013 . S
C951 C528 1.034 . S
C960 C219 3.373 . S
C962 C15 3.332 . S
C971 C409 0.906 . S
C973 C485 0.915 . S
C982 C99 3.067 . S
C984 C299 3.009 . S
C993 C338 1.268 . S
C995 C448 1.318 . S
C1004 C128 1.317 . S
C1006 C178 1.268 . S
C1015 C379 3.373 . S
C1017 C575 3.332 . S
C1026 C249 0.903 . S
C1028 C45 0.908 . S
C1037 C619 3.066 . S
C1039 C539 3.012 . S
C1048 C335 1.012 . S
C1050 C288 1.036 . S
C1059 C329 0.489 . S
C1061 C205 0.425 . S
C1070 C418 1.399 . S
C1072 C208 1.319 . S
C1081 C139 3.662 . S
C1083 C578 3.677 . S
C1092 C48 1.248 . S
C1094 C608 1.287 . S
C1103 C489 3.077 . S
C1105 C579 3.055 . S
C1114 C455 0.913 . S
C1116 C615 0.933 . S
C1125 C405 0.682 . S
C1127 C535 0.715 . S
C1136 C569 3.057 . S
C1138 C59 3.079 . S
C1147 C125 0.909 . S
C1149 C605 0.937 . S
C1158 C285 0.693 . S
C1160 C415 0.703 . S
