# Generated by pormake.
# Topology wmc, (6)-cn, num edge types: 1
# Building blocks:
#     Node 0, Type 0, BuildingBlock: FUNLAD_clean_sbu_0, # of connection points: 6
#     Node 1, Type 0, BuildingBlock: FUNLAD_clean_sbu_0, # of connection points: 6
#     Node 2, Type 0, BuildingBlock: FUNLAD_clean_sbu_0, # of connection points: 6
#     Node 3, Type 0, BuildingBlock: FUNLAD_clean_sbu_0, # of connection points: 6
#     Node 4, Type 0, BuildingBlock: FUNLAD_clean_sbu_0, # of connection points: 6
#     Node 5, Type 0, BuildingBlock: FUNLAD_clean_sbu_0, # of connection points: 6
#     Node 6, Type 0, BuildingBlock: FUNLAD_clean_sbu_0, # of connection points: 6
#     Node 7, Type 0, BuildingBlock: FUNLAD_clean_sbu_0, # of connection points: 6
#     Node 8, Type 0, BuildingBlock: FUNLAD_clean_sbu_0, # of connection points: 6
#     Node 9, Type 0, BuildingBlock: FUNLAD_clean_sbu_0, # of connection points: 6
#     Node 10, Type 0, BuildingBlock: FUNLAD_clean_sbu_0, # of connection points: 6
#     Node 11, Type 0, BuildingBlock: FUNLAD_clean_sbu_0, # of connection points: 6
#     Node 12, Type 0, BuildingBlock: FUNLAD_clean_sbu_0, # of connection points: 6
#     Node 13, Type 0, BuildingBlock: FUNLAD_clean_sbu_0, # of connection points: 6
#     Node 14, Type 0, BuildingBlock: FUNLAD_clean_sbu_0, # of connection points: 6
#     Node 15, Type 0, BuildingBlock: FUNLAD_clean_sbu_0, # of connection points: 6
#     Node 16, Type 0, BuildingBlock: FUNLAD_clean_sbu_0, # of connection points: 6
#     Node 17, Type 0, BuildingBlock: FUNLAD_clean_sbu_0, # of connection points: 6
#     Edge 18, Type (0, 0), BuildingBlock: UVAHIK_clean_linker_0, # of connection points: 2
#     Edge 19, Type (0, 0), BuildingBlock: UVAHIK_clean_linker_0, # of connection points: 2
#     Edge 20, Type (0, 0), BuildingBlock: UVAHIK_clean_linker_0, # of connection points: 2
#     Edge 21, Type (0, 0), BuildingBlock: UVAHIK_clean_linker_0, # of connection points: 2
#     Edge 22, Type (0, 0), BuildingBlock: UVAHIK_clean_linker_0, # of connection points: 2
#     Edge 23, Type (0, 0), BuildingBlock: UVAHIK_clean_linker_0, # of connection points: 2
#     Edge 24, Type (0, 0), BuildingBlock: UVAHIK_clean_linker_0, # of connection points: 2
#     Edge 25, Type (0, 0), BuildingBlock: UVAHIK_clean_linker_0, # of connection points: 2
#     Edge 26, Type (0, 0), BuildingBlock: UVAHIK_clean_linker_0, # of connection points: 2
#     Edge 27, Type (0, 0), BuildingBlock: UVAHIK_clean_linker_0, # of connection points: 2
#     Edge 28, Type (0, 0), BuildingBlock: UVAHIK_clean_linker_0, # of connection points: 2
#     Edge 29, Type (0, 0), BuildingBlock: UVAHIK_clean_linker_0, # of connection points: 2
#     Edge 30, Type (0, 0), BuildingBlock: UVAHIK_clean_linker_0, # of connection points: 2
#     Edge 31, Type (0, 0), BuildingBlock: UVAHIK_clean_linker_0, # of connection points: 2
#     Edge 32, Type (0, 0), BuildingBlock: UVAHIK_clean_linker_0, # of connection points: 2
#     Edge 33, Type (0, 0), BuildingBlock: UVAHIK_clean_linker_0, # of connection points: 2
#     Edge 34, Type (0, 0), BuildingBlock: UVAHIK_clean_linker_0, # of connection points: 2
#     Edge 35, Type (0, 0), BuildingBlock: UVAHIK_clean_linker_0, # of connection points: 2
#     Edge 36, Type (0, 0), BuildingBlock: UVAHIK_clean_linker_0, # of connection points: 2
#     Edge 37, Type (0, 0), BuildingBlock: UVAHIK_clean_linker_0, # of connection points: 2
#     Edge 38, Type (0, 0), BuildingBlock: UVAHIK_clean_linker_0, # of connection points: 2
#     Edge 39, Type (0, 0), BuildingBlock: UVAHIK_clean_linker_0, # of connection points: 2
#     Edge 40, Type (0, 0), BuildingBlock: UVAHIK_clean_linker_0, # of connection points: 2
#     Edge 41, Type (0, 0), BuildingBlock: UVAHIK_clean_linker_0, # of connection points: 2
#     Edge 42, Type (0, 0), BuildingBlock: UVAHIK_clean_linker_0, # of connection points: 2
#     Edge 43, Type (0, 0), BuildingBlock: UVAHIK_clean_linker_0, # of connection points: 2
#     Edge 44, Type (0, 0), BuildingBlock: UVAHIK_clean_linker_0, # of connection points: 2
#     Edge 45, Type (0, 0), BuildingBlock: UVAHIK_clean_linker_0, # of connection points: 2
#     Edge 46, Type (0, 0), BuildingBlock: UVAHIK_clean_linker_0, # of connection points: 2
#     Edge 47, Type (0, 0), BuildingBlock: UVAHIK_clean_linker_0, # of connection points: 2
#     Edge 48, Type (0, 0), BuildingBlock: UVAHIK_clean_linker_0, # of connection points: 2
#     Edge 49, Type (0, 0), BuildingBlock: UVAHIK_clean_linker_0, # of connection points: 2
#     Edge 50, Type (0, 0), BuildingBlock: UVAHIK_clean_linker_0, # of connection points: 2
#     Edge 51, Type (0, 0), BuildingBlock: UVAHIK_clean_linker_0, # of connection points: 2
#     Edge 52, Type (0, 0), BuildingBlock: UVAHIK_clean_linker_0, # of connection points: 2
#     Edge 53, Type (0, 0), BuildingBlock: UVAHIK_clean_linker_0, # of connection points: 2
#     Edge 54, Type (0, 0), BuildingBlock: UVAHIK_clean_linker_0, # of connection points: 2
#     Edge 55, Type (0, 0), BuildingBlock: UVAHIK_clean_linker_0, # of connection points: 2
#     Edge 56, Type (0, 0), BuildingBlock: UVAHIK_clean_linker_0, # of connection points: 2
#     Edge 57, Type (0, 0), BuildingBlock: UVAHIK_clean_linker_0, # of connection points: 2
#     Edge 58, Type (0, 0), BuildingBlock: UVAHIK_clean_linker_0, # of connection points: 2
#     Edge 59, Type (0, 0), BuildingBlock: UVAHIK_clean_linker_0, # of connection points: 2
#     Edge 60, Type (0, 0), BuildingBlock: UVAHIK_clean_linker_0, # of connection points: 2
#     Edge 61, Type (0, 0), BuildingBlock: UVAHIK_clean_linker_0, # of connection points: 2
#     Edge 62, Type (0, 0), BuildingBlock: UVAHIK_clean_linker_0, # of connection points: 2
#     Edge 63, Type (0, 0), BuildingBlock: UVAHIK_clean_linker_0, # of connection points: 2
#     Edge 64, Type (0, 0), BuildingBlock: UVAHIK_clean_linker_0, # of connection points: 2
#     Edge 65, Type (0, 0), BuildingBlock: UVAHIK_clean_linker_0, # of connection points: 2
#     Edge 66, Type (0, 0), BuildingBlock: UVAHIK_clean_linker_0, # of connection points: 2
#     Edge 67, Type (0, 0), BuildingBlock: UVAHIK_clean_linker_0, # of connection points: 2
#     Edge 68, Type (0, 0), BuildingBlock: UVAHIK_clean_linker_0, # of connection points: 2
#     Edge 69, Type (0, 0), BuildingBlock: UVAHIK_clean_linker_0, # of connection points: 2
#     Edge 70, Type (0, 0), BuildingBlock: UVAHIK_clean_linker_0, # of connection points: 2
#     Edge 71, Type (0, 0), BuildingBlock: UVAHIK_clean_linker_0, # of connection points: 2
# Relax obj value: 0.557
# Max RMSD: 0.256
# Mean RMSD: 0.256
data_MOF--net-wmc--node1-FUNLAD_clean_sbu_0--edge1-UVAHIK_clean_linker_0
_symmetry_space_group_name_H-M    P1
_symmetry_Int_Tables_number       1
_symmetry_cell_setting            triclinic
loop_
_symmetry_equiv_pos_as_xyz
'x, y, z'
_cell_length_a     67.327809
_cell_length_b     67.299604
_cell_length_c     36.324269
_cell_angle_alpha  89.979983
_cell_angle_beta   90.009454
_cell_angle_gamma 119.98833
loop_
_atom_site_label
_atom_site_type_symbol
_atom_site_fract_x
_atom_site_fract_y
_atom_site_fract_z
_atom_type_partial_charge
C0 C 0.60121 0.12172 0.07465 0.0
N1 N 0.65588 0.16971 0.00837 0.0
C2 C 0.6578 0.18646 0.03156 0.0
C3 C 0.67844 0.20728 0.03391 0.0
C4 C 0.69701 0.21088 0.01171 0.0
C5 C 0.69462 0.19329 0.98831 0.0
C6 C 0.67389 0.17267 0.98732 0.0
Zn7 Zn 0.62597 0.13918 0.0038 0.0
C8 C 0.63604 0.10063 0.01512 0.0
N9 N 0.56475 0.07385 0.99241 0.0
C10 C 0.54595 0.07249 0.00892 0.0
C11 C 0.56261 0.05753 0.96806 0.0
C12 C 0.54084 0.03966 0.95805 0.0
C13 C 0.5211 0.03858 0.97328 0.0
C14 C 0.52396 0.05496 -0.00016 0.0
Zn15 Zn 0.59532 0.10416 -0.00132 0.0
O16 O 0.61928 0.13878 0.06174 0.0
C17 C 0.58639 0.14401 0.98876 0.0
O18 O 0.58891 0.1047 0.05411 0.0
H19 H 0.5777 0.05896 0.95497 0.0
H20 H 0.64327 0.18376 0.04802 0.0
H21 H 0.54784 0.08582 0.02761 0.0
O22 O 0.60776 0.15615 0.99455 0.0
O23 O 0.57702 0.12225 0.98836 0.0
H24 H 0.67218 0.15903 0.96951 0.0
O25 O 0.6017 0.10428 0.94227 0.0
O26 O 0.63095 0.13924 0.94602 0.0
O27 O 0.61459 0.08713 0.01061 0.0
O28 O 0.64427 0.12214 0.01298 0.0
C29 C 0.61764 0.12192 0.92666 0.0
H30 H 0.67972 0.22062 0.05212 0.0
H31 H 0.70869 0.19547 0.97103 0.0
H32 H 0.53947 0.02724 0.9378 0.0
H33 H 0.50934 0.05509 0.01198 0.0
C34 C 0.88623 0.48353 0.08273 0.0
N35 N 0.83743 0.48383 0.0098 0.0
C36 C 0.8211 0.46801 0.03244 0.0
C37 C 0.7994 0.46583 0.03418 0.0
C38 C 0.79433 0.47989 0.01211 0.0
C39 C 0.8116 0.49619 0.9892 0.0
C40 C 0.83313 0.49792 0.98857 0.0
Zn41 Zn 0.869 0.48668 0.00747 0.0
C42 C 0.90534 0.53634 0.01652 0.0
N43 N 0.93599 0.49425 0.00412 0.0
C44 C 0.93865 0.47834 0.02329 0.0
C45 C 0.95134 0.50735 0.97774 0.0
C46 C 0.9692 0.50344 0.96787 0.0
C47 C 0.97131 0.48593 0.98536 0.0
C48 C 0.95627 0.47394 0.01441 0.0
Zn49 Zn 0.90472 0.49269 0.0079 0.0
O50 O 0.86885 0.4819 0.06599 0.0
C51 C 0.867 0.44295 -0.00048 0.0
O52 O 0.90444 0.48905 0.0648 0.0
H53 H 0.94889 0.51982 0.96264 0.0
H54 H 0.82489 0.45701 0.04915 0.0
H55 H 0.9261 0.4678 0.04373 0.0
O56 O 0.85406 0.45158 0.00033 0.0
O57 O 0.88858 0.45591 0.00242 0.0
H58 H 0.8464 0.51045 0.97086 0.0
O59 O 0.90434 0.49567 0.95011 0.0
O60 O 0.86936 0.49005 0.94954 0.0
O61 O 0.91975 0.52931 0.01469 0.0
O62 O 0.88405 0.52211 0.01416 0.0
C63 C 0.88708 0.49324 0.93218 0.0
H64 H 0.78678 0.45329 0.05275 0.0
H65 H 0.80842 0.5072 0.97137 0.0
H66 H 0.98064 0.51338 0.94572 0.0
H67 H 0.95704 0.46016 0.02848 0.0
C68 C 0.5162 0.40223 0.08055 0.0
N69 N 0.51078 0.34575 0.02084 0.0
C70 C 0.52395 0.34365 0.04723 0.0
C71 C 0.52467 0.32333 0.05049 0.0
C72 C 0.51208 0.3051 0.02588 0.0
C73 C 0.49815 0.30764 -0.00037 0.0
C74 C 0.49759 0.32804 -0.00216 0.0
Zn75 Zn 0.51176 0.37629 0.01253 0.0
C76 C 0.46409 0.36893 0.01403 0.0
N77 N 0.5132 0.43967 0.99092 0.0
C78 C 0.5307 0.45793 0.00838 0.0
C79 C 0.50054 0.44282 0.96478 0.0
C80 C 0.50591 0.46506 0.95445 0.0
C81 C 0.52452 0.48425 0.9711 0.0
C82 C 0.53664 0.48032 -0.00108 0.0
Zn83 Zn 0.51047 0.40812 0.0007 0.0
O84 O 0.51395 0.38305 0.07066 0.0
C85 C 0.55812 0.41364 0.00063 0.0
O86 O 0.51514 0.41532 0.05651 0.0
H87 H 0.48684 0.42814 0.95091 0.0
H88 H 0.5343 0.35792 0.06529 0.0
H89 H 0.54091 0.45524 0.02859 0.0
O90 O 0.54685 0.39278 0.01012 0.0
O91 O 0.54746 0.42442 0.99383 0.0
H92 H 0.48708 0.32995 0.97723 0.0
O93 O 0.5061 0.40072 0.94435 0.0
O94 O 0.51103 0.37131 0.95444 0.0
O95 O 0.47355 0.39057 0.00905 0.0
O96 O 0.47627 0.35944 0.01504 0.0
C97 C 0.5083 0.38428 0.93209 0.0
H98 H 0.53529 0.32212 0.07175 0.0
H99 H 0.48839 0.29439 0.9796 0.0
H100 H 0.49585 0.46718 0.93318 0.0
H101 H 0.55135 0.49439 0.01217 0.0
C102 C 0.88639 0.38828 0.42976 0.0
N103 N 0.93229 0.441 0.49838 0.0
C104 C 0.94888 0.44378 0.47409 0.0
C105 C 0.96619 0.46581 0.46412 0.0
C106 C 0.96645 0.4852 0.47923 0.0
C107 C 0.94991 0.48172 0.50592 0.0
C108 C 0.93293 0.45943 0.51505 0.0
Zn109 Zn 0.9027 0.40969 0.50357 0.0
C110 C 0.8612 0.41557 0.49327 0.0
N111 N 0.83896 0.34673 0.50955 0.0
C112 C 0.83724 0.32808 0.49191 0.0
C113 C 0.82082 0.34555 0.528 0.0
C114 C 0.7997 0.32525 0.52806 0.0
C115 C 0.79733 0.30594 0.50933 0.0
C116 C 0.81651 0.30736 0.49167 0.0
Zn117 Zn 0.86896 0.37725 0.50613 0.0
O118 O 0.90295 0.40476 0.44656 0.0
C119 C 0.90873 0.36967 0.51724 0.0
O120 O 0.8695 0.37319 0.44814 0.0
H121 H 0.82259 0.36053 0.54201 0.0
H122 H 0.94803 0.42895 0.46096 0.0
H123 H 0.85183 0.32942 0.47721 0.0
O124 O 0.92118 0.39139 0.51381 0.0
O125 O 0.88713 0.36025 0.51467 0.0
H126 H 0.91944 0.45694 0.5339 0.0
O127 O 0.86852 0.38272 0.56431 0.0
O128 O 0.9019 0.41442 0.55994 0.0
O129 O 0.85093 0.39403 0.49749 0.0
O130 O 0.88302 0.42691 0.4945 0.0
C131 C 0.885 0.40039 0.57935 0.0
H132 H 0.97881 0.46764 0.4439 0.0
H133 H 0.94922 0.49605 0.51808 0.0
H134 H 0.78528 0.32473 0.54219 0.0
H135 H 0.81526 0.29288 0.47661 0.0
C136 C 0.60483 0.49396 0.43711 0.0
N137 N 0.56089 0.49227 0.51953 0.0
C138 C 0.55845 0.507 0.49685 0.0
C139 C 0.53662 0.50355 0.48882 0.0
C140 C 0.51708 0.4847 0.50417 0.0
C141 C 0.52034 0.47106 0.53004 0.0
C142 C 0.54247 0.47516 0.53734 0.0
Zn143 Zn 0.59049 0.4904 0.51691 0.0
C144 C 0.57753 0.44112 0.49984 0.0
N145 N 0.64825 0.48127 0.50226 0.0
C146 C 0.66673 0.49701 0.48277 0.0
C147 C 0.64847 0.46348 0.51962 0.0
C148 C 0.6678 0.46099 0.51776 0.0
C149 C 0.68712 0.47693 0.49778 0.0
C150 C 0.68646 0.49518 0.4802 0.0
Zn151 Zn 0.6198 0.48455 0.50656 0.0
O152 O 0.59078 0.49484 0.45943 0.0
C153 C 0.63402 0.53364 0.52471 0.0
O154 O 0.62086 0.49113 0.44958 0.0
H155 H 0.63365 0.45123 0.53512 0.0
H156 H 0.57325 0.52042 0.48278 0.0
H157 H 0.66618 0.51103 0.46918 0.0
O158 O 0.61259 0.52674 0.52578 0.0
O159 O 0.64075 0.5195 0.51756 0.0
H160 H 0.54469 0.46345 0.55495 0.0
O161 O 0.61725 0.47662 0.56421 0.0
O162 O 0.59015 0.4853 0.57333 0.0
O163 O 0.59894 0.44988 0.49531 0.0
O164 O 0.56942 0.45381 0.50941 0.0
C165 C 0.60333 0.47846 0.58572 0.0
H166 H 0.535 0.51483 0.46933 0.0
H167 H 0.50588 0.45628 0.54246 0.0
H168 H 0.66768 0.44686 0.53222 0.0
H169 H 0.70089 0.50772 0.46424 0.0
C170 C 0.51308 0.12012 0.43203 0.0
N171 N 0.51313 0.07181 0.50321 0.0
C172 C 0.49932 0.05586 0.47809 0.0
C173 C 0.50312 0.03792 0.46823 0.0
C174 C 0.52136 0.03639 0.48424 0.0
C175 C 0.53427 0.05221 0.51193 0.0
C176 C 0.52986 0.06982 0.52099 0.0
Zn177 Zn 0.51378 0.10269 0.50725 0.0
C178 C 0.56328 0.14181 0.49957 0.0
N179 N 0.52046 0.16922 0.50994 0.0
C180 C 0.50702 0.17318 0.48656 0.0
C181 C 0.53408 0.18521 0.53512 0.0
C182 C 0.53434 0.20605 0.5377 0.0
C183 C 0.52076 0.21072 0.51367 0.0
C184 C 0.5071 0.19392 0.48769 0.0
Zn185 Zn 0.51895 0.13814 0.5075 0.0
O186 O 0.51062 0.10292 0.4501 0.0
C187 C 0.46951 0.10093 0.51434 0.0
O188 O 0.5164 0.13796 0.4492 0.0
H189 H 0.54463 0.18176 0.5535 0.0
H190 H 0.48621 0.05778 0.46407 0.0
H191 H 0.49613 0.16018 0.46696 0.0
O192 O 0.47677 0.08666 0.51369 0.0
O193 O 0.48369 0.12224 0.5123 0.0
H194 H 0.54087 0.0828 0.54052 0.0
O195 O 0.5227 0.13788 0.56598 0.0
O196 O 0.5175 0.10297 0.56401 0.0
O197 O 0.55394 0.15407 0.50211 0.0
O198 O 0.55087 0.12005 0.50107 0.0
C199 C 0.52186 0.12074 0.58234 0.0
H200 H 0.49242 0.02588 0.44726 0.0
H201 H 0.54862 0.05194 0.52487 0.0
H202 H 0.54488 0.21821 0.55863 0.0
H203 H 0.49668 0.19676 0.46803 0.0
C204 C 0.26637 0.45447 0.42283 0.0
N205 N 0.31669 0.49968 0.34736 0.0
C206 C 0.31836 0.51668 0.36965 0.0
C207 C 0.3386 0.53787 0.37083 0.0
C208 C 0.35724 0.54186 0.34827 0.0
C209 C 0.35487 0.52399 0.3253 0.0
C210 C 0.33451 0.50293 0.32557 0.0
Zn211 Zn 0.28736 0.46835 0.34702 0.0
C212 C 0.29937 0.43169 0.3632 0.0
N213 N 0.2268 0.40201 0.3486 0.0
C214 C 0.20815 0.40066 0.36565 0.0
C215 C 0.22449 0.3854 0.32472 0.0
C216 C 0.20267 0.36756 0.31504 0.0
C217 C 0.18303 0.36679 0.33003 0.0
C218 C 0.18606 0.38314 0.35681 0.0
Zn219 Zn 0.25698 0.43302 0.3505 0.0
O220 O 0.28239 0.471 0.40496 0.0
C221 C 0.24645 0.47123 0.33492 0.0
O222 O 0.25344 0.43567 0.40654 0.0
H223 H 0.23947 0.3868 0.31127 0.0
H224 H 0.30402 0.5138 0.38676 0.0
H225 H 0.21023 0.41416 0.38414 0.0
O226 O 0.26807 0.48372 0.33555 0.0
O227 O 0.23719 0.44978 0.34072 0.0
H228 H 0.33296 0.48915 0.30828 0.0
O229 O 0.26045 0.43089 0.2935 0.0
O230 O 0.29059 0.46525 0.28945 0.0
O231 O 0.27787 0.41752 0.36151 0.0
O232 O 0.30688 0.4529 0.35811 0.0
C233 C 0.2756 0.44692 0.27394 0.0
H234 H 0.33961 0.55085 0.38954 0.0
H235 H 0.36846 0.52622 0.30687 0.0
H236 H 0.2012 0.35508 0.2948 0.0
H237 H 0.17151 0.38342 0.36893 0.0
C238 C 0.54937 0.81486 0.41716 0.0
N239 N 0.50179 0.81756 0.34433 0.0
C240 C 0.48561 0.80365 0.36904 0.0
C241 C 0.46464 0.8031 0.37116 0.0
C242 C 0.45993 0.81661 0.34704 0.0
C243 C 0.47698 0.8307 0.32165 0.0
C244 C 0.49791 0.8311 0.32106 0.0
Zn245 Zn 0.53275 0.8187 0.34225 0.0
C246 C 0.57079 0.86779 0.35163 0.0
N247 N 0.5985 0.82281 0.33905 0.0
C248 C 0.59945 0.80596 0.35839 0.0
C249 C 0.61484 0.83545 0.31355 0.0
C250 C 0.63214 0.83032 0.30515 0.0
C251 C 0.63243 0.81189 0.3229 0.0
C252 C 0.61627 0.80021 0.35072 0.0
Zn253 Zn 0.56806 0.82327 0.3422 0.0
O254 O 0.53227 0.81399 0.40066 0.0
C255 C 0.52849 0.77411 0.33346 0.0
O256 O 0.5672 0.81929 0.39898 0.0
H257 H 0.61368 0.84856 0.29808 0.0
H258 H 0.48897 0.79297 0.3873 0.0
H259 H 0.58623 0.79586 0.37824 0.0
O260 O 0.51626 0.78351 0.33513 0.0
O261 O 0.5502 0.78637 0.3359 0.0
H262 H 0.51104 0.84222 0.30181 0.0
O263 O 0.56836 0.82689 0.28473 0.0
O264 O 0.5337 0.82222 0.28424 0.0
O265 O 0.58461 0.86002 0.34966 0.0
O266 O 0.54935 0.85421 0.34902 0.0
C267 C 0.55134 0.82515 0.26689 0.0
H268 H 0.45236 0.79227 0.39175 0.0
H269 H 0.47419 0.84113 0.30196 0.0
H270 H 0.64425 0.83975 0.28342 0.0
H271 H 0.61607 0.78612 0.36548 0.0
C272 C 0.18654 0.73686 0.41734 0.0
N273 N 0.18486 0.68638 0.34676 0.0
C274 C 0.20011 0.68531 0.37006 0.0
C275 C 0.20184 0.66551 0.37185 0.0
C276 C 0.18801 0.64671 0.349 0.0
C277 C 0.1722 0.64824 0.3256 0.0
C278 C 0.17079 0.66823 0.32511 0.0
Zn279 Zn 0.18309 0.71572 0.3432 0.0
C280 C 0.13402 0.70436 0.35133 0.0
N281 N 0.17845 0.77712 0.33702 0.0
C282 C 0.19261 0.79473 0.35957 0.0
C283 C 0.16834 0.78096 0.30751 0.0
C284 C 0.17382 0.80332 0.29809 0.0
C285 C 0.18953 0.82205 0.31963 0.0
C286 C 0.19808 0.81724 0.35172 0.0
Zn287 Zn 0.17851 0.74643 0.34188 0.0
O288 O 0.18788 0.72081 0.40118 0.0
C289 C 0.2277 0.75652 0.33446 0.0
O290 O 0.18168 0.74987 0.39886 0.0
H291 H 0.15715 0.76689 0.28972 0.0
H292 H 0.21111 0.69991 0.38707 0.0
H293 H 0.2009 0.79165 0.38257 0.0
O294 O 0.2183 0.73486 0.33574 0.0
O295 O 0.21541 0.76594 0.33699 0.0
H296 H 0.15867 0.66935 0.30695 0.0
O297 O 0.17577 0.74248 0.28423 0.0
O298 O 0.17939 0.7119 0.2856 0.0
O299 O 0.14167 0.72588 0.34802 0.0
O300 O 0.1477 0.69657 0.35026 0.0
C301 C 0.177 0.72663 0.26732 0.0
H302 H 0.21398 0.66504 0.39086 0.0
H303 H 0.16141 0.63442 0.30705 0.0
H304 H 0.16677 0.80583 0.27292 0.0
H305 H 0.20965 0.83079 0.37003 0.0
C306 C 0.55286 0.72531 0.76799 0.0
N307 N 0.60129 0.77571 0.83712 0.0
C308 C 0.61721 0.77931 0.81094 0.0
C309 C 0.63428 0.80167 0.80188 0.0
C310 C 0.63492 0.82054 0.81981 0.0
C311 C 0.61906 0.81613 0.8482 0.0
C312 C 0.60239 0.79357 0.85641 0.0
Zn313 Zn 0.57153 0.74445 0.84199 0.0
C314 C 0.53041 0.7516 0.83983 0.0
N315 N 0.50717 0.6823 0.84846 0.0
C316 C 0.50265 0.6653 0.82389 0.0
C317 C 0.49141 0.67995 0.87407 0.0
C318 C 0.46992 0.66014 0.87503 0.0
C319 C 0.46431 0.64274 0.84881 0.0
C320 C 0.4812 0.64541 0.82337 0.0
Zn321 Zn 0.53751 0.71241 0.845 0.0
O322 O 0.57029 0.74096 0.78448 0.0
C323 C 0.57662 0.70333 0.84824 0.0
O324 O 0.53611 0.71038 0.78673 0.0
H325 H 0.49531 0.69366 0.89335 0.0
H326 H 0.61598 0.76493 0.79568 0.0
H327 H 0.51547 0.66743 0.80392 0.0
O328 O 0.58945 0.72513 0.84714 0.0
O329 O 0.55502 0.69445 0.84702 0.0
H330 H 0.58942 0.79048 0.87673 0.0
O331 O 0.53915 0.71592 0.90353 0.0
O332 O 0.57227 0.74782 0.89904 0.0
O333 O 0.5199 0.72998 0.84298 0.0
O334 O 0.55222 0.76246 0.838 0.0
C335 C 0.55586 0.73325 0.91871 0.0
H336 H 0.64637 0.80415 0.78025 0.0
H337 H 0.61858 0.82998 0.86255 0.0
H338 H 0.45772 0.65872 0.89576 0.0
H339 H 0.47771 0.6327 0.80231 0.0
C340 C 0.27883 0.82667 0.76753 0.0
N341 N 0.2289 0.8248 0.83861 0.0
C342 C 0.22562 0.83758 0.81285 0.0
C343 C 0.20345 0.83332 0.80485 0.0
C344 C 0.18444 0.81569 0.82343 0.0
C345 C 0.18857 0.80372 0.85129 0.0
C346 C 0.21093 0.80854 0.85842 0.0
Zn347 Zn 0.25956 0.82487 0.84239 0.0
C348 C 0.24975 0.77563 0.83495 0.0
N349 N 0.31982 0.81888 0.84608 0.0
C350 C 0.33829 0.83347 0.82543 0.0
C351 C 0.32063 0.80326 0.86884 0.0
C352 C 0.34052 0.80178 0.87129 0.0
C353 C 0.35976 0.81633 0.84981 0.0
C354 C 0.3585 0.83244 0.8268 0.0
Zn355 Zn 0.2903 0.82038 0.84304 0.0
O356 O 0.26304 0.8278 0.78484 0.0
C357 C 0.30139 0.86942 0.85133 0.0
O358 O 0.29368 0.8242 0.78534 0.0
H359 H 0.30579 0.79185 0.88509 0.0
H360 H 0.24004 0.85031 0.79716 0.0
H361 H 0.33731 0.84583 0.80761 0.0
O362 O 0.27986 0.86168 0.84847 0.0
O363 O 0.30927 0.85582 0.85004 0.0
H364 H 0.21371 0.79825 0.87836 0.0
O365 O 0.28552 0.81553 0.90121 0.0
O366 O 0.2564 0.82163 0.89924 0.0
O367 O 0.2714 0.78512 0.83569 0.0
O368 O 0.24029 0.78788 0.83756 0.0
C369 C 0.26951 0.81684 0.91756 0.0
H370 H 0.2012 0.84329 0.78356 0.0
H371 H 0.17458 0.78978 0.86608 0.0
H372 H 0.34079 0.78937 0.88995 0.0
H373 H 0.37277 0.84383 0.80943 0.0
C374 C 0.17477 0.45486 0.76774 0.0
N375 N 0.17961 0.4045 0.82763 0.0
C376 C 0.16619 0.38935 0.80123 0.0
C377 C 0.17048 0.37202 0.78932 0.0
C378 C 0.18869 0.37023 0.80481 0.0
C379 C 0.20136 0.38532 0.83338 0.0
C380 C 0.19659 0.40238 0.84425 0.0
Zn381 Zn 0.17941 0.43465 0.83718 0.0
C382 C 0.22793 0.47449 0.82794 0.0
N383 N 0.18505 0.50025 0.85427 0.0
C384 C 0.17045 0.50444 0.83428 0.0
C385 C 0.20017 0.5161 0.8783 0.0
C386 C 0.20116 0.53723 0.88254 0.0
C387 C 0.18676 0.54235 0.86134 0.0
C388 C 0.17119 0.52546 0.83706 0.0
Zn389 Zn 0.18394 0.46958 0.84629 0.0
O390 O 0.17347 0.43685 0.78119 0.0
C391 C 0.13537 0.43097 0.856 0.0
O392 O 0.17847 0.47135 0.78898 0.0
H393 H 0.2116 0.51244 0.89403 0.0
H394 H 0.15291 0.39139 0.78804 0.0
H395 H 0.15836 0.49157 0.8156 0.0
O396 O 0.14304 0.41753 0.84836 0.0
O397 O 0.14882 0.45249 0.85655 0.0
H398 H 0.20751 0.41484 0.86449 0.0
O399 O 0.19063 0.46739 0.9035 0.0
O400 O 0.18601 0.43322 0.8927 0.0
O401 O 0.21884 0.48652 0.8357 0.0
O402 O 0.21573 0.45276 0.8269 0.0
C403 C 0.19101 0.44966 0.91477 0.0
H404 H 0.16008 0.3606 0.76749 0.0
H405 H 0.21577 0.3849 0.84579 0.0
H406 H 0.21315 0.5494 0.90219 0.0
H407 H 0.16 0.52853 0.81953 0.0
C408 C 0.93241 0.79062 0.76028 0.0
N409 N 0.98369 0.83464 0.68503 0.0
C410 C 0.98448 0.85316 0.70155 0.0
C411 C 0.00421 0.87469 0.69905 0.0
C412 C 0.02332 0.87713 0.67952 0.0
C413 C 0.02226 0.85761 0.66369 0.0
C414 C 0.00214 0.83645 0.66666 0.0
Zn415 Zn 0.95406 0.80373 0.68552 0.0
C416 C 0.96476 0.76629 0.70198 0.0
N417 N 0.89249 0.73825 0.68571 0.0
C418 C 0.87394 0.73774 0.70167 0.0
C419 C 0.89 0.7208 0.66367 0.0
C420 C 0.86809 0.7027 0.65502 0.0
C421 C 0.84853 0.70262 0.66896 0.0
C422 C 0.85179 0.72008 0.69364 0.0
Zn423 Zn 0.92303 0.76888 0.68726 0.0
O424 O 0.94919 0.80698 0.74331 0.0
C425 C 0.91391 0.80794 0.67084 0.0
O426 O 0.91919 0.77222 0.74318 0.0
H427 H 0.90491 0.72156 0.65104 0.0
H428 H 0.96964 0.85131 0.7161 0.0
H429 H 0.87619 0.75187 0.71875 0.0
O430 O 0.93552 0.81974 0.67358 0.0
O431 O 0.90398 0.78632 0.67543 0.0
H432 H 1.00111 0.82153 0.65357 0.0
O433 O 0.92684 0.76609 0.63067 0.0
O434 O 0.95734 0.80029 0.62788 0.0
O435 O 0.94317 0.75262 0.69974 0.0
O436 O 0.97286 0.78762 0.69717 0.0
C437 C 0.94241 0.78217 0.61173 0.0
H438 H 0.00445 0.88931 0.71197 0.0
H439 H 0.03652 0.85882 0.64806 0.0
H440 H 0.86651 0.68939 0.63648 0.0
H441 H 0.83738 0.72102 0.70484 0.0
C442 C 0.22127 0.15205 0.74021 0.0
N443 N 0.1711 0.15842 0.68 0.0
C444 C 0.15445 0.14295 0.70264 0.0
C445 C 0.13382 0.14294 0.7067 0.0
C446 C 0.1303 0.15898 0.68722 0.0
C447 C 0.14801 0.17506 0.66476 0.0
C448 C 0.16834 0.17447 0.66152 0.0
Zn449 Zn 0.20054 0.15741 0.67153 0.0
C450 C 0.24097 0.20526 0.67547 0.0
N451 N 0.2632 0.15684 0.65135 0.0
C452 C 0.26614 0.14179 0.67252 0.0
C453 C 0.27666 0.16674 0.62129 0.0
C454 C 0.29283 0.16058 0.61041 0.0
C455 C 0.29556 0.14434 0.63101 0.0
C456 C 0.28248 0.13567 0.66327 0.0
Zn457 Zn 0.23421 0.15935 0.66118 0.0
O458 O 0.20372 0.15287 0.7293 0.0
C459 C 0.19235 0.11149 0.65768 0.0
O460 O 0.2367 0.1551 0.71721 0.0
H461 H 0.27408 0.17853 0.60449 0.0
H462 H 0.157 0.13031 0.71699 0.0
H463 H 0.25504 0.1335 0.69575 0.0
O464 O 0.18189 0.12227 0.66506 0.0
O465 O 0.21411 0.12251 0.65471 0.0
H466 H 0.18182 0.18666 0.64375 0.0
O467 O 0.23084 0.16325 0.60496 0.0
O468 O 0.19743 0.16073 0.61368 0.0
O469 O 0.25333 0.19627 0.66836 0.0
O470 O 0.21939 0.19276 0.67783 0.0
C471 C 0.21307 0.16263 0.59193 0.0
H472 H 0.12049 0.13003 0.72395 0.0
H473 H 0.14611 0.18788 0.64959 0.0
H474 H 0.30222 0.1677 0.58512 0.0
H475 H 0.28423 0.12366 0.68086 0.0
C476 C 0.85256 0.06813 0.75452 0.0
N477 N 0.84655 0.01587 0.68294 0.0
C478 C 0.86337 0.01438 0.70134 0.0
C479 C 0.8643 0.99413 0.70029 0.0
C480 C 0.84762 0.97519 0.68051 0.0
C481 C 0.83 0.97691 0.66293 0.0
C482 C 0.82989 0.99758 0.66427 0.0
Zn483 Zn 0.84703 0.04644 0.68069 0.0
C484 C 0.79906 0.03823 0.68969 0.0
N485 N 0.84692 0.11008 0.67471 0.0
C486 C 0.86459 0.12777 0.69291 0.0
C487 C 0.8342 0.11406 0.64975 0.0
C488 C 0.83999 0.1366 0.64075 0.0
C489 C 0.8592 0.15514 0.65729 0.0
C490 C 0.87107 0.15046 0.68454 0.0
Zn491 Zn 0.84483 0.07847 0.67873 0.0
O492 O 0.85208 0.05093 0.73896 0.0
C493 C 0.89289 0.08516 0.67094 0.0
O494 O 0.84927 0.08206 0.73551 0.0
H495 H 0.82041 0.09983 0.63519 0.0
H496 H 0.87638 0.02908 0.71615 0.0
H497 H 0.87469 0.12439 0.7124 0.0
O498 O 0.88209 0.06353 0.67371 0.0
O499 O 0.88178 0.09588 0.67178 0.0
H500 H 0.81678 0.99917 0.64958 0.0
O501 O 0.84076 0.07459 0.6214 0.0
O502 O 0.84328 0.04334 0.62267 0.0
O503 O 0.80796 0.05995 0.68689 0.0
O504 O 0.81167 0.02924 0.6877 0.0
C505 C 0.84137 0.05842 0.60444 0.0
H506 H 0.87807 0.99336 0.71443 0.0
H507 H 0.81699 0.96274 0.64708 0.0
H508 H 0.83043 0.13947 0.61948 0.0
H509 H 0.88578 0.16424 0.69832 0.0
C510 C 0.22441 0.06671 0.09981 0.0
N511 N 0.26825 0.11234 0.179 0.0
C512 C 0.28516 0.11627 0.15451 0.0
C513 C 0.30229 0.13877 0.14631 0.0
C514 C 0.30182 0.15732 0.16323 0.0
C515 C 0.28532 0.15264 0.19056 0.0
C516 C 0.2687 0.12996 0.19814 0.0
Zn517 Zn 0.23738 0.08184 0.17821 0.0
C518 C 0.19928 0.09343 0.16506 0.0
N519 N 0.17081 0.02295 0.16931 0.0
C520 C 0.1685 0.00522 0.14816 0.0
C521 C 0.1531 0.02106 0.18996 0.0
C522 C 0.13213 1.00059 0.19025 0.0
C523 C 0.12934 0.98196 0.1689 0.0
C524 C 0.14777 0.9845 0.14741 0.0
Zn525 Zn 0.20189 0.0523 0.1715 0.0
O526 O 0.24016 0.08092 0.12084 0.0
C527 C 0.2382 0.03903 0.18526 0.0
O528 O 0.2058 0.05115 0.1138 0.0
H529 H 0.15528 0.03539 0.20647 0.0
H530 H 0.28437 0.10212 0.13918 0.0
H531 H 0.18285 0.00703 0.13216 0.0
O532 O 0.25287 0.06045 0.18576 0.0
O533 O 0.21718 0.0325 0.18021 0.0
H534 H 0.25505 0.12663 0.21721 0.0
O535 O 0.19828 0.05501 0.22983 0.0
O536 O 0.23401 0.08284 0.2347 0.0
O537 O 0.18658 0.0719 0.16241 0.0
O538 O 0.22055 0.10195 0.17181 0.0
C539 C 0.21469 0.0698 0.24949 0.0
H540 H 0.31469 0.14165 0.12499 0.0
H541 H 0.28455 0.16644 0.20459 0.0
H542 H 0.11819 0.99942 0.20677 0.0
H543 H 0.14632 0.97048 0.13078 0.0
C544 C 0.94469 0.16091 0.10475 0.0
N545 N 0.89417 0.15713 0.17545 0.0
C546 C 0.89077 0.17052 0.15104 0.0
C547 C 0.86846 0.16547 0.14208 0.0
C548 C 0.84957 0.14634 0.1581 0.0
C549 C 0.85368 0.13379 0.18487 0.0
C550 C 0.87616 0.13953 0.19323 0.0
Zn551 Zn 0.92528 0.15824 0.17917 0.0
C552 C 0.91718 0.10961 0.17055 0.0
N553 N 0.98683 0.15457 0.18317 0.0
C554 C 0.00398 0.16889 0.16007 0.0
C555 C 0.98967 0.14049 0.20684 0.0
C556 C 0.01037 0.14038 0.20766 0.0
C557 C 0.02805 0.15459 0.18342 0.0
C558 C 0.02474 0.16899 0.15948 0.0
Zn559 Zn 0.95653 0.15469 0.18107 0.0
O560 O 0.92915 0.16258 0.12185 0.0
C561 C 0.96619 0.20325 0.19027 0.0
O562 O 0.95922 0.15808 0.12288 0.0
H563 H 0.9758 0.12918 0.22488 0.0
H564 H 0.90526 0.18424 0.13684 0.0
H565 H 1.00155 0.18019 0.14184 0.0
O566 O 0.94455 0.19497 0.18787 0.0
O567 O 0.97458 0.19013 0.18775 0.0
H568 H 0.8791 0.12893 0.21231 0.0
O569 O 0.95218 0.14993 0.23938 0.0
O570 O 0.9215 0.15346 0.23591 0.0
O571 O 0.93875 0.11961 0.17428 0.0
O572 O 0.90713 0.12137 0.1714 0.0
C573 C 0.93517 0.1498 0.25492 0.0
H574 H 0.86602 0.17554 0.12119 0.0
H575 H 0.83961 0.11911 0.19823 0.0
H576 H 0.01235 0.12893 0.22631 0.0
H577 H 0.03811 0.18028 0.1406 0.0
C578 C 0.8393 0.78869 0.10608 0.0
N579 N 0.84885 0.7412 0.16591 0.0
C580 C 0.83445 0.72412 0.14274 0.0
C581 C 0.83943 0.70706 0.13189 0.0
C582 C 0.85955 0.70787 0.14464 0.0
C583 C 0.87341 0.72503 0.16981 0.0
C584 C 0.86771 0.74149 0.18018 0.0
Zn585 Zn 0.84657 0.77026 0.17498 0.0
C586 C 0.89363 0.81232 0.16487 0.0
N587 N 0.84753 0.83344 0.19246 0.0
C588 C 0.83038 0.83551 0.17642 0.0
C589 C 0.86485 0.85125 0.21095 0.0
C590 C 0.86591 0.87248 0.21235 0.0
C591 C 0.8489 0.87532 0.19479 0.0
C592 C 0.83066 0.85637 0.17746 0.0
Zn593 Zn 0.84821 0.80376 0.18492 0.0
O594 O 0.83915 0.77119 0.11942 0.0
C595 C 0.80114 0.7634 0.19583 0.0
O596 O 0.84216 0.8049 0.12741 0.0
H597 H 0.87826 0.8492 0.2236 0.0
H598 H 0.81971 0.7243 0.13134 0.0
H599 H 0.81685 0.82119 0.16164 0.0
O600 O 0.81016 0.75109 0.18831 0.0
O601 O 0.81335 0.78506 0.19566 0.0
H602 H 0.8791 0.75522 0.19833 0.0
O603 O 0.85566 0.80249 0.24218 0.0
O604 O 0.85464 0.77003 0.23009 0.0
O605 O 0.88285 0.82244 0.17419 0.0
O606 O 0.88288 0.79054 0.16254 0.0
C607 C 0.85821 0.78584 0.25267 0.0
H608 H 0.82833 0.6941 0.11232 0.0
H609 H 0.88891 0.72609 0.18064 0.0
H610 H 0.88017 0.88669 0.22624 0.0
H611 H 0.81736 0.85794 0.16325 0.0
C612 C 0.58206 0.17734 0.97089 0.0
C613 C 0.57249 0.15524 0.986 0.0
C614 C 0.57031 0.18949 0.97295 0.0
C615 C 0.53559 0.19945 0.03423 0.0
H616 H 0.52391 0.22938 0.95252 0.0
C617 C 0.5357 0.28593 0.03469 0.0
C618 C 0.51453 0.28425 0.02583 0.0
C619 C 0.53867 0.26691 0.03151 0.0
C620 C 0.52685 0.22089 0.97547 0.0
H621 H 0.54301 0.12821 0.01434 0.0
H622 H 0.52276 0.14998 0.01919 0.0
H623 H 0.53627 0.20128 0.94035 0.0
H624 H 0.47957 0.26056 0.00835 0.0
H625 H 0.4854 0.22773 0.00092 0.0
H626 H 0.52775 0.2203 0.06933 0.0
C627 C 0.53912 0.15758 0.0051 0.0
C628 C 0.53391 0.20493 0.96855 0.0
C629 C 0.55062 0.14515 0.00216 0.0
C630 C 0.49628 0.26277 0.0146 0.0
C631 C 0.49946 0.24388 0.01065 0.0
C632 C 0.52903 0.2158 0.04114 0.0
C633 C 0.54906 0.17995 0.99097 0.0
C634 C 0.53861 0.19433 -0.00211 0.0
C635 C 0.52073 0.24593 0.0188 0.0
C636 C 0.5249 0.22679 0.01179 0.0
H637 H 0.59892 0.18546 0.95836 0.0
H638 H 0.57835 0.2068 0.96213 0.0
H639 H 0.53941 0.19167 0.05724 0.0
H640 H 0.55033 0.30214 0.04271 0.0
H641 H 0.55529 0.2688 0.0376 0.0
C642 C 0.72733 0.24495 0.97855 0.0
C643 C 0.71856 0.23315 0.01175 0.0
C644 C 0.74747 0.26619 0.97822 0.0
C645 C 0.78486 0.31462 0.03985 0.0
H646 H 0.82292 0.33546 0.9523 0.0
C647 C 0.86403 0.40612 0.01983 0.0
C648 C 0.85656 0.41794 -0.00302 0.0
C649 C 0.85138 0.38214 0.02189 0.0
C650 C 0.81263 0.32966 0.97711 0.0
H651 H 0.72407 0.23373 0.0705 0.0
H652 H 0.7599 0.27051 0.06999 0.0
H653 H 0.79266 0.29537 0.95716 0.0
H654 H 0.83119 0.41433 0.95682 0.0
H655 H 0.80969 0.37239 0.95926 0.0
H656 H 0.8051 0.34913 0.05952 0.0
C657 C 0.75092 0.26379 0.04424 0.0
C658 C 0.7951 0.30683 0.97979 0.0
C659 C 0.73046 0.24271 0.04462 0.0
C660 C 0.83723 0.40552 0.97458 0.0
C661 C 0.82502 0.38163 0.97589 0.0
C662 C 0.80272 0.33731 0.03746 0.0
C663 C 0.7596 0.27594 0.01104 0.0
C664 C 0.78042 0.2992 0.01062 0.0
C665 C 0.83163 0.36985 0.00026 0.0
C666 C 0.81626 0.34509 0.00565 0.0
H667 H 0.71828 0.23797 0.9529 0.0
H668 H 0.75314 0.27517 0.95223 0.0
H669 H 0.77384 0.3096 0.06381 0.0
H670 H 0.87877 0.41544 0.03761 0.0
H671 H 0.85657 0.37325 0.04106 0.0
C672 C 0.59374 0.41134 0.0028 0.0
C673 C 0.58339 0.42493 -0.00077 0.0
C674 C 0.6174 0.4214 0.00534 0.0
C675 C 0.67229 0.47142 0.98493 0.0
H676 H 0.69277 0.44571 0.0618 0.0
C677 C 0.76783 0.49624 0.00943 0.0
C678 C 0.771 0.47712 0.01235 0.0
C679 C 0.74576 0.49337 0.00959 0.0
C680 C 0.68733 0.4531 0.04028 0.0
H681 H 0.58989 0.45977 0.99377 0.0
H682 H 0.63189 0.47755 -0.002 0.0
H683 H 0.65248 0.43486 0.05825 0.0
H684 H 0.75331 0.43998 0.01655 0.0
H685 H 0.71506 0.43511 0.01772 0.0
H686 H 0.70727 0.48914 0.9664 0.0
C687 C 0.62135 0.45904 -0.00096 0.0
C688 C 0.66431 0.44693 0.03826 0.0
C689 C 0.59741 0.44889 -0.00339 0.0
C690 C 0.7516 0.45514 0.01522 0.0
C691 C 0.72965 0.45232 0.01575 0.0
C692 C 0.69549 0.47767 0.98701 0.0
C693 C 0.63144 0.44532 0.00436 0.0
C694 C 0.65642 0.45534 0.0098 0.0
C695 C 0.7265 0.47138 0.01312 0.0
C696 C 0.70299 0.46789 0.01396 0.0
H697 H 0.58353 0.39281 0.00438 0.0
H698 H 0.62475 0.41039 0.00848 0.0
H699 H 0.66659 0.47812 0.96274 0.0
H700 H 0.7824 0.51344 0.00755 0.0
H701 H 0.74375 0.50833 0.00765 0.0
C702 C 0.70511 0.45242 0.49067 0.0
C703 C 0.7077 0.47431 0.49529 0.0
C704 C 0.72421 0.44953 0.49034 0.0
C705 C 0.78643 0.47839 0.47611 0.0
H706 H 0.77992 0.42634 0.53197 0.0
C707 C 0.85621 0.45033 0.49514 0.0
C708 C 0.84725 0.42675 0.48869 0.0
C709 C 0.84159 0.45961 0.49551 0.0
C710 C 0.78201 0.44097 0.5163 0.0
H711 H 0.73249 0.51046 0.50214 0.0
H712 H 0.76605 0.50534 0.50133 0.0
H713 H 0.7496 0.43596 0.53405 0.0
H714 H 0.81639 0.39485 0.47481 0.0
H715 H 0.79128 0.41094 0.47547 0.0
H716 H 0.81888 0.48296 0.45797 0.0
C717 C 0.74915 0.49048 0.49793 0.0
C718 C 0.76463 0.44642 0.51738 0.0
C719 C 0.72995 0.49338 0.49835 0.0
C720 C 0.82382 0.413 0.48052 0.0
C721 C 0.80937 0.42218 0.48096 0.0
C722 C 0.80397 0.4729 0.47509 0.0
C723 C 0.74639 0.46845 0.49459 0.0
C724 C 0.76629 0.46472 0.49642 0.0
C725 C 0.81792 0.44535 0.48955 0.0
C726 C 0.8015 0.45369 0.49432 0.0
H727 H 0.68828 0.43745 0.48733 0.0
H728 H 0.72158 0.4324 0.48682 0.0
H729 H 0.78816 0.49263 0.45977 0.0
H730 H 0.87422 0.46132 0.50143 0.0
H731 H 0.84855 0.47758 0.50203 0.0
C732 C 0.5413 0.25337 0.52466 0.0
C733 C 0.52108 0.23302 0.51523 0.0
C734 C 0.54181 0.27437 0.52498 0.0
C735 C 0.51882 0.30541 0.47958 0.0
H736 H 0.54255 0.34714 0.56262 0.0
C737 C 0.56841 0.40385 0.47185 0.0
C738 C 0.5628 0.4161 0.497 0.0
C739 C 0.55713 0.37996 0.47308 0.0
C740 C 0.53552 0.33552 0.53946 0.0
H741 H 0.4853 0.21902 0.49988 0.0
H742 H 0.48676 0.25599 0.49857 0.0
H743 H 0.53535 0.30784 0.56901 0.0
H744 H 0.54055 0.4132 0.54225 0.0
H745 H 0.52127 0.37113 0.54529 0.0
H746 H 0.5205 0.3336 0.44929 0.0
C747 C 0.50205 0.25541 0.50601 0.0
C748 C 0.53158 0.31317 0.54305 0.0
C749 C 0.50135 0.2343 0.50645 0.0
C750 C 0.54499 0.40406 0.52237 0.0
C751 C 0.53408 0.38011 0.52422 0.0
C752 C 0.52322 0.32792 0.47577 0.0
C753 C 0.52229 0.27558 0.51523 0.0
C754 C 0.52362 0.29811 0.51293 0.0
C755 C 0.54043 0.36795 0.50005 0.0
C756 C 0.532 0.34325 0.5055 0.0
H757 H 0.55697 0.25328 0.53086 0.0
H758 H 0.55773 0.28981 0.5317 0.0
H759 H 0.5128 0.29408 0.45595 0.0
H760 H 0.58212 0.41281 0.45208 0.0
H761 H 0.56247 0.37095 0.4544 0.0
C762 C 0.60092 0.14231 0.50282 0.0
C763 C 0.58835 0.15324 0.49433 0.0
C764 C 0.62492 0.15432 0.49982 0.0
C765 C 0.67279 0.20606 0.45695 0.0
H766 H 0.70769 0.20988 0.54428 0.0
C767 C 0.75558 0.28685 0.49514 0.0
C768 C 0.77459 0.28499 0.50593 0.0
C769 C 0.73426 0.26726 0.49019 0.0
C770 C 0.69823 0.20864 0.51943 0.0
H771 H 0.59085 0.1849 0.47476 0.0
H772 H 0.63219 0.20554 0.46943 0.0
H773 H 0.66703 0.18052 0.54045 0.0
H774 H 0.78624 0.26126 0.52054 0.0
H775 H 0.74846 0.22671 0.51261 0.0
H776 H 0.70352 0.23497 0.43684 0.0
C777 C 0.62376 0.1878 0.47829 0.0
C778 C 0.67502 0.19182 0.51718 0.0
C779 C 0.60003 0.17601 0.48171 0.0
C780 C 0.77182 0.26311 0.51211 0.0
C781 C 0.75029 0.24342 0.50768 0.0
C782 C 0.69584 0.22288 0.4593 0.0
C783 C 0.63652 0.17723 0.48759 0.0
C784 C 0.66189 0.19104 0.48654 0.0
C785 C 0.73141 0.24537 0.49627 0.0
C786 C 0.70851 0.2249 0.49115 0.0
H787 H 0.59231 0.12477 0.51267 0.0
H788 H 0.63439 0.1458 0.5072 0.0
H789 H 0.66317 0.20555 0.43271 0.0
H790 H 0.7573 0.30349 0.48984 0.0
H791 H 0.71988 0.26923 0.48185 0.0
C792 C 0.2126 0.62843 0.35243 0.0
C793 C 0.19077 0.6261 0.34824 0.0
C794 C 0.21554 0.6094 0.34965 0.0
C795 C 0.18439 0.54558 0.34906 0.0
H796 H 0.24078 0.55623 0.30299 0.0
C797 C 0.21764 0.48128 0.3569 0.0
C798 C 0.23262 0.4822 0.32932 0.0
C799 C 0.2088 0.49618 0.35568 0.0
C800 C 0.22468 0.55268 0.31524 0.0
H801 H 0.15475 0.6015 0.33917 0.0
H802 H 0.16011 0.5685 0.33248 0.0
H803 H 0.23301 0.58743 0.30817 0.0
H804 H 0.24869 0.49759 0.27745 0.0
H805 H 0.23205 0.52241 0.27374 0.0
H806 H 0.17578 0.51049 0.35488 0.0
C807 C 0.1749 0.58504 0.33857 0.0
C808 C 0.22045 0.57083 0.31895 0.0
C809 C 0.17189 0.60407 0.34188 0.0
C810 C 0.23719 0.49675 0.29906 0.0
C811 C 0.22789 0.51115 0.29728 0.0
C812 C 0.18849 0.52725 0.34485 0.0
C813 C 0.19684 0.58753 0.34194 0.0
C814 C 0.20048 0.56767 0.33652 0.0
C815 C 0.21453 0.51192 0.32648 0.0
C816 C 0.20884 0.53064 0.32827 0.0
H817 H 0.22763 0.64507 0.3569 0.0
H818 H 0.23262 0.61194 0.3533 0.0
H819 H 0.16887 0.54251 0.36289 0.0
H820 H 0.21417 0.47031 0.3807 0.0
H821 H 0.19873 0.49633 0.3788 0.0
C822 C 0.52492 0.73647 0.35046 0.0
C823 C 0.51718 0.74903 0.33011 0.0
C824 C 0.51188 0.71248 0.35153 0.0
C825 C 0.46778 0.66154 0.30497 0.0
H826 H 0.44111 0.63825 0.40113 0.0
C827 C 0.40024 0.56619 0.34176 0.0
C828 C 0.37882 0.56456 0.34825 0.0
C829 C 0.4203 0.58758 0.34025 0.0
C830 C 0.44876 0.64449 0.37432 0.0
H831 H 0.49082 0.74669 0.29318 0.0
H832 H 0.46858 0.7048 0.29388 0.0
H833 H 0.47242 0.67805 0.39483 0.0
H834 H 0.36208 0.58456 0.35833 0.0
H835 H 0.39728 0.62163 0.35752 0.0
H836 H 0.44367 0.62809 0.28439 0.0
C837 C 0.48444 0.71342 0.30937 0.0
C838 C 0.46666 0.6671 0.37073 0.0
C839 C 0.49708 0.73732 0.30911 0.0
C840 C 0.37817 0.58492 0.35406 0.0
C841 C 0.39828 0.60621 0.35336 0.0
C842 C 0.45022 0.63877 0.30869 0.0
C843 C 0.49139 0.70085 0.33134 0.0
C844 C 0.47584 0.67596 0.33588 0.0
C845 C 0.4194 0.60767 0.34611 0.0
C846 C 0.4402 0.63034 0.34322 0.0
H847 H 0.5403 0.7452 0.36706 0.0
H848 H 0.51745 0.70304 0.36877 0.0
H849 H 0.47455 0.66812 0.27783 0.0
H850 H 0.40161 0.55097 0.33793 0.0
H851 H 0.43653 0.58845 0.33469 0.0
C852 C 0.41717 0.79519 0.3572 0.0
C853 C 0.4373 0.81567 0.34782 0.0
C854 C 0.39592 0.7941 0.35713 0.0
C855 C 0.36317 0.81395 0.31041 0.0
H856 H 0.32337 0.79431 0.39606 0.0
C857 C 0.26452 0.7622 0.30971 0.0
C858 C 0.2528 0.77028 0.33139 0.0
C859 C 0.28841 0.77334 0.31017 0.0
C860 C 0.33445 0.80018 0.37212 0.0
H861 H 0.45051 0.85127 0.33185 0.0
H862 H 0.41306 0.84874 0.3297 0.0
H863 H 0.36311 0.80264 0.40196 0.0
H864 H 0.25659 0.79653 0.36987 0.0
H865 H 0.29872 0.81559 0.37192 0.0
H866 H 0.33398 0.8098 0.28002 0.0
C867 C 0.41408 0.83374 0.33755 0.0
C868 C 0.35704 0.80479 0.37545 0.0
C869 C 0.43546 0.83504 0.33845 0.0
C870 C 0.26534 0.79015 0.3527 0.0
C871 C 0.28931 0.80095 0.35397 0.0
C872 C 0.34041 0.80881 0.3069 0.0
C873 C 0.39419 0.81327 0.34693 0.0
C874 C 0.37141 0.81132 0.34449 0.0
C875 C 0.30095 0.79241 0.33304 0.0
C876 C 0.3258 0.80154 0.33763 0.0
H877 H 0.41763 0.77974 0.36374 0.0
H878 H 0.38068 0.77804 0.36398 0.0
H879 H 0.37397 0.81881 0.28616 0.0
H880 H 0.25516 0.7469 0.29307 0.0
H881 H 0.29704 0.76634 0.2941 0.0
C882 C 0.52726 0.78751 0.84017 0.0
C883 C 0.51688 0.76343 0.84023 0.0
C884 C 0.51376 0.79797 0.84335 0.0
C885 C 0.45831 0.78586 0.88047 0.0
H886 H 0.45805 0.82841 0.80873 0.0
C887 C 0.37869 0.79244 0.85383 0.0
C888 C 0.38072 0.8142 0.85081 0.0
C889 C 0.39815 0.79019 0.85537 0.0
C890 C 0.45823 0.81687 0.82936 0.0
H891 H 0.48418 0.73157 0.84229 0.0
H892 H 0.46111 0.74968 0.84793 0.0
H893 H 0.48808 0.81783 0.80613 0.0
H894 H 0.405 0.85071 0.84663 0.0
H895 H 0.43915 0.8466 0.84851 0.0
H896 H 0.42811 0.78405 0.90287 0.0
C897 C 0.47956 0.7605 0.84593 0.0
C898 C 0.4754 0.81088 0.82789 0.0
C899 C 0.49286 0.75015 0.8425 0.0
C900 C 0.4028 0.83367 0.84865 0.0
C901 C 0.42236 0.83137 0.84985 0.0
C902 C 0.44126 0.79179 0.88191 0.0
C903 C 0.48982 0.78445 0.84706 0.0
C904 C 0.475 0.79464 0.85262 0.0
C905 C 0.42017 0.8096 0.85364 0.0
C906 C 0.44053 0.80666 0.85555 0.0
H907 H 0.54573 0.79819 0.83839 0.0
H908 H 0.52202 0.81651 0.84395 0.0
H909 H 0.45788 0.77359 0.90025 0.0
H910 H 0.36203 0.77703 0.85455 0.0
H911 H 0.39594 0.77314 0.85745 0.0
C912 C 0.16919 0.56779 0.85669 0.0
C913 C 0.18851 0.56534 0.86324 0.0
C914 C 0.17131 0.58953 0.85516 0.0
C915 C 0.2037 0.64792 0.88634 0.0
H916 H 0.19465 0.66743 0.79026 0.0
C917 C 0.21663 0.73848 0.85609 0.0
C918 C 0.23603 0.75045 0.83358 0.0
C919 C 0.20613 0.71461 0.85955 0.0
C920 C 0.19681 0.66202 0.81734 0.0
H921 H 0.22517 0.58428 0.87427 0.0
H922 H 0.22841 0.62197 0.87351 0.0
H923 H 0.18518 0.62749 0.79972 0.0
H924 H 0.25889 0.74707 0.79543 0.0
H925 H 0.23987 0.70526 0.8002 0.0
H926 H 0.21566 0.68253 0.90382 0.0
C927 C 0.21174 0.60691 0.86916 0.0
C928 C 0.19142 0.6393 0.82274 0.0
C929 C 0.20978 0.58525 0.86983 0.0
C930 C 0.24391 0.73816 0.81289 0.0
C931 C 0.23305 0.71432 0.81554 0.0
C932 C 0.20856 0.6705 0.88118 0.0
C933 C 0.19262 0.60921 0.86117 0.0
C934 C 0.19538 0.63227 0.85702 0.0
C935 C 0.2145 0.70245 0.83965 0.0
C936 C 0.20567 0.67783 0.84642 0.0
H937 H 0.1524 0.55296 0.85243 0.0
H938 H 0.15632 0.59099 0.84916 0.0
H939 H 0.20691 0.6428 0.91295 0.0
H940 H 0.21043 0.74767 0.87259 0.0
H941 H 0.19188 0.70571 0.87841 0.0
C942 C 0.26687 0.48244 0.84529 0.0
C943 C 0.25264 0.486 0.82139 0.0
C944 C 0.29066 0.4968 0.84362 0.0
C945 C 0.33228 0.55543 0.81159 0.0
H946 H 0.37679 0.53949 0.84722 0.0
C947 C 0.42168 0.62553 0.8542 0.0
C948 C 0.44061 0.62276 0.84643 0.0
C949 C 0.39939 0.60736 0.84976 0.0
C950 C 0.36465 0.5442 0.83672 0.0
H951 H 0.2515 0.50568 0.77523 0.0
H952 H 0.29301 0.52971 0.7703 0.0
H953 H 0.33721 0.50936 0.83744 0.0
H954 H 0.45067 0.59817 0.82902 0.0
H955 H 0.41172 0.56681 0.81932 0.0
H956 H 0.35968 0.59001 0.80935 0.0
C957 C 0.28608 0.51674 0.79162 0.0
C958 C 0.34185 0.52693 0.83155 0.0
C959 C 0.26234 0.50285 0.79405 0.0
C960 C 0.43656 0.60111 0.83467 0.0
C961 C 0.41418 0.58298 0.82959 0.0
C962 C 0.35504 0.57254 0.8161 0.0
C963 C 0.30052 0.51465 0.81748 0.0
C964 C 0.32528 0.53238 0.8195 0.0
C965 C 0.39531 0.58599 0.8366 0.0
C966 C 0.37144 0.56727 0.82954 0.0
H967 H 0.25955 0.46959 0.8668 0.0
H968 H 0.30109 0.49472 0.86423 0.0
H969 H 0.3201 0.56053 0.80293 0.0
H970 H 0.42396 0.64194 0.86279 0.0
H971 H 0.38532 0.6102 0.85638 0.0
C972 C 0.83029 0.93234 0.68119 0.0
C973 C 0.84946 0.95431 0.67616 0.0
C974 C 0.83217 0.91273 0.67603 0.0
C975 C 0.86681 0.89276 0.62807 0.0
H976 H 0.85071 0.84861 0.70721 0.0
C977 C 0.9126 0.84231 0.64956 0.0
C978 C 0.9009 0.81979 0.66327 0.0
C979 C 0.90139 0.85481 0.64542 0.0
C980 C 0.85476 0.86042 0.68444 0.0
H981 H 0.88543 0.97304 0.66126 0.0
H982 H 0.88868 0.93889 0.65201 0.0
H983 H 0.84016 0.87846 0.71158 0.0
H984 H 0.86801 0.79236 0.68222 0.0
H985 H 0.84824 0.8145 0.67515 0.0
H986 H 0.88198 0.8753 0.60133 0.0
C987 C 0.87224 0.9368 0.66001 0.0
C988 C 0.8488 0.87754 0.68703 0.0
C989 C 0.87046 0.95632 0.66569 0.0
C990 C 0.87743 0.8097 0.67157 0.0
C991 C 0.86618 0.82237 0.6677 0.0
C992 C 0.87259 0.8756 0.62533 0.0
C993 C 0.85314 0.91482 0.66504 0.0
C994 C 0.8556 0.89438 0.65952 0.0
C995 C 0.87817 0.84517 0.65496 0.0
C996 C 0.8675 0.85985 0.65419 0.0
H997 H 0.81392 0.93036 0.68935 0.0
H998 H 0.81723 0.89596 0.68014 0.0
H999 H 0.87186 0.9053 0.60616 0.0
H1000 H 0.93067 0.85057 0.64275 0.0
H1001 H 0.91127 0.87243 0.63613 0.0
C1002 C 0.18903 0.07257 0.65594 0.0
C1003 C 0.17894 0.0864 0.65261 0.0
C1004 C 0.17548 0.04863 0.65346 0.0
C1005 C 0.1192 0.00273 0.62021 0.0
H1006 H 0.12123 0.96682 0.70213 0.0
C1007 C 0.06604 0.90345 0.67723 0.0
C1008 C 0.04375 0.90009 0.6739 0.0
C1009 C 0.08518 0.92509 0.6708 0.0
C1010 C 0.12073 0.97652 0.67871 0.0
H1011 H 0.14703 0.08618 0.64275 0.0
H1012 H 0.12366 0.04483 0.63821 0.0
H1013 H 0.15102 0.00713 0.69604 0.0
H1014 H 0.02402 0.91659 0.66079 0.0
H1015 H 0.05728 0.95426 0.64996 0.0
H1016 H 0.08848 0.97252 0.60362 0.0
C1017 C 0.14193 0.05228 0.64267 0.0
C1018 C 0.1378 0.99955 0.67518 0.0
C1019 C 0.15531 0.076 0.64561 0.0
C1020 C 0.04097 0.91871 0.66399 0.0
C1021 C 0.06002 0.94021 0.6573 0.0
C1022 C 0.10219 0.9798 0.62374 0.0
C1023 C 0.15177 0.03831 0.64692 0.0
C1024 C 0.13669 0.01306 0.64662 0.0
C1025 C 0.08232 0.94362 0.66048 0.0
C1026 C 0.10232 0.9667 0.65374 0.0
H1027 H 0.20721 0.08017 0.6614 0.0
H1028 H 0.18346 0.0382 0.65682 0.0
H1029 H 0.11817 0.01266 0.59755 0.0
H1030 H 0.06867 0.8894 0.68502 0.0
H1031 H 0.10218 0.92726 0.67345 0.0
C1032 C 0.9314 0.12126 0.67459 0.0
C1033 C 0.91821 0.09738 0.66955 0.0
C1034 C 0.95532 0.13194 0.67774 0.0
C1035 C 0.00717 0.14923 0.66411 0.0
H1036 H 0.02811 0.11658 0.72661 0.0
C1037 C 0.09772 0.16037 0.65634 0.0
C1038 C 0.10783 0.15808 0.68874 0.0
C1039 C 0.07566 0.15738 0.657 0.0
C1040 C 0.02264 0.12618 0.70957 0.0
H1041 H 0.91985 0.06623 0.6617 0.0
H1042 H 0.96121 0.08478 0.667 0.0
H1043 H 0.98732 0.10286 0.72107 0.0
H1044 H 0.1033 0.15227 0.74761 0.0
H1045 H 0.06471 0.14703 0.74879 0.0
H1046 H 0.04265 0.17237 0.65217 0.0
C1047 C 0.95314 0.09521 0.66927 0.0
C1048 C 0.99924 0.11814 0.70606 0.0
C1049 C 0.92943 0.08462 0.66603 0.0
C1050 C 0.09579 0.15372 0.72209 0.0
C1051 C 0.07373 0.15078 0.72276 0.0
C1052 C 0.0307 0.15726 0.66751 0.0
C1053 C 0.96629 0.11884 0.67608 0.0
C1054 C 0.99123 0.12922 0.68262 0.0
C1055 C 0.06321 0.15204 0.69008 0.0
C1056 C 0.03864 0.14553 0.68974 0.0
H1057 H 0.92321 0.13154 0.67739 0.0
H1058 H 0.96513 0.15023 0.68285 0.0
H1059 H 1.00142 0.15809 0.64591 0.0
H1060 H 0.10644 0.16346 0.63011 0.0
H1061 H 0.06794 0.15814 0.63126 0.0
C1062 C 0.17063 0.10217 0.13812 0.0
C1063 C 0.18876 0.10797 0.16278 0.0
C1064 C 0.15807 0.1135 0.13953 0.0
C1065 C 0.13471 0.13469 0.2043 0.0
H1066 H 0.12131 0.16288 0.12214 0.0
C1067 C 0.06264 0.15724 0.21395 0.0
C1068 C 0.04959 0.15384 0.18204 0.0
C1069 C 0.08296 0.15639 0.21236 0.0
C1070 C 0.12463 0.15483 0.1453 0.0
H1071 H 0.20849 0.13041 0.2076 0.0
H1072 H 0.18569 0.1497 0.21112 0.0
H1073 H 0.15171 0.15334 0.11656 0.0
H1074 H 0.04715 0.14664 0.12366 0.0
H1075 H 0.08178 0.1439 0.121 0.0
H1076 H 0.10663 0.1343 0.23217 0.0
C1077 C 0.18168 0.13677 0.19019 0.0
C1078 C 0.14225 0.14967 0.14216 0.0
C1079 C 0.19471 0.12586 0.18807 0.0
C1080 C 0.0571 0.14955 0.14856 0.0
C1081 C 0.07711 0.14821 0.14707 0.0
C1082 C 0.11675 0.13935 0.20719 0.0
C1083 C 0.16306 0.13038 0.16628 0.0
C1084 C 0.14715 0.13923 0.17142 0.0
C1085 C 0.09037 0.15161 0.17893 0.0
C1086 C 0.11112 0.14903 0.17742 0.0
H1087 H 0.16574 0.08837 0.11847 0.0
H1088 H 0.14364 0.10818 0.12107 0.0
H1089 H 0.13803 0.12632 0.22702 0.0
H1090 H 0.05724 0.1608 0.24002 0.0
H1091 H 0.09284 0.15951 0.23736 0.0
C1092 C 0.83245 0.90162 0.19711 0.0
C1093 C 0.85129 0.89834 0.19151 0.0
C1094 C 0.83467 0.92323 0.19155 0.0
C1095 C 0.85193 0.97546 0.19917 0.0
H1096 H 0.88442 0.00832 0.11118 0.0
C1097 C 0.88074 0.0715 0.17421 0.0
C1098 C 0.90425 0.08448 0.16593 0.0
C1099 C 0.86942 0.04747 0.17281 0.0
C1100 C 0.8752 0.99933 0.13578 0.0
H1101 H 0.88709 0.91495 0.1756 0.0
H1102 H 0.89094 0.95252 0.1659 0.0
H1103 H 0.8739 0.96825 0.11896 0.0
H1104 H 0.93407 0.08266 0.14819 0.0
H1105 H 0.91449 0.04116 0.1456 0.0
H1106 H 0.85433 0.007 0.21683 0.0
C1107 C 0.87449 0.93845 0.17456 0.0
C1108 C 0.86922 0.97644 0.14022 0.0
C1109 C 0.87236 0.91703 0.18055 0.0
C1110 C 0.91597 0.07314 0.15489 0.0
C1111 C 0.90469 0.04932 0.15309 0.0
C1112 C 0.85805 0.9985 0.1948 0.0
C1113 C 0.85564 0.94172 0.17965 0.0
C1114 C 0.8583 0.96456 0.17254 0.0
C1115 C 0.88139 0.03619 0.16247 0.0
C1116 C 0.87053 0.01087 0.16368 0.0
H1117 H 0.81603 0.88747 0.20566 0.0
H1118 H 0.81992 0.92538 0.19575 0.0
H1119 H 0.84349 0.96663 0.22433 0.0
H1120 H 0.87132 0.07984 0.18288 0.0
H1121 H 0.85144 0.03772 0.18014 0.0
C1122 C 0.09719 0.94876 0.13578 0.0
C1123 C 0.1072 0.96011 0.16895 0.0
C1124 C 0.07538 0.92924 0.13569 0.0
C1125 C 0.02286 0.90426 0.19037 0.0
H1126 H 1.0019 0.8529 0.12297 0.0
C1127 C 0.93278 0.8163 0.16033 0.0
C1128 C 0.91864 0.82614 0.15909 0.0
C1129 C 0.95672 0.83037 0.16011 0.0
C1130 C 0.00761 0.86704 0.14215 0.0
H1131 H 0.10304 0.95902 0.22821 0.0
H1132 H 0.06507 0.92487 0.22813 0.0
H1133 H 0.043 0.88103 0.12743 0.0
H1134 H 0.91835 0.85815 0.15379 0.0
H1135 H 0.95972 0.88236 0.15318 0.0
H1136 H 0.98769 0.89061 0.20485 0.0
C1137 C 0.07381 0.93134 0.2021 0.0
C1138 C 0.03104 0.88319 0.14453 0.0
C1139 C 0.09551 0.9509 0.20217 0.0
C1140 C 0.92876 0.85004 0.1554 0.0
C1141 C 0.95247 0.86395 0.15517 0.0
C1142 C 0.9996 0.88827 0.18789 0.0
C1143 C 0.06323 0.92065 0.16879 0.0
C1144 C 0.03885 0.90216 0.16833 0.0
C1145 C 0.96669 0.85436 0.15871 0.0
C1146 C 0.99167 0.86979 0.16324 0.0
H1147 H 0.10579 0.95554 0.10975 0.0
H1148 H 0.06762 0.92155 0.10954 0.0
H1149 H 0.0282 0.91877 0.20864 0.0
H1150 H 0.92541 0.79792 0.16313 0.0
H1151 H 0.96737 0.82258 0.16274 0.0
C1152 C 0.52352 0.14065 0.37134 0.0
C1153 C 0.5157 0.12032 0.39169 0.0
C1154 C 0.53048 0.14174 0.33474 0.0
C1155 C 0.5299 0.10517 0.25714 0.0
H1156 H 0.58632 0.15985 0.22902 0.0
C1157 C 0.568 0.1118 0.11481 0.0
C1158 C 0.59191 0.12288 0.11073 0.0
C1159 C 0.55824 0.11317 0.14764 0.0
C1160 C 0.57071 0.14436 0.23663 0.0
H1161 H 0.50762 0.08481 0.38898 0.0
H1162 H 0.52016 0.08686 0.32622 0.0
H1163 H 0.5685 0.1587 0.288 0.0
H1164 H 0.62448 0.14449 0.13751 0.0
H1165 H 0.60732 0.14576 0.19652 0.0
H1166 H 0.5328 0.09012 0.20748 0.0
C1167 C 0.5207 0.10192 0.33788 0.0
C1168 C 0.56023 0.14386 0.27014 0.0
C1169 C 0.51359 0.10077 0.37413 0.0
C1170 C 0.60598 0.13561 0.14021 0.0
C1171 C 0.59612 0.1365 0.17374 0.0
C1172 C 0.54057 0.1055 0.22418 0.0
C1173 C 0.52979 0.12256 0.31798 0.0
C1174 C 0.53979 0.12415 0.28092 0.0
C1175 C 0.57207 0.12513 0.17784 0.0
C1176 C 0.5611 0.12508 0.2134 0.0
H1177 H 0.52529 0.15599 0.38413 0.0
H1178 H 0.53696 0.15777 0.31993 0.0
H1179 H 0.51401 0.08982 0.2642 0.0
H1180 H 0.55667 0.10243 0.09219 0.0
H1181 H 0.53973 0.10492 0.1491 0.0
C1182 C 0.86367 0.37969 0.37168 0.0
C1183 C 0.8851 0.38955 0.38935 0.0
C1184 C 0.86196 0.38617 0.33575 0.0
C1185 C 0.89547 0.41702 0.25305 0.0
H1186 H 0.85193 0.43867 0.24565 0.0
C1187 C 0.90437 0.47992 0.14016 0.0
C1188 C 0.88443 0.47545 0.12104 0.0
C1189 C 0.90291 0.46834 0.17277 0.0
C1190 C 0.86396 0.43246 0.24707 0.0
H1191 H 0.92167 0.41215 0.38221 0.0
H1192 H 0.91874 0.42313 0.31953 0.0
H1193 H 0.85167 0.41716 0.29996 0.0
H1194 H 0.84725 0.45636 0.12225 0.0
H1195 H 0.84469 0.43601 0.17937 0.0
H1196 H 0.90799 0.43253 0.20049 0.0
C1197 C 0.90324 0.41058 0.33335 0.0
C1198 C 0.86375 0.42004 0.27808 0.0
C1199 C 0.90493 0.4043 0.36931 0.0
C1200 C 0.86293 0.46027 0.1365 0.0
C1201 C 0.86146 0.44855 0.16915 0.0
C1202 C 0.89564 0.42936 0.22205 0.0
C1203 C 0.88166 0.40234 0.31678 0.0
C1204 C 0.8798 0.41258 0.2817 0.0
C1205 C 0.88147 0.45189 0.18692 0.0
C1206 C 0.88023 0.43766 0.21906 0.0
H1207 H 0.84807 0.36833 0.38648 0.0
H1208 H 0.84515 0.37932 0.32341 0.0
H1209 H 0.90785 0.41125 0.25489 0.0
H1210 H 0.92119 0.49166 0.1291 0.0
H1211 H 0.91864 0.47181 0.18639 0.0
C1212 C 0.6129 0.48742 0.3722 0.0
C1213 C 0.59955 0.49161 0.39733 0.0
C1214 C 0.60486 0.4799 0.33649 0.0
C1215 C 0.55849 0.47089 0.27026 0.0
H1216 H 0.5694 0.42339 0.23211 0.0
C1217 C 0.5248 0.39781 0.14662 0.0
C1218 C 0.52274 0.411 0.11852 0.0
C1219 C 0.53352 0.40761 0.18115 0.0
C1220 C 0.56587 0.43636 0.24263 0.0
H1221 H 0.56808 0.49276 0.40388 0.0
H1222 H 0.55387 0.47909 0.34271 0.0
H1223 H 0.5872 0.44235 0.28967 0.0
H1224 H 0.52792 0.44473 0.10485 0.0
H1225 H 0.54369 0.46176 0.16362 0.0
H1226 H 0.53605 0.46397 0.22467 0.0
C1227 C 0.57068 0.48189 0.3499 0.0
C1228 C 0.57651 0.44763 0.2753 0.0
C1229 C 0.57883 0.48969 0.38526 0.0
C1230 C 0.52906 0.43393 0.12588 0.0
C1231 C 0.53803 0.44374 0.15991 0.0
C1232 C 0.54751 0.45932 0.23809 0.0
C1233 C 0.58323 0.4762 0.32538 0.0
C1234 C 0.57299 0.46509 0.28952 0.0
C1235 C 0.54056 0.43084 0.18799 0.0
C1236 C 0.55118 0.44203 0.22362 0.0
H1237 H 0.629 0.48885 0.38061 0.0
H1238 H 0.6153 0.47631 0.31802 0.0
H1239 H 0.55553 0.4844 0.27998 0.0
H1240 H 0.5201 0.38011 0.14175 0.0
H1241 H 0.53488 0.39703 0.20234 0.0
C1242 C 0.90652 0.49521 0.87283 0.0
C1243 C 0.88627 0.4896 0.89202 0.0
C1244 C 0.90552 0.48648 0.83764 0.0
C1245 C 0.86717 0.45521 0.75905 0.0
H1246 H 0.9088 0.43141 0.74853 0.0
C1247 C 0.86276 0.39838 0.63592 0.0
C1248 C 0.88392 0.40617 0.61817 0.0
C1249 C 0.86187 0.40718 0.67042 0.0
C1250 C 0.89712 0.43802 0.75102 0.0
H1251 H 0.84916 0.47203 0.88821 0.0
H1252 H 0.84741 0.45655 0.8269 0.0
H1253 H 0.91 0.45209 0.80415 0.0
H1254 H 0.92074 0.42822 0.62326 0.0
H1255 H 0.9192 0.4432 0.68342 0.0
H1256 H 0.85426 0.44089 0.70573 0.0
C1257 C 0.86407 0.46779 0.83892 0.0
C1258 C 0.89791 0.45005 0.78274 0.0
C1259 C 0.86508 0.47672 0.87407 0.0
C1260 C 0.90418 0.42191 0.63629 0.0
C1261 C 0.90331 0.43045 0.6708 0.0
C1262 C 0.86631 0.44305 0.72728 0.0
C1263 C 0.88425 0.47176 0.82103 0.0
C1264 C 0.88318 0.45907 0.78695 0.0
C1265 C 0.88214 0.4236 0.68785 0.0
C1266 C 0.88147 0.43458 0.72281 0.0
H1267 H 0.92312 0.50529 0.88582 0.0
H1268 H 0.92141 0.49044 0.8241 0.0
H1269 H 0.85562 0.46198 0.76142 0.0
H1270 H 0.84687 0.38637 0.62242 0.0
H1271 H 0.84534 0.40147 0.68317 0.0
C1272 C 0.59539 0.44663 0.62841 0.0
C1273 C 0.59933 0.46895 0.62305 0.0
C1274 C 0.58581 0.43505 0.66135 0.0
C1275 C 0.55185 0.43789 0.74012 0.0
H1276 H 0.5589 0.38783 0.77736 0.0
C1277 C 0.50101 0.38949 0.86669 0.0
C1278 C 0.5127 0.38375 0.89264 0.0
C1279 C 0.5093 0.3952 0.83074 0.0
C1280 C 0.55684 0.4019 0.76766 0.0
H1281 H 0.59828 0.49748 0.64828 0.0
H1282 H 0.58356 0.47823 0.70703 0.0
H1283 H 0.58149 0.40982 0.72492 0.0
H1284 H 0.54132 0.37813 0.90133 0.0
H1285 H 0.55666 0.38942 0.83968 0.0
H1286 H 0.52874 0.4314 0.7843 0.0
C1287 C 0.58648 0.46897 0.68533 0.0
C1288 C 0.56964 0.41438 0.73708 0.0
C1289 C 0.59531 0.48023 0.65196 0.0
C1290 C 0.53185 0.38224 0.88156 0.0
C1291 C 0.54063 0.38874 0.84602 0.0
C1292 C 0.53959 0.42588 0.77117 0.0
C1293 C 0.58052 0.44583 0.68988 0.0
C1294 C 0.5674 0.43265 0.72296 0.0
C1295 C 0.53004 0.39629 0.82055 0.0
C1296 C 0.54187 0.4077 0.78553 0.0
H1297 H 0.59802 0.43749 0.60611 0.0
H1298 H 0.58135 0.41726 0.66341 0.0
H1299 H 0.54898 0.4513 0.72964 0.0
H1300 H 0.48613 0.39066 0.87469 0.0
H1301 H 0.50003 0.39991 0.8116 0.0
C1302 C 0.62691 0.14533 0.86933 0.0
C1303 C 0.61746 0.12369 0.88623 0.0
C1304 C 0.62094 0.14723 0.8332 0.0
C1305 C 0.59159 0.11439 0.74922 0.0
H1306 H 0.56633 0.15508 0.74532 0.0
C1307 C 0.52638 0.10287 0.63929 0.0
C1308 C 0.52984 0.12264 0.62065 0.0
C1309 C 0.53837 0.10472 0.67155 0.0
C1310 C 0.57356 0.14387 0.74577 0.0
H1311 H 0.59652 0.08702 0.87743 0.0
H1312 H 0.58637 0.09032 0.81441 0.0
H1313 H 0.58877 0.15598 0.7987 0.0
H1314 H 0.54735 0.15981 0.62251 0.0
H1315 H 0.5684 0.16304 0.67906 0.0
H1316 H 0.57605 0.10197 0.69666 0.0
C1317 C 0.59818 0.10582 0.82901 0.0
C1318 C 0.58653 0.14447 0.77621 0.0
C1319 C 0.60396 0.10393 0.86517 0.0
C1320 C 0.54424 0.14427 0.63639 0.0
C1321 C 0.55637 0.14612 0.66868 0.0
C1322 C 0.57869 0.11383 0.71879 0.0
C1323 C 0.6057 0.12752 0.81331 0.0
C1324 C 0.59525 0.12939 0.77858 0.0
C1325 C 0.55419 0.12637 0.68576 0.0
C1326 C 0.56907 0.12817 0.71714 0.0
H1327 H 0.63739 0.16087 0.88488 0.0
H1328 H 0.62725 0.16415 0.82149 0.0
H1329 H 0.59832 0.10276 0.75015 0.0
H1330 H 0.51522 0.08595 0.62798 0.0
H1331 H 0.5358 0.08916 0.68473 0.0
C1332 C 0.26726 0.47994 0.4739 0.0
C1333 C 0.26016 0.45781 0.46033 0.0
C1334 C 0.25715 0.4828 0.50563 0.0
C1335 C 0.20313 0.45222 0.55719 0.0
H1336 H 0.23634 0.49311 0.63786 0.0
C1337 C 0.16978 0.43898 0.70445 0.0
C1338 C 0.17647 0.45803 0.72748 0.0
C1339 C 0.177 0.44202 0.6679 0.0
C1340 C 0.22674 0.48202 0.61515 0.0
H1341 H 0.23837 0.4214 0.47089 0.0
H1342 H 0.22117 0.42642 0.52631 0.0
H1343 H 0.25718 0.49259 0.58317 0.0
H1344 H 0.19412 0.49522 0.72951 0.0
H1345 H 0.20675 0.50051 0.66539 0.0
H1346 H 0.17281 0.44111 0.58948 0.0
C1347 C 0.23399 0.44154 0.51197 0.0
C1348 C 0.23872 0.48164 0.58397 0.0
C1349 C 0.24404 0.43868 0.48044 0.0
C1350 C 0.18871 0.4802 0.71238 0.0
C1351 C 0.19613 0.48325 0.67581 0.0
C1352 C 0.19118 0.45262 0.58825 0.0
C1353 C 0.23982 0.46359 0.52413 0.0
C1354 C 0.2271 0.46618 0.55526 0.0
C1355 C 0.19115 0.46417 0.65371 0.0
C1356 C 0.20294 0.467 0.61804 0.0
H1357 H 0.27957 0.49501 0.45886 0.0
H1358 H 0.26205 0.5 0.51459 0.0
H1359 H 0.19366 0.44054 0.53498 0.0
H1360 H 0.16028 0.42169 0.71532 0.0
H1361 H 0.17295 0.42696 0.65166 0.0
C1362 C 0.52622 0.79281 0.4718 0.0
C1363 C 0.54768 0.80748 0.45578 0.0
C1364 C 0.52485 0.78172 0.50509 0.0
C1365 C 0.55893 0.76296 0.55881 0.0
H1366 H 0.51644 0.75343 0.63793 0.0
C1367 C 0.57038 0.7415 0.70704 0.0
C1368 C 0.55086 0.72692 0.72783 0.0
C1369 C 0.56814 0.74721 0.67099 0.0
C1370 C 0.52809 0.75557 0.61572 0.0
H1371 H 0.58447 0.8236 0.46337 0.0
H1372 H 0.58209 0.80485 0.52174 0.0
H1373 H 0.51616 0.77375 0.58236 0.0
H1374 H 0.5138 0.70559 0.72645 0.0
H1375 H 0.50991 0.71569 0.66324 0.0
H1376 H 0.57128 0.74536 0.59253 0.0
C1377 C 0.56632 0.80126 0.50812 0.0
C1378 C 0.52799 0.7673 0.58401 0.0
C1379 C 0.56769 0.81219 0.47489 0.0
C1380 C 0.52916 0.71686 0.71105 0.0
C1381 C 0.5269 0.72279 0.67503 0.0
C1382 C 0.55907 0.75133 0.59048 0.0
C1383 C 0.54491 0.78524 0.52286 0.0
C1384 C 0.54378 0.77156 0.5556 0.0
C1385 C 0.54632 0.73858 0.65513 0.0
C1386 C 0.54397 0.74792 0.61955 0.0
H1387 H 0.51051 0.78877 0.45755 0.0
H1388 H 0.5081 0.7695 0.51584 0.0
H1389 H 0.57088 0.76542 0.53693 0.0
H1390 H 0.58732 0.74947 0.71924 0.0
H1391 H 0.58341 0.75952 0.6564 0.0
C1392 C 0.26287 0.82998 0.70755 0.0
C1393 C 0.2774 0.82441 0.72716 0.0
C1394 C 0.25697 0.82284 0.6712 0.0
C1395 C 0.25177 0.8103 0.59005 0.0
H1396 H 0.22824 0.7448 0.58133 0.0
C1397 C 0.19008 0.75881 0.47443 0.0
C1398 C 0.19415 0.74293 0.45577 0.0
C1399 C 0.20123 0.76844 0.50749 0.0
C1400 C 0.235 0.76313 0.5831 0.0
H1401 H 0.29867 0.80867 0.72332 0.0
H1402 H 0.28821 0.79606 0.65963 0.0
H1403 H 0.24948 0.76509 0.63632 0.0
H1404 H 0.21203 0.72363 0.4581 0.0
H1405 H 0.23172 0.74065 0.51582 0.0
H1406 H 0.23716 0.80839 0.53706 0.0
C1407 C 0.2813 0.80581 0.67257 0.0
C1408 C 0.24725 0.77477 0.61449 0.0
C1409 C 0.28741 0.8132 0.70886 0.0
C1410 C 0.20846 0.73574 0.47199 0.0
C1411 C 0.21979 0.74554 0.50501 0.0
C1412 C 0.23965 0.79871 0.55859 0.0
C1413 C 0.26536 0.80984 0.65393 0.0
C1414 C 0.25537 0.79838 0.61853 0.0
C1415 C 0.21685 0.76255 0.52244 0.0
C1416 C 0.23071 0.77491 0.55512 0.0
H1417 H 0.25498 0.8387 0.72094 0.0
H1418 H 0.24459 0.82612 0.65752 0.0
H1419 H 0.25803 0.82853 0.59238 0.0
H1420 H 0.17898 0.76452 0.46272 0.0
H1421 H 0.19809 0.781 0.52085 0.0
C1422 C 0.57466 0.75539 0.97543 0.0
C1423 C 0.55472 0.7388 0.9576 0.0
C1424 C 0.57321 0.76482 0.00876 0.0
C1425 C 0.53447 0.75867 0.08582 0.0
H1426 H 0.57471 0.8246 0.09259 0.0
C1427 C 0.57106 0.82826 0.20741 0.0
C1428 C 0.55072 0.82227 0.22662 0.0
C1429 C 0.57022 0.82039 0.17162 0.0
C1430 C 0.56335 0.80621 0.091 0.0
H1431 H 0.51772 0.71801 0.96169 0.0
H1432 H 0.51511 0.7347 0.01982 0.0
H1433 H 0.57605 0.80417 0.03811 0.0
H1434 H 0.51363 0.80489 0.22248 0.0
H1435 H 0.5122 0.79105 0.15981 0.0
H1436 H 0.52183 0.76083 0.13887 0.0
C1437 C 0.53191 0.74029 0.00823 0.0
C1438 C 0.56424 0.79445 0.06001 0.0
C1439 C 0.5334 0.73066 0.97498 0.0
C1440 C 0.52959 0.80982 0.20833 0.0
C1441 C 0.52874 0.8017 0.17264 0.0
C1442 C 0.53347 0.77048 0.11673 0.0
C1443 C 0.55175 0.75807 0.02478 0.0
C1444 C 0.55011 0.77049 0.05735 0.0
C1445 C 0.54901 0.80622 0.15453 0.0
C1446 C 0.54815 0.79431 0.11984 0.0
H1447 H 0.59135 0.76185 0.96277 0.0
H1448 H 0.58887 0.77797 0.02138 0.0
H1449 H 0.52346 0.74022 0.08474 0.0
H1450 H 0.58759 0.83788 0.22081 0.0
H1451 H 0.58611 0.82409 0.15834 0.0
C1452 C 0.26999 0.79438 0.97196 0.0
C1453 C 0.26357 0.80936 0.95606 0.0
C1454 C 0.25998 0.78313 0.00498 0.0
C1455 C 0.2071 0.76485 0.05834 0.0
H1456 H 0.23937 0.75366 0.13669 0.0
C1457 C 0.17474 0.74277 0.20684 0.0
C1458 C 0.1796 0.7279 0.22699 0.0
C1459 C 0.18223 0.7484 0.17057 0.0
C1460 C 0.23005 0.75627 0.11468 0.0
H1461 H 0.24324 0.82588 0.96359 0.0
H1462 H 0.22642 0.8069 0.02164 0.0
H1463 H 0.26027 0.7744 0.08167 0.0
H1464 H 0.19444 0.70579 0.22416 0.0
H1465 H 0.20761 0.71576 0.16062 0.0
H1466 H 0.17704 0.74734 0.09187 0.0
C1467 C 0.23851 0.80317 0.00807 0.0
C1468 C 0.24203 0.76823 0.08328 0.0
C1469 C 0.24834 0.81424 0.97505 0.0
C1470 C 0.19046 0.71733 0.2093 0.0
C1471 C 0.19818 0.72316 0.17308 0.0
C1472 C 0.19516 0.753 0.08976 0.0
C1473 C 0.24353 0.78684 0.02265 0.0
C1474 C 0.23077 0.77306 0.05514 0.0
C1475 C 0.19485 0.73939 0.15391 0.0
C1476 C 0.2066 0.74896 0.1185 0.0
H1477 H 0.28158 0.79019 0.95777 0.0
H1478 H 0.26422 0.77066 0.01558 0.0
H1479 H 0.1978 0.76776 0.03666 0.0
H1480 H 0.16632 0.75111 0.21974 0.0
H1481 H 0.17949 0.76103 0.15649 0.0
C1482 C 0.20135 0.46356 0.98008 0.0
C1483 C 0.20017 0.44904 0.9514 0.0
C1484 C 0.21143 0.4634 0.01378 0.0
C1485 C 0.23023 0.42823 0.06733 0.0
H1486 H 0.26262 0.48366 0.12546 0.0
C1487 C 0.25421 0.42623 0.2177 0.0
C1488 C 0.27295 0.44557 0.23349 0.0
C1489 C 0.24809 0.42662 0.18122 0.0
C1490 C 0.25405 0.46811 0.10924 0.0
H1491 H 0.20922 0.42355 0.93504 0.0
H1492 H 0.22753 0.42408 0.99232 0.0
H1493 H 0.24609 0.48494 0.0666 0.0
H1494 H 0.3012 0.47978 0.22242 0.0
H1495 H 0.2911 0.48009 0.15792 0.0
H1496 H 0.23906 0.41162 0.10886 0.0
C1497 C 0.21987 0.43484 0.98995 0.0
C1498 C 0.24412 0.46874 0.07576 0.0
C1499 C 0.2094 0.43461 0.95685 0.0
C1500 C 0.28659 0.46464 0.21109 0.0
C1501 C 0.28061 0.46493 0.17426 0.0
C1502 C 0.24055 0.42772 0.10028 0.0
C1503 C 0.22092 0.44908 0.01905 0.0
C1504 C 0.23183 0.44873 0.05455 0.0
C1505 C 0.26079 0.44622 0.15928 0.0
C1506 C 0.25223 0.44752 0.12208 0.0
H1507 H 0.19446 0.47494 0.97651 0.0
H1508 H 0.21161 0.47439 0.0357 0.0
H1509 H 0.22064 0.41233 0.05224 0.0
H1510 H 0.2433 0.41121 0.23412 0.0
H1511 H 0.23258 0.41196 0.17103 0.0
C1512 C 0.93303 0.8156 0.81211 0.0
C1513 C 0.92591 0.79363 0.79782 0.0
C1514 C 0.92281 0.81813 0.84403 0.0
C1515 C 0.86858 0.78685 0.89543 0.0
H1516 H 0.90156 0.8274 0.97657 0.0
C1517 C 0.83465 0.77295 0.04272 0.0
C1518 C 0.84104 0.79193 0.06579 0.0
C1519 C 0.84215 0.77608 0.00628 0.0
C1520 C 0.89203 0.81638 0.95376 0.0
H1521 H 0.9039 0.75713 0.80723 0.0
H1522 H 0.88654 0.76154 0.86292 0.0
H1523 H 0.92251 0.82735 0.92168 0.0
H1524 H 0.85859 0.8291 0.06799 0.0
H1525 H 0.87171 0.83457 0.00409 0.0
H1526 H 0.83823 0.77535 0.92781 0.0
C1527 C 0.89945 0.77682 0.84904 0.0
C1528 C 0.90407 0.81628 0.92243 0.0
C1529 C 0.90959 0.7743 0.81733 0.0
C1530 C 0.85333 0.81413 0.05081 0.0
C1531 C 0.86107 0.81728 0.01437 0.0
C1532 C 0.85658 0.78695 0.92664 0.0
C1533 C 0.90533 0.79874 0.86202 0.0
C1534 C 0.89254 0.80098 0.89347 0.0
C1535 C 0.85633 0.79828 0.99225 0.0
C1536 C 0.86825 0.80123 0.9566 0.0
H1537 H 0.94548 0.83081 0.79753 0.0
H1538 H 0.92776 0.83524 0.85357 0.0
H1539 H 0.85915 0.77529 0.87309 0.0
H1540 H 0.82517 0.75564 0.05351 0.0
H1541 H 0.83827 0.76107 0.99004 0.0
C1542 C 0.23892 0.13779 0.78531 0.0
C1543 C 0.22283 0.14476 0.77793 0.0
C1544 C 0.23928 0.12841 0.81921 0.0
C1545 C 0.20408 0.10183 0.90274 0.0
H1546 H 0.26215 0.11114 0.93964 0.0
C1547 C 0.2453 0.09122 0.04616 0.0
C1548 C 0.22642 0.07109 0.05978 0.0
C1549 C 0.24527 0.09848 0.01032 0.0
C1550 C 0.24577 0.10849 0.93006 0.0
H1551 H 0.19486 0.14798 0.80084 0.0
H1552 H 0.1963 0.13269 0.86135 0.0
H1553 H 0.26134 0.12991 0.88349 0.0
H1554 H 0.19351 0.04178 0.04549 0.0
H1555 H 0.19396 0.0539 0.98196 0.0
H1556 H 0.18879 0.0817 0.95095 0.0
C1557 C 0.20816 0.13377 0.84025 0.0
C1558 C 0.24524 0.11902 0.89736 0.0
C1559 C 0.20748 0.14278 0.80578 0.0
C1560 C 0.20826 0.05744 0.03582 0.0
C1561 C 0.20839 0.06456 -0.00042 0.0
C1562 C 0.20468 0.09169 0.93601 0.0
C1563 C 0.22394 0.12622 0.84721 0.0
C1564 C 0.22439 0.11575 0.88307 0.0
C1565 C 0.22656 0.08559 0.9868 0.0
C1566 C 0.22556 0.09494 0.95015 0.0
H1567 H 0.25085 0.13877 0.76441 0.0
H1568 H 0.25128 0.1223 0.82293 0.0
H1569 H 0.18764 0.09859 0.89238 0.0
H1570 H 0.25959 0.1022 0.06385 0.0
H1571 H 0.25945 0.1149 0.00188 0.0
C1572 C 0.8744 0.06703 0.80948 0.0
C1573 C 0.86007 0.07411 0.79305 0.0
C1574 C 0.88561 0.0769 0.84263 0.0
C1575 C 0.90492 0.13016 0.89603 0.0
H1576 H 0.91483 0.09712 0.97461 0.0
C1577 C 0.92832 0.16317 0.04439 0.0
C1578 C 0.94299 0.15796 0.06441 0.0
C1579 C 0.92212 0.15532 0.00836 0.0
C1580 C 0.91255 0.10665 0.95257 0.0
H1581 H 0.84472 0.09556 0.7997 0.0
H1582 H 0.86354 0.11209 0.85794 0.0
H1583 H 0.89403 0.07653 0.91941 0.0
H1584 H 0.96406 0.14196 0.06149 0.0
H1585 H 0.95312 0.1282 -0.0016 0.0
H1586 H 0.92284 0.16013 0.92966 0.0
C1587 C 0.86685 0.09961 0.84473 0.0
C1588 C 0.90057 0.09484 0.92103 0.0
C1589 C 0.85585 0.08994 0.81158 0.0
C1590 C 0.95273 0.14627 0.04675 0.0
C1591 C 0.94631 0.13819 0.01079 0.0
C1592 C 0.91676 0.14192 0.92759 0.0
C1593 C 0.88252 0.09387 0.85993 0.0
C1594 C 0.89624 0.10639 0.89272 0.0
C1595 C 0.93033 0.14197 0.99176 0.0
C1596 C 0.92039 0.13022 0.95642 0.0
H1597 H 0.8781 0.05499 0.79562 0.0
H1598 H 0.89756 0.07209 0.85365 0.0
H1599 H 0.90243 0.13971 0.87427 0.0
H1600 H 0.92057 0.17218 0.05726 0.0
H1601 H 0.90971 0.15844 0.99442 0.0
C1602 C 0.22938 0.09049 0.30873 0.0
C1603 C 0.21063 0.07495 0.28732 0.0
C1604 C 0.22597 0.10016 0.34024 0.0
C1605 C 0.18537 0.09573 0.41052 0.0
H1606 H 0.22475 0.1619 0.41393 0.0
C1607 C 0.22802 0.16665 0.5283 0.0
C1608 C 0.20924 0.16001 0.55189 0.0
C1609 C 0.22465 0.1588 0.49211 0.0
C1610 C 0.21356 0.14346 0.4133 0.0
H1611 H 0.17349 0.05591 0.2838 0.0
H1612 H 0.16753 0.07269 0.33966 0.0
H1613 H 0.22578 0.14063 0.36036 0.0
H1614 H 0.17212 0.14157 0.55539 0.0
H1615 H 0.16619 0.1278 0.49177 0.0
H1616 H 0.17391 0.09846 0.46426 0.0
C1617 C 0.18485 0.07748 0.3316 0.0
C1618 C 0.21421 0.13128 0.38275 0.0
C1619 C 0.18827 0.0678 0.29981 0.0
C1620 C 0.18692 0.14701 0.53772 0.0
C1621 C 0.18352 0.13893 0.50148 0.0
C1622 C 0.1848 0.10794 0.44129 0.0
C1623 C 0.20374 0.09445 0.35113 0.0
C1624 C 0.20071 0.10725 0.38163 0.0
C1625 C 0.20241 0.14402 0.47882 0.0
C1626 C 0.19946 0.13185 0.44346 0.0
H1627 H 0.24681 0.09617 0.30007 0.0
H1628 H 0.2408 0.11275 0.35543 0.0
H1629 H 0.17475 0.07722 0.41021 0.0
H1630 H 0.24542 0.17669 0.53851 0.0
H1631 H 0.23959 0.16293 0.4755 0.0
C1632 C 0.91336 0.14667 0.31189 0.0
C1633 C 0.92902 0.14221 0.29337 0.0
C1634 C 0.90346 0.13557 0.34488 0.0
C1635 C 0.90729 0.10107 0.42081 0.0
H1636 H 0.84221 0.07983 0.42906 0.0
C1637 C 0.85524 0.0495 0.54643 0.0
C1638 C 0.8441 0.05981 0.56408 0.0
C1639 C 0.86325 0.05564 0.51038 0.0
C1640 C 0.86035 0.0856 0.42707 0.0
H1641 H 0.94764 0.12367 0.29585 0.0
H1642 H 0.93013 0.10404 0.35359 0.0
H1643 H 0.86297 0.10023 0.37386 0.0
H1644 H 0.83069 0.08291 0.55684 0.0
H1645 H 0.84428 0.09328 0.49384 0.0
H1646 H 0.9046 0.08655 0.4743 0.0
C1647 C 0.92563 0.11625 0.34268 0.0
C1648 C 0.87231 0.09745 0.39564 0.0
C1649 C 0.93572 0.12755 0.30969 0.0
C1650 C 0.83928 0.07474 0.54397 0.0
C1651 C 0.84704 0.08065 0.50785 0.0
C1652 C 0.89527 0.08909 0.45222 0.0
C1653 C 0.9088 0.11958 0.35993 0.0
C1654 C 0.89602 0.10578 0.3925 0.0
C1655 C 0.85992 0.07189 0.49126 0.0
C1656 C 0.87179 0.08164 0.45593 0.0
H1657 H 0.90803 0.15805 0.3001 0.0
H1658 H 0.8911 0.13907 0.35807 0.0
H1659 H 0.92554 0.10734 0.41932 0.0
H1660 H 0.85924 0.03797 0.56127 0.0
H1661 H 0.87288 0.04842 0.498 0.0
C1662 C 0.86774 0.79916 0.31851 0.0
C1663 C 0.86795 0.78576 0.28907 0.0
C1664 C 0.87795 0.79917 0.35219 0.0
C1665 C 0.89911 0.76542 0.40397 0.0
H1666 H 0.92838 0.81971 0.4653 0.0
C1667 C 0.92212 0.76181 0.55453 0.0
C1668 C 0.94026 0.78127 0.57118 0.0
C1669 C 0.91617 0.76254 0.51804 0.0
C1670 C 0.92068 0.80451 0.44818 0.0
H1671 H 0.87979 0.76261 0.27133 0.0
H1672 H 0.8982 0.76343 0.32864 0.0
H1673 H 0.9119 0.82125 0.40643 0.0
H1674 H 0.96768 0.81613 0.56159 0.0
H1675 H 0.95785 0.81709 0.49714 0.0
H1676 H 0.90863 0.74893 0.44473 0.0
C1677 C 0.88939 0.77314 0.32681 0.0
C1678 C 0.91079 0.80527 0.4147 0.0
C1679 C 0.87885 0.77276 0.2937 0.0
C1680 C 0.95355 0.80087 0.54959 0.0
C1681 C 0.94771 0.80152 0.5128 0.0
C1682 C 0.90931 0.76479 0.43699 0.0
C1683 C 0.88891 0.78612 0.35671 0.0
C1684 C 0.89968 0.78565 0.39231 0.0
C1685 C 0.92842 0.78263 0.49699 0.0
C1686 C 0.9199 0.78419 0.45988 0.0
H1687 H 0.85956 0.80943 0.3156 0.0
H1688 H 0.87701 0.80919 0.37473 0.0
H1689 H 0.89042 0.74981 0.38792 0.0
H1690 H 0.91151 0.7464 0.57031 0.0
H1691 H 0.90109 0.74769 0.50714 0.0
C1692 C 0.32114 0.90219 0.89426 0.0
C1693 C 0.31797 0.89371 0.85818 0.0
C1694 C 0.34206 0.92124 0.90469 0.0
C1695 C 0.40266 0.9475 0.87726 0.0
H1696 H 0.41283 0.99165 0.95388 0.0
C1697 C 0.49372 0.01694 0.92183 0.0
C1698 C 0.4977 0.02178 0.95965 0.0
C1699 C 0.4715 0.00268 0.90853 0.0
C1700 C 0.41025 0.97929 0.93265 0.0
H1701 H 0.33324 0.89915 0.80412 0.0
H1702 H 0.36923 0.93306 0.82159 0.0
H1703 H 0.37397 0.9664 0.93101 0.0
H1704 H 0.48133 0.01479 0.01323 0.0
H1705 H 0.44259 0.98982 0.99004 0.0
H1706 H 0.43876 0.96005 0.87917 0.0
C1707 C 0.35593 0.92482 0.84219 0.0
C1708 C 0.38797 0.96487 0.91945 0.0
C1709 C 0.33516 0.90569 0.83194 0.0
C1710 C 0.47888 0.01167 0.98389 0.0
C1711 C 0.45664 0.99743 0.97058 0.0
C1712 C 0.42486 0.96189 0.89037 0.0
C1713 C 0.36013 0.93206 0.87913 0.0
C1714 C 0.38388 0.94872 0.89165 0.0
C1715 C 0.45265 0.99288 0.93269 0.0
C1716 C 0.42895 0.97789 0.91837 0.0
H1717 H 0.30836 0.89279 0.91519 0.0
H1718 H 0.34467 0.92622 0.9334 0.0
H1719 H 0.40017 0.93489 0.85655 0.0
H1720 H 0.5077 0.02476 0.90225 0.0
H1721 H 0.46904 0.99979 0.87914 0.0
C1722 C 0.99902 0.47149 0.99537 0.0
C1723 C 0.98743 0.47858 0.97119 0.0
C1724 C 0.01261 0.46278 0.98174 0.0
C1725 C 0.04318 0.46135 0.89787 0.0
H1726 H 0.04252 0.4096 0.94611 0.0
C1727 C 0.09728 0.42517 0.83967 0.0
C1728 C 0.11134 0.42275 0.86563 0.0
C1729 C 0.0784 0.42697 0.85111 0.0
C1730 C 0.04292 0.42408 0.93236 0.0
H1731 H 0.98098 0.48183 0.9136 0.0
H1732 H 0.0047 0.46684 0.88994 0.0
H1733 H 0.01829 0.4243 0.9695 0.0
H1734 H 0.11626 0.4192 0.92354 0.0
H1735 H 0.08322 0.42213 0.94373 0.0
H1736 H 0.06804 0.46151 0.86119 0.0
C1737 C 0.00358 0.46831 0.91946 0.0
C1738 C 0.02912 0.43258 0.94586 0.0
C1739 C 0.99003 0.47702 0.93306 0.0
C1740 C 0.10521 0.42033 0.90295 0.0
C1741 C 0.08638 0.42222 0.91448 0.0
C1742 C 0.05693 0.45286 0.88439 0.0
C1743 C 0.01493 0.46092 0.94359 0.0
C1744 C 0.0292 0.45145 0.92893 0.0
C1745 C 0.07346 0.42676 0.88882 0.0
C1746 C 0.05711 0.4342 0.90154 0.0
H1747 H 0.99757 0.47264 0.02489 0.0
H1748 H 0.02143 0.45765 0.00114 0.0
H1749 H 0.044 0.47612 0.88447 0.0
H1750 H 0.10204 0.42767 0.81083 0.0
H1751 H 0.06856 0.43 0.83055 0.0
C1752 C 0.57807 0.66862 0.83109 0.0
C1753 C 0.58537 0.6875 0.85475 0.0
C1754 C 0.5774 0.64857 0.84317 0.0
C1755 C 0.56628 0.61698 0.92905 0.0
H1756 H 0.57498 0.57384 0.87035 0.0
C1757 C 0.54138 0.52656 0.98353 0.0
C1758 C 0.53226 0.50817 0.9584 0.0
C1759 C 0.55042 0.5492 0.97137 0.0
C1760 C 0.57219 0.58557 0.88699 0.0
H1761 H 0.59898 0.70082 0.90877 0.0
H1762 H 0.59808 0.66579 0.93 0.0
H1763 H 0.58922 0.61284 0.8478 0.0
H1764 H 0.52533 0.49947 0.90053 0.0
H1765 H 0.54018 0.53875 0.87953 0.0
H1766 H 0.54847 0.58965 0.96754 0.0
C1767 C 0.5929 0.6665 0.90202 0.0
C1768 C 0.58055 0.60801 0.87416 0.0
C1769 C 0.59384 0.68671 0.88969 0.0
C1770 C 0.53194 0.51307 0.92081 0.0
C1771 C 0.54087 0.53573 0.90866 0.0
C1772 C 0.55777 0.59452 0.94175 0.0
C1773 C 0.58365 0.64685 0.87945 0.0
C1774 C 0.57749 0.62393 0.89486 0.0
C1775 C 0.55047 0.55415 0.93372 0.0
C1776 C 0.56035 0.57839 0.92073 0.0
H1777 H 0.57092 0.66864 0.80436 0.0
H1778 H 0.57004 0.63378 0.82513 0.0
H1779 H 0.56316 0.62862 0.94537 0.0
H1780 H 0.54167 0.52352 0.01275 0.0
H1781 H 0.55779 0.56284 0.99156 0.0
C1782 C 0.98748 0.51256 0.42743 0.0
C1783 C 0.9826 0.50875 0.46528 0.0
C1784 C 1.0015 0.53474 0.41379 0.0
C1785 C 0.02471 0.59624 0.43634 0.0
H1786 H 0.06914 0.60549 0.36079 0.0
C1787 C 0.10144 0.68512 0.3948 0.0
C1788 C 0.1098 0.68774 0.3587 0.0
C1789 C 0.08253 0.6643 0.40606 0.0
C1790 C 0.05653 0.60324 0.38133 0.0
H1791 H 0.98908 0.52548 0.51849 0.0
H1792 H 0.01367 0.5642 0.49468 0.0
H1793 H 0.04409 0.56719 0.38453 0.0
H1794 H 0.10425 0.67153 0.30542 0.0
H1795 H 0.0706 0.6357 0.32427 0.0
H1796 H 0.03752 0.63251 0.43339 0.0
C1797 C 0.00631 0.55 0.47548 0.0
C1798 C 0.04219 0.58119 0.3951 0.0
C1799 C 0.99227 0.52777 0.48915 0.0
C1800 C 0.09782 0.67005 0.33322 0.0
C1801 C 0.07883 0.64937 0.34429 0.0
C1802 C 0.03909 0.61838 0.42249 0.0
C1803 C 0.01106 0.55377 0.43759 0.0
C1804 C 0.02612 0.57737 0.42285 0.0
C1805 C 0.07173 0.64577 0.38132 0.0
C1806 C 0.05523 0.62217 0.3948 0.0
H1807 H 0.97994 0.49844 0.40807 0.0
H1808 H 0.00448 0.537 0.3844 0.0
H1809 H 0.01233 0.59388 0.45741 0.0
H1810 H 0.11083 0.6983 0.41519 0.0
H1811 H 0.07766 0.66216 0.43481 0.0
C1812 C 0.4745 0.46833 0.514 0.0
C1813 C 0.49362 0.47783 0.49034 0.0
C1814 C 0.45234 0.46041 0.50012 0.0
C1815 C 0.42183 0.46595 0.41933 0.0
H1816 H 0.37023 0.40915 0.45463 0.0
C1817 C 0.33502 0.43118 0.34983 0.0
C1818 C 0.31632 0.42494 0.37341 0.0
C1819 C 0.35547 0.43342 0.36326 0.0
C1820 C 0.38444 0.42509 0.4446 0.0
H1821 H 0.50416 0.48593 0.43327 0.0
H1822 H 0.46585 0.47242 0.40933 0.0
H1823 H 0.40843 0.4228 0.4808 0.0
H1824 H 0.30379 0.41495 0.429 0.0
H1825 H 0.33964 0.4189 0.45279 0.0
H1826 H 0.39808 0.46855 0.38356 0.0
C1827 C 0.46794 0.47143 0.43872 0.0
C1828 C 0.40633 0.43296 0.45969 0.0
C1829 C 0.49 0.47931 0.45253 0.0
C1830 C 0.31779 0.4192 0.41007 0.0
C1831 C 0.33842 0.42168 0.42372 0.0
C1832 C 0.40007 0.45812 0.40432 0.0
C1833 C 0.44879 0.46182 0.46226 0.0
C1834 C 0.42532 0.45347 0.44709 0.0
C1835 C 0.35786 0.42994 0.40083 0.0
C1836 C 0.38107 0.43752 0.41653 0.0
H1837 H 0.47663 0.46704 0.54329 0.0
H1838 H 0.43803 0.45339 0.51912 0.0
H1839 H 0.4359 0.48205 0.40948 0.0
H1840 H 0.33439 0.43606 0.3216 0.0
H1841 H 0.36988 0.43924 0.34462 0.0
C1842 C 0.57247 0.90413 0.33492 0.0
C1843 C 0.57828 0.89192 0.3598 0.0
C1844 C 0.57084 0.92303 0.34668 0.0
C1845 C 0.5798 0.96203 0.42622 0.0
H1846 H 0.52422 0.95834 0.38817 0.0
C1847 C 0.53674 0.00934 0.49388 0.0
C1848 C 0.52819 0.01982 0.47007 0.0
C1849 C 0.54457 0.99504 0.48 0.0
C1850 C 0.53995 0.95985 0.3988 0.0
H1851 H 0.588 0.89039 0.41599 0.0
H1852 H 0.58503 0.92336 0.43689 0.0
H1853 H 0.53705 0.9331 0.36373 0.0
H1854 H 0.52156 0.02359 0.41275 0.0
H1855 H 0.53484 0.99853 0.38878 0.0
H1856 H 0.58226 0.98857 0.46194 0.0
C1857 C 0.58221 0.91875 0.40804 0.0
C1858 C 0.54742 0.94541 0.38463 0.0
C1859 C 0.58413 0.89996 0.39605 0.0
C1860 C 0.52749 0.01544 0.43208 0.0
C1861 C 0.53524 1.00112 0.41825 0.0
C1862 C 0.57225 0.97648 0.44053 0.0
C1863 C 0.57442 0.9298 0.38388 0.0
C1864 C 0.56747 0.94628 0.39805 0.0
C1865 C 0.54398 0.99081 0.44198 0.0
C1866 C 0.5522 0.97555 0.42698 0.0
H1867 H 0.56747 0.89797 0.30699 0.0
H1868 H 0.56539 0.93146 0.32705 0.0
H1869 H 0.59536 0.96329 0.43711 0.0
H1870 H 0.53733 0.01211 0.52331 0.0
H1871 H 0.55086 0.9871 0.49912 0.0
C1872 C 0.15638 0.34634 0.27727 0.0
C1873 C 0.15969 0.35064 0.31532 0.0
C1874 C 0.13438 0.33266 0.26278 0.0
C1875 C 0.07271 0.3098 0.28333 0.0
H1876 H 0.0641 0.26695 0.20535 0.0
C1877 C 0.98422 0.23486 0.23565 0.0
C1878 C 0.9823 0.22741 0.19907 0.0
C1879 C 0.00485 0.25339 0.24842 0.0
C1880 C 0.0662 0.27914 0.22659 0.0
H1881 H 0.14226 0.34344 0.36799 0.0
H1882 H 0.10384 0.31939 0.34269 0.0
H1883 H 0.10203 0.29087 0.23119 0.0
H1884 H 0.99953 0.23436 0.14647 0.0
H1885 H 0.035 0.26738 0.168 0.0
H1886 H 0.03663 0.29765 0.27895 0.0
C1887 C 0.11831 0.32696 0.324 0.0
C1888 C 0.08802 0.29282 0.24156 0.0
C1889 C 0.14036 0.34067 0.33853 0.0
C1890 C 1.00046 0.24007 0.17464 0.0
C1891 C 0.02093 0.25869 0.18722 0.0
C1892 C 0.05079 0.29605 0.26828 0.0
C1893 C 0.11503 0.32286 0.2859 0.0
C1894 C 0.09161 0.30833 0.27015 0.0
C1895 C 0.02386 0.26473 0.22473 0.0
C1896 C 0.04725 0.28054 0.23966 0.0
H1897 H 0.17073 0.35415 0.25839 0.0
H1898 H 0.13252 0.3302 0.23325 0.0
H1899 H 0.0749 0.32176 0.30503 0.0
H1900 H 0.97068 0.22493 0.25523 0.0
H1901 H 0.00646 0.25748 0.27748 0.0
C1902 C 0.67149 0.81899 0.3037 0.0
C1903 C 0.64818 0.80361 0.3107 0.0
C1904 C 0.68604 0.81089 0.2921 0.0
C1905 C 0.68599 0.76204 0.24608 0.0
H1906 H 0.74601 0.78611 0.29059 0.0
C1907 C 0.77199 0.75096 0.24486 0.0
C1908 C 0.77712 0.75385 0.20713 0.0
C1909 C 0.75317 0.75216 0.25856 0.0
C1910 C 0.72919 0.77898 0.27818 0.0
H1911 H 0.62176 0.76771 0.30999 0.0
H1912 H 0.64707 0.75367 0.28964 0.0
H1913 H 0.72034 0.79946 0.31209 0.0
H1914 H 0.76604 0.75901 0.15391 0.0
H1915 H 0.73268 0.76025 0.17747 0.0
H1916 H 0.6951 0.7419 0.21162 0.0
C1917 C 0.65415 0.77195 0.29333 0.0
C1918 C 0.7146 0.78687 0.29019 0.0
C1919 C 0.63971 0.78 0.30536 0.0
C1920 C 0.762 0.75596 0.18297 0.0
C1921 C 0.74304 0.75693 0.19657 0.0
C1922 C 0.70072 0.75435 0.23373 0.0
C1923 C 0.67751 0.78727 0.28668 0.0
C1924 C 0.69287 0.77859 0.27418 0.0
C1925 C 0.73912 0.75625 0.23471 0.0
C1926 C 0.72252 0.76277 0.24958 0.0
H1927 H 0.67853 0.83726 0.30757 0.0
H1928 H 0.70392 0.82315 0.2869 0.0
H1929 H 0.6694 0.75542 0.23304 0.0
H1930 H 0.78379 0.75003 0.26415 0.0
H1931 H 0.75046 0.75133 0.28804 0.0
C1932 C 0.18457 0.8522 0.28559 0.0
C1933 C 0.19822 0.84633 0.30734 0.0
C1934 C 0.19343 0.87446 0.27171 0.0
C1935 C 0.23252 0.9341 0.28688 0.0
H1936 H 0.23494 0.94112 0.18079 0.0
C1937 C 0.25838 0.02216 0.22094 0.0
C1938 C 0.24402 0.02086 0.19188 0.0
C1939 C 0.25819 0.00223 0.23329 0.0
C1940 C 0.23424 0.93955 0.21048 0.0
H1941 H 0.23222 0.86008 0.33146 0.0
H1942 H 0.24693 0.89905 0.30896 0.0
H1943 H 0.22177 0.90335 0.20766 0.0
H1944 H 0.21963 0.99828 0.15125 0.0
H1945 H 0.21904 0.96405 0.17251 0.0
H1946 H 0.24349 0.96989 0.29003 0.0
C1947 C 0.22944 0.88614 0.30248 0.0
C1948 C 0.22677 0.91788 0.22578 0.0
C1949 C 0.22081 0.86375 0.31566 0.0
C1950 C 0.23096 0.99982 0.17366 0.0
C1951 C 0.23071 0.98009 0.18588 0.0
C1952 C 0.23951 0.95576 0.27159 0.0
C1953 C 0.21596 0.89158 0.27991 0.0
C1954 C 0.22545 0.91489 0.26407 0.0
C1955 C 0.24366 0.98074 0.21672 0.0
C1956 C 0.23996 0.9587 0.2331 0.0
H1957 H 0.16699 0.83963 0.27909 0.0
H1958 H 0.18263 0.87836 0.2546 0.0
H1959 H 0.23168 0.93217 0.31655 0.0
H1960 H 0.26842 0.03811 0.23574 0.0
H1961 H 0.26871 0.00352 0.25671 0.0
C1962 C 0.76675 0.02251 0.73411 0.0
C1963 C 0.77474 0.0227 0.69838 0.0
C1964 C 0.74768 0.00266 0.7479 0.0
C1965 C 0.69995 0.94433 0.72311 0.0
H1966 H 0.71584 0.9262 0.81483 0.0
C1967 C 0.65518 0.84966 0.76957 0.0
C1968 C 0.65068 0.8446 0.80728 0.0
C1969 C 0.66848 0.87235 0.75747 0.0
C1970 C 0.71084 0.93104 0.78955 0.0
H1971 H 0.76838 0.00313 0.64822 0.0
H1972 H 0.73477 0.9689 0.67156 0.0
H1973 H 0.73989 0.96497 0.79158 0.0
H1974 H 0.65735 0.85971 0.86185 0.0
H1975 H 0.67998 0.89921 0.84073 0.0
H1976 H 0.67106 0.91031 0.72079 0.0
C1977 C 0.743 0.9839 0.6891 0.0
C1978 C 0.72464 0.95337 0.77624 0.0
C1979 C 0.76217 0.00358 0.67557 0.0
C1980 C 0.6602 0.86289 0.83257 0.0
C1981 C 0.67341 0.8856 0.82045 0.0
C1982 C 0.68605 0.92203 0.73653 0.0
C1983 C 0.73625 0.98278 0.72602 0.0
C1984 C 0.71961 0.96018 0.74253 0.0
C1985 C 0.6776 0.89068 0.78269 0.0
C1986 C 0.69155 0.91492 0.7696 0.0
H1987 H 0.77651 0.03682 0.75253 0.0
H1988 H 0.74275 0.00241 0.77635 0.0
H1989 H 0.6955 0.94908 0.6972 0.0
H1990 H 0.64793 0.83614 0.74916 0.0
H1991 H 0.67165 0.87548 0.72824 0.0
C1992 C 0.99995 0.76496 0.68807 0.0
C1993 C 0.9812 0.75874 0.71157 0.0
C1994 C 0.01982 0.76562 0.70098 0.0
C1995 C 0.05211 0.77806 0.78659 0.0
H1996 H 0.09267 0.76496 0.72896 0.0
C1997 C 0.14264 0.80062 0.83832 0.0
C1998 C 0.16041 0.80851 0.81214 0.0
C1999 C 0.11984 0.79207 0.82735 0.0
C2000 C 0.08167 0.76896 0.74529 0.0
H2001 H 0.96804 0.74747 0.76653 0.0
H2002 H 0.00286 0.74845 0.78934 0.0
H2003 H 0.05371 0.75176 0.70742 0.0
H2004 H 0.16785 0.81369 0.75366 0.0
H2005 H 0.12841 0.79969 0.73474 0.0
H2006 H 0.08021 0.79595 0.82381 0.0
C2007 C 0.00213 0.7527 0.76079 0.0
C2008 C 0.05925 0.76122 0.73303 0.0
C2009 C 0.98207 0.75175 0.74763 0.0
C2010 C 0.15476 0.80808 0.77473 0.0
C2011 C 0.13199 0.79962 0.76378 0.0
C2012 C 0.07457 0.78592 0.79875 0.0
C2013 C 0.02155 0.7605 0.73796 0.0
C2014 C 0.04429 0.76596 0.75325 0.0
C2015 C 0.11415 0.79125 0.78988 0.0
C2016 C 0.0898 0.7818 0.77798 0.0
H2017 H 0.99987 0.77097 0.66041 0.0
H2018 H 0.03445 0.77191 0.68271 0.0
H2019 H 0.04121 0.78238 0.80254 0.0
H2020 H 0.14629 0.80089 0.86741 0.0
H2021 H 0.10663 0.78568 0.84828 0.0
C2022 C 0.24717 0.24307 0.65639 0.0
C2023 C 0.25046 0.22981 0.68285 0.0
C2024 C 0.24582 0.26235 0.66696 0.0
C2025 C 0.25096 0.29999 0.74656 0.0
H2026 H 0.19719 0.2971 0.70208 0.0
C2027 C 0.20373 0.34292 0.81296 0.0
C2028 C 0.19579 0.35414 0.78958 0.0
C2029 C 0.21242 0.32953 0.79845 0.0
C2030 C 0.21244 0.29842 0.71448 0.0
H2031 H 0.25623 0.22687 0.74061 0.0
H2032 H 0.2541 0.26058 0.75926 0.0
H2033 H 0.21166 0.273 0.6784 0.0
H2034 H 0.19074 0.3599 0.73245 0.0
H2035 H 0.20566 0.33641 0.70719 0.0
H2036 H 0.25129 0.3251 0.78325 0.0
C2037 C 0.25294 0.25649 0.73023 0.0
C2038 C 0.22085 0.28465 0.70076 0.0
C2039 C 0.25442 0.23727 0.71955 0.0
C2040 C 0.19631 0.3512 0.75132 0.0
C2041 C 0.20499 0.3378 0.73681 0.0
C2042 C 0.2425 0.31378 0.76033 0.0
C2043 C 0.24736 0.26851 0.70433 0.0
C2044 C 0.24011 0.28507 0.71679 0.0
C2045 C 0.21338 0.32697 0.76017 0.0
C2046 C 0.22297 0.31299 0.74471 0.0
H2047 H 0.24349 0.2373 0.62807 0.0
H2048 H 0.242 0.27148 0.64616 0.0
H2049 H 0.26591 0.30092 0.7594 0.0
H2050 H 0.20332 0.34455 0.84257 0.0
H2051 H 0.21827 0.32106 0.81729 0.0
C2052 C 0.67242 0.56767 0.51516 0.0
C2053 C 0.65166 0.5572 0.53473 0.0
C2054 C 0.69175 0.58682 0.52945 0.0
C2055 C 0.71761 0.61002 0.6182 0.0
H2056 H 0.7634 0.66052 0.56015 0.0
C2057 C 0.8058 0.67767 0.6787 0.0
C2058 C 0.82504 0.68584 0.65542 0.0
C2059 C 0.78361 0.66363 0.66497 0.0
C2060 C 0.75092 0.64641 0.57671 0.0
H2061 H 0.63445 0.55903 0.58381 0.0
H2062 H 0.6685 0.59266 0.60923 0.0
H2063 H 0.72586 0.63479 0.53356 0.0
H2064 H 0.83572 0.68524 0.59924 0.0
H2065 H 0.79736 0.66009 0.57583 0.0
H2066 H 0.74288 0.62097 0.66082 0.0
C2067 C 0.6697 0.58608 0.58263 0.0
C2068 C 0.72932 0.63178 0.56152 0.0
C2069 C 0.65016 0.56706 0.5679 0.0
C2070 C 0.82146 0.67909 0.61823 0.0
C2071 C 0.79932 0.66496 0.60457 0.0
C2072 C 0.73929 0.62455 0.63332 0.0
C2073 C 0.69087 0.5957 0.56403 0.0
C2074 C 0.71254 0.61318 0.58185 0.0
C2075 C 0.78004 0.65728 0.62759 0.0
C2076 C 0.7564 0.64269 0.61253 0.0
H2077 H 0.67407 0.56019 0.48973 0.0
H2078 H 0.70778 0.59366 0.51456 0.0
H2079 H 0.70518 0.59564 0.6344 0.0
H2080 H 0.80784 0.68226 0.70758 0.0
H2081 H 0.76923 0.65817 0.68355 0.0
C2082 C 0.30544 0.11276 0.62587 0.0
C2083 C 0.31086 0.13549 0.61807 0.0
C2084 C 0.31942 0.10426 0.61338 0.0
C2085 C 0.35651 0.10809 0.53991 0.0
H2086 H 0.38974 0.09129 0.60861 0.0
C2087 C 0.43743 0.10702 0.49808 0.0
C2088 C 0.44508 0.09413 0.51769 0.0
C2089 C 0.41705 0.10628 0.50751 0.0
C2090 C 0.38016 0.09526 0.58891 0.0
H2091 H 0.33578 0.16698 0.59086 0.0
H2092 H 0.35935 0.15159 0.56752 0.0
H2093 H 0.36245 0.10224 0.63171 0.0
H2094 H 0.43658 0.06902 0.56087 0.0
H2095 H 0.40015 0.06703 0.57693 0.0
H2096 H 0.37361 0.10082 0.49699 0.0
C2097 C 0.3443 0.1406 0.58379 0.0
C2098 C 0.36471 0.10177 0.60225 0.0
C2099 C 0.33065 0.14933 0.59702 0.0
C2100 C 0.43093 0.07894 0.54508 0.0
C2101 C 0.41029 0.07815 0.55462 0.0
C2102 C 0.37151 0.1011 0.5265 0.0
C2103 C 0.33882 0.11803 0.59195 0.0
C2104 C 0.35333 0.10891 0.57788 0.0
C2105 C 0.40355 0.09252 0.53684 0.0
C2106 C 0.38422 0.09539 0.55082 0.0
H2107 H 0.2901 0.10121 0.641 0.0
H2108 H 0.31478 0.08673 0.61975 0.0
H2109 H 0.34759 0.11316 0.52059 0.0
H2110 H 0.44809 0.11897 0.47691 0.0
H2111 H 0.41287 0.11788 0.49335 0.0
C2112 C 0.91306 0.33587 0.50583 0.0
C2113 C 0.91787 0.35476 0.52822 0.0
C2114 C 0.91256 0.31646 0.52073 0.0
C2115 C 0.89595 0.28521 0.60683 0.0
H2116 H 0.91448 0.24519 0.56029 0.0
C2117 C 0.85322 0.18788 0.6386 0.0
C2118 C 0.86803 0.17911 0.64431 0.0
C2119 C 0.8618 0.21042 0.62602 0.0
C2120 C 0.90931 0.25624 0.57374 0.0
H2121 H 0.92696 0.36869 0.58323 0.0
H2122 H 0.92616 0.33472 0.60947 0.0
H2123 H 0.92805 0.28372 0.53548 0.0
H2124 H 0.90337 0.18693 0.64045 0.0
H2125 H 0.91823 0.22609 0.61816 0.0
H2126 H 0.87664 0.25752 0.64438 0.0
C2127 C 0.92299 0.33502 0.58029 0.0
C2128 C 0.91704 0.27827 0.55949 0.0
C2129 C 0.92386 0.35461 0.56518 0.0
C2130 C 0.89154 0.19328 0.63679 0.0
C2131 C 0.90005 0.21564 0.62372 0.0
C2132 C 0.88795 0.26309 0.62072 0.0
C2133 C 0.91635 0.31537 0.55855 0.0
C2134 C 0.91034 0.29296 0.57575 0.0
C2135 C 0.8853 0.22451 0.61826 0.0
C2136 C 0.89438 0.24828 0.60418 0.0
H2137 H 0.90773 0.33534 0.47752 0.0
H2138 H 0.90722 0.30158 0.5033 0.0
H2139 H 0.89018 0.29597 0.61965 0.0
H2140 H 0.83504 0.17738 0.64416 0.0
H2141 H 0.84998 0.21671 0.62177 0.0
C2142 C 0.30699 0.195 0.1416 0.0
C2143 C 0.31669 0.18122 0.14982 0.0
C2144 C 0.32045 0.21709 0.12727 0.0
C2145 C 0.37937 0.26511 0.12158 0.0
H2146 H 0.35903 0.28248 0.03355 0.0
C2147 C 0.42626 0.33477 0.0026 0.0
C2148 C 0.43981 0.35438 0.02395 0.0
C2149 C 0.40739 0.31559 0.01812 0.0
C2150 C 0.3648 0.27794 0.05833 0.0
H2151 H 0.34819 0.17994 0.14974 0.0
H2152 H 0.37194 0.2189 0.12535 0.0
H2153 H 0.33476 0.24455 0.06105 0.0
H2154 H 0.44364 0.36985 0.07755 0.0
H2155 H 0.4106 0.3363 0.10484 0.0
H2156 H 0.40951 0.29832 0.11869 0.0
C2157 C 0.35383 0.21246 0.12994 0.0
C2158 C 0.35093 0.25627 0.0741 0.0
C2159 C 0.34026 0.19016 0.14372 0.0
C2160 C 0.43307 0.35519 0.06021 0.0
C2161 C 0.41443 0.33584 0.07599 0.0
C2162 C 0.39305 0.28689 0.1062 0.0
C2163 C 0.34402 0.22609 0.12129 0.0
C2164 C 0.35824 0.2495 0.10557 0.0
C2165 C 0.40207 0.31549 0.05556 0.0
C2166 C 0.38608 0.29345 0.07412 0.0
H2167 H 0.28881 0.18848 0.1455 0.0
H2168 H 0.31244 0.22721 0.12102 0.0
H2169 H 0.38537 0.26044 0.14597 0.0
H2170 H 0.43152 0.3335 0.97492 0.0
H2171 H 0.39832 0.30014 0.00173 0.0
C2172 C 0.81136 0.11492 0.13624 0.0
C2173 C 0.82582 0.13823 0.14489 0.0
C2174 C 0.78921 0.10711 0.12276 0.0
C2175 C 0.74257 0.12023 0.12041 0.0
H2176 H 0.72271 0.08256 0.03236 0.0
C2177 C 0.67125 0.09869 0.0042 0.0
C2178 C 0.65187 0.09262 0.02611 0.0
C2179 C 0.6906 0.09909 0.01909 0.0
C2180 C 0.72796 0.09289 0.05714 0.0
H2181 H 0.8283 0.17156 0.14641 0.0
H2182 H 0.78931 0.1578 0.12335 0.0
H2183 H 0.7608 0.09497 0.05805 0.0
H2184 H 0.63708 0.08148 0.08025 0.0
H2185 H 0.67103 0.08225 0.10656 0.0
H2186 H 0.70988 0.11841 0.11929 0.0
C2187 C 0.79522 0.14562 0.127 0.0
C2188 C 0.74972 0.09996 0.07188 0.0
C2189 C 0.81755 0.15353 0.13997 0.0
C2190 C 0.65159 0.08558 0.06256 0.0
C2191 C 0.67113 0.08638 0.07771 0.0
C2192 C 0.72068 0.11286 0.10602 0.0
C2193 C 0.78087 0.12234 0.11804 0.0
C2194 C 0.75738 0.11399 0.10336 0.0
C2195 C 0.69113 0.09398 0.05647 0.0
C2196 C 0.71325 0.09936 0.07395 0.0
H2197 H 0.81733 0.10276 0.13929 0.0
H2198 H 0.77853 0.08907 0.11625 0.0
H2199 H 0.74794 0.13087 0.14485 0.0
H2200 H 0.67206 0.10479 0.97632 0.0
H2201 H 0.70578 0.1052 0.00212 0.0
C2202 C 0.92102 0.56977 0.05899 0.0
C2203 C 0.9121 0.56034 0.02432 0.0
C2204 C 0.91992 0.58888 0.07164 0.0
C2205 C 0.89326 0.61217 0.09868 0.0
H2206 H 0.90616 0.66597 0.04143 0.0
C2207 C 0.85191 0.66817 0.12915 0.0
C2208 C 0.86702 0.69197 0.13029 0.0
C2209 C 0.8595 0.65339 0.11663 0.0
C2210 C 0.90256 0.65108 0.0578 0.0
H2211 H 0.89632 0.56403 0.97488 0.0
H2212 H 0.89536 0.59796 0.99614 0.0
H2213 H 0.9185 0.6396 0.01859 0.0
H2214 H 0.90166 0.719 0.11816 0.0
H2215 H 0.91474 0.69324 0.09576 0.0
H2216 H 0.8767 0.62324 0.13733 0.0
C2217 C 0.9031 0.59067 0.01368 0.0
C2218 C 0.9096 0.63601 0.04472 0.0
C2219 C 0.90377 0.57134 0.00139 0.0
C2220 C 0.88969 0.7007 0.11795 0.0
C2221 C 0.89714 0.68599 0.1049 0.0
C2222 C 0.8859 0.62703 0.11146 0.0
C2223 C 0.91022 0.59902 0.04954 0.0
C2224 C 0.90494 0.61633 0.06495 0.0
C2225 C 0.8822 0.66217 0.10436 0.0
C2226 C 0.89034 0.64657 0.09106 0.0
H2227 H 0.92697 0.56121 0.07749 0.0
H2228 H 0.92562 0.59505 0.09934 0.0
H2229 H 0.88912 0.59697 0.11461 0.0
H2230 H 0.83438 0.66099 0.13855 0.0
H2231 H 0.84754 0.63509 0.11621 0.0
loop_
_geom_bond_atom_site_label_1
_geom_bond_atom_site_label_2
_geom_bond_distance
_geom_bond_site_symmetry_2
_ccdc_geom_bond_type
C0 O16 1.251 . S
C0 O18 1.254 . S
N1 C2 1.333 . S
N1 C6 1.307 1_554 S
N1 Zn7 2.020 . S
C2 N1 1.333 . S
C2 C3 1.379 . S
C2 H20 0.952 . S
C3 C2 1.379 . S
C3 C4 1.390 . S
C3 H30 0.949 . S
C4 C3 1.390 . S
C4 C5 1.357 1_554 S
C5 C4 1.357 1_556 S
C5 C6 1.370 . S
C5 H31 0.950 . S
C6 N1 1.307 1_556 S
C6 C5 1.370 . S
C6 H24 0.948 . S
Zn7 N1 2.020 . S
Zn7 O16 2.039 . S
Zn7 O22 2.034 . S
Zn7 O26 2.025 1_554 S
Zn7 O28 2.024 . S
C8 O27 1.246 . S
C8 O28 1.249 . S
N9 C10 1.307 . S
N9 C11 1.333 1_554 S
N9 Zn15 2.020 . S
C10 N9 1.307 . S
C10 C14 1.370 . S
C10 H21 0.948 . S
C11 N9 1.333 1_556 S
C11 C12 1.379 . S
C11 H19 0.952 . S
C12 C11 1.379 . S
C12 C13 1.390 . S
C12 H32 0.949 . S
C13 C12 1.390 . S
C13 C14 1.357 1_556 S
C14 C10 1.370 . S
C14 C13 1.357 1_554 S
C14 H33 0.950 . S
Zn15 N9 2.020 . S
Zn15 O18 2.025 . S
Zn15 O23 2.024 . S
Zn15 O25 2.039 1_554 S
Zn15 O27 2.034 . S
O16 C0 1.251 . S
O16 Zn7 2.039 . S
C17 O22 1.246 . S
C17 O23 1.249 . S
O18 C0 1.254 . S
O18 Zn15 2.025 . S
H19 C11 0.952 . S
H20 C2 0.952 . S
H21 C10 0.948 . S
O22 Zn7 2.034 . S
O22 C17 1.246 . S
O23 Zn15 2.024 . S
O23 C17 1.249 . S
H24 C6 0.948 . S
O25 Zn15 2.039 1_556 S
O25 C29 1.251 . S
O26 Zn7 2.025 1_556 S
O26 C29 1.254 . S
O27 C8 1.246 . S
O27 Zn15 2.034 . S
O28 Zn7 2.024 . S
O28 C8 1.249 . S
C29 O25 1.251 . S
C29 O26 1.254 . S
H30 C3 0.949 . S
H31 C5 0.950 . S
H32 C12 0.949 . S
H33 C14 0.950 . S
C34 O50 1.251 . S
C34 O52 1.254 . S
N35 C36 1.333 . S
N35 C40 1.307 1_554 S
N35 Zn41 2.020 . S
C36 N35 1.333 . S
C36 C37 1.379 . S
C36 H54 0.952 . S
C37 C36 1.379 . S
C37 C38 1.390 . S
C37 H64 0.949 . S
C38 C37 1.390 . S
C38 C39 1.357 1_554 S
C39 C38 1.357 1_556 S
C39 C40 1.370 . S
C39 H65 0.950 . S
C40 N35 1.307 1_556 S
C40 C39 1.370 . S
C40 H58 0.948 . S
Zn41 N35 2.020 . S
Zn41 O50 2.039 . S
Zn41 O56 2.034 . S
Zn41 O60 2.025 1_554 S
Zn41 O62 2.024 . S
C42 O61 1.246 . S
C42 O62 1.249 . S
N43 C44 1.307 . S
N43 C45 1.333 1_554 S
N43 Zn49 2.020 . S
C44 N43 1.307 . S
C44 C48 1.370 . S
C44 H55 0.948 . S
C45 N43 1.333 1_556 S
C45 C46 1.379 . S
C45 H53 0.952 . S
C46 C45 1.379 . S
C46 C47 1.390 . S
C46 H66 0.949 . S
C47 C46 1.390 . S
C47 C48 1.357 1_556 S
C48 C44 1.370 . S
C48 C47 1.357 1_554 S
C48 H67 0.950 . S
Zn49 N43 2.020 . S
Zn49 O52 2.025 . S
Zn49 O57 2.024 . S
Zn49 O59 2.039 1_554 S
Zn49 O61 2.034 . S
O50 C34 1.251 . S
O50 Zn41 2.039 . S
C51 O56 1.246 . S
C51 O57 1.249 . S
O52 C34 1.254 . S
O52 Zn49 2.025 . S
H53 C45 0.952 . S
H54 C36 0.952 . S
H55 C44 0.948 . S
O56 Zn41 2.034 . S
O56 C51 1.246 . S
O57 Zn49 2.024 . S
O57 C51 1.249 . S
H58 C40 0.948 . S
O59 Zn49 2.039 1_556 S
O59 C63 1.251 . S
O60 Zn41 2.025 1_556 S
O60 C63 1.254 . S
O61 C42 1.246 . S
O61 Zn49 2.034 . S
O62 Zn41 2.024 . S
O62 C42 1.249 . S
C63 O59 1.251 . S
C63 O60 1.254 . S
H64 C37 0.949 . S
H65 C39 0.950 . S
H66 C46 0.949 . S
H67 C48 0.950 . S
C68 O84 1.251 . S
C68 O86 1.254 . S
N69 C70 1.333 . S
N69 C74 1.307 1_554 S
N69 Zn75 2.020 . S
C70 N69 1.333 . S
C70 C71 1.379 . S
C70 H88 0.952 . S
C71 C70 1.379 . S
C71 C72 1.390 . S
C71 H98 0.949 . S
C72 C71 1.390 . S
C72 C73 1.357 1_554 S
C73 C72 1.357 1_556 S
C73 C74 1.370 . S
C73 H99 0.950 . S
C74 N69 1.307 1_556 S
C74 C73 1.370 . S
C74 H92 0.948 . S
Zn75 N69 2.020 . S
Zn75 O84 2.039 . S
Zn75 O90 2.034 . S
Zn75 O94 2.025 1_554 S
Zn75 O96 2.024 . S
C76 O95 1.246 . S
C76 O96 1.249 . S
N77 C78 1.307 . S
N77 C79 1.333 1_554 S
N77 Zn83 2.020 . S
C78 N77 1.307 . S
C78 C82 1.370 . S
C78 H89 0.948 . S
C79 N77 1.333 1_556 S
C79 C80 1.379 . S
C79 H87 0.952 . S
C80 C79 1.379 . S
C80 C81 1.390 . S
C80 H100 0.949 . S
C81 C80 1.390 . S
C81 C82 1.357 1_556 S
C82 C78 1.370 . S
C82 C81 1.357 1_554 S
C82 H101 0.950 . S
Zn83 N77 2.020 . S
Zn83 O86 2.025 . S
Zn83 O91 2.024 . S
Zn83 O93 2.039 1_554 S
Zn83 O95 2.034 . S
O84 C68 1.251 . S
O84 Zn75 2.039 . S
C85 O90 1.246 . S
C85 O91 1.249 . S
O86 C68 1.254 . S
O86 Zn83 2.025 . S
H87 C79 0.952 . S
H88 C70 0.952 . S
H89 C78 0.948 . S
O90 Zn75 2.034 . S
O90 C85 1.246 . S
O91 Zn83 2.024 . S
O91 C85 1.249 . S
H92 C74 0.948 . S
O93 Zn83 2.039 1_556 S
O93 C97 1.251 . S
O94 Zn75 2.025 1_556 S
O94 C97 1.254 . S
O95 C76 1.246 . S
O95 Zn83 2.034 . S
O96 Zn75 2.024 . S
O96 C76 1.249 . S
C97 O93 1.251 . S
C97 O94 1.254 . S
H98 C71 0.949 . S
H99 C73 0.950 . S
H100 C80 0.949 . S
H101 C82 0.950 . S
C102 O118 1.251 . S
C102 O120 1.254 . S
N103 C104 1.333 . S
N103 C108 1.307 . S
N103 Zn109 2.020 . S
C104 N103 1.333 . S
C104 C105 1.379 . S
C104 H122 0.952 . S
C105 C104 1.379 . S
C105 C106 1.390 . S
C105 H132 0.949 . S
C106 C105 1.390 . S
C106 C107 1.357 . S
C107 C106 1.357 . S
C107 C108 1.370 . S
C107 H133 0.950 . S
C108 N103 1.307 . S
C108 C107 1.370 . S
C108 H126 0.948 . S
Zn109 N103 2.020 . S
Zn109 O118 2.039 . S
Zn109 O124 2.034 . S
Zn109 O128 2.025 . S
Zn109 O130 2.024 . S
C110 O129 1.246 . S
C110 O130 1.249 . S
N111 C112 1.307 . S
N111 C113 1.333 . S
N111 Zn117 2.020 . S
C112 N111 1.307 . S
C112 C116 1.370 . S
C112 H123 0.948 . S
C113 N111 1.333 . S
C113 C114 1.379 . S
C113 H121 0.952 . S
C114 C113 1.379 . S
C114 C115 1.390 . S
C114 H134 0.949 . S
C115 C114 1.390 . S
C115 C116 1.357 . S
C116 C112 1.370 . S
C116 C115 1.357 . S
C116 H135 0.950 . S
Zn117 N111 2.020 . S
Zn117 O120 2.025 . S
Zn117 O125 2.024 . S
Zn117 O127 2.039 . S
Zn117 O129 2.034 . S
O118 C102 1.251 . S
O118 Zn109 2.039 . S
C119 O124 1.246 . S
C119 O125 1.249 . S
O120 C102 1.254 . S
O120 Zn117 2.025 . S
H121 C113 0.952 . S
H122 C104 0.952 . S
H123 C112 0.948 . S
O124 Zn109 2.034 . S
O124 C119 1.246 . S
O125 Zn117 2.024 . S
O125 C119 1.249 . S
H126 C108 0.948 . S
O127 Zn117 2.039 . S
O127 C131 1.251 . S
O128 Zn109 2.025 . S
O128 C131 1.254 . S
O129 C110 1.246 . S
O129 Zn117 2.034 . S
O130 Zn109 2.024 . S
O130 C110 1.249 . S
C131 O127 1.251 . S
C131 O128 1.254 . S
H132 C105 0.949 . S
H133 C107 0.950 . S
H134 C114 0.949 . S
H135 C116 0.950 . S
C136 O152 1.251 . S
C136 O154 1.254 . S
N137 C138 1.333 . S
N137 C142 1.307 . S
N137 Zn143 2.020 . S
C138 N137 1.333 . S
C138 C139 1.379 . S
C138 H156 0.952 . S
C139 C138 1.379 . S
C139 C140 1.390 . S
C139 H166 0.949 . S
C140 C139 1.390 . S
C140 C141 1.357 . S
C141 C140 1.357 . S
C141 C142 1.370 . S
C141 H167 0.950 . S
C142 N137 1.307 . S
C142 C141 1.370 . S
C142 H160 0.948 . S
Zn143 N137 2.020 . S
Zn143 O152 2.039 . S
Zn143 O158 2.034 . S
Zn143 O162 2.025 . S
Zn143 O164 2.024 . S
C144 O163 1.246 . S
C144 O164 1.249 . S
N145 C146 1.307 . S
N145 C147 1.333 . S
N145 Zn151 2.020 . S
C146 N145 1.307 . S
C146 C150 1.370 . S
C146 H157 0.948 . S
C147 N145 1.333 . S
C147 C148 1.379 . S
C147 H155 0.952 . S
C148 C147 1.379 . S
C148 C149 1.390 . S
C148 H168 0.949 . S
C149 C148 1.390 . S
C149 C150 1.357 . S
C150 C146 1.370 . S
C150 C149 1.357 . S
C150 H169 0.950 . S
Zn151 N145 2.020 . S
Zn151 O154 2.025 . S
Zn151 O159 2.024 . S
Zn151 O161 2.039 . S
Zn151 O163 2.034 . S
O152 C136 1.251 . S
O152 Zn143 2.039 . S
C153 O158 1.246 . S
C153 O159 1.249 . S
O154 C136 1.254 . S
O154 Zn151 2.025 . S
H155 C147 0.952 . S
H156 C138 0.952 . S
H157 C146 0.948 . S
O158 Zn143 2.034 . S
O158 C153 1.246 . S
O159 Zn151 2.024 . S
O159 C153 1.249 . S
H160 C142 0.948 . S
O161 Zn151 2.039 . S
O161 C165 1.251 . S
O162 Zn143 2.025 . S
O162 C165 1.254 . S
O163 C144 1.246 . S
O163 Zn151 2.034 . S
O164 Zn143 2.024 . S
O164 C144 1.249 . S
C165 O161 1.251 . S
C165 O162 1.254 . S
H166 C139 0.949 . S
H167 C141 0.950 . S
H168 C148 0.949 . S
H169 C150 0.950 . S
C170 O186 1.251 . S
C170 O188 1.254 . S
N171 C172 1.333 . S
N171 C176 1.307 . S
N171 Zn177 2.020 . S
C172 N171 1.333 . S
C172 C173 1.379 . S
C172 H190 0.952 . S
C173 C172 1.379 . S
C173 C174 1.390 . S
C173 H200 0.949 . S
C174 C173 1.390 . S
C174 C175 1.357 . S
C175 C174 1.357 . S
C175 C176 1.370 . S
C175 H201 0.950 . S
C176 N171 1.307 . S
C176 C175 1.370 . S
C176 H194 0.948 . S
Zn177 N171 2.020 . S
Zn177 O186 2.039 . S
Zn177 O192 2.034 . S
Zn177 O196 2.025 . S
Zn177 O198 2.024 . S
C178 O197 1.246 . S
C178 O198 1.249 . S
N179 C180 1.307 . S
N179 C181 1.333 . S
N179 Zn185 2.020 . S
C180 N179 1.307 . S
C180 C184 1.370 . S
C180 H191 0.948 . S
C181 N179 1.333 . S
C181 C182 1.379 . S
C181 H189 0.952 . S
C182 C181 1.379 . S
C182 C183 1.390 . S
C182 H202 0.949 . S
C183 C182 1.390 . S
C183 C184 1.357 . S
C184 C180 1.370 . S
C184 C183 1.357 . S
C184 H203 0.950 . S
Zn185 N179 2.020 . S
Zn185 O188 2.025 . S
Zn185 O193 2.024 . S
Zn185 O195 2.039 . S
Zn185 O197 2.034 . S
O186 C170 1.251 . S
O186 Zn177 2.039 . S
C187 O192 1.246 . S
C187 O193 1.249 . S
O188 C170 1.254 . S
O188 Zn185 2.025 . S
H189 C181 0.952 . S
H190 C172 0.952 . S
H191 C180 0.948 . S
O192 Zn177 2.034 . S
O192 C187 1.246 . S
O193 Zn185 2.024 . S
O193 C187 1.249 . S
H194 C176 0.948 . S
O195 Zn185 2.039 . S
O195 C199 1.251 . S
O196 Zn177 2.025 . S
O196 C199 1.254 . S
O197 C178 1.246 . S
O197 Zn185 2.034 . S
O198 Zn177 2.024 . S
O198 C178 1.249 . S
C199 O195 1.251 . S
C199 O196 1.254 . S
H200 C173 0.949 . S
H201 C175 0.950 . S
H202 C182 0.949 . S
H203 C184 0.950 . S
C204 O220 1.251 . S
C204 O222 1.254 . S
N205 C206 1.333 . S
N205 C210 1.307 . S
N205 Zn211 2.020 . S
C206 N205 1.333 . S
C206 C207 1.379 . S
C206 H224 0.952 . S
C207 C206 1.379 . S
C207 C208 1.390 . S
C207 H234 0.949 . S
C208 C207 1.390 . S
C208 C209 1.357 . S
C209 C208 1.357 . S
C209 C210 1.370 . S
C209 H235 0.950 . S
C210 N205 1.307 . S
C210 C209 1.370 . S
C210 H228 0.948 . S
Zn211 N205 2.020 . S
Zn211 O220 2.039 . S
Zn211 O226 2.034 . S
Zn211 O230 2.025 . S
Zn211 O232 2.024 . S
C212 O231 1.246 . S
C212 O232 1.249 . S
N213 C214 1.307 . S
N213 C215 1.333 . S
N213 Zn219 2.020 . S
C214 N213 1.307 . S
C214 C218 1.370 . S
C214 H225 0.948 . S
C215 N213 1.333 . S
C215 C216 1.379 . S
C215 H223 0.952 . S
C216 C215 1.379 . S
C216 C217 1.390 . S
C216 H236 0.949 . S
C217 C216 1.390 . S
C217 C218 1.357 . S
C218 C214 1.370 . S
C218 C217 1.357 . S
C218 H237 0.950 . S
Zn219 N213 2.020 . S
Zn219 O222 2.025 . S
Zn219 O227 2.024 . S
Zn219 O229 2.039 . S
Zn219 O231 2.034 . S
O220 C204 1.251 . S
O220 Zn211 2.039 . S
C221 O226 1.246 . S
C221 O227 1.249 . S
O222 C204 1.254 . S
O222 Zn219 2.025 . S
H223 C215 0.952 . S
H224 C206 0.952 . S
H225 C214 0.948 . S
O226 Zn211 2.034 . S
O226 C221 1.246 . S
O227 Zn219 2.024 . S
O227 C221 1.249 . S
H228 C210 0.948 . S
O229 Zn219 2.039 . S
O229 C233 1.251 . S
O230 Zn211 2.025 . S
O230 C233 1.254 . S
O231 C212 1.246 . S
O231 Zn219 2.034 . S
O232 Zn211 2.024 . S
O232 C212 1.249 . S
C233 O229 1.251 . S
C233 O230 1.254 . S
H234 C207 0.949 . S
H235 C209 0.950 . S
H236 C216 0.949 . S
H237 C218 0.950 . S
C238 O254 1.251 . S
C238 O256 1.254 . S
N239 C240 1.333 . S
N239 C244 1.307 . S
N239 Zn245 2.020 . S
C240 N239 1.333 . S
C240 C241 1.379 . S
C240 H258 0.952 . S
C241 C240 1.379 . S
C241 C242 1.390 . S
C241 H268 0.949 . S
C242 C241 1.390 . S
C242 C243 1.357 . S
C243 C242 1.357 . S
C243 C244 1.370 . S
C243 H269 0.950 . S
C244 N239 1.307 . S
C244 C243 1.370 . S
C244 H262 0.948 . S
Zn245 N239 2.020 . S
Zn245 O254 2.039 . S
Zn245 O260 2.034 . S
Zn245 O264 2.025 . S
Zn245 O266 2.024 . S
C246 O265 1.246 . S
C246 O266 1.249 . S
N247 C248 1.307 . S
N247 C249 1.333 . S
N247 Zn253 2.020 . S
C248 N247 1.307 . S
C248 C252 1.370 . S
C248 H259 0.948 . S
C249 N247 1.333 . S
C249 C250 1.379 . S
C249 H257 0.952 . S
C250 C249 1.379 . S
C250 C251 1.390 . S
C250 H270 0.949 . S
C251 C250 1.390 . S
C251 C252 1.357 . S
C252 C248 1.370 . S
C252 C251 1.357 . S
C252 H271 0.950 . S
Zn253 N247 2.020 . S
Zn253 O256 2.025 . S
Zn253 O261 2.024 . S
Zn253 O263 2.039 . S
Zn253 O265 2.034 . S
O254 C238 1.251 . S
O254 Zn245 2.039 . S
C255 O260 1.246 . S
C255 O261 1.249 . S
O256 C238 1.254 . S
O256 Zn253 2.025 . S
H257 C249 0.952 . S
H258 C240 0.952 . S
H259 C248 0.948 . S
O260 Zn245 2.034 . S
O260 C255 1.246 . S
O261 Zn253 2.024 . S
O261 C255 1.249 . S
H262 C244 0.948 . S
O263 Zn253 2.039 . S
O263 C267 1.251 . S
O264 Zn245 2.025 . S
O264 C267 1.254 . S
O265 C246 1.246 . S
O265 Zn253 2.034 . S
O266 Zn245 2.024 . S
O266 C246 1.249 . S
C267 O263 1.251 . S
C267 O264 1.254 . S
H268 C241 0.949 . S
H269 C243 0.950 . S
H270 C250 0.949 . S
H271 C252 0.950 . S
C272 O288 1.251 . S
C272 O290 1.254 . S
N273 C274 1.333 . S
N273 C278 1.307 . S
N273 Zn279 2.020 . S
C274 N273 1.333 . S
C274 C275 1.379 . S
C274 H292 0.952 . S
C275 C274 1.379 . S
C275 C276 1.390 . S
C275 H302 0.949 . S
C276 C275 1.390 . S
C276 C277 1.357 . S
C277 C276 1.357 . S
C277 C278 1.370 . S
C277 H303 0.950 . S
C278 N273 1.307 . S
C278 C277 1.370 . S
C278 H296 0.948 . S
Zn279 N273 2.020 . S
Zn279 O288 2.039 . S
Zn279 O294 2.034 . S
Zn279 O298 2.025 . S
Zn279 O300 2.024 . S
C280 O299 1.246 . S
C280 O300 1.249 . S
N281 C282 1.307 . S
N281 C283 1.333 . S
N281 Zn287 2.020 . S
C282 N281 1.307 . S
C282 C286 1.370 . S
C282 H293 0.948 . S
C283 N281 1.333 . S
C283 C284 1.379 . S
C283 H291 0.952 . S
C284 C283 1.379 . S
C284 C285 1.390 . S
C284 H304 0.949 . S
C285 C284 1.390 . S
C285 C286 1.357 . S
C286 C282 1.370 . S
C286 C285 1.357 . S
C286 H305 0.950 . S
Zn287 N281 2.020 . S
Zn287 O290 2.025 . S
Zn287 O295 2.024 . S
Zn287 O297 2.039 . S
Zn287 O299 2.034 . S
O288 C272 1.251 . S
O288 Zn279 2.039 . S
C289 O294 1.246 . S
C289 O295 1.249 . S
O290 C272 1.254 . S
O290 Zn287 2.025 . S
H291 C283 0.952 . S
H292 C274 0.952 . S
H293 C282 0.948 . S
O294 Zn279 2.034 . S
O294 C289 1.246 . S
O295 Zn287 2.024 . S
O295 C289 1.249 . S
H296 C278 0.948 . S
O297 Zn287 2.039 . S
O297 C301 1.251 . S
O298 Zn279 2.025 . S
O298 C301 1.254 . S
O299 C280 1.246 . S
O299 Zn287 2.034 . S
O300 Zn279 2.024 . S
O300 C280 1.249 . S
C301 O297 1.251 . S
C301 O298 1.254 . S
H302 C275 0.949 . S
H303 C277 0.950 . S
H304 C284 0.949 . S
H305 C286 0.950 . S
C306 O322 1.251 . S
C306 O324 1.254 . S
N307 C308 1.333 . S
N307 C312 1.307 . S
N307 Zn313 2.020 . S
C308 N307 1.333 . S
C308 C309 1.379 . S
C308 H326 0.952 . S
C309 C308 1.379 . S
C309 C310 1.390 . S
C309 H336 0.949 . S
C310 C309 1.390 . S
C310 C311 1.357 . S
C311 C310 1.357 . S
C311 C312 1.370 . S
C311 H337 0.950 . S
C312 N307 1.307 . S
C312 C311 1.370 . S
C312 H330 0.948 . S
Zn313 N307 2.020 . S
Zn313 O322 2.039 . S
Zn313 O328 2.034 . S
Zn313 O332 2.025 . S
Zn313 O334 2.024 . S
C314 O333 1.246 . S
C314 O334 1.249 . S
N315 C316 1.307 . S
N315 C317 1.333 . S
N315 Zn321 2.020 . S
C316 N315 1.307 . S
C316 C320 1.370 . S
C316 H327 0.948 . S
C317 N315 1.333 . S
C317 C318 1.379 . S
C317 H325 0.952 . S
C318 C317 1.379 . S
C318 C319 1.390 . S
C318 H338 0.949 . S
C319 C318 1.390 . S
C319 C320 1.357 . S
C320 C316 1.370 . S
C320 C319 1.357 . S
C320 H339 0.950 . S
Zn321 N315 2.020 . S
Zn321 O324 2.025 . S
Zn321 O329 2.024 . S
Zn321 O331 2.039 . S
Zn321 O333 2.034 . S
O322 C306 1.251 . S
O322 Zn313 2.039 . S
C323 O328 1.246 . S
C323 O329 1.249 . S
O324 C306 1.254 . S
O324 Zn321 2.025 . S
H325 C317 0.952 . S
H326 C308 0.952 . S
H327 C316 0.948 . S
O328 Zn313 2.034 . S
O328 C323 1.246 . S
O329 Zn321 2.024 . S
O329 C323 1.249 . S
H330 C312 0.948 . S
O331 Zn321 2.039 . S
O331 C335 1.251 . S
O332 Zn313 2.025 . S
O332 C335 1.254 . S
O333 C314 1.246 . S
O333 Zn321 2.034 . S
O334 Zn313 2.024 . S
O334 C314 1.249 . S
C335 O331 1.251 . S
C335 O332 1.254 . S
H336 C309 0.949 . S
H337 C311 0.950 . S
H338 C318 0.949 . S
H339 C320 0.950 . S
C340 O356 1.251 . S
C340 O358 1.254 . S
N341 C342 1.333 . S
N341 C346 1.307 . S
N341 Zn347 2.020 . S
C342 N341 1.333 . S
C342 C343 1.379 . S
C342 H360 0.952 . S
C343 C342 1.379 . S
C343 C344 1.390 . S
C343 H370 0.949 . S
C344 C343 1.390 . S
C344 C345 1.357 . S
C345 C344 1.357 . S
C345 C346 1.370 . S
C345 H371 0.950 . S
C346 N341 1.307 . S
C346 C345 1.370 . S
C346 H364 0.948 . S
Zn347 N341 2.020 . S
Zn347 O356 2.039 . S
Zn347 O362 2.034 . S
Zn347 O366 2.025 . S
Zn347 O368 2.024 . S
C348 O367 1.246 . S
C348 O368 1.249 . S
N349 C350 1.307 . S
N349 C351 1.333 . S
N349 Zn355 2.020 . S
C350 N349 1.307 . S
C350 C354 1.370 . S
C350 H361 0.948 . S
C351 N349 1.333 . S
C351 C352 1.379 . S
C351 H359 0.952 . S
C352 C351 1.379 . S
C352 C353 1.390 . S
C352 H372 0.949 . S
C353 C352 1.390 . S
C353 C354 1.357 . S
C354 C350 1.370 . S
C354 C353 1.357 . S
C354 H373 0.950 . S
Zn355 N349 2.020 . S
Zn355 O358 2.025 . S
Zn355 O363 2.024 . S
Zn355 O365 2.039 . S
Zn355 O367 2.034 . S
O356 C340 1.251 . S
O356 Zn347 2.039 . S
C357 O362 1.246 . S
C357 O363 1.249 . S
O358 C340 1.254 . S
O358 Zn355 2.025 . S
H359 C351 0.952 . S
H360 C342 0.952 . S
H361 C350 0.948 . S
O362 Zn347 2.034 . S
O362 C357 1.246 . S
O363 Zn355 2.024 . S
O363 C357 1.249 . S
H364 C346 0.948 . S
O365 Zn355 2.039 . S
O365 C369 1.251 . S
O366 Zn347 2.025 . S
O366 C369 1.254 . S
O367 C348 1.246 . S
O367 Zn355 2.034 . S
O368 Zn347 2.024 . S
O368 C348 1.249 . S
C369 O365 1.251 . S
C369 O366 1.254 . S
H370 C343 0.949 . S
H371 C345 0.950 . S
H372 C352 0.949 . S
H373 C354 0.950 . S
C374 O390 1.251 . S
C374 O392 1.254 . S
N375 C376 1.333 . S
N375 C380 1.307 . S
N375 Zn381 2.020 . S
C376 N375 1.333 . S
C376 C377 1.379 . S
C376 H394 0.952 . S
C377 C376 1.379 . S
C377 C378 1.390 . S
C377 H404 0.949 . S
C378 C377 1.390 . S
C378 C379 1.357 . S
C379 C378 1.357 . S
C379 C380 1.370 . S
C379 H405 0.950 . S
C380 N375 1.307 . S
C380 C379 1.370 . S
C380 H398 0.948 . S
Zn381 N375 2.020 . S
Zn381 O390 2.039 . S
Zn381 O396 2.034 . S
Zn381 O400 2.025 . S
Zn381 O402 2.024 . S
C382 O401 1.246 . S
C382 O402 1.249 . S
N383 C384 1.307 . S
N383 C385 1.333 . S
N383 Zn389 2.020 . S
C384 N383 1.307 . S
C384 C388 1.370 . S
C384 H395 0.948 . S
C385 N383 1.333 . S
C385 C386 1.379 . S
C385 H393 0.952 . S
C386 C385 1.379 . S
C386 C387 1.390 . S
C386 H406 0.949 . S
C387 C386 1.390 . S
C387 C388 1.357 . S
C388 C384 1.370 . S
C388 C387 1.357 . S
C388 H407 0.950 . S
Zn389 N383 2.020 . S
Zn389 O392 2.025 . S
Zn389 O397 2.024 . S
Zn389 O399 2.039 . S
Zn389 O401 2.034 . S
O390 C374 1.251 . S
O390 Zn381 2.039 . S
C391 O396 1.246 . S
C391 O397 1.249 . S
O392 C374 1.254 . S
O392 Zn389 2.025 . S
H393 C385 0.952 . S
H394 C376 0.952 . S
H395 C384 0.948 . S
O396 Zn381 2.034 . S
O396 C391 1.246 . S
O397 Zn389 2.024 . S
O397 C391 1.249 . S
H398 C380 0.948 . S
O399 Zn389 2.039 . S
O399 C403 1.251 . S
O400 Zn381 2.025 . S
O400 C403 1.254 . S
O401 C382 1.246 . S
O401 Zn389 2.034 . S
O402 Zn381 2.024 . S
O402 C382 1.249 . S
C403 O399 1.251 . S
C403 O400 1.254 . S
H404 C377 0.949 . S
H405 C379 0.950 . S
H406 C386 0.949 . S
H407 C388 0.950 . S
C408 O424 1.251 . S
C408 O426 1.254 . S
N409 C410 1.333 . S
N409 C414 1.307 . S
N409 Zn415 2.020 . S
C410 N409 1.333 . S
C410 C411 1.379 1_655 S
C410 H428 0.952 . S
C411 C410 1.379 1_455 S
C411 C412 1.390 . S
C411 H438 0.949 . S
C412 C411 1.390 . S
C412 C413 1.357 . S
C413 C412 1.357 . S
C413 C414 1.370 1_455 S
C413 H439 0.950 . S
C414 N409 1.307 . S
C414 C413 1.370 1_655 S
C414 H432 0.948 . S
Zn415 N409 2.020 . S
Zn415 O424 2.039 . S
Zn415 O430 2.034 . S
Zn415 O434 2.025 . S
Zn415 O436 2.024 . S
C416 O435 1.246 . S
C416 O436 1.249 . S
N417 C418 1.307 . S
N417 C419 1.333 . S
N417 Zn423 2.020 . S
C418 N417 1.307 . S
C418 C422 1.370 . S
C418 H429 0.948 . S
C419 N417 1.333 . S
C419 C420 1.379 . S
C419 H427 0.952 . S
C420 C419 1.379 . S
C420 C421 1.390 . S
C420 H440 0.949 . S
C421 C420 1.390 . S
C421 C422 1.357 . S
C422 C418 1.370 . S
C422 C421 1.357 . S
C422 H441 0.950 . S
Zn423 N417 2.020 . S
Zn423 O426 2.025 . S
Zn423 O431 2.024 . S
Zn423 O433 2.039 . S
Zn423 O435 2.034 . S
O424 C408 1.251 . S
O424 Zn415 2.039 . S
C425 O430 1.246 . S
C425 O431 1.249 . S
O426 C408 1.254 . S
O426 Zn423 2.025 . S
H427 C419 0.952 . S
H428 C410 0.952 . S
H429 C418 0.948 . S
O430 Zn415 2.034 . S
O430 C425 1.246 . S
O431 Zn423 2.024 . S
O431 C425 1.249 . S
H432 C414 0.948 . S
O433 Zn423 2.039 . S
O433 C437 1.251 . S
O434 Zn415 2.025 . S
O434 C437 1.254 . S
O435 C416 1.246 . S
O435 Zn423 2.034 . S
O436 Zn415 2.024 . S
O436 C416 1.249 . S
C437 O433 1.251 . S
C437 O434 1.254 . S
H438 C411 0.949 . S
H439 C413 0.950 . S
H440 C420 0.949 . S
H441 C422 0.950 . S
C442 O458 1.251 . S
C442 O460 1.254 . S
N443 C444 1.333 . S
N443 C448 1.307 . S
N443 Zn449 2.020 . S
C444 N443 1.333 . S
C444 C445 1.379 . S
C444 H462 0.952 . S
C445 C444 1.379 . S
C445 C446 1.390 . S
C445 H472 0.949 . S
C446 C445 1.390 . S
C446 C447 1.357 . S
C447 C446 1.357 . S
C447 C448 1.370 . S
C447 H473 0.950 . S
C448 N443 1.307 . S
C448 C447 1.370 . S
C448 H466 0.948 . S
Zn449 N443 2.020 . S
Zn449 O458 2.039 . S
Zn449 O464 2.034 . S
Zn449 O468 2.025 . S
Zn449 O470 2.024 . S
C450 O469 1.246 . S
C450 O470 1.249 . S
N451 C452 1.307 . S
N451 C453 1.333 . S
N451 Zn457 2.020 . S
C452 N451 1.307 . S
C452 C456 1.370 . S
C452 H463 0.948 . S
C453 N451 1.333 . S
C453 C454 1.379 . S
C453 H461 0.952 . S
C454 C453 1.379 . S
C454 C455 1.390 . S
C454 H474 0.949 . S
C455 C454 1.390 . S
C455 C456 1.357 . S
C456 C452 1.370 . S
C456 C455 1.357 . S
C456 H475 0.950 . S
Zn457 N451 2.020 . S
Zn457 O460 2.025 . S
Zn457 O465 2.024 . S
Zn457 O467 2.039 . S
Zn457 O469 2.034 . S
O458 C442 1.251 . S
O458 Zn449 2.039 . S
C459 O464 1.246 . S
C459 O465 1.249 . S
O460 C442 1.254 . S
O460 Zn457 2.025 . S
H461 C453 0.952 . S
H462 C444 0.952 . S
H463 C452 0.948 . S
O464 Zn449 2.034 . S
O464 C459 1.246 . S
O465 Zn457 2.024 . S
O465 C459 1.249 . S
H466 C448 0.948 . S
O467 Zn457 2.039 . S
O467 C471 1.251 . S
O468 Zn449 2.025 . S
O468 C471 1.254 . S
O469 C450 1.246 . S
O469 Zn457 2.034 . S
O470 Zn449 2.024 . S
O470 C450 1.249 . S
C471 O467 1.251 . S
C471 O468 1.254 . S
H472 C445 0.949 . S
H473 C447 0.950 . S
H474 C454 0.949 . S
H475 C456 0.950 . S
C476 O492 1.251 . S
C476 O494 1.254 . S
N477 C478 1.333 . S
N477 C482 1.307 . S
N477 Zn483 2.020 . S
C478 N477 1.333 . S
C478 C479 1.379 1_545 S
C478 H496 0.952 . S
C479 C478 1.379 1_565 S
C479 C480 1.390 . S
C479 H506 0.949 . S
C480 C479 1.390 . S
C480 C481 1.357 . S
C481 C480 1.357 . S
C481 C482 1.370 1_565 S
C481 H507 0.950 . S
C482 N477 1.307 . S
C482 C481 1.370 1_545 S
C482 H500 0.948 . S
Zn483 N477 2.020 . S
Zn483 O492 2.039 . S
Zn483 O498 2.034 . S
Zn483 O502 2.025 . S
Zn483 O504 2.024 . S
C484 O503 1.246 . S
C484 O504 1.249 . S
N485 C486 1.307 . S
N485 C487 1.333 . S
N485 Zn491 2.020 . S
C486 N485 1.307 . S
C486 C490 1.370 . S
C486 H497 0.948 . S
C487 N485 1.333 . S
C487 C488 1.379 . S
C487 H495 0.952 . S
C488 C487 1.379 . S
C488 C489 1.390 . S
C488 H508 0.949 . S
C489 C488 1.390 . S
C489 C490 1.357 . S
C490 C486 1.370 . S
C490 C489 1.357 . S
C490 H509 0.950 . S
Zn491 N485 2.020 . S
Zn491 O494 2.025 . S
Zn491 O499 2.024 . S
Zn491 O501 2.039 . S
Zn491 O503 2.034 . S
O492 C476 1.251 . S
O492 Zn483 2.039 . S
C493 O498 1.246 . S
C493 O499 1.249 . S
O494 C476 1.254 . S
O494 Zn491 2.025 . S
H495 C487 0.952 . S
H496 C478 0.952 . S
H497 C486 0.948 . S
O498 Zn483 2.034 . S
O498 C493 1.246 . S
O499 Zn491 2.024 . S
O499 C493 1.249 . S
H500 C482 0.948 . S
O501 Zn491 2.039 . S
O501 C505 1.251 . S
O502 Zn483 2.025 . S
O502 C505 1.254 . S
O503 C484 1.246 . S
O503 Zn491 2.034 . S
O504 Zn483 2.024 . S
O504 C484 1.249 . S
C505 O501 1.251 . S
C505 O502 1.254 . S
H506 C479 0.949 . S
H507 C481 0.950 . S
H508 C488 0.949 . S
H509 C490 0.950 . S
C510 O526 1.251 . S
C510 O528 1.254 . S
N511 C512 1.333 . S
N511 C516 1.307 . S
N511 Zn517 2.020 . S
C512 N511 1.333 . S
C512 C513 1.379 . S
C512 H530 0.952 . S
C513 C512 1.379 . S
C513 C514 1.390 . S
C513 H540 0.949 . S
C514 C513 1.390 . S
C514 C515 1.357 . S
C515 C514 1.357 . S
C515 C516 1.370 . S
C515 H541 0.950 . S
C516 N511 1.307 . S
C516 C515 1.370 . S
C516 H534 0.948 . S
Zn517 N511 2.020 . S
Zn517 O526 2.039 . S
Zn517 O532 2.034 . S
Zn517 O536 2.025 . S
Zn517 O538 2.024 . S
C518 O537 1.246 . S
C518 O538 1.249 . S
N519 C520 1.307 . S
N519 C521 1.333 . S
N519 Zn525 2.020 . S
C520 N519 1.307 . S
C520 C524 1.370 1_545 S
C520 H531 0.948 . S
C521 N519 1.333 . S
C521 C522 1.379 1_545 S
C521 H529 0.952 . S
C522 C521 1.379 1_565 S
C522 C523 1.390 . S
C522 H542 0.949 . S
C523 C522 1.390 . S
C523 C524 1.357 . S
C524 C520 1.370 1_565 S
C524 C523 1.357 . S
C524 H543 0.950 . S
Zn525 N519 2.020 . S
Zn525 O528 2.025 . S
Zn525 O533 2.024 . S
Zn525 O535 2.039 . S
Zn525 O537 2.034 . S
O526 C510 1.251 . S
O526 Zn517 2.039 . S
C527 O532 1.246 . S
C527 O533 1.249 . S
O528 C510 1.254 . S
O528 Zn525 2.025 . S
H529 C521 0.952 . S
H530 C512 0.952 . S
H531 C520 0.948 . S
O532 Zn517 2.034 . S
O532 C527 1.246 . S
O533 Zn525 2.024 . S
O533 C527 1.249 . S
H534 C516 0.948 . S
O535 Zn525 2.039 . S
O535 C539 1.251 . S
O536 Zn517 2.025 . S
O536 C539 1.254 . S
O537 C518 1.246 . S
O537 Zn525 2.034 . S
O538 Zn517 2.024 . S
O538 C518 1.249 . S
C539 O535 1.251 . S
C539 O536 1.254 . S
H540 C513 0.949 . S
H541 C515 0.950 . S
H542 C522 0.949 . S
H543 C524 0.950 . S
C544 O560 1.251 . S
C544 O562 1.254 . S
N545 C546 1.333 . S
N545 C550 1.307 . S
N545 Zn551 2.020 . S
C546 N545 1.333 . S
C546 C547 1.379 . S
C546 H564 0.952 . S
C547 C546 1.379 . S
C547 C548 1.390 . S
C547 H574 0.949 . S
C548 C547 1.390 . S
C548 C549 1.357 . S
C549 C548 1.357 . S
C549 C550 1.370 . S
C549 H575 0.950 . S
C550 N545 1.307 . S
C550 C549 1.370 . S
C550 H568 0.948 . S
Zn551 N545 2.020 . S
Zn551 O560 2.039 . S
Zn551 O566 2.034 . S
Zn551 O570 2.025 . S
Zn551 O572 2.024 . S
C552 O571 1.246 . S
C552 O572 1.249 . S
N553 C554 1.307 . S
N553 C555 1.333 . S
N553 Zn559 2.020 . S
C554 N553 1.307 . S
C554 C558 1.370 1_655 S
C554 H565 0.948 . S
C555 N553 1.333 . S
C555 C556 1.379 1_655 S
C555 H563 0.952 . S
C556 C555 1.379 1_455 S
C556 C557 1.390 . S
C556 H576 0.949 . S
C557 C556 1.390 . S
C557 C558 1.357 . S
C558 C554 1.370 1_455 S
C558 C557 1.357 . S
C558 H577 0.950 . S
Zn559 N553 2.020 . S
Zn559 O562 2.025 . S
Zn559 O567 2.024 . S
Zn559 O569 2.039 . S
Zn559 O571 2.034 . S
O560 C544 1.251 . S
O560 Zn551 2.039 . S
C561 O566 1.246 . S
C561 O567 1.249 . S
O562 C544 1.254 . S
O562 Zn559 2.025 . S
H563 C555 0.952 . S
H564 C546 0.952 . S
H565 C554 0.948 . S
O566 Zn551 2.034 . S
O566 C561 1.246 . S
O567 Zn559 2.024 . S
O567 C561 1.249 . S
H568 C550 0.948 . S
O569 Zn559 2.039 . S
O569 C573 1.251 . S
O570 Zn551 2.025 . S
O570 C573 1.254 . S
O571 C552 1.246 . S
O571 Zn559 2.034 . S
O572 Zn551 2.024 . S
O572 C552 1.249 . S
C573 O569 1.251 . S
C573 O570 1.254 . S
H574 C547 0.949 . S
H575 C549 0.950 . S
H576 C556 0.949 . S
H577 C558 0.950 . S
C578 O594 1.251 . S
C578 O596 1.254 . S
N579 C580 1.333 . S
N579 C584 1.307 . S
N579 Zn585 2.020 . S
C580 N579 1.333 . S
C580 C581 1.379 . S
C580 H598 0.952 . S
C581 C580 1.379 . S
C581 C582 1.390 . S
C581 H608 0.949 . S
C582 C581 1.390 . S
C582 C583 1.357 . S
C583 C582 1.357 . S
C583 C584 1.370 . S
C583 H609 0.950 . S
C584 N579 1.307 . S
C584 C583 1.370 . S
C584 H602 0.948 . S
Zn585 N579 2.020 . S
Zn585 O594 2.039 . S
Zn585 O600 2.034 . S
Zn585 O604 2.025 . S
Zn585 O606 2.024 . S
C586 O605 1.246 . S
C586 O606 1.249 . S
N587 C588 1.307 . S
N587 C589 1.333 . S
N587 Zn593 2.020 . S
C588 N587 1.307 . S
C588 C592 1.370 . S
C588 H599 0.948 . S
C589 N587 1.333 . S
C589 C590 1.379 . S
C589 H597 0.952 . S
C590 C589 1.379 . S
C590 C591 1.390 . S
C590 H610 0.949 . S
C591 C590 1.390 . S
C591 C592 1.357 . S
C592 C588 1.370 . S
C592 C591 1.357 . S
C592 H611 0.950 . S
Zn593 N587 2.020 . S
Zn593 O596 2.025 . S
Zn593 O601 2.024 . S
Zn593 O603 2.039 . S
Zn593 O605 2.034 . S
O594 C578 1.251 . S
O594 Zn585 2.039 . S
C595 O600 1.246 . S
C595 O601 1.249 . S
O596 C578 1.254 . S
O596 Zn593 2.025 . S
H597 C589 0.952 . S
H598 C580 0.952 . S
H599 C588 0.948 . S
O600 Zn585 2.034 . S
O600 C595 1.246 . S
O601 Zn593 2.024 . S
O601 C595 1.249 . S
H602 C584 0.948 . S
O603 Zn593 2.039 . S
O603 C607 1.251 . S
O604 Zn585 2.025 . S
O604 C607 1.254 . S
O605 C586 1.246 . S
O605 Zn593 2.034 . S
O606 Zn585 2.024 . S
O606 C586 1.249 . S
C607 O603 1.251 . S
C607 O604 1.254 . S
H608 C581 0.949 . S
H609 C583 0.950 . S
H610 C590 0.949 . S
H611 C592 0.950 . S
C612 C613 1.349 . S
C612 C614 1.327 . S
C612 H637 0.950 . S
C613 C612 1.349 . S
C613 C629 1.349 1_556 S
C614 C612 1.327 . S
C614 C633 1.429 1_556 S
C614 H638 0.950 . S
C615 C632 1.574 . S
C615 C634 1.368 . S
C615 H639 0.949 . S
H616 C620 0.943 1_556 S
C617 C618 1.349 . S
C617 C619 1.327 . S
C617 H640 0.950 . S
C618 C617 1.349 . S
C618 C630 1.349 . S
C619 C617 1.327 . S
C619 C635 1.429 . S
C619 H641 0.950 . S
C620 H616 0.943 1_554 S
C620 C628 1.571 1_554 S
C620 C636 1.379 . S
H621 C629 0.950 . S
H622 C627 0.950 . S
H623 C628 0.949 . S
H624 C630 0.950 . S
H625 C631 0.947 1_556 S
H626 C632 0.949 . S
C627 H622 0.950 . S
C627 C629 1.327 . S
C627 C633 1.429 . S
C628 C620 1.571 1_556 S
C628 H623 0.949 . S
C628 C634 1.368 1_556 S
C629 C613 1.349 1_554 S
C629 H621 0.950 . S
C629 C627 1.327 . S
C630 C618 1.349 . S
C630 H624 0.950 . S
C630 C631 1.327 . S
C631 H625 0.947 1_554 S
C631 C630 1.327 . S
C631 C635 1.429 . S
C632 C615 1.574 . S
C632 H626 0.949 . S
C632 C636 1.368 . S
C633 C614 1.429 1_554 S
C633 C627 1.429 . S
C633 C634 1.523 . S
C634 C615 1.368 . S
C634 C628 1.368 1_554 S
C634 C633 1.523 . S
C635 C619 1.429 . S
C635 C631 1.429 . S
C635 C636 1.523 . S
C636 C620 1.379 . S
C636 C632 1.368 . S
C636 C635 1.523 . S
H637 C612 0.950 . S
H638 C614 0.950 . S
H639 C615 0.949 . S
H640 C617 0.950 . S
H641 C619 0.950 . S
C642 C643 1.349 1_556 S
C642 C644 1.327 . S
C642 H667 0.950 . S
C643 C642 1.349 1_554 S
C643 C659 1.349 . S
C644 C642 1.327 . S
C644 C663 1.429 1_556 S
C644 H668 0.950 . S
C645 C662 1.574 . S
C645 C664 1.368 . S
C645 H669 0.949 . S
H646 C650 0.949 . S
C647 C648 1.349 1_554 S
C647 C649 1.327 . S
C647 H670 0.950 . S
C648 C647 1.349 1_556 S
C648 C660 1.349 . S
C649 C647 1.327 . S
C649 C665 1.429 . S
C649 H671 0.950 . S
C650 H646 0.949 . S
C650 C658 1.574 . S
C650 C666 1.368 1_556 S
H651 C659 0.950 . S
H652 C657 0.950 . S
H653 C658 0.949 . S
H654 C660 0.950 . S
H655 C661 0.950 . S
H656 C662 0.949 . S
C657 H652 0.950 . S
C657 C659 1.327 . S
C657 C663 1.429 . S
C658 C650 1.574 . S
C658 H653 0.949 . S
C658 C664 1.368 1_556 S
C659 C643 1.349 . S
C659 H651 0.950 . S
C659 C657 1.327 . S
C660 C648 1.349 . S
C660 H654 0.950 . S
C660 C661 1.327 . S
C661 H655 0.950 . S
C661 C660 1.327 . S
C661 C665 1.429 1_556 S
C662 C645 1.574 . S
C662 H656 0.949 . S
C662 C666 1.368 . S
C663 C644 1.429 1_554 S
C663 C657 1.429 . S
C663 C664 1.523 . S
C664 C645 1.368 . S
C664 C658 1.368 1_554 S
C664 C663 1.523 . S
C665 C649 1.429 . S
C665 C661 1.429 1_554 S
C665 C666 1.523 . S
C666 C650 1.368 1_554 S
C666 C662 1.368 . S
C666 C665 1.523 . S
H667 C642 0.950 . S
H668 C644 0.950 . S
H669 C645 0.949 . S
H670 C647 0.950 . S
H671 C649 0.950 . S
C672 C673 1.347 1_554 S
C672 C674 1.328 . S
C672 H697 0.950 . S
C673 C672 1.347 1_556 S
C673 C689 1.349 . S
C674 C672 1.328 . S
C674 C693 1.429 . S
C674 H698 0.950 . S
C675 C692 1.574 . S
C675 C694 1.368 . S
C675 H699 0.949 . S
H676 C680 0.949 . S
C677 C678 1.349 . S
C677 C679 1.327 . S
C677 H700 0.950 . S
C678 C677 1.349 . S
C678 C690 1.349 . S
C679 C677 1.327 . S
C679 C695 1.429 . S
C679 H701 0.950 . S
C680 H676 0.949 . S
C680 C688 1.574 . S
C680 C696 1.368 . S
H681 C689 0.950 . S
H682 C687 0.950 . S
H683 C688 0.949 . S
H684 C690 0.950 . S
H685 C691 0.950 . S
H686 C692 0.949 . S
C687 H682 0.950 . S
C687 C689 1.327 . S
C687 C693 1.429 1_556 S
C688 C680 1.574 . S
C688 H683 0.949 . S
C688 C694 1.368 . S
C689 C673 1.349 . S
C689 H681 0.950 . S
C689 C687 1.327 . S
C690 C678 1.349 . S
C690 H684 0.950 . S
C690 C691 1.327 . S
C691 H685 0.950 . S
C691 C690 1.327 . S
C691 C695 1.429 . S
C692 C675 1.574 . S
C692 H686 0.949 . S
C692 C696 1.368 . S
C693 C674 1.429 . S
C693 C687 1.429 1_554 S
C693 C694 1.523 . S
C694 C675 1.368 . S
C694 C688 1.368 . S
C694 C693 1.523 . S
C695 C679 1.429 . S
C695 C691 1.429 . S
C695 C696 1.523 . S
C696 C680 1.368 . S
C696 C692 1.368 . S
C696 C695 1.523 . S
H697 C672 0.950 . S
H698 C674 0.950 . S
H699 C675 0.949 . S
H700 C677 0.950 . S
H701 C679 0.950 . S
C702 C703 1.349 . S
C702 C704 1.327 . S
C702 H727 0.950 . S
C703 C702 1.349 . S
C703 C719 1.349 . S
C704 C702 1.327 . S
C704 C723 1.429 . S
C704 H728 0.950 . S
C705 C722 1.574 . S
C705 C724 1.368 . S
C705 H729 0.949 . S
H706 C710 0.949 . S
C707 C708 1.349 . S
C707 C709 1.327 . S
C707 H730 0.950 . S
C708 C707 1.349 . S
C708 C720 1.349 . S
C709 C707 1.327 . S
C709 C725 1.429 . S
C709 H731 0.950 . S
C710 H706 0.949 . S
C710 C718 1.574 . S
C710 C726 1.368 . S
H711 C719 0.950 . S
H712 C717 0.950 . S
H713 C718 0.949 . S
H714 C720 0.950 . S
H715 C721 0.950 . S
H716 C722 0.949 . S
C717 H712 0.950 . S
C717 C719 1.327 . S
C717 C723 1.429 . S
C718 C710 1.574 . S
C718 H713 0.949 . S
C718 C724 1.368 . S
C719 C703 1.349 . S
C719 H711 0.950 . S
C719 C717 1.327 . S
C720 C708 1.349 . S
C720 H714 0.950 . S
C720 C721 1.327 . S
C721 H715 0.950 . S
C721 C720 1.327 . S
C721 C725 1.429 . S
C722 C705 1.574 . S
C722 H716 0.949 . S
C722 C726 1.368 . S
C723 C704 1.429 . S
C723 C717 1.429 . S
C723 C724 1.523 . S
C724 C705 1.368 . S
C724 C718 1.368 . S
C724 C723 1.523 . S
C725 C709 1.429 . S
C725 C721 1.429 . S
C725 C726 1.523 . S
C726 C710 1.368 . S
C726 C722 1.368 . S
C726 C725 1.523 . S
H727 C702 0.950 . S
H728 C704 0.950 . S
H729 C705 0.949 . S
H730 C707 0.950 . S
H731 C709 0.950 . S
C732 C733 1.349 . S
C732 C734 1.327 . S
C732 H757 0.950 . S
C733 C732 1.349 . S
C733 C749 1.349 . S
C734 C732 1.327 . S
C734 C753 1.429 . S
C734 H758 0.950 . S
C735 C752 1.574 . S
C735 C754 1.368 . S
C735 H759 0.949 . S
H736 C740 0.949 . S
C737 C738 1.349 . S
C737 C739 1.327 . S
C737 H760 0.950 . S
C738 C737 1.349 . S
C738 C750 1.349 . S
C739 C737 1.327 . S
C739 C755 1.429 . S
C739 H761 0.950 . S
C740 H736 0.949 . S
C740 C748 1.574 . S
C740 C756 1.368 . S
H741 C749 0.950 . S
H742 C747 0.950 . S
H743 C748 0.949 . S
H744 C750 0.950 . S
H745 C751 0.950 . S
H746 C752 0.949 . S
C747 H742 0.950 . S
C747 C749 1.327 . S
C747 C753 1.429 . S
C748 C740 1.574 . S
C748 H743 0.949 . S
C748 C754 1.368 . S
C749 C733 1.349 . S
C749 H741 0.950 . S
C749 C747 1.327 . S
C750 C738 1.349 . S
C750 H744 0.950 . S
C750 C751 1.327 . S
C751 H745 0.950 . S
C751 C750 1.327 . S
C751 C755 1.429 . S
C752 C735 1.574 . S
C752 H746 0.949 . S
C752 C756 1.368 . S
C753 C734 1.429 . S
C753 C747 1.429 . S
C753 C754 1.523 . S
C754 C735 1.368 . S
C754 C748 1.368 . S
C754 C753 1.523 . S
C755 C739 1.429 . S
C755 C751 1.429 . S
C755 C756 1.523 . S
C756 C740 1.368 . S
C756 C752 1.368 . S
C756 C755 1.523 . S
H757 C732 0.950 . S
H758 C734 0.950 . S
H759 C735 0.949 . S
H760 C737 0.950 . S
H761 C739 0.950 . S
C762 C763 1.349 . S
C762 C764 1.327 . S
C762 H787 0.950 . S
C763 C762 1.349 . S
C763 C779 1.349 . S
C764 C762 1.327 . S
C764 C783 1.429 . S
C764 H788 0.950 . S
C765 C782 1.574 . S
C765 C784 1.368 . S
C765 H789 0.949 . S
H766 C770 0.949 . S
C767 C768 1.349 . S
C767 C769 1.327 . S
C767 H790 0.950 . S
C768 C767 1.349 . S
C768 C780 1.349 . S
C769 C767 1.327 . S
C769 C785 1.429 . S
C769 H791 0.950 . S
C770 H766 0.949 . S
C770 C778 1.574 . S
C770 C786 1.368 . S
H771 C779 0.950 . S
H772 C777 0.950 . S
H773 C778 0.949 . S
H774 C780 0.950 . S
H775 C781 0.950 . S
H776 C782 0.949 . S
C777 H772 0.950 . S
C777 C779 1.327 . S
C777 C783 1.429 . S
C778 C770 1.574 . S
C778 H773 0.949 . S
C778 C784 1.368 . S
C779 C763 1.349 . S
C779 H771 0.950 . S
C779 C777 1.327 . S
C780 C768 1.349 . S
C780 H774 0.950 . S
C780 C781 1.327 . S
C781 H775 0.950 . S
C781 C780 1.327 . S
C781 C785 1.429 . S
C782 C765 1.574 . S
C782 H776 0.949 . S
C782 C786 1.368 . S
C783 C764 1.429 . S
C783 C777 1.429 . S
C783 C784 1.523 . S
C784 C765 1.368 . S
C784 C778 1.368 . S
C784 C783 1.523 . S
C785 C769 1.429 . S
C785 C781 1.429 . S
C785 C786 1.523 . S
C786 C770 1.368 . S
C786 C782 1.368 . S
C786 C785 1.523 . S
H787 C762 0.950 . S
H788 C764 0.950 . S
H789 C765 0.949 . S
H790 C767 0.950 . S
H791 C769 0.950 . S
C792 C793 1.349 . S
C792 C794 1.327 . S
C792 H817 0.950 . S
C793 C792 1.349 . S
C793 C809 1.349 . S
C794 C792 1.327 . S
C794 C813 1.429 . S
C794 H818 0.950 . S
C795 C812 1.574 . S
C795 C814 1.368 . S
C795 H819 0.949 . S
H796 C800 0.949 . S
C797 C798 1.349 . S
C797 C799 1.327 . S
C797 H820 0.950 . S
C798 C797 1.349 . S
C798 C810 1.349 . S
C799 C797 1.327 . S
C799 C815 1.429 . S
C799 H821 0.950 . S
C800 H796 0.949 . S
C800 C808 1.574 . S
C800 C816 1.368 . S
H801 C809 0.950 . S
H802 C807 0.950 . S
H803 C808 0.949 . S
H804 C810 0.950 . S
H805 C811 0.950 . S
H806 C812 0.949 . S
C807 H802 0.950 . S
C807 C809 1.327 . S
C807 C813 1.429 . S
C808 C800 1.574 . S
C808 H803 0.949 . S
C808 C814 1.368 . S
C809 C793 1.349 . S
C809 H801 0.950 . S
C809 C807 1.327 . S
C810 C798 1.349 . S
C810 H804 0.950 . S
C810 C811 1.327 . S
C811 H805 0.950 . S
C811 C810 1.327 . S
C811 C815 1.429 . S
C812 C795 1.574 . S
C812 H806 0.949 . S
C812 C816 1.368 . S
C813 C794 1.429 . S
C813 C807 1.429 . S
C813 C814 1.523 . S
C814 C795 1.368 . S
C814 C808 1.368 . S
C814 C813 1.523 . S
C815 C799 1.429 . S
C815 C811 1.429 . S
C815 C816 1.523 . S
C816 C800 1.368 . S
C816 C812 1.368 . S
C816 C815 1.523 . S
H817 C792 0.950 . S
H818 C794 0.950 . S
H819 C795 0.949 . S
H820 C797 0.950 . S
H821 C799 0.950 . S
C822 C823 1.349 . S
C822 C824 1.327 . S
C822 H847 0.950 . S
C823 C822 1.349 . S
C823 C839 1.349 . S
C824 C822 1.327 . S
C824 C843 1.429 . S
C824 H848 0.950 . S
C825 C842 1.574 . S
C825 C844 1.368 . S
C825 H849 0.949 . S
H826 C830 0.949 . S
C827 C828 1.349 . S
C827 C829 1.327 . S
C827 H850 0.950 . S
C828 C827 1.349 . S
C828 C840 1.349 . S
C829 C827 1.327 . S
C829 C845 1.429 . S
C829 H851 0.950 . S
C830 H826 0.949 . S
C830 C838 1.574 . S
C830 C846 1.368 . S
H831 C839 0.950 . S
H832 C837 0.950 . S
H833 C838 0.949 . S
H834 C840 0.950 . S
H835 C841 0.950 . S
H836 C842 0.949 . S
C837 H832 0.950 . S
C837 C839 1.327 . S
C837 C843 1.429 . S
C838 C830 1.574 . S
C838 H833 0.949 . S
C838 C844 1.368 . S
C839 C823 1.349 . S
C839 H831 0.950 . S
C839 C837 1.327 . S
C840 C828 1.349 . S
C840 H834 0.950 . S
C840 C841 1.327 . S
C841 H835 0.950 . S
C841 C840 1.327 . S
C841 C845 1.429 . S
C842 C825 1.574 . S
C842 H836 0.949 . S
C842 C846 1.368 . S
C843 C824 1.429 . S
C843 C837 1.429 . S
C843 C844 1.523 . S
C844 C825 1.368 . S
C844 C838 1.368 . S
C844 C843 1.523 . S
C845 C829 1.429 . S
C845 C841 1.429 . S
C845 C846 1.523 . S
C846 C830 1.368 . S
C846 C842 1.368 . S
C846 C845 1.523 . S
H847 C822 0.950 . S
H848 C824 0.950 . S
H849 C825 0.949 . S
H850 C827 0.950 . S
H851 C829 0.950 . S
C852 C853 1.349 . S
C852 C854 1.327 . S
C852 H877 0.950 . S
C853 C852 1.349 . S
C853 C869 1.349 . S
C854 C852 1.327 . S
C854 C873 1.429 . S
C854 H878 0.950 . S
C855 C872 1.574 . S
C855 C874 1.368 . S
C855 H879 0.949 . S
H856 C860 0.949 . S
C857 C858 1.349 . S
C857 C859 1.327 . S
C857 H880 0.950 . S
C858 C857 1.349 . S
C858 C870 1.349 . S
C859 C857 1.327 . S
C859 C875 1.429 . S
C859 H881 0.950 . S
C860 H856 0.949 . S
C860 C868 1.574 . S
C860 C876 1.368 . S
H861 C869 0.950 . S
H862 C867 0.950 . S
H863 C868 0.949 . S
H864 C870 0.950 . S
H865 C871 0.950 . S
H866 C872 0.949 . S
C867 H862 0.950 . S
C867 C869 1.327 . S
C867 C873 1.429 . S
C868 C860 1.574 . S
C868 H863 0.949 . S
C868 C874 1.368 . S
C869 C853 1.349 . S
C869 H861 0.950 . S
C869 C867 1.327 . S
C870 C858 1.349 . S
C870 H864 0.950 . S
C870 C871 1.327 . S
C871 H865 0.950 . S
C871 C870 1.327 . S
C871 C875 1.429 . S
C872 C855 1.574 . S
C872 H866 0.949 . S
C872 C876 1.368 . S
C873 C854 1.429 . S
C873 C867 1.429 . S
C873 C874 1.523 . S
C874 C855 1.368 . S
C874 C868 1.368 . S
C874 C873 1.523 . S
C875 C859 1.429 . S
C875 C871 1.429 . S
C875 C876 1.523 . S
C876 C860 1.368 . S
C876 C872 1.368 . S
C876 C875 1.523 . S
H877 C852 0.950 . S
H878 C854 0.950 . S
H879 C855 0.949 . S
H880 C857 0.950 . S
H881 C859 0.950 . S
C882 C883 1.349 . S
C882 C884 1.327 . S
C882 H907 0.950 . S
C883 C882 1.349 . S
C883 C899 1.349 . S
C884 C882 1.327 . S
C884 C903 1.429 . S
C884 H908 0.950 . S
C885 C902 1.574 . S
C885 C904 1.368 . S
C885 H909 0.949 . S
H886 C890 0.949 . S
C887 C888 1.349 . S
C887 C889 1.327 . S
C887 H910 0.950 . S
C888 C887 1.349 . S
C888 C900 1.349 . S
C889 C887 1.327 . S
C889 C905 1.429 . S
C889 H911 0.950 . S
C890 H886 0.949 . S
C890 C898 1.574 . S
C890 C906 1.368 . S
H891 C899 0.950 . S
H892 C897 0.950 . S
H893 C898 0.949 . S
H894 C900 0.950 . S
H895 C901 0.950 . S
H896 C902 0.949 . S
C897 H892 0.950 . S
C897 C899 1.327 . S
C897 C903 1.429 . S
C898 C890 1.574 . S
C898 H893 0.949 . S
C898 C904 1.368 . S
C899 C883 1.349 . S
C899 H891 0.950 . S
C899 C897 1.327 . S
C900 C888 1.349 . S
C900 H894 0.950 . S
C900 C901 1.327 . S
C901 H895 0.950 . S
C901 C900 1.327 . S
C901 C905 1.429 . S
C902 C885 1.574 . S
C902 H896 0.949 . S
C902 C906 1.368 . S
C903 C884 1.429 . S
C903 C897 1.429 . S
C903 C904 1.523 . S
C904 C885 1.368 . S
C904 C898 1.368 . S
C904 C903 1.523 . S
C905 C889 1.429 . S
C905 C901 1.429 . S
C905 C906 1.523 . S
C906 C890 1.368 . S
C906 C902 1.368 . S
C906 C905 1.523 . S
H907 C882 0.950 . S
H908 C884 0.950 . S
H909 C885 0.949 . S
H910 C887 0.950 . S
H911 C889 0.950 . S
C912 C913 1.349 . S
C912 C914 1.327 . S
C912 H937 0.950 . S
C913 C912 1.349 . S
C913 C929 1.349 . S
C914 C912 1.327 . S
C914 C933 1.429 . S
C914 H938 0.950 . S
C915 C932 1.574 . S
C915 C934 1.368 . S
C915 H939 0.949 . S
H916 C920 0.949 . S
C917 C918 1.349 . S
C917 C919 1.327 . S
C917 H940 0.950 . S
C918 C917 1.349 . S
C918 C930 1.349 . S
C919 C917 1.327 . S
C919 C935 1.429 . S
C919 H941 0.950 . S
C920 H916 0.949 . S
C920 C928 1.574 . S
C920 C936 1.368 . S
H921 C929 0.950 . S
H922 C927 0.950 . S
H923 C928 0.949 . S
H924 C930 0.950 . S
H925 C931 0.950 . S
H926 C932 0.949 . S
C927 H922 0.950 . S
C927 C929 1.327 . S
C927 C933 1.429 . S
C928 C920 1.574 . S
C928 H923 0.949 . S
C928 C934 1.368 . S
C929 C913 1.349 . S
C929 H921 0.950 . S
C929 C927 1.327 . S
C930 C918 1.349 . S
C930 H924 0.950 . S
C930 C931 1.327 . S
C931 H925 0.950 . S
C931 C930 1.327 . S
C931 C935 1.429 . S
C932 C915 1.574 . S
C932 H926 0.949 . S
C932 C936 1.368 . S
C933 C914 1.429 . S
C933 C927 1.429 . S
C933 C934 1.523 . S
C934 C915 1.368 . S
C934 C928 1.368 . S
C934 C933 1.523 . S
C935 C919 1.429 . S
C935 C931 1.429 . S
C935 C936 1.523 . S
C936 C920 1.368 . S
C936 C932 1.368 . S
C936 C935 1.523 . S
H937 C912 0.950 . S
H938 C914 0.950 . S
H939 C915 0.949 . S
H940 C917 0.950 . S
H941 C919 0.950 . S
C942 C943 1.349 . S
C942 C944 1.327 . S
C942 H967 0.950 . S
C943 C942 1.349 . S
C943 C959 1.349 . S
C944 C942 1.327 . S
C944 C963 1.429 . S
C944 H968 0.950 . S
C945 C962 1.574 . S
C945 C964 1.368 . S
C945 H969 0.949 . S
H946 C950 0.949 . S
C947 C948 1.349 . S
C947 C949 1.327 . S
C947 H970 0.950 . S
C948 C947 1.349 . S
C948 C960 1.349 . S
C949 C947 1.327 . S
C949 C965 1.429 . S
C949 H971 0.950 . S
C950 H946 0.949 . S
C950 C958 1.574 . S
C950 C966 1.368 . S
H951 C959 0.950 . S
H952 C957 0.950 . S
H953 C958 0.949 . S
H954 C960 0.950 . S
H955 C961 0.950 . S
H956 C962 0.949 . S
C957 H952 0.950 . S
C957 C959 1.327 . S
C957 C963 1.429 . S
C958 C950 1.574 . S
C958 H953 0.949 . S
C958 C964 1.368 . S
C959 C943 1.349 . S
C959 H951 0.950 . S
C959 C957 1.327 . S
C960 C948 1.349 . S
C960 H954 0.950 . S
C960 C961 1.327 . S
C961 H955 0.950 . S
C961 C960 1.327 . S
C961 C965 1.429 . S
C962 C945 1.574 . S
C962 H956 0.949 . S
C962 C966 1.368 . S
C963 C944 1.429 . S
C963 C957 1.429 . S
C963 C964 1.523 . S
C964 C945 1.368 . S
C964 C958 1.368 . S
C964 C963 1.523 . S
C965 C949 1.429 . S
C965 C961 1.429 . S
C965 C966 1.523 . S
C966 C950 1.368 . S
C966 C962 1.368 . S
C966 C965 1.523 . S
H967 C942 0.950 . S
H968 C944 0.950 . S
H969 C945 0.949 . S
H970 C947 0.950 . S
H971 C949 0.950 . S
C972 C973 1.349 . S
C972 C974 1.327 . S
C972 H997 0.950 . S
C973 C972 1.349 . S
C973 C989 1.349 . S
C974 C972 1.327 . S
C974 C993 1.429 . S
C974 H998 0.950 . S
C975 C992 1.574 . S
C975 C994 1.368 . S
C975 H999 0.949 . S
H976 C980 0.949 . S
C977 C978 1.349 . S
C977 C979 1.327 . S
C977 H1000 0.950 . S
C978 C977 1.349 . S
C978 C990 1.349 . S
C979 C977 1.327 . S
C979 C995 1.429 . S
C979 H1001 0.950 . S
C980 H976 0.949 . S
C980 C988 1.574 . S
C980 C996 1.368 . S
H981 C989 0.950 . S
H982 C987 0.950 . S
H983 C988 0.949 . S
H984 C990 0.950 . S
H985 C991 0.950 . S
H986 C992 0.949 . S
C987 H982 0.950 . S
C987 C989 1.327 . S
C987 C993 1.429 . S
C988 C980 1.574 . S
C988 H983 0.949 . S
C988 C994 1.368 . S
C989 C973 1.349 . S
C989 H981 0.950 . S
C989 C987 1.327 . S
C990 C978 1.349 . S
C990 H984 0.950 . S
C990 C991 1.327 . S
C991 H985 0.950 . S
C991 C990 1.327 . S
C991 C995 1.429 . S
C992 C975 1.574 . S
C992 H986 0.949 . S
C992 C996 1.368 . S
C993 C974 1.429 . S
C993 C987 1.429 . S
C993 C994 1.523 . S
C994 C975 1.368 . S
C994 C988 1.368 . S
C994 C993 1.523 . S
C995 C979 1.429 . S
C995 C991 1.429 . S
C995 C996 1.523 . S
C996 C980 1.368 . S
C996 C992 1.368 . S
C996 C995 1.523 . S
H997 C972 0.950 . S
H998 C974 0.950 . S
H999 C975 0.949 . S
H1000 C977 0.950 . S
H1001 C979 0.950 . S
C1002 C1003 1.349 . S
C1002 C1004 1.327 . S
C1002 H1027 0.950 . S
C1003 C1002 1.349 . S
C1003 C1019 1.349 . S
C1004 C1002 1.327 . S
C1004 C1023 1.429 . S
C1004 H1028 0.950 . S
C1005 C1022 1.574 . S
C1005 C1024 1.368 1_565 S
C1005 H1029 0.953 1_565 S
H1006 C1010 0.949 . S
C1007 C1008 1.349 . S
C1007 C1009 1.327 . S
C1007 H1030 0.950 . S
C1008 C1007 1.349 . S
C1008 C1020 1.349 . S
C1009 C1007 1.327 . S
C1009 C1025 1.429 . S
C1009 H1031 0.950 . S
C1010 H1006 0.949 . S
C1010 C1018 1.574 1_565 S
C1010 C1026 1.368 . S
H1011 C1019 0.950 . S
H1012 C1017 0.950 . S
H1013 C1018 0.949 . S
H1014 C1020 0.950 . S
H1015 C1021 0.950 . S
H1016 C1022 0.949 . S
C1017 H1012 0.950 . S
C1017 C1019 1.327 . S
C1017 C1023 1.429 . S
C1018 C1010 1.574 1_545 S
C1018 H1013 0.949 . S
C1018 C1024 1.368 . S
C1019 C1003 1.349 . S
C1019 H1011 0.950 . S
C1019 C1017 1.327 . S
C1020 C1008 1.349 . S
C1020 H1014 0.950 . S
C1020 C1021 1.327 . S
C1021 H1015 0.950 . S
C1021 C1020 1.327 . S
C1021 C1025 1.429 . S
C1022 C1005 1.574 . S
C1022 H1016 0.949 . S
C1022 C1026 1.368 . S
C1023 C1004 1.429 . S
C1023 C1017 1.429 . S
C1023 C1024 1.523 . S
C1024 C1005 1.368 1_545 S
C1024 C1018 1.368 . S
C1024 C1023 1.523 . S
C1025 C1009 1.429 . S
C1025 C1021 1.429 . S
C1025 C1026 1.523 . S
C1026 C1010 1.368 . S
C1026 C1022 1.368 . S
C1026 C1025 1.523 . S
H1027 C1002 0.950 . S
H1028 C1004 0.950 . S
H1029 C1005 0.953 1_545 S
H1030 C1007 0.950 . S
H1031 C1009 0.950 . S
C1032 C1033 1.349 . S
C1032 C1034 1.327 . S
C1032 H1057 0.950 . S
C1033 C1032 1.349 . S
C1033 C1049 1.349 . S
C1034 C1032 1.327 . S
C1034 C1053 1.429 . S
C1034 H1058 0.950 . S
C1035 C1052 1.574 . S
C1035 C1054 1.368 1_455 S
C1035 H1059 0.949 1_455 S
H1036 C1040 0.949 . S
C1037 C1038 1.349 . S
C1037 C1039 1.327 . S
C1037 H1060 0.950 . S
C1038 C1037 1.349 . S
C1038 C1050 1.349 . S
C1039 C1037 1.327 . S
C1039 C1055 1.429 . S
C1039 H1061 0.950 . S
C1040 H1036 0.949 . S
C1040 C1048 1.574 1_455 S
C1040 C1056 1.368 . S
H1041 C1049 0.950 . S
H1042 C1047 0.950 . S
H1043 C1048 0.949 . S
H1044 C1050 0.950 . S
H1045 C1051 0.950 . S
H1046 C1052 0.949 . S
C1047 H1042 0.950 . S
C1047 C1049 1.327 . S
C1047 C1053 1.429 . S
C1048 C1040 1.574 1_655 S
C1048 H1043 0.949 . S
C1048 C1054 1.368 . S
C1049 C1033 1.349 . S
C1049 H1041 0.950 . S
C1049 C1047 1.327 . S
C1050 C1038 1.349 . S
C1050 H1044 0.950 . S
C1050 C1051 1.327 . S
C1051 H1045 0.950 . S
C1051 C1050 1.327 . S
C1051 C1055 1.429 . S
C1052 C1035 1.574 . S
C1052 H1046 0.949 . S
C1052 C1056 1.368 . S
C1053 C1034 1.429 . S
C1053 C1047 1.429 . S
C1053 C1054 1.523 . S
C1054 C1035 1.368 1_655 S
C1054 C1048 1.368 . S
C1054 C1053 1.523 . S
C1055 C1039 1.429 . S
C1055 C1051 1.429 . S
C1055 C1056 1.523 . S
C1056 C1040 1.368 . S
C1056 C1052 1.368 . S
C1056 C1055 1.523 . S
H1057 C1032 0.950 . S
H1058 C1034 0.950 . S
H1059 C1035 0.949 1_655 S
H1060 C1037 0.950 . S
H1061 C1039 0.950 . S
C1062 C1063 1.349 . S
C1062 C1064 1.327 . S
C1062 H1087 0.950 . S
C1063 C1062 1.349 . S
C1063 C1079 1.349 . S
C1064 C1062 1.327 . S
C1064 C1083 1.429 . S
C1064 H1088 0.950 . S
C1065 C1082 1.574 . S
C1065 C1084 1.368 . S
C1065 H1089 0.949 . S
H1066 C1070 0.949 . S
C1067 C1068 1.349 . S
C1067 C1069 1.327 . S
C1067 H1090 0.950 . S
C1068 C1067 1.349 . S
C1068 C1080 1.349 . S
C1069 C1067 1.327 . S
C1069 C1085 1.429 . S
C1069 H1091 0.950 . S
C1070 H1066 0.949 . S
C1070 C1078 1.574 . S
C1070 C1086 1.368 . S
H1071 C1079 0.950 . S
H1072 C1077 0.950 . S
H1073 C1078 0.949 . S
H1074 C1080 0.950 . S
H1075 C1081 0.950 . S
H1076 C1082 0.949 . S
C1077 H1072 0.950 . S
C1077 C1079 1.327 . S
C1077 C1083 1.429 . S
C1078 C1070 1.574 . S
C1078 H1073 0.949 . S
C1078 C1084 1.368 . S
C1079 C1063 1.349 . S
C1079 H1071 0.950 . S
C1079 C1077 1.327 . S
C1080 C1068 1.349 . S
C1080 H1074 0.950 . S
C1080 C1081 1.327 . S
C1081 H1075 0.950 . S
C1081 C1080 1.327 . S
C1081 C1085 1.429 . S
C1082 C1065 1.574 . S
C1082 H1076 0.949 . S
C1082 C1086 1.368 . S
C1083 C1064 1.429 . S
C1083 C1077 1.429 . S
C1083 C1084 1.523 . S
C1084 C1065 1.368 . S
C1084 C1078 1.368 . S
C1084 C1083 1.523 . S
C1085 C1069 1.429 . S
C1085 C1081 1.429 . S
C1085 C1086 1.523 . S
C1086 C1070 1.368 . S
C1086 C1082 1.368 . S
C1086 C1085 1.523 . S
H1087 C1062 0.950 . S
H1088 C1064 0.950 . S
H1089 C1065 0.949 . S
H1090 C1067 0.950 . S
H1091 C1069 0.950 . S
C1092 C1093 1.349 . S
C1092 C1094 1.327 . S
C1092 H1117 0.950 . S
C1093 C1092 1.349 . S
C1093 C1109 1.349 . S
C1094 C1092 1.327 . S
C1094 C1113 1.429 . S
C1094 H1118 0.950 . S
C1095 C1112 1.574 1_565 S
C1095 C1114 1.368 . S
C1095 H1119 0.949 . S
H1096 C1100 0.928 1_545 S
C1097 C1098 1.349 . S
C1097 C1099 1.327 . S
C1097 H1120 0.950 . S
C1098 C1097 1.349 . S
C1098 C1110 1.349 . S
C1099 C1097 1.327 . S
C1099 C1115 1.429 . S
C1099 H1121 0.950 . S
C1100 H1096 0.928 1_565 S
C1100 C1108 1.574 . S
C1100 C1116 1.368 1_565 S
H1101 C1109 0.950 . S
H1102 C1107 0.950 . S
H1103 C1108 0.949 . S
H1104 C1110 0.950 . S
H1105 C1111 0.950 . S
H1106 C1112 0.949 . S
C1107 H1102 0.950 . S
C1107 C1109 1.327 . S
C1107 C1113 1.429 . S
C1108 C1100 1.574 . S
C1108 H1103 0.949 . S
C1108 C1114 1.368 . S
C1109 C1093 1.349 . S
C1109 H1101 0.950 . S
C1109 C1107 1.327 . S
C1110 C1098 1.349 . S
C1110 H1104 0.950 . S
C1110 C1111 1.327 . S
C1111 H1105 0.950 . S
C1111 C1110 1.327 . S
C1111 C1115 1.429 . S
C1112 C1095 1.574 1_545 S
C1112 H1106 0.949 . S
C1112 C1116 1.368 . S
C1113 C1094 1.429 . S
C1113 C1107 1.429 . S
C1113 C1114 1.523 . S
C1114 C1095 1.368 . S
C1114 C1108 1.368 . S
C1114 C1113 1.523 . S
C1115 C1099 1.429 . S
C1115 C1111 1.429 . S
C1115 C1116 1.523 . S
C1116 C1100 1.368 1_545 S
C1116 C1112 1.368 . S
C1116 C1115 1.523 . S
H1117 C1092 0.950 . S
H1118 C1094 0.950 . S
H1119 C1095 0.949 . S
H1120 C1097 0.950 . S
H1121 C1099 0.950 . S
C1122 C1123 1.349 . S
C1122 C1124 1.327 . S
C1122 H1147 0.950 . S
C1123 C1122 1.349 . S
C1123 C1139 1.349 . S
C1124 C1122 1.327 . S
C1124 C1143 1.429 . S
C1124 H1148 0.950 . S
C1125 C1142 1.574 1_455 S
C1125 C1144 1.368 . S
C1125 H1149 0.949 . S
H1126 C1130 0.949 . S
C1127 C1128 1.349 . S
C1127 C1129 1.327 . S
C1127 H1150 0.950 . S
C1128 C1127 1.349 . S
C1128 C1140 1.349 . S
C1129 C1127 1.327 . S
C1129 C1145 1.429 . S
C1129 H1151 0.950 . S
C1130 H1126 0.949 . S
C1130 C1138 1.574 1_655 S
C1130 C1146 1.368 . S
H1131 C1139 0.950 . S
H1132 C1137 0.950 . S
H1133 C1138 0.949 . S
H1134 C1140 0.950 . S
H1135 C1141 0.950 . S
H1136 C1142 0.949 . S
C1137 H1132 0.950 . S
C1137 C1139 1.327 . S
C1137 C1143 1.429 . S
C1138 C1130 1.574 1_455 S
C1138 H1133 0.949 . S
C1138 C1144 1.368 . S
C1139 C1123 1.349 . S
C1139 H1131 0.950 . S
C1139 C1137 1.327 . S
C1140 C1128 1.349 . S
C1140 H1134 0.950 . S
C1140 C1141 1.327 . S
C1141 H1135 0.950 . S
C1141 C1140 1.327 . S
C1141 C1145 1.429 . S
C1142 C1125 1.574 1_655 S
C1142 H1136 0.949 . S
C1142 C1146 1.368 . S
C1143 C1124 1.429 . S
C1143 C1137 1.429 . S
C1143 C1144 1.523 . S
C1144 C1125 1.368 . S
C1144 C1138 1.368 . S
C1144 C1143 1.523 . S
C1145 C1129 1.429 . S
C1145 C1141 1.429 . S
C1145 C1146 1.523 . S
C1146 C1130 1.368 . S
C1146 C1142 1.368 . S
C1146 C1145 1.523 . S
H1147 C1122 0.950 . S
H1148 C1124 0.950 . S
H1149 C1125 0.949 . S
H1150 C1127 0.950 . S
H1151 C1129 0.950 . S
C1152 C1153 1.349 . S
C1152 C1154 1.327 . S
C1152 H1177 0.950 . S
C1153 C1152 1.349 . S
C1153 C1169 1.349 . S
C1154 C1152 1.327 . S
C1154 C1173 1.429 . S
C1154 H1178 0.950 . S
C1155 C1172 1.574 . S
C1155 C1174 1.368 . S
C1155 H1179 0.949 . S
H1156 C1160 0.949 . S
C1157 C1158 1.349 . S
C1157 C1159 1.327 . S
C1157 H1180 0.950 . S
C1158 C1157 1.349 . S
C1158 C1170 1.349 . S
C1159 C1157 1.327 . S
C1159 C1175 1.429 . S
C1159 H1181 0.950 . S
C1160 H1156 0.949 . S
C1160 C1168 1.574 . S
C1160 C1176 1.368 . S
H1161 C1169 0.950 . S
H1162 C1167 0.950 . S
H1163 C1168 0.949 . S
H1164 C1170 0.950 . S
H1165 C1171 0.950 . S
H1166 C1172 0.949 . S
C1167 H1162 0.950 . S
C1167 C1169 1.327 . S
C1167 C1173 1.429 . S
C1168 C1160 1.574 . S
C1168 H1163 0.949 . S
C1168 C1174 1.368 . S
C1169 C1153 1.349 . S
C1169 H1161 0.950 . S
C1169 C1167 1.327 . S
C1170 C1158 1.349 . S
C1170 H1164 0.950 . S
C1170 C1171 1.327 . S
C1171 H1165 0.950 . S
C1171 C1170 1.327 . S
C1171 C1175 1.429 . S
C1172 C1155 1.574 . S
C1172 H1166 0.949 . S
C1172 C1176 1.368 . S
C1173 C1154 1.429 . S
C1173 C1167 1.429 . S
C1173 C1174 1.523 . S
C1174 C1155 1.368 . S
C1174 C1168 1.368 . S
C1174 C1173 1.523 . S
C1175 C1159 1.429 . S
C1175 C1171 1.429 . S
C1175 C1176 1.523 . S
C1176 C1160 1.368 . S
C1176 C1172 1.368 . S
C1176 C1175 1.523 . S
H1177 C1152 0.950 . S
H1178 C1154 0.950 . S
H1179 C1155 0.949 . S
H1180 C1157 0.950 . S
H1181 C1159 0.950 . S
C1182 C1183 1.349 . S
C1182 C1184 1.327 . S
C1182 H1207 0.950 . S
C1183 C1182 1.349 . S
C1183 C1199 1.349 . S
C1184 C1182 1.327 . S
C1184 C1203 1.429 . S
C1184 H1208 0.950 . S
C1185 C1202 1.574 . S
C1185 C1204 1.368 . S
C1185 H1209 0.949 . S
H1186 C1190 0.949 . S
C1187 C1188 1.349 . S
C1187 C1189 1.327 . S
C1187 H1210 0.950 . S
C1188 C1187 1.349 . S
C1188 C1200 1.349 . S
C1189 C1187 1.327 . S
C1189 C1205 1.429 . S
C1189 H1211 0.950 . S
C1190 H1186 0.949 . S
C1190 C1198 1.574 . S
C1190 C1206 1.368 . S
H1191 C1199 0.950 . S
H1192 C1197 0.950 . S
H1193 C1198 0.949 . S
H1194 C1200 0.950 . S
H1195 C1201 0.950 . S
H1196 C1202 0.949 . S
C1197 H1192 0.950 . S
C1197 C1199 1.327 . S
C1197 C1203 1.429 . S
C1198 C1190 1.574 . S
C1198 H1193 0.949 . S
C1198 C1204 1.368 . S
C1199 C1183 1.349 . S
C1199 H1191 0.950 . S
C1199 C1197 1.327 . S
C1200 C1188 1.349 . S
C1200 H1194 0.950 . S
C1200 C1201 1.327 . S
C1201 H1195 0.950 . S
C1201 C1200 1.327 . S
C1201 C1205 1.429 . S
C1202 C1185 1.574 . S
C1202 H1196 0.949 . S
C1202 C1206 1.368 . S
C1203 C1184 1.429 . S
C1203 C1197 1.429 . S
C1203 C1204 1.523 . S
C1204 C1185 1.368 . S
C1204 C1198 1.368 . S
C1204 C1203 1.523 . S
C1205 C1189 1.429 . S
C1205 C1201 1.429 . S
C1205 C1206 1.523 . S
C1206 C1190 1.368 . S
C1206 C1202 1.368 . S
C1206 C1205 1.523 . S
H1207 C1182 0.950 . S
H1208 C1184 0.950 . S
H1209 C1185 0.949 . S
H1210 C1187 0.950 . S
H1211 C1189 0.950 . S
C1212 C1213 1.349 . S
C1212 C1214 1.327 . S
C1212 H1237 0.950 . S
C1213 C1212 1.349 . S
C1213 C1229 1.349 . S
C1214 C1212 1.327 . S
C1214 C1233 1.429 . S
C1214 H1238 0.950 . S
C1215 C1232 1.574 . S
C1215 C1234 1.368 . S
C1215 H1239 0.949 . S
H1216 C1220 0.949 . S
C1217 C1218 1.349 . S
C1217 C1219 1.327 . S
C1217 H1240 0.950 . S
C1218 C1217 1.349 . S
C1218 C1230 1.349 . S
C1219 C1217 1.327 . S
C1219 C1235 1.429 . S
C1219 H1241 0.950 . S
C1220 H1216 0.949 . S
C1220 C1228 1.574 . S
C1220 C1236 1.368 . S
H1221 C1229 0.950 . S
H1222 C1227 0.950 . S
H1223 C1228 0.949 . S
H1224 C1230 0.950 . S
H1225 C1231 0.950 . S
H1226 C1232 0.949 . S
C1227 H1222 0.950 . S
C1227 C1229 1.327 . S
C1227 C1233 1.429 . S
C1228 C1220 1.574 . S
C1228 H1223 0.949 . S
C1228 C1234 1.368 . S
C1229 C1213 1.349 . S
C1229 H1221 0.950 . S
C1229 C1227 1.327 . S
C1230 C1218 1.349 . S
C1230 H1224 0.950 . S
C1230 C1231 1.327 . S
C1231 H1225 0.950 . S
C1231 C1230 1.327 . S
C1231 C1235 1.429 . S
C1232 C1215 1.574 . S
C1232 H1226 0.949 . S
C1232 C1236 1.368 . S
C1233 C1214 1.429 . S
C1233 C1227 1.429 . S
C1233 C1234 1.523 . S
C1234 C1215 1.368 . S
C1234 C1228 1.368 . S
C1234 C1233 1.523 . S
C1235 C1219 1.429 . S
C1235 C1231 1.429 . S
C1235 C1236 1.523 . S
C1236 C1220 1.368 . S
C1236 C1232 1.368 . S
C1236 C1235 1.523 . S
H1237 C1212 0.950 . S
H1238 C1214 0.950 . S
H1239 C1215 0.949 . S
H1240 C1217 0.950 . S
H1241 C1219 0.950 . S
C1242 C1243 1.349 . S
C1242 C1244 1.327 . S
C1242 H1267 0.950 . S
C1243 C1242 1.349 . S
C1243 C1259 1.349 . S
C1244 C1242 1.327 . S
C1244 C1263 1.429 . S
C1244 H1268 0.950 . S
C1245 C1262 1.574 . S
C1245 C1264 1.368 . S
C1245 H1269 0.949 . S
H1246 C1250 0.949 . S
C1247 C1248 1.349 . S
C1247 C1249 1.327 . S
C1247 H1270 0.950 . S
C1248 C1247 1.349 . S
C1248 C1260 1.349 . S
C1249 C1247 1.327 . S
C1249 C1265 1.429 . S
C1249 H1271 0.950 . S
C1250 H1246 0.949 . S
C1250 C1258 1.574 . S
C1250 C1266 1.368 . S
H1251 C1259 0.950 . S
H1252 C1257 0.950 . S
H1253 C1258 0.949 . S
H1254 C1260 0.950 . S
H1255 C1261 0.950 . S
H1256 C1262 0.949 . S
C1257 H1252 0.950 . S
C1257 C1259 1.327 . S
C1257 C1263 1.429 . S
C1258 C1250 1.574 . S
C1258 H1253 0.949 . S
C1258 C1264 1.368 . S
C1259 C1243 1.349 . S
C1259 H1251 0.950 . S
C1259 C1257 1.327 . S
C1260 C1248 1.349 . S
C1260 H1254 0.950 . S
C1260 C1261 1.327 . S
C1261 H1255 0.950 . S
C1261 C1260 1.327 . S
C1261 C1265 1.429 . S
C1262 C1245 1.574 . S
C1262 H1256 0.949 . S
C1262 C1266 1.368 . S
C1263 C1244 1.429 . S
C1263 C1257 1.429 . S
C1263 C1264 1.523 . S
C1264 C1245 1.368 . S
C1264 C1258 1.368 . S
C1264 C1263 1.523 . S
C1265 C1249 1.429 . S
C1265 C1261 1.429 . S
C1265 C1266 1.523 . S
C1266 C1250 1.368 . S
C1266 C1262 1.368 . S
C1266 C1265 1.523 . S
H1267 C1242 0.950 . S
H1268 C1244 0.950 . S
H1269 C1245 0.949 . S
H1270 C1247 0.950 . S
H1271 C1249 0.950 . S
C1272 C1273 1.349 . S
C1272 C1274 1.327 . S
C1272 H1297 0.950 . S
C1273 C1272 1.349 . S
C1273 C1289 1.349 . S
C1274 C1272 1.327 . S
C1274 C1293 1.429 . S
C1274 H1298 0.950 . S
C1275 C1292 1.574 . S
C1275 C1294 1.368 . S
C1275 H1299 0.949 . S
H1276 C1280 0.949 . S
C1277 C1278 1.349 . S
C1277 C1279 1.327 . S
C1277 H1300 0.950 . S
C1278 C1277 1.349 . S
C1278 C1290 1.349 . S
C1279 C1277 1.327 . S
C1279 C1295 1.429 . S
C1279 H1301 0.950 . S
C1280 H1276 0.949 . S
C1280 C1288 1.574 . S
C1280 C1296 1.368 . S
H1281 C1289 0.950 . S
H1282 C1287 0.950 . S
H1283 C1288 0.949 . S
H1284 C1290 0.950 . S
H1285 C1291 0.950 . S
H1286 C1292 0.949 . S
C1287 H1282 0.950 . S
C1287 C1289 1.327 . S
C1287 C1293 1.429 . S
C1288 C1280 1.574 . S
C1288 H1283 0.949 . S
C1288 C1294 1.368 . S
C1289 C1273 1.349 . S
C1289 H1281 0.950 . S
C1289 C1287 1.327 . S
C1290 C1278 1.349 . S
C1290 H1284 0.950 . S
C1290 C1291 1.327 . S
C1291 H1285 0.950 . S
C1291 C1290 1.327 . S
C1291 C1295 1.429 . S
C1292 C1275 1.574 . S
C1292 H1286 0.949 . S
C1292 C1296 1.368 . S
C1293 C1274 1.429 . S
C1293 C1287 1.429 . S
C1293 C1294 1.523 . S
C1294 C1275 1.368 . S
C1294 C1288 1.368 . S
C1294 C1293 1.523 . S
C1295 C1279 1.429 . S
C1295 C1291 1.429 . S
C1295 C1296 1.523 . S
C1296 C1280 1.368 . S
C1296 C1292 1.368 . S
C1296 C1295 1.523 . S
H1297 C1272 0.950 . S
H1298 C1274 0.950 . S
H1299 C1275 0.949 . S
H1300 C1277 0.950 . S
H1301 C1279 0.950 . S
C1302 C1303 1.349 . S
C1302 C1304 1.327 . S
C1302 H1327 0.950 . S
C1303 C1302 1.349 . S
C1303 C1319 1.349 . S
C1304 C1302 1.327 . S
C1304 C1323 1.429 . S
C1304 H1328 0.950 . S
C1305 C1322 1.574 . S
C1305 C1324 1.368 . S
C1305 H1329 0.949 . S
H1306 C1310 0.949 . S
C1307 C1308 1.349 . S
C1307 C1309 1.327 . S
C1307 H1330 0.950 . S
C1308 C1307 1.349 . S
C1308 C1320 1.349 . S
C1309 C1307 1.327 . S
C1309 C1325 1.429 . S
C1309 H1331 0.950 . S
C1310 H1306 0.949 . S
C1310 C1318 1.574 . S
C1310 C1326 1.368 . S
H1311 C1319 0.950 . S
H1312 C1317 0.950 . S
H1313 C1318 0.949 . S
H1314 C1320 0.950 . S
H1315 C1321 0.950 . S
H1316 C1322 0.949 . S
C1317 H1312 0.950 . S
C1317 C1319 1.327 . S
C1317 C1323 1.429 . S
C1318 C1310 1.574 . S
C1318 H1313 0.949 . S
C1318 C1324 1.368 . S
C1319 C1303 1.349 . S
C1319 H1311 0.950 . S
C1319 C1317 1.327 . S
C1320 C1308 1.349 . S
C1320 H1314 0.950 . S
C1320 C1321 1.327 . S
C1321 H1315 0.950 . S
C1321 C1320 1.327 . S
C1321 C1325 1.429 . S
C1322 C1305 1.574 . S
C1322 H1316 0.949 . S
C1322 C1326 1.368 . S
C1323 C1304 1.429 . S
C1323 C1317 1.429 . S
C1323 C1324 1.523 . S
C1324 C1305 1.368 . S
C1324 C1318 1.368 . S
C1324 C1323 1.523 . S
C1325 C1309 1.429 . S
C1325 C1321 1.429 . S
C1325 C1326 1.523 . S
C1326 C1310 1.368 . S
C1326 C1322 1.368 . S
C1326 C1325 1.523 . S
H1327 C1302 0.950 . S
H1328 C1304 0.950 . S
H1329 C1305 0.949 . S
H1330 C1307 0.950 . S
H1331 C1309 0.950 . S
C1332 C1333 1.349 . S
C1332 C1334 1.327 . S
C1332 H1357 0.950 . S
C1333 C1332 1.349 . S
C1333 C1349 1.349 . S
C1334 C1332 1.327 . S
C1334 C1353 1.429 . S
C1334 H1358 0.950 . S
C1335 C1352 1.574 . S
C1335 C1354 1.368 . S
C1335 H1359 0.949 . S
H1336 C1340 0.949 . S
C1337 C1338 1.349 . S
C1337 C1339 1.327 . S
C1337 H1360 0.950 . S
C1338 C1337 1.349 . S
C1338 C1350 1.349 . S
C1339 C1337 1.327 . S
C1339 C1355 1.429 . S
C1339 H1361 0.950 . S
C1340 H1336 0.949 . S
C1340 C1348 1.574 . S
C1340 C1356 1.368 . S
H1341 C1349 0.950 . S
H1342 C1347 0.950 . S
H1343 C1348 0.949 . S
H1344 C1350 0.950 . S
H1345 C1351 0.950 . S
H1346 C1352 0.949 . S
C1347 H1342 0.950 . S
C1347 C1349 1.327 . S
C1347 C1353 1.429 . S
C1348 C1340 1.574 . S
C1348 H1343 0.949 . S
C1348 C1354 1.368 . S
C1349 C1333 1.349 . S
C1349 H1341 0.950 . S
C1349 C1347 1.327 . S
C1350 C1338 1.349 . S
C1350 H1344 0.950 . S
C1350 C1351 1.327 . S
C1351 H1345 0.950 . S
C1351 C1350 1.327 . S
C1351 C1355 1.429 . S
C1352 C1335 1.574 . S
C1352 H1346 0.949 . S
C1352 C1356 1.368 . S
C1353 C1334 1.429 . S
C1353 C1347 1.429 . S
C1353 C1354 1.523 . S
C1354 C1335 1.368 . S
C1354 C1348 1.368 . S
C1354 C1353 1.523 . S
C1355 C1339 1.429 . S
C1355 C1351 1.429 . S
C1355 C1356 1.523 . S
C1356 C1340 1.368 . S
C1356 C1352 1.368 . S
C1356 C1355 1.523 . S
H1357 C1332 0.950 . S
H1358 C1334 0.950 . S
H1359 C1335 0.949 . S
H1360 C1337 0.950 . S
H1361 C1339 0.950 . S
C1362 C1363 1.349 . S
C1362 C1364 1.327 . S
C1362 H1387 0.950 . S
C1363 C1362 1.349 . S
C1363 C1379 1.349 . S
C1364 C1362 1.327 . S
C1364 C1383 1.429 . S
C1364 H1388 0.950 . S
C1365 C1382 1.574 . S
C1365 C1384 1.368 . S
C1365 H1389 0.949 . S
H1366 C1370 0.949 . S
C1367 C1368 1.349 . S
C1367 C1369 1.327 . S
C1367 H1390 0.950 . S
C1368 C1367 1.349 . S
C1368 C1380 1.349 . S
C1369 C1367 1.327 . S
C1369 C1385 1.429 . S
C1369 H1391 0.950 . S
C1370 H1366 0.949 . S
C1370 C1378 1.574 . S
C1370 C1386 1.368 . S
H1371 C1379 0.950 . S
H1372 C1377 0.950 . S
H1373 C1378 0.949 . S
H1374 C1380 0.950 . S
H1375 C1381 0.950 . S
H1376 C1382 0.949 . S
C1377 H1372 0.950 . S
C1377 C1379 1.327 . S
C1377 C1383 1.429 . S
C1378 C1370 1.574 . S
C1378 H1373 0.949 . S
C1378 C1384 1.368 . S
C1379 C1363 1.349 . S
C1379 H1371 0.950 . S
C1379 C1377 1.327 . S
C1380 C1368 1.349 . S
C1380 H1374 0.950 . S
C1380 C1381 1.327 . S
C1381 H1375 0.950 . S
C1381 C1380 1.327 . S
C1381 C1385 1.429 . S
C1382 C1365 1.574 . S
C1382 H1376 0.949 . S
C1382 C1386 1.368 . S
C1383 C1364 1.429 . S
C1383 C1377 1.429 . S
C1383 C1384 1.523 . S
C1384 C1365 1.368 . S
C1384 C1378 1.368 . S
C1384 C1383 1.523 . S
C1385 C1369 1.429 . S
C1385 C1381 1.429 . S
C1385 C1386 1.523 . S
C1386 C1370 1.368 . S
C1386 C1382 1.368 . S
C1386 C1385 1.523 . S
H1387 C1362 0.950 . S
H1388 C1364 0.950 . S
H1389 C1365 0.949 . S
H1390 C1367 0.950 . S
H1391 C1369 0.950 . S
C1392 C1393 1.349 . S
C1392 C1394 1.327 . S
C1392 H1417 0.950 . S
C1393 C1392 1.349 . S
C1393 C1409 1.349 . S
C1394 C1392 1.327 . S
C1394 C1413 1.429 . S
C1394 H1418 0.950 . S
C1395 C1412 1.574 . S
C1395 C1414 1.368 . S
C1395 H1419 0.949 . S
H1396 C1400 0.949 . S
C1397 C1398 1.349 . S
C1397 C1399 1.327 . S
C1397 H1420 0.950 . S
C1398 C1397 1.349 . S
C1398 C1410 1.349 . S
C1399 C1397 1.327 . S
C1399 C1415 1.429 . S
C1399 H1421 0.950 . S
C1400 H1396 0.949 . S
C1400 C1408 1.574 . S
C1400 C1416 1.368 . S
H1401 C1409 0.950 . S
H1402 C1407 0.950 . S
H1403 C1408 0.949 . S
H1404 C1410 0.950 . S
H1405 C1411 0.950 . S
H1406 C1412 0.949 . S
C1407 H1402 0.950 . S
C1407 C1409 1.327 . S
C1407 C1413 1.429 . S
C1408 C1400 1.574 . S
C1408 H1403 0.949 . S
C1408 C1414 1.368 . S
C1409 C1393 1.349 . S
C1409 H1401 0.950 . S
C1409 C1407 1.327 . S
C1410 C1398 1.349 . S
C1410 H1404 0.950 . S
C1410 C1411 1.327 . S
C1411 H1405 0.950 . S
C1411 C1410 1.327 . S
C1411 C1415 1.429 . S
C1412 C1395 1.574 . S
C1412 H1406 0.949 . S
C1412 C1416 1.368 . S
C1413 C1394 1.429 . S
C1413 C1407 1.429 . S
C1413 C1414 1.523 . S
C1414 C1395 1.368 . S
C1414 C1408 1.368 . S
C1414 C1413 1.523 . S
C1415 C1399 1.429 . S
C1415 C1411 1.429 . S
C1415 C1416 1.523 . S
C1416 C1400 1.368 . S
C1416 C1412 1.368 . S
C1416 C1415 1.523 . S
H1417 C1392 0.950 . S
H1418 C1394 0.950 . S
H1419 C1395 0.949 . S
H1420 C1397 0.950 . S
H1421 C1399 0.950 . S
C1422 C1423 1.349 . S
C1422 C1424 1.327 . S
C1422 H1447 0.950 . S
C1423 C1422 1.349 . S
C1423 C1439 1.349 . S
C1424 C1422 1.327 . S
C1424 C1443 1.429 1_556 S
C1424 H1448 0.950 . S
C1425 C1442 1.574 . S
C1425 C1444 1.368 . S
C1425 H1449 0.949 . S
H1426 C1430 0.949 . S
C1427 C1428 1.349 . S
C1427 C1429 1.327 . S
C1427 H1450 0.950 . S
C1428 C1427 1.349 . S
C1428 C1440 1.349 . S
C1429 C1427 1.327 . S
C1429 C1445 1.429 . S
C1429 H1451 0.950 . S
C1430 H1426 0.949 . S
C1430 C1438 1.574 . S
C1430 C1446 1.368 . S
H1431 C1439 0.950 . S
H1432 C1437 0.950 . S
H1433 C1438 0.949 . S
H1434 C1440 0.950 . S
H1435 C1441 0.950 . S
H1436 C1442 0.949 . S
C1437 H1432 0.950 . S
C1437 C1439 1.327 1_554 S
C1437 C1443 1.429 . S
C1438 C1430 1.574 . S
C1438 H1433 0.949 . S
C1438 C1444 1.368 . S
C1439 C1423 1.349 . S
C1439 H1431 0.950 . S
C1439 C1437 1.327 1_556 S
C1440 C1428 1.349 . S
C1440 H1434 0.950 . S
C1440 C1441 1.327 . S
C1441 H1435 0.950 . S
C1441 C1440 1.327 . S
C1441 C1445 1.429 . S
C1442 C1425 1.574 . S
C1442 H1436 0.949 . S
C1442 C1446 1.368 . S
C1443 C1424 1.429 1_554 S
C1443 C1437 1.429 . S
C1443 C1444 1.523 . S
C1444 C1425 1.368 . S
C1444 C1438 1.368 . S
C1444 C1443 1.523 . S
C1445 C1429 1.429 . S
C1445 C1441 1.429 . S
C1445 C1446 1.523 . S
C1446 C1430 1.368 . S
C1446 C1442 1.368 . S
C1446 C1445 1.523 . S
H1447 C1422 0.950 . S
H1448 C1424 0.950 . S
H1449 C1425 0.949 . S
H1450 C1427 0.950 . S
H1451 C1429 0.950 . S
C1452 C1453 1.349 . S
C1452 C1454 1.327 . S
C1452 H1477 0.950 . S
C1453 C1452 1.349 . S
C1453 C1469 1.349 . S
C1454 C1452 1.327 . S
C1454 C1473 1.429 1_556 S
C1454 H1478 0.950 . S
C1455 C1472 1.574 . S
C1455 C1474 1.368 . S
C1455 H1479 0.949 . S
H1456 C1460 0.949 . S
C1457 C1458 1.349 . S
C1457 C1459 1.327 . S
C1457 H1480 0.950 . S
C1458 C1457 1.349 . S
C1458 C1470 1.349 . S
C1459 C1457 1.327 . S
C1459 C1475 1.429 . S
C1459 H1481 0.950 . S
C1460 H1456 0.949 . S
C1460 C1468 1.574 . S
C1460 C1476 1.368 . S
H1461 C1469 0.950 . S
H1462 C1467 0.950 . S
H1463 C1468 0.949 . S
H1464 C1470 0.950 . S
H1465 C1471 0.950 . S
H1466 C1472 0.949 . S
C1467 H1462 0.950 . S
C1467 C1469 1.327 1_554 S
C1467 C1473 1.429 . S
C1468 C1460 1.574 . S
C1468 H1463 0.949 . S
C1468 C1474 1.368 . S
C1469 C1453 1.349 . S
C1469 H1461 0.950 . S
C1469 C1467 1.327 1_556 S
C1470 C1458 1.349 . S
C1470 H1464 0.950 . S
C1470 C1471 1.327 . S
C1471 H1465 0.950 . S
C1471 C1470 1.327 . S
C1471 C1475 1.429 . S
C1472 C1455 1.574 . S
C1472 H1466 0.949 . S
C1472 C1476 1.368 . S
C1473 C1454 1.429 1_554 S
C1473 C1467 1.429 . S
C1473 C1474 1.523 . S
C1474 C1455 1.368 . S
C1474 C1468 1.368 . S
C1474 C1473 1.523 . S
C1475 C1459 1.429 . S
C1475 C1471 1.429 . S
C1475 C1476 1.523 . S
C1476 C1460 1.368 . S
C1476 C1472 1.368 . S
C1476 C1475 1.523 . S
H1477 C1452 0.950 . S
H1478 C1454 0.950 . S
H1479 C1455 0.949 . S
H1480 C1457 0.950 . S
H1481 C1459 0.950 . S
C1482 C1483 1.349 . S
C1482 C1484 1.327 1_556 S
C1482 H1507 0.950 . S
C1483 C1482 1.349 . S
C1483 C1499 1.349 . S
C1484 C1482 1.327 1_554 S
C1484 C1503 1.429 . S
C1484 H1508 0.950 . S
C1485 C1502 1.574 . S
C1485 C1504 1.368 . S
C1485 H1509 0.949 . S
H1486 C1490 0.949 . S
C1487 C1488 1.349 . S
C1487 C1489 1.327 . S
C1487 H1510 0.950 . S
C1488 C1487 1.349 . S
C1488 C1500 1.349 . S
C1489 C1487 1.327 . S
C1489 C1505 1.429 . S
C1489 H1511 0.950 . S
C1490 H1486 0.949 . S
C1490 C1498 1.574 . S
C1490 C1506 1.368 . S
H1491 C1499 0.950 . S
H1492 C1497 0.950 . S
H1493 C1498 0.949 . S
H1494 C1500 0.950 . S
H1495 C1501 0.950 . S
H1496 C1502 0.949 . S
C1497 H1492 0.950 . S
C1497 C1499 1.327 . S
C1497 C1503 1.429 1_556 S
C1498 C1490 1.574 . S
C1498 H1493 0.949 . S
C1498 C1504 1.368 . S
C1499 C1483 1.349 . S
C1499 H1491 0.950 . S
C1499 C1497 1.327 . S
C1500 C1488 1.349 . S
C1500 H1494 0.950 . S
C1500 C1501 1.327 . S
C1501 H1495 0.950 . S
C1501 C1500 1.327 . S
C1501 C1505 1.429 . S
C1502 C1485 1.574 . S
C1502 H1496 0.949 . S
C1502 C1506 1.368 . S
C1503 C1484 1.429 . S
C1503 C1497 1.429 1_554 S
C1503 C1504 1.523 . S
C1504 C1485 1.368 . S
C1504 C1498 1.368 . S
C1504 C1503 1.523 . S
C1505 C1489 1.429 . S
C1505 C1501 1.429 . S
C1505 C1506 1.523 . S
C1506 C1490 1.368 . S
C1506 C1502 1.368 . S
C1506 C1505 1.523 . S
H1507 C1482 0.950 . S
H1508 C1484 0.950 . S
H1509 C1485 0.949 . S
H1510 C1487 0.950 . S
H1511 C1489 0.950 . S
C1512 C1513 1.349 . S
C1512 C1514 1.327 . S
C1512 H1537 0.950 . S
C1513 C1512 1.349 . S
C1513 C1529 1.349 . S
C1514 C1512 1.327 . S
C1514 C1533 1.429 . S
C1514 H1538 0.950 . S
C1515 C1532 1.574 . S
C1515 C1534 1.368 . S
C1515 H1539 0.949 . S
H1516 C1520 0.949 . S
C1517 C1518 1.349 . S
C1517 C1519 1.327 . S
C1517 H1540 0.950 . S
C1518 C1517 1.349 . S
C1518 C1530 1.349 . S
C1519 C1517 1.327 . S
C1519 C1535 1.413 1_554 S
C1519 H1541 0.950 . S
C1520 H1516 0.949 . S
C1520 C1528 1.574 . S
C1520 C1536 1.368 . S
H1521 C1529 0.950 . S
H1522 C1527 0.950 . S
H1523 C1528 0.949 . S
H1524 C1530 0.950 . S
H1525 C1531 0.950 1_556 S
H1526 C1532 0.949 . S
C1527 H1522 0.950 . S
C1527 C1529 1.327 . S
C1527 C1533 1.429 . S
C1528 C1520 1.574 . S
C1528 H1523 0.949 . S
C1528 C1534 1.368 . S
C1529 C1513 1.349 . S
C1529 H1521 0.950 . S
C1529 C1527 1.327 . S
C1530 C1518 1.349 . S
C1530 H1524 0.950 . S
C1530 C1531 1.327 . S
C1531 H1525 0.950 1_554 S
C1531 C1530 1.327 . S
C1531 C1535 1.420 1_554 S
C1532 C1515 1.574 . S
C1532 H1526 0.949 . S
C1532 C1536 1.368 . S
C1533 C1514 1.429 . S
C1533 C1527 1.429 . S
C1533 C1534 1.523 . S
C1534 C1515 1.368 . S
C1534 C1528 1.368 . S
C1534 C1533 1.523 . S
C1535 C1519 1.413 1_556 S
C1535 C1531 1.420 1_556 S
C1535 C1536 1.546 . S
C1536 C1520 1.368 . S
C1536 C1532 1.368 . S
C1536 C1535 1.546 . S
H1537 C1512 0.950 . S
H1538 C1514 0.950 . S
H1539 C1515 0.949 . S
H1540 C1517 0.950 . S
H1541 C1519 0.950 . S
C1542 C1543 1.349 . S
C1542 C1544 1.327 . S
C1542 H1567 0.950 . S
C1543 C1542 1.349 . S
C1543 C1559 1.349 . S
C1544 C1542 1.327 . S
C1544 C1563 1.429 . S
C1544 H1568 0.950 . S
C1545 C1562 1.574 . S
C1545 C1564 1.368 . S
C1545 H1569 0.949 . S
H1546 C1550 0.949 . S
C1547 C1548 1.349 . S
C1547 C1549 1.327 . S
C1547 H1570 0.950 . S
C1548 C1547 1.349 . S
C1548 C1560 1.349 . S
C1549 C1547 1.327 . S
C1549 C1565 1.410 1_554 S
C1549 H1571 0.950 . S
C1550 H1546 0.949 . S
C1550 C1558 1.574 . S
C1550 C1566 1.368 . S
H1551 C1559 0.950 . S
H1552 C1557 0.950 . S
H1553 C1558 0.949 . S
H1554 C1560 0.950 . S
H1555 C1561 0.950 1_556 S
H1556 C1562 0.949 . S
C1557 H1552 0.950 . S
C1557 C1559 1.327 . S
C1557 C1563 1.429 . S
C1558 C1550 1.574 . S
C1558 H1553 0.949 . S
C1558 C1564 1.368 . S
C1559 C1543 1.349 . S
C1559 H1551 0.950 . S
C1559 C1557 1.327 . S
C1560 C1548 1.349 . S
C1560 H1554 0.950 . S
C1560 C1561 1.327 . S
C1561 H1555 0.950 1_554 S
C1561 C1560 1.327 . S
C1561 C1565 1.422 1_554 S
C1562 C1545 1.574 . S
C1562 H1556 0.949 . S
C1562 C1566 1.368 . S
C1563 C1544 1.429 . S
C1563 C1557 1.429 . S
C1563 C1564 1.523 . S
C1564 C1545 1.368 . S
C1564 C1558 1.368 . S
C1564 C1563 1.523 . S
C1565 C1549 1.410 1_556 S
C1565 C1561 1.422 1_556 S
C1565 C1566 1.546 . S
C1566 C1550 1.368 . S
C1566 C1562 1.368 . S
C1566 C1565 1.546 . S
H1567 C1542 0.950 . S
H1568 C1544 0.950 . S
H1569 C1545 0.949 . S
H1570 C1547 0.950 . S
H1571 C1549 0.950 . S
C1572 C1573 1.349 . S
C1572 C1574 1.327 . S
C1572 H1597 0.950 . S
C1573 C1572 1.349 . S
C1573 C1589 1.349 . S
C1574 C1572 1.327 . S
C1574 C1593 1.429 . S
C1574 H1598 0.950 . S
C1575 C1592 1.574 . S
C1575 C1594 1.368 . S
C1575 H1599 0.949 . S
H1576 C1580 0.949 . S
C1577 C1578 1.349 . S
C1577 C1579 1.327 . S
C1577 H1600 0.950 . S
C1578 C1577 1.349 . S
C1578 C1590 1.349 . S
C1579 C1577 1.327 . S
C1579 C1595 1.417 1_554 S
C1579 H1601 0.950 . S
C1580 H1576 0.949 . S
C1580 C1588 1.574 . S
C1580 C1596 1.368 . S
H1581 C1589 0.950 . S
H1582 C1587 0.950 . S
H1583 C1588 0.949 . S
H1584 C1590 0.950 . S
H1585 C1591 0.950 . S
H1586 C1592 0.949 . S
C1587 H1582 0.950 . S
C1587 C1589 1.327 . S
C1587 C1593 1.429 . S
C1588 C1580 1.574 . S
C1588 H1583 0.949 . S
C1588 C1594 1.368 . S
C1589 C1573 1.349 . S
C1589 H1581 0.950 . S
C1589 C1587 1.327 . S
C1590 C1578 1.349 . S
C1590 H1584 0.950 . S
C1590 C1591 1.327 . S
C1591 H1585 0.950 . S
C1591 C1590 1.327 . S
C1591 C1595 1.415 1_554 S
C1592 C1575 1.574 . S
C1592 H1586 0.949 . S
C1592 C1596 1.368 . S
C1593 C1574 1.429 . S
C1593 C1587 1.429 . S
C1593 C1594 1.523 . S
C1594 C1575 1.368 . S
C1594 C1588 1.368 . S
C1594 C1593 1.523 . S
C1595 C1579 1.417 1_556 S
C1595 C1591 1.415 1_556 S
C1595 C1596 1.546 . S
C1596 C1580 1.368 . S
C1596 C1592 1.368 . S
C1596 C1595 1.546 . S
H1597 C1572 0.950 . S
H1598 C1574 0.950 . S
H1599 C1575 0.949 . S
H1600 C1577 0.950 . S
H1601 C1579 0.950 . S
C1602 C1603 1.349 . S
C1602 C1604 1.327 . S
C1602 H1627 0.950 . S
C1603 C1602 1.349 . S
C1603 C1619 1.349 . S
C1604 C1602 1.327 . S
C1604 C1623 1.429 . S
C1604 H1628 0.950 . S
C1605 C1622 1.574 . S
C1605 C1624 1.368 . S
C1605 H1629 0.949 . S
H1606 C1610 0.949 . S
C1607 C1608 1.349 . S
C1607 C1609 1.327 . S
C1607 H1630 0.950 . S
C1608 C1607 1.349 . S
C1608 C1620 1.349 . S
C1609 C1607 1.327 . S
C1609 C1625 1.429 . S
C1609 H1631 0.950 . S
C1610 H1606 0.949 . S
C1610 C1618 1.574 . S
C1610 C1626 1.368 . S
H1611 C1619 0.950 . S
H1612 C1617 0.950 . S
H1613 C1618 0.949 . S
H1614 C1620 0.950 . S
H1615 C1621 0.950 . S
H1616 C1622 0.949 . S
C1617 H1612 0.950 . S
C1617 C1619 1.327 . S
C1617 C1623 1.429 . S
C1618 C1610 1.574 . S
C1618 H1613 0.949 . S
C1618 C1624 1.368 . S
C1619 C1603 1.349 . S
C1619 H1611 0.950 . S
C1619 C1617 1.327 . S
C1620 C1608 1.349 . S
C1620 H1614 0.950 . S
C1620 C1621 1.327 . S
C1621 H1615 0.950 . S
C1621 C1620 1.327 . S
C1621 C1625 1.429 . S
C1622 C1605 1.574 . S
C1622 H1616 0.949 . S
C1622 C1626 1.368 . S
C1623 C1604 1.429 . S
C1623 C1617 1.429 . S
C1623 C1624 1.523 . S
C1624 C1605 1.368 . S
C1624 C1618 1.368 . S
C1624 C1623 1.523 . S
C1625 C1609 1.429 . S
C1625 C1621 1.429 . S
C1625 C1626 1.523 . S
C1626 C1610 1.368 . S
C1626 C1622 1.368 . S
C1626 C1625 1.523 . S
H1627 C1602 0.950 . S
H1628 C1604 0.950 . S
H1629 C1605 0.949 . S
H1630 C1607 0.950 . S
H1631 C1609 0.950 . S
C1632 C1633 1.349 . S
C1632 C1634 1.327 . S
C1632 H1657 0.950 . S
C1633 C1632 1.349 . S
C1633 C1649 1.349 . S
C1634 C1632 1.327 . S
C1634 C1653 1.429 . S
C1634 H1658 0.950 . S
C1635 C1652 1.574 . S
C1635 C1654 1.368 . S
C1635 H1659 0.949 . S
H1636 C1640 0.949 . S
C1637 C1638 1.349 . S
C1637 C1639 1.327 . S
C1637 H1660 0.950 . S
C1638 C1637 1.349 . S
C1638 C1650 1.349 . S
C1639 C1637 1.327 . S
C1639 C1655 1.429 . S
C1639 H1661 0.950 . S
C1640 H1636 0.949 . S
C1640 C1648 1.574 . S
C1640 C1656 1.368 . S
H1641 C1649 0.950 . S
H1642 C1647 0.950 . S
H1643 C1648 0.949 . S
H1644 C1650 0.950 . S
H1645 C1651 0.950 . S
H1646 C1652 0.949 . S
C1647 H1642 0.950 . S
C1647 C1649 1.327 . S
C1647 C1653 1.429 . S
C1648 C1640 1.574 . S
C1648 H1643 0.949 . S
C1648 C1654 1.368 . S
C1649 C1633 1.349 . S
C1649 H1641 0.950 . S
C1649 C1647 1.327 . S
C1650 C1638 1.349 . S
C1650 H1644 0.950 . S
C1650 C1651 1.327 . S
C1651 H1645 0.950 . S
C1651 C1650 1.327 . S
C1651 C1655 1.429 . S
C1652 C1635 1.574 . S
C1652 H1646 0.949 . S
C1652 C1656 1.368 . S
C1653 C1634 1.429 . S
C1653 C1647 1.429 . S
C1653 C1654 1.523 . S
C1654 C1635 1.368 . S
C1654 C1648 1.368 . S
C1654 C1653 1.523 . S
C1655 C1639 1.429 . S
C1655 C1651 1.429 . S
C1655 C1656 1.523 . S
C1656 C1640 1.368 . S
C1656 C1652 1.368 . S
C1656 C1655 1.523 . S
H1657 C1632 0.950 . S
H1658 C1634 0.950 . S
H1659 C1635 0.949 . S
H1660 C1637 0.950 . S
H1661 C1639 0.950 . S
C1662 C1663 1.349 . S
C1662 C1664 1.327 . S
C1662 H1687 0.950 . S
C1663 C1662 1.349 . S
C1663 C1679 1.349 . S
C1664 C1662 1.327 . S
C1664 C1683 1.429 . S
C1664 H1688 0.950 . S
C1665 C1682 1.574 . S
C1665 C1684 1.368 . S
C1665 H1689 0.949 . S
H1666 C1670 0.949 . S
C1667 C1668 1.349 . S
C1667 C1669 1.327 . S
C1667 H1690 0.950 . S
C1668 C1667 1.349 . S
C1668 C1680 1.349 . S
C1669 C1667 1.327 . S
C1669 C1685 1.429 . S
C1669 H1691 0.950 . S
C1670 H1666 0.949 . S
C1670 C1678 1.574 . S
C1670 C1686 1.368 . S
H1671 C1679 0.950 . S
H1672 C1677 0.950 . S
H1673 C1678 0.949 . S
H1674 C1680 0.950 . S
H1675 C1681 0.950 . S
H1676 C1682 0.949 . S
C1677 H1672 0.950 . S
C1677 C1679 1.327 . S
C1677 C1683 1.429 . S
C1678 C1670 1.574 . S
C1678 H1673 0.949 . S
C1678 C1684 1.368 . S
C1679 C1663 1.349 . S
C1679 H1671 0.950 . S
C1679 C1677 1.327 . S
C1680 C1668 1.349 . S
C1680 H1674 0.950 . S
C1680 C1681 1.327 . S
C1681 H1675 0.950 . S
C1681 C1680 1.327 . S
C1681 C1685 1.429 . S
C1682 C1665 1.574 . S
C1682 H1676 0.949 . S
C1682 C1686 1.368 . S
C1683 C1664 1.429 . S
C1683 C1677 1.429 . S
C1683 C1684 1.523 . S
C1684 C1665 1.368 . S
C1684 C1678 1.368 . S
C1684 C1683 1.523 . S
C1685 C1669 1.429 . S
C1685 C1681 1.429 . S
C1685 C1686 1.523 . S
C1686 C1670 1.368 . S
C1686 C1682 1.368 . S
C1686 C1685 1.523 . S
H1687 C1662 0.950 . S
H1688 C1664 0.950 . S
H1689 C1665 0.949 . S
H1690 C1667 0.950 . S
H1691 C1669 0.950 . S
C1692 C1693 1.349 . S
C1692 C1694 1.327 . S
C1692 H1717 0.950 . S
C1693 C1692 1.349 . S
C1693 C1709 1.349 . S
C1694 C1692 1.327 . S
C1694 C1713 1.429 . S
C1694 H1718 0.950 . S
C1695 C1712 1.574 . S
C1695 C1714 1.368 . S
C1695 H1719 0.949 . S
H1696 C1700 0.949 . S
C1697 C1698 1.349 . S
C1697 C1699 1.327 1_545 S
C1697 H1720 0.950 . S
C1698 C1697 1.349 . S
C1698 C1710 1.349 1_545 S
C1699 C1697 1.327 1_565 S
C1699 C1715 1.429 . S
C1699 H1721 0.950 . S
C1700 H1696 0.949 . S
C1700 C1708 1.574 . S
C1700 C1716 1.368 . S
H1701 C1709 0.950 . S
H1702 C1707 0.950 . S
H1703 C1708 0.949 . S
H1704 C1710 0.950 1_554 S
H1705 C1711 0.950 1_554 S
H1706 C1712 0.949 . S
C1707 H1702 0.950 . S
C1707 C1709 1.327 . S
C1707 C1713 1.429 . S
C1708 C1700 1.574 . S
C1708 H1703 0.949 . S
C1708 C1714 1.368 . S
C1709 C1693 1.349 . S
C1709 H1701 0.950 . S
C1709 C1707 1.327 . S
C1710 C1698 1.349 1_565 S
C1710 H1704 0.950 1_556 S
C1710 C1711 1.327 . S
C1711 H1705 0.950 1_556 S
C1711 C1710 1.327 . S
C1711 C1715 1.429 . S
C1712 C1695 1.574 . S
C1712 H1706 0.949 . S
C1712 C1716 1.368 . S
C1713 C1694 1.429 . S
C1713 C1707 1.429 . S
C1713 C1714 1.523 . S
C1714 C1695 1.368 . S
C1714 C1708 1.368 . S
C1714 C1713 1.523 . S
C1715 C1699 1.429 . S
C1715 C1711 1.429 . S
C1715 C1716 1.523 . S
C1716 C1700 1.368 . S
C1716 C1712 1.368 . S
C1716 C1715 1.523 . S
H1717 C1692 0.950 . S
H1718 C1694 0.950 . S
H1719 C1695 0.949 . S
H1720 C1697 0.950 . S
H1721 C1699 0.950 . S
C1722 C1723 1.360 . S
C1722 C1724 1.314 1_655 S
C1722 H1747 0.952 1_556 S
C1723 C1722 1.360 . S
C1723 C1739 1.349 . S
C1724 C1722 1.314 1_455 S
C1724 C1743 1.429 . S
C1724 H1748 0.950 1_556 S
C1725 C1742 1.574 . S
C1725 C1744 1.368 . S
C1725 H1749 0.949 . S
H1726 C1730 0.949 . S
C1727 C1728 1.349 . S
C1727 C1729 1.327 . S
C1727 H1750 0.950 . S
C1728 C1727 1.349 . S
C1728 C1740 1.349 . S
C1729 C1727 1.327 . S
C1729 C1745 1.429 . S
C1729 H1751 0.950 . S
C1730 H1726 0.949 . S
C1730 C1738 1.574 . S
C1730 C1746 1.368 . S
H1731 C1739 0.950 . S
H1732 C1737 0.950 . S
H1733 C1738 0.949 . S
H1734 C1740 0.950 . S
H1735 C1741 0.950 . S
H1736 C1742 0.949 . S
C1737 H1732 0.950 . S
C1737 C1739 1.327 1_455 S
C1737 C1743 1.429 . S
C1738 C1730 1.574 . S
C1738 H1733 0.949 . S
C1738 C1744 1.368 . S
C1739 C1723 1.349 . S
C1739 H1731 0.950 . S
C1739 C1737 1.327 1_655 S
C1740 C1728 1.349 . S
C1740 H1734 0.950 . S
C1740 C1741 1.327 . S
C1741 H1735 0.950 . S
C1741 C1740 1.327 . S
C1741 C1745 1.429 . S
C1742 C1725 1.574 . S
C1742 H1736 0.949 . S
C1742 C1746 1.368 . S
C1743 C1724 1.429 . S
C1743 C1737 1.429 . S
C1743 C1744 1.523 . S
C1744 C1725 1.368 . S
C1744 C1738 1.368 . S
C1744 C1743 1.523 . S
C1745 C1729 1.429 . S
C1745 C1741 1.429 . S
C1745 C1746 1.523 . S
C1746 C1730 1.368 . S
C1746 C1742 1.368 . S
C1746 C1745 1.523 . S
H1747 C1722 0.952 1_554 S
H1748 C1724 0.950 1_554 S
H1749 C1725 0.949 . S
H1750 C1727 0.950 . S
H1751 C1729 0.950 . S
C1752 C1753 1.349 . S
C1752 C1754 1.327 . S
C1752 H1777 0.950 . S
C1753 C1752 1.349 . S
C1753 C1769 1.349 . S
C1754 C1752 1.327 . S
C1754 C1773 1.429 . S
C1754 H1778 0.950 . S
C1755 C1772 1.574 . S
C1755 C1774 1.368 . S
C1755 H1779 0.949 . S
H1756 C1760 0.949 . S
C1757 C1758 1.349 . S
C1757 C1759 1.327 . S
C1757 H1780 0.950 1_556 S
C1758 C1757 1.349 . S
C1758 C1770 1.349 . S
C1759 C1757 1.327 . S
C1759 C1775 1.429 . S
C1759 H1781 0.950 . S
C1760 H1756 0.949 . S
C1760 C1768 1.574 . S
C1760 C1776 1.368 . S
H1761 C1769 0.950 . S
H1762 C1767 0.950 . S
H1763 C1768 0.949 . S
H1764 C1770 0.950 . S
H1765 C1771 0.950 . S
H1766 C1772 0.949 . S
C1767 H1762 0.950 . S
C1767 C1769 1.327 . S
C1767 C1773 1.429 . S
C1768 C1760 1.574 . S
C1768 H1763 0.949 . S
C1768 C1774 1.368 . S
C1769 C1753 1.349 . S
C1769 H1761 0.950 . S
C1769 C1767 1.327 . S
C1770 C1758 1.349 . S
C1770 H1764 0.950 . S
C1770 C1771 1.327 . S
C1771 H1765 0.950 . S
C1771 C1770 1.327 . S
C1771 C1775 1.429 . S
C1772 C1755 1.574 . S
C1772 H1766 0.949 . S
C1772 C1776 1.368 . S
C1773 C1754 1.429 . S
C1773 C1767 1.429 . S
C1773 C1774 1.523 . S
C1774 C1755 1.368 . S
C1774 C1768 1.368 . S
C1774 C1773 1.523 . S
C1775 C1759 1.429 . S
C1775 C1771 1.429 . S
C1775 C1776 1.523 . S
C1776 C1760 1.368 . S
C1776 C1772 1.368 . S
C1776 C1775 1.523 . S
H1777 C1752 0.950 . S
H1778 C1754 0.950 . S
H1779 C1755 0.949 . S
H1780 C1757 0.950 1_554 S
H1781 C1759 0.950 . S
C1782 C1783 1.349 . S
C1782 C1784 1.327 1_655 S
C1782 H1807 0.950 . S
C1783 C1782 1.349 . S
C1783 C1799 1.349 . S
C1784 C1782 1.327 1_455 S
C1784 C1803 1.429 . S
C1784 H1808 0.950 . S
C1785 C1802 1.574 . S
C1785 C1804 1.368 . S
C1785 H1809 0.949 . S
H1786 C1790 0.949 . S
C1787 C1788 1.349 . S
C1787 C1789 1.327 . S
C1787 H1810 0.950 . S
C1788 C1787 1.349 . S
C1788 C1800 1.349 . S
C1789 C1787 1.327 . S
C1789 C1805 1.429 . S
C1789 H1811 0.950 . S
C1790 H1786 0.949 . S
C1790 C1798 1.574 . S
C1790 C1806 1.368 . S
H1791 C1799 0.950 . S
H1792 C1797 0.950 . S
H1793 C1798 0.949 . S
H1794 C1800 0.950 . S
H1795 C1801 0.950 . S
H1796 C1802 0.949 . S
C1797 H1792 0.950 . S
C1797 C1799 1.327 1_455 S
C1797 C1803 1.429 . S
C1798 C1790 1.574 . S
C1798 H1793 0.949 . S
C1798 C1804 1.368 . S
C1799 C1783 1.349 . S
C1799 H1791 0.950 . S
C1799 C1797 1.327 1_655 S
C1800 C1788 1.349 . S
C1800 H1794 0.950 . S
C1800 C1801 1.327 . S
C1801 H1795 0.950 . S
C1801 C1800 1.327 . S
C1801 C1805 1.429 . S
C1802 C1785 1.574 . S
C1802 H1796 0.949 . S
C1802 C1806 1.368 . S
C1803 C1784 1.429 . S
C1803 C1797 1.429 . S
C1803 C1804 1.523 . S
C1804 C1785 1.368 . S
C1804 C1798 1.368 . S
C1804 C1803 1.523 . S
C1805 C1789 1.429 . S
C1805 C1801 1.429 . S
C1805 C1806 1.523 . S
C1806 C1790 1.368 . S
C1806 C1802 1.368 . S
C1806 C1805 1.523 . S
H1807 C1782 0.950 . S
H1808 C1784 0.950 . S
H1809 C1785 0.949 . S
H1810 C1787 0.950 . S
H1811 C1789 0.950 . S
C1812 C1813 1.349 . S
C1812 C1814 1.327 . S
C1812 H1837 0.950 . S
C1813 C1812 1.349 . S
C1813 C1829 1.349 . S
C1814 C1812 1.327 . S
C1814 C1833 1.429 . S
C1814 H1838 0.950 . S
C1815 C1832 1.574 . S
C1815 C1834 1.368 . S
C1815 H1839 0.949 . S
H1816 C1820 0.949 . S
C1817 C1818 1.349 . S
C1817 C1819 1.327 . S
C1817 H1840 0.950 . S
C1818 C1817 1.349 . S
C1818 C1830 1.349 . S
C1819 C1817 1.327 . S
C1819 C1835 1.429 . S
C1819 H1841 0.950 . S
C1820 H1816 0.949 . S
C1820 C1828 1.574 . S
C1820 C1836 1.368 . S
H1821 C1829 0.950 . S
H1822 C1827 0.950 . S
H1823 C1828 0.949 . S
H1824 C1830 0.950 . S
H1825 C1831 0.950 . S
H1826 C1832 0.949 . S
C1827 H1822 0.950 . S
C1827 C1829 1.327 . S
C1827 C1833 1.429 . S
C1828 C1820 1.574 . S
C1828 H1823 0.949 . S
C1828 C1834 1.368 . S
C1829 C1813 1.349 . S
C1829 H1821 0.950 . S
C1829 C1827 1.327 . S
C1830 C1818 1.349 . S
C1830 H1824 0.950 . S
C1830 C1831 1.327 . S
C1831 H1825 0.950 . S
C1831 C1830 1.327 . S
C1831 C1835 1.429 . S
C1832 C1815 1.574 . S
C1832 H1826 0.949 . S
C1832 C1836 1.368 . S
C1833 C1814 1.429 . S
C1833 C1827 1.429 . S
C1833 C1834 1.523 . S
C1834 C1815 1.368 . S
C1834 C1828 1.368 . S
C1834 C1833 1.523 . S
C1835 C1819 1.429 . S
C1835 C1831 1.429 . S
C1835 C1836 1.523 . S
C1836 C1820 1.368 . S
C1836 C1832 1.368 . S
C1836 C1835 1.523 . S
H1837 C1812 0.950 . S
H1838 C1814 0.950 . S
H1839 C1815 0.949 . S
H1840 C1817 0.950 . S
H1841 C1819 0.950 . S
C1842 C1843 1.349 . S
C1842 C1844 1.327 . S
C1842 H1867 0.950 . S
C1843 C1842 1.349 . S
C1843 C1859 1.349 . S
C1844 C1842 1.327 . S
C1844 C1863 1.429 . S
C1844 H1868 0.950 . S
C1845 C1862 1.574 . S
C1845 C1864 1.368 . S
C1845 H1869 0.949 . S
H1846 C1850 0.949 . S
C1847 C1848 1.349 . S
C1847 C1849 1.327 1_545 S
C1847 H1870 0.950 . S
C1848 C1847 1.349 . S
C1848 C1860 1.349 . S
C1849 C1847 1.327 1_565 S
C1849 C1865 1.429 . S
C1849 H1871 0.950 . S
C1850 H1846 0.949 . S
C1850 C1858 1.574 . S
C1850 C1866 1.368 . S
H1851 C1859 0.950 . S
H1852 C1857 0.950 . S
H1853 C1858 0.949 . S
H1854 C1860 0.950 . S
H1855 C1861 0.950 . S
H1856 C1862 0.949 . S
C1857 H1852 0.950 . S
C1857 C1859 1.327 . S
C1857 C1863 1.429 . S
C1858 C1850 1.574 . S
C1858 H1853 0.949 . S
C1858 C1864 1.368 . S
C1859 C1843 1.349 . S
C1859 H1851 0.950 . S
C1859 C1857 1.327 . S
C1860 C1848 1.349 . S
C1860 H1854 0.950 . S
C1860 C1861 1.327 1_545 S
C1861 H1855 0.950 . S
C1861 C1860 1.327 1_565 S
C1861 C1865 1.429 . S
C1862 C1845 1.574 . S
C1862 H1856 0.949 . S
C1862 C1866 1.368 . S
C1863 C1844 1.429 . S
C1863 C1857 1.429 . S
C1863 C1864 1.523 . S
C1864 C1845 1.368 . S
C1864 C1858 1.368 . S
C1864 C1863 1.523 . S
C1865 C1849 1.429 . S
C1865 C1861 1.429 . S
C1865 C1866 1.523 . S
C1866 C1850 1.368 . S
C1866 C1862 1.368 . S
C1866 C1865 1.523 . S
H1867 C1842 0.950 . S
H1868 C1844 0.950 . S
H1869 C1845 0.949 . S
H1870 C1847 0.950 . S
H1871 C1849 0.950 . S
C1872 C1873 1.349 . S
C1872 C1874 1.327 . S
C1872 H1897 0.950 . S
C1873 C1872 1.349 . S
C1873 C1889 1.349 . S
C1874 C1872 1.327 . S
C1874 C1893 1.429 . S
C1874 H1898 0.950 . S
C1875 C1892 1.574 . S
C1875 C1894 1.368 . S
C1875 H1899 0.949 . S
H1876 C1880 0.949 . S
C1877 C1878 1.349 . S
C1877 C1879 1.327 1_655 S
C1877 H1900 0.950 . S
C1878 C1877 1.349 . S
C1878 C1890 1.352 . S
C1879 C1877 1.327 1_455 S
C1879 C1895 1.429 . S
C1879 H1901 0.950 . S
C1880 H1876 0.949 . S
C1880 C1888 1.574 . S
C1880 C1896 1.368 . S
H1881 C1889 0.950 . S
H1882 C1887 0.950 . S
H1883 C1888 0.949 . S
H1884 C1890 0.951 . S
H1885 C1891 0.950 . S
H1886 C1892 0.949 . S
C1887 H1882 0.950 . S
C1887 C1889 1.327 . S
C1887 C1893 1.429 . S
C1888 C1880 1.574 . S
C1888 H1883 0.949 . S
C1888 C1894 1.368 . S
C1889 C1873 1.349 . S
C1889 H1881 0.950 . S
C1889 C1887 1.327 . S
C1890 C1878 1.352 . S
C1890 H1884 0.951 . S
C1890 C1891 1.323 1_655 S
C1891 H1885 0.950 . S
C1891 C1890 1.323 1_455 S
C1891 C1895 1.429 . S
C1892 C1875 1.574 . S
C1892 H1886 0.949 . S
C1892 C1896 1.368 . S
C1893 C1874 1.429 . S
C1893 C1887 1.429 . S
C1893 C1894 1.523 . S
C1894 C1875 1.368 . S
C1894 C1888 1.368 . S
C1894 C1893 1.523 . S
C1895 C1879 1.429 . S
C1895 C1891 1.429 . S
C1895 C1896 1.523 . S
C1896 C1880 1.368 . S
C1896 C1892 1.368 . S
C1896 C1895 1.523 . S
H1897 C1872 0.950 . S
H1898 C1874 0.950 . S
H1899 C1875 0.949 . S
H1900 C1877 0.950 . S
H1901 C1879 0.950 . S
C1902 C1903 1.349 . S
C1902 C1904 1.327 . S
C1902 H1927 0.950 . S
C1903 C1902 1.349 . S
C1903 C1919 1.349 . S
C1904 C1902 1.327 . S
C1904 C1923 1.429 . S
C1904 H1928 0.950 . S
C1905 C1922 1.574 . S
C1905 C1924 1.368 . S
C1905 H1929 0.949 . S
H1906 C1910 0.949 . S
C1907 C1908 1.349 . S
C1907 C1909 1.327 . S
C1907 H1930 0.950 . S
C1908 C1907 1.349 . S
C1908 C1920 1.349 . S
C1909 C1907 1.327 . S
C1909 C1925 1.429 . S
C1909 H1931 0.950 . S
C1910 H1906 0.949 . S
C1910 C1918 1.574 . S
C1910 C1926 1.368 . S
H1911 C1919 0.950 . S
H1912 C1917 0.950 . S
H1913 C1918 0.949 . S
H1914 C1920 0.950 . S
H1915 C1921 0.950 . S
H1916 C1922 0.949 . S
C1917 H1912 0.950 . S
C1917 C1919 1.327 . S
C1917 C1923 1.429 . S
C1918 C1910 1.574 . S
C1918 H1913 0.949 . S
C1918 C1924 1.368 . S
C1919 C1903 1.349 . S
C1919 H1911 0.950 . S
C1919 C1917 1.327 . S
C1920 C1908 1.349 . S
C1920 H1914 0.950 . S
C1920 C1921 1.327 . S
C1921 H1915 0.950 . S
C1921 C1920 1.327 . S
C1921 C1925 1.429 . S
C1922 C1905 1.574 . S
C1922 H1916 0.949 . S
C1922 C1926 1.368 . S
C1923 C1904 1.429 . S
C1923 C1917 1.429 . S
C1923 C1924 1.523 . S
C1924 C1905 1.368 . S
C1924 C1918 1.368 . S
C1924 C1923 1.523 . S
C1925 C1909 1.429 . S
C1925 C1921 1.429 . S
C1925 C1926 1.523 . S
C1926 C1910 1.368 . S
C1926 C1922 1.368 . S
C1926 C1925 1.523 . S
H1927 C1902 0.950 . S
H1928 C1904 0.950 . S
H1929 C1905 0.949 . S
H1930 C1907 0.950 . S
H1931 C1909 0.950 . S
C1932 C1933 1.349 . S
C1932 C1934 1.327 . S
C1932 H1957 0.950 . S
C1933 C1932 1.349 . S
C1933 C1949 1.349 . S
C1934 C1932 1.327 . S
C1934 C1953 1.429 . S
C1934 H1958 0.950 . S
C1935 C1952 1.574 . S
C1935 C1954 1.368 . S
C1935 H1959 0.949 . S
H1936 C1940 0.949 . S
C1937 C1938 1.349 . S
C1937 C1939 1.327 1_545 S
C1937 H1960 0.950 . S
C1938 C1937 1.349 . S
C1938 C1950 1.349 1_545 S
C1939 C1937 1.327 1_565 S
C1939 C1955 1.429 . S
C1939 H1961 0.950 . S
C1940 H1936 0.949 . S
C1940 C1948 1.574 . S
C1940 C1956 1.368 . S
H1941 C1949 0.950 . S
H1942 C1947 0.950 . S
H1943 C1948 0.949 . S
H1944 C1950 0.950 . S
H1945 C1951 0.950 . S
H1946 C1952 0.949 . S
C1947 H1942 0.950 . S
C1947 C1949 1.327 . S
C1947 C1953 1.429 . S
C1948 C1940 1.574 . S
C1948 H1943 0.949 . S
C1948 C1954 1.368 . S
C1949 C1933 1.349 . S
C1949 H1941 0.950 . S
C1949 C1947 1.327 . S
C1950 C1938 1.349 1_565 S
C1950 H1944 0.950 . S
C1950 C1951 1.327 . S
C1951 H1945 0.950 . S
C1951 C1950 1.327 . S
C1951 C1955 1.429 . S
C1952 C1935 1.574 . S
C1952 H1946 0.949 . S
C1952 C1956 1.368 . S
C1953 C1934 1.429 . S
C1953 C1947 1.429 . S
C1953 C1954 1.523 . S
C1954 C1935 1.368 . S
C1954 C1948 1.368 . S
C1954 C1953 1.523 . S
C1955 C1939 1.429 . S
C1955 C1951 1.429 . S
C1955 C1956 1.523 . S
C1956 C1940 1.368 . S
C1956 C1952 1.368 . S
C1956 C1955 1.523 . S
H1957 C1932 0.950 . S
H1958 C1934 0.950 . S
H1959 C1935 0.949 . S
H1960 C1937 0.950 . S
H1961 C1939 0.950 . S
C1962 C1963 1.349 . S
C1962 C1964 1.327 1_545 S
C1962 H1987 0.950 . S
C1963 C1962 1.349 . S
C1963 C1979 1.349 . S
C1964 C1962 1.327 1_565 S
C1964 C1983 1.429 . S
C1964 H1988 0.950 . S
C1965 C1982 1.574 . S
C1965 C1984 1.368 . S
C1965 H1989 0.949 . S
H1966 C1970 0.949 . S
C1967 C1968 1.349 . S
C1967 C1969 1.327 . S
C1967 H1990 0.950 . S
C1968 C1967 1.349 . S
C1968 C1980 1.349 . S
C1969 C1967 1.327 . S
C1969 C1985 1.429 . S
C1969 H1991 0.950 . S
C1970 H1966 0.949 . S
C1970 C1978 1.574 . S
C1970 C1986 1.368 . S
H1971 C1979 0.950 . S
H1972 C1977 0.950 . S
H1973 C1978 0.949 . S
H1974 C1980 0.950 . S
H1975 C1981 0.950 . S
H1976 C1982 0.949 . S
C1977 H1972 0.950 . S
C1977 C1979 1.327 1_565 S
C1977 C1983 1.429 . S
C1978 C1970 1.574 . S
C1978 H1973 0.949 . S
C1978 C1984 1.368 . S
C1979 C1963 1.349 . S
C1979 H1971 0.950 . S
C1979 C1977 1.327 1_545 S
C1980 C1968 1.349 . S
C1980 H1974 0.950 . S
C1980 C1981 1.327 . S
C1981 H1975 0.950 . S
C1981 C1980 1.327 . S
C1981 C1985 1.429 . S
C1982 C1965 1.574 . S
C1982 H1976 0.949 . S
C1982 C1986 1.368 . S
C1983 C1964 1.429 . S
C1983 C1977 1.429 . S
C1983 C1984 1.523 . S
C1984 C1965 1.368 . S
C1984 C1978 1.368 . S
C1984 C1983 1.523 . S
C1985 C1969 1.429 . S
C1985 C1981 1.429 . S
C1985 C1986 1.523 . S
C1986 C1970 1.368 . S
C1986 C1982 1.368 . S
C1986 C1985 1.523 . S
H1987 C1962 0.950 . S
H1988 C1964 0.950 . S
H1989 C1965 0.949 . S
H1990 C1967 0.950 . S
H1991 C1969 0.950 . S
C1992 C1993 1.349 . S
C1992 C1994 1.327 1_655 S
C1992 H2017 0.950 . S
C1993 C1992 1.349 . S
C1993 C2009 1.349 . S
C1994 C1992 1.327 1_455 S
C1994 C2013 1.429 . S
C1994 H2018 0.950 . S
C1995 C2012 1.574 . S
C1995 C2014 1.368 . S
C1995 H2019 0.949 . S
H1996 C2000 0.949 . S
C1997 C1998 1.349 . S
C1997 C1999 1.327 . S
C1997 H2020 0.950 . S
C1998 C1997 1.349 . S
C1998 C2010 1.349 . S
C1999 C1997 1.327 . S
C1999 C2015 1.429 . S
C1999 H2021 0.950 . S
C2000 H1996 0.949 . S
C2000 C2008 1.574 . S
C2000 C2016 1.368 . S
H2001 C2009 0.950 . S
H2002 C2007 0.950 . S
H2003 C2008 0.949 . S
H2004 C2010 0.950 . S
H2005 C2011 0.950 . S
H2006 C2012 0.949 . S
C2007 H2002 0.950 . S
C2007 C2009 1.327 1_455 S
C2007 C2013 1.429 . S
C2008 C2000 1.574 . S
C2008 H2003 0.949 . S
C2008 C2014 1.368 . S
C2009 C1993 1.349 . S
C2009 H2001 0.950 . S
C2009 C2007 1.327 1_655 S
C2010 C1998 1.349 . S
C2010 H2004 0.950 . S
C2010 C2011 1.327 . S
C2011 H2005 0.950 . S
C2011 C2010 1.327 . S
C2011 C2015 1.429 . S
C2012 C1995 1.574 . S
C2012 H2006 0.949 . S
C2012 C2016 1.368 . S
C2013 C1994 1.429 . S
C2013 C2007 1.429 . S
C2013 C2014 1.523 . S
C2014 C1995 1.368 . S
C2014 C2008 1.368 . S
C2014 C2013 1.523 . S
C2015 C1999 1.429 . S
C2015 C2011 1.429 . S
C2015 C2016 1.523 . S
C2016 C2000 1.368 . S
C2016 C2012 1.368 . S
C2016 C2015 1.523 . S
H2017 C1992 0.950 . S
H2018 C1994 0.950 . S
H2019 C1995 0.949 . S
H2020 C1997 0.950 . S
H2021 C1999 0.950 . S
C2022 C2023 1.349 . S
C2022 C2024 1.327 . S
C2022 H2047 0.950 . S
C2023 C2022 1.349 . S
C2023 C2039 1.349 . S
C2024 C2022 1.327 . S
C2024 C2043 1.429 . S
C2024 H2048 0.950 . S
C2025 C2042 1.574 . S
C2025 C2044 1.368 . S
C2025 H2049 0.949 . S
H2026 C2030 0.949 . S
C2027 C2028 1.349 . S
C2027 C2029 1.327 . S
C2027 H2050 0.950 . S
C2028 C2027 1.349 . S
C2028 C2040 1.349 . S
C2029 C2027 1.327 . S
C2029 C2045 1.429 . S
C2029 H2051 0.950 . S
C2030 H2026 0.949 . S
C2030 C2038 1.574 . S
C2030 C2046 1.368 . S
H2031 C2039 0.950 . S
H2032 C2037 0.950 . S
H2033 C2038 0.949 . S
H2034 C2040 0.950 . S
H2035 C2041 0.950 . S
H2036 C2042 0.949 . S
C2037 H2032 0.950 . S
C2037 C2039 1.327 . S
C2037 C2043 1.429 . S
C2038 C2030 1.574 . S
C2038 H2033 0.949 . S
C2038 C2044 1.368 . S
C2039 C2023 1.349 . S
C2039 H2031 0.950 . S
C2039 C2037 1.327 . S
C2040 C2028 1.349 . S
C2040 H2034 0.950 . S
C2040 C2041 1.327 . S
C2041 H2035 0.950 . S
C2041 C2040 1.327 . S
C2041 C2045 1.429 . S
C2042 C2025 1.574 . S
C2042 H2036 0.949 . S
C2042 C2046 1.368 . S
C2043 C2024 1.429 . S
C2043 C2037 1.429 . S
C2043 C2044 1.523 . S
C2044 C2025 1.368 . S
C2044 C2038 1.368 . S
C2044 C2043 1.523 . S
C2045 C2029 1.429 . S
C2045 C2041 1.429 . S
C2045 C2046 1.523 . S
C2046 C2030 1.368 . S
C2046 C2042 1.368 . S
C2046 C2045 1.523 . S
H2047 C2022 0.950 . S
H2048 C2024 0.950 . S
H2049 C2025 0.949 . S
H2050 C2027 0.950 . S
H2051 C2029 0.950 . S
C2052 C2053 1.349 . S
C2052 C2054 1.327 . S
C2052 H2077 0.950 . S
C2053 C2052 1.349 . S
C2053 C2069 1.349 . S
C2054 C2052 1.327 . S
C2054 C2073 1.429 . S
C2054 H2078 0.950 . S
C2055 C2072 1.574 . S
C2055 C2074 1.368 . S
C2055 H2079 0.949 . S
H2056 C2060 0.949 . S
C2057 C2058 1.349 . S
C2057 C2059 1.327 . S
C2057 H2080 0.950 . S
C2058 C2057 1.349 . S
C2058 C2070 1.349 . S
C2059 C2057 1.327 . S
C2059 C2075 1.429 . S
C2059 H2081 0.950 . S
C2060 H2056 0.949 . S
C2060 C2068 1.574 . S
C2060 C2076 1.368 . S
H2061 C2069 0.950 . S
H2062 C2067 0.950 . S
H2063 C2068 0.949 . S
H2064 C2070 0.950 . S
H2065 C2071 0.950 . S
H2066 C2072 0.949 . S
C2067 H2062 0.950 . S
C2067 C2069 1.327 . S
C2067 C2073 1.429 . S
C2068 C2060 1.574 . S
C2068 H2063 0.949 . S
C2068 C2074 1.368 . S
C2069 C2053 1.349 . S
C2069 H2061 0.950 . S
C2069 C2067 1.327 . S
C2070 C2058 1.349 . S
C2070 H2064 0.950 . S
C2070 C2071 1.327 . S
C2071 H2065 0.950 . S
C2071 C2070 1.327 . S
C2071 C2075 1.429 . S
C2072 C2055 1.574 . S
C2072 H2066 0.949 . S
C2072 C2076 1.368 . S
C2073 C2054 1.429 . S
C2073 C2067 1.429 . S
C2073 C2074 1.523 . S
C2074 C2055 1.368 . S
C2074 C2068 1.368 . S
C2074 C2073 1.523 . S
C2075 C2059 1.429 . S
C2075 C2071 1.429 . S
C2075 C2076 1.523 . S
C2076 C2060 1.368 . S
C2076 C2072 1.368 . S
C2076 C2075 1.523 . S
H2077 C2052 0.950 . S
H2078 C2054 0.950 . S
H2079 C2055 0.949 . S
H2080 C2057 0.950 . S
H2081 C2059 0.950 . S
C2082 C2083 1.349 . S
C2082 C2084 1.327 . S
C2082 H2107 0.950 . S
C2083 C2082 1.349 . S
C2083 C2099 1.349 . S
C2084 C2082 1.327 . S
C2084 C2103 1.429 . S
C2084 H2108 0.950 . S
C2085 C2102 1.574 . S
C2085 C2104 1.368 . S
C2085 H2109 0.949 . S
H2086 C2090 0.949 . S
C2087 C2088 1.349 . S
C2087 C2089 1.327 . S
C2087 H2110 0.950 . S
C2088 C2087 1.349 . S
C2088 C2100 1.349 . S
C2089 C2087 1.327 . S
C2089 C2105 1.429 . S
C2089 H2111 0.950 . S
C2090 H2086 0.949 . S
C2090 C2098 1.574 . S
C2090 C2106 1.368 . S
H2091 C2099 0.950 . S
H2092 C2097 0.950 . S
H2093 C2098 0.949 . S
H2094 C2100 0.950 . S
H2095 C2101 0.950 . S
H2096 C2102 0.949 . S
C2097 H2092 0.950 . S
C2097 C2099 1.327 . S
C2097 C2103 1.429 . S
C2098 C2090 1.574 . S
C2098 H2093 0.949 . S
C2098 C2104 1.368 . S
C2099 C2083 1.349 . S
C2099 H2091 0.950 . S
C2099 C2097 1.327 . S
C2100 C2088 1.349 . S
C2100 H2094 0.950 . S
C2100 C2101 1.327 . S
C2101 H2095 0.950 . S
C2101 C2100 1.327 . S
C2101 C2105 1.429 . S
C2102 C2085 1.574 . S
C2102 H2096 0.949 . S
C2102 C2106 1.368 . S
C2103 C2084 1.429 . S
C2103 C2097 1.429 . S
C2103 C2104 1.523 . S
C2104 C2085 1.368 . S
C2104 C2098 1.368 . S
C2104 C2103 1.523 . S
C2105 C2089 1.429 . S
C2105 C2101 1.429 . S
C2105 C2106 1.523 . S
C2106 C2090 1.368 . S
C2106 C2102 1.368 . S
C2106 C2105 1.523 . S
H2107 C2082 0.950 . S
H2108 C2084 0.950 . S
H2109 C2085 0.949 . S
H2110 C2087 0.950 . S
H2111 C2089 0.950 . S
C2112 C2113 1.349 . S
C2112 C2114 1.327 . S
C2112 H2137 0.950 . S
C2113 C2112 1.349 . S
C2113 C2129 1.349 . S
C2114 C2112 1.327 . S
C2114 C2133 1.429 . S
C2114 H2138 0.950 . S
C2115 C2132 1.574 . S
C2115 C2134 1.368 . S
C2115 H2139 0.949 . S
H2116 C2120 0.949 . S
C2117 C2118 1.349 . S
C2117 C2119 1.327 . S
C2117 H2140 0.950 . S
C2118 C2117 1.349 . S
C2118 C2130 1.349 . S
C2119 C2117 1.327 . S
C2119 C2135 1.429 . S
C2119 H2141 0.950 . S
C2120 H2116 0.949 . S
C2120 C2128 1.574 . S
C2120 C2136 1.368 . S
H2121 C2129 0.950 . S
H2122 C2127 0.950 . S
H2123 C2128 0.949 . S
H2124 C2130 0.950 . S
H2125 C2131 0.950 . S
H2126 C2132 0.949 . S
C2127 H2122 0.950 . S
C2127 C2129 1.327 . S
C2127 C2133 1.429 . S
C2128 C2120 1.574 . S
C2128 H2123 0.949 . S
C2128 C2134 1.368 . S
C2129 C2113 1.349 . S
C2129 H2121 0.950 . S
C2129 C2127 1.327 . S
C2130 C2118 1.349 . S
C2130 H2124 0.950 . S
C2130 C2131 1.327 . S
C2131 H2125 0.950 . S
C2131 C2130 1.327 . S
C2131 C2135 1.429 . S
C2132 C2115 1.574 . S
C2132 H2126 0.949 . S
C2132 C2136 1.368 . S
C2133 C2114 1.429 . S
C2133 C2127 1.429 . S
C2133 C2134 1.523 . S
C2134 C2115 1.368 . S
C2134 C2128 1.368 . S
C2134 C2133 1.523 . S
C2135 C2119 1.429 . S
C2135 C2131 1.429 . S
C2135 C2136 1.523 . S
C2136 C2120 1.368 . S
C2136 C2132 1.368 . S
C2136 C2135 1.523 . S
H2137 C2112 0.950 . S
H2138 C2114 0.950 . S
H2139 C2115 0.949 . S
H2140 C2117 0.950 . S
H2141 C2119 0.950 . S
C2142 C2143 1.349 . S
C2142 C2144 1.327 . S
C2142 H2167 0.950 . S
C2143 C2142 1.349 . S
C2143 C2159 1.349 . S
C2144 C2142 1.327 . S
C2144 C2163 1.429 . S
C2144 H2168 0.950 . S
C2145 C2162 1.574 . S
C2145 C2164 1.368 . S
C2145 H2169 0.949 . S
H2146 C2150 0.949 . S
C2147 C2148 1.349 . S
C2147 C2149 1.327 . S
C2147 H2170 0.950 . S
C2148 C2147 1.349 . S
C2148 C2160 1.349 . S
C2149 C2147 1.327 . S
C2149 C2165 1.429 . S
C2149 H2171 0.950 . S
C2150 H2146 0.949 . S
C2150 C2158 1.574 . S
C2150 C2166 1.368 . S
H2151 C2159 0.950 . S
H2152 C2157 0.950 . S
H2153 C2158 0.949 . S
H2154 C2160 0.950 . S
H2155 C2161 0.950 . S
H2156 C2162 0.949 . S
C2157 H2152 0.950 . S
C2157 C2159 1.327 . S
C2157 C2163 1.429 . S
C2158 C2150 1.574 . S
C2158 H2153 0.949 . S
C2158 C2164 1.368 . S
C2159 C2143 1.349 . S
C2159 H2151 0.950 . S
C2159 C2157 1.327 . S
C2160 C2148 1.349 . S
C2160 H2154 0.950 . S
C2160 C2161 1.327 . S
C2161 H2155 0.950 . S
C2161 C2160 1.327 . S
C2161 C2165 1.429 . S
C2162 C2145 1.574 . S
C2162 H2156 0.949 . S
C2162 C2166 1.368 . S
C2163 C2144 1.429 . S
C2163 C2157 1.429 . S
C2163 C2164 1.523 . S
C2164 C2145 1.368 . S
C2164 C2158 1.368 . S
C2164 C2163 1.523 . S
C2165 C2149 1.429 . S
C2165 C2161 1.429 . S
C2165 C2166 1.523 . S
C2166 C2150 1.368 . S
C2166 C2162 1.368 . S
C2166 C2165 1.523 . S
H2167 C2142 0.950 . S
H2168 C2144 0.950 . S
H2169 C2145 0.949 . S
H2170 C2147 0.950 . S
H2171 C2149 0.950 . S
C2172 C2173 1.349 . S
C2172 C2174 1.327 . S
C2172 H2197 0.950 . S
C2173 C2172 1.349 . S
C2173 C2189 1.349 . S
C2174 C2172 1.327 . S
C2174 C2193 1.429 . S
C2174 H2198 0.950 . S
C2175 C2192 1.574 . S
C2175 C2194 1.368 . S
C2175 H2199 0.949 . S
H2176 C2180 0.949 . S
C2177 C2178 1.349 . S
C2177 C2179 1.327 . S
C2177 H2200 0.950 . S
C2178 C2177 1.349 . S
C2178 C2190 1.349 . S
C2179 C2177 1.327 . S
C2179 C2195 1.429 . S
C2179 H2201 0.950 . S
C2180 H2176 0.949 . S
C2180 C2188 1.574 . S
C2180 C2196 1.368 . S
H2181 C2189 0.950 . S
H2182 C2187 0.950 . S
H2183 C2188 0.949 . S
H2184 C2190 0.950 . S
H2185 C2191 0.950 . S
H2186 C2192 0.949 . S
C2187 H2182 0.950 . S
C2187 C2189 1.327 . S
C2187 C2193 1.429 . S
C2188 C2180 1.574 . S
C2188 H2183 0.949 . S
C2188 C2194 1.368 . S
C2189 C2173 1.349 . S
C2189 H2181 0.950 . S
C2189 C2187 1.327 . S
C2190 C2178 1.349 . S
C2190 H2184 0.950 . S
C2190 C2191 1.327 . S
C2191 H2185 0.950 . S
C2191 C2190 1.327 . S
C2191 C2195 1.429 . S
C2192 C2175 1.574 . S
C2192 H2186 0.949 . S
C2192 C2196 1.368 . S
C2193 C2174 1.429 . S
C2193 C2187 1.429 . S
C2193 C2194 1.523 . S
C2194 C2175 1.368 . S
C2194 C2188 1.368 . S
C2194 C2193 1.523 . S
C2195 C2179 1.429 . S
C2195 C2191 1.429 . S
C2195 C2196 1.523 . S
C2196 C2180 1.368 . S
C2196 C2192 1.368 . S
C2196 C2195 1.523 . S
H2197 C2172 0.950 . S
H2198 C2174 0.950 . S
H2199 C2175 0.949 . S
H2200 C2177 0.950 . S
H2201 C2179 0.950 . S
C2202 C2203 1.349 . S
C2202 C2204 1.327 . S
C2202 H2227 0.950 . S
C2203 C2202 1.349 . S
C2203 C2219 1.349 . S
C2204 C2202 1.327 . S
C2204 C2223 1.429 . S
C2204 H2228 0.950 . S
C2205 C2222 1.574 . S
C2205 C2224 1.368 . S
C2205 H2229 0.949 . S
H2206 C2210 0.949 . S
C2207 C2208 1.349 . S
C2207 C2209 1.327 . S
C2207 H2230 0.950 . S
C2208 C2207 1.349 . S
C2208 C2220 1.349 . S
C2209 C2207 1.327 . S
C2209 C2225 1.429 . S
C2209 H2231 0.950 . S
C2210 H2206 0.949 . S
C2210 C2218 1.574 . S
C2210 C2226 1.368 . S
H2211 C2219 0.950 . S
H2212 C2217 0.950 . S
H2213 C2218 0.949 . S
H2214 C2220 0.950 . S
H2215 C2221 0.950 . S
H2216 C2222 0.949 . S
C2217 H2212 0.950 . S
C2217 C2219 1.327 . S
C2217 C2223 1.429 . S
C2218 C2210 1.574 . S
C2218 H2213 0.949 . S
C2218 C2224 1.368 . S
C2219 C2203 1.349 . S
C2219 H2211 0.950 . S
C2219 C2217 1.327 . S
C2220 C2208 1.349 . S
C2220 H2214 0.950 . S
C2220 C2221 1.327 . S
C2221 H2215 0.950 . S
C2221 C2220 1.327 . S
C2221 C2225 1.429 . S
C2222 C2205 1.574 . S
C2222 H2216 0.949 . S
C2222 C2226 1.368 . S
C2223 C2204 1.429 . S
C2223 C2217 1.429 . S
C2223 C2224 1.523 . S
C2224 C2205 1.368 . S
C2224 C2218 1.368 . S
C2224 C2223 1.523 . S
C2225 C2209 1.429 . S
C2225 C2221 1.429 . S
C2225 C2226 1.523 . S
C2226 C2210 1.368 . S
C2226 C2222 1.368 . S
C2226 C2225 1.523 . S
H2227 C2202 0.950 . S
H2228 C2204 0.950 . S
H2229 C2205 0.949 . S
H2230 C2207 0.950 . S
H2231 C2209 0.950 . S
C613 C17 0.406 1_556 S
C618 C72 0.221 . S
C643 C4 0.221 . S
C648 C51 0.406 1_556 S
C673 C85 0.406 1_556 S
C678 C38 0.221 . S
C703 C149 0.221 . S
C708 C110 0.406 . S
C733 C183 0.221 . S
C738 C144 0.406 . S
C763 C178 0.406 . S
C768 C115 0.221 . S
C793 C276 0.221 . S
C798 C221 0.406 . S
C823 C255 0.406 . S
C828 C208 0.221 . S
C853 C242 0.221 . S
C858 C289 0.406 . S
C883 C314 0.406 . S
C888 C353 0.221 . S
C913 C387 0.221 . S
C918 C348 0.406 . S
C943 C382 0.406 . S
C948 C319 0.221 . S
C973 C480 0.221 . S
C978 C425 0.406 . S
C1003 C459 0.406 . S
C1008 C412 0.221 . S
C1033 C493 0.406 . S
C1038 C446 0.221 . S
C1063 C518 0.406 . S
C1068 C557 0.221 . S
C1093 C591 0.221 . S
C1098 C552 0.406 . S
C1123 C523 0.221 . S
C1128 C586 0.406 . S
C1153 C170 1.110 . S
C1158 C0 1.111 . S
C1183 C102 1.110 . S
C1188 C34 1.111 . S
C1213 C136 1.110 . S
C1218 C68 1.111 . S
C1243 C63 1.110 . S
C1248 C131 1.111 . S
C1273 C165 1.111 . S
C1278 C97 1.110 . S
C1303 C29 1.110 . S
C1308 C199 1.111 . S
C1333 C204 1.111 . S
C1338 C374 1.110 . S
C1363 C238 1.111 . S
C1368 C306 1.111 . S
C1393 C340 1.110 . S
C1398 C272 1.111 . S
C1423 C335 1.111 . S
C1428 C267 1.110 . S
C1453 C369 1.111 . S
C1458 C301 1.110 . S
C1483 C403 1.111 . S
C1488 C233 1.111 . S
C1513 C408 1.111 . S
C1518 C578 1.110 . S
C1543 C442 1.111 . S
C1548 C510 1.111 . S
C1573 C476 1.111 . S
C1578 C544 1.110 . S
C1603 C539 1.111 . S
C1608 C471 1.110 . S
C1633 C573 1.111 . S
C1638 C505 1.110 . S
C1663 C607 1.111 . S
C1668 C437 1.110 . S
C1693 C357 2.162 . S
C1698 C13 2.233 . S
C1723 C47 2.233 . S
C1728 C391 2.162 . S
C1753 C323 2.163 . S
C1758 C81 2.233 . S
C1783 C106 2.233 . S
C1788 C280 2.162 . S
C1813 C140 2.233 . S
C1818 C212 2.163 . S
C1843 C246 2.162 . S
C1848 C174 2.233 . S
C1873 C217 2.233 . S
C1878 C561 2.162 . S
C1903 C251 2.233 . S
C1908 C595 2.162 . S
C1933 C285 2.233 . S
C1938 C527 2.162 . S
C1963 C484 2.162 . S
C1968 C310 2.233 . S
C1993 C416 2.163 . S
C1998 C344 2.233 . S
C2023 C450 2.163 . S
C2028 C378 2.233 . S
C2053 C153 2.162 . S
C2058 C421 2.233 . S
C2083 C455 2.233 . S
C2088 C187 2.163 . S
C2113 C119 2.163 . S
C2118 C489 2.233 . S
C2143 C514 2.233 . S
C2148 C76 2.162 . S
C2173 C548 2.233 . S
C2178 C8 2.163 . S
C2203 C42 2.163 . S
C2208 C582 2.233 . S
