# Generated by pormake.
# Topology rhr, (4)-cn, num edge types: 1
# Building blocks:
#     Node 0, Type 0, BuildingBlock: ESEHIV_clean_sbu_0, # of connection points: 4
#     Node 1, Type 0, BuildingBlock: ESEHIV_clean_sbu_0, # of connection points: 4
#     Node 2, Type 0, BuildingBlock: ESEHIV_clean_sbu_0, # of connection points: 4
#     Node 3, Type 0, BuildingBlock: ESEHIV_clean_sbu_0, # of connection points: 4
#     Node 4, Type 0, BuildingBlock: ESEHIV_clean_sbu_0, # of connection points: 4
#     Node 5, Type 0, BuildingBlock: ESEHIV_clean_sbu_0, # of connection points: 4
#     Node 6, Type 0, BuildingBlock: ESEHIV_clean_sbu_0, # of connection points: 4
#     Node 7, Type 0, BuildingBlock: ESEHIV_clean_sbu_0, # of connection points: 4
#     Node 8, Type 0, BuildingBlock: ESEHIV_clean_sbu_0, # of connection points: 4
#     Node 9, Type 0, BuildingBlock: ESEHIV_clean_sbu_0, # of connection points: 4
#     Node 10, Type 0, BuildingBlock: ESEHIV_clean_sbu_0, # of connection points: 4
#     Node 11, Type 0, BuildingBlock: ESEHIV_clean_sbu_0, # of connection points: 4
#     Node 12, Type 0, BuildingBlock: ESEHIV_clean_sbu_0, # of connection points: 4
#     Node 13, Type 0, BuildingBlock: ESEHIV_clean_sbu_0, # of connection points: 4
#     Node 14, Type 0, BuildingBlock: ESEHIV_clean_sbu_0, # of connection points: 4
#     Node 15, Type 0, BuildingBlock: ESEHIV_clean_sbu_0, # of connection points: 4
#     Node 16, Type 0, BuildingBlock: ESEHIV_clean_sbu_0, # of connection points: 4
#     Node 17, Type 0, BuildingBlock: ESEHIV_clean_sbu_0, # of connection points: 4
#     Node 18, Type 0, BuildingBlock: ESEHIV_clean_sbu_0, # of connection points: 4
#     Node 19, Type 0, BuildingBlock: ESEHIV_clean_sbu_0, # of connection points: 4
#     Node 20, Type 0, BuildingBlock: ESEHIV_clean_sbu_0, # of connection points: 4
#     Node 21, Type 0, BuildingBlock: ESEHIV_clean_sbu_0, # of connection points: 4
#     Node 22, Type 0, BuildingBlock: ESEHIV_clean_sbu_0, # of connection points: 4
#     Node 23, Type 0, BuildingBlock: ESEHIV_clean_sbu_0, # of connection points: 4
#     Edge 24, Type (0, 0), BuildingBlock: XIVTED_clean_linker_0, # of connection points: 2
#     Edge 25, Type (0, 0), BuildingBlock: XIVTED_clean_linker_0, # of connection points: 2
#     Edge 26, Type (0, 0), BuildingBlock: XIVTED_clean_linker_0, # of connection points: 2
#     Edge 27, Type (0, 0), BuildingBlock: XIVTED_clean_linker_0, # of connection points: 2
#     Edge 28, Type (0, 0), BuildingBlock: XIVTED_clean_linker_0, # of connection points: 2
#     Edge 29, Type (0, 0), BuildingBlock: XIVTED_clean_linker_0, # of connection points: 2
#     Edge 30, Type (0, 0), BuildingBlock: XIVTED_clean_linker_0, # of connection points: 2
#     Edge 31, Type (0, 0), BuildingBlock: XIVTED_clean_linker_0, # of connection points: 2
#     Edge 32, Type (0, 0), BuildingBlock: XIVTED_clean_linker_0, # of connection points: 2
#     Edge 33, Type (0, 0), BuildingBlock: XIVTED_clean_linker_0, # of connection points: 2
#     Edge 34, Type (0, 0), BuildingBlock: XIVTED_clean_linker_0, # of connection points: 2
#     Edge 35, Type (0, 0), BuildingBlock: XIVTED_clean_linker_0, # of connection points: 2
#     Edge 36, Type (0, 0), BuildingBlock: XIVTED_clean_linker_0, # of connection points: 2
#     Edge 37, Type (0, 0), BuildingBlock: XIVTED_clean_linker_0, # of connection points: 2
#     Edge 38, Type (0, 0), BuildingBlock: XIVTED_clean_linker_0, # of connection points: 2
#     Edge 39, Type (0, 0), BuildingBlock: XIVTED_clean_linker_0, # of connection points: 2
#     Edge 40, Type (0, 0), BuildingBlock: XIVTED_clean_linker_0, # of connection points: 2
#     Edge 41, Type (0, 0), BuildingBlock: XIVTED_clean_linker_0, # of connection points: 2
#     Edge 42, Type (0, 0), BuildingBlock: XIVTED_clean_linker_0, # of connection points: 2
#     Edge 43, Type (0, 0), BuildingBlock: XIVTED_clean_linker_0, # of connection points: 2
#     Edge 44, Type (0, 0), BuildingBlock: XIVTED_clean_linker_0, # of connection points: 2
#     Edge 45, Type (0, 0), BuildingBlock: XIVTED_clean_linker_0, # of connection points: 2
#     Edge 46, Type (0, 0), BuildingBlock: XIVTED_clean_linker_0, # of connection points: 2
#     Edge 47, Type (0, 0), BuildingBlock: XIVTED_clean_linker_0, # of connection points: 2
#     Edge 48, Type (0, 0), BuildingBlock: XIVTED_clean_linker_0, # of connection points: 2
#     Edge 49, Type (0, 0), BuildingBlock: XIVTED_clean_linker_0, # of connection points: 2
#     Edge 50, Type (0, 0), BuildingBlock: XIVTED_clean_linker_0, # of connection points: 2
#     Edge 51, Type (0, 0), BuildingBlock: XIVTED_clean_linker_0, # of connection points: 2
#     Edge 52, Type (0, 0), BuildingBlock: XIVTED_clean_linker_0, # of connection points: 2
#     Edge 53, Type (0, 0), BuildingBlock: XIVTED_clean_linker_0, # of connection points: 2
#     Edge 54, Type (0, 0), BuildingBlock: XIVTED_clean_linker_0, # of connection points: 2
#     Edge 55, Type (0, 0), BuildingBlock: XIVTED_clean_linker_0, # of connection points: 2
#     Edge 56, Type (0, 0), BuildingBlock: XIVTED_clean_linker_0, # of connection points: 2
#     Edge 57, Type (0, 0), BuildingBlock: XIVTED_clean_linker_0, # of connection points: 2
#     Edge 58, Type (0, 0), BuildingBlock: XIVTED_clean_linker_0, # of connection points: 2
#     Edge 59, Type (0, 0), BuildingBlock: XIVTED_clean_linker_0, # of connection points: 2
#     Edge 60, Type (0, 0), BuildingBlock: XIVTED_clean_linker_0, # of connection points: 2
#     Edge 61, Type (0, 0), BuildingBlock: XIVTED_clean_linker_0, # of connection points: 2
#     Edge 62, Type (0, 0), BuildingBlock: XIVTED_clean_linker_0, # of connection points: 2
#     Edge 63, Type (0, 0), BuildingBlock: XIVTED_clean_linker_0, # of connection points: 2
#     Edge 64, Type (0, 0), BuildingBlock: XIVTED_clean_linker_0, # of connection points: 2
#     Edge 65, Type (0, 0), BuildingBlock: XIVTED_clean_linker_0, # of connection points: 2
#     Edge 66, Type (0, 0), BuildingBlock: XIVTED_clean_linker_0, # of connection points: 2
#     Edge 67, Type (0, 0), BuildingBlock: XIVTED_clean_linker_0, # of connection points: 2
#     Edge 68, Type (0, 0), BuildingBlock: XIVTED_clean_linker_0, # of connection points: 2
#     Edge 69, Type (0, 0), BuildingBlock: XIVTED_clean_linker_0, # of connection points: 2
#     Edge 70, Type (0, 0), BuildingBlock: XIVTED_clean_linker_0, # of connection points: 2
#     Edge 71, Type (0, 0), BuildingBlock: XIVTED_clean_linker_0, # of connection points: 2
# Relax obj value: 0.010
# Max RMSD: 0.137
# Mean RMSD: 0.095
data_MOF--net-rhr--node1-ESEHIV_clean_sbu_0--edge1-XIVTED_clean_linker_0
_symmetry_space_group_name_H-M    P1
_symmetry_Int_Tables_number       1
_symmetry_cell_setting            triclinic
loop_
_symmetry_equiv_pos_as_xyz
'x, y, z'
_cell_length_a     55.001036
_cell_length_b     54.925604
_cell_length_c     54.648409
_cell_angle_alpha  89.993624
_cell_angle_beta   92.739308
_cell_angle_gamma 92.791943
loop_
_atom_site_label
_atom_site_type_symbol
_atom_site_fract_x
_atom_site_fract_y
_atom_site_fract_z
_atom_type_partial_charge
Cu0 Cu 0.33436 0.04347 0.32289 0.0
N1 N 0.32648 0.03061 0.29181 0.0
N2 N 0.3321 1.01626 0.25435 0.0
C3 C 0.34077 0.03137 0.27253 0.0
C4 C 0.31112 1.00601 0.26232 0.0
C5 C 0.30765 1.015 0.2854 0.0
O6 O 0.36198 0.06741 0.32009 0.0
C7 C 0.33993 1.01578 0.368 0.0
O8 O 0.34214 0.03691 0.37934 0.0
H9 H 0.35827 0.04112 0.27261 0.0
H10 H 0.29336 1.00927 0.29738 0.0
N11 N 0.30749 0.06017 0.33211 0.0
N12 N 0.27587 0.07238 0.35246 0.0
C13 C 0.29368 0.05631 0.35157 0.0
C14 C 0.29796 0.07906 0.32006 0.0
C15 C 0.27851 0.08666 0.33253 0.0
C16 C 0.38284 0.0631 0.31223 0.0
O17 O 0.3885 0.04039 0.30902 0.0
H18 H 0.29687 0.04228 0.36502 0.0
H19 H 0.30481 0.08682 0.30339 0.0
O20 O 0.33864 1.01533 0.34465 0.0
H21 H 0.29996 0.99183 0.2529 0.0
H22 H 0.26727 0.10158 0.32723 0.0
Cu23 Cu 0.04084 0.33857 0.3687 0.0
N24 N 0.0633 0.31367 0.37058 0.0
N25 N 0.08972 0.28837 0.38846 0.0
C26 C 0.07568 0.30761 0.39145 0.0
C27 C 0.08605 0.28221 0.36455 0.0
C28 C 0.06973 0.29779 0.35361 0.0
O29 O 1.02177 0.33481 0.39805 0.0
C30 C 0.07962 0.37198 0.35587 0.0
O31 O 0.0933 0.35314 0.35843 0.0
H32 H 0.07414 0.31718 0.40856 0.0
H33 H 0.06271 0.29727 0.33478 0.0
N34 N 1.01766 0.33648 0.34242 0.0
N35 N 0.98727 0.35062 0.3184 0.0
C36 C 1.00637 0.35632 0.33412 0.0
C37 C 1.00535 0.31736 0.33146 0.0
C38 C 0.98654 0.32605 0.31662 0.0
C39 C 1.01331 0.31298 0.4012 0.0
O40 O 1.01817 0.29625 0.38522 0.0
H41 H 1.01112 0.37454 0.34087 0.0
H42 H 1.00896 0.29846 0.33492 0.0
O43 O 0.05777 0.37025 0.36285 0.0
H44 H 0.09398 0.26709 0.35567 0.0
H45 H 0.97301 0.31509 0.30595 0.0
Cu46 Cu 0.69619 0.03757 0.36674 0.0
N47 N 0.6962 0.05849 0.34006 0.0
N48 N 0.68673 0.09073 0.31735 0.0
C49 C 0.6853 0.07983 0.33938 0.0
C50 C 0.69907 0.07554 0.30361 0.0
C51 C 0.70491 0.05562 0.31771 0.0
O52 O 0.66607 1.01702 0.36322 0.0
C53 C 0.71416 0.05516 0.41404 0.0
O54 O 0.72427 0.03405 0.41624 0.0
H55 H 0.67558 0.08663 0.35451 0.0
H56 H 0.71428 0.03991 0.3119 0.0
N57 N 0.72265 1.01767 0.36594 0.0
N58 N 0.74489 0.98495 0.3713 0.0
C59 C 0.72358 0.99512 0.37539 0.0
C60 C 0.74408 0.02212 0.35556 0.0
C61 C 0.75785 1.00196 0.35882 0.0
C62 C 0.66548 1.00113 0.34612 0.0
O63 O 0.68468 0.99962 0.3329 0.0
H64 H 0.70894 0.98663 0.38538 0.0
H65 H 0.74928 0.03881 0.34625 0.0
O66 O 0.69985 0.05891 0.39552 0.0
H67 H 0.70324 0.07837 0.28464 0.0
H68 H 0.77594 1.00007 0.35234 0.0
Cu69 Cu 0.03294 0.71488 0.34315 0.0
N70 N 0.05554 0.71323 0.31838 0.0
N71 N 0.08241 0.6946 0.29582 0.0
C72 C 0.06747 0.69274 0.31476 0.0
C73 C 0.07983 0.7175 0.28726 0.0
C74 C 0.06324 0.72893 0.30117 0.0
O75 O 1.01173 0.68538 0.33741 0.0
C76 C 0.06342 0.74068 0.37449 0.0
O77 O 0.06041 0.75507 0.3555 0.0
H78 H 0.06507 0.67671 0.32605 0.0
H79 H 0.05708 0.74721 0.29871 0.0
N80 N 1.01231 0.74138 0.3437 0.0
N81 N 0.98893 0.76801 0.36182 0.0
C82 C 1.00106 0.74722 0.36418 0.0
C83 C 1.00702 0.75903 0.32751 0.0
C84 C 0.99253 0.7754 0.33859 0.0
C85 C 1.00212 0.68493 0.31559 0.0
O86 O 1.00629 0.70393 0.30151 0.0
H87 H 1.00219 0.73639 0.38068 0.0
H88 H 1.01372 0.7603 0.30924 0.0
O89 O 0.05301 0.71931 0.37363 0.0
H90 H 0.08883 0.72535 0.27172 0.0
H91 H 0.98586 0.79185 0.33034 0.0
Cu92 Cu 0.38108 0.02357 0.70649 0.0
N93 N 0.40773 0.04613 0.70806 0.0
N94 N 0.43642 0.07167 0.72514 0.0
C95 C 0.41684 0.05673 0.72895 0.0
C96 C 0.43976 0.0706 0.70088 0.0
C97 C 0.42214 0.05458 0.69038 0.0
O98 O 0.38552 1.00363 0.73644 0.0
C99 C 0.35189 0.05502 0.68117 0.0
O100 O 0.37123 0.05452 0.66803 0.0
H101 H 0.40915 0.05363 0.74662 0.0
H102 H 0.42007 0.0494 0.67128 0.0
N103 N 0.38154 1.00293 0.67939 0.0
N104 N 0.36745 0.97793 0.64912 0.0
C105 C 0.36163 0.99221 0.66784 0.0
C106 C 0.40066 0.99533 0.66752 0.0
C107 C 0.39202 0.97982 0.64888 0.0
C108 C 0.40714 0.99614 0.73986 0.0
O109 O 0.423 1.00094 0.7231 0.0
H110 H 0.34326 0.9944 0.67349 0.0
H111 H 0.41952 1.00055 0.67218 0.0
O112 O 0.35151 0.04224 0.70078 0.0
H113 H 0.45407 0.08045 0.6915 0.0
H114 H 0.40299 0.97064 0.63616 0.0
Cu115 Cu 0.0416 0.36692 0.72337 0.0
N116 N 0.06267 0.35818 0.6996 0.0
N117 N 0.08153 0.33393 0.67455 0.0
C118 C 0.06456 0.33528 0.69148 0.0
C119 C 0.09054 0.35707 0.67184 0.0
C120 C 0.07886 0.37201 0.68737 0.0
O121 O 1.01339 0.34423 0.71961 0.0
C122 C 0.07993 0.36188 0.76011 0.0
O123 O 0.09079 0.34949 0.7436 0.0
H124 H 0.05352 0.31996 0.69791 0.0
H125 H 0.08207 0.39147 0.68975 0.0
N126 N 0.03182 0.39854 0.71862 0.0
N127 N 1.01737 0.43388 0.72996 0.0
C128 C 0.02782 0.41331 0.73741 0.0
C129 C 0.02389 0.41016 0.69831 0.0
C130 C 1.01484 0.43205 0.7053 0.0
C131 C 0.99138 0.35041 0.71989 0.0
O132 O 0.98678 0.37238 0.72732 0.0
H133 H 0.03074 0.40805 0.75636 0.0
H134 H 0.0235 0.40268 0.67998 0.0
O135 O 0.05808 0.36785 0.75573 0.0
H136 H 0.10488 0.36278 0.65991 0.0
H137 H 1.0062 0.44505 0.69327 0.0
Cu138 Cu 0.73487 1.01883 0.70215 0.0
N139 N 0.73061 0.99488 0.72625 0.0
N140 N 0.71119 0.9672 0.74936 0.0
C141 C 0.70894 0.9842 0.73163 0.0
C142 C 0.73531 0.96721 0.75533 0.0
C143 C 0.74723 0.98435 0.74109 0.0
O144 O 0.70865 0.04211 0.70608 0.0
C145 C 0.75874 0.99007 0.67052 0.0
O146 O 0.77336 0.99106 0.69025 0.0
H147 H 0.69189 0.98861 0.72236 0.0
H148 H 0.76663 0.98874 0.74148 0.0
N149 N 0.76404 0.03758 0.7067 0.0
N150 N 0.79503 0.06249 0.69586 0.0
C151 C 0.77498 0.04906 0.68814 0.0
C152 C 0.77762 0.04394 0.72705 0.0
C153 C 0.79674 0.05948 0.72041 0.0
C154 C 0.70734 0.04968 0.72818 0.0
O155 O 0.72268 0.04132 0.74494 0.0
H156 H 0.76776 0.04822 0.66936 0.0
H157 H 0.77365 0.03812 0.7454 0.0
O158 O 0.73867 1.00105 0.67093 0.0
H159 H 0.74375 0.95585 0.76917 0.0
H160 H 0.81062 0.0681 0.73267 0.0
Cu161 Cu 0.03813 0.68589 0.69082 0.0
N162 N 0.06511 0.70824 0.69093 0.0
N163 N 0.09813 0.72823 0.67691 0.0
C164 C 0.07922 0.71214 0.67166 0.0
C165 C 0.09581 0.73465 0.70052 0.0
C166 C 0.07555 0.72215 0.70917 0.0
O167 O 1.01769 0.69173 0.66147 0.0
C168 C 0.05817 0.64652 0.7147 0.0
O169 O 0.05263 0.65935 0.73373 0.0
H170 H 0.07557 0.70331 0.65408 0.0
H171 H 0.06925 0.7228 0.72758 0.0
N172 N 1.01738 0.68947 0.7168 0.0
N173 N 0.98669 0.68036 0.74138 0.0
C174 C 1.0 0.6727 0.72294 0.0
C175 C 1.01485 0.70863 0.73162 0.0
C176 C 0.99604 0.70304 0.74686 0.0
C177 C 1.01333 0.7141 0.65801 0.0
O178 O 0.02367 0.7305 0.67316 0.0
H179 H 0.99698 0.65537 0.71361 0.0
H180 H 0.02557 0.72563 0.73114 0.0
O181 O 0.05236 0.65404 0.69322 0.0
H182 H 0.10821 0.74698 0.71102 0.0
H183 H 0.98985 0.71481 0.76091 0.0
Cu184 Cu 0.3799 0.37845 0.02806 0.0
N185 N 0.34936 0.37954 0.04288 0.0
N186 N 0.32092 0.39435 0.06647 0.0
C187 C 0.34131 0.39944 0.05406 0.0
C188 C 0.31584 0.3703 0.06277 0.0
C189 C 0.33328 0.36126 0.04827 0.0
O190 O 0.3798 0.40326 1.00261 0.0
C191 C 0.401 0.37071 0.07321 0.0
O192 O 0.38202 0.35527 0.07289 0.0
H193 H 0.35099 0.41708 0.05412 0.0
H194 H 0.33476 0.34241 0.0432 0.0
N195 N 0.38702 0.34895 1.01229 0.0
N196 N 0.40729 0.32427 0.98834 0.0
C197 C 0.40849 0.34479 1.0022 0.0
C198 C 0.37184 0.33018 1.0047 0.0
C199 C 0.38422 0.31506 0.98993 0.0
C200 C 0.36589 0.39728 0.98404 0.0
O201 O 0.3532 0.37642 0.98436 0.0
H202 H 0.42423 0.35741 1.00373 0.0
H203 H 0.3527 0.32833 1.00828 0.0
O204 O 0.40477 0.38375 0.05436 0.0
H205 H 0.30082 0.35984 0.07036 0.0
H206 H 0.3766 0.29892 0.98049 0.0
Cu207 Cu 0.70193 0.36602 0.03533 0.0
N208 N 0.70043 0.39208 1.01314 0.0
N209 N 0.71277 0.41693 0.98302 0.0
C210 C 0.71308 0.39421 0.99264 0.0
C211 C 0.69872 0.42933 0.99784 0.0
C212 C 0.69124 0.41402 1.01639 0.0
O213 O 0.73018 0.37328 0.05804 0.0
C214 C 0.69949 0.31456 0.02289 0.0
O215 O 0.69813 0.30999 0.04639 0.0
H216 H 0.72362 0.3797 0.98594 0.0
H217 H 0.68121 0.41902 0.03202 0.0
N218 N 0.67438 0.36403 0.05465 0.0
N219 N 0.64469 0.34827 0.07759 0.0
C220 C 0.65799 0.34517 0.05771 0.0
C221 C 0.67078 0.37973 0.07287 0.0
C222 C 0.65261 0.3701 0.08701 0.0
C223 C 0.7494 0.38564 0.05244 0.0
O224 O 0.75286 0.39061 0.02934 0.0
H225 H 0.65692 0.32876 0.04672 0.0
H226 H 0.68183 0.39626 0.07662 0.0
O227 O 0.703 0.33645 1.01568 0.0
H228 H 0.6955 0.44857 0.99652 0.0
H229 H 0.64654 0.37801 0.10367 0.0
Cu230 Cu 0.67142 0.69887 0.04689 0.0
N231 N 0.64279 0.6954 0.06367 0.0
N232 N 0.61155 0.70925 0.08313 0.0
C233 C 0.63119 0.71507 0.07028 0.0
C234 C 0.61084 0.68476 0.08525 0.0
C235 C 0.63019 0.67616 0.07295 0.0
O236 O 0.66882 0.73047 0.02976 0.0
C237 C 0.70049 0.67147 0.07751 0.0
O238 O 0.68438 0.65505 0.06848 0.0
H239 H 0.63763 0.73356 0.06646 0.0
H240 H 0.63492 0.65737 0.07131 0.0
N241 N 0.67379 0.67531 0.0228 0.0
N242 N 0.69329 0.65187 0.99763 0.0
C243 C 0.69489 0.67157 1.01239 0.0
C244 C 0.658 0.65745 1.01433 0.0
C245 C 0.67006 0.64286 0.99873 0.0
C246 C 0.64944 0.73113 1.01584 0.0
O247 O 0.63543 0.71113 1.01333 0.0
H248 H 0.71149 0.68238 1.01682 0.0
H249 H 0.63943 0.65471 1.01979 0.0
O250 O 0.69875 0.69372 0.07089 0.0
H251 H 0.59749 0.67398 0.09505 0.0
H252 H 0.66245 0.62665 0.98939 0.0
Cu253 Cu 0.35404 0.69013 0.04439 0.0
N254 N 0.35618 0.65865 0.0322 0.0
N255 N 0.34313 0.62653 1.00917 0.0
C256 C 0.33671 0.64483 0.02361 0.0
C257 C 0.36767 0.62879 1.00882 0.0
C258 C 0.37567 0.64865 0.02302 0.0
O259 O 0.3206 0.69105 0.05471 0.0
C260 C 0.3691 0.73348 1.01799 0.0
O261 O 0.36856 0.74519 0.03888 0.0
H262 H 0.31809 0.64971 0.02564 0.0
H263 H 0.39406 0.65657 0.02457 0.0
N264 N 0.37679 0.69709 0.07058 0.0
N265 N 0.39712 0.7176 0.10133 0.0
C266 C 0.37737 0.71667 0.08553 0.0
C267 C 0.39667 0.68496 0.07734 0.0
C268 C 0.40922 0.69752 0.09625 0.0
C269 C 0.31593 0.68409 0.07631 0.0
O270 O 0.33408 0.67993 0.09199 0.0
H271 H 0.3636 0.73008 0.08456 0.0
H272 H 0.40206 0.66849 0.06872 0.0
O273 O 0.36187 0.71113 1.01677 0.0
H274 H 0.37884 0.61794 0.99772 0.0
H275 H 0.42645 0.69269 0.10483 0.0
Cu276 Cu 0.8584 0.54611 0.86542 0.0
N277 N 0.88817 0.53141 0.866 0.0
N278 N 0.92108 0.5168 0.84989 0.0
C279 C 0.89799 0.52349 0.84562 0.0
C280 C 0.92585 0.52047 0.87415 0.0
C281 C 0.90551 0.52966 0.88402 0.0
O282 O 0.85969 0.56616 0.83586 0.0
C283 C 0.8341 0.50306 0.88027 0.0
O284 O 0.85596 0.49923 0.88976 0.0
H285 H 0.88838 0.52323 0.82788 0.0
H286 H 0.9038 0.53544 0.90276 0.0
N287 N 0.85575 0.5654 0.89298 0.0
N288 N 0.83671 0.58486 0.9217 0.0
C289 C 0.83442 0.56863 0.90318 0.0
C290 C 0.87234 0.57995 0.90554 0.0
C291 C 0.86055 0.59214 0.92329 0.0
C292 C 0.86084 0.58941 0.83625 0.0
O293 O 0.85449 0.60079 0.8559 0.0
H294 H 0.81732 0.56008 0.89627 0.0
H295 H 0.89139 0.58215 0.90153 0.0
O296 O 0.83121 0.52174 0.86673 0.0
H297 H 0.94305 0.51765 0.88392 0.0
H298 H 0.86878 0.60557 0.93602 0.0
Cu299 Cu 0.52934 0.85535 0.87324 0.0
N300 N 0.50715 0.82857 0.87581 0.0
N301 N 0.47797 0.80466 0.89212 0.0
C302 C 0.49284 0.8249 0.89492 0.0
C303 C 0.4833 0.79519 0.87029 0.0
C304 C 0.50128 0.80997 0.86028 0.0
O305 O 0.54878 0.85443 0.9046 0.0
C306 C 0.49243 0.8809 0.84954 0.0
O307 O 0.4885 0.85917 0.83972 0.0
H308 H 0.49356 0.83692 0.91065 0.0
H309 H 0.50911 0.80757 0.84273 0.0
N310 N 0.55026 0.85183 0.84753 0.0
N311 N 0.57984 0.86212 0.82211 0.0
C312 C 0.56278 0.87026 0.8367 0.0
C313 C 0.55948 0.83129 0.8393 0.0
C314 C 0.57766 0.83757 0.82359 0.0
C315 C 0.572 0.85336 0.90628 0.0
O316 O 0.58462 0.85883 0.88708 0.0
H317 H 0.56068 0.88925 0.84101 0.0
H318 H 0.55441 0.81311 0.84544 0.0
O319 O 0.51001 0.88415 0.86564 0.0
H320 H 0.47456 0.77902 0.86184 0.0
H321 H 0.58899 0.825 0.81469 0.0
Cu322 Cu 0.22497 0.51811 0.83923 0.0
N323 N 0.2172 0.53506 0.81052 0.0
N324 N 0.19454 0.55264 0.78095 0.0
C325 C 0.19479 0.54169 0.80315 0.0
C326 C 0.21791 0.55288 0.77426 0.0
C327 C 0.2318 0.54203 0.79251 0.0
O328 O 0.19822 0.49401 0.84343 0.0
C329 C 0.23105 0.535 0.8886 0.0
O330 O 0.22309 0.51295 0.89454 0.0
H331 H 0.17906 0.53854 0.81407 0.0
H332 H 0.25112 0.53917 0.7925 0.0
N333 N 0.25426 0.50277 0.83648 0.0
N334 N 0.28901 0.48597 0.84865 0.0
C335 C 0.27054 0.49948 0.85519 0.0
C336 C 0.26274 0.49113 0.81723 0.0
C337 C 0.28419 0.48066 0.82471 0.0
C338 C 0.20128 0.47159 0.84804 0.0
O339 O 0.22332 0.4645 0.8536 0.0
H340 H 0.26809 0.50563 0.87365 0.0
H341 H 0.25354 0.48963 0.79932 0.0
O342 O 0.23085 0.54108 0.86612 0.0
H343 H 0.2246 0.56004 0.75728 0.0
H344 H 0.29496 0.46945 0.81357 0.0
Cu345 Cu 0.57393 0.20557 0.85953 0.0
N346 N 0.5572 0.23479 0.86271 0.0
N347 N 0.53104 0.26012 0.87865 0.0
C348 C 0.54381 0.23984 0.8821 0.0
C349 C 0.53678 0.26828 0.85624 0.0
C350 C 0.55297 0.25279 0.84654 0.0
O351 O 0.5959 0.20504 0.88873 0.0
C352 C 0.53476 0.18396 0.83656 0.0
O353 O 0.53881 0.2044 0.82464 0.0
H354 H 0.54248 0.2281 0.89794 0.0
H355 H 0.56017 0.254 0.82851 0.0
N356 N 0.59258 0.20152 0.83149 0.0
N357 N 0.61315 0.18101 0.80391 0.0
C358 C 0.60121 0.17987 0.82507 0.0
C359 C 0.59925 0.21704 0.81368 0.0
C360 C 0.61189 0.2045 0.79674 0.0
C361 C 0.61442 0.21986 0.8876 0.0
O362 O 0.61754 0.23183 0.86709 0.0
H363 H 0.59827 0.16345 0.83567 0.0
H364 H 0.59529 0.23611 0.81299 0.0
O365 O 0.54863 0.17956 0.85527 0.0
H366 H 0.52943 0.28408 0.84727 0.0
H367 H 0.61976 0.21228 0.78056 0.0
Cu368 Cu 0.85283 0.52808 0.21269 0.0
N369 N 0.82623 0.54853 0.21195 0.0
N370 N 0.80055 0.57598 0.19664 0.0
C371 C 0.81896 0.56138 0.19207 0.0
C372 C 0.7961 0.57206 0.22047 0.0
C373 C 0.81194 0.55517 0.22985 0.0
O374 O 0.84929 0.50885 0.18224 0.0
C375 C 0.88374 0.55693 0.24206 0.0
O376 O 0.86604 0.55052 0.25642 0.0
H377 H 0.82756 0.56043 0.17472 0.0
H378 H 0.81316 0.54852 0.24847 0.0
N379 N 0.85372 0.50424 0.23747 0.0
N380 N 0.86956 0.47359 0.25913 0.0
C381 C 0.87342 0.491 0.2421 0.0
C382 C 0.83665 0.49499 0.25219 0.0
C383 C 0.84636 0.476 0.26552 0.0
C384 C 0.8296 0.49541 0.18172 0.0
O385 O 0.81491 0.49748 0.19979 0.0
H386 H 0.89007 0.49363 0.23244 0.0
H387 H 0.81831 0.50116 0.25276 0.0
O388 O 0.8822 0.54928 0.21987 0.0
H389 H 0.78233 0.58068 0.23048 0.0
H390 H 0.83703 0.46483 0.27881 0.0
Cu391 Cu 0.5134 0.88728 0.21341 0.0
N392 N 0.5364 0.87743 0.19212 0.0
N393 N 0.55528 0.85255 0.1679 0.0
C394 C 0.53719 0.85462 0.18338 0.0
C395 C 0.56651 0.87492 0.16697 0.0
C396 C 0.5549 0.89023 0.18213 0.0
O397 O 0.48826 0.8607 0.21209 0.0
C398 C 0.52607 0.91158 0.25892 0.0
O399 O 0.50679 0.92417 0.25377 0.0
H400 H 0.52442 0.8399 0.18795 0.0
H401 H 0.55972 0.90925 0.18567 0.0
N402 N 0.49955 0.91574 0.2018 0.0
N403 N 0.47121 0.94261 0.19317 0.0
C404 C 0.47595 0.9207 0.20297 0.0
C405 C 0.51024 0.93528 0.19109 0.0
C406 C 0.49278 0.95195 0.18579 0.0
C407 C 0.47617 0.85867 0.19158 0.0
O408 O 0.48054 0.87482 0.17441 0.0
H409 H 0.46265 0.90866 0.21143 0.0
H410 H 0.52938 0.93748 0.18763 0.0
O411 O 0.53053 0.89379 0.24509 0.0
H412 H 0.58212 0.87976 0.15633 0.0
H413 H 0.49576 0.96957 0.17728 0.0
Cu414 Cu 0.18214 0.52583 0.18659 0.0
N415 N 0.1575 0.50254 0.19445 0.0
N416 N 0.13541 0.47807 0.21878 0.0
C417 C 0.15621 0.49192 0.21666 0.0
C418 C 0.12316 0.47999 0.19689 0.0
C419 C 0.1368 0.49507 0.18195 0.0
O420 O 0.18312 0.54999 0.21337 0.0
C421 C 0.21158 0.49759 0.1589 0.0
O422 O 0.19175 0.49793 0.1446 0.0
H423 H 0.16987 0.49523 0.23135 0.0
H424 H 0.13156 0.50072 0.1636 0.0
N425 N 0.17564 0.5451 0.15893 0.0
N426 N 0.18386 0.57615 0.13358 0.0
C427 C 0.18862 0.56614 0.15571 0.0
C428 C 0.16184 0.54163 0.13807 0.0
C429 C 0.16701 0.56075 0.12229 0.0
C430 C 0.16235 0.55906 0.21592 0.0
O431 O 0.14372 0.55107 0.20173 0.0
H432 H 0.20251 0.57315 0.16892 0.0
H433 H 0.14989 0.52581 0.134 0.0
O434 O 0.21198 0.50855 0.17965 0.0
H435 H 0.10551 0.4713 0.19204 0.0
H436 H 0.15952 0.56275 0.10377 0.0
Cu437 Cu 0.5183 0.23372 0.22176 0.0
N438 N 0.50292 0.26345 0.22292 0.0
N439 N 0.48812 0.29872 0.20996 0.0
C440 C 0.49951 0.27857 0.20379 0.0
C441 C 0.48425 0.2963 0.23405 0.0
C442 C 0.49354 0.27463 0.24202 0.0
O443 O 0.53812 0.23484 0.19284 0.0
C444 C 0.48533 0.20407 0.24673 0.0
O445 O 0.49092 0.22136 0.26289 0.0
H446 H 0.50475 0.27467 0.18551 0.0
H447 H 0.49343 0.26767 0.2605 0.0
N448 N 0.54174 0.23212 0.24725 0.0
N449 N 0.57434 0.21834 0.26766 0.0
C450 C 0.55835 0.21501 0.24837 0.0
C451 C 0.5473 0.24695 0.26653 0.0
C452 C 0.5674 0.23835 0.27932 0.0
C453 C 0.53225 0.23771 0.17021 0.0
O454 O 0.50924 0.2352 0.16261 0.0
H455 H 0.55857 0.20035 0.23517 0.0
H456 H 0.53778 0.26306 0.27077 0.0
O457 O 0.49508 0.20551 0.22594 0.0
H458 H 0.47532 0.30918 0.24513 0.0
H459 H 0.57647 0.24648 0.29555 0.0
Cu460 Cu 0.85064 0.843 0.52271 0.0
N461 N 0.85554 0.81626 0.54329 0.0
N462 N 0.87623 0.78861 0.56475 0.0
C463 C 0.87764 0.80833 0.55001 0.0
C464 C 0.85216 0.78401 0.56745 0.0
C465 C 0.83944 0.80116 0.55425 0.0
O466 O 0.87952 0.84625 0.5026 0.0
C467 C 0.8206 0.8714 0.55023 0.0
O468 O 0.80578 0.85246 0.54493 0.0
H469 H 0.89443 0.81679 0.54386 0.0
H470 H 0.81989 0.80259 0.55294 0.0
N471 N 0.82502 0.83734 0.49961 0.0
N472 N 0.80151 0.84618 0.46676 0.0
C473 C 0.82194 0.85221 0.48038 0.0
C474 C 0.80593 0.821 0.49814 0.0
C475 C 0.79117 0.8266 0.47789 0.0
C476 C 0.88315 0.82714 0.49011 0.0
O477 O 0.86833 0.80786 0.49223 0.0
H478 H 0.83395 0.86798 0.47721 0.0
H479 H 0.80254 0.80659 0.51119 0.0
O480 O 0.84229 0.87148 0.54259 0.0
H481 H 0.84428 0.76963 0.57854 0.0
H482 H 0.77402 0.81738 0.47212 0.0
Cu483 Cu 0.23195 0.84153 0.50914 0.0
N484 N 0.25553 0.84654 0.48544 0.0
N485 N 0.27916 0.86847 0.46024 0.0
C486 C 0.26245 0.869 0.47755 0.0
C487 C 0.28288 0.84456 0.45704 0.0
C488 C 0.26838 0.83108 0.47267 0.0
O489 O 0.23916 0.86845 0.53227 0.0
C490 C 0.19791 0.81683 0.48041 0.0
O491 O 0.21742 0.8041 0.47921 0.0
H492 H 0.25493 0.88546 0.4842 0.0
H493 H 0.26726 0.81146 0.47446 0.0
N494 N 0.2334 0.81351 0.52888 0.0
N495 N 0.21953 0.78789 0.55754 0.0
C496 C 0.21846 0.81029 0.54755 0.0
C497 C 0.24463 0.7924 0.52699 0.0
C498 C 0.23599 0.77648 0.54464 0.0
C499 C 0.26024 0.86582 0.54255 0.0
O500 O 0.2723 0.84692 0.53619 0.0
H501 H 0.20595 0.82378 0.55274 0.0
H502 H 0.25731 0.78845 0.51317 0.0
O503 O 0.19979 0.83704 0.49215 0.0
H504 H 0.29535 0.83729 0.4445 0.0
H505 H 0.24104 0.75784 0.54738 0.0
Cu506 Cu 0.18669 0.15593 0.55179 0.0
N507 N 0.16138 0.16239 0.57203 0.0
N508 N 0.13753 0.18558 0.59318 0.0
C509 C 0.15791 0.18485 0.58052 0.0
C510 C 0.12782 0.16251 0.59285 0.0
C511 C 0.14253 0.14822 0.57958 0.0
O512 O 0.18795 0.18379 0.5291 0.0
C513 C 0.21346 0.13429 0.58991 0.0
O514 O 0.19156 0.12466 0.59329 0.0
H515 H 0.17008 0.20044 0.57716 0.0
H516 H 0.13941 0.12907 0.57531 0.0
N517 N 0.1801 0.12863 0.53186 0.0
N518 N 0.18346 0.10545 0.49871 0.0
C519 C 0.18649 0.12799 0.50846 0.0
C520 C 0.17265 0.10563 0.53727 0.0
C521 C 0.17478 0.09121 0.51678 0.0
C522 C 0.16749 0.18705 0.51771 0.0
O523 O 0.14878 0.17216 0.52199 0.0
H524 H 0.19484 0.14351 0.49931 0.0
H525 H 0.16725 0.0995 0.5551 0.0
O526 O 0.21608 0.14969 0.57253 0.0
H527 H 0.11096 0.15656 0.60092 0.0
H528 H 0.17102 0.07171 0.51555 0.0
Cu529 Cu 0.85831 0.22151 0.54487 0.0
N530 N 0.82906 0.21623 0.52614 0.0
N531 N 0.79866 0.19576 0.50488 0.0
C532 C 0.81931 0.19416 0.51917 0.0
C533 C 0.7954 0.21993 0.50284 0.0
C534 C 0.81415 0.23247 0.5159 0.0
O535 O 0.8623 0.19257 0.56517 0.0
C536 C 0.88594 0.25074 0.51422 0.0
O537 O 0.86839 0.2653 0.51861 0.0
H538 H 0.82771 0.17731 0.52402 0.0
H539 H 0.8169 0.25204 0.51744 0.0
N540 N 0.85814 0.24758 0.56693 0.0
N541 N 0.87213 0.27143 0.59827 0.0
C542 C 0.87611 0.25199 0.58411 0.0
C543 C 0.84195 0.26472 0.57021 0.0
C544 C 0.85056 0.2795 0.58952 0.0
C545 C 0.84827 0.19114 0.5831 0.0
O546 O 0.83257 0.2081 0.58573 0.0
H547 H 0.89161 0.24069 0.58628 0.0
H548 H 0.82509 0.26634 0.55948 0.0
O549 O 0.88508 0.22935 0.52342 0.0
H550 H 0.78058 0.22811 0.49262 0.0
H551 H 0.84164 0.29508 0.59633 0.0
H552 H 0.18411 0.13249 0.45743 0.0
H553 H 0.26204 0.03839 0.38626 0.0
H554 H 0.20168 0.06213 0.48641 0.0
H555 H 0.25057 0.11224 0.36281 0.0
H556 H 0.23574 0.04439 0.42028 0.0
H557 H 0.20348 0.12271 0.41967 0.0
C558 C 0.19191 0.11488 0.45575 0.0
C559 C 0.19158 0.09824 0.47522 0.0
C560 C 0.23888 0.0592 0.40755 0.0
C561 C 0.21391 0.08687 0.43199 0.0
C562 C 0.25405 0.05585 0.38814 0.0
C563 C 0.25889 0.07491 0.3716 0.0
C564 C 0.22838 0.08174 0.41047 0.0
C565 C 0.24742 0.09692 0.37484 0.0
C566 C 0.20296 0.10928 0.43417 0.0
C567 C 0.20151 0.07548 0.47185 0.0
N568 N 0.23288 0.09974 0.39393 0.0
N569 N 0.21254 0.07056 0.45075 0.0
H570 H 0.98457 0.34148 0.42869 0.0
H571 H 0.92415 0.22562 0.49756 0.0
H572 H 1.00572 0.26754 0.41954 0.0
H573 H 0.89473 0.29705 0.49743 0.0
H574 H 0.95727 0.24174 0.47278 0.0
H575 H 0.95486 0.32675 0.45829 0.0
C576 C 0.98323 0.32226 0.43316 0.0
C577 C 0.99749 0.30571 0.42148 0.0
C578 C 0.94358 0.2539 0.47824 0.0
C579 C 0.96359 0.28871 0.45511 0.0
C580 C 0.92466 0.24466 0.49238 0.0
C581 C 0.90649 0.2599 0.49946 0.0
C582 C 0.94446 0.27859 0.47122 0.0
C583 C 0.90819 0.28452 0.49227 0.0
C584 C 0.96617 0.31382 0.44991 0.0
C585 C 0.99491 0.28095 0.42788 0.0
N586 N 0.92676 0.29306 0.47856 0.0
N587 N 0.97828 0.27323 0.44412 0.0
H588 H 0.75392 0.85393 0.45512 0.0
H589 H 0.79118 0.96931 0.3754 0.0
H590 H 0.82701 0.87132 0.43329 0.0
H591 H 0.71626 0.94642 0.38661 0.0
H592 H 0.80397 0.93117 0.39304 0.0
H593 H 0.73888 0.88478 0.42651 0.0
C594 C 0.7667 0.86385 0.44389 0.0
C595 C 0.79177 0.86044 0.44686 0.0
C596 C 0.7847 0.93439 0.39146 0.0
C597 C 0.77489 0.89594 0.41453 0.0
C598 C 0.77733 0.95626 0.38127 0.0
C599 C 0.75256 0.9615 0.37981 0.0
C600 C 0.76726 0.91762 0.40053 0.0
C601 C 0.73559 0.94364 0.38793 0.0
C602 C 0.75817 0.88156 0.4277 0.0
C603 C 0.8076 0.87384 0.43196 0.0
N604 N 0.74327 0.92266 0.39821 0.0
N605 N 0.79895 0.89122 0.41671 0.0
H606 H 0.15593 0.83968 0.46504 0.0
H607 H 0.0922 0.71582 0.40804 0.0
H608 H 0.18673 0.76906 0.47122 0.0
H609 H 0.06966 0.78776 0.3889 0.0
H610 H 0.12224 0.73435 0.43824 0.0
H611 H 0.11956 0.82029 0.44361 0.0
C612 C 0.15494 0.82015 0.46215 0.0
C613 C 0.17455 0.80607 0.46956 0.0
C614 C 0.11047 0.74603 0.42762 0.0
C615 C 0.13313 0.78375 0.44533 0.0
C616 C 0.09324 0.73541 0.41054 0.0
C617 C 0.07868 0.75028 0.39576 0.0
C618 C 0.11292 0.77162 0.43001 0.0
C619 C 0.08083 0.77563 0.39967 0.0
C620 C 0.13425 0.80907 0.44988 0.0
C621 C 0.17225 0.78075 0.46542 0.0
N622 N 0.0977 0.78549 0.41623 0.0
N623 N 0.15207 0.77047 0.45353 0.0
H624 H 0.2499 0.91388 0.55296 0.0
H625 H 0.37697 0.93481 0.62875 0.0
H626 H 0.29886 0.85731 0.57301 0.0
H627 H 0.32037 0.98586 0.63455 0.0
H628 H 0.34902 0.90836 0.60377 0.0
H629 H 0.27516 0.94248 0.57971 0.0
C630 C 0.26567 0.90741 0.56314 0.0
C631 C 0.27242 0.88324 0.56049 0.0
C632 C 0.3426 0.92533 0.6105 0.0
C633 C 0.30136 0.91565 0.59052 0.0
C634 C 0.35869 0.94055 0.6246 0.0
C635 C 0.35104 0.96257 0.63378 0.0
C636 C 0.31861 0.93215 0.60521 0.0
C637 C 0.32692 0.96889 0.62803 0.0
C638 C 0.2801 0.9237 0.57828 0.0
C639 C 0.29308 0.87583 0.57408 0.0
N640 N 0.31153 0.95379 0.614 0.0
N641 N 0.30682 0.89194 0.58822 0.0
H642 H 0.07606 0.28703 0.69032 0.0
H643 H 0.14295 0.23225 0.57742 0.0
H644 H 0.10364 0.33083 0.63118 0.0
H645 H 0.11021 0.18775 0.6332 0.0
H646 H 0.1286 0.2685 0.59684 0.0
H647 H 0.08818 0.25058 0.66968 0.0
C648 C 0.08448 0.28906 0.67291 0.0
C649 C 0.08873 0.3122 0.6625 0.0
C650 C 0.1245 0.25083 0.60485 0.0
C651 C 0.10302 0.27028 0.63884 0.0
C652 C 0.13282 0.23011 0.59384 0.0
C653 C 0.12801 0.20692 0.60387 0.0
C654 C 0.1113 0.24846 0.62615 0.0
C655 C 0.11426 0.20524 0.62483 0.0
C656 C 0.09152 0.26815 0.66117 0.0
C657 C 0.10021 0.31351 0.64008 0.0
N658 N 0.10652 0.22574 0.63537 0.0
N659 N 0.10696 0.29287 0.62904 0.0
H660 H 0.84414 0.19493 0.6319 0.0
H661 H 0.8054 0.05596 0.64839 0.0
H662 H 0.85253 0.14206 0.57504 0.0
H663 H 0.81759 0.10588 0.70909 0.0
H664 H 0.82499 0.08604 0.62168 0.0
H665 H 0.83726 0.16192 0.66097 0.0
C666 C 0.84494 0.17626 0.62567 0.0
C667 C 0.84881 0.17113 0.60108 0.0
C668 C 0.82374 0.09028 0.64091 0.0
C669 C 0.8403 0.13315 0.63412 0.0
C670 C 0.81242 0.07319 0.65613 0.0
C671 C 0.80956 0.07858 0.68093 0.0
C672 C 0.83194 0.1131 0.65047 0.0
C673 C 0.81939 0.10097 0.69012 0.0
C674 C 0.84102 0.15741 0.64227 0.0
C675 C 0.84971 0.1467 0.59391 0.0
N676 N 0.82979 0.11755 0.67481 0.0
N677 N 0.845 0.12854 0.61029 0.0
H678 H 1.0136 0.75763 0.63504 0.0
H679 H 0.87607 0.74168 0.58135 0.0
H680 H 0.97173 0.68943 0.63898 0.0
H681 H 0.92281 0.80637 0.57344 0.0
H682 H 0.91065 0.72113 0.60068 0.0
H683 H 0.9809 0.77431 0.60973 0.0
C684 C 0.99758 0.74604 0.63024 0.0
C685 C 0.99532 0.72215 0.63916 0.0
C686 C 0.9133 0.73976 0.59451 0.0
C687 C 0.95732 0.74136 0.61051 0.0
C688 C 0.89352 0.75159 0.58364 0.0
C689 C 0.89641 0.77588 0.57572 0.0
C690 C 0.9361 0.75236 0.5976 0.0
C691 C 0.91961 0.78762 0.57889 0.0
C692 C 0.97883 0.7556 0.61582 0.0
C693 C 0.97421 0.70791 0.63232 0.0
N694 N 0.9384 0.77582 0.58964 0.0
N695 N 0.9558 0.71785 0.61865 0.0
H696 H 0.451 0.37075 0.0756 0.0
H697 H 0.44939 0.32692 0.21484 0.0
H698 H 0.38848 0.37039 0.12024 0.0
H699 H 0.50744 0.31307 0.16706 0.0
H700 H 0.43175 0.35347 0.18367 0.0
H701 H 0.4764 0.36027 0.11205 0.0
C702 C 0.44284 0.36929 0.09323 0.0
C703 C 0.41769 0.3712 0.09505 0.0
C704 C 0.44854 0.34486 0.18012 0.0
C705 C 0.44626 0.35903 0.13644 0.0
C706 C 0.4587 0.32978 0.198 0.0
C707 C 0.47964 0.31727 0.19338 0.0
C708 C 0.45934 0.34746 0.15741 0.0
C709 C 0.49087 0.32175 0.17113 0.0
C710 C 0.45723 0.3631 0.11394 0.0
C711 C 0.40783 0.36883 0.11815 0.0
N712 N 0.4804 0.33621 0.15383 0.0
N713 N 0.42206 0.36262 0.13788 0.0
H714 H 0.84399 0.49283 0.13358 0.0
H715 H 0.74715 0.38136 0.10237 0.0
H716 H 0.79911 0.45573 0.18592 0.0
H717 H 0.78806 0.41857 0.04691 0.0
H718 H 0.77012 0.40578 0.13369 0.0
H719 H 0.8277 0.46345 0.10194 0.0
C720 C 0.831 0.47841 0.13848 0.0
C721 C 0.82271 0.47695 0.16237 0.0
C722 C 0.77427 0.40851 0.11469 0.0
C723 C 0.80406 0.4434 0.12649 0.0
C724 C 0.76117 0.39444 0.09676 0.0
C725 C 0.7655 0.39793 0.07188 0.0
C726 C 0.79183 0.42643 0.10783 0.0
C727 C 0.784 0.41525 0.06584 0.0
C728 C 0.82164 0.46171 0.12044 0.0
C729 C 0.80581 0.45788 0.1677 0.0
N730 N 0.7963 0.429 0.08363 0.0
N731 N 0.79704 0.44205 0.14999 0.0
H732 H 0.59246 0.70781 0.12809 0.0
H733 H 0.57344 0.8503 0.1229 0.0
H734 H 0.59722 0.75086 0.06242 0.0
H735 H 0.54938 0.80565 0.18285 0.0
H736 H 0.58238 0.81348 0.10068 0.0
H737 H 0.57505 0.74238 0.14855 0.0
C738 C 0.58925 0.72432 0.11786 0.0
C739 C 0.59657 0.72674 0.09373 0.0
C740 C 0.575 0.81168 0.11865 0.0
C741 C 0.57736 0.76626 0.11691 0.0
C742 C 0.57015 0.83272 0.1314 0.0
C743 C 0.56078 0.831 0.15474 0.0
C744 C 0.57076 0.78872 0.12945 0.0
C745 C 0.55645 0.80773 0.1648 0.0
C746 C 0.57954 0.74408 0.12953 0.0
C747 C 0.59223 0.74852 0.08123 0.0
N748 N 0.56168 0.78747 0.15218 0.0
N749 N 0.58325 0.76754 0.09304 0.0
H750 H 0.20335 0.61552 0.15847 0.0
H751 H 0.2785 0.6656 0.04552 0.0
H752 H 0.19458 0.58442 0.08596 0.0
H753 H 0.29725 0.68211 0.12144 0.0
H754 H 0.24134 0.64322 0.05798 0.0
H755 H 0.23115 0.64722 0.14298 0.0
C756 C 0.20713 0.61548 0.13922 0.0
C757 C 0.19698 0.597 0.12361 0.0
C758 C 0.25337 0.65216 0.07183 0.0
C759 C 0.22886 0.63338 0.10564 0.0
C760 C 0.27446 0.66511 0.06473 0.0
C761 C 0.29104 0.6756 0.08252 0.0
C762 C 0.24879 0.64995 0.09685 0.0
C763 C 0.28504 0.67416 0.10715 0.0
C764 C 0.22297 0.63363 0.13035 0.0
C765 C 0.20205 0.59826 0.09866 0.0
N766 N 0.26455 0.66143 0.11358 0.0
N767 N 0.21792 0.61594 0.0905 0.0
H768 H 0.37938 0.71257 0.97427 0.0
H769 H 0.45721 0.82946 0.92836 0.0
H770 H 0.38774 0.78055 1.01412 0.0
H771 H 0.45761 0.75844 0.89453 0.0
H772 H 0.42853 0.81301 0.95747 0.0
H773 H 0.40411 0.73046 0.94225 0.0
C774 C 0.38614 0.73136 0.97618 0.0
C775 C 0.38152 0.74502 0.99706 0.0
C776 C 0.43486 0.80103 0.94364 0.0
C777 C 0.41009 0.76558 0.96041 0.0
C778 C 0.45143 0.81039 0.92702 0.0
C779 C 0.4602 0.79533 0.90894 0.0
C780 C 0.4268 0.7764 0.94224 0.0
C781 C 0.45137 0.77086 0.90796 0.0
C782 C 0.40039 0.74152 0.95791 0.0
C783 C 0.39087 0.76927 0.99845 0.0
N784 N 0.43527 0.76217 0.92439 0.0
N785 N 0.40478 0.77871 0.98047 0.0
H786 H 0.36755 0.44749 0.98175 0.0
H787 H 0.3118 0.44354 0.84374 0.0
H788 H 0.35681 0.3827 0.93721 0.0
H789 H 0.30804 0.50573 0.89143 0.0
H790 H 0.33769 0.4243 0.8748 0.0
H791 H 0.35481 0.47201 0.94605 0.0
C792 C 0.36306 0.43854 0.96434 0.0
C793 C 0.36289 0.41308 0.9624 0.0
C794 C 0.33143 0.44229 0.87838 0.0
C795 C 0.34839 0.44073 0.9218 0.0
C796 C 0.31676 0.45338 0.86053 0.0
C797 C 0.30732 0.47612 0.86512 0.0
C798 C 0.33672 0.45396 0.90104 0.0
C799 C 0.31439 0.4879 0.88736 0.0
C800 C 0.35567 0.45246 0.94406 0.0
C801 C 0.35683 0.40228 0.93953 0.0
N802 N 0.32841 0.47657 0.90463 0.0
N803 N 0.34966 0.41612 0.92021 0.0
H804 H 0.6064 0.21318 0.9369 0.0
H805 H 0.71066 0.31334 0.97481 0.0
H806 H 0.65915 0.2429 0.88764 0.0
H807 H 0.67081 0.27277 0.02876 0.0
H808 H 0.69325 0.28548 0.94316 0.0
H809 H 0.63078 0.2321 0.97145 0.0
C810 C 0.62333 0.22321 0.9334 0.0
C811 C 0.63058 0.22671 0.9093 0.0
C812 C 0.68852 0.28238 0.96195 0.0
C813 C 0.65829 0.24862 0.94855 0.0
C814 C 0.69851 0.29832 0.98005 0.0
C815 C 0.69217 0.29543 1.00446 0.0
C816 C 0.6716 0.26361 0.96812 0.0
C817 C 0.6763 0.2756 1.01017 0.0
C818 C 0.63718 0.2341 0.9531 0.0
C819 C 0.65262 0.23999 0.90584 0.0
N820 N 0.66624 0.26067 0.99208 0.0
N821 N 0.66546 0.25065 0.92512 0.0
H822 H 0.69817 0.60445 0.98494 0.0
H823 H 0.83384 0.6302 0.94079 0.0
H824 H 0.73425 0.67594 0.98297 0.0
H825 H 0.79441 0.56066 0.93223 0.0
H826 H 0.79852 0.64647 0.95951 0.0
H827 H 0.73378 0.58742 0.96739 0.0
C828 C 0.71343 0.61661 0.98062 0.0
C829 C 0.71323 0.64166 0.98561 0.0
C830 C 0.79761 0.62762 0.95359 0.0
C831 C 0.75421 0.62226 0.96594 0.0
C832 C 0.81787 0.61828 0.94312 0.0
C833 C 0.81701 0.5941 0.9348 0.0
C834 C 0.77639 0.61263 0.95587 0.0
C835 C 0.7957 0.57952 0.93804 0.0
C836 C 0.73385 0.60685 0.97078 0.0
C837 C 0.73373 0.65647 0.97989 0.0
N838 N 0.77622 0.58902 0.94827 0.0
N839 N 0.75338 0.64655 0.97047 0.0
H840 H 0.05169 0.40446 0.33 0.0
H841 H 0.16409 0.45933 0.25535 0.0
H842 H 0.12617 0.38519 0.34405 0.0
H843 H 0.0889 0.46664 0.23158 0.0
H844 H 0.1507 0.43685 0.29131 0.0
H845 H 0.06525 0.43241 0.2978 0.0
C846 C 0.07096 0.40649 0.32673 0.0
C847 C 0.08781 0.39237 0.33979 0.0
C848 C 0.13711 0.44342 0.27827 0.0
C849 C 0.10341 0.42414 0.30267 0.0
C850 C 0.14476 0.45637 0.25774 0.0
C851 C 0.12764 0.46487 0.24024 0.0
C852 C 0.11209 0.43899 0.2816 0.0
C853 C 0.10278 0.46018 0.24432 0.0
C854 C 0.07865 0.42228 0.30814 0.0
C855 C 0.1125 0.3956 0.33444 0.0
N856 N 0.09578 0.4476 0.26453 0.0
N857 N 0.11951 0.41101 0.31629 0.0
H858 H 0.19481 0.58372 0.74179 0.0
H859 H 0.05669 0.61337 0.75129 0.0
H860 H 0.14624 0.5438 0.78896 0.0
H861 H 0.09753 0.63487 0.68882 0.0
H862 H 0.08884 0.5864 0.76431 0.0
H863 H 0.15965 0.60165 0.72128 0.0
C864 C 0.17687 0.57845 0.74779 0.0
C865 C 0.17379 0.56235 0.76756 0.0
C866 C 0.09064 0.5966 0.74748 0.0
C867 C 0.13328 0.5832 0.74409 0.0
C868 C 0.07223 0.61191 0.74 0.0
C869 C 0.07448 0.62625 0.71894 0.0
C870 C 0.11182 0.59611 0.73417 0.0
C871 C 0.09503 0.62389 0.70505 0.0
C872 C 0.15673 0.58876 0.73597 0.0
C873 C 0.14984 0.55651 0.77434 0.0
N874 N 0.11319 0.60946 0.71317 0.0
N875 N 0.13063 0.56711 0.76284 0.0
H876 H 0.44958 0.05901 0.77173 0.0
H877 H 0.49658 0.19395 0.80612 0.0
H878 H 0.45429 0.11779 0.71969 0.0
H879 H 0.53132 0.13358 0.84143 0.0
H880 H 0.47159 0.1654 0.78059 0.0
H881 H 0.4719 0.08534 0.8027 0.0
C882 C 0.4553 0.07746 0.7669 0.0
C883 C 0.45017 0.08637 0.74319 0.0
C884 C 0.48449 0.15835 0.79409 0.0
C885 C 0.475 0.11639 0.77834 0.0
C886 C 0.4987 0.1746 0.8088 0.0
C887 C 0.51635 0.16613 0.82568 0.0
C888 C 0.4877 0.13332 0.79629 0.0
C889 C 0.51796 0.14084 0.82858 0.0
C890 C 0.46804 0.09234 0.78447 0.0
C891 C 0.45807 0.11025 0.73768 0.0
N892 N 0.50391 0.12519 0.81377 0.0
N893 N 0.46987 0.12451 0.75519 0.0
H894 H 0.91787 0.52391 0.80047 0.0
H895 H 0.0333 0.44616 0.7762 0.0
H896 H 0.9618 0.49107 0.85797 0.0
H897 H 0.97793 0.4611 0.72035 0.0
H898 H 1.01179 0.46975 0.80542 0.0
H899 H 0.94386 0.50756 0.77028 0.0
C900 C 0.93287 0.51319 0.80685 0.0
C901 C 0.93729 0.50852 0.83195 0.0
C902 C 1.00447 0.46804 0.78671 0.0
C903 C 0.96755 0.49022 0.79723 0.0
C904 C 1.01671 0.45456 0.77002 0.0
C905 C 1.00716 0.45123 0.74588 0.0
C906 C 0.98255 0.47844 0.77924 0.0
C907 C 0.98596 0.46313 0.73873 0.0
C908 C 0.94784 0.50402 0.78952 0.0
C909 C 0.95762 0.49517 0.83893 0.0
N910 N 0.97421 0.47601 0.75542 0.0
N911 N 0.9719 0.48639 0.82166 0.0
H912 H 0.66367 0.97784 0.75257 0.0
H913 H 0.62542 0.84901 0.81203 0.0
H914 H 0.71439 0.92206 0.76942 0.0
H915 H 0.57735 0.90868 0.80553 0.0
H916 H 0.65733 0.87446 0.79374 0.0
H917 H 0.63115 0.95191 0.7694 0.0
C918 C 0.66797 0.96009 0.75968 0.0
C919 C 0.69187 0.95215 0.75952 0.0
C920 C 0.63979 0.88199 0.79626 0.0
C921 C 0.65462 0.92231 0.77897 0.0
C922 C 0.62144 0.86738 0.80654 0.0
C923 C 0.59856 0.87666 0.81035 0.0
C924 C 0.6353 0.90611 0.78954 0.0
C925 C 0.59474 0.90081 0.80319 0.0
C926 C 0.6494 0.94533 0.76943 0.0
C927 C 0.69636 0.92908 0.76937 0.0
N928 N 0.61288 0.91466 0.79313 0.0
N929 N 0.67793 0.91497 0.7786 0.0
H930 H 0.9907 0.67586 0.26743 0.0
H931 H 0.89712 0.56374 0.29015 0.0
H932 H 0.97976 0.64557 0.33915 0.0
H933 H 0.91719 0.58666 0.21805 0.0
H934 H 0.92789 0.5926 0.30823 0.0
H935 H 0.96472 0.64293 0.24924 0.0
C936 C 0.98286 0.66223 0.27945 0.0
C937 C 0.98732 0.66371 0.305 0.0
C938 C 0.92577 0.59125 0.28847 0.0
C939 C 0.95722 0.62564 0.28397 0.0
C940 C 0.90812 0.57477 0.27804 0.0
C941 C 0.90436 0.57285 0.25245 0.0
C942 C 0.93978 0.60631 0.27329 0.0
C943 C 0.91941 0.58749 0.23782 0.0
C944 C 0.96804 0.64332 0.26893 0.0
C945 C 0.97681 0.64525 0.31942 0.0
N946 N 0.93627 0.60378 0.24846 0.0
N947 N 0.96207 0.62712 0.30873 0.0
H948 H 0.36599 0.0424 0.22968 0.0
H949 H 0.42605 0.92041 0.19116 0.0
H950 H 0.33152 0.97052 0.23525 0.0
H951 H 0.46379 0.99113 0.19429 0.0
H952 H 0.38775 0.93979 0.19705 0.0
H953 H 0.39769 0.02535 0.20597 0.0
C954 C 0.36481 0.02311 0.22545 0.0
C955 C 0.34644 1.00777 0.235 0.0
C956 C 0.40435 0.95112 0.1961 0.0
C957 C 0.38267 0.98811 0.20805 0.0
C958 C 0.42625 0.94004 0.19291 0.0
C959 C 0.44824 0.95412 0.19285 0.0
C960 C 0.40444 0.97646 0.19942 0.0
C961 C 0.44732 0.97956 0.1944 0.0
C962 C 0.38291 1.01338 0.21195 0.0
C963 C 0.34542 0.98302 0.22848 0.0
N964 N 0.42583 0.98989 0.19803 0.0
N965 N 0.36359 0.97387 0.21583 0.0
H966 H 0.67495 0.12831 0.34609 0.0
H967 H 0.5997 0.19155 0.23698 0.0
H968 H 0.67152 0.10313 0.27113 0.0
H969 H 0.59499 0.21089 0.31307 0.0
H970 H 0.63083 0.16308 0.24853 0.0
H971 H 0.6506 0.16257 0.33361 0.0
C972 C 0.66916 0.13 0.32699 0.0
C973 C 0.67497 0.11254 0.30971 0.0
C974 C 0.62311 0.17363 0.26272 0.0
C975 C 0.64727 0.15189 0.29527 0.0
C976 C 0.60521 0.18981 0.25615 0.0
C977 C 0.59438 0.20331 0.27415 0.0
C978 C 0.63029 0.17086 0.2875 0.0
C979 C 0.60281 0.20083 0.29862 0.0
C980 C 0.65534 0.14964 0.31987 0.0
C981 C 0.66752 0.11608 0.2851 0.0
N982 N 0.62011 0.18471 0.30461 0.0
N983 N 0.65386 0.13523 0.27867 0.0
H984 H 0.80526 0.98527 0.6578 0.0
H985 H 0.77336 0.87934 0.5598 0.0
H986 H 0.73145 0.96365 0.63428 0.0
H987 H 0.84634 0.90979 0.57459 0.0
H988 H 0.75773 0.91046 0.58586 0.0
H989 H 0.8203 0.95894 0.62656 0.0
C990 C 0.79213 0.97514 0.64585 0.0
C991 C 0.76697 0.97669 0.64883 0.0
C992 C 0.77714 0.91052 0.58333 0.0
C993 C 0.78431 0.94588 0.61289 0.0
C994 C 0.78619 0.89263 0.56845 0.0
C995 C 0.81136 0.89169 0.56499 0.0
C996 C 0.79327 0.9277 0.59527 0.0
C997 C 0.82687 0.90968 0.57665 0.0
C998 C 0.80081 0.96005 0.62795 0.0
C999 C 0.75095 0.96318 0.63262 0.0
N1000 N 0.81761 0.92674 0.59139 0.0
N1001 N 0.75989 0.94812 0.61558 0.0
H1002 H 0.20262 0.74082 0.56299 0.0
H1003 H 0.12447 0.77147 0.67859 0.0
H1004 H 0.20114 0.81246 0.59494 0.0
H1005 H 0.11508 0.7039 0.63827 0.0
H1006 H 0.15579 0.78533 0.65075 0.0
H1007 H 0.17399 0.72546 0.59315 0.0
C1008 C 0.19651 0.75326 0.57651 0.0
C1009 C 0.20422 0.77802 0.57632 0.0
C1010 C 0.1469 0.76745 0.64799 0.0
C1011 C 0.17131 0.7606 0.61084 0.0
C1012 C 0.12908 0.75946 0.664 0.0
C1013 C 0.11697 0.7365 0.66078 0.0
C1014 C 0.15292 0.75231 0.62866 0.0
C1015 C 0.12362 0.72186 0.64129 0.0
C1016 C 0.18001 0.74453 0.59361 0.0
C1017 C 0.19545 0.79334 0.59417 0.0
N1018 N 0.14113 0.72999 0.62604 0.0
N1019 N 0.17951 0.78441 0.61063 0.0
H1020 H 0.26289 0.14473 0.58591 0.0
H1021 H 0.30322 0.05195 0.6931 0.0
H1022 H 0.2118 0.10399 0.62955 0.0
H1023 H 0.35331 0.0908 0.6469 0.0
H1024 H 0.26954 0.0734 0.67272 0.0
H1025 H 0.29646 0.12764 0.61051 0.0
C1026 C 0.2587 0.13237 0.60074 0.0
C1027 C 0.23442 0.12575 0.60548 0.0
C1028 C 0.28797 0.07733 0.66721 0.0
C1029 C 0.27281 0.10596 0.6338 0.0
C1030 C 0.30719 0.06517 0.67896 0.0
C1031 C 0.33115 0.0694 0.67165 0.0
C1032 C 0.29277 0.09391 0.64809 0.0
C1033 C 0.33515 0.08669 0.65306 0.0
C1034 C 0.27788 0.12255 0.61479 0.0
C1035 C 0.23019 0.10958 0.62503 0.0
N1036 N 0.31626 0.09814 0.64193 0.0
N1037 N 0.24909 0.1002 0.63832 0.0
H1038 H 0.861 0.30379 0.63368 0.0
H1039 H 0.99553 0.30659 0.69686 0.0
H1040 H 0.91972 0.2619 0.60903 0.0
H1041 H 0.94291 0.35959 0.71258 0.0
H1042 H 0.96513 0.28546 0.66952 0.0
H1043 H 0.88843 0.32067 0.6666 0.0
C1044 C 0.87955 0.29807 0.63505 0.0
C1045 C 0.88786 0.28131 0.61826 0.0
C1046 C 0.96014 0.30158 0.67912 0.0
C1047 C 0.9193 0.30035 0.65634 0.0
C1048 C 0.97747 0.3136 0.69489 0.0
C1049 C 0.97189 0.33509 0.70688 0.0
C1050 C 0.937 0.31105 0.67525 0.0
C1051 C 0.9481 0.34319 0.7036 0.0
C1052 C 0.89518 0.30765 0.654 0.0
C1053 C 0.91214 0.27445 0.62145 0.0
N1054 N 0.9316 0.3313 0.68792 0.0
N1055 N 0.9269 0.284 0.64001 0.0
H1056 H 0.74305 0.05335 0.45622 0.0
H1057 H 0.76614 0.19805 0.46562 0.0
H1058 H 0.70562 0.10392 0.40914 0.0
H1059 H 0.79723 0.14762 0.51756 0.0
H1060 H 0.74273 0.16411 0.44572 0.0
H1061 H 0.76164 0.08769 0.47994 0.0
C1062 C 0.73848 0.07166 0.45102 0.0
C1063 C 0.72277 0.07567 0.43055 0.0
C1064 C 0.7546 0.16049 0.46155 0.0
C1065 C 0.74437 0.11528 0.45754 0.0
C1066 C 0.76798 0.17995 0.47305 0.0
C1067 C 0.78397 0.17589 0.49336 0.0
C1068 C 0.75718 0.13664 0.47025 0.0
C1069 C 0.78558 0.15178 0.50178 0.0
C1070 C 0.74918 0.09131 0.46457 0.0
C1071 C 0.71758 0.09988 0.42477 0.0
N1072 N 0.7725 0.13314 0.49015 0.0
N1073 N 0.72851 0.11873 0.43803 0.0
H1074 H 0.95438 0.80213 0.35573 0.0
H1075 H 0.92192 0.79911 0.49699 0.0
H1076 H 0.9934 0.76172 0.41142 0.0
H1077 H 0.88935 0.84834 0.44519 0.0
H1078 H 0.94987 0.78722 0.46609 0.0
H1079 H 0.93171 0.82077 0.38783 0.0
C1080 C 0.95837 0.79722 0.37461 0.0
C1081 C 0.9758 0.77995 0.38059 0.0
C1082 C 0.93701 0.80101 0.46149 0.0
C1083 C 0.94962 0.8013 0.41764 0.0
C1084 C 0.92122 0.80799 0.47927 0.0
C1085 C 0.90375 0.82519 0.47383 0.0
C1086 C 0.93497 0.81079 0.43773 0.0
C1087 C 0.90302 0.8355 0.45031 0.0
C1088 C 0.94533 0.80789 0.39299 0.0
C1089 C 0.97989 0.77439 0.40558 0.0
N1090 N 0.9182 0.82796 0.43303 0.0
N1091 N 0.96688 0.78487 0.423 0.0
H1092 H 0.33416 0.96855 0.35084 0.0
H1093 H 0.28673 0.91486 0.47737 0.0
H1094 H 0.33311 1.01084 0.41728 0.0
H1095 H 0.29702 0.86977 0.41446 0.0
H1096 H 0.30377 0.95004 0.45552 0.0
H1097 H 0.32126 0.93212 0.37364 0.0
C1098 C 0.33149 0.97018 0.37027 0.0
C1099 C 0.33477 0.99294 0.38208 0.0
C1100 C 0.30241 0.93245 0.44648 0.0
C1101 C 0.3196 0.95115 0.40832 0.0
C1102 C 0.2925 0.91232 0.45892 0.0
C1103 C 0.29021 0.88921 0.44775 0.0
C1104 C 0.31002 0.9297 0.42249 0.0
C1105 C 0.29851 0.88711 0.42391 0.0
C1106 C 0.32405 0.94933 0.38328 0.0
C1107 C 0.33091 0.99378 0.40732 0.0
N1108 N 0.30785 0.90707 0.41205 0.0
N1109 N 0.32338 0.97332 0.41949 0.0
H1110 H 0.13976 0.2253 0.52494 0.0
H1111 H 0.12738 0.25851 0.38223 0.0
H1112 H 0.18331 0.19341 0.47117 0.0
H1113 H 0.08566 0.29011 0.43802 0.0
H1114 H 0.15057 0.23711 0.41427 0.0
H1115 H 0.12333 0.25259 0.49361 0.0
C1116 C 0.14644 0.22465 0.50662 0.0
C1117 C 0.16331 0.20752 0.50072 0.0
C1118 C 0.13645 0.24889 0.41947 0.0
C1119 C 0.1437 0.23794 0.46428 0.0
C1120 C 0.12304 0.26103 0.40113 0.0
C1121 C 0.10432 0.27622 0.40721 0.0
C1122 C 0.13116 0.25183 0.44418 0.0
C1123 C 0.09995 0.27892 0.43221 0.0
C1124 C 0.13685 0.24003 0.48862 0.0
C1125 C 0.17079 0.20683 0.47655 0.0
N1126 N 0.11311 0.2668 0.44962 0.0
N1127 N 0.16075 0.22163 0.45912 0.0
H1128 H 0.67502 0.7701 0.99471 0.0
H1129 H 0.55107 0.82962 0.94503 0.0
H1130 H 0.60259 0.74364 1.01125 0.0
H1131 H 0.62104 0.84815 0.91573 0.0
H1132 H 0.57114 0.80361 0.97536 0.0
H1133 H 0.65705 0.80397 0.97142 0.0
C1134 C 0.65544 0.77166 0.99383 0.0
C1135 C 0.64028 0.75389 1.00473 0.0
C1136 C 0.58218 0.81359 0.96248 0.0
C1137 C 0.61962 0.79243 0.97828 0.0
C1138 C 0.5707 0.82862 0.94522 0.0
C1139 C 0.58427 0.84105 0.92757 0.0
C1140 C 0.6075 0.81086 0.96226 0.0
C1141 C 0.60974 0.83883 0.92882 0.0
C1142 C 0.64517 0.79087 0.98043 0.0
C1143 C 0.61499 0.75672 1.00287 0.0
N1144 N 0.62046 0.8239 0.94564 0.0
N1145 N 0.60552 0.77543 0.9899 0.0
H1146 H 0.29912 0.60577 1.01947 0.0
H1147 H 0.26375 0.57277 0.88018 0.0
H1148 H 0.34955 0.61496 0.96182 0.0
H1149 H 0.2313 0.53206 0.93889 0.0
H1150 H 0.29089 0.59462 0.91025 0.0
H1151 H 0.2701 0.58386 0.99053 0.0
C1152 C 0.3041 0.603 1.00077 0.0
C1153 C 0.3268 0.61197 0.99304 0.0
C1154 C 0.27772 0.58101 0.91655 0.0
C1155 C 0.29366 0.58764 0.95987 0.0
C1156 C 0.26202 0.56868 0.89943 0.0
C1157 C 0.24517 0.55051 0.90701 0.0
C1158 C 0.27636 0.57551 0.94153 0.0
C1159 C 0.24402 0.5459 0.93224 0.0
C1160 C 0.2876 0.59054 0.98434 0.0
C1161 C 0.33241 0.60803 0.96862 0.0
N1162 N 0.25939 0.55836 0.94864 0.0
N1163 N 0.31586 0.59639 0.95285 0.0
H1164 H 0.45622 0.32371 0.99858 0.0
H1165 H 0.48809 0.27974 0.86503 0.0
H1166 H 0.40063 0.30463 0.94276 0.0
H1167 H 0.53343 0.26255 0.92852 0.0
H1168 H 0.45808 0.29557 0.89202 0.0
H1169 H 0.48704 0.30791 0.97213 0.0
C1170 C 0.45053 0.3163 0.98074 0.0
C1171 C 0.42577 0.31539 0.97295 0.0
C1172 C 0.4746 0.28837 0.90007 0.0
C1173 C 0.46095 0.29767 0.94243 0.0
C1174 C 0.49182 0.27946 0.88465 0.0
C1175 C 0.51335 0.26977 0.8945 0.0
C1176 C 0.47908 0.2882 0.92561 0.0
C1177 C 0.51703 0.26968 0.92016 0.0
C1178 C 0.46808 0.30718 0.96573 0.0
C1179 C 0.41943 0.30548 0.94965 0.0
N1180 N 0.50022 0.27893 0.9348 0.0
N1181 N 0.43685 0.29725 0.93519 0.0
H1182 H 0.75398 0.39863 0.96575 0.0
H1183 H 0.7862 0.51527 0.88305 0.0
H1184 H 0.70653 0.45868 0.95666 0.0
H1185 H 0.83447 0.45711 0.89876 0.0
H1186 H 0.75424 0.49263 0.90492 0.0
H1187 H 0.78079 0.4175 0.93647 0.0
C1188 C 0.74889 0.41561 0.95743 0.0
C1189 C 0.72781 0.42703 0.96401 0.0
C1190 C 0.77172 0.48469 0.90325 0.0
C1191 C 0.75912 0.44918 0.93035 0.0
C1192 C 0.7899 0.49751 0.89058 0.0
C1193 C 0.81309 0.4881 0.88912 0.0
C1194 C 0.77676 0.46227 0.91441 0.0
C1195 C 0.81694 0.46515 0.89954 0.0
C1196 C 0.76444 0.42653 0.94071 0.0
C1197 C 0.7227 0.44931 0.95256 0.0
N1198 N 0.79909 0.45316 0.91181 0.0
N1199 N 0.73829 0.45971 0.93645 0.0
H1200 H 0.61126 0.31598 0.05566 0.0
H1201 H 0.57961 0.25203 0.18265 0.0
H1202 H 0.64248 0.3393 0.1261 0.0
H1203 H 0.52696 0.25104 0.12143 0.0
H1204 H 0.60753 0.2771 0.15881 0.0
H1205 H 0.58441 0.286 0.07649 0.0
C1206 C 0.61249 0.31473 0.07545 0.0
C1207 C 0.62892 0.33034 0.08919 0.0
C1208 C 0.58996 0.27123 0.15049 0.0
C1209 C 0.5988 0.29593 0.113 0.0
C1210 C 0.57398 0.25673 0.16405 0.0
C1211 C 0.55068 0.24946 0.15419 0.0
C1212 C 0.58288 0.27846 0.12667 0.0
C1213 C 0.54466 0.25624 0.12987 0.0
C1214 C 0.59717 0.29772 0.0873 0.0
C1215 C 0.62983 0.32796 0.1148 0.0
N1216 N 0.56061 0.27044 0.11697 0.0
N1217 N 0.61514 0.31107 0.1258 0.0
H1218 H 0.77574 0.61639 0.2072 0.0
H1219 H 0.73003 0.63544 0.06765 0.0
H1220 H 0.79739 0.57312 0.1468 0.0
H1221 H 0.71525 0.68607 0.12459 0.0
H1222 H 0.7567 0.61409 0.09647 0.0
H1223 H 0.75467 0.64295 0.1779 0.0
C1224 C 0.77609 0.61239 0.18784 0.0
C1225 C 0.78841 0.59227 0.1796 0.0
C1226 C 0.74802 0.63008 0.10272 0.0
C1227 C 0.76437 0.62291 0.14583 0.0
C1228 C 0.73292 0.6424 0.08618 0.0
C1229 C 0.72067 0.66273 0.09365 0.0
C1230 C 0.7506 0.6377 0.12729 0.0
C1231 C 0.72471 0.67073 0.11798 0.0
C1232 C 0.76419 0.62773 0.17109 0.0
C1233 C 0.78843 0.5884 0.15417 0.0
N1234 N 0.73909 0.658 0.13405 0.0
N1235 N 0.77654 0.60341 0.13833 0.0
H1236 H 0.38262 0.76438 0.10079 0.0
H1237 H 0.47994 0.8109 0.20636 0.0
H1238 H 0.42979 0.716 0.14057 0.0
H1239 H 0.43627 0.85753 0.16069 0.0
H1240 H 0.45766 0.77512 0.18749 0.0
H1241 H 0.39797 0.79764 0.12731 0.0
C1242 C 0.39598 0.76054 0.11525 0.0
C1243 C 0.40496 0.73715 0.11816 0.0
C1244 C 0.4527 0.79321 0.18194 0.0
C1245 C 0.42311 0.77574 0.14868 0.0
C1246 C 0.46523 0.8136 0.19289 0.0
C1247 C 0.45995 0.83716 0.185 0.0
C1248 C 0.43475 0.79655 0.16315 0.0
C1249 C 0.44101 0.83967 0.1672 0.0
C1250 C 0.4049 0.77972 0.1304 0.0
C1251 C 0.42258 0.73372 0.13725 0.0
N1252 N 0.42926 0.81968 0.15679 0.0
N1253 N 0.4312 0.75281 0.15165 0.0
H1254 H 0.31535 0.4429 0.05975 0.0
H1255 H 0.23733 0.4599 0.17909 0.0
H1256 H 0.29692 0.38338 0.1079 0.0
H1257 H 0.2328 0.50668 0.11597 0.0
H1258 H 0.26636 0.43524 0.15792 0.0
H1259 H 0.29207 0.4699 0.08462 0.0
C1260 C 0.30659 0.43554 0.07565 0.0
C1261 C 0.30798 0.41073 0.08154 0.0
C1262 C 0.25931 0.45116 0.14891 0.0
C1263 C 0.28141 0.44169 0.11039 0.0
C1264 C 0.24301 0.46539 0.16111 0.0
C1265 C 0.23289 0.48554 0.14938 0.0
C1266 C 0.26577 0.45735 0.12495 0.0
C1267 C 0.24035 0.49143 0.12577 0.0
C1268 C 0.29321 0.45094 0.08981 0.0
C1269 C 0.29608 0.40225 0.1024 0.0
N1270 N 0.25628 0.4775 0.1144 0.0
N1271 N 0.28339 0.41765 0.11605 0.0
H1272 H 0.86608 0.63892 0.83057 0.0
H1273 H 0.97648 0.63122 0.74113 0.0
H1274 H 0.88864 0.57147 0.8004 0.0
H1275 H 0.95082 0.69896 0.76761 0.0
H1276 H 0.94307 0.60928 0.76072 0.0
H1277 H 0.89503 0.66134 0.80535 0.0
C1278 C 0.87681 0.62881 0.81834 0.0
C1279 C 0.8749 0.60321 0.81773 0.0
C1280 C 0.94467 0.62896 0.76215 0.0
C1281 C 0.90855 0.62887 0.78901 0.0
C1282 C 0.96377 0.64159 0.75084 0.0
C1283 C 0.9667 0.66712 0.75265 0.0
C1284 C 0.92826 0.64185 0.77551 0.0
C1285 C 0.94967 0.67933 0.76593 0.0
C1286 C 0.89347 0.64166 0.80401 0.0
C1287 C 0.88937 0.59118 0.80149 0.0
N1288 N 0.9313 0.6666 0.77687 0.0
N1289 N 0.90574 0.60408 0.788 0.0
H1290 H 0.91894 0.47881 0.26205 0.0
H1291 H 0.93879 0.34179 0.30706 0.0
H1292 H 0.85926 0.42759 0.27584 0.0
H1293 H 0.9962 0.39808 0.30659 0.0
H1294 H 0.90962 0.37156 0.29231 0.0
H1295 H 0.9476 0.44831 0.27532 0.0
C1296 C 0.91183 0.46111 0.26778 0.0
C1297 C 0.88658 0.45582 0.26774 0.0
C1298 C 0.92862 0.37737 0.2954 0.0
C1299 C 0.91948 0.42059 0.2831 0.0
C1300 C 0.94532 0.36032 0.30363 0.0
C1301 C 0.97003 0.36742 0.30817 0.0
C1302 C 0.93667 0.40168 0.29141 0.0
C1303 C 0.97733 0.39182 0.30364 0.0
C1304 C 0.92824 0.44369 0.27549 0.0
C1305 C 0.87852 0.43259 0.27576 0.0
N1306 N 0.9608 0.40799 0.29553 0.0
N1307 N 0.89489 0.41582 0.28299 0.0
H1308 H 0.61713 1.00864 0.35411 0.0
H1309 H 0.57077 0.89354 0.27091 0.0
H1310 H 0.66402 0.9574 0.32295 0.0
H1311 H 0.52418 0.95108 0.28957 0.0
H1312 H 0.60351 0.91276 0.29701 0.0
H1313 H 0.58149 0.98402 0.33745 0.0
C1314 C 0.61991 0.99202 0.34417 0.0
C1315 C 0.64356 0.98519 0.33969 0.0
C1316 C 0.58604 0.92107 0.29562 0.0
C1317 C 0.60306 0.95704 0.32063 0.0
C1318 C 0.56726 0.91002 0.28076 0.0
C1319 C 0.5447 0.92081 0.27775 0.0
C1320 C 0.58236 0.94315 0.30761 0.0
C1321 C 0.54131 0.94217 0.29114 0.0
C1322 C 0.59961 0.97806 0.33455 0.0
C1323 C 0.64613 0.96354 0.32659 0.0
N1324 N 0.55999 0.95277 0.30527 0.0
N1325 N 0.62621 0.95037 0.31746 0.0
H1326 H 0.13292 0.55529 0.25392 0.0
H1327 H 0.1215 0.69975 0.26656 0.0
H1328 H 0.17921 0.60702 0.21654 0.0
H1329 H 0.07706 0.64551 0.30328 0.0
H1330 H 0.14518 0.66705 0.25052 0.0
H1331 H 0.11578 0.58877 0.27573 0.0
C1332 C 0.14007 0.57374 0.25097 0.0
C1333 C 0.15792 0.57834 0.23387 0.0
C1334 C 0.13034 0.66239 0.26225 0.0
C1335 C 0.13743 0.61717 0.25788 0.0
C1336 C 0.11665 0.68108 0.27132 0.0
C1337 C 0.09707 0.67564 0.28644 0.0
C1338 C 0.12447 0.63796 0.26823 0.0
C1339 C 0.09203 0.65094 0.29207 0.0
C1340 C 0.13004 0.59294 0.26317 0.0
C1341 C 0.16594 0.60267 0.23009 0.0
N1342 N 0.1055 0.6332 0.28295 0.0
N1343 N 0.15544 0.62121 0.24177 0.0
H1344 H 0.4511 0.20465 0.28081 0.0
H1345 H 0.4222 0.06049 0.28319 0.0
H1346 H 0.48176 0.15619 0.2298 0.0
H1347 H 0.3796 0.11242 0.31928 0.0
H1348 H 0.44617 0.09438 0.26549 0.0
H1349 H 0.42649 0.17056 0.29642 0.0
C1350 C 0.45255 0.1868 0.27272 0.0
C1351 C 0.46859 0.18337 0.25389 0.0
C1352 C 0.43161 0.09834 0.27731 0.0
C1353 C 0.44045 0.14379 0.27216 0.0
C1354 C 0.41801 0.07899 0.28763 0.0
C1355 C 0.39885 0.08351 0.30295 0.0
C1356 C 0.42626 0.12251 0.28248 0.0
C1357 C 0.39418 0.10795 0.3077 0.0
C1358 C 0.43843 0.16728 0.2817 0.0
C1359 C 0.46954 0.15975 0.24418 0.0
N1360 N 0.40779 0.12641 0.29762 0.0
N1361 N 0.45585 0.14081 0.25359 0.0
H1362 H 0.06802 0.40031 0.78856 0.0
H1363 H 0.20375 0.42194 0.8463 0.0
H1364 H 0.12596 0.3518 0.77742 0.0
H1365 H 0.15295 0.47907 0.83678 0.0
H1366 H 0.17212 0.39243 0.83062 0.0
H1367 H 0.09572 0.4252 0.81575 0.0
C1368 C 0.08638 0.39453 0.79225 0.0
C1369 C 0.09474 0.37401 0.78044 0.0
C1370 C 0.16781 0.41137 0.83228 0.0
C1371 C 0.12654 0.40259 0.81151 0.0
C1372 C 0.18583 0.42826 0.84134 0.0
C1373 C 0.18113 0.45313 0.8426 0.0
C1374 C 0.14482 0.41932 0.82458 0.0
C1375 C 0.15749 0.46014 0.83593 0.0
C1376 C 0.10223 0.40889 0.80766 0.0
C1377 C 0.11878 0.36756 0.78593 0.0
N1378 N 0.14029 0.44336 0.82703 0.0
N1379 N 0.13389 0.3819 0.8009 0.0
H1380 H 0.62769 0.13826 0.82397 0.0
H1381 H 0.68516 0.08723 0.70214 0.0
H1382 H 0.62597 0.17828 0.756 0.0
H1383 H 0.68958 0.05334 0.77327 0.0
H1384 H 0.66066 0.11912 0.71945 0.0
H1385 H 0.64763 0.10571 0.80391 0.0
C1386 C 0.63127 0.14026 0.80477 0.0
C1387 C 0.62494 0.16135 0.79185 0.0
C1388 C 0.66686 0.10454 0.73115 0.0
C1389 C 0.64841 0.12361 0.76843 0.0
C1390 C 0.68068 0.08623 0.7212 0.0
C1391 C 0.68958 0.06754 0.73624 0.0
C1392 C 0.66178 0.10402 0.75623 0.0
C1393 C 0.68337 0.0674 0.76092 0.0
C1394 C 0.64288 0.12156 0.79326 0.0
C1395 C 0.63064 0.16264 0.76693 0.0
N1396 N 0.67005 0.08523 0.77003 0.0
N1397 N 0.64202 0.14412 0.75609 0.0
H1398 H 0.4455 0.87649 0.8317 0.0
H1399 H 0.45014 1.00469 0.76508 0.0
H1400 H 0.50424 0.93034 0.84528 0.0
H1401 H 0.38486 0.95807 0.76509 0.0
H1402 H 0.4689 0.97936 0.79677 0.0
H1403 H 0.42198 0.90702 0.80997 0.0
C1404 C 0.45334 0.8949 0.83043 0.0
C1405 C 0.47699 0.90079 0.84028 0.0
C1406 C 0.45034 0.97481 0.79024 0.0
C1407 C 0.4501 0.93596 0.81484 0.0
C1408 C 0.43957 0.9893 0.77213 0.0
C1409 C 0.41588 0.98347 0.7624 0.0
C1410 C 0.4376 0.95386 0.79846 0.0
C1411 C 0.40307 0.96333 0.7722 0.0
C1412 C 0.43983 0.91236 0.81798 0.0
C1413 C 0.48608 0.92498 0.83809 0.0
N1414 N 0.41424 0.949 0.78938 0.0
N1415 N 0.4728 0.94156 0.82527 0.0
loop_
_geom_bond_atom_site_label_1
_geom_bond_atom_site_label_2
_geom_bond_distance
_geom_bond_site_symmetry_2
_ccdc_geom_bond_type
Cu0 N1 1.999 1_545 S
Cu0 O6 1.974 . S
Cu0 N11 1.985 . S
Cu0 O20 1.959 1_545 S
N1 Cu0 1.999 1_565 S
N1 C3 1.263 . S
N1 C5 1.389 . S
N2 C3 1.358 . S
N2 C4 1.400 . S
C3 N1 1.263 . S
C3 N2 1.358 . S
C3 H9 0.930 1_565 S
C4 N2 1.400 . S
C4 C5 1.351 . S
C4 H21 0.930 . S
C5 N1 1.389 . S
C5 C4 1.351 . S
C5 H10 0.930 . S
O6 Cu0 1.974 . S
O6 C16 1.282 . S
C7 O8 1.261 . S
C7 O20 1.251 . S
O8 C7 1.261 . S
H9 C3 0.930 1_545 S
H10 C5 0.930 . S
N11 Cu0 1.985 . S
N11 C13 1.335 . S
N11 C14 1.390 . S
N12 C13 1.345 . S
N12 C15 1.336 . S
C13 N11 1.335 . S
C13 N12 1.345 . S
C13 H18 0.930 . S
C14 N11 1.390 . S
C14 C15 1.346 . S
C14 H19 0.930 . S
C15 N12 1.336 . S
C15 C14 1.346 . S
C15 H22 0.929 . S
C16 O6 1.282 . S
C16 O17 1.216 . S
O17 C16 1.216 . S
H18 C13 0.930 . S
H19 C14 0.930 . S
O20 Cu0 1.959 1_565 S
O20 C7 1.251 . S
H21 C4 0.930 . S
H22 C15 0.929 . S
Cu23 N24 1.999 . S
Cu23 O29 1.974 1_455 S
Cu23 N34 1.985 1_455 S
Cu23 O43 1.959 . S
N24 Cu23 1.999 . S
N24 C26 1.263 . S
N24 C28 1.389 . S
N25 C26 1.358 . S
N25 C27 1.400 . S
C26 N24 1.263 . S
C26 N25 1.358 . S
C26 H32 0.930 . S
C27 N25 1.400 . S
C27 C28 1.351 . S
C27 H44 0.930 . S
C28 N24 1.389 . S
C28 C27 1.351 . S
C28 H33 0.930 . S
O29 Cu23 1.974 1_655 S
O29 C39 1.282 . S
C30 O31 1.261 . S
C30 O43 1.251 . S
O31 C30 1.261 . S
H32 C26 0.930 . S
H33 C28 0.930 . S
N34 Cu23 1.985 1_655 S
N34 C36 1.335 . S
N34 C37 1.390 . S
N35 C36 1.345 . S
N35 C38 1.336 . S
C36 N34 1.335 . S
C36 N35 1.345 . S
C36 H41 0.898 1_655 S
C37 N34 1.390 . S
C37 C38 1.346 . S
C37 H42 0.930 . S
C38 N35 1.336 . S
C38 C37 1.346 . S
C38 H45 0.929 . S
C39 O29 1.282 . S
C39 O40 1.216 . S
O40 C39 1.216 . S
H41 C36 0.898 1_455 S
H42 C37 0.930 . S
O43 Cu23 1.959 . S
O43 C30 1.251 . S
H44 C27 0.930 . S
H45 C38 0.929 . S
Cu46 N47 1.999 . S
Cu46 O52 1.974 1_545 S
Cu46 N57 1.985 1_545 S
Cu46 O66 1.959 . S
N47 Cu46 1.999 . S
N47 C49 1.263 . S
N47 C51 1.389 . S
N48 C49 1.358 . S
N48 C50 1.400 . S
C49 N47 1.263 . S
C49 N48 1.358 . S
C49 H55 0.930 . S
C50 N48 1.400 . S
C50 C51 1.351 . S
C50 H67 0.930 . S
C51 N47 1.389 . S
C51 C50 1.351 . S
C51 H56 0.930 . S
O52 Cu46 1.974 1_565 S
O52 C62 1.282 . S
C53 O54 1.261 . S
C53 O66 1.251 . S
O54 C53 1.261 . S
H55 C49 0.930 . S
H56 C51 0.930 . S
N57 Cu46 1.985 1_565 S
N57 C59 1.335 . S
N57 C60 1.390 . S
N58 C59 1.345 . S
N58 C61 1.336 . S
C59 N57 1.335 . S
C59 N58 1.345 . S
C59 H64 0.930 . S
C60 N57 1.390 . S
C60 C61 1.346 . S
C60 H65 0.930 . S
C61 N58 1.336 . S
C61 C60 1.346 . S
C61 H68 0.929 . S
C62 O52 1.282 . S
C62 O63 1.216 . S
O63 C62 1.216 . S
H64 C59 0.930 . S
H65 C60 0.930 . S
O66 Cu46 1.959 . S
O66 C53 1.251 . S
H67 C50 0.930 . S
H68 C61 0.929 . S
Cu69 N70 1.999 . S
Cu69 O75 1.974 1_455 S
Cu69 N80 1.985 1_455 S
Cu69 O89 1.959 . S
N70 Cu69 1.999 . S
N70 C72 1.263 . S
N70 C74 1.389 . S
N71 C72 1.358 . S
N71 C73 1.400 . S
C72 N70 1.263 . S
C72 N71 1.358 . S
C72 H78 0.930 . S
C73 N71 1.400 . S
C73 C74 1.351 . S
C73 H90 0.930 . S
C74 N70 1.389 . S
C74 C73 1.351 . S
C74 H79 0.930 . S
O75 Cu69 1.974 1_655 S
O75 C85 1.282 . S
C76 O77 1.261 . S
C76 O89 1.251 . S
O77 C76 1.261 . S
H78 C72 0.930 . S
H79 C74 0.930 . S
N80 Cu69 1.985 1_655 S
N80 C82 1.335 . S
N80 C83 1.390 . S
N81 C82 1.345 . S
N81 C84 1.336 . S
C82 N80 1.335 . S
C82 N81 1.345 . S
C82 H87 0.930 . S
C83 N80 1.390 . S
C83 C84 1.346 . S
C83 H88 0.930 . S
C84 N81 1.336 . S
C84 C83 1.346 . S
C84 H91 0.929 . S
C85 O75 1.282 . S
C85 O86 1.216 . S
O86 C85 1.216 . S
H87 C82 0.930 . S
H88 C83 0.930 . S
O89 Cu69 1.959 . S
O89 C76 1.251 . S
H90 C73 0.930 . S
H91 C84 0.929 . S
Cu92 N93 1.999 . S
Cu92 O98 1.974 1_545 S
Cu92 N103 1.985 1_545 S
Cu92 O112 1.959 . S
N93 Cu92 1.999 . S
N93 C95 1.263 . S
N93 C97 1.389 . S
N94 C95 1.358 . S
N94 C96 1.400 . S
C95 N93 1.263 . S
C95 N94 1.358 . S
C95 H101 0.930 . S
C96 N94 1.400 . S
C96 C97 1.351 . S
C96 H113 0.930 . S
C97 N93 1.389 . S
C97 C96 1.351 . S
C97 H102 0.930 . S
O98 Cu92 1.974 1_565 S
O98 C108 1.282 . S
C99 O100 1.261 . S
C99 O112 1.251 . S
O100 C99 1.261 . S
H101 C95 0.930 . S
H102 C97 0.930 . S
N103 Cu92 1.985 1_565 S
N103 C105 1.335 . S
N103 C106 1.390 . S
N104 C105 1.345 . S
N104 C107 1.336 . S
C105 N103 1.335 . S
C105 N104 1.345 . S
C105 H110 0.930 . S
C106 N103 1.390 . S
C106 C107 1.346 . S
C106 H111 0.930 . S
C107 N104 1.336 . S
C107 C106 1.346 . S
C107 H114 0.929 . S
C108 O98 1.282 . S
C108 O109 1.216 . S
O109 C108 1.216 . S
H110 C105 0.930 . S
H111 C106 0.930 . S
O112 Cu92 1.959 . S
O112 C99 1.251 . S
H113 C96 0.930 . S
H114 C107 0.929 . S
Cu115 N116 1.999 . S
Cu115 O121 1.974 1_455 S
Cu115 N126 1.985 1_455 S
Cu115 O135 1.959 . S
N116 Cu115 1.999 . S
N116 C118 1.263 . S
N116 C120 1.389 . S
N117 C118 1.358 . S
N117 C119 1.400 . S
C118 N116 1.263 . S
C118 N117 1.358 . S
C118 H124 0.930 . S
C119 N117 1.400 . S
C119 C120 1.351 . S
C119 H136 0.930 . S
C120 N116 1.389 . S
C120 C119 1.351 . S
C120 H125 0.930 . S
O121 Cu115 1.974 1_655 S
O121 C131 1.282 . S
C122 O123 1.261 . S
C122 O135 1.251 . S
O123 C122 1.261 . S
H124 C118 0.930 . S
H125 C120 0.930 . S
N126 Cu115 1.985 1_655 S
N126 C128 1.335 . S
N126 C129 1.390 . S
N127 C128 1.345 . S
N127 C130 1.336 . S
C128 N126 1.335 . S
C128 N127 1.345 . S
C128 H133 0.930 1_655 S
C129 N126 1.390 . S
C129 C130 1.346 . S
C129 H134 0.930 . S
C130 N127 1.336 . S
C130 C129 1.346 . S
C130 H137 0.929 . S
C131 O121 1.282 . S
C131 O132 1.216 . S
O132 C131 1.216 . S
H133 C128 0.930 1_455 S
H134 C129 0.930 . S
O135 Cu115 1.959 . S
O135 C122 1.251 . S
H136 C119 0.930 . S
H137 C130 0.929 . S
Cu138 N139 1.999 1_545 S
Cu138 O144 1.974 . S
Cu138 N149 1.985 . S
Cu138 O158 1.959 1_545 S
N139 Cu138 1.999 1_565 S
N139 C141 1.263 . S
N139 C143 1.389 . S
N140 C141 1.358 . S
N140 C142 1.400 . S
C141 N139 1.263 . S
C141 N140 1.358 . S
C141 H147 0.930 . S
C142 N140 1.400 . S
C142 C143 1.351 . S
C142 H159 0.930 . S
C143 N139 1.389 . S
C143 C142 1.351 . S
C143 H148 0.930 . S
O144 Cu138 1.974 . S
O144 C154 1.282 . S
C145 O146 1.261 . S
C145 O158 1.251 . S
O146 C145 1.261 . S
H147 C141 0.930 . S
H148 C143 0.930 . S
N149 Cu138 1.985 . S
N149 C151 1.335 . S
N149 C152 1.390 . S
N150 C151 1.345 . S
N150 C153 1.336 . S
C151 N149 1.335 . S
C151 N150 1.345 . S
C151 H156 0.930 . S
C152 N149 1.390 . S
C152 C153 1.346 . S
C152 H157 0.930 . S
C153 N150 1.336 . S
C153 C152 1.346 . S
C153 H160 0.929 . S
C154 O144 1.282 . S
C154 O155 1.216 . S
O155 C154 1.216 . S
H156 C151 0.930 . S
H157 C152 0.930 . S
O158 Cu138 1.959 1_565 S
O158 C145 1.251 . S
H159 C142 0.930 . S
H160 C153 0.929 . S
Cu161 N162 2.002 . S
Cu161 O167 1.972 1_455 S
Cu161 N172 1.982 1_455 S
Cu161 O181 1.961 . S
N162 Cu161 2.002 . S
N162 C164 1.263 . S
N162 C166 1.389 . S
N163 C164 1.358 . S
N163 C165 1.400 . S
C164 N162 1.263 . S
C164 N163 1.358 . S
C164 H170 0.930 . S
C165 N163 1.400 . S
C165 C166 1.351 . S
C165 H182 0.930 . S
C166 N162 1.389 . S
C166 C165 1.351 . S
C166 H171 0.930 . S
O167 Cu161 1.972 1_655 S
O167 C177 1.282 . S
C168 O169 1.261 . S
C168 O181 1.251 . S
O169 C168 1.261 . S
H170 C164 0.930 . S
H171 C166 0.930 . S
N172 Cu161 1.982 1_655 S
N172 C174 1.335 . S
N172 C175 1.390 . S
N173 C174 1.345 . S
N173 C176 1.336 . S
C174 N172 1.335 . S
C174 N173 1.345 . S
C174 H179 0.930 . S
C175 N172 1.390 . S
C175 C176 1.346 . S
C175 H180 0.930 . S
C176 N173 1.336 . S
C176 C175 1.346 . S
C176 H183 0.929 . S
C177 O167 1.282 . S
C177 O178 1.216 . S
O178 C177 1.216 . S
H179 C174 0.930 . S
H180 C175 0.930 . S
O181 Cu161 1.961 . S
O181 C168 1.251 . S
H182 C165 0.930 . S
H183 C176 0.929 . S
Cu184 N185 1.999 . S
Cu184 O190 1.974 1_554 S
Cu184 N195 1.985 1_554 S
Cu184 O204 1.959 . S
N185 Cu184 1.999 . S
N185 C187 1.263 . S
N185 C189 1.389 . S
N186 C187 1.358 . S
N186 C188 1.400 . S
C187 N185 1.263 . S
C187 N186 1.358 . S
C187 H193 0.930 . S
C188 N186 1.400 . S
C188 C189 1.351 . S
C188 H205 0.930 . S
C189 N185 1.389 . S
C189 C188 1.351 . S
C189 H194 0.930 . S
O190 Cu184 1.974 1_556 S
O190 C200 1.282 . S
C191 O192 1.261 . S
C191 O204 1.251 . S
O192 C191 1.261 . S
H193 C187 0.930 . S
H194 C189 0.930 . S
N195 Cu184 1.985 1_556 S
N195 C197 1.335 . S
N195 C198 1.390 . S
N196 C197 1.345 . S
N196 C199 1.336 . S
C197 N195 1.335 . S
C197 N196 1.345 . S
C197 H202 0.919 1_556 S
C198 N195 1.390 . S
C198 C199 1.346 . S
C198 H203 0.930 . S
C199 N196 1.336 . S
C199 C198 1.346 . S
C199 H206 0.929 . S
C200 O190 1.282 . S
C200 O201 1.216 . S
O201 C200 1.216 . S
H202 C197 0.919 1_554 S
H203 C198 0.930 . S
O204 Cu184 1.959 . S
O204 C191 1.251 . S
H205 C188 0.930 . S
H206 C199 0.929 . S
Cu207 N208 1.999 1_554 S
Cu207 O213 1.974 . S
Cu207 N218 1.985 . S
Cu207 O227 1.959 1_554 S
N208 Cu207 1.999 1_556 S
N208 C210 1.263 . S
N208 C212 1.389 . S
N209 C210 1.358 . S
N209 C211 1.400 . S
C210 N208 1.263 . S
C210 N209 1.358 . S
C210 H216 0.930 . S
C211 N209 1.400 . S
C211 C212 1.351 . S
C211 H228 0.930 . S
C212 N208 1.389 . S
C212 C211 1.351 . S
C212 H217 0.930 . S
O213 Cu207 1.974 . S
O213 C223 1.282 . S
C214 O215 1.261 . S
C214 O227 1.251 . S
O215 C214 1.261 . S
H216 C210 0.930 . S
H217 C212 0.930 . S
N218 Cu207 1.985 . S
N218 C220 1.335 . S
N218 C221 1.390 . S
N219 C220 1.345 . S
N219 C222 1.336 . S
C220 N218 1.335 . S
C220 N219 1.345 . S
C220 H225 0.930 . S
C221 N218 1.390 . S
C221 C222 1.346 . S
C221 H226 0.930 . S
C222 N219 1.336 . S
C222 C221 1.346 . S
C222 H229 0.929 . S
C223 O213 1.282 . S
C223 O224 1.216 . S
O224 C223 1.216 . S
H225 C220 0.930 . S
H226 C221 0.930 . S
O227 Cu207 1.959 1_556 S
O227 C214 1.251 . S
H228 C211 0.930 . S
H229 C222 0.929 . S
Cu230 N231 1.989 1_556 S
Cu230 O236 1.982 . S
Cu230 N241 1.995 . S
Cu230 O250 1.950 1_556 S
N231 Cu230 1.989 1_554 S
N231 C233 1.263 . S
N231 C235 1.389 . S
N232 C233 1.358 . S
N232 C234 1.400 . S
C233 N231 1.263 . S
C233 N232 1.358 . S
C233 H239 0.930 . S
C234 N232 1.400 . S
C234 C235 1.351 . S
C234 H251 0.930 . S
C235 N231 1.389 . S
C235 C234 1.351 . S
C235 H240 0.930 . S
O236 Cu230 1.982 . S
O236 C246 1.282 . S
C237 O238 1.261 . S
C237 O250 1.251 . S
O238 C237 1.261 . S
H239 C233 0.930 . S
H240 C235 0.930 . S
N241 Cu230 1.995 . S
N241 C243 1.335 . S
N241 C244 1.390 . S
N242 C243 1.345 . S
N242 C245 1.336 . S
C243 N241 1.335 . S
C243 N242 1.345 . S
C243 H248 0.930 . S
C244 N241 1.390 . S
C244 C245 1.346 . S
C244 H249 0.930 . S
C245 N242 1.336 . S
C245 C244 1.346 . S
C245 H252 0.929 . S
C246 O236 1.282 . S
C246 O247 1.216 . S
O247 C246 1.216 . S
H248 C243 0.930 . S
H249 C244 0.930 . S
O250 Cu230 1.950 1_554 S
O250 C237 1.251 . S
H251 C234 0.930 . S
H252 C245 0.929 . S
Cu253 N254 1.999 1_554 S
Cu253 O259 1.974 . S
Cu253 N264 1.985 . S
Cu253 O273 1.959 1_554 S
N254 Cu253 1.999 1_556 S
N254 C256 1.263 . S
N254 C258 1.389 . S
N255 C256 1.358 . S
N255 C257 1.400 . S
C256 N254 1.263 . S
C256 N255 1.358 . S
C256 H262 0.930 . S
C257 N255 1.400 . S
C257 C258 1.351 . S
C257 H274 0.930 . S
C258 N254 1.389 . S
C258 C257 1.351 . S
C258 H263 0.930 . S
O259 Cu253 1.974 . S
O259 C269 1.282 . S
C260 O261 1.261 . S
C260 O273 1.251 . S
O261 C260 1.261 . S
H262 C256 0.930 . S
H263 C258 0.930 . S
N264 Cu253 1.985 . S
N264 C266 1.335 . S
N264 C267 1.390 . S
N265 C266 1.345 . S
N265 C268 1.336 . S
C266 N264 1.335 . S
C266 N265 1.345 . S
C266 H271 0.930 . S
C267 N264 1.390 . S
C267 C268 1.346 . S
C267 H272 0.930 . S
C268 N265 1.336 . S
C268 C267 1.346 . S
C268 H275 0.929 . S
C269 O259 1.282 . S
C269 O270 1.216 . S
O270 C269 1.216 . S
H271 C266 0.930 . S
H272 C267 0.930 . S
O273 Cu253 1.959 1_556 S
O273 C260 1.251 . S
H274 C257 0.930 . S
H275 C268 0.929 . S
Cu276 N277 1.999 . S
Cu276 O282 1.974 . S
Cu276 N287 1.985 . S
Cu276 O296 1.959 . S
N277 Cu276 1.999 . S
N277 C279 1.263 . S
N277 C281 1.389 . S
N278 C279 1.358 . S
N278 C280 1.400 . S
C279 N277 1.263 . S
C279 N278 1.358 . S
C279 H285 0.930 . S
C280 N278 1.400 . S
C280 C281 1.351 . S
C280 H297 0.930 . S
C281 N277 1.389 . S
C281 C280 1.351 . S
C281 H286 0.930 . S
O282 Cu276 1.974 . S
O282 C292 1.282 . S
C283 O284 1.261 . S
C283 O296 1.251 . S
O284 C283 1.261 . S
H285 C279 0.930 . S
H286 C281 0.930 . S
N287 Cu276 1.985 . S
N287 C289 1.335 . S
N287 C290 1.390 . S
N288 C289 1.345 . S
N288 C291 1.336 . S
C289 N287 1.335 . S
C289 N288 1.345 . S
C289 H294 0.930 . S
C290 N287 1.390 . S
C290 C291 1.346 . S
C290 H295 0.930 . S
C291 N288 1.336 . S
C291 C290 1.346 . S
C291 H298 0.929 . S
C292 O282 1.282 . S
C292 O293 1.216 . S
O293 C292 1.216 . S
H294 C289 0.930 . S
H295 C290 0.930 . S
O296 Cu276 1.959 . S
O296 C283 1.251 . S
H297 C280 0.930 . S
H298 C291 0.929 . S
Cu299 N300 1.999 . S
Cu299 O305 1.974 . S
Cu299 N310 1.985 . S
Cu299 O319 1.959 . S
N300 Cu299 1.999 . S
N300 C302 1.263 . S
N300 C304 1.389 . S
N301 C302 1.358 . S
N301 C303 1.400 . S
C302 N300 1.263 . S
C302 N301 1.358 . S
C302 H308 0.930 . S
C303 N301 1.400 . S
C303 C304 1.351 . S
C303 H320 0.930 . S
C304 N300 1.389 . S
C304 C303 1.351 . S
C304 H309 0.930 . S
O305 Cu299 1.974 . S
O305 C315 1.282 . S
C306 O307 1.261 . S
C306 O319 1.251 . S
O307 C306 1.261 . S
H308 C302 0.930 . S
H309 C304 0.930 . S
N310 Cu299 1.985 . S
N310 C312 1.335 . S
N310 C313 1.390 . S
N311 C312 1.345 . S
N311 C314 1.336 . S
C312 N310 1.335 . S
C312 N311 1.345 . S
C312 H317 0.930 . S
C313 N310 1.390 . S
C313 C314 1.346 . S
C313 H318 0.930 . S
C314 N311 1.336 . S
C314 C313 1.346 . S
C314 H321 0.929 . S
C315 O305 1.282 . S
C315 O316 1.216 . S
O316 C315 1.216 . S
H317 C312 0.930 . S
H318 C313 0.930 . S
O319 Cu299 1.959 . S
O319 C306 1.251 . S
H320 C303 0.930 . S
H321 C314 0.929 . S
Cu322 N323 1.999 . S
Cu322 O328 1.974 . S
Cu322 N333 1.985 . S
Cu322 O342 1.959 . S
N323 Cu322 1.999 . S
N323 C325 1.263 . S
N323 C327 1.389 . S
N324 C325 1.358 . S
N324 C326 1.400 . S
C325 N323 1.263 . S
C325 N324 1.358 . S
C325 H331 0.930 . S
C326 N324 1.400 . S
C326 C327 1.351 . S
C326 H343 0.930 . S
C327 N323 1.389 . S
C327 C326 1.351 . S
C327 H332 0.930 . S
O328 Cu322 1.974 . S
O328 C338 1.282 . S
C329 O330 1.261 . S
C329 O342 1.251 . S
O330 C329 1.261 . S
H331 C325 0.930 . S
H332 C327 0.930 . S
N333 Cu322 1.985 . S
N333 C335 1.335 . S
N333 C336 1.390 . S
N334 C335 1.345 . S
N334 C337 1.336 . S
C335 N333 1.335 . S
C335 N334 1.345 . S
C335 H340 0.930 . S
C336 N333 1.390 . S
C336 C337 1.346 . S
C336 H341 0.930 . S
C337 N334 1.336 . S
C337 C336 1.346 . S
C337 H344 0.929 . S
C338 O328 1.282 . S
C338 O339 1.216 . S
O339 C338 1.216 . S
H340 C335 0.930 . S
H341 C336 0.930 . S
O342 Cu322 1.959 . S
O342 C329 1.251 . S
H343 C326 0.930 . S
H344 C337 0.929 . S
Cu345 N346 1.999 . S
Cu345 O351 1.974 . S
Cu345 N356 1.985 . S
Cu345 O365 1.959 . S
N346 Cu345 1.999 . S
N346 C348 1.263 . S
N346 C350 1.389 . S
N347 C348 1.358 . S
N347 C349 1.400 . S
C348 N346 1.263 . S
C348 N347 1.358 . S
C348 H354 0.930 . S
C349 N347 1.400 . S
C349 C350 1.351 . S
C349 H366 0.930 . S
C350 N346 1.389 . S
C350 C349 1.351 . S
C350 H355 0.930 . S
O351 Cu345 1.974 . S
O351 C361 1.282 . S
C352 O353 1.261 . S
C352 O365 1.251 . S
O353 C352 1.261 . S
H354 C348 0.930 . S
H355 C350 0.930 . S
N356 Cu345 1.985 . S
N356 C358 1.335 . S
N356 C359 1.390 . S
N357 C358 1.345 . S
N357 C360 1.336 . S
C358 N356 1.335 . S
C358 N357 1.345 . S
C358 H363 0.930 . S
C359 N356 1.390 . S
C359 C360 1.346 . S
C359 H364 0.930 . S
C360 N357 1.336 . S
C360 C359 1.346 . S
C360 H367 0.929 . S
C361 O351 1.282 . S
C361 O362 1.216 . S
O362 C361 1.216 . S
H363 C358 0.930 . S
H364 C359 0.930 . S
O365 Cu345 1.959 . S
O365 C352 1.251 . S
H366 C349 0.930 . S
H367 C360 0.929 . S
Cu368 N369 1.999 . S
Cu368 O374 1.974 . S
Cu368 N379 1.985 . S
Cu368 O388 1.959 . S
N369 Cu368 1.999 . S
N369 C371 1.263 . S
N369 C373 1.389 . S
N370 C371 1.358 . S
N370 C372 1.400 . S
C371 N369 1.263 . S
C371 N370 1.358 . S
C371 H377 0.930 . S
C372 N370 1.400 . S
C372 C373 1.351 . S
C372 H389 0.930 . S
C373 N369 1.389 . S
C373 C372 1.351 . S
C373 H378 0.930 . S
O374 Cu368 1.974 . S
O374 C384 1.282 . S
C375 O376 1.261 . S
C375 O388 1.251 . S
O376 C375 1.261 . S
H377 C371 0.930 . S
H378 C373 0.930 . S
N379 Cu368 1.985 . S
N379 C381 1.335 . S
N379 C382 1.390 . S
N380 C381 1.345 . S
N380 C383 1.336 . S
C381 N379 1.335 . S
C381 N380 1.345 . S
C381 H386 0.930 . S
C382 N379 1.390 . S
C382 C383 1.346 . S
C382 H387 0.930 . S
C383 N380 1.336 . S
C383 C382 1.346 . S
C383 H390 0.929 . S
C384 O374 1.282 . S
C384 O385 1.216 . S
O385 C384 1.216 . S
H386 C381 0.930 . S
H387 C382 0.930 . S
O388 Cu368 1.959 . S
O388 C375 1.251 . S
H389 C372 0.930 . S
H390 C383 0.929 . S
Cu391 N392 1.999 . S
Cu391 O397 1.974 . S
Cu391 N402 1.985 . S
Cu391 O411 1.959 . S
N392 Cu391 1.999 . S
N392 C394 1.263 . S
N392 C396 1.389 . S
N393 C394 1.358 . S
N393 C395 1.400 . S
C394 N392 1.263 . S
C394 N393 1.358 . S
C394 H400 0.930 . S
C395 N393 1.400 . S
C395 C396 1.351 . S
C395 H412 0.930 . S
C396 N392 1.389 . S
C396 C395 1.351 . S
C396 H401 0.930 . S
O397 Cu391 1.974 . S
O397 C407 1.282 . S
C398 O399 1.261 . S
C398 O411 1.251 . S
O399 C398 1.261 . S
H400 C394 0.930 . S
H401 C396 0.930 . S
N402 Cu391 1.985 . S
N402 C404 1.335 . S
N402 C405 1.390 . S
N403 C404 1.345 . S
N403 C406 1.336 . S
C404 N402 1.335 . S
C404 N403 1.345 . S
C404 H409 0.930 . S
C405 N402 1.390 . S
C405 C406 1.346 . S
C405 H410 0.930 . S
C406 N403 1.336 . S
C406 C405 1.346 . S
C406 H413 0.929 . S
C407 O397 1.282 . S
C407 O408 1.216 . S
O408 C407 1.216 . S
H409 C404 0.930 . S
H410 C405 0.930 . S
O411 Cu391 1.959 . S
O411 C398 1.251 . S
H412 C395 0.930 . S
H413 C406 0.929 . S
Cu414 N415 1.999 . S
Cu414 O420 1.974 . S
Cu414 N425 1.985 . S
Cu414 O434 1.959 . S
N415 Cu414 1.999 . S
N415 C417 1.263 . S
N415 C419 1.389 . S
N416 C417 1.358 . S
N416 C418 1.400 . S
C417 N415 1.263 . S
C417 N416 1.358 . S
C417 H423 0.930 . S
C418 N416 1.400 . S
C418 C419 1.351 . S
C418 H435 0.930 . S
C419 N415 1.389 . S
C419 C418 1.351 . S
C419 H424 0.930 . S
O420 Cu414 1.974 . S
O420 C430 1.282 . S
C421 O422 1.261 . S
C421 O434 1.251 . S
O422 C421 1.261 . S
H423 C417 0.930 . S
H424 C419 0.930 . S
N425 Cu414 1.985 . S
N425 C427 1.335 . S
N425 C428 1.390 . S
N426 C427 1.345 . S
N426 C429 1.336 . S
C427 N425 1.335 . S
C427 N426 1.345 . S
C427 H432 0.930 . S
C428 N425 1.390 . S
C428 C429 1.346 . S
C428 H433 0.930 . S
C429 N426 1.336 . S
C429 C428 1.346 . S
C429 H436 0.929 . S
C430 O420 1.282 . S
C430 O431 1.216 . S
O431 C430 1.216 . S
H432 C427 0.930 . S
H433 C428 0.930 . S
O434 Cu414 1.959 . S
O434 C421 1.251 . S
H435 C418 0.930 . S
H436 C429 0.929 . S
Cu437 N438 1.999 . S
Cu437 O443 1.974 . S
Cu437 N448 1.985 . S
Cu437 O457 1.959 . S
N438 Cu437 1.999 . S
N438 C440 1.263 . S
N438 C442 1.389 . S
N439 C440 1.358 . S
N439 C441 1.400 . S
C440 N438 1.263 . S
C440 N439 1.358 . S
C440 H446 0.930 . S
C441 N439 1.400 . S
C441 C442 1.351 . S
C441 H458 0.930 . S
C442 N438 1.389 . S
C442 C441 1.351 . S
C442 H447 0.930 . S
O443 Cu437 1.974 . S
O443 C453 1.282 . S
C444 O445 1.261 . S
C444 O457 1.251 . S
O445 C444 1.261 . S
H446 C440 0.930 . S
H447 C442 0.930 . S
N448 Cu437 1.985 . S
N448 C450 1.335 . S
N448 C451 1.390 . S
N449 C450 1.345 . S
N449 C452 1.336 . S
C450 N448 1.335 . S
C450 N449 1.345 . S
C450 H455 0.930 . S
C451 N448 1.390 . S
C451 C452 1.346 . S
C451 H456 0.930 . S
C452 N449 1.336 . S
C452 C451 1.346 . S
C452 H459 0.929 . S
C453 O443 1.282 . S
C453 O454 1.216 . S
O454 C453 1.216 . S
H455 C450 0.930 . S
H456 C451 0.930 . S
O457 Cu437 1.959 . S
O457 C444 1.251 . S
H458 C441 0.930 . S
H459 C452 0.929 . S
Cu460 N461 1.999 . S
Cu460 O466 1.974 . S
Cu460 N471 1.985 . S
Cu460 O480 1.959 . S
N461 Cu460 1.999 . S
N461 C463 1.263 . S
N461 C465 1.389 . S
N462 C463 1.358 . S
N462 C464 1.400 . S
C463 N461 1.263 . S
C463 N462 1.358 . S
C463 H469 0.930 . S
C464 N462 1.400 . S
C464 C465 1.351 . S
C464 H481 0.930 . S
C465 N461 1.389 . S
C465 C464 1.351 . S
C465 H470 0.930 . S
O466 Cu460 1.974 . S
O466 C476 1.282 . S
C467 O468 1.261 . S
C467 O480 1.251 . S
O468 C467 1.261 . S
H469 C463 0.930 . S
H470 C465 0.930 . S
N471 Cu460 1.985 . S
N471 C473 1.335 . S
N471 C474 1.390 . S
N472 C473 1.345 . S
N472 C475 1.336 . S
C473 N471 1.335 . S
C473 N472 1.345 . S
C473 H478 0.930 . S
C474 N471 1.390 . S
C474 C475 1.346 . S
C474 H479 0.930 . S
C475 N472 1.336 . S
C475 C474 1.346 . S
C475 H482 0.929 . S
C476 O466 1.282 . S
C476 O477 1.216 . S
O477 C476 1.216 . S
H478 C473 0.930 . S
H479 C474 0.930 . S
O480 Cu460 1.959 . S
O480 C467 1.251 . S
H481 C464 0.930 . S
H482 C475 0.929 . S
Cu483 N484 1.999 . S
Cu483 O489 1.974 . S
Cu483 N494 1.985 . S
Cu483 O503 1.959 . S
N484 Cu483 1.999 . S
N484 C486 1.263 . S
N484 C488 1.389 . S
N485 C486 1.358 . S
N485 C487 1.400 . S
C486 N484 1.263 . S
C486 N485 1.358 . S
C486 H492 0.930 . S
C487 N485 1.400 . S
C487 C488 1.351 . S
C487 H504 0.930 . S
C488 N484 1.389 . S
C488 C487 1.351 . S
C488 H493 0.930 . S
O489 Cu483 1.974 . S
O489 C499 1.282 . S
C490 O491 1.261 . S
C490 O503 1.251 . S
O491 C490 1.261 . S
H492 C486 0.930 . S
H493 C488 0.930 . S
N494 Cu483 1.985 . S
N494 C496 1.335 . S
N494 C497 1.390 . S
N495 C496 1.345 . S
N495 C498 1.336 . S
C496 N494 1.335 . S
C496 N495 1.345 . S
C496 H501 0.930 . S
C497 N494 1.390 . S
C497 C498 1.346 . S
C497 H502 0.930 . S
C498 N495 1.336 . S
C498 C497 1.346 . S
C498 H505 0.929 . S
C499 O489 1.282 . S
C499 O500 1.216 . S
O500 C499 1.216 . S
H501 C496 0.930 . S
H502 C497 0.930 . S
O503 Cu483 1.959 . S
O503 C490 1.251 . S
H504 C487 0.930 . S
H505 C498 0.929 . S
Cu506 N507 1.999 . S
Cu506 O512 1.974 . S
Cu506 N517 1.985 . S
Cu506 O526 1.959 . S
N507 Cu506 1.999 . S
N507 C509 1.263 . S
N507 C511 1.389 . S
N508 C509 1.358 . S
N508 C510 1.400 . S
C509 N507 1.263 . S
C509 N508 1.358 . S
C509 H515 0.930 . S
C510 N508 1.400 . S
C510 C511 1.351 . S
C510 H527 0.930 . S
C511 N507 1.389 . S
C511 C510 1.351 . S
C511 H516 0.930 . S
O512 Cu506 1.974 . S
O512 C522 1.282 . S
C513 O514 1.261 . S
C513 O526 1.251 . S
O514 C513 1.261 . S
H515 C509 0.930 . S
H516 C511 0.930 . S
N517 Cu506 1.985 . S
N517 C519 1.335 . S
N517 C520 1.390 . S
N518 C519 1.345 . S
N518 C521 1.336 . S
C519 N517 1.335 . S
C519 N518 1.345 . S
C519 H524 0.930 . S
C520 N517 1.390 . S
C520 C521 1.346 . S
C520 H525 0.930 . S
C521 N518 1.336 . S
C521 C520 1.346 . S
C521 H528 0.929 . S
C522 O512 1.282 . S
C522 O523 1.216 . S
O523 C522 1.216 . S
H524 C519 0.930 . S
H525 C520 0.930 . S
O526 Cu506 1.959 . S
O526 C513 1.251 . S
H527 C510 0.930 . S
H528 C521 0.929 . S
Cu529 N530 1.999 . S
Cu529 O535 1.974 . S
Cu529 N540 1.985 . S
Cu529 O549 1.959 . S
N530 Cu529 1.999 . S
N530 C532 1.263 . S
N530 C534 1.389 . S
N531 C532 1.358 . S
N531 C533 1.400 . S
C532 N530 1.263 . S
C532 N531 1.358 . S
C532 H538 0.930 . S
C533 N531 1.400 . S
C533 C534 1.351 . S
C533 H550 0.930 . S
C534 N530 1.389 . S
C534 C533 1.351 . S
C534 H539 0.930 . S
O535 Cu529 1.974 . S
O535 C545 1.282 . S
C536 O537 1.261 . S
C536 O549 1.251 . S
O537 C536 1.261 . S
H538 C532 0.930 . S
H539 C534 0.930 . S
N540 Cu529 1.985 . S
N540 C542 1.335 . S
N540 C543 1.390 . S
N541 C542 1.345 . S
N541 C544 1.336 . S
C542 N540 1.335 . S
C542 N541 1.345 . S
C542 H547 0.930 . S
C543 N540 1.390 . S
C543 C544 1.346 . S
C543 H548 0.930 . S
C544 N541 1.336 . S
C544 C543 1.346 . S
C544 H551 0.929 . S
C545 O535 1.282 . S
C545 O546 1.216 . S
O546 C545 1.216 . S
H547 C542 0.930 . S
H548 C543 0.930 . S
O549 Cu529 1.959 . S
O549 C536 1.251 . S
H550 C533 0.930 . S
H551 C544 0.929 . S
H552 C558 0.930 . S
H553 C562 0.930 . S
H554 C567 0.929 . S
H555 C565 0.929 . S
H556 C560 0.929 . S
H557 C566 0.929 . S
C558 H552 0.930 . S
C558 C559 1.367 . S
C558 C566 1.378 . S
C559 C558 1.367 . S
C559 C567 1.433 . S
C560 H556 0.929 . S
C560 C562 1.378 . S
C560 C564 1.350 . S
C561 C564 1.463 . S
C561 C566 1.350 . S
C561 N569 1.427 . S
C562 H553 0.930 . S
C562 C560 1.378 . S
C562 C563 1.367 . S
C563 C562 1.367 . S
C563 C565 1.433 . S
C564 C560 1.350 . S
C564 C561 1.463 . S
C564 N568 1.427 . S
C565 H555 0.929 . S
C565 C563 1.433 . S
C565 N568 1.384 . S
C566 H557 0.929 . S
C566 C558 1.378 . S
C566 C561 1.350 . S
C567 H554 0.929 . S
C567 C559 1.433 . S
C567 N569 1.384 . S
N568 C564 1.427 . S
N568 C565 1.384 . S
N569 C561 1.427 . S
N569 C567 1.384 . S
H570 C576 0.930 . S
H571 C580 0.930 . S
H572 C585 0.929 . S
H573 C583 0.929 . S
H574 C578 0.929 . S
H575 C584 0.929 . S
C576 H570 0.930 . S
C576 C577 1.367 . S
C576 C584 1.378 . S
C577 C576 1.367 . S
C577 C585 1.433 . S
C578 H574 0.929 . S
C578 C580 1.378 . S
C578 C582 1.350 . S
C579 C582 1.463 . S
C579 C584 1.350 . S
C579 N587 1.427 . S
C580 H571 0.930 . S
C580 C578 1.378 . S
C580 C581 1.367 . S
C581 C580 1.367 . S
C581 C583 1.433 . S
C582 C578 1.350 . S
C582 C579 1.463 . S
C582 N586 1.427 . S
C583 H573 0.929 . S
C583 C581 1.433 . S
C583 N586 1.384 . S
C584 H575 0.929 . S
C584 C576 1.378 . S
C584 C579 1.350 . S
C585 H572 0.929 . S
C585 C577 1.433 . S
C585 N587 1.384 . S
N586 C582 1.427 . S
N586 C583 1.384 . S
N587 C579 1.427 . S
N587 C585 1.384 . S
H588 C594 0.930 . S
H589 C598 0.930 . S
H590 C603 0.929 . S
H591 C601 0.929 . S
H592 C596 0.929 . S
H593 C602 0.929 . S
C594 H588 0.930 . S
C594 C595 1.367 . S
C594 C602 1.378 . S
C595 C594 1.367 . S
C595 C603 1.433 . S
C596 H592 0.929 . S
C596 C598 1.378 . S
C596 C600 1.350 . S
C597 C600 1.463 . S
C597 C602 1.350 . S
C597 N605 1.427 . S
C598 H589 0.930 . S
C598 C596 1.378 . S
C598 C599 1.367 . S
C599 C598 1.367 . S
C599 C601 1.433 . S
C600 C596 1.350 . S
C600 C597 1.463 . S
C600 N604 1.427 . S
C601 H591 0.929 . S
C601 C599 1.433 . S
C601 N604 1.384 . S
C602 H593 0.929 . S
C602 C594 1.378 . S
C602 C597 1.350 . S
C603 H590 0.929 . S
C603 C595 1.433 . S
C603 N605 1.384 . S
N604 C600 1.427 . S
N604 C601 1.384 . S
N605 C597 1.427 . S
N605 C603 1.384 . S
H606 C612 0.930 . S
H607 C616 0.930 . S
H608 C621 0.929 . S
H609 C619 0.929 . S
H610 C614 0.929 . S
H611 C620 0.929 . S
C612 H606 0.930 . S
C612 C613 1.367 . S
C612 C620 1.378 . S
C613 C612 1.367 . S
C613 C621 1.433 . S
C614 H610 0.929 . S
C614 C616 1.378 . S
C614 C618 1.350 . S
C615 C618 1.463 . S
C615 C620 1.350 . S
C615 N623 1.427 . S
C616 H607 0.930 . S
C616 C614 1.378 . S
C616 C617 1.367 . S
C617 C616 1.367 . S
C617 C619 1.433 . S
C618 C614 1.350 . S
C618 C615 1.463 . S
C618 N622 1.427 . S
C619 H609 0.929 . S
C619 C617 1.433 . S
C619 N622 1.384 . S
C620 H611 0.929 . S
C620 C612 1.378 . S
C620 C615 1.350 . S
C621 H608 0.929 . S
C621 C613 1.433 . S
C621 N623 1.384 . S
N622 C618 1.427 . S
N622 C619 1.384 . S
N623 C615 1.427 . S
N623 C621 1.384 . S
H624 C630 0.930 . S
H625 C634 0.930 . S
H626 C639 0.929 . S
H627 C637 0.929 . S
H628 C632 0.929 . S
H629 C638 0.929 . S
C630 H624 0.930 . S
C630 C631 1.367 . S
C630 C638 1.378 . S
C631 C630 1.367 . S
C631 C639 1.433 . S
C632 H628 0.929 . S
C632 C634 1.378 . S
C632 C636 1.350 . S
C633 C636 1.463 . S
C633 C638 1.350 . S
C633 N641 1.427 . S
C634 H625 0.930 . S
C634 C632 1.378 . S
C634 C635 1.367 . S
C635 C634 1.367 . S
C635 C637 1.433 . S
C636 C632 1.350 . S
C636 C633 1.463 . S
C636 N640 1.427 . S
C637 H627 0.929 . S
C637 C635 1.433 . S
C637 N640 1.384 . S
C638 H629 0.929 . S
C638 C630 1.378 . S
C638 C633 1.350 . S
C639 H626 0.929 . S
C639 C631 1.433 . S
C639 N641 1.384 . S
N640 C636 1.427 . S
N640 C637 1.384 . S
N641 C633 1.427 . S
N641 C639 1.384 . S
H642 C648 0.930 . S
H643 C652 0.930 . S
H644 C657 0.929 . S
H645 C655 0.929 . S
H646 C650 0.929 . S
H647 C656 0.929 . S
C648 H642 0.930 . S
C648 C649 1.367 . S
C648 C656 1.378 . S
C649 C648 1.367 . S
C649 C657 1.433 . S
C650 H646 0.929 . S
C650 C652 1.378 . S
C650 C654 1.350 . S
C651 C654 1.463 . S
C651 C656 1.350 . S
C651 N659 1.427 . S
C652 H643 0.930 . S
C652 C650 1.378 . S
C652 C653 1.367 . S
C653 C652 1.367 . S
C653 C655 1.433 . S
C654 C650 1.350 . S
C654 C651 1.463 . S
C654 N658 1.427 . S
C655 H645 0.929 . S
C655 C653 1.433 . S
C655 N658 1.384 . S
C656 H647 0.929 . S
C656 C648 1.378 . S
C656 C651 1.350 . S
C657 H644 0.929 . S
C657 C649 1.433 . S
C657 N659 1.384 . S
N658 C654 1.427 . S
N658 C655 1.384 . S
N659 C651 1.427 . S
N659 C657 1.384 . S
H660 C666 0.930 . S
H661 C670 0.930 . S
H662 C675 0.929 . S
H663 C673 0.929 . S
H664 C668 0.929 . S
H665 C674 0.929 . S
C666 H660 0.930 . S
C666 C667 1.367 . S
C666 C674 1.378 . S
C667 C666 1.367 . S
C667 C675 1.433 . S
C668 H664 0.929 . S
C668 C670 1.378 . S
C668 C672 1.350 . S
C669 C672 1.463 . S
C669 C674 1.350 . S
C669 N677 1.427 . S
C670 H661 0.930 . S
C670 C668 1.378 . S
C670 C671 1.367 . S
C671 C670 1.367 . S
C671 C673 1.433 . S
C672 C668 1.350 . S
C672 C669 1.463 . S
C672 N676 1.427 . S
C673 H663 0.929 . S
C673 C671 1.433 . S
C673 N676 1.384 . S
C674 H665 0.929 . S
C674 C666 1.378 . S
C674 C669 1.350 . S
C675 H662 0.929 . S
C675 C667 1.433 . S
C675 N677 1.384 . S
N676 C672 1.427 . S
N676 C673 1.384 . S
N677 C669 1.427 . S
N677 C675 1.384 . S
H678 C684 0.930 . S
H679 C688 0.930 . S
H680 C693 0.929 . S
H681 C691 0.929 . S
H682 C686 0.929 . S
H683 C692 0.929 . S
C684 H678 0.930 . S
C684 C685 1.367 . S
C684 C692 1.378 . S
C685 C684 1.367 . S
C685 C693 1.433 . S
C686 H682 0.929 . S
C686 C688 1.378 . S
C686 C690 1.350 . S
C687 C690 1.463 . S
C687 C692 1.350 . S
C687 N695 1.427 . S
C688 H679 0.930 . S
C688 C686 1.378 . S
C688 C689 1.367 . S
C689 C688 1.367 . S
C689 C691 1.433 . S
C690 C686 1.350 . S
C690 C687 1.463 . S
C690 N694 1.427 . S
C691 H681 0.929 . S
C691 C689 1.433 . S
C691 N694 1.384 . S
C692 H683 0.929 . S
C692 C684 1.378 . S
C692 C687 1.350 . S
C693 H680 0.929 . S
C693 C685 1.433 . S
C693 N695 1.384 . S
N694 C690 1.427 . S
N694 C691 1.384 . S
N695 C687 1.427 . S
N695 C693 1.384 . S
H696 C702 0.930 . S
H697 C706 0.930 . S
H698 C711 0.929 . S
H699 C709 0.929 . S
H700 C704 0.929 . S
H701 C710 0.929 . S
C702 H696 0.930 . S
C702 C703 1.367 . S
C702 C710 1.378 . S
C703 C702 1.367 . S
C703 C711 1.433 . S
C704 H700 0.929 . S
C704 C706 1.378 . S
C704 C708 1.350 . S
C705 C708 1.463 . S
C705 C710 1.350 . S
C705 N713 1.427 . S
C706 H697 0.930 . S
C706 C704 1.378 . S
C706 C707 1.367 . S
C707 C706 1.367 . S
C707 C709 1.433 . S
C708 C704 1.350 . S
C708 C705 1.463 . S
C708 N712 1.427 . S
C709 H699 0.929 . S
C709 C707 1.433 . S
C709 N712 1.384 . S
C710 H701 0.929 . S
C710 C702 1.378 . S
C710 C705 1.350 . S
C711 H698 0.929 . S
C711 C703 1.433 . S
C711 N713 1.384 . S
N712 C708 1.427 . S
N712 C709 1.384 . S
N713 C705 1.427 . S
N713 C711 1.384 . S
H714 C720 0.930 . S
H715 C724 0.930 . S
H716 C729 0.929 . S
H717 C727 0.929 . S
H718 C722 0.929 . S
H719 C728 0.929 . S
C720 H714 0.930 . S
C720 C721 1.367 . S
C720 C728 1.378 . S
C721 C720 1.367 . S
C721 C729 1.433 . S
C722 H718 0.929 . S
C722 C724 1.378 . S
C722 C726 1.350 . S
C723 C726 1.463 . S
C723 C728 1.350 . S
C723 N731 1.427 . S
C724 H715 0.930 . S
C724 C722 1.378 . S
C724 C725 1.367 . S
C725 C724 1.367 . S
C725 C727 1.433 . S
C726 C722 1.350 . S
C726 C723 1.463 . S
C726 N730 1.427 . S
C727 H717 0.929 . S
C727 C725 1.433 . S
C727 N730 1.384 . S
C728 H719 0.929 . S
C728 C720 1.378 . S
C728 C723 1.350 . S
C729 H716 0.929 . S
C729 C721 1.433 . S
C729 N731 1.384 . S
N730 C726 1.427 . S
N730 C727 1.384 . S
N731 C723 1.427 . S
N731 C729 1.384 . S
H732 C738 0.930 . S
H733 C742 0.930 . S
H734 C747 0.929 . S
H735 C745 0.929 . S
H736 C740 0.929 . S
H737 C746 0.929 . S
C738 H732 0.930 . S
C738 C739 1.367 . S
C738 C746 1.378 . S
C739 C738 1.367 . S
C739 C747 1.433 . S
C740 H736 0.929 . S
C740 C742 1.378 . S
C740 C744 1.350 . S
C741 C744 1.463 . S
C741 C746 1.350 . S
C741 N749 1.427 . S
C742 H733 0.930 . S
C742 C740 1.378 . S
C742 C743 1.367 . S
C743 C742 1.367 . S
C743 C745 1.433 . S
C744 C740 1.350 . S
C744 C741 1.463 . S
C744 N748 1.427 . S
C745 H735 0.929 . S
C745 C743 1.433 . S
C745 N748 1.384 . S
C746 H737 0.929 . S
C746 C738 1.378 . S
C746 C741 1.350 . S
C747 H734 0.929 . S
C747 C739 1.433 . S
C747 N749 1.384 . S
N748 C744 1.427 . S
N748 C745 1.384 . S
N749 C741 1.427 . S
N749 C747 1.384 . S
H750 C756 0.930 . S
H751 C760 0.930 . S
H752 C765 0.929 . S
H753 C763 0.929 . S
H754 C758 0.929 . S
H755 C764 0.929 . S
C756 H750 0.930 . S
C756 C757 1.367 . S
C756 C764 1.378 . S
C757 C756 1.367 . S
C757 C765 1.433 . S
C758 H754 0.929 . S
C758 C760 1.378 . S
C758 C762 1.350 . S
C759 C762 1.463 . S
C759 C764 1.350 . S
C759 N767 1.427 . S
C760 H751 0.930 . S
C760 C758 1.378 . S
C760 C761 1.367 . S
C761 C760 1.367 . S
C761 C763 1.433 . S
C762 C758 1.350 . S
C762 C759 1.463 . S
C762 N766 1.427 . S
C763 H753 0.929 . S
C763 C761 1.433 . S
C763 N766 1.384 . S
C764 H755 0.929 . S
C764 C756 1.378 . S
C764 C759 1.350 . S
C765 H752 0.929 . S
C765 C757 1.433 . S
C765 N767 1.384 . S
N766 C762 1.427 . S
N766 C763 1.384 . S
N767 C759 1.427 . S
N767 C765 1.384 . S
H768 C774 0.930 . S
H769 C778 0.930 . S
H770 C783 0.929 . S
H771 C781 0.929 . S
H772 C776 0.929 . S
H773 C782 0.929 . S
C774 H768 0.930 . S
C774 C775 1.367 . S
C774 C782 1.378 . S
C775 C774 1.367 . S
C775 C783 1.433 . S
C776 H772 0.929 . S
C776 C778 1.378 . S
C776 C780 1.350 . S
C777 C780 1.463 . S
C777 C782 1.350 . S
C777 N785 1.427 . S
C778 H769 0.930 . S
C778 C776 1.378 . S
C778 C779 1.367 . S
C779 C778 1.367 . S
C779 C781 1.433 . S
C780 C776 1.350 . S
C780 C777 1.463 . S
C780 N784 1.427 . S
C781 H771 0.929 . S
C781 C779 1.433 . S
C781 N784 1.384 . S
C782 H773 0.929 . S
C782 C774 1.378 . S
C782 C777 1.350 . S
C783 H770 0.929 . S
C783 C775 1.433 . S
C783 N785 1.384 . S
N784 C780 1.427 . S
N784 C781 1.384 . S
N785 C777 1.427 . S
N785 C783 1.384 . S
H786 C792 0.930 . S
H787 C796 0.930 . S
H788 C801 0.929 . S
H789 C799 0.929 . S
H790 C794 0.929 . S
H791 C800 0.929 . S
C792 H786 0.930 . S
C792 C793 1.367 . S
C792 C800 1.378 . S
C793 C792 1.367 . S
C793 C801 1.433 . S
C794 H790 0.929 . S
C794 C796 1.378 . S
C794 C798 1.350 . S
C795 C798 1.463 . S
C795 C800 1.350 . S
C795 N803 1.427 . S
C796 H787 0.930 . S
C796 C794 1.378 . S
C796 C797 1.367 . S
C797 C796 1.367 . S
C797 C799 1.433 . S
C798 C794 1.350 . S
C798 C795 1.463 . S
C798 N802 1.427 . S
C799 H789 0.929 . S
C799 C797 1.433 . S
C799 N802 1.384 . S
C800 H791 0.929 . S
C800 C792 1.378 . S
C800 C795 1.350 . S
C801 H788 0.929 . S
C801 C793 1.433 . S
C801 N803 1.384 . S
N802 C798 1.427 . S
N802 C799 1.384 . S
N803 C795 1.427 . S
N803 C801 1.384 . S
H804 C810 0.930 . S
H805 C814 0.930 . S
H806 C819 0.929 . S
H807 C817 0.929 . S
H808 C812 0.929 . S
H809 C818 0.929 . S
C810 H804 0.930 . S
C810 C811 1.367 . S
C810 C818 1.378 . S
C811 C810 1.367 . S
C811 C819 1.433 . S
C812 H808 0.929 . S
C812 C814 1.378 . S
C812 C816 1.350 . S
C813 C816 1.463 . S
C813 C818 1.350 . S
C813 N821 1.427 . S
C814 H805 0.930 . S
C814 C812 1.378 . S
C814 C815 1.367 . S
C815 C814 1.367 . S
C815 C817 1.433 . S
C816 C812 1.350 . S
C816 C813 1.463 . S
C816 N820 1.427 . S
C817 H807 0.929 . S
C817 C815 1.433 . S
C817 N820 1.384 . S
C818 H809 0.929 . S
C818 C810 1.378 . S
C818 C813 1.350 . S
C819 H806 0.929 . S
C819 C811 1.433 . S
C819 N821 1.384 . S
N820 C816 1.427 . S
N820 C817 1.384 . S
N821 C813 1.427 . S
N821 C819 1.384 . S
H822 C828 0.930 . S
H823 C832 0.930 . S
H824 C837 0.929 . S
H825 C835 0.929 . S
H826 C830 0.929 . S
H827 C836 0.929 . S
C828 H822 0.930 . S
C828 C829 1.367 . S
C828 C836 1.378 . S
C829 C828 1.367 . S
C829 C837 1.433 . S
C830 H826 0.929 . S
C830 C832 1.378 . S
C830 C834 1.350 . S
C831 C834 1.463 . S
C831 C836 1.350 . S
C831 N839 1.427 . S
C832 H823 0.930 . S
C832 C830 1.378 . S
C832 C833 1.367 . S
C833 C832 1.367 . S
C833 C835 1.433 . S
C834 C830 1.350 . S
C834 C831 1.463 . S
C834 N838 1.427 . S
C835 H825 0.929 . S
C835 C833 1.433 . S
C835 N838 1.384 . S
C836 H827 0.929 . S
C836 C828 1.378 . S
C836 C831 1.350 . S
C837 H824 0.929 . S
C837 C829 1.433 . S
C837 N839 1.384 . S
N838 C834 1.427 . S
N838 C835 1.384 . S
N839 C831 1.427 . S
N839 C837 1.384 . S
H840 C846 0.930 . S
H841 C850 0.930 . S
H842 C855 0.929 . S
H843 C853 0.929 . S
H844 C848 0.929 . S
H845 C854 0.929 . S
C846 H840 0.930 . S
C846 C847 1.367 . S
C846 C854 1.378 . S
C847 C846 1.367 . S
C847 C855 1.433 . S
C848 H844 0.929 . S
C848 C850 1.378 . S
C848 C852 1.350 . S
C849 C852 1.463 . S
C849 C854 1.350 . S
C849 N857 1.427 . S
C850 H841 0.930 . S
C850 C848 1.378 . S
C850 C851 1.367 . S
C851 C850 1.367 . S
C851 C853 1.433 . S
C852 C848 1.350 . S
C852 C849 1.463 . S
C852 N856 1.427 . S
C853 H843 0.929 . S
C853 C851 1.433 . S
C853 N856 1.384 . S
C854 H845 0.929 . S
C854 C846 1.378 . S
C854 C849 1.350 . S
C855 H842 0.929 . S
C855 C847 1.433 . S
C855 N857 1.384 . S
N856 C852 1.427 . S
N856 C853 1.384 . S
N857 C849 1.427 . S
N857 C855 1.384 . S
H858 C864 0.930 . S
H859 C868 0.930 . S
H860 C873 0.929 . S
H861 C871 0.929 . S
H862 C866 0.929 . S
H863 C872 0.929 . S
C864 H858 0.930 . S
C864 C865 1.367 . S
C864 C872 1.378 . S
C865 C864 1.367 . S
C865 C873 1.433 . S
C866 H862 0.929 . S
C866 C868 1.378 . S
C866 C870 1.350 . S
C867 C870 1.463 . S
C867 C872 1.350 . S
C867 N875 1.427 . S
C868 H859 0.930 . S
C868 C866 1.378 . S
C868 C869 1.367 . S
C869 C868 1.367 . S
C869 C871 1.433 . S
C870 C866 1.350 . S
C870 C867 1.463 . S
C870 N874 1.427 . S
C871 H861 0.929 . S
C871 C869 1.433 . S
C871 N874 1.384 . S
C872 H863 0.929 . S
C872 C864 1.378 . S
C872 C867 1.350 . S
C873 H860 0.929 . S
C873 C865 1.433 . S
C873 N875 1.384 . S
N874 C870 1.427 . S
N874 C871 1.384 . S
N875 C867 1.427 . S
N875 C873 1.384 . S
H876 C882 0.930 . S
H877 C886 0.930 . S
H878 C891 0.929 . S
H879 C889 0.929 . S
H880 C884 0.929 . S
H881 C890 0.929 . S
C882 H876 0.930 . S
C882 C883 1.367 . S
C882 C890 1.378 . S
C883 C882 1.367 . S
C883 C891 1.433 . S
C884 H880 0.929 . S
C884 C886 1.378 . S
C884 C888 1.350 . S
C885 C888 1.463 . S
C885 C890 1.350 . S
C885 N893 1.427 . S
C886 H877 0.930 . S
C886 C884 1.378 . S
C886 C887 1.367 . S
C887 C886 1.367 . S
C887 C889 1.433 . S
C888 C884 1.350 . S
C888 C885 1.463 . S
C888 N892 1.427 . S
C889 H879 0.929 . S
C889 C887 1.433 . S
C889 N892 1.384 . S
C890 H881 0.929 . S
C890 C882 1.378 . S
C890 C885 1.350 . S
C891 H878 0.929 . S
C891 C883 1.433 . S
C891 N893 1.384 . S
N892 C888 1.427 . S
N892 C889 1.384 . S
N893 C885 1.427 . S
N893 C891 1.384 . S
H894 C900 0.930 . S
H895 C904 0.930 . S
H896 C909 0.929 . S
H897 C907 0.929 . S
H898 C902 0.929 . S
H899 C908 0.929 . S
C900 H894 0.930 . S
C900 C901 1.367 . S
C900 C908 1.378 . S
C901 C900 1.367 . S
C901 C909 1.433 . S
C902 H898 0.929 . S
C902 C904 1.378 . S
C902 C906 1.350 . S
C903 C906 1.463 . S
C903 C908 1.350 . S
C903 N911 1.427 . S
C904 H895 0.930 . S
C904 C902 1.378 . S
C904 C905 1.367 . S
C905 C904 1.367 . S
C905 C907 1.433 . S
C906 C902 1.350 . S
C906 C903 1.463 . S
C906 N910 1.427 . S
C907 H897 0.929 . S
C907 C905 1.433 . S
C907 N910 1.384 . S
C908 H899 0.929 . S
C908 C900 1.378 . S
C908 C903 1.350 . S
C909 H896 0.929 . S
C909 C901 1.433 . S
C909 N911 1.384 . S
N910 C906 1.427 . S
N910 C907 1.384 . S
N911 C903 1.427 . S
N911 C909 1.384 . S
H912 C918 0.930 . S
H913 C922 0.930 . S
H914 C927 0.929 . S
H915 C925 0.929 . S
H916 C920 0.929 . S
H917 C926 0.929 . S
C918 H912 0.930 . S
C918 C919 1.367 . S
C918 C926 1.378 . S
C919 C918 1.367 . S
C919 C927 1.433 . S
C920 H916 0.929 . S
C920 C922 1.378 . S
C920 C924 1.350 . S
C921 C924 1.463 . S
C921 C926 1.350 . S
C921 N929 1.427 . S
C922 H913 0.930 . S
C922 C920 1.378 . S
C922 C923 1.367 . S
C923 C922 1.367 . S
C923 C925 1.433 . S
C924 C920 1.350 . S
C924 C921 1.463 . S
C924 N928 1.427 . S
C925 H915 0.929 . S
C925 C923 1.433 . S
C925 N928 1.384 . S
C926 H917 0.929 . S
C926 C918 1.378 . S
C926 C921 1.350 . S
C927 H914 0.929 . S
C927 C919 1.433 . S
C927 N929 1.384 . S
N928 C924 1.427 . S
N928 C925 1.384 . S
N929 C921 1.427 . S
N929 C927 1.384 . S
H930 C936 0.930 . S
H931 C940 0.930 . S
H932 C945 0.929 . S
H933 C943 0.929 . S
H934 C938 0.929 . S
H935 C944 0.929 . S
C936 H930 0.930 . S
C936 C937 1.367 . S
C936 C944 1.378 . S
C937 C936 1.367 . S
C937 C945 1.433 . S
C938 H934 0.929 . S
C938 C940 1.378 . S
C938 C942 1.350 . S
C939 C942 1.463 . S
C939 C944 1.350 . S
C939 N947 1.427 . S
C940 H931 0.930 . S
C940 C938 1.378 . S
C940 C941 1.367 . S
C941 C940 1.367 . S
C941 C943 1.433 . S
C942 C938 1.350 . S
C942 C939 1.463 . S
C942 N946 1.427 . S
C943 H933 0.929 . S
C943 C941 1.433 . S
C943 N946 1.384 . S
C944 H935 0.929 . S
C944 C936 1.378 . S
C944 C939 1.350 . S
C945 H932 0.929 . S
C945 C937 1.433 . S
C945 N947 1.384 . S
N946 C942 1.427 . S
N946 C943 1.384 . S
N947 C939 1.427 . S
N947 C945 1.384 . S
H948 C954 0.930 . S
H949 C958 0.930 . S
H950 C963 0.929 . S
H951 C961 0.929 . S
H952 C956 0.929 . S
H953 C962 0.929 . S
C954 H948 0.930 . S
C954 C955 1.367 . S
C954 C962 1.378 . S
C955 C954 1.367 . S
C955 C963 1.433 . S
C956 H952 0.929 . S
C956 C958 1.378 . S
C956 C960 1.350 . S
C957 C960 1.463 . S
C957 C962 1.350 . S
C957 N965 1.427 . S
C958 H949 0.930 . S
C958 C956 1.378 . S
C958 C959 1.367 . S
C959 C958 1.367 . S
C959 C961 1.433 . S
C960 C956 1.350 . S
C960 C957 1.463 . S
C960 N964 1.427 . S
C961 H951 0.929 . S
C961 C959 1.433 . S
C961 N964 1.384 . S
C962 H953 0.929 . S
C962 C954 1.378 . S
C962 C957 1.350 . S
C963 H950 0.929 . S
C963 C955 1.433 . S
C963 N965 1.384 . S
N964 C960 1.427 . S
N964 C961 1.384 . S
N965 C957 1.427 . S
N965 C963 1.384 . S
H966 C972 0.930 . S
H967 C976 0.930 . S
H968 C981 0.929 . S
H969 C979 0.929 . S
H970 C974 0.929 . S
H971 C980 0.929 . S
C972 H966 0.930 . S
C972 C973 1.367 . S
C972 C980 1.378 . S
C973 C972 1.367 . S
C973 C981 1.433 . S
C974 H970 0.929 . S
C974 C976 1.378 . S
C974 C978 1.350 . S
C975 C978 1.463 . S
C975 C980 1.350 . S
C975 N983 1.427 . S
C976 H967 0.930 . S
C976 C974 1.378 . S
C976 C977 1.367 . S
C977 C976 1.367 . S
C977 C979 1.433 . S
C978 C974 1.350 . S
C978 C975 1.463 . S
C978 N982 1.427 . S
C979 H969 0.929 . S
C979 C977 1.433 . S
C979 N982 1.384 . S
C980 H971 0.929 . S
C980 C972 1.378 . S
C980 C975 1.350 . S
C981 H968 0.929 . S
C981 C973 1.433 . S
C981 N983 1.384 . S
N982 C978 1.427 . S
N982 C979 1.384 . S
N983 C975 1.427 . S
N983 C981 1.384 . S
H984 C990 0.930 . S
H985 C994 0.930 . S
H986 C999 0.929 . S
H987 C997 0.929 . S
H988 C992 0.929 . S
H989 C998 0.929 . S
C990 H984 0.930 . S
C990 C991 1.367 . S
C990 C998 1.378 . S
C991 C990 1.367 . S
C991 C999 1.433 . S
C992 H988 0.929 . S
C992 C994 1.378 . S
C992 C996 1.350 . S
C993 C996 1.463 . S
C993 C998 1.350 . S
C993 N1001 1.427 . S
C994 H985 0.930 . S
C994 C992 1.378 . S
C994 C995 1.367 . S
C995 C994 1.367 . S
C995 C997 1.433 . S
C996 C992 1.350 . S
C996 C993 1.463 . S
C996 N1000 1.427 . S
C997 H987 0.929 . S
C997 C995 1.433 . S
C997 N1000 1.384 . S
C998 H989 0.929 . S
C998 C990 1.378 . S
C998 C993 1.350 . S
C999 H986 0.929 . S
C999 C991 1.433 . S
C999 N1001 1.384 . S
N1000 C996 1.427 . S
N1000 C997 1.384 . S
N1001 C993 1.427 . S
N1001 C999 1.384 . S
H1002 C1008 0.930 . S
H1003 C1012 0.930 . S
H1004 C1017 0.929 . S
H1005 C1015 0.929 . S
H1006 C1010 0.929 . S
H1007 C1016 0.929 . S
C1008 H1002 0.930 . S
C1008 C1009 1.367 . S
C1008 C1016 1.378 . S
C1009 C1008 1.367 . S
C1009 C1017 1.433 . S
C1010 H1006 0.929 . S
C1010 C1012 1.378 . S
C1010 C1014 1.350 . S
C1011 C1014 1.463 . S
C1011 C1016 1.350 . S
C1011 N1019 1.427 . S
C1012 H1003 0.930 . S
C1012 C1010 1.378 . S
C1012 C1013 1.367 . S
C1013 C1012 1.367 . S
C1013 C1015 1.433 . S
C1014 C1010 1.350 . S
C1014 C1011 1.463 . S
C1014 N1018 1.427 . S
C1015 H1005 0.929 . S
C1015 C1013 1.433 . S
C1015 N1018 1.384 . S
C1016 H1007 0.929 . S
C1016 C1008 1.378 . S
C1016 C1011 1.350 . S
C1017 H1004 0.929 . S
C1017 C1009 1.433 . S
C1017 N1019 1.384 . S
N1018 C1014 1.427 . S
N1018 C1015 1.384 . S
N1019 C1011 1.427 . S
N1019 C1017 1.384 . S
H1020 C1026 0.930 . S
H1021 C1030 0.930 . S
H1022 C1035 0.929 . S
H1023 C1033 0.929 . S
H1024 C1028 0.929 . S
H1025 C1034 0.929 . S
C1026 H1020 0.930 . S
C1026 C1027 1.367 . S
C1026 C1034 1.378 . S
C1027 C1026 1.367 . S
C1027 C1035 1.433 . S
C1028 H1024 0.929 . S
C1028 C1030 1.378 . S
C1028 C1032 1.350 . S
C1029 C1032 1.463 . S
C1029 C1034 1.350 . S
C1029 N1037 1.427 . S
C1030 H1021 0.930 . S
C1030 C1028 1.378 . S
C1030 C1031 1.367 . S
C1031 C1030 1.367 . S
C1031 C1033 1.433 . S
C1032 C1028 1.350 . S
C1032 C1029 1.463 . S
C1032 N1036 1.427 . S
C1033 H1023 0.929 . S
C1033 C1031 1.433 . S
C1033 N1036 1.384 . S
C1034 H1025 0.929 . S
C1034 C1026 1.378 . S
C1034 C1029 1.350 . S
C1035 H1022 0.929 . S
C1035 C1027 1.433 . S
C1035 N1037 1.384 . S
N1036 C1032 1.427 . S
N1036 C1033 1.384 . S
N1037 C1029 1.427 . S
N1037 C1035 1.384 . S
H1038 C1044 0.930 . S
H1039 C1048 0.930 1_455 S
H1040 C1053 0.929 . S
H1041 C1051 0.929 . S
H1042 C1046 0.929 . S
H1043 C1052 0.929 . S
C1044 H1038 0.930 . S
C1044 C1045 1.367 . S
C1044 C1052 1.378 . S
C1045 C1044 1.367 . S
C1045 C1053 1.433 . S
C1046 H1042 0.929 . S
C1046 C1048 1.378 . S
C1046 C1050 1.350 . S
C1047 C1050 1.463 . S
C1047 C1052 1.350 . S
C1047 N1055 1.427 . S
C1048 H1039 0.930 1_655 S
C1048 C1046 1.378 . S
C1048 C1049 1.367 . S
C1049 C1048 1.367 . S
C1049 C1051 1.433 . S
C1050 C1046 1.350 . S
C1050 C1047 1.463 . S
C1050 N1054 1.427 . S
C1051 H1041 0.929 . S
C1051 C1049 1.433 . S
C1051 N1054 1.384 . S
C1052 H1043 0.929 . S
C1052 C1044 1.378 . S
C1052 C1047 1.350 . S
C1053 H1040 0.929 . S
C1053 C1045 1.433 . S
C1053 N1055 1.384 . S
N1054 C1050 1.427 . S
N1054 C1051 1.384 . S
N1055 C1047 1.427 . S
N1055 C1053 1.384 . S
H1056 C1062 0.930 . S
H1057 C1066 0.930 . S
H1058 C1071 0.929 . S
H1059 C1069 0.929 . S
H1060 C1064 0.929 . S
H1061 C1070 0.929 . S
C1062 H1056 0.930 . S
C1062 C1063 1.367 . S
C1062 C1070 1.378 . S
C1063 C1062 1.367 . S
C1063 C1071 1.433 . S
C1064 H1060 0.929 . S
C1064 C1066 1.378 . S
C1064 C1068 1.350 . S
C1065 C1068 1.463 . S
C1065 C1070 1.350 . S
C1065 N1073 1.427 . S
C1066 H1057 0.930 . S
C1066 C1064 1.378 . S
C1066 C1067 1.367 . S
C1067 C1066 1.367 . S
C1067 C1069 1.433 . S
C1068 C1064 1.350 . S
C1068 C1065 1.463 . S
C1068 N1072 1.427 . S
C1069 H1059 0.929 . S
C1069 C1067 1.433 . S
C1069 N1072 1.384 . S
C1070 H1061 0.929 . S
C1070 C1062 1.378 . S
C1070 C1065 1.350 . S
C1071 H1058 0.929 . S
C1071 C1063 1.433 . S
C1071 N1073 1.384 . S
N1072 C1068 1.427 . S
N1072 C1069 1.384 . S
N1073 C1065 1.427 . S
N1073 C1071 1.384 . S
H1074 C1080 0.930 . S
H1075 C1084 0.930 . S
H1076 C1089 0.929 . S
H1077 C1087 0.929 . S
H1078 C1082 0.929 . S
H1079 C1088 0.929 . S
C1080 H1074 0.930 . S
C1080 C1081 1.367 . S
C1080 C1088 1.378 . S
C1081 C1080 1.367 . S
C1081 C1089 1.433 . S
C1082 H1078 0.929 . S
C1082 C1084 1.378 . S
C1082 C1086 1.350 . S
C1083 C1086 1.463 . S
C1083 C1088 1.350 . S
C1083 N1091 1.427 . S
C1084 H1075 0.930 . S
C1084 C1082 1.378 . S
C1084 C1085 1.367 . S
C1085 C1084 1.367 . S
C1085 C1087 1.433 . S
C1086 C1082 1.350 . S
C1086 C1083 1.463 . S
C1086 N1090 1.427 . S
C1087 H1077 0.929 . S
C1087 C1085 1.433 . S
C1087 N1090 1.384 . S
C1088 H1079 0.929 . S
C1088 C1080 1.378 . S
C1088 C1083 1.350 . S
C1089 H1076 0.929 . S
C1089 C1081 1.433 . S
C1089 N1091 1.384 . S
N1090 C1086 1.427 . S
N1090 C1087 1.384 . S
N1091 C1083 1.427 . S
N1091 C1089 1.384 . S
H1092 C1098 0.930 . S
H1093 C1102 0.930 . S
H1094 C1107 0.929 . S
H1095 C1105 0.929 . S
H1096 C1100 0.929 . S
H1097 C1106 0.929 . S
C1098 H1092 0.930 . S
C1098 C1099 1.367 . S
C1098 C1106 1.378 . S
C1099 C1098 1.367 . S
C1099 C1107 1.433 . S
C1100 H1096 0.929 . S
C1100 C1102 1.378 . S
C1100 C1104 1.350 . S
C1101 C1104 1.463 . S
C1101 C1106 1.350 . S
C1101 N1109 1.427 . S
C1102 H1093 0.930 . S
C1102 C1100 1.378 . S
C1102 C1103 1.367 . S
C1103 C1102 1.367 . S
C1103 C1105 1.433 . S
C1104 C1100 1.350 . S
C1104 C1101 1.463 . S
C1104 N1108 1.427 . S
C1105 H1095 0.929 . S
C1105 C1103 1.433 . S
C1105 N1108 1.384 . S
C1106 H1097 0.929 . S
C1106 C1098 1.378 . S
C1106 C1101 1.350 . S
C1107 H1094 0.929 . S
C1107 C1099 1.433 . S
C1107 N1109 1.384 . S
N1108 C1104 1.427 . S
N1108 C1105 1.384 . S
N1109 C1101 1.427 . S
N1109 C1107 1.384 . S
H1110 C1116 0.930 . S
H1111 C1120 0.930 . S
H1112 C1125 0.929 . S
H1113 C1123 0.929 . S
H1114 C1118 0.929 . S
H1115 C1124 0.929 . S
C1116 H1110 0.930 . S
C1116 C1117 1.367 . S
C1116 C1124 1.378 . S
C1117 C1116 1.367 . S
C1117 C1125 1.433 . S
C1118 H1114 0.929 . S
C1118 C1120 1.378 . S
C1118 C1122 1.350 . S
C1119 C1122 1.463 . S
C1119 C1124 1.350 . S
C1119 N1127 1.427 . S
C1120 H1111 0.930 . S
C1120 C1118 1.378 . S
C1120 C1121 1.367 . S
C1121 C1120 1.367 . S
C1121 C1123 1.433 . S
C1122 C1118 1.350 . S
C1122 C1119 1.463 . S
C1122 N1126 1.427 . S
C1123 H1113 0.929 . S
C1123 C1121 1.433 . S
C1123 N1126 1.384 . S
C1124 H1115 0.929 . S
C1124 C1116 1.378 . S
C1124 C1119 1.350 . S
C1125 H1112 0.929 . S
C1125 C1117 1.433 . S
C1125 N1127 1.384 . S
N1126 C1122 1.427 . S
N1126 C1123 1.384 . S
N1127 C1119 1.427 . S
N1127 C1125 1.384 . S
H1128 C1134 0.930 . S
H1129 C1138 0.930 . S
H1130 C1143 0.929 . S
H1131 C1141 0.929 . S
H1132 C1136 0.929 . S
H1133 C1142 0.929 . S
C1134 H1128 0.930 . S
C1134 C1135 1.367 . S
C1134 C1142 1.378 . S
C1135 C1134 1.367 . S
C1135 C1143 1.433 . S
C1136 H1132 0.929 . S
C1136 C1138 1.378 . S
C1136 C1140 1.350 . S
C1137 C1140 1.463 . S
C1137 C1142 1.350 . S
C1137 N1145 1.427 . S
C1138 H1129 0.930 . S
C1138 C1136 1.378 . S
C1138 C1139 1.367 . S
C1139 C1138 1.367 . S
C1139 C1141 1.433 . S
C1140 C1136 1.350 . S
C1140 C1137 1.463 . S
C1140 N1144 1.427 . S
C1141 H1131 0.929 . S
C1141 C1139 1.433 . S
C1141 N1144 1.384 . S
C1142 H1133 0.929 . S
C1142 C1134 1.378 . S
C1142 C1137 1.350 . S
C1143 H1130 0.929 . S
C1143 C1135 1.433 . S
C1143 N1145 1.384 . S
N1144 C1140 1.427 . S
N1144 C1141 1.384 . S
N1145 C1137 1.427 . S
N1145 C1143 1.384 . S
H1146 C1152 0.930 . S
H1147 C1156 0.930 . S
H1148 C1161 0.929 . S
H1149 C1159 0.929 . S
H1150 C1154 0.929 . S
H1151 C1160 0.929 . S
C1152 H1146 0.930 . S
C1152 C1153 1.367 . S
C1152 C1160 1.378 . S
C1153 C1152 1.367 . S
C1153 C1161 1.433 . S
C1154 H1150 0.929 . S
C1154 C1156 1.378 . S
C1154 C1158 1.350 . S
C1155 C1158 1.463 . S
C1155 C1160 1.350 . S
C1155 N1163 1.427 . S
C1156 H1147 0.930 . S
C1156 C1154 1.378 . S
C1156 C1157 1.367 . S
C1157 C1156 1.367 . S
C1157 C1159 1.433 . S
C1158 C1154 1.350 . S
C1158 C1155 1.463 . S
C1158 N1162 1.427 . S
C1159 H1149 0.929 . S
C1159 C1157 1.433 . S
C1159 N1162 1.384 . S
C1160 H1151 0.929 . S
C1160 C1152 1.378 . S
C1160 C1155 1.350 . S
C1161 H1148 0.929 . S
C1161 C1153 1.433 . S
C1161 N1163 1.384 . S
N1162 C1158 1.427 . S
N1162 C1159 1.384 . S
N1163 C1155 1.427 . S
N1163 C1161 1.384 . S
H1164 C1170 0.930 . S
H1165 C1174 0.930 . S
H1166 C1179 0.929 . S
H1167 C1177 0.929 . S
H1168 C1172 0.929 . S
H1169 C1178 0.929 . S
C1170 H1164 0.930 . S
C1170 C1171 1.367 . S
C1170 C1178 1.378 . S
C1171 C1170 1.367 . S
C1171 C1179 1.433 . S
C1172 H1168 0.929 . S
C1172 C1174 1.378 . S
C1172 C1176 1.350 . S
C1173 C1176 1.463 . S
C1173 C1178 1.350 . S
C1173 N1181 1.427 . S
C1174 H1165 0.930 . S
C1174 C1172 1.378 . S
C1174 C1175 1.367 . S
C1175 C1174 1.367 . S
C1175 C1177 1.433 . S
C1176 C1172 1.350 . S
C1176 C1173 1.463 . S
C1176 N1180 1.427 . S
C1177 H1167 0.929 . S
C1177 C1175 1.433 . S
C1177 N1180 1.384 . S
C1178 H1169 0.929 . S
C1178 C1170 1.378 . S
C1178 C1173 1.350 . S
C1179 H1166 0.929 . S
C1179 C1171 1.433 . S
C1179 N1181 1.384 . S
N1180 C1176 1.427 . S
N1180 C1177 1.384 . S
N1181 C1173 1.427 . S
N1181 C1179 1.384 . S
H1182 C1188 0.930 . S
H1183 C1192 0.930 . S
H1184 C1197 0.929 . S
H1185 C1195 0.929 . S
H1186 C1190 0.929 . S
H1187 C1196 0.929 . S
C1188 H1182 0.930 . S
C1188 C1189 1.367 . S
C1188 C1196 1.378 . S
C1189 C1188 1.367 . S
C1189 C1197 1.433 . S
C1190 H1186 0.929 . S
C1190 C1192 1.378 . S
C1190 C1194 1.350 . S
C1191 C1194 1.463 . S
C1191 C1196 1.350 . S
C1191 N1199 1.427 . S
C1192 H1183 0.930 . S
C1192 C1190 1.378 . S
C1192 C1193 1.367 . S
C1193 C1192 1.367 . S
C1193 C1195 1.433 . S
C1194 C1190 1.350 . S
C1194 C1191 1.463 . S
C1194 N1198 1.427 . S
C1195 H1185 0.929 . S
C1195 C1193 1.433 . S
C1195 N1198 1.384 . S
C1196 H1187 0.929 . S
C1196 C1188 1.378 . S
C1196 C1191 1.350 . S
C1197 H1184 0.929 . S
C1197 C1189 1.433 . S
C1197 N1199 1.384 . S
N1198 C1194 1.427 . S
N1198 C1195 1.384 . S
N1199 C1191 1.427 . S
N1199 C1197 1.384 . S
H1200 C1206 0.930 . S
H1201 C1210 0.930 . S
H1202 C1215 0.929 . S
H1203 C1213 0.929 . S
H1204 C1208 0.929 . S
H1205 C1214 0.929 . S
C1206 H1200 0.930 . S
C1206 C1207 1.367 . S
C1206 C1214 1.378 . S
C1207 C1206 1.367 . S
C1207 C1215 1.433 . S
C1208 H1204 0.929 . S
C1208 C1210 1.378 . S
C1208 C1212 1.350 . S
C1209 C1212 1.463 . S
C1209 C1214 1.350 . S
C1209 N1217 1.427 . S
C1210 H1201 0.930 . S
C1210 C1208 1.378 . S
C1210 C1211 1.367 . S
C1211 C1210 1.367 . S
C1211 C1213 1.433 . S
C1212 C1208 1.350 . S
C1212 C1209 1.463 . S
C1212 N1216 1.427 . S
C1213 H1203 0.929 . S
C1213 C1211 1.433 . S
C1213 N1216 1.384 . S
C1214 H1205 0.929 . S
C1214 C1206 1.378 . S
C1214 C1209 1.350 . S
C1215 H1202 0.929 . S
C1215 C1207 1.433 . S
C1215 N1217 1.384 . S
N1216 C1212 1.427 . S
N1216 C1213 1.384 . S
N1217 C1209 1.427 . S
N1217 C1215 1.384 . S
H1218 C1224 0.930 . S
H1219 C1228 0.930 . S
H1220 C1233 0.929 . S
H1221 C1231 0.929 . S
H1222 C1226 0.929 . S
H1223 C1232 0.929 . S
C1224 H1218 0.930 . S
C1224 C1225 1.367 . S
C1224 C1232 1.378 . S
C1225 C1224 1.367 . S
C1225 C1233 1.433 . S
C1226 H1222 0.929 . S
C1226 C1228 1.378 . S
C1226 C1230 1.350 . S
C1227 C1230 1.463 . S
C1227 C1232 1.350 . S
C1227 N1235 1.427 . S
C1228 H1219 0.930 . S
C1228 C1226 1.378 . S
C1228 C1229 1.367 . S
C1229 C1228 1.367 . S
C1229 C1231 1.433 . S
C1230 C1226 1.350 . S
C1230 C1227 1.463 . S
C1230 N1234 1.427 . S
C1231 H1221 0.929 . S
C1231 C1229 1.433 . S
C1231 N1234 1.384 . S
C1232 H1223 0.929 . S
C1232 C1224 1.378 . S
C1232 C1227 1.350 . S
C1233 H1220 0.929 . S
C1233 C1225 1.433 . S
C1233 N1235 1.384 . S
N1234 C1230 1.427 . S
N1234 C1231 1.384 . S
N1235 C1227 1.427 . S
N1235 C1233 1.384 . S
H1236 C1242 0.930 . S
H1237 C1246 0.930 . S
H1238 C1251 0.929 . S
H1239 C1249 0.929 . S
H1240 C1244 0.929 . S
H1241 C1250 0.929 . S
C1242 H1236 0.930 . S
C1242 C1243 1.367 . S
C1242 C1250 1.378 . S
C1243 C1242 1.367 . S
C1243 C1251 1.433 . S
C1244 H1240 0.929 . S
C1244 C1246 1.378 . S
C1244 C1248 1.350 . S
C1245 C1248 1.463 . S
C1245 C1250 1.350 . S
C1245 N1253 1.427 . S
C1246 H1237 0.930 . S
C1246 C1244 1.378 . S
C1246 C1247 1.367 . S
C1247 C1246 1.367 . S
C1247 C1249 1.433 . S
C1248 C1244 1.350 . S
C1248 C1245 1.463 . S
C1248 N1252 1.427 . S
C1249 H1239 0.929 . S
C1249 C1247 1.433 . S
C1249 N1252 1.384 . S
C1250 H1241 0.929 . S
C1250 C1242 1.378 . S
C1250 C1245 1.350 . S
C1251 H1238 0.929 . S
C1251 C1243 1.433 . S
C1251 N1253 1.384 . S
N1252 C1248 1.427 . S
N1252 C1249 1.384 . S
N1253 C1245 1.427 . S
N1253 C1251 1.384 . S
H1254 C1260 0.930 . S
H1255 C1264 0.930 . S
H1256 C1269 0.929 . S
H1257 C1267 0.929 . S
H1258 C1262 0.929 . S
H1259 C1268 0.929 . S
C1260 H1254 0.930 . S
C1260 C1261 1.367 . S
C1260 C1268 1.378 . S
C1261 C1260 1.367 . S
C1261 C1269 1.433 . S
C1262 H1258 0.929 . S
C1262 C1264 1.378 . S
C1262 C1266 1.350 . S
C1263 C1266 1.463 . S
C1263 C1268 1.350 . S
C1263 N1271 1.427 . S
C1264 H1255 0.930 . S
C1264 C1262 1.378 . S
C1264 C1265 1.367 . S
C1265 C1264 1.367 . S
C1265 C1267 1.433 . S
C1266 C1262 1.350 . S
C1266 C1263 1.463 . S
C1266 N1270 1.427 . S
C1267 H1257 0.929 . S
C1267 C1265 1.433 . S
C1267 N1270 1.384 . S
C1268 H1259 0.929 . S
C1268 C1260 1.378 . S
C1268 C1263 1.350 . S
C1269 H1256 0.929 . S
C1269 C1261 1.433 . S
C1269 N1271 1.384 . S
N1270 C1266 1.427 . S
N1270 C1267 1.384 . S
N1271 C1263 1.427 . S
N1271 C1269 1.384 . S
H1272 C1278 0.930 . S
H1273 C1282 0.930 . S
H1274 C1287 0.929 . S
H1275 C1285 0.929 . S
H1276 C1280 0.929 . S
H1277 C1286 0.929 . S
C1278 H1272 0.930 . S
C1278 C1279 1.367 . S
C1278 C1286 1.378 . S
C1279 C1278 1.367 . S
C1279 C1287 1.433 . S
C1280 H1276 0.929 . S
C1280 C1282 1.378 . S
C1280 C1284 1.350 . S
C1281 C1284 1.463 . S
C1281 C1286 1.350 . S
C1281 N1289 1.427 . S
C1282 H1273 0.930 . S
C1282 C1280 1.378 . S
C1282 C1283 1.367 . S
C1283 C1282 1.367 . S
C1283 C1285 1.433 . S
C1284 C1280 1.350 . S
C1284 C1281 1.463 . S
C1284 N1288 1.427 . S
C1285 H1275 0.929 . S
C1285 C1283 1.433 . S
C1285 N1288 1.384 . S
C1286 H1277 0.929 . S
C1286 C1278 1.378 . S
C1286 C1281 1.350 . S
C1287 H1274 0.929 . S
C1287 C1279 1.433 . S
C1287 N1289 1.384 . S
N1288 C1284 1.427 . S
N1288 C1285 1.384 . S
N1289 C1281 1.427 . S
N1289 C1287 1.384 . S
H1290 C1296 0.930 . S
H1291 C1300 0.930 . S
H1292 C1305 0.929 . S
H1293 C1303 0.929 . S
H1294 C1298 0.929 . S
H1295 C1304 0.929 . S
C1296 H1290 0.930 . S
C1296 C1297 1.367 . S
C1296 C1304 1.378 . S
C1297 C1296 1.367 . S
C1297 C1305 1.433 . S
C1298 H1294 0.929 . S
C1298 C1300 1.378 . S
C1298 C1302 1.350 . S
C1299 C1302 1.463 . S
C1299 C1304 1.350 . S
C1299 N1307 1.427 . S
C1300 H1291 0.930 . S
C1300 C1298 1.378 . S
C1300 C1301 1.367 . S
C1301 C1300 1.367 . S
C1301 C1303 1.433 . S
C1302 C1298 1.350 . S
C1302 C1299 1.463 . S
C1302 N1306 1.427 . S
C1303 H1293 0.929 . S
C1303 C1301 1.433 . S
C1303 N1306 1.384 . S
C1304 H1295 0.929 . S
C1304 C1296 1.378 . S
C1304 C1299 1.350 . S
C1305 H1292 0.929 . S
C1305 C1297 1.433 . S
C1305 N1307 1.384 . S
N1306 C1302 1.427 . S
N1306 C1303 1.384 . S
N1307 C1299 1.427 . S
N1307 C1305 1.384 . S
H1308 C1314 0.930 . S
H1309 C1318 0.930 . S
H1310 C1323 0.929 . S
H1311 C1321 0.929 . S
H1312 C1316 0.929 . S
H1313 C1322 0.929 . S
C1314 H1308 0.930 . S
C1314 C1315 1.367 . S
C1314 C1322 1.378 . S
C1315 C1314 1.367 . S
C1315 C1323 1.433 . S
C1316 H1312 0.929 . S
C1316 C1318 1.378 . S
C1316 C1320 1.350 . S
C1317 C1320 1.463 . S
C1317 C1322 1.350 . S
C1317 N1325 1.427 . S
C1318 H1309 0.930 . S
C1318 C1316 1.378 . S
C1318 C1319 1.367 . S
C1319 C1318 1.367 . S
C1319 C1321 1.433 . S
C1320 C1316 1.350 . S
C1320 C1317 1.463 . S
C1320 N1324 1.427 . S
C1321 H1311 0.929 . S
C1321 C1319 1.433 . S
C1321 N1324 1.384 . S
C1322 H1313 0.929 . S
C1322 C1314 1.378 . S
C1322 C1317 1.350 . S
C1323 H1310 0.929 . S
C1323 C1315 1.433 . S
C1323 N1325 1.384 . S
N1324 C1320 1.427 . S
N1324 C1321 1.384 . S
N1325 C1317 1.427 . S
N1325 C1323 1.384 . S
H1326 C1332 0.930 . S
H1327 C1336 0.930 . S
H1328 C1341 0.929 . S
H1329 C1339 0.929 . S
H1330 C1334 0.929 . S
H1331 C1340 0.929 . S
C1332 H1326 0.930 . S
C1332 C1333 1.367 . S
C1332 C1340 1.378 . S
C1333 C1332 1.367 . S
C1333 C1341 1.433 . S
C1334 H1330 0.929 . S
C1334 C1336 1.378 . S
C1334 C1338 1.350 . S
C1335 C1338 1.463 . S
C1335 C1340 1.350 . S
C1335 N1343 1.427 . S
C1336 H1327 0.930 . S
C1336 C1334 1.378 . S
C1336 C1337 1.367 . S
C1337 C1336 1.367 . S
C1337 C1339 1.433 . S
C1338 C1334 1.350 . S
C1338 C1335 1.463 . S
C1338 N1342 1.427 . S
C1339 H1329 0.929 . S
C1339 C1337 1.433 . S
C1339 N1342 1.384 . S
C1340 H1331 0.929 . S
C1340 C1332 1.378 . S
C1340 C1335 1.350 . S
C1341 H1328 0.929 . S
C1341 C1333 1.433 . S
C1341 N1343 1.384 . S
N1342 C1338 1.427 . S
N1342 C1339 1.384 . S
N1343 C1335 1.427 . S
N1343 C1341 1.384 . S
H1344 C1350 0.930 . S
H1345 C1354 0.930 . S
H1346 C1359 0.929 . S
H1347 C1357 0.929 . S
H1348 C1352 0.929 . S
H1349 C1358 0.929 . S
C1350 H1344 0.930 . S
C1350 C1351 1.367 . S
C1350 C1358 1.378 . S
C1351 C1350 1.367 . S
C1351 C1359 1.433 . S
C1352 H1348 0.929 . S
C1352 C1354 1.378 . S
C1352 C1356 1.350 . S
C1353 C1356 1.463 . S
C1353 C1358 1.350 . S
C1353 N1361 1.427 . S
C1354 H1345 0.930 . S
C1354 C1352 1.378 . S
C1354 C1355 1.367 . S
C1355 C1354 1.367 . S
C1355 C1357 1.433 . S
C1356 C1352 1.350 . S
C1356 C1353 1.463 . S
C1356 N1360 1.427 . S
C1357 H1347 0.929 . S
C1357 C1355 1.433 . S
C1357 N1360 1.384 . S
C1358 H1349 0.929 . S
C1358 C1350 1.378 . S
C1358 C1353 1.350 . S
C1359 H1346 0.929 . S
C1359 C1351 1.433 . S
C1359 N1361 1.384 . S
N1360 C1356 1.427 . S
N1360 C1357 1.384 . S
N1361 C1353 1.427 . S
N1361 C1359 1.384 . S
H1362 C1368 0.930 . S
H1363 C1372 0.930 . S
H1364 C1377 0.929 . S
H1365 C1375 0.929 . S
H1366 C1370 0.929 . S
H1367 C1376 0.929 . S
C1368 H1362 0.930 . S
C1368 C1369 1.367 . S
C1368 C1376 1.378 . S
C1369 C1368 1.367 . S
C1369 C1377 1.433 . S
C1370 H1366 0.929 . S
C1370 C1372 1.378 . S
C1370 C1374 1.350 . S
C1371 C1374 1.463 . S
C1371 C1376 1.350 . S
C1371 N1379 1.427 . S
C1372 H1363 0.930 . S
C1372 C1370 1.378 . S
C1372 C1373 1.367 . S
C1373 C1372 1.367 . S
C1373 C1375 1.433 . S
C1374 C1370 1.350 . S
C1374 C1371 1.463 . S
C1374 N1378 1.427 . S
C1375 H1365 0.929 . S
C1375 C1373 1.433 . S
C1375 N1378 1.384 . S
C1376 H1367 0.929 . S
C1376 C1368 1.378 . S
C1376 C1371 1.350 . S
C1377 H1364 0.929 . S
C1377 C1369 1.433 . S
C1377 N1379 1.384 . S
N1378 C1374 1.427 . S
N1378 C1375 1.384 . S
N1379 C1371 1.427 . S
N1379 C1377 1.384 . S
H1380 C1386 0.930 . S
H1381 C1390 0.930 . S
H1382 C1395 0.929 . S
H1383 C1393 0.929 . S
H1384 C1388 0.929 . S
H1385 C1394 0.929 . S
C1386 H1380 0.930 . S
C1386 C1387 1.367 . S
C1386 C1394 1.378 . S
C1387 C1386 1.367 . S
C1387 C1395 1.433 . S
C1388 H1384 0.929 . S
C1388 C1390 1.378 . S
C1388 C1392 1.350 . S
C1389 C1392 1.463 . S
C1389 C1394 1.350 . S
C1389 N1397 1.427 . S
C1390 H1381 0.930 . S
C1390 C1388 1.378 . S
C1390 C1391 1.367 . S
C1391 C1390 1.367 . S
C1391 C1393 1.433 . S
C1392 C1388 1.350 . S
C1392 C1389 1.463 . S
C1392 N1396 1.427 . S
C1393 H1383 0.929 . S
C1393 C1391 1.433 . S
C1393 N1396 1.384 . S
C1394 H1385 0.929 . S
C1394 C1386 1.378 . S
C1394 C1389 1.350 . S
C1395 H1382 0.929 . S
C1395 C1387 1.433 . S
C1395 N1397 1.384 . S
N1396 C1392 1.427 . S
N1396 C1393 1.384 . S
N1397 C1389 1.427 . S
N1397 C1395 1.384 . S
H1398 C1404 0.930 . S
H1399 C1408 0.930 . S
H1400 C1413 0.929 . S
H1401 C1411 0.929 . S
H1402 C1406 0.929 . S
H1403 C1412 0.929 . S
C1404 H1398 0.930 . S
C1404 C1405 1.367 . S
C1404 C1412 1.378 . S
C1405 C1404 1.367 . S
C1405 C1413 1.433 . S
C1406 H1402 0.929 . S
C1406 C1408 1.378 . S
C1406 C1410 1.350 . S
C1407 C1410 1.463 . S
C1407 C1412 1.350 . S
C1407 N1415 1.427 . S
C1408 H1399 0.930 . S
C1408 C1406 1.378 . S
C1408 C1409 1.367 . S
C1409 C1408 1.367 . S
C1409 C1411 1.433 . S
C1410 C1406 1.350 . S
C1410 C1407 1.463 . S
C1410 N1414 1.427 . S
C1411 H1401 0.929 . S
C1411 C1409 1.433 . S
C1411 N1414 1.384 . S
C1412 H1403 0.929 . S
C1412 C1404 1.378 . S
C1412 C1407 1.350 . S
C1413 H1400 0.929 . S
C1413 C1405 1.433 . S
C1413 N1415 1.384 . S
N1414 C1410 1.427 . S
N1414 C1411 1.384 . S
N1415 C1407 1.427 . S
N1415 C1413 1.384 . S
C559 N518 1.171 . S
C563 N12 1.196 . S
C577 C39 1.666 . S
C581 C536 1.665 . S
C595 N472 1.200 . S
C599 N58 1.208 . S
C613 C490 1.754 . S
C617 C76 1.751 . S
C631 C499 1.612 . S
C635 N104 1.550 . S
C649 N117 1.280 . S
C653 N508 1.301 . S
C667 C545 1.511 . S
C671 N150 1.462 . S
C685 C177 1.306 . S
C689 N462 1.288 . S
C703 C191 1.307 . S
C707 N439 1.291 . S
C721 C384 1.825 . S
C725 C223 1.823 . S
C739 N232 1.137 . S
C743 N393 1.153 . S
C757 N426 1.576 . S
C761 C269 1.627 . S
C775 C260 1.625 . S
C779 N301 1.615 . S
C793 C200 1.432 . S
C797 N334 1.367 . S
C811 C361 1.661 . S
C815 C214 1.651 . S
C829 N242 1.186 . S
C833 N288 1.169 . S
C847 C30 1.611 . S
C851 N416 1.586 . S
C865 N324 1.479 . S
C869 C168 1.509 . S
C883 N94 1.550 . S
C887 C352 1.569 . S
C901 N278 1.344 . S
C905 N127 1.293 . S
C919 N140 1.428 . S
C923 N311 1.374 . S
C937 C85 1.853 . S
C941 C375 1.850 . S
C955 N2 1.199 . S
C959 N403 1.153 . S
C973 N48 1.298 . S
C977 N449 1.245 . S
C991 C145 2.003 . S
C995 C467 2.005 . S
C1009 N495 1.394 . S
C1013 N163 1.400 . S
C1027 C513 1.899 . S
C1031 C99 1.897 . S
C1045 N541 1.313 . S
C1049 C131 1.352 . S
C1063 C53 1.497 . S
C1067 N531 1.474 . S
C1081 N81 1.783 . S
C1085 C476 1.798 . S
C1099 C7 1.606 . S
C1103 N485 1.570 . S
C1117 C522 1.611 . S
C1121 N25 1.578 . S
C1135 C246 1.747 . S
C1139 C315 1.743 . S
C1153 N255 1.348 . S
C1157 C329 1.389 . S
C1171 N196 1.722 . S
C1175 N347 1.687 . S
C1189 N209 1.369 . S
C1193 C283 1.411 . S
C1207 N219 1.569 . S
C1211 C453 1.579 . S
C1225 N370 1.588 . S
C1229 C237 1.638 . S
C1243 N265 1.362 . S
C1247 C407 1.383 . S
C1261 N186 1.679 . S
C1265 C421 1.733 . S
C1279 C292 1.277 . S
C1283 N173 1.264 . S
C1297 N380 1.512 . S
C1301 N35 1.516 . S
C1315 C62 1.497 . S
C1319 C398 1.500 . S
C1333 C430 1.756 . S
C1337 N71 1.706 . S
C1351 C444 1.646 . S
C1355 C16 1.636 . S
C1369 C122 1.350 . S
C1373 C338 1.337 . S
C1387 N357 1.887 . S
C1391 C154 1.907 . S
C1405 C306 1.972 . S
C1409 C108 1.961 . S
