# Generated by pormake.
# Topology wlk, (5)-cn, num edge types: 1
# Building blocks:
#     Node 0, Type 0, BuildingBlock: XOMCOT_clean_sbu_1, # of connection points: 5
#     Node 1, Type 0, BuildingBlock: XOMCOT_clean_sbu_1, # of connection points: 5
#     Node 2, Type 0, BuildingBlock: XOMCOT_clean_sbu_1, # of connection points: 5
#     Node 3, Type 0, BuildingBlock: XOMCOT_clean_sbu_1, # of connection points: 5
#     Node 4, Type 0, BuildingBlock: XOMCOT_clean_sbu_1, # of connection points: 5
#     Node 5, Type 0, BuildingBlock: XOMCOT_clean_sbu_1, # of connection points: 5
#     Node 6, Type 0, BuildingBlock: XOMCOT_clean_sbu_1, # of connection points: 5
#     Node 7, Type 0, BuildingBlock: XOMCOT_clean_sbu_1, # of connection points: 5
#     Node 8, Type 0, BuildingBlock: XOMCOT_clean_sbu_1, # of connection points: 5
#     Node 9, Type 0, BuildingBlock: XOMCOT_clean_sbu_1, # of connection points: 5
#     Node 10, Type 0, BuildingBlock: XOMCOT_clean_sbu_1, # of connection points: 5
#     Node 11, Type 0, BuildingBlock: XOMCOT_clean_sbu_1, # of connection points: 5
#     Node 12, Type 0, BuildingBlock: XOMCOT_clean_sbu_1, # of connection points: 5
#     Node 13, Type 0, BuildingBlock: XOMCOT_clean_sbu_1, # of connection points: 5
#     Node 14, Type 0, BuildingBlock: XOMCOT_clean_sbu_1, # of connection points: 5
#     Node 15, Type 0, BuildingBlock: XOMCOT_clean_sbu_1, # of connection points: 5
#     Node 16, Type 0, BuildingBlock: XOMCOT_clean_sbu_1, # of connection points: 5
#     Node 17, Type 0, BuildingBlock: XOMCOT_clean_sbu_1, # of connection points: 5
#     Edge 18, Type (0, 0), BuildingBlock: OJICUG_clean_linker_0, # of connection points: 2
#     Edge 19, Type (0, 0), BuildingBlock: OJICUG_clean_linker_0, # of connection points: 2
#     Edge 20, Type (0, 0), BuildingBlock: OJICUG_clean_linker_0, # of connection points: 2
#     Edge 21, Type (0, 0), BuildingBlock: OJICUG_clean_linker_0, # of connection points: 2
#     Edge 22, Type (0, 0), BuildingBlock: OJICUG_clean_linker_0, # of connection points: 2
#     Edge 23, Type (0, 0), BuildingBlock: OJICUG_clean_linker_0, # of connection points: 2
#     Edge 24, Type (0, 0), BuildingBlock: OJICUG_clean_linker_0, # of connection points: 2
#     Edge 25, Type (0, 0), BuildingBlock: OJICUG_clean_linker_0, # of connection points: 2
#     Edge 26, Type (0, 0), BuildingBlock: OJICUG_clean_linker_0, # of connection points: 2
#     Edge 27, Type (0, 0), BuildingBlock: OJICUG_clean_linker_0, # of connection points: 2
#     Edge 28, Type (0, 0), BuildingBlock: OJICUG_clean_linker_0, # of connection points: 2
#     Edge 29, Type (0, 0), BuildingBlock: OJICUG_clean_linker_0, # of connection points: 2
#     Edge 30, Type (0, 0), BuildingBlock: OJICUG_clean_linker_0, # of connection points: 2
#     Edge 31, Type (0, 0), BuildingBlock: OJICUG_clean_linker_0, # of connection points: 2
#     Edge 32, Type (0, 0), BuildingBlock: OJICUG_clean_linker_0, # of connection points: 2
#     Edge 33, Type (0, 0), BuildingBlock: OJICUG_clean_linker_0, # of connection points: 2
#     Edge 34, Type (0, 0), BuildingBlock: OJICUG_clean_linker_0, # of connection points: 2
#     Edge 35, Type (0, 0), BuildingBlock: OJICUG_clean_linker_0, # of connection points: 2
#     Edge 36, Type (0, 0), BuildingBlock: OJICUG_clean_linker_0, # of connection points: 2
#     Edge 37, Type (0, 0), BuildingBlock: OJICUG_clean_linker_0, # of connection points: 2
#     Edge 38, Type (0, 0), BuildingBlock: OJICUG_clean_linker_0, # of connection points: 2
#     Edge 39, Type (0, 0), BuildingBlock: OJICUG_clean_linker_0, # of connection points: 2
#     Edge 40, Type (0, 0), BuildingBlock: OJICUG_clean_linker_0, # of connection points: 2
#     Edge 41, Type (0, 0), BuildingBlock: OJICUG_clean_linker_0, # of connection points: 2
#     Edge 42, Type (0, 0), BuildingBlock: OJICUG_clean_linker_0, # of connection points: 2
#     Edge 43, Type (0, 0), BuildingBlock: OJICUG_clean_linker_0, # of connection points: 2
#     Edge 44, Type (0, 0), BuildingBlock: OJICUG_clean_linker_0, # of connection points: 2
#     Edge 45, Type (0, 0), BuildingBlock: OJICUG_clean_linker_0, # of connection points: 2
#     Edge 46, Type (0, 0), BuildingBlock: OJICUG_clean_linker_0, # of connection points: 2
#     Edge 47, Type (0, 0), BuildingBlock: OJICUG_clean_linker_0, # of connection points: 2
#     Edge 48, Type (0, 0), BuildingBlock: OJICUG_clean_linker_0, # of connection points: 2
#     Edge 49, Type (0, 0), BuildingBlock: OJICUG_clean_linker_0, # of connection points: 2
#     Edge 50, Type (0, 0), BuildingBlock: OJICUG_clean_linker_0, # of connection points: 2
#     Edge 51, Type (0, 0), BuildingBlock: OJICUG_clean_linker_0, # of connection points: 2
#     Edge 52, Type (0, 0), BuildingBlock: OJICUG_clean_linker_0, # of connection points: 2
#     Edge 53, Type (0, 0), BuildingBlock: OJICUG_clean_linker_0, # of connection points: 2
#     Edge 54, Type (0, 0), BuildingBlock: OJICUG_clean_linker_0, # of connection points: 2
#     Edge 55, Type (0, 0), BuildingBlock: OJICUG_clean_linker_0, # of connection points: 2
#     Edge 56, Type (0, 0), BuildingBlock: OJICUG_clean_linker_0, # of connection points: 2
#     Edge 57, Type (0, 0), BuildingBlock: OJICUG_clean_linker_0, # of connection points: 2
#     Edge 58, Type (0, 0), BuildingBlock: OJICUG_clean_linker_0, # of connection points: 2
#     Edge 59, Type (0, 0), BuildingBlock: OJICUG_clean_linker_0, # of connection points: 2
#     Edge 60, Type (0, 0), BuildingBlock: OJICUG_clean_linker_0, # of connection points: 2
#     Edge 61, Type (0, 0), BuildingBlock: OJICUG_clean_linker_0, # of connection points: 2
#     Edge 62, Type (0, 0), BuildingBlock: OJICUG_clean_linker_0, # of connection points: 2
# Relax obj value: 0.165
# Max RMSD: 0.220
# Mean RMSD: 0.220
data_MOF--net-wlk--node1-XOMCOT_clean_sbu_1--edge1-OJICUG_clean_linker_0
_symmetry_space_group_name_H-M    P1
_symmetry_Int_Tables_number       1
_symmetry_cell_setting            triclinic
loop_
_symmetry_equiv_pos_as_xyz
'x, y, z'
_cell_length_a     48.378308
_cell_length_b     48.782209
_cell_length_c     21.300523
_cell_angle_alpha  90.278876
_cell_angle_beta   89.723705
_cell_angle_gamma 119.93559
loop_
_atom_site_label
_atom_site_type_symbol
_atom_site_fract_x
_atom_site_fract_y
_atom_site_fract_z
_atom_type_partial_charge
C0 C 0.22468 0.27007 0.96003 0.0
C1 C 0.22983 0.2466 0.93648 0.0
N2 N 0.22862 0.22794 0.98429 0.0
N3 N 0.22042 0.2666 0.02263 0.0
C4 C 0.22252 0.24059 0.03585 0.0
H5 H 0.225 0.28908 0.93349 0.0
Co6 Co 0.21496 0.29368 0.07859 0.0
C7 C 0.25898 0.30153 0.18214 0.0
O8 O 0.26932 0.33208 0.17989 0.0
N9 N 0.20796 0.32004 0.13606 0.0
C10 C 0.19501 0.35441 0.1769 0.0
C11 C 0.19957 0.34192 0.12232 0.0
C12 C 0.20565 0.31807 0.19979 0.0
N13 N 0.19915 0.33958 0.22597 0.0
O14 O 0.17273 0.25957 0.10028 0.0
H15 H 0.19524 0.34753 0.0758 0.0
H16 H 0.20838 0.30092 0.22687 0.0
O17 O 0.23634 0.28266 0.14554 0.0
C18 C 0.15375 0.25744 0.0564 0.0
O19 O 0.16598 0.27601 1.00742 0.0
N20 N 0.25502 0.32804 0.05026 0.0
C21 C 0.31031 0.37656 0.99229 0.0
C22 C 0.31034 0.35057 0.02065 0.0
C23 C 0.28249 0.32647 0.0484 0.0
C24 C 0.25414 0.35212 0.01971 0.0
C25 C 0.28148 0.37691 0.99219 0.0
H26 H 0.28281 0.30595 0.06632 0.0
H27 H 0.23186 0.35151 1.01321 0.0
H28 H 0.22007 0.23153 0.08293 0.0
H29 H 0.23522 0.24439 0.88804 0.0
H30 H 0.18806 0.37231 0.17997 0.0
H31 H 0.33134 0.34807 0.01938 0.0
H32 H 0.27967 0.39585 0.96995 0.0
C33 C 0.79075 0.95816 0.95933 0.0
C34 C 0.8144 0.98702 0.93741 0.0
N35 N 0.83087 1.00507 0.9869 0.0
N36 N 0.79202 0.9578 0.02248 0.0
C37 C 0.81694 0.98649 0.03776 0.0
H38 H 0.77293 0.93908 0.93111 0.0
Co39 Co 0.76241 0.92521 0.07495 0.0
C40 C 0.75765 0.9583 0.18888 0.0
O41 O 0.72675 0.93843 0.18899 0.0
N42 N 0.733 0.89192 0.12834 0.0
C43 C 0.69014 0.85148 0.17197 0.0
C44 C 0.70291 0.86832 0.11755 0.0
C45 C 0.73835 0.88757 0.18908 0.0
N46 N 0.71229 0.86392 0.21756 0.0
O47 O 0.794 0.91312 0.0946 0.0
H48 H 0.69041 0.86348 0.07357 0.0
H49 H 0.76049 0.90294 0.213 0.0
O50 O 0.77521 0.95568 0.14651 0.0
C51 C 0.79251 0.89436 0.05078 0.0
O52 O 0.77228 0.88863 1.00482 0.0
N53 N 0.73081 0.93491 0.04793 0.0
C54 C 0.68586 0.94666 0.98878 0.0
C55 C 0.70777 0.96813 0.03255 0.0
C56 C 0.73073 0.96245 0.05952 0.0
C57 C 0.71072 0.91449 1.00361 0.0
C58 C 0.68785 0.91959 0.97425 0.0
H59 H 0.74907 0.98097 0.08759 0.0
H60 H 0.71328 0.89462 0.98899 0.0
H61 H 0.82439 0.99378 0.08554 0.0
H62 H 0.81801 0.99456 0.88892 0.0
H63 H 0.66615 0.8318 0.17741 0.0
H64 H 0.70788 0.9897 0.04511 0.0
H65 H 0.67283 0.90304 0.93856 0.0
C66 C 0.09635 0.82587 0.94767 0.0
C67 C 0.06852 0.82282 0.92396 0.0
N68 N 0.0536 0.82978 0.96959 0.0
N69 N 0.09926 0.8342 1.00891 0.0
C70 C 0.07348 0.83773 0.01975 0.0
H71 H 0.11271 0.82141 0.92117 0.0
Co72 Co 0.13092 0.83914 0.06981 0.0
C73 C 0.06906 0.79412 0.129 0.0
O74 O 0.06026 0.77976 0.07436 0.0
N75 N 0.16177 0.84488 0.12923 0.0
C76 C 0.20747 0.8536 0.17088 0.0
C77 C 0.19144 0.85072 0.11576 0.0
C78 C 0.16036 0.8446 0.19278 0.0
N79 N 0.1879 0.84971 0.21956 0.0
O80 O 0.13921 0.88177 0.08777 0.0
H81 H 0.20082 0.85286 0.06873 0.0
H82 H 0.13944 0.84047 0.21898 0.0
O83 O 0.09683 0.81868 0.13526 0.0
C84 C 0.15899 0.89906 0.04508 0.0
O85 O 0.1661 0.88472 1.00079 0.0
N86 N 0.12787 0.79999 0.04721 0.0
C87 C 0.13295 0.74832 1.00309 0.0
C88 C 0.1193 0.74736 0.06209 0.0
C89 C 0.1178 0.77378 0.08406 0.0
C90 C 0.14389 0.80231 0.99291 0.0
C91 C 0.14603 0.77671 0.96923 0.0
H92 H 0.10922 0.7732 0.13112 0.0
H93 H 0.15548 0.82448 0.9678 0.0
H94 H 0.06873 0.84461 0.06506 0.0
H95 H 0.05936 0.81444 0.87733 0.0
H96 H 0.2319 0.85874 0.17458 0.0
H97 H 0.11019 0.72654 0.09139 0.0
H98 H 0.1573 0.7791 0.924 0.0
C99 C 0.84972 0.77035 0.07788 0.0
C100 C 0.84514 0.79452 0.09919 0.0
N101 N 0.84671 0.81244 0.04994 0.0
N102 N 0.8536 0.77226 1.01483 0.0
C103 C 0.85307 0.79907 0.99999 0.0
H104 H 0.84955 0.75238 0.10737 0.0
Co105 Co 0.85797 0.74415 0.9567 0.0
C106 C 0.80691 0.75277 0.90071 0.0
O107 O 0.79408 0.74838 0.95692 0.0
N108 N 0.86298 0.71769 0.89887 0.0
C109 C 0.86969 0.67949 0.85736 0.0
C110 C 0.86621 0.69248 0.9124 0.0
C111 C 0.86506 0.71984 0.83537 0.0
N112 N 0.86898 0.69671 0.80867 0.0
O113 O 0.89896 0.77901 0.93002 0.0
H114 H 0.86625 0.68418 0.95936 0.0
H115 H 0.86356 0.738 0.80918 0.0
O116 O 0.83311 0.75251 0.89285 0.0
C117 C 0.91848 0.78074 0.97255 0.0
O118 O 0.90673 0.76174 0.02104 0.0
N119 N 0.82083 0.70822 0.98915 0.0
C120 C 0.77254 0.65981 0.0605 0.0
C121 C 0.76645 0.6658 0.99904 0.0
C122 C 0.79139 0.68944 0.96308 0.0
C123 C 0.82796 0.6993 0.04439 0.0
C124 C 0.80432 0.67554 0.08098 0.0
H125 H 0.78665 0.69301 0.91527 0.0
H126 H 0.85227 0.71143 0.06114 0.0
H127 H 0.85607 0.8079 0.95254 0.0
H128 H 0.83946 0.79755 0.14699 0.0
H129 H 0.87312 0.65925 0.85374 0.0
H130 H 0.74262 0.65322 0.97968 0.0
H131 H 0.81086 0.67025 0.126 0.0
C132 C 0.28427 0.08131 0.07429 0.0
C133 C 0.26084 0.052 0.09486 0.0
N134 N 0.24463 0.0344 0.04468 0.0
N135 N 0.28322 0.08252 1.0112 0.0
C136 C 0.25864 0.05374 0.99466 0.0
H137 H 0.30152 0.1003 0.1035 0.0
Co138 Co 0.31157 0.11663 0.95897 0.0
C139 C 0.3227 0.08493 0.85091 0.0
O140 O 0.35299 0.10688 0.85133 0.0
N141 N 0.33925 0.15096 0.9048 0.0
C142 C 0.37861 0.19517 0.86286 0.0
C143 C 0.36666 0.17806 0.91722 0.0
C144 C 0.33443 0.1533 0.84261 0.0
N145 N 0.35858 0.17939 0.81532 0.0
O146 O 0.27729 0.12396 0.93512 0.0
H147 H 0.37777 0.18557 0.96251 0.0
H148 H 0.31406 0.13533 0.81727 0.0
O149 O 0.30334 0.08612 0.89064 0.0
C150 C 0.27694 0.14157 0.9796 0.0
O151 O 0.29642 0.14748 0.02704 0.0
N152 N 0.34587 0.11252 0.99072 0.0
C153 C 0.39395 0.11183 0.06283 0.0
C154 C 0.37579 0.08719 0.0203 0.0
C155 C 0.35135 0.08765 0.98551 0.0
C156 C 0.36256 0.13581 0.03345 0.0
C157 C 0.38721 0.13655 0.06813 0.0
H158 H 0.33597 0.06724 0.95733 0.0
H159 H 0.35571 0.15339 0.04285 0.0
H160 H 0.25135 0.04708 0.94652 0.0
H161 H 0.25697 0.04402 0.14306 0.0
H162 H 0.4005 0.21762 0.85906 0.0
H163 H 0.37918 0.06692 0.01657 0.0
H164 H 0.40009 0.15591 0.10072 0.0
C165 C 0.97783 0.2146 0.07619 0.0
C166 C 1.00499 0.21688 0.10179 0.0
N167 N 1.01849 0.20656 0.05931 0.0
N168 N 0.97409 0.20339 0.0169 0.0
C169 C 0.9983 0.19712 1.00953 0.0
H170 H 0.96284 0.22215 0.09915 0.0
Co171 Co 0.94404 0.19998 0.95433 0.0
C172 C 1.00779 0.23928 0.89424 0.0
O173 O 1.0192 0.25353 0.94823 0.0
N174 N 0.91423 0.19571 0.89319 0.0
C175 C 0.86918 0.18819 0.85019 0.0
C176 C 0.88486 0.19097 0.90572 0.0
C177 C 0.91575 0.19533 0.82958 0.0
N178 N 0.88861 0.19093 0.80203 0.0
O179 O 0.93389 0.15692 0.93758 0.0
H180 H 0.87526 0.18924 0.95241 0.0
H181 H 0.93638 0.19826 0.80387 0.0
O182 O 0.97833 0.21792 0.88962 0.0
C183 C 0.91391 0.14031 0.9804 0.0
O184 O 0.90684 0.15526 0.02343 0.0
N185 N 0.94968 0.24029 0.97601 0.0
C186 C 0.95144 0.29459 0.02667 0.0
C187 C 0.9692 0.29628 0.97257 0.0
C188 C 0.96698 0.26877 0.94665 0.0
C189 C 0.93031 0.23772 0.02496 0.0
C190 C 0.93064 0.26426 0.05069 0.0
H191 H 0.9792 0.27081 0.9031 0.0
H192 H 0.91469 0.2147 0.04504 0.0
H193 H 1.00234 0.18808 0.96609 0.0
H194 H 1.01518 0.22768 0.14656 0.0
H195 H 0.845 0.18372 0.84585 0.0
H196 H 0.98519 0.31854 0.95024 0.0
H197 H 0.91466 0.26062 0.0894 0.0
C198 C 0.86278 0.57628 0.29659 0.0
C199 C 0.86894 0.55352 0.27246 0.0
N200 N 0.89509 0.55653 0.30093 0.0
N201 N 0.88485 0.59355 0.34045 0.0
C202 C 0.90466 0.58145 0.34032 0.0
H203 H 0.84257 0.57894 0.28467 0.0
Co204 Co 0.88531 0.6238 0.39776 0.0
C205 C 0.90265 0.58887 0.49143 0.0
O206 O 0.87346 0.56486 0.49581 0.0
N207 N 0.8856 0.65319 0.45586 0.0
C208 C 0.88555 0.69496 0.49782 0.0
C209 C 0.88746 0.68103 0.44271 0.0
C210 C 0.88232 0.65058 0.51916 0.0
N211 N 0.8823 0.6758 0.5463 0.0
O212 O 0.84317 0.59269 0.42735 0.0
H213 H 0.88967 0.6904 0.39589 0.0
H214 H 0.87988 0.63039 0.54468 0.0
O215 O 0.90843 0.61257 0.45719 0.0
C216 C 0.8247 0.59821 0.39338 0.0
O217 O 0.83798 0.6219 0.3536 0.0
N218 N 0.92398 0.65536 0.3629 0.0
C219 C 0.97434 0.7063 0.29966 0.0
C220 C 0.97757 0.69974 0.36273 0.0
C221 C 0.95196 0.67414 0.39374 0.0
C222 C 0.92063 0.66117 0.3018 0.0
C223 C 0.94545 0.68601 0.26925 0.0
H224 H 0.95418 0.67017 0.44289 0.0
H225 H 0.8981 0.64673 0.27833 0.0
H226 H 0.92542 0.59018 0.36998 0.0
H227 H 0.85422 0.53506 0.23945 0.0
H228 H 0.88583 0.71722 0.50135 0.0
H229 H 0.99923 0.71478 0.3885 0.0
H230 H 0.94177 0.68927 0.22039 0.0
C231 C 0.46075 0.29514 0.28248 0.0
C232 C 0.48585 0.32292 0.25992 0.0
N233 N 0.50056 0.34237 0.30874 0.0
N234 N 0.45851 0.29694 0.34552 0.0
C235 C 0.48419 0.3255 0.35989 0.0
H236 H 0.44607 0.27464 0.25401 0.0
Co237 Co 0.42932 0.26516 0.40346 0.0
C238 C 0.43791 0.3238 0.46286 0.0
O239 O 0.43201 0.33172 0.40772 0.0
N240 N 0.40207 0.23426 0.46108 0.0
C241 C 0.36198 0.19099 0.50337 0.0
C242 C 0.37569 0.20651 0.44797 0.0
C243 C 0.40417 0.2349 0.52455 0.0
N244 N 0.37991 0.2089 0.55176 0.0
O245 O 0.46345 0.25758 0.42829 0.0
H246 H 0.36689 0.19823 0.4011 0.0
H247 H 0.42297 0.25436 0.55038 0.0
O248 O 0.43932 0.29833 0.4687 0.0
C249 C 0.4622 0.23756 0.38755 0.0
O250 O 0.44066 0.22875 0.34302 0.0
N251 N 0.39376 0.26828 0.37378 0.0
C252 C 0.34154 0.26992 0.32128 0.0
C253 C 0.34836 0.2757 0.38562 0.0
C254 C 0.37392 0.27373 0.41132 0.0
C255 C 0.38514 0.25909 0.31308 0.0
C256 C 0.35972 0.26046 0.28547 0.0
H257 H 0.37789 0.27687 0.46135 0.0
H258 H 0.39742 0.24979 0.28599 0.0
H259 H 0.49078 0.33386 0.40744 0.0
H260 H 0.49289 0.32801 0.21119 0.0
H261 H 0.34063 0.1681 0.50746 0.0
H262 H 0.33399 0.28154 0.41592 0.0
H263 H 0.35479 0.25466 0.23615 0.0
C264 C 0.76527 0.16565 0.272 0.0
C265 C 0.73747 0.16368 0.25073 0.0
N266 N 0.71992 0.16305 0.30055 0.0
N267 N 0.76539 0.16534 0.33546 0.0
C268 C 0.73803 0.16527 0.35092 0.0
H269 H 0.78444 0.16829 0.24203 0.0
Co270 Co 0.79794 0.16901 0.3929 0.0
C271 C 0.7388 0.12189 0.455 0.0
O272 O 0.73019 0.10737 0.40044 0.0
N273 N 0.82964 0.17388 0.44988 0.0
C274 C 0.87461 0.17983 0.49017 0.0
C275 C 0.85786 0.17618 0.43558 0.0
C276 C 0.82989 0.17654 0.51326 0.0
N277 N 0.857 0.18005 0.53933 0.0
O278 O 0.80676 0.21121 0.41378 0.0
H279 H 0.86575 0.17531 0.38838 0.0
H280 H 0.81037 0.17567 0.5398 0.0
O281 O 0.76514 0.14819 0.45987 0.0
C282 C 0.82691 0.22808 0.37136 0.0
O283 O 0.83434 0.21337 0.32839 0.0
N284 N 0.79367 0.12955 0.3671 0.0
C285 C 0.79129 0.07455 0.32038 0.0
C286 C 0.78542 0.07719 0.38415 0.0
C287 C 0.78775 0.10526 0.40695 0.0
C288 C 0.80298 0.1286 0.307 0.0
C289 C 0.80119 0.1012 0.28219 0.0
H290 H 0.78468 0.10734 0.45668 0.0
H291 H 0.81283 0.1495 0.27836 0.0
H292 H 0.73145 0.16663 0.39882 0.0
H293 H 0.73108 0.16315 0.20198 0.0
H294 H 0.89819 0.1826 0.49304 0.0
H295 H 0.77932 0.05785 0.4163 0.0
H296 H 0.8071 0.10087 0.23321 0.0
C297 C 0.51742 0.1135 0.41921 0.0
C298 C 0.51422 0.13849 0.44047 0.0
N299 N 0.5179 0.15743 0.39161 0.0
N300 N 0.52242 0.11581 0.35644 0.0
C301 C 0.52432 0.14384 0.34211 0.0
H302 H 0.51534 0.09468 0.44862 0.0
Co303 Co 0.52484 0.08706 0.29648 0.0
C304 C 0.47653 0.10049 0.24466 0.0
O305 O 0.46447 0.09505 0.30172 0.0
N306 N 0.52824 0.06023 0.23765 0.0
C307 C 0.53355 1.02122 0.1962 0.0
C308 C 0.53157 0.03511 0.25127 0.0
C309 C 0.52863 0.06142 0.1741 0.0
N310 N 0.53169 0.03777 0.14742 0.0
O311 O 0.56671 0.12044 0.27114 0.0
H312 H 0.53262 0.02748 0.29835 0.0
H313 H 0.52653 0.07923 0.14791 0.0
O314 O 0.50169 0.09859 0.2335 0.0
C315 C 0.58632 0.1218 0.31294 0.0
O316 O 0.57465 0.10396 0.36303 0.0
N317 N 0.48605 0.05202 0.32533 0.0
C318 C 0.43209 1.00013 0.37707 0.0
C319 C 0.43216 1.00914 0.31448 0.0
C320 C 0.45969 0.03456 0.28894 0.0
C321 C 0.48771 0.04087 0.38291 0.0
C322 C 0.46084 1.01563 0.41051 0.0
H323 H 0.45965 0.04016 0.23997 0.0
H324 H 0.51017 0.05145 0.40754 0.0
H325 H 0.52865 0.15323 0.29496 0.0
H326 H 0.50773 0.1413 0.48776 0.0
H327 H 0.53678 1.00086 0.1926 0.0
H328 H 0.41114 0.99667 0.28541 0.0
H329 H 0.46252 1.00892 0.4581 0.0
C330 C 0.94873 0.4109 0.39136 0.0
C331 C 0.92527 0.38199 0.41352 0.0
N332 N 0.90954 0.36337 0.36409 0.0
N333 N 0.94811 0.41072 0.32812 0.0
C334 C 0.92376 0.38165 0.313 0.0
H335 H 0.96588 0.43046 0.41959 0.0
Co336 Co 0.97731 0.44333 0.27509 0.0
C337 C 0.98137 0.40997 0.16022 0.0
O338 O 1.01167 0.43112 0.15336 0.0
N339 N 1.00621 0.4766 0.22142 0.0
C340 C 0.0477 0.51906 0.17957 0.0
C341 C 1.0362 0.50046 0.23212 0.0
C342 C 0.99977 0.48222 0.1624 0.0
N343 N 1.02489 0.50743 0.13525 0.0
O344 O 0.9452 0.45414 0.25408 0.0
H345 H 0.04934 0.50487 0.27516 0.0
H346 H 0.97728 0.46731 0.13911 0.0
O347 O 0.96527 0.41239 0.20571 0.0
C348 C 0.94898 0.47453 0.29612 0.0
O349 O 0.97045 0.48077 0.3398 0.0
N350 N 1.00953 0.43537 0.30332 0.0
C351 C 0.05556 0.42829 0.36855 0.0
C352 C 1.03555 0.40536 0.32486 0.0
C353 C 1.01242 0.40922 0.29292 0.0
C354 C 1.02766 0.45674 0.34822 0.0
C355 C 0.05141 0.45425 0.37987 0.0
H356 H 0.99599 0.39038 0.26277 0.0
H357 H 1.02307 0.47559 0.36081 0.0
H358 H 0.91691 0.37391 0.26515 0.0
H359 H 0.92119 0.37492 0.46227 0.0
H360 H 0.07104 0.53985 0.17492 0.0
H361 H 1.03715 0.38425 0.31694 0.0
H362 H 0.06522 0.4716 0.41554 0.0
C363 C 0.64449 0.54374 0.41917 0.0
C364 C 0.67254 0.54654 0.44115 0.0
N365 N 0.68853 0.54331 0.39248 0.0
N366 N 0.64271 0.53949 0.35618 0.0
C367 C 0.66918 0.53762 0.34237 0.0
H368 H 0.62717 0.54543 0.4483 0.0
Co369 Co 0.61195 0.53721 0.29556 0.0
C370 C 0.67409 0.58512 0.24439 0.0
O371 O 0.6797 0.597 0.30153 0.0
N372 N 0.58192 0.53387 0.23626 0.0
C373 C 0.53741 0.52879 0.19547 0.0
C374 C 0.55327 0.53062 0.25026 0.0
C375 C 0.58285 0.53358 0.17266 0.0
N376 N 0.55601 0.53066 0.14641 0.0
O377 O 0.60411 0.4957 0.27073 0.0
H378 H 0.54445 0.52955 0.29746 0.0
H379 H 0.60294 0.53566 0.14614 0.0
O380 O 0.64733 0.55998 0.23283 0.0
C381 C 0.5857 0.47641 0.31267 0.0
O382 O 0.57828 0.48806 0.36149 0.0
N383 N 0.61519 0.5758 0.32418 0.0
C384 C 0.61711 0.6296 0.3763 0.0
C385 C 0.62622 0.62943 0.31358 0.0
C386 C 0.62417 0.60199 0.28786 0.0
C387 C 0.60213 0.57426 0.38181 0.0
C388 C 0.6037 0.60103 0.4096 0.0
H389 H 0.6301 0.60201 0.2389 0.0
H390 H 0.59011 0.55199 0.40638 0.0
H391 H 0.67494 0.53368 0.29528 0.0
H392 H 0.68124 0.5524 0.48881 0.0
H393 H 0.51368 0.52565 0.19221 0.0
H394 H 0.63489 0.6503 0.28454 0.0
H395 H 0.59515 0.5994 0.45726 0.0
C396 C 0.56311 0.93735 0.62843 0.0
C397 C 0.56828 0.91356 0.60692 0.0
N398 N 0.57029 0.89764 0.65669 0.0
N399 N 0.56191 0.93675 0.69165 0.0
C400 C 0.56608 0.91217 0.70745 0.0
H401 H 0.56126 0.95461 0.5998 0.0
Co402 Co 0.55753 0.96594 0.74366 0.0
C403 C 0.60148 0.97685 0.84824 0.0
O404 O 0.61051 1.007 0.84244 0.0
N405 N 0.55183 0.99457 0.79725 0.0
C406 C 0.54385 0.0326 0.83649 0.0
C407 C 0.54922 1.02014 0.78279 0.0
C408 C 0.54594 0.99115 0.8601 0.0
N409 N 0.54209 1.01453 0.88559 0.0
O410 O 0.51499 0.93354 0.76705 0.0
H411 H 0.54991 0.02901 0.73631 0.0
H412 H 0.54494 0.97191 0.88691 0.0
O413 O 0.57887 0.95647 0.81338 0.0
C414 C 0.49795 0.93521 0.72298 0.0
O415 O 0.51276 0.95521 0.67703 0.0
N416 N 0.5973 0.99845 0.71216 0.0
C417 C 0.65047 0.044 0.64565 0.0
C418 C 0.6525 1.02118 0.68212 0.0
C419 C 0.62548 0.99824 0.7141 0.0
C420 C 0.59463 1.01916 0.67338 0.0
C421 C 0.62102 0.04275 0.64157 0.0
H422 H 0.62697 0.97951 0.73781 0.0
H423 H 0.57144 1.01599 0.66314 0.0
H424 H 0.56638 0.90536 0.75553 0.0
H425 H 0.57155 0.90927 0.55832 0.0
H426 H 0.54073 0.05306 0.83865 0.0
H427 H 0.67446 1.02039 0.68409 0.0
H428 H 0.61784 0.05847 0.6105 0.0
C429 C 0.13488 0.63593 0.63206 0.0
C430 C 0.16092 0.66324 0.61052 0.0
N431 N 0.17009 0.68536 0.6558 0.0
N432 N 0.12743 0.64052 0.69102 0.0
C433 C 0.14931 0.67103 0.70363 0.0
H434 H 0.12161 0.61473 0.60469 0.0
Co435 Co 0.09317 0.61242 0.74463 0.0
C436 C 0.10973 0.64918 0.83851 0.0
O437 O 0.08763 0.65124 0.80669 0.0
N438 N 0.06019 0.58516 0.79925 0.0
C439 C 1.01719 0.5656 0.8604 0.0
C440 C 1.03145 0.58291 0.80712 0.0
C441 C 0.06289 0.56916 0.84826 0.0
N442 N 0.03716 0.55721 0.88679 0.0
O443 O 0.10737 0.58036 0.73542 0.0
H444 H 1.02237 0.59486 0.77831 0.0
H445 H 0.08427 0.568 0.85727 0.0
O446 O 0.12005 0.63133 0.81714 0.0
C447 C 0.10622 0.56182 0.69117 0.0
O448 O 0.09205 0.56081 0.6382 0.0
N449 N 0.06415 0.59779 0.6763 0.0
C450 C 1.01186 0.58841 0.60313 0.0
C451 C 0.03805 0.61869 0.61269 0.0
C452 C 0.06339 0.62283 0.64983 0.0
C453 C 0.03915 0.56779 0.66698 0.0
C454 C 1.01284 0.56258 0.63004 0.0
H455 H 0.08125 0.64675 0.66186 0.0
H456 H 0.03827 0.5481 0.69193 0.0
H457 H 0.14933 0.68306 0.74626 0.0
H458 H 0.17191 0.66655 0.56474 0.0
H459 H 0.99487 0.56157 0.88044 0.0
H460 H 0.03808 0.63957 0.59556 0.0
H461 H 0.99296 0.53876 0.62477 0.0
C462 C 0.42408 0.4997 0.62816 0.0
C463 C 0.39559 0.49562 0.60565 0.0
N464 N 0.3771 0.49423 0.65466 0.0
N465 N 0.42398 0.50083 0.69132 0.0
C466 C 0.39521 0.49765 0.70607 0.0
H467 H 0.44351 0.50123 0.60015 0.0
Co468 Co 0.45732 0.50489 0.74402 0.0
C469 C 0.42363 0.46351 0.85269 0.0
O470 O 0.44465 0.45394 0.85099 0.0
N471 N 0.49146 0.51019 0.79786 0.0
C472 C 0.53694 0.51601 0.8363 0.0
C473 C 0.51891 0.51068 0.78314 0.0
C474 C 0.49456 0.51715 0.86029 0.0
N475 N 0.52148 0.51972 0.88542 0.0
O476 O 0.46773 0.54759 0.76639 0.0
H477 H 0.52638 0.50823 0.73681 0.0
H478 H 0.47688 0.51959 0.88711 0.0
O479 O 0.42592 0.48454 0.81359 0.0
C480 C 0.48709 0.56446 0.72283 0.0
O481 O 0.49275 0.54962 0.6773 0.0
N482 N 0.45012 0.46516 0.71375 0.0
C483 C 0.44421 0.41233 0.64901 0.0
C484 C 0.41941 0.40974 0.68768 0.0
C485 C 0.42264 0.43657 0.71901 0.0
C486 C 0.4732 0.46825 0.67267 0.0
C487 C 0.47131 0.44213 0.64167 0.0
H488 H 0.40244 0.4345 0.74483 0.0
H489 H 0.49243 0.49151 0.66086 0.0
H490 H 0.3877 0.49751 0.75393 0.0
H491 H 0.38906 0.49329 0.55666 0.0
H492 H 0.56 0.51753 0.83802 0.0
H493 H 0.39739 0.3874 0.69217 0.0
H494 H 0.49005 0.44562 0.60908 0.0
C495 C 0.17296 0.44495 0.74653 0.0
C496 C 0.16488 0.46742 0.76318 0.0
N497 N 0.16275 0.48148 0.71073 0.0
N498 N 0.17535 0.44394 0.68331 0.0
C499 C 0.17051 0.46773 0.66359 0.0
H500 H 0.17653 0.43037 0.77955 0.0
Co501 Co 0.18294 0.41579 0.63029 0.0
C502 C 0.13151 0.41886 0.56267 0.0
O503 O 0.11554 0.41209 0.61581 0.0
N504 N 0.19068 0.38956 0.57682 0.0
C505 C 0.19858 0.35154 0.53843 0.0
C506 C 0.19535 0.36546 0.59251 0.0
C507 C 0.19167 0.39013 0.51324 0.0
N508 N 0.19617 0.36706 0.48832 0.0
O509 O 0.22437 0.45092 0.60706 0.0
H510 H 0.19589 0.35819 0.64017 0.0
H511 H 0.18845 0.40683 0.48557 0.0
O512 O 0.15963 0.42245 0.56107 0.0
C513 C 0.24242 0.45156 0.65174 0.0
O514 O 0.22875 0.4327 0.69978 0.0
N515 N 0.14566 0.37935 0.65979 0.0
C516 C 0.09884 0.32413 0.7185 0.0
C517 C 0.0959 0.32993 0.65499 0.0
C518 C 0.12021 0.35722 0.62584 0.0
C519 C 0.14992 0.37247 0.71953 0.0
C520 C 0.12661 0.34579 0.7503 0.0
H521 H 0.11876 0.36013 0.57595 0.0
H522 H 0.17228 0.38712 0.74294 0.0
H523 H 0.17205 0.47458 0.61495 0.0
H524 H 0.15977 0.47207 0.81029 0.0
H525 H 0.20249 0.33156 0.53646 0.0
H526 H 0.07556 0.31317 0.62772 0.0
H527 H 0.13057 0.34227 0.79885 0.0
C528 C 0.61733 0.74512 0.74543 0.0
C529 C 0.59311 0.71661 0.7676 0.0
N530 N 0.57587 0.69886 0.71841 0.0
N531 N 0.61573 0.7456 0.68236 0.0
C532 C 0.59005 0.71732 0.66741 0.0
H533 H 0.63567 0.76389 0.77342 0.0
Co534 Co 0.64538 0.77778 0.6287 0.0
C535 C 0.65144 0.74303 0.52029 0.0
O536 O 0.68238 0.76262 0.52298 0.0
N537 N 0.67462 0.81047 0.57321 0.0
C538 C 0.71646 0.85128 0.52756 0.0
C539 C 0.70405 0.83553 0.58313 0.0
C540 C 0.66923 0.81293 0.51143 0.0
N541 N 0.6947 0.83679 0.48199 0.0
O542 O 0.61383 0.7897 0.60776 0.0
H543 H 0.71636 0.84247 0.62736 0.0
H544 H 0.64743 0.79639 0.48773 0.0
O545 O 0.63293 0.74629 0.55927 0.0
C546 C 0.61721 0.80946 0.65113 0.0
O547 O 0.63806 0.81473 0.69558 0.0
N548 N 0.67721 0.76903 0.65774 0.0
C549 C 0.72354 0.76118 0.72049 0.0
C550 C 0.7003 0.73671 0.68339 0.0
C551 C 0.67699 0.74092 0.65307 0.0
C552 C 0.69809 0.79182 0.69766 0.0
C553 C 0.72208 0.78894 0.72759 0.0
H554 H 0.65812 0.7211 0.62831 0.0
H555 H 0.6952 0.81187 0.70876 0.0
H556 H 0.58228 0.71029 0.61965 0.0
H557 H 0.58952 0.70919 0.81614 0.0
H558 H 0.73984 0.87186 0.52141 0.0
H559 H 0.69965 0.71425 0.67926 0.0
H560 H 0.73822 0.80756 0.75902 0.0
C561 C 0.31731 0.88791 0.74276 0.0
C562 C 0.34596 0.89257 0.76565 0.0
N563 N 0.36323 0.89084 0.71743 0.0
N564 N 0.31634 0.88341 0.68018 0.0
C565 C 0.34441 0.88494 0.66626 0.0
H566 H 0.29868 0.88861 0.76977 0.0
Co567 Co 0.28321 0.8778 0.62575 0.0
C568 C 0.31791 0.91953 0.51928 0.0
O569 O 0.29736 0.92971 0.52212 0.0
N570 N 0.24908 0.8705 0.57014 0.0
C571 C 0.20115 0.8571 0.53114 0.0
C572 C 0.21895 0.86316 0.58497 0.0
C573 C 0.24789 0.86619 0.50685 0.0
N574 N 0.2195 0.85926 0.48163 0.0
O575 O 0.27466 0.83593 0.60578 0.0
H576 H 0.20946 0.86031 0.63186 0.0
H577 H 0.26746 0.86768 0.47954 0.0
O578 O 0.31485 0.89768 0.55685 0.0
C579 C 0.25691 0.81872 0.6506 0.0
O580 O 0.25104 0.83271 0.69749 0.0
N581 N 0.28943 0.91778 0.65248 0.0
C582 C 0.29676 0.97296 0.71002 0.0
C583 C 0.32253 0.97277 0.67958 0.0
C584 C 0.3185 0.94491 0.652 0.0
C585 C 0.26482 0.91718 0.68505 0.0
C586 C 0.26755 0.94452 0.71216 0.0
H587 H 0.33919 0.94493 0.63262 0.0
H588 H 0.24343 0.89512 0.69371 0.0
H589 H 0.35091 0.88208 0.61911 0.0
H590 H 0.35379 0.89805 0.81387 0.0
H591 H 0.17621 0.85037 0.52907 0.0
H592 H 0.34606 0.99354 0.67931 0.0
H593 H 0.24702 0.94296 0.73602 0.0
C594 C 0.29465 0.30959 0.27296 0.0
C595 C 0.276 0.29033 0.22311 0.0
H596 H 0.32968 0.31822 0.34284 0.0
C597 C 0.27668 0.26246 0.20954 0.0
H598 H 0.29457 0.33117 0.28484 0.0
C599 C 0.29702 0.25502 0.24294 0.0
C600 C 0.31681 0.27515 0.29097 0.0
H601 H 0.26267 0.24719 0.1713 0.0
H602 H 0.29776 0.23388 0.23021 0.0
C603 C 0.31467 0.30205 0.30659 0.0
C604 C 0.75106 0.98728 0.27943 0.0
C605 C 0.76991 0.98687 0.22934 0.0
H606 H 0.74291 1.01503 0.34704 0.0
C607 C 0.79802 1.01499 0.21415 0.0
H608 H 0.72932 0.966 0.29269 0.0
C609 C 0.80587 0.04329 0.24552 0.0
C610 C 0.78589 0.04402 0.29309 0.0
H611 H 0.81312 1.01552 0.17604 0.0
H612 H 0.82715 0.06477 0.2313 0.0
C613 C 0.75895 1.01543 0.31094 0.0
C614 C 1.01552 0.77112 0.17765 0.0
C615 C 0.04745 0.77879 0.18284 0.0
H616 H 0.96794 0.74387 0.21222 0.0
C617 C 0.05617 0.76559 0.2321 0.0
H618 H 1.00815 0.78079 0.13982 0.0
C619 C 1.03278 0.74318 0.27254 0.0
C620 C 1.00031 0.73382 0.26462 0.0
H621 H 0.08061 0.77073 0.23636 0.0
H622 H 0.03991 0.73181 0.30729 0.0
C623 C 0.99239 0.74942 0.2186 0.0
C624 C 0.73526 0.73061 0.79923 0.0
C625 C 0.74654 0.75662 0.75872 0.0
H626 H 0.74582 0.70938 0.87633 0.0
C627 C 0.77908 0.77993 0.76075 0.0
H628 H 0.71029 0.71255 0.79932 0.0
C629 C 0.79967 0.77776 0.80413 0.0
C630 C 0.78775 0.75267 0.847 0.0
H631 H 0.78832 0.8003 0.73011 0.0
H632 H 0.82432 0.79654 0.80662 0.0
C633 C 0.75557 0.72888 0.84341 0.0
C634 C 0.32883 0.05931 0.75438 0.0
C635 C 0.3128 0.05671 0.81109 0.0
H636 H 0.33551 0.03525 0.67681 0.0
C637 C 0.28992 0.02663 0.83244 0.0
H638 H 0.34651 0.0823 0.73675 0.0
C639 C 0.28428 0.99952 0.7992 0.0
C640 C 0.30097 1.00191 0.7431 0.0
H641 H 0.27764 0.02392 0.8766 0.0
H642 H 0.26778 0.97673 0.8192 0.0
C643 C 0.32274 0.03227 0.72042 0.0
C644 C 0.06007 0.26031 0.84152 0.0
C645 C 1.02818 0.25297 0.83845 0.0
H646 H 0.10706 0.28708 0.80379 0.0
C647 C 1.01846 0.26497 0.78866 0.0
H648 H 0.06812 0.25137 0.8795 0.0
C649 C 0.0411 0.28654 0.7462 0.0
C650 C 0.07364 0.29607 0.75276 0.0
H651 H 0.994 0.25991 0.78588 0.0
H652 H 1.03349 0.29749 0.71142 0.0
C653 C 0.08243 0.28117 0.79858 0.0
C654 C 0.92565 0.56548 0.56665 0.0
C655 C 0.92994 0.58697 0.51861 0.0
H656 H 0.94807 0.54905 0.63149 0.0
C657 C 0.96088 0.6065 0.49496 0.0
H658 H 0.90209 0.54988 0.58551 0.0
C659 C 0.98694 0.60536 0.51978 0.0
C660 C 0.98311 0.58517 0.57013 0.0
H661 H 0.96511 0.62282 0.45695 0.0
H662 H 1.01034 0.62093 0.50021 0.0
C663 C 0.95199 0.56472 0.59245 0.0
C664 C 0.46506 0.37812 0.60441 0.0
C665 C 0.44044 0.38553 0.60933 0.0
H666 H 0.48321 0.35177 0.55479 0.0
C667 C 0.41373 0.36974 0.5702 0.0
H668 H 0.48597 0.39007 0.63395 0.0
C669 C 0.41253 0.34854 0.52454 0.0
C670 C 0.43762 0.34206 0.51797 0.0
H671 H 0.39462 0.37522 0.57232 0.0
H672 H 0.39238 0.33793 0.4928 0.0
C673 C 0.46348 0.35621 0.55949 0.0
C674 C 0.69146 0.05368 0.56394 0.0
C675 C 0.67717 0.06586 0.60426 0.0
H676 H 0.7221 0.06217 0.48486 0.0
C677 C 0.68603 0.09803 0.59934 0.0
H678 H 0.68483 0.02895 0.566 0.0
C679 C 0.70793 0.1173 0.5533 0.0
C680 C 0.72056 0.10437 0.51079 0.0
H681 H 0.67527 0.10797 0.62985 0.0
H682 H 0.71354 0.14165 0.54868 0.0
C683 C 0.71264 0.07264 0.51731 0.0
C684 C 0.45892 0.0978 0.1318 0.0
C685 C 0.45877 0.10633 0.19493 0.0
H686 H 0.43827 0.09256 0.04003 0.0
C687 C 0.43833 0.11766 0.21297 0.0
H688 H 0.4742 0.08866 0.11673 0.0
C689 C 0.41779 0.11954 0.16995 0.0
C690 C 0.41711 0.11039 0.10702 0.0
H691 H 0.43756 0.12444 0.26121 0.0
H692 H 0.40168 0.12732 0.18685 0.0
C693 C 0.43809 0.09965 0.08821 0.0
C694 C 0.9535 0.35105 0.15479 0.0
C695 C 0.96865 0.38025 0.12391 0.0
H696 H 0.93797 0.30201 0.1507 0.0
C697 C 0.97565 0.38103 0.05978 0.0
H698 H 0.94826 0.34983 0.20453 0.0
C699 C 0.9684 0.35318 0.02736 0.0
C700 C 0.95524 0.32389 0.05893 0.0
H701 H 0.9873 0.40335 0.03489 0.0
H702 H 0.97385 0.35508 0.97779 0.0
C703 C 0.94743 0.32338 0.12319 0.0
C704 C 0.6949 0.59319 0.13186 0.0
C705 C 0.69851 0.60277 0.19519 0.0
H706 H 0.71552 0.60344 0.03902 0.0
C707 C 0.72618 0.63086 0.21261 0.0
H708 H 0.67379 0.57176 0.1168 0.0
C709 C 0.7495 0.64892 0.16869 0.0
C710 C 0.74648 0.63949 0.10551 0.0
H711 H 0.72993 0.6394 0.26059 0.0
H712 H 0.76988 0.67077 0.18457 0.0
C713 C 0.7187 0.61144 0.08731 0.0
C714 C 0.61265 0.93661 0.89944 0.0
C715 C 0.62143 0.96819 0.88703 0.0
H716 H 0.62541 0.9049 0.94288 0.0
C717 C 0.65097 0.99233 0.90941 0.0
H718 H 0.5901 0.91745 0.88273 0.0
C719 C 0.6715 0.98526 0.94216 0.0
C720 C 0.66301 0.95376 0.955 0.0
H721 H 0.65888 1.01697 0.90013 0.0
H722 H 0.6945 1.00475 0.95574 0.0
C723 C 0.6331 0.92947 0.93349 0.0
C724 C 0.15083 0.69685 0.8946 0.0
C725 C 0.12148 0.66857 0.89576 0.0
H726 H 0.17802 0.74437 0.92905 0.0
C727 C 0.09876 0.66479 0.94128 0.0
H728 H 0.16851 0.70055 0.8592 0.0
C729 C 0.10376 0.68996 0.98038 0.0
C730 C 0.1316 0.7196 0.97446 0.0
H731 H 0.07566 0.64336 0.94219 0.0
H732 H 0.08446 0.68695 1.01081 0.0
C733 C 0.15591 0.72215 0.93379 0.0
C734 C 0.33724 0.41702 0.90538 0.0
C735 C 0.33953 0.40192 0.95995 0.0
H736 H 0.362 0.44887 0.82933 0.0
C737 C 0.37018 0.41038 0.98191 0.0
H738 H 0.31423 0.41102 0.8861 0.0
C739 C 0.39748 0.4317 0.94855 0.0
C740 C 0.39504 0.44572 0.89294 0.0
H741 H 0.37321 0.40012 0.02444 0.0
H742 H 0.4206 0.43666 0.96556 0.0
C743 C 0.36468 0.43884 0.87257 0.0
C744 C 0.1092 0.44802 0.41844 0.0
C745 C 0.07759 0.42349 0.40905 0.0
H746 H 0.15174 0.4654 0.47416 0.0
C747 C 0.06564 0.39607 0.44569 0.0
H748 H 0.11885 0.46948 0.3909 0.0
C749 C 0.08408 0.39412 0.49378 0.0
C750 C 0.11506 0.41919 0.50507 0.0
H751 H 0.04127 0.37704 0.43999 0.0
H752 H 0.07367 0.37347 0.5238 0.0
C753 C 0.12799 0.44571 0.46573 0.0
C754 C 0.6597 0.71528 0.42975 0.0
C755 C 0.63966 0.71522 0.47786 0.0
H756 H 0.66851 0.68865 0.36081 0.0
C757 C 0.61039 0.68747 0.48835 0.0
H758 H 0.68237 0.73629 0.4201 0.0
C759 C 0.60227 0.65989 0.45374 0.0
C760 C 0.62319 0.65957 0.40773 0.0
H761 H 0.59442 0.68662 0.52501 0.0
H762 H 0.57991 0.63866 0.46402 0.0
C763 C 0.65161 0.6879 0.39523 0.0
C764 C 0.34579 0.95624 0.43036 0.0
C765 C 0.346 0.93625 0.47741 0.0
H766 H 0.3725 0.99196 0.36253 0.0
C767 C 0.37411 0.93513 0.4874 0.0
H768 H 0.32449 0.95759 0.42118 0.0
C769 C 0.40189 0.95493 0.45322 0.0
C770 C 0.40201 0.97608 0.40817 0.0
H771 H 0.37506 0.91999 0.52334 0.0
H772 H 0.4234 0.95411 0.46302 0.0
C773 C 0.37336 0.97585 0.39623 0.0
C774 C 0.19107 0.32995 0.40229 0.0
C775 C 0.19709 0.36004 0.4222 0.0
H776 H 0.18645 0.29964 0.32501 0.0
C777 C 0.20367 0.38307 0.37598 0.0
H778 H 0.18547 0.31138 0.43601 0.0
C779 C 0.20405 0.37623 0.31211 0.0
C780 C 0.19798 0.34617 0.29218 0.0
H781 H 0.20902 0.40667 0.38894 0.0
H782 H 0.20974 0.39482 0.27838 0.0
C783 C 0.19156 0.32314 0.33828 0.0
C784 C 0.72978 0.85898 0.38836 0.0
C785 C 0.69903 0.84355 0.41527 0.0
H786 H 0.75811 0.87685 0.30512 0.0
C787 C 0.67271 0.83435 0.37549 0.0
H788 H 0.75065 0.86588 0.41699 0.0
C789 C 0.67703 0.84065 0.3109 0.0
C790 C 0.70781 0.85626 0.28399 0.0
H791 H 0.64872 0.82272 0.39434 0.0
H792 H 0.65612 0.83381 0.28244 0.0
C793 C 0.7341 0.86522 0.32379 0.0
C794 C 0.17831 0.85831 0.33089 0.0
C795 C 0.19519 0.85116 0.28591 0.0
H796 H 0.17295 0.86687 0.42757 0.0
C797 C 0.2197 0.84587 0.30696 0.0
H798 H 0.15959 0.86295 0.31675 0.0
C799 C 0.22739 0.8481 0.37086 0.0
C800 C 0.21079 0.85566 0.41577 0.0
H801 H 0.23289 0.83974 0.27414 0.0
H802 H 0.24625 0.84366 0.38492 0.0
C803 C 0.186 0.86054 0.3948 0.0
C804 C 0.88384 0.71652 0.69919 0.0
C805 C 0.87209 0.69146 0.74244 0.0
H806 H 0.89699 0.73158 0.60425 0.0
C807 C 0.86373 0.66112 0.7198 0.0
H808 H 0.89096 0.74028 0.71477 0.0
C809 C 0.86702 0.65598 0.65597 0.0
C810 C 0.87892 0.68106 0.61257 0.0
H811 H 0.85416 0.6411 0.75129 0.0
H812 H 0.85979 0.63216 0.64079 0.0
C813 C 0.8873 0.71144 0.63539 0.0
C814 C 0.33825 0.17372 0.7058 0.0
C815 C 0.36361 0.18737 0.74897 0.0
H816 H 0.32333 0.17003 0.61005 0.0
C817 C 0.39437 0.20844 0.72561 0.0
H818 H 0.31418 0.15769 0.72157 0.0
C819 C 0.39961 0.21555 0.66147 0.0
C820 C 0.37433 0.20178 0.61831 0.0
H821 H 0.41475 0.21907 0.75655 0.0
H822 H 0.42372 0.2314 0.64565 0.0
C823 C 0.34353 0.18079 0.64148 0.0
C824 C 0.85011 0.1929 0.64956 0.0
C825 C 0.86536 0.18325 0.60549 0.0
H826 H 0.84581 0.20342 0.74553 0.0
C827 C 0.88893 0.17674 0.62752 0.0
H828 H 0.83231 0.19872 0.63481 0.0
C829 C 0.89681 0.17957 0.6915 0.0
C830 C 0.88128 0.18888 0.73554 0.0
H831 H 0.90101 0.16886 0.59558 0.0
H832 H 0.91461 0.17377 0.70653 0.0
C833 C 0.85793 0.19564 0.71347 0.0
C834 C 0.52547 1.00128 0.05963 0.0
C835 C 0.53334 0.03168 0.08112 0.0
H836 H 0.52145 0.97178 0.9814 0.0
C837 C 0.54338 0.05608 0.03667 0.0
H838 H 0.51713 0.98172 0.09206 0.0
C839 C 0.5459 0.05036 0.9729 0.0
C840 C 0.53837 1.02003 0.9514 0.0
H841 H 0.55006 0.07987 0.05121 0.0
H842 H 0.55452 0.07005 0.94076 0.0
C843 C 0.52795 0.99554 0.9958 0.0
C844 C 0.06087 0.54878 0.98264 0.0
C845 C 1.03382 0.54316 0.94812 0.0
H846 H 0.07929 0.54165 0.06799 0.0
C847 C 1.00355 0.52475 0.97591 0.0
H848 H 0.08461 0.56307 0.96357 0.0
C849 C 1.0005 0.51278 0.03686 0.0
C850 C 1.02765 0.51896 0.07169 0.0
H851 H 0.98215 0.51964 0.95065 0.0
H852 H 0.97689 0.49923 0.05703 0.0
C853 C 0.05782 0.53683 0.04336 0.0
C854 C 0.55368 0.51565 0.97206 0.0
C855 C 0.53099 0.52365 0.95101 0.0
H856 H 0.57919 0.51134 0.04978 0.0
C857 C 0.51733 0.53474 0.99571 0.0
H858 H 0.56448 0.50651 0.93984 0.0
C859 C 0.52578 0.53736 0.05932 0.0
C860 C 0.5482 0.52903 0.08029 0.0
H861 H 0.50017 0.54159 0.98177 0.0
H862 H 0.51483 0.54615 0.09202 0.0
C863 C 0.5622 0.51838 0.03557 0.0
C864 C 0.24114 0.1902 0.03759 0.0
C865 C 0.23606 0.20246 0.98193 0.0
H866 H 0.25702 0.16095 0.07992 0.0
C867 C 0.24036 0.19052 0.92418 0.0
H868 H 0.23811 0.19815 0.08315 0.0
C869 C 0.25143 0.16872 0.92246 0.0
C870 C 0.2584 0.15836 0.97842 0.0
H871 H 0.23618 0.19864 0.88003 0.0
H872 H 0.25622 0.16143 0.87752 0.0
C873 C 0.25209 0.1686 0.03578 0.0
C874 C 0.88123 0.08983 0.03819 0.0
C875 C 0.89668 0.10511 0.98219 0.0
H876 H 0.84851 0.04695 0.08377 0.0
C877 C 0.89234 0.08649 0.92861 0.0
H878 H 0.88412 0.10333 0.08063 0.0
C879 C 0.87164 0.0535 0.93051 0.0
C880 C 0.85493 0.03844 0.98608 0.0
H881 H 0.90382 0.0975 0.88472 0.0
H882 H 0.86826 0.03996 0.88804 0.0
C883 C 0.86076 0.05715 0.04015 0.0
C884 C 1.00355 0.81694 0.91141 0.0
C885 C 1.02086 0.82368 0.96829 0.0
H886 H 0.95754 0.79855 0.86743 0.0
C887 C 1.00437 0.82116 0.0245 0.0
H888 H 1.01523 0.81921 0.86678 0.0
C889 C 0.97148 0.8097 0.02445 0.0
C890 C 0.95384 0.80058 0.96832 0.0
H891 H 1.01628 0.82622 0.06934 0.0
H892 H 0.95948 0.80637 0.06921 0.0
C893 C 0.97041 0.80551 0.91144 0.0
C894 C 0.82409 0.87262 0.10551 0.0
C895 C 0.81086 0.87722 0.05073 0.0
H896 H 0.84633 0.84875 0.14822 0.0
C897 C 0.81255 0.86254 0.99487 0.0
H898 H 0.82319 0.88353 0.1493 0.0
C899 C 0.82556 0.8426 0.99413 0.0
C900 C 0.83735 0.83651 0.04934 0.0
H901 H 0.80282 0.86564 0.95153 0.0
H902 H 0.82488 0.83081 0.95055 0.0
C903 C 0.83712 0.85243 0.10485 0.0
C904 C 0.20365 0.98536 0.09983 0.0
C905 C 0.22002 1.00109 0.04434 0.0
H906 H 0.17113 0.94094 0.14408 0.0
C907 C 0.21299 0.98305 0.98895 0.0
H908 H 0.20782 0.99828 0.1434 0.0
C909 C 0.19175 0.95041 0.98946 0.0
C910 C 0.17664 0.93443 0.04524 0.0
H911 H 0.22481 0.99372 0.94523 0.0
H912 H 0.18802 0.93745 0.94594 0.0
C913 C 0.1822 0.95243 0.10026 0.0
C914 C 0.1008 0.22807 1.0041 0.0
C915 C 0.11841 0.23754 0.06021 0.0
H916 H 0.05573 0.21038 0.95953 0.0
C917 C 0.1018 0.23217 0.11719 0.0
H918 H 0.11285 0.23169 0.95932 0.0
C919 C 0.06856 0.21999 0.11736 0.0
C920 C 0.05122 0.2128 0.06057 0.0
H921 H 0.11467 0.23929 0.16119 0.0
H922 H 0.05672 0.21751 0.16191 0.0
C923 C 0.06777 0.21571 1.00426 0.0
C924 C 0.90439 0.51684 0.24446 0.0
C925 C 0.90717 0.53473 0.29875 0.0
H926 H 0.91538 0.48346 0.2004 0.0
C927 C 0.92153 0.53056 0.35218 0.0
H928 H 0.89331 0.51941 0.20259 0.0
C929 C 0.93374 0.51007 0.35105 0.0
C930 C 0.93211 0.49298 0.29647 0.0
H931 H 0.92323 0.54303 0.39544 0.0
H932 H 0.94493 0.508 0.39331 0.0
C933 C 0.91685 0.49616 0.24325 0.0
C934 C 0.56353 0.42351 0.36222 0.0
C935 C 0.56997 0.44145 0.30712 0.0
H936 H 0.53776 0.37838 0.40598 0.0
C937 C 0.55609 0.42568 0.25072 0.0
H938 H 0.57396 0.43502 0.40647 0.0
C939 C 0.5344 0.3929 0.25055 0.0
C940 C 0.52631 0.37514 0.30674 0.0
H941 H 0.56021 0.43895 0.20771 0.0
H942 H 0.52278 0.38197 0.20683 0.0
C943 C 0.54232 0.39088 0.362 0.0
C944 C 0.63598 0.13906 0.24781 0.0
C945 C 0.62155 0.13928 0.30497 0.0
H946 H 0.67825 0.14594 0.20132 0.0
C947 C 0.64081 0.15095 0.35868 0.0
H948 H 0.62167 0.12971 0.20583 0.0
C949 C 0.67327 0.16042 0.35645 0.0
C950 C 0.68755 0.15801 0.30048 0.0
H951 H 0.63036 0.15144 0.40351 0.0
H952 H 0.68669 0.16849 0.39955 0.0
C953 C 0.66856 0.1482 0.2456 0.0
C954 C 0.49926 0.18916 0.33367 0.0
C955 C 0.50926 0.18203 0.39008 0.0
H956 H 0.47734 0.21252 0.28904 0.0
C957 C 0.50738 0.19706 0.44564 0.0
H958 H 0.4999 0.17819 0.2899 0.0
C959 C 0.49408 0.21703 0.44513 0.0
C960 C 0.48225 0.22227 0.3891 0.0
H961 H 0.51522 0.1926 0.48996 0.0
H962 H 0.49149 0.2269 0.48894 0.0
C963 C 0.48599 0.20886 0.33328 0.0
C964 C 0.84839 0.28192 0.42317 0.0
C965 C 0.84393 0.26327 0.36961 0.0
H966 H 0.87248 0.32848 0.46352 0.0
C967 C 0.85919 0.2785 0.31346 0.0
H968 H 0.83705 0.27093 0.46717 0.0
C969 C 0.87965 0.31116 0.3113 0.0
C970 C 0.88563 0.32995 0.36531 0.0
H971 H 0.85619 0.26498 0.271 0.0
H972 H 0.89173 0.32126 0.26748 0.0
C973 C 0.86905 0.31492 0.42106 0.0
C974 C 0.74004 0.56373 0.33653 0.0
C975 C 0.72193 0.55191 0.39171 0.0
H976 H 0.78621 0.58694 0.29425 0.0
C977 C 0.73793 0.5519 0.44713 0.0
H978 H 0.72907 0.5646 0.29304 0.0
C979 C 0.77133 0.56501 0.44781 0.0
C980 C 0.78932 0.5786 0.39322 0.0
H981 H 0.72478 0.5427 0.49044 0.0
H982 H 0.78315 0.56605 0.49155 0.0
C983 C 0.7731 0.57688 0.33738 0.0
C984 C 0.60125 0.84418 0.70827 0.0
C985 C 0.60076 0.82845 0.65229 0.0
H986 H 0.5926 0.87816 0.75377 0.0
C987 C 0.58764 0.83399 0.59844 0.0
H988 H 0.61098 0.84044 0.75097 0.0
C989 C 0.57671 0.85592 0.60017 0.0
C990 C 0.57861 0.87278 0.65581 0.0
H991 H 0.58695 0.82237 0.55455 0.0
H992 H 0.56729 0.85999 0.55751 0.0
C993 C 0.59043 0.86591 0.71005 0.0
C994 C 0.23045 0.76745 0.70685 0.0
C995 C 0.23979 0.78374 0.64948 0.0
H996 H 0.20175 0.72357 0.75383 0.0
C997 C 0.2283 0.76657 0.59339 0.0
H998 H 0.23911 0.78004 0.75091 0.0
C999 C 0.2062 0.73397 0.59512 0.0
C1000 C 0.19537 0.71804 0.65298 0.0
H1001 H 0.2348 0.7786 0.54857 0.0
H1002 H 0.19649 0.72168 0.55128 0.0
C1003 C 0.20869 0.73507 0.70859 0.0
C1004 C 0.29474 0.47556 0.7067 0.0
C1005 C 0.27799 0.46894 0.64964 0.0
H1006 H 0.33833 0.48864 0.75362 0.0
C1007 C 0.29514 0.47383 0.59353 0.0
H1008 H 0.28233 0.47213 0.75099 0.0
C1009 C 0.32784 0.48323 0.59491 0.0
C1010 C 0.34425 0.48796 0.6525 0.0
H1011 H 0.28295 0.46862 0.54881 0.0
H1012 H 0.33975 0.48565 0.55055 0.0
C1013 C 0.32719 0.48494 0.70819 0.0
C1014 C 0.12119 0.52324 0.64599 0.0
C1015 C 0.1216 0.54184 0.69723 0.0
H1016 H 0.13357 0.4898 0.60986 0.0
C1017 C 0.13687 0.54103 0.75268 0.0
H1018 H 0.10973 0.52309 0.60235 0.0
C1019 C 0.15093 0.52181 0.75681 0.0
C1020 C 0.15023 0.503 0.70553 0.0
H1021 H 0.13783 0.55508 0.793 0.0
H1022 H 0.16236 0.52172 0.80028 0.0
C1023 C 0.13526 0.50422 0.65002 0.0
C1024 C 0.51298 0.61796 0.77776 0.0
C1025 C 0.50553 0.59973 0.72264 0.0
H1026 H 0.54083 0.66377 0.81987 0.0
C1027 C 0.51942 0.61527 0.66584 0.0
H1028 H 0.50285 0.60675 0.82231 0.0
C1029 C 0.5414 0.64766 0.66426 0.0
C1030 C 0.5504 0.66591 0.71956 0.0
H1031 H 0.51414 0.6021 0.62222 0.0
H1032 H 0.55218 0.65788 0.61958 0.0
C1033 C 0.53517 0.65068 0.77624 0.0
C1034 C 0.41147 0.89904 0.77654 0.0
C1035 C 0.39611 0.89758 0.71919 0.0
H1036 H 0.45573 0.91164 0.82329 0.0
C1037 C 0.41422 0.90478 0.66368 0.0
H1038 H 0.39841 0.89314 0.82036 0.0
C1039 C 0.44675 0.91483 0.66557 0.0
C1040 C 0.46247 0.91815 0.7229 0.0
H1041 H 0.40384 0.90413 0.61852 0.0
H1042 H 0.45994 0.92131 0.62175 0.0
C1043 C 0.44432 0.90923 0.77837 0.0
loop_
_geom_bond_atom_site_label_1
_geom_bond_atom_site_label_2
_geom_bond_distance
_geom_bond_site_symmetry_2
_ccdc_geom_bond_type
C0 C1 1.351 1_554 S
C0 N3 1.368 . S
C0 H5 0.931 1_554 S
C1 C0 1.351 1_556 S
C1 N2 1.373 1_556 S
C1 H29 0.930 . S
N2 C1 1.373 1_554 S
N2 C4 1.340 . S
N3 C0 1.368 . S
N3 C4 1.321 . S
N3 Co6 2.135 . S
C4 N2 1.340 . S
C4 N3 1.321 . S
C4 H28 0.930 . S
H5 C0 0.931 1_556 S
Co6 N3 2.135 . S
Co6 N9 2.121 . S
Co6 O14 2.055 . S
Co6 O17 2.039 . S
Co6 N20 2.140 . S
C7 O8 1.227 . S
C7 O17 1.265 . S
O8 C7 1.227 . S
N9 Co6 2.121 . S
N9 C11 1.375 . S
N9 C12 1.313 . S
C10 C11 1.338 . S
C10 N13 1.377 . S
C10 H30 0.930 . S
C11 N9 1.375 . S
C11 C10 1.338 . S
C11 H15 0.931 . S
C12 N9 1.313 . S
C12 N13 1.344 . S
C12 H16 0.930 . S
N13 C10 1.377 . S
N13 C12 1.344 . S
O14 Co6 2.055 . S
O14 C18 1.253 . S
H15 C11 0.931 . S
H16 C12 0.930 . S
O17 Co6 2.039 . S
O17 C7 1.265 . S
C18 O14 1.253 . S
C18 O19 1.227 . S
O19 C18 1.227 . S
N20 Co6 2.140 . S
N20 C23 1.346 . S
N20 C24 1.345 . S
C21 C22 1.387 . S
C21 C25 1.391 1_556 S
C22 C21 1.387 . S
C22 C23 1.369 1_556 S
C22 H31 0.929 . S
C23 N20 1.346 . S
C23 C22 1.369 1_554 S
C23 H26 0.928 . S
C24 N20 1.345 . S
C24 C25 1.371 . S
C24 H27 0.931 . S
C25 C21 1.391 1_554 S
C25 C24 1.371 . S
C25 H32 0.930 1_554 S
H26 C23 0.928 . S
H27 C24 0.931 . S
H28 C4 0.930 . S
H29 C1 0.930 . S
H30 C10 0.930 . S
H31 C22 0.929 . S
H32 C25 0.930 1_556 S
C33 C34 1.371 1_554 S
C33 N36 1.368 . S
C33 H38 0.931 1_554 S
C34 C33 1.371 1_556 S
C34 N35 1.348 1_566 S
C34 H62 0.941 1_565 S
N35 C34 1.348 1_544 S
N35 C37 1.340 . S
N36 C33 1.368 . S
N36 C37 1.321 1_565 S
N36 Co39 2.135 . S
C37 N35 1.340 . S
C37 N36 1.321 1_545 S
C37 H61 0.930 . S
H38 C33 0.931 1_556 S
Co39 N36 2.135 . S
Co39 N42 2.121 . S
Co39 O47 2.055 . S
Co39 O50 2.039 . S
Co39 N53 2.140 . S
C40 O41 1.227 . S
C40 O50 1.265 . S
O41 C40 1.227 . S
N42 Co39 2.121 . S
N42 C44 1.375 . S
N42 C45 1.313 . S
C43 C44 1.338 . S
C43 N46 1.377 . S
C43 H63 0.930 . S
C44 N42 1.375 . S
C44 C43 1.338 . S
C44 H48 0.931 . S
C45 N42 1.313 . S
C45 N46 1.344 . S
C45 H49 0.930 . S
N46 C43 1.377 . S
N46 C45 1.344 . S
O47 Co39 2.055 . S
O47 C51 1.253 . S
H48 C44 0.931 . S
H49 C45 0.930 . S
O50 Co39 2.039 . S
O50 C40 1.265 . S
C51 O47 1.253 . S
C51 O52 1.227 . S
O52 C51 1.227 . S
N53 Co39 2.140 . S
N53 C56 1.346 . S
N53 C57 1.345 . S
C54 C55 1.387 . S
C54 C58 1.391 1_556 S
C55 C54 1.387 . S
C55 C56 1.369 1_556 S
C55 H64 0.929 . S
C56 N53 1.346 . S
C56 C55 1.369 1_554 S
C56 H59 0.928 . S
C57 N53 1.345 . S
C57 C58 1.371 . S
C57 H60 0.931 . S
C58 C54 1.391 1_554 S
C58 C57 1.371 . S
C58 H65 0.930 1_554 S
H59 C56 0.928 . S
H60 C57 0.931 . S
H61 C37 0.930 . S
H62 C34 0.941 1_545 S
H63 C43 0.930 . S
H64 C55 0.929 . S
H65 C58 0.930 1_556 S
C66 C67 1.376 1_554 S
C66 N69 1.368 . S
C66 H71 0.931 1_554 S
C67 C66 1.376 1_556 S
C67 N68 1.358 1_456 S
C67 H95 0.915 1_455 S
N68 C67 1.358 1_654 S
N68 C70 1.340 . S
N69 C66 1.368 . S
N69 C70 1.321 1_455 S
N69 Co72 2.135 . S
C70 N68 1.340 . S
C70 N69 1.321 1_655 S
C70 H94 0.930 . S
H71 C66 0.931 1_556 S
Co72 N69 2.135 . S
Co72 N75 2.121 . S
Co72 O80 2.055 . S
Co72 O83 2.039 . S
Co72 N86 2.140 . S
C73 O74 1.227 . S
C73 O83 1.265 . S
O74 C73 1.227 . S
N75 Co72 2.121 . S
N75 C77 1.375 . S
N75 C78 1.313 . S
C76 C77 1.338 . S
C76 N79 1.377 . S
C76 H96 0.930 . S
C77 N75 1.375 . S
C77 C76 1.338 . S
C77 H81 0.931 . S
C78 N75 1.313 . S
C78 N79 1.344 . S
C78 H82 0.930 . S
N79 C76 1.377 . S
N79 C78 1.344 . S
O80 Co72 2.055 . S
O80 C84 1.253 . S
H81 C77 0.931 . S
H82 C78 0.930 . S
O83 Co72 2.039 . S
O83 C73 1.265 . S
C84 O80 1.253 . S
C84 O85 1.227 . S
O85 C84 1.227 . S
N86 Co72 2.140 . S
N86 C89 1.346 . S
N86 C90 1.345 . S
C87 C88 1.387 . S
C87 C91 1.391 1_556 S
C88 C87 1.387 . S
C88 C89 1.369 1_556 S
C88 H97 0.929 . S
C89 N86 1.346 . S
C89 C88 1.369 1_554 S
C89 H92 0.928 . S
C90 N86 1.345 . S
C90 C91 1.371 . S
C90 H93 0.931 . S
C91 C87 1.391 1_554 S
C91 C90 1.371 . S
C91 H98 0.930 1_554 S
H92 C89 0.928 . S
H93 C90 0.931 . S
H94 C70 0.930 . S
H95 C67 0.915 1_655 S
H96 C76 0.930 . S
H97 C88 0.929 . S
H98 C91 0.930 1_556 S
C99 C100 1.351 1_556 S
C99 N102 1.368 . S
C99 H104 0.931 1_556 S
C100 C99 1.351 1_554 S
C100 N101 1.373 1_554 S
C100 H128 0.930 . S
N101 C100 1.373 1_556 S
N101 C103 1.340 . S
N102 C99 1.368 . S
N102 C103 1.321 . S
N102 Co105 2.135 . S
C103 N101 1.340 . S
C103 N102 1.321 . S
C103 H127 0.930 . S
H104 C99 0.931 1_554 S
Co105 N102 2.135 . S
Co105 N108 2.121 . S
Co105 O113 2.055 . S
Co105 O116 2.039 . S
Co105 N119 2.140 . S
C106 O107 1.227 . S
C106 O116 1.265 . S
O107 C106 1.227 . S
N108 Co105 2.121 . S
N108 C110 1.375 . S
N108 C111 1.313 . S
C109 C110 1.338 . S
C109 N112 1.377 . S
C109 H129 0.930 . S
C110 N108 1.375 . S
C110 C109 1.338 . S
C110 H114 0.931 . S
C111 N108 1.313 . S
C111 N112 1.344 . S
C111 H115 0.930 . S
N112 C109 1.377 . S
N112 C111 1.344 . S
O113 Co105 2.055 . S
O113 C117 1.253 . S
H114 C110 0.931 . S
H115 C111 0.930 . S
O116 Co105 2.039 . S
O116 C106 1.265 . S
C117 O113 1.253 . S
C117 O118 1.227 . S
O118 C117 1.227 . S
N119 Co105 2.140 . S
N119 C122 1.346 . S
N119 C123 1.345 . S
C120 C121 1.387 . S
C120 C124 1.391 1_554 S
C121 C120 1.387 . S
C121 C122 1.369 1_554 S
C121 H130 0.929 . S
C122 N119 1.346 . S
C122 C121 1.369 1_556 S
C122 H125 0.928 . S
C123 N119 1.345 . S
C123 C124 1.371 . S
C123 H126 0.931 . S
C124 C120 1.391 1_556 S
C124 C123 1.371 . S
C124 H131 0.930 1_556 S
H125 C122 0.928 . S
H126 C123 0.931 . S
H127 C103 0.930 . S
H128 C100 0.930 . S
H129 C109 0.930 . S
H130 C121 0.929 . S
H131 C124 0.930 1_554 S
C132 C133 1.371 1_556 S
C132 N135 1.368 . S
C132 H137 0.931 1_556 S
C133 C132 1.371 1_554 S
C133 N134 1.348 1_544 S
C133 H161 0.941 1_545 S
N134 C133 1.348 1_566 S
N134 C136 1.340 . S
N135 C132 1.368 . S
N135 C136 1.321 1_545 S
N135 Co138 2.135 . S
C136 N134 1.340 . S
C136 N135 1.321 1_565 S
C136 H160 0.930 . S
H137 C132 0.931 1_554 S
Co138 N135 2.135 . S
Co138 N141 2.121 . S
Co138 O146 2.055 . S
Co138 O149 2.039 . S
Co138 N152 2.140 . S
C139 O140 1.227 . S
C139 O149 1.265 . S
O140 C139 1.227 . S
N141 Co138 2.121 . S
N141 C143 1.375 . S
N141 C144 1.313 . S
C142 C143 1.338 . S
C142 N145 1.377 . S
C142 H162 0.930 . S
C143 N141 1.375 . S
C143 C142 1.338 . S
C143 H147 0.931 . S
C144 N141 1.313 . S
C144 N145 1.344 . S
C144 H148 0.930 . S
N145 C142 1.377 . S
N145 C144 1.344 . S
O146 Co138 2.055 . S
O146 C150 1.253 . S
H147 C143 0.931 . S
H148 C144 0.930 . S
O149 Co138 2.039 . S
O149 C139 1.265 . S
C150 O146 1.253 . S
C150 O151 1.227 . S
O151 C150 1.227 . S
N152 Co138 2.140 . S
N152 C155 1.346 . S
N152 C156 1.345 . S
C153 C154 1.387 . S
C153 C157 1.391 1_554 S
C154 C153 1.387 . S
C154 C155 1.369 1_554 S
C154 H163 0.929 . S
C155 N152 1.346 . S
C155 C154 1.369 1_556 S
C155 H158 0.928 . S
C156 N152 1.345 . S
C156 C157 1.371 . S
C156 H159 0.931 . S
C157 C153 1.391 1_556 S
C157 C156 1.371 . S
C157 H164 0.930 1_556 S
H158 C155 0.928 . S
H159 C156 0.931 . S
H160 C136 0.930 . S
H161 C133 0.941 1_565 S
H162 C142 0.930 . S
H163 C154 0.929 . S
H164 C157 0.930 1_554 S
C165 C166 1.376 1_556 S
C165 N168 1.368 . S
C165 H170 0.931 1_556 S
C166 C165 1.376 1_554 S
C166 N167 1.358 1_654 S
C166 H194 0.915 1_655 S
N167 C166 1.358 1_456 S
N167 C169 1.340 . S
N168 C165 1.368 . S
N168 C169 1.321 1_655 S
N168 Co171 2.135 . S
C169 N167 1.340 . S
C169 N168 1.321 1_455 S
C169 H193 0.930 . S
H170 C165 0.931 1_554 S
Co171 N168 2.135 . S
Co171 N174 2.121 . S
Co171 O179 2.055 . S
Co171 O182 2.039 . S
Co171 N185 2.140 . S
C172 O173 1.227 . S
C172 O182 1.265 . S
O173 C172 1.227 . S
N174 Co171 2.121 . S
N174 C176 1.375 . S
N174 C177 1.313 . S
C175 C176 1.338 . S
C175 N178 1.377 . S
C175 H195 0.930 . S
C176 N174 1.375 . S
C176 C175 1.338 . S
C176 H180 0.931 . S
C177 N174 1.313 . S
C177 N178 1.344 . S
C177 H181 0.930 . S
N178 C175 1.377 . S
N178 C177 1.344 . S
O179 Co171 2.055 . S
O179 C183 1.253 . S
H180 C176 0.931 . S
H181 C177 0.930 . S
O182 Co171 2.039 . S
O182 C172 1.265 . S
C183 O179 1.253 . S
C183 O184 1.227 . S
O184 C183 1.227 . S
N185 Co171 2.140 . S
N185 C188 1.346 . S
N185 C189 1.345 . S
C186 C187 1.387 . S
C186 C190 1.391 1_554 S
C187 C186 1.387 . S
C187 C188 1.369 1_554 S
C187 H196 0.929 . S
C188 N185 1.346 . S
C188 C187 1.369 1_556 S
C188 H191 0.928 . S
C189 N185 1.345 . S
C189 C190 1.371 . S
C189 H192 0.931 . S
C190 C186 1.391 1_556 S
C190 C189 1.371 . S
C190 H197 0.930 1_556 S
H191 C188 0.928 . S
H192 C189 0.931 . S
H193 C169 0.930 . S
H194 C166 0.915 1_455 S
H195 C175 0.930 . S
H196 C187 0.929 . S
H197 C190 0.930 1_554 S
C198 C199 1.351 . S
C198 N201 1.368 . S
C198 H203 0.931 . S
C199 C198 1.351 . S
C199 N200 1.373 . S
C199 H227 0.930 . S
N200 C199 1.373 . S
N200 C202 1.340 . S
N201 C198 1.368 . S
N201 C202 1.321 . S
N201 Co204 2.135 . S
C202 N200 1.340 . S
C202 N201 1.321 . S
C202 H226 0.930 . S
H203 C198 0.931 . S
Co204 N201 2.135 . S
Co204 N207 2.121 . S
Co204 O212 2.055 . S
Co204 O215 2.039 . S
Co204 N218 2.140 . S
C205 O206 1.227 . S
C205 O215 1.265 . S
O206 C205 1.227 . S
N207 Co204 2.121 . S
N207 C209 1.375 . S
N207 C210 1.313 . S
C208 C209 1.338 . S
C208 N211 1.377 . S
C208 H228 0.930 . S
C209 N207 1.375 . S
C209 C208 1.338 . S
C209 H213 0.931 . S
C210 N207 1.313 . S
C210 N211 1.344 . S
C210 H214 0.930 . S
N211 C208 1.377 . S
N211 C210 1.344 . S
O212 Co204 2.055 . S
O212 C216 1.253 . S
H213 C209 0.931 . S
H214 C210 0.930 . S
O215 Co204 2.039 . S
O215 C205 1.265 . S
C216 O212 1.253 . S
C216 O217 1.227 . S
O217 C216 1.227 . S
N218 Co204 2.140 . S
N218 C221 1.346 . S
N218 C222 1.345 . S
C219 C220 1.387 . S
C219 C223 1.391 . S
C220 C219 1.387 . S
C220 C221 1.369 . S
C220 H229 0.929 . S
C221 N218 1.346 . S
C221 C220 1.369 . S
C221 H224 0.928 . S
C222 N218 1.345 . S
C222 C223 1.371 . S
C222 H225 0.931 . S
C223 C219 1.391 . S
C223 C222 1.371 . S
C223 H230 0.930 . S
H224 C221 0.928 . S
H225 C222 0.931 . S
H226 C202 0.930 . S
H227 C199 0.930 . S
H228 C208 0.930 . S
H229 C220 0.929 . S
H230 C223 0.930 . S
C231 C232 1.351 . S
C231 N234 1.368 . S
C231 H236 0.931 . S
C232 C231 1.351 . S
C232 N233 1.373 . S
C232 H260 0.930 . S
N233 C232 1.373 . S
N233 C235 1.340 . S
N234 C231 1.368 . S
N234 C235 1.321 . S
N234 Co237 2.135 . S
C235 N233 1.340 . S
C235 N234 1.321 . S
C235 H259 0.930 . S
H236 C231 0.931 . S
Co237 N234 2.135 . S
Co237 N240 2.121 . S
Co237 O245 2.055 . S
Co237 O248 2.039 . S
Co237 N251 2.140 . S
C238 O239 1.227 . S
C238 O248 1.265 . S
O239 C238 1.227 . S
N240 Co237 2.121 . S
N240 C242 1.375 . S
N240 C243 1.313 . S
C241 C242 1.338 . S
C241 N244 1.377 . S
C241 H261 0.930 . S
C242 N240 1.375 . S
C242 C241 1.338 . S
C242 H246 0.931 . S
C243 N240 1.313 . S
C243 N244 1.344 . S
C243 H247 0.930 . S
N244 C241 1.377 . S
N244 C243 1.344 . S
O245 Co237 2.055 . S
O245 C249 1.253 . S
H246 C242 0.931 . S
H247 C243 0.930 . S
O248 Co237 2.039 . S
O248 C238 1.265 . S
C249 O245 1.253 . S
C249 O250 1.227 . S
O250 C249 1.227 . S
N251 Co237 2.140 . S
N251 C254 1.346 . S
N251 C255 1.345 . S
C252 C253 1.387 . S
C252 C256 1.391 . S
C253 C252 1.387 . S
C253 C254 1.369 . S
C253 H262 0.929 . S
C254 N251 1.346 . S
C254 C253 1.369 . S
C254 H257 0.928 . S
C255 N251 1.345 . S
C255 C256 1.371 . S
C255 H258 0.931 . S
C256 C252 1.391 . S
C256 C255 1.371 . S
C256 H263 0.930 . S
H257 C254 0.928 . S
H258 C255 0.931 . S
H259 C235 0.930 . S
H260 C232 0.930 . S
H261 C241 0.930 . S
H262 C253 0.929 . S
H263 C256 0.930 . S
C264 C265 1.351 . S
C264 N267 1.368 . S
C264 H269 0.931 . S
C265 C264 1.351 . S
C265 N266 1.373 . S
C265 H293 0.930 . S
N266 C265 1.373 . S
N266 C268 1.340 . S
N267 C264 1.368 . S
N267 C268 1.321 . S
N267 Co270 2.135 . S
C268 N266 1.340 . S
C268 N267 1.321 . S
C268 H292 0.930 . S
H269 C264 0.931 . S
Co270 N267 2.135 . S
Co270 N273 2.121 . S
Co270 O278 2.055 . S
Co270 O281 2.039 . S
Co270 N284 2.140 . S
C271 O272 1.227 . S
C271 O281 1.265 . S
O272 C271 1.227 . S
N273 Co270 2.121 . S
N273 C275 1.375 . S
N273 C276 1.313 . S
C274 C275 1.338 . S
C274 N277 1.377 . S
C274 H294 0.930 . S
C275 N273 1.375 . S
C275 C274 1.338 . S
C275 H279 0.931 . S
C276 N273 1.313 . S
C276 N277 1.344 . S
C276 H280 0.930 . S
N277 C274 1.377 . S
N277 C276 1.344 . S
O278 Co270 2.055 . S
O278 C282 1.253 . S
H279 C275 0.931 . S
H280 C276 0.930 . S
O281 Co270 2.039 . S
O281 C271 1.265 . S
C282 O278 1.253 . S
C282 O283 1.227 . S
O283 C282 1.227 . S
N284 Co270 2.140 . S
N284 C287 1.346 . S
N284 C288 1.345 . S
C285 C286 1.387 . S
C285 C289 1.391 . S
C286 C285 1.387 . S
C286 C287 1.369 . S
C286 H295 0.929 . S
C287 N284 1.346 . S
C287 C286 1.369 . S
C287 H290 0.928 . S
C288 N284 1.345 . S
C288 C289 1.371 . S
C288 H291 0.931 . S
C289 C285 1.391 . S
C289 C288 1.371 . S
C289 H296 0.930 . S
H290 C287 0.928 . S
H291 C288 0.931 . S
H292 C268 0.930 . S
H293 C265 0.930 . S
H294 C274 0.930 . S
H295 C286 0.929 . S
H296 C289 0.930 . S
C297 C298 1.351 . S
C297 N300 1.368 . S
C297 H302 0.931 . S
C298 C297 1.351 . S
C298 N299 1.373 . S
C298 H326 0.930 . S
N299 C298 1.373 . S
N299 C301 1.340 . S
N300 C297 1.368 . S
N300 C301 1.321 . S
N300 Co303 2.135 . S
C301 N299 1.340 . S
C301 N300 1.321 . S
C301 H325 0.930 . S
H302 C297 0.931 . S
Co303 N300 2.135 . S
Co303 N306 2.121 . S
Co303 O311 2.055 . S
Co303 O314 2.039 . S
Co303 N317 2.140 . S
C304 O305 1.227 . S
C304 O314 1.265 . S
O305 C304 1.227 . S
N306 Co303 2.121 . S
N306 C308 1.375 . S
N306 C309 1.313 . S
C307 C308 1.338 . S
C307 N310 1.377 . S
C307 H327 0.930 1_545 S
C308 N306 1.375 . S
C308 C307 1.338 . S
C308 H312 0.931 . S
C309 N306 1.313 . S
C309 N310 1.344 . S
C309 H313 0.930 . S
N310 C307 1.377 . S
N310 C309 1.344 . S
O311 Co303 2.055 . S
O311 C315 1.253 . S
H312 C308 0.931 . S
H313 C309 0.930 . S
O314 Co303 2.039 . S
O314 C304 1.265 . S
C315 O311 1.253 . S
C315 O316 1.227 . S
O316 C315 1.227 . S
N317 Co303 2.140 . S
N317 C320 1.346 . S
N317 C321 1.345 . S
C318 C319 1.387 . S
C318 C322 1.391 . S
C319 C318 1.387 . S
C319 C320 1.369 . S
C319 H328 0.929 . S
C320 N317 1.346 . S
C320 C319 1.369 . S
C320 H323 0.928 . S
C321 N317 1.345 . S
C321 C322 1.371 . S
C321 H324 0.931 . S
C322 C318 1.391 . S
C322 C321 1.371 . S
C322 H329 0.930 1_545 S
H323 C320 0.928 . S
H324 C321 0.931 . S
H325 C301 0.930 . S
H326 C298 0.930 . S
H327 C307 0.930 1_565 S
H328 C319 0.929 . S
H329 C322 0.930 1_565 S
C330 C331 1.351 . S
C330 N333 1.368 . S
C330 H335 0.931 . S
C331 C330 1.351 . S
C331 N332 1.373 . S
C331 H359 0.930 . S
N332 C331 1.373 . S
N332 C334 1.340 . S
N333 C330 1.368 . S
N333 C334 1.321 . S
N333 Co336 2.135 . S
C334 N332 1.340 . S
C334 N333 1.321 . S
C334 H358 0.930 . S
H335 C330 0.931 . S
Co336 N333 2.135 . S
Co336 N339 2.121 . S
Co336 O344 2.055 . S
Co336 O347 2.039 . S
Co336 N350 2.140 . S
C337 O338 1.227 . S
C337 O347 1.265 . S
O338 C337 1.227 . S
N339 Co336 2.121 . S
N339 C341 1.375 . S
N339 C342 1.313 . S
C340 C341 1.338 . S
C340 N343 1.377 . S
C340 H360 0.930 1_655 S
C341 N339 1.375 . S
C341 C340 1.338 . S
C341 H345 0.931 . S
C342 N339 1.313 . S
C342 N343 1.344 . S
C342 H346 0.930 . S
N343 C340 1.377 . S
N343 C342 1.344 . S
O344 Co336 2.055 . S
O344 C348 1.253 . S
H345 C341 0.931 . S
H346 C342 0.930 . S
O347 Co336 2.039 . S
O347 C337 1.265 . S
C348 O344 1.253 . S
C348 O349 1.227 . S
O349 C348 1.227 . S
N350 Co336 2.140 . S
N350 C353 1.346 . S
N350 C354 1.345 . S
C351 C352 1.387 . S
C351 C355 1.391 . S
C352 C351 1.387 . S
C352 C353 1.369 . S
C352 H361 0.929 . S
C353 N350 1.346 . S
C353 C352 1.369 . S
C353 H356 0.928 . S
C354 N350 1.345 . S
C354 C355 1.371 . S
C354 H357 0.931 . S
C355 C351 1.391 . S
C355 C354 1.371 . S
C355 H362 0.930 1_655 S
H356 C353 0.928 . S
H357 C354 0.931 . S
H358 C334 0.930 . S
H359 C331 0.930 . S
H360 C340 0.930 1_455 S
H361 C352 0.929 . S
H362 C355 0.930 1_455 S
C363 C364 1.351 . S
C363 N366 1.368 . S
C363 H368 0.931 . S
C364 C363 1.351 . S
C364 N365 1.373 . S
C364 H392 0.930 . S
N365 C364 1.373 . S
N365 C367 1.340 . S
N366 C363 1.368 . S
N366 C367 1.321 . S
N366 Co369 2.135 . S
C367 N365 1.340 . S
C367 N366 1.321 . S
C367 H391 0.930 . S
H368 C363 0.931 . S
Co369 N366 2.135 . S
Co369 N372 2.121 . S
Co369 O377 2.055 . S
Co369 O380 2.039 . S
Co369 N383 2.140 . S
C370 O371 1.227 . S
C370 O380 1.265 . S
O371 C370 1.227 . S
N372 Co369 2.121 . S
N372 C374 1.375 . S
N372 C375 1.313 . S
C373 C374 1.338 . S
C373 N376 1.377 . S
C373 H393 0.930 . S
C374 N372 1.375 . S
C374 C373 1.338 . S
C374 H378 0.931 . S
C375 N372 1.313 . S
C375 N376 1.344 . S
C375 H379 0.930 . S
N376 C373 1.377 . S
N376 C375 1.344 . S
O377 Co369 2.055 . S
O377 C381 1.253 . S
H378 C374 0.931 . S
H379 C375 0.930 . S
O380 Co369 2.039 . S
O380 C370 1.265 . S
C381 O377 1.253 . S
C381 O382 1.227 . S
O382 C381 1.227 . S
N383 Co369 2.140 . S
N383 C386 1.346 . S
N383 C387 1.345 . S
C384 C385 1.387 . S
C384 C388 1.391 . S
C385 C384 1.387 . S
C385 C386 1.369 . S
C385 H394 0.929 . S
C386 N383 1.346 . S
C386 C385 1.369 . S
C386 H389 0.928 . S
C387 N383 1.345 . S
C387 C388 1.371 . S
C387 H390 0.931 . S
C388 C384 1.391 . S
C388 C387 1.371 . S
C388 H395 0.930 . S
H389 C386 0.928 . S
H390 C387 0.931 . S
H391 C367 0.930 . S
H392 C364 0.930 . S
H393 C373 0.930 . S
H394 C385 0.929 . S
H395 C388 0.930 . S
C396 C397 1.351 . S
C396 N399 1.368 . S
C396 H401 0.931 . S
C397 C396 1.351 . S
C397 N398 1.373 . S
C397 H425 0.930 . S
N398 C397 1.373 . S
N398 C400 1.340 . S
N399 C396 1.368 . S
N399 C400 1.321 . S
N399 Co402 2.135 . S
C400 N398 1.340 . S
C400 N399 1.321 . S
C400 H424 0.930 . S
H401 C396 0.931 . S
Co402 N399 2.135 . S
Co402 N405 2.121 . S
Co402 O410 2.055 . S
Co402 O413 2.039 . S
Co402 N416 2.140 . S
C403 O404 1.227 . S
C403 O413 1.265 . S
O404 C403 1.227 . S
N405 Co402 2.121 . S
N405 C407 1.375 . S
N405 C408 1.313 . S
C406 C407 1.338 . S
C406 N409 1.377 . S
C406 H426 0.930 1_565 S
C407 N405 1.375 . S
C407 C406 1.338 . S
C407 H411 0.931 . S
C408 N405 1.313 . S
C408 N409 1.344 . S
C408 H412 0.930 . S
N409 C406 1.377 . S
N409 C408 1.344 . S
O410 Co402 2.055 . S
O410 C414 1.253 . S
H411 C407 0.931 . S
H412 C408 0.930 . S
O413 Co402 2.039 . S
O413 C403 1.265 . S
C414 O410 1.253 . S
C414 O415 1.227 . S
O415 C414 1.227 . S
N416 Co402 2.140 . S
N416 C419 1.346 . S
N416 C420 1.345 . S
C417 C418 1.387 . S
C417 C421 1.391 . S
C418 C417 1.387 . S
C418 C419 1.369 . S
C418 H427 0.929 . S
C419 N416 1.346 . S
C419 C418 1.369 . S
C419 H422 0.928 . S
C420 N416 1.345 . S
C420 C421 1.371 . S
C420 H423 0.931 . S
C421 C417 1.391 . S
C421 C420 1.371 . S
C421 H428 0.930 1_565 S
H422 C419 0.928 . S
H423 C420 0.931 . S
H424 C400 0.930 . S
H425 C397 0.930 . S
H426 C406 0.930 1_545 S
H427 C418 0.929 . S
H428 C421 0.930 1_545 S
C429 C430 1.351 . S
C429 N432 1.368 . S
C429 H434 0.931 . S
C430 C429 1.351 . S
C430 N431 1.373 . S
C430 H458 0.930 . S
N431 C430 1.373 . S
N431 C433 1.340 . S
N432 C429 1.368 . S
N432 C433 1.321 . S
N432 Co435 2.135 . S
C433 N431 1.340 . S
C433 N432 1.321 . S
C433 H457 0.930 . S
H434 C429 0.931 . S
Co435 N432 2.135 . S
Co435 N438 2.121 . S
Co435 O443 2.055 . S
Co435 O446 2.039 . S
Co435 N449 2.140 . S
C436 O437 1.227 . S
C436 O446 1.265 . S
O437 C436 1.227 . S
N438 Co435 2.121 . S
N438 C440 1.375 . S
N438 C441 1.313 . S
C439 C440 1.338 . S
C439 N442 1.377 . S
C439 H459 0.930 1_455 S
C440 N438 1.375 . S
C440 C439 1.338 . S
C440 H444 0.931 . S
C441 N438 1.313 . S
C441 N442 1.344 . S
C441 H445 0.930 . S
N442 C439 1.377 . S
N442 C441 1.344 . S
O443 Co435 2.055 . S
O443 C447 1.253 . S
H444 C440 0.931 . S
H445 C441 0.930 . S
O446 Co435 2.039 . S
O446 C436 1.265 . S
C447 O443 1.253 . S
C447 O448 1.227 . S
O448 C447 1.227 . S
N449 Co435 2.140 . S
N449 C452 1.346 . S
N449 C453 1.345 . S
C450 C451 1.387 . S
C450 C454 1.391 . S
C451 C450 1.387 . S
C451 C452 1.369 . S
C451 H460 0.929 . S
C452 N449 1.346 . S
C452 C451 1.369 . S
C452 H455 0.928 . S
C453 N449 1.345 . S
C453 C454 1.371 . S
C453 H456 0.931 . S
C454 C450 1.391 . S
C454 C453 1.371 . S
C454 H461 0.930 1_455 S
H455 C452 0.928 . S
H456 C453 0.931 . S
H457 C433 0.930 . S
H458 C430 0.930 . S
H459 C439 0.930 1_655 S
H460 C451 0.929 . S
H461 C454 0.930 1_655 S
C462 C463 1.351 . S
C462 N465 1.368 . S
C462 H467 0.931 . S
C463 C462 1.351 . S
C463 N464 1.373 . S
C463 H491 0.930 . S
N464 C463 1.373 . S
N464 C466 1.340 . S
N465 C462 1.368 . S
N465 C466 1.321 . S
N465 Co468 2.135 . S
C466 N464 1.340 . S
C466 N465 1.321 . S
C466 H490 0.930 . S
H467 C462 0.931 . S
Co468 N465 2.135 . S
Co468 N471 2.121 . S
Co468 O476 2.055 . S
Co468 O479 2.039 . S
Co468 N482 2.140 . S
C469 O470 1.227 . S
C469 O479 1.265 . S
O470 C469 1.227 . S
N471 Co468 2.121 . S
N471 C473 1.375 . S
N471 C474 1.313 . S
C472 C473 1.338 . S
C472 N475 1.377 . S
C472 H492 0.930 . S
C473 N471 1.375 . S
C473 C472 1.338 . S
C473 H477 0.931 . S
C474 N471 1.313 . S
C474 N475 1.344 . S
C474 H478 0.930 . S
N475 C472 1.377 . S
N475 C474 1.344 . S
O476 Co468 2.055 . S
O476 C480 1.253 . S
H477 C473 0.931 . S
H478 C474 0.930 . S
O479 Co468 2.039 . S
O479 C469 1.265 . S
C480 O476 1.253 . S
C480 O481 1.227 . S
O481 C480 1.227 . S
N482 Co468 2.140 . S
N482 C485 1.346 . S
N482 C486 1.345 . S
C483 C484 1.387 . S
C483 C487 1.391 . S
C484 C483 1.387 . S
C484 C485 1.369 . S
C484 H493 0.929 . S
C485 N482 1.346 . S
C485 C484 1.369 . S
C485 H488 0.928 . S
C486 N482 1.345 . S
C486 C487 1.371 . S
C486 H489 0.931 . S
C487 C483 1.391 . S
C487 C486 1.371 . S
C487 H494 0.930 . S
H488 C485 0.928 . S
H489 C486 0.931 . S
H490 C466 0.930 . S
H491 C463 0.930 . S
H492 C472 0.930 . S
H493 C484 0.929 . S
H494 C487 0.930 . S
C495 C496 1.351 . S
C495 N498 1.368 . S
C495 H500 0.931 . S
C496 C495 1.351 . S
C496 N497 1.373 . S
C496 H524 0.930 . S
N497 C496 1.373 . S
N497 C499 1.340 . S
N498 C495 1.368 . S
N498 C499 1.321 . S
N498 Co501 2.135 . S
C499 N497 1.340 . S
C499 N498 1.321 . S
C499 H523 0.930 . S
H500 C495 0.931 . S
Co501 N498 2.135 . S
Co501 N504 2.121 . S
Co501 O509 2.055 . S
Co501 O512 2.039 . S
Co501 N515 2.140 . S
C502 O503 1.227 . S
C502 O512 1.265 . S
O503 C502 1.227 . S
N504 Co501 2.121 . S
N504 C506 1.375 . S
N504 C507 1.313 . S
C505 C506 1.338 . S
C505 N508 1.377 . S
C505 H525 0.930 . S
C506 N504 1.375 . S
C506 C505 1.338 . S
C506 H510 0.931 . S
C507 N504 1.313 . S
C507 N508 1.344 . S
C507 H511 0.930 . S
N508 C505 1.377 . S
N508 C507 1.344 . S
O509 Co501 2.055 . S
O509 C513 1.253 . S
H510 C506 0.931 . S
H511 C507 0.930 . S
O512 Co501 2.039 . S
O512 C502 1.265 . S
C513 O509 1.253 . S
C513 O514 1.227 . S
O514 C513 1.227 . S
N515 Co501 2.140 . S
N515 C518 1.346 . S
N515 C519 1.345 . S
C516 C517 1.387 . S
C516 C520 1.391 . S
C517 C516 1.387 . S
C517 C518 1.369 . S
C517 H526 0.929 . S
C518 N515 1.346 . S
C518 C517 1.369 . S
C518 H521 0.928 . S
C519 N515 1.345 . S
C519 C520 1.371 . S
C519 H522 0.931 . S
C520 C516 1.391 . S
C520 C519 1.371 . S
C520 H527 0.930 . S
H521 C518 0.928 . S
H522 C519 0.931 . S
H523 C499 0.930 . S
H524 C496 0.930 . S
H525 C505 0.930 . S
H526 C517 0.929 . S
H527 C520 0.930 . S
C528 C529 1.351 . S
C528 N531 1.368 . S
C528 H533 0.931 . S
C529 C528 1.351 . S
C529 N530 1.373 . S
C529 H557 0.930 . S
N530 C529 1.373 . S
N530 C532 1.340 . S
N531 C528 1.368 . S
N531 C532 1.321 . S
N531 Co534 2.135 . S
C532 N530 1.340 . S
C532 N531 1.321 . S
C532 H556 0.930 . S
H533 C528 0.931 . S
Co534 N531 2.135 . S
Co534 N537 2.121 . S
Co534 O542 2.055 . S
Co534 O545 2.039 . S
Co534 N548 2.140 . S
C535 O536 1.227 . S
C535 O545 1.265 . S
O536 C535 1.227 . S
N537 Co534 2.121 . S
N537 C539 1.375 . S
N537 C540 1.313 . S
C538 C539 1.338 . S
C538 N541 1.377 . S
C538 H558 0.930 . S
C539 N537 1.375 . S
C539 C538 1.338 . S
C539 H543 0.931 . S
C540 N537 1.313 . S
C540 N541 1.344 . S
C540 H544 0.930 . S
N541 C538 1.377 . S
N541 C540 1.344 . S
O542 Co534 2.055 . S
O542 C546 1.253 . S
H543 C539 0.931 . S
H544 C540 0.930 . S
O545 Co534 2.039 . S
O545 C535 1.265 . S
C546 O542 1.253 . S
C546 O547 1.227 . S
O547 C546 1.227 . S
N548 Co534 2.140 . S
N548 C551 1.346 . S
N548 C552 1.345 . S
C549 C550 1.387 . S
C549 C553 1.391 . S
C550 C549 1.387 . S
C550 C551 1.369 . S
C550 H559 0.929 . S
C551 N548 1.346 . S
C551 C550 1.369 . S
C551 H554 0.928 . S
C552 N548 1.345 . S
C552 C553 1.371 . S
C552 H555 0.931 . S
C553 C549 1.391 . S
C553 C552 1.371 . S
C553 H560 0.930 . S
H554 C551 0.928 . S
H555 C552 0.931 . S
H556 C532 0.930 . S
H557 C529 0.930 . S
H558 C538 0.930 . S
H559 C550 0.929 . S
H560 C553 0.930 . S
C561 C562 1.351 . S
C561 N564 1.368 . S
C561 H566 0.931 . S
C562 C561 1.351 . S
C562 N563 1.373 . S
C562 H590 0.930 . S
N563 C562 1.373 . S
N563 C565 1.340 . S
N564 C561 1.368 . S
N564 C565 1.321 . S
N564 Co567 2.135 . S
C565 N563 1.340 . S
C565 N564 1.321 . S
C565 H589 0.930 . S
H566 C561 0.931 . S
Co567 N564 2.135 . S
Co567 N570 2.121 . S
Co567 O575 2.055 . S
Co567 O578 2.039 . S
Co567 N581 2.140 . S
C568 O569 1.227 . S
C568 O578 1.265 . S
O569 C568 1.227 . S
N570 Co567 2.121 . S
N570 C572 1.375 . S
N570 C573 1.313 . S
C571 C572 1.338 . S
C571 N574 1.377 . S
C571 H591 0.930 . S
C572 N570 1.375 . S
C572 C571 1.338 . S
C572 H576 0.931 . S
C573 N570 1.313 . S
C573 N574 1.344 . S
C573 H577 0.930 . S
N574 C571 1.377 . S
N574 C573 1.344 . S
O575 Co567 2.055 . S
O575 C579 1.253 . S
H576 C572 0.931 . S
H577 C573 0.930 . S
O578 Co567 2.039 . S
O578 C568 1.265 . S
C579 O575 1.253 . S
C579 O580 1.227 . S
O580 C579 1.227 . S
N581 Co567 2.140 . S
N581 C584 1.346 . S
N581 C585 1.345 . S
C582 C583 1.387 . S
C582 C586 1.391 . S
C583 C582 1.387 . S
C583 C584 1.369 . S
C583 H592 0.929 . S
C584 N581 1.346 . S
C584 C583 1.369 . S
C584 H587 0.928 . S
C585 N581 1.345 . S
C585 C586 1.371 . S
C585 H588 0.931 . S
C586 C582 1.391 . S
C586 C585 1.371 . S
C586 H593 0.930 . S
H587 C584 0.928 . S
H588 C585 0.931 . S
H589 C565 0.930 . S
H590 C562 0.930 . S
H591 C571 0.930 . S
H592 C583 0.929 . S
H593 C586 0.930 . S
C594 C595 1.387 . S
C594 H598 0.950 . S
C594 C603 1.390 . S
C595 C594 1.387 . S
C595 C597 1.387 . S
H596 C603 0.950 . S
C597 C595 1.387 . S
C597 C599 1.390 . S
C597 H601 0.950 . S
H598 C594 0.950 . S
C599 C597 1.390 . S
C599 C600 1.387 . S
C599 H602 0.950 . S
C600 C599 1.387 . S
C600 C603 1.387 . S
H601 C597 0.950 . S
H602 C599 0.950 . S
C603 C594 1.390 . S
C603 H596 0.950 . S
C603 C600 1.387 . S
C604 C605 1.387 . S
C604 H608 0.930 1_545 S
C604 C613 1.411 . S
C605 C604 1.387 . S
C605 C607 1.387 . S
H606 C613 0.950 . S
C607 C605 1.387 . S
C607 C609 1.390 . S
C607 H611 0.950 . S
H608 C604 0.930 1_565 S
C609 C607 1.390 . S
C609 C610 1.387 . S
C609 H612 0.950 . S
C610 C609 1.387 . S
C610 C613 1.387 . S
H611 C607 0.950 . S
H612 C609 0.950 . S
C613 C604 1.411 . S
C613 H606 0.950 . S
C613 C610 1.387 . S
C614 C615 1.387 . S
C614 H618 0.950 . S
C614 C623 1.390 . S
C615 C614 1.387 . S
C615 C617 1.387 . S
H616 C623 0.950 . S
C617 C615 1.387 . S
C617 C619 1.390 . S
C617 H621 0.950 . S
H618 C614 0.950 . S
C619 C617 1.390 . S
C619 C620 1.387 . S
C619 H622 0.950 . S
C620 C619 1.387 . S
C620 C623 1.387 . S
H621 C617 0.950 . S
H622 C619 0.950 . S
C623 C614 1.390 . S
C623 H616 0.950 . S
C623 C620 1.387 . S
C624 C625 1.387 . S
C624 H628 0.950 . S
C624 C633 1.390 . S
C625 C624 1.387 . S
C625 C627 1.387 . S
H626 C633 0.950 . S
C627 C625 1.387 . S
C627 C629 1.390 . S
C627 H631 0.950 . S
H628 C624 0.950 . S
C629 C627 1.390 . S
C629 C630 1.387 . S
C629 H632 0.950 . S
C630 C629 1.387 . S
C630 C633 1.387 . S
H631 C627 0.950 . S
H632 C629 0.950 . S
C633 C624 1.390 . S
C633 H626 0.950 . S
C633 C630 1.387 . S
C634 C635 1.387 . S
C634 H638 0.950 1_565 S
C634 C643 1.390 . S
C635 C634 1.387 . S
C635 C637 1.387 . S
H636 C643 0.950 . S
C637 C635 1.387 . S
C637 C639 1.390 . S
C637 H641 0.950 . S
H638 C634 0.950 1_545 S
C639 C637 1.390 . S
C639 C640 1.387 . S
C639 H642 0.950 . S
C640 C639 1.387 . S
C640 C643 1.387 . S
H641 C637 0.950 . S
H642 C639 0.950 . S
C643 C634 1.390 . S
C643 H636 0.950 . S
C643 C640 1.387 . S
C644 C645 1.387 . S
C644 H648 0.950 . S
C644 C653 1.390 . S
C645 C644 1.387 . S
C645 C647 1.387 . S
H646 C653 0.950 . S
C647 C645 1.387 . S
C647 C649 1.390 . S
C647 H651 0.950 . S
H648 C644 0.950 . S
C649 C647 1.390 . S
C649 C650 1.387 . S
C649 H652 0.950 . S
C650 C649 1.387 . S
C650 C653 1.387 . S
H651 C647 0.950 . S
H652 C649 0.950 . S
C653 C644 1.390 . S
C653 H646 0.950 . S
C653 C650 1.387 . S
C654 C655 1.387 . S
C654 H658 0.950 . S
C654 C663 1.390 . S
C655 C654 1.387 . S
C655 C657 1.387 . S
H656 C663 0.950 . S
C657 C655 1.387 . S
C657 C659 1.390 . S
C657 H661 0.950 . S
H658 C654 0.950 . S
C659 C657 1.390 . S
C659 C660 1.387 . S
C659 H662 0.950 . S
C660 C659 1.387 . S
C660 C663 1.387 . S
H661 C657 0.950 . S
H662 C659 0.950 . S
C663 C654 1.390 . S
C663 H656 0.950 . S
C663 C660 1.387 . S
C664 C665 1.387 . S
C664 H668 0.950 . S
C664 C673 1.390 . S
C665 C664 1.387 . S
C665 C667 1.387 . S
H666 C673 0.950 . S
C667 C665 1.387 . S
C667 C669 1.390 . S
C667 H671 0.950 . S
H668 C664 0.950 . S
C669 C667 1.390 . S
C669 C670 1.387 . S
C669 H672 0.950 . S
C670 C669 1.387 . S
C670 C673 1.387 . S
H671 C667 0.950 . S
H672 C669 0.950 . S
C673 C664 1.390 . S
C673 H666 0.950 . S
C673 C670 1.387 . S
C674 C675 1.387 . S
C674 H678 0.950 . S
C674 C683 1.390 . S
C675 C674 1.387 . S
C675 C677 1.387 . S
H676 C683 0.950 . S
C677 C675 1.387 . S
C677 C679 1.390 . S
C677 H681 0.950 . S
H678 C674 0.950 . S
C679 C677 1.390 . S
C679 C680 1.387 . S
C679 H682 0.950 . S
C680 C679 1.387 . S
C680 C683 1.387 . S
H681 C677 0.950 . S
H682 C679 0.950 . S
C683 C674 1.390 . S
C683 H676 0.950 . S
C683 C680 1.387 . S
C684 C685 1.387 . S
C684 H688 0.950 . S
C684 C693 1.390 . S
C685 C684 1.387 . S
C685 C687 1.387 . S
H686 C693 0.950 . S
C687 C685 1.387 . S
C687 C689 1.390 . S
C687 H691 0.950 . S
H688 C684 0.950 . S
C689 C687 1.390 . S
C689 C690 1.387 . S
C689 H692 0.950 . S
C690 C689 1.387 . S
C690 C693 1.387 . S
H691 C687 0.950 . S
H692 C689 0.950 . S
C693 C684 1.390 . S
C693 H686 0.950 . S
C693 C690 1.387 . S
C694 C695 1.387 . S
C694 H698 0.950 . S
C694 C703 1.390 . S
C695 C694 1.387 . S
C695 C697 1.387 . S
H696 C703 0.950 . S
C697 C695 1.387 . S
C697 C699 1.390 . S
C697 H701 0.950 . S
H698 C694 0.950 . S
C699 C697 1.390 . S
C699 C700 1.387 . S
C699 H702 0.950 1_554 S
C700 C699 1.387 . S
C700 C703 1.387 . S
H701 C697 0.950 . S
H702 C699 0.950 1_556 S
C703 C694 1.390 . S
C703 H696 0.950 . S
C703 C700 1.387 . S
C704 C705 1.387 . S
C704 H708 0.950 . S
C704 C713 1.390 . S
C705 C704 1.387 . S
C705 C707 1.387 . S
H706 C713 0.950 . S
C707 C705 1.387 . S
C707 C709 1.390 . S
C707 H711 0.950 . S
H708 C704 0.950 . S
C709 C707 1.390 . S
C709 C710 1.387 . S
C709 H712 0.950 . S
C710 C709 1.387 . S
C710 C713 1.387 . S
H711 C707 0.950 . S
H712 C709 0.950 . S
C713 C704 1.390 . S
C713 H706 0.950 . S
C713 C710 1.387 . S
C714 C715 1.387 . S
C714 H718 0.950 . S
C714 C723 1.390 . S
C715 C714 1.387 . S
C715 C717 1.387 . S
H716 C723 0.950 1_554 S
C717 C715 1.387 . S
C717 C719 1.390 . S
C717 H721 0.950 . S
H718 C714 0.950 . S
C719 C717 1.390 . S
C719 C720 1.387 . S
C719 H722 0.950 . S
C720 C719 1.387 . S
C720 C723 1.387 . S
H721 C717 0.950 . S
H722 C719 0.950 . S
C723 C714 1.390 . S
C723 H716 0.950 1_556 S
C723 C720 1.387 . S
C724 C725 1.387 . S
C724 H728 0.950 . S
C724 C733 1.390 . S
C725 C724 1.387 . S
C725 C727 1.387 . S
H726 C733 0.950 . S
C727 C725 1.387 . S
C727 C729 1.390 . S
C727 H731 0.950 . S
H728 C724 0.950 . S
C729 C727 1.390 . S
C729 C730 1.387 . S
C729 H732 0.950 1_556 S
C730 C729 1.387 . S
C730 C733 1.387 . S
H731 C727 0.950 . S
H732 C729 0.950 1_554 S
C733 C724 1.390 . S
C733 H726 0.950 . S
C733 C730 1.387 . S
C734 C735 1.387 . S
C734 H738 0.950 . S
C734 C743 1.390 . S
C735 C734 1.387 . S
C735 C737 1.387 . S
H736 C743 0.950 . S
C737 C735 1.387 . S
C737 C739 1.390 . S
C737 H741 0.950 1_556 S
H738 C734 0.950 . S
C739 C737 1.390 . S
C739 C740 1.387 . S
C739 H742 0.950 . S
C740 C739 1.387 . S
C740 C743 1.387 . S
H741 C737 0.950 1_554 S
H742 C739 0.950 . S
C743 C734 1.390 . S
C743 H736 0.950 . S
C743 C740 1.387 . S
C744 C745 1.387 . S
C744 H748 0.950 . S
C744 C753 1.390 . S
C745 C744 1.387 . S
C745 C747 1.387 . S
H746 C753 0.950 . S
C747 C745 1.387 . S
C747 C749 1.390 . S
C747 H751 0.950 . S
H748 C744 0.950 . S
C749 C747 1.390 . S
C749 C750 1.387 . S
C749 H752 0.950 . S
C750 C749 1.387 . S
C750 C753 1.387 . S
H751 C747 0.950 . S
H752 C749 0.950 . S
C753 C744 1.390 . S
C753 H746 0.950 . S
C753 C750 1.387 . S
C754 C755 1.387 . S
C754 H758 0.950 . S
C754 C763 1.390 . S
C755 C754 1.387 . S
C755 C757 1.387 . S
H756 C763 0.950 . S
C757 C755 1.387 . S
C757 C759 1.390 . S
C757 H761 0.950 . S
H758 C754 0.950 . S
C759 C757 1.390 . S
C759 C760 1.387 . S
C759 H762 0.950 . S
C760 C759 1.387 . S
C760 C763 1.387 . S
H761 C757 0.950 . S
H762 C759 0.950 . S
C763 C754 1.390 . S
C763 H756 0.950 . S
C763 C760 1.387 . S
C764 C765 1.387 . S
C764 H768 0.950 . S
C764 C773 1.390 . S
C765 C764 1.387 . S
C765 C767 1.387 . S
H766 C773 0.950 . S
C767 C765 1.387 . S
C767 C769 1.390 . S
C767 H771 0.950 . S
H768 C764 0.950 . S
C769 C767 1.390 . S
C769 C770 1.387 . S
C769 H772 0.950 . S
C770 C769 1.387 . S
C770 C773 1.387 . S
H771 C767 0.950 . S
H772 C769 0.950 . S
C773 C764 1.390 . S
C773 H766 0.950 . S
C773 C770 1.387 . S
C774 C775 1.387 . S
C774 H778 0.950 . S
C774 C783 1.390 . S
C775 C774 1.387 . S
C775 C777 1.387 . S
H776 C783 0.950 . S
C777 C775 1.387 . S
C777 C779 1.390 . S
C777 H781 0.950 . S
H778 C774 0.950 . S
C779 C777 1.390 . S
C779 C780 1.387 . S
C779 H782 0.950 . S
C780 C779 1.387 . S
C780 C783 1.387 . S
H781 C777 0.950 . S
H782 C779 0.950 . S
C783 C774 1.390 . S
C783 H776 0.950 . S
C783 C780 1.387 . S
C784 C785 1.387 . S
C784 H788 0.950 . S
C784 C793 1.390 . S
C785 C784 1.387 . S
C785 C787 1.387 . S
H786 C793 0.950 . S
C787 C785 1.387 . S
C787 C789 1.390 . S
C787 H791 0.950 . S
H788 C784 0.950 . S
C789 C787 1.390 . S
C789 C790 1.387 . S
C789 H792 0.950 . S
C790 C789 1.387 . S
C790 C793 1.387 . S
H791 C787 0.950 . S
H792 C789 0.950 . S
C793 C784 1.390 . S
C793 H786 0.950 . S
C793 C790 1.387 . S
C794 C795 1.387 . S
C794 H798 0.950 . S
C794 C803 1.390 . S
C795 C794 1.387 . S
C795 C797 1.387 . S
H796 C803 0.950 . S
C797 C795 1.387 . S
C797 C799 1.390 . S
C797 H801 0.950 . S
H798 C794 0.950 . S
C799 C797 1.390 . S
C799 C800 1.387 . S
C799 H802 0.950 . S
C800 C799 1.387 . S
C800 C803 1.387 . S
H801 C797 0.950 . S
H802 C799 0.950 . S
C803 C794 1.390 . S
C803 H796 0.950 . S
C803 C800 1.387 . S
C804 C805 1.387 . S
C804 H808 0.950 . S
C804 C813 1.390 . S
C805 C804 1.387 . S
C805 C807 1.387 . S
H806 C813 0.950 . S
C807 C805 1.387 . S
C807 C809 1.390 . S
C807 H811 0.950 . S
H808 C804 0.950 . S
C809 C807 1.390 . S
C809 C810 1.387 . S
C809 H812 0.950 . S
C810 C809 1.387 . S
C810 C813 1.387 . S
H811 C807 0.950 . S
H812 C809 0.950 . S
C813 C804 1.390 . S
C813 H806 0.950 . S
C813 C810 1.387 . S
C814 C815 1.387 . S
C814 H818 0.950 . S
C814 C823 1.390 . S
C815 C814 1.387 . S
C815 C817 1.387 . S
H816 C823 0.950 . S
C817 C815 1.387 . S
C817 C819 1.390 . S
C817 H821 0.950 . S
H818 C814 0.950 . S
C819 C817 1.390 . S
C819 C820 1.387 . S
C819 H822 0.950 . S
C820 C819 1.387 . S
C820 C823 1.387 . S
H821 C817 0.950 . S
H822 C819 0.950 . S
C823 C814 1.390 . S
C823 H816 0.950 . S
C823 C820 1.387 . S
C824 C825 1.387 . S
C824 H828 0.950 . S
C824 C833 1.390 . S
C825 C824 1.387 . S
C825 C827 1.387 . S
H826 C833 0.950 . S
C827 C825 1.387 . S
C827 C829 1.390 . S
C827 H831 0.950 . S
H828 C824 0.950 . S
C829 C827 1.390 . S
C829 C830 1.387 . S
C829 H832 0.950 . S
C830 C829 1.387 . S
C830 C833 1.387 . S
H831 C827 0.950 . S
H832 C829 0.950 . S
C833 C824 1.390 . S
C833 H826 0.950 . S
C833 C830 1.387 . S
C834 C835 1.387 1_565 S
C834 H838 0.950 . S
C834 C843 1.390 1_554 S
C835 C834 1.387 1_545 S
C835 C837 1.387 . S
H836 C843 0.950 . S
C837 C835 1.387 . S
C837 C839 1.390 1_554 S
C837 H841 0.950 . S
H838 C834 0.950 . S
C839 C837 1.390 1_556 S
C839 C840 1.387 1_545 S
C839 H842 0.950 . S
C840 C839 1.387 1_565 S
C840 C843 1.387 . S
H841 C837 0.950 . S
H842 C839 0.950 . S
C843 C834 1.390 1_556 S
C843 H836 0.950 . S
C843 C840 1.387 . S
C844 C845 1.387 . S
C844 H848 0.950 . S
C844 C853 1.390 1_556 S
C845 C844 1.387 . S
C845 C847 1.387 1_455 S
H846 C853 0.950 . S
C847 C845 1.387 1_655 S
C847 C849 1.390 1_556 S
C847 H851 0.950 . S
H848 C844 0.950 . S
C849 C847 1.390 1_554 S
C849 C850 1.387 . S
C849 H852 0.950 . S
C850 C849 1.387 . S
C850 C853 1.387 1_655 S
H851 C847 0.950 . S
H852 C849 0.950 . S
C853 C844 1.390 1_554 S
C853 H846 0.950 . S
C853 C850 1.387 1_455 S
C854 C855 1.387 . S
C854 H858 0.950 . S
C854 C863 1.390 1_556 S
C855 C854 1.387 . S
C855 C857 1.387 . S
H856 C863 0.950 . S
C857 C855 1.387 . S
C857 C859 1.390 1_556 S
C857 H861 0.950 . S
H858 C854 0.950 . S
C859 C857 1.390 1_554 S
C859 C860 1.387 . S
C859 H862 0.950 . S
C860 C859 1.387 . S
C860 C863 1.387 . S
H861 C857 0.950 . S
H862 C859 0.950 . S
C863 C854 1.390 1_554 S
C863 H856 0.950 . S
C863 C860 1.387 . S
C864 C865 1.387 . S
C864 H868 0.950 1_556 S
C864 C873 1.390 . S
C865 C864 1.387 . S
C865 C867 1.387 . S
H866 C873 0.950 . S
C867 C865 1.387 . S
C867 C869 1.390 . S
C867 H871 0.950 . S
H868 C864 0.950 1_554 S
C869 C867 1.390 . S
C869 C870 1.387 . S
C869 H872 0.950 . S
C870 C869 1.387 . S
C870 C873 1.387 . S
H871 C867 0.950 . S
H872 C869 0.950 . S
C873 C864 1.390 . S
C873 H866 0.950 . S
C873 C870 1.387 . S
C874 C875 1.387 . S
C874 H878 0.950 . S
C874 C883 1.393 . S
C875 C874 1.387 . S
C875 C877 1.387 . S
H876 C883 0.945 1_554 S
C877 C875 1.387 . S
C877 C879 1.390 . S
C877 H881 0.950 . S
H878 C874 0.950 . S
C879 C877 1.390 . S
C879 C880 1.387 . S
C879 H882 0.950 . S
C880 C879 1.387 . S
C880 C883 1.389 . S
H881 C877 0.950 . S
H882 C879 0.950 . S
C883 C874 1.393 . S
C883 H876 0.945 1_556 S
C883 C880 1.389 . S
C884 C885 1.387 . S
C884 H888 0.950 . S
C884 C893 1.390 . S
C885 C884 1.387 . S
C885 C887 1.387 . S
H886 C893 0.950 . S
C887 C885 1.387 . S
C887 C889 1.390 . S
C887 H891 0.950 . S
H888 C884 0.950 . S
C889 C887 1.390 . S
C889 C890 1.387 . S
C889 H892 0.950 . S
C890 C889 1.387 . S
C890 C893 1.387 . S
H891 C887 0.950 . S
H892 C889 0.950 . S
C893 C884 1.390 . S
C893 H886 0.950 . S
C893 C890 1.387 . S
C894 C895 1.387 . S
C894 H898 0.950 . S
C894 C903 1.390 . S
C895 C894 1.387 . S
C895 C897 1.387 . S
H896 C903 0.950 . S
C897 C895 1.387 . S
C897 C899 1.390 1_554 S
C897 H901 0.950 1_554 S
H898 C894 0.950 . S
C899 C897 1.390 1_556 S
C899 C900 1.387 1_556 S
C899 H902 0.950 . S
C900 C899 1.387 1_554 S
C900 C903 1.387 . S
H901 C897 0.950 1_556 S
H902 C899 0.950 . S
C903 C894 1.390 . S
C903 H896 0.950 . S
C903 C900 1.387 . S
C904 C905 1.387 . S
C904 H908 0.950 . S
C904 C913 1.390 . S
C905 C904 1.387 . S
C905 C907 1.387 1_554 S
H906 C913 0.950 . S
C907 C905 1.387 1_556 S
C907 C909 1.390 1_556 S
C907 H911 0.950 . S
H908 C904 0.950 . S
C909 C907 1.390 1_554 S
C909 C910 1.387 . S
C909 H912 0.950 1_554 S
C910 C909 1.387 . S
C910 C913 1.387 . S
H911 C907 0.950 . S
H912 C909 0.950 1_556 S
C913 C904 1.390 . S
C913 H906 0.950 . S
C913 C910 1.387 . S
C914 C915 1.387 . S
C914 H918 0.950 . S
C914 C923 1.390 . S
C915 C914 1.387 . S
C915 C917 1.387 . S
H916 C923 0.950 . S
C917 C915 1.387 . S
C917 C919 1.390 . S
C917 H921 0.950 . S
H918 C914 0.950 . S
C919 C917 1.390 . S
C919 C920 1.387 . S
C919 H922 0.950 . S
C920 C919 1.387 . S
C920 C923 1.387 . S
H921 C917 0.950 . S
H922 C919 0.950 . S
C923 C914 1.390 . S
C923 H916 0.950 . S
C923 C920 1.387 . S
C924 C925 1.387 . S
C924 H928 0.950 . S
C924 C933 1.390 . S
C925 C924 1.387 . S
C925 C927 1.387 . S
H926 C933 0.950 . S
C927 C925 1.387 . S
C927 C929 1.390 . S
C927 H931 0.950 . S
H928 C924 0.950 . S
C929 C927 1.390 . S
C929 C930 1.387 . S
C929 H932 0.950 . S
C930 C929 1.387 . S
C930 C933 1.387 . S
H931 C927 0.950 . S
H932 C929 0.950 . S
C933 C924 1.390 . S
C933 H926 0.950 . S
C933 C930 1.387 . S
C934 C935 1.387 . S
C934 H938 0.950 . S
C934 C943 1.390 . S
C935 C934 1.387 . S
C935 C937 1.387 . S
H936 C943 0.950 . S
C937 C935 1.387 . S
C937 C939 1.390 . S
C937 H941 0.950 . S
H938 C934 0.950 . S
C939 C937 1.390 . S
C939 C940 1.387 . S
C939 H942 0.950 . S
C940 C939 1.387 . S
C940 C943 1.387 . S
H941 C937 0.950 . S
H942 C939 0.950 . S
C943 C934 1.390 . S
C943 H936 0.950 . S
C943 C940 1.387 . S
C944 C945 1.387 . S
C944 H948 0.950 . S
C944 C953 1.390 . S
C945 C944 1.387 . S
C945 C947 1.387 . S
H946 C953 0.950 . S
C947 C945 1.387 . S
C947 C949 1.390 . S
C947 H951 0.950 . S
H948 C944 0.950 . S
C949 C947 1.390 . S
C949 C950 1.387 . S
C949 H952 0.950 . S
C950 C949 1.387 . S
C950 C953 1.387 . S
H951 C947 0.950 . S
H952 C949 0.950 . S
C953 C944 1.390 . S
C953 H946 0.950 . S
C953 C950 1.387 . S
C954 C955 1.387 . S
C954 H958 0.950 . S
C954 C963 1.390 . S
C955 C954 1.387 . S
C955 C957 1.387 . S
H956 C963 0.950 . S
C957 C955 1.387 . S
C957 C959 1.390 . S
C957 H961 0.950 . S
H958 C954 0.950 . S
C959 C957 1.390 . S
C959 C960 1.387 . S
C959 H962 0.950 . S
C960 C959 1.387 . S
C960 C963 1.387 . S
H961 C957 0.950 . S
H962 C959 0.950 . S
C963 C954 1.390 . S
C963 H956 0.950 . S
C963 C960 1.387 . S
C964 C965 1.387 . S
C964 H968 0.950 . S
C964 C973 1.390 . S
C965 C964 1.387 . S
C965 C967 1.387 . S
H966 C973 0.950 . S
C967 C965 1.387 . S
C967 C969 1.390 . S
C967 H971 0.950 . S
H968 C964 0.950 . S
C969 C967 1.390 . S
C969 C970 1.387 . S
C969 H972 0.950 . S
C970 C969 1.387 . S
C970 C973 1.387 . S
H971 C967 0.950 . S
H972 C969 0.950 . S
C973 C964 1.390 . S
C973 H966 0.950 . S
C973 C970 1.387 . S
C974 C975 1.387 . S
C974 H978 0.950 . S
C974 C983 1.390 . S
C975 C974 1.387 . S
C975 C977 1.387 . S
H976 C983 0.950 . S
C977 C975 1.387 . S
C977 C979 1.390 . S
C977 H981 0.950 . S
H978 C974 0.950 . S
C979 C977 1.390 . S
C979 C980 1.387 . S
C979 H982 0.950 . S
C980 C979 1.387 . S
C980 C983 1.387 . S
H981 C977 0.950 . S
H982 C979 0.950 . S
C983 C974 1.390 . S
C983 H976 0.950 . S
C983 C980 1.387 . S
C984 C985 1.387 . S
C984 H988 0.950 . S
C984 C993 1.390 . S
C985 C984 1.387 . S
C985 C987 1.387 . S
H986 C993 0.950 . S
C987 C985 1.387 . S
C987 C989 1.390 . S
C987 H991 0.950 . S
H988 C984 0.950 . S
C989 C987 1.390 . S
C989 C990 1.387 . S
C989 H992 0.950 . S
C990 C989 1.387 . S
C990 C993 1.387 . S
H991 C987 0.950 . S
H992 C989 0.950 . S
C993 C984 1.390 . S
C993 H986 0.950 . S
C993 C990 1.387 . S
C994 C995 1.387 . S
C994 H998 0.950 . S
C994 C1003 1.390 . S
C995 C994 1.387 . S
C995 C997 1.387 . S
H996 C1003 0.950 . S
C997 C995 1.387 . S
C997 C999 1.390 . S
C997 H1001 0.950 . S
H998 C994 0.950 . S
C999 C997 1.390 . S
C999 C1000 1.387 . S
C999 H1002 0.950 . S
C1000 C999 1.387 . S
C1000 C1003 1.387 . S
H1001 C997 0.950 . S
H1002 C999 0.950 . S
C1003 C994 1.390 . S
C1003 H996 0.950 . S
C1003 C1000 1.387 . S
C1004 C1005 1.387 . S
C1004 H1008 0.950 . S
C1004 C1013 1.390 . S
C1005 C1004 1.387 . S
C1005 C1007 1.387 . S
H1006 C1013 0.950 . S
C1007 C1005 1.387 . S
C1007 C1009 1.390 . S
C1007 H1011 0.950 . S
H1008 C1004 0.950 . S
C1009 C1007 1.390 . S
C1009 C1010 1.387 . S
C1009 H1012 0.950 . S
C1010 C1009 1.387 . S
C1010 C1013 1.387 . S
H1011 C1007 0.950 . S
H1012 C1009 0.950 . S
C1013 C1004 1.390 . S
C1013 H1006 0.950 . S
C1013 C1010 1.387 . S
C1014 C1015 1.387 . S
C1014 H1018 0.950 . S
C1014 C1023 1.390 . S
C1015 C1014 1.387 . S
C1015 C1017 1.387 . S
H1016 C1023 0.950 . S
C1017 C1015 1.387 . S
C1017 C1019 1.390 . S
C1017 H1021 0.950 . S
H1018 C1014 0.950 . S
C1019 C1017 1.390 . S
C1019 C1020 1.387 . S
C1019 H1022 0.950 . S
C1020 C1019 1.387 . S
C1020 C1023 1.387 . S
H1021 C1017 0.950 . S
H1022 C1019 0.950 . S
C1023 C1014 1.390 . S
C1023 H1016 0.950 . S
C1023 C1020 1.387 . S
C1024 C1025 1.387 . S
C1024 H1028 0.950 . S
C1024 C1033 1.390 . S
C1025 C1024 1.387 . S
C1025 C1027 1.387 . S
H1026 C1033 0.950 . S
C1027 C1025 1.387 . S
C1027 C1029 1.390 . S
C1027 H1031 0.950 . S
H1028 C1024 0.950 . S
C1029 C1027 1.390 . S
C1029 C1030 1.387 . S
C1029 H1032 0.950 . S
C1030 C1029 1.387 . S
C1030 C1033 1.387 . S
H1031 C1027 0.950 . S
H1032 C1029 0.950 . S
C1033 C1024 1.390 . S
C1033 H1026 0.950 . S
C1033 C1030 1.387 . S
C1034 C1035 1.387 . S
C1034 H1038 0.950 . S
C1034 C1043 1.390 . S
C1035 C1034 1.387 . S
C1035 C1037 1.387 . S
H1036 C1043 0.950 . S
C1037 C1035 1.387 . S
C1037 C1039 1.390 . S
C1037 H1041 0.950 . S
H1038 C1034 0.950 . S
C1039 C1037 1.390 . S
C1039 C1040 1.387 . S
C1039 H1042 0.950 . S
C1040 C1039 1.387 . S
C1040 C1043 1.387 . S
H1041 C1037 0.950 . S
H1042 C1039 0.950 . S
C1043 C1034 1.390 . S
C1043 H1036 0.950 . S
C1043 C1040 1.387 . S
C595 C7 1.229 . S
C600 C252 1.307 . S
C605 C40 1.229 1_545 S
C610 C285 1.307 . S
C615 C73 1.232 1_655 S
C620 C219 1.308 . S
C625 C549 1.308 . S
C630 C106 1.232 . S
C635 C139 1.234 1_565 S
C640 C582 1.309 . S
C645 C172 1.232 1_455 S
C650 C516 1.308 . S
C655 C205 1.231 . S
C660 C450 1.308 1_655 S
C665 C483 1.309 . S
C670 C238 1.233 . S
C675 C417 1.308 1_545 S
C680 C271 1.231 . S
C685 C304 1.234 . S
C690 C153 1.309 . S
C695 C337 1.229 . S
C700 C186 1.307 . S
C705 C370 1.233 . S
C710 C120 1.309 . S
C715 C403 1.231 . S
C720 C54 1.308 . S
C725 C436 1.232 . S
C730 C87 1.308 . S
C735 C21 1.309 . S
C740 C469 1.233 . S
C745 C351 1.307 1_455 S
C750 C502 1.230 . S
C755 C535 1.233 . S
C760 C384 1.309 . S
C765 C568 1.233 . S
C770 C318 1.309 1_565 S
C775 N508 1.584 . S
C780 N13 1.584 . S
C785 N541 1.584 . S
C790 N46 1.584 . S
C795 N79 1.583 . S
C800 N574 1.583 . S
C805 N112 1.580 . S
C810 N211 1.580 . S
C815 N145 1.581 . S
C820 N244 1.581 . S
C825 N277 1.583 . S
C830 N178 1.583 . S
C835 N310 1.584 . S
C840 N409 1.584 . S
C845 N442 1.584 . S
C850 N343 1.584 . S
C855 N475 1.580 . S
C860 N376 1.580 . S
C865 N2 1.541 1_556 S
C870 C150 1.539 . S
C875 C183 1.541 . S
C880 N35 1.542 1_556 S
C885 N68 1.541 1_556 S
C890 C117 1.540 . S
C895 C51 1.541 . S
C900 N101 1.542 1_554 S
C905 N134 1.542 1_554 S
C910 C84 1.541 . S
C915 C18 1.540 . S
C920 N167 1.541 1_554 S
C925 N200 1.539 . S
C930 C348 1.538 . S
C935 C381 1.541 . S
C940 N233 1.542 . S
C945 C315 1.540 . S
C950 N266 1.541 . S
C955 N299 1.539 . S
C960 C249 1.538 . S
C965 C282 1.539 . S
C970 N332 1.540 . S
C975 N365 1.541 . S
C980 C216 1.540 . S
C985 C546 1.541 . S
C990 N398 1.542 . S
C995 C579 1.541 . S
C1000 N431 1.542 . S
C1005 C513 1.539 . S
C1010 N464 1.541 . S
C1015 C447 1.538 . S
C1020 N497 1.539 . S
C1025 C480 1.540 . S
C1030 N530 1.542 . S
C1035 N563 1.540 . S
C1040 C414 1.539 . S
