# Generated by pormake.
# Topology cag, (4)-cn, num edge types: 1
# Building blocks:
#     Node 0, Type 0, BuildingBlock: CEKHIL_clean_sbu_0, # of connection points: 4
#     Node 1, Type 0, BuildingBlock: CEKHIL_clean_sbu_0, # of connection points: 4
#     Node 2, Type 0, BuildingBlock: CEKHIL_clean_sbu_0, # of connection points: 4
#     Node 3, Type 0, BuildingBlock: CEKHIL_clean_sbu_0, # of connection points: 4
#     Node 4, Type 0, BuildingBlock: CEKHIL_clean_sbu_0, # of connection points: 4
#     Node 5, Type 0, BuildingBlock: CEKHIL_clean_sbu_0, # of connection points: 4
#     Node 6, Type 0, BuildingBlock: CEKHIL_clean_sbu_0, # of connection points: 4
#     Node 7, Type 0, BuildingBlock: CEKHIL_clean_sbu_0, # of connection points: 4
#     Node 8, Type 0, BuildingBlock: CEKHIL_clean_sbu_0, # of connection points: 4
#     Node 9, Type 0, BuildingBlock: CEKHIL_clean_sbu_0, # of connection points: 4
#     Node 10, Type 0, BuildingBlock: CEKHIL_clean_sbu_0, # of connection points: 4
#     Node 11, Type 0, BuildingBlock: CEKHIL_clean_sbu_0, # of connection points: 4
#     Node 12, Type 0, BuildingBlock: CEKHIL_clean_sbu_0, # of connection points: 4
#     Node 13, Type 0, BuildingBlock: CEKHIL_clean_sbu_0, # of connection points: 4
#     Node 14, Type 0, BuildingBlock: CEKHIL_clean_sbu_0, # of connection points: 4
#     Node 15, Type 0, BuildingBlock: CEKHIL_clean_sbu_0, # of connection points: 4
#     Edge 16, Type (0, 0), BuildingBlock: EYOCIG_clean_linker_4, # of connection points: 2
#     Edge 17, Type (0, 0), BuildingBlock: EYOCIG_clean_linker_4, # of connection points: 2
#     Edge 18, Type (0, 0), BuildingBlock: EYOCIG_clean_linker_4, # of connection points: 2
#     Edge 19, Type (0, 0), BuildingBlock: EYOCIG_clean_linker_4, # of connection points: 2
#     Edge 20, Type (0, 0), BuildingBlock: EYOCIG_clean_linker_4, # of connection points: 2
#     Edge 21, Type (0, 0), BuildingBlock: EYOCIG_clean_linker_4, # of connection points: 2
#     Edge 22, Type (0, 0), BuildingBlock: EYOCIG_clean_linker_4, # of connection points: 2
#     Edge 23, Type (0, 0), BuildingBlock: EYOCIG_clean_linker_4, # of connection points: 2
#     Edge 24, Type (0, 0), BuildingBlock: EYOCIG_clean_linker_4, # of connection points: 2
#     Edge 25, Type (0, 0), BuildingBlock: EYOCIG_clean_linker_4, # of connection points: 2
#     Edge 26, Type (0, 0), BuildingBlock: EYOCIG_clean_linker_4, # of connection points: 2
#     Edge 27, Type (0, 0), BuildingBlock: EYOCIG_clean_linker_4, # of connection points: 2
#     Edge 28, Type (0, 0), BuildingBlock: EYOCIG_clean_linker_4, # of connection points: 2
#     Edge 29, Type (0, 0), BuildingBlock: EYOCIG_clean_linker_4, # of connection points: 2
#     Edge 30, Type (0, 0), BuildingBlock: EYOCIG_clean_linker_4, # of connection points: 2
#     Edge 31, Type (0, 0), BuildingBlock: EYOCIG_clean_linker_4, # of connection points: 2
#     Edge 32, Type (0, 0), BuildingBlock: EYOCIG_clean_linker_4, # of connection points: 2
#     Edge 33, Type (0, 0), BuildingBlock: EYOCIG_clean_linker_4, # of connection points: 2
#     Edge 34, Type (0, 0), BuildingBlock: EYOCIG_clean_linker_4, # of connection points: 2
#     Edge 35, Type (0, 0), BuildingBlock: EYOCIG_clean_linker_4, # of connection points: 2
#     Edge 36, Type (0, 0), BuildingBlock: EYOCIG_clean_linker_4, # of connection points: 2
#     Edge 37, Type (0, 0), BuildingBlock: EYOCIG_clean_linker_4, # of connection points: 2
#     Edge 38, Type (0, 0), BuildingBlock: EYOCIG_clean_linker_4, # of connection points: 2
#     Edge 39, Type (0, 0), BuildingBlock: EYOCIG_clean_linker_4, # of connection points: 2
#     Edge 40, Type (0, 0), BuildingBlock: EYOCIG_clean_linker_4, # of connection points: 2
#     Edge 41, Type (0, 0), BuildingBlock: EYOCIG_clean_linker_4, # of connection points: 2
#     Edge 42, Type (0, 0), BuildingBlock: EYOCIG_clean_linker_4, # of connection points: 2
#     Edge 43, Type (0, 0), BuildingBlock: EYOCIG_clean_linker_4, # of connection points: 2
#     Edge 44, Type (0, 0), BuildingBlock: EYOCIG_clean_linker_4, # of connection points: 2
#     Edge 45, Type (0, 0), BuildingBlock: EYOCIG_clean_linker_4, # of connection points: 2
#     Edge 46, Type (0, 0), BuildingBlock: EYOCIG_clean_linker_4, # of connection points: 2
#     Edge 47, Type (0, 0), BuildingBlock: EYOCIG_clean_linker_4, # of connection points: 2
# Relax obj value: 0.093
# Max RMSD: 0.131
# Mean RMSD: 0.130
data_MOF--net-cag--node1-CEKHIL_clean_sbu_0--edge1-EYOCIG_clean_linker_4
_symmetry_space_group_name_H-M    P1
_symmetry_Int_Tables_number       1
_symmetry_cell_setting            triclinic
loop_
_symmetry_equiv_pos_as_xyz
'x, y, z'
_cell_length_a     34.53424
_cell_length_b     38.071167
_cell_length_c     31.449603
_cell_angle_alpha  90.00212
_cell_angle_beta   90.002958
_cell_angle_gamma 90.000755
loop_
_atom_site_label
_atom_site_type_symbol
_atom_site_fract_x
_atom_site_fract_y
_atom_site_fract_z
_atom_type_partial_charge
Co0 Co 0.30653 0.14406 0.07217 0.0
O1 O 0.25522 0.15636 0.0522 0.0
O2 O 0.30696 0.19073 0.04829 0.0
C3 C 0.30765 0.09001 0.04317 0.0
O4 O 0.36423 0.141 0.086 0.0
Co5 Co 0.32318 0.08148 0.13296 0.0
O6 O 0.37828 0.09002 0.11873 0.0
C7 C 0.28895 0.14701 0.16666 0.0
C8 C 0.27057 0.1858 0.03997 0.0
C9 C 0.38848 0.11859 0.10106 0.0
O10 O 0.29406 0.16291 0.13093 0.0
O11 O 0.2959 0.11439 0.17261 0.0
O12 O 0.31571 0.1173 0.02004 0.0
O13 O 0.29669 0.09611 0.08163 0.0
Co14 Co 0.20909 0.86946 0.57242 0.0
O15 O 0.26048 0.85722 0.55263 0.0
O16 O 0.20886 0.82268 0.54881 0.0
C17 C 0.20788 0.92338 0.54306 0.0
O18 O 0.15136 0.87242 0.58613 0.0
Co19 Co 0.19217 0.93225 0.63279 0.0
O20 O 0.13711 0.92346 0.61862 0.0
C21 C 0.22648 0.86693 0.66697 0.0
C22 C 0.24525 0.82769 0.54054 0.0
C23 C 0.12702 0.8948 0.60109 0.0
O24 O 0.22152 0.85089 0.63131 0.0
O25 O 0.21942 0.89955 0.67273 0.0
O26 O 0.19992 0.89597 0.5201 0.0
O27 O 0.21879 0.91748 0.58159 0.0
Co28 Co 0.30662 0.86939 0.94744 0.0
O29 O 0.25525 0.85716 0.96726 0.0
O30 O 0.30687 0.82263 0.97105 0.0
C31 C 0.30785 0.92332 0.97677 0.0
O32 O 0.36434 0.87235 0.93369 0.0
Co33 Co 0.32352 0.93217 0.88704 0.0
O34 O 0.37858 0.9234 0.90122 0.0
C35 C 0.28915 0.86686 0.85291 0.0
C36 C 0.27049 0.82763 0.97935 0.0
C37 C 0.38867 0.89473 0.91874 0.0
O38 O 0.29415 0.85081 0.88856 0.0
O39 O 0.2962 0.89948 0.84715 0.0
O40 O 0.31582 0.89592 0.99974 0.0
O41 O 0.29692 0.91741 0.93825 0.0
Co42 Co 0.20898 0.14393 0.44688 0.0
O43 O 0.26029 0.15634 0.46678 0.0
O44 O 0.20849 0.19065 0.47067 0.0
C45 C 0.20799 0.08993 0.47601 0.0
O46 O 0.15128 0.14073 0.43307 0.0
Co47 Co 0.1925 0.08123 0.3862 0.0
O48 O 0.13738 0.0897 0.40038 0.0
C49 C 0.22644 0.14682 0.35234 0.0
C50 C 0.2449 0.18578 0.47896 0.0
C51 C 0.1271 0.11826 0.41801 0.0
O52 O 0.22137 0.16273 0.38808 0.0
O53 O 0.21957 0.11419 0.34643 0.0
O54 O 0.19989 0.11724 0.49907 0.0
O55 O 0.21894 0.09597 0.43753 0.0
Co56 Co 0.66343 0.88749 0.90647 0.0
O57 O 0.71573 0.89402 0.88502 0.0
O58 O 0.66601 0.87579 0.84652 0.0
C59 C 0.65998 0.93857 0.94287 0.0
O60 O 0.60527 0.87947 0.91464 0.0
Co61 Co 0.64254 0.88335 1.00274 0.0
O62 O 0.58833 0.88793 0.983 0.0
C63 C 0.68188 0.82385 0.96079 0.0
C64 C 0.70238 0.88421 0.84828 0.0
C65 C 0.57974 0.88284 0.94418 0.0
O66 O 0.6764 0.83743 0.92367 0.0
O67 O 0.67331 0.83922 0.99566 0.0
O68 O 0.65374 0.93823 0.9021 0.0
O69 O 0.67056 0.90924 0.95953 0.0
Co70 Co 0.85217 0.12547 0.40614 0.0
O71 O 0.79979 0.11915 0.38479 0.0
O72 O 0.84952 0.13716 0.34619 0.0
C73 C 0.85544 0.0744 0.44257 0.0
O74 O 0.91039 0.13327 0.41417 0.0
Co75 Co 0.87331 0.12955 0.50236 0.0
O76 O 0.92745 0.12476 0.48248 0.0
C77 C 0.83415 0.1892 0.46049 0.0
C78 C 0.81312 0.1289 0.34802 0.0
C79 C 0.93597 0.12982 0.44364 0.0
O80 O 0.83947 0.1756 0.42336 0.0
O81 O 0.84274 0.17381 0.49534 0.0
O82 O 0.8616 0.07469 0.40179 0.0
O83 O 0.84505 0.10378 0.45924 0.0
Co84 Co 0.66327 0.12574 0.11315 0.0
O85 O 0.71556 0.11926 0.13469 0.0
O86 O 0.66579 0.13753 0.17308 0.0
C87 C 0.65989 0.0746 0.07687 0.0
O88 O 0.60511 0.13371 0.1049 0.0
Co89 Co 0.64242 0.12969 0.01685 0.0
O90 O 0.58821 0.12505 0.03657 0.0
C91 C 0.68173 0.18929 0.05866 0.0
C92 C 0.70216 0.12912 0.1714 0.0
C93 C 0.5796 0.13023 0.07536 0.0
O94 O 0.67624 0.17578 0.09582 0.0
O95 O 0.67316 0.17385 0.02384 0.0
O96 O 0.6536 0.075 0.11762 0.0
O97 O 0.67045 0.10391 0.06014 0.0
Co98 Co 0.85225 0.88758 0.61347 0.0
O99 O 0.79995 0.89408 0.63495 0.0
O100 O 0.84972 0.87594 0.67344 0.0
C101 C 0.8556 0.93861 0.57697 0.0
O102 O 0.91042 0.8796 0.60528 0.0
Co103 Co 0.87311 0.88335 0.5172 0.0
O104 O 0.92733 0.88794 0.53689 0.0
C105 C 0.83379 0.82389 0.55926 0.0
C106 C 0.81333 0.88431 0.67169 0.0
C107 C 0.93593 0.88291 0.57572 0.0
O108 O 0.83931 0.83749 0.59635 0.0
O109 O 0.84232 0.83924 0.52437 0.0
O110 O 0.86188 0.93834 0.61774 0.0
O111 O 0.84507 0.90925 0.56037 0.0
Co112 Co 0.8067 0.64385 0.07265 0.0
O113 O 0.75541 0.65625 0.05275 0.0
O114 O 0.80723 0.69053 0.0488 0.0
C115 C 0.80765 0.58983 0.0436 0.0
O116 O 0.86438 0.64065 0.08646 0.0
Co117 Co 0.82316 0.58121 0.13342 0.0
O118 O 0.87829 0.58968 0.11928 0.0
C119 C 0.78926 0.64686 0.16716 0.0
C120 C 0.77082 0.68567 0.04052 0.0
C121 C 0.88856 0.61822 0.10158 0.0
O122 O 0.79434 0.66273 0.13141 0.0
O123 O 0.7961 0.61424 0.17313 0.0
O124 O 0.81577 0.61711 0.0205 0.0
O125 O 0.79672 0.59591 0.08208 0.0
Co126 Co 0.70934 0.36939 0.57199 0.0
O127 O 0.76069 0.35704 0.55222 0.0
O128 O 0.70898 0.32261 0.54841 0.0
C129 C 0.70828 0.42328 0.54261 0.0
O130 O 0.65162 0.37251 0.5857 0.0
Co131 Co 0.69261 0.43227 0.63232 0.0
O132 O 0.63753 0.42364 0.61807 0.0
C133 C 0.72676 0.36689 0.66653 0.0
C134 C 0.74538 0.32754 0.54014 0.0
C135 C 0.62735 0.39498 0.60058 0.0
O136 O 0.72172 0.35082 0.63089 0.0
O137 O 0.7198 0.39953 0.67226 0.0
O138 O 0.70025 0.39589 0.51966 0.0
O139 O 0.71917 0.41738 0.58115 0.0
Co140 Co 0.80671 0.36943 0.94705 0.0
O141 O 0.75541 0.357 0.96691 0.0
O142 O 0.80717 0.32263 0.97057 0.0
C143 C 0.80775 0.42331 0.97649 0.0
O144 O 0.86441 0.37262 0.93322 0.0
Co145 Co 0.82325 0.43236 0.88674 0.0
O146 O 0.87837 0.42375 0.90079 0.0
C147 C 0.78917 0.36695 0.85252 0.0
C148 C 0.77078 0.32751 0.97893 0.0
C149 C 0.88862 0.3951 0.91825 0.0
O150 O 0.79426 0.35088 0.88815 0.0
O151 O 0.79608 0.3996 0.84681 0.0
O152 O 0.81586 0.39591 0.99938 0.0
O153 O 0.79679 0.41743 0.93797 0.0
Co154 Co 0.70908 0.64396 0.44712 0.0
O155 O 0.76032 0.65639 0.46717 0.0
O156 O 0.70846 0.69063 0.47102 0.0
C157 C 0.70813 0.58993 0.47611 0.0
O158 O 0.65142 0.64072 0.43317 0.0
Co159 Co 0.69279 0.58133 0.38627 0.0
O160 O 0.63763 0.58972 0.40034 0.0
C161 C 0.7268 0.64699 0.35269 0.0
C162 C 0.74485 0.68579 0.47939 0.0
C163 C 0.62729 0.61825 0.41802 0.0
O164 O 0.72156 0.66287 0.38841 0.0
O165 O 0.72001 0.61436 0.34671 0.0
O166 O 0.69993 0.61718 0.49922 0.0
O167 O 0.71913 0.59605 0.43766 0.0
Co168 Co 0.16353 0.38782 0.906 0.0
O169 O 0.21589 0.39427 0.88465 0.0
O170 O 0.16618 0.37624 0.84601 0.0
C171 C 0.16017 0.43882 0.94258 0.0
O172 O 0.10533 0.37991 0.91403 0.0
Co173 Co 0.14245 0.38351 1.00221 0.0
O174 O 0.08829 0.38827 0.98238 0.0
C175 C 0.18174 0.32402 0.96018 0.0
C176 C 0.20257 0.38455 0.84785 0.0
C177 C 0.07976 0.38328 0.94353 0.0
O178 O 0.17635 0.33768 0.92308 0.0
O179 O 0.17314 0.33934 0.99507 0.0
O180 O 0.15399 0.43859 0.9018 0.0
O181 O 0.17063 0.40943 0.95916 0.0
Co182 Co 0.35239 0.62586 0.40627 0.0
O183 O 0.30002 0.61954 0.3849 0.0
O184 O 0.34976 0.63763 0.34634 0.0
C185 C 0.35569 0.57473 0.44258 0.0
O186 O 0.4106 0.63366 0.41431 0.0
Co187 Co 0.37354 0.62981 0.50248 0.0
O188 O 0.42766 0.62493 0.48258 0.0
C189 C 0.33432 0.6895 0.46078 0.0
C190 C 0.31336 0.62933 0.34814 0.0
C191 C 0.43619 0.63007 0.44376 0.0
O192 O 0.33965 0.67596 0.42361 0.0
O193 O 0.34294 0.67406 0.49558 0.0
O194 O 0.36186 0.57509 0.4018 0.0
O195 O 0.34528 0.60408 0.45932 0.0
Co196 Co 0.16339 0.62571 0.1134 0.0
O197 O 0.21574 0.61937 0.13482 0.0
O198 O 0.16598 0.63745 0.17334 0.0
C199 C 0.16011 0.57461 0.07702 0.0
O200 O 0.1052 0.63353 0.1053 0.0
Co201 Co 0.14234 0.62973 0.01716 0.0
O202 O 0.08818 0.62493 0.03699 0.0
C203 C 0.18151 0.68939 0.05899 0.0
C204 C 0.20238 0.62916 0.17156 0.0
C205 C 0.07964 0.63003 0.07582 0.0
O206 O 0.17615 0.67581 0.09613 0.0
O207 O 0.17293 0.67397 0.02415 0.0
O208 O 0.15391 0.57494 0.11779 0.0
O209 O 0.17054 0.60397 0.06033 0.0
Co210 Co 0.3525 0.38761 0.61302 0.0
O211 O 0.30021 0.3941 0.63453 0.0
O212 O 0.34997 0.37593 0.67299 0.0
C213 C 0.35585 0.43868 0.57659 0.0
O214 O 0.41068 0.37965 0.6048 0.0
Co215 Co 0.37336 0.38346 0.51675 0.0
O216 O 0.42757 0.38821 0.53645 0.0
C217 C 0.33405 0.32394 0.5587 0.0
C218 C 0.31359 0.38433 0.67127 0.0
C219 C 0.43619 0.38311 0.57525 0.0
O220 O 0.33955 0.33752 0.59582 0.0
O221 O 0.34261 0.33932 0.52384 0.0
O222 O 0.36214 0.43836 0.61735 0.0
O223 O 0.34531 0.40933 0.55995 0.0
C224 C 0.23202 0.23428 0.99703 0.0
C225 C 0.24866 0.21157 0.01667 0.0
C226 C 0.21404 0.26304 0.97645 0.0
C227 C 0.19964 0.29011 0.96419 0.0
C228 C 0.30204 0.75046 0.47729 0.0
C229 C 0.31644 0.72341 0.46497 0.0
C230 C 0.284 0.77921 0.49783 0.0
C231 C 0.26727 0.80192 0.51737 0.0
C232 C 0.23176 0.77914 0.02206 0.0
C233 C 0.24848 0.80186 1.00252 0.0
C234 C 0.21375 0.75037 0.04259 0.0
C235 C 0.19936 0.7233 0.05486 0.0
C236 C 0.30157 0.26305 0.54234 0.0
C237 C 0.31606 0.29007 0.55462 0.0
C238 C 0.28348 0.23432 0.52178 0.0
C239 C 0.26679 0.2116 0.5022 0.0
C240 C 0.7323 0.73419 0.99765 0.0
C241 C 0.74896 0.71147 0.01726 0.0
C242 C 0.71428 0.76293 0.9771 0.0
C243 C 0.69982 0.78997 0.96485 0.0
C244 C 0.80198 0.25021 0.47687 0.0
C245 C 0.81632 0.22313 0.4646 0.0
C246 C 0.784 0.27899 0.49741 0.0
C247 C 0.76732 0.30173 0.51695 0.0
C248 C 0.7322 0.27893 0.02166 0.0
C249 C 0.74889 0.30167 1.00212 0.0
C250 C 0.71415 0.25019 0.04221 0.0
C251 C 0.69968 0.22316 0.05451 0.0
C252 C 0.80134 0.76299 0.54299 0.0
C253 C 0.81582 0.79002 0.55525 0.0
C254 C 0.7833 0.73427 0.5224 0.0
C255 C 0.76666 0.71158 0.50272 0.0
C256 C 0.31284 0.02447 0.01629 0.0
C257 C 0.31085 0.05475 0.02735 0.0
C258 C 0.31289 0.98876 1.00401 0.0
C259 C 0.31099 0.9585 0.99284 0.0
C260 C 0.20289 0.98878 0.51563 0.0
C261 C 0.20478 0.95855 0.52693 0.0
C262 C 0.20293 0.02444 0.50315 0.0
C263 C 0.20487 0.05469 0.49193 0.0
C264 C 0.65244 0.99306 0.99437 0.0
C265 C 0.6552 0.96939 0.96892 0.0
C266 C 0.65241 0.02004 0.02545 0.0
C267 C 0.65514 0.04374 0.05088 0.0
C268 C 0.86293 0.01995 0.49416 0.0
C269 C 0.86018 0.04359 0.46866 0.0
C270 C 0.86298 0.99304 0.52534 0.0
C271 C 0.8603 0.96941 0.55086 0.0
C272 C 0.81266 0.48869 1.00398 0.0
C273 C 0.81081 0.45847 0.99264 0.0
C274 C 0.81263 0.52434 0.01649 0.0
C275 C 0.81072 0.55459 0.02771 0.0
C276 C 0.70321 0.48871 0.51534 0.0
C277 C 0.70513 0.45846 0.52654 0.0
C278 C 0.70319 0.52439 0.50302 0.0
C279 C 0.70506 0.55467 0.49193 0.0
C280 C 0.15267 0.52012 0.02547 0.0
C281 C 0.15539 0.54377 0.05096 0.0
C282 C 0.15269 0.49321 0.99429 0.0
C283 C 0.15543 0.46959 0.96875 0.0
C284 C 0.36318 0.52018 0.494 0.0
C285 C 0.36043 0.54388 0.46858 0.0
C286 C 0.36322 0.49319 0.52508 0.0
C287 C 0.36054 0.46951 0.55053 0.0
C288 C 0.5046 0.13204 0.09189 0.0
C289 C 0.53919 0.1315 0.08633 0.0
C290 C 0.46384 0.12997 0.09561 0.0
C291 C 0.42923 0.12576 0.09748 0.0
C292 C 0.01094 0.88108 0.5922 0.0
C293 C 0.97634 0.88164 0.5867 0.0
C294 C 0.0517 0.88319 0.59581 0.0
C295 C 0.0863 0.88747 0.59759 0.0
C296 C 0.46399 0.88311 0.92403 0.0
C297 C 0.42939 0.88741 0.92224 0.0
C298 C 0.50475 0.881 0.92766 0.0
C299 C 0.53934 0.88155 0.93319 0.0
C300 C 0.05171 0.12952 0.42331 0.0
C301 C 0.08633 0.12537 0.42151 0.0
C302 C 0.01095 0.13156 0.42698 0.0
C303 C 0.97636 0.13105 0.43256 0.0
C304 C 1.00467 0.63169 0.09251 0.0
C305 C 0.03925 0.63122 0.08689 0.0
C306 C 0.96392 0.62956 0.09623 0.0
C307 C 0.92932 0.62534 0.09808 0.0
C308 C 0.55199 0.38353 0.59529 0.0
C309 C 0.5866 0.38775 0.59709 0.0
C310 C 0.51122 0.38141 0.59169 0.0
C311 C 0.47661 0.3819 0.58621 0.0
C312 C 1.00476 0.38159 0.92694 0.0
C313 C 0.03936 0.38208 0.93247 0.0
C314 C 0.96399 0.38369 0.92336 0.0
C315 C 0.92938 0.38791 0.92164 0.0
C316 C 0.5519 0.62951 0.4233 0.0
C317 C 0.58651 0.62532 0.42148 0.0
C318 C 0.51115 0.63165 0.42703 0.0
C319 C 0.47657 0.63122 0.43265 0.0
C320 C 0.2639 0.17406 0.23809 0.0
C321 C 0.27492 0.16605 0.20298 0.0
C322 C 0.25129 0.174 0.28087 0.0
C323 C 0.24034 0.16589 0.31598 0.0
C324 C 0.26409 0.84002 0.78134 0.0
C325 C 0.27511 0.84798 0.81647 0.0
C326 C 0.25147 0.84005 0.73855 0.0
C327 C 0.24048 0.84804 0.70342 0.0
C328 C 0.74638 0.88305 0.7788 0.0
C329 C 0.72655 0.88366 0.81065 0.0
C330 C 0.76936 0.88307 0.74118 0.0
C331 C 0.78917 0.88372 0.70933 0.0
C332 C 0.76905 0.13023 0.27859 0.0
C333 C 0.78888 0.12953 0.31043 0.0
C334 C 0.74608 0.13029 0.24095 0.0
C335 C 0.72628 0.12967 0.20908 0.0
C336 C 0.75181 0.67419 0.28134 0.0
C337 C 0.74078 0.66611 0.31642 0.0
C338 C 0.76442 0.67413 0.23856 0.0
C339 C 0.77537 0.66599 0.20347 0.0
C340 C 0.75169 0.34002 0.73814 0.0
C341 C 0.74071 0.34799 0.703 0.0
C342 C 0.76427 0.34003 0.78093 0.0
C343 C 0.77523 0.34803 0.81606 0.0
C344 C 0.26964 0.38324 0.7408 0.0
C345 C 0.28946 0.38382 0.70894 0.0
C346 C 0.24665 0.38331 0.77843 0.0
C347 C 0.22681 0.38396 0.81027 0.0
C348 C 0.26934 0.63055 0.27868 0.0
C349 C 0.28917 0.62991 0.31053 0.0
C350 C 0.24637 0.63051 0.24104 0.0
C351 C 0.22656 0.62981 0.20918 0.0
loop_
_geom_bond_atom_site_label_1
_geom_bond_atom_site_label_2
_geom_bond_distance
_geom_bond_site_symmetry_2
_ccdc_geom_bond_type
Co0 O1 2.216 . S
Co0 O2 2.091 . S
Co0 O4 2.004 . S
Co0 O10 2.021 . S
Co0 O12 2.137 . S
Co0 O13 2.244 . S
O1 Co0 2.216 . S
O1 C8 1.247 . S
O2 Co0 2.091 . S
O2 C8 1.261 . S
C3 O12 1.247 . S
C3 O13 1.272 . S
O4 Co0 2.004 . S
O4 C9 1.259 . S
Co5 O6 2.061 . S
Co5 O11 2.052 . S
Co5 O13 2.135 . S
O6 Co5 2.061 . S
O6 C9 1.235 . S
C7 O10 1.238 . S
C7 O11 1.241 . S
C8 O1 1.247 . S
C8 O2 1.261 . S
C9 O4 1.259 . S
C9 O6 1.235 . S
O10 Co0 2.021 . S
O10 C7 1.238 . S
O11 Co5 2.052 . S
O11 C7 1.241 . S
O12 Co0 2.137 . S
O12 C3 1.247 . S
O13 Co0 2.244 . S
O13 C3 1.272 . S
O13 Co5 2.135 . S
Co14 O15 2.216 . S
Co14 O16 2.091 . S
Co14 O18 2.004 . S
Co14 O24 2.021 . S
Co14 O26 2.137 . S
Co14 O27 2.244 . S
O15 Co14 2.216 . S
O15 C22 1.247 . S
O16 Co14 2.091 . S
O16 C22 1.261 . S
C17 O26 1.247 . S
C17 O27 1.272 . S
O18 Co14 2.004 . S
O18 C23 1.259 . S
Co19 O20 2.061 . S
Co19 O25 2.052 . S
Co19 O27 2.135 . S
O20 Co19 2.061 . S
O20 C23 1.235 . S
C21 O24 1.238 . S
C21 O25 1.241 . S
C22 O15 1.247 . S
C22 O16 1.261 . S
C23 O18 1.259 . S
C23 O20 1.235 . S
O24 Co14 2.021 . S
O24 C21 1.238 . S
O25 Co19 2.052 . S
O25 C21 1.241 . S
O26 Co14 2.137 . S
O26 C17 1.247 . S
O27 Co14 2.244 . S
O27 C17 1.272 . S
O27 Co19 2.135 . S
Co28 O29 2.216 . S
Co28 O30 2.091 . S
Co28 O32 2.004 . S
Co28 O38 2.021 . S
Co28 O40 2.137 . S
Co28 O41 2.244 . S
O29 Co28 2.216 . S
O29 C36 1.247 . S
O30 Co28 2.091 . S
O30 C36 1.261 . S
C31 O40 1.247 . S
C31 O41 1.272 . S
O32 Co28 2.004 . S
O32 C37 1.259 . S
Co33 O34 2.061 . S
Co33 O39 2.052 . S
Co33 O41 2.135 . S
O34 Co33 2.061 . S
O34 C37 1.235 . S
C35 O38 1.238 . S
C35 O39 1.241 . S
C36 O29 1.247 . S
C36 O30 1.261 . S
C37 O32 1.259 . S
C37 O34 1.235 . S
O38 Co28 2.021 . S
O38 C35 1.238 . S
O39 Co33 2.052 . S
O39 C35 1.241 . S
O40 Co28 2.137 . S
O40 C31 1.247 . S
O41 Co28 2.244 . S
O41 C31 1.272 . S
O41 Co33 2.135 . S
Co42 O43 2.216 . S
Co42 O44 2.091 . S
Co42 O46 2.004 . S
Co42 O52 2.021 . S
Co42 O54 2.137 . S
Co42 O55 2.244 . S
O43 Co42 2.216 . S
O43 C50 1.247 . S
O44 Co42 2.091 . S
O44 C50 1.261 . S
C45 O54 1.247 . S
C45 O55 1.272 . S
O46 Co42 2.004 . S
O46 C51 1.259 . S
Co47 O48 2.061 . S
Co47 O53 2.052 . S
Co47 O55 2.135 . S
O48 Co47 2.061 . S
O48 C51 1.235 . S
C49 O52 1.238 . S
C49 O53 1.241 . S
C50 O43 1.247 . S
C50 O44 1.261 . S
C51 O46 1.259 . S
C51 O48 1.235 . S
O52 Co42 2.021 . S
O52 C49 1.238 . S
O53 Co47 2.052 . S
O53 C49 1.241 . S
O54 Co42 2.137 . S
O54 C45 1.247 . S
O55 Co42 2.244 . S
O55 C45 1.272 . S
O55 Co47 2.135 . S
Co56 O57 2.216 . S
Co56 O58 2.091 . S
Co56 O60 2.004 . S
Co56 O66 2.021 . S
Co56 O68 2.137 . S
Co56 O69 2.244 . S
O57 Co56 2.216 . S
O57 C64 1.247 . S
O58 Co56 2.091 . S
O58 C64 1.261 . S
C59 O68 1.247 . S
C59 O69 1.272 . S
O60 Co56 2.004 . S
O60 C65 1.259 . S
Co61 O62 2.061 . S
Co61 O67 2.052 . S
Co61 O69 2.135 . S
O62 Co61 2.061 . S
O62 C65 1.235 . S
C63 O66 1.238 . S
C63 O67 1.241 . S
C64 O57 1.247 . S
C64 O58 1.261 . S
C65 O60 1.259 . S
C65 O62 1.235 . S
O66 Co56 2.021 . S
O66 C63 1.238 . S
O67 Co61 2.052 . S
O67 C63 1.241 . S
O68 Co56 2.137 . S
O68 C59 1.247 . S
O69 Co56 2.244 . S
O69 C59 1.272 . S
O69 Co61 2.135 . S
Co70 O71 2.216 . S
Co70 O72 2.091 . S
Co70 O74 2.004 . S
Co70 O80 2.021 . S
Co70 O82 2.137 . S
Co70 O83 2.244 . S
O71 Co70 2.216 . S
O71 C78 1.247 . S
O72 Co70 2.091 . S
O72 C78 1.261 . S
C73 O82 1.247 . S
C73 O83 1.272 . S
O74 Co70 2.004 . S
O74 C79 1.259 . S
Co75 O76 2.061 . S
Co75 O81 2.052 . S
Co75 O83 2.135 . S
O76 Co75 2.061 . S
O76 C79 1.235 . S
C77 O80 1.238 . S
C77 O81 1.241 . S
C78 O71 1.247 . S
C78 O72 1.261 . S
C79 O74 1.259 . S
C79 O76 1.235 . S
O80 Co70 2.021 . S
O80 C77 1.238 . S
O81 Co75 2.052 . S
O81 C77 1.241 . S
O82 Co70 2.137 . S
O82 C73 1.247 . S
O83 Co70 2.244 . S
O83 C73 1.272 . S
O83 Co75 2.135 . S
Co84 O85 2.216 . S
Co84 O86 2.091 . S
Co84 O88 2.004 . S
Co84 O94 2.021 . S
Co84 O96 2.137 . S
Co84 O97 2.244 . S
O85 Co84 2.216 . S
O85 C92 1.247 . S
O86 Co84 2.091 . S
O86 C92 1.261 . S
C87 O96 1.247 . S
C87 O97 1.272 . S
O88 Co84 2.004 . S
O88 C93 1.259 . S
Co89 O90 2.061 . S
Co89 O95 2.052 . S
Co89 O97 2.135 . S
O90 Co89 2.061 . S
O90 C93 1.235 . S
C91 O94 1.238 . S
C91 O95 1.241 . S
C92 O85 1.247 . S
C92 O86 1.261 . S
C93 O88 1.259 . S
C93 O90 1.235 . S
O94 Co84 2.021 . S
O94 C91 1.238 . S
O95 Co89 2.052 . S
O95 C91 1.241 . S
O96 Co84 2.137 . S
O96 C87 1.247 . S
O97 Co84 2.244 . S
O97 C87 1.272 . S
O97 Co89 2.135 . S
Co98 O99 2.216 . S
Co98 O100 2.091 . S
Co98 O102 2.004 . S
Co98 O108 2.021 . S
Co98 O110 2.137 . S
Co98 O111 2.244 . S
O99 Co98 2.216 . S
O99 C106 1.247 . S
O100 Co98 2.091 . S
O100 C106 1.261 . S
C101 O110 1.247 . S
C101 O111 1.272 . S
O102 Co98 2.004 . S
O102 C107 1.259 . S
Co103 O104 2.061 . S
Co103 O109 2.052 . S
Co103 O111 2.135 . S
O104 Co103 2.061 . S
O104 C107 1.235 . S
C105 O108 1.238 . S
C105 O109 1.241 . S
C106 O99 1.247 . S
C106 O100 1.261 . S
C107 O102 1.259 . S
C107 O104 1.235 . S
O108 Co98 2.021 . S
O108 C105 1.238 . S
O109 Co103 2.052 . S
O109 C105 1.241 . S
O110 Co98 2.137 . S
O110 C101 1.247 . S
O111 Co98 2.244 . S
O111 C101 1.272 . S
O111 Co103 2.135 . S
Co112 O113 2.216 . S
Co112 O114 2.091 . S
Co112 O116 2.004 . S
Co112 O122 2.021 . S
Co112 O124 2.137 . S
Co112 O125 2.244 . S
O113 Co112 2.216 . S
O113 C120 1.247 . S
O114 Co112 2.091 . S
O114 C120 1.261 . S
C115 O124 1.247 . S
C115 O125 1.272 . S
O116 Co112 2.004 . S
O116 C121 1.259 . S
Co117 O118 2.061 . S
Co117 O123 2.052 . S
Co117 O125 2.135 . S
O118 Co117 2.061 . S
O118 C121 1.235 . S
C119 O122 1.238 . S
C119 O123 1.241 . S
C120 O113 1.247 . S
C120 O114 1.261 . S
C121 O116 1.259 . S
C121 O118 1.235 . S
O122 Co112 2.021 . S
O122 C119 1.238 . S
O123 Co117 2.052 . S
O123 C119 1.241 . S
O124 Co112 2.137 . S
O124 C115 1.247 . S
O125 Co112 2.244 . S
O125 C115 1.272 . S
O125 Co117 2.135 . S
Co126 O127 2.216 . S
Co126 O128 2.091 . S
Co126 O130 2.004 . S
Co126 O136 2.021 . S
Co126 O138 2.137 . S
Co126 O139 2.244 . S
O127 Co126 2.216 . S
O127 C134 1.247 . S
O128 Co126 2.091 . S
O128 C134 1.261 . S
C129 O138 1.247 . S
C129 O139 1.272 . S
O130 Co126 2.004 . S
O130 C135 1.259 . S
Co131 O132 2.061 . S
Co131 O137 2.052 . S
Co131 O139 2.135 . S
O132 Co131 2.061 . S
O132 C135 1.235 . S
C133 O136 1.238 . S
C133 O137 1.241 . S
C134 O127 1.247 . S
C134 O128 1.261 . S
C135 O130 1.259 . S
C135 O132 1.235 . S
O136 Co126 2.021 . S
O136 C133 1.238 . S
O137 Co131 2.052 . S
O137 C133 1.241 . S
O138 Co126 2.137 . S
O138 C129 1.247 . S
O139 Co126 2.244 . S
O139 C129 1.272 . S
O139 Co131 2.135 . S
Co140 O141 2.216 . S
Co140 O142 2.091 . S
Co140 O144 2.004 . S
Co140 O150 2.021 . S
Co140 O152 2.137 . S
Co140 O153 2.244 . S
O141 Co140 2.216 . S
O141 C148 1.247 . S
O142 Co140 2.091 . S
O142 C148 1.261 . S
C143 O152 1.247 . S
C143 O153 1.272 . S
O144 Co140 2.004 . S
O144 C149 1.259 . S
Co145 O146 2.061 . S
Co145 O151 2.052 . S
Co145 O153 2.135 . S
O146 Co145 2.061 . S
O146 C149 1.235 . S
C147 O150 1.238 . S
C147 O151 1.241 . S
C148 O141 1.247 . S
C148 O142 1.261 . S
C149 O144 1.259 . S
C149 O146 1.235 . S
O150 Co140 2.021 . S
O150 C147 1.238 . S
O151 Co145 2.052 . S
O151 C147 1.241 . S
O152 Co140 2.137 . S
O152 C143 1.247 . S
O153 Co140 2.244 . S
O153 C143 1.272 . S
O153 Co145 2.135 . S
Co154 O155 2.216 . S
Co154 O156 2.091 . S
Co154 O158 2.004 . S
Co154 O164 2.021 . S
Co154 O166 2.137 . S
Co154 O167 2.244 . S
O155 Co154 2.216 . S
O155 C162 1.247 . S
O156 Co154 2.091 . S
O156 C162 1.261 . S
C157 O166 1.247 . S
C157 O167 1.272 . S
O158 Co154 2.004 . S
O158 C163 1.259 . S
Co159 O160 2.061 . S
Co159 O165 2.052 . S
Co159 O167 2.135 . S
O160 Co159 2.061 . S
O160 C163 1.235 . S
C161 O164 1.238 . S
C161 O165 1.241 . S
C162 O155 1.247 . S
C162 O156 1.261 . S
C163 O158 1.259 . S
C163 O160 1.235 . S
O164 Co154 2.021 . S
O164 C161 1.238 . S
O165 Co159 2.052 . S
O165 C161 1.241 . S
O166 Co154 2.137 . S
O166 C157 1.247 . S
O167 Co154 2.244 . S
O167 C157 1.272 . S
O167 Co159 2.135 . S
Co168 O169 2.216 . S
Co168 O170 2.091 . S
Co168 O172 2.004 . S
Co168 O178 2.021 . S
Co168 O180 2.137 . S
Co168 O181 2.244 . S
O169 Co168 2.216 . S
O169 C176 1.247 . S
O170 Co168 2.091 . S
O170 C176 1.261 . S
C171 O180 1.247 . S
C171 O181 1.272 . S
O172 Co168 2.004 . S
O172 C177 1.259 . S
Co173 O174 2.061 . S
Co173 O179 2.052 . S
Co173 O181 2.135 . S
O174 Co173 2.061 . S
O174 C177 1.235 . S
C175 O178 1.238 . S
C175 O179 1.241 . S
C176 O169 1.247 . S
C176 O170 1.261 . S
C177 O172 1.259 . S
C177 O174 1.235 . S
O178 Co168 2.021 . S
O178 C175 1.238 . S
O179 Co173 2.052 . S
O179 C175 1.241 . S
O180 Co168 2.137 . S
O180 C171 1.247 . S
O181 Co168 2.244 . S
O181 C171 1.272 . S
O181 Co173 2.135 . S
Co182 O183 2.216 . S
Co182 O184 2.091 . S
Co182 O186 2.004 . S
Co182 O192 2.021 . S
Co182 O194 2.137 . S
Co182 O195 2.244 . S
O183 Co182 2.216 . S
O183 C190 1.247 . S
O184 Co182 2.091 . S
O184 C190 1.261 . S
C185 O194 1.247 . S
C185 O195 1.272 . S
O186 Co182 2.004 . S
O186 C191 1.259 . S
Co187 O188 2.061 . S
Co187 O193 2.052 . S
Co187 O195 2.135 . S
O188 Co187 2.061 . S
O188 C191 1.235 . S
C189 O192 1.238 . S
C189 O193 1.241 . S
C190 O183 1.247 . S
C190 O184 1.261 . S
C191 O186 1.259 . S
C191 O188 1.235 . S
O192 Co182 2.021 . S
O192 C189 1.238 . S
O193 Co187 2.052 . S
O193 C189 1.241 . S
O194 Co182 2.137 . S
O194 C185 1.247 . S
O195 Co182 2.244 . S
O195 C185 1.272 . S
O195 Co187 2.135 . S
Co196 O197 2.216 . S
Co196 O198 2.091 . S
Co196 O200 2.004 . S
Co196 O206 2.021 . S
Co196 O208 2.137 . S
Co196 O209 2.244 . S
O197 Co196 2.216 . S
O197 C204 1.247 . S
O198 Co196 2.091 . S
O198 C204 1.261 . S
C199 O208 1.247 . S
C199 O209 1.272 . S
O200 Co196 2.004 . S
O200 C205 1.259 . S
Co201 O202 2.061 . S
Co201 O207 2.052 . S
Co201 O209 2.135 . S
O202 Co201 2.061 . S
O202 C205 1.235 . S
C203 O206 1.238 . S
C203 O207 1.241 . S
C204 O197 1.247 . S
C204 O198 1.261 . S
C205 O200 1.259 . S
C205 O202 1.235 . S
O206 Co196 2.021 . S
O206 C203 1.238 . S
O207 Co201 2.052 . S
O207 C203 1.241 . S
O208 Co196 2.137 . S
O208 C199 1.247 . S
O209 Co196 2.244 . S
O209 C199 1.272 . S
O209 Co201 2.135 . S
Co210 O211 2.216 . S
Co210 O212 2.091 . S
Co210 O214 2.004 . S
Co210 O220 2.021 . S
Co210 O222 2.137 . S
Co210 O223 2.244 . S
O211 Co210 2.216 . S
O211 C218 1.247 . S
O212 Co210 2.091 . S
O212 C218 1.261 . S
C213 O222 1.247 . S
C213 O223 1.272 . S
O214 Co210 2.004 . S
O214 C219 1.259 . S
Co215 O216 2.061 . S
Co215 O221 2.052 . S
Co215 O223 2.135 . S
O216 Co215 2.061 . S
O216 C219 1.235 . S
C217 O220 1.238 . S
C217 O221 1.241 . S
C218 O211 1.247 . S
C218 O212 1.261 . S
C219 O214 1.259 . S
C219 O216 1.235 . S
O220 Co210 2.021 . S
O220 C217 1.238 . S
O221 Co215 2.052 . S
O221 C217 1.241 . S
O222 Co210 2.137 . S
O222 C213 1.247 . S
O223 Co210 2.244 . S
O223 C213 1.272 . S
O223 Co215 2.135 . S
C224 C225 1.170 1_556 S
C224 C226 1.380 . S
C225 C224 1.170 1_554 S
C226 C224 1.380 . S
C226 C227 1.170 . S
C227 C226 1.170 . S
C228 C229 1.170 . S
C228 C230 1.380 . S
C229 C228 1.170 . S
C230 C228 1.380 . S
C230 C231 1.170 . S
C231 C230 1.170 . S
C232 C233 1.170 . S
C232 C234 1.380 1_556 S
C233 C232 1.170 . S
C234 C232 1.380 1_554 S
C234 C235 1.170 . S
C235 C234 1.170 . S
C236 C237 1.170 . S
C236 C238 1.380 . S
C237 C236 1.170 . S
C238 C236 1.380 . S
C238 C239 1.170 . S
C239 C238 1.170 . S
C240 C241 1.170 1_556 S
C240 C242 1.380 . S
C241 C240 1.170 1_554 S
C242 C240 1.380 . S
C242 C243 1.170 . S
C243 C242 1.170 . S
C244 C245 1.170 . S
C244 C246 1.380 . S
C245 C244 1.170 . S
C246 C244 1.380 . S
C246 C247 1.170 . S
C247 C246 1.170 . S
C248 C249 1.170 . S
C248 C250 1.380 1_556 S
C249 C248 1.170 . S
C250 C248 1.380 1_554 S
C250 C251 1.170 . S
C251 C250 1.170 . S
C252 C253 1.170 . S
C252 C254 1.380 . S
C253 C252 1.170 . S
C254 C252 1.380 . S
C254 C255 1.170 . S
C255 C254 1.170 . S
C256 C257 1.170 . S
C256 C258 1.380 1_544 S
C257 C256 1.170 . S
C258 C256 1.380 1_566 S
C258 C259 1.170 . S
C259 C258 1.170 . S
C260 C261 1.170 . S
C260 C262 1.380 1_565 S
C261 C260 1.170 . S
C262 C260 1.380 1_545 S
C262 C263 1.170 . S
C263 C262 1.170 . S
C264 C265 1.170 . S
C264 C266 1.380 1_566 S
C265 C264 1.170 . S
C266 C264 1.380 1_544 S
C266 C267 1.170 . S
C267 C266 1.170 . S
C268 C269 1.170 . S
C268 C270 1.380 1_545 S
C269 C268 1.170 . S
C270 C268 1.380 1_565 S
C270 C271 1.170 . S
C271 C270 1.170 . S
C272 C273 1.170 . S
C272 C274 1.380 1_556 S
C273 C272 1.170 . S
C274 C272 1.380 1_554 S
C274 C275 1.170 . S
C275 C274 1.170 . S
C276 C277 1.170 . S
C276 C278 1.380 . S
C277 C276 1.170 . S
C278 C276 1.380 . S
C278 C279 1.170 . S
C279 C278 1.170 . S
C280 C281 1.170 . S
C280 C282 1.380 1_554 S
C281 C280 1.170 . S
C282 C280 1.380 1_556 S
C282 C283 1.170 . S
C283 C282 1.170 . S
C284 C285 1.170 . S
C284 C286 1.380 . S
C285 C284 1.170 . S
C286 C284 1.380 . S
C286 C287 1.170 . S
C287 C286 1.170 . S
C288 C289 1.170 . S
C288 C290 1.380 . S
C289 C288 1.170 . S
C290 C288 1.380 . S
C290 C291 1.170 . S
C291 C290 1.170 . S
C292 C293 1.170 1_455 S
C292 C294 1.380 . S
C293 C292 1.170 1_655 S
C294 C292 1.380 . S
C294 C295 1.170 . S
C295 C294 1.170 . S
C296 C297 1.170 . S
C296 C298 1.380 . S
C297 C296 1.170 . S
C298 C296 1.380 . S
C298 C299 1.170 . S
C299 C298 1.170 . S
C300 C301 1.170 . S
C300 C302 1.380 . S
C301 C300 1.170 . S
C302 C300 1.380 . S
C302 C303 1.170 1_455 S
C303 C302 1.170 1_655 S
C304 C305 1.170 1_655 S
C304 C306 1.380 . S
C305 C304 1.170 1_455 S
C306 C304 1.380 . S
C306 C307 1.170 . S
C307 C306 1.170 . S
C308 C309 1.170 . S
C308 C310 1.380 . S
C309 C308 1.170 . S
C310 C308 1.380 . S
C310 C311 1.170 . S
C311 C310 1.170 . S
C312 C313 1.170 1_655 S
C312 C314 1.380 . S
C313 C312 1.170 1_455 S
C314 C312 1.380 . S
C314 C315 1.170 . S
C315 C314 1.170 . S
C316 C317 1.170 . S
C316 C318 1.380 . S
C317 C316 1.170 . S
C318 C316 1.380 . S
C318 C319 1.170 . S
C319 C318 1.170 . S
C320 C321 1.170 . S
C320 C322 1.380 . S
C321 C320 1.170 . S
C322 C320 1.380 . S
C322 C323 1.170 . S
C323 C322 1.170 . S
C324 C325 1.170 . S
C324 C326 1.380 . S
C325 C324 1.170 . S
C326 C324 1.380 . S
C326 C327 1.170 . S
C327 C326 1.170 . S
C328 C329 1.170 . S
C328 C330 1.380 . S
C329 C328 1.170 . S
C330 C328 1.380 . S
C330 C331 1.170 . S
C331 C330 1.170 . S
C332 C333 1.170 . S
C332 C334 1.380 . S
C333 C332 1.170 . S
C334 C332 1.380 . S
C334 C335 1.170 . S
C335 C334 1.170 . S
C336 C337 1.170 . S
C336 C338 1.380 . S
C337 C336 1.170 . S
C338 C336 1.380 . S
C338 C339 1.170 . S
C339 C338 1.170 . S
C340 C341 1.170 . S
C340 C342 1.380 . S
C341 C340 1.170 . S
C342 C340 1.380 . S
C342 C343 1.170 . S
C343 C342 1.170 . S
C344 C345 1.170 . S
C344 C346 1.380 . S
C345 C344 1.170 . S
C346 C344 1.380 . S
C346 C347 1.170 . S
C347 C346 1.170 . S
C348 C349 1.170 . S
C348 C350 1.380 . S
C349 C348 1.170 . S
C350 C348 1.380 . S
C350 C351 1.170 . S
C351 C350 1.170 . S
C225 C8 1.507 . S
C227 C175 1.496 . S
C229 C189 1.483 . S
C231 C22 1.517 . S
C233 C36 1.514 . S
C235 C203 1.467 . S
C237 C217 1.489 . S
C239 C50 1.516 . S
C241 C120 1.510 . S
C243 C63 1.496 . S
C245 C77 1.487 . S
C247 C134 1.517 . S
C249 C148 1.517 . S
C251 C91 1.477 . S
C253 C105 1.487 . S
C255 C162 1.499 . S
C257 C3 1.550 . S
C259 C31 1.563 . S
C261 C17 1.557 . S
C263 C45 1.549 . S
C265 C59 1.544 . S
C267 C87 1.543 . S
C269 C73 1.555 . S
C271 C101 1.548 . S
C273 C143 1.567 . S
C275 C115 1.562 . S
C277 C129 1.568 . S
C279 C157 1.556 . S
C281 C199 1.540 . S
C283 C171 1.548 . S
C285 C185 1.544 . S
C287 C213 1.543 . S
C289 C93 1.523 . S
C291 C9 1.542 . S
C293 C107 1.543 . S
C295 C23 1.551 . S
C297 C37 1.547 . S
C299 C65 1.531 . S
C301 C51 1.541 . S
C303 C79 1.529 . S
C305 C205 1.537 . S
C307 C121 1.546 . S
C309 C135 1.539 . S
C311 C219 1.520 . S
C313 C177 1.536 . S
C315 C149 1.545 . S
C317 C163 1.539 . S
C319 C191 1.522 . S
C321 C7 1.319 . S
C323 C49 1.313 . S
C325 C35 1.311 . S
C327 C21 1.307 . S
C329 C64 1.591 . S
C331 C106 1.583 . S
C333 C78 1.593 . S
C335 C92 1.586 . S
C337 C161 1.315 . S
C339 C119 1.310 . S
C341 C133 1.301 . S
C343 C147 1.300 . S
C345 C218 1.590 . S
C347 C176 1.590 . S
C349 C190 1.592 . S
C351 C204 1.583 . S
