# Generated by pormake.
# Topology sow, (4)-cn, num edge types: 1
# Building blocks:
#     Node 0, Type 0, BuildingBlock: CEKHIL_clean_sbu_0, # of connection points: 4
#     Node 1, Type 0, BuildingBlock: CEKHIL_clean_sbu_0, # of connection points: 4
#     Node 2, Type 0, BuildingBlock: CEKHIL_clean_sbu_0, # of connection points: 4
#     Node 3, Type 0, BuildingBlock: CEKHIL_clean_sbu_0, # of connection points: 4
#     Node 4, Type 0, BuildingBlock: CEKHIL_clean_sbu_0, # of connection points: 4
#     Node 5, Type 0, BuildingBlock: CEKHIL_clean_sbu_0, # of connection points: 4
#     Node 6, Type 0, BuildingBlock: CEKHIL_clean_sbu_0, # of connection points: 4
#     Node 7, Type 0, BuildingBlock: CEKHIL_clean_sbu_0, # of connection points: 4
#     Edge 8, Type (0, 0), BuildingBlock: FUNLAD_clean_linker_0, # of connection points: 2
#     Edge 9, Type (0, 0), BuildingBlock: FUNLAD_clean_linker_0, # of connection points: 2
#     Edge 10, Type (0, 0), BuildingBlock: FUNLAD_clean_linker_0, # of connection points: 2
#     Edge 11, Type (0, 0), BuildingBlock: FUNLAD_clean_linker_0, # of connection points: 2
#     Edge 12, Type (0, 0), BuildingBlock: FUNLAD_clean_linker_0, # of connection points: 2
#     Edge 13, Type (0, 0), BuildingBlock: FUNLAD_clean_linker_0, # of connection points: 2
#     Edge 14, Type (0, 0), BuildingBlock: FUNLAD_clean_linker_0, # of connection points: 2
#     Edge 15, Type (0, 0), BuildingBlock: FUNLAD_clean_linker_0, # of connection points: 2
#     Edge 16, Type (0, 0), BuildingBlock: FUNLAD_clean_linker_0, # of connection points: 2
#     Edge 17, Type (0, 0), BuildingBlock: FUNLAD_clean_linker_0, # of connection points: 2
#     Edge 18, Type (0, 0), BuildingBlock: FUNLAD_clean_linker_0, # of connection points: 2
#     Edge 19, Type (0, 0), BuildingBlock: FUNLAD_clean_linker_0, # of connection points: 2
#     Edge 20, Type (0, 0), BuildingBlock: FUNLAD_clean_linker_0, # of connection points: 2
#     Edge 21, Type (0, 0), BuildingBlock: FUNLAD_clean_linker_0, # of connection points: 2
#     Edge 22, Type (0, 0), BuildingBlock: FUNLAD_clean_linker_0, # of connection points: 2
#     Edge 23, Type (0, 0), BuildingBlock: FUNLAD_clean_linker_0, # of connection points: 2
# Relax obj value: 0.165
# Max RMSD: 0.205
# Mean RMSD: 0.205
data_MOF--net-sow--node1-CEKHIL_clean_sbu_0--edge1-FUNLAD_clean_linker_0
_symmetry_space_group_name_H-M    P1
_symmetry_Int_Tables_number       1
_symmetry_cell_setting            triclinic
loop_
_symmetry_equiv_pos_as_xyz
'x, y, z'
_cell_length_a     45.318488
_cell_length_b     25.88753
_cell_length_c     27.260031
_cell_angle_alpha  90.073051
_cell_angle_beta   90.029475
_cell_angle_gamma 90.014595
loop_
_atom_site_label
_atom_site_type_symbol
_atom_site_fract_x
_atom_site_fract_y
_atom_site_fract_z
_atom_type_partial_charge
Co0 Co 0.13178 0.19884 0.07226 0.0
O1 O 0.16591 0.18167 0.0339 0.0
O2 O 0.15044 0.26129 0.0493 0.0
C3 C 0.10153 0.14111 0.03636 0.0
O4 O 0.09711 0.23177 0.1078 0.0
Co5 Co 0.10123 0.11798 0.13975 0.0
O6 O 0.06807 0.16813 0.13626 0.0
C7 C 0.15747 0.16653 0.17024 0.0
C8 C 0.16906 0.231 0.02712 0.0
C9 C 0.07264 0.21544 0.12584 0.0
O10 O 0.15604 0.19884 0.13437 0.0
O11 O 0.13925 0.12918 0.17602 0.0
O12 O 0.10627 0.18553 0.01564 0.0
O13 O 0.11678 0.13189 0.07528 0.0
Co14 Co 0.34832 0.32129 0.56859 0.0
O15 O 0.31236 0.33981 0.5358 0.0
O16 O 0.33013 0.26028 0.54121 0.0
C17 C 0.37569 0.38486 0.53551 0.0
O18 O 0.38509 0.28738 0.59704 0.0
Co19 Co 0.38033 0.39644 0.64009 0.0
O20 O 0.41432 0.35006 0.62692 0.0
C21 C 0.3276 0.33816 0.67338 0.0
C22 C 0.31006 0.29136 0.5241 0.0
C23 C 0.4101 0.30358 0.61317 0.0
O24 O 0.3267 0.31262 0.63276 0.0
O25 O 0.34596 0.37483 0.68157 0.0
O26 O 0.37111 0.34244 0.51114 0.0
O27 O 0.36195 0.38883 0.57671 0.0
Co28 Co 0.63337 0.31668 0.9185 0.0
O29 O 0.66314 0.33924 0.96364 0.0
O30 O 0.65363 0.25744 0.94539 0.0
C31 C 0.59731 0.36786 0.94765 0.0
O32 O 0.60359 0.27895 0.87546 0.0
Co33 Co 0.60477 0.39455 0.84535 0.0
O34 O 0.57444 0.33925 0.84094 0.0
C35 C 0.66457 0.35368 0.82633 0.0
C36 C 0.6686 0.29071 0.9712 0.0
C37 C 0.58025 0.2925 0.85193 0.0
O38 O 0.66199 0.32146 0.86207 0.0
O39 O 0.64537 0.38854 0.81665 0.0
O40 O 0.6032 0.32435 0.96923 0.0
O41 O 0.61497 0.38078 0.9127 0.0
Co42 Co 0.84709 0.1943 0.42046 0.0
O43 O 0.81588 0.17263 0.46325 0.0
O44 O 0.82751 0.25411 0.4474 0.0
C45 C 0.88137 0.14015 0.45062 0.0
O46 O 0.87852 0.2315 0.38065 0.0
Co47 Co 0.87654 0.11754 0.34721 0.0
O48 O 0.90807 0.17095 0.34764 0.0
C49 C 0.81756 0.16085 0.32563 0.0
C50 C 0.81141 0.22135 0.47172 0.0
C51 C 0.90255 0.21763 0.35939 0.0
O52 O 0.81971 0.19239 0.3621 0.0
O53 O 0.83661 0.12562 0.31638 0.0
O54 O 0.87586 0.18347 0.47292 0.0
O55 O 0.86441 0.12933 0.41405 0.0
Co56 Co 0.86004 0.78552 0.93799 0.0
O57 O 0.82981 0.80439 0.98401 0.0
O58 O 0.84147 0.72411 0.96326 0.0
C59 C 0.8946 0.83925 0.9683 0.0
O60 O 0.89024 0.75038 0.89416 0.0
Co61 Co 0.88813 0.86491 0.86624 0.0
O62 O 0.91911 0.811 0.86 0.0
C63 C 0.82914 0.82041 0.84483 0.0
C64 C 0.82571 0.75516 0.9901 0.0
C65 C 0.91334 0.76404 0.87017 0.0
O66 O 0.83123 0.78951 0.88172 0.0
O67 O 0.8484 0.85515 0.83506 0.0
O68 O 0.89011 0.79464 0.98879 0.0
O69 O 0.87686 0.85114 0.93313 0.0
Co70 Co 0.63526 0.69305 0.43925 0.0
O71 O 0.66597 0.67629 0.48505 0.0
O72 O 0.65246 0.75573 0.46468 0.0
C73 C 0.60184 0.63705 0.46921 0.0
O74 O 0.60409 0.72588 0.39572 0.0
Co75 Co 0.60895 0.61138 0.36748 0.0
O76 O 0.57643 0.66265 0.36279 0.0
C77 C 0.66668 0.66043 0.34578 0.0
C78 C 0.66899 0.72575 0.4913 0.0
C79 C 0.58102 0.71008 0.37278 0.0
O80 O 0.66401 0.69118 0.38277 0.0
O81 O 0.64826 0.62425 0.33614 0.0
O82 O 0.6054 0.68183 0.49001 0.0
O83 O 0.61996 0.62636 0.43426 0.0
Co84 Co 0.34808 0.70384 0.05472 0.0
O85 O 0.31796 0.68829 0.00759 0.0
O86 O 0.32952 0.76701 0.03341 0.0
C87 C 0.38292 0.65282 0.02145 0.0
O88 O 0.37835 0.73513 0.10099 0.0
Co89 Co 0.37493 0.61788 0.1211 0.0
O90 O 0.40625 0.67068 0.13109 0.0
C91 C 0.31612 0.6612 0.14389 0.0
C92 C 0.3138 0.7378 0.00464 0.0
C93 C 0.4012 0.71853 0.12399 0.0
O94 O 0.3192 0.69587 0.1104 0.0
O95 O 0.33463 0.62454 0.1509 0.0
O96 O 0.37825 0.69865 0.00367 0.0
O97 O 0.36486 0.6381 0.05517 0.0
Co98 Co 0.12996 0.80005 0.55238 0.0
O99 O 0.16005 0.82594 0.50946 0.0
O100 O 0.15189 0.7431 0.525 0.0
C101 C 0.09357 0.85023 0.52283 0.0
O102 O 0.10057 0.75847 0.59255 0.0
Co103 Co 0.09713 0.87161 0.62628 0.0
O104 O 0.06835 0.81372 0.62679 0.0
C105 C 0.15751 0.83431 0.6487 0.0
C106 C 0.1666 0.77796 0.50088 0.0
C107 C 0.07629 0.76814 0.61504 0.0
O108 O 0.15737 0.80494 0.61047 0.0
O109 O 0.13664 0.86591 0.65897 0.0
O110 O 0.10059 0.80774 0.50024 0.0
O111 O 0.11007 0.86259 0.55952 0.0
C112 C 0.30903 0.3496 0.75913 0.0
C113 C 0.30734 0.32373 0.71377 0.0
C114 C 0.29118 0.3349 0.79833 0.0
C115 C 0.2709 0.29417 0.79308 0.0
C116 C 0.2691 0.26836 0.7478 0.0
C117 C 0.28704 0.28305 0.70846 0.0
C118 C 0.25247 0.27596 0.83465 0.0
C119 C 0.24572 0.30546 0.87388 0.0
C120 C 0.22766 0.2862 0.91537 0.0
C121 C 0.21038 0.32117 0.94231 0.0
C122 C 0.19204 0.30368 0.98004 0.0
C123 C 0.19095 0.2509 0.99181 0.0
H124 H 0.24155 0.20602 0.91021 0.0
C125 C 0.2094 0.21634 0.96653 0.0
C126 C 0.22761 0.23377 0.92879 0.0
H127 H 0.20931 0.17549 0.9751 0.0
H128 H 0.32458 0.3808 0.76487 0.0
H129 H 0.29405 0.35475 0.83293 0.0
H130 H 0.25384 0.23653 0.74288 0.0
H131 H 0.28522 0.2621 0.67416 0.0
H132 H 0.24338 0.23723 0.83188 0.0
H133 H 0.25214 0.34584 0.87473 0.0
H134 H 0.21041 0.3619 0.93319 0.0
H135 H 0.17814 0.33126 -0.001 0.0
C136 C 0.19088 0.22347 0.21961 0.0
C137 C 0.18006 0.17395 0.20865 0.0
C138 C 0.20947 0.23099 0.25994 0.0
C139 C 0.21782 0.18896 0.28958 0.0
C140 C 0.20836 0.13918 0.27691 0.0
C141 C 0.18936 0.13178 0.23721 0.0
C142 C 0.23626 0.19601 0.33395 0.0
C143 C 0.23282 0.23692 0.36396 0.0
C144 C 0.25097 0.2471 0.40846 0.0
C145 C 0.24898 0.29612 0.43026 0.0
C146 C 0.26717 0.30955 0.46953 0.0
C147 C 0.28775 0.2741 0.48814 0.0
H148 H 0.27218 0.17174 0.41461 0.0
C149 C 0.28868 0.22402 0.46838 0.0
C150 C 0.27045 0.21052 0.42896 0.0
H151 H 0.30421 0.19575 0.4822 0.0
H152 H 0.18414 0.25664 0.19817 0.0
H153 H 0.21718 0.26968 0.26802 0.0
H154 H 0.21486 0.10617 0.29879 0.0
H155 H 0.1816 0.09307 0.22928 0.0
H156 H 0.25195 0.16574 0.3424 0.0
H157 H 0.21609 0.26546 0.35485 0.0
H158 H 0.23394 0.3249 0.41583 0.0
H159 H 0.26578 0.3484 0.48415 0.0
C160 C 0.78 0.21613 0.28353 0.0
C161 C 0.79334 0.16765 0.28993 0.0
C162 C 0.76057 0.2244 0.2445 0.0
C163 C 0.75396 0.18414 0.21153 0.0
C164 C 0.76556 0.13483 0.22011 0.0
C165 C 0.78533 0.12674 0.25861 0.0
C166 C 0.73594 0.19299 0.16701 0.0
C167 C 0.73856 0.23662 0.14053 0.0
C168 C 0.72183 0.24779 0.09486 0.0
C169 C 0.72111 0.29904 0.07823 0.0
C170 C 0.70473 0.31246 0.0369 0.0
C171 C 0.68879 0.27481 0.01091 0.0
H172 H 0.70756 0.16933 0.07801 0.0
C173 C 0.69046 0.22306 0.02602 0.0
C174 C 0.70687 0.20957 0.0676 0.0
H175 H 0.6785 0.19317 0.00653 0.0
H176 H 0.78561 0.24831 0.30722 0.0
H177 H 0.75116 0.2625 0.23966 0.0
H178 H 0.76042 0.10308 0.1956 0.0
H179 H 0.79497 0.08874 0.26303 0.0
H180 H 0.72172 0.16181 0.15489 0.0
H181 H 0.75366 0.2664 0.15327 0.0
H182 H 0.7327 0.32919 0.09801 0.0
H183 H 0.70402 0.35268 0.02606 0.0
C184 C 0.70296 0.29922 0.78549 0.0
C185 C 0.68925 0.34747 0.79145 0.0
C186 C 0.72244 0.29093 0.74657 0.0
C187 C 0.72871 0.33091 0.71327 0.0
C188 C 0.71692 0.38015 0.72158 0.0
C189 C 0.6971 0.38828 0.76001 0.0
C190 C 0.74633 0.32159 0.66843 0.0
C191 C 0.74314 0.27792 0.64207 0.0
C192 C 0.75927 0.26616 0.59595 0.0
C193 C 0.75909 0.21496 0.579 0.0
C194 C 0.775 0.20094 0.53732 0.0
C195 C 0.79138 0.23794 0.51137 0.0
H196 H 0.77459 0.34401 0.57927 0.0
C197 C 0.79052 0.2897 0.52677 0.0
C198 C 0.77458 0.30379 0.56864 0.0
H199 H 0.80283 0.31912 0.50732 0.0
H200 H 0.69751 0.26712 0.80927 0.0
H201 H 0.73202 0.25292 0.7419 0.0
H202 H 0.72183 0.4117 0.69681 0.0
H203 H 0.68717 0.4261 0.76409 0.0
H204 H 0.7606 0.3525 0.65595 0.0
H205 H 0.72793 0.24855 0.65525 0.0
H206 H 0.7472 0.18526 0.59882 0.0
H207 H 0.77511 0.16072 0.52629 0.0
C208 C 0.78986 0.77058 0.05794 0.0
C209 C 0.80604 0.73572 0.02904 0.0
C210 C 0.77353 0.7531 0.09798 0.0
C211 C 0.77324 0.70032 0.11024 0.0
C212 C 0.78846 0.66525 0.08014 0.0
C213 C 0.80482 0.68277 0.04001 0.0
C214 C 0.75644 0.68048 0.15297 0.0
C215 C 0.75028 0.70957 0.19278 0.0
C216 C 0.73122 0.69249 0.23416 0.0
C217 C 0.72941 0.72384 0.27623 0.0
C218 C 0.70942 0.7124 0.31376 0.0
C219 C 0.69072 0.66927 0.30994 0.0
H220 H 0.71332 0.62314 0.19968 0.0
C221 C 0.69346 0.63668 0.26886 0.0
C222 C 0.71327 0.64822 0.23136 0.0
H223 H 0.6795 0.60301 0.26459 0.0
H224 H 0.79012 0.81158 0.05009 0.0
H225 H 0.76105 0.7811 0.11892 0.0
H226 H 0.78818 0.62429 0.08826 0.0
H227 H 0.81702 0.65495 0.01832 0.0
H228 H 0.7498 0.6403 0.15155 0.0
H229 H 0.75943 0.74826 0.19528 0.0
H230 H 0.74291 0.75822 0.27948 0.0
H231 H 0.70794 0.73835 0.34486 0.0
C232 C 0.70515 0.71238 0.55901 0.0
C233 C 0.68844 0.74638 0.53009 0.0
C234 C 0.72137 0.73077 0.59884 0.0
C235 C 0.72107 0.78363 0.61086 0.0
C236 C 0.70535 0.81792 0.58075 0.0
C237 C 0.68903 0.79947 0.54083 0.0
C238 C 0.73787 0.80409 0.6534 0.0
C239 C 0.74358 0.77549 0.69363 0.0
C240 C 0.76308 0.79219 0.7346 0.0
C241 C 0.76395 0.76206 0.77744 0.0
C242 C 0.78448 0.77245 0.81447 0.0
C243 C 0.80468 0.81326 0.80936 0.0
H244 H 0.78317 0.85826 0.69805 0.0
C245 C 0.8029 0.84486 0.7675 0.0
C246 C 0.78251 0.83436 0.73048 0.0
H247 H 0.81805 0.87673 0.76223 0.0
H248 H 0.7054 0.67132 0.55136 0.0
H249 H 0.73426 0.70342 0.61985 0.0
H250 H 0.70519 0.85894 0.58871 0.0
H251 H 0.67641 0.82663 0.51909 0.0
H252 H 0.74499 0.84401 0.65146 0.0
H253 H 0.73383 0.73729 0.69663 0.0
H254 H 0.74929 0.72929 0.78167 0.0
H255 H 0.78515 0.74737 0.84623 0.0
C256 C 0.27808 0.72619 0.93614 0.0
C257 C 0.29411 0.75954 0.96684 0.0
C258 C 0.26201 0.74565 0.89671 0.0
C259 C 0.26179 0.79895 0.88687 0.0
C260 C 0.27662 0.83258 0.91894 0.0
C261 C 0.29282 0.81304 0.95849 0.0
C262 C 0.24546 0.82021 0.8443 0.0
C263 C 0.24175 0.79316 0.80244 0.0
C264 C 0.22261 0.80959 0.76102 0.0
C265 C 0.22366 0.78122 0.71705 0.0
C266 C 0.20344 0.7907 0.6794 0.0
C267 C 0.18162 0.82879 0.68502 0.0
H268 H 0.19951 0.87174 0.79891 0.0
C269 C 0.1815 0.85888 0.72804 0.0
C270 C 0.20161 0.8493 0.76567 0.0
H271 H 0.16508 0.8887 0.73368 0.0
H272 H 0.27834 0.68481 0.94197 0.0
H273 H 0.24975 0.71874 0.87411 0.0
H274 H 0.27629 0.87389 0.91265 0.0
H275 H 0.30489 0.83969 0.98168 0.0
H276 H 0.237 0.85922 0.84767 0.0
H277 H 0.25288 0.75622 0.79847 0.0
H278 H 0.23958 0.75037 0.7124 0.0
H279 H 0.20426 0.76687 0.64674 0.0
C280 C 0.27856 0.71471 0.1879 0.0
C281 C 0.29175 0.66639 0.17953 0.0
C282 C 0.25935 0.72163 0.2274 0.0
C283 C 0.25284 0.68022 0.25896 0.0
C284 C 0.26415 0.63112 0.24833 0.0
C285 C 0.28368 0.62432 0.20927 0.0
C286 C 0.2352 0.68768 0.30408 0.0
C287 C 0.23811 0.73037 0.33193 0.0
C288 C 0.22136 0.74014 0.37779 0.0
C289 C 0.21944 0.79117 0.39487 0.0
C290 C 0.20263 0.8031 0.43617 0.0
C291 C 0.18752 0.76409 0.4616 0.0
H292 H 0.20918 0.66054 0.39396 0.0
C293 C 0.1906 0.71259 0.44618 0.0
C294 C 0.2074 0.70063 0.40468 0.0
H295 H 0.17936 0.68167 0.46531 0.0
H296 H 0.28417 0.7478 0.16548 0.0
H297 H 0.2501 0.75961 0.23378 0.0
H298 H 0.25902 0.59851 0.27171 0.0
H299 H 0.2932 0.58644 0.20337 0.0
H300 H 0.22084 0.65633 0.3153 0.0
H301 H 0.25319 0.76053 0.32005 0.0
H302 H 0.2303 0.82227 0.37536 0.0
H303 H 0.20084 0.84315 0.44732 0.0
C304 C 0.057 0.29998 0.16187 0.0
C305 C 0.0496 0.25304 0.139 0.0
C306 C 0.03497 0.33043 0.18335 0.0
C307 C 0.0053 0.3147 0.18113 0.0
C308 C -0.00218 0.27067 0.15374 0.0
C309 C 0.01981 0.23963 0.13352 0.0
C310 C 0.98248 0.33661 0.2139 0.0
C311 C 0.98791 0.34011 0.26234 0.0
C312 C 0.96593 0.31961 0.29737 0.0
C313 C 0.97498 0.27966 0.32868 0.0
C314 C 0.95414 0.24811 0.35132 0.0
C315 C 0.92394 0.25718 0.34438 0.0
H316 H 0.92826 0.36238 0.26998 0.0
C317 C 0.91481 0.30064 0.31759 0.0
C318 C 0.93572 0.33146 0.29368 0.0
H319 H 0.89155 0.3083 0.31195 0.0
H320 H 0.07989 0.31117 0.16628 0.0
H321 H 0.04123 0.36452 0.20394 0.0
H322 H 0.9751 0.25779 0.15154 0.0
H323 H 0.0136 0.20392 0.11547 0.0
H324 H 0.95975 0.33234 0.20168 0.0
H325 H 0.01072 0.34028 0.27478 0.0
H326 H -0.00187 0.2698 0.33205 0.0
H327 H 0.96159 0.21502 0.37225 0.0
C328 C 0.42801 0.21786 0.64289 0.0
C329 C 0.43406 0.26631 0.62199 0.0
C330 C 0.45095 0.18815 0.66257 0.0
C331 C 0.48019 0.20629 0.66069 0.0
C332 C 0.48638 0.25171 0.63461 0.0
C333 C 0.46348 0.2819 0.61608 0.0
C334 C 0.50369 0.18526 0.69274 0.0
C335 C 0.4982 0.17693 0.74064 0.0
C336 C 0.51975 0.19429 0.77802 0.0
C337 C 0.55025 0.18564 0.773 0.0
C338 C 0.57035 0.21448 0.80087 0.0
C339 C 0.5601 0.25274 0.83317 0.0
H340 H 0.48632 0.2357 0.81896 0.0
C341 C 0.52972 0.25811 0.84114 0.0
C342 C 0.50971 0.22841 0.8144 0.0
H343 H 0.52143 0.28738 0.86605 0.0
H344 H 0.40545 0.20494 0.64762 0.0
H345 H 0.44565 0.15279 0.68186 0.0
H346 H 0.50874 0.26638 0.63248 0.0
H347 H 0.46867 0.31885 0.59954 0.0
H348 H 0.52628 0.19271 0.68129 0.0
H349 H 0.4754 0.17371 0.75271 0.0
H350 H 0.55852 0.15909 0.74552 0.0
H351 H 0.59378 0.20992 0.79422 0.0
C352 C 0.02789 0.72918 0.63598 0.0
C353 C 0.05869 0.72506 0.63448 0.0
C354 C 0.0114 0.69598 0.6654 0.0
C355 C 0.02558 0.65875 0.69487 0.0
C356 C 0.05614 0.65164 0.6897 0.0
C357 C 0.07258 0.68416 0.65917 0.0
C358 C 0.01064 0.63793 0.73906 0.0
C359 C 0.98109 0.63756 0.74314 0.0
C360 C 0.96609 0.65969 0.78671 0.0
C361 C 0.93607 0.64912 0.79439 0.0
C362 C 0.91924 0.68054 0.82544 0.0
C363 C 0.93208 0.72391 0.84799 0.0
H364 H 0.00233 0.71042 0.80771 0.0
C365 C 0.96247 0.73231 0.84319 0.0
C366 C 0.97942 0.70022 0.81331 0.0
H367 H 0.97282 0.76544 0.8604 0.0
H368 H 0.01675 0.76036 0.61701 0.0
H369 H 0.98799 0.70343 0.66867 0.0
H370 H 0.06762 0.62363 0.71222 0.0
H371 H 0.09639 0.6804 0.65863 0.0
H372 H 0.0239 0.63637 0.77229 0.0
H373 H 0.96775 0.63375 0.71019 0.0
H374 H 0.92522 0.61864 0.77391 0.0
H375 H 0.89575 0.67344 0.82849 0.0
C376 C 0.45147 0.74688 0.1478 0.0
C377 C 0.421 0.75586 0.14777 0.0
C378 C 0.46991 0.77534 0.17854 0.0
C379 C 0.45806 0.81254 0.21076 0.0
C380 C 0.42782 0.8239 0.20817 0.0
C381 C 0.40943 0.79629 0.17626 0.0
C382 C 0.47525 0.8296 0.25411 0.0
C383 C 0.50488 0.83039 0.25375 0.0
C384 C 0.5224 0.80944 0.29509 0.0
C385 C 0.51125 0.76815 0.32318 0.0
C386 C 0.53022 0.73758 0.35101 0.0
C387 C 0.5605 0.74833 0.35223 0.0
H388 H 0.56157 0.85332 0.27726 0.0
C389 C 0.57129 0.79234 0.32806 0.0
C390 C 0.55241 0.82221 0.29902 0.0
H391 H 0.59466 0.80118 0.32839 0.0
H392 H 0.4608 0.7159 0.126 0.0
H393 H 0.49297 0.76456 0.18014 0.0
H394 H 0.41811 0.85183 0.23302 0.0
H395 H 0.3859 0.80362 0.17692 0.0
H396 H 0.46369 0.82962 0.28905 0.0
H397 H 0.51639 0.83509 0.21905 0.0
H398 H 0.48841 0.7563 0.32033 0.0
H399 H 0.52145 0.70389 0.36955 0.0
C400 C 0.07538 0.05703 0.04301 0.0
C401 C 0.07792 0.10565 0.02064 0.0
C402 C 0.05234 0.02385 0.03064 0.0
C403 C 0.03105 0.03887 0.99595 0.0
C404 C 0.03413 0.08686 0.97242 0.0
C405 C 0.05733 0.12009 0.98473 0.0
C406 C 0.00563 0.00535 0.98308 0.0
C407 C -0.00549 0.9694 0.01373 0.0
C408 C 0.96869 0.93657 0.00149 0.0
C409 C 0.96518 0.88906 0.0257 0.0
C410 C 0.94104 0.85721 0.01526 0.0
C411 C 0.91989 0.8726 0.98065 0.0
H412 H 0.94829 0.9894 0.9495 0.0
C413 C 0.92309 0.92052 0.95714 0.0
C414 C 0.94712 0.95229 0.96755 0.0
H415 H 0.90693 0.93375 0.93071 0.0
H416 H 0.09121 0.04452 0.07033 0.0
H417 H 0.05158 0.98641 0.04814 0.0
H418 H 0.01822 0.0991 0.94512 0.0
H419 H 0.05884 0.15731 0.9668 0.0
H420 H -0.00449 0.01164 0.94751 0.0
H421 H 0.00461 0.96316 0.04932 0.0
H422 H 0.9813 0.87632 0.05243 0.0
H423 H 0.93905 0.82054 0.03406 0.0
C424 C 0.55193 0.62166 0.50591 0.0
C425 C 0.57607 0.60383 0.4785 0.0
C426 C 0.5267 0.59096 0.51094 0.0
C427 C 0.5253 0.5419 0.48856 0.0
C428 C 0.54989 0.52364 0.46268 0.0
C429 C 0.57493 0.55435 0.45741 0.0
C430 C 0.49905 0.50797 0.49211 0.0
C431 C 0.47153 0.52561 0.49985 0.0
C432 C 0.44595 0.49048 0.50493 0.0
C433 C 0.42319 0.50428 0.53713 0.0
C434 C 0.3999 0.47034 0.54591 0.0
C435 C 0.39866 0.42236 0.5219 0.0
H436 H 0.46076 0.4324 0.45278 0.0
C437 C 0.42053 0.40963 0.48755 0.0
C438 C 0.44406 0.44339 0.47916 0.0
H439 H 0.41997 0.373 0.46832 0.0
H440 H 0.55231 0.65959 0.52271 0.0
H441 H 0.50859 0.60569 0.53265 0.0
H442 H 0.54955 0.48579 0.44564 0.0
H443 H 0.59331 0.53944 0.43632 0.0
H444 H 0.50265 0.46676 0.48743 0.0
H445 H 0.46762 0.56662 0.50504 0.0
H446 H 0.42397 0.5406 0.55689 0.0
H447 H 0.38314 0.48131 0.57227 0.0
C448 C 0.41412 0.57471 0.03278 0.0
C449 C 0.40916 0.62195 0.00894 0.0
C450 C 0.43935 0.54583 0.02283 0.0
C451 C 0.46007 0.56327 0.98819 0.0
C452 C 0.45513 0.61066 0.96448 0.0
C453 C 0.42986 0.63974 0.97464 0.0
C454 C 0.48752 0.53421 0.97721 0.0
C455 C 0.49075 0.48323 0.98574 0.0
C456 C 0.51843 0.45462 0.97565 0.0
C457 C 0.52416 0.40895 0.00175 0.0
C458 C 0.54996 0.38081 0.99318 0.0
C459 C 0.57037 0.39772 0.958 0.0
H460 H 0.53473 0.50492 0.91775 0.0
C461 C 0.5645 0.44302 0.93147 0.0
C462 C 0.53876 0.47107 0.93997 0.0
H463 H 0.57968 0.4567 0.90369 0.0
H464 H 0.39869 0.5602 0.05978 0.0
H465 H 0.44267 0.51062 0.04336 0.0
H466 H 0.47087 0.62525 0.93798 0.0
H467 H 0.42667 0.67619 0.95592 0.0
H468 H 0.50561 0.55608 0.96147 0.0
H469 H 0.47276 0.46121 0.00153 0.0
H470 H 0.50871 0.39516 0.0291 0.0
H471 H 0.55383 0.34579 0.0139 0.0
C472 C 0.0595 0.9232 0.54006 0.0
C473 C 0.06685 0.88016 0.51117 0.0
C474 C 0.03421 0.95184 0.53012 0.0
C475 C 0.01585 0.9385 0.49048 0.0
C476 C 0.02296 0.89497 0.462 0.0
C477 C 0.04832 0.86607 0.47213 0.0
C478 C 0.98876 0.9682 0.47887 0.0
C479 C 0.98524 0.01832 0.49107 0.0
C480 C 0.95811 0.04836 0.48047 0.0
C481 C 0.95237 0.09308 0.50813 0.0
C482 C 0.92724 0.12281 0.499 0.0
C483 C 0.90749 0.10843 0.46177 0.0
H484 H 0.94242 0.00136 0.41948 0.0
C485 C 0.9133 0.06397 0.43386 0.0
C486 C 0.9384 0.03437 0.44286 0.0
H487 H 0.89862 0.05221 0.40453 0.0
H488 H 0.07317 0.9347 0.5708 0.0
H489 H 0.02898 0.98372 0.55427 0.0
H490 H 0.00899 0.88352 0.43161 0.0
H491 H 0.05338 0.83285 0.44946 0.0
H492 H 0.97146 0.94777 0.45936 0.0
H493 H 0.00274 0.03861 0.51026 0.0
H494 H 0.96733 0.10498 0.53704 0.0
H495 H 0.92339 0.15711 0.52087 0.0
loop_
_geom_bond_atom_site_label_1
_geom_bond_atom_site_label_2
_geom_bond_distance
_geom_bond_site_symmetry_2
_ccdc_geom_bond_type
Co0 O1 2.216 . S
Co0 O2 2.091 . S
Co0 O4 2.004 . S
Co0 O10 2.021 . S
Co0 O12 2.137 . S
Co0 O13 2.244 . S
O1 Co0 2.216 . S
O1 C8 1.247 1_554 S
O2 Co0 2.091 . S
O2 C8 1.261 1_554 S
C3 O12 1.247 . S
C3 O13 1.272 . S
O4 Co0 2.004 . S
O4 C9 1.259 . S
Co5 O6 2.061 . S
Co5 O11 2.052 . S
Co5 O13 2.135 . S
O6 Co5 2.061 . S
O6 C9 1.235 . S
C7 O10 1.238 . S
C7 O11 1.241 . S
C8 O1 1.247 1_556 S
C8 O2 1.261 1_556 S
C9 O4 1.259 . S
C9 O6 1.235 . S
O10 Co0 2.021 . S
O10 C7 1.238 . S
O11 Co5 2.052 . S
O11 C7 1.241 . S
O12 Co0 2.137 . S
O12 C3 1.247 . S
O13 Co0 2.244 . S
O13 C3 1.272 . S
O13 Co5 2.135 . S
Co14 O15 2.216 . S
Co14 O16 2.091 . S
Co14 O18 2.004 . S
Co14 O24 2.021 . S
Co14 O26 2.137 . S
Co14 O27 2.244 . S
O15 Co14 2.216 . S
O15 C22 1.247 . S
O16 Co14 2.091 . S
O16 C22 1.261 . S
C17 O26 1.247 . S
C17 O27 1.272 . S
O18 Co14 2.004 . S
O18 C23 1.259 . S
Co19 O20 2.061 . S
Co19 O25 2.052 . S
Co19 O27 2.135 . S
O20 Co19 2.061 . S
O20 C23 1.235 . S
C21 O24 1.238 . S
C21 O25 1.241 . S
C22 O15 1.247 . S
C22 O16 1.261 . S
C23 O18 1.259 . S
C23 O20 1.235 . S
O24 Co14 2.021 . S
O24 C21 1.238 . S
O25 Co19 2.052 . S
O25 C21 1.241 . S
O26 Co14 2.137 . S
O26 C17 1.247 . S
O27 Co14 2.244 . S
O27 C17 1.272 . S
O27 Co19 2.135 . S
Co28 O29 2.216 . S
Co28 O30 2.091 . S
Co28 O32 2.004 . S
Co28 O38 2.021 . S
Co28 O40 2.137 . S
Co28 O41 2.244 . S
O29 Co28 2.216 . S
O29 C36 1.247 1_556 S
O30 Co28 2.091 . S
O30 C36 1.261 1_556 S
C31 O40 1.247 . S
C31 O41 1.272 . S
O32 Co28 2.004 . S
O32 C37 1.259 . S
Co33 O34 2.061 . S
Co33 O39 2.052 . S
Co33 O41 2.135 . S
O34 Co33 2.061 . S
O34 C37 1.235 . S
C35 O38 1.238 . S
C35 O39 1.241 . S
C36 O29 1.247 1_554 S
C36 O30 1.261 1_554 S
C37 O32 1.259 . S
C37 O34 1.235 . S
O38 Co28 2.021 . S
O38 C35 1.238 . S
O39 Co33 2.052 . S
O39 C35 1.241 . S
O40 Co28 2.137 . S
O40 C31 1.247 . S
O41 Co28 2.244 . S
O41 C31 1.272 . S
O41 Co33 2.135 . S
Co42 O43 2.216 . S
Co42 O44 2.091 . S
Co42 O46 2.004 . S
Co42 O52 2.021 . S
Co42 O54 2.137 . S
Co42 O55 2.244 . S
O43 Co42 2.216 . S
O43 C50 1.247 . S
O44 Co42 2.091 . S
O44 C50 1.261 . S
C45 O54 1.247 . S
C45 O55 1.272 . S
O46 Co42 2.004 . S
O46 C51 1.259 . S
Co47 O48 2.061 . S
Co47 O53 2.052 . S
Co47 O55 2.135 . S
O48 Co47 2.061 . S
O48 C51 1.235 . S
C49 O52 1.238 . S
C49 O53 1.241 . S
C50 O43 1.247 . S
C50 O44 1.261 . S
C51 O46 1.259 . S
C51 O48 1.235 . S
O52 Co42 2.021 . S
O52 C49 1.238 . S
O53 Co47 2.052 . S
O53 C49 1.241 . S
O54 Co42 2.137 . S
O54 C45 1.247 . S
O55 Co42 2.244 . S
O55 C45 1.272 . S
O55 Co47 2.135 . S
Co56 O57 2.216 . S
Co56 O58 2.091 . S
Co56 O60 2.004 . S
Co56 O66 2.021 . S
Co56 O68 2.137 . S
Co56 O69 2.244 . S
O57 Co56 2.216 . S
O57 C64 1.247 1_556 S
O58 Co56 2.091 . S
O58 C64 1.261 1_556 S
C59 O68 1.247 . S
C59 O69 1.272 . S
O60 Co56 2.004 . S
O60 C65 1.259 . S
Co61 O62 2.061 . S
Co61 O67 2.052 . S
Co61 O69 2.135 . S
O62 Co61 2.061 . S
O62 C65 1.235 . S
C63 O66 1.238 . S
C63 O67 1.241 . S
C64 O57 1.247 1_554 S
C64 O58 1.261 1_554 S
C65 O60 1.259 . S
C65 O62 1.235 . S
O66 Co56 2.021 . S
O66 C63 1.238 . S
O67 Co61 2.052 . S
O67 C63 1.241 . S
O68 Co56 2.137 . S
O68 C59 1.247 . S
O69 Co56 2.244 . S
O69 C59 1.272 . S
O69 Co61 2.135 . S
Co70 O71 2.216 . S
Co70 O72 2.091 . S
Co70 O74 2.004 . S
Co70 O80 2.021 . S
Co70 O82 2.137 . S
Co70 O83 2.244 . S
O71 Co70 2.216 . S
O71 C78 1.247 . S
O72 Co70 2.091 . S
O72 C78 1.261 . S
C73 O82 1.247 . S
C73 O83 1.272 . S
O74 Co70 2.004 . S
O74 C79 1.259 . S
Co75 O76 2.061 . S
Co75 O81 2.052 . S
Co75 O83 2.135 . S
O76 Co75 2.061 . S
O76 C79 1.235 . S
C77 O80 1.238 . S
C77 O81 1.241 . S
C78 O71 1.247 . S
C78 O72 1.261 . S
C79 O74 1.259 . S
C79 O76 1.235 . S
O80 Co70 2.021 . S
O80 C77 1.238 . S
O81 Co75 2.052 . S
O81 C77 1.241 . S
O82 Co70 2.137 . S
O82 C73 1.247 . S
O83 Co70 2.244 . S
O83 C73 1.272 . S
O83 Co75 2.135 . S
Co84 O85 2.216 . S
Co84 O86 2.091 . S
Co84 O88 2.004 . S
Co84 O94 2.021 . S
Co84 O96 2.137 . S
Co84 O97 2.244 . S
O85 Co84 2.216 . S
O85 C92 1.247 1_554 S
O86 Co84 2.091 . S
O86 C92 1.261 1_554 S
C87 O96 1.247 . S
C87 O97 1.272 . S
O88 Co84 2.004 . S
O88 C93 1.259 . S
Co89 O90 2.061 . S
Co89 O95 2.052 . S
Co89 O97 2.135 . S
O90 Co89 2.061 . S
O90 C93 1.235 . S
C91 O94 1.238 . S
C91 O95 1.241 . S
C92 O85 1.247 1_556 S
C92 O86 1.261 1_556 S
C93 O88 1.259 . S
C93 O90 1.235 . S
O94 Co84 2.021 . S
O94 C91 1.238 . S
O95 Co89 2.052 . S
O95 C91 1.241 . S
O96 Co84 2.137 . S
O96 C87 1.247 . S
O97 Co84 2.244 . S
O97 C87 1.272 . S
O97 Co89 2.135 . S
Co98 O99 2.216 . S
Co98 O100 2.091 . S
Co98 O102 2.004 . S
Co98 O108 2.021 . S
Co98 O110 2.137 . S
Co98 O111 2.244 . S
O99 Co98 2.216 . S
O99 C106 1.247 . S
O100 Co98 2.091 . S
O100 C106 1.261 . S
C101 O110 1.247 . S
C101 O111 1.272 . S
O102 Co98 2.004 . S
O102 C107 1.259 . S
Co103 O104 2.061 . S
Co103 O109 2.052 . S
Co103 O111 2.135 . S
O104 Co103 2.061 . S
O104 C107 1.235 . S
C105 O108 1.238 . S
C105 O109 1.241 . S
C106 O99 1.247 . S
C106 O100 1.261 . S
C107 O102 1.259 . S
C107 O104 1.235 . S
O108 Co98 2.021 . S
O108 C105 1.238 . S
O109 Co103 2.052 . S
O109 C105 1.241 . S
O110 Co98 2.137 . S
O110 C101 1.247 . S
O111 Co98 2.244 . S
O111 C101 1.272 . S
O111 Co103 2.135 . S
C112 C113 1.386 . S
C112 C114 1.383 . S
C112 H128 0.951 . S
C113 C112 1.386 . S
C113 C117 1.383 . S
C114 C112 1.383 . S
C114 C115 1.402 . S
C114 H129 0.951 . S
C115 C114 1.402 . S
C115 C116 1.375 . S
C115 C118 1.481 . S
C116 C115 1.375 . S
C116 C117 1.367 . S
C116 H130 0.951 . S
C117 C113 1.383 . S
C117 C116 1.367 . S
C117 H131 0.950 . S
C118 C115 1.481 . S
C118 C119 1.297 . S
C118 H132 0.950 . S
C119 C118 1.297 . S
C119 C120 1.479 . S
C119 H133 0.950 . S
C120 C119 1.479 . S
C120 C121 1.375 . S
C120 C126 1.404 . S
C121 C120 1.375 . S
C121 C122 1.369 . S
C121 H134 0.950 . S
C122 C121 1.369 . S
C122 C123 1.392 . S
C122 H135 0.951 . S
C123 C122 1.392 . S
C123 C125 1.384 . S
H124 C126 0.949 . S
C125 C123 1.384 . S
C125 C126 1.385 . S
C125 H127 0.950 . S
C126 C120 1.404 . S
C126 H124 0.949 . S
C126 C125 1.385 . S
H127 C125 0.950 . S
H128 C112 0.951 . S
H129 C114 0.951 . S
H130 C116 0.951 . S
H131 C117 0.950 . S
H132 C118 0.950 . S
H133 C119 0.950 . S
H134 C121 0.950 . S
H135 C122 0.951 . S
C136 C137 1.386 . S
C136 C138 1.383 . S
C136 H152 0.951 . S
C137 C136 1.386 . S
C137 C141 1.383 . S
C138 C136 1.383 . S
C138 C139 1.402 . S
C138 H153 0.951 . S
C139 C138 1.402 . S
C139 C140 1.375 . S
C139 C142 1.481 . S
C140 C139 1.375 . S
C140 C141 1.367 . S
C140 H154 0.951 . S
C141 C137 1.383 . S
C141 C140 1.367 . S
C141 H155 0.950 . S
C142 C139 1.481 . S
C142 C143 1.297 . S
C142 H156 0.950 . S
C143 C142 1.297 . S
C143 C144 1.479 . S
C143 H157 0.950 . S
C144 C143 1.479 . S
C144 C145 1.375 . S
C144 C150 1.404 . S
C145 C144 1.375 . S
C145 C146 1.369 . S
C145 H158 0.950 . S
C146 C145 1.369 . S
C146 C147 1.392 . S
C146 H159 0.951 . S
C147 C146 1.392 . S
C147 C149 1.384 . S
H148 C150 0.949 . S
C149 C147 1.384 . S
C149 C150 1.385 . S
C149 H151 0.950 . S
C150 C144 1.404 . S
C150 H148 0.949 . S
C150 C149 1.385 . S
H151 C149 0.950 . S
H152 C136 0.951 . S
H153 C138 0.951 . S
H154 C140 0.951 . S
H155 C141 0.950 . S
H156 C142 0.950 . S
H157 C143 0.950 . S
H158 C145 0.950 . S
H159 C146 0.951 . S
C160 C161 1.386 . S
C160 C162 1.383 . S
C160 H176 0.951 . S
C161 C160 1.386 . S
C161 C165 1.383 . S
C162 C160 1.383 . S
C162 C163 1.402 . S
C162 H177 0.951 . S
C163 C162 1.402 . S
C163 C164 1.375 . S
C163 C166 1.481 . S
C164 C163 1.375 . S
C164 C165 1.367 . S
C164 H178 0.951 . S
C165 C161 1.383 . S
C165 C164 1.367 . S
C165 H179 0.950 . S
C166 C163 1.481 . S
C166 C167 1.297 . S
C166 H180 0.950 . S
C167 C166 1.297 . S
C167 C168 1.479 . S
C167 H181 0.950 . S
C168 C167 1.479 . S
C168 C169 1.375 . S
C168 C174 1.404 . S
C169 C168 1.375 . S
C169 C170 1.369 . S
C169 H182 0.950 . S
C170 C169 1.369 . S
C170 C171 1.392 . S
C170 H183 0.951 . S
C171 C170 1.392 . S
C171 C173 1.384 . S
H172 C174 0.949 . S
C173 C171 1.384 . S
C173 C174 1.385 . S
C173 H175 0.950 . S
C174 C168 1.404 . S
C174 H172 0.949 . S
C174 C173 1.385 . S
H175 C173 0.950 . S
H176 C160 0.951 . S
H177 C162 0.951 . S
H178 C164 0.951 . S
H179 C165 0.950 . S
H180 C166 0.950 . S
H181 C167 0.950 . S
H182 C169 0.950 . S
H183 C170 0.951 . S
C184 C185 1.386 . S
C184 C186 1.383 . S
C184 H200 0.951 . S
C185 C184 1.386 . S
C185 C189 1.383 . S
C186 C184 1.383 . S
C186 C187 1.402 . S
C186 H201 0.951 . S
C187 C186 1.402 . S
C187 C188 1.375 . S
C187 C190 1.481 . S
C188 C187 1.375 . S
C188 C189 1.367 . S
C188 H202 0.951 . S
C189 C185 1.383 . S
C189 C188 1.367 . S
C189 H203 0.950 . S
C190 C187 1.481 . S
C190 C191 1.297 . S
C190 H204 0.950 . S
C191 C190 1.297 . S
C191 C192 1.479 . S
C191 H205 0.950 . S
C192 C191 1.479 . S
C192 C193 1.375 . S
C192 C198 1.404 . S
C193 C192 1.375 . S
C193 C194 1.369 . S
C193 H206 0.950 . S
C194 C193 1.369 . S
C194 C195 1.392 . S
C194 H207 0.951 . S
C195 C194 1.392 . S
C195 C197 1.384 . S
H196 C198 0.949 . S
C197 C195 1.384 . S
C197 C198 1.385 . S
C197 H199 0.950 . S
C198 C192 1.404 . S
C198 H196 0.949 . S
C198 C197 1.385 . S
H199 C197 0.950 . S
H200 C184 0.951 . S
H201 C186 0.951 . S
H202 C188 0.951 . S
H203 C189 0.950 . S
H204 C190 0.950 . S
H205 C191 0.950 . S
H206 C193 0.950 . S
H207 C194 0.951 . S
C208 C209 1.386 . S
C208 C210 1.383 . S
C208 H224 0.951 . S
C209 C208 1.386 . S
C209 C213 1.383 . S
C210 C208 1.383 . S
C210 C211 1.402 . S
C210 H225 0.951 . S
C211 C210 1.402 . S
C211 C212 1.375 . S
C211 C214 1.481 . S
C212 C211 1.375 . S
C212 C213 1.367 . S
C212 H226 0.951 . S
C213 C209 1.383 . S
C213 C212 1.367 . S
C213 H227 0.950 . S
C214 C211 1.481 . S
C214 C215 1.297 . S
C214 H228 0.950 . S
C215 C214 1.297 . S
C215 C216 1.479 . S
C215 H229 0.950 . S
C216 C215 1.479 . S
C216 C217 1.375 . S
C216 C222 1.404 . S
C217 C216 1.375 . S
C217 C218 1.369 . S
C217 H230 0.950 . S
C218 C217 1.369 . S
C218 C219 1.392 . S
C218 H231 0.951 . S
C219 C218 1.392 . S
C219 C221 1.384 . S
H220 C222 0.949 . S
C221 C219 1.384 . S
C221 C222 1.385 . S
C221 H223 0.950 . S
C222 C216 1.404 . S
C222 H220 0.949 . S
C222 C221 1.385 . S
H223 C221 0.950 . S
H224 C208 0.951 . S
H225 C210 0.951 . S
H226 C212 0.951 . S
H227 C213 0.950 . S
H228 C214 0.950 . S
H229 C215 0.950 . S
H230 C217 0.950 . S
H231 C218 0.951 . S
C232 C233 1.386 . S
C232 C234 1.383 . S
C232 H248 0.951 . S
C233 C232 1.386 . S
C233 C237 1.383 . S
C234 C232 1.383 . S
C234 C235 1.402 . S
C234 H249 0.951 . S
C235 C234 1.402 . S
C235 C236 1.375 . S
C235 C238 1.481 . S
C236 C235 1.375 . S
C236 C237 1.367 . S
C236 H250 0.951 . S
C237 C233 1.383 . S
C237 C236 1.367 . S
C237 H251 0.950 . S
C238 C235 1.481 . S
C238 C239 1.297 . S
C238 H252 0.950 . S
C239 C238 1.297 . S
C239 C240 1.479 . S
C239 H253 0.950 . S
C240 C239 1.479 . S
C240 C241 1.375 . S
C240 C246 1.404 . S
C241 C240 1.375 . S
C241 C242 1.369 . S
C241 H254 0.950 . S
C242 C241 1.369 . S
C242 C243 1.392 . S
C242 H255 0.951 . S
C243 C242 1.392 . S
C243 C245 1.384 . S
H244 C246 0.949 . S
C245 C243 1.384 . S
C245 C246 1.385 . S
C245 H247 0.950 . S
C246 C240 1.404 . S
C246 H244 0.949 . S
C246 C245 1.385 . S
H247 C245 0.950 . S
H248 C232 0.951 . S
H249 C234 0.951 . S
H250 C236 0.951 . S
H251 C237 0.950 . S
H252 C238 0.950 . S
H253 C239 0.950 . S
H254 C241 0.950 . S
H255 C242 0.951 . S
C256 C257 1.386 . S
C256 C258 1.383 . S
C256 H272 0.951 . S
C257 C256 1.386 . S
C257 C261 1.383 . S
C258 C256 1.383 . S
C258 C259 1.402 . S
C258 H273 0.951 . S
C259 C258 1.402 . S
C259 C260 1.375 . S
C259 C262 1.481 . S
C260 C259 1.375 . S
C260 C261 1.367 . S
C260 H274 0.951 . S
C261 C257 1.383 . S
C261 C260 1.367 . S
C261 H275 0.950 . S
C262 C259 1.481 . S
C262 C263 1.297 . S
C262 H276 0.950 . S
C263 C262 1.297 . S
C263 C264 1.479 . S
C263 H277 0.950 . S
C264 C263 1.479 . S
C264 C265 1.375 . S
C264 C270 1.404 . S
C265 C264 1.375 . S
C265 C266 1.369 . S
C265 H278 0.950 . S
C266 C265 1.369 . S
C266 C267 1.392 . S
C266 H279 0.951 . S
C267 C266 1.392 . S
C267 C269 1.384 . S
H268 C270 0.949 . S
C269 C267 1.384 . S
C269 C270 1.385 . S
C269 H271 0.950 . S
C270 C264 1.404 . S
C270 H268 0.949 . S
C270 C269 1.385 . S
H271 C269 0.950 . S
H272 C256 0.951 . S
H273 C258 0.951 . S
H274 C260 0.951 . S
H275 C261 0.950 . S
H276 C262 0.950 . S
H277 C263 0.950 . S
H278 C265 0.950 . S
H279 C266 0.951 . S
C280 C281 1.386 . S
C280 C282 1.383 . S
C280 H296 0.951 . S
C281 C280 1.386 . S
C281 C285 1.383 . S
C282 C280 1.383 . S
C282 C283 1.402 . S
C282 H297 0.951 . S
C283 C282 1.402 . S
C283 C284 1.375 . S
C283 C286 1.481 . S
C284 C283 1.375 . S
C284 C285 1.367 . S
C284 H298 0.951 . S
C285 C281 1.383 . S
C285 C284 1.367 . S
C285 H299 0.950 . S
C286 C283 1.481 . S
C286 C287 1.297 . S
C286 H300 0.950 . S
C287 C286 1.297 . S
C287 C288 1.479 . S
C287 H301 0.950 . S
C288 C287 1.479 . S
C288 C289 1.375 . S
C288 C294 1.404 . S
C289 C288 1.375 . S
C289 C290 1.369 . S
C289 H302 0.950 . S
C290 C289 1.369 . S
C290 C291 1.392 . S
C290 H303 0.951 . S
C291 C290 1.392 . S
C291 C293 1.384 . S
H292 C294 0.949 . S
C293 C291 1.384 . S
C293 C294 1.385 . S
C293 H295 0.950 . S
C294 C288 1.404 . S
C294 H292 0.949 . S
C294 C293 1.385 . S
H295 C293 0.950 . S
H296 C280 0.951 . S
H297 C282 0.951 . S
H298 C284 0.951 . S
H299 C285 0.950 . S
H300 C286 0.950 . S
H301 C287 0.950 . S
H302 C289 0.950 . S
H303 C290 0.951 . S
C304 C305 1.386 . S
C304 C306 1.383 . S
C304 H320 0.951 . S
C305 C304 1.386 . S
C305 C309 1.383 . S
C306 C304 1.383 . S
C306 C307 1.402 . S
C306 H321 0.951 . S
C307 C306 1.402 . S
C307 C308 1.375 . S
C307 C310 1.481 1_455 S
C308 C307 1.375 . S
C308 C309 1.367 . S
C308 H322 0.944 1_455 S
C309 C305 1.383 . S
C309 C308 1.367 . S
C309 H323 0.950 . S
C310 C307 1.481 1_655 S
C310 C311 1.299 . S
C310 H324 0.950 . S
C311 C310 1.299 . S
C311 C312 1.502 . S
C311 H325 0.924 1_655 S
C312 C311 1.502 . S
C312 C313 1.375 . S
C312 C318 1.404 . S
C313 C312 1.375 . S
C313 C314 1.369 . S
C313 H326 0.932 1_655 S
C314 C313 1.369 . S
C314 C315 1.392 . S
C314 H327 0.951 . S
C315 C314 1.392 . S
C315 C317 1.384 . S
H316 C318 0.949 . S
C317 C315 1.384 . S
C317 C318 1.385 . S
C317 H319 0.950 . S
C318 C312 1.404 . S
C318 H316 0.949 . S
C318 C317 1.385 . S
H319 C317 0.950 . S
H320 C304 0.951 . S
H321 C306 0.951 . S
H322 C308 0.944 1_655 S
H323 C309 0.950 . S
H324 C310 0.950 . S
H325 C311 0.924 1_455 S
H326 C313 0.932 1_455 S
H327 C314 0.951 . S
C328 C329 1.386 . S
C328 C330 1.383 . S
C328 H344 0.951 . S
C329 C328 1.386 . S
C329 C333 1.383 . S
C330 C328 1.383 . S
C330 C331 1.402 . S
C330 H345 0.951 . S
C331 C330 1.402 . S
C331 C332 1.375 . S
C331 C334 1.481 . S
C332 C331 1.375 . S
C332 C333 1.367 . S
C332 H346 0.951 . S
C333 C329 1.383 . S
C333 C332 1.367 . S
C333 H347 0.950 . S
C334 C331 1.481 . S
C334 C335 1.297 . S
C334 H348 0.950 . S
C335 C334 1.297 . S
C335 C336 1.479 . S
C335 H349 0.950 . S
C336 C335 1.479 . S
C336 C337 1.375 . S
C336 C342 1.404 . S
C337 C336 1.375 . S
C337 C338 1.369 . S
C337 H350 0.950 . S
C338 C337 1.369 . S
C338 C339 1.392 . S
C338 H351 0.951 . S
C339 C338 1.392 . S
C339 C341 1.384 . S
H340 C342 0.949 . S
C341 C339 1.384 . S
C341 C342 1.385 . S
C341 H343 0.950 . S
C342 C336 1.404 . S
C342 H340 0.949 . S
C342 C341 1.385 . S
H343 C341 0.950 . S
H344 C328 0.951 . S
H345 C330 0.951 . S
H346 C332 0.951 . S
H347 C333 0.950 . S
H348 C334 0.950 . S
H349 C335 0.950 . S
H350 C337 0.950 . S
H351 C338 0.951 . S
C352 C353 1.386 . S
C352 C354 1.383 . S
C352 H368 0.951 . S
C353 C352 1.386 . S
C353 C357 1.383 . S
C354 C352 1.383 . S
C354 C355 1.402 . S
C354 H369 0.951 . S
C355 C354 1.402 . S
C355 C356 1.375 . S
C355 C358 1.481 . S
C356 C355 1.375 . S
C356 C357 1.367 . S
C356 H370 0.951 . S
C357 C353 1.383 . S
C357 C356 1.367 . S
C357 H371 0.950 . S
C358 C355 1.481 . S
C358 C359 1.297 1_455 S
C358 H372 0.950 . S
C359 C358 1.297 1_655 S
C359 C360 1.479 . S
C359 H373 0.950 . S
C360 C359 1.479 . S
C360 C361 1.375 . S
C360 C366 1.404 . S
C361 C360 1.375 . S
C361 C362 1.369 . S
C361 H374 0.950 . S
C362 C361 1.369 . S
C362 C363 1.392 . S
C362 H375 0.951 . S
C363 C362 1.392 . S
C363 C365 1.384 . S
H364 C366 0.949 . S
C365 C363 1.384 . S
C365 C366 1.385 . S
C365 H367 0.950 . S
C366 C360 1.404 . S
C366 H364 0.949 . S
C366 C365 1.385 . S
H367 C365 0.950 . S
H368 C352 0.951 . S
H369 C354 0.951 . S
H370 C356 0.951 . S
H371 C357 0.950 . S
H372 C358 0.950 . S
H373 C359 0.950 . S
H374 C361 0.950 . S
H375 C362 0.951 . S
C376 C377 1.386 . S
C376 C378 1.383 . S
C376 H392 0.951 . S
C377 C376 1.386 . S
C377 C381 1.383 . S
C378 C376 1.383 . S
C378 C379 1.402 . S
C378 H393 0.951 . S
C379 C378 1.402 . S
C379 C380 1.375 . S
C379 C382 1.481 . S
C380 C379 1.375 . S
C380 C381 1.367 . S
C380 H394 0.951 . S
C381 C377 1.383 . S
C381 C380 1.367 . S
C381 H395 0.950 . S
C382 C379 1.481 . S
C382 C383 1.297 . S
C382 H396 0.950 . S
C383 C382 1.297 . S
C383 C384 1.479 . S
C383 H397 0.950 . S
C384 C383 1.479 . S
C384 C385 1.375 . S
C384 C390 1.404 . S
C385 C384 1.375 . S
C385 C386 1.369 . S
C385 H398 0.950 . S
C386 C385 1.369 . S
C386 C387 1.392 . S
C386 H399 0.951 . S
C387 C386 1.392 . S
C387 C389 1.384 . S
H388 C390 0.949 . S
C389 C387 1.384 . S
C389 C390 1.385 . S
C389 H391 0.950 . S
C390 C384 1.404 . S
C390 H388 0.949 . S
C390 C389 1.385 . S
H391 C389 0.950 . S
H392 C376 0.951 . S
H393 C378 0.951 . S
H394 C380 0.951 . S
H395 C381 0.950 . S
H396 C382 0.950 . S
H397 C383 0.950 . S
H398 C385 0.950 . S
H399 C386 0.951 . S
C400 C401 1.386 . S
C400 C402 1.383 . S
C400 H416 0.951 . S
C401 C400 1.386 . S
C401 C405 1.383 1_554 S
C402 C400 1.383 . S
C402 C403 1.402 . S
C402 H417 0.951 . S
C403 C402 1.402 . S
C403 C404 1.375 1_554 S
C403 C406 1.479 1_454 S
C404 C403 1.375 1_556 S
C404 C405 1.367 . S
C404 H418 0.951 . S
C405 C401 1.383 1_556 S
C405 C404 1.367 . S
C405 H419 0.950 . S
C406 C403 1.479 1_656 S
C406 C407 1.294 1_546 S
C406 H420 0.955 . S
C407 C406 1.294 1_564 S
C407 C408 1.479 . S
C407 H421 0.940 1_655 S
C408 C407 1.479 . S
C408 C409 1.375 . S
C408 C414 1.404 1_554 S
C409 C408 1.375 . S
C409 C410 1.369 . S
C409 H422 0.950 . S
C410 C409 1.369 . S
C410 C411 1.392 1_554 S
C410 H423 0.951 . S
C411 C410 1.392 1_556 S
C411 C413 1.384 . S
H412 C414 0.949 . S
C413 C411 1.384 . S
C413 C414 1.385 . S
C413 H415 0.950 . S
C414 C408 1.404 1_556 S
C414 H412 0.949 . S
C414 C413 1.385 . S
H415 C413 0.950 . S
H416 C400 0.951 . S
H417 C402 0.951 . S
H418 C404 0.951 . S
H419 C405 0.950 . S
H420 C406 0.955 . S
H421 C407 0.940 1_455 S
H422 C409 0.950 . S
H423 C410 0.951 . S
C424 C425 1.386 . S
C424 C426 1.383 . S
C424 H440 0.951 . S
C425 C424 1.386 . S
C425 C429 1.383 . S
C426 C424 1.383 . S
C426 C427 1.402 . S
C426 H441 0.951 . S
C427 C426 1.402 . S
C427 C428 1.375 . S
C427 C430 1.481 . S
C428 C427 1.375 . S
C428 C429 1.367 . S
C428 H442 0.951 . S
C429 C425 1.383 . S
C429 C428 1.367 . S
C429 H443 0.950 . S
C430 C427 1.481 . S
C430 C431 1.297 . S
C430 H444 0.950 . S
C431 C430 1.297 . S
C431 C432 1.479 . S
C431 H445 0.950 . S
C432 C431 1.479 . S
C432 C433 1.375 . S
C432 C438 1.404 . S
C433 C432 1.375 . S
C433 C434 1.369 . S
C433 H446 0.950 . S
C434 C433 1.369 . S
C434 C435 1.392 . S
C434 H447 0.951 . S
C435 C434 1.392 . S
C435 C437 1.384 . S
H436 C438 0.949 . S
C437 C435 1.384 . S
C437 C438 1.385 . S
C437 H439 0.950 . S
C438 C432 1.404 . S
C438 H436 0.949 . S
C438 C437 1.385 . S
H439 C437 0.950 . S
H440 C424 0.951 . S
H441 C426 0.951 . S
H442 C428 0.951 . S
H443 C429 0.950 . S
H444 C430 0.950 . S
H445 C431 0.950 . S
H446 C433 0.950 . S
H447 C434 0.951 . S
C448 C449 1.386 . S
C448 C450 1.383 . S
C448 H464 0.951 . S
C449 C448 1.386 . S
C449 C453 1.383 1_554 S
C450 C448 1.383 . S
C450 C451 1.407 . S
C450 H465 0.951 . S
C451 C450 1.407 . S
C451 C452 1.371 1_554 S
C451 C454 1.479 1_554 S
C452 C451 1.371 1_556 S
C452 C453 1.367 . S
C452 H466 0.951 . S
C453 C449 1.383 1_556 S
C453 C452 1.367 . S
C453 H467 0.950 . S
C454 C451 1.479 1_556 S
C454 C455 1.297 1_556 S
C454 H468 0.950 . S
C455 C454 1.297 1_554 S
C455 C456 1.479 1_554 S
C455 H469 0.950 . S
C456 C455 1.479 1_556 S
C456 C457 1.375 1_556 S
C456 C462 1.404 . S
C457 C456 1.375 1_554 S
C457 C458 1.369 . S
C457 H470 0.950 . S
C458 C457 1.369 . S
C458 C459 1.392 1_554 S
C458 H471 0.951 . S
C459 C458 1.392 1_556 S
C459 C461 1.384 . S
H460 C462 0.949 . S
C461 C459 1.384 . S
C461 C462 1.385 . S
C461 H463 0.950 . S
C462 C456 1.404 . S
C462 H460 0.949 . S
C462 C461 1.385 . S
H463 C461 0.950 . S
H464 C448 0.951 . S
H465 C450 0.951 . S
H466 C452 0.951 . S
H467 C453 0.950 . S
H468 C454 0.950 . S
H469 C455 0.950 . S
H470 C457 0.950 . S
H471 C458 0.951 . S
C472 C473 1.386 . S
C472 C474 1.383 . S
C472 H488 0.951 . S
C473 C472 1.386 . S
C473 C477 1.383 . S
C474 C472 1.383 . S
C474 C475 1.402 . S
C474 H489 0.951 . S
C475 C474 1.402 . S
C475 C476 1.375 . S
C475 C478 1.481 . S
C476 C475 1.375 . S
C476 C477 1.367 . S
C476 H490 0.951 . S
C477 C473 1.383 . S
C477 C476 1.367 . S
C477 H491 0.950 . S
C478 C475 1.481 . S
C478 C479 1.297 1_565 S
C478 H492 0.950 1_455 S
C479 C478 1.297 1_545 S
C479 C480 1.479 1_455 S
C479 H493 0.950 . S
C480 C479 1.479 1_655 S
C480 C481 1.375 . S
C480 C486 1.404 . S
C481 C480 1.375 . S
C481 C482 1.369 . S
C481 H494 0.950 . S
C482 C481 1.369 . S
C482 C483 1.392 . S
C482 H495 0.951 . S
C483 C482 1.392 . S
C483 C485 1.384 . S
H484 C486 0.949 . S
C485 C483 1.384 . S
C485 C486 1.385 . S
C485 H487 0.950 . S
C486 C480 1.404 . S
C486 H484 0.949 . S
C486 C485 1.385 . S
H487 C485 0.950 . S
H488 C472 0.951 . S
H489 C474 0.951 . S
H490 C476 0.951 . S
H491 C477 0.950 . S
H492 C478 0.950 1_655 S
H493 C479 0.950 . S
H494 C481 0.950 . S
H495 C482 0.951 . S
C113 C21 1.655 . S
C123 C8 1.669 . S
C137 C7 1.625 . S
C147 C22 1.674 . S
C161 C49 1.606 . S
C171 C36 1.639 . S
C185 C35 1.612 . S
C195 C50 1.661 . S
C209 C64 1.673 . S
C219 C77 1.592 . S
C233 C78 1.672 . S
C243 C63 1.594 . S
C257 C92 1.667 . S
C267 C105 1.607 . S
C281 C91 1.644 . S
C291 C106 1.640 . S
C305 C9 0.631 . S
C315 C51 0.714 . S
C329 C23 0.492 . S
C339 C37 0.529 . S
C353 C107 0.616 . S
C363 C65 0.648 . S
C377 C93 0.637 . S
C387 C79 0.511 . S
C401 C3 1.539 . S
C411 C59 1.564 . S
C425 C73 1.541 . S
C435 C17 1.567 . S
C449 C87 1.565 . S
C459 C31 1.524 . S
C473 C101 1.551 . S
C483 C45 1.525 . S
