# Generated by pormake.
# Topology wkq, (6)-cn, num edge types: 1
# Building blocks:
#     Node 0, Type 0, BuildingBlock: IZENUY_clean_sbu_0, # of connection points: 6
#     Node 1, Type 0, BuildingBlock: IZENUY_clean_sbu_0, # of connection points: 6
#     Node 2, Type 0, BuildingBlock: IZENUY_clean_sbu_0, # of connection points: 6
#     Node 3, Type 0, BuildingBlock: IZENUY_clean_sbu_0, # of connection points: 6
#     Node 4, Type 0, BuildingBlock: IZENUY_clean_sbu_0, # of connection points: 6
#     Node 5, Type 0, BuildingBlock: IZENUY_clean_sbu_0, # of connection points: 6
#     Node 6, Type 0, BuildingBlock: IZENUY_clean_sbu_0, # of connection points: 6
#     Node 7, Type 0, BuildingBlock: IZENUY_clean_sbu_0, # of connection points: 6
#     Node 8, Type 0, BuildingBlock: IZENUY_clean_sbu_0, # of connection points: 6
#     Node 9, Type 0, BuildingBlock: IZENUY_clean_sbu_0, # of connection points: 6
#     Node 10, Type 0, BuildingBlock: IZENUY_clean_sbu_0, # of connection points: 6
#     Node 11, Type 0, BuildingBlock: IZENUY_clean_sbu_0, # of connection points: 6
#     Edge 12, Type (0, 0), BuildingBlock: XIVTED_clean_linker_0, # of connection points: 2
#     Edge 13, Type (0, 0), BuildingBlock: XIVTED_clean_linker_0, # of connection points: 2
#     Edge 14, Type (0, 0), BuildingBlock: XIVTED_clean_linker_0, # of connection points: 2
#     Edge 15, Type (0, 0), BuildingBlock: XIVTED_clean_linker_0, # of connection points: 2
#     Edge 16, Type (0, 0), BuildingBlock: XIVTED_clean_linker_0, # of connection points: 2
#     Edge 17, Type (0, 0), BuildingBlock: XIVTED_clean_linker_0, # of connection points: 2
#     Edge 18, Type (0, 0), BuildingBlock: XIVTED_clean_linker_0, # of connection points: 2
#     Edge 19, Type (0, 0), BuildingBlock: XIVTED_clean_linker_0, # of connection points: 2
#     Edge 20, Type (0, 0), BuildingBlock: XIVTED_clean_linker_0, # of connection points: 2
#     Edge 21, Type (0, 0), BuildingBlock: XIVTED_clean_linker_0, # of connection points: 2
#     Edge 22, Type (0, 0), BuildingBlock: XIVTED_clean_linker_0, # of connection points: 2
#     Edge 23, Type (0, 0), BuildingBlock: XIVTED_clean_linker_0, # of connection points: 2
#     Edge 24, Type (0, 0), BuildingBlock: XIVTED_clean_linker_0, # of connection points: 2
#     Edge 25, Type (0, 0), BuildingBlock: XIVTED_clean_linker_0, # of connection points: 2
#     Edge 26, Type (0, 0), BuildingBlock: XIVTED_clean_linker_0, # of connection points: 2
#     Edge 27, Type (0, 0), BuildingBlock: XIVTED_clean_linker_0, # of connection points: 2
#     Edge 28, Type (0, 0), BuildingBlock: XIVTED_clean_linker_0, # of connection points: 2
#     Edge 29, Type (0, 0), BuildingBlock: XIVTED_clean_linker_0, # of connection points: 2
#     Edge 30, Type (0, 0), BuildingBlock: XIVTED_clean_linker_0, # of connection points: 2
#     Edge 31, Type (0, 0), BuildingBlock: XIVTED_clean_linker_0, # of connection points: 2
#     Edge 32, Type (0, 0), BuildingBlock: XIVTED_clean_linker_0, # of connection points: 2
#     Edge 33, Type (0, 0), BuildingBlock: XIVTED_clean_linker_0, # of connection points: 2
#     Edge 34, Type (0, 0), BuildingBlock: XIVTED_clean_linker_0, # of connection points: 2
#     Edge 35, Type (0, 0), BuildingBlock: XIVTED_clean_linker_0, # of connection points: 2
#     Edge 36, Type (0, 0), BuildingBlock: XIVTED_clean_linker_0, # of connection points: 2
#     Edge 37, Type (0, 0), BuildingBlock: XIVTED_clean_linker_0, # of connection points: 2
#     Edge 38, Type (0, 0), BuildingBlock: XIVTED_clean_linker_0, # of connection points: 2
#     Edge 39, Type (0, 0), BuildingBlock: XIVTED_clean_linker_0, # of connection points: 2
#     Edge 40, Type (0, 0), BuildingBlock: XIVTED_clean_linker_0, # of connection points: 2
#     Edge 41, Type (0, 0), BuildingBlock: XIVTED_clean_linker_0, # of connection points: 2
#     Edge 42, Type (0, 0), BuildingBlock: XIVTED_clean_linker_0, # of connection points: 2
#     Edge 43, Type (0, 0), BuildingBlock: XIVTED_clean_linker_0, # of connection points: 2
#     Edge 44, Type (0, 0), BuildingBlock: XIVTED_clean_linker_0, # of connection points: 2
#     Edge 45, Type (0, 0), BuildingBlock: XIVTED_clean_linker_0, # of connection points: 2
#     Edge 46, Type (0, 0), BuildingBlock: XIVTED_clean_linker_0, # of connection points: 2
#     Edge 47, Type (0, 0), BuildingBlock: XIVTED_clean_linker_0, # of connection points: 2
# Relax obj value: 0.404
# Max RMSD: 0.286
# Mean RMSD: 0.286
data_MOF--net-wkq--node1-IZENUY_clean_sbu_0--edge1-XIVTED_clean_linker_0
_symmetry_space_group_name_H-M    P1
_symmetry_Int_Tables_number       1
_symmetry_cell_setting            triclinic
loop_
_symmetry_equiv_pos_as_xyz
'x, y, z'
_cell_length_a     37.753265
_cell_length_b     37.726625
_cell_length_c     34.585388
_cell_angle_alpha  90.036399
_cell_angle_beta   90.055047
_cell_angle_gamma 120.02349
loop_
_atom_site_label
_atom_site_type_symbol
_atom_site_fract_x
_atom_site_fract_y
_atom_site_fract_z
_atom_type_partial_charge
Fe0 Fe 0.22699 0.3693 0.03479 0.0
Fe1 Fe 0.27802 0.46088 0.05336 0.0
O2 O 0.24256 0.42092 0.02321 0.0
Fe3 Fe 0.22335 0.43318 0.98137 0.0
O4 O 0.172 0.38677 0.98321 0.0
O5 O 0.17401 0.35545 0.03609 0.0
O6 O 0.22766 0.37714 0.08692 0.0
C7 C 0.22905 0.40569 0.10729 0.0
C8 C 0.239 0.37334 0.95407 0.0
O9 O 0.24333 0.44149 0.09403 0.0
C10 C 0.30748 0.49391 0.98282 0.0
O11 O 0.27933 0.3786 0.03559 0.0
O12 O 0.30417 0.43439 0.07019 0.0
O13 O 0.24412 0.40892 0.95009 0.0
O14 O 0.22327 0.35281 0.98446 0.0
C15 C 0.22296 0.48754 0.03381 0.0
O16 O 0.31476 0.482 0.01436 0.0
O17 O 0.27099 0.48179 0.97216 0.0
C18 C 0.3056 0.4033 0.05925 0.0
O19 O 0.25837 0.49535 0.04351 0.0
O20 O 0.20204 0.45895 0.01016 0.0
C21 C 0.15404 0.36118 0.01021 0.0
Fe22 Fe 0.80034 0.22015 0.13619 0.0
Fe23 Fe 0.86378 0.22125 0.19304 0.0
O24 O 0.83143 0.24004 0.17809 0.0
Fe25 Fe 0.83029 0.27928 0.205 0.0
O26 O 0.77686 0.26266 0.19354 0.0
O27 O 0.75357 0.20346 0.16445 0.0
O28 O 0.79142 0.16725 0.14191 0.0
C29 C 0.79629 0.14965 0.17111 0.0
C30 C 0.83023 0.30597 0.13225 0.0
O31 O 0.82149 0.16998 0.19725 0.0
C32 C 0.914 0.30075 0.21194 0.0
O33 O 0.84549 0.23629 0.10597 0.0
O34 O 0.87534 0.21215 0.1438 0.0
O35 O 0.84887 0.31346 0.16414 0.0
O36 O 0.80377 0.26942 0.12302 0.0
C37 C 0.83053 0.23116 0.26304 0.0
O38 O 0.90913 0.27163 0.19048 0.0
O39 O 0.88322 0.30305 0.2227 0.0
C40 C 0.87374 0.22828 0.11225 0.0
O41 O 0.85725 0.2268 0.24487 0.0
O42 O 0.81177 0.24702 0.24708 0.0
C43 C 0.74783 0.22695 0.18641 0.0
Fe44 Fe 0.66528 0.85783 0.36669 0.0
Fe45 Fe 0.57641 0.82632 0.39063 0.0
O46 O 0.61203 0.82795 0.35649 0.0
Fe47 Fe 0.59581 0.79977 0.31262 0.0
O48 O 0.62328 0.77251 0.32435 0.0
O49 O 0.68064 0.82791 0.33673 0.0
O50 O 0.66044 0.82545 0.40746 0.0
C51 C 0.635 0.81779 0.43441 0.0
C52 C 0.66148 0.87905 0.2924 0.0
O53 O 0.60699 0.82695 0.43188 0.0
C54 C 0.54098 0.8278 0.31816 0.0
O55 O 0.66138 0.89396 0.39902 0.0
O56 O 0.59909 0.88188 0.39095 0.0
O57 O 0.63871 0.84105 0.28439 0.0
O58 O 0.67177 0.89114 0.32681 0.0
C59 C 0.53786 0.74516 0.36791 0.0
O60 O 0.5397 0.8241 0.3546 0.0
O61 O 0.56665 0.82372 0.29817 0.0
C62 C 0.63495 0.90475 0.40317 0.0
O63 O 0.55103 0.77147 0.3944 0.0
O64 O 0.54978 0.75502 0.33323 0.0
C65 C 0.66103 0.78981 0.33148 0.0
Fe66 Fe 0.8105 0.65902 0.53444 0.0
Fe67 Fe 0.75675 0.56784 0.55401 0.0
O68 O 0.79327 0.60682 0.5237 0.0
Fe69 Fe 0.81227 0.5935 0.48243 0.0
O70 O 0.86423 0.63924 0.48474 0.0
O71 O 0.86274 0.67062 0.5378 0.0
O72 O 0.80772 0.65217 0.58681 0.0
C73 C 0.80465 0.62365 0.60825 0.0
C74 C 0.79911 0.65433 0.45395 0.0
O75 O 0.79049 0.58772 0.59542 0.0
C76 C 0.72777 0.53338 0.48334 0.0
O77 O 0.75903 0.65145 0.53286 0.0
O78 O 0.73089 0.59584 0.56815 0.0
O79 O 0.79247 0.61818 0.45051 0.0
O80 O 0.81654 0.67522 0.48378 0.0
C81 C 0.81124 0.53946 0.53634 0.0
O82 O 0.72045 0.54551 0.51472 0.0
O83 O 0.76424 0.54554 0.47274 0.0
C84 C 0.73125 0.62749 0.55568 0.0
O85 O 0.77624 0.53275 0.54644 0.0
O86 O 0.83227 0.56712 0.51198 0.0
C87 C 0.88252 0.66418 0.51225 0.0
Fe88 Fe 0.16624 0.79925 0.69669 0.0
Fe89 Fe 0.19631 0.7382 0.70769 0.0
O90 O 0.19869 0.7802 0.6829 0.0
Fe91 Fe 0.23317 0.80242 0.64361 0.0
O92 O 0.24199 0.85492 0.65119 0.0
O93 O 0.20915 0.84959 0.70525 0.0
O94 O 0.16788 0.78953 0.74845 0.0
C95 C 0.19162 0.78191 0.76812 0.0
C96 C 0.16221 0.797 0.61567 0.0
O97 O 0.21102 0.76639 0.75266 0.0
C98 C 0.20292 0.71753 0.6341 0.0
O99 O 0.1203 0.74992 0.68961 0.0
O100 O 0.14215 0.71419 0.72074 0.0
O101 O 0.1903 0.7885 0.61056 0.0
O102 O 0.15945 0.81238 0.64727 0.0
C103 C 0.28089 0.79056 0.69575 0.0
O104 O 0.18095 0.70754 0.66399 0.0
O105 O 0.23088 0.75433 0.62887 0.0
C106 C 0.11295 0.71859 0.70882 0.0
O107 O 0.25052 0.7549 0.70036 0.0
O108 O 0.27749 0.81641 0.67503 0.0
C109 C 0.23587 0.87117 0.68072 0.0
Fe110 Fe 0.36947 0.16433 0.86557 0.0
Fe111 Fe 0.4587 0.19912 0.89006 0.0
O112 O 0.42245 0.19634 0.856 0.0
Fe113 Fe 0.43831 0.22563 0.81284 0.0
O114 O 0.40966 0.25129 0.82537 0.0
O115 O 0.35286 0.19491 0.83808 0.0
O116 O 0.37237 0.19379 0.90817 0.0
C117 C 0.39766 0.20102 0.93511 0.0
C118 C 0.37415 0.14692 0.79009 0.0
O119 O 0.42672 0.19367 0.9315 0.0
C120 C 0.49549 0.20112 0.81788 0.0
O121 O 0.37549 0.12736 0.8949 0.0
O122 O 0.43959 0.14423 0.88781 0.0
O123 O 0.39613 0.18516 0.78339 0.0
O124 O 0.36422 0.13345 0.82403 0.0
C125 C 0.49375 0.28015 0.8698 0.0
O126 O 0.49715 0.20601 0.85415 0.0
O127 O 0.46845 0.20281 0.79783 0.0
C128 C 0.40346 0.11831 0.89729 0.0
O129 O 0.48023 0.25349 0.89595 0.0
O130 O 0.48356 0.27029 0.8347 0.0
C131 C 0.37193 0.23311 0.83283 0.0
Fe132 Fe 0.59651 0.81198 0.84087 0.0
Fe133 Fe 0.66053 0.80854 0.7879 0.0
O134 O 0.60886 0.79133 0.80028 0.0
Fe135 Fe 0.56895 0.75251 0.77246 0.0
O136 O 0.53232 0.76992 0.78183 0.0
O137 O 0.56792 0.82927 0.81089 0.0
O138 O 0.64129 0.8643 0.83612 0.0
C139 C 0.66581 0.88137 0.80817 0.0
C140 C 0.53947 0.72682 0.8447 0.0
O141 O 0.67174 0.86054 0.78341 0.0
C142 C 0.62963 0.72887 0.76849 0.0
O143 O 0.62319 0.79489 0.87313 0.0
O144 O 0.67871 0.81616 0.83806 0.0
O145 O 0.5512 0.71841 0.81366 0.0
O146 O 0.54962 0.76353 0.85294 0.0
C147 C 0.62085 0.79972 0.71566 0.0
O148 O 0.65387 0.75744 0.79047 0.0
O149 O 0.59739 0.72765 0.75682 0.0
C150 C 0.65882 0.80042 0.86879 0.0
O151 O 0.65078 0.80398 0.73584 0.0
O152 O 0.5853 0.7846 0.72982 0.0
C153 C 0.53767 0.80485 0.79039 0.0
Fe154 Fe 0.85859 0.66487 0.95483 0.0
Fe155 Fe 0.82384 0.57694 0.92564 0.0
O156 O 0.82771 0.61123 0.96239 0.0
Fe157 Fe 0.8005 0.5931 0.00646 0.0
O158 O 0.77357 0.62151 -0.00219 0.0
O159 O 0.82937 0.67914 0.98705 0.0
O160 O 0.82636 0.66344 0.91522 0.0
C161 C 0.81742 0.63935 0.88684 0.0
C162 C 0.88007 0.65652 0.02775 0.0
O163 O 0.82525 0.61035 0.8868 0.0
C164 C 0.82661 0.53758 -0.00494 0.0
O165 O 0.89385 0.66151 0.92092 0.0
O166 O 0.87898 0.59775 0.92396 0.0
O167 O 0.84211 0.63444 0.03569 0.0
O168 O 0.892 0.66834 -0.00634 0.0
C169 C 0.74391 0.53854 0.95024 0.0
O170 O 0.82071 0.53757 0.95896 0.0
O171 O 0.82465 0.56312 0.01727 0.0
C172 C 0.9031 0.63426 0.91409 0.0
O173 O 0.76909 0.55373 0.92303 0.0
O174 O 0.75531 0.54809 0.9851 0.0
C175 C 0.79122 0.65959 0.99199 0.0
Fe176 Fe 0.27412 0.81936 0.10053 0.0
Fe177 Fe 0.2241 0.79417 0.17615 0.0
O178 O 0.23915 0.82262 0.13239 0.0
Fe179 Fe 0.21813 0.85395 0.1198 0.0
O180 O 0.19366 0.82331 0.07694 0.0
O181 O 0.2494 0.82386 0.0571 0.0
O182 O 0.24153 0.76471 0.09535 0.0
C183 C 0.22659 0.73852 0.12188 0.0
C184 C 0.29947 0.90017 0.0919 0.0
O185 O 0.2254 0.74914 0.15649 0.0
C186 C 0.23706 0.87319 0.19587 0.0
O187 O 0.30444 0.81365 0.13874 0.0
O188 O 0.27646 0.81735 0.19328 0.0
O189 O 0.26226 0.89064 0.09175 0.0
O190 O 0.30964 0.87439 0.1021 0.0
C191 C 0.15076 0.78595 0.15236 0.0
O192 O 0.22139 0.83519 0.2035 0.0
O193 O 0.24152 0.88586 0.16149 0.0
C194 C 0.30631 0.81949 0.1749 0.0
O195 O 0.17014 0.76809 0.16183 0.0
O196 O 0.16992 0.82384 0.14566 0.0
C197 C 0.21301 0.81582 0.05148 0.0
Fe198 Fe 0.38139 0.21487 0.2857 0.0
Fe199 Fe 0.47332 0.26231 0.26835 0.0
O200 O 0.43236 0.22977 0.29931 0.0
Fe201 Fe 0.44288 0.2127 0.3435 0.0
O202 O 0.39642 0.16122 0.3421 0.0
O203 O 0.36576 0.16153 0.28794 0.0
O204 O 0.3903 0.21191 0.23422 0.0
C205 C 0.4184 0.21021 0.21584 0.0
C206 C 0.38293 0.23055 0.36575 0.0
O207 O 0.45374 0.22427 0.23021 0.0
C208 C 0.50443 0.29685 0.33848 0.0
O209 O 0.39279 0.26772 0.28137 0.0
O210 O 0.44799 0.28794 0.24693 0.0
O211 O 0.41796 0.23506 0.3716 0.0
O212 O 0.36353 0.21459 0.33487 0.0
C213 C 0.49859 0.20848 0.29542 0.0
O214 O 0.49472 0.30196 0.30483 0.0
O215 O 0.49097 0.26115 0.35236 0.0
C216 C 0.41766 0.29145 0.25641 0.0
O217 O 0.50705 0.24303 0.28256 0.0
O218 O 0.46927 0.18953 0.3187 0.0
C219 C 0.37082 0.1425 0.31518 0.0
Fe220 Fe 0.17438 0.35871 0.45578 0.0
Fe221 Fe 0.20291 0.44605 0.42828 0.0
O222 O 0.20393 0.41261 0.4635 0.0
Fe223 Fe 0.23438 0.43135 0.50594 0.0
O224 O 0.26142 0.40373 0.49423 0.0
O225 O 0.206 0.34548 0.48569 0.0
O226 O 0.20531 0.36213 0.41441 0.0
C227 C 0.21184 0.38644 0.38669 0.0
C228 C 0.15638 0.36621 0.53021 0.0
O229 O 0.20182 0.41392 0.38821 0.0
C230 C 0.20448 0.48472 0.49966 0.0
O231 O 0.13632 0.35992 0.42387 0.0
O232 O 0.14741 0.42199 0.42994 0.0
O233 O 0.19464 0.38975 0.53658 0.0
O234 O 0.14275 0.3539 0.49651 0.0
C235 C 0.28528 0.48754 0.44757 0.0
O236 O 0.20497 0.48359 0.4631 0.0
O237 O 0.21135 0.46129 0.52035 0.0
C238 C 0.12467 0.38563 0.41902 0.0
O239 O 0.25761 0.4731 0.42236 0.0
O240 O 0.27763 0.47632 0.48263 0.0
C241 C 0.24428 0.36569 0.48895 0.0
Fe242 Fe 0.76275 0.2158 0.60428 0.0
Fe243 Fe 0.81548 0.23693 0.67751 0.0
O244 O 0.79793 0.20964 0.63326 0.0
Fe245 Fe 0.81493 0.17594 0.61778 0.0
O246 O 0.81418 0.18696 0.56614 0.0
O247 O 0.79897 0.2361 0.56525 0.0
O248 O 0.78086 0.26872 0.61889 0.0
C249 C 0.81576 0.2957 0.6306 0.0
C250 C 0.73604 0.13134 0.59386 0.0
O251 O 0.83629 0.2864 0.65302 0.0
C252 C 0.80211 0.1604 0.69778 0.0
O253 O 0.72495 0.19581 0.64207 0.0
O254 O 0.76652 0.23487 0.68819 0.0
O255 O 0.76313 0.13262 0.61609 0.0
O256 O 0.73783 0.1642 0.58311 0.0
C257 C 0.88649 0.23934 0.64587 0.0
O258 O 0.79529 0.18929 0.7048 0.0
O259 O 0.81912 0.15952 0.66659 0.0
C260 C 0.73058 0.21103 0.67551 0.0
O261 O 0.86761 0.24363 0.6743 0.0
O262 O 0.86745 0.21618 0.61797 0.0
C263 C 0.81434 0.2169 0.54934 0.0
H264 H 0.18407 0.52241 -0.00529 0.0
H265 H 0.22028 0.67731 0.16993 0.0
H266 H 0.23226 0.51732 0.1063 0.0
H267 H 0.20495 0.70165 0.05107 0.0
H268 H 0.2085 0.60968 0.15037 0.0
H269 H 0.17517 0.57912 0.01841 0.0
C270 C 0.19175 0.53252 0.02442 0.0
C271 C 0.20916 0.51546 0.04853 0.0
C272 C 0.20728 0.62971 0.12866 0.0
C273 C 0.19936 0.58007 0.07573 0.0
C274 C 0.21384 0.66825 0.13986 0.0
C275 C 0.21426 0.69549 0.11203 0.0
C276 C 0.20067 0.61815 0.08942 0.0
C277 C 0.20565 0.68197 0.07343 0.0
C278 C 0.18702 0.56504 0.03786 0.0
C279 C 0.21904 0.52995 0.08669 0.0
N280 N 0.1995 0.64447 0.06324 0.0
N281 N 0.21426 0.56148 0.09902 0.0
H282 H 0.5608 0.2132 0.33914 0.0
H283 H 0.67008 0.17229 0.15899 0.0
H284 H 0.50331 0.17523 0.22753 0.0
H285 H 0.73368 0.25215 0.255 0.0
H286 H 0.60448 0.15651 0.18908 0.0
H287 H 0.61967 0.20908 0.31456 0.0
C288 C 0.55992 0.20237 0.30994 0.0
C289 C 0.527 0.19377 0.28549 0.0
C290 C 0.6329 0.17718 0.20359 0.0
C291 C 0.59456 0.19031 0.25671 0.0
C292 C 0.67023 0.18614 0.18647 0.0
C293 C 0.70737 0.21409 0.20419 0.0
C294 C 0.63287 0.19555 0.23905 0.0
C295 C 0.70582 0.23102 0.23993 0.0
C296 C 0.5937 0.20058 0.29571 0.0
C297 C 0.52791 0.18133 0.24741 0.0
N298 N 0.66935 0.22153 0.25609 0.0
N299 N 0.56128 0.18023 0.23404 0.0
H300 H 0.31325 0.51144 0.37384 0.0
H301 H 0.51757 0.71209 0.44009 0.0
H302 H 0.35135 0.54007 0.49295 0.0
H303 H 0.48329 0.68197 0.32039 0.0
H304 H 0.46019 0.64648 0.45914 0.0
H305 H 0.37766 0.57013 0.35347 0.0
C306 C 0.33529 0.52982 0.39583 0.0
C307 C 0.32649 0.52076 0.43536 0.0
C308 C 0.46526 0.65389 0.42867 0.0
C309 C 0.40075 0.58871 0.41186 0.0
C310 C 0.49822 0.69151 0.41764 0.0
C311 C 0.50537 0.70295 0.37845 0.0
C312 C 0.43859 0.62717 0.40046 0.0
C313 C 0.47907 0.67462 0.35089 0.0
C314 C 0.37218 0.56346 0.38404 0.0
C315 C 0.35659 0.54578 0.46224 0.0
N316 N 0.44659 0.63823 0.36245 0.0
N317 N 0.39214 0.57878 0.45001 0.0
H318 H 0.80247 0.51184 0.60975 0.0
H319 H 0.83091 0.32513 0.55769 0.0
H320 H 0.8503 0.5037 0.49908 0.0
H321 H 0.83116 0.3619 0.6756 0.0
H322 H 0.84101 0.39123 0.53553 0.0
H323 H 0.81521 0.45869 0.63475 0.0
C324 C 0.81623 0.49916 0.59085 0.0
C325 C 0.82516 0.51201 0.55222 0.0
C326 C 0.83981 0.38534 0.56628 0.0
C327 C 0.83909 0.45037 0.5805 0.0
C328 C 0.83411 0.34767 0.57892 0.0
C329 C 0.83054 0.33835 0.61848 0.0
C330 C 0.84068 0.41348 0.59339 0.0
C331 C 0.83428 0.36822 0.64487 0.0
C332 C 0.8236 0.46889 0.60519 0.0
C333 C 0.84308 0.49472 0.52904 0.0
N334 N 0.83842 0.40421 0.63182 0.0
N335 N 0.84873 0.46417 0.54333 0.0
H336 H 0.53701 0.86889 0.75197 0.0
H337 H 0.29158 0.74998 0.75489 0.0
H338 H 0.45927 0.75532 0.81085 0.0
H339 H 0.36057 0.85168 0.67789 0.0
H340 H 0.35479 0.7597 0.7823 0.0
H341 H 0.47535 0.87112 0.73123 0.0
C342 C 0.50708 0.84504 0.76127 0.0
C343 C 0.50306 0.81193 0.78324 0.0
C344 C 0.35647 0.78007 0.75943 0.0
C345 C 0.43292 0.81397 0.75952 0.0
C346 C 0.32016 0.77445 0.74358 0.0
C347 C 0.32055 0.79955 0.71342 0.0
C348 C 0.39416 0.81097 0.74514 0.0
C349 C 0.35879 0.83136 0.70084 0.0
C350 C 0.47198 0.8461 0.74916 0.0
C351 C 0.46369 0.7814 0.79396 0.0
N352 N 0.39418 0.83594 0.71649 0.0
N353 N 0.43038 0.78314 0.78197 0.0
H354 H 0.68362 0.48273 -0.00131 0.0
H355 H 0.54329 0.34552 0.82256 0.0
H356 H 0.70848 0.51815 0.87873 0.0
H357 H 0.51716 0.31128 0.94268 0.0
H358 H 0.60018 0.41216 0.84285 0.0
H359 H 0.61855 0.42303 0.97924 0.0
C360 C 0.6752 0.47834 0.96839 0.0
C361 C 0.70188 0.50536 0.94036 0.0
C362 C 0.58172 0.39014 0.86475 0.0
C363 C 0.62762 0.43687 0.91776 0.0
C364 C 0.54915 0.3521 0.85314 0.0
C365 C 0.52555 0.32245 0.88085 0.0
C366 C 0.5908 0.3986 0.90436 0.0
C367 C 0.53466 0.33288 0.92015 0.0
C368 C 0.63811 0.44414 0.95723 0.0
C369 C 0.68923 0.49798 0.90142 0.0
N370 N 0.56664 0.3698 0.93066 0.0
N371 N 0.65333 0.46437 0.89131 0.0
H372 H 0.3219 0.33996 0.04852 0.0
H373 H 0.37193 0.32912 0.26864 0.0
H374 H 0.33995 0.43526 0.12911 0.0
H375 H 0.43111 0.29764 0.17914 0.0
H376 H 0.34725 0.35816 0.21853 0.0
H377 H 0.35107 0.3138 0.097 0.0
C378 C 0.33242 0.35567 0.07596 0.0
C379 C 0.32861 0.38998 0.08448 0.0
C380 C 0.3659 0.34503 0.21018 0.0
C381 C 0.36013 0.35939 0.1402 0.0
C382 C 0.37993 0.32862 0.23865 0.0
C383 C 0.40418 0.31171 0.22815 0.0
C384 C 0.37509 0.34314 0.17105 0.0
C385 C 0.41321 0.31118 0.18869 0.0
C386 C 0.34879 0.34065 0.1036 0.0
C387 C 0.34243 0.4089 0.12087 0.0
N388 N 0.39833 0.32626 0.16156 0.0
N389 N 0.35692 0.393 0.1475 0.0
H390 H 0.97812 0.2861 0.21571 0.0
H391 H 0.09103 0.43272 0.3956 0.0
H392 H 0.93621 0.36495 0.26225 0.0
H393 H 0.08437 0.31653 0.37529 0.0
H394 H 0.04383 0.41828 0.34087 0.0
H395 H 0.0305 0.31007 0.26594 0.0
C396 C 0.98048 0.3092 0.23584 0.0
C397 C 0.95221 0.32303 0.23499 0.0
C398 C 0.05274 0.39604 0.34873 0.0
C399 C 1.01195 0.35019 0.29302 0.0
C400 C 0.07937 0.40408 0.38006 0.0
C401 C 0.09173 0.37581 0.39026 0.0
C402 C 0.03921 0.35998 0.32708 0.0
C403 C 0.0758 0.3393 0.3688 0.0
C404 C 1.01014 0.32251 0.26483 0.0
C405 C 0.95706 0.3531 0.26202 0.0
N406 N 0.05084 0.33271 0.33813 0.0
N407 N 0.98608 0.36541 0.29022 0.0
H408 H 0.68299 0.1198 0.53433 0.0
H409 H 0.6787 0.91665 0.46829 0.0
H410 H 0.72878 0.05577 0.60301 0.0
H411 H 0.60828 0.96118 0.40857 0.0
H412 H 0.69403 0.96653 0.51899 0.0
H413 H 0.65104 0.06116 0.49032 0.0
C414 C 0.68567 0.09313 0.54067 0.0
C415 C 0.70929 0.09309 0.57218 0.0
C416 C 0.67514 0.9656 0.49499 0.0
C417 C 0.67308 0.0261 0.52156 0.0
C418 C 0.66666 0.93729 0.46569 0.0
C419 C 0.64286 0.93534 0.43367 0.0
C420 C 0.66037 0.99299 0.49231 0.0
C421 C 0.62712 0.96204 0.43258 0.0
C422 C 0.66747 0.05971 0.51539 0.0
C423 C 0.71141 0.05754 0.57892 0.0
N424 N 0.63669 0.99032 0.46128 0.0
N425 N 0.69409 0.02583 0.55354 0.0
H426 H 0.58578 0.65354 0.73514 0.0
H427 H 0.75704 0.70689 0.57555 0.0
H428 H 0.70779 0.75751 0.74328 0.0
H429 H 0.65856 0.58327 0.59346 0.0
H430 H 0.73261 0.72918 0.6308 0.0
H431 H 0.60746 0.62848 0.67974 0.0
C432 C 0.61745 0.6704 0.726 0.0
C433 C 0.64512 0.70741 0.74411 0.0
C434 C 0.71603 0.69727 0.62226 0.0
C435 C 0.66951 0.68008 0.67968 0.0
C436 C 0.72942 0.68467 0.59021 0.0
C437 C 0.70968 0.64313 0.57976 0.0
C438 C 0.68237 0.66827 0.64369 0.0
C439 C 0.67456 0.61559 0.60047 0.0
C440 C 0.62964 0.65638 0.69411 0.0
C441 C 0.68561 0.7285 0.73063 0.0
N442 N 0.66212 0.62859 0.63158 0.0
N443 N 0.69641 0.71489 0.69881 0.0
H444 H 0.08334 0.64672 0.74926 0.0
H445 H 0.95232 0.70773 0.87974 0.0
H446 H 0.05338 0.73922 0.71717 0.0
H447 H 0.92701 0.58264 0.88068 0.0
H448 H 0.99673 0.72155 0.82442 0.0
H449 H 0.02984 0.62202 0.79887 0.0
C450 C 0.06479 0.66111 0.75186 0.0
C451 C 0.07332 0.69553 0.7293 0.0
C452 C 0.98148 0.69105 0.83668 0.0
C453 C 1.01317 0.66816 0.78665 0.0
C454 C 0.95641 0.68314 0.86868 0.0
C455 C 0.93551 0.64377 0.88496 0.0
C456 C 0.98658 0.65969 0.8209 0.0
C457 C 0.94244 0.61341 0.86912 0.0
C458 C 0.03448 0.64711 0.78034 0.0
C459 C 0.04822 0.71283 0.73393 0.0
N460 N 0.96755 0.62203 0.83792 0.0
N461 N 0.01995 0.69955 0.76264 0.0
H462 H 0.45812 0.09842 0.93099 0.0
H463 H 0.29676 0.97017 0.0878 0.0
H464 H 0.32913 0.05635 0.91916 0.0
H465 H 0.36578 0.91493 0.04644 0.0
H466 H 0.32891 0.02317 0.03861 0.0
H467 H 0.44152 0.04678 0.98223 0.0
C468 C 0.4264 0.07789 0.93844 0.0
C469 C 0.39499 0.08219 0.92109 0.0
C470 C 0.33767 0.99993 0.04091 0.0
C471 C 0.37641 0.02467 0.97988 0.0
C472 C 0.31961 0.96988 0.06907 0.0
C473 C 0.32819 0.93781 0.07083 0.0
C474 C 0.36476 0.99822 0.01436 0.0
C475 C 0.35832 0.93915 0.04595 0.0
C476 C 0.41711 0.04874 0.96773 0.0
C477 C 0.35447 0.05477 0.93202 0.0
N478 N 0.37521 0.96864 0.01807 0.0
N479 N 0.34648 0.02788 0.96117 0.0
H480 H 0.53027 0.65118 0.85677 0.0
H481 H 0.30632 0.55398 0.94003 0.0
H482 H 0.47607 0.72532 0.88379 0.0
H483 H 0.38648 0.51007 0.97784 0.0
H484 H 0.36443 0.6116 0.90796 0.0
H485 H 0.47406 0.59354 0.89127 0.0
C486 C 0.50664 0.6553 0.87014 0.0
C487 C 0.50773 0.69295 0.86764 0.0
C488 C 0.36917 0.58926 0.92326 0.0
C489 C 0.44334 0.62733 0.90595 0.0
C490 C 0.33608 0.55627 0.94125 0.0
C491 C 0.34174 0.52733 0.96159 0.0
C492 C 0.4079 0.59273 0.92485 0.0
C493 C 0.38098 0.53191 0.96256 0.0
C494 C 0.47477 0.62257 0.88979 0.0
C495 C 0.47647 0.69686 0.88539 0.0
N496 N 0.41264 0.5639 0.94414 0.0
N497 N 0.44519 0.66424 0.90339 0.0
H498 H 0.80964 0.46451 0.96212 0.0
H499 H 0.87579 0.38752 0.1494 0.0
H500 H 0.85544 0.53521 0.06707 0.0
H501 H 0.7954 0.30457 0.06176 0.0
H502 H 0.87893 0.44463 0.11375 0.0
H503 H 0.81427 0.40846 -0.00714 0.0
C504 C 0.82105 0.46844 0.99147 0.0
C505 C 0.83199 0.50458 0.01214 0.0
C506 C 0.86072 0.41397 0.10222 0.0
C507 C 0.83747 0.44065 0.04729 0.0
C508 C 0.85896 0.38124 0.1225 0.0
C509 C 0.83488 0.34096 0.10881 0.0
C510 C 0.83853 0.40665 0.06774 0.0
C511 C 0.81406 0.33501 0.07358 0.0
C512 C 0.82348 0.43635 0.00901 0.0
C513 C 0.84642 0.50785 0.05013 0.0
N514 N 0.81625 0.36751 0.0543 0.0
N515 N 0.84873 0.47632 0.06644 0.0
H516 H 0.37704 0.82795 0.14467 0.0
H517 H 0.47592 0.83085 0.35005 0.0
H518 H 0.31992 0.82581 0.25347 0.0
H519 H 0.53323 0.83646 0.24042 0.0
H520 H 0.42062 0.83338 0.3157 0.0
H521 H 0.43623 0.83512 0.17971 0.0
C522 C 0.37693 0.82909 0.17597 0.0
C523 C 0.34317 0.82588 0.19612 0.0
C524 C 0.44545 0.83433 0.2992 0.0
C525 C 0.4112 0.8341 0.23657 0.0
C526 C 0.47711 0.83295 0.31879 0.0
C527 C 0.50919 0.83307 0.29812 0.0
C528 C 0.44577 0.83577 0.25862 0.0
C529 C 0.50905 0.83595 0.25764 0.0
C530 C 0.41086 0.83325 0.19599 0.0
C531 C 0.3451 0.82791 0.2367 0.0
N532 N 0.47773 0.83692 0.23926 0.0
N533 N 0.37843 0.83163 0.25559 0.0
H534 H 0.72634 0.51499 0.40671 0.0
H535 H 0.51723 0.3042 0.41665 0.0
H536 H 0.65143 0.47724 0.50936 0.0
H537 H 0.56234 0.37118 0.30993 0.0
H538 H 0.57029 0.3635 0.45197 0.0
H539 H 0.67039 0.4585 0.37108 0.0
C540 C 0.69809 0.49487 0.4217 0.0
C541 C 0.69351 0.50075 0.46104 0.0
C542 C 0.56836 0.3652 0.42084 0.0
C543 C 0.6298 0.43591 0.42067 0.0
C544 C 0.53829 0.33137 0.40068 0.0
C545 C 0.53545 0.33277 0.36031 0.0
C546 C 0.59629 0.40031 0.40039 0.0
C547 C 0.56335 0.36884 0.34106 0.0
C548 C 0.66619 0.4628 0.40134 0.0
C549 C 0.65618 0.4739 0.47902 0.0
N550 N 0.59289 0.40104 0.36123 0.0
N551 N 0.6259 0.44234 0.4588 0.0
H552 H 0.26772 0.71472 0.60348 0.0
H553 H 0.15347 0.51409 0.48066 0.0
H554 H 0.13603 0.64596 0.61102 0.0
H555 H 0.24794 0.53055 0.56109 0.0
H556 H 0.15105 0.57182 0.51167 0.0
H557 H 0.26628 0.65691 0.56942 0.0
C558 C 0.2385 0.68774 0.59731 0.0
C559 C 0.20191 0.68486 0.61002 0.0
C560 C 0.17209 0.56246 0.5224 0.0
C561 C 0.20018 0.61947 0.57087 0.0
C562 C 0.17353 0.5298 0.50485 0.0
C563 C 0.20072 0.51758 0.51867 0.0
C564 C 0.19909 0.58366 0.55281 0.0
C565 C 0.22625 0.53884 0.54995 0.0
C566 C 0.23777 0.65485 0.57822 0.0
C567 C 0.16485 0.64909 0.60174 0.0
N568 N 0.22525 0.5713 0.56565 0.0
N569 N 0.16483 0.61767 0.58237 0.0
H570 H 0.56686 0.21248 0.84954 0.0
H571 H 0.65084 0.17364 0.65161 0.0
H572 H 0.49959 0.18219 0.742 0.0
H573 H 0.72809 0.23453 0.75014 0.0
H574 H 0.59227 0.16718 0.68728 0.0
H575 H 0.62312 0.21114 0.81624 0.0
C576 C 0.56375 0.20526 0.81897 0.0
C577 C 0.52852 0.19773 0.79844 0.0
C578 C 0.62201 0.18186 0.70112 0.0
C579 C 0.59291 0.19615 0.76026 0.0
C580 C 0.65552 0.1855 0.68084 0.0
C581 C 0.6946 0.20502 0.6978 0.0
C582 C 0.62744 0.19752 0.73879 0.0
C583 C 0.69863 0.21959 0.73582 0.0
C584 C 0.59599 0.20467 0.79999 0.0
C585 C 0.52629 0.18852 0.75889 0.0
N586 N 0.66544 0.2156 0.75503 0.0
N587 N 0.55811 0.18805 0.74106 0.0
H588 H 0.30587 0.41291 0.90646 0.0
H589 H 0.28959 0.20169 0.84031 0.0
H590 H 0.20675 0.29283 0.93565 0.0
H591 H 0.40343 0.31666 0.83899 0.0
H592 H 0.25419 0.23762 0.86051 0.0
H593 H 0.33689 0.38076 0.86766 0.0
C594 C 0.29009 0.37987 0.90384 0.0
C595 C 0.25372 0.35546 0.92436 0.0
C596 C 0.28685 0.25515 0.85539 0.0
C597 C 0.28902 0.31865 0.88038 0.0
C598 C 0.30716 0.23464 0.8437 0.0
C599 C 0.34975 0.25606 0.83832 0.0
C600 C 0.30909 0.29754 0.86195 0.0
C601 C 0.37062 0.29885 0.84291 0.0
C602 C 0.30799 0.36157 0.88203 0.0
C603 C 0.23489 0.3128 0.92046 0.0
N604 N 0.35016 0.31816 0.85491 0.0
N605 N 0.25281 0.29582 0.89914 0.0
H606 H 0.90261 0.29008 0.0582 0.0
H607 H 0.10922 0.28279 0.03466 0.0
H608 H 0.92361 0.19587 0.10409 0.0
H609 H 0.09618 0.38274 0.9912 0.0
H610 H 0.0365 0.24506 0.04922 0.0
H611 H 0.96785 0.31873 0.02312 0.0
C612 C 0.92036 0.27478 0.06007 0.0
C613 C 0.90777 0.24068 0.08436 0.0
C614 C 0.04918 0.27502 0.03609 0.0
C615 C 0.98248 0.2735 0.04473 0.0
C616 C 0.0908 0.29658 0.02768 0.0
C617 C 0.10884 0.33612 0.01202 0.0
C618 C 0.02513 0.29324 0.02953 0.0
C619 C 0.08341 0.3523 0.00325 0.0
C620 C 0.95774 0.29135 0.04029 0.0
C621 C 0.93222 0.2224 0.08603 0.0
N622 N 0.04287 0.33107 0.01275 0.0
N623 N 0.9684 0.2392 0.06686 0.0
H624 H 0.62339 0.89881 0.23559 0.0
H625 H 0.83238 0.10574 0.18932 0.0
H626 H 0.74205 0.93176 0.28154 0.0
H627 H 0.71457 0.09133 0.1617 0.0
H628 H 0.79927 0.03418 0.20858 0.0
H629 H 0.65559 0.9612 0.19528 0.0
C630 C 0.65633 0.9185 0.23621 0.0
C631 C 0.68026 0.91017 0.26163 0.0
C632 C 0.78046 0.04626 0.19785 0.0
C633 C 0.71704 0.98132 0.21627 0.0
C634 C 0.79943 0.08713 0.18664 0.0
C635 C 0.77616 0.10451 0.17411 0.0
C636 C 0.73761 0.02233 0.19728 0.0
C637 C 0.73358 0.07897 0.17107 0.0
C638 C 0.6746 0.95422 0.21356 0.0
C639 C 0.7226 0.93703 0.26217 0.0
N640 N 0.7155 0.0392 0.18324 0.0
N641 N 0.73952 0.97132 0.24004 0.0
H642 H 0.62827 0.70611 0.33898 0.0
H643 H 0.83201 0.73473 0.43475 0.0
H644 H 0.74315 0.82003 0.33884 0.0
H645 H 0.73059 0.61502 0.40811 0.0
H646 H 0.8003 0.76549 0.39621 0.0
H647 H 0.66467 0.67073 0.36038 0.0
C648 C 0.66117 0.72356 0.34264 0.0
C649 C 0.68254 0.76623 0.3374 0.0
C650 C 0.78514 0.73244 0.39816 0.0
C651 C 0.72423 0.72608 0.36242 0.0
C652 C 0.80336 0.71487 0.42015 0.0
C653 C 0.78398 0.67226 0.42462 0.0
C654 C 0.74663 0.70739 0.38111 0.0
C655 C 0.74674 0.64802 0.40513 0.0
C656 C 0.68192 0.70336 0.35499 0.0
C657 C 0.72518 0.78721 0.34284 0.0
N658 N 0.72889 0.66594 0.38477 0.0
N659 N 0.74439 0.76708 0.35545 0.0
H660 H 0.11749 0.83418 0.60251 0.0
H661 H 0.93908 0.64172 0.49056 0.0
H662 H 0.13032 0.73226 0.5647 0.0
H663 H 0.92895 0.74107 0.54038 0.0
H664 H 1.0129 0.6791 0.50562 0.0
H665 H 0.05325 0.80617 0.56708 0.0
C666 C 0.10715 0.80627 0.58601 0.0
C667 C 0.1292 0.78545 0.58674 0.0
C668 C 0.99454 0.69291 0.51263 0.0
C669 C 0.0546 0.75223 0.54685 0.0
C670 C 0.95252 0.6717 0.50386 0.0
C671 C 0.92781 0.68814 0.5146 0.0
C672 C 1.01177 0.73089 0.53187 0.0
C673 C 0.94669 0.72696 0.53203 0.0
C674 C 0.07026 0.79008 0.56592 0.0
C675 C 0.11433 0.74939 0.56474 0.0
N676 N 0.98727 0.74675 0.54028 0.0
N677 N 0.07753 0.73348 0.54623 0.0
H678 H 0.29429 0.10527 0.77053 0.0
H679 H 0.31414 0.9298 0.65891 0.0
H680 H 0.41093 0.11789 0.7416 0.0
H681 H 0.20501 0.91508 0.7137 0.0
H682 H 0.34904 1.00351 0.67473 0.0
H683 H 0.26015 0.04156 0.73358 0.0
C684 C 0.3127 0.0952 0.75517 0.0
C685 C 0.35535 0.1169 0.75861 0.0
C686 C 0.31729 0.9841 0.68276 0.0
C687 C 0.3166 0.04295 0.71777 0.0
C688 C 0.29739 0.94217 0.67367 0.0
C689 C 0.25681 0.91625 0.68546 0.0
C690 C 0.2961 1.00006 0.70314 0.0
C691 C 0.2365 0.93377 0.70457 0.0
C692 C 0.29327 0.05858 0.73447 0.0
C693 C 0.37793 0.10218 0.73899 0.0
N694 N 0.25633 0.97435 0.71287 0.0
N695 N 0.35825 0.06567 0.71983 0.0
H696 H 0.70753 0.62731 0.9874 0.0
H697 H 0.61837 0.74138 0.9241 0.0
H698 H 0.82181 0.74156 0.98147 0.0
H699 H 0.73908 0.82193 0.87884 0.0
H700 H 0.64652 0.70718 0.96335 0.0
H701 H 0.67183 0.66293 0.96562 0.0
C702 C 0.725 0.66004 0.98253 0.0
C703 C 0.76782 0.68132 0.98619 0.0
C704 C 0.66686 0.73234 0.9449 0.0
C705 C 0.72716 0.72249 0.96114 0.0
C706 C 0.65091 0.75235 0.9229 0.0
C707 C 0.67635 0.78448 0.89789 0.0
C708 C 0.70862 0.74469 0.94198 0.0
C709 C 0.71823 0.79715 0.89742 0.0
C710 C 0.70455 0.68047 0.97014 0.0
C711 C 0.78883 0.72369 0.97894 0.0
N712 N 0.73294 0.77719 0.91897 0.0
N713 N 0.76843 0.74261 0.96623 0.0
H714 H 0.09862 0.70249 0.14505 0.0
H715 H 0.92515 0.73534 0.05102 0.0
H716 H 0.1001 0.81762 0.14532 0.0
H717 H 0.90779 0.61511 0.07142 0.0
H718 H 0.98684 0.76475 0.091 0.0
H719 H 0.02681 0.6682 0.12383 0.0
C720 C 0.08368 0.72042 0.14146 0.0
C721 C 0.10567 0.7631 0.14659 0.0
C722 C 0.96925 0.73183 0.08753 0.0
C723 C 0.0238 0.72422 0.12185 0.0
C724 C 0.9339 0.7151 0.06489 0.0
C725 C 0.91125 0.67283 0.05853 0.0
C726 C 0.98281 0.70621 0.10305 0.0
C727 C 0.92423 0.64785 0.07632 0.0
C728 C 0.04273 0.70086 0.1292 0.0
C729 C 0.08469 0.78476 0.14129 0.0
N730 N 0.95957 0.66496 0.09734 0.0
N731 N 0.04529 0.76522 0.12883 0.0
H732 H 0.29006 0.09882 0.29928 0.0
H733 H 0.29133 0.89114 0.25558 0.0
H734 H 0.39311 0.08396 0.32731 0.0
H735 H 0.20943 0.9264 0.20458 0.0
H736 H 0.31996 0.95283 0.29687 0.0
H737 H 0.25095 0.0268 0.28122 0.0
C738 C 0.30412 0.08 0.3025 0.0
C739 C 0.34492 0.09737 0.31459 0.0
C740 C 0.29508 0.94647 0.27727 0.0
C741 C 0.30063 0.01484 0.29274 0.0
C742 C 0.27852 0.91117 0.25405 0.0
C743 C 0.24789 0.90377 0.22692 0.0
C744 C 0.28042 0.97402 0.27345 0.0
C745 C 0.23292 0.93101 0.22527 0.0
C746 C 0.28186 0.03891 0.29193 0.0
C747 C 0.36163 0.07161 0.31828 0.0
N748 N 0.2494 0.9649 0.24803 0.0
N749 N 0.33964 0.03167 0.30667 0.0
H750 H 0.30201 0.19851 0.38149 0.0
H751 H 0.32793 0.39941 0.48072 0.0
H752 H 0.42102 0.29805 0.41313 0.0
H753 H 0.21488 0.28368 0.48077 0.0
H754 H 0.3639 0.36389 0.45857 0.0
H755 H 0.27035 0.22951 0.41975 0.0
C756 C 0.32149 0.22663 0.39705 0.0
C757 C 0.36419 0.24568 0.39416 0.0
C758 C 0.33134 0.34628 0.46411 0.0
C759 C 0.32808 0.28215 0.43742 0.0
C760 C 0.31079 0.36652 0.47685 0.0
C761 C 0.26818 0.34463 0.48233 0.0
C762 C 0.30902 0.30399 0.45644 0.0
C763 C 0.24762 0.30202 0.47663 0.0
C764 C 0.30341 0.24439 0.41892 0.0
C765 C 0.38796 0.2822 0.41487 0.0
N766 N 0.26808 0.28331 0.46358 0.0
N767 N 0.36959 0.29966 0.43512 0.0
H768 H 0.13649 0.40747 0.58318 0.0
H769 H 0.92943 0.20103 0.63302 0.0
H770 H 0.10673 0.28632 0.54732 0.0
H771 H 0.94538 0.32044 0.6557 0.0
H772 H 1.00173 0.23254 0.61683 0.0
H773 H 0.07449 0.37717 0.62378 0.0
C774 C 0.11768 0.37447 0.58501 0.0
C775 C 0.12668 0.34921 0.56219 0.0
C776 C 0.98983 0.25204 0.62593 0.0
C777 C 0.0558 0.31452 0.60773 0.0
C778 C 0.94856 0.23398 0.63541 0.0
C779 C 0.9315 0.25821 0.64559 0.0
C780 C 1.01437 0.29489 0.62573 0.0
C781 C 0.95754 0.30074 0.64817 0.0
C782 C 0.08214 0.35723 0.6078 0.0
C783 C 0.1009 0.30676 0.56468 0.0
N784 N 0.99765 0.31789 0.63758 0.0
N785 N 0.06661 0.29083 0.58674 0.0
H786 H 0.83395 0.11016 0.70624 0.0
H787 H 0.64387 0.93938 0.82617 0.0
H788 H 0.73864 0.13042 0.75017 0.0
H789 H 0.74247 0.92599 0.77967 0.0
H790 H 0.6814 0.01232 0.80757 0.0
H791 H 0.80489 0.04625 0.74207 0.0
C792 C 0.80714 0.10139 0.72393 0.0
C793 C 0.7886 0.1256 0.725 0.0
C794 C 0.69501 0.99346 0.80205 0.0
C795 C 0.75424 0.05142 0.76573 0.0
C796 C 0.67372 0.95196 0.81287 0.0
C797 C 0.6899 0.92653 0.80409 0.0
C798 C 0.73273 1.00941 0.78263 0.0
C799 C 0.72855 0.94429 0.78655 0.0
C800 C 0.7904 0.06472 0.74439 0.0
C801 C 0.75398 0.1127 0.74863 0.0
N802 N 0.74835 0.98432 0.77623 0.0
N803 N 0.73749 0.07613 0.76762 0.0
H804 H 0.27939 0.43881 0.34815 0.0
H805 H 0.1866 0.33308 0.14543 0.0
H806 H 0.17064 0.3203 0.33992 0.0
H807 H 0.2627 0.46325 0.16408 0.0
H808 H 0.18944 0.3219 0.21487 0.0
H809 H 0.28646 0.44008 0.27795 0.0
C810 C 0.25799 0.41236 0.33144 0.0
C811 C 0.22447 0.37945 0.34922 0.0
C812 C 0.20533 0.35282 0.20361 0.0
C813 C 0.23103 0.38138 0.26955 0.0
C814 C 0.20343 0.3593 0.16423 0.0
C815 C 0.22426 0.39918 0.14917 0.0
C816 C 0.22871 0.38645 0.22773 0.0
C817 C 0.24582 0.43206 0.17455 0.0
C818 C 0.2616 0.41332 0.29151 0.0
C819 C 0.19707 0.34597 0.32682 0.0
N820 N 0.24772 0.42491 0.21263 0.0
N821 N 0.20046 0.34808 0.2877 0.0
H822 H 0.8091 0.272 0.50218 0.0
H823 H 0.86533 0.19752 0.3087 0.0
H824 H 0.84164 0.17721 0.5022 0.0
H825 H 0.78968 0.25355 0.31335 0.0
H826 H 0.86652 0.19691 0.37948 0.0
H827 H 0.81481 0.27541 0.43215 0.0
C828 C 0.81791 0.2522 0.48753 0.0
C829 C 0.82421 0.22374 0.50798 0.0
C830 C 0.84956 0.2091 0.36481 0.0
C831 C 0.8304 0.22735 0.4279 0.0
C832 C 0.84871 0.20934 0.32456 0.0
C833 C 0.82753 0.22579 0.30517 0.0
C834 C 0.82951 0.22586 0.38551 0.0
C835 C 0.80648 0.24065 0.32705 0.0
C836 C 0.82086 0.25399 0.44754 0.0
C837 C 0.83601 0.19922 0.48746 0.0
N838 N 0.8083 0.24063 0.3661 0.0
N839 N 0.83844 0.20135 0.44832 0.0
H840 H 0.69246 0.84018 0.6755 0.0
H841 H 0.58022 0.75232 0.47405 0.0
H842 H 0.56164 0.76625 0.6601 0.0
H843 H 0.7019 0.85651 0.48112 0.0
H844 H 0.57957 0.74474 0.54408 0.0
H845 H 0.70136 0.8377 0.60564 0.0
C846 C 0.66561 0.82379 0.65738 0.0
C847 C 0.6262 0.80354 0.67353 0.0
C848 C 0.60681 0.76875 0.53033 0.0
C849 C 0.63635 0.79972 0.59423 0.0
C850 C 0.60735 0.77265 0.49045 0.0
C851 C 0.64109 0.80498 0.47231 0.0
C852 C 0.64007 0.79787 0.55205 0.0
C853 C 0.67552 0.83097 0.49441 0.0
C854 C 0.67079 0.82217 0.61768 0.0
C855 C 0.59252 0.78262 0.64886 0.0
N856 N 0.6739 0.82735 0.53355 0.0
N857 N 0.59841 0.78108 0.61042 0.0
H858 H 0.74861 0.59035 0.84787 0.0
H859 H 0.84529 0.69662 0.64663 0.0
H860 H 0.86036 0.70654 0.84175 0.0
H861 H 0.76876 0.56651 0.66497 0.0
H862 H 0.84092 0.70798 0.71588 0.0
H863 H 0.74185 0.59096 0.77771 0.0
C864 C 0.77073 0.61683 0.83171 0.0
C865 C 0.80504 0.64839 0.85006 0.0
C866 C 0.8252 0.67705 0.70455 0.0
C867 C 0.79874 0.64846 0.77034 0.0
C868 C 0.82796 0.67047 0.66529 0.0
C869 C 0.80765 0.63052 0.6502 0.0
C870 C 0.80139 0.64348 0.7285 0.0
C871 C 0.78534 0.59775 0.67544 0.0
C872 C 0.76727 0.61689 0.79177 0.0
C873 C 0.83333 0.68188 0.82825 0.0
N874 N 0.78262 0.60501 0.71335 0.0
N875 N 0.83007 0.68069 0.78909 0.0
H876 H 0.22643 0.75453 0.82051 0.0
H877 H 0.16941 0.84048 0.00594 0.0
H878 H 0.15533 0.81522 0.81239 0.0
H879 H 0.22068 0.76089 0.00882 0.0
H880 H 0.15854 0.82845 0.9358 0.0
H881 H 0.22214 0.75568 0.89041 0.0
C882 C 0.21007 0.76832 0.83344 0.0
C883 C 0.19136 0.78494 0.81056 0.0
C884 C 0.17135 0.81299 0.95205 0.0
C885 C 0.18602 0.78614 0.8909 0.0
C886 C 0.17715 0.81955 0.99196 0.0
C887 C 0.19628 0.80188 0.01271 0.0
C888 C 0.18493 0.78876 0.93342 0.0
C889 C 0.20619 0.77533 -0.00644 0.0
C890 C 0.20729 0.76866 0.87345 0.0
C891 C 0.17032 0.80216 0.82901 0.0
N892 N 0.20085 0.76995 0.95495 0.0
N893 N 0.16837 0.80251 0.86822 0.0
H894 H 0.33053 0.15668 0.98011 0.0
H895 H 0.47752 0.23731 0.1604 0.0
H896 H 0.45027 0.26434 0.97843 0.0
H897 H 0.34645 0.16966 0.17621 0.0
H898 H 0.46704 0.24003 0.09125 0.0
H899 H 0.33272 0.15778 0.05117 0.0
C900 C 0.35633 0.18161 -0.00517 0.0
C901 C 0.39031 0.21051 0.97396 0.0
C902 C 0.44056 0.22447 0.10988 0.0
C903 C 0.39394 0.21077 0.05391 0.0
C904 C 0.44655 0.22224 0.14922 0.0
C905 C 0.41279 0.20343 0.17399 0.0
C906 C 0.40061 0.20734 0.09524 0.0
C907 C 0.37328 0.18467 0.15795 0.0
C908 C 0.35791 0.18185 0.03517 0.0
C909 C 0.42358 0.24163 -0.00611 0.0
N910 N 0.36819 0.18717 0.11942 0.0
N911 N 0.42497 0.2405 0.03289 0.0
loop_
_geom_bond_atom_site_label_1
_geom_bond_atom_site_label_2
_geom_bond_distance
_geom_bond_site_symmetry_2
_ccdc_geom_bond_type
Fe0 O2 1.918 . S
Fe0 O5 1.997 . S
Fe0 O6 2.002 . S
Fe0 O11 1.976 . S
Fe0 O14 1.996 . S
Fe1 O2 1.918 . S
Fe1 O9 1.997 . S
Fe1 O12 1.996 . S
Fe1 O16 1.976 . S
Fe1 O19 2.002 . S
O2 Fe0 1.918 . S
O2 Fe1 1.918 . S
O2 Fe3 1.918 1_554 S
Fe3 O2 1.918 1_556 S
Fe3 O4 2.002 . S
Fe3 O13 1.976 . S
Fe3 O17 1.996 . S
Fe3 O20 1.997 1_556 S
O4 Fe3 2.002 . S
O4 C21 1.295 1_556 S
O5 Fe0 1.997 . S
O5 C21 1.235 . S
O6 Fe0 2.002 . S
O6 C7 1.295 . S
C7 O6 1.295 . S
C7 O9 1.235 . S
C8 O13 1.287 . S
C8 O14 1.255 1_556 S
O9 Fe1 1.997 . S
O9 C7 1.235 . S
C10 O16 1.287 1_556 S
C10 O17 1.255 . S
O11 Fe0 1.976 . S
O11 C18 1.287 . S
O12 Fe1 1.996 . S
O12 C18 1.255 . S
O13 Fe3 1.976 . S
O13 C8 1.287 . S
O14 Fe0 1.996 . S
O14 C8 1.255 1_554 S
C15 O19 1.295 . S
C15 O20 1.235 . S
O16 Fe1 1.976 . S
O16 C10 1.287 1_554 S
O17 Fe3 1.996 . S
O17 C10 1.255 . S
C18 O11 1.287 . S
C18 O12 1.255 . S
O19 Fe1 2.002 . S
O19 C15 1.295 . S
O20 Fe3 1.997 1_554 S
O20 C15 1.235 . S
C21 O4 1.295 1_554 S
C21 O5 1.235 . S
Fe22 O24 1.918 . S
Fe22 O27 1.997 . S
Fe22 O28 2.002 . S
Fe22 O33 1.976 . S
Fe22 O36 1.996 . S
Fe23 O24 1.918 . S
Fe23 O31 1.997 . S
Fe23 O34 1.996 . S
Fe23 O38 1.976 . S
Fe23 O41 2.002 . S
O24 Fe22 1.918 . S
O24 Fe23 1.918 . S
O24 Fe25 1.918 . S
Fe25 O24 1.918 . S
Fe25 O26 2.002 . S
Fe25 O35 1.976 . S
Fe25 O39 1.996 . S
Fe25 O42 1.997 . S
O26 Fe25 2.002 . S
O26 C43 1.295 . S
O27 Fe22 1.997 . S
O27 C43 1.235 . S
O28 Fe22 2.002 . S
O28 C29 1.295 . S
C29 O28 1.295 . S
C29 O31 1.235 . S
C30 O35 1.287 . S
C30 O36 1.255 . S
O31 Fe23 1.997 . S
O31 C29 1.235 . S
C32 O38 1.287 . S
C32 O39 1.255 . S
O33 Fe22 1.976 . S
O33 C40 1.287 . S
O34 Fe23 1.996 . S
O34 C40 1.255 . S
O35 Fe25 1.976 . S
O35 C30 1.287 . S
O36 Fe22 1.996 . S
O36 C30 1.255 . S
C37 O41 1.295 . S
C37 O42 1.235 . S
O38 Fe23 1.976 . S
O38 C32 1.287 . S
O39 Fe25 1.996 . S
O39 C32 1.255 . S
C40 O33 1.287 . S
C40 O34 1.255 . S
O41 Fe23 2.002 . S
O41 C37 1.295 . S
O42 Fe25 1.997 . S
O42 C37 1.235 . S
C43 O26 1.295 . S
C43 O27 1.235 . S
Fe44 O46 1.918 . S
Fe44 O49 1.997 . S
Fe44 O50 2.002 . S
Fe44 O55 1.976 . S
Fe44 O58 1.996 . S
Fe45 O46 1.918 . S
Fe45 O53 1.997 . S
Fe45 O56 1.996 . S
Fe45 O60 1.976 . S
Fe45 O63 2.002 . S
O46 Fe44 1.918 . S
O46 Fe45 1.918 . S
O46 Fe47 1.918 . S
Fe47 O46 1.918 . S
Fe47 O48 2.002 . S
Fe47 O57 1.976 . S
Fe47 O61 1.996 . S
Fe47 O64 1.997 . S
O48 Fe47 2.002 . S
O48 C65 1.295 . S
O49 Fe44 1.997 . S
O49 C65 1.235 . S
O50 Fe44 2.002 . S
O50 C51 1.295 . S
C51 O50 1.295 . S
C51 O53 1.235 . S
C52 O57 1.287 . S
C52 O58 1.255 . S
O53 Fe45 1.997 . S
O53 C51 1.235 . S
C54 O60 1.287 . S
C54 O61 1.255 . S
O55 Fe44 1.976 . S
O55 C62 1.287 . S
O56 Fe45 1.996 . S
O56 C62 1.255 . S
O57 Fe47 1.976 . S
O57 C52 1.287 . S
O58 Fe44 1.996 . S
O58 C52 1.255 . S
C59 O63 1.295 . S
C59 O64 1.235 . S
O60 Fe45 1.976 . S
O60 C54 1.287 . S
O61 Fe47 1.996 . S
O61 C54 1.255 . S
C62 O55 1.287 . S
C62 O56 1.255 . S
O63 Fe45 2.002 . S
O63 C59 1.295 . S
O64 Fe47 1.997 . S
O64 C59 1.235 . S
C65 O48 1.295 . S
C65 O49 1.235 . S
Fe66 O68 1.918 . S
Fe66 O71 1.997 . S
Fe66 O72 2.002 . S
Fe66 O77 1.976 . S
Fe66 O80 1.996 . S
Fe67 O68 1.918 . S
Fe67 O75 1.997 . S
Fe67 O78 1.996 . S
Fe67 O82 1.976 . S
Fe67 O85 2.002 . S
O68 Fe66 1.918 . S
O68 Fe67 1.918 . S
O68 Fe69 1.918 . S
Fe69 O68 1.918 . S
Fe69 O70 2.002 . S
Fe69 O79 1.976 . S
Fe69 O83 1.996 . S
Fe69 O86 1.997 . S
O70 Fe69 2.002 . S
O70 C87 1.295 . S
O71 Fe66 1.997 . S
O71 C87 1.235 . S
O72 Fe66 2.002 . S
O72 C73 1.295 . S
C73 O72 1.295 . S
C73 O75 1.235 . S
C74 O79 1.287 . S
C74 O80 1.255 . S
O75 Fe67 1.997 . S
O75 C73 1.235 . S
C76 O82 1.287 . S
C76 O83 1.255 . S
O77 Fe66 1.976 . S
O77 C84 1.287 . S
O78 Fe67 1.996 . S
O78 C84 1.255 . S
O79 Fe69 1.976 . S
O79 C74 1.287 . S
O80 Fe66 1.996 . S
O80 C74 1.255 . S
C81 O85 1.295 . S
C81 O86 1.235 . S
O82 Fe67 1.976 . S
O82 C76 1.287 . S
O83 Fe69 1.996 . S
O83 C76 1.255 . S
C84 O77 1.287 . S
C84 O78 1.255 . S
O85 Fe67 2.002 . S
O85 C81 1.295 . S
O86 Fe69 1.997 . S
O86 C81 1.235 . S
C87 O70 1.295 . S
C87 O71 1.235 . S
Fe88 O90 1.918 . S
Fe88 O93 1.997 . S
Fe88 O94 2.002 . S
Fe88 O99 1.976 . S
Fe88 O102 1.996 . S
Fe89 O90 1.918 . S
Fe89 O97 1.997 . S
Fe89 O100 1.996 . S
Fe89 O104 1.976 . S
Fe89 O107 2.002 . S
O90 Fe88 1.918 . S
O90 Fe89 1.918 . S
O90 Fe91 1.918 . S
Fe91 O90 1.918 . S
Fe91 O92 2.002 . S
Fe91 O101 1.976 . S
Fe91 O105 1.996 . S
Fe91 O108 1.997 . S
O92 Fe91 2.002 . S
O92 C109 1.295 . S
O93 Fe88 1.997 . S
O93 C109 1.235 . S
O94 Fe88 2.002 . S
O94 C95 1.295 . S
C95 O94 1.295 . S
C95 O97 1.235 . S
C96 O101 1.287 . S
C96 O102 1.255 . S
O97 Fe89 1.997 . S
O97 C95 1.235 . S
C98 O104 1.287 . S
C98 O105 1.255 . S
O99 Fe88 1.976 . S
O99 C106 1.287 . S
O100 Fe89 1.996 . S
O100 C106 1.255 . S
O101 Fe91 1.976 . S
O101 C96 1.287 . S
O102 Fe88 1.996 . S
O102 C96 1.255 . S
C103 O107 1.295 . S
C103 O108 1.235 . S
O104 Fe89 1.976 . S
O104 C98 1.287 . S
O105 Fe91 1.996 . S
O105 C98 1.255 . S
C106 O99 1.287 . S
C106 O100 1.255 . S
O107 Fe89 2.002 . S
O107 C103 1.295 . S
O108 Fe91 1.997 . S
O108 C103 1.235 . S
C109 O92 1.295 . S
C109 O93 1.235 . S
Fe110 O112 1.918 . S
Fe110 O115 1.997 . S
Fe110 O116 2.002 . S
Fe110 O121 1.976 . S
Fe110 O124 1.996 . S
Fe111 O112 1.918 . S
Fe111 O119 1.997 . S
Fe111 O122 1.996 . S
Fe111 O126 1.976 . S
Fe111 O129 2.002 . S
O112 Fe110 1.918 . S
O112 Fe111 1.918 . S
O112 Fe113 1.918 . S
Fe113 O112 1.918 . S
Fe113 O114 2.002 . S
Fe113 O123 1.976 . S
Fe113 O127 1.996 . S
Fe113 O130 1.997 . S
O114 Fe113 2.002 . S
O114 C131 1.295 . S
O115 Fe110 1.997 . S
O115 C131 1.235 . S
O116 Fe110 2.002 . S
O116 C117 1.295 . S
C117 O116 1.295 . S
C117 O119 1.235 . S
C118 O123 1.287 . S
C118 O124 1.255 . S
O119 Fe111 1.997 . S
O119 C117 1.235 . S
C120 O126 1.287 . S
C120 O127 1.255 . S
O121 Fe110 1.976 . S
O121 C128 1.287 . S
O122 Fe111 1.996 . S
O122 C128 1.255 . S
O123 Fe113 1.976 . S
O123 C118 1.287 . S
O124 Fe110 1.996 . S
O124 C118 1.255 . S
C125 O129 1.295 . S
C125 O130 1.235 . S
O126 Fe111 1.976 . S
O126 C120 1.287 . S
O127 Fe113 1.996 . S
O127 C120 1.255 . S
C128 O121 1.287 . S
C128 O122 1.255 . S
O129 Fe111 2.002 . S
O129 C125 1.295 . S
O130 Fe113 1.997 . S
O130 C125 1.235 . S
C131 O114 1.295 . S
C131 O115 1.235 . S
Fe132 O134 1.918 . S
Fe132 O137 1.997 . S
Fe132 O138 2.002 . S
Fe132 O143 1.976 . S
Fe132 O146 1.996 . S
Fe133 O134 1.918 . S
Fe133 O141 1.997 . S
Fe133 O144 1.996 . S
Fe133 O148 1.976 . S
Fe133 O151 2.002 . S
O134 Fe132 1.918 . S
O134 Fe133 1.918 . S
O134 Fe135 1.918 . S
Fe135 O134 1.918 . S
Fe135 O136 2.002 . S
Fe135 O145 1.976 . S
Fe135 O149 1.996 . S
Fe135 O152 1.997 . S
O136 Fe135 2.002 . S
O136 C153 1.295 . S
O137 Fe132 1.997 . S
O137 C153 1.235 . S
O138 Fe132 2.002 . S
O138 C139 1.295 . S
C139 O138 1.295 . S
C139 O141 1.235 . S
C140 O145 1.287 . S
C140 O146 1.255 . S
O141 Fe133 1.997 . S
O141 C139 1.235 . S
C142 O148 1.287 . S
C142 O149 1.255 . S
O143 Fe132 1.976 . S
O143 C150 1.287 . S
O144 Fe133 1.996 . S
O144 C150 1.255 . S
O145 Fe135 1.976 . S
O145 C140 1.287 . S
O146 Fe132 1.996 . S
O146 C140 1.255 . S
C147 O151 1.295 . S
C147 O152 1.235 . S
O148 Fe133 1.976 . S
O148 C142 1.287 . S
O149 Fe135 1.996 . S
O149 C142 1.255 . S
C150 O143 1.287 . S
C150 O144 1.255 . S
O151 Fe133 2.002 . S
O151 C147 1.295 . S
O152 Fe135 1.997 . S
O152 C147 1.235 . S
C153 O136 1.295 . S
C153 O137 1.235 . S
Fe154 O156 1.918 . S
Fe154 O159 1.997 . S
Fe154 O160 2.002 . S
Fe154 O165 1.976 . S
Fe154 O168 1.996 . S
Fe155 O156 1.918 . S
Fe155 O163 1.997 . S
Fe155 O166 1.996 . S
Fe155 O170 1.976 . S
Fe155 O173 2.002 . S
O156 Fe154 1.918 . S
O156 Fe155 1.918 . S
O156 Fe157 1.918 1_556 S
Fe157 O156 1.918 1_554 S
Fe157 O158 2.002 . S
Fe157 O167 1.976 . S
Fe157 O171 1.996 . S
Fe157 O174 1.997 1_554 S
O158 Fe157 2.002 . S
O158 C175 1.295 1_554 S
O159 Fe154 1.997 . S
O159 C175 1.235 . S
O160 Fe154 2.002 . S
O160 C161 1.295 . S
C161 O160 1.295 . S
C161 O163 1.235 . S
C162 O167 1.287 . S
C162 O168 1.255 1_554 S
O163 Fe155 1.997 . S
O163 C161 1.235 . S
C164 O170 1.287 1_554 S
C164 O171 1.255 . S
O165 Fe154 1.976 . S
O165 C172 1.287 . S
O166 Fe155 1.996 . S
O166 C172 1.255 . S
O167 Fe157 1.976 . S
O167 C162 1.287 . S
O168 Fe154 1.996 . S
O168 C162 1.255 1_556 S
C169 O173 1.295 . S
C169 O174 1.235 . S
O170 Fe155 1.976 . S
O170 C164 1.287 1_556 S
O171 Fe157 1.996 . S
O171 C164 1.255 . S
C172 O165 1.287 . S
C172 O166 1.255 . S
O173 Fe155 2.002 . S
O173 C169 1.295 . S
O174 Fe157 1.997 1_556 S
O174 C169 1.235 . S
C175 O158 1.295 1_556 S
C175 O159 1.235 . S
Fe176 O178 1.918 . S
Fe176 O181 1.997 . S
Fe176 O182 2.002 . S
Fe176 O187 1.976 . S
Fe176 O190 1.996 . S
Fe177 O178 1.918 . S
Fe177 O185 1.997 . S
Fe177 O188 1.996 . S
Fe177 O192 1.976 . S
Fe177 O195 2.002 . S
O178 Fe176 1.918 . S
O178 Fe177 1.918 . S
O178 Fe179 1.918 . S
Fe179 O178 1.918 . S
Fe179 O180 2.002 . S
Fe179 O189 1.976 . S
Fe179 O193 1.996 . S
Fe179 O196 1.997 . S
O180 Fe179 2.002 . S
O180 C197 1.295 . S
O181 Fe176 1.997 . S
O181 C197 1.235 . S
O182 Fe176 2.002 . S
O182 C183 1.295 . S
C183 O182 1.295 . S
C183 O185 1.235 . S
C184 O189 1.287 . S
C184 O190 1.255 . S
O185 Fe177 1.997 . S
O185 C183 1.235 . S
C186 O192 1.287 . S
C186 O193 1.255 . S
O187 Fe176 1.976 . S
O187 C194 1.287 . S
O188 Fe177 1.996 . S
O188 C194 1.255 . S
O189 Fe179 1.976 . S
O189 C184 1.287 . S
O190 Fe176 1.996 . S
O190 C184 1.255 . S
C191 O195 1.295 . S
C191 O196 1.235 . S
O192 Fe177 1.976 . S
O192 C186 1.287 . S
O193 Fe179 1.996 . S
O193 C186 1.255 . S
C194 O187 1.287 . S
C194 O188 1.255 . S
O195 Fe177 2.002 . S
O195 C191 1.295 . S
O196 Fe179 1.997 . S
O196 C191 1.235 . S
C197 O180 1.295 . S
C197 O181 1.235 . S
Fe198 O200 1.918 . S
Fe198 O203 1.997 . S
Fe198 O204 2.002 . S
Fe198 O209 1.976 . S
Fe198 O212 1.996 . S
Fe199 O200 1.918 . S
Fe199 O207 1.997 . S
Fe199 O210 1.996 . S
Fe199 O214 1.976 . S
Fe199 O217 2.002 . S
O200 Fe198 1.918 . S
O200 Fe199 1.918 . S
O200 Fe201 1.918 . S
Fe201 O200 1.918 . S
Fe201 O202 2.002 . S
Fe201 O211 1.976 . S
Fe201 O215 1.996 . S
Fe201 O218 1.997 . S
O202 Fe201 2.002 . S
O202 C219 1.295 . S
O203 Fe198 1.997 . S
O203 C219 1.235 . S
O204 Fe198 2.002 . S
O204 C205 1.295 . S
C205 O204 1.295 . S
C205 O207 1.235 . S
C206 O211 1.287 . S
C206 O212 1.255 . S
O207 Fe199 1.997 . S
O207 C205 1.235 . S
C208 O214 1.287 . S
C208 O215 1.255 . S
O209 Fe198 1.976 . S
O209 C216 1.287 . S
O210 Fe199 1.996 . S
O210 C216 1.255 . S
O211 Fe201 1.976 . S
O211 C206 1.287 . S
O212 Fe198 1.996 . S
O212 C206 1.255 . S
C213 O217 1.295 . S
C213 O218 1.235 . S
O214 Fe199 1.976 . S
O214 C208 1.287 . S
O215 Fe201 1.996 . S
O215 C208 1.255 . S
C216 O209 1.287 . S
C216 O210 1.255 . S
O217 Fe199 2.002 . S
O217 C213 1.295 . S
O218 Fe201 1.997 . S
O218 C213 1.235 . S
C219 O202 1.295 . S
C219 O203 1.235 . S
Fe220 O222 1.918 . S
Fe220 O225 1.997 . S
Fe220 O226 2.002 . S
Fe220 O231 1.976 . S
Fe220 O234 1.996 . S
Fe221 O222 1.918 . S
Fe221 O229 1.997 . S
Fe221 O232 1.996 . S
Fe221 O236 1.976 . S
Fe221 O239 2.002 . S
O222 Fe220 1.918 . S
O222 Fe221 1.918 . S
O222 Fe223 1.918 . S
Fe223 O222 1.918 . S
Fe223 O224 2.002 . S
Fe223 O233 1.976 . S
Fe223 O237 1.996 . S
Fe223 O240 1.997 . S
O224 Fe223 2.002 . S
O224 C241 1.295 . S
O225 Fe220 1.997 . S
O225 C241 1.235 . S
O226 Fe220 2.002 . S
O226 C227 1.295 . S
C227 O226 1.295 . S
C227 O229 1.235 . S
C228 O233 1.287 . S
C228 O234 1.255 . S
O229 Fe221 1.997 . S
O229 C227 1.235 . S
C230 O236 1.287 . S
C230 O237 1.255 . S
O231 Fe220 1.976 . S
O231 C238 1.287 . S
O232 Fe221 1.996 . S
O232 C238 1.255 . S
O233 Fe223 1.976 . S
O233 C228 1.287 . S
O234 Fe220 1.996 . S
O234 C228 1.255 . S
C235 O239 1.295 . S
C235 O240 1.235 . S
O236 Fe221 1.976 . S
O236 C230 1.287 . S
O237 Fe223 1.996 . S
O237 C230 1.255 . S
C238 O231 1.287 . S
C238 O232 1.255 . S
O239 Fe221 2.002 . S
O239 C235 1.295 . S
O240 Fe223 1.997 . S
O240 C235 1.235 . S
C241 O224 1.295 . S
C241 O225 1.235 . S
Fe242 O244 1.918 . S
Fe242 O247 1.997 . S
Fe242 O248 2.002 . S
Fe242 O253 1.976 . S
Fe242 O256 1.996 . S
Fe243 O244 1.918 . S
Fe243 O251 1.997 . S
Fe243 O254 1.996 . S
Fe243 O258 1.976 . S
Fe243 O261 2.002 . S
O244 Fe242 1.918 . S
O244 Fe243 1.918 . S
O244 Fe245 1.918 . S
Fe245 O244 1.918 . S
Fe245 O246 2.002 . S
Fe245 O255 1.976 . S
Fe245 O259 1.996 . S
Fe245 O262 1.997 . S
O246 Fe245 2.002 . S
O246 C263 1.295 . S
O247 Fe242 1.997 . S
O247 C263 1.235 . S
O248 Fe242 2.002 . S
O248 C249 1.295 . S
C249 O248 1.295 . S
C249 O251 1.235 . S
C250 O255 1.287 . S
C250 O256 1.255 . S
O251 Fe243 1.997 . S
O251 C249 1.235 . S
C252 O258 1.287 . S
C252 O259 1.255 . S
O253 Fe242 1.976 . S
O253 C260 1.287 . S
O254 Fe243 1.996 . S
O254 C260 1.255 . S
O255 Fe245 1.976 . S
O255 C250 1.287 . S
O256 Fe242 1.996 . S
O256 C250 1.255 . S
C257 O261 1.295 . S
C257 O262 1.235 . S
O258 Fe243 1.976 . S
O258 C252 1.287 . S
O259 Fe245 1.996 . S
O259 C252 1.255 . S
C260 O253 1.287 . S
C260 O254 1.255 . S
O261 Fe243 2.002 . S
O261 C257 1.295 . S
O262 Fe245 1.997 . S
O262 C257 1.235 . S
C263 O246 1.295 . S
C263 O247 1.235 . S
H264 C270 0.930 1_556 S
H265 C274 0.930 . S
H266 C279 0.929 . S
H267 C277 0.929 . S
H268 C272 0.929 . S
H269 C278 0.929 . S
C270 H264 0.930 1_554 S
C270 C271 1.367 . S
C270 C278 1.378 . S
C271 C270 1.367 . S
C271 C279 1.433 . S
C272 H268 0.929 . S
C272 C274 1.378 . S
C272 C276 1.350 . S
C273 C276 1.463 . S
C273 C278 1.350 . S
C273 N281 1.427 . S
C274 H265 0.930 . S
C274 C272 1.378 . S
C274 C275 1.367 . S
C275 C274 1.367 . S
C275 C277 1.433 . S
C276 C272 1.350 . S
C276 C273 1.463 . S
C276 N280 1.427 . S
C277 H267 0.929 . S
C277 C275 1.433 . S
C277 N280 1.384 . S
C278 H269 0.929 . S
C278 C270 1.378 . S
C278 C273 1.350 . S
C279 H266 0.929 . S
C279 C271 1.433 . S
C279 N281 1.384 . S
N280 C276 1.427 . S
N280 C277 1.384 . S
N281 C273 1.427 . S
N281 C279 1.384 . S
H282 C288 0.930 . S
H283 C292 0.930 . S
H284 C297 0.929 . S
H285 C295 0.929 . S
H286 C290 0.929 . S
H287 C296 0.929 . S
C288 H282 0.930 . S
C288 C289 1.367 . S
C288 C296 1.378 . S
C289 C288 1.367 . S
C289 C297 1.433 . S
C290 H286 0.929 . S
C290 C292 1.378 . S
C290 C294 1.350 . S
C291 C294 1.463 . S
C291 C296 1.350 . S
C291 N299 1.427 . S
C292 H283 0.930 . S
C292 C290 1.378 . S
C292 C293 1.367 . S
C293 C292 1.367 . S
C293 C295 1.433 . S
C294 C290 1.350 . S
C294 C291 1.463 . S
C294 N298 1.427 . S
C295 H285 0.929 . S
C295 C293 1.433 . S
C295 N298 1.384 . S
C296 H287 0.929 . S
C296 C288 1.378 . S
C296 C291 1.350 . S
C297 H284 0.929 . S
C297 C289 1.433 . S
C297 N299 1.384 . S
N298 C294 1.427 . S
N298 C295 1.384 . S
N299 C291 1.427 . S
N299 C297 1.384 . S
H300 C306 0.930 . S
H301 C310 0.930 . S
H302 C315 0.929 . S
H303 C313 0.929 . S
H304 C308 0.929 . S
H305 C314 0.929 . S
C306 H300 0.930 . S
C306 C307 1.367 . S
C306 C314 1.378 . S
C307 C306 1.367 . S
C307 C315 1.433 . S
C308 H304 0.929 . S
C308 C310 1.378 . S
C308 C312 1.350 . S
C309 C312 1.463 . S
C309 C314 1.350 . S
C309 N317 1.427 . S
C310 H301 0.930 . S
C310 C308 1.378 . S
C310 C311 1.367 . S
C311 C310 1.367 . S
C311 C313 1.433 . S
C312 C308 1.350 . S
C312 C309 1.463 . S
C312 N316 1.427 . S
C313 H303 0.929 . S
C313 C311 1.433 . S
C313 N316 1.384 . S
C314 H305 0.929 . S
C314 C306 1.378 . S
C314 C309 1.350 . S
C315 H302 0.929 . S
C315 C307 1.433 . S
C315 N317 1.384 . S
N316 C312 1.427 . S
N316 C313 1.384 . S
N317 C309 1.427 . S
N317 C315 1.384 . S
H318 C324 0.930 . S
H319 C328 0.930 . S
H320 C333 0.929 . S
H321 C331 0.929 . S
H322 C326 0.929 . S
H323 C332 0.929 . S
C324 H318 0.930 . S
C324 C325 1.367 . S
C324 C332 1.378 . S
C325 C324 1.367 . S
C325 C333 1.433 . S
C326 H322 0.929 . S
C326 C328 1.378 . S
C326 C330 1.350 . S
C327 C330 1.463 . S
C327 C332 1.350 . S
C327 N335 1.427 . S
C328 H319 0.930 . S
C328 C326 1.378 . S
C328 C329 1.367 . S
C329 C328 1.367 . S
C329 C331 1.433 . S
C330 C326 1.350 . S
C330 C327 1.463 . S
C330 N334 1.427 . S
C331 H321 0.929 . S
C331 C329 1.433 . S
C331 N334 1.384 . S
C332 H323 0.929 . S
C332 C324 1.378 . S
C332 C327 1.350 . S
C333 H320 0.929 . S
C333 C325 1.433 . S
C333 N335 1.384 . S
N334 C330 1.427 . S
N334 C331 1.384 . S
N335 C327 1.427 . S
N335 C333 1.384 . S
H336 C342 0.930 . S
H337 C346 0.930 . S
H338 C351 0.929 . S
H339 C349 0.929 . S
H340 C344 0.929 . S
H341 C350 0.929 . S
C342 H336 0.930 . S
C342 C343 1.367 . S
C342 C350 1.378 . S
C343 C342 1.367 . S
C343 C351 1.433 . S
C344 H340 0.929 . S
C344 C346 1.378 . S
C344 C348 1.350 . S
C345 C348 1.463 . S
C345 C350 1.350 . S
C345 N353 1.427 . S
C346 H337 0.930 . S
C346 C344 1.378 . S
C346 C347 1.367 . S
C347 C346 1.367 . S
C347 C349 1.433 . S
C348 C344 1.350 . S
C348 C345 1.463 . S
C348 N352 1.427 . S
C349 H339 0.929 . S
C349 C347 1.433 . S
C349 N352 1.384 . S
C350 H341 0.929 . S
C350 C342 1.378 . S
C350 C345 1.350 . S
C351 H338 0.929 . S
C351 C343 1.433 . S
C351 N353 1.384 . S
N352 C348 1.427 . S
N352 C349 1.384 . S
N353 C345 1.427 . S
N353 C351 1.384 . S
H354 C360 0.930 . S
H355 C364 0.930 . S
H356 C369 0.929 . S
H357 C367 0.929 . S
H358 C362 0.929 . S
H359 C368 0.929 . S
C360 H354 0.930 . S
C360 C361 1.367 . S
C360 C368 1.378 . S
C361 C360 1.367 . S
C361 C369 1.433 . S
C362 H358 0.929 . S
C362 C364 1.378 . S
C362 C366 1.350 . S
C363 C366 1.463 . S
C363 C368 1.350 . S
C363 N371 1.427 . S
C364 H355 0.930 . S
C364 C362 1.378 . S
C364 C365 1.367 . S
C365 C364 1.367 . S
C365 C367 1.433 . S
C366 C362 1.350 . S
C366 C363 1.463 . S
C366 N370 1.427 . S
C367 H357 0.929 . S
C367 C365 1.433 . S
C367 N370 1.384 . S
C368 H359 0.929 . S
C368 C360 1.378 . S
C368 C363 1.350 . S
C369 H356 0.929 . S
C369 C361 1.433 . S
C369 N371 1.384 . S
N370 C366 1.427 . S
N370 C367 1.384 . S
N371 C363 1.427 . S
N371 C369 1.384 . S
H372 C378 0.930 . S
H373 C382 0.930 . S
H374 C387 0.929 . S
H375 C385 0.929 . S
H376 C380 0.929 . S
H377 C386 0.929 . S
C378 H372 0.930 . S
C378 C379 1.367 . S
C378 C386 1.378 . S
C379 C378 1.367 . S
C379 C387 1.433 . S
C380 H376 0.929 . S
C380 C382 1.378 . S
C380 C384 1.350 . S
C381 C384 1.463 . S
C381 C386 1.350 . S
C381 N389 1.427 . S
C382 H373 0.930 . S
C382 C380 1.378 . S
C382 C383 1.367 . S
C383 C382 1.367 . S
C383 C385 1.433 . S
C384 C380 1.350 . S
C384 C381 1.463 . S
C384 N388 1.427 . S
C385 H375 0.929 . S
C385 C383 1.433 . S
C385 N388 1.384 . S
C386 H377 0.929 . S
C386 C378 1.378 . S
C386 C381 1.350 . S
C387 H374 0.929 . S
C387 C379 1.433 . S
C387 N389 1.384 . S
N388 C384 1.427 . S
N388 C385 1.384 . S
N389 C381 1.427 . S
N389 C387 1.384 . S
H390 C396 0.930 . S
H391 C400 0.930 . S
H392 C405 0.929 . S
H393 C403 0.929 . S
H394 C398 0.929 . S
H395 C404 0.929 . S
C396 H390 0.930 . S
C396 C397 1.367 . S
C396 C404 1.378 . S
C397 C396 1.367 . S
C397 C405 1.433 . S
C398 H394 0.929 . S
C398 C400 1.378 . S
C398 C402 1.350 . S
C399 C402 1.463 1_655 S
C399 C404 1.350 . S
C399 N407 1.427 . S
C400 H391 0.930 . S
C400 C398 1.378 . S
C400 C401 1.367 . S
C401 C400 1.367 . S
C401 C403 1.433 . S
C402 C398 1.350 . S
C402 C399 1.463 1_455 S
C402 N406 1.427 . S
C403 H393 0.929 . S
C403 C401 1.433 . S
C403 N406 1.384 . S
C404 H395 0.929 . S
C404 C396 1.378 . S
C404 C399 1.350 . S
C405 H392 0.929 . S
C405 C397 1.433 . S
C405 N407 1.384 . S
N406 C402 1.427 . S
N406 C403 1.384 . S
N407 C399 1.427 . S
N407 C405 1.384 . S
H408 C414 0.930 . S
H409 C418 0.930 . S
H410 C423 0.929 . S
H411 C421 0.929 . S
H412 C416 0.929 . S
H413 C422 0.929 . S
C414 H408 0.930 . S
C414 C415 1.367 . S
C414 C422 1.378 . S
C415 C414 1.367 . S
C415 C423 1.433 . S
C416 H412 0.929 . S
C416 C418 1.378 . S
C416 C420 1.350 . S
C417 C420 1.463 1_545 S
C417 C422 1.350 . S
C417 N425 1.427 . S
C418 H409 0.930 . S
C418 C416 1.378 . S
C418 C419 1.367 . S
C419 C418 1.367 . S
C419 C421 1.433 . S
C420 C416 1.350 . S
C420 C417 1.463 1_565 S
C420 N424 1.427 . S
C421 H411 0.929 . S
C421 C419 1.433 . S
C421 N424 1.384 . S
C422 H413 0.929 . S
C422 C414 1.378 . S
C422 C417 1.350 . S
C423 H410 0.929 . S
C423 C415 1.433 . S
C423 N425 1.384 . S
N424 C420 1.427 . S
N424 C421 1.384 . S
N425 C417 1.427 . S
N425 C423 1.384 . S
H426 C432 0.930 . S
H427 C436 0.930 . S
H428 C441 0.929 . S
H429 C439 0.929 . S
H430 C434 0.929 . S
H431 C440 0.929 . S
C432 H426 0.930 . S
C432 C433 1.367 . S
C432 C440 1.378 . S
C433 C432 1.367 . S
C433 C441 1.433 . S
C434 H430 0.929 . S
C434 C436 1.378 . S
C434 C438 1.350 . S
C435 C438 1.463 . S
C435 C440 1.350 . S
C435 N443 1.427 . S
C436 H427 0.930 . S
C436 C434 1.378 . S
C436 C437 1.367 . S
C437 C436 1.367 . S
C437 C439 1.433 . S
C438 C434 1.350 . S
C438 C435 1.463 . S
C438 N442 1.427 . S
C439 H429 0.929 . S
C439 C437 1.433 . S
C439 N442 1.384 . S
C440 H431 0.929 . S
C440 C432 1.378 . S
C440 C435 1.350 . S
C441 H428 0.929 . S
C441 C433 1.433 . S
C441 N443 1.384 . S
N442 C438 1.427 . S
N442 C439 1.384 . S
N443 C435 1.427 . S
N443 C441 1.384 . S
H444 C450 0.930 . S
H445 C454 0.930 . S
H446 C459 0.929 . S
H447 C457 0.929 . S
H448 C452 0.929 . S
H449 C458 0.929 . S
C450 H444 0.930 . S
C450 C451 1.367 . S
C450 C458 1.378 . S
C451 C450 1.367 . S
C451 C459 1.433 . S
C452 H448 0.929 . S
C452 C454 1.378 . S
C452 C456 1.350 . S
C453 C456 1.463 1_455 S
C453 C458 1.350 . S
C453 N461 1.427 . S
C454 H445 0.930 . S
C454 C452 1.378 . S
C454 C455 1.367 . S
C455 C454 1.367 . S
C455 C457 1.433 . S
C456 C452 1.350 . S
C456 C453 1.463 1_655 S
C456 N460 1.427 . S
C457 H447 0.929 . S
C457 C455 1.433 . S
C457 N460 1.384 . S
C458 H449 0.929 . S
C458 C450 1.378 . S
C458 C453 1.350 . S
C459 H446 0.929 . S
C459 C451 1.433 . S
C459 N461 1.384 . S
N460 C456 1.427 . S
N460 C457 1.384 . S
N461 C453 1.427 . S
N461 C459 1.384 . S
H462 C468 0.930 . S
H463 C472 0.930 . S
H464 C477 0.929 . S
H465 C475 0.929 . S
H466 C470 0.929 1_545 S
H467 C476 0.929 1_565 S
C468 H462 0.930 . S
C468 C469 1.367 . S
C468 C476 1.378 . S
C469 C468 1.367 . S
C469 C477 1.433 . S
C470 H466 0.929 1_565 S
C470 C472 1.378 . S
C470 C474 1.350 . S
C471 C474 1.463 1_546 S
C471 C476 1.350 . S
C471 N479 1.427 . S
C472 H463 0.930 . S
C472 C470 1.378 . S
C472 C473 1.367 . S
C473 C472 1.367 . S
C473 C475 1.433 . S
C474 C470 1.350 . S
C474 C471 1.463 1_564 S
C474 N478 1.427 . S
C475 H465 0.929 . S
C475 C473 1.433 . S
C475 N478 1.384 . S
C476 H467 0.929 1_545 S
C476 C468 1.378 . S
C476 C471 1.350 . S
C477 H464 0.929 . S
C477 C469 1.433 . S
C477 N479 1.384 . S
N478 C474 1.427 . S
N478 C475 1.384 . S
N479 C471 1.427 . S
N479 C477 1.384 . S
H480 C486 0.930 . S
H481 C490 0.930 . S
H482 C495 0.929 . S
H483 C493 0.929 . S
H484 C488 0.929 . S
H485 C494 0.929 . S
C486 H480 0.930 . S
C486 C487 1.367 . S
C486 C494 1.378 . S
C487 C486 1.367 . S
C487 C495 1.433 . S
C488 H484 0.929 . S
C488 C490 1.378 . S
C488 C492 1.350 . S
C489 C492 1.463 . S
C489 C494 1.350 . S
C489 N497 1.427 . S
C490 H481 0.930 . S
C490 C488 1.378 . S
C490 C491 1.367 . S
C491 C490 1.367 . S
C491 C493 1.433 . S
C492 C488 1.350 . S
C492 C489 1.463 . S
C492 N496 1.427 . S
C493 H483 0.929 . S
C493 C491 1.433 . S
C493 N496 1.384 . S
C494 H485 0.929 . S
C494 C486 1.378 . S
C494 C489 1.350 . S
C495 H482 0.929 . S
C495 C487 1.433 . S
C495 N497 1.384 . S
N496 C492 1.427 . S
N496 C493 1.384 . S
N497 C489 1.427 . S
N497 C495 1.384 . S
H498 C504 0.930 1_556 S
H499 C508 0.930 . S
H500 C513 0.929 . S
H501 C511 0.929 . S
H502 C506 0.929 . S
H503 C512 0.929 . S
C504 H498 0.930 1_554 S
C504 C505 1.367 . S
C504 C512 1.378 . S
C505 C504 1.367 . S
C505 C513 1.433 . S
C506 H502 0.929 . S
C506 C508 1.378 . S
C506 C510 1.350 . S
C507 C510 1.463 . S
C507 C512 1.350 . S
C507 N515 1.427 . S
C508 H499 0.930 . S
C508 C506 1.378 . S
C508 C509 1.367 . S
C509 C508 1.367 . S
C509 C511 1.433 . S
C510 C506 1.350 . S
C510 C507 1.463 . S
C510 N514 1.427 . S
C511 H501 0.929 . S
C511 C509 1.433 . S
C511 N514 1.384 . S
C512 H503 0.929 . S
C512 C504 1.378 . S
C512 C507 1.350 . S
C513 H500 0.929 . S
C513 C505 1.433 . S
C513 N515 1.384 . S
N514 C510 1.427 . S
N514 C511 1.384 . S
N515 C507 1.427 . S
N515 C513 1.384 . S
H516 C522 0.930 . S
H517 C526 0.930 . S
H518 C531 0.929 . S
H519 C529 0.929 . S
H520 C524 0.929 . S
H521 C530 0.929 . S
C522 H516 0.930 . S
C522 C523 1.367 . S
C522 C530 1.378 . S
C523 C522 1.367 . S
C523 C531 1.433 . S
C524 H520 0.929 . S
C524 C526 1.378 . S
C524 C528 1.350 . S
C525 C528 1.463 . S
C525 C530 1.350 . S
C525 N533 1.427 . S
C526 H517 0.930 . S
C526 C524 1.378 . S
C526 C527 1.367 . S
C527 C526 1.367 . S
C527 C529 1.433 . S
C528 C524 1.350 . S
C528 C525 1.463 . S
C528 N532 1.427 . S
C529 H519 0.929 . S
C529 C527 1.433 . S
C529 N532 1.384 . S
C530 H521 0.929 . S
C530 C522 1.378 . S
C530 C525 1.350 . S
C531 H518 0.929 . S
C531 C523 1.433 . S
C531 N533 1.384 . S
N532 C528 1.427 . S
N532 C529 1.384 . S
N533 C525 1.427 . S
N533 C531 1.384 . S
H534 C540 0.930 . S
H535 C544 0.930 . S
H536 C549 0.929 . S
H537 C547 0.929 . S
H538 C542 0.929 . S
H539 C548 0.929 . S
C540 H534 0.930 . S
C540 C541 1.367 . S
C540 C548 1.378 . S
C541 C540 1.367 . S
C541 C549 1.433 . S
C542 H538 0.929 . S
C542 C544 1.378 . S
C542 C546 1.350 . S
C543 C546 1.463 . S
C543 C548 1.350 . S
C543 N551 1.427 . S
C544 H535 0.930 . S
C544 C542 1.378 . S
C544 C545 1.367 . S
C545 C544 1.367 . S
C545 C547 1.433 . S
C546 C542 1.350 . S
C546 C543 1.463 . S
C546 N550 1.427 . S
C547 H537 0.929 . S
C547 C545 1.433 . S
C547 N550 1.384 . S
C548 H539 0.929 . S
C548 C540 1.378 . S
C548 C543 1.350 . S
C549 H536 0.929 . S
C549 C541 1.433 . S
C549 N551 1.384 . S
N550 C546 1.427 . S
N550 C547 1.384 . S
N551 C543 1.427 . S
N551 C549 1.384 . S
H552 C558 0.930 . S
H553 C562 0.930 . S
H554 C567 0.929 . S
H555 C565 0.929 . S
H556 C560 0.929 . S
H557 C566 0.929 . S
C558 H552 0.930 . S
C558 C559 1.367 . S
C558 C566 1.378 . S
C559 C558 1.367 . S
C559 C567 1.433 . S
C560 H556 0.929 . S
C560 C562 1.378 . S
C560 C564 1.350 . S
C561 C564 1.463 . S
C561 C566 1.350 . S
C561 N569 1.427 . S
C562 H553 0.930 . S
C562 C560 1.378 . S
C562 C563 1.367 . S
C563 C562 1.367 . S
C563 C565 1.433 . S
C564 C560 1.350 . S
C564 C561 1.463 . S
C564 N568 1.427 . S
C565 H555 0.929 . S
C565 C563 1.433 . S
C565 N568 1.384 . S
C566 H557 0.929 . S
C566 C558 1.378 . S
C566 C561 1.350 . S
C567 H554 0.929 . S
C567 C559 1.433 . S
C567 N569 1.384 . S
N568 C564 1.427 . S
N568 C565 1.384 . S
N569 C561 1.427 . S
N569 C567 1.384 . S
H570 C576 0.930 . S
H571 C580 0.930 . S
H572 C585 0.929 . S
H573 C583 0.929 . S
H574 C578 0.929 . S
H575 C584 0.929 . S
C576 H570 0.930 . S
C576 C577 1.367 . S
C576 C584 1.378 . S
C577 C576 1.367 . S
C577 C585 1.433 . S
C578 H574 0.929 . S
C578 C580 1.378 . S
C578 C582 1.350 . S
C579 C582 1.463 . S
C579 C584 1.350 . S
C579 N587 1.427 . S
C580 H571 0.930 . S
C580 C578 1.378 . S
C580 C581 1.367 . S
C581 C580 1.367 . S
C581 C583 1.433 . S
C582 C578 1.350 . S
C582 C579 1.463 . S
C582 N586 1.427 . S
C583 H573 0.929 . S
C583 C581 1.433 . S
C583 N586 1.384 . S
C584 H575 0.929 . S
C584 C576 1.378 . S
C584 C579 1.350 . S
C585 H572 0.929 . S
C585 C577 1.433 . S
C585 N587 1.384 . S
N586 C582 1.427 . S
N586 C583 1.384 . S
N587 C579 1.427 . S
N587 C585 1.384 . S
H588 C594 0.930 . S
H589 C598 0.930 . S
H590 C603 0.929 . S
H591 C601 0.929 . S
H592 C596 0.929 . S
H593 C602 0.929 . S
C594 H588 0.930 . S
C594 C595 1.367 . S
C594 C602 1.378 . S
C595 C594 1.367 . S
C595 C603 1.433 . S
C596 H592 0.929 . S
C596 C598 1.378 . S
C596 C600 1.350 . S
C597 C600 1.463 . S
C597 C602 1.350 . S
C597 N605 1.427 . S
C598 H589 0.930 . S
C598 C596 1.378 . S
C598 C599 1.367 . S
C599 C598 1.367 . S
C599 C601 1.433 . S
C600 C596 1.350 . S
C600 C597 1.463 . S
C600 N604 1.427 . S
C601 H591 0.929 . S
C601 C599 1.433 . S
C601 N604 1.384 . S
C602 H593 0.929 . S
C602 C594 1.378 . S
C602 C597 1.350 . S
C603 H590 0.929 . S
C603 C595 1.433 . S
C603 N605 1.384 . S
N604 C600 1.427 . S
N604 C601 1.384 . S
N605 C597 1.427 . S
N605 C603 1.384 . S
H606 C612 0.930 . S
H607 C616 0.930 . S
H608 C621 0.929 . S
H609 C619 0.929 1_556 S
H610 C614 0.929 . S
H611 C620 0.929 . S
C612 H606 0.930 . S
C612 C613 1.367 . S
C612 C620 1.378 . S
C613 C612 1.367 . S
C613 C621 1.433 . S
C614 H610 0.929 . S
C614 C616 1.378 . S
C614 C618 1.350 . S
C615 C618 1.463 1_655 S
C615 C620 1.350 . S
C615 N623 1.427 . S
C616 H607 0.930 . S
C616 C614 1.378 . S
C616 C617 1.367 . S
C617 C616 1.367 . S
C617 C619 1.433 . S
C618 C614 1.350 . S
C618 C615 1.463 1_455 S
C618 N622 1.427 . S
C619 H609 0.929 1_554 S
C619 C617 1.433 . S
C619 N622 1.384 . S
C620 H611 0.929 . S
C620 C612 1.378 . S
C620 C615 1.350 . S
C621 H608 0.929 . S
C621 C613 1.433 . S
C621 N623 1.384 . S
N622 C618 1.427 . S
N622 C619 1.384 . S
N623 C615 1.427 . S
N623 C621 1.384 . S
H624 C630 0.930 . S
H625 C634 0.930 . S
H626 C639 0.929 . S
H627 C637 0.929 . S
H628 C632 0.929 . S
H629 C638 0.929 . S
C630 H624 0.930 . S
C630 C631 1.367 . S
C630 C638 1.378 . S
C631 C630 1.367 . S
C631 C639 1.433 . S
C632 H628 0.929 . S
C632 C634 1.378 . S
C632 C636 1.350 . S
C633 C636 1.463 1_565 S
C633 C638 1.350 . S
C633 N641 1.427 . S
C634 H625 0.930 . S
C634 C632 1.378 . S
C634 C635 1.367 . S
C635 C634 1.367 . S
C635 C637 1.433 . S
C636 C632 1.350 . S
C636 C633 1.463 1_545 S
C636 N640 1.427 . S
C637 H627 0.929 . S
C637 C635 1.433 . S
C637 N640 1.384 . S
C638 H629 0.929 . S
C638 C630 1.378 . S
C638 C633 1.350 . S
C639 H626 0.929 . S
C639 C631 1.433 . S
C639 N641 1.384 . S
N640 C636 1.427 . S
N640 C637 1.384 . S
N641 C633 1.427 . S
N641 C639 1.384 . S
H642 C648 0.930 . S
H643 C652 0.930 . S
H644 C657 0.929 . S
H645 C655 0.929 . S
H646 C650 0.929 . S
H647 C656 0.929 . S
C648 H642 0.930 . S
C648 C649 1.367 . S
C648 C656 1.378 . S
C649 C648 1.367 . S
C649 C657 1.433 . S
C650 H646 0.929 . S
C650 C652 1.378 . S
C650 C654 1.350 . S
C651 C654 1.463 . S
C651 C656 1.350 . S
C651 N659 1.427 . S
C652 H643 0.930 . S
C652 C650 1.378 . S
C652 C653 1.367 . S
C653 C652 1.367 . S
C653 C655 1.433 . S
C654 C650 1.350 . S
C654 C651 1.463 . S
C654 N658 1.427 . S
C655 H645 0.929 . S
C655 C653 1.433 . S
C655 N658 1.384 . S
C656 H647 0.929 . S
C656 C648 1.378 . S
C656 C651 1.350 . S
C657 H644 0.929 . S
C657 C649 1.433 . S
C657 N659 1.384 . S
N658 C654 1.427 . S
N658 C655 1.384 . S
N659 C651 1.427 . S
N659 C657 1.384 . S
H660 C666 0.930 . S
H661 C670 0.930 . S
H662 C675 0.929 . S
H663 C673 0.929 . S
H664 C668 0.929 . S
H665 C674 0.929 . S
C666 H660 0.930 . S
C666 C667 1.367 . S
C666 C674 1.378 . S
C667 C666 1.367 . S
C667 C675 1.433 . S
C668 H664 0.929 . S
C668 C670 1.378 . S
C668 C672 1.350 . S
C669 C672 1.463 1_455 S
C669 C674 1.350 . S
C669 N677 1.427 . S
C670 H661 0.930 . S
C670 C668 1.378 . S
C670 C671 1.367 . S
C671 C670 1.367 . S
C671 C673 1.433 . S
C672 C668 1.350 . S
C672 C669 1.463 1_655 S
C672 N676 1.427 . S
C673 H663 0.929 . S
C673 C671 1.433 . S
C673 N676 1.384 . S
C674 H665 0.929 . S
C674 C666 1.378 . S
C674 C669 1.350 . S
C675 H662 0.929 . S
C675 C667 1.433 . S
C675 N677 1.384 . S
N676 C672 1.427 . S
N676 C673 1.384 . S
N677 C669 1.427 . S
N677 C675 1.384 . S
H678 C684 0.930 . S
H679 C688 0.930 . S
H680 C693 0.929 . S
H681 C691 0.929 . S
H682 C686 0.929 . S
H683 C692 0.929 . S
C684 H678 0.930 . S
C684 C685 1.367 . S
C684 C692 1.378 . S
C685 C684 1.367 . S
C685 C693 1.433 . S
C686 H682 0.929 . S
C686 C688 1.378 . S
C686 C690 1.350 . S
C687 C690 1.463 1_545 S
C687 C692 1.350 . S
C687 N695 1.427 . S
C688 H679 0.930 . S
C688 C686 1.378 . S
C688 C689 1.367 . S
C689 C688 1.367 . S
C689 C691 1.433 . S
C690 C686 1.350 . S
C690 C687 1.463 1_565 S
C690 N694 1.427 . S
C691 H681 0.929 . S
C691 C689 1.433 . S
C691 N694 1.384 . S
C692 H683 0.929 . S
C692 C684 1.378 . S
C692 C687 1.350 . S
C693 H680 0.929 . S
C693 C685 1.433 . S
C693 N695 1.384 . S
N694 C690 1.427 . S
N694 C691 1.384 . S
N695 C687 1.427 . S
N695 C693 1.384 . S
H696 C702 0.930 . S
H697 C706 0.930 . S
H698 C711 0.929 1_554 S
H699 C709 0.929 . S
H700 C704 0.929 . S
H701 C710 0.929 . S
C702 H696 0.930 . S
C702 C703 1.367 . S
C702 C710 1.378 . S
C703 C702 1.367 . S
C703 C711 1.433 . S
C704 H700 0.929 . S
C704 C706 1.378 . S
C704 C708 1.350 . S
C705 C708 1.463 . S
C705 C710 1.350 . S
C705 N713 1.427 . S
C706 H697 0.930 . S
C706 C704 1.378 . S
C706 C707 1.367 . S
C707 C706 1.367 . S
C707 C709 1.433 . S
C708 C704 1.350 . S
C708 C705 1.463 . S
C708 N712 1.427 . S
C709 H699 0.929 . S
C709 C707 1.433 . S
C709 N712 1.384 . S
C710 H701 0.929 . S
C710 C702 1.378 . S
C710 C705 1.350 . S
C711 H698 0.929 1_556 S
C711 C703 1.433 . S
C711 N713 1.384 . S
N712 C708 1.427 . S
N712 C709 1.384 . S
N713 C705 1.427 . S
N713 C711 1.384 . S
H714 C720 0.930 . S
H715 C724 0.930 . S
H716 C729 0.929 . S
H717 C727 0.929 . S
H718 C722 0.929 . S
H719 C728 0.929 . S
C720 H714 0.930 . S
C720 C721 1.367 . S
C720 C728 1.378 . S
C721 C720 1.367 . S
C721 C729 1.433 . S
C722 H718 0.929 . S
C722 C724 1.378 . S
C722 C726 1.350 . S
C723 C726 1.463 1_455 S
C723 C728 1.350 . S
C723 N731 1.427 . S
C724 H715 0.930 . S
C724 C722 1.378 . S
C724 C725 1.367 . S
C725 C724 1.367 . S
C725 C727 1.433 . S
C726 C722 1.350 . S
C726 C723 1.463 1_655 S
C726 N730 1.427 . S
C727 H717 0.929 . S
C727 C725 1.433 . S
C727 N730 1.384 . S
C728 H719 0.929 . S
C728 C720 1.378 . S
C728 C723 1.350 . S
C729 H716 0.929 . S
C729 C721 1.433 . S
C729 N731 1.384 . S
N730 C726 1.427 . S
N730 C727 1.384 . S
N731 C723 1.427 . S
N731 C729 1.384 . S
H732 C738 0.930 . S
H733 C742 0.930 . S
H734 C747 0.929 . S
H735 C745 0.929 . S
H736 C740 0.929 . S
H737 C746 0.929 . S
C738 H732 0.930 . S
C738 C739 1.367 . S
C738 C746 1.378 . S
C739 C738 1.367 . S
C739 C747 1.433 . S
C740 H736 0.929 . S
C740 C742 1.378 . S
C740 C744 1.350 . S
C741 C744 1.463 1_545 S
C741 C746 1.350 . S
C741 N749 1.427 . S
C742 H733 0.930 . S
C742 C740 1.378 . S
C742 C743 1.367 . S
C743 C742 1.367 . S
C743 C745 1.433 . S
C744 C740 1.350 . S
C744 C741 1.463 1_565 S
C744 N748 1.427 . S
C745 H735 0.929 . S
C745 C743 1.433 . S
C745 N748 1.384 . S
C746 H737 0.929 . S
C746 C738 1.378 . S
C746 C741 1.350 . S
C747 H734 0.929 . S
C747 C739 1.433 . S
C747 N749 1.384 . S
N748 C744 1.427 . S
N748 C745 1.384 . S
N749 C741 1.427 . S
N749 C747 1.384 . S
H750 C756 0.930 . S
H751 C760 0.930 . S
H752 C765 0.929 . S
H753 C763 0.929 . S
H754 C758 0.929 . S
H755 C764 0.929 . S
C756 H750 0.930 . S
C756 C757 1.367 . S
C756 C764 1.378 . S
C757 C756 1.367 . S
C757 C765 1.433 . S
C758 H754 0.929 . S
C758 C760 1.378 . S
C758 C762 1.350 . S
C759 C762 1.463 . S
C759 C764 1.350 . S
C759 N767 1.427 . S
C760 H751 0.930 . S
C760 C758 1.378 . S
C760 C761 1.367 . S
C761 C760 1.367 . S
C761 C763 1.433 . S
C762 C758 1.350 . S
C762 C759 1.463 . S
C762 N766 1.427 . S
C763 H753 0.929 . S
C763 C761 1.433 . S
C763 N766 1.384 . S
C764 H755 0.929 . S
C764 C756 1.378 . S
C764 C759 1.350 . S
C765 H752 0.929 . S
C765 C757 1.433 . S
C765 N767 1.384 . S
N766 C762 1.427 . S
N766 C763 1.384 . S
N767 C759 1.427 . S
N767 C765 1.384 . S
H768 C774 0.930 . S
H769 C778 0.930 . S
H770 C783 0.929 . S
H771 C781 0.929 . S
H772 C776 0.929 . S
H773 C782 0.929 . S
C774 H768 0.930 . S
C774 C775 1.367 . S
C774 C782 1.378 . S
C775 C774 1.367 . S
C775 C783 1.433 . S
C776 H772 0.929 . S
C776 C778 1.378 . S
C776 C780 1.350 . S
C777 C780 1.463 1_455 S
C777 C782 1.350 . S
C777 N785 1.427 . S
C778 H769 0.930 . S
C778 C776 1.378 . S
C778 C779 1.367 . S
C779 C778 1.367 . S
C779 C781 1.433 . S
C780 C776 1.350 . S
C780 C777 1.463 1_655 S
C780 N784 1.427 . S
C781 H771 0.929 . S
C781 C779 1.433 . S
C781 N784 1.384 . S
C782 H773 0.929 . S
C782 C774 1.378 . S
C782 C777 1.350 . S
C783 H770 0.929 . S
C783 C775 1.433 . S
C783 N785 1.384 . S
N784 C780 1.427 . S
N784 C781 1.384 . S
N785 C777 1.427 . S
N785 C783 1.384 . S
H786 C792 0.930 . S
H787 C796 0.930 . S
H788 C801 0.929 . S
H789 C799 0.929 . S
H790 C794 0.929 . S
H791 C800 0.929 . S
C792 H786 0.930 . S
C792 C793 1.367 . S
C792 C800 1.378 . S
C793 C792 1.367 . S
C793 C801 1.433 . S
C794 H790 0.929 . S
C794 C796 1.378 . S
C794 C798 1.350 . S
C795 C798 1.463 1_545 S
C795 C800 1.350 . S
C795 N803 1.427 . S
C796 H787 0.930 . S
C796 C794 1.378 . S
C796 C797 1.367 . S
C797 C796 1.367 . S
C797 C799 1.433 . S
C798 C794 1.350 . S
C798 C795 1.463 1_565 S
C798 N802 1.427 . S
C799 H789 0.929 . S
C799 C797 1.433 . S
C799 N802 1.384 . S
C800 H791 0.929 . S
C800 C792 1.378 . S
C800 C795 1.350 . S
C801 H788 0.929 . S
C801 C793 1.433 . S
C801 N803 1.384 . S
N802 C798 1.427 . S
N802 C799 1.384 . S
N803 C795 1.427 . S
N803 C801 1.384 . S
H804 C810 0.930 . S
H805 C814 0.930 . S
H806 C819 0.929 . S
H807 C817 0.929 . S
H808 C812 0.929 . S
H809 C818 0.929 . S
C810 H804 0.930 . S
C810 C811 1.367 . S
C810 C818 1.378 . S
C811 C810 1.367 . S
C811 C819 1.433 . S
C812 H808 0.929 . S
C812 C814 1.378 . S
C812 C816 1.350 . S
C813 C816 1.463 . S
C813 C818 1.350 . S
C813 N821 1.427 . S
C814 H805 0.930 . S
C814 C812 1.378 . S
C814 C815 1.367 . S
C815 C814 1.367 . S
C815 C817 1.433 . S
C816 C812 1.350 . S
C816 C813 1.463 . S
C816 N820 1.427 . S
C817 H807 0.929 . S
C817 C815 1.433 . S
C817 N820 1.384 . S
C818 H809 0.929 . S
C818 C810 1.378 . S
C818 C813 1.350 . S
C819 H806 0.929 . S
C819 C811 1.433 . S
C819 N821 1.384 . S
N820 C816 1.427 . S
N820 C817 1.384 . S
N821 C813 1.427 . S
N821 C819 1.384 . S
H822 C828 0.930 . S
H823 C832 0.930 . S
H824 C837 0.929 . S
H825 C835 0.929 . S
H826 C830 0.929 . S
H827 C836 0.929 . S
C828 H822 0.930 . S
C828 C829 1.367 . S
C828 C836 1.378 . S
C829 C828 1.367 . S
C829 C837 1.433 . S
C830 H826 0.929 . S
C830 C832 1.378 . S
C830 C834 1.350 . S
C831 C834 1.463 . S
C831 C836 1.350 . S
C831 N839 1.427 . S
C832 H823 0.930 . S
C832 C830 1.378 . S
C832 C833 1.367 . S
C833 C832 1.367 . S
C833 C835 1.433 . S
C834 C830 1.350 . S
C834 C831 1.463 . S
C834 N838 1.427 . S
C835 H825 0.929 . S
C835 C833 1.433 . S
C835 N838 1.384 . S
C836 H827 0.929 . S
C836 C828 1.378 . S
C836 C831 1.350 . S
C837 H824 0.929 . S
C837 C829 1.433 . S
C837 N839 1.384 . S
N838 C834 1.427 . S
N838 C835 1.384 . S
N839 C831 1.427 . S
N839 C837 1.384 . S
H840 C846 0.930 . S
H841 C850 0.930 . S
H842 C855 0.929 . S
H843 C853 0.929 . S
H844 C848 0.929 . S
H845 C854 0.929 . S
C846 H840 0.930 . S
C846 C847 1.367 . S
C846 C854 1.378 . S
C847 C846 1.367 . S
C847 C855 1.433 . S
C848 H844 0.929 . S
C848 C850 1.378 . S
C848 C852 1.350 . S
C849 C852 1.463 . S
C849 C854 1.350 . S
C849 N857 1.427 . S
C850 H841 0.930 . S
C850 C848 1.378 . S
C850 C851 1.367 . S
C851 C850 1.367 . S
C851 C853 1.433 . S
C852 C848 1.350 . S
C852 C849 1.463 . S
C852 N856 1.427 . S
C853 H843 0.929 . S
C853 C851 1.433 . S
C853 N856 1.384 . S
C854 H845 0.929 . S
C854 C846 1.378 . S
C854 C849 1.350 . S
C855 H842 0.929 . S
C855 C847 1.433 . S
C855 N857 1.384 . S
N856 C852 1.427 . S
N856 C853 1.384 . S
N857 C849 1.427 . S
N857 C855 1.384 . S
H858 C864 0.930 . S
H859 C868 0.930 . S
H860 C873 0.929 . S
H861 C871 0.929 . S
H862 C866 0.929 . S
H863 C872 0.929 . S
C864 H858 0.930 . S
C864 C865 1.367 . S
C864 C872 1.378 . S
C865 C864 1.367 . S
C865 C873 1.433 . S
C866 H862 0.929 . S
C866 C868 1.378 . S
C866 C870 1.350 . S
C867 C870 1.463 . S
C867 C872 1.350 . S
C867 N875 1.427 . S
C868 H859 0.930 . S
C868 C866 1.378 . S
C868 C869 1.367 . S
C869 C868 1.367 . S
C869 C871 1.433 . S
C870 C866 1.350 . S
C870 C867 1.463 . S
C870 N874 1.427 . S
C871 H861 0.929 . S
C871 C869 1.433 . S
C871 N874 1.384 . S
C872 H863 0.929 . S
C872 C864 1.378 . S
C872 C867 1.350 . S
C873 H860 0.929 . S
C873 C865 1.433 . S
C873 N875 1.384 . S
N874 C870 1.427 . S
N874 C871 1.384 . S
N875 C867 1.427 . S
N875 C873 1.384 . S
H876 C882 0.930 . S
H877 C886 0.930 1_554 S
H878 C891 0.929 . S
H879 C889 0.929 1_554 S
H880 C884 0.929 . S
H881 C890 0.929 . S
C882 H876 0.930 . S
C882 C883 1.367 . S
C882 C890 1.378 . S
C883 C882 1.367 . S
C883 C891 1.433 . S
C884 H880 0.929 . S
C884 C886 1.378 . S
C884 C888 1.350 . S
C885 C888 1.463 . S
C885 C890 1.350 . S
C885 N893 1.427 . S
C886 H877 0.930 1_556 S
C886 C884 1.378 . S
C886 C887 1.367 1_556 S
C887 C886 1.367 1_554 S
C887 C889 1.433 1_554 S
C888 C884 1.350 . S
C888 C885 1.463 . S
C888 N892 1.427 . S
C889 H879 0.929 1_556 S
C889 C887 1.433 1_556 S
C889 N892 1.384 . S
C890 H881 0.929 . S
C890 C882 1.378 . S
C890 C885 1.350 . S
C891 H878 0.929 . S
C891 C883 1.433 . S
C891 N893 1.384 . S
N892 C888 1.427 . S
N892 C889 1.384 . S
N893 C885 1.427 . S
N893 C891 1.384 . S
H894 C900 0.930 1_556 S
H895 C904 0.930 . S
H896 C909 0.914 1_556 S
H897 C907 0.929 . S
H898 C902 0.929 . S
H899 C908 0.929 . S
C900 H894 0.930 1_554 S
C900 C901 1.367 1_554 S
C900 C908 1.378 . S
C901 C900 1.367 1_556 S
C901 C909 1.420 1_556 S
C902 H898 0.929 . S
C902 C904 1.378 . S
C902 C906 1.350 . S
C903 C906 1.463 . S
C903 C908 1.350 . S
C903 N911 1.427 . S
C904 H895 0.930 . S
C904 C902 1.378 . S
C904 C905 1.367 . S
C905 C904 1.367 . S
C905 C907 1.433 . S
C906 C902 1.350 . S
C906 C903 1.463 . S
C906 N910 1.427 . S
C907 H897 0.929 . S
C907 C905 1.433 . S
C907 N910 1.384 . S
C908 H899 0.929 . S
C908 C900 1.378 . S
C908 C903 1.350 . S
C909 H896 0.914 1_554 S
C909 C901 1.420 1_554 S
C909 N911 1.413 . S
N910 C906 1.427 . S
N910 C907 1.384 . S
N911 C903 1.427 . S
N911 C909 1.413 . S
C271 C15 1.547 . S
C275 C183 1.546 . S
C289 C213 1.538 . S
C293 C43 1.546 . S
C307 C235 1.538 . S
C311 C59 1.541 . S
C325 C81 1.540 . S
C329 C249 1.539 . S
C343 C153 1.547 . S
C347 C103 1.538 . S
C361 C169 1.548 . S
C365 C125 1.543 . S
C379 C18 0.926 . S
C383 C216 0.924 . S
C397 C32 0.907 . S
C401 C238 0.918 . S
C415 C250 0.906 . S
C419 C62 0.910 . S
C433 C142 0.926 . S
C437 C84 0.918 . S
C451 C106 0.923 . S
C455 C172 0.912 . S
C469 C128 0.927 . S
C473 C184 0.921 . S
C487 C140 1.406 . S
C491 C10 1.401 . S
C505 C164 1.404 . S
C509 C30 1.402 . S
C523 C194 1.402 . S
C527 C54 1.404 . S
C541 C76 1.406 . S
C545 C208 1.406 . S
C559 C98 1.401 . S
C563 C230 1.408 . S
C577 C120 1.401 . S
C581 C260 1.406 . S
C595 C8 1.449 . S
C599 C131 1.501 . S
C613 C40 1.460 . S
C617 C21 1.498 . S
C631 C52 1.455 . S
C635 C29 1.498 . S
C649 C65 1.501 . S
C653 C74 1.466 . S
C667 C96 1.458 . S
C671 C87 1.509 . S
C685 C118 1.462 . S
C689 C109 1.508 . S
C703 C175 1.500 . S
C707 C150 1.466 . S
C721 C191 1.509 . S
C725 C162 1.457 . S
C739 C219 1.505 . S
C743 C186 1.448 . S
C757 C206 1.465 . S
C761 C241 1.505 . S
C775 C228 1.449 . S
C779 C257 1.502 . S
C793 C252 1.466 . S
C797 C139 1.505 . S
C811 C227 0.660 . S
C815 C7 0.658 . S
C829 C263 0.640 . S
C833 C37 0.640 . S
C847 C147 0.654 . S
C851 C51 0.656 . S
C865 C161 0.662 . S
C869 C73 0.661 . S
C883 C95 0.646 . S
C887 C197 0.644 . S
C901 C117 0.642 . S
C905 C205 0.644 . S
