# Generated by pormake.
# Topology uog, (4)-cn, num edge types: 1
# Building blocks:
#     Node 0, Type 0, BuildingBlock: KUFVIS_clean_sbu_0, # of connection points: 4
#     Node 1, Type 0, BuildingBlock: KUFVIS_clean_sbu_0, # of connection points: 4
#     Node 2, Type 0, BuildingBlock: KUFVIS_clean_sbu_0, # of connection points: 4
#     Node 3, Type 0, BuildingBlock: KUFVIS_clean_sbu_0, # of connection points: 4
#     Node 4, Type 0, BuildingBlock: KUFVIS_clean_sbu_0, # of connection points: 4
#     Node 5, Type 0, BuildingBlock: KUFVIS_clean_sbu_0, # of connection points: 4
#     Edge 6, Type (0, 0), BuildingBlock: TEMPAE_clean_linker_10, # of connection points: 2
#     Edge 7, Type (0, 0), BuildingBlock: TEMPAE_clean_linker_10, # of connection points: 2
#     Edge 8, Type (0, 0), BuildingBlock: TEMPAE_clean_linker_10, # of connection points: 2
#     Edge 9, Type (0, 0), BuildingBlock: TEMPAE_clean_linker_10, # of connection points: 2
#     Edge 10, Type (0, 0), BuildingBlock: TEMPAE_clean_linker_10, # of connection points: 2
#     Edge 11, Type (0, 0), BuildingBlock: TEMPAE_clean_linker_10, # of connection points: 2
#     Edge 12, Type (0, 0), BuildingBlock: TEMPAE_clean_linker_10, # of connection points: 2
#     Edge 13, Type (0, 0), BuildingBlock: TEMPAE_clean_linker_10, # of connection points: 2
#     Edge 14, Type (0, 0), BuildingBlock: TEMPAE_clean_linker_10, # of connection points: 2
#     Edge 15, Type (0, 0), BuildingBlock: TEMPAE_clean_linker_10, # of connection points: 2
#     Edge 16, Type (0, 0), BuildingBlock: TEMPAE_clean_linker_10, # of connection points: 2
#     Edge 17, Type (0, 0), BuildingBlock: TEMPAE_clean_linker_10, # of connection points: 2
# Relax obj value: 0.108
# Max RMSD: 0.206
# Mean RMSD: 0.204
data_MOF--net-uog--node1-KUFVIS_clean_sbu_0--edge1-TEMPAE_clean_linker_10
_symmetry_space_group_name_H-M    P1
_symmetry_Int_Tables_number       1
_symmetry_cell_setting            triclinic
loop_
_symmetry_equiv_pos_as_xyz
'x, y, z'
_cell_length_a     28.939497
_cell_length_b     28.897332
_cell_length_c     42.081404
_cell_angle_alpha  89.965364
_cell_angle_beta   89.97251
_cell_angle_gamma 119.99801
loop_
_atom_site_label
_atom_site_type_symbol
_atom_site_fract_x
_atom_site_fract_y
_atom_site_fract_z
_atom_type_partial_charge
Mn0 Mn 0.59949 0.28237 0.15152 0.0
Mn1 Mn 0.7076 0.40617 0.15479 0.0
C2 C 0.63699 0.32847 0.10535 0.0
C3 C 0.56654 0.1901 0.15218 0.0
C4 C 0.59509 0.38471 0.16521 0.0
O5 O 0.62387 0.28782 0.19706 0.0
O6 O 0.69633 0.3701 0.19652 0.0
C7 C 0.78648 0.37003 0.16106 0.0
N8 N 0.76791 0.39845 0.14511 0.0
C9 C 0.83731 0.42665 0.10585 0.0
C10 C 0.85739 0.39794 0.12194 0.0
C11 C 0.83173 0.36935 0.1496 0.0
C12 C 0.79168 0.42525 0.11815 0.0
H13 H 0.76682 0.34793 0.1823 0.0
C14 C 0.66397 0.32636 0.21042 0.0
O15 O 0.53666 0.20984 0.16065 0.0
O16 O 0.61479 0.22378 0.14338 0.0
N17 N 0.72449 0.44714 0.11648 0.0
C18 C 0.70237 0.47588 0.10517 0.0
C19 C 0.72428 0.50806 0.07809 0.0
C20 C 0.76941 0.51131 0.06339 0.0
C21 C 0.79275 0.48305 0.07623 0.0
C22 C 0.76919 0.45173 0.10327 0.0
H23 H 0.6681 0.47407 0.11663 0.0
O24 O 0.58899 0.28767 0.10523 0.0
O25 O 0.66251 0.33932 0.13219 0.0
O26 O 0.57116 0.33393 0.16104 0.0
O27 O 0.64577 0.41542 0.16381 0.0
C28 C 0.83919 0.48572 0.06371 0.0
C29 C 0.86105 0.45698 0.07825 0.0
H30 H 0.8925 0.39763 0.1133 0.0
H31 H 0.84687 0.34695 0.16211 0.0
H32 H 0.70647 0.53032 0.06859 0.0
H33 H 0.78619 0.53616 0.04251 0.0
H34 H 0.85869 0.51009 0.04304 0.0
H35 H 0.89658 0.45912 0.06828 0.0
Mn36 Mn 0.28843 0.58305 0.47927 0.0
Mn37 Mn 0.28369 0.69698 0.47505 0.0
C38 C 0.2809 0.61427 0.43057 0.0
C39 C 0.34392 0.54608 0.48353 0.0
C40 C 0.18882 0.58983 0.49415 0.0
O41 O 0.30964 0.61473 0.52312 0.0
O42 O 0.31714 0.69556 0.51622 0.0
C43 C 0.39977 0.77284 0.47087 0.0
N44 N 0.34994 0.75215 0.45834 0.0
C45 C 0.38413 0.80924 0.41246 0.0
C46 C 0.43577 0.83151 0.42501 0.0
C47 C 0.44362 0.81313 0.45431 0.0
C48 C 0.34198 0.76926 0.43006 0.0
H49 H 0.40602 0.75848 0.49325 0.0
C50 C 0.32184 0.66107 0.53293 0.0
O51 O 0.29454 0.51967 0.4931 0.0
O52 O 0.36034 0.5931 0.47175 0.0
N53 N 0.25277 0.70421 0.43648 0.0
C54 C 0.20061 0.67777 0.42733 0.0
C55 C 0.18605 0.69103 0.39836 0.0
C56 C 0.22513 0.73163 0.37925 0.0
C57 C 0.27838 0.75892 0.38943 0.0
C58 C 0.29044 0.74428 0.41865 0.0
H59 H 0.17036 0.64657 0.44192 0.0
O60 O 0.27044 0.56529 0.43364 0.0
O61 O 0.29796 0.64395 0.45584 0.0
O62 O 0.21046 0.56116 0.48911 0.0
O63 O 0.21349 0.64084 0.49136 0.0
C64 C 0.32002 0.79983 0.37163 0.0
C65 C 0.37291 0.82471 0.38302 0.0
H66 H 0.46972 0.86246 0.41226 0.0
H67 H 0.4834 0.82988 0.46406 0.0
H68 H 0.14485 0.66986 0.39071 0.0
H69 H 0.21379 0.74146 0.35681 0.0
H70 H 0.31187 0.81231 0.34906 0.0
H71 H 0.40467 0.85561 0.3689 0.0
Mn72 Mn 0.72227 0.31202 0.83315 0.0
Mn73 Mn 0.73555 0.43457 0.83387 0.0
C74 C 0.73682 0.35681 0.88049 0.0
C75 C 0.66287 0.22009 0.83283 0.0
C76 C 0.82451 0.41406 0.81398 0.0
O77 O 0.69569 0.31805 0.79001 0.0
O78 O 0.70014 0.39791 0.79354 0.0
C79 C 0.62061 0.39935 0.839 0.0
N80 N 0.67104 0.42747 0.85086 0.0
C81 C 0.64044 0.45497 0.89639 0.0
C82 C 0.58822 0.42662 0.88455 0.0
C83 C 0.57826 0.39857 0.85578 0.0
C84 C 0.68093 0.4539 0.87876 0.0
H85 H 0.61277 0.3775 0.81698 0.0
C86 C 0.6881 0.35455 0.77882 0.0
O87 O 0.71096 0.23973 0.82149 0.0
O88 O 0.65018 0.25363 0.8445 0.0
N89 N 0.76905 0.4751 0.87131 0.0
C90 C 0.82197 0.50222 0.87874 0.0
C91 C 0.83895 0.53356 0.9064 0.0
C92 C 0.80147 0.53718 0.92591 0.0
C93 C 0.74743 0.51002 0.91732 0.0
C94 C 0.73295 0.47983 0.88933 0.0
H95 H 0.85102 0.49996 0.86371 0.0
O96 O 0.74528 0.31687 0.87813 0.0
O97 O 0.71856 0.36786 0.85516 0.0
O98 O 0.79982 0.3637 0.81955 0.0
O99 O 0.80364 0.44377 0.81739 0.0
C100 C 0.70746 0.51219 0.93525 0.0
C101 C 0.65392 0.4843 0.92495 0.0
H102 H 0.55548 0.42606 0.89738 0.0
H103 H 0.53803 0.3764 0.84656 0.0
H104 H 0.8808 0.55477 0.91271 0.0
H105 H 0.81466 0.56109 0.94733 0.0
H106 H 0.71748 0.53529 0.95698 0.0
H107 H 0.62348 0.48598 0.93907 0.0
Mn108 Mn 0.40909 0.70298 0.1456 0.0
Mn109 Mn 0.29981 0.58042 0.1409 0.0
C110 C 0.38067 0.66229 0.09697 0.0
C111 C 0.44324 0.79533 0.14842 0.0
C112 C 0.4085 0.59806 0.15933 0.0
O113 O 0.37531 0.69354 0.18892 0.0
O114 O 0.30294 0.61192 0.18335 0.0
C115 C 0.22144 0.61778 0.14188 0.0
N116 N 0.24267 0.59073 0.12712 0.0
C117 C 0.18234 0.5687 0.08304 0.0
C118 C 0.15961 0.59606 0.09784 0.0
C119 C 0.17939 0.62087 0.12734 0.0
C120 C 0.22461 0.56757 0.09847 0.0
H121 H 0.23658 0.63697 0.16453 0.0
C122 C 0.33259 0.65409 0.19942 0.0
O123 O 0.47042 0.77388 0.15915 0.0
O124 O 0.397 0.76328 0.13625 0.0
N125 N 0.29054 0.54405 0.1014 0.0
C126 C 0.31436 0.51614 0.09142 0.0
C127 C 0.29816 0.48771 0.06269 0.0
C128 C 0.25691 0.48732 0.04489 0.0
C129 C 0.23161 0.51461 0.05628 0.0
C130 C 0.24942 0.54219 0.08507 0.0
H131 H 0.34565 0.5158 0.10521 0.0
O132 O 0.42887 0.70194 0.10046 0.0
O133 O 0.34999 0.64927 0.12184 0.0
O134 O 0.43381 0.64923 0.15719 0.0
O135 O 0.35844 0.56847 0.15411 0.0
C136 C 0.18861 0.51454 0.04056 0.0
C137 C 0.16441 0.54211 0.05372 0.0
H138 H 0.12693 0.59822 0.0868 0.0
H139 H 0.16217 0.6422 0.13888 0.0
H140 H 0.31741 0.46615 0.05428 0.0
H141 H 0.2446 0.46545 0.02271 0.0
H142 H 0.17359 0.49313 0.01841 0.0
H143 H 0.13159 0.54201 0.0413 0.0
Mn144 Mn 0.68159 0.40033 0.48934 0.0
Mn145 Mn 0.706 0.29761 0.48837 0.0
C146 C 0.69439 0.36988 0.44181 0.0
C147 C 0.61777 0.42731 0.49184 0.0
C148 C 0.79058 0.4114 0.50379 0.0
O149 O 0.66251 0.37024 0.53369 0.0
O150 O 0.67462 0.29922 0.53021 0.0
C151 C 0.59356 0.21011 0.48918 0.0
N152 N 0.64235 0.23511 0.47492 0.0
C153 C 0.6105 0.1723 0.43166 0.0
C154 C 0.56 0.14562 0.446 0.0
C155 C 0.55149 0.16467 0.47486 0.0
C156 C 0.65089 0.21732 0.44706 0.0
H157 H 0.58679 0.22492 0.51122 0.0
C158 C 0.66105 0.32898 0.54542 0.0
O159 O 0.66661 0.45881 0.50112 0.0
O160 O 0.6065 0.38077 0.48125 0.0
N161 N 0.73663 0.29087 0.44957 0.0
C162 C 0.78759 0.32143 0.43877 0.0
C163 C 0.80272 0.3078 0.41012 0.0
C164 C 0.76552 0.26264 0.39309 0.0
C165 C 0.71361 0.23125 0.40499 0.0
C166 C 0.70101 0.24647 0.43384 0.0
H167 H 0.8164 0.35613 0.45178 0.0
O168 O 0.69845 0.4166 0.44358 0.0
O169 O 0.6806 0.34144 0.4677 0.0
O170 O 0.76184 0.43314 0.49935 0.0
O171 O 0.77324 0.36125 0.50131 0.0
C172 C 0.67381 0.18562 0.3893 0.0
C173 C 0.6222 0.15635 0.40252 0.0
H174 H 0.52741 0.11066 0.43498 0.0
H175 H 0.51255 0.14447 0.48598 0.0
H176 H 0.84291 0.33213 0.40115 0.0
H177 H 0.77732 0.25239 0.37096 0.0
H178 H 0.68238 0.17282 0.36698 0.0
H179 H 0.59178 0.12167 0.39006 0.0
Mn180 Mn 0.32477 0.73692 0.8264 0.0
Mn181 Mn 0.31675 0.61715 0.819 0.0
C182 C 0.3168 0.68825 0.87123 0.0
C183 C 0.38255 0.82917 0.82788 0.0
C184 C 0.22281 0.63477 0.80792 0.0
O185 O 0.34405 0.73501 0.78059 0.0
O186 O 0.34809 0.65935 0.77942 0.0
C187 C 0.43288 0.6568 0.81916 0.0
N188 N 0.38369 0.62544 0.83214 0.0
C189 C 0.42012 0.59542 0.87338 0.0
C190 C 0.47113 0.62709 0.86032 0.0
C191 C 0.47753 0.65802 0.83314 0.0
C192 C 0.3772 0.59617 0.85856 0.0
H193 H 0.43801 0.6809 0.79839 0.0
C194 C 0.35372 0.70195 0.76644 0.0
O195 O 0.33299 0.80947 0.81929 0.0
O196 O 0.39771 0.79549 0.83551 0.0
N197 N 0.28747 0.57134 0.85518 0.0
C198 C 0.23521 0.54037 0.86354 0.0
C199 C 0.22165 0.50573 0.8897 0.0
C200 C 0.26183 0.50263 0.90665 0.0
C201 C 0.31511 0.53343 0.89687 0.0
C202 C 0.32614 0.56684 0.87045 0.0
H203 H 0.20409 0.54222 0.85045 0.0
O204 O 0.30825 0.72818 0.87262 0.0
O205 O 0.33269 0.68023 0.84396 0.0
O206 O 0.2461 0.68416 0.816 0.0
O207 O 0.24614 0.60696 0.8066 0.0
C208 C 0.35761 0.53165 0.91198 0.0
C209 C 0.41016 0.56303 0.90045 0.0
H210 H 0.50564 0.62801 0.87098 0.0
H211 H 0.5168 0.68275 0.823 0.0
H212 H 0.18035 0.48159 0.89684 0.0
H213 H 0.25127 0.47615 0.92694 0.0
H214 H 0.35031 0.50606 0.9324 0.0
H215 H 0.44253 0.56152 0.91239 0.0
C216 C 0.50354 0.09654 0.17088 0.0
C217 C 0.54761 0.13203 0.15255 0.0
C218 C 0.48713 0.04173 0.17198 0.0
C219 C 0.51476 0.02192 0.15376 0.0
C220 C 0.55898 0.05766 0.13502 0.0
C221 C 0.57514 0.11223 0.1349 0.0
C222 C 0.44031 1.00501 0.19264 0.0
C223 C 0.58878 0.03814 0.11466 0.0
C224 C 0.50196 0.88652 0.17176 0.0
C225 C 0.46289 0.85347 0.14984 0.0
C226 C 0.51845 0.94127 0.17385 0.0
C227 C 0.49616 0.96356 0.15305 0.0
C228 C 0.4572 0.93034 0.13063 0.0
C229 C 0.44069 0.87573 0.12954 0.0
C230 C 0.55944 0.97523 0.19842 0.0
C231 C 0.43333 0.95258 0.10749 0.0
H232 H 0.48244 0.11172 0.18477 0.0
H233 H 0.60913 0.13943 0.12056 0.0
H234 H 0.40756 0.97479 0.17769 0.0
H235 H 0.45214 0.98306 0.20936 0.0
H236 H 0.42476 0.02699 0.20655 0.0
H237 H 0.62246 0.07114 0.10153 0.0
H238 H 0.60474 0.01774 0.12963 0.0
H239 H 0.56113 0.00845 0.0972 0.0
H240 H 0.51886 0.86938 0.18767 0.0
H241 H 0.41063 0.85043 0.11242 0.0
H242 H 0.54338 0.99508 0.21382 0.0
H243 H 0.59559 0.00721 0.18655 0.0
H244 H 0.57133 0.9515 0.21364 0.0
H245 H 0.41347 0.97113 0.12059 0.0
H246 H 0.40368 0.92143 0.09139 0.0
H247 H 0.46536 0.98435 0.09281 0.0
C248 C 0.37349 0.48574 0.50809 0.0
C249 C 0.38104 0.52494 0.48577 0.0
C250 C 0.41115 0.46868 0.51126 0.0
C251 C 0.45661 0.49055 0.49116 0.0
C252 C 0.46367 0.52936 0.46821 0.0
C253 C 0.42616 0.5464 0.46604 0.0
C254 C 0.40272 0.42783 0.53634 0.0
C255 C 0.51079 0.55282 0.44578 0.0
C256 C 0.58284 0.4863 0.5112 0.0
C257 C 0.57626 0.44303 0.49278 0.0
C258 C 0.54318 0.50092 0.51196 0.0
C259 C 0.49644 0.47226 0.49333 0.0
C260 C 0.48956 0.42832 0.47489 0.0
C261 C 0.52926 0.41398 0.47508 0.0
C262 C 0.55161 0.5475 0.53231 0.0
C263 C 0.44097 0.39741 0.45416 0.0
H264 H 0.33891 0.46942 0.52357 0.0
H265 H 0.43206 0.57652 0.4486 0.0
H266 H 0.39994 0.39183 0.52507 0.0
H267 H 0.43744 0.44439 0.55268 0.0
H268 H 0.36596 0.41552 0.5505 0.0
H269 H 0.50989 0.58191 0.42889 0.0
H270 H 0.54853 0.57335 0.45948 0.0
H271 H 0.51143 0.52046 0.43195 0.0
H272 H 0.61885 0.50856 0.52516 0.0
H273 H 0.52393 0.38054 0.46071 0.0
H274 H 0.51653 0.53553 0.54796 0.0
H275 H 0.55552 0.5805 0.51696 0.0
H276 H 0.5879 0.56286 0.54732 0.0
H277 H 0.40408 0.38221 0.46855 0.0
H278 H 0.44071 0.36306 0.44215 0.0
H279 H 0.43974 0.42425 0.43572 0.0
C280 C 0.90409 0.48565 0.78572 0.0
C281 C 0.88192 0.44126 0.80609 0.0
C282 C 0.95957 0.51691 0.78168 0.0
C283 C 0.99367 0.50453 0.79929 0.0
C284 C 0.97135 0.45868 0.81911 0.0
C285 C 0.91565 0.42713 0.8219 0.0
C286 C 0.98169 0.56433 0.75951 0.0
C287 C 1.00629 0.44471 0.8388 0.0
C288 C 0.14123 0.56391 0.78075 0.0
C289 C 0.16454 0.60615 0.80257 0.0
C290 C 0.08552 0.53201 0.77829 0.0
C291 C 0.05248 0.5415 0.79891 0.0
C292 C 0.07588 0.58493 0.82048 0.0
C293 C 0.13164 0.61722 0.82171 0.0
C294 C 0.06212 0.48729 0.75425 0.0
C295 C 0.04214 0.59575 0.84335 0.0
H296 H 0.87798 0.49651 0.7734 0.0
H297 H 0.89859 0.39325 0.83799 0.0
H298 H 1.00119 0.60184 0.77352 0.0
H299 H 0.01251 0.56451 0.74373 0.0
H300 H 0.9501 0.56444 0.74457 0.0
H301 H 0.9828 0.40659 0.852 0.0
H302 H 0.03562 0.44135 0.82344 0.0
H303 H 0.02923 0.47711 0.85618 0.0
H304 H 0.16666 0.5554 0.76585 0.0
H305 H 0.14958 0.64939 0.8389 0.0
H306 H 0.03049 0.48893 0.74024 0.0
H307 H 0.04327 0.44822 0.7667 0.0
H308 H 0.0928 0.489 0.73765 0.0
H309 H 0.01225 0.60153 0.83016 0.0
H310 H 0.06643 0.63165 0.85822 0.0
H311 H 0.01987 0.56078 0.85925 0.0
C312 C 0.09566 0.51459 0.48649 0.0
C313 C 0.13103 0.56306 0.50123 0.0
C314 C 0.04019 0.4924 0.48951 0.0
C315 C 0.01965 0.51856 0.50847 0.0
C316 C 0.05529 0.56628 0.52456 0.0
C317 C 0.11055 0.5884 0.52034 0.0
C318 C 1.00357 0.44199 0.47144 0.0
C319 C 0.03507 0.59446 0.54576 0.0
C320 C 0.87897 0.48812 0.4885 0.0
C321 C 0.84843 0.4455 0.5091 0.0
C322 C 0.93498 0.51345 0.48865 0.0
C323 C 0.96087 0.49659 0.51054 0.0
C324 C 0.93009 0.45595 0.53284 0.0
C325 C 0.87418 0.43021 0.53145 0.0
C326 C 0.96622 0.55581 0.46404 0.0
C327 C 0.95607 0.43797 0.55722 0.0
H328 H 0.11134 0.49529 0.47135 0.0
H329 H 0.13784 0.62585 0.53185 0.0
H330 H 0.97613 0.41039 0.4881 0.0
H331 H 0.97861 0.44982 0.45472 0.0
H332 H 0.02586 0.4266 0.45772 0.0
H333 H 0.0679 0.6286 0.55866 0.0
H334 H 0.01344 0.6097 0.53133 0.0
H335 H 1.00636 0.56606 0.5634 0.0
H336 H 0.85898 0.49921 0.47083 0.0
H337 H 0.85043 0.39705 0.54731 0.0
H338 H 0.9861 0.5412 0.44757 0.0
H339 H 0.99798 0.59247 0.47555 0.0
H340 H 0.94044 0.56645 0.4499 0.0
H341 H 0.9737 0.41622 0.54525 0.0
H342 H 0.92715 0.41113 0.57536 0.0
H343 H 0.98897 0.47298 0.56941 0.0
C344 C 0.41442 0.92352 0.81024 0.0
C345 C 0.42141 0.88712 0.82869 0.0
C346 C 0.45381 0.97799 0.80953 0.0
C347 C 0.50054 0.99635 0.82821 0.0
C348 C 0.5071 0.95978 0.84733 0.0
C349 C 0.46775 0.90566 0.8471 0.0
C350 C 0.44577 0.01577 0.78857 0.0
C351 C 0.55565 0.97781 0.86815 0.0
C352 C 0.62707 0.12804 0.81021 0.0
C353 C 0.62283 0.16247 0.83191 0.0
C354 C 0.58685 0.07405 0.80814 0.0
C355 C 0.54206 0.05402 0.8287 0.0
C356 C 0.53809 0.0886 0.85091 0.0
C357 C 0.57824 0.14242 0.85204 0.0
C358 C 0.59212 0.03847 0.78391 0.0
C359 C 0.49171 0.06865 0.87375 0.0
H360 H 0.37888 0.90922 0.79577 0.0
H361 H 0.47323 0.87771 0.86157 0.0
H362 H 0.4454 0.04748 0.80322 0.0
H363 H 0.47949 0.0358 0.7716 0.0
H364 H 0.40791 0.99502 0.77492 0.0
H365 H 0.55436 0.94434 0.8819 0.0
H366 H 0.59233 0.9963 0.85339 0.0
H367 H 0.55888 0.00869 0.8851 0.0
H368 H 0.66118 0.14355 0.7944 0.0
H369 H 0.57484 0.16886 0.86895 0.0
H370 H 0.55635 0.01987 0.76839 0.0
H371 H 0.59432 0.00558 0.79609 0.0
H372 H 0.62815 0.06066 0.76878 0.0
H373 H 0.45361 0.05133 0.86042 0.0
H374 H 0.49447 0.10082 0.88946 0.0
H375 H 0.49014 0.03639 0.88884 0.0
C376 C 0.48693 0.58583 0.15035 0.0
C377 C 0.43861 0.5703 0.16596 0.0
C378 C 0.51161 0.55461 0.15244 0.0
C379 C 0.48815 0.50771 0.17138 0.0
C380 C 0.44079 0.49352 0.18853 0.0
C381 C 0.41607 0.52448 0.18515 0.0
C382 C 0.56141 0.57047 0.13321 0.0
C383 C 0.41549 0.44492 0.2098 0.0
C384 C 0.51983 0.3987 0.14975 0.0
C385 C 0.56304 0.41095 0.1698 0.0
C386 C 0.49458 0.42948 0.1503 0.0
C387 C 0.51202 0.47242 0.17211 0.0
C388 C 0.55382 0.48298 0.19357 0.0
C389 C 0.57949 0.45273 0.19175 0.0
C390 C 0.451 0.41769 0.12652 0.0
C391 C 0.57238 0.52712 0.21788 0.0
H392 H 0.50391 0.6208 0.13512 0.0
H393 H 0.37867 0.51252 0.19727 0.0
H394 H 0.59417 0.57506 0.14893 0.0
H395 H 0.55372 0.5385 0.11585 0.0
H396 H 0.57505 0.60848 0.12005 0.0
H397 H 0.38186 0.44245 0.2239 0.0
H398 H 0.40021 0.4082 0.19521 0.0
H399 H 0.44561 0.44552 0.22636 0.0
H400 H 0.50772 0.36692 0.13244 0.0
H401 H 0.61297 0.46213 0.20726 0.0
H402 H 0.46353 0.45278 0.11073 0.0
H403 H 0.41418 0.4105 0.13893 0.0
H404 H 0.44141 0.38232 0.11158 0.0
H405 H 0.59163 0.56645 0.20572 0.0
H406 H 0.6014 0.52653 0.23492 0.0
H407 H 0.53782 0.5236 0.2314 0.0
C408 C 0.67524 0.34197 0.92422 0.0
C409 C 0.72706 0.37065 0.91218 0.0
C410 C 0.66541 0.34327 0.95666 0.0
C411 C 0.70794 0.37782 0.97693 0.0
C412 C 0.75971 0.41011 0.96413 0.0
C413 C 0.76926 0.40371 0.93219 0.0
C414 C 0.61043 0.30457 0.96939 0.0
C415 C 0.80513 0.45007 0.9843 0.0
C416 C 0.64871 0.38088 0.05629 0.0
C417 C 0.66341 0.35039 0.07498 0.0
C418 C 0.66879 0.39589 0.02536 0.0
C419 C 0.69897 0.37458 0.01181 0.0
C420 C 0.71379 0.34351 0.03088 0.0
C421 C 0.69731 0.33353 0.06266 0.0
C422 C 0.65835 0.43493 0.00739 0.0
C423 C 0.74474 0.31817 0.01805 0.0
H424 H 0.64308 0.31506 0.90866 0.0
H425 H 0.80962 0.42411 0.92297 0.0
H426 H 0.61338 0.28248 -0.00983 0.0
H427 H 0.59028 0.32652 0.97741 0.0
H428 H 0.58469 0.27501 0.95122 0.0
H429 H 0.84025 0.47776 0.96975 0.0
H430 H 0.79189 0.47378 -0.0016 0.0
H431 H 0.81778 0.42898 0.00107 0.0
H432 H 0.62201 0.39341 0.06602 0.0
H433 H 0.70782 0.30919 0.07724 0.0
H434 H 0.63737 0.41752 0.98474 0.0
H435 H 0.69715 0.47058 0.00129 0.0
H436 H 0.63447 0.44806 0.02146 0.0
H437 H 0.73105 0.27861 0.02931 0.0
H438 H 0.78748 0.3438 0.02423 0.0
H439 H 0.74126 0.31248 -0.00807 0.0
C440 C 0.31376 0.61277 0.25254 0.0
C441 C 0.31955 0.65443 0.23301 0.0
C442 C 0.30597 0.61385 0.28526 0.0
C443 C 0.30163 0.65664 0.29847 0.0
C444 C 0.30526 0.69782 0.2785 0.0
C445 C 0.31568 0.69695 0.24596 0.0
C446 C 0.30378 0.56981 0.30576 0.0
C447 C 0.29895 0.74306 0.29133 0.0
C448 C 0.23887 0.6132 0.37924 0.0
C449 C 0.28403 0.63558 0.39866 0.0
C450 C 0.24329 0.62538 0.34676 0.0
C451 C 0.29449 0.65777 0.33332 0.0
C452 C 0.33987 0.68278 0.3533 0.0
C453 C 0.33398 0.67144 0.38591 0.0
C454 C 0.19365 0.60065 0.32652 0.0
C455 C 0.39517 0.71746 0.33996 0.0
H456 H 0.31745 0.5803 0.24232 0.0
H457 H 0.32024 0.72912 0.2306 0.0
H458 H 0.33434 0.58719 0.32478 0.0
H459 H 0.26423 0.54738 0.31747 0.0
H460 H 0.31068 0.54112 0.29188 0.0
H461 H 0.28786 0.76234 0.27229 0.0
H462 H 0.26815 0.72894 0.31026 0.0
H463 H 0.33734 0.77385 0.3017 0.0
H464 H 0.20034 0.58513 0.38932 0.0
H465 H 0.3689 0.68784 0.4011 0.0
H466 H 0.19097 0.56629 0.31318 0.0
H467 H 0.19515 0.63 0.30892 0.0
H468 H 0.15697 0.58607 0.34114 0.0
H469 H 0.40688 0.69236 0.32599 0.0
H470 H 0.42528 0.73814 0.35894 0.0
H471 H 0.39591 0.74795 0.32367 0.0
C472 C 0.63104 0.29716 0.73476 0.0
C473 C 0.66861 0.34792 0.74599 0.0
C474 C 0.6187 0.28852 0.70232 0.0
C475 C 0.6462 0.33126 0.68072 0.0
C476 C 0.68225 0.38317 0.69221 0.0
C477 C 0.69237 0.39103 0.72488 0.0
C478 C 0.57846 0.23316 0.69107 0.0
C479 C 0.71319 0.42959 0.66986 0.0
C480 C 0.67966 0.30465 0.59841 0.0
C481 C 0.64909 0.31906 0.57951 0.0
C482 C 0.67737 0.30627 0.6316 0.0
C483 C 0.64236 0.32098 0.64605 0.0
C484 C 0.60808 0.33109 0.62702 0.0
C485 C 0.61259 0.33103 0.59384 0.0
C486 C 0.71537 0.29623 0.65105 0.0
C487 C 0.56874 0.34474 0.64163 0.0
H488 H 0.61238 0.26392 0.75126 0.0
H489 H 0.72173 0.43015 0.73364 0.0
H490 H 0.55153 0.23506 0.673 0.0
H491 H 0.59949 0.21426 0.6797 0.0
H492 H 0.55397 0.20718 0.71097 0.0
H493 H 0.73761 0.46784 0.68272 0.0
H494 H 0.74015 0.42169 0.65496 0.0
H495 H 0.68566 0.43427 0.6536 0.0
H496 H 0.70825 0.29592 0.58727 0.0
H497 H 0.5887 0.34185 0.57911 0.0
H498 H 0.69328 0.26546 0.66945 0.0
H499 H 0.74406 0.33349 0.66355 0.0
H500 H 0.73827 0.28287 0.63621 0.0
H501 H 0.54756 0.31774 0.66189 0.0
H502 H 0.53879 0.34191 0.62405 0.0
H503 H 0.59033 0.38615 0.65096 0.0
C504 C 0.27717 0.63013 0.91836 0.0
C505 C 0.32232 0.66551 0.90098 0.0
C506 C 0.28214 0.61568 0.94943 0.0
C507 C 0.33256 0.64227 0.96449 0.0
C508 C 0.37838 0.67842 0.94686 0.0
C509 C 0.37279 0.68804 0.91486 0.0
C510 C 0.2335 0.57298 0.96634 0.0
C511 C 0.43239 0.71081 0.96238 0.0
C512 C 0.3332 0.67293 0.05189 0.0
C513 C 0.35944 0.64782 0.06476 0.0
C514 C 0.32336 0.67076 0.01922 0.0
C515 C 0.33646 0.63916 -0.0005 0.0
C516 C 0.359 0.61011 0.01305 0.0
C517 C 0.37318 0.61737 0.0453 0.0
C518 C 0.30283 0.70556 0.00568 0.0
C519 C 0.36819 0.57168 -0.00647 0.0
H520 H 0.238 0.61419 0.90775 0.0
H521 H 0.40734 0.7168 0.90144 0.0
H522 H 0.22259 0.5904 0.98642 0.0
H523 H 0.19854 0.55254 0.95026 0.0
H524 H 0.24251 0.54281 0.97634 0.0
H525 H 0.46309 0.73934 0.9456 0.0
H526 H 0.42945 0.73375 0.98268 0.0
H527 H 0.44632 0.68419 0.97194 0.0
H528 H 0.32417 0.69773 0.06707 0.0
H529 H 0.39487 0.59926 0.05532 0.0
H530 H 0.26243 0.68044 -0.0044 0.0
H531 H 0.32924 0.73079 0.98615 0.0
H532 H 0.30052 0.73215 0.0239 0.0
H533 H 0.3301 0.54206 0.98221 0.0
H534 H 0.38326 0.54998 0.00812 0.0
H535 H 0.39709 0.59298 0.97417 0.0
C536 C 0.64793 0.30612 0.39824 0.0
C537 C 0.69502 0.3484 0.41051 0.0
C538 C 0.64402 0.29289 0.36595 0.0
C539 C 0.68838 0.32293 0.34578 0.0
C540 C 0.73742 0.36258 0.35883 0.0
C541 C 0.73969 0.37596 0.39097 0.0
C542 C 0.59098 0.25048 0.35301 0.0
C543 C 0.78626 0.39388 0.33837 0.0
C544 C 0.68095 0.28629 0.25834 0.0
C545 C 0.66965 0.3237 0.24476 0.0
C546 C 0.68766 0.28544 0.29138 0.0
C547 C 0.68064 0.32141 0.3109 0.0
C548 C 0.66764 0.35814 0.29701 0.0
C549 C 0.66323 0.35939 0.26401 0.0
C550 C 0.70254 0.24653 0.30524 0.0
C551 C 0.65867 0.39646 0.31695 0.0
H552 H 0.61316 0.28569 0.41348 0.0
H553 H 0.7759 0.40899 0.40068 0.0
H554 H 0.57176 0.26996 0.34016 0.0
H555 H 0.59636 0.22448 0.33586 0.0
H556 H 0.56367 0.22511 0.37222 0.0
H557 H 0.82312 0.41523 0.35288 0.0
H558 H 0.79093 0.36708 0.32143 0.0
H559 H 0.78179 0.42388 0.32428 0.0
H560 H 0.68575 0.25874 0.2431 0.0
H561 H 0.65395 0.38786 0.25317 0.0
H562 H 0.66759 0.21412 0.31772 0.0
H563 H 0.73509 0.26667 0.32287 0.0
H564 H 0.7155 0.22815 0.28664 0.0
H565 H 0.62833 0.37428 0.33557 0.0
H566 H 0.6451 0.41964 0.30252 0.0
H567 H 0.69624 0.42503 0.32914 0.0
C568 C 0.39493 0.68938 0.71732 0.0
C569 C 0.36567 0.70991 0.73217 0.0
C570 C 0.39888 0.68949 0.68407 0.0
C571 C 0.37115 0.70863 0.66548 0.0
C572 C 0.34427 0.7323 0.68047 0.0
C573 C 0.34261 0.7334 0.71367 0.0
C574 C 0.42978 0.666 0.66887 0.0
C575 C 0.31291 0.7518 0.66161 0.0
C576 C 0.38029 0.7228 0.57558 0.0
C577 C 0.33747 0.6733 0.56639 0.0
C578 C 0.39391 0.73409 0.60783 0.0
C579 C 0.36231 0.69582 0.63113 0.0
C580 C 0.31908 0.64576 0.62174 0.0
C581 C 0.30788 0.6348 0.58943 0.0
C582 C 0.44148 0.78699 0.61697 0.0
C583 C 0.28329 0.60443 0.64581 0.0
H584 H 0.41341 0.67186 0.73164 0.0
H585 H 0.31977 0.74916 0.72509 0.0
H586 H 0.40162 0.62521 0.66009 0.0
H587 H 0.45298 0.69038 0.64817 0.0
H588 H 0.45754 0.6632 0.68596 0.0
H589 H 0.29876 0.77387 0.67661 0.0
H590 H 0.33733 0.77827 0.64194 0.0
H591 H 0.27762 0.71707 0.65082 0.0
H592 H 0.40334 0.75228 0.55758 0.0
H593 H 0.27449 0.59669 0.58217 0.0
H594 H 0.4669 0.78082 0.63423 0.0
H595 H 0.42783 0.81238 0.62874 0.0
H596 H 0.4661 0.80892 0.59602 0.0
H597 H 0.30699 0.59268 0.66103 0.0
H598 H 0.25088 0.56789 0.63444 0.0
H599 H 0.2649 0.62157 0.66158 0.0
loop_
_geom_bond_atom_site_label_1
_geom_bond_atom_site_label_2
_geom_bond_distance
_geom_bond_site_symmetry_2
_ccdc_geom_bond_type
Mn0 O5 2.095 . S
Mn0 O15 2.162 . S
Mn0 O16 2.297 . S
Mn0 O24 2.385 . S
Mn0 O25 2.209 . S
Mn0 O26 2.094 . S
Mn1 O6 2.121 . S
Mn1 N8 2.257 . S
Mn1 N17 2.282 . S
Mn1 O25 2.215 . S
Mn1 O27 2.117 . S
C2 O24 1.234 . S
C2 O25 1.283 . S
C3 O15 1.281 . S
C3 O16 1.236 . S
C4 O26 1.240 . S
C4 O27 1.264 . S
O5 Mn0 2.095 . S
O5 C14 1.250 . S
O6 Mn1 2.121 . S
O6 C14 1.258 . S
C7 N8 1.326 . S
C7 C11 1.460 . S
C7 H13 0.929 . S
N8 Mn1 2.257 . S
N8 C7 1.326 . S
N8 C12 1.362 . S
C9 C10 1.258 . S
C9 C12 1.431 . S
C9 C29 1.449 . S
C10 C9 1.258 . S
C10 C11 1.477 . S
C10 H30 0.931 . S
C11 C7 1.460 . S
C11 C10 1.477 . S
C11 H31 0.930 . S
C12 N8 1.362 . S
C12 C9 1.431 . S
C12 C22 1.476 . S
H13 C7 0.929 . S
C14 O5 1.250 . S
C14 O6 1.258 . S
O15 Mn0 2.162 . S
O15 C3 1.281 . S
O16 Mn0 2.297 . S
O16 C3 1.236 . S
N17 Mn1 2.282 . S
N17 C18 1.328 . S
N17 C22 1.318 . S
C18 N17 1.328 . S
C18 C19 1.457 . S
C18 H23 0.929 . S
C19 C18 1.457 . S
C19 C20 1.291 . S
C19 H32 0.931 . S
C20 C19 1.291 . S
C20 C21 1.373 . S
C20 H33 0.929 . S
C21 C20 1.373 . S
C21 C22 1.396 . S
C21 C28 1.403 . S
C22 C12 1.476 . S
C22 N17 1.318 . S
C22 C21 1.396 . S
H23 C18 0.929 . S
O24 Mn0 2.385 . S
O24 C2 1.234 . S
O25 Mn0 2.209 . S
O25 Mn1 2.215 . S
O25 C2 1.283 . S
O26 Mn0 2.094 . S
O26 C4 1.240 . S
O27 Mn1 2.117 . S
O27 C4 1.264 . S
C28 C21 1.403 . S
C28 C29 1.399 . S
C28 H34 0.929 . S
C29 C9 1.449 . S
C29 C28 1.399 . S
C29 H35 0.930 . S
H30 C10 0.931 . S
H31 C11 0.930 . S
H32 C19 0.931 . S
H33 C20 0.929 . S
H34 C28 0.929 . S
H35 C29 0.930 . S
Mn36 O41 2.095 . S
Mn36 O51 2.162 . S
Mn36 O52 2.297 . S
Mn36 O60 2.385 . S
Mn36 O61 2.209 . S
Mn36 O62 2.094 . S
Mn37 O42 2.121 . S
Mn37 N44 2.257 . S
Mn37 N53 2.282 . S
Mn37 O61 2.215 . S
Mn37 O63 2.117 . S
C38 O60 1.234 . S
C38 O61 1.283 . S
C39 O51 1.281 . S
C39 O52 1.236 . S
C40 O62 1.240 . S
C40 O63 1.264 . S
O41 Mn36 2.095 . S
O41 C50 1.250 . S
O42 Mn37 2.121 . S
O42 C50 1.258 . S
C43 N44 1.326 . S
C43 C47 1.460 . S
C43 H49 0.929 . S
N44 Mn37 2.257 . S
N44 C43 1.326 . S
N44 C48 1.362 . S
C45 C46 1.258 . S
C45 C48 1.431 . S
C45 C65 1.449 . S
C46 C45 1.258 . S
C46 C47 1.477 . S
C46 H66 0.931 . S
C47 C43 1.460 . S
C47 C46 1.477 . S
C47 H67 0.930 . S
C48 N44 1.362 . S
C48 C45 1.431 . S
C48 C58 1.476 . S
H49 C43 0.929 . S
C50 O41 1.250 . S
C50 O42 1.258 . S
O51 Mn36 2.162 . S
O51 C39 1.281 . S
O52 Mn36 2.297 . S
O52 C39 1.236 . S
N53 Mn37 2.282 . S
N53 C54 1.328 . S
N53 C58 1.318 . S
C54 N53 1.328 . S
C54 C55 1.457 . S
C54 H59 0.929 . S
C55 C54 1.457 . S
C55 C56 1.291 . S
C55 H68 0.931 . S
C56 C55 1.291 . S
C56 C57 1.373 . S
C56 H69 0.929 . S
C57 C56 1.373 . S
C57 C58 1.396 . S
C57 C64 1.403 . S
C58 C48 1.476 . S
C58 N53 1.318 . S
C58 C57 1.396 . S
H59 C54 0.929 . S
O60 Mn36 2.385 . S
O60 C38 1.234 . S
O61 Mn36 2.209 . S
O61 Mn37 2.215 . S
O61 C38 1.283 . S
O62 Mn36 2.094 . S
O62 C40 1.240 . S
O63 Mn37 2.117 . S
O63 C40 1.264 . S
C64 C57 1.403 . S
C64 C65 1.399 . S
C64 H70 0.929 . S
C65 C45 1.449 . S
C65 C64 1.399 . S
C65 H71 0.930 . S
H66 C46 0.931 . S
H67 C47 0.930 . S
H68 C55 0.931 . S
H69 C56 0.929 . S
H70 C64 0.929 . S
H71 C65 0.930 . S
Mn72 O77 2.095 . S
Mn72 O87 2.162 . S
Mn72 O88 2.297 . S
Mn72 O96 2.385 . S
Mn72 O97 2.209 . S
Mn72 O98 2.094 . S
Mn73 O78 2.121 . S
Mn73 N80 2.257 . S
Mn73 N89 2.282 . S
Mn73 O97 2.215 . S
Mn73 O99 2.117 . S
C74 O96 1.234 . S
C74 O97 1.283 . S
C75 O87 1.281 . S
C75 O88 1.236 . S
C76 O98 1.240 . S
C76 O99 1.264 . S
O77 Mn72 2.095 . S
O77 C86 1.250 . S
O78 Mn73 2.121 . S
O78 C86 1.258 . S
C79 N80 1.326 . S
C79 C83 1.460 . S
C79 H85 0.929 . S
N80 Mn73 2.257 . S
N80 C79 1.326 . S
N80 C84 1.362 . S
C81 C82 1.258 . S
C81 C84 1.431 . S
C81 C101 1.449 . S
C82 C81 1.258 . S
C82 C83 1.477 . S
C82 H102 0.931 . S
C83 C79 1.460 . S
C83 C82 1.477 . S
C83 H103 0.930 . S
C84 N80 1.362 . S
C84 C81 1.431 . S
C84 C94 1.476 . S
H85 C79 0.929 . S
C86 O77 1.250 . S
C86 O78 1.258 . S
O87 Mn72 2.162 . S
O87 C75 1.281 . S
O88 Mn72 2.297 . S
O88 C75 1.236 . S
N89 Mn73 2.282 . S
N89 C90 1.328 . S
N89 C94 1.318 . S
C90 N89 1.328 . S
C90 C91 1.457 . S
C90 H95 0.929 . S
C91 C90 1.457 . S
C91 C92 1.291 . S
C91 H104 0.931 . S
C92 C91 1.291 . S
C92 C93 1.373 . S
C92 H105 0.929 . S
C93 C92 1.373 . S
C93 C94 1.396 . S
C93 C100 1.403 . S
C94 C84 1.476 . S
C94 N89 1.318 . S
C94 C93 1.396 . S
H95 C90 0.929 . S
O96 Mn72 2.385 . S
O96 C74 1.234 . S
O97 Mn72 2.209 . S
O97 Mn73 2.215 . S
O97 C74 1.283 . S
O98 Mn72 2.094 . S
O98 C76 1.240 . S
O99 Mn73 2.117 . S
O99 C76 1.264 . S
C100 C93 1.403 . S
C100 C101 1.399 . S
C100 H106 0.929 . S
C101 C81 1.449 . S
C101 C100 1.399 . S
C101 H107 0.930 . S
H102 C82 0.931 . S
H103 C83 0.930 . S
H104 C91 0.931 . S
H105 C92 0.929 . S
H106 C100 0.929 . S
H107 C101 0.930 . S
Mn108 O113 2.095 . S
Mn108 O123 2.162 . S
Mn108 O124 2.297 . S
Mn108 O132 2.385 . S
Mn108 O133 2.209 . S
Mn108 O134 2.094 . S
Mn109 O114 2.121 . S
Mn109 N116 2.257 . S
Mn109 N125 2.282 . S
Mn109 O133 2.215 . S
Mn109 O135 2.117 . S
C110 O132 1.234 . S
C110 O133 1.283 . S
C111 O123 1.281 . S
C111 O124 1.236 . S
C112 O134 1.240 . S
C112 O135 1.264 . S
O113 Mn108 2.095 . S
O113 C122 1.250 . S
O114 Mn109 2.121 . S
O114 C122 1.258 . S
C115 N116 1.326 . S
C115 C119 1.460 . S
C115 H121 0.929 . S
N116 Mn109 2.257 . S
N116 C115 1.326 . S
N116 C120 1.362 . S
C117 C118 1.258 . S
C117 C120 1.431 . S
C117 C137 1.449 . S
C118 C117 1.258 . S
C118 C119 1.477 . S
C118 H138 0.931 . S
C119 C115 1.460 . S
C119 C118 1.477 . S
C119 H139 0.930 . S
C120 N116 1.362 . S
C120 C117 1.431 . S
C120 C130 1.476 . S
H121 C115 0.929 . S
C122 O113 1.250 . S
C122 O114 1.258 . S
O123 Mn108 2.162 . S
O123 C111 1.281 . S
O124 Mn108 2.297 . S
O124 C111 1.236 . S
N125 Mn109 2.282 . S
N125 C126 1.328 . S
N125 C130 1.318 . S
C126 N125 1.328 . S
C126 C127 1.457 . S
C126 H131 0.929 . S
C127 C126 1.457 . S
C127 C128 1.291 . S
C127 H140 0.931 . S
C128 C127 1.291 . S
C128 C129 1.373 . S
C128 H141 0.929 . S
C129 C128 1.373 . S
C129 C130 1.396 . S
C129 C136 1.403 . S
C130 C120 1.476 . S
C130 N125 1.318 . S
C130 C129 1.396 . S
H131 C126 0.929 . S
O132 Mn108 2.385 . S
O132 C110 1.234 . S
O133 Mn108 2.209 . S
O133 Mn109 2.215 . S
O133 C110 1.283 . S
O134 Mn108 2.094 . S
O134 C112 1.240 . S
O135 Mn109 2.117 . S
O135 C112 1.264 . S
C136 C129 1.403 . S
C136 C137 1.399 . S
C136 H142 0.929 . S
C137 C117 1.449 . S
C137 C136 1.399 . S
C137 H143 0.930 . S
H138 C118 0.931 . S
H139 C119 0.930 . S
H140 C127 0.931 . S
H141 C128 0.929 . S
H142 C136 0.929 . S
H143 C137 0.930 . S
Mn144 O149 2.095 . S
Mn144 O159 2.162 . S
Mn144 O160 2.297 . S
Mn144 O168 2.385 . S
Mn144 O169 2.209 . S
Mn144 O170 2.094 . S
Mn145 O150 2.121 . S
Mn145 N152 2.257 . S
Mn145 N161 2.282 . S
Mn145 O169 2.215 . S
Mn145 O171 2.117 . S
C146 O168 1.234 . S
C146 O169 1.283 . S
C147 O159 1.281 . S
C147 O160 1.236 . S
C148 O170 1.240 . S
C148 O171 1.264 . S
O149 Mn144 2.095 . S
O149 C158 1.250 . S
O150 Mn145 2.121 . S
O150 C158 1.258 . S
C151 N152 1.326 . S
C151 C155 1.460 . S
C151 H157 0.929 . S
N152 Mn145 2.257 . S
N152 C151 1.326 . S
N152 C156 1.362 . S
C153 C154 1.258 . S
C153 C156 1.431 . S
C153 C173 1.449 . S
C154 C153 1.258 . S
C154 C155 1.477 . S
C154 H174 0.931 . S
C155 C151 1.460 . S
C155 C154 1.477 . S
C155 H175 0.930 . S
C156 N152 1.362 . S
C156 C153 1.431 . S
C156 C166 1.476 . S
H157 C151 0.929 . S
C158 O149 1.250 . S
C158 O150 1.258 . S
O159 Mn144 2.162 . S
O159 C147 1.281 . S
O160 Mn144 2.297 . S
O160 C147 1.236 . S
N161 Mn145 2.282 . S
N161 C162 1.328 . S
N161 C166 1.318 . S
C162 N161 1.328 . S
C162 C163 1.457 . S
C162 H167 0.929 . S
C163 C162 1.457 . S
C163 C164 1.291 . S
C163 H176 0.931 . S
C164 C163 1.291 . S
C164 C165 1.373 . S
C164 H177 0.929 . S
C165 C164 1.373 . S
C165 C166 1.396 . S
C165 C172 1.403 . S
C166 C156 1.476 . S
C166 N161 1.318 . S
C166 C165 1.396 . S
H167 C162 0.929 . S
O168 Mn144 2.385 . S
O168 C146 1.234 . S
O169 Mn144 2.209 . S
O169 Mn145 2.215 . S
O169 C146 1.283 . S
O170 Mn144 2.094 . S
O170 C148 1.240 . S
O171 Mn145 2.117 . S
O171 C148 1.264 . S
C172 C165 1.403 . S
C172 C173 1.399 . S
C172 H178 0.929 . S
C173 C153 1.449 . S
C173 C172 1.399 . S
C173 H179 0.930 . S
H174 C154 0.931 . S
H175 C155 0.930 . S
H176 C163 0.931 . S
H177 C164 0.929 . S
H178 C172 0.929 . S
H179 C173 0.930 . S
Mn180 O185 2.095 . S
Mn180 O195 2.162 . S
Mn180 O196 2.297 . S
Mn180 O204 2.385 . S
Mn180 O205 2.209 . S
Mn180 O206 2.094 . S
Mn181 O186 2.121 . S
Mn181 N188 2.257 . S
Mn181 N197 2.282 . S
Mn181 O205 2.215 . S
Mn181 O207 2.117 . S
C182 O204 1.234 . S
C182 O205 1.283 . S
C183 O195 1.281 . S
C183 O196 1.236 . S
C184 O206 1.240 . S
C184 O207 1.264 . S
O185 Mn180 2.095 . S
O185 C194 1.250 . S
O186 Mn181 2.121 . S
O186 C194 1.258 . S
C187 N188 1.326 . S
C187 C191 1.460 . S
C187 H193 0.929 . S
N188 Mn181 2.257 . S
N188 C187 1.326 . S
N188 C192 1.362 . S
C189 C190 1.258 . S
C189 C192 1.431 . S
C189 C209 1.449 . S
C190 C189 1.258 . S
C190 C191 1.477 . S
C190 H210 0.931 . S
C191 C187 1.460 . S
C191 C190 1.477 . S
C191 H211 0.930 . S
C192 N188 1.362 . S
C192 C189 1.431 . S
C192 C202 1.476 . S
H193 C187 0.929 . S
C194 O185 1.250 . S
C194 O186 1.258 . S
O195 Mn180 2.162 . S
O195 C183 1.281 . S
O196 Mn180 2.297 . S
O196 C183 1.236 . S
N197 Mn181 2.282 . S
N197 C198 1.328 . S
N197 C202 1.318 . S
C198 N197 1.328 . S
C198 C199 1.457 . S
C198 H203 0.929 . S
C199 C198 1.457 . S
C199 C200 1.291 . S
C199 H212 0.931 . S
C200 C199 1.291 . S
C200 C201 1.373 . S
C200 H213 0.929 . S
C201 C200 1.373 . S
C201 C202 1.396 . S
C201 C208 1.403 . S
C202 C192 1.476 . S
C202 N197 1.318 . S
C202 C201 1.396 . S
H203 C198 0.929 . S
O204 Mn180 2.385 . S
O204 C182 1.234 . S
O205 Mn180 2.209 . S
O205 Mn181 2.215 . S
O205 C182 1.283 . S
O206 Mn180 2.094 . S
O206 C184 1.240 . S
O207 Mn181 2.117 . S
O207 C184 1.264 . S
C208 C201 1.403 . S
C208 C209 1.399 . S
C208 H214 0.929 . S
C209 C189 1.449 . S
C209 C208 1.399 . S
C209 H215 0.930 . S
H210 C190 0.931 . S
H211 C191 0.930 . S
H212 C199 0.931 . S
H213 C200 0.929 . S
H214 C208 0.929 . S
H215 C209 0.930 . S
C216 C217 1.391 . S
C216 C218 1.394 . S
C216 H232 0.931 . S
C217 C216 1.391 . S
C217 C221 1.376 . S
C218 C216 1.394 . S
C218 C219 1.369 . S
C218 C222 1.531 . S
C219 C218 1.369 . S
C219 C220 1.410 . S
C219 C227 1.503 1_545 S
C220 C219 1.410 . S
C220 C221 1.392 . S
C220 C223 1.511 . S
C221 C217 1.376 . S
C221 C220 1.392 . S
C221 H233 0.929 . S
C222 C218 1.531 . S
C222 H234 0.960 1_545 S
C222 H235 0.962 1_545 S
C222 H236 0.960 . S
C223 C220 1.511 . S
C223 H237 0.961 . S
C223 H238 0.961 . S
C223 H239 0.961 . S
C224 C225 1.370 . S
C224 C226 1.363 . S
C224 H240 0.931 . S
C225 C224 1.370 . S
C225 C229 1.408 . S
C226 C224 1.363 . S
C226 C227 1.370 . S
C226 C230 1.524 . S
C227 C219 1.503 1_565 S
C227 C226 1.370 . S
C227 C228 1.403 . S
C228 C227 1.403 . S
C228 C229 1.404 . S
C228 C231 1.539 . S
C229 C225 1.408 . S
C229 C228 1.404 . S
C229 H241 0.930 . S
C230 C226 1.524 . S
C230 H242 0.956 . S
C230 H243 0.961 1_565 S
C230 H244 0.961 . S
C231 C228 1.539 . S
C231 H245 0.958 . S
C231 H246 0.961 . S
C231 H247 0.960 1_565 S
H232 C216 0.931 . S
H233 C221 0.929 . S
H234 C222 0.960 1_565 S
H235 C222 0.962 1_565 S
H236 C222 0.960 . S
H237 C223 0.961 . S
H238 C223 0.961 . S
H239 C223 0.961 . S
H240 C224 0.931 . S
H241 C229 0.930 . S
H242 C230 0.956 . S
H243 C230 0.961 1_545 S
H244 C230 0.961 . S
H245 C231 0.958 . S
H246 C231 0.961 . S
H247 C231 0.960 1_545 S
C248 C249 1.391 . S
C248 C250 1.394 . S
C248 H264 0.931 . S
C249 C248 1.391 . S
C249 C253 1.376 . S
C250 C248 1.394 . S
C250 C251 1.369 . S
C250 C254 1.531 . S
C251 C250 1.369 . S
C251 C252 1.410 . S
C251 C259 1.503 . S
C252 C251 1.410 . S
C252 C253 1.392 . S
C252 C255 1.511 . S
C253 C249 1.376 . S
C253 C252 1.392 . S
C253 H265 0.929 . S
C254 C250 1.531 . S
C254 H266 0.960 . S
C254 H267 0.962 . S
C254 H268 0.960 . S
C255 C252 1.511 . S
C255 H269 0.961 . S
C255 H270 0.961 . S
C255 H271 0.961 . S
C256 C257 1.370 . S
C256 C258 1.363 . S
C256 H272 0.931 . S
C257 C256 1.370 . S
C257 C261 1.408 . S
C258 C256 1.363 . S
C258 C259 1.370 . S
C258 C262 1.524 . S
C259 C251 1.503 . S
C259 C258 1.370 . S
C259 C260 1.403 . S
C260 C259 1.403 . S
C260 C261 1.404 . S
C260 C263 1.539 . S
C261 C257 1.408 . S
C261 C260 1.404 . S
C261 H273 0.930 . S
C262 C258 1.524 . S
C262 H274 0.956 . S
C262 H275 0.961 . S
C262 H276 0.961 . S
C263 C260 1.539 . S
C263 H277 0.958 . S
C263 H278 0.961 . S
C263 H279 0.960 . S
H264 C248 0.931 . S
H265 C253 0.929 . S
H266 C254 0.960 . S
H267 C254 0.962 . S
H268 C254 0.960 . S
H269 C255 0.961 . S
H270 C255 0.961 . S
H271 C255 0.961 . S
H272 C256 0.931 . S
H273 C261 0.930 . S
H274 C262 0.956 . S
H275 C262 0.961 . S
H276 C262 0.961 . S
H277 C263 0.958 . S
H278 C263 0.961 . S
H279 C263 0.960 . S
C280 C281 1.391 . S
C280 C282 1.394 . S
C280 H296 0.931 . S
C281 C280 1.391 . S
C281 C285 1.376 . S
C282 C280 1.394 . S
C282 C283 1.369 . S
C282 C286 1.531 . S
C283 C282 1.369 . S
C283 C284 1.410 . S
C283 C291 1.503 1_655 S
C284 C283 1.410 . S
C284 C285 1.392 . S
C284 C287 1.511 . S
C285 C281 1.376 . S
C285 C284 1.392 . S
C285 H297 0.929 . S
C286 C282 1.531 . S
C286 H298 0.960 . S
C286 H299 0.962 . S
C286 H300 0.960 . S
C287 C284 1.511 . S
C287 H301 0.961 . S
C287 H302 0.961 1_655 S
C287 H303 0.961 1_655 S
C288 C289 1.370 . S
C288 C290 1.363 . S
C288 H304 0.931 . S
C289 C288 1.370 . S
C289 C293 1.408 . S
C290 C288 1.363 . S
C290 C291 1.370 . S
C290 C294 1.524 . S
C291 C283 1.503 1_455 S
C291 C290 1.370 . S
C291 C292 1.403 . S
C292 C291 1.403 . S
C292 C293 1.404 . S
C292 C295 1.539 . S
C293 C289 1.408 . S
C293 C292 1.404 . S
C293 H305 0.930 . S
C294 C290 1.524 . S
C294 H306 0.956 1_455 S
C294 H307 0.961 1_455 S
C294 H308 0.961 . S
C295 C292 1.539 . S
C295 H309 0.958 . S
C295 H310 0.961 . S
C295 H311 0.960 . S
H296 C280 0.931 . S
H297 C285 0.929 . S
H298 C286 0.960 . S
H299 C286 0.962 . S
H300 C286 0.960 . S
H301 C287 0.961 . S
H302 C287 0.961 1_455 S
H303 C287 0.961 1_455 S
H304 C288 0.931 . S
H305 C293 0.930 . S
H306 C294 0.956 1_655 S
H307 C294 0.961 1_655 S
H308 C294 0.961 . S
H309 C295 0.958 . S
H310 C295 0.961 . S
H311 C295 0.960 . S
C312 C313 1.391 . S
C312 C314 1.394 . S
C312 H328 0.931 . S
C313 C312 1.391 . S
C313 C317 1.376 . S
C314 C312 1.394 . S
C314 C315 1.369 . S
C314 C318 1.531 . S
C315 C314 1.369 . S
C315 C316 1.410 . S
C315 C323 1.503 1_455 S
C316 C315 1.410 . S
C316 C317 1.392 . S
C316 C319 1.511 . S
C317 C313 1.376 . S
C317 C316 1.392 . S
C317 H329 0.929 . S
C318 C314 1.531 . S
C318 H330 0.960 1_455 S
C318 H331 0.962 1_455 S
C318 H332 0.960 . S
C319 C316 1.511 . S
C319 H333 0.961 . S
C319 H334 0.961 . S
C319 H335 0.961 . S
C320 C321 1.370 . S
C320 C322 1.363 . S
C320 H336 0.931 . S
C321 C320 1.370 . S
C321 C325 1.408 . S
C322 C320 1.363 . S
C322 C323 1.370 . S
C322 C326 1.524 . S
C323 C315 1.503 1_655 S
C323 C322 1.370 . S
C323 C324 1.403 . S
C324 C323 1.403 . S
C324 C325 1.404 . S
C324 C327 1.539 . S
C325 C321 1.408 . S
C325 C324 1.404 . S
C325 H337 0.930 . S
C326 C322 1.524 . S
C326 H338 0.956 . S
C326 H339 0.958 1_655 S
C326 H340 0.961 . S
C327 C324 1.539 . S
C327 H341 0.958 . S
C327 H342 0.961 . S
C327 H343 0.960 1_655 S
H328 C312 0.931 . S
H329 C317 0.929 . S
H330 C318 0.960 1_655 S
H331 C318 0.962 1_655 S
H332 C318 0.960 . S
H333 C319 0.961 . S
H334 C319 0.961 . S
H335 C319 0.961 . S
H336 C320 0.931 . S
H337 C325 0.930 . S
H338 C326 0.956 . S
H339 C326 0.958 1_455 S
H340 C326 0.961 . S
H341 C327 0.958 . S
H342 C327 0.961 . S
H343 C327 0.960 1_455 S
C344 C345 1.391 . S
C344 C346 1.394 . S
C344 H360 0.931 . S
C345 C344 1.391 . S
C345 C349 1.376 . S
C346 C344 1.394 . S
C346 C347 1.369 . S
C346 C350 1.531 . S
C347 C346 1.369 . S
C347 C348 1.410 . S
C347 C355 1.503 1_565 S
C348 C347 1.410 . S
C348 C349 1.392 . S
C348 C351 1.511 . S
C349 C345 1.376 . S
C349 C348 1.392 . S
C349 H361 0.929 . S
C350 C346 1.531 . S
C350 H362 0.960 1_565 S
C350 H363 0.962 1_565 S
C350 H364 0.960 . S
C351 C348 1.511 . S
C351 H365 0.961 . S
C351 H366 0.961 . S
C351 H367 0.961 . S
C352 C353 1.370 . S
C352 C354 1.363 . S
C352 H368 0.931 . S
C353 C352 1.370 . S
C353 C357 1.408 . S
C354 C352 1.363 . S
C354 C355 1.370 . S
C354 C358 1.524 . S
C355 C347 1.503 1_545 S
C355 C354 1.370 . S
C355 C356 1.403 . S
C356 C355 1.403 . S
C356 C357 1.404 . S
C356 C359 1.539 . S
C357 C353 1.408 . S
C357 C356 1.404 . S
C357 H369 0.930 . S
C358 C354 1.524 . S
C358 H370 0.956 . S
C358 H371 0.961 1_545 S
C358 H372 0.961 . S
C359 C356 1.539 . S
C359 H373 0.958 . S
C359 H374 0.961 . S
C359 H375 0.960 1_545 S
H360 C344 0.931 . S
H361 C349 0.929 . S
H362 C350 0.960 1_545 S
H363 C350 0.962 1_545 S
H364 C350 0.960 . S
H365 C351 0.961 . S
H366 C351 0.961 . S
H367 C351 0.961 . S
H368 C352 0.931 . S
H369 C357 0.930 . S
H370 C358 0.956 . S
H371 C358 0.961 1_565 S
H372 C358 0.961 . S
H373 C359 0.958 . S
H374 C359 0.961 . S
H375 C359 0.960 1_565 S
C376 C377 1.391 . S
C376 C378 1.394 . S
C376 H392 0.931 . S
C377 C376 1.391 . S
C377 C381 1.376 . S
C378 C376 1.394 . S
C378 C379 1.369 . S
C378 C382 1.531 . S
C379 C378 1.369 . S
C379 C380 1.410 . S
C379 C387 1.503 . S
C380 C379 1.410 . S
C380 C381 1.392 . S
C380 C383 1.511 . S
C381 C377 1.376 . S
C381 C380 1.392 . S
C381 H393 0.929 . S
C382 C378 1.531 . S
C382 H394 0.960 . S
C382 H395 0.962 . S
C382 H396 0.960 . S
C383 C380 1.511 . S
C383 H397 0.961 . S
C383 H398 0.961 . S
C383 H399 0.961 . S
C384 C385 1.370 . S
C384 C386 1.363 . S
C384 H400 0.931 . S
C385 C384 1.370 . S
C385 C389 1.408 . S
C386 C384 1.363 . S
C386 C387 1.370 . S
C386 C390 1.524 . S
C387 C379 1.503 . S
C387 C386 1.370 . S
C387 C388 1.403 . S
C388 C387 1.403 . S
C388 C389 1.404 . S
C388 C391 1.539 . S
C389 C385 1.408 . S
C389 C388 1.404 . S
C389 H401 0.930 . S
C390 C386 1.524 . S
C390 H402 0.956 . S
C390 H403 0.961 . S
C390 H404 0.961 . S
C391 C388 1.539 . S
C391 H405 0.958 . S
C391 H406 0.961 . S
C391 H407 0.960 . S
H392 C376 0.931 . S
H393 C381 0.929 . S
H394 C382 0.960 . S
H395 C382 0.962 . S
H396 C382 0.960 . S
H397 C383 0.961 . S
H398 C383 0.961 . S
H399 C383 0.961 . S
H400 C384 0.931 . S
H401 C389 0.930 . S
H402 C390 0.956 . S
H403 C390 0.961 . S
H404 C390 0.961 . S
H405 C391 0.958 . S
H406 C391 0.961 . S
H407 C391 0.960 . S
C408 C409 1.391 . S
C408 C410 1.394 . S
C408 H424 0.931 . S
C409 C408 1.391 . S
C409 C413 1.376 . S
C410 C408 1.394 . S
C410 C411 1.369 . S
C410 C414 1.531 . S
C411 C410 1.369 . S
C411 C412 1.410 . S
C411 C419 1.503 1_556 S
C412 C411 1.410 . S
C412 C413 1.392 . S
C412 C415 1.511 . S
C413 C409 1.376 . S
C413 C412 1.392 . S
C413 H425 0.929 . S
C414 C410 1.531 . S
C414 H426 0.960 1_556 S
C414 H427 0.962 . S
C414 H428 0.960 . S
C415 C412 1.511 . S
C415 H429 0.961 . S
C415 H430 0.961 1_556 S
C415 H431 0.961 . S
C416 C417 1.370 . S
C416 C418 1.363 . S
C416 H432 0.931 . S
C417 C416 1.370 . S
C417 C421 1.408 . S
C418 C416 1.363 . S
C418 C419 1.370 . S
C418 C422 1.524 . S
C419 C411 1.503 1_554 S
C419 C418 1.370 . S
C419 C420 1.403 . S
C420 C419 1.403 . S
C420 C421 1.404 . S
C420 C423 1.539 . S
C421 C417 1.408 . S
C421 C420 1.404 . S
C421 H433 0.930 . S
C422 C418 1.524 . S
C422 H434 0.956 . S
C422 H435 0.956 1_554 S
C422 H436 0.961 . S
C423 C420 1.539 . S
C423 H437 0.958 . S
C423 H438 0.961 . S
C423 H439 0.960 1_554 S
H424 C408 0.931 . S
H425 C413 0.929 . S
H426 C414 0.960 1_554 S
H427 C414 0.962 . S
H428 C414 0.960 . S
H429 C415 0.961 . S
H430 C415 0.961 1_554 S
H431 C415 0.961 . S
H432 C416 0.931 . S
H433 C421 0.930 . S
H434 C422 0.956 . S
H435 C422 0.956 1_556 S
H436 C422 0.961 . S
H437 C423 0.958 . S
H438 C423 0.961 . S
H439 C423 0.960 1_556 S
C440 C441 1.391 . S
C440 C442 1.394 . S
C440 H456 0.931 . S
C441 C440 1.391 . S
C441 C445 1.376 . S
C442 C440 1.394 . S
C442 C443 1.369 . S
C442 C446 1.531 . S
C443 C442 1.369 . S
C443 C444 1.410 . S
C443 C451 1.503 . S
C444 C443 1.410 . S
C444 C445 1.392 . S
C444 C447 1.511 . S
C445 C441 1.376 . S
C445 C444 1.392 . S
C445 H457 0.929 . S
C446 C442 1.531 . S
C446 H458 0.960 . S
C446 H459 0.962 . S
C446 H460 0.960 . S
C447 C444 1.511 . S
C447 H461 0.961 . S
C447 H462 0.961 . S
C447 H463 0.961 . S
C448 C449 1.370 . S
C448 C450 1.363 . S
C448 H464 0.931 . S
C449 C448 1.370 . S
C449 C453 1.408 . S
C450 C448 1.363 . S
C450 C451 1.370 . S
C450 C454 1.524 . S
C451 C443 1.503 . S
C451 C450 1.370 . S
C451 C452 1.403 . S
C452 C451 1.403 . S
C452 C453 1.404 . S
C452 C455 1.539 . S
C453 C449 1.408 . S
C453 C452 1.404 . S
C453 H465 0.930 . S
C454 C450 1.524 . S
C454 H466 0.956 . S
C454 H467 0.961 . S
C454 H468 0.961 . S
C455 C452 1.539 . S
C455 H469 0.958 . S
C455 H470 0.961 . S
C455 H471 0.960 . S
H456 C440 0.931 . S
H457 C445 0.929 . S
H458 C446 0.960 . S
H459 C446 0.962 . S
H460 C446 0.960 . S
H461 C447 0.961 . S
H462 C447 0.961 . S
H463 C447 0.961 . S
H464 C448 0.931 . S
H465 C453 0.930 . S
H466 C454 0.956 . S
H467 C454 0.961 . S
H468 C454 0.961 . S
H469 C455 0.958 . S
H470 C455 0.961 . S
H471 C455 0.960 . S
C472 C473 1.391 . S
C472 C474 1.394 . S
C472 H488 0.931 . S
C473 C472 1.391 . S
C473 C477 1.376 . S
C474 C472 1.394 . S
C474 C475 1.369 . S
C474 C478 1.531 . S
C475 C474 1.369 . S
C475 C476 1.410 . S
C475 C483 1.503 . S
C476 C475 1.410 . S
C476 C477 1.392 . S
C476 C479 1.511 . S
C477 C473 1.376 . S
C477 C476 1.392 . S
C477 H489 0.929 . S
C478 C474 1.531 . S
C478 H490 0.960 . S
C478 H491 0.962 . S
C478 H492 0.960 . S
C479 C476 1.511 . S
C479 H493 0.961 . S
C479 H494 0.961 . S
C479 H495 0.961 . S
C480 C481 1.370 . S
C480 C482 1.363 . S
C480 H496 0.931 . S
C481 C480 1.370 . S
C481 C485 1.408 . S
C482 C480 1.363 . S
C482 C483 1.370 . S
C482 C486 1.524 . S
C483 C475 1.503 . S
C483 C482 1.370 . S
C483 C484 1.403 . S
C484 C483 1.403 . S
C484 C485 1.404 . S
C484 C487 1.539 . S
C485 C481 1.408 . S
C485 C484 1.404 . S
C485 H497 0.930 . S
C486 C482 1.524 . S
C486 H498 0.956 . S
C486 H499 0.961 . S
C486 H500 0.961 . S
C487 C484 1.539 . S
C487 H501 0.958 . S
C487 H502 0.961 . S
C487 H503 0.960 . S
H488 C472 0.931 . S
H489 C477 0.929 . S
H490 C478 0.960 . S
H491 C478 0.962 . S
H492 C478 0.960 . S
H493 C479 0.961 . S
H494 C479 0.961 . S
H495 C479 0.961 . S
H496 C480 0.931 . S
H497 C485 0.930 . S
H498 C486 0.956 . S
H499 C486 0.961 . S
H500 C486 0.961 . S
H501 C487 0.958 . S
H502 C487 0.961 . S
H503 C487 0.960 . S
C504 C505 1.391 . S
C504 C506 1.394 . S
C504 H520 0.931 . S
C505 C504 1.391 . S
C505 C509 1.376 . S
C506 C504 1.394 . S
C506 C507 1.369 . S
C506 C510 1.531 . S
C507 C506 1.369 . S
C507 C508 1.410 . S
C507 C515 1.503 1_556 S
C508 C507 1.410 . S
C508 C509 1.392 . S
C508 C511 1.511 . S
C509 C505 1.376 . S
C509 C508 1.392 . S
C509 H521 0.929 . S
C510 C506 1.531 . S
C510 H522 0.960 1_556 S
C510 H523 0.962 . S
C510 H524 0.960 . S
C511 C508 1.511 . S
C511 H525 0.961 . S
C511 H526 0.961 1_556 S
C511 H527 0.961 . S
C512 C513 1.370 . S
C512 C514 1.363 . S
C512 H528 0.931 . S
C513 C512 1.370 . S
C513 C517 1.408 . S
C514 C512 1.363 . S
C514 C515 1.370 . S
C514 C518 1.524 . S
C515 C507 1.503 1_554 S
C515 C514 1.370 . S
C515 C516 1.403 . S
C516 C515 1.403 . S
C516 C517 1.404 . S
C516 C519 1.539 . S
C517 C513 1.408 . S
C517 C516 1.404 . S
C517 H529 0.930 . S
C518 C514 1.524 . S
C518 H530 0.952 1_554 S
C518 H531 0.961 1_554 S
C518 H532 0.961 . S
C519 C516 1.539 . S
C519 H533 0.958 . S
C519 H534 0.961 . S
C519 H535 0.960 . S
H520 C504 0.931 . S
H521 C509 0.929 . S
H522 C510 0.960 1_554 S
H523 C510 0.962 . S
H524 C510 0.960 . S
H525 C511 0.961 . S
H526 C511 0.961 1_554 S
H527 C511 0.961 . S
H528 C512 0.931 . S
H529 C517 0.930 . S
H530 C518 0.952 1_556 S
H531 C518 0.961 1_556 S
H532 C518 0.961 . S
H533 C519 0.958 . S
H534 C519 0.961 . S
H535 C519 0.960 . S
C536 C537 1.391 . S
C536 C538 1.394 . S
C536 H552 0.931 . S
C537 C536 1.391 . S
C537 C541 1.376 . S
C538 C536 1.394 . S
C538 C539 1.369 . S
C538 C542 1.531 . S
C539 C538 1.369 . S
C539 C540 1.410 . S
C539 C547 1.503 . S
C540 C539 1.410 . S
C540 C541 1.392 . S
C540 C543 1.511 . S
C541 C537 1.376 . S
C541 C540 1.392 . S
C541 H553 0.929 . S
C542 C538 1.531 . S
C542 H554 0.960 . S
C542 H555 0.962 . S
C542 H556 0.960 . S
C543 C540 1.511 . S
C543 H557 0.961 . S
C543 H558 0.961 . S
C543 H559 0.961 . S
C544 C545 1.370 . S
C544 C546 1.363 . S
C544 H560 0.931 . S
C545 C544 1.370 . S
C545 C549 1.408 . S
C546 C544 1.363 . S
C546 C547 1.370 . S
C546 C550 1.524 . S
C547 C539 1.503 . S
C547 C546 1.370 . S
C547 C548 1.403 . S
C548 C547 1.403 . S
C548 C549 1.404 . S
C548 C551 1.539 . S
C549 C545 1.408 . S
C549 C548 1.404 . S
C549 H561 0.930 . S
C550 C546 1.524 . S
C550 H562 0.956 . S
C550 H563 0.961 . S
C550 H564 0.961 . S
C551 C548 1.539 . S
C551 H565 0.958 . S
C551 H566 0.961 . S
C551 H567 0.960 . S
H552 C536 0.931 . S
H553 C541 0.929 . S
H554 C542 0.960 . S
H555 C542 0.962 . S
H556 C542 0.960 . S
H557 C543 0.961 . S
H558 C543 0.961 . S
H559 C543 0.961 . S
H560 C544 0.931 . S
H561 C549 0.930 . S
H562 C550 0.956 . S
H563 C550 0.961 . S
H564 C550 0.961 . S
H565 C551 0.958 . S
H566 C551 0.961 . S
H567 C551 0.960 . S
C568 C569 1.391 . S
C568 C570 1.394 . S
C568 H584 0.931 . S
C569 C568 1.391 . S
C569 C573 1.376 . S
C570 C568 1.394 . S
C570 C571 1.369 . S
C570 C574 1.531 . S
C571 C570 1.369 . S
C571 C572 1.410 . S
C571 C579 1.503 . S
C572 C571 1.410 . S
C572 C573 1.392 . S
C572 C575 1.511 . S
C573 C569 1.376 . S
C573 C572 1.392 . S
C573 H585 0.929 . S
C574 C570 1.531 . S
C574 H586 0.960 . S
C574 H587 0.962 . S
C574 H588 0.960 . S
C575 C572 1.511 . S
C575 H589 0.961 . S
C575 H590 0.961 . S
C575 H591 0.961 . S
C576 C577 1.370 . S
C576 C578 1.363 . S
C576 H592 0.931 . S
C577 C576 1.370 . S
C577 C581 1.408 . S
C578 C576 1.363 . S
C578 C579 1.370 . S
C578 C582 1.524 . S
C579 C571 1.503 . S
C579 C578 1.370 . S
C579 C580 1.403 . S
C580 C579 1.403 . S
C580 C581 1.404 . S
C580 C583 1.539 . S
C581 C577 1.408 . S
C581 C580 1.404 . S
C581 H593 0.930 . S
C582 C578 1.524 . S
C582 H594 0.956 . S
C582 H595 0.961 . S
C582 H596 0.961 . S
C583 C580 1.539 . S
C583 H597 0.958 . S
C583 H598 0.961 . S
C583 H599 0.960 . S
H584 C568 0.931 . S
H585 C573 0.929 . S
H586 C574 0.960 . S
H587 C574 0.962 . S
H588 C574 0.960 . S
H589 C575 0.961 . S
H590 C575 0.961 . S
H591 C575 0.961 . S
H592 C576 0.931 . S
H593 C581 0.930 . S
H594 C582 0.956 . S
H595 C582 0.961 . S
H596 C582 0.961 . S
H597 C583 0.958 . S
H598 C583 0.961 . S
H599 C583 0.960 . S
C217 C3 1.438 . S
C225 C111 1.443 . S
C249 C39 1.430 . S
C257 C147 1.425 . S
C281 C76 1.423 . S
C289 C184 1.412 . S
C313 C40 1.392 . S
C321 C148 1.409 . S
C345 C183 1.426 . S
C353 C75 1.428 . S
C377 C112 1.412 . S
C385 C4 1.420 . S
C409 C74 1.095 . S
C417 C2 1.159 . S
C441 C122 1.239 . S
C449 C38 1.188 . S
C473 C86 1.272 . S
C481 C158 1.255 . S
C505 C182 1.198 . S
C513 C110 1.130 . S
C537 C146 1.201 . S
C545 C14 1.212 . S
C569 C194 1.212 . S
C577 C50 1.232 . S
