# Generated by pormake.
# Topology qtz-a, (4)-cn, num edge types: 1
# Building blocks:
#     Node 0, Type 0, BuildingBlock: AZAVOO_clean_sbu_0, # of connection points: 4
#     Node 1, Type 0, BuildingBlock: AZAVOO_clean_sbu_0, # of connection points: 4
#     Node 2, Type 0, BuildingBlock: AZAVOO_clean_sbu_0, # of connection points: 4
#     Node 3, Type 0, BuildingBlock: AZAVOO_clean_sbu_0, # of connection points: 4
#     Node 4, Type 0, BuildingBlock: AZAVOO_clean_sbu_0, # of connection points: 4
#     Node 5, Type 0, BuildingBlock: AZAVOO_clean_sbu_0, # of connection points: 4
#     Node 6, Type 0, BuildingBlock: AZAVOO_clean_sbu_0, # of connection points: 4
#     Node 7, Type 0, BuildingBlock: AZAVOO_clean_sbu_0, # of connection points: 4
#     Node 8, Type 0, BuildingBlock: AZAVOO_clean_sbu_0, # of connection points: 4
#     Node 9, Type 0, BuildingBlock: AZAVOO_clean_sbu_0, # of connection points: 4
#     Node 10, Type 0, BuildingBlock: AZAVOO_clean_sbu_0, # of connection points: 4
#     Node 11, Type 0, BuildingBlock: AZAVOO_clean_sbu_0, # of connection points: 4
#     Edge 12, Type (0, 0), BuildingBlock: OJICUG_clean_linker_0, # of connection points: 2
#     Edge 13, Type (0, 0), BuildingBlock: OJICUG_clean_linker_0, # of connection points: 2
#     Edge 14, Type (0, 0), BuildingBlock: OJICUG_clean_linker_0, # of connection points: 2
#     Edge 15, Type (0, 0), BuildingBlock: OJICUG_clean_linker_0, # of connection points: 2
#     Edge 16, Type (0, 0), BuildingBlock: OJICUG_clean_linker_0, # of connection points: 2
#     Edge 17, Type (0, 0), BuildingBlock: OJICUG_clean_linker_0, # of connection points: 2
#     Edge 18, Type (0, 0), BuildingBlock: OJICUG_clean_linker_0, # of connection points: 2
#     Edge 19, Type (0, 0), BuildingBlock: OJICUG_clean_linker_0, # of connection points: 2
#     Edge 20, Type (0, 0), BuildingBlock: OJICUG_clean_linker_0, # of connection points: 2
#     Edge 21, Type (0, 0), BuildingBlock: OJICUG_clean_linker_0, # of connection points: 2
#     Edge 22, Type (0, 0), BuildingBlock: OJICUG_clean_linker_0, # of connection points: 2
#     Edge 23, Type (0, 0), BuildingBlock: OJICUG_clean_linker_0, # of connection points: 2
#     Edge 24, Type (0, 0), BuildingBlock: OJICUG_clean_linker_0, # of connection points: 2
#     Edge 25, Type (0, 0), BuildingBlock: OJICUG_clean_linker_0, # of connection points: 2
#     Edge 26, Type (0, 0), BuildingBlock: OJICUG_clean_linker_0, # of connection points: 2
#     Edge 27, Type (0, 0), BuildingBlock: OJICUG_clean_linker_0, # of connection points: 2
#     Edge 28, Type (0, 0), BuildingBlock: OJICUG_clean_linker_0, # of connection points: 2
#     Edge 29, Type (0, 0), BuildingBlock: OJICUG_clean_linker_0, # of connection points: 2
#     Edge 30, Type (0, 0), BuildingBlock: OJICUG_clean_linker_0, # of connection points: 2
#     Edge 31, Type (0, 0), BuildingBlock: OJICUG_clean_linker_0, # of connection points: 2
#     Edge 32, Type (0, 0), BuildingBlock: OJICUG_clean_linker_0, # of connection points: 2
#     Edge 33, Type (0, 0), BuildingBlock: OJICUG_clean_linker_0, # of connection points: 2
#     Edge 34, Type (0, 0), BuildingBlock: OJICUG_clean_linker_0, # of connection points: 2
#     Edge 35, Type (0, 0), BuildingBlock: OJICUG_clean_linker_0, # of connection points: 2
# Relax obj value: 0.785
# Max RMSD: 0.301
# Mean RMSD: 0.301
data_MOF--net-qtz-a--node1-AZAVOO_clean_sbu_0--edge1-OJICUG_clean_linker_0
_symmetry_space_group_name_H-M    P1
_symmetry_Int_Tables_number       1
_symmetry_cell_setting            triclinic
loop_
_symmetry_equiv_pos_as_xyz
'x, y, z'
_cell_length_a     28.158781
_cell_length_b     28.122811
_cell_length_c     36.447644
_cell_angle_alpha  89.978407
_cell_angle_beta   89.990185
_cell_angle_gamma 97.266531
loop_
_atom_site_label
_atom_site_type_symbol
_atom_site_fract_x
_atom_site_fract_y
_atom_site_fract_z
_atom_type_partial_charge
Mg0 Mg 0.45134 0.13499 0.12211 0.0
O1 O 0.48825 0.10243 0.07298 0.0
O2 O 0.4621 0.02391 0.07232 0.0
Mg3 Mg 0.4039 0.00735 0.11627 0.0
C4 C 0.48833 0.06051 0.05956 0.0
C5 C 0.49026 0.2472 0.12015 0.0
O6 O 0.50119 0.28896 0.10412 0.0
O7 O 0.38417 0.13424 0.08658 0.0
O8 O 0.35904 0.05573 0.08485 0.0
O9 O 0.50761 0.11051 0.15909 0.0
O10 O 0.43821 0.06787 0.14793 0.0
C11 C 0.35446 0.09879 0.07587 0.0
C12 C 0.48011 0.07028 0.16211 0.0
O13 O 0.4797 0.20992 0.10056 0.0
Mg14 Mg 0.3056 0.47911 0.43888 0.0
O15 O 0.2971 0.552 0.40936 0.0
O16 O 0.33327 0.54994 0.35444 0.0
Mg17 Mg 0.34006 0.47327 0.34277 0.0
C18 C 0.31368 0.57238 0.37957 0.0
C19 C 0.25223 0.46194 0.51069 0.0
O20 O 0.25581 0.41851 0.49862 0.0
O21 O 0.23998 0.43359 0.41357 0.0
O22 O 0.26274 0.465 0.36225 0.0
O23 O 0.37662 0.51304 0.45296 0.0
O24 O 0.3639 0.47009 0.40187 0.0
C25 C 0.2494 0.42714 0.38011 0.0
C26 C 0.39264 0.49856 0.42225 0.0
O27 O 0.26455 0.49727 0.48952 0.0
Mg28 Mg 0.98368 0.30879 0.90965 0.0
O29 O 0.96183 0.35596 0.86205 0.0
O30 O 0.017 0.42049 0.86017 0.0
Mg31 Mg 0.07607 0.41273 0.90227 0.0
C32 C 0.97862 0.3964 0.8484 0.0
C33 C 0.90267 0.22183 0.9134 0.0
O34 O 0.91245 0.22734 0.94851 0.0
O35 O 0.0393 0.28287 0.87098 0.0
O36 O 0.09319 0.34832 0.86935 0.0
O37 O 0.94714 0.35379 0.94934 0.0
O38 O 0.02355 0.36773 0.93495 0.0
C39 C 0.079 0.30525 0.85967 0.0
C40 C 0.98727 0.38184 0.95101 0.0
O41 O 0.92614 0.24955 0.8904 0.0
Mg42 Mg 0.56978 0.82408 0.11311 0.0
O43 O 0.52295 0.8532 0.06779 0.0
O44 O 0.55141 0.93088 0.06236 0.0
Mg45 Mg 0.61658 0.95041 0.09951 0.0
C46 C 0.52193 0.89454 0.0534 0.0
C47 C 0.52584 0.71962 0.12886 0.0
O48 O 0.50277 0.67659 0.12363 0.0
O49 O 0.62878 0.82111 0.07018 0.0
O50 O 0.65506 0.8992 0.06548 0.0
O51 O 0.52166 0.85038 0.15597 0.0
O52 O 0.58753 0.89237 0.13536 0.0
C53 C 0.65728 0.85565 0.05655 0.0
C54 C 0.54947 0.89067 0.15492 0.0
O55 O 0.53719 0.74678 0.10143 0.0
Mg56 Mg 0.68112 0.57027 0.44266 0.0
O57 O 0.69166 0.52329 0.39075 0.0
O58 O 0.64902 0.5519 0.34534 0.0
Mg59 Mg 0.63651 0.62607 0.36162 0.0
C60 C 0.67263 0.51995 0.35858 0.0
C61 C 0.74436 0.5585 0.50715 0.0
O62 O 0.74087 0.60461 0.50557 0.0
O63 O 0.74199 0.6315 0.43059 0.0
O64 O 0.71538 0.6307 0.3758 0.0
O65 O 0.61287 0.52435 0.44839 0.0
O66 O 0.61893 0.59262 0.41695 0.0
C67 C 0.73015 0.65546 0.40342 0.0
C68 C 0.59348 0.55302 0.42698 0.0
O69 O 0.72817 0.53216 0.48047 0.0
Mg70 Mg 0.00305 0.6576 0.90936 0.0
O71 O 0.02883 0.61111 0.86277 0.0
O72 O 0.97479 0.5458 0.85925 0.0
Mg73 Mg 0.91271 0.55248 0.8989 0.0
C74 C 0.01357 0.57044 0.84878 0.0
C75 C 0.08593 0.74201 0.91661 0.0
O76 O 0.07765 0.73195 0.95141 0.0
O77 O 0.94938 0.68282 0.86858 0.0
O78 O 0.89661 0.61664 0.86521 0.0
O79 O 0.03767 0.6129 0.95056 0.0
O80 O 0.96235 0.59818 0.93328 0.0
C81 C 0.91069 0.6599 0.85595 0.0
C82 C 0.99772 0.58447 0.95081 0.0
O83 O 0.06088 0.71791 0.89238 0.0
Mg84 Mg 0.84894 0.5394 0.66225 0.0
O85 O 0.88055 0.49702 0.70853 0.0
O86 O 0.95769 0.52662 0.71362 0.0
Mg87 Mg 0.97463 0.58912 0.67314 0.0
C88 C 0.92159 0.49734 0.72337 0.0
C89 C 0.74394 0.4895 0.65487 0.0
O90 O 0.70393 0.46362 0.66491 0.0
O91 O 0.84589 0.60119 0.70293 0.0
O92 O 0.9236 0.62947 0.70595 0.0
O93 O 0.87472 0.48971 0.62079 0.0
O94 O 0.916 0.5578 0.63825 0.0
C95 C 0.8801 0.63139 0.71507 0.0
C96 C 0.91459 0.51824 0.62044 0.0
O97 O 0.77556 0.50259 0.67892 0.0
Mg98 Mg 0.32103 0.9743 0.8809 0.0
O99 O 0.37086 0.94717 0.92482 0.0
O100 O 0.43516 0.0025 0.92802 0.0
Mg101 Mg 0.42563 0.06546 0.8898 0.0
C102 C 0.41192 0.96273 0.938 0.0
C103 C 0.23677 0.89156 0.87433 0.0
O104 O 0.24567 0.90092 0.8395 0.0
O105 O 0.29768 0.02631 0.92375 0.0
O106 O 0.36297 0.08036 0.92571 0.0
O107 O 0.36293 0.94159 0.83701 0.0
O108 O 0.37855 0.01632 0.85585 0.0
C109 C 0.32044 0.06524 0.93612 0.0
C110 C 0.39116 0.98171 0.83674 0.0
O111 O 0.26186 0.91571 0.89851 0.0
Mg112 Mg 0.48537 0.34875 0.27201 0.0
O113 O 0.56581 0.3537 0.26237 0.0
O114 O 0.55211 0.33542 0.31959 0.0
Mg115 Mg 0.52129 0.38667 0.35874 0.0
C116 C 0.58183 0.3525 0.2951 0.0
C117 C 0.48918 0.23672 0.27788 0.0
O118 O 0.49378 0.19585 0.29413 0.0
O119 O 0.41277 0.34584 0.29734 0.0
O120 O 0.44042 0.35434 0.35513 0.0
O121 O 0.48172 0.42578 0.2499 0.0
O122 O 0.50278 0.4156 0.30544 0.0
C123 C 0.4058 0.3455 0.33209 0.0
C124 C 0.49363 0.44489 0.28071 0.0
O125 O 0.48631 0.27373 0.29737 0.0
Mg126 Mg 0.15588 0.42718 0.66893 0.0
O127 O 0.12143 0.46942 0.71395 0.0
O128 O 0.04348 0.44191 0.71483 0.0
Mg129 Mg 0.02889 0.37979 0.67376 0.0
C130 C 0.07927 0.47013 0.72654 0.0
C131 C 0.25921 0.48233 0.66742 0.0
O132 O 0.29853 0.5065 0.6805 0.0
O133 O 0.15443 0.36442 0.70924 0.0
O134 O 0.07619 0.33802 0.70903 0.0
O135 O 0.13405 0.47854 0.62681 0.0
O136 O 0.09072 0.41048 0.64178 0.0
C137 C 0.11878 0.33494 0.71997 0.0
C138 C 0.09405 0.45045 0.62435 0.0
O139 O 0.2283 0.46173 0.68953 0.0
Mg140 Mg 0.66687 0.99304 0.8688 0.0
O141 O 0.62176 0.01481 0.91773 0.0
O142 O 0.55632 0.96083 0.92069 0.0
Mg143 Mg 0.56202 0.90214 0.87768 0.0
C144 C 0.58157 0.99879 0.93213 0.0
C145 C 0.75083 0.07721 0.86468 0.0
O146 O 0.73904 0.07368 0.82981 0.0
O147 O 0.69338 0.93571 0.90547 0.0
O148 O 0.6274 0.88267 0.90843 0.0
O149 O 0.62128 0.03135 0.83086 0.0
O150 O 0.60671 0.95456 0.84446 0.0
C151 C 0.6711 0.89594 0.91677 0.0
C152 C 0.59268 0.99153 0.82927 0.0
O153 O 0.7279 0.04896 0.88761 0.0
Mg154 Mg 0.52374 0.73764 0.32207 0.0
O155 O 0.44496 0.74999 0.33249 0.0
O156 O 0.45908 0.73963 0.38944 0.0
Mg157 Mg 0.47571 0.66425 0.39663 0.0
C158 C 0.42847 0.74283 0.36466 0.0
C159 C 0.54779 0.82423 0.26278 0.0
O160 O 0.55952 0.86992 0.25537 0.0
O161 O 0.55819 0.76743 0.37659 0.0
O162 O 0.5479 0.70202 0.4121 0.0
O163 O 0.49709 0.67834 0.28178 0.0
O164 O 0.50911 0.66541 0.34014 0.0
C165 C 0.57198 0.74173 0.40272 0.0
C166 C 0.49678 0.6481 0.30853 0.0
O167 O 0.53809 0.81174 0.29571 0.0
C168 C 0.5586 0.02964 0.03073 0.0
C169 C 0.51813 0.05363 0.0272 0.0
H170 H 0.61061 0.99291 0.00286 0.0
C171 C 0.503 0.06548 0.99205 0.0
H172 H 0.57142 0.02134 0.0577 0.0
C173 C 0.52625 0.05068 0.96082 0.0
C174 C 0.56418 0.02313 0.96437 0.0
H175 H 0.47186 0.0841 0.98872 0.0
H176 H 0.51339 0.05896 0.93386 0.0
C177 C 0.58126 0.01402 0.99951 0.0
C178 C 0.36741 0.69509 0.40395 0.0
C179 C 0.38223 0.71162 0.36876 0.0
H180 H 0.3318 0.63681 0.43527 0.0
C181 C 0.35913 0.68935 0.33796 0.0
H182 H 0.38364 0.71228 0.42829 0.0
C183 C 0.32898 0.64629 0.34206 0.0
C184 C 0.32158 0.62513 0.37693 0.0
H185 H 0.36867 0.70173 0.31047 0.0
H186 H 0.31651 0.62664 0.31761 0.0
C187 C 0.33723 0.65198 0.40804 0.0
C188 C 0.94772 0.42328 0.7505 0.0
C189 C 0.92716 0.46581 0.75496 0.0
H190 H 0.98091 0.36775 0.7772 0.0
C191 C 0.91706 0.48099 0.79047 0.0
H192 H 0.95468 0.41045 0.72326 0.0
C193 C 0.93022 0.45561 0.82113 0.0
C194 C 0.95473 0.41563 0.81671 0.0
H195 H 0.9009 0.51358 0.79451 0.0
H196 H 0.92301 0.46819 0.84838 0.0
C197 C 0.96205 0.39863 0.78121 0.0
C198 C 0.4478 0.92611 0.0325 0.0
C199 C 0.48683 0.90145 0.02448 0.0
H200 H 0.39315 0.96518 0.01091 0.0
C201 C 0.49669 0.89131 0.98775 0.0
H202 H 0.43948 0.93388 0.0607 0.0
C203 C 0.46949 0.90805 0.95937 0.0
C204 C 0.43276 0.93581 0.96736 0.0
H205 H 0.52703 0.87283 0.98092 0.0
H206 H 0.47869 0.90144 0.93114 0.0
C207 C 0.42115 0.94355 0.00414 0.0
C208 C 0.65627 0.47274 0.30127 0.0
C209 C 0.66787 0.47377 0.33886 0.0
H210 H 0.62021 0.43283 0.25733 0.0
C211 C 0.66176 0.43079 0.35883 0.0
H212 H 0.66103 0.50535 0.28512 0.0
C213 C 0.63795 0.38924 0.34296 0.0
C214 C 0.62031 0.39007 0.30687 0.0
H215 H 0.6703 0.43041 0.3878 0.0
H216 H 0.62945 0.35773 0.36 0.0
C217 C 0.63277 0.43114 0.28533 0.0
C218 C 0.07929 0.48626 0.7937 0.0
C219 C 0.07168 0.50159 0.75778 0.0
H220 H 0.06911 0.49864 0.85124 0.0
C221 C 0.05142 0.54412 0.75236 0.0
H222 H 0.09511 0.45363 0.7985 0.0
C223 C 0.03501 0.56867 0.78238 0.0
C224 C 0.03981 0.55149 0.81819 0.0
H225 H 0.0463 0.55705 0.72484 0.0
H226 H 0.01645 0.59956 0.77751 0.0
C227 C 0.06393 0.51144 0.82371 0.0
C228 C 0.33662 0.1407 0.01853 0.0
C229 C 0.32249 0.10474 0.04446 0.0
H230 H 0.34505 0.15652 0.96141 0.0
C231 C 0.28914 0.06559 0.03381 0.0
H232 H 0.36114 0.17205 0.02596 0.0
C233 C 0.28003 0.05653 0.99662 0.0
C234 C 0.30421 0.08676 0.97015 0.0
H235 H 0.27619 0.03808 0.05349 0.0
H236 H 0.26067 0.02224 0.98889 0.0
C237 C 0.32743 0.13168 0.98136 0.0
C238 C 0.3483 0.35092 0.38386 0.0
C239 C 0.35649 0.34649 0.34596 0.0
H240 H 0.30582 0.37923 0.42522 0.0
C241 C 0.31991 0.35446 0.32135 0.0
H242 H 0.37525 0.34395 0.40367 0.0
C243 C 0.28026 0.37493 0.33375 0.0
C244 C 0.27648 0.38718 0.37087 0.0
H245 H 0.32441 0.35036 0.29205 0.0
H246 H 0.25562 0.38639 0.31372 0.0
C247 C 0.30825 0.37092 0.39631 0.0
C248 C 0.08431 0.27108 0.76296 0.0
C249 C 0.12339 0.30478 0.75271 0.0
H250 H 0.03955 0.24289 0.80718 0.0
C251 C 0.15791 0.32032 0.77931 0.0
H252 H 0.05792 0.25704 0.74279 0.0
C253 C 0.14752 0.31175 0.81639 0.0
C254 C 0.1025 0.28801 0.82685 0.0
H255 H 0.18916 0.3452 0.77225 0.0
H256 H 0.1712 0.3303 0.83666 0.0
C257 C 0.07386 0.26266 0.80003 0.0
C258 C 0.71806 0.88576 0.01014 0.0
C259 C 0.68373 0.84837 0.02243 0.0
H260 H 0.74204 0.93052 0.96475 0.0
C261 C 0.66249 0.81523 0.99666 0.0
H262 H 0.73632 0.91094 0.02955 0.0
C263 C 0.6659 0.8264 0.95932 0.0
C264 C 0.69052 0.87064 0.94787 0.0
H265 H 0.63691 0.78523 0.00521 0.0
H266 H 0.6432 0.80426 0.94035 0.0
C267 C 0.72137 0.89703 0.97283 0.0
C268 C 0.63681 0.72276 0.4438 0.0
C269 C 0.62334 0.7457 0.41181 0.0
H270 H 0.68247 0.67505 0.46645 0.0
C271 C 0.65613 0.75266 0.38267 0.0
H272 H 0.61245 0.71751 0.46689 0.0
C273 C 0.69581 0.72749 0.38207 0.0
C274 C 0.70366 0.69644 0.41102 0.0
H275 H 0.64717 0.77066 0.35779 0.0
H276 H 0.71677 0.72767 0.35711 0.0
C277 C 0.6768 0.69797 0.44339 0.0
C278 C 0.84476 0.65239 0.81032 0.0
C279 C 0.88867 0.67699 0.82239 0.0
H280 H 0.80653 0.61869 0.76471 0.0
C281 C 0.91825 0.70348 0.79668 0.0
H282 H 0.82034 0.63299 0.82971 0.0
C283 C 0.91012 0.69551 0.75925 0.0
C284 C 0.8725 0.66102 0.74756 0.0
H285 H 0.95167 0.72396 0.80507 0.0
H286 H 0.93737 0.71054 0.74006 0.0
C287 C 0.83674 0.64421 0.7729 0.0
C288 C 0.48481 0.93832 0.17473 0.0
C289 C 0.53345 0.93575 0.16798 0.0
H290 H 0.4298 0.98387 0.17962 0.0
C291 C 0.56563 0.97833 0.16807 0.0
H292 H 0.45923 0.90615 0.17548 0.0
C293 C 0.54874 0.02289 0.16985 0.0
C294 C 0.49939 0.02546 0.1719 0.0
H295 H 0.60362 0.97737 0.16416 0.0
H296 H 0.57396 0.05503 0.16659 0.0
C297 C 0.46796 0.98289 0.17685 0.0
C298 C 0.51128 0.57532 0.42198 0.0
C299 C 0.54268 0.54114 0.41713 0.0
H300 H 0.43814 0.58811 0.42685 0.0
C301 C 0.52399 0.49363 0.40857 0.0
H302 H 0.52492 0.61144 0.43011 0.0
C303 C 0.47441 0.48039 0.40572 0.0
C304 C 0.44302 0.51416 0.41291 0.0
H305 H 0.54772 0.46645 0.40526 0.0
H306 H 0.46069 0.44314 0.40101 0.0
C307 C 0.46186 0.56188 0.42016 0.0
C308 C 0.03696 0.51143 0.96492 0.0
C309 C 0.99521 0.53361 0.96213 0.0
H310 H 0.06697 0.44525 0.9652 0.0
C311 C 0.95049 0.50494 0.96408 0.0
H312 H 0.07194 0.53245 0.96405 0.0
C313 C 0.94758 0.45493 0.96386 0.0
C314 C 0.98942 0.43274 0.96216 0.0
H315 H 0.91758 0.52109 0.96317 0.0
H316 H 0.91265 0.43394 0.96217 0.0
C317 C 0.03404 0.4614 0.96519 0.0
C318 C 0.00227 0.53389 0.60771 0.0
C319 C 0.95996 0.5014 0.60903 0.0
H320 H 0.07878 0.54315 0.61132 0.0
C321 C 0.96314 0.45218 0.60609 0.0
H322 H 0.00087 0.57217 0.60873 0.0
C323 C 0.00785 0.43562 0.60686 0.0
C324 C 0.04991 0.46797 0.61095 0.0
H325 H 0.93123 0.42626 0.60641 0.0
H326 H 0.00918 0.3973 0.60724 0.0
C327 C 0.04698 0.51731 0.60885 0.0
C328 C 0.46276 0.94313 0.818 0.0
C329 C 0.44106 0.98482 0.82331 0.0
H330 H 0.52855 0.9129 0.81421 0.0
C331 C 0.46971 0.02961 0.82182 0.0
H332 H 0.44169 0.90813 0.81844 0.0
C333 C 0.51959 0.03236 0.82014 0.0
C334 C 0.54154 0.9903 0.81948 0.0
H335 H 0.45383 0.06253 0.82463 0.0
H336 H 0.54082 0.06715 0.82237 0.0
C337 C 0.5126 0.94591 0.8159 0.0
C338 C 0.51954 0.51876 0.31734 0.0
C339 C 0.49414 0.49691 0.28751 0.0
H340 H 0.54034 0.58367 0.347 0.0
C341 C 0.46889 0.52515 0.26446 0.0
H342 H 0.54079 0.49829 0.33457 0.0
C343 C 0.46864 0.57421 0.27151 0.0
C344 C 0.49331 0.59576 0.30191 0.0
H345 H 0.44912 0.50929 0.24108 0.0
H346 H 0.44928 0.59525 0.25322 0.0
C347 C 0.51901 0.56753 0.32452 0.0
C348 C 0.51848 0.21264 0.2169 0.0
C349 C 0.48945 0.23975 0.23749 0.0
H350 H 0.54318 0.19615 0.16323 0.0
C351 C 0.46041 0.26922 0.21913 0.0
H352 H 0.54158 0.19006 0.23041 0.0
C353 C 0.4606 0.27169 0.1808 0.0
C354 C 0.48937 0.24425 0.16036 0.0
H355 H 0.43678 0.28954 0.23431 0.0
H356 H 0.43786 0.29449 0.16712 0.0
C357 C 0.5189 0.21546 0.17862 0.0
C358 C 0.23184 0.43556 0.61145 0.0
C359 C 0.25146 0.47903 0.62745 0.0
H360 H 0.21587 0.39631 0.56172 0.0
C361 C 0.26656 0.51836 0.60475 0.0
H362 H 0.22071 0.40444 0.62834 0.0
C363 C 0.26338 0.51391 0.56659 0.0
C364 C 0.24603 0.46967 0.55046 0.0
H365 H 0.28176 0.55228 0.61651 0.0
H366 H 0.27698 0.54439 0.54977 0.0
C367 C 0.22922 0.43089 0.57331 0.0
C368 C 0.8022 0.11829 0.91448 0.0
C369 C 0.79004 0.11385 0.87711 0.0
H370 H 0.8472 0.15571 0.95521 0.0
C371 C 0.81556 0.14495 0.85174 0.0
H372 H 0.7833 0.09491 0.93476 0.0
C373 C 0.85227 0.1798 0.86347 0.0
C374 C 0.86427 0.1844 0.90086 0.0
H375 H 0.80715 0.14252 0.82275 0.0
H376 H 0.87108 0.20327 0.8432 0.0
C377 C 0.83887 0.15319 0.92622 0.0
C378 C 0.50345 0.75862 0.22573 0.0
C379 C 0.54578 0.78924 0.23276 0.0
H380 H 0.46401 0.71181 0.18678 0.0
C381 C 0.58366 0.79164 0.20759 0.0
H382 H 0.47355 0.75695 0.2446 0.0
C383 C 0.57834 0.76588 0.17482 0.0
C384 C 0.53461 0.73839 0.16632 0.0
H385 H 0.61659 0.81515 0.21252 0.0
H386 H 0.60754 0.76945 0.15524 0.0
C387 C 0.49796 0.73307 0.1927 0.0
C388 C 0.73243 0.47368 0.58779 0.0
C389 C 0.75125 0.5041 0.6162 0.0
H390 H 0.71711 0.46644 0.53036 0.0
C391 C 0.77354 0.55021 0.60754 0.0
H392 H 0.71512 0.43791 0.59382 0.0
C393 C 0.77475 0.56656 0.57134 0.0
C394 C 0.75364 0.53713 0.54309 0.0
H395 H 0.7873 0.57484 0.62896 0.0
H396 H 0.78988 0.60321 0.56579 0.0
C397 C 0.73404 0.48987 0.55145 0.0
C398 C 0.13414 0.79052 0.86856 0.0
C399 C 0.12428 0.78051 0.90578 0.0
H400 H 0.17728 0.83326 0.82946 0.0
C401 C 0.15167 0.80747 0.93259 0.0
H402 H 0.11376 0.77043 0.84719 0.0
C403 C 0.18813 0.84353 0.92242 0.0
C404 C 0.19806 0.85345 0.88519 0.0
H405 H 0.14503 0.80073 0.96152 0.0
H406 H 0.20855 0.86359 0.94378 0.0
C407 C 0.17061 0.82657 0.85839 0.0
loop_
_geom_bond_atom_site_label_1
_geom_bond_atom_site_label_2
_geom_bond_distance
_geom_bond_site_symmetry_2
_ccdc_geom_bond_type
Mg0 O1 2.028 . S
Mg0 O7 1.986 . S
Mg0 O9 2.114 . S
Mg0 O10 2.251 . S
Mg0 O13 2.010 . S
O1 Mg0 2.028 . S
O1 C4 1.250 . S
O2 Mg3 2.028 . S
O2 C4 1.248 1_556 S
Mg3 O2 2.028 . S
Mg3 O8 2.032 . S
Mg3 O10 2.079 1_556 S
C4 O1 1.250 . S
C4 O2 1.248 1_554 S
C5 O6 1.264 . S
C5 O13 1.249 . S
O6 C5 1.264 . S
O7 Mg0 1.986 . S
O7 C11 1.246 1_554 S
O8 Mg3 2.032 . S
O8 C11 1.259 . S
O9 Mg0 2.114 . S
O9 C12 1.252 . S
O10 Mg0 2.251 . S
O10 Mg3 2.079 1_554 S
O10 C12 1.273 . S
C11 O7 1.246 1_556 S
C11 O8 1.259 . S
C12 O9 1.252 . S
C12 O10 1.273 . S
O13 Mg0 2.010 . S
O13 C5 1.249 . S
Mg14 O15 2.028 . S
Mg14 O21 1.986 . S
Mg14 O23 2.114 . S
Mg14 O24 2.251 . S
Mg14 O27 2.010 . S
O15 Mg14 2.028 . S
O15 C18 1.250 . S
O16 Mg17 2.028 . S
O16 C18 1.248 . S
Mg17 O16 2.028 . S
Mg17 O22 2.032 . S
Mg17 O24 2.079 . S
C18 O15 1.250 . S
C18 O16 1.248 . S
C19 O20 1.264 . S
C19 O27 1.249 . S
O20 C19 1.264 . S
O21 Mg14 1.986 . S
O21 C25 1.246 . S
O22 Mg17 2.032 . S
O22 C25 1.259 . S
O23 Mg14 2.114 . S
O23 C26 1.252 . S
O24 Mg14 2.251 . S
O24 Mg17 2.079 . S
O24 C26 1.273 . S
C25 O21 1.246 . S
C25 O22 1.259 . S
C26 O23 1.252 . S
C26 O24 1.273 . S
O27 Mg14 2.010 . S
O27 C19 1.249 . S
Mg28 O29 2.028 . S
Mg28 O35 1.986 1_655 S
Mg28 O37 2.114 . S
Mg28 O38 2.251 1_655 S
Mg28 O41 2.010 . S
O29 Mg28 2.028 . S
O29 C32 1.250 . S
O30 Mg31 2.028 1_655 S
O30 C32 1.248 . S
Mg31 O30 2.028 1_455 S
Mg31 O36 2.032 . S
Mg31 O38 2.079 . S
C32 O29 1.250 . S
C32 O30 1.248 . S
C33 O34 1.264 . S
C33 O41 1.249 . S
O34 C33 1.264 . S
O35 Mg28 1.986 1_455 S
O35 C39 1.246 . S
O36 Mg31 2.032 . S
O36 C39 1.259 . S
O37 Mg28 2.114 . S
O37 C40 1.252 . S
O38 Mg28 2.251 1_455 S
O38 Mg31 2.079 . S
O38 C40 1.273 1_455 S
C39 O35 1.246 . S
C39 O36 1.259 . S
C40 O37 1.252 . S
C40 O38 1.273 1_655 S
O41 Mg28 2.010 . S
O41 C33 1.249 . S
Mg42 O43 2.028 . S
Mg42 O49 1.986 . S
Mg42 O51 2.114 . S
Mg42 O52 2.251 . S
Mg42 O55 2.010 . S
O43 Mg42 2.028 . S
O43 C46 1.250 . S
O44 Mg45 2.028 . S
O44 C46 1.248 1_556 S
Mg45 O44 2.028 . S
Mg45 O50 2.032 . S
Mg45 O52 2.079 1_556 S
C46 O43 1.250 . S
C46 O44 1.248 1_554 S
C47 O48 1.264 . S
C47 O55 1.249 . S
O48 C47 1.264 . S
O49 Mg42 1.986 . S
O49 C53 1.246 1_554 S
O50 Mg45 2.032 . S
O50 C53 1.259 . S
O51 Mg42 2.114 . S
O51 C54 1.252 . S
O52 Mg42 2.251 . S
O52 Mg45 2.079 1_554 S
O52 C54 1.273 . S
C53 O49 1.246 1_556 S
C53 O50 1.259 . S
C54 O51 1.252 . S
C54 O52 1.273 . S
O55 Mg42 2.010 . S
O55 C47 1.249 . S
Mg56 O57 2.028 . S
Mg56 O63 1.986 . S
Mg56 O65 2.114 . S
Mg56 O66 2.251 . S
Mg56 O69 2.010 . S
O57 Mg56 2.028 . S
O57 C60 1.250 . S
O58 Mg59 2.028 . S
O58 C60 1.248 . S
Mg59 O58 2.028 . S
Mg59 O64 2.032 . S
Mg59 O66 2.079 . S
C60 O57 1.250 . S
C60 O58 1.248 . S
C61 O62 1.264 . S
C61 O69 1.249 . S
O62 C61 1.264 . S
O63 Mg56 1.986 . S
O63 C67 1.246 . S
O64 Mg59 2.032 . S
O64 C67 1.259 . S
O65 Mg56 2.114 . S
O65 C68 1.252 . S
O66 Mg56 2.251 . S
O66 Mg59 2.079 . S
O66 C68 1.273 . S
C67 O63 1.246 . S
C67 O64 1.259 . S
C68 O65 1.252 . S
C68 O66 1.273 . S
O69 Mg56 2.010 . S
O69 C61 1.249 . S
Mg70 O71 2.028 . S
Mg70 O77 1.986 1_455 S
Mg70 O79 2.114 . S
Mg70 O80 2.251 1_455 S
Mg70 O83 2.010 . S
O71 Mg70 2.028 . S
O71 C74 1.250 . S
O72 Mg73 2.028 1_455 S
O72 C74 1.248 . S
Mg73 O72 2.028 1_655 S
Mg73 O78 2.032 . S
Mg73 O80 2.079 . S
C74 O71 1.250 . S
C74 O72 1.248 . S
C75 O76 1.264 . S
C75 O83 1.249 . S
O76 C75 1.264 . S
O77 Mg70 1.986 1_655 S
O77 C81 1.246 . S
O78 Mg73 2.032 . S
O78 C81 1.259 . S
O79 Mg70 2.114 . S
O79 C82 1.252 . S
O80 Mg70 2.251 1_655 S
O80 Mg73 2.079 . S
O80 C82 1.273 1_655 S
C81 O77 1.246 . S
C81 O78 1.259 . S
C82 O79 1.252 . S
C82 O80 1.273 1_455 S
O83 Mg70 2.010 . S
O83 C75 1.249 . S
Mg84 O85 2.028 . S
Mg84 O91 1.986 . S
Mg84 O93 2.114 . S
Mg84 O94 2.251 . S
Mg84 O97 2.010 . S
O85 Mg84 2.028 . S
O85 C88 1.250 . S
O86 Mg87 2.028 . S
O86 C88 1.248 . S
Mg87 O86 2.028 . S
Mg87 O92 2.032 . S
Mg87 O94 2.079 . S
C88 O85 1.250 . S
C88 O86 1.248 . S
C89 O90 1.264 . S
C89 O97 1.249 . S
O90 C89 1.264 . S
O91 Mg84 1.986 . S
O91 C95 1.246 . S
O92 Mg87 2.032 . S
O92 C95 1.259 . S
O93 Mg84 2.114 . S
O93 C96 1.252 . S
O94 Mg84 2.251 . S
O94 Mg87 2.079 . S
O94 C96 1.273 . S
C95 O91 1.246 . S
C95 O92 1.259 . S
C96 O93 1.252 . S
C96 O94 1.273 . S
O97 Mg84 2.010 . S
O97 C89 1.249 . S
Mg98 O99 2.028 . S
Mg98 O105 1.986 1_565 S
Mg98 O107 2.114 . S
Mg98 O108 2.251 1_565 S
Mg98 O111 2.010 . S
O99 Mg98 2.028 . S
O99 C102 1.250 . S
O100 Mg101 2.028 1_565 S
O100 C102 1.248 . S
Mg101 O100 2.028 1_545 S
Mg101 O106 2.032 . S
Mg101 O108 2.079 . S
C102 O99 1.250 . S
C102 O100 1.248 . S
C103 O104 1.264 . S
C103 O111 1.249 . S
O104 C103 1.264 . S
O105 Mg98 1.986 1_545 S
O105 C109 1.246 . S
O106 Mg101 2.032 . S
O106 C109 1.259 . S
O107 Mg98 2.114 . S
O107 C110 1.252 . S
O108 Mg98 2.251 1_545 S
O108 Mg101 2.079 . S
O108 C110 1.273 1_545 S
C109 O105 1.246 . S
C109 O106 1.259 . S
C110 O107 1.252 . S
C110 O108 1.273 1_565 S
O111 Mg98 2.010 . S
O111 C103 1.249 . S
Mg112 O113 2.028 . S
Mg112 O119 1.986 . S
Mg112 O121 2.114 . S
Mg112 O122 2.251 . S
Mg112 O125 2.010 . S
O113 Mg112 2.028 . S
O113 C116 1.250 . S
O114 Mg115 2.028 . S
O114 C116 1.248 . S
Mg115 O114 2.028 . S
Mg115 O120 2.032 . S
Mg115 O122 2.079 . S
C116 O113 1.250 . S
C116 O114 1.248 . S
C117 O118 1.264 . S
C117 O125 1.249 . S
O118 C117 1.264 . S
O119 Mg112 1.986 . S
O119 C123 1.246 . S
O120 Mg115 2.032 . S
O120 C123 1.259 . S
O121 Mg112 2.114 . S
O121 C124 1.252 . S
O122 Mg112 2.251 . S
O122 Mg115 2.079 . S
O122 C124 1.273 . S
C123 O119 1.246 . S
C123 O120 1.259 . S
C124 O121 1.252 . S
C124 O122 1.273 . S
O125 Mg112 2.010 . S
O125 C117 1.249 . S
Mg126 O127 2.028 . S
Mg126 O133 1.986 . S
Mg126 O135 2.114 . S
Mg126 O136 2.251 . S
Mg126 O139 2.010 . S
O127 Mg126 2.028 . S
O127 C130 1.250 . S
O128 Mg129 2.028 . S
O128 C130 1.248 . S
Mg129 O128 2.028 . S
Mg129 O134 2.032 . S
Mg129 O136 2.079 . S
C130 O127 1.250 . S
C130 O128 1.248 . S
C131 O132 1.264 . S
C131 O139 1.249 . S
O132 C131 1.264 . S
O133 Mg126 1.986 . S
O133 C137 1.246 . S
O134 Mg129 2.032 . S
O134 C137 1.259 . S
O135 Mg126 2.114 . S
O135 C138 1.252 . S
O136 Mg126 2.251 . S
O136 Mg129 2.079 . S
O136 C138 1.273 . S
C137 O133 1.246 . S
C137 O134 1.259 . S
C138 O135 1.252 . S
C138 O136 1.273 . S
O139 Mg126 2.010 . S
O139 C131 1.249 . S
Mg140 O141 2.028 . S
Mg140 O147 1.986 1_545 S
Mg140 O149 2.114 . S
Mg140 O150 2.251 1_545 S
Mg140 O153 2.010 . S
O141 Mg140 2.028 . S
O141 C144 1.250 . S
O142 Mg143 2.028 1_545 S
O142 C144 1.248 . S
Mg143 O142 2.028 1_565 S
Mg143 O148 2.032 . S
Mg143 O150 2.079 . S
C144 O141 1.250 . S
C144 O142 1.248 . S
C145 O146 1.264 . S
C145 O153 1.249 . S
O146 C145 1.264 . S
O147 Mg140 1.986 1_565 S
O147 C151 1.246 . S
O148 Mg143 2.032 . S
O148 C151 1.259 . S
O149 Mg140 2.114 . S
O149 C152 1.252 . S
O150 Mg140 2.251 1_565 S
O150 Mg143 2.079 . S
O150 C152 1.273 1_565 S
C151 O147 1.246 . S
C151 O148 1.259 . S
C152 O149 1.252 . S
C152 O150 1.273 1_545 S
O153 Mg140 2.010 . S
O153 C145 1.249 . S
Mg154 O155 2.028 . S
Mg154 O161 1.986 . S
Mg154 O163 2.114 . S
Mg154 O164 2.251 . S
Mg154 O167 2.010 . S
O155 Mg154 2.028 . S
O155 C158 1.250 . S
O156 Mg157 2.028 . S
O156 C158 1.248 . S
Mg157 O156 2.028 . S
Mg157 O162 2.032 . S
Mg157 O164 2.079 . S
C158 O155 1.250 . S
C158 O156 1.248 . S
C159 O160 1.264 . S
C159 O167 1.249 . S
O160 C159 1.264 . S
O161 Mg154 1.986 . S
O161 C165 1.246 . S
O162 Mg157 2.032 . S
O162 C165 1.259 . S
O163 Mg154 2.114 . S
O163 C166 1.252 . S
O164 Mg154 2.251 . S
O164 Mg157 2.079 . S
O164 C166 1.273 . S
C165 O161 1.246 . S
C165 O162 1.259 . S
C166 O163 1.252 . S
C166 O164 1.273 . S
O167 Mg154 2.010 . S
O167 C159 1.249 . S
C168 C169 1.387 1_554 S
C168 H172 0.950 . S
C168 C177 1.390 1_554 S
C169 C168 1.387 1_556 S
C169 C171 1.387 . S
H170 C177 0.950 1_554 S
C171 C169 1.387 . S
C171 C173 1.390 . S
C171 H175 0.950 . S
H172 C168 0.950 . S
C173 C171 1.390 . S
C173 C174 1.387 . S
C173 H176 0.950 . S
C174 C173 1.387 . S
C174 C177 1.387 . S
H175 C171 0.950 . S
H176 C173 0.950 . S
C177 C168 1.390 1_556 S
C177 H170 0.950 1_556 S
C177 C174 1.387 . S
C178 C179 1.387 . S
C178 H182 0.950 . S
C178 C187 1.390 . S
C179 C178 1.387 . S
C179 C181 1.387 . S
H180 C187 0.950 . S
C181 C179 1.387 . S
C181 C183 1.390 . S
C181 H185 0.950 . S
H182 C178 0.950 . S
C183 C181 1.390 . S
C183 C184 1.387 . S
C183 H186 0.950 . S
C184 C183 1.387 . S
C184 C187 1.387 . S
H185 C181 0.950 . S
H186 C183 0.950 . S
C187 C178 1.390 . S
C187 H180 0.950 . S
C187 C184 1.387 . S
C188 C189 1.387 . S
C188 H192 0.950 . S
C188 C197 1.390 . S
C189 C188 1.387 . S
C189 C191 1.387 . S
H190 C197 0.950 . S
C191 C189 1.387 . S
C191 C193 1.390 . S
C191 H195 0.950 . S
H192 C188 0.950 . S
C193 C191 1.390 . S
C193 C194 1.387 . S
C193 H196 0.950 . S
C194 C193 1.387 . S
C194 C197 1.387 . S
H195 C191 0.950 . S
H196 C193 0.950 . S
C197 C188 1.390 . S
C197 H190 0.950 . S
C197 C194 1.387 . S
C198 C199 1.387 1_554 S
C198 H202 0.950 . S
C198 C207 1.390 1_554 S
C199 C198 1.387 1_556 S
C199 C201 1.387 . S
H200 C207 0.950 1_554 S
C201 C199 1.387 . S
C201 C203 1.390 . S
C201 H205 0.950 . S
H202 C198 0.950 . S
C203 C201 1.390 . S
C203 C204 1.387 . S
C203 H206 0.950 . S
C204 C203 1.387 . S
C204 C207 1.387 . S
H205 C201 0.950 . S
H206 C203 0.950 . S
C207 C198 1.390 1_556 S
C207 H200 0.950 1_556 S
C207 C204 1.387 . S
C208 C209 1.387 . S
C208 H212 0.950 . S
C208 C217 1.390 . S
C209 C208 1.387 . S
C209 C211 1.387 . S
H210 C217 0.950 . S
C211 C209 1.387 . S
C211 C213 1.390 . S
C211 H215 0.950 . S
H212 C208 0.950 . S
C213 C211 1.390 . S
C213 C214 1.387 . S
C213 H216 0.950 . S
C214 C213 1.387 . S
C214 C217 1.387 . S
H215 C211 0.950 . S
H216 C213 0.950 . S
C217 C208 1.390 . S
C217 H210 0.950 . S
C217 C214 1.387 . S
C218 C219 1.387 . S
C218 H222 0.950 . S
C218 C227 1.390 . S
C219 C218 1.387 . S
C219 C221 1.387 . S
H220 C227 0.950 . S
C221 C219 1.387 . S
C221 C223 1.390 . S
C221 H225 0.950 . S
H222 C218 0.950 . S
C223 C221 1.390 . S
C223 C224 1.387 . S
C223 H226 0.950 . S
C224 C223 1.387 . S
C224 C227 1.387 . S
H225 C221 0.950 . S
H226 C223 0.950 . S
C227 C218 1.390 . S
C227 H220 0.950 . S
C227 C224 1.387 . S
C228 C229 1.387 . S
C228 H232 0.950 . S
C228 C237 1.390 . S
C229 C228 1.387 . S
C229 C231 1.387 1_556 S
H230 C237 0.950 . S
C231 C229 1.387 1_554 S
C231 C233 1.390 1_554 S
C231 H235 0.950 . S
H232 C228 0.950 . S
C233 C231 1.390 1_556 S
C233 C234 1.387 . S
C233 H236 0.950 . S
C234 C233 1.387 . S
C234 C237 1.387 . S
H235 C231 0.950 . S
H236 C233 0.950 . S
C237 C228 1.390 . S
C237 H230 0.950 . S
C237 C234 1.387 . S
C238 C239 1.387 . S
C238 H242 0.950 . S
C238 C247 1.390 . S
C239 C238 1.387 . S
C239 C241 1.387 . S
H240 C247 0.950 . S
C241 C239 1.387 . S
C241 C243 1.390 . S
C241 H245 0.950 . S
H242 C238 0.950 . S
C243 C241 1.390 . S
C243 C244 1.387 . S
C243 H246 0.950 . S
C244 C243 1.387 . S
C244 C247 1.387 . S
H245 C241 0.950 . S
H246 C243 0.950 . S
C247 C238 1.390 . S
C247 H240 0.950 . S
C247 C244 1.387 . S
C248 C249 1.387 . S
C248 H252 0.950 . S
C248 C257 1.390 . S
C249 C248 1.387 . S
C249 C251 1.387 . S
H250 C257 0.950 . S
C251 C249 1.387 . S
C251 C253 1.390 . S
C251 H255 0.950 . S
H252 C248 0.950 . S
C253 C251 1.390 . S
C253 C254 1.387 . S
C253 H256 0.950 . S
C254 C253 1.387 . S
C254 C257 1.387 . S
H255 C251 0.950 . S
H256 C253 0.950 . S
C257 C248 1.390 . S
C257 H250 0.950 . S
C257 C254 1.387 . S
C258 C259 1.391 . S
C258 H262 0.941 1_556 S
C258 C267 1.396 . S
C259 C258 1.391 . S
C259 C261 1.387 . S
H260 C267 0.950 . S
C261 C259 1.387 . S
C261 C263 1.390 . S
C261 H265 0.950 . S
H262 C258 0.941 1_554 S
C263 C261 1.390 . S
C263 C264 1.387 . S
C263 H266 0.950 . S
C264 C263 1.387 . S
C264 C267 1.387 . S
H265 C261 0.950 . S
H266 C263 0.950 . S
C267 C258 1.396 . S
C267 H260 0.950 . S
C267 C264 1.387 . S
C268 C269 1.387 . S
C268 H272 0.950 . S
C268 C277 1.390 . S
C269 C268 1.387 . S
C269 C271 1.387 . S
H270 C277 0.950 . S
C271 C269 1.387 . S
C271 C273 1.390 . S
C271 H275 0.950 . S
H272 C268 0.950 . S
C273 C271 1.390 . S
C273 C274 1.387 . S
C273 H276 0.950 . S
C274 C273 1.387 . S
C274 C277 1.387 . S
H275 C271 0.950 . S
H276 C273 0.950 . S
C277 C268 1.390 . S
C277 H270 0.950 . S
C277 C274 1.387 . S
C278 C279 1.387 . S
C278 H282 0.950 . S
C278 C287 1.390 . S
C279 C278 1.387 . S
C279 C281 1.387 . S
H280 C287 0.950 . S
C281 C279 1.387 . S
C281 C283 1.390 . S
C281 H285 0.950 . S
H282 C278 0.950 . S
C283 C281 1.390 . S
C283 C284 1.387 . S
C283 H286 0.950 . S
C284 C283 1.387 . S
C284 C287 1.387 . S
H285 C281 0.950 . S
H286 C283 0.950 . S
C287 C278 1.390 . S
C287 H280 0.950 . S
C287 C284 1.387 . S
C288 C289 1.387 . S
C288 H292 0.950 . S
C288 C297 1.390 1_565 S
C289 C288 1.387 . S
C289 C291 1.387 . S
H290 C297 0.950 . S
C291 C289 1.387 . S
C291 C293 1.390 1_565 S
C291 H295 0.950 . S
H292 C288 0.950 . S
C293 C291 1.390 1_545 S
C293 C294 1.387 . S
C293 H296 0.950 . S
C294 C293 1.387 . S
C294 C297 1.387 . S
H295 C291 0.950 . S
H296 C293 0.950 . S
C297 C288 1.390 1_545 S
C297 H290 0.950 . S
C297 C294 1.387 . S
C298 C299 1.387 . S
C298 H302 0.950 . S
C298 C307 1.390 . S
C299 C298 1.387 . S
C299 C301 1.387 . S
H300 C307 0.950 . S
C301 C299 1.387 . S
C301 C303 1.390 . S
C301 H305 0.950 . S
H302 C298 0.950 . S
C303 C301 1.390 . S
C303 C304 1.387 . S
C303 H306 0.950 . S
C304 C303 1.387 . S
C304 C307 1.387 . S
H305 C301 0.950 . S
H306 C303 0.950 . S
C307 C298 1.390 . S
C307 H300 0.950 . S
C307 C304 1.387 . S
C308 C309 1.387 . S
C308 H312 0.950 . S
C308 C317 1.390 1_455 S
C309 C308 1.387 . S
C309 C311 1.387 . S
H310 C317 0.950 . S
C311 C309 1.387 . S
C311 C313 1.390 1_455 S
C311 H315 0.950 . S
H312 C308 0.950 . S
C313 C311 1.390 1_655 S
C313 C314 1.387 . S
C313 H316 0.950 . S
C314 C313 1.387 . S
C314 C317 1.387 . S
H315 C311 0.950 . S
H316 C313 0.950 . S
C317 C308 1.390 1_655 S
C317 H310 0.950 . S
C317 C314 1.387 . S
C318 C319 1.387 . S
C318 H322 0.950 . S
C318 C327 1.390 1_655 S
C319 C318 1.387 . S
C319 C321 1.387 . S
H320 C327 0.950 . S
C321 C319 1.387 . S
C321 C323 1.390 1_655 S
C321 H325 0.950 . S
H322 C318 0.950 . S
C323 C321 1.390 1_455 S
C323 C324 1.387 . S
C323 H326 0.950 . S
C324 C323 1.387 . S
C324 C327 1.387 . S
H325 C321 0.950 . S
H326 C323 0.950 . S
C327 C318 1.390 1_455 S
C327 H320 0.950 . S
C327 C324 1.387 . S
C328 C329 1.387 . S
C328 H332 0.950 . S
C328 C337 1.390 1_565 S
C329 C328 1.387 . S
C329 C331 1.387 . S
H330 C337 0.950 . S
C331 C329 1.387 . S
C331 C333 1.390 1_565 S
C331 H335 0.950 . S
H332 C328 0.950 . S
C333 C331 1.390 1_545 S
C333 C334 1.387 . S
C333 H336 0.950 . S
C334 C333 1.387 . S
C334 C337 1.387 . S
H335 C331 0.950 . S
H336 C333 0.950 . S
C337 C328 1.390 1_545 S
C337 H330 0.950 . S
C337 C334 1.387 . S
C338 C339 1.387 . S
C338 H342 0.950 . S
C338 C347 1.390 . S
C339 C338 1.387 . S
C339 C341 1.387 . S
H340 C347 0.950 . S
C341 C339 1.387 . S
C341 C343 1.390 . S
C341 H345 0.950 . S
H342 C338 0.950 . S
C343 C341 1.390 . S
C343 C344 1.387 . S
C343 H346 0.950 . S
C344 C343 1.387 . S
C344 C347 1.387 . S
H345 C341 0.950 . S
H346 C343 0.950 . S
C347 C338 1.390 . S
C347 H340 0.950 . S
C347 C344 1.387 . S
C348 C349 1.387 . S
C348 H352 0.950 . S
C348 C357 1.390 . S
C349 C348 1.387 . S
C349 C351 1.387 . S
H350 C357 0.950 . S
C351 C349 1.387 . S
C351 C353 1.390 . S
C351 H355 0.950 . S
H352 C348 0.950 . S
C353 C351 1.390 . S
C353 C354 1.387 . S
C353 H356 0.950 . S
C354 C353 1.387 . S
C354 C357 1.387 . S
H355 C351 0.950 . S
H356 C353 0.950 . S
C357 C348 1.390 . S
C357 H350 0.950 . S
C357 C354 1.387 . S
C358 C359 1.387 . S
C358 H362 0.950 . S
C358 C367 1.390 . S
C359 C358 1.387 . S
C359 C361 1.387 . S
H360 C367 0.950 . S
C361 C359 1.387 . S
C361 C363 1.390 . S
C361 H365 0.950 . S
H362 C358 0.950 . S
C363 C361 1.390 . S
C363 C364 1.387 . S
C363 H366 0.950 . S
C364 C363 1.387 . S
C364 C367 1.387 . S
H365 C361 0.950 . S
H366 C363 0.950 . S
C367 C358 1.390 . S
C367 H360 0.950 . S
C367 C364 1.387 . S
C368 C369 1.387 . S
C368 H372 0.950 . S
C368 C377 1.390 . S
C369 C368 1.387 . S
C369 C371 1.387 . S
H370 C377 0.950 . S
C371 C369 1.387 . S
C371 C373 1.390 . S
C371 H375 0.950 . S
H372 C368 0.950 . S
C373 C371 1.390 . S
C373 C374 1.387 . S
C373 H376 0.950 . S
C374 C373 1.387 . S
C374 C377 1.387 . S
H375 C371 0.950 . S
H376 C373 0.950 . S
C377 C368 1.390 . S
C377 H370 0.950 . S
C377 C374 1.387 . S
C378 C379 1.387 . S
C378 H382 0.950 . S
C378 C387 1.390 . S
C379 C378 1.387 . S
C379 C381 1.387 . S
H380 C387 0.950 . S
C381 C379 1.387 . S
C381 C383 1.390 . S
C381 H385 0.950 . S
H382 C378 0.950 . S
C383 C381 1.390 . S
C383 C384 1.387 . S
C383 H386 0.950 . S
C384 C383 1.387 . S
C384 C387 1.387 . S
H385 C381 0.950 . S
H386 C383 0.950 . S
C387 C378 1.390 . S
C387 H380 0.950 . S
C387 C384 1.387 . S
C388 C389 1.387 . S
C388 H392 0.950 . S
C388 C397 1.390 . S
C389 C388 1.387 . S
C389 C391 1.387 . S
H390 C397 0.950 . S
C391 C389 1.387 . S
C391 C393 1.390 . S
C391 H395 0.950 . S
H392 C388 0.950 . S
C393 C391 1.390 . S
C393 C394 1.387 . S
C393 H396 0.950 . S
C394 C393 1.387 . S
C394 C397 1.387 . S
H395 C391 0.950 . S
H396 C393 0.950 . S
C397 C388 1.390 . S
C397 H390 0.950 . S
C397 C394 1.387 . S
C398 C399 1.387 . S
C398 H402 0.950 . S
C398 C407 1.390 . S
C399 C398 1.387 . S
C399 C401 1.387 . S
H400 C407 0.950 . S
C401 C399 1.387 . S
C401 C403 1.390 . S
C401 H405 0.950 . S
H402 C398 0.950 . S
C403 C401 1.390 . S
C403 C404 1.387 . S
C403 H406 0.950 . S
C404 C403 1.387 . S
C404 C407 1.387 . S
H405 C401 0.950 . S
H406 C403 0.950 . S
C407 C398 1.390 . S
C407 H400 0.950 . S
C407 C404 1.387 . S
C169 C4 0.894 1_556 S
C174 C144 1.110 . S
C179 C158 0.999 . S
C184 C18 1.007 . S
C189 C88 0.893 . S
C194 C32 1.111 . S
C199 C46 0.894 1_556 S
C204 C102 1.109 . S
C209 C60 0.999 . S
C214 C116 1.006 . S
C219 C130 0.886 . S
C224 C74 1.113 . S
C229 C11 0.806 . S
C234 C109 0.816 . S
C239 C123 1.040 . S
C244 C25 1.033 . S
C249 C137 0.797 . S
C254 C39 0.824 . S
C259 C53 0.798 . S
C264 C151 0.824 . S
C269 C165 1.040 . S
C274 C67 1.032 . S
C279 C81 0.816 . S
C284 C95 0.806 . S
C289 C54 0.689 . S
C294 C12 0.689 . S
C299 C68 0.936 . S
C304 C26 0.936 . S
C309 C82 1.252 . S
C314 C40 1.252 . S
C319 C96 0.689 . S
C324 C138 0.689 . S
C329 C110 1.252 . S
C334 C152 1.252 . S
C339 C124 0.933 . S
C344 C166 0.933 . S
C349 C117 1.102 . S
C354 C5 1.194 . S
C359 C131 1.199 . S
C364 C19 1.104 . S
C369 C145 1.597 . S
C374 C33 1.594 . S
C379 C159 1.096 . S
C384 C47 1.199 . S
C389 C89 1.200 . S
C394 C61 1.097 . S
C399 C75 1.597 . S
C404 C103 1.594 . S
