# Generated by pormake.
# Topology dia, (4)-cn, num edge types: 1
# Building blocks:
#     Node 0, Type 0, BuildingBlock: AZAVOO_clean_sbu_0, # of connection points: 4
#     Node 1, Type 0, BuildingBlock: AZAVOO_clean_sbu_0, # of connection points: 4
#     Node 2, Type 0, BuildingBlock: AZAVOO_clean_sbu_0, # of connection points: 4
#     Node 3, Type 0, BuildingBlock: AZAVOO_clean_sbu_0, # of connection points: 4
#     Node 4, Type 0, BuildingBlock: AZAVOO_clean_sbu_0, # of connection points: 4
#     Node 5, Type 0, BuildingBlock: AZAVOO_clean_sbu_0, # of connection points: 4
#     Node 6, Type 0, BuildingBlock: AZAVOO_clean_sbu_0, # of connection points: 4
#     Node 7, Type 0, BuildingBlock: AZAVOO_clean_sbu_0, # of connection points: 4
#     Edge 8, Type (0, 0), BuildingBlock: FUNLAD_clean_linker_1, # of connection points: 2
#     Edge 9, Type (0, 0), BuildingBlock: FUNLAD_clean_linker_1, # of connection points: 2
#     Edge 10, Type (0, 0), BuildingBlock: FUNLAD_clean_linker_1, # of connection points: 2
#     Edge 11, Type (0, 0), BuildingBlock: FUNLAD_clean_linker_1, # of connection points: 2
#     Edge 12, Type (0, 0), BuildingBlock: FUNLAD_clean_linker_1, # of connection points: 2
#     Edge 13, Type (0, 0), BuildingBlock: FUNLAD_clean_linker_1, # of connection points: 2
#     Edge 14, Type (0, 0), BuildingBlock: FUNLAD_clean_linker_1, # of connection points: 2
#     Edge 15, Type (0, 0), BuildingBlock: FUNLAD_clean_linker_1, # of connection points: 2
#     Edge 16, Type (0, 0), BuildingBlock: FUNLAD_clean_linker_1, # of connection points: 2
#     Edge 17, Type (0, 0), BuildingBlock: FUNLAD_clean_linker_1, # of connection points: 2
#     Edge 18, Type (0, 0), BuildingBlock: FUNLAD_clean_linker_1, # of connection points: 2
#     Edge 19, Type (0, 0), BuildingBlock: FUNLAD_clean_linker_1, # of connection points: 2
#     Edge 20, Type (0, 0), BuildingBlock: FUNLAD_clean_linker_1, # of connection points: 2
#     Edge 21, Type (0, 0), BuildingBlock: FUNLAD_clean_linker_1, # of connection points: 2
#     Edge 22, Type (0, 0), BuildingBlock: FUNLAD_clean_linker_1, # of connection points: 2
#     Edge 23, Type (0, 0), BuildingBlock: FUNLAD_clean_linker_1, # of connection points: 2
# Relax obj value: 0.001
# Max RMSD: 0.027
# Mean RMSD: 0.027
data_MOF--net-dia--node1-AZAVOO_clean_sbu_0--edge1-FUNLAD_clean_linker_1
_symmetry_space_group_name_H-M    P1
_symmetry_Int_Tables_number       1
_symmetry_cell_setting            triclinic
loop_
_symmetry_equiv_pos_as_xyz
'x, y, z'
_cell_length_a     36.224799
_cell_length_b     37.681455
_cell_length_c     36.227422
_cell_angle_alpha  96.141123
_cell_angle_beta   94.312588
_cell_angle_gamma 96.12271
loop_
_atom_site_label
_atom_site_type_symbol
_atom_site_fract_x
_atom_site_fract_y
_atom_site_fract_z
_atom_type_partial_charge
Mg0 Mg 0.14163 0.14757 0.65958 0.0
O1 O 0.09991 0.11266 0.61628 0.0
O2 O 0.06337 0.1478 0.58824 0.0
Mg3 Mg 0.0814 0.2058 0.6148 0.0
C4 C 0.07338 0.11692 0.59258 0.0
C5 C 0.15757 0.07056 0.67165 0.0
O6 O 0.12114 0.06773 0.67151 0.0
O7 O 0.17507 0.16721 0.61333 0.0
O8 O 0.13835 0.20541 0.59057 0.0
O9 O 0.10137 0.14329 0.70287 0.0
O10 O 0.10459 0.18609 0.66559 0.0
C11 C 0.16862 0.19074 0.59154 0.0
C12 C 0.0885 0.17134 0.69152 0.0
O13 O 0.17519 0.10022 0.66591 0.0
Mg14 Mg 0.84427 0.36522 0.86469 0.0
O15 O 0.89166 0.39734 0.90524 0.0
O16 O 0.91579 0.35676 0.93798 0.0
Mg17 Mg 0.88473 0.30074 0.91972 0.0
C18 C 0.91501 0.38897 0.93028 0.0
C19 C 0.80478 0.40571 0.81233 0.0
O20 O 0.78278 0.37693 0.81731 0.0
O21 O 0.88697 0.34281 0.82827 0.0
O22 O 0.90757 0.30148 0.86223 0.0
O23 O 0.8038 0.3724 0.9077 0.0
O24 O 0.8366 0.32628 0.90057 0.0
C25 C 0.907 0.31747 0.83281 0.0
C26 C 0.81293 0.34267 0.91857 0.0
O27 O 0.83714 0.41129 0.82965 0.0
Mg28 Mg 0.63779 0.14969 0.14971 0.0
O29 O 0.59812 0.1064 0.11236 0.0
O30 O 0.55223 0.13265 0.08565 0.0
Mg31 Mg 0.56253 0.19278 0.1061 0.0
C32 C 0.56831 0.10484 0.09083 0.0
C33 C 0.68728 0.09926 0.18631 0.0
O34 O 0.6696 0.11178 0.21437 0.0
O35 O 0.6624 0.17073 0.09932 0.0
O36 O 0.61544 0.19732 0.0745 0.0
O37 O 0.60312 0.14326 0.19737 0.0
O38 O 0.59529 0.18238 0.15693 0.0
C39 C 0.64859 0.18864 0.07478 0.0
C40 C 0.58501 0.16836 0.18592 0.0
O41 O 0.68072 0.10979 0.15457 0.0
Mg42 Mg 0.85199 0.86041 0.35549 0.0
O43 O 0.889 0.90554 0.39338 0.0
O44 O 0.92138 0.88024 0.43641 0.0
Mg45 Mg 0.90579 0.81947 0.42599 0.0
C46 C 0.91265 0.90786 0.42173 0.0
C47 C 0.80351 0.89772 0.30401 0.0
O48 O 0.78052 0.87269 0.31547 0.0
O49 O 0.90168 0.84383 0.32568 0.0
O50 O 0.93226 0.81842 0.37022 0.0
O51 O 0.8073 0.86272 0.39431 0.0
O52 O 0.85183 0.82704 0.39771 0.0
C53 C 0.92867 0.82754 0.33731 0.0
C54 C 0.8229 0.83878 0.411 0.0
O55 O 0.83799 0.90015 0.31479 0.0
Mg56 Mg 0.13214 0.63664 0.15115 0.0
O57 O 0.0906 0.60696 0.10325 0.0
O58 O 0.06015 0.64932 0.07963 0.0
Mg59 Mg 0.08053 0.70441 0.11186 0.0
C60 C 0.0663 0.61662 0.08 0.0
C61 C 0.14896 0.55887 0.16483 0.0
O62 O 0.11276 0.55468 0.16689 0.0
O63 O 0.16991 0.65878 0.10932 0.0
O64 O 0.13807 0.70204 0.08977 0.0
O65 O 0.08837 0.63094 0.19134 0.0
O66 O 0.09824 0.67722 0.1593 0.0
C67 C 0.16674 0.68498 0.09014 0.0
C68 C 0.07912 0.66136 0.18248 0.0
O69 O 0.16443 0.58827 0.15598 0.0
Mg70 Mg 0.35484 0.37065 0.37247 0.0
O71 O 0.40037 0.40257 0.41544 0.0
O72 O 0.42359 0.36156 0.4482 0.0
Mg73 Mg 0.39258 0.30565 0.42896 0.0
C74 C 0.423 0.39394 0.44097 0.0
C75 C 0.31845 0.415 0.32008 0.0
O76 O 0.294 0.38749 0.32376 0.0
O77 O 0.39927 0.34822 0.3382 0.0
O78 O 0.41686 0.3056 0.37209 0.0
O79 O 0.3112 0.37662 0.41254 0.0
O80 O 0.34533 0.33147 0.40793 0.0
C81 C 0.41793 0.32193 0.34294 0.0
C82 C 0.32004 0.34709 0.42414 0.0
O83 O 0.35042 0.41755 0.33791 0.0
Mg84 Mg 0.34456 0.85051 0.85838 0.0
O85 O 0.38738 0.89054 0.89604 0.0
O86 O 0.41692 0.8607 0.93707 0.0
Mg87 Mg 0.39283 0.80146 0.92565 0.0
C88 C 0.41144 0.88976 0.92345 0.0
C89 C 0.30488 0.89406 0.80369 0.0
O90 O 0.27755 0.8705 0.81056 0.0
O91 O 0.3897 0.82717 0.82637 0.0
O92 O 0.41657 0.79619 0.86835 0.0
O93 O 0.30194 0.85826 0.89888 0.0
O94 O 0.34055 0.81659 0.8999 0.0
C95 C 0.41351 0.80644 0.83583 0.0
C96 C 0.31427 0.83203 0.91458 0.0
O97 O 0.33742 0.89291 0.81885 0.0
Mg98 Mg 0.64793 0.64585 0.65203 0.0
O99 O 0.60389 0.61434 0.60738 0.0
O100 O 0.57332 0.65581 0.58229 0.0
Mg101 Mg 0.59557 0.71203 0.61089 0.0
C102 C 0.57893 0.62317 0.58427 0.0
C103 C 0.71496 0.60433 0.66422 0.0
O104 O 0.73032 0.63706 0.66181 0.0
O105 O 0.68338 0.66439 0.60663 0.0
O106 O 0.65165 0.70742 0.58637 0.0
O107 O 0.60663 0.64434 0.69521 0.0
O108 O 0.61596 0.688 0.65962 0.0
C109 C 0.67981 0.68965 0.58627 0.0
C110 C 0.59812 0.67459 0.68507 0.0
O111 O 0.67968 0.5973 0.65876 0.0
H112 H 0.27844 0.3451 0.46546 0.0
C113 C 0.30038 0.33119 0.45364 0.0
H114 H 0.32708 0.28396 0.45057 0.0
H115 H 0.22836 0.28105 0.60023 0.0
H116 H 0.27064 0.33316 0.62755 0.0
H117 H 0.31888 0.36062 0.59139 0.0
H118 H 0.32489 0.33637 0.5276 0.0
C119 C 0.30629 0.2987 0.46342 0.0
C120 C 0.28082 0.27971 0.48717 0.0
C121 C 0.27835 0.29372 0.5247 0.0
C122 C 0.25105 0.27745 0.54577 0.0
C123 C 0.24863 0.29237 0.58298 0.0
C124 C 0.2728 0.32219 0.59904 0.0
C125 C 0.29992 0.33767 0.57866 0.0
C126 C 0.30288 0.32366 0.54197 0.0
H127 H 0.22241 0.18841 0.56654 0.0
C128 C 0.19799 0.20278 0.56803 0.0
H129 H 0.17272 0.2479 0.55311 0.0
H130 H 0.27996 0.24433 0.41674 0.0
H131 H 0.23935 0.19091 0.39053 0.0
H132 H 0.19253 0.16239 0.42748 0.0
H133 H 0.18609 0.18718 0.49095 0.0
C134 C 0.19609 0.23225 0.55041 0.0
C135 C 0.22697 0.24672 0.52958 0.0
C136 C 0.23073 0.23155 0.49277 0.0
C137 C 0.25775 0.24803 0.47151 0.0
C138 C 0.26023 0.23283 0.43439 0.0
C139 C 0.23699 0.20217 0.41891 0.0
C140 C 0.21063 0.18611 0.4397 0.0
C141 C 0.20729 0.20059 0.47615 0.0
H142 H 0.7685 0.58598 0.68188 0.0
C143 C 0.73852 0.57839 0.67857 0.0
H144 H 0.69449 0.54054 0.68963 0.0
H145 H 0.80654 0.42293 0.71377 0.0
H146 H 0.7826 0.40218 0.64982 0.0
H147 H 0.7429 0.4383 0.61432 0.0
H148 H 0.72711 0.49555 0.64248 0.0
C149 C 0.72437 0.54856 0.69213 0.0
C150 C 0.74893 0.52711 0.71331 0.0
C151 C 0.75746 0.49357 0.69667 0.0
C152 C 0.77975 0.47243 0.71739 0.0
C153 C 0.78877 0.43952 0.69967 0.0
C154 C 0.77546 0.42744 0.66289 0.0
C155 C 0.75316 0.44781 0.64288 0.0
C156 C 0.74425 0.48057 0.65939 0.0
H157 H 0.76186 0.42416 0.77547 0.0
C158 C 0.79059 0.43052 0.78736 0.0
H159 H 0.8391 0.46767 0.79111 0.0
H160 H 0.73771 0.59021 0.75391 0.0
H161 H 0.76266 0.61135 0.81729 0.0
H162 H 0.80187 0.57494 0.85291 0.0
H163 H 0.81625 0.51706 0.82532 0.0
C164 C 0.8107 0.46006 0.77882 0.0
C165 C 0.79273 0.4845 0.75507 0.0
C166 C 0.78552 0.51874 0.77121 0.0
C167 C 0.76328 0.53992 0.75047 0.0
C168 C 0.75512 0.57331 0.76795 0.0
C169 C 0.7691 0.58571 0.80445 0.0
C170 C 0.79114 0.5652 0.82452 0.0
C171 C 0.79919 0.53201 0.80832 0.0
H172 H 0.56463 0.04574 0.07866 0.0
C173 C 0.55207 0.06938 0.07165 0.0
H174 H 0.51048 0.0888 0.03758 0.0
H175 H 0.49946 0.94856 0.91977 0.0
H176 H 0.53953 0.98954 0.88892 0.0
H177 H 0.56488 0.04934 0.92061 0.0
H178 H 0.55057 0.06836 0.98357 0.0
C179 C 0.5227 0.06548 0.04596 0.0
C180 C 0.50702 0.02946 0.02689 0.0
C181 C 0.51483 0.01908 0.98978 0.0
C182 C 0.4995 0.98489 0.97119 0.0
C183 C 0.50924 0.97463 0.93476 0.0
C184 C 0.53248 0.99781 0.91681 0.0
C185 C 0.54681 0.03146 0.93468 0.0
C186 C 0.53831 0.04206 0.97078 0.0
H187 H 0.42559 0.9487 0.92976 0.0
C188 C 0.43228 0.92415 0.94067 0.0
H189 H 0.46406 0.90203 0.98187 0.0
H190 H 0.48573 0.04146 0.09765 0.0
H191 H 0.44545 1.00071 0.12856 0.0
H192 H 0.41831 0.94169 0.09626 0.0
H193 H 0.43127 0.92308 0.03289 0.0
C194 C 0.45795 0.92622 0.9699 0.0
C195 C 0.47549 0.96153 0.98944 0.0
C196 C 0.46797 0.97184 0.02672 0.0
C197 C 0.48367 0.00586 0.04542 0.0
C198 C 0.47497 0.01577 0.0823 0.0
C199 C 0.45175 0.99269 0.10035 0.0
C200 C 0.43647 0.95947 0.08216 0.0
C201 C 0.44426 0.94907 0.04577 0.0
H202 H 0.98392 0.81658 0.32123 0.0
C203 C 0.95464 0.81465 0.31122 0.0
H204 H 0.91238 0.78962 0.27061 0.0
H205 H 0.01833 0.7428 0.14771 0.0
H206 H 0.98183 0.78264 0.1161 0.0
H207 H 0.93868 0.81797 0.14974 0.0
H208 H 0.93136 0.81328 0.21511 0.0
C209 C 0.9419 0.79297 0.27998 0.0
C210 C 0.96695 0.77065 0.25931 0.0
C211 C 0.97134 0.77416 0.22131 0.0
C212 C 0.99693 0.75443 0.20219 0.0
C213 C -3e-05 0.75773 0.1639 0.0
C214 C 0.97907 0.78041 0.14534 0.0
C215 C 0.95473 0.80027 0.16426 0.0
C216 C 0.95079 0.7973 0.20179 0.0
H217 H 0.02785 0.66095 0.21193 0.0
C218 C 0.04822 0.67776 0.199 0.0
H219 H 0.06799 0.7302 0.18885 0.0
H220 H 0.95722 0.74883 0.32835 0.0
H221 H 0.99633 0.71231 0.36159 0.0
H222 H 0.04889 0.6874 0.33252 0.0
H223 H 0.06131 0.69739 0.2696 0.0
C224 C 0.04734 0.71354 0.20163 0.0
C225 C 0.01889 0.73203 0.22142 0.0
C226 C 0.01457 0.72869 0.2596 0.0
C227 C 0.98691 0.74619 0.27776 0.0
C228 C 0.97988 0.73868 0.31427 0.0
C229 C 0.00185 0.71739 0.33355 0.0
C230 C 0.03123 0.70315 0.3171 0.0
C231 C 0.03772 0.70872 0.28064 0.0
H232 H 0.32073 0.9429 0.77698 0.0
C233 C 0.29761 0.92319 0.78092 0.0
H234 H 0.23984 0.90696 0.76985 0.0
H235 H 0.23881 0.07885 0.75268 0.0
H236 H 0.25984 0.08914 0.81844 0.0
H237 H 0.27803 0.03939 0.85225 0.0
H238 H 0.27559 0.97923 0.82052 0.0
C239 C 0.26303 0.92695 0.76688 0.0
C240 C 0.25493 0.95774 0.74626 0.0
C241 C 0.25654 0.99284 0.76544 0.0
C242 C 0.24537 0.02142 0.74611 0.0
C243 C 0.24688 0.05613 0.76595 0.0
C244 C 0.25886 0.06243 0.80375 0.0
C245 C 0.26915 0.03444 0.82277 0.0
C246 C 0.26786 1.0 0.80407 0.0
H247 H 0.16039 0.01605 0.6872 0.0
C248 C 0.17729 0.04048 0.68239 0.0
H249 H 0.23166 0.06804 0.68693 0.0
H250 H 0.25081 0.89434 0.70084 0.0
H251 H 0.23037 0.88435 0.63479 0.0
H252 H 0.21114 0.93401 0.60138 0.0
H253 H 0.21211 0.99399 0.63387 0.0
C254 C 0.21444 0.04323 0.68982 0.0
C255 C 0.23167 0.01465 0.70802 0.0
C256 C 0.23155 0.97995 0.68853 0.0
C257 C 0.24299 0.95143 0.70772 0.0
C258 C 0.24224 0.91694 0.68765 0.0
C259 C 0.23069 0.91086 0.64972 0.0
C260 C 0.21984 0.93882 0.63091 0.0
C261 C 0.22029 0.97304 0.64992 0.0
H262 H 0.96153 0.40828 0.9728 0.0
C263 C 0.94202 0.41695 0.95224 0.0
H264 H 0.92271 0.46179 0.9298 0.0
H265 H 0.98024 0.56288 0.07993 0.0
H266 H 0.91341 0.55831 0.0832 0.0
H267 H 0.87098 0.51778 0.03678 0.0
H268 H 0.89523 0.48136 0.98697 0.0
C269 C 0.94285 0.45221 0.94901 0.0
C270 C 0.9686 0.47911 0.97469 0.0
C271 C 0.95398 0.50109 0.00297 0.0
C272 C 0.97844 0.52508 0.02926 0.0
C273 C 0.96302 0.54521 0.05839 0.0
C274 C 0.92466 0.5426 0.06081 0.0
C275 C 0.90078 0.51974 0.03473 0.0
C276 C 0.91509 0.49903 0.00622 0.0
H277 H 0.02364 0.59924 0.03311 0.0
C278 C 0.04306 0.58954 0.05302 0.0
H279 H 0.06292 0.54346 0.07228 0.0
H280 H 0.00572 0.44305 0.9222 0.0
H281 H 0.07263 0.44776 0.91866 0.0
H282 H 0.11507 0.4891 0.96437 0.0
H283 H 0.09084 0.52608 0.01384 0.0
C284 C 0.04332 0.55391 0.0532 0.0
C285 C 0.01755 0.52789 0.02656 0.0
C286 C 0.03215 0.50602 0.99816 0.0
C287 C 0.00768 0.48183 0.97205 0.0
C288 C 0.02303 0.46119 0.9433 0.0
C289 C 0.0614 0.46381 0.94079 0.0
C290 C 0.08529 0.48712 0.9665 0.0
C291 C 0.071 0.50814 0.99481 0.0
H292 H 0.44444 0.32492 0.29 0.0
C293 C 0.44046 0.30904 0.31304 0.0
H294 H 0.45116 0.26158 0.33613 0.0
H295 H 0.48157 0.21035 0.16255 0.0
H296 H 0.41583 0.21438 0.14727 0.0
H297 H 0.37746 0.24035 0.19434 0.0
H298 H 0.40454 0.26267 0.25681 0.0
C299 C 0.45464 0.27748 0.31304 0.0
C300 C 0.47766 0.26393 0.28352 0.0
C301 C 0.46118 0.25084 0.24716 0.0
C302 C 0.48313 0.2353 0.22016 0.0
C303 C 0.4661 0.22232 0.1841 0.0
C304 C 0.42841 0.22442 0.17498 0.0
C305 C 0.40682 0.23908 0.20148 0.0
C306 C 0.42279 0.252 0.23723 0.0
H307 H 0.5482 0.1693 0.23164 0.0
C308 C 0.55609 0.18262 0.20775 0.0
H309 H 0.55131 0.22805 0.17877 0.0
H310 H 0.51807 0.28784 0.35013 0.0
H311 H 0.58404 0.28506 0.36482 0.0
H312 H 0.62236 0.25932 0.31759 0.0
H313 H 0.5949 0.23594 0.25558 0.0
C314 C 0.54358 0.21415 0.20232 0.0
C315 C 0.52119 0.23229 0.2298 0.0
C316 C 0.53797 0.2466 0.26572 0.0
C317 C 0.51606 0.26203 0.29273 0.0
C318 C 0.53338 0.2757 0.32855 0.0
C319 C 0.57127 0.27442 0.33734 0.0
C320 C 0.59283 0.25989 0.31077 0.0
C321 C 0.57659 0.24628 0.27531 0.0
H322 H 0.78183 0.83482 0.45255 0.0
C323 C 0.80645 0.82397 0.44276 0.0
H324 H 0.84157 0.78286 0.44583 0.0
H325 H 0.73857 0.78163 0.59274 0.0
H326 H 0.77584 0.83795 0.61665 0.0
H327 H 0.82305 0.86576 0.57958 0.0
H328 H 0.83312 0.83746 0.51826 0.0
C329 C 0.81809 0.795 0.45664 0.0
C330 C 0.79514 0.77539 0.48194 0.0
C331 C 0.79021 0.79188 0.51794 0.0
C332 C 0.76331 0.77565 0.5394 0.0
C333 C 0.7585 0.79293 0.57512 0.0
C334 C 0.77981 0.82517 0.58925 0.0
C335 C 0.80637 0.84085 0.56837 0.0
C336 C 0.81169 0.82447 0.53314 0.0
H337 H 0.7339 0.68459 0.56252 0.0
C338 C 0.71022 0.70004 0.56328 0.0
H339 H 0.68721 0.7458 0.54701 0.0
H340 H 0.80138 0.73445 0.41587 0.0
H341 H 0.76578 0.67718 0.3929 0.0
H342 H 0.71843 0.64939 0.42978 0.0
H343 H 0.70655 0.67861 0.48988 0.0
C344 C 0.70993 0.72924 0.54499 0.0
C345 C 0.74181 0.74276 0.52496 0.0
C346 C 0.74856 0.72501 0.49004 0.0
C347 C 0.77557 0.74124 0.46861 0.0
C348 C 0.78128 0.72337 0.43341 0.0
C349 C 0.76099 0.69047 0.41983 0.0
C350 C 0.73435 0.67481 0.4406 0.0
C351 C 0.72793 0.69184 0.47519 0.0
H352 H 0.15706 0.5074 0.18627 0.0
C353 C 0.17165 0.53193 0.17865 0.0
H354 H 0.22352 0.56389 0.18074 0.0
H355 H 0.2809 0.49917 0.3265 0.0
H356 H 0.27533 0.56056 0.35056 0.0
H357 H 0.24925 0.60206 0.31013 0.0
H358 H 0.22825 0.5822 0.24544 0.0
C359 C 0.20882 0.53864 0.1864 0.0
C360 C 0.22951 0.51493 0.20877 0.0
C361 C 0.24311 0.52737 0.24619 0.0
C362 C 0.25891 0.50361 0.26932 0.0
C363 C 0.26989 0.51619 0.30724 0.0
C364 C 0.26658 0.5514 0.32156 0.0
C365 C 0.25186 0.57475 0.29882 0.0
C366 C 0.23998 0.56298 0.26166 0.0
H367 H 0.32947 0.46442 0.29245 0.0
C368 C 0.30849 0.4425 0.29606 0.0
H369 H 0.25312 0.41857 0.28219 0.0
H370 H 0.21109 0.48431 0.13699 0.0
H371 H 0.21847 0.42333 0.11199 0.0
H372 H 0.24623 0.38217 0.15177 0.0
H373 H 0.26686 0.40171 0.21673 0.0
C374 C 0.27378 0.44101 0.27934 0.0
C375 C 0.26209 0.46771 0.25458 0.0
C376 C 0.25027 0.45594 0.21659 0.0
C377 C 0.23405 0.47957 0.19366 0.0
C378 C 0.22289 0.4672 0.15578 0.0
C379 C 0.22717 0.43235 0.14102 0.0
C380 C 0.24281 0.40917 0.16341 0.0
C381 C 0.25437 0.4207 0.20072 0.0
H382 H 0.78493 0.34547 0.97067 0.0
C383 C 0.79574 0.32747 0.94972 0.0
H384 H 0.79978 0.27392 0.92838 0.0
H385 H 0.76702 0.19069 0.06359 0.0
H386 H 0.82981 0.17822 0.05285 0.0
H387 H 0.86578 0.21054 0.00906 0.0
H388 H 0.83895 0.25507 0.97528 0.0
C389 C 0.78935 0.29168 0.94986 0.0
C390 C 0.76839 0.27472 0.97856 0.0
C391 C 0.785 0.2496 0.99907 0.0
C392 C 0.76469 0.23174 0.02519 0.0
C393 C 0.78139 0.20563 0.04401 0.0
C394 C 0.81745 0.19813 0.03807 0.0
C395 C 0.83767 0.21628 0.01337 0.0
C396 C 0.82182 0.24172 0.99404 0.0
H397 H 0.65975 0.20347 0.01925 0.0
C398 C 0.67231 0.2027 0.04732 0.0
H399 H 0.71851 0.22017 0.08633 0.0
H400 H 0.72408 0.31509 0.93867 0.0
H401 H 0.66454 0.33289 0.95459 0.0
H402 H 0.63521 0.31157 0.00871 0.0
H403 H 0.66447 0.27078 0.0458 0.0
C404 C 0.70648 0.21998 0.05789 0.0
C405 C 0.72832 0.24002 0.03182 0.0
C406 C 0.71277 0.26703 0.0132 0.0
C407 C 0.73167 0.28252 0.98477 0.0
C408 C 0.7128 0.30511 0.96283 0.0
C409 C 0.67826 0.31518 0.97134 0.0
C410 C 0.66161 0.30297 0.00159 0.0
C411 C 0.67853 0.27918 0.02237 0.0
H412 H 0.75782 0.92281 0.2781 0.0
C413 C 0.78803 0.92429 0.28214 0.0
H414 H 0.83921 0.9533 0.27361 0.0
H415 H 0.69231 0.00435 0.17314 0.0
H416 H 0.68689 0.94501 0.13886 0.0
H417 H 0.73036 0.90163 0.15451 0.0
H418 H 0.77897 0.91723 0.20541 0.0
C419 C 0.80903 0.9509 0.269 0.0
C420 C 0.7909 0.97991 0.25228 0.0
C421 C 0.7644 0.97139 0.22084 0.0
C422 C 0.74076 0.99716 0.21047 0.0
C423 C 0.71225 0.98662 0.18119 0.0
C424 C 0.70864 0.95246 0.16137 0.0
C425 C 0.73301 0.92798 0.17028 0.0
C426 C 0.76057 0.93717 0.19968 0.0
H427 H 0.73047 0.06522 0.16858 0.0
C428 C 0.71413 0.07299 0.19145 0.0
H429 H 0.70236 0.06654 0.24663 0.0
H430 H 0.8426 0.00668 0.31055 0.0
H431 H 0.85205 0.0677 0.34123 0.0
H432 H 0.8136 0.11346 0.32092 0.0
H433 H 0.76515 0.0983 0.26997 0.0
C434 C 0.71804 0.05815 0.22344 0.0
C435 C 0.74538 0.03222 0.23019 0.0
C436 C 0.77442 0.04175 0.25919 0.0
C437 C 0.79708 0.01554 0.27042 0.0
C438 C 0.82483 0.02553 0.30052 0.0
C439 C 0.83058 0.06052 0.31842 0.0
C440 C 0.8089 0.08626 0.30702 0.0
C441 C 0.7811 0.07715 0.27782 0.0
H442 H 0.92087 0.9673 0.4267 0.0
C443 C 0.93 0.94392 0.43826 0.0
H444 H 0.9649 0.92536 0.47964 0.0
H445 H 0.04908 0.09045 0.47996 0.0
H446 H 0.06185 0.07187 0.41638 0.0
H447 H 0.03449 0.01293 0.38408 0.0
H448 H 0.99401 0.97236 0.41492 0.0
C449 C 0.95632 0.94849 0.46715 0.0
C450 C 0.97204 0.98476 0.48557 0.0
C451 C 0.9959 0.00804 0.46708 0.0
C452 C 0.0123 0.04177 0.48595 0.0
C453 C 0.03603 0.0645 0.46695 0.0
C454 C 0.04363 0.05416 0.43049 0.0
C455 C 0.02817 0.02099 0.41228 0.0
C456 C 0.00474 0.99802 0.43026 0.0
H457 H 0.06139 0.05851 0.5764 0.0
C458 C 0.05331 0.08445 0.57047 0.0
H459 H 0.01741 0.11107 0.53684 0.0
H460 H 0.92642 0.94732 0.52854 0.0
H461 H 0.91357 0.96621 0.59193 0.0
H462 H 0.94199 0.02471 0.62448 0.0
H463 H 0.98353 0.0646 0.59384 0.0
C464 C 0.02538 0.08555 0.54415 0.0
C465 C 0.0056 0.05175 0.52348 0.0
C466 C 0.98104 0.0289 0.54163 0.0
C467 C 0.96443 0.99531 0.52274 0.0
C468 C 0.94005 0.97302 0.54161 0.0
C469 C 0.9323 0.98359 0.57798 0.0
C470 C 0.94832 0.0165 0.59631 0.0
C471 C 0.97231 0.03906 0.57846 0.0
H472 H 0.93177 0.32125 0.77907 0.0
C473 C 0.93011 0.30601 0.80286 0.0
H474 H 0.94602 0.26073 0.82714 0.0
H475 H 0.98382 0.1755 0.67864 0.0
H476 H 0.92114 0.14678 0.68237 0.0
H477 H 0.8808 0.17166 0.72816 0.0
H478 H 0.90279 0.22558 0.77028 0.0
C479 C 0.94861 0.27705 0.80428 0.0
C480 C 0.97139 0.26462 0.77414 0.0
C481 C 0.95822 0.23298 0.75 0.0
C482 C 0.98165 0.2183 0.72405 0.0
C483 C 0.9675 0.18717 0.69959 0.0
C484 C 0.9315 0.17058 0.70126 0.0
C485 C 0.90877 0.18462 0.72701 0.0
C486 C 0.92178 0.21549 0.75111 0.0
H487 H 0.04521 0.17286 0.73098 0.0
C488 C 0.05709 0.18621 0.7087 0.0
H489 H 0.05782 0.23145 0.67889 0.0
H490 H 0.00463 0.32656 0.81546 0.0
H491 H 0.06662 0.35598 0.81068 0.0
H492 H 0.10731 0.33059 0.7656 0.0
H493 H 0.08629 0.27558 0.72514 0.0
C494 C 0.0451 0.21707 0.70001 0.0
C495 C 0.01847 0.23493 0.72292 0.0
C496 C 0.03091 0.26771 0.74561 0.0
C497 C 0.00738 0.28249 0.77145 0.0
C498 C 0.02107 0.31441 0.79493 0.0
C499 C 0.05669 0.33154 0.79258 0.0
C500 C 0.0796 0.31724 0.76722 0.0
C501 C 0.06711 0.28563 0.74408 0.0
H502 H 0.57821 0.72435 0.70769 0.0
C503 C 0.57158 0.69531 0.70396 0.0
H504 H 0.53397 0.65116 0.71246 0.0
H505 H 0.46755 0.72373 0.85349 0.0
H506 H 0.48421 0.66769 0.87279 0.0
H507 H 0.51735 0.62744 0.83224 0.0
H508 H 0.53309 0.64256 0.7718 0.0
C509 C 0.54056 0.68019 0.71671 0.0
C510 C 0.51698 0.7026 0.73955 0.0
C511 C 0.50912 0.6938 0.77547 0.0
C512 C 0.49152 0.71783 0.79957 0.0
C513 C 0.48222 0.70739 0.83452 0.0
C514 C 0.49142 0.67508 0.84595 0.0
C515 C 0.50998 0.65239 0.82309 0.0
C516 C 0.51882 0.66147 0.7883 0.0
H517 H 0.42149 0.78506 0.77845 0.0
C518 C 0.43454 0.78967 0.80682 0.0
H519 H 0.47953 0.78187 0.84389 0.0
H520 H 0.51533 0.72184 0.66863 0.0
H521 H 0.50264 0.77973 0.65008 0.0
H522 H 0.48531 0.82699 0.69599 0.0
H523 H 0.47849 0.81588 0.75991 0.0
C524 C 0.46704 0.777 0.8153 0.0
C525 C 0.48368 0.75157 0.78859 0.0
C526 C 0.49129 0.76016 0.75248 0.0
C527 C 0.50535 0.73451 0.72715 0.0
C528 C 0.50774 0.74163 0.68975 0.0
C529 C 0.50016 0.77456 0.67866 0.0
C530 C 0.49015 0.80105 0.70443 0.0
C531 C 0.48585 0.79413 0.74097 0.0
H532 H 0.22142 0.68124 0.06725 0.0
C533 C 0.1977 0.69661 0.06831 0.0
H534 H 0.17452 0.74257 0.05275 0.0
H535 H 0.32125 0.83291 0.02184 0.0
H536 H 0.31149 0.86222 0.08279 0.0
H537 H 0.26388 0.83564 0.12022 0.0
H538 H 0.22593 0.77951 0.09705 0.0
C539 C 0.19734 0.72614 0.05055 0.0
C540 C 0.22881 0.73952 0.02985 0.0
C541 C 0.25059 0.77241 0.04375 0.0
C542 C 0.27767 0.78798 0.02202 0.0
C543 C 0.29961 0.82045 0.03685 0.0
C544 C 0.29448 0.8374 0.07188 0.0
C545 C 0.26769 0.82242 0.09297 0.0
C546 C 0.246 0.79027 0.07927 0.0
H547 H 0.27318 0.83135 0.95639 0.0
C548 C 0.29687 0.81877 0.94665 0.0
H549 H 0.32927 0.77569 0.95037 0.0
H550 H 0.19223 0.67568 0.99522 0.0
H551 H 0.20345 0.64564 0.93534 0.0
H552 H 0.25106 0.67225 0.89801 0.0
H553 H 0.28756 0.72916 0.92028 0.0
C554 C 0.30657 0.78926 0.96095 0.0
C555 C 0.28245 0.77088 0.98622 0.0
C556 C 0.2622 0.73694 0.97323 0.0
C557 C 0.23506 0.72137 0.99494 0.0
C558 C 0.21383 0.68839 0.9804 0.0
C559 C 0.21983 0.6709 0.9459 0.0
C560 C 0.24661 0.68589 0.92488 0.0
C561 C 0.26745 0.7186 0.9381 0.0
H562 H 0.46811 0.41285 0.48515 0.0
C563 C 0.44925 0.42178 0.46417 0.0
H564 H 0.43237 0.46683 0.44018 0.0
H565 H 0.51449 0.53649 0.60735 0.0
H566 H 0.46225 0.50408 0.63221 0.0
H567 H 0.41553 0.46298 0.5907 0.0
H568 H 0.42088 0.45381 0.5242 0.0
C569 C 0.45019 0.45717 0.46149 0.0
C570 C 0.4769 0.48386 0.48653 0.0
C571 C 0.47303 0.48938 0.52539 0.0
C572 C 0.49957 0.51369 0.54927 0.0
C573 C 0.49512 0.51845 0.58794 0.0
C574 C 0.46522 0.50006 0.60258 0.0
C575 C 0.43895 0.47688 0.57923 0.0
C576 C 0.44255 0.47163 0.54108 0.0
H577 H 0.53511 0.60435 0.53874 0.0
C578 C 0.55502 0.59532 0.55866 0.0
H579 H 0.5746 0.55001 0.57991 0.0
H580 H 0.49207 0.48041 0.41348 0.0
H581 H 0.54392 0.51343 0.3886 0.0
H582 H 0.59001 0.55532 0.43002 0.0
H583 H 0.5845 0.56454 0.49657 0.0
C584 C 0.55607 0.55984 0.55933 0.0
C585 C 0.5294 0.53323 0.53425 0.0
C586 C 0.5331 0.52796 0.49538 0.0
C587 C 0.5067 0.50347 0.47151 0.0
C588 C 0.51123 0.49869 0.43286 0.0
C589 C 0.54091 0.51743 0.41821 0.0
C590 C 0.56684 0.54104 0.44153 0.0
C591 C 0.56321 0.54625 0.47968 0.0
loop_
_geom_bond_atom_site_label_1
_geom_bond_atom_site_label_2
_geom_bond_distance
_geom_bond_site_symmetry_2
_ccdc_geom_bond_type
Mg0 O1 2.028 . S
Mg0 O7 1.986 . S
Mg0 O9 2.114 . S
Mg0 O10 2.251 . S
Mg0 O13 2.010 . S
O1 Mg0 2.028 . S
O1 C4 1.250 . S
O2 Mg3 2.028 . S
O2 C4 1.248 . S
Mg3 O2 2.028 . S
Mg3 O8 2.032 . S
Mg3 O10 2.079 . S
C4 O1 1.250 . S
C4 O2 1.248 . S
C5 O6 1.264 . S
C5 O13 1.249 . S
O6 C5 1.264 . S
O7 Mg0 1.986 . S
O7 C11 1.246 . S
O8 Mg3 2.032 . S
O8 C11 1.259 . S
O9 Mg0 2.114 . S
O9 C12 1.252 . S
O10 Mg0 2.251 . S
O10 Mg3 2.079 . S
O10 C12 1.273 . S
C11 O7 1.246 . S
C11 O8 1.259 . S
C12 O9 1.252 . S
C12 O10 1.273 . S
O13 Mg0 2.010 . S
O13 C5 1.249 . S
Mg14 O15 2.028 . S
Mg14 O21 1.986 . S
Mg14 O23 2.114 . S
Mg14 O24 2.251 . S
Mg14 O27 2.010 . S
O15 Mg14 2.028 . S
O15 C18 1.250 . S
O16 Mg17 2.028 . S
O16 C18 1.248 . S
Mg17 O16 2.028 . S
Mg17 O22 2.032 . S
Mg17 O24 2.079 . S
C18 O15 1.250 . S
C18 O16 1.248 . S
C19 O20 1.264 . S
C19 O27 1.249 . S
O20 C19 1.264 . S
O21 Mg14 1.986 . S
O21 C25 1.246 . S
O22 Mg17 2.032 . S
O22 C25 1.259 . S
O23 Mg14 2.114 . S
O23 C26 1.252 . S
O24 Mg14 2.251 . S
O24 Mg17 2.079 . S
O24 C26 1.273 . S
C25 O21 1.246 . S
C25 O22 1.259 . S
C26 O23 1.252 . S
C26 O24 1.273 . S
O27 Mg14 2.010 . S
O27 C19 1.249 . S
Mg28 O29 2.028 . S
Mg28 O35 1.986 . S
Mg28 O37 2.114 . S
Mg28 O38 2.251 . S
Mg28 O41 2.010 . S
O29 Mg28 2.028 . S
O29 C32 1.250 . S
O30 Mg31 2.028 . S
O30 C32 1.248 . S
Mg31 O30 2.028 . S
Mg31 O36 2.032 . S
Mg31 O38 2.079 . S
C32 O29 1.250 . S
C32 O30 1.248 . S
C33 O34 1.264 . S
C33 O41 1.249 . S
O34 C33 1.264 . S
O35 Mg28 1.986 . S
O35 C39 1.246 . S
O36 Mg31 2.032 . S
O36 C39 1.259 . S
O37 Mg28 2.114 . S
O37 C40 1.252 . S
O38 Mg28 2.251 . S
O38 Mg31 2.079 . S
O38 C40 1.273 . S
C39 O35 1.246 . S
C39 O36 1.259 . S
C40 O37 1.252 . S
C40 O38 1.273 . S
O41 Mg28 2.010 . S
O41 C33 1.249 . S
Mg42 O43 2.028 . S
Mg42 O49 1.986 . S
Mg42 O51 2.114 . S
Mg42 O52 2.251 . S
Mg42 O55 2.010 . S
O43 Mg42 2.028 . S
O43 C46 1.250 . S
O44 Mg45 2.028 . S
O44 C46 1.248 . S
Mg45 O44 2.028 . S
Mg45 O50 2.032 . S
Mg45 O52 2.079 . S
C46 O43 1.250 . S
C46 O44 1.248 . S
C47 O48 1.264 . S
C47 O55 1.249 . S
O48 C47 1.264 . S
O49 Mg42 1.986 . S
O49 C53 1.246 . S
O50 Mg45 2.032 . S
O50 C53 1.259 . S
O51 Mg42 2.114 . S
O51 C54 1.252 . S
O52 Mg42 2.251 . S
O52 Mg45 2.079 . S
O52 C54 1.273 . S
C53 O49 1.246 . S
C53 O50 1.259 . S
C54 O51 1.252 . S
C54 O52 1.273 . S
O55 Mg42 2.010 . S
O55 C47 1.249 . S
Mg56 O57 2.028 . S
Mg56 O63 1.986 . S
Mg56 O65 2.114 . S
Mg56 O66 2.251 . S
Mg56 O69 2.010 . S
O57 Mg56 2.028 . S
O57 C60 1.250 . S
O58 Mg59 2.028 . S
O58 C60 1.248 . S
Mg59 O58 2.028 . S
Mg59 O64 2.032 . S
Mg59 O66 2.079 . S
C60 O57 1.250 . S
C60 O58 1.248 . S
C61 O62 1.264 . S
C61 O69 1.249 . S
O62 C61 1.264 . S
O63 Mg56 1.986 . S
O63 C67 1.246 . S
O64 Mg59 2.032 . S
O64 C67 1.259 . S
O65 Mg56 2.114 . S
O65 C68 1.252 . S
O66 Mg56 2.251 . S
O66 Mg59 2.079 . S
O66 C68 1.273 . S
C67 O63 1.246 . S
C67 O64 1.259 . S
C68 O65 1.252 . S
C68 O66 1.273 . S
O69 Mg56 2.010 . S
O69 C61 1.249 . S
Mg70 O71 2.028 . S
Mg70 O77 1.986 . S
Mg70 O79 2.114 . S
Mg70 O80 2.251 . S
Mg70 O83 2.010 . S
O71 Mg70 2.028 . S
O71 C74 1.250 . S
O72 Mg73 2.028 . S
O72 C74 1.248 . S
Mg73 O72 2.028 . S
Mg73 O78 2.032 . S
Mg73 O80 2.079 . S
C74 O71 1.250 . S
C74 O72 1.248 . S
C75 O76 1.264 . S
C75 O83 1.249 . S
O76 C75 1.264 . S
O77 Mg70 1.986 . S
O77 C81 1.246 . S
O78 Mg73 2.032 . S
O78 C81 1.259 . S
O79 Mg70 2.114 . S
O79 C82 1.252 . S
O80 Mg70 2.251 . S
O80 Mg73 2.079 . S
O80 C82 1.273 . S
C81 O77 1.246 . S
C81 O78 1.259 . S
C82 O79 1.252 . S
C82 O80 1.273 . S
O83 Mg70 2.010 . S
O83 C75 1.249 . S
Mg84 O85 2.028 . S
Mg84 O91 1.986 . S
Mg84 O93 2.114 . S
Mg84 O94 2.251 . S
Mg84 O97 2.010 . S
O85 Mg84 2.028 . S
O85 C88 1.250 . S
O86 Mg87 2.028 . S
O86 C88 1.248 . S
Mg87 O86 2.028 . S
Mg87 O92 2.032 . S
Mg87 O94 2.079 . S
C88 O85 1.250 . S
C88 O86 1.248 . S
C89 O90 1.264 . S
C89 O97 1.249 . S
O90 C89 1.264 . S
O91 Mg84 1.986 . S
O91 C95 1.246 . S
O92 Mg87 2.032 . S
O92 C95 1.259 . S
O93 Mg84 2.114 . S
O93 C96 1.252 . S
O94 Mg84 2.251 . S
O94 Mg87 2.079 . S
O94 C96 1.273 . S
C95 O91 1.246 . S
C95 O92 1.259 . S
C96 O93 1.252 . S
C96 O94 1.273 . S
O97 Mg84 2.010 . S
O97 C89 1.249 . S
Mg98 O99 2.028 . S
Mg98 O105 1.986 . S
Mg98 O107 2.114 . S
Mg98 O108 2.251 . S
Mg98 O111 2.010 . S
O99 Mg98 2.028 . S
O99 C102 1.250 . S
O100 Mg101 2.028 . S
O100 C102 1.248 . S
Mg101 O100 2.028 . S
Mg101 O106 2.032 . S
Mg101 O108 2.079 . S
C102 O99 1.250 . S
C102 O100 1.248 . S
C103 O104 1.264 . S
C103 O111 1.249 . S
O104 C103 1.264 . S
O105 Mg98 1.986 . S
O105 C109 1.246 . S
O106 Mg101 2.032 . S
O106 C109 1.259 . S
O107 Mg98 2.114 . S
O107 C110 1.252 . S
O108 Mg98 2.251 . S
O108 Mg101 2.079 . S
O108 C110 1.273 . S
C109 O105 1.246 . S
C109 O106 1.259 . S
C110 O107 1.252 . S
C110 O108 1.273 . S
O111 Mg98 2.010 . S
O111 C103 1.249 . S
H112 C113 0.951 . S
C113 H112 0.951 . S
C113 C119 1.265 . S
H114 C119 0.950 . S
H115 C123 0.949 . S
H116 C124 0.950 . S
H117 C125 0.951 . S
H118 C126 0.951 . S
C119 C113 1.265 . S
C119 H114 0.950 . S
C119 C120 1.478 . S
C120 C119 1.478 . S
C120 C121 1.397 . S
C120 C137 1.394 . S
C121 C120 1.397 . S
C121 C122 1.438 . S
C121 C126 1.429 . S
C122 C121 1.438 . S
C122 C123 1.428 . S
C122 C135 1.394 . S
C123 H115 0.949 . S
C123 C122 1.428 . S
C123 C124 1.345 . S
C124 H116 0.950 . S
C124 C123 1.345 . S
C124 C125 1.424 . S
C125 H117 0.951 . S
C125 C124 1.424 . S
C125 C126 1.347 . S
C126 H118 0.951 . S
C126 C121 1.429 . S
C126 C125 1.347 . S
H127 C128 0.951 . S
C128 H127 0.951 . S
C128 C134 1.265 . S
H129 C134 0.950 . S
H130 C138 0.949 . S
H131 C139 0.950 . S
H132 C140 0.951 . S
H133 C141 0.951 . S
C134 C128 1.265 . S
C134 H129 0.950 . S
C134 C135 1.478 . S
C135 C122 1.394 . S
C135 C134 1.478 . S
C135 C136 1.397 . S
C136 C135 1.397 . S
C136 C137 1.438 . S
C136 C141 1.429 . S
C137 C120 1.394 . S
C137 C136 1.438 . S
C137 C138 1.428 . S
C138 H130 0.949 . S
C138 C137 1.428 . S
C138 C139 1.345 . S
C139 H131 0.950 . S
C139 C138 1.345 . S
C139 C140 1.424 . S
C140 H132 0.951 . S
C140 C139 1.424 . S
C140 C141 1.347 . S
C141 H133 0.951 . S
C141 C136 1.429 . S
C141 C140 1.347 . S
H142 C143 0.951 . S
C143 H142 0.951 . S
C143 C149 1.265 . S
H144 C149 0.950 . S
H145 C153 0.949 . S
H146 C154 0.950 . S
H147 C155 0.951 . S
H148 C156 0.951 . S
C149 C143 1.265 . S
C149 H144 0.950 . S
C149 C150 1.478 . S
C150 C149 1.478 . S
C150 C151 1.397 . S
C150 C167 1.394 . S
C151 C150 1.397 . S
C151 C152 1.438 . S
C151 C156 1.429 . S
C152 C151 1.438 . S
C152 C153 1.428 . S
C152 C165 1.394 . S
C153 H145 0.949 . S
C153 C152 1.428 . S
C153 C154 1.345 . S
C154 H146 0.950 . S
C154 C153 1.345 . S
C154 C155 1.424 . S
C155 H147 0.951 . S
C155 C154 1.424 . S
C155 C156 1.347 . S
C156 H148 0.951 . S
C156 C151 1.429 . S
C156 C155 1.347 . S
H157 C158 0.951 . S
C158 H157 0.951 . S
C158 C164 1.265 . S
H159 C164 0.950 . S
H160 C168 0.949 . S
H161 C169 0.950 . S
H162 C170 0.951 . S
H163 C171 0.951 . S
C164 C158 1.265 . S
C164 H159 0.950 . S
C164 C165 1.478 . S
C165 C152 1.394 . S
C165 C164 1.478 . S
C165 C166 1.397 . S
C166 C165 1.397 . S
C166 C167 1.438 . S
C166 C171 1.429 . S
C167 C150 1.394 . S
C167 C166 1.438 . S
C167 C168 1.428 . S
C168 H160 0.949 . S
C168 C167 1.428 . S
C168 C169 1.345 . S
C169 H161 0.950 . S
C169 C168 1.345 . S
C169 C170 1.424 . S
C170 H162 0.951 . S
C170 C169 1.424 . S
C170 C171 1.347 . S
C171 H163 0.951 . S
C171 C166 1.429 . S
C171 C170 1.347 . S
H172 C173 0.951 . S
C173 H172 0.951 . S
C173 C179 1.265 . S
H174 C179 0.950 . S
H175 C183 0.949 . S
H176 C184 0.950 . S
H177 C185 0.951 . S
H178 C186 0.951 . S
C179 C173 1.265 . S
C179 H174 0.950 . S
C179 C180 1.478 . S
C180 C179 1.478 . S
C180 C181 1.397 1_554 S
C180 C197 1.394 . S
C181 C180 1.397 1_556 S
C181 C182 1.438 1_545 S
C181 C186 1.429 . S
C182 C181 1.438 1_565 S
C182 C183 1.428 . S
C182 C195 1.394 . S
C183 H175 0.949 . S
C183 C182 1.428 . S
C183 C184 1.345 . S
C184 H176 0.950 . S
C184 C183 1.345 . S
C184 C185 1.424 1_565 S
C185 H177 0.951 . S
C185 C184 1.424 1_545 S
C185 C186 1.347 . S
C186 H178 0.951 . S
C186 C181 1.429 . S
C186 C185 1.347 . S
H187 C188 0.951 . S
C188 H187 0.951 . S
C188 C194 1.265 . S
H189 C194 0.950 . S
H190 C198 0.949 . S
H191 C199 0.950 . S
H192 C200 0.951 . S
H193 C201 0.951 . S
C194 C188 1.265 . S
C194 H189 0.950 . S
C194 C195 1.478 . S
C195 C182 1.394 . S
C195 C194 1.478 . S
C195 C196 1.397 1_556 S
C196 C195 1.397 1_554 S
C196 C197 1.438 1_565 S
C196 C201 1.429 . S
C197 C180 1.394 . S
C197 C196 1.438 1_545 S
C197 C198 1.428 . S
C198 H190 0.949 . S
C198 C197 1.428 . S
C198 C199 1.345 . S
C199 H191 0.950 . S
C199 C198 1.345 . S
C199 C200 1.424 1_545 S
C200 H192 0.951 . S
C200 C199 1.424 1_565 S
C200 C201 1.347 . S
C201 H193 0.951 . S
C201 C196 1.429 . S
C201 C200 1.347 . S
H202 C203 0.951 . S
C203 H202 0.951 . S
C203 C209 1.265 . S
H204 C209 0.950 . S
H205 C213 0.949 . S
H206 C214 0.950 1_455 S
H207 C215 0.951 . S
H208 C216 0.951 . S
C209 C203 1.265 . S
C209 H204 0.950 . S
C209 C210 1.478 . S
C210 C209 1.478 . S
C210 C211 1.397 . S
C210 C227 1.394 . S
C211 C210 1.397 . S
C211 C212 1.438 1_655 S
C211 C216 1.429 . S
C212 C211 1.438 1_455 S
C212 C213 1.428 . S
C212 C225 1.394 . S
C213 H205 0.949 . S
C213 C212 1.428 . S
C213 C214 1.345 1_455 S
C214 H206 0.950 1_655 S
C214 C213 1.345 1_655 S
C214 C215 1.424 . S
C215 H207 0.951 . S
C215 C214 1.424 . S
C215 C216 1.347 . S
C216 H208 0.951 . S
C216 C211 1.429 . S
C216 C215 1.347 . S
H217 C218 0.951 . S
C218 H217 0.951 . S
C218 C224 1.265 . S
H219 C224 0.950 . S
H220 C228 0.949 . S
H221 C229 0.950 1_655 S
H222 C230 0.951 . S
H223 C231 0.951 . S
C224 C218 1.265 . S
C224 H219 0.950 . S
C224 C225 1.478 . S
C225 C212 1.394 . S
C225 C224 1.478 . S
C225 C226 1.397 . S
C226 C225 1.397 . S
C226 C227 1.438 1_455 S
C226 C231 1.429 . S
C227 C210 1.394 . S
C227 C226 1.438 1_655 S
C227 C228 1.428 . S
C228 H220 0.949 . S
C228 C227 1.428 . S
C228 C229 1.345 1_655 S
C229 H221 0.950 1_455 S
C229 C228 1.345 1_455 S
C229 C230 1.424 . S
C230 H222 0.951 . S
C230 C229 1.424 . S
C230 C231 1.347 . S
C231 H223 0.951 . S
C231 C226 1.429 . S
C231 C230 1.347 . S
H232 C233 0.951 . S
C233 H232 0.951 . S
C233 C239 1.265 . S
H234 C239 0.950 . S
H235 C243 0.949 . S
H236 C244 0.950 . S
H237 C245 0.951 . S
H238 C246 0.951 . S
C239 C233 1.265 . S
C239 H234 0.950 . S
C239 C240 1.478 . S
C240 C239 1.478 . S
C240 C241 1.397 1_565 S
C240 C257 1.394 . S
C241 C240 1.397 1_545 S
C241 C242 1.438 . S
C241 C246 1.429 . S
C242 C241 1.438 . S
C242 C243 1.428 . S
C242 C255 1.394 . S
C243 H235 0.949 . S
C243 C242 1.428 . S
C243 C244 1.345 . S
C244 H236 0.950 . S
C244 C243 1.345 . S
C244 C245 1.424 . S
C245 H237 0.951 . S
C245 C244 1.424 . S
C245 C246 1.347 . S
C246 H238 0.951 . S
C246 C241 1.429 . S
C246 C245 1.347 . S
H247 C248 0.951 . S
C248 H247 0.951 . S
C248 C254 1.265 . S
H249 C254 0.950 . S
H250 C258 0.949 . S
H251 C259 0.950 . S
H252 C260 0.951 . S
H253 C261 0.951 . S
C254 C248 1.265 . S
C254 H249 0.950 . S
C254 C255 1.478 . S
C255 C242 1.394 . S
C255 C254 1.478 . S
C255 C256 1.397 1_545 S
C256 C255 1.397 1_565 S
C256 C257 1.438 . S
C256 C261 1.429 . S
C257 C240 1.394 . S
C257 C256 1.438 . S
C257 C258 1.428 . S
C258 H250 0.949 . S
C258 C257 1.428 . S
C258 C259 1.345 . S
C259 H251 0.950 . S
C259 C258 1.345 . S
C259 C260 1.424 . S
C260 H252 0.951 . S
C260 C259 1.424 . S
C260 C261 1.347 . S
C261 H253 0.951 . S
C261 C256 1.429 . S
C261 C260 1.347 . S
H262 C263 0.951 . S
C263 H262 0.951 . S
C263 C269 1.265 . S
H264 C269 0.950 . S
H265 C273 0.949 1_455 S
H266 C274 0.950 . S
H267 C275 0.951 . S
H268 C276 0.951 . S
C269 C263 1.265 . S
C269 H264 0.950 . S
C269 C270 1.478 . S
C270 C269 1.478 . S
C270 C271 1.397 . S
C270 C287 1.379 1_655 S
C271 C270 1.397 . S
C271 C272 1.438 1_556 S
C271 C276 1.429 . S
C272 C271 1.438 1_554 S
C272 C273 1.428 . S
C272 C285 1.394 1_655 S
C273 H265 0.949 1_655 S
C273 C272 1.428 . S
C273 C274 1.345 1_554 S
C274 H266 0.950 . S
C274 C273 1.345 1_556 S
C274 C275 1.424 . S
C275 H267 0.951 . S
C275 C274 1.424 . S
C275 C276 1.347 . S
C276 H268 0.951 . S
C276 C271 1.429 . S
C276 C275 1.347 . S
H277 C278 0.951 . S
C278 H277 0.951 . S
C278 C284 1.265 . S
H279 C284 0.950 . S
H280 C288 0.949 1_655 S
H281 C289 0.950 . S
H282 C290 0.951 . S
H283 C291 0.951 . S
C284 C278 1.265 . S
C284 H279 0.950 . S
C284 C285 1.478 . S
C285 C272 1.394 1_455 S
C285 C284 1.478 . S
C285 C286 1.397 . S
C286 C285 1.397 . S
C286 C287 1.449 1_554 S
C286 C291 1.429 . S
C287 C270 1.379 1_455 S
C287 C286 1.449 1_556 S
C287 C288 1.433 . S
C288 H280 0.949 1_455 S
C288 C287 1.433 . S
C288 C289 1.345 1_556 S
C289 H281 0.950 . S
C289 C288 1.345 1_554 S
C289 C290 1.424 . S
C290 H282 0.951 . S
C290 C289 1.424 . S
C290 C291 1.347 . S
C291 H283 0.951 . S
C291 C286 1.429 . S
C291 C290 1.347 . S
H292 C293 0.951 . S
C293 H292 0.951 . S
C293 C299 1.265 . S
H294 C299 0.950 . S
H295 C303 0.949 . S
H296 C304 0.950 . S
H297 C305 0.951 . S
H298 C306 0.951 . S
C299 C293 1.265 . S
C299 H294 0.950 . S
C299 C300 1.478 . S
C300 C299 1.478 . S
C300 C301 1.397 . S
C300 C317 1.394 . S
C301 C300 1.397 . S
C301 C302 1.438 . S
C301 C306 1.429 . S
C302 C301 1.438 . S
C302 C303 1.428 . S
C302 C315 1.394 . S
C303 H295 0.949 . S
C303 C302 1.428 . S
C303 C304 1.345 . S
C304 H296 0.950 . S
C304 C303 1.345 . S
C304 C305 1.424 . S
C305 H297 0.951 . S
C305 C304 1.424 . S
C305 C306 1.347 . S
C306 H298 0.951 . S
C306 C301 1.429 . S
C306 C305 1.347 . S
H307 C308 0.951 . S
C308 H307 0.951 . S
C308 C314 1.265 . S
H309 C314 0.950 . S
H310 C318 0.949 . S
H311 C319 0.950 . S
H312 C320 0.951 . S
H313 C321 0.951 . S
C314 C308 1.265 . S
C314 H309 0.950 . S
C314 C315 1.478 . S
C315 C302 1.394 . S
C315 C314 1.478 . S
C315 C316 1.397 . S
C316 C315 1.397 . S
C316 C317 1.438 . S
C316 C321 1.429 . S
C317 C300 1.394 . S
C317 C316 1.438 . S
C317 C318 1.428 . S
C318 H310 0.949 . S
C318 C317 1.428 . S
C318 C319 1.345 . S
C319 H311 0.950 . S
C319 C318 1.345 . S
C319 C320 1.424 . S
C320 H312 0.951 . S
C320 C319 1.424 . S
C320 C321 1.347 . S
C321 H313 0.951 . S
C321 C316 1.429 . S
C321 C320 1.347 . S
H322 C323 0.951 . S
C323 H322 0.951 . S
C323 C329 1.265 . S
H324 C329 0.950 . S
H325 C333 0.949 . S
H326 C334 0.950 . S
H327 C335 0.951 . S
H328 C336 0.951 . S
C329 C323 1.265 . S
C329 H324 0.950 . S
C329 C330 1.478 . S
C330 C329 1.478 . S
C330 C331 1.397 . S
C330 C347 1.394 . S
C331 C330 1.397 . S
C331 C332 1.438 . S
C331 C336 1.429 . S
C332 C331 1.438 . S
C332 C333 1.428 . S
C332 C345 1.394 . S
C333 H325 0.949 . S
C333 C332 1.428 . S
C333 C334 1.345 . S
C334 H326 0.950 . S
C334 C333 1.345 . S
C334 C335 1.424 . S
C335 H327 0.951 . S
C335 C334 1.424 . S
C335 C336 1.347 . S
C336 H328 0.951 . S
C336 C331 1.429 . S
C336 C335 1.347 . S
H337 C338 0.951 . S
C338 H337 0.951 . S
C338 C344 1.265 . S
H339 C344 0.950 . S
H340 C348 0.949 . S
H341 C349 0.950 . S
H342 C350 0.951 . S
H343 C351 0.951 . S
C344 C338 1.265 . S
C344 H339 0.950 . S
C344 C345 1.478 . S
C345 C332 1.394 . S
C345 C344 1.478 . S
C345 C346 1.397 . S
C346 C345 1.397 . S
C346 C347 1.438 . S
C346 C351 1.429 . S
C347 C330 1.394 . S
C347 C346 1.438 . S
C347 C348 1.428 . S
C348 H340 0.949 . S
C348 C347 1.428 . S
C348 C349 1.345 . S
C349 H341 0.950 . S
C349 C348 1.345 . S
C349 C350 1.424 . S
C350 H342 0.951 . S
C350 C349 1.424 . S
C350 C351 1.347 . S
C351 H343 0.951 . S
C351 C346 1.429 . S
C351 C350 1.347 . S
H352 C353 0.951 . S
C353 H352 0.951 . S
C353 C359 1.265 . S
H354 C359 0.950 . S
H355 C363 0.949 . S
H356 C364 0.950 . S
H357 C365 0.951 . S
H358 C366 0.951 . S
C359 C353 1.265 . S
C359 H354 0.950 . S
C359 C360 1.478 . S
C360 C359 1.478 . S
C360 C361 1.397 . S
C360 C377 1.394 . S
C361 C360 1.397 . S
C361 C362 1.438 . S
C361 C366 1.429 . S
C362 C361 1.438 . S
C362 C363 1.428 . S
C362 C375 1.394 . S
C363 H355 0.949 . S
C363 C362 1.428 . S
C363 C364 1.345 . S
C364 H356 0.950 . S
C364 C363 1.345 . S
C364 C365 1.424 . S
C365 H357 0.951 . S
C365 C364 1.424 . S
C365 C366 1.347 . S
C366 H358 0.951 . S
C366 C361 1.429 . S
C366 C365 1.347 . S
H367 C368 0.951 . S
C368 H367 0.951 . S
C368 C374 1.265 . S
H369 C374 0.950 . S
H370 C378 0.949 . S
H371 C379 0.950 . S
H372 C380 0.951 . S
H373 C381 0.951 . S
C374 C368 1.265 . S
C374 H369 0.950 . S
C374 C375 1.478 . S
C375 C362 1.394 . S
C375 C374 1.478 . S
C375 C376 1.397 . S
C376 C375 1.397 . S
C376 C377 1.438 . S
C376 C381 1.429 . S
C377 C360 1.394 . S
C377 C376 1.438 . S
C377 C378 1.428 . S
C378 H370 0.949 . S
C378 C377 1.428 . S
C378 C379 1.345 . S
C379 H371 0.950 . S
C379 C378 1.345 . S
C379 C380 1.424 . S
C380 H372 0.951 . S
C380 C379 1.424 . S
C380 C381 1.347 . S
C381 H373 0.951 . S
C381 C376 1.429 . S
C381 C380 1.347 . S
H382 C383 0.951 . S
C383 H382 0.951 . S
C383 C389 1.265 . S
H384 C389 0.950 . S
H385 C393 0.949 . S
H386 C394 0.950 . S
H387 C395 0.951 . S
H388 C396 0.951 . S
C389 C383 1.265 . S
C389 H384 0.950 . S
C389 C390 1.478 . S
C390 C389 1.478 . S
C390 C391 1.397 . S
C390 C407 1.394 . S
C391 C390 1.397 . S
C391 C392 1.438 1_556 S
C391 C396 1.429 . S
C392 C391 1.438 1_554 S
C392 C393 1.428 . S
C392 C405 1.394 . S
C393 H385 0.949 . S
C393 C392 1.428 . S
C393 C394 1.345 1_554 S
C394 H386 0.950 . S
C394 C393 1.345 1_556 S
C394 C395 1.424 . S
C395 H387 0.951 . S
C395 C394 1.424 . S
C395 C396 1.347 . S
C396 H388 0.951 . S
C396 C391 1.429 . S
C396 C395 1.347 . S
H397 C398 0.951 . S
C398 H397 0.951 . S
C398 C404 1.265 . S
H399 C404 0.950 . S
H400 C408 0.949 . S
H401 C409 0.950 . S
H402 C410 0.951 . S
H403 C411 0.951 . S
C404 C398 1.265 . S
C404 H399 0.950 . S
C404 C405 1.478 . S
C405 C392 1.394 . S
C405 C404 1.478 . S
C405 C406 1.397 . S
C406 C405 1.397 . S
C406 C407 1.438 1_554 S
C406 C411 1.429 . S
C407 C390 1.394 . S
C407 C406 1.438 1_556 S
C407 C408 1.428 . S
C408 H400 0.949 . S
C408 C407 1.428 . S
C408 C409 1.345 1_556 S
C409 H401 0.950 . S
C409 C408 1.345 1_554 S
C409 C410 1.424 . S
C410 H402 0.951 . S
C410 C409 1.424 . S
C410 C411 1.347 . S
C411 H403 0.951 . S
C411 C406 1.429 . S
C411 C410 1.347 . S
H412 C413 0.951 . S
C413 H412 0.951 . S
C413 C419 1.265 . S
H414 C419 0.950 . S
H415 C423 0.949 . S
H416 C424 0.950 . S
H417 C425 0.951 . S
H418 C426 0.951 . S
C419 C413 1.265 . S
C419 H414 0.950 . S
C419 C420 1.478 . S
C420 C419 1.478 . S
C420 C421 1.397 . S
C420 C437 1.394 1_565 S
C421 C420 1.397 . S
C421 C422 1.438 . S
C421 C426 1.429 . S
C422 C421 1.438 . S
C422 C423 1.428 . S
C422 C435 1.394 1_565 S
C423 H415 0.949 . S
C423 C422 1.428 . S
C423 C424 1.345 . S
C424 H416 0.950 . S
C424 C423 1.345 . S
C424 C425 1.424 . S
C425 H417 0.951 . S
C425 C424 1.424 . S
C425 C426 1.347 . S
C426 H418 0.951 . S
C426 C421 1.429 . S
C426 C425 1.347 . S
H427 C428 0.951 . S
C428 H427 0.951 . S
C428 C434 1.265 . S
H429 C434 0.950 . S
H430 C438 0.949 . S
H431 C439 0.950 . S
H432 C440 0.951 . S
H433 C441 0.951 . S
C434 C428 1.265 . S
C434 H429 0.950 . S
C434 C435 1.478 . S
C435 C422 1.394 1_545 S
C435 C434 1.478 . S
C435 C436 1.397 . S
C436 C435 1.397 . S
C436 C437 1.438 . S
C436 C441 1.429 . S
C437 C420 1.394 1_545 S
C437 C436 1.438 . S
C437 C438 1.428 . S
C438 H430 0.949 . S
C438 C437 1.428 . S
C438 C439 1.345 . S
C439 H431 0.950 . S
C439 C438 1.345 . S
C439 C440 1.424 . S
C440 H432 0.951 . S
C440 C439 1.424 . S
C440 C441 1.347 . S
C441 H433 0.951 . S
C441 C436 1.429 . S
C441 C440 1.347 . S
H442 C443 0.951 . S
C443 H442 0.951 . S
C443 C449 1.265 . S
H444 C449 0.950 . S
H445 C453 0.949 . S
H446 C454 0.950 . S
H447 C455 0.951 . S
H448 C456 0.951 . S
C449 C443 1.265 . S
C449 H444 0.950 . S
C449 C450 1.478 . S
C450 C449 1.478 . S
C450 C451 1.397 1_655 S
C450 C467 1.394 . S
C451 C450 1.397 1_455 S
C451 C452 1.438 1_565 S
C451 C456 1.429 . S
C452 C451 1.438 1_545 S
C452 C453 1.428 . S
C452 C465 1.394 . S
C453 H445 0.949 . S
C453 C452 1.428 . S
C453 C454 1.345 . S
C454 H446 0.950 . S
C454 C453 1.345 . S
C454 C455 1.424 . S
C455 H447 0.951 . S
C455 C454 1.424 . S
C455 C456 1.347 1_545 S
C456 H448 0.951 . S
C456 C451 1.429 . S
C456 C455 1.347 1_565 S
H457 C458 0.951 . S
C458 H457 0.951 . S
C458 C464 1.265 . S
H459 C464 0.950 . S
H460 C468 0.949 . S
H461 C469 0.950 . S
H462 C470 0.951 . S
H463 C471 0.951 . S
C464 C458 1.265 . S
C464 H459 0.950 . S
C464 C465 1.478 . S
C465 C452 1.394 . S
C465 C464 1.478 . S
C465 C466 1.397 1_455 S
C466 C465 1.397 1_655 S
C466 C467 1.438 1_545 S
C466 C471 1.429 . S
C467 C450 1.394 . S
C467 C466 1.438 1_565 S
C467 C468 1.428 . S
C468 H460 0.949 . S
C468 C467 1.428 . S
C468 C469 1.345 . S
C469 H461 0.950 . S
C469 C468 1.345 . S
C469 C470 1.424 . S
C470 H462 0.951 . S
C470 C469 1.424 . S
C470 C471 1.347 1_565 S
C471 H463 0.951 . S
C471 C466 1.429 . S
C471 C470 1.347 1_545 S
H472 C473 0.951 . S
C473 H472 0.951 . S
C473 C479 1.265 . S
H474 C479 0.950 . S
H475 C483 0.949 . S
H476 C484 0.950 . S
H477 C485 0.951 . S
H478 C486 0.951 . S
C479 C473 1.265 . S
C479 H474 0.950 . S
C479 C480 1.478 . S
C480 C479 1.478 . S
C480 C481 1.397 . S
C480 C497 1.394 1_655 S
C481 C480 1.397 . S
C481 C482 1.438 . S
C481 C486 1.429 . S
C482 C481 1.438 . S
C482 C483 1.428 . S
C482 C495 1.394 1_655 S
C483 H475 0.949 . S
C483 C482 1.428 . S
C483 C484 1.345 . S
C484 H476 0.950 . S
C484 C483 1.345 . S
C484 C485 1.424 . S
C485 H477 0.951 . S
C485 C484 1.424 . S
C485 C486 1.347 . S
C486 H478 0.951 . S
C486 C481 1.429 . S
C486 C485 1.347 . S
H487 C488 0.951 . S
C488 H487 0.951 . S
C488 C494 1.265 . S
H489 C494 0.950 . S
H490 C498 0.949 . S
H491 C499 0.950 . S
H492 C500 0.951 . S
H493 C501 0.951 . S
C494 C488 1.265 . S
C494 H489 0.950 . S
C494 C495 1.478 . S
C495 C482 1.394 1_455 S
C495 C494 1.478 . S
C495 C496 1.397 . S
C496 C495 1.397 . S
C496 C497 1.438 . S
C496 C501 1.429 . S
C497 C480 1.394 1_455 S
C497 C496 1.438 . S
C497 C498 1.428 . S
C498 H490 0.949 . S
C498 C497 1.428 . S
C498 C499 1.345 . S
C499 H491 0.950 . S
C499 C498 1.345 . S
C499 C500 1.424 . S
C500 H492 0.951 . S
C500 C499 1.424 . S
C500 C501 1.347 . S
C501 H493 0.951 . S
C501 C496 1.429 . S
C501 C500 1.347 . S
H502 C503 0.951 . S
C503 H502 0.951 . S
C503 C509 1.265 . S
H504 C509 0.950 . S
H505 C513 0.949 . S
H506 C514 0.950 . S
H507 C515 0.951 . S
H508 C516 0.951 . S
C509 C503 1.265 . S
C509 H504 0.950 . S
C509 C510 1.478 . S
C510 C509 1.478 . S
C510 C511 1.397 . S
C510 C527 1.394 . S
C511 C510 1.397 . S
C511 C512 1.438 . S
C511 C516 1.429 . S
C512 C511 1.438 . S
C512 C513 1.428 . S
C512 C525 1.394 . S
C513 H505 0.949 . S
C513 C512 1.428 . S
C513 C514 1.345 . S
C514 H506 0.950 . S
C514 C513 1.345 . S
C514 C515 1.424 . S
C515 H507 0.951 . S
C515 C514 1.424 . S
C515 C516 1.347 . S
C516 H508 0.951 . S
C516 C511 1.429 . S
C516 C515 1.347 . S
H517 C518 0.951 . S
C518 H517 0.951 . S
C518 C524 1.265 . S
H519 C524 0.950 . S
H520 C528 0.949 . S
H521 C529 0.950 . S
H522 C530 0.951 . S
H523 C531 0.951 . S
C524 C518 1.265 . S
C524 H519 0.950 . S
C524 C525 1.478 . S
C525 C512 1.394 . S
C525 C524 1.478 . S
C525 C526 1.397 . S
C526 C525 1.397 . S
C526 C527 1.438 . S
C526 C531 1.429 . S
C527 C510 1.394 . S
C527 C526 1.438 . S
C527 C528 1.428 . S
C528 H520 0.949 . S
C528 C527 1.428 . S
C528 C529 1.345 . S
C529 H521 0.950 . S
C529 C528 1.345 . S
C529 C530 1.424 . S
C530 H522 0.951 . S
C530 C529 1.424 . S
C530 C531 1.347 . S
C531 H523 0.951 . S
C531 C526 1.429 . S
C531 C530 1.347 . S
H532 C533 0.951 . S
C533 H532 0.951 . S
C533 C539 1.265 . S
H534 C539 0.950 . S
H535 C543 0.949 . S
H536 C544 0.950 . S
H537 C545 0.951 . S
H538 C546 0.951 . S
C539 C533 1.265 . S
C539 H534 0.950 . S
C539 C540 1.478 . S
C540 C539 1.478 . S
C540 C541 1.397 . S
C540 C557 1.394 1_554 S
C541 C540 1.397 . S
C541 C542 1.438 . S
C541 C546 1.429 . S
C542 C541 1.438 . S
C542 C543 1.428 . S
C542 C555 1.394 1_554 S
C543 H535 0.949 . S
C543 C542 1.428 . S
C543 C544 1.345 . S
C544 H536 0.950 . S
C544 C543 1.345 . S
C544 C545 1.424 . S
C545 H537 0.951 . S
C545 C544 1.424 . S
C545 C546 1.347 . S
C546 H538 0.951 . S
C546 C541 1.429 . S
C546 C545 1.347 . S
H547 C548 0.951 . S
C548 H547 0.951 . S
C548 C554 1.265 . S
H549 C554 0.950 . S
H550 C558 0.949 . S
H551 C559 0.950 . S
H552 C560 0.951 . S
H553 C561 0.951 . S
C554 C548 1.265 . S
C554 H549 0.950 . S
C554 C555 1.478 . S
C555 C542 1.394 1_556 S
C555 C554 1.478 . S
C555 C556 1.397 . S
C556 C555 1.397 . S
C556 C557 1.438 . S
C556 C561 1.429 . S
C557 C540 1.394 1_556 S
C557 C556 1.438 . S
C557 C558 1.428 . S
C558 H550 0.949 . S
C558 C557 1.428 . S
C558 C559 1.345 . S
C559 H551 0.950 . S
C559 C558 1.345 . S
C559 C560 1.424 . S
C560 H552 0.951 . S
C560 C559 1.424 . S
C560 C561 1.347 . S
C561 H553 0.951 . S
C561 C556 1.429 . S
C561 C560 1.347 . S
H562 C563 0.951 . S
C563 H562 0.951 . S
C563 C569 1.265 . S
H564 C569 0.950 . S
H565 C573 0.949 . S
H566 C574 0.950 . S
H567 C575 0.951 . S
H568 C576 0.951 . S
C569 C563 1.265 . S
C569 H564 0.950 . S
C569 C570 1.478 . S
C570 C569 1.478 . S
C570 C571 1.397 . S
C570 C587 1.394 . S
C571 C570 1.397 . S
C571 C572 1.438 . S
C571 C576 1.429 . S
C572 C571 1.438 . S
C572 C573 1.428 . S
C572 C585 1.394 . S
C573 H565 0.949 . S
C573 C572 1.428 . S
C573 C574 1.345 . S
C574 H566 0.950 . S
C574 C573 1.345 . S
C574 C575 1.424 . S
C575 H567 0.951 . S
C575 C574 1.424 . S
C575 C576 1.347 . S
C576 H568 0.951 . S
C576 C571 1.429 . S
C576 C575 1.347 . S
H577 C578 0.951 . S
C578 H577 0.951 . S
C578 C584 1.265 . S
H579 C584 0.950 . S
H580 C588 0.949 . S
H581 C589 0.950 . S
H582 C590 0.951 . S
H583 C591 0.951 . S
C584 C578 1.265 . S
C584 H579 0.950 . S
C584 C585 1.478 . S
C585 C572 1.394 . S
C585 C584 1.478 . S
C585 C586 1.397 . S
C586 C585 1.397 . S
C586 C587 1.438 . S
C586 C591 1.429 . S
C587 C570 1.394 . S
C587 C586 1.438 . S
C587 C588 1.428 . S
C588 H580 0.949 . S
C588 C587 1.428 . S
C588 C589 1.345 . S
C589 H581 0.950 . S
C589 C588 1.345 . S
C589 C590 1.424 . S
C590 H582 0.951 . S
C590 C589 1.424 . S
C590 C591 1.347 . S
C591 H583 0.951 . S
C591 C586 1.429 . S
C591 C590 1.347 . S
C113 C82 1.488 . S
C128 C11 1.496 . S
C143 C103 1.192 . S
C158 C19 1.187 . S
C173 C32 1.490 . S
C188 C88 1.490 . S
C203 C53 1.444 . S
C218 C68 1.492 . S
C233 C89 1.289 . S
C248 C5 1.283 . S
C263 C18 1.430 . S
C278 C60 1.430 . S
C293 C81 1.441 . S
C308 C40 1.492 . S
C323 C54 1.487 . S
C338 C109 1.496 . S
C353 C61 1.292 . S
C368 C75 1.299 . S
C383 C26 1.492 . S
C398 C39 1.447 . S
C413 C47 1.266 . S
C428 C33 1.272 . S
C443 C46 1.478 . S
C458 C4 1.478 . S
C473 C25 1.477 . S
C488 C12 1.490 . S
C503 C110 1.487 . S
C518 C95 1.473 . S
C533 C67 1.497 . S
C548 C96 1.488 . S
C563 C74 1.426 . S
C578 C102 1.427 . S
