# Generated by pormake.
# Topology why, (6)-cn, num edge types: 1
# Building blocks:
#     Node 0, Type 0, BuildingBlock: CUKXOW_clean_sbu_0, # of connection points: 6
#     Node 1, Type 0, BuildingBlock: CUKXOW_clean_sbu_0, # of connection points: 6
#     Node 2, Type 0, BuildingBlock: CUKXOW_clean_sbu_0, # of connection points: 6
#     Node 3, Type 0, BuildingBlock: CUKXOW_clean_sbu_0, # of connection points: 6
#     Node 4, Type 0, BuildingBlock: CUKXOW_clean_sbu_0, # of connection points: 6
#     Node 5, Type 0, BuildingBlock: CUKXOW_clean_sbu_0, # of connection points: 6
#     Node 6, Type 0, BuildingBlock: CUKXOW_clean_sbu_0, # of connection points: 6
#     Node 7, Type 0, BuildingBlock: CUKXOW_clean_sbu_0, # of connection points: 6
#     Node 8, Type 0, BuildingBlock: CUKXOW_clean_sbu_0, # of connection points: 6
#     Node 9, Type 0, BuildingBlock: CUKXOW_clean_sbu_0, # of connection points: 6
#     Node 10, Type 0, BuildingBlock: CUKXOW_clean_sbu_0, # of connection points: 6
#     Node 11, Type 0, BuildingBlock: CUKXOW_clean_sbu_0, # of connection points: 6
#     Node 12, Type 0, BuildingBlock: CUKXOW_clean_sbu_0, # of connection points: 6
#     Node 13, Type 0, BuildingBlock: CUKXOW_clean_sbu_0, # of connection points: 6
#     Node 14, Type 0, BuildingBlock: CUKXOW_clean_sbu_0, # of connection points: 6
#     Node 15, Type 0, BuildingBlock: CUKXOW_clean_sbu_0, # of connection points: 6
#     Edge 16, Type (0, 0), BuildingBlock: XIVTED_clean_linker_0, # of connection points: 2
#     Edge 17, Type (0, 0), BuildingBlock: XIVTED_clean_linker_0, # of connection points: 2
#     Edge 18, Type (0, 0), BuildingBlock: XIVTED_clean_linker_0, # of connection points: 2
#     Edge 19, Type (0, 0), BuildingBlock: XIVTED_clean_linker_0, # of connection points: 2
#     Edge 20, Type (0, 0), BuildingBlock: XIVTED_clean_linker_0, # of connection points: 2
#     Edge 21, Type (0, 0), BuildingBlock: XIVTED_clean_linker_0, # of connection points: 2
#     Edge 22, Type (0, 0), BuildingBlock: XIVTED_clean_linker_0, # of connection points: 2
#     Edge 23, Type (0, 0), BuildingBlock: XIVTED_clean_linker_0, # of connection points: 2
#     Edge 24, Type (0, 0), BuildingBlock: XIVTED_clean_linker_0, # of connection points: 2
#     Edge 25, Type (0, 0), BuildingBlock: XIVTED_clean_linker_0, # of connection points: 2
#     Edge 26, Type (0, 0), BuildingBlock: XIVTED_clean_linker_0, # of connection points: 2
#     Edge 27, Type (0, 0), BuildingBlock: XIVTED_clean_linker_0, # of connection points: 2
#     Edge 28, Type (0, 0), BuildingBlock: XIVTED_clean_linker_0, # of connection points: 2
#     Edge 29, Type (0, 0), BuildingBlock: XIVTED_clean_linker_0, # of connection points: 2
#     Edge 30, Type (0, 0), BuildingBlock: XIVTED_clean_linker_0, # of connection points: 2
#     Edge 31, Type (0, 0), BuildingBlock: XIVTED_clean_linker_0, # of connection points: 2
#     Edge 32, Type (0, 0), BuildingBlock: XIVTED_clean_linker_0, # of connection points: 2
#     Edge 33, Type (0, 0), BuildingBlock: XIVTED_clean_linker_0, # of connection points: 2
#     Edge 34, Type (0, 0), BuildingBlock: XIVTED_clean_linker_0, # of connection points: 2
#     Edge 35, Type (0, 0), BuildingBlock: XIVTED_clean_linker_0, # of connection points: 2
#     Edge 36, Type (0, 0), BuildingBlock: XIVTED_clean_linker_0, # of connection points: 2
#     Edge 37, Type (0, 0), BuildingBlock: XIVTED_clean_linker_0, # of connection points: 2
#     Edge 38, Type (0, 0), BuildingBlock: XIVTED_clean_linker_0, # of connection points: 2
#     Edge 39, Type (0, 0), BuildingBlock: XIVTED_clean_linker_0, # of connection points: 2
#     Edge 40, Type (0, 0), BuildingBlock: XIVTED_clean_linker_0, # of connection points: 2
#     Edge 41, Type (0, 0), BuildingBlock: XIVTED_clean_linker_0, # of connection points: 2
#     Edge 42, Type (0, 0), BuildingBlock: XIVTED_clean_linker_0, # of connection points: 2
#     Edge 43, Type (0, 0), BuildingBlock: XIVTED_clean_linker_0, # of connection points: 2
#     Edge 44, Type (0, 0), BuildingBlock: XIVTED_clean_linker_0, # of connection points: 2
#     Edge 45, Type (0, 0), BuildingBlock: XIVTED_clean_linker_0, # of connection points: 2
#     Edge 46, Type (0, 0), BuildingBlock: XIVTED_clean_linker_0, # of connection points: 2
#     Edge 47, Type (0, 0), BuildingBlock: XIVTED_clean_linker_0, # of connection points: 2
#     Edge 48, Type (0, 0), BuildingBlock: XIVTED_clean_linker_0, # of connection points: 2
#     Edge 49, Type (0, 0), BuildingBlock: XIVTED_clean_linker_0, # of connection points: 2
#     Edge 50, Type (0, 0), BuildingBlock: XIVTED_clean_linker_0, # of connection points: 2
#     Edge 51, Type (0, 0), BuildingBlock: XIVTED_clean_linker_0, # of connection points: 2
#     Edge 52, Type (0, 0), BuildingBlock: XIVTED_clean_linker_0, # of connection points: 2
#     Edge 53, Type (0, 0), BuildingBlock: XIVTED_clean_linker_0, # of connection points: 2
#     Edge 54, Type (0, 0), BuildingBlock: XIVTED_clean_linker_0, # of connection points: 2
#     Edge 55, Type (0, 0), BuildingBlock: XIVTED_clean_linker_0, # of connection points: 2
#     Edge 56, Type (0, 0), BuildingBlock: XIVTED_clean_linker_0, # of connection points: 2
#     Edge 57, Type (0, 0), BuildingBlock: XIVTED_clean_linker_0, # of connection points: 2
#     Edge 58, Type (0, 0), BuildingBlock: XIVTED_clean_linker_0, # of connection points: 2
#     Edge 59, Type (0, 0), BuildingBlock: XIVTED_clean_linker_0, # of connection points: 2
#     Edge 60, Type (0, 0), BuildingBlock: XIVTED_clean_linker_0, # of connection points: 2
#     Edge 61, Type (0, 0), BuildingBlock: XIVTED_clean_linker_0, # of connection points: 2
#     Edge 62, Type (0, 0), BuildingBlock: XIVTED_clean_linker_0, # of connection points: 2
#     Edge 63, Type (0, 0), BuildingBlock: XIVTED_clean_linker_0, # of connection points: 2
# Relax obj value: 0.206
# Max RMSD: 0.190
# Mean RMSD: 0.190
data_MOF--net-why--node1-CUKXOW_clean_sbu_0--edge1-XIVTED_clean_linker_0
_symmetry_space_group_name_H-M    P1
_symmetry_Int_Tables_number       1
_symmetry_cell_setting            triclinic
loop_
_symmetry_equiv_pos_as_xyz
'x, y, z'
_cell_length_a     51.965304
_cell_length_b     51.898623
_cell_length_c     23.387787
_cell_angle_alpha  89.957341
_cell_angle_beta   89.959382
_cell_angle_gamma 89.970588
loop_
_atom_site_label
_atom_site_type_symbol
_atom_site_fract_x
_atom_site_fract_y
_atom_site_fract_z
_atom_type_partial_charge
Tb0 Tb 0.36923 0.19851 0.13936 0.0
C1 C 0.34823 0.14378 0.16986 0.0
Tb2 Tb 0.32064 0.17679 0.07152 0.0
O3 O 0.3484 0.21767 0.20882 0.0
O4 O 0.32853 0.19907 0.14565 0.0
O5 O 0.36812 0.1597 0.17113 0.0
C6 C 0.27419 0.15931 1.04268 0.0
O7 O 0.3266 0.14856 0.14092 0.0
C8 C 0.36495 0.16114 1.02673 0.0
C9 C 0.35037 0.22582 1.02415 0.0
O10 O 0.29562 0.14682 1.03825 0.0
O11 O 0.27874 0.18226 0.06294 0.0
O12 O 0.34256 0.15526 1.00588 0.0
O13 O 0.36068 0.17593 0.06814 0.0
O14 O 0.32791 0.21311 1.02447 0.0
O15 O 0.36939 0.22097 0.06071 0.0
C16 C 0.41455 0.21231 0.17848 0.0
O17 O 0.39695 0.2281 0.16053 0.0
O18 O 0.40711 0.18857 0.17234 0.0
C19 C 0.32556 0.21204 0.1909 0.0
Tb20 Tb 0.54626 0.61807 0.38237 0.0
C21 C 0.60136 0.59893 0.41015 0.0
Tb22 Tb 0.56732 0.56891 0.31577 0.0
O23 O 0.52858 0.5974 0.45446 0.0
O24 O 0.5454 0.57746 0.3895 0.0
O25 O 0.58524 0.6187 0.41207 0.0
C26 C 0.58431 0.52165 0.29179 0.0
O27 O 0.59666 0.577 0.38199 0.0
C28 C 0.58126 0.61234 0.26487 0.0
C29 C 0.51877 0.59851 0.26807 0.0
O30 O 0.59754 0.5427 0.28823 0.0
O31 O 0.56101 0.52706 0.30863 0.0
O32 O 0.58541 0.58952 0.24384 0.0
O33 O 0.56895 0.60906 0.31075 0.0
O34 O 0.53067 0.57564 0.27011 0.0
O35 O 0.52454 0.61791 0.30285 0.0
C36 C 0.52512 0.66128 0.41688 0.0
O37 O 0.51291 0.64199 0.39465 0.0
O38 O 0.54983 0.65688 0.41769 0.0
C39 C 0.53341 0.57449 0.43591 0.0
Tb40 Tb 0.12563 0.7971 0.63338 0.0
C41 C 0.14816 0.85036 0.67012 0.0
Tb42 Tb 0.17523 0.81895 0.56874 0.0
O43 O 0.14579 0.77623 0.70165 0.0
O44 O 0.16626 0.79567 0.64067 0.0
O45 O 0.12778 0.83508 0.6693 0.0
C46 C 0.22191 0.83623 0.54111 0.0
O47 O 0.16978 0.84562 0.64107 0.0
C48 C 0.1315 0.83595 0.52325 0.0
C49 C 0.14529 0.77101 0.51767 0.0
O50 O 0.20076 0.84932 0.53931 0.0
O51 O 0.21697 0.81283 0.55832 0.0
O52 O 0.15418 0.84168 0.50371 0.0
O53 O 0.13516 0.82062 0.56403 0.0
O54 O 0.16796 0.78327 0.51979 0.0
O55 O 0.12591 0.77582 0.55333 0.0
C56 C 0.07933 0.78403 0.66866 0.0
O57 O 0.09701 0.76801 0.65214 0.0
O58 O 0.08735 0.80764 0.66365 0.0
C59 C 0.16883 0.78185 0.6848 0.0
Tb60 Tb 0.94938 0.38026 0.87926 0.0
C61 C 0.89426 0.39831 0.91321 0.0
Tb62 Tb 0.9266 0.42748 0.81831 0.0
O63 O 0.97021 0.39887 0.94913 0.0
O64 O 0.95026 0.42068 0.89013 0.0
O65 O 0.91016 0.37848 0.9089 0.0
C66 C 0.9131 0.47443 0.78329 0.0
O67 O 0.89871 0.42086 0.88775 0.0
C68 C 0.90682 0.38312 0.78674 0.0
C69 C 0.9819 0.40577 0.78035 0.0
O70 O 0.92053 0.46853 0.83466 0.0
O71 O 0.91405 0.45405 0.75124 0.0
O72 O 0.89452 0.40486 0.78431 0.0
O73 O 0.92987 0.38752 0.80106 0.0
O74 O 0.96344 0.42322 0.77089 0.0
O75 O 0.98054 0.38825 0.8212 0.0
C76 C 0.96729 0.33333 0.89565 0.0
O77 O 0.96771 0.34582 0.84784 0.0
O78 O 0.95575 0.34688 0.93462 0.0
C79 C 0.96429 0.42216 0.93423 0.0
Tb80 Tb 0.67729 0.81838 1.02495 0.0
C81 C 0.64989 0.76662 0.05646 0.0
Tb82 Tb 0.63084 0.80119 0.95333 0.0
O83 O 0.65385 0.82107 0.10201 0.0
O84 O 0.63725 0.82754 1.02205 0.0
O85 O 0.67227 0.77911 0.0584 0.0
C86 C 0.58504 0.78774 0.91468 0.0
O87 O 0.63032 0.77445 1.02474 0.0
C88 C 0.67372 0.78673 0.90104 0.0
C89 C 0.65331 0.85549 0.92759 0.0
O90 O 0.60369 0.77207 0.92613 0.0
O91 O 0.59179 0.81125 0.92638 0.0
O92 O 0.65085 0.78373 0.88042 0.0
O93 O 0.67117 0.79818 0.9483 0.0
O94 O 0.63481 0.83878 0.91617 0.0
O95 O 0.67181 0.85125 0.96602 0.0
C96 C 0.72342 0.83601 0.05646 0.0
O97 O 0.70146 0.84595 0.07068 0.0
O98 O 0.71949 0.81566 1.02528 0.0
C99 C 0.63243 0.82552 0.07493 0.0
Tb100 Tb 0.42739 0.4255 0.77133 0.0
C101 C 0.4808 0.39932 0.80664 0.0
Tb102 Tb 0.44759 0.3794 0.70221 0.0
O103 O 0.39645 0.40211 0.80762 0.0
O104 O 0.43133 0.385 0.78474 0.0
O105 O 0.46514 0.41954 0.81371 0.0
C106 C 0.46062 0.3339 0.66174 0.0
O107 O 0.47627 0.38075 0.76914 0.0
C108 C 0.45973 0.42236 0.64743 0.0
C109 C 0.39212 0.40007 0.67626 0.0
O110 O 0.47629 0.35292 0.67 0.0
O111 O 0.43752 0.34007 0.67815 0.0
O112 O 0.46452 0.3994 0.62904 0.0
O113 O 0.44776 0.41998 0.69424 0.0
O114 O 0.40835 0.38052 0.67282 0.0
O115 O 0.39692 0.42117 0.70681 0.0
C116 C 0.41616 0.47285 0.80867 0.0
O117 O 0.4146 0.45189 0.83888 0.0
O118 O 0.42485 0.4672 0.75817 0.0
C119 C 0.40867 0.38041 0.80192 0.0
Tb120 Tb 0.8189 0.17784 0.52896 0.0
C121 C 0.84724 0.22618 0.58151 0.0
Tb122 Tb 0.86795 0.20123 0.46569 0.0
O123 O 0.84011 0.15598 0.59535 0.0
O124 O 0.85894 0.1774 0.53504 0.0
O125 O 0.82486 0.21354 0.57853 0.0
C126 C 0.91273 0.21963 0.43294 0.0
O127 O 0.86692 0.22173 0.54659 0.0
C128 C 0.82458 0.215 0.41293 0.0
C129 C 0.8487 0.14652 0.43155 0.0
O130 O 0.89459 0.23294 0.45693 0.0
O131 O 0.90613 0.19551 0.42904 0.0
O132 O 0.84749 0.2214 0.39684 0.0
O133 O 0.82737 0.20128 0.45708 0.0
O134 O 0.86856 0.16252 0.43301 0.0
O135 O 0.82639 0.15097 0.45807 0.0
C136 C 0.77163 0.16081 0.55173 0.0
O137 O 0.79244 0.14712 0.55213 0.0
O138 O 0.77731 0.18459 0.53899 0.0
C139 C 0.86275 0.16237 0.57637 0.0
Tb140 Tb 0.06854 0.57158 0.26771 0.0
C141 C 0.01756 0.59819 0.31446 0.0
Tb142 Tb 0.04639 0.61868 0.20447 0.0
O143 O 0.10053 0.5944 0.30153 0.0
O144 O 0.06544 0.61191 0.2834 0.0
O145 O 0.03133 0.57645 0.31293 0.0
C146 C 0.03079 0.66402 0.16795 0.0
O147 O 0.02241 0.61806 0.28049 0.0
C148 C 0.0319 0.57601 0.15069 0.0
C149 C 0.10125 0.59862 0.17033 0.0
O150 O 0.01584 0.64513 0.18222 0.0
O151 O 0.05477 0.65782 0.17601 0.0
O152 O 0.02628 0.59911 0.13456 0.0
O153 O 0.0455 0.57813 0.19513 0.0
O154 O 0.08493 0.6182 0.16985 0.0
O155 O 0.09704 0.57701 0.19953 0.0
C156 C 0.08167 0.52442 0.30211 0.0
O157 O 0.08065 0.54467 0.3347 0.0
O158 O 0.07438 0.53061 0.25084 0.0
C159 C 0.08847 0.61625 0.29773 0.0
Tb160 Tb 0.86474 0.69918 0.63275 0.0
C161 C 0.8453 0.64346 0.65275 0.0
Tb162 Tb 0.81887 0.6808 0.56139 0.0
O163 O 0.84039 0.70086 0.70759 0.0
O164 O 0.8244 0.70889 0.62799 0.0
O165 O 0.86515 0.65926 0.65659 0.0
C166 C 0.77078 0.66888 0.53188 0.0
O167 O 0.8241 0.64908 0.62327 0.0
C168 C 0.86214 0.66097 0.52025 0.0
C169 C 0.8501 0.72927 0.51963 0.0
O170 O 0.77913 0.6711 0.58401 0.0
O171 O 0.78931 0.67426 0.49652 0.0
O172 O 0.83954 0.65615 0.49912 0.0
O173 O 0.85866 0.67608 0.56149 0.0
O174 O 0.82714 0.71778 0.51875 0.0
O175 O 0.86832 0.72285 0.55665 0.0
C176 C 0.90701 0.71788 0.67942 0.0
O177 O 0.88677 0.73135 0.66682 0.0
O178 O 0.90373 0.69404 0.66439 0.0
C179 C 0.81934 0.70633 0.68084 0.0
Tb180 Tb 0.05348 0.11938 0.88409 0.0
C181 C 0.10449 0.09231 0.92268 0.0
Tb182 Tb 0.06966 0.06949 0.82136 0.0
O183 O 0.02665 0.10284 0.94718 0.0
O184 O 0.04587 0.07975 0.88996 0.0
O185 O 0.09002 0.11321 0.92446 0.0
C186 C 0.08603 0.02259 0.7922 0.0
O187 O 0.09939 0.07232 0.88874 0.0
C188 C 0.08221 0.1128 0.77073 0.0
C189 C 0.01993 0.09967 0.78036 0.0
O190 O 0.09744 0.04408 0.78006 0.0
O191 O 0.0649 0.02743 0.82006 0.0
O192 O 0.07669 0.09164 0.74367 0.0
O193 O 0.08215 0.10843 0.82393 0.0
O194 O 0.03153 0.07665 0.78237 0.0
O195 O 0.02696 0.11943 0.81266 0.0
C196 C 0.05141 0.16842 0.91184 0.0
O197 O 0.05304 0.15965 0.86005 0.0
O198 O 0.05003 0.14962 0.94817 0.0
C199 C 0.03049 0.07914 0.93167 0.0
Tb200 Tb 0.63005 0.2956 0.13392 0.0
C201 C 0.64964 0.34971 0.17126 0.0
Tb202 Tb 0.67609 0.3171 0.0702 0.0
O203 O 0.64931 0.27284 0.20034 0.0
O204 O 0.6706 0.29247 0.14084 0.0
O205 O 0.63071 0.33276 0.1741 0.0
C206 C 0.72209 0.33611 1.04112 0.0
O207 O 0.67006 0.34654 0.13734 0.0
C208 C 0.63173 0.32641 1.01939 0.0
C209 C 0.64872 0.26796 1.02209 0.0
O210 O 0.70015 0.34736 1.03299 0.0
O211 O 0.7182 0.31388 0.0652 0.0
O212 O 0.65354 0.32346 0.9929 0.0
O213 O 0.63586 0.32575 0.07273 0.0
O214 O 0.67153 0.27946 1.02724 0.0
O215 O 0.62886 0.27455 0.05418 0.0
C216 C 0.5849 0.27912 0.17005 0.0
O217 O 0.60024 0.26649 0.13663 0.0
O218 O 0.5944 0.30163 0.18151 0.0
C219 C 0.67243 0.27784 0.18376 0.0
Tb220 Tb 0.44558 0.87706 0.39257 0.0
C221 C 0.3929 0.90263 0.42417 0.0
Tb222 Tb 0.42881 0.92471 0.32348 0.0
O223 O 0.47034 0.89547 0.45651 0.0
O224 O 0.45182 0.91712 0.39527 0.0
O225 O 0.4083 0.88257 0.43 0.0
C226 C 0.41234 0.97118 0.29047 0.0
O227 O 0.39774 0.92194 0.38805 0.0
C228 C 0.41797 0.88001 0.27647 0.0
C229 C 0.48095 0.89622 0.29115 0.0
O230 O 0.40146 0.94942 0.2783 0.0
O231 O 0.43294 0.96681 0.32045 0.0
O232 O 0.4233 0.90085 0.24791 0.0
O233 O 0.41735 0.88545 0.32921 0.0
O234 O 0.4674 0.91803 0.28635 0.0
O235 O 0.47442 0.87717 0.32598 0.0
C236 C 0.45029 0.82911 0.4275 0.0
O237 O 0.44776 0.8361 0.37451 0.0
O238 O 0.45071 0.84903 0.46076 0.0
C239 C 0.46641 0.91873 0.43832 0.0
Tb240 Tb 0.17418 0.31793 0.52061 0.0
C241 C 0.14578 0.26658 0.55031 0.0
Tb242 Tb 0.12876 0.30183 0.44702 0.0
O243 O 0.1498 0.32113 0.59615 0.0
O244 O 0.1345 0.32845 0.51546 0.0
O245 O 0.16834 0.27863 0.55326 0.0
C246 C 0.08296 0.29036 0.40512 0.0
O247 O 0.12658 0.27528 0.51856 0.0
C248 C 0.17122 0.28477 0.39738 0.0
C249 C 0.15279 0.35543 0.42133 0.0
O250 O 0.10088 0.27395 0.41713 0.0
O251 O 0.09038 0.31348 0.41838 0.0
O252 O 0.14833 0.28242 0.37656 0.0
O253 O 0.16925 0.29733 0.44358 0.0
O254 O 0.13447 0.33883 0.40808 0.0
O255 O 0.17042 0.35097 0.46158 0.0
C256 C 0.2202 0.33455 0.55602 0.0
O257 O 0.19823 0.34482 0.5689 0.0
O258 O 0.21628 0.31449 0.52401 0.0
C259 C 0.12892 0.32667 0.56804 0.0
Tb260 Tb 0.92715 0.92882 0.26824 0.0
C261 C 0.97742 0.90145 0.31773 0.0
Tb262 Tb 0.95025 0.88244 0.20476 0.0
O263 O 0.89481 0.90557 0.29894 0.0
O264 O 0.93037 0.88848 0.28301 0.0
O265 O 0.96344 0.92307 0.31682 0.0
C266 C 0.96555 0.83726 0.16675 0.0
O267 O 0.97342 0.88215 0.28178 0.0
C268 C 0.96508 0.92548 0.15272 0.0
C269 C 0.89575 0.90263 0.16804 0.0
O270 O 0.98064 0.85591 0.18182 0.0
O271 O 0.94162 0.8436 0.17485 0.0
O272 O 0.97125 0.90248 0.13687 0.0
O273 O 0.95098 0.92309 0.19642 0.0
O274 O 0.91216 0.88314 0.16809 0.0
O275 O 0.89945 0.92405 0.19824 0.0
C276 C 0.91465 0.97585 0.30469 0.0
O277 O 0.92364 0.9703 0.25446 0.0
O278 O 0.91334 0.95497 0.33516 0.0
C279 C 0.90719 0.88387 0.2958 0.0
Tb280 Tb 0.32006 0.67872 1.01726 0.0
C281 C 0.34415 0.7318 0.06003 0.0
Tb282 Tb 0.36657 0.70154 0.9536 0.0
O283 O 0.3434 0.64761 0.05279 0.0
O284 O 0.36023 0.68315 1.03381 0.0
O285 O 0.32399 0.71589 0.06295 0.0
C286 C 0.41196 0.71841 0.91984 0.0
O287 O 0.36366 0.72821 1.0245 0.0
C288 C 0.32395 0.71406 0.89754 0.0
C289 C 0.34856 0.6456 0.92243 0.0
O290 O 0.39244 0.7328 0.93255 0.0
O291 O 0.40627 0.69425 0.9274 0.0
O292 O 0.34699 0.71978 0.8812 0.0
O293 O 0.32614 0.70102 0.94298 0.0
O294 O 0.36752 0.6626 0.92124 0.0
O295 O 0.32675 0.6494 0.95116 0.0
C296 C 0.27264 0.66559 0.05018 0.0
O297 O 0.29288 0.66542 0.08274 0.0
O298 O 0.27901 0.67383 0.99974 0.0
C299 C 0.36494 0.66021 0.04926 0.0
Tb300 Tb 0.56923 0.07116 0.76835 0.0
C301 C 0.51906 0.09697 0.82163 0.0
Tb302 Tb 0.54421 0.11719 0.70788 0.0
O303 O 0.6017 0.09469 0.79662 0.0
O304 O 0.56571 0.11145 0.78427 0.0
O305 O 0.53308 0.07544 0.81816 0.0
C306 C 0.52667 0.16181 0.67146 0.0
O307 O 0.5226 0.11682 0.78698 0.0
C308 C 0.52945 0.07404 0.65619 0.0
C309 C 0.59828 0.09845 0.666 0.0
O310 O 0.51255 0.14298 0.68984 0.0
O311 O 0.55095 0.156 0.67545 0.0
O312 O 0.52258 0.09695 0.64125 0.0
O313 O 0.54411 0.07655 0.69881 0.0
O314 O 0.58172 0.11775 0.66868 0.0
O315 O 0.59527 0.07667 0.69539 0.0
C316 C 0.58407 0.02489 0.80528 0.0
O317 O 0.58315 0.04563 0.83622 0.0
O318 O 0.57587 0.03007 0.75415 0.0
C319 C 0.58907 0.11626 0.795 0.0
H320 H 0.45584 0.18214 0.20373 0.0
H321 H 0.54634 0.30493 0.22468 0.0
H322 H 0.42893 0.26081 0.20597 0.0
H323 H 0.57036 0.22928 0.16975 0.0
H324 H 0.50467 0.28681 0.25337 0.0
H325 H 0.49907 0.19737 0.2279 0.0
C326 C 0.45903 0.20256 0.21024 0.0
C327 C 0.43931 0.22042 0.2012 0.0
C328 C 0.5193 0.27417 0.23599 0.0
C329 C 0.48808 0.23781 0.2287 0.0
C330 C 0.54288 0.28448 0.21945 0.0
C331 C 0.56118 0.26859 0.19337 0.0
C332 C 0.51437 0.24791 0.22639 0.0
C333 C 0.55628 0.2422 0.1883 0.0
C334 C 0.48355 0.21121 0.22416 0.0
C335 C 0.44401 0.24658 0.2111 0.0
N336 N 0.53313 0.23268 0.20403 0.0
N337 N 0.46813 0.2546 0.22347 0.0
H338 H 0.54653 0.70486 0.46261 0.0
H339 H 0.43109 0.78595 0.38022 0.0
H340 H 0.47396 0.66888 0.42164 0.0
H341 H 0.48069 0.81327 0.51489 0.0
H342 H 0.44563 0.74206 0.39888 0.0
H343 H 0.52324 0.74453 0.48744 0.0
C344 C 0.52573 0.70527 0.4597 0.0
C345 C 0.51208 0.68411 0.43857 0.0
C346 C 0.45288 0.75755 0.4254 0.0
C347 C 0.48568 0.72863 0.46685 0.0
C348 C 0.44469 0.78248 0.41449 0.0
C349 C 0.45507 0.80285 0.44572 0.0
C350 C 0.47223 0.75336 0.46621 0.0
C351 C 0.47248 0.79775 0.48994 0.0
C352 C 0.51248 0.72766 0.47439 0.0
C353 C 0.48518 0.68515 0.43637 0.0
N354 N 0.48121 0.77339 0.49795 0.0
N355 N 0.47283 0.70729 0.44927 0.0
H356 H 0.03759 0.81444 0.69063 0.0
H357 H 0.9486 0.69115 0.71625 0.0
H358 H 0.06457 0.73585 0.69698 0.0
H359 H 0.91957 0.76836 0.69331 0.0
H360 H 0.99103 0.7088 0.73699 0.0
H361 H 0.99445 0.79946 0.71722 0.0
C362 C 0.03442 0.7941 0.69834 0.0
C363 C 0.05422 0.77618 0.69032 0.0
C364 C 0.97532 0.72195 0.72829 0.0
C365 C 0.00554 0.75906 0.72084 0.0
C366 C 0.95117 0.71186 0.71642 0.0
C367 C 0.931 0.72839 0.70166 0.0
C368 C 0.97926 0.74866 0.72416 0.0
C369 C 0.93496 0.75505 0.70351 0.0
C370 C 0.00993 0.78558 0.71366 0.0
C371 C 0.04952 0.75014 0.70151 0.0
N372 N 0.95889 0.76443 0.71333 0.0
N373 N 0.02553 0.7423 0.71558 0.0
H374 H 0.00225 0.3136 0.82368 0.0
H375 H 0.02791 0.18914 1.00527 0.0
H376 H 0.96938 0.30301 0.99164 0.0
H377 H 0.06721 0.20869 0.84867 0.0
H378 H 0.01245 0.23366 1.01229 0.0
H379 H 0.03099 0.27789 0.84072 0.0
C380 C 0.00097 0.3035 0.86415 0.0
C381 C 0.98318 0.31074 0.90598 0.0
C382 C 0.02503 0.22836 0.97728 0.0
C383 C 0.0161 0.26974 0.92604 0.0
C384 C 0.03388 0.20308 0.97341 0.0
C385 C 0.04806 0.19548 0.92541 0.0
C386 C 0.03057 0.24563 0.93271 0.0
C387 C 0.05565 0.21391 0.88544 0.0
C388 C 0.01764 0.28328 0.87423 0.0
C389 C 0.98266 0.2975 0.9581 0.0
N390 N 0.04644 0.23815 0.88951 0.0
N391 N -0.00126 0.27721 0.96649 0.0
H392 H 0.54158 0.81678 0.90238 0.0
H393 H 0.45505 0.69122 0.8919 0.0
H394 H 0.5714 0.73967 0.88298 0.0
H395 H 0.42476 0.76844 0.90477 0.0
H396 H 0.49742 0.70919 0.87005 0.0
H397 H 0.49822 0.80033 0.88419 0.0
C398 C 0.53896 0.79648 0.8934 0.0
C399 C 0.55972 0.77937 0.89542 0.0
C400 C 0.48143 0.72221 0.87692 0.0
C401 C 0.51068 0.76046 0.87515 0.0
C402 C 0.45736 0.71194 0.88956 0.0
C403 C 0.43678 0.72846 0.90121 0.0
C404 C 0.48477 0.74911 0.8767 0.0
C405 C 0.44042 0.75513 0.89694 0.0
C406 C 0.51431 0.78708 0.88301 0.0
C407 C 0.55564 0.75333 0.88291 0.0
N408 N 0.46412 0.76468 0.88579 0.0
N409 N 0.53147 0.74456 0.87411 0.0
H410 H 0.50732 0.32118 0.61927 0.0
H411 H 0.47663 0.17291 0.65178 0.0
H412 H 0.4319 0.29018 0.65428 0.0
H413 H 0.55314 0.2047 0.63919 0.0
H414 H 0.45879 0.21457 0.62455 0.0
H415 H 0.5227 0.2779 0.59762 0.0
C416 C 0.49394 0.30521 0.62162 0.0
C417 C 0.46857 0.30886 0.64006 0.0
C418 C 0.47949 0.21237 0.62696 0.0
C419 C 0.48595 0.25963 0.61593 0.0
C420 C 0.48965 0.1887 0.64277 0.0
C421 C 0.51628 0.18584 0.64914 0.0
C422 C 0.49614 0.23326 0.61829 0.0
C423 C 0.53244 0.20648 0.63579 0.0
C424 C 0.50269 0.28059 0.60911 0.0
C425 C 0.45177 0.28787 0.64128 0.0
N426 N 0.52205 0.22959 0.62184 0.0
N427 N 0.46091 0.26393 0.63041 0.0
H428 H 0.95293 0.1949 0.38185 0.0
H429 H 0.0398 0.3202 0.39948 0.0
H430 H 0.92563 0.27005 0.43245 0.0
H431 H 0.06859 0.24373 0.36558 0.0
H432 H 0.99592 0.30439 0.38482 0.0
H433 H 0.99346 0.21448 0.35089 0.0
C434 C 0.95549 0.21552 0.38606 0.0
C435 C 0.93643 0.23089 0.41089 0.0
C436 C 0.01189 0.29119 0.37952 0.0
C437 C 0.9822 0.25333 0.37563 0.0
C438 C 0.03683 0.30023 0.38778 0.0
C439 C 0.05746 0.28298 0.38526 0.0
C440 C 0.00789 0.2648 0.36917 0.0
C441 C 0.05293 0.25741 0.36927 0.0
C442 C 0.97846 0.22672 0.36813 0.0
C443 C 0.94024 0.25753 0.41456 0.0
N444 N 0.02851 0.24893 0.36278 0.0
N445 N 0.96289 0.26792 0.39777 0.0
H446 H 0.98176 0.67632 0.14066 0.0
H447 H 0.01437 0.82489 0.13775 0.0
H448 H 0.05875 0.70733 0.14635 0.0
H449 H 0.9374 0.79398 0.14646 0.0
H450 H 0.03068 0.78211 0.11472 0.0
H451 H 0.96531 0.71896 0.11687 0.0
C452 C 0.99521 0.69215 0.1363 0.0
C453 C 0.02149 0.68872 0.14684 0.0
C454 C 0.01018 0.78471 0.12084 0.0
C455 C 0.00292 0.73729 0.12007 0.0
C456 C 0.0009 0.80905 0.13418 0.0
C457 C 0.97468 0.81254 0.14542 0.0
C458 C 0.99308 0.76382 0.11964 0.0
C459 C 0.95786 0.79176 0.13909 0.0
C460 C 0.98584 0.71641 0.1225 0.0
C461 C 0.03825 0.7095 0.13955 0.0
N462 N 0.96744 0.76804 0.12755 0.0
N463 N 0.02859 0.73314 0.12749 0.0
H464 H 0.15093 0.0699 0.89547 0.0
H465 H 0.22622 0.17817 0.06827 0.0
H466 H 0.11458 0.12043 1.01771 0.0
H467 H 0.265 0.11415 0.98825 0.0
H468 H 0.18482 0.15729 0.04841 0.0
H469 H 0.19311 0.08426 0.93031 0.0
C470 C 0.15181 0.08336 0.93078 0.0
C471 C 0.12927 0.09421 0.95327 0.0
C472 C 0.20241 0.14776 1.03542 0.0
C473 C 0.17718 0.11133 0.99188 0.0
C474 C 0.22596 0.15979 0.04634 0.0
C475 C 0.24892 0.1479 1.02957 0.0
C476 C 0.20191 0.12385 1.00698 0.0
C477 C 0.24764 0.12397 1.0017 0.0
C478 C 0.17586 0.09181 0.9502 0.0
C479 C 0.13152 0.11184 0.99858 0.0
N480 N 0.22453 0.1128 0.99091 0.0
N481 N 0.155 0.12018 1.01567 0.0
H482 H 0.6743 0.39615 0.15454 0.0
H483 H 0.56186 0.47447 0.30932 0.0
H484 H 0.61408 0.36018 0.25374 0.0
H485 H 0.63111 0.51055 0.24661 0.0
H486 H 0.58076 0.43216 0.28834 0.0
H487 H 0.65982 0.43828 0.18937 0.0
C488 C 0.65843 0.39703 0.18451 0.0
C489 C 0.64522 0.3746 0.20063 0.0
C490 C 0.59187 0.44935 0.27943 0.0
C491 C 0.62819 0.42267 0.23953 0.0
C492 C 0.58101 0.47343 0.2911 0.0
C493 C 0.59492 0.49591 0.2794 0.0
C494 C 0.61669 0.44784 0.2554 0.0
C495 C 0.61973 0.49361 0.25611 0.0
C496 C 0.65003 0.42109 0.20405 0.0
C497 C 0.62466 0.37695 0.23942 0.0
N498 N 0.62977 0.47002 0.24453 0.0
N499 N 0.61658 0.40053 0.25687 0.0
H500 H 0.34645 0.92409 0.39295 0.0
H501 H 0.2697 0.81615 0.56355 0.0
H502 H 0.3817 0.87461 0.51897 0.0
H503 H 0.23153 0.88179 0.48863 0.0
H504 H 0.31135 0.83651 0.54306 0.0
H505 H 0.30397 0.90959 0.42602 0.0
C506 C 0.34526 0.91079 0.42857 0.0
C507 C 0.36763 0.90031 0.45275 0.0
C508 C 0.29383 0.84649 0.53132 0.0
C509 C 0.31939 0.88307 0.48934 0.0
C510 C 0.27014 0.83477 0.54259 0.0
C511 C 0.24729 0.8473 0.52756 0.0
C512 C 0.29455 0.87071 0.50416 0.0
C513 C 0.2488 0.8715 0.50084 0.0
C514 C 0.32105 0.9023 0.44701 0.0
C515 C 0.36495 0.88291 0.49846 0.0
N516 N 0.27203 0.88237 0.4896 0.0
N517 N 0.34134 0.8745 0.51457 0.0
H518 H 0.82955 0.59661 0.6115 0.0
H519 H 0.91109 0.51867 0.84567 0.0
H520 H 0.8699 0.63234 0.75159 0.0
H521 H 0.88879 0.48633 0.68328 0.0
H522 H 0.89008 0.55914 0.81901 0.0
H523 H 0.84407 0.55422 0.64593 0.0
C524 C 0.84086 0.59544 0.65031 0.0
C525 C 0.84864 0.61786 0.67877 0.0
C526 C 0.88979 0.5432 0.78916 0.0
C527 C 0.86554 0.56989 0.71768 0.0
C528 C 0.90186 0.52018 0.80427 0.0
C529 C 0.90184 0.49932 0.76634 0.0
C530 C 0.87742 0.54527 0.73592 0.0
C531 C 0.88942 0.50212 0.71346 0.0
C532 C 0.8494 0.57136 0.66952 0.0
C533 C 0.86363 0.61544 0.72832 0.0
N534 N 0.87766 0.52471 0.69976 0.0
N535 N 0.8717 0.59191 0.74603 0.0
H536 H 0.733 0.87879 0.1204 0.0
H537 H 0.88561 0.86883 0.08199 0.0
H538 H 0.771 0.81988 1.0215 0.0
H539 H 0.84893 0.92514 0.19059 0.0
H540 H 0.84343 0.85432 0.05012 0.0
H541 H 0.7748 0.89868 0.13968 0.0
C542 C 0.7502 0.87002 0.10287 0.0
C543 C 0.74864 0.84757 0.06967 0.0
C544 C 0.84453 0.87006 0.08039 0.0
C545 C 0.79646 0.87035 0.09099 0.0
C546 C 0.86865 0.87848 0.0984 0.0
C547 C 0.8708 0.89812 0.13938 0.0
C548 C 0.82228 0.88119 0.10377 0.0
C549 C 0.84817 0.90999 0.15883 0.0
C550 C 0.77403 0.88144 0.11369 0.0
C551 C 0.77142 0.83708 0.04765 0.0
N552 N 0.82481 0.90111 0.1414 0.0
N553 N 0.79441 0.84854 0.05878 0.0
H554 H 0.38076 0.63495 0.83366 0.0
H555 H 0.38698 0.48465 0.90235 0.0
H556 H 0.3299 0.59833 0.95477 0.0
H557 H 0.42129 0.51852 0.75215 0.0
H558 H 0.36733 0.52638 0.92524 0.0
H559 H 0.39632 0.59264 0.80411 0.0
C560 C 0.37251 0.61794 0.85331 0.0
C561 C 0.35396 0.62016 0.89669 0.0
C562 C 0.37915 0.52467 0.88729 0.0
C563 C 0.37221 0.57159 0.86403 0.0
C564 C 0.39056 0.50095 0.87452 0.0
C565 C 0.40588 0.49825 0.82551 0.0
C566 C 0.38336 0.54587 0.85106 0.0
C567 C 0.40967 0.51985 0.79049 0.0
C568 C 0.38149 0.59377 0.83656 0.0
C569 C 0.34403 0.59747 0.9208 0.0
N570 N 0.39858 0.54278 0.80407 0.0
N571 N 0.35354 0.57411 0.9047 0.0
H572 H 0.60827 0.13708 0.59005 0.0
H573 H 0.75997 0.11244 0.5871 0.0
H574 H 0.64415 0.07207 0.67342 0.0
H575 H 0.7248 0.18478 0.54066 0.0
H576 H 0.71734 0.0944 0.60542 0.0
H577 H 0.6503 0.15103 0.55605 0.0
C578 C 0.62494 0.12546 0.60051 0.0
C579 C 0.62268 0.10349 0.63535 0.0
C580 C 0.71891 0.11419 0.59112 0.0
C581 C 0.67099 0.11965 0.59679 0.0
C582 C 0.74321 0.12453 0.58073 0.0
C583 C 0.74583 0.1502 0.56279 0.0
C584 C 0.69702 0.12958 0.5831 0.0
C585 C 0.72356 0.16496 0.5549 0.0
C586 C 0.64897 0.13357 0.58127 0.0
C587 C 0.64496 0.08913 0.64683 0.0
N588 N 0.70003 0.15443 0.56516 0.0
N589 N 0.66827 0.09762 0.6281 0.0
H590 H 0.16583 0.40173 0.46942 0.0
H591 H 0.08518 0.48125 0.23669 0.0
H592 H 0.1326 0.36814 0.31784 0.0
H593 H 0.10574 0.5116 0.40208 0.0
H594 H 0.10765 0.44122 0.26014 0.0
H595 H 0.15065 0.44418 0.43795 0.0
C596 C 0.15604 0.4034 0.42871 0.0
C597 C 0.1503 0.3814 0.39632 0.0
C598 C 0.10724 0.4566 0.2914 0.0
C599 C 0.13243 0.42963 0.36082 0.0
C600 C 0.09429 0.47937 0.27814 0.0
C601 C 0.09343 0.49957 0.31777 0.0
C602 C 0.11955 0.45407 0.34459 0.0
C603 C 0.10576 0.49631 0.37061 0.0
C604 C 0.14706 0.42756 0.41118 0.0
C605 C 0.13724 0.3846 0.34431 0.0
N606 N 0.11835 0.47396 0.38253 0.0
N607 N 0.12854 0.4082 0.32845 0.0
H608 H 0.61144 0.62387 0.50966 0.0
H609 H 0.75643 0.65098 0.42723 0.0
H610 H 0.64863 0.58499 0.36926 0.0
H611 H 0.72871 0.66079 0.5997 0.0
H612 H 0.71595 0.62959 0.40224 0.0
H613 H 0.65342 0.6392 0.54251 0.0
C614 C 0.62857 0.61811 0.48651 0.0
C615 C 0.62668 0.60308 0.43687 0.0
C616 C 0.71876 0.63637 0.44557 0.0
C617 C 0.67455 0.62127 0.47296 0.0
C618 C 0.7417 0.64881 0.45969 0.0
C619 C 0.74576 0.65777 0.51549 0.0
C620 C 0.6996 0.63326 0.48736 0.0
C621 C 0.72622 0.65424 0.55611 0.0
C622 C 0.65247 0.62694 0.50512 0.0
C623 C 0.64936 0.59631 0.40811 0.0
N624 N 0.70387 0.64242 0.54115 0.0
N625 N 0.67238 0.60585 0.426 0.0
H626 H 0.06699 0.97565 0.82413 0.0
H627 H 0.17376 0.89603 0.6522 0.0
H628 H 0.12959 0.01144 0.73265 0.0
H629 H 0.11439 0.86121 0.75573 0.0
H630 H 0.16067 0.93845 0.68801 0.0
H631 H 0.08582 0.93337 0.80386 0.0
C632 C 0.08467 0.97455 0.79966 0.0
C633 C 0.09668 0.99693 0.7796 0.0
C634 C 0.15078 0.92146 0.7035 0.0
C635 C 0.11846 0.94881 0.75652 0.0
C636 C 0.15842 0.89723 0.68348 0.0
C637 C 0.14495 0.87511 0.70047 0.0
C638 C 0.12952 0.92345 0.74056 0.0
C639 C 0.12508 0.87781 0.74079 0.0
C640 C 0.09552 0.95046 0.78835 0.0
C641 C 0.11967 0.99455 0.74855 0.0
N642 N 0.11778 0.90153 0.75888 0.0
N643 N 0.12977 0.9709 0.73769 0.0
H644 H 0.73172 0.3816 0.98666 0.0
H645 H 0.88435 0.36165 0.99316 0.0
H646 H 0.76972 0.31624 0.06316 0.0
H647 H 0.84779 0.42321 0.89932 0.0
H648 H 0.84253 0.34828 1.02921 0.0
H649 H 0.77384 0.39991 0.96253 0.0
C650 C 0.74897 0.37113 0.99841 0.0
C651 C 0.74733 0.34731 1.0266 0.0
C652 C 0.84357 0.36485 1.00115 0.0
C653 C 0.79546 0.36819 0.9996 0.0
C654 C 0.8675 0.37259 0.98065 0.0
C655 C 0.86955 0.39346 0.94272 0.0
C656 C 0.82134 0.37794 0.98345 0.0
C657 C 0.84708 0.40704 0.92854 0.0
C658 C 0.77297 0.38161 0.98473 0.0
C659 C 0.77018 0.33458 1.04109 0.0
N660 N 0.82382 0.39886 0.94843 0.0
N661 N 0.79329 0.34517 1.02735 0.0
H662 H 0.43041 0.01836 0.32268 0.0
H663 H 0.32429 0.09757 0.14707 0.0
H664 H 0.36959 0.98184 0.22715 0.0
H665 H 0.38183 0.13233 0.25532 0.0
H666 H 0.33814 0.05494 0.18073 0.0
H667 H 0.41146 0.0604 0.30098 0.0
C668 C 0.41311 0.01925 0.29696 0.0
C669 C 0.40162 0.99671 0.27634 0.0
C670 C 0.34747 0.07195 0.19763 0.0
C671 C 0.37966 0.04464 0.25155 0.0
C672 C 0.33939 0.09629 0.17884 0.0
C673 C 0.35207 0.11852 0.19799 0.0
C674 C 0.36836 0.06996 0.23568 0.0
C675 C 0.3717 0.1157 0.2388 0.0
C676 C 0.40218 0.04321 0.28481 0.0
C677 C 0.37909 -0.00115 0.24359 0.0
N678 N 0.37939 0.09193 0.25575 0.0
N679 N 0.36888 0.02242 0.23199 0.0
H680 H 0.26753 0.31793 0.52172 0.0
H681 H 0.34561 0.42213 0.70495 0.0
H682 H 0.23019 0.37627 0.62347 0.0
H683 H 0.38054 0.36815 0.58801 0.0
H684 H 0.303 0.40789 0.67224 0.0
H685 H 0.30918 0.33726 0.5443 0.0
C686 C 0.26816 0.33477 0.54903 0.0
C687 C 0.24549 0.34545 0.57106 0.0
C688 C 0.32004 0.39945 0.65326 0.0
C689 C 0.29302 0.36787 0.59691 0.0
C690 C 0.34434 0.40775 0.67152 0.0
C691 C 0.36664 0.39617 0.64952 0.0
C692 C 0.31816 0.37943 0.61289 0.0
C693 C 0.36387 0.37742 0.6067 0.0
C694 C 0.29191 0.34592 0.56169 0.0
C695 C 0.24731 0.3674 0.60588 0.0
N696 N 0.34014 0.36948 0.59027 0.0
N697 N 0.27069 0.37786 0.61795 0.0
H698 H 0.82736 0.09986 0.45881 0.0
H699 H 0.9197 0.02121 0.24747 0.0
H700 H 0.88104 0.136 0.34304 0.0
H701 H 0.88542 0.98773 0.39817 0.0
H702 H 0.90016 0.06267 0.27208 0.0
H703 H 0.84199 0.05753 0.4251 0.0
C704 C 0.84174 0.09889 0.42532 0.0
C705 C 0.8531 0.1214 0.40378 0.0
C706 C 0.89694 0.04626 0.29981 0.0
C707 C 0.87008 0.07329 0.36577 0.0
C708 C 0.90815 0.02267 0.28592 0.0
C709 C 0.9043 0.00118 0.32118 0.0
C710 C 0.88152 0.04828 0.34896 0.0
C711 C 0.88902 0.00397 0.37022 0.0
C712 C 0.85029 0.07477 0.40664 0.0
C713 C 0.87191 0.11908 0.36101 0.0
N714 N 0.87808 0.02712 0.38264 0.0
N715 N 0.87989 0.09546 0.34359 0.0
H716 H 0.14785 0.57819 0.20114 0.0
H717 H 0.22811 0.66911 0.98931 0.0
H718 H 0.11244 0.63025 0.08067 0.0
H719 H 0.25972 0.63729 0.1445 0.0
H720 H 0.18657 0.64935 1.01244 0.0
H721 H 0.19031 0.59305 0.16911 0.0
C722 C 0.14902 0.59224 0.16696 0.0
C723 C 0.12662 0.60305 0.14356 0.0
C724 C 0.20259 0.64672 1.04147 0.0
C725 C 0.17495 0.62034 0.10745 0.0
C726 C 0.22623 0.65804 1.02839 0.0
C727 C 0.24722 0.65498 0.06537 0.0
C728 C 0.20004 0.63193 0.09149 0.0
C729 C 0.24388 0.6403 0.1152 0.0
C730 C 0.17322 0.60095 0.14924 0.0
C731 C 0.12924 0.6215 0.10001 0.0
N732 N 0.22073 0.62923 0.12676 0.0
N733 N 0.15294 0.62964 0.08353 0.0
H734 H 0.60831 0.01379 0.90593 0.0
H735 H 0.63344 0.86702 0.82333 0.0
H736 H 0.58766 0.98071 0.7432 0.0
H737 H 0.66539 0.9023 0.97432 0.0
H738 H 0.61897 0.90923 0.79073 0.0
H739 H 0.6303 0.97357 0.93126 0.0
C740 C 0.6083 0.99797 0.87573 0.0
C741 C 0.59602 0.00039 0.82264 0.0
C742 C 0.6295 0.90789 0.83056 0.0
C743 C 0.62131 0.9546 0.85086 0.0
C744 C 0.63789 0.8838 0.84901 0.0
C745 C 0.65052 0.88121 0.90166 0.0
C746 C 0.63335 0.92953 0.86549 0.0
C747 C 0.65582 0.90353 0.93329 0.0
C748 C 0.62102 0.97514 0.88996 0.0
C749 C 0.59676 0.97952 0.78475 0.0
N750 N 0.64681 0.92677 0.91517 0.0
N751 N 0.60911 0.95746 0.79968 0.0
H752 H 0.41479 0.17675 0.05012 0.0
H753 H 0.47749 0.06677 0.85073 0.0
H754 H 0.37102 0.11932 0.95938 0.0
H755 H 0.51636 0.1374 0.89395 0.0
H756 H 0.44086 0.08031 0.91063 0.0
H757 H 0.45467 0.15761 1.01149 0.0
C758 C 0.41362 0.16003 1.02256 0.0
C759 C 0.38963 0.14976 1.00741 0.0
C760 C 0.45766 0.09259 0.90788 0.0
C761 C 0.43489 0.12757 0.96393 0.0
C762 C 0.47863 0.08469 0.87429 0.0
C763 C 0.49991 0.10097 0.86764 0.0
C764 C 0.45816 0.11681 0.93521 0.0
C765 C 0.50024 0.12431 0.89811 0.0
C766 C 0.4363 0.14911 1.00052 0.0
C767 C 0.38913 0.12803 0.97163 0.0
N768 N 0.47967 0.1316 0.93024 0.0
N769 N 0.41133 0.1177 0.95114 0.0
H770 H 0.59142 0.61838 0.15325 0.0
H771 H 0.65326 0.75968 0.17346 0.0
H772 H 0.59131 0.66064 0.31181 0.0
H773 H 0.63337 0.72099 1.01679 0.0
H774 H 0.63568 0.72272 0.22787 0.0
H775 H 0.61058 0.65514 0.10533 0.0
C776 C 0.59519 0.63563 0.17794 0.0
C777 C 0.58956 0.6365 0.2365 0.0
C778 C 0.63552 0.72225 0.18159 0.0
C779 C 0.61226 0.67897 0.18171 0.0
C780 C 0.64592 0.74309 0.15063 0.0
C781 C 0.64518 0.74308 0.09058 0.0
C782 C 0.62453 0.70134 0.15201 0.0
C783 C 0.63465 0.72158 0.063 0.0
C784 C 0.60628 0.65667 0.15051 0.0
C785 C 0.59506 0.65934 0.26636 0.0
N786 N 0.62482 0.70171 0.09377 0.0
N787 N 0.60631 0.6797 0.23868 0.0
H788 H 0.97896 0.86029 0.38825 0.0
H789 H 0.12686 0.8786 0.45802 0.0
H790 H 0.02016 0.92991 0.3475 0.0
H791 H 0.08103 0.82057 0.54181 0.0
H792 H 0.08781 0.89793 0.41928 0.0
H793 H 0.01503 0.84617 0.44778 0.0
C794 C 0.99544 0.8729 0.39306 0.0
C795 C 0.99655 0.89639 0.36326 0.0
C796 C 0.08614 0.88113 0.44652 0.0
C797 C 0.03836 0.87993 0.42992 0.0
C798 C 0.10848 0.86995 0.46847 0.0
C799 C 0.1072 0.84783 0.50294 0.0
C800 C 0.06216 0.8699 0.4581 0.0
C801 C 0.08285 0.8376 0.51537 0.0
C802 C 0.01606 0.86477 0.42688 0.0
C803 C 0.01841 0.91184 0.37033 0.0
N804 N 0.06128 0.84853 0.49234 0.0
N805 N 0.03864 0.90314 0.40221 0.0
H806 H 0.89053 0.23091 0.6441 0.0
H807 H 0.85727 0.37265 0.75639 0.0
H808 H 0.81624 0.26614 0.61945 0.0
H809 H 0.9319 0.337 0.77059 0.0
H810 H 0.84009 0.33245 0.71687 0.0
H811 H 0.90364 0.26741 0.70261 0.0
C812 C 0.87677 0.24621 0.65197 0.0
C813 C 0.85227 0.24553 0.62673 0.0
C814 C 0.86016 0.33332 0.72909 0.0
C815 C 0.86745 0.28796 0.69294 0.0
C816 C 0.87002 0.35627 0.7516 0.0
C817 C 0.89613 0.35821 0.76663 0.0
C818 C 0.87653 0.31206 0.72147 0.0
C819 C 0.91169 0.33637 0.75979 0.0
C820 C 0.88434 0.26715 0.6852 0.0
C821 C 0.83523 0.26583 0.63845 0.0
N822 N 0.9017 0.31431 0.73745 0.0
N823 N 0.84327 0.28644 0.67011 0.0
H824 H 0.62194 0.82399 0.18822 0.0
H825 H 0.49054 0.9059 0.1762 0.0
H826 H 0.59069 0.85161 1.02884 0.0
H827 H 0.52492 0.87463 0.32887 0.0
H828 H 0.52746 0.88931 0.12037 0.0
H829 H 0.58647 0.8442 0.23908 0.0
C830 C 0.60746 0.83423 0.16382 0.0
C831 C 0.60933 0.83609 0.1042 0.0
C832 C 0.527 0.88641 0.1662 0.0
C833 C 0.56831 0.85974 0.16259 0.0
C834 C 0.50612 0.89615 0.19809 0.0
C835 C 0.50471 0.89169 0.25728 0.0
C836 C 0.54651 0.87225 0.19396 0.0
C837 C 0.52515 0.87848 0.28335 0.0
C838 C 0.58716 0.84591 0.19297 0.0
C839 C 0.58992 0.84963 0.07489 0.0
N840 N 0.54498 0.86921 0.25168 0.0
N841 N 0.57021 0.86101 0.10439 0.0
H842 H 0.43493 0.33472 0.81539 0.0
H843 H 0.31781 0.26188 0.97412 0.0
H844 H 0.36037 0.36933 0.84076 0.0
H845 H 0.39655 0.23563 0.97487 0.0
H846 H 0.33083 0.2982 0.91229 0.0
H847 H 0.41909 0.29514 0.86094 0.0
C848 C 0.41518 0.33392 0.83014 0.0
C849 C 0.39905 0.35545 0.82481 0.0
C850 C 0.34516 0.2843 0.9256 0.0
C851 C 0.38066 0.31017 0.87706 0.0
C852 C 0.33767 0.26348 0.96052 0.0
C853 C 0.35612 0.2458 0.98015 0.0
C854 C 0.3712 0.28721 0.90971 0.0
C855 C 0.38168 0.24895 0.96144 0.0
C856 C 0.40611 0.31134 0.85628 0.0
C857 C 0.37354 0.35325 0.84449 0.0
N858 N 0.38842 0.26918 0.92767 0.0
N859 N 0.36519 0.33113 0.86992 0.0
H860 H 0.97773 0.06967 0.75261 0.0
H861 H 0.91237 0.17953 0.55676 0.0
H862 H 0.01396 0.14249 0.71573 0.0
H863 H 0.86913 0.121 0.64554 0.0
H864 H 0.95224 0.16176 0.59833 0.0
H865 H 0.94015 0.08344 0.69578 0.0
C866 C 0.97799 0.08827 0.73159 0.0
C867 C -0.00112 0.10501 0.73911 0.0
C868 C 0.93399 0.15275 0.60835 0.0
C869 C 0.95617 0.12092 0.67432 0.0
C870 C 0.91131 0.16288 0.58461 0.0
C871 C 0.88744 0.15186 0.59816 0.0
C872 C 0.93278 0.13119 0.64502 0.0
C873 C 0.88712 0.13024 0.6344 0.0
C874 C 0.95651 0.09624 0.69962 0.0
C875 C -0.00188 0.12907 0.7114 0.0
N876 N 0.90937 0.12062 0.65646 0.0
N877 N 0.97718 0.13631 0.68045 0.0
H878 H 0.10025 0.76422 0.46199 0.0
H879 H 0.13739 0.62658 0.33332 0.0
H880 H 0.17706 0.73316 0.47222 0.0
H881 H 0.06296 0.66214 0.31314 0.0
H882 H 0.15343 0.66624 0.37759 0.0
H883 H 0.08773 0.72853 0.40057 0.0
C884 C 0.11463 0.74997 0.45066 0.0
C885 C 0.13973 0.75162 0.47263 0.0
C886 C 0.13367 0.66549 0.36309 0.0
C887 C 0.12528 0.71011 0.40252 0.0
C888 C 0.12446 0.64283 0.33787 0.0
C889 C 0.09871 0.64097 0.32002 0.0
C890 C 0.11698 0.6865 0.37085 0.0
C891 C 0.08289 0.66267 0.32657 0.0
C892 C 0.10741 0.72952 0.41554 0.0
C893 C 0.15754 0.7327 0.45608 0.0
N894 N 0.09222 0.6844 0.35184 0.0
N895 N 0.14988 0.71251 0.42263 0.0
H896 H 0.91194 0.67557 0.5445 0.0
H897 H 0.97561 0.56782 0.34085 0.0
H898 H 0.86777 0.61956 0.45049 0.0
H899 H 0.01307 0.6391 0.38508 0.0
H900 H 0.93837 0.5808 0.39973 0.0
H901 H 0.95162 0.65697 0.50418 0.0
C902 C 0.91064 0.65921 0.51591 0.0
C903 C 0.88658 0.64922 0.50038 0.0
C904 C 0.95497 0.59337 0.39727 0.0
C905 C 0.93172 0.62768 0.45468 0.0
C906 C 0.97627 0.58582 0.3642 0.0
C907 C 0.99738 0.60241 0.35825 0.0
C908 C 0.95504 0.61748 0.42504 0.0
C909 C 0.9971 0.62578 0.38857 0.0
C910 C 0.93323 0.64863 0.49283 0.0
C911 C 0.88594 0.62799 0.46315 0.0
N912 N 0.9763 0.63265 0.42042 0.0
N913 N 0.90811 0.61796 0.44155 0.0
H914 H 0.10706 0.15504 0.81771 0.0
H915 H 0.11831 0.2258 0.51415 0.0
H916 H 0.08058 0.12358 0.65768 0.0
H917 H 0.16013 0.25325 0.66106 0.0
H918 H 0.10372 0.1889 0.56913 0.0
H919 H 0.12527 0.19213 0.7652 0.0
C920 C 0.10497 0.15601 0.77169 0.0
C921 C 0.09227 0.13621 0.74195 0.0
C922 C 0.11626 0.20275 0.58964 0.0
C923 C 0.1131 0.17828 0.68185 0.0
C924 C 0.12468 0.22387 0.55807 0.0
C925 C 0.14054 0.24261 0.58295 0.0
C926 C 0.12335 0.20025 0.6473 0.0
C927 C 0.14814 0.23907 0.6401 0.0
C928 C 0.1155 0.17705 0.74176 0.0
C929 C 0.09022 0.13833 0.68238 0.0
N930 N 0.13924 0.2184 0.67067 0.0
N931 N 0.10044 0.15888 0.65454 0.0
H932 H 0.48649 0.40243 0.92447 0.0
H933 H 0.62368 0.33131 0.90573 0.0
H934 H 0.52778 0.38567 0.7691 0.0
H935 H 0.58788 0.34798 0.06788 0.0
H936 H 0.58833 0.35263 0.85703 0.0
H937 H 0.52337 0.38558 0.97998 0.0
C938 C 0.50358 0.39595 0.90217 0.0
C939 C 0.50419 0.3956 0.8421 0.0
C940 C 0.588 0.35174 0.90328 0.0
C941 C 0.54595 0.37573 0.90483 0.0
C942 C 0.60825 0.33941 0.93119 0.0
C943 C 0.60881 0.33785 0.99099 0.0
C944 C 0.56781 0.36273 0.93506 0.0
C945 C 0.58816 0.3487 1.02162 0.0
C946 C 0.52446 0.38602 0.93376 0.0
C947 C 0.52652 0.38637 0.81531 0.0
N948 N 0.56846 0.36072 0.99332 0.0
N949 N 0.54628 0.37675 0.84666 0.0
H950 H 0.3483 0.78103 1.02587 0.0
H951 H 0.39685 0.8366 0.32768 0.0
H952 H 0.34794 0.73411 0.17773 0.0
H953 H 0.4102 0.87188 0.16333 0.0
H954 H 0.37431 0.80086 0.27921 0.0
H955 H 0.36421 0.81729 0.08178 0.0
C956 C 0.35087 0.77864 0.07156 0.0
C957 C 0.3464 0.7547 0.09736 0.0
C958 C 0.3822 0.81646 0.25396 0.0
C959 C 0.36589 0.79596 0.16179 0.0
C960 C 0.39517 0.83677 0.28153 0.0
C961 C 0.40552 0.85725 0.24949 0.0
C962 C 0.37931 0.81688 0.1941 0.0
C963 C 0.4026 0.85657 0.18988 0.0
C964 C 0.36033 0.79925 0.10344 0.0
C965 C 0.35064 0.75245 0.15651 0.0
N966 N 0.38977 0.8369 0.16439 0.0
N967 N 0.36042 0.77277 0.18677 0.0
H968 H 0.1205 0.33246 0.68183 0.0
H969 H 0.98432 0.40383 0.66222 0.0
H970 H 0.08661 0.35056 0.51843 0.0
H971 H 0.03115 0.39933 0.81377 0.0
H972 H 0.02045 0.38583 0.60624 0.0
H973 H 0.08625 0.35625 0.72912 0.0
C974 C 0.10573 0.34136 0.65578 0.0
C975 C 0.10654 0.3395 0.59599 0.0
C976 C 0.02296 0.38936 0.65151 0.0
C977 C 0.06685 0.3672 0.65035 0.0
C978 C 0.00248 0.40001 0.68328 0.0
C979 C 0.00481 0.40331 0.74271 0.0
C980 C 0.04572 0.38179 0.67966 0.0
C981 C 0.02853 0.39725 0.76806 0.0
C982 C 0.08617 0.35516 0.68289 0.0
C983 C 0.08672 0.35147 0.56467 0.0
N984 N 0.0478 0.38659 0.73672 0.0
N985 N 0.06763 0.36478 0.59219 0.0
H986 H 0.85792 0.87236 0.32747 0.0
H987 H 0.89772 0.74063 0.47949 0.0
H988 H 0.93396 0.83938 0.31819 0.0
H989 H 0.81851 0.76448 0.46396 0.0
H990 H 0.91063 0.77623 0.41831 0.0
H991 H 0.8425 0.83303 0.3746 0.0
C992 C 0.87133 0.85673 0.33497 0.0
C993 C 0.89732 0.85922 0.31932 0.0
C994 C 0.89038 0.7737 0.42773 0.0
C995 C 0.87982 0.81418 0.37361 0.0
C996 C 0.88294 0.75334 0.46296 0.0
C997 C 0.85695 0.74963 0.47745 0.0
C998 C 0.87182 0.79095 0.407 0.0
C999 C 0.83874 0.7666 0.45394 0.0
C1000 C 0.86249 0.83427 0.36182 0.0
C1001 C 0.9138 0.83834 0.32975 0.0
N1002 N 0.84655 0.78674 0.42043 0.0
N1003 N 0.90484 0.81685 0.35668 0.0
H1004 H 0.41066 0.68615 0.06498 0.0
H1005 H 0.48121 0.56681 0.22099 0.0
H1006 H 0.37571 0.61136 0.08482 0.0
H1007 H 0.51085 0.64436 0.2157 0.0
H1008 H 0.44504 0.58072 0.15988 0.0
H1009 H 0.45006 0.66936 0.1094 0.0
C1010 C 0.41135 0.66616 0.07832 0.0
C1011 C 0.38979 0.65023 0.07175 0.0
C1012 C 0.45966 0.59458 0.17169 0.0
C1013 C 0.43483 0.63075 0.12273 0.0
C1014 C 0.48039 0.58656 0.20617 0.0
C1015 C 0.49896 0.60446 0.22396 0.0
C1016 C 0.45769 0.6206 0.15457 0.0
C1017 C 0.4968 0.62992 0.20375 0.0
C1018 C 0.43383 0.65654 0.10377 0.0
C1019 C 0.39182 0.6244 0.08958 0.0
N1020 N 0.47659 0.6372 0.17063 0.0
N1021 N 0.41381 0.61552 0.11448 0.0
H1022 H 0.68086 0.23009 0.97749 0.0
H1023 H 0.56324 0.16173 0.8127 0.0
H1024 H 0.60405 0.26108 0.96514 0.0
H1025 H 0.63801 0.12662 0.83067 0.0
H1026 H 0.57981 0.20066 0.85904 0.0
H1027 H 0.66775 0.19445 0.91396 0.0
C1028 C 0.66145 0.22965 0.96068 0.0
C1029 C 0.64347 0.2484 0.97718 0.0
C1030 C 0.5927 0.18452 0.85258 0.0
C1031 C 0.62826 0.20782 0.90508 0.0
C1032 C 0.58319 0.1623 0.82602 0.0
C1033 C 0.59918 0.14084 0.81833 0.0
C1034 C 0.6184 0.18532 0.87178 0.0
C1035 C 0.62496 0.14269 0.83621 0.0
C1036 C 0.65389 0.20925 0.92478 0.0
C1037 C 0.61848 0.24683 0.95434 0.0
N1038 N 0.63372 0.16442 0.86244 0.0
N1039 N 0.61164 0.22692 0.91998 0.0
H1040 H 0.32366 0.2334 0.29549 0.0
H1041 H 0.17235 0.26107 0.29481 0.0
H1042 H 0.2739 0.21064 0.15706 0.0
H1043 H 0.22262 0.28416 0.43209 0.0
H1044 H 0.20885 0.24218 0.24485 0.0
H1045 H 0.28685 0.25091 0.3464 0.0
C1046 C 0.30487 0.23192 0.27574 0.0
C1047 C 0.30194 0.22047 0.22161 0.0
C1048 C 0.21203 0.25137 0.28579 0.0
C1049 C 0.2593 0.24089 0.28037 0.0
C1050 C 0.19117 0.26227 0.31455 0.0
C1051 C 0.19438 0.27437 0.36792 0.0
C1052 C 0.23658 0.25241 0.31031 0.0
C1053 C 0.21923 0.27519 0.39109 0.0
C1054 C 0.28381 0.24203 0.30506 0.0
C1055 C 0.27707 0.21914 0.19862 0.0
N1056 N 0.23937 0.26434 0.36214 0.0
N1057 N 0.25671 0.22934 0.22805 0.0
H1058 H 0.51985 0.57177 0.54669 0.0
H1059 H 0.47398 0.4248 0.53691 0.0
H1060 H 0.52764 0.52398 0.39703 0.0
H1061 H 0.46593 0.4728 0.6862 0.0
H1062 H 0.49315 0.46075 0.48532 0.0
H1063 H 0.50101 0.5357 0.59837 0.0
C1064 C 0.51788 0.5535 0.52475 0.0
C1065 C 0.52549 0.5509 0.46731 0.0
C1066 C 0.48709 0.4636 0.52918 0.0
C1067 C 0.50334 0.50929 0.52664 0.0
C1068 C 0.47599 0.44308 0.5588 0.0
C1069 C 0.46817 0.44579 0.61607 0.0
C1070 C 0.49066 0.48725 0.55685 0.0
C1071 C 0.47135 0.46991 0.642 0.0
C1072 C 0.50695 0.53291 0.55442 0.0
C1073 C 0.52236 0.52678 0.44132 0.0
N1074 N 0.48247 0.48969 0.61225 0.0
N1075 N 0.51139 0.50693 0.47112 0.0
H1076 H 0.17001 0.75478 0.783 0.0
H1077 H 0.32286 0.73763 0.79468 0.0
H1078 H 0.22093 0.78762 0.65693 0.0
H1079 H 0.27203 0.71108 0.92795 0.0
H1080 H 0.28602 0.75462 0.74247 0.0
H1081 H 0.20692 0.73783 0.83455 0.0
C1082 C 0.18905 0.75852 0.76604 0.0
C1083 C 0.19229 0.77271 0.71525 0.0
C1084 C 0.2828 0.745 0.78295 0.0
C1085 C 0.23507 0.75299 0.77479 0.0
C1086 C 0.30385 0.73517 0.81295 0.0
C1087 C 0.3006 0.72264 0.86587 0.0
C1088 C 0.25799 0.74239 0.80571 0.0
C1089 C 0.27549 0.72021 0.88716 0.0
C1090 C 0.21018 0.74875 0.79575 0.0
C1091 C 0.21748 0.77684 0.69574 0.0
N1092 N 0.25517 0.73 0.85703 0.0
N1093 N 0.23791 0.76696 0.72548 0.0
H1094 H 0.00766 0.57528 0.04895 0.0
H1095 H 0.98967 0.42238 1.03489 0.0
H1096 H 0.03532 0.52395 0.18027 0.0
H1097 H 0.9601 0.47423 0.90669 0.0
H1098 H 0.00661 0.459 0.08794 0.0
H1099 H 0.9908 0.53859 0.99636 0.0
C1100 C 0.01033 0.55618 0.06676 0.0
C1101 C 0.02311 0.55274 0.11922 0.0
C1102 C 0.99637 0.46249 0.04838 0.0
C1103 C 0.00351 0.51028 0.05859 0.0
C1104 C 0.98661 0.44156 1.01788 0.0
C1105 C 0.97329 0.44521 0.96616 0.0
C1106 C 0.99295 0.48751 1.02719 0.0
C1107 C 0.97002 0.47051 0.94645 0.0
C1108 C 0.0006 0.5352 1.03651 0.0
C1109 C 0.02588 0.52752 0.13988 0.0
N1110 N 0.97983 0.49069 0.97695 0.0
N1111 N 0.01612 0.50725 0.10953 0.0
H1112 H 0.67831 0.7827 0.78677 0.0
H1113 H 0.81239 0.70802 0.7957 0.0
H1114 H 0.72212 0.77308 0.94171 0.0
H1115 H 0.77652 0.732 0.63816 0.0
H1116 H 0.77894 0.73031 0.84949 0.0
H1117 H 0.71368 0.76416 0.73205 0.0
C1118 C 0.69562 0.777 0.80927 0.0
C1119 C 0.69729 0.77952 0.86898 0.0
C1120 C 0.77831 0.73078 0.80323 0.0
C1121 C 0.73788 0.75755 0.80625 0.0
C1122 C 0.79736 0.71789 0.77226 0.0
C1123 C 0.79735 0.71815 0.7121 0.0
C1124 C 0.75875 0.74395 0.77412 0.0
C1125 C 0.77729 0.73124 0.68438 0.0
C1126 C 0.71581 0.76631 0.77786 0.0
C1127 C 0.72013 0.77173 0.89574 0.0
N1128 N 0.75878 0.74358 0.71562 0.0
N1129 N 0.73944 0.7608 0.86423 0.0
H1130 H 0.72409 0.28956 0.16622 0.0
H1131 H 0.77297 0.20186 0.43047 0.0
H1132 H 0.67332 0.24469 0.27279 0.0
H1133 H 0.82294 0.24724 0.323 0.0
H1134 H 0.73593 0.21698 0.37351 0.0
H1135 H 0.76079 0.27374 0.22278 0.0
C1136 C 0.72068 0.27633 0.20117 0.0
C1137 C 0.69562 0.26845 0.21465 0.0
C1138 C 0.75506 0.22361 0.36256 0.0
C1139 C 0.73736 0.25033 0.27997 0.0
C1140 C 0.77614 0.21501 0.39526 0.0
C1141 C 0.80107 0.22332 0.38172 0.0
C1142 C 0.75904 0.24059 0.31612 0.0
C1143 C 0.80408 0.24028 0.33516 0.0
C1144 C 0.74159 0.26732 0.23368 0.0
C1145 C 0.69232 0.25133 0.26083 0.0
N1146 N 0.78346 0.24829 0.30427 0.0
N1147 N 0.71283 0.2429 0.29171 0.0
H1148 H 0.99507 0.07947 1.01703 0.0
H1149 H 0.99696 0.92657 0.06208 0.0
H1150 H 0.04095 0.02736 0.91621 0.0
H1151 H 0.95352 0.9776 0.17084 0.0
H1152 H 0.01197 0.96333 1.00726 0.0
H1153 H 0.97838 0.04287 0.0716 0.0
C1154 C 0.00151 0.06025 1.00601 0.0
C1155 C 0.01937 0.05646 0.96158 0.0
C1156 C -0.00084 0.96665 1.04305 0.0
C1157 C 0.00039 0.01434 1.0245 0.0
C1158 C 0.99051 0.94559 0.07464 0.0
C1159 C 0.97384 0.94889 0.12148 0.0
C1160 C 0.99116 0.99155 0.05789 0.0
C1161 C 0.96629 0.97408 0.13532 0.0
C1162 C 0.99199 0.03936 1.0374 0.0
C1163 C 0.02706 0.03117 0.9495 0.0
N1164 N 0.97499 0.99447 0.10363 0.0
N1165 N 0.01757 0.01112 0.98081 0.0
H1166 H 0.49811 0.0726 0.56461 0.0
H1167 H 0.5014 0.91959 0.52386 0.0
H1168 H 0.54154 0.02219 0.67489 0.0
H1169 H 0.45559 0.97049 0.41971 0.0
H1170 H 0.51756 0.95665 0.57698 0.0
H1171 H 0.48367 0.03556 0.50989 0.0
C1172 C 0.50469 0.05365 0.57746 0.0
C1173 C 0.52117 0.05058 0.62466 0.0
C1174 C 0.50408 0.95982 0.5424 0.0
C1175 C 0.50451 0.00767 0.56131 0.0
C1176 C 0.49483 0.93865 0.51181 0.0
C1177 C 0.47712 0.94192 0.46693 0.0
C1178 C 0.49558 0.98466 0.52833 0.0
C1179 C 0.46934 0.96706 0.45348 0.0
C1180 C 0.49637 0.03245 0.54594 0.0
C1181 C 0.52893 0.02551 0.63894 0.0
N1182 N 0.47857 0.98744 0.48414 0.0
N1183 N 0.52053 0.005 0.60737 0.0
loop_
_geom_bond_atom_site_label_1
_geom_bond_atom_site_label_2
_geom_bond_distance
_geom_bond_site_symmetry_2
_ccdc_geom_bond_type
Tb0 O3 2.453 . S
Tb0 O4 2.596 . S
Tb0 O5 2.374 . S
Tb0 O13 2.343 . S
Tb0 O15 2.353 . S
Tb0 O17 2.427 . S
Tb0 O18 2.513 . S
C1 O5 1.251 . S
C1 O7 1.263 . S
Tb2 O4 2.343 . S
Tb2 O7 2.353 . S
Tb2 O10 2.427 . S
Tb2 O11 2.513 . S
Tb2 O12 2.453 1_554 S
Tb2 O13 2.596 . S
Tb2 O14 2.374 1_554 S
O3 Tb0 2.453 . S
O3 C19 1.245 . S
O4 Tb0 2.596 . S
O4 Tb2 2.343 . S
O4 C19 1.259 . S
O5 Tb0 2.374 . S
O5 C1 1.251 . S
C6 O10 1.275 . S
C6 O11 1.246 . S
O7 C1 1.263 . S
O7 Tb2 2.353 . S
C8 O12 1.238 1_554 S
C8 O13 1.270 . S
C9 O14 1.250 1_554 S
C9 O15 1.263 . S
O10 Tb2 2.427 . S
O10 C6 1.275 . S
O11 Tb2 2.513 . S
O11 C6 1.246 . S
O12 Tb2 2.453 1_556 S
O12 C8 1.238 1_556 S
O13 Tb0 2.343 . S
O13 Tb2 2.596 . S
O13 C8 1.270 . S
O14 Tb2 2.374 1_556 S
O14 C9 1.250 1_556 S
O15 Tb0 2.353 . S
O15 C9 1.263 . S
C16 O17 1.275 . S
C16 O18 1.246 . S
O17 Tb0 2.427 . S
O17 C16 1.275 . S
O18 Tb0 2.513 . S
O18 C16 1.246 . S
C19 O3 1.245 . S
C19 O4 1.259 . S
Tb20 O23 2.453 . S
Tb20 O24 2.596 . S
Tb20 O25 2.374 . S
Tb20 O33 2.343 . S
Tb20 O35 2.353 . S
Tb20 O37 2.427 . S
Tb20 O38 2.513 . S
C21 O25 1.251 . S
C21 O27 1.263 . S
Tb22 O24 2.343 . S
Tb22 O27 2.353 . S
Tb22 O30 2.427 . S
Tb22 O31 2.513 . S
Tb22 O32 2.453 . S
Tb22 O33 2.596 . S
Tb22 O34 2.374 . S
O23 Tb20 2.453 . S
O23 C39 1.245 . S
O24 Tb20 2.596 . S
O24 Tb22 2.343 . S
O24 C39 1.259 . S
O25 Tb20 2.374 . S
O25 C21 1.251 . S
C26 O30 1.275 . S
C26 O31 1.246 . S
O27 C21 1.263 . S
O27 Tb22 2.353 . S
C28 O32 1.245 . S
C28 O33 1.259 . S
C29 O34 1.250 . S
C29 O35 1.263 . S
O30 Tb22 2.427 . S
O30 C26 1.275 . S
O31 Tb22 2.513 . S
O31 C26 1.246 . S
O32 Tb22 2.453 . S
O32 C28 1.245 . S
O33 Tb20 2.343 . S
O33 Tb22 2.596 . S
O33 C28 1.259 . S
O34 Tb22 2.374 . S
O34 C29 1.250 . S
O35 Tb20 2.353 . S
O35 C29 1.263 . S
C36 O37 1.275 . S
C36 O38 1.246 . S
O37 Tb20 2.427 . S
O37 C36 1.275 . S
O38 Tb20 2.513 . S
O38 C36 1.246 . S
C39 O23 1.245 . S
C39 O24 1.259 . S
Tb40 O43 2.453 . S
Tb40 O44 2.596 . S
Tb40 O45 2.374 . S
Tb40 O53 2.343 . S
Tb40 O55 2.353 . S
Tb40 O57 2.427 . S
Tb40 O58 2.513 . S
C41 O45 1.251 . S
C41 O47 1.263 . S
Tb42 O44 2.343 . S
Tb42 O47 2.353 . S
Tb42 O50 2.427 . S
Tb42 O51 2.513 . S
Tb42 O52 2.453 . S
Tb42 O53 2.596 . S
Tb42 O54 2.374 . S
O43 Tb40 2.453 . S
O43 C59 1.245 . S
O44 Tb40 2.596 . S
O44 Tb42 2.343 . S
O44 C59 1.259 . S
O45 Tb40 2.374 . S
O45 C41 1.251 . S
C46 O50 1.275 . S
C46 O51 1.246 . S
O47 C41 1.263 . S
O47 Tb42 2.353 . S
C48 O52 1.245 . S
C48 O53 1.259 . S
C49 O54 1.250 . S
C49 O55 1.263 . S
O50 Tb42 2.427 . S
O50 C46 1.275 . S
O51 Tb42 2.513 . S
O51 C46 1.246 . S
O52 Tb42 2.453 . S
O52 C48 1.245 . S
O53 Tb40 2.343 . S
O53 Tb42 2.596 . S
O53 C48 1.259 . S
O54 Tb42 2.374 . S
O54 C49 1.250 . S
O55 Tb40 2.353 . S
O55 C49 1.263 . S
C56 O57 1.275 . S
C56 O58 1.246 . S
O57 Tb40 2.427 . S
O57 C56 1.275 . S
O58 Tb40 2.513 . S
O58 C56 1.246 . S
C59 O43 1.245 . S
C59 O44 1.259 . S
Tb60 O63 2.453 . S
Tb60 O64 2.596 . S
Tb60 O65 2.374 . S
Tb60 O73 2.343 . S
Tb60 O75 2.353 . S
Tb60 O77 2.427 . S
Tb60 O78 2.513 . S
C61 O65 1.251 . S
C61 O67 1.263 . S
Tb62 O64 2.343 . S
Tb62 O67 2.353 . S
Tb62 O70 2.427 . S
Tb62 O71 2.513 . S
Tb62 O72 2.453 . S
Tb62 O73 2.596 . S
Tb62 O74 2.374 . S
O63 Tb60 2.453 . S
O63 C79 1.245 . S
O64 Tb60 2.596 . S
O64 Tb62 2.343 . S
O64 C79 1.259 . S
O65 Tb60 2.374 . S
O65 C61 1.251 . S
C66 O70 1.275 . S
C66 O71 1.246 . S
O67 C61 1.263 . S
O67 Tb62 2.353 . S
C68 O72 1.245 . S
C68 O73 1.259 . S
C69 O74 1.250 . S
C69 O75 1.263 . S
O70 Tb62 2.427 . S
O70 C66 1.275 . S
O71 Tb62 2.513 . S
O71 C66 1.246 . S
O72 Tb62 2.453 . S
O72 C68 1.245 . S
O73 Tb60 2.343 . S
O73 Tb62 2.596 . S
O73 C68 1.259 . S
O74 Tb62 2.374 . S
O74 C69 1.250 . S
O75 Tb60 2.353 . S
O75 C69 1.263 . S
C76 O77 1.275 . S
C76 O78 1.246 . S
O77 Tb60 2.427 . S
O77 C76 1.275 . S
O78 Tb60 2.513 . S
O78 C76 1.246 . S
C79 O63 1.245 . S
C79 O64 1.259 . S
Tb80 O83 2.453 1_556 S
Tb80 O84 2.596 . S
Tb80 O85 2.374 1_556 S
Tb80 O93 2.343 . S
Tb80 O95 2.353 . S
Tb80 O97 2.427 . S
Tb80 O98 2.513 . S
C81 O85 1.251 1_556 S
C81 O87 1.263 . S
Tb82 O84 2.343 . S
Tb82 O87 2.353 . S
Tb82 O90 2.427 . S
Tb82 O91 2.513 . S
Tb82 O92 2.453 . S
Tb82 O93 2.596 . S
Tb82 O94 2.374 . S
O83 Tb80 2.453 1_554 S
O83 C99 1.238 1_554 S
O84 Tb80 2.596 . S
O84 Tb82 2.343 . S
O84 C99 1.270 . S
O85 Tb80 2.374 1_554 S
O85 C81 1.251 1_554 S
C86 O90 1.275 . S
C86 O91 1.246 . S
O87 C81 1.263 . S
O87 Tb82 2.353 . S
C88 O92 1.245 . S
C88 O93 1.259 . S
C89 O94 1.250 . S
C89 O95 1.263 . S
O90 Tb82 2.427 . S
O90 C86 1.275 . S
O91 Tb82 2.513 . S
O91 C86 1.246 . S
O92 Tb82 2.453 . S
O92 C88 1.245 . S
O93 Tb80 2.343 . S
O93 Tb82 2.596 . S
O93 C88 1.259 . S
O94 Tb82 2.374 . S
O94 C89 1.250 . S
O95 Tb80 2.353 . S
O95 C89 1.263 . S
C96 O97 1.275 . S
C96 O98 1.246 . S
O97 Tb80 2.427 . S
O97 C96 1.275 . S
O98 Tb80 2.513 . S
O98 C96 1.246 . S
C99 O83 1.238 1_556 S
C99 O84 1.270 . S
Tb100 O103 2.453 . S
Tb100 O104 2.596 . S
Tb100 O105 2.374 . S
Tb100 O113 2.343 . S
Tb100 O115 2.353 . S
Tb100 O117 2.427 . S
Tb100 O118 2.513 . S
C101 O105 1.251 . S
C101 O107 1.263 . S
Tb102 O104 2.343 . S
Tb102 O107 2.353 . S
Tb102 O110 2.427 . S
Tb102 O111 2.513 . S
Tb102 O112 2.453 . S
Tb102 O113 2.596 . S
Tb102 O114 2.374 . S
O103 Tb100 2.453 . S
O103 C119 1.245 . S
O104 Tb100 2.596 . S
O104 Tb102 2.343 . S
O104 C119 1.259 . S
O105 Tb100 2.374 . S
O105 C101 1.251 . S
C106 O110 1.275 . S
C106 O111 1.246 . S
O107 C101 1.263 . S
O107 Tb102 2.353 . S
C108 O112 1.245 . S
C108 O113 1.259 . S
C109 O114 1.250 . S
C109 O115 1.263 . S
O110 Tb102 2.427 . S
O110 C106 1.275 . S
O111 Tb102 2.513 . S
O111 C106 1.246 . S
O112 Tb102 2.453 . S
O112 C108 1.245 . S
O113 Tb100 2.343 . S
O113 Tb102 2.596 . S
O113 C108 1.259 . S
O114 Tb102 2.374 . S
O114 C109 1.250 . S
O115 Tb100 2.353 . S
O115 C109 1.263 . S
C116 O117 1.275 . S
C116 O118 1.246 . S
O117 Tb100 2.427 . S
O117 C116 1.275 . S
O118 Tb100 2.513 . S
O118 C116 1.246 . S
C119 O103 1.245 . S
C119 O104 1.259 . S
Tb120 O123 2.453 . S
Tb120 O124 2.596 . S
Tb120 O125 2.374 . S
Tb120 O133 2.343 . S
Tb120 O135 2.353 . S
Tb120 O137 2.427 . S
Tb120 O138 2.513 . S
C121 O125 1.251 . S
C121 O127 1.263 . S
Tb122 O124 2.343 . S
Tb122 O127 2.353 . S
Tb122 O130 2.427 . S
Tb122 O131 2.513 . S
Tb122 O132 2.453 . S
Tb122 O133 2.596 . S
Tb122 O134 2.374 . S
O123 Tb120 2.453 . S
O123 C139 1.245 . S
O124 Tb120 2.596 . S
O124 Tb122 2.343 . S
O124 C139 1.259 . S
O125 Tb120 2.374 . S
O125 C121 1.251 . S
C126 O130 1.275 . S
C126 O131 1.246 . S
O127 C121 1.263 . S
O127 Tb122 2.353 . S
C128 O132 1.245 . S
C128 O133 1.259 . S
C129 O134 1.250 . S
C129 O135 1.263 . S
O130 Tb122 2.427 . S
O130 C126 1.275 . S
O131 Tb122 2.513 . S
O131 C126 1.246 . S
O132 Tb122 2.453 . S
O132 C128 1.245 . S
O133 Tb120 2.343 . S
O133 Tb122 2.596 . S
O133 C128 1.259 . S
O134 Tb122 2.374 . S
O134 C129 1.250 . S
O135 Tb120 2.353 . S
O135 C129 1.263 . S
C136 O137 1.275 . S
C136 O138 1.246 . S
O137 Tb120 2.427 . S
O137 C136 1.275 . S
O138 Tb120 2.513 . S
O138 C136 1.246 . S
C139 O123 1.245 . S
C139 O124 1.259 . S
Tb140 O143 2.453 . S
Tb140 O144 2.596 . S
Tb140 O145 2.374 . S
Tb140 O153 2.343 . S
Tb140 O155 2.353 . S
Tb140 O157 2.427 . S
Tb140 O158 2.513 . S
C141 O145 1.251 . S
C141 O147 1.263 . S
Tb142 O144 2.343 . S
Tb142 O147 2.353 . S
Tb142 O150 2.427 . S
Tb142 O151 2.513 . S
Tb142 O152 2.453 . S
Tb142 O153 2.596 . S
Tb142 O154 2.374 . S
O143 Tb140 2.453 . S
O143 C159 1.245 . S
O144 Tb140 2.596 . S
O144 Tb142 2.343 . S
O144 C159 1.259 . S
O145 Tb140 2.374 . S
O145 C141 1.251 . S
C146 O150 1.275 . S
C146 O151 1.246 . S
O147 C141 1.263 . S
O147 Tb142 2.353 . S
C148 O152 1.245 . S
C148 O153 1.259 . S
C149 O154 1.250 . S
C149 O155 1.263 . S
O150 Tb142 2.427 . S
O150 C146 1.275 . S
O151 Tb142 2.513 . S
O151 C146 1.246 . S
O152 Tb142 2.453 . S
O152 C148 1.245 . S
O153 Tb140 2.343 . S
O153 Tb142 2.596 . S
O153 C148 1.259 . S
O154 Tb142 2.374 . S
O154 C149 1.250 . S
O155 Tb140 2.353 . S
O155 C149 1.263 . S
C156 O157 1.275 . S
C156 O158 1.246 . S
O157 Tb140 2.427 . S
O157 C156 1.275 . S
O158 Tb140 2.513 . S
O158 C156 1.246 . S
C159 O143 1.245 . S
C159 O144 1.259 . S
Tb160 O163 2.453 . S
Tb160 O164 2.596 . S
Tb160 O165 2.374 . S
Tb160 O173 2.343 . S
Tb160 O175 2.353 . S
Tb160 O177 2.427 . S
Tb160 O178 2.513 . S
C161 O165 1.251 . S
C161 O167 1.263 . S
Tb162 O164 2.343 . S
Tb162 O167 2.353 . S
Tb162 O170 2.427 . S
Tb162 O171 2.513 . S
Tb162 O172 2.453 . S
Tb162 O173 2.596 . S
Tb162 O174 2.374 . S
O163 Tb160 2.453 . S
O163 C179 1.245 . S
O164 Tb160 2.596 . S
O164 Tb162 2.343 . S
O164 C179 1.259 . S
O165 Tb160 2.374 . S
O165 C161 1.251 . S
C166 O170 1.275 . S
C166 O171 1.246 . S
O167 C161 1.263 . S
O167 Tb162 2.353 . S
C168 O172 1.245 . S
C168 O173 1.259 . S
C169 O174 1.250 . S
C169 O175 1.263 . S
O170 Tb162 2.427 . S
O170 C166 1.275 . S
O171 Tb162 2.513 . S
O171 C166 1.246 . S
O172 Tb162 2.453 . S
O172 C168 1.245 . S
O173 Tb160 2.343 . S
O173 Tb162 2.596 . S
O173 C168 1.259 . S
O174 Tb162 2.374 . S
O174 C169 1.250 . S
O175 Tb160 2.353 . S
O175 C169 1.263 . S
C176 O177 1.275 . S
C176 O178 1.246 . S
O177 Tb160 2.427 . S
O177 C176 1.275 . S
O178 Tb160 2.513 . S
O178 C176 1.246 . S
C179 O163 1.245 . S
C179 O164 1.259 . S
Tb180 O183 2.453 . S
Tb180 O184 2.596 . S
Tb180 O185 2.374 . S
Tb180 O193 2.343 . S
Tb180 O195 2.353 . S
Tb180 O197 2.427 . S
Tb180 O198 2.513 . S
C181 O185 1.251 . S
C181 O187 1.263 . S
Tb182 O184 2.343 . S
Tb182 O187 2.353 . S
Tb182 O190 2.427 . S
Tb182 O191 2.513 . S
Tb182 O192 2.453 . S
Tb182 O193 2.596 . S
Tb182 O194 2.374 . S
O183 Tb180 2.453 . S
O183 C199 1.245 . S
O184 Tb180 2.596 . S
O184 Tb182 2.343 . S
O184 C199 1.259 . S
O185 Tb180 2.374 . S
O185 C181 1.251 . S
C186 O190 1.275 . S
C186 O191 1.246 . S
O187 C181 1.263 . S
O187 Tb182 2.353 . S
C188 O192 1.245 . S
C188 O193 1.259 . S
C189 O194 1.250 . S
C189 O195 1.263 . S
O190 Tb182 2.427 . S
O190 C186 1.275 . S
O191 Tb182 2.513 . S
O191 C186 1.246 . S
O192 Tb182 2.453 . S
O192 C188 1.245 . S
O193 Tb180 2.343 . S
O193 Tb182 2.596 . S
O193 C188 1.259 . S
O194 Tb182 2.374 . S
O194 C189 1.250 . S
O195 Tb180 2.353 . S
O195 C189 1.263 . S
C196 O197 1.275 . S
C196 O198 1.246 . S
O197 Tb180 2.427 . S
O197 C196 1.275 . S
O198 Tb180 2.513 . S
O198 C196 1.246 . S
C199 O183 1.245 . S
C199 O184 1.259 . S
Tb200 O203 2.453 . S
Tb200 O204 2.596 . S
Tb200 O205 2.374 . S
Tb200 O213 2.343 . S
Tb200 O215 2.353 . S
Tb200 O217 2.427 . S
Tb200 O218 2.513 . S
C201 O205 1.251 . S
C201 O207 1.263 . S
Tb202 O204 2.343 . S
Tb202 O207 2.353 . S
Tb202 O210 2.427 . S
Tb202 O211 2.513 . S
Tb202 O212 2.453 1_554 S
Tb202 O213 2.596 . S
Tb202 O214 2.374 1_554 S
O203 Tb200 2.453 . S
O203 C219 1.245 . S
O204 Tb200 2.596 . S
O204 Tb202 2.343 . S
O204 C219 1.259 . S
O205 Tb200 2.374 . S
O205 C201 1.251 . S
C206 O210 1.275 . S
C206 O211 1.246 . S
O207 C201 1.263 . S
O207 Tb202 2.353 . S
C208 O212 1.238 1_554 S
C208 O213 1.270 . S
C209 O214 1.250 1_554 S
C209 O215 1.263 . S
O210 Tb202 2.427 . S
O210 C206 1.275 . S
O211 Tb202 2.513 . S
O211 C206 1.246 . S
O212 Tb202 2.453 1_556 S
O212 C208 1.238 1_556 S
O213 Tb200 2.343 . S
O213 Tb202 2.596 . S
O213 C208 1.270 . S
O214 Tb202 2.374 1_556 S
O214 C209 1.250 1_556 S
O215 Tb200 2.353 . S
O215 C209 1.263 . S
C216 O217 1.275 . S
C216 O218 1.246 . S
O217 Tb200 2.427 . S
O217 C216 1.275 . S
O218 Tb200 2.513 . S
O218 C216 1.246 . S
C219 O203 1.245 . S
C219 O204 1.259 . S
Tb220 O223 2.453 . S
Tb220 O224 2.596 . S
Tb220 O225 2.374 . S
Tb220 O233 2.343 . S
Tb220 O235 2.353 . S
Tb220 O237 2.427 . S
Tb220 O238 2.513 . S
C221 O225 1.251 . S
C221 O227 1.263 . S
Tb222 O224 2.343 . S
Tb222 O227 2.353 . S
Tb222 O230 2.427 . S
Tb222 O231 2.513 . S
Tb222 O232 2.453 . S
Tb222 O233 2.596 . S
Tb222 O234 2.374 . S
O223 Tb220 2.453 . S
O223 C239 1.245 . S
O224 Tb220 2.596 . S
O224 Tb222 2.343 . S
O224 C239 1.259 . S
O225 Tb220 2.374 . S
O225 C221 1.251 . S
C226 O230 1.275 . S
C226 O231 1.246 . S
O227 C221 1.263 . S
O227 Tb222 2.353 . S
C228 O232 1.245 . S
C228 O233 1.259 . S
C229 O234 1.250 . S
C229 O235 1.263 . S
O230 Tb222 2.427 . S
O230 C226 1.275 . S
O231 Tb222 2.513 . S
O231 C226 1.246 . S
O232 Tb222 2.453 . S
O232 C228 1.245 . S
O233 Tb220 2.343 . S
O233 Tb222 2.596 . S
O233 C228 1.259 . S
O234 Tb222 2.374 . S
O234 C229 1.250 . S
O235 Tb220 2.353 . S
O235 C229 1.263 . S
C236 O237 1.275 . S
C236 O238 1.246 . S
O237 Tb220 2.427 . S
O237 C236 1.275 . S
O238 Tb220 2.513 . S
O238 C236 1.246 . S
C239 O223 1.245 . S
C239 O224 1.259 . S
Tb240 O243 2.453 . S
Tb240 O244 2.596 . S
Tb240 O245 2.374 . S
Tb240 O253 2.343 . S
Tb240 O255 2.353 . S
Tb240 O257 2.427 . S
Tb240 O258 2.513 . S
C241 O245 1.251 . S
C241 O247 1.263 . S
Tb242 O244 2.343 . S
Tb242 O247 2.353 . S
Tb242 O250 2.427 . S
Tb242 O251 2.513 . S
Tb242 O252 2.453 . S
Tb242 O253 2.596 . S
Tb242 O254 2.374 . S
O243 Tb240 2.453 . S
O243 C259 1.245 . S
O244 Tb240 2.596 . S
O244 Tb242 2.343 . S
O244 C259 1.259 . S
O245 Tb240 2.374 . S
O245 C241 1.251 . S
C246 O250 1.275 . S
C246 O251 1.246 . S
O247 C241 1.263 . S
O247 Tb242 2.353 . S
C248 O252 1.245 . S
C248 O253 1.259 . S
C249 O254 1.250 . S
C249 O255 1.263 . S
O250 Tb242 2.427 . S
O250 C246 1.275 . S
O251 Tb242 2.513 . S
O251 C246 1.246 . S
O252 Tb242 2.453 . S
O252 C248 1.245 . S
O253 Tb240 2.343 . S
O253 Tb242 2.596 . S
O253 C248 1.259 . S
O254 Tb242 2.374 . S
O254 C249 1.250 . S
O255 Tb240 2.353 . S
O255 C249 1.263 . S
C256 O257 1.275 . S
C256 O258 1.246 . S
O257 Tb240 2.427 . S
O257 C256 1.275 . S
O258 Tb240 2.513 . S
O258 C256 1.246 . S
C259 O243 1.245 . S
C259 O244 1.259 . S
Tb260 O263 2.453 . S
Tb260 O264 2.596 . S
Tb260 O265 2.374 . S
Tb260 O273 2.343 . S
Tb260 O275 2.353 . S
Tb260 O277 2.427 . S
Tb260 O278 2.513 . S
C261 O265 1.251 . S
C261 O267 1.263 . S
Tb262 O264 2.343 . S
Tb262 O267 2.353 . S
Tb262 O270 2.427 . S
Tb262 O271 2.513 . S
Tb262 O272 2.453 . S
Tb262 O273 2.596 . S
Tb262 O274 2.374 . S
O263 Tb260 2.453 . S
O263 C279 1.245 . S
O264 Tb260 2.596 . S
O264 Tb262 2.343 . S
O264 C279 1.259 . S
O265 Tb260 2.374 . S
O265 C261 1.251 . S
C266 O270 1.275 . S
C266 O271 1.246 . S
O267 C261 1.263 . S
O267 Tb262 2.353 . S
C268 O272 1.245 . S
C268 O273 1.259 . S
C269 O274 1.250 . S
C269 O275 1.263 . S
O270 Tb262 2.427 . S
O270 C266 1.275 . S
O271 Tb262 2.513 . S
O271 C266 1.246 . S
O272 Tb262 2.453 . S
O272 C268 1.245 . S
O273 Tb260 2.343 . S
O273 Tb262 2.596 . S
O273 C268 1.259 . S
O274 Tb262 2.374 . S
O274 C269 1.250 . S
O275 Tb260 2.353 . S
O275 C269 1.263 . S
C276 O277 1.275 . S
C276 O278 1.246 . S
O277 Tb260 2.427 . S
O277 C276 1.275 . S
O278 Tb260 2.513 . S
O278 C276 1.246 . S
C279 O263 1.245 . S
C279 O264 1.259 . S
Tb280 O283 2.453 1_556 S
Tb280 O284 2.596 . S
Tb280 O285 2.374 1_556 S
Tb280 O293 2.343 . S
Tb280 O295 2.353 . S
Tb280 O297 2.427 . S
Tb280 O298 2.513 . S
C281 O285 1.251 1_556 S
C281 O287 1.263 . S
Tb282 O284 2.343 . S
Tb282 O287 2.353 . S
Tb282 O290 2.427 . S
Tb282 O291 2.513 . S
Tb282 O292 2.453 . S
Tb282 O293 2.596 . S
Tb282 O294 2.374 . S
O283 Tb280 2.453 1_554 S
O283 C299 1.238 1_554 S
O284 Tb280 2.596 . S
O284 Tb282 2.343 . S
O284 C299 1.270 . S
O285 Tb280 2.374 1_554 S
O285 C281 1.251 1_554 S
C286 O290 1.275 . S
C286 O291 1.246 . S
O287 C281 1.263 . S
O287 Tb282 2.353 . S
C288 O292 1.245 . S
C288 O293 1.259 . S
C289 O294 1.250 . S
C289 O295 1.263 . S
O290 Tb282 2.427 . S
O290 C286 1.275 . S
O291 Tb282 2.513 . S
O291 C286 1.246 . S
O292 Tb282 2.453 . S
O292 C288 1.245 . S
O293 Tb280 2.343 . S
O293 Tb282 2.596 . S
O293 C288 1.259 . S
O294 Tb282 2.374 . S
O294 C289 1.250 . S
O295 Tb280 2.353 . S
O295 C289 1.263 . S
C296 O297 1.275 . S
C296 O298 1.246 . S
O297 Tb280 2.427 . S
O297 C296 1.275 . S
O298 Tb280 2.513 . S
O298 C296 1.246 . S
C299 O283 1.238 1_556 S
C299 O284 1.270 . S
Tb300 O303 2.453 . S
Tb300 O304 2.596 . S
Tb300 O305 2.374 . S
Tb300 O313 2.343 . S
Tb300 O315 2.353 . S
Tb300 O317 2.427 . S
Tb300 O318 2.513 . S
C301 O305 1.251 . S
C301 O307 1.263 . S
Tb302 O304 2.343 . S
Tb302 O307 2.353 . S
Tb302 O310 2.427 . S
Tb302 O311 2.513 . S
Tb302 O312 2.453 . S
Tb302 O313 2.596 . S
Tb302 O314 2.374 . S
O303 Tb300 2.453 . S
O303 C319 1.245 . S
O304 Tb300 2.596 . S
O304 Tb302 2.343 . S
O304 C319 1.259 . S
O305 Tb300 2.374 . S
O305 C301 1.251 . S
C306 O310 1.275 . S
C306 O311 1.246 . S
O307 C301 1.263 . S
O307 Tb302 2.353 . S
C308 O312 1.245 . S
C308 O313 1.259 . S
C309 O314 1.250 . S
C309 O315 1.263 . S
O310 Tb302 2.427 . S
O310 C306 1.275 . S
O311 Tb302 2.513 . S
O311 C306 1.246 . S
O312 Tb302 2.453 . S
O312 C308 1.245 . S
O313 Tb300 2.343 . S
O313 Tb302 2.596 . S
O313 C308 1.259 . S
O314 Tb302 2.374 . S
O314 C309 1.250 . S
O315 Tb300 2.353 . S
O315 C309 1.263 . S
C316 O317 1.275 . S
C316 O318 1.246 . S
O317 Tb300 2.427 . S
O317 C316 1.275 . S
O318 Tb300 2.513 . S
O318 C316 1.246 . S
C319 O303 1.245 . S
C319 O304 1.259 . S
H320 C326 0.930 . S
H321 C330 0.930 . S
H322 C335 0.929 . S
H323 C333 0.929 . S
H324 C328 0.929 . S
H325 C334 0.929 . S
C326 H320 0.930 . S
C326 C327 1.367 . S
C326 C334 1.378 . S
C327 C326 1.367 . S
C327 C335 1.433 . S
C328 H324 0.929 . S
C328 C330 1.378 . S
C328 C332 1.350 . S
C329 C332 1.463 . S
C329 C334 1.350 . S
C329 N337 1.427 . S
C330 H321 0.930 . S
C330 C328 1.378 . S
C330 C331 1.367 . S
C331 C330 1.367 . S
C331 C333 1.433 . S
C332 C328 1.350 . S
C332 C329 1.463 . S
C332 N336 1.427 . S
C333 H323 0.929 . S
C333 C331 1.433 . S
C333 N336 1.384 . S
C334 H325 0.929 . S
C334 C326 1.378 . S
C334 C329 1.350 . S
C335 H322 0.929 . S
C335 C327 1.433 . S
C335 N337 1.384 . S
N336 C332 1.427 . S
N336 C333 1.384 . S
N337 C329 1.427 . S
N337 C335 1.384 . S
H338 C344 0.930 . S
H339 C348 0.930 . S
H340 C353 0.929 . S
H341 C351 0.929 . S
H342 C346 0.929 . S
H343 C352 0.929 . S
C344 H338 0.930 . S
C344 C345 1.367 . S
C344 C352 1.378 . S
C345 C344 1.367 . S
C345 C353 1.433 . S
C346 H342 0.929 . S
C346 C348 1.378 . S
C346 C350 1.350 . S
C347 C350 1.463 . S
C347 C352 1.350 . S
C347 N355 1.427 . S
C348 H339 0.930 . S
C348 C346 1.378 . S
C348 C349 1.367 . S
C349 C348 1.367 . S
C349 C351 1.433 . S
C350 C346 1.350 . S
C350 C347 1.463 . S
C350 N354 1.427 . S
C351 H341 0.929 . S
C351 C349 1.433 . S
C351 N354 1.384 . S
C352 H343 0.929 . S
C352 C344 1.378 . S
C352 C347 1.350 . S
C353 H340 0.929 . S
C353 C345 1.433 . S
C353 N355 1.384 . S
N354 C350 1.427 . S
N354 C351 1.384 . S
N355 C347 1.427 . S
N355 C353 1.384 . S
H356 C362 0.930 . S
H357 C366 0.930 . S
H358 C371 0.929 . S
H359 C369 0.929 . S
H360 C364 0.929 . S
H361 C370 0.929 . S
C362 H356 0.930 . S
C362 C363 1.367 . S
C362 C370 1.378 . S
C363 C362 1.367 . S
C363 C371 1.433 . S
C364 H360 0.929 . S
C364 C366 1.378 . S
C364 C368 1.350 . S
C365 C368 1.463 1_455 S
C365 C370 1.350 . S
C365 N373 1.427 . S
C366 H357 0.930 . S
C366 C364 1.378 . S
C366 C367 1.367 . S
C367 C366 1.367 . S
C367 C369 1.433 . S
C368 C364 1.350 . S
C368 C365 1.463 1_655 S
C368 N372 1.427 . S
C369 H359 0.929 . S
C369 C367 1.433 . S
C369 N372 1.384 . S
C370 H361 0.929 . S
C370 C362 1.378 . S
C370 C365 1.350 . S
C371 H358 0.929 . S
C371 C363 1.433 . S
C371 N373 1.384 . S
N372 C368 1.427 . S
N372 C369 1.384 . S
N373 C365 1.427 . S
N373 C371 1.384 . S
H374 C380 0.930 . S
H375 C384 0.930 . S
H376 C389 0.929 . S
H377 C387 0.929 . S
H378 C382 0.929 1_655 S
H379 C388 0.929 1_455 S
C380 H374 0.930 . S
C380 C381 1.367 . S
C380 C388 1.378 . S
C381 C380 1.367 . S
C381 C389 1.433 . S
C382 H378 0.929 1_455 S
C382 C384 1.378 . S
C382 C386 1.350 . S
C383 C386 1.463 1_655 S
C383 C388 1.350 . S
C383 N391 1.427 . S
C384 H375 0.930 . S
C384 C382 1.378 . S
C384 C385 1.367 . S
C385 C384 1.367 . S
C385 C387 1.433 . S
C386 C382 1.350 . S
C386 C383 1.463 1_455 S
C386 N390 1.427 . S
C387 H377 0.929 . S
C387 C385 1.433 . S
C387 N390 1.384 . S
C388 H379 0.929 1_655 S
C388 C380 1.378 . S
C388 C383 1.350 . S
C389 H376 0.929 . S
C389 C381 1.433 . S
C389 N391 1.384 . S
N390 C386 1.427 . S
N390 C387 1.384 . S
N391 C383 1.427 . S
N391 C389 1.384 . S
H392 C398 0.930 . S
H393 C402 0.930 . S
H394 C407 0.929 . S
H395 C405 0.929 . S
H396 C400 0.929 . S
H397 C406 0.929 . S
C398 H392 0.930 . S
C398 C399 1.367 . S
C398 C406 1.378 . S
C399 C398 1.367 . S
C399 C407 1.433 . S
C400 H396 0.929 . S
C400 C402 1.378 . S
C400 C404 1.350 . S
C401 C404 1.463 . S
C401 C406 1.350 . S
C401 N409 1.427 . S
C402 H393 0.930 . S
C402 C400 1.378 . S
C402 C403 1.367 . S
C403 C402 1.367 . S
C403 C405 1.433 . S
C404 C400 1.350 . S
C404 C401 1.463 . S
C404 N408 1.427 . S
C405 H395 0.929 . S
C405 C403 1.433 . S
C405 N408 1.384 . S
C406 H397 0.929 . S
C406 C398 1.378 . S
C406 C401 1.350 . S
C407 H394 0.929 . S
C407 C399 1.433 . S
C407 N409 1.384 . S
N408 C404 1.427 . S
N408 C405 1.384 . S
N409 C401 1.427 . S
N409 C407 1.384 . S
H410 C416 0.930 . S
H411 C420 0.930 . S
H412 C425 0.929 . S
H413 C423 0.929 . S
H414 C418 0.929 . S
H415 C424 0.929 . S
C416 H410 0.930 . S
C416 C417 1.367 . S
C416 C424 1.378 . S
C417 C416 1.367 . S
C417 C425 1.433 . S
C418 H414 0.929 . S
C418 C420 1.378 . S
C418 C422 1.350 . S
C419 C422 1.463 . S
C419 C424 1.350 . S
C419 N427 1.427 . S
C420 H411 0.930 . S
C420 C418 1.378 . S
C420 C421 1.367 . S
C421 C420 1.367 . S
C421 C423 1.433 . S
C422 C418 1.350 . S
C422 C419 1.463 . S
C422 N426 1.427 . S
C423 H413 0.929 . S
C423 C421 1.433 . S
C423 N426 1.384 . S
C424 H415 0.929 . S
C424 C416 1.378 . S
C424 C419 1.350 . S
C425 H412 0.929 . S
C425 C417 1.433 . S
C425 N427 1.384 . S
N426 C422 1.427 . S
N426 C423 1.384 . S
N427 C419 1.427 . S
N427 C425 1.384 . S
H428 C434 0.930 . S
H429 C438 0.930 . S
H430 C443 0.929 . S
H431 C441 0.929 . S
H432 C436 0.929 . S
H433 C442 0.929 . S
C434 H428 0.930 . S
C434 C435 1.367 . S
C434 C442 1.378 . S
C435 C434 1.367 . S
C435 C443 1.433 . S
C436 H432 0.929 . S
C436 C438 1.378 . S
C436 C440 1.350 . S
C437 C440 1.463 1_655 S
C437 C442 1.350 . S
C437 N445 1.427 . S
C438 H429 0.930 . S
C438 C436 1.378 . S
C438 C439 1.367 . S
C439 C438 1.367 . S
C439 C441 1.433 . S
C440 C436 1.350 . S
C440 C437 1.463 1_455 S
C440 N444 1.427 . S
C441 H431 0.929 . S
C441 C439 1.433 . S
C441 N444 1.384 . S
C442 H433 0.929 . S
C442 C434 1.378 . S
C442 C437 1.350 . S
C443 H430 0.929 . S
C443 C435 1.433 . S
C443 N445 1.384 . S
N444 C440 1.427 . S
N444 C441 1.384 . S
N445 C437 1.427 . S
N445 C443 1.384 . S
H446 C452 0.930 . S
H447 C456 0.930 . S
H448 C461 0.929 . S
H449 C459 0.929 . S
H450 C454 0.929 . S
H451 C460 0.929 . S
C452 H446 0.930 . S
C452 C453 1.367 . S
C452 C460 1.378 . S
C453 C452 1.367 . S
C453 C461 1.433 . S
C454 H450 0.929 . S
C454 C456 1.378 . S
C454 C458 1.350 . S
C455 C458 1.463 1_455 S
C455 C460 1.350 . S
C455 N463 1.427 . S
C456 H447 0.930 . S
C456 C454 1.378 . S
C456 C457 1.367 . S
C457 C456 1.367 . S
C457 C459 1.433 . S
C458 C454 1.350 . S
C458 C455 1.463 1_655 S
C458 N462 1.427 . S
C459 H449 0.929 . S
C459 C457 1.433 . S
C459 N462 1.384 . S
C460 H451 0.929 . S
C460 C452 1.378 . S
C460 C455 1.350 . S
C461 H448 0.929 . S
C461 C453 1.433 . S
C461 N463 1.384 . S
N462 C458 1.427 . S
N462 C459 1.384 . S
N463 C455 1.427 . S
N463 C461 1.384 . S
H464 C470 0.930 . S
H465 C474 0.930 . S
H466 C479 0.929 . S
H467 C477 0.929 . S
H468 C472 0.929 . S
H469 C478 0.929 . S
C470 H464 0.930 . S
C470 C471 1.367 . S
C470 C478 1.378 . S
C471 C470 1.367 . S
C471 C479 1.433 . S
C472 H468 0.929 . S
C472 C474 1.378 . S
C472 C476 1.350 1_554 S
C473 C476 1.463 . S
C473 C478 1.350 . S
C473 N481 1.427 . S
C474 H465 0.930 . S
C474 C472 1.378 . S
C474 C475 1.367 . S
C475 C474 1.367 . S
C475 C477 1.433 1_554 S
C476 C472 1.350 1_556 S
C476 C473 1.463 . S
C476 N480 1.427 . S
C477 H467 0.929 . S
C477 C475 1.433 1_556 S
C477 N480 1.384 . S
C478 H469 0.929 . S
C478 C470 1.378 . S
C478 C473 1.350 . S
C479 H466 0.929 . S
C479 C471 1.433 . S
C479 N481 1.384 . S
N480 C476 1.427 . S
N480 C477 1.384 . S
N481 C473 1.427 . S
N481 C479 1.384 . S
H482 C488 0.930 . S
H483 C492 0.930 . S
H484 C497 0.929 . S
H485 C495 0.929 . S
H486 C490 0.929 . S
H487 C496 0.929 . S
C488 H482 0.930 . S
C488 C489 1.367 . S
C488 C496 1.378 . S
C489 C488 1.367 . S
C489 C497 1.433 . S
C490 H486 0.929 . S
C490 C492 1.378 . S
C490 C494 1.350 . S
C491 C494 1.463 . S
C491 C496 1.350 . S
C491 N499 1.427 . S
C492 H483 0.930 . S
C492 C490 1.378 . S
C492 C493 1.367 . S
C493 C492 1.367 . S
C493 C495 1.433 . S
C494 C490 1.350 . S
C494 C491 1.463 . S
C494 N498 1.427 . S
C495 H485 0.929 . S
C495 C493 1.433 . S
C495 N498 1.384 . S
C496 H487 0.929 . S
C496 C488 1.378 . S
C496 C491 1.350 . S
C497 H484 0.929 . S
C497 C489 1.433 . S
C497 N499 1.384 . S
N498 C494 1.427 . S
N498 C495 1.384 . S
N499 C491 1.427 . S
N499 C497 1.384 . S
H500 C506 0.930 . S
H501 C510 0.930 . S
H502 C515 0.929 . S
H503 C513 0.929 . S
H504 C508 0.929 . S
H505 C514 0.929 . S
C506 H500 0.930 . S
C506 C507 1.367 . S
C506 C514 1.378 . S
C507 C506 1.367 . S
C507 C515 1.433 . S
C508 H504 0.929 . S
C508 C510 1.378 . S
C508 C512 1.350 . S
C509 C512 1.463 . S
C509 C514 1.350 . S
C509 N517 1.427 . S
C510 H501 0.930 . S
C510 C508 1.378 . S
C510 C511 1.367 . S
C511 C510 1.367 . S
C511 C513 1.433 . S
C512 C508 1.350 . S
C512 C509 1.463 . S
C512 N516 1.427 . S
C513 H503 0.929 . S
C513 C511 1.433 . S
C513 N516 1.384 . S
C514 H505 0.929 . S
C514 C506 1.378 . S
C514 C509 1.350 . S
C515 H502 0.929 . S
C515 C507 1.433 . S
C515 N517 1.384 . S
N516 C512 1.427 . S
N516 C513 1.384 . S
N517 C509 1.427 . S
N517 C515 1.384 . S
H518 C524 0.930 . S
H519 C528 0.930 . S
H520 C533 0.929 . S
H521 C531 0.929 . S
H522 C526 0.929 . S
H523 C532 0.929 . S
C524 H518 0.930 . S
C524 C525 1.367 . S
C524 C532 1.378 . S
C525 C524 1.367 . S
C525 C533 1.433 . S
C526 H522 0.929 . S
C526 C528 1.378 . S
C526 C530 1.350 . S
C527 C530 1.463 . S
C527 C532 1.350 . S
C527 N535 1.427 . S
C528 H519 0.930 . S
C528 C526 1.378 . S
C528 C529 1.367 . S
C529 C528 1.367 . S
C529 C531 1.433 . S
C530 C526 1.350 . S
C530 C527 1.463 . S
C530 N534 1.427 . S
C531 H521 0.929 . S
C531 C529 1.433 . S
C531 N534 1.384 . S
C532 H523 0.929 . S
C532 C524 1.378 . S
C532 C527 1.350 . S
C533 H520 0.929 . S
C533 C525 1.433 . S
C533 N535 1.384 . S
N534 C530 1.427 . S
N534 C531 1.384 . S
N535 C527 1.427 . S
N535 C533 1.384 . S
H536 C542 0.930 . S
H537 C546 0.930 . S
H538 C551 0.929 . S
H539 C549 0.929 . S
H540 C544 0.929 1_556 S
H541 C550 0.929 . S
C542 H536 0.930 . S
C542 C543 1.367 1_554 S
C542 C550 1.378 . S
C543 C542 1.367 1_556 S
C543 C551 1.433 . S
C544 H540 0.929 1_554 S
C544 C546 1.378 . S
C544 C548 1.350 . S
C545 C548 1.463 . S
C545 C550 1.350 . S
C545 N553 1.427 1_554 S
C546 H537 0.930 . S
C546 C544 1.378 . S
C546 C547 1.367 . S
C547 C546 1.367 . S
C547 C549 1.433 . S
C548 C544 1.350 . S
C548 C545 1.463 . S
C548 N552 1.427 . S
C549 H539 0.929 . S
C549 C547 1.433 . S
C549 N552 1.384 . S
C550 H541 0.929 . S
C550 C542 1.378 . S
C550 C545 1.350 . S
C551 H538 0.929 . S
C551 C543 1.433 . S
C551 N553 1.384 . S
N552 C548 1.427 . S
N552 C549 1.384 . S
N553 C545 1.427 1_556 S
N553 C551 1.384 . S
H554 C560 0.930 . S
H555 C564 0.930 . S
H556 C569 0.929 . S
H557 C567 0.929 . S
H558 C562 0.929 . S
H559 C568 0.929 . S
C560 H554 0.930 . S
C560 C561 1.367 . S
C560 C568 1.378 . S
C561 C560 1.367 . S
C561 C569 1.433 . S
C562 H558 0.929 . S
C562 C564 1.378 . S
C562 C566 1.350 . S
C563 C566 1.463 . S
C563 C568 1.350 . S
C563 N571 1.427 . S
C564 H555 0.930 . S
C564 C562 1.378 . S
C564 C565 1.367 . S
C565 C564 1.367 . S
C565 C567 1.433 . S
C566 C562 1.350 . S
C566 C563 1.463 . S
C566 N570 1.427 . S
C567 H557 0.929 . S
C567 C565 1.433 . S
C567 N570 1.384 . S
C568 H559 0.929 . S
C568 C560 1.378 . S
C568 C563 1.350 . S
C569 H556 0.929 . S
C569 C561 1.433 . S
C569 N571 1.384 . S
N570 C566 1.427 . S
N570 C567 1.384 . S
N571 C563 1.427 . S
N571 C569 1.384 . S
H572 C578 0.930 . S
H573 C582 0.930 . S
H574 C587 0.929 . S
H575 C585 0.929 . S
H576 C580 0.929 . S
H577 C586 0.929 . S
C578 H572 0.930 . S
C578 C579 1.367 . S
C578 C586 1.378 . S
C579 C578 1.367 . S
C579 C587 1.433 . S
C580 H576 0.929 . S
C580 C582 1.378 . S
C580 C584 1.350 . S
C581 C584 1.463 . S
C581 C586 1.350 . S
C581 N589 1.427 . S
C582 H573 0.930 . S
C582 C580 1.378 . S
C582 C583 1.367 . S
C583 C582 1.367 . S
C583 C585 1.433 . S
C584 C580 1.350 . S
C584 C581 1.463 . S
C584 N588 1.427 . S
C585 H575 0.929 . S
C585 C583 1.433 . S
C585 N588 1.384 . S
C586 H577 0.929 . S
C586 C578 1.378 . S
C586 C581 1.350 . S
C587 H574 0.929 . S
C587 C579 1.433 . S
C587 N589 1.384 . S
N588 C584 1.427 . S
N588 C585 1.384 . S
N589 C581 1.427 . S
N589 C587 1.384 . S
H590 C596 0.930 . S
H591 C600 0.930 . S
H592 C605 0.929 . S
H593 C603 0.929 . S
H594 C598 0.929 . S
H595 C604 0.929 . S
C596 H590 0.930 . S
C596 C597 1.367 . S
C596 C604 1.378 . S
C597 C596 1.367 . S
C597 C605 1.433 . S
C598 H594 0.929 . S
C598 C600 1.378 . S
C598 C602 1.350 . S
C599 C602 1.463 . S
C599 C604 1.350 . S
C599 N607 1.427 . S
C600 H591 0.930 . S
C600 C598 1.378 . S
C600 C601 1.367 . S
C601 C600 1.367 . S
C601 C603 1.433 . S
C602 C598 1.350 . S
C602 C599 1.463 . S
C602 N606 1.427 . S
C603 H593 0.929 . S
C603 C601 1.433 . S
C603 N606 1.384 . S
C604 H595 0.929 . S
C604 C596 1.378 . S
C604 C599 1.350 . S
C605 H592 0.929 . S
C605 C597 1.433 . S
C605 N607 1.384 . S
N606 C602 1.427 . S
N606 C603 1.384 . S
N607 C599 1.427 . S
N607 C605 1.384 . S
H608 C614 0.930 . S
H609 C618 0.930 . S
H610 C623 0.929 . S
H611 C621 0.929 . S
H612 C616 0.929 . S
H613 C622 0.929 . S
C614 H608 0.930 . S
C614 C615 1.367 . S
C614 C622 1.378 . S
C615 C614 1.367 . S
C615 C623 1.433 . S
C616 H612 0.929 . S
C616 C618 1.378 . S
C616 C620 1.350 . S
C617 C620 1.463 . S
C617 C622 1.350 . S
C617 N625 1.427 . S
C618 H609 0.930 . S
C618 C616 1.378 . S
C618 C619 1.367 . S
C619 C618 1.367 . S
C619 C621 1.433 . S
C620 C616 1.350 . S
C620 C617 1.463 . S
C620 N624 1.427 . S
C621 H611 0.929 . S
C621 C619 1.433 . S
C621 N624 1.384 . S
C622 H613 0.929 . S
C622 C614 1.378 . S
C622 C617 1.350 . S
C623 H610 0.929 . S
C623 C615 1.433 . S
C623 N625 1.384 . S
N624 C620 1.427 . S
N624 C621 1.384 . S
N625 C617 1.427 . S
N625 C623 1.384 . S
H626 C632 0.930 . S
H627 C636 0.930 . S
H628 C641 0.929 . S
H629 C639 0.929 . S
H630 C634 0.929 . S
H631 C640 0.929 . S
C632 H626 0.930 . S
C632 C633 1.354 1_565 S
C632 C640 1.378 . S
C633 C632 1.354 1_545 S
C633 C641 1.434 . S
C634 H630 0.929 . S
C634 C636 1.378 . S
C634 C638 1.350 . S
C635 C638 1.463 . S
C635 C640 1.350 . S
C635 N643 1.427 . S
C636 H627 0.930 . S
C636 C634 1.378 . S
C636 C637 1.367 . S
C637 C636 1.367 . S
C637 C639 1.433 . S
C638 C634 1.350 . S
C638 C635 1.463 . S
C638 N642 1.427 . S
C639 H629 0.929 . S
C639 C637 1.433 . S
C639 N642 1.384 . S
C640 H631 0.929 . S
C640 C632 1.378 . S
C640 C635 1.350 . S
C641 H628 0.929 . S
C641 C633 1.434 . S
C641 N643 1.384 1_545 S
N642 C638 1.427 . S
N642 C639 1.384 . S
N643 C635 1.427 . S
N643 C641 1.384 1_565 S
H644 C650 0.930 . S
H645 C654 0.930 . S
H646 C659 0.929 . S
H647 C657 0.929 . S
H648 C652 0.929 1_554 S
H649 C658 0.929 . S
C650 H644 0.930 . S
C650 C651 1.367 1_556 S
C650 C658 1.378 . S
C651 C650 1.367 1_554 S
C651 C659 1.433 . S
C652 H648 0.929 1_556 S
C652 C654 1.378 . S
C652 C656 1.350 . S
C653 C656 1.463 . S
C653 C658 1.350 . S
C653 N661 1.427 1_556 S
C654 H645 0.930 . S
C654 C652 1.378 . S
C654 C655 1.367 . S
C655 C654 1.367 . S
C655 C657 1.433 . S
C656 C652 1.350 . S
C656 C653 1.463 . S
C656 N660 1.427 . S
C657 H647 0.929 . S
C657 C655 1.433 . S
C657 N660 1.384 . S
C658 H649 0.929 . S
C658 C650 1.378 . S
C658 C653 1.350 . S
C659 H646 0.929 . S
C659 C651 1.433 . S
C659 N661 1.384 . S
N660 C656 1.427 . S
N660 C657 1.384 . S
N661 C653 1.427 1_554 S
N661 C659 1.384 . S
H662 C668 0.930 . S
H663 C672 0.930 . S
H664 C677 0.929 . S
H665 C675 0.929 . S
H666 C670 0.929 . S
H667 C676 0.929 . S
C668 H662 0.930 . S
C668 C669 1.354 1_545 S
C668 C676 1.378 . S
C669 C668 1.354 1_565 S
C669 C677 1.434 . S
C670 H666 0.929 . S
C670 C672 1.378 . S
C670 C674 1.350 . S
C671 C674 1.463 . S
C671 C676 1.350 . S
C671 N679 1.427 . S
C672 H663 0.930 . S
C672 C670 1.378 . S
C672 C673 1.367 . S
C673 C672 1.367 . S
C673 C675 1.433 . S
C674 C670 1.350 . S
C674 C671 1.463 . S
C674 N678 1.427 . S
C675 H665 0.929 . S
C675 C673 1.433 . S
C675 N678 1.384 . S
C676 H667 0.929 . S
C676 C668 1.378 . S
C676 C671 1.350 . S
C677 H664 0.929 . S
C677 C669 1.434 . S
C677 N679 1.384 1_565 S
N678 C674 1.427 . S
N678 C675 1.384 . S
N679 C671 1.427 . S
N679 C677 1.384 1_545 S
H680 C686 0.930 . S
H681 C690 0.930 . S
H682 C695 0.929 . S
H683 C693 0.929 . S
H684 C688 0.929 . S
H685 C694 0.929 . S
C686 H680 0.930 . S
C686 C687 1.367 . S
C686 C694 1.378 . S
C687 C686 1.367 . S
C687 C695 1.433 . S
C688 H684 0.929 . S
C688 C690 1.378 . S
C688 C692 1.350 . S
C689 C692 1.463 . S
C689 C694 1.350 . S
C689 N697 1.427 . S
C690 H681 0.930 . S
C690 C688 1.378 . S
C690 C691 1.367 . S
C691 C690 1.367 . S
C691 C693 1.433 . S
C692 C688 1.350 . S
C692 C689 1.463 . S
C692 N696 1.427 . S
C693 H683 0.929 . S
C693 C691 1.433 . S
C693 N696 1.384 . S
C694 H685 0.929 . S
C694 C686 1.378 . S
C694 C689 1.350 . S
C695 H682 0.929 . S
C695 C687 1.433 . S
C695 N697 1.384 . S
N696 C692 1.427 . S
N696 C693 1.384 . S
N697 C689 1.427 . S
N697 C695 1.384 . S
H698 C704 0.930 . S
H699 C708 0.930 . S
H700 C713 0.929 . S
H701 C711 0.929 1_565 S
H702 C706 0.929 . S
H703 C712 0.929 . S
C704 H698 0.930 . S
C704 C705 1.367 . S
C704 C712 1.378 . S
C705 C704 1.367 . S
C705 C713 1.433 . S
C706 H702 0.929 . S
C706 C708 1.378 . S
C706 C710 1.350 . S
C707 C710 1.463 . S
C707 C712 1.350 . S
C707 N715 1.427 . S
C708 H699 0.930 . S
C708 C706 1.378 . S
C708 C709 1.353 1_545 S
C709 C708 1.353 1_565 S
C709 C711 1.428 1_565 S
C710 C706 1.350 . S
C710 C707 1.463 . S
C710 N714 1.427 . S
C711 H701 0.929 1_545 S
C711 C709 1.428 1_545 S
C711 N714 1.384 . S
C712 H703 0.929 . S
C712 C704 1.378 . S
C712 C707 1.350 . S
C713 H700 0.929 . S
C713 C705 1.433 . S
C713 N715 1.384 . S
N714 C710 1.427 . S
N714 C711 1.384 . S
N715 C707 1.427 . S
N715 C713 1.384 . S
H716 C722 0.930 . S
H717 C726 0.930 . S
H718 C731 0.929 . S
H719 C729 0.929 . S
H720 C724 0.929 . S
H721 C730 0.929 . S
C722 H716 0.930 . S
C722 C723 1.367 . S
C722 C730 1.378 . S
C723 C722 1.367 . S
C723 C731 1.433 . S
C724 H720 0.929 . S
C724 C726 1.378 1_554 S
C724 C728 1.350 . S
C725 C728 1.463 . S
C725 C730 1.350 . S
C725 N733 1.427 . S
C726 H717 0.930 . S
C726 C724 1.378 1_556 S
C726 C727 1.367 . S
C727 C726 1.367 . S
C727 C729 1.433 . S
C728 C724 1.350 . S
C728 C725 1.463 . S
C728 N732 1.427 . S
C729 H719 0.929 . S
C729 C727 1.433 . S
C729 N732 1.384 1_556 S
C730 H721 0.929 . S
C730 C722 1.378 . S
C730 C725 1.350 . S
C731 H718 0.929 . S
C731 C723 1.433 . S
C731 N733 1.384 . S
N732 C728 1.427 . S
N732 C729 1.384 1_554 S
N733 C725 1.427 . S
N733 C731 1.384 . S
H734 C740 0.907 1_545 S
H735 C744 0.930 . S
H736 C749 0.929 . S
H737 C747 0.929 . S
H738 C742 0.929 . S
H739 C748 0.929 . S
C740 H734 0.907 1_565 S
C740 C741 1.364 1_565 S
C740 C748 1.403 . S
C741 C740 1.364 1_545 S
C741 C749 1.402 1_545 S
C742 H738 0.929 . S
C742 C744 1.378 . S
C742 C746 1.350 . S
C743 C746 1.463 . S
C743 C748 1.350 . S
C743 N751 1.427 . S
C744 H735 0.930 . S
C744 C742 1.378 . S
C744 C745 1.367 . S
C745 C744 1.367 . S
C745 C747 1.433 . S
C746 C742 1.350 . S
C746 C743 1.463 . S
C746 N750 1.427 . S
C747 H737 0.929 . S
C747 C745 1.433 . S
C747 N750 1.384 . S
C748 H739 0.929 . S
C748 C740 1.403 . S
C748 C743 1.350 . S
C749 H736 0.929 . S
C749 C741 1.402 1_565 S
C749 N751 1.384 . S
N750 C746 1.427 . S
N750 C747 1.384 . S
N751 C743 1.427 . S
N751 C749 1.384 . S
H752 C758 0.930 . S
H753 C762 0.930 . S
H754 C767 0.929 . S
H755 C765 0.929 . S
H756 C760 0.929 . S
H757 C766 0.929 . S
C758 H752 0.930 . S
C758 C759 1.367 . S
C758 C766 1.378 . S
C759 C758 1.367 . S
C759 C767 1.433 . S
C760 H756 0.929 . S
C760 C762 1.378 . S
C760 C764 1.350 . S
C761 C764 1.463 . S
C761 C766 1.350 . S
C761 N769 1.427 . S
C762 H753 0.930 . S
C762 C760 1.378 . S
C762 C763 1.367 . S
C763 C762 1.367 . S
C763 C765 1.433 . S
C764 C760 1.350 . S
C764 C761 1.463 . S
C764 N768 1.427 . S
C765 H755 0.929 . S
C765 C763 1.433 . S
C765 N768 1.384 . S
C766 H757 0.929 . S
C766 C758 1.378 . S
C766 C761 1.350 . S
C767 H754 0.929 . S
C767 C759 1.433 . S
C767 N769 1.384 . S
N768 C764 1.427 . S
N768 C765 1.384 . S
N769 C761 1.427 . S
N769 C767 1.384 . S
H770 C776 0.930 . S
H771 C780 0.930 . S
H772 C785 0.929 . S
H773 C783 0.929 1_556 S
H774 C778 0.929 . S
H775 C784 0.929 . S
C776 H770 0.930 . S
C776 C777 1.367 . S
C776 C784 1.378 . S
C777 C776 1.367 . S
C777 C785 1.433 . S
C778 H774 0.929 . S
C778 C780 1.378 . S
C778 C782 1.350 . S
C779 C782 1.463 . S
C779 C784 1.350 . S
C779 N787 1.427 . S
C780 H771 0.930 . S
C780 C778 1.378 . S
C780 C781 1.367 . S
C781 C780 1.367 . S
C781 C783 1.433 . S
C782 C778 1.350 . S
C782 C779 1.463 . S
C782 N786 1.427 . S
C783 H773 0.929 1_554 S
C783 C781 1.433 . S
C783 N786 1.384 . S
C784 H775 0.929 . S
C784 C776 1.378 . S
C784 C779 1.350 . S
C785 H772 0.929 . S
C785 C777 1.433 . S
C785 N787 1.384 . S
N786 C782 1.427 . S
N786 C783 1.384 . S
N787 C779 1.427 . S
N787 C785 1.384 . S
H788 C794 0.936 . S
H789 C798 0.930 . S
H790 C803 0.923 1_655 S
H791 C801 0.929 . S
H792 C796 0.929 . S
H793 C802 0.929 . S
C794 H788 0.936 . S
C794 C795 1.367 1_455 S
C794 C802 1.378 . S
C795 C794 1.367 1_655 S
C795 C803 1.433 1_655 S
C796 H792 0.929 . S
C796 C798 1.378 . S
C796 C800 1.350 . S
C797 C800 1.463 . S
C797 C802 1.350 . S
C797 N805 1.427 . S
C798 H789 0.930 . S
C798 C796 1.378 . S
C798 C799 1.367 . S
C799 C798 1.367 . S
C799 C801 1.433 . S
C800 C796 1.350 . S
C800 C797 1.463 . S
C800 N804 1.427 . S
C801 H791 0.929 . S
C801 C799 1.433 . S
C801 N804 1.384 . S
C802 H793 0.929 . S
C802 C794 1.378 . S
C802 C797 1.350 . S
C803 H790 0.923 1_455 S
C803 C795 1.433 1_455 S
C803 N805 1.384 . S
N804 C800 1.427 . S
N804 C801 1.384 . S
N805 C797 1.427 . S
N805 C803 1.384 . S
H806 C812 0.930 . S
H807 C816 0.930 . S
H808 C821 0.929 . S
H809 C819 0.929 . S
H810 C814 0.929 . S
H811 C820 0.929 . S
C812 H806 0.930 . S
C812 C813 1.367 . S
C812 C820 1.378 . S
C813 C812 1.367 . S
C813 C821 1.433 . S
C814 H810 0.929 . S
C814 C816 1.378 . S
C814 C818 1.350 . S
C815 C818 1.463 . S
C815 C820 1.350 . S
C815 N823 1.427 . S
C816 H807 0.930 . S
C816 C814 1.378 . S
C816 C817 1.367 . S
C817 C816 1.367 . S
C817 C819 1.433 . S
C818 C814 1.350 . S
C818 C815 1.463 . S
C818 N822 1.427 . S
C819 H809 0.929 . S
C819 C817 1.433 . S
C819 N822 1.384 . S
C820 H811 0.929 . S
C820 C812 1.378 . S
C820 C815 1.350 . S
C821 H808 0.929 . S
C821 C813 1.433 . S
C821 N823 1.384 . S
N822 C818 1.427 . S
N822 C819 1.384 . S
N823 C815 1.427 . S
N823 C821 1.384 . S
H824 C830 0.930 . S
H825 C834 0.930 . S
H826 C839 0.929 1_556 S
H827 C837 0.929 . S
H828 C832 0.929 . S
H829 C838 0.929 . S
C830 H824 0.930 . S
C830 C831 1.367 . S
C830 C838 1.378 . S
C831 C830 1.367 . S
C831 C839 1.433 . S
C832 H828 0.929 . S
C832 C834 1.378 . S
C832 C836 1.350 . S
C833 C836 1.463 . S
C833 C838 1.350 . S
C833 N841 1.427 . S
C834 H825 0.930 . S
C834 C832 1.378 . S
C834 C835 1.367 . S
C835 C834 1.367 . S
C835 C837 1.433 . S
C836 C832 1.350 . S
C836 C833 1.463 . S
C836 N840 1.427 . S
C837 H827 0.929 . S
C837 C835 1.433 . S
C837 N840 1.384 . S
C838 H829 0.929 . S
C838 C830 1.378 . S
C838 C833 1.350 . S
C839 H826 0.929 1_554 S
C839 C831 1.433 . S
C839 N841 1.384 . S
N840 C836 1.427 . S
N840 C837 1.384 . S
N841 C833 1.427 . S
N841 C839 1.384 . S
H842 C848 0.930 . S
H843 C852 0.930 1_554 S
H844 C857 0.929 . S
H845 C855 0.929 . S
H846 C850 0.929 . S
H847 C856 0.929 . S
C848 H842 0.930 . S
C848 C849 1.367 . S
C848 C856 1.378 . S
C849 C848 1.367 . S
C849 C857 1.433 . S
C850 H846 0.929 . S
C850 C852 1.378 . S
C850 C854 1.350 . S
C851 C854 1.463 . S
C851 C856 1.350 . S
C851 N859 1.427 . S
C852 H843 0.930 1_556 S
C852 C850 1.378 . S
C852 C853 1.367 . S
C853 C852 1.367 . S
C853 C855 1.433 . S
C854 C850 1.350 . S
C854 C851 1.463 . S
C854 N858 1.427 . S
C855 H845 0.929 . S
C855 C853 1.433 . S
C855 N858 1.384 . S
C856 H847 0.929 . S
C856 C848 1.378 . S
C856 C851 1.350 . S
C857 H844 0.929 . S
C857 C849 1.433 . S
C857 N859 1.384 . S
N858 C854 1.427 . S
N858 C855 1.384 . S
N859 C851 1.427 . S
N859 C857 1.384 . S
H860 C866 0.930 . S
H861 C870 0.930 . S
H862 C875 0.929 . S
H863 C873 0.929 . S
H864 C868 0.929 . S
H865 C874 0.929 . S
C866 H860 0.930 . S
C866 C867 1.367 1_655 S
C866 C874 1.378 . S
C867 C866 1.367 1_455 S
C867 C875 1.433 . S
C868 H864 0.929 . S
C868 C870 1.378 . S
C868 C872 1.350 . S
C869 C872 1.463 . S
C869 C874 1.350 . S
C869 N877 1.427 . S
C870 H861 0.930 . S
C870 C868 1.378 . S
C870 C871 1.367 . S
C871 C870 1.367 . S
C871 C873 1.433 . S
C872 C868 1.350 . S
C872 C869 1.463 . S
C872 N876 1.427 . S
C873 H863 0.929 . S
C873 C871 1.433 . S
C873 N876 1.384 . S
C874 H865 0.929 . S
C874 C866 1.378 . S
C874 C869 1.350 . S
C875 H862 0.929 . S
C875 C867 1.433 . S
C875 N877 1.384 1_455 S
N876 C872 1.427 . S
N876 C873 1.384 . S
N877 C869 1.427 . S
N877 C875 1.384 1_655 S
H878 C884 0.930 . S
H879 C888 0.930 . S
H880 C893 0.929 . S
H881 C891 0.929 . S
H882 C886 0.929 . S
H883 C892 0.929 . S
C884 H878 0.930 . S
C884 C885 1.367 . S
C884 C892 1.378 . S
C885 C884 1.367 . S
C885 C893 1.433 . S
C886 H882 0.929 . S
C886 C888 1.378 . S
C886 C890 1.350 . S
C887 C890 1.463 . S
C887 C892 1.350 . S
C887 N895 1.427 . S
C888 H879 0.930 . S
C888 C886 1.378 . S
C888 C889 1.367 . S
C889 C888 1.367 . S
C889 C891 1.433 . S
C890 C886 1.350 . S
C890 C887 1.463 . S
C890 N894 1.427 . S
C891 H881 0.929 . S
C891 C889 1.433 . S
C891 N894 1.384 . S
C892 H883 0.929 . S
C892 C884 1.378 . S
C892 C887 1.350 . S
C893 H880 0.929 . S
C893 C885 1.433 . S
C893 N895 1.384 . S
N894 C890 1.427 . S
N894 C891 1.384 . S
N895 C887 1.427 . S
N895 C893 1.384 . S
H896 C902 0.930 . S
H897 C906 0.931 . S
H898 C911 0.929 . S
H899 C909 0.928 1_455 S
H900 C904 0.929 . S
H901 C910 0.929 . S
C902 H896 0.930 . S
C902 C903 1.367 . S
C902 C910 1.378 . S
C903 C902 1.367 . S
C903 C911 1.433 . S
C904 H900 0.929 . S
C904 C906 1.378 . S
C904 C908 1.350 . S
C905 C908 1.463 . S
C905 C910 1.350 . S
C905 N913 1.427 . S
C906 H897 0.931 . S
C906 C904 1.378 . S
C906 C907 1.367 1_655 S
C907 C906 1.367 1_455 S
C907 C909 1.433 1_455 S
C908 C904 1.350 . S
C908 C905 1.463 . S
C908 N912 1.427 . S
C909 H899 0.928 1_655 S
C909 C907 1.433 1_655 S
C909 N912 1.384 . S
C910 H901 0.929 . S
C910 C902 1.378 . S
C910 C905 1.350 . S
C911 H898 0.929 . S
C911 C903 1.433 . S
C911 N913 1.384 . S
N912 C908 1.427 . S
N912 C909 1.384 . S
N913 C905 1.427 . S
N913 C911 1.384 . S
H914 C920 0.930 . S
H915 C924 0.930 . S
H916 C929 0.929 . S
H917 C927 0.929 . S
H918 C922 0.929 . S
H919 C928 0.929 . S
C920 H914 0.930 . S
C920 C921 1.367 . S
C920 C928 1.378 . S
C921 C920 1.367 . S
C921 C929 1.433 . S
C922 H918 0.929 . S
C922 C924 1.378 . S
C922 C926 1.350 . S
C923 C926 1.463 . S
C923 C928 1.350 . S
C923 N931 1.427 . S
C924 H915 0.930 . S
C924 C922 1.378 . S
C924 C925 1.367 . S
C925 C924 1.367 . S
C925 C927 1.433 . S
C926 C922 1.350 . S
C926 C923 1.463 . S
C926 N930 1.427 . S
C927 H917 0.929 . S
C927 C925 1.433 . S
C927 N930 1.384 . S
C928 H919 0.929 . S
C928 C920 1.378 . S
C928 C923 1.350 . S
C929 H916 0.929 . S
C929 C921 1.433 . S
C929 N931 1.384 . S
N930 C926 1.427 . S
N930 C927 1.384 . S
N931 C923 1.427 . S
N931 C929 1.384 . S
H932 C938 0.930 . S
H933 C942 0.930 . S
H934 C947 0.929 . S
H935 C945 0.929 1_554 S
H936 C940 0.929 . S
H937 C946 0.929 . S
C938 H932 0.930 . S
C938 C939 1.367 . S
C938 C946 1.378 . S
C939 C938 1.367 . S
C939 C947 1.433 . S
C940 H936 0.929 . S
C940 C942 1.378 . S
C940 C944 1.350 . S
C941 C944 1.463 . S
C941 C946 1.350 . S
C941 N949 1.427 . S
C942 H933 0.930 . S
C942 C940 1.378 . S
C942 C943 1.367 . S
C943 C942 1.367 . S
C943 C945 1.433 . S
C944 C940 1.350 . S
C944 C941 1.463 . S
C944 N948 1.427 . S
C945 H935 0.929 1_556 S
C945 C943 1.433 . S
C945 N948 1.384 . S
C946 H937 0.929 . S
C946 C938 1.378 . S
C946 C941 1.350 . S
C947 H934 0.929 . S
C947 C939 1.433 . S
C947 N949 1.384 . S
N948 C944 1.427 . S
N948 C945 1.384 . S
N949 C941 1.427 . S
N949 C947 1.384 . S
H950 C956 0.930 1_556 S
H951 C960 0.930 . S
H952 C965 0.929 . S
H953 C963 0.929 . S
H954 C958 0.929 . S
H955 C964 0.929 . S
C956 H950 0.930 1_554 S
C956 C957 1.367 . S
C956 C964 1.378 . S
C957 C956 1.367 . S
C957 C965 1.433 . S
C958 H954 0.929 . S
C958 C960 1.378 . S
C958 C962 1.350 . S
C959 C962 1.463 . S
C959 C964 1.350 . S
C959 N967 1.427 . S
C960 H951 0.930 . S
C960 C958 1.378 . S
C960 C961 1.367 . S
C961 C960 1.367 . S
C961 C963 1.433 . S
C962 C958 1.350 . S
C962 C959 1.463 . S
C962 N966 1.427 . S
C963 H953 0.929 . S
C963 C961 1.433 . S
C963 N966 1.384 . S
C964 H955 0.929 . S
C964 C956 1.378 . S
C964 C959 1.350 . S
C965 H952 0.929 . S
C965 C957 1.433 . S
C965 N967 1.384 . S
N966 C962 1.427 . S
N966 C963 1.384 . S
N967 C959 1.427 . S
N967 C965 1.384 . S
H968 C974 0.930 . S
H969 C978 0.930 . S
H970 C983 0.929 . S
H971 C981 0.929 . S
H972 C976 0.929 . S
H973 C982 0.929 . S
C974 H968 0.930 . S
C974 C975 1.367 . S
C974 C982 1.378 . S
C975 C974 1.367 . S
C975 C983 1.433 . S
C976 H972 0.929 . S
C976 C978 1.378 1_455 S
C976 C980 1.350 . S
C977 C980 1.463 . S
C977 C982 1.350 . S
C977 N985 1.427 . S
C978 H969 0.930 . S
C978 C976 1.378 1_655 S
C978 C979 1.367 . S
C979 C978 1.367 . S
C979 C981 1.433 1_655 S
C980 C976 1.350 . S
C980 C977 1.463 . S
C980 N984 1.427 . S
C981 H971 0.929 . S
C981 C979 1.433 1_455 S
C981 N984 1.384 . S
C982 H973 0.929 . S
C982 C974 1.378 . S
C982 C977 1.350 . S
C983 H970 0.929 . S
C983 C975 1.433 . S
C983 N985 1.384 . S
N984 C980 1.427 . S
N984 C981 1.384 . S
N985 C977 1.427 . S
N985 C983 1.384 . S
H986 C992 0.930 . S
H987 C996 0.930 . S
H988 C1001 0.929 . S
H989 C999 0.929 . S
H990 C994 0.929 . S
H991 C1000 0.929 . S
C992 H986 0.930 . S
C992 C993 1.367 . S
C992 C1000 1.378 . S
C993 C992 1.367 . S
C993 C1001 1.433 . S
C994 H990 0.929 . S
C994 C996 1.378 . S
C994 C998 1.350 . S
C995 C998 1.463 . S
C995 C1000 1.350 . S
C995 N1003 1.427 . S
C996 H987 0.930 . S
C996 C994 1.378 . S
C996 C997 1.367 . S
C997 C996 1.367 . S
C997 C999 1.433 . S
C998 C994 1.350 . S
C998 C995 1.463 . S
C998 N1002 1.427 . S
C999 H989 0.929 . S
C999 C997 1.433 . S
C999 N1002 1.384 . S
C1000 H991 0.929 . S
C1000 C992 1.378 . S
C1000 C995 1.350 . S
C1001 H988 0.929 . S
C1001 C993 1.433 . S
C1001 N1003 1.384 . S
N1002 C998 1.427 . S
N1002 C999 1.384 . S
N1003 C995 1.427 . S
N1003 C1001 1.384 . S
H1004 C1010 0.930 . S
H1005 C1014 0.930 . S
H1006 C1019 0.929 . S
H1007 C1017 0.929 . S
H1008 C1012 0.929 . S
H1009 C1018 0.929 . S
C1010 H1004 0.930 . S
C1010 C1011 1.367 . S
C1010 C1018 1.378 . S
C1011 C1010 1.367 . S
C1011 C1019 1.433 . S
C1012 H1008 0.929 . S
C1012 C1014 1.378 . S
C1012 C1016 1.350 . S
C1013 C1016 1.463 . S
C1013 C1018 1.350 . S
C1013 N1021 1.427 . S
C1014 H1005 0.930 . S
C1014 C1012 1.378 . S
C1014 C1015 1.367 . S
C1015 C1014 1.367 . S
C1015 C1017 1.433 . S
C1016 C1012 1.350 . S
C1016 C1013 1.463 . S
C1016 N1020 1.427 . S
C1017 H1007 0.929 . S
C1017 C1015 1.433 . S
C1017 N1020 1.384 . S
C1018 H1009 0.929 . S
C1018 C1010 1.378 . S
C1018 C1013 1.350 . S
C1019 H1006 0.929 . S
C1019 C1011 1.433 . S
C1019 N1021 1.384 . S
N1020 C1016 1.427 . S
N1020 C1017 1.384 . S
N1021 C1013 1.427 . S
N1021 C1019 1.384 . S
H1022 C1028 0.930 1_554 S
H1023 C1032 0.930 . S
H1024 C1037 0.929 . S
H1025 C1035 0.929 . S
H1026 C1030 0.929 . S
H1027 C1036 0.929 . S
C1028 H1022 0.930 1_556 S
C1028 C1029 1.367 . S
C1028 C1036 1.378 . S
C1029 C1028 1.367 . S
C1029 C1037 1.433 . S
C1030 H1026 0.929 . S
C1030 C1032 1.378 . S
C1030 C1034 1.350 . S
C1031 C1034 1.463 . S
C1031 C1036 1.350 . S
C1031 N1039 1.427 . S
C1032 H1023 0.930 . S
C1032 C1030 1.378 . S
C1032 C1033 1.367 . S
C1033 C1032 1.367 . S
C1033 C1035 1.433 . S
C1034 C1030 1.350 . S
C1034 C1031 1.463 . S
C1034 N1038 1.427 . S
C1035 H1025 0.929 . S
C1035 C1033 1.433 . S
C1035 N1038 1.384 . S
C1036 H1027 0.929 . S
C1036 C1028 1.378 . S
C1036 C1031 1.350 . S
C1037 H1024 0.929 . S
C1037 C1029 1.433 . S
C1037 N1039 1.384 . S
N1038 C1034 1.427 . S
N1038 C1035 1.384 . S
N1039 C1031 1.427 . S
N1039 C1037 1.384 . S
H1040 C1046 0.930 . S
H1041 C1050 0.930 . S
H1042 C1055 0.929 . S
H1043 C1053 0.929 . S
H1044 C1048 0.929 . S
H1045 C1054 0.929 . S
C1046 H1040 0.930 . S
C1046 C1047 1.367 . S
C1046 C1054 1.378 . S
C1047 C1046 1.367 . S
C1047 C1055 1.433 . S
C1048 H1044 0.929 . S
C1048 C1050 1.378 . S
C1048 C1052 1.350 . S
C1049 C1052 1.463 . S
C1049 C1054 1.350 . S
C1049 N1057 1.427 . S
C1050 H1041 0.930 . S
C1050 C1048 1.378 . S
C1050 C1051 1.367 . S
C1051 C1050 1.367 . S
C1051 C1053 1.433 . S
C1052 C1048 1.350 . S
C1052 C1049 1.463 . S
C1052 N1056 1.427 . S
C1053 H1043 0.929 . S
C1053 C1051 1.433 . S
C1053 N1056 1.384 . S
C1054 H1045 0.929 . S
C1054 C1046 1.378 . S
C1054 C1049 1.350 . S
C1055 H1042 0.929 . S
C1055 C1047 1.433 . S
C1055 N1057 1.384 . S
N1056 C1052 1.427 . S
N1056 C1053 1.384 . S
N1057 C1049 1.427 . S
N1057 C1055 1.384 . S
H1058 C1064 0.930 . S
H1059 C1068 0.930 . S
H1060 C1073 0.929 . S
H1061 C1071 0.929 . S
H1062 C1066 0.929 . S
H1063 C1072 0.929 . S
C1064 H1058 0.930 . S
C1064 C1065 1.367 . S
C1064 C1072 1.378 . S
C1065 C1064 1.367 . S
C1065 C1073 1.433 . S
C1066 H1062 0.929 . S
C1066 C1068 1.378 . S
C1066 C1070 1.350 . S
C1067 C1070 1.463 . S
C1067 C1072 1.350 . S
C1067 N1075 1.427 . S
C1068 H1059 0.930 . S
C1068 C1066 1.378 . S
C1068 C1069 1.367 . S
C1069 C1068 1.367 . S
C1069 C1071 1.433 . S
C1070 C1066 1.350 . S
C1070 C1067 1.463 . S
C1070 N1074 1.427 . S
C1071 H1061 0.929 . S
C1071 C1069 1.433 . S
C1071 N1074 1.384 . S
C1072 H1063 0.929 . S
C1072 C1064 1.378 . S
C1072 C1067 1.350 . S
C1073 H1060 0.929 . S
C1073 C1065 1.433 . S
C1073 N1075 1.384 . S
N1074 C1070 1.427 . S
N1074 C1071 1.384 . S
N1075 C1067 1.427 . S
N1075 C1073 1.384 . S
H1076 C1082 0.930 . S
H1077 C1086 0.930 . S
H1078 C1091 0.929 . S
H1079 C1089 0.929 . S
H1080 C1084 0.929 . S
H1081 C1090 0.929 . S
C1082 H1076 0.930 . S
C1082 C1083 1.367 . S
C1082 C1090 1.378 . S
C1083 C1082 1.367 . S
C1083 C1091 1.433 . S
C1084 H1080 0.929 . S
C1084 C1086 1.378 . S
C1084 C1088 1.350 . S
C1085 C1088 1.463 . S
C1085 C1090 1.350 . S
C1085 N1093 1.427 . S
C1086 H1077 0.930 . S
C1086 C1084 1.378 . S
C1086 C1087 1.367 . S
C1087 C1086 1.367 . S
C1087 C1089 1.433 . S
C1088 C1084 1.350 . S
C1088 C1085 1.463 . S
C1088 N1092 1.427 . S
C1089 H1079 0.929 . S
C1089 C1087 1.433 . S
C1089 N1092 1.384 . S
C1090 H1081 0.929 . S
C1090 C1082 1.378 . S
C1090 C1085 1.350 . S
C1091 H1078 0.929 . S
C1091 C1083 1.433 . S
C1091 N1093 1.384 . S
N1092 C1088 1.427 . S
N1092 C1089 1.384 . S
N1093 C1085 1.427 . S
N1093 C1091 1.384 . S
H1094 C1100 0.920 1_556 S
H1095 C1104 0.920 1_554 S
H1096 C1109 0.929 . S
H1097 C1107 0.929 . S
H1098 C1102 0.929 . S
H1099 C1108 0.929 . S
C1100 H1094 0.920 1_554 S
C1100 C1101 1.367 . S
C1100 C1108 1.378 1_554 S
C1101 C1100 1.367 . S
C1101 C1109 1.433 . S
C1102 H1098 0.929 . S
C1102 C1104 1.378 1_554 S
C1102 C1106 1.350 1_554 S
C1103 C1106 1.463 1_454 S
C1103 C1108 1.350 1_554 S
C1103 N1111 1.427 . S
C1104 H1095 0.920 1_556 S
C1104 C1102 1.378 1_556 S
C1104 C1105 1.367 . S
C1105 C1104 1.367 . S
C1105 C1107 1.433 . S
C1106 C1102 1.350 1_556 S
C1106 C1103 1.463 1_656 S
C1106 N1110 1.427 . S
C1107 H1097 0.929 . S
C1107 C1105 1.433 . S
C1107 N1110 1.384 . S
C1108 H1099 0.929 . S
C1108 C1100 1.378 1_556 S
C1108 C1103 1.350 1_556 S
C1109 H1096 0.929 . S
C1109 C1101 1.433 . S
C1109 N1111 1.384 . S
N1110 C1106 1.427 . S
N1110 C1107 1.384 . S
N1111 C1103 1.427 . S
N1111 C1109 1.384 . S
H1112 C1118 0.930 . S
H1113 C1122 0.930 . S
H1114 C1127 0.929 . S
H1115 C1125 0.929 . S
H1116 C1120 0.929 . S
H1117 C1126 0.929 . S
C1118 H1112 0.930 . S
C1118 C1119 1.367 . S
C1118 C1126 1.378 . S
C1119 C1118 1.367 . S
C1119 C1127 1.433 . S
C1120 H1116 0.929 . S
C1120 C1122 1.378 . S
C1120 C1124 1.350 . S
C1121 C1124 1.463 . S
C1121 C1126 1.350 . S
C1121 N1129 1.427 . S
C1122 H1113 0.930 . S
C1122 C1120 1.378 . S
C1122 C1123 1.367 . S
C1123 C1122 1.367 . S
C1123 C1125 1.433 . S
C1124 C1120 1.350 . S
C1124 C1121 1.463 . S
C1124 N1128 1.427 . S
C1125 H1115 0.929 . S
C1125 C1123 1.433 . S
C1125 N1128 1.384 . S
C1126 H1117 0.929 . S
C1126 C1118 1.378 . S
C1126 C1121 1.350 . S
C1127 H1114 0.929 . S
C1127 C1119 1.433 . S
C1127 N1129 1.384 . S
N1128 C1124 1.427 . S
N1128 C1125 1.384 . S
N1129 C1121 1.427 . S
N1129 C1127 1.384 . S
H1130 C1136 0.930 . S
H1131 C1140 0.930 . S
H1132 C1145 0.929 . S
H1133 C1143 0.929 . S
H1134 C1138 0.929 . S
H1135 C1144 0.929 . S
C1136 H1130 0.930 . S
C1136 C1137 1.367 . S
C1136 C1144 1.378 . S
C1137 C1136 1.367 . S
C1137 C1145 1.433 . S
C1138 H1134 0.929 . S
C1138 C1140 1.378 . S
C1138 C1142 1.350 . S
C1139 C1142 1.463 . S
C1139 C1144 1.350 . S
C1139 N1147 1.427 . S
C1140 H1131 0.930 . S
C1140 C1138 1.378 . S
C1140 C1141 1.367 . S
C1141 C1140 1.367 . S
C1141 C1143 1.433 . S
C1142 C1138 1.350 . S
C1142 C1139 1.463 . S
C1142 N1146 1.427 . S
C1143 H1133 0.929 . S
C1143 C1141 1.433 . S
C1143 N1146 1.384 . S
C1144 H1135 0.929 . S
C1144 C1136 1.378 . S
C1144 C1139 1.350 . S
C1145 H1132 0.929 . S
C1145 C1137 1.433 . S
C1145 N1147 1.384 . S
N1146 C1142 1.427 . S
N1146 C1143 1.384 . S
N1147 C1139 1.427 . S
N1147 C1145 1.384 . S
H1148 C1154 0.930 . S
H1149 C1158 0.930 . S
H1150 C1163 0.929 . S
H1151 C1161 0.929 . S
H1152 C1156 0.929 . S
H1153 C1162 0.929 . S
C1154 H1148 0.930 . S
C1154 C1155 1.367 . S
C1154 C1162 1.378 1_556 S
C1155 C1154 1.367 . S
C1155 C1163 1.433 . S
C1156 H1152 0.929 . S
C1156 C1158 1.378 1_556 S
C1156 C1160 1.350 1_556 S
C1157 C1160 1.463 1_446 S
C1157 C1162 1.350 1_556 S
C1157 N1165 1.427 . S
C1158 H1149 0.930 . S
C1158 C1156 1.378 1_554 S
C1158 C1159 1.367 . S
C1159 C1158 1.367 . S
C1159 C1161 1.433 . S
C1160 C1156 1.350 1_554 S
C1160 C1157 1.463 1_664 S
C1160 N1164 1.427 . S
C1161 H1151 0.929 . S
C1161 C1159 1.433 . S
C1161 N1164 1.384 . S
C1162 H1153 0.929 . S
C1162 C1154 1.378 1_554 S
C1162 C1157 1.350 1_554 S
C1163 H1150 0.929 . S
C1163 C1155 1.433 . S
C1163 N1165 1.384 . S
N1164 C1160 1.427 . S
N1164 C1161 1.384 . S
N1165 C1157 1.427 . S
N1165 C1163 1.384 . S
H1166 C1172 0.930 . S
H1167 C1176 0.930 . S
H1168 C1181 0.929 . S
H1169 C1179 0.929 . S
H1170 C1174 0.929 . S
H1171 C1180 0.929 . S
C1172 H1166 0.930 . S
C1172 C1173 1.367 . S
C1172 C1180 1.378 . S
C1173 C1172 1.367 . S
C1173 C1181 1.433 . S
C1174 H1170 0.929 . S
C1174 C1176 1.378 . S
C1174 C1178 1.350 . S
C1175 C1178 1.463 1_545 S
C1175 C1180 1.350 . S
C1175 N1183 1.427 . S
C1176 H1167 0.930 . S
C1176 C1174 1.378 . S
C1176 C1177 1.367 . S
C1177 C1176 1.367 . S
C1177 C1179 1.433 . S
C1178 C1174 1.350 . S
C1178 C1175 1.463 1_565 S
C1178 N1182 1.427 . S
C1179 H1169 0.929 . S
C1179 C1177 1.433 . S
C1179 N1182 1.384 . S
C1180 H1171 0.929 . S
C1180 C1172 1.378 . S
C1180 C1175 1.350 . S
C1181 H1168 0.929 . S
C1181 C1173 1.433 . S
C1181 N1183 1.384 . S
N1182 C1178 1.427 . S
N1182 C1179 1.384 . S
N1183 C1175 1.427 . S
N1183 C1181 1.384 . S
C327 C16 0.763 . S
C331 C216 0.755 . S
C345 C36 0.771 . S
C349 C236 0.775 . S
C363 C56 0.758 . S
C367 C176 0.765 . S
C381 C76 0.747 . S
C385 C196 0.743 . S
C399 C86 0.767 . S
C403 C286 0.773 . S
C417 C106 0.752 . S
C421 C306 0.760 . S
C435 C126 0.759 . S
C439 C246 0.767 . S
C453 C146 0.752 . S
C457 C266 0.760 . S
C471 C181 1.719 . S
C475 C6 1.761 . S
C489 C201 1.728 . S
C493 C26 1.754 . S
C507 C221 1.727 . S
C511 C46 1.755 . S
C525 C161 1.712 . S
C529 C66 1.759 . S
C543 C96 1.749 . S
C547 C269 1.718 . S
C561 C289 1.717 . S
C565 C116 1.750 . S
C579 C309 1.715 . S
C583 C136 1.750 . S
C597 C249 1.725 . S
C601 C156 1.759 . S
C615 C21 1.727 . S
C619 C166 1.752 . S
C633 C186 1.776 . S
C637 C41 1.719 . S
C651 C206 1.748 . S
C655 C61 1.722 . S
C669 C226 1.776 . S
C673 C1 1.720 . S
C687 C256 1.760 . S
C691 C109 1.724 . S
C705 C129 1.712 . S
C709 C276 1.782 . S
C723 C149 1.725 . S
C727 C296 1.758 . S
C741 C316 1.789 . S
C745 C89 1.716 . S
C759 C8 1.494 1_556 S
C763 C301 1.602 . S
C777 C28 1.494 . S
C781 C81 1.602 1_554 S
C795 C261 1.599 . S
C799 C48 1.486 . S
C813 C121 1.599 . S
C817 C68 1.481 . S
C831 C99 1.483 1_554 S
C835 C229 1.602 . S
C849 C119 1.497 . S
C853 C9 1.600 1_556 S
C867 C189 1.602 . S
C871 C139 1.501 . S
C885 C49 1.601 . S
C889 C159 1.485 . S
C903 C168 1.496 . S
C907 C141 1.602 . S
C921 C188 1.490 . S
C925 C241 1.599 . S
C939 C101 1.602 . S
C943 C208 1.486 1_556 S
C957 C281 1.600 1_554 S
C961 C228 1.496 . S
C975 C259 1.490 . S
C979 C69 1.602 . S
C993 C279 1.484 . S
C997 C169 1.599 . S
C1011 C299 1.491 1_554 S
C1015 C29 1.602 . S
C1029 C209 1.601 1_556 S
C1033 C319 1.498 . S
C1047 C19 2.103 . S
C1051 C248 2.103 . S
C1065 C39 2.105 . S
C1069 C108 2.105 . S
C1083 C59 2.095 . S
C1087 C288 2.095 . S
C1101 C148 2.102 . S
C1105 C79 2.102 . S
C1119 C88 2.106 . S
C1123 C179 2.106 . S
C1137 C219 2.109 . S
C1141 C128 2.109 . S
C1155 C199 2.098 . S
C1159 C268 2.098 . S
C1173 C308 2.101 . S
C1177 C239 2.101 . S
