# Generated by pormake.
# Topology mon, (4)-cn, num edge types: 1
# Building blocks:
#     Node 0, Type 0, BuildingBlock: QUQFOY_clean_sbu_3, # of connection points: 4
#     Node 1, Type 0, BuildingBlock: QUQFOY_clean_sbu_3, # of connection points: 4
#     Node 2, Type 0, BuildingBlock: QUQFOY_clean_sbu_3, # of connection points: 4
#     Node 3, Type 0, BuildingBlock: QUQFOY_clean_sbu_3, # of connection points: 4
#     Node 4, Type 0, BuildingBlock: QUQFOY_clean_sbu_3, # of connection points: 4
#     Node 5, Type 0, BuildingBlock: QUQFOY_clean_sbu_3, # of connection points: 4
#     Node 6, Type 0, BuildingBlock: QUQFOY_clean_sbu_3, # of connection points: 4
#     Node 7, Type 0, BuildingBlock: QUQFOY_clean_sbu_3, # of connection points: 4
#     Node 8, Type 0, BuildingBlock: QUQFOY_clean_sbu_3, # of connection points: 4
#     Node 9, Type 0, BuildingBlock: QUQFOY_clean_sbu_3, # of connection points: 4
#     Node 10, Type 0, BuildingBlock: QUQFOY_clean_sbu_3, # of connection points: 4
#     Node 11, Type 0, BuildingBlock: QUQFOY_clean_sbu_3, # of connection points: 4
#     Node 12, Type 0, BuildingBlock: QUQFOY_clean_sbu_3, # of connection points: 4
#     Node 13, Type 0, BuildingBlock: QUQFOY_clean_sbu_3, # of connection points: 4
#     Node 14, Type 0, BuildingBlock: QUQFOY_clean_sbu_3, # of connection points: 4
#     Node 15, Type 0, BuildingBlock: QUQFOY_clean_sbu_3, # of connection points: 4
#     Edge 16, Type (0, 0), BuildingBlock: EYOCIG_clean_linker_4, # of connection points: 2
#     Edge 17, Type (0, 0), BuildingBlock: EYOCIG_clean_linker_4, # of connection points: 2
#     Edge 18, Type (0, 0), BuildingBlock: EYOCIG_clean_linker_4, # of connection points: 2
#     Edge 19, Type (0, 0), BuildingBlock: EYOCIG_clean_linker_4, # of connection points: 2
#     Edge 20, Type (0, 0), BuildingBlock: EYOCIG_clean_linker_4, # of connection points: 2
#     Edge 21, Type (0, 0), BuildingBlock: EYOCIG_clean_linker_4, # of connection points: 2
#     Edge 22, Type (0, 0), BuildingBlock: EYOCIG_clean_linker_4, # of connection points: 2
#     Edge 23, Type (0, 0), BuildingBlock: EYOCIG_clean_linker_4, # of connection points: 2
#     Edge 24, Type (0, 0), BuildingBlock: EYOCIG_clean_linker_4, # of connection points: 2
#     Edge 25, Type (0, 0), BuildingBlock: EYOCIG_clean_linker_4, # of connection points: 2
#     Edge 26, Type (0, 0), BuildingBlock: EYOCIG_clean_linker_4, # of connection points: 2
#     Edge 27, Type (0, 0), BuildingBlock: EYOCIG_clean_linker_4, # of connection points: 2
#     Edge 28, Type (0, 0), BuildingBlock: EYOCIG_clean_linker_4, # of connection points: 2
#     Edge 29, Type (0, 0), BuildingBlock: EYOCIG_clean_linker_4, # of connection points: 2
#     Edge 30, Type (0, 0), BuildingBlock: EYOCIG_clean_linker_4, # of connection points: 2
#     Edge 31, Type (0, 0), BuildingBlock: EYOCIG_clean_linker_4, # of connection points: 2
#     Edge 32, Type (0, 0), BuildingBlock: EYOCIG_clean_linker_4, # of connection points: 2
#     Edge 33, Type (0, 0), BuildingBlock: EYOCIG_clean_linker_4, # of connection points: 2
#     Edge 34, Type (0, 0), BuildingBlock: EYOCIG_clean_linker_4, # of connection points: 2
#     Edge 35, Type (0, 0), BuildingBlock: EYOCIG_clean_linker_4, # of connection points: 2
#     Edge 36, Type (0, 0), BuildingBlock: EYOCIG_clean_linker_4, # of connection points: 2
#     Edge 37, Type (0, 0), BuildingBlock: EYOCIG_clean_linker_4, # of connection points: 2
#     Edge 38, Type (0, 0), BuildingBlock: EYOCIG_clean_linker_4, # of connection points: 2
#     Edge 39, Type (0, 0), BuildingBlock: EYOCIG_clean_linker_4, # of connection points: 2
#     Edge 40, Type (0, 0), BuildingBlock: EYOCIG_clean_linker_4, # of connection points: 2
#     Edge 41, Type (0, 0), BuildingBlock: EYOCIG_clean_linker_4, # of connection points: 2
#     Edge 42, Type (0, 0), BuildingBlock: EYOCIG_clean_linker_4, # of connection points: 2
#     Edge 43, Type (0, 0), BuildingBlock: EYOCIG_clean_linker_4, # of connection points: 2
#     Edge 44, Type (0, 0), BuildingBlock: EYOCIG_clean_linker_4, # of connection points: 2
#     Edge 45, Type (0, 0), BuildingBlock: EYOCIG_clean_linker_4, # of connection points: 2
#     Edge 46, Type (0, 0), BuildingBlock: EYOCIG_clean_linker_4, # of connection points: 2
#     Edge 47, Type (0, 0), BuildingBlock: EYOCIG_clean_linker_4, # of connection points: 2
# Relax obj value: 0.180
# Max RMSD: 0.174
# Mean RMSD: 0.174
data_MOF--net-mon--node1-QUQFOY_clean_sbu_3--edge1-EYOCIG_clean_linker_4
_symmetry_space_group_name_H-M    P1
_symmetry_Int_Tables_number       1
_symmetry_cell_setting            triclinic
loop_
_symmetry_equiv_pos_as_xyz
'x, y, z'
_cell_length_a     29.194487
_cell_length_b     29.180469
_cell_length_c     70.353605
_cell_angle_alpha  89.996058
_cell_angle_beta   90.015621
_cell_angle_gamma 90.031483
loop_
_atom_site_label
_atom_site_type_symbol
_atom_site_fract_x
_atom_site_fract_y
_atom_site_fract_z
_atom_type_partial_charge
C0 C 0.0579 0.93531 0.57662 0.0
O1 O 0.04343 0.90361 0.56586 0.0
Cd2 Cd -0.0207 0.90722 0.545 0.0
O3 O 0.03751 -0.02613 0.57769 0.0
Cd4 Cd -0.03172 0.00828 0.56199 0.0
C5 C 0.89344 0.92686 0.57709 0.0
O6 O -0.01286 -0.01976 0.53031 0.0
O7 O 0.92135 0.01303 0.53254 0.0
O8 O 0.00568 0.08348 0.56308 0.0
C9 C 0.95139 -0.00561 0.52215 0.0
O10 O 0.91102 0.90041 0.56474 0.0
C11 C -0.02834 0.10362 0.57055 0.0
O12 O 0.90937 0.96678 0.58009 0.0
O13 O 0.93674 0.07961 0.57445 0.0
C14 C 0.25022 0.80692 0.82714 0.0
O15 O 0.28153 0.79347 0.81599 0.0
Cd16 Cd 0.27776 0.73048 0.7946 0.0
O17 O 0.2119 0.78608 0.82827 0.0
Cd18 Cd 0.17752 0.71742 0.81205 0.0
C19 C 0.26057 0.64352 0.82642 0.0
O20 O 0.20425 0.73832 0.7804 0.0
O21 O 0.17293 0.67174 0.78218 0.0
O22 O 0.10205 0.75395 0.81392 0.0
C23 C 0.19063 0.70271 0.77196 0.0
O24 O 0.28634 0.66178 0.81399 0.0
C25 C 0.08232 0.71915 0.82097 0.0
O26 O 0.22049 0.65869 0.82966 0.0
O27 O 0.10669 0.68418 0.82435 0.0
C28 C 0.37719 -0.00119 0.07662 0.0
O29 O 0.39102 0.03042 0.06568 0.0
Cd30 Cd 0.45486 0.02729 0.04472 0.0
O31 O 0.39812 0.96054 0.07778 0.0
Cd32 Cd 0.46755 0.92668 0.06198 0.0
C33 C 0.5408 0.00973 0.07697 0.0
O34 O 0.44799 0.95394 0.03026 0.0
O35 O 0.51455 0.9228 0.03247 0.0
O36 O 0.4313 0.85092 0.06328 0.0
C37 C 0.48401 0.94062 0.02207 0.0
O38 O 0.5229 0.03567 0.06451 0.0
C39 C 0.46573 0.83127 0.07066 0.0
O40 O 0.52558 -0.03044 0.08003 0.0
O41 O 0.50037 0.85579 0.07445 0.0
C42 C 0.18643 0.12835 0.32699 0.0
O43 O 0.15503 0.14231 0.31598 0.0
Cd44 Cd 0.15874 0.20596 0.29488 0.0
O45 O 0.22494 0.14888 0.32808 0.0
Cd46 Cd 0.25963 0.21768 0.31203 0.0
C47 C 0.17765 0.29147 0.3273 0.0
O48 O 0.23185 0.19824 0.28033 0.0
O49 O 0.26411 0.26441 0.28253 0.0
O50 O 0.33481 0.1805 0.31347 0.0
C51 C 0.24594 0.23404 0.27214 0.0
O52 O 0.15144 0.27387 0.31486 0.0
C53 C 0.35483 0.21496 0.32067 0.0
O54 O 0.21772 0.27597 0.33025 0.0
O55 O 0.33075 0.24999 0.32429 0.0
C56 C 0.05682 0.00066 0.37605 0.0
O57 O 0.0423 0.03196 0.38699 0.0
Cd58 Cd -0.02168 0.02722 0.40789 0.0
O59 O 0.03667 0.96196 0.37488 0.0
Cd60 Cd -0.03198 0.92639 0.3906 0.0
C61 C 0.89259 0.00741 0.37569 0.0
O62 O -0.01316 0.95402 0.42234 0.0
O63 O 0.9213 0.92065 0.42007 0.0
O64 O 0.00669 0.85193 0.38918 0.0
C65 C 0.95125 0.93937 0.4305 0.0
O66 O 0.91004 0.03375 0.38812 0.0
C67 C -0.02719 0.83124 0.38184 0.0
O68 O 0.90873 -0.03237 0.37258 0.0
O69 O 0.93737 0.85464 0.37815 0.0
C70 C 0.18752 0.80797 0.62528 0.0
O71 O 0.1561 0.79438 0.63637 0.0
Cd72 Cd 0.15966 0.73103 0.6576 0.0
O73 O 0.22578 0.78707 0.62413 0.0
Cd74 Cd 0.25979 0.71803 0.64015 0.0
C75 C 0.17653 0.64447 0.62561 0.0
O76 O 0.23318 0.7387 0.67186 0.0
O77 O 0.26495 0.67236 0.67002 0.0
O78 O 0.33523 0.75445 0.63793 0.0
C79 C 0.24705 0.70314 0.68027 0.0
O80 O 0.15078 0.66258 0.63807 0.0
C81 C 0.35469 0.71956 0.63084 0.0
O82 O 0.21665 0.65962 0.62244 0.0
O83 O 0.3302 0.68453 0.62767 0.0
C84 C 0.37941 0.93481 0.87623 0.0
O85 O 0.39339 0.90387 0.88747 0.0
Cd86 Cd 0.4571 0.90899 0.90849 0.0
O87 O 0.39999 -0.02678 0.87481 0.0
Cd88 Cd 0.4686 0.00888 0.89047 0.0
C89 C 0.54343 0.92638 0.87636 0.0
O90 O 0.44889 -0.01711 0.92233 0.0
O91 O 0.51473 0.0156 0.92014 0.0
O92 O 0.43006 0.08324 0.88818 0.0
C93 C 0.4844 -0.00254 0.93056 0.0
O94 O 0.52556 0.90073 0.88894 0.0
C95 C 0.46423 0.1036 0.88092 0.0
O96 O 0.52776 0.96621 0.87295 0.0
O97 O 0.49983 0.08006 0.87767 0.0
C98 C 0.24964 0.12735 0.12556 0.0
O99 O 0.28133 0.14137 0.13642 0.0
Cd100 Cd 0.2779 0.2054 0.15733 0.0
O101 O 0.21126 0.14804 0.12453 0.0
Cd102 Cd 0.17696 0.21703 0.1404 0.0
C103 C 0.25881 0.29114 0.12507 0.0
O104 O 0.20494 0.19774 0.17208 0.0
O105 O 0.17211 0.26355 0.17002 0.0
O106 O 0.10226 0.17881 0.1387 0.0
C107 C 0.19087 0.23341 0.18035 0.0
O108 O 0.28515 0.27338 0.13741 0.0
C109 C 0.08187 0.213 0.13147 0.0
O110 O 0.21868 0.27566 0.12217 0.0
O111 O 0.10545 0.24853 0.12809 0.0
C112 C 0.68756 0.30779 0.12536 0.0
O113 O 0.65616 0.29431 0.13647 0.0
Cd114 Cd 0.65963 0.23104 0.15774 0.0
O115 O 0.72575 0.28679 0.12418 0.0
Cd116 Cd 0.75968 0.21775 0.1402 0.0
C117 C 0.67621 0.14431 0.1258 0.0
O118 O 0.73325 0.2385 0.17193 0.0
O119 O 0.76478 0.17205 0.17004 0.0
O120 O 0.83511 0.25412 0.13804 0.0
C121 C 0.74703 0.20288 0.18031 0.0
O122 O 0.65057 0.16254 0.13827 0.0
C123 C 0.85463 0.21923 0.13097 0.0
O124 O 0.71634 0.15936 0.12256 0.0
O125 O 0.83015 0.18422 0.12775 0.0
C126 C 0.75061 0.62904 0.62516 0.0
O127 O 0.78201 0.64318 0.63614 0.0
Cd128 Cd 0.77745 0.70646 0.65741 0.0
O129 O 0.71197 0.64927 0.62415 0.0
Cd130 Cd 0.67667 0.71749 0.64027 0.0
C131 C 0.75799 0.793 0.62559 0.0
O132 O 0.70441 0.6971 0.67188 0.0
O133 O 0.67068 0.76256 0.67022 0.0
O134 O 0.60235 0.67878 0.63796 0.0
C135 C 0.68962 0.73219 0.68036 0.0
O136 O 0.78434 0.77519 0.63791 0.0
C137 C 0.58185 0.71323 0.631 0.0
O138 O 0.71811 0.77711 0.6225 0.0
O139 O 0.60527 0.74906 0.62799 0.0
C140 C 0.75086 0.30699 0.32687 0.0
O141 O 0.78261 0.29235 0.31619 0.0
Cd142 Cd 0.7787 0.22843 0.29525 0.0
O143 O 0.71217 0.28681 0.32783 0.0
Cd144 Cd 0.67755 0.21779 0.31203 0.0
C145 C 0.7584 0.14234 0.32719 0.0
O146 O 0.70594 0.23759 0.28051 0.0
O147 O 0.6723 0.1721 0.28222 0.0
O148 O 0.60281 0.25591 0.31354 0.0
C149 C 0.69136 0.20238 0.27206 0.0
O150 O 0.78502 0.15993 0.31491 0.0
C151 C 0.58234 0.22159 0.32064 0.0
O152 O 0.71854 0.15839 0.33012 0.0
O153 O 0.60595 0.18618 0.32414 0.0
C154 C 0.68672 0.62723 0.82732 0.0
O155 O 0.65481 0.6414 0.81661 0.0
Cd156 Cd 0.65799 0.70528 0.79562 0.0
O157 O 0.72523 0.64777 0.8282 0.0
Cd158 Cd 0.75936 0.71676 0.8122 0.0
C159 C 0.67789 0.7912 0.82771 0.0
O160 O 0.73066 0.69689 0.78069 0.0
O161 O 0.76395 0.76257 0.78239 0.0
O162 O 0.83412 0.67857 0.81369 0.0
C163 C 0.74492 0.73224 0.77224 0.0
O164 O 0.65126 0.77342 0.81547 0.0
C165 C 0.85473 0.71291 0.8207 0.0
O166 O 0.71804 0.77565 0.83047 0.0
O167 O 0.83123 0.74844 0.82412 0.0
C168 C 0.55847 0.43535 0.07659 0.0
O169 O 0.54449 0.40382 0.06564 0.0
Cd170 Cd 0.48074 0.40754 0.04463 0.0
O171 O 0.53774 0.47372 0.07775 0.0
Cd172 Cd 0.46868 0.50815 0.06192 0.0
C173 C 0.39426 0.42572 0.07657 0.0
O174 O 0.48846 0.48087 0.03023 0.0
O175 O 0.42228 0.5129 0.03225 0.0
O176 O 0.5063 0.58323 0.0634 0.0
C177 C 0.45275 0.49471 0.02194 0.0
O178 O 0.41228 0.39969 0.06418 0.0
C179 C 0.47211 0.6035 0.07066 0.0
O180 O 0.40974 0.46576 0.07974 0.0
O181 O 0.43692 0.57962 0.07429 0.0
C182 C 0.8785 0.49975 0.57621 0.0
O183 O 0.89246 0.53083 0.56504 0.0
Cd184 Cd 0.95631 0.52637 0.54414 0.0
O185 O 0.89918 0.4614 0.57761 0.0
Cd186 Cd -0.03182 0.42646 0.56195 0.0
C187 C 0.04192 0.50937 0.5766 0.0
O188 O 0.94878 0.45261 0.53009 0.0
O189 O 0.01523 0.42128 0.53252 0.0
O190 O 0.93097 0.35127 0.56353 0.0
C191 C -0.0153 0.43868 0.52199 0.0
O192 O 0.02426 0.53501 0.56397 0.0
C193 C 0.96528 0.3313 0.57084 0.0
O194 O 0.02646 0.46938 0.57985 0.0
O195 O 0.00024 0.35545 0.57454 0.0
C196 C 0.55908 0.4981 0.8759 0.0
O197 O 0.5451 0.52959 0.88687 0.0
Cd198 Cd 0.48115 0.52599 0.90776 0.0
O199 O 0.53823 0.45979 0.87467 0.0
Cd200 Cd 0.46869 0.42579 0.89028 0.0
C201 C 0.39546 0.50889 0.8754 0.0
O202 O 0.48847 0.45245 0.92208 0.0
O203 O 0.42223 0.42056 0.91992 0.0
O204 O 0.50491 0.35024 0.8883 0.0
C205 C 0.45273 0.4385 0.93031 0.0
O206 O 0.4132 0.53472 0.88794 0.0
C207 C 0.47025 0.33086 0.88096 0.0
O208 O 0.41077 0.4688 0.87229 0.0
O209 O 0.43545 0.35544 0.87756 0.0
C210 C 0.87846 0.43654 0.3753 0.0
O211 O 0.89185 0.40496 0.38635 0.0
Cd212 Cd 0.95497 0.40793 0.40771 0.0
O213 O 0.89949 0.47477 0.37424 0.0
Cd214 Cd -0.03158 0.50836 0.39046 0.0
C215 C 0.04217 0.42533 0.37608 0.0
O216 O 0.9481 0.48129 0.42214 0.0
O217 O 0.01477 0.51238 0.42009 0.0
O218 O 0.93241 0.58409 0.38904 0.0
C219 C -0.01596 0.49462 0.43041 0.0
O220 O 0.02378 0.39943 0.38843 0.0
C221 C 0.96701 0.60363 0.38174 0.0
O222 O 0.02704 0.46545 0.37285 0.0
O223 O 0.00164 0.57905 0.37806 0.0
C224 C -0.03009 0.19331 0.57506 0.0
C225 C -0.02901 0.15237 0.57296 0.0
C226 C -0.03251 0.24155 0.57516 0.0
C227 C 0.96629 0.28252 0.57316 0.0
C228 C 0.9444 0.71394 0.82529 0.0
C229 C 0.90348 0.7131 0.82314 0.0
C230 C -0.00736 0.7163 0.82539 0.0
C231 C 0.03358 0.71773 0.82336 0.0
C232 C 0.47069 0.69326 0.07513 0.0
C233 C 0.47157 0.65229 0.07305 0.0
C234 C 0.46841 0.74154 0.07513 0.0
C235 C 0.46709 0.7825 0.07307 0.0
C236 C 0.49268 0.22003 0.32507 0.0
C237 C 0.5336 0.22114 0.32299 0.0
C238 C 0.44448 0.21742 0.32508 0.0
C239 C 0.40356 0.21601 0.32302 0.0
C240 C -0.02777 0.74155 0.3773 0.0
C241 C -0.02715 0.78249 0.37943 0.0
C242 C -0.03002 0.6933 0.37727 0.0
C243 C -0.03143 0.65236 0.37932 0.0
C244 C 0.44416 0.71651 0.6259 0.0
C245 C 0.40332 0.71808 0.62818 0.0
C246 C 0.49237 0.71405 0.62595 0.0
C247 C 0.53321 0.71329 0.62831 0.0
C248 C 0.46727 0.24137 0.87593 0.0
C249 C 0.46875 0.28223 0.87825 0.0
C250 C 0.46496 0.19313 0.8759 0.0
C251 C 0.46434 0.15226 0.87823 0.0
C252 C -0.00762 0.21374 0.12641 0.0
C253 C 0.03322 0.21307 0.12877 0.0
C254 C 0.94417 0.21614 0.12626 0.0
C255 C 0.90329 0.21772 0.12844 0.0
C256 C 0.93973 0.9599 0.4667 0.0
C257 C 0.94296 0.94952 0.45016 0.0
C258 C 0.93978 -0.02669 0.486 0.0
C259 C 0.94309 -0.0161 0.50251 0.0
C260 C 0.21217 0.69264 0.73576 0.0
C261 C 0.20146 0.69536 0.75229 0.0
C262 C 0.22579 0.69275 0.71649 0.0
C263 C 0.23638 0.69562 0.69995 0.0
C264 C 0.49539 0.96281 -0.01399 0.0
C265 C 0.49217 0.95178 0.00248 0.0
C266 C 0.4955 -0.02338 0.96676 0.0
C267 C 0.49248 -0.01286 0.95023 0.0
C268 C 0.21214 0.24478 0.21653 0.0
C269 C 0.20151 0.2415 0.20001 0.0
C270 C 0.22548 0.24498 0.23586 0.0
C271 C 0.23578 0.24199 0.25243 0.0
C272 C 0.72591 0.19237 0.21654 0.0
C273 C 0.73641 0.19534 0.2 0.0
C274 C 0.71241 0.19214 0.23583 0.0
C275 C 0.70182 0.19486 0.25237 0.0
C276 C 0.71043 0.74246 0.71666 0.0
C277 C 0.7 0.73962 0.7001 0.0
C278 C 0.72382 0.74253 0.73599 0.0
C279 C 0.73438 0.73971 0.75253 0.0
C280 C 0.44179 0.45948 0.96652 0.0
C281 C 0.44481 0.44897 0.94998 0.0
C282 C 0.4418 0.47311 -0.01421 0.0
C283 C 0.44485 0.48389 0.0023 0.0
C284 C -0.00433 0.4591 0.48576 0.0
C285 C -0.00723 0.4488 0.50231 0.0
C286 C -0.00469 0.47265 0.46649 0.0
C287 C -0.00801 0.48351 0.45001 0.0
C288 C 0.16025 0.87846 0.60524 0.0
C289 C 0.17776 0.84668 0.6134 0.0
C290 C 0.1295 0.9086 0.59615 0.0
C291 C 0.09725 0.92572 0.58816 0.0
C292 C 0.27777 0.87709 0.84733 0.0
C293 C 0.26017 0.84543 0.83911 0.0
C294 C 0.30845 0.9072 0.85648 0.0
C295 C 0.3405 0.9245 0.86455 0.0
C296 C 0.30633 0.02572 0.0965 0.0
C297 C 0.33827 0.00839 0.08839 0.0
C298 C 0.27614 0.05626 0.10568 0.0
C299 C 0.2591 0.08832 0.11382 0.0
C300 C 0.12792 0.02813 0.35635 0.0
C301 C 0.09588 0.01085 0.36443 0.0
C302 C 0.15863 0.05817 0.34714 0.0
C303 C 0.17633 0.08977 0.33891 0.0
C304 C 0.82508 0.0444 0.35618 0.0
C305 C 0.8555 0.0246 0.36435 0.0
C306 C 0.79498 0.07463 0.34673 0.0
C307 C 0.77532 0.10512 0.33853 0.0
C308 C 0.60752 0.04768 0.09667 0.0
C309 C 0.57746 0.02768 0.08835 0.0
C310 C 0.63765 0.07762 0.10628 0.0
C311 C 0.65788 0.10766 0.11452 0.0
C312 C 0.64082 0.85816 0.84753 0.0
C313 C 0.66069 0.82804 0.8392 0.0
C314 C 0.61069 0.88825 0.85706 0.0
C315 C 0.58037 0.90832 0.86518 0.0
C316 C 0.79533 0.86035 0.60609 0.0
C317 C 0.77535 0.83004 0.61426 0.0
C318 C 0.82573 0.89022 0.5966 0.0
C319 C 0.85626 0.90977 0.5884 0.0
C320 C 0.66044 0.37838 0.10534 0.0
C321 C 0.67787 0.34653 0.11349 0.0
C322 C 0.62978 0.40861 0.09626 0.0
C323 C 0.59762 0.42576 0.08823 0.0
C324 C 0.77764 0.37879 0.34625 0.0
C325 C 0.76044 0.34648 0.33833 0.0
C326 C 0.80789 0.40959 0.35526 0.0
C327 C 0.83973 0.42704 0.36341 0.0
C328 C 0.80795 0.52771 0.59605 0.0
C329 C 0.83975 0.51006 0.58797 0.0
C330 C 0.7778 0.55832 0.6052 0.0
C331 C 0.76055 0.59021 0.61338 0.0
C332 C 0.66039 0.5559 0.84709 0.0
C333 C 0.67744 0.58804 0.839 0.0
C334 C 0.63013 0.52525 0.85618 0.0
C335 C 0.59811 0.50783 0.86422 0.0
C336 C 0.32897 0.5468 0.85557 0.0
C337 C 0.35895 0.52686 0.86395 0.0
C338 C 0.29891 0.5767 0.84592 0.0
C339 C 0.27877 0.60679 0.83769 0.0
C340 C 0.10838 0.5477 0.59633 0.0
C341 C 0.07841 0.52757 0.588 0.0
C342 C 0.13832 0.57775 0.60598 0.0
C343 C 0.15837 0.60781 0.61428 0.0
C344 C 0.10967 0.38755 0.35683 0.0
C345 C 0.07925 0.40739 0.36497 0.0
C346 C 0.13996 0.3578 0.34725 0.0
C347 C 0.16001 0.32793 0.33885 0.0
C348 C 0.32673 0.388 0.09587 0.0
C349 C 0.35714 0.40797 0.08775 0.0
C350 C 0.2964 0.35799 0.10533 0.0
C351 C 0.27632 0.32791 0.11362 0.0
loop_
_geom_bond_atom_site_label_1
_geom_bond_atom_site_label_2
_geom_bond_distance
_geom_bond_site_symmetry_2
_ccdc_geom_bond_type
C0 O1 1.306 . S
C0 O3 1.160 1_565 S
O1 C0 1.306 . S
O1 Cd2 2.228 . S
Cd2 O1 2.228 . S
Cd2 O6 2.273 1_565 S
Cd2 O10 2.277 1_455 S
O3 C0 1.160 1_545 S
O3 Cd4 2.203 1_455 S
Cd4 O3 2.203 1_655 S
Cd4 O6 2.411 1_655 S
Cd4 O7 2.333 . S
Cd4 O8 2.352 1_655 S
Cd4 O12 2.277 . S
Cd4 O13 2.356 . S
C5 O10 1.209 . S
C5 O12 1.226 1_565 S
O6 Cd2 2.273 1_545 S
O6 Cd4 2.411 1_455 S
O6 C9 1.320 1_455 S
O7 Cd4 2.333 . S
O7 C9 1.214 . S
O8 Cd4 2.352 1_455 S
O8 C11 1.258 . S
C9 O6 1.320 1_655 S
C9 O7 1.214 . S
O10 Cd2 2.277 1_655 S
O10 C5 1.209 . S
C11 O8 1.258 . S
C11 O13 1.282 1_455 S
O12 Cd4 2.277 . S
O12 C5 1.226 1_545 S
O13 Cd4 2.356 . S
O13 C11 1.282 1_655 S
C14 O15 1.306 . S
C14 O17 1.160 . S
O15 C14 1.306 . S
O15 Cd16 2.228 . S
Cd16 O15 2.228 . S
Cd16 O20 2.273 . S
Cd16 O24 2.277 . S
O17 C14 1.160 . S
O17 Cd18 2.203 . S
Cd18 O17 2.203 . S
Cd18 O20 2.411 . S
Cd18 O21 2.333 . S
Cd18 O22 2.352 . S
Cd18 O26 2.277 . S
Cd18 O27 2.356 . S
C19 O24 1.209 . S
C19 O26 1.226 . S
O20 Cd16 2.273 . S
O20 Cd18 2.411 . S
O20 C23 1.320 . S
O21 Cd18 2.333 . S
O21 C23 1.214 . S
O22 Cd18 2.352 . S
O22 C25 1.258 . S
C23 O20 1.320 . S
C23 O21 1.214 . S
O24 Cd16 2.277 . S
O24 C19 1.209 . S
C25 O22 1.258 . S
C25 O27 1.282 . S
O26 Cd18 2.277 . S
O26 C19 1.226 . S
O27 Cd18 2.356 . S
O27 C25 1.282 . S
C28 O29 1.306 . S
C28 O31 1.160 1_545 S
O29 C28 1.306 . S
O29 Cd30 2.228 . S
Cd30 O29 2.228 . S
Cd30 O34 2.273 1_545 S
Cd30 O38 2.277 . S
O31 C28 1.160 1_565 S
O31 Cd32 2.203 . S
Cd32 O31 2.203 . S
Cd32 O34 2.411 . S
Cd32 O35 2.333 . S
Cd32 O36 2.352 . S
Cd32 O40 2.277 . S
Cd32 O41 2.356 . S
C33 O38 1.209 . S
C33 O40 1.226 1_545 S
O34 Cd30 2.273 1_565 S
O34 Cd32 2.411 . S
O34 C37 1.320 . S
O35 Cd32 2.333 . S
O35 C37 1.214 . S
O36 Cd32 2.352 . S
O36 C39 1.258 . S
C37 O34 1.320 . S
C37 O35 1.214 . S
O38 Cd30 2.277 . S
O38 C33 1.209 . S
C39 O36 1.258 . S
C39 O41 1.282 . S
O40 Cd32 2.277 . S
O40 C33 1.226 1_565 S
O41 Cd32 2.356 . S
O41 C39 1.282 . S
C42 O43 1.306 . S
C42 O45 1.160 . S
O43 C42 1.306 . S
O43 Cd44 2.228 . S
Cd44 O43 2.228 . S
Cd44 O48 2.273 . S
Cd44 O52 2.277 . S
O45 C42 1.160 . S
O45 Cd46 2.203 . S
Cd46 O45 2.203 . S
Cd46 O48 2.411 . S
Cd46 O49 2.333 . S
Cd46 O50 2.352 . S
Cd46 O54 2.277 . S
Cd46 O55 2.356 . S
C47 O52 1.209 . S
C47 O54 1.226 . S
O48 Cd44 2.273 . S
O48 Cd46 2.411 . S
O48 C51 1.320 . S
O49 Cd46 2.333 . S
O49 C51 1.214 . S
O50 Cd46 2.352 . S
O50 C53 1.258 . S
C51 O48 1.320 . S
C51 O49 1.214 . S
O52 Cd44 2.277 . S
O52 C47 1.209 . S
C53 O50 1.258 . S
C53 O55 1.282 . S
O54 Cd46 2.277 . S
O54 C47 1.226 . S
O55 Cd46 2.356 . S
O55 C53 1.282 . S
C56 O57 1.306 . S
C56 O59 1.160 1_545 S
O57 C56 1.306 . S
O57 Cd58 2.228 . S
Cd58 O57 2.228 . S
Cd58 O62 2.273 1_545 S
Cd58 O66 2.277 1_455 S
O59 C56 1.160 1_565 S
O59 Cd60 2.203 1_455 S
Cd60 O59 2.203 1_655 S
Cd60 O62 2.411 1_655 S
Cd60 O63 2.333 . S
Cd60 O64 2.352 1_655 S
Cd60 O68 2.277 . S
Cd60 O69 2.356 . S
C61 O66 1.209 . S
C61 O68 1.226 1_545 S
O62 Cd58 2.273 1_565 S
O62 Cd60 2.411 1_455 S
O62 C65 1.320 1_455 S
O63 Cd60 2.333 . S
O63 C65 1.214 . S
O64 Cd60 2.352 1_455 S
O64 C67 1.258 . S
C65 O62 1.320 1_655 S
C65 O63 1.214 . S
O66 Cd58 2.277 1_655 S
O66 C61 1.209 . S
C67 O64 1.258 . S
C67 O69 1.282 1_455 S
O68 Cd60 2.277 . S
O68 C61 1.226 1_565 S
O69 Cd60 2.356 . S
O69 C67 1.282 1_655 S
C70 O71 1.306 . S
C70 O73 1.160 . S
O71 C70 1.306 . S
O71 Cd72 2.228 . S
Cd72 O71 2.228 . S
Cd72 O76 2.273 . S
Cd72 O80 2.277 . S
O73 C70 1.160 . S
O73 Cd74 2.203 . S
Cd74 O73 2.203 . S
Cd74 O76 2.411 . S
Cd74 O77 2.333 . S
Cd74 O78 2.352 . S
Cd74 O82 2.277 . S
Cd74 O83 2.356 . S
C75 O80 1.209 . S
C75 O82 1.226 . S
O76 Cd72 2.273 . S
O76 Cd74 2.411 . S
O76 C79 1.320 . S
O77 Cd74 2.333 . S
O77 C79 1.214 . S
O78 Cd74 2.352 . S
O78 C81 1.258 . S
C79 O76 1.320 . S
C79 O77 1.214 . S
O80 Cd72 2.277 . S
O80 C75 1.209 . S
C81 O78 1.258 . S
C81 O83 1.282 . S
O82 Cd74 2.277 . S
O82 C75 1.226 . S
O83 Cd74 2.356 . S
O83 C81 1.282 . S
C84 O85 1.306 . S
C84 O87 1.160 1_565 S
O85 C84 1.306 . S
O85 Cd86 2.228 . S
Cd86 O85 2.228 . S
Cd86 O90 2.273 1_565 S
Cd86 O94 2.277 . S
O87 C84 1.160 1_545 S
O87 Cd88 2.203 . S
Cd88 O87 2.203 . S
Cd88 O90 2.411 . S
Cd88 O91 2.333 . S
Cd88 O92 2.352 . S
Cd88 O96 2.277 . S
Cd88 O97 2.356 . S
C89 O94 1.209 . S
C89 O96 1.226 1_565 S
O90 Cd86 2.273 1_545 S
O90 Cd88 2.411 . S
O90 C93 1.320 . S
O91 Cd88 2.333 . S
O91 C93 1.214 . S
O92 Cd88 2.352 . S
O92 C95 1.258 . S
C93 O90 1.320 . S
C93 O91 1.214 . S
O94 Cd86 2.277 . S
O94 C89 1.209 . S
C95 O92 1.258 . S
C95 O97 1.282 . S
O96 Cd88 2.277 . S
O96 C89 1.226 1_545 S
O97 Cd88 2.356 . S
O97 C95 1.282 . S
C98 O99 1.306 . S
C98 O101 1.160 . S
O99 C98 1.306 . S
O99 Cd100 2.228 . S
Cd100 O99 2.228 . S
Cd100 O104 2.273 . S
Cd100 O108 2.277 . S
O101 C98 1.160 . S
O101 Cd102 2.203 . S
Cd102 O101 2.203 . S
Cd102 O104 2.411 . S
Cd102 O105 2.333 . S
Cd102 O106 2.352 . S
Cd102 O110 2.277 . S
Cd102 O111 2.356 . S
C103 O108 1.209 . S
C103 O110 1.226 . S
O104 Cd100 2.273 . S
O104 Cd102 2.411 . S
O104 C107 1.320 . S
O105 Cd102 2.333 . S
O105 C107 1.214 . S
O106 Cd102 2.352 . S
O106 C109 1.258 . S
C107 O104 1.320 . S
C107 O105 1.214 . S
O108 Cd100 2.277 . S
O108 C103 1.209 . S
C109 O106 1.258 . S
C109 O111 1.282 . S
O110 Cd102 2.277 . S
O110 C103 1.226 . S
O111 Cd102 2.356 . S
O111 C109 1.282 . S
C112 O113 1.306 . S
C112 O115 1.160 . S
O113 C112 1.306 . S
O113 Cd114 2.228 . S
Cd114 O113 2.228 . S
Cd114 O118 2.273 . S
Cd114 O122 2.277 . S
O115 C112 1.160 . S
O115 Cd116 2.203 . S
Cd116 O115 2.203 . S
Cd116 O118 2.411 . S
Cd116 O119 2.333 . S
Cd116 O120 2.352 . S
Cd116 O124 2.277 . S
Cd116 O125 2.356 . S
C117 O122 1.209 . S
C117 O124 1.226 . S
O118 Cd114 2.273 . S
O118 Cd116 2.411 . S
O118 C121 1.320 . S
O119 Cd116 2.333 . S
O119 C121 1.214 . S
O120 Cd116 2.352 . S
O120 C123 1.258 . S
C121 O118 1.320 . S
C121 O119 1.214 . S
O122 Cd114 2.277 . S
O122 C117 1.209 . S
C123 O120 1.258 . S
C123 O125 1.282 . S
O124 Cd116 2.277 . S
O124 C117 1.226 . S
O125 Cd116 2.356 . S
O125 C123 1.282 . S
C126 O127 1.306 . S
C126 O129 1.160 . S
O127 C126 1.306 . S
O127 Cd128 2.228 . S
Cd128 O127 2.228 . S
Cd128 O132 2.273 . S
Cd128 O136 2.277 . S
O129 C126 1.160 . S
O129 Cd130 2.203 . S
Cd130 O129 2.203 . S
Cd130 O132 2.411 . S
Cd130 O133 2.333 . S
Cd130 O134 2.352 . S
Cd130 O138 2.277 . S
Cd130 O139 2.356 . S
C131 O136 1.209 . S
C131 O138 1.226 . S
O132 Cd128 2.273 . S
O132 Cd130 2.411 . S
O132 C135 1.320 . S
O133 Cd130 2.333 . S
O133 C135 1.214 . S
O134 Cd130 2.352 . S
O134 C137 1.258 . S
C135 O132 1.320 . S
C135 O133 1.214 . S
O136 Cd128 2.277 . S
O136 C131 1.209 . S
C137 O134 1.258 . S
C137 O139 1.282 . S
O138 Cd130 2.277 . S
O138 C131 1.226 . S
O139 Cd130 2.356 . S
O139 C137 1.282 . S
C140 O141 1.306 . S
C140 O143 1.160 . S
O141 C140 1.306 . S
O141 Cd142 2.228 . S
Cd142 O141 2.228 . S
Cd142 O146 2.273 . S
Cd142 O150 2.277 . S
O143 C140 1.160 . S
O143 Cd144 2.203 . S
Cd144 O143 2.203 . S
Cd144 O146 2.411 . S
Cd144 O147 2.333 . S
Cd144 O148 2.352 . S
Cd144 O152 2.277 . S
Cd144 O153 2.356 . S
C145 O150 1.209 . S
C145 O152 1.226 . S
O146 Cd142 2.273 . S
O146 Cd144 2.411 . S
O146 C149 1.320 . S
O147 Cd144 2.333 . S
O147 C149 1.214 . S
O148 Cd144 2.352 . S
O148 C151 1.258 . S
C149 O146 1.320 . S
C149 O147 1.214 . S
O150 Cd142 2.277 . S
O150 C145 1.209 . S
C151 O148 1.258 . S
C151 O153 1.282 . S
O152 Cd144 2.277 . S
O152 C145 1.226 . S
O153 Cd144 2.356 . S
O153 C151 1.282 . S
C154 O155 1.306 . S
C154 O157 1.160 . S
O155 C154 1.306 . S
O155 Cd156 2.228 . S
Cd156 O155 2.228 . S
Cd156 O160 2.273 . S
Cd156 O164 2.277 . S
O157 C154 1.160 . S
O157 Cd158 2.203 . S
Cd158 O157 2.203 . S
Cd158 O160 2.411 . S
Cd158 O161 2.333 . S
Cd158 O162 2.352 . S
Cd158 O166 2.277 . S
Cd158 O167 2.356 . S
C159 O164 1.209 . S
C159 O166 1.226 . S
O160 Cd156 2.273 . S
O160 Cd158 2.411 . S
O160 C163 1.320 . S
O161 Cd158 2.333 . S
O161 C163 1.214 . S
O162 Cd158 2.352 . S
O162 C165 1.258 . S
C163 O160 1.320 . S
C163 O161 1.214 . S
O164 Cd156 2.277 . S
O164 C159 1.209 . S
C165 O162 1.258 . S
C165 O167 1.282 . S
O166 Cd158 2.277 . S
O166 C159 1.226 . S
O167 Cd158 2.356 . S
O167 C165 1.282 . S
C168 O169 1.306 . S
C168 O171 1.160 . S
O169 C168 1.306 . S
O169 Cd170 2.228 . S
Cd170 O169 2.228 . S
Cd170 O174 2.273 . S
Cd170 O178 2.277 . S
O171 C168 1.160 . S
O171 Cd172 2.203 . S
Cd172 O171 2.203 . S
Cd172 O174 2.411 . S
Cd172 O175 2.333 . S
Cd172 O176 2.352 . S
Cd172 O180 2.277 . S
Cd172 O181 2.356 . S
C173 O178 1.209 . S
C173 O180 1.226 . S
O174 Cd170 2.273 . S
O174 Cd172 2.411 . S
O174 C177 1.320 . S
O175 Cd172 2.333 . S
O175 C177 1.214 . S
O176 Cd172 2.352 . S
O176 C179 1.258 . S
C177 O174 1.320 . S
C177 O175 1.214 . S
O178 Cd170 2.277 . S
O178 C173 1.209 . S
C179 O176 1.258 . S
C179 O181 1.282 . S
O180 Cd172 2.277 . S
O180 C173 1.226 . S
O181 Cd172 2.356 . S
O181 C179 1.282 . S
C182 O183 1.306 . S
C182 O185 1.160 . S
O183 C182 1.306 . S
O183 Cd184 2.228 . S
Cd184 O183 2.228 . S
Cd184 O188 2.273 . S
Cd184 O192 2.277 1_655 S
O185 C182 1.160 . S
O185 Cd186 2.203 1_655 S
Cd186 O185 2.203 1_455 S
Cd186 O188 2.411 1_455 S
Cd186 O189 2.333 . S
Cd186 O190 2.352 1_455 S
Cd186 O194 2.277 . S
Cd186 O195 2.356 . S
C187 O192 1.209 . S
C187 O194 1.226 . S
O188 Cd184 2.273 . S
O188 Cd186 2.411 1_655 S
O188 C191 1.320 1_655 S
O189 Cd186 2.333 . S
O189 C191 1.214 . S
O190 Cd186 2.352 1_655 S
O190 C193 1.258 . S
C191 O188 1.320 1_455 S
C191 O189 1.214 . S
O192 Cd184 2.277 1_455 S
O192 C187 1.209 . S
C193 O190 1.258 . S
C193 O195 1.282 1_655 S
O194 Cd186 2.277 . S
O194 C187 1.226 . S
O195 Cd186 2.356 . S
O195 C193 1.282 1_455 S
C196 O197 1.306 . S
C196 O199 1.160 . S
O197 C196 1.306 . S
O197 Cd198 2.228 . S
Cd198 O197 2.228 . S
Cd198 O202 2.273 . S
Cd198 O206 2.277 . S
O199 C196 1.160 . S
O199 Cd200 2.203 . S
Cd200 O199 2.203 . S
Cd200 O202 2.411 . S
Cd200 O203 2.333 . S
Cd200 O204 2.352 . S
Cd200 O208 2.277 . S
Cd200 O209 2.356 . S
C201 O206 1.209 . S
C201 O208 1.226 . S
O202 Cd198 2.273 . S
O202 Cd200 2.411 . S
O202 C205 1.320 . S
O203 Cd200 2.333 . S
O203 C205 1.214 . S
O204 Cd200 2.352 . S
O204 C207 1.258 . S
C205 O202 1.320 . S
C205 O203 1.214 . S
O206 Cd198 2.277 . S
O206 C201 1.209 . S
C207 O204 1.258 . S
C207 O209 1.282 . S
O208 Cd200 2.277 . S
O208 C201 1.226 . S
O209 Cd200 2.356 . S
O209 C207 1.282 . S
C210 O211 1.306 . S
C210 O213 1.160 . S
O211 C210 1.306 . S
O211 Cd212 2.228 . S
Cd212 O211 2.228 . S
Cd212 O216 2.273 . S
Cd212 O220 2.277 1_655 S
O213 C210 1.160 . S
O213 Cd214 2.203 1_655 S
Cd214 O213 2.203 1_455 S
Cd214 O216 2.411 1_455 S
Cd214 O217 2.333 . S
Cd214 O218 2.352 1_455 S
Cd214 O222 2.277 . S
Cd214 O223 2.356 . S
C215 O220 1.209 . S
C215 O222 1.226 . S
O216 Cd212 2.273 . S
O216 Cd214 2.411 1_655 S
O216 C219 1.320 1_655 S
O217 Cd214 2.333 . S
O217 C219 1.214 . S
O218 Cd214 2.352 1_655 S
O218 C221 1.258 . S
C219 O216 1.320 1_455 S
C219 O217 1.214 . S
O220 Cd212 2.277 1_455 S
O220 C215 1.209 . S
C221 O218 1.258 . S
C221 O223 1.282 1_655 S
O222 Cd214 2.277 . S
O222 C215 1.226 . S
O223 Cd214 2.356 . S
O223 C221 1.282 1_455 S
C224 C225 1.170 . S
C224 C226 1.380 1_455 S
C225 C224 1.170 . S
C226 C224 1.380 1_655 S
C226 C227 1.170 . S
C227 C226 1.170 . S
C228 C229 1.170 . S
C228 C230 1.380 1_655 S
C229 C228 1.170 . S
C230 C228 1.380 1_455 S
C230 C231 1.170 . S
C231 C230 1.170 . S
C232 C233 1.170 . S
C232 C234 1.380 . S
C233 C232 1.170 . S
C234 C232 1.380 . S
C234 C235 1.170 . S
C235 C234 1.170 . S
C236 C237 1.170 . S
C236 C238 1.380 . S
C237 C236 1.170 . S
C238 C236 1.380 . S
C238 C239 1.170 . S
C239 C238 1.170 . S
C240 C241 1.170 . S
C240 C242 1.376 1_455 S
C241 C240 1.170 . S
C242 C240 1.376 1_655 S
C242 C243 1.175 . S
C243 C242 1.175 . S
C244 C245 1.170 . S
C244 C246 1.380 . S
C245 C244 1.170 . S
C246 C244 1.380 . S
C246 C247 1.170 . S
C247 C246 1.170 . S
C248 C249 1.170 . S
C248 C250 1.380 . S
C249 C248 1.170 . S
C250 C248 1.380 . S
C250 C251 1.170 . S
C251 C250 1.170 . S
C252 C253 1.170 . S
C252 C254 1.380 1_455 S
C253 C252 1.170 . S
C254 C252 1.380 1_655 S
C254 C255 1.170 . S
C255 C254 1.170 . S
C256 C257 1.170 . S
C256 C258 1.380 1_565 S
C257 C256 1.170 . S
C258 C256 1.380 1_545 S
C258 C259 1.170 . S
C259 C258 1.170 . S
C260 C261 1.170 . S
C260 C262 1.380 . S
C261 C260 1.170 . S
C262 C260 1.380 . S
C262 C263 1.170 . S
C263 C262 1.170 . S
C264 C265 1.172 . S
C264 C266 1.379 1_564 S
C265 C264 1.172 . S
C266 C264 1.379 1_546 S
C266 C267 1.170 . S
C267 C266 1.170 . S
C268 C269 1.170 . S
C268 C270 1.380 . S
C269 C268 1.170 . S
C270 C268 1.380 . S
C270 C271 1.170 . S
C271 C270 1.170 . S
C272 C273 1.170 . S
C272 C274 1.380 . S
C273 C272 1.170 . S
C274 C272 1.380 . S
C274 C275 1.170 . S
C275 C274 1.170 . S
C276 C277 1.170 . S
C276 C278 1.380 . S
C277 C276 1.170 . S
C278 C276 1.380 . S
C278 C279 1.170 . S
C279 C278 1.170 . S
C280 C281 1.170 . S
C280 C282 1.380 1_556 S
C281 C280 1.170 . S
C282 C280 1.380 1_554 S
C282 C283 1.170 . S
C283 C282 1.170 . S
C284 C285 1.170 . S
C284 C286 1.380 . S
C285 C284 1.170 . S
C286 C284 1.380 . S
C286 C287 1.170 . S
C287 C286 1.170 . S
C288 C289 1.170 . S
C288 C290 1.380 . S
C289 C288 1.170 . S
C290 C288 1.380 . S
C290 C291 1.170 . S
C291 C290 1.170 . S
C292 C293 1.170 . S
C292 C294 1.380 . S
C293 C292 1.170 . S
C294 C292 1.380 . S
C294 C295 1.170 . S
C295 C294 1.170 . S
C296 C297 1.170 . S
C296 C298 1.380 . S
C297 C296 1.170 . S
C298 C296 1.380 . S
C298 C299 1.170 . S
C299 C298 1.170 . S
C300 C301 1.170 . S
C300 C302 1.380 . S
C301 C300 1.170 . S
C302 C300 1.380 . S
C302 C303 1.170 . S
C303 C302 1.170 . S
C304 C305 1.170 . S
C304 C306 1.380 . S
C305 C304 1.170 . S
C306 C304 1.380 . S
C306 C307 1.170 . S
C307 C306 1.170 . S
C308 C309 1.170 . S
C308 C310 1.380 . S
C309 C308 1.170 . S
C310 C308 1.380 . S
C310 C311 1.170 . S
C311 C310 1.170 . S
C312 C313 1.170 . S
C312 C314 1.380 . S
C313 C312 1.170 . S
C314 C312 1.380 . S
C314 C315 1.170 . S
C315 C314 1.170 . S
C316 C317 1.170 . S
C316 C318 1.380 . S
C317 C316 1.170 . S
C318 C316 1.380 . S
C318 C319 1.170 . S
C319 C318 1.170 . S
C320 C321 1.170 . S
C320 C322 1.380 . S
C321 C320 1.170 . S
C322 C320 1.380 . S
C322 C323 1.170 . S
C323 C322 1.170 . S
C324 C325 1.170 . S
C324 C326 1.380 . S
C325 C324 1.170 . S
C326 C324 1.380 . S
C326 C327 1.170 . S
C327 C326 1.170 . S
C328 C329 1.170 . S
C328 C330 1.380 . S
C329 C328 1.170 . S
C330 C328 1.380 . S
C330 C331 1.170 . S
C331 C330 1.170 . S
C332 C333 1.170 . S
C332 C334 1.380 . S
C333 C332 1.170 . S
C334 C332 1.380 . S
C334 C335 1.170 . S
C335 C334 1.170 . S
C336 C337 1.170 . S
C336 C338 1.380 . S
C337 C336 1.170 . S
C338 C336 1.380 . S
C338 C339 1.170 . S
C339 C338 1.170 . S
C340 C341 1.170 . S
C340 C342 1.380 . S
C341 C340 1.170 . S
C342 C340 1.380 . S
C342 C343 1.170 . S
C343 C342 1.170 . S
C344 C345 1.170 . S
C344 C346 1.380 . S
C345 C344 1.170 . S
C346 C344 1.380 . S
C346 C347 1.170 . S
C347 C346 1.170 . S
C348 C349 1.170 . S
C348 C350 1.380 . S
C349 C348 1.170 . S
C350 C348 1.380 . S
C350 C351 1.170 . S
C351 C350 1.170 . S
C225 C11 1.310 . S
C227 C193 1.305 . S
C229 C165 1.326 . S
C231 C25 1.298 . S
C233 C179 1.320 . S
C235 C39 1.299 . S
C237 C151 1.321 . S
C239 C53 1.299 . S
C241 C67 1.325 . S
C243 C221 1.298 . S
C245 C81 1.312 . S
C247 C137 1.336 . S
C249 C207 1.306 . S
C251 C95 1.337 . S
C253 C109 1.337 . S
C255 C123 1.307 . S
C257 C65 1.622 . S
C259 C9 1.623 . S
C261 C23 1.620 . S
C263 C79 1.617 . S
C265 C37 1.623 . S
C267 C93 1.619 . S
C269 C107 1.623 . S
C271 C51 1.621 . S
C273 C121 1.617 . S
C275 C149 1.619 . S
C277 C135 1.618 . S
C279 C163 1.618 . S
C281 C205 1.618 . S
C283 C177 1.621 . S
C285 C191 1.620 . S
C287 C219 1.623 . S
C289 C70 1.487 . S
C291 C0 1.468 . S
C293 C14 1.450 . S
C295 C84 1.444 . S
C297 C28 1.471 . S
C299 C98 1.488 . S
C301 C56 1.444 . S
C303 C42 1.463 . S
C305 C61 1.315 . S
C307 C145 1.312 . S
C309 C33 1.299 . S
C311 C117 1.296 . S
C313 C159 1.298 . S
C315 C89 1.313 . S
C317 C131 1.310 . S
C319 C5 1.316 . S
C321 C112 1.481 . S
C323 C168 1.458 . S
C325 C140 1.455 . S
C327 C210 1.479 . S
C329 C182 1.444 . S
C331 C126 1.462 . S
C333 C154 1.487 . S
C335 C196 1.482 . S
C337 C201 1.294 . S
C339 C19 1.304 . S
C341 C187 1.301 . S
C343 C75 1.295 . S
C345 C215 1.310 . S
C347 C47 1.296 . S
C349 C173 1.310 . S
C351 C103 1.295 . S
