# Generated by pormake.
# Topology wla, (5)-cn, num edge types: 1
# Building blocks:
#     Node 0, Type 0, BuildingBlock: BEQFEK_clean_sbu_0, # of connection points: 5
#     Node 1, Type 0, BuildingBlock: BEQFEK_clean_sbu_0, # of connection points: 5
#     Node 2, Type 0, BuildingBlock: BEQFEK_clean_sbu_0, # of connection points: 5
#     Node 3, Type 0, BuildingBlock: BEQFEK_clean_sbu_0, # of connection points: 5
#     Node 4, Type 0, BuildingBlock: BEQFEK_clean_sbu_0, # of connection points: 5
#     Node 5, Type 0, BuildingBlock: BEQFEK_clean_sbu_0, # of connection points: 5
#     Node 6, Type 0, BuildingBlock: BEQFEK_clean_sbu_0, # of connection points: 5
#     Node 7, Type 0, BuildingBlock: BEQFEK_clean_sbu_0, # of connection points: 5
#     Node 8, Type 0, BuildingBlock: BEQFEK_clean_sbu_0, # of connection points: 5
#     Node 9, Type 0, BuildingBlock: BEQFEK_clean_sbu_0, # of connection points: 5
#     Node 10, Type 0, BuildingBlock: BEQFEK_clean_sbu_0, # of connection points: 5
#     Node 11, Type 0, BuildingBlock: BEQFEK_clean_sbu_0, # of connection points: 5
#     Node 12, Type 0, BuildingBlock: BEQFEK_clean_sbu_0, # of connection points: 5
#     Node 13, Type 0, BuildingBlock: BEQFEK_clean_sbu_0, # of connection points: 5
#     Node 14, Type 0, BuildingBlock: BEQFEK_clean_sbu_0, # of connection points: 5
#     Node 15, Type 0, BuildingBlock: BEQFEK_clean_sbu_0, # of connection points: 5
#     Node 16, Type 0, BuildingBlock: BEQFEK_clean_sbu_0, # of connection points: 5
#     Node 17, Type 0, BuildingBlock: BEQFEK_clean_sbu_0, # of connection points: 5
#     Edge 18, Type (0, 0), BuildingBlock: KIFKEQ_clean_linker_1, # of connection points: 2
#     Edge 19, Type (0, 0), BuildingBlock: KIFKEQ_clean_linker_1, # of connection points: 2
#     Edge 20, Type (0, 0), BuildingBlock: KIFKEQ_clean_linker_1, # of connection points: 2
#     Edge 21, Type (0, 0), BuildingBlock: KIFKEQ_clean_linker_1, # of connection points: 2
#     Edge 22, Type (0, 0), BuildingBlock: KIFKEQ_clean_linker_1, # of connection points: 2
#     Edge 23, Type (0, 0), BuildingBlock: KIFKEQ_clean_linker_1, # of connection points: 2
#     Edge 24, Type (0, 0), BuildingBlock: KIFKEQ_clean_linker_1, # of connection points: 2
#     Edge 25, Type (0, 0), BuildingBlock: KIFKEQ_clean_linker_1, # of connection points: 2
#     Edge 26, Type (0, 0), BuildingBlock: KIFKEQ_clean_linker_1, # of connection points: 2
#     Edge 27, Type (0, 0), BuildingBlock: KIFKEQ_clean_linker_1, # of connection points: 2
#     Edge 28, Type (0, 0), BuildingBlock: KIFKEQ_clean_linker_1, # of connection points: 2
#     Edge 29, Type (0, 0), BuildingBlock: KIFKEQ_clean_linker_1, # of connection points: 2
#     Edge 30, Type (0, 0), BuildingBlock: KIFKEQ_clean_linker_1, # of connection points: 2
#     Edge 31, Type (0, 0), BuildingBlock: KIFKEQ_clean_linker_1, # of connection points: 2
#     Edge 32, Type (0, 0), BuildingBlock: KIFKEQ_clean_linker_1, # of connection points: 2
#     Edge 33, Type (0, 0), BuildingBlock: KIFKEQ_clean_linker_1, # of connection points: 2
#     Edge 34, Type (0, 0), BuildingBlock: KIFKEQ_clean_linker_1, # of connection points: 2
#     Edge 35, Type (0, 0), BuildingBlock: KIFKEQ_clean_linker_1, # of connection points: 2
#     Edge 36, Type (0, 0), BuildingBlock: KIFKEQ_clean_linker_1, # of connection points: 2
#     Edge 37, Type (0, 0), BuildingBlock: KIFKEQ_clean_linker_1, # of connection points: 2
#     Edge 38, Type (0, 0), BuildingBlock: KIFKEQ_clean_linker_1, # of connection points: 2
#     Edge 39, Type (0, 0), BuildingBlock: KIFKEQ_clean_linker_1, # of connection points: 2
#     Edge 40, Type (0, 0), BuildingBlock: KIFKEQ_clean_linker_1, # of connection points: 2
#     Edge 41, Type (0, 0), BuildingBlock: KIFKEQ_clean_linker_1, # of connection points: 2
#     Edge 42, Type (0, 0), BuildingBlock: KIFKEQ_clean_linker_1, # of connection points: 2
#     Edge 43, Type (0, 0), BuildingBlock: KIFKEQ_clean_linker_1, # of connection points: 2
#     Edge 44, Type (0, 0), BuildingBlock: KIFKEQ_clean_linker_1, # of connection points: 2
#     Edge 45, Type (0, 0), BuildingBlock: KIFKEQ_clean_linker_1, # of connection points: 2
#     Edge 46, Type (0, 0), BuildingBlock: KIFKEQ_clean_linker_1, # of connection points: 2
#     Edge 47, Type (0, 0), BuildingBlock: KIFKEQ_clean_linker_1, # of connection points: 2
#     Edge 48, Type (0, 0), BuildingBlock: KIFKEQ_clean_linker_1, # of connection points: 2
#     Edge 49, Type (0, 0), BuildingBlock: KIFKEQ_clean_linker_1, # of connection points: 2
#     Edge 50, Type (0, 0), BuildingBlock: KIFKEQ_clean_linker_1, # of connection points: 2
#     Edge 51, Type (0, 0), BuildingBlock: KIFKEQ_clean_linker_1, # of connection points: 2
#     Edge 52, Type (0, 0), BuildingBlock: KIFKEQ_clean_linker_1, # of connection points: 2
#     Edge 53, Type (0, 0), BuildingBlock: KIFKEQ_clean_linker_1, # of connection points: 2
#     Edge 54, Type (0, 0), BuildingBlock: KIFKEQ_clean_linker_1, # of connection points: 2
#     Edge 55, Type (0, 0), BuildingBlock: KIFKEQ_clean_linker_1, # of connection points: 2
#     Edge 56, Type (0, 0), BuildingBlock: KIFKEQ_clean_linker_1, # of connection points: 2
#     Edge 57, Type (0, 0), BuildingBlock: KIFKEQ_clean_linker_1, # of connection points: 2
#     Edge 58, Type (0, 0), BuildingBlock: KIFKEQ_clean_linker_1, # of connection points: 2
#     Edge 59, Type (0, 0), BuildingBlock: KIFKEQ_clean_linker_1, # of connection points: 2
#     Edge 60, Type (0, 0), BuildingBlock: KIFKEQ_clean_linker_1, # of connection points: 2
#     Edge 61, Type (0, 0), BuildingBlock: KIFKEQ_clean_linker_1, # of connection points: 2
#     Edge 62, Type (0, 0), BuildingBlock: KIFKEQ_clean_linker_1, # of connection points: 2
# Relax obj value: 0.269
# Max RMSD: 0.180
# Mean RMSD: 0.180
data_MOF--net-wla--node1-BEQFEK_clean_sbu_0--edge1-KIFKEQ_clean_linker_1
_symmetry_space_group_name_H-M    P1
_symmetry_Int_Tables_number       1
_symmetry_cell_setting            triclinic
loop_
_symmetry_equiv_pos_as_xyz
'x, y, z'
_cell_length_a     63.912425
_cell_length_b     63.884337
_cell_length_c     30.719635
_cell_angle_alpha  90.003032
_cell_angle_beta   89.989525
_cell_angle_gamma 120.03071
loop_
_atom_site_label
_atom_site_type_symbol
_atom_site_fract_x
_atom_site_fract_y
_atom_site_fract_z
_atom_type_partial_charge
Co0 Co 0.13893 0.00961 0.28712 0.0
Co1 Co 0.18923 0.05711 0.27938 0.0
C2 C 0.17913 0.0196 0.34831 0.0
O3 O 0.15786 0.00587 0.33383 0.0
O4 O 0.19317 0.04005 0.33075 0.0
C5 C 0.09526 0.96789 0.31571 0.0
O6 O 0.10615 0.97295 0.3537 0.0
C7 C 0.24149 0.08804 0.26043 0.0
C8 C 0.24243 0.12164 0.23978 0.0
C9 C 0.2567 0.11109 0.24394 0.0
N10 N 0.21919 0.08505 0.26461 0.0
N11 N 0.22001 0.10533 0.2528 0.0
C12 C 0.24792 0.06928 0.27277 0.0
H13 H 0.24528 0.0575 0.24437 0.0
H14 H 0.26708 0.07789 0.28327 0.0
H15 H 0.23603 0.05773 0.29934 0.0
C16 C 0.14806 0.00598 0.19427 0.0
N17 N 0.15529 0.01662 0.23346 0.0
N18 N 0.1764 0.03651 0.22961 0.0
C19 C 0.18324 0.03918 0.18745 0.0
C20 C 0.16553 0.01993 0.16371 0.0
C21 C 0.12356 0.9846 0.18594 0.0
H22 H 0.10955 0.9887 0.19752 0.0
H23 H 0.12156 0.96892 0.2049 0.0
H24 H 0.12045 0.97978 0.15096 0.0
O25 O 0.13222 0.03561 0.30207 0.0
O26 O 0.1673 0.06955 0.29529 0.0
H27 H 0.20578 0.07711 0.17592 0.0
H28 H 0.20831 0.05826 0.1347 0.0
C29 C 0.20598 0.06009 0.16998 0.0
H30 H 0.22168 0.06116 0.18715 0.0
H31 H 0.20506 0.10781 0.25239 0.0
O32 O 0.10661 0.98041 0.28268 0.0
C33 C 0.14479 0.05854 0.30366 0.0
Co34 Co 0.99486 0.12982 0.29074 0.0
Co35 Co 0.95006 0.13648 0.27694 0.0
C36 C 0.98567 0.16286 0.34755 0.0
O37 O -0.00155 0.15374 0.33526 0.0
O38 O 0.96595 0.15769 0.32835 0.0
C39 C 0.04364 0.13804 0.30969 0.0
O40 O 0.04786 0.15707 0.33278 0.0
C41 C 0.91961 0.15756 0.25184 0.0
C42 C 0.88913 0.12542 0.22127 0.0
C43 C 0.8984 0.1499 0.22833 0.0
N44 N 0.92289 0.13849 0.25724 0.0
N45 N 0.9043 0.11928 0.23983 0.0
C46 C 0.93785 0.1829 0.26442 0.0
H47 H 0.95557 0.18438 0.27151 0.0
H48 H 0.93991 0.1957 0.2381 0.0
H49 H 0.9315 0.18793 0.29413 0.0
C50 C -0.00034 0.13912 0.19607 0.0
N51 N 0.98945 0.13828 0.23485 0.0
N52 N 0.972 0.14328 0.22957 0.0
C53 C 0.97134 0.14866 0.1873 0.0
C54 C 0.98859 0.14585 0.16437 0.0
C55 C 0.01736 0.13055 0.18923 0.0
H56 H 0.01293 0.11503 0.21099 0.0
H57 H 0.03578 0.14539 0.19746 0.0
H58 H 0.01718 0.12476 0.15514 0.0
O59 O 0.96797 0.09798 0.30665 0.0
O60 O 0.93594 0.1019 0.29438 0.0
H61 H 0.93651 0.14193 0.16676 0.0
H62 H 0.96144 0.16616 0.13743 0.0
C63 C 0.95522 0.15737 0.16963 0.0
H64 H 0.95527 0.17087 0.19211 0.0
H65 H 0.90263 0.10218 0.23852 0.0
O66 O 0.02348 0.12579 0.29042 0.0
C67 C 0.94522 0.08916 0.30576 0.0
Co68 Co 0.8681 0.86984 0.28728 0.0
Co69 Co 0.86978 0.82199 0.27755 0.0
C70 C 0.84127 0.82859 0.34847 0.0
O71 O 0.84733 0.84968 0.33497 0.0
O72 O 0.84879 0.81585 0.32957 0.0
C73 C 0.86991 0.91093 0.32246 0.0
O74 O 0.87195 0.9006 0.35794 0.0
C75 C 0.84933 0.77138 0.25192 0.0
C76 C 0.88223 0.76885 0.24192 0.0
C77 C 0.85727 0.75582 0.23802 0.0
N78 N 0.86875 0.79267 0.26241 0.0
N79 N 0.88833 0.79095 0.25692 0.0
C80 C 0.82385 0.76621 0.2565 0.0
H81 H 0.82269 0.77783 0.28207 0.0
H82 H 0.81783 0.77033 0.22545 0.0
H83 H 0.81155 0.74691 0.26468 0.0
C84 C 0.85335 0.85978 0.19544 0.0
N85 N 0.85837 0.85327 0.23393 0.0
N86 N 0.86015 0.83377 0.22876 0.0
C87 C 0.85702 0.82766 0.18621 0.0
C88 C 0.85235 0.84378 0.16383 0.0
C89 C 0.85079 0.88161 0.18909 0.0
H90 H 0.86898 0.89803 0.18961 0.0
H91 H 0.84009 0.88302 0.21619 0.0
H92 H 0.84182 0.88079 0.1577 0.0
O93 O 0.90243 0.8796 0.29811 0.0
O94 O 0.90367 0.84561 0.29243 0.0
H95 H 0.87791 0.8098 0.18338 0.0
H96 H 0.86755 0.81371 0.13126 0.0
C97 C 0.86264 0.80966 0.16611 0.0
H98 H 0.84657 0.79133 0.16839 0.0
H99 H 0.90592 0.8051 0.26223 0.0
O100 O 0.86709 0.90028 0.28618 0.0
C101 C 0.91412 0.86828 0.29919 0.0
Co102 Co 0.0088 0.13644 0.71028 0.0
Co103 Co 0.05474 0.18722 0.72432 0.0
C104 C 0.01995 0.17906 0.65292 0.0
O105 O 0.0065 0.15729 0.66534 0.0
O106 O 0.03974 0.19312 0.67233 0.0
C107 C 0.97448 0.09265 0.67375 0.0
O108 O 0.98926 0.10232 0.6406 0.0
C109 C 0.08697 0.2392 0.74579 0.0
C110 C 0.11677 0.23713 0.7782 0.0
C111 C 0.10867 0.25295 0.76782 0.0
N112 N 0.08227 0.21618 0.7443 0.0
N113 N 0.10033 0.2152 0.76324 0.0
C114 C 0.07122 0.24775 0.72576 0.0
H115 H 0.06241 0.2372 0.69602 0.0
H116 H 0.05684 0.24505 0.7491 0.0
H117 H 0.0819 0.26724 0.71736 0.0
C118 C 0.00392 0.14145 0.80482 0.0
N119 N 0.01433 0.15048 0.76602 0.0
N120 N 0.03232 0.17268 0.77121 0.0
C121 C 0.03317 0.17898 0.81335 0.0
C122 C 0.01544 0.15926 0.83641 0.0
C123 C 0.98555 0.11536 0.81184 0.0
H124 H 0.98859 0.10388 0.78856 0.0
H125 H 0.96723 0.11266 0.80606 0.0
H126 H 0.98647 0.10948 0.84541 0.0
O127 O 0.03501 0.13021 0.69553 0.0
O128 O 0.06781 0.16572 0.70751 0.0
H129 H 0.0682 0.20573 0.83575 0.0
H130 H 0.04351 0.20705 0.86191 0.0
C131 C 0.05009 0.2037 0.83073 0.0
H132 H 0.05172 0.21744 0.80703 0.0
H133 H 0.10111 0.19937 0.76698 0.0
O134 O 0.97875 0.10479 0.70865 0.0
C135 C 0.05786 0.14356 0.69649 0.0
Co136 Co 0.86863 0.86851 0.71349 0.0
Co137 Co 0.82049 0.86957 0.72431 0.0
C138 C 0.82681 0.84024 0.6544 0.0
O139 O 0.84802 0.84648 0.66755 0.0
O140 O 0.81419 0.84803 0.67297 0.0
C141 C 0.91172 0.87594 0.67916 0.0
O142 O 0.90192 0.88035 0.64535 0.0
C143 C 0.76934 0.85047 0.74707 0.0
C144 C 0.76977 0.88406 0.76606 0.0
C145 C 0.75504 0.85918 0.7642 0.0
N146 N 0.79165 0.86934 0.74042 0.0
N147 N 0.79165 0.88937 0.75111 0.0
C148 C 0.76205 0.82482 0.73652 0.0
H149 H 0.77211 0.82416 0.70767 0.0
H150 H 0.76656 0.81667 0.76423 0.0
H151 H 0.74235 0.81396 0.73009 0.0
C152 C 0.86012 0.85568 0.80649 0.0
N153 N 0.85301 0.8599 0.76786 0.0
N154 N 0.83298 0.86071 0.77303 0.0
C155 C 0.8269 0.85737 0.81556 0.0
C156 C 0.84383 0.854 0.83805 0.0
C157 C 0.88358 0.85627 0.81338 0.0
H158 H 0.88423 0.84256 0.79212 0.0
H159 H 0.88611 0.85277 0.84779 0.0
H160 H 0.89868 0.87425 0.80358 0.0
O161 O 0.87749 0.90211 0.69907 0.0
O162 O 0.84371 0.90333 0.7078 0.0
H163 H 0.80748 0.8762 0.82607 0.0
H164 H 0.80518 0.85667 0.87065 0.0
C165 C 0.80605 0.85869 0.83477 0.0
H166 H 0.78898 0.84395 0.82125 0.0
H167 H 0.80684 0.90664 0.74964 0.0
O168 O 0.89966 0.86879 0.7143 0.0
C169 C 0.86607 0.91366 0.69842 0.0
Co170 Co 0.13627 0.00193 0.71424 0.0
Co171 Co 0.1367 0.95358 0.72745 0.0
C172 C 0.1644 0.98752 0.65514 0.0
O173 O 0.15758 0.00213 0.66782 0.0
O174 O 0.1577 0.9676 0.67492 0.0
C175 C 0.13258 0.03981 0.6771 0.0
O176 O 0.12925 0.0264 0.6425 0.0
C177 C 0.15482 0.92088 0.75163 0.0
C178 C 0.12137 0.88966 0.77702 0.0
C179 C 0.14595 0.89863 0.77213 0.0
N180 N 0.13633 0.92495 0.74559 0.0
N181 N 0.11633 0.90599 0.75995 0.0
C182 C 0.18065 0.93926 0.74265 0.0
H183 H 0.18275 0.95748 0.73859 0.0
H184 H 0.19246 0.93958 0.76943 0.0
H185 H 0.18642 0.93436 0.71209 0.0
C186 C 0.14959 0.00786 0.80707 0.0
N187 N 0.14556 0.99606 0.76896 0.0
N188 N 0.14611 0.97594 0.7749 0.0
C189 C 0.15057 0.97434 0.81736 0.0
C190 C 0.15286 0.99446 0.83913 0.0
C191 C 0.14733 0.0299 0.81308 0.0
H192 H 0.12988 0.02654 0.79925 0.0
H193 H 0.16202 0.04518 0.79479 0.0
H194 H 0.14826 0.03497 0.84784 0.0
O195 O 0.10245 0.97705 0.70184 0.0
O196 O 0.10275 0.94284 0.71173 0.0
H197 H 0.13451 0.93672 0.8327 0.0
H198 H 0.1566 0.95647 0.87215 0.0
C199 C 0.15201 0.95367 0.83706 0.0
H200 H 0.16627 0.95174 0.82032 0.0
H201 H 0.0994 0.90473 0.76006 0.0
O202 O 0.13704 0.03323 0.71329 0.0
C203 C 0.09159 0.95406 0.7024 0.0
Co204 Co 0.80502 0.34152 0.61051 0.0
Co205 Co 0.85415 0.39016 0.6028 0.0
C206 C 0.84494 0.3536 0.67318 0.0
O207 O 0.8238 0.33927 0.65891 0.0
O208 O 0.85856 0.37391 0.65487 0.0
C209 C 0.76359 0.29623 0.63673 0.0
O210 O 0.77582 0.29906 0.67273 0.0
C211 C 0.90509 0.41902 0.57727 0.0
C212 C 0.90932 0.4554 0.57087 0.0
C213 C 0.92142 0.44266 0.56492 0.0
N214 N 0.88428 0.41791 0.58891 0.0
N215 N 0.88703 0.43976 0.58553 0.0
C216 C 0.90911 0.39789 0.57954 0.0
H217 H 0.89698 0.3847 0.60419 0.0
H218 H 0.90482 0.38855 0.54762 0.0
H219 H 0.92822 0.40394 0.58769 0.0
C220 C 0.81577 0.3369 0.51933 0.0
N221 N 0.82229 0.34823 0.55798 0.0
N222 N 0.84209 0.36932 0.55326 0.0
C223 C 0.84829 0.37247 0.51074 0.0
C224 C 0.83194 0.35192 0.48794 0.0
C225 C 0.79387 0.31257 0.51272 0.0
H226 H 0.79196 0.30052 0.54029 0.0
H227 H 0.79501 0.30419 0.48183 0.0
H228 H 0.77757 0.31452 0.51196 0.0
O229 O 0.79691 0.36722 0.62141 0.0
O230 O 0.83159 0.40185 0.61701 0.0
H231 H 0.86207 0.39761 0.4568 0.0
H232 H 0.88462 0.3976 0.4916 0.0
C233 C 0.8666 0.39613 0.4911 0.0
H234 H 0.86744 0.41135 0.50978 0.0
H235 H 0.87345 0.44386 0.59205 0.0
O236 O 0.77326 0.3115 0.60609 0.0
C237 C 0.80885 0.39022 0.62297 0.0
Co238 Co 0.66618 0.47089 0.61167 0.0
Co239 Co 0.61768 0.47179 0.60737 0.0
C240 C 0.65488 0.49834 0.6769 0.0
O241 O 0.66898 0.4916 0.66116 0.0
O242 O 0.63436 0.49183 0.65969 0.0
C243 C 0.70999 0.47221 0.63731 0.0
O244 O 0.70567 0.47876 0.67525 0.0
C245 C 0.58733 0.49352 0.59014 0.0
C246 C 0.5528 0.46117 0.57214 0.0
C247 C 0.5642 0.48615 0.57475 0.0
N248 N 0.58957 0.47382 0.59503 0.0
N249 N 0.56873 0.45453 0.58499 0.0
C250 C 0.60694 0.51867 0.6008 0.0
H251 H 0.61799 0.51834 0.62827 0.0
H252 H 0.61906 0.52663 0.57233 0.0
H253 H 0.5992 0.53028 0.60941 0.0
C254 C 0.67009 0.48754 0.52132 0.0
N255 N 0.65902 0.48199 0.56029 0.0
N256 N 0.63827 0.48157 0.55733 0.0
C257 C 0.63524 0.48634 0.51573 0.0
C258 C 0.65539 0.49049 0.49175 0.0
C259 C 0.69271 0.48687 0.51178 0.0
H260 H 0.6893 0.46824 0.51715 0.0
H261 H 0.70711 0.499 0.53474 0.0
H262 H 0.69898 0.49237 0.47785 0.0
O263 O 0.64076 0.43708 0.6224 0.0
O264 O 0.60621 0.43727 0.61991 0.0
H265 H 0.59673 0.46815 0.50864 0.0
H266 H 0.61306 0.48682 0.46253 0.0
C267 C 0.61282 0.48532 0.49849 0.0
H268 H 0.61132 0.50054 0.51208 0.0
H269 H 0.56567 0.43687 0.58531 0.0
O270 O 0.69614 0.46931 0.60538 0.0
C271 C 0.61781 0.42604 0.62465 0.0
Co272 Co 0.53852 0.20192 0.62216 0.0
Co273 Co 0.53628 0.15197 0.61656 0.0
C274 C 0.51021 0.1636 0.68651 0.0
O275 O 0.51742 0.18466 0.67139 0.0
O276 O 0.51633 0.14942 0.66874 0.0
C277 C 0.53678 0.24504 0.64484 0.0
O278 O 0.52703 0.23379 0.68152 0.0
C279 C 0.511 0.10124 0.59037 0.0
C280 C 0.53962 0.09158 0.59547 0.0
C281 C 0.51575 0.08261 0.58346 0.0
N282 N 0.53123 0.1205 0.60525 0.0
N283 N 0.54822 0.11456 0.60869 0.0
C284 C 0.48735 0.10046 0.58489 0.0
H285 H 0.48847 0.11729 0.59742 0.0
H286 H 0.48214 0.09822 0.55009 0.0
H287 H 0.47302 0.08458 0.60256 0.0
C288 C 0.52239 0.1904 0.53166 0.0
N289 N 0.52707 0.18399 0.57052 0.0
N290 N 0.528 0.16397 0.56634 0.0
C291 C 0.52495 0.15758 0.5239 0.0
C292 C 0.52098 0.17395 0.50071 0.0
C293 C 0.52054 0.21258 0.52433 0.0
H294 H 0.53899 0.22861 0.52298 0.0
H295 H 0.51074 0.21506 0.55182 0.0
H296 H 0.51097 0.21134 0.49346 0.0
O297 O 0.57189 0.20865 0.63272 0.0
O298 O 0.57105 0.17354 0.62916 0.0
H299 H 0.54267 0.13641 0.52579 0.0
H300 H 0.53891 0.14531 0.472 0.0
C301 C 0.53036 0.13929 0.5045 0.0
H302 H 0.5133 0.12196 0.5 0.0
H303 H 0.56585 0.12635 0.61914 0.0
O304 O 0.54186 0.23426 0.61552 0.0
C305 C 0.58261 0.19638 0.63433 0.0
Co306 Co 0.6757 0.47549 0.04616 0.0
Co307 Co 0.7236 0.52499 0.0567 0.0
C308 C 0.6888 0.51573 0.98346 0.0
O309 O 0.67444 0.49448 0.99725 0.0
O310 O 0.70866 0.52957 0.0029 0.0
C311 C 0.64123 0.43097 0.01325 0.0
O312 O 0.65597 0.44003 0.97989 0.0
C313 C 0.75278 0.57631 0.08066 0.0
C314 C 0.78815 0.57922 0.09379 0.0
C315 C 0.77612 0.59222 0.09511 0.0
N316 N 0.75115 0.5549 0.07221 0.0
N317 N 0.77242 0.55686 0.07963 0.0
C318 C 0.73251 0.58128 0.07338 0.0
H319 H 0.71995 0.56893 0.04826 0.0
H320 H 0.72212 0.57806 0.10396 0.0
H321 H 0.73962 0.60034 0.06323 0.0
C322 C 0.66835 0.4859 0.13616 0.0
N323 N 0.68082 0.49244 0.09865 0.0
N324 N 0.70142 0.51267 0.10445 0.0
C325 C 0.70301 0.51926 0.14663 0.0
C326 C 0.682 0.50262 0.16797 0.0
C327 C 0.64419 0.46358 0.14138 0.0
H328 H 0.63274 0.46133 0.11264 0.0
H329 H 0.63487 0.46442 0.17125 0.0
H330 H 0.64666 0.4476 0.1432 0.0
O331 O 0.70174 0.46769 0.0377 0.0
O332 O 0.73582 0.50267 0.04435 0.0
H333 H 0.72588 0.5353 0.20306 0.0
H334 H 0.72666 0.55633 0.16336 0.0
C335 C 0.72561 0.53861 0.16768 0.0
H336 H 0.74169 0.53938 0.15252 0.0
H337 H 0.77604 0.54272 0.07608 0.0
O338 O 0.6455 0.44385 0.04721 0.0
C339 C 0.72472 0.47998 0.03786 0.0
Co340 Co 0.53509 0.20599 0.05347 0.0
Co341 Co 0.487 0.20722 0.06447 0.0
C342 C 0.49356 0.1787 0.99317 0.0
O343 O 0.51471 0.18478 0.00653 0.0
O344 O 0.48076 0.18619 0.01213 0.0
C345 C 0.57553 0.20101 0.02466 0.0
O346 O 0.56354 0.1932 0.98794 0.0
C347 C 0.4361 0.18812 0.08835 0.0
C348 C 0.43684 0.22154 0.10964 0.0
C349 C 0.42208 0.19667 0.10736 0.0
N350 N 0.45821 0.20709 0.08069 0.0
N351 N 0.45835 0.22704 0.09253 0.0
C352 C 0.42975 0.16236 0.0824 0.0
H353 H 0.44636 0.16106 0.07894 0.0
H354 H 0.41886 0.15117 0.1103 0.0
H355 H 0.41879 0.15514 0.05238 0.0
C356 C 0.52548 0.19099 0.14519 0.0
N357 N 0.51891 0.19649 0.1072 0.0
N358 N 0.49896 0.19739 0.11275 0.0
C359 C 0.49245 0.19291 0.15504 0.0
C360 C 0.50894 0.18856 0.17679 0.0
C361 C 0.54865 0.19092 0.15172 0.0
H362 H 0.54934 0.17781 0.12891 0.0
H363 H 0.55066 0.1862 0.1856 0.0
H364 H 0.56405 0.2091 0.14388 0.0
O365 O 0.54438 0.23988 0.04062 0.0
O366 O 0.51066 0.24122 0.04952 0.0
H367 H 0.4711 0.19218 0.21073 0.0
H368 H 0.45447 0.17853 0.16214 0.0
C369 C 0.47148 0.19379 0.1748 0.0
H370 H 0.47225 0.21095 0.16573 0.0
H371 H 0.47354 0.24431 0.09111 0.0
O372 O 0.56601 0.20608 0.05628 0.0
C373 C 0.53309 0.25158 0.04063 0.0
Co374 Co 0.79925 0.33306 0.03944 0.0
Co375 Co 0.80272 0.28634 0.05193 0.0
C376 C 0.8285 0.32118 0.97919 0.0
O377 O 0.8208 0.33502 0.9922 0.0
O378 O 0.82272 0.30142 -0.00124 0.0
C379 C 0.81031 0.38432 0.03658 0.0
O380 O 0.83349 0.39242 0.04215 0.0
C381 C 0.82513 0.25692 0.07468 0.0
C382 C 0.79284 0.22304 0.09567 0.0
C383 C 0.81773 0.23417 0.09202 0.0
N384 N 0.80547 0.25922 0.06941 0.0
N385 N 0.78625 0.23879 0.08152 0.0
C386 C 0.85023 0.27593 0.0623 0.0
H387 H 0.84974 0.2874 0.03573 0.0
H388 H 0.8593 0.28775 0.09069 0.0
H389 H 0.86098 0.26752 0.05192 0.0
C390 C 0.81426 0.34029 0.13206 0.0
N391 N 0.81013 0.32856 0.09379 0.0
N392 N 0.81137 0.30875 0.09936 0.0
C393 C 0.81618 0.30723 0.14164 0.0
C394 C 0.81832 0.3272 0.16354 0.0
C395 C 0.81126 0.3618 0.13941 0.0
H396 H 0.79504 0.35938 0.12188 0.0
H397 H 0.8273 0.37811 0.12633 0.0
H398 H 0.80948 0.36467 0.17452 0.0
O399 O 0.76615 0.30628 0.02961 0.0
O400 O 0.76798 0.27283 0.03789 0.0
H401 H 0.80021 0.26936 0.15468 0.0
H402 H 0.82043 0.28847 0.19697 0.0
C403 C 0.8173 0.28638 0.16135 0.0
H404 H 0.83236 0.2851 0.14647 0.0
H405 H 0.76863 0.2358 0.08112 0.0
O406 O 0.7954 0.36176 0.03633 0.0
C407 C 0.75597 0.28336 0.03014 0.0
Co408 Co 0.4757 0.67684 0.94556 0.0
Co409 Co 0.52465 0.7258 0.94098 0.0
C410 C 0.51448 0.68925 0.01132 0.0
O411 O 0.49369 0.67479 0.99574 0.0
O412 O 0.52829 0.70969 0.99364 0.0
C413 C 0.43418 0.63108 0.96939 0.0
O414 O 0.44537 0.63408 0.0067 0.0
C415 C 0.57658 0.75684 0.92412 0.0
C416 C 0.57828 0.79112 0.90582 0.0
C417 C 0.59211 0.78003 0.90877 0.0
N418 N 0.55449 0.75423 0.9287 0.0
N419 N 0.55573 0.77491 0.9185 0.0
C420 C 0.58249 0.73752 0.93498 0.0
H421 H 0.57157 0.72677 0.96315 0.0
H422 H 0.57794 0.72502 0.90699 0.0
H423 H 0.60198 0.74548 0.94265 0.0
C424 C 0.48882 0.67286 0.85556 0.0
N425 N 0.49419 0.68403 0.89443 0.0
N426 N 0.51433 0.70498 0.89131 0.0
C427 C 0.52215 0.70802 0.84973 0.0
C428 C 0.50636 0.68768 0.8259 0.0
C429 C 0.46561 0.65008 0.84612 0.0
H430 H 0.45029 0.65331 0.85151 0.0
H431 H 0.4635 0.63575 0.86909 0.0
H432 H 0.46485 0.64379 0.81221 0.0
O433 O 0.46658 0.70186 0.95502 0.0
O434 O 0.50114 0.73667 0.95276 0.0
H435 H 0.54173 0.74653 0.84207 0.0
H436 H 0.54465 0.73028 0.7964 0.0
C437 C 0.54327 0.73064 0.83232 0.0
H438 H 0.56015 0.73267 0.84617 0.0
H439 H 0.54096 0.77768 0.9186 0.0
O440 O 0.44455 0.64642 0.93911 0.0
C441 C 0.47829 0.72484 0.95703 0.0
Co442 Co 0.33393 0.80346 0.94197 0.0
Co443 Co 0.28515 0.80378 0.93582 0.0
C444 C 0.32184 0.83111 0.0055 0.0
O445 O 0.33621 0.82448 0.99065 0.0
O446 O 0.30137 0.82425 0.98779 0.0
C447 C 0.37748 0.8048 0.96922 0.0
O448 O 0.37235 0.81053 0.00725 0.0
C449 C 0.25364 0.82426 0.9182 0.0
C450 C 0.21989 0.7914 0.89874 0.0
C451 C 0.23045 0.81626 0.9025 0.0
N452 N 0.25674 0.80503 0.92228 0.0
N453 N 0.23637 0.78543 0.91124 0.0
C454 C 0.27246 0.84956 0.92996 0.0
H455 H 0.2839 0.84941 0.95689 0.0
H456 H 0.28435 0.85841 0.90154 0.0
H457 H 0.26393 0.8603 0.93977 0.0
C458 C 0.33791 0.81914 0.85092 0.0
N459 N 0.32675 0.81389 0.8898 0.0
N460 N 0.30602 0.81347 0.88628 0.0
C461 C 0.30316 0.81809 0.84451 0.0
C462 C 0.32332 0.82195 0.82089 0.0
C463 C 0.36052 0.81833 0.84201 0.0
H464 H 0.35724 0.79989 0.84908 0.0
H465 H 0.37505 0.83107 0.86416 0.0
H466 H 0.36656 0.82297 0.80777 0.0
O467 O 0.30881 0.76964 0.95331 0.0
O468 O 0.27411 0.76948 0.9495 0.0
H469 H 0.26483 0.79993 0.83518 0.0
H470 H 0.28191 0.82016 0.79121 0.0
C471 C 0.28101 0.81747 0.82695 0.0
H472 H 0.27908 0.83211 0.84212 0.0
H473 H 0.23397 0.76802 0.91093 0.0
O474 O 0.36417 0.80235 0.93668 0.0
C475 C 0.28585 0.75847 0.95521 0.0
Co476 Co 0.20902 0.53588 0.94319 0.0
Co477 Co 0.20746 0.48626 0.93593 0.0
C478 C 0.18119 0.4959 0.00697 0.0
O479 O 0.18837 0.51705 0.99225 0.0
O480 O 0.18715 0.48172 0.9886 0.0
C481 C 0.2063 0.57774 0.97038 0.0
O482 O 0.19887 0.56643 0.0078 0.0
C483 C 0.18723 0.43467 0.91496 0.0
C484 C 0.22035 0.4345 0.89477 0.0
C485 C 0.19545 0.42006 0.89721 0.0
N486 N 0.20642 0.45679 0.9216 0.0
N487 N 0.22617 0.45638 0.91042 0.0
C488 C 0.16162 0.42878 0.92106 0.0
H489 H 0.16063 0.44559 0.92375 0.0
H490 H 0.15019 0.4176 0.89362 0.0
H491 H 0.15445 0.41826 0.95156 0.0
C492 C 0.19311 0.52503 0.85221 0.0
N493 N 0.19818 0.5186 0.89074 0.0
N494 N 0.19783 0.49791 0.88663 0.0
C495 C 0.19272 0.49064 0.84474 0.0
C496 C 0.18945 0.50753 0.82169 0.0
C497 C 0.19487 0.54898 0.8441 0.0
H498 H 0.21322 0.56365 0.85316 0.0
H499 H 0.1817 0.55067 0.86519 0.0
H500 H 0.19145 0.55136 0.80959 0.0
O501 O 0.24279 0.54433 0.95333 0.0
O502 O 0.24191 0.50928 0.94937 0.0
H503 H 0.20859 0.46834 0.83512 0.0
H504 H 0.18922 0.46694 0.79097 0.0
C505 C 0.19175 0.4684 0.82672 0.0
H506 H 0.17627 0.45228 0.84135 0.0
H507 H 0.24355 0.47141 0.91135 0.0
O508 O 0.21027 0.56733 0.93884 0.0
C509 C 0.25347 0.53207 0.95485 0.0
Co510 Co 0.34017 0.80842 0.37393 0.0
Co511 Co 0.38838 0.85766 0.384 0.0
C512 C 0.35291 0.84858 0.31179 0.0
O513 O 0.33846 0.82734 0.32544 0.0
O514 O 0.37288 0.86214 0.33106 0.0
C515 C 0.30387 0.76487 0.3401 0.0
O516 O 0.31732 0.77451 0.30535 0.0
C517 C 0.41449 0.90793 0.4127 0.0
C518 C 0.45248 0.91629 0.41167 0.0
C519 C 0.43788 0.92589 0.4219 0.0
N520 N 0.41514 0.88843 0.3982 0.0
N521 N 0.43792 0.8936 0.39723 0.0
C522 C 0.39199 0.90958 0.41567 0.0
H523 H 0.37614 0.89276 0.40346 0.0
H524 H 0.3887 0.91274 0.44981 0.0
H525 H 0.39432 0.92526 0.39624 0.0
C526 C 0.33363 0.81856 0.46449 0.0
N527 N 0.34573 0.82526 0.4266 0.0
N528 N 0.36673 0.84504 0.43245 0.0
C529 C 0.36903 0.85099 0.47505 0.0
C530 C 0.348 0.83461 0.49656 0.0
C531 C 0.30923 0.79656 0.46981 0.0
H532 H 0.29773 0.79469 0.44137 0.0
H533 H 0.30024 0.79755 0.50002 0.0
H534 H 0.31126 0.78031 0.47116 0.0
O535 O 0.36634 0.80074 0.36474 0.0
O536 O 0.40082 0.83555 0.3708 0.0
H537 H 0.40796 0.87135 0.47685 0.0
H538 H 0.39369 0.86277 0.52947 0.0
C539 C 0.39231 0.86889 0.49633 0.0
H540 H 0.39295 0.88646 0.49963 0.0
H541 H 0.44348 0.88148 0.38752 0.0
O542 O 0.30983 0.77688 0.37535 0.0
C543 C 0.38936 0.81281 0.36438 0.0
Co544 Co 0.20201 0.54211 0.37682 0.0
Co545 Co 0.15199 0.53969 0.38449 0.0
C546 C 0.16234 0.51317 0.31412 0.0
O547 O 0.18338 0.52022 0.32919 0.0
O548 O 0.14833 0.51958 0.33176 0.0
C549 C 0.24451 0.54029 0.3508 0.0
O550 O 0.23316 0.53186 0.31368 0.0
C551 C 0.09968 0.51793 0.40234 0.0
C552 C 0.09841 0.55005 0.42534 0.0
C553 C 0.0843 0.52528 0.41981 0.0
N554 N 0.12192 0.53743 0.399 0.0
N555 N 0.1209 0.55659 0.4121 0.0
C556 C 0.09347 0.49302 0.38835 0.0
H557 H 0.10488 0.49398 0.36041 0.0
H558 H 0.09702 0.48374 0.41542 0.0
H559 H 0.07412 0.48221 0.37907 0.0
C560 C 0.19191 0.52739 0.46863 0.0
N561 N 0.18519 0.53193 0.42989 0.0
N562 N 0.16414 0.53078 0.43378 0.0
C563 C 0.15681 0.52554 0.47559 0.0
C564 C 0.17413 0.52315 0.49898 0.0
C565 C 0.21619 0.52999 0.47697 0.0
H566 H 0.23047 0.54823 0.46644 0.0
H567 H 0.21807 0.5165 0.45719 0.0
H568 H 0.219 0.52761 0.5118 0.0
O569 O 0.20926 0.57521 0.36311 0.0
O570 O 0.17435 0.57435 0.37079 0.0
H571 H 0.13422 0.54077 0.48795 0.0
H572 H 0.13142 0.5188 0.52816 0.0
C573 C 0.13399 0.52347 0.49309 0.0
H574 H 0.11838 0.50907 0.47532 0.0
H575 H 0.13578 0.57406 0.41346 0.0
O576 O 0.23393 0.54453 0.38167 0.0
C577 C 0.19688 0.58578 0.3625 0.0
Co578 Co 0.47017 0.67019 0.38038 0.0
Co579 Co 0.47049 0.6215 0.38902 0.0
C580 C 0.49773 0.65766 0.31804 0.0
O581 O 0.49112 0.6722 0.33203 0.0
O582 O 0.49094 0.63741 0.33665 0.0
C583 C 0.47153 0.71399 0.35276 0.0
O584 O 0.4786 0.70981 0.31522 0.0
C585 C 0.49211 0.59204 0.41352 0.0
C586 C 0.45949 0.55639 0.424 0.0
C587 C 0.48447 0.56858 0.42746 0.0
N588 N 0.47249 0.59362 0.40343 0.0
N589 N 0.45309 0.57218 0.40919 0.0
C590 C 0.51748 0.61253 0.40837 0.0
H591 H 0.51831 0.6251 0.38266 0.0
H592 H 0.52365 0.62285 0.43921 0.0
H593 H 0.52985 0.60565 0.40006 0.0
C594 C 0.48694 0.67581 0.47084 0.0
N595 N 0.48096 0.66377 0.43286 0.0
N596 N 0.47986 0.64279 0.43795 0.0
C597 C 0.48433 0.64048 0.48012 0.0
C598 C 0.48922 0.66145 0.50216 0.0
C599 C 0.48977 0.70034 0.47688 0.0
H600 H 0.49935 0.71192 0.44846 0.0
H601 H 0.50002 0.70913 0.50698 0.0
H602 H 0.47162 0.69858 0.47884 0.0
O603 O 0.4364 0.64458 0.36947 0.0
O604 O 0.43626 0.60993 0.375 0.0
H605 H 0.46518 0.60167 0.48387 0.0
H606 H 0.47558 0.61663 0.53554 0.0
C607 C 0.48016 0.6174 0.50051 0.0
H608 H 0.49681 0.61619 0.49784 0.0
H609 H 0.4354 0.56851 0.4043 0.0
O610 O 0.46832 0.7001 0.38479 0.0
C611 C 0.42525 0.62159 0.36836 0.0
H612 H 0.09825 0.04086 0.32992 0.0
H613 H 0.16301 0.10758 0.29624 0.0
H614 H 0.07584 0.06226 0.3339 0.0
H615 H 0.14022 0.12902 0.30016 0.0
H616 H 0.08822 0.15771 0.34927 0.0
H617 H 0.11478 0.14023 0.35236 0.0
H618 H 0.0645 0.08082 0.2719 0.0
H619 H 0.03825 0.09799 0.26856 0.0
C620 C 0.1078 0.06015 0.32379 0.0
C621 C 0.13235 0.07243 0.31207 0.0
C622 C 0.09491 0.07238 0.32599 0.0
C623 C 0.10623 0.09718 0.31658 0.0
C624 C 0.1311 0.10988 0.30752 0.0
C625 C 0.14408 0.09758 0.30519 0.0
C626 C 0.08299 0.14103 0.33199 0.0
C627 C 0.061 0.12912 0.30906 0.0
C628 C 0.09818 0.13108 0.33375 0.0
C629 C 0.09143 0.10899 0.31299 0.0
C630 C 0.06989 0.09761 0.28896 0.0
C631 C 0.05491 0.10756 0.28689 0.0
H632 H 0.86872 0.93846 0.25515 0.0
H633 H 0.88134 0.94013 0.39371 0.0
H634 H 0.88243 0.98166 0.25656 0.0
H635 H 0.89495 0.98322 0.39493 0.0
H636 H 0.95656 0.06063 0.35414 0.0
H637 H 0.93318 0.01693 0.3624 0.0
H638 H 0.87526 0.01492 0.28674 0.0
H639 H 0.89874 0.059 0.27858 0.0
C640 C 0.87396 0.94791 0.28601 0.0
C641 C 0.87433 0.93596 0.32418 0.0
C642 C 0.88165 0.97261 0.28685 0.0
C643 C 0.88997 0.98579 0.32579 0.0
C644 C 0.8889 0.97352 0.36438 0.0
C645 C 0.88106 0.94884 0.36363 0.0
C646 C 0.93868 0.05095 0.33984 0.0
C647 C 0.92954 0.0632 0.31548 0.0
C648 C 0.92522 0.02593 0.34483 0.0
C649 C 0.90242 0.01255 0.32515 0.0
C650 C 0.89284 0.02484 0.30207 0.0
C651 C 0.9062 0.05002 0.29763 0.0
H652 H 0.94416 0.91697 0.29164 0.0
H653 H 0.94409 0.85067 0.32026 0.0
H654 H 0.98817 0.93934 0.29575 0.0
H655 H 0.98829 0.87334 0.32496 0.0
H656 H 0.06611 0.93422 0.37592 0.0
H657 H 0.02198 0.90889 0.37367 0.0
H658 H 0.02113 0.93768 0.24704 0.0
H659 H 0.06504 0.96264 0.24872 0.0
C660 C 0.95349 0.9072 0.2993 0.0
C661 C 0.94063 0.88202 0.30545 0.0
C662 C 0.97868 0.92 0.30136 0.0
C663 C 0.99153 0.90798 0.3103 0.0
C664 C 0.97874 0.88297 0.31803 0.0
C665 C 0.9535 0.87005 0.31523 0.0
C666 C 0.05651 0.93488 0.34736 0.0
C667 C 0.06905 0.9505 0.31259 0.0
C668 C 0.03132 0.92039 0.3461 0.0
C669 C 0.01825 0.92161 0.31041 0.0
C670 C 0.03082 0.93666 0.27515 0.0
C671 C 0.05596 0.95081 0.27605 0.0
H672 H 0.11758 0.05498 0.60685 0.0
H673 H 0.13632 0.07043 0.74289 0.0
H674 H 0.10359 0.08416 0.60618 0.0
H675 H 0.1222 0.09956 0.74208 0.0
H676 H 0.10498 0.15991 0.71964 0.0
H677 H 0.12781 0.13876 0.71031 0.0
H678 H 0.06712 0.0811 0.64249 0.0
H679 H 0.04443 0.10202 0.65174 0.0
C680 C 0.11909 0.06487 0.63643 0.0
C681 C 0.12773 0.06013 0.67511 0.0
C682 C 0.11102 0.08154 0.63602 0.0
C683 C 0.11158 0.09392 0.67417 0.0
C684 C 0.12169 0.09037 0.71212 0.0
C685 C 0.12964 0.07358 0.71263 0.0
C686 C 0.09672 0.14291 0.70213 0.0
C687 C 0.07286 0.13253 0.6867 0.0
C688 C 0.10972 0.13078 0.697 0.0
C689 C 0.09923 0.1083 0.67571 0.0
C690 C 0.0758 0.09853 0.65861 0.0
C691 C 0.06273 0.11043 0.66421 0.0
H692 H 0.96461 0.06023 0.60809 0.0
H693 H 0.94059 0.06712 0.73613 0.0
H694 H 0.93584 0.01693 0.60908 0.0
H695 H 0.91189 0.02374 0.73703 0.0
H696 H 0.8512 0.94665 0.71126 0.0
H697 H 0.87481 0.9904 0.70058 0.0
H698 H 0.93471 0.9835 0.65329 0.0
H699 H 0.91126 0.93992 0.66374 0.0
C700 C 0.95298 0.05259 0.6362 0.0
C701 C 0.95504 0.06707 0.67221 0.0
C702 C 0.93659 0.02777 0.6368 0.0
C703 C 0.92178 0.01697 0.67325 0.0
C704 C 0.92296 0.03162 0.70836 0.0
C705 C 0.93949 0.05643 0.70792 0.0
C706 C 0.86931 0.95444 0.6981 0.0
C707 C 0.87942 0.93983 0.68859 0.0
C708 C 0.88282 0.97948 0.6922 0.0
C709 C 0.90657 0.99032 0.67617 0.0
C710 C 0.91635 0.97562 0.66526 0.0
C711 C 0.90297 0.95066 0.67155 0.0
H712 H 0.06026 0.90619 0.71901 0.0
H713 H 0.06338 0.97057 0.66694 0.0
H714 H 0.0164 0.8841 0.70955 0.0
H715 H 0.01965 0.94846 0.65755 0.0
H716 H 0.9437 0.8975 0.61264 0.0
H717 H 0.98729 0.91398 0.61428 0.0
H718 H 0.98187 0.88678 0.74491 0.0
H719 H 0.93815 0.87021 0.74345 0.0
C720 C 0.05165 0.91556 0.70515 0.0
C721 C 0.06529 0.94017 0.69388 0.0
C722 C 0.02654 0.90293 0.69995 0.0
C723 C 0.01466 0.91457 0.68283 0.0
C724 C 0.02837 0.93896 0.67041 0.0
C725 C 0.0534 0.95166 0.67606 0.0
C726 C 0.95171 0.89469 0.64152 0.0
C727 C 0.93749 0.88276 0.67811 0.0
C728 C 0.97669 0.90424 0.64247 0.0
C729 C 0.98795 0.90186 0.67985 0.0
C730 C 0.97362 0.88877 0.71558 0.0
C731 C 0.94862 0.87937 0.71478 0.0
H732 H 0.74456 0.47804 0.69656 0.0
H733 H 0.71588 0.44793 0.56978 0.0
H734 H 0.77028 0.45972 0.69416 0.0
H735 H 0.74129 0.42952 0.56792 0.0
H736 H 0.76042 0.37257 0.61493 0.0
H737 H 0.73891 0.39503 0.61766 0.0
H738 H 0.80564 0.46063 0.646 0.0
H739 H 0.8275 0.43822 0.64272 0.0
C740 C 0.74398 0.46783 0.66799 0.0
C741 C 0.72803 0.46426 0.63353 0.0
C742 C 0.75871 0.45741 0.66664 0.0
C743 C 0.75746 0.44301 0.63112 0.0
C744 C 0.74232 0.44031 0.59592 0.0
C745 C 0.72789 0.45098 0.59694 0.0
C746 C 0.77056 0.39173 0.62209 0.0
C747 C 0.7957 0.40362 0.62846 0.0
C748 C 0.75824 0.4046 0.62332 0.0
C749 C 0.77071 0.42955 0.63158 0.0
C750 C 0.79568 0.44138 0.63952 0.0
C751 C 0.80813 0.42856 0.63757 0.0
H752 H 0.63596 0.39556 0.61941 0.0
H753 H 0.5695 0.39626 0.64185 0.0
H754 H 0.61396 0.35165 0.62341 0.0
H755 H 0.5475 0.352 0.64618 0.0
H756 H 0.5289 0.2742 0.69997 0.0
H757 H 0.54698 0.31819 0.69565 0.0
H758 H 0.58159 0.31861 0.57475 0.0
H759 H 0.56356 0.27488 0.57863 0.0
C760 C 0.61668 0.38639 0.62553 0.0
C761 C 0.60448 0.39945 0.63016 0.0
C762 C 0.60408 0.36122 0.62751 0.0
C763 C 0.57903 0.34849 0.63464 0.0
C764 C 0.56683 0.36145 0.64063 0.0
C765 C 0.57942 0.38673 0.63807 0.0
C766 C 0.54009 0.28365 0.67217 0.0
C767 C 0.54499 0.27107 0.63989 0.0
C768 C 0.55036 0.30879 0.66969 0.0
C769 C 0.56589 0.32174 0.63518 0.0
C770 C 0.56995 0.30905 0.60204 0.0
C771 C 0.55951 0.28399 0.60422 0.0
H772 H 0.61228 0.17736 0.64862 0.0
H773 H 0.61337 0.24493 0.62872 0.0
H774 H 0.65664 0.19924 0.64882 0.0
H775 H 0.65728 0.26638 0.62844 0.0
H776 H 0.73163 0.29092 0.57295 0.0
H777 H 0.68789 0.26494 0.57402 0.0
H778 H 0.69259 0.23398 0.69591 0.0
H779 H 0.73661 0.26025 0.69534 0.0
C780 C 0.62192 0.19682 0.64462 0.0
C781 C 0.60927 0.20938 0.63849 0.0
C782 C 0.64724 0.20928 0.64478 0.0
C783 C 0.66026 0.23439 0.63806 0.0
C784 C 0.64763 0.24695 0.63303 0.0
C785 C 0.62246 0.23464 0.63351 0.0
C786 C 0.72347 0.27838 0.59976 0.0
C787 C 0.7376 0.27787 0.63436 0.0
C788 C 0.69841 0.26359 0.6004 0.0
C789 C 0.68694 0.24775 0.63532 0.0
C790 C 0.70106 0.24609 0.66865 0.0
C791 C 0.72621 0.26115 0.66832 0.0
H792 H 0.82792 0.43 0.06976 0.0
H793 H 0.77125 0.3759 0.98939 0.0
H794 H 0.80841 0.45465 0.06639 0.0
H795 H 0.75247 0.40072 0.98419 0.0
H796 H 0.70718 0.43138 0.03573 0.0
H797 H 0.72979 0.41031 0.03205 0.0
H798 H 0.79657 0.47865 0.02359 0.0
H799 H 0.77382 0.49994 0.02898 0.0
C800 C 0.8116 0.42367 0.05067 0.0
C801 C 0.80085 0.40094 0.03045 0.0
C802 C 0.80046 0.43777 0.04857 0.0
C803 C 0.7786 0.42945 0.02566 0.0
C804 C 0.76884 0.40736 0.00324 0.0
C805 C 0.77968 0.39318 0.006 0.0
C806 C 0.72667 0.44198 0.03278 0.0
C807 C 0.73867 0.46736 0.03262 0.0
C808 C 0.73968 0.42987 0.03038 0.0
C809 C 0.76505 0.44276 0.02718 0.0
C810 C 0.77709 0.46817 0.02646 0.0
C811 C 0.76403 0.48035 0.02925 0.0
H812 H 0.63092 0.39777 0.94896 0.0
H813 H 0.60802 0.406 0.07714 0.0
H814 H 0.60244 0.35446 0.95174 0.0
H815 H 0.57954 0.36253 0.07984 0.0
H816 H 0.5185 0.28471 0.05502 0.0
H817 H 0.54217 0.32852 0.04476 0.0
H818 H 0.60192 0.32162 0.9966 0.0
H819 H 0.57843 0.27802 0.00665 0.0
C820 C 0.61962 0.39041 0.97753 0.0
C821 C 0.6219 0.4053 0.01302 0.0
C822 C 0.60338 0.36558 0.97915 0.0
C823 C 0.58895 0.35511 0.01615 0.0
C824 C 0.59035 0.37013 0.05079 0.0
C825 C 0.60673 0.395 0.04931 0.0
C826 C 0.53661 0.29253 0.04183 0.0
C827 C 0.54662 0.27788 0.03178 0.0
C828 C 0.55017 0.31761 0.0362 0.0
C829 C 0.57386 0.32846 0.01987 0.0
C830 C 0.5836 0.31374 0.00877 0.0
C831 C 0.57018 0.28876 0.01481 0.0
H832 H 0.72747 0.2343 0.01742 0.0
H833 H 0.72423 0.29994 0.03264 0.0
H834 H 0.68308 0.21077 0.01584 0.0
H835 H 0.68033 0.27642 0.03186 0.0
H836 H 0.60697 0.22453 0.09095 0.0
H837 H 0.65068 0.24209 0.09022 0.0
H838 H 0.64664 0.21102 0.96369 0.0
H839 H 0.6026 0.19357 0.96372 0.0
C840 C 0.71736 0.2437 0.02011 0.0
C841 C 0.72938 0.26898 0.02531 0.0
C842 C 0.69205 0.23024 0.01915 0.0
C843 C 0.67849 0.24186 0.02422 0.0
C844 C 0.69048 0.26709 0.02835 0.0
C845 C 0.71562 0.28053 0.02857 0.0
C846 C 0.61523 0.22105 0.06317 0.0
C847 C 0.60132 0.20792 0.02708 0.0
C848 C 0.64026 0.23116 0.06281 0.0
C849 C 0.65187 0.22805 0.02673 0.0
C850 C 0.63797 0.2136 0.99186 0.0
C851 C 0.61284 0.2037 0.9919 0.0
H852 H 0.41111 0.8099 0.02998 0.0
H853 H 0.38503 0.78214 0.90086 0.0
H854 H 0.43733 0.79215 0.02771 0.0
H855 H 0.41093 0.76429 0.8991 0.0
H856 H 0.43008 0.707 0.94488 0.0
H857 H 0.40814 0.72905 0.94696 0.0
H858 H 0.47377 0.79445 0.98127 0.0
H859 H 0.49607 0.77246 0.97865 0.0
C860 C 0.41121 0.80033 0.00095 0.0
C861 C 0.39584 0.79725 0.96577 0.0
C862 C 0.42623 0.79024 -0.00033 0.0
C863 C 0.42585 0.77664 0.96347 0.0
C864 C 0.41129 0.77446 0.9276 0.0
C865 C 0.39657 0.7848 0.92858 0.0
C866 C 0.43988 0.72604 0.95315 0.0
C867 C 0.46484 0.738 0.9615 0.0
C868 C 0.42733 0.73867 0.95402 0.0
C869 C 0.43936 0.76345 0.96387 0.0
C870 C 0.46415 0.77534 0.97356 0.0
C871 C 0.47685 0.76276 0.97198 0.0
H872 H 0.23769 0.72863 0.9735 0.0
H873 H 0.30415 0.72815 0.94959 0.0
H874 H 0.21578 0.68433 0.97745 0.0
H875 H 0.2822 0.6842 0.95299 0.0
H876 H 0.23075 0.6083 0.90347 0.0
H877 H 0.2484 0.65203 0.90175 0.0
H878 H 0.21691 0.64997 0.02705 0.0
H879 H 0.19932 0.60595 0.02936 0.0
C880 C 0.24763 0.71913 0.96936 0.0
C881 C 0.27265 0.73191 0.96106 0.0
C882 C 0.23509 0.69385 0.97171 0.0
C883 C 0.24732 0.68099 0.96503 0.0
C884 C 0.27234 0.69375 0.9577 0.0
C885 C 0.28491 0.71893 0.95603 0.0
C886 C 0.22726 0.61703 0.93048 0.0
C887 C 0.21383 0.60366 0.9668 0.0
C888 C 0.23747 0.64208 0.92952 0.0
C889 C 0.23421 0.65428 0.9645 0.0
C890 C 0.21966 0.6409 -0.00028 0.0
C891 C 0.20967 0.61577 0.00102 0.0
H892 H 0.28252 0.51269 0.97184 0.0
H893 H 0.28466 0.58052 0.94866 0.0
H894 H 0.32683 0.53421 0.97473 0.0
H895 H 0.32859 0.60164 0.95103 0.0
H896 H 0.40404 0.62559 0.90211 0.0
H897 H 0.36031 0.59973 0.89975 0.0
H898 H 0.36169 0.56888 0.02392 0.0
H899 H 0.4057 0.59505 0.02683 0.0
C900 C 0.29239 0.53214 0.96761 0.0
C901 C 0.28007 0.54489 0.9599 0.0
C902 C 0.31768 0.54438 0.96932 0.0
C903 C 0.331 0.56947 0.96257 0.0
C904 C 0.31869 0.58223 0.95572 0.0
C905 C 0.29352 0.57012 0.95468 0.0
C906 C 0.39516 0.61309 0.92871 0.0
C907 C 0.40833 0.61261 0.96497 0.0
C908 C 0.37011 0.59837 0.92737 0.0
C909 C 0.35771 0.58263 0.96193 0.0
C910 C 0.37091 0.58093 0.99692 0.0
C911 C 0.39604 0.59592 -0.00144 0.0
H912 H 0.47755 0.74849 0.29302 0.0
H913 H 0.44695 0.71996 0.41961 0.0
H914 H 0.45929 0.7743 0.2948 0.0
H915 H 0.42859 0.74541 0.42081 0.0
H916 H 0.37178 0.76436 0.37197 0.0
H917 H 0.39429 0.74291 0.36976 0.0
H918 H 0.46007 0.80984 0.34349 0.0
H919 H 0.4376 0.83167 0.34632 0.0
C920 C 0.46724 0.74795 0.3214 0.0
C921 C 0.46352 0.73202 0.35599 0.0
C922 C 0.45686 0.76274 0.3224 0.0
C923 C 0.44234 0.76154 0.35769 0.0
C924 C 0.43949 0.74641 0.393 0.0
C925 C 0.45011 0.73193 0.39234 0.0
C926 C 0.391 0.77457 0.36541 0.0
C927 C 0.40291 0.79976 0.35948 0.0
C928 C 0.40389 0.76228 0.36444 0.0
C929 C 0.4289 0.77481 0.35688 0.0
C930 C 0.44078 0.79984 0.34943 0.0
C931 C 0.42793 0.81227 0.35113 0.0
H932 H 0.27273 0.73893 0.40608 0.0
H933 H 0.29018 0.73317 0.27225 0.0
H934 H 0.24363 0.69558 0.40705 0.0
H935 H 0.26112 0.68998 0.27338 0.0
H936 H 0.24045 0.61303 0.32306 0.0
H937 H 0.26293 0.65671 0.31394 0.0
H938 H 0.20451 0.66197 0.3734 0.0
H939 H 0.18175 0.61795 0.38249 0.0
C940 C 0.27009 0.72852 0.3767 0.0
C941 C 0.284 0.73943 0.33927 0.0
C942 C 0.25333 0.70373 0.3772 0.0
C943 C 0.25031 0.68941 0.34041 0.0
C944 C 0.26333 0.70056 0.30236 0.0
C945 C 0.27992 0.72531 0.30174 0.0
C946 C 0.23224 0.62343 0.33382 0.0
C947 C 0.20937 0.61205 0.35368 0.0
C948 C 0.24507 0.64844 0.32831 0.0
C949 C 0.23545 0.66272 0.34294 0.0
C950 C 0.21236 0.65137 0.36201 0.0
C951 C 0.19932 0.62621 0.36699 0.0
H952 H 0.39481 0.63982 0.3717 0.0
H953 H 0.39567 0.57325 0.35146 0.0
H954 H 0.35089 0.61768 0.36757 0.0
H955 H 0.35143 0.55114 0.34684 0.0
H956 H 0.27315 0.53301 0.29336 0.0
H957 H 0.31722 0.55121 0.29616 0.0
H958 H 0.3186 0.58457 0.41907 0.0
H959 H 0.27485 0.56634 0.41686 0.0
C960 C 0.38568 0.62051 0.36593 0.0
C961 C 0.39875 0.60828 0.36214 0.0
C962 C 0.36052 0.60784 0.36383 0.0
C963 C 0.34788 0.58273 0.35734 0.0
C964 C 0.36085 0.57052 0.3519 0.0
C965 C 0.3861 0.58317 0.35465 0.0
C966 C 0.28284 0.54393 0.32127 0.0
C967 C 0.27053 0.54841 0.35467 0.0
C968 C 0.30799 0.55427 0.32285 0.0
C969 C 0.32119 0.56949 0.35753 0.0
C970 C 0.3088 0.57315 0.39171 0.0
C971 C 0.28374 0.56259 0.39047 0.0
H972 H 0.3817 0.15576 0.07829 0.0
H973 H 0.40894 0.20657 0.18487 0.0
H974 H 0.34233 0.13399 0.11413 0.0
H975 H 0.37001 0.18464 0.22124 0.0
H976 H 0.29037 0.15864 0.24547 0.0
H977 H 0.33044 0.17842 0.21315 0.0
H978 H 0.32041 0.10886 0.17495 0.0
H979 H 0.27972 0.08922 0.20505 0.0
C980 C 0.37936 0.16201 0.10969 0.0
C981 C 0.39832 0.1828 0.12885 0.0
C982 C 0.35685 0.14954 0.13032 0.0
C983 C 0.35296 0.15759 0.17058 0.0
C984 C 0.37219 0.17818 0.18992 0.0
C985 C 0.39452 0.19073 0.16913 0.0
C986 C 0.29682 0.14755 0.23056 0.0
C987 C 0.28203 0.12231 0.22878 0.0
C988 C 0.31988 0.15887 0.21224 0.0
C989 C 0.32876 0.14523 0.19164 0.0
C990 C 0.31409 0.11992 0.19036 0.0
C991 C 0.29091 0.10859 0.20853 0.0
H992 H 0.8617 0.257 0.13381 0.0
H993 H 0.8058 0.18723 0.08829 0.0
H994 H 0.88358 0.23826 0.16461 0.0
H995 H 0.82704 0.16838 0.12052 0.0
H996 H 0.89618 0.18888 0.26094 0.0
H997 H 0.87887 0.211 0.22516 0.0
H998 H 0.86305 0.16569 0.11144 0.0
H999 H 0.87994 0.14356 0.14725 0.0
C1000 C 0.85437 0.23778 0.12944 0.0
C1001 C 0.83233 0.22364 0.10765 0.0
C1002 C 0.86668 0.22698 0.14783 0.0
C1003 C 0.85711 0.20186 0.14486 0.0
C1004 C 0.83515 0.18783 0.12273 0.0
C1005 C 0.8229 0.1986 0.10445 0.0
C1006 C 0.88933 0.18396 0.22808 0.0
C1007 C 0.88935 0.1645 0.2069 0.0
C1008 C 0.87944 0.19661 0.20757 0.0
C1009 C 0.86945 0.18998 0.16556 0.0
C1010 C 0.87017 0.17095 0.1441 0.0
C1011 C 0.87987 0.15829 0.16461 0.0
H1012 H 0.82302 0.62773 0.09177 0.0
H1013 H 0.75333 0.61238 0.14071 0.0
H1014 H 0.84176 0.66723 0.12698 0.0
H1015 H 0.77203 0.65218 0.17453 0.0
H1016 H 0.81613 0.73689 0.1875 0.0
H1017 H 0.79537 0.69738 0.15264 0.0
H1018 H 0.84774 0.68069 0.20627 0.0
H1019 H 0.86811 0.71993 0.24256 0.0
C1020 C 0.81163 0.63291 0.10942 0.0
C1021 C 0.78659 0.61705 0.11257 0.0
C1022 C 0.82239 0.65546 0.1297 0.0
C1023 C 0.80832 0.66267 0.15348 0.0
C1024 C 0.78322 0.64713 0.15587 0.0
C1025 C 0.77247 0.62442 0.13596 0.0
C1026 C 0.82276 0.72456 0.1933 0.0
C1027 C 0.84342 0.73134 0.21891 0.0
C1028 C 0.811 0.70201 0.17279 0.0
C1029 C 0.81999 0.68607 0.17674 0.0
C1030 C 0.84058 0.69278 0.20239 0.0
C1031 C 0.85215 0.71517 0.22327 0.0
H1032 H 0.08727 0.27833 0.79757 0.0
H1033 H 0.15667 0.28439 0.77359 0.0
H1034 H 0.1074 0.31938 0.82673 0.0
H1035 H 0.17677 0.32495 0.80432 0.0
H1036 H 0.15304 0.3808 0.92547 0.0
H1037 H 0.13104 0.34095 0.89128 0.0
H1038 H 0.18462 0.36527 0.78904 0.0
H1039 H 0.20655 0.40481 0.82325 0.0
C1040 C 0.10681 0.28861 0.79756 0.0
C1041 C 0.12044 0.2784 0.78222 0.0
C1042 C 0.11834 0.31196 0.81506 0.0
C1043 C 0.14368 0.32545 0.81772 0.0
C1044 C 0.15724 0.31522 0.80208 0.0
C1045 C 0.14574 0.29194 0.78466 0.0
C1046 C 0.15987 0.3777 0.89537 0.0
C1047 C 0.18143 0.39594 0.87692 0.0
C1048 C 0.1473 0.35489 0.87578 0.0
C1049 C 0.15612 0.34994 0.83747 0.0
C1050 C 0.17753 0.36836 0.81888 0.0
C1051 C 0.19008 0.39102 0.83848 0.0
H1052 H 0.62783 0.82689 0.91232 0.0
H1053 H 0.61176 0.75696 0.86358 0.0
H1054 H 0.6673 0.84534 0.87685 0.0
H1055 H 0.65125 0.77531 0.82878 0.0
H1056 H 0.73457 0.81658 0.81001 0.0
H1057 H 0.69541 0.79667 0.8462 0.0
H1058 H 0.68176 0.85266 0.80047 0.0
H1059 H 0.72084 0.87241 0.76362 0.0
C1060 C 0.6329 0.81542 0.89464 0.0
C1061 C 0.61694 0.79041 0.89166 0.0
C1062 C 0.65538 0.82598 0.8741 0.0
C1063 C 0.66229 0.81174 0.84998 0.0
C1064 C 0.64654 0.78666 0.84771 0.0
C1065 C 0.624 0.77611 0.86811 0.0
C1066 C 0.72292 0.82422 0.80639 0.0
C1067 C 0.7305 0.84573 0.78295 0.0
C1068 C 0.70059 0.81295 0.82759 0.0
C1069 C 0.68559 0.82316 0.82626 0.0
C1070 C 0.69309 0.84455 0.80252 0.0
C1071 C 0.71535 0.85575 0.78118 0.0
H1072 H 0.18309 0.803 0.90645 0.0
H1073 H 0.25216 0.86047 0.86149 0.0
H1074 H 0.16335 0.82365 0.87518 0.0
H1075 H 0.23265 0.88184 0.83236 0.0
H1076 H 0.18494 0.89677 0.73926 0.0
H1077 H 0.20631 0.87821 0.77305 0.0
H1078 H 0.15868 0.85815 0.88435 0.0
H1079 H 0.13718 0.87623 0.85018 0.0
C1080 C 0.19412 0.82031 0.89071 0.0
C1081 C 0.21924 0.83037 0.88746 0.0
C1082 C 0.18284 0.83224 0.87299 0.0
C1083 C 0.19644 0.8545 0.85149 0.0
C1084 C 0.22164 0.86467 0.84854 0.0
C1085 C 0.23291 0.85265 0.86612 0.0
C1086 C 0.17929 0.88865 0.77114 0.0
C1087 C 0.15951 0.88802 0.7922 0.0
C1088 C 0.19152 0.87803 0.79056 0.0
C1089 C 0.1842 0.86667 0.83144 0.0
C1090 C 0.16455 0.86637 0.85256 0.0
C1091 C 0.15226 0.87678 0.83303 0.0
H1092 H 0.95858 0.48862 0.57233 0.0
H1093 H 0.93878 0.42039 0.51063 0.0
H1094 H 0.99736 0.50727 0.53471 0.0
H1095 H 0.97783 0.43894 0.474 0.0
H1096 H 0.06263 0.48014 0.45766 0.0
H1097 H 0.0229 0.45878 0.49182 0.0
H1098 H 0.01038 0.51702 0.4566 0.0
H1099 H 0.04988 0.53816 0.42143 0.0
C1100 C 0.96262 0.47751 0.55123 0.0
C1101 C 0.94575 0.45288 0.54529 0.0
C1102 C 0.98475 0.48822 0.52953 0.0
C1103 C 0.99053 0.47455 0.50133 0.0
C1104 C 0.97393 0.44981 0.49598 0.0
C1105 C 0.95164 0.43912 0.51746 0.0
C1106 C 0.0511 0.48799 0.45566 0.0
C1107 C 0.05921 0.51063 0.43592 0.0
C1108 C 0.02843 0.47585 0.47573 0.0
C1109 C 0.01367 0.48632 0.47709 0.0
C1110 C 0.02154 0.50868 0.45652 0.0
C1111 C 0.04407 0.52069 0.43619 0.0
H1112 H 0.47401 0.52197 0.42341 0.0
H1113 H 0.52557 0.59127 0.47805 0.0
H1114 H 0.49404 0.5033 0.46129 0.0
H1115 H 0.54595 0.57267 0.51482 0.0
H1116 H 0.58766 0.52972 0.53154 0.0
H1117 H 0.56945 0.55097 0.49658 0.0
H1118 H 0.49899 0.49563 0.54018 0.0
H1119 H 0.51725 0.47464 0.57629 0.0
C1120 C 0.48982 0.53329 0.44296 0.0
C1121 C 0.49848 0.55821 0.44685 0.0
C1122 C 0.50118 0.52258 0.46482 0.0
C1123 C 0.52148 0.53655 0.49107 0.0
C1124 C 0.5305 0.56155 0.49434 0.0
C1125 C 0.51898 0.57226 0.47275 0.0
C1126 C 0.56844 0.52253 0.53522 0.0
C1127 C 0.55396 0.50076 0.55768 0.0
C1128 C 0.55798 0.53459 0.51467 0.0
C1129 C 0.53283 0.52487 0.51551 0.0
C1130 C 0.51842 0.50337 0.53861 0.0
C1131 C 0.52887 0.49145 0.55945 0.0
H1132 H 0.47266 0.97025 0.39498 0.0
H1133 H 0.42217 0.93342 0.49928 0.0
H1134 H 0.48875 0.00855 0.43483 0.0
H1135 H 0.43843 0.97157 0.53939 0.0
H1136 H 0.50481 0.03807 0.6119 0.0
H1137 H 0.48289 -0.00026 0.57206 0.0
H1138 H 0.47216 0.03697 0.46474 0.0
H1139 H 0.49375 0.07514 0.50477 0.0
C1140 C 0.46482 0.97051 0.4261 0.0
C1141 C 0.44594 0.94915 0.44381 0.0
C1142 C 0.47393 0.99231 0.44878 0.0
C1143 C 0.4647 0.99289 0.48999 0.0
C1144 C 0.44573 0.97152 0.50758 0.0
C1145 C 0.4363 0.94983 0.48449 0.0
C1146 C 0.49731 0.03787 0.58016 0.0
C1147 C 0.50047 0.05932 0.56164 0.0
C1148 C 0.48479 0.01604 0.55749 0.0
C1149 C 0.47584 0.01552 0.5155 0.0
C1150 C 0.47885 0.03697 0.49715 0.0
C1151 C 0.49093 0.05869 0.52019 0.0
H1152 H 0.15545 0.97628 0.39053 0.0
H1153 H 0.21848 0.04753 0.40009 0.0
H1154 H 0.16079 0.96824 0.46552 0.0
H1155 H 0.2242 0.03919 0.47539 0.0
H1156 H 0.16967 0.95598 0.60172 0.0
H1157 H 0.18211 0.96278 0.52536 0.0
H1158 H 0.20031 0.03742 0.53747 0.0
H1159 H 0.18848 0.0308 0.61334 0.0
C1160 C 0.17089 0.99001 0.40826 0.0
C1161 C 0.18616 0.0128 0.38963 0.0
C1162 C 0.17412 0.98528 0.45132 0.0
C1163 C 0.19271 0.00322 0.47682 0.0
C1164 C 0.20943 0.02515 0.45685 0.0
C1165 C 0.2062 0.0299 0.41363 0.0
C1166 C 0.1771 0.97402 0.58839 0.0
C1167 C 0.17758 0.99272 0.61329 0.0
C1168 C 0.18409 0.97788 0.54457 0.0
C1169 C 0.19179 0.00052 0.52501 0.0
C1170 C 0.1946 0.01977 0.5513 0.0
C1171 C 0.18757 0.01591 0.59489 0.0
H1172 H 0.0495 0.2174 0.60046 0.0
H1173 H 0.97641 0.15762 0.6116 0.0
H1174 H 0.0417 0.22326 0.52482 0.0
H1175 H 0.96878 0.16321 0.5364 0.0
H1176 H 0.95709 0.1728 0.40037 0.0
H1177 H 0.96534 0.18618 0.47611 0.0
H1178 H 0.03743 0.19699 0.46368 0.0
H1179 H 0.02938 0.18408 0.38833 0.0
C1180 C 0.03158 0.20597 0.58723 0.0
C1181 C 0.01374 0.1867 0.61171 0.0
C1182 C 0.02715 0.20927 0.54383 0.0
C1183 C 0.00475 0.19347 0.52433 0.0
C1184 C 0.9862 0.17582 0.5503 0.0
C1185 C 0.99066 0.17245 0.59345 0.0
C1186 C 0.97496 0.17881 0.41341 0.0
C1187 C 0.9924 0.17685 0.38866 0.0
C1188 C 0.97964 0.18636 0.45688 0.0
C1189 C 0.00189 0.19224 0.47619 0.0
C1190 C 0.02013 0.1927 0.44994 0.0
C1191 C 0.01543 0.18506 0.40671 0.0
H1192 H 0.84687 0.81748 0.61073 0.0
H1193 H 0.78785 0.83214 0.60438 0.0
H1194 H 0.84051 0.80525 0.53514 0.0
H1195 H 0.78103 0.81919 0.52841 0.0
H1196 H 0.83241 0.78906 0.3976 0.0
H1197 H 0.81858 0.78137 0.47307 0.0
H1198 H 0.80638 0.84205 0.46836 0.0
H1199 H 0.81949 0.84929 0.39327 0.0
C1200 C 0.83201 0.81736 0.59357 0.0
C1201 C 0.81836 0.82651 0.61319 0.0
C1202 C 0.82817 0.81007 0.55015 0.0
C1203 C 0.81056 0.81171 0.52536 0.0
C1204 C 0.79508 0.81821 0.54642 0.0
C1205 C 0.79894 0.82555 0.59 0.0
C1206 C 0.82607 0.80028 0.41233 0.0
C1207 C 0.82768 0.8202 0.38983 0.0
C1208 C 0.81821 0.79591 0.45561 0.0
C1209 C 0.81181 0.81137 0.47708 0.0
C1210 C 0.81104 0.82968 0.45299 0.0
C1211 C 0.81887 0.83403 0.40988 0.0
H1212 H 0.83703 0.29139 0.92686 0.0
H1213 H 0.85039 0.36454 0.93733 0.0
H1214 H 0.85063 0.29903 0.85117 0.0
H1215 H 0.86336 0.37194 0.8621 0.0
H1216 H 0.8233 0.31015 0.71495 0.0
H1217 H 0.82873 0.30266 0.79021 0.0
H1218 H 0.889 0.37553 0.80145 0.0
H1219 H 0.88315 0.38327 0.72583 0.0
C1220 C 0.84346 0.30927 0.91342 0.0
C1221 C 0.84205 0.32717 0.93769 0.0
C1222 C 0.85116 0.31361 0.87003 0.0
C1223 C 0.85767 0.33595 0.8503 0.0
C1224 C 0.8586 0.35456 0.87611 0.0
C1225 C 0.85087 0.35022 0.91928 0.0
C1226 C 0.83809 0.32445 0.73307 0.0
C1227 C 0.85235 0.34753 0.71476 0.0
C1228 C 0.84139 0.32005 0.77626 0.0
C1229 C 0.85905 0.33863 0.80216 0.0
C1230 C 0.87494 0.36098 0.78253 0.0
C1231 C 0.87164 0.36539 0.73916 0.0
H1232 H 0.64538 0.49505 0.94207 0.0
H1233 H 0.71942 0.5528 0.92956 0.0
H1234 H 0.63803 0.50015 0.86658 0.0
H1235 H 0.71185 0.55831 0.85356 0.0
H1236 H 0.62659 0.50851 0.73013 0.0
H1237 H 0.6352 0.52244 0.80549 0.0
H1238 H 0.7067 0.53163 0.79339 0.0
H1239 H 0.69839 0.51837 0.71836 0.0
C1240 C 0.65994 0.50933 0.92348 0.0
C1241 C 0.68316 0.5231 0.94146 0.0
C1242 C 0.65563 0.51245 0.88017 0.0
C1243 C 0.67446 0.52941 0.85377 0.0
C1244 C 0.69709 0.54481 0.87292 0.0
C1245 C 0.70139 0.54173 0.91648 0.0
C1246 C 0.64437 0.51416 0.74323 0.0
C1247 C 0.66158 0.51172 0.71862 0.0
C1248 C 0.64928 0.52208 0.78643 0.0
C1249 C 0.67147 0.52774 0.80571 0.0
C1250 C 0.68945 0.52756 0.77966 0.0
C1251 C 0.68457 0.51965 0.73662 0.0
H1252 H 0.49116 0.18762 0.72932 0.0
H1253 H 0.49896 0.12434 0.73839 0.0
H1254 H 0.4778 0.1822 0.8043 0.0
H1255 H 0.48487 0.11851 0.81367 0.0
H1256 H 0.45671 0.17345 0.93997 0.0
H1257 H 0.45084 0.16077 0.86379 0.0
H1258 H 0.50697 0.14219 0.87589 0.0
H1259 H 0.51236 0.15418 0.95165 0.0
C1260 C 0.4894 0.17213 0.74697 0.0
C1261 C 0.49678 0.1568 0.72821 0.0
C1262 C 0.48143 0.16884 0.79 0.0
C1263 C 0.4806 0.15011 0.81531 0.0
C1264 C 0.48573 0.13338 0.79525 0.0
C1265 C 0.49374 0.13668 0.75206 0.0
C1266 C 0.46721 0.1659 0.9267 0.0
C1267 C 0.48543 0.1654 0.9515 0.0
C1268 C 0.46394 0.15875 0.88299 0.0
C1269 C 0.47877 0.15093 0.86346 0.0
C1270 C 0.49514 0.14802 0.88971 0.0
C1271 C 0.49842 0.15516 0.93322 0.0
H1272 H 0.50555 0.62739 0.2658 0.0
H1273 H 0.52004 0.70096 0.27584 0.0
H1274 H 0.51897 0.63467 0.19006 0.0
H1275 H 0.53285 0.708 0.20049 0.0
H1276 H 0.55279 0.71853 0.06403 0.0
H1277 H 0.55837 0.71084 0.13979 0.0
H1278 H 0.49689 0.63864 0.12942 0.0
H1279 H 0.49166 0.64606 0.054 0.0
C1280 C 0.51217 0.64527 0.25226 0.0
C1281 C 0.51114 0.66341 0.27644 0.0
C1282 C 0.51978 0.64941 0.20884 0.0
C1283 C 0.52655 0.67176 0.18899 0.0
C1284 C 0.52787 0.6906 0.21465 0.0
C1285 C 0.52025 0.68646 0.25788 0.0
C1286 C 0.5409 0.7008 0.07761 0.0
C1287 C 0.52137 0.68312 0.05337 0.0
C1288 C 0.54407 0.69642 0.12103 0.0
C1289 C 0.52783 0.67429 0.14088 0.0
C1290 C 0.50983 0.65585 0.11524 0.0
C1291 C 0.50665 0.66022 0.07197 0.0
H1292 H 0.29291 0.84137 0.05672 0.0
H1293 H 0.36498 0.85164 0.04829 0.0
H1294 H 0.30067 0.85555 0.13197 0.0
H1295 H 0.37246 0.86519 0.12321 0.0
H1296 H 0.30974 0.82788 0.26941 0.0
H1297 H 0.303 0.83323 0.1937 0.0
H1298 H 0.3767 0.89191 0.18288 0.0
H1299 H 0.38366 0.88618 0.25905 0.0
C1300 C 0.31058 0.84718 0.07051 0.0
C1301 C 0.3281 0.84475 0.04692 0.0
C1302 C 0.315 0.85526 0.11365 0.0
C1303 C 0.33701 0.86109 0.13386 0.0
C1304 C 0.35534 0.86097 0.10874 0.0
C1305 C 0.35093 0.85291 0.06577 0.0
C1306 C 0.32438 0.84234 0.25127 0.0
C1307 C 0.34742 0.85617 0.26989 0.0
C1308 C 0.32043 0.8456 0.20783 0.0
C1309 C 0.33944 0.86275 0.18198 0.0
C1310 C 0.36182 0.87826 0.20182 0.0
C1311 C 0.36577 0.87504 0.24548 0.0
H1312 H 0.12515 0.50499 0.25901 0.0
H1313 H 0.1847 0.49164 0.27398 0.0
H1314 H 0.12068 0.49186 0.18319 0.0
H1315 H 0.18064 0.47917 0.19855 0.0
H1316 H 0.17308 0.45852 0.06163 0.0
H1317 H 0.15955 0.45351 0.13729 0.0
H1318 H 0.14694 0.5136 0.12301 0.0
H1319 H 0.15981 0.51821 0.04776 0.0
C1320 C 0.13688 0.49869 0.24652 0.0
C1321 C 0.15565 0.49991 0.27222 0.0
C1322 C 0.1344 0.49128 0.20301 0.0
C1323 C 0.15058 0.48488 0.18451 0.0
C1324 C 0.16777 0.48384 0.21158 0.0
C1325 C 0.17026 0.49126 0.2549 0.0
C1326 C 0.16673 0.47018 0.07434 0.0
C1327 C 0.16804 0.48911 0.04897 0.0
C1328 C 0.15909 0.46738 0.11775 0.0
C1329 C 0.15253 0.48339 0.13648 0.0
C1330 C 0.15171 0.50083 0.10976 0.0
C1331 C 0.15936 0.50365 0.06657 0.0
H1332 H 0.15849 0.98029 0.1188 0.0
H1333 H 0.16897 0.05193 0.1017 0.0
H1334 H 0.15544 0.97439 0.03979 0.0
H1335 H 0.1662 0.04625 0.02268 0.0
H1336 H 0.18595 0.03461 0.88269 0.0
H1337 H 0.18931 0.04121 0.96164 0.0
H1338 H 0.12691 0.97036 0.98068 0.0
H1339 H 0.12353 0.96399 0.90194 0.0
C1340 C 0.16014 0.99473 0.09799 0.0
C1341 C 0.1641 0.01657 0.11602 0.0
C1342 C 0.15835 0.99138 0.05292 0.0
C1343 C 0.16062 0.00989 0.0251 0.0
C1344 C 0.1647 0.0318 0.04328 0.0
C1345 C 0.16629 0.03506 0.08838 0.0
C1346 C 0.17296 0.02058 0.90394 0.0
C1347 C 0.15467 -0.00128 0.88658 0.0
C1348 C 0.17482 0.02433 0.94896 0.0
C1349 C 0.15847 0.00621 0.9773 0.0
C1350 C 0.14001 0.98446 0.9597 0.0
C1351 C 0.13806 0.98082 0.91475 0.0
H1352 H 0.95461 0.1299 0.09995 0.0
H1353 H 0.03148 0.16458 0.12066 0.0
H1354 H 0.96068 0.13437 0.02309 0.0
H1355 H 0.03798 0.16557 0.04372 0.0
H1356 H 0.04945 0.17714 0.90096 0.0
H1357 H 0.04339 0.17551 0.97779 0.0
H1358 H 0.96601 0.13001 0.95708 0.0
H1359 H 0.97252 0.13561 0.88021 0.0
C1360 C 0.97297 0.13849 0.08781 0.0
C1361 C 0.99257 0.14735 0.11657 0.0
C1362 C 0.97662 0.14056 0.04286 0.0
C1363 C 4e-05 0.15044 0.0248 0.0
C1364 C 0.01958 0.15845 0.05436 0.0
C1365 C 0.01592 0.15742 0.09934 0.0
C1366 C 0.03108 0.16754 0.91304 0.0
C1367 C 0.01147 0.15695 0.88424 0.0
C1368 C 0.02743 0.16591 0.95799 0.0
C1369 C 0.00399 0.15248 0.97603 0.0
C1370 C 0.98443 0.14117 0.94647 0.0
C1371 C 0.9881 0.14386 0.90149 0.0
H1372 H 0.84864 0.88746 0.89748 0.0
H1373 H 0.84426 0.81816 0.88494 0.0
H1374 H 0.85041 0.885 0.97664 0.0
H1375 H 0.84667 0.81578 0.96429 0.0
H1376 H 0.82319 0.80819 0.10772 0.0
H1377 H 0.82168 0.8107 0.02839 0.0
H1378 H 0.87727 0.886 0.03376 0.0
H1379 H 0.87858 0.88338 0.1129 0.0
C1380 C 0.84816 0.87175 0.91191 0.0
C1381 C 0.8461 0.85288 0.88559 0.0
C1382 C 0.84935 0.87039 0.95708 0.0
C1383 C 0.84859 0.85015 0.97673 0.0
C1384 C 0.84693 0.83144 0.95013 0.0
C1385 C 0.84575 0.83284 0.90487 0.0
C1386 C 0.83497 0.82524 0.09174 0.0
C1387 C 0.85077 0.84566 0.11619 0.0
C1388 C 0.83425 0.82667 0.04644 0.0
C1389 C 0.84937 0.84856 0.02482 0.0
C1390 C 0.86514 0.86899 0.04949 0.0
C1391 C 0.86585 0.86753 0.09475 0.0
H1392 H 0.78754 0.29807 0.22592 0.0
H1393 H 0.85335 0.36599 0.20693 0.0
H1394 H 0.79111 0.30445 0.30469 0.0
H1395 H 0.85695 0.37268 0.28593 0.0
H1396 H 0.8677 0.35939 0.43112 0.0
H1397 H 0.86464 0.35426 0.35191 0.0
H1398 H 0.78886 0.33228 0.35855 0.0
H1399 H 0.79206 0.33773 0.43737 0.0
C1400 C 0.80278 0.31435 0.23885 0.0
C1401 C 0.82035 0.33144 0.21087 0.0
C1402 C 0.80475 0.3181 0.28374 0.0
C1403 C 0.82435 0.33903 0.30141 0.0
C1404 C 0.84182 0.35626 0.2732 0.0
C1405 C 0.83973 0.35254 0.22819 0.0
C1406 C 0.85045 0.35353 0.41545 0.0
C1407 C 0.83004 0.34859 0.44023 0.0
C1408 C 0.84871 0.35068 0.37025 0.0
C1409 C 0.82647 0.34275 0.34915 0.0
C1410 C 0.80612 0.33802 0.37403 0.0
C1411 C 0.80792 0.34102 0.41911 0.0
H1412 H 0.66837 0.4637 0.22065 0.0
H1413 H 0.68541 0.53813 0.2215 0.0
H1414 H 0.6613 0.46118 0.29899 0.0
H1415 H 0.67842 0.53575 0.30023 0.0
H1416 H 0.69102 0.52794 0.44677 0.0
H1417 H 0.69705 0.53129 0.36769 0.0
H1418 H 0.63258 0.4616 0.3515 0.0
H1419 H 0.62702 0.45821 0.43047 0.0
C1420 C 0.67024 0.4794 0.23762 0.0
C1421 C 0.67714 0.50103 0.21519 0.0
C1422 C 0.66624 0.478 0.28243 0.0
C1423 C 0.66921 0.49824 0.30572 0.0
C1424 C 0.6762 0.51993 0.28319 0.0
C1425 C 0.68011 0.52128 0.23827 0.0
C1426 C 0.67818 0.51348 0.42604 0.0
C1427 C 0.65851 0.49293 0.4442 0.0
C1428 C 0.6815 0.51541 0.38094 0.0
C1429 C 0.66526 0.49671 0.35343 0.0
C1430 C 0.64551 0.47619 0.37188 0.0
C1431 C 0.64219 0.47432 0.4169 0.0
H1432 H 0.51409 0.22051 0.23966 0.0
H1433 H 0.50839 0.15105 0.21954 0.0
H1434 H 0.51694 0.21641 0.31816 0.0
H1435 H 0.51191 0.14704 0.29822 0.0
H1436 H 0.49167 0.13832 0.44459 0.0
H1437 H 0.48891 0.14136 0.36555 0.0
H1438 H 0.54526 0.21637 0.37086 0.0
H1439 H 0.54783 0.21323 0.44955 0.0
C1440 C 0.51344 0.20435 0.25229 0.0
C1441 C 0.51081 0.18597 0.22404 0.0
C1442 C 0.51528 0.20208 0.29706 0.0
C1443 C 0.51468 0.18141 0.31439 0.0
C1444 C 0.51215 0.16304 0.28589 0.0
C1445 C 0.51029 0.16535 0.24101 0.0
C1446 C 0.50345 0.15538 0.42862 0.0
C1447 C 0.51963 0.17566 0.45299 0.0
C1448 C 0.50197 0.15712 0.38349 0.0
C1449 C 0.51673 0.17917 0.36203 0.0
C1450 C 0.53328 0.19928 0.38654 0.0
C1451 C 0.53473 0.19752 0.43156 0.0
H1452 H 0.50229 0.71617 0.76513 0.0
H1453 H 0.50775 0.65198 0.78035 0.0
H1454 H 0.49946 0.71056 0.68623 0.0
H1455 H 0.5042 0.64578 0.70135 0.0
H1456 H 0.52077 0.65655 0.55461 0.0
H1457 H 0.52611 0.66344 0.63327 0.0
H1458 H 0.47008 0.68254 0.63429 0.0
H1459 H 0.46495 0.67574 0.55594 0.0
C1460 C 0.50303 0.70095 0.75133 0.0
C1461 C 0.50545 0.6846 0.77832 0.0
C1462 C 0.50118 0.69758 0.70634 0.0
C1463 C 0.50155 0.67769 0.68759 0.0
C1464 C 0.50416 0.66143 0.71479 0.0
C1465 C 0.50604 0.66485 0.75985 0.0
C1466 C 0.50968 0.66225 0.57187 0.0
C1467 C 0.49268 0.66592 0.54943 0.0
C1468 C 0.51265 0.6661 0.61677 0.0
C1469 C 0.49861 0.67366 0.63992 0.0
C1470 C 0.48151 0.67719 0.61726 0.0
C1471 C 0.47856 0.67333 0.57246 0.0
H1472 H 0.29425 0.7902 0.75958 0.0
H1473 H 0.35992 0.85855 0.77595 0.0
H1474 H 0.29963 0.79361 0.68062 0.0
H1475 H 0.36584 0.86184 0.69688 0.0
H1476 H 0.35399 0.87041 0.55177 0.0
H1477 H 0.34782 0.86776 0.63065 0.0
H1478 H 0.32687 0.79211 0.62654 0.0
H1479 H 0.33305 0.79489 0.54792 0.0
C1480 C 0.30979 0.80599 0.74603 0.0
C1481 C 0.3266 0.82424 0.77336 0.0
C1482 C 0.31301 0.80786 0.701 0.0
C1483 C 0.33317 0.82799 0.68255 0.0
C1484 C 0.34997 0.84627 0.71011 0.0
C1485 C 0.34672 0.84436 0.75521 0.0
C1486 C 0.34804 0.85327 0.56792 0.0
C1487 C 0.34367 0.83278 0.54394 0.0
C1488 C 0.3446 0.85175 0.61296 0.0
C1489 C 0.33677 0.8297 0.63475 0.0
C1490 C 0.33248 0.80924 0.61058 0.0
C1491 C 0.33595 0.81079 0.5656 0.0
H1492 H 0.18065 0.48921 0.54021 0.0
H1493 H 0.17007 0.54983 0.56401 0.0
H1494 H 0.18363 0.48449 0.61875 0.0
H1495 H 0.17259 0.54491 0.6425 0.0
H1496 H 0.15401 0.51148 0.78036 0.0
H1497 H 0.14926 0.51452 0.7018 0.0
H1498 H 0.21304 0.5091 0.67841 0.0
H1499 H 0.21792 0.50651 0.75688 0.0
C1500 C 0.17887 0.50142 0.56238 0.0
C1501 C 0.17499 0.51976 0.54636 0.0
C1502 C 0.18061 0.49877 0.60716 0.0
C1503 C 0.17827 0.5143 0.63665 0.0
C1504 C 0.17412 0.53249 0.62052 0.0
C1505 C 0.17265 0.53529 0.57574 0.0
C1506 C 0.16692 0.51092 0.75824 0.0
C1507 C 0.18615 0.50852 0.77432 0.0
C1508 C 0.16427 0.5127 0.71347 0.0
C1509 C 0.18073 0.51193 0.68407 0.0
C1510 C 0.19989 0.50937 0.70029 0.0
C1511 C 0.20267 0.50786 0.74506 0.0
loop_
_geom_bond_atom_site_label_1
_geom_bond_atom_site_label_2
_geom_bond_distance
_geom_bond_site_symmetry_2
_ccdc_geom_bond_type
Co0 O3 1.970 . S
Co0 N17 1.989 . S
Co0 O25 1.967 1_565 S
Co0 O32 1.920 . S
Co1 O4 1.966 . S
Co1 N10 2.022 . S
Co1 N18 1.993 . S
Co1 O26 1.941 . S
C2 O3 1.258 1_545 S
C2 O4 1.263 . S
O3 Co0 1.970 . S
O3 C2 1.258 1_565 S
O4 Co1 1.966 . S
O4 C2 1.263 . S
C5 O6 1.235 . S
C5 O32 1.289 . S
O6 C5 1.235 . S
C7 C9 1.400 . S
C7 N10 1.351 . S
C7 C12 1.501 . S
C8 C9 1.387 . S
C8 N11 1.341 . S
C9 C7 1.400 . S
C9 C8 1.387 . S
N10 Co1 2.022 . S
N10 C7 1.351 . S
N10 N11 1.365 . S
N11 C8 1.341 . S
N11 N10 1.365 . S
N11 H31 0.862 . S
C12 C7 1.501 . S
C12 H13 0.961 . S
C12 H14 0.961 . S
C12 H15 0.960 . S
H13 C12 0.961 . S
H14 C12 0.961 . S
H15 C12 0.960 . S
C16 N17 1.342 . S
C16 C20 1.401 . S
C16 C21 1.499 . S
N17 Co0 1.989 . S
N17 C16 1.342 . S
N17 N18 1.388 1_565 S
N18 Co1 1.993 . S
N18 N17 1.388 1_545 S
N18 C19 1.346 . S
C19 N18 1.346 . S
C19 C20 1.396 1_545 S
C19 C29 1.510 . S
C20 C16 1.401 . S
C20 C19 1.396 1_565 S
C21 C16 1.499 . S
C21 H22 0.959 . S
C21 H23 0.960 . S
C21 H24 0.961 . S
H22 C21 0.959 . S
H23 C21 0.960 . S
H24 C21 0.961 . S
O25 Co0 1.967 1_545 S
O25 C33 1.258 . S
O26 Co1 1.941 . S
O26 C33 1.266 . S
H27 C29 0.959 . S
H28 C29 0.961 . S
C29 C19 1.510 . S
C29 H27 0.959 . S
C29 H28 0.961 . S
C29 H30 0.960 . S
H30 C29 0.960 . S
H31 N11 0.862 . S
O32 Co0 1.920 . S
O32 C5 1.289 . S
C33 O25 1.258 . S
C33 O26 1.266 . S
Co34 O37 1.970 . S
Co34 N51 1.989 . S
Co34 O59 1.967 1_455 S
Co34 O66 1.920 . S
Co35 O38 1.966 . S
Co35 N44 2.022 . S
Co35 N52 1.992 . S
Co35 O60 1.941 . S
C36 O37 1.258 . S
C36 O38 1.263 1_455 S
O37 Co34 1.970 . S
O37 C36 1.258 . S
O38 Co35 1.966 . S
O38 C36 1.263 1_655 S
C39 O40 1.235 . S
C39 O66 1.289 . S
O40 C39 1.235 . S
C41 C43 1.400 . S
C41 N44 1.351 . S
C41 C46 1.501 . S
C42 C43 1.387 . S
C42 N45 1.341 . S
C43 C41 1.400 . S
C43 C42 1.387 . S
N44 Co35 2.022 . S
N44 C41 1.351 . S
N44 N45 1.365 . S
N45 C42 1.341 . S
N45 N44 1.365 . S
N45 H65 0.862 . S
C46 C41 1.501 . S
C46 H47 0.961 . S
C46 H48 0.961 . S
C46 H49 0.960 . S
H47 C46 0.961 . S
H48 C46 0.961 . S
H49 C46 0.960 . S
C50 N51 1.342 . S
C50 C54 1.401 . S
C50 C55 1.499 . S
N51 Co34 1.989 . S
N51 C50 1.342 . S
N51 N52 1.391 1_455 S
N52 Co35 1.992 . S
N52 N51 1.391 1_655 S
N52 C53 1.345 1_655 S
C53 N52 1.345 1_455 S
C53 C54 1.396 . S
C53 C63 1.510 1_455 S
C54 C50 1.401 . S
C54 C53 1.396 . S
C55 C50 1.499 . S
C55 H56 0.959 . S
C55 H57 0.960 . S
C55 H58 0.961 . S
H56 C55 0.959 . S
H57 C55 0.960 . S
H58 C55 0.961 . S
O59 Co34 1.967 1_655 S
O59 C67 1.258 . S
O60 Co35 1.941 . S
O60 C67 1.266 . S
H61 C63 0.959 . S
H62 C63 0.961 . S
C63 C53 1.510 1_655 S
C63 H61 0.959 . S
C63 H62 0.961 . S
C63 H64 0.960 . S
H64 C63 0.960 . S
H65 N45 0.862 . S
O66 Co34 1.920 . S
O66 C39 1.289 . S
C67 O59 1.258 . S
C67 O60 1.266 . S
Co68 O71 1.970 . S
Co68 N85 1.989 . S
Co68 O93 1.967 . S
Co68 O100 1.920 . S
Co69 O72 1.966 . S
Co69 N78 2.022 . S
Co69 N86 1.993 . S
Co69 O94 1.941 . S
C70 O71 1.258 . S
C70 O72 1.263 . S
O71 Co68 1.970 . S
O71 C70 1.258 . S
O72 Co69 1.966 . S
O72 C70 1.263 . S
C73 O74 1.235 . S
C73 O100 1.289 . S
O74 C73 1.235 . S
C75 C77 1.400 . S
C75 N78 1.351 . S
C75 C80 1.501 . S
C76 C77 1.387 . S
C76 N79 1.341 . S
C77 C75 1.400 . S
C77 C76 1.387 . S
N78 Co69 2.022 . S
N78 C75 1.351 . S
N78 N79 1.365 . S
N79 C76 1.341 . S
N79 N78 1.365 . S
N79 H99 0.862 . S
C80 C75 1.501 . S
C80 H81 0.961 . S
C80 H82 0.961 . S
C80 H83 0.960 . S
H81 C80 0.961 . S
H82 C80 0.961 . S
H83 C80 0.960 . S
C84 N85 1.342 . S
C84 C88 1.401 . S
C84 C89 1.499 . S
N85 Co68 1.989 . S
N85 C84 1.342 . S
N85 N86 1.388 . S
N86 Co69 1.993 . S
N86 N85 1.388 . S
N86 C87 1.346 . S
C87 N86 1.346 . S
C87 C88 1.396 . S
C87 C97 1.510 . S
C88 C84 1.401 . S
C88 C87 1.396 . S
C89 C84 1.499 . S
C89 H90 0.959 . S
C89 H91 0.960 . S
C89 H92 0.961 . S
H90 C89 0.959 . S
H91 C89 0.960 . S
H92 C89 0.961 . S
O93 Co68 1.967 . S
O93 C101 1.258 . S
O94 Co69 1.941 . S
O94 C101 1.266 . S
H95 C97 0.959 . S
H96 C97 0.961 . S
C97 C87 1.510 . S
C97 H95 0.959 . S
C97 H96 0.961 . S
C97 H98 0.960 . S
H98 C97 0.960 . S
H99 N79 0.862 . S
O100 Co68 1.920 . S
O100 C73 1.289 . S
C101 O93 1.258 . S
C101 O94 1.266 . S
Co102 O105 1.970 . S
Co102 N119 1.989 . S
Co102 O127 1.967 1_655 S
Co102 O134 1.920 . S
Co103 O106 1.966 . S
Co103 N112 2.022 . S
Co103 N120 1.993 . S
Co103 O128 1.941 . S
C104 O105 1.258 1_455 S
C104 O106 1.263 . S
O105 Co102 1.970 . S
O105 C104 1.258 1_655 S
O106 Co103 1.966 . S
O106 C104 1.263 . S
C107 O108 1.235 . S
C107 O134 1.289 . S
O108 C107 1.235 . S
C109 C111 1.400 . S
C109 N112 1.351 . S
C109 C114 1.501 . S
C110 C111 1.387 . S
C110 N113 1.341 . S
C111 C109 1.400 . S
C111 C110 1.387 . S
N112 Co103 2.022 . S
N112 C109 1.351 . S
N112 N113 1.365 . S
N113 C110 1.341 . S
N113 N112 1.365 . S
N113 H133 0.862 . S
C114 C109 1.501 . S
C114 H115 0.961 . S
C114 H116 0.961 . S
C114 H117 0.960 . S
H115 C114 0.961 . S
H116 C114 0.961 . S
H117 C114 0.960 . S
C118 N119 1.342 . S
C118 C122 1.401 . S
C118 C123 1.499 . S
N119 Co102 1.989 . S
N119 C118 1.342 . S
N119 N120 1.388 1_655 S
N120 Co103 1.993 . S
N120 N119 1.388 1_455 S
N120 C121 1.346 . S
C121 N120 1.346 . S
C121 C122 1.396 1_455 S
C121 C131 1.510 . S
C122 C118 1.401 . S
C122 C121 1.396 1_655 S
C123 C118 1.499 . S
C123 H124 0.959 . S
C123 H125 0.960 . S
C123 H126 0.961 . S
H124 C123 0.959 . S
H125 C123 0.960 . S
H126 C123 0.961 . S
O127 Co102 1.967 1_455 S
O127 C135 1.258 . S
O128 Co103 1.941 . S
O128 C135 1.266 . S
H129 C131 0.959 . S
H130 C131 0.961 . S
C131 C121 1.510 . S
C131 H129 0.959 . S
C131 H130 0.961 . S
C131 H132 0.960 . S
H132 C131 0.960 . S
H133 N113 0.862 . S
O134 Co102 1.920 . S
O134 C107 1.289 . S
C135 O127 1.258 . S
C135 O128 1.266 . S
Co136 O139 1.970 . S
Co136 N153 1.989 . S
Co136 O161 1.967 . S
Co136 O168 1.920 . S
Co137 O140 1.966 . S
Co137 N146 2.022 . S
Co137 N154 1.993 . S
Co137 O162 1.941 . S
C138 O139 1.258 . S
C138 O140 1.263 . S
O139 Co136 1.970 . S
O139 C138 1.258 . S
O140 Co137 1.966 . S
O140 C138 1.263 . S
C141 O142 1.235 . S
C141 O168 1.289 . S
O142 C141 1.235 . S
C143 C145 1.400 . S
C143 N146 1.351 . S
C143 C148 1.501 . S
C144 C145 1.387 . S
C144 N147 1.341 . S
C145 C143 1.400 . S
C145 C144 1.387 . S
N146 Co137 2.022 . S
N146 C143 1.351 . S
N146 N147 1.365 . S
N147 C144 1.341 . S
N147 N146 1.365 . S
N147 H167 0.862 . S
C148 C143 1.501 . S
C148 H149 0.961 . S
C148 H150 0.961 . S
C148 H151 0.960 . S
H149 C148 0.961 . S
H150 C148 0.961 . S
H151 C148 0.960 . S
C152 N153 1.342 . S
C152 C156 1.401 . S
C152 C157 1.499 . S
N153 Co136 1.989 . S
N153 C152 1.342 . S
N153 N154 1.388 . S
N154 Co137 1.993 . S
N154 N153 1.388 . S
N154 C155 1.346 . S
C155 N154 1.346 . S
C155 C156 1.396 . S
C155 C165 1.510 . S
C156 C152 1.401 . S
C156 C155 1.396 . S
C157 C152 1.499 . S
C157 H158 0.959 . S
C157 H159 0.960 . S
C157 H160 0.961 . S
H158 C157 0.959 . S
H159 C157 0.960 . S
H160 C157 0.961 . S
O161 Co136 1.967 . S
O161 C169 1.258 . S
O162 Co137 1.941 . S
O162 C169 1.266 . S
H163 C165 0.959 . S
H164 C165 0.961 . S
C165 C155 1.510 . S
C165 H163 0.959 . S
C165 H164 0.961 . S
C165 H166 0.960 . S
H166 C165 0.960 . S
H167 N147 0.862 . S
O168 Co136 1.920 . S
O168 C141 1.289 . S
C169 O161 1.258 . S
C169 O162 1.266 . S
Co170 O173 1.970 . S
Co170 N187 1.989 . S
Co170 O195 1.967 1_545 S
Co170 O202 1.920 . S
Co171 O174 1.966 . S
Co171 N180 2.022 . S
Co171 N188 1.991 . S
Co171 O196 1.941 . S
C172 O173 1.258 . S
C172 O174 1.263 1_545 S
O173 Co170 1.970 . S
O173 C172 1.258 . S
O174 Co171 1.966 . S
O174 C172 1.263 1_565 S
C175 O176 1.235 . S
C175 O202 1.289 . S
O176 C175 1.235 . S
C177 C179 1.400 . S
C177 N180 1.351 . S
C177 C182 1.501 . S
C178 C179 1.387 . S
C178 N181 1.341 . S
C179 C177 1.400 . S
C179 C178 1.387 . S
N180 Co171 2.022 . S
N180 C177 1.351 . S
N180 N181 1.365 . S
N181 C178 1.341 . S
N181 N180 1.365 . S
N181 H201 0.862 . S
C182 C177 1.501 . S
C182 H183 0.961 . S
C182 H184 0.961 . S
C182 H185 0.960 . S
H183 C182 0.961 . S
H184 C182 0.961 . S
H185 C182 0.960 . S
C186 N187 1.342 . S
C186 C190 1.401 . S
C186 C191 1.499 . S
N187 Co170 1.989 . S
N187 C186 1.342 . S
N187 N188 1.391 1_545 S
N188 Co171 1.991 . S
N188 N187 1.391 1_565 S
N188 C189 1.345 1_565 S
C189 N188 1.345 1_545 S
C189 C190 1.396 . S
C189 C199 1.510 1_545 S
C190 C186 1.401 . S
C190 C189 1.396 . S
C191 C186 1.499 . S
C191 H192 0.959 . S
C191 H193 0.960 . S
C191 H194 0.961 . S
H192 C191 0.959 . S
H193 C191 0.960 . S
H194 C191 0.961 . S
O195 Co170 1.967 1_565 S
O195 C203 1.258 . S
O196 Co171 1.941 . S
O196 C203 1.266 . S
H197 C199 0.959 . S
H198 C199 0.961 . S
C199 C189 1.510 1_565 S
C199 H197 0.959 . S
C199 H198 0.961 . S
C199 H200 0.960 . S
H200 C199 0.960 . S
H201 N181 0.862 . S
O202 Co170 1.920 . S
O202 C175 1.289 . S
C203 O195 1.258 . S
C203 O196 1.266 . S
Co204 O207 1.970 . S
Co204 N221 1.989 . S
Co204 O229 1.967 . S
Co204 O236 1.920 . S
Co205 O208 1.966 . S
Co205 N214 2.022 . S
Co205 N222 1.993 . S
Co205 O230 1.941 . S
C206 O207 1.258 . S
C206 O208 1.263 . S
O207 Co204 1.970 . S
O207 C206 1.258 . S
O208 Co205 1.966 . S
O208 C206 1.263 . S
C209 O210 1.235 . S
C209 O236 1.289 . S
O210 C209 1.235 . S
C211 C213 1.400 . S
C211 N214 1.351 . S
C211 C216 1.501 . S
C212 C213 1.387 . S
C212 N215 1.341 . S
C213 C211 1.400 . S
C213 C212 1.387 . S
N214 Co205 2.022 . S
N214 C211 1.351 . S
N214 N215 1.365 . S
N215 C212 1.341 . S
N215 N214 1.365 . S
N215 H235 0.862 . S
C216 C211 1.501 . S
C216 H217 0.961 . S
C216 H218 0.961 . S
C216 H219 0.960 . S
H217 C216 0.961 . S
H218 C216 0.961 . S
H219 C216 0.960 . S
C220 N221 1.342 . S
C220 C224 1.401 . S
C220 C225 1.499 . S
N221 Co204 1.989 . S
N221 C220 1.342 . S
N221 N222 1.388 . S
N222 Co205 1.993 . S
N222 N221 1.388 . S
N222 C223 1.346 . S
C223 N222 1.346 . S
C223 C224 1.396 . S
C223 C233 1.510 . S
C224 C220 1.401 . S
C224 C223 1.396 . S
C225 C220 1.499 . S
C225 H226 0.959 . S
C225 H227 0.960 . S
C225 H228 0.961 . S
H226 C225 0.959 . S
H227 C225 0.960 . S
H228 C225 0.961 . S
O229 Co204 1.967 . S
O229 C237 1.258 . S
O230 Co205 1.941 . S
O230 C237 1.266 . S
H231 C233 0.959 . S
H232 C233 0.961 . S
C233 C223 1.510 . S
C233 H231 0.959 . S
C233 H232 0.961 . S
C233 H234 0.960 . S
H234 C233 0.960 . S
H235 N215 0.862 . S
O236 Co204 1.920 . S
O236 C209 1.289 . S
C237 O229 1.258 . S
C237 O230 1.266 . S
Co238 O241 1.970 . S
Co238 N255 1.989 . S
Co238 O263 1.967 . S
Co238 O270 1.920 . S
Co239 O242 1.966 . S
Co239 N248 2.022 . S
Co239 N256 1.993 . S
Co239 O264 1.941 . S
C240 O241 1.258 . S
C240 O242 1.263 . S
O241 Co238 1.970 . S
O241 C240 1.258 . S
O242 Co239 1.966 . S
O242 C240 1.263 . S
C243 O244 1.235 . S
C243 O270 1.289 . S
O244 C243 1.235 . S
C245 C247 1.400 . S
C245 N248 1.351 . S
C245 C250 1.501 . S
C246 C247 1.387 . S
C246 N249 1.341 . S
C247 C245 1.400 . S
C247 C246 1.387 . S
N248 Co239 2.022 . S
N248 C245 1.351 . S
N248 N249 1.365 . S
N249 C246 1.341 . S
N249 N248 1.365 . S
N249 H269 0.862 . S
C250 C245 1.501 . S
C250 H251 0.961 . S
C250 H252 0.961 . S
C250 H253 0.960 . S
H251 C250 0.961 . S
H252 C250 0.961 . S
H253 C250 0.960 . S
C254 N255 1.342 . S
C254 C258 1.401 . S
C254 C259 1.499 . S
N255 Co238 1.989 . S
N255 C254 1.342 . S
N255 N256 1.388 . S
N256 Co239 1.993 . S
N256 N255 1.388 . S
N256 C257 1.346 . S
C257 N256 1.346 . S
C257 C258 1.396 . S
C257 C267 1.510 . S
C258 C254 1.401 . S
C258 C257 1.396 . S
C259 C254 1.499 . S
C259 H260 0.959 . S
C259 H261 0.960 . S
C259 H262 0.961 . S
H260 C259 0.959 . S
H261 C259 0.960 . S
H262 C259 0.961 . S
O263 Co238 1.967 . S
O263 C271 1.258 . S
O264 Co239 1.941 . S
O264 C271 1.266 . S
H265 C267 0.959 . S
H266 C267 0.961 . S
C267 C257 1.510 . S
C267 H265 0.959 . S
C267 H266 0.961 . S
C267 H268 0.960 . S
H268 C267 0.960 . S
H269 N249 0.862 . S
O270 Co238 1.920 . S
O270 C243 1.289 . S
C271 O263 1.258 . S
C271 O264 1.266 . S
Co272 O275 1.970 . S
Co272 N289 1.989 . S
Co272 O297 1.967 . S
Co272 O304 1.920 . S
Co273 O276 1.966 . S
Co273 N282 2.022 . S
Co273 N290 1.993 . S
Co273 O298 1.941 . S
C274 O275 1.258 . S
C274 O276 1.263 . S
O275 Co272 1.970 . S
O275 C274 1.258 . S
O276 Co273 1.966 . S
O276 C274 1.263 . S
C277 O278 1.235 . S
C277 O304 1.289 . S
O278 C277 1.235 . S
C279 C281 1.400 . S
C279 N282 1.351 . S
C279 C284 1.501 . S
C280 C281 1.387 . S
C280 N283 1.341 . S
C281 C279 1.400 . S
C281 C280 1.387 . S
N282 Co273 2.022 . S
N282 C279 1.351 . S
N282 N283 1.365 . S
N283 C280 1.341 . S
N283 N282 1.365 . S
N283 H303 0.862 . S
C284 C279 1.501 . S
C284 H285 0.961 . S
C284 H286 0.961 . S
C284 H287 0.960 . S
H285 C284 0.961 . S
H286 C284 0.961 . S
H287 C284 0.960 . S
C288 N289 1.342 . S
C288 C292 1.401 . S
C288 C293 1.499 . S
N289 Co272 1.989 . S
N289 C288 1.342 . S
N289 N290 1.388 . S
N290 Co273 1.993 . S
N290 N289 1.388 . S
N290 C291 1.346 . S
C291 N290 1.346 . S
C291 C292 1.396 . S
C291 C301 1.510 . S
C292 C288 1.401 . S
C292 C291 1.396 . S
C293 C288 1.499 . S
C293 H294 0.959 . S
C293 H295 0.960 . S
C293 H296 0.961 . S
H294 C293 0.959 . S
H295 C293 0.960 . S
H296 C293 0.961 . S
O297 Co272 1.967 . S
O297 C305 1.258 . S
O298 Co273 1.941 . S
O298 C305 1.266 . S
H299 C301 0.959 . S
H300 C301 0.961 . S
C301 C291 1.510 . S
C301 H299 0.959 . S
C301 H300 0.961 . S
C301 H302 0.960 . S
H302 C301 0.960 . S
H303 N283 0.862 . S
O304 Co272 1.920 . S
O304 C277 1.289 . S
C305 O297 1.258 . S
C305 O298 1.266 . S
Co306 O309 1.970 . S
Co306 N323 1.989 . S
Co306 O331 1.967 . S
Co306 O338 1.920 . S
Co307 O310 1.966 . S
Co307 N316 2.022 . S
Co307 N324 1.993 . S
Co307 O332 1.941 . S
C308 O309 1.258 . S
C308 O310 1.263 . S
O309 Co306 1.970 . S
O309 C308 1.258 . S
O310 Co307 1.966 . S
O310 C308 1.263 . S
C311 O312 1.235 . S
C311 O338 1.289 . S
O312 C311 1.235 . S
C313 C315 1.400 . S
C313 N316 1.351 . S
C313 C318 1.501 . S
C314 C315 1.387 . S
C314 N317 1.341 . S
C315 C313 1.400 . S
C315 C314 1.387 . S
N316 Co307 2.022 . S
N316 C313 1.351 . S
N316 N317 1.365 . S
N317 C314 1.341 . S
N317 N316 1.365 . S
N317 H337 0.862 . S
C318 C313 1.501 . S
C318 H319 0.961 . S
C318 H320 0.961 . S
C318 H321 0.960 . S
H319 C318 0.961 . S
H320 C318 0.961 . S
H321 C318 0.960 . S
C322 N323 1.342 . S
C322 C326 1.401 . S
C322 C327 1.499 . S
N323 Co306 1.989 . S
N323 C322 1.342 . S
N323 N324 1.388 . S
N324 Co307 1.993 . S
N324 N323 1.388 . S
N324 C325 1.346 . S
C325 N324 1.346 . S
C325 C326 1.396 . S
C325 C335 1.510 . S
C326 C322 1.401 . S
C326 C325 1.396 . S
C327 C322 1.499 . S
C327 H328 0.959 . S
C327 H329 0.960 . S
C327 H330 0.961 . S
H328 C327 0.959 . S
H329 C327 0.960 . S
H330 C327 0.961 . S
O331 Co306 1.967 . S
O331 C339 1.258 . S
O332 Co307 1.941 . S
O332 C339 1.266 . S
H333 C335 0.959 . S
H334 C335 0.961 . S
C335 C325 1.510 . S
C335 H333 0.959 . S
C335 H334 0.961 . S
C335 H336 0.960 . S
H336 C335 0.960 . S
H337 N317 0.862 . S
O338 Co306 1.920 . S
O338 C311 1.289 . S
C339 O331 1.258 . S
C339 O332 1.266 . S
Co340 O343 1.970 . S
Co340 N357 1.989 . S
Co340 O365 1.967 . S
Co340 O372 1.920 . S
Co341 O344 1.966 . S
Co341 N350 2.022 . S
Co341 N358 1.993 . S
Co341 O366 1.941 . S
C342 O343 1.258 . S
C342 O344 1.263 . S
O343 Co340 1.970 . S
O343 C342 1.258 . S
O344 Co341 1.966 . S
O344 C342 1.263 . S
C345 O346 1.235 . S
C345 O372 1.289 . S
O346 C345 1.235 . S
C347 C349 1.400 . S
C347 N350 1.351 . S
C347 C352 1.501 . S
C348 C349 1.387 . S
C348 N351 1.341 . S
C349 C347 1.400 . S
C349 C348 1.387 . S
N350 Co341 2.022 . S
N350 C347 1.351 . S
N350 N351 1.365 . S
N351 C348 1.341 . S
N351 N350 1.365 . S
N351 H371 0.862 . S
C352 C347 1.501 . S
C352 H353 0.961 . S
C352 H354 0.961 . S
C352 H355 0.960 . S
H353 C352 0.961 . S
H354 C352 0.961 . S
H355 C352 0.960 . S
C356 N357 1.342 . S
C356 C360 1.401 . S
C356 C361 1.499 . S
N357 Co340 1.989 . S
N357 C356 1.342 . S
N357 N358 1.388 . S
N358 Co341 1.993 . S
N358 N357 1.388 . S
N358 C359 1.346 . S
C359 N358 1.346 . S
C359 C360 1.396 . S
C359 C369 1.510 . S
C360 C356 1.401 . S
C360 C359 1.396 . S
C361 C356 1.499 . S
C361 H362 0.959 . S
C361 H363 0.960 . S
C361 H364 0.961 . S
H362 C361 0.959 . S
H363 C361 0.960 . S
H364 C361 0.961 . S
O365 Co340 1.967 . S
O365 C373 1.258 . S
O366 Co341 1.941 . S
O366 C373 1.266 . S
H367 C369 0.959 . S
H368 C369 0.961 . S
C369 C359 1.510 . S
C369 H367 0.959 . S
C369 H368 0.961 . S
C369 H370 0.960 . S
H370 C369 0.960 . S
H371 N351 0.862 . S
O372 Co340 1.920 . S
O372 C345 1.289 . S
C373 O365 1.258 . S
C373 O366 1.266 . S
Co374 O377 1.970 . S
Co374 N391 1.989 . S
Co374 O399 1.967 . S
Co374 O406 1.920 . S
Co375 O378 1.966 . S
Co375 N384 2.022 . S
Co375 N392 1.993 . S
Co375 O400 1.941 . S
C376 O377 1.258 . S
C376 O378 1.263 . S
O377 Co374 1.970 . S
O377 C376 1.258 . S
O378 Co375 1.966 . S
O378 C376 1.263 . S
C379 O380 1.235 . S
C379 O406 1.289 . S
O380 C379 1.235 . S
C381 C383 1.400 . S
C381 N384 1.351 . S
C381 C386 1.501 . S
C382 C383 1.387 . S
C382 N385 1.341 . S
C383 C381 1.400 . S
C383 C382 1.387 . S
N384 Co375 2.022 . S
N384 C381 1.351 . S
N384 N385 1.365 . S
N385 C382 1.341 . S
N385 N384 1.365 . S
N385 H405 0.862 . S
C386 C381 1.501 . S
C386 H387 0.961 . S
C386 H388 0.961 . S
C386 H389 0.960 . S
H387 C386 0.961 . S
H388 C386 0.961 . S
H389 C386 0.960 . S
C390 N391 1.342 . S
C390 C394 1.401 . S
C390 C395 1.499 . S
N391 Co374 1.989 . S
N391 C390 1.342 . S
N391 N392 1.388 . S
N392 Co375 1.993 . S
N392 N391 1.388 . S
N392 C393 1.346 . S
C393 N392 1.346 . S
C393 C394 1.396 . S
C393 C403 1.510 . S
C394 C390 1.401 . S
C394 C393 1.396 . S
C395 C390 1.499 . S
C395 H396 0.959 . S
C395 H397 0.960 . S
C395 H398 0.961 . S
H396 C395 0.959 . S
H397 C395 0.960 . S
H398 C395 0.961 . S
O399 Co374 1.967 . S
O399 C407 1.258 . S
O400 Co375 1.941 . S
O400 C407 1.266 . S
H401 C403 0.959 . S
H402 C403 0.961 . S
C403 C393 1.510 . S
C403 H401 0.959 . S
C403 H402 0.961 . S
C403 H404 0.960 . S
H404 C403 0.960 . S
H405 N385 0.862 . S
O406 Co374 1.920 . S
O406 C379 1.289 . S
C407 O399 1.258 . S
C407 O400 1.266 . S
Co408 O411 1.970 . S
Co408 N425 1.989 . S
Co408 O433 1.967 . S
Co408 O440 1.920 . S
Co409 O412 1.966 . S
Co409 N418 2.022 . S
Co409 N426 1.993 . S
Co409 O434 1.941 . S
C410 O411 1.258 . S
C410 O412 1.263 . S
O411 Co408 1.970 . S
O411 C410 1.258 . S
O412 Co409 1.966 . S
O412 C410 1.263 . S
C413 O414 1.235 . S
C413 O440 1.289 . S
O414 C413 1.235 . S
C415 C417 1.400 . S
C415 N418 1.351 . S
C415 C420 1.501 . S
C416 C417 1.387 . S
C416 N419 1.341 . S
C417 C415 1.400 . S
C417 C416 1.387 . S
N418 Co409 2.022 . S
N418 C415 1.351 . S
N418 N419 1.365 . S
N419 C416 1.341 . S
N419 N418 1.365 . S
N419 H439 0.862 . S
C420 C415 1.501 . S
C420 H421 0.961 . S
C420 H422 0.961 . S
C420 H423 0.960 . S
H421 C420 0.961 . S
H422 C420 0.961 . S
H423 C420 0.960 . S
C424 N425 1.342 . S
C424 C428 1.401 . S
C424 C429 1.499 . S
N425 Co408 1.989 . S
N425 C424 1.342 . S
N425 N426 1.388 . S
N426 Co409 1.993 . S
N426 N425 1.388 . S
N426 C427 1.346 . S
C427 N426 1.346 . S
C427 C428 1.396 . S
C427 C437 1.510 . S
C428 C424 1.401 . S
C428 C427 1.396 . S
C429 C424 1.499 . S
C429 H430 0.959 . S
C429 H431 0.960 . S
C429 H432 0.961 . S
H430 C429 0.959 . S
H431 C429 0.960 . S
H432 C429 0.961 . S
O433 Co408 1.967 . S
O433 C441 1.258 . S
O434 Co409 1.941 . S
O434 C441 1.266 . S
H435 C437 0.959 . S
H436 C437 0.961 . S
C437 C427 1.510 . S
C437 H435 0.959 . S
C437 H436 0.961 . S
C437 H438 0.960 . S
H438 C437 0.960 . S
H439 N419 0.862 . S
O440 Co408 1.920 . S
O440 C413 1.289 . S
C441 O433 1.258 . S
C441 O434 1.266 . S
Co442 O445 1.970 . S
Co442 N459 1.989 . S
Co442 O467 1.967 . S
Co442 O474 1.920 . S
Co443 O446 1.966 . S
Co443 N452 2.022 . S
Co443 N460 1.993 . S
Co443 O468 1.941 . S
C444 O445 1.258 . S
C444 O446 1.263 . S
O445 Co442 1.970 . S
O445 C444 1.258 . S
O446 Co443 1.966 . S
O446 C444 1.263 . S
C447 O448 1.235 . S
C447 O474 1.289 . S
O448 C447 1.235 . S
C449 C451 1.400 . S
C449 N452 1.351 . S
C449 C454 1.501 . S
C450 C451 1.387 . S
C450 N453 1.341 . S
C451 C449 1.400 . S
C451 C450 1.387 . S
N452 Co443 2.022 . S
N452 C449 1.351 . S
N452 N453 1.365 . S
N453 C450 1.341 . S
N453 N452 1.365 . S
N453 H473 0.862 . S
C454 C449 1.501 . S
C454 H455 0.961 . S
C454 H456 0.961 . S
C454 H457 0.960 . S
H455 C454 0.961 . S
H456 C454 0.961 . S
H457 C454 0.960 . S
C458 N459 1.342 . S
C458 C462 1.401 . S
C458 C463 1.499 . S
N459 Co442 1.989 . S
N459 C458 1.342 . S
N459 N460 1.388 . S
N460 Co443 1.993 . S
N460 N459 1.388 . S
N460 C461 1.346 . S
C461 N460 1.346 . S
C461 C462 1.396 . S
C461 C471 1.510 . S
C462 C458 1.401 . S
C462 C461 1.396 . S
C463 C458 1.499 . S
C463 H464 0.959 . S
C463 H465 0.960 . S
C463 H466 0.961 . S
H464 C463 0.959 . S
H465 C463 0.960 . S
H466 C463 0.961 . S
O467 Co442 1.967 . S
O467 C475 1.258 . S
O468 Co443 1.941 . S
O468 C475 1.266 . S
H469 C471 0.959 . S
H470 C471 0.961 . S
C471 C461 1.510 . S
C471 H469 0.959 . S
C471 H470 0.961 . S
C471 H472 0.960 . S
H472 C471 0.960 . S
H473 N453 0.862 . S
O474 Co442 1.920 . S
O474 C447 1.289 . S
C475 O467 1.258 . S
C475 O468 1.266 . S
Co476 O479 1.970 . S
Co476 N493 1.989 . S
Co476 O501 1.967 . S
Co476 O508 1.920 . S
Co477 O480 1.966 . S
Co477 N486 2.022 . S
Co477 N494 1.993 . S
Co477 O502 1.941 . S
C478 O479 1.258 . S
C478 O480 1.263 . S
O479 Co476 1.970 . S
O479 C478 1.258 . S
O480 Co477 1.966 . S
O480 C478 1.263 . S
C481 O482 1.235 . S
C481 O508 1.289 . S
O482 C481 1.235 . S
C483 C485 1.400 . S
C483 N486 1.351 . S
C483 C488 1.501 . S
C484 C485 1.387 . S
C484 N487 1.341 . S
C485 C483 1.400 . S
C485 C484 1.387 . S
N486 Co477 2.022 . S
N486 C483 1.351 . S
N486 N487 1.365 . S
N487 C484 1.341 . S
N487 N486 1.365 . S
N487 H507 0.862 . S
C488 C483 1.501 . S
C488 H489 0.961 . S
C488 H490 0.961 . S
C488 H491 0.960 . S
H489 C488 0.961 . S
H490 C488 0.961 . S
H491 C488 0.960 . S
C492 N493 1.342 . S
C492 C496 1.401 . S
C492 C497 1.499 . S
N493 Co476 1.989 . S
N493 C492 1.342 . S
N493 N494 1.388 . S
N494 Co477 1.993 . S
N494 N493 1.388 . S
N494 C495 1.346 . S
C495 N494 1.346 . S
C495 C496 1.396 . S
C495 C505 1.510 . S
C496 C492 1.401 . S
C496 C495 1.396 . S
C497 C492 1.499 . S
C497 H498 0.959 . S
C497 H499 0.960 . S
C497 H500 0.961 . S
H498 C497 0.959 . S
H499 C497 0.960 . S
H500 C497 0.961 . S
O501 Co476 1.967 . S
O501 C509 1.258 . S
O502 Co477 1.941 . S
O502 C509 1.266 . S
H503 C505 0.959 . S
H504 C505 0.961 . S
C505 C495 1.510 . S
C505 H503 0.959 . S
C505 H504 0.961 . S
C505 H506 0.960 . S
H506 C505 0.960 . S
H507 N487 0.862 . S
O508 Co476 1.920 . S
O508 C481 1.289 . S
C509 O501 1.258 . S
C509 O502 1.266 . S
Co510 O513 1.970 . S
Co510 N527 1.989 . S
Co510 O535 1.967 . S
Co510 O542 1.920 . S
Co511 O514 1.966 . S
Co511 N520 2.022 . S
Co511 N528 1.993 . S
Co511 O536 1.941 . S
C512 O513 1.258 . S
C512 O514 1.263 . S
O513 Co510 1.970 . S
O513 C512 1.258 . S
O514 Co511 1.966 . S
O514 C512 1.263 . S
C515 O516 1.235 . S
C515 O542 1.289 . S
O516 C515 1.235 . S
C517 C519 1.400 . S
C517 N520 1.351 . S
C517 C522 1.501 . S
C518 C519 1.387 . S
C518 N521 1.341 . S
C519 C517 1.400 . S
C519 C518 1.387 . S
N520 Co511 2.022 . S
N520 C517 1.351 . S
N520 N521 1.365 . S
N521 C518 1.341 . S
N521 N520 1.365 . S
N521 H541 0.862 . S
C522 C517 1.501 . S
C522 H523 0.961 . S
C522 H524 0.961 . S
C522 H525 0.960 . S
H523 C522 0.961 . S
H524 C522 0.961 . S
H525 C522 0.960 . S
C526 N527 1.342 . S
C526 C530 1.401 . S
C526 C531 1.499 . S
N527 Co510 1.989 . S
N527 C526 1.342 . S
N527 N528 1.388 . S
N528 Co511 1.993 . S
N528 N527 1.388 . S
N528 C529 1.346 . S
C529 N528 1.346 . S
C529 C530 1.396 . S
C529 C539 1.510 . S
C530 C526 1.401 . S
C530 C529 1.396 . S
C531 C526 1.499 . S
C531 H532 0.959 . S
C531 H533 0.960 . S
C531 H534 0.961 . S
H532 C531 0.959 . S
H533 C531 0.960 . S
H534 C531 0.961 . S
O535 Co510 1.967 . S
O535 C543 1.258 . S
O536 Co511 1.941 . S
O536 C543 1.266 . S
H537 C539 0.959 . S
H538 C539 0.961 . S
C539 C529 1.510 . S
C539 H537 0.959 . S
C539 H538 0.961 . S
C539 H540 0.960 . S
H540 C539 0.960 . S
H541 N521 0.862 . S
O542 Co510 1.920 . S
O542 C515 1.289 . S
C543 O535 1.258 . S
C543 O536 1.266 . S
Co544 O547 1.970 . S
Co544 N561 1.989 . S
Co544 O569 1.967 . S
Co544 O576 1.920 . S
Co545 O548 1.966 . S
Co545 N554 2.022 . S
Co545 N562 1.993 . S
Co545 O570 1.941 . S
C546 O547 1.258 . S
C546 O548 1.263 . S
O547 Co544 1.970 . S
O547 C546 1.258 . S
O548 Co545 1.966 . S
O548 C546 1.263 . S
C549 O550 1.235 . S
C549 O576 1.289 . S
O550 C549 1.235 . S
C551 C553 1.400 . S
C551 N554 1.351 . S
C551 C556 1.501 . S
C552 C553 1.387 . S
C552 N555 1.341 . S
C553 C551 1.400 . S
C553 C552 1.387 . S
N554 Co545 2.022 . S
N554 C551 1.351 . S
N554 N555 1.365 . S
N555 C552 1.341 . S
N555 N554 1.365 . S
N555 H575 0.862 . S
C556 C551 1.501 . S
C556 H557 0.961 . S
C556 H558 0.961 . S
C556 H559 0.960 . S
H557 C556 0.961 . S
H558 C556 0.961 . S
H559 C556 0.960 . S
C560 N561 1.342 . S
C560 C564 1.401 . S
C560 C565 1.499 . S
N561 Co544 1.989 . S
N561 C560 1.342 . S
N561 N562 1.388 . S
N562 Co545 1.993 . S
N562 N561 1.388 . S
N562 C563 1.346 . S
C563 N562 1.346 . S
C563 C564 1.396 . S
C563 C573 1.510 . S
C564 C560 1.401 . S
C564 C563 1.396 . S
C565 C560 1.499 . S
C565 H566 0.959 . S
C565 H567 0.960 . S
C565 H568 0.961 . S
H566 C565 0.959 . S
H567 C565 0.960 . S
H568 C565 0.961 . S
O569 Co544 1.967 . S
O569 C577 1.258 . S
O570 Co545 1.941 . S
O570 C577 1.266 . S
H571 C573 0.959 . S
H572 C573 0.961 . S
C573 C563 1.510 . S
C573 H571 0.959 . S
C573 H572 0.961 . S
C573 H574 0.960 . S
H574 C573 0.960 . S
H575 N555 0.862 . S
O576 Co544 1.920 . S
O576 C549 1.289 . S
C577 O569 1.258 . S
C577 O570 1.266 . S
Co578 O581 1.970 . S
Co578 N595 1.989 . S
Co578 O603 1.967 . S
Co578 O610 1.920 . S
Co579 O582 1.966 . S
Co579 N588 2.022 . S
Co579 N596 1.993 . S
Co579 O604 1.941 . S
C580 O581 1.258 . S
C580 O582 1.263 . S
O581 Co578 1.970 . S
O581 C580 1.258 . S
O582 Co579 1.966 . S
O582 C580 1.263 . S
C583 O584 1.235 . S
C583 O610 1.289 . S
O584 C583 1.235 . S
C585 C587 1.400 . S
C585 N588 1.351 . S
C585 C590 1.501 . S
C586 C587 1.387 . S
C586 N589 1.341 . S
C587 C585 1.400 . S
C587 C586 1.387 . S
N588 Co579 2.022 . S
N588 C585 1.351 . S
N588 N589 1.365 . S
N589 C586 1.341 . S
N589 N588 1.365 . S
N589 H609 0.862 . S
C590 C585 1.501 . S
C590 H591 0.961 . S
C590 H592 0.961 . S
C590 H593 0.960 . S
H591 C590 0.961 . S
H592 C590 0.961 . S
H593 C590 0.960 . S
C594 N595 1.342 . S
C594 C598 1.401 . S
C594 C599 1.499 . S
N595 Co578 1.989 . S
N595 C594 1.342 . S
N595 N596 1.388 . S
N596 Co579 1.993 . S
N596 N595 1.388 . S
N596 C597 1.346 . S
C597 N596 1.346 . S
C597 C598 1.396 . S
C597 C607 1.510 . S
C598 C594 1.401 . S
C598 C597 1.396 . S
C599 C594 1.499 . S
C599 H600 0.959 . S
C599 H601 0.960 . S
C599 H602 0.961 . S
H600 C599 0.959 . S
H601 C599 0.960 . S
H602 C599 0.961 . S
O603 Co578 1.967 . S
O603 C611 1.258 . S
O604 Co579 1.941 . S
O604 C611 1.266 . S
H605 C607 0.959 . S
H606 C607 0.961 . S
C607 C597 1.510 . S
C607 H605 0.959 . S
C607 H606 0.961 . S
C607 H608 0.960 . S
H608 C607 0.960 . S
H609 N589 0.862 . S
O610 Co578 1.920 . S
O610 C583 1.289 . S
C611 O603 1.258 . S
C611 O604 1.266 . S
H612 C620 0.950 . S
H613 C625 0.950 . S
H614 C622 0.950 . S
H615 C624 0.950 . S
H616 C626 0.950 . S
H617 C628 0.950 . S
H618 C630 0.950 . S
H619 C631 0.950 . S
C620 H612 0.950 . S
C620 C621 1.386 . S
C620 C622 1.391 . S
C621 C620 1.386 . S
C621 C625 1.393 . S
C622 H614 0.950 . S
C622 C620 1.391 . S
C622 C623 1.400 . S
C623 C622 1.400 . S
C623 C624 1.398 . S
C623 C629 1.491 . S
C624 H615 0.950 . S
C624 C623 1.398 . S
C624 C625 1.391 . S
C625 H613 0.950 . S
C625 C621 1.393 . S
C625 C624 1.391 . S
C626 H616 0.950 . S
C626 C627 1.386 . S
C626 C628 1.391 . S
C627 C626 1.386 . S
C627 C631 1.393 . S
C628 H617 0.950 . S
C628 C626 1.391 . S
C628 C629 1.400 . S
C629 C623 1.491 . S
C629 C628 1.400 . S
C629 C630 1.398 . S
C630 H618 0.950 . S
C630 C629 1.398 . S
C630 C631 1.391 . S
C631 H619 0.950 . S
C631 C627 1.393 . S
C631 C630 1.391 . S
H632 C640 0.950 . S
H633 C645 0.950 . S
H634 C642 0.950 . S
H635 C644 0.950 . S
H636 C646 0.950 . S
H637 C648 0.950 . S
H638 C650 0.950 . S
H639 C651 0.950 . S
C640 H632 0.950 . S
C640 C641 1.386 . S
C640 C642 1.391 . S
C641 C640 1.386 . S
C641 C645 1.393 . S
C642 H634 0.950 . S
C642 C640 1.391 . S
C642 C643 1.400 1_565 S
C643 C642 1.400 1_545 S
C643 C644 1.398 1_545 S
C643 C649 1.491 . S
C644 H635 0.950 . S
C644 C643 1.398 1_565 S
C644 C645 1.391 . S
C645 H633 0.950 . S
C645 C641 1.393 . S
C645 C644 1.391 . S
C646 H636 0.950 . S
C646 C647 1.386 . S
C646 C648 1.391 . S
C647 C646 1.386 . S
C647 C651 1.393 . S
C648 H637 0.950 . S
C648 C646 1.391 . S
C648 C649 1.400 . S
C649 C643 1.491 . S
C649 C648 1.400 . S
C649 C650 1.398 . S
C650 H638 0.950 . S
C650 C649 1.398 . S
C650 C651 1.391 . S
C651 H639 0.950 . S
C651 C647 1.393 . S
C651 C650 1.391 . S
H652 C660 0.950 . S
H653 C665 0.950 . S
H654 C662 0.950 . S
H655 C664 0.950 . S
H656 C666 0.950 . S
H657 C668 0.950 . S
H658 C670 0.950 . S
H659 C671 0.950 . S
C660 H652 0.950 . S
C660 C661 1.386 . S
C660 C662 1.391 . S
C661 C660 1.386 . S
C661 C665 1.393 . S
C662 H654 0.950 . S
C662 C660 1.391 . S
C662 C663 1.400 . S
C663 C662 1.400 . S
C663 C664 1.398 . S
C663 C669 1.491 1_655 S
C664 H655 0.950 . S
C664 C663 1.398 . S
C664 C665 1.391 . S
C665 H653 0.950 . S
C665 C661 1.393 . S
C665 C664 1.391 . S
C666 H656 0.950 . S
C666 C667 1.386 . S
C666 C668 1.391 . S
C667 C666 1.386 . S
C667 C671 1.393 . S
C668 H657 0.950 . S
C668 C666 1.391 . S
C668 C669 1.400 . S
C669 C663 1.491 1_455 S
C669 C668 1.400 . S
C669 C670 1.398 . S
C670 H658 0.950 . S
C670 C669 1.398 . S
C670 C671 1.391 . S
C671 H659 0.950 . S
C671 C667 1.393 . S
C671 C670 1.391 . S
H672 C680 0.950 . S
H673 C685 0.950 . S
H674 C682 0.950 . S
H675 C684 0.950 . S
H676 C686 0.950 . S
H677 C688 0.950 . S
H678 C690 0.950 . S
H679 C691 0.950 . S
C680 H672 0.950 . S
C680 C681 1.386 . S
C680 C682 1.391 . S
C681 C680 1.386 . S
C681 C685 1.393 . S
C682 H674 0.950 . S
C682 C680 1.391 . S
C682 C683 1.400 . S
C683 C682 1.400 . S
C683 C684 1.398 . S
C683 C689 1.491 . S
C684 H675 0.950 . S
C684 C683 1.398 . S
C684 C685 1.391 . S
C685 H673 0.950 . S
C685 C681 1.393 . S
C685 C684 1.391 . S
C686 H676 0.950 . S
C686 C687 1.386 . S
C686 C688 1.391 . S
C687 C686 1.386 . S
C687 C691 1.393 . S
C688 H677 0.950 . S
C688 C686 1.391 . S
C688 C689 1.400 . S
C689 C683 1.491 . S
C689 C688 1.400 . S
C689 C690 1.398 . S
C690 H678 0.950 . S
C690 C689 1.398 . S
C690 C691 1.391 . S
C691 H679 0.950 . S
C691 C687 1.393 . S
C691 C690 1.391 . S
H692 C700 0.950 . S
H693 C705 0.950 . S
H694 C702 0.950 . S
H695 C704 0.950 . S
H696 C706 0.950 . S
H697 C708 0.950 . S
H698 C710 0.950 . S
H699 C711 0.950 . S
C700 H692 0.950 . S
C700 C701 1.386 . S
C700 C702 1.391 . S
C701 C700 1.386 . S
C701 C705 1.393 . S
C702 H694 0.950 . S
C702 C700 1.391 . S
C702 C703 1.400 . S
C703 C702 1.400 . S
C703 C704 1.398 . S
C703 C709 1.491 1_545 S
C704 H695 0.950 . S
C704 C703 1.398 . S
C704 C705 1.391 . S
C705 H693 0.950 . S
C705 C701 1.393 . S
C705 C704 1.391 . S
C706 H696 0.950 . S
C706 C707 1.386 . S
C706 C708 1.391 . S
C707 C706 1.386 . S
C707 C711 1.393 . S
C708 H697 0.950 . S
C708 C706 1.391 . S
C708 C709 1.400 . S
C709 C703 1.491 1_565 S
C709 C708 1.400 . S
C709 C710 1.398 . S
C710 H698 0.950 . S
C710 C709 1.398 . S
C710 C711 1.391 . S
C711 H699 0.950 . S
C711 C707 1.393 . S
C711 C710 1.391 . S
H712 C720 0.950 . S
H713 C725 0.950 . S
H714 C722 0.950 . S
H715 C724 0.950 . S
H716 C726 0.950 . S
H717 C728 0.950 . S
H718 C730 0.950 . S
H719 C731 0.950 . S
C720 H712 0.950 . S
C720 C721 1.386 . S
C720 C722 1.391 . S
C721 C720 1.386 . S
C721 C725 1.393 . S
C722 H714 0.950 . S
C722 C720 1.391 . S
C722 C723 1.400 . S
C723 C722 1.400 . S
C723 C724 1.398 . S
C723 C729 1.491 . S
C724 H715 0.950 . S
C724 C723 1.398 . S
C724 C725 1.391 . S
C725 H713 0.950 . S
C725 C721 1.393 . S
C725 C724 1.391 . S
C726 H716 0.950 . S
C726 C727 1.386 . S
C726 C728 1.391 . S
C727 C726 1.386 . S
C727 C731 1.393 . S
C728 H717 0.950 . S
C728 C726 1.391 . S
C728 C729 1.400 1_655 S
C729 C723 1.491 . S
C729 C728 1.400 1_455 S
C729 C730 1.398 1_455 S
C730 H718 0.950 . S
C730 C729 1.398 1_655 S
C730 C731 1.391 . S
C731 H719 0.950 . S
C731 C727 1.393 . S
C731 C730 1.391 . S
H732 C740 0.950 . S
H733 C745 0.950 . S
H734 C742 0.950 . S
H735 C744 0.950 . S
H736 C746 0.950 . S
H737 C748 0.950 . S
H738 C750 0.950 . S
H739 C751 0.950 . S
C740 H732 0.950 . S
C740 C741 1.386 . S
C740 C742 1.391 . S
C741 C740 1.386 . S
C741 C745 1.393 . S
C742 H734 0.950 . S
C742 C740 1.391 . S
C742 C743 1.400 . S
C743 C742 1.400 . S
C743 C744 1.398 . S
C743 C749 1.491 . S
C744 H735 0.950 . S
C744 C743 1.398 . S
C744 C745 1.391 . S
C745 H733 0.950 . S
C745 C741 1.393 . S
C745 C744 1.391 . S
C746 H736 0.950 . S
C746 C747 1.386 . S
C746 C748 1.391 . S
C747 C746 1.386 . S
C747 C751 1.393 . S
C748 H737 0.950 . S
C748 C746 1.391 . S
C748 C749 1.400 . S
C749 C743 1.491 . S
C749 C748 1.400 . S
C749 C750 1.398 . S
C750 H738 0.950 . S
C750 C749 1.398 . S
C750 C751 1.391 . S
C751 H739 0.950 . S
C751 C747 1.393 . S
C751 C750 1.391 . S
H752 C760 0.950 . S
H753 C765 0.950 . S
H754 C762 0.950 . S
H755 C764 0.950 . S
H756 C766 0.950 . S
H757 C768 0.950 . S
H758 C770 0.950 . S
H759 C771 0.950 . S
C760 H752 0.950 . S
C760 C761 1.386 . S
C760 C762 1.391 . S
C761 C760 1.386 . S
C761 C765 1.393 . S
C762 H754 0.950 . S
C762 C760 1.391 . S
C762 C763 1.400 . S
C763 C762 1.400 . S
C763 C764 1.398 . S
C763 C769 1.491 . S
C764 H755 0.950 . S
C764 C763 1.398 . S
C764 C765 1.391 . S
C765 H753 0.950 . S
C765 C761 1.393 . S
C765 C764 1.391 . S
C766 H756 0.950 . S
C766 C767 1.386 . S
C766 C768 1.391 . S
C767 C766 1.386 . S
C767 C771 1.393 . S
C768 H757 0.950 . S
C768 C766 1.391 . S
C768 C769 1.400 . S
C769 C763 1.491 . S
C769 C768 1.400 . S
C769 C770 1.398 . S
C770 H758 0.950 . S
C770 C769 1.398 . S
C770 C771 1.391 . S
C771 H759 0.950 . S
C771 C767 1.393 . S
C771 C770 1.391 . S
H772 C780 0.950 . S
H773 C785 0.950 . S
H774 C782 0.950 . S
H775 C784 0.950 . S
H776 C786 0.950 . S
H777 C788 0.950 . S
H778 C790 0.950 . S
H779 C791 0.950 . S
C780 H772 0.950 . S
C780 C781 1.386 . S
C780 C782 1.391 . S
C781 C780 1.386 . S
C781 C785 1.393 . S
C782 H774 0.950 . S
C782 C780 1.391 . S
C782 C783 1.400 . S
C783 C782 1.400 . S
C783 C784 1.398 . S
C783 C789 1.491 . S
C784 H775 0.950 . S
C784 C783 1.398 . S
C784 C785 1.391 . S
C785 H773 0.950 . S
C785 C781 1.393 . S
C785 C784 1.391 . S
C786 H776 0.950 . S
C786 C787 1.386 . S
C786 C788 1.391 . S
C787 C786 1.386 . S
C787 C791 1.393 . S
C788 H777 0.950 . S
C788 C786 1.391 . S
C788 C789 1.400 . S
C789 C783 1.491 . S
C789 C788 1.400 . S
C789 C790 1.398 . S
C790 H778 0.950 . S
C790 C789 1.398 . S
C790 C791 1.391 . S
C791 H779 0.950 . S
C791 C787 1.393 . S
C791 C790 1.391 . S
H792 C800 0.950 . S
H793 C805 0.950 . S
H794 C802 0.950 . S
H795 C804 0.950 . S
H796 C806 0.950 . S
H797 C808 0.950 . S
H798 C810 0.950 . S
H799 C811 0.950 . S
C800 H792 0.950 . S
C800 C801 1.386 . S
C800 C802 1.391 . S
C801 C800 1.386 . S
C801 C805 1.393 . S
C802 H794 0.950 . S
C802 C800 1.391 . S
C802 C803 1.400 . S
C803 C802 1.400 . S
C803 C804 1.398 . S
C803 C809 1.491 . S
C804 H795 0.950 . S
C804 C803 1.398 . S
C804 C805 1.391 . S
C805 H793 0.950 . S
C805 C801 1.393 . S
C805 C804 1.391 . S
C806 H796 0.950 . S
C806 C807 1.386 . S
C806 C808 1.391 . S
C807 C806 1.386 . S
C807 C811 1.393 . S
C808 H797 0.950 . S
C808 C806 1.391 . S
C808 C809 1.400 . S
C809 C803 1.491 . S
C809 C808 1.400 . S
C809 C810 1.398 . S
C810 H798 0.950 . S
C810 C809 1.398 . S
C810 C811 1.391 . S
C811 H799 0.950 . S
C811 C807 1.393 . S
C811 C810 1.391 . S
H812 C820 0.950 . S
H813 C825 0.950 . S
H814 C822 0.950 . S
H815 C824 0.950 . S
H816 C826 0.950 . S
H817 C828 0.950 . S
H818 C830 0.950 . S
H819 C831 0.947 1_556 S
C820 H812 0.950 . S
C820 C821 1.386 . S
C820 C822 1.391 . S
C821 C820 1.386 . S
C821 C825 1.393 . S
C822 H814 0.950 . S
C822 C820 1.391 . S
C822 C823 1.400 . S
C823 C822 1.400 . S
C823 C824 1.398 . S
C823 C829 1.491 . S
C824 H815 0.950 . S
C824 C823 1.398 . S
C824 C825 1.391 . S
C825 H813 0.950 . S
C825 C821 1.393 . S
C825 C824 1.391 . S
C826 H816 0.950 . S
C826 C827 1.386 . S
C826 C828 1.391 . S
C827 C826 1.386 . S
C827 C831 1.393 . S
C828 H817 0.950 . S
C828 C826 1.391 . S
C828 C829 1.400 . S
C829 C823 1.491 . S
C829 C828 1.400 . S
C829 C830 1.398 . S
C830 H818 0.950 . S
C830 C829 1.398 . S
C830 C831 1.391 . S
C831 H819 0.947 1_554 S
C831 C827 1.393 . S
C831 C830 1.391 . S
H832 C840 0.950 . S
H833 C845 0.950 . S
H834 C842 0.950 . S
H835 C844 0.950 . S
H836 C846 0.950 . S
H837 C848 0.950 . S
H838 C850 0.950 . S
H839 C851 0.950 . S
C840 H832 0.950 . S
C840 C841 1.386 . S
C840 C842 1.391 . S
C841 C840 1.386 . S
C841 C845 1.393 . S
C842 H834 0.950 . S
C842 C840 1.391 . S
C842 C843 1.400 . S
C843 C842 1.400 . S
C843 C844 1.398 . S
C843 C849 1.491 . S
C844 H835 0.950 . S
C844 C843 1.398 . S
C844 C845 1.391 . S
C845 H833 0.950 . S
C845 C841 1.393 . S
C845 C844 1.391 . S
C846 H836 0.950 . S
C846 C847 1.386 . S
C846 C848 1.391 . S
C847 C846 1.386 . S
C847 C851 1.393 . S
C848 H837 0.950 . S
C848 C846 1.391 . S
C848 C849 1.400 . S
C849 C843 1.491 . S
C849 C848 1.400 . S
C849 C850 1.398 . S
C850 H838 0.950 . S
C850 C849 1.398 . S
C850 C851 1.391 . S
C851 H839 0.950 . S
C851 C847 1.393 . S
C851 C850 1.391 . S
H852 C860 0.950 . S
H853 C865 0.950 . S
H854 C862 0.950 . S
H855 C864 0.950 . S
H856 C866 0.950 . S
H857 C868 0.950 . S
H858 C870 0.950 . S
H859 C871 0.950 . S
C860 H852 0.950 . S
C860 C861 1.386 . S
C860 C862 1.391 . S
C861 C860 1.386 . S
C861 C865 1.393 . S
C862 H854 0.950 . S
C862 C860 1.391 . S
C862 C863 1.400 . S
C863 C862 1.400 . S
C863 C864 1.398 . S
C863 C869 1.491 . S
C864 H855 0.950 . S
C864 C863 1.398 . S
C864 C865 1.391 . S
C865 H853 0.950 . S
C865 C861 1.393 . S
C865 C864 1.391 . S
C866 H856 0.950 . S
C866 C867 1.386 . S
C866 C868 1.391 . S
C867 C866 1.386 . S
C867 C871 1.393 . S
C868 H857 0.950 . S
C868 C866 1.391 . S
C868 C869 1.400 . S
C869 C863 1.491 . S
C869 C868 1.400 . S
C869 C870 1.398 . S
C870 H858 0.950 . S
C870 C869 1.398 . S
C870 C871 1.391 . S
C871 H859 0.950 . S
C871 C867 1.393 . S
C871 C870 1.391 . S
H872 C880 0.950 . S
H873 C885 0.950 . S
H874 C882 0.950 . S
H875 C884 0.950 . S
H876 C886 0.950 . S
H877 C888 0.950 . S
H878 C890 0.950 . S
H879 C891 0.950 . S
C880 H872 0.950 . S
C880 C881 1.386 . S
C880 C882 1.391 . S
C881 C880 1.386 . S
C881 C885 1.393 . S
C882 H874 0.950 . S
C882 C880 1.391 . S
C882 C883 1.400 . S
C883 C882 1.400 . S
C883 C884 1.398 . S
C883 C889 1.491 . S
C884 H875 0.950 . S
C884 C883 1.398 . S
C884 C885 1.391 . S
C885 H873 0.950 . S
C885 C881 1.393 . S
C885 C884 1.391 . S
C886 H876 0.950 . S
C886 C887 1.386 . S
C886 C888 1.391 . S
C887 C886 1.386 . S
C887 C891 1.393 . S
C888 H877 0.950 . S
C888 C886 1.391 . S
C888 C889 1.400 . S
C889 C883 1.491 . S
C889 C888 1.400 . S
C889 C890 1.398 . S
C890 H878 0.950 . S
C890 C889 1.398 . S
C890 C891 1.391 . S
C891 H879 0.950 . S
C891 C887 1.393 . S
C891 C890 1.391 . S
H892 C900 0.950 . S
H893 C905 0.950 . S
H894 C902 0.950 . S
H895 C904 0.950 . S
H896 C906 0.950 . S
H897 C908 0.950 . S
H898 C910 0.950 . S
H899 C911 0.950 . S
C900 H892 0.950 . S
C900 C901 1.386 . S
C900 C902 1.391 . S
C901 C900 1.386 . S
C901 C905 1.393 . S
C902 H894 0.950 . S
C902 C900 1.391 . S
C902 C903 1.400 . S
C903 C902 1.400 . S
C903 C904 1.398 . S
C903 C909 1.491 . S
C904 H895 0.950 . S
C904 C903 1.398 . S
C904 C905 1.391 . S
C905 H893 0.950 . S
C905 C901 1.393 . S
C905 C904 1.391 . S
C906 H896 0.950 . S
C906 C907 1.386 . S
C906 C908 1.391 . S
C907 C906 1.386 . S
C907 C911 1.393 . S
C908 H897 0.950 . S
C908 C906 1.391 . S
C908 C909 1.400 . S
C909 C903 1.491 . S
C909 C908 1.400 . S
C909 C910 1.398 . S
C910 H898 0.950 . S
C910 C909 1.398 . S
C910 C911 1.391 . S
C911 H899 0.950 . S
C911 C907 1.393 . S
C911 C910 1.391 . S
H912 C920 0.950 . S
H913 C925 0.950 . S
H914 C922 0.950 . S
H915 C924 0.950 . S
H916 C926 0.950 . S
H917 C928 0.950 . S
H918 C930 0.950 . S
H919 C931 0.950 . S
C920 H912 0.950 . S
C920 C921 1.386 . S
C920 C922 1.391 . S
C921 C920 1.386 . S
C921 C925 1.393 . S
C922 H914 0.950 . S
C922 C920 1.391 . S
C922 C923 1.400 . S
C923 C922 1.400 . S
C923 C924 1.398 . S
C923 C929 1.491 . S
C924 H915 0.950 . S
C924 C923 1.398 . S
C924 C925 1.391 . S
C925 H913 0.950 . S
C925 C921 1.393 . S
C925 C924 1.391 . S
C926 H916 0.950 . S
C926 C927 1.386 . S
C926 C928 1.391 . S
C927 C926 1.386 . S
C927 C931 1.393 . S
C928 H917 0.950 . S
C928 C926 1.391 . S
C928 C929 1.400 . S
C929 C923 1.491 . S
C929 C928 1.400 . S
C929 C930 1.398 . S
C930 H918 0.950 . S
C930 C929 1.398 . S
C930 C931 1.391 . S
C931 H919 0.950 . S
C931 C927 1.393 . S
C931 C930 1.391 . S
H932 C940 0.950 . S
H933 C945 0.950 . S
H934 C942 0.950 . S
H935 C944 0.950 . S
H936 C946 0.950 . S
H937 C948 0.950 . S
H938 C950 0.950 . S
H939 C951 0.950 . S
C940 H932 0.950 . S
C940 C941 1.386 . S
C940 C942 1.391 . S
C941 C940 1.386 . S
C941 C945 1.393 . S
C942 H934 0.950 . S
C942 C940 1.391 . S
C942 C943 1.400 . S
C943 C942 1.400 . S
C943 C944 1.398 . S
C943 C949 1.491 . S
C944 H935 0.950 . S
C944 C943 1.398 . S
C944 C945 1.391 . S
C945 H933 0.950 . S
C945 C941 1.393 . S
C945 C944 1.391 . S
C946 H936 0.950 . S
C946 C947 1.386 . S
C946 C948 1.391 . S
C947 C946 1.386 . S
C947 C951 1.393 . S
C948 H937 0.950 . S
C948 C946 1.391 . S
C948 C949 1.400 . S
C949 C943 1.491 . S
C949 C948 1.400 . S
C949 C950 1.398 . S
C950 H938 0.950 . S
C950 C949 1.398 . S
C950 C951 1.391 . S
C951 H939 0.950 . S
C951 C947 1.393 . S
C951 C950 1.391 . S
H952 C960 0.950 . S
H953 C965 0.950 . S
H954 C962 0.950 . S
H955 C964 0.950 . S
H956 C966 0.950 . S
H957 C968 0.950 . S
H958 C970 0.950 . S
H959 C971 0.950 . S
C960 H952 0.950 . S
C960 C961 1.386 . S
C960 C962 1.391 . S
C961 C960 1.386 . S
C961 C965 1.393 . S
C962 H954 0.950 . S
C962 C960 1.391 . S
C962 C963 1.400 . S
C963 C962 1.400 . S
C963 C964 1.398 . S
C963 C969 1.491 . S
C964 H955 0.950 . S
C964 C963 1.398 . S
C964 C965 1.391 . S
C965 H953 0.950 . S
C965 C961 1.393 . S
C965 C964 1.391 . S
C966 H956 0.950 . S
C966 C967 1.386 . S
C966 C968 1.391 . S
C967 C966 1.386 . S
C967 C971 1.393 . S
C968 H957 0.950 . S
C968 C966 1.391 . S
C968 C969 1.400 . S
C969 C963 1.491 . S
C969 C968 1.400 . S
C969 C970 1.398 . S
C970 H958 0.950 . S
C970 C969 1.398 . S
C970 C971 1.391 . S
C971 H959 0.950 . S
C971 C967 1.393 . S
C971 C970 1.391 . S
H972 C980 0.950 . S
H973 C985 0.950 . S
H974 C982 0.950 . S
H975 C984 0.950 . S
H976 C986 0.950 . S
H977 C988 0.950 . S
H978 C990 0.950 . S
H979 C991 0.950 . S
C980 H972 0.950 . S
C980 C981 1.386 . S
C980 C982 1.391 . S
C981 C980 1.386 . S
C981 C985 1.393 . S
C982 H974 0.950 . S
C982 C980 1.391 . S
C982 C983 1.400 . S
C983 C982 1.400 . S
C983 C984 1.398 . S
C983 C989 1.491 . S
C984 H975 0.950 . S
C984 C983 1.398 . S
C984 C985 1.391 . S
C985 H973 0.950 . S
C985 C981 1.393 . S
C985 C984 1.391 . S
C986 H976 0.950 . S
C986 C987 1.386 . S
C986 C988 1.391 . S
C987 C986 1.386 . S
C987 C991 1.393 . S
C988 H977 0.950 . S
C988 C986 1.391 . S
C988 C989 1.400 . S
C989 C983 1.491 . S
C989 C988 1.400 . S
C989 C990 1.398 . S
C990 H978 0.950 . S
C990 C989 1.398 . S
C990 C991 1.391 . S
C991 H979 0.950 . S
C991 C987 1.393 . S
C991 C990 1.391 . S
H992 C1000 0.950 . S
H993 C1005 0.950 . S
H994 C1002 0.950 . S
H995 C1004 0.950 . S
H996 C1006 0.950 . S
H997 C1008 0.950 . S
H998 C1010 0.950 . S
H999 C1011 0.950 . S
C1000 H992 0.950 . S
C1000 C1001 1.386 . S
C1000 C1002 1.391 . S
C1001 C1000 1.386 . S
C1001 C1005 1.393 . S
C1002 H994 0.950 . S
C1002 C1000 1.391 . S
C1002 C1003 1.400 . S
C1003 C1002 1.400 . S
C1003 C1004 1.398 . S
C1003 C1009 1.491 . S
C1004 H995 0.950 . S
C1004 C1003 1.398 . S
C1004 C1005 1.391 . S
C1005 H993 0.950 . S
C1005 C1001 1.393 . S
C1005 C1004 1.391 . S
C1006 H996 0.950 . S
C1006 C1007 1.386 . S
C1006 C1008 1.391 . S
C1007 C1006 1.386 . S
C1007 C1011 1.393 . S
C1008 H997 0.950 . S
C1008 C1006 1.391 . S
C1008 C1009 1.400 . S
C1009 C1003 1.491 . S
C1009 C1008 1.400 . S
C1009 C1010 1.398 . S
C1010 H998 0.950 . S
C1010 C1009 1.398 . S
C1010 C1011 1.391 . S
C1011 H999 0.950 . S
C1011 C1007 1.393 . S
C1011 C1010 1.391 . S
H1012 C1020 0.950 . S
H1013 C1025 0.950 . S
H1014 C1022 0.950 . S
H1015 C1024 0.950 . S
H1016 C1026 0.950 . S
H1017 C1028 0.950 . S
H1018 C1030 0.950 . S
H1019 C1031 0.950 . S
C1020 H1012 0.950 . S
C1020 C1021 1.386 . S
C1020 C1022 1.391 . S
C1021 C1020 1.386 . S
C1021 C1025 1.393 . S
C1022 H1014 0.950 . S
C1022 C1020 1.391 . S
C1022 C1023 1.400 . S
C1023 C1022 1.400 . S
C1023 C1024 1.398 . S
C1023 C1029 1.491 . S
C1024 H1015 0.950 . S
C1024 C1023 1.398 . S
C1024 C1025 1.391 . S
C1025 H1013 0.950 . S
C1025 C1021 1.393 . S
C1025 C1024 1.391 . S
C1026 H1016 0.950 . S
C1026 C1027 1.386 . S
C1026 C1028 1.391 . S
C1027 C1026 1.386 . S
C1027 C1031 1.393 . S
C1028 H1017 0.950 . S
C1028 C1026 1.391 . S
C1028 C1029 1.400 . S
C1029 C1023 1.491 . S
C1029 C1028 1.400 . S
C1029 C1030 1.398 . S
C1030 H1018 0.950 . S
C1030 C1029 1.398 . S
C1030 C1031 1.391 . S
C1031 H1019 0.950 . S
C1031 C1027 1.393 . S
C1031 C1030 1.391 . S
H1032 C1040 0.950 . S
H1033 C1045 0.950 . S
H1034 C1042 0.950 . S
H1035 C1044 0.950 . S
H1036 C1046 0.950 . S
H1037 C1048 0.950 . S
H1038 C1050 0.950 . S
H1039 C1051 0.950 . S
C1040 H1032 0.950 . S
C1040 C1041 1.386 . S
C1040 C1042 1.391 . S
C1041 C1040 1.386 . S
C1041 C1045 1.393 . S
C1042 H1034 0.950 . S
C1042 C1040 1.391 . S
C1042 C1043 1.400 . S
C1043 C1042 1.400 . S
C1043 C1044 1.398 . S
C1043 C1049 1.491 . S
C1044 H1035 0.950 . S
C1044 C1043 1.398 . S
C1044 C1045 1.391 . S
C1045 H1033 0.950 . S
C1045 C1041 1.393 . S
C1045 C1044 1.391 . S
C1046 H1036 0.950 . S
C1046 C1047 1.386 . S
C1046 C1048 1.391 . S
C1047 C1046 1.386 . S
C1047 C1051 1.393 . S
C1048 H1037 0.950 . S
C1048 C1046 1.391 . S
C1048 C1049 1.400 . S
C1049 C1043 1.491 . S
C1049 C1048 1.400 . S
C1049 C1050 1.398 . S
C1050 H1038 0.950 . S
C1050 C1049 1.398 . S
C1050 C1051 1.391 . S
C1051 H1039 0.950 . S
C1051 C1047 1.393 . S
C1051 C1050 1.391 . S
H1052 C1060 0.950 . S
H1053 C1065 0.950 . S
H1054 C1062 0.950 . S
H1055 C1064 0.950 . S
H1056 C1066 0.950 . S
H1057 C1068 0.950 . S
H1058 C1070 0.950 . S
H1059 C1071 0.950 . S
C1060 H1052 0.950 . S
C1060 C1061 1.386 . S
C1060 C1062 1.391 . S
C1061 C1060 1.386 . S
C1061 C1065 1.393 . S
C1062 H1054 0.950 . S
C1062 C1060 1.391 . S
C1062 C1063 1.400 . S
C1063 C1062 1.400 . S
C1063 C1064 1.398 . S
C1063 C1069 1.491 . S
C1064 H1055 0.950 . S
C1064 C1063 1.398 . S
C1064 C1065 1.391 . S
C1065 H1053 0.950 . S
C1065 C1061 1.393 . S
C1065 C1064 1.391 . S
C1066 H1056 0.950 . S
C1066 C1067 1.386 . S
C1066 C1068 1.391 . S
C1067 C1066 1.386 . S
C1067 C1071 1.393 . S
C1068 H1057 0.950 . S
C1068 C1066 1.391 . S
C1068 C1069 1.400 . S
C1069 C1063 1.491 . S
C1069 C1068 1.400 . S
C1069 C1070 1.398 . S
C1070 H1058 0.950 . S
C1070 C1069 1.398 . S
C1070 C1071 1.391 . S
C1071 H1059 0.950 . S
C1071 C1067 1.393 . S
C1071 C1070 1.391 . S
H1072 C1080 0.950 . S
H1073 C1085 0.950 . S
H1074 C1082 0.950 . S
H1075 C1084 0.950 . S
H1076 C1086 0.950 . S
H1077 C1088 0.950 . S
H1078 C1090 0.950 . S
H1079 C1091 0.950 . S
C1080 H1072 0.950 . S
C1080 C1081 1.386 . S
C1080 C1082 1.391 . S
C1081 C1080 1.386 . S
C1081 C1085 1.393 . S
C1082 H1074 0.950 . S
C1082 C1080 1.391 . S
C1082 C1083 1.400 . S
C1083 C1082 1.400 . S
C1083 C1084 1.398 . S
C1083 C1089 1.491 . S
C1084 H1075 0.950 . S
C1084 C1083 1.398 . S
C1084 C1085 1.391 . S
C1085 H1073 0.950 . S
C1085 C1081 1.393 . S
C1085 C1084 1.391 . S
C1086 H1076 0.950 . S
C1086 C1087 1.386 . S
C1086 C1088 1.391 . S
C1087 C1086 1.386 . S
C1087 C1091 1.393 . S
C1088 H1077 0.950 . S
C1088 C1086 1.391 . S
C1088 C1089 1.400 . S
C1089 C1083 1.491 . S
C1089 C1088 1.400 . S
C1089 C1090 1.398 . S
C1090 H1078 0.950 . S
C1090 C1089 1.398 . S
C1090 C1091 1.391 . S
C1091 H1079 0.950 . S
C1091 C1087 1.393 . S
C1091 C1090 1.391 . S
H1092 C1100 0.950 . S
H1093 C1105 0.950 . S
H1094 C1102 0.950 . S
H1095 C1104 0.950 . S
H1096 C1106 0.950 . S
H1097 C1108 0.950 . S
H1098 C1110 0.950 . S
H1099 C1111 0.950 . S
C1100 H1092 0.950 . S
C1100 C1101 1.386 . S
C1100 C1102 1.391 . S
C1101 C1100 1.386 . S
C1101 C1105 1.393 . S
C1102 H1094 0.950 . S
C1102 C1100 1.391 . S
C1102 C1103 1.400 . S
C1103 C1102 1.400 . S
C1103 C1104 1.398 . S
C1103 C1109 1.491 1_655 S
C1104 H1095 0.950 . S
C1104 C1103 1.398 . S
C1104 C1105 1.391 . S
C1105 H1093 0.950 . S
C1105 C1101 1.393 . S
C1105 C1104 1.391 . S
C1106 H1096 0.950 . S
C1106 C1107 1.386 . S
C1106 C1108 1.391 . S
C1107 C1106 1.386 . S
C1107 C1111 1.393 . S
C1108 H1097 0.950 . S
C1108 C1106 1.391 . S
C1108 C1109 1.400 . S
C1109 C1103 1.491 1_455 S
C1109 C1108 1.400 . S
C1109 C1110 1.398 . S
C1110 H1098 0.950 . S
C1110 C1109 1.398 . S
C1110 C1111 1.391 . S
C1111 H1099 0.950 . S
C1111 C1107 1.393 . S
C1111 C1110 1.391 . S
H1112 C1120 0.950 . S
H1113 C1125 0.950 . S
H1114 C1122 0.950 . S
H1115 C1124 0.950 . S
H1116 C1126 0.950 . S
H1117 C1128 0.950 . S
H1118 C1130 0.950 . S
H1119 C1131 0.950 . S
C1120 H1112 0.950 . S
C1120 C1121 1.386 . S
C1120 C1122 1.391 . S
C1121 C1120 1.386 . S
C1121 C1125 1.393 . S
C1122 H1114 0.950 . S
C1122 C1120 1.391 . S
C1122 C1123 1.400 . S
C1123 C1122 1.400 . S
C1123 C1124 1.398 . S
C1123 C1129 1.491 . S
C1124 H1115 0.950 . S
C1124 C1123 1.398 . S
C1124 C1125 1.391 . S
C1125 H1113 0.950 . S
C1125 C1121 1.393 . S
C1125 C1124 1.391 . S
C1126 H1116 0.950 . S
C1126 C1127 1.386 . S
C1126 C1128 1.391 . S
C1127 C1126 1.386 . S
C1127 C1131 1.393 . S
C1128 H1117 0.950 . S
C1128 C1126 1.391 . S
C1128 C1129 1.400 . S
C1129 C1123 1.491 . S
C1129 C1128 1.400 . S
C1129 C1130 1.398 . S
C1130 H1118 0.950 . S
C1130 C1129 1.398 . S
C1130 C1131 1.391 . S
C1131 H1119 0.950 . S
C1131 C1127 1.393 . S
C1131 C1130 1.391 . S
H1132 C1140 0.950 . S
H1133 C1145 0.950 . S
H1134 C1142 0.950 1_545 S
H1135 C1144 0.950 . S
H1136 C1146 0.950 . S
H1137 C1148 0.950 . S
H1138 C1150 0.950 . S
H1139 C1151 0.950 . S
C1140 H1132 0.950 . S
C1140 C1141 1.386 . S
C1140 C1142 1.391 . S
C1141 C1140 1.386 . S
C1141 C1145 1.393 . S
C1142 H1134 0.950 1_565 S
C1142 C1140 1.391 . S
C1142 C1143 1.400 . S
C1143 C1142 1.400 . S
C1143 C1144 1.398 . S
C1143 C1149 1.491 1_565 S
C1144 H1135 0.950 . S
C1144 C1143 1.398 . S
C1144 C1145 1.391 . S
C1145 H1133 0.950 . S
C1145 C1141 1.393 . S
C1145 C1144 1.391 . S
C1146 H1136 0.950 . S
C1146 C1147 1.386 . S
C1146 C1148 1.391 . S
C1147 C1146 1.386 . S
C1147 C1151 1.393 . S
C1148 H1137 0.950 . S
C1148 C1146 1.391 . S
C1148 C1149 1.400 . S
C1149 C1143 1.491 1_545 S
C1149 C1148 1.400 . S
C1149 C1150 1.398 . S
C1150 H1138 0.950 . S
C1150 C1149 1.398 . S
C1150 C1151 1.391 . S
C1151 H1139 0.950 . S
C1151 C1147 1.393 . S
C1151 C1150 1.391 . S
H1152 C1160 0.950 . S
H1153 C1165 0.950 . S
H1154 C1162 0.950 . S
H1155 C1164 0.950 . S
H1156 C1166 0.950 1_565 S
H1157 C1168 0.950 1_565 S
H1158 C1170 0.950 . S
H1159 C1171 0.950 . S
C1160 H1152 0.950 . S
C1160 C1161 1.386 . S
C1160 C1162 1.391 . S
C1161 C1160 1.386 . S
C1161 C1165 1.393 1_545 S
C1162 H1154 0.950 . S
C1162 C1160 1.391 . S
C1162 C1163 1.400 . S
C1163 C1162 1.400 . S
C1163 C1164 1.398 1_545 S
C1163 C1169 1.491 . S
C1164 H1155 0.950 . S
C1164 C1163 1.398 1_565 S
C1164 C1165 1.391 . S
C1165 H1153 0.950 . S
C1165 C1161 1.393 1_565 S
C1165 C1164 1.391 . S
C1166 H1156 0.950 1_545 S
C1166 C1167 1.386 . S
C1166 C1168 1.391 . S
C1167 C1166 1.386 . S
C1167 C1171 1.393 . S
C1168 H1157 0.950 1_545 S
C1168 C1166 1.391 . S
C1168 C1169 1.400 . S
C1169 C1163 1.491 . S
C1169 C1168 1.400 . S
C1169 C1170 1.398 . S
C1170 H1158 0.950 . S
C1170 C1169 1.398 . S
C1170 C1171 1.391 . S
C1171 H1159 0.950 . S
C1171 C1167 1.393 . S
C1171 C1170 1.391 . S
H1172 C1180 0.950 . S
H1173 C1185 0.950 . S
H1174 C1182 0.950 . S
H1175 C1184 0.950 . S
H1176 C1186 0.950 . S
H1177 C1188 0.950 . S
H1178 C1190 0.950 . S
H1179 C1191 0.950 . S
C1180 H1172 0.950 . S
C1180 C1181 1.386 . S
C1180 C1182 1.391 . S
C1181 C1180 1.386 . S
C1181 C1185 1.393 1_455 S
C1182 H1174 0.950 . S
C1182 C1180 1.391 . S
C1182 C1183 1.400 . S
C1183 C1182 1.400 . S
C1183 C1184 1.398 1_455 S
C1183 C1189 1.491 . S
C1184 H1175 0.950 . S
C1184 C1183 1.398 1_655 S
C1184 C1185 1.391 . S
C1185 H1173 0.950 . S
C1185 C1181 1.393 1_655 S
C1185 C1184 1.391 . S
C1186 H1176 0.950 . S
C1186 C1187 1.386 1_655 S
C1186 C1188 1.391 . S
C1187 C1186 1.386 1_455 S
C1187 C1191 1.393 . S
C1188 H1177 0.950 . S
C1188 C1186 1.391 . S
C1188 C1189 1.400 1_655 S
C1189 C1183 1.491 . S
C1189 C1188 1.400 1_455 S
C1189 C1190 1.398 . S
C1190 H1178 0.950 . S
C1190 C1189 1.398 . S
C1190 C1191 1.391 . S
C1191 H1179 0.950 . S
C1191 C1187 1.393 . S
C1191 C1190 1.391 . S
H1192 C1200 0.950 . S
H1193 C1205 0.950 . S
H1194 C1202 0.950 . S
H1195 C1204 0.950 . S
H1196 C1206 0.950 . S
H1197 C1208 0.950 . S
H1198 C1210 0.950 . S
H1199 C1211 0.950 . S
C1200 H1192 0.950 . S
C1200 C1201 1.386 . S
C1200 C1202 1.391 . S
C1201 C1200 1.386 . S
C1201 C1205 1.393 . S
C1202 H1194 0.950 . S
C1202 C1200 1.391 . S
C1202 C1203 1.400 . S
C1203 C1202 1.400 . S
C1203 C1204 1.398 . S
C1203 C1209 1.491 . S
C1204 H1195 0.950 . S
C1204 C1203 1.398 . S
C1204 C1205 1.391 . S
C1205 H1193 0.950 . S
C1205 C1201 1.393 . S
C1205 C1204 1.391 . S
C1206 H1196 0.950 . S
C1206 C1207 1.386 . S
C1206 C1208 1.391 . S
C1207 C1206 1.386 . S
C1207 C1211 1.393 . S
C1208 H1197 0.950 . S
C1208 C1206 1.391 . S
C1208 C1209 1.400 . S
C1209 C1203 1.491 . S
C1209 C1208 1.400 . S
C1209 C1210 1.398 . S
C1210 H1198 0.950 . S
C1210 C1209 1.398 . S
C1210 C1211 1.391 . S
C1211 H1199 0.950 . S
C1211 C1207 1.393 . S
C1211 C1210 1.391 . S
H1212 C1220 0.950 . S
H1213 C1225 0.950 . S
H1214 C1222 0.950 . S
H1215 C1224 0.950 . S
H1216 C1226 0.950 . S
H1217 C1228 0.950 . S
H1218 C1230 0.950 . S
H1219 C1231 0.950 . S
C1220 H1212 0.950 . S
C1220 C1221 1.386 . S
C1220 C1222 1.391 . S
C1221 C1220 1.386 . S
C1221 C1225 1.393 . S
C1222 H1214 0.950 . S
C1222 C1220 1.391 . S
C1222 C1223 1.400 . S
C1223 C1222 1.400 . S
C1223 C1224 1.398 . S
C1223 C1229 1.491 . S
C1224 H1215 0.950 . S
C1224 C1223 1.398 . S
C1224 C1225 1.391 . S
C1225 H1213 0.950 . S
C1225 C1221 1.393 . S
C1225 C1224 1.391 . S
C1226 H1216 0.950 . S
C1226 C1227 1.386 . S
C1226 C1228 1.391 . S
C1227 C1226 1.386 . S
C1227 C1231 1.393 . S
C1228 H1217 0.950 . S
C1228 C1226 1.391 . S
C1228 C1229 1.400 . S
C1229 C1223 1.491 . S
C1229 C1228 1.400 . S
C1229 C1230 1.398 . S
C1230 H1218 0.950 . S
C1230 C1229 1.398 . S
C1230 C1231 1.391 . S
C1231 H1219 0.950 . S
C1231 C1227 1.393 . S
C1231 C1230 1.391 . S
H1232 C1240 0.950 . S
H1233 C1245 0.950 . S
H1234 C1242 0.950 . S
H1235 C1244 0.950 . S
H1236 C1246 0.950 . S
H1237 C1248 0.950 . S
H1238 C1250 0.950 . S
H1239 C1251 0.950 . S
C1240 H1232 0.950 . S
C1240 C1241 1.386 . S
C1240 C1242 1.391 . S
C1241 C1240 1.386 . S
C1241 C1245 1.393 . S
C1242 H1234 0.950 . S
C1242 C1240 1.391 . S
C1242 C1243 1.400 . S
C1243 C1242 1.400 . S
C1243 C1244 1.398 . S
C1243 C1249 1.491 . S
C1244 H1235 0.950 . S
C1244 C1243 1.398 . S
C1244 C1245 1.391 . S
C1245 H1233 0.950 . S
C1245 C1241 1.393 . S
C1245 C1244 1.391 . S
C1246 H1236 0.950 . S
C1246 C1247 1.386 . S
C1246 C1248 1.391 . S
C1247 C1246 1.386 . S
C1247 C1251 1.393 . S
C1248 H1237 0.950 . S
C1248 C1246 1.391 . S
C1248 C1249 1.400 . S
C1249 C1243 1.491 . S
C1249 C1248 1.400 . S
C1249 C1250 1.398 . S
C1250 H1238 0.950 . S
C1250 C1249 1.398 . S
C1250 C1251 1.391 . S
C1251 H1239 0.950 . S
C1251 C1247 1.393 . S
C1251 C1250 1.391 . S
H1252 C1260 0.950 . S
H1253 C1265 0.950 . S
H1254 C1262 0.950 . S
H1255 C1264 0.950 . S
H1256 C1266 0.950 . S
H1257 C1268 0.950 . S
H1258 C1270 0.950 . S
H1259 C1271 0.950 . S
C1260 H1252 0.950 . S
C1260 C1261 1.386 . S
C1260 C1262 1.391 . S
C1261 C1260 1.386 . S
C1261 C1265 1.393 . S
C1262 H1254 0.950 . S
C1262 C1260 1.391 . S
C1262 C1263 1.400 . S
C1263 C1262 1.400 . S
C1263 C1264 1.398 . S
C1263 C1269 1.491 . S
C1264 H1255 0.950 . S
C1264 C1263 1.398 . S
C1264 C1265 1.391 . S
C1265 H1253 0.950 . S
C1265 C1261 1.393 . S
C1265 C1264 1.391 . S
C1266 H1256 0.950 . S
C1266 C1267 1.386 . S
C1266 C1268 1.391 . S
C1267 C1266 1.386 . S
C1267 C1271 1.393 . S
C1268 H1257 0.950 . S
C1268 C1266 1.391 . S
C1268 C1269 1.400 . S
C1269 C1263 1.491 . S
C1269 C1268 1.400 . S
C1269 C1270 1.398 . S
C1270 H1258 0.950 . S
C1270 C1269 1.398 . S
C1270 C1271 1.391 . S
C1271 H1259 0.950 . S
C1271 C1267 1.393 . S
C1271 C1270 1.391 . S
H1272 C1280 0.950 . S
H1273 C1285 0.950 . S
H1274 C1282 0.950 . S
H1275 C1284 0.950 . S
H1276 C1286 0.950 . S
H1277 C1288 0.950 . S
H1278 C1290 0.950 . S
H1279 C1291 0.950 . S
C1280 H1272 0.950 . S
C1280 C1281 1.386 . S
C1280 C1282 1.391 . S
C1281 C1280 1.386 . S
C1281 C1285 1.393 . S
C1282 H1274 0.950 . S
C1282 C1280 1.391 . S
C1282 C1283 1.400 . S
C1283 C1282 1.400 . S
C1283 C1284 1.398 . S
C1283 C1289 1.491 . S
C1284 H1275 0.950 . S
C1284 C1283 1.398 . S
C1284 C1285 1.391 . S
C1285 H1273 0.950 . S
C1285 C1281 1.393 . S
C1285 C1284 1.391 . S
C1286 H1276 0.950 . S
C1286 C1287 1.386 . S
C1286 C1288 1.391 . S
C1287 C1286 1.386 . S
C1287 C1291 1.393 . S
C1288 H1277 0.950 . S
C1288 C1286 1.391 . S
C1288 C1289 1.400 . S
C1289 C1283 1.491 . S
C1289 C1288 1.400 . S
C1289 C1290 1.398 . S
C1290 H1278 0.950 . S
C1290 C1289 1.398 . S
C1290 C1291 1.391 . S
C1291 H1279 0.950 . S
C1291 C1287 1.393 . S
C1291 C1290 1.391 . S
H1292 C1300 0.950 . S
H1293 C1305 0.950 . S
H1294 C1302 0.950 . S
H1295 C1304 0.950 . S
H1296 C1306 0.950 . S
H1297 C1308 0.950 . S
H1298 C1310 0.950 . S
H1299 C1311 0.950 . S
C1300 H1292 0.950 . S
C1300 C1301 1.386 . S
C1300 C1302 1.391 . S
C1301 C1300 1.386 . S
C1301 C1305 1.393 . S
C1302 H1294 0.950 . S
C1302 C1300 1.391 . S
C1302 C1303 1.400 . S
C1303 C1302 1.400 . S
C1303 C1304 1.398 . S
C1303 C1309 1.491 . S
C1304 H1295 0.950 . S
C1304 C1303 1.398 . S
C1304 C1305 1.391 . S
C1305 H1293 0.950 . S
C1305 C1301 1.393 . S
C1305 C1304 1.391 . S
C1306 H1296 0.950 . S
C1306 C1307 1.386 . S
C1306 C1308 1.391 . S
C1307 C1306 1.386 . S
C1307 C1311 1.393 . S
C1308 H1297 0.950 . S
C1308 C1306 1.391 . S
C1308 C1309 1.400 . S
C1309 C1303 1.491 . S
C1309 C1308 1.400 . S
C1309 C1310 1.398 . S
C1310 H1298 0.950 . S
C1310 C1309 1.398 . S
C1310 C1311 1.391 . S
C1311 H1299 0.950 . S
C1311 C1307 1.393 . S
C1311 C1310 1.391 . S
H1312 C1320 0.950 . S
H1313 C1325 0.950 . S
H1314 C1322 0.950 . S
H1315 C1324 0.950 . S
H1316 C1326 0.950 . S
H1317 C1328 0.950 . S
H1318 C1330 0.950 . S
H1319 C1331 0.950 . S
C1320 H1312 0.950 . S
C1320 C1321 1.386 . S
C1320 C1322 1.391 . S
C1321 C1320 1.386 . S
C1321 C1325 1.393 . S
C1322 H1314 0.950 . S
C1322 C1320 1.391 . S
C1322 C1323 1.400 . S
C1323 C1322 1.400 . S
C1323 C1324 1.398 . S
C1323 C1329 1.491 . S
C1324 H1315 0.950 . S
C1324 C1323 1.398 . S
C1324 C1325 1.391 . S
C1325 H1313 0.950 . S
C1325 C1321 1.393 . S
C1325 C1324 1.391 . S
C1326 H1316 0.950 . S
C1326 C1327 1.386 . S
C1326 C1328 1.391 . S
C1327 C1326 1.386 . S
C1327 C1331 1.393 . S
C1328 H1317 0.950 . S
C1328 C1326 1.391 . S
C1328 C1329 1.400 . S
C1329 C1323 1.491 . S
C1329 C1328 1.400 . S
C1329 C1330 1.398 . S
C1330 H1318 0.950 . S
C1330 C1329 1.398 . S
C1330 C1331 1.391 . S
C1331 H1319 0.950 . S
C1331 C1327 1.393 . S
C1331 C1330 1.391 . S
H1332 C1340 0.950 . S
H1333 C1345 0.950 . S
H1334 C1342 0.950 . S
H1335 C1344 0.950 . S
H1336 C1346 0.950 . S
H1337 C1348 0.950 . S
H1338 C1350 0.950 . S
H1339 C1351 0.950 1_565 S
C1340 H1332 0.950 . S
C1340 C1341 1.386 . S
C1340 C1342 1.391 . S
C1341 C1340 1.386 . S
C1341 C1345 1.393 1_565 S
C1342 H1334 0.950 . S
C1342 C1340 1.391 . S
C1342 C1343 1.400 1_565 S
C1343 C1342 1.400 1_545 S
C1343 C1344 1.398 . S
C1343 C1349 1.491 1_554 S
C1344 H1335 0.950 . S
C1344 C1343 1.398 . S
C1344 C1345 1.391 . S
C1345 H1333 0.950 . S
C1345 C1341 1.393 1_545 S
C1345 C1344 1.391 . S
C1346 H1336 0.950 . S
C1346 C1347 1.386 . S
C1346 C1348 1.391 . S
C1347 C1346 1.386 . S
C1347 C1351 1.393 . S
C1348 H1337 0.950 . S
C1348 C1346 1.391 . S
C1348 C1349 1.400 . S
C1349 C1343 1.491 1_556 S
C1349 C1348 1.400 . S
C1349 C1350 1.398 1_545 S
C1350 H1338 0.950 . S
C1350 C1349 1.398 1_565 S
C1350 C1351 1.391 1_565 S
C1351 H1339 0.950 1_545 S
C1351 C1347 1.393 . S
C1351 C1350 1.391 1_545 S
H1352 C1360 0.950 1_655 S
H1353 C1365 0.950 . S
H1354 C1362 0.950 . S
H1355 C1364 0.950 . S
H1356 C1366 0.950 . S
H1357 C1368 0.950 . S
H1358 C1370 0.950 . S
H1359 C1371 0.950 . S
C1360 H1352 0.950 1_455 S
C1360 C1361 1.386 . S
C1360 C1362 1.391 1_455 S
C1361 C1360 1.386 . S
C1361 C1365 1.393 . S
C1362 H1354 0.950 . S
C1362 C1360 1.391 1_655 S
C1362 C1363 1.400 1_655 S
C1363 C1362 1.400 1_455 S
C1363 C1364 1.398 . S
C1363 C1369 1.491 1_554 S
C1364 H1355 0.950 . S
C1364 C1363 1.398 . S
C1364 C1365 1.391 . S
C1365 H1353 0.950 . S
C1365 C1361 1.393 . S
C1365 C1364 1.391 . S
C1366 H1356 0.950 . S
C1366 C1367 1.386 1_455 S
C1366 C1368 1.391 . S
C1367 C1366 1.386 1_655 S
C1367 C1371 1.393 . S
C1368 H1357 0.950 . S
C1368 C1366 1.391 . S
C1368 C1369 1.400 . S
C1369 C1363 1.491 1_556 S
C1369 C1368 1.400 . S
C1369 C1370 1.398 1_455 S
C1370 H1358 0.950 . S
C1370 C1369 1.398 1_655 S
C1370 C1371 1.391 . S
C1371 H1359 0.950 . S
C1371 C1367 1.393 . S
C1371 C1370 1.391 . S
H1372 C1380 0.950 . S
H1373 C1385 0.950 . S
H1374 C1382 0.950 . S
H1375 C1384 0.950 . S
H1376 C1386 0.950 . S
H1377 C1388 0.950 . S
H1378 C1390 0.950 . S
H1379 C1391 0.950 . S
C1380 H1372 0.950 . S
C1380 C1381 1.386 . S
C1380 C1382 1.391 . S
C1381 C1380 1.386 . S
C1381 C1385 1.393 . S
C1382 H1374 0.950 . S
C1382 C1380 1.391 . S
C1382 C1383 1.400 . S
C1383 C1382 1.400 . S
C1383 C1384 1.398 . S
C1383 C1389 1.491 1_556 S
C1384 H1375 0.950 . S
C1384 C1383 1.398 . S
C1384 C1385 1.391 . S
C1385 H1373 0.950 . S
C1385 C1381 1.393 . S
C1385 C1384 1.391 . S
C1386 H1376 0.950 . S
C1386 C1387 1.386 . S
C1386 C1388 1.391 . S
C1387 C1386 1.386 . S
C1387 C1391 1.393 . S
C1388 H1377 0.950 . S
C1388 C1386 1.391 . S
C1388 C1389 1.400 . S
C1389 C1383 1.491 1_554 S
C1389 C1388 1.400 . S
C1389 C1390 1.398 . S
C1390 H1378 0.950 . S
C1390 C1389 1.398 . S
C1390 C1391 1.391 . S
C1391 H1379 0.950 . S
C1391 C1387 1.393 . S
C1391 C1390 1.391 . S
H1392 C1400 0.950 . S
H1393 C1405 0.950 . S
H1394 C1402 0.950 . S
H1395 C1404 0.950 . S
H1396 C1406 0.950 . S
H1397 C1408 0.950 . S
H1398 C1410 0.950 . S
H1399 C1411 0.950 . S
C1400 H1392 0.950 . S
C1400 C1401 1.386 . S
C1400 C1402 1.391 . S
C1401 C1400 1.386 . S
C1401 C1405 1.393 . S
C1402 H1394 0.950 . S
C1402 C1400 1.391 . S
C1402 C1403 1.400 . S
C1403 C1402 1.400 . S
C1403 C1404 1.398 . S
C1403 C1409 1.491 . S
C1404 H1395 0.950 . S
C1404 C1403 1.398 . S
C1404 C1405 1.391 . S
C1405 H1393 0.950 . S
C1405 C1401 1.393 . S
C1405 C1404 1.391 . S
C1406 H1396 0.950 . S
C1406 C1407 1.386 . S
C1406 C1408 1.391 . S
C1407 C1406 1.386 . S
C1407 C1411 1.393 . S
C1408 H1397 0.950 . S
C1408 C1406 1.391 . S
C1408 C1409 1.400 . S
C1409 C1403 1.491 . S
C1409 C1408 1.400 . S
C1409 C1410 1.398 . S
C1410 H1398 0.950 . S
C1410 C1409 1.398 . S
C1410 C1411 1.391 . S
C1411 H1399 0.950 . S
C1411 C1407 1.393 . S
C1411 C1410 1.391 . S
H1412 C1420 0.950 . S
H1413 C1425 0.950 . S
H1414 C1422 0.950 . S
H1415 C1424 0.950 . S
H1416 C1426 0.950 . S
H1417 C1428 0.950 . S
H1418 C1430 0.950 . S
H1419 C1431 0.950 . S
C1420 H1412 0.950 . S
C1420 C1421 1.386 . S
C1420 C1422 1.391 . S
C1421 C1420 1.386 . S
C1421 C1425 1.393 . S
C1422 H1414 0.950 . S
C1422 C1420 1.391 . S
C1422 C1423 1.400 . S
C1423 C1422 1.400 . S
C1423 C1424 1.398 . S
C1423 C1429 1.491 . S
C1424 H1415 0.950 . S
C1424 C1423 1.398 . S
C1424 C1425 1.391 . S
C1425 H1413 0.950 . S
C1425 C1421 1.393 . S
C1425 C1424 1.391 . S
C1426 H1416 0.950 . S
C1426 C1427 1.386 . S
C1426 C1428 1.391 . S
C1427 C1426 1.386 . S
C1427 C1431 1.393 . S
C1428 H1417 0.950 . S
C1428 C1426 1.391 . S
C1428 C1429 1.400 . S
C1429 C1423 1.491 . S
C1429 C1428 1.400 . S
C1429 C1430 1.398 . S
C1430 H1418 0.950 . S
C1430 C1429 1.398 . S
C1430 C1431 1.391 . S
C1431 H1419 0.950 . S
C1431 C1427 1.393 . S
C1431 C1430 1.391 . S
H1432 C1440 0.950 . S
H1433 C1445 0.950 . S
H1434 C1442 0.950 . S
H1435 C1444 0.950 . S
H1436 C1446 0.950 . S
H1437 C1448 0.950 . S
H1438 C1450 0.950 . S
H1439 C1451 0.950 . S
C1440 H1432 0.950 . S
C1440 C1441 1.386 . S
C1440 C1442 1.391 . S
C1441 C1440 1.386 . S
C1441 C1445 1.393 . S
C1442 H1434 0.950 . S
C1442 C1440 1.391 . S
C1442 C1443 1.400 . S
C1443 C1442 1.400 . S
C1443 C1444 1.398 . S
C1443 C1449 1.491 . S
C1444 H1435 0.950 . S
C1444 C1443 1.398 . S
C1444 C1445 1.391 . S
C1445 H1433 0.950 . S
C1445 C1441 1.393 . S
C1445 C1444 1.391 . S
C1446 H1436 0.950 . S
C1446 C1447 1.386 . S
C1446 C1448 1.391 . S
C1447 C1446 1.386 . S
C1447 C1451 1.393 . S
C1448 H1437 0.950 . S
C1448 C1446 1.391 . S
C1448 C1449 1.400 . S
C1449 C1443 1.491 . S
C1449 C1448 1.400 . S
C1449 C1450 1.398 . S
C1450 H1438 0.950 . S
C1450 C1449 1.398 . S
C1450 C1451 1.391 . S
C1451 H1439 0.950 . S
C1451 C1447 1.393 . S
C1451 C1450 1.391 . S
H1452 C1460 0.950 . S
H1453 C1465 0.950 . S
H1454 C1462 0.950 . S
H1455 C1464 0.950 . S
H1456 C1466 0.950 . S
H1457 C1468 0.950 . S
H1458 C1470 0.950 . S
H1459 C1471 0.950 . S
C1460 H1452 0.950 . S
C1460 C1461 1.386 . S
C1460 C1462 1.391 . S
C1461 C1460 1.386 . S
C1461 C1465 1.393 . S
C1462 H1454 0.950 . S
C1462 C1460 1.391 . S
C1462 C1463 1.400 . S
C1463 C1462 1.400 . S
C1463 C1464 1.398 . S
C1463 C1469 1.491 . S
C1464 H1455 0.950 . S
C1464 C1463 1.398 . S
C1464 C1465 1.391 . S
C1465 H1453 0.950 . S
C1465 C1461 1.393 . S
C1465 C1464 1.391 . S
C1466 H1456 0.950 . S
C1466 C1467 1.386 . S
C1466 C1468 1.391 . S
C1467 C1466 1.386 . S
C1467 C1471 1.393 . S
C1468 H1457 0.950 . S
C1468 C1466 1.391 . S
C1468 C1469 1.400 . S
C1469 C1463 1.491 . S
C1469 C1468 1.400 . S
C1469 C1470 1.398 . S
C1470 H1458 0.950 . S
C1470 C1469 1.398 . S
C1470 C1471 1.391 . S
C1471 H1459 0.950 . S
C1471 C1467 1.393 . S
C1471 C1470 1.391 . S
H1472 C1480 0.950 . S
H1473 C1485 0.950 . S
H1474 C1482 0.950 . S
H1475 C1484 0.950 . S
H1476 C1486 0.950 . S
H1477 C1488 0.950 . S
H1478 C1490 0.950 . S
H1479 C1491 0.950 . S
C1480 H1472 0.950 . S
C1480 C1481 1.386 . S
C1480 C1482 1.391 . S
C1481 C1480 1.386 . S
C1481 C1485 1.393 . S
C1482 H1474 0.950 . S
C1482 C1480 1.391 . S
C1482 C1483 1.400 . S
C1483 C1482 1.400 . S
C1483 C1484 1.398 . S
C1483 C1489 1.491 . S
C1484 H1475 0.950 . S
C1484 C1483 1.398 . S
C1484 C1485 1.391 . S
C1485 H1473 0.950 . S
C1485 C1481 1.393 . S
C1485 C1484 1.391 . S
C1486 H1476 0.950 . S
C1486 C1487 1.386 . S
C1486 C1488 1.391 . S
C1487 C1486 1.386 . S
C1487 C1491 1.393 . S
C1488 H1477 0.950 . S
C1488 C1486 1.391 . S
C1488 C1489 1.400 . S
C1489 C1483 1.491 . S
C1489 C1488 1.400 . S
C1489 C1490 1.398 . S
C1490 H1478 0.950 . S
C1490 C1489 1.398 . S
C1490 C1491 1.391 . S
C1491 H1479 0.950 . S
C1491 C1487 1.393 . S
C1491 C1490 1.391 . S
H1492 C1500 0.950 . S
H1493 C1505 0.950 . S
H1494 C1502 0.950 . S
H1495 C1504 0.950 . S
H1496 C1506 0.950 . S
H1497 C1508 0.950 . S
H1498 C1510 0.950 . S
H1499 C1511 0.950 . S
C1500 H1492 0.950 . S
C1500 C1501 1.386 . S
C1500 C1502 1.391 . S
C1501 C1500 1.386 . S
C1501 C1505 1.393 . S
C1502 H1494 0.950 . S
C1502 C1500 1.391 . S
C1502 C1503 1.400 . S
C1503 C1502 1.400 . S
C1503 C1504 1.398 . S
C1503 C1509 1.491 . S
C1504 H1495 0.950 . S
C1504 C1503 1.398 . S
C1504 C1505 1.391 . S
C1505 H1493 0.950 . S
C1505 C1501 1.393 . S
C1505 C1504 1.391 . S
C1506 H1496 0.950 . S
C1506 C1507 1.386 . S
C1506 C1508 1.391 . S
C1507 C1506 1.386 . S
C1507 C1511 1.393 . S
C1508 H1497 0.950 . S
C1508 C1506 1.391 . S
C1508 C1509 1.400 . S
C1509 C1503 1.491 . S
C1509 C1508 1.400 . S
C1509 C1510 1.398 . S
C1510 H1498 0.950 . S
C1510 C1509 1.398 . S
C1510 C1511 1.391 . S
C1511 H1499 0.950 . S
C1511 C1507 1.393 . S
C1511 C1510 1.391 . S
C621 C33 1.163 . S
C627 C39 1.161 . S
C641 C73 1.165 . S
C647 C67 1.155 . S
C661 C101 1.164 . S
C667 C5 1.161 . S
C681 C175 1.161 . S
C687 C135 1.164 . S
C701 C107 1.160 . S
C707 C169 1.163 . S
C721 C203 1.155 . S
C727 C141 1.165 . S
C741 C243 1.162 . S
C747 C237 1.152 . S
C761 C271 1.159 . S
C767 C277 1.165 . S
C781 C305 1.151 . S
C787 C209 1.163 . S
C801 C379 1.160 . S
C807 C339 1.158 . S
C821 C311 1.160 . S
C827 C373 1.162 . S
C841 C407 1.151 . S
C847 C345 1.162 . S
C861 C447 1.160 . S
C867 C441 1.158 . S
C881 C475 1.151 . S
C887 C481 1.164 . S
C901 C509 1.151 . S
C907 C413 1.163 . S
C921 C583 1.160 . S
C927 C543 1.158 . S
C941 C515 1.165 . S
C947 C577 1.155 . S
C961 C611 1.164 . S
C967 C549 1.161 . S
C981 C349 1.553 . S
C987 C9 1.539 . S
C1001 C383 1.551 . S
C1007 C43 1.540 . S
C1021 C315 1.570 . S
C1027 C77 1.567 . S
C1041 C111 1.551 . S
C1047 C485 1.539 . S
C1061 C417 1.572 . S
C1067 C145 1.562 . S
C1081 C451 1.567 . S
C1087 C179 1.546 . S
C1101 C213 1.570 . S
C1107 C553 1.567 . S
C1121 C587 1.573 . S
C1127 C247 1.560 . S
C1141 C519 1.566 . S
C1147 C281 1.545 . S
C1161 C2 1.607 . S
C1167 C172 1.609 . S
C1181 C104 1.600 . S
C1187 C36 1.611 . S
C1201 C138 1.610 . S
C1207 C70 1.605 . S
C1221 C376 1.603 1_556 S
C1227 C206 1.599 . S
C1241 C308 1.608 1_556 S
C1247 C240 1.608 . S
C1261 C274 1.608 . S
C1267 C342 1.609 1_556 S
C1281 C580 1.597 . S
C1287 C410 1.608 1_554 S
C1301 C444 1.599 1_554 S
C1307 C512 1.603 . S
C1321 C546 1.603 . S
C1327 C478 1.611 1_554 S
C1341 C20 0.871 . S
C1347 C190 0.881 . S
C1361 C54 0.907 . S
C1367 C122 0.896 . S
C1381 C156 0.872 . S
C1387 C88 0.871 . S
C1401 C394 0.883 . S
C1407 C224 0.871 . S
C1421 C326 0.870 . S
C1427 C258 0.877 . S
C1441 C360 0.870 . S
C1447 C292 0.876 . S
C1461 C428 0.879 . S
C1467 C598 0.870 . S
C1481 C462 0.873 . S
C1487 C530 0.871 . S
C1501 C564 0.892 . S
C1507 C496 0.905 . S
