# Generated by pormake.
# Topology whr, (6)-cn, num edge types: 1
# Building blocks:
#     Node 0, Type 0, BuildingBlock: VOLQOD_clean_sbu_1, # of connection points: 6
#     Node 1, Type 0, BuildingBlock: VOLQOD_clean_sbu_1, # of connection points: 6
#     Node 2, Type 0, BuildingBlock: VOLQOD_clean_sbu_1, # of connection points: 6
#     Node 3, Type 0, BuildingBlock: VOLQOD_clean_sbu_1, # of connection points: 6
#     Node 4, Type 0, BuildingBlock: VOLQOD_clean_sbu_1, # of connection points: 6
#     Node 5, Type 0, BuildingBlock: VOLQOD_clean_sbu_1, # of connection points: 6
#     Node 6, Type 0, BuildingBlock: VOLQOD_clean_sbu_1, # of connection points: 6
#     Node 7, Type 0, BuildingBlock: VOLQOD_clean_sbu_1, # of connection points: 6
#     Node 8, Type 0, BuildingBlock: VOLQOD_clean_sbu_1, # of connection points: 6
#     Node 9, Type 0, BuildingBlock: VOLQOD_clean_sbu_1, # of connection points: 6
#     Node 10, Type 0, BuildingBlock: VOLQOD_clean_sbu_1, # of connection points: 6
#     Node 11, Type 0, BuildingBlock: VOLQOD_clean_sbu_1, # of connection points: 6
#     Node 12, Type 0, BuildingBlock: VOLQOD_clean_sbu_1, # of connection points: 6
#     Node 13, Type 0, BuildingBlock: VOLQOD_clean_sbu_1, # of connection points: 6
#     Node 14, Type 0, BuildingBlock: VOLQOD_clean_sbu_1, # of connection points: 6
#     Node 15, Type 0, BuildingBlock: VOLQOD_clean_sbu_1, # of connection points: 6
#     Edge 16, Type (0, 0), BuildingBlock: KIFKEQ_clean_linker_1, # of connection points: 2
#     Edge 17, Type (0, 0), BuildingBlock: KIFKEQ_clean_linker_1, # of connection points: 2
#     Edge 18, Type (0, 0), BuildingBlock: KIFKEQ_clean_linker_1, # of connection points: 2
#     Edge 19, Type (0, 0), BuildingBlock: KIFKEQ_clean_linker_1, # of connection points: 2
#     Edge 20, Type (0, 0), BuildingBlock: KIFKEQ_clean_linker_1, # of connection points: 2
#     Edge 21, Type (0, 0), BuildingBlock: KIFKEQ_clean_linker_1, # of connection points: 2
#     Edge 22, Type (0, 0), BuildingBlock: KIFKEQ_clean_linker_1, # of connection points: 2
#     Edge 23, Type (0, 0), BuildingBlock: KIFKEQ_clean_linker_1, # of connection points: 2
#     Edge 24, Type (0, 0), BuildingBlock: KIFKEQ_clean_linker_1, # of connection points: 2
#     Edge 25, Type (0, 0), BuildingBlock: KIFKEQ_clean_linker_1, # of connection points: 2
#     Edge 26, Type (0, 0), BuildingBlock: KIFKEQ_clean_linker_1, # of connection points: 2
#     Edge 27, Type (0, 0), BuildingBlock: KIFKEQ_clean_linker_1, # of connection points: 2
#     Edge 28, Type (0, 0), BuildingBlock: KIFKEQ_clean_linker_1, # of connection points: 2
#     Edge 29, Type (0, 0), BuildingBlock: KIFKEQ_clean_linker_1, # of connection points: 2
#     Edge 30, Type (0, 0), BuildingBlock: KIFKEQ_clean_linker_1, # of connection points: 2
#     Edge 31, Type (0, 0), BuildingBlock: KIFKEQ_clean_linker_1, # of connection points: 2
#     Edge 32, Type (0, 0), BuildingBlock: KIFKEQ_clean_linker_1, # of connection points: 2
#     Edge 33, Type (0, 0), BuildingBlock: KIFKEQ_clean_linker_1, # of connection points: 2
#     Edge 34, Type (0, 0), BuildingBlock: KIFKEQ_clean_linker_1, # of connection points: 2
#     Edge 35, Type (0, 0), BuildingBlock: KIFKEQ_clean_linker_1, # of connection points: 2
#     Edge 36, Type (0, 0), BuildingBlock: KIFKEQ_clean_linker_1, # of connection points: 2
#     Edge 37, Type (0, 0), BuildingBlock: KIFKEQ_clean_linker_1, # of connection points: 2
#     Edge 38, Type (0, 0), BuildingBlock: KIFKEQ_clean_linker_1, # of connection points: 2
#     Edge 39, Type (0, 0), BuildingBlock: KIFKEQ_clean_linker_1, # of connection points: 2
#     Edge 40, Type (0, 0), BuildingBlock: KIFKEQ_clean_linker_1, # of connection points: 2
#     Edge 41, Type (0, 0), BuildingBlock: KIFKEQ_clean_linker_1, # of connection points: 2
#     Edge 42, Type (0, 0), BuildingBlock: KIFKEQ_clean_linker_1, # of connection points: 2
#     Edge 43, Type (0, 0), BuildingBlock: KIFKEQ_clean_linker_1, # of connection points: 2
#     Edge 44, Type (0, 0), BuildingBlock: KIFKEQ_clean_linker_1, # of connection points: 2
#     Edge 45, Type (0, 0), BuildingBlock: KIFKEQ_clean_linker_1, # of connection points: 2
#     Edge 46, Type (0, 0), BuildingBlock: KIFKEQ_clean_linker_1, # of connection points: 2
#     Edge 47, Type (0, 0), BuildingBlock: KIFKEQ_clean_linker_1, # of connection points: 2
#     Edge 48, Type (0, 0), BuildingBlock: KIFKEQ_clean_linker_1, # of connection points: 2
#     Edge 49, Type (0, 0), BuildingBlock: KIFKEQ_clean_linker_1, # of connection points: 2
#     Edge 50, Type (0, 0), BuildingBlock: KIFKEQ_clean_linker_1, # of connection points: 2
#     Edge 51, Type (0, 0), BuildingBlock: KIFKEQ_clean_linker_1, # of connection points: 2
#     Edge 52, Type (0, 0), BuildingBlock: KIFKEQ_clean_linker_1, # of connection points: 2
#     Edge 53, Type (0, 0), BuildingBlock: KIFKEQ_clean_linker_1, # of connection points: 2
#     Edge 54, Type (0, 0), BuildingBlock: KIFKEQ_clean_linker_1, # of connection points: 2
#     Edge 55, Type (0, 0), BuildingBlock: KIFKEQ_clean_linker_1, # of connection points: 2
#     Edge 56, Type (0, 0), BuildingBlock: KIFKEQ_clean_linker_1, # of connection points: 2
#     Edge 57, Type (0, 0), BuildingBlock: KIFKEQ_clean_linker_1, # of connection points: 2
#     Edge 58, Type (0, 0), BuildingBlock: KIFKEQ_clean_linker_1, # of connection points: 2
#     Edge 59, Type (0, 0), BuildingBlock: KIFKEQ_clean_linker_1, # of connection points: 2
#     Edge 60, Type (0, 0), BuildingBlock: KIFKEQ_clean_linker_1, # of connection points: 2
#     Edge 61, Type (0, 0), BuildingBlock: KIFKEQ_clean_linker_1, # of connection points: 2
#     Edge 62, Type (0, 0), BuildingBlock: KIFKEQ_clean_linker_1, # of connection points: 2
#     Edge 63, Type (0, 0), BuildingBlock: KIFKEQ_clean_linker_1, # of connection points: 2
# Relax obj value: 0.383
# Max RMSD: 0.249
# Mean RMSD: 0.247
data_MOF--net-whr--node1-VOLQOD_clean_sbu_1--edge1-KIFKEQ_clean_linker_1
_symmetry_space_group_name_H-M    P1
_symmetry_Int_Tables_number       1
_symmetry_cell_setting            triclinic
loop_
_symmetry_equiv_pos_as_xyz
'x, y, z'
_cell_length_a     52.609076
_cell_length_b     52.549844
_cell_length_c     29.488861
_cell_angle_alpha  90.039427
_cell_angle_beta   90.091075
_cell_angle_gamma 90.113612
loop_
_atom_site_label
_atom_site_type_symbol
_atom_site_fract_x
_atom_site_fract_y
_atom_site_fract_z
_atom_type_partial_charge
O0 O 0.17006 0.05255 0.13148 0.0
Zn1 Zn 0.17833 0.03666 0.07158 0.0
O2 O 0.21336 0.04191 0.05389 0.0
Zn3 Zn 0.23027 0.00884 0.04681 0.0
Zn4 Zn 0.22939 0.06211 0.10062 0.0
Zn5 Zn 0.21464 0.06164 0.99858 0.0
O6 O 0.24722 0.00676 0.98364 0.0
O7 O 0.22944 0.04026 0.94999 0.0
O8 O 0.1693 1e-05 0.07322 0.0
O9 O 0.2041 0.98009 0.05003 0.0
O10 O 0.25376 0.00299 0.10169 0.0
O11 O 0.25115 0.03991 0.13847 0.0
O12 O 0.25003 0.09075 0.07628 0.0
O13 O 0.15492 0.05388 0.02805 0.0
O14 O 0.23799 0.09173 0.00422 0.0
O15 O 0.17998 0.0745 0.98 0.0
C16 C 0.18128 0.07051 0.15239 0.0
C17 C 0.24301 0.02024 0.9482 0.0
C18 C 0.25929 0.0172 0.1356 0.0
C19 C 0.18092 0.97966 0.06276 0.0
C20 C 0.25088 0.1007 0.03708 0.0
C21 C 0.15792 0.06897 0.99476 0.0
O22 O 0.20354 0.07764 0.14153 0.0
O23 O 0.04955 0.81561 0.87653 0.0
Zn24 Zn 0.03602 0.8079 0.93823 0.0
O25 O 0.04003 0.77231 0.95263 0.0
Zn26 Zn 0.00671 0.75597 0.95981 0.0
Zn27 Zn 0.05889 0.75597 0.90468 0.0
Zn28 Zn 0.06033 0.77001 0.00694 0.0
O29 O 0.00543 0.73784 0.022 0.0
O30 O 0.03888 0.75588 0.05582 0.0
O31 O -0.0001 0.81868 0.94325 0.0
O32 O 0.97898 0.78296 0.95925 0.0
O33 O -0.00101 0.73357 0.90417 0.0
O34 O 0.03558 0.73549 0.86669 0.0
O35 O 0.08612 0.73288 0.92804 0.0
O36 O 0.05666 0.83006 0.97936 0.0
O37 O 0.08831 0.74489 0.99996 0.0
O38 O 0.07635 0.80337 0.02562 0.0
C39 C 0.06653 0.80437 0.85332 0.0
C40 C 0.01905 0.74196 0.05737 0.0
C41 C 0.01267 0.72804 0.86974 0.0
C42 C 0.97935 0.80688 0.95186 0.0
C43 C 0.096 0.73118 0.96728 0.0
C44 C 0.07235 0.82584 0.01128 0.0
O45 O 0.07396 0.782 0.86319 0.0
O46 O 0.8136 0.92728 0.12308 0.0
Zn47 Zn 0.80464 0.94552 0.0657 0.0
O48 O 0.76899 0.94153 0.05076 0.0
Zn49 Zn 0.753 0.97507 0.04401 0.0
Zn50 Zn 0.75279 0.92188 0.09811 0.0
Zn51 Zn 0.76633 0.92183 0.99584 0.0
O52 O 0.73616 0.97782 0.98088 0.0
O53 O 0.75228 0.94354 0.94707 0.0
O54 O 0.81411 0.98195 0.07208 0.0
O55 O 0.77977 0.00318 0.05012 0.0
O56 O 0.72896 0.98118 0.09762 0.0
O57 O 0.73214 0.94497 0.13629 0.0
O58 O 0.73034 0.89434 0.07422 0.0
O59 O 0.82708 0.92921 0.01897 0.0
O60 O 0.74134 0.89344 1.00174 0.0
O61 O 0.79988 0.90654 0.9777 0.0
C62 C 0.80183 0.91037 0.14565 0.0
C63 C 0.73937 0.96401 0.94555 0.0
C64 C 0.72373 0.96754 0.13232 0.0
C65 C 0.80282 0.00281 0.06376 0.0
C66 C 0.72836 0.88493 0.03469 0.0
C67 C 0.82251 0.91262 0.98857 0.0
O68 O 0.77864 0.90509 0.13779 0.0
O69 O 0.92512 0.16169 0.89607 0.0
Zn70 Zn 0.94357 0.17172 0.95267 0.0
O71 O 0.94036 0.20777 0.96526 0.0
Zn72 Zn 0.97427 0.2232 0.9677 0.0
Zn73 Zn 0.92022 0.22314 0.9176 0.0
Zn74 Zn 0.92202 0.21231 0.02169 0.0
O75 O 0.97894 0.24201 0.02811 0.0
O76 O 0.94475 0.22914 0.06664 0.0
O77 O 0.97972 0.1609 0.94793 0.0
O78 O 0.0015 0.19595 0.9641 0.0
O79 O 0.98 0.24506 0.91114 0.0
O80 O 0.94258 0.24283 0.87611 0.0
O81 O 0.89312 0.24607 0.94134 0.0
O82 O 0.92662 0.15109 1.00072 0.0
O83 O 0.89324 0.23669 0.01462 0.0
O84 O 0.90746 0.17912 0.04536 0.0
C85 C 0.90804 0.17316 0.87346 0.0
C86 C 0.9657 0.24126 0.06446 0.0
C87 C 0.9656 0.25022 0.87742 0.0
C88 C 0.00075 0.17233 0.95431 0.0
C89 C 0.88426 0.24888 0.98107 0.0
C90 C 0.91193 0.15622 0.03367 0.0
O91 O 0.90302 0.1965 0.88035 0.0
O92 O 0.73131 0.01967 0.4786 0.0
Zn93 Zn 0.73714 0.03684 0.54007 0.0
O94 O 0.7735 0.04442 0.54846 0.0
Zn95 Zn 0.78606 0.02809 0.60244 0.0
Zn96 Zn 0.79363 0.03317 0.49769 0.0
Zn97 Zn 0.77839 0.08055 0.55527 0.0
O98 O 0.8063 0.05232 0.64102 0.0
O99 O 0.79111 0.08924 0.61671 0.0
O100 O 0.72208 0.019 0.59606 0.0
O101 O 0.7566 0.01827 0.63993 0.0
O102 O 0.80714 -0.00284 0.5884 0.0
O103 O 0.81419 0.00234 0.51459 0.0
O104 O 0.81853 0.06003 0.47613 0.0
O105 O 0.71763 0.06972 0.53489 0.0
O106 O 0.80536 0.09368 0.5145 0.0
O107 O 0.74698 0.09983 0.54257 0.0
C108 C 0.74609 0.01897 0.4442 0.0
C109 C 0.80415 0.07636 0.64479 0.0
C110 C 0.81747 0.99015 0.55146 0.0
C111 C 0.73292 0.01488 0.63416 0.0
C112 C 0.82028 0.08356 0.48596 0.0
C113 C 0.72413 0.09306 0.53562 0.0
O114 O 0.76961 0.02465 0.44744 0.0
O115 O 0.05798 0.16439 0.3876 0.0
Zn116 Zn 0.04084 0.17397 0.44586 0.0
O117 O 0.04617 0.20951 0.461 0.0
Zn118 Zn 0.01333 0.2268 0.46474 0.0
Zn119 Zn 0.06662 0.22458 0.41395 0.0
Zn120 Zn 0.06553 0.21222 0.51693 0.0
O121 O 0.00976 0.24383 0.52702 0.0
O122 O 0.04394 0.22917 0.56359 0.0
O123 O 0.00404 0.16481 0.4426 0.0
O124 O 0.9847 0.2012 0.45882 0.0
O125 O 0.00852 0.2503 0.41001 0.0
O126 O 0.04498 0.24516 0.37307 0.0
O127 O 0.09394 0.24691 0.43814 0.0
O128 O 0.05752 0.15172 0.49184 0.0
O129 O 0.0959 0.23505 0.51008 0.0
O130 O 0.07811 0.17785 0.53839 0.0
C131 C 0.07641 0.17509 0.36725 0.0
C132 C 0.02328 0.2418 0.56297 0.0
C133 C 0.02273 0.25442 0.37565 0.0
C134 C 0.98386 0.17759 0.44903 0.0
C135 C 0.10421 0.24819 0.47706 0.0
C136 C 0.07252 0.15544 0.52508 0.0
O137 O 0.08328 0.19769 0.37673 0.0
O138 O 0.15996 0.92214 0.60665 0.0
Zn139 Zn 0.17256 0.94091 0.55233 0.0
O140 O 0.20883 0.93653 0.54411 0.0
Zn141 Zn 0.22596 0.96993 0.54401 0.0
Zn142 Zn 0.22172 0.91527 0.59267 0.0
Zn143 Zn 0.21413 0.91827 0.48795 0.0
O144 O 0.24507 0.97473 0.48354 0.0
O145 O 0.23231 0.9406 0.44446 0.0
O146 O 0.16343 0.97737 0.55918 0.0
O147 O 0.1997 -0.00167 0.54926 0.0
O148 O 0.24827 0.97358 0.60135 0.0
O149 O 0.24193 0.93631 0.63507 0.0
O150 O 0.24349 0.88669 0.57074 0.0
O151 O 0.15255 0.92549 0.50149 0.0
O152 O 0.23715 0.88871 0.49656 0.0
O153 O 0.18139 0.90449 0.46156 0.0
C154 C 0.17012 0.90545 0.63198 0.0
C155 C 0.2446 0.96145 0.44711 0.0
C156 C 0.25146 0.95855 0.63502 0.0
C157 C 0.17581 -0.00187 0.55671 0.0
C158 C 0.24741 0.87839 0.53091 0.0
C159 C 0.15832 0.91003 0.46996 0.0
O160 O 0.19356 0.89999 0.62874 0.0
O161 O 0.93025 0.81243 0.36386 0.0
Zn162 Zn 0.94779 0.80645 0.42318 0.0
O163 O 0.94191 0.77307 0.44786 0.0
Zn164 Zn 0.97446 0.75527 0.45359 0.0
Zn165 Zn 0.92007 0.75622 0.40535 0.0
Zn166 Zn 0.92316 0.77497 0.50451 0.0
O167 O 0.97663 0.73934 0.51734 0.0
O168 O 0.94369 0.7577 0.5522 0.0
O169 O 0.98457 0.81413 0.41705 0.0
O170 O 0.00399 0.78038 0.44607 0.0
O171 O 0.97809 0.73005 0.40034 0.0
O172 O 0.94063 0.73401 0.36612 0.0
O173 O 0.89354 0.73568 0.43522 0.0
O174 O 0.93253 0.8322 0.46411 0.0
O175 O 0.89066 0.75434 0.50237 0.0
O176 O 0.91447 0.81151 0.52129 0.0
C177 C 0.91004 0.80201 0.34917 0.0
C178 C 0.96317 0.74331 0.55283 0.0
C179 C 0.96294 0.72482 0.36759 0.0
C180 C 0.00477 0.80266 0.42881 0.0
C181 C 0.88258 0.73836 0.47323 0.0
C182 C 0.91966 0.83218 0.50058 0.0
O183 O 0.90206 0.78111 0.3655 0.0
O184 O 0.66951 0.55351 0.62737 0.0
Zn185 Zn 0.67751 0.54188 0.56459 0.0
O186 O 0.71263 0.54767 0.54885 0.0
Zn187 Zn 0.73034 0.51498 0.54153 0.0
Zn188 Zn 0.72761 0.56743 0.59712 0.0
Zn189 Zn 0.71384 0.56818 0.49442 0.0
O190 O 0.74692 0.51377 0.47772 0.0
O191 O 0.72861 0.54733 0.44493 0.0
O192 O 0.66791 0.5055 0.55771 0.0
O193 O 0.70453 0.48585 0.5442 0.0
O194 O 0.75412 0.50896 0.59643 0.0
O195 O 0.74948 0.54526 0.6342 0.0
O196 O 0.74816 0.59675 0.57484 0.0
O197 O 0.65458 0.56315 0.52672 0.0
O198 O 0.73695 0.59824 0.50243 0.0
O199 O 0.67947 0.58231 0.47668 0.0
C200 C 0.67952 0.57155 0.64997 0.0
C201 C 0.74232 0.52742 0.44256 0.0
C202 C 0.75861 0.52297 0.63112 0.0
C203 C 0.68053 0.4853 0.55044 0.0
C204 C 0.74935 0.60711 0.53598 0.0
C205 C 0.65764 0.57855 0.49399 0.0
O206 O 0.70105 0.58075 0.63922 0.0
O207 O 0.55854 0.32203 0.3976 0.0
Zn208 Zn 0.54049 0.31171 0.45435 0.0
O209 O 0.54397 0.27568 0.46531 0.0
Zn210 Zn 0.51054 0.25914 0.469 0.0
Zn211 Zn 0.56424 0.26099 0.41773 0.0
Zn212 Zn 0.56302 0.27163 0.52043 0.0
O213 O 0.50697 0.24191 0.53185 0.0
O214 O 0.5396 0.25975 0.56846 0.0
O215 O 0.50418 0.32169 0.4499 0.0
O216 O 0.48272 0.28614 0.46415 0.0
O217 O 0.5052 0.23588 0.41301 0.0
O218 O 0.54178 0.24165 0.37678 0.0
O219 O 0.59039 0.23686 0.44096 0.0
O220 O 0.55758 0.3326 0.50249 0.0
O221 O 0.58866 0.24389 0.51497 0.0
O222 O 0.58123 0.30407 0.53847 0.0
C223 C 0.57549 0.311 0.37401 0.0
C224 C 0.51939 0.24634 0.56851 0.0
C225 C 0.51949 0.23236 0.37842 0.0
C226 C 0.48325 0.3099 0.45516 0.0
C227 C 0.59764 0.23198 0.48112 0.0
C228 C 0.57523 0.32707 0.5303 0.0
O229 O 0.58107 0.28773 0.38031 0.0
O230 O 0.31396 0.43233 0.63053 0.0
Zn231 Zn 0.30665 0.44812 0.57007 0.0
O232 O 0.27172 0.44324 0.55098 0.0
Zn233 Zn 0.25507 0.47633 0.54483 0.0
Zn234 Zn 0.25522 0.42318 0.59684 0.0
Zn235 Zn 0.27034 0.42388 0.49501 0.0
O236 O 0.23724 0.47845 0.48296 0.0
O237 O 0.25448 0.44542 0.44686 0.0
O238 O 0.31642 0.48481 0.57105 0.0
O239 O 0.28177 0.5043 0.54553 0.0
O240 O 0.23213 0.48294 0.60021 0.0
O241 O 0.23391 0.44544 0.63494 0.0
O242 O 0.23364 0.39569 0.57124 0.0
O243 O 0.32997 0.42998 0.52746 0.0
O244 O 0.24749 0.39336 0.50049 0.0
O245 O 0.3051 0.41112 0.47658 0.0
C246 C 0.30266 0.414 0.65017 0.0
C247 C 0.24065 0.46533 0.44687 0.0
C248 C 0.22621 0.46834 0.63327 0.0
C249 C 0.30488 0.50488 0.55862 0.0
C250 C 0.23352 0.38515 0.53249 0.0
C251 C 0.32706 0.41557 0.49313 0.0
O252 O 0.28064 0.40674 0.6378 0.0
O253 O 0.43507 0.67522 0.36642 0.0
Zn254 Zn 0.44838 0.68103 0.42915 0.0
O255 O 0.44142 0.71496 0.45133 0.0
Zn256 Zn 0.47298 0.73428 0.45895 0.0
Zn257 Zn 0.41957 0.73077 0.40725 0.0
Zn258 Zn 0.42323 0.71316 0.50798 0.0
O259 O 0.4741 0.75098 0.52257 0.0
O260 O 0.44439 0.72782 0.55711 0.0
O261 O 0.48555 0.67378 0.43026 0.0
O262 O 0.50277 0.70973 0.45597 0.0
O263 O 0.47734 0.75837 0.40425 0.0
O264 O 0.43966 0.75498 0.37058 0.0
O265 O 0.3901 0.74825 0.4353 0.0
O266 O 0.42968 0.65532 0.46667 0.0
O267 O 0.39203 0.73496 0.50663 0.0
O268 O 0.41202 0.6774 0.52253 0.0
C269 C 0.41595 0.68535 0.3472 0.0
C270 C 0.46233 0.7441 0.5586 0.0
C271 C 0.46215 0.76384 0.37171 0.0
C272 C 0.50483 0.68675 0.44246 0.0
C273 C 0.38134 0.74772 0.4754 0.0
C274 C 0.41586 0.65643 0.50201 0.0
O275 O 0.40605 0.70562 0.36264 0.0
O276 O 0.23079 0.52188 0.98074 0.0
Zn277 Zn 0.24006 0.54105 0.03856 0.0
O278 O 0.27664 0.54853 0.0391 0.0
Zn279 Zn 0.29175 0.53597 0.09419 0.0
Zn280 Zn 0.29399 0.53282 0.98866 0.0
Zn281 Zn 0.28225 0.58491 0.03627 0.0
O282 O 0.31454 0.56182 0.12307 0.0
O283 O 0.30179 0.59742 0.08987 0.0
O284 O 0.22841 0.52478 0.09884 0.0
O285 O 0.26436 0.52901 0.13822 0.0
O286 O 0.31163 0.50385 0.08431 0.0
O287 O 0.31407 0.5025 0.00926 0.0
O288 O 0.31859 0.55754 0.95906 0.0
O289 O 0.22047 0.57378 0.03304 0.0
O290 O 0.30425 0.59459 0.98422 0.0
O291 O 0.24995 0.60405 0.03176 0.0
C292 C 0.24399 0.51673 0.94559 0.0
C293 C 0.3151 0.58592 0.11943 0.0
C294 C 0.31933 0.49326 0.04805 0.0
C295 C 0.24074 0.52401 0.13624 0.0
C296 C 0.31915 0.58179 0.95922 0.0
C297 C 0.22681 0.59713 0.03061 0.0
O298 O 0.26788 0.52078 0.94395 0.0
O299 O 0.55508 0.66306 0.88765 0.0
Zn300 Zn 0.53621 0.67378 0.94304 0.0
O301 O 0.54207 0.70926 0.95702 0.0
Zn302 Zn 0.50979 0.72787 0.96081 0.0
Zn303 Zn 0.56381 0.72348 0.91082 0.0
Zn304 Zn 0.56051 0.71095 0.01328 0.0
O305 O 0.50664 0.74489 0.0242 0.0
O306 O 0.53799 0.72502 0.06061 0.0
O307 O 0.49944 0.6666 0.93413 0.0
O308 O 0.48034 0.7028 0.95306 0.0
O309 O 0.50655 0.75193 0.90562 0.0
O310 O 0.54307 0.7448 0.86998 0.0
O311 O 0.59158 0.74496 0.9366 0.0
O312 O 0.55062 0.65075 0.99065 0.0
O313 O 0.58936 0.73559 0.00977 0.0
O314 O 0.5745 0.6768 0.03186 0.0
C315 C 0.57308 0.6734 0.8656 0.0
C316 C 0.51873 0.73964 0.06083 0.0
C317 C 0.52126 0.75515 0.87151 0.0
C318 C 0.47936 0.67958 0.94033 0.0
C319 C 0.59946 0.74762 0.97707 0.0
C320 C 0.56747 0.65441 0.02097 0.0
O321 O 0.57965 0.69634 0.87286 0.0
O322 O 0.66405 0.4254 0.11773 0.0
Zn323 Zn 0.67337 0.44153 0.05885 0.0
O324 O 0.70919 0.4379 0.04593 0.0
Zn325 Zn 0.72548 0.47155 0.04028 0.0
Zn326 Zn 0.72452 0.41822 0.09409 0.0
Zn327 Zn 0.71252 0.41836 0.9909 0.0
O328 O 0.74272 0.4745 0.9772 0.0
O329 O 0.72567 0.44084 0.94249 0.0
O330 O 0.66324 0.47782 0.06083 0.0
O331 O 0.69837 0.49937 0.04416 0.0
O332 O 0.74874 0.4779 0.09587 0.0
O333 O 0.74506 0.44116 0.13261 0.0
O334 O 0.7468 0.3903 0.07113 0.0
O335 O 0.6518 0.42313 0.01348 0.0
O336 O 0.73842 0.39093 0.99743 0.0
O337 O 0.67952 0.40181 0.97163 0.0
C338 C 0.67538 0.40913 0.14236 0.0
C339 C 0.7387 0.46127 0.94131 0.0
C340 C 0.75342 0.46383 0.13034 0.0
C341 C 0.67474 0.49876 0.05395 0.0
C342 C 0.75027 0.3818 0.03127 0.0
C343 C 0.65673 0.40679 0.98292 0.0
O344 O 0.69838 0.403 0.13503 0.0
O345 O 0.42554 0.31881 0.88531 0.0
Zn346 Zn 0.44425 0.30905 0.94198 0.0
O347 O 0.43696 0.27479 0.96151 0.0
Zn348 Zn 0.46872 0.25534 0.9665 0.0
Zn349 Zn 0.41453 0.26019 0.91704 0.0
Zn350 Zn 0.41842 0.2755 0.01793 0.0
O351 O 0.47096 0.23868 0.0302 0.0
O352 O 0.4398 0.2596 0.06512 0.0
O353 O 0.48119 0.31457 0.9334 0.0
O354 O 0.49922 0.27933 0.95957 0.0
O355 O 0.47135 0.23118 0.9115 0.0
O356 O 0.43468 0.23838 0.87611 0.0
O357 O 0.38673 0.23989 0.94452 0.0
O358 O 0.43205 0.33393 0.98804 0.0
O359 O 0.38705 0.25354 0.01571 0.0
O360 O 0.40905 0.31133 0.03657 0.0
C361 C 0.40585 0.30889 0.86751 0.0
C362 C 0.45859 0.24438 0.06626 0.0
C363 C 0.45647 0.22796 0.87753 0.0
C364 C 0.50091 0.30183 0.94347 0.0
C365 C 0.37744 0.24003 0.98422 0.0
C366 C 0.41726 0.33264 0.02204 0.0
O367 O 0.39804 0.28698 0.87926 0.0
H368 H 0.18803 0.12002 0.17516 0.0
H369 H 0.14251 0.05382 0.20608 0.0
H370 H 0.16221 0.14551 0.22574 0.0
H371 H 0.1175 0.0789 0.25933 0.0
H372 H 0.12655 0.18062 0.34897 0.0
H373 H 0.15272 0.15426 0.30033 0.0
H374 H 0.08633 0.11028 0.26238 0.0
H375 H 0.06053 0.1358 0.31373 0.0
C376 C 0.17282 0.11081 0.1937 0.0
C377 C 0.16724 0.08498 0.18683 0.0
C378 C 0.15803 0.12539 0.2229 0.0
C379 C 0.13768 0.11433 0.24675 0.0
C380 C 0.13263 0.08823 0.24081 0.0
C381 C 0.1471 0.07376 0.21071 0.0
C382 C 0.11756 0.1654 0.32998 0.0
C383 C 0.09154 0.16026 0.33485 0.0
C384 C 0.13254 0.1503 0.30192 0.0
C385 C 0.1217 0.1301 0.27721 0.0
C386 C 0.09548 0.1253 0.28157 0.0
C387 C 0.0806 0.14006 0.31056 0.0
H388 H 0.10296 0.78673 0.79542 0.0
H389 H 0.05903 0.85378 0.82815 0.0
H390 H 0.12695 0.81117 0.73987 0.0
H391 H 0.08341 0.87823 0.77332 0.0
H392 H 0.11858 0.90823 0.64209 0.0
H393 H 0.09193 0.88284 0.6922 0.0
H394 H 0.15874 0.84521 0.74472 0.0
H395 H 0.18538 0.87015 0.69409 0.0
C396 C 0.09831 0.80661 0.79059 0.0
C397 C 0.07924 0.81837 0.81645 0.0
C398 C 0.11216 0.82063 0.75901 0.0
C399 C 0.10722 0.84664 0.75274 0.0
C400 C 0.08751 0.85816 0.77727 0.0
C401 C 0.07362 0.84415 0.8088 0.0
C402 C 0.1276 0.89462 0.66445 0.0
C403 C 0.15409 0.89118 0.6641 0.0
C404 C 0.11233 0.88011 0.69315 0.0
C405 C 0.12327 0.86195 0.72205 0.0
C406 C 0.14976 0.85874 0.72213 0.0
C407 C 0.16503 0.87319 0.69341 0.0
H408 H 0.85891 0.79832 0.33784 0.0
H409 H 0.92541 0.83741 0.28752 0.0
H410 H 0.83193 0.825 0.29094 0.0
H411 H 0.89861 0.86318 0.23833 0.0
H412 H 0.84431 0.92395 0.19278 0.0
H413 H 0.87005 0.89705 0.24178 0.0
H414 H 0.81837 0.83426 0.21786 0.0
H415 H 0.79195 0.86168 0.17124 0.0
C416 C 0.86778 0.81224 0.31585 0.0
C417 C 0.89422 0.81587 0.31631 0.0
C418 C 0.85232 0.82754 0.28885 0.0
C419 C 0.86302 0.84645 0.26103 0.0
C420 C 0.88962 0.84931 0.26022 0.0
C421 C 0.90504 0.83436 0.28797 0.0
C422 C 0.83835 0.90448 0.19858 0.0
C423 C 0.81615 0.89489 0.1784 0.0
C424 C 0.85324 0.88894 0.2262 0.0
C425 C 0.84652 0.86332 0.23339 0.0
C426 C 0.824 0.85394 0.2137 0.0
C427 C 0.80884 0.86965 0.18687 0.0
H428 H 0.82832 0.05635 0.71901 0.0
H429 H 0.8121 0.12733 0.65078 0.0
H430 H 0.85291 0.07946 0.77609 0.0
H431 H 0.83724 0.1501 0.70642 0.0
H432 H 0.86295 0.18713 0.83583 0.0
H433 H 0.83669 0.16283 0.78362 0.0
H434 H 0.89245 0.10249 0.78329 0.0
H435 H 0.91835 0.12646 0.8371 0.0
C436 C 0.83002 0.07684 0.7162 0.0
C437 C 0.81822 0.09003 0.68053 0.0
C438 C 0.84422 0.09004 0.74866 0.0
C439 C 0.847 0.11661 0.74575 0.0
C440 C 0.83508 0.12971 0.71015 0.0
C441 C 0.82074 0.1166 0.67809 0.0
C442 C 0.86967 0.16872 0.8245 0.0
C443 C 0.89278 0.15876 0.8403 0.0
C444 C 0.85464 0.15481 0.79451 0.0
C445 C 0.86254 0.13078 0.77918 0.0
C446 C 0.88567 0.12079 0.795 0.0
C447 C 0.9006 0.13461 0.82547 0.0
H448 H 0.60996 0.68938 0.80705 0.0
H449 H 0.56977 0.62212 0.85209 0.0
H450 H 0.63606 0.66319 0.75753 0.0
H451 H 0.59634 0.59592 0.80349 0.0
H452 H 0.62977 0.5632 0.67149 0.0
H453 H 0.60377 0.5874 0.72408 0.0
H454 H 0.66958 0.63162 0.76348 0.0
H455 H 0.69554 0.60786 0.70991 0.0
C456 C 0.60669 0.66903 0.80638 0.0
C457 C 0.58779 0.65783 0.83344 0.0
C458 C 0.6218 0.654 0.77835 0.0
C459 C 0.6184 0.62748 0.777 0.0
C460 C 0.59926 0.61633 0.80355 0.0
C461 C 0.58406 0.63136 0.83141 0.0
C462 C 0.6388 0.57785 0.69178 0.0
C463 C 0.66467 0.58376 0.68628 0.0
C464 C 0.62388 0.59169 0.72198 0.0
C465 C 0.63459 0.61159 0.74749 0.0
C466 C 0.6607 0.61674 0.7435 0.0
C467 C 0.6756 0.60299 0.71311 0.0
H468 H 0.57172 0.36186 0.3561 0.0
H469 H 0.61145 0.29363 0.315 0.0
H470 H 0.59647 0.38655 0.30201 0.0
H471 H 0.63577 0.31832 0.26034 0.0
H472 H 0.69321 0.37421 0.20316 0.0
H473 H 0.66895 0.35113 0.26019 0.0
H474 H 0.60096 0.39127 0.21992 0.0
H475 H 0.62521 0.41474 0.16356 0.0
C476 C 0.58558 0.35209 0.33531 0.0
C477 C 0.58964 0.32578 0.33986 0.0
C478 C 0.59969 0.36624 0.30428 0.0
C479 C 0.6181 0.35436 0.27716 0.0
C480 C 0.62199 0.32804 0.28137 0.0
C481 C 0.60792 0.31388 0.31244 0.0
C482 C 0.67313 0.37824 0.20666 0.0
C483 C 0.66112 0.39623 0.17872 0.0
C484 C 0.65922 0.36491 0.23912 0.0
C485 C 0.63306 0.36929 0.24421 0.0
C486 C 0.62116 0.38767 0.217 0.0
C487 C 0.63505 0.40103 0.18459 0.0
H488 H 0.35536 0.30441 0.85017 0.0
H489 H 0.42216 0.34737 0.81269 0.0
H490 H 0.3295 0.33085 0.80093 0.0
H491 H 0.39662 0.37299 0.76109 0.0
H492 H 0.34152 0.43028 0.70433 0.0
H493 H 0.36595 0.40509 0.75829 0.0
H494 H 0.32006 0.33912 0.7256 0.0
H495 H 0.29487 0.3647 0.67398 0.0
C496 C 0.36457 0.31925 0.83067 0.0
C497 C 0.39074 0.32383 0.83508 0.0
C498 C 0.34977 0.33439 0.80229 0.0
C499 C 0.36091 0.35411 0.7769 0.0
C500 C 0.38726 0.35836 0.78082 0.0
C501 C 0.40197 0.34353 0.81 0.0
C502 C 0.33654 0.41046 0.70923 0.0
C503 C 0.31629 0.39944 0.68516 0.0
C504 C 0.35068 0.39593 0.73978 0.0
C505 C 0.34516 0.36996 0.74614 0.0
C506 C 0.32463 0.35912 0.72231 0.0
C507 C 0.3102 0.37377 0.69253 0.0
H508 H 0.34244 0.56895 0.19216 0.0
H509 H 0.3256 0.63674 0.11466 0.0
H510 H 0.36905 0.59398 0.24303 0.0
H511 H 0.3527 0.66159 0.16495 0.0
H512 H 0.37334 0.69981 0.30124 0.0
H513 H 0.35075 0.67607 0.24305 0.0
H514 H 0.40878 0.618 0.24631 0.0
H515 H 0.43119 0.64146 0.30548 0.0
C516 C 0.34458 0.58913 0.18576 0.0
C517 C 0.33174 0.6009 0.14963 0.0
C518 C 0.35999 0.60343 0.21467 0.0
C519 C 0.36295 0.62973 0.20791 0.0
C520 C 0.35051 0.6414 0.1713 0.0
C521 C 0.33502 0.62714 0.14249 0.0
C522 C 0.38146 0.68212 0.28927 0.0
C523 C 0.40392 0.67239 0.30832 0.0
C524 C 0.36857 0.66858 0.25571 0.0
C525 C 0.37793 0.6451 0.24038 0.0
C526 C 0.40093 0.63586 0.25806 0.0
C527 C 0.41381 0.64937 0.29174 0.0
H528 H 0.13309 0.97216 0.09531 0.0
H529 H 0.19593 0.93224 0.03339 0.0
H530 H 0.10735 0.93387 0.09101 0.0
H531 H 0.16976 0.89371 0.02883 0.0
H532 H 0.11823 0.82413 0.05553 0.0
H533 H 0.14575 0.86026 0.07488 0.0
H534 H 0.08872 0.91199 0.02415 0.0
H535 H 0.06139 0.87622 0.00502 0.0
C536 C 0.14153 0.95517 0.08102 0.0
C537 C 0.16651 0.95541 0.06402 0.0
C538 C 0.1267 0.93322 0.07858 0.0
C539 C 0.13644 0.91092 0.05914 0.0
C540 C 0.16182 0.91065 0.0442 0.0
C541 C 0.17674 0.93273 0.04658 0.0
C542 C 0.11143 0.84326 0.04931 0.0
C543 C 0.08766 0.84735 0.0287 0.0
C544 C 0.12727 0.86387 0.06 0.0
C545 C 0.11939 0.8889 0.05094 0.0
C546 C 0.09522 0.89294 0.03197 0.0
C547 C 0.07959 0.87242 0.02083 0.0
H548 H 0.82386 0.86161 0.97519 0.0
H549 H 0.86953 0.92959 0.96499 0.0
H550 H 0.86136 0.83556 0.96326 0.0
H551 H 0.90688 0.90384 0.94899 0.0
H552 H 0.97342 0.85432 0.98544 0.0
H553 H 0.93501 0.87961 0.98814 0.0
H554 H 0.89372 0.81886 0.92111 0.0
H555 H 0.93214 0.79285 0.92202 0.0
C556 C 0.84186 0.87096 0.96866 0.0
C557 C 0.84393 0.89754 0.97121 0.0
C558 C 0.86346 0.85602 0.9617 0.0
C559 C 0.8875 0.86742 0.95597 0.0
C560 C 0.889 0.89421 0.95498 0.0
C561 C 0.86755 0.90908 0.96341 0.0
C562 C 0.95605 0.8464 0.97149 0.0
C563 C 0.95564 0.82166 0.9537 0.0
C564 C 0.93399 0.86103 0.97241 0.0
C565 C 0.91105 0.85161 0.95422 0.0
C566 C 0.9108 0.82676 0.93608 0.0
C567 C 0.9328 0.81182 0.9364 0.0
H568 H 0.92507 0.10633 0.03627 0.0
H569 H 0.86503 0.15813 0.07386 0.0
H570 H 0.89747 0.07039 0.05237 0.0
H571 H 0.83722 0.12187 0.09047 0.0
H572 H 0.84858 0.00884 0.10569 0.0
H573 H 0.87446 0.04705 0.11062 0.0
H574 H 0.81617 0.08949 0.04062 0.0
H575 H 0.78983 0.05113 0.03632 0.0
C576 C 0.90615 0.11001 0.04912 0.0
C577 C 0.89719 0.13504 0.05357 0.0
C578 C 0.89032 0.0894 0.0585 0.0
C579 C 0.86507 0.09329 0.07232 0.0
C580 C 0.85651 0.11832 0.07936 0.0
C581 C 0.87251 0.13904 0.07037 0.0
C582 C 0.8411 0.02633 0.09159 0.0
C583 C 0.81728 0.02681 0.06985 0.0
C584 C 0.85598 0.04824 0.09451 0.0
C585 C 0.8475 0.07121 0.07562 0.0
C586 C 0.82315 0.0721 0.05584 0.0
C587 C 0.80814 0.05009 0.05304 0.0
H588 H 0.00607 0.12288 0.92776 0.0
H589 H 0.04942 0.1882 0.97283 0.0
H590 H 0.04458 0.09741 0.9271 0.0
H591 H 0.08797 0.16241 0.97288 0.0
H592 H 0.10837 0.05554 0.00584 0.0
H593 H 0.07106 0.08074 0.98815 0.0
H594 H 0.11861 0.13792 0.92575 0.0
H595 H 0.1563 0.11269 0.94409 0.0
C596 C 0.02382 0.13187 0.93738 0.0
C597 C 0.02459 0.15753 0.95098 0.0
C598 C 0.04589 0.11723 0.93699 0.0
C599 C 0.06925 0.12784 0.95026 0.0
C600 C 0.07027 0.15376 0.96206 0.0
C601 C 0.04815 0.16847 0.96239 0.0
C602 C 0.11091 0.07327 0.98767 0.0
C603 C 0.13532 0.08221 0.9767 0.0
C604 C 0.08947 0.08767 0.97729 0.0
C605 C 0.09191 0.1114 0.95581 0.0
C606 C 0.11621 0.11982 0.94281 0.0
C607 C 0.13774 0.10528 0.95294 0.0
H608 H 0.81001 0.94387 0.59129 0.0
H609 H 0.86364 0.98727 0.51231 0.0
H610 H 0.83713 0.9063 0.58473 0.0
H611 H 0.89182 0.95077 0.50884 0.0
H612 H 0.91643 0.8756 0.45154 0.0
H613 H 0.89343 0.91373 0.46909 0.0
H614 H 0.87407 0.88325 0.60093 0.0
H615 H 0.89616 0.84373 0.58167 0.0
C616 C 0.82788 0.94539 0.57329 0.0
C617 C 0.83461 0.96812 0.55144 0.0
C618 C 0.84358 0.92399 0.56986 0.0
C619 C 0.86659 0.92522 0.54553 0.0
C620 C 0.87388 0.94867 0.52638 0.0
C621 C 0.85785 0.9697 0.52855 0.0
C622 C 0.9076 0.87699 0.4846 0.0
C623 C 0.90816 0.85652 0.51521 0.0
C624 C 0.89446 0.89915 0.49492 0.0
C625 C 0.88191 0.9019 0.53669 0.0
C626 C 0.88318 0.88174 0.56815 0.0
C627 C 0.89602 0.85917 0.55735 0.0
H628 H 0.8311 0.13303 0.50583 0.0
H629 H 0.85822 0.0691 0.42735 0.0
H630 H 0.86965 0.15621 0.48916 0.0
H631 H 0.8967 0.09297 0.40885 0.0
H632 H 0.97471 0.12649 0.44997 0.0
H633 H 0.93383 0.10496 0.44935 0.0
H634 H 0.89585 0.17755 0.43717 0.0
H635 H 0.93685 0.19917 0.43983 0.0
C636 C 0.84504 0.1241 0.48404 0.0
C637 C 0.8417 0.099 0.46849 0.0
C638 C 0.86718 0.13756 0.47415 0.0
C639 C 0.88649 0.12642 0.44799 0.0
C640 C 0.88244 0.10192 0.42992 0.0
C641 C 0.8603 0.08831 0.44019 0.0
C642 C 0.95764 0.13786 0.44688 0.0
C643 C 0.959 0.16456 0.44559 0.0
C644 C 0.93416 0.12548 0.44604 0.0
C645 C 0.91145 0.13948 0.44334 0.0
C646 C 0.91291 0.16617 0.44015 0.0
C647 C 0.93641 0.17858 0.44159 0.0
H648 H 0.11783 0.15464 0.57125 0.0
H649 H 0.05819 0.10586 0.51974 0.0
H650 H 0.14369 0.11712 0.58817 0.0
H651 H 0.08395 0.06873 0.53585 0.0
H652 H 0.12801 0.00412 0.59013 0.0
H653 H 0.10308 0.04287 0.59429 0.0
H654 H 0.16629 0.08568 0.54012 0.0
H655 H 0.19166 0.04677 0.53692 0.0
C656 C 0.11 0.13593 0.56455 0.0
C657 C 0.08603 0.13319 0.54392 0.0
C658 C 0.12491 0.11449 0.57377 0.0
C659 C 0.11596 0.08998 0.563 0.0
C660 C 0.09136 0.08729 0.54498 0.0
C661 C 0.0766 0.10862 0.53553 0.0
C662 C 0.13674 0.0218 0.57939 0.0
C663 C 0.16171 0.02228 0.56244 0.0
C664 C 0.12241 0.04402 0.58181 0.0
C665 C 0.13258 0.06729 0.56706 0.0
C666 C 0.15797 0.06806 0.55211 0.0
C667 C 0.17244 0.04575 0.54992 0.0
H668 H 0.10868 0.92371 0.46213 0.0
H669 H 0.16084 0.86273 0.43128 0.0
H670 H 0.07302 0.89623 0.44297 0.0
H671 H 0.12492 0.83508 0.41192 0.0
H672 H 0.05189 0.78942 0.46201 0.0
H673 H 0.09066 0.81521 0.46042 0.0
H674 H 0.05174 0.87241 0.38164 0.0
H675 H 0.01314 0.84703 0.38351 0.0
C676 C 0.11255 0.90462 0.45013 0.0
C677 C 0.13755 0.89537 0.44841 0.0
C678 C 0.09211 0.88886 0.43904 0.0
C679 C 0.09617 0.8634 0.42632 0.0
C680 C 0.12124 0.85454 0.42208 0.0
C681 C 0.14178 0.87046 0.43268 0.0
C682 C 0.05173 0.80731 0.44381 0.0
C683 C 0.02927 0.81634 0.42363 0.0
C684 C 0.07398 0.82201 0.44264 0.0
C685 C 0.07413 0.84596 0.42127 0.0
C686 C 0.05208 0.85424 0.39897 0.0
C687 C 0.02995 0.83963 0.40012 0.0
H688 H 0.63223 0.4774 0.52234 0.0
H689 H 0.69726 0.43839 0.57802 0.0
H690 H 0.60783 0.43833 0.52457 0.0
H691 H 0.67228 0.39916 0.58318 0.0
H692 H 0.62679 0.32813 0.53535 0.0
H693 H 0.65346 0.36584 0.54328 0.0
H694 H 0.58655 0.41089 0.57168 0.0
H695 H 0.56 0.37345 0.56021 0.0
C696 C 0.64122 0.46039 0.53549 0.0
C697 C 0.66661 0.4609 0.54999 0.0
C698 C 0.62711 0.43796 0.5374 0.0
C699 C 0.63777 0.41549 0.55501 0.0
C700 C 0.66339 0.41596 0.56913 0.0
C701 C 0.67775 0.43841 0.56623 0.0
C702 C 0.61795 0.34604 0.54434 0.0
C703 C 0.59138 0.34801 0.54692 0.0
C704 C 0.63323 0.36773 0.54887 0.0
C705 C 0.62222 0.39171 0.55699 0.0
C706 C 0.59572 0.39302 0.56364 0.0
C707 C 0.58046 0.37151 0.55783 0.0
H708 H 0.32804 0.3715 0.44325 0.0
H709 H 0.3768 0.42781 0.5057 0.0
H710 H 0.36529 0.34529 0.42632 0.0
H711 H 0.41369 0.40171 0.48923 0.0
H712 H 0.47787 0.35908 0.42764 0.0
H713 H 0.43957 0.38477 0.42721 0.0
H714 H 0.39598 0.32028 0.4742 0.0
H715 H 0.43446 0.2942 0.47408 0.0
C716 C 0.34671 0.37852 0.45252 0.0
C717 C 0.34949 0.40169 0.47595 0.0
C718 C 0.36797 0.3634 0.44323 0.0
C719 C 0.39238 0.37137 0.45667 0.0
C720 C 0.39518 0.39512 0.47805 0.0
C721 C 0.37401 0.41006 0.48767 0.0
C722 C 0.46014 0.35021 0.43761 0.0
C723 C 0.45933 0.32462 0.45158 0.0
C724 C 0.43818 0.365 0.43735 0.0
C725 C 0.41483 0.35463 0.45109 0.0
C726 C 0.4137 0.32875 0.46312 0.0
C727 C 0.43576 0.31386 0.46336 0.0
H728 H 0.34595 0.51835 0.6098 0.0
H729 H 0.29685 0.54534 0.50257 0.0
H730 H 0.37302 0.55598 0.60057 0.0
H731 H 0.32438 0.58257 0.49275 0.0
H732 H 0.40481 0.61518 0.44992 0.0
H733 H 0.37642 0.57995 0.46813 0.0
H734 H 0.36537 0.6104 0.60247 0.0
H735 H 0.39341 0.64639 0.58408 0.0
C736 C 0.34081 0.53245 0.58464 0.0
C737 C 0.31937 0.52891 0.55673 0.0
C738 C 0.35622 0.55394 0.57955 0.0
C739 C 0.35072 0.5719 0.54588 0.0
C740 C 0.32892 0.56882 0.5189 0.0
C741 C 0.31318 0.54764 0.52464 0.0
C742 C 0.39664 0.6143 0.48358 0.0
C743 C 0.40136 0.63358 0.51562 0.0
C744 C 0.38024 0.59425 0.49375 0.0
C745 C 0.36865 0.59278 0.53641 0.0
C746 C 0.3741 0.61134 0.56927 0.0
C747 C 0.39013 0.6318 0.55877 0.0
H748 H 0.52049 0.64777 0.38855 0.0
H749 H 0.54546 0.69713 0.49717 0.0
H750 H 0.55982 0.62321 0.39536 0.0
H751 H 0.58449 0.67204 0.50454 0.0
H752 H 0.61526 0.58826 0.54315 0.0
H753 H 0.58091 0.61752 0.52524 0.0
H754 H 0.61591 0.63475 0.39673 0.0
H755 H 0.65118 0.60575 0.41502 0.0
C756 C 0.53454 0.65357 0.4134 0.0
C757 C 0.52988 0.6742 0.44264 0.0
C758 C 0.55703 0.63965 0.41699 0.0
C759 C 0.57495 0.64589 0.45036 0.0
C760 C 0.57085 0.66708 0.47839 0.0
C761 C 0.5486 0.68136 0.47418 0.0
C762 C 0.61567 0.59807 0.51084 0.0
C763 C 0.63591 0.5946 0.48035 0.0
C764 C 0.59612 0.61497 0.50092 0.0
C765 C 0.5961 0.62842 0.45997 0.0
C766 C 0.61579 0.62459 0.42867 0.0
C767 C 0.6358 0.608 0.43906 0.0
H768 H 0.37509 0.33941 0.07537 0.0
H769 H 0.43587 0.38041 0.009 0.0
H770 H 0.35298 0.3796 0.08892 0.0
H771 H 0.41385 0.42031 0.02275 0.0
H772 H 0.34697 0.47167 0.98033 0.0
H773 H 0.37325 0.43379 0.98404 0.0
H774 H 0.35417 0.42432 0.12539 0.0
H775 H 0.32764 0.46256 0.12189 0.0
C776 C 0.38408 0.357 0.06488 0.0
C777 C 0.40695 0.3567 0.04027 0.0
C778 C 0.37142 0.37999 0.07267 0.0
C779 C 0.38149 0.40292 0.05596 0.0
C780 C 0.40544 0.4028 0.0351 0.0
C781 C 0.41806 0.37994 0.02737 0.0
C782 C 0.34834 0.46161 0.01229 0.0
C783 C 0.3352 0.47013 0.0508 0.0
C784 C 0.3636 0.44003 0.0145 0.0
C785 C 0.36594 0.42632 0.05516 0.0
C786 C 0.35269 0.43462 0.0937 0.0
C787 C 0.33759 0.45649 0.09164 0.0
H788 H 0.32063 0.63169 0.93403 0.0
H789 H 0.36602 0.56333 0.93766 0.0
H790 H 0.35859 0.65683 0.91861 0.0
H791 H 0.40406 0.58843 0.92417 0.0
H792 H 0.47003 0.63745 0.88916 0.0
H793 H 0.43002 0.61484 0.87956 0.0
H794 H 0.39277 0.6702 0.96517 0.0
H795 H 0.43267 0.69341 0.97305 0.0
C796 C 0.33867 0.62197 0.93052 0.0
C797 C 0.3404 0.59557 0.93755 0.0
C798 C 0.36047 0.63642 0.92222 0.0
C799 C 0.38452 0.62481 0.9213 0.0
C800 C 0.3859 0.5981 0.92443 0.0
C801 C 0.36403 0.58361 0.93215 0.0
C802 C 0.45323 0.64492 0.90563 0.0
C803 C 0.45455 0.66706 0.93236 0.0
C804 C 0.43028 0.6319 0.90018 0.0
C805 C 0.40813 0.64049 0.92185 0.0
C806 C 0.40931 0.66317 0.94735 0.0
C807 C 0.43224 0.67641 0.95226 0.0
H808 H 0.61335 0.65391 0.06522 0.0
H809 H 0.55407 0.60444 0.01431 0.0
H810 H 0.64001 0.61681 0.08041 0.0
H811 H 0.58071 0.56767 0.02884 0.0
H812 H 0.6265 0.50411 0.08582 0.0
H813 H 0.6006 0.54224 0.08764 0.0
H814 H 0.66283 0.58571 0.03164 0.0
H815 H 0.68918 0.5474 0.03055 0.0
C816 C 0.60579 0.63513 0.05817 0.0
C817 C 0.58162 0.63213 0.03835 0.0
C818 C 0.62118 0.61393 0.06641 0.0
C819 C 0.61257 0.58934 0.05543 0.0
C820 C 0.58786 0.58632 0.03803 0.0
C821 C 0.57258 0.60744 0.02956 0.0
C822 C 0.63482 0.52178 0.07406 0.0
C823 C 0.65986 0.5226 0.0574 0.0
C824 C 0.6199 0.54365 0.07512 0.0
C825 C 0.62956 0.56693 0.05941 0.0
C826 C 0.65491 0.56806 0.04434 0.0
C827 C 0.66995 0.5461 0.0434 0.0
H828 H 0.54735 0.28692 0.97746 0.0
H829 H 0.51112 0.34542 0.89724 0.0
H830 H 0.5869 0.31164 0.97703 0.0
H831 H 0.55041 0.36972 0.89664 0.0
H832 H 0.60689 0.41998 0.97899 0.0
H833 H 0.57096 0.39266 0.96079 0.0
H834 H 0.62226 0.33121 0.92858 0.0
H835 H 0.65853 0.35876 0.94685 0.0
C836 C 0.54794 0.30474 0.95906 0.0
C837 C 0.52595 0.31442 0.93818 0.0
C838 C 0.57059 0.31882 0.95861 0.0
C839 C 0.57158 0.34275 0.93728 0.0
C840 C 0.55006 0.35155 0.914 0.0
C841 C 0.52754 0.33758 0.91442 0.0
C842 C 0.61057 0.40081 0.9672 0.0
C843 C 0.63551 0.39151 0.96442 0.0
C844 C 0.58998 0.38516 0.95661 0.0
C845 C 0.59383 0.35976 0.9434 0.0
C846 C 0.61879 0.35067 0.93896 0.0
C847 C 0.6395 0.3665 0.949 0.0
H848 H 0.26678 0.00718 0.65768 0.0
H849 H 0.261 0.93089 0.71132 0.0
H850 H 0.27417 0.02334 0.73417 0.0
H851 H 0.26657 0.947 0.78724 0.0
H852 H 0.27356 0.97931 0.92555 0.0
H853 H 0.28607 0.96587 0.84931 0.0
H854 H 0.2461 0.03039 0.79286 0.0
H855 H 0.23496 0.04423 0.86785 0.0
C856 C 0.26757 -0.0062 0.68555 0.0
C857 C 0.2626 0.96785 0.67834 0.0
C858 C 0.2715 0.00306 0.72962 0.0
C859 C 0.27009 0.98665 0.76743 0.0
C860 C 0.26777 0.96038 0.75945 0.0
C861 C 0.2643 0.95111 0.71552 0.0
C862 C 0.26786 0.99077 0.89679 0.0
C863 C 0.25294 0.01263 0.903 0.0
C864 C 0.27494 0.98305 0.85297 0.0
C865 C 0.26701 -0.00311 0.81444 0.0
C866 C 0.25309 0.01936 0.82122 0.0
C867 C 0.24632 0.02716 0.86467 0.0
H868 H 0.935 0.70949 0.29458 0.0
H869 H 0.01216 0.71239 0.3448 0.0
H870 H 0.95046 0.70531 0.218 0.0
H871 H 0.02781 0.70623 0.26783 0.0
H872 H 0.04143 0.75217 0.13829 0.0
H873 H 0.02998 0.73719 0.21226 0.0
H874 H 0.97088 0.6902 0.15345 0.0
H875 H 0.98189 0.70641 0.0781 0.0
C876 C 0.95536 0.70821 0.2895 0.0
C877 C 0.97237 0.71239 0.3257 0.0
C878 C 0.96427 0.70557 0.24524 0.0
C879 C 0.99046 0.70652 0.23621 0.0
C880 C 0.00747 0.70659 0.27329 0.0
C881 C -0.00148 0.70977 0.31763 0.0
C882 C 0.02608 0.73847 0.14068 0.0
C883 C 0.01233 0.73081 0.10203 0.0
C884 C 0.01973 0.72947 0.18351 0.0
C885 C -0.00046 0.71225 0.18935 0.0
C886 C 0.98638 0.70367 0.15046 0.0
C887 C -0.00736 0.71296 0.10722 0.0
H888 H 0.71202 0.00709 0.92264 0.0
H889 H 0.74145 0.93695 0.8671 0.0
H890 H 0.69769 0.01956 0.84678 0.0
H891 H 0.72835 0.94961 0.7924 0.0
H892 H 0.70801 0.97102 0.65793 0.0
H893 H 0.69848 0.95852 0.73613 0.0
H894 H 0.71873 0.03417 0.78175 0.0
H895 H 0.72683 0.04656 0.70402 0.0
C896 C 0.71527 -0.00572 0.89448 0.0
C897 C 0.72834 0.97127 0.90099 0.0
C898 C 0.70708 0.00139 0.85095 0.0
C899 C 0.71192 0.98569 0.81308 0.0
C900 C 0.72375 0.96211 0.82039 0.0
C901 C 0.73173 0.955 0.86357 0.0
C902 C 0.70903 0.9852 0.6846 0.0
C903 C 0.71814 0.00968 0.67532 0.0
C904 C 0.704 0.97801 0.7295 0.0
C905 C 0.7086 -0.00491 0.76566 0.0
C906 C 0.71487 0.02042 0.75523 0.0
C907 C 0.71959 0.0276 0.71054 0.0
H908 H 0.01433 0.2449 0.09658 0.0
H909 H 0.93692 0.26575 0.1267 0.0
H910 H 0.0271 0.25748 0.17288 0.0
H911 H 0.94969 0.27974 0.2021 0.0
H912 H 0.97367 0.25279 0.34616 0.0
H913 H 0.95975 0.25785 0.26824 0.0
H914 H 0.0341 0.28657 0.23192 0.0
H915 H 0.04825 0.28028 0.30982 0.0
C916 C 0.00025 0.25302 0.11908 0.0
C917 C 0.97463 0.25397 0.10617 0.0
C918 C 0.00752 0.26039 0.16287 0.0
C919 C 0.98933 0.26929 0.19424 0.0
C920 C 0.96409 0.27232 0.17951 0.0
C921 C 0.95679 0.26446 0.13619 0.0
C922 C 0.98674 0.26107 0.32192 0.0
C923 C 0.01213 0.26578 0.33391 0.0
C924 C 0.9788 0.26399 0.27696 0.0
C925 C -0.00401 0.27206 0.24322 0.0
C926 C 0.02057 0.27955 0.25656 0.0
C927 C 0.0286 0.27625 0.30136 0.0
H928 H 0.72239 0.01801 0.15523 0.0
H929 H 0.70085 0.94338 0.20319 0.0
H930 H 0.71974 0.0343 0.23257 0.0
H931 H 0.69866 0.95957 0.28039 0.0
H932 H 0.69997 -0.00259 0.42025 0.0
H933 H 0.68415 0.98932 0.343 0.0
H934 H 0.75313 0.02157 0.28818 0.0
H935 H 0.76879 0.02941 0.36391 0.0
C936 C 0.71601 0.00533 0.18185 0.0
C937 C 0.71253 0.97926 0.17332 0.0
C938 C 0.7147 0.01461 0.22625 0.0
C939 C 0.70977 -0.002 0.26265 0.0
C940 C 0.70267 0.9728 0.25316 0.0
C941 C 0.70404 0.96351 0.20884 0.0
C942 C 0.71162 0.00283 0.39157 0.0
C943 C 0.73577 0.01374 0.39831 0.0
C944 C 0.70252 -0.00167 0.34747 0.0
C945 C 0.71722 0.0052 0.30952 0.0
C946 C 0.74104 0.0166 0.31655 0.0
C947 C 0.75022 0.0207 0.3602 0.0
H948 H 0.97469 0.24592 0.59474 0.0
H949 H 0.05272 0.26254 0.62897 0.0
H950 H 0.96196 0.25608 0.67207 0.0
H951 H 0.04004 0.27419 0.70555 0.0
H952 H 0.01438 0.24615 0.84722 0.0
H953 H 0.0286 0.25143 0.7696 0.0
H954 H 0.95555 0.28329 0.73355 0.0
H955 H 0.94101 0.27671 0.81107 0.0
C956 C 0.98897 0.2526 0.61847 0.0
C957 C 0.01469 0.25309 0.60616 0.0
C958 C 0.98172 0.25857 0.6629 0.0
C959 C 3e-05 0.26561 0.69566 0.0
C960 C 0.02549 0.26814 0.68187 0.0
C961 C 0.03276 0.26165 0.63784 0.0
C962 C 0.00164 0.25504 0.82309 0.0
C963 C 0.97649 0.26071 0.83514 0.0
C964 C 0.00978 0.25811 0.7783 0.0
C965 C -0.00694 0.26733 0.74468 0.0
C966 C 0.96872 0.2754 0.75802 0.0
C967 C 0.96046 0.27193 0.80264 0.0
H968 H 0.26892 0.93206 0.38559 0.0
H969 H 0.2493 0.01005 0.41458 0.0
H970 H 0.28299 0.94417 0.31002 0.0
H971 H 0.2622 0.02219 0.3381 0.0
H972 H 0.25613 0.96819 0.16551 0.0
H973 H 0.26075 0.9545 0.24369 0.0
H974 H 0.29206 0.02803 0.27913 0.0
H975 H 0.28647 0.04194 0.20094 0.0
C976 C 0.26798 0.95192 0.37588 0.0
C977 C 0.25776 0.97011 0.40566 0.0
C978 C 0.27589 0.95884 0.33244 0.0
C979 C 0.27328 0.98406 0.31734 0.0
C980 C 0.26474 0.0026 0.34845 0.0
C981 C 0.25723 -0.0043 0.39235 0.0
C982 C 0.26493 0.98108 0.18956 0.0
C983 C 0.27059 0.00623 0.17719 0.0
C984 C 0.26755 0.97328 0.23469 0.0
C985 C 0.27622 0.99038 0.26825 0.0
C986 C 0.2846 0.0146 0.25459 0.0
C987 C 0.28171 0.02248 0.20961 0.0
H988 H 0.96477 0.73605 0.83769 0.0
H989 H 0.03522 0.69812 0.80614 0.0
H990 H 0.95174 0.73258 0.75891 0.0
H991 H 0.02181 0.69349 0.72741 0.0
H992 H 0.01041 0.73465 0.58896 0.0
H993 H 0.02 0.72246 0.667 0.0
H994 H 0.93976 0.71167 0.69272 0.0
H995 H 0.93036 0.72519 0.61563 0.0
C996 C 0.97692 0.72581 0.81434 0.0
C997 C 0.00109 0.71758 0.82798 0.0
C998 C 0.96952 0.72387 0.76885 0.0
C999 C 0.986 0.71328 0.7362 0.0
C1000 C 0.00896 0.70248 0.75115 0.0
C1001 C 0.0165 0.70477 0.79645 0.0
C1002 C -0.00505 0.72918 0.61116 0.0
C1003 C 0.96968 0.73124 0.59657 0.0
C1004 C 0.00037 0.72204 0.65595 0.0
C1005 C 0.9806 0.71639 0.68673 0.0
C1006 C 0.95544 0.71655 0.67063 0.0
C1007 C 0.95005 0.72415 0.6263 0.0
H1008 H 0.7764 0.48944 0.41946 0.0
H1009 H 0.72995 0.54897 0.36176 0.0
H1010 H 0.78928 0.47667 0.34305 0.0
H1011 H 0.74151 0.53565 0.28664 0.0
H1012 H 0.76334 0.51411 0.15114 0.0
H1013 H 0.76944 0.53158 0.22706 0.0
H1014 H 0.77221 0.45527 0.28168 0.0
H1015 H 0.76799 0.4381 0.20621 0.0
C1016 C 0.769 0.49983 0.39063 0.0
C1017 C 0.75194 0.52006 0.39697 0.0
C1018 C 0.7763 0.4925 0.3467 0.0
C1019 C 0.76644 0.50501 0.30813 0.0
C1020 C 0.75009 0.52578 0.31496 0.0
C1021 C 0.74312 0.53325 0.35852 0.0
C1022 C 0.76622 0.50112 0.17917 0.0
C1023 C 0.76448 0.47471 0.17258 0.0
C1024 C 0.76934 0.51111 0.22297 0.0
C1025 C 0.77035 0.49491 0.26115 0.0
C1026 C 0.77142 0.46852 0.25365 0.0
C1027 C 0.76876 0.4586 0.20998 0.0
H1028 H 0.48008 0.21272 0.58679 0.0
H1029 H 0.53984 0.25631 0.65123 0.0
H1030 H 0.46652 0.19729 0.66138 0.0
H1031 H 0.52599 0.24195 0.72445 0.0
H1032 H 0.50546 0.21448 0.85535 0.0
H1033 H 0.52198 0.20986 0.77859 0.0
H1034 H 0.44545 0.21345 0.7254 0.0
H1035 H 0.42902 0.21638 0.80169 0.0
C1036 C 0.49033 0.21896 0.61667 0.0
C1037 C 0.51091 0.23593 0.61284 0.0
C1038 C 0.4826 0.21012 0.65947 0.0
C1039 C 0.49522 0.21819 0.69927 0.0
C1040 C 0.51613 0.23465 0.69492 0.0
C1041 C 0.52388 0.24327 0.65253 0.0
C1042 C 0.49213 0.21323 0.82742 0.0
C1043 C 0.46599 0.21663 0.83466 0.0
C1044 C 0.50159 0.21093 0.78323 0.0
C1045 C 0.48514 0.21239 0.74547 0.0
C1046 C 0.45882 0.21247 0.75328 0.0
C1047 C 0.44937 0.21435 0.79736 0.0
H1048 H 0.24491 0.55144 0.21246 0.0
H1049 H 0.20938 0.4839 0.15835 0.0
H1050 H 0.23513 0.53784 0.28893 0.0
H1051 H 0.19903 0.47008 0.23581 0.0
H1052 H 0.238 0.43831 0.36811 0.0
H1053 H 0.22759 0.45391 0.29314 0.0
H1054 H 0.20735 0.52685 0.35021 0.0
H1055 H 0.21854 0.51132 0.42579 0.0
C1056 C 0.23414 0.53402 0.21707 0.0
C1057 C 0.22809 0.51857 0.17971 0.0
C1058 C 0.22835 0.52626 0.261 0.0
C1059 C 0.21654 0.50268 0.26875 0.0
C1060 C 0.20845 0.48821 0.231 0.0
C1061 C 0.21413 0.49616 0.18668 0.0
C1062 C 0.23096 0.45759 0.36495 0.0
C1063 C 0.22973 0.47377 0.40293 0.0
C1064 C 0.22463 0.46645 0.3218 0.0
C1065 C 0.21688 0.49175 0.31539 0.0
C1066 C 0.21365 0.50735 0.35386 0.0
C1067 C 0.22001 0.49845 0.39722 0.0
H1068 H 0.50073 0.77796 0.58164 0.0
H1069 H 0.43915 0.73392 0.63883 0.0
H1070 H 0.51297 0.7916 0.6581 0.0
H1071 H 0.4518 0.74638 0.71391 0.0
H1072 H 0.47225 0.76871 0.84889 0.0
H1073 H 0.4562 0.7757 0.77223 0.0
H1074 H 0.53306 0.77328 0.72072 0.0
H1075 H 0.54898 0.768 0.79694 0.0
C1076 C 0.48973 0.77132 0.61031 0.0
C1077 C 0.46921 0.75452 0.60391 0.0
C1078 C 0.49675 0.77907 0.65422 0.0
C1079 C 0.48347 0.77009 0.69262 0.0
C1080 C 0.4623 0.75423 0.68564 0.0
C1081 C 0.45524 0.74669 0.64214 0.0
C1082 C 0.48573 0.77066 0.8214 0.0
C1083 C 0.51183 0.76703 0.829 0.0
C1084 C 0.47655 0.77434 0.77723 0.0
C1085 C 0.49323 0.77407 0.73976 0.0
C1086 C 0.5195 0.77347 0.74827 0.0
C1087 C 0.52866 0.7702 0.79232 0.0
H1088 H 0.20431 0.53877 0.90122 0.0
H1089 H 0.25677 0.47589 0.89493 0.0
H1090 H 0.18992 0.52915 0.82349 0.0
H1091 H 0.24175 0.46567 0.81856 0.0
H1092 H 0.20006 0.44182 0.697 0.0
H1093 H 0.19589 0.45378 0.77645 0.0
H1094 H 0.22231 0.52946 0.74519 0.0
H1095 H 0.22709 0.51743 0.66535 0.0
C1096 C 0.21204 0.52237 0.88378 0.0
C1097 C 0.23144 0.50786 0.90388 0.0
C1098 C 0.20395 0.51702 0.83943 0.0
C1099 C 0.21466 0.49663 0.8154 0.0
C1100 C 0.233 0.48131 0.83667 0.0
C1101 C 0.24158 0.4871 0.88025 0.0
C1102 C 0.20406 0.46133 0.70661 0.0
C1103 C 0.21444 0.47854 0.67506 0.0
C1104 C 0.20164 0.46811 0.75212 0.0
C1105 C 0.20913 0.49236 0.76681 0.0
C1106 C 0.21634 0.51064 0.73448 0.0
C1107 C 0.219 0.50377 0.68876 0.0
H1108 H 0.48268 0.77667 0.07991 0.0
H1109 H 0.53817 0.72757 0.14327 0.0
H1110 H 0.47143 0.79361 0.15482 0.0
H1111 H 0.52663 0.74354 0.21661 0.0
H1112 H 0.51174 0.77356 0.34727 0.0
H1113 H 0.5272 0.77656 0.26961 0.0
H1114 H 0.44979 0.78038 0.22085 0.0
H1115 H 0.43454 0.77911 0.29813 0.0
C1116 C 0.49247 0.76951 0.1096 0.0
C1117 C 0.51123 0.75065 0.10535 0.0
C1118 C 0.48608 0.77924 0.15256 0.0
C1119 C 0.4983 0.77023 0.19208 0.0
C1120 C 0.51726 0.75165 0.18729 0.0
C1121 C 0.52365 0.74213 0.14482 0.0
C1122 C 0.49808 0.77618 0.32017 0.0
C1123 C 0.47188 0.7752 0.32895 0.0
C1124 C 0.50691 0.77752 0.27543 0.0
C1125 C 0.48971 0.77748 0.23863 0.0
C1126 C 0.46368 0.78011 0.24796 0.0
C1127 C 0.4549 0.77923 0.29262 0.0
H1128 H 0.77509 0.49778 0.92124 0.0
H1129 H 0.72524 0.4423 0.85917 0.0
H1130 H 0.79057 0.50989 0.84588 0.0
H1131 H 0.73959 0.45484 0.7852 0.0
H1132 H 0.76679 0.47263 0.6527 0.0
H1133 H 0.77053 0.45565 0.72936 0.0
H1134 H 0.77676 0.5322 0.78215 0.0
H1135 H 0.77485 0.54883 0.7059 0.0
C1136 C 0.76744 0.48821 0.89167 0.0
C1137 C 0.74884 0.46916 0.89642 0.0
C1138 C 0.7763 0.49509 0.84841 0.0
C1139 C 0.76656 0.48324 0.80902 0.0
C1140 C 0.74825 0.46398 0.81429 0.0
C1141 C 0.73967 0.45699 0.85713 0.0
C1142 C 0.77008 0.48572 0.68048 0.0
C1143 C 0.76972 0.51211 0.6732 0.0
C1144 C 0.77181 0.47605 0.72467 0.0
C1145 C 0.77279 0.49258 0.76242 0.0
C1146 C 0.77577 0.51876 0.75438 0.0
C1147 C 0.7745 0.52836 0.7103 0.0
H1148 H 0.54633 0.21927 0.3031 0.0
H1149 H 0.4699 0.22017 0.35645 0.0
H1150 H 0.52992 0.21436 0.22724 0.0
H1151 H 0.45328 0.21333 0.28009 0.0
H1152 H 0.43584 0.25443 0.14687 0.0
H1153 H 0.44873 0.24199 0.22159 0.0
H1154 H 0.50956 0.19684 0.1648 0.0
H1155 H 0.49712 0.21063 0.08858 0.0
C1156 C 0.52594 0.21754 0.29885 0.0
C1157 C 0.50939 0.22105 0.33585 0.0
C1158 C 0.51648 0.21444 0.25498 0.0
C1159 C 0.49016 0.21429 0.2469 0.0
C1160 C 0.47368 0.21439 0.28469 0.0
C1161 C 0.48318 0.21798 0.3287 0.0
C1162 C 0.45191 0.24168 0.14984 0.0
C1163 C 0.46573 0.23394 0.11139 0.0
C1164 C 0.45911 0.23414 0.1932 0.0
C1165 C 0.48026 0.21831 0.19986 0.0
C1166 C 0.49339 0.20939 0.16123 0.0
C1167 C 0.48626 0.21721 0.11744 0.0
H1168 H 0.36707 0.216 0.06371 0.0
H1169 H 0.33971 0.22573 0.92674 0.0
H1170 H 0.33482 0.18361 0.07691 0.0
H1171 H 0.30632 0.1946 0.94053 0.0
H1172 H 0.27361 0.11519 0.95849 0.0
H1173 H 0.30238 0.15084 0.94709 0.0
H1174 H 0.29233 0.17315 0.08726 0.0
H1175 H 0.26482 0.13645 0.09906 0.0
C1176 C 0.35369 0.21161 0.03684 0.0
C1177 C 0.35594 0.22309 0.99413 0.0
C1178 C 0.33509 0.19314 0.04438 0.0
C1179 C 0.31804 0.18622 0.00962 0.0
C1180 C 0.31954 0.19886 0.96767 0.0
C1181 C 0.33851 0.21686 0.95983 0.0
C1182 C 0.27754 0.12781 0.98674 0.0
C1183 C 0.2672 0.12303 0.02968 0.0
C1184 C 0.29387 0.1484 0.9802 0.0
C1185 C 0.29972 0.16501 0.01625 0.0
C1186 C 0.28871 0.16052 0.05895 0.0
C1187 C 0.27284 0.13958 0.0657 0.0
H1188 H 0.23189 0.64835 0.04122 0.0
H1189 H 0.17741 0.59005 0.00468 0.0
H1190 H 0.2003 0.681 0.02551 0.0
H1191 H 0.14578 0.62291 0.98909 0.0
H1192 H 0.10992 0.6913 0.91327 0.0
H1193 H 0.14135 0.65848 0.9302 0.0
H1194 H 0.15807 0.69505 0.05803 0.0
H1195 H 0.12682 0.72787 0.04133 0.0
C1196 C 0.21314 0.6425 0.03009 0.0
C1197 C 0.20712 0.61665 0.02411 0.0
C1198 C 0.19507 0.66119 0.02126 0.0
C1199 C 0.17075 0.65438 0.00592 0.0
C1200 C 0.16456 0.62857 1.00044 0.0
C1201 C 0.18256 0.60982 0.00973 0.0
C1202 C 0.12043 0.69243 0.94483 0.0
C1203 C 0.11592 0.71215 0.97598 0.0
C1204 C 0.13821 0.67355 0.95464 0.0
C1205 C 0.15194 0.67427 0.99547 0.0
C1206 C 0.14778 0.69419 0.02622 0.0
C1207 C 0.12985 0.7129 0.01666 0.0
H1208 H 0.71197 0.84971 0.09568 0.0
H1209 H 0.70476 0.87271 0.95567 0.0
H1210 H 0.68273 0.81452 0.08211 0.0
H1211 H 0.6744 0.83859 0.94253 0.0
H1212 H 0.63692 0.76311 0.91983 0.0
H1213 H 0.66984 0.79468 0.93463 0.0
H1214 H 0.63977 0.80598 0.06969 0.0
H1215 H 0.60795 0.77334 0.05557 0.0
C1216 C 0.7039 0.84733 0.06212 0.0
C1217 C 0.71057 0.86383 0.0267 0.0
C1218 C 0.68705 0.82728 0.05434 0.0
C1219 C 0.67614 0.82369 0.01121 0.0
C1220 C 0.68283 0.84038 0.9759 0.0
C1221 C 0.70007 0.86008 0.98346 0.0
C1222 C 0.63757 0.77224 0.95276 0.0
C1223 C 0.61996 0.76587 0.98655 0.0
C1224 C 0.65629 0.79046 0.96119 0.0
C1225 C 0.65737 0.80307 0.00326 0.0
C1226 C 0.63984 0.79638 0.0372 0.0
C1227 C 0.62149 0.77778 0.02906 0.0
H1228 H 0.77626 0.3715 0.95393 0.0
H1229 H 0.7659 0.34601 0.09191 0.0
H1230 H 0.80811 0.33875 0.94215 0.0
H1231 H 0.79671 0.3122 0.07955 0.0
H1232 H 0.87329 0.2741 0.05905 0.0
H1233 H 0.84032 0.30571 0.07102 0.0
H1234 H 0.81462 0.29517 0.93276 0.0
H1235 H 0.84864 0.26463 0.92026 0.0
C1236 C 0.78056 0.35859 0.98153 0.0
C1237 C 0.76875 0.36129 0.02386 0.0
C1238 C 0.79869 0.33969 0.97472 0.0
C1239 C 0.805 0.32275 0.00987 0.0
C1240 C 0.79272 0.3252 0.052 0.0
C1241 C 0.77496 0.34446 0.05906 0.0
C1242 C 0.86051 0.27853 0.03131 0.0
C1243 C 0.86352 0.26707 0.98869 0.0
C1244 C 0.84149 0.29652 0.03822 0.0
C1245 C 0.82475 0.30304 0.00286 0.0
C1246 C 0.82748 0.29104 0.96048 0.0
C1247 C 0.84685 0.27343 0.95333 0.0
H1248 H 0.73266 0.14096 0.50485 0.0
H1249 H 0.67266 0.08984 0.54694 0.0
H1250 H 0.70135 0.17417 0.49064 0.0
H1251 H 0.64133 0.12348 0.53328 0.0
H1252 H 0.60481 0.20472 0.55852 0.0
H1253 H 0.63481 0.16992 0.57074 0.0
H1254 H 0.66204 0.17821 0.43354 0.0
H1255 H 0.63178 0.21277 0.42081 0.0
C1256 C 0.71279 0.13686 0.5112 0.0
C1257 C 0.70504 0.11287 0.52708 0.0
C1258 C 0.69495 0.1558 0.50281 0.0
C1259 C 0.66911 0.1512 0.51089 0.0
C1260 C 0.66126 0.12733 0.527 0.0
C1261 C 0.6791 0.10817 0.53461 0.0
C1262 C 0.61723 0.19915 0.531 0.0
C1263 C 0.6161 0.21146 0.48876 0.0
C1264 C 0.63417 0.17916 0.53792 0.0
C1265 C 0.65052 0.17154 0.50299 0.0
C1266 C 0.64956 0.18391 0.4609 0.0
C1267 C 0.63229 0.20358 0.45367 0.0
H1268 H 0.1235 0.28264 0.41707 0.0
H1269 H 0.13324 0.25387 0.55339 0.0
H1270 H 0.15663 0.314 0.43062 0.0
H1271 H 0.16694 0.28489 0.56645 0.0
H1272 H 0.23069 0.35505 0.45691 0.0
H1273 H 0.20181 0.31949 0.44348 0.0
H1274 H 0.16891 0.33059 0.57623 0.0
H1275 H 0.1981 0.36558 0.59019 0.0
C1276 C 0.13293 0.28278 0.44974 0.0
C1277 C 0.12559 0.26591 0.48431 0.0
C1278 C 0.15205 0.30065 0.45737 0.0
C1279 C 0.16431 0.30196 0.49964 0.0
C1280 C 0.15754 0.28458 0.53375 0.0
C1281 C 0.13831 0.26675 0.5262 0.0
C1282 C 0.21738 0.3498 0.48331 0.0
C1283 C 0.21661 0.3632 0.52453 0.0
C1284 C 0.20081 0.3295 0.47555 0.0
C1285 C 0.1831 0.32229 0.50879 0.0
C1286 C 0.18262 0.33544 0.55024 0.0
C1287 C 0.19923 0.35563 0.55808 0.0
H1288 H 0.36947 0.76995 0.55595 0.0
H1289 H 0.34262 0.7598 0.41864 0.0
H1290 H 0.33488 0.79957 0.5706 0.0
H1291 H 0.30715 0.78816 0.43382 0.0
H1292 H 0.2724 0.8662 0.4536 0.0
H1293 H 0.30257 0.83209 0.4421 0.0
H1294 H 0.291 0.80697 0.58028 0.0
H1295 H 0.26159 0.84219 0.59239 0.0
C1296 C 0.35578 0.77365 0.52928 0.0
C1297 C 0.35882 0.763 0.48601 0.0
C1298 C 0.33587 0.79048 0.53769 0.0
C1299 C 0.31841 0.79652 0.50318 0.0
C1300 C 0.32067 0.78452 0.46075 0.0
C1301 C 0.34088 0.76817 0.45208 0.0
C1302 C 0.27618 0.85331 0.48146 0.0
C1303 C 0.26475 0.85686 0.52392 0.0
C1304 C 0.29334 0.83358 0.47478 0.0
C1305 C 0.29911 0.81663 0.51018 0.0
C1306 C 0.28724 0.81989 0.55249 0.0
C1307 C 0.27035 0.83997 0.5594 0.0
H1308 H 0.8599 0.70406 0.41716 0.0
H1309 H 0.85524 0.7357 0.55237 0.0
H1310 H 0.82538 0.6752 0.43442 0.0
H1311 H 0.81993 0.70692 0.56931 0.0
H1312 H 0.78482 0.62633 0.5946 0.0
H1313 H 0.81457 0.66102 0.58075 0.0
H1314 H 0.78035 0.67373 0.44939 0.0
H1315 H 0.75109 0.63861 0.4626 0.0
C1316 C 0.85132 0.70507 0.45048 0.0
C1317 C 0.86044 0.72209 0.48351 0.0
C1318 C 0.83133 0.68864 0.46022 0.0
C1319 C 0.81987 0.68886 0.50315 0.0
C1320 C 0.82857 0.70622 0.53603 0.0
C1321 C 0.84869 0.72274 0.52626 0.0
C1322 C 0.78351 0.63667 0.56292 0.0
C1323 C 0.76588 0.62948 0.52937 0.0
C1324 C 0.80042 0.65668 0.55516 0.0
C1325 C 0.79992 0.66994 0.51384 0.0
C1326 C 0.78149 0.66352 0.48123 0.0
C1327 C 0.76471 0.64343 0.48883 0.0
loop_
_geom_bond_atom_site_label_1
_geom_bond_atom_site_label_2
_geom_bond_distance
_geom_bond_site_symmetry_2
_ccdc_geom_bond_type
O0 Zn1 1.953 . S
O0 C16 1.225 . S
Zn1 O0 1.953 . S
Zn1 O2 1.949 . S
Zn1 O8 1.919 . S
Zn1 O13 1.924 . S
O2 Zn1 1.949 . S
O2 Zn3 1.923 . S
O2 Zn4 1.950 . S
O2 Zn5 1.943 . S
Zn3 O2 1.923 . S
Zn3 O6 1.933 1_554 S
Zn3 O9 1.941 . S
Zn3 O10 1.965 . S
Zn4 O2 1.950 . S
Zn4 O11 1.938 . S
Zn4 O12 1.906 . S
Zn4 O22 1.953 . S
Zn5 O2 1.943 . S
Zn5 O7 1.933 1_554 S
Zn5 O14 1.976 . S
Zn5 O15 1.911 1_554 S
O6 Zn3 1.933 1_556 S
O6 C17 1.226 . S
O7 Zn5 1.933 1_556 S
O7 C17 1.307 . S
O8 Zn1 1.919 . S
O8 C19 1.253 . S
O9 Zn3 1.941 . S
O9 C19 1.283 . S
O10 Zn3 1.965 . S
O10 C18 1.303 . S
O11 Zn4 1.938 . S
O11 C18 1.247 . S
O12 Zn4 1.906 . S
O12 C20 1.304 . S
O13 Zn1 1.924 . S
O13 C21 1.311 . S
O14 Zn5 1.976 . S
O14 C20 1.272 . S
O15 Zn5 1.911 1_556 S
O15 C21 1.231 1_556 S
C16 O0 1.225 . S
C16 O22 1.298 . S
C17 O6 1.226 . S
C17 O7 1.307 . S
C18 O10 1.303 . S
C18 O11 1.247 . S
C19 O8 1.253 . S
C19 O9 1.283 . S
C20 O12 1.304 . S
C20 O14 1.272 . S
C21 O13 1.311 . S
C21 O15 1.231 1_554 S
O22 Zn4 1.953 . S
O22 C16 1.298 . S
O23 Zn24 1.953 . S
O23 C39 1.225 . S
Zn24 O23 1.953 . S
Zn24 O25 1.949 . S
Zn24 O31 1.919 . S
Zn24 O36 1.924 . S
O25 Zn24 1.949 . S
O25 Zn26 1.923 . S
O25 Zn27 1.950 . S
O25 Zn28 1.953 . S
Zn26 O25 1.923 . S
Zn26 O29 1.933 1_556 S
Zn26 O32 1.941 . S
Zn26 O33 1.965 . S
Zn27 O25 1.950 . S
Zn27 O34 1.938 . S
Zn27 O35 1.906 . S
Zn27 O45 1.953 . S
Zn28 O25 1.953 . S
Zn28 O30 1.926 1_556 S
Zn28 O37 1.978 . S
Zn28 O38 1.908 1_556 S
O29 Zn26 1.933 1_554 S
O29 C40 1.226 . S
O30 Zn28 1.926 1_554 S
O30 C40 1.307 . S
O31 Zn24 1.919 . S
O31 C42 1.253 . S
O32 Zn26 1.941 . S
O32 C42 1.283 . S
O33 Zn26 1.965 . S
O33 C41 1.303 . S
O34 Zn27 1.938 . S
O34 C41 1.247 . S
O35 Zn27 1.906 . S
O35 C43 1.304 . S
O36 Zn24 1.924 . S
O36 C44 1.311 . S
O37 Zn28 1.978 . S
O37 C43 1.272 . S
O38 Zn28 1.908 1_554 S
O38 C44 1.231 1_554 S
C39 O23 1.225 . S
C39 O45 1.298 . S
C40 O29 1.226 . S
C40 O30 1.307 . S
C41 O33 1.303 . S
C41 O34 1.247 . S
C42 O31 1.253 . S
C42 O32 1.283 . S
C43 O35 1.304 . S
C43 O37 1.272 . S
C44 O36 1.311 . S
C44 O38 1.231 1_556 S
O45 Zn27 1.953 . S
O45 C39 1.298 . S
O46 Zn47 1.953 . S
O46 C62 1.225 . S
Zn47 O46 1.953 . S
Zn47 O48 1.949 . S
Zn47 O54 1.919 . S
Zn47 O59 1.924 . S
O48 Zn47 1.949 . S
O48 Zn49 1.923 . S
O48 Zn50 1.950 . S
O48 Zn51 1.954 . S
Zn49 O48 1.923 . S
Zn49 O52 1.933 1_554 S
Zn49 O55 1.941 . S
Zn49 O56 1.965 . S
Zn50 O48 1.950 . S
Zn50 O57 1.938 . S
Zn50 O58 1.906 . S
Zn50 O68 1.953 . S
Zn51 O48 1.954 . S
Zn51 O53 1.925 1_554 S
Zn51 O60 1.978 . S
Zn51 O61 1.907 1_554 S
O52 Zn49 1.933 1_556 S
O52 C63 1.226 . S
O53 Zn51 1.925 1_556 S
O53 C63 1.307 . S
O54 Zn47 1.919 . S
O54 C65 1.253 . S
O55 Zn49 1.941 . S
O55 C65 1.283 . S
O56 Zn49 1.965 . S
O56 C64 1.303 . S
O57 Zn50 1.938 . S
O57 C64 1.247 . S
O58 Zn50 1.906 . S
O58 C66 1.304 . S
O59 Zn47 1.924 . S
O59 C67 1.311 . S
O60 Zn51 1.978 . S
O60 C66 1.272 . S
O61 Zn51 1.907 1_556 S
O61 C67 1.231 1_556 S
C62 O46 1.225 . S
C62 O68 1.298 . S
C63 O52 1.226 . S
C63 O53 1.307 . S
C64 O56 1.303 . S
C64 O57 1.247 . S
C65 O54 1.253 . S
C65 O55 1.283 . S
C66 O58 1.304 . S
C66 O60 1.272 . S
C67 O59 1.311 . S
C67 O61 1.231 1_554 S
O68 Zn50 1.953 . S
O68 C62 1.298 . S
O69 Zn70 1.953 . S
O69 C85 1.225 . S
Zn70 O69 1.953 . S
Zn70 O71 1.949 . S
Zn70 O77 1.919 . S
Zn70 O82 1.924 . S
O71 Zn70 1.949 . S
O71 Zn72 1.923 . S
O71 Zn73 1.950 . S
O71 Zn74 1.938 1_556 S
Zn72 O71 1.923 . S
Zn72 O75 1.933 1_556 S
Zn72 O78 1.941 . S
Zn72 O79 1.965 . S
Zn73 O71 1.950 . S
Zn73 O80 1.938 . S
Zn73 O81 1.906 . S
Zn73 O91 1.953 . S
Zn74 O71 1.938 1_554 S
Zn74 O76 1.937 . S
Zn74 O83 1.976 1_554 S
Zn74 O84 1.912 . S
O75 Zn72 1.933 1_554 S
O75 C86 1.226 . S
O76 Zn74 1.937 . S
O76 C86 1.307 . S
O77 Zn70 1.919 . S
O77 C88 1.253 . S
O78 Zn72 1.941 . S
O78 C88 1.283 . S
O79 Zn72 1.965 . S
O79 C87 1.303 . S
O80 Zn73 1.938 . S
O80 C87 1.247 . S
O81 Zn73 1.906 . S
O81 C89 1.304 . S
O82 Zn70 1.924 . S
O82 C90 1.328 . S
O83 Zn74 1.976 1_556 S
O83 C89 1.272 . S
O84 Zn74 1.912 . S
O84 C90 1.220 1_554 S
C85 O69 1.225 . S
C85 O91 1.298 . S
C86 O75 1.226 . S
C86 O76 1.307 . S
C87 O79 1.303 . S
C87 O80 1.247 . S
C88 O77 1.253 . S
C88 O78 1.283 . S
C89 O81 1.304 . S
C89 O83 1.272 . S
C90 O82 1.328 . S
C90 O84 1.220 1_556 S
O91 Zn73 1.953 . S
O91 C85 1.298 . S
O92 Zn93 1.953 . S
O92 C108 1.225 . S
Zn93 O92 1.953 . S
Zn93 O94 1.949 . S
Zn93 O100 1.919 . S
Zn93 O105 1.924 . S
O94 Zn93 1.949 . S
O94 Zn95 1.923 . S
O94 Zn96 1.950 . S
O94 Zn97 1.945 . S
Zn95 O94 1.923 . S
Zn95 O98 1.933 . S
Zn95 O101 1.941 . S
Zn95 O102 1.965 . S
Zn96 O94 1.950 . S
Zn96 O103 1.938 . S
Zn96 O104 1.906 . S
Zn96 O114 1.953 . S
Zn97 O94 1.945 . S
Zn97 O99 1.932 . S
Zn97 O106 1.977 . S
Zn97 O107 1.910 . S
O98 Zn95 1.933 . S
O98 C109 1.226 . S
O99 Zn97 1.932 . S
O99 C109 1.307 . S
O100 Zn93 1.919 . S
O100 C111 1.253 . S
O101 Zn95 1.941 . S
O101 C111 1.283 . S
O102 Zn95 1.965 . S
O102 C110 1.303 . S
O103 Zn96 1.938 . S
O103 C110 1.247 . S
O104 Zn96 1.906 . S
O104 C112 1.304 . S
O105 Zn93 1.924 . S
O105 C113 1.311 . S
O106 Zn97 1.977 . S
O106 C112 1.272 . S
O107 Zn97 1.910 . S
O107 C113 1.231 . S
C108 O92 1.225 . S
C108 O114 1.298 . S
C109 O98 1.226 . S
C109 O99 1.307 . S
C110 O102 1.303 . S
C110 O103 1.247 . S
C111 O100 1.253 . S
C111 O101 1.283 . S
C112 O104 1.304 . S
C112 O106 1.272 . S
C113 O105 1.311 . S
C113 O107 1.231 . S
O114 Zn96 1.953 . S
O114 C108 1.298 . S
O115 Zn116 1.953 . S
O115 C131 1.225 . S
Zn116 O115 1.953 . S
Zn116 O117 1.949 . S
Zn116 O123 1.919 . S
Zn116 O128 1.924 . S
O117 Zn116 1.949 . S
O117 Zn118 1.923 . S
O117 Zn119 1.950 . S
O117 Zn120 1.945 . S
Zn118 O117 1.923 . S
Zn118 O121 1.933 . S
Zn118 O124 1.941 . S
Zn118 O125 1.965 . S
Zn119 O117 1.950 . S
Zn119 O126 1.938 . S
Zn119 O127 1.906 . S
Zn119 O137 1.953 . S
Zn120 O117 1.945 . S
Zn120 O122 1.932 . S
Zn120 O129 1.977 . S
Zn120 O130 1.910 . S
O121 Zn118 1.933 . S
O121 C132 1.226 . S
O122 Zn120 1.932 . S
O122 C132 1.307 . S
O123 Zn116 1.919 . S
O123 C134 1.253 . S
O124 Zn118 1.941 . S
O124 C134 1.283 . S
O125 Zn118 1.965 . S
O125 C133 1.303 . S
O126 Zn119 1.938 . S
O126 C133 1.247 . S
O127 Zn119 1.906 . S
O127 C135 1.304 . S
O128 Zn116 1.924 . S
O128 C136 1.311 . S
O129 Zn120 1.977 . S
O129 C135 1.272 . S
O130 Zn120 1.910 . S
O130 C136 1.231 . S
C131 O115 1.225 . S
C131 O137 1.298 . S
C132 O121 1.226 . S
C132 O122 1.307 . S
C133 O125 1.303 . S
C133 O126 1.247 . S
C134 O123 1.253 . S
C134 O124 1.283 . S
C135 O127 1.304 . S
C135 O129 1.272 . S
C136 O128 1.311 . S
C136 O130 1.231 . S
O137 Zn119 1.953 . S
O137 C131 1.298 . S
O138 Zn139 1.953 . S
O138 C154 1.225 . S
Zn139 O138 1.953 . S
Zn139 O140 1.949 . S
Zn139 O146 1.919 . S
Zn139 O151 1.924 . S
O140 Zn139 1.949 . S
O140 Zn141 1.923 . S
O140 Zn142 1.950 . S
O140 Zn143 1.945 . S
Zn141 O140 1.923 . S
Zn141 O144 1.933 . S
Zn141 O147 1.970 . S
Zn141 O148 1.965 . S
Zn142 O140 1.950 . S
Zn142 O149 1.938 . S
Zn142 O150 1.906 . S
Zn142 O160 1.953 . S
Zn143 O140 1.945 . S
Zn143 O145 1.932 . S
Zn143 O152 1.977 . S
Zn143 O153 1.910 . S
O144 Zn141 1.933 . S
O144 C155 1.226 . S
O145 Zn143 1.932 . S
O145 C155 1.307 . S
O146 Zn139 1.919 . S
O146 C157 1.253 . S
O147 Zn141 1.970 . S
O147 C157 1.290 . S
O148 Zn141 1.965 . S
O148 C156 1.303 . S
O149 Zn142 1.938 . S
O149 C156 1.247 . S
O150 Zn142 1.906 . S
O150 C158 1.304 . S
O151 Zn139 1.924 . S
O151 C159 1.311 . S
O152 Zn143 1.977 . S
O152 C158 1.272 . S
O153 Zn143 1.910 . S
O153 C159 1.231 . S
C154 O138 1.225 . S
C154 O160 1.298 . S
C155 O144 1.226 . S
C155 O145 1.307 . S
C156 O148 1.303 . S
C156 O149 1.247 . S
C157 O146 1.253 . S
C157 O147 1.290 . S
C158 O150 1.304 . S
C158 O152 1.272 . S
C159 O151 1.311 . S
C159 O153 1.231 . S
O160 Zn142 1.953 . S
O160 C154 1.298 . S
O161 Zn162 1.953 . S
O161 C177 1.225 . S
Zn162 O161 1.953 . S
Zn162 O163 1.949 . S
Zn162 O169 1.919 . S
Zn162 O174 1.924 . S
O163 Zn162 1.949 . S
O163 Zn164 1.923 . S
O163 Zn165 1.950 . S
O163 Zn166 1.945 . S
Zn164 O163 1.923 . S
Zn164 O167 1.933 . S
Zn164 O170 1.965 . S
Zn164 O171 1.965 . S
Zn165 O163 1.950 . S
Zn165 O172 1.938 . S
Zn165 O173 1.906 . S
Zn165 O183 1.953 . S
Zn166 O163 1.945 . S
Zn166 O168 1.932 . S
Zn166 O175 1.977 . S
Zn166 O176 1.910 . S
O167 Zn164 1.933 . S
O167 C178 1.226 . S
O168 Zn166 1.932 . S
O168 C178 1.307 . S
O169 Zn162 1.919 . S
O169 C180 1.253 . S
O170 Zn164 1.965 . S
O170 C180 1.288 . S
O171 Zn164 1.965 . S
O171 C179 1.303 . S
O172 Zn165 1.938 . S
O172 C179 1.247 . S
O173 Zn165 1.906 . S
O173 C181 1.304 . S
O174 Zn162 1.924 . S
O174 C182 1.311 . S
O175 Zn166 1.977 . S
O175 C181 1.272 . S
O176 Zn166 1.910 . S
O176 C182 1.231 . S
C177 O161 1.225 . S
C177 O183 1.298 . S
C178 O167 1.226 . S
C178 O168 1.307 . S
C179 O171 1.303 . S
C179 O172 1.247 . S
C180 O169 1.253 . S
C180 O170 1.288 . S
C181 O173 1.304 . S
C181 O175 1.272 . S
C182 O174 1.311 . S
C182 O176 1.231 . S
O183 Zn165 1.953 . S
O183 C177 1.298 . S
O184 Zn185 1.953 . S
O184 C200 1.225 . S
Zn185 O184 1.953 . S
Zn185 O186 1.949 . S
Zn185 O192 1.919 . S
Zn185 O197 1.924 . S
O186 Zn185 1.949 . S
O186 Zn187 1.923 . S
O186 Zn188 1.950 . S
O186 Zn189 1.945 . S
Zn187 O186 1.923 . S
Zn187 O190 1.933 . S
Zn187 O193 1.941 . S
Zn187 O194 1.965 . S
Zn188 O186 1.950 . S
Zn188 O195 1.938 . S
Zn188 O196 1.906 . S
Zn188 O206 1.953 . S
Zn189 O186 1.945 . S
Zn189 O191 1.932 . S
Zn189 O198 1.977 . S
Zn189 O199 1.910 . S
O190 Zn187 1.933 . S
O190 C201 1.226 . S
O191 Zn189 1.932 . S
O191 C201 1.307 . S
O192 Zn185 1.919 . S
O192 C203 1.253 . S
O193 Zn187 1.941 . S
O193 C203 1.283 . S
O194 Zn187 1.965 . S
O194 C202 1.303 . S
O195 Zn188 1.938 . S
O195 C202 1.247 . S
O196 Zn188 1.906 . S
O196 C204 1.304 . S
O197 Zn185 1.924 . S
O197 C205 1.311 . S
O198 Zn189 1.977 . S
O198 C204 1.272 . S
O199 Zn189 1.910 . S
O199 C205 1.231 . S
C200 O184 1.225 . S
C200 O206 1.298 . S
C201 O190 1.226 . S
C201 O191 1.307 . S
C202 O194 1.303 . S
C202 O195 1.247 . S
C203 O192 1.253 . S
C203 O193 1.283 . S
C204 O196 1.304 . S
C204 O198 1.272 . S
C205 O197 1.311 . S
C205 O199 1.231 . S
O206 Zn188 1.953 . S
O206 C200 1.298 . S
O207 Zn208 1.953 . S
O207 C223 1.225 . S
Zn208 O207 1.953 . S
Zn208 O209 1.949 . S
Zn208 O215 1.919 . S
Zn208 O220 1.924 . S
O209 Zn208 1.949 . S
O209 Zn210 1.923 . S
O209 Zn211 1.950 . S
O209 Zn212 1.945 . S
Zn210 O209 1.923 . S
Zn210 O213 1.933 . S
Zn210 O216 1.941 . S
Zn210 O217 1.965 . S
Zn211 O209 1.950 . S
Zn211 O218 1.938 . S
Zn211 O219 1.906 . S
Zn211 O229 1.953 . S
Zn212 O209 1.945 . S
Zn212 O214 1.932 . S
Zn212 O221 1.977 . S
Zn212 O222 1.910 . S
O213 Zn210 1.933 . S
O213 C224 1.226 . S
O214 Zn212 1.932 . S
O214 C224 1.307 . S
O215 Zn208 1.919 . S
O215 C226 1.253 . S
O216 Zn210 1.941 . S
O216 C226 1.283 . S
O217 Zn210 1.965 . S
O217 C225 1.303 . S
O218 Zn211 1.938 . S
O218 C225 1.247 . S
O219 Zn211 1.906 . S
O219 C227 1.304 . S
O220 Zn208 1.924 . S
O220 C228 1.311 . S
O221 Zn212 1.977 . S
O221 C227 1.272 . S
O222 Zn212 1.910 . S
O222 C228 1.231 . S
C223 O207 1.225 . S
C223 O229 1.298 . S
C224 O213 1.226 . S
C224 O214 1.307 . S
C225 O217 1.303 . S
C225 O218 1.247 . S
C226 O215 1.253 . S
C226 O216 1.283 . S
C227 O219 1.304 . S
C227 O221 1.272 . S
C228 O220 1.311 . S
C228 O222 1.231 . S
O229 Zn211 1.953 . S
O229 C223 1.298 . S
O230 Zn231 1.953 . S
O230 C246 1.225 . S
Zn231 O230 1.953 . S
Zn231 O232 1.949 . S
Zn231 O238 1.919 . S
Zn231 O243 1.924 . S
O232 Zn231 1.949 . S
O232 Zn233 1.923 . S
O232 Zn234 1.950 . S
O232 Zn235 1.945 . S
Zn233 O232 1.923 . S
Zn233 O236 1.933 . S
Zn233 O239 1.941 . S
Zn233 O240 1.965 . S
Zn234 O232 1.950 . S
Zn234 O241 1.938 . S
Zn234 O242 1.906 . S
Zn234 O252 1.953 . S
Zn235 O232 1.945 . S
Zn235 O237 1.932 . S
Zn235 O244 1.977 . S
Zn235 O245 1.910 . S
O236 Zn233 1.933 . S
O236 C247 1.226 . S
O237 Zn235 1.932 . S
O237 C247 1.307 . S
O238 Zn231 1.919 . S
O238 C249 1.253 . S
O239 Zn233 1.941 . S
O239 C249 1.283 . S
O240 Zn233 1.965 . S
O240 C248 1.303 . S
O241 Zn234 1.938 . S
O241 C248 1.247 . S
O242 Zn234 1.906 . S
O242 C250 1.304 . S
O243 Zn231 1.924 . S
O243 C251 1.311 . S
O244 Zn235 1.977 . S
O244 C250 1.272 . S
O245 Zn235 1.910 . S
O245 C251 1.231 . S
C246 O230 1.225 . S
C246 O252 1.298 . S
C247 O236 1.226 . S
C247 O237 1.307 . S
C248 O240 1.303 . S
C248 O241 1.247 . S
C249 O238 1.253 . S
C249 O239 1.283 . S
C250 O242 1.304 . S
C250 O244 1.272 . S
C251 O243 1.311 . S
C251 O245 1.231 . S
O252 Zn234 1.953 . S
O252 C246 1.298 . S
O253 Zn254 1.953 . S
O253 C269 1.225 . S
Zn254 O253 1.953 . S
Zn254 O255 1.949 . S
Zn254 O261 1.919 . S
Zn254 O266 1.924 . S
O255 Zn254 1.949 . S
O255 Zn256 1.923 . S
O255 Zn257 1.950 . S
O255 Zn258 1.945 . S
Zn256 O255 1.923 . S
Zn256 O259 1.933 . S
Zn256 O262 1.941 . S
Zn256 O263 1.965 . S
Zn257 O255 1.950 . S
Zn257 O264 1.938 . S
Zn257 O265 1.906 . S
Zn257 O275 1.953 . S
Zn258 O255 1.945 . S
Zn258 O260 1.932 . S
Zn258 O267 1.977 . S
Zn258 O268 1.910 . S
O259 Zn256 1.933 . S
O259 C270 1.226 . S
O260 Zn258 1.932 . S
O260 C270 1.307 . S
O261 Zn254 1.919 . S
O261 C272 1.253 . S
O262 Zn256 1.941 . S
O262 C272 1.283 . S
O263 Zn256 1.965 . S
O263 C271 1.303 . S
O264 Zn257 1.938 . S
O264 C271 1.247 . S
O265 Zn257 1.906 . S
O265 C273 1.304 . S
O266 Zn254 1.924 . S
O266 C274 1.311 . S
O267 Zn258 1.977 . S
O267 C273 1.272 . S
O268 Zn258 1.910 . S
O268 C274 1.231 . S
C269 O253 1.225 . S
C269 O275 1.298 . S
C270 O259 1.226 . S
C270 O260 1.307 . S
C271 O263 1.303 . S
C271 O264 1.247 . S
C272 O261 1.253 . S
C272 O262 1.283 . S
C273 O265 1.304 . S
C273 O267 1.272 . S
C274 O266 1.311 . S
C274 O268 1.231 . S
O275 Zn257 1.953 . S
O275 C269 1.298 . S
O276 Zn277 1.953 1_556 S
O276 C292 1.225 . S
Zn277 O276 1.953 1_554 S
Zn277 O278 1.949 . S
Zn277 O284 1.919 . S
Zn277 O289 1.924 . S
O278 Zn277 1.949 . S
O278 Zn279 1.923 . S
O278 Zn280 1.950 . S
O278 Zn281 1.945 . S
Zn279 O278 1.923 . S
Zn279 O282 1.933 . S
Zn279 O285 1.941 . S
Zn279 O286 1.965 . S
Zn280 O278 1.950 . S
Zn280 O287 1.938 . S
Zn280 O288 1.906 1_554 S
Zn280 O298 1.953 1_554 S
Zn281 O278 1.945 . S
Zn281 O283 1.932 . S
Zn281 O290 1.977 . S
Zn281 O291 1.910 . S
O282 Zn279 1.933 . S
O282 C293 1.226 . S
O283 Zn281 1.932 . S
O283 C293 1.307 . S
O284 Zn277 1.919 . S
O284 C295 1.253 . S
O285 Zn279 1.941 . S
O285 C295 1.283 . S
O286 Zn279 1.965 . S
O286 C294 1.303 . S
O287 Zn280 1.938 . S
O287 C294 1.247 . S
O288 Zn280 1.906 1_556 S
O288 C296 1.304 1_556 S
O289 Zn277 1.924 . S
O289 C297 1.311 . S
O290 Zn281 1.977 . S
O290 C296 1.272 . S
O291 Zn281 1.910 . S
O291 C297 1.231 . S
C292 O276 1.225 . S
C292 O298 1.298 . S
C293 O282 1.226 . S
C293 O283 1.307 . S
C294 O286 1.303 . S
C294 O287 1.247 . S
C295 O284 1.253 . S
C295 O285 1.283 . S
C296 O288 1.304 1_554 S
C296 O290 1.272 . S
C297 O289 1.311 . S
C297 O291 1.231 . S
O298 Zn280 1.953 1_556 S
O298 C292 1.298 . S
O299 Zn300 1.953 . S
O299 C315 1.225 . S
Zn300 O299 1.953 . S
Zn300 O301 1.949 . S
Zn300 O307 1.919 . S
Zn300 O312 1.924 . S
O301 Zn300 1.949 . S
O301 Zn302 1.923 . S
O301 Zn303 1.950 . S
O301 Zn304 1.946 1_556 S
Zn302 O301 1.923 . S
Zn302 O305 1.933 1_556 S
Zn302 O308 1.941 . S
Zn302 O309 1.965 . S
Zn303 O301 1.950 . S
Zn303 O310 1.938 . S
Zn303 O311 1.906 . S
Zn303 O321 1.953 . S
Zn304 O301 1.946 1_554 S
Zn304 O306 1.931 . S
Zn304 O313 1.977 1_554 S
Zn304 O314 1.910 . S
O305 Zn302 1.933 1_554 S
O305 C316 1.226 . S
O306 Zn304 1.931 . S
O306 C316 1.307 . S
O307 Zn300 1.919 . S
O307 C318 1.253 . S
O308 Zn302 1.941 . S
O308 C318 1.283 . S
O309 Zn302 1.965 . S
O309 C317 1.303 . S
O310 Zn303 1.938 . S
O310 C317 1.247 . S
O311 Zn303 1.906 . S
O311 C319 1.304 . S
O312 Zn300 1.924 . S
O312 C320 1.311 . S
O313 Zn304 1.977 1_556 S
O313 C319 1.272 . S
O314 Zn304 1.910 . S
O314 C320 1.231 1_554 S
C315 O299 1.225 . S
C315 O321 1.298 . S
C316 O305 1.226 . S
C316 O306 1.307 . S
C317 O309 1.303 . S
C317 O310 1.247 . S
C318 O307 1.253 . S
C318 O308 1.283 . S
C319 O311 1.304 . S
C319 O313 1.272 . S
C320 O312 1.311 . S
C320 O314 1.231 1_556 S
O321 Zn303 1.953 . S
O321 C315 1.298 . S
O322 Zn323 1.953 . S
O322 C338 1.225 . S
Zn323 O322 1.953 . S
Zn323 O324 1.949 . S
Zn323 O330 1.919 . S
Zn323 O335 1.924 . S
O324 Zn323 1.949 . S
O324 Zn325 1.923 . S
O324 Zn326 1.950 . S
O324 Zn327 1.947 1_554 S
Zn325 O324 1.923 . S
Zn325 O328 1.933 1_554 S
Zn325 O331 1.941 . S
Zn325 O332 1.965 . S
Zn326 O324 1.950 . S
Zn326 O333 1.938 . S
Zn326 O334 1.906 . S
Zn326 O344 1.953 . S
Zn327 O324 1.947 1_556 S
Zn327 O329 1.931 . S
Zn327 O336 1.977 1_556 S
Zn327 O337 1.910 . S
O328 Zn325 1.933 1_556 S
O328 C339 1.226 . S
O329 Zn327 1.931 . S
O329 C339 1.307 . S
O330 Zn323 1.919 . S
O330 C341 1.253 . S
O331 Zn325 1.941 . S
O331 C341 1.283 . S
O332 Zn325 1.965 . S
O332 C340 1.303 . S
O333 Zn326 1.938 . S
O333 C340 1.247 . S
O334 Zn326 1.906 . S
O334 C342 1.304 . S
O335 Zn323 1.924 . S
O335 C343 1.311 . S
O336 Zn327 1.977 1_554 S
O336 C342 1.272 . S
O337 Zn327 1.910 . S
O337 C343 1.231 1_556 S
C338 O322 1.225 . S
C338 O344 1.298 . S
C339 O328 1.226 . S
C339 O329 1.307 . S
C340 O332 1.303 . S
C340 O333 1.247 . S
C341 O330 1.253 . S
C341 O331 1.283 . S
C342 O334 1.304 . S
C342 O336 1.272 . S
C343 O335 1.311 . S
C343 O337 1.231 1_554 S
O344 Zn326 1.953 . S
O344 C338 1.298 . S
O345 Zn346 1.953 . S
O345 C361 1.225 . S
Zn346 O345 1.953 . S
Zn346 O347 1.949 . S
Zn346 O353 1.919 . S
Zn346 O358 1.924 . S
O347 Zn346 1.949 . S
O347 Zn348 1.923 . S
O347 Zn349 1.950 . S
O347 Zn350 1.961 . S
Zn348 O347 1.923 . S
Zn348 O351 1.933 1_556 S
Zn348 O354 1.941 . S
Zn348 O355 1.965 . S
Zn349 O347 1.950 . S
Zn349 O356 1.938 . S
Zn349 O357 1.906 . S
Zn349 O367 1.953 . S
Zn350 O347 1.961 . S
Zn350 O352 1.920 1_556 S
Zn350 O359 1.979 . S
Zn350 O360 1.905 1_556 S
O351 Zn348 1.933 1_554 S
O351 C362 1.226 . S
O352 Zn350 1.920 1_554 S
O352 C362 1.307 . S
O353 Zn346 1.919 . S
O353 C364 1.253 . S
O354 Zn348 1.941 . S
O354 C364 1.283 . S
O355 Zn348 1.965 . S
O355 C363 1.303 . S
O356 Zn349 1.938 . S
O356 C363 1.247 . S
O357 Zn349 1.906 . S
O357 C365 1.304 . S
O358 Zn346 1.924 . S
O358 C366 1.311 . S
O359 Zn350 1.979 . S
O359 C365 1.272 . S
O360 Zn350 1.905 1_554 S
O360 C366 1.231 1_554 S
C361 O345 1.225 . S
C361 O367 1.298 . S
C362 O351 1.226 . S
C362 O352 1.307 . S
C363 O355 1.303 . S
C363 O356 1.247 . S
C364 O353 1.253 . S
C364 O354 1.283 . S
C365 O357 1.304 . S
C365 O359 1.272 . S
C366 O358 1.311 . S
C366 O360 1.231 1_556 S
O367 Zn349 1.953 . S
O367 C361 1.298 . S
H368 C376 0.950 . S
H369 C381 0.950 . S
H370 C378 0.950 . S
H371 C380 0.950 . S
H372 C382 0.950 . S
H373 C384 0.950 . S
H374 C386 0.950 . S
H375 C387 0.950 . S
C376 H368 0.950 . S
C376 C377 1.386 . S
C376 C378 1.391 . S
C377 C376 1.386 . S
C377 C381 1.393 . S
C378 H370 0.950 . S
C378 C376 1.391 . S
C378 C379 1.400 . S
C379 C378 1.400 . S
C379 C380 1.398 . S
C379 C385 1.491 . S
C380 H371 0.950 . S
C380 C379 1.398 . S
C380 C381 1.391 . S
C381 H369 0.950 . S
C381 C377 1.393 . S
C381 C380 1.391 . S
C382 H372 0.950 . S
C382 C383 1.386 . S
C382 C384 1.391 . S
C383 C382 1.386 . S
C383 C387 1.393 . S
C384 H373 0.950 . S
C384 C382 1.391 . S
C384 C385 1.400 . S
C385 C379 1.491 . S
C385 C384 1.400 . S
C385 C386 1.398 . S
C386 H374 0.950 . S
C386 C385 1.398 . S
C386 C387 1.391 . S
C387 H375 0.950 . S
C387 C383 1.393 . S
C387 C386 1.391 . S
H388 C396 0.950 . S
H389 C401 0.950 . S
H390 C398 0.950 . S
H391 C400 0.950 . S
H392 C402 0.950 . S
H393 C404 0.950 . S
H394 C406 0.950 . S
H395 C407 0.950 . S
C396 H388 0.950 . S
C396 C397 1.386 . S
C396 C398 1.391 . S
C397 C396 1.386 . S
C397 C401 1.393 . S
C398 H390 0.950 . S
C398 C396 1.391 . S
C398 C399 1.400 . S
C399 C398 1.400 . S
C399 C400 1.398 . S
C399 C405 1.491 . S
C400 H391 0.950 . S
C400 C399 1.398 . S
C400 C401 1.391 . S
C401 H389 0.950 . S
C401 C397 1.393 . S
C401 C400 1.391 . S
C402 H392 0.950 . S
C402 C403 1.386 . S
C402 C404 1.391 . S
C403 C402 1.386 . S
C403 C407 1.393 . S
C404 H393 0.950 . S
C404 C402 1.391 . S
C404 C405 1.400 . S
C405 C399 1.491 . S
C405 C404 1.400 . S
C405 C406 1.398 . S
C406 H394 0.950 . S
C406 C405 1.398 . S
C406 C407 1.391 . S
C407 H395 0.950 . S
C407 C403 1.393 . S
C407 C406 1.391 . S
H408 C416 0.950 . S
H409 C421 0.950 . S
H410 C418 0.950 . S
H411 C420 0.950 . S
H412 C422 0.950 . S
H413 C424 0.950 . S
H414 C426 0.950 . S
H415 C427 0.950 . S
C416 H408 0.950 . S
C416 C417 1.386 . S
C416 C418 1.391 . S
C417 C416 1.386 . S
C417 C421 1.393 . S
C418 H410 0.950 . S
C418 C416 1.391 . S
C418 C419 1.400 . S
C419 C418 1.400 . S
C419 C420 1.398 . S
C419 C425 1.491 . S
C420 H411 0.950 . S
C420 C419 1.398 . S
C420 C421 1.391 . S
C421 H409 0.950 . S
C421 C417 1.393 . S
C421 C420 1.391 . S
C422 H412 0.950 . S
C422 C423 1.386 . S
C422 C424 1.391 . S
C423 C422 1.386 . S
C423 C427 1.393 . S
C424 H413 0.950 . S
C424 C422 1.391 . S
C424 C425 1.400 . S
C425 C419 1.491 . S
C425 C424 1.400 . S
C425 C426 1.398 . S
C426 H414 0.950 . S
C426 C425 1.398 . S
C426 C427 1.391 . S
C427 H415 0.950 . S
C427 C423 1.393 . S
C427 C426 1.391 . S
H428 C436 0.950 . S
H429 C441 0.950 . S
H430 C438 0.950 . S
H431 C440 0.950 . S
H432 C442 0.950 . S
H433 C444 0.950 . S
H434 C446 0.950 . S
H435 C447 0.950 . S
C436 H428 0.950 . S
C436 C437 1.386 . S
C436 C438 1.391 . S
C437 C436 1.386 . S
C437 C441 1.393 . S
C438 H430 0.950 . S
C438 C436 1.391 . S
C438 C439 1.400 . S
C439 C438 1.400 . S
C439 C440 1.398 . S
C439 C445 1.491 . S
C440 H431 0.950 . S
C440 C439 1.398 . S
C440 C441 1.391 . S
C441 H429 0.950 . S
C441 C437 1.393 . S
C441 C440 1.391 . S
C442 H432 0.950 . S
C442 C443 1.386 . S
C442 C444 1.391 . S
C443 C442 1.386 . S
C443 C447 1.393 . S
C444 H433 0.950 . S
C444 C442 1.391 . S
C444 C445 1.400 . S
C445 C439 1.491 . S
C445 C444 1.400 . S
C445 C446 1.398 . S
C446 H434 0.950 . S
C446 C445 1.398 . S
C446 C447 1.391 . S
C447 H435 0.950 . S
C447 C443 1.393 . S
C447 C446 1.391 . S
H448 C456 0.950 . S
H449 C461 0.950 . S
H450 C458 0.950 . S
H451 C460 0.950 . S
H452 C462 0.950 . S
H453 C464 0.950 . S
H454 C466 0.950 . S
H455 C467 0.950 . S
C456 H448 0.950 . S
C456 C457 1.386 . S
C456 C458 1.391 . S
C457 C456 1.386 . S
C457 C461 1.393 . S
C458 H450 0.950 . S
C458 C456 1.391 . S
C458 C459 1.400 . S
C459 C458 1.400 . S
C459 C460 1.398 . S
C459 C465 1.491 . S
C460 H451 0.950 . S
C460 C459 1.398 . S
C460 C461 1.391 . S
C461 H449 0.950 . S
C461 C457 1.393 . S
C461 C460 1.391 . S
C462 H452 0.950 . S
C462 C463 1.386 . S
C462 C464 1.391 . S
C463 C462 1.386 . S
C463 C467 1.393 . S
C464 H453 0.950 . S
C464 C462 1.391 . S
C464 C465 1.400 . S
C465 C459 1.491 . S
C465 C464 1.400 . S
C465 C466 1.398 . S
C466 H454 0.950 . S
C466 C465 1.398 . S
C466 C467 1.391 . S
C467 H455 0.950 . S
C467 C463 1.393 . S
C467 C466 1.391 . S
H468 C476 0.950 . S
H469 C481 0.950 . S
H470 C478 0.950 . S
H471 C480 0.950 . S
H472 C482 0.950 . S
H473 C484 0.950 . S
H474 C486 0.950 . S
H475 C487 0.950 . S
C476 H468 0.950 . S
C476 C477 1.386 . S
C476 C478 1.391 . S
C477 C476 1.386 . S
C477 C481 1.393 . S
C478 H470 0.950 . S
C478 C476 1.391 . S
C478 C479 1.400 . S
C479 C478 1.400 . S
C479 C480 1.398 . S
C479 C485 1.491 . S
C480 H471 0.950 . S
C480 C479 1.398 . S
C480 C481 1.391 . S
C481 H469 0.950 . S
C481 C477 1.393 . S
C481 C480 1.391 . S
C482 H472 0.950 . S
C482 C483 1.386 . S
C482 C484 1.391 . S
C483 C482 1.386 . S
C483 C487 1.393 . S
C484 H473 0.950 . S
C484 C482 1.391 . S
C484 C485 1.400 . S
C485 C479 1.491 . S
C485 C484 1.400 . S
C485 C486 1.398 . S
C486 H474 0.950 . S
C486 C485 1.398 . S
C486 C487 1.391 . S
C487 H475 0.950 . S
C487 C483 1.393 . S
C487 C486 1.391 . S
H488 C496 0.950 . S
H489 C501 0.950 . S
H490 C498 0.950 . S
H491 C500 0.950 . S
H492 C502 0.950 . S
H493 C504 0.950 . S
H494 C506 0.950 . S
H495 C507 0.950 . S
C496 H488 0.950 . S
C496 C497 1.386 . S
C496 C498 1.391 . S
C497 C496 1.386 . S
C497 C501 1.393 . S
C498 H490 0.950 . S
C498 C496 1.391 . S
C498 C499 1.400 . S
C499 C498 1.400 . S
C499 C500 1.398 . S
C499 C505 1.491 . S
C500 H491 0.950 . S
C500 C499 1.398 . S
C500 C501 1.391 . S
C501 H489 0.950 . S
C501 C497 1.393 . S
C501 C500 1.391 . S
C502 H492 0.950 . S
C502 C503 1.386 . S
C502 C504 1.391 . S
C503 C502 1.386 . S
C503 C507 1.393 . S
C504 H493 0.950 . S
C504 C502 1.391 . S
C504 C505 1.400 . S
C505 C499 1.491 . S
C505 C504 1.400 . S
C505 C506 1.398 . S
C506 H494 0.950 . S
C506 C505 1.398 . S
C506 C507 1.391 . S
C507 H495 0.950 . S
C507 C503 1.393 . S
C507 C506 1.391 . S
H508 C516 0.950 . S
H509 C521 0.950 . S
H510 C518 0.950 . S
H511 C520 0.950 . S
H512 C522 0.950 . S
H513 C524 0.950 . S
H514 C526 0.950 . S
H515 C527 0.950 . S
C516 H508 0.950 . S
C516 C517 1.386 . S
C516 C518 1.391 . S
C517 C516 1.386 . S
C517 C521 1.393 . S
C518 H510 0.950 . S
C518 C516 1.391 . S
C518 C519 1.400 . S
C519 C518 1.400 . S
C519 C520 1.398 . S
C519 C525 1.491 . S
C520 H511 0.950 . S
C520 C519 1.398 . S
C520 C521 1.391 . S
C521 H509 0.950 . S
C521 C517 1.393 . S
C521 C520 1.391 . S
C522 H512 0.950 . S
C522 C523 1.386 . S
C522 C524 1.391 . S
C523 C522 1.386 . S
C523 C527 1.393 . S
C524 H513 0.950 . S
C524 C522 1.391 . S
C524 C525 1.400 . S
C525 C519 1.491 . S
C525 C524 1.400 . S
C525 C526 1.398 . S
C526 H514 0.950 . S
C526 C525 1.398 . S
C526 C527 1.391 . S
C527 H515 0.950 . S
C527 C523 1.393 . S
C527 C526 1.391 . S
H528 C536 0.950 . S
H529 C541 0.950 . S
H530 C538 0.950 . S
H531 C540 0.950 . S
H532 C542 0.950 1_556 S
H533 C544 0.950 . S
H534 C546 0.950 . S
H535 C547 0.950 . S
C536 H528 0.950 . S
C536 C537 1.386 . S
C536 C538 1.391 . S
C537 C536 1.386 . S
C537 C541 1.393 . S
C538 H530 0.950 . S
C538 C536 1.391 . S
C538 C539 1.400 . S
C539 C538 1.400 . S
C539 C540 1.398 . S
C539 C545 1.491 . S
C540 H531 0.950 . S
C540 C539 1.398 . S
C540 C541 1.391 . S
C541 H529 0.950 . S
C541 C537 1.393 . S
C541 C540 1.391 . S
C542 H532 0.950 1_554 S
C542 C543 1.386 . S
C542 C544 1.391 . S
C543 C542 1.386 . S
C543 C547 1.393 . S
C544 H533 0.950 . S
C544 C542 1.391 . S
C544 C545 1.400 . S
C545 C539 1.491 . S
C545 C544 1.400 . S
C545 C546 1.398 . S
C546 H534 0.950 . S
C546 C545 1.398 . S
C546 C547 1.391 . S
C547 H535 0.950 . S
C547 C543 1.393 . S
C547 C546 1.391 . S
H548 C556 0.950 . S
H549 C561 0.950 . S
H550 C558 0.950 . S
H551 C560 0.950 . S
H552 C562 0.950 . S
H553 C564 0.950 . S
H554 C566 0.950 . S
H555 C567 0.950 . S
C556 H548 0.950 . S
C556 C557 1.386 . S
C556 C558 1.391 . S
C557 C556 1.386 . S
C557 C561 1.393 . S
C558 H550 0.950 . S
C558 C556 1.391 . S
C558 C559 1.400 . S
C559 C558 1.400 . S
C559 C560 1.398 . S
C559 C565 1.491 . S
C560 H551 0.950 . S
C560 C559 1.398 . S
C560 C561 1.391 . S
C561 H549 0.950 . S
C561 C557 1.393 . S
C561 C560 1.391 . S
C562 H552 0.950 . S
C562 C563 1.386 . S
C562 C564 1.391 . S
C563 C562 1.386 . S
C563 C567 1.393 . S
C564 H553 0.950 . S
C564 C562 1.391 . S
C564 C565 1.400 . S
C565 C559 1.491 . S
C565 C564 1.400 . S
C565 C566 1.398 . S
C566 H554 0.950 . S
C566 C565 1.398 . S
C566 C567 1.391 . S
C567 H555 0.950 . S
C567 C563 1.393 . S
C567 C566 1.391 . S
H568 C576 0.950 . S
H569 C581 0.950 . S
H570 C578 0.950 . S
H571 C580 0.950 . S
H572 C582 0.950 . S
H573 C584 0.950 . S
H574 C586 0.950 1_556 S
H575 C587 0.950 1_556 S
C576 H568 0.950 . S
C576 C577 1.386 1_556 S
C576 C578 1.391 . S
C577 C576 1.386 1_554 S
C577 C581 1.393 . S
C578 H570 0.950 . S
C578 C576 1.391 . S
C578 C579 1.400 1_556 S
C579 C578 1.400 1_554 S
C579 C580 1.398 . S
C579 C585 1.491 . S
C580 H571 0.950 . S
C580 C579 1.398 . S
C580 C581 1.391 . S
C581 H569 0.950 . S
C581 C577 1.393 . S
C581 C580 1.391 . S
C582 H572 0.950 . S
C582 C583 1.386 . S
C582 C584 1.391 . S
C583 C582 1.386 . S
C583 C587 1.393 . S
C584 H573 0.950 . S
C584 C582 1.391 . S
C584 C585 1.400 . S
C585 C579 1.491 . S
C585 C584 1.400 . S
C585 C586 1.398 . S
C586 H574 0.950 1_554 S
C586 C585 1.398 . S
C586 C587 1.391 . S
C587 H575 0.950 1_554 S
C587 C583 1.393 . S
C587 C586 1.391 . S
H588 C596 0.950 . S
H589 C601 0.950 . S
H590 C598 0.950 . S
H591 C600 0.950 1_554 S
H592 C602 0.950 . S
H593 C604 0.950 . S
H594 C606 0.950 . S
H595 C607 0.950 . S
C596 H588 0.950 . S
C596 C597 1.386 . S
C596 C598 1.391 . S
C597 C596 1.386 . S
C597 C601 1.393 . S
C598 H590 0.950 . S
C598 C596 1.391 . S
C598 C599 1.400 . S
C599 C598 1.400 . S
C599 C600 1.398 . S
C599 C605 1.491 . S
C600 H591 0.950 1_556 S
C600 C599 1.398 . S
C600 C601 1.391 . S
C601 H589 0.950 . S
C601 C597 1.393 . S
C601 C600 1.391 . S
C602 H592 0.950 . S
C602 C603 1.386 1_554 S
C602 C604 1.391 . S
C603 C602 1.386 1_556 S
C603 C607 1.393 . S
C604 H593 0.950 . S
C604 C602 1.391 . S
C604 C605 1.400 1_554 S
C605 C599 1.491 . S
C605 C604 1.400 1_556 S
C605 C606 1.398 . S
C606 H594 0.950 . S
C606 C605 1.398 . S
C606 C607 1.391 . S
C607 H595 0.950 . S
C607 C603 1.393 . S
C607 C606 1.391 . S
H608 C616 0.950 . S
H609 C621 0.950 . S
H610 C618 0.950 . S
H611 C620 0.950 . S
H612 C622 0.950 . S
H613 C624 0.950 . S
H614 C626 0.950 . S
H615 C627 0.950 . S
C616 H608 0.950 . S
C616 C617 1.386 . S
C616 C618 1.391 . S
C617 C616 1.386 . S
C617 C621 1.393 . S
C618 H610 0.950 . S
C618 C616 1.391 . S
C618 C619 1.400 . S
C619 C618 1.400 . S
C619 C620 1.398 . S
C619 C625 1.491 . S
C620 H611 0.950 . S
C620 C619 1.398 . S
C620 C621 1.391 . S
C621 H609 0.950 . S
C621 C617 1.393 . S
C621 C620 1.391 . S
C622 H612 0.950 . S
C622 C623 1.386 . S
C622 C624 1.391 . S
C623 C622 1.386 . S
C623 C627 1.393 . S
C624 H613 0.950 . S
C624 C622 1.391 . S
C624 C625 1.400 . S
C625 C619 1.491 . S
C625 C624 1.400 . S
C625 C626 1.398 . S
C626 H614 0.950 . S
C626 C625 1.398 . S
C626 C627 1.391 . S
C627 H615 0.950 . S
C627 C623 1.393 . S
C627 C626 1.391 . S
H628 C636 0.950 . S
H629 C641 0.950 . S
H630 C638 0.950 . S
H631 C640 0.950 . S
H632 C642 0.950 . S
H633 C644 0.950 . S
H634 C646 0.950 . S
H635 C647 0.950 . S
C636 H628 0.950 . S
C636 C637 1.386 . S
C636 C638 1.391 . S
C637 C636 1.386 . S
C637 C641 1.393 . S
C638 H630 0.950 . S
C638 C636 1.391 . S
C638 C639 1.400 . S
C639 C638 1.400 . S
C639 C640 1.398 . S
C639 C645 1.491 . S
C640 H631 0.950 . S
C640 C639 1.398 . S
C640 C641 1.391 . S
C641 H629 0.950 . S
C641 C637 1.393 . S
C641 C640 1.391 . S
C642 H632 0.950 . S
C642 C643 1.386 . S
C642 C644 1.391 . S
C643 C642 1.386 . S
C643 C647 1.393 . S
C644 H633 0.950 . S
C644 C642 1.391 . S
C644 C645 1.400 . S
C645 C639 1.491 . S
C645 C644 1.400 . S
C645 C646 1.398 . S
C646 H634 0.950 . S
C646 C645 1.398 . S
C646 C647 1.391 . S
C647 H635 0.950 . S
C647 C643 1.393 . S
C647 C646 1.391 . S
H648 C656 0.950 . S
H649 C661 0.950 . S
H650 C658 0.950 . S
H651 C660 0.950 . S
H652 C662 0.950 . S
H653 C664 0.950 . S
H654 C666 0.950 . S
H655 C667 0.950 . S
C656 H648 0.950 . S
C656 C657 1.386 . S
C656 C658 1.391 . S
C657 C656 1.386 . S
C657 C661 1.393 . S
C658 H650 0.950 . S
C658 C656 1.391 . S
C658 C659 1.400 . S
C659 C658 1.400 . S
C659 C660 1.398 . S
C659 C665 1.491 . S
C660 H651 0.950 . S
C660 C659 1.398 . S
C660 C661 1.391 . S
C661 H649 0.950 . S
C661 C657 1.393 . S
C661 C660 1.391 . S
C662 H652 0.950 . S
C662 C663 1.386 . S
C662 C664 1.391 . S
C663 C662 1.386 . S
C663 C667 1.393 . S
C664 H653 0.950 . S
C664 C662 1.391 . S
C664 C665 1.400 . S
C665 C659 1.491 . S
C665 C664 1.400 . S
C665 C666 1.398 . S
C666 H654 0.950 . S
C666 C665 1.398 . S
C666 C667 1.391 . S
C667 H655 0.950 . S
C667 C663 1.393 . S
C667 C666 1.391 . S
H668 C676 0.950 . S
H669 C681 0.950 . S
H670 C678 0.950 . S
H671 C680 0.950 . S
H672 C682 0.950 . S
H673 C684 0.950 . S
H674 C686 0.950 . S
H675 C687 0.950 . S
C676 H668 0.950 . S
C676 C677 1.386 . S
C676 C678 1.391 . S
C677 C676 1.386 . S
C677 C681 1.393 . S
C678 H670 0.950 . S
C678 C676 1.391 . S
C678 C679 1.400 . S
C679 C678 1.400 . S
C679 C680 1.398 . S
C679 C685 1.491 . S
C680 H671 0.950 . S
C680 C679 1.398 . S
C680 C681 1.391 . S
C681 H669 0.950 . S
C681 C677 1.393 . S
C681 C680 1.391 . S
C682 H672 0.950 . S
C682 C683 1.386 . S
C682 C684 1.391 . S
C683 C682 1.386 . S
C683 C687 1.393 . S
C684 H673 0.950 . S
C684 C682 1.391 . S
C684 C685 1.400 . S
C685 C679 1.491 . S
C685 C684 1.400 . S
C685 C686 1.398 . S
C686 H674 0.950 . S
C686 C685 1.398 . S
C686 C687 1.391 . S
C687 H675 0.950 . S
C687 C683 1.393 . S
C687 C686 1.391 . S
H688 C696 0.950 . S
H689 C701 0.950 . S
H690 C698 0.950 . S
H691 C700 0.950 . S
H692 C702 0.950 . S
H693 C704 0.950 . S
H694 C706 0.950 . S
H695 C707 0.950 . S
C696 H688 0.950 . S
C696 C697 1.386 . S
C696 C698 1.391 . S
C697 C696 1.386 . S
C697 C701 1.393 . S
C698 H690 0.950 . S
C698 C696 1.391 . S
C698 C699 1.400 . S
C699 C698 1.400 . S
C699 C700 1.398 . S
C699 C705 1.491 . S
C700 H691 0.950 . S
C700 C699 1.398 . S
C700 C701 1.391 . S
C701 H689 0.950 . S
C701 C697 1.393 . S
C701 C700 1.391 . S
C702 H692 0.950 . S
C702 C703 1.386 . S
C702 C704 1.391 . S
C703 C702 1.386 . S
C703 C707 1.393 . S
C704 H693 0.950 . S
C704 C702 1.391 . S
C704 C705 1.400 . S
C705 C699 1.491 . S
C705 C704 1.400 . S
C705 C706 1.398 . S
C706 H694 0.950 . S
C706 C705 1.398 . S
C706 C707 1.391 . S
C707 H695 0.950 . S
C707 C703 1.393 . S
C707 C706 1.391 . S
H708 C716 0.950 . S
H709 C721 0.950 . S
H710 C718 0.950 . S
H711 C720 0.950 . S
H712 C722 0.950 . S
H713 C724 0.950 . S
H714 C726 0.950 . S
H715 C727 0.950 . S
C716 H708 0.950 . S
C716 C717 1.386 . S
C716 C718 1.391 . S
C717 C716 1.386 . S
C717 C721 1.393 . S
C718 H710 0.950 . S
C718 C716 1.391 . S
C718 C719 1.400 . S
C719 C718 1.400 . S
C719 C720 1.398 . S
C719 C725 1.491 . S
C720 H711 0.950 . S
C720 C719 1.398 . S
C720 C721 1.391 . S
C721 H709 0.950 . S
C721 C717 1.393 . S
C721 C720 1.391 . S
C722 H712 0.950 . S
C722 C723 1.386 . S
C722 C724 1.391 . S
C723 C722 1.386 . S
C723 C727 1.393 . S
C724 H713 0.950 . S
C724 C722 1.391 . S
C724 C725 1.400 . S
C725 C719 1.491 . S
C725 C724 1.400 . S
C725 C726 1.398 . S
C726 H714 0.950 . S
C726 C725 1.398 . S
C726 C727 1.391 . S
C727 H715 0.950 . S
C727 C723 1.393 . S
C727 C726 1.391 . S
H728 C736 0.950 . S
H729 C741 0.950 . S
H730 C738 0.950 . S
H731 C740 0.950 . S
H732 C742 0.950 . S
H733 C744 0.950 . S
H734 C746 0.950 . S
H735 C747 0.950 . S
C736 H728 0.950 . S
C736 C737 1.386 . S
C736 C738 1.391 . S
C737 C736 1.386 . S
C737 C741 1.393 . S
C738 H730 0.950 . S
C738 C736 1.391 . S
C738 C739 1.400 . S
C739 C738 1.400 . S
C739 C740 1.398 . S
C739 C745 1.491 . S
C740 H731 0.950 . S
C740 C739 1.398 . S
C740 C741 1.391 . S
C741 H729 0.950 . S
C741 C737 1.393 . S
C741 C740 1.391 . S
C742 H732 0.950 . S
C742 C743 1.386 . S
C742 C744 1.391 . S
C743 C742 1.386 . S
C743 C747 1.393 . S
C744 H733 0.950 . S
C744 C742 1.391 . S
C744 C745 1.400 . S
C745 C739 1.491 . S
C745 C744 1.400 . S
C745 C746 1.398 . S
C746 H734 0.950 . S
C746 C745 1.398 . S
C746 C747 1.391 . S
C747 H735 0.950 . S
C747 C743 1.393 . S
C747 C746 1.391 . S
H748 C756 0.950 . S
H749 C761 0.950 . S
H750 C758 0.950 . S
H751 C760 0.950 . S
H752 C762 0.950 . S
H753 C764 0.950 . S
H754 C766 0.950 . S
H755 C767 0.950 . S
C756 H748 0.950 . S
C756 C757 1.386 . S
C756 C758 1.391 . S
C757 C756 1.386 . S
C757 C761 1.393 . S
C758 H750 0.950 . S
C758 C756 1.391 . S
C758 C759 1.400 . S
C759 C758 1.400 . S
C759 C760 1.398 . S
C759 C765 1.491 . S
C760 H751 0.950 . S
C760 C759 1.398 . S
C760 C761 1.391 . S
C761 H749 0.950 . S
C761 C757 1.393 . S
C761 C760 1.391 . S
C762 H752 0.950 . S
C762 C763 1.386 . S
C762 C764 1.391 . S
C763 C762 1.386 . S
C763 C767 1.393 . S
C764 H753 0.950 . S
C764 C762 1.391 . S
C764 C765 1.400 . S
C765 C759 1.491 . S
C765 C764 1.400 . S
C765 C766 1.398 . S
C766 H754 0.950 . S
C766 C765 1.398 . S
C766 C767 1.391 . S
C767 H755 0.950 . S
C767 C763 1.393 . S
C767 C766 1.391 . S
H768 C776 0.950 . S
H769 C781 0.959 . S
H770 C778 0.950 . S
H771 C780 0.953 . S
H772 C782 0.950 . S
H773 C784 0.950 . S
H774 C786 0.950 . S
H775 C787 0.950 . S
C776 H768 0.950 . S
C776 C777 1.386 . S
C776 C778 1.391 . S
C777 C776 1.386 . S
C777 C781 1.388 1_554 S
C778 H770 0.950 . S
C778 C776 1.391 . S
C778 C779 1.400 . S
C779 C778 1.400 . S
C779 C780 1.398 . S
C779 C785 1.491 . S
C780 H771 0.953 . S
C780 C779 1.398 . S
C780 C781 1.387 1_554 S
C781 H769 0.959 . S
C781 C777 1.388 1_556 S
C781 C780 1.387 1_556 S
C782 H772 0.950 . S
C782 C783 1.386 . S
C782 C784 1.391 . S
C783 C782 1.386 . S
C783 C787 1.393 . S
C784 H773 0.950 . S
C784 C782 1.391 . S
C784 C785 1.400 . S
C785 C779 1.491 . S
C785 C784 1.400 . S
C785 C786 1.398 . S
C786 H774 0.950 . S
C786 C785 1.398 . S
C786 C787 1.391 . S
C787 H775 0.950 . S
C787 C783 1.393 . S
C787 C786 1.391 . S
H788 C796 0.950 . S
H789 C801 0.950 . S
H790 C798 0.950 . S
H791 C800 0.950 . S
H792 C802 0.950 . S
H793 C804 0.950 . S
H794 C806 0.950 1_554 S
H795 C807 0.950 1_554 S
C796 H788 0.950 . S
C796 C797 1.386 1_554 S
C796 C798 1.391 . S
C797 C796 1.386 1_556 S
C797 C801 1.393 . S
C798 H790 0.950 . S
C798 C796 1.391 . S
C798 C799 1.400 1_554 S
C799 C798 1.400 1_556 S
C799 C800 1.398 . S
C799 C805 1.491 . S
C800 H791 0.950 . S
C800 C799 1.398 . S
C800 C801 1.391 . S
C801 H789 0.950 . S
C801 C797 1.393 . S
C801 C800 1.391 . S
C802 H792 0.950 . S
C802 C803 1.386 . S
C802 C804 1.391 . S
C803 C802 1.386 . S
C803 C807 1.393 . S
C804 H793 0.950 . S
C804 C802 1.391 . S
C804 C805 1.400 . S
C805 C799 1.491 . S
C805 C804 1.400 . S
C805 C806 1.398 . S
C806 H794 0.950 1_556 S
C806 C805 1.398 . S
C806 C807 1.391 . S
C807 H795 0.950 1_556 S
C807 C803 1.393 . S
C807 C806 1.391 . S
H808 C816 0.950 . S
H809 C821 0.950 . S
H810 C818 0.950 . S
H811 C820 0.950 . S
H812 C822 0.950 1_556 S
H813 C824 0.950 . S
H814 C826 0.950 . S
H815 C827 0.950 . S
C816 H808 0.950 . S
C816 C817 1.386 . S
C816 C818 1.391 . S
C817 C816 1.386 . S
C817 C821 1.393 1_554 S
C818 H810 0.950 . S
C818 C816 1.391 . S
C818 C819 1.400 . S
C819 C818 1.400 . S
C819 C820 1.398 1_554 S
C819 C825 1.491 . S
C820 H811 0.950 . S
C820 C819 1.398 1_556 S
C820 C821 1.391 . S
C821 H809 0.950 . S
C821 C817 1.393 1_556 S
C821 C820 1.391 . S
C822 H812 0.950 1_554 S
C822 C823 1.386 . S
C822 C824 1.391 1_554 S
C823 C822 1.386 . S
C823 C827 1.393 . S
C824 H813 0.950 . S
C824 C822 1.391 1_556 S
C824 C825 1.400 1_556 S
C825 C819 1.491 . S
C825 C824 1.400 1_554 S
C825 C826 1.398 . S
C826 H814 0.950 . S
C826 C825 1.398 . S
C826 C827 1.391 . S
C827 H815 0.950 . S
C827 C823 1.393 . S
C827 C826 1.391 . S
H828 C836 0.950 . S
H829 C841 0.950 1_554 S
H830 C838 0.950 . S
H831 C840 0.950 . S
H832 C842 0.950 . S
H833 C844 0.950 . S
H834 C846 0.950 . S
H835 C847 0.950 . S
C836 H828 0.950 . S
C836 C837 1.386 . S
C836 C838 1.391 . S
C837 C836 1.386 . S
C837 C841 1.393 . S
C838 H830 0.950 . S
C838 C836 1.391 . S
C838 C839 1.400 . S
C839 C838 1.400 . S
C839 C840 1.398 1_556 S
C839 C845 1.491 . S
C840 H831 0.950 . S
C840 C839 1.398 1_554 S
C840 C841 1.391 1_554 S
C841 H829 0.950 1_556 S
C841 C837 1.393 . S
C841 C840 1.391 1_556 S
C842 H832 0.950 . S
C842 C843 1.386 1_554 S
C842 C844 1.391 . S
C843 C842 1.386 1_556 S
C843 C847 1.393 . S
C844 H833 0.950 . S
C844 C842 1.391 . S
C844 C845 1.400 1_554 S
C845 C839 1.491 . S
C845 C844 1.400 1_556 S
C845 C846 1.398 . S
C846 H834 0.950 . S
C846 C845 1.398 . S
C846 C847 1.391 . S
C847 H835 0.950 . S
C847 C843 1.393 . S
C847 C846 1.391 . S
H848 C856 0.950 . S
H849 C861 0.950 . S
H850 C858 0.950 . S
H851 C860 0.950 . S
H852 C862 0.950 . S
H853 C864 0.950 . S
H854 C866 0.950 . S
H855 C867 0.950 . S
C856 H848 0.950 . S
C856 C857 1.386 . S
C856 C858 1.391 . S
C857 C856 1.386 . S
C857 C861 1.393 . S
C858 H850 0.950 . S
C858 C856 1.391 . S
C858 C859 1.400 . S
C859 C858 1.400 . S
C859 C860 1.398 . S
C859 C865 1.491 1_565 S
C860 H851 0.950 . S
C860 C859 1.398 . S
C860 C861 1.391 . S
C861 H849 0.950 . S
C861 C857 1.393 . S
C861 C860 1.391 . S
C862 H852 0.950 . S
C862 C863 1.386 . S
C862 C864 1.391 . S
C863 C862 1.386 . S
C863 C867 1.393 . S
C864 H853 0.950 . S
C864 C862 1.391 . S
C864 C865 1.400 . S
C865 C859 1.491 1_545 S
C865 C864 1.400 . S
C865 C866 1.398 . S
C866 H854 0.950 . S
C866 C865 1.398 . S
C866 C867 1.391 . S
C867 H855 0.950 . S
C867 C863 1.393 . S
C867 C866 1.391 . S
H868 C876 0.950 . S
H869 C881 0.950 . S
H870 C878 0.950 . S
H871 C880 0.950 . S
H872 C882 0.950 . S
H873 C884 0.950 . S
H874 C886 0.950 . S
H875 C887 0.950 . S
C876 H868 0.950 . S
C876 C877 1.386 . S
C876 C878 1.391 . S
C877 C876 1.386 . S
C877 C881 1.393 1_655 S
C878 H870 0.950 . S
C878 C876 1.391 . S
C878 C879 1.400 . S
C879 C878 1.400 . S
C879 C880 1.398 1_655 S
C879 C885 1.491 1_655 S
C880 H871 0.950 . S
C880 C879 1.398 1_455 S
C880 C881 1.391 . S
C881 H869 0.950 . S
C881 C877 1.393 1_455 S
C881 C880 1.391 . S
C882 H872 0.950 . S
C882 C883 1.386 . S
C882 C884 1.391 . S
C883 C882 1.386 . S
C883 C887 1.393 1_455 S
C884 H873 0.950 . S
C884 C882 1.391 . S
C884 C885 1.400 . S
C885 C879 1.491 1_455 S
C885 C884 1.400 . S
C885 C886 1.398 1_455 S
C886 H874 0.950 . S
C886 C885 1.398 1_655 S
C886 C887 1.391 . S
C887 H875 0.950 . S
C887 C883 1.393 1_655 S
C887 C886 1.391 . S
H888 C896 0.937 1_545 S
H889 C901 0.950 . S
H890 C898 0.950 . S
H891 C900 0.950 . S
H892 C902 0.950 1_565 S
H893 C904 0.950 . S
H894 C906 0.950 . S
H895 C907 0.950 . S
C896 H888 0.937 1_565 S
C896 C897 1.386 . S
C896 C898 1.391 1_565 S
C897 C896 1.386 . S
C897 C901 1.393 . S
C898 H890 0.950 . S
C898 C896 1.391 1_545 S
C898 C899 1.400 1_545 S
C899 C898 1.400 1_565 S
C899 C900 1.398 . S
C899 C905 1.491 1_565 S
C900 H891 0.950 . S
C900 C899 1.398 . S
C900 C901 1.391 . S
C901 H889 0.950 . S
C901 C897 1.393 . S
C901 C900 1.391 . S
C902 H892 0.950 1_545 S
C902 C903 1.386 . S
C902 C904 1.391 1_545 S
C903 C902 1.386 . S
C903 C907 1.393 . S
C904 H893 0.950 . S
C904 C902 1.391 1_565 S
C904 C905 1.400 1_565 S
C905 C899 1.491 1_545 S
C905 C904 1.400 1_545 S
C905 C906 1.398 . S
C906 H894 0.950 . S
C906 C905 1.398 . S
C906 C907 1.391 . S
C907 H895 0.950 . S
C907 C903 1.393 . S
C907 C906 1.391 . S
H908 C916 0.950 . S
H909 C921 0.950 . S
H910 C918 0.950 . S
H911 C920 0.950 . S
H912 C922 0.950 . S
H913 C924 0.950 . S
H914 C926 0.950 . S
H915 C927 0.950 . S
C916 H908 0.950 . S
C916 C917 1.386 1_455 S
C916 C918 1.391 . S
C917 C916 1.386 1_655 S
C917 C921 1.393 . S
C918 H910 0.950 . S
C918 C916 1.391 . S
C918 C919 1.400 1_455 S
C919 C918 1.400 1_655 S
C919 C920 1.398 . S
C919 C925 1.491 1_655 S
C920 H911 0.950 . S
C920 C919 1.398 . S
C920 C921 1.391 . S
C921 H909 0.950 . S
C921 C917 1.393 . S
C921 C920 1.391 . S
C922 H912 0.950 . S
C922 C923 1.386 1_655 S
C922 C924 1.391 . S
C923 C922 1.386 1_455 S
C923 C927 1.393 . S
C924 H913 0.950 . S
C924 C922 1.391 . S
C924 C925 1.400 1_655 S
C925 C919 1.491 1_455 S
C925 C924 1.400 1_455 S
C925 C926 1.398 . S
C926 H914 0.950 . S
C926 C925 1.398 . S
C926 C927 1.391 . S
C927 H915 0.950 . S
C927 C923 1.393 . S
C927 C926 1.391 . S
H928 C936 0.950 . S
H929 C941 0.950 . S
H930 C938 0.950 . S
H931 C940 0.950 . S
H932 C942 0.950 . S
H933 C944 0.950 . S
H934 C946 0.950 . S
H935 C947 0.950 . S
C936 H928 0.950 . S
C936 C937 1.386 1_545 S
C936 C938 1.391 . S
C937 C936 1.386 1_565 S
C937 C941 1.393 . S
C938 H930 0.950 . S
C938 C936 1.391 . S
C938 C939 1.400 1_545 S
C939 C938 1.400 1_565 S
C939 C940 1.398 . S
C939 C945 1.491 1_565 S
C940 H931 0.950 . S
C940 C939 1.398 . S
C940 C941 1.391 . S
C941 H929 0.950 . S
C941 C937 1.393 . S
C941 C940 1.391 . S
C942 H932 0.950 . S
C942 C943 1.386 1_565 S
C942 C944 1.391 . S
C943 C942 1.386 1_545 S
C943 C947 1.393 . S
C944 H933 0.950 . S
C944 C942 1.391 . S
C944 C945 1.400 1_565 S
C945 C939 1.491 1_545 S
C945 C944 1.400 1_545 S
C945 C946 1.398 . S
C946 H934 0.950 . S
C946 C945 1.398 . S
C946 C947 1.391 . S
C947 H935 0.950 . S
C947 C943 1.393 . S
C947 C946 1.391 . S
H948 C956 0.950 . S
H949 C961 0.950 . S
H950 C958 0.950 . S
H951 C960 0.950 . S
H952 C962 0.950 . S
H953 C964 0.950 . S
H954 C966 0.950 . S
H955 C967 0.950 . S
C956 H948 0.950 . S
C956 C957 1.386 1_655 S
C956 C958 1.391 . S
C957 C956 1.386 1_455 S
C957 C961 1.393 . S
C958 H950 0.950 . S
C958 C956 1.391 . S
C958 C959 1.400 1_655 S
C959 C958 1.400 1_455 S
C959 C960 1.398 . S
C959 C965 1.491 1_455 S
C960 H951 0.950 . S
C960 C959 1.398 . S
C960 C961 1.391 . S
C961 H949 0.950 . S
C961 C957 1.393 . S
C961 C960 1.391 . S
C962 H952 0.950 . S
C962 C963 1.386 1_455 S
C962 C964 1.391 . S
C963 C962 1.386 1_655 S
C963 C967 1.393 . S
C964 H953 0.950 . S
C964 C962 1.391 . S
C964 C965 1.400 1_455 S
C965 C959 1.491 1_655 S
C965 C964 1.400 1_655 S
C965 C966 1.398 . S
C966 H954 0.950 . S
C966 C965 1.398 . S
C966 C967 1.391 . S
C967 H955 0.950 . S
C967 C963 1.393 . S
C967 C966 1.391 . S
H968 C976 0.950 . S
H969 C981 0.950 . S
H970 C978 0.950 . S
H971 C980 0.950 1_545 S
H972 C982 0.950 . S
H973 C984 0.950 . S
H974 C986 0.950 1_565 S
H975 C987 0.950 . S
C976 H968 0.950 . S
C976 C977 1.386 . S
C976 C978 1.391 . S
C977 C976 1.386 . S
C977 C981 1.393 . S
C978 H970 0.950 . S
C978 C976 1.391 . S
C978 C979 1.400 . S
C979 C978 1.400 . S
C979 C980 1.398 . S
C979 C985 1.491 1_565 S
C980 H971 0.950 1_565 S
C980 C979 1.398 . S
C980 C981 1.391 . S
C981 H969 0.950 . S
C981 C977 1.393 . S
C981 C980 1.391 . S
C982 H972 0.950 . S
C982 C983 1.386 . S
C982 C984 1.391 . S
C983 C982 1.386 . S
C983 C987 1.393 . S
C984 H973 0.950 . S
C984 C982 1.391 . S
C984 C985 1.400 . S
C985 C979 1.491 1_545 S
C985 C984 1.400 . S
C985 C986 1.398 . S
C986 H974 0.950 1_545 S
C986 C985 1.398 . S
C986 C987 1.391 . S
C987 H975 0.950 . S
C987 C983 1.393 . S
C987 C986 1.391 . S
H988 C996 0.950 . S
H989 C1001 0.950 . S
H990 C998 0.950 . S
H991 C1000 0.950 . S
H992 C1002 0.950 . S
H993 C1004 0.950 . S
H994 C1006 0.950 . S
H995 C1007 0.950 . S
C996 H988 0.950 . S
C996 C997 1.386 1_655 S
C996 C998 1.391 . S
C997 C996 1.386 1_455 S
C997 C1001 1.393 . S
C998 H990 0.950 . S
C998 C996 1.391 . S
C998 C999 1.400 1_655 S
C999 C998 1.400 1_455 S
C999 C1000 1.398 . S
C999 C1005 1.491 1_455 S
C1000 H991 0.950 . S
C1000 C999 1.398 . S
C1000 C1001 1.391 . S
C1001 H989 0.950 . S
C1001 C997 1.393 . S
C1001 C1000 1.391 . S
C1002 H992 0.950 . S
C1002 C1003 1.386 1_455 S
C1002 C1004 1.391 . S
C1003 C1002 1.386 1_655 S
C1003 C1007 1.393 . S
C1004 H993 0.950 . S
C1004 C1002 1.391 . S
C1004 C1005 1.400 1_455 S
C1005 C999 1.491 1_655 S
C1005 C1004 1.400 1_655 S
C1005 C1006 1.398 . S
C1006 H994 0.950 . S
C1006 C1005 1.398 . S
C1006 C1007 1.391 . S
C1007 H995 0.950 . S
C1007 C1003 1.393 . S
C1007 C1006 1.391 . S
H1008 C1016 0.950 . S
H1009 C1021 0.950 . S
H1010 C1018 0.950 . S
H1011 C1020 0.950 . S
H1012 C1022 0.950 . S
H1013 C1024 0.950 . S
H1014 C1026 0.950 . S
H1015 C1027 0.950 . S
C1016 H1008 0.950 . S
C1016 C1017 1.386 . S
C1016 C1018 1.391 . S
C1017 C1016 1.386 . S
C1017 C1021 1.393 . S
C1018 H1010 0.950 . S
C1018 C1016 1.391 . S
C1018 C1019 1.400 . S
C1019 C1018 1.400 . S
C1019 C1020 1.398 . S
C1019 C1025 1.491 . S
C1020 H1011 0.950 . S
C1020 C1019 1.398 . S
C1020 C1021 1.391 . S
C1021 H1009 0.950 . S
C1021 C1017 1.393 . S
C1021 C1020 1.391 . S
C1022 H1012 0.950 . S
C1022 C1023 1.386 . S
C1022 C1024 1.391 . S
C1023 C1022 1.386 . S
C1023 C1027 1.393 . S
C1024 H1013 0.950 . S
C1024 C1022 1.391 . S
C1024 C1025 1.400 . S
C1025 C1019 1.491 . S
C1025 C1024 1.400 . S
C1025 C1026 1.398 . S
C1026 H1014 0.950 . S
C1026 C1025 1.398 . S
C1026 C1027 1.391 . S
C1027 H1015 0.950 . S
C1027 C1023 1.393 . S
C1027 C1026 1.391 . S
H1028 C1036 0.950 . S
H1029 C1041 0.950 . S
H1030 C1038 0.950 . S
H1031 C1040 0.950 . S
H1032 C1042 0.950 . S
H1033 C1044 0.950 . S
H1034 C1046 0.950 . S
H1035 C1047 0.950 . S
C1036 H1028 0.950 . S
C1036 C1037 1.386 . S
C1036 C1038 1.391 . S
C1037 C1036 1.386 . S
C1037 C1041 1.393 . S
C1038 H1030 0.950 . S
C1038 C1036 1.391 . S
C1038 C1039 1.400 . S
C1039 C1038 1.400 . S
C1039 C1040 1.398 . S
C1039 C1045 1.491 . S
C1040 H1031 0.950 . S
C1040 C1039 1.398 . S
C1040 C1041 1.391 . S
C1041 H1029 0.950 . S
C1041 C1037 1.393 . S
C1041 C1040 1.391 . S
C1042 H1032 0.950 . S
C1042 C1043 1.386 . S
C1042 C1044 1.391 . S
C1043 C1042 1.386 . S
C1043 C1047 1.393 . S
C1044 H1033 0.950 . S
C1044 C1042 1.391 . S
C1044 C1045 1.400 . S
C1045 C1039 1.491 . S
C1045 C1044 1.400 . S
C1045 C1046 1.398 . S
C1046 H1034 0.950 . S
C1046 C1045 1.398 . S
C1046 C1047 1.391 . S
C1047 H1035 0.950 . S
C1047 C1043 1.393 . S
C1047 C1046 1.391 . S
H1048 C1056 0.950 . S
H1049 C1061 0.950 . S
H1050 C1058 0.950 . S
H1051 C1060 0.950 . S
H1052 C1062 0.950 . S
H1053 C1064 0.950 . S
H1054 C1066 0.950 . S
H1055 C1067 0.950 . S
C1056 H1048 0.950 . S
C1056 C1057 1.386 . S
C1056 C1058 1.391 . S
C1057 C1056 1.386 . S
C1057 C1061 1.393 . S
C1058 H1050 0.950 . S
C1058 C1056 1.391 . S
C1058 C1059 1.400 . S
C1059 C1058 1.400 . S
C1059 C1060 1.398 . S
C1059 C1065 1.491 . S
C1060 H1051 0.950 . S
C1060 C1059 1.398 . S
C1060 C1061 1.391 . S
C1061 H1049 0.950 . S
C1061 C1057 1.393 . S
C1061 C1060 1.391 . S
C1062 H1052 0.950 . S
C1062 C1063 1.386 . S
C1062 C1064 1.391 . S
C1063 C1062 1.386 . S
C1063 C1067 1.393 . S
C1064 H1053 0.950 . S
C1064 C1062 1.391 . S
C1064 C1065 1.400 . S
C1065 C1059 1.491 . S
C1065 C1064 1.400 . S
C1065 C1066 1.398 . S
C1066 H1054 0.950 . S
C1066 C1065 1.398 . S
C1066 C1067 1.391 . S
C1067 H1055 0.950 . S
C1067 C1063 1.393 . S
C1067 C1066 1.391 . S
H1068 C1076 0.950 . S
H1069 C1081 0.950 . S
H1070 C1078 0.950 . S
H1071 C1080 0.950 . S
H1072 C1082 0.950 . S
H1073 C1084 0.950 . S
H1074 C1086 0.950 . S
H1075 C1087 0.950 . S
C1076 H1068 0.950 . S
C1076 C1077 1.386 . S
C1076 C1078 1.391 . S
C1077 C1076 1.386 . S
C1077 C1081 1.393 . S
C1078 H1070 0.950 . S
C1078 C1076 1.391 . S
C1078 C1079 1.400 . S
C1079 C1078 1.400 . S
C1079 C1080 1.398 . S
C1079 C1085 1.491 . S
C1080 H1071 0.950 . S
C1080 C1079 1.398 . S
C1080 C1081 1.391 . S
C1081 H1069 0.950 . S
C1081 C1077 1.393 . S
C1081 C1080 1.391 . S
C1082 H1072 0.950 . S
C1082 C1083 1.386 . S
C1082 C1084 1.391 . S
C1083 C1082 1.386 . S
C1083 C1087 1.393 . S
C1084 H1073 0.950 . S
C1084 C1082 1.391 . S
C1084 C1085 1.400 . S
C1085 C1079 1.491 . S
C1085 C1084 1.400 . S
C1085 C1086 1.398 . S
C1086 H1074 0.950 . S
C1086 C1085 1.398 . S
C1086 C1087 1.391 . S
C1087 H1075 0.950 . S
C1087 C1083 1.393 . S
C1087 C1086 1.391 . S
H1088 C1096 0.950 . S
H1089 C1101 0.950 . S
H1090 C1098 0.950 . S
H1091 C1100 0.950 . S
H1092 C1102 0.950 . S
H1093 C1104 0.950 . S
H1094 C1106 0.950 . S
H1095 C1107 0.950 . S
C1096 H1088 0.950 . S
C1096 C1097 1.386 . S
C1096 C1098 1.391 . S
C1097 C1096 1.386 . S
C1097 C1101 1.393 . S
C1098 H1090 0.950 . S
C1098 C1096 1.391 . S
C1098 C1099 1.400 . S
C1099 C1098 1.400 . S
C1099 C1100 1.398 . S
C1099 C1105 1.491 . S
C1100 H1091 0.950 . S
C1100 C1099 1.398 . S
C1100 C1101 1.391 . S
C1101 H1089 0.950 . S
C1101 C1097 1.393 . S
C1101 C1100 1.391 . S
C1102 H1092 0.950 . S
C1102 C1103 1.386 . S
C1102 C1104 1.391 . S
C1103 C1102 1.386 . S
C1103 C1107 1.393 . S
C1104 H1093 0.950 . S
C1104 C1102 1.391 . S
C1104 C1105 1.400 . S
C1105 C1099 1.491 . S
C1105 C1104 1.400 . S
C1105 C1106 1.398 . S
C1106 H1094 0.950 . S
C1106 C1105 1.398 . S
C1106 C1107 1.391 . S
C1107 H1095 0.950 . S
C1107 C1103 1.393 . S
C1107 C1106 1.391 . S
H1108 C1116 0.950 . S
H1109 C1121 0.950 . S
H1110 C1118 0.950 . S
H1111 C1120 0.950 . S
H1112 C1122 0.950 . S
H1113 C1124 0.950 . S
H1114 C1126 0.950 . S
H1115 C1127 0.950 . S
C1116 H1108 0.950 . S
C1116 C1117 1.386 . S
C1116 C1118 1.391 . S
C1117 C1116 1.386 . S
C1117 C1121 1.393 . S
C1118 H1110 0.950 . S
C1118 C1116 1.391 . S
C1118 C1119 1.400 . S
C1119 C1118 1.400 . S
C1119 C1120 1.398 . S
C1119 C1125 1.491 . S
C1120 H1111 0.950 . S
C1120 C1119 1.398 . S
C1120 C1121 1.391 . S
C1121 H1109 0.950 . S
C1121 C1117 1.393 . S
C1121 C1120 1.391 . S
C1122 H1112 0.950 . S
C1122 C1123 1.386 . S
C1122 C1124 1.391 . S
C1123 C1122 1.386 . S
C1123 C1127 1.393 . S
C1124 H1113 0.950 . S
C1124 C1122 1.391 . S
C1124 C1125 1.400 . S
C1125 C1119 1.491 . S
C1125 C1124 1.400 . S
C1125 C1126 1.398 . S
C1126 H1114 0.950 . S
C1126 C1125 1.398 . S
C1126 C1127 1.391 . S
C1127 H1115 0.950 . S
C1127 C1123 1.393 . S
C1127 C1126 1.391 . S
H1128 C1136 0.950 . S
H1129 C1141 0.950 . S
H1130 C1138 0.950 . S
H1131 C1140 0.950 . S
H1132 C1142 0.950 . S
H1133 C1144 0.950 . S
H1134 C1146 0.950 . S
H1135 C1147 0.950 . S
C1136 H1128 0.950 . S
C1136 C1137 1.386 . S
C1136 C1138 1.391 . S
C1137 C1136 1.386 . S
C1137 C1141 1.393 . S
C1138 H1130 0.950 . S
C1138 C1136 1.391 . S
C1138 C1139 1.400 . S
C1139 C1138 1.400 . S
C1139 C1140 1.398 . S
C1139 C1145 1.491 . S
C1140 H1131 0.950 . S
C1140 C1139 1.398 . S
C1140 C1141 1.391 . S
C1141 H1129 0.950 . S
C1141 C1137 1.393 . S
C1141 C1140 1.391 . S
C1142 H1132 0.950 . S
C1142 C1143 1.386 . S
C1142 C1144 1.391 . S
C1143 C1142 1.386 . S
C1143 C1147 1.393 . S
C1144 H1133 0.950 . S
C1144 C1142 1.391 . S
C1144 C1145 1.400 . S
C1145 C1139 1.491 . S
C1145 C1144 1.400 . S
C1145 C1146 1.398 . S
C1146 H1134 0.950 . S
C1146 C1145 1.398 . S
C1146 C1147 1.391 . S
C1147 H1135 0.950 . S
C1147 C1143 1.393 . S
C1147 C1146 1.391 . S
H1148 C1156 0.950 . S
H1149 C1161 0.950 . S
H1150 C1158 0.950 . S
H1151 C1160 0.950 . S
H1152 C1162 0.950 . S
H1153 C1164 0.950 . S
H1154 C1166 0.950 . S
H1155 C1167 0.950 . S
C1156 H1148 0.950 . S
C1156 C1157 1.386 . S
C1156 C1158 1.391 . S
C1157 C1156 1.386 . S
C1157 C1161 1.393 . S
C1158 H1150 0.950 . S
C1158 C1156 1.391 . S
C1158 C1159 1.400 . S
C1159 C1158 1.400 . S
C1159 C1160 1.398 . S
C1159 C1165 1.491 . S
C1160 H1151 0.950 . S
C1160 C1159 1.398 . S
C1160 C1161 1.391 . S
C1161 H1149 0.950 . S
C1161 C1157 1.393 . S
C1161 C1160 1.391 . S
C1162 H1152 0.950 . S
C1162 C1163 1.386 . S
C1162 C1164 1.391 . S
C1163 C1162 1.386 . S
C1163 C1167 1.393 . S
C1164 H1153 0.950 . S
C1164 C1162 1.391 . S
C1164 C1165 1.400 . S
C1165 C1159 1.491 . S
C1165 C1164 1.400 . S
C1165 C1166 1.398 . S
C1166 H1154 0.950 . S
C1166 C1165 1.398 . S
C1166 C1167 1.391 . S
C1167 H1155 0.950 . S
C1167 C1163 1.393 . S
C1167 C1166 1.391 . S
H1168 C1176 0.950 1_554 S
H1169 C1181 0.950 . S
H1170 C1178 0.950 . S
H1171 C1180 0.950 . S
H1172 C1182 0.950 1_556 S
H1173 C1184 0.950 . S
H1174 C1186 0.950 . S
H1175 C1187 0.950 . S
C1176 H1168 0.950 1_556 S
C1176 C1177 1.386 . S
C1176 C1178 1.391 1_556 S
C1177 C1176 1.386 . S
C1177 C1181 1.393 . S
C1178 H1170 0.950 . S
C1178 C1176 1.391 1_554 S
C1178 C1179 1.400 1_554 S
C1179 C1178 1.400 1_556 S
C1179 C1180 1.398 . S
C1179 C1185 1.491 1_556 S
C1180 H1171 0.950 . S
C1180 C1179 1.398 . S
C1180 C1181 1.391 . S
C1181 H1169 0.950 . S
C1181 C1177 1.393 . S
C1181 C1180 1.391 . S
C1182 H1172 0.950 1_554 S
C1182 C1183 1.386 . S
C1182 C1184 1.391 1_554 S
C1183 C1182 1.386 . S
C1183 C1187 1.393 . S
C1184 H1173 0.950 . S
C1184 C1182 1.391 1_556 S
C1184 C1185 1.400 1_556 S
C1185 C1179 1.491 1_554 S
C1185 C1184 1.400 1_554 S
C1185 C1186 1.398 . S
C1186 H1174 0.950 . S
C1186 C1185 1.398 . S
C1186 C1187 1.391 . S
C1187 H1175 0.950 . S
C1187 C1183 1.393 . S
C1187 C1186 1.391 . S
H1188 C1196 0.950 . S
H1189 C1201 0.950 . S
H1190 C1198 0.950 . S
H1191 C1200 0.950 . S
H1192 C1202 0.950 . S
H1193 C1204 0.950 . S
H1194 C1206 0.950 . S
H1195 C1207 0.950 . S
C1196 H1188 0.950 . S
C1196 C1197 1.386 . S
C1196 C1198 1.391 . S
C1197 C1196 1.386 . S
C1197 C1201 1.393 1_554 S
C1198 H1190 0.950 . S
C1198 C1196 1.391 . S
C1198 C1199 1.400 . S
C1199 C1198 1.400 . S
C1199 C1200 1.398 1_554 S
C1199 C1205 1.491 1_554 S
C1200 H1191 0.950 . S
C1200 C1199 1.398 1_556 S
C1200 C1201 1.391 . S
C1201 H1189 0.950 . S
C1201 C1197 1.393 1_556 S
C1201 C1200 1.391 . S
C1202 H1192 0.950 . S
C1202 C1203 1.386 . S
C1202 C1204 1.391 . S
C1203 C1202 1.386 . S
C1203 C1207 1.393 1_556 S
C1204 H1193 0.950 . S
C1204 C1202 1.391 . S
C1204 C1205 1.400 . S
C1205 C1199 1.491 1_556 S
C1205 C1204 1.400 . S
C1205 C1206 1.398 1_556 S
C1206 H1194 0.950 . S
C1206 C1205 1.398 1_554 S
C1206 C1207 1.391 . S
C1207 H1195 0.950 . S
C1207 C1203 1.393 1_554 S
C1207 C1206 1.391 . S
H1208 C1216 0.950 . S
H1209 C1221 0.950 . S
H1210 C1218 0.950 . S
H1211 C1220 0.950 . S
H1212 C1222 0.950 . S
H1213 C1224 0.950 . S
H1214 C1226 0.950 . S
H1215 C1227 0.950 . S
C1216 H1208 0.950 . S
C1216 C1217 1.386 . S
C1216 C1218 1.391 . S
C1217 C1216 1.386 . S
C1217 C1221 1.393 1_554 S
C1218 H1210 0.950 . S
C1218 C1216 1.391 . S
C1218 C1219 1.400 . S
C1219 C1218 1.400 . S
C1219 C1220 1.398 1_554 S
C1219 C1225 1.491 1_554 S
C1220 H1211 0.950 . S
C1220 C1219 1.398 1_556 S
C1220 C1221 1.391 . S
C1221 H1209 0.950 . S
C1221 C1217 1.393 1_556 S
C1221 C1220 1.391 . S
C1222 H1212 0.950 . S
C1222 C1223 1.386 . S
C1222 C1224 1.391 . S
C1223 C1222 1.386 . S
C1223 C1227 1.393 1_556 S
C1224 H1213 0.950 . S
C1224 C1222 1.391 . S
C1224 C1225 1.400 . S
C1225 C1219 1.491 1_556 S
C1225 C1224 1.400 . S
C1225 C1226 1.398 1_556 S
C1226 H1214 0.950 . S
C1226 C1225 1.398 1_554 S
C1226 C1227 1.391 . S
C1227 H1215 0.950 . S
C1227 C1223 1.393 1_554 S
C1227 C1226 1.391 . S
H1228 C1236 0.950 1_556 S
H1229 C1241 0.950 . S
H1230 C1238 0.950 . S
H1231 C1240 0.950 . S
H1232 C1242 0.950 1_554 S
H1233 C1244 0.950 . S
H1234 C1246 0.950 . S
H1235 C1247 0.950 . S
C1236 H1228 0.950 1_554 S
C1236 C1237 1.386 . S
C1236 C1238 1.391 1_554 S
C1237 C1236 1.386 . S
C1237 C1241 1.393 . S
C1238 H1230 0.950 . S
C1238 C1236 1.391 1_556 S
C1238 C1239 1.400 1_556 S
C1239 C1238 1.400 1_554 S
C1239 C1240 1.398 . S
C1239 C1245 1.491 1_554 S
C1240 H1231 0.950 . S
C1240 C1239 1.398 . S
C1240 C1241 1.391 . S
C1241 H1229 0.950 . S
C1241 C1237 1.393 . S
C1241 C1240 1.391 . S
C1242 H1232 0.950 1_556 S
C1242 C1243 1.386 . S
C1242 C1244 1.391 1_556 S
C1243 C1242 1.386 . S
C1243 C1247 1.393 . S
C1244 H1233 0.950 . S
C1244 C1242 1.391 1_554 S
C1244 C1245 1.400 1_554 S
C1245 C1239 1.491 1_556 S
C1245 C1244 1.400 1_556 S
C1245 C1246 1.398 . S
C1246 H1234 0.950 . S
C1246 C1245 1.398 . S
C1246 C1247 1.391 . S
C1247 H1235 0.950 . S
C1247 C1243 1.393 . S
C1247 C1246 1.391 . S
H1248 C1256 0.950 . S
H1249 C1261 0.950 . S
H1250 C1258 0.950 . S
H1251 C1260 0.950 . S
H1252 C1262 0.950 . S
H1253 C1264 0.950 . S
H1254 C1266 0.950 . S
H1255 C1267 0.950 . S
C1256 H1248 0.950 . S
C1256 C1257 1.386 . S
C1256 C1258 1.391 . S
C1257 C1256 1.386 . S
C1257 C1261 1.393 . S
C1258 H1250 0.950 . S
C1258 C1256 1.391 . S
C1258 C1259 1.400 . S
C1259 C1258 1.400 . S
C1259 C1260 1.398 . S
C1259 C1265 1.491 . S
C1260 H1251 0.950 . S
C1260 C1259 1.398 . S
C1260 C1261 1.391 . S
C1261 H1249 0.950 . S
C1261 C1257 1.393 . S
C1261 C1260 1.391 . S
C1262 H1252 0.950 . S
C1262 C1263 1.386 . S
C1262 C1264 1.391 . S
C1263 C1262 1.386 . S
C1263 C1267 1.393 . S
C1264 H1253 0.950 . S
C1264 C1262 1.391 . S
C1264 C1265 1.400 . S
C1265 C1259 1.491 . S
C1265 C1264 1.400 . S
C1265 C1266 1.398 . S
C1266 H1254 0.950 . S
C1266 C1265 1.398 . S
C1266 C1267 1.391 . S
C1267 H1255 0.950 . S
C1267 C1263 1.393 . S
C1267 C1266 1.391 . S
H1268 C1276 0.950 . S
H1269 C1281 0.950 . S
H1270 C1278 0.950 . S
H1271 C1280 0.950 . S
H1272 C1282 0.950 . S
H1273 C1284 0.950 . S
H1274 C1286 0.950 . S
H1275 C1287 0.950 . S
C1276 H1268 0.950 . S
C1276 C1277 1.386 . S
C1276 C1278 1.391 . S
C1277 C1276 1.386 . S
C1277 C1281 1.393 . S
C1278 H1270 0.950 . S
C1278 C1276 1.391 . S
C1278 C1279 1.400 . S
C1279 C1278 1.400 . S
C1279 C1280 1.398 . S
C1279 C1285 1.491 . S
C1280 H1271 0.950 . S
C1280 C1279 1.398 . S
C1280 C1281 1.391 . S
C1281 H1269 0.950 . S
C1281 C1277 1.393 . S
C1281 C1280 1.391 . S
C1282 H1272 0.950 . S
C1282 C1283 1.386 . S
C1282 C1284 1.391 . S
C1283 C1282 1.386 . S
C1283 C1287 1.393 . S
C1284 H1273 0.950 . S
C1284 C1282 1.391 . S
C1284 C1285 1.400 . S
C1285 C1279 1.491 . S
C1285 C1284 1.400 . S
C1285 C1286 1.398 . S
C1286 H1274 0.950 . S
C1286 C1285 1.398 . S
C1286 C1287 1.391 . S
C1287 H1275 0.950 . S
C1287 C1283 1.393 . S
C1287 C1286 1.391 . S
H1288 C1296 0.950 . S
H1289 C1301 0.950 . S
H1290 C1298 0.950 . S
H1291 C1300 0.950 . S
H1292 C1302 0.950 . S
H1293 C1304 0.950 . S
H1294 C1306 0.950 . S
H1295 C1307 0.950 . S
C1296 H1288 0.950 . S
C1296 C1297 1.386 . S
C1296 C1298 1.391 . S
C1297 C1296 1.386 . S
C1297 C1301 1.393 . S
C1298 H1290 0.950 . S
C1298 C1296 1.391 . S
C1298 C1299 1.400 . S
C1299 C1298 1.400 . S
C1299 C1300 1.398 . S
C1299 C1305 1.491 . S
C1300 H1291 0.950 . S
C1300 C1299 1.398 . S
C1300 C1301 1.391 . S
C1301 H1289 0.950 . S
C1301 C1297 1.393 . S
C1301 C1300 1.391 . S
C1302 H1292 0.950 . S
C1302 C1303 1.386 . S
C1302 C1304 1.391 . S
C1303 C1302 1.386 . S
C1303 C1307 1.393 . S
C1304 H1293 0.950 . S
C1304 C1302 1.391 . S
C1304 C1305 1.400 . S
C1305 C1299 1.491 . S
C1305 C1304 1.400 . S
C1305 C1306 1.398 . S
C1306 H1294 0.950 . S
C1306 C1305 1.398 . S
C1306 C1307 1.391 . S
C1307 H1295 0.950 . S
C1307 C1303 1.393 . S
C1307 C1306 1.391 . S
H1308 C1316 0.950 . S
H1309 C1321 0.950 . S
H1310 C1318 0.950 . S
H1311 C1320 0.950 . S
H1312 C1322 0.950 . S
H1313 C1324 0.950 . S
H1314 C1326 0.950 . S
H1315 C1327 0.950 . S
C1316 H1308 0.950 . S
C1316 C1317 1.386 . S
C1316 C1318 1.391 . S
C1317 C1316 1.386 . S
C1317 C1321 1.393 . S
C1318 H1310 0.950 . S
C1318 C1316 1.391 . S
C1318 C1319 1.400 . S
C1319 C1318 1.400 . S
C1319 C1320 1.398 . S
C1319 C1325 1.491 . S
C1320 H1311 0.950 . S
C1320 C1319 1.398 . S
C1320 C1321 1.391 . S
C1321 H1309 0.950 . S
C1321 C1317 1.393 . S
C1321 C1320 1.391 . S
C1322 H1312 0.950 . S
C1322 C1323 1.386 . S
C1322 C1324 1.391 . S
C1323 C1322 1.386 . S
C1323 C1327 1.393 . S
C1324 H1313 0.950 . S
C1324 C1322 1.391 . S
C1324 C1325 1.400 . S
C1325 C1319 1.491 . S
C1325 C1324 1.400 . S
C1325 C1326 1.398 . S
C1326 H1314 0.950 . S
C1326 C1325 1.398 . S
C1326 C1327 1.391 . S
C1327 H1315 0.950 . S
C1327 C1323 1.393 . S
C1327 C1326 1.391 . S
C377 C16 1.084 . S
C383 C131 1.087 . S
C397 C39 1.093 . S
C403 C154 1.092 . S
C417 C177 1.064 . S
C423 C62 1.066 . S
C437 C109 1.066 . S
C443 C85 1.065 . S
C457 C315 1.074 . S
C463 C200 1.076 . S
C477 C223 1.068 . S
C483 C338 1.069 . S
C497 C361 1.066 . S
C503 C246 1.068 . S
C517 C293 1.061 . S
C523 C269 1.061 . S
C537 C19 1.567 1_565 S
C543 C44 1.538 1_554 S
C557 C67 1.537 1_556 S
C563 C42 1.567 1_655 S
C577 C90 1.534 1_554 S
C583 C65 1.567 1_545 S
C597 C88 1.553 1_455 S
C603 C21 1.527 1_556 S
C617 C110 1.570 1_565 S
C623 C182 1.519 . S
C637 C112 1.540 . S
C643 C134 1.523 1_655 S
C657 C136 1.528 . S
C663 C157 1.557 1_545 S
C677 C159 1.523 . S
C683 C180 1.556 1_455 S
C697 C203 1.566 . S
C703 C228 1.536 . S
C717 C251 1.538 . S
C723 C226 1.567 . S
C737 C249 1.580 . S
C743 C274 1.558 . S
C757 C272 1.556 . S
C763 C205 1.524 . S
C777 C366 1.525 1_554 S
C783 C294 1.568 . S
C797 C296 1.540 1_556 S
C803 C318 1.524 . S
C817 C320 1.515 1_554 S
C823 C341 1.549 . S
C837 C364 1.561 . S
C843 C343 1.543 1_556 S
C857 C156 1.446 . S
C863 C17 1.448 . S
C877 C179 1.445 . S
C883 C40 1.458 . S
C897 C63 1.467 . S
C903 C111 1.448 . S
C917 C86 1.460 . S
C923 C133 1.444 . S
C937 C64 1.497 . S
C943 C108 1.487 . S
C957 C132 1.451 . S
C963 C87 1.459 . S
C977 C155 1.445 . S
C983 C18 1.445 . S
C997 C41 1.450 . S
C1003 C178 1.465 . S
C1017 C201 1.456 . S
C1023 C340 1.459 . S
C1037 C224 1.457 . S
C1043 C363 1.447 . S
C1057 C295 1.443 . S
C1063 C247 1.471 . S
C1077 C270 1.447 . S
C1083 C317 1.444 . S
C1097 C292 1.491 . S
C1103 C248 1.507 . S
C1117 C316 1.458 . S
C1123 C271 1.466 . S
C1137 C339 1.453 . S
C1143 C202 1.440 . S
C1157 C225 1.464 . S
C1163 C362 1.458 . S
C1177 C365 1.257 . S
C1183 C20 1.268 . S
C1197 C297 1.284 . S
C1203 C43 1.277 . S
C1217 C66 1.258 . S
C1223 C319 1.245 . S
C1237 C342 1.242 . S
C1243 C89 1.232 . S
C1257 C113 1.285 . S
C1263 C227 1.266 . S
C1277 C135 1.247 . S
C1283 C250 1.256 . S
C1297 C273 1.247 . S
C1303 C158 1.228 . S
C1317 C181 1.268 . S
C1323 C204 1.259 . S
