# Generated by pormake.
# Topology smc, (6)-cn, num edge types: 1
# Building blocks:
#     Node 0, Type 0, BuildingBlock: KUMJIN_clean_sbu_0, # of connection points: 6
#     Node 1, Type 0, BuildingBlock: KUMJIN_clean_sbu_0, # of connection points: 6
#     Node 2, Type 0, BuildingBlock: KUMJIN_clean_sbu_0, # of connection points: 6
#     Node 3, Type 0, BuildingBlock: KUMJIN_clean_sbu_0, # of connection points: 6
#     Node 4, Type 0, BuildingBlock: KUMJIN_clean_sbu_0, # of connection points: 6
#     Node 5, Type 0, BuildingBlock: KUMJIN_clean_sbu_0, # of connection points: 6
#     Node 6, Type 0, BuildingBlock: KUMJIN_clean_sbu_0, # of connection points: 6
#     Node 7, Type 0, BuildingBlock: KUMJIN_clean_sbu_0, # of connection points: 6
#     Node 8, Type 0, BuildingBlock: KUMJIN_clean_sbu_0, # of connection points: 6
#     Edge 9, Type (0, 0), BuildingBlock: MIFKUJ_clean_linker_0, # of connection points: 2
#     Edge 10, Type (0, 0), BuildingBlock: MIFKUJ_clean_linker_0, # of connection points: 2
#     Edge 11, Type (0, 0), BuildingBlock: MIFKUJ_clean_linker_0, # of connection points: 2
#     Edge 12, Type (0, 0), BuildingBlock: MIFKUJ_clean_linker_0, # of connection points: 2
#     Edge 13, Type (0, 0), BuildingBlock: MIFKUJ_clean_linker_0, # of connection points: 2
#     Edge 14, Type (0, 0), BuildingBlock: MIFKUJ_clean_linker_0, # of connection points: 2
#     Edge 15, Type (0, 0), BuildingBlock: MIFKUJ_clean_linker_0, # of connection points: 2
#     Edge 16, Type (0, 0), BuildingBlock: MIFKUJ_clean_linker_0, # of connection points: 2
#     Edge 17, Type (0, 0), BuildingBlock: MIFKUJ_clean_linker_0, # of connection points: 2
#     Edge 18, Type (0, 0), BuildingBlock: MIFKUJ_clean_linker_0, # of connection points: 2
#     Edge 19, Type (0, 0), BuildingBlock: MIFKUJ_clean_linker_0, # of connection points: 2
#     Edge 20, Type (0, 0), BuildingBlock: MIFKUJ_clean_linker_0, # of connection points: 2
#     Edge 21, Type (0, 0), BuildingBlock: MIFKUJ_clean_linker_0, # of connection points: 2
#     Edge 22, Type (0, 0), BuildingBlock: MIFKUJ_clean_linker_0, # of connection points: 2
#     Edge 23, Type (0, 0), BuildingBlock: MIFKUJ_clean_linker_0, # of connection points: 2
#     Edge 24, Type (0, 0), BuildingBlock: MIFKUJ_clean_linker_0, # of connection points: 2
#     Edge 25, Type (0, 0), BuildingBlock: MIFKUJ_clean_linker_0, # of connection points: 2
#     Edge 26, Type (0, 0), BuildingBlock: MIFKUJ_clean_linker_0, # of connection points: 2
#     Edge 27, Type (0, 0), BuildingBlock: MIFKUJ_clean_linker_0, # of connection points: 2
#     Edge 28, Type (0, 0), BuildingBlock: MIFKUJ_clean_linker_0, # of connection points: 2
#     Edge 29, Type (0, 0), BuildingBlock: MIFKUJ_clean_linker_0, # of connection points: 2
#     Edge 30, Type (0, 0), BuildingBlock: MIFKUJ_clean_linker_0, # of connection points: 2
#     Edge 31, Type (0, 0), BuildingBlock: MIFKUJ_clean_linker_0, # of connection points: 2
#     Edge 32, Type (0, 0), BuildingBlock: MIFKUJ_clean_linker_0, # of connection points: 2
#     Edge 33, Type (0, 0), BuildingBlock: MIFKUJ_clean_linker_0, # of connection points: 2
#     Edge 34, Type (0, 0), BuildingBlock: MIFKUJ_clean_linker_0, # of connection points: 2
#     Edge 35, Type (0, 0), BuildingBlock: MIFKUJ_clean_linker_0, # of connection points: 2
# Relax obj value: 0.108
# Max RMSD: 0.278
# Mean RMSD: 0.278
data_MOF--net-smc--node1-KUMJIN_clean_sbu_0--edge1-MIFKUJ_clean_linker_0
_symmetry_space_group_name_H-M    P1
_symmetry_Int_Tables_number       1
_symmetry_cell_setting            triclinic
loop_
_symmetry_equiv_pos_as_xyz
'x, y, z'
_cell_length_a     46.593068
_cell_length_b     46.524414
_cell_length_c     52.794071
_cell_angle_alpha  90.274359
_cell_angle_beta   89.849438
_cell_angle_gamma 119.98023
loop_
_atom_site_label
_atom_site_type_symbol
_atom_site_fract_x
_atom_site_fract_y
_atom_site_fract_z
_atom_type_partial_charge
Eu0 Eu 0.05414 0.50017 1.00953 0.0
C1 C 1.01458 0.35935 0.05574 0.0
C2 C 0.04049 0.33843 0.02693 0.0
C3 C 1.02252 0.3136 0.06848 0.0
C4 C 0.02881 0.36054 0.03246 0.0
C5 C 1.01115 0.33575 0.07399 0.0
C6 C 0.03738 0.3151 0.04508 0.0
C7 C 0.98126 0.35443 0.10042 0.0
N8 N 1.00155 0.37931 0.05975 0.0
C9 C 0.98405 0.3764 0.08134 0.0
C10 C 0.99497 0.33405 0.09677 0.0
Eu11 Eu 1.00295 0.41264 0.02559 0.0
N12 N 0.02897 0.38151 0.01458 0.0
C13 C 0.03958 0.38073 0.99056 0.0
C14 C 0.05351 0.33931 1.00289 0.0
C15 C 0.05296 0.36052 0.98461 0.0
H16 H 0.97249 0.39138 0.08389 0.0
H17 H 0.06245 0.361 0.96582 0.0
H18 H 0.0459 0.29773 0.04105 0.0
H19 H 0.96798 0.35276 0.1177 0.0
H20 H 0.03846 0.39611 0.97586 0.0
H21 H 0.06055 0.56278 0.10016 0.0
H22 H 0.0631 0.32305 0.99802 0.0
H23 H 1.01247 0.49967 0.9547 0.0
H24 H 0.07513 0.53271 0.07032 0.0
H25 H 0.97659 0.51964 0.94057 0.0
H26 H 1.01962 0.29497 0.08207 0.0
H27 H 1.02245 0.58254 0.08778 0.0
H28 H 0.98863 0.58888 0.05447 0.0
H29 H 0.99211 0.31646 0.11132 0.0
H30 H 0.96673 0.57792 0.01121 0.0
N31 N 0.0414 0.52934 0.04119 0.0
C32 C 0.05623 0.53809 0.06459 0.0
C33 C 0.02766 0.56783 0.07457 0.0
C34 C 1.01439 0.56117 0.05018 0.0
C35 C 0.04893 0.5565 0.08168 0.0
C36 C 1.02174 0.54166 0.0336 0.0
H37 H 0.96152 0.55187 0.96926 0.0
N38 N 1.01613 0.51626 0.99333 0.0
C39 C 0.98516 0.52385 0.96 0.0
C40 C 1.00901 0.53517 1.00913 0.0
C41 C 1.00526 0.51162 0.96867 0.0
C42 C 0.97693 0.54222 0.97616 0.0
C43 C 0.98912 0.54846 1.00087 0.0
O44 O 0.08456 0.53699 0.98122 0.0
O45 O 0.05526 0.4536 0.01755 0.0
O46 O 0.03264 0.43499 0.06098 0.0
O47 O 0.07103 0.48919 0.04846 0.0
O48 O 0.08517 0.48287 0.98866 0.0
O49 O 0.09953 0.54631 0.02028 0.0
O50 O 0.94987 0.3862 0.03439 0.0
O51 O 1.00223 0.45958 0.01653 0.0
O52 O 0.037 0.4734 0.97133 0.0
O53 O 1.00217 0.41846 0.98335 0.0
O54 O 0.97951 0.43527 0.04997 0.0
O55 O 0.96768 0.37125 1.00203 0.0
C56 C 0.07654 0.4561 1.00128 0.0
C57 C 0.10892 0.59275 0.9953 0.0
C58 C 0.14237 0.65323 0.99956 0.0
C59 C 0.13923 0.62146 1.00157 0.0
C60 C 0.11507 0.65593 0.99174 0.0
C61 C 0.08268 0.59662 0.98629 0.0
C62 C 0.08551 0.6278 0.98501 0.0
C63 C 0.05808 0.46481 0.06574 0.0
C64 C 0.10445 0.55888 0.99761 0.0
C65 C 0.98195 0.56771 0.01735 0.0
C66 C 0.99441 0.57393 0.04196 0.0
C67 C 0.98488 0.45939 0.03517 0.0
C68 C 0.9191 0.3299 0.02236 0.0
C69 C 0.88465 0.31732 0.02125 0.0
C70 C 0.86235 0.28418 0.02805 0.0
C71 C 0.87508 0.26392 0.03597 0.0
C72 C 0.93115 0.30903 0.0299 0.0
C73 C 0.90922 0.27628 0.03679 0.0
C74 C 1.01564 0.44185 0.96606 0.0
C75 C 0.94207 0.36491 0.016 0.0
H76 H 0.16017 0.61918 1.0077 0.0
H77 H 0.11703 0.68006 0.99002 0.0
H78 H 0.06002 0.57563 0.97975 0.0
H79 H 0.06487 0.6302 0.97829 0.0
H80 H 0.87526 0.33338 0.01537 0.0
H81 H 0.8586 0.23825 0.04105 0.0
H82 H 0.95743 0.31793 0.03038 0.0
H83 H 0.91873 0.26036 0.04264 0.0
Eu84 Eu 0.5531 0.5749 0.99912 0.0
C85 C 0.67842 0.66064 0.06289 0.0
C86 C 0.70052 0.71426 0.0429 0.0
C87 C 0.70825 0.71096 0.0881 0.0
C88 C 0.68241 0.6793 0.04157 0.0
C89 C 0.69195 0.67619 0.0863 0.0
C90 C 0.71265 0.72997 0.0664 0.0
C91 C 0.67541 0.62212 0.10363 0.0
N92 N 0.66285 0.62718 0.06038 0.0
C93 C 0.66251 0.60788 0.07998 0.0
C94 C 0.68968 0.65638 0.10694 0.0
Eu95 Eu 0.63842 0.60443 0.0205 0.0
N96 N 0.67074 0.66325 0.01918 0.0
C97 C 0.67891 0.68071 0.99707 0.0
C98 C 0.70703 0.73229 0.02042 0.0
C99 C 0.69662 0.71541 0.99737 0.0
H100 H 0.65103 0.58132 0.07757 0.0
H101 H 0.70223 0.72909 0.97981 0.0
H102 H 0.72642 0.75678 0.06785 0.0
H103 H 0.67419 0.60665 0.11932 0.0
H104 H 0.67105 0.66808 0.9791 0.0
H105 H 0.49762 0.49059 0.07975 0.0
H106 H 0.72104 0.75914 0.02054 0.0
H107 H 0.53771 0.56011 0.93691 0.0
H108 H 0.53522 0.54313 0.05925 0.0
H109 H 0.50139 0.51355 0.90886 0.0
H110 H 0.7185 0.7234 0.10597 0.0
H111 H 0.4615 0.44113 0.05395 0.0
H112 H 0.44102 0.41596 0.01131 0.0
H113 H 0.69969 0.66736 0.12526 0.0
H114 H 0.44134 0.42242 0.96527 0.0
N115 N 0.52146 0.52449 0.02158 0.0
C116 C 0.51993 0.52221 0.04743 0.0
C117 C 0.47823 0.46431 0.04467 0.0
C118 C 0.47947 0.46675 0.01827 0.0
C119 C 0.49848 0.49219 0.05929 0.0
C120 C 0.50177 0.4975 1.00702 0.0
H121 H 0.46406 0.45838 0.92693 0.0
N122 N 0.52414 0.53061 0.97029 0.0
C123 C 0.50199 0.50944 0.92897 0.0
C124 C 0.50305 0.50069 0.98077 0.0
C125 C 0.52291 0.5356 0.94488 0.0
C126 C 0.48099 0.47831 0.93927 0.0
C127 C 0.48105 0.47364 0.96543 0.0
O128 O 0.52856 0.59667 0.97813 0.0
O129 O 0.60042 0.61949 0.01093 0.0
O130 O 0.61171 0.60713 0.05514 0.0
O131 O 0.55989 0.59636 0.04015 0.0
O132 O 0.57866 0.62323 0.97787 0.0
O133 O 0.50443 0.56739 0.01124 0.0
O134 O 0.66629 0.57861 0.02729 0.0
O135 O 0.59117 0.56097 1.00709 0.0
O136 O 0.58236 0.56908 0.9662 0.0
O137 O 0.63632 0.6081 0.97768 0.0
O138 O 0.61372 0.55233 0.03717 0.0
O139 O 0.68117 0.61424 0.99713 0.0
C140 C 0.60216 0.63966 0.99404 0.0
C141 C 0.46951 0.56494 0.97681 0.0
C142 C 0.40843 0.53452 0.97447 0.0
C143 C 0.43809 0.55027 0.98894 0.0
C144 C 0.41087 0.53397 0.94792 0.0
C145 C 0.47055 0.56427 0.95017 0.0
C146 C 0.44157 0.54867 0.93598 0.0
C147 C 0.5827 0.60516 0.05843 0.0
C148 C 0.50126 0.58219 0.99138 0.0
C149 C 0.4588 0.44323 0.97668 0.0
C150 C 0.4584 0.43963 1.00295 0.0
C151 C 0.58894 0.53883 0.02186 0.0
C152 C 0.72341 0.60819 0.01706 0.0
C153 C 0.73846 0.58834 0.01521 0.0
C154 C 0.77232 0.60164 0.02131 0.0
C155 C 0.79055 0.63486 0.02952 0.0
C156 C 0.74222 0.64112 0.02549 0.0
C157 C 0.77556 0.65431 0.03165 0.0
C158 C 0.61425 0.58852 0.96072 0.0
C159 C 0.6883 0.59469 0.00988 0.0
H160 H 0.43676 0.55106 1.0094 0.0
H161 H 0.38887 0.52285 0.93616 0.0
H162 H 0.49385 0.57609 0.94004 0.0
H163 H 0.44291 0.54837 0.91551 0.0
H164 H 0.72404 0.56289 1.00868 0.0
H165 H 0.81641 0.64573 0.03469 0.0
H166 H 0.73117 0.65672 0.0272 0.0
H167 H 0.78988 0.67975 0.03813 0.0
Eu168 Eu 0.48425 0.99983 1.00128 0.0
C169 C 0.38017 0.03631 0.04182 0.0
C170 C 0.33207 1.00203 0.01591 0.0
C171 C 0.32497 0.01802 0.05836 0.0
C172 C 0.36672 0.01946 0.01941 0.0
C173 C 0.35952 0.03651 0.0613 0.0
C174 C 0.31126 1.00072 0.03572 0.0
C175 C 0.40875 0.07527 0.08423 0.0
N176 N 0.41363 0.05369 0.04417 0.0
C177 C 0.42819 0.07389 0.0646 0.0
C178 C 0.37427 0.05601 0.08284 0.0
Eu179 Eu 0.44505 0.05091 0.01005 0.0
N180 N 0.38756 0.02187 1.00047 0.0
C181 C 0.3754 1.0097 0.9769 0.0
C182 C 0.31942 0.98741 0.99231 0.0
C183 C 0.34122 0.99172 0.97261 0.0
H184 H 0.45485 0.08871 0.0658 0.0
H185 H 0.33172 0.98126 0.95408 0.0
H186 H 0.28458 0.9872 0.03346 0.0
H187 H 0.42043 0.09146 0.10025 0.0
H188 H 0.39188 1.01297 0.96141 0.0
H189 H 0.54992 0.03906 0.09251 0.0
H190 H 0.29295 0.97368 0.9889 0.0
H191 H 0.51439 1.00121 0.94298 0.0
H192 H 0.50263 0.02077 0.06437 0.0
H193 H 0.5671 1.01294 0.92346 0.0
H194 H 0.30866 0.01755 0.07322 0.0
H195 H 0.60453 0.05249 0.07534 0.0
H196 H 0.63904 0.05576 0.03813 0.0
H197 H 0.35928 0.05707 0.09815 0.0
H198 H 0.64339 0.04765 0.99272 0.0
N199 N 0.52905 0.02271 0.03066 0.0
C200 C 0.52572 0.02577 0.05615 0.0
C201 C 0.58362 0.04431 0.06263 0.0
C202 C 0.5871 0.04135 0.03661 0.0
C203 C 0.55282 0.03659 0.07241 0.0
C204 C 0.55915 0.03076 0.02076 0.0
H205 H 0.61699 0.03228 0.94985 0.0
N206 N 0.53502 0.01779 0.97977 0.0
C207 C 0.56621 0.01781 0.94343 0.0
C208 C 0.56212 0.02797 0.99475 0.0
C209 C 0.53651 1.01178 0.95453 0.0
C210 C 0.59433 0.02878 0.95842 0.0
C211 C 0.5926 0.03396 0.98436 0.0
O212 O 0.46841 0.95305 0.98162 0.0
O213 O 0.4362 0.99903 1.00435 0.0
O214 O 0.43273 0.02077 0.04571 0.0
O215 O 0.45615 0.98659 0.04015 0.0
O216 O 0.4413 0.97301 0.97445 0.0
O217 O 0.49252 0.961 0.01783 0.0
O218 O 0.46868 0.10484 0.01433 0.0
O219 O 0.49246 0.05063 1.00535 0.0
O220 O 0.49443 0.03271 0.96607 0.0
O221 O 0.45125 0.0443 0.96829 0.0
O222 O 0.49219 0.08145 0.03324 0.0
O223 O 0.43637 0.0807 0.98249 0.0
C224 C 0.42064 0.97903 0.98645 0.0
C225 C 0.50281 0.9292 0.98678 0.0
C226 C 0.53445 0.90006 0.99058 0.0
C227 C 0.51446 0.91181 1.00165 0.0
C228 C 0.54268 0.90606 0.96479 0.0
C229 C 0.51033 0.93315 0.96073 0.0
C230 C 0.53054 0.92227 0.95002 0.0
C231 C 0.43885 0.99739 0.05357 0.0
C232 C 0.48177 0.94206 0.99774 0.0
C233 C 0.62006 0.04368 1.00025 0.0
C234 C 0.6175 0.04798 0.02619 0.0
C235 C 0.51025 0.07178 0.02164 0.0
C236 C 0.43827 0.12908 0.99905 0.0
C237 C 0.45701 0.16381 0.99622 0.0
C238 C 0.44265 0.18383 1.001 0.0
C239 C 0.40927 0.16825 1.00884 0.0
C240 C 0.405 0.11433 1.0065 0.0
C241 C 0.39067 0.13384 0.01141 0.0
C242 C 0.47538 0.04338 0.9559 0.0
C243 C 0.45376 0.1085 0.99486 0.0
H244 H 0.50793 0.90732 0.02152 0.0
H245 H 0.55761 0.89704 0.95577 0.0
H246 H 0.50039 0.94445 0.94833 0.0
H247 H 0.53636 0.9259 0.93001 0.0
H248 H 0.48258 0.17506 0.99011 0.0
H249 H 0.39751 0.18264 0.01341 0.0
H250 H 0.39007 0.08774 1.00852 0.0
H251 H 0.36505 0.12226 0.01738 0.0
Eu252 Eu 0.7153 0.83092 0.33919 0.0
C253 C 0.69523 0.69352 0.37278 0.0
C254 C 0.73383 0.68651 0.34631 0.0
C255 C 0.72035 0.66207 0.38831 0.0
C256 C 0.71274 0.69972 0.35036 0.0
C257 C 0.69815 0.67389 0.39174 0.0
C258 C 0.7382 0.6684 0.36564 0.0
C259 C 0.65452 0.67627 0.41487 0.0
N260 N 0.67391 0.70519 0.37548 0.0
C261 C 0.65242 0.69552 0.39549 0.0
C262 C 0.67787 0.66586 0.4132 0.0
Eu263 Eu 0.67285 0.73889 0.34246 0.0
N264 N 0.70762 0.71693 0.33194 0.0
C265 C 0.72075 0.7195 0.30834 0.0
C266 C 0.74904 0.69095 0.32264 0.0
C267 C 0.74205 0.70708 0.30346 0.0
H268 H 0.63443 0.70366 0.39684 0.0
H269 H 0.75302 0.70999 0.28489 0.0
H270 H 0.75457 0.65838 0.36296 0.0
H271 H 0.63816 0.66949 0.43107 0.0
H272 H 0.71569 0.7319 0.29329 0.0
H273 H 0.65688 0.83544 0.42886 0.0
H274 H 0.76538 0.68117 0.31878 0.0
H275 H 0.71614 0.86561 0.28312 0.0
H276 H 0.6872 0.81846 0.40083 0.0
H277 H 0.6942 0.89892 0.26412 0.0
H278 H 0.72323 0.64726 0.40278 0.0
H279 H 0.63443 0.86995 0.41276 0.0
H280 H 0.62742 0.90042 0.37679 0.0
H281 H 0.67938 0.65085 0.4282 0.0
H282 H 0.63703 0.91722 0.33213 0.0
N283 N 0.68308 0.84309 0.36813 0.0
C284 C 0.67832 0.83379 0.39306 0.0
C285 C 0.64804 0.86265 0.40011 0.0
C286 C 0.65305 0.87241 0.37476 0.0
C287 C 0.66071 0.84324 0.40927 0.0
C288 C 0.67081 0.8621 0.35898 0.0
H289 H 0.66103 0.91608 0.29 0.0
N290 N 0.69317 0.8612 0.31901 0.0
C291 C 0.68859 0.89108 0.28365 0.0
C292 C 0.67603 0.8714 0.33376 0.0
C293 C 0.70053 0.87173 0.29444 0.0
C294 C 0.67 0.90081 0.29834 0.0
C295 C 0.66388 0.8914 0.32377 0.0
O296 O 0.75476 0.87901 0.32468 0.0
O297 O 0.72176 0.78662 0.33859 0.0
O298 O 0.69878 0.75645 0.3799 0.0
O299 O 0.72761 0.81469 0.37729 0.0
O300 O 0.74899 0.82351 0.31248 0.0
O301 O 0.75652 0.86522 0.36319 0.0
O302 O 0.61897 0.7069 0.34414 0.0
O303 O 0.66718 0.78368 0.33966 0.0
O304 O 0.69144 0.80964 0.3002 0.0
O305 O 0.68004 0.75452 0.30131 0.0
O306 O 0.63703 0.74809 0.36561 0.0
O307 O 0.64659 0.69771 0.31564 0.0
C308 C 0.744 0.79566 0.32172 0.0
C309 C 0.77614 0.92223 0.35573 0.0
C310 C 0.81208 0.98277 0.35998 0.0
C311 C 0.80582 0.95191 0.34966 0.0
C312 C 0.78771 0.98347 0.37534 0.0
C313 C 0.75314 0.9241 0.37188 0.0
C314 C 0.7586 0.95441 0.38121 0.0
C315 C 0.71878 0.78624 0.38932 0.0
C316 C 0.76934 0.88906 0.34657 0.0
C317 C 0.64645 0.90181 0.33947 0.0
C318 C 0.64098 0.89227 0.36489 0.0
C319 C 0.64367 0.77563 0.35499 0.0
C320 C 0.59723 0.65137 0.33162 0.0
C321 C 0.5623 0.63569 0.33063 0.0
C322 C 0.54235 0.6018 0.33696 0.0
C323 C 0.5582 0.58416 0.34447 0.0
C324 C 0.61218 0.63305 0.33909 0.0
C325 C 0.59272 0.59965 0.34544 0.0
C326 C 0.68241 0.78045 0.28927 0.0
C327 C 0.61765 0.68719 0.32614 0.0
H328 H 0.82425 0.95084 0.33776 0.0
H329 H 0.79132 1.00666 0.38307 0.0
H330 H 0.73111 0.90201 0.37784 0.0
H331 H 0.74038 0.95532 0.39344 0.0
H332 H 0.55079 0.6499 0.32486 0.0
H333 H 0.54393 0.5584 0.35009 0.0
H334 H 0.63889 0.6446 0.34025 0.0
H335 H 0.60446 0.58575 0.35138 0.0
Eu336 Eu 0.21981 0.89491 0.33784 0.0
C337 C 0.34656 1.00469 0.3815 0.0
C338 C 0.36354 0.04535 0.34792 0.0
C339 C 0.37737 0.06371 0.39153 0.0
C340 C 0.34729 1.0119 0.35594 0.0
C341 C 0.36235 0.03059 0.39945 0.0
C342 C 0.37779 0.07107 0.36586 0.0
C343 C 0.35118 0.98942 0.43143 0.0
N344 N 0.33264 0.97251 0.38867 0.0
C345 C 0.33634 0.96469 0.41297 0.0
C346 C 0.36379 0.02252 0.42473 0.0
Eu347 Eu 0.30615 0.93179 0.35655 0.0
N348 N 0.33377 0.98649 0.33885 0.0
C349 C 0.33778 0.99335 0.31342 0.0
C350 C 0.3661 0.05208 0.32202 0.0
C351 C 0.35346 0.026 0.30473 0.0
H352 H 0.32703 0.93911 0.41821 0.0
H353 H 0.35596 0.03101 0.2846 0.0
H354 H 0.3901 0.0968 0.36001 0.0
H355 H 0.35304 0.98294 0.45078 0.0
H356 H 0.32882 0.97427 0.29927 0.0
H357 H 0.15696 0.84236 0.42852 0.0
H358 H 0.37879 0.07729 0.3151 0.0
H359 H 0.21789 0.85197 0.28357 0.0
H360 H 0.18619 0.88571 0.39754 0.0
H361 H 0.19917 0.79552 0.27042 0.0
H362 H 0.38941 0.08385 0.40508 0.0
H363 H 0.13897 0.78413 0.41784 0.0
H364 H 0.13378 0.74261 0.38571 0.0
H365 H 0.3756 0.04171 0.43902 0.0
H366 H 0.14472 0.72997 0.34284 0.0
N367 N 0.19066 0.85424 0.36991 0.0
C368 C 0.18144 0.86126 0.39277 0.0
C369 C 0.15325 0.80349 0.40424 0.0
C370 C 0.16019 0.79587 0.38022 0.0
C371 C 0.16357 0.8363 0.4104 0.0
C372 C 0.17909 0.82203 0.36312 0.0
H373 H 0.1693 0.74931 0.30026 0.0
N374 N 0.20354 0.84028 0.32257 0.0
C375 C 0.19562 0.8006 0.28986 0.0
C376 C 0.18552 0.81487 0.3389 0.0
C377 C 0.20726 0.83321 0.29791 0.0
C378 C 0.17854 0.7746 0.30666 0.0
C379 C 0.17275 0.78141 0.33131 0.0
O380 O 0.18288 0.88684 0.30905 0.0
O381 O 0.26586 0.94279 0.34615 0.0
O382 O 0.27685 0.9275 0.39195 0.0
O383 O 0.23002 0.92582 0.37502 0.0
O384 O 0.23852 0.94248 0.31548 0.0
O385 O 0.1744 0.896 0.34756 0.0
O386 O 0.32907 0.90355 0.34206 0.0
O387 O 0.25994 0.88368 0.34783 0.0
O388 O 0.2486 0.90264 0.301 0.0
O389 O 0.30286 0.92123 0.3146 0.0
O390 O 0.28296 0.8875 0.38254 0.0
O391 O 0.35635 0.9442 0.36751 0.0
C392 C 0.26427 0.96109 0.32916 0.0
C393 C 0.12732 0.85774 0.32379 0.0
C394 C 0.06721 0.83243 0.32939 0.0
C395 C 0.09931 0.86074 0.32975 0.0
C396 C 0.06356 0.80137 0.3233 0.0
C397 C 0.12246 0.82648 0.31663 0.0
C398 C 0.09098 0.79852 0.31679 0.0
C399 C 0.25074 0.93128 0.39427 0.0
C400 C 0.16148 0.88674 0.32507 0.0
C401 C 0.1544 0.75564 0.34839 0.0
C402 C 0.14822 0.76284 0.37279 0.0
C403 C 0.25982 0.86761 0.36723 0.0
C404 C 0.36511 0.89866 0.37093 0.0
C405 C 0.38858 0.89055 0.3616 0.0
C406 C 0.39894 0.87251 0.37675 0.0
C407 C 0.38487 0.86188 0.40087 0.0
C408 C 0.35163 0.88789 0.39519 0.0
C409 C 0.36125 0.86939 0.40992 0.0
C410 C 0.27994 0.9111 0.29678 0.0
C411 C 0.35556 0.91922 0.35584 0.0
H412 H 0.10241 0.88478 0.33465 0.0
H413 H 0.03921 0.77936 0.32278 0.0
H414 H 0.14291 0.82355 0.31058 0.0
H415 H 0.0878 0.77459 0.31148 0.0
H416 H 0.39941 0.89904 0.34302 0.0
H417 H 0.39222 0.84773 0.41275 0.0
H418 H 0.334 0.89414 0.40298 0.0
H419 H 0.35067 0.8612 0.42858 0.0
Eu420 Eu 0.16095 0.33254 0.33759 0.0
C421 C 0.05977 0.35855 0.39536 0.0
C422 C 1.00842 0.32219 0.37366 0.0
C423 C 1.00779 0.33339 0.41862 0.0
C424 C 0.04321 0.34239 0.37355 0.0
C425 C 0.04224 0.3549 0.41803 0.0
C426 C 0.99089 0.31707 0.39646 0.0
C427 C 0.09365 0.39624 0.43711 0.0
N428 N 0.09302 0.37906 0.39408 0.0
C429 C 0.10992 0.39903 0.41416 0.0
C430 C 0.05975 0.37366 0.43919 0.0
Eu431 Eu 0.11954 0.37967 0.35548 0.0
N432 N 0.06094 0.34802 0.35189 0.0
C433 C 0.04506 0.33668 0.32923 0.0
C434 C 0.99222 0.30859 0.35072 0.0
C435 C 1.01058 0.31637 0.32834 0.0
H436 H 0.13621 0.41621 0.41272 0.0
H437 H 0.99826 0.30666 0.31039 0.0
H438 H 0.9642 0.30127 0.39699 0.0
H439 H 0.10729 0.41138 0.4532 0.0
H440 H 0.05887 0.34232 0.31178 0.0
H441 H 0.23483 0.36752 0.42516 0.0
H442 H 0.96553 0.29292 0.35001 0.0
H443 H 0.18727 0.34227 0.27662 0.0
H444 H 0.18439 0.34618 0.40023 0.0
H445 H 0.23976 0.36583 0.2531 0.0
H446 H 0.9939 0.32992 0.43593 0.0
H447 H 0.28903 0.38956 0.40396 0.0
H448 H 0.3214 0.4023 0.3639 0.0
H449 H 0.04721 0.37152 0.45699 0.0
H450 H 0.32297 0.40328 0.31744 0.0
N451 N 0.20857 0.35537 0.36433 0.0
C452 C 0.20729 0.35529 0.39023 0.0
C453 C 0.26668 0.37993 0.39267 0.0
C454 C 0.26808 0.38005 0.36624 0.0
C455 C 0.23617 0.36756 0.40469 0.0
C456 C 0.23827 0.3674 0.35232 0.0
H457 H 0.29291 0.39033 0.27619 0.0
N458 N 0.21031 0.35621 0.31295 0.0
C459 C 0.24002 0.36706 0.27358 0.0
C460 C 0.23915 0.36796 0.32601 0.0
C461 C 0.21034 0.35433 0.28705 0.0
C462 C 0.26992 0.38065 0.28668 0.0
C463 C 0.26978 0.38084 0.31316 0.0
O464 O 0.15084 0.29 0.31387 0.0
O465 O 0.11221 0.32886 0.34574 0.0
O466 O 0.11659 0.35104 0.39036 0.0
O467 O 0.13517 0.31485 0.3771 0.0
O468 O 0.11491 0.30423 0.31383 0.0
O469 O 0.16898 0.29269 0.35193 0.0
O470 O 0.1427 0.43353 0.36039 0.0
O471 O 0.1673 0.38216 0.34531 0.0
O472 O 0.16403 0.36623 0.30453 0.0
O473 O 0.11898 0.37346 0.31285 0.0
O474 O 0.16915 0.41166 0.37523 0.0
O475 O 0.10485 0.40883 0.33205 0.0
C476 C 0.09506 0.30893 0.32815 0.0
C477 C 0.18533 0.2663 0.32054 0.0
C478 C 0.21438 0.23464 0.32472 0.0
C479 C 0.19195 0.24419 0.33437 0.0
C480 C 0.23016 0.24759 0.30147 0.0
C481 C 0.20041 0.27731 0.29672 0.0
C482 C 0.22302 0.26853 0.28754 0.0
C483 C 0.12195 0.32617 0.39432 0.0
C484 C 0.16196 0.27695 0.33026 0.0
C485 C 0.2993 0.39327 0.32701 0.0
C486 C 0.29842 0.39274 0.35346 0.0
C487 C 0.18646 0.40345 0.36109 0.0
C488 C 0.10997 0.45768 0.35087 0.0
C489 C 0.12924 0.49256 0.34915 0.0
C490 C 0.11577 0.51277 0.35602 0.0
C491 C 0.08282 0.49741 0.36474 0.0
C492 C 0.07731 0.44309 0.35982 0.0
C493 C 0.06387 0.46291 0.36665 0.0
C494 C 0.14201 0.37484 0.2975 0.0
C495 C 0.12429 0.43682 0.34353 0.0
H496 H 0.17974 0.23443 0.35235 0.0
H497 H 0.24734 0.24058 0.29365 0.0
H498 H 0.19439 0.29228 0.2848 0.0
H499 H 0.23463 0.27756 0.26929 0.0
H500 H 0.15449 0.50387 0.34224 0.0
H501 H 0.07183 0.51213 0.37055 0.0
H502 H 0.06221 0.41639 0.36154 0.0
H503 H 0.03865 0.45148 0.37358 0.0
Eu504 Eu 0.39793 0.17123 0.66488 0.0
C505 C 0.35684 0.04032 0.7229 0.0
C506 C 0.3898 0.01981 0.70267 0.0
C507 C 0.37305 1.00602 0.74662 0.0
C508 C 0.37373 0.03867 0.70191 0.0
C509 C 0.35582 0.02357 0.74538 0.0
C510 C 0.38982 1.00395 0.72525 0.0
C511 C 0.31774 0.03954 0.7627 0.0
N512 N 0.33976 0.05676 0.72085 0.0
C513 C 0.3192 0.05541 0.7399 0.0
C514 C 0.33651 0.02394 0.76559 0.0
Eu515 Eu 0.34422 0.08411 0.68202 0.0
N516 N 0.37225 0.05335 0.68018 0.0
C517 C 0.38428 0.04809 0.6581 0.0
C518 C 0.40433 0.01644 0.68047 0.0
C519 C 0.40114 0.03028 0.65799 0.0
H520 H 0.30467 0.06748 0.73777 0.0
H521 H 0.41144 0.02702 0.64054 0.0
H522 H 0.40227 0.98958 0.72624 0.0
H523 H 0.30212 0.0393 0.77799 0.0
H524 H 0.3815 0.05814 0.6405 0.0
H525 H 0.36374 0.21728 0.74918 0.0
H526 H 0.41708 1.00232 0.68029 0.0
H527 H 0.39863 0.19078 0.60372 0.0
H528 H 0.37989 0.18205 0.72617 0.0
H529 H 0.38879 0.2292 0.57818 0.0
H530 H 0.37278 0.9932 0.76377 0.0
H531 H 0.3518 0.25608 0.72602 0.0
H532 H 0.34927 0.28096 0.68493 0.0
H533 H 0.33516 1.01146 0.7832 0.0
H534 H 0.35717 0.28499 0.63892 0.0
N535 N 0.37749 0.20005 0.68957 0.0
C536 C 0.37513 0.1987 0.71543 0.0
C537 C 0.35887 0.24046 0.7156 0.0
C538 C 0.36146 0.242 0.68921 0.0
C539 C 0.36572 0.2187 0.72874 0.0
C540 C 0.37063 0.22101 0.67645 0.0
H541 H 0.37099 0.26529 0.59893 0.0
N542 N 0.38253 0.20198 0.63828 0.0
C543 C 0.38387 0.22711 0.59833 0.0
C544 C 0.3734 0.22212 0.65019 0.0
C545 C 0.38884 0.20496 0.61282 0.0
C546 C 0.37378 0.24741 0.61014 0.0
C547 C 0.36862 0.2453 0.63635 0.0
O548 O 0.44422 0.19786 0.64402 0.0
O549 O 0.39727 0.1241 0.67399 0.0
O550 O 0.37232 0.10793 0.71768 0.0
O551 O 0.41156 0.16207 0.7055 0.0
O552 O 0.42185 0.14874 0.64124 0.0
O553 O 0.43871 0.21891 0.67901 0.0
O554 O 0.29013 0.05509 0.68558 0.0
O555 O 0.34643 0.1314 0.67113 0.0
O556 O 0.36363 0.14357 0.63111 0.0
O557 O 0.35196 0.08976 0.63951 0.0
O558 O 0.31441 0.10573 0.70007 0.0
O559 O 0.3147 0.04141 0.65738 0.0
C560 C 0.41625 0.12471 0.65637 0.0
C561 C 0.47201 0.25683 0.64636 0.0
C562 C 0.50634 0.31754 0.64774 0.0
C563 C 0.49046 0.28662 0.66032 0.0
C564 C 0.50307 0.31845 0.62141 0.0
C565 C 0.46997 0.25873 0.61985 0.0
C566 C 0.48494 0.28926 0.60762 0.0
C567 C 0.39805 0.13746 0.72246 0.0
C568 C 0.45691 0.22379 0.65888 0.0
C569 C 0.36015 0.26653 0.64913 0.0
C570 C 0.35598 0.26447 0.67539 0.0
C571 C 0.32553 0.13169 0.68605 0.0
C572 C 0.26565 0.99812 0.67565 0.0
C573 C 0.23102 0.98174 0.67198 0.0
C574 C 0.21086 0.94807 0.67883 0.0
C575 C 0.22607 0.9315 0.68983 0.0
C576 C 0.28 0.98076 0.68638 0.0
C577 C 0.26028 0.94772 0.69349 0.0
C578 C 0.35302 0.11241 0.62393 0.0
C579 C 0.28667 0.0333 0.66854 0.0
H580 H 0.49322 0.28573 0.68063 0.0
H581 H 0.51506 0.3419 0.61143 0.0
H582 H 0.45723 0.23659 0.60833 0.0
H583 H 0.48298 0.29026 0.58725 0.0
H584 H 0.21997 0.99507 0.66348 0.0
H585 H 0.21147 0.90597 0.69594 0.0
H586 H 0.30646 0.99272 0.68927 0.0
H587 H 0.27158 0.93462 0.70194 0.0
Eu588 Eu 0.89457 0.23119 0.67339 0.0
C589 C 0.03579 0.34553 0.70556 0.0
C590 C 0.04393 0.39206 0.67991 0.0
C591 C 0.0707 0.4019 0.72102 0.0
C592 C 0.02931 0.35755 0.68367 0.0
C593 C 0.05698 0.36757 0.7243 0.0
C594 C 0.06415 0.41412 0.69889 0.0
C595 C 0.05065 0.32015 0.74761 0.0
N596 N 1.02172 0.3122 0.70837 0.0
C597 C 0.02977 0.29928 0.72854 0.0
C598 C 0.06403 0.35443 0.74563 0.0
Eu599 Eu 0.98627 0.27854 0.67547 0.0
N600 N 1.0099 0.3356 0.66559 0.0
C601 C 1.00616 0.34661 0.64258 0.0
C602 C 0.03846 0.4034 0.65694 0.0
C603 C 1.01984 0.38057 0.63807 0.0
H604 H 1.0195 0.27281 0.73017 0.0
H605 H 1.01604 0.38909 0.62002 0.0
H606 H 0.07537 0.4407 0.69642 0.0
H607 H 0.05642 0.3098 0.76382 0.0
H608 H 0.99198 0.32935 0.62773 0.0
H609 H 0.88595 0.16751 0.76321 0.0
H610 H 0.04914 0.42971 0.65335 0.0
H611 H 0.85921 0.19785 0.61714 0.0
H612 H 0.90616 0.21491 0.73504 0.0
H613 H 0.82459 0.14277 0.59788 0.0
H614 H 0.0868 0.41922 0.73531 0.0
H615 H 0.8491 0.11084 0.74701 0.0
H616 H 0.81806 0.07369 0.71076 0.0
H617 H 0.08017 0.37054 0.76046 0.0
H618 H 0.80298 0.06682 0.66575 0.0
N619 N 0.8805 0.18652 0.70226 0.0
C620 C 0.88962 0.19086 0.72726 0.0
C621 C 0.85763 0.13181 0.73434 0.0
C622 C 0.84838 0.12725 0.70886 0.0
C623 C 0.87838 0.16374 0.74355 0.0
C624 C 0.86026 0.15538 0.69305 0.0
H625 H 0.80567 0.09223 0.6236 0.0
N626 N 0.86267 0.17888 0.65302 0.0
C627 C 0.83223 0.1448 0.61746 0.0
C628 C 0.85137 0.15148 0.66772 0.0
C629 C 0.85231 0.17597 0.62839 0.0
C630 C 0.82152 0.11637 0.63205 0.0
C631 C 0.83059 0.11945 0.65757 0.0
O632 O 0.84686 0.22382 0.65919 0.0
O633 O 0.93942 0.28134 0.67221 0.0
O634 O 0.97049 0.2914 0.71185 0.0
O635 O 0.91237 0.25954 0.71189 0.0
O636 O 0.90256 0.27228 0.64649 0.0
O637 O 0.86203 0.24086 0.69737 0.0
O638 O 1.01732 0.25558 0.67597 0.0
O639 O 0.94073 0.2284 0.67365 0.0
O640 O 0.91509 0.22667 0.63448 0.0
O641 O 0.96983 0.27068 0.63462 0.0
O642 O 0.97659 0.23381 0.69922 0.0
O643 O 0.02583 0.29216 0.64752 0.0
C644 C 0.93064 0.29494 0.65557 0.0
C645 C 0.80473 0.20418 0.6908 0.0
C646 C 0.74425 0.17955 0.69424 0.0
C647 C 0.7751 0.20366 0.68382 0.0
C648 C 0.74357 0.15537 0.71056 0.0
C649 C 0.80291 0.18046 0.70807 0.0
C650 C 0.77263 0.15598 0.71746 0.0
C651 C 0.94135 0.28123 0.72253 0.0
C652 C 0.83776 0.22966 0.68107 0.0
C653 C 0.81898 0.09154 0.67322 0.0
C654 C 0.82763 0.09546 0.69883 0.0
C655 C 0.94853 0.21303 0.68921 0.0
C656 C 0.07231 0.28868 0.66242 0.0
C657 C 0.08704 0.26855 0.66227 0.0
C658 C 0.12075 0.28193 0.66866 0.0
C659 C 0.13953 0.31587 0.67481 0.0
C660 C 0.09161 0.32243 0.66865 0.0
C661 C 0.12505 0.3359 0.67471 0.0
C662 C 0.94383 0.24655 0.62306 0.0
C663 C 0.03642 0.27361 0.65766 0.0
H664 H 0.77618 0.22234 0.67105 0.0
H665 H 0.7204 0.13593 0.71825 0.0
H666 H 0.82498 0.18105 0.71474 0.0
H667 H 0.77173 0.13762 0.73045 0.0
H668 H 0.07205 0.24235 0.65787 0.0
H669 H 0.16556 0.32704 0.67951 0.0
H670 H 0.08083 0.33834 0.66906 0.0
H671 H 0.13978 0.36196 0.67951 0.0
Eu672 Eu 0.82071 0.66245 0.66875 0.0
C673 C 0.73929 0.70614 0.73546 0.0
C674 C 0.68387 0.67367 0.71845 0.0
C675 C 0.69162 0.69022 0.76277 0.0
C676 C 0.71855 0.68956 0.71534 0.0
C677 C 0.7261 0.70727 0.75927 0.0
C678 C 0.67054 0.67353 0.74238 0.0
C679 C 0.78185 0.74509 0.77352 0.0
N680 N 0.77247 0.72286 0.7313 0.0
C681 C 0.79373 0.74339 0.74952 0.0
C682 C 0.74793 0.72652 0.77855 0.0
Eu683 Eu 0.79095 0.71793 0.69046 0.0
N684 N 0.73227 0.69107 0.69232 0.0
C685 C 0.71272 0.67949 0.67127 0.0
C686 C 0.66366 0.65944 0.69722 0.0
C687 C 0.67817 0.6628 0.67345 0.0
H688 H 0.81998 0.75782 0.74575 0.0
H689 H 0.66279 0.65269 0.65678 0.0
H690 H 0.64396 0.66119 0.74517 0.0
H691 H 0.79885 0.76071 0.7881 0.0
H692 H 0.72361 0.68228 0.65276 0.0
H693 H 0.90232 0.69082 0.75136 0.0
H694 H 0.63692 0.64681 0.69885 0.0
H695 H 0.83897 0.66602 0.60654 0.0
H696 H 0.85063 0.67593 0.72975 0.0
H697 H 0.88697 0.67878 0.5797 0.0
H698 H 0.681 0.69052 0.78098 0.0
H699 H 0.95268 0.70479 0.72671 0.0
H700 H 0.97949 0.71072 0.68467 0.0
H701 H 0.73877 0.72799 0.79711 0.0
H702 H 0.97508 0.70652 0.63844 0.0
N703 N 0.87042 0.68136 0.69244 0.0
C704 C 0.87186 0.68182 0.71833 0.0
C705 C 0.92982 0.69834 0.7169 0.0
C706 C 0.92836 0.69769 0.69046 0.0
C707 C 0.90145 0.6904 0.73087 0.0
C708 C 0.89801 0.68925 0.67852 0.0
H709 H 0.94111 0.69558 0.59919 0.0
N710 N 0.86653 0.68005 0.64104 0.0
C711 C 0.89002 0.6822 0.60001 0.0
C712 C 0.89598 0.68851 0.65221 0.0
C713 C 0.86301 0.67571 0.61533 0.0
C714 C 0.92055 0.69169 0.61111 0.0
C715 C 0.92384 0.69473 0.63746 0.0
O716 O 0.80186 0.61743 0.64602 0.0
O717 O 0.77602 0.66475 0.68061 0.0
O718 O 0.78827 0.68879 0.72506 0.0
O719 O 0.79831 0.64726 0.70959 0.0
O720 O 0.77215 0.63823 0.64787 0.0
O721 O 0.82743 0.62086 0.6809 0.0
O722 O 0.82007 0.77223 0.6927 0.0
O723 O 0.83451 0.71472 0.67595 0.0
O724 O 0.82313 0.69544 0.6354 0.0
O725 O 0.78452 0.71058 0.64789 0.0
O726 O 0.84313 0.7453 0.70682 0.0
O727 O 0.77511 0.74906 0.67083 0.0
C728 C 0.75581 0.64572 0.66385 0.0
C729 C 0.83412 0.59063 0.64658 0.0
C730 C 0.86386 0.55922 0.64593 0.0
C731 C 0.84579 0.57161 0.65928 0.0
C732 C 0.87003 0.56623 0.61996 0.0
C733 C 0.83986 0.59587 0.62038 0.0
C734 C 0.85804 0.58425 0.60736 0.0
C735 C 0.78962 0.66134 0.72806 0.0
C736 C 0.81497 0.60397 0.66005 0.0
C737 C 0.95373 0.7025 0.6494 0.0
C738 C 0.95615 0.70453 0.67578 0.0
C739 C 0.85664 0.73462 0.69089 0.0
C740 C 0.78969 0.80025 0.69122 0.0
C741 C 0.80966 0.83483 0.6875 0.0
C742 C 0.80193 0.85714 0.69983 0.0
C743 C 0.77391 0.84439 0.7156 0.0
C744 C 0.7616 0.78827 0.7068 0.0
C745 C 0.75382 0.81023 0.7189 0.0
C746 C 0.80293 0.70715 0.63037 0.0
C747 C 0.799 0.77691 0.67987 0.0
H748 H 0.84085 0.56649 0.67931 0.0
H749 H 0.88332 0.55679 0.60907 0.0
H750 H 0.82999 0.6087 0.60964 0.0
H751 H 0.8624 0.58878 0.58724 0.0
H752 H 0.83147 0.84435 0.67557 0.0
H753 H 0.76736 0.86094 0.72522 0.0
H754 H 0.74572 0.76194 0.70974 0.0
H755 H 0.73219 0.80072 0.73097 0.0
H756 H 0.35363 0.47523 0.96252 0.0
H757 H 0.29603 0.4563 0.97383 0.0
H758 H 0.32784 0.54025 0.02378 0.0
H759 H 0.38592 0.56017 0.01185 0.0
H760 H 0.26371 0.45315 0.03257 0.0
H761 H 0.30523 0.56483 0.99086 0.0
H762 H 0.33787 0.60313 0.95644 0.0
H763 H 0.28382 0.52657 0.9014 0.0
H764 H 0.25125 0.48774 0.93558 0.0
H765 H 0.10884 0.45554 0.04505 0.0
H766 H 0.16423 0.46154 0.04645 0.0
H767 H 0.15938 0.44309 0.96605 0.0
H768 H 0.10511 0.43894 0.96449 0.0
H769 H 0.21184 0.49821 0.97521 0.0
H770 H 0.1648 0.39069 1.00968 0.0
H771 H 0.13624 0.3416 0.03712 0.0
H772 H 0.19888 0.39694 0.09945 0.0
H773 H 0.22749 0.44659 0.0725 0.0
C774 C 0.34853 0.48955 0.97618 0.0
C775 C 0.37452 0.51956 0.98598 0.0
C776 C 0.31551 0.47854 0.98271 0.0
C777 C 0.30754 0.49697 0.99945 0.0
C778 C 0.33343 0.52567 0.01075 0.0
C779 C 0.36665 0.53692 1.00405 0.0
C780 C 0.27214 0.48776 1.00281 0.0
C781 C 0.25232 0.46356 0.02061 0.0
C782 C 0.25702 0.49988 0.98617 0.0
C783 C 0.27611 0.5234 0.96572 0.0
C784 C 0.30053 0.55615 0.97142 0.0
C785 C 0.31897 0.57795 0.95197 0.0
C786 C 0.31299 0.56727 0.92676 0.0
C787 C 0.28847 0.5348 0.92094 0.0
C788 C 0.27002 0.51291 0.94033 0.0
C789 C 0.11896 0.45138 0.0279 0.0
C790 C 0.10236 0.4465 1.00466 0.0
C791 C 0.15083 0.45491 0.02869 0.0
C792 C 0.1664 0.45302 1.00632 0.0
C793 C 0.14832 0.44502 0.98358 0.0
C794 C 0.11698 0.44218 0.98274 0.0
C795 C 0.20267 0.46381 1.00567 0.0
C796 C 0.22284 0.48818 0.98795 0.0
C797 C 0.21774 0.45107 0.02208 0.0
C798 C 0.19809 0.42253 0.0391 0.0
C799 C 0.17208 0.39264 0.02936 0.0
C800 C 0.15611 0.36458 0.04476 0.0
C801 C 0.16602 0.36604 0.06992 0.0
C802 C 0.19146 0.39575 0.07988 0.0
C803 C 0.20748 0.42389 0.06458 0.0
H804 H 0.15369 0.34427 0.08178 0.0
H805 H 0.32729 0.58416 0.91172 0.0
H806 H 0.59754 0.91214 0.9968 0.0
H807 H 0.61414 0.8712 1.00688 0.0
H808 H 0.51255 0.79927 0.0239 0.0
H809 H 0.49588 0.84031 0.01371 0.0
H810 H 0.60951 0.8267 0.04495 0.0
H811 H 0.49562 0.72881 0.99092 0.0
H812 H 0.45409 0.72558 0.96036 0.0
H813 H 0.5248 0.82104 0.93071 0.0
H814 H 0.56686 0.82453 0.96077 0.0
H815 H 0.60906 0.67044 0.04019 0.0
H816 H 0.60191 0.71843 0.04765 0.0
H817 H 0.6089 0.73676 0.96713 0.0
H818 H 0.61271 0.68697 0.9598 0.0
H819 H 0.55762 0.73571 0.9817 0.0
H820 H 0.66989 0.79371 0.01652 0.0
H821 H 0.71424 0.79985 0.04535 0.0
H822 H 0.65215 0.78652 0.10957 0.0
H823 H 0.60767 0.78102 0.08113 0.0
C824 C 0.57896 0.88799 1.00368 0.0
C825 C 0.5454 0.8794 1.00444 0.0
C826 C 0.58848 0.86458 1.00945 0.0
C827 C 0.56459 0.83195 0.01581 0.0
C828 C 0.53145 0.82423 0.0189 0.0
C829 C 0.52193 0.84776 0.01326 0.0
C830 C 0.57349 0.80522 0.01499 0.0
C831 C 0.59805 0.80665 0.03124 0.0
C832 C 0.55903 0.77927 0.99689 0.0
C833 C 0.5342 0.77708 0.9783 0.0
C834 C 0.50231 0.74902 0.9778 0.0
C835 C 0.47869 0.74715 0.96056 0.0
C836 C 0.48676 0.77314 0.94367 0.0
C837 C 0.51854 0.80097 0.94386 0.0
C838 C 0.54227 0.8029 0.96098 0.0
C839 C 0.6094 0.68497 0.0242 0.0
C840 C 0.61032 0.67432 0.99941 0.0
C841 C 0.60571 0.71279 0.02845 0.0
C842 C 0.6043 0.73133 1.00793 0.0
C843 C 0.60911 0.72268 0.98334 0.0
C844 C 0.61172 0.69438 0.97912 0.0
C845 C 0.5943 0.7572 0.01135 0.0
C846 C 0.56918 0.75553 0.99558 0.0
C847 C 0.60864 0.78305 0.02964 0.0
C848 C 0.63545 0.78678 0.04672 0.0
C849 C 0.66571 0.79205 0.03678 0.0
C850 C 0.69086 0.79544 0.05305 0.0
C851 C 0.6859 0.79327 0.07924 0.0
C852 C 0.65593 0.78813 0.08928 0.0
C853 C 0.63083 0.78511 0.07311 0.0
H854 H 0.70536 0.79568 0.09173 0.0
H855 H 0.46842 0.77168 0.93038 0.0
H856 H 0.38531 0.93399 0.95028 0.0
H857 H 0.33496 0.88075 0.95588 0.0
H858 H 0.32701 0.90729 0.03297 0.0
H859 H 0.37823 0.96051 0.02751 0.0
H860 H 0.32073 0.84815 0.03233 0.0
H861 H 0.27002 0.89758 0.98653 0.0
H862 H 0.26289 0.92975 0.95267 0.0
H863 H 0.25509 0.85816 0.89745 0.0
H864 H 0.26268 0.82575 0.9309 0.0
H865 H 0.15914 0.69682 0.03885 0.0
H866 H 0.20532 0.7544 0.03998 0.0
H867 H 0.24097 0.73871 0.96874 0.0
H868 H 0.19524 0.68097 0.96792 0.0
H869 H 0.22901 0.7941 0.97021 0.0
H870 H 0.28465 0.74792 0.01842 0.0
H871 H 0.29067 0.71704 0.05388 0.0
H872 H 0.28576 0.78463 0.10701 0.0
H873 H 0.27919 0.81564 0.07185 0.0
C874 C 0.37239 0.92886 0.96824 0.0
C875 C 0.38592 0.95141 0.98849 0.0
C876 C 0.34347 0.89835 0.97144 0.0
C877 C 0.32697 0.88977 0.99488 0.0
C878 C 0.33932 0.91315 0.01474 0.0
C879 C 0.3685 0.94373 0.01156 0.0
C880 C 0.29867 0.85545 0.99891 0.0
C881 C 0.30031 0.83661 0.01903 0.0
C882 C 0.27206 0.84006 0.98148 0.0
C883 C 0.2671 0.85928 0.96126 0.0
C884 C 0.26698 0.88876 0.96715 0.0
C885 C 0.26285 0.90705 0.94803 0.0
C886 C 0.2586 0.89604 0.92293 0.0
C887 C 0.25839 0.86666 0.91691 0.0
C888 C 0.26255 0.84828 0.93595 0.0
C889 C 0.17762 0.70541 0.02397 0.0
C890 C 0.17415 0.68438 1.00357 0.0
C891 C 0.20378 0.73832 0.0245 0.0
C892 C 0.22651 0.7509 1.00438 0.0
C893 C 0.22372 0.72952 0.98445 0.0
C894 C 0.19789 0.69647 0.98414 0.0
C895 C 0.25171 0.78684 1.00316 0.0
C896 C 0.2493 0.8059 0.98361 0.0
C897 C 0.27717 0.80255 0.02139 0.0
C898 C 0.281 0.78384 0.04251 0.0
C899 C 0.28448 0.75599 0.03767 0.0
C900 C 0.28808 0.73851 0.05772 0.0
C901 C 0.28848 0.7488 0.08269 0.0
C902 C 0.28537 0.77664 0.08766 0.0
C903 C 0.28172 0.79418 0.06768 0.0
H904 H 0.29129 0.73525 0.09818 0.0
H905 H 0.25542 0.91025 0.90815 0.0
H906 H 0.50864 0.22678 0.01206 0.0
H907 H 0.53859 0.28741 0.01041 0.0
H908 H 0.45011 0.28546 0.98393 0.0
H909 H 0.42091 0.22518 0.98367 0.0
H910 H 0.499 0.33208 0.96102 0.0
H911 H 0.4785 0.29976 0.04931 0.0
H912 H 0.4824 0.27221 0.08791 0.0
H913 H 0.58861 0.32908 0.08434 0.0
H914 H 0.58531 0.3567 0.04554 0.0
H915 H 0.55702 0.487 0.05396 0.0
H916 H 0.53328 0.42821 0.04481 0.0
H917 H 0.57038 0.45253 0.96813 0.0
H918 H 0.58777 0.51036 0.97627 0.0
H919 H 0.55549 0.39439 0.03877 0.0
H920 H 0.56292 0.40341 0.93761 0.0
H921 H 0.55099 0.42285 0.89765 0.0
H922 H 0.45714 0.40326 0.92737 0.0
H923 H 0.46958 0.38573 0.96809 0.0
C924 C 0.49571 0.23919 1.00538 0.0
C925 C 0.46206 0.22082 0.99839 0.0
C926 C 0.5128 0.27401 1.00479 0.0
C927 C 0.4965 0.29131 0.99766 0.0
C928 C 0.46335 0.27295 0.98972 0.0
C929 C 0.44646 0.23828 0.98992 0.0
C930 C 0.51318 0.32835 0.99905 0.0
C931 C 0.51109 0.34572 0.97816 0.0
C932 C 0.52963 0.3465 0.02108 0.0
C933 C 0.53166 0.32999 0.0444 0.0
C934 C 0.50268 0.30622 0.05668 0.0
C935 C 0.50478 0.29062 0.0786 0.0
C936 C 0.53573 0.29882 0.08852 0.0
C937 C 0.56466 0.32271 0.0766 0.0
C938 C 0.56269 0.33835 0.05465 0.0
C939 C 0.55842 0.47938 0.0348 0.0
C940 C 0.57286 0.50303 0.0156 0.0
C941 C 0.54549 0.44563 0.02956 0.0
C942 C 0.54918 0.43461 1.00542 0.0
C943 C 0.56477 0.45882 0.9864 0.0
C944 C 0.57551 0.49241 0.99122 0.0
C945 C 0.53869 0.39844 1.00146 0.0
C946 C 0.5428 0.38108 0.02171 0.0
C947 C 0.52333 0.38014 0.97902 0.0
C948 C 0.51782 0.39483 0.95617 0.0
C949 C 0.54021 0.40428 0.93582 0.0
C950 C 0.53343 0.41507 0.91313 0.0
C951 C 0.50366 0.41512 0.91022 0.0
C952 C 0.48068 0.40436 0.93001 0.0
C953 C 0.48781 0.39453 0.95303 0.0
H954 H 0.49816 0.42297 0.89251 0.0
H955 H 0.53731 0.28672 0.10549 0.0
H956 H 0.54637 0.09666 0.97848 0.0
H957 H 0.60414 0.13932 0.97507 0.0
H958 H 0.61478 0.137 0.05621 0.0
H959 H 0.5554 0.09864 0.05968 0.0
H960 H 0.64572 0.19398 0.04639 0.0
H961 H 0.67838 0.11408 0.99371 0.0
H962 H 0.67298 0.08044 0.95574 0.0
H963 H 0.64734 0.14106 0.911 0.0
H964 H 0.65499 0.17642 0.94832 0.0
H965 H 0.81562 0.24676 0.06332 0.0
H966 H 0.75535 0.21814 0.05878 0.0
H967 H 0.76604 0.26066 0.98454 0.0
H968 H 0.82657 0.28937 0.98899 0.0
H969 H 0.72532 0.19378 0.98417 0.0
H970 H 0.73403 0.28463 0.03025 0.0
H971 H 0.7525 0.32655 0.06429 0.0
H972 H 0.70185 0.24968 0.11936 0.0
H973 H 0.68352 0.2072 0.08569 0.0
C974 C 0.56129 0.10501 0.99552 0.0
C975 C 0.54658 0.09368 0.01934 0.0
C976 C 0.5949 0.12916 0.99352 0.0
C977 C 0.61521 0.14125 0.01518 0.0
C978 C 0.60029 0.12875 0.03896 0.0
C979 C 0.56629 0.10628 0.04104 0.0
C980 C 0.65103 0.16841 0.01396 0.0
C981 C 0.66296 0.19321 0.03295 0.0
C982 C 0.67405 0.16996 0.99545 0.0
C983 C 0.66528 0.14657 0.97405 0.0
C984 C 0.67078 0.11965 0.97588 0.0
C985 C 0.6679 0.10067 0.95441 0.0
C986 C 0.65883 0.10797 0.93116 0.0
C987 C 0.65371 0.13499 0.92912 0.0
C988 C 0.65772 0.15474 0.95034 0.0
C989 C 0.80513 0.2503 0.04613 0.0
C990 C 0.82585 0.27014 0.02644 0.0
C991 C 0.77066 0.23413 0.04364 0.0
C992 C 0.75611 0.23731 0.02135 0.0
C993 C 0.77671 0.2579 1.00193 0.0
C994 C 0.81127 0.27441 1.00454 0.0
C995 C 0.71962 0.21678 0.01768 0.0
C996 C 0.70777 0.19392 0.99767 0.0
C997 C 0.69676 0.21723 0.03506 0.0
C998 C 0.70757 0.24268 0.05542 0.0
C999 C 0.72703 0.27661 0.04963 0.0
C1000 C 0.73745 0.30049 0.06887 0.0
C1001 C 0.72839 0.29078 0.09398 0.0
C1002 C 0.70885 0.25716 0.09989 0.0
C1003 C 0.69841 0.23317 0.08073 0.0
H1004 H 0.73647 0.3093 0.10885 0.0
H1005 H 0.6563 0.09301 0.91464 0.0
H1006 H 0.96453 0.4839 0.0736 0.0
H1007 H 0.92311 0.50172 0.07222 0.0
H1008 H 0.90604 0.4751 0.99303 0.0
H1009 H 0.94689 0.45658 0.99469 0.0
H1010 H 0.9226 0.54928 0.04896 0.0
H1011 H 0.8288 0.45618 0.97517 0.0
H1012 H 0.80555 0.39748 0.96277 0.0
H1013 H 0.82671 0.37485 0.03676 0.0
H1014 H 0.84971 0.43329 0.0497 0.0
H1015 H 0.83242 0.61943 1.00003 0.0
H1016 H 0.86368 0.5902 1.00214 0.0
H1017 H 0.78239 0.50928 0.04138 0.0
H1018 H 0.75067 0.53843 0.03896 0.0
H1019 H 0.81114 0.48544 0.01005 0.0
H1020 H 0.8489 0.5692 0.07408 0.0
H1021 H 0.86975 0.62543 0.09156 0.0
H1022 H 0.95701 0.66219 0.04537 0.0
H1023 H 0.9364 0.60629 0.02729 0.0
C1024 C 0.95179 0.4818 0.05596 0.0
C1025 C 0.95978 0.47009 0.03403 0.0
C1026 C 0.92812 0.492 0.05514 0.0
C1027 C 0.91126 0.48991 0.03251 0.0
C1028 C 0.91828 0.47676 0.01083 0.0
C1029 C 0.94203 0.46664 0.01165 0.0
C1030 C 0.8877 0.503 0.03132 0.0
C1031 C 0.89837 0.53527 0.04027 0.0
C1032 C 0.85541 0.48452 0.02087 0.0
C1033 C 0.84127 0.44922 0.01331 0.0
C1034 C 0.82837 0.43866 0.98883 0.0
C1035 C 0.81526 0.40543 0.9817 0.0
C1036 C 0.81475 0.38247 0.99894 0.0
C1037 C 0.82725 0.39268 0.02339 0.0
C1038 C 0.84037 0.42586 0.03061 0.0
C1039 C 0.82104 0.59528 1.00894 0.0
C1040 C 0.78918 0.58149 0.01963 0.0
C1041 C 0.83899 0.57856 0.01016 0.0
C1042 C 0.82582 0.54778 0.02244 0.0
C1043 C 0.79325 0.53305 0.03191 0.0
C1044 C 0.77509 0.54971 0.03049 0.0
C1045 C 0.84686 0.53221 0.02658 0.0
C1046 C 0.8356 0.49947 0.0184 0.0
C1047 C 0.87843 0.54995 0.03827 0.0
C1048 C 0.89097 0.5836 0.04918 0.0
C1049 C 0.87243 0.58933 0.06752 0.0
C1050 C 0.88421 0.62114 0.07755 0.0
C1051 C 0.91466 0.64738 0.06955 0.0
C1052 C 0.93342 0.64185 0.05154 0.0
C1053 C 0.92171 0.6101 0.0414 0.0
H1054 H 0.92374 0.67199 0.07734 0.0
H1055 H 0.80461 0.35677 0.99339 0.0
H1056 H 0.78925 0.80947 0.28501 0.0
H1057 H 0.84272 0.81245 0.28871 0.0
H1058 H 0.81742 0.77227 0.36427 0.0
H1059 H 0.76432 0.77104 0.361 0.0
H1060 H 0.87584 0.82212 0.36579 0.0
H1061 H 0.82779 0.72793 0.31156 0.0
H1062 H 0.79701 0.69274 0.27505 0.0
H1063 H 0.86695 0.76591 0.224 0.0
H1064 H 0.89822 0.80149 0.26019 0.0
H1065 H 1.02095 0.80192 0.36634 0.0
H1066 H 0.96495 0.79448 0.36776 0.0
H1067 H 0.98741 0.85692 0.3021 0.0
H1068 H 0.04371 0.86493 0.30099 0.0
H1069 H 0.92958 0.79177 0.29778 0.0
H1070 H 0.97742 0.88508 0.35557 0.0
H1071 H 1.00782 0.9155 0.39386 0.0
H1072 H 0.93612 0.8371 0.44068 0.0
H1073 H 0.90554 0.80597 0.40264 0.0
C1074 C 0.79478 0.80054 0.30221 0.0
C1075 C 0.77242 0.78972 0.32258 0.0
C1076 C 0.82539 0.80207 0.30429 0.0
C1077 C 0.8343 0.79224 0.32668 0.0
C1078 C 0.81131 0.78002 0.34676 0.0
C1079 C 0.78073 0.77893 0.34479 0.0
C1080 C 0.86859 0.79758 0.32965 0.0
C1081 C 0.88727 0.81482 0.3511 0.0
C1082 C 0.88404 0.78863 0.31044 0.0
C1083 C 0.86518 0.76747 0.28859 0.0
C1084 C 0.83646 0.7366 0.29254 0.0
C1085 C 0.81899 0.71656 0.27192 0.0
C1086 C 0.82991 0.72716 0.24724 0.0
C1087 C 0.85848 0.75775 0.24313 0.0
C1088 C 0.87617 0.7778 0.26369 0.0
C1089 C 1.01421 0.81492 0.35275 0.0
C1090 C 0.03672 0.83434 0.33374 0.0
C1091 C 0.98221 0.81053 0.35349 0.0
C1092 C 0.97194 0.82505 0.33498 0.0
C1093 C 0.99483 0.84551 0.31657 0.0
C1094 C 0.02705 0.85037 0.3161 0.0
C1095 C 0.93666 0.81666 0.33359 0.0
C1096 C 0.91789 0.79879 0.31247 0.0
C1097 C 0.92099 0.82432 0.35336 0.0
C1098 C 0.9394 0.84302 0.37623 0.0
C1099 C 0.96832 0.87416 0.37401 0.0
C1100 C 0.98554 0.89157 0.39568 0.0
C1101 C 0.97397 0.8782 0.41968 0.0
C1102 C 0.94509 0.84741 0.42207 0.0
C1103 C 0.92779 0.82988 0.40047 0.0
H1104 H 0.98733 0.89172 0.43643 0.0
H1105 H 0.81629 0.71163 0.2313 0.0
H1106 H 0.17138 0.16864 0.33227 0.0
H1107 H 0.18619 0.12604 0.34143 0.0
H1108 H 0.28776 0.20251 0.35348 0.0
H1109 H 0.27303 0.24483 0.34347 0.0
H1110 H 0.28848 0.16164 0.32268 0.0
H1111 H 0.23675 0.14814 0.40219 0.0
H1112 H 0.19368 0.14006 0.43316 0.0
H1113 H 0.12684 0.04537 0.39988 0.0
H1114 H 0.16938 0.05307 0.36848 0.0
H1115 H 0.27675 0.99558 0.37403 0.0
H1116 H 0.27446 0.04628 0.38101 0.0
H1117 H 0.26824 0.05656 0.30042 0.0
H1118 H 0.26896 1.00496 0.29354 0.0
H1119 H 0.2272 0.05841 0.3727 0.0
H1120 H 0.29464 0.12875 0.28175 0.0
H1121 H 0.34542 0.14352 0.25733 0.0
H1122 H 0.39218 0.1346 0.32444 0.0
H1123 H 0.34125 0.11852 0.34903 0.0
C1124 C 0.19657 0.1763 0.33781 0.0
C1125 C 0.22099 0.21003 0.3374 0.0
C1126 C 0.20512 0.15191 0.34299 0.0
C1127 C 0.23823 0.16082 0.34815 0.0
C1128 C 0.26212 0.19476 0.34942 0.0
C1129 C 0.25365 0.21902 0.34396 0.0
C1130 C 0.24864 0.13509 0.34926 0.0
C1131 C 0.27505 0.13921 0.33379 0.0
C1132 C 0.23201 0.10599 0.36417 0.0
C1133 C 0.20617 0.10135 0.38281 0.0
C1134 C 0.21275 0.12574 0.40131 0.0
C1135 C 0.18846 0.12119 0.41899 0.0
C1136 C 0.15751 0.09226 0.41845 0.0
C1137 C 0.15082 0.06778 0.40026 0.0
C1138 C 0.17503 0.07221 0.38253 0.0
C1139 C 0.27566 1.00903 0.3578 0.0
C1140 C 0.2729 0.99614 0.33324 0.0
C1141 C 0.27451 0.03826 0.36181 0.0
C1142 C 0.27169 0.0559 0.34131 0.0
C1143 C 0.27107 0.04404 0.31664 0.0
C1144 C 0.2715 1.01446 0.31268 0.0
C1145 C 0.26626 0.08471 0.34553 0.0
C1146 C 0.24071 0.08106 0.36184 0.0
C1147 C 0.28438 0.11482 0.33214 0.0
C1148 C 0.31414 0.12225 0.31711 0.0
C1149 C 0.31567 0.12962 0.2912 0.0
C1150 C 0.3444 0.13803 0.27732 0.0
C1151 C 0.37191 0.13971 0.2893 0.0
C1152 C 0.37068 0.13282 0.31513 0.0
C1153 C 0.3418 0.12372 0.32899 0.0
H1154 H 0.39423 0.14652 0.27859 0.0
H1155 H 0.13874 0.08877 0.43216 0.0
H1156 H 0.05562 0.2673 0.29147 0.0
H1157 H 1.00567 0.21336 0.29679 0.0
H1158 H 1.00731 0.23135 0.37715 0.0
H1159 H 0.05753 0.2856 0.37175 0.0
H1160 H 1.00275 0.17216 0.36769 0.0
H1161 H 0.94504 0.22675 0.3388 0.0
H1162 H 0.93287 0.26131 0.31045 0.0
H1163 H 0.91587 0.19417 0.24879 0.0
H1164 H 0.92807 0.15925 0.27671 0.0
H1165 H 0.85023 0.02803 0.39577 0.0
H1166 H 0.89675 0.08387 0.38962 0.0
H1167 H 0.89283 0.06643 0.30906 0.0
H1168 H 0.84514 1.01025 0.31518 0.0
H1169 H 0.89831 0.12561 0.31848 0.0
H1170 H 0.95637 0.07136 0.34685 0.0
H1171 H 0.96908 0.03679 0.37471 0.0
H1172 H 0.98695 0.10374 0.43672 0.0
H1173 H 0.97389 0.13848 0.40932 0.0
C1174 C 0.04484 0.26015 0.3102 0.0
C1175 C 0.06071 0.28066 0.33122 0.0
C1176 C 1.0162 0.22923 0.31323 0.0
C1177 C 1.00257 0.21799 0.33739 0.0
C1178 C 1.01736 0.23926 0.35831 0.0
C1179 C 0.04603 0.27037 0.35522 0.0
C1180 C 0.97484 0.18311 0.34089 0.0
C1181 C 0.97966 0.16219 0.35727 0.0
C1182 C 0.94511 0.16956 0.32663 0.0
C1183 C 0.93772 0.1905 0.30981 0.0
C1184 C 0.93893 0.21946 0.31916 0.0
C1185 C 0.93197 0.23909 0.30318 0.0
C1186 C 0.92375 0.23002 0.27783 0.0
C1187 C 0.92229 0.20119 0.26843 0.0
C1188 C 0.92913 0.18142 0.28433 0.0
C1189 C 0.85942 0.03589 0.37672 0.0
C1190 C 0.84381 1.01463 0.35594 0.0
C1191 C 0.88626 0.0679 0.37323 0.0
C1192 C 0.89867 0.0796 0.34888 0.0
C1193 C 0.88379 0.0581 0.32807 0.0
C1194 C 0.85675 0.02585 0.33158 0.0
C1195 C 0.92618 0.11465 0.34536 0.0
C1196 C 0.92136 0.13559 0.32894 0.0
C1197 C 0.95601 0.12824 0.35953 0.0
C1198 C 0.96383 0.10736 0.37608 0.0
C1199 C 0.96274 0.07857 0.36648 0.0
C1200 C 0.97006 0.05896 0.38218 0.0
C1201 C 0.97873 0.06801 0.40748 0.0
C1202 C 0.98018 0.09673 0.41712 0.0
C1203 C 0.97285 0.11641 0.40151 0.0
H1204 H 0.9844 0.05281 0.4196 0.0
H1205 H 0.91842 0.24528 0.26549 0.0
H1206 H 0.23821 0.82474 0.40674 0.0
H1207 H 0.22123 0.76564 0.40633 0.0
H1208 H 0.24374 0.77183 0.32646 0.0
H1209 H 0.26204 0.83113 0.32729 0.0
H1210 H 0.17315 0.71732 0.38561 0.0
H1211 H 0.25736 0.71048 0.30668 0.0
H1212 H 0.31451 0.74392 0.29073 0.0
H1213 H 0.34583 0.79292 0.36283 0.0
H1214 H 0.28899 0.75938 0.37938 0.0
H1215 H 0.09661 0.55545 0.33759 0.0
H1216 H 0.12651 0.61599 0.33981 0.0
H1217 H 0.20985 0.61483 0.37405 0.0
H1218 H 0.18003 0.55397 0.3716 0.0
H1219 H 0.23146 0.66624 0.34249 0.0
H1220 H 0.1536 0.62351 0.41026 0.0
H1221 H 0.09901 0.58976 0.43044 0.0
H1222 H 0.06013 0.6411 0.38786 0.0
H1223 H 0.11434 0.67478 0.3671 0.0
C1224 C 0.23975 0.8134 0.3892 0.0
C1225 C 0.25022 0.83208 0.36686 0.0
C1226 C 0.23001 0.77962 0.38892 0.0
C1227 C 0.23104 0.7639 0.36636 0.0
C1228 C 0.24306 0.78314 0.34426 0.0
C1229 C 0.253 0.81697 0.3446 0.0
C1230 C 0.21749 0.72714 0.36561 0.0
C1231 C 0.18602 0.70636 0.37609 0.0
C1232 C 0.23442 0.71235 0.35388 0.0
C1233 C 0.2688 0.73253 0.3442 0.0
C1234 C 0.27646 0.72826 0.31918 0.0
C1235 C 0.3088 0.74725 0.31003 0.0
C1236 C 0.33376 0.77053 0.32574 0.0
C1237 C 0.32645 0.77491 0.35066 0.0
C1238 C 0.29415 0.75592 0.35993 0.0
C1239 C 0.12137 0.56805 0.3455 0.0
C1240 C 0.13572 0.54978 0.35475 0.0
C1241 C 0.13847 0.60273 0.34677 0.0
C1242 C 0.17022 0.62012 0.35763 0.0
C1243 C 0.18534 0.60207 0.36571 0.0
C1244 C 0.16828 0.56725 0.36426 0.0
C1245 C 0.18672 0.65685 0.36156 0.0
C1246 C 0.21869 0.67747 0.35183 0.0
C1247 C 0.17061 0.67163 0.37445 0.0
C1248 C 0.13797 0.65146 0.38694 0.0
C1249 C 0.13334 0.62743 0.40505 0.0
C1250 C 0.10247 0.60833 0.41661 0.0
C1251 C 0.0761 0.61323 0.41039 0.0
C1252 C 0.08057 0.6373 0.39263 0.0
C1253 C 0.11136 0.65641 0.38097 0.0
H1254 H 0.05222 0.59842 0.41937 0.0
H1255 H 0.35876 0.78507 0.31859 0.0
H1256 H 0.23226 0.43483 0.39803 0.0
H1257 H 0.29216 0.47188 0.39321 0.0
H1258 H 0.28196 0.45976 0.31206 0.0
H1259 H 0.22201 0.42343 0.31691 0.0
H1260 H 0.3389 0.46152 0.37526 0.0
H1261 H 0.34147 0.52936 0.28304 0.0
H1262 H 0.3059 0.54609 0.2604 0.0
H1263 H 0.26156 0.55001 0.33078 0.0
H1264 H 0.29717 0.53376 0.35387 0.0
H1265 H 0.49876 0.5381 0.32161 0.0
H1266 H 0.43849 0.50788 0.32493 0.0
H1267 H 0.44062 0.59582 0.35356 0.0
H1268 H 0.50133 0.62629 0.35087 0.0
H1269 H 0.38818 0.55981 0.31893 0.0
H1270 H 0.43209 0.53942 0.3949 0.0
H1271 H 0.46694 0.52327 0.41919 0.0
H1272 H 0.41745 0.42679 0.38437 0.0
H1273 H 0.3827 0.4426 0.35955 0.0
C1274 C 0.24289 0.44016 0.37919 0.0
C1275 C 0.22269 0.42548 0.3579 0.0
C1276 C 0.27712 0.46127 0.37643 0.0
C1277 C 0.29178 0.4688 0.35226 0.0
C1278 C 0.27138 0.45472 0.33091 0.0
C1279 C 0.23713 0.4336 0.33369 0.0
C1280 C 0.32842 0.49087 0.34952 0.0
C1281 C 0.34953 0.48285 0.36281 0.0
C1282 C 0.34263 0.51929 0.33374 0.0
C1283 C 0.32182 0.53008 0.32014 0.0
C1284 C 0.32429 0.53401 0.2937 0.0
C1285 C 0.30408 0.54335 0.28078 0.0
C1286 C 0.28142 0.54901 0.29414 0.0
C1287 C 0.27905 0.54552 0.32045 0.0
C1288 C 0.29922 0.53622 0.33346 0.0
C1289 C 0.48658 0.55114 0.32872 0.0
C1290 C 0.50521 0.58462 0.33639 0.0
C1291 C 0.45198 0.53379 0.33046 0.0
C1292 C 0.43495 0.54938 0.33982 0.0
C1293 C 0.45319 0.58322 0.34631 0.0
C1294 C 0.48796 0.60065 0.34469 0.0
C1295 C 0.39838 0.52971 0.34407 0.0
C1296 C 0.37738 0.53825 0.33117 0.0
C1297 C 0.38416 0.50183 0.36033 0.0
C1298 C 0.40491 0.49224 0.3753 0.0
C1299 C 0.42879 0.51484 0.39232 0.0
C1300 C 0.44852 0.50574 0.40618 0.0
C1301 C 0.44443 0.47404 0.40331 0.0
C1302 C 0.42058 0.45134 0.38659 0.0
C1303 C 0.40083 0.46034 0.37264 0.0
H1304 H 0.45973 0.46704 0.41406 0.0
H1305 H 0.26573 0.55615 0.28409 0.0
H1306 H 0.45611 0.88789 0.40109 0.0
H1307 H 0.49685 0.87142 0.38964 0.0
H1308 H 0.44069 0.8228 0.32249 0.0
H1309 H 0.40028 0.84041 0.33352 0.0
H1310 H 0.4596 0.78321 0.35702 0.0
H1311 H 0.50553 0.8844 0.30998 0.0
H1312 H 0.5255 0.94387 0.30329 0.0
H1313 H 0.59974 0.96926 0.36056 0.0
H1314 H 0.57976 0.90992 0.36794 0.0
H1315 H 0.62932 0.80198 0.31393 0.0
H1316 H 0.58657 0.8179 0.31076 0.0
H1317 H 0.55651 0.78566 0.38762 0.0
H1318 H 0.59961 0.77031 0.39095 0.0
H1319 H 0.57759 0.86306 0.33846 0.0
H1320 H 0.47174 0.74985 0.39083 0.0
H1321 H 0.45262 0.69042 0.3968 0.0
H1322 H 0.49869 0.68846 0.32678 0.0
H1323 H 0.51757 0.74771 0.32014 0.0
C1324 C 0.4527 0.87405 0.38372 0.0
C1325 C 0.42503 0.86525 0.36821 0.0
C1326 C 0.47593 0.86465 0.37722 0.0
C1327 C 0.47169 0.84579 0.3553 0.0
C1328 C 0.44432 0.8373 0.33952 0.0
C1329 C 0.4214 0.84742 0.34575 0.0
C1330 C 0.49556 0.8343 0.34965 0.0
C1331 C 0.4854 0.8006 0.35285 0.0
C1332 C 0.52908 0.85696 0.34388 0.0
C1333 C 0.54099 0.89268 0.33963 0.0
C1334 C 0.52589 0.90265 0.32133 0.0
C1335 C 0.53725 0.93635 0.31738 0.0
C1336 C 0.56384 0.96033 0.33152 0.0
C1337 C 0.57914 0.95066 0.34962 0.0
C1338 C 0.56783 0.917 0.35368 0.0
C1339 C 0.61383 0.79869 0.33021 0.0
C1340 C 0.6183 0.78577 0.35293 0.0
C1341 C 0.58931 0.80761 0.32834 0.0
C1342 C 0.5682 0.8028 0.34889 0.0
C1343 C 0.57229 0.78931 0.37143 0.0
C1344 C 0.59695 0.78066 0.37336 0.0
C1345 C 0.54217 0.8123 0.34709 0.0
C1346 C 0.55187 0.84561 0.34252 0.0
C1347 C 0.50828 0.78926 0.3516 0.0
C1348 C 0.4963 0.75335 0.35511 0.0
C1349 C 0.47761 0.73671 0.37662 0.0
C1350 C 0.46683 0.70304 0.38013 0.0
C1351 C 0.47451 0.6857 0.36221 0.0
C1352 C 0.49284 0.70195 0.34068 0.0
C1353 C 0.50361 0.73558 0.33704 0.0
H1354 H 0.46622 0.65967 0.36501 0.0
H1355 H 0.57262 0.98641 0.32842 0.0
H1356 H 0.69667 0.17072 0.72844 0.0
H1357 H 0.6405 0.15931 0.72016 0.0
H1358 H 0.66253 0.17572 0.64046 0.0
H1359 H 0.71915 0.18639 0.64857 0.0
H1360 H 0.62222 0.20337 0.66194 0.0
H1361 H 0.62253 0.10067 0.65546 0.0
H1362 H 0.63623 0.05845 0.66945 0.0
H1363 H 0.58039 0.04371 0.73777 0.0
H1364 H 0.5669 0.08628 0.72434 0.0
H1365 H 0.45618 0.12259 0.62024 0.0
H1366 H 0.51141 0.12974 0.62617 0.0
H1367 H 0.49677 0.12311 0.70696 0.0
H1368 H 0.44098 0.11515 0.70116 0.0
H1369 H 0.53318 0.08917 0.68299 0.0
H1370 H 0.53564 0.19403 0.69091 0.0
H1371 H 0.52255 0.23685 0.67743 0.0
H1372 H 0.57285 0.24738 0.60685 0.0
H1373 H 0.58619 0.20449 0.61994 0.0
C1374 C 0.68976 0.17209 0.7091 0.0
C1375 C 0.71232 0.17884 0.68909 0.0
C1376 C 0.65758 0.16563 0.70443 0.0
C1377 C 0.64707 0.16608 0.67967 0.0
C1378 C 0.67008 0.17506 0.65973 0.0
C1379 C 0.70246 0.1813 0.66439 0.0
C1380 C 0.61152 0.15521 0.67489 0.0
C1381 C 0.60282 0.1783 0.66622 0.0
C1382 C 0.58604 0.12266 0.68096 0.0
C1383 C 0.59381 0.09677 0.68897 0.0
C1384 C 0.61335 0.08857 0.67354 0.0
C1385 C 0.62108 0.06457 0.68136 0.0
C1386 C 0.60922 0.04842 0.7045 0.0
C1387 C 0.58955 0.05621 0.71984 0.0
C1388 C 0.58181 0.08025 0.71212 0.0
C1389 C 0.46423 0.12142 0.63926 0.0
C1390 C 0.44428 0.11854 0.66023 0.0
C1391 C 0.4959 0.12574 0.64261 0.0
C1392 C 0.50832 0.12713 0.66702 0.0
C1393 C 0.48751 0.12162 0.68797 0.0
C1394 C 0.45563 0.1172 0.68462 0.0
C1395 C 0.54393 0.13747 0.67047 0.0
C1396 C 0.55261 0.11426 0.67881 0.0
C1397 C 0.56938 0.16992 0.66418 0.0
C1398 C 0.56162 0.19583 0.65628 0.0
C1399 C 0.54368 0.20528 0.67243 0.0
C1400 C 0.53626 0.22961 0.66488 0.0
C1401 C 0.5467 0.2447 0.64123 0.0
C1402 C 0.56473 0.23561 0.62514 0.0
C1403 C 0.57231 0.21137 0.63264 0.0
H1404 H 0.54094 0.26354 0.63541 0.0
H1405 H 0.61523 0.02985 0.71052 0.0
H1406 H 0.95134 0.33724 0.69685 0.0
H1407 H 0.94388 0.38535 0.70279 0.0
H1408 H 0.91463 0.37834 0.62452 0.0
H1409 H 0.92071 0.32947 0.61898 0.0
H1410 H 0.96337 0.4454 0.68611 0.0
H1411 H 0.84887 0.38754 0.6181 0.0
H1412 H 0.8059 0.3317 0.6042 0.0
H1413 H 0.81947 0.28966 0.67223 0.0
H1414 H 0.86206 0.34527 0.68675 0.0
H1415 H 0.92487 0.56477 0.64222 0.0
H1416 H 0.93983 0.5229 0.65229 0.0
H1417 H 0.84379 0.46201 0.68635 0.0
H1418 H 0.82832 0.50373 0.67538 0.0
H1419 H 0.85376 0.42524 0.65661 0.0
H1420 H 0.91869 0.49629 0.72172 0.0
H1421 H 0.95824 0.54765 0.74401 0.0
H1422 H 0.0368 0.55735 0.69564 0.0
H1423 H 0.99763 0.50627 0.6728 0.0
C1424 C 0.94403 0.34637 0.68081 0.0
C1425 C 0.93611 0.3292 0.65755 0.0
C1426 C 0.93972 0.37395 0.68421 0.0
C1427 C 0.9276 0.38495 0.66433 0.0
C1428 C 0.92301 0.36981 0.64041 0.0
C1429 C 0.92682 0.34205 0.63715 0.0
C1430 C 0.91716 0.41023 0.66876 0.0
C1431 C 0.93947 0.44108 0.6796 0.0
C1432 C 0.88519 0.40404 0.66174 0.0
C1433 C 0.85887 0.37059 0.6534 0.0
C1434 C 0.84252 0.36642 0.63018 0.0
C1435 C 0.81825 0.33479 0.62218 0.0
C1436 C 0.81002 0.30714 0.63729 0.0
C1437 C 0.82592 0.31107 0.66051 0.0
C1438 C 0.85013 0.34265 0.66862 0.0
C1439 C 0.90714 0.54277 0.65234 0.0
C1440 C 0.87528 0.53754 0.65783 0.0
C1441 C 0.91583 0.51881 0.65829 0.0
C1442 C 0.89307 0.48901 0.67017 0.0
C1443 C 0.86188 0.48464 0.6771 0.0
C1444 C 0.85312 0.50869 0.67108 0.0
C1445 C 0.9007 0.46137 0.67265 0.0
C1446 C 0.8777 0.42979 0.66322 0.0
C1447 C 0.93145 0.46648 0.68207 0.0
C1448 C 0.9551 0.49758 0.69538 0.0
C1449 C 0.94432 0.50955 0.71565 0.0
C1450 C 0.9667 0.53858 0.72843 0.0
C1451 C 0.99999 0.5558 0.72121 0.0
C1452 C 1.01099 0.544 0.7012 0.0
C1453 C 0.98871 0.51498 0.68834 0.0
H1454 H 1.01729 0.57825 0.73114 0.0
H1455 H 0.79128 0.28267 0.63104 0.0
H1456 H 0.7086 0.60889 0.62953 0.0
H1457 H 0.6588 0.5554 0.63671 0.0
H1458 H 0.67722 0.56703 0.71713 0.0
H1459 H 0.72588 0.6216 0.71 0.0
H1460 H 0.66793 0.50958 0.70307 0.0
H1461 H 0.60805 0.56518 0.69039 0.0
H1462 H 0.59207 0.60262 0.67001 0.0
H1463 H 0.56276 0.54191 0.60303 0.0
H1464 H 0.57894 0.50425 0.62283 0.0
H1465 H 0.48814 0.35525 0.67605 0.0
H1466 H 0.52419 0.4133 0.68945 0.0
H1467 H 0.6091 0.41024 0.65999 0.0
H1468 H 0.57324 0.35252 0.647 0.0
H1469 H 0.55916 0.46525 0.66034 0.0
H1470 H 0.67864 0.46276 0.6894 0.0
H1471 H 0.6935 0.42592 0.71223 0.0
H1472 H 0.60083 0.38223 0.75214 0.0
H1473 H 0.58559 0.41911 0.72982 0.0
C1474 C 0.70115 0.60067 0.64884 0.0
C1475 C 0.72133 0.61931 0.6692 0.0
C1476 C 0.67267 0.56998 0.65295 0.0
C1477 C 0.66378 0.55707 0.67756 0.0
C1478 C 0.683 0.57656 0.69805 0.0
C1479 C 0.71106 0.60774 0.69395 0.0
C1480 C 0.63667 0.52204 0.6813 0.0
C1481 C 0.64403 0.49999 0.69394 0.0
C1482 C 0.60501 0.50945 0.67007 0.0
C1483 C 0.59478 0.53182 0.65814 0.0
C1484 C 0.59831 0.55981 0.67128 0.0
C1485 C 0.58923 0.58111 0.65982 0.0
C1486 C 0.57644 0.57467 0.63524 0.0
C1487 C 0.57263 0.54685 0.62208 0.0
C1488 C 0.58169 0.52546 0.63344 0.0
C1489 C 0.51466 0.36677 0.67332 0.0
C1490 C 0.52809 0.34932 0.661 0.0
C1491 C 0.53521 0.40001 0.6807 0.0
C1492 C 0.56954 0.41628 0.67596 0.0
C1493 C 0.58293 0.39827 0.66441 0.0
C1494 C 0.56244 0.36522 0.65701 0.0
C1495 C 0.59119 0.45266 0.68092 0.0
C1496 C 0.5828 0.47495 0.6699 0.0
C1497 C 0.62169 0.46557 0.69403 0.0
C1498 C 0.6309 0.44361 0.70781 0.0
C1499 C 0.66151 0.44545 0.70316 0.0
C1500 C 0.66998 0.42451 0.71599 0.0
C1501 C 0.64809 0.4017 0.73359 0.0
C1502 C 0.61772 0.39984 0.73845 0.0
C1503 C 0.60913 0.42072 0.72569 0.0
H1504 H 0.65469 0.38549 0.74347 0.0
H1505 H 0.56946 0.59122 0.6264 0.0
H1506 H 0.83215 0.90321 0.73702 0.0
H1507 H 0.86058 0.96362 0.73334 0.0
H1508 H 0.84514 0.95436 0.65246 0.0
H1509 H 0.81794 0.89364 0.65611 0.0
H1510 H 0.90199 1.00647 0.6609 0.0
H1511 H 0.79463 0.96915 0.69475 0.0
H1512 H 0.74684 0.93946 0.72338 0.0
H1513 H 0.80629 0.9967 0.78643 0.0
H1514 H 0.8546 0.0264 0.75824 0.0
H1515 H 0.92117 0.16965 0.64936 0.0
H1516 H 0.89973 0.10952 0.6494 0.0
H1517 H 0.92876 0.11511 0.72759 0.0
H1518 H 0.9501 0.17516 0.72756 0.0
H1519 H 0.86492 0.06528 0.71931 0.0
H1520 H 0.97195 0.10332 0.68189 0.0
H1521 H 1.01645 0.13412 0.65081 0.0
H1522 H 0.95142 0.07623 0.59034 0.0
H1523 H 0.90636 0.04538 0.62105 0.0
C1524 C 0.83527 0.91413 0.71842 0.0
C1525 C 0.82273 0.89376 0.69687 0.0
C1526 C 0.85127 0.9487 0.71632 0.0
C1527 C 0.85426 0.96383 0.69269 0.0
C1528 C 0.84303 0.94349 0.67095 0.0
C1529 C 0.82753 0.90878 0.67301 0.0
C1530 C 0.86811 1.0006 0.69098 0.0
C1531 C 0.89335 0.01917 0.67336 0.0
C1532 C 0.85728 0.01762 0.70732 0.0
C1533 C 0.82834 0.99973 0.72441 0.0
C1534 C 0.79759 0.97521 0.71476 0.0
C1535 C 0.7704 0.95841 0.7309 0.0
C1536 C 0.77356 0.96612 0.75672 0.0
C1537 C 0.8039 0.99071 0.76644 0.0
C1538 C 0.8312 1.00754 0.75038 0.0
C1539 C 0.92289 0.15797 0.66654 0.0
C1540 C 0.93636 0.17683 0.68871 0.0
C1541 C 0.91091 0.12367 0.66649 0.0
C1542 C 0.91258 0.10768 0.68852 0.0
C1543 C 0.92702 0.12678 0.71041 0.0
C1544 C 0.93924 0.16107 0.71038 0.0
C1545 C 0.89833 0.07094 0.68911 0.0
C1546 C 0.87311 0.05244 0.70661 0.0
C1547 C 0.90852 0.05404 0.6722 0.0
C1548 C 0.93569 0.07225 0.65375 0.0
C1549 C 0.96707 0.09732 0.66195 0.0
C1550 C 0.9924 0.11476 0.6444 0.0
C1551 C 0.98674 0.10719 0.61861 0.0
C1552 C 0.95576 0.08209 0.61032 0.0
C1553 C 0.93032 0.06459 0.62779 0.0
H1554 H 1.00638 0.12074 0.60505 0.0
H1555 H 0.75246 0.9531 0.76919 0.0
H1556 H 0.88618 0.76117 0.64544 0.0
H1557 H 0.94408 0.80198 0.63821 0.0
H1558 H 0.96649 0.7909 0.71575 0.0
H1559 H 0.90766 0.75507 0.7238 0.0
H1560 H 0.99886 0.84759 0.70961 0.0
H1561 H 1.01449 0.77056 0.64117 0.0
H1562 H 0.99973 0.74004 0.60043 0.0
H1563 H 0.97645 0.81076 0.56882 0.0
H1564 H 0.99304 0.84269 0.60887 0.0
H1565 H 0.1715 0.88381 0.66307 0.0
H1566 H 0.1113 0.85177 0.6612 0.0
H1567 H 0.10613 0.93881 0.68214 0.0
H1568 H 0.16669 0.97077 0.68542 0.0
H1569 H 0.06541 0.85267 0.63476 0.0
H1570 H 0.03479 0.91557 0.71556 0.0
H1571 H 0.06004 0.94812 0.75445 0.0
H1572 H 0.11883 0.90123 0.76265 0.0
H1573 H 0.09365 0.86816 0.724 0.0
C1574 C 0.90373 0.76729 0.66078 0.0
C1575 C 0.89254 0.75434 0.68508 0.0
C1576 C 0.93736 0.79038 0.65651 0.0
C1577 C 0.96101 0.79967 0.67608 0.0
C1578 C 0.94947 0.78516 0.70011 0.0
C1579 C 0.9157 0.76397 0.70473 0.0
C1580 C 0.99705 0.82593 0.67286 0.0
C1581 C 1.0131 0.84814 0.69316 0.0
C1582 C 1.01653 0.82868 0.65121 0.0
C1583 C 1.00324 0.80789 0.62832 0.0
C1584 C 1.00548 0.77908 0.62567 0.0
C1585 C 0.99729 0.76185 0.60262 0.0
C1586 C 0.98628 0.77292 0.58229 0.0
C1587 C 0.98442 0.80185 0.58471 0.0
C1588 C 0.99356 0.81971 0.60746 0.0
C1589 C 0.15766 0.89621 0.66751 0.0
C1590 C 0.17412 0.92982 0.67489 0.0
C1591 C 0.12309 0.87785 0.66614 0.0
C1592 C 0.10387 0.89255 0.67194 0.0
C1593 C 0.12022 0.92658 0.67808 0.0
C1594 C 0.15496 0.94498 0.67966 0.0
C1595 C 0.06688 0.87164 0.67223 0.0
C1596 C 0.05082 0.85134 0.65124 0.0
C1597 C 0.04752 0.87019 0.69339 0.0
C1598 C 0.06265 0.88975 0.71674 0.0
C1599 C 0.05307 0.9122 0.72571 0.0
C1600 C 0.06736 0.93072 0.7477 0.0
C1601 C 0.09112 0.92684 0.76095 0.0
C1602 C 0.10053 0.90431 0.75231 0.0
C1603 C 0.08628 0.8857 0.73035 0.0
H1604 H 0.10217 0.94122 0.77796 0.0
H1605 H 0.97967 0.75934 0.56456 0.0
H1606 H 0.30126 0.13814 0.64072 0.0
H1607 H 0.26114 0.15601 0.63373 0.0
H1608 H 0.26711 0.1827 0.71288 0.0
H1609 H 0.30237 0.15881 0.72035 0.0
H1610 H 0.21084 0.15921 0.70429 0.0
H1611 H 0.29206 0.2574 0.64077 0.0
H1612 H 0.32422 0.27574 0.60094 0.0
H1613 H 0.25545 0.18367 0.56523 0.0
H1614 H 0.22183 0.16584 0.60432 0.0
H1615 H 0.16156 0.28042 0.70508 0.0
H1616 H 0.19077 0.24903 0.70486 0.0
H1617 H 0.14515 0.20421 0.6335 0.0
H1618 H 0.11593 0.23592 0.63354 0.0
H1619 H 0.21123 0.22752 0.63253 0.0
H1620 H 0.12183 0.15769 0.6859 0.0
H1621 H 0.08243 0.14301 0.72133 0.0
H1622 H 0.16267 0.17881 0.77456 0.0
H1623 H 0.20265 0.19418 0.73943 0.0
C1624 C 0.29421 0.14826 0.6565 0.0
C1625 C 0.30562 0.14788 0.68101 0.0
C1626 C 0.27153 0.15931 0.65239 0.0
C1627 C 0.2611 0.17213 0.67243 0.0
C1628 C 0.27388 0.17278 0.69681 0.0
C1629 C 0.29469 0.15965 0.70115 0.0
C1630 C 0.23531 0.18253 0.66919 0.0
C1631 C 0.21182 0.17482 0.68875 0.0
C1632 C 0.23371 0.20069 0.6481 0.0
C1633 C 0.25559 0.20959 0.6258 0.0
C1634 C 0.28434 0.24082 0.62457 0.0
C1635 C 0.3025 0.25131 0.60205 0.0
C1636 C 0.29246 0.2305 0.58082 0.0
C1637 C 0.26358 0.19954 0.58181 0.0
C1638 C 0.24477 0.18941 0.60403 0.0
C1639 C 0.15764 0.2638 0.68936 0.0
C1640 C 0.13653 0.26082 0.66925 0.0
C1641 C 0.17416 0.24563 0.68936 0.0
C1642 C 0.17006 0.22404 0.66924 0.0
C1643 C 0.14866 0.22063 0.64927 0.0
C1644 C 0.13183 0.23862 0.64938 0.0
C1645 C 0.18963 0.20661 0.66859 0.0
C1646 C 0.21112 0.21243 0.6482 0.0
C1647 C 0.18925 0.18659 0.68877 0.0
C1648 C 0.16528 0.17732 0.70999 0.0
C1649 C 0.13112 0.16268 0.70515 0.0
C1650 C 0.10867 0.15419 0.72518 0.0
C1651 C 0.12004 0.16003 0.75017 0.0
C1652 C 0.1539 0.17432 0.75518 0.0
C1653 C 0.17646 0.18289 0.73522 0.0
H1654 H 0.10262 0.15343 0.76566 0.0
H1655 H 0.30676 0.23859 0.5635 0.0
H1656 H 0.1943 0.42368 0.2709 0.0
H1657 H 0.19114 0.44916 0.2308 0.0
H1658 H 0.08668 0.37831 0.22599 0.0
H1659 H 0.08951 0.35384 0.26619 0.0
H1660 H 0.12815 0.3904 0.1789 0.0
H1661 H 0.10047 0.44468 0.24628 0.0
H1662 H 0.11392 0.47684 0.28607 0.0
H1663 H 0.20036 0.5566 0.25135 0.0
H1664 H 0.18768 0.5246 0.21144 0.0
H1665 H 0.02886 0.43176 0.10892 0.0
H1666 H 0.05515 0.42701 0.1471 0.0
H1667 H 0.15035 0.502 0.11927 0.0
H1668 H 0.12398 0.50583 0.07984 0.0
H1669 H 0.12794 0.49699 0.18056 0.0
H1670 H 0.14811 0.44465 0.10976 0.0
H1671 H 0.13374 0.41023 0.07129 0.0
H1672 H 0.065 0.32477 0.11365 0.0
H1673 H 0.07646 0.35921 0.15191 0.0
C1674 C 0.17088 0.41325 0.26094 0.0
C1675 C 0.14218 0.38662 0.27146 0.0
C1676 C 0.16903 0.42797 0.23821 0.0
C1677 C 0.13861 0.41573 0.22547 0.0
C1678 C 0.11038 0.38819 0.23547 0.0
C1679 C 0.11204 0.37414 0.25838 0.0
C1680 C 0.13536 0.43158 0.20198 0.0
C1681 C 0.12836 0.41383 0.17919 0.0
C1682 C 0.1363 0.4625 0.20229 0.0
C1683 C 0.14334 0.48212 0.22598 0.0
C1684 C 0.12248 0.46898 0.24718 0.0
C1685 C 0.12993 0.48718 0.26975 0.0
C1686 C 0.15802 0.51871 0.27126 0.0
C1687 C 0.17863 0.53215 0.25016 0.0
C1688 C 0.17131 0.514 0.22756 0.0
C1689 C 0.05539 0.44743 0.11077 0.0
C1690 C 0.07434 0.46847 0.09086 0.0
C1691 C 0.07036 0.44494 0.13287 0.0
C1692 C 0.10475 0.46386 0.13605 0.0
C1693 C 0.1237 0.48714 0.11725 0.0
C1694 C 0.10862 0.48932 0.09472 0.0
C1695 C 0.12019 0.45542 0.15743 0.0
C1696 C 0.12887 0.47417 0.17996 0.0
C1697 C 0.1209 0.42532 0.15697 0.0
C1698 C 0.11279 0.40474 0.13368 0.0
C1699 C 0.12907 0.41879 0.11073 0.0
C1700 C 0.12134 0.3993 0.08891 0.0
C1701 C 0.09849 0.36544 0.09 0.0
C1702 C 0.08255 0.35109 0.11276 0.0
C1703 C 0.08935 0.37067 0.13448 0.0
H1704 H 0.09367 0.35028 0.07327 0.0
H1705 H 0.16377 0.53275 0.28876 0.0
H1706 H 0.71438 0.76861 0.25122 0.0
H1707 H 0.69145 0.74406 0.20965 0.0
H1708 H 0.6038 0.74984 0.22607 0.0
H1709 H 0.6273 0.77547 0.26739 0.0
H1710 H 0.59296 0.68404 0.21327 0.0
H1711 H 0.64739 0.79499 0.18035 0.0
H1712 H 0.69441 0.85117 0.17262 0.0
H1713 H 0.74724 0.80959 0.13502 0.0
H1714 H 0.70064 0.75314 0.1427 0.0
H1715 H 0.55991 0.64864 0.06723 0.0
H1716 H 0.57116 0.68343 0.1053 0.0
H1717 H 0.60973 0.62788 0.14298 0.0
H1718 H 0.59957 0.59398 0.10492 0.0
H1719 H 0.63857 0.72262 0.12716 0.0
H1720 H 0.58722 0.62524 0.20679 0.0
H1721 H 0.54118 0.56836 0.21401 0.0
H1722 H 0.48264 0.58254 0.15814 0.0
H1723 H 0.52812 0.63968 0.15086 0.0
C1724 C 0.69087 0.76598 0.24544 0.0
C1725 C 0.67299 0.77474 0.2622 0.0
C1726 C 0.67765 0.7517 0.22178 0.0
C1727 C 0.64587 0.74507 0.21466 0.0
C1728 C 0.62843 0.75488 0.23105 0.0
C1729 C 0.64201 0.76987 0.25451 0.0
C1730 C 0.62974 0.7249 0.19144 0.0
C1731 C 0.60275 0.69263 0.19442 0.0
C1732 C 0.64248 0.73595 0.1668 0.0
C1733 C 0.67065 0.76983 0.16234 0.0
C1734 C 0.66917 0.79781 0.17065 0.0
C1735 C 0.6957 0.82971 0.1662 0.0
C1736 C 0.72383 0.83394 0.1534 0.0
C1737 C 0.72547 0.80628 0.14499 0.0
C1738 C 0.69897 0.77433 0.14933 0.0
C1739 C 0.56992 0.64328 0.08388 0.0
C1740 C 0.57904 0.61868 0.08301 0.0
C1741 C 0.57667 0.6634 0.10554 0.0
C1742 C 0.59152 0.65844 0.12698 0.0
C1743 C 0.59825 0.63222 0.12674 0.0
C1744 C 0.59225 0.61272 0.105 0.0
C1745 C 0.6021 0.68165 0.14909 0.0
C1746 C 0.62837 0.71429 0.14595 0.0
C1747 C 0.58895 0.67083 0.17365 0.0
C1748 C 0.56121 0.63667 0.17815 0.0
C1749 C 0.56446 0.61629 0.19614 0.0
C1750 C 0.53847 0.58398 0.20023 0.0
C1751 C 0.50904 0.57181 0.18649 0.0
C1752 C 0.5055 0.59196 0.1687 0.0
C1753 C 0.5314 0.62429 0.16456 0.0
H1754 H 0.48895 0.54679 0.18967 0.0
H1755 H 0.74433 0.85866 0.14995 0.0
H1756 H 0.37984 0.98751 0.07046 0.0
H1757 H 0.35438 0.96878 0.1116 0.0
H1758 H 0.4321 0.94909 0.13305 0.0
H1759 H 0.4588 0.96927 0.09129 0.0
H1760 H 0.36615 0.89878 0.14907 0.0
H1761 H 0.43726 1.01451 0.15693 0.0
H1762 H 0.46453 0.07458 0.14874 0.0
H1763 H 0.37066 0.07071 0.15336 0.0
H1764 H 0.34269 1.01046 0.16114 0.0
H1765 H 0.32983 0.90045 0.28204 0.0
H1766 H 0.35478 0.90816 0.24006 0.0
H1767 H 0.28286 0.9314 0.21001 0.0
H1768 H 0.25736 0.92326 0.25219 0.0
H1769 H 0.34934 0.97936 0.19964 0.0
H1770 H 0.27932 0.86105 0.19301 0.0
H1771 H 0.25636 0.80318 0.20702 0.0
H1772 H 0.35336 0.81394 0.20409 0.0
H1773 H 0.37701 0.87208 0.19044 0.0
C1774 C 0.39195 0.97963 0.08387 0.0
C1775 C 0.42201 0.98096 0.07771 0.0
C1776 C 0.37709 0.96861 0.10746 0.0
C1777 C 0.39156 0.95812 0.12572 0.0
C1778 C 0.42059 0.95735 0.11931 0.0
C1779 C 0.43579 0.96878 0.09544 0.0
C1780 C 0.37631 0.94921 0.1515 0.0
C1781 C 0.36298 0.91655 0.16034 0.0
C1782 C 0.37159 0.97216 0.16612 0.0
C1783 C 0.38784 1.00788 0.15948 0.0
C1784 C 0.42234 0.02633 0.1558 0.0
C1785 C 0.43795 0.06047 0.1514 0.0
C1786 C 0.41937 0.07648 0.1508 0.0
C1787 C 0.38504 0.0583 0.15407 0.0
C1788 C 0.36929 0.02415 0.15842 0.0
C1789 C 0.31891 0.90666 0.26641 0.0
C1790 C 0.2916 0.91131 0.27048 0.0
C1791 C 0.33318 0.91093 0.24237 0.0
C1792 C 0.32073 0.92029 0.22179 0.0
C1793 C 0.29285 0.92406 0.22559 0.0
C1794 C 0.27817 0.91924 0.24965 0.0
C1795 C 0.33855 0.92883 0.19698 0.0
C1796 C 0.35244 0.96155 0.18835 0.0
C1797 C 0.34421 0.90608 0.18291 0.0
C1798 C 0.32999 0.87105 0.19094 0.0
C1799 C 0.29581 0.85118 0.19557 0.0
C1800 C 0.28266 0.8183 0.2034 0.0
C1801 C 0.3034 0.80491 0.20651 0.0
C1802 C 0.33733 0.82436 0.20171 0.0
C1803 C 0.35061 0.85727 0.1939 0.0
H1804 H 0.29317 0.77946 0.21258 0.0
H1805 H 0.43155 0.10297 0.14763 0.0
H1806 H 0.50473 0.10819 0.94406 0.0
H1807 H 0.50128 0.1318 0.90357 0.0
H1808 H 0.45324 0.03403 0.87002 0.0
H1809 H 0.45732 1.01052 0.91061 0.0
H1810 H 0.49294 0.08097 0.83548 0.0
H1811 H 0.4082 0.06555 0.89525 0.0
H1812 H 0.38723 0.07277 0.93636 0.0
H1813 H 0.43867 0.17833 0.92576 0.0
H1814 H 0.46041 0.17179 0.88474 0.0
H1815 H 0.3662 0.1137 0.76686 0.0
H1816 H 0.38847 0.10465 0.80568 0.0
H1817 H 0.48727 0.15905 0.77471 0.0
H1818 H 0.46442 0.16677 0.73493 0.0
H1819 H 0.4272 0.1379 0.84181 0.0
H1820 H 0.53361 0.12385 0.79995 0.0
H1821 H 0.55186 0.11151 0.75954 0.0
H1822 H 0.45129 0.05838 0.73354 0.0
H1823 H 0.43208 0.0693 0.77418 0.0
C1824 C 0.49469 0.09198 0.92772 0.0
C1825 C 0.48189 0.05767 0.93023 0.0
C1826 C 0.49235 0.10542 0.90466 0.0
C1827 C 0.47648 0.08469 0.88376 0.0
C1828 C 0.46563 0.05059 0.8858 0.0
C1829 C 0.46815 0.03715 0.90892 0.0
C1830 C 0.46829 0.09796 0.86081 0.0
C1831 C 0.47878 0.09365 0.83685 0.0
C1832 C 0.4495 0.11425 0.86248 0.0
C1833 C 0.43613 0.1182 0.887 0.0
C1834 C 0.4152 0.09032 0.90175 0.0
C1835 C 0.40317 0.09429 0.92502 0.0
C1836 C 0.41158 0.12599 0.93362 0.0
C1837 C 0.43215 0.1538 0.91903 0.0
C1838 C 0.44432 0.14998 0.89577 0.0
C1839 C 0.39274 0.12413 0.76839 0.0
C1840 C 0.41346 0.14067 0.74771 0.0
C1841 C 0.40554 0.11905 0.79074 0.0
C1842 C 0.43959 0.13053 0.79321 0.0
C1843 C 0.46082 0.1493 0.77323 0.0
C1844 C 0.44784 0.15422 0.75061 0.0
C1845 C 0.4518 0.12096 0.81619 0.0
C1846 C 0.4419 0.1258 0.84031 0.0
C1847 C 0.47068 0.1047 0.81458 0.0
C1848 C 0.4815 0.09773 0.79003 0.0
C1849 C 0.51532 0.10932 0.78567 0.0
C1850 C 0.52578 0.10238 0.76279 0.0
C1851 C 0.5026 0.08376 0.74413 0.0
C1852 C 0.46898 0.07229 0.74823 0.0
C1853 C 0.45831 0.07888 0.77116 0.0
H1854 H 0.51063 0.07838 0.72641 0.0
H1855 H 0.40204 0.12902 0.95152 0.0
H1856 H 0.95801 0.38859 0.95084 0.0
H1857 H 0.94206 0.36459 0.90877 0.0
H1858 H 0.03291 0.44415 0.87824 0.0
H1859 H 0.04922 0.46891 0.92098 0.0
H1860 H 0.97781 0.42475 0.84562 0.0
H1861 H 0.02952 0.37178 0.88843 0.0
H1862 H 0.03938 0.34409 0.92424 0.0
H1863 H 0.93786 0.2658 0.92166 0.0
H1864 H 0.92746 0.29302 0.88562 0.0
H1865 H 0.98651 0.34414 0.7356 0.0
H1866 H 0.99426 0.37215 0.77578 0.0
H1867 H 0.90614 0.28733 0.80481 0.0
H1868 H 0.89893 0.25813 0.76406 0.0
H1869 H 0.95702 0.30944 0.83827 0.0
H1870 H 0.90848 0.36089 0.79018 0.0
H1871 H 0.90205 0.38893 0.75292 0.0
H1872 H 0.99993 0.47158 0.76449 0.0
H1873 H 1.00727 0.44376 0.80153 0.0
C1874 C 0.97473 0.40129 0.93527 0.0
C1875 C 1.00527 0.43048 0.93946 0.0
C1876 C 0.96544 0.38743 0.91111 0.0
C1877 C 0.98649 0.40207 0.89031 0.0
C1878 C 1.01629 0.43226 0.89402 0.0
C1879 C 0.02561 0.4464 0.91843 0.0
C1880 C 0.97779 0.38437 0.86534 0.0
C1881 C 0.97365 0.39971 0.8439 0.0
C1882 C 0.9715 0.35133 0.86313 0.0
C1883 C 0.97766 0.33456 0.88451 0.0
C1884 C 1.00927 0.34873 0.89559 0.0
C1885 C 1.01495 0.33312 0.91592 0.0
C1886 C 0.98921 0.30333 0.92539 0.0
C1887 C 0.95777 0.28893 0.91435 0.0
C1888 C 0.95199 0.30436 0.8939 0.0
C1889 C 0.96876 0.33112 0.75045 0.0
C1890 C 0.94243 0.29852 0.74665 0.0
C1891 C 0.97299 0.34753 0.77346 0.0
C1892 C 0.95065 0.33219 0.79342 0.0
C1893 C 0.9237 0.29981 0.78966 0.0
C1894 C 0.91945 0.28318 0.76636 0.0
C1895 C 0.95697 0.3497 0.81838 0.0
C1896 C 0.96079 0.33435 0.8399 0.0
C1897 C 0.96318 0.38281 0.82049 0.0
C1898 C 0.95849 0.40009 0.79861 0.0
C1899 C 0.92872 0.38497 0.78473 0.0
C1900 C 0.92491 0.40083 0.76362 0.0
C1901 C 0.95058 0.432 0.75632 0.0
C1902 C 0.98007 0.44742 0.77016 0.0
C1903 C 0.98406 0.43163 0.79124 0.0
H1904 H 0.9476 0.44421 0.73997 0.0
H1905 H 0.99365 0.29135 0.94121 0.0
H1906 H 0.74983 0.59425 0.73819 0.0
H1907 H 0.71783 0.57012 0.77728 0.0
H1908 H 0.76623 0.66719 0.8121 0.0
H1909 H 0.79862 0.69067 0.77389 0.0
H1910 H 0.75929 0.62404 0.84588 0.0
H1911 H 0.68378 0.62533 0.77969 0.0
H1912 H 0.65094 0.60561 0.74019 0.0
H1913 H 0.60557 0.50515 0.76626 0.0
H1914 H 0.63811 0.52407 0.80576 0.0
H1915 H 0.66384 0.64156 0.93696 0.0
H1916 H 0.6909 0.64294 0.89719 0.0
H1917 H 0.62214 0.53867 0.88581 0.0
H1918 H 0.59393 0.53749 0.92577 0.0
H1919 H 0.63683 0.56989 0.84119 0.0
H1920 H 0.70035 0.56474 0.90805 0.0
H1921 H 0.72814 0.57888 0.94964 0.0
H1922 H 0.79522 0.67769 0.92389 0.0
H1923 H 0.76743 0.6644 0.88229 0.0
C1924 C 0.75429 0.61015 0.7545 0.0
C1925 C 0.77658 0.6445 0.75282 0.0
C1926 C 0.73556 0.59644 0.77674 0.0
C1927 C 0.73884 0.61687 0.79766 0.0
C1928 C 0.76281 0.65071 0.79638 0.0
C1929 C 0.7814 0.66423 0.7744 0.0
C1930 C 0.71723 0.60428 0.82079 0.0
C1931 C 0.73252 0.61228 0.84476 0.0
C1932 C 0.68205 0.58718 0.81974 0.0
C1933 C 0.66353 0.57609 0.79557 0.0
C1934 C 0.66691 0.59905 0.77693 0.0
C1935 C 0.6482 0.58806 0.75465 0.0
C1936 C 0.62603 0.55427 0.75087 0.0
C1937 C 0.62263 0.53133 0.76927 0.0
C1938 C 0.64115 0.54216 0.79159 0.0
C1939 C 0.65416 0.61892 0.92594 0.0
C1940 C 0.62695 0.58933 0.93471 0.0
C1941 C 0.66984 0.61969 0.90318 0.0
C1942 C 0.65939 0.59069 0.88874 0.0
C1943 C 0.631 0.56134 0.89669 0.0
C1944 C 0.61482 0.56068 0.91948 0.0
C1945 C 0.67914 0.59159 0.86597 0.0
C1946 C 0.66356 0.58121 0.84229 0.0
C1947 C 0.71403 0.60566 0.86727 0.0
C1948 C 0.73166 0.61358 0.89202 0.0
C1949 C 0.72096 0.58954 0.91126 0.0
C1950 C 0.73669 0.5974 0.93486 0.0
C1951 C 0.7634 0.62916 0.93941 0.0
C1952 C 0.77452 0.65308 0.92033 0.0
C1953 C 0.75881 0.64538 0.89671 0.0
H1954 H 0.77549 0.63522 0.95772 0.0
H1955 H 0.61168 0.54583 0.73359 0.0
H1956 H 0.68448 0.75221 0.43058 0.0
H1957 H 0.70631 0.74509 0.47065 0.0
H1958 H 0.80587 0.81218 0.44527 0.0
H1959 H 0.78379 0.81954 0.40485 0.0
H1960 H 0.79544 0.7497 0.46678 0.0
H1961 H 0.77831 0.83992 0.48865 0.0
H1962 H 0.74694 0.86962 0.49096 0.0
H1963 H 0.67209 0.79111 0.53588 0.0
H1964 H 0.70275 0.76066 0.5335 0.0
H1965 H 0.85 0.73519 0.59254 0.0
H1966 H 0.84321 0.75506 0.55106 0.0
H1967 H 0.73965 0.71735 0.56741 0.0
H1968 H 0.74678 0.69918 0.60882 0.0
H1969 H 0.76174 0.77451 0.54948 0.0
H1970 H 0.77324 0.68078 0.52332 0.0
H1971 H 0.8018 0.64832 0.52007 0.0
H1972 H 0.884 0.72985 0.4828 0.0
H1973 H 0.85609 0.76296 0.48613 0.0
C1974 C 0.711 0.76583 0.43368 0.0
C1975 C 0.73241 0.7867 0.41474 0.0
C1976 C 0.72347 0.76171 0.45658 0.0
C1977 C 0.75775 0.77808 0.46106 0.0
C1978 C 0.77933 0.79931 0.44226 0.0
C1979 C 0.76672 0.80385 0.41935 0.0
C1980 C 0.77043 0.77228 0.48535 0.0
C1981 C 0.78868 0.75569 0.48492 0.0
C1982 C 0.76109 0.77947 0.50901 0.0
C1983 C 0.74276 0.79791 0.51076 0.0
C1984 C 0.75505 0.82887 0.49888 0.0
C1985 C 0.73741 0.84586 0.50022 0.0
C1986 C 0.70751 0.83224 0.51353 0.0
C1987 C 0.69525 0.80163 0.52557 0.0
C1988 C 0.71278 0.78452 0.52426 0.0
C1989 C 0.82577 0.73089 0.58705 0.0
C1990 C 0.79898 0.71577 0.60401 0.0
C1991 C 0.82184 0.74221 0.5633 0.0
C1992 C 0.79081 0.7378 0.55582 0.0
C1993 C 0.76395 0.72159 0.57259 0.0
C1994 C 0.76803 0.711 0.59633 0.0
C1995 C 0.78581 0.75067 0.53114 0.0
C1996 C 0.76898 0.76875 0.53145 0.0
C1997 C 0.79612 0.74443 0.50741 0.0
C1998 C 0.81277 0.72447 0.50526 0.0
C1999 C 0.79751 0.69186 0.5146 0.0
C2000 C 0.81357 0.67334 0.51272 0.0
C2001 C 0.84475 0.68706 0.50132 0.0
C2002 C 0.85988 0.71929 0.49168 0.0
C2003 C 0.84396 0.73793 0.49355 0.0
H2004 H 0.85714 0.67269 0.49989 0.0
H2005 H 0.69388 0.84542 0.51453 0.0
H2006 H 0.22413 0.97219 0.40264 0.0
H2007 H 0.23115 1.00573 0.44077 0.0
H2008 H 0.28201 0.96114 0.47745 0.0
H2009 H 0.27325 0.92669 0.44046 0.0
H2010 H 0.24662 0.96714 0.51048 0.0
H2011 H 0.32388 0.0516 0.44542 0.0
H2012 H 0.33415 0.08492 0.40651 0.0
H2013 H 0.26087 0.10983 0.42936 0.0
H2014 H 0.2506 0.0773 0.46854 0.0
H2015 H 0.36191 0.06812 0.5969 0.0
H2016 H 0.33555 0.04098 0.55729 0.0
H2017 H 0.29035 0.10211 0.55191 0.0
H2018 H 0.31778 0.13031 0.59182 0.0
H2019 H 0.30733 0.08994 0.50478 0.0
H2020 H 0.24445 0.02474 0.57322 0.0
H2021 H 0.23418 0.99759 0.61484 0.0
H2022 H 0.27142 0.9355 0.58728 0.0
H2023 H 0.28245 0.96266 0.54555 0.0
C2024 C 0.23609 0.96908 0.41912 0.0
C2025 C 0.24859 0.94708 0.41831 0.0
C2026 C 0.2407 0.98876 0.44081 0.0
C2027 C 0.25802 0.9869 0.46205 0.0
C2028 C 0.26874 0.96351 0.46152 0.0
C2029 C 0.26384 0.94378 0.44016 0.0
C2030 C 0.26569 1.00879 0.48501 0.0
C2031 C 0.26003 0.99398 0.50908 0.0
C2032 C 0.28123 0.04393 0.48379 0.0
C2033 C 0.28631 0.06185 0.45968 0.0
C2034 C 0.30991 0.06408 0.44203 0.0
C2035 C 0.31593 0.08303 0.42009 0.0
C2036 C 0.2983 0.09951 0.41554 0.0
C2037 C 0.27457 0.09712 0.43292 0.0
C2038 C 0.26875 0.07858 0.45503 0.0
C2039 C 0.34679 0.07625 0.58714 0.0
C2040 C 0.34166 0.10114 0.59762 0.0
C2041 C 0.33154 0.06053 0.5645 0.0
C2042 C 0.31009 0.0687 0.5519 0.0
C2043 C 0.3065 0.09509 0.56139 0.0
C2044 C 0.32227 0.11129 0.58412 0.0
C2045 C 0.29062 0.04811 0.52971 0.0
C2046 C 0.29362 0.06309 0.50609 0.0
C2047 C 0.27181 1.01305 0.53136 0.0
C2048 C 0.2644 0.99587 0.55623 0.0
C2049 C 0.25058 1.00538 0.57604 0.0
C2050 C 0.24464 0.99 0.59968 0.0
C2051 C 0.25218 0.96486 0.60373 0.0
C2052 C 0.26557 0.95497 0.58411 0.0
C2053 C 0.27163 0.97032 0.56043 0.0
H2054 H 0.24761 0.95302 0.62206 0.0
H2055 H 0.30293 0.11401 0.39848 0.0
H2056 H 0.94991 0.28634 0.58361 0.0
H2057 H 0.97557 0.28859 0.54244 0.0
H2058 H 0.98082 0.20148 0.562 0.0
H2059 H 0.95431 0.19878 0.60296 0.0
H2060 H 0.04246 0.25669 0.54832 0.0
H2061 H 0.93228 0.19532 0.51535 0.0
H2062 H 0.87515 0.18295 0.50715 0.0
H2063 H 0.91223 0.27494 0.46715 0.0
H2064 H 0.96961 0.28815 0.47548 0.0
H2065 H 0.07928 0.2597 0.4021 0.0
H2066 H 0.04444 0.23516 0.43989 0.0
H2067 H 0.09759 0.32926 0.4786 0.0
H2068 H 0.13158 0.35387 0.44087 0.0
H2069 H 1.00339 0.26 0.46164 0.0
H2070 H 0.09982 0.31104 0.54234 0.0
H2071 H 0.15736 0.32448 0.55029 0.0
H2072 H 0.14746 0.25258 0.49454 0.0
H2073 H 0.0897 0.23832 0.48654 0.0
C2074 C 0.9551 0.26678 0.57857 0.0
C2075 C 0.94917 0.24178 0.59611 0.0
C2076 C 0.97007 0.26825 0.55514 0.0
C2077 C 0.98018 0.2452 0.54901 0.0
C2078 C 0.97312 0.21944 0.56618 0.0
C2079 C 0.95755 0.21762 0.58943 0.0
C2080 C 1.00096 0.25009 0.52601 0.0
C2081 C 0.03377 0.25711 0.52935 0.0
C2082 C 0.98977 0.25065 0.50118 0.0
C2083 C 0.95528 0.24286 0.49625 0.0
C2084 C 0.92827 0.21308 0.50503 0.0
C2085 C 0.89583 0.20588 0.50031 0.0
C2086 C 0.89006 0.22818 0.48669 0.0
C2087 C 0.91673 0.2577 0.47772 0.0
C2088 C 0.94922 0.26505 0.48243 0.0
C2089 C 0.0842 0.27478 0.41897 0.0
C2090 C 0.10838 0.30864 0.41861 0.0
C2091 C 0.06402 0.26087 0.44045 0.0
C2092 C 0.06831 0.28037 0.46213 0.0
C2093 C 0.09388 0.31362 0.46225 0.0
C2094 C 0.11348 0.32761 0.44072 0.0
C2095 C 0.04496 0.2671 0.48406 0.0
C2096 C 1.01184 0.25897 0.48056 0.0
C2097 C 0.05591 0.26577 0.5088 0.0
C2098 C 0.09049 0.27381 0.51371 0.0
C2099 C 0.10986 0.29797 0.53187 0.0
C2100 C 0.14253 0.30575 0.53637 0.0
C2101 C 0.15609 0.28946 0.52288 0.0
C2102 C 0.13696 0.26527 0.50491 0.0
C2103 C 0.10427 0.25736 0.50036 0.0
H2104 H 0.18139 0.29554 0.52637 0.0
H2105 H 0.86492 0.22254 0.48304 0.0
loop_
_geom_bond_atom_site_label_1
_geom_bond_atom_site_label_2
_geom_bond_distance
_geom_bond_site_symmetry_2
_ccdc_geom_bond_type
Eu0 N31 2.657 1_556 S
Eu0 N38 2.609 . S
Eu0 O44 2.558 . S
Eu0 O45 2.612 1_556 S
Eu0 O47 2.339 1_556 S
Eu0 O48 2.563 . S
Eu0 O49 2.419 1_556 S
Eu0 O51 2.380 1_456 S
Eu0 O52 2.432 . S
Eu0 C64 2.848 . S
C1 C4 1.429 . S
C1 C5 1.411 . S
C1 N8 1.377 . S
C2 C4 1.420 1_556 S
C2 C6 1.423 1_556 S
C2 C14 1.392 . S
C3 C5 1.420 . S
C3 C6 1.351 . S
C3 H26 0.931 . S
C4 C1 1.429 . S
C4 C2 1.420 1_554 S
C4 N12 1.362 1_554 S
C5 C1 1.411 . S
C5 C3 1.420 . S
C5 C10 1.395 . S
C6 C2 1.423 1_554 S
C6 C3 1.351 . S
C6 H18 0.930 . S
C7 C9 1.400 1_455 S
C7 C10 1.386 . S
C7 H19 0.930 1_455 S
N8 C1 1.377 . S
N8 C9 1.321 1_455 S
N8 Eu11 2.609 1_455 S
C9 C7 1.400 1_655 S
C9 N8 1.321 1_655 S
C9 H16 0.930 . S
C10 C5 1.395 . S
C10 C7 1.386 . S
C10 H29 0.930 . S
Eu11 N8 2.609 1_655 S
Eu11 N12 2.657 1_654 S
Eu11 O45 2.380 1_655 S
Eu11 O46 2.432 1_655 S
Eu11 O50 2.558 . S
Eu11 O51 2.612 . S
Eu11 O53 2.339 1_554 S
Eu11 O54 2.563 . S
Eu11 O55 2.419 1_554 S
Eu11 C75 2.848 . S
N12 C4 1.362 1_556 S
N12 Eu11 2.657 1_456 S
N12 C13 1.334 . S
C13 N12 1.334 . S
C13 C15 1.413 . S
C13 H20 0.929 . S
C14 C2 1.392 . S
C14 C15 1.367 . S
C14 H22 0.930 . S
C15 C13 1.413 . S
C15 C14 1.367 . S
C15 H17 0.930 . S
H16 C9 0.930 . S
H17 C15 0.930 . S
H18 C6 0.930 . S
H19 C7 0.930 1_655 S
H20 C13 0.929 . S
H21 C35 0.930 . S
H22 C14 0.930 . S
H23 C41 0.930 . S
H24 C32 0.929 1_455 S
H25 C39 0.930 . S
H26 C3 0.931 . S
H27 C33 0.930 . S
H28 C66 0.928 . S
H29 C10 0.930 . S
H30 C65 0.931 . S
N31 Eu0 2.657 1_554 S
N31 C32 1.334 1_455 S
N31 C36 1.358 1_454 S
C32 H24 0.929 1_655 S
C32 N31 1.334 1_655 S
C32 C35 1.413 . S
C33 H27 0.930 . S
C33 C34 1.392 . S
C33 C35 1.367 . S
C34 C33 1.392 . S
C34 C36 1.417 1_554 S
C34 C66 1.423 1_554 S
C35 H21 0.930 . S
C35 C32 1.413 . S
C35 C33 1.367 . S
C36 N31 1.358 1_656 S
C36 C34 1.417 1_556 S
C36 C40 1.436 1_655 S
H37 C42 0.930 1_655 S
N38 Eu0 2.609 . S
N38 C40 1.377 . S
N38 C41 1.321 . S
C39 H25 0.930 . S
C39 C41 1.400 . S
C39 C42 1.386 . S
C40 C36 1.436 1_455 S
C40 N38 1.377 . S
C40 C43 1.411 1_455 S
C41 H23 0.930 . S
C41 N38 1.321 . S
C41 C39 1.400 . S
C42 H37 0.930 1_455 S
C42 C39 1.386 . S
C42 C43 1.395 1_455 S
C43 C40 1.411 1_655 S
C43 C42 1.395 1_655 S
C43 C65 1.420 . S
O44 Eu0 2.558 . S
O44 C64 1.257 . S
O45 Eu0 2.612 1_554 S
O45 Eu11 2.380 1_455 S
O45 C56 1.267 1_554 S
O46 Eu11 2.432 1_455 S
O46 C63 1.264 . S
O47 Eu0 2.339 1_554 S
O47 C63 1.254 . S
O48 Eu0 2.563 . S
O48 C56 1.252 . S
O49 Eu0 2.419 1_554 S
O49 C64 1.249 1_554 S
O50 Eu11 2.558 . S
O50 C75 1.257 . S
O51 Eu0 2.380 1_654 S
O51 Eu11 2.612 . S
O51 C67 1.276 . S
O52 Eu0 2.432 . S
O52 C74 1.264 1_455 S
O53 Eu11 2.339 1_556 S
O53 C74 1.254 . S
O54 Eu11 2.563 . S
O54 C67 1.235 . S
O55 Eu11 2.419 1_556 S
O55 C75 1.249 1_556 S
C56 O45 1.267 1_556 S
C56 O48 1.252 . S
C57 C59 1.393 1_556 S
C57 C61 1.395 . S
C57 C64 1.492 . S
C58 C59 1.392 . S
C58 C60 1.386 1_554 S
C59 C57 1.393 1_554 S
C59 C58 1.392 . S
C59 H76 0.930 . S
C60 C58 1.386 1_556 S
C60 C62 1.395 . S
C60 H77 0.930 . S
C61 C57 1.395 . S
C61 C62 1.379 . S
C61 H78 0.930 . S
C62 C60 1.395 . S
C62 C61 1.379 . S
C62 H79 0.930 . S
C63 O46 1.264 . S
C63 O47 1.254 . S
C64 Eu0 2.848 . S
C64 O44 1.257 . S
C64 O49 1.249 1_556 S
C64 C57 1.492 . S
C65 H30 0.931 . S
C65 C43 1.420 . S
C65 C66 1.351 . S
C66 H28 0.928 . S
C66 C34 1.423 1_556 S
C66 C65 1.351 . S
C67 O51 1.276 . S
C67 O54 1.235 . S
C68 C69 1.393 1_554 S
C68 C72 1.395 . S
C68 C75 1.492 . S
C69 C68 1.393 1_556 S
C69 C70 1.394 . S
C69 H80 0.930 . S
C70 C69 1.394 . S
C70 C71 1.359 1_556 S
C71 C70 1.359 1_554 S
C71 C73 1.395 . S
C71 H81 0.930 . S
C72 C68 1.395 . S
C72 C73 1.379 . S
C72 H82 0.930 . S
C73 C71 1.395 . S
C73 C72 1.379 . S
C73 H83 0.930 . S
C74 O52 1.264 1_655 S
C74 O53 1.254 . S
C75 Eu11 2.848 . S
C75 O50 1.257 . S
C75 O55 1.249 1_554 S
C75 C68 1.492 . S
H76 C59 0.930 . S
H77 C60 0.930 . S
H78 C61 0.930 . S
H79 C62 0.930 . S
H80 C69 0.930 . S
H81 C71 0.930 . S
H82 C72 0.930 . S
H83 C73 0.930 . S
Eu84 N115 2.657 1_556 S
Eu84 N122 2.609 . S
Eu84 O128 2.558 . S
Eu84 O129 2.612 1_556 S
Eu84 O131 2.339 1_556 S
Eu84 O132 2.563 . S
Eu84 O133 2.419 1_556 S
Eu84 O135 2.380 1_556 S
Eu84 O136 2.432 . S
Eu84 C148 2.848 . S
C85 C88 1.429 . S
C85 C89 1.411 . S
C85 N92 1.377 . S
C86 C88 1.420 1_556 S
C86 C90 1.423 1_556 S
C86 C98 1.392 . S
C87 C89 1.420 . S
C87 C90 1.351 . S
C87 H110 0.931 . S
C88 C85 1.429 . S
C88 C86 1.420 1_554 S
C88 N96 1.362 1_554 S
C89 C85 1.411 . S
C89 C87 1.420 . S
C89 C94 1.395 . S
C90 C86 1.423 1_554 S
C90 C87 1.351 . S
C90 H102 0.930 . S
C91 C93 1.400 . S
C91 C94 1.386 . S
C91 H103 0.930 . S
N92 C85 1.377 . S
N92 C93 1.321 . S
N92 Eu95 2.609 . S
C93 C91 1.400 . S
C93 N92 1.321 . S
C93 H100 0.930 . S
C94 C89 1.395 . S
C94 C91 1.386 . S
C94 H113 0.930 . S
Eu95 N92 2.609 . S
Eu95 N96 2.657 1_554 S
Eu95 O129 2.380 . S
Eu95 O130 2.432 . S
Eu95 O134 2.558 . S
Eu95 O135 2.612 . S
Eu95 O137 2.339 1_554 S
Eu95 O138 2.563 . S
Eu95 O139 2.419 1_554 S
Eu95 C159 2.848 . S
N96 C88 1.362 1_556 S
N96 Eu95 2.657 1_556 S
N96 C97 1.334 . S
C97 N96 1.334 . S
C97 C99 1.413 . S
C97 H104 0.929 . S
C98 C86 1.392 . S
C98 C99 1.367 . S
C98 H106 0.930 . S
C99 C97 1.413 . S
C99 C98 1.367 . S
C99 H101 0.930 . S
H100 C93 0.930 . S
H101 C99 0.930 . S
H102 C90 0.930 . S
H103 C91 0.930 . S
H104 C97 0.929 . S
H105 C119 0.930 . S
H106 C98 0.930 . S
H107 C125 0.930 . S
H108 C116 0.929 . S
H109 C123 0.930 . S
H110 C87 0.931 . S
H111 C117 0.930 . S
H112 C150 0.932 1_554 S
H113 C94 0.930 . S
H114 C149 0.931 . S
N115 Eu84 2.657 1_554 S
N115 C116 1.334 . S
N115 C120 1.358 1_554 S
C116 H108 0.929 . S
C116 N115 1.334 . S
C116 C119 1.413 . S
C117 H111 0.930 . S
C117 C118 1.392 . S
C117 C119 1.367 . S
C118 C117 1.392 . S
C118 C120 1.417 1_554 S
C118 C150 1.423 1_554 S
C119 H105 0.930 . S
C119 C116 1.413 . S
C119 C117 1.367 . S
C120 N115 1.358 1_556 S
C120 C118 1.417 1_556 S
C120 C124 1.436 . S
H121 C126 0.930 . S
N122 Eu84 2.609 . S
N122 C124 1.377 . S
N122 C125 1.321 . S
C123 H109 0.930 . S
C123 C125 1.400 . S
C123 C126 1.386 . S
C124 C120 1.436 . S
C124 N122 1.377 . S
C124 C127 1.411 . S
C125 H107 0.930 . S
C125 N122 1.321 . S
C125 C123 1.400 . S
C126 H121 0.930 . S
C126 C123 1.386 . S
C126 C127 1.395 . S
C127 C124 1.411 . S
C127 C126 1.395 . S
C127 C149 1.420 . S
O128 Eu84 2.558 . S
O128 C148 1.257 . S
O129 Eu84 2.612 1_554 S
O129 Eu95 2.380 . S
O129 C140 1.268 1_554 S
O130 Eu95 2.432 . S
O130 C147 1.264 . S
O131 Eu84 2.339 1_554 S
O131 C147 1.254 . S
O132 Eu84 2.563 . S
O132 C140 1.252 . S
O133 Eu84 2.419 1_554 S
O133 C148 1.249 1_554 S
O134 Eu95 2.558 . S
O134 C159 1.257 . S
O135 Eu84 2.380 1_554 S
O135 Eu95 2.612 . S
O135 C151 1.276 . S
O136 Eu84 2.432 . S
O136 C158 1.264 . S
O137 Eu95 2.339 1_556 S
O137 C158 1.254 . S
O138 Eu95 2.563 . S
O138 C151 1.235 . S
O139 Eu95 2.419 1_556 S
O139 C159 1.249 1_556 S
C140 O129 1.268 1_556 S
C140 O132 1.252 . S
C141 C143 1.393 1_556 S
C141 C145 1.395 . S
C141 C148 1.492 . S
C142 C143 1.392 . S
C142 C144 1.386 1_554 S
C143 C141 1.393 1_554 S
C143 C142 1.392 . S
C143 H160 0.930 . S
C144 C142 1.386 1_556 S
C144 C146 1.395 . S
C144 H161 0.930 . S
C145 C141 1.395 . S
C145 C146 1.379 . S
C145 H162 0.930 . S
C146 C144 1.395 . S
C146 C145 1.379 . S
C146 H163 0.930 . S
C147 O130 1.264 . S
C147 O131 1.254 . S
C148 Eu84 2.848 . S
C148 O128 1.257 . S
C148 O133 1.249 1_556 S
C148 C141 1.492 . S
C149 H114 0.931 . S
C149 C127 1.420 . S
C149 C150 1.351 . S
C150 H112 0.932 1_556 S
C150 C118 1.423 1_556 S
C150 C149 1.351 . S
C151 O135 1.276 . S
C151 O138 1.235 . S
C152 C153 1.393 1_554 S
C152 C156 1.395 . S
C152 C159 1.492 . S
C153 C152 1.393 1_556 S
C153 C154 1.394 . S
C153 H164 0.930 . S
C154 C153 1.394 . S
C154 C155 1.359 1_556 S
C155 C154 1.359 1_554 S
C155 C157 1.395 . S
C155 H165 0.930 . S
C156 C152 1.395 . S
C156 C157 1.379 . S
C156 H166 0.930 . S
C157 C155 1.395 . S
C157 C156 1.379 . S
C157 H167 0.930 . S
C158 O136 1.264 . S
C158 O137 1.254 . S
C159 Eu95 2.848 . S
C159 O134 1.257 . S
C159 O139 1.249 1_554 S
C159 C152 1.492 . S
H160 C143 0.930 . S
H161 C144 0.930 . S
H162 C145 0.930 . S
H163 C146 0.930 . S
H164 C153 0.930 . S
H165 C155 0.930 . S
H166 C156 0.930 . S
H167 C157 0.930 . S
Eu168 N199 2.657 1_566 S
Eu168 N206 2.611 1_565 S
Eu168 O212 2.558 . S
Eu168 O213 2.612 1_556 S
Eu168 O215 2.339 1_556 S
Eu168 O216 2.563 . S
Eu168 O217 2.419 1_556 S
Eu168 O219 2.380 1_566 S
Eu168 O220 2.432 1_565 S
Eu168 C232 2.848 . S
C169 C172 1.425 1_545 S
C169 C173 1.417 1_545 S
C169 N176 1.374 . S
C170 C172 1.420 1_556 S
C170 C174 1.423 1_556 S
C170 C182 1.392 . S
C171 C173 1.420 . S
C171 C174 1.351 . S
C171 H194 0.931 . S
C172 C169 1.425 1_565 S
C172 C170 1.420 1_554 S
C172 N180 1.362 1_564 S
C173 C169 1.417 1_565 S
C173 C171 1.420 . S
C173 C178 1.395 1_565 S
C174 C170 1.423 1_554 S
C174 C171 1.351 . S
C174 H186 0.930 . S
C175 C177 1.400 . S
C175 C178 1.386 . S
C175 H187 0.930 . S
N176 C169 1.374 . S
N176 C177 1.321 . S
N176 Eu179 2.609 . S
C177 C175 1.400 . S
C177 N176 1.321 . S
C177 H184 0.930 . S
C178 C173 1.395 1_545 S
C178 C175 1.386 . S
C178 H197 0.930 1_545 S
Eu179 N176 2.609 . S
Eu179 N180 2.657 1_554 S
Eu179 O213 2.380 1_545 S
Eu179 O214 2.432 . S
Eu179 O218 2.558 . S
Eu179 O219 2.612 . S
Eu179 O221 2.339 1_554 S
Eu179 O222 2.563 . S
Eu179 O223 2.419 1_554 S
Eu179 C243 2.848 . S
N180 C172 1.362 1_546 S
N180 Eu179 2.657 1_556 S
N180 C181 1.334 1_545 S
C181 N180 1.334 1_565 S
C181 C183 1.413 . S
C181 H188 0.929 1_565 S
C182 C170 1.392 . S
C182 C183 1.367 . S
C182 H190 0.930 . S
C183 C181 1.413 . S
C183 C182 1.367 . S
C183 H185 0.930 . S
H184 C177 0.930 . S
H185 C183 0.930 . S
H186 C174 0.930 . S
H187 C175 0.930 . S
H188 C181 0.929 1_545 S
H189 C203 0.930 . S
H190 C182 0.930 . S
H191 C209 0.930 . S
H192 C200 0.929 . S
H193 C207 0.929 . S
H194 C171 0.931 . S
H195 C201 0.930 . S
H196 C234 0.928 . S
H197 C178 0.930 1_565 S
H198 C233 0.931 . S
N199 Eu168 2.657 1_544 S
N199 C200 1.334 . S
N199 C204 1.358 1_554 S
C200 H192 0.929 . S
C200 N199 1.334 . S
C200 C203 1.413 . S
C201 H195 0.930 . S
C201 C202 1.392 . S
C201 C203 1.367 . S
C202 C201 1.392 . S
C202 C204 1.417 1_554 S
C202 C234 1.423 1_554 S
C203 H189 0.930 . S
C203 C200 1.413 . S
C203 C201 1.367 . S
C204 N199 1.358 1_556 S
C204 C202 1.417 1_556 S
C204 C208 1.436 . S
H205 C210 0.930 . S
N206 Eu168 2.611 1_545 S
N206 C208 1.375 . S
N206 C209 1.319 1_545 S
C207 H193 0.929 . S
C207 C209 1.400 . S
C207 C210 1.386 1_565 S
C208 C204 1.436 . S
C208 N206 1.375 . S
C208 C211 1.411 . S
C209 H191 0.930 . S
C209 N206 1.319 1_565 S
C209 C207 1.400 . S
C210 H205 0.930 . S
C210 C207 1.386 1_545 S
C210 C211 1.395 . S
C211 C208 1.411 . S
C211 C210 1.395 . S
C211 C233 1.420 . S
O212 Eu168 2.558 . S
O212 C232 1.257 . S
O213 Eu168 2.612 1_554 S
O213 Eu179 2.380 1_565 S
O213 C224 1.267 1_554 S
O214 Eu179 2.432 . S
O214 C231 1.264 1_545 S
O215 Eu168 2.339 1_554 S
O215 C231 1.254 . S
O216 Eu168 2.563 . S
O216 C224 1.252 . S
O217 Eu168 2.419 1_554 S
O217 C232 1.249 1_554 S
O218 Eu179 2.558 . S
O218 C243 1.257 . S
O219 Eu168 2.380 1_544 S
O219 Eu179 2.612 . S
O219 C235 1.276 . S
O220 Eu168 2.432 1_545 S
O220 C242 1.264 . S
O221 Eu179 2.339 1_556 S
O221 C242 1.254 . S
O222 Eu179 2.563 . S
O222 C235 1.235 . S
O223 Eu179 2.419 1_556 S
O223 C243 1.249 1_556 S
C224 O213 1.267 1_556 S
C224 O216 1.252 . S
C225 C227 1.393 1_556 S
C225 C229 1.395 . S
C225 C232 1.492 . S
C226 C227 1.392 . S
C226 C228 1.386 1_554 S
C227 C225 1.393 1_554 S
C227 C226 1.392 . S
C227 H244 0.930 . S
C228 C226 1.386 1_556 S
C228 C230 1.395 . S
C228 H245 0.930 . S
C229 C225 1.395 . S
C229 C230 1.379 . S
C229 H246 0.930 . S
C230 C228 1.395 . S
C230 C229 1.379 . S
C230 H247 0.930 . S
C231 O214 1.264 1_565 S
C231 O215 1.254 . S
C232 Eu168 2.848 . S
C232 O212 1.257 . S
C232 O217 1.249 1_556 S
C232 C225 1.492 . S
C233 H198 0.931 . S
C233 C211 1.420 . S
C233 C234 1.351 . S
C234 H196 0.928 . S
C234 C202 1.423 1_556 S
C234 C233 1.351 . S
C235 O219 1.276 . S
C235 O222 1.235 . S
C236 C237 1.393 1_554 S
C236 C240 1.395 . S
C236 C243 1.492 . S
C237 C236 1.393 1_556 S
C237 C238 1.394 . S
C237 H248 0.930 . S
C238 C237 1.394 . S
C238 C239 1.359 1_556 S
C239 C238 1.359 1_554 S
C239 C241 1.395 . S
C239 H249 0.930 . S
C240 C236 1.395 . S
C240 C241 1.379 . S
C240 H250 0.930 . S
C241 C239 1.395 . S
C241 C240 1.379 . S
C241 H251 0.930 . S
C242 O220 1.264 . S
C242 O221 1.254 . S
C243 Eu179 2.848 . S
C243 O218 1.257 . S
C243 O223 1.249 1_554 S
C243 C236 1.492 . S
H244 C227 0.930 . S
H245 C228 0.930 . S
H246 C229 0.930 . S
H247 C230 0.930 . S
H248 C237 0.930 . S
H249 C239 0.930 . S
H250 C240 0.930 . S
H251 C241 0.930 . S
Eu252 N283 2.657 . S
Eu252 N290 2.609 . S
Eu252 O296 2.558 . S
Eu252 O297 2.612 . S
Eu252 O299 2.339 . S
Eu252 O300 2.563 . S
Eu252 O301 2.419 . S
Eu252 O303 2.380 . S
Eu252 O304 2.432 . S
Eu252 C316 2.848 . S
C253 C256 1.429 . S
C253 C257 1.411 . S
C253 N260 1.377 . S
C254 C256 1.420 . S
C254 C258 1.423 . S
C254 C266 1.392 . S
C255 C257 1.420 . S
C255 C258 1.351 . S
C255 H278 0.931 . S
C256 C253 1.429 . S
C256 C254 1.420 . S
C256 N264 1.362 . S
C257 C253 1.411 . S
C257 C255 1.420 . S
C257 C262 1.395 . S
C258 C254 1.423 . S
C258 C255 1.351 . S
C258 H270 0.930 . S
C259 C261 1.400 . S
C259 C262 1.386 . S
C259 H271 0.930 . S
N260 C253 1.377 . S
N260 C261 1.321 . S
N260 Eu263 2.609 . S
C261 C259 1.400 . S
C261 N260 1.321 . S
C261 H268 0.930 . S
C262 C257 1.395 . S
C262 C259 1.386 . S
C262 H281 0.930 . S
Eu263 N260 2.609 . S
Eu263 N264 2.657 . S
Eu263 O297 2.380 . S
Eu263 O298 2.432 . S
Eu263 O302 2.558 . S
Eu263 O303 2.612 . S
Eu263 O305 2.339 . S
Eu263 O306 2.563 . S
Eu263 O307 2.419 . S
Eu263 C327 2.848 . S
N264 C256 1.362 . S
N264 Eu263 2.657 . S
N264 C265 1.334 . S
C265 N264 1.334 . S
C265 C267 1.413 . S
C265 H272 0.929 . S
C266 C254 1.392 . S
C266 C267 1.367 . S
C266 H274 0.930 . S
C267 C265 1.413 . S
C267 C266 1.367 . S
C267 H269 0.930 . S
H268 C261 0.930 . S
H269 C267 0.930 . S
H270 C258 0.930 . S
H271 C259 0.930 . S
H272 C265 0.929 . S
H273 C287 0.930 . S
H274 C266 0.930 . S
H275 C293 0.930 . S
H276 C284 0.929 . S
H277 C291 0.930 . S
H278 C255 0.931 . S
H279 C285 0.930 . S
H280 C318 0.930 . S
H281 C262 0.930 . S
H282 C317 0.931 . S
N283 Eu252 2.657 . S
N283 C284 1.334 . S
N283 C288 1.362 . S
C284 H276 0.929 . S
C284 N283 1.334 . S
C284 C287 1.413 . S
C285 H279 0.930 . S
C285 C286 1.392 . S
C285 C287 1.367 . S
C286 C285 1.392 . S
C286 C288 1.420 . S
C286 C318 1.423 . S
C287 H273 0.930 . S
C287 C284 1.413 . S
C287 C285 1.367 . S
C288 N283 1.362 . S
C288 C286 1.420 . S
C288 C292 1.429 . S
H289 C294 0.930 . S
N290 Eu252 2.609 . S
N290 C292 1.377 . S
N290 C293 1.321 . S
C291 H277 0.930 . S
C291 C293 1.400 . S
C291 C294 1.386 . S
C292 C288 1.429 . S
C292 N290 1.377 . S
C292 C295 1.411 . S
C293 H275 0.930 . S
C293 N290 1.321 . S
C293 C291 1.400 . S
C294 H289 0.930 . S
C294 C291 1.386 . S
C294 C295 1.395 . S
C295 C292 1.411 . S
C295 C294 1.395 . S
C295 C317 1.420 . S
O296 Eu252 2.558 . S
O296 C316 1.257 . S
O297 Eu252 2.612 . S
O297 Eu263 2.380 . S
O297 C308 1.276 . S
O298 Eu263 2.432 . S
O298 C315 1.264 . S
O299 Eu252 2.339 . S
O299 C315 1.254 . S
O300 Eu252 2.563 . S
O300 C308 1.235 . S
O301 Eu252 2.419 . S
O301 C316 1.249 . S
O302 Eu263 2.558 . S
O302 C327 1.257 . S
O303 Eu252 2.380 . S
O303 Eu263 2.612 . S
O303 C319 1.276 . S
O304 Eu252 2.432 . S
O304 C326 1.264 . S
O305 Eu263 2.339 . S
O305 C326 1.254 . S
O306 Eu263 2.563 . S
O306 C319 1.235 . S
O307 Eu263 2.419 . S
O307 C327 1.249 . S
C308 O297 1.276 . S
C308 O300 1.235 . S
C309 C311 1.393 . S
C309 C313 1.395 . S
C309 C316 1.492 . S
C310 C311 1.392 . S
C310 C312 1.367 1_565 S
C311 C309 1.393 . S
C311 C310 1.392 . S
C311 H328 0.930 . S
C312 C310 1.367 1_545 S
C312 C314 1.398 1_545 S
C312 H329 0.947 . S
C313 C309 1.395 . S
C313 C314 1.379 . S
C313 H330 0.930 . S
C314 C312 1.398 1_565 S
C314 C313 1.379 . S
C314 H331 0.930 1_565 S
C315 O298 1.264 . S
C315 O299 1.254 . S
C316 Eu252 2.848 . S
C316 O296 1.257 . S
C316 O301 1.249 . S
C316 C309 1.492 . S
C317 H282 0.931 . S
C317 C295 1.420 . S
C317 C318 1.351 . S
C318 H280 0.930 . S
C318 C286 1.423 . S
C318 C317 1.351 . S
C319 O303 1.276 . S
C319 O306 1.235 . S
C320 C321 1.393 . S
C320 C324 1.395 . S
C320 C327 1.492 . S
C321 C320 1.393 . S
C321 C322 1.392 . S
C321 H332 0.930 . S
C322 C321 1.392 . S
C322 C323 1.386 . S
C323 C322 1.386 . S
C323 C325 1.395 . S
C323 H333 0.930 . S
C324 C320 1.395 . S
C324 C325 1.379 . S
C324 H334 0.930 . S
C325 C323 1.395 . S
C325 C324 1.379 . S
C325 H335 0.930 . S
C326 O304 1.264 . S
C326 O305 1.254 . S
C327 Eu263 2.848 . S
C327 O302 1.257 . S
C327 O307 1.249 . S
C327 C320 1.492 . S
H328 C311 0.930 . S
H329 C312 0.947 . S
H330 C313 0.930 . S
H331 C314 0.930 1_545 S
H332 C321 0.930 . S
H333 C323 0.930 . S
H334 C324 0.930 . S
H335 C325 0.930 . S
Eu336 N367 2.657 . S
Eu336 N374 2.609 . S
Eu336 O380 2.558 . S
Eu336 O381 2.612 . S
Eu336 O383 2.339 . S
Eu336 O384 2.563 . S
Eu336 O385 2.419 . S
Eu336 O387 2.380 . S
Eu336 O388 2.432 . S
Eu336 C400 2.848 . S
C337 C340 1.429 . S
C337 C341 1.411 . S
C337 N344 1.377 . S
C338 C340 1.420 1_545 S
C338 C342 1.423 . S
C338 C350 1.392 . S
C339 C341 1.420 1_545 S
C339 C342 1.351 . S
C339 H362 0.931 . S
C340 C337 1.429 . S
C340 C338 1.420 1_565 S
C340 N348 1.362 . S
C341 C337 1.411 . S
C341 C339 1.420 1_565 S
C341 C346 1.395 . S
C342 C338 1.423 . S
C342 C339 1.351 . S
C342 H354 0.930 . S
C343 C345 1.400 . S
C343 C346 1.386 . S
C343 H355 0.930 . S
N344 C337 1.377 . S
N344 C345 1.321 . S
N344 Eu347 2.609 . S
C345 C343 1.400 . S
C345 N344 1.321 . S
C345 H352 0.930 . S
C346 C341 1.395 . S
C346 C343 1.386 . S
C346 H365 0.930 1_565 S
Eu347 N344 2.609 . S
Eu347 N348 2.657 . S
Eu347 O381 2.380 . S
Eu347 O382 2.432 . S
Eu347 O386 2.558 . S
Eu347 O387 2.612 . S
Eu347 O389 2.339 . S
Eu347 O390 2.563 . S
Eu347 O391 2.419 . S
Eu347 C411 2.848 . S
N348 C340 1.362 . S
N348 Eu347 2.657 . S
N348 C349 1.334 . S
C349 N348 1.334 . S
C349 C351 1.413 . S
C349 H356 0.929 . S
C350 C338 1.392 . S
C350 C351 1.367 1_545 S
C350 H358 0.930 . S
C351 C349 1.413 . S
C351 C350 1.367 1_565 S
C351 H353 0.930 . S
H352 C345 0.930 . S
H353 C351 0.930 . S
H354 C342 0.930 . S
H355 C343 0.930 . S
H356 C349 0.929 . S
H357 C371 0.930 . S
H358 C350 0.930 . S
H359 C377 0.930 . S
H360 C368 0.929 . S
H361 C375 0.930 . S
H362 C339 0.931 . S
H363 C369 0.930 . S
H364 C402 0.930 . S
H365 C346 0.930 1_545 S
H366 C401 0.931 . S
N367 Eu336 2.657 . S
N367 C368 1.334 . S
N367 C372 1.362 . S
C368 H360 0.929 . S
C368 N367 1.334 . S
C368 C371 1.413 . S
C369 H363 0.930 . S
C369 C370 1.392 . S
C369 C371 1.367 . S
C370 C369 1.392 . S
C370 C372 1.420 . S
C370 C402 1.423 . S
C371 H357 0.930 . S
C371 C368 1.413 . S
C371 C369 1.367 . S
C372 N367 1.362 . S
C372 C370 1.420 . S
C372 C376 1.429 . S
H373 C378 0.930 . S
N374 Eu336 2.609 . S
N374 C376 1.377 . S
N374 C377 1.321 . S
C375 H361 0.930 . S
C375 C377 1.400 . S
C375 C378 1.386 . S
C376 C372 1.429 . S
C376 N374 1.377 . S
C376 C379 1.411 . S
C377 H359 0.930 . S
C377 N374 1.321 . S
C377 C375 1.400 . S
C378 H373 0.930 . S
C378 C375 1.386 . S
C378 C379 1.395 . S
C379 C376 1.411 . S
C379 C378 1.395 . S
C379 C401 1.420 . S
O380 Eu336 2.558 . S
O380 C400 1.257 . S
O381 Eu336 2.612 . S
O381 Eu347 2.380 . S
O381 C392 1.276 . S
O382 Eu347 2.432 . S
O382 C399 1.264 . S
O383 Eu336 2.339 . S
O383 C399 1.254 . S
O384 Eu336 2.563 . S
O384 C392 1.235 . S
O385 Eu336 2.419 . S
O385 C400 1.249 . S
O386 Eu347 2.558 . S
O386 C411 1.257 . S
O387 Eu336 2.380 . S
O387 Eu347 2.612 . S
O387 C403 1.276 . S
O388 Eu336 2.432 . S
O388 C410 1.264 . S
O389 Eu347 2.339 . S
O389 C410 1.254 . S
O390 Eu347 2.563 . S
O390 C403 1.235 . S
O391 Eu347 2.419 . S
O391 C411 1.249 . S
C392 O381 1.276 . S
C392 O384 1.235 . S
C393 C395 1.393 . S
C393 C397 1.395 . S
C393 C400 1.492 . S
C394 C395 1.392 . S
C394 C396 1.386 . S
C395 C393 1.393 . S
C395 C394 1.392 . S
C395 H412 0.930 . S
C396 C394 1.386 . S
C396 C398 1.395 . S
C396 H413 0.930 1_455 S
C397 C393 1.395 . S
C397 C398 1.379 . S
C397 H414 0.930 . S
C398 C396 1.395 . S
C398 C397 1.379 . S
C398 H415 0.930 . S
C399 O382 1.264 . S
C399 O383 1.254 . S
C400 Eu336 2.848 . S
C400 O380 1.257 . S
C400 O385 1.249 . S
C400 C393 1.492 . S
C401 H366 0.931 . S
C401 C379 1.420 . S
C401 C402 1.351 . S
C402 H364 0.930 . S
C402 C370 1.423 . S
C402 C401 1.351 . S
C403 O387 1.276 . S
C403 O390 1.235 . S
C404 C405 1.393 . S
C404 C408 1.395 . S
C404 C411 1.492 . S
C405 C404 1.393 . S
C405 C406 1.392 . S
C405 H416 0.930 . S
C406 C405 1.392 . S
C406 C407 1.386 . S
C407 C406 1.386 . S
C407 C409 1.395 . S
C407 H417 0.930 . S
C408 C404 1.395 . S
C408 C409 1.379 . S
C408 H418 0.930 . S
C409 C407 1.395 . S
C409 C408 1.379 . S
C409 H419 0.930 . S
C410 O388 1.264 . S
C410 O389 1.254 . S
C411 Eu347 2.848 . S
C411 O386 1.257 . S
C411 O391 1.249 . S
C411 C404 1.492 . S
H412 C395 0.930 . S
H413 C396 0.930 1_655 S
H414 C397 0.930 . S
H415 C398 0.930 . S
H416 C405 0.930 . S
H417 C407 0.930 . S
H418 C408 0.930 . S
H419 C409 0.930 . S
Eu420 N451 2.657 . S
Eu420 N458 2.609 . S
Eu420 O464 2.558 . S
Eu420 O465 2.612 . S
Eu420 O467 2.339 . S
Eu420 O468 2.563 . S
Eu420 O469 2.419 . S
Eu420 O471 2.380 . S
Eu420 O472 2.432 . S
Eu420 C484 2.848 . S
C421 C424 1.429 . S
C421 C425 1.411 . S
C421 N428 1.377 . S
C422 C424 1.420 . S
C422 C426 1.423 1_455 S
C422 C434 1.392 . S
C423 C425 1.420 1_655 S
C423 C426 1.351 . S
C423 H446 0.931 . S
C424 C421 1.429 . S
C424 C422 1.420 . S
C424 N432 1.362 . S
C425 C421 1.411 . S
C425 C423 1.420 1_455 S
C425 C430 1.395 . S
C426 C422 1.423 1_655 S
C426 C423 1.351 . S
C426 H438 0.930 . S
C427 C429 1.400 . S
C427 C430 1.386 . S
C427 H439 0.930 . S
N428 C421 1.377 . S
N428 C429 1.321 . S
N428 Eu431 2.609 . S
C429 C427 1.400 . S
C429 N428 1.321 . S
C429 H436 0.930 . S
C430 C425 1.395 . S
C430 C427 1.386 . S
C430 H449 0.930 . S
Eu431 N428 2.609 . S
Eu431 N432 2.657 . S
Eu431 O465 2.380 . S
Eu431 O466 2.432 . S
Eu431 O470 2.558 . S
Eu431 O471 2.612 . S
Eu431 O473 2.339 . S
Eu431 O474 2.563 . S
Eu431 O475 2.419 . S
Eu431 C495 2.848 . S
N432 C424 1.362 . S
N432 Eu431 2.657 . S
N432 C433 1.334 . S
C433 N432 1.334 . S
C433 C435 1.413 . S
C433 H440 0.929 . S
C434 C422 1.392 . S
C434 C435 1.367 . S
C434 H442 0.930 1_455 S
C435 C433 1.413 . S
C435 C434 1.367 . S
C435 H437 0.930 . S
H436 C429 0.930 . S
H437 C435 0.930 . S
H438 C426 0.930 . S
H439 C427 0.930 . S
H440 C433 0.929 . S
H441 C455 0.930 . S
H442 C434 0.930 1_655 S
H443 C461 0.930 . S
H444 C452 0.929 . S
H445 C459 0.930 . S
H446 C423 0.931 . S
H447 C453 0.930 . S
H448 C486 0.930 . S
H449 C430 0.930 . S
H450 C485 0.931 . S
N451 Eu420 2.657 . S
N451 C452 1.334 . S
N451 C456 1.362 . S
C452 H444 0.929 . S
C452 N451 1.334 . S
C452 C455 1.413 . S
C453 H447 0.930 . S
C453 C454 1.392 . S
C453 C455 1.367 . S
C454 C453 1.392 . S
C454 C456 1.420 . S
C454 C486 1.423 . S
C455 H441 0.930 . S
C455 C452 1.413 . S
C455 C453 1.367 . S
C456 N451 1.362 . S
C456 C454 1.420 . S
C456 C460 1.429 . S
H457 C462 0.930 . S
N458 Eu420 2.609 . S
N458 C460 1.377 . S
N458 C461 1.321 . S
C459 H445 0.930 . S
C459 C461 1.400 . S
C459 C462 1.386 . S
C460 C456 1.429 . S
C460 N458 1.377 . S
C460 C463 1.411 . S
C461 H443 0.930 . S
C461 N458 1.321 . S
C461 C459 1.400 . S
C462 H457 0.930 . S
C462 C459 1.386 . S
C462 C463 1.395 . S
C463 C460 1.411 . S
C463 C462 1.395 . S
C463 C485 1.420 . S
O464 Eu420 2.558 . S
O464 C484 1.257 . S
O465 Eu420 2.612 . S
O465 Eu431 2.380 . S
O465 C476 1.276 . S
O466 Eu431 2.432 . S
O466 C483 1.264 . S
O467 Eu420 2.339 . S
O467 C483 1.254 . S
O468 Eu420 2.563 . S
O468 C476 1.235 . S
O469 Eu420 2.419 . S
O469 C484 1.249 . S
O470 Eu431 2.558 . S
O470 C495 1.257 . S
O471 Eu420 2.380 . S
O471 Eu431 2.612 . S
O471 C487 1.276 . S
O472 Eu420 2.432 . S
O472 C494 1.264 . S
O473 Eu431 2.339 . S
O473 C494 1.254 . S
O474 Eu431 2.563 . S
O474 C487 1.235 . S
O475 Eu431 2.419 . S
O475 C495 1.249 . S
C476 O465 1.276 . S
C476 O468 1.235 . S
C477 C479 1.393 . S
C477 C481 1.395 . S
C477 C484 1.492 . S
C478 C479 1.392 . S
C478 C480 1.386 . S
C479 C477 1.393 . S
C479 C478 1.392 . S
C479 H496 0.930 . S
C480 C478 1.386 . S
C480 C482 1.395 . S
C480 H497 0.930 . S
C481 C477 1.395 . S
C481 C482 1.379 . S
C481 H498 0.930 . S
C482 C480 1.395 . S
C482 C481 1.379 . S
C482 H499 0.930 . S
C483 O466 1.264 . S
C483 O467 1.254 . S
C484 Eu420 2.848 . S
C484 O464 1.257 . S
C484 O469 1.249 . S
C484 C477 1.492 . S
C485 H450 0.931 . S
C485 C463 1.420 . S
C485 C486 1.351 . S
C486 H448 0.930 . S
C486 C454 1.423 . S
C486 C485 1.351 . S
C487 O471 1.276 . S
C487 O474 1.235 . S
C488 C489 1.393 . S
C488 C492 1.395 . S
C488 C495 1.492 . S
C489 C488 1.393 . S
C489 C490 1.392 . S
C489 H500 0.930 . S
C490 C489 1.392 . S
C490 C491 1.386 . S
C491 C490 1.386 . S
C491 C493 1.395 . S
C491 H501 0.930 . S
C492 C488 1.395 . S
C492 C493 1.379 . S
C492 H502 0.930 . S
C493 C491 1.395 . S
C493 C492 1.379 . S
C493 H503 0.930 . S
C494 O472 1.264 . S
C494 O473 1.254 . S
C495 Eu431 2.848 . S
C495 O470 1.257 . S
C495 O475 1.249 . S
C495 C488 1.492 . S
H496 C479 0.930 . S
H497 C480 0.930 . S
H498 C481 0.930 . S
H499 C482 0.930 . S
H500 C489 0.930 . S
H501 C491 0.930 . S
H502 C492 0.930 . S
H503 C493 0.930 . S
Eu504 N535 2.657 . S
Eu504 N542 2.609 . S
Eu504 O548 2.558 . S
Eu504 O549 2.612 . S
Eu504 O551 2.339 . S
Eu504 O552 2.563 . S
Eu504 O553 2.419 . S
Eu504 O555 2.380 . S
Eu504 O556 2.432 . S
Eu504 C568 2.848 . S
C505 C508 1.429 . S
C505 C509 1.411 . S
C505 N512 1.377 . S
C506 C508 1.420 . S
C506 C510 1.423 . S
C506 C518 1.392 . S
C507 C509 1.420 . S
C507 C510 1.351 . S
C507 H530 0.902 1_545 S
C508 C505 1.429 . S
C508 C506 1.420 . S
C508 N516 1.362 . S
C509 C505 1.411 . S
C509 C507 1.420 . S
C509 C514 1.395 . S
C510 C506 1.423 . S
C510 C507 1.351 . S
C510 H522 0.930 . S
C511 C513 1.400 . S
C511 C514 1.386 . S
C511 H523 0.930 . S
N512 C505 1.377 . S
N512 C513 1.321 . S
N512 Eu515 2.609 . S
C513 C511 1.400 . S
C513 N512 1.321 . S
C513 H520 0.930 . S
C514 C509 1.395 . S
C514 C511 1.386 . S
C514 H533 0.930 . S
Eu515 N512 2.609 . S
Eu515 N516 2.657 . S
Eu515 O549 2.380 . S
Eu515 O550 2.432 . S
Eu515 O554 2.558 . S
Eu515 O555 2.612 . S
Eu515 O557 2.339 . S
Eu515 O558 2.563 . S
Eu515 O559 2.419 . S
Eu515 C579 2.848 . S
N516 C508 1.362 . S
N516 Eu515 2.657 . S
N516 C517 1.334 . S
C517 N516 1.334 . S
C517 C519 1.413 . S
C517 H524 0.929 . S
C518 C506 1.392 . S
C518 C519 1.367 . S
C518 H526 0.930 . S
C519 C517 1.413 . S
C519 C518 1.367 . S
C519 H521 0.930 . S
H520 C513 0.930 . S
H521 C519 0.930 . S
H522 C510 0.930 . S
H523 C511 0.930 . S
H524 C517 0.929 . S
H525 C539 0.930 . S
H526 C518 0.930 . S
H527 C545 0.930 . S
H528 C536 0.929 . S
H529 C543 0.930 . S
H530 C507 0.902 1_565 S
H531 C537 0.930 . S
H532 C570 0.930 . S
H533 C514 0.930 . S
H534 C569 0.931 . S
N535 Eu504 2.657 . S
N535 C536 1.334 . S
N535 C540 1.362 . S
C536 H528 0.929 . S
C536 N535 1.334 . S
C536 C539 1.413 . S
C537 H531 0.930 . S
C537 C538 1.392 . S
C537 C539 1.367 . S
C538 C537 1.392 . S
C538 C540 1.420 . S
C538 C570 1.423 . S
C539 H525 0.930 . S
C539 C536 1.413 . S
C539 C537 1.367 . S
C540 N535 1.362 . S
C540 C538 1.420 . S
C540 C544 1.429 . S
H541 C546 0.930 . S
N542 Eu504 2.609 . S
N542 C544 1.377 . S
N542 C545 1.321 . S
C543 H529 0.930 . S
C543 C545 1.400 . S
C543 C546 1.386 . S
C544 C540 1.429 . S
C544 N542 1.377 . S
C544 C547 1.411 . S
C545 H527 0.930 . S
C545 N542 1.321 . S
C545 C543 1.400 . S
C546 H541 0.930 . S
C546 C543 1.386 . S
C546 C547 1.395 . S
C547 C544 1.411 . S
C547 C546 1.395 . S
C547 C569 1.420 . S
O548 Eu504 2.558 . S
O548 C568 1.257 . S
O549 Eu504 2.612 . S
O549 Eu515 2.380 . S
O549 C560 1.276 . S
O550 Eu515 2.432 . S
O550 C567 1.264 . S
O551 Eu504 2.339 . S
O551 C567 1.254 . S
O552 Eu504 2.563 . S
O552 C560 1.235 . S
O553 Eu504 2.419 . S
O553 C568 1.249 . S
O554 Eu515 2.558 . S
O554 C579 1.257 . S
O555 Eu504 2.380 . S
O555 Eu515 2.612 . S
O555 C571 1.276 . S
O556 Eu504 2.432 . S
O556 C578 1.264 . S
O557 Eu515 2.339 . S
O557 C578 1.254 . S
O558 Eu515 2.563 . S
O558 C571 1.235 . S
O559 Eu515 2.419 . S
O559 C579 1.249 . S
C560 O549 1.276 . S
C560 O552 1.235 . S
C561 C563 1.393 . S
C561 C565 1.395 . S
C561 C568 1.492 . S
C562 C563 1.392 . S
C562 C564 1.386 . S
C563 C561 1.393 . S
C563 C562 1.392 . S
C563 H580 0.930 . S
C564 C562 1.386 . S
C564 C566 1.395 . S
C564 H581 0.930 . S
C565 C561 1.395 . S
C565 C566 1.379 . S
C565 H582 0.930 . S
C566 C564 1.395 . S
C566 C565 1.379 . S
C566 H583 0.930 . S
C567 O550 1.264 . S
C567 O551 1.254 . S
C568 Eu504 2.848 . S
C568 O548 1.257 . S
C568 O553 1.249 . S
C568 C561 1.492 . S
C569 H534 0.931 . S
C569 C547 1.420 . S
C569 C570 1.351 . S
C570 H532 0.930 . S
C570 C538 1.423 . S
C570 C569 1.351 . S
C571 O555 1.276 . S
C571 O558 1.235 . S
C572 C573 1.393 1_545 S
C572 C576 1.395 1_545 S
C572 C579 1.492 . S
C573 C572 1.393 1_565 S
C573 C574 1.392 . S
C573 H584 0.930 1_565 S
C574 C573 1.392 . S
C574 C575 1.386 . S
C575 C574 1.386 . S
C575 C577 1.395 . S
C575 H585 0.930 . S
C576 C572 1.395 1_565 S
C576 C577 1.379 . S
C576 H586 0.930 . S
C577 C575 1.395 . S
C577 C576 1.379 . S
C577 H587 0.930 . S
C578 O556 1.264 . S
C578 O557 1.254 . S
C579 Eu515 2.848 . S
C579 O554 1.257 . S
C579 O559 1.249 . S
C579 C572 1.492 . S
H580 C563 0.930 . S
H581 C564 0.930 . S
H582 C565 0.930 . S
H583 C566 0.930 . S
H584 C573 0.930 1_545 S
H585 C575 0.930 . S
H586 C576 0.930 . S
H587 C577 0.930 . S
Eu588 N619 2.657 . S
Eu588 N626 2.609 . S
Eu588 O632 2.558 . S
Eu588 O633 2.612 . S
Eu588 O635 2.339 . S
Eu588 O636 2.563 . S
Eu588 O637 2.419 . S
Eu588 O639 2.380 . S
Eu588 O640 2.432 . S
Eu588 C652 2.848 . S
C589 C592 1.429 . S
C589 C593 1.411 . S
C589 N596 1.377 . S
C590 C592 1.420 . S
C590 C594 1.422 1_655 S
C590 C602 1.392 . S
C591 C593 1.420 1_455 S
C591 C594 1.352 . S
C591 H614 0.931 . S
C592 C589 1.429 . S
C592 C590 1.420 . S
C592 N600 1.362 . S
C593 C589 1.411 . S
C593 C591 1.420 1_655 S
C593 C598 1.395 . S
C594 C590 1.422 1_455 S
C594 C591 1.352 . S
C594 H606 0.930 . S
C595 C597 1.400 . S
C595 C598 1.386 . S
C595 H607 0.930 . S
N596 C589 1.377 . S
N596 C597 1.321 . S
N596 Eu599 2.609 . S
C597 C595 1.400 . S
C597 N596 1.321 . S
C597 H604 0.930 . S
C598 C593 1.395 . S
C598 C595 1.386 . S
C598 H617 0.930 1_655 S
Eu599 N596 2.609 . S
Eu599 N600 2.657 . S
Eu599 O633 2.380 . S
Eu599 O634 2.432 . S
Eu599 O638 2.558 . S
Eu599 O639 2.612 . S
Eu599 O641 2.339 . S
Eu599 O642 2.563 . S
Eu599 O643 2.419 . S
Eu599 C663 2.848 . S
N600 C592 1.362 . S
N600 Eu599 2.657 . S
N600 C601 1.334 . S
C601 N600 1.334 . S
C601 C603 1.413 . S
C601 H608 0.929 . S
C602 C590 1.392 . S
C602 C603 1.367 . S
C602 H610 0.930 . S
C603 C601 1.413 . S
C603 C602 1.367 . S
C603 H605 0.930 . S
H604 C597 0.930 . S
H605 C603 0.930 . S
H606 C594 0.930 . S
H607 C595 0.930 . S
H608 C601 0.929 . S
H609 C623 0.930 . S
H610 C602 0.930 . S
H611 C629 0.930 . S
H612 C620 0.929 . S
H613 C627 0.930 . S
H614 C591 0.931 . S
H615 C621 0.930 . S
H616 C654 0.930 . S
H617 C598 0.930 1_455 S
H618 C653 0.931 . S
N619 Eu588 2.657 . S
N619 C620 1.334 . S
N619 C624 1.362 . S
C620 H612 0.929 . S
C620 N619 1.334 . S
C620 C623 1.413 . S
C621 H615 0.930 . S
C621 C622 1.392 . S
C621 C623 1.367 . S
C622 C621 1.392 . S
C622 C624 1.420 . S
C622 C654 1.423 . S
C623 H609 0.930 . S
C623 C620 1.413 . S
C623 C621 1.367 . S
C624 N619 1.362 . S
C624 C622 1.420 . S
C624 C628 1.429 . S
H625 C630 0.930 . S
N626 Eu588 2.609 . S
N626 C628 1.377 . S
N626 C629 1.321 . S
C627 H613 0.930 . S
C627 C629 1.400 . S
C627 C630 1.386 . S
C628 C624 1.429 . S
C628 N626 1.377 . S
C628 C631 1.411 . S
C629 H611 0.930 . S
C629 N626 1.321 . S
C629 C627 1.400 . S
C630 H625 0.930 . S
C630 C627 1.386 . S
C630 C631 1.395 . S
C631 C628 1.411 . S
C631 C630 1.395 . S
C631 C653 1.420 . S
O632 Eu588 2.558 . S
O632 C652 1.257 . S
O633 Eu588 2.612 . S
O633 Eu599 2.380 . S
O633 C644 1.276 . S
O634 Eu599 2.432 . S
O634 C651 1.264 . S
O635 Eu588 2.339 . S
O635 C651 1.254 . S
O636 Eu588 2.563 . S
O636 C644 1.235 . S
O637 Eu588 2.419 . S
O637 C652 1.249 . S
O638 Eu599 2.558 . S
O638 C663 1.257 . S
O639 Eu588 2.380 . S
O639 Eu599 2.612 . S
O639 C655 1.276 . S
O640 Eu588 2.432 . S
O640 C662 1.264 . S
O641 Eu599 2.339 . S
O641 C662 1.254 . S
O642 Eu599 2.563 . S
O642 C655 1.235 . S
O643 Eu599 2.419 . S
O643 C663 1.249 . S
C644 O633 1.276 . S
C644 O636 1.235 . S
C645 C647 1.393 . S
C645 C649 1.395 . S
C645 C652 1.492 . S
C646 C647 1.392 . S
C646 C648 1.386 . S
C647 C645 1.393 . S
C647 C646 1.392 . S
C647 H664 0.930 . S
C648 C646 1.386 . S
C648 C650 1.395 . S
C648 H665 0.930 . S
C649 C645 1.395 . S
C649 C650 1.379 . S
C649 H666 0.930 . S
C650 C648 1.395 . S
C650 C649 1.379 . S
C650 H667 0.930 . S
C651 O634 1.264 . S
C651 O635 1.254 . S
C652 Eu588 2.848 . S
C652 O632 1.257 . S
C652 O637 1.249 . S
C652 C645 1.492 . S
C653 H618 0.931 . S
C653 C631 1.420 . S
C653 C654 1.351 . S
C654 H616 0.930 . S
C654 C622 1.423 . S
C654 C653 1.351 . S
C655 O639 1.276 . S
C655 O642 1.235 . S
C656 C657 1.393 . S
C656 C660 1.395 . S
C656 C663 1.492 1_455 S
C657 C656 1.393 . S
C657 C658 1.392 . S
C657 H668 0.930 . S
C658 C657 1.392 . S
C658 C659 1.386 . S
C659 C658 1.386 . S
C659 C661 1.395 . S
C659 H669 0.930 . S
C660 C656 1.395 . S
C660 C661 1.379 . S
C660 H670 0.930 . S
C661 C659 1.395 . S
C661 C660 1.379 . S
C661 H671 0.930 . S
C662 O640 1.264 . S
C662 O641 1.254 . S
C663 Eu599 2.848 . S
C663 O638 1.257 . S
C663 O643 1.249 . S
C663 C656 1.492 1_655 S
H664 C647 0.930 . S
H665 C648 0.930 . S
H666 C649 0.930 . S
H667 C650 0.930 . S
H668 C657 0.930 . S
H669 C659 0.930 . S
H670 C660 0.930 . S
H671 C661 0.930 . S
Eu672 N703 2.657 . S
Eu672 N710 2.609 . S
Eu672 O716 2.558 . S
Eu672 O717 2.612 . S
Eu672 O719 2.339 . S
Eu672 O720 2.563 . S
Eu672 O721 2.419 . S
Eu672 O723 2.380 . S
Eu672 O724 2.432 . S
Eu672 C736 2.848 . S
C673 C676 1.429 . S
C673 C677 1.411 . S
C673 N680 1.377 . S
C674 C676 1.420 . S
C674 C678 1.423 . S
C674 C686 1.392 . S
C675 C677 1.420 . S
C675 C678 1.351 . S
C675 H698 0.931 . S
C676 C673 1.429 . S
C676 C674 1.420 . S
C676 N684 1.362 . S
C677 C673 1.411 . S
C677 C675 1.420 . S
C677 C682 1.395 . S
C678 C674 1.423 . S
C678 C675 1.351 . S
C678 H690 0.930 . S
C679 C681 1.400 . S
C679 C682 1.386 . S
C679 H691 0.930 . S
N680 C673 1.377 . S
N680 C681 1.321 . S
N680 Eu683 2.609 . S
C681 C679 1.400 . S
C681 N680 1.321 . S
C681 H688 0.930 . S
C682 C677 1.395 . S
C682 C679 1.386 . S
C682 H701 0.930 . S
Eu683 N680 2.609 . S
Eu683 N684 2.657 . S
Eu683 O717 2.380 . S
Eu683 O718 2.432 . S
Eu683 O722 2.558 . S
Eu683 O723 2.612 . S
Eu683 O725 2.339 . S
Eu683 O726 2.563 . S
Eu683 O727 2.419 . S
Eu683 C747 2.848 . S
N684 C676 1.362 . S
N684 Eu683 2.657 . S
N684 C685 1.334 . S
C685 N684 1.334 . S
C685 C687 1.413 . S
C685 H692 0.929 . S
C686 C674 1.392 . S
C686 C687 1.367 . S
C686 H694 0.930 . S
C687 C685 1.413 . S
C687 C686 1.367 . S
C687 H689 0.930 . S
H688 C681 0.930 . S
H689 C687 0.930 . S
H690 C678 0.930 . S
H691 C679 0.930 . S
H692 C685 0.929 . S
H693 C707 0.930 . S
H694 C686 0.930 . S
H695 C713 0.930 . S
H696 C704 0.929 . S
H697 C711 0.930 . S
H698 C675 0.931 . S
H699 C705 0.930 . S
H700 C738 0.930 . S
H701 C682 0.930 . S
H702 C737 0.931 . S
N703 Eu672 2.657 . S
N703 C704 1.334 . S
N703 C708 1.362 . S
C704 H696 0.929 . S
C704 N703 1.334 . S
C704 C707 1.413 . S
C705 H699 0.930 . S
C705 C706 1.392 . S
C705 C707 1.367 . S
C706 C705 1.392 . S
C706 C708 1.420 . S
C706 C738 1.423 . S
C707 H693 0.930 . S
C707 C704 1.413 . S
C707 C705 1.367 . S
C708 N703 1.362 . S
C708 C706 1.420 . S
C708 C712 1.429 . S
H709 C714 0.930 . S
N710 Eu672 2.609 . S
N710 C712 1.377 . S
N710 C713 1.321 . S
C711 H697 0.930 . S
C711 C713 1.400 . S
C711 C714 1.386 . S
C712 C708 1.429 . S
C712 N710 1.377 . S
C712 C715 1.411 . S
C713 H695 0.930 . S
C713 N710 1.321 . S
C713 C711 1.400 . S
C714 H709 0.930 . S
C714 C711 1.386 . S
C714 C715 1.395 . S
C715 C712 1.411 . S
C715 C714 1.395 . S
C715 C737 1.420 . S
O716 Eu672 2.558 . S
O716 C736 1.257 . S
O717 Eu672 2.612 . S
O717 Eu683 2.380 . S
O717 C728 1.276 . S
O718 Eu683 2.432 . S
O718 C735 1.264 . S
O719 Eu672 2.339 . S
O719 C735 1.254 . S
O720 Eu672 2.563 . S
O720 C728 1.235 . S
O721 Eu672 2.419 . S
O721 C736 1.249 . S
O722 Eu683 2.558 . S
O722 C747 1.257 . S
O723 Eu672 2.380 . S
O723 Eu683 2.612 . S
O723 C739 1.276 . S
O724 Eu672 2.432 . S
O724 C746 1.264 . S
O725 Eu683 2.339 . S
O725 C746 1.254 . S
O726 Eu683 2.563 . S
O726 C739 1.235 . S
O727 Eu683 2.419 . S
O727 C747 1.249 . S
C728 O717 1.276 . S
C728 O720 1.235 . S
C729 C731 1.393 . S
C729 C733 1.395 . S
C729 C736 1.492 . S
C730 C731 1.392 . S
C730 C732 1.386 . S
C731 C729 1.393 . S
C731 C730 1.392 . S
C731 H748 0.930 . S
C732 C730 1.386 . S
C732 C734 1.395 . S
C732 H749 0.930 . S
C733 C729 1.395 . S
C733 C734 1.379 . S
C733 H750 0.930 . S
C734 C732 1.395 . S
C734 C733 1.379 . S
C734 H751 0.930 . S
C735 O718 1.264 . S
C735 O719 1.254 . S
C736 Eu672 2.848 . S
C736 O716 1.257 . S
C736 O721 1.249 . S
C736 C729 1.492 . S
C737 H702 0.931 . S
C737 C715 1.420 . S
C737 C738 1.351 . S
C738 H700 0.930 . S
C738 C706 1.423 . S
C738 C737 1.351 . S
C739 O723 1.276 . S
C739 O726 1.235 . S
C740 C741 1.393 . S
C740 C744 1.395 . S
C740 C747 1.492 . S
C741 C740 1.393 . S
C741 C742 1.392 . S
C741 H752 0.930 . S
C742 C741 1.392 . S
C742 C743 1.386 . S
C743 C742 1.386 . S
C743 C745 1.395 . S
C743 H753 0.930 . S
C744 C740 1.395 . S
C744 C745 1.379 . S
C744 H754 0.930 . S
C745 C743 1.395 . S
C745 C744 1.379 . S
C745 H755 0.930 . S
C746 O724 1.264 . S
C746 O725 1.254 . S
C747 Eu683 2.848 . S
C747 O722 1.257 . S
C747 O727 1.249 . S
C747 C740 1.492 . S
H748 C731 0.930 . S
H749 C732 0.930 . S
H750 C733 0.930 . S
H751 C734 0.930 . S
H752 C741 0.930 . S
H753 C743 0.930 . S
H754 C744 0.930 . S
H755 C745 0.930 . S
H756 C774 0.950 . S
H757 C776 0.951 1_556 S
H758 C778 0.950 . S
H759 C779 0.950 . S
H760 C781 0.950 . S
H761 C784 0.950 . S
H762 C785 0.950 . S
H763 C787 0.950 . S
H764 C788 0.950 . S
H765 C789 0.951 . S
H766 C791 0.951 . S
H767 C793 0.950 . S
H768 C794 0.950 . S
H769 C796 0.950 . S
H770 C799 0.950 . S
H771 C800 0.950 . S
H772 C802 0.950 . S
H773 C803 0.950 . S
C774 H756 0.950 . S
C774 C775 1.366 . S
C774 C776 1.388 . S
C775 C774 1.366 . S
C775 C779 1.385 . S
C776 H757 0.951 1_554 S
C776 C774 1.388 . S
C776 C777 1.366 . S
C777 C776 1.366 . S
C777 C778 1.414 . S
C777 C780 1.499 . S
C778 H758 0.950 . S
C778 C777 1.414 . S
C778 C779 1.374 . S
C779 H759 0.950 . S
C779 C775 1.385 . S
C779 C778 1.374 . S
C780 C777 1.499 . S
C780 C781 1.373 . S
C780 C782 1.389 1_554 S
C781 H760 0.950 . S
C781 C780 1.373 . S
C781 C797 1.377 . S
C782 C780 1.389 1_556 S
C782 C783 1.524 . S
C782 C796 1.377 . S
C783 C782 1.524 . S
C783 C784 1.397 . S
C783 C788 1.363 . S
C784 H761 0.950 . S
C784 C783 1.397 . S
C784 C785 1.334 . S
C785 H762 0.950 . S
C785 C784 1.334 . S
C785 C786 1.287 . S
C786 C785 1.287 . S
C786 C787 1.524 . S
C786 H805 0.913 . S
C787 H763 0.950 . S
C787 C786 1.524 . S
C787 C788 1.415 . S
C788 H764 0.950 . S
C788 C783 1.363 . S
C788 C787 1.415 . S
C789 H765 0.951 . S
C789 C790 1.366 . S
C789 C791 1.388 . S
C790 C789 1.366 . S
C790 C794 1.385 1_554 S
C791 H766 0.951 . S
C791 C789 1.388 . S
C791 C792 1.366 . S
C792 C791 1.366 . S
C792 C793 1.414 1_554 S
C792 C795 1.499 . S
C793 H767 0.950 . S
C793 C792 1.414 1_556 S
C793 C794 1.374 . S
C794 H768 0.950 . S
C794 C790 1.385 1_556 S
C794 C793 1.374 . S
C795 C792 1.499 . S
C795 C796 1.373 1_554 S
C795 C797 1.389 . S
C796 H769 0.950 . S
C796 C782 1.377 . S
C796 C795 1.373 1_556 S
C797 C781 1.377 . S
C797 C795 1.389 . S
C797 C798 1.524 . S
C798 C797 1.524 . S
C798 C799 1.397 . S
C798 C803 1.363 . S
C799 H770 0.950 . S
C799 C798 1.397 . S
C799 C800 1.334 . S
C800 H771 0.950 . S
C800 C799 1.334 . S
C800 C801 1.287 . S
C801 C800 1.287 . S
C801 C802 1.524 . S
C801 H804 0.999 . S
C802 H772 0.950 . S
C802 C801 1.524 . S
C802 C803 1.415 . S
C803 H773 0.950 . S
C803 C798 1.363 . S
C803 C802 1.415 . S
H804 C801 0.999 . S
H805 C786 0.913 . S
H806 C824 0.951 . S
H807 C826 0.951 . S
H808 C828 0.950 . S
H809 C829 0.950 . S
H810 C831 0.950 . S
H811 C834 0.950 . S
H812 C835 0.950 . S
H813 C837 0.950 . S
H814 C838 0.950 . S
H815 C839 0.951 . S
H816 C841 0.951 . S
H817 C843 0.950 . S
H818 C844 0.950 . S
H819 C846 0.950 . S
H820 C849 0.950 . S
H821 C850 0.950 . S
H822 C852 0.950 . S
H823 C853 0.950 . S
C824 H806 0.951 . S
C824 C825 1.366 1_556 S
C824 C826 1.388 . S
C825 C824 1.366 1_554 S
C825 C829 1.385 . S
C826 H807 0.951 . S
C826 C824 1.388 . S
C826 C827 1.366 1_556 S
C827 C826 1.366 1_554 S
C827 C828 1.414 . S
C827 C830 1.499 . S
C828 H808 0.950 . S
C828 C827 1.414 . S
C828 C829 1.374 . S
C829 H809 0.950 . S
C829 C825 1.385 . S
C829 C828 1.374 . S
C830 C827 1.499 . S
C830 C831 1.373 . S
C830 C832 1.389 1_554 S
C831 H810 0.950 . S
C831 C830 1.373 . S
C831 C847 1.377 . S
C832 C830 1.389 1_556 S
C832 C833 1.524 . S
C832 C846 1.377 . S
C833 C832 1.524 . S
C833 C834 1.397 . S
C833 C838 1.363 . S
C834 H811 0.950 . S
C834 C833 1.397 . S
C834 C835 1.334 . S
C835 H812 0.950 . S
C835 C834 1.334 . S
C835 C836 1.287 . S
C836 C835 1.287 . S
C836 C837 1.524 . S
C836 H855 0.913 . S
C837 H813 0.950 . S
C837 C836 1.524 . S
C837 C838 1.415 . S
C838 H814 0.950 . S
C838 C833 1.363 . S
C838 C837 1.415 . S
C839 H815 0.951 . S
C839 C840 1.366 . S
C839 C841 1.388 . S
C840 C839 1.366 . S
C840 C844 1.385 1_554 S
C841 H816 0.951 . S
C841 C839 1.388 . S
C841 C842 1.366 . S
C842 C841 1.366 . S
C842 C843 1.414 1_554 S
C842 C845 1.499 . S
C843 H817 0.950 . S
C843 C842 1.414 1_556 S
C843 C844 1.374 . S
C844 H818 0.950 . S
C844 C840 1.385 1_556 S
C844 C843 1.374 . S
C845 C842 1.499 . S
C845 C846 1.373 1_554 S
C845 C847 1.389 . S
C846 H819 0.950 . S
C846 C832 1.377 . S
C846 C845 1.373 1_556 S
C847 C831 1.377 . S
C847 C845 1.389 . S
C847 C848 1.524 . S
C848 C847 1.524 . S
C848 C849 1.397 . S
C848 C853 1.363 . S
C849 H820 0.950 . S
C849 C848 1.397 . S
C849 C850 1.334 . S
C850 H821 0.950 . S
C850 C849 1.334 . S
C850 C851 1.287 . S
C851 C850 1.287 . S
C851 C852 1.524 . S
C851 H854 0.999 . S
C852 H822 0.950 . S
C852 C851 1.524 . S
C852 C853 1.415 . S
C853 H823 0.950 . S
C853 C848 1.363 . S
C853 C852 1.415 . S
H854 C851 0.999 . S
H855 C836 0.913 . S
H856 C874 0.951 . S
H857 C876 0.951 . S
H858 C878 0.950 . S
H859 C879 0.950 . S
H860 C881 0.950 . S
H861 C884 0.950 . S
H862 C885 0.950 . S
H863 C887 0.950 . S
H864 C888 0.950 . S
H865 C889 0.951 . S
H866 C891 0.951 . S
H867 C893 0.937 1_556 S
H868 C894 0.950 1_556 S
H869 C896 0.950 . S
H870 C899 0.950 . S
H871 C900 0.950 . S
H872 C902 0.950 . S
H873 C903 0.950 . S
C874 H856 0.951 . S
C874 C875 1.366 1_556 S
C874 C876 1.388 . S
C875 C874 1.366 1_554 S
C875 C879 1.385 . S
C876 H857 0.951 . S
C876 C874 1.388 . S
C876 C877 1.366 1_556 S
C877 C876 1.366 1_554 S
C877 C878 1.414 . S
C877 C880 1.499 . S
C878 H858 0.950 . S
C878 C877 1.414 . S
C878 C879 1.374 . S
C879 H859 0.950 . S
C879 C875 1.385 . S
C879 C878 1.374 . S
C880 C877 1.499 . S
C880 C881 1.373 . S
C880 C882 1.389 1_554 S
C881 H860 0.950 . S
C881 C880 1.373 . S
C881 C897 1.377 . S
C882 C880 1.389 1_556 S
C882 C883 1.524 . S
C882 C896 1.377 . S
C883 C882 1.524 . S
C883 C884 1.397 . S
C883 C888 1.363 . S
C884 H861 0.950 . S
C884 C883 1.397 . S
C884 C885 1.334 . S
C885 H862 0.950 . S
C885 C884 1.334 . S
C885 C886 1.287 . S
C886 C885 1.287 . S
C886 C887 1.524 . S
C886 H905 0.913 . S
C887 H863 0.950 . S
C887 C886 1.524 . S
C887 C888 1.415 . S
C888 H864 0.950 . S
C888 C883 1.363 . S
C888 C887 1.415 . S
C889 H865 0.951 . S
C889 C890 1.366 . S
C889 C891 1.388 . S
C890 C889 1.366 . S
C890 C894 1.385 . S
C891 H866 0.951 . S
C891 C889 1.388 . S
C891 C892 1.366 . S
C892 C891 1.366 . S
C892 C893 1.426 . S
C892 C895 1.499 . S
C893 H867 0.937 1_554 S
C893 C892 1.426 . S
C893 C894 1.375 . S
C894 H868 0.950 1_554 S
C894 C890 1.385 . S
C894 C893 1.375 . S
C895 C892 1.499 . S
C895 C896 1.373 1_554 S
C895 C897 1.389 . S
C896 H869 0.950 . S
C896 C882 1.377 . S
C896 C895 1.373 1_556 S
C897 C881 1.377 . S
C897 C895 1.389 . S
C897 C898 1.524 . S
C898 C897 1.524 . S
C898 C899 1.397 . S
C898 C903 1.363 . S
C899 H870 0.950 . S
C899 C898 1.397 . S
C899 C900 1.334 . S
C900 H871 0.950 . S
C900 C899 1.334 . S
C900 C901 1.287 . S
C901 C900 1.287 . S
C901 C902 1.524 . S
C901 H904 0.999 . S
C902 H872 0.950 . S
C902 C901 1.524 . S
C902 C903 1.415 . S
C903 H873 0.950 . S
C903 C898 1.363 . S
C903 C902 1.415 . S
H904 C901 0.999 . S
H905 C886 0.913 . S
H906 C924 0.951 . S
H907 C926 0.951 . S
H908 C928 0.951 . S
H909 C929 0.950 1_554 S
H910 C931 0.950 . S
H911 C934 0.950 . S
H912 C935 0.950 . S
H913 C937 0.950 . S
H914 C938 0.950 . S
H915 C939 0.951 . S
H916 C941 0.951 . S
H917 C943 0.950 . S
H918 C944 0.950 . S
H919 C946 0.950 . S
H920 C949 0.950 . S
H921 C950 0.950 . S
H922 C952 0.950 . S
H923 C953 0.950 . S
C924 H906 0.951 . S
C924 C925 1.366 . S
C924 C926 1.388 . S
C925 C924 1.366 . S
C925 C929 1.385 . S
C926 H907 0.951 . S
C926 C924 1.388 . S
C926 C927 1.366 . S
C927 C926 1.366 . S
C927 C928 1.413 1_556 S
C927 C930 1.499 . S
C928 H908 0.951 . S
C928 C927 1.413 1_554 S
C928 C929 1.374 1_554 S
C929 H909 0.950 1_556 S
C929 C925 1.385 . S
C929 C928 1.374 1_556 S
C930 C927 1.499 . S
C930 C931 1.373 . S
C930 C932 1.389 1_556 S
C931 H910 0.950 . S
C931 C930 1.373 . S
C931 C947 1.377 . S
C932 C930 1.389 1_554 S
C932 C933 1.524 . S
C932 C946 1.377 . S
C933 C932 1.524 . S
C933 C934 1.397 . S
C933 C938 1.363 . S
C934 H911 0.950 . S
C934 C933 1.397 . S
C934 C935 1.334 . S
C935 H912 0.950 . S
C935 C934 1.334 . S
C935 C936 1.287 . S
C936 C935 1.287 . S
C936 C937 1.524 . S
C936 H955 0.913 . S
C937 H913 0.950 . S
C937 C936 1.524 . S
C937 C938 1.415 . S
C938 H914 0.950 . S
C938 C933 1.363 . S
C938 C937 1.415 . S
C939 H915 0.951 . S
C939 C940 1.366 . S
C939 C941 1.388 . S
C940 C939 1.366 . S
C940 C944 1.385 1_554 S
C941 H916 0.951 . S
C941 C939 1.388 . S
C941 C942 1.366 1_554 S
C942 C941 1.366 1_556 S
C942 C943 1.414 . S
C942 C945 1.499 . S
C943 H917 0.950 . S
C943 C942 1.414 . S
C943 C944 1.374 . S
C944 H918 0.950 . S
C944 C940 1.385 1_556 S
C944 C943 1.374 . S
C945 C942 1.499 . S
C945 C946 1.373 1_556 S
C945 C947 1.389 . S
C946 H919 0.950 . S
C946 C932 1.377 . S
C946 C945 1.373 1_554 S
C947 C931 1.377 . S
C947 C945 1.389 . S
C947 C948 1.524 . S
C948 C947 1.524 . S
C948 C949 1.397 . S
C948 C953 1.363 . S
C949 H920 0.950 . S
C949 C948 1.397 . S
C949 C950 1.334 . S
C950 H921 0.950 . S
C950 C949 1.334 . S
C950 C951 1.287 . S
C951 C950 1.287 . S
C951 C952 1.524 . S
C951 H954 0.999 . S
C952 H922 0.950 . S
C952 C951 1.524 . S
C952 C953 1.415 . S
C953 H923 0.950 . S
C953 C948 1.363 . S
C953 C952 1.415 . S
H954 C951 0.999 . S
H955 C936 0.913 . S
H956 C974 0.951 . S
H957 C976 0.951 . S
H958 C978 0.950 . S
H959 C979 0.950 . S
H960 C981 0.950 . S
H961 C984 0.950 . S
H962 C985 0.950 . S
H963 C987 0.950 . S
H964 C988 0.950 . S
H965 C989 0.951 . S
H966 C991 0.951 . S
H967 C993 0.950 . S
H968 C994 0.950 . S
H969 C996 0.950 . S
H970 C999 0.950 . S
H971 C1000 0.950 . S
H972 C1002 0.950 . S
H973 C1003 0.950 . S
C974 H956 0.951 . S
C974 C975 1.366 1_556 S
C974 C976 1.388 . S
C975 C974 1.366 1_554 S
C975 C979 1.385 . S
C976 H957 0.951 . S
C976 C974 1.388 . S
C976 C977 1.363 . S
C977 C976 1.363 . S
C977 C978 1.417 1_556 S
C977 C980 1.499 . S
C978 H958 0.950 . S
C978 C977 1.417 1_554 S
C978 C979 1.374 . S
C979 H959 0.950 . S
C979 C975 1.385 . S
C979 C978 1.374 . S
C980 C977 1.499 . S
C980 C981 1.373 1_556 S
C980 C982 1.389 . S
C981 H960 0.950 . S
C981 C980 1.373 1_554 S
C981 C997 1.377 1_554 S
C982 C980 1.389 . S
C982 C983 1.524 . S
C982 C996 1.377 . S
C983 C982 1.524 . S
C983 C984 1.397 1_556 S
C983 C988 1.363 . S
C984 H961 0.950 . S
C984 C983 1.397 1_554 S
C984 C985 1.334 . S
C985 H962 0.950 . S
C985 C984 1.334 . S
C985 C986 1.287 1_554 S
C986 C985 1.287 1_556 S
C986 C987 1.524 . S
C986 H1005 0.913 . S
C987 H963 0.950 . S
C987 C986 1.524 . S
C987 C988 1.415 . S
C988 H964 0.950 . S
C988 C983 1.363 . S
C988 C987 1.415 . S
C989 H965 0.951 . S
C989 C990 1.366 1_554 S
C989 C991 1.388 . S
C990 C989 1.366 1_556 S
C990 C994 1.385 . S
C991 H966 0.951 . S
C991 C989 1.388 . S
C991 C992 1.366 1_554 S
C992 C991 1.366 1_556 S
C992 C993 1.414 . S
C992 C995 1.499 . S
C993 H967 0.950 . S
C993 C992 1.414 . S
C993 C994 1.374 . S
C994 H968 0.950 . S
C994 C990 1.385 . S
C994 C993 1.374 . S
C995 C992 1.499 . S
C995 C996 1.373 . S
C995 C997 1.389 . S
C996 H969 0.950 . S
C996 C982 1.377 . S
C996 C995 1.373 . S
C997 C981 1.377 1_556 S
C997 C995 1.389 . S
C997 C998 1.525 1_556 S
C998 C997 1.525 1_554 S
C998 C999 1.397 1_554 S
C998 C1003 1.363 . S
C999 H970 0.950 . S
C999 C998 1.397 1_556 S
C999 C1000 1.334 . S
C1000 H971 0.950 . S
C1000 C999 1.334 . S
C1000 C1001 1.287 1_556 S
C1001 C1000 1.287 1_554 S
C1001 C1002 1.524 . S
C1001 H1004 0.999 . S
C1002 H972 0.950 . S
C1002 C1001 1.524 . S
C1002 C1003 1.415 . S
C1003 H973 0.950 . S
C1003 C998 1.363 . S
C1003 C1002 1.415 . S
H1004 C1001 0.999 . S
H1005 C986 0.913 . S
H1006 C1024 0.951 . S
H1007 C1026 0.951 . S
H1008 C1028 0.950 . S
H1009 C1029 0.950 . S
H1010 C1031 0.950 . S
H1011 C1034 0.950 . S
H1012 C1035 0.950 . S
H1013 C1037 0.950 . S
H1014 C1038 0.950 . S
H1015 C1039 0.951 . S
H1016 C1041 0.951 . S
H1017 C1043 0.950 . S
H1018 C1044 0.964 . S
H1019 C1046 0.950 . S
H1020 C1049 0.950 . S
H1021 C1050 0.950 . S
H1022 C1052 0.950 . S
H1023 C1053 0.950 1_556 S
C1024 H1006 0.951 . S
C1024 C1025 1.366 . S
C1024 C1026 1.388 . S
C1025 C1024 1.366 . S
C1025 C1029 1.385 1_554 S
C1026 H1007 0.951 . S
C1026 C1024 1.388 . S
C1026 C1027 1.366 1_554 S
C1027 C1026 1.366 1_556 S
C1027 C1028 1.414 . S
C1027 C1030 1.499 . S
C1028 H1008 0.950 . S
C1028 C1027 1.414 . S
C1028 C1029 1.374 . S
C1029 H1009 0.950 . S
C1029 C1025 1.385 1_556 S
C1029 C1028 1.374 . S
C1030 C1027 1.499 . S
C1030 C1031 1.373 1_556 S
C1030 C1032 1.389 . S
C1031 H1010 0.950 . S
C1031 C1030 1.373 1_554 S
C1031 C1047 1.377 . S
C1032 C1030 1.389 . S
C1032 C1033 1.524 . S
C1032 C1046 1.377 . S
C1033 C1032 1.524 . S
C1033 C1034 1.397 . S
C1033 C1038 1.363 . S
C1034 H1011 0.950 . S
C1034 C1033 1.397 . S
C1034 C1035 1.334 . S
C1035 H1012 0.950 . S
C1035 C1034 1.334 . S
C1035 C1036 1.287 . S
C1036 C1035 1.287 . S
C1036 C1037 1.524 . S
C1036 H1055 0.913 . S
C1037 H1013 0.950 . S
C1037 C1036 1.524 . S
C1037 C1038 1.415 . S
C1038 H1014 0.950 . S
C1038 C1033 1.363 . S
C1038 C1037 1.415 . S
C1039 H1015 0.951 . S
C1039 C1040 1.366 . S
C1039 C1041 1.388 . S
C1040 C1039 1.366 . S
C1040 C1044 1.369 1_556 S
C1041 H1016 0.951 . S
C1041 C1039 1.388 . S
C1041 C1042 1.366 . S
C1042 C1041 1.366 . S
C1042 C1043 1.414 1_556 S
C1042 C1045 1.499 . S
C1043 H1017 0.950 . S
C1043 C1042 1.414 1_554 S
C1043 C1044 1.377 . S
C1044 H1018 0.964 . S
C1044 C1040 1.369 1_554 S
C1044 C1043 1.377 . S
C1045 C1042 1.499 . S
C1045 C1046 1.373 . S
C1045 C1047 1.389 1_556 S
C1046 H1019 0.950 . S
C1046 C1032 1.377 . S
C1046 C1045 1.373 . S
C1047 C1031 1.377 . S
C1047 C1045 1.389 1_554 S
C1047 C1048 1.524 . S
C1048 C1047 1.524 . S
C1048 C1049 1.397 . S
C1048 C1053 1.363 . S
C1049 H1020 0.950 . S
C1049 C1048 1.397 . S
C1049 C1050 1.334 . S
C1050 H1021 0.950 . S
C1050 C1049 1.334 . S
C1050 C1051 1.287 . S
C1051 C1050 1.287 . S
C1051 C1052 1.524 . S
C1051 H1054 0.999 . S
C1052 H1022 0.950 . S
C1052 C1051 1.524 . S
C1052 C1053 1.415 . S
C1053 H1023 0.950 1_554 S
C1053 C1048 1.363 . S
C1053 C1052 1.415 . S
H1054 C1051 0.999 . S
H1055 C1036 0.913 . S
H1056 C1074 0.951 . S
H1057 C1076 0.951 . S
H1058 C1078 0.950 . S
H1059 C1079 0.950 . S
H1060 C1081 0.950 . S
H1061 C1084 0.950 . S
H1062 C1085 0.950 . S
H1063 C1087 0.950 . S
H1064 C1088 0.950 . S
H1065 C1089 0.951 . S
H1066 C1091 0.951 . S
H1067 C1093 0.950 . S
H1068 C1094 0.950 . S
H1069 C1096 0.950 . S
H1070 C1099 0.950 . S
H1071 C1100 0.950 . S
H1072 C1102 0.950 . S
H1073 C1103 0.950 . S
C1074 H1056 0.951 . S
C1074 C1075 1.366 . S
C1074 C1076 1.388 . S
C1075 C1074 1.366 . S
C1075 C1079 1.385 . S
C1076 H1057 0.951 . S
C1076 C1074 1.388 . S
C1076 C1077 1.366 . S
C1077 C1076 1.366 . S
C1077 C1078 1.414 . S
C1077 C1080 1.499 . S
C1078 H1058 0.950 . S
C1078 C1077 1.414 . S
C1078 C1079 1.374 . S
C1079 H1059 0.950 . S
C1079 C1075 1.385 . S
C1079 C1078 1.374 . S
C1080 C1077 1.499 . S
C1080 C1081 1.373 . S
C1080 C1082 1.389 . S
C1081 H1060 0.950 . S
C1081 C1080 1.373 . S
C1081 C1097 1.377 . S
C1082 C1080 1.389 . S
C1082 C1083 1.524 . S
C1082 C1096 1.377 . S
C1083 C1082 1.524 . S
C1083 C1084 1.397 . S
C1083 C1088 1.363 . S
C1084 H1061 0.950 . S
C1084 C1083 1.397 . S
C1084 C1085 1.334 . S
C1085 H1062 0.950 . S
C1085 C1084 1.334 . S
C1085 C1086 1.287 . S
C1086 C1085 1.287 . S
C1086 C1087 1.524 . S
C1086 H1105 0.913 . S
C1087 H1063 0.950 . S
C1087 C1086 1.524 . S
C1087 C1088 1.415 . S
C1088 H1064 0.950 . S
C1088 C1083 1.363 . S
C1088 C1087 1.415 . S
C1089 H1065 0.951 . S
C1089 C1090 1.366 1_655 S
C1089 C1091 1.388 . S
C1090 C1089 1.366 1_455 S
C1090 C1094 1.385 . S
C1091 H1066 0.951 . S
C1091 C1089 1.388 . S
C1091 C1092 1.366 . S
C1092 C1091 1.366 . S
C1092 C1093 1.414 . S
C1092 C1095 1.499 . S
C1093 H1067 0.950 . S
C1093 C1092 1.414 . S
C1093 C1094 1.374 1_655 S
C1094 H1068 0.950 . S
C1094 C1090 1.385 . S
C1094 C1093 1.374 1_455 S
C1095 C1092 1.499 . S
C1095 C1096 1.373 . S
C1095 C1097 1.389 . S
C1096 H1069 0.950 . S
C1096 C1082 1.377 . S
C1096 C1095 1.373 . S
C1097 C1081 1.377 . S
C1097 C1095 1.389 . S
C1097 C1098 1.524 . S
C1098 C1097 1.524 . S
C1098 C1099 1.397 . S
C1098 C1103 1.363 . S
C1099 H1070 0.950 . S
C1099 C1098 1.397 . S
C1099 C1100 1.334 . S
C1100 H1071 0.950 . S
C1100 C1099 1.334 . S
C1100 C1101 1.287 . S
C1101 C1100 1.287 . S
C1101 C1102 1.524 . S
C1101 H1104 0.999 . S
C1102 H1072 0.950 . S
C1102 C1101 1.524 . S
C1102 C1103 1.415 . S
C1103 H1073 0.950 . S
C1103 C1098 1.363 . S
C1103 C1102 1.415 . S
H1104 C1101 0.999 . S
H1105 C1086 0.913 . S
H1106 C1124 0.951 . S
H1107 C1126 0.951 . S
H1108 C1128 0.950 . S
H1109 C1129 0.950 . S
H1110 C1131 0.950 . S
H1111 C1134 0.950 . S
H1112 C1135 0.950 . S
H1113 C1137 0.950 1_565 S
H1114 C1138 0.937 1_565 S
H1115 C1139 0.951 . S
H1116 C1141 0.951 . S
H1117 C1143 0.950 . S
H1118 C1144 0.950 . S
H1119 C1146 0.950 . S
H1120 C1149 0.950 . S
H1121 C1150 0.950 . S
H1122 C1152 0.950 . S
H1123 C1153 0.950 . S
C1124 H1106 0.951 . S
C1124 C1125 1.366 . S
C1124 C1126 1.388 . S
C1125 C1124 1.366 . S
C1125 C1129 1.385 . S
C1126 H1107 0.951 . S
C1126 C1124 1.388 . S
C1126 C1127 1.366 . S
C1127 C1126 1.366 . S
C1127 C1128 1.414 . S
C1127 C1130 1.499 . S
C1128 H1108 0.950 . S
C1128 C1127 1.414 . S
C1128 C1129 1.374 . S
C1129 H1109 0.950 . S
C1129 C1125 1.385 . S
C1129 C1128 1.374 . S
C1130 C1127 1.499 . S
C1130 C1131 1.373 . S
C1130 C1132 1.389 . S
C1131 H1110 0.950 . S
C1131 C1130 1.373 . S
C1131 C1147 1.377 . S
C1132 C1130 1.389 . S
C1132 C1133 1.524 . S
C1132 C1146 1.377 . S
C1133 C1132 1.524 . S
C1133 C1134 1.397 . S
C1133 C1138 1.363 . S
C1134 H1111 0.950 . S
C1134 C1133 1.397 . S
C1134 C1135 1.334 . S
C1135 H1112 0.950 . S
C1135 C1134 1.334 . S
C1135 C1136 1.287 . S
C1136 C1135 1.287 . S
C1136 C1137 1.524 . S
C1136 H1155 0.913 . S
C1137 H1113 0.950 1_545 S
C1137 C1136 1.524 . S
C1137 C1138 1.415 . S
C1138 H1114 0.937 1_545 S
C1138 C1133 1.363 . S
C1138 C1137 1.415 . S
C1139 H1115 0.951 . S
C1139 C1140 1.366 . S
C1139 C1141 1.388 1_565 S
C1140 C1139 1.366 . S
C1140 C1144 1.385 . S
C1141 H1116 0.951 . S
C1141 C1139 1.388 1_545 S
C1141 C1142 1.366 1_545 S
C1142 C1141 1.366 1_565 S
C1142 C1143 1.414 . S
C1142 C1145 1.499 1_565 S
C1143 H1117 0.950 . S
C1143 C1142 1.414 . S
C1143 C1144 1.374 . S
C1144 H1118 0.950 . S
C1144 C1140 1.385 . S
C1144 C1143 1.374 . S
C1145 C1142 1.499 1_545 S
C1145 C1146 1.373 . S
C1145 C1147 1.389 . S
C1146 H1119 0.950 . S
C1146 C1132 1.377 . S
C1146 C1145 1.373 . S
C1147 C1131 1.377 . S
C1147 C1145 1.389 . S
C1147 C1148 1.524 . S
C1148 C1147 1.524 . S
C1148 C1149 1.397 . S
C1148 C1153 1.363 . S
C1149 H1120 0.950 . S
C1149 C1148 1.397 . S
C1149 C1150 1.334 . S
C1150 H1121 0.950 . S
C1150 C1149 1.334 . S
C1150 C1151 1.287 . S
C1151 C1150 1.287 . S
C1151 C1152 1.524 . S
C1151 H1154 0.999 . S
C1152 H1122 0.950 . S
C1152 C1151 1.524 . S
C1152 C1153 1.415 . S
C1153 H1123 0.950 . S
C1153 C1148 1.363 . S
C1153 C1152 1.415 . S
H1154 C1151 0.999 . S
H1155 C1136 0.913 . S
H1156 C1174 0.951 . S
H1157 C1176 0.951 . S
H1158 C1178 0.950 . S
H1159 C1179 0.950 . S
H1160 C1181 0.950 1_455 S
H1161 C1184 0.950 . S
H1162 C1185 0.950 . S
H1163 C1187 0.950 . S
H1164 C1188 0.950 . S
H1165 C1189 0.951 . S
H1166 C1191 0.951 . S
H1167 C1193 0.950 . S
H1168 C1194 0.950 . S
H1169 C1196 0.950 . S
H1170 C1199 0.950 . S
H1171 C1200 0.950 . S
H1172 C1202 0.950 . S
H1173 C1203 0.950 . S
C1174 H1156 0.951 . S
C1174 C1175 1.366 . S
C1174 C1176 1.388 . S
C1175 C1174 1.366 . S
C1175 C1179 1.385 . S
C1176 H1157 0.951 . S
C1176 C1174 1.388 . S
C1176 C1177 1.366 . S
C1177 C1176 1.366 . S
C1177 C1178 1.414 . S
C1177 C1180 1.499 1_455 S
C1178 H1158 0.950 . S
C1178 C1177 1.414 . S
C1178 C1179 1.374 . S
C1179 H1159 0.950 . S
C1179 C1175 1.385 . S
C1179 C1178 1.374 . S
C1180 C1177 1.499 1_655 S
C1180 C1181 1.373 . S
C1180 C1182 1.389 . S
C1181 H1160 0.950 1_655 S
C1181 C1180 1.373 . S
C1181 C1197 1.377 . S
C1182 C1180 1.389 . S
C1182 C1183 1.524 . S
C1182 C1196 1.377 . S
C1183 C1182 1.524 . S
C1183 C1184 1.397 . S
C1183 C1188 1.363 . S
C1184 H1161 0.950 . S
C1184 C1183 1.397 . S
C1184 C1185 1.334 . S
C1185 H1162 0.950 . S
C1185 C1184 1.334 . S
C1185 C1186 1.287 . S
C1186 C1185 1.287 . S
C1186 C1187 1.524 . S
C1186 H1205 0.913 . S
C1187 H1163 0.950 . S
C1187 C1186 1.524 . S
C1187 C1188 1.415 . S
C1188 H1164 0.950 . S
C1188 C1183 1.363 . S
C1188 C1187 1.415 . S
C1189 H1165 0.951 . S
C1189 C1190 1.365 1_545 S
C1189 C1191 1.388 . S
C1190 C1189 1.365 1_565 S
C1190 C1194 1.384 1_565 S
C1191 H1166 0.951 . S
C1191 C1189 1.388 . S
C1191 C1192 1.366 . S
C1192 C1191 1.366 . S
C1192 C1193 1.414 . S
C1192 C1195 1.499 . S
C1193 H1167 0.950 . S
C1193 C1192 1.414 . S
C1193 C1194 1.374 . S
C1194 H1168 0.950 . S
C1194 C1190 1.384 1_545 S
C1194 C1193 1.374 . S
C1195 C1192 1.499 . S
C1195 C1196 1.373 . S
C1195 C1197 1.389 . S
C1196 H1169 0.950 . S
C1196 C1182 1.377 . S
C1196 C1195 1.373 . S
C1197 C1181 1.377 . S
C1197 C1195 1.389 . S
C1197 C1198 1.524 . S
C1198 C1197 1.524 . S
C1198 C1199 1.397 . S
C1198 C1203 1.363 . S
C1199 H1170 0.950 . S
C1199 C1198 1.397 . S
C1199 C1200 1.334 . S
C1200 H1171 0.950 . S
C1200 C1199 1.334 . S
C1200 C1201 1.285 . S
C1201 C1200 1.285 . S
C1201 C1202 1.523 1_655 S
C1201 H1204 1.001 1_655 S
C1202 H1172 0.950 . S
C1202 C1201 1.523 1_455 S
C1202 C1203 1.415 1_455 S
C1203 H1173 0.950 . S
C1203 C1198 1.363 . S
C1203 C1202 1.415 1_655 S
H1204 C1201 1.001 1_455 S
H1205 C1186 0.913 . S
H1206 C1224 0.951 . S
H1207 C1226 0.951 . S
H1208 C1228 0.950 . S
H1209 C1229 0.950 . S
H1210 C1231 0.950 . S
H1211 C1234 0.950 . S
H1212 C1235 0.950 . S
H1213 C1237 0.950 . S
H1214 C1238 0.950 . S
H1215 C1239 0.951 . S
H1216 C1241 0.951 . S
H1217 C1243 0.950 . S
H1218 C1244 0.950 . S
H1219 C1246 0.950 . S
H1220 C1249 0.950 . S
H1221 C1250 0.950 . S
H1222 C1252 0.950 . S
H1223 C1253 0.950 . S
C1224 H1206 0.951 . S
C1224 C1225 1.366 . S
C1224 C1226 1.388 . S
C1225 C1224 1.366 . S
C1225 C1229 1.385 . S
C1226 H1207 0.951 . S
C1226 C1224 1.388 . S
C1226 C1227 1.366 . S
C1227 C1226 1.366 . S
C1227 C1228 1.414 . S
C1227 C1230 1.499 . S
C1228 H1208 0.950 . S
C1228 C1227 1.414 . S
C1228 C1229 1.374 . S
C1229 H1209 0.950 . S
C1229 C1225 1.385 . S
C1229 C1228 1.374 . S
C1230 C1227 1.499 . S
C1230 C1231 1.373 . S
C1230 C1232 1.389 . S
C1231 H1210 0.950 . S
C1231 C1230 1.373 . S
C1231 C1247 1.377 . S
C1232 C1230 1.389 . S
C1232 C1233 1.524 . S
C1232 C1246 1.377 . S
C1233 C1232 1.524 . S
C1233 C1234 1.397 . S
C1233 C1238 1.363 . S
C1234 H1211 0.950 . S
C1234 C1233 1.397 . S
C1234 C1235 1.334 . S
C1235 H1212 0.950 . S
C1235 C1234 1.334 . S
C1235 C1236 1.287 . S
C1236 C1235 1.287 . S
C1236 C1237 1.524 . S
C1236 H1255 0.913 . S
C1237 H1213 0.950 . S
C1237 C1236 1.524 . S
C1237 C1238 1.415 . S
C1238 H1214 0.950 . S
C1238 C1233 1.363 . S
C1238 C1237 1.415 . S
C1239 H1215 0.951 . S
C1239 C1240 1.366 . S
C1239 C1241 1.388 . S
C1240 C1239 1.366 . S
C1240 C1244 1.385 . S
C1241 H1216 0.951 . S
C1241 C1239 1.388 . S
C1241 C1242 1.366 . S
C1242 C1241 1.366 . S
C1242 C1243 1.414 . S
C1242 C1245 1.499 . S
C1243 H1217 0.950 . S
C1243 C1242 1.414 . S
C1243 C1244 1.374 . S
C1244 H1218 0.950 . S
C1244 C1240 1.385 . S
C1244 C1243 1.374 . S
C1245 C1242 1.499 . S
C1245 C1246 1.373 . S
C1245 C1247 1.389 . S
C1246 H1219 0.950 . S
C1246 C1232 1.377 . S
C1246 C1245 1.373 . S
C1247 C1231 1.377 . S
C1247 C1245 1.389 . S
C1247 C1248 1.524 . S
C1248 C1247 1.524 . S
C1248 C1249 1.397 . S
C1248 C1253 1.363 . S
C1249 H1220 0.950 . S
C1249 C1248 1.397 . S
C1249 C1250 1.334 . S
C1250 H1221 0.950 . S
C1250 C1249 1.334 . S
C1250 C1251 1.287 . S
C1251 C1250 1.287 . S
C1251 C1252 1.524 . S
C1251 H1254 0.999 . S
C1252 H1222 0.950 . S
C1252 C1251 1.524 . S
C1252 C1253 1.415 . S
C1253 H1223 0.950 . S
C1253 C1248 1.363 . S
C1253 C1252 1.415 . S
H1254 C1251 0.999 . S
H1255 C1236 0.913 . S
H1256 C1274 0.951 . S
H1257 C1276 0.951 . S
H1258 C1278 0.950 . S
H1259 C1279 0.950 . S
H1260 C1281 0.950 . S
H1261 C1284 0.950 . S
H1262 C1285 0.950 . S
H1263 C1287 0.950 . S
H1264 C1288 0.950 . S
H1265 C1289 0.951 . S
H1266 C1291 0.951 . S
H1267 C1293 0.950 . S
H1268 C1294 0.950 . S
H1269 C1296 0.950 . S
H1270 C1299 0.950 . S
H1271 C1300 0.950 . S
H1272 C1302 0.950 . S
H1273 C1303 0.950 . S
C1274 H1256 0.951 . S
C1274 C1275 1.366 . S
C1274 C1276 1.388 . S
C1275 C1274 1.366 . S
C1275 C1279 1.385 . S
C1276 H1257 0.951 . S
C1276 C1274 1.388 . S
C1276 C1277 1.366 . S
C1277 C1276 1.366 . S
C1277 C1278 1.414 . S
C1277 C1280 1.499 . S
C1278 H1258 0.950 . S
C1278 C1277 1.414 . S
C1278 C1279 1.374 . S
C1279 H1259 0.950 . S
C1279 C1275 1.385 . S
C1279 C1278 1.374 . S
C1280 C1277 1.499 . S
C1280 C1281 1.373 . S
C1280 C1282 1.389 . S
C1281 H1260 0.950 . S
C1281 C1280 1.373 . S
C1281 C1297 1.377 . S
C1282 C1280 1.389 . S
C1282 C1283 1.524 . S
C1282 C1296 1.377 . S
C1283 C1282 1.524 . S
C1283 C1284 1.397 . S
C1283 C1288 1.363 . S
C1284 H1261 0.950 . S
C1284 C1283 1.397 . S
C1284 C1285 1.334 . S
C1285 H1262 0.950 . S
C1285 C1284 1.334 . S
C1285 C1286 1.287 . S
C1286 C1285 1.287 . S
C1286 C1287 1.524 . S
C1286 H1305 0.913 . S
C1287 H1263 0.950 . S
C1287 C1286 1.524 . S
C1287 C1288 1.415 . S
C1288 H1264 0.950 . S
C1288 C1283 1.363 . S
C1288 C1287 1.415 . S
C1289 H1265 0.951 . S
C1289 C1290 1.366 . S
C1289 C1291 1.388 . S
C1290 C1289 1.366 . S
C1290 C1294 1.385 . S
C1291 H1266 0.951 . S
C1291 C1289 1.388 . S
C1291 C1292 1.366 . S
C1292 C1291 1.366 . S
C1292 C1293 1.414 . S
C1292 C1295 1.499 . S
C1293 H1267 0.950 . S
C1293 C1292 1.414 . S
C1293 C1294 1.374 . S
C1294 H1268 0.950 . S
C1294 C1290 1.385 . S
C1294 C1293 1.374 . S
C1295 C1292 1.499 . S
C1295 C1296 1.373 . S
C1295 C1297 1.389 . S
C1296 H1269 0.950 . S
C1296 C1282 1.377 . S
C1296 C1295 1.373 . S
C1297 C1281 1.377 . S
C1297 C1295 1.389 . S
C1297 C1298 1.524 . S
C1298 C1297 1.524 . S
C1298 C1299 1.397 . S
C1298 C1303 1.363 . S
C1299 H1270 0.950 . S
C1299 C1298 1.397 . S
C1299 C1300 1.334 . S
C1300 H1271 0.950 . S
C1300 C1299 1.334 . S
C1300 C1301 1.287 . S
C1301 C1300 1.287 . S
C1301 C1302 1.524 . S
C1301 H1304 0.999 . S
C1302 H1272 0.950 . S
C1302 C1301 1.524 . S
C1302 C1303 1.415 . S
C1303 H1273 0.950 . S
C1303 C1298 1.363 . S
C1303 C1302 1.415 . S
H1304 C1301 0.999 . S
H1305 C1286 0.913 . S
H1306 C1324 0.951 . S
H1307 C1326 0.951 . S
H1308 C1328 0.950 . S
H1309 C1329 0.950 . S
H1310 C1331 0.950 . S
H1311 C1334 0.950 . S
H1312 C1335 0.950 . S
H1313 C1337 0.950 . S
H1314 C1338 0.950 . S
H1315 C1339 0.951 . S
H1316 C1341 0.951 . S
H1317 C1343 0.950 . S
H1318 C1344 0.950 . S
H1319 C1346 0.950 . S
H1320 C1349 0.950 . S
H1321 C1350 0.950 . S
H1322 C1352 0.950 . S
H1323 C1353 0.950 . S
C1324 H1306 0.951 . S
C1324 C1325 1.366 . S
C1324 C1326 1.388 . S
C1325 C1324 1.366 . S
C1325 C1329 1.385 . S
C1326 H1307 0.951 . S
C1326 C1324 1.388 . S
C1326 C1327 1.366 . S
C1327 C1326 1.366 . S
C1327 C1328 1.414 . S
C1327 C1330 1.499 . S
C1328 H1308 0.950 . S
C1328 C1327 1.414 . S
C1328 C1329 1.374 . S
C1329 H1309 0.950 . S
C1329 C1325 1.385 . S
C1329 C1328 1.374 . S
C1330 C1327 1.499 . S
C1330 C1331 1.373 . S
C1330 C1332 1.389 . S
C1331 H1310 0.950 . S
C1331 C1330 1.373 . S
C1331 C1347 1.377 . S
C1332 C1330 1.389 . S
C1332 C1333 1.524 . S
C1332 C1346 1.377 . S
C1333 C1332 1.524 . S
C1333 C1334 1.397 . S
C1333 C1338 1.363 . S
C1334 H1311 0.950 . S
C1334 C1333 1.397 . S
C1334 C1335 1.334 . S
C1335 H1312 0.950 . S
C1335 C1334 1.334 . S
C1335 C1336 1.287 . S
C1336 C1335 1.287 . S
C1336 C1337 1.524 . S
C1336 H1355 0.913 . S
C1337 H1313 0.950 . S
C1337 C1336 1.524 . S
C1337 C1338 1.415 . S
C1338 H1314 0.950 . S
C1338 C1333 1.363 . S
C1338 C1337 1.415 . S
C1339 H1315 0.951 . S
C1339 C1340 1.366 . S
C1339 C1341 1.388 . S
C1340 C1339 1.366 . S
C1340 C1344 1.385 . S
C1341 H1316 0.951 . S
C1341 C1339 1.388 . S
C1341 C1342 1.366 . S
C1342 C1341 1.366 . S
C1342 C1343 1.414 . S
C1342 C1345 1.499 . S
C1343 H1317 0.950 . S
C1343 C1342 1.414 . S
C1343 C1344 1.374 . S
C1344 H1318 0.950 . S
C1344 C1340 1.385 . S
C1344 C1343 1.374 . S
C1345 C1342 1.499 . S
C1345 C1346 1.373 . S
C1345 C1347 1.389 . S
C1346 H1319 0.950 . S
C1346 C1332 1.377 . S
C1346 C1345 1.373 . S
C1347 C1331 1.377 . S
C1347 C1345 1.389 . S
C1347 C1348 1.524 . S
C1348 C1347 1.524 . S
C1348 C1349 1.397 . S
C1348 C1353 1.363 . S
C1349 H1320 0.950 . S
C1349 C1348 1.397 . S
C1349 C1350 1.334 . S
C1350 H1321 0.950 . S
C1350 C1349 1.334 . S
C1350 C1351 1.287 . S
C1351 C1350 1.287 . S
C1351 C1352 1.524 . S
C1351 H1354 0.999 . S
C1352 H1322 0.950 . S
C1352 C1351 1.524 . S
C1352 C1353 1.415 . S
C1353 H1323 0.950 . S
C1353 C1348 1.363 . S
C1353 C1352 1.415 . S
H1354 C1351 0.999 . S
H1355 C1336 0.913 . S
H1356 C1374 0.951 . S
H1357 C1376 0.951 . S
H1358 C1378 0.950 . S
H1359 C1379 0.950 . S
H1360 C1381 0.950 . S
H1361 C1384 0.950 . S
H1362 C1385 0.950 . S
H1363 C1387 0.950 . S
H1364 C1388 0.950 . S
H1365 C1389 0.951 . S
H1366 C1391 0.951 . S
H1367 C1393 0.950 . S
H1368 C1394 0.950 . S
H1369 C1396 0.950 . S
H1370 C1399 0.950 . S
H1371 C1400 0.950 . S
H1372 C1402 0.950 . S
H1373 C1403 0.950 . S
C1374 H1356 0.951 . S
C1374 C1375 1.366 . S
C1374 C1376 1.388 . S
C1375 C1374 1.366 . S
C1375 C1379 1.385 . S
C1376 H1357 0.951 . S
C1376 C1374 1.388 . S
C1376 C1377 1.366 . S
C1377 C1376 1.366 . S
C1377 C1378 1.414 . S
C1377 C1380 1.499 . S
C1378 H1358 0.950 . S
C1378 C1377 1.414 . S
C1378 C1379 1.374 . S
C1379 H1359 0.950 . S
C1379 C1375 1.385 . S
C1379 C1378 1.374 . S
C1380 C1377 1.499 . S
C1380 C1381 1.373 . S
C1380 C1382 1.389 . S
C1381 H1360 0.950 . S
C1381 C1380 1.373 . S
C1381 C1397 1.377 . S
C1382 C1380 1.389 . S
C1382 C1383 1.524 . S
C1382 C1396 1.377 . S
C1383 C1382 1.524 . S
C1383 C1384 1.397 . S
C1383 C1388 1.363 . S
C1384 H1361 0.950 . S
C1384 C1383 1.397 . S
C1384 C1385 1.334 . S
C1385 H1362 0.950 . S
C1385 C1384 1.334 . S
C1385 C1386 1.287 . S
C1386 C1385 1.287 . S
C1386 C1387 1.524 . S
C1386 H1405 0.913 . S
C1387 H1363 0.950 . S
C1387 C1386 1.524 . S
C1387 C1388 1.415 . S
C1388 H1364 0.950 . S
C1388 C1383 1.363 . S
C1388 C1387 1.415 . S
C1389 H1365 0.951 . S
C1389 C1390 1.366 . S
C1389 C1391 1.388 . S
C1390 C1389 1.366 . S
C1390 C1394 1.385 . S
C1391 H1366 0.951 . S
C1391 C1389 1.388 . S
C1391 C1392 1.366 . S
C1392 C1391 1.366 . S
C1392 C1393 1.414 . S
C1392 C1395 1.499 . S
C1393 H1367 0.950 . S
C1393 C1392 1.414 . S
C1393 C1394 1.374 . S
C1394 H1368 0.950 . S
C1394 C1390 1.385 . S
C1394 C1393 1.374 . S
C1395 C1392 1.499 . S
C1395 C1396 1.373 . S
C1395 C1397 1.389 . S
C1396 H1369 0.950 . S
C1396 C1382 1.377 . S
C1396 C1395 1.373 . S
C1397 C1381 1.377 . S
C1397 C1395 1.389 . S
C1397 C1398 1.524 . S
C1398 C1397 1.524 . S
C1398 C1399 1.397 . S
C1398 C1403 1.363 . S
C1399 H1370 0.950 . S
C1399 C1398 1.397 . S
C1399 C1400 1.334 . S
C1400 H1371 0.950 . S
C1400 C1399 1.334 . S
C1400 C1401 1.287 . S
C1401 C1400 1.287 . S
C1401 C1402 1.524 . S
C1401 H1404 0.999 . S
C1402 H1372 0.950 . S
C1402 C1401 1.524 . S
C1402 C1403 1.415 . S
C1403 H1373 0.950 . S
C1403 C1398 1.363 . S
C1403 C1402 1.415 . S
H1404 C1401 0.999 . S
H1405 C1386 0.913 . S
H1406 C1424 0.951 . S
H1407 C1426 0.951 . S
H1408 C1428 0.950 . S
H1409 C1429 0.950 . S
H1410 C1431 0.950 . S
H1411 C1434 0.950 . S
H1412 C1435 0.950 . S
H1413 C1437 0.950 . S
H1414 C1438 0.950 . S
H1415 C1439 0.951 . S
H1416 C1441 0.951 . S
H1417 C1443 0.950 . S
H1418 C1444 0.950 . S
H1419 C1446 0.950 . S
H1420 C1449 0.950 . S
H1421 C1450 0.950 . S
H1422 C1452 0.950 . S
H1423 C1453 0.950 . S
C1424 H1406 0.951 . S
C1424 C1425 1.366 . S
C1424 C1426 1.388 . S
C1425 C1424 1.366 . S
C1425 C1429 1.385 . S
C1426 H1407 0.951 . S
C1426 C1424 1.388 . S
C1426 C1427 1.366 . S
C1427 C1426 1.366 . S
C1427 C1428 1.414 . S
C1427 C1430 1.499 . S
C1428 H1408 0.950 . S
C1428 C1427 1.414 . S
C1428 C1429 1.374 . S
C1429 H1409 0.950 . S
C1429 C1425 1.385 . S
C1429 C1428 1.374 . S
C1430 C1427 1.499 . S
C1430 C1431 1.373 . S
C1430 C1432 1.389 . S
C1431 H1410 0.950 . S
C1431 C1430 1.373 . S
C1431 C1447 1.377 . S
C1432 C1430 1.389 . S
C1432 C1433 1.524 . S
C1432 C1446 1.377 . S
C1433 C1432 1.524 . S
C1433 C1434 1.397 . S
C1433 C1438 1.363 . S
C1434 H1411 0.950 . S
C1434 C1433 1.397 . S
C1434 C1435 1.334 . S
C1435 H1412 0.950 . S
C1435 C1434 1.334 . S
C1435 C1436 1.287 . S
C1436 C1435 1.287 . S
C1436 C1437 1.524 . S
C1436 H1455 0.913 . S
C1437 H1413 0.950 . S
C1437 C1436 1.524 . S
C1437 C1438 1.415 . S
C1438 H1414 0.950 . S
C1438 C1433 1.363 . S
C1438 C1437 1.415 . S
C1439 H1415 0.951 . S
C1439 C1440 1.366 . S
C1439 C1441 1.388 . S
C1440 C1439 1.366 . S
C1440 C1444 1.385 . S
C1441 H1416 0.951 . S
C1441 C1439 1.388 . S
C1441 C1442 1.366 . S
C1442 C1441 1.366 . S
C1442 C1443 1.414 . S
C1442 C1445 1.499 . S
C1443 H1417 0.950 . S
C1443 C1442 1.414 . S
C1443 C1444 1.374 . S
C1444 H1418 0.950 . S
C1444 C1440 1.385 . S
C1444 C1443 1.374 . S
C1445 C1442 1.499 . S
C1445 C1446 1.373 . S
C1445 C1447 1.389 . S
C1446 H1419 0.950 . S
C1446 C1432 1.377 . S
C1446 C1445 1.373 . S
C1447 C1431 1.377 . S
C1447 C1445 1.389 . S
C1447 C1448 1.524 . S
C1448 C1447 1.524 . S
C1448 C1449 1.397 . S
C1448 C1453 1.363 . S
C1449 H1420 0.950 . S
C1449 C1448 1.397 . S
C1449 C1450 1.334 . S
C1450 H1421 0.950 . S
C1450 C1449 1.334 . S
C1450 C1451 1.287 . S
C1451 C1450 1.287 . S
C1451 C1452 1.524 . S
C1451 H1454 0.999 . S
C1452 H1422 0.950 . S
C1452 C1451 1.524 . S
C1452 C1453 1.415 . S
C1453 H1423 0.950 . S
C1453 C1448 1.363 . S
C1453 C1452 1.415 . S
H1454 C1451 0.999 . S
H1455 C1436 0.913 . S
H1456 C1474 0.951 . S
H1457 C1476 0.951 . S
H1458 C1478 0.950 . S
H1459 C1479 0.950 . S
H1460 C1481 0.950 . S
H1461 C1484 0.950 . S
H1462 C1485 0.950 . S
H1463 C1487 0.950 . S
H1464 C1488 0.950 . S
H1465 C1489 0.951 . S
H1466 C1491 0.951 . S
H1467 C1493 0.950 . S
H1468 C1494 0.950 . S
H1469 C1496 0.950 . S
H1470 C1499 0.950 . S
H1471 C1500 0.950 . S
H1472 C1502 0.950 . S
H1473 C1503 0.950 . S
C1474 H1456 0.951 . S
C1474 C1475 1.366 . S
C1474 C1476 1.388 . S
C1475 C1474 1.366 . S
C1475 C1479 1.385 . S
C1476 H1457 0.951 . S
C1476 C1474 1.388 . S
C1476 C1477 1.366 . S
C1477 C1476 1.366 . S
C1477 C1478 1.414 . S
C1477 C1480 1.499 . S
C1478 H1458 0.950 . S
C1478 C1477 1.414 . S
C1478 C1479 1.374 . S
C1479 H1459 0.950 . S
C1479 C1475 1.385 . S
C1479 C1478 1.374 . S
C1480 C1477 1.499 . S
C1480 C1481 1.373 . S
C1480 C1482 1.389 . S
C1481 H1460 0.950 . S
C1481 C1480 1.373 . S
C1481 C1497 1.377 . S
C1482 C1480 1.389 . S
C1482 C1483 1.524 . S
C1482 C1496 1.377 . S
C1483 C1482 1.524 . S
C1483 C1484 1.397 . S
C1483 C1488 1.363 . S
C1484 H1461 0.950 . S
C1484 C1483 1.397 . S
C1484 C1485 1.334 . S
C1485 H1462 0.950 . S
C1485 C1484 1.334 . S
C1485 C1486 1.287 . S
C1486 C1485 1.287 . S
C1486 C1487 1.524 . S
C1486 H1505 0.913 . S
C1487 H1463 0.950 . S
C1487 C1486 1.524 . S
C1487 C1488 1.415 . S
C1488 H1464 0.950 . S
C1488 C1483 1.363 . S
C1488 C1487 1.415 . S
C1489 H1465 0.951 . S
C1489 C1490 1.366 . S
C1489 C1491 1.388 . S
C1490 C1489 1.366 . S
C1490 C1494 1.385 . S
C1491 H1466 0.951 . S
C1491 C1489 1.388 . S
C1491 C1492 1.366 . S
C1492 C1491 1.366 . S
C1492 C1493 1.414 . S
C1492 C1495 1.499 . S
C1493 H1467 0.950 . S
C1493 C1492 1.414 . S
C1493 C1494 1.374 . S
C1494 H1468 0.950 . S
C1494 C1490 1.385 . S
C1494 C1493 1.374 . S
C1495 C1492 1.499 . S
C1495 C1496 1.373 . S
C1495 C1497 1.389 . S
C1496 H1469 0.950 . S
C1496 C1482 1.377 . S
C1496 C1495 1.373 . S
C1497 C1481 1.377 . S
C1497 C1495 1.389 . S
C1497 C1498 1.524 . S
C1498 C1497 1.524 . S
C1498 C1499 1.397 . S
C1498 C1503 1.363 . S
C1499 H1470 0.950 . S
C1499 C1498 1.397 . S
C1499 C1500 1.334 . S
C1500 H1471 0.950 . S
C1500 C1499 1.334 . S
C1500 C1501 1.287 . S
C1501 C1500 1.287 . S
C1501 C1502 1.524 . S
C1501 H1504 0.999 . S
C1502 H1472 0.950 . S
C1502 C1501 1.524 . S
C1502 C1503 1.415 . S
C1503 H1473 0.950 . S
C1503 C1498 1.363 . S
C1503 C1502 1.415 . S
H1504 C1501 0.999 . S
H1505 C1486 0.913 . S
H1506 C1524 0.951 . S
H1507 C1526 0.951 . S
H1508 C1528 0.950 . S
H1509 C1529 0.950 . S
H1510 C1531 0.950 . S
H1511 C1534 0.950 . S
H1512 C1535 0.950 . S
H1513 C1537 0.950 . S
H1514 C1538 0.940 1_545 S
H1515 C1539 0.951 . S
H1516 C1541 0.951 . S
H1517 C1543 0.950 . S
H1518 C1544 0.950 . S
H1519 C1546 0.950 . S
H1520 C1549 0.950 . S
H1521 C1550 0.950 . S
H1522 C1552 0.950 . S
H1523 C1553 0.950 1_565 S
C1524 H1506 0.951 . S
C1524 C1525 1.366 . S
C1524 C1526 1.388 . S
C1525 C1524 1.366 . S
C1525 C1529 1.385 . S
C1526 H1507 0.951 . S
C1526 C1524 1.388 . S
C1526 C1527 1.366 . S
C1527 C1526 1.366 . S
C1527 C1528 1.414 . S
C1527 C1530 1.499 . S
C1528 H1508 0.950 . S
C1528 C1527 1.414 . S
C1528 C1529 1.374 . S
C1529 H1509 0.950 . S
C1529 C1525 1.385 . S
C1529 C1528 1.374 . S
C1530 C1527 1.499 . S
C1530 C1531 1.373 . S
C1530 C1532 1.389 . S
C1531 H1510 0.950 . S
C1531 C1530 1.373 . S
C1531 C1547 1.377 1_565 S
C1532 C1530 1.389 . S
C1532 C1533 1.524 . S
C1532 C1546 1.377 1_565 S
C1533 C1532 1.524 . S
C1533 C1534 1.397 . S
C1533 C1538 1.363 . S
C1534 H1511 0.950 . S
C1534 C1533 1.397 . S
C1534 C1535 1.334 . S
C1535 H1512 0.950 . S
C1535 C1534 1.334 . S
C1535 C1536 1.287 . S
C1536 C1535 1.287 . S
C1536 C1537 1.524 . S
C1536 H1555 0.913 . S
C1537 H1513 0.950 . S
C1537 C1536 1.524 . S
C1537 C1538 1.415 . S
C1538 H1514 0.940 1_565 S
C1538 C1533 1.363 . S
C1538 C1537 1.415 . S
C1539 H1515 0.951 . S
C1539 C1540 1.366 . S
C1539 C1541 1.388 . S
C1540 C1539 1.366 . S
C1540 C1544 1.385 . S
C1541 H1516 0.951 . S
C1541 C1539 1.388 . S
C1541 C1542 1.366 . S
C1542 C1541 1.366 . S
C1542 C1543 1.414 . S
C1542 C1545 1.499 . S
C1543 H1517 0.950 . S
C1543 C1542 1.414 . S
C1543 C1544 1.374 . S
C1544 H1518 0.950 . S
C1544 C1540 1.385 . S
C1544 C1543 1.374 . S
C1545 C1542 1.499 . S
C1545 C1546 1.373 . S
C1545 C1547 1.389 . S
C1546 H1519 0.950 . S
C1546 C1532 1.377 1_545 S
C1546 C1545 1.373 . S
C1547 C1531 1.377 1_545 S
C1547 C1545 1.389 . S
C1547 C1548 1.524 . S
C1548 C1547 1.524 . S
C1548 C1549 1.397 . S
C1548 C1553 1.363 . S
C1549 H1520 0.950 . S
C1549 C1548 1.397 . S
C1549 C1550 1.334 . S
C1550 H1521 0.950 . S
C1550 C1549 1.334 . S
C1550 C1551 1.287 . S
C1551 C1550 1.287 . S
C1551 C1552 1.524 . S
C1551 H1554 0.999 . S
C1552 H1522 0.950 . S
C1552 C1551 1.524 . S
C1552 C1553 1.415 . S
C1553 H1523 0.950 1_545 S
C1553 C1548 1.363 . S
C1553 C1552 1.415 . S
H1554 C1551 0.999 . S
H1555 C1536 0.913 . S
H1556 C1574 0.951 . S
H1557 C1576 0.951 . S
H1558 C1578 0.950 . S
H1559 C1579 0.950 . S
H1560 C1581 0.950 . S
H1561 C1584 0.950 . S
H1562 C1585 0.950 . S
H1563 C1587 0.950 . S
H1564 C1588 0.950 . S
H1565 C1589 0.951 . S
H1566 C1591 0.951 . S
H1567 C1593 0.950 . S
H1568 C1594 0.950 . S
H1569 C1596 0.950 . S
H1570 C1599 0.950 . S
H1571 C1600 0.950 . S
H1572 C1602 0.950 . S
H1573 C1603 0.950 . S
C1574 H1556 0.951 . S
C1574 C1575 1.366 . S
C1574 C1576 1.388 . S
C1575 C1574 1.366 . S
C1575 C1579 1.385 . S
C1576 H1557 0.951 . S
C1576 C1574 1.388 . S
C1576 C1577 1.366 . S
C1577 C1576 1.366 . S
C1577 C1578 1.414 . S
C1577 C1580 1.499 . S
C1578 H1558 0.950 . S
C1578 C1577 1.414 . S
C1578 C1579 1.374 . S
C1579 H1559 0.950 . S
C1579 C1575 1.385 . S
C1579 C1578 1.374 . S
C1580 C1577 1.499 . S
C1580 C1581 1.373 1_655 S
C1580 C1582 1.389 1_655 S
C1581 H1560 0.950 . S
C1581 C1580 1.373 1_455 S
C1581 C1597 1.377 . S
C1582 C1580 1.389 1_455 S
C1582 C1583 1.524 1_455 S
C1582 C1596 1.377 . S
C1583 C1582 1.524 1_655 S
C1583 C1584 1.397 . S
C1583 C1588 1.363 . S
C1584 H1561 0.950 . S
C1584 C1583 1.397 . S
C1584 C1585 1.334 . S
C1585 H1562 0.950 . S
C1585 C1584 1.334 . S
C1585 C1586 1.287 . S
C1586 C1585 1.287 . S
C1586 C1587 1.524 . S
C1586 H1605 0.913 . S
C1587 H1563 0.950 . S
C1587 C1586 1.524 . S
C1587 C1588 1.415 . S
C1588 H1564 0.950 . S
C1588 C1583 1.363 . S
C1588 C1587 1.415 . S
C1589 H1565 0.951 . S
C1589 C1590 1.366 . S
C1589 C1591 1.388 . S
C1590 C1589 1.366 . S
C1590 C1594 1.385 . S
C1591 H1566 0.951 . S
C1591 C1589 1.388 . S
C1591 C1592 1.366 . S
C1592 C1591 1.366 . S
C1592 C1593 1.414 . S
C1592 C1595 1.499 . S
C1593 H1567 0.950 . S
C1593 C1592 1.414 . S
C1593 C1594 1.374 . S
C1594 H1568 0.950 . S
C1594 C1590 1.385 . S
C1594 C1593 1.374 . S
C1595 C1592 1.499 . S
C1595 C1596 1.373 . S
C1595 C1597 1.389 . S
C1596 H1569 0.950 . S
C1596 C1582 1.377 . S
C1596 C1595 1.373 . S
C1597 C1581 1.377 . S
C1597 C1595 1.389 . S
C1597 C1598 1.524 . S
C1598 C1597 1.524 . S
C1598 C1599 1.397 . S
C1598 C1603 1.363 . S
C1599 H1570 0.950 . S
C1599 C1598 1.397 . S
C1599 C1600 1.334 . S
C1600 H1571 0.950 . S
C1600 C1599 1.334 . S
C1600 C1601 1.287 . S
C1601 C1600 1.287 . S
C1601 C1602 1.524 . S
C1601 H1604 0.999 . S
C1602 H1572 0.950 . S
C1602 C1601 1.524 . S
C1602 C1603 1.415 . S
C1603 H1573 0.950 . S
C1603 C1598 1.363 . S
C1603 C1602 1.415 . S
H1604 C1601 0.999 . S
H1605 C1586 0.913 . S
H1606 C1624 0.951 . S
H1607 C1626 0.951 . S
H1608 C1628 0.950 . S
H1609 C1629 0.950 . S
H1610 C1631 0.950 . S
H1611 C1634 0.950 . S
H1612 C1635 0.950 . S
H1613 C1637 0.950 . S
H1614 C1638 0.950 . S
H1615 C1639 0.951 . S
H1616 C1641 0.951 . S
H1617 C1643 0.950 . S
H1618 C1644 0.950 . S
H1619 C1646 0.950 . S
H1620 C1649 0.950 . S
H1621 C1650 0.950 . S
H1622 C1652 0.950 . S
H1623 C1653 0.950 . S
C1624 H1606 0.951 . S
C1624 C1625 1.366 . S
C1624 C1626 1.388 . S
C1625 C1624 1.366 . S
C1625 C1629 1.385 . S
C1626 H1607 0.951 . S
C1626 C1624 1.388 . S
C1626 C1627 1.366 . S
C1627 C1626 1.366 . S
C1627 C1628 1.414 . S
C1627 C1630 1.499 . S
C1628 H1608 0.950 . S
C1628 C1627 1.414 . S
C1628 C1629 1.374 . S
C1629 H1609 0.950 . S
C1629 C1625 1.385 . S
C1629 C1628 1.374 . S
C1630 C1627 1.499 . S
C1630 C1631 1.373 . S
C1630 C1632 1.389 . S
C1631 H1610 0.950 . S
C1631 C1630 1.373 . S
C1631 C1647 1.377 . S
C1632 C1630 1.389 . S
C1632 C1633 1.524 . S
C1632 C1646 1.377 . S
C1633 C1632 1.524 . S
C1633 C1634 1.397 . S
C1633 C1638 1.363 . S
C1634 H1611 0.950 . S
C1634 C1633 1.397 . S
C1634 C1635 1.334 . S
C1635 H1612 0.950 . S
C1635 C1634 1.334 . S
C1635 C1636 1.287 . S
C1636 C1635 1.287 . S
C1636 C1637 1.524 . S
C1636 H1655 0.913 . S
C1637 H1613 0.950 . S
C1637 C1636 1.524 . S
C1637 C1638 1.415 . S
C1638 H1614 0.950 . S
C1638 C1633 1.363 . S
C1638 C1637 1.415 . S
C1639 H1615 0.951 . S
C1639 C1640 1.366 . S
C1639 C1641 1.388 . S
C1640 C1639 1.366 . S
C1640 C1644 1.385 . S
C1641 H1616 0.951 . S
C1641 C1639 1.388 . S
C1641 C1642 1.366 . S
C1642 C1641 1.366 . S
C1642 C1643 1.414 . S
C1642 C1645 1.499 . S
C1643 H1617 0.950 . S
C1643 C1642 1.414 . S
C1643 C1644 1.374 . S
C1644 H1618 0.950 . S
C1644 C1640 1.385 . S
C1644 C1643 1.374 . S
C1645 C1642 1.499 . S
C1645 C1646 1.373 . S
C1645 C1647 1.389 . S
C1646 H1619 0.950 . S
C1646 C1632 1.377 . S
C1646 C1645 1.373 . S
C1647 C1631 1.377 . S
C1647 C1645 1.389 . S
C1647 C1648 1.524 . S
C1648 C1647 1.524 . S
C1648 C1649 1.397 . S
C1648 C1653 1.363 . S
C1649 H1620 0.950 . S
C1649 C1648 1.397 . S
C1649 C1650 1.334 . S
C1650 H1621 0.950 . S
C1650 C1649 1.334 . S
C1650 C1651 1.287 . S
C1651 C1650 1.287 . S
C1651 C1652 1.524 . S
C1651 H1654 0.999 . S
C1652 H1622 0.950 . S
C1652 C1651 1.524 . S
C1652 C1653 1.415 . S
C1653 H1623 0.950 . S
C1653 C1648 1.363 . S
C1653 C1652 1.415 . S
H1654 C1651 0.999 . S
H1655 C1636 0.913 . S
H1656 C1674 0.951 . S
H1657 C1676 0.951 . S
H1658 C1678 0.950 . S
H1659 C1679 0.950 . S
H1660 C1681 0.950 . S
H1661 C1684 0.950 . S
H1662 C1685 0.950 . S
H1663 C1687 0.950 . S
H1664 C1688 0.950 . S
H1665 C1689 0.951 . S
H1666 C1691 0.951 . S
H1667 C1693 0.950 . S
H1668 C1694 0.950 . S
H1669 C1696 0.950 . S
H1670 C1699 0.950 . S
H1671 C1700 0.950 . S
H1672 C1702 0.950 . S
H1673 C1703 0.950 . S
C1674 H1656 0.951 . S
C1674 C1675 1.366 . S
C1674 C1676 1.388 . S
C1675 C1674 1.366 . S
C1675 C1679 1.385 . S
C1676 H1657 0.951 . S
C1676 C1674 1.388 . S
C1676 C1677 1.366 . S
C1677 C1676 1.366 . S
C1677 C1678 1.414 . S
C1677 C1680 1.499 . S
C1678 H1658 0.950 . S
C1678 C1677 1.414 . S
C1678 C1679 1.374 . S
C1679 H1659 0.950 . S
C1679 C1675 1.385 . S
C1679 C1678 1.374 . S
C1680 C1677 1.499 . S
C1680 C1681 1.373 . S
C1680 C1682 1.389 . S
C1681 H1660 0.950 . S
C1681 C1680 1.373 . S
C1681 C1697 1.377 . S
C1682 C1680 1.389 . S
C1682 C1683 1.524 . S
C1682 C1696 1.377 . S
C1683 C1682 1.524 . S
C1683 C1684 1.397 . S
C1683 C1688 1.363 . S
C1684 H1661 0.950 . S
C1684 C1683 1.397 . S
C1684 C1685 1.334 . S
C1685 H1662 0.950 . S
C1685 C1684 1.334 . S
C1685 C1686 1.287 . S
C1686 C1685 1.287 . S
C1686 C1687 1.524 . S
C1686 H1705 0.913 . S
C1687 H1663 0.950 . S
C1687 C1686 1.524 . S
C1687 C1688 1.415 . S
C1688 H1664 0.950 . S
C1688 C1683 1.363 . S
C1688 C1687 1.415 . S
C1689 H1665 0.951 . S
C1689 C1690 1.366 . S
C1689 C1691 1.388 . S
C1690 C1689 1.366 . S
C1690 C1694 1.385 . S
C1691 H1666 0.951 . S
C1691 C1689 1.388 . S
C1691 C1692 1.366 . S
C1692 C1691 1.366 . S
C1692 C1693 1.414 . S
C1692 C1695 1.499 . S
C1693 H1667 0.950 . S
C1693 C1692 1.414 . S
C1693 C1694 1.374 . S
C1694 H1668 0.950 . S
C1694 C1690 1.385 . S
C1694 C1693 1.374 . S
C1695 C1692 1.499 . S
C1695 C1696 1.373 . S
C1695 C1697 1.389 . S
C1696 H1669 0.950 . S
C1696 C1682 1.377 . S
C1696 C1695 1.373 . S
C1697 C1681 1.377 . S
C1697 C1695 1.389 . S
C1697 C1698 1.524 . S
C1698 C1697 1.524 . S
C1698 C1699 1.397 . S
C1698 C1703 1.363 . S
C1699 H1670 0.950 . S
C1699 C1698 1.397 . S
C1699 C1700 1.334 . S
C1700 H1671 0.950 . S
C1700 C1699 1.334 . S
C1700 C1701 1.287 . S
C1701 C1700 1.287 . S
C1701 C1702 1.524 . S
C1701 H1704 0.999 . S
C1702 H1672 0.950 . S
C1702 C1701 1.524 . S
C1702 C1703 1.415 . S
C1703 H1673 0.950 . S
C1703 C1698 1.363 . S
C1703 C1702 1.415 . S
H1704 C1701 0.999 . S
H1705 C1686 0.913 . S
H1706 C1724 0.951 . S
H1707 C1726 0.951 . S
H1708 C1728 0.950 . S
H1709 C1729 0.950 . S
H1710 C1731 0.950 . S
H1711 C1734 0.950 . S
H1712 C1735 0.950 . S
H1713 C1737 0.950 . S
H1714 C1738 0.950 . S
H1715 C1739 0.951 . S
H1716 C1741 0.951 . S
H1717 C1743 0.950 . S
H1718 C1744 0.950 . S
H1719 C1746 0.950 . S
H1720 C1749 0.950 . S
H1721 C1750 0.950 . S
H1722 C1752 0.950 . S
H1723 C1753 0.950 . S
C1724 H1706 0.951 . S
C1724 C1725 1.366 . S
C1724 C1726 1.388 . S
C1725 C1724 1.366 . S
C1725 C1729 1.385 . S
C1726 H1707 0.951 . S
C1726 C1724 1.388 . S
C1726 C1727 1.366 . S
C1727 C1726 1.366 . S
C1727 C1728 1.414 . S
C1727 C1730 1.499 . S
C1728 H1708 0.950 . S
C1728 C1727 1.414 . S
C1728 C1729 1.374 . S
C1729 H1709 0.950 . S
C1729 C1725 1.385 . S
C1729 C1728 1.374 . S
C1730 C1727 1.499 . S
C1730 C1731 1.373 . S
C1730 C1732 1.389 . S
C1731 H1710 0.950 . S
C1731 C1730 1.373 . S
C1731 C1747 1.377 . S
C1732 C1730 1.389 . S
C1732 C1733 1.524 . S
C1732 C1746 1.377 . S
C1733 C1732 1.524 . S
C1733 C1734 1.397 . S
C1733 C1738 1.363 . S
C1734 H1711 0.950 . S
C1734 C1733 1.397 . S
C1734 C1735 1.334 . S
C1735 H1712 0.950 . S
C1735 C1734 1.334 . S
C1735 C1736 1.287 . S
C1736 C1735 1.287 . S
C1736 C1737 1.524 . S
C1736 H1755 0.913 . S
C1737 H1713 0.950 . S
C1737 C1736 1.524 . S
C1737 C1738 1.415 . S
C1738 H1714 0.950 . S
C1738 C1733 1.363 . S
C1738 C1737 1.415 . S
C1739 H1715 0.951 . S
C1739 C1740 1.366 . S
C1739 C1741 1.388 . S
C1740 C1739 1.366 . S
C1740 C1744 1.385 . S
C1741 H1716 0.951 . S
C1741 C1739 1.388 . S
C1741 C1742 1.366 . S
C1742 C1741 1.366 . S
C1742 C1743 1.414 . S
C1742 C1745 1.499 . S
C1743 H1717 0.950 . S
C1743 C1742 1.414 . S
C1743 C1744 1.374 . S
C1744 H1718 0.950 . S
C1744 C1740 1.385 . S
C1744 C1743 1.374 . S
C1745 C1742 1.499 . S
C1745 C1746 1.373 . S
C1745 C1747 1.389 . S
C1746 H1719 0.950 . S
C1746 C1732 1.377 . S
C1746 C1745 1.373 . S
C1747 C1731 1.377 . S
C1747 C1745 1.389 . S
C1747 C1748 1.524 . S
C1748 C1747 1.524 . S
C1748 C1749 1.397 . S
C1748 C1753 1.363 . S
C1749 H1720 0.950 . S
C1749 C1748 1.397 . S
C1749 C1750 1.334 . S
C1750 H1721 0.950 . S
C1750 C1749 1.334 . S
C1750 C1751 1.287 . S
C1751 C1750 1.287 . S
C1751 C1752 1.524 . S
C1751 H1754 0.999 . S
C1752 H1722 0.950 . S
C1752 C1751 1.524 . S
C1752 C1753 1.415 . S
C1753 H1723 0.950 . S
C1753 C1748 1.363 . S
C1753 C1752 1.415 . S
H1754 C1751 0.999 . S
H1755 C1736 0.913 . S
H1756 C1774 0.951 . S
H1757 C1776 0.951 . S
H1758 C1778 0.950 . S
H1759 C1779 0.950 . S
H1760 C1781 0.950 . S
H1761 C1784 0.950 1_565 S
H1762 C1785 0.950 . S
H1763 C1787 0.950 . S
H1764 C1788 0.950 . S
H1765 C1789 0.951 . S
H1766 C1791 0.951 . S
H1767 C1793 0.950 . S
H1768 C1794 0.950 . S
H1769 C1796 0.950 . S
H1770 C1799 0.950 . S
H1771 C1800 0.950 . S
H1772 C1802 0.950 . S
H1773 C1803 0.950 . S
C1774 H1756 0.951 . S
C1774 C1775 1.366 . S
C1774 C1776 1.388 . S
C1775 C1774 1.366 . S
C1775 C1779 1.385 . S
C1776 H1757 0.951 . S
C1776 C1774 1.388 . S
C1776 C1777 1.366 . S
C1777 C1776 1.366 . S
C1777 C1778 1.414 . S
C1777 C1780 1.499 . S
C1778 H1758 0.950 . S
C1778 C1777 1.414 . S
C1778 C1779 1.374 . S
C1779 H1759 0.950 . S
C1779 C1775 1.385 . S
C1779 C1778 1.374 . S
C1780 C1777 1.499 . S
C1780 C1781 1.373 . S
C1780 C1782 1.389 . S
C1781 H1760 0.950 . S
C1781 C1780 1.373 . S
C1781 C1797 1.377 . S
C1782 C1780 1.389 . S
C1782 C1783 1.524 . S
C1782 C1796 1.377 . S
C1783 C1782 1.524 . S
C1783 C1784 1.397 1_565 S
C1783 C1788 1.363 . S
C1784 H1761 0.950 1_545 S
C1784 C1783 1.397 1_545 S
C1784 C1785 1.334 . S
C1785 H1762 0.950 . S
C1785 C1784 1.334 . S
C1785 C1786 1.287 . S
C1786 C1785 1.287 . S
C1786 C1787 1.524 . S
C1786 H1805 0.913 . S
C1787 H1763 0.950 . S
C1787 C1786 1.524 . S
C1787 C1788 1.415 1_545 S
C1788 H1764 0.950 . S
C1788 C1783 1.363 . S
C1788 C1787 1.415 1_565 S
C1789 H1765 0.951 . S
C1789 C1790 1.366 . S
C1789 C1791 1.388 . S
C1790 C1789 1.366 . S
C1790 C1794 1.385 . S
C1791 H1766 0.951 . S
C1791 C1789 1.388 . S
C1791 C1792 1.366 . S
C1792 C1791 1.366 . S
C1792 C1793 1.414 . S
C1792 C1795 1.499 . S
C1793 H1767 0.950 . S
C1793 C1792 1.414 . S
C1793 C1794 1.374 . S
C1794 H1768 0.950 . S
C1794 C1790 1.385 . S
C1794 C1793 1.374 . S
C1795 C1792 1.499 . S
C1795 C1796 1.373 . S
C1795 C1797 1.389 . S
C1796 H1769 0.950 . S
C1796 C1782 1.377 . S
C1796 C1795 1.373 . S
C1797 C1781 1.377 . S
C1797 C1795 1.389 . S
C1797 C1798 1.524 . S
C1798 C1797 1.524 . S
C1798 C1799 1.397 . S
C1798 C1803 1.363 . S
C1799 H1770 0.950 . S
C1799 C1798 1.397 . S
C1799 C1800 1.334 . S
C1800 H1771 0.950 . S
C1800 C1799 1.334 . S
C1800 C1801 1.287 . S
C1801 C1800 1.287 . S
C1801 C1802 1.524 . S
C1801 H1804 0.999 . S
C1802 H1772 0.950 . S
C1802 C1801 1.524 . S
C1802 C1803 1.415 . S
C1803 H1773 0.950 . S
C1803 C1798 1.363 . S
C1803 C1802 1.415 . S
H1804 C1801 0.999 . S
H1805 C1786 0.913 . S
H1806 C1824 0.951 . S
H1807 C1826 0.951 . S
H1808 C1828 0.950 . S
H1809 C1829 0.950 . S
H1810 C1831 0.950 . S
H1811 C1834 0.950 . S
H1812 C1835 0.950 . S
H1813 C1837 0.950 . S
H1814 C1838 0.950 . S
H1815 C1839 0.951 . S
H1816 C1841 0.951 . S
H1817 C1843 0.950 . S
H1818 C1844 0.950 . S
H1819 C1846 0.950 . S
H1820 C1849 0.950 . S
H1821 C1850 0.950 . S
H1822 C1852 0.950 . S
H1823 C1853 0.950 . S
C1824 H1806 0.951 . S
C1824 C1825 1.366 . S
C1824 C1826 1.388 . S
C1825 C1824 1.366 . S
C1825 C1829 1.385 . S
C1826 H1807 0.951 . S
C1826 C1824 1.388 . S
C1826 C1827 1.366 . S
C1827 C1826 1.366 . S
C1827 C1828 1.414 . S
C1827 C1830 1.499 . S
C1828 H1808 0.950 . S
C1828 C1827 1.414 . S
C1828 C1829 1.374 . S
C1829 H1809 0.950 . S
C1829 C1825 1.385 . S
C1829 C1828 1.374 . S
C1830 C1827 1.499 . S
C1830 C1831 1.373 . S
C1830 C1832 1.389 . S
C1831 H1810 0.950 . S
C1831 C1830 1.373 . S
C1831 C1847 1.377 . S
C1832 C1830 1.389 . S
C1832 C1833 1.524 . S
C1832 C1846 1.377 . S
C1833 C1832 1.524 . S
C1833 C1834 1.397 . S
C1833 C1838 1.363 . S
C1834 H1811 0.950 . S
C1834 C1833 1.397 . S
C1834 C1835 1.334 . S
C1835 H1812 0.950 . S
C1835 C1834 1.334 . S
C1835 C1836 1.287 . S
C1836 C1835 1.287 . S
C1836 C1837 1.524 . S
C1836 H1855 0.913 . S
C1837 H1813 0.950 . S
C1837 C1836 1.524 . S
C1837 C1838 1.415 . S
C1838 H1814 0.950 . S
C1838 C1833 1.363 . S
C1838 C1837 1.415 . S
C1839 H1815 0.951 . S
C1839 C1840 1.366 . S
C1839 C1841 1.388 . S
C1840 C1839 1.366 . S
C1840 C1844 1.385 . S
C1841 H1816 0.951 . S
C1841 C1839 1.388 . S
C1841 C1842 1.366 . S
C1842 C1841 1.366 . S
C1842 C1843 1.414 . S
C1842 C1845 1.499 . S
C1843 H1817 0.950 . S
C1843 C1842 1.414 . S
C1843 C1844 1.374 . S
C1844 H1818 0.950 . S
C1844 C1840 1.385 . S
C1844 C1843 1.374 . S
C1845 C1842 1.499 . S
C1845 C1846 1.373 . S
C1845 C1847 1.389 . S
C1846 H1819 0.950 . S
C1846 C1832 1.377 . S
C1846 C1845 1.373 . S
C1847 C1831 1.377 . S
C1847 C1845 1.389 . S
C1847 C1848 1.524 . S
C1848 C1847 1.524 . S
C1848 C1849 1.397 . S
C1848 C1853 1.363 . S
C1849 H1820 0.950 . S
C1849 C1848 1.397 . S
C1849 C1850 1.334 . S
C1850 H1821 0.950 . S
C1850 C1849 1.334 . S
C1850 C1851 1.287 . S
C1851 C1850 1.287 . S
C1851 C1852 1.524 . S
C1851 H1854 0.999 . S
C1852 H1822 0.950 . S
C1852 C1851 1.524 . S
C1852 C1853 1.415 . S
C1853 H1823 0.950 . S
C1853 C1848 1.363 . S
C1853 C1852 1.415 . S
H1854 C1851 0.999 . S
H1855 C1836 0.913 . S
H1856 C1874 0.951 . S
H1857 C1876 0.951 . S
H1858 C1878 0.950 . S
H1859 C1879 0.950 . S
H1860 C1881 0.950 . S
H1861 C1884 0.950 . S
H1862 C1885 0.950 . S
H1863 C1887 0.950 . S
H1864 C1888 0.950 . S
H1865 C1889 0.951 . S
H1866 C1891 0.951 . S
H1867 C1893 0.950 . S
H1868 C1894 0.950 . S
H1869 C1896 0.950 . S
H1870 C1899 0.950 . S
H1871 C1900 0.950 . S
H1872 C1902 0.950 . S
H1873 C1903 0.950 . S
C1874 H1856 0.951 . S
C1874 C1875 1.366 . S
C1874 C1876 1.388 . S
C1875 C1874 1.366 . S
C1875 C1879 1.385 . S
C1876 H1857 0.951 . S
C1876 C1874 1.388 . S
C1876 C1877 1.366 . S
C1877 C1876 1.366 . S
C1877 C1878 1.414 . S
C1877 C1880 1.499 . S
C1878 H1858 0.950 . S
C1878 C1877 1.414 . S
C1878 C1879 1.374 . S
C1879 H1859 0.950 . S
C1879 C1875 1.385 . S
C1879 C1878 1.374 . S
C1880 C1877 1.499 . S
C1880 C1881 1.373 . S
C1880 C1882 1.389 . S
C1881 H1860 0.950 . S
C1881 C1880 1.373 . S
C1881 C1897 1.377 . S
C1882 C1880 1.389 . S
C1882 C1883 1.524 . S
C1882 C1896 1.377 . S
C1883 C1882 1.524 . S
C1883 C1884 1.397 . S
C1883 C1888 1.363 . S
C1884 H1861 0.950 . S
C1884 C1883 1.397 . S
C1884 C1885 1.334 . S
C1885 H1862 0.950 . S
C1885 C1884 1.334 . S
C1885 C1886 1.287 . S
C1886 C1885 1.287 . S
C1886 C1887 1.524 . S
C1886 H1905 0.913 . S
C1887 H1863 0.950 . S
C1887 C1886 1.524 . S
C1887 C1888 1.415 . S
C1888 H1864 0.950 . S
C1888 C1883 1.363 . S
C1888 C1887 1.415 . S
C1889 H1865 0.951 . S
C1889 C1890 1.366 . S
C1889 C1891 1.388 . S
C1890 C1889 1.366 . S
C1890 C1894 1.385 . S
C1891 H1866 0.951 . S
C1891 C1889 1.388 . S
C1891 C1892 1.366 . S
C1892 C1891 1.366 . S
C1892 C1893 1.414 . S
C1892 C1895 1.499 . S
C1893 H1867 0.950 . S
C1893 C1892 1.414 . S
C1893 C1894 1.374 . S
C1894 H1868 0.950 . S
C1894 C1890 1.385 . S
C1894 C1893 1.374 . S
C1895 C1892 1.499 . S
C1895 C1896 1.373 . S
C1895 C1897 1.389 . S
C1896 H1869 0.950 . S
C1896 C1882 1.377 . S
C1896 C1895 1.373 . S
C1897 C1881 1.377 . S
C1897 C1895 1.389 . S
C1897 C1898 1.524 . S
C1898 C1897 1.524 . S
C1898 C1899 1.397 . S
C1898 C1903 1.363 . S
C1899 H1870 0.950 . S
C1899 C1898 1.397 . S
C1899 C1900 1.334 . S
C1900 H1871 0.950 . S
C1900 C1899 1.334 . S
C1900 C1901 1.287 . S
C1901 C1900 1.287 . S
C1901 C1902 1.524 . S
C1901 H1904 0.999 . S
C1902 H1872 0.950 . S
C1902 C1901 1.524 . S
C1902 C1903 1.415 . S
C1903 H1873 0.950 . S
C1903 C1898 1.363 . S
C1903 C1902 1.415 . S
H1904 C1901 0.999 . S
H1905 C1886 0.913 . S
H1906 C1924 0.951 . S
H1907 C1926 0.951 . S
H1908 C1928 0.950 . S
H1909 C1929 0.950 . S
H1910 C1931 0.950 . S
H1911 C1934 0.950 . S
H1912 C1935 0.950 . S
H1913 C1937 0.950 . S
H1914 C1938 0.950 . S
H1915 C1939 0.951 . S
H1916 C1941 0.951 . S
H1917 C1943 0.950 . S
H1918 C1944 0.950 . S
H1919 C1946 0.950 . S
H1920 C1949 0.950 . S
H1921 C1950 0.950 . S
H1922 C1952 0.950 . S
H1923 C1953 0.950 . S
C1924 H1906 0.951 . S
C1924 C1925 1.366 . S
C1924 C1926 1.388 . S
C1925 C1924 1.366 . S
C1925 C1929 1.385 . S
C1926 H1907 0.951 . S
C1926 C1924 1.388 . S
C1926 C1927 1.366 . S
C1927 C1926 1.366 . S
C1927 C1928 1.414 . S
C1927 C1930 1.499 . S
C1928 H1908 0.950 . S
C1928 C1927 1.414 . S
C1928 C1929 1.374 . S
C1929 H1909 0.950 . S
C1929 C1925 1.385 . S
C1929 C1928 1.374 . S
C1930 C1927 1.499 . S
C1930 C1931 1.373 . S
C1930 C1932 1.389 . S
C1931 H1910 0.950 . S
C1931 C1930 1.373 . S
C1931 C1947 1.377 . S
C1932 C1930 1.389 . S
C1932 C1933 1.524 . S
C1932 C1946 1.377 . S
C1933 C1932 1.524 . S
C1933 C1934 1.397 . S
C1933 C1938 1.363 . S
C1934 H1911 0.950 . S
C1934 C1933 1.397 . S
C1934 C1935 1.334 . S
C1935 H1912 0.950 . S
C1935 C1934 1.334 . S
C1935 C1936 1.287 . S
C1936 C1935 1.287 . S
C1936 C1937 1.524 . S
C1936 H1955 0.913 . S
C1937 H1913 0.950 . S
C1937 C1936 1.524 . S
C1937 C1938 1.415 . S
C1938 H1914 0.950 . S
C1938 C1933 1.363 . S
C1938 C1937 1.415 . S
C1939 H1915 0.951 . S
C1939 C1940 1.366 . S
C1939 C1941 1.388 . S
C1940 C1939 1.366 . S
C1940 C1944 1.385 . S
C1941 H1916 0.951 . S
C1941 C1939 1.388 . S
C1941 C1942 1.366 . S
C1942 C1941 1.366 . S
C1942 C1943 1.414 . S
C1942 C1945 1.499 . S
C1943 H1917 0.950 . S
C1943 C1942 1.414 . S
C1943 C1944 1.374 . S
C1944 H1918 0.950 . S
C1944 C1940 1.385 . S
C1944 C1943 1.374 . S
C1945 C1942 1.499 . S
C1945 C1946 1.373 . S
C1945 C1947 1.389 . S
C1946 H1919 0.950 . S
C1946 C1932 1.377 . S
C1946 C1945 1.373 . S
C1947 C1931 1.377 . S
C1947 C1945 1.389 . S
C1947 C1948 1.524 . S
C1948 C1947 1.524 . S
C1948 C1949 1.397 . S
C1948 C1953 1.363 . S
C1949 H1920 0.950 . S
C1949 C1948 1.397 . S
C1949 C1950 1.334 . S
C1950 H1921 0.950 . S
C1950 C1949 1.334 . S
C1950 C1951 1.287 . S
C1951 C1950 1.287 . S
C1951 C1952 1.524 . S
C1951 H1954 0.999 . S
C1952 H1922 0.950 . S
C1952 C1951 1.524 . S
C1952 C1953 1.415 . S
C1953 H1923 0.950 . S
C1953 C1948 1.363 . S
C1953 C1952 1.415 . S
H1954 C1951 0.999 . S
H1955 C1936 0.913 . S
H1956 C1974 0.951 . S
H1957 C1976 0.951 . S
H1958 C1978 0.950 . S
H1959 C1979 0.950 . S
H1960 C1981 0.950 . S
H1961 C1984 0.950 . S
H1962 C1985 0.950 . S
H1963 C1987 0.950 . S
H1964 C1988 0.950 . S
H1965 C1989 0.951 . S
H1966 C1991 0.951 . S
H1967 C1993 0.950 . S
H1968 C1994 0.950 . S
H1969 C1996 0.950 . S
H1970 C1999 0.950 . S
H1971 C2000 0.950 . S
H1972 C2002 0.950 . S
H1973 C2003 0.950 . S
C1974 H1956 0.951 . S
C1974 C1975 1.366 . S
C1974 C1976 1.388 . S
C1975 C1974 1.366 . S
C1975 C1979 1.385 . S
C1976 H1957 0.951 . S
C1976 C1974 1.388 . S
C1976 C1977 1.366 . S
C1977 C1976 1.366 . S
C1977 C1978 1.414 . S
C1977 C1980 1.499 . S
C1978 H1958 0.950 . S
C1978 C1977 1.414 . S
C1978 C1979 1.374 . S
C1979 H1959 0.950 . S
C1979 C1975 1.385 . S
C1979 C1978 1.374 . S
C1980 C1977 1.499 . S
C1980 C1981 1.373 . S
C1980 C1982 1.389 . S
C1981 H1960 0.950 . S
C1981 C1980 1.373 . S
C1981 C1997 1.377 . S
C1982 C1980 1.389 . S
C1982 C1983 1.524 . S
C1982 C1996 1.377 . S
C1983 C1982 1.524 . S
C1983 C1984 1.397 . S
C1983 C1988 1.363 . S
C1984 H1961 0.950 . S
C1984 C1983 1.397 . S
C1984 C1985 1.334 . S
C1985 H1962 0.950 . S
C1985 C1984 1.334 . S
C1985 C1986 1.287 . S
C1986 C1985 1.287 . S
C1986 C1987 1.524 . S
C1986 H2005 0.913 . S
C1987 H1963 0.950 . S
C1987 C1986 1.524 . S
C1987 C1988 1.415 . S
C1988 H1964 0.950 . S
C1988 C1983 1.363 . S
C1988 C1987 1.415 . S
C1989 H1965 0.951 . S
C1989 C1990 1.366 . S
C1989 C1991 1.388 . S
C1990 C1989 1.366 . S
C1990 C1994 1.385 . S
C1991 H1966 0.951 . S
C1991 C1989 1.388 . S
C1991 C1992 1.366 . S
C1992 C1991 1.366 . S
C1992 C1993 1.414 . S
C1992 C1995 1.499 . S
C1993 H1967 0.950 . S
C1993 C1992 1.414 . S
C1993 C1994 1.374 . S
C1994 H1968 0.950 . S
C1994 C1990 1.385 . S
C1994 C1993 1.374 . S
C1995 C1992 1.499 . S
C1995 C1996 1.373 . S
C1995 C1997 1.389 . S
C1996 H1969 0.950 . S
C1996 C1982 1.377 . S
C1996 C1995 1.373 . S
C1997 C1981 1.377 . S
C1997 C1995 1.389 . S
C1997 C1998 1.524 . S
C1998 C1997 1.524 . S
C1998 C1999 1.397 . S
C1998 C2003 1.363 . S
C1999 H1970 0.950 . S
C1999 C1998 1.397 . S
C1999 C2000 1.334 . S
C2000 H1971 0.950 . S
C2000 C1999 1.334 . S
C2000 C2001 1.287 . S
C2001 C2000 1.287 . S
C2001 C2002 1.524 . S
C2001 H2004 0.999 . S
C2002 H1972 0.950 . S
C2002 C2001 1.524 . S
C2002 C2003 1.415 . S
C2003 H1973 0.950 . S
C2003 C1998 1.363 . S
C2003 C2002 1.415 . S
H2004 C2001 0.999 . S
H2005 C1986 0.913 . S
H2006 C2024 0.951 . S
H2007 C2026 0.951 . S
H2008 C2028 0.950 . S
H2009 C2029 0.950 . S
H2010 C2031 0.950 . S
H2011 C2034 0.950 . S
H2012 C2035 0.950 1_565 S
H2013 C2037 0.950 . S
H2014 C2038 0.950 . S
H2015 C2039 0.951 . S
H2016 C2041 0.951 . S
H2017 C2043 0.950 . S
H2018 C2044 0.950 . S
H2019 C2046 0.950 . S
H2020 C2049 0.950 . S
H2021 C2050 0.950 1_545 S
H2022 C2052 0.950 . S
H2023 C2053 0.950 . S
C2024 H2006 0.951 . S
C2024 C2025 1.366 . S
C2024 C2026 1.388 . S
C2025 C2024 1.366 . S
C2025 C2029 1.385 . S
C2026 H2007 0.951 . S
C2026 C2024 1.388 . S
C2026 C2027 1.366 . S
C2027 C2026 1.366 . S
C2027 C2028 1.414 . S
C2027 C2030 1.499 . S
C2028 H2008 0.950 . S
C2028 C2027 1.414 . S
C2028 C2029 1.374 . S
C2029 H2009 0.950 . S
C2029 C2025 1.385 . S
C2029 C2028 1.374 . S
C2030 C2027 1.499 . S
C2030 C2031 1.373 . S
C2030 C2032 1.389 1_565 S
C2031 H2010 0.950 . S
C2031 C2030 1.373 . S
C2031 C2047 1.377 . S
C2032 C2030 1.389 1_545 S
C2032 C2033 1.524 . S
C2032 C2046 1.377 . S
C2033 C2032 1.524 . S
C2033 C2034 1.397 1_545 S
C2033 C2038 1.363 . S
C2034 H2011 0.950 . S
C2034 C2033 1.397 1_565 S
C2034 C2035 1.334 1_565 S
C2035 H2012 0.950 1_545 S
C2035 C2034 1.334 1_545 S
C2035 C2036 1.287 . S
C2036 C2035 1.287 . S
C2036 C2037 1.524 . S
C2036 H2055 0.913 . S
C2037 H2013 0.950 . S
C2037 C2036 1.524 . S
C2037 C2038 1.415 . S
C2038 H2014 0.950 . S
C2038 C2033 1.363 . S
C2038 C2037 1.415 . S
C2039 H2015 0.951 . S
C2039 C2040 1.366 . S
C2039 C2041 1.388 . S
C2040 C2039 1.366 . S
C2040 C2044 1.385 . S
C2041 H2016 0.951 . S
C2041 C2039 1.388 . S
C2041 C2042 1.366 . S
C2042 C2041 1.366 . S
C2042 C2043 1.414 . S
C2042 C2045 1.499 . S
C2043 H2017 0.950 . S
C2043 C2042 1.414 . S
C2043 C2044 1.374 . S
C2044 H2018 0.950 . S
C2044 C2040 1.385 . S
C2044 C2043 1.374 . S
C2045 C2042 1.499 . S
C2045 C2046 1.373 . S
C2045 C2047 1.389 1_545 S
C2046 H2019 0.950 . S
C2046 C2032 1.377 . S
C2046 C2045 1.373 . S
C2047 C2031 1.377 . S
C2047 C2045 1.389 1_565 S
C2047 C2048 1.524 . S
C2048 C2047 1.524 . S
C2048 C2049 1.397 1_565 S
C2048 C2053 1.363 . S
C2049 H2020 0.950 . S
C2049 C2048 1.397 1_545 S
C2049 C2050 1.334 1_545 S
C2050 H2021 0.950 1_565 S
C2050 C2049 1.334 1_565 S
C2050 C2051 1.287 . S
C2051 C2050 1.287 . S
C2051 C2052 1.524 . S
C2051 H2054 0.999 . S
C2052 H2022 0.950 . S
C2052 C2051 1.524 . S
C2052 C2053 1.415 . S
C2053 H2023 0.950 . S
C2053 C2048 1.363 . S
C2053 C2052 1.415 . S
H2054 C2051 0.999 . S
H2055 C2036 0.913 . S
H2056 C2074 0.951 . S
H2057 C2076 0.951 . S
H2058 C2078 0.950 . S
H2059 C2079 0.950 . S
H2060 C2081 0.950 . S
H2061 C2084 0.950 . S
H2062 C2085 0.950 . S
H2063 C2087 0.950 . S
H2064 C2088 0.950 . S
H2065 C2089 0.951 . S
H2066 C2091 0.951 . S
H2067 C2093 0.950 . S
H2068 C2094 0.950 . S
H2069 C2096 0.950 . S
H2070 C2099 0.950 . S
H2071 C2100 0.950 . S
H2072 C2102 0.950 . S
H2073 C2103 0.950 . S
C2074 H2056 0.951 . S
C2074 C2075 1.366 . S
C2074 C2076 1.388 . S
C2075 C2074 1.366 . S
C2075 C2079 1.385 . S
C2076 H2057 0.951 . S
C2076 C2074 1.388 . S
C2076 C2077 1.366 . S
C2077 C2076 1.366 . S
C2077 C2078 1.414 . S
C2077 C2080 1.499 . S
C2078 H2058 0.950 . S
C2078 C2077 1.414 . S
C2078 C2079 1.374 . S
C2079 H2059 0.950 . S
C2079 C2075 1.385 . S
C2079 C2078 1.374 . S
C2080 C2077 1.499 . S
C2080 C2081 1.373 1_655 S
C2080 C2082 1.389 . S
C2081 H2060 0.950 . S
C2081 C2080 1.373 1_455 S
C2081 C2097 1.377 . S
C2082 C2080 1.389 . S
C2082 C2083 1.524 . S
C2082 C2096 1.377 1_655 S
C2083 C2082 1.524 . S
C2083 C2084 1.397 . S
C2083 C2088 1.363 . S
C2084 H2061 0.950 . S
C2084 C2083 1.397 . S
C2084 C2085 1.334 . S
C2085 H2062 0.950 . S
C2085 C2084 1.334 . S
C2085 C2086 1.287 . S
C2086 C2085 1.287 . S
C2086 C2087 1.524 . S
C2086 H2105 0.913 . S
C2087 H2063 0.950 . S
C2087 C2086 1.524 . S
C2087 C2088 1.415 . S
C2088 H2064 0.950 . S
C2088 C2083 1.363 . S
C2088 C2087 1.415 . S
C2089 H2065 0.951 . S
C2089 C2090 1.366 . S
C2089 C2091 1.388 . S
C2090 C2089 1.366 . S
C2090 C2094 1.385 . S
C2091 H2066 0.951 . S
C2091 C2089 1.388 . S
C2091 C2092 1.366 . S
C2092 C2091 1.366 . S
C2092 C2093 1.414 . S
C2092 C2095 1.499 . S
C2093 H2067 0.950 . S
C2093 C2092 1.414 . S
C2093 C2094 1.374 . S
C2094 H2068 0.950 . S
C2094 C2090 1.385 . S
C2094 C2093 1.374 . S
C2095 C2092 1.499 . S
C2095 C2096 1.373 . S
C2095 C2097 1.389 . S
C2096 H2069 0.950 . S
C2096 C2082 1.377 1_455 S
C2096 C2095 1.373 . S
C2097 C2081 1.377 . S
C2097 C2095 1.389 . S
C2097 C2098 1.524 . S
C2098 C2097 1.524 . S
C2098 C2099 1.397 . S
C2098 C2103 1.363 . S
C2099 H2070 0.950 . S
C2099 C2098 1.397 . S
C2099 C2100 1.334 . S
C2100 H2071 0.950 . S
C2100 C2099 1.334 . S
C2100 C2101 1.287 . S
C2101 C2100 1.287 . S
C2101 C2102 1.524 . S
C2101 H2104 0.999 . S
C2102 H2072 0.950 . S
C2102 C2101 1.524 . S
C2102 C2103 1.415 . S
C2103 H2073 0.950 . S
C2103 C2098 1.363 . S
C2103 C2102 1.415 . S
H2104 C2101 0.999 . S
H2105 C2086 0.913 . S
C775 C142 1.163 . S
C790 C56 1.310 1_554 S
C825 C226 1.162 . S
C840 C140 1.310 1_554 S
C875 C224 1.310 1_554 S
C890 C58 1.160 . S
C925 C238 1.139 . S
C940 C151 1.257 . S
C975 C235 1.257 . S
C990 C70 1.137 . S
C1025 C67 1.258 . S
C1040 C154 1.139 . S
C1075 C308 1.317 . S
C1090 C394 1.161 . S
C1125 C478 1.160 . S
C1140 C392 1.316 . S
C1175 C476 1.316 . S
C1190 C310 1.161 . S
C1225 C403 1.258 . S
C1240 C490 1.123 . S
C1275 C487 1.257 . S
C1290 C322 1.123 . S
C1325 C406 1.122 . S
C1340 C319 1.258 . S
C1375 C646 1.162 . S
C1390 C560 1.317 . S
C1425 C644 1.317 . S
C1440 C730 1.160 . S
C1475 C728 1.316 . S
C1490 C562 1.160 . S
C1525 C742 1.123 . S
C1540 C655 1.258 . S
C1575 C739 1.258 . S
C1590 C574 1.123 . S
C1625 C571 1.257 . S
C1640 C658 1.122 . S
C1675 C494 2.627 . S
C1690 C63 2.691 . S
C1725 C326 2.627 . S
C1740 C147 2.691 . S
C1775 C231 2.691 . S
C1790 C410 2.626 . S
C1825 C242 2.627 . S
C1840 C567 2.691 . S
C1875 C74 2.628 . S
C1890 C651 2.690 . S
C1925 C735 2.691 . S
C1940 C158 2.627 . S
C1975 C315 2.691 . S
C1990 C746 2.627 . S
C2025 C399 2.691 . S
C2040 C578 2.627 . S
C2075 C662 2.627 . S
C2090 C483 2.690 . S
