# Generated by pormake.
# Topology ukf, (4)-cn, num edge types: 1
# Building blocks:
#     Node 0, Type 0, BuildingBlock: CEKHIL_clean_sbu_0, # of connection points: 4
#     Node 1, Type 0, BuildingBlock: CEKHIL_clean_sbu_0, # of connection points: 4
#     Node 2, Type 0, BuildingBlock: CEKHIL_clean_sbu_0, # of connection points: 4
#     Node 3, Type 0, BuildingBlock: CEKHIL_clean_sbu_0, # of connection points: 4
#     Node 4, Type 0, BuildingBlock: CEKHIL_clean_sbu_0, # of connection points: 4
#     Node 5, Type 0, BuildingBlock: CEKHIL_clean_sbu_0, # of connection points: 4
#     Node 6, Type 0, BuildingBlock: CEKHIL_clean_sbu_0, # of connection points: 4
#     Node 7, Type 0, BuildingBlock: CEKHIL_clean_sbu_0, # of connection points: 4
#     Node 8, Type 0, BuildingBlock: CEKHIL_clean_sbu_0, # of connection points: 4
#     Node 9, Type 0, BuildingBlock: CEKHIL_clean_sbu_0, # of connection points: 4
#     Node 10, Type 0, BuildingBlock: CEKHIL_clean_sbu_0, # of connection points: 4
#     Node 11, Type 0, BuildingBlock: CEKHIL_clean_sbu_0, # of connection points: 4
#     Edge 12, Type (0, 0), BuildingBlock: CIFDUS_clean_linker_0, # of connection points: 2
#     Edge 13, Type (0, 0), BuildingBlock: CIFDUS_clean_linker_0, # of connection points: 2
#     Edge 14, Type (0, 0), BuildingBlock: CIFDUS_clean_linker_0, # of connection points: 2
#     Edge 15, Type (0, 0), BuildingBlock: CIFDUS_clean_linker_0, # of connection points: 2
#     Edge 16, Type (0, 0), BuildingBlock: CIFDUS_clean_linker_0, # of connection points: 2
#     Edge 17, Type (0, 0), BuildingBlock: CIFDUS_clean_linker_0, # of connection points: 2
#     Edge 18, Type (0, 0), BuildingBlock: CIFDUS_clean_linker_0, # of connection points: 2
#     Edge 19, Type (0, 0), BuildingBlock: CIFDUS_clean_linker_0, # of connection points: 2
#     Edge 20, Type (0, 0), BuildingBlock: CIFDUS_clean_linker_0, # of connection points: 2
#     Edge 21, Type (0, 0), BuildingBlock: CIFDUS_clean_linker_0, # of connection points: 2
#     Edge 22, Type (0, 0), BuildingBlock: CIFDUS_clean_linker_0, # of connection points: 2
#     Edge 23, Type (0, 0), BuildingBlock: CIFDUS_clean_linker_0, # of connection points: 2
#     Edge 24, Type (0, 0), BuildingBlock: CIFDUS_clean_linker_0, # of connection points: 2
#     Edge 25, Type (0, 0), BuildingBlock: CIFDUS_clean_linker_0, # of connection points: 2
#     Edge 26, Type (0, 0), BuildingBlock: CIFDUS_clean_linker_0, # of connection points: 2
#     Edge 27, Type (0, 0), BuildingBlock: CIFDUS_clean_linker_0, # of connection points: 2
#     Edge 28, Type (0, 0), BuildingBlock: CIFDUS_clean_linker_0, # of connection points: 2
#     Edge 29, Type (0, 0), BuildingBlock: CIFDUS_clean_linker_0, # of connection points: 2
#     Edge 30, Type (0, 0), BuildingBlock: CIFDUS_clean_linker_0, # of connection points: 2
#     Edge 31, Type (0, 0), BuildingBlock: CIFDUS_clean_linker_0, # of connection points: 2
#     Edge 32, Type (0, 0), BuildingBlock: CIFDUS_clean_linker_0, # of connection points: 2
#     Edge 33, Type (0, 0), BuildingBlock: CIFDUS_clean_linker_0, # of connection points: 2
#     Edge 34, Type (0, 0), BuildingBlock: CIFDUS_clean_linker_0, # of connection points: 2
#     Edge 35, Type (0, 0), BuildingBlock: CIFDUS_clean_linker_0, # of connection points: 2
# Relax obj value: 0.104
# Max RMSD: 0.082
# Mean RMSD: 0.082
data_MOF--net-ukf--node1-CEKHIL_clean_sbu_0--edge1-CIFDUS_clean_linker_0
_symmetry_space_group_name_H-M    P1
_symmetry_Int_Tables_number       1
_symmetry_cell_setting            triclinic
loop_
_symmetry_equiv_pos_as_xyz
'x, y, z'
_cell_length_a     28.283417
_cell_length_b     28.336142
_cell_length_c     55.988837
_cell_angle_alpha  89.938181
_cell_angle_beta   90.029793
_cell_angle_gamma 119.77237
loop_
_atom_site_label
_atom_site_type_symbol
_atom_site_fract_x
_atom_site_fract_y
_atom_site_fract_z
_atom_type_partial_charge
Co0 Co 0.44214 0.25716 0.04221 0.0
O1 O 0.48994 0.33205 0.05082 0.0
O2 O 0.40853 0.30151 0.03496 0.0
C3 C 0.50914 0.2494 0.02427 0.0
O4 O 0.38281 0.1816 0.03028 0.0
Co5 Co 0.46829 0.16803 0.06113 0.0
O6 O 0.40784 0.11965 0.04011 0.0
C7 C 0.41357 0.21139 0.09222 0.0
C8 C 0.45355 0.34284 0.04274 0.0
C9 C 0.37532 0.13263 0.03026 0.0
O10 O 0.41006 0.24045 0.07534 0.0
O11 O 0.43814 0.18395 0.09017 0.0
O12 O 0.48308 0.26891 0.01247 0.0
O13 O 0.49559 0.23778 0.04626 0.0
Co14 Co 0.19506 0.44707 0.37719 0.0
O15 O 0.17992 0.50174 0.3895 0.0
O16 O 0.1161 0.41905 0.38009 0.0
C17 C 0.25621 0.5059 0.35104 0.0
O18 O 0.19794 0.38075 0.36354 0.0
Co19 Co 0.31469 0.46689 0.378 0.0
O20 O 0.2852 0.40963 0.3534 0.0
C21 C 0.24468 0.42867 0.42158 0.0
C22 C 0.12854 0.46778 0.38714 0.0
C23 C 0.23499 0.37364 0.35333 0.0
O24 O 0.20244 0.42428 0.41056 0.0
O25 O 0.29165 0.44739 0.4119 0.0
O26 O 0.20502 0.4796 0.34517 0.0
O27 O 0.26785 0.49623 0.37194 0.0
Co28 Co 0.76422 0.17825 0.70356 0.0
O29 O 0.69092 0.155 0.71394 0.0
O30 O 0.71802 0.09947 0.70015 0.0
C31 C 0.7706 0.24782 0.68185 0.0
O32 O 0.83716 0.19003 0.69004 0.0
Co33 Co 0.85653 0.29561 0.71714 0.0
O34 O 0.90177 0.27738 0.69672 0.0
C35 C 0.8176 0.20644 0.75251 0.0
C36 C 0.67818 0.10613 0.70785 0.0
C37 C 0.88648 0.23026 0.68828 0.0
O38 O 0.78625 0.17085 0.73707 0.0
O39 O 0.84479 0.2575 0.74827 0.0
O40 O 0.74825 0.19938 0.67269 0.0
O41 O 0.7849 0.25182 0.70389 0.0
Co42 Co 0.57872 0.75013 0.03749 0.0
O43 O 0.52993 0.67599 0.04694 0.0
O44 O 0.61304 0.70542 0.03324 0.0
C45 C 0.51562 0.75773 0.01622 0.0
O46 O 0.63865 0.82426 0.02461 0.0
Co47 Co 0.55181 0.8405 0.05297 0.0
O48 O 0.61357 0.88717 0.03209 0.0
C49 C 0.60109 0.79846 0.08741 0.0
C50 C 0.56713 0.66467 0.04065 0.0
C51 C 0.64604 0.87309 0.0231 0.0
O52 O 0.60719 0.76958 0.07124 0.0
O53 O 0.57662 0.82557 0.08385 0.0
O54 O 0.54214 0.73607 0.00661 0.0
O55 O 0.52518 0.77017 0.03846 0.0
Co56 Co 0.81785 0.55893 0.37709 0.0
O57 O 0.8347 0.50606 0.39022 0.0
O58 O 0.89699 0.58639 0.37717 0.0
C59 C 0.75151 0.49712 0.35363 0.0
O60 O 0.81285 0.6222 0.36106 0.0
Co61 Co 0.69885 0.5395 0.38365 0.0
O62 O 0.72475 0.60217 0.36202 0.0
C63 C 0.77918 0.58568 0.42306 0.0
C64 C 0.8854 0.53879 0.38549 0.0
C65 C 0.77429 0.63274 0.35602 0.0
O66 O 0.81836 0.58876 0.41002 0.0
O67 O 0.72966 0.56382 0.41611 0.0
O68 O 0.80167 0.52105 0.34631 0.0
O69 O 0.74384 0.50933 0.37479 0.0
Co70 Co 0.26748 0.83715 0.70313 0.0
O71 O 0.34115 0.85915 0.71251 0.0
O72 O 0.31434 0.91586 0.6999 0.0
C73 C 0.25838 0.76733 0.68087 0.0
O74 O 0.19418 0.82681 0.69071 0.0
Co75 Co 0.17447 0.72031 0.71709 0.0
O76 O 0.12892 0.73974 0.69749 0.0
C77 C 0.21889 0.80845 0.7529 0.0
C78 C 0.35413 0.90841 0.70696 0.0
C79 C 0.14451 0.78711 0.68924 0.0
O80 O 0.24826 0.84435 0.73715 0.0
O81 O 0.19087 0.7575 0.74857 0.0
O82 O 0.28094 0.8159 0.67177 0.0
O83 O 0.24546 0.76338 0.70308 0.0
Co84 Co 0.76151 0.56665 0.6064 0.0
O85 O 0.69263 0.51249 0.59334 0.0
O86 O 0.70877 0.59271 0.60587 0.0
C87 C 0.7682 0.50658 0.63045 0.0
O88 O 0.8282 0.63133 0.62214 0.0
Co89 Co 0.86329 0.55058 0.60042 0.0
O90 O 0.89812 0.61393 0.62171 0.0
C91 C 0.82694 0.59345 0.56042 0.0
C92 C 0.67372 0.54479 0.59764 0.0
C93 C 0.8776 0.64348 0.62732 0.0
O94 O 0.79031 0.59587 0.57334 0.0
O95 O 0.85595 0.57317 0.56767 0.0
O96 O 0.74065 0.52953 0.63741 0.0
O97 O 0.78801 0.51859 0.60926 0.0
Co98 Co 0.18912 0.75578 0.94226 0.0
O99 O 0.16331 0.68081 0.93427 0.0
O100 O 0.10961 0.7126 0.94522 0.0
C101 C 0.25723 0.76248 0.96539 0.0
O102 O 0.20445 0.83207 0.95266 0.0
Co103 Co 0.30934 0.84119 0.92759 0.0
O104 O 0.29395 0.89099 0.94615 0.0
C105 C 0.22036 0.80104 0.89197 0.0
C106 C 0.11456 0.67081 0.93911 0.0
C107 C 0.24706 0.88012 0.95362 0.0
O108 O 0.18381 0.77343 0.90779 0.0
O109 O 0.27157 0.82655 0.8962 0.0
O110 O 0.20871 0.74319 0.97433 0.0
O111 O 0.26162 0.77333 0.94296 0.0
Co112 Co 0.42769 0.17423 0.27905 0.0
O113 O 0.47841 0.1509 0.26982 0.0
O114 O 0.39409 0.09485 0.28113 0.0
C115 C 0.48916 0.24111 0.30227 0.0
O116 O 0.36517 0.18679 0.29034 0.0
Co117 Co 0.45699 0.29403 0.26727 0.0
O118 O 0.39754 0.27748 0.28997 0.0
C119 C 0.40893 0.20789 0.23017 0.0
C120 C 0.4413 0.10161 0.27448 0.0
C121 C 0.36069 0.22918 0.29497 0.0
O122 O 0.40354 0.17067 0.24497 0.0
O123 O 0.43184 0.25848 0.23545 0.0
O124 O 0.46067 0.19231 0.31089 0.0
O125 O 0.48119 0.24696 0.28015 0.0
Co126 Co 0.27155 0.45014 0.60634 0.0
O127 O 0.34088 0.50443 0.59372 0.0
O128 O 0.32456 0.42438 0.60668 0.0
C129 C 0.26323 0.51 0.62978 0.0
O130 O 0.20416 0.38548 0.62175 0.0
Co131 Co 0.16991 0.4659 0.59863 0.0
O132 O 0.13419 0.40273 0.62002 0.0
C133 C 0.2073 0.42086 0.55998 0.0
C134 C 0.35977 0.47228 0.59846 0.0
C135 C 0.15445 0.37329 0.62626 0.0
O136 O 0.24447 0.42037 0.57323 0.0
O137 O 0.17726 0.44047 0.56653 0.0
O138 O 0.29074 0.48739 0.63727 0.0
O139 O 0.24464 0.49803 0.60839 0.0
Co140 Co 0.83205 0.26389 0.93801 0.0
O141 O 0.85944 0.33741 0.92667 0.0
O142 O 0.90929 0.3091 0.94552 0.0
C143 C 0.75687 0.25844 0.95417 0.0
O144 O 0.81631 0.19143 0.95364 0.0
Co145 Co 0.71872 0.16993 0.92074 0.0
O146 O 0.73107 0.1256 0.94425 0.0
C147 C 0.81631 0.20965 0.88984 0.0
C148 C 0.906 0.3493 0.9359 0.0
C149 C 0.77613 0.14207 0.95508 0.0
O150 O 0.84839 0.24144 0.90621 0.0
O151 O 0.76449 0.18204 0.89197 0.0
O152 O 0.80221 0.28054 0.96614 0.0
O153 O 0.75903 0.24304 0.93282 0.0
Co154 Co 0.57966 0.82907 0.27539 0.0
O155 O 0.53007 0.85308 0.26495 0.0
O156 O 0.61267 0.90802 0.27862 0.0
C157 C 0.51629 0.76063 0.29728 0.0
O158 O 0.64035 0.81632 0.28913 0.0
Co159 Co 0.55412 0.71151 0.26221 0.0
O160 O 0.61661 0.72842 0.28302 0.0
C161 C 0.60226 0.79941 0.22628 0.0
C162 C 0.5663 0.90183 0.27102 0.0
C163 C 0.6487 0.7755 0.29136 0.0
O164 O 0.60825 0.83554 0.24181 0.0
O165 O 0.57818 0.7484 0.23069 0.0
O166 O 0.54313 0.8092 0.30623 0.0
O167 O 0.52619 0.75569 0.27527 0.0
H168 H 0.22459 0.89612 -0.00085 0.0
H169 H 0.26936 0.9713 0.92981 0.0
H170 H 0.30435 0.06107 0.94769 0.0
H171 H 0.3427 0.11818 0.98365 0.0
H172 H 0.30121 0.04262 0.053 0.0
H173 H 0.24364 0.95387 0.03481 0.0
C174 C 0.23933 0.93195 0.98794 0.0
C175 C 0.24442 0.92723 0.96326 0.0
C176 C 0.2613 0.98385 -0.00152 0.0
C177 C 0.26477 0.97408 0.9489 0.0
C178 C 0.28547 0.02556 0.95914 0.0
C179 C 0.31886 0.08267 -0.00528 0.0
C180 C 0.32624 0.08677 0.01957 0.0
C181 C 0.28704 0.03118 0.98403 0.0
C182 C 0.29597 0.04028 0.03378 0.0
C183 C 0.26345 0.98937 0.02337 0.0
H184 H 0.21547 0.32739 0.30922 0.0
H185 H 0.23868 0.30139 0.38299 0.0
H186 H 0.27184 0.23995 0.37138 0.0
H187 H 0.31755 0.21562 0.33981 0.0
H188 H 0.29053 0.2385 0.26609 0.0
H189 H 0.23411 0.27734 0.27792 0.0
C190 C 0.22448 0.30553 0.32274 0.0
C191 C 0.22466 0.31887 0.3469 0.0
C192 C 0.24414 0.27053 0.31587 0.0
C193 C 0.23754 0.29115 0.36427 0.0
C194 C 0.25748 0.25669 0.35761 0.0
C195 C 0.29654 0.22601 0.3264 0.0
C196 C 0.30826 0.22436 0.30213 0.0
C197 C 0.26436 0.249 0.33339 0.0
C198 C 0.28165 0.23898 0.2849 0.0
C199 C 0.24999 0.26201 0.29166 0.0
H200 H 0.98625 0.25545 0.70384 0.0
H201 H 0.88188 0.19809 0.6421 0.0
H202 H 0.96146 0.22664 0.61628 0.0
H203 H 0.05991 0.28949 0.61108 0.0
H204 H 0.16378 0.35186 0.67277 0.0
H205 H 0.08573 0.2985 0.69897 0.0
C206 C 0.98092 0.24695 0.68483 0.0
C207 C 0.92851 0.22511 0.67478 0.0
C208 C 0.02701 0.26525 0.67013 0.0
C209 C 0.92177 0.21441 0.6502 0.0
C210 C 0.9674 0.23149 0.63543 0.0
C211 C 0.06577 0.28897 0.63022 0.0
C212 C 0.11734 0.32445 0.64007 0.0
C213 C 0.02023 0.26001 0.6451 0.0
C214 C 0.12465 0.32431 0.66483 0.0
C215 C 0.07976 0.29451 0.6798 0.0
H216 H 0.71731 0.97551 0.0368 0.0
H217 H 0.67186 0.86624 0.9769 0.0
H218 H 0.71972 0.94368 0.94975 0.0
H219 H 0.75556 0.04172 0.94277 0.0
H220 H 0.79938 0.15095 0.00261 0.0
H221 H 0.77225 0.07457 0.03024 0.0
C222 C 0.71998 0.96871 0.0179 0.0
C223 C 0.69098 0.91539 0.00877 0.0
C224 C 0.74645 0.01353 0.00243 0.0
C225 C 0.69433 0.90683 0.98431 0.0
C226 C 0.72104 0.95121 0.96878 0.0
C227 C 0.76118 0.04893 0.96186 0.0
C228 C 0.77912 0.10167 0.97074 0.0
C229 C 0.74453 1.00467 0.97754 0.0
C230 C 0.78614 0.1108 -0.00457 0.0
C231 C 0.76997 0.06699 0.01119 0.0
H232 H 0.72332 0.74893 0.2769 0.0
H233 H 0.6739 0.80675 0.33776 0.0
H234 H 0.72346 0.77762 0.36434 0.0
H235 H 0.7599 0.7153 0.37034 0.0
H236 H 0.80521 0.65371 0.3095 0.0
H237 H 0.77996 0.70596 0.2827 0.0
C238 C 0.72563 0.7574 0.2959 0.0
C239 C 0.69493 0.77977 0.30543 0.0
C240 C 0.75287 0.73902 0.31104 0.0
C241 C 0.69768 0.7902 0.33002 0.0
C242 C 0.7254 0.77278 0.34523 0.0
C243 C 0.7669 0.7157 0.35126 0.0
C244 C 0.78451 0.68088 0.34184 0.0
C245 C 0.7503 0.74428 0.33601 0.0
C246 C 0.7926 0.68082 0.31714 0.0
C247 C 0.77721 0.71001 0.30182 0.0
H248 H 0.97141 0.72848 0.61221 0.0
H249 H 0.86752 0.66412 0.6738 0.0
H250 H 0.94521 0.71788 0.70008 0.0
H251 H 0.04474 0.76161 0.70499 0.0
H252 H 0.1492 0.82097 0.64333 0.0
H253 H 0.06961 0.79236 0.61751 0.0
C254 C 0.96542 0.72867 0.63134 0.0
C255 C 0.91401 0.69252 0.64114 0.0
C256 C 0.01081 0.75789 0.64628 0.0
C257 C 0.90654 0.69221 0.6659 0.0
C258 C 0.95124 0.72225 0.68092 0.0
C259 C 0.05007 0.77058 0.68602 0.0
C260 C 0.10254 0.79291 0.67597 0.0
C261 C 1.00398 0.75218 0.6713 0.0
C262 C 0.10927 0.80424 0.65143 0.0
C263 C 0.06363 0.7871 0.63665 0.0
H264 H 0.72656 0.25045 0.00041 0.0
H265 H 0.67424 0.25523 0.92854 0.0
H266 H 0.59166 0.25185 0.94369 0.0
H267 H 0.53593 0.25088 0.97759 0.0
H268 H 0.58598 0.24026 0.0493 0.0
H269 H 0.66741 0.24205 0.03404 0.0
C270 C 0.6969 0.25061 0.98815 0.0
C271 C 0.70633 0.25359 0.96354 0.0
C272 C 0.64911 0.24753 -0.00307 0.0
C273 C 0.66753 0.25294 0.94766 0.0
C274 C 0.62044 0.25114 0.95627 0.0
C275 C 0.56458 0.24862 0.98978 0.0
C276 C 0.55537 0.2459 0.01444 0.0
C277 C 0.61103 0.24889 0.98089 0.0
C278 C 0.5923 0.24238 0.03016 0.0
C279 C 0.639 0.24361 0.0215 0.0
H280 H 0.34595 0.5904 0.36792 0.0
H281 H 0.26238 0.51735 0.30209 0.0
H282 H 0.33853 0.58936 0.27931 0.0
H283 H 0.42848 0.67311 0.27874 0.0
H284 H 0.50712 0.74773 0.34528 0.0
H285 H 0.43278 0.67398 0.36751 0.0
C286 C 0.34442 0.58998 0.34855 0.0
C287 C 0.29926 0.54865 0.33654 0.0
C288 C 0.38731 0.63141 0.3359 0.0
C289 C 0.29701 0.54902 0.31156 0.0
C290 C 0.34047 0.58991 0.29864 0.0
C291 C 0.4294 0.67278 0.29811 0.0
C292 C 0.47311 0.71513 0.31051 0.0
C293 C 0.38584 0.6312 0.31069 0.0
C294 C 0.47377 0.71524 0.33551 0.0
C295 C 0.4314 0.67329 0.34816 0.0
H296 H 0.76873 0.33389 0.70079 0.0
H297 H 0.78155 0.26551 0.63393 0.0
H298 H 0.78593 0.34281 0.61233 0.0
H299 H 0.78247 0.42712 0.61256 0.0
H300 H 0.76042 0.49128 0.67885 0.0
H301 H 0.76335 0.41784 0.70091 0.0
C302 C 0.77297 0.3363 0.6815 0.0
C303 C 0.77523 0.2947 0.66883 0.0
C304 C 0.77356 0.37965 0.66928 0.0
C305 C 0.77974 0.29734 0.64389 0.0
C306 C 0.78226 0.34137 0.63162 0.0
C307 C 0.77881 0.42531 0.63188 0.0
C308 C 0.7717 0.46446 0.64422 0.0
C309 C 0.77872 0.38238 0.64415 0.0
C310 C 0.76598 0.46136 0.66912 0.0
C311 C 0.76767 0.41955 0.68164 0.0
H312 H 0.34883 0.7715 0.94702 0.0
H313 H 0.26927 0.76314 0.01392 0.0
H314 H 0.34569 0.76557 0.03573 0.0
H315 H 0.43215 0.76484 0.03535 0.0
H316 H 0.50689 0.76502 0.96815 0.0
H317 H 0.43489 0.77132 0.94661 0.0
C318 C 0.34841 0.77075 0.9664 0.0
C319 C 0.3038 0.76727 0.97895 0.0
C320 C 0.3913 0.77046 0.97861 0.0
C321 C 0.30333 0.76572 0.00398 0.0
C322 C 0.34687 0.76709 0.01638 0.0
C323 C 0.43287 0.7668 0.01599 0.0
C324 C 0.47448 0.76458 0.00322 0.0
C325 C 0.39063 0.76869 0.00383 0.0
C326 C 0.47494 0.76649 0.97821 0.0
C327 C 0.43394 0.7701 0.96596 0.0
H328 H 0.57746 0.3264 0.28368 0.0
H329 H 0.49761 0.25608 0.35057 0.0
H330 H 0.57166 0.33193 0.37228 0.0
H331 H 0.65934 0.41636 0.37194 0.0
H332 H 0.74301 0.48236 0.3053 0.0
H333 H 0.6665 0.40938 0.28342 0.0
C334 C 0.57611 0.32794 0.30302 0.0
C335 C 0.53225 0.28637 0.31565 0.0
C336 C 0.61925 0.37046 0.31522 0.0
C337 C 0.53116 0.28794 0.34063 0.0
C338 C 0.57331 0.33114 0.35295 0.0
C339 C 0.66061 0.41496 0.35259 0.0
C340 C 0.70613 0.4546 0.34008 0.0
C341 C 0.61755 0.37237 0.34039 0.0
C342 C 0.70809 0.45207 0.31515 0.0
C343 C 0.66451 0.41054 0.30273 0.0
H344 H 0.24827 0.58898 0.61157 0.0
H345 H 0.26789 0.52386 0.67816 0.0
H346 H 0.2633 0.5964 0.70008 0.0
H347 H 0.25828 0.68031 0.69979 0.0
H348 H 0.24818 0.75024 0.63281 0.0
H349 H 0.24418 0.67312 0.61124 0.0
C350 C 0.251 0.59039 0.63092 0.0
C351 C 0.25809 0.55131 0.64339 0.0
C352 C 0.25023 0.63292 0.64313 0.0
C353 C 0.26247 0.55379 0.66833 0.0
C354 C 0.25983 0.59509 0.68078 0.0
C355 C 0.25464 0.6783 0.68047 0.0
C356 C 0.25319 0.72033 0.66777 0.0
C357 C 0.25435 0.63514 0.6683 0.0
C358 C 0.24939 0.71809 0.64281 0.0
C359 C 0.24711 0.67417 0.63055 0.0
H360 H 0.37678 0.13066 0.12444 0.0
H361 H 0.40323 0.29278 0.11349 0.0
H362 H 0.39379 0.3018 0.15646 0.0
H363 H 0.39673 0.27046 0.19687 0.0
H364 H 0.37911 0.11141 0.2076 0.0
H365 H 0.36589 0.09402 0.16476 0.0
C366 C 0.3794 0.1676 0.13144 0.0
C367 C 0.39219 0.21164 0.11609 0.0
C368 C 0.37653 0.17329 0.15605 0.0
C369 C 0.3939 0.25861 0.12509 0.0
C370 C 0.38908 0.26392 0.14964 0.0
C371 C 0.38938 0.23168 0.18992 0.0
C372 C 0.39066 0.19292 0.20528 0.0
C373 C 0.3835 0.22267 0.16529 0.0
C374 C 0.37929 0.14227 0.1961 0.0
C375 C 0.37184 0.13236 0.17162 0.0
H376 H 0.1569 0.393 0.45127 0.0
H377 H 0.325 0.43103 0.44944 0.0
H378 H 0.32536 0.42215 0.49247 0.0
H379 H 0.28294 0.41828 0.53104 0.0
H380 H 0.11561 0.38178 0.5331 0.0
H381 H 0.1098 0.37398 0.48977 0.0
C382 C 0.19332 0.39853 0.46023 0.0
C383 C 0.24113 0.41432 0.44714 0.0
C384 C 0.19366 0.39384 0.48515 0.0
C385 C 0.28774 0.42017 0.45905 0.0
C386 C 0.28815 0.41498 0.48374 0.0
C387 C 0.24482 0.40708 0.52203 0.0
C388 C 0.20037 0.40204 0.53509 0.0
C389 C 0.24205 0.404 0.49705 0.0
C390 C 0.15094 0.38713 0.52327 0.0
C391 C 0.14753 0.38279 0.49849 0.0
H392 H 0.76995 0.1282 0.85787 0.0
H393 H 0.91079 0.28669 0.86866 0.0
H394 H 0.92992 0.294 0.82579 0.0
H395 H 0.89498 0.26407 0.78543 0.0
H396 H 0.74788 0.11022 0.77469 0.0
H397 H 0.74305 0.09195 0.81755 0.0
C398 C 0.80552 0.16394 0.8509 0.0
C399 C 0.83802 0.20764 0.8662 0.0
C400 C 0.81441 0.16899 0.82627 0.0
C401 C 0.88487 0.25286 0.85716 0.0
C402 C 0.89543 0.25723 0.83265 0.0
C403 C 0.86218 0.22613 0.79239 0.0
C404 C 0.82078 0.18928 0.77705 0.0
C405 C 0.85856 0.21698 0.81701 0.0
C406 C 0.7797 0.13958 0.78619 0.0
C407 C 0.77684 0.12926 0.81068 0.0
H408 H 0.62726 0.8765 0.12056 0.0
H409 H 0.61619 0.72059 0.1094 0.0
H410 H 0.62565 0.71204 0.15239 0.0
H411 H 0.62063 0.74154 0.19289 0.0
H412 H 0.62489 0.89444 0.20398 0.0
H413 H 0.63553 0.91207 0.16103 0.0
C414 C 0.62776 0.84098 0.1275 0.0
C415 C 0.61962 0.79853 0.11199 0.0
C416 C 0.63142 0.83566 0.15214 0.0
C417 C 0.62191 0.75352 0.12105 0.0
C418 C 0.6269 0.74848 0.14561 0.0
C419 C 0.62461 0.77912 0.18597 0.0
C420 C 0.62044 0.81599 0.20148 0.0
C421 C 0.62905 0.78812 0.16132 0.0
C422 C 0.6273 0.86516 0.19237 0.0
C423 C 0.63308 0.87508 0.16782 0.0
H424 H 0.75856 0.61129 0.5324 0.0
H425 H 0.91313 0.61517 0.53175 0.0
H426 H 0.9165 0.62177 0.48846 0.0
H427 H 0.86779 0.60973 0.45072 0.0
H428 H 0.71307 0.60561 0.45149 0.0
H429 H 0.71828 0.6168 0.49454 0.0
C430 C 0.79358 0.61495 0.52284 0.0
C431 C 0.83444 0.61085 0.53521 0.0
C432 C 0.79504 0.61789 0.49783 0.0
C433 C 0.88012 0.61657 0.52258 0.0
C434 C 0.88224 0.62038 0.49778 0.0
C435 C 0.8359 0.61256 0.46024 0.0
C436 C 0.7894 0.60493 0.44801 0.0
C437 C 0.83862 0.61833 0.48516 0.0
C438 C 0.74874 0.60968 0.46057 0.0
C439 C 0.75158 0.61618 0.48524 0.0
H440 H 0.27787 0.87776 0.85896 0.0
H441 H 0.12572 0.72871 0.86952 0.0
H442 H 0.10738 0.72387 0.82662 0.0
H443 H 0.14181 0.75403 0.7862 0.0
H444 H 0.297 0.89958 0.77556 0.0
H445 H 0.30648 0.91456 0.81873 0.0
C446 C 0.24037 0.84445 0.85192 0.0
C447 C 0.20384 0.80278 0.8672 0.0
C448 C 0.2309 0.84129 0.82734 0.0
C449 C 0.1547 0.76086 0.85802 0.0
C450 C 0.14437 0.75799 0.83353 0.0
C451 C 0.17742 0.7895 0.7933 0.0
C452 C 0.21939 0.82494 0.77785 0.0
C453 C 0.18331 0.79674 0.81801 0.0
C454 C 0.26445 0.87151 0.78715 0.0
C455 C 0.27003 0.87981 0.8118 0.0
H456 H 0.46797 0.57327 0.03993 0.0
H457 H 0.63986 0.62715 0.04158 0.0
H458 H 0.6194 0.5323 0.04276 0.0
H459 H 0.5526 0.43427 0.04361 0.0
H460 H 0.38089 0.38026 0.03935 0.0
H461 H 0.40127 0.47513 0.03882 0.0
C462 C 0.50103 0.56431 0.04061 0.0
C463 C 0.5555 0.60737 0.04092 0.0
C464 C 0.48888 0.5097 0.04078 0.0
C465 C 0.59773 0.59493 0.04139 0.0
C466 C 0.58597 0.54068 0.04209 0.0
C467 C 0.51954 0.44319 0.04262 0.0
C468 C 0.46512 0.4001 0.04176 0.0
C469 C 0.53171 0.49777 0.04186 0.0
C470 C 0.42297 0.4125 0.04008 0.0
C471 C 0.43468 0.46677 0.03982 0.0
H472 H 0.99695 0.59567 0.39284 0.0
H473 H 0.86209 0.43469 0.38013 0.0
H474 H 0.9234 0.39752 0.38 0.0
H475 H 0.0164 0.41035 0.38245 0.0
H476 H 0.15064 0.57043 0.39762 0.0
H477 H 0.08922 0.60733 0.39817 0.0
C478 C 0.98109 0.5525 0.39013 0.0
C479 C 0.92487 0.51826 0.38646 0.0
C480 C 0.01669 0.53076 0.39061 0.0
C481 C 0.90508 0.46219 0.38317 0.0
C482 C 0.9402 0.44071 0.38303 0.0
C483 C 0.03211 0.45315 0.38612 0.0
C484 C 0.08837 0.48727 0.38985 0.0
C485 C 0.99622 0.47451 0.38665 0.0
C486 C 0.10767 0.5428 0.39461 0.0
C487 C 0.07251 0.56426 0.39486 0.0
H488 H 0.58869 0.11784 0.7091 0.0
H489 H 0.63712 0.99557 0.70682 0.0
H490 H 0.54108 0.92402 0.70705 0.0
H491 H 0.44358 0.89647 0.7076 0.0
H492 H 0.3953 0.01893 0.70728 0.0
H493 H 0.49129 0.09038 0.70835 0.0
C494 C 0.57833 0.07551 0.70879 0.0
C495 C 0.6202 0.06206 0.70819 0.0
C496 C 0.52309 0.03476 0.70841 0.0
C497 C 0.60587 0.00704 0.70737 0.0
C498 C 0.55094 0.96617 0.70751 0.0
C499 C 0.45398 0.93882 0.70787 0.0
C500 C 0.41215 0.95234 0.70757 0.0
C501 C 0.50924 0.97957 0.708 0.0
C502 C 0.42652 0.0074 0.70755 0.0
C503 C 0.48143 0.04822 0.70818 0.0
H504 H 0.61855 0.60238 0.59809 0.0
H505 H 0.59359 0.43961 0.59342 0.0
H506 H 0.49533 0.40217 0.59341 0.0
H507 H 0.41486 0.41473 0.59593 0.0
H508 H 0.43989 0.57773 0.59792 0.0
H509 H 0.53818 0.61521 0.59773 0.0
C510 C 0.59161 0.5588 0.5969 0.0
C511 C 0.61389 0.52414 0.59583 0.0
C512 C 0.53446 0.53714 0.59651 0.0
C513 C 0.578 0.46761 0.59418 0.0
C514 C 0.52147 0.4459 0.59426 0.0
C515 C 0.44186 0.45839 0.59621 0.0
C516 C 0.41963 0.49311 0.59701 0.0
C517 C 0.49902 0.48013 0.59561 0.0
C518 C 0.45552 0.54975 0.59719 0.0
C519 C 0.51203 0.57145 0.59716 0.0
H520 H 0.12108 0.57876 0.94129 0.0
H521 H 1.00462 0.63447 0.93568 0.0
H522 H 0.9302 0.53984 0.93339 0.0
H523 H 0.89856 0.44123 0.93282 0.0
H524 H 0.01512 0.38626 0.94113 0.0
H525 H 0.08937 0.48078 0.94245 0.0
C526 C 0.0794 0.57032 0.93952 0.0
C527 C 0.06849 0.61381 0.93845 0.0
C528 C 0.03696 0.51592 0.93865 0.0
C529 C 0.01418 0.60193 0.93653 0.0
C530 C 0.97168 0.54779 0.93516 0.0
C531 C 0.94027 0.44993 0.93481 0.0
C532 C 0.95134 0.40661 0.93662 0.0
C533 C 0.98262 0.50446 0.93613 0.0
C534 C 1.00548 0.41867 0.93962 0.0
C535 C 0.04792 0.47275 0.94038 0.0
H536 H 0.46534 0.89085 0.26991 0.0
H537 H 0.63572 0.01222 0.27259 0.0
H538 H 0.61149 0.08417 0.27323 0.0
H539 H 0.542 0.11231 0.2735 0.0
H540 H 0.37147 0.99097 0.2733 0.0
H541 H 0.39566 0.919 0.27128 0.0
C542 C 0.4973 0.93308 0.27048 0.0
C543 C 0.55247 0.94614 0.27097 0.0
C544 C 0.48293 0.97407 0.27139 0.0
C545 C 0.59313 1.00103 0.27212 0.0
C546 C 0.5792 0.04213 0.2725 0.0
C547 C 0.50996 0.0701 0.27292 0.0
C548 C 0.4548 0.05708 0.27337 0.0
C549 C 0.52426 0.0291 0.27219 0.0
C550 C 0.41407 1.00216 0.27295 0.0
C551 C 0.42797 0.96105 0.27176 0.0
loop_
_geom_bond_atom_site_label_1
_geom_bond_atom_site_label_2
_geom_bond_distance
_geom_bond_site_symmetry_2
_ccdc_geom_bond_type
Co0 O1 2.216 . S
Co0 O2 2.091 . S
Co0 O4 2.004 . S
Co0 O10 2.021 . S
Co0 O12 2.137 . S
Co0 O13 2.244 . S
O1 Co0 2.216 . S
O1 C8 1.247 . S
O2 Co0 2.091 . S
O2 C8 1.261 . S
C3 O12 1.247 . S
C3 O13 1.272 . S
O4 Co0 2.004 . S
O4 C9 1.259 . S
Co5 O6 2.061 . S
Co5 O11 2.052 . S
Co5 O13 2.135 . S
O6 Co5 2.061 . S
O6 C9 1.235 . S
C7 O10 1.238 . S
C7 O11 1.241 . S
C8 O1 1.247 . S
C8 O2 1.261 . S
C9 O4 1.259 . S
C9 O6 1.235 . S
O10 Co0 2.021 . S
O10 C7 1.238 . S
O11 Co5 2.052 . S
O11 C7 1.241 . S
O12 Co0 2.137 . S
O12 C3 1.247 . S
O13 Co0 2.244 . S
O13 C3 1.272 . S
O13 Co5 2.135 . S
Co14 O15 2.216 . S
Co14 O16 2.091 . S
Co14 O18 2.004 . S
Co14 O24 2.021 . S
Co14 O26 2.137 . S
Co14 O27 2.244 . S
O15 Co14 2.216 . S
O15 C22 1.247 . S
O16 Co14 2.091 . S
O16 C22 1.261 . S
C17 O26 1.247 . S
C17 O27 1.272 . S
O18 Co14 2.004 . S
O18 C23 1.259 . S
Co19 O20 2.061 . S
Co19 O25 2.052 . S
Co19 O27 2.135 . S
O20 Co19 2.061 . S
O20 C23 1.235 . S
C21 O24 1.238 . S
C21 O25 1.241 . S
C22 O15 1.247 . S
C22 O16 1.261 . S
C23 O18 1.259 . S
C23 O20 1.235 . S
O24 Co14 2.021 . S
O24 C21 1.238 . S
O25 Co19 2.052 . S
O25 C21 1.241 . S
O26 Co14 2.137 . S
O26 C17 1.247 . S
O27 Co14 2.244 . S
O27 C17 1.272 . S
O27 Co19 2.135 . S
Co28 O29 2.216 . S
Co28 O30 2.091 . S
Co28 O32 2.004 . S
Co28 O38 2.021 . S
Co28 O40 2.137 . S
Co28 O41 2.244 . S
O29 Co28 2.216 . S
O29 C36 1.247 . S
O30 Co28 2.091 . S
O30 C36 1.261 . S
C31 O40 1.247 . S
C31 O41 1.272 . S
O32 Co28 2.004 . S
O32 C37 1.259 . S
Co33 O34 2.061 . S
Co33 O39 2.052 . S
Co33 O41 2.135 . S
O34 Co33 2.061 . S
O34 C37 1.235 . S
C35 O38 1.238 . S
C35 O39 1.241 . S
C36 O29 1.247 . S
C36 O30 1.261 . S
C37 O32 1.259 . S
C37 O34 1.235 . S
O38 Co28 2.021 . S
O38 C35 1.238 . S
O39 Co33 2.052 . S
O39 C35 1.241 . S
O40 Co28 2.137 . S
O40 C31 1.247 . S
O41 Co28 2.244 . S
O41 C31 1.272 . S
O41 Co33 2.135 . S
Co42 O43 2.216 . S
Co42 O44 2.091 . S
Co42 O46 2.004 . S
Co42 O52 2.021 . S
Co42 O54 2.137 . S
Co42 O55 2.244 . S
O43 Co42 2.216 . S
O43 C50 1.247 . S
O44 Co42 2.091 . S
O44 C50 1.261 . S
C45 O54 1.247 . S
C45 O55 1.272 . S
O46 Co42 2.004 . S
O46 C51 1.259 . S
Co47 O48 2.061 . S
Co47 O53 2.052 . S
Co47 O55 2.135 . S
O48 Co47 2.061 . S
O48 C51 1.235 . S
C49 O52 1.238 . S
C49 O53 1.241 . S
C50 O43 1.247 . S
C50 O44 1.261 . S
C51 O46 1.259 . S
C51 O48 1.235 . S
O52 Co42 2.021 . S
O52 C49 1.238 . S
O53 Co47 2.052 . S
O53 C49 1.241 . S
O54 Co42 2.137 . S
O54 C45 1.247 . S
O55 Co42 2.244 . S
O55 C45 1.272 . S
O55 Co47 2.135 . S
Co56 O57 2.216 . S
Co56 O58 2.091 . S
Co56 O60 2.004 . S
Co56 O66 2.021 . S
Co56 O68 2.137 . S
Co56 O69 2.244 . S
O57 Co56 2.216 . S
O57 C64 1.247 . S
O58 Co56 2.091 . S
O58 C64 1.261 . S
C59 O68 1.247 . S
C59 O69 1.272 . S
O60 Co56 2.004 . S
O60 C65 1.259 . S
Co61 O62 2.061 . S
Co61 O67 2.052 . S
Co61 O69 2.135 . S
O62 Co61 2.061 . S
O62 C65 1.235 . S
C63 O66 1.238 . S
C63 O67 1.241 . S
C64 O57 1.247 . S
C64 O58 1.261 . S
C65 O60 1.259 . S
C65 O62 1.235 . S
O66 Co56 2.021 . S
O66 C63 1.238 . S
O67 Co61 2.052 . S
O67 C63 1.241 . S
O68 Co56 2.137 . S
O68 C59 1.247 . S
O69 Co56 2.244 . S
O69 C59 1.272 . S
O69 Co61 2.135 . S
Co70 O71 2.216 . S
Co70 O72 2.091 . S
Co70 O74 2.004 . S
Co70 O80 2.021 . S
Co70 O82 2.137 . S
Co70 O83 2.244 . S
O71 Co70 2.216 . S
O71 C78 1.247 . S
O72 Co70 2.091 . S
O72 C78 1.261 . S
C73 O82 1.247 . S
C73 O83 1.272 . S
O74 Co70 2.004 . S
O74 C79 1.259 . S
Co75 O76 2.061 . S
Co75 O81 2.052 . S
Co75 O83 2.135 . S
O76 Co75 2.061 . S
O76 C79 1.235 . S
C77 O80 1.238 . S
C77 O81 1.241 . S
C78 O71 1.247 . S
C78 O72 1.261 . S
C79 O74 1.259 . S
C79 O76 1.235 . S
O80 Co70 2.021 . S
O80 C77 1.238 . S
O81 Co75 2.052 . S
O81 C77 1.241 . S
O82 Co70 2.137 . S
O82 C73 1.247 . S
O83 Co70 2.244 . S
O83 C73 1.272 . S
O83 Co75 2.135 . S
Co84 O85 2.216 . S
Co84 O86 2.091 . S
Co84 O88 2.004 . S
Co84 O94 2.021 . S
Co84 O96 2.137 . S
Co84 O97 2.244 . S
O85 Co84 2.216 . S
O85 C92 1.247 . S
O86 Co84 2.091 . S
O86 C92 1.261 . S
C87 O96 1.247 . S
C87 O97 1.272 . S
O88 Co84 2.004 . S
O88 C93 1.259 . S
Co89 O90 2.061 . S
Co89 O95 2.052 . S
Co89 O97 2.135 . S
O90 Co89 2.061 . S
O90 C93 1.235 . S
C91 O94 1.238 . S
C91 O95 1.241 . S
C92 O85 1.247 . S
C92 O86 1.261 . S
C93 O88 1.259 . S
C93 O90 1.235 . S
O94 Co84 2.021 . S
O94 C91 1.238 . S
O95 Co89 2.052 . S
O95 C91 1.241 . S
O96 Co84 2.137 . S
O96 C87 1.247 . S
O97 Co84 2.244 . S
O97 C87 1.272 . S
O97 Co89 2.135 . S
Co98 O99 2.216 . S
Co98 O100 2.091 . S
Co98 O102 2.004 . S
Co98 O108 2.021 . S
Co98 O110 2.137 . S
Co98 O111 2.244 . S
O99 Co98 2.216 . S
O99 C106 1.247 . S
O100 Co98 2.091 . S
O100 C106 1.261 . S
C101 O110 1.247 . S
C101 O111 1.272 . S
O102 Co98 2.004 . S
O102 C107 1.259 . S
Co103 O104 2.061 . S
Co103 O109 2.052 . S
Co103 O111 2.135 . S
O104 Co103 2.061 . S
O104 C107 1.235 . S
C105 O108 1.238 . S
C105 O109 1.241 . S
C106 O99 1.247 . S
C106 O100 1.261 . S
C107 O102 1.259 . S
C107 O104 1.235 . S
O108 Co98 2.021 . S
O108 C105 1.238 . S
O109 Co103 2.052 . S
O109 C105 1.241 . S
O110 Co98 2.137 . S
O110 C101 1.247 . S
O111 Co98 2.244 . S
O111 C101 1.272 . S
O111 Co103 2.135 . S
Co112 O113 2.216 . S
Co112 O114 2.091 . S
Co112 O116 2.004 . S
Co112 O122 2.021 . S
Co112 O124 2.137 . S
Co112 O125 2.244 . S
O113 Co112 2.216 . S
O113 C120 1.247 . S
O114 Co112 2.091 . S
O114 C120 1.261 . S
C115 O124 1.247 . S
C115 O125 1.272 . S
O116 Co112 2.004 . S
O116 C121 1.259 . S
Co117 O118 2.061 . S
Co117 O123 2.052 . S
Co117 O125 2.135 . S
O118 Co117 2.061 . S
O118 C121 1.235 . S
C119 O122 1.238 . S
C119 O123 1.241 . S
C120 O113 1.247 . S
C120 O114 1.261 . S
C121 O116 1.259 . S
C121 O118 1.235 . S
O122 Co112 2.021 . S
O122 C119 1.238 . S
O123 Co117 2.052 . S
O123 C119 1.241 . S
O124 Co112 2.137 . S
O124 C115 1.247 . S
O125 Co112 2.244 . S
O125 C115 1.272 . S
O125 Co117 2.135 . S
Co126 O127 2.216 . S
Co126 O128 2.091 . S
Co126 O130 2.004 . S
Co126 O136 2.021 . S
Co126 O138 2.137 . S
Co126 O139 2.244 . S
O127 Co126 2.216 . S
O127 C134 1.247 . S
O128 Co126 2.091 . S
O128 C134 1.261 . S
C129 O138 1.247 . S
C129 O139 1.272 . S
O130 Co126 2.004 . S
O130 C135 1.259 . S
Co131 O132 2.061 . S
Co131 O137 2.052 . S
Co131 O139 2.135 . S
O132 Co131 2.061 . S
O132 C135 1.235 . S
C133 O136 1.238 . S
C133 O137 1.241 . S
C134 O127 1.247 . S
C134 O128 1.261 . S
C135 O130 1.259 . S
C135 O132 1.235 . S
O136 Co126 2.021 . S
O136 C133 1.238 . S
O137 Co131 2.052 . S
O137 C133 1.241 . S
O138 Co126 2.137 . S
O138 C129 1.247 . S
O139 Co126 2.244 . S
O139 C129 1.272 . S
O139 Co131 2.135 . S
Co140 O141 2.216 . S
Co140 O142 2.091 . S
Co140 O144 2.004 . S
Co140 O150 2.021 . S
Co140 O152 2.137 . S
Co140 O153 2.244 . S
O141 Co140 2.216 . S
O141 C148 1.247 . S
O142 Co140 2.091 . S
O142 C148 1.261 . S
C143 O152 1.247 . S
C143 O153 1.272 . S
O144 Co140 2.004 . S
O144 C149 1.259 . S
Co145 O146 2.061 . S
Co145 O151 2.052 . S
Co145 O153 2.135 . S
O146 Co145 2.061 . S
O146 C149 1.235 . S
C147 O150 1.238 . S
C147 O151 1.241 . S
C148 O141 1.247 . S
C148 O142 1.261 . S
C149 O144 1.259 . S
C149 O146 1.235 . S
O150 Co140 2.021 . S
O150 C147 1.238 . S
O151 Co145 2.052 . S
O151 C147 1.241 . S
O152 Co140 2.137 . S
O152 C143 1.247 . S
O153 Co140 2.244 . S
O153 C143 1.272 . S
O153 Co145 2.135 . S
Co154 O155 2.216 . S
Co154 O156 2.091 . S
Co154 O158 2.004 . S
Co154 O164 2.021 . S
Co154 O166 2.137 . S
Co154 O167 2.244 . S
O155 Co154 2.216 . S
O155 C162 1.247 . S
O156 Co154 2.091 . S
O156 C162 1.261 . S
C157 O166 1.247 . S
C157 O167 1.272 . S
O158 Co154 2.004 . S
O158 C163 1.259 . S
Co159 O160 2.061 . S
Co159 O165 2.052 . S
Co159 O167 2.135 . S
O160 Co159 2.061 . S
O160 C163 1.235 . S
C161 O164 1.238 . S
C161 O165 1.241 . S
C162 O155 1.247 . S
C162 O156 1.261 . S
C163 O158 1.259 . S
C163 O160 1.235 . S
O164 Co154 2.021 . S
O164 C161 1.238 . S
O165 Co159 2.052 . S
O165 C161 1.241 . S
O166 Co154 2.137 . S
O166 C157 1.247 . S
O167 Co154 2.244 . S
O167 C157 1.272 . S
O167 Co159 2.135 . S
H168 C174 0.930 . S
H169 C177 0.930 . S
H170 C178 0.930 . S
H171 C179 0.930 . S
H172 C182 0.930 . S
H173 C183 0.930 . S
C174 H168 0.930 . S
C174 C175 1.355 1_554 S
C174 C176 1.415 . S
C175 C174 1.355 1_556 S
C175 C177 1.419 . S
C176 C174 1.415 . S
C176 C181 1.425 1_564 S
C176 C183 1.409 . S
C177 H169 0.930 . S
C177 C175 1.419 . S
C177 C178 1.362 1_565 S
C178 H170 0.930 . S
C178 C177 1.362 1_545 S
C178 C181 1.409 . S
C179 H171 0.930 . S
C179 C180 1.355 1_556 S
C179 C181 1.415 . S
C180 C179 1.355 1_554 S
C180 C182 1.419 . S
C181 C176 1.425 1_546 S
C181 C178 1.409 . S
C181 C179 1.415 . S
C182 H172 0.930 . S
C182 C180 1.419 . S
C182 C183 1.362 1_545 S
C183 H173 0.930 . S
C183 C176 1.409 . S
C183 C182 1.362 1_565 S
H184 C190 0.930 . S
H185 C193 0.930 . S
H186 C194 0.930 . S
H187 C195 0.930 . S
H188 C198 0.930 . S
H189 C199 0.930 . S
C190 H184 0.930 . S
C190 C191 1.355 . S
C190 C192 1.415 . S
C191 C190 1.355 . S
C191 C193 1.419 . S
C192 C190 1.415 . S
C192 C197 1.425 . S
C192 C199 1.409 . S
C193 H185 0.930 . S
C193 C191 1.419 . S
C193 C194 1.362 . S
C194 H186 0.930 . S
C194 C193 1.362 . S
C194 C197 1.409 . S
C195 H187 0.930 . S
C195 C196 1.355 . S
C195 C197 1.415 . S
C196 C195 1.355 . S
C196 C198 1.419 . S
C197 C192 1.425 . S
C197 C194 1.409 . S
C197 C195 1.415 . S
C198 H188 0.930 . S
C198 C196 1.419 . S
C198 C199 1.362 . S
C199 H189 0.930 . S
C199 C192 1.409 . S
C199 C198 1.362 . S
H200 C206 0.930 . S
H201 C209 0.930 . S
H202 C210 0.930 . S
H203 C211 0.930 . S
H204 C214 0.930 . S
H205 C215 0.930 . S
C206 H200 0.930 . S
C206 C207 1.355 . S
C206 C208 1.415 . S
C207 C206 1.355 . S
C207 C209 1.419 . S
C208 C206 1.415 . S
C208 C213 1.425 1_655 S
C208 C215 1.409 1_655 S
C209 H201 0.930 . S
C209 C207 1.419 . S
C209 C210 1.362 . S
C210 H202 0.930 . S
C210 C209 1.362 . S
C210 C213 1.409 1_655 S
C211 H203 0.930 . S
C211 C212 1.355 . S
C211 C213 1.415 . S
C212 C211 1.355 . S
C212 C214 1.419 . S
C213 C208 1.425 1_455 S
C213 C210 1.409 1_455 S
C213 C211 1.415 . S
C214 H204 0.930 . S
C214 C212 1.419 . S
C214 C215 1.362 . S
C215 H205 0.930 . S
C215 C208 1.409 1_455 S
C215 C214 1.362 . S
H216 C222 0.930 . S
H217 C225 0.930 . S
H218 C226 0.930 . S
H219 C227 0.930 . S
H220 C230 0.930 . S
H221 C231 0.930 . S
C222 H216 0.930 . S
C222 C223 1.355 . S
C222 C224 1.415 1_565 S
C223 C222 1.355 . S
C223 C225 1.419 1_554 S
C224 C222 1.415 1_545 S
C224 C229 1.425 1_544 S
C224 C231 1.409 . S
C225 H217 0.930 . S
C225 C223 1.419 1_556 S
C225 C226 1.362 . S
C226 H218 0.930 . S
C226 C225 1.362 . S
C226 C229 1.409 . S
C227 H219 0.930 . S
C227 C228 1.355 . S
C227 C229 1.415 1_545 S
C228 C227 1.355 . S
C228 C230 1.419 1_556 S
C229 C224 1.425 1_566 S
C229 C226 1.409 . S
C229 C227 1.415 1_565 S
C230 H220 0.930 . S
C230 C228 1.419 1_554 S
C230 C231 1.362 . S
C231 H221 0.930 . S
C231 C224 1.409 . S
C231 C230 1.362 . S
H232 C238 0.930 . S
H233 C241 0.930 . S
H234 C242 0.930 . S
H235 C243 0.930 . S
H236 C246 0.930 . S
H237 C247 0.930 . S
C238 H232 0.930 . S
C238 C239 1.355 . S
C238 C240 1.415 . S
C239 C238 1.355 . S
C239 C241 1.419 . S
C240 C238 1.415 . S
C240 C245 1.425 . S
C240 C247 1.409 . S
C241 H233 0.930 . S
C241 C239 1.419 . S
C241 C242 1.362 . S
C242 H234 0.930 . S
C242 C241 1.362 . S
C242 C245 1.409 . S
C243 H235 0.930 . S
C243 C244 1.355 . S
C243 C245 1.415 . S
C244 C243 1.355 . S
C244 C246 1.419 . S
C245 C240 1.425 . S
C245 C242 1.409 . S
C245 C243 1.415 . S
C246 H236 0.930 . S
C246 C244 1.419 . S
C246 C247 1.362 . S
C247 H237 0.930 . S
C247 C240 1.409 . S
C247 C246 1.362 . S
H248 C254 0.930 . S
H249 C257 0.930 . S
H250 C258 0.930 . S
H251 C259 0.930 . S
H252 C262 0.930 . S
H253 C263 0.930 . S
C254 H248 0.930 . S
C254 C255 1.355 . S
C254 C256 1.415 . S
C255 C254 1.355 . S
C255 C257 1.419 . S
C256 C254 1.415 . S
C256 C261 1.425 1_655 S
C256 C263 1.409 1_655 S
C257 H249 0.930 . S
C257 C255 1.419 . S
C257 C258 1.362 . S
C258 H250 0.930 . S
C258 C257 1.362 . S
C258 C261 1.409 1_655 S
C259 H251 0.930 . S
C259 C260 1.355 . S
C259 C261 1.415 . S
C260 C259 1.355 . S
C260 C262 1.419 . S
C261 C256 1.425 1_455 S
C261 C258 1.409 1_455 S
C261 C259 1.415 . S
C262 H252 0.930 . S
C262 C260 1.419 . S
C262 C263 1.362 . S
C263 H253 0.930 . S
C263 C256 1.409 1_455 S
C263 C262 1.362 . S
H264 C270 0.930 . S
H265 C273 0.930 . S
H266 C274 0.930 . S
H267 C275 0.930 . S
H268 C278 0.930 . S
H269 C279 0.930 . S
C270 H264 0.930 . S
C270 C271 1.355 1_554 S
C270 C272 1.415 . S
C271 C270 1.355 1_556 S
C271 C273 1.419 . S
C272 C270 1.415 . S
C272 C277 1.425 1_554 S
C272 C279 1.409 . S
C273 H265 0.930 . S
C273 C271 1.419 . S
C273 C274 1.362 . S
C274 H266 0.930 . S
C274 C273 1.362 . S
C274 C277 1.409 . S
C275 H267 0.930 . S
C275 C276 1.355 1_556 S
C275 C277 1.415 . S
C276 C275 1.355 1_554 S
C276 C278 1.419 . S
C277 C272 1.425 1_556 S
C277 C274 1.409 . S
C277 C275 1.415 . S
C278 H268 0.930 . S
C278 C276 1.419 . S
C278 C279 1.362 . S
C279 H269 0.930 . S
C279 C272 1.409 . S
C279 C278 1.362 . S
H280 C286 0.930 . S
H281 C289 0.930 . S
H282 C290 0.930 . S
H283 C291 0.930 . S
H284 C294 0.930 . S
H285 C295 0.930 . S
C286 H280 0.930 . S
C286 C287 1.355 . S
C286 C288 1.415 . S
C287 C286 1.355 . S
C287 C289 1.419 . S
C288 C286 1.415 . S
C288 C293 1.425 . S
C288 C295 1.409 . S
C289 H281 0.930 . S
C289 C287 1.419 . S
C289 C290 1.362 . S
C290 H282 0.930 . S
C290 C289 1.362 . S
C290 C293 1.409 . S
C291 H283 0.930 . S
C291 C292 1.355 . S
C291 C293 1.415 . S
C292 C291 1.355 . S
C292 C294 1.419 . S
C293 C288 1.425 . S
C293 C290 1.409 . S
C293 C291 1.415 . S
C294 H284 0.930 . S
C294 C292 1.419 . S
C294 C295 1.362 . S
C295 H285 0.930 . S
C295 C288 1.409 . S
C295 C294 1.362 . S
H296 C302 0.930 . S
H297 C305 0.930 . S
H298 C306 0.930 . S
H299 C307 0.930 . S
H300 C310 0.930 . S
H301 C311 0.930 . S
C302 H296 0.930 . S
C302 C303 1.355 . S
C302 C304 1.415 . S
C303 C302 1.355 . S
C303 C305 1.419 . S
C304 C302 1.415 . S
C304 C309 1.425 . S
C304 C311 1.409 . S
C305 H297 0.930 . S
C305 C303 1.419 . S
C305 C306 1.362 . S
C306 H298 0.930 . S
C306 C305 1.362 . S
C306 C309 1.409 . S
C307 H299 0.930 . S
C307 C308 1.355 . S
C307 C309 1.415 . S
C308 C307 1.355 . S
C308 C310 1.419 . S
C309 C304 1.425 . S
C309 C306 1.409 . S
C309 C307 1.415 . S
C310 H300 0.930 . S
C310 C308 1.419 . S
C310 C311 1.362 . S
C311 H301 0.930 . S
C311 C304 1.409 . S
C311 C310 1.362 . S
H312 C318 0.930 . S
H313 C321 0.930 . S
H314 C322 0.930 . S
H315 C323 0.930 . S
H316 C326 0.930 . S
H317 C327 0.930 . S
C318 H312 0.930 . S
C318 C319 1.355 . S
C318 C320 1.415 . S
C319 C318 1.355 . S
C319 C321 1.419 1_556 S
C320 C318 1.415 . S
C320 C325 1.425 1_556 S
C320 C327 1.409 . S
C321 H313 0.930 . S
C321 C319 1.419 1_554 S
C321 C322 1.362 . S
C322 H314 0.930 . S
C322 C321 1.362 . S
C322 C325 1.409 . S
C323 H315 0.930 . S
C323 C324 1.355 . S
C323 C325 1.415 . S
C324 C323 1.355 . S
C324 C326 1.419 1_554 S
C325 C320 1.425 1_554 S
C325 C322 1.409 . S
C325 C323 1.415 . S
C326 H316 0.930 . S
C326 C324 1.419 1_556 S
C326 C327 1.362 . S
C327 H317 0.930 . S
C327 C320 1.409 . S
C327 C326 1.362 . S
H328 C334 0.930 . S
H329 C337 0.930 . S
H330 C338 0.930 . S
H331 C339 0.930 . S
H332 C342 0.930 . S
H333 C343 0.930 . S
C334 H328 0.930 . S
C334 C335 1.355 . S
C334 C336 1.415 . S
C335 C334 1.355 . S
C335 C337 1.419 . S
C336 C334 1.415 . S
C336 C341 1.425 . S
C336 C343 1.409 . S
C337 H329 0.930 . S
C337 C335 1.419 . S
C337 C338 1.362 . S
C338 H330 0.930 . S
C338 C337 1.362 . S
C338 C341 1.409 . S
C339 H331 0.930 . S
C339 C340 1.355 . S
C339 C341 1.415 . S
C340 C339 1.355 . S
C340 C342 1.419 . S
C341 C336 1.425 . S
C341 C338 1.409 . S
C341 C339 1.415 . S
C342 H332 0.930 . S
C342 C340 1.419 . S
C342 C343 1.362 . S
C343 H333 0.930 . S
C343 C336 1.409 . S
C343 C342 1.362 . S
H344 C350 0.930 . S
H345 C353 0.930 . S
H346 C354 0.930 . S
H347 C355 0.930 . S
H348 C358 0.930 . S
H349 C359 0.930 . S
C350 H344 0.930 . S
C350 C351 1.355 . S
C350 C352 1.415 . S
C351 C350 1.355 . S
C351 C353 1.419 . S
C352 C350 1.415 . S
C352 C357 1.425 . S
C352 C359 1.409 . S
C353 H345 0.930 . S
C353 C351 1.419 . S
C353 C354 1.362 . S
C354 H346 0.930 . S
C354 C353 1.362 . S
C354 C357 1.409 . S
C355 H347 0.930 . S
C355 C356 1.355 . S
C355 C357 1.415 . S
C356 C355 1.355 . S
C356 C358 1.419 . S
C357 C352 1.425 . S
C357 C354 1.409 . S
C357 C355 1.415 . S
C358 H348 0.930 . S
C358 C356 1.419 . S
C358 C359 1.362 . S
C359 H349 0.930 . S
C359 C352 1.409 . S
C359 C358 1.362 . S
H360 C366 0.930 . S
H361 C369 0.930 . S
H362 C370 0.930 . S
H363 C371 0.930 . S
H364 C374 0.930 . S
H365 C375 0.930 . S
C366 H360 0.930 . S
C366 C367 1.355 . S
C366 C368 1.415 . S
C367 C366 1.355 . S
C367 C369 1.419 . S
C368 C366 1.415 . S
C368 C373 1.425 . S
C368 C375 1.409 . S
C369 H361 0.930 . S
C369 C367 1.419 . S
C369 C370 1.362 . S
C370 H362 0.930 . S
C370 C369 1.362 . S
C370 C373 1.409 . S
C371 H363 0.930 . S
C371 C372 1.355 . S
C371 C373 1.415 . S
C372 C371 1.355 . S
C372 C374 1.419 . S
C373 C368 1.425 . S
C373 C370 1.409 . S
C373 C371 1.415 . S
C374 H364 0.930 . S
C374 C372 1.419 . S
C374 C375 1.362 . S
C375 H365 0.930 . S
C375 C368 1.409 . S
C375 C374 1.362 . S
H376 C382 0.930 . S
H377 C385 0.930 . S
H378 C386 0.930 . S
H379 C387 0.930 . S
H380 C390 0.930 . S
H381 C391 0.930 . S
C382 H376 0.930 . S
C382 C383 1.355 . S
C382 C384 1.415 . S
C383 C382 1.355 . S
C383 C385 1.419 . S
C384 C382 1.415 . S
C384 C389 1.425 . S
C384 C391 1.409 . S
C385 H377 0.930 . S
C385 C383 1.419 . S
C385 C386 1.362 . S
C386 H378 0.930 . S
C386 C385 1.362 . S
C386 C389 1.409 . S
C387 H379 0.930 . S
C387 C388 1.355 . S
C387 C389 1.415 . S
C388 C387 1.355 . S
C388 C390 1.419 . S
C389 C384 1.425 . S
C389 C386 1.409 . S
C389 C387 1.415 . S
C390 H380 0.930 . S
C390 C388 1.419 . S
C390 C391 1.362 . S
C391 H381 0.930 . S
C391 C384 1.409 . S
C391 C390 1.362 . S
H392 C398 0.930 . S
H393 C401 0.930 . S
H394 C402 0.930 . S
H395 C403 0.930 . S
H396 C406 0.930 . S
H397 C407 0.930 . S
C398 H392 0.930 . S
C398 C399 1.355 . S
C398 C400 1.415 . S
C399 C398 1.355 . S
C399 C401 1.419 . S
C400 C398 1.415 . S
C400 C405 1.425 . S
C400 C407 1.409 . S
C401 H393 0.930 . S
C401 C399 1.419 . S
C401 C402 1.362 . S
C402 H394 0.930 . S
C402 C401 1.362 . S
C402 C405 1.409 . S
C403 H395 0.930 . S
C403 C404 1.355 . S
C403 C405 1.415 . S
C404 C403 1.355 . S
C404 C406 1.419 . S
C405 C400 1.425 . S
C405 C402 1.409 . S
C405 C403 1.415 . S
C406 H396 0.930 . S
C406 C404 1.419 . S
C406 C407 1.362 . S
C407 H397 0.930 . S
C407 C400 1.409 . S
C407 C406 1.362 . S
H408 C414 0.930 . S
H409 C417 0.930 . S
H410 C418 0.930 . S
H411 C419 0.930 . S
H412 C422 0.930 . S
H413 C423 0.930 . S
C414 H408 0.930 . S
C414 C415 1.355 . S
C414 C416 1.415 . S
C415 C414 1.355 . S
C415 C417 1.419 . S
C416 C414 1.415 . S
C416 C421 1.425 . S
C416 C423 1.409 . S
C417 H409 0.930 . S
C417 C415 1.419 . S
C417 C418 1.362 . S
C418 H410 0.930 . S
C418 C417 1.362 . S
C418 C421 1.409 . S
C419 H411 0.930 . S
C419 C420 1.355 . S
C419 C421 1.415 . S
C420 C419 1.355 . S
C420 C422 1.419 . S
C421 C416 1.425 . S
C421 C418 1.409 . S
C421 C419 1.415 . S
C422 H412 0.930 . S
C422 C420 1.419 . S
C422 C423 1.362 . S
C423 H413 0.930 . S
C423 C416 1.409 . S
C423 C422 1.362 . S
H424 C430 0.930 . S
H425 C433 0.930 . S
H426 C434 0.930 . S
H427 C435 0.930 . S
H428 C438 0.930 . S
H429 C439 0.930 . S
C430 H424 0.930 . S
C430 C431 1.355 . S
C430 C432 1.415 . S
C431 C430 1.355 . S
C431 C433 1.419 . S
C432 C430 1.415 . S
C432 C437 1.425 . S
C432 C439 1.409 . S
C433 H425 0.930 . S
C433 C431 1.419 . S
C433 C434 1.362 . S
C434 H426 0.930 . S
C434 C433 1.362 . S
C434 C437 1.409 . S
C435 H427 0.930 . S
C435 C436 1.355 . S
C435 C437 1.415 . S
C436 C435 1.355 . S
C436 C438 1.419 . S
C437 C432 1.425 . S
C437 C434 1.409 . S
C437 C435 1.415 . S
C438 H428 0.930 . S
C438 C436 1.419 . S
C438 C439 1.362 . S
C439 H429 0.930 . S
C439 C432 1.409 . S
C439 C438 1.362 . S
H440 C446 0.930 . S
H441 C449 0.930 . S
H442 C450 0.930 . S
H443 C451 0.930 . S
H444 C454 0.930 . S
H445 C455 0.930 . S
C446 H440 0.930 . S
C446 C447 1.355 . S
C446 C448 1.415 . S
C447 C446 1.355 . S
C447 C449 1.419 . S
C448 C446 1.415 . S
C448 C453 1.425 . S
C448 C455 1.409 . S
C449 H441 0.930 . S
C449 C447 1.419 . S
C449 C450 1.362 . S
C450 H442 0.930 . S
C450 C449 1.362 . S
C450 C453 1.409 . S
C451 H443 0.930 . S
C451 C452 1.355 . S
C451 C453 1.415 . S
C452 C451 1.355 . S
C452 C454 1.419 . S
C453 C448 1.425 . S
C453 C450 1.409 . S
C453 C451 1.415 . S
C454 H444 0.930 . S
C454 C452 1.419 . S
C454 C455 1.362 . S
C455 H445 0.930 . S
C455 C448 1.409 . S
C455 C454 1.362 . S
H456 C462 0.930 . S
H457 C465 0.930 . S
H458 C466 0.930 . S
H459 C467 0.930 . S
H460 C470 0.930 . S
H461 C471 0.930 . S
C462 H456 0.930 . S
C462 C463 1.355 . S
C462 C464 1.415 . S
C463 C462 1.355 . S
C463 C465 1.419 . S
C464 C462 1.415 . S
C464 C469 1.425 . S
C464 C471 1.409 . S
C465 H457 0.930 . S
C465 C463 1.419 . S
C465 C466 1.362 . S
C466 H458 0.930 . S
C466 C465 1.362 . S
C466 C469 1.409 . S
C467 H459 0.930 . S
C467 C468 1.355 . S
C467 C469 1.415 . S
C468 C467 1.355 . S
C468 C470 1.419 . S
C469 C464 1.425 . S
C469 C466 1.409 . S
C469 C467 1.415 . S
C470 H460 0.930 . S
C470 C468 1.419 . S
C470 C471 1.362 . S
C471 H461 0.930 . S
C471 C464 1.409 . S
C471 C470 1.362 . S
H472 C478 0.930 1_455 S
H473 C481 0.930 . S
H474 C482 0.930 . S
H475 C483 0.930 1_655 S
H476 C486 0.930 . S
H477 C487 0.930 . S
C478 H472 0.930 1_655 S
C478 C479 1.355 . S
C478 C480 1.415 1_655 S
C479 C478 1.355 . S
C479 C481 1.419 . S
C480 C478 1.415 1_455 S
C480 C485 1.425 1_455 S
C480 C487 1.409 . S
C481 H473 0.930 . S
C481 C479 1.419 . S
C481 C482 1.362 . S
C482 H474 0.930 . S
C482 C481 1.362 . S
C482 C485 1.409 . S
C483 H475 0.930 1_455 S
C483 C484 1.355 . S
C483 C485 1.415 1_455 S
C484 C483 1.355 . S
C484 C486 1.419 . S
C485 C480 1.425 1_655 S
C485 C482 1.409 . S
C485 C483 1.415 1_655 S
C486 H476 0.930 . S
C486 C484 1.419 . S
C486 C487 1.362 . S
C487 H477 0.930 . S
C487 C480 1.409 . S
C487 C486 1.362 . S
H488 C494 0.930 . S
H489 C497 0.930 . S
H490 C498 0.930 . S
H491 C499 0.930 . S
H492 C502 0.930 . S
H493 C503 0.930 . S
C494 H488 0.930 . S
C494 C495 1.355 . S
C494 C496 1.415 . S
C495 C494 1.355 . S
C495 C497 1.419 1_545 S
C496 C494 1.415 . S
C496 C501 1.425 1_545 S
C496 C503 1.409 . S
C497 H489 0.930 . S
C497 C495 1.419 1_565 S
C497 C498 1.362 . S
C498 H490 0.930 . S
C498 C497 1.362 . S
C498 C501 1.409 . S
C499 H491 0.930 . S
C499 C500 1.355 . S
C499 C501 1.415 . S
C500 C499 1.355 . S
C500 C502 1.419 1_565 S
C501 C496 1.425 1_565 S
C501 C498 1.409 . S
C501 C499 1.415 . S
C502 H492 0.930 . S
C502 C500 1.419 1_545 S
C502 C503 1.362 . S
C503 H493 0.930 . S
C503 C496 1.409 . S
C503 C502 1.362 . S
H504 C510 0.930 . S
H505 C513 0.930 . S
H506 C514 0.930 . S
H507 C515 0.930 . S
H508 C518 0.930 . S
H509 C519 0.930 . S
C510 H504 0.930 . S
C510 C511 1.355 . S
C510 C512 1.415 . S
C511 C510 1.355 . S
C511 C513 1.419 . S
C512 C510 1.415 . S
C512 C517 1.425 . S
C512 C519 1.409 . S
C513 H505 0.930 . S
C513 C511 1.419 . S
C513 C514 1.362 . S
C514 H506 0.930 . S
C514 C513 1.362 . S
C514 C517 1.409 . S
C515 H507 0.930 . S
C515 C516 1.355 . S
C515 C517 1.415 . S
C516 C515 1.355 . S
C516 C518 1.419 . S
C517 C512 1.425 . S
C517 C514 1.409 . S
C517 C515 1.415 . S
C518 H508 0.930 . S
C518 C516 1.419 . S
C518 C519 1.362 . S
C519 H509 0.930 . S
C519 C512 1.409 . S
C519 C518 1.362 . S
H520 C526 0.930 . S
H521 C529 0.930 . S
H522 C530 0.930 1_554 S
H523 C531 0.930 . S
H524 C534 0.930 . S
H525 C535 0.930 . S
C526 H520 0.930 . S
C526 C527 1.355 . S
C526 C528 1.415 . S
C527 C526 1.355 . S
C527 C529 1.419 . S
C528 C526 1.415 . S
C528 C533 1.425 1_455 S
C528 C535 1.409 . S
C529 H521 0.930 . S
C529 C527 1.419 . S
C529 C530 1.362 1_455 S
C530 H522 0.930 1_556 S
C530 C529 1.362 1_655 S
C530 C533 1.409 . S
C531 H523 0.930 . S
C531 C532 1.355 . S
C531 C533 1.415 . S
C532 C531 1.355 . S
C532 C534 1.419 . S
C533 C528 1.425 1_655 S
C533 C530 1.409 . S
C533 C531 1.415 . S
C534 H524 0.930 . S
C534 C532 1.419 . S
C534 C535 1.362 1_655 S
C535 H525 0.930 . S
C535 C528 1.409 . S
C535 C534 1.362 1_455 S
H536 C542 0.930 . S
H537 C545 0.925 . S
H538 C546 0.930 . S
H539 C547 0.930 . S
H540 C550 0.925 . S
H541 C551 0.930 . S
C542 H536 0.930 . S
C542 C543 1.355 . S
C542 C544 1.415 . S
C543 C542 1.355 . S
C543 C545 1.406 1_565 S
C544 C542 1.415 . S
C544 C549 1.425 1_565 S
C544 C551 1.409 . S
C545 H537 0.925 . S
C545 C543 1.406 1_545 S
C545 C546 1.381 . S
C546 H538 0.930 . S
C546 C545 1.381 . S
C546 C549 1.409 . S
C547 H539 0.930 . S
C547 C548 1.355 . S
C547 C549 1.415 . S
C548 C547 1.355 . S
C548 C550 1.406 1_545 S
C549 C544 1.425 1_545 S
C549 C546 1.409 . S
C549 C547 1.415 . S
C550 H540 0.925 . S
C550 C548 1.406 1_565 S
C550 C551 1.381 . S
C551 H541 0.930 . S
C551 C544 1.409 . S
C551 C550 1.381 . S
C175 C107 1.378 . S
C180 C9 1.347 . S
C191 C23 1.374 . S
C196 C121 1.350 . S
C207 C37 1.402 . S
C212 C135 1.336 . S
C223 C51 1.343 . S
C228 C149 1.398 . S
C239 C163 1.330 . S
C244 C65 1.399 . S
C255 C93 1.328 . S
C260 C79 1.405 . S
C271 C143 1.409 . S
C276 C3 1.408 . S
C287 C17 1.419 . S
C292 C157 1.424 . S
C303 C31 1.425 . S
C308 C87 1.424 . S
C319 C101 1.425 . S
C324 C45 1.422 . S
C335 C115 1.424 . S
C340 C59 1.425 . S
C351 C129 1.423 . S
C356 C73 1.418 . S
C367 C7 1.633 . S
C372 C119 1.605 . S
C383 C21 1.575 . S
C388 C133 1.587 . S
C399 C147 1.634 . S
C404 C35 1.605 . S
C415 C49 1.593 . S
C420 C161 1.623 . S
C431 C91 1.581 . S
C436 C63 1.577 . S
C447 C105 1.642 . S
C452 C77 1.630 . S
C463 C50 1.427 . S
C468 C8 1.426 . S
C479 C64 1.405 . S
C484 C22 1.406 . S
C495 C36 1.445 . S
C500 C78 1.445 . S
C511 C92 1.393 . S
C516 C134 1.393 . S
C527 C106 1.434 . S
C532 C148 1.435 . S
C543 C162 1.436 . S
C548 C120 1.435 . S
