# Generated by pormake.
# Topology twf-e, (6)-cn, num edge types: 1
# Building blocks:
#     Node 0, Type 0, BuildingBlock: VOLQOD_clean_sbu_1, # of connection points: 6
#     Node 1, Type 0, BuildingBlock: VOLQOD_clean_sbu_1, # of connection points: 6
#     Node 2, Type 0, BuildingBlock: VOLQOD_clean_sbu_1, # of connection points: 6
#     Node 3, Type 0, BuildingBlock: VOLQOD_clean_sbu_1, # of connection points: 6
#     Node 4, Type 0, BuildingBlock: VOLQOD_clean_sbu_1, # of connection points: 6
#     Node 5, Type 0, BuildingBlock: VOLQOD_clean_sbu_1, # of connection points: 6
#     Node 6, Type 0, BuildingBlock: VOLQOD_clean_sbu_1, # of connection points: 6
#     Node 7, Type 0, BuildingBlock: VOLQOD_clean_sbu_1, # of connection points: 6
#     Node 8, Type 0, BuildingBlock: VOLQOD_clean_sbu_1, # of connection points: 6
#     Node 9, Type 0, BuildingBlock: VOLQOD_clean_sbu_1, # of connection points: 6
#     Node 10, Type 0, BuildingBlock: VOLQOD_clean_sbu_1, # of connection points: 6
#     Node 11, Type 0, BuildingBlock: VOLQOD_clean_sbu_1, # of connection points: 6
#     Node 12, Type 0, BuildingBlock: VOLQOD_clean_sbu_1, # of connection points: 6
#     Node 13, Type 0, BuildingBlock: VOLQOD_clean_sbu_1, # of connection points: 6
#     Node 14, Type 0, BuildingBlock: VOLQOD_clean_sbu_1, # of connection points: 6
#     Node 15, Type 0, BuildingBlock: VOLQOD_clean_sbu_1, # of connection points: 6
#     Node 16, Type 0, BuildingBlock: VOLQOD_clean_sbu_1, # of connection points: 6
#     Node 17, Type 0, BuildingBlock: VOLQOD_clean_sbu_1, # of connection points: 6
#     Node 18, Type 0, BuildingBlock: VOLQOD_clean_sbu_1, # of connection points: 6
#     Node 19, Type 0, BuildingBlock: VOLQOD_clean_sbu_1, # of connection points: 6
#     Node 20, Type 0, BuildingBlock: VOLQOD_clean_sbu_1, # of connection points: 6
#     Node 21, Type 0, BuildingBlock: VOLQOD_clean_sbu_1, # of connection points: 6
#     Node 22, Type 0, BuildingBlock: VOLQOD_clean_sbu_1, # of connection points: 6
#     Node 23, Type 0, BuildingBlock: VOLQOD_clean_sbu_1, # of connection points: 6
#     Node 24, Type 0, BuildingBlock: VOLQOD_clean_sbu_1, # of connection points: 6
#     Node 25, Type 0, BuildingBlock: VOLQOD_clean_sbu_1, # of connection points: 6
#     Node 26, Type 0, BuildingBlock: VOLQOD_clean_sbu_1, # of connection points: 6
#     Node 27, Type 0, BuildingBlock: VOLQOD_clean_sbu_1, # of connection points: 6
#     Node 28, Type 0, BuildingBlock: VOLQOD_clean_sbu_1, # of connection points: 6
#     Node 29, Type 0, BuildingBlock: VOLQOD_clean_sbu_1, # of connection points: 6
#     Node 30, Type 0, BuildingBlock: VOLQOD_clean_sbu_1, # of connection points: 6
#     Node 31, Type 0, BuildingBlock: VOLQOD_clean_sbu_1, # of connection points: 6
#     Node 32, Type 0, BuildingBlock: VOLQOD_clean_sbu_1, # of connection points: 6
#     Node 33, Type 0, BuildingBlock: VOLQOD_clean_sbu_1, # of connection points: 6
#     Node 34, Type 0, BuildingBlock: VOLQOD_clean_sbu_1, # of connection points: 6
#     Node 35, Type 0, BuildingBlock: VOLQOD_clean_sbu_1, # of connection points: 6
#     Node 36, Type 0, BuildingBlock: VOLQOD_clean_sbu_1, # of connection points: 6
#     Node 37, Type 0, BuildingBlock: VOLQOD_clean_sbu_1, # of connection points: 6
#     Node 38, Type 0, BuildingBlock: VOLQOD_clean_sbu_1, # of connection points: 6
#     Node 39, Type 0, BuildingBlock: VOLQOD_clean_sbu_1, # of connection points: 6
#     Node 40, Type 0, BuildingBlock: VOLQOD_clean_sbu_1, # of connection points: 6
#     Node 41, Type 0, BuildingBlock: VOLQOD_clean_sbu_1, # of connection points: 6
#     Node 42, Type 0, BuildingBlock: VOLQOD_clean_sbu_1, # of connection points: 6
#     Node 43, Type 0, BuildingBlock: VOLQOD_clean_sbu_1, # of connection points: 6
#     Node 44, Type 0, BuildingBlock: VOLQOD_clean_sbu_1, # of connection points: 6
#     Node 45, Type 0, BuildingBlock: VOLQOD_clean_sbu_1, # of connection points: 6
#     Node 46, Type 0, BuildingBlock: VOLQOD_clean_sbu_1, # of connection points: 6
#     Node 47, Type 0, BuildingBlock: VOLQOD_clean_sbu_1, # of connection points: 6
#     Edge 48, Type (0, 0), BuildingBlock: AJUNOK_clean_linker_0, # of connection points: 2
#     Edge 49, Type (0, 0), BuildingBlock: AJUNOK_clean_linker_0, # of connection points: 2
#     Edge 50, Type (0, 0), BuildingBlock: AJUNOK_clean_linker_0, # of connection points: 2
#     Edge 51, Type (0, 0), BuildingBlock: AJUNOK_clean_linker_0, # of connection points: 2
#     Edge 52, Type (0, 0), BuildingBlock: AJUNOK_clean_linker_0, # of connection points: 2
#     Edge 53, Type (0, 0), BuildingBlock: AJUNOK_clean_linker_0, # of connection points: 2
#     Edge 54, Type (0, 0), BuildingBlock: AJUNOK_clean_linker_0, # of connection points: 2
#     Edge 55, Type (0, 0), BuildingBlock: AJUNOK_clean_linker_0, # of connection points: 2
#     Edge 56, Type (0, 0), BuildingBlock: AJUNOK_clean_linker_0, # of connection points: 2
#     Edge 57, Type (0, 0), BuildingBlock: AJUNOK_clean_linker_0, # of connection points: 2
#     Edge 58, Type (0, 0), BuildingBlock: AJUNOK_clean_linker_0, # of connection points: 2
#     Edge 59, Type (0, 0), BuildingBlock: AJUNOK_clean_linker_0, # of connection points: 2
#     Edge 60, Type (0, 0), BuildingBlock: AJUNOK_clean_linker_0, # of connection points: 2
#     Edge 61, Type (0, 0), BuildingBlock: AJUNOK_clean_linker_0, # of connection points: 2
#     Edge 62, Type (0, 0), BuildingBlock: AJUNOK_clean_linker_0, # of connection points: 2
#     Edge 63, Type (0, 0), BuildingBlock: AJUNOK_clean_linker_0, # of connection points: 2
#     Edge 64, Type (0, 0), BuildingBlock: AJUNOK_clean_linker_0, # of connection points: 2
#     Edge 65, Type (0, 0), BuildingBlock: AJUNOK_clean_linker_0, # of connection points: 2
#     Edge 66, Type (0, 0), BuildingBlock: AJUNOK_clean_linker_0, # of connection points: 2
#     Edge 67, Type (0, 0), BuildingBlock: AJUNOK_clean_linker_0, # of connection points: 2
#     Edge 68, Type (0, 0), BuildingBlock: AJUNOK_clean_linker_0, # of connection points: 2
#     Edge 69, Type (0, 0), BuildingBlock: AJUNOK_clean_linker_0, # of connection points: 2
#     Edge 70, Type (0, 0), BuildingBlock: AJUNOK_clean_linker_0, # of connection points: 2
#     Edge 71, Type (0, 0), BuildingBlock: AJUNOK_clean_linker_0, # of connection points: 2
#     Edge 72, Type (0, 0), BuildingBlock: AJUNOK_clean_linker_0, # of connection points: 2
#     Edge 73, Type (0, 0), BuildingBlock: AJUNOK_clean_linker_0, # of connection points: 2
#     Edge 74, Type (0, 0), BuildingBlock: AJUNOK_clean_linker_0, # of connection points: 2
#     Edge 75, Type (0, 0), BuildingBlock: AJUNOK_clean_linker_0, # of connection points: 2
#     Edge 76, Type (0, 0), BuildingBlock: AJUNOK_clean_linker_0, # of connection points: 2
#     Edge 77, Type (0, 0), BuildingBlock: AJUNOK_clean_linker_0, # of connection points: 2
#     Edge 78, Type (0, 0), BuildingBlock: AJUNOK_clean_linker_0, # of connection points: 2
#     Edge 79, Type (0, 0), BuildingBlock: AJUNOK_clean_linker_0, # of connection points: 2
#     Edge 80, Type (0, 0), BuildingBlock: AJUNOK_clean_linker_0, # of connection points: 2
#     Edge 81, Type (0, 0), BuildingBlock: AJUNOK_clean_linker_0, # of connection points: 2
#     Edge 82, Type (0, 0), BuildingBlock: AJUNOK_clean_linker_0, # of connection points: 2
#     Edge 83, Type (0, 0), BuildingBlock: AJUNOK_clean_linker_0, # of connection points: 2
#     Edge 84, Type (0, 0), BuildingBlock: AJUNOK_clean_linker_0, # of connection points: 2
#     Edge 85, Type (0, 0), BuildingBlock: AJUNOK_clean_linker_0, # of connection points: 2
#     Edge 86, Type (0, 0), BuildingBlock: AJUNOK_clean_linker_0, # of connection points: 2
#     Edge 87, Type (0, 0), BuildingBlock: AJUNOK_clean_linker_0, # of connection points: 2
#     Edge 88, Type (0, 0), BuildingBlock: AJUNOK_clean_linker_0, # of connection points: 2
#     Edge 89, Type (0, 0), BuildingBlock: AJUNOK_clean_linker_0, # of connection points: 2
#     Edge 90, Type (0, 0), BuildingBlock: AJUNOK_clean_linker_0, # of connection points: 2
#     Edge 91, Type (0, 0), BuildingBlock: AJUNOK_clean_linker_0, # of connection points: 2
#     Edge 92, Type (0, 0), BuildingBlock: AJUNOK_clean_linker_0, # of connection points: 2
#     Edge 93, Type (0, 0), BuildingBlock: AJUNOK_clean_linker_0, # of connection points: 2
#     Edge 94, Type (0, 0), BuildingBlock: AJUNOK_clean_linker_0, # of connection points: 2
#     Edge 95, Type (0, 0), BuildingBlock: AJUNOK_clean_linker_0, # of connection points: 2
#     Edge 96, Type (0, 0), BuildingBlock: AJUNOK_clean_linker_0, # of connection points: 2
#     Edge 97, Type (0, 0), BuildingBlock: AJUNOK_clean_linker_0, # of connection points: 2
#     Edge 98, Type (0, 0), BuildingBlock: AJUNOK_clean_linker_0, # of connection points: 2
#     Edge 99, Type (0, 0), BuildingBlock: AJUNOK_clean_linker_0, # of connection points: 2
#     Edge 100, Type (0, 0), BuildingBlock: AJUNOK_clean_linker_0, # of connection points: 2
#     Edge 101, Type (0, 0), BuildingBlock: AJUNOK_clean_linker_0, # of connection points: 2
#     Edge 102, Type (0, 0), BuildingBlock: AJUNOK_clean_linker_0, # of connection points: 2
#     Edge 103, Type (0, 0), BuildingBlock: AJUNOK_clean_linker_0, # of connection points: 2
#     Edge 104, Type (0, 0), BuildingBlock: AJUNOK_clean_linker_0, # of connection points: 2
#     Edge 105, Type (0, 0), BuildingBlock: AJUNOK_clean_linker_0, # of connection points: 2
#     Edge 106, Type (0, 0), BuildingBlock: AJUNOK_clean_linker_0, # of connection points: 2
#     Edge 107, Type (0, 0), BuildingBlock: AJUNOK_clean_linker_0, # of connection points: 2
#     Edge 108, Type (0, 0), BuildingBlock: AJUNOK_clean_linker_0, # of connection points: 2
#     Edge 109, Type (0, 0), BuildingBlock: AJUNOK_clean_linker_0, # of connection points: 2
#     Edge 110, Type (0, 0), BuildingBlock: AJUNOK_clean_linker_0, # of connection points: 2
#     Edge 111, Type (0, 0), BuildingBlock: AJUNOK_clean_linker_0, # of connection points: 2
#     Edge 112, Type (0, 0), BuildingBlock: AJUNOK_clean_linker_0, # of connection points: 2
#     Edge 113, Type (0, 0), BuildingBlock: AJUNOK_clean_linker_0, # of connection points: 2
#     Edge 114, Type (0, 0), BuildingBlock: AJUNOK_clean_linker_0, # of connection points: 2
#     Edge 115, Type (0, 0), BuildingBlock: AJUNOK_clean_linker_0, # of connection points: 2
#     Edge 116, Type (0, 0), BuildingBlock: AJUNOK_clean_linker_0, # of connection points: 2
#     Edge 117, Type (0, 0), BuildingBlock: AJUNOK_clean_linker_0, # of connection points: 2
#     Edge 118, Type (0, 0), BuildingBlock: AJUNOK_clean_linker_0, # of connection points: 2
#     Edge 119, Type (0, 0), BuildingBlock: AJUNOK_clean_linker_0, # of connection points: 2
#     Edge 120, Type (0, 0), BuildingBlock: AJUNOK_clean_linker_0, # of connection points: 2
#     Edge 121, Type (0, 0), BuildingBlock: AJUNOK_clean_linker_0, # of connection points: 2
#     Edge 122, Type (0, 0), BuildingBlock: AJUNOK_clean_linker_0, # of connection points: 2
#     Edge 123, Type (0, 0), BuildingBlock: AJUNOK_clean_linker_0, # of connection points: 2
#     Edge 124, Type (0, 0), BuildingBlock: AJUNOK_clean_linker_0, # of connection points: 2
#     Edge 125, Type (0, 0), BuildingBlock: AJUNOK_clean_linker_0, # of connection points: 2
#     Edge 126, Type (0, 0), BuildingBlock: AJUNOK_clean_linker_0, # of connection points: 2
#     Edge 127, Type (0, 0), BuildingBlock: AJUNOK_clean_linker_0, # of connection points: 2
#     Edge 128, Type (0, 0), BuildingBlock: AJUNOK_clean_linker_0, # of connection points: 2
#     Edge 129, Type (0, 0), BuildingBlock: AJUNOK_clean_linker_0, # of connection points: 2
#     Edge 130, Type (0, 0), BuildingBlock: AJUNOK_clean_linker_0, # of connection points: 2
#     Edge 131, Type (0, 0), BuildingBlock: AJUNOK_clean_linker_0, # of connection points: 2
#     Edge 132, Type (0, 0), BuildingBlock: AJUNOK_clean_linker_0, # of connection points: 2
#     Edge 133, Type (0, 0), BuildingBlock: AJUNOK_clean_linker_0, # of connection points: 2
#     Edge 134, Type (0, 0), BuildingBlock: AJUNOK_clean_linker_0, # of connection points: 2
#     Edge 135, Type (0, 0), BuildingBlock: AJUNOK_clean_linker_0, # of connection points: 2
#     Edge 136, Type (0, 0), BuildingBlock: AJUNOK_clean_linker_0, # of connection points: 2
#     Edge 137, Type (0, 0), BuildingBlock: AJUNOK_clean_linker_0, # of connection points: 2
#     Edge 138, Type (0, 0), BuildingBlock: AJUNOK_clean_linker_0, # of connection points: 2
#     Edge 139, Type (0, 0), BuildingBlock: AJUNOK_clean_linker_0, # of connection points: 2
#     Edge 140, Type (0, 0), BuildingBlock: AJUNOK_clean_linker_0, # of connection points: 2
#     Edge 141, Type (0, 0), BuildingBlock: AJUNOK_clean_linker_0, # of connection points: 2
#     Edge 142, Type (0, 0), BuildingBlock: AJUNOK_clean_linker_0, # of connection points: 2
#     Edge 143, Type (0, 0), BuildingBlock: AJUNOK_clean_linker_0, # of connection points: 2
#     Edge 144, Type (0, 0), BuildingBlock: AJUNOK_clean_linker_0, # of connection points: 2
#     Edge 145, Type (0, 0), BuildingBlock: AJUNOK_clean_linker_0, # of connection points: 2
#     Edge 146, Type (0, 0), BuildingBlock: AJUNOK_clean_linker_0, # of connection points: 2
#     Edge 147, Type (0, 0), BuildingBlock: AJUNOK_clean_linker_0, # of connection points: 2
#     Edge 148, Type (0, 0), BuildingBlock: AJUNOK_clean_linker_0, # of connection points: 2
#     Edge 149, Type (0, 0), BuildingBlock: AJUNOK_clean_linker_0, # of connection points: 2
#     Edge 150, Type (0, 0), BuildingBlock: AJUNOK_clean_linker_0, # of connection points: 2
#     Edge 151, Type (0, 0), BuildingBlock: AJUNOK_clean_linker_0, # of connection points: 2
#     Edge 152, Type (0, 0), BuildingBlock: AJUNOK_clean_linker_0, # of connection points: 2
#     Edge 153, Type (0, 0), BuildingBlock: AJUNOK_clean_linker_0, # of connection points: 2
#     Edge 154, Type (0, 0), BuildingBlock: AJUNOK_clean_linker_0, # of connection points: 2
#     Edge 155, Type (0, 0), BuildingBlock: AJUNOK_clean_linker_0, # of connection points: 2
#     Edge 156, Type (0, 0), BuildingBlock: AJUNOK_clean_linker_0, # of connection points: 2
#     Edge 157, Type (0, 0), BuildingBlock: AJUNOK_clean_linker_0, # of connection points: 2
#     Edge 158, Type (0, 0), BuildingBlock: AJUNOK_clean_linker_0, # of connection points: 2
#     Edge 159, Type (0, 0), BuildingBlock: AJUNOK_clean_linker_0, # of connection points: 2
#     Edge 160, Type (0, 0), BuildingBlock: AJUNOK_clean_linker_0, # of connection points: 2
#     Edge 161, Type (0, 0), BuildingBlock: AJUNOK_clean_linker_0, # of connection points: 2
#     Edge 162, Type (0, 0), BuildingBlock: AJUNOK_clean_linker_0, # of connection points: 2
#     Edge 163, Type (0, 0), BuildingBlock: AJUNOK_clean_linker_0, # of connection points: 2
#     Edge 164, Type (0, 0), BuildingBlock: AJUNOK_clean_linker_0, # of connection points: 2
#     Edge 165, Type (0, 0), BuildingBlock: AJUNOK_clean_linker_0, # of connection points: 2
#     Edge 166, Type (0, 0), BuildingBlock: AJUNOK_clean_linker_0, # of connection points: 2
#     Edge 167, Type (0, 0), BuildingBlock: AJUNOK_clean_linker_0, # of connection points: 2
#     Edge 168, Type (0, 0), BuildingBlock: AJUNOK_clean_linker_0, # of connection points: 2
#     Edge 169, Type (0, 0), BuildingBlock: AJUNOK_clean_linker_0, # of connection points: 2
#     Edge 170, Type (0, 0), BuildingBlock: AJUNOK_clean_linker_0, # of connection points: 2
#     Edge 171, Type (0, 0), BuildingBlock: AJUNOK_clean_linker_0, # of connection points: 2
#     Edge 172, Type (0, 0), BuildingBlock: AJUNOK_clean_linker_0, # of connection points: 2
#     Edge 173, Type (0, 0), BuildingBlock: AJUNOK_clean_linker_0, # of connection points: 2
#     Edge 174, Type (0, 0), BuildingBlock: AJUNOK_clean_linker_0, # of connection points: 2
#     Edge 175, Type (0, 0), BuildingBlock: AJUNOK_clean_linker_0, # of connection points: 2
#     Edge 176, Type (0, 0), BuildingBlock: AJUNOK_clean_linker_0, # of connection points: 2
#     Edge 177, Type (0, 0), BuildingBlock: AJUNOK_clean_linker_0, # of connection points: 2
#     Edge 178, Type (0, 0), BuildingBlock: AJUNOK_clean_linker_0, # of connection points: 2
#     Edge 179, Type (0, 0), BuildingBlock: AJUNOK_clean_linker_0, # of connection points: 2
#     Edge 180, Type (0, 0), BuildingBlock: AJUNOK_clean_linker_0, # of connection points: 2
#     Edge 181, Type (0, 0), BuildingBlock: AJUNOK_clean_linker_0, # of connection points: 2
#     Edge 182, Type (0, 0), BuildingBlock: AJUNOK_clean_linker_0, # of connection points: 2
#     Edge 183, Type (0, 0), BuildingBlock: AJUNOK_clean_linker_0, # of connection points: 2
#     Edge 184, Type (0, 0), BuildingBlock: AJUNOK_clean_linker_0, # of connection points: 2
#     Edge 185, Type (0, 0), BuildingBlock: AJUNOK_clean_linker_0, # of connection points: 2
#     Edge 186, Type (0, 0), BuildingBlock: AJUNOK_clean_linker_0, # of connection points: 2
#     Edge 187, Type (0, 0), BuildingBlock: AJUNOK_clean_linker_0, # of connection points: 2
#     Edge 188, Type (0, 0), BuildingBlock: AJUNOK_clean_linker_0, # of connection points: 2
#     Edge 189, Type (0, 0), BuildingBlock: AJUNOK_clean_linker_0, # of connection points: 2
#     Edge 190, Type (0, 0), BuildingBlock: AJUNOK_clean_linker_0, # of connection points: 2
#     Edge 191, Type (0, 0), BuildingBlock: AJUNOK_clean_linker_0, # of connection points: 2
# Relax obj value: 0.431
# Max RMSD: 0.161
# Mean RMSD: 0.160
data_MOF--net-twf-e--node1-VOLQOD_clean_sbu_1--edge1-AJUNOK_clean_linker_0
_symmetry_space_group_name_H-M    P1
_symmetry_Int_Tables_number       1
_symmetry_cell_setting            triclinic
loop_
_symmetry_equiv_pos_as_xyz
'x, y, z'
_cell_length_a     49.52909
_cell_length_b     49.535035
_cell_length_c     49.5252
_cell_angle_alpha  89.984248
_cell_angle_beta   90.076584
_cell_angle_gamma 90.020931
loop_
_atom_site_label
_atom_site_type_symbol
_atom_site_fract_x
_atom_site_fract_y
_atom_site_fract_z
_atom_type_partial_charge
O0 O 0.0348 0.13169 0.38025 0.0
Zn1 Zn 0.0031 0.15408 0.39109 0.0
O2 O 0.00374 0.18644 0.36972 0.0
Zn3 Zn 0.00461 0.21645 0.39399 0.0
Zn4 Zn 0.03392 0.18667 0.34556 0.0
Zn5 Zn 0.97333 0.18807 0.34585 0.0
O6 O 0.97029 0.23758 0.38892 0.0
O7 O 0.9452 0.20893 0.3647 0.0
O8 O 0.00246 0.16029 0.43266 0.0
O9 O 0.00556 0.20481 0.43411 0.0
O10 O 0.03881 0.23721 0.38735 0.0
O11 O 0.06278 0.20717 0.36386 0.0
O12 O 0.02604 0.20608 0.31015 0.0
O13 O 0.9722 0.13146 0.3783 0.0
O14 O 0.98148 0.20787 0.31084 0.0
O15 O 0.95919 0.15073 0.33974 0.0
C16 C 0.04805 0.13007 0.35825 0.0
C17 C 0.9476 0.22981 0.37941 0.0
C18 C 0.06117 0.2285 0.37799 0.0
C19 C 0.00415 0.18213 0.44636 0.0
C20 C 0.00384 0.2136 0.29948 0.0
C21 C 0.95908 0.13088 0.35612 0.0
O22 O 0.04754 0.14892 0.3407 0.0
O23 O 0.76984 0.97469 0.3782 0.0
Zn24 Zn 0.78716 0.00862 0.36339 0.0
O25 O 0.82507 0.00595 0.36772 0.0
Zn26 Zn 0.8393 0.03351 0.39017 0.0
Zn27 Zn 0.83332 0.97558 0.38891 0.0
Zn28 Zn 0.84249 0.00428 0.3324 0.0
O29 O 0.87418 0.04453 0.37464 0.0
O30 O 0.86888 0.03577 0.33059 0.0
O31 O 0.77507 0.04382 0.37951 0.0
O32 O 0.81446 0.06419 0.38705 0.0
O33 O 0.842 0.02493 0.43096 0.0
O34 O 0.83273 0.98146 0.43021 0.0
O35 O 0.86824 0.96165 0.37623 0.0
O36 O 0.77733 0.01045 0.32438 0.0
O37 O 0.86691 0.97115 0.33211 0.0
O38 O 0.81468 0.00507 0.3003 0.0
C39 C 0.7807 0.95137 0.38034 0.0
C40 C 0.88175 0.04661 0.35017 0.0
C41 C 0.8375 0.00294 0.44359 0.0
C42 C 0.7889 0.06492 0.38493 0.0
C43 C 0.87749 0.95913 0.35239 0.0
C44 C 0.78907 0.00853 0.30163 0.0
O45 O 0.80615 0.94851 0.38045 0.0
O46 O 0.97307 0.87562 0.37567 0.0
Zn47 Zn 0.00487 0.85331 0.38685 0.0
O48 O 0.00508 0.82129 0.36511 0.0
Zn49 Zn 0.00485 0.79085 0.38904 0.0
Zn50 Zn 0.97484 0.82089 0.3409 0.0
Zn51 Zn 0.03557 0.82047 0.34127 0.0
O52 O 0.03862 0.76938 0.38255 0.0
O53 O 0.06364 0.79891 0.3595 0.0
O54 O 0.00514 0.8463 0.42824 0.0
O55 O 0.00518 0.80169 0.42955 0.0
O56 O 0.97048 0.77026 0.38275 0.0
O57 O 0.94628 0.79987 0.35889 0.0
O58 O 0.98294 0.80195 0.30544 0.0
O59 O 0.03636 0.87579 0.37555 0.0
O60 O 0.02755 0.80161 0.30564 0.0
O61 O 0.05048 0.85779 0.33686 0.0
C62 C 0.95932 0.87695 0.35388 0.0
C63 C 0.06127 0.77739 0.37324 0.0
C64 C 0.9481 0.77856 0.37303 0.0
C65 C 0.00526 0.82437 0.4419 0.0
C66 C 0.00522 0.79532 0.29444 0.0
C67 C 0.0507 0.87683 0.35418 0.0
O68 O 0.96029 0.85828 0.33621 0.0
O69 O 0.23756 0.04094 0.38093 0.0
Zn70 Zn 0.2231 0.00688 0.36374 0.0
O71 O 0.18511 0.00579 0.36956 0.0
Zn72 Zn 0.17397 0.97716 0.39226 0.0
Zn73 Zn 0.17469 0.03534 0.39103 0.0
Zn74 Zn 0.16638 0.00529 0.33503 0.0
O75 O 0.13962 0.96297 0.37811 0.0
O76 O 0.142 0.97234 0.33403 0.0
O77 O 0.23867 0.97153 0.37702 0.0
O78 O 0.20122 0.94911 0.38771 0.0
O79 O 0.17178 0.98521 0.43309 0.0
O80 O 0.17684 0.02939 0.43238 0.0
O81 O 0.13838 0.0464 0.37894 0.0
O82 O 0.23192 0.00981 0.32429 0.0
O83 O 0.14023 0.03689 0.33481 0.0
O84 O 0.19283 0.0065 0.30241 0.0
C85 C 0.22504 0.0634 0.38316 0.0
C86 C 0.13102 0.9603 0.35402 0.0
C87 C 0.17448 0.00748 0.44571 0.0
C88 C 0.22649 0.94967 0.38335 0.0
C89 C 0.12893 0.04813 0.35507 0.0
C90 C 0.21856 0.00896 0.30236 0.0
O91 O 0.19947 0.06462 0.38219 0.0
O92 O 0.03816 0.87555 0.62811 0.0
Zn93 Zn 0.00664 0.85299 0.61714 0.0
O94 O 0.00659 0.82104 0.6392 0.0
Zn95 Zn 0.00672 0.79059 0.61523 0.0
Zn96 Zn 0.03682 0.82077 0.66342 0.0
Zn97 Zn 0.97651 0.82055 0.66358 0.0
O98 O 0.97288 0.76925 0.62218 0.0
O99 O 0.9485 0.79841 0.64637 0.0
O100 O 0.00648 0.84598 0.57589 0.0
O101 O 0.00618 0.80139 0.5746 0.0
O102 O 0.04132 0.77023 0.6214 0.0
O103 O 0.06518 0.79946 0.64609 0.0
O104 O 0.02924 0.80273 0.69932 0.0
O105 O 0.97522 0.87559 0.62809 0.0
O106 O 0.9847 0.80274 0.69975 0.0
O107 O 0.96136 0.85776 0.66704 0.0
C108 C 0.05192 0.87674 0.64985 0.0
C109 C 0.95053 0.77705 0.63238 0.0
C110 C 0.06355 0.77841 0.63162 0.0
C111 C 0.00623 0.82407 0.56223 0.0
C112 C 0.00712 0.79661 0.71083 0.0
C113 C 0.96114 0.87668 0.64959 0.0
O114 O 0.05145 0.85793 0.66738 0.0
O115 O 0.13267 0.03872 0.63162 0.0
Zn116 Zn 0.15447 0.00677 0.62053 0.0
O117 O 0.18707 0.00655 0.64156 0.0
Zn118 Zn 0.21665 0.00774 0.61656 0.0
Zn119 Zn 0.18796 0.03634 0.66636 0.0
Zn120 Zn 0.18853 0.97555 0.66497 0.0
O121 O 0.2376 0.97331 0.62077 0.0
O122 O 0.21033 0.94813 0.64638 0.0
O123 O 0.16004 0.00594 0.5793 0.0
O124 O 0.20447 0.00979 0.57635 0.0
O125 O 0.23839 0.04099 0.62433 0.0
O126 O 0.21002 0.06497 0.64976 0.0
O127 O 0.20623 0.02742 0.70203 0.0
O128 O 0.1322 0.97552 0.63185 0.0
O129 O 0.2074 0.98288 0.70077 0.0
O130 O 0.15163 0.95967 0.66922 0.0
C131 C 0.1321 0.05277 0.6532 0.0
C132 C 0.23077 0.95075 0.63118 0.0
C133 C 0.23123 0.06303 0.63555 0.0
C134 C 0.18136 0.00795 0.56497 0.0
C135 C 0.21318 0.00501 0.71256 0.0
C136 C 0.13201 0.96028 0.65255 0.0
O137 O 0.15099 0.05161 0.67064 0.0
O138 O 0.9709 0.13587 0.6333 0.0
Zn139 Zn 0.00305 0.15728 0.62202 0.0
O140 O 0.00369 0.18993 0.64308 0.0
Zn141 Zn 0.00495 0.21959 0.61813 0.0
Zn142 Zn 0.97297 0.192 0.66671 0.0
Zn143 Zn 0.03379 0.19051 0.66771 0.0
O144 O 0.0393 0.24004 0.62442 0.0
O145 O 0.06267 0.21182 0.65064 0.0
O146 O 0.00293 0.16289 0.5806 0.0
O147 O 0.00527 0.20739 0.57802 0.0
O148 O 0.97163 0.24196 0.62343 0.0
O149 O 0.94606 0.21506 0.64896 0.0
O150 O 0.98109 0.20982 0.70261 0.0
O151 O 0.03461 0.13492 0.63333 0.0
O152 O 0.02564 0.20899 0.70347 0.0
O153 O 0.04865 0.15336 0.67188 0.0
C154 C 0.95542 0.13637 0.65384 0.0
C155 C 0.06126 0.2325 0.63557 0.0
C156 C 0.94904 0.23573 0.63411 0.0
C157 C 0.00411 0.18438 0.56636 0.0
C158 C 0.00327 0.21565 0.71425 0.0
C159 C 0.04919 0.13436 0.65456 0.0
O160 O 0.95577 0.15584 0.67063 0.0
O161 O 0.87942 0.97457 0.63041 0.0
Zn162 Zn 0.8559 0.00527 0.6192 0.0
O163 O 0.82285 0.00278 0.63949 0.0
Zn164 Zn 0.79416 -0.00028 0.61345 0.0
Zn165 Zn 0.82325 0.97258 0.66415 0.0
Zn166 Zn 0.81852 0.03356 0.66293 0.0
O167 O 0.77082 0.03262 0.61658 0.0
O168 O 0.79412 0.05903 0.64469 0.0
O169 O 0.85131 0.00597 0.57773 0.0
O170 O 0.80748 -0.00181 0.57375 0.0
O171 O 0.77424 0.96538 0.62058 0.0
O172 O 0.8029 0.94281 0.64704 0.0
O173 O 0.8043 0.98026 0.69997 0.0
O174 O 0.87577 0.03789 0.63142 0.0
O175 O 0.80067 0.02466 0.69867 0.0
O176 O 0.85375 0.05267 0.66767 0.0
C177 C 0.88033 0.95974 0.65144 0.0
C178 C 0.77488 0.05528 0.62815 0.0
C179 C 0.78207 0.94375 0.63213 0.0
C180 C 0.83057 0.00199 0.56291 0.0
C181 C 0.79614 0.00228 0.71049 0.0
C182 C 0.87394 0.05348 0.65178 0.0
O183 O 0.86099 0.95894 0.66838 0.0
O184 O 0.37657 0.0362 0.13044 0.0
Zn185 Zn 0.38749 0.00548 0.15417 0.0
O186 O 0.36634 0.00769 0.18659 0.0
Zn187 Zn 0.39131 0.00949 0.21622 0.0
Zn188 Zn 0.34309 0.03858 0.18639 0.0
Zn189 Zn 0.34139 0.97783 0.18937 0.0
O190 O 0.38774 0.97498 0.23722 0.0
O191 O 0.35918 0.9506 0.21219 0.0
O192 O 0.42897 0.00546 0.15992 0.0
O193 O 0.43137 0.01226 0.20403 0.0
O194 O 0.38327 0.04285 0.23774 0.0
O195 O 0.36176 0.06728 0.20663 0.0
O196 O 0.30787 0.03204 0.20651 0.0
O197 O 0.37567 0.97276 0.13407 0.0
O198 O 0.30596 0.98748 0.20833 0.0
O199 O 0.3369 0.96015 0.15314 0.0
C200 C 0.35579 0.05135 0.12939 0.0
C201 C 0.37592 0.9528 0.23149 0.0
C202 C 0.37448 0.06535 0.22881 0.0
C203 C 0.44305 0.00942 0.1812 0.0
C204 C 0.29611 0.01051 0.21429 0.0
C205 C 0.35434 0.95834 0.13429 0.0
O206 O 0.33879 0.05243 0.14869 0.0
O207 O 0.97169 0.37782 0.13446 0.0
Zn208 Zn 0.00338 0.389 0.1567 0.0
O209 O 0.00292 0.36748 0.18902 0.0
Zn210 Zn 0.0018 0.39193 0.219 0.0
Zn211 Zn 0.97289 0.34302 0.18969 0.0
Zn212 Zn 0.03343 0.34365 0.1904 0.0
O213 O 0.03664 0.38808 0.23947 0.0
O214 O 0.06102 0.36179 0.21219 0.0
O215 O 0.00342 0.43041 0.1628 0.0
O216 O -0.00093 0.43203 0.20725 0.0
O217 O 0.96855 0.38408 0.24071 0.0
O218 O 0.94436 0.361 0.21055 0.0
O219 O 0.98103 0.30749 0.2089 0.0
O220 O 0.03517 0.37778 0.13485 0.0
O221 O 0.02561 0.30806 0.20908 0.0
O222 O 0.04947 0.33948 0.15371 0.0
C223 C 0.95732 0.35646 0.13363 0.0
C224 C 0.059 0.37746 0.23233 0.0
C225 C 0.94611 0.37484 0.23204 0.0
C226 C 0.00069 0.4441 0.18449 0.0
C227 C 0.00346 0.2967 0.21549 0.0
C228 C 0.04983 0.35664 0.13454 0.0
O229 O 0.95806 0.33885 0.1524 0.0
O230 O 0.6269 0.0314 0.24168 0.0
Zn231 Zn 0.64441 0.00065 0.22184 0.0
O232 O 0.63869 0.00562 0.1843 0.0
Zn233 Zn 0.61539 0.97925 0.16892 0.0
Zn234 Zn 0.61795 0.03697 0.17889 0.0
Zn235 Zn 0.67359 0.00717 0.16618 0.0
O236 O 0.63067 0.96909 0.13353 0.0
O237 O 0.67491 0.97546 0.14026 0.0
O238 O 0.63173 0.96343 0.23184 0.0
O239 O 0.61808 0.94726 0.19223 0.0
O240 O 0.57465 0.98878 0.16728 0.0
O241 O 0.57652 0.03133 0.18008 0.0
O242 O 0.62999 0.05306 0.14439 0.0
O243 O 0.68348 0.0036 0.23128 0.0
O244 O 0.67316 0.03999 0.14155 0.0
O245 O 0.70638 0.00784 0.19305 0.0
C246 C 0.626 0.05578 0.23334 0.0
C247 C 0.65524 0.96558 0.12673 0.0
C248 C 0.56258 0.01052 0.17402 0.0
C249 C 0.62359 0.94392 0.21706 0.0
C250 C 0.65313 0.05396 0.13322 0.0
C251 C 0.70575 0.00638 0.21886 0.0
O252 O 0.62751 0.06137 0.20836 0.0
O253 O 0.04012 0.62863 0.13326 0.0
Zn254 Zn 0.0071 0.6183 0.15397 0.0
O255 O 0.00598 0.64024 0.18609 0.0
Zn256 Zn 0.00328 0.6163 0.21644 0.0
Zn257 Zn 0.03666 0.66401 0.18827 0.0
Zn258 Zn 0.97622 0.66487 0.18552 0.0
O259 O 0.96966 0.62538 0.23714 0.0
O260 O 0.9466 0.64776 0.20562 0.0
O261 O 0.00552 0.57685 0.16086 0.0
O262 O -0.00038 0.57622 0.20516 0.0
O263 O 0.03771 0.61951 0.23782 0.0
O264 O 0.06296 0.6463 0.21181 0.0
O265 O 0.02847 0.70023 0.20585 0.0
O266 O 0.9767 0.63025 0.13008 0.0
O267 O 0.98393 0.70044 0.20435 0.0
O268 O 0.96312 0.6693 0.14788 0.0
C269 C 0.05527 0.64946 0.13328 0.0
C270 C 0.9476 0.63473 0.22765 0.0
C271 C 0.06026 0.63039 0.23169 0.0
C272 C 0.00155 0.56365 0.18271 0.0
C273 C 0.00604 0.71154 0.21138 0.0
C274 C 0.96305 0.65206 0.12879 0.0
O275 O 0.05457 0.66691 0.15218 0.0
O276 O 0.37921 0.97486 0.87617 0.0
Zn277 Zn 0.39057 0.00554 0.85254 0.0
O278 O 0.36842 0.00449 0.82066 0.0
Zn279 Zn 0.39217 0.00414 0.79003 0.0
Zn280 Zn 0.34415 0.9743 0.82063 0.0
Zn281 Zn 0.34412 0.03455 0.81992 0.0
O282 O 0.38634 0.03851 0.76923 0.0
O283 O 0.36156 0.06249 0.79816 0.0
O284 O 0.43177 0.00467 0.84521 0.0
O285 O 0.4328 0.00364 0.80062 0.0
O286 O 0.385 0.97005 0.76916 0.0
O287 O 0.36167 0.94596 0.79926 0.0
O288 O 0.30811 0.98199 0.80214 0.0
O289 O 0.38056 0.03854 0.87353 0.0
O290 O 0.30825 0.02655 0.80192 0.0
O291 O 0.34061 0.05047 0.85663 0.0
C292 C 0.35803 0.96025 0.87727 0.0
C293 C 0.37629 0.06081 0.77731 0.0
C294 C 0.3753 0.94772 0.77766 0.0
C295 C 0.44529 0.004 0.82323 0.0
C296 C 0.29695 0.0043 0.79576 0.0
C297 C 0.35899 0.0526 0.87451 0.0
O298 O 0.34077 0.95976 0.85813 0.0
O299 O 0.03667 0.38143 0.87753 0.0
Zn300 Zn 0.00605 0.39228 0.85364 0.0
O301 O 0.00751 0.37012 0.82195 0.0
Zn302 Zn 0.01131 0.39372 0.79176 0.0
Zn303 Zn 0.03644 0.34414 0.82386 0.0
Zn304 Zn 0.97522 0.34911 0.81789 0.0
O305 O 0.98152 0.38644 0.76579 0.0
O306 O 0.9509 0.3704 0.79427 0.0
O307 O 0.00614 0.43335 0.84619 0.0
O308 O 0.0093 0.43423 0.80169 0.0
O309 O 0.04726 0.38705 0.77555 0.0
O310 O 0.06798 0.35865 0.80373 0.0
O311 O 0.02651 0.30844 0.80581 0.0
O312 O 0.97339 0.38175 0.8746 0.0
O313 O 0.9824 0.31306 0.80007 0.0
O314 O 0.95709 0.34544 0.85374 0.0
C315 C 0.04954 0.35928 0.88016 0.0
C316 C 0.95702 0.38283 0.77268 0.0
C317 C 0.06815 0.37427 0.78342 0.0
C318 C 0.00739 0.44675 0.82416 0.0
C319 C 0.00403 0.29952 0.79684 0.0
C320 C 0.95729 0.3617 0.87368 0.0
O321 O 0.04878 0.34084 0.86218 0.0
O322 O 0.63155 0.0356 0.87436 0.0
Zn323 Zn 0.62044 0.00397 0.85204 0.0
O324 O 0.64248 0.00371 0.82017 0.0
Zn325 Zn 0.61857 0.0037 0.78957 0.0
Zn326 Zn 0.66701 0.03375 0.81952 0.0
Zn327 Zn 0.66634 0.97317 0.82 0.0
O328 O 0.62516 0.96962 0.7686 0.0
O329 O 0.64863 0.94521 0.79834 0.0
O330 O 0.57924 0.00415 0.84482 0.0
O331 O 0.57793 0.00366 0.80022 0.0
O332 O 0.62508 0.03782 0.76857 0.0
O333 O 0.64973 0.06194 0.7976 0.0
O334 O 0.7028 0.02515 0.80107 0.0
O335 O 0.6309 0.97227 0.8746 0.0
O336 O 0.70222 0.98058 0.80164 0.0
O337 O 0.66975 0.95779 0.85712 0.0
C338 C 0.653 0.0498 0.87542 0.0
C339 C 0.63486 0.9472 0.77683 0.0
C340 C 0.63544 0.06009 0.7764 0.0
C341 C 0.56558 0.00391 0.82289 0.0
C342 C 0.71365 0.00262 0.79495 0.0
C343 C 0.65205 0.95766 0.87578 0.0
O344 O 0.67065 0.04928 0.85668 0.0
O345 O 0.9688 0.63106 0.8713 0.0
Zn346 Zn 0.00233 0.62134 0.85166 0.0
O347 O 0.00413 0.64334 0.81985 0.0
Zn348 Zn 0.00666 0.61947 0.78942 0.0
Zn349 Zn 0.97398 0.6676 0.81726 0.0
Zn350 Zn 0.03442 0.66745 0.82201 0.0
O351 O 0.0431 0.62533 0.77263 0.0
O352 O 0.06486 0.64933 0.80405 0.0
O353 O 0.00372 0.58039 0.84465 0.0
O354 O 0.00542 0.57894 0.80009 0.0
O355 O 0.97486 0.62666 0.76482 0.0
O356 O 0.94857 0.65204 0.79108 0.0
O357 O 0.98353 0.70413 0.80144 0.0
O358 O 0.03185 0.6326 0.87673 0.0
O359 O 0.02808 0.70291 0.8023 0.0
O360 O 0.04562 0.67218 0.86045 0.0
C361 C 0.95343 0.65168 0.8712 0.0
C362 C 0.06473 0.63501 0.78283 0.0
C363 C 0.95229 0.63806 0.76992 0.0
C364 C 0.00467 0.5667 0.82282 0.0
C365 C 0.00622 0.71473 0.79562 0.0
C366 C 0.04518 0.65448 0.87915 0.0
O367 O 0.9548 0.66956 0.85273 0.0
O368 O 0.13451 0.37868 0.0401 0.0
Zn369 Zn 0.15642 0.38963 0.00837 0.0
O370 O 0.18809 0.36732 0.00774 0.0
Zn371 Zn 0.21873 0.39101 0.00668 0.0
Zn372 Zn 0.18953 0.34288 0.03796 0.0
Zn373 Zn 0.18684 0.34342 0.97716 0.0
O374 O 0.23798 0.38415 0.97182 0.0
O375 O 0.20784 0.36037 0.94813 0.0
O376 O 0.16383 0.43057 0.00835 0.0
O377 O 0.20841 0.43174 0.0069 0.0
O378 O 0.24149 0.38373 0.03959 0.0
O379 O 0.21426 0.3584 0.06499 0.0
O380 O 0.20603 0.30647 0.02864 0.0
O381 O 0.13306 0.37975 0.97708 0.0
O382 O 0.20483 0.30732 0.9841 0.0
O383 O 0.14916 0.34017 0.96323 0.0
C384 C 0.13391 0.35765 0.05491 0.0
C385 C 0.2294 0.3741 0.94968 0.0
C386 C 0.23562 0.37226 0.06193 0.0
C387 C 0.18576 0.44414 0.00756 0.0
C388 C 0.21152 0.29561 0.00599 0.0
C389 C 0.13093 0.35831 0.96303 0.0
O390 O 0.15296 0.34034 0.05492 0.0
O391 O 0.13086 0.63017 0.97179 0.0
Zn392 Zn 0.15564 0.6188 0.00161 0.0
O393 O 0.18728 0.64076 -0.00058 0.0
Zn394 Zn 0.2169 0.61673 0.9948 0.0
Zn395 Zn 0.18487 0.66609 0.97014 0.0
Zn396 Zn 0.19274 0.66228 0.03128 0.0
O397 O 0.24532 0.62773 0.02103 0.0
O398 O 0.21808 0.64107 0.0538 0.0
O399 O 0.16282 0.57756 0.0021 0.0
O400 O 0.20741 0.57655 0.00101 0.0
O401 O 0.22875 0.61941 0.95671 0.0
O402 O 0.2011 0.64925 0.93737 0.0
O403 O 0.20535 0.70098 0.97835 0.0
O404 O 0.13596 0.62971 0.03469 0.0
O405 O 0.21053 0.69833 0.02271 0.0
O406 O 0.15761 0.6654 0.05159 0.0
C407 C 0.12779 0.65298 0.96016 0.0
C408 C 0.23972 0.62966 0.04602 0.0
C409 C 0.21958 0.63157 0.93599 0.0
C410 C 0.18486 0.5641 0.00254 0.0
C411 C 0.21449 0.71069 0.00044 0.0
C412 C 0.13745 0.64933 0.05123 0.0
O413 O 0.14596 0.67124 0.96093 0.0
O414 O 0.3804 0.13733 0.97027 0.0
Zn415 Zn 0.39052 0.15878 0.00279 0.0
O416 O 0.3686 0.19089 0.0033 0.0
Zn417 Zn 0.39278 0.22131 0.00414 0.0
Zn418 Zn 0.34457 0.19218 0.97277 0.0
Zn419 Zn 0.34439 0.1907 0.03367 0.0
O420 O 0.38684 0.24111 0.039 0.0
O421 O 0.36149 0.21216 0.06241 0.0
O422 O 0.43162 0.16571 0.00334 0.0
O423 O 0.43326 0.21029 0.00349 0.0
O424 O 0.38607 0.24384 0.97103 0.0
O425 O 0.3611 0.21618 0.9457 0.0
O426 O 0.30796 0.20859 0.98131 0.0
O427 O 0.37939 0.13529 0.03366 0.0
O428 O 0.3082 0.20835 0.02589 0.0
O429 O 0.34083 0.15328 0.04821 0.0
C430 C 0.35962 0.13696 0.95507 0.0
C431 C 0.37624 0.23306 0.06105 0.0
C432 C 0.37525 0.23736 0.94854 0.0
C433 C 0.44541 0.18752 0.00339 0.0
C434 C 0.29666 0.21434 0.00368 0.0
C435 C 0.35807 0.13418 0.04801 0.0
O436 O 0.34204 0.15572 0.95573 0.0
O437 O 0.87595 0.38083 0.97198 0.0
Zn438 Zn 0.85407 0.39162 0.00416 0.0
O439 O 0.82177 0.37017 0.00371 0.0
Zn440 Zn 0.79176 0.39449 0.00319 0.0
Zn441 Zn 0.82135 0.34646 0.97317 0.0
Zn442 Zn 0.81985 0.34577 0.03344 0.0
O443 O 0.76898 0.38764 0.03603 0.0
O444 O 0.79783 0.36377 0.06107 0.0
O445 O 0.84753 0.43313 0.00469 0.0
O446 O 0.80296 0.43457 0.00488 0.0
O447 O 0.77321 0.39043 0.96755 0.0
O448 O 0.80367 0.36694 0.94422 0.0
O449 O 0.80063 0.31144 0.97974 0.0
O450 O 0.87591 0.37966 0.03603 0.0
O451 O 0.80132 0.3103 0.02435 0.0
O452 O 0.85647 0.34135 0.04947 0.0
C453 C 0.87709 0.35911 0.95814 0.0
C454 C 0.77679 0.3782 0.05872 0.0
C455 C 0.78341 0.38249 0.94528 0.0
C456 C 0.82564 0.44684 0.00503 0.0
C457 C 0.79442 0.29981 0.00187 0.0
C458 C 0.87578 0.35833 0.0505 0.0
O459 O 0.85885 0.34103 0.95975 0.0
O460 O 0.62997 0.87571 0.9733 0.0
Zn461 Zn 0.61971 0.85476 0.00596 0.0
O462 O 0.64116 0.8224 0.00665 0.0
Zn463 Zn 0.61669 0.79242 0.00825 0.0
Zn464 Zn 0.6649 0.82022 0.97598 0.0
Zn465 Zn 0.6652 0.82255 0.03718 0.0
O466 O 0.62278 0.77294 0.04314 0.0
O467 O 0.6467 0.80301 0.06667 0.0
O468 O 0.57837 0.84864 0.0069 0.0
O469 O 0.57652 0.80407 0.00813 0.0
O470 O 0.62238 0.76931 0.97547 0.0
O471 O 0.64768 0.79589 0.94936 0.0
O472 O 0.70131 0.80342 0.98516 0.0
O473 O 0.63201 0.87857 0.03611 0.0
O474 O 0.7006 0.80315 0.02979 0.0
O475 O 0.67076 0.86046 0.04994 0.0
C476 C 0.65072 0.87578 0.95814 0.0
C477 C 0.63228 0.78185 0.06536 0.0
C478 C 0.63306 0.77508 0.95275 0.0
C479 C 0.56449 0.8269 0.00761 0.0
C480 C 0.71223 0.79716 0.00764 0.0
C481 C 0.65389 0.87987 0.04968 0.0
O482 O 0.66787 0.85658 0.95841 0.0
O483 O 0.87791 0.63317 0.03375 0.0
Zn484 Zn 0.85311 0.62189 0.00418 0.0
O485 O 0.82128 0.64393 0.00645 0.0
Zn486 Zn 0.791 0.61981 0.00791 0.0
Zn487 Zn 0.82222 0.66781 0.03711 0.0
Zn488 Zn 0.8195 0.66861 0.97643 0.0
O489 O 0.76769 0.62764 0.97573 0.0
O490 O 0.79415 0.65355 0.95007 0.0
O491 O 0.84633 0.58077 0.00524 0.0
O492 O 0.80177 0.5792 0.00643 0.0
O493 O 0.77219 0.62554 0.04333 0.0
O494 O 0.80197 0.65019 0.06652 0.0
O495 O 0.80336 0.70387 0.03027 0.0
O496 O 0.8727 0.6317 0.97049 0.0
O497 O 0.80362 0.70499 0.98573 0.0
O498 O 0.85496 0.67093 0.95765 0.0
C499 C 0.87957 0.65422 0.04846 0.0
C500 C 0.77306 0.63943 0.95344 0.0
C501 C 0.78083 0.63575 0.06536 0.0
C502 C 0.82453 0.56699 0.00577 0.0
C503 C 0.79736 0.71572 0.0082 0.0
C504 C 0.87289 0.65265 0.95555 0.0
O505 O 0.86036 0.67131 0.04999 0.0
O506 O 0.37701 0.87544 0.03849 0.0
Zn507 Zn 0.38905 0.85456 0.00613 0.0
O508 O 0.36781 0.82206 0.00452 0.0
Zn509 Zn 0.39247 0.79215 0.00427 0.0
Zn510 Zn 0.34288 0.81987 0.03418 0.0
Zn511 Zn 0.34456 0.82182 0.97341 0.0
O512 O 0.3883 0.77259 0.96904 0.0
O513 O 0.36346 0.80151 0.94497 0.0
O514 O 0.43051 0.84855 0.00665 0.0
O515 O 0.43253 0.80397 0.00651 0.0
O516 O 0.38515 0.76925 0.03685 0.0
O517 O 0.35972 0.79682 0.06173 0.0
O518 O 0.30747 0.80145 0.02442 0.0
O519 O 0.37835 0.87776 0.97494 0.0
O520 O 0.30891 0.80228 0.97986 0.0
O521 O 0.34038 0.85936 0.95919 0.0
C522 C 0.35563 0.87523 0.05284 0.0
C523 C 0.37851 0.78086 0.94667 0.0
C524 C 0.37414 0.77581 0.05919 0.0
C525 C 0.44448 0.82685 0.00696 0.0
C526 C 0.29715 0.79528 0.00165 0.0
C527 C 0.35744 0.87865 0.95992 0.0
O528 O 0.33842 0.85615 0.05131 0.0
O529 O 0.63058 0.13447 0.03427 0.0
Zn530 Zn 0.62004 0.15659 0.00224 0.0
O531 O 0.64213 0.18833 0.00203 0.0
Zn532 Zn 0.61857 0.21906 0.00275 0.0
Zn533 Zn 0.66679 0.18806 0.03188 0.0
Zn534 Zn 0.66545 0.18934 0.97126 0.0
O535 O 0.62413 0.24035 0.96864 0.0
O536 O 0.64628 0.21029 0.94351 0.0
O537 O 0.57889 0.16401 0.00214 0.0
O538 O 0.57808 0.20861 0.00319 0.0
O539 O 0.62558 0.23938 0.03714 0.0
O540 O 0.64932 0.20909 0.06061 0.0
O541 O 0.70222 0.20701 0.02343 0.0
O542 O 0.63104 0.13386 0.97086 0.0
O543 O 0.70091 0.20884 0.97884 0.0
O544 O 0.66959 0.15203 0.95629 0.0
C545 C 0.65234 0.13249 0.04791 0.0
C546 C 0.63236 0.23166 0.94583 0.0
C547 C 0.63524 0.23046 0.05932 0.0
C548 C 0.56551 0.18608 0.00273 0.0
C549 C 0.71257 0.21456 0.0011 0.0
C550 C 0.6523 0.13293 0.95639 0.0
O551 O 0.67073 0.1505 0.04664 0.0
O552 O 0.53297 0.63031 0.8784 0.0
Zn553 Zn 0.50327 0.65468 0.89057 0.0
O554 O 0.50436 0.68661 0.86856 0.0
Zn555 Zn 0.50459 0.71699 0.89242 0.0
Zn556 Zn 0.53515 0.68651 0.845 0.0
Zn557 Zn 0.47422 0.68804 0.84424 0.0
O558 O 0.47295 0.7407 0.88369 0.0
O559 O 0.447 0.71163 0.86115 0.0
O560 O 0.50431 0.6615 0.93199 0.0
O561 O 0.50077 0.70606 0.93257 0.0
O562 O 0.54053 0.7353 0.88891 0.0
O563 O 0.56431 0.70622 0.86401 0.0
O564 O 0.52799 0.70609 0.80943 0.0
O565 O 0.46989 0.63439 0.88051 0.0
O566 O 0.48338 0.70527 0.80821 0.0
O567 O 0.45714 0.65161 0.84096 0.0
C568 C 0.54674 0.62882 0.85671 0.0
C569 C 0.45011 0.73351 0.87414 0.0
C570 C 0.56282 0.72679 0.87925 0.0
C571 C 0.50189 0.68356 0.94518 0.0
C572 C 0.50585 0.71195 0.79762 0.0
C573 C 0.4554 0.63355 0.8592 0.0
O574 O 0.54777 0.64837 0.83996 0.0
O575 O 0.26839 0.4651 0.87595 0.0
Zn576 Zn 0.28216 0.4996 0.85944 0.0
O577 O 0.31969 0.5032 0.86767 0.0
Zn578 Zn 0.32648 0.53207 0.89205 0.0
Zn579 Zn 0.33111 0.47318 0.88829 0.0
Zn580 Zn 0.34002 0.50641 0.83394 0.0
O581 O 0.35992 0.54989 0.88018 0.0
O582 O 0.36295 0.54033 0.83622 0.0
O583 O 0.26276 0.53388 0.87012 0.0
O584 O 0.29702 0.55799 0.88646 0.0
O585 O 0.32853 0.52225 0.9326 0.0
O586 O 0.32931 0.47782 0.92967 0.0
O587 O 0.36773 0.46336 0.87638 0.0
O588 O 0.27631 0.49614 0.81977 0.0
O589 O 0.36771 0.47598 0.83307 0.0
O590 O 0.31522 0.50576 0.79972 0.0
C591 C 0.28166 0.44318 0.8789 0.0
C592 C 0.37082 0.55322 0.85715 0.0
C593 C 0.32881 0.49917 0.94404 0.0
C594 C 0.27278 0.55623 0.8782 0.0
C595 C 0.3783 0.46338 0.85297 0.0
C596 C 0.29005 0.49997 0.79845 0.0
O597 O 0.30729 0.44299 0.87899 0.0
O598 O 0.47406 0.3804 0.87639 0.0
Zn599 Zn 0.50424 0.35624 0.88843 0.0
O600 O 0.50344 0.32443 0.86645 0.0
Zn601 Zn 0.50192 0.29375 0.89004 0.0
Zn602 Zn 0.47342 0.32514 0.842 0.0
Zn603 Zn 0.53416 0.32277 0.84296 0.0
O604 O 0.53476 0.27087 0.88367 0.0
O605 O 0.56096 0.29966 0.86106 0.0
O606 O 0.50325 0.34885 0.92968 0.0
O607 O 0.5026 0.30424 0.93051 0.0
O608 O 0.46671 0.27476 0.88364 0.0
O609 O 0.44376 0.30547 0.85993 0.0
O610 O 0.4813 0.30556 0.80677 0.0
O611 O 0.53753 0.37666 0.87869 0.0
O612 O 0.52591 0.30469 0.80711 0.0
O613 O 0.55125 0.35924 0.83959 0.0
C614 C 0.46056 0.38215 0.85446 0.0
C615 C 0.55775 0.27813 0.8746 0.0
C616 C 0.44468 0.28412 0.87409 0.0
C617 C 0.50296 0.32677 0.94309 0.0
C618 C 0.50355 0.29862 0.79588 0.0
C619 C 0.55251 0.3774 0.85777 0.0
O620 O 0.46066 0.36319 0.83705 0.0
O621 O 0.73274 0.55254 0.87905 0.0
Zn622 Zn 0.7233 0.51639 0.86348 0.0
O623 O 0.6861 0.50947 0.87066 0.0
Zn624 Zn 0.68112 0.47899 0.89312 0.0
Zn625 Zn 0.67098 0.53691 0.8926 0.0
Zn626 Zn 0.66698 0.50584 0.83646 0.0
O627 O 0.64865 0.45988 0.88081 0.0
O628 O 0.64421 0.47179 0.8376 0.0
O629 O 0.74525 0.48479 0.87704 0.0
O630 O 0.71211 0.45584 0.88638 0.0
O631 O 0.67915 0.48609 0.93407 0.0
O632 O 0.67258 0.53011 0.93384 0.0
O633 O 0.63405 0.54388 0.87908 0.0
O634 O 0.73094 0.51853 0.82385 0.0
O635 O 0.6394 0.53612 0.8349 0.0
O636 O 0.6929 0.5063 0.8034 0.0
C637 C 0.71735 0.57258 0.88416 0.0
C638 C 0.63726 0.4575 0.8579 0.0
C639 C 0.67599 0.50817 0.94689 0.0
C640 C 0.73687 0.46093 0.88207 0.0
C641 C 0.62599 0.54578 0.8547 0.0
C642 C 0.71784 0.51304 0.80246 0.0
O643 O 0.69195 0.56989 0.88637 0.0
O644 O 0.54101 0.37371 0.12934 0.0
Zn645 Zn 0.50816 0.35294 0.11845 0.0
O646 O 0.50676 0.32062 0.13993 0.0
Zn647 Zn 0.50539 0.29049 0.11559 0.0
Zn648 Zn 0.53717 0.31851 0.16398 0.0
Zn649 Zn 0.47646 0.32095 0.16407 0.0
O650 O 0.47112 0.27005 0.12278 0.0
O651 O 0.44745 0.29992 0.14675 0.0
O652 O 0.50705 0.34648 0.07718 0.0
O653 O 0.50456 0.30196 0.07524 0.0
O654 O 0.53905 0.26851 0.12089 0.0
O655 O 0.56442 0.29579 0.14626 0.0
O656 O 0.52855 0.30043 0.19978 0.0
O657 O 0.47777 0.37678 0.12988 0.0
O658 O 0.48403 0.30257 0.19996 0.0
O659 O 0.4627 0.35858 0.16814 0.0
C660 C 0.55535 0.37381 0.15076 0.0
C661 C 0.44899 0.27836 0.13299 0.0
C662 C 0.56165 0.27511 0.1314 0.0
C663 C 0.50546 0.32481 0.06323 0.0
C664 C 0.50605 0.29526 0.21109 0.0
C665 C 0.46339 0.37792 0.15117 0.0
O666 O 0.55389 0.35492 0.16817 0.0
O667 O 0.6323 0.53688 0.13245 0.0
Zn668 Zn 0.65559 0.50593 0.1215 0.0
O669 O 0.6882 0.50772 0.1425 0.0
Zn670 Zn 0.71774 0.5094 0.11735 0.0
Zn671 Zn 0.6885 0.53809 0.16679 0.0
Zn672 Zn 0.69071 0.47686 0.16609 0.0
O673 O 0.73881 0.47497 0.12053 0.0
O674 O 0.71283 0.44975 0.14734 0.0
O675 O 0.66124 0.50533 0.08027 0.0
O676 O 0.70537 0.51197 0.07733 0.0
O677 O 0.7397 0.5424 0.12543 0.0
O678 O 0.71092 0.56662 0.15011 0.0
O679 O 0.70653 0.52968 0.20292 0.0
O680 O 0.63498 0.47339 0.13278 0.0
O681 O 0.70955 0.4852 0.2016 0.0
O682 O 0.6545 0.45955 0.17083 0.0
C683 C 0.63168 0.5523 0.15305 0.0
C684 C 0.73258 0.4524 0.13127 0.0
C685 C 0.73243 0.56454 0.13634 0.0
C686 C 0.6824 0.50883 0.06598 0.0
C687 C 0.71443 0.50753 0.21342 0.0
C688 C 0.63534 0.45838 0.15366 0.0
O689 O 0.65113 0.55333 0.16994 0.0
O690 O 0.46924 0.63454 0.13045 0.0
Zn691 Zn 0.50175 0.65614 0.11981 0.0
O692 O 0.50185 0.68845 0.1415 0.0
Zn693 Zn 0.50054 0.71875 0.11729 0.0
Zn694 Zn 0.47178 0.68886 0.16607 0.0
Zn695 Zn 0.53262 0.68993 0.16517 0.0
O696 O 0.53433 0.74067 0.12259 0.0
O697 O 0.55972 0.71335 0.14792 0.0
O698 O 0.50229 0.66273 0.07836 0.0
O699 O 0.49911 0.70731 0.07705 0.0
O700 O 0.46643 0.7394 0.12417 0.0
O701 O 0.44301 0.70972 0.14854 0.0
O702 O 0.4799 0.70756 0.20175 0.0
O703 O 0.53313 0.63351 0.13129 0.0
O704 O 0.52449 0.70749 0.20137 0.0
O705 O 0.54923 0.65326 0.16842 0.0
C706 C 0.45488 0.63366 0.15182 0.0
C707 C 0.55687 0.73426 0.13335 0.0
C708 C 0.4443 0.73084 0.13414 0.0
C709 C 0.50036 0.68463 0.0648 0.0
C710 C 0.50232 0.7138 0.21277 0.0
C711 C 0.54864 0.63356 0.15186 0.0
O712 O 0.45641 0.65184 0.16996 0.0
O713 O 0.37908 0.47247 0.12999 0.0
Zn714 Zn 0.35446 0.5021 0.11816 0.0
O715 O 0.32234 0.49921 0.13954 0.0
Zn716 Zn 0.29325 0.49257 0.11502 0.0
Zn717 Zn 0.32455 0.47091 0.16585 0.0
Zn718 Zn 0.31671 0.53152 0.16008 0.0
O719 O 0.26921 0.52467 0.1149 0.0
O720 O 0.29416 0.55496 0.13698 0.0
O721 O 0.34817 0.50144 0.07685 0.0
O722 O 0.30541 0.48855 0.07537 0.0
O723 O 0.27442 0.45865 0.12554 0.0
O724 O 0.30621 0.43876 0.15034 0.0
O725 O 0.30509 0.48057 0.20092 0.0
O726 O 0.37384 0.53556 0.1289 0.0
O727 O 0.29744 0.52428 0.19551 0.0
O728 O 0.35201 0.55088 0.16502 0.0
C729 C 0.38156 0.45977 0.15228 0.0
C730 C 0.27521 0.54899 0.12073 0.0
C731 C 0.28457 0.43778 0.13661 0.0
C732 C 0.3274 0.49436 0.06325 0.0
C733 C 0.29476 0.50266 0.20926 0.0
C734 C 0.3721 0.55155 0.14896 0.0
O735 O 0.36315 0.46002 0.17028 0.0
O736 O 0.87568 0.53907 0.63082 0.0
Zn737 Zn 0.887 0.50868 0.65479 0.0
O738 O 0.86615 0.51122 0.68729 0.0
Zn739 Zn 0.89142 0.51627 0.71615 0.0
Zn740 Zn 0.84135 0.54093 0.68577 0.0
Zn741 Zn 0.84398 0.47963 0.69277 0.0
O742 O 0.88689 0.48615 0.74217 0.0
O743 O 0.86561 0.45578 0.7167 0.0
O744 O 0.92842 0.50776 0.66018 0.0
O745 O 0.93138 0.5155 0.70407 0.0
O746 O 0.88551 0.5522 0.73291 0.0
O747 O 0.85937 0.57262 0.70256 0.0
O748 O 0.80678 0.53307 0.70681 0.0
O749 O 0.87516 0.47589 0.63525 0.0
O750 O 0.80823 0.48854 0.71143 0.0
O751 O 0.83952 0.45977 0.65739 0.0
C752 C 0.85357 0.55213 0.62872 0.0
C753 C 0.88074 0.46181 0.73658 0.0
C754 C 0.87491 0.57336 0.72293 0.0
C755 C 0.94277 0.51131 0.68134 0.0
C756 C 0.79656 0.51113 0.71572 0.0
C757 C 0.85538 0.45957 0.63709 0.0
O758 O 0.83574 0.55181 0.64729 0.0
O759 O 0.47146 0.87891 0.63753 0.0
Zn760 Zn 0.50289 0.89007 0.66008 0.0
O761 O 0.50444 0.86728 0.69124 0.0
Zn762 Zn 0.50474 0.89092 0.7221 0.0
Zn763 Zn 0.47461 0.84271 0.69158 0.0
Zn764 Zn 0.53497 0.84317 0.6901 0.0
O765 O 0.53919 0.88408 0.7425 0.0
O766 O 0.56274 0.86005 0.71255 0.0
O767 O 0.50224 0.93094 0.66769 0.0
O768 O 0.50484 0.93185 0.71216 0.0
O769 O 0.47049 0.88433 0.74289 0.0
O770 O 0.44659 0.85967 0.71365 0.0
O771 O 0.48325 0.8068 0.70912 0.0
O772 O 0.53493 0.88155 0.63798 0.0
O773 O 0.5278 0.80635 0.70721 0.0
O774 O 0.55097 0.84229 0.65281 0.0
C775 C 0.45757 0.85727 0.63629 0.0
C776 C 0.56135 0.87415 0.73387 0.0
C777 C 0.44823 0.87416 0.7347 0.0
C778 C 0.50357 0.94441 0.68963 0.0
C779 C 0.50565 0.79524 0.71421 0.0
C780 C 0.55093 0.86159 0.63573 0.0
O781 O 0.45895 0.83926 0.65461 0.0
O782 O 0.13545 0.53957 0.74258 0.0
Zn783 Zn 0.14728 0.50486 0.72471 0.0
O784 O 0.13875 0.50618 0.68697 0.0
Zn785 Zn 0.11553 0.47736 0.6763 0.0
Zn786 Zn 0.11668 0.53645 0.67906 0.0
Zn787 Zn 0.17268 0.50688 0.66649 0.0
O788 O 0.12865 0.46338 0.64143 0.0
O789 O 0.17225 0.47498 0.64066 0.0
O790 O 0.13307 0.47029 0.74052 0.0
O791 O 0.12081 0.44855 0.70317 0.0
O792 O 0.07462 0.4858 0.67453 0.0
O793 O 0.0755 0.52995 0.68002 0.0
O794 O 0.12833 0.55084 0.64374 0.0
O795 O 0.18696 0.50234 0.73069 0.0
O796 O 0.17201 0.53958 0.64176 0.0
O797 O 0.20714 0.50583 0.69088 0.0
C798 C 0.13006 0.56217 0.73136 0.0
C799 C 0.15213 0.46196 0.6311 0.0
C800 C 0.0621 0.50814 0.67723 0.0
C801 C 0.12642 0.44863 0.72824 0.0
C802 C 0.15151 0.55238 0.63274 0.0
C803 C 0.20831 0.50325 0.71656 0.0
O804 O 0.12472 0.56377 0.70634 0.0
O805 O 0.53887 0.12957 0.63717 0.0
Zn806 Zn 0.50661 0.1191 0.65904 0.0
O807 O 0.50599 0.14143 0.69075 0.0
Zn808 Zn 0.50603 0.11793 0.7216 0.0
Zn809 Zn 0.53581 0.16614 0.69108 0.0
Zn810 Zn 0.47549 0.16514 0.69074 0.0
O811 O 0.47227 0.1252 0.74292 0.0
O812 O 0.44758 0.14748 0.71249 0.0
O813 O 0.50606 0.078 0.66679 0.0
O814 O 0.5052 0.07724 0.7114 0.0
O815 O 0.54075 0.12393 0.74181 0.0
O816 O 0.56427 0.14902 0.7127 0.0
O817 O 0.52731 0.20217 0.70893 0.0
O818 O 0.47538 0.12976 0.63577 0.0
O819 O 0.48275 0.20135 0.7084 0.0
O820 O 0.46059 0.16835 0.65352 0.0
C821 C 0.55254 0.15137 0.63575 0.0
C822 C 0.4497 0.13427 0.73435 0.0
C823 C 0.56289 0.13423 0.73357 0.0
C824 C 0.5054 0.06462 0.68887 0.0
C825 C 0.50475 0.21307 0.71474 0.0
C826 C 0.46078 0.15093 0.63461 0.0
O827 O 0.55088 0.16958 0.65386 0.0
O828 O 0.88152 0.4758 0.3756 0.0
Zn829 Zn 0.89233 0.50738 0.35295 0.0
O830 O 0.8701 0.50756 0.32096 0.0
Zn831 Zn 0.89383 0.50802 0.29038 0.0
Zn832 Zn 0.84584 0.47715 0.32048 0.0
Zn833 Zn 0.84615 0.53805 0.32016 0.0
O834 O 0.88578 0.54079 0.26806 0.0
O835 O 0.86305 0.56602 0.29753 0.0
O836 O 0.93364 0.5074 0.34579 0.0
O837 O 0.93422 0.51029 0.30118 0.0
O838 O 0.88865 0.47335 0.27018 0.0
O839 O 0.86274 0.44914 0.298 0.0
O840 O 0.80961 0.48539 0.30266 0.0
O841 O 0.88152 0.53912 0.37537 0.0
O842 O 0.80996 0.52996 0.30258 0.0
O843 O 0.84298 0.55364 0.35706 0.0
C844 C 0.86027 0.46131 0.37659 0.0
C845 C 0.87602 0.56338 0.2756 0.0
C846 C 0.8776 0.45117 0.27724 0.0
C847 C 0.94685 0.50935 0.3237 0.0
C848 C 0.7985 0.50776 0.29646 0.0
C849 C 0.86034 0.55375 0.37608 0.0
O850 O 0.84275 0.46147 0.35768 0.0
O851 O 0.53574 0.88085 0.37415 0.0
Zn852 Zn 0.50388 0.89122 0.35186 0.0
O853 O 0.50392 0.86933 0.31985 0.0
Zn854 Zn 0.50386 0.89333 0.28949 0.0
Zn855 Zn 0.53416 0.84493 0.31933 0.0
Zn856 Zn 0.47315 0.8457 0.31919 0.0
O857 O 0.46933 0.888 0.26903 0.0
O858 O 0.44473 0.86398 0.29809 0.0
O859 O 0.50372 0.93226 0.34493 0.0
O860 O 0.50503 0.93388 0.30036 0.0
O861 O 0.53671 0.88516 0.26745 0.0
O862 O 0.56204 0.86058 0.29551 0.0
O863 O 0.52522 0.8085 0.30263 0.0
O864 O 0.47237 0.88035 0.3744 0.0
O865 O 0.48069 0.80986 0.30061 0.0
O866 O 0.45851 0.84153 0.35648 0.0
C867 C 0.5507 0.85993 0.37501 0.0
C868 C 0.44683 0.87834 0.27696 0.0
C869 C 0.55899 0.87391 0.27382 0.0
C870 C 0.50448 0.94604 0.32314 0.0
C871 C 0.50288 0.79789 0.29549 0.0
C872 C 0.45804 0.85898 0.37538 0.0
O873 O 0.55036 0.84234 0.35623 0.0
O874 O 0.13228 0.53591 0.3754 0.0
Zn875 Zn 0.12096 0.5043 0.35299 0.0
O876 O 0.14288 0.50457 0.32105 0.0
Zn877 Zn 0.11936 0.5058 0.29046 0.0
Zn878 Zn 0.1672 0.53459 0.32058 0.0
Zn879 Zn 0.16637 0.47392 0.31994 0.0
O880 O 0.12376 0.47139 0.26974 0.0
O881 O 0.14805 0.44623 0.29816 0.0
O882 O 0.07968 0.50501 0.34591 0.0
O883 O 0.07915 0.50847 0.30134 0.0
O884 O 0.1278 0.53887 0.26883 0.0
O885 O 0.14909 0.56336 0.29998 0.0
O886 O 0.20247 0.52632 0.30113 0.0
O887 O 0.13144 0.47207 0.37483 0.0
O888 O 0.20199 0.4817 0.30126 0.0
O889 O 0.17022 0.45819 0.35682 0.0
C890 C 0.15378 0.55009 0.37647 0.0
C891 C 0.1335 0.44875 0.27721 0.0
C892 C 0.13629 0.56142 0.27786 0.0
C893 C 0.06652 0.50742 0.32381 0.0
C894 C 0.21325 0.50387 0.29462 0.0
C895 C 0.15256 0.45734 0.3755 0.0
O896 O 0.17156 0.5491 0.3579 0.0
O897 O 0.47077 0.13159 0.37597 0.0
Zn898 Zn 0.50268 0.12071 0.35397 0.0
O899 O 0.50251 0.14265 0.3221 0.0
Zn900 Zn 0.50295 0.119 0.2916 0.0
Zn901 Zn 0.47273 0.16709 0.32097 0.0
Zn902 Zn 0.53295 0.16635 0.32204 0.0
O903 O 0.53763 0.12501 0.27194 0.0
O904 O 0.56157 0.14646 0.30347 0.0
O905 O 0.50305 0.07952 0.34668 0.0
O906 O 0.5028 0.07859 0.30207 0.0
O907 O 0.46946 0.12571 0.26974 0.0
O908 O 0.44479 0.15018 0.29836 0.0
O909 O 0.48169 0.20286 0.30296 0.0
O910 O 0.53452 0.13157 0.37635 0.0
O911 O 0.52625 0.20137 0.30175 0.0
O912 O 0.54654 0.17149 0.35955 0.0
C913 C 0.45627 0.15288 0.37661 0.0
C914 C 0.56009 0.13245 0.28212 0.0
C915 C 0.44702 0.13595 0.27717 0.0
C916 C 0.50307 0.06608 0.32464 0.0
C917 C 0.50415 0.21316 0.2958 0.0
C918 C 0.5481 0.15342 0.37781 0.0
O919 O 0.45707 0.17049 0.35785 0.0
O920 O 0.63447 0.88338 0.53645 0.0
Zn921 Zn 0.65609 0.89287 0.50413 0.0
O922 O 0.68729 0.86996 0.50517 0.0
Zn923 Zn 0.71828 0.89302 0.50511 0.0
Zn924 Zn 0.68727 0.84519 0.53512 0.0
Zn925 Zn 0.68701 0.84622 0.47476 0.0
O926 O 0.73728 0.8877 0.46978 0.0
O927 O 0.70675 0.86464 0.44589 0.0
O928 O 0.66402 0.93404 0.50381 0.0
O929 O 0.70852 0.93366 0.50694 0.0
O930 O 0.74047 0.88468 0.53812 0.0
O931 O 0.71127 0.86072 0.56263 0.0
O932 O 0.70393 0.80847 0.5263 0.0
O933 O 0.63329 0.88195 0.47252 0.0
O934 O 0.70616 0.81077 0.48183 0.0
O935 O 0.64964 0.84178 0.46085 0.0
C936 C 0.63296 0.86323 0.55237 0.0
C937 C 0.72804 0.87875 0.44743 0.0
C938 C 0.73297 0.87416 0.56043 0.0
C939 C 0.68637 0.94684 0.50571 0.0
C940 C 0.71134 0.79842 0.50379 0.0
C941 C 0.63161 0.86002 0.4591 0.0
O942 O 0.65047 0.84431 0.55207 0.0
O943 O 0.63309 0.13183 0.47351 0.0
Zn944 Zn 0.656 0.12109 0.50506 0.0
O945 O 0.68766 0.1436 0.50468 0.0
Zn946 Zn 0.71848 0.12051 0.50543 0.0
Zn947 Zn 0.68831 0.16735 0.47412 0.0
Zn948 Zn 0.68823 0.16767 0.53496 0.0
O949 O 0.7394 0.12734 0.53929 0.0
O950 O 0.70833 0.14872 0.56361 0.0
O951 O 0.6637 0.0798 0.50511 0.0
O952 O 0.70833 0.08006 0.50594 0.0
O953 O 0.73985 0.12724 0.472 0.0
O954 O 0.71118 0.15052 0.44617 0.0
O955 O 0.70586 0.20354 0.48235 0.0
O956 O 0.63427 0.1317 0.5374 0.0
O957 O 0.70745 0.20324 0.52695 0.0
O958 O 0.6509 0.1717 0.5496 0.0
C959 C 0.63226 0.15283 0.45859 0.0
C960 C 0.72993 0.13508 0.56189 0.0
C961 C 0.73279 0.13709 0.44927 0.0
C962 C 0.68609 0.06695 0.50578 0.0
C963 C 0.71301 0.21457 0.50448 0.0
C964 C 0.63291 0.15335 0.55131 0.0
O965 O 0.65123 0.17023 0.45867 0.0
O966 O 0.87982 0.63751 0.47218 0.0
Zn967 Zn 0.88982 0.65973 0.50405 0.0
O968 O 0.86773 0.69159 0.50358 0.0
Zn969 Zn 0.89186 0.72198 0.50381 0.0
Zn970 Zn 0.84362 0.69189 0.47322 0.0
Zn971 Zn 0.84329 0.6919 0.5336 0.0
O972 O 0.88546 0.74243 0.53829 0.0
O973 O 0.86124 0.71276 0.56208 0.0
O974 O 0.931 0.66662 0.50473 0.0
O975 O 0.93246 0.71117 0.50396 0.0
O976 O 0.88577 0.74299 0.46952 0.0
O977 O 0.8611 0.71398 0.44537 0.0
O978 O 0.80736 0.70967 0.48104 0.0
O979 O 0.87824 0.63679 0.53501 0.0
O980 O 0.80759 0.71063 0.5256 0.0
O981 O 0.83891 0.6544 0.54793 0.0
C982 C 0.85861 0.63615 0.45767 0.0
C983 C 0.87575 0.73382 0.56057 0.0
C984 C 0.87573 0.73495 0.44716 0.0
C985 C 0.94474 0.68846 0.50443 0.0
C986 C 0.79623 0.71641 0.50323 0.0
C987 C 0.85632 0.63546 0.5484 0.0
O988 O 0.84073 0.65467 0.4578 0.0
O989 O 0.37686 0.87926 0.47397 0.0
Zn990 Zn 0.35451 0.89012 0.5058 0.0
O991 O 0.32231 0.86844 0.50528 0.0
Zn992 Zn 0.29211 0.89255 0.50458 0.0
Zn993 Zn 0.32204 0.84412 0.4751 0.0
Zn994 Zn 0.32074 0.84447 0.53559 0.0
O995 O 0.26995 0.88623 0.53788 0.0
O996 O 0.29871 0.86249 0.56314 0.0
O997 O 0.34771 0.93149 0.5061 0.0
O998 O 0.30313 0.93291 0.50527 0.0
O999 O 0.27236 0.8865 0.46981 0.0
O1000 O 0.30153 0.86179 0.44598 0.0
O1001 O 0.30305 0.80842 0.48285 0.0
O1002 O 0.37626 0.87886 0.53794 0.0
O1003 O 0.30239 0.80873 0.52743 0.0
O1004 O 0.35736 0.84043 0.55168 0.0
C1005 C 0.37791 0.85774 0.45983 0.0
C1006 C 0.2776 0.87677 0.5606 0.0
C1007 C 0.28054 0.87634 0.44761 0.0
C1008 C 0.32582 0.94519 0.50587 0.0
C1009 C 0.29635 0.79741 0.50513 0.0
C1010 C 0.3764 0.8577 0.55264 0.0
O1011 O 0.35936 0.83994 0.46088 0.0
O1012 O 0.12978 0.37478 0.47242 0.0
Zn1013 Zn 0.11874 0.35383 0.50506 0.0
O1014 O 0.14038 0.32152 0.50589 0.0
Zn1015 Zn 0.116 0.29142 0.50606 0.0
Zn1016 Zn 0.16456 0.3195 0.47564 0.0
Zn1017 Zn 0.16443 0.32166 0.53652 0.0
O1018 O 0.12132 0.27174 0.54106 0.0
O1019 O 0.14696 0.30009 0.56504 0.0
O1020 O 0.07724 0.34755 0.50548 0.0
O1021 O 0.07573 0.30291 0.50384 0.0
O1022 O 0.12309 0.26851 0.47342 0.0
O1023 O 0.14701 0.29684 0.44795 0.0
O1024 O 0.20042 0.30131 0.48455 0.0
O1025 O 0.13016 0.37726 0.53584 0.0
O1026 O 0.20038 0.30318 0.52909 0.0
O1027 O 0.16844 0.35927 0.55103 0.0
C1028 C 0.15106 0.37494 0.45791 0.0
C1029 C 0.13221 0.2792 0.56321 0.0
C1030 C 0.13308 0.27551 0.45075 0.0
C1031 C 0.06357 0.32568 0.50422 0.0
C1032 C 0.21159 0.29592 0.50712 0.0
C1033 C 0.15129 0.37844 0.55056 0.0
O1034 O 0.1685 0.35607 0.45921 0.0
O1035 O 0.37727 0.13118 0.53782 0.0
Zn1036 Zn 0.35401 0.1204 0.50685 0.0
O1037 O 0.32206 0.14226 0.50821 0.0
Zn1038 Zn 0.29185 0.11816 0.50874 0.0
Zn1039 Zn 0.32214 0.16658 0.53842 0.0
Zn1040 Zn 0.32071 0.16642 0.478 0.0
O1041 O 0.2705 0.12458 0.47497 0.0
O1042 O 0.29931 0.14852 0.44991 0.0
O1043 O 0.34728 0.07915 0.50688 0.0
O1044 O 0.30273 0.07764 0.5084 0.0
O1045 O 0.27141 0.12466 0.54311 0.0
O1046 O 0.30065 0.14933 0.56699 0.0
O1047 O 0.30357 0.20257 0.53061 0.0
O1048 O 0.37512 0.13141 0.47437 0.0
O1049 O 0.30171 0.20184 0.48608 0.0
O1050 O 0.3574 0.17097 0.46239 0.0
C1051 C 0.3786 0.15226 0.55252 0.0
C1052 C 0.27817 0.1343 0.45237 0.0
C1053 C 0.27946 0.13501 0.5653 0.0
C1054 C 0.32544 0.06539 0.50757 0.0
C1055 C 0.29611 0.2133 0.50841 0.0
C1056 C 0.37578 0.1531 0.4605 0.0
O1057 O 0.35972 0.16978 0.55298 0.0
O1058 O 0.8775 0.3775 0.54017 0.0
Zn1059 Zn 0.88909 0.35653 0.50746 0.0
O1060 O 0.86722 0.32436 0.50557 0.0
Zn1061 Zn 0.89113 0.29394 0.50528 0.0
Zn1062 Zn 0.84262 0.32288 0.53556 0.0
Zn1063 Zn 0.84396 0.32357 0.47451 0.0
O1064 O 0.88322 0.27109 0.47287 0.0
O1065 O 0.86207 0.30113 0.4469 0.0
O1066 O 0.93065 0.34954 0.50746 0.0
O1067 O 0.93119 0.30511 0.5026 0.0
O1068 O 0.88707 0.27426 0.54034 0.0
O1069 O 0.86012 0.30149 0.56395 0.0
O1070 O 0.80733 0.30415 0.52666 0.0
O1071 O 0.87845 0.37974 0.47605 0.0
O1072 O 0.80761 0.30539 0.48205 0.0
O1073 O 0.84132 0.36078 0.45888 0.0
C1074 C 0.85579 0.37779 0.55407 0.0
C1075 C 0.87469 0.27901 0.4499 0.0
C1076 C 0.87598 0.28147 0.5624 0.0
C1077 C 0.94383 0.32753 0.50443 0.0
C1078 C 0.79633 0.29837 0.50411 0.0
C1079 C 0.85821 0.38021 0.46007 0.0
O1080 O 0.83797 0.35937 0.55183 0.0
O1081 O 0.12955 0.63454 0.53425 0.0
Zn1082 Zn 0.1194 0.65751 0.50272 0.0
O1083 O 0.14183 0.68907 0.50344 0.0
Zn1084 Zn 0.1184 0.71993 0.50365 0.0
Zn1085 Zn 0.16602 0.68843 0.53376 0.0
Zn1086 Zn 0.16599 0.68982 0.4733 0.0
O1087 O 0.12407 0.74048 0.46908 0.0
O1088 O 0.14823 0.71115 0.44494 0.0
O1089 O 0.07831 0.66525 0.50278 0.0
O1090 O 0.07766 0.70982 0.50458 0.0
O1091 O 0.12636 0.74097 0.53738 0.0
O1092 O 0.14901 0.71061 0.56187 0.0
O1093 O 0.20223 0.70626 0.52606 0.0
O1094 O 0.13027 0.63543 0.47078 0.0
O1095 O 0.20168 0.7084 0.48153 0.0
O1096 O 0.16995 0.65262 0.45843 0.0
C1097 C 0.15066 0.6326 0.54887 0.0
C1098 C 0.13375 0.7322 0.44668 0.0
C1099 C 0.136 0.7326 0.55979 0.0
C1100 C 0.06498 0.68733 0.50384 0.0
C1101 C 0.21315 0.71365 0.50398 0.0
C1102 C 0.15204 0.63418 0.45708 0.0
O1103 O 0.16881 0.65089 0.5488 0.0
C1104 C 0.01227 0.20531 0.52024 0.0
C1105 C 0.00429 0.18281 0.5358 0.0
C1106 C 0.01256 0.2046 0.49172 0.0
C1107 C 0.00447 0.18156 0.47698 0.0
H1108 H 0.01867 0.22372 0.53015 0.0
H1109 H 0.01955 0.22232 0.48113 0.0
S1110 S 0.98162 0.11696 0.50762 0.0
N1111 N 0.98828 0.13641 0.53388 0.0
N1112 N 0.98834 0.13535 0.48064 0.0
C1113 C -0.00339 0.15879 0.49224 0.0
C1114 C -0.00342 0.15938 0.52139 0.0
C1115 C 0.81853 0.98371 0.51653 0.0
C1116 C 0.83322 0.00211 0.53259 0.0
C1117 C 0.82048 0.98372 0.48802 0.0
C1118 C 0.83677 0.00254 0.47409 0.0
H1119 H 0.80548 0.969 0.5261 0.0
H1120 H 0.80864 0.96916 0.47678 0.0
S1121 S 0.87948 0.05504 0.50655 0.0
N1122 N 0.86505 0.03939 0.53221 0.0
N1123 N 0.8681 0.04 0.47903 0.0
C1124 C 0.85155 0.02106 0.48995 0.0
C1125 C 0.84999 0.02064 0.51899 0.0
C1126 C 0.00564 0.80069 0.51631 0.0
C1127 C 0.00599 0.82483 0.53155 0.0
C1128 C 0.00541 0.80077 0.48772 0.0
C1129 C 0.00551 0.825 0.47259 0.0
H1130 H 0.00554 0.78136 0.52654 0.0
H1131 H 0.00514 0.78149 0.47742 0.0
S1132 S 0.00646 0.89402 0.50222 0.0
N1133 N 0.00646 0.87387 0.52876 0.0
N1134 N 0.00604 0.87401 0.47559 0.0
C1135 C 0.00587 0.84931 0.48754 0.0
C1136 C 0.00611 0.84923 0.5167 0.0
C1137 C 0.19592 0.02438 0.51855 0.0
C1138 C 0.17921 0.00776 0.53459 0.0
C1139 C 0.19382 0.0247 0.49003 0.0
C1140 C 0.17558 0.00773 0.47612 0.0
H1141 H 0.2105 0.03757 0.52815 0.0
H1142 H 0.20703 0.03797 0.47873 0.0
S1143 S 0.12776 0.95986 0.50838 0.0
N1144 N 0.14368 0.97395 0.5341 0.0
N1145 N 0.14067 0.97364 0.4809 0.0
C1146 C 0.15907 0.99077 0.49191 0.0
C1147 C 0.16063 0.99103 0.52093 0.0
C1148 C 0.51613 0.99392 0.15948 0.0
C1149 C 0.53208 0.01119 0.17566 0.0
C1150 C 0.48758 0.99385 0.16101 0.0
C1151 C 0.47349 0.01044 0.1794 0.0
H1152 H 0.52579 0.98041 0.14528 0.0
H1153 H 0.47645 0.98024 0.14799 0.0
S1154 S 0.50529 0.05952 0.22644 0.0
N1155 N 0.53113 0.04578 0.21049 0.0
N1156 N 0.47799 0.04489 0.21401 0.0
C1157 C 0.48916 0.02769 0.19582 0.0
C1158 C 0.51819 0.02828 0.19377 0.0
C1159 C 0.01511 0.5178 0.16384 0.0
C1160 C -0.00018 0.53319 0.18233 0.0
C1161 C 0.01497 0.48919 0.16432 0.0
C1162 C -0.00035 0.47455 0.1834 0.0
H1163 H 0.02781 0.52794 0.14922 0.0
H1164 H 0.0275 0.47846 0.14999 0.0
S1165 S 0.95217 0.50477 0.23283 0.0
N1166 N 0.96608 0.53113 0.21786 0.0
N1167 N 0.96637 0.47789 0.21917 0.0
C1168 C 0.98346 0.48967 0.20125 0.0
C1169 C 0.9834 0.51874 0.2006 0.0
C1170 C 0.51963 0.00364 0.79948 0.0
C1171 C 0.5349 0.00388 0.82363 0.0
C1172 C 0.49103 0.00362 0.79957 0.0
C1173 C 0.47597 0.00385 0.82381 0.0
H1174 H 0.52982 0.00347 0.78014 0.0
H1175 H 0.48068 0.00346 0.78029 0.0
S1176 S 0.50573 0.00448 0.89285 0.0
N1177 N 0.53222 0.00431 0.87267 0.0
N1178 N 0.47906 0.00428 0.87283 0.0
C1179 C 0.49097 0.00407 0.84813 0.0
C1180 C 0.52011 0.00409 0.84804 0.0
C1181 C 0.00631 0.52075 0.79979 0.0
C1182 C 0.00516 0.53611 0.8238 0.0
C1183 C 0.007 0.49221 0.80013 0.0
C1184 C 0.00658 0.47734 0.8245 0.0
H1185 H 0.00673 0.53083 0.78038 0.0
H1186 H 0.00787 0.48173 0.78096 0.0
S1187 S 0.00357 0.50743 0.89325 0.0
N1188 N 0.00358 0.53378 0.87286 0.0
N1189 N 0.00487 0.48066 0.87347 0.0
C1190 C 0.00537 0.49242 0.84868 0.0
C1191 C 0.00467 0.52151 0.84834 0.0
C1192 C 0.2087 0.51852 0.00315 0.0
C1193 C 0.18445 0.53353 0.00441 0.0
C1194 C 0.20895 0.48998 0.00438 0.0
C1195 C 0.18495 0.47475 0.0069 0.0
H1196 H 0.22782 0.52887 0.00096 0.0
H1197 H 0.22826 0.47981 0.00315 0.0
S1198 S 0.11583 0.50384 0.01166 0.0
N1199 N 0.13564 0.53048 0.0088 0.0
N1200 N 0.13607 0.47738 0.01103 0.0
C1201 C 0.16055 0.4895 0.00839 0.0
C1202 C 0.1603 0.51858 0.00716 0.0
C1203 C 0.52004 0.21013 0.00313 0.0
C1204 C 0.53488 0.18575 0.00291 0.0
C1205 C 0.49147 0.21049 0.00329 0.0
C1206 C 0.47603 0.18648 0.00326 0.0
H1207 H 0.53054 0.22931 0.00316 0.0
H1208 H 0.48145 0.22992 0.00343 0.0
S1209 S 0.5046 0.11699 0.00282 0.0
N1210 N 0.53143 0.13677 0.00274 0.0
N1211 N 0.47828 0.13741 0.00305 0.0
C1212 C 0.4906 0.16193 0.00307 0.0
C1213 C 0.51972 0.16157 0.0029 0.0
C1214 C 0.80153 0.52096 0.00581 0.0
C1215 C 0.82555 0.53635 0.00561 0.0
C1216 C 0.80184 0.4924 0.00566 0.0
C1217 C 0.82618 0.47747 0.00533 0.0
H1218 H 0.78212 0.53102 0.00607 0.0
H1219 H 0.78263 0.48195 0.00578 0.0
S1220 S 0.89497 0.50759 0.00458 0.0
N1221 N 0.87462 0.53398 0.00498 0.0
N1222 N 0.87515 0.4808 0.00471 0.0
C1223 C 0.85038 0.49258 0.0051 0.0
C1224 C 0.85008 0.52172 0.00524 0.0
C1225 C 0.51875 0.8043 0.01294 0.0
C1226 C 0.5339 0.82789 0.0078 0.0
C1227 C 0.49023 0.80437 0.01297 0.0
C1228 C 0.47508 0.82792 0.0076 0.0
H1229 H 0.52897 0.78543 0.01716 0.0
H1230 H 0.47998 0.78568 0.0175 0.0
S1231 S 0.50454 0.89539 0.99286 0.0
N1232 N 0.53114 0.8758 -0.00264 0.0
N1233 N 0.47791 0.8758 -0.00288 0.0
C1234 C 0.48993 0.85176 0.00262 0.0
C1235 C 0.51908 0.85176 0.00274 0.0
C1236 C 0.51461 0.66392 0.99105 0.0
C1237 C 0.50043 0.6833 0.97565 0.0
C1238 C 0.51424 0.6642 0.01968 0.0
C1239 C 0.49969 0.68387 0.0343 0.0
H1240 H 0.52657 0.64868 0.98092 0.0
H1241 H 0.52592 0.64916 0.03044 0.0
S1242 S 0.45494 0.73576 0.00378 0.0
N1243 N 0.46874 0.72062 0.97751 0.0
N1244 N 0.46804 0.72115 0.03077 0.0
C1245 C 0.48456 0.70264 0.0191 0.0
C1246 C 0.48493 0.70235 0.99003 0.0
C1247 C 0.34354 0.51541 0.99031 0.0
C1248 C 0.32854 0.49717 0.97438 0.0
C1249 C 0.34375 0.51379 0.01883 0.0
C1250 C 0.32824 0.49442 0.03284 0.0
H1251 H 0.35552 0.53094 0.98065 0.0
H1252 H 0.35564 0.52835 0.03002 0.0
S1253 S 0.28475 0.44231 0.00081 0.0
N1254 N 0.29778 0.45895 0.975 0.0
N1255 N 0.29717 0.4567 0.02824 0.0
C1256 C 0.31288 0.47626 0.01714 0.0
C1257 C 0.3133 0.47741 0.9881 0.0
C1258 C 0.50317 0.30259 0.98852 0.0
C1259 C 0.50333 0.32702 0.97374 0.0
C1260 C 0.50381 0.30211 0.01708 0.0
C1261 C 0.50467 0.32604 0.03261 0.0
H1262 H 0.50261 0.28345 0.97796 0.0
H1263 H 0.50369 0.28264 0.02703 0.0
S1264 S 0.50519 0.39563 0.00426 0.0
N1265 N 0.50425 0.37598 0.97737 0.0
N1266 N 0.50545 0.3751 0.03052 0.0
C1267 C 0.50475 0.35065 0.01812 0.0
C1268 C 0.50408 0.35113 0.98899 0.0
C1269 C 0.69182 0.52822 0.99132 0.0
C1270 C 0.67695 0.50837 0.97726 0.0
C1271 C 0.69388 0.52804 0.01985 0.0
C1272 C 0.68032 0.5086 0.03566 0.0
H1273 H 0.70248 0.54371 0.98015 0.0
H1274 H 0.70587 0.54351 0.02962 0.0
S1275 S 0.63838 0.45248 0.00895 0.0
N1276 N 0.64873 0.46853 0.9816 0.0
N1277 N 0.65139 0.46903 0.03484 0.0
C1278 C 0.66505 0.48894 0.02185 0.0
C1279 C 0.6637 0.4886 0.99283 0.0
C1280 C 0.98919 0.52765 0.69571 0.0
C1281 C 0.97314 0.51039 0.67966 0.0
C1282 C 0.01774 0.52716 0.69442 0.0
C1283 C 0.03166 0.50877 0.67768 0.0
H1284 H 0.97961 0.54197 0.70917 0.0
H1285 H 0.02901 0.54101 0.70706 0.0
S1286 S -0.00068 0.45876 0.63208 0.0
N1287 N 0.9736 0.4744 0.64638 0.0
N1288 N 0.02684 0.47269 0.64483 0.0
C1289 C 0.01584 0.49117 0.66182 0.0
C1290 C 0.98679 0.4922 0.66256 0.0
C1291 C 0.50416 0.99036 0.713 0.0
C1292 C 0.50389 0.97507 0.6889 0.0
C1293 C 0.50461 0.01896 0.7128 0.0
C1294 C 0.50487 0.03396 0.68849 0.0
H1295 H 0.50402 0.98019 0.73236 0.0
H1296 H 0.50479 0.02936 0.73203 0.0
S1297 S 0.50452 0.00408 0.61955 0.0
N1298 N 0.50403 0.97765 0.63984 0.0
N1299 N 0.50489 0.03077 0.63948 0.0
C1300 C 0.50463 0.01892 0.66423 0.0
C1301 C 0.50414 0.98981 0.66443 0.0
C1302 C 0.9922 0.4973 0.34485 0.0
C1303 C 0.97738 0.51006 0.32405 0.0
C1304 C 0.0208 0.49679 0.34488 0.0
C1305 C 0.03605 0.50894 0.32407 0.0
H1306 H 0.9816 0.48715 0.36105 0.0
H1307 H 0.03104 0.4863 0.36113 0.0
S1308 S 0.00752 0.54885 0.26735 0.0
N1309 N 0.98067 0.53786 0.28376 0.0
N1310 N 0.03387 0.5365 0.28359 0.0
C1311 C 0.0215 0.52255 0.3037 0.0
C1312 C 0.99244 0.5232 0.30375 0.0
C1313 C 0.50361 0.02064 0.30061 0.0
C1314 C 0.50356 0.03547 0.325 0.0
C1315 C 0.50402 0.99209 0.30022 0.0
C1316 C 0.50441 0.97665 0.32421 0.0
H1317 H 0.50327 0.03114 0.28146 0.0
H1318 H 0.50393 0.98208 0.28078 0.0
S1319 S 0.50494 0.00519 0.39373 0.0
N1320 N 0.50428 0.03202 0.37398 0.0
N1321 N 0.50503 0.97887 0.37329 0.0
C1322 C 0.50451 0.9912 0.34878 0.0
C1323 C 0.50411 0.02031 0.34917 0.0
C1324 C 0.66317 0.99254 0.50019 0.0
C1325 C 0.68665 0.97748 0.5063 0.0
C1326 C 0.66306 0.02115 0.50022 0.0
C1327 C 0.68644 0.03634 0.50634 0.0
H1328 H 0.64461 0.98216 0.49506 0.0
H1329 H 0.64445 0.03144 0.49511 0.0
S1330 S 0.75283 0.00719 0.52592 0.0
N1331 N 0.73373 0.98053 0.52005 0.0
N1332 N 0.73349 0.03368 0.52015 0.0
C1333 C 0.70993 0.02155 0.51297 0.0
C1334 C 0.71005 0.99244 0.51294 0.0
C1335 C 0.01938 0.71133 0.504 0.0
C1336 C 0.03431 0.68699 0.50414 0.0
C1337 C 0.99079 0.71161 0.50413 0.0
C1338 C 0.9754 0.68756 0.50446 0.0
H1339 H 0.02985 0.73053 0.5037 0.0
H1340 H 0.9807 0.731 0.50394 0.0
S1341 S 0.00418 0.61816 0.50524 0.0
N1342 N 0.03095 0.638 0.50482 0.0
N1343 N 0.97781 0.63851 0.5051 0.0
C1344 C 0.99005 0.66306 0.5047 0.0
C1345 C 0.01918 0.66278 0.50453 0.0
C1346 C 0.30227 0.99093 0.50662 0.0
C1347 C 0.3265 0.97585 0.50633 0.0
C1348 C 0.30216 0.01949 0.50707 0.0
C1349 C 0.32629 0.03474 0.50723 0.0
H1350 H 0.28299 0.9806 0.50651 0.0
H1351 H 0.28282 0.02968 0.50725 0.0
S1352 S 0.39552 0.00555 0.5067 0.0
N1353 N 0.37552 0.97889 0.50632 0.0
N1354 N 0.37534 0.03206 0.50713 0.0
C1355 C 0.35071 0.01995 0.50697 0.0
C1356 C 0.35082 0.99081 0.50653 0.0
C1357 C 0.01841 0.34696 0.51679 0.0
C1358 C 0.03306 0.3266 0.50322 0.0
C1359 C 0.98977 0.34747 0.51682 0.0
C1360 C 0.97435 0.32768 0.50322 0.0
H1361 H 0.02915 0.36239 0.52797 0.0
H1362 H 0.97964 0.36324 0.52806 0.0
S1363 S 0.00263 0.27307 0.46037 0.0
N1364 N 0.02958 0.28801 0.47318 0.0
N1365 N 0.97634 0.28905 0.47312 0.0
C1366 C 0.9888 0.30791 0.48868 0.0
C1367 C 0.01788 0.30734 0.48871 0.0
C1368 C 0.97979 0.24371 0.26621 0.0
C1369 C 0.00399 0.23165 0.27518 0.0
C1370 C 0.97966 0.26361 0.24595 0.0
C1371 C 0.00374 0.27248 0.23365 0.0
H1372 H 0.96074 0.23855 0.27561 0.0
H1373 H 0.96055 0.27289 0.24075 0.0
S1374 S 0.07228 0.24493 0.24708 0.0
N1375 N 0.05249 0.2283 0.26809 0.0
N1376 N 0.05227 0.26555 0.23018 0.0
C1377 C 0.02792 0.25946 0.24127 0.0
C1378 C 0.02805 0.23916 0.26193 0.0
C1379 C 0.74774 0.02649 0.27934 0.0
C1380 C 0.77149 0.011 0.27712 0.0
C1381 C 0.72771 0.026 0.2594 0.0
C1382 C 0.7303 0.01013 0.236 0.0
H1383 H 0.74399 0.03842 0.29728 0.0
H1384 H 0.7094 0.03745 0.2629 0.0
S1385 S 0.78945 0.96765 0.21874 0.0
N1386 N 0.79734 0.98071 0.24846 0.0
N1387 N 0.75945 0.97993 0.21069 0.0
C1388 C 0.75464 0.99587 0.23244 0.0
C1389 C 0.77528 0.99629 0.25304 0.0
C1390 C 0.0295 0.7653 0.26137 0.0
C1391 C 0.00524 0.77734 0.27011 0.0
C1392 C 0.0297 0.74516 0.24137 0.0
C1393 C 0.00566 0.73605 0.2291 0.0
H1394 H 0.0485 0.77059 0.27084 0.0
H1395 H 0.04885 0.73588 0.23638 0.0
S1396 S 0.93704 0.76363 0.24182 0.0
N1397 N 0.95675 0.78055 0.26272 0.0
N1398 N 0.95713 0.74286 0.22528 0.0
C1399 C 0.98144 0.74913 0.2364 0.0
C1400 C 0.98123 0.76967 0.25681 0.0
C1401 C 0.25529 0.99018 0.23751 0.0
C1402 C 0.27296 0.01226 0.2337 0.0
C1403 C 0.23602 0.98997 0.25852 0.0
C1404 C 0.23403 0.01163 0.27679 0.0
H1405 H 0.25696 0.97253 0.22472 0.0
H1406 H 0.22373 0.97212 0.26143 0.0
S1407 S 0.27447 0.07459 0.27552 0.0
N1408 N 0.28591 0.05694 0.24968 0.0
N1409 N 0.25048 0.05599 0.28926 0.0
C1410 C 0.25082 0.03411 0.2727 0.0
C1411 C 0.27002 0.0346 0.25113 0.0
C1412 C 0.98281 0.74895 0.76621 0.0
C1413 C 0.00695 0.73905 0.77766 0.0
C1414 C 0.98301 0.76859 0.74573 0.0
C1415 C 0.00736 0.77935 0.73568 0.0
H1416 H 0.9635 0.74062 0.77219 0.0
H1417 H 0.96387 0.77447 0.73693 0.0
S1418 S 0.07607 0.76334 0.76145 0.0
N1419 N 0.05583 0.74382 0.77932 0.0
N1420 N 0.05622 0.78065 0.741 0.0
C1421 C 0.03157 0.771 0.74821 0.0
C1422 C 0.03136 0.75094 0.7691 0.0
C1423 C 0.26404 0.98043 0.7651 0.0
C1424 C 0.27238 0.00436 0.77807 0.0
C1425 C 0.24389 0.98061 0.74505 0.0
C1426 C 0.23108 0.00474 0.73699 0.0
H1427 H 0.27398 0.96146 0.76953 0.0
H1428 H 0.23923 0.96177 0.73499 0.0
S1429 S 0.24253 0.07239 0.76742 0.0
N1430 N 0.26397 0.05247 0.78337 0.0
N1431 N 0.22627 0.05282 0.74587 0.0
C1432 C 0.23797 0.02854 0.75104 0.0
C1433 C 0.25852 0.02835 0.77147 0.0
C1434 C 0.02772 0.26487 0.76823 0.0
C1435 C 0.00357 0.27481 0.77949 0.0
C1436 C 0.02752 0.24466 0.7483 0.0
C1437 C 0.00317 0.23339 0.73873 0.0
H1438 H 0.04695 0.27367 0.77382 0.0
H1439 H 0.04663 0.23878 0.73948 0.0
S1440 S 0.93459 0.24916 0.76476 0.0
N1441 N 0.95479 0.26946 0.78182 0.0
N1442 N 0.9544 0.23157 0.74458 0.0
C1443 C 0.97901 0.24178 0.75122 0.0
C1444 C 0.97921 0.26243 0.77148 0.0
C1445 C 0.7672 0.02615 0.74481 0.0
C1446 C 0.7785 0.00189 0.73509 0.0
C1447 C 0.74743 0.02627 0.76516 0.0
C1448 C 0.73791 0.00212 0.77685 0.0
H1449 H 0.77284 0.04532 0.73592 0.0
H1450 H 0.73876 0.04549 0.77092 0.0
S1451 S 0.76328 0.93322 0.76128 0.0
N1452 N 0.78041 0.95313 0.74077 0.0
N1453 N 0.74341 0.95333 0.77888 0.0
C1454 C 0.75021 0.97781 0.76852 0.0
C1455 C 0.7704 0.9777 0.74775 0.0
C1456 C 0.26223 0.24225 0.02849 0.0
C1457 C 0.27156 0.2312 0.00399 0.0
C1458 C 0.24164 0.26176 0.02907 0.0
C1459 C 0.22935 0.27119 0.00517 0.0
H1460 H 0.27173 0.23679 0.04743 0.0
H1461 H 0.2363 0.27043 0.04841 0.0
S1462 S 0.24323 0.24569 0.93597 0.0
N1463 N 0.26451 0.22892 0.95539 0.0
N1464 N 0.22595 0.26545 0.95646 0.0
C1465 C 0.2371 0.25889 0.98068 0.0
C1466 C 0.25812 0.23899 0.9801 0.0
C1467 C 0.26297 0.76555 0.02479 0.0
C1468 C 0.27305 0.77692 0.00072 0.0
C1469 C 0.2432 0.74518 0.0245 0.0
C1470 C 0.2324 0.73514 0.00012 0.0
H1471 H 0.27114 0.77163 0.04415 0.0
H1472 H 0.23705 0.7366 0.04364 0.0
S1473 S 0.2495 0.76012 0.93142 0.0
N1474 N 0.26886 0.77809 0.95176 0.0
N1475 N 0.23181 0.73998 0.9512 0.0
C1476 C 0.24115 0.7474 0.97592 0.0
C1477 C 0.26139 0.76817 0.97623 0.0
C1478 C 0.76366 0.2673 0.97751 0.0
C1479 C 0.77668 0.27528 0.00156 0.0
C1480 C 0.74407 0.24672 0.97732 0.0
C1481 C 0.73652 0.23309 0.00116 0.0
H1482 H 0.76779 0.27774 0.95875 0.0
H1483 H 0.73398 0.2423 0.95841 0.0
S1484 S 0.76712 0.24358 0.06893 0.0
N1485 N 0.78245 0.26584 0.04945 0.0
N1486 N 0.7458 0.22736 0.04908 0.0
C1487 C 0.75053 0.23976 0.02506 0.0
C1488 C 0.7705 0.26074 0.02526 0.0
C1489 C 0.76583 0.74753 0.0323 0.0
C1490 C 0.77945 0.74008 0.00846 0.0
C1491 C 0.74519 0.76703 0.0321 0.0
C1492 C 0.73714 0.78001 0.00804 0.0
H1493 H 0.77017 0.73729 0.05113 0.0
H1494 H 0.73464 0.77098 0.05082 0.0
S1495 S 0.76921 0.7711 0.94084 0.0
N1496 N 0.78544 0.74975 0.96064 0.0
N1497 N 0.74677 0.78619 0.96028 0.0
C1498 C 0.75184 0.77412 0.98441 0.0
C1499 C 0.77291 0.75428 0.98462 0.0
C1500 C 0.53005 0.74275 0.76509 0.0
C1501 C 0.50609 0.72957 0.77301 0.0
C1502 C 0.53003 0.76276 0.74491 0.0
C1503 C 0.50603 0.77057 0.7317 0.0
H1504 H 0.54888 0.73855 0.77541 0.0
H1505 H 0.54882 0.7731 0.74065 0.0
S1506 S 0.43853 0.73936 0.74169 0.0
N1507 N 0.4582 0.72367 0.76356 0.0
N1508 N 0.45817 0.76113 0.72586 0.0
C1509 C 0.48227 0.75626 0.73809 0.0
C1510 C 0.4823 0.73585 0.75863 0.0
C1511 C 0.23579 0.47796 0.74984 0.0
C1512 C 0.23422 0.49942 0.7313 0.0
C1513 C 0.25577 0.47714 0.76986 0.0
C1514 C 0.27515 0.49777 0.77239 0.0
H1515 H 0.22031 0.46249 0.74998 0.0
H1516 H 0.25494 0.46103 0.78466 0.0
S1517 S 0.28151 0.55729 0.72742 0.0
N1518 N 0.25507 0.54081 0.71535 0.0
N1519 N 0.29283 0.5393 0.75318 0.0
C1520 C 0.27519 0.51832 0.75272 0.0
C1521 C 0.25466 0.51915 0.73214 0.0
C1522 C 0.52818 0.24786 0.7435 0.0
C1523 C 0.50414 0.23799 0.73187 0.0
C1524 C 0.52789 0.26848 0.76299 0.0
C1525 C 0.50353 0.28027 0.77183 0.0
H1526 H 0.54743 0.23883 0.73844 0.0
H1527 H 0.54693 0.27435 0.77202 0.0
S1528 S 0.4352 0.26459 0.74494 0.0
N1529 N 0.45544 0.24379 0.7286 0.0
N1530 N 0.45489 0.28239 0.76511 0.0
C1531 C 0.47948 0.27185 0.75907 0.0
C1532 C 0.47979 0.25081 0.73919 0.0
C1533 C 0.74934 0.53631 0.77082 0.0
C1534 C 0.73309 0.51374 0.77663 0.0
C1535 C 0.76846 0.53581 0.74988 0.0
C1536 C 0.7728 0.51238 0.73432 0.0
H1537 H 0.74797 0.55424 0.78328 0.0
H1538 H 0.78104 0.55346 0.74699 0.0
S1539 S 0.73431 0.44829 0.74045 0.0
N1540 N 0.72133 0.46788 0.76411 0.0
N1541 N 0.7578 0.46647 0.72527 0.0
C1542 C 0.75588 0.48998 0.73925 0.0
C1543 C 0.73592 0.49078 0.76023 0.0
C1544 C 0.52885 0.24546 0.26529 0.0
C1545 C 0.50452 0.23729 0.27756 0.0
C1546 C 0.52931 0.2652 0.2449 0.0
C1547 C 0.50544 0.27776 0.23576 0.0
H1548 H 0.54771 0.23574 0.27061 0.0
H1549 H 0.54849 0.26976 0.23548 0.0
S1550 S 0.43676 0.26654 0.26381 0.0
N1551 N 0.45618 0.24553 0.28091 0.0
N1552 N 0.45703 0.28248 0.24272 0.0
C1553 C 0.48117 0.27103 0.24903 0.0
C1554 C 0.48071 0.2509 0.26984 0.0
C1555 C 0.74452 0.48369 0.24689 0.0
C1556 C 0.73238 0.50782 0.23785 0.0
C1557 C 0.76471 0.48373 0.26689 0.0
C1558 C 0.77382 0.5079 0.27886 0.0
H1559 H 0.73926 0.46458 0.23767 0.0
H1560 H 0.77406 0.46465 0.27208 0.0
S1561 S 0.74611 0.57633 0.26529 0.0
N1562 N 0.72915 0.55638 0.24466 0.0
N1563 N 0.76694 0.55644 0.28208 0.0
C1564 C 0.76066 0.53201 0.27128 0.0
C1565 C 0.74004 0.53197 0.25089 0.0
C1566 C 0.47849 0.74411 0.24592 0.0
C1567 C 0.50254 0.73165 0.2372 0.0
C1568 C 0.47863 0.76437 0.26582 0.0
C1569 C 0.50282 0.77317 0.27802 0.0
H1570 H 0.4594 0.73912 0.23646 0.0
H1571 H 0.45964 0.774 0.27075 0.0
S1572 S 0.57096 0.74435 0.26544 0.0
N1573 N 0.55096 0.72766 0.24462 0.0
N1574 N 0.55123 0.76554 0.28188 0.0
C1575 C 0.52681 0.75961 0.27081 0.0
C1576 C 0.52667 0.73897 0.25049 0.0
C1577 C 0.26447 0.52704 0.24203 0.0
C1578 C 0.27714 0.50289 0.23386 0.0
C1579 C 0.24502 0.52738 0.26267 0.0
C1580 C 0.23716 0.50357 0.27614 0.0
H1581 H 0.26885 0.54584 0.23177 0.0
H1582 H 0.23524 0.54639 0.26724 0.0
S1583 S 0.26649 0.43541 0.26501 0.0
N1584 N 0.2821 0.45482 0.24288 0.0
N1585 N 0.24563 0.45547 0.28148 0.0
C1586 C 0.25077 0.47951 0.26928 0.0
C1587 C 0.27068 0.47917 0.24827 0.0
C1588 C 0.7414 0.76487 0.52753 0.0
C1589 C 0.72941 0.77413 0.50341 0.0
C1590 C 0.76192 0.74523 0.52736 0.0
C1591 C 0.77146 0.73384 0.50308 0.0
H1592 H 0.73583 0.77372 0.54672 0.0
H1593 H 0.77113 0.73983 0.54646 0.0
S1594 S 0.74413 0.74811 0.43459 0.0
N1595 N 0.7267 0.7681 0.45472 0.0
N1596 N 0.76507 0.73136 0.4544 0.0
C1597 C 0.75842 0.74162 0.47895 0.0
C1598 C 0.73751 0.76166 0.47912 0.0
C1599 C 0.76245 0.26888 0.52803 0.0
C1600 C 0.77194 0.28039 0.50376 0.0
C1601 C 0.74244 0.24873 0.52815 0.0
C1602 C 0.73083 0.23907 0.50401 0.0
H1603 H 0.77132 0.27462 0.54719 0.0
H1604 H 0.73686 0.23992 0.54737 0.0
S1605 S 0.74575 0.26496 0.43511 0.0
N1606 N 0.76606 0.28236 0.45502 0.0
N1607 N 0.72854 0.24471 0.45521 0.0
C1608 C 0.73889 0.25159 0.47969 0.0
C1609 C 0.75935 0.27213 0.47957 0.0
C1610 C 0.24661 0.74392 0.48044 0.0
C1611 C 0.23758 0.73154 0.50444 0.0
C1612 C 0.2666 0.76409 0.48071 0.0
C1613 C 0.27856 0.77292 0.505 0.0
H1614 H 0.23737 0.73887 0.46126 0.0
H1615 H 0.27181 0.77363 0.46174 0.0
S1616 S 0.26508 0.74445 0.57313 0.0
N1617 N 0.24442 0.72775 0.55298 0.0
N1618 N 0.28183 0.7655 0.55348 0.0
C1619 C 0.27099 0.75952 0.52897 0.0
C1620 C 0.25061 0.73893 0.52869 0.0
C1621 C 0.24591 0.26645 0.48381 0.0
C1622 C 0.23617 0.27821 0.50783 0.0
C1623 C 0.26622 0.24662 0.48413 0.0
C1624 C 0.27788 0.2375 0.50849 0.0
H1625 H 0.23703 0.27176 0.46453 0.0
H1626 H 0.27201 0.23762 0.46507 0.0
S1627 S 0.26226 0.26418 0.57686 0.0
N1628 N 0.24183 0.281 0.55659 0.0
N1629 N 0.27984 0.24387 0.55718 0.0
C1630 C 0.26952 0.25024 0.53255 0.0
C1631 C 0.24878 0.27049 0.53222 0.0
C1632 C 0.08681 0.10772 0.33494 0.0
C1633 C 0.06566 0.10645 0.35391 0.0
C1634 C 0.10634 0.08732 0.33364 0.0
C1635 C 0.10522 0.06522 0.3513 0.0
H1636 H 0.08923 0.12525 0.32209 0.0
H1637 H 0.12336 0.0898 0.32014 0.0
S1638 S 0.0513 0.04948 0.40055 0.0
N1639 N 0.04258 0.07893 0.3876 0.0
N1640 N 0.07977 0.04106 0.38544 0.0
C1641 C 0.0831 0.06255 0.36867 0.0
C1642 C 0.06314 0.08307 0.36989 0.0
C1643 C 0.92005 0.10914 0.3326 0.0
C1644 C 0.94249 0.10695 0.34997 0.0
C1645 C 0.90143 0.08797 0.33026 0.0
C1646 C 0.90489 0.06415 0.34517 0.0
H1647 H 0.91585 0.12789 0.32215 0.0
H1648 H 0.8832 0.09112 0.31855 0.0
S1649 S 0.96297 0.04608 0.38867 0.0
N1650 N 0.96932 0.07722 0.37862 0.0
N1651 N 0.93393 0.03777 0.37452 0.0
C1652 C 0.92842 0.06073 0.36048 0.0
C1653 C 0.94738 0.08209 0.36282 0.0
C1654 C 0.93973 0.92007 0.37027 0.0
C1655 C 0.94077 0.90005 0.35016 0.0
C1656 C 0.92005 0.94012 0.36975 0.0
C1657 C 0.90078 0.94118 0.34898 0.0
H1658 H 0.95351 0.91975 0.38727 0.0
H1659 H 0.91931 0.95437 0.38635 0.0
S1660 S 0.89658 0.89603 0.28955 0.0
N1661 N 0.92228 0.88424 0.30728 0.0
N1662 N 0.88519 0.92241 0.30645 0.0
C1663 C 0.90265 0.9227 0.32764 0.0
C1664 C 0.92266 0.90197 0.32821 0.0
C1665 C 0.08797 0.94127 0.36981 0.0
C1666 C 0.10811 0.94204 0.34995 0.0
C1667 C 0.06866 0.92086 0.37002 0.0
C1668 C 0.06893 0.90018 0.35054 0.0
H1669 H 0.08775 0.95601 0.38598 0.0
H1670 H 0.05413 0.9208 0.38635 0.0
S1671 S 0.11591 0.89513 0.29231 0.0
N1672 N 0.12601 0.92227 0.30886 0.0
N1673 N 0.08964 0.88338 0.30915 0.0
C1674 C 0.08795 0.90178 0.32942 0.0
C1675 C 0.10757 0.92288 0.32914 0.0
C1676 C 0.11353 0.9168 0.66957 0.0
C1677 C 0.10949 0.94122 0.65568 0.0
C1678 C 0.09409 0.89637 0.66873 0.0
C1679 C 0.07009 0.89977 0.65394 0.0
H1680 H 0.13239 0.91282 0.67993 0.0
H1681 H 0.09854 0.87733 0.67854 0.0
S1682 S 0.04757 0.96193 0.61877 0.0
N1683 N 0.07807 0.96917 0.63013 0.0
N1684 N 0.04157 0.93061 0.62846 0.0
C1685 C 0.06491 0.92482 0.64175 0.0
C1686 C 0.08463 0.94563 0.64266 0.0
C1687 C 0.0668 0.08962 0.64044 0.0
C1688 C 0.06855 0.11197 0.65784 0.0
C1689 C 0.08689 0.06996 0.64004 0.0
C1690 C 0.10957 0.07182 0.65703 0.0
H1691 H 0.0502 0.08765 0.62631 0.0
H1692 H 0.08494 0.0536 0.62565 0.0
S1693 S 0.12227 0.12466 0.7087 0.0
N1694 N 0.09356 0.1336 0.69432 0.0
N1695 N 0.13148 0.09647 0.69355 0.0
C1696 C 0.11078 0.09311 0.67581 0.0
C1697 C 0.09023 0.11323 0.67622 0.0
C1698 C 0.94 0.09 0.64321 0.0
C1699 C 0.93578 0.11432 0.65715 0.0
C1700 C 0.92028 0.06998 0.6427 0.0
C1701 C 0.89551 0.07349 0.65606 0.0
H1702 H 0.95843 0.08662 0.63194 0.0
H1703 H 0.92427 0.0519 0.63106 0.0
S1704 S 0.87534 0.13258 0.69744 0.0
N1705 N 0.90579 0.14017 0.68627 0.0
N1706 N 0.86848 0.10233 0.68526 0.0
C1707 C 0.89155 0.09706 0.67138 0.0
C1708 C 0.91176 0.11755 0.67193 0.0
C1709 C 0.91923 0.89664 0.66871 0.0
C1710 C 0.94289 0.89977 0.6534 0.0
C1711 C 0.89965 0.91694 0.6693 0.0
C1712 C 0.90315 0.94099 0.65462 0.0
H1713 H 0.91511 0.87788 0.67917 0.0
H1714 H 0.88106 0.91309 0.68015 0.0
S1715 S 0.96409 0.96113 0.61599 0.0
N1716 N 0.97059 0.93019 0.62653 0.0
N1717 N 0.93375 0.96841 0.62765 0.0
C1718 C 0.92769 0.94521 0.64101 0.0
C1719 C 0.94759 0.92455 0.64039 0.0
C1720 C 0.33789 0.09391 0.10946 0.0
C1721 C 0.35294 0.07004 0.10641 0.0
C1722 C 0.33858 0.1141 0.08976 0.0
C1723 C 0.35434 0.11109 0.06636 0.0
H1724 H 0.32661 0.09771 0.12779 0.0
H1725 H 0.32775 0.13271 0.09358 0.0
S1726 S 0.39313 0.05021 0.04638 0.0
N1727 N 0.38094 0.0429 0.07651 0.0
N1728 N 0.38226 0.08094 0.03946 0.0
C1729 C 0.36783 0.08649 0.06212 0.0
C1730 C 0.3671 0.06592 0.08216 0.0
C1731 C 0.94091 0.3699 0.0882 0.0
C1732 C 0.93817 0.35327 0.11104 0.0
C1733 C 0.92117 0.37041 0.06813 0.0
C1734 C 0.89789 0.3543 0.07007 0.0
H1735 H 0.95806 0.38332 0.08611 0.0
H1736 H 0.92388 0.3842 0.05136 0.0
S1737 S 0.88233 0.3051 0.1245 0.0
N1738 N 0.91144 0.31863 0.13347 0.0
N1739 N 0.87419 0.31955 0.09559 0.0
C1740 C 0.89562 0.33631 0.09198 0.0
C1741 C 0.91581 0.3358 0.1125 0.0
C1742 C 0.6417 0.9473 0.08251 0.0
C1743 C 0.66017 0.94732 0.104 0.0
C1744 C 0.64105 0.92614 0.06402 0.0
C1745 C 0.6587 0.90402 0.06651 0.0
H1746 H 0.62664 0.96309 0.08079 0.0
H1747 H 0.62565 0.92658 0.04847 0.0
S1748 S 0.71354 0.89666 0.11725 0.0
N1749 N 0.69857 0.92536 0.12519 0.0
N1750 N 0.69745 0.88514 0.09038 0.0
C1751 C 0.67885 0.90495 0.08663 0.0
C1752 C 0.67958 0.92676 0.10541 0.0
C1753 C 0.1002 0.66431 0.11613 0.0
C1754 C 0.07476 0.65268 0.11119 0.0
C1755 C 0.12022 0.6643 0.09617 0.0
C1756 C 0.11531 0.65271 0.07073 0.0
H1757 H 0.10509 0.67233 0.13589 0.0
H1758 H 0.13997 0.67231 0.10112 0.0
S1759 S 0.05027 0.62433 0.04632 0.0
N1760 N 0.04456 0.63251 0.07811 0.0
N1761 N 0.08201 0.63266 0.04052 0.0
C1762 C 0.08931 0.64273 0.06502 0.0
C1763 C 0.06906 0.64265 0.0853 0.0
C1764 C 0.33922 0.91818 0.89735 0.0
C1765 C 0.35464 0.94183 0.90036 0.0
C1766 C 0.33905 0.89836 0.91744 0.0
C1767 C 0.35428 0.90155 0.94121 0.0
H1768 H 0.32828 0.91426 0.8788 0.0
H1769 H 0.32799 0.87987 0.91366 0.0
S1770 S 0.39375 0.96213 0.96102 0.0
N1771 N 0.38245 0.96904 0.93043 0.0
N1772 N 0.38211 0.93176 0.96827 0.0
C1773 C 0.36813 0.926 0.94533 0.0
C1774 C 0.36831 0.94616 0.92487 0.0
C1775 C 0.11005 0.33878 0.92166 0.0
C1776 C 0.10789 0.35561 0.94442 0.0
C1777 C 0.09025 0.33899 0.90154 0.0
C1778 C 0.06766 0.35605 0.90351 0.0
H1779 H 0.12777 0.32634 0.91865 0.0
H1780 H 0.09342 0.32672 0.88372 0.0
S1781 S 0.05003 0.40003 0.96154 0.0
N1782 N 0.07959 0.38691 0.9696 0.0
N1783 N 0.04237 0.38736 0.93167 0.0
C1784 C 0.06427 0.37146 0.9271 0.0
C1785 C 0.0844 0.37122 0.9476 0.0
C1786 C 0.67062 0.11313 0.91396 0.0
C1787 C 0.65584 0.10989 0.93796 0.0
C1788 C 0.67084 0.09288 0.89428 0.0
C1789 C 0.65628 0.0688 0.89801 0.0
H1790 H 0.68096 0.13192 0.9097 0.0
H1791 H 0.68132 0.09674 0.87548 0.0
S1792 S 0.61888 0.0484 0.95962 0.0
N1793 N 0.62953 0.07932 0.96605 0.0
N1794 N 0.62992 0.04126 0.92901 0.0
C1795 C 0.64313 0.06452 0.92278 0.0
C1796 C 0.64291 0.08509 0.94279 0.0
C1797 C 0.93563 0.6371 0.91564 0.0
C1798 C 0.93357 0.65436 0.89319 0.0
C1799 C 0.91632 0.6374 0.936 0.0
C1800 C 0.89409 0.65497 0.93483 0.0
H1801 H 0.95212 0.62285 0.91746 0.0
H1802 H 0.91872 0.62335 0.95261 0.0
S1803 S 0.8801 0.70551 0.88121 0.0
N1804 N 0.90825 0.69055 0.87154 0.0
N1805 N 0.87169 0.69111 0.91006 0.0
C1806 C 0.89222 0.67314 0.91304 0.0
C1807 C 0.91201 0.67282 0.89216 0.0
C1808 C 0.11429 0.34011 0.09771 0.0
C1809 C 0.11091 0.35407 0.07324 0.0
C1810 C 0.09374 0.33974 0.11703 0.0
C1811 C 0.06923 0.35331 0.1124 0.0
H1812 H 0.13336 0.33056 0.10256 0.0
H1813 H 0.09763 0.32997 0.13622 0.0
S1814 S 0.04858 0.38817 0.04936 0.0
N1815 N 0.07994 0.37844 0.0438 0.0
N1816 N 0.04131 0.37778 0.08018 0.0
C1817 C 0.0649 0.3656 0.0872 0.0
C1818 C 0.08577 0.36597 0.06758 0.0
C1819 C 0.10562 0.67476 0.92071 0.0
C1820 C 0.10399 0.65705 0.94283 0.0
C1821 C 0.08546 0.67515 0.90098 0.0
C1822 C 0.06301 0.65785 0.90274 0.0
H1823 H 0.12334 0.68722 0.91768 0.0
H1824 H 0.08839 0.6879 0.88345 0.0
S1825 S 0.04637 0.61236 0.95994 0.0
N1826 N 0.07615 0.62517 0.96776 0.0
N1827 N 0.0381 0.6259 0.93062 0.0
C1828 C 0.05993 0.64192 0.92605 0.0
C1829 C 0.08048 0.64152 0.94613 0.0
C1830 C 0.37395 0.09209 0.93784 0.0
C1831 C 0.35667 0.11452 0.93568 0.0
C1832 C 0.37375 0.0717 0.91847 0.0
C1833 C 0.35624 0.07284 0.89615 0.0
H1834 H 0.38824 0.09044 0.95433 0.0
H1835 H 0.38791 0.05519 0.92078 0.0
S1836 S 0.30546 0.12621 0.88209 0.0
N1837 N 0.32035 0.13592 0.91029 0.0
N1838 N 0.31997 0.09742 0.87374 0.0
C1839 C 0.33791 0.09449 0.89434 0.0
C1840 C 0.33813 0.11537 0.91413 0.0
C1841 C 0.94054 0.3744 0.91922 0.0
C1842 C 0.9381 0.35797 0.89618 0.0
C1843 C 0.92137 0.37358 0.93976 0.0
C1844 C 0.89897 0.35625 0.93818 0.0
H1845 H 0.95705 0.38862 0.92123 0.0
H1846 H 0.92381 0.38725 0.95667 0.0
S1847 S 0.8845 0.30708 0.88342 0.0
N1848 N 0.91258 0.32227 0.87392 0.0
N1849 N 0.87639 0.32071 0.91271 0.0
C1850 C 0.897 0.33855 0.91602 0.0
C1851 C 0.91659 0.33944 0.89496 0.0
C1852 C 0.66881 0.91426 0.89484 0.0
C1853 C 0.65495 0.93876 0.89847 0.0
C1854 C 0.66839 0.8943 0.91482 0.0
C1855 C 0.65411 0.89825 0.93901 0.0
H1856 H 0.67893 0.90992 0.87596 0.0
H1857 H 0.67826 0.87521 0.91073 0.0
S1858 S 0.61897 0.96094 0.96026 0.0
N1859 N 0.62971 0.96735 0.92938 0.0
N1860 N 0.62896 0.92987 0.967 0.0
C1861 C 0.64181 0.92342 0.94362 0.0
C1862 C 0.64222 0.94368 0.92331 0.0
C1863 C 0.92144 0.67228 0.10936 0.0
C1864 C 0.94452 0.65612 0.10593 0.0
C1865 C 0.90114 0.67286 0.08979 0.0
C1866 C 0.90326 0.65732 0.06616 0.0
H1867 H 0.91825 0.6834 0.12791 0.0
H1868 H 0.88304 0.68439 0.09399 0.0
S1869 S 0.96233 0.61631 0.04508 0.0
N1870 N 0.97029 0.62755 0.07544 0.0
N1871 N 0.93208 0.62868 0.03849 0.0
C1872 C 0.92728 0.64291 0.06146 0.0
C1873 C 0.94793 0.64229 0.08142 0.0
C1874 C 0.36573 0.94159 0.08854 0.0
C1875 C 0.35084 0.9384 0.11248 0.0
C1876 C 0.36613 0.92147 0.06889 0.0
C1877 C 0.35163 0.89734 0.07235 0.0
H1878 H 0.37785 0.9595 0.08519 0.0
H1879 H 0.37851 0.92465 0.05115 0.0
S1880 S 0.3076 0.8799 0.13041 0.0
N1881 N 0.31975 0.91005 0.13784 0.0
N1882 N 0.32044 0.87202 0.10069 0.0
C1883 C 0.3354 0.89444 0.09548 0.0
C1884 C 0.33501 0.91503 0.11561 0.0
C1885 C 0.67506 0.11068 0.08754 0.0
C1886 C 0.6552 0.10981 0.06712 0.0
C1887 C 0.67548 0.09143 0.1083 0.0
C1888 C 0.65595 0.07097 0.10926 0.0
H1889 H 0.68961 0.12699 0.08825 0.0
H1890 H 0.69017 0.09344 0.12441 0.0
S1891 S 0.6028 0.05672 0.05858 0.0
N1892 N 0.61792 0.08425 0.04744 0.0
N1893 N 0.61848 0.0487 0.08689 0.0
C1894 C 0.63721 0.06874 0.08818 0.0
C1895 C 0.63692 0.08801 0.06694 0.0
C1896 C 0.58481 0.60542 0.83328 0.0
C1897 C 0.56344 0.60458 0.85202 0.0
C1898 C 0.60395 0.58464 0.8322 0.0
C1899 C 0.60221 0.56257 0.84986 0.0
H1900 H 0.58783 0.62296 0.82058 0.0
H1901 H 0.62128 0.58694 0.81907 0.0
S1902 S 0.54724 0.54771 0.89819 0.0
N1903 N 0.53928 0.57736 0.8852 0.0
N1904 N 0.57572 0.53876 0.88343 0.0
C1905 C 0.57969 0.5602 0.86674 0.0
C1906 C 0.56012 0.58112 0.86775 0.0
C1907 C 0.40908 0.57657 0.87896 0.0
C1908 C 0.39358 0.5722 0.85559 0.0
C1909 C 0.42947 0.59586 0.87948 0.0
C1910 C 0.43513 0.61182 0.85671 0.0
H1911 H 0.40525 0.56518 0.89724 0.0
H1912 H 0.44036 0.59867 0.89826 0.0
S1913 S 0.40147 0.60695 0.7898 0.0
N1914 N 0.386 0.58417 0.8086 0.0
N1915 N 0.42454 0.62089 0.80948 0.0
C1916 C 0.4204 0.60706 0.83281 0.0
C1917 C 0.39961 0.58709 0.83225 0.0
C1918 C 0.42099 0.44503 0.8708 0.0
C1919 C 0.40255 0.44677 0.84934 0.0
C1920 C 0.44081 0.42509 0.87132 0.0
C1921 C 0.44274 0.40583 0.85053 0.0
H1922 H 0.41927 0.45842 0.88802 0.0
H1923 H 0.45374 0.42401 0.88895 0.0
S1924 S 0.40147 0.40434 0.78781 0.0
N1925 N 0.38911 0.42985 0.80533 0.0
N1926 N 0.42643 0.39193 0.80615 0.0
C1927 C 0.42573 0.40871 0.82783 0.0
C1928 C 0.40561 0.42934 0.82726 0.0
C1929 C 0.57902 0.41396 0.87924 0.0
C1930 C 0.57292 0.39901 0.8559 0.0
C1931 C 0.59951 0.43313 0.87926 0.0
C1932 C 0.61465 0.43842 0.85589 0.0
H1933 H 0.56841 0.41041 0.89802 0.0
H1934 H 0.60365 0.44376 0.89794 0.0
S1935 S 0.60564 0.40642 0.78886 0.0
N1936 N 0.5828 0.39177 0.80824 0.0
N1937 N 0.6215 0.42836 0.80836 0.0
C1938 C 0.60823 0.42451 0.83205 0.0
C1939 C 0.58737 0.40461 0.83205 0.0
C1940 C 0.57119 0.42001 0.13973 0.0
C1941 C 0.5745 0.39622 0.15483 0.0
C1942 C 0.59038 0.44055 0.14065 0.0
C1943 C 0.61373 0.43813 0.15665 0.0
H1944 H 0.55391 0.42262 0.12655 0.0
H1945 H 0.58717 0.45815 0.12805 0.0
S1946 S 0.63084 0.38086 0.20191 0.0
N1947 N 0.60191 0.37212 0.18782 0.0
N1948 N 0.63822 0.4109 0.18949 0.0
C1949 C 0.61663 0.41511 0.17305 0.0
C1950 C 0.59696 0.3941 0.17214 0.0
C1951 C 0.59192 0.61512 0.16974 0.0
C1952 C 0.56774 0.61104 0.1554 0.0
C1953 C 0.61208 0.59536 0.17009 0.0
C1954 C 0.60869 0.57089 0.15611 0.0
H1955 H 0.59592 0.63418 0.17969 0.0
H1956 H 0.63092 0.59988 0.18026 0.0
S1957 S 0.54699 0.54837 0.11991 0.0
N1958 N 0.54 0.57933 0.13004 0.0
N1959 N 0.57791 0.54215 0.1307 0.0
C1960 C 0.58382 0.56579 0.14337 0.0
C1961 C 0.56332 0.58589 0.14301 0.0
C1962 C 0.41802 0.56857 0.13816 0.0
C1963 C 0.39391 0.57151 0.15288 0.0
C1964 C 0.43807 0.58829 0.13893 0.0
C1965 C 0.43493 0.61174 0.15452 0.0
H1966 H 0.42129 0.55114 0.12536 0.0
H1967 H 0.45593 0.58535 0.12666 0.0
S1968 S 0.37656 0.62841 0.19842 0.0
N1969 N 0.36868 0.59901 0.18484 0.0
N1970 N 0.4066 0.63624 0.18633 0.0
C1971 C 0.41156 0.61443 0.17045 0.0
C1972 C 0.39099 0.59427 0.16961 0.0
C1973 C 0.40253 0.41862 0.17192 0.0
C1974 C 0.40496 0.44185 0.15581 0.0
C1975 C 0.42238 0.3986 0.17151 0.0
C1976 C 0.44531 0.4012 0.15498 0.0
H1977 H 0.38446 0.41505 0.1837 0.0
H1978 H 0.41894 0.38036 0.18307 0.0
S1979 S 0.4638 0.46092 0.11363 0.0
N1980 N 0.43386 0.46832 0.12621 0.0
N1981 N 0.47133 0.43068 0.12547 0.0
C1982 C 0.44907 0.42541 0.14063 0.0
C1983 C 0.42884 0.44576 0.14103 0.0
C1984 C 0.83502 0.59437 0.60887 0.0
C1985 C 0.85024 0.57063 0.60573 0.0
C1986 C 0.8359 0.61481 0.58942 0.0
C1987 C 0.85202 0.6121 0.56625 0.0
H1988 H 0.82363 0.59795 0.62719 0.0
H1989 H 0.82507 0.6334 0.59334 0.0
S1990 S 0.89096 0.55143 0.54592 0.0
N1991 N 0.87852 0.5438 0.57588 0.0
N1992 N 0.88013 0.58222 0.53921 0.0
C1993 C 0.86548 0.58752 0.5618 0.0
C1994 C 0.86459 0.56675 0.58159 0.0
C1995 C 0.42099 0.87146 0.57106 0.0
C1996 C 0.39846 0.85426 0.5724 0.0
C1997 C 0.44058 0.87137 0.59127 0.0
C1998 C 0.43847 0.85405 0.61366 0.0
H1999 H 0.42323 0.88576 0.55465 0.0
H2000 H 0.45714 0.88557 0.58961 0.0
S2001 S 0.38476 0.80312 0.62554 0.0
N2002 N 0.37616 0.81789 0.59693 0.0
N2003 N 0.41316 0.81774 0.63507 0.0
C2004 C 0.41688 0.83561 0.61457 0.0
C2005 C 0.39682 0.83571 0.5939 0.0
C2006 C 0.13373 0.42115 0.57012 0.0
C2007 C 0.15464 0.40196 0.56868 0.0
C2008 C 0.13406 0.44152 0.58948 0.0
C2009 C 0.15544 0.44381 0.60794 0.0
H2010 H 0.11626 0.41985 0.55701 0.0
H2011 H 0.11689 0.45504 0.59063 0.0
S2012 S 0.21682 0.40124 0.61074 0.0
N2013 N 0.19873 0.38827 0.58588 0.0
N2014 N 0.19923 0.42707 0.62232 0.0
C2015 C 0.17745 0.42617 0.60563 0.0
C2016 C 0.17706 0.40508 0.58599 0.0
C2017 C 0.57026 0.13669 0.59119 0.0
C2018 C 0.57148 0.1548 0.61301 0.0
C2019 C 0.58954 0.13728 0.57073 0.0
C2020 C 0.61089 0.156 0.5712 0.0
H2021 H 0.55465 0.12139 0.59013 0.0
H2022 H 0.58804 0.12237 0.55479 0.0
S2023 S 0.62184 0.20956 0.62255 0.0
N2024 N 0.59464 0.19338 0.63291 0.0
N2025 N 0.63103 0.19449 0.59431 0.0
C2026 C 0.61158 0.17523 0.59212 0.0
C2027 C 0.59185 0.17462 0.61306 0.0
C2028 C 0.84131 0.3992 0.41658 0.0
C2029 C 0.85568 0.40283 0.44084 0.0
C2030 C 0.84186 0.41883 0.39628 0.0
C2031 C 0.85681 0.44273 0.39956 0.0
H2032 H 0.83058 0.38055 0.41265 0.0
H2033 H 0.83152 0.41465 0.37745 0.0
S2034 S 0.89371 0.46416 0.46122 0.0
N2035 N 0.88228 0.43368 0.4684 0.0
N2036 N 0.88332 0.47058 0.4302 0.0
C2037 C 0.86972 0.44743 0.42442 0.0
C2038 C 0.86914 0.42747 0.44509 0.0
C2039 C 0.56898 0.87609 0.41889 0.0
C2040 C 0.56967 0.85702 0.39786 0.0
C2041 C 0.58839 0.87603 0.43927 0.0
C2042 C 0.60932 0.85689 0.43953 0.0
H2043 H 0.55377 0.89179 0.41933 0.0
H2044 H 0.58735 0.8917 0.45449 0.0
S2045 S 0.61849 0.80055 0.39087 0.0
N2046 N 0.59165 0.81692 0.37981 0.0
N2047 N 0.62829 0.81679 0.41827 0.0
C2048 C 0.60939 0.83666 0.41955 0.0
C2049 C 0.58955 0.83674 0.39867 0.0
C2050 C 0.13802 0.56915 0.42007 0.0
C2051 C 0.15675 0.56964 0.39878 0.0
C2052 C 0.13747 0.58955 0.43942 0.0
C2053 C 0.15566 0.61132 0.43832 0.0
H2054 H 0.12297 0.55333 0.42143 0.0
H2055 H 0.12208 0.58856 0.45491 0.0
S2056 S 0.21095 0.62048 0.38855 0.0
N2057 N 0.19567 0.59242 0.3791 0.0
N2058 N 0.19464 0.63093 0.41563 0.0
C2059 C 0.17566 0.61125 0.41815 0.0
C2060 C 0.17622 0.59037 0.39834 0.0
C2061 C 0.43988 0.13966 0.42205 0.0
C2062 C 0.43722 0.15625 0.39918 0.0
C2063 C 0.42047 0.13976 0.44237 0.0
C2064 C 0.39762 0.15647 0.44064 0.0
H2065 H 0.45675 0.12587 0.42404 0.0
H2066 H 0.42311 0.12604 0.45921 0.0
S2067 S 0.38229 0.20557 0.38606 0.0
N2068 N 0.41093 0.19132 0.37681 0.0
N2069 N 0.37428 0.19151 0.41519 0.0
C2070 C 0.39539 0.17431 0.41864 0.0
C2071 C 0.41524 0.1742 0.39784 0.0
C2072 C 0.58597 0.83866 0.60754 0.0
C2073 C 0.57075 0.86186 0.6135 0.0
C2074 C 0.60578 0.83907 0.5874 0.0
C2075 C 0.61105 0.86269 0.57253 0.0
H2076 H 0.58274 0.82008 0.61861 0.0
H2077 H 0.61714 0.82078 0.58363 0.0
S2078 S 0.57718 0.92918 0.58078 0.0
N2079 N 0.56255 0.9093 0.60306 0.0
N2080 N 0.59959 0.91004 0.5654 0.0
C2081 C 0.59579 0.886 0.57816 0.0
C2082 C 0.57569 0.88559 0.5986 0.0
C2083 C 0.56748 0.13771 0.42136 0.0
C2084 C 0.56763 0.15656 0.40013 0.0
C2085 C 0.58788 0.13747 0.44076 0.0
C2086 C 0.60932 0.15605 0.43977 0.0
H2087 H 0.55193 0.12238 0.42263 0.0
H2088 H 0.58715 0.12198 0.45619 0.0
S2089 S 0.61747 0.21171 0.39011 0.0
N2090 N 0.58971 0.19593 0.38058 0.0
N2091 N 0.6282 0.19549 0.41718 0.0
C2092 C 0.6089 0.17611 0.41961 0.0
C2093 C 0.58801 0.17637 0.39977 0.0
C2094 C 0.84208 0.5966 0.39479 0.0
C2095 C 0.85687 0.57268 0.39865 0.0
C2096 C 0.84157 0.61662 0.41464 0.0
C2097 C 0.85584 0.61331 0.43895 0.0
H2098 H 0.83188 0.60049 0.37582 0.0
H2099 H 0.83105 0.63531 0.41034 0.0
S2100 S 0.89324 0.55219 0.46091 0.0
N2101 N 0.88298 0.5452 0.42997 0.0
N2102 N 0.88202 0.58289 0.46737 0.0
C2103 C 0.86908 0.58869 0.44384 0.0
C2104 C 0.8696 0.56833 0.42364 0.0
C2105 C 0.42142 0.87344 0.44049 0.0
C2106 C 0.40011 0.85469 0.44022 0.0
C2107 C 0.44069 0.8738 0.42003 0.0
C2108 C 0.43947 0.85544 0.3984 0.0
H2109 H 0.42284 0.88862 0.45617 0.0
H2110 H 0.45617 0.88923 0.42084 0.0
S2111 S 0.38967 0.8 0.38993 0.0
N2112 N 0.38034 0.81554 0.41787 0.0
N2113 N 0.41671 0.81625 0.37925 0.0
C2114 C 0.4193 0.83543 0.39872 0.0
C2115 C 0.39959 0.83504 0.41967 0.0
C2116 C 0.13814 0.43974 0.42015 0.0
C2117 C 0.15548 0.43779 0.39778 0.0
C2118 C 0.13772 0.41982 0.43999 0.0
C2119 C 0.15463 0.39709 0.43833 0.0
H2120 H 0.12417 0.45645 0.42207 0.0
H2121 H 0.12346 0.422 0.45641 0.0
S2122 S 0.20573 0.38362 0.38519 0.0
N2123 N 0.19152 0.41235 0.3761 0.0
N2124 N 0.19074 0.37473 0.41358 0.0
C2125 C 0.17319 0.39556 0.41688 0.0
C2126 C 0.17361 0.41595 0.39656 0.0
C2127 C 0.39879 0.17045 0.59481 0.0
C2128 C 0.40162 0.15512 0.57111 0.0
C2129 C 0.41872 0.17003 0.61479 0.0
C2130 C 0.44212 0.15425 0.61171 0.0
H2131 H 0.38048 0.18179 0.59863 0.0
H2132 H 0.41511 0.18111 0.63329 0.0
S2133 S 0.46142 0.11464 0.55115 0.0
N2134 N 0.4312 0.12674 0.54401 0.0
N2135 N 0.4687 0.12592 0.58166 0.0
C2136 C 0.44608 0.14042 0.58727 0.0
C2137 C 0.42581 0.14087 0.56692 0.0
C2138 C 0.86641 0.42371 0.57086 0.0
C2139 C 0.85212 0.39947 0.5741 0.0
C2140 C 0.86621 0.44344 0.5909 0.0
C2141 C 0.85185 0.43969 0.61514 0.0
H2142 H 0.87841 0.42729 0.55292 0.0
H2143 H 0.87808 0.46151 0.58755 0.0
S2144 S 0.80946 0.38047 0.6327 0.0
N2145 N 0.82176 0.37331 0.60257 0.0
N2146 N 0.82152 0.41055 0.64053 0.0
C2147 C 0.83632 0.41611 0.61812 0.0
C2148 C 0.83644 0.39595 0.59753 0.0
C2149 C 0.17445 0.58921 0.6074 0.0
C2150 C 0.15405 0.56965 0.6089 0.0
C2151 C 0.17393 0.60895 0.58712 0.0
C2152 C 0.15311 0.60949 0.56766 0.0
H2153 H 0.18997 0.59019 0.6228 0.0
H2154 H 0.18932 0.62448 0.58742 0.0
S2155 S 0.09775 0.55919 0.56072 0.0
N2156 N 0.11449 0.54971 0.58794 0.0
N2157 N 0.11362 0.58623 0.54943 0.0
C2158 C 0.13379 0.58858 0.56795 0.0
C2159 C 0.13423 0.5688 0.58871 0.0
C2160 C 0.08999 0.26734 0.38993 0.0
C2161 C 0.08581 0.23939 0.38973 0.0
C2162 C 0.10845 0.27882 0.40788 0.0
C2163 C 0.12229 0.26261 0.42664 0.0
H2164 H 0.07758 0.28047 0.37755 0.0
H2165 H 0.10974 0.30064 0.40896 0.0
S2166 S 0.12061 0.18818 0.43176 0.0
N2167 N 0.09922 0.19547 0.4072 0.0
N2168 N 0.13299 0.21738 0.44208 0.0
C2169 C 0.11991 0.23453 0.42511 0.0
C2170 C 0.1018 0.22279 0.40626 0.0
C2171 C 0.77538 0.12604 0.42677 0.0
C2172 C 0.7472 0.12746 0.42561 0.0
C2173 C 0.78928 0.10762 0.41079 0.0
C2174 C 0.77519 0.08963 0.39382 0.0
H2175 H 0.78645 0.13737 0.44189 0.0
H2176 H 0.81083 0.10566 0.414 0.0
S2177 S 0.70189 0.09065 0.37881 0.0
N2178 N 0.70609 0.11381 0.40243 0.0
N2179 N 0.73228 0.07847 0.37255 0.0
C2180 C 0.7474 0.09351 0.38985 0.0
C2181 C 0.73331 0.11272 0.40578 0.0
C2182 C 0.90741 0.78464 0.40036 0.0
C2183 C 0.92355 0.76747 0.38458 0.0
C2184 C 0.88968 0.77397 0.41945 0.0
C2185 C 0.88706 0.74598 0.4224 0.0
H2186 H 0.91056 0.80629 0.39996 0.0
H2187 H 0.87944 0.78756 0.4332 0.0
S2188 S 0.92156 0.69293 0.38246 0.0
N2189 N 0.93384 0.72167 0.3708 0.0
N2190 N 0.89927 0.70136 0.40576 0.0
C2191 C 0.90081 0.72874 0.40454 0.0
C2192 C 0.91948 0.7396 0.38577 0.0
C2193 C 0.22773 0.90363 0.40278 0.0
C2194 C 0.24183 0.92533 0.39082 0.0
C2195 C 0.24107 0.88513 0.41918 0.0
C2196 C 0.26891 0.88711 0.423 0.0
H2197 H 0.2059 0.90248 0.40199 0.0
H2198 H 0.22929 0.8708 0.43079 0.0
S2199 S 0.31611 0.9345 0.3897 0.0
N2200 N 0.28587 0.9439 0.37919 0.0
N2201 N 0.31109 0.90812 0.40947 0.0
C2202 C 0.2838 0.90571 0.40772 0.0
C2203 C 0.27018 0.92509 0.39154 0.0
C2204 C 0.09173 0.73929 0.61951 0.0
C2205 C 0.08835 0.76731 0.62068 0.0
C2206 C 0.1105 0.72806 0.60182 0.0
C2207 C 0.12542 0.74466 0.5843 0.0
H2208 H 0.07845 0.72604 0.63076 0.0
H2209 H 0.11111 0.70628 0.59976 0.0
S2210 S 0.12649 0.81923 0.58263 0.0
N2211 N 0.10392 0.81155 0.60593 0.0
N2212 N 0.13829 0.79012 0.57146 0.0
C2213 C 0.12401 0.77268 0.5871 0.0
C2214 C 0.10558 0.78415 0.60571 0.0
C2215 C 0.22787 0.10585 0.61121 0.0
C2216 C 0.24388 0.08767 0.62598 0.0
C2217 C 0.23978 0.12373 0.59301 0.0
C2218 C 0.26788 0.12438 0.59005 0.0
H2219 H 0.20605 0.10415 0.61141 0.0
H2220 H 0.22695 0.13546 0.57969 0.0
S2221 S 0.31838 0.08445 0.6282 0.0
N2222 N 0.28886 0.07361 0.63929 0.0
N2223 N 0.31154 0.10843 0.60603 0.0
C2224 C 0.28412 0.10875 0.60727 0.0
C2225 C 0.27198 0.08996 0.6251 0.0
C2226 C 0.90555 0.23233 0.61075 0.0
C2227 C 0.92497 0.24868 0.62349 0.0
C2228 C 0.8874 0.24346 0.59231 0.0
C2229 C 0.88769 0.27122 0.58718 0.0
H2230 H 0.90627 0.21055 0.61282 0.0
H2231 H 0.87452 0.23016 0.58063 0.0
S2232 S 0.9314 0.32289 0.61904 0.0
N2233 N 0.94151 0.29396 0.63222 0.0
N2234 N 0.90619 0.31528 0.59852 0.0
C2235 C 0.90485 0.2881 0.60214 0.0
C2236 C 0.9239 0.27667 0.62019 0.0
C2237 C 0.78657 0.90348 0.60418 0.0
C2238 C 0.77079 0.91867 0.62214 0.0
C2239 C 0.7743 0.88633 0.58549 0.0
C2240 C 0.74615 0.8835 0.58504 0.0
H2241 H 0.80806 0.90723 0.60245 0.0
H2242 H 0.7866 0.87709 0.56995 0.0
S2243 S 0.69695 0.91499 0.63181 0.0
N2244 N 0.72654 0.92733 0.64104 0.0
N2245 N 0.70328 0.89388 0.60679 0.0
C2246 C 0.73062 0.89586 0.60532 0.0
C2247 C 0.74306 0.91391 0.62375 0.0
C2248 C 0.40293 0.10549 0.22449 0.0
C2249 C 0.38568 0.08975 0.24056 0.0
C2250 C 0.42152 0.12295 0.23644 0.0
C2251 C 0.42255 0.12561 0.26458 0.0
H2252 H 0.40406 0.1022 0.20289 0.0
H2253 H 0.43645 0.13278 0.22384 0.0
S2254 S 0.37793 0.09247 0.3147 0.0
N2255 N 0.36821 0.08017 0.28525 0.0
N2256 N 0.40233 0.11418 0.30792 0.0
C2257 C 0.40314 0.11244 0.28054 0.0
C2258 C 0.38482 0.09406 0.26841 0.0
C2259 C 0.91688 0.3878 0.2701 0.0
C2260 C 0.92174 0.38746 0.24227 0.0
C2261 C 0.89935 0.40687 0.28114 0.0
C2262 C 0.88726 0.42653 0.26462 0.0
H2263 H 0.92817 0.37469 0.2835 0.0
H2264 H 0.89756 0.40799 0.30293 0.0
S2265 S 0.89115 0.43178 0.19028 0.0
N2266 N 0.91066 0.40587 0.19806 0.0
N2267 N 0.87872 0.44276 0.21919 0.0
C2268 C 0.89019 0.42491 0.23661 0.0
C2269 C 0.90728 0.40499 0.22529 0.0
C2270 C 0.61869 0.91526 0.2579 0.0
C2271 C 0.61544 0.91834 0.22985 0.0
C2272 C 0.60255 0.89714 0.27221 0.0
C2273 C 0.58278 0.88198 0.25874 0.0
H2274 H 0.63163 0.92877 0.26925 0.0
H2275 H 0.60328 0.89752 0.29408 0.0
S2276 S 0.5729 0.87559 0.18508 0.0
N2277 N 0.5964 0.89899 0.18856 0.0
N2278 N 0.56517 0.86591 0.21602 0.0
C2279 C 0.58237 0.88162 0.23057 0.0
C2280 C 0.59913 0.89958 0.21588 0.0
C2281 C 0.08563 0.61593 0.2721 0.0
C2282 C 0.08461 0.61966 0.2441 0.0
C2283 C 0.10535 0.59937 0.28348 0.0
C2284 C 0.12376 0.58552 0.26696 0.0
H2285 H 0.07014 0.62442 0.28498 0.0
H2286 H 0.1044 0.59521 0.30496 0.0
S2287 S 0.13111 0.59105 0.19295 0.0
N2288 N 0.10542 0.61094 0.20042 0.0
N2289 N 0.14166 0.57845 0.22199 0.0
C2290 C 0.12424 0.59071 0.23926 0.0
C2291 C 0.10476 0.60823 0.22773 0.0
C2292 C 0.40135 0.90619 0.78377 0.0
C2293 C 0.38641 0.92303 0.76646 0.0
C2294 C 0.42007 0.88799 0.77329 0.0
C2295 C 0.42343 0.88563 0.74534 0.0
H2296 H 0.40068 0.90909 0.80546 0.0
H2297 H 0.43332 0.87724 0.78702 0.0
S2298 S 0.38535 0.92174 0.69188 0.0
N2299 N 0.37362 0.93413 0.72052 0.0
N2300 N 0.40786 0.8987 0.70052 0.0
C2301 C 0.40625 0.90003 0.72789 0.0
C2302 C 0.38788 0.91917 0.73858 0.0
C2303 C 0.09612 0.38137 0.74375 0.0
C2304 C 0.09359 0.38289 0.77181 0.0
C2305 C 0.11009 0.40133 0.72973 0.0
C2306 C 0.12126 0.42362 0.7435 0.0
H2307 H 0.08446 0.36674 0.73238 0.0
H2308 H 0.10941 0.4007 0.70788 0.0
S2309 S 0.12722 0.43124 0.81777 0.0
N2310 N 0.1088 0.40376 0.81345 0.0
N2311 N 0.13497 0.44189 0.78713 0.0
C2312 C 0.12275 0.42265 0.77184 0.0
C2313 C 0.10888 0.40196 0.78606 0.0
C2314 C 0.61047 0.10235 0.78221 0.0
C2315 C 0.62456 0.08481 0.76493 0.0
C2316 C 0.59185 0.12072 0.77178 0.0
C2317 C 0.58778 0.12257 0.74387 0.0
H2318 H 0.61167 0.09989 0.80393 0.0
H2319 H 0.5792 0.13203 0.78558 0.0
S2320 S 0.62346 0.08442 0.69033 0.0
N2321 N 0.63576 0.07241 0.71893 0.0
N2322 N 0.60173 0.10816 0.699 0.0
C2323 C 0.60412 0.1074 0.72635 0.0
C2324 C 0.62237 0.08809 0.73701 0.0
C2325 C 0.90435 0.62463 0.76816 0.0
C2326 C 0.92851 0.63015 0.75423 0.0
C2327 C 0.88437 0.60859 0.75642 0.0
C2328 C 0.88772 0.59866 0.73021 0.0
H2329 H 0.90212 0.63007 0.78923 0.0
H2330 H 0.86761 0.6018 0.76872 0.0
S2331 S 0.94421 0.61257 0.68336 0.0
N2332 N 0.95267 0.62818 0.71161 0.0
N2333 N 0.91436 0.59883 0.68907 0.0
C2334 C 0.90992 0.60715 0.71485 0.0
C2335 C 0.93063 0.62278 0.72702 0.0
C2336 C 0.23663 0.38796 0.10911 0.0
C2337 C 0.25094 0.3799 0.08595 0.0
C2338 C 0.24892 0.40434 0.12848 0.0
C2339 C 0.27594 0.41207 0.12553 0.0
H2340 H 0.21511 0.38434 0.1107 0.0
H2341 H 0.23659 0.41319 0.14423 0.0
S2342 S 0.32339 0.39112 0.07179 0.0
N2343 N 0.2943 0.37714 0.0633 0.0
N2344 N 0.31782 0.40704 0.10055 0.0
C2345 C 0.29137 0.40091 0.1046 0.0
C2346 C 0.2787 0.38498 0.08445 0.0
C2347 C 0.21408 0.59661 0.90205 0.0
C2348 C 0.22728 0.62041 0.91005 0.0
C2349 C 0.22807 0.57653 0.88805 0.0
C2350 C 0.2555 0.58005 0.88186 0.0
H2351 H 0.19418 0.59192 0.90986 0.0
H2352 H 0.21835 0.55715 0.88516 0.0
S2353 S 0.29566 0.64271 0.89059 0.0
N2354 N 0.26653 0.64916 0.90546 0.0
N2355 N 0.29284 0.61194 0.87804 0.0
C2356 C 0.26716 0.60575 0.88549 0.0
C2357 C 0.25298 0.62594 0.89999 0.0
C2358 C 0.39632 0.23509 0.90374 0.0
C2359 C 0.38488 0.25096 0.92431 0.0
C2360 C 0.41406 0.24653 0.8851 0.0
C2361 C 0.41982 0.27417 0.88604 0.0
H2362 H 0.39394 0.21334 0.90384 0.0
H2363 H 0.42491 0.23343 0.87134 0.0
S2364 S 0.39086 0.32489 0.93268 0.0
N2365 N 0.37767 0.29586 0.94248 0.0
N2366 N 0.41006 0.31777 0.90638 0.0
C2367 C 0.40591 0.29071 0.90435 0.0
C2368 C 0.38857 0.27895 0.92386 0.0
C2369 C 0.75657 0.39259 0.90458 0.0
C2370 C 0.77788 0.39901 0.92185 0.0
C2371 C 0.74587 0.41239 0.88765 0.0
C2372 C 0.75572 0.43913 0.88851 0.0
H2373 H 0.74673 0.37309 0.90585 0.0
H2374 H 0.7278 0.40756 0.87626 0.0
S2375 S 0.81543 0.46348 0.92645 0.0
N2376 N 0.81199 0.43155 0.93543 0.0
N2377 N 0.79121 0.4693 0.90423 0.0
C2378 C 0.77943 0.44454 0.90299 0.0
C2379 C 0.79055 0.42426 0.91986 0.0
C2380 C 0.6112 0.77651 0.9082 0.0
C2381 C 0.6229 0.76103 0.92896 0.0
C2382 C 0.59322 0.76473 0.88994 0.0
C2383 C 0.58743 0.7371 0.89146 0.0
H2384 H 0.6137 0.79824 0.9078 0.0
H2385 H 0.58234 0.77754 0.87592 0.0
S2386 S 0.61653 0.68733 0.93909 0.0
N2387 N 0.62998 0.71649 0.94813 0.0
N2388 N 0.5971 0.69396 0.91278 0.0
C2389 C 0.60135 0.72095 0.91012 0.0
C2390 C 0.61897 0.73306 0.92922 0.0
C2391 C 0.74145 0.6252 0.09378 0.0
C2392 C 0.76952 0.62532 0.09035 0.0
C2393 C 0.7295 0.60756 0.1122 0.0
C2394 C 0.74537 0.58908 0.12674 0.0
H2395 H 0.72863 0.63714 0.08065 0.0
H2396 H 0.70766 0.60627 0.1127 0.0
S2397 S 0.81987 0.58466 0.12788 0.0
N2398 N 0.81312 0.60868 0.10572 0.0
N2399 N 0.79034 0.57434 0.13943 0.0
C2400 C 0.77351 0.59091 0.12544 0.0
C2401 C 0.78573 0.60945 0.10735 0.0
C2402 C 0.39565 0.77917 0.10368 0.0
C2403 C 0.38405 0.76279 0.08357 0.0
C2404 C 0.41371 0.76824 0.12235 0.0
C2405 C 0.41958 0.74062 0.12188 0.0
H2406 H 0.39311 0.8009 0.10318 0.0
H2407 H 0.42462 0.78164 0.13578 0.0
S2408 S 0.39063 0.68883 0.0763 0.0
N2409 N 0.37706 0.71756 0.06615 0.0
N2410 N 0.41001 0.69658 0.10234 0.0
C2411 C 0.40562 0.72363 0.10397 0.0
C2412 C 0.38798 0.73487 0.08443 0.0
C2413 C 0.62305 0.2684 0.0891 0.0
C2414 C 0.62335 0.2406 0.08411 0.0
C2415 C 0.60479 0.27926 0.10757 0.0
C2416 C 0.58585 0.26259 0.12055 0.0
H2417 H 0.63556 0.28192 0.07729 0.0
H2418 H 0.60365 0.30103 0.10951 0.0
S2419 S 0.5809 0.18825 0.1166 0.0
N2420 N 0.60578 0.19624 0.0959 0.0
N2421 N 0.57032 0.21705 0.12964 0.0
C2422 C 0.58747 0.23461 0.11739 0.0
C2423 C 0.60662 0.22347 0.09931 0.0
C2424 C 0.90776 0.78238 0.60808 0.0
C2425 C 0.92588 0.76525 0.62167 0.0
C2426 C 0.88923 0.77187 0.58966 0.0
C2427 C 0.88782 0.744 0.5853 0.0
H2428 H 0.90982 0.80413 0.60951 0.0
H2429 H 0.87742 0.78561 0.57738 0.0
S2430 S 0.92756 0.69069 0.61972 0.0
N2431 N 0.93929 0.71934 0.63215 0.0
N2432 N 0.90328 0.69922 0.59846 0.0
C2433 C 0.90361 0.72654 0.60116 0.0
C2434 C 0.92306 0.7373 0.61921 0.0
C2435 C 0.22649 0.9089 0.60523 0.0
C2436 C 0.24296 0.92651 0.6202 0.0
C2437 C 0.23795 0.89051 0.58728 0.0
C2438 C 0.26604 0.88877 0.58472 0.0
H2439 H 0.20473 0.91118 0.60541 0.0
H2440 H 0.22485 0.87901 0.57402 0.0
S2441 S 0.31751 0.92751 0.62294 0.0
N2442 N 0.28826 0.93935 0.63368 0.0
N2443 N 0.31008 0.90362 0.60086 0.0
C2444 C 0.28265 0.9042 0.60182 0.0
C2445 C 0.27097 0.9235 0.6194 0.0
C2446 C 0.08926 0.27185 0.62384 0.0
C2447 C 0.08616 0.24378 0.62499 0.0
C2448 C 0.10752 0.28338 0.60577 0.0
C2449 C 0.1222 0.267 0.5879 0.0
H2450 H 0.076 0.28493 0.63531 0.0
H2451 H 0.10787 0.30516 0.60371 0.0
S2452 S 0.12393 0.19244 0.58593 0.0
N2453 N 0.10183 0.19979 0.60978 0.0
N2454 N 0.13521 0.22172 0.57461 0.0
C2455 C 0.12114 0.23895 0.59065 0.0
C2456 C 0.10325 0.2272 0.60964 0.0
C2457 C 0.77498 0.10259 0.6126 0.0
C2458 C 0.76033 0.07884 0.6181 0.0
C2459 C 0.76415 0.12256 0.59589 0.0
C2460 C 0.73815 0.1196 0.5853 0.0
H2461 H 0.79579 0.10461 0.61907 0.0
H2462 H 0.77673 0.1394 0.58982 0.0
S2463 S 0.69039 0.06323 0.59687 0.0
N2464 N 0.71779 0.05476 0.61391 0.0
N2465 N 0.69695 0.09299 0.58334 0.0
C2466 C 0.72237 0.09731 0.59283 0.0
C2467 C 0.73361 0.07668 0.60914 0.0
C2468 C 0.92052 0.26985 0.39138 0.0
C2469 C 0.92332 0.24173 0.3908 0.0
C2470 C 0.90173 0.28189 0.40854 0.0
C2471 C 0.8861 0.26605 0.42615 0.0
H2472 H 0.9341 0.28257 0.37988 0.0
H2473 H 0.90143 0.30372 0.41 0.0
S2474 S 0.88397 0.19153 0.42987 0.0
N2475 N 0.90695 0.19821 0.40667 0.0
N2476 N 0.87248 0.22112 0.44009 0.0
C2477 C 0.88725 0.23791 0.4242 0.0
C2478 C 0.90575 0.22563 0.40615 0.0
C2479 C 0.77853 0.90518 0.39926 0.0
C2480 C 0.76468 0.92792 0.38899 0.0
C2481 C 0.76572 0.88715 0.41656 0.0
C2482 C 0.73854 0.89065 0.42291 0.0
H2483 H 0.80006 0.90272 0.39637 0.0
H2484 H 0.77758 0.87174 0.42661 0.0
S2485 S 0.69146 0.94181 0.39545 0.0
N2486 N 0.72105 0.94958 0.3822 0.0
N2487 N 0.69668 0.91465 0.4141 0.0
C2488 C 0.72346 0.91062 0.40967 0.0
C2489 C 0.73663 0.92952 0.39261 0.0
C2490 C 0.10291 0.7822 0.39961 0.0
C2491 C 0.08553 0.76543 0.38467 0.0
C2492 C 0.12071 0.77117 0.41848 0.0
C2493 C 0.12215 0.74316 0.42201 0.0
H2494 H 0.10078 0.80396 0.39877 0.0
H2495 H 0.13196 0.78458 0.43163 0.0
S2496 S 0.08409 0.69083 0.38436 0.0
N2497 N 0.07278 0.7198 0.37231 0.0
N2498 N 0.10742 0.69878 0.40686 0.0
C2499 C 0.10708 0.72616 0.40499 0.0
C2500 C 0.08837 0.73742 0.38645 0.0
C2501 C 0.23734 0.12361 0.42656 0.0
C2502 C 0.26548 0.12375 0.42818 0.0
C2503 C 0.22429 0.10596 0.40906 0.0
C2504 C 0.23912 0.08728 0.39352 0.0
H2505 H 0.22539 0.13564 0.44037 0.0
H2506 H 0.20245 0.10518 0.40994 0.0
S2507 S 0.31349 0.08418 0.38675 0.0
N2508 N 0.30805 0.10773 0.40972 0.0
N2509 N 0.28333 0.07353 0.37724 0.0
C2510 C 0.26732 0.0895 0.39274 0.0
C2511 C 0.28061 0.10805 0.4101 0.0
C2512 C 0.60897 0.90556 0.78274 0.0
C2513 C 0.62363 0.92265 0.76546 0.0
C2514 C 0.59008 0.8875 0.77227 0.0
C2515 C 0.58627 0.88554 0.74434 0.0
H2516 H 0.60999 0.90816 0.80445 0.0
H2517 H 0.57706 0.87656 0.78602 0.0
S2518 S 0.62349 0.92241 0.69086 0.0
N2519 N 0.6357 0.93439 0.71951 0.0
N2520 N 0.60111 0.89924 0.69949 0.0
C2521 C 0.60317 0.90019 0.72686 0.0
C2522 C 0.62172 0.91917 0.73755 0.0
C2523 C 0.10002 0.60104 0.78794 0.0
C2524 C 0.08999 0.62342 0.77378 0.0
C2525 C 0.11686 0.58247 0.77512 0.0
C2526 C 0.12384 0.58605 0.74787 0.0
H2527 H 0.09237 0.59623 0.80787 0.0
H2528 H 0.12164 0.56387 0.78559 0.0
S2529 S 0.10963 0.64647 0.70572 0.0
N2530 N 0.09266 0.65161 0.73394 0.0
N2531 N 0.12561 0.6175 0.70989 0.0
C2532 C 0.11767 0.61089 0.73532 0.0
C2533 C 0.1001 0.6294 0.74824 0.0
C2534 C 0.38996 0.08938 0.73894 0.0
C2535 C 0.38805 0.08554 0.76686 0.0
C2536 C 0.40806 0.10824 0.7285 0.0
C2537 C 0.42526 0.12281 0.74579 0.0
H2538 H 0.37887 0.07647 0.72517 0.0
H2539 H 0.41054 0.10933 0.70678 0.0
S2540 S 0.42533 0.12231 0.8204 0.0
N2541 N 0.40202 0.10008 0.81173 0.0
N2542 N 0.43726 0.1346 0.79178 0.0
C2543 C 0.42192 0.12076 0.7737 0.0
C2544 C 0.40289 0.10225 0.78437 0.0
C2545 C 0.94517 0.42704 0.75395 0.0
C2546 C 0.93685 0.40086 0.76092 0.0
C2547 C 0.92645 0.44675 0.74734 0.0
C2548 C 0.89873 0.44093 0.74687 0.0
H2549 H 0.96627 0.4328 0.75462 0.0
H2550 H 0.93391 0.46662 0.74199 0.0
S2551 S 0.86658 0.37519 0.76199 0.0
N2552 N 0.89921 0.36982 0.76663 0.0
N2553 N 0.86367 0.40709 0.75258 0.0
C2554 C 0.89002 0.41468 0.7529 0.0
C2555 C 0.90919 0.39459 0.76039 0.0
C2556 C 0.61563 0.10408 0.24067 0.0
C2557 C 0.61712 0.07763 0.25126 0.0
C2558 C 0.59851 0.12323 0.25209 0.0
C2559 C 0.58344 0.11663 0.27489 0.0
H2560 H 0.62566 0.10929 0.22195 0.0
H2561 H 0.59559 0.14243 0.242 0.0
S2562 S 0.5849 0.05312 0.31424 0.0
N2563 N 0.60557 0.04775 0.28865 0.0
N2564 N 0.57395 0.08438 0.31056 0.0
C2565 C 0.58746 0.0918 0.28784 0.0
C2566 C 0.60446 0.0721 0.27601 0.0
C2567 C 0.91828 0.62437 0.26643 0.0
C2568 C 0.92263 0.62386 0.23852 0.0
C2569 C 0.89978 0.60671 0.27821 0.0
C2570 C 0.8861 0.58755 0.26234 0.0
H2571 H 0.9307 0.63694 0.27936 0.0
H2572 H 0.89852 0.60604 0.30005 0.0
S2573 S 0.88776 0.58102 0.188 0.0
N2574 N 0.9092 0.60564 0.19488 0.0
N2575 N 0.87532 0.57134 0.21738 0.0
C2576 C 0.88839 0.58863 0.23423 0.0
C2577 C 0.90655 0.60716 0.22216 0.0
C2578 C 0.3896 0.92609 0.27127 0.0
C2579 C 0.38685 0.92822 0.24321 0.0
C2580 C 0.40691 0.90686 0.28242 0.0
C2581 C 0.4225 0.89015 0.26564 0.0
H2582 H 0.37979 0.94051 0.28447 0.0
H2583 H 0.4102 0.90702 0.30406 0.0
S2584 S 0.42007 0.88605 0.19117 0.0
N2585 N 0.39837 0.91011 0.19903 0.0
N2586 N 0.43225 0.87488 0.22017 0.0
C2587 C 0.41833 0.89068 0.23774 0.0
C2588 C 0.40006 0.9096 0.22643 0.0
C2589 C 0.08689 0.39059 0.27146 0.0
C2590 C 0.08363 0.38884 0.24344 0.0
C2591 C 0.10614 0.40798 0.28242 0.0
C2592 C 0.12172 0.42462 0.26553 0.0
H2593 H 0.07333 0.37988 0.28488 0.0
H2594 H 0.10686 0.41044 0.30416 0.0
S2595 S 0.12271 0.42503 0.19093 0.0
N2596 N 0.09952 0.40245 0.19898 0.0
N2597 N 0.13482 0.43642 0.21986 0.0
C2598 C 0.12011 0.42147 0.23755 0.0
C2599 C 0.10117 0.40315 0.22638 0.0
C2600 C 0.72944 0.62823 0.93268 0.0
C2601 C 0.7573 0.63184 0.92984 0.0
C2602 C 0.71543 0.61164 0.91485 0.0
C2603 C 0.72925 0.5976 0.89437 0.0
H2604 H 0.71896 0.63618 0.95016 0.0
H2605 H 0.69444 0.60737 0.91928 0.0
S2606 S 0.8007 0.60652 0.87446 0.0
N2607 N 0.79707 0.62535 0.90173 0.0
N2608 N 0.77071 0.59316 0.86855 0.0
C2609 C 0.75623 0.60422 0.88904 0.0
C2610 C 0.77036 0.62167 0.90684 0.0
C2611 C 0.73781 0.3929 0.08602 0.0
C2612 C 0.76581 0.39056 0.08298 0.0
C2613 C 0.72706 0.41123 0.10449 0.0
C2614 C 0.74414 0.4282 0.11953 0.0
H2615 H 0.72425 0.38184 0.07285 0.0
H2616 H 0.70535 0.41394 0.10511 0.0
S2617 S 0.81872 0.4278 0.12078 0.0
N2618 N 0.81042 0.4044 0.0985 0.0
N2619 N 0.7899 0.44002 0.13227 0.0
C2620 C 0.77206 0.42472 0.11808 0.0
C2621 C 0.78302 0.40547 0.09997 0.0
C2622 C 0.62069 0.74379 0.0951 0.0
C2623 C 0.62006 0.77158 0.08995 0.0
C2624 C 0.60168 0.73211 0.11227 0.0
C2625 C 0.58109 0.74788 0.12376 0.0
H2626 H 0.6345 0.73083 0.08417 0.0
H2627 H 0.6014 0.71032 0.11424 0.0
S2628 S 0.57337 0.822 0.11935 0.0
N2629 N 0.59989 0.8151 0.10036 0.0
N2630 N 0.56314 0.79276 0.13172 0.0
C2631 C 0.58177 0.77594 0.12067 0.0
C2632 C 0.60164 0.78794 0.10391 0.0
C2633 C 0.2504 0.61528 0.09294 0.0
C2634 C 0.25295 0.61112 0.06492 0.0
C2635 C 0.25752 0.59502 0.1113 0.0
C2636 C 0.26646 0.56987 0.102 0.0
H2637 H 0.24217 0.63402 0.10065 0.0
H2638 H 0.25543 0.59877 0.13275 0.0
S2639 S 0.27931 0.54958 0.03107 0.0
N2640 N 0.26745 0.58061 0.02906 0.0
N2641 N 0.2799 0.54247 0.06358 0.0
C2642 C 0.27008 0.5658 0.07421 0.0
C2643 C 0.26362 0.58651 0.05562 0.0
C2644 C 0.38874 0.2722 0.08912 0.0
C2645 C 0.38706 0.24415 0.086 0.0
C2646 C 0.4068 0.28335 0.10766 0.0
C2647 C 0.42415 0.26663 0.12265 0.0
H2648 H 0.37768 0.28551 0.07571 0.0
H2649 H 0.40927 0.30509 0.10803 0.0
S2650 S 0.42453 0.19205 0.12448 0.0
N2651 N 0.40116 0.19987 0.10198 0.0
N2652 N 0.43631 0.22109 0.1359 0.0
C2653 C 0.42084 0.23864 0.12154 0.0
C2654 C 0.40186 0.22728 0.10335 0.0
C2655 C 0.27014 0.38379 0.92341 0.0
C2656 C 0.24198 0.38342 0.92492 0.0
C2657 C 0.28307 0.40098 0.90538 0.0
C2658 C 0.26807 0.41896 0.88916 0.0
H2659 H 0.28219 0.3725 0.93779 0.0
H2660 H 0.30488 0.40215 0.90647 0.0
S2661 S 0.19371 0.42053 0.88142 0.0
N2662 N 0.19932 0.39796 0.90534 0.0
N2663 N 0.22378 0.43128 0.87182 0.0
C2664 C 0.23992 0.41614 0.88807 0.0
C2665 C 0.22677 0.39806 0.906 0.0
C2666 C 0.61925 0.27019 0.91708 0.0
C2667 C 0.61931 0.24234 0.9218 0.0
C2668 C 0.60091 0.28145 0.89887 0.0
C2669 C 0.58162 0.26515 0.88585 0.0
H2670 H 0.63223 0.28343 0.92872 0.0
H2671 H 0.60015 0.30324 0.89701 0.0
S2672 S 0.57563 0.19084 0.88951 0.0
N2673 N 0.60085 0.19835 0.91004 0.0
N2674 N 0.56531 0.21986 0.87672 0.0
C2675 C 0.58281 0.23712 0.88895 0.0
C2676 C 0.60202 0.22558 0.9068 0.0
C2677 C 0.38975 0.74219 0.9175 0.0
C2678 C 0.39014 0.77006 0.92204 0.0
C2679 C 0.40728 0.73066 0.89874 0.0
C2680 C 0.42623 0.74672 0.88498 0.0
H2681 H 0.37723 0.72913 0.9298 0.0
H2682 H 0.40794 0.70885 0.89719 0.0
S2683 S 0.43265 0.82104 0.88762 0.0
N2684 N 0.4082 0.81386 0.90912 0.0
N2685 N 0.44234 0.79184 0.87476 0.0
C2686 C 0.42521 0.7748 0.88774 0.0
C2687 C 0.40678 0.78661 0.90617 0.0
loop_
_geom_bond_atom_site_label_1
_geom_bond_atom_site_label_2
_geom_bond_distance
_geom_bond_site_symmetry_2
_ccdc_geom_bond_type
O0 Zn1 1.953 . S
O0 C16 1.225 . S
Zn1 O0 1.953 . S
Zn1 O2 1.949 . S
Zn1 O8 1.919 . S
Zn1 O13 1.924 1_455 S
O2 Zn1 1.949 . S
O2 Zn3 1.923 . S
O2 Zn4 1.950 . S
O2 Zn5 1.945 1_455 S
Zn3 O2 1.923 . S
Zn3 O6 1.933 1_455 S
Zn3 O9 1.941 . S
Zn3 O10 1.965 . S
Zn4 O2 1.950 . S
Zn4 O11 1.938 . S
Zn4 O12 1.906 . S
Zn4 O22 1.953 . S
Zn5 O2 1.945 1_655 S
Zn5 O7 1.932 . S
Zn5 O14 1.977 . S
Zn5 O15 1.910 . S
O6 Zn3 1.933 1_655 S
O6 C17 1.226 . S
O7 Zn5 1.932 . S
O7 C17 1.307 . S
O8 Zn1 1.919 . S
O8 C19 1.253 . S
O9 Zn3 1.941 . S
O9 C19 1.283 . S
O10 Zn3 1.965 . S
O10 C18 1.303 . S
O11 Zn4 1.938 . S
O11 C18 1.247 . S
O12 Zn4 1.906 . S
O12 C20 1.304 . S
O13 Zn1 1.924 1_655 S
O13 C21 1.311 . S
O14 Zn5 1.977 . S
O14 C20 1.272 1_655 S
O15 Zn5 1.910 . S
O15 C21 1.231 . S
C16 O0 1.225 . S
C16 O22 1.298 . S
C17 O6 1.226 . S
C17 O7 1.307 . S
C18 O10 1.303 . S
C18 O11 1.247 . S
C19 O8 1.253 . S
C19 O9 1.283 . S
C20 O12 1.304 . S
C20 O14 1.272 1_455 S
C21 O13 1.311 . S
C21 O15 1.231 . S
O22 Zn4 1.953 . S
O22 C16 1.298 . S
O23 Zn24 1.953 1_565 S
O23 C39 1.225 . S
Zn24 O23 1.953 1_545 S
Zn24 O25 1.949 . S
Zn24 O31 1.919 . S
Zn24 O36 1.924 . S
O25 Zn24 1.949 . S
O25 Zn26 1.923 . S
O25 Zn27 1.950 1_545 S
O25 Zn28 1.945 . S
Zn26 O25 1.923 . S
Zn26 O29 1.933 . S
Zn26 O32 1.941 . S
Zn26 O33 1.965 . S
Zn27 O25 1.950 1_565 S
Zn27 O34 1.938 . S
Zn27 O35 1.906 . S
Zn27 O45 1.953 . S
Zn28 O25 1.945 . S
Zn28 O30 1.932 . S
Zn28 O37 1.977 1_545 S
Zn28 O38 1.910 . S
O29 Zn26 1.933 . S
O29 C40 1.226 . S
O30 Zn28 1.932 . S
O30 C40 1.307 . S
O31 Zn24 1.919 . S
O31 C42 1.253 . S
O32 Zn26 1.941 . S
O32 C42 1.283 . S
O33 Zn26 1.965 . S
O33 C41 1.303 . S
O34 Zn27 1.938 . S
O34 C41 1.247 1_565 S
O35 Zn27 1.906 . S
O35 C43 1.304 . S
O36 Zn24 1.924 . S
O36 C44 1.311 . S
O37 Zn28 1.977 1_565 S
O37 C43 1.272 . S
O38 Zn28 1.910 . S
O38 C44 1.231 . S
C39 O23 1.225 . S
C39 O45 1.298 . S
C40 O29 1.226 . S
C40 O30 1.307 . S
C41 O33 1.303 . S
C41 O34 1.247 1_545 S
C42 O31 1.253 . S
C42 O32 1.283 . S
C43 O35 1.304 . S
C43 O37 1.272 . S
C44 O36 1.311 . S
C44 O38 1.231 . S
O45 Zn27 1.953 . S
O45 C39 1.298 . S
O46 Zn47 1.953 1_655 S
O46 C62 1.225 . S
Zn47 O46 1.953 1_455 S
Zn47 O48 1.949 . S
Zn47 O54 1.919 . S
Zn47 O59 1.924 . S
O48 Zn47 1.949 . S
O48 Zn49 1.923 . S
O48 Zn50 1.950 1_455 S
O48 Zn51 1.945 . S
Zn49 O48 1.923 . S
Zn49 O52 1.933 . S
Zn49 O55 1.941 . S
Zn49 O56 1.965 1_455 S
Zn50 O48 1.950 1_655 S
Zn50 O57 1.938 . S
Zn50 O58 1.906 . S
Zn50 O68 1.953 . S
Zn51 O48 1.945 . S
Zn51 O53 1.932 . S
Zn51 O60 1.977 . S
Zn51 O61 1.910 . S
O52 Zn49 1.933 . S
O52 C63 1.226 . S
O53 Zn51 1.932 . S
O53 C63 1.307 . S
O54 Zn47 1.919 . S
O54 C65 1.253 . S
O55 Zn49 1.941 . S
O55 C65 1.283 . S
O56 Zn49 1.965 1_655 S
O56 C64 1.303 . S
O57 Zn50 1.938 . S
O57 C64 1.247 . S
O58 Zn50 1.906 . S
O58 C66 1.304 1_655 S
O59 Zn47 1.924 . S
O59 C67 1.311 . S
O60 Zn51 1.977 . S
O60 C66 1.272 . S
O61 Zn51 1.910 . S
O61 C67 1.231 . S
C62 O46 1.225 . S
C62 O68 1.298 . S
C63 O52 1.226 . S
C63 O53 1.307 . S
C64 O56 1.303 . S
C64 O57 1.247 . S
C65 O54 1.253 . S
C65 O55 1.283 . S
C66 O58 1.304 1_455 S
C66 O60 1.272 . S
C67 O59 1.311 . S
C67 O61 1.231 . S
O68 Zn50 1.953 . S
O68 C62 1.298 . S
O69 Zn70 1.953 . S
O69 C85 1.225 . S
Zn70 O69 1.953 . S
Zn70 O71 1.949 . S
Zn70 O77 1.919 1_545 S
Zn70 O82 1.924 . S
O71 Zn70 1.949 . S
O71 Zn72 1.923 1_545 S
O71 Zn73 1.950 . S
O71 Zn74 1.945 . S
Zn72 O71 1.923 1_565 S
Zn72 O75 1.933 . S
Zn72 O78 1.941 . S
Zn72 O79 1.965 . S
Zn73 O71 1.950 . S
Zn73 O80 1.938 . S
Zn73 O81 1.906 . S
Zn73 O91 1.953 . S
Zn74 O71 1.945 . S
Zn74 O76 1.932 1_545 S
Zn74 O83 1.977 . S
Zn74 O84 1.910 . S
O75 Zn72 1.933 . S
O75 C86 1.226 . S
O76 Zn74 1.932 1_565 S
O76 C86 1.307 . S
O77 Zn70 1.919 1_565 S
O77 C88 1.253 . S
O78 Zn72 1.941 . S
O78 C88 1.283 . S
O79 Zn72 1.965 . S
O79 C87 1.303 1_565 S
O80 Zn73 1.938 . S
O80 C87 1.247 . S
O81 Zn73 1.906 . S
O81 C89 1.304 . S
O82 Zn70 1.924 . S
O82 C90 1.311 . S
O83 Zn74 1.977 . S
O83 C89 1.272 . S
O84 Zn74 1.910 . S
O84 C90 1.231 . S
C85 O69 1.225 . S
C85 O91 1.298 . S
C86 O75 1.226 . S
C86 O76 1.307 . S
C87 O79 1.303 1_545 S
C87 O80 1.247 . S
C88 O77 1.253 . S
C88 O78 1.283 . S
C89 O81 1.304 . S
C89 O83 1.272 . S
C90 O82 1.311 . S
C90 O84 1.231 . S
O91 Zn73 1.953 . S
O91 C85 1.298 . S
O92 Zn93 1.953 . S
O92 C108 1.225 . S
Zn93 O92 1.953 . S
Zn93 O94 1.949 . S
Zn93 O100 1.919 . S
Zn93 O105 1.924 1_455 S
O94 Zn93 1.949 . S
O94 Zn95 1.923 . S
O94 Zn96 1.950 . S
O94 Zn97 1.945 1_455 S
Zn95 O94 1.923 . S
Zn95 O98 1.933 1_455 S
Zn95 O101 1.941 . S
Zn95 O102 1.965 . S
Zn96 O94 1.950 . S
Zn96 O103 1.938 . S
Zn96 O104 1.906 . S
Zn96 O114 1.953 . S
Zn97 O94 1.945 1_655 S
Zn97 O99 1.932 . S
Zn97 O106 1.977 . S
Zn97 O107 1.910 . S
O98 Zn95 1.933 1_655 S
O98 C109 1.226 . S
O99 Zn97 1.932 . S
O99 C109 1.307 . S
O100 Zn93 1.919 . S
O100 C111 1.253 . S
O101 Zn95 1.941 . S
O101 C111 1.283 . S
O102 Zn95 1.965 . S
O102 C110 1.303 . S
O103 Zn96 1.938 . S
O103 C110 1.247 . S
O104 Zn96 1.906 . S
O104 C112 1.304 . S
O105 Zn93 1.924 1_655 S
O105 C113 1.311 . S
O106 Zn97 1.977 . S
O106 C112 1.272 1_655 S
O107 Zn97 1.910 . S
O107 C113 1.231 . S
C108 O92 1.225 . S
C108 O114 1.298 . S
C109 O98 1.226 . S
C109 O99 1.307 . S
C110 O102 1.303 . S
C110 O103 1.247 . S
C111 O100 1.253 . S
C111 O101 1.283 . S
C112 O104 1.304 . S
C112 O106 1.272 1_455 S
C113 O105 1.311 . S
C113 O107 1.231 . S
O114 Zn96 1.953 . S
O114 C108 1.298 . S
O115 Zn116 1.953 . S
O115 C131 1.225 . S
Zn116 O115 1.953 . S
Zn116 O117 1.949 . S
Zn116 O123 1.919 . S
Zn116 O128 1.924 1_545 S
O117 Zn116 1.949 . S
O117 Zn118 1.923 . S
O117 Zn119 1.950 . S
O117 Zn120 1.945 1_545 S
Zn118 O117 1.923 . S
Zn118 O121 1.933 1_545 S
Zn118 O124 1.941 . S
Zn118 O125 1.965 . S
Zn119 O117 1.950 . S
Zn119 O126 1.938 . S
Zn119 O127 1.906 . S
Zn119 O137 1.953 . S
Zn120 O117 1.945 1_565 S
Zn120 O122 1.932 . S
Zn120 O129 1.977 . S
Zn120 O130 1.910 . S
O121 Zn118 1.933 1_565 S
O121 C132 1.226 . S
O122 Zn120 1.932 . S
O122 C132 1.307 . S
O123 Zn116 1.919 . S
O123 C134 1.253 . S
O124 Zn118 1.941 . S
O124 C134 1.283 . S
O125 Zn118 1.965 . S
O125 C133 1.303 . S
O126 Zn119 1.938 . S
O126 C133 1.247 . S
O127 Zn119 1.906 . S
O127 C135 1.304 . S
O128 Zn116 1.924 1_565 S
O128 C136 1.311 . S
O129 Zn120 1.977 . S
O129 C135 1.272 1_565 S
O130 Zn120 1.910 . S
O130 C136 1.231 . S
C131 O115 1.225 . S
C131 O137 1.298 . S
C132 O121 1.226 . S
C132 O122 1.307 . S
C133 O125 1.303 . S
C133 O126 1.247 . S
C134 O123 1.253 . S
C134 O124 1.283 . S
C135 O127 1.304 . S
C135 O129 1.272 1_545 S
C136 O128 1.311 . S
C136 O130 1.231 . S
O137 Zn119 1.953 . S
O137 C131 1.298 . S
O138 Zn139 1.953 1_655 S
O138 C154 1.225 . S
Zn139 O138 1.953 1_455 S
Zn139 O140 1.949 . S
Zn139 O146 1.919 . S
Zn139 O151 1.924 . S
O140 Zn139 1.949 . S
O140 Zn141 1.923 . S
O140 Zn142 1.950 1_455 S
O140 Zn143 1.945 . S
Zn141 O140 1.923 . S
Zn141 O144 1.933 . S
Zn141 O147 1.941 1_455 S
Zn141 O148 1.965 1_455 S
Zn142 O140 1.950 1_655 S
Zn142 O149 1.938 . S
Zn142 O150 1.906 . S
Zn142 O160 1.953 . S
Zn143 O140 1.945 . S
Zn143 O145 1.932 . S
Zn143 O152 1.977 . S
Zn143 O153 1.910 . S
O144 Zn141 1.933 . S
O144 C155 1.226 . S
O145 Zn143 1.932 . S
O145 C155 1.307 . S
O146 Zn139 1.919 . S
O146 C157 1.253 . S
O147 Zn141 1.941 1_655 S
O147 C157 1.282 1_655 S
O148 Zn141 1.965 1_655 S
O148 C156 1.303 . S
O149 Zn142 1.938 . S
O149 C156 1.247 . S
O150 Zn142 1.906 . S
O150 C158 1.304 1_655 S
O151 Zn139 1.924 . S
O151 C159 1.311 . S
O152 Zn143 1.977 . S
O152 C158 1.272 . S
O153 Zn143 1.910 . S
O153 C159 1.231 . S
C154 O138 1.225 . S
C154 O160 1.298 . S
C155 O144 1.226 . S
C155 O145 1.307 . S
C156 O148 1.303 . S
C156 O149 1.247 . S
C157 O146 1.253 . S
C157 O147 1.282 1_455 S
C158 O150 1.304 1_455 S
C158 O152 1.272 . S
C159 O151 1.311 . S
C159 O153 1.231 . S
O160 Zn142 1.953 . S
O160 C154 1.298 . S
O161 Zn162 1.953 1_565 S
O161 C177 1.225 . S
Zn162 O161 1.953 1_545 S
Zn162 O163 1.949 . S
Zn162 O169 1.919 . S
Zn162 O174 1.924 . S
O163 Zn162 1.949 . S
O163 Zn164 1.923 . S
O163 Zn165 1.950 1_545 S
O163 Zn166 1.945 . S
Zn164 O163 1.923 . S
Zn164 O167 1.933 . S
Zn164 O170 1.941 1_545 S
Zn164 O171 1.965 1_545 S
Zn165 O163 1.950 1_565 S
Zn165 O172 1.938 . S
Zn165 O173 1.906 . S
Zn165 O183 1.953 . S
Zn166 O163 1.945 . S
Zn166 O168 1.932 . S
Zn166 O175 1.977 . S
Zn166 O176 1.910 . S
O167 Zn164 1.933 . S
O167 C178 1.226 . S
O168 Zn166 1.932 . S
O168 C178 1.307 . S
O169 Zn162 1.919 . S
O169 C180 1.253 . S
O170 Zn164 1.941 1_565 S
O170 C180 1.282 1_565 S
O171 Zn164 1.965 1_565 S
O171 C179 1.303 . S
O172 Zn165 1.938 . S
O172 C179 1.247 . S
O173 Zn165 1.906 . S
O173 C181 1.304 1_565 S
O174 Zn162 1.924 . S
O174 C182 1.311 . S
O175 Zn166 1.977 . S
O175 C181 1.272 . S
O176 Zn166 1.910 . S
O176 C182 1.231 . S
C177 O161 1.225 . S
C177 O183 1.298 . S
C178 O167 1.226 . S
C178 O168 1.307 . S
C179 O171 1.303 . S
C179 O172 1.247 . S
C180 O169 1.253 . S
C180 O170 1.282 1_545 S
C181 O173 1.304 1_545 S
C181 O175 1.272 . S
C182 O174 1.311 . S
C182 O176 1.231 . S
O183 Zn165 1.953 . S
O183 C177 1.298 . S
O184 Zn185 1.953 . S
O184 C200 1.225 . S
Zn185 O184 1.953 . S
Zn185 O186 1.949 . S
Zn185 O192 1.919 . S
Zn185 O197 1.924 1_545 S
O186 Zn185 1.949 . S
O186 Zn187 1.923 . S
O186 Zn188 1.950 . S
O186 Zn189 1.945 1_545 S
Zn187 O186 1.923 . S
Zn187 O190 1.933 1_545 S
Zn187 O193 1.941 . S
Zn187 O194 1.965 . S
Zn188 O186 1.950 . S
Zn188 O195 1.938 . S
Zn188 O196 1.906 . S
Zn188 O206 1.953 . S
Zn189 O186 1.945 1_565 S
Zn189 O191 1.932 . S
Zn189 O198 1.977 . S
Zn189 O199 1.910 . S
O190 Zn187 1.933 1_565 S
O190 C201 1.226 . S
O191 Zn189 1.932 . S
O191 C201 1.307 . S
O192 Zn185 1.919 . S
O192 C203 1.253 . S
O193 Zn187 1.941 . S
O193 C203 1.283 . S
O194 Zn187 1.965 . S
O194 C202 1.303 . S
O195 Zn188 1.938 . S
O195 C202 1.247 . S
O196 Zn188 1.906 . S
O196 C204 1.304 . S
O197 Zn185 1.924 1_565 S
O197 C205 1.311 . S
O198 Zn189 1.977 . S
O198 C204 1.272 1_565 S
O199 Zn189 1.910 . S
O199 C205 1.231 . S
C200 O184 1.225 . S
C200 O206 1.298 . S
C201 O190 1.226 . S
C201 O191 1.307 . S
C202 O194 1.303 . S
C202 O195 1.247 . S
C203 O192 1.253 . S
C203 O193 1.283 . S
C204 O196 1.304 . S
C204 O198 1.272 1_545 S
C205 O197 1.311 . S
C205 O199 1.231 . S
O206 Zn188 1.953 . S
O206 C200 1.298 . S
O207 Zn208 1.953 1_655 S
O207 C223 1.225 . S
Zn208 O207 1.953 1_455 S
Zn208 O209 1.949 . S
Zn208 O215 1.919 . S
Zn208 O220 1.924 . S
O209 Zn208 1.949 . S
O209 Zn210 1.923 . S
O209 Zn211 1.950 1_455 S
O209 Zn212 1.945 . S
Zn210 O209 1.923 . S
Zn210 O213 1.933 . S
Zn210 O216 1.941 1_455 S
Zn210 O217 1.965 1_455 S
Zn211 O209 1.950 1_655 S
Zn211 O218 1.938 . S
Zn211 O219 1.906 . S
Zn211 O229 1.953 . S
Zn212 O209 1.945 . S
Zn212 O214 1.932 . S
Zn212 O221 1.977 . S
Zn212 O222 1.910 . S
O213 Zn210 1.933 . S
O213 C224 1.226 . S
O214 Zn212 1.932 . S
O214 C224 1.307 . S
O215 Zn208 1.919 . S
O215 C226 1.253 . S
O216 Zn210 1.941 1_655 S
O216 C226 1.283 1_655 S
O217 Zn210 1.965 1_655 S
O217 C225 1.303 . S
O218 Zn211 1.938 . S
O218 C225 1.247 . S
O219 Zn211 1.906 . S
O219 C227 1.304 1_655 S
O220 Zn208 1.924 . S
O220 C228 1.311 . S
O221 Zn212 1.977 . S
O221 C227 1.272 . S
O222 Zn212 1.910 . S
O222 C228 1.231 . S
C223 O207 1.225 . S
C223 O229 1.298 . S
C224 O213 1.226 . S
C224 O214 1.307 . S
C225 O217 1.303 . S
C225 O218 1.247 . S
C226 O215 1.253 . S
C226 O216 1.283 1_455 S
C227 O219 1.304 1_455 S
C227 O221 1.272 . S
C228 O220 1.311 . S
C228 O222 1.231 . S
O229 Zn211 1.953 . S
O229 C223 1.298 . S
O230 Zn231 1.953 . S
O230 C246 1.225 . S
Zn231 O230 1.953 . S
Zn231 O232 1.949 . S
Zn231 O238 1.919 1_545 S
Zn231 O243 1.924 . S
O232 Zn231 1.949 . S
O232 Zn233 1.923 1_545 S
O232 Zn234 1.950 . S
O232 Zn235 1.945 . S
Zn233 O232 1.923 1_565 S
Zn233 O236 1.933 . S
Zn233 O239 1.941 . S
Zn233 O240 1.965 . S
Zn234 O232 1.950 . S
Zn234 O241 1.938 . S
Zn234 O242 1.906 . S
Zn234 O252 1.953 . S
Zn235 O232 1.945 . S
Zn235 O237 1.932 1_545 S
Zn235 O244 1.977 . S
Zn235 O245 1.910 . S
O236 Zn233 1.933 . S
O236 C247 1.226 . S
O237 Zn235 1.932 1_565 S
O237 C247 1.307 . S
O238 Zn231 1.919 1_565 S
O238 C249 1.253 . S
O239 Zn233 1.941 . S
O239 C249 1.283 . S
O240 Zn233 1.965 . S
O240 C248 1.303 1_565 S
O241 Zn234 1.938 . S
O241 C248 1.247 . S
O242 Zn234 1.906 . S
O242 C250 1.304 . S
O243 Zn231 1.924 . S
O243 C251 1.311 . S
O244 Zn235 1.977 . S
O244 C250 1.272 . S
O245 Zn235 1.910 . S
O245 C251 1.231 . S
C246 O230 1.225 . S
C246 O252 1.298 . S
C247 O236 1.226 . S
C247 O237 1.307 . S
C248 O240 1.303 1_545 S
C248 O241 1.247 . S
C249 O238 1.253 . S
C249 O239 1.283 . S
C250 O242 1.304 . S
C250 O244 1.272 . S
C251 O243 1.311 . S
C251 O245 1.231 . S
O252 Zn234 1.953 . S
O252 C246 1.298 . S
O253 Zn254 1.953 . S
O253 C269 1.225 . S
Zn254 O253 1.953 . S
Zn254 O255 1.949 . S
Zn254 O261 1.919 . S
Zn254 O266 1.924 1_455 S
O255 Zn254 1.949 . S
O255 Zn256 1.923 . S
O255 Zn257 1.950 . S
O255 Zn258 1.945 1_455 S
Zn256 O255 1.923 . S
Zn256 O259 1.933 1_455 S
Zn256 O262 1.941 . S
Zn256 O263 1.965 . S
Zn257 O255 1.950 . S
Zn257 O264 1.938 . S
Zn257 O265 1.906 . S
Zn257 O275 1.953 . S
Zn258 O255 1.945 1_655 S
Zn258 O260 1.932 . S
Zn258 O267 1.977 . S
Zn258 O268 1.910 . S
O259 Zn256 1.933 1_655 S
O259 C270 1.226 . S
O260 Zn258 1.932 . S
O260 C270 1.307 . S
O261 Zn254 1.919 . S
O261 C272 1.253 . S
O262 Zn256 1.941 . S
O262 C272 1.283 . S
O263 Zn256 1.965 . S
O263 C271 1.303 . S
O264 Zn257 1.938 . S
O264 C271 1.247 . S
O265 Zn257 1.906 . S
O265 C273 1.304 . S
O266 Zn254 1.924 1_655 S
O266 C274 1.311 . S
O267 Zn258 1.977 . S
O267 C273 1.272 1_655 S
O268 Zn258 1.910 . S
O268 C274 1.231 . S
C269 O253 1.225 . S
C269 O275 1.298 . S
C270 O259 1.226 . S
C270 O260 1.307 . S
C271 O263 1.303 . S
C271 O264 1.247 . S
C272 O261 1.253 . S
C272 O262 1.283 . S
C273 O265 1.304 . S
C273 O267 1.272 1_455 S
C274 O266 1.311 . S
C274 O268 1.231 . S
O275 Zn257 1.953 . S
O275 C269 1.298 . S
O276 Zn277 1.953 1_565 S
O276 C292 1.225 . S
Zn277 O276 1.953 1_545 S
Zn277 O278 1.949 . S
Zn277 O284 1.919 . S
Zn277 O289 1.924 . S
O278 Zn277 1.949 . S
O278 Zn279 1.923 . S
O278 Zn280 1.950 1_545 S
O278 Zn281 1.945 . S
Zn279 O278 1.923 . S
Zn279 O282 1.933 . S
Zn279 O285 1.942 . S
Zn279 O286 1.965 1_545 S
Zn280 O278 1.950 1_565 S
Zn280 O287 1.938 . S
Zn280 O288 1.906 . S
Zn280 O298 1.953 . S
Zn281 O278 1.945 . S
Zn281 O283 1.932 . S
Zn281 O290 1.977 . S
Zn281 O291 1.910 . S
O282 Zn279 1.933 . S
O282 C293 1.226 . S
O283 Zn281 1.932 . S
O283 C293 1.307 . S
O284 Zn277 1.919 . S
O284 C295 1.253 . S
O285 Zn279 1.942 . S
O285 C295 1.286 . S
O286 Zn279 1.965 1_565 S
O286 C294 1.303 . S
O287 Zn280 1.938 . S
O287 C294 1.247 . S
O288 Zn280 1.906 . S
O288 C296 1.304 1_565 S
O289 Zn277 1.924 . S
O289 C297 1.311 . S
O290 Zn281 1.977 . S
O290 C296 1.272 . S
O291 Zn281 1.910 . S
O291 C297 1.231 . S
C292 O276 1.225 . S
C292 O298 1.298 . S
C293 O282 1.226 . S
C293 O283 1.307 . S
C294 O286 1.303 . S
C294 O287 1.247 . S
C295 O284 1.253 . S
C295 O285 1.286 . S
C296 O288 1.304 1_545 S
C296 O290 1.272 . S
C297 O289 1.311 . S
C297 O291 1.231 . S
O298 Zn280 1.953 . S
O298 C292 1.298 . S
O299 Zn300 1.953 . S
O299 C315 1.225 . S
Zn300 O299 1.953 . S
Zn300 O301 1.949 . S
Zn300 O307 1.919 . S
Zn300 O312 1.924 1_455 S
O301 Zn300 1.949 . S
O301 Zn302 1.923 . S
O301 Zn303 1.950 . S
O301 Zn304 1.945 1_455 S
Zn302 O301 1.923 . S
Zn302 O305 1.933 1_455 S
Zn302 O308 1.941 . S
Zn302 O309 1.965 . S
Zn303 O301 1.950 . S
Zn303 O310 1.938 . S
Zn303 O311 1.906 . S
Zn303 O321 1.953 . S
Zn304 O301 1.945 1_655 S
Zn304 O306 1.932 . S
Zn304 O313 1.977 . S
Zn304 O314 1.910 . S
O305 Zn302 1.933 1_655 S
O305 C316 1.226 . S
O306 Zn304 1.932 . S
O306 C316 1.307 . S
O307 Zn300 1.919 . S
O307 C318 1.253 . S
O308 Zn302 1.941 . S
O308 C318 1.283 . S
O309 Zn302 1.965 . S
O309 C317 1.303 . S
O310 Zn303 1.938 . S
O310 C317 1.247 . S
O311 Zn303 1.906 . S
O311 C319 1.304 . S
O312 Zn300 1.924 1_655 S
O312 C320 1.311 . S
O313 Zn304 1.977 . S
O313 C319 1.272 1_655 S
O314 Zn304 1.910 . S
O314 C320 1.231 . S
C315 O299 1.225 . S
C315 O321 1.298 . S
C316 O305 1.226 . S
C316 O306 1.307 . S
C317 O309 1.303 . S
C317 O310 1.247 . S
C318 O307 1.253 . S
C318 O308 1.283 . S
C319 O311 1.304 . S
C319 O313 1.272 1_455 S
C320 O312 1.311 . S
C320 O314 1.231 . S
O321 Zn303 1.953 . S
O321 C315 1.298 . S
O322 Zn323 1.953 . S
O322 C338 1.225 . S
Zn323 O322 1.953 . S
Zn323 O324 1.949 . S
Zn323 O330 1.919 . S
Zn323 O335 1.924 1_545 S
O324 Zn323 1.949 . S
O324 Zn325 1.923 . S
O324 Zn326 1.950 . S
O324 Zn327 1.945 1_545 S
Zn325 O324 1.923 . S
Zn325 O328 1.933 1_545 S
Zn325 O331 1.941 . S
Zn325 O332 1.965 . S
Zn326 O324 1.950 . S
Zn326 O333 1.938 . S
Zn326 O334 1.906 . S
Zn326 O344 1.953 . S
Zn327 O324 1.945 1_565 S
Zn327 O329 1.932 . S
Zn327 O336 1.977 . S
Zn327 O337 1.910 . S
O328 Zn325 1.933 1_565 S
O328 C339 1.226 . S
O329 Zn327 1.932 . S
O329 C339 1.307 . S
O330 Zn323 1.919 . S
O330 C341 1.253 . S
O331 Zn325 1.941 . S
O331 C341 1.283 . S
O332 Zn325 1.965 . S
O332 C340 1.303 . S
O333 Zn326 1.938 . S
O333 C340 1.247 . S
O334 Zn326 1.906 . S
O334 C342 1.304 . S
O335 Zn323 1.924 1_565 S
O335 C343 1.311 . S
O336 Zn327 1.977 . S
O336 C342 1.272 1_565 S
O337 Zn327 1.910 . S
O337 C343 1.231 . S
C338 O322 1.225 . S
C338 O344 1.298 . S
C339 O328 1.226 . S
C339 O329 1.307 . S
C340 O332 1.303 . S
C340 O333 1.247 . S
C341 O330 1.253 . S
C341 O331 1.283 . S
C342 O334 1.304 . S
C342 O336 1.272 1_545 S
C343 O335 1.311 . S
C343 O337 1.231 . S
O344 Zn326 1.953 . S
O344 C338 1.298 . S
O345 Zn346 1.953 1_655 S
O345 C361 1.225 . S
Zn346 O345 1.953 1_455 S
Zn346 O347 1.949 . S
Zn346 O353 1.919 . S
Zn346 O358 1.924 . S
O347 Zn346 1.949 . S
O347 Zn348 1.923 . S
O347 Zn349 1.950 1_455 S
O347 Zn350 1.945 . S
Zn348 O347 1.923 . S
Zn348 O351 1.933 . S
Zn348 O354 1.941 1_455 S
Zn348 O355 1.965 1_455 S
Zn349 O347 1.950 1_655 S
Zn349 O356 1.938 . S
Zn349 O357 1.906 . S
Zn349 O367 1.953 . S
Zn350 O347 1.945 . S
Zn350 O352 1.932 . S
Zn350 O359 1.977 . S
Zn350 O360 1.910 . S
O351 Zn348 1.933 . S
O351 C362 1.226 . S
O352 Zn350 1.932 . S
O352 C362 1.307 . S
O353 Zn346 1.919 . S
O353 C364 1.253 . S
O354 Zn348 1.941 1_655 S
O354 C364 1.282 1_655 S
O355 Zn348 1.965 1_655 S
O355 C363 1.303 . S
O356 Zn349 1.938 . S
O356 C363 1.247 . S
O357 Zn349 1.906 . S
O357 C365 1.304 1_655 S
O358 Zn346 1.924 . S
O358 C366 1.311 . S
O359 Zn350 1.977 . S
O359 C365 1.272 . S
O360 Zn350 1.910 . S
O360 C366 1.231 . S
C361 O345 1.225 . S
C361 O367 1.298 . S
C362 O351 1.226 . S
C362 O352 1.307 . S
C363 O355 1.303 . S
C363 O356 1.247 . S
C364 O353 1.253 . S
C364 O354 1.282 1_455 S
C365 O357 1.304 1_455 S
C365 O359 1.272 . S
C366 O358 1.311 . S
C366 O360 1.231 . S
O367 Zn349 1.953 . S
O367 C361 1.298 . S
O368 Zn369 1.953 . S
O368 C384 1.225 . S
Zn369 O368 1.953 . S
Zn369 O370 1.949 . S
Zn369 O376 1.919 . S
Zn369 O381 1.924 1_554 S
O370 Zn369 1.949 . S
O370 Zn371 1.923 . S
O370 Zn372 1.950 . S
O370 Zn373 1.945 1_554 S
Zn371 O370 1.923 . S
Zn371 O374 1.933 1_554 S
Zn371 O377 1.941 . S
Zn371 O378 1.965 . S
Zn372 O370 1.950 . S
Zn372 O379 1.938 . S
Zn372 O380 1.906 . S
Zn372 O390 1.953 . S
Zn373 O370 1.945 1_556 S
Zn373 O375 1.932 . S
Zn373 O382 1.977 . S
Zn373 O383 1.910 . S
O374 Zn371 1.933 1_556 S
O374 C385 1.226 . S
O375 Zn373 1.932 . S
O375 C385 1.307 . S
O376 Zn369 1.919 . S
O376 C387 1.253 . S
O377 Zn371 1.941 . S
O377 C387 1.283 . S
O378 Zn371 1.965 . S
O378 C386 1.303 . S
O379 Zn372 1.938 . S
O379 C386 1.247 . S
O380 Zn372 1.906 . S
O380 C388 1.304 . S
O381 Zn369 1.924 1_556 S
O381 C389 1.311 . S
O382 Zn373 1.977 . S
O382 C388 1.272 1_556 S
O383 Zn373 1.910 . S
O383 C389 1.231 . S
C384 O368 1.225 . S
C384 O390 1.298 . S
C385 O374 1.226 . S
C385 O375 1.307 . S
C386 O378 1.303 . S
C386 O379 1.247 . S
C387 O376 1.253 . S
C387 O377 1.283 . S
C388 O380 1.304 . S
C388 O382 1.272 1_554 S
C389 O381 1.311 . S
C389 O383 1.231 . S
O390 Zn372 1.953 . S
O390 C384 1.298 . S
O391 Zn392 1.953 1_556 S
O391 C407 1.225 . S
Zn392 O391 1.953 1_554 S
Zn392 O393 1.949 . S
Zn392 O399 1.919 . S
Zn392 O404 1.924 . S
O393 Zn392 1.949 . S
O393 Zn394 1.923 . S
O393 Zn395 1.950 1_554 S
O393 Zn396 1.945 . S
Zn394 O393 1.923 . S
Zn394 O397 1.933 . S
Zn394 O400 1.942 1_554 S
Zn394 O401 1.965 1_554 S
Zn395 O393 1.950 1_556 S
Zn395 O402 1.938 . S
Zn395 O403 1.906 . S
Zn395 O413 1.953 . S
Zn396 O393 1.945 . S
Zn396 O398 1.932 . S
Zn396 O405 1.977 . S
Zn396 O406 1.910 . S
O397 Zn394 1.933 . S
O397 C408 1.226 . S
O398 Zn396 1.932 . S
O398 C408 1.307 . S
O399 Zn392 1.919 . S
O399 C410 1.253 . S
O400 Zn394 1.942 1_556 S
O400 C410 1.284 1_556 S
O401 Zn394 1.965 1_556 S
O401 C409 1.303 . S
O402 Zn395 1.938 . S
O402 C409 1.247 . S
O403 Zn395 1.906 . S
O403 C411 1.304 1_556 S
O404 Zn392 1.924 . S
O404 C412 1.311 . S
O405 Zn396 1.977 . S
O405 C411 1.272 . S
O406 Zn396 1.910 . S
O406 C412 1.231 . S
C407 O391 1.225 . S
C407 O413 1.298 . S
C408 O397 1.226 . S
C408 O398 1.307 . S
C409 O401 1.303 . S
C409 O402 1.247 . S
C410 O399 1.253 . S
C410 O400 1.284 1_554 S
C411 O403 1.304 1_554 S
C411 O405 1.272 . S
C412 O404 1.311 . S
C412 O406 1.231 . S
O413 Zn395 1.953 . S
O413 C407 1.298 . S
O414 Zn415 1.953 1_556 S
O414 C430 1.225 . S
Zn415 O414 1.953 1_554 S
Zn415 O416 1.949 . S
Zn415 O422 1.919 . S
Zn415 O427 1.924 . S
O416 Zn415 1.949 . S
O416 Zn417 1.923 . S
O416 Zn418 1.950 1_554 S
O416 Zn419 1.945 . S
Zn417 O416 1.923 . S
Zn417 O420 1.933 . S
Zn417 O423 1.940 1_554 S
Zn417 O424 1.965 1_554 S
Zn418 O416 1.950 1_556 S
Zn418 O425 1.938 . S
Zn418 O426 1.906 . S
Zn418 O436 1.953 . S
Zn419 O416 1.945 . S
Zn419 O421 1.932 . S
Zn419 O428 1.977 . S
Zn419 O429 1.910 . S
O420 Zn417 1.933 . S
O420 C431 1.226 . S
O421 Zn419 1.932 . S
O421 C431 1.307 . S
O422 Zn415 1.919 . S
O422 C433 1.253 . S
O423 Zn417 1.940 1_556 S
O423 C433 1.278 1_556 S
O424 Zn417 1.965 1_556 S
O424 C432 1.303 . S
O425 Zn418 1.938 . S
O425 C432 1.247 . S
O426 Zn418 1.906 . S
O426 C434 1.304 1_556 S
O427 Zn415 1.924 . S
O427 C435 1.311 . S
O428 Zn419 1.977 . S
O428 C434 1.272 . S
O429 Zn419 1.910 . S
O429 C435 1.231 . S
C430 O414 1.225 . S
C430 O436 1.298 . S
C431 O420 1.226 . S
C431 O421 1.307 . S
C432 O424 1.303 . S
C432 O425 1.247 . S
C433 O422 1.253 . S
C433 O423 1.278 1_554 S
C434 O426 1.304 1_554 S
C434 O428 1.272 . S
C435 O427 1.311 . S
C435 O429 1.231 . S
O436 Zn418 1.953 . S
O436 C430 1.298 . S
O437 Zn438 1.953 1_556 S
O437 C453 1.225 . S
Zn438 O437 1.953 1_554 S
Zn438 O439 1.949 . S
Zn438 O445 1.919 . S
Zn438 O450 1.924 . S
O439 Zn438 1.949 . S
O439 Zn440 1.923 . S
O439 Zn441 1.950 1_554 S
O439 Zn442 1.945 . S
Zn440 O439 1.923 . S
Zn440 O443 1.933 . S
Zn440 O446 1.941 . S
Zn440 O447 1.965 1_554 S
Zn441 O439 1.950 1_556 S
Zn441 O448 1.938 . S
Zn441 O449 1.906 . S
Zn441 O459 1.953 . S
Zn442 O439 1.945 . S
Zn442 O444 1.932 . S
Zn442 O451 1.977 . S
Zn442 O452 1.910 . S
O443 Zn440 1.933 . S
O443 C454 1.226 . S
O444 Zn442 1.932 . S
O444 C454 1.307 . S
O445 Zn438 1.919 . S
O445 C456 1.253 . S
O446 Zn440 1.941 . S
O446 C456 1.283 . S
O447 Zn440 1.965 1_556 S
O447 C455 1.303 . S
O448 Zn441 1.938 . S
O448 C455 1.247 . S
O449 Zn441 1.906 . S
O449 C457 1.304 1_556 S
O450 Zn438 1.924 . S
O450 C458 1.311 . S
O451 Zn442 1.977 . S
O451 C457 1.272 . S
O452 Zn442 1.910 . S
O452 C458 1.231 . S
C453 O437 1.225 . S
C453 O459 1.298 . S
C454 O443 1.226 . S
C454 O444 1.307 . S
C455 O447 1.303 . S
C455 O448 1.247 . S
C456 O445 1.253 . S
C456 O446 1.283 . S
C457 O449 1.304 1_554 S
C457 O451 1.272 . S
C458 O450 1.311 . S
C458 O452 1.231 . S
O459 Zn441 1.953 . S
O459 C453 1.298 . S
O460 Zn461 1.953 1_556 S
O460 C476 1.225 . S
Zn461 O460 1.953 1_554 S
Zn461 O462 1.949 . S
Zn461 O468 1.919 . S
Zn461 O473 1.924 . S
O462 Zn461 1.949 . S
O462 Zn463 1.923 . S
O462 Zn464 1.950 1_554 S
O462 Zn465 1.945 . S
Zn463 O462 1.923 . S
Zn463 O466 1.933 . S
Zn463 O469 1.941 1_554 S
Zn463 O470 1.965 1_554 S
Zn464 O462 1.950 1_556 S
Zn464 O471 1.938 . S
Zn464 O472 1.906 . S
Zn464 O482 1.953 . S
Zn465 O462 1.945 . S
Zn465 O467 1.932 . S
Zn465 O474 1.977 . S
Zn465 O475 1.910 . S
O466 Zn463 1.933 . S
O466 C477 1.226 . S
O467 Zn465 1.932 . S
O467 C477 1.307 . S
O468 Zn461 1.919 . S
O468 C479 1.253 . S
O469 Zn463 1.941 1_556 S
O469 C479 1.281 1_556 S
O470 Zn463 1.965 1_556 S
O470 C478 1.303 . S
O471 Zn464 1.938 . S
O471 C478 1.247 . S
O472 Zn464 1.906 . S
O472 C480 1.304 1_556 S
O473 Zn461 1.924 . S
O473 C481 1.311 . S
O474 Zn465 1.977 . S
O474 C480 1.272 . S
O475 Zn465 1.910 . S
O475 C481 1.231 . S
C476 O460 1.225 . S
C476 O482 1.298 . S
C477 O466 1.226 . S
C477 O467 1.307 . S
C478 O470 1.303 . S
C478 O471 1.247 . S
C479 O468 1.253 . S
C479 O469 1.281 1_554 S
C480 O472 1.304 1_554 S
C480 O474 1.272 . S
C481 O473 1.311 . S
C481 O475 1.231 . S
O482 Zn464 1.953 . S
O482 C476 1.298 . S
O483 Zn484 1.953 . S
O483 C499 1.225 . S
Zn484 O483 1.953 . S
Zn484 O485 1.949 . S
Zn484 O491 1.919 . S
Zn484 O496 1.924 1_554 S
O485 Zn484 1.949 . S
O485 Zn486 1.923 . S
O485 Zn487 1.950 . S
O485 Zn488 1.945 1_554 S
Zn486 O485 1.923 . S
Zn486 O489 1.933 1_554 S
Zn486 O492 1.941 . S
Zn486 O493 1.965 . S
Zn487 O485 1.950 . S
Zn487 O494 1.938 . S
Zn487 O495 1.906 . S
Zn487 O505 1.953 . S
Zn488 O485 1.945 1_556 S
Zn488 O490 1.932 . S
Zn488 O497 1.977 . S
Zn488 O498 1.910 . S
O489 Zn486 1.933 1_556 S
O489 C500 1.226 . S
O490 Zn488 1.932 . S
O490 C500 1.307 . S
O491 Zn484 1.919 . S
O491 C502 1.253 . S
O492 Zn486 1.941 . S
O492 C502 1.283 . S
O493 Zn486 1.965 . S
O493 C501 1.303 . S
O494 Zn487 1.938 . S
O494 C501 1.247 . S
O495 Zn487 1.906 . S
O495 C503 1.304 . S
O496 Zn484 1.924 1_556 S
O496 C504 1.311 . S
O497 Zn488 1.977 . S
O497 C503 1.272 1_556 S
O498 Zn488 1.910 . S
O498 C504 1.231 . S
C499 O483 1.225 . S
C499 O505 1.298 . S
C500 O489 1.226 . S
C500 O490 1.307 . S
C501 O493 1.303 . S
C501 O494 1.247 . S
C502 O491 1.253 . S
C502 O492 1.283 . S
C503 O495 1.304 . S
C503 O497 1.272 1_554 S
C504 O496 1.311 . S
C504 O498 1.231 . S
O505 Zn487 1.953 . S
O505 C499 1.298 . S
O506 Zn507 1.953 . S
O506 C522 1.225 . S
Zn507 O506 1.953 . S
Zn507 O508 1.949 . S
Zn507 O514 1.919 . S
Zn507 O519 1.924 1_554 S
O508 Zn507 1.949 . S
O508 Zn509 1.923 . S
O508 Zn510 1.950 . S
O508 Zn511 1.945 1_554 S
Zn509 O508 1.923 . S
Zn509 O512 1.933 1_554 S
Zn509 O515 1.941 . S
Zn509 O516 1.965 . S
Zn510 O508 1.950 . S
Zn510 O517 1.938 . S
Zn510 O518 1.906 . S
Zn510 O528 1.953 . S
Zn511 O508 1.945 1_556 S
Zn511 O513 1.932 . S
Zn511 O520 1.977 . S
Zn511 O521 1.910 . S
O512 Zn509 1.933 1_556 S
O512 C523 1.226 . S
O513 Zn511 1.932 . S
O513 C523 1.307 . S
O514 Zn507 1.919 . S
O514 C525 1.253 . S
O515 Zn509 1.941 . S
O515 C525 1.283 . S
O516 Zn509 1.965 . S
O516 C524 1.303 . S
O517 Zn510 1.938 . S
O517 C524 1.247 . S
O518 Zn510 1.906 . S
O518 C526 1.304 . S
O519 Zn507 1.924 1_556 S
O519 C527 1.311 . S
O520 Zn511 1.977 . S
O520 C526 1.272 1_556 S
O521 Zn511 1.910 . S
O521 C527 1.231 . S
C522 O506 1.225 . S
C522 O528 1.298 . S
C523 O512 1.226 . S
C523 O513 1.307 . S
C524 O516 1.303 . S
C524 O517 1.247 . S
C525 O514 1.253 . S
C525 O515 1.283 . S
C526 O518 1.304 . S
C526 O520 1.272 1_554 S
C527 O519 1.311 . S
C527 O521 1.231 . S
O528 Zn510 1.953 . S
O528 C522 1.298 . S
O529 Zn530 1.953 . S
O529 C545 1.225 . S
Zn530 O529 1.953 . S
Zn530 O531 1.949 . S
Zn530 O537 1.919 . S
Zn530 O542 1.924 1_554 S
O531 Zn530 1.949 . S
O531 Zn532 1.923 . S
O531 Zn533 1.950 . S
O531 Zn534 1.945 1_554 S
Zn532 O531 1.923 . S
Zn532 O535 1.933 1_554 S
Zn532 O538 1.941 . S
Zn532 O539 1.965 . S
Zn533 O531 1.950 . S
Zn533 O540 1.938 . S
Zn533 O541 1.906 . S
Zn533 O551 1.953 . S
Zn534 O531 1.945 1_556 S
Zn534 O536 1.932 . S
Zn534 O543 1.977 . S
Zn534 O544 1.910 . S
O535 Zn532 1.933 1_556 S
O535 C546 1.226 . S
O536 Zn534 1.932 . S
O536 C546 1.307 . S
O537 Zn530 1.919 . S
O537 C548 1.253 . S
O538 Zn532 1.941 . S
O538 C548 1.283 . S
O539 Zn532 1.965 . S
O539 C547 1.303 . S
O540 Zn533 1.938 . S
O540 C547 1.247 . S
O541 Zn533 1.906 . S
O541 C549 1.304 . S
O542 Zn530 1.924 1_556 S
O542 C550 1.311 . S
O543 Zn534 1.977 . S
O543 C549 1.272 1_556 S
O544 Zn534 1.910 . S
O544 C550 1.231 . S
C545 O529 1.225 . S
C545 O551 1.298 . S
C546 O535 1.226 . S
C546 O536 1.307 . S
C547 O539 1.303 . S
C547 O540 1.247 . S
C548 O537 1.253 . S
C548 O538 1.283 . S
C549 O541 1.304 . S
C549 O543 1.272 1_554 S
C550 O542 1.311 . S
C550 O544 1.231 . S
O551 Zn533 1.953 . S
O551 C545 1.298 . S
O552 Zn553 1.953 . S
O552 C568 1.225 . S
Zn553 O552 1.953 . S
Zn553 O554 1.949 . S
Zn553 O560 1.919 . S
Zn553 O565 1.924 . S
O554 Zn553 1.949 . S
O554 Zn555 1.923 . S
O554 Zn556 1.950 . S
O554 Zn557 1.945 . S
Zn555 O554 1.923 . S
Zn555 O558 1.933 . S
Zn555 O561 1.941 . S
Zn555 O562 1.965 . S
Zn556 O554 1.950 . S
Zn556 O563 1.938 . S
Zn556 O564 1.906 . S
Zn556 O574 1.953 . S
Zn557 O554 1.945 . S
Zn557 O559 1.932 . S
Zn557 O566 1.977 . S
Zn557 O567 1.910 . S
O558 Zn555 1.933 . S
O558 C569 1.226 . S
O559 Zn557 1.932 . S
O559 C569 1.307 . S
O560 Zn553 1.919 . S
O560 C571 1.253 . S
O561 Zn555 1.941 . S
O561 C571 1.283 . S
O562 Zn555 1.965 . S
O562 C570 1.303 . S
O563 Zn556 1.938 . S
O563 C570 1.247 . S
O564 Zn556 1.906 . S
O564 C572 1.304 . S
O565 Zn553 1.924 . S
O565 C573 1.311 . S
O566 Zn557 1.977 . S
O566 C572 1.272 . S
O567 Zn557 1.910 . S
O567 C573 1.231 . S
C568 O552 1.225 . S
C568 O574 1.298 . S
C569 O558 1.226 . S
C569 O559 1.307 . S
C570 O562 1.303 . S
C570 O563 1.247 . S
C571 O560 1.253 . S
C571 O561 1.283 . S
C572 O564 1.304 . S
C572 O566 1.272 . S
C573 O565 1.311 . S
C573 O567 1.231 . S
O574 Zn556 1.953 . S
O574 C568 1.298 . S
O575 Zn576 1.953 . S
O575 C591 1.225 . S
Zn576 O575 1.953 . S
Zn576 O577 1.949 . S
Zn576 O583 1.919 . S
Zn576 O588 1.924 . S
O577 Zn576 1.949 . S
O577 Zn578 1.923 . S
O577 Zn579 1.950 . S
O577 Zn580 1.945 . S
Zn578 O577 1.923 . S
Zn578 O581 1.933 . S
Zn578 O584 1.941 . S
Zn578 O585 1.965 . S
Zn579 O577 1.950 . S
Zn579 O586 1.938 . S
Zn579 O587 1.906 . S
Zn579 O597 1.953 . S
Zn580 O577 1.945 . S
Zn580 O582 1.932 . S
Zn580 O589 1.977 . S
Zn580 O590 1.910 . S
O581 Zn578 1.933 . S
O581 C592 1.226 . S
O582 Zn580 1.932 . S
O582 C592 1.307 . S
O583 Zn576 1.919 . S
O583 C594 1.253 . S
O584 Zn578 1.941 . S
O584 C594 1.283 . S
O585 Zn578 1.965 . S
O585 C593 1.303 . S
O586 Zn579 1.938 . S
O586 C593 1.247 . S
O587 Zn579 1.906 . S
O587 C595 1.304 . S
O588 Zn576 1.924 . S
O588 C596 1.311 . S
O589 Zn580 1.977 . S
O589 C595 1.272 . S
O590 Zn580 1.910 . S
O590 C596 1.231 . S
C591 O575 1.225 . S
C591 O597 1.298 . S
C592 O581 1.226 . S
C592 O582 1.307 . S
C593 O585 1.303 . S
C593 O586 1.247 . S
C594 O583 1.253 . S
C594 O584 1.283 . S
C595 O587 1.304 . S
C595 O589 1.272 . S
C596 O588 1.311 . S
C596 O590 1.231 . S
O597 Zn579 1.953 . S
O597 C591 1.298 . S
O598 Zn599 1.953 . S
O598 C614 1.225 . S
Zn599 O598 1.953 . S
Zn599 O600 1.949 . S
Zn599 O606 1.919 . S
Zn599 O611 1.924 . S
O600 Zn599 1.949 . S
O600 Zn601 1.923 . S
O600 Zn602 1.950 . S
O600 Zn603 1.945 . S
Zn601 O600 1.923 . S
Zn601 O604 1.933 . S
Zn601 O607 1.941 . S
Zn601 O608 1.965 . S
Zn602 O600 1.950 . S
Zn602 O609 1.938 . S
Zn602 O610 1.906 . S
Zn602 O620 1.953 . S
Zn603 O600 1.945 . S
Zn603 O605 1.932 . S
Zn603 O612 1.977 . S
Zn603 O613 1.910 . S
O604 Zn601 1.933 . S
O604 C615 1.226 . S
O605 Zn603 1.932 . S
O605 C615 1.307 . S
O606 Zn599 1.919 . S
O606 C617 1.253 . S
O607 Zn601 1.941 . S
O607 C617 1.283 . S
O608 Zn601 1.965 . S
O608 C616 1.303 . S
O609 Zn602 1.938 . S
O609 C616 1.247 . S
O610 Zn602 1.906 . S
O610 C618 1.304 . S
O611 Zn599 1.924 . S
O611 C619 1.311 . S
O612 Zn603 1.977 . S
O612 C618 1.272 . S
O613 Zn603 1.910 . S
O613 C619 1.231 . S
C614 O598 1.225 . S
C614 O620 1.298 . S
C615 O604 1.226 . S
C615 O605 1.307 . S
C616 O608 1.303 . S
C616 O609 1.247 . S
C617 O606 1.253 . S
C617 O607 1.283 . S
C618 O610 1.304 . S
C618 O612 1.272 . S
C619 O611 1.311 . S
C619 O613 1.231 . S
O620 Zn602 1.953 . S
O620 C614 1.298 . S
O621 Zn622 1.953 . S
O621 C637 1.225 . S
Zn622 O621 1.953 . S
Zn622 O623 1.949 . S
Zn622 O629 1.919 . S
Zn622 O634 1.924 . S
O623 Zn622 1.949 . S
O623 Zn624 1.923 . S
O623 Zn625 1.950 . S
O623 Zn626 1.945 . S
Zn624 O623 1.923 . S
Zn624 O627 1.933 . S
Zn624 O630 1.941 . S
Zn624 O631 1.965 . S
Zn625 O623 1.950 . S
Zn625 O632 1.938 . S
Zn625 O633 1.906 . S
Zn625 O643 1.953 . S
Zn626 O623 1.945 . S
Zn626 O628 1.932 . S
Zn626 O635 1.977 . S
Zn626 O636 1.910 . S
O627 Zn624 1.933 . S
O627 C638 1.226 . S
O628 Zn626 1.932 . S
O628 C638 1.307 . S
O629 Zn622 1.919 . S
O629 C640 1.253 . S
O630 Zn624 1.941 . S
O630 C640 1.283 . S
O631 Zn624 1.965 . S
O631 C639 1.303 . S
O632 Zn625 1.938 . S
O632 C639 1.247 . S
O633 Zn625 1.906 . S
O633 C641 1.304 . S
O634 Zn622 1.924 . S
O634 C642 1.311 . S
O635 Zn626 1.977 . S
O635 C641 1.272 . S
O636 Zn626 1.910 . S
O636 C642 1.231 . S
C637 O621 1.225 . S
C637 O643 1.298 . S
C638 O627 1.226 . S
C638 O628 1.307 . S
C639 O631 1.303 . S
C639 O632 1.247 . S
C640 O629 1.253 . S
C640 O630 1.283 . S
C641 O633 1.304 . S
C641 O635 1.272 . S
C642 O634 1.311 . S
C642 O636 1.231 . S
O643 Zn625 1.953 . S
O643 C637 1.298 . S
O644 Zn645 1.953 . S
O644 C660 1.225 . S
Zn645 O644 1.953 . S
Zn645 O646 1.949 . S
Zn645 O652 1.919 . S
Zn645 O657 1.924 . S
O646 Zn645 1.949 . S
O646 Zn647 1.923 . S
O646 Zn648 1.950 . S
O646 Zn649 1.945 . S
Zn647 O646 1.923 . S
Zn647 O650 1.933 . S
Zn647 O653 1.941 . S
Zn647 O654 1.965 . S
Zn648 O646 1.950 . S
Zn648 O655 1.938 . S
Zn648 O656 1.906 . S
Zn648 O666 1.953 . S
Zn649 O646 1.945 . S
Zn649 O651 1.932 . S
Zn649 O658 1.977 . S
Zn649 O659 1.910 . S
O650 Zn647 1.933 . S
O650 C661 1.226 . S
O651 Zn649 1.932 . S
O651 C661 1.307 . S
O652 Zn645 1.919 . S
O652 C663 1.253 . S
O653 Zn647 1.941 . S
O653 C663 1.283 . S
O654 Zn647 1.965 . S
O654 C662 1.303 . S
O655 Zn648 1.938 . S
O655 C662 1.247 . S
O656 Zn648 1.906 . S
O656 C664 1.304 . S
O657 Zn645 1.924 . S
O657 C665 1.311 . S
O658 Zn649 1.977 . S
O658 C664 1.272 . S
O659 Zn649 1.910 . S
O659 C665 1.231 . S
C660 O644 1.225 . S
C660 O666 1.298 . S
C661 O650 1.226 . S
C661 O651 1.307 . S
C662 O654 1.303 . S
C662 O655 1.247 . S
C663 O652 1.253 . S
C663 O653 1.283 . S
C664 O656 1.304 . S
C664 O658 1.272 . S
C665 O657 1.311 . S
C665 O659 1.231 . S
O666 Zn648 1.953 . S
O666 C660 1.298 . S
O667 Zn668 1.953 . S
O667 C683 1.225 . S
Zn668 O667 1.953 . S
Zn668 O669 1.949 . S
Zn668 O675 1.919 . S
Zn668 O680 1.924 . S
O669 Zn668 1.949 . S
O669 Zn670 1.923 . S
O669 Zn671 1.950 . S
O669 Zn672 1.945 . S
Zn670 O669 1.923 . S
Zn670 O673 1.933 . S
Zn670 O676 1.941 . S
Zn670 O677 1.965 . S
Zn671 O669 1.950 . S
Zn671 O678 1.938 . S
Zn671 O679 1.906 . S
Zn671 O689 1.953 . S
Zn672 O669 1.945 . S
Zn672 O674 1.932 . S
Zn672 O681 1.977 . S
Zn672 O682 1.910 . S
O673 Zn670 1.933 . S
O673 C684 1.226 . S
O674 Zn672 1.932 . S
O674 C684 1.307 . S
O675 Zn668 1.919 . S
O675 C686 1.253 . S
O676 Zn670 1.941 . S
O676 C686 1.283 . S
O677 Zn670 1.965 . S
O677 C685 1.303 . S
O678 Zn671 1.938 . S
O678 C685 1.247 . S
O679 Zn671 1.906 . S
O679 C687 1.304 . S
O680 Zn668 1.924 . S
O680 C688 1.311 . S
O681 Zn672 1.977 . S
O681 C687 1.272 . S
O682 Zn672 1.910 . S
O682 C688 1.231 . S
C683 O667 1.225 . S
C683 O689 1.298 . S
C684 O673 1.226 . S
C684 O674 1.307 . S
C685 O677 1.303 . S
C685 O678 1.247 . S
C686 O675 1.253 . S
C686 O676 1.283 . S
C687 O679 1.304 . S
C687 O681 1.272 . S
C688 O680 1.311 . S
C688 O682 1.231 . S
O689 Zn671 1.953 . S
O689 C683 1.298 . S
O690 Zn691 1.953 . S
O690 C706 1.225 . S
Zn691 O690 1.953 . S
Zn691 O692 1.949 . S
Zn691 O698 1.919 . S
Zn691 O703 1.924 . S
O692 Zn691 1.949 . S
O692 Zn693 1.923 . S
O692 Zn694 1.950 . S
O692 Zn695 1.945 . S
Zn693 O692 1.923 . S
Zn693 O696 1.933 . S
Zn693 O699 1.941 . S
Zn693 O700 1.965 . S
Zn694 O692 1.950 . S
Zn694 O701 1.938 . S
Zn694 O702 1.906 . S
Zn694 O712 1.953 . S
Zn695 O692 1.945 . S
Zn695 O697 1.932 . S
Zn695 O704 1.977 . S
Zn695 O705 1.910 . S
O696 Zn693 1.933 . S
O696 C707 1.226 . S
O697 Zn695 1.932 . S
O697 C707 1.307 . S
O698 Zn691 1.919 . S
O698 C709 1.253 . S
O699 Zn693 1.941 . S
O699 C709 1.283 . S
O700 Zn693 1.965 . S
O700 C708 1.303 . S
O701 Zn694 1.938 . S
O701 C708 1.247 . S
O702 Zn694 1.906 . S
O702 C710 1.304 . S
O703 Zn691 1.924 . S
O703 C711 1.311 . S
O704 Zn695 1.977 . S
O704 C710 1.272 . S
O705 Zn695 1.910 . S
O705 C711 1.231 . S
C706 O690 1.225 . S
C706 O712 1.298 . S
C707 O696 1.226 . S
C707 O697 1.307 . S
C708 O700 1.303 . S
C708 O701 1.247 . S
C709 O698 1.253 . S
C709 O699 1.283 . S
C710 O702 1.304 . S
C710 O704 1.272 . S
C711 O703 1.311 . S
C711 O705 1.231 . S
O712 Zn694 1.953 . S
O712 C706 1.298 . S
O713 Zn714 1.953 . S
O713 C729 1.225 . S
Zn714 O713 1.953 . S
Zn714 O715 1.949 . S
Zn714 O721 1.919 . S
Zn714 O726 1.924 . S
O715 Zn714 1.949 . S
O715 Zn716 1.923 . S
O715 Zn717 1.950 . S
O715 Zn718 1.945 . S
Zn716 O715 1.923 . S
Zn716 O719 1.933 . S
Zn716 O722 1.941 . S
Zn716 O723 1.965 . S
Zn717 O715 1.950 . S
Zn717 O724 1.938 . S
Zn717 O725 1.906 . S
Zn717 O735 1.953 . S
Zn718 O715 1.945 . S
Zn718 O720 1.932 . S
Zn718 O727 1.977 . S
Zn718 O728 1.910 . S
O719 Zn716 1.933 . S
O719 C730 1.226 . S
O720 Zn718 1.932 . S
O720 C730 1.307 . S
O721 Zn714 1.919 . S
O721 C732 1.253 . S
O722 Zn716 1.941 . S
O722 C732 1.283 . S
O723 Zn716 1.965 . S
O723 C731 1.303 . S
O724 Zn717 1.938 . S
O724 C731 1.247 . S
O725 Zn717 1.906 . S
O725 C733 1.304 . S
O726 Zn714 1.924 . S
O726 C734 1.311 . S
O727 Zn718 1.977 . S
O727 C733 1.272 . S
O728 Zn718 1.910 . S
O728 C734 1.231 . S
C729 O713 1.225 . S
C729 O735 1.298 . S
C730 O719 1.226 . S
C730 O720 1.307 . S
C731 O723 1.303 . S
C731 O724 1.247 . S
C732 O721 1.253 . S
C732 O722 1.283 . S
C733 O725 1.304 . S
C733 O727 1.272 . S
C734 O726 1.311 . S
C734 O728 1.231 . S
O735 Zn717 1.953 . S
O735 C729 1.298 . S
O736 Zn737 1.953 . S
O736 C752 1.225 . S
Zn737 O736 1.953 . S
Zn737 O738 1.949 . S
Zn737 O744 1.919 . S
Zn737 O749 1.924 . S
O738 Zn737 1.949 . S
O738 Zn739 1.923 . S
O738 Zn740 1.950 . S
O738 Zn741 1.945 . S
Zn739 O738 1.923 . S
Zn739 O742 1.933 . S
Zn739 O745 1.941 . S
Zn739 O746 1.965 . S
Zn740 O738 1.950 . S
Zn740 O747 1.938 . S
Zn740 O748 1.906 . S
Zn740 O758 1.953 . S
Zn741 O738 1.945 . S
Zn741 O743 1.932 . S
Zn741 O750 1.977 . S
Zn741 O751 1.910 . S
O742 Zn739 1.933 . S
O742 C753 1.226 . S
O743 Zn741 1.932 . S
O743 C753 1.307 . S
O744 Zn737 1.919 . S
O744 C755 1.253 . S
O745 Zn739 1.941 . S
O745 C755 1.283 . S
O746 Zn739 1.965 . S
O746 C754 1.303 . S
O747 Zn740 1.938 . S
O747 C754 1.247 . S
O748 Zn740 1.906 . S
O748 C756 1.304 . S
O749 Zn737 1.924 . S
O749 C757 1.311 . S
O750 Zn741 1.977 . S
O750 C756 1.272 . S
O751 Zn741 1.910 . S
O751 C757 1.231 . S
C752 O736 1.225 . S
C752 O758 1.298 . S
C753 O742 1.226 . S
C753 O743 1.307 . S
C754 O746 1.303 . S
C754 O747 1.247 . S
C755 O744 1.253 . S
C755 O745 1.283 . S
C756 O748 1.304 . S
C756 O750 1.272 . S
C757 O749 1.311 . S
C757 O751 1.231 . S
O758 Zn740 1.953 . S
O758 C752 1.298 . S
O759 Zn760 1.953 . S
O759 C775 1.225 . S
Zn760 O759 1.953 . S
Zn760 O761 1.949 . S
Zn760 O767 1.919 . S
Zn760 O772 1.924 . S
O761 Zn760 1.949 . S
O761 Zn762 1.923 . S
O761 Zn763 1.950 . S
O761 Zn764 1.945 . S
Zn762 O761 1.923 . S
Zn762 O765 1.933 . S
Zn762 O768 1.941 . S
Zn762 O769 1.965 . S
Zn763 O761 1.950 . S
Zn763 O770 1.938 . S
Zn763 O771 1.906 . S
Zn763 O781 1.953 . S
Zn764 O761 1.945 . S
Zn764 O766 1.932 . S
Zn764 O773 1.977 . S
Zn764 O774 1.910 . S
O765 Zn762 1.933 . S
O765 C776 1.226 . S
O766 Zn764 1.932 . S
O766 C776 1.307 . S
O767 Zn760 1.919 . S
O767 C778 1.253 . S
O768 Zn762 1.941 . S
O768 C778 1.283 . S
O769 Zn762 1.965 . S
O769 C777 1.303 . S
O770 Zn763 1.938 . S
O770 C777 1.247 . S
O771 Zn763 1.906 . S
O771 C779 1.304 . S
O772 Zn760 1.924 . S
O772 C780 1.311 . S
O773 Zn764 1.977 . S
O773 C779 1.272 . S
O774 Zn764 1.910 . S
O774 C780 1.231 . S
C775 O759 1.225 . S
C775 O781 1.298 . S
C776 O765 1.226 . S
C776 O766 1.307 . S
C777 O769 1.303 . S
C777 O770 1.247 . S
C778 O767 1.253 . S
C778 O768 1.283 . S
C779 O771 1.304 . S
C779 O773 1.272 . S
C780 O772 1.311 . S
C780 O774 1.231 . S
O781 Zn763 1.953 . S
O781 C775 1.298 . S
O782 Zn783 1.953 . S
O782 C798 1.225 . S
Zn783 O782 1.953 . S
Zn783 O784 1.949 . S
Zn783 O790 1.919 . S
Zn783 O795 1.924 . S
O784 Zn783 1.949 . S
O784 Zn785 1.923 . S
O784 Zn786 1.950 . S
O784 Zn787 1.945 . S
Zn785 O784 1.923 . S
Zn785 O788 1.933 . S
Zn785 O791 1.941 . S
Zn785 O792 1.965 . S
Zn786 O784 1.950 . S
Zn786 O793 1.938 . S
Zn786 O794 1.906 . S
Zn786 O804 1.953 . S
Zn787 O784 1.945 . S
Zn787 O789 1.932 . S
Zn787 O796 1.977 . S
Zn787 O797 1.910 . S
O788 Zn785 1.933 . S
O788 C799 1.226 . S
O789 Zn787 1.932 . S
O789 C799 1.307 . S
O790 Zn783 1.919 . S
O790 C801 1.253 . S
O791 Zn785 1.941 . S
O791 C801 1.283 . S
O792 Zn785 1.965 . S
O792 C800 1.303 . S
O793 Zn786 1.938 . S
O793 C800 1.247 . S
O794 Zn786 1.906 . S
O794 C802 1.304 . S
O795 Zn783 1.924 . S
O795 C803 1.311 . S
O796 Zn787 1.977 . S
O796 C802 1.272 . S
O797 Zn787 1.910 . S
O797 C803 1.231 . S
C798 O782 1.225 . S
C798 O804 1.298 . S
C799 O788 1.226 . S
C799 O789 1.307 . S
C800 O792 1.303 . S
C800 O793 1.247 . S
C801 O790 1.253 . S
C801 O791 1.283 . S
C802 O794 1.304 . S
C802 O796 1.272 . S
C803 O795 1.311 . S
C803 O797 1.231 . S
O804 Zn786 1.953 . S
O804 C798 1.298 . S
O805 Zn806 1.953 . S
O805 C821 1.225 . S
Zn806 O805 1.953 . S
Zn806 O807 1.949 . S
Zn806 O813 1.919 . S
Zn806 O818 1.924 . S
O807 Zn806 1.949 . S
O807 Zn808 1.923 . S
O807 Zn809 1.950 . S
O807 Zn810 1.945 . S
Zn808 O807 1.923 . S
Zn808 O811 1.933 . S
Zn808 O814 1.941 . S
Zn808 O815 1.965 . S
Zn809 O807 1.950 . S
Zn809 O816 1.938 . S
Zn809 O817 1.906 . S
Zn809 O827 1.953 . S
Zn810 O807 1.945 . S
Zn810 O812 1.932 . S
Zn810 O819 1.977 . S
Zn810 O820 1.910 . S
O811 Zn808 1.933 . S
O811 C822 1.226 . S
O812 Zn810 1.932 . S
O812 C822 1.307 . S
O813 Zn806 1.919 . S
O813 C824 1.253 . S
O814 Zn808 1.941 . S
O814 C824 1.283 . S
O815 Zn808 1.965 . S
O815 C823 1.303 . S
O816 Zn809 1.938 . S
O816 C823 1.247 . S
O817 Zn809 1.906 . S
O817 C825 1.304 . S
O818 Zn806 1.924 . S
O818 C826 1.311 . S
O819 Zn810 1.977 . S
O819 C825 1.272 . S
O820 Zn810 1.910 . S
O820 C826 1.231 . S
C821 O805 1.225 . S
C821 O827 1.298 . S
C822 O811 1.226 . S
C822 O812 1.307 . S
C823 O815 1.303 . S
C823 O816 1.247 . S
C824 O813 1.253 . S
C824 O814 1.283 . S
C825 O817 1.304 . S
C825 O819 1.272 . S
C826 O818 1.311 . S
C826 O820 1.231 . S
O827 Zn809 1.953 . S
O827 C821 1.298 . S
O828 Zn829 1.953 . S
O828 C844 1.225 . S
Zn829 O828 1.953 . S
Zn829 O830 1.949 . S
Zn829 O836 1.919 . S
Zn829 O841 1.924 . S
O830 Zn829 1.949 . S
O830 Zn831 1.923 . S
O830 Zn832 1.950 . S
O830 Zn833 1.945 . S
Zn831 O830 1.923 . S
Zn831 O834 1.933 . S
Zn831 O837 1.941 . S
Zn831 O838 1.965 . S
Zn832 O830 1.950 . S
Zn832 O839 1.938 . S
Zn832 O840 1.906 . S
Zn832 O850 1.953 . S
Zn833 O830 1.945 . S
Zn833 O835 1.932 . S
Zn833 O842 1.977 . S
Zn833 O843 1.910 . S
O834 Zn831 1.933 . S
O834 C845 1.226 . S
O835 Zn833 1.932 . S
O835 C845 1.307 . S
O836 Zn829 1.919 . S
O836 C847 1.253 . S
O837 Zn831 1.941 . S
O837 C847 1.283 . S
O838 Zn831 1.965 . S
O838 C846 1.303 . S
O839 Zn832 1.938 . S
O839 C846 1.247 . S
O840 Zn832 1.906 . S
O840 C848 1.304 . S
O841 Zn829 1.924 . S
O841 C849 1.311 . S
O842 Zn833 1.977 . S
O842 C848 1.272 . S
O843 Zn833 1.910 . S
O843 C849 1.231 . S
C844 O828 1.225 . S
C844 O850 1.298 . S
C845 O834 1.226 . S
C845 O835 1.307 . S
C846 O838 1.303 . S
C846 O839 1.247 . S
C847 O836 1.253 . S
C847 O837 1.283 . S
C848 O840 1.304 . S
C848 O842 1.272 . S
C849 O841 1.311 . S
C849 O843 1.231 . S
O850 Zn832 1.953 . S
O850 C844 1.298 . S
O851 Zn852 1.953 . S
O851 C867 1.225 . S
Zn852 O851 1.953 . S
Zn852 O853 1.949 . S
Zn852 O859 1.919 . S
Zn852 O864 1.924 . S
O853 Zn852 1.949 . S
O853 Zn854 1.923 . S
O853 Zn855 1.950 . S
O853 Zn856 1.945 . S
Zn854 O853 1.923 . S
Zn854 O857 1.933 . S
Zn854 O860 1.941 . S
Zn854 O861 1.965 . S
Zn855 O853 1.950 . S
Zn855 O862 1.938 . S
Zn855 O863 1.906 . S
Zn855 O873 1.953 . S
Zn856 O853 1.945 . S
Zn856 O858 1.932 . S
Zn856 O865 1.977 . S
Zn856 O866 1.910 . S
O857 Zn854 1.933 . S
O857 C868 1.226 . S
O858 Zn856 1.932 . S
O858 C868 1.307 . S
O859 Zn852 1.919 . S
O859 C870 1.253 . S
O860 Zn854 1.941 . S
O860 C870 1.283 . S
O861 Zn854 1.965 . S
O861 C869 1.303 . S
O862 Zn855 1.938 . S
O862 C869 1.247 . S
O863 Zn855 1.906 . S
O863 C871 1.304 . S
O864 Zn852 1.924 . S
O864 C872 1.311 . S
O865 Zn856 1.977 . S
O865 C871 1.272 . S
O866 Zn856 1.910 . S
O866 C872 1.231 . S
C867 O851 1.225 . S
C867 O873 1.298 . S
C868 O857 1.226 . S
C868 O858 1.307 . S
C869 O861 1.303 . S
C869 O862 1.247 . S
C870 O859 1.253 . S
C870 O860 1.283 . S
C871 O863 1.304 . S
C871 O865 1.272 . S
C872 O864 1.311 . S
C872 O866 1.231 . S
O873 Zn855 1.953 . S
O873 C867 1.298 . S
O874 Zn875 1.953 . S
O874 C890 1.225 . S
Zn875 O874 1.953 . S
Zn875 O876 1.949 . S
Zn875 O882 1.919 . S
Zn875 O887 1.924 . S
O876 Zn875 1.949 . S
O876 Zn877 1.923 . S
O876 Zn878 1.950 . S
O876 Zn879 1.945 . S
Zn877 O876 1.923 . S
Zn877 O880 1.933 . S
Zn877 O883 1.941 . S
Zn877 O884 1.965 . S
Zn878 O876 1.950 . S
Zn878 O885 1.938 . S
Zn878 O886 1.906 . S
Zn878 O896 1.953 . S
Zn879 O876 1.945 . S
Zn879 O881 1.932 . S
Zn879 O888 1.977 . S
Zn879 O889 1.910 . S
O880 Zn877 1.933 . S
O880 C891 1.226 . S
O881 Zn879 1.932 . S
O881 C891 1.307 . S
O882 Zn875 1.919 . S
O882 C893 1.253 . S
O883 Zn877 1.941 . S
O883 C893 1.283 . S
O884 Zn877 1.965 . S
O884 C892 1.303 . S
O885 Zn878 1.938 . S
O885 C892 1.247 . S
O886 Zn878 1.906 . S
O886 C894 1.304 . S
O887 Zn875 1.924 . S
O887 C895 1.311 . S
O888 Zn879 1.977 . S
O888 C894 1.272 . S
O889 Zn879 1.910 . S
O889 C895 1.231 . S
C890 O874 1.225 . S
C890 O896 1.298 . S
C891 O880 1.226 . S
C891 O881 1.307 . S
C892 O884 1.303 . S
C892 O885 1.247 . S
C893 O882 1.253 . S
C893 O883 1.283 . S
C894 O886 1.304 . S
C894 O888 1.272 . S
C895 O887 1.311 . S
C895 O889 1.231 . S
O896 Zn878 1.953 . S
O896 C890 1.298 . S
O897 Zn898 1.953 . S
O897 C913 1.225 . S
Zn898 O897 1.953 . S
Zn898 O899 1.949 . S
Zn898 O905 1.919 . S
Zn898 O910 1.924 . S
O899 Zn898 1.949 . S
O899 Zn900 1.923 . S
O899 Zn901 1.950 . S
O899 Zn902 1.945 . S
Zn900 O899 1.923 . S
Zn900 O903 1.933 . S
Zn900 O906 1.941 . S
Zn900 O907 1.965 . S
Zn901 O899 1.950 . S
Zn901 O908 1.938 . S
Zn901 O909 1.906 . S
Zn901 O919 1.953 . S
Zn902 O899 1.945 . S
Zn902 O904 1.932 . S
Zn902 O911 1.977 . S
Zn902 O912 1.910 . S
O903 Zn900 1.933 . S
O903 C914 1.226 . S
O904 Zn902 1.932 . S
O904 C914 1.307 . S
O905 Zn898 1.919 . S
O905 C916 1.253 . S
O906 Zn900 1.941 . S
O906 C916 1.283 . S
O907 Zn900 1.965 . S
O907 C915 1.303 . S
O908 Zn901 1.938 . S
O908 C915 1.247 . S
O909 Zn901 1.906 . S
O909 C917 1.304 . S
O910 Zn898 1.924 . S
O910 C918 1.311 . S
O911 Zn902 1.977 . S
O911 C917 1.272 . S
O912 Zn902 1.910 . S
O912 C918 1.231 . S
C913 O897 1.225 . S
C913 O919 1.298 . S
C914 O903 1.226 . S
C914 O904 1.307 . S
C915 O907 1.303 . S
C915 O908 1.247 . S
C916 O905 1.253 . S
C916 O906 1.283 . S
C917 O909 1.304 . S
C917 O911 1.272 . S
C918 O910 1.311 . S
C918 O912 1.231 . S
O919 Zn901 1.953 . S
O919 C913 1.298 . S
O920 Zn921 1.953 . S
O920 C936 1.225 . S
Zn921 O920 1.953 . S
Zn921 O922 1.949 . S
Zn921 O928 1.919 . S
Zn921 O933 1.924 . S
O922 Zn921 1.949 . S
O922 Zn923 1.923 . S
O922 Zn924 1.950 . S
O922 Zn925 1.945 . S
Zn923 O922 1.923 . S
Zn923 O926 1.933 . S
Zn923 O929 1.941 . S
Zn923 O930 1.965 . S
Zn924 O922 1.950 . S
Zn924 O931 1.938 . S
Zn924 O932 1.906 . S
Zn924 O942 1.953 . S
Zn925 O922 1.945 . S
Zn925 O927 1.932 . S
Zn925 O934 1.977 . S
Zn925 O935 1.910 . S
O926 Zn923 1.933 . S
O926 C937 1.226 . S
O927 Zn925 1.932 . S
O927 C937 1.307 . S
O928 Zn921 1.919 . S
O928 C939 1.253 . S
O929 Zn923 1.941 . S
O929 C939 1.283 . S
O930 Zn923 1.965 . S
O930 C938 1.303 . S
O931 Zn924 1.938 . S
O931 C938 1.247 . S
O932 Zn924 1.906 . S
O932 C940 1.304 . S
O933 Zn921 1.924 . S
O933 C941 1.311 . S
O934 Zn925 1.977 . S
O934 C940 1.272 . S
O935 Zn925 1.910 . S
O935 C941 1.231 . S
C936 O920 1.225 . S
C936 O942 1.298 . S
C937 O926 1.226 . S
C937 O927 1.307 . S
C938 O930 1.303 . S
C938 O931 1.247 . S
C939 O928 1.253 . S
C939 O929 1.283 . S
C940 O932 1.304 . S
C940 O934 1.272 . S
C941 O933 1.311 . S
C941 O935 1.231 . S
O942 Zn924 1.953 . S
O942 C936 1.298 . S
O943 Zn944 1.953 . S
O943 C959 1.225 . S
Zn944 O943 1.953 . S
Zn944 O945 1.949 . S
Zn944 O951 1.919 . S
Zn944 O956 1.924 . S
O945 Zn944 1.949 . S
O945 Zn946 1.923 . S
O945 Zn947 1.950 . S
O945 Zn948 1.945 . S
Zn946 O945 1.923 . S
Zn946 O949 1.933 . S
Zn946 O952 1.941 . S
Zn946 O953 1.965 . S
Zn947 O945 1.950 . S
Zn947 O954 1.938 . S
Zn947 O955 1.906 . S
Zn947 O965 1.953 . S
Zn948 O945 1.945 . S
Zn948 O950 1.932 . S
Zn948 O957 1.977 . S
Zn948 O958 1.910 . S
O949 Zn946 1.933 . S
O949 C960 1.226 . S
O950 Zn948 1.932 . S
O950 C960 1.307 . S
O951 Zn944 1.919 . S
O951 C962 1.253 . S
O952 Zn946 1.941 . S
O952 C962 1.283 . S
O953 Zn946 1.965 . S
O953 C961 1.303 . S
O954 Zn947 1.938 . S
O954 C961 1.247 . S
O955 Zn947 1.906 . S
O955 C963 1.304 . S
O956 Zn944 1.924 . S
O956 C964 1.311 . S
O957 Zn948 1.977 . S
O957 C963 1.272 . S
O958 Zn948 1.910 . S
O958 C964 1.231 . S
C959 O943 1.225 . S
C959 O965 1.298 . S
C960 O949 1.226 . S
C960 O950 1.307 . S
C961 O953 1.303 . S
C961 O954 1.247 . S
C962 O951 1.253 . S
C962 O952 1.283 . S
C963 O955 1.304 . S
C963 O957 1.272 . S
C964 O956 1.311 . S
C964 O958 1.231 . S
O965 Zn947 1.953 . S
O965 C959 1.298 . S
O966 Zn967 1.953 . S
O966 C982 1.225 . S
Zn967 O966 1.953 . S
Zn967 O968 1.949 . S
Zn967 O974 1.919 . S
Zn967 O979 1.924 . S
O968 Zn967 1.949 . S
O968 Zn969 1.923 . S
O968 Zn970 1.950 . S
O968 Zn971 1.945 . S
Zn969 O968 1.923 . S
Zn969 O972 1.933 . S
Zn969 O975 1.941 . S
Zn969 O976 1.965 . S
Zn970 O968 1.950 . S
Zn970 O977 1.938 . S
Zn970 O978 1.906 . S
Zn970 O988 1.953 . S
Zn971 O968 1.945 . S
Zn971 O973 1.932 . S
Zn971 O980 1.977 . S
Zn971 O981 1.910 . S
O972 Zn969 1.933 . S
O972 C983 1.226 . S
O973 Zn971 1.932 . S
O973 C983 1.307 . S
O974 Zn967 1.919 . S
O974 C985 1.253 . S
O975 Zn969 1.941 . S
O975 C985 1.283 . S
O976 Zn969 1.965 . S
O976 C984 1.303 . S
O977 Zn970 1.938 . S
O977 C984 1.247 . S
O978 Zn970 1.906 . S
O978 C986 1.304 . S
O979 Zn967 1.924 . S
O979 C987 1.311 . S
O980 Zn971 1.977 . S
O980 C986 1.272 . S
O981 Zn971 1.910 . S
O981 C987 1.231 . S
C982 O966 1.225 . S
C982 O988 1.298 . S
C983 O972 1.226 . S
C983 O973 1.307 . S
C984 O976 1.303 . S
C984 O977 1.247 . S
C985 O974 1.253 . S
C985 O975 1.283 . S
C986 O978 1.304 . S
C986 O980 1.272 . S
C987 O979 1.311 . S
C987 O981 1.231 . S
O988 Zn970 1.953 . S
O988 C982 1.298 . S
O989 Zn990 1.953 . S
O989 C1005 1.225 . S
Zn990 O989 1.953 . S
Zn990 O991 1.949 . S
Zn990 O997 1.919 . S
Zn990 O1002 1.924 . S
O991 Zn990 1.949 . S
O991 Zn992 1.923 . S
O991 Zn993 1.950 . S
O991 Zn994 1.945 . S
Zn992 O991 1.923 . S
Zn992 O995 1.933 . S
Zn992 O998 1.941 . S
Zn992 O999 1.965 . S
Zn993 O991 1.950 . S
Zn993 O1000 1.938 . S
Zn993 O1001 1.906 . S
Zn993 O1011 1.953 . S
Zn994 O991 1.945 . S
Zn994 O996 1.932 . S
Zn994 O1003 1.977 . S
Zn994 O1004 1.910 . S
O995 Zn992 1.933 . S
O995 C1006 1.226 . S
O996 Zn994 1.932 . S
O996 C1006 1.307 . S
O997 Zn990 1.919 . S
O997 C1008 1.253 . S
O998 Zn992 1.941 . S
O998 C1008 1.283 . S
O999 Zn992 1.965 . S
O999 C1007 1.303 . S
O1000 Zn993 1.938 . S
O1000 C1007 1.247 . S
O1001 Zn993 1.906 . S
O1001 C1009 1.304 . S
O1002 Zn990 1.924 . S
O1002 C1010 1.311 . S
O1003 Zn994 1.977 . S
O1003 C1009 1.272 . S
O1004 Zn994 1.910 . S
O1004 C1010 1.231 . S
C1005 O989 1.225 . S
C1005 O1011 1.298 . S
C1006 O995 1.226 . S
C1006 O996 1.307 . S
C1007 O999 1.303 . S
C1007 O1000 1.247 . S
C1008 O997 1.253 . S
C1008 O998 1.283 . S
C1009 O1001 1.304 . S
C1009 O1003 1.272 . S
C1010 O1002 1.311 . S
C1010 O1004 1.231 . S
O1011 Zn993 1.953 . S
O1011 C1005 1.298 . S
O1012 Zn1013 1.953 . S
O1012 C1028 1.225 . S
Zn1013 O1012 1.953 . S
Zn1013 O1014 1.949 . S
Zn1013 O1020 1.919 . S
Zn1013 O1025 1.924 . S
O1014 Zn1013 1.949 . S
O1014 Zn1015 1.923 . S
O1014 Zn1016 1.950 . S
O1014 Zn1017 1.945 . S
Zn1015 O1014 1.923 . S
Zn1015 O1018 1.933 . S
Zn1015 O1021 1.941 . S
Zn1015 O1022 1.965 . S
Zn1016 O1014 1.950 . S
Zn1016 O1023 1.938 . S
Zn1016 O1024 1.906 . S
Zn1016 O1034 1.953 . S
Zn1017 O1014 1.945 . S
Zn1017 O1019 1.932 . S
Zn1017 O1026 1.977 . S
Zn1017 O1027 1.910 . S
O1018 Zn1015 1.933 . S
O1018 C1029 1.226 . S
O1019 Zn1017 1.932 . S
O1019 C1029 1.307 . S
O1020 Zn1013 1.919 . S
O1020 C1031 1.253 . S
O1021 Zn1015 1.941 . S
O1021 C1031 1.283 . S
O1022 Zn1015 1.965 . S
O1022 C1030 1.303 . S
O1023 Zn1016 1.938 . S
O1023 C1030 1.247 . S
O1024 Zn1016 1.906 . S
O1024 C1032 1.304 . S
O1025 Zn1013 1.924 . S
O1025 C1033 1.311 . S
O1026 Zn1017 1.977 . S
O1026 C1032 1.272 . S
O1027 Zn1017 1.910 . S
O1027 C1033 1.231 . S
C1028 O1012 1.225 . S
C1028 O1034 1.298 . S
C1029 O1018 1.226 . S
C1029 O1019 1.307 . S
C1030 O1022 1.303 . S
C1030 O1023 1.247 . S
C1031 O1020 1.253 . S
C1031 O1021 1.283 . S
C1032 O1024 1.304 . S
C1032 O1026 1.272 . S
C1033 O1025 1.311 . S
C1033 O1027 1.231 . S
O1034 Zn1016 1.953 . S
O1034 C1028 1.298 . S
O1035 Zn1036 1.953 . S
O1035 C1051 1.225 . S
Zn1036 O1035 1.953 . S
Zn1036 O1037 1.949 . S
Zn1036 O1043 1.919 . S
Zn1036 O1048 1.924 . S
O1037 Zn1036 1.949 . S
O1037 Zn1038 1.923 . S
O1037 Zn1039 1.950 . S
O1037 Zn1040 1.945 . S
Zn1038 O1037 1.923 . S
Zn1038 O1041 1.933 . S
Zn1038 O1044 1.941 . S
Zn1038 O1045 1.965 . S
Zn1039 O1037 1.950 . S
Zn1039 O1046 1.938 . S
Zn1039 O1047 1.906 . S
Zn1039 O1057 1.953 . S
Zn1040 O1037 1.945 . S
Zn1040 O1042 1.932 . S
Zn1040 O1049 1.977 . S
Zn1040 O1050 1.910 . S
O1041 Zn1038 1.933 . S
O1041 C1052 1.226 . S
O1042 Zn1040 1.932 . S
O1042 C1052 1.307 . S
O1043 Zn1036 1.919 . S
O1043 C1054 1.253 . S
O1044 Zn1038 1.941 . S
O1044 C1054 1.283 . S
O1045 Zn1038 1.965 . S
O1045 C1053 1.303 . S
O1046 Zn1039 1.938 . S
O1046 C1053 1.247 . S
O1047 Zn1039 1.906 . S
O1047 C1055 1.304 . S
O1048 Zn1036 1.924 . S
O1048 C1056 1.311 . S
O1049 Zn1040 1.977 . S
O1049 C1055 1.272 . S
O1050 Zn1040 1.910 . S
O1050 C1056 1.231 . S
C1051 O1035 1.225 . S
C1051 O1057 1.298 . S
C1052 O1041 1.226 . S
C1052 O1042 1.307 . S
C1053 O1045 1.303 . S
C1053 O1046 1.247 . S
C1054 O1043 1.253 . S
C1054 O1044 1.283 . S
C1055 O1047 1.304 . S
C1055 O1049 1.272 . S
C1056 O1048 1.311 . S
C1056 O1050 1.231 . S
O1057 Zn1039 1.953 . S
O1057 C1051 1.298 . S
O1058 Zn1059 1.953 . S
O1058 C1074 1.225 . S
Zn1059 O1058 1.953 . S
Zn1059 O1060 1.949 . S
Zn1059 O1066 1.919 . S
Zn1059 O1071 1.924 . S
O1060 Zn1059 1.949 . S
O1060 Zn1061 1.923 . S
O1060 Zn1062 1.950 . S
O1060 Zn1063 1.945 . S
Zn1061 O1060 1.923 . S
Zn1061 O1064 1.933 . S
Zn1061 O1067 1.941 . S
Zn1061 O1068 1.965 . S
Zn1062 O1060 1.950 . S
Zn1062 O1069 1.938 . S
Zn1062 O1070 1.906 . S
Zn1062 O1080 1.953 . S
Zn1063 O1060 1.945 . S
Zn1063 O1065 1.932 . S
Zn1063 O1072 1.977 . S
Zn1063 O1073 1.910 . S
O1064 Zn1061 1.933 . S
O1064 C1075 1.226 . S
O1065 Zn1063 1.932 . S
O1065 C1075 1.307 . S
O1066 Zn1059 1.919 . S
O1066 C1077 1.253 . S
O1067 Zn1061 1.941 . S
O1067 C1077 1.283 . S
O1068 Zn1061 1.965 . S
O1068 C1076 1.303 . S
O1069 Zn1062 1.938 . S
O1069 C1076 1.247 . S
O1070 Zn1062 1.906 . S
O1070 C1078 1.304 . S
O1071 Zn1059 1.924 . S
O1071 C1079 1.311 . S
O1072 Zn1063 1.977 . S
O1072 C1078 1.272 . S
O1073 Zn1063 1.910 . S
O1073 C1079 1.231 . S
C1074 O1058 1.225 . S
C1074 O1080 1.298 . S
C1075 O1064 1.226 . S
C1075 O1065 1.307 . S
C1076 O1068 1.303 . S
C1076 O1069 1.247 . S
C1077 O1066 1.253 . S
C1077 O1067 1.283 . S
C1078 O1070 1.304 . S
C1078 O1072 1.272 . S
C1079 O1071 1.311 . S
C1079 O1073 1.231 . S
O1080 Zn1062 1.953 . S
O1080 C1074 1.298 . S
O1081 Zn1082 1.953 . S
O1081 C1097 1.225 . S
Zn1082 O1081 1.953 . S
Zn1082 O1083 1.949 . S
Zn1082 O1089 1.919 . S
Zn1082 O1094 1.924 . S
O1083 Zn1082 1.949 . S
O1083 Zn1084 1.923 . S
O1083 Zn1085 1.950 . S
O1083 Zn1086 1.945 . S
Zn1084 O1083 1.923 . S
Zn1084 O1087 1.933 . S
Zn1084 O1090 1.941 . S
Zn1084 O1091 1.965 . S
Zn1085 O1083 1.950 . S
Zn1085 O1092 1.938 . S
Zn1085 O1093 1.906 . S
Zn1085 O1103 1.953 . S
Zn1086 O1083 1.945 . S
Zn1086 O1088 1.932 . S
Zn1086 O1095 1.977 . S
Zn1086 O1096 1.910 . S
O1087 Zn1084 1.933 . S
O1087 C1098 1.226 . S
O1088 Zn1086 1.932 . S
O1088 C1098 1.307 . S
O1089 Zn1082 1.919 . S
O1089 C1100 1.253 . S
O1090 Zn1084 1.941 . S
O1090 C1100 1.283 . S
O1091 Zn1084 1.965 . S
O1091 C1099 1.303 . S
O1092 Zn1085 1.938 . S
O1092 C1099 1.247 . S
O1093 Zn1085 1.906 . S
O1093 C1101 1.304 . S
O1094 Zn1082 1.924 . S
O1094 C1102 1.311 . S
O1095 Zn1086 1.977 . S
O1095 C1101 1.272 . S
O1096 Zn1086 1.910 . S
O1096 C1102 1.231 . S
C1097 O1081 1.225 . S
C1097 O1103 1.298 . S
C1098 O1087 1.226 . S
C1098 O1088 1.307 . S
C1099 O1091 1.303 . S
C1099 O1092 1.247 . S
C1100 O1089 1.253 . S
C1100 O1090 1.283 . S
C1101 O1093 1.304 . S
C1101 O1095 1.272 . S
C1102 O1094 1.311 . S
C1102 O1096 1.231 . S
O1103 Zn1085 1.953 . S
O1103 C1097 1.298 . S
C1104 C1105 1.369 . S
C1104 C1106 1.419 . S
C1104 H1108 0.930 . S
C1105 C1104 1.369 . S
C1105 C1114 1.429 1_455 S
C1106 C1104 1.419 . S
C1106 C1107 1.363 . S
C1106 H1109 0.929 . S
C1107 C1106 1.363 . S
C1107 C1113 1.428 1_455 S
H1108 C1104 0.930 . S
H1109 C1106 0.929 . S
S1110 N1111 1.613 . S
S1110 N1112 1.610 . S
N1111 S1110 1.613 . S
N1111 C1114 1.350 . S
N1112 S1110 1.610 . S
N1112 C1113 1.351 . S
C1113 C1107 1.428 1_655 S
C1113 N1112 1.351 . S
C1113 C1114 1.434 . S
C1114 C1105 1.429 1_655 S
C1114 N1111 1.350 . S
C1114 C1113 1.434 . S
C1115 C1116 1.369 1_565 S
C1115 C1117 1.419 . S
C1115 H1119 0.930 . S
C1116 C1115 1.369 1_545 S
C1116 C1125 1.429 . S
C1117 C1115 1.419 . S
C1117 C1118 1.363 1_565 S
C1117 H1120 0.929 . S
C1118 C1117 1.363 1_545 S
C1118 C1124 1.428 . S
H1119 C1115 0.930 . S
H1120 C1117 0.929 . S
S1121 N1122 1.613 . S
S1121 N1123 1.610 . S
N1122 S1121 1.613 . S
N1122 C1125 1.350 . S
N1123 S1121 1.610 . S
N1123 C1124 1.351 . S
C1124 C1118 1.428 . S
C1124 N1123 1.351 . S
C1124 C1125 1.434 . S
C1125 C1116 1.429 . S
C1125 N1122 1.350 . S
C1125 C1124 1.434 . S
C1126 C1127 1.369 1_655 S
C1126 C1128 1.419 . S
C1126 H1130 0.930 . S
C1127 C1126 1.369 1_455 S
C1127 C1136 1.429 . S
C1128 C1126 1.419 . S
C1128 C1129 1.363 1_655 S
C1128 H1131 0.929 . S
C1129 C1128 1.363 1_455 S
C1129 C1135 1.428 . S
H1130 C1126 0.930 . S
H1131 C1128 0.929 . S
S1132 N1133 1.613 . S
S1132 N1134 1.610 . S
N1133 S1132 1.613 . S
N1133 C1136 1.350 . S
N1134 S1132 1.610 . S
N1134 C1135 1.351 . S
C1135 C1129 1.428 . S
C1135 N1134 1.351 . S
C1135 C1136 1.434 . S
C1136 C1127 1.429 . S
C1136 N1133 1.350 . S
C1136 C1135 1.434 . S
C1137 C1138 1.369 . S
C1137 C1139 1.419 . S
C1137 H1141 0.930 . S
C1138 C1137 1.369 . S
C1138 C1147 1.429 1_545 S
C1139 C1137 1.419 . S
C1139 C1140 1.363 . S
C1139 H1142 0.929 . S
C1140 C1139 1.363 . S
C1140 C1146 1.428 1_545 S
H1141 C1137 0.930 . S
H1142 C1139 0.929 . S
S1143 N1144 1.613 . S
S1143 N1145 1.610 . S
N1144 S1143 1.613 . S
N1144 C1147 1.350 . S
N1145 S1143 1.610 . S
N1145 C1146 1.351 . S
C1146 C1140 1.428 1_565 S
C1146 N1145 1.351 . S
C1146 C1147 1.434 . S
C1147 C1138 1.429 1_565 S
C1147 N1144 1.350 . S
C1147 C1146 1.434 . S
C1148 C1149 1.369 1_565 S
C1148 C1150 1.419 . S
C1148 H1152 0.930 . S
C1149 C1148 1.369 1_545 S
C1149 C1158 1.429 . S
C1150 C1148 1.419 . S
C1150 C1151 1.363 1_565 S
C1150 H1153 0.929 . S
C1151 C1150 1.363 1_545 S
C1151 C1157 1.428 . S
H1152 C1148 0.930 . S
H1153 C1150 0.929 . S
S1154 N1155 1.613 . S
S1154 N1156 1.610 . S
N1155 S1154 1.613 . S
N1155 C1158 1.350 . S
N1156 S1154 1.610 . S
N1156 C1157 1.351 . S
C1157 C1151 1.428 . S
C1157 N1156 1.351 . S
C1157 C1158 1.434 . S
C1158 C1149 1.429 . S
C1158 N1155 1.350 . S
C1158 C1157 1.434 . S
C1159 C1160 1.369 . S
C1159 C1161 1.419 . S
C1159 H1163 0.930 . S
C1160 C1159 1.369 . S
C1160 C1169 1.429 1_455 S
C1161 C1159 1.419 . S
C1161 C1162 1.363 . S
C1161 H1164 0.929 . S
C1162 C1161 1.363 . S
C1162 C1168 1.428 1_455 S
H1163 C1159 0.930 . S
H1164 C1161 0.929 . S
S1165 N1166 1.613 . S
S1165 N1167 1.610 . S
N1166 S1165 1.613 . S
N1166 C1169 1.350 . S
N1167 S1165 1.610 . S
N1167 C1168 1.351 . S
C1168 C1162 1.428 1_655 S
C1168 N1167 1.351 . S
C1168 C1169 1.434 . S
C1169 C1160 1.429 1_655 S
C1169 N1166 1.350 . S
C1169 C1168 1.434 . S
C1170 C1171 1.369 . S
C1170 C1172 1.419 . S
C1170 H1174 0.930 . S
C1171 C1170 1.369 . S
C1171 C1180 1.429 . S
C1172 C1170 1.419 . S
C1172 C1173 1.363 . S
C1172 H1175 0.929 . S
C1173 C1172 1.363 . S
C1173 C1179 1.428 . S
H1174 C1170 0.930 . S
H1175 C1172 0.929 . S
S1176 N1177 1.613 . S
S1176 N1178 1.610 . S
N1177 S1176 1.613 . S
N1177 C1180 1.350 . S
N1178 S1176 1.610 . S
N1178 C1179 1.351 . S
C1179 C1173 1.428 . S
C1179 N1178 1.351 . S
C1179 C1180 1.434 . S
C1180 C1171 1.429 . S
C1180 N1177 1.350 . S
C1180 C1179 1.434 . S
C1181 C1182 1.369 . S
C1181 C1183 1.419 . S
C1181 H1185 0.930 . S
C1182 C1181 1.369 . S
C1182 C1191 1.429 1_455 S
C1183 C1181 1.419 . S
C1183 C1184 1.363 . S
C1183 H1186 0.929 . S
C1184 C1183 1.363 . S
C1184 C1190 1.428 1_455 S
H1185 C1181 0.930 . S
H1186 C1183 0.929 . S
S1187 N1188 1.613 . S
S1187 N1189 1.610 . S
N1188 S1187 1.613 . S
N1188 C1191 1.350 . S
N1189 S1187 1.610 . S
N1189 C1190 1.351 . S
C1190 C1184 1.428 1_655 S
C1190 N1189 1.351 . S
C1190 C1191 1.434 . S
C1191 C1182 1.429 1_655 S
C1191 N1188 1.350 . S
C1191 C1190 1.434 . S
C1192 C1193 1.369 . S
C1192 C1194 1.419 . S
C1192 H1196 0.930 . S
C1193 C1192 1.369 . S
C1193 C1202 1.429 1_554 S
C1194 C1192 1.419 . S
C1194 C1195 1.363 . S
C1194 H1197 0.929 . S
C1195 C1194 1.363 . S
C1195 C1201 1.428 1_554 S
H1196 C1192 0.930 . S
H1197 C1194 0.929 . S
S1198 N1199 1.613 . S
S1198 N1200 1.610 . S
N1199 S1198 1.613 . S
N1199 C1202 1.350 . S
N1200 S1198 1.610 . S
N1200 C1201 1.351 . S
C1201 C1195 1.428 1_556 S
C1201 N1200 1.351 . S
C1201 C1202 1.434 . S
C1202 C1193 1.429 1_556 S
C1202 N1199 1.350 . S
C1202 C1201 1.434 . S
C1203 C1204 1.369 . S
C1203 C1205 1.419 . S
C1203 H1207 0.930 . S
C1204 C1203 1.369 . S
C1204 C1213 1.429 . S
C1205 C1203 1.419 . S
C1205 C1206 1.363 . S
C1205 H1208 0.929 . S
C1206 C1205 1.363 . S
C1206 C1212 1.428 . S
H1207 C1203 0.930 . S
H1208 C1205 0.929 . S
S1209 N1210 1.613 . S
S1209 N1211 1.610 . S
N1210 S1209 1.613 . S
N1210 C1213 1.350 . S
N1211 S1209 1.610 . S
N1211 C1212 1.351 . S
C1212 C1206 1.428 . S
C1212 N1211 1.351 . S
C1212 C1213 1.434 . S
C1213 C1204 1.429 . S
C1213 N1210 1.350 . S
C1213 C1212 1.434 . S
C1214 C1215 1.369 . S
C1214 C1216 1.419 . S
C1214 H1218 0.930 . S
C1215 C1214 1.369 . S
C1215 C1224 1.429 1_554 S
C1216 C1214 1.419 . S
C1216 C1217 1.363 . S
C1216 H1219 0.929 . S
C1217 C1216 1.363 . S
C1217 C1223 1.428 1_554 S
H1218 C1214 0.930 . S
H1219 C1216 0.929 . S
S1220 N1221 1.613 . S
S1220 N1222 1.610 . S
N1221 S1220 1.613 . S
N1221 C1224 1.350 . S
N1222 S1220 1.610 . S
N1222 C1223 1.351 . S
C1223 C1217 1.428 1_556 S
C1223 N1222 1.351 . S
C1223 C1224 1.434 . S
C1224 C1215 1.429 1_556 S
C1224 N1221 1.350 . S
C1224 C1223 1.434 . S
C1225 C1226 1.369 . S
C1225 C1227 1.419 . S
C1225 H1229 0.930 . S
C1226 C1225 1.369 . S
C1226 C1235 1.429 . S
C1227 C1225 1.419 . S
C1227 C1228 1.363 . S
C1227 H1230 0.929 . S
C1228 C1227 1.363 . S
C1228 C1234 1.428 1_554 S
H1229 C1225 0.930 . S
H1230 C1227 0.929 . S
S1231 N1232 1.613 . S
S1231 N1233 1.610 . S
N1232 S1231 1.613 . S
N1232 C1235 1.350 1_556 S
N1233 S1231 1.610 . S
N1233 C1234 1.351 . S
C1234 C1228 1.428 1_556 S
C1234 N1233 1.351 . S
C1234 C1235 1.434 1_556 S
C1235 C1226 1.429 . S
C1235 N1232 1.350 1_554 S
C1235 C1234 1.434 1_554 S
C1236 C1237 1.369 . S
C1236 C1238 1.419 1_556 S
C1236 H1240 0.930 . S
C1237 C1236 1.369 . S
C1237 C1246 1.429 . S
C1238 C1236 1.419 1_554 S
C1238 C1239 1.363 . S
C1238 H1241 0.929 . S
C1239 C1238 1.363 . S
C1239 C1245 1.428 . S
H1240 C1236 0.930 . S
H1241 C1238 0.929 . S
S1242 N1243 1.613 1_554 S
S1242 N1244 1.610 . S
N1243 S1242 1.613 1_556 S
N1243 C1246 1.350 . S
N1244 S1242 1.610 . S
N1244 C1245 1.351 . S
C1245 C1239 1.428 . S
C1245 N1244 1.351 . S
C1245 C1246 1.434 1_554 S
C1246 C1237 1.429 . S
C1246 N1243 1.350 . S
C1246 C1245 1.434 1_556 S
C1247 C1248 1.369 . S
C1247 C1249 1.419 1_556 S
C1247 H1251 0.930 . S
C1248 C1247 1.369 . S
C1248 C1257 1.429 . S
C1249 C1247 1.419 1_554 S
C1249 C1250 1.363 . S
C1249 H1252 0.929 . S
C1250 C1249 1.363 . S
C1250 C1256 1.428 . S
H1251 C1247 0.930 . S
H1252 C1249 0.929 . S
S1253 N1254 1.613 1_554 S
S1253 N1255 1.610 . S
N1254 S1253 1.613 1_556 S
N1254 C1257 1.350 . S
N1255 S1253 1.610 . S
N1255 C1256 1.351 . S
C1256 C1250 1.428 . S
C1256 N1255 1.351 . S
C1256 C1257 1.434 1_554 S
C1257 C1248 1.429 . S
C1257 N1254 1.350 . S
C1257 C1256 1.434 1_556 S
C1258 C1259 1.369 . S
C1258 C1260 1.419 1_556 S
C1258 H1262 0.930 . S
C1259 C1258 1.369 . S
C1259 C1268 1.429 . S
C1260 C1258 1.419 1_554 S
C1260 C1261 1.363 . S
C1260 H1263 0.929 . S
C1261 C1260 1.363 . S
C1261 C1267 1.428 . S
H1262 C1258 0.930 . S
H1263 C1260 0.929 . S
S1264 N1265 1.613 1_554 S
S1264 N1266 1.610 . S
N1265 S1264 1.613 1_556 S
N1265 C1268 1.350 . S
N1266 S1264 1.610 . S
N1266 C1267 1.351 . S
C1267 C1261 1.428 . S
C1267 N1266 1.351 . S
C1267 C1268 1.434 1_554 S
C1268 C1259 1.429 . S
C1268 N1265 1.350 . S
C1268 C1267 1.434 1_556 S
C1269 C1270 1.369 . S
C1269 C1271 1.419 1_556 S
C1269 H1273 0.930 . S
C1270 C1269 1.369 . S
C1270 C1279 1.429 . S
C1271 C1269 1.419 1_554 S
C1271 C1272 1.363 . S
C1271 H1274 0.929 . S
C1272 C1271 1.363 . S
C1272 C1278 1.428 . S
H1273 C1269 0.930 . S
H1274 C1271 0.929 . S
S1275 N1276 1.611 1_554 S
S1275 N1277 1.613 . S
N1276 S1275 1.611 1_556 S
N1276 C1279 1.350 . S
N1277 S1275 1.613 . S
N1277 C1278 1.351 . S
C1278 C1272 1.428 . S
C1278 N1277 1.351 . S
C1278 C1279 1.434 1_554 S
C1279 C1270 1.429 . S
C1279 N1276 1.350 . S
C1279 C1278 1.434 1_556 S
C1280 C1281 1.369 . S
C1280 C1282 1.419 1_655 S
C1280 H1284 0.930 . S
C1281 C1280 1.369 . S
C1281 C1290 1.429 . S
C1282 C1280 1.419 1_455 S
C1282 C1283 1.363 . S
C1282 H1285 0.929 . S
C1283 C1282 1.363 . S
C1283 C1289 1.428 . S
H1284 C1280 0.930 . S
H1285 C1282 0.929 . S
S1286 N1287 1.613 1_455 S
S1286 N1288 1.610 . S
N1287 S1286 1.613 1_655 S
N1287 C1290 1.350 . S
N1288 S1286 1.610 . S
N1288 C1289 1.351 . S
C1289 C1283 1.428 . S
C1289 N1288 1.351 . S
C1289 C1290 1.434 1_455 S
C1290 C1281 1.429 . S
C1290 N1287 1.350 . S
C1290 C1289 1.434 1_655 S
C1291 C1292 1.369 . S
C1291 C1293 1.419 1_565 S
C1291 H1295 0.930 . S
C1292 C1291 1.369 . S
C1292 C1301 1.429 . S
C1293 C1291 1.419 1_545 S
C1293 C1294 1.363 . S
C1293 H1296 0.929 . S
C1294 C1293 1.363 . S
C1294 C1300 1.428 . S
H1295 C1291 0.930 . S
H1296 C1293 0.929 . S
S1297 N1298 1.613 1_545 S
S1297 N1299 1.610 . S
N1298 S1297 1.613 1_565 S
N1298 C1301 1.350 . S
N1299 S1297 1.610 . S
N1299 C1300 1.351 . S
C1300 C1294 1.428 . S
C1300 N1299 1.351 . S
C1300 C1301 1.434 1_545 S
C1301 C1292 1.429 . S
C1301 N1298 1.350 . S
C1301 C1300 1.434 1_565 S
C1302 C1303 1.369 . S
C1302 C1304 1.419 1_655 S
C1302 H1306 0.930 . S
C1303 C1302 1.369 . S
C1303 C1312 1.429 . S
C1304 C1302 1.419 1_455 S
C1304 C1305 1.363 . S
C1304 H1307 0.929 . S
C1305 C1304 1.363 . S
C1305 C1311 1.428 . S
H1306 C1302 0.930 . S
H1307 C1304 0.929 . S
S1308 N1309 1.613 1_455 S
S1308 N1310 1.610 . S
N1309 S1308 1.613 1_655 S
N1309 C1312 1.350 . S
N1310 S1308 1.610 . S
N1310 C1311 1.351 . S
C1311 C1305 1.428 . S
C1311 N1310 1.351 . S
C1311 C1312 1.434 1_455 S
C1312 C1303 1.429 . S
C1312 N1309 1.350 . S
C1312 C1311 1.434 1_655 S
C1313 C1314 1.369 . S
C1313 C1315 1.419 1_545 S
C1313 H1317 0.930 . S
C1314 C1313 1.369 . S
C1314 C1323 1.429 . S
C1315 C1313 1.419 1_565 S
C1315 C1316 1.363 . S
C1315 H1318 0.929 . S
C1316 C1315 1.363 . S
C1316 C1322 1.428 . S
H1317 C1313 0.930 . S
H1318 C1315 0.929 . S
S1319 N1320 1.646 . S
S1319 N1321 1.584 1_545 S
N1320 S1319 1.646 . S
N1320 C1323 1.350 . S
N1321 S1319 1.584 1_565 S
N1321 C1322 1.351 . S
C1322 C1316 1.428 . S
C1322 N1321 1.351 . S
C1322 C1323 1.434 1_565 S
C1323 C1314 1.429 . S
C1323 N1320 1.350 . S
C1323 C1322 1.434 1_545 S
C1324 C1325 1.369 . S
C1324 C1326 1.419 1_565 S
C1324 H1328 0.930 . S
C1325 C1324 1.369 . S
C1325 C1334 1.429 . S
C1326 C1324 1.419 1_545 S
C1326 C1327 1.363 . S
C1326 H1329 0.929 . S
C1327 C1326 1.363 . S
C1327 C1333 1.428 . S
H1328 C1324 0.930 . S
H1329 C1326 0.929 . S
S1330 N1331 1.613 1_545 S
S1330 N1332 1.610 . S
N1331 S1330 1.613 1_565 S
N1331 C1334 1.350 . S
N1332 S1330 1.610 . S
N1332 C1333 1.351 . S
C1333 C1327 1.428 . S
C1333 N1332 1.351 . S
C1333 C1334 1.434 1_545 S
C1334 C1325 1.429 . S
C1334 N1331 1.350 . S
C1334 C1333 1.434 1_565 S
C1335 C1336 1.369 . S
C1335 C1337 1.419 1_455 S
C1335 H1339 0.930 . S
C1336 C1335 1.369 . S
C1336 C1345 1.429 . S
C1337 C1335 1.419 1_655 S
C1337 C1338 1.363 . S
C1337 H1340 0.929 . S
C1338 C1337 1.363 . S
C1338 C1344 1.428 . S
H1339 C1335 0.930 . S
H1340 C1337 0.929 . S
S1341 N1342 1.613 . S
S1341 N1343 1.610 1_455 S
N1342 S1341 1.613 . S
N1342 C1345 1.350 . S
N1343 S1341 1.610 1_655 S
N1343 C1344 1.351 . S
C1344 C1338 1.428 . S
C1344 N1343 1.351 . S
C1344 C1345 1.434 1_655 S
C1345 C1336 1.429 . S
C1345 N1342 1.350 . S
C1345 C1344 1.434 1_455 S
C1346 C1347 1.369 . S
C1346 C1348 1.419 1_565 S
C1346 H1350 0.930 . S
C1347 C1346 1.369 . S
C1347 C1356 1.429 . S
C1348 C1346 1.419 1_545 S
C1348 C1349 1.363 . S
C1348 H1351 0.929 . S
C1349 C1348 1.363 . S
C1349 C1355 1.428 . S
H1350 C1346 0.930 . S
H1351 C1348 0.929 . S
S1352 N1353 1.613 1_545 S
S1352 N1354 1.610 . S
N1353 S1352 1.613 1_565 S
N1353 C1356 1.350 . S
N1354 S1352 1.610 . S
N1354 C1355 1.351 . S
C1355 C1349 1.428 . S
C1355 N1354 1.351 . S
C1355 C1356 1.434 1_545 S
C1356 C1347 1.429 . S
C1356 N1353 1.350 . S
C1356 C1355 1.434 1_565 S
C1357 C1358 1.369 . S
C1357 C1359 1.419 1_455 S
C1357 H1361 0.930 . S
C1358 C1357 1.369 . S
C1358 C1367 1.429 . S
C1359 C1357 1.419 1_655 S
C1359 C1360 1.363 . S
C1359 H1362 0.929 . S
C1360 C1359 1.363 . S
C1360 C1366 1.428 . S
H1361 C1357 0.930 . S
H1362 C1359 0.929 . S
S1363 N1364 1.613 . S
S1363 N1365 1.610 1_455 S
N1364 S1363 1.613 . S
N1364 C1367 1.350 . S
N1365 S1363 1.610 1_655 S
N1365 C1366 1.351 . S
C1366 C1360 1.428 . S
C1366 N1365 1.351 . S
C1366 C1367 1.434 1_655 S
C1367 C1358 1.429 . S
C1367 N1364 1.350 . S
C1367 C1366 1.434 1_455 S
C1368 C1369 1.369 1_655 S
C1368 C1370 1.419 . S
C1368 H1372 0.930 . S
C1369 C1368 1.369 1_455 S
C1369 C1378 1.429 . S
C1370 C1368 1.419 . S
C1370 C1371 1.363 1_655 S
C1370 H1373 0.929 . S
C1371 C1370 1.363 1_455 S
C1371 C1377 1.428 . S
H1372 C1368 0.930 . S
H1373 C1370 0.929 . S
S1374 N1375 1.613 . S
S1374 N1376 1.610 . S
N1375 S1374 1.613 . S
N1375 C1378 1.350 . S
N1376 S1374 1.610 . S
N1376 C1377 1.351 . S
C1377 C1371 1.428 . S
C1377 N1376 1.351 . S
C1377 C1378 1.434 . S
C1378 C1369 1.429 . S
C1378 N1375 1.350 . S
C1378 C1377 1.434 . S
C1379 C1380 1.369 . S
C1379 C1381 1.419 . S
C1379 H1383 0.930 . S
C1380 C1379 1.369 . S
C1380 C1389 1.429 . S
C1381 C1379 1.419 . S
C1381 C1382 1.363 . S
C1381 H1384 0.929 . S
C1382 C1381 1.363 . S
C1382 C1388 1.428 . S
H1383 C1379 0.930 . S
H1384 C1381 0.929 . S
S1385 N1386 1.613 . S
S1385 N1387 1.610 . S
N1386 S1385 1.613 . S
N1386 C1389 1.350 . S
N1387 S1385 1.610 . S
N1387 C1388 1.351 . S
C1388 C1382 1.428 . S
C1388 N1387 1.351 . S
C1388 C1389 1.434 . S
C1389 C1380 1.429 . S
C1389 N1386 1.350 . S
C1389 C1388 1.434 . S
C1390 C1391 1.369 . S
C1390 C1392 1.419 . S
C1390 H1394 0.930 . S
C1391 C1390 1.369 . S
C1391 C1400 1.429 1_455 S
C1392 C1390 1.419 . S
C1392 C1393 1.363 . S
C1392 H1395 0.929 . S
C1393 C1392 1.363 . S
C1393 C1399 1.428 1_455 S
H1394 C1390 0.930 . S
H1395 C1392 0.929 . S
S1396 N1397 1.613 . S
S1396 N1398 1.610 . S
N1397 S1396 1.613 . S
N1397 C1400 1.350 . S
N1398 S1396 1.610 . S
N1398 C1399 1.351 . S
C1399 C1393 1.428 1_655 S
C1399 N1398 1.351 . S
C1399 C1400 1.434 . S
C1400 C1391 1.429 1_655 S
C1400 N1397 1.350 . S
C1400 C1399 1.434 . S
C1401 C1402 1.369 . S
C1401 C1403 1.419 . S
C1401 H1405 0.931 1_545 S
C1402 C1401 1.369 . S
C1402 C1411 1.429 . S
C1403 C1401 1.419 . S
C1403 C1404 1.363 . S
C1403 H1406 0.929 . S
C1404 C1403 1.363 . S
C1404 C1410 1.428 . S
H1405 C1401 0.931 1_565 S
H1406 C1403 0.929 . S
S1407 N1408 1.613 . S
S1407 N1409 1.610 . S
N1408 S1407 1.613 . S
N1408 C1411 1.350 . S
N1409 S1407 1.610 . S
N1409 C1410 1.351 . S
C1410 C1404 1.428 . S
C1410 N1409 1.351 . S
C1410 C1411 1.434 . S
C1411 C1402 1.429 . S
C1411 N1408 1.350 . S
C1411 C1410 1.434 . S
C1412 C1413 1.369 1_655 S
C1412 C1414 1.419 . S
C1412 H1416 0.930 . S
C1413 C1412 1.369 1_455 S
C1413 C1422 1.429 . S
C1414 C1412 1.419 . S
C1414 C1415 1.363 1_655 S
C1414 H1417 0.929 . S
C1415 C1414 1.363 1_455 S
C1415 C1421 1.428 . S
H1416 C1412 0.930 . S
H1417 C1414 0.929 . S
S1418 N1419 1.613 . S
S1418 N1420 1.610 . S
N1419 S1418 1.613 . S
N1419 C1422 1.350 . S
N1420 S1418 1.610 . S
N1420 C1421 1.351 . S
C1421 C1415 1.428 . S
C1421 N1420 1.351 . S
C1421 C1422 1.434 . S
C1422 C1413 1.429 . S
C1422 N1419 1.350 . S
C1422 C1421 1.434 . S
C1423 C1424 1.369 1_565 S
C1423 C1425 1.419 . S
C1423 H1427 0.930 . S
C1424 C1423 1.369 1_545 S
C1424 C1433 1.429 . S
C1425 C1423 1.419 . S
C1425 C1426 1.363 1_565 S
C1425 H1428 0.929 . S
C1426 C1425 1.363 1_545 S
C1426 C1432 1.428 . S
H1427 C1423 0.930 . S
H1428 C1425 0.929 . S
S1429 N1430 1.613 . S
S1429 N1431 1.610 . S
N1430 S1429 1.613 . S
N1430 C1433 1.350 . S
N1431 S1429 1.610 . S
N1431 C1432 1.351 . S
C1432 C1426 1.428 . S
C1432 N1431 1.351 . S
C1432 C1433 1.434 . S
C1433 C1424 1.429 . S
C1433 N1430 1.350 . S
C1433 C1432 1.434 . S
C1434 C1435 1.369 . S
C1434 C1436 1.419 . S
C1434 H1438 0.930 . S
C1435 C1434 1.369 . S
C1435 C1444 1.429 1_455 S
C1436 C1434 1.419 . S
C1436 C1437 1.363 . S
C1436 H1439 0.929 . S
C1437 C1436 1.363 . S
C1437 C1443 1.428 1_455 S
H1438 C1434 0.930 . S
H1439 C1436 0.929 . S
S1440 N1441 1.613 . S
S1440 N1442 1.610 . S
N1441 S1440 1.613 . S
N1441 C1444 1.350 . S
N1442 S1440 1.610 . S
N1442 C1443 1.351 . S
C1443 C1437 1.428 1_655 S
C1443 N1442 1.351 . S
C1443 C1444 1.434 . S
C1444 C1435 1.429 1_655 S
C1444 N1441 1.350 . S
C1444 C1443 1.434 . S
C1445 C1446 1.369 . S
C1445 C1447 1.419 . S
C1445 H1449 0.930 . S
C1446 C1445 1.369 . S
C1446 C1455 1.429 1_545 S
C1447 C1445 1.419 . S
C1447 C1448 1.363 . S
C1447 H1450 0.929 . S
C1448 C1447 1.363 . S
C1448 C1454 1.428 1_545 S
H1449 C1445 0.930 . S
H1450 C1447 0.929 . S
S1451 N1452 1.613 . S
S1451 N1453 1.610 . S
N1452 S1451 1.613 . S
N1452 C1455 1.350 . S
N1453 S1451 1.610 . S
N1453 C1454 1.351 . S
C1454 C1448 1.428 1_565 S
C1454 N1453 1.351 . S
C1454 C1455 1.434 . S
C1455 C1446 1.429 1_565 S
C1455 N1452 1.350 . S
C1455 C1454 1.434 . S
C1456 C1457 1.369 . S
C1456 C1458 1.419 . S
C1456 H1460 0.930 . S
C1457 C1456 1.369 . S
C1457 C1466 1.429 1_554 S
C1458 C1456 1.419 . S
C1458 C1459 1.363 . S
C1458 H1461 0.929 . S
C1459 C1458 1.363 . S
C1459 C1465 1.428 1_554 S
H1460 C1456 0.930 . S
H1461 C1458 0.929 . S
S1462 N1463 1.613 . S
S1462 N1464 1.610 . S
N1463 S1462 1.613 . S
N1463 C1466 1.350 . S
N1464 S1462 1.610 . S
N1464 C1465 1.351 . S
C1465 C1459 1.428 1_556 S
C1465 N1464 1.351 . S
C1465 C1466 1.434 . S
C1466 C1457 1.429 1_556 S
C1466 N1463 1.350 . S
C1466 C1465 1.434 . S
C1467 C1468 1.369 . S
C1467 C1469 1.419 . S
C1467 H1471 0.930 . S
C1468 C1467 1.369 . S
C1468 C1477 1.429 1_554 S
C1469 C1467 1.419 . S
C1469 C1470 1.363 . S
C1469 H1472 0.929 . S
C1470 C1469 1.363 . S
C1470 C1476 1.428 1_554 S
H1471 C1467 0.930 . S
H1472 C1469 0.929 . S
S1473 N1474 1.613 . S
S1473 N1475 1.610 . S
N1474 S1473 1.613 . S
N1474 C1477 1.350 . S
N1475 S1473 1.610 . S
N1475 C1476 1.351 . S
C1476 C1470 1.428 1_556 S
C1476 N1475 1.351 . S
C1476 C1477 1.434 . S
C1477 C1468 1.429 1_556 S
C1477 N1474 1.350 . S
C1477 C1476 1.434 . S
C1478 C1479 1.369 . S
C1478 C1480 1.419 . S
C1478 H1482 0.930 . S
C1479 C1478 1.369 . S
C1479 C1488 1.429 . S
C1480 C1478 1.419 . S
C1480 C1481 1.363 . S
C1480 H1483 0.929 1_554 S
C1481 C1480 1.363 . S
C1481 C1487 1.428 . S
H1482 C1478 0.930 . S
H1483 C1480 0.929 1_556 S
S1484 N1485 1.613 . S
S1484 N1486 1.610 . S
N1485 S1484 1.613 . S
N1485 C1488 1.350 . S
N1486 S1484 1.610 . S
N1486 C1487 1.351 . S
C1487 C1481 1.428 . S
C1487 N1486 1.351 . S
C1487 C1488 1.434 . S
C1488 C1479 1.429 . S
C1488 N1485 1.350 . S
C1488 C1487 1.434 . S
C1489 C1490 1.369 . S
C1489 C1491 1.419 . S
C1489 H1493 0.930 . S
C1490 C1489 1.369 . S
C1490 C1499 1.429 1_554 S
C1491 C1489 1.419 . S
C1491 C1492 1.363 . S
C1491 H1494 0.929 . S
C1492 C1491 1.363 . S
C1492 C1498 1.428 1_554 S
H1493 C1489 0.930 . S
H1494 C1491 0.929 . S
S1495 N1496 1.613 . S
S1495 N1497 1.610 . S
N1496 S1495 1.613 . S
N1496 C1499 1.350 . S
N1497 S1495 1.610 . S
N1497 C1498 1.351 . S
C1498 C1492 1.428 1_556 S
C1498 N1497 1.351 . S
C1498 C1499 1.434 . S
C1499 C1490 1.429 1_556 S
C1499 N1496 1.350 . S
C1499 C1498 1.434 . S
C1500 C1501 1.369 . S
C1500 C1502 1.419 . S
C1500 H1504 0.930 . S
C1501 C1500 1.369 . S
C1501 C1510 1.429 . S
C1502 C1500 1.419 . S
C1502 C1503 1.363 . S
C1502 H1505 0.929 . S
C1503 C1502 1.363 . S
C1503 C1509 1.428 . S
H1504 C1500 0.930 . S
H1505 C1502 0.929 . S
S1506 N1507 1.613 . S
S1506 N1508 1.610 . S
N1507 S1506 1.613 . S
N1507 C1510 1.350 . S
N1508 S1506 1.610 . S
N1508 C1509 1.351 . S
C1509 C1503 1.428 . S
C1509 N1508 1.351 . S
C1509 C1510 1.434 . S
C1510 C1501 1.429 . S
C1510 N1507 1.350 . S
C1510 C1509 1.434 . S
C1511 C1512 1.369 . S
C1511 C1513 1.419 . S
C1511 H1515 0.930 . S
C1512 C1511 1.369 . S
C1512 C1521 1.429 . S
C1513 C1511 1.419 . S
C1513 C1514 1.363 . S
C1513 H1516 0.929 . S
C1514 C1513 1.363 . S
C1514 C1520 1.428 . S
H1515 C1511 0.930 . S
H1516 C1513 0.929 . S
S1517 N1518 1.613 . S
S1517 N1519 1.610 . S
N1518 S1517 1.613 . S
N1518 C1521 1.350 . S
N1519 S1517 1.610 . S
N1519 C1520 1.351 . S
C1520 C1514 1.428 . S
C1520 N1519 1.351 . S
C1520 C1521 1.434 . S
C1521 C1512 1.429 . S
C1521 N1518 1.350 . S
C1521 C1520 1.434 . S
C1522 C1523 1.369 . S
C1522 C1524 1.419 . S
C1522 H1526 0.930 . S
C1523 C1522 1.369 . S
C1523 C1532 1.429 . S
C1524 C1522 1.419 . S
C1524 C1525 1.363 . S
C1524 H1527 0.929 . S
C1525 C1524 1.363 . S
C1525 C1531 1.428 . S
H1526 C1522 0.930 . S
H1527 C1524 0.929 . S
S1528 N1529 1.613 . S
S1528 N1530 1.610 . S
N1529 S1528 1.613 . S
N1529 C1532 1.350 . S
N1530 S1528 1.610 . S
N1530 C1531 1.351 . S
C1531 C1525 1.428 . S
C1531 N1530 1.351 . S
C1531 C1532 1.434 . S
C1532 C1523 1.429 . S
C1532 N1529 1.350 . S
C1532 C1531 1.434 . S
C1533 C1534 1.369 . S
C1533 C1535 1.419 . S
C1533 H1537 0.930 . S
C1534 C1533 1.369 . S
C1534 C1543 1.429 . S
C1535 C1533 1.419 . S
C1535 C1536 1.363 . S
C1535 H1538 0.929 . S
C1536 C1535 1.363 . S
C1536 C1542 1.428 . S
H1537 C1533 0.930 . S
H1538 C1535 0.929 . S
S1539 N1540 1.613 . S
S1539 N1541 1.610 . S
N1540 S1539 1.613 . S
N1540 C1543 1.350 . S
N1541 S1539 1.610 . S
N1541 C1542 1.351 . S
C1542 C1536 1.428 . S
C1542 N1541 1.351 . S
C1542 C1543 1.434 . S
C1543 C1534 1.429 . S
C1543 N1540 1.350 . S
C1543 C1542 1.434 . S
C1544 C1545 1.369 . S
C1544 C1546 1.419 . S
C1544 H1548 0.930 . S
C1545 C1544 1.369 . S
C1545 C1554 1.429 . S
C1546 C1544 1.419 . S
C1546 C1547 1.363 . S
C1546 H1549 0.929 . S
C1547 C1546 1.363 . S
C1547 C1553 1.428 . S
H1548 C1544 0.930 . S
H1549 C1546 0.929 . S
S1550 N1551 1.613 . S
S1550 N1552 1.610 . S
N1551 S1550 1.613 . S
N1551 C1554 1.350 . S
N1552 S1550 1.610 . S
N1552 C1553 1.351 . S
C1553 C1547 1.428 . S
C1553 N1552 1.351 . S
C1553 C1554 1.434 . S
C1554 C1545 1.429 . S
C1554 N1551 1.350 . S
C1554 C1553 1.434 . S
C1555 C1556 1.369 . S
C1555 C1557 1.419 . S
C1555 H1559 0.930 . S
C1556 C1555 1.369 . S
C1556 C1565 1.429 . S
C1557 C1555 1.419 . S
C1557 C1558 1.363 . S
C1557 H1560 0.929 . S
C1558 C1557 1.363 . S
C1558 C1564 1.428 . S
H1559 C1555 0.930 . S
H1560 C1557 0.929 . S
S1561 N1562 1.613 . S
S1561 N1563 1.610 . S
N1562 S1561 1.613 . S
N1562 C1565 1.350 . S
N1563 S1561 1.610 . S
N1563 C1564 1.351 . S
C1564 C1558 1.428 . S
C1564 N1563 1.351 . S
C1564 C1565 1.434 . S
C1565 C1556 1.429 . S
C1565 N1562 1.350 . S
C1565 C1564 1.434 . S
C1566 C1567 1.369 . S
C1566 C1568 1.419 . S
C1566 H1570 0.930 . S
C1567 C1566 1.369 . S
C1567 C1576 1.429 . S
C1568 C1566 1.419 . S
C1568 C1569 1.363 . S
C1568 H1571 0.929 . S
C1569 C1568 1.363 . S
C1569 C1575 1.428 . S
H1570 C1566 0.930 . S
H1571 C1568 0.929 . S
S1572 N1573 1.613 . S
S1572 N1574 1.610 . S
N1573 S1572 1.613 . S
N1573 C1576 1.350 . S
N1574 S1572 1.610 . S
N1574 C1575 1.351 . S
C1575 C1569 1.428 . S
C1575 N1574 1.351 . S
C1575 C1576 1.434 . S
C1576 C1567 1.429 . S
C1576 N1573 1.350 . S
C1576 C1575 1.434 . S
C1577 C1578 1.369 . S
C1577 C1579 1.419 . S
C1577 H1581 0.930 . S
C1578 C1577 1.369 . S
C1578 C1587 1.429 . S
C1579 C1577 1.419 . S
C1579 C1580 1.363 . S
C1579 H1582 0.929 . S
C1580 C1579 1.363 . S
C1580 C1586 1.428 . S
H1581 C1577 0.930 . S
H1582 C1579 0.929 . S
S1583 N1584 1.613 . S
S1583 N1585 1.610 . S
N1584 S1583 1.613 . S
N1584 C1587 1.350 . S
N1585 S1583 1.610 . S
N1585 C1586 1.351 . S
C1586 C1580 1.428 . S
C1586 N1585 1.351 . S
C1586 C1587 1.434 . S
C1587 C1578 1.429 . S
C1587 N1584 1.350 . S
C1587 C1586 1.434 . S
C1588 C1589 1.369 . S
C1588 C1590 1.419 . S
C1588 H1592 0.930 . S
C1589 C1588 1.369 . S
C1589 C1598 1.429 . S
C1590 C1588 1.419 . S
C1590 C1591 1.363 . S
C1590 H1593 0.929 . S
C1591 C1590 1.363 . S
C1591 C1597 1.428 . S
H1592 C1588 0.930 . S
H1593 C1590 0.929 . S
S1594 N1595 1.613 . S
S1594 N1596 1.610 . S
N1595 S1594 1.613 . S
N1595 C1598 1.350 . S
N1596 S1594 1.610 . S
N1596 C1597 1.351 . S
C1597 C1591 1.428 . S
C1597 N1596 1.351 . S
C1597 C1598 1.434 . S
C1598 C1589 1.429 . S
C1598 N1595 1.350 . S
C1598 C1597 1.434 . S
C1599 C1600 1.369 . S
C1599 C1601 1.419 . S
C1599 H1603 0.930 . S
C1600 C1599 1.369 . S
C1600 C1609 1.429 . S
C1601 C1599 1.419 . S
C1601 C1602 1.363 . S
C1601 H1604 0.929 . S
C1602 C1601 1.363 . S
C1602 C1608 1.428 . S
H1603 C1599 0.930 . S
H1604 C1601 0.929 . S
S1605 N1606 1.613 . S
S1605 N1607 1.610 . S
N1606 S1605 1.613 . S
N1606 C1609 1.350 . S
N1607 S1605 1.610 . S
N1607 C1608 1.351 . S
C1608 C1602 1.428 . S
C1608 N1607 1.351 . S
C1608 C1609 1.434 . S
C1609 C1600 1.429 . S
C1609 N1606 1.350 . S
C1609 C1608 1.434 . S
C1610 C1611 1.369 . S
C1610 C1612 1.419 . S
C1610 H1614 0.930 . S
C1611 C1610 1.369 . S
C1611 C1620 1.429 . S
C1612 C1610 1.419 . S
C1612 C1613 1.363 . S
C1612 H1615 0.929 . S
C1613 C1612 1.363 . S
C1613 C1619 1.428 . S
H1614 C1610 0.930 . S
H1615 C1612 0.929 . S
S1616 N1617 1.613 . S
S1616 N1618 1.610 . S
N1617 S1616 1.613 . S
N1617 C1620 1.350 . S
N1618 S1616 1.610 . S
N1618 C1619 1.351 . S
C1619 C1613 1.428 . S
C1619 N1618 1.351 . S
C1619 C1620 1.434 . S
C1620 C1611 1.429 . S
C1620 N1617 1.350 . S
C1620 C1619 1.434 . S
C1621 C1622 1.369 . S
C1621 C1623 1.419 . S
C1621 H1625 0.930 . S
C1622 C1621 1.369 . S
C1622 C1631 1.429 . S
C1623 C1621 1.419 . S
C1623 C1624 1.363 . S
C1623 H1626 0.929 . S
C1624 C1623 1.363 . S
C1624 C1630 1.428 . S
H1625 C1621 0.930 . S
H1626 C1623 0.929 . S
S1627 N1628 1.613 . S
S1627 N1629 1.610 . S
N1628 S1627 1.613 . S
N1628 C1631 1.350 . S
N1629 S1627 1.610 . S
N1629 C1630 1.351 . S
C1630 C1624 1.428 . S
C1630 N1629 1.351 . S
C1630 C1631 1.434 . S
C1631 C1622 1.429 . S
C1631 N1628 1.350 . S
C1631 C1630 1.434 . S
C1632 C1633 1.369 . S
C1632 C1634 1.419 . S
C1632 H1636 0.930 . S
C1633 C1632 1.369 . S
C1633 C1642 1.429 . S
C1634 C1632 1.419 . S
C1634 C1635 1.363 . S
C1634 H1637 0.929 . S
C1635 C1634 1.363 . S
C1635 C1641 1.428 . S
H1636 C1632 0.930 . S
H1637 C1634 0.929 . S
S1638 N1639 1.613 . S
S1638 N1640 1.610 . S
N1639 S1638 1.613 . S
N1639 C1642 1.350 . S
N1640 S1638 1.610 . S
N1640 C1641 1.351 . S
C1641 C1635 1.428 . S
C1641 N1640 1.351 . S
C1641 C1642 1.434 . S
C1642 C1633 1.429 . S
C1642 N1639 1.350 . S
C1642 C1641 1.434 . S
C1643 C1644 1.369 . S
C1643 C1645 1.419 . S
C1643 H1647 0.930 . S
C1644 C1643 1.369 . S
C1644 C1653 1.429 . S
C1645 C1643 1.419 . S
C1645 C1646 1.363 . S
C1645 H1648 0.929 . S
C1646 C1645 1.363 . S
C1646 C1652 1.428 . S
H1647 C1643 0.930 . S
H1648 C1645 0.929 . S
S1649 N1650 1.613 . S
S1649 N1651 1.610 . S
N1650 S1649 1.613 . S
N1650 C1653 1.350 . S
N1651 S1649 1.610 . S
N1651 C1652 1.351 . S
C1652 C1646 1.428 . S
C1652 N1651 1.351 . S
C1652 C1653 1.434 . S
C1653 C1644 1.429 . S
C1653 N1650 1.350 . S
C1653 C1652 1.434 . S
C1654 C1655 1.369 . S
C1654 C1656 1.419 . S
C1654 H1658 0.930 . S
C1655 C1654 1.369 . S
C1655 C1664 1.429 . S
C1656 C1654 1.419 . S
C1656 C1657 1.363 . S
C1656 H1659 0.929 . S
C1657 C1656 1.363 . S
C1657 C1663 1.428 . S
H1658 C1654 0.930 . S
H1659 C1656 0.929 . S
S1660 N1661 1.613 . S
S1660 N1662 1.610 . S
N1661 S1660 1.613 . S
N1661 C1664 1.350 . S
N1662 S1660 1.610 . S
N1662 C1663 1.351 . S
C1663 C1657 1.428 . S
C1663 N1662 1.351 . S
C1663 C1664 1.434 . S
C1664 C1655 1.429 . S
C1664 N1661 1.350 . S
C1664 C1663 1.434 . S
C1665 C1666 1.369 . S
C1665 C1667 1.419 . S
C1665 H1669 0.930 . S
C1666 C1665 1.369 . S
C1666 C1675 1.429 . S
C1667 C1665 1.419 . S
C1667 C1668 1.363 . S
C1667 H1670 0.929 . S
C1668 C1667 1.363 . S
C1668 C1674 1.428 . S
H1669 C1665 0.930 . S
H1670 C1667 0.929 . S
S1671 N1672 1.613 . S
S1671 N1673 1.610 . S
N1672 S1671 1.613 . S
N1672 C1675 1.350 . S
N1673 S1671 1.610 . S
N1673 C1674 1.351 . S
C1674 C1668 1.428 . S
C1674 N1673 1.351 . S
C1674 C1675 1.434 . S
C1675 C1666 1.429 . S
C1675 N1672 1.350 . S
C1675 C1674 1.434 . S
C1676 C1677 1.369 . S
C1676 C1678 1.419 . S
C1676 H1680 0.930 . S
C1677 C1676 1.369 . S
C1677 C1686 1.429 . S
C1678 C1676 1.419 . S
C1678 C1679 1.363 . S
C1678 H1681 0.929 . S
C1679 C1678 1.363 . S
C1679 C1685 1.428 . S
H1680 C1676 0.930 . S
H1681 C1678 0.929 . S
S1682 N1683 1.613 . S
S1682 N1684 1.610 . S
N1683 S1682 1.613 . S
N1683 C1686 1.350 . S
N1684 S1682 1.610 . S
N1684 C1685 1.351 . S
C1685 C1679 1.428 . S
C1685 N1684 1.351 . S
C1685 C1686 1.434 . S
C1686 C1677 1.429 . S
C1686 N1683 1.350 . S
C1686 C1685 1.434 . S
C1687 C1688 1.369 . S
C1687 C1689 1.419 . S
C1687 H1691 0.930 . S
C1688 C1687 1.369 . S
C1688 C1697 1.429 . S
C1689 C1687 1.419 . S
C1689 C1690 1.363 . S
C1689 H1692 0.929 . S
C1690 C1689 1.363 . S
C1690 C1696 1.428 . S
H1691 C1687 0.930 . S
H1692 C1689 0.929 . S
S1693 N1694 1.613 . S
S1693 N1695 1.610 . S
N1694 S1693 1.613 . S
N1694 C1697 1.350 . S
N1695 S1693 1.610 . S
N1695 C1696 1.351 . S
C1696 C1690 1.428 . S
C1696 N1695 1.351 . S
C1696 C1697 1.434 . S
C1697 C1688 1.429 . S
C1697 N1694 1.350 . S
C1697 C1696 1.434 . S
C1698 C1699 1.369 . S
C1698 C1700 1.419 . S
C1698 H1702 0.930 . S
C1699 C1698 1.369 . S
C1699 C1708 1.429 . S
C1700 C1698 1.419 . S
C1700 C1701 1.363 . S
C1700 H1703 0.929 . S
C1701 C1700 1.363 . S
C1701 C1707 1.428 . S
H1702 C1698 0.930 . S
H1703 C1700 0.929 . S
S1704 N1705 1.613 . S
S1704 N1706 1.610 . S
N1705 S1704 1.613 . S
N1705 C1708 1.350 . S
N1706 S1704 1.610 . S
N1706 C1707 1.351 . S
C1707 C1701 1.428 . S
C1707 N1706 1.351 . S
C1707 C1708 1.434 . S
C1708 C1699 1.429 . S
C1708 N1705 1.350 . S
C1708 C1707 1.434 . S
C1709 C1710 1.369 . S
C1709 C1711 1.419 . S
C1709 H1713 0.930 . S
C1710 C1709 1.369 . S
C1710 C1719 1.429 . S
C1711 C1709 1.419 . S
C1711 C1712 1.363 . S
C1711 H1714 0.929 . S
C1712 C1711 1.363 . S
C1712 C1718 1.428 . S
H1713 C1709 0.930 . S
H1714 C1711 0.929 . S
S1715 N1716 1.613 . S
S1715 N1717 1.610 . S
N1716 S1715 1.613 . S
N1716 C1719 1.350 . S
N1717 S1715 1.610 . S
N1717 C1718 1.351 . S
C1718 C1712 1.428 . S
C1718 N1717 1.351 . S
C1718 C1719 1.434 . S
C1719 C1710 1.429 . S
C1719 N1716 1.350 . S
C1719 C1718 1.434 . S
C1720 C1721 1.369 . S
C1720 C1722 1.419 . S
C1720 H1724 0.930 . S
C1721 C1720 1.369 . S
C1721 C1730 1.429 . S
C1722 C1720 1.419 . S
C1722 C1723 1.363 . S
C1722 H1725 0.929 . S
C1723 C1722 1.363 . S
C1723 C1729 1.428 . S
H1724 C1720 0.930 . S
H1725 C1722 0.929 . S
S1726 N1727 1.613 . S
S1726 N1728 1.610 . S
N1727 S1726 1.613 . S
N1727 C1730 1.350 . S
N1728 S1726 1.610 . S
N1728 C1729 1.351 . S
C1729 C1723 1.428 . S
C1729 N1728 1.351 . S
C1729 C1730 1.434 . S
C1730 C1721 1.429 . S
C1730 N1727 1.350 . S
C1730 C1729 1.434 . S
C1731 C1732 1.369 . S
C1731 C1733 1.419 . S
C1731 H1735 0.930 . S
C1732 C1731 1.369 . S
C1732 C1741 1.429 . S
C1733 C1731 1.419 . S
C1733 C1734 1.363 . S
C1733 H1736 0.929 . S
C1734 C1733 1.363 . S
C1734 C1740 1.428 . S
H1735 C1731 0.930 . S
H1736 C1733 0.929 . S
S1737 N1738 1.613 . S
S1737 N1739 1.610 . S
N1738 S1737 1.613 . S
N1738 C1741 1.350 . S
N1739 S1737 1.610 . S
N1739 C1740 1.351 . S
C1740 C1734 1.428 . S
C1740 N1739 1.351 . S
C1740 C1741 1.434 . S
C1741 C1732 1.429 . S
C1741 N1738 1.350 . S
C1741 C1740 1.434 . S
C1742 C1743 1.369 . S
C1742 C1744 1.419 . S
C1742 H1746 0.930 . S
C1743 C1742 1.369 . S
C1743 C1752 1.429 . S
C1744 C1742 1.419 . S
C1744 C1745 1.363 . S
C1744 H1747 0.929 . S
C1745 C1744 1.363 . S
C1745 C1751 1.428 . S
H1746 C1742 0.930 . S
H1747 C1744 0.929 . S
S1748 N1749 1.613 . S
S1748 N1750 1.610 . S
N1749 S1748 1.613 . S
N1749 C1752 1.350 . S
N1750 S1748 1.610 . S
N1750 C1751 1.351 . S
C1751 C1745 1.428 . S
C1751 N1750 1.351 . S
C1751 C1752 1.434 . S
C1752 C1743 1.429 . S
C1752 N1749 1.350 . S
C1752 C1751 1.434 . S
C1753 C1754 1.369 . S
C1753 C1755 1.419 . S
C1753 H1757 0.930 . S
C1754 C1753 1.369 . S
C1754 C1763 1.429 . S
C1755 C1753 1.419 . S
C1755 C1756 1.363 . S
C1755 H1758 0.929 . S
C1756 C1755 1.363 . S
C1756 C1762 1.428 . S
H1757 C1753 0.930 . S
H1758 C1755 0.929 . S
S1759 N1760 1.613 . S
S1759 N1761 1.610 . S
N1760 S1759 1.613 . S
N1760 C1763 1.350 . S
N1761 S1759 1.610 . S
N1761 C1762 1.351 . S
C1762 C1756 1.428 . S
C1762 N1761 1.351 . S
C1762 C1763 1.434 . S
C1763 C1754 1.429 . S
C1763 N1760 1.350 . S
C1763 C1762 1.434 . S
C1764 C1765 1.369 . S
C1764 C1766 1.419 . S
C1764 H1768 0.930 . S
C1765 C1764 1.369 . S
C1765 C1774 1.429 . S
C1766 C1764 1.419 . S
C1766 C1767 1.363 . S
C1766 H1769 0.929 . S
C1767 C1766 1.363 . S
C1767 C1773 1.428 . S
H1768 C1764 0.930 . S
H1769 C1766 0.929 . S
S1770 N1771 1.613 . S
S1770 N1772 1.610 . S
N1771 S1770 1.613 . S
N1771 C1774 1.350 . S
N1772 S1770 1.610 . S
N1772 C1773 1.351 . S
C1773 C1767 1.428 . S
C1773 N1772 1.351 . S
C1773 C1774 1.434 . S
C1774 C1765 1.429 . S
C1774 N1771 1.350 . S
C1774 C1773 1.434 . S
C1775 C1776 1.369 . S
C1775 C1777 1.419 . S
C1775 H1779 0.930 . S
C1776 C1775 1.369 . S
C1776 C1785 1.429 . S
C1777 C1775 1.419 . S
C1777 C1778 1.363 . S
C1777 H1780 0.929 . S
C1778 C1777 1.363 . S
C1778 C1784 1.428 . S
H1779 C1775 0.930 . S
H1780 C1777 0.929 . S
S1781 N1782 1.613 . S
S1781 N1783 1.610 . S
N1782 S1781 1.613 . S
N1782 C1785 1.350 . S
N1783 S1781 1.610 . S
N1783 C1784 1.351 . S
C1784 C1778 1.428 . S
C1784 N1783 1.351 . S
C1784 C1785 1.434 . S
C1785 C1776 1.429 . S
C1785 N1782 1.350 . S
C1785 C1784 1.434 . S
C1786 C1787 1.369 . S
C1786 C1788 1.419 . S
C1786 H1790 0.930 . S
C1787 C1786 1.369 . S
C1787 C1796 1.429 . S
C1788 C1786 1.419 . S
C1788 C1789 1.363 . S
C1788 H1791 0.929 . S
C1789 C1788 1.363 . S
C1789 C1795 1.428 . S
H1790 C1786 0.930 . S
H1791 C1788 0.929 . S
S1792 N1793 1.613 . S
S1792 N1794 1.610 . S
N1793 S1792 1.613 . S
N1793 C1796 1.350 . S
N1794 S1792 1.610 . S
N1794 C1795 1.351 . S
C1795 C1789 1.428 . S
C1795 N1794 1.351 . S
C1795 C1796 1.434 . S
C1796 C1787 1.429 . S
C1796 N1793 1.350 . S
C1796 C1795 1.434 . S
C1797 C1798 1.369 . S
C1797 C1799 1.419 . S
C1797 H1801 0.930 . S
C1798 C1797 1.369 . S
C1798 C1807 1.429 . S
C1799 C1797 1.419 . S
C1799 C1800 1.363 . S
C1799 H1802 0.929 . S
C1800 C1799 1.363 . S
C1800 C1806 1.428 . S
H1801 C1797 0.930 . S
H1802 C1799 0.929 . S
S1803 N1804 1.613 . S
S1803 N1805 1.610 . S
N1804 S1803 1.613 . S
N1804 C1807 1.350 . S
N1805 S1803 1.610 . S
N1805 C1806 1.351 . S
C1806 C1800 1.428 . S
C1806 N1805 1.351 . S
C1806 C1807 1.434 . S
C1807 C1798 1.429 . S
C1807 N1804 1.350 . S
C1807 C1806 1.434 . S
C1808 C1809 1.369 . S
C1808 C1810 1.419 . S
C1808 H1812 0.930 . S
C1809 C1808 1.369 . S
C1809 C1818 1.429 . S
C1810 C1808 1.419 . S
C1810 C1811 1.363 . S
C1810 H1813 0.929 . S
C1811 C1810 1.363 . S
C1811 C1817 1.428 . S
H1812 C1808 0.930 . S
H1813 C1810 0.929 . S
S1814 N1815 1.613 . S
S1814 N1816 1.610 . S
N1815 S1814 1.613 . S
N1815 C1818 1.350 . S
N1816 S1814 1.610 . S
N1816 C1817 1.351 . S
C1817 C1811 1.428 . S
C1817 N1816 1.351 . S
C1817 C1818 1.434 . S
C1818 C1809 1.429 . S
C1818 N1815 1.350 . S
C1818 C1817 1.434 . S
C1819 C1820 1.369 . S
C1819 C1821 1.419 . S
C1819 H1823 0.930 . S
C1820 C1819 1.369 . S
C1820 C1829 1.429 . S
C1821 C1819 1.419 . S
C1821 C1822 1.363 . S
C1821 H1824 0.929 . S
C1822 C1821 1.363 . S
C1822 C1828 1.428 . S
H1823 C1819 0.930 . S
H1824 C1821 0.929 . S
S1825 N1826 1.613 . S
S1825 N1827 1.610 . S
N1826 S1825 1.613 . S
N1826 C1829 1.350 . S
N1827 S1825 1.610 . S
N1827 C1828 1.351 . S
C1828 C1822 1.428 . S
C1828 N1827 1.351 . S
C1828 C1829 1.434 . S
C1829 C1820 1.429 . S
C1829 N1826 1.350 . S
C1829 C1828 1.434 . S
C1830 C1831 1.369 . S
C1830 C1832 1.419 . S
C1830 H1834 0.930 . S
C1831 C1830 1.369 . S
C1831 C1840 1.429 . S
C1832 C1830 1.419 . S
C1832 C1833 1.363 . S
C1832 H1835 0.929 . S
C1833 C1832 1.363 . S
C1833 C1839 1.428 . S
H1834 C1830 0.930 . S
H1835 C1832 0.929 . S
S1836 N1837 1.613 . S
S1836 N1838 1.610 . S
N1837 S1836 1.613 . S
N1837 C1840 1.350 . S
N1838 S1836 1.610 . S
N1838 C1839 1.351 . S
C1839 C1833 1.428 . S
C1839 N1838 1.351 . S
C1839 C1840 1.434 . S
C1840 C1831 1.429 . S
C1840 N1837 1.350 . S
C1840 C1839 1.434 . S
C1841 C1842 1.369 . S
C1841 C1843 1.419 . S
C1841 H1845 0.930 . S
C1842 C1841 1.369 . S
C1842 C1851 1.429 . S
C1843 C1841 1.419 . S
C1843 C1844 1.363 . S
C1843 H1846 0.929 . S
C1844 C1843 1.363 . S
C1844 C1850 1.428 . S
H1845 C1841 0.930 . S
H1846 C1843 0.929 . S
S1847 N1848 1.613 . S
S1847 N1849 1.610 . S
N1848 S1847 1.613 . S
N1848 C1851 1.350 . S
N1849 S1847 1.610 . S
N1849 C1850 1.351 . S
C1850 C1844 1.428 . S
C1850 N1849 1.351 . S
C1850 C1851 1.434 . S
C1851 C1842 1.429 . S
C1851 N1848 1.350 . S
C1851 C1850 1.434 . S
C1852 C1853 1.369 . S
C1852 C1854 1.419 . S
C1852 H1856 0.930 . S
C1853 C1852 1.369 . S
C1853 C1862 1.429 . S
C1854 C1852 1.419 . S
C1854 C1855 1.363 . S
C1854 H1857 0.929 . S
C1855 C1854 1.363 . S
C1855 C1861 1.428 . S
H1856 C1852 0.930 . S
H1857 C1854 0.929 . S
S1858 N1859 1.613 . S
S1858 N1860 1.610 . S
N1859 S1858 1.613 . S
N1859 C1862 1.350 . S
N1860 S1858 1.610 . S
N1860 C1861 1.351 . S
C1861 C1855 1.428 . S
C1861 N1860 1.351 . S
C1861 C1862 1.434 . S
C1862 C1853 1.429 . S
C1862 N1859 1.350 . S
C1862 C1861 1.434 . S
C1863 C1864 1.369 . S
C1863 C1865 1.419 . S
C1863 H1867 0.930 . S
C1864 C1863 1.369 . S
C1864 C1873 1.429 . S
C1865 C1863 1.419 . S
C1865 C1866 1.363 . S
C1865 H1868 0.929 . S
C1866 C1865 1.363 . S
C1866 C1872 1.428 . S
H1867 C1863 0.930 . S
H1868 C1865 0.929 . S
S1869 N1870 1.613 . S
S1869 N1871 1.610 . S
N1870 S1869 1.613 . S
N1870 C1873 1.350 . S
N1871 S1869 1.610 . S
N1871 C1872 1.351 . S
C1872 C1866 1.428 . S
C1872 N1871 1.351 . S
C1872 C1873 1.434 . S
C1873 C1864 1.429 . S
C1873 N1870 1.350 . S
C1873 C1872 1.434 . S
C1874 C1875 1.369 . S
C1874 C1876 1.419 . S
C1874 H1878 0.930 . S
C1875 C1874 1.369 . S
C1875 C1884 1.429 . S
C1876 C1874 1.419 . S
C1876 C1877 1.363 . S
C1876 H1879 0.929 . S
C1877 C1876 1.363 . S
C1877 C1883 1.428 . S
H1878 C1874 0.930 . S
H1879 C1876 0.929 . S
S1880 N1881 1.613 . S
S1880 N1882 1.610 . S
N1881 S1880 1.613 . S
N1881 C1884 1.350 . S
N1882 S1880 1.610 . S
N1882 C1883 1.351 . S
C1883 C1877 1.428 . S
C1883 N1882 1.351 . S
C1883 C1884 1.434 . S
C1884 C1875 1.429 . S
C1884 N1881 1.350 . S
C1884 C1883 1.434 . S
C1885 C1886 1.369 . S
C1885 C1887 1.419 . S
C1885 H1889 0.930 . S
C1886 C1885 1.369 . S
C1886 C1895 1.429 . S
C1887 C1885 1.419 . S
C1887 C1888 1.363 . S
C1887 H1890 0.929 . S
C1888 C1887 1.363 . S
C1888 C1894 1.428 . S
H1889 C1885 0.930 . S
H1890 C1887 0.929 . S
S1891 N1892 1.613 . S
S1891 N1893 1.610 . S
N1892 S1891 1.613 . S
N1892 C1895 1.350 . S
N1893 S1891 1.610 . S
N1893 C1894 1.351 . S
C1894 C1888 1.428 . S
C1894 N1893 1.351 . S
C1894 C1895 1.434 . S
C1895 C1886 1.429 . S
C1895 N1892 1.350 . S
C1895 C1894 1.434 . S
C1896 C1897 1.369 . S
C1896 C1898 1.419 . S
C1896 H1900 0.930 . S
C1897 C1896 1.369 . S
C1897 C1906 1.429 . S
C1898 C1896 1.419 . S
C1898 C1899 1.363 . S
C1898 H1901 0.929 . S
C1899 C1898 1.363 . S
C1899 C1905 1.428 . S
H1900 C1896 0.930 . S
H1901 C1898 0.929 . S
S1902 N1903 1.613 . S
S1902 N1904 1.610 . S
N1903 S1902 1.613 . S
N1903 C1906 1.350 . S
N1904 S1902 1.610 . S
N1904 C1905 1.351 . S
C1905 C1899 1.428 . S
C1905 N1904 1.351 . S
C1905 C1906 1.434 . S
C1906 C1897 1.429 . S
C1906 N1903 1.350 . S
C1906 C1905 1.434 . S
C1907 C1908 1.369 . S
C1907 C1909 1.419 . S
C1907 H1911 0.930 . S
C1908 C1907 1.369 . S
C1908 C1917 1.429 . S
C1909 C1907 1.419 . S
C1909 C1910 1.363 . S
C1909 H1912 0.929 . S
C1910 C1909 1.363 . S
C1910 C1916 1.428 . S
H1911 C1907 0.930 . S
H1912 C1909 0.929 . S
S1913 N1914 1.613 . S
S1913 N1915 1.610 . S
N1914 S1913 1.613 . S
N1914 C1917 1.350 . S
N1915 S1913 1.610 . S
N1915 C1916 1.351 . S
C1916 C1910 1.428 . S
C1916 N1915 1.351 . S
C1916 C1917 1.434 . S
C1917 C1908 1.429 . S
C1917 N1914 1.350 . S
C1917 C1916 1.434 . S
C1918 C1919 1.369 . S
C1918 C1920 1.419 . S
C1918 H1922 0.930 . S
C1919 C1918 1.369 . S
C1919 C1928 1.429 . S
C1920 C1918 1.419 . S
C1920 C1921 1.363 . S
C1920 H1923 0.929 . S
C1921 C1920 1.363 . S
C1921 C1927 1.428 . S
H1922 C1918 0.930 . S
H1923 C1920 0.929 . S
S1924 N1925 1.613 . S
S1924 N1926 1.610 . S
N1925 S1924 1.613 . S
N1925 C1928 1.350 . S
N1926 S1924 1.610 . S
N1926 C1927 1.351 . S
C1927 C1921 1.428 . S
C1927 N1926 1.351 . S
C1927 C1928 1.434 . S
C1928 C1919 1.429 . S
C1928 N1925 1.350 . S
C1928 C1927 1.434 . S
C1929 C1930 1.369 . S
C1929 C1931 1.419 . S
C1929 H1933 0.930 . S
C1930 C1929 1.369 . S
C1930 C1939 1.429 . S
C1931 C1929 1.419 . S
C1931 C1932 1.363 . S
C1931 H1934 0.929 . S
C1932 C1931 1.363 . S
C1932 C1938 1.428 . S
H1933 C1929 0.930 . S
H1934 C1931 0.929 . S
S1935 N1936 1.613 . S
S1935 N1937 1.610 . S
N1936 S1935 1.613 . S
N1936 C1939 1.350 . S
N1937 S1935 1.610 . S
N1937 C1938 1.351 . S
C1938 C1932 1.428 . S
C1938 N1937 1.351 . S
C1938 C1939 1.434 . S
C1939 C1930 1.429 . S
C1939 N1936 1.350 . S
C1939 C1938 1.434 . S
C1940 C1941 1.369 . S
C1940 C1942 1.419 . S
C1940 H1944 0.930 . S
C1941 C1940 1.369 . S
C1941 C1950 1.429 . S
C1942 C1940 1.419 . S
C1942 C1943 1.363 . S
C1942 H1945 0.929 . S
C1943 C1942 1.363 . S
C1943 C1949 1.428 . S
H1944 C1940 0.930 . S
H1945 C1942 0.929 . S
S1946 N1947 1.613 . S
S1946 N1948 1.610 . S
N1947 S1946 1.613 . S
N1947 C1950 1.350 . S
N1948 S1946 1.610 . S
N1948 C1949 1.351 . S
C1949 C1943 1.428 . S
C1949 N1948 1.351 . S
C1949 C1950 1.434 . S
C1950 C1941 1.429 . S
C1950 N1947 1.350 . S
C1950 C1949 1.434 . S
C1951 C1952 1.369 . S
C1951 C1953 1.419 . S
C1951 H1955 0.930 . S
C1952 C1951 1.369 . S
C1952 C1961 1.429 . S
C1953 C1951 1.419 . S
C1953 C1954 1.363 . S
C1953 H1956 0.929 . S
C1954 C1953 1.363 . S
C1954 C1960 1.428 . S
H1955 C1951 0.930 . S
H1956 C1953 0.929 . S
S1957 N1958 1.613 . S
S1957 N1959 1.610 . S
N1958 S1957 1.613 . S
N1958 C1961 1.350 . S
N1959 S1957 1.610 . S
N1959 C1960 1.351 . S
C1960 C1954 1.428 . S
C1960 N1959 1.351 . S
C1960 C1961 1.434 . S
C1961 C1952 1.429 . S
C1961 N1958 1.350 . S
C1961 C1960 1.434 . S
C1962 C1963 1.369 . S
C1962 C1964 1.419 . S
C1962 H1966 0.930 . S
C1963 C1962 1.369 . S
C1963 C1972 1.429 . S
C1964 C1962 1.419 . S
C1964 C1965 1.363 . S
C1964 H1967 0.929 . S
C1965 C1964 1.363 . S
C1965 C1971 1.428 . S
H1966 C1962 0.930 . S
H1967 C1964 0.929 . S
S1968 N1969 1.613 . S
S1968 N1970 1.610 . S
N1969 S1968 1.613 . S
N1969 C1972 1.350 . S
N1970 S1968 1.610 . S
N1970 C1971 1.351 . S
C1971 C1965 1.428 . S
C1971 N1970 1.351 . S
C1971 C1972 1.434 . S
C1972 C1963 1.429 . S
C1972 N1969 1.350 . S
C1972 C1971 1.434 . S
C1973 C1974 1.369 . S
C1973 C1975 1.419 . S
C1973 H1977 0.930 . S
C1974 C1973 1.369 . S
C1974 C1983 1.429 . S
C1975 C1973 1.419 . S
C1975 C1976 1.363 . S
C1975 H1978 0.929 . S
C1976 C1975 1.363 . S
C1976 C1982 1.428 . S
H1977 C1973 0.930 . S
H1978 C1975 0.929 . S
S1979 N1980 1.613 . S
S1979 N1981 1.610 . S
N1980 S1979 1.613 . S
N1980 C1983 1.350 . S
N1981 S1979 1.610 . S
N1981 C1982 1.351 . S
C1982 C1976 1.428 . S
C1982 N1981 1.351 . S
C1982 C1983 1.434 . S
C1983 C1974 1.429 . S
C1983 N1980 1.350 . S
C1983 C1982 1.434 . S
C1984 C1985 1.369 . S
C1984 C1986 1.419 . S
C1984 H1988 0.930 . S
C1985 C1984 1.369 . S
C1985 C1994 1.429 . S
C1986 C1984 1.419 . S
C1986 C1987 1.363 . S
C1986 H1989 0.929 . S
C1987 C1986 1.363 . S
C1987 C1993 1.428 . S
H1988 C1984 0.930 . S
H1989 C1986 0.929 . S
S1990 N1991 1.613 . S
S1990 N1992 1.610 . S
N1991 S1990 1.613 . S
N1991 C1994 1.350 . S
N1992 S1990 1.610 . S
N1992 C1993 1.351 . S
C1993 C1987 1.428 . S
C1993 N1992 1.351 . S
C1993 C1994 1.434 . S
C1994 C1985 1.429 . S
C1994 N1991 1.350 . S
C1994 C1993 1.434 . S
C1995 C1996 1.369 . S
C1995 C1997 1.419 . S
C1995 H1999 0.930 . S
C1996 C1995 1.369 . S
C1996 C2005 1.429 . S
C1997 C1995 1.419 . S
C1997 C1998 1.363 . S
C1997 H2000 0.929 . S
C1998 C1997 1.363 . S
C1998 C2004 1.428 . S
H1999 C1995 0.930 . S
H2000 C1997 0.929 . S
S2001 N2002 1.613 . S
S2001 N2003 1.610 . S
N2002 S2001 1.613 . S
N2002 C2005 1.350 . S
N2003 S2001 1.610 . S
N2003 C2004 1.351 . S
C2004 C1998 1.428 . S
C2004 N2003 1.351 . S
C2004 C2005 1.434 . S
C2005 C1996 1.429 . S
C2005 N2002 1.350 . S
C2005 C2004 1.434 . S
C2006 C2007 1.369 . S
C2006 C2008 1.419 . S
C2006 H2010 0.930 . S
C2007 C2006 1.369 . S
C2007 C2016 1.429 . S
C2008 C2006 1.419 . S
C2008 C2009 1.363 . S
C2008 H2011 0.929 . S
C2009 C2008 1.363 . S
C2009 C2015 1.428 . S
H2010 C2006 0.930 . S
H2011 C2008 0.929 . S
S2012 N2013 1.613 . S
S2012 N2014 1.610 . S
N2013 S2012 1.613 . S
N2013 C2016 1.350 . S
N2014 S2012 1.610 . S
N2014 C2015 1.351 . S
C2015 C2009 1.428 . S
C2015 N2014 1.351 . S
C2015 C2016 1.434 . S
C2016 C2007 1.429 . S
C2016 N2013 1.350 . S
C2016 C2015 1.434 . S
C2017 C2018 1.369 . S
C2017 C2019 1.419 . S
C2017 H2021 0.930 . S
C2018 C2017 1.369 . S
C2018 C2027 1.429 . S
C2019 C2017 1.419 . S
C2019 C2020 1.363 . S
C2019 H2022 0.929 . S
C2020 C2019 1.363 . S
C2020 C2026 1.428 . S
H2021 C2017 0.930 . S
H2022 C2019 0.929 . S
S2023 N2024 1.613 . S
S2023 N2025 1.610 . S
N2024 S2023 1.613 . S
N2024 C2027 1.350 . S
N2025 S2023 1.610 . S
N2025 C2026 1.351 . S
C2026 C2020 1.428 . S
C2026 N2025 1.351 . S
C2026 C2027 1.434 . S
C2027 C2018 1.429 . S
C2027 N2024 1.350 . S
C2027 C2026 1.434 . S
C2028 C2029 1.369 . S
C2028 C2030 1.419 . S
C2028 H2032 0.930 . S
C2029 C2028 1.369 . S
C2029 C2038 1.429 . S
C2030 C2028 1.419 . S
C2030 C2031 1.363 . S
C2030 H2033 0.929 . S
C2031 C2030 1.363 . S
C2031 C2037 1.428 . S
H2032 C2028 0.930 . S
H2033 C2030 0.929 . S
S2034 N2035 1.613 . S
S2034 N2036 1.610 . S
N2035 S2034 1.613 . S
N2035 C2038 1.350 . S
N2036 S2034 1.610 . S
N2036 C2037 1.351 . S
C2037 C2031 1.428 . S
C2037 N2036 1.351 . S
C2037 C2038 1.434 . S
C2038 C2029 1.429 . S
C2038 N2035 1.350 . S
C2038 C2037 1.434 . S
C2039 C2040 1.369 . S
C2039 C2041 1.419 . S
C2039 H2043 0.930 . S
C2040 C2039 1.369 . S
C2040 C2049 1.429 . S
C2041 C2039 1.419 . S
C2041 C2042 1.363 . S
C2041 H2044 0.929 . S
C2042 C2041 1.363 . S
C2042 C2048 1.428 . S
H2043 C2039 0.930 . S
H2044 C2041 0.929 . S
S2045 N2046 1.613 . S
S2045 N2047 1.610 . S
N2046 S2045 1.613 . S
N2046 C2049 1.350 . S
N2047 S2045 1.610 . S
N2047 C2048 1.351 . S
C2048 C2042 1.428 . S
C2048 N2047 1.351 . S
C2048 C2049 1.434 . S
C2049 C2040 1.429 . S
C2049 N2046 1.350 . S
C2049 C2048 1.434 . S
C2050 C2051 1.369 . S
C2050 C2052 1.419 . S
C2050 H2054 0.930 . S
C2051 C2050 1.369 . S
C2051 C2060 1.429 . S
C2052 C2050 1.419 . S
C2052 C2053 1.363 . S
C2052 H2055 0.929 . S
C2053 C2052 1.363 . S
C2053 C2059 1.428 . S
H2054 C2050 0.930 . S
H2055 C2052 0.929 . S
S2056 N2057 1.613 . S
S2056 N2058 1.610 . S
N2057 S2056 1.613 . S
N2057 C2060 1.350 . S
N2058 S2056 1.610 . S
N2058 C2059 1.351 . S
C2059 C2053 1.428 . S
C2059 N2058 1.351 . S
C2059 C2060 1.434 . S
C2060 C2051 1.429 . S
C2060 N2057 1.350 . S
C2060 C2059 1.434 . S
C2061 C2062 1.369 . S
C2061 C2063 1.419 . S
C2061 H2065 0.930 . S
C2062 C2061 1.369 . S
C2062 C2071 1.429 . S
C2063 C2061 1.419 . S
C2063 C2064 1.363 . S
C2063 H2066 0.929 . S
C2064 C2063 1.363 . S
C2064 C2070 1.428 . S
H2065 C2061 0.930 . S
H2066 C2063 0.929 . S
S2067 N2068 1.613 . S
S2067 N2069 1.610 . S
N2068 S2067 1.613 . S
N2068 C2071 1.350 . S
N2069 S2067 1.610 . S
N2069 C2070 1.351 . S
C2070 C2064 1.428 . S
C2070 N2069 1.351 . S
C2070 C2071 1.434 . S
C2071 C2062 1.429 . S
C2071 N2068 1.350 . S
C2071 C2070 1.434 . S
C2072 C2073 1.369 . S
C2072 C2074 1.419 . S
C2072 H2076 0.930 . S
C2073 C2072 1.369 . S
C2073 C2082 1.429 . S
C2074 C2072 1.419 . S
C2074 C2075 1.363 . S
C2074 H2077 0.929 . S
C2075 C2074 1.363 . S
C2075 C2081 1.428 . S
H2076 C2072 0.930 . S
H2077 C2074 0.929 . S
S2078 N2079 1.613 . S
S2078 N2080 1.610 . S
N2079 S2078 1.613 . S
N2079 C2082 1.350 . S
N2080 S2078 1.610 . S
N2080 C2081 1.351 . S
C2081 C2075 1.428 . S
C2081 N2080 1.351 . S
C2081 C2082 1.434 . S
C2082 C2073 1.429 . S
C2082 N2079 1.350 . S
C2082 C2081 1.434 . S
C2083 C2084 1.369 . S
C2083 C2085 1.419 . S
C2083 H2087 0.930 . S
C2084 C2083 1.369 . S
C2084 C2093 1.429 . S
C2085 C2083 1.419 . S
C2085 C2086 1.363 . S
C2085 H2088 0.929 . S
C2086 C2085 1.363 . S
C2086 C2092 1.428 . S
H2087 C2083 0.930 . S
H2088 C2085 0.929 . S
S2089 N2090 1.613 . S
S2089 N2091 1.610 . S
N2090 S2089 1.613 . S
N2090 C2093 1.350 . S
N2091 S2089 1.610 . S
N2091 C2092 1.351 . S
C2092 C2086 1.428 . S
C2092 N2091 1.351 . S
C2092 C2093 1.434 . S
C2093 C2084 1.429 . S
C2093 N2090 1.350 . S
C2093 C2092 1.434 . S
C2094 C2095 1.369 . S
C2094 C2096 1.419 . S
C2094 H2098 0.930 . S
C2095 C2094 1.369 . S
C2095 C2104 1.429 . S
C2096 C2094 1.419 . S
C2096 C2097 1.363 . S
C2096 H2099 0.929 . S
C2097 C2096 1.363 . S
C2097 C2103 1.428 . S
H2098 C2094 0.930 . S
H2099 C2096 0.929 . S
S2100 N2101 1.613 . S
S2100 N2102 1.610 . S
N2101 S2100 1.613 . S
N2101 C2104 1.350 . S
N2102 S2100 1.610 . S
N2102 C2103 1.351 . S
C2103 C2097 1.428 . S
C2103 N2102 1.351 . S
C2103 C2104 1.434 . S
C2104 C2095 1.429 . S
C2104 N2101 1.350 . S
C2104 C2103 1.434 . S
C2105 C2106 1.369 . S
C2105 C2107 1.419 . S
C2105 H2109 0.930 . S
C2106 C2105 1.369 . S
C2106 C2115 1.429 . S
C2107 C2105 1.419 . S
C2107 C2108 1.363 . S
C2107 H2110 0.929 . S
C2108 C2107 1.363 . S
C2108 C2114 1.428 . S
H2109 C2105 0.930 . S
H2110 C2107 0.929 . S
S2111 N2112 1.613 . S
S2111 N2113 1.610 . S
N2112 S2111 1.613 . S
N2112 C2115 1.350 . S
N2113 S2111 1.610 . S
N2113 C2114 1.351 . S
C2114 C2108 1.428 . S
C2114 N2113 1.351 . S
C2114 C2115 1.434 . S
C2115 C2106 1.429 . S
C2115 N2112 1.350 . S
C2115 C2114 1.434 . S
C2116 C2117 1.369 . S
C2116 C2118 1.419 . S
C2116 H2120 0.930 . S
C2117 C2116 1.369 . S
C2117 C2126 1.429 . S
C2118 C2116 1.419 . S
C2118 C2119 1.363 . S
C2118 H2121 0.929 . S
C2119 C2118 1.363 . S
C2119 C2125 1.428 . S
H2120 C2116 0.930 . S
H2121 C2118 0.929 . S
S2122 N2123 1.613 . S
S2122 N2124 1.610 . S
N2123 S2122 1.613 . S
N2123 C2126 1.350 . S
N2124 S2122 1.610 . S
N2124 C2125 1.351 . S
C2125 C2119 1.428 . S
C2125 N2124 1.351 . S
C2125 C2126 1.434 . S
C2126 C2117 1.429 . S
C2126 N2123 1.350 . S
C2126 C2125 1.434 . S
C2127 C2128 1.369 . S
C2127 C2129 1.419 . S
C2127 H2131 0.930 . S
C2128 C2127 1.369 . S
C2128 C2137 1.429 . S
C2129 C2127 1.419 . S
C2129 C2130 1.363 . S
C2129 H2132 0.929 . S
C2130 C2129 1.363 . S
C2130 C2136 1.428 . S
H2131 C2127 0.930 . S
H2132 C2129 0.929 . S
S2133 N2134 1.613 . S
S2133 N2135 1.610 . S
N2134 S2133 1.613 . S
N2134 C2137 1.350 . S
N2135 S2133 1.610 . S
N2135 C2136 1.351 . S
C2136 C2130 1.428 . S
C2136 N2135 1.351 . S
C2136 C2137 1.434 . S
C2137 C2128 1.429 . S
C2137 N2134 1.350 . S
C2137 C2136 1.434 . S
C2138 C2139 1.369 . S
C2138 C2140 1.419 . S
C2138 H2142 0.930 . S
C2139 C2138 1.369 . S
C2139 C2148 1.429 . S
C2140 C2138 1.419 . S
C2140 C2141 1.363 . S
C2140 H2143 0.929 . S
C2141 C2140 1.363 . S
C2141 C2147 1.428 . S
H2142 C2138 0.930 . S
H2143 C2140 0.929 . S
S2144 N2145 1.613 . S
S2144 N2146 1.610 . S
N2145 S2144 1.613 . S
N2145 C2148 1.350 . S
N2146 S2144 1.610 . S
N2146 C2147 1.351 . S
C2147 C2141 1.428 . S
C2147 N2146 1.351 . S
C2147 C2148 1.434 . S
C2148 C2139 1.429 . S
C2148 N2145 1.350 . S
C2148 C2147 1.434 . S
C2149 C2150 1.369 . S
C2149 C2151 1.419 . S
C2149 H2153 0.930 . S
C2150 C2149 1.369 . S
C2150 C2159 1.429 . S
C2151 C2149 1.419 . S
C2151 C2152 1.363 . S
C2151 H2154 0.929 . S
C2152 C2151 1.363 . S
C2152 C2158 1.428 . S
H2153 C2149 0.930 . S
H2154 C2151 0.929 . S
S2155 N2156 1.613 . S
S2155 N2157 1.610 . S
N2156 S2155 1.613 . S
N2156 C2159 1.350 . S
N2157 S2155 1.610 . S
N2157 C2158 1.351 . S
C2158 C2152 1.428 . S
C2158 N2157 1.351 . S
C2158 C2159 1.434 . S
C2159 C2150 1.429 . S
C2159 N2156 1.350 . S
C2159 C2158 1.434 . S
C2160 C2161 1.369 . S
C2160 C2162 1.419 . S
C2160 H2164 0.930 . S
C2161 C2160 1.369 . S
C2161 C2170 1.429 . S
C2162 C2160 1.419 . S
C2162 C2163 1.363 . S
C2162 H2165 0.929 . S
C2163 C2162 1.363 . S
C2163 C2169 1.428 . S
H2164 C2160 0.930 . S
H2165 C2162 0.929 . S
S2166 N2167 1.613 . S
S2166 N2168 1.610 . S
N2167 S2166 1.613 . S
N2167 C2170 1.350 . S
N2168 S2166 1.610 . S
N2168 C2169 1.351 . S
C2169 C2163 1.428 . S
C2169 N2168 1.351 . S
C2169 C2170 1.434 . S
C2170 C2161 1.429 . S
C2170 N2167 1.350 . S
C2170 C2169 1.434 . S
C2171 C2172 1.369 . S
C2171 C2173 1.419 . S
C2171 H2175 0.930 . S
C2172 C2171 1.369 . S
C2172 C2181 1.429 . S
C2173 C2171 1.419 . S
C2173 C2174 1.363 . S
C2173 H2176 0.929 . S
C2174 C2173 1.363 . S
C2174 C2180 1.428 . S
H2175 C2171 0.930 . S
H2176 C2173 0.929 . S
S2177 N2178 1.613 . S
S2177 N2179 1.610 . S
N2178 S2177 1.613 . S
N2178 C2181 1.350 . S
N2179 S2177 1.610 . S
N2179 C2180 1.351 . S
C2180 C2174 1.428 . S
C2180 N2179 1.351 . S
C2180 C2181 1.434 . S
C2181 C2172 1.429 . S
C2181 N2178 1.350 . S
C2181 C2180 1.434 . S
C2182 C2183 1.369 . S
C2182 C2184 1.419 . S
C2182 H2186 0.930 . S
C2183 C2182 1.369 . S
C2183 C2192 1.429 . S
C2184 C2182 1.419 . S
C2184 C2185 1.363 . S
C2184 H2187 0.929 . S
C2185 C2184 1.363 . S
C2185 C2191 1.428 . S
H2186 C2182 0.930 . S
H2187 C2184 0.929 . S
S2188 N2189 1.613 . S
S2188 N2190 1.610 . S
N2189 S2188 1.613 . S
N2189 C2192 1.350 . S
N2190 S2188 1.610 . S
N2190 C2191 1.351 . S
C2191 C2185 1.428 . S
C2191 N2190 1.351 . S
C2191 C2192 1.434 . S
C2192 C2183 1.429 . S
C2192 N2189 1.350 . S
C2192 C2191 1.434 . S
C2193 C2194 1.369 . S
C2193 C2195 1.419 . S
C2193 H2197 0.930 . S
C2194 C2193 1.369 . S
C2194 C2203 1.429 . S
C2195 C2193 1.419 . S
C2195 C2196 1.363 . S
C2195 H2198 0.929 . S
C2196 C2195 1.363 . S
C2196 C2202 1.428 . S
H2197 C2193 0.930 . S
H2198 C2195 0.929 . S
S2199 N2200 1.613 . S
S2199 N2201 1.610 . S
N2200 S2199 1.613 . S
N2200 C2203 1.350 . S
N2201 S2199 1.610 . S
N2201 C2202 1.351 . S
C2202 C2196 1.428 . S
C2202 N2201 1.351 . S
C2202 C2203 1.434 . S
C2203 C2194 1.429 . S
C2203 N2200 1.350 . S
C2203 C2202 1.434 . S
C2204 C2205 1.369 . S
C2204 C2206 1.419 . S
C2204 H2208 0.930 . S
C2205 C2204 1.369 . S
C2205 C2214 1.429 . S
C2206 C2204 1.419 . S
C2206 C2207 1.363 . S
C2206 H2209 0.929 . S
C2207 C2206 1.363 . S
C2207 C2213 1.428 . S
H2208 C2204 0.930 . S
H2209 C2206 0.929 . S
S2210 N2211 1.613 . S
S2210 N2212 1.610 . S
N2211 S2210 1.613 . S
N2211 C2214 1.350 . S
N2212 S2210 1.610 . S
N2212 C2213 1.351 . S
C2213 C2207 1.428 . S
C2213 N2212 1.351 . S
C2213 C2214 1.434 . S
C2214 C2205 1.429 . S
C2214 N2211 1.350 . S
C2214 C2213 1.434 . S
C2215 C2216 1.369 . S
C2215 C2217 1.419 . S
C2215 H2219 0.930 . S
C2216 C2215 1.369 . S
C2216 C2225 1.429 . S
C2217 C2215 1.419 . S
C2217 C2218 1.363 . S
C2217 H2220 0.929 . S
C2218 C2217 1.363 . S
C2218 C2224 1.428 . S
H2219 C2215 0.930 . S
H2220 C2217 0.929 . S
S2221 N2222 1.613 . S
S2221 N2223 1.610 . S
N2222 S2221 1.613 . S
N2222 C2225 1.350 . S
N2223 S2221 1.610 . S
N2223 C2224 1.351 . S
C2224 C2218 1.428 . S
C2224 N2223 1.351 . S
C2224 C2225 1.434 . S
C2225 C2216 1.429 . S
C2225 N2222 1.350 . S
C2225 C2224 1.434 . S
C2226 C2227 1.369 . S
C2226 C2228 1.419 . S
C2226 H2230 0.930 . S
C2227 C2226 1.369 . S
C2227 C2236 1.429 . S
C2228 C2226 1.419 . S
C2228 C2229 1.363 . S
C2228 H2231 0.929 . S
C2229 C2228 1.363 . S
C2229 C2235 1.428 . S
H2230 C2226 0.930 . S
H2231 C2228 0.929 . S
S2232 N2233 1.613 . S
S2232 N2234 1.610 . S
N2233 S2232 1.613 . S
N2233 C2236 1.350 . S
N2234 S2232 1.610 . S
N2234 C2235 1.351 . S
C2235 C2229 1.428 . S
C2235 N2234 1.351 . S
C2235 C2236 1.434 . S
C2236 C2227 1.429 . S
C2236 N2233 1.350 . S
C2236 C2235 1.434 . S
C2237 C2238 1.369 . S
C2237 C2239 1.419 . S
C2237 H2241 0.930 . S
C2238 C2237 1.369 . S
C2238 C2247 1.429 . S
C2239 C2237 1.419 . S
C2239 C2240 1.363 . S
C2239 H2242 0.929 . S
C2240 C2239 1.363 . S
C2240 C2246 1.428 . S
H2241 C2237 0.930 . S
H2242 C2239 0.929 . S
S2243 N2244 1.613 . S
S2243 N2245 1.610 . S
N2244 S2243 1.613 . S
N2244 C2247 1.350 . S
N2245 S2243 1.610 . S
N2245 C2246 1.351 . S
C2246 C2240 1.428 . S
C2246 N2245 1.351 . S
C2246 C2247 1.434 . S
C2247 C2238 1.429 . S
C2247 N2244 1.350 . S
C2247 C2246 1.434 . S
C2248 C2249 1.369 . S
C2248 C2250 1.419 . S
C2248 H2252 0.930 . S
C2249 C2248 1.369 . S
C2249 C2258 1.429 . S
C2250 C2248 1.419 . S
C2250 C2251 1.363 . S
C2250 H2253 0.929 . S
C2251 C2250 1.363 . S
C2251 C2257 1.428 . S
H2252 C2248 0.930 . S
H2253 C2250 0.929 . S
S2254 N2255 1.613 . S
S2254 N2256 1.610 . S
N2255 S2254 1.613 . S
N2255 C2258 1.350 . S
N2256 S2254 1.610 . S
N2256 C2257 1.351 . S
C2257 C2251 1.428 . S
C2257 N2256 1.351 . S
C2257 C2258 1.434 . S
C2258 C2249 1.429 . S
C2258 N2255 1.350 . S
C2258 C2257 1.434 . S
C2259 C2260 1.369 . S
C2259 C2261 1.419 . S
C2259 H2263 0.930 . S
C2260 C2259 1.369 . S
C2260 C2269 1.429 . S
C2261 C2259 1.419 . S
C2261 C2262 1.363 . S
C2261 H2264 0.929 . S
C2262 C2261 1.363 . S
C2262 C2268 1.428 . S
H2263 C2259 0.930 . S
H2264 C2261 0.929 . S
S2265 N2266 1.613 . S
S2265 N2267 1.610 . S
N2266 S2265 1.613 . S
N2266 C2269 1.350 . S
N2267 S2265 1.610 . S
N2267 C2268 1.351 . S
C2268 C2262 1.428 . S
C2268 N2267 1.351 . S
C2268 C2269 1.434 . S
C2269 C2260 1.429 . S
C2269 N2266 1.350 . S
C2269 C2268 1.434 . S
C2270 C2271 1.369 . S
C2270 C2272 1.419 . S
C2270 H2274 0.930 . S
C2271 C2270 1.369 . S
C2271 C2280 1.429 . S
C2272 C2270 1.419 . S
C2272 C2273 1.363 . S
C2272 H2275 0.929 . S
C2273 C2272 1.363 . S
C2273 C2279 1.428 . S
H2274 C2270 0.930 . S
H2275 C2272 0.929 . S
S2276 N2277 1.613 . S
S2276 N2278 1.610 . S
N2277 S2276 1.613 . S
N2277 C2280 1.350 . S
N2278 S2276 1.610 . S
N2278 C2279 1.351 . S
C2279 C2273 1.428 . S
C2279 N2278 1.351 . S
C2279 C2280 1.434 . S
C2280 C2271 1.429 . S
C2280 N2277 1.350 . S
C2280 C2279 1.434 . S
C2281 C2282 1.369 . S
C2281 C2283 1.419 . S
C2281 H2285 0.930 . S
C2282 C2281 1.369 . S
C2282 C2291 1.429 . S
C2283 C2281 1.419 . S
C2283 C2284 1.363 . S
C2283 H2286 0.929 . S
C2284 C2283 1.363 . S
C2284 C2290 1.428 . S
H2285 C2281 0.930 . S
H2286 C2283 0.929 . S
S2287 N2288 1.613 . S
S2287 N2289 1.610 . S
N2288 S2287 1.613 . S
N2288 C2291 1.350 . S
N2289 S2287 1.610 . S
N2289 C2290 1.351 . S
C2290 C2284 1.428 . S
C2290 N2289 1.351 . S
C2290 C2291 1.434 . S
C2291 C2282 1.429 . S
C2291 N2288 1.350 . S
C2291 C2290 1.434 . S
C2292 C2293 1.369 . S
C2292 C2294 1.419 . S
C2292 H2296 0.930 . S
C2293 C2292 1.369 . S
C2293 C2302 1.429 . S
C2294 C2292 1.419 . S
C2294 C2295 1.363 . S
C2294 H2297 0.929 . S
C2295 C2294 1.363 . S
C2295 C2301 1.428 . S
H2296 C2292 0.930 . S
H2297 C2294 0.929 . S
S2298 N2299 1.613 . S
S2298 N2300 1.610 . S
N2299 S2298 1.613 . S
N2299 C2302 1.350 . S
N2300 S2298 1.610 . S
N2300 C2301 1.351 . S
C2301 C2295 1.428 . S
C2301 N2300 1.351 . S
C2301 C2302 1.434 . S
C2302 C2293 1.429 . S
C2302 N2299 1.350 . S
C2302 C2301 1.434 . S
C2303 C2304 1.369 . S
C2303 C2305 1.419 . S
C2303 H2307 0.930 . S
C2304 C2303 1.369 . S
C2304 C2313 1.429 . S
C2305 C2303 1.419 . S
C2305 C2306 1.363 . S
C2305 H2308 0.929 . S
C2306 C2305 1.363 . S
C2306 C2312 1.428 . S
H2307 C2303 0.930 . S
H2308 C2305 0.929 . S
S2309 N2310 1.613 . S
S2309 N2311 1.610 . S
N2310 S2309 1.613 . S
N2310 C2313 1.350 . S
N2311 S2309 1.610 . S
N2311 C2312 1.351 . S
C2312 C2306 1.428 . S
C2312 N2311 1.351 . S
C2312 C2313 1.434 . S
C2313 C2304 1.429 . S
C2313 N2310 1.350 . S
C2313 C2312 1.434 . S
C2314 C2315 1.369 . S
C2314 C2316 1.419 . S
C2314 H2318 0.930 . S
C2315 C2314 1.369 . S
C2315 C2324 1.429 . S
C2316 C2314 1.419 . S
C2316 C2317 1.363 . S
C2316 H2319 0.929 . S
C2317 C2316 1.363 . S
C2317 C2323 1.428 . S
H2318 C2314 0.930 . S
H2319 C2316 0.929 . S
S2320 N2321 1.613 . S
S2320 N2322 1.610 . S
N2321 S2320 1.613 . S
N2321 C2324 1.350 . S
N2322 S2320 1.610 . S
N2322 C2323 1.351 . S
C2323 C2317 1.428 . S
C2323 N2322 1.351 . S
C2323 C2324 1.434 . S
C2324 C2315 1.429 . S
C2324 N2321 1.350 . S
C2324 C2323 1.434 . S
C2325 C2326 1.369 . S
C2325 C2327 1.419 . S
C2325 H2329 0.930 . S
C2326 C2325 1.369 . S
C2326 C2335 1.429 . S
C2327 C2325 1.419 . S
C2327 C2328 1.363 . S
C2327 H2330 0.929 . S
C2328 C2327 1.363 . S
C2328 C2334 1.428 . S
H2329 C2325 0.930 . S
H2330 C2327 0.929 . S
S2331 N2332 1.613 . S
S2331 N2333 1.610 . S
N2332 S2331 1.613 . S
N2332 C2335 1.350 . S
N2333 S2331 1.610 . S
N2333 C2334 1.351 . S
C2334 C2328 1.428 . S
C2334 N2333 1.351 . S
C2334 C2335 1.434 . S
C2335 C2326 1.429 . S
C2335 N2332 1.350 . S
C2335 C2334 1.434 . S
C2336 C2337 1.369 . S
C2336 C2338 1.419 . S
C2336 H2340 0.930 . S
C2337 C2336 1.369 . S
C2337 C2346 1.429 . S
C2338 C2336 1.419 . S
C2338 C2339 1.363 . S
C2338 H2341 0.929 . S
C2339 C2338 1.363 . S
C2339 C2345 1.428 . S
H2340 C2336 0.930 . S
H2341 C2338 0.929 . S
S2342 N2343 1.613 . S
S2342 N2344 1.610 . S
N2343 S2342 1.613 . S
N2343 C2346 1.350 . S
N2344 S2342 1.610 . S
N2344 C2345 1.351 . S
C2345 C2339 1.428 . S
C2345 N2344 1.351 . S
C2345 C2346 1.434 . S
C2346 C2337 1.429 . S
C2346 N2343 1.350 . S
C2346 C2345 1.434 . S
C2347 C2348 1.369 . S
C2347 C2349 1.419 . S
C2347 H2351 0.930 . S
C2348 C2347 1.369 . S
C2348 C2357 1.429 . S
C2349 C2347 1.419 . S
C2349 C2350 1.363 . S
C2349 H2352 0.929 . S
C2350 C2349 1.363 . S
C2350 C2356 1.428 . S
H2351 C2347 0.930 . S
H2352 C2349 0.929 . S
S2353 N2354 1.613 . S
S2353 N2355 1.610 . S
N2354 S2353 1.613 . S
N2354 C2357 1.350 . S
N2355 S2353 1.610 . S
N2355 C2356 1.351 . S
C2356 C2350 1.428 . S
C2356 N2355 1.351 . S
C2356 C2357 1.434 . S
C2357 C2348 1.429 . S
C2357 N2354 1.350 . S
C2357 C2356 1.434 . S
C2358 C2359 1.369 . S
C2358 C2360 1.419 . S
C2358 H2362 0.930 . S
C2359 C2358 1.369 . S
C2359 C2368 1.429 . S
C2360 C2358 1.419 . S
C2360 C2361 1.363 . S
C2360 H2363 0.929 . S
C2361 C2360 1.363 . S
C2361 C2367 1.428 . S
H2362 C2358 0.930 . S
H2363 C2360 0.929 . S
S2364 N2365 1.613 . S
S2364 N2366 1.610 . S
N2365 S2364 1.613 . S
N2365 C2368 1.350 . S
N2366 S2364 1.610 . S
N2366 C2367 1.351 . S
C2367 C2361 1.428 . S
C2367 N2366 1.351 . S
C2367 C2368 1.434 . S
C2368 C2359 1.429 . S
C2368 N2365 1.350 . S
C2368 C2367 1.434 . S
C2369 C2370 1.369 . S
C2369 C2371 1.419 . S
C2369 H2373 0.930 . S
C2370 C2369 1.369 . S
C2370 C2379 1.429 . S
C2371 C2369 1.419 . S
C2371 C2372 1.363 . S
C2371 H2374 0.929 . S
C2372 C2371 1.363 . S
C2372 C2378 1.428 . S
H2373 C2369 0.930 . S
H2374 C2371 0.929 . S
S2375 N2376 1.613 . S
S2375 N2377 1.610 . S
N2376 S2375 1.613 . S
N2376 C2379 1.350 . S
N2377 S2375 1.610 . S
N2377 C2378 1.351 . S
C2378 C2372 1.428 . S
C2378 N2377 1.351 . S
C2378 C2379 1.434 . S
C2379 C2370 1.429 . S
C2379 N2376 1.350 . S
C2379 C2378 1.434 . S
C2380 C2381 1.369 . S
C2380 C2382 1.419 . S
C2380 H2384 0.930 . S
C2381 C2380 1.369 . S
C2381 C2390 1.429 . S
C2382 C2380 1.419 . S
C2382 C2383 1.363 . S
C2382 H2385 0.929 . S
C2383 C2382 1.363 . S
C2383 C2389 1.428 . S
H2384 C2380 0.930 . S
H2385 C2382 0.929 . S
S2386 N2387 1.613 . S
S2386 N2388 1.610 . S
N2387 S2386 1.613 . S
N2387 C2390 1.350 . S
N2388 S2386 1.610 . S
N2388 C2389 1.351 . S
C2389 C2383 1.428 . S
C2389 N2388 1.351 . S
C2389 C2390 1.434 . S
C2390 C2381 1.429 . S
C2390 N2387 1.350 . S
C2390 C2389 1.434 . S
C2391 C2392 1.369 . S
C2391 C2393 1.419 . S
C2391 H2395 0.930 . S
C2392 C2391 1.369 . S
C2392 C2401 1.429 . S
C2393 C2391 1.419 . S
C2393 C2394 1.363 . S
C2393 H2396 0.929 . S
C2394 C2393 1.363 . S
C2394 C2400 1.428 . S
H2395 C2391 0.930 . S
H2396 C2393 0.929 . S
S2397 N2398 1.613 . S
S2397 N2399 1.610 . S
N2398 S2397 1.613 . S
N2398 C2401 1.350 . S
N2399 S2397 1.610 . S
N2399 C2400 1.351 . S
C2400 C2394 1.428 . S
C2400 N2399 1.351 . S
C2400 C2401 1.434 . S
C2401 C2392 1.429 . S
C2401 N2398 1.350 . S
C2401 C2400 1.434 . S
C2402 C2403 1.369 . S
C2402 C2404 1.419 . S
C2402 H2406 0.930 . S
C2403 C2402 1.369 . S
C2403 C2412 1.429 . S
C2404 C2402 1.419 . S
C2404 C2405 1.363 . S
C2404 H2407 0.929 . S
C2405 C2404 1.363 . S
C2405 C2411 1.428 . S
H2406 C2402 0.930 . S
H2407 C2404 0.929 . S
S2408 N2409 1.613 . S
S2408 N2410 1.610 . S
N2409 S2408 1.613 . S
N2409 C2412 1.350 . S
N2410 S2408 1.610 . S
N2410 C2411 1.351 . S
C2411 C2405 1.428 . S
C2411 N2410 1.351 . S
C2411 C2412 1.434 . S
C2412 C2403 1.429 . S
C2412 N2409 1.350 . S
C2412 C2411 1.434 . S
C2413 C2414 1.369 . S
C2413 C2415 1.419 . S
C2413 H2417 0.930 . S
C2414 C2413 1.369 . S
C2414 C2423 1.429 . S
C2415 C2413 1.419 . S
C2415 C2416 1.363 . S
C2415 H2418 0.929 . S
C2416 C2415 1.363 . S
C2416 C2422 1.428 . S
H2417 C2413 0.930 . S
H2418 C2415 0.929 . S
S2419 N2420 1.613 . S
S2419 N2421 1.610 . S
N2420 S2419 1.613 . S
N2420 C2423 1.350 . S
N2421 S2419 1.610 . S
N2421 C2422 1.351 . S
C2422 C2416 1.428 . S
C2422 N2421 1.351 . S
C2422 C2423 1.434 . S
C2423 C2414 1.429 . S
C2423 N2420 1.350 . S
C2423 C2422 1.434 . S
C2424 C2425 1.369 . S
C2424 C2426 1.419 . S
C2424 H2428 0.930 . S
C2425 C2424 1.369 . S
C2425 C2434 1.429 . S
C2426 C2424 1.419 . S
C2426 C2427 1.363 . S
C2426 H2429 0.929 . S
C2427 C2426 1.363 . S
C2427 C2433 1.428 . S
H2428 C2424 0.930 . S
H2429 C2426 0.929 . S
S2430 N2431 1.613 . S
S2430 N2432 1.610 . S
N2431 S2430 1.613 . S
N2431 C2434 1.350 . S
N2432 S2430 1.610 . S
N2432 C2433 1.351 . S
C2433 C2427 1.428 . S
C2433 N2432 1.351 . S
C2433 C2434 1.434 . S
C2434 C2425 1.429 . S
C2434 N2431 1.350 . S
C2434 C2433 1.434 . S
C2435 C2436 1.369 . S
C2435 C2437 1.419 . S
C2435 H2439 0.930 . S
C2436 C2435 1.369 . S
C2436 C2445 1.429 . S
C2437 C2435 1.419 . S
C2437 C2438 1.363 . S
C2437 H2440 0.929 . S
C2438 C2437 1.363 . S
C2438 C2444 1.428 . S
H2439 C2435 0.930 . S
H2440 C2437 0.929 . S
S2441 N2442 1.613 . S
S2441 N2443 1.610 . S
N2442 S2441 1.613 . S
N2442 C2445 1.350 . S
N2443 S2441 1.610 . S
N2443 C2444 1.351 . S
C2444 C2438 1.428 . S
C2444 N2443 1.351 . S
C2444 C2445 1.434 . S
C2445 C2436 1.429 . S
C2445 N2442 1.350 . S
C2445 C2444 1.434 . S
C2446 C2447 1.369 . S
C2446 C2448 1.419 . S
C2446 H2450 0.930 . S
C2447 C2446 1.369 . S
C2447 C2456 1.429 . S
C2448 C2446 1.419 . S
C2448 C2449 1.363 . S
C2448 H2451 0.929 . S
C2449 C2448 1.363 . S
C2449 C2455 1.428 . S
H2450 C2446 0.930 . S
H2451 C2448 0.929 . S
S2452 N2453 1.613 . S
S2452 N2454 1.610 . S
N2453 S2452 1.613 . S
N2453 C2456 1.350 . S
N2454 S2452 1.610 . S
N2454 C2455 1.351 . S
C2455 C2449 1.428 . S
C2455 N2454 1.351 . S
C2455 C2456 1.434 . S
C2456 C2447 1.429 . S
C2456 N2453 1.350 . S
C2456 C2455 1.434 . S
C2457 C2458 1.369 . S
C2457 C2459 1.419 . S
C2457 H2461 0.930 . S
C2458 C2457 1.369 . S
C2458 C2467 1.429 . S
C2459 C2457 1.419 . S
C2459 C2460 1.363 . S
C2459 H2462 0.929 . S
C2460 C2459 1.363 . S
C2460 C2466 1.428 . S
H2461 C2457 0.930 . S
H2462 C2459 0.929 . S
S2463 N2464 1.613 . S
S2463 N2465 1.610 . S
N2464 S2463 1.613 . S
N2464 C2467 1.350 . S
N2465 S2463 1.610 . S
N2465 C2466 1.351 . S
C2466 C2460 1.428 . S
C2466 N2465 1.351 . S
C2466 C2467 1.434 . S
C2467 C2458 1.429 . S
C2467 N2464 1.350 . S
C2467 C2466 1.434 . S
C2468 C2469 1.369 . S
C2468 C2470 1.419 . S
C2468 H2472 0.930 . S
C2469 C2468 1.369 . S
C2469 C2478 1.429 . S
C2470 C2468 1.419 . S
C2470 C2471 1.363 . S
C2470 H2473 0.929 . S
C2471 C2470 1.363 . S
C2471 C2477 1.428 . S
H2472 C2468 0.930 . S
H2473 C2470 0.929 . S
S2474 N2475 1.613 . S
S2474 N2476 1.610 . S
N2475 S2474 1.613 . S
N2475 C2478 1.350 . S
N2476 S2474 1.610 . S
N2476 C2477 1.351 . S
C2477 C2471 1.428 . S
C2477 N2476 1.351 . S
C2477 C2478 1.434 . S
C2478 C2469 1.429 . S
C2478 N2475 1.350 . S
C2478 C2477 1.434 . S
C2479 C2480 1.369 . S
C2479 C2481 1.419 . S
C2479 H2483 0.930 . S
C2480 C2479 1.369 . S
C2480 C2489 1.429 . S
C2481 C2479 1.419 . S
C2481 C2482 1.363 . S
C2481 H2484 0.929 . S
C2482 C2481 1.363 . S
C2482 C2488 1.428 . S
H2483 C2479 0.930 . S
H2484 C2481 0.929 . S
S2485 N2486 1.613 . S
S2485 N2487 1.610 . S
N2486 S2485 1.613 . S
N2486 C2489 1.350 . S
N2487 S2485 1.610 . S
N2487 C2488 1.351 . S
C2488 C2482 1.428 . S
C2488 N2487 1.351 . S
C2488 C2489 1.434 . S
C2489 C2480 1.429 . S
C2489 N2486 1.350 . S
C2489 C2488 1.434 . S
C2490 C2491 1.369 . S
C2490 C2492 1.419 . S
C2490 H2494 0.930 . S
C2491 C2490 1.369 . S
C2491 C2500 1.429 . S
C2492 C2490 1.419 . S
C2492 C2493 1.363 . S
C2492 H2495 0.929 . S
C2493 C2492 1.363 . S
C2493 C2499 1.428 . S
H2494 C2490 0.930 . S
H2495 C2492 0.929 . S
S2496 N2497 1.613 . S
S2496 N2498 1.610 . S
N2497 S2496 1.613 . S
N2497 C2500 1.350 . S
N2498 S2496 1.610 . S
N2498 C2499 1.351 . S
C2499 C2493 1.428 . S
C2499 N2498 1.351 . S
C2499 C2500 1.434 . S
C2500 C2491 1.429 . S
C2500 N2497 1.350 . S
C2500 C2499 1.434 . S
C2501 C2502 1.369 . S
C2501 C2503 1.419 . S
C2501 H2505 0.930 . S
C2502 C2501 1.369 . S
C2502 C2511 1.429 . S
C2503 C2501 1.419 . S
C2503 C2504 1.363 . S
C2503 H2506 0.929 . S
C2504 C2503 1.363 . S
C2504 C2510 1.428 . S
H2505 C2501 0.930 . S
H2506 C2503 0.929 . S
S2507 N2508 1.613 . S
S2507 N2509 1.610 . S
N2508 S2507 1.613 . S
N2508 C2511 1.350 . S
N2509 S2507 1.610 . S
N2509 C2510 1.351 . S
C2510 C2504 1.428 . S
C2510 N2509 1.351 . S
C2510 C2511 1.434 . S
C2511 C2502 1.429 . S
C2511 N2508 1.350 . S
C2511 C2510 1.434 . S
C2512 C2513 1.369 . S
C2512 C2514 1.419 . S
C2512 H2516 0.930 . S
C2513 C2512 1.369 . S
C2513 C2522 1.429 . S
C2514 C2512 1.419 . S
C2514 C2515 1.363 . S
C2514 H2517 0.929 . S
C2515 C2514 1.363 . S
C2515 C2521 1.428 . S
H2516 C2512 0.930 . S
H2517 C2514 0.929 . S
S2518 N2519 1.613 . S
S2518 N2520 1.610 . S
N2519 S2518 1.613 . S
N2519 C2522 1.350 . S
N2520 S2518 1.610 . S
N2520 C2521 1.351 . S
C2521 C2515 1.428 . S
C2521 N2520 1.351 . S
C2521 C2522 1.434 . S
C2522 C2513 1.429 . S
C2522 N2519 1.350 . S
C2522 C2521 1.434 . S
C2523 C2524 1.369 . S
C2523 C2525 1.419 . S
C2523 H2527 0.930 . S
C2524 C2523 1.369 . S
C2524 C2533 1.429 . S
C2525 C2523 1.419 . S
C2525 C2526 1.363 . S
C2525 H2528 0.929 . S
C2526 C2525 1.363 . S
C2526 C2532 1.428 . S
H2527 C2523 0.930 . S
H2528 C2525 0.929 . S
S2529 N2530 1.613 . S
S2529 N2531 1.610 . S
N2530 S2529 1.613 . S
N2530 C2533 1.350 . S
N2531 S2529 1.610 . S
N2531 C2532 1.351 . S
C2532 C2526 1.428 . S
C2532 N2531 1.351 . S
C2532 C2533 1.434 . S
C2533 C2524 1.429 . S
C2533 N2530 1.350 . S
C2533 C2532 1.434 . S
C2534 C2535 1.369 . S
C2534 C2536 1.419 . S
C2534 H2538 0.930 . S
C2535 C2534 1.369 . S
C2535 C2544 1.429 . S
C2536 C2534 1.419 . S
C2536 C2537 1.363 . S
C2536 H2539 0.929 . S
C2537 C2536 1.363 . S
C2537 C2543 1.428 . S
H2538 C2534 0.930 . S
H2539 C2536 0.929 . S
S2540 N2541 1.613 . S
S2540 N2542 1.610 . S
N2541 S2540 1.613 . S
N2541 C2544 1.350 . S
N2542 S2540 1.610 . S
N2542 C2543 1.351 . S
C2543 C2537 1.428 . S
C2543 N2542 1.351 . S
C2543 C2544 1.434 . S
C2544 C2535 1.429 . S
C2544 N2541 1.350 . S
C2544 C2543 1.434 . S
C2545 C2546 1.369 . S
C2545 C2547 1.419 . S
C2545 H2549 0.930 . S
C2546 C2545 1.369 . S
C2546 C2555 1.429 . S
C2547 C2545 1.419 . S
C2547 C2548 1.363 . S
C2547 H2550 0.929 . S
C2548 C2547 1.363 . S
C2548 C2554 1.428 . S
H2549 C2545 0.930 . S
H2550 C2547 0.929 . S
S2551 N2552 1.613 . S
S2551 N2553 1.610 . S
N2552 S2551 1.613 . S
N2552 C2555 1.350 . S
N2553 S2551 1.610 . S
N2553 C2554 1.351 . S
C2554 C2548 1.428 . S
C2554 N2553 1.351 . S
C2554 C2555 1.434 . S
C2555 C2546 1.429 . S
C2555 N2552 1.350 . S
C2555 C2554 1.434 . S
C2556 C2557 1.369 . S
C2556 C2558 1.419 . S
C2556 H2560 0.930 . S
C2557 C2556 1.369 . S
C2557 C2566 1.429 . S
C2558 C2556 1.419 . S
C2558 C2559 1.363 . S
C2558 H2561 0.929 . S
C2559 C2558 1.363 . S
C2559 C2565 1.428 . S
H2560 C2556 0.930 . S
H2561 C2558 0.929 . S
S2562 N2563 1.613 . S
S2562 N2564 1.610 . S
N2563 S2562 1.613 . S
N2563 C2566 1.350 . S
N2564 S2562 1.610 . S
N2564 C2565 1.351 . S
C2565 C2559 1.428 . S
C2565 N2564 1.351 . S
C2565 C2566 1.434 . S
C2566 C2557 1.429 . S
C2566 N2563 1.350 . S
C2566 C2565 1.434 . S
C2567 C2568 1.369 . S
C2567 C2569 1.419 . S
C2567 H2571 0.930 . S
C2568 C2567 1.369 . S
C2568 C2577 1.429 . S
C2569 C2567 1.419 . S
C2569 C2570 1.363 . S
C2569 H2572 0.929 . S
C2570 C2569 1.363 . S
C2570 C2576 1.428 . S
H2571 C2567 0.930 . S
H2572 C2569 0.929 . S
S2573 N2574 1.613 . S
S2573 N2575 1.610 . S
N2574 S2573 1.613 . S
N2574 C2577 1.350 . S
N2575 S2573 1.610 . S
N2575 C2576 1.351 . S
C2576 C2570 1.428 . S
C2576 N2575 1.351 . S
C2576 C2577 1.434 . S
C2577 C2568 1.429 . S
C2577 N2574 1.350 . S
C2577 C2576 1.434 . S
C2578 C2579 1.369 . S
C2578 C2580 1.419 . S
C2578 H2582 0.930 . S
C2579 C2578 1.369 . S
C2579 C2588 1.429 . S
C2580 C2578 1.419 . S
C2580 C2581 1.363 . S
C2580 H2583 0.929 . S
C2581 C2580 1.363 . S
C2581 C2587 1.428 . S
H2582 C2578 0.930 . S
H2583 C2580 0.929 . S
S2584 N2585 1.613 . S
S2584 N2586 1.610 . S
N2585 S2584 1.613 . S
N2585 C2588 1.350 . S
N2586 S2584 1.610 . S
N2586 C2587 1.351 . S
C2587 C2581 1.428 . S
C2587 N2586 1.351 . S
C2587 C2588 1.434 . S
C2588 C2579 1.429 . S
C2588 N2585 1.350 . S
C2588 C2587 1.434 . S
C2589 C2590 1.369 . S
C2589 C2591 1.419 . S
C2589 H2593 0.930 . S
C2590 C2589 1.369 . S
C2590 C2599 1.429 . S
C2591 C2589 1.419 . S
C2591 C2592 1.363 . S
C2591 H2594 0.929 . S
C2592 C2591 1.363 . S
C2592 C2598 1.428 . S
H2593 C2589 0.930 . S
H2594 C2591 0.929 . S
S2595 N2596 1.613 . S
S2595 N2597 1.610 . S
N2596 S2595 1.613 . S
N2596 C2599 1.350 . S
N2597 S2595 1.610 . S
N2597 C2598 1.351 . S
C2598 C2592 1.428 . S
C2598 N2597 1.351 . S
C2598 C2599 1.434 . S
C2599 C2590 1.429 . S
C2599 N2596 1.350 . S
C2599 C2598 1.434 . S
C2600 C2601 1.369 . S
C2600 C2602 1.419 . S
C2600 H2604 0.930 . S
C2601 C2600 1.369 . S
C2601 C2610 1.429 . S
C2602 C2600 1.419 . S
C2602 C2603 1.363 . S
C2602 H2605 0.929 . S
C2603 C2602 1.363 . S
C2603 C2609 1.428 . S
H2604 C2600 0.930 . S
H2605 C2602 0.929 . S
S2606 N2607 1.613 . S
S2606 N2608 1.610 . S
N2607 S2606 1.613 . S
N2607 C2610 1.350 . S
N2608 S2606 1.610 . S
N2608 C2609 1.351 . S
C2609 C2603 1.428 . S
C2609 N2608 1.351 . S
C2609 C2610 1.434 . S
C2610 C2601 1.429 . S
C2610 N2607 1.350 . S
C2610 C2609 1.434 . S
C2611 C2612 1.369 . S
C2611 C2613 1.419 . S
C2611 H2615 0.930 . S
C2612 C2611 1.369 . S
C2612 C2621 1.429 . S
C2613 C2611 1.419 . S
C2613 C2614 1.363 . S
C2613 H2616 0.929 . S
C2614 C2613 1.363 . S
C2614 C2620 1.428 . S
H2615 C2611 0.930 . S
H2616 C2613 0.929 . S
S2617 N2618 1.613 . S
S2617 N2619 1.610 . S
N2618 S2617 1.613 . S
N2618 C2621 1.350 . S
N2619 S2617 1.610 . S
N2619 C2620 1.351 . S
C2620 C2614 1.428 . S
C2620 N2619 1.351 . S
C2620 C2621 1.434 . S
C2621 C2612 1.429 . S
C2621 N2618 1.350 . S
C2621 C2620 1.434 . S
C2622 C2623 1.369 . S
C2622 C2624 1.419 . S
C2622 H2626 0.930 . S
C2623 C2622 1.369 . S
C2623 C2632 1.429 . S
C2624 C2622 1.419 . S
C2624 C2625 1.363 . S
C2624 H2627 0.929 . S
C2625 C2624 1.363 . S
C2625 C2631 1.428 . S
H2626 C2622 0.930 . S
H2627 C2624 0.929 . S
S2628 N2629 1.613 . S
S2628 N2630 1.610 . S
N2629 S2628 1.613 . S
N2629 C2632 1.350 . S
N2630 S2628 1.610 . S
N2630 C2631 1.351 . S
C2631 C2625 1.428 . S
C2631 N2630 1.351 . S
C2631 C2632 1.434 . S
C2632 C2623 1.429 . S
C2632 N2629 1.350 . S
C2632 C2631 1.434 . S
C2633 C2634 1.369 . S
C2633 C2635 1.419 . S
C2633 H2637 0.930 . S
C2634 C2633 1.369 . S
C2634 C2643 1.429 . S
C2635 C2633 1.419 . S
C2635 C2636 1.363 . S
C2635 H2638 0.929 . S
C2636 C2635 1.363 . S
C2636 C2642 1.428 . S
H2637 C2633 0.930 . S
H2638 C2635 0.929 . S
S2639 N2640 1.613 . S
S2639 N2641 1.610 . S
N2640 S2639 1.613 . S
N2640 C2643 1.350 . S
N2641 S2639 1.610 . S
N2641 C2642 1.351 . S
C2642 C2636 1.428 . S
C2642 N2641 1.351 . S
C2642 C2643 1.434 . S
C2643 C2634 1.429 . S
C2643 N2640 1.350 . S
C2643 C2642 1.434 . S
C2644 C2645 1.369 . S
C2644 C2646 1.419 . S
C2644 H2648 0.930 . S
C2645 C2644 1.369 . S
C2645 C2654 1.429 . S
C2646 C2644 1.419 . S
C2646 C2647 1.363 . S
C2646 H2649 0.929 . S
C2647 C2646 1.363 . S
C2647 C2653 1.428 . S
H2648 C2644 0.930 . S
H2649 C2646 0.929 . S
S2650 N2651 1.613 . S
S2650 N2652 1.610 . S
N2651 S2650 1.613 . S
N2651 C2654 1.350 . S
N2652 S2650 1.610 . S
N2652 C2653 1.351 . S
C2653 C2647 1.428 . S
C2653 N2652 1.351 . S
C2653 C2654 1.434 . S
C2654 C2645 1.429 . S
C2654 N2651 1.350 . S
C2654 C2653 1.434 . S
C2655 C2656 1.369 . S
C2655 C2657 1.419 . S
C2655 H2659 0.930 . S
C2656 C2655 1.369 . S
C2656 C2665 1.429 . S
C2657 C2655 1.419 . S
C2657 C2658 1.363 . S
C2657 H2660 0.929 . S
C2658 C2657 1.363 . S
C2658 C2664 1.428 . S
H2659 C2655 0.930 . S
H2660 C2657 0.929 . S
S2661 N2662 1.613 . S
S2661 N2663 1.610 . S
N2662 S2661 1.613 . S
N2662 C2665 1.350 . S
N2663 S2661 1.610 . S
N2663 C2664 1.351 . S
C2664 C2658 1.428 . S
C2664 N2663 1.351 . S
C2664 C2665 1.434 . S
C2665 C2656 1.429 . S
C2665 N2662 1.350 . S
C2665 C2664 1.434 . S
C2666 C2667 1.369 . S
C2666 C2668 1.419 . S
C2666 H2670 0.930 . S
C2667 C2666 1.369 . S
C2667 C2676 1.429 . S
C2668 C2666 1.419 . S
C2668 C2669 1.363 . S
C2668 H2671 0.929 . S
C2669 C2668 1.363 . S
C2669 C2675 1.428 . S
H2670 C2666 0.930 . S
H2671 C2668 0.929 . S
S2672 N2673 1.613 . S
S2672 N2674 1.610 . S
N2673 S2672 1.613 . S
N2673 C2676 1.350 . S
N2674 S2672 1.610 . S
N2674 C2675 1.351 . S
C2675 C2669 1.428 . S
C2675 N2674 1.351 . S
C2675 C2676 1.434 . S
C2676 C2667 1.429 . S
C2676 N2673 1.350 . S
C2676 C2675 1.434 . S
C2677 C2678 1.369 . S
C2677 C2679 1.419 . S
C2677 H2681 0.930 . S
C2678 C2677 1.369 . S
C2678 C2687 1.429 . S
C2679 C2677 1.419 . S
C2679 C2680 1.363 . S
C2679 H2682 0.929 . S
C2680 C2679 1.363 . S
C2680 C2686 1.428 . S
H2681 C2677 0.930 . S
H2682 C2679 0.929 . S
S2683 N2684 1.613 . S
S2683 N2685 1.610 . S
N2684 S2683 1.613 . S
N2684 C2687 1.350 . S
N2685 S2683 1.610 . S
N2685 C2686 1.351 . S
C2686 C2680 1.428 . S
C2686 N2685 1.351 . S
C2686 C2687 1.434 . S
C2687 C2678 1.429 . S
C2687 N2684 1.350 . S
C2687 C2686 1.434 . S
C1105 C157 1.729 . S
C1107 C19 1.735 . S
C1116 C180 1.734 . S
C1118 C41 1.786 . S
C1127 C111 1.733 . S
C1129 C65 1.736 . S
C1138 C134 1.730 . S
C1140 C87 1.782 . S
C1149 C248 1.792 . S
C1151 C203 1.731 . S
C1160 C272 1.723 . S
C1162 C226 1.718 . S
C1171 C341 1.731 . S
C1173 C295 1.729 . S
C1182 C364 1.717 . S
C1184 C318 1.721 . S
C1193 C410 1.716 . S
C1195 C387 1.720 . S
C1204 C548 1.730 . S
C1206 C433 1.728 . S
C1215 C502 1.719 . S
C1217 C456 1.713 . S
C1226 C479 1.737 . S
C1228 C525 1.737 . S
C1237 C571 1.734 . S
C1239 C709 1.730 . S
C1248 C593 1.788 . S
C1250 C732 1.728 . S
C1259 C617 1.735 . S
C1261 C663 1.735 . S
C1270 C639 1.781 . S
C1272 C686 1.729 . S
C1281 C755 1.737 . S
C1283 C800 1.790 . S
C1292 C778 1.723 . S
C1294 C824 1.720 . S
C1303 C847 1.728 . S
C1305 C893 1.729 . S
C1314 C916 1.722 . S
C1316 C870 1.716 . S
C1325 C939 1.715 . S
C1327 C962 1.718 . S
C1336 C1100 1.732 . S
C1338 C985 1.726 . S
C1347 C1008 1.719 . S
C1349 C1054 1.713 . S
C1358 C1031 1.732 . S
C1360 C1077 1.739 . S
C1369 C20 1.699 . S
C1371 C227 1.701 . S
C1380 C44 1.687 . S
C1382 C251 1.689 . S
C1391 C66 1.698 . S
C1393 C273 1.700 . S
C1402 C204 1.728 . S
C1404 C90 1.672 . S
C1413 C365 1.731 . S
C1415 C112 1.730 . S
C1424 C296 1.709 . S
C1426 C135 1.706 . S
C1435 C319 1.725 . S
C1437 C158 1.723 . S
C1446 C181 1.712 . S
C1448 C342 1.713 . S
C1457 C434 1.725 . S
C1459 C388 1.728 . S
C1468 C526 1.723 . S
C1470 C411 1.720 . S
C1479 C457 1.712 . S
C1481 C549 1.713 . S
C1490 C503 1.720 . S
C1492 C480 1.717 . S
C1501 C572 1.701 . S
C1503 C779 1.700 . S
C1512 C803 1.690 . S
C1514 C596 1.687 . S
C1523 C825 1.700 . S
C1525 C618 1.698 . S
C1534 C642 1.672 . S
C1536 C756 1.728 . S
C1545 C917 1.729 . S
C1547 C664 1.732 . S
C1556 C687 1.707 . S
C1558 C848 1.708 . S
C1567 C710 1.724 . S
C1569 C871 1.724 . S
C1578 C733 1.711 . S
C1580 C894 1.714 . S
C1589 C940 1.729 . S
C1591 C986 1.726 . S
C1600 C1078 1.723 . S
C1602 C963 1.720 . S
C1611 C1101 1.713 . S
C1613 C1009 1.712 . S
C1622 C1032 1.718 . S
C1624 C1055 1.719 . S
C1633 C16 1.482 . S
C1635 C89 1.450 . S
C1644 C21 1.428 . S
C1646 C40 1.494 . S
C1655 C62 1.491 . S
C1657 C43 1.458 . S
C1666 C86 1.492 . S
C1668 C67 1.419 . S
C1677 C136 1.435 . S
C1679 C108 1.512 . S
C1688 C159 1.414 . S
C1690 C131 1.501 . S
C1699 C154 1.515 . S
C1701 C182 1.427 . S
C1710 C113 1.426 . S
C1712 C177 1.501 . S
C1721 C200 1.504 . S
C1723 C435 1.424 . S
C1732 C223 1.492 . S
C1734 C458 1.407 . S
C1743 C247 1.497 . S
C1745 C481 1.428 . S
C1754 C269 1.489 . S
C1756 C412 1.408 . S
C1765 C292 1.498 . S
C1767 C527 1.423 . S
C1776 C389 1.405 . S
C1778 C315 1.490 . S
C1787 C550 1.419 . S
C1789 C338 1.496 . S
C1798 C361 1.488 . S
C1800 C504 1.413 . S
C1809 C384 1.494 . S
C1811 C228 1.413 . S
C1820 C407 1.488 . S
C1822 C366 1.412 . S
C1831 C430 1.500 . S
C1833 C297 1.421 . S
C1842 C320 1.409 . S
C1844 C453 1.495 . S
C1853 C343 1.423 . S
C1855 C476 1.502 . S
C1864 C274 1.413 . S
C1866 C499 1.490 . S
C1875 C205 1.427 . S
C1877 C522 1.517 . S
C1886 C545 1.483 . S
C1888 C250 1.452 . S
C1897 C568 1.483 . S
C1899 C641 1.449 . S
C1908 C592 1.494 . S
C1910 C573 1.427 . S
C1919 C595 1.450 . S
C1921 C614 1.492 . S
C1930 C619 1.423 . S
C1932 C638 1.490 . S
C1941 C660 1.514 . S
C1943 C688 1.430 . S
C1952 C711 1.426 . S
C1954 C683 1.502 . S
C1963 C734 1.426 . S
C1965 C706 1.514 . S
C1974 C729 1.499 . S
C1976 C665 1.423 . S
C1985 C752 1.505 . S
C1987 C987 1.427 . S
C1996 C1010 1.403 . S
C1998 C775 1.490 . S
C2007 C1033 1.418 . S
C2009 C799 1.496 . S
C2018 C821 1.494 . S
C2020 C964 1.409 . S
C2029 C1079 1.423 . S
C2031 C844 1.498 . S
C2040 C867 1.494 . S
C2042 C941 1.411 . S
C2051 C890 1.498 . S
C2053 C1102 1.423 . S
C2062 C913 1.492 . S
C2064 C1056 1.410 . S
C2073 C780 1.411 . S
C2075 C936 1.495 . S
C2084 C918 1.405 . S
C2086 C959 1.491 . S
C2095 C849 1.412 . S
C2097 C982 1.497 . S
C2106 C1005 1.496 . S
C2108 C872 1.414 . S
C2117 C895 1.419 . S
C2119 C1028 1.505 . S
C2128 C1051 1.490 . S
C2130 C826 1.411 . S
C2139 C1074 1.519 . S
C2141 C757 1.433 . S
C2150 C802 1.450 . S
C2152 C1097 1.482 . S
C2161 C18 1.161 . S
C2163 C1030 1.155 . S
C2172 C961 1.141 . S
C2174 C42 1.108 . S
C2183 C64 1.157 . S
C2185 C984 1.156 . S
C2194 C88 1.108 . S
C2196 C1007 1.142 . S
C2205 C110 1.140 . S
C2207 C1099 1.147 . S
C2216 C133 1.137 . S
C2218 C1053 1.148 . S
C2227 C156 1.139 . S
C2229 C1076 1.149 . S
C2238 C179 1.141 . S
C2240 C938 1.144 . S
C2249 C202 1.143 . S
C2251 C915 1.146 . S
C2260 C225 1.156 . S
C2262 C846 1.149 . S
C2271 C249 1.107 . S
C2273 C869 1.135 . S
C2282 C271 1.155 . S
C2284 C892 1.146 . S
C2293 C294 1.143 . S
C2295 C777 1.149 . S
C2304 C317 1.142 . S
C2306 C801 1.107 . S
C2315 C340 1.153 . S
C2317 C823 1.151 . S
C2326 C363 1.135 . S
C2328 C754 1.142 . S
C2337 C386 1.133 . S
C2339 C731 1.141 . S
C2348 C409 1.146 . S
C2350 C594 1.120 . S
C2359 C432 1.157 . S
C2361 C616 1.155 . S
C2370 C455 1.137 . S
C2372 C640 1.106 . S
C2381 C478 1.148 . S
C2383 C570 1.155 . S
C2392 C501 1.149 . S
C2394 C685 1.142 . S
C2403 C524 1.140 . S
C2405 C708 1.150 . S
C2414 C547 1.153 . S
C2416 C662 1.148 . S
C2425 C109 1.082 . S
C2427 C983 1.076 . S
C2436 C132 1.083 . S
C2438 C1006 1.075 . S
C2447 C155 1.077 . S
C2449 C1029 1.084 . S
C2458 C178 1.074 . S
C2460 C960 1.071 . S
C2469 C17 1.074 . S
C2471 C1075 1.078 . S
C2480 C39 1.115 . S
C2482 C937 1.110 . S
C2491 C63 1.081 . S
C2493 C1098 1.075 . S
C2502 C1052 1.106 . S
C2504 C85 1.112 . S
C2513 C339 1.074 . S
C2515 C776 1.073 . S
C2524 C362 1.118 . S
C2526 C798 1.110 . S
C2535 C293 1.072 . S
C2537 C822 1.076 . S
C2546 C316 1.084 . S
C2548 C753 1.081 . S
C2557 C246 1.108 . S
C2559 C914 1.108 . S
C2568 C270 1.076 . S
C2570 C845 1.082 . S
C2579 C201 1.074 . S
C2581 C868 1.081 . S
C2590 C224 1.074 . S
C2592 C891 1.081 . S
C2601 C500 1.107 . S
C2603 C637 1.112 . S
C2612 C454 1.075 . S
C2614 C684 1.083 . S
C2623 C477 1.080 . S
C2625 C707 1.086 . S
C2634 C408 1.069 . S
C2636 C730 1.076 . S
C2645 C431 1.078 . S
C2647 C661 1.081 . S
C2656 C385 1.116 . S
C2658 C591 1.117 . S
C2667 C546 1.071 . S
C2669 C615 1.073 . S
C2678 C523 1.084 . S
C2680 C569 1.082 . S
