# Generated by pormake.
# Topology vmh, (6)-cn, num edge types: 1
# Building blocks:
#     Node 0, Type 0, BuildingBlock: IZENUY_clean_sbu_0, # of connection points: 6
#     Node 1, Type 0, BuildingBlock: IZENUY_clean_sbu_0, # of connection points: 6
#     Node 2, Type 0, BuildingBlock: IZENUY_clean_sbu_0, # of connection points: 6
#     Node 3, Type 0, BuildingBlock: IZENUY_clean_sbu_0, # of connection points: 6
#     Node 4, Type 0, BuildingBlock: IZENUY_clean_sbu_0, # of connection points: 6
#     Node 5, Type 0, BuildingBlock: IZENUY_clean_sbu_0, # of connection points: 6
#     Node 6, Type 0, BuildingBlock: IZENUY_clean_sbu_0, # of connection points: 6
#     Node 7, Type 0, BuildingBlock: IZENUY_clean_sbu_0, # of connection points: 6
#     Edge 8, Type (0, 0), BuildingBlock: EYOCIG_clean_linker_4, # of connection points: 2
#     Edge 9, Type (0, 0), BuildingBlock: EYOCIG_clean_linker_4, # of connection points: 2
#     Edge 10, Type (0, 0), BuildingBlock: EYOCIG_clean_linker_4, # of connection points: 2
#     Edge 11, Type (0, 0), BuildingBlock: EYOCIG_clean_linker_4, # of connection points: 2
#     Edge 12, Type (0, 0), BuildingBlock: EYOCIG_clean_linker_4, # of connection points: 2
#     Edge 13, Type (0, 0), BuildingBlock: EYOCIG_clean_linker_4, # of connection points: 2
#     Edge 14, Type (0, 0), BuildingBlock: EYOCIG_clean_linker_4, # of connection points: 2
#     Edge 15, Type (0, 0), BuildingBlock: EYOCIG_clean_linker_4, # of connection points: 2
#     Edge 16, Type (0, 0), BuildingBlock: EYOCIG_clean_linker_4, # of connection points: 2
#     Edge 17, Type (0, 0), BuildingBlock: EYOCIG_clean_linker_4, # of connection points: 2
#     Edge 18, Type (0, 0), BuildingBlock: EYOCIG_clean_linker_4, # of connection points: 2
#     Edge 19, Type (0, 0), BuildingBlock: EYOCIG_clean_linker_4, # of connection points: 2
#     Edge 20, Type (0, 0), BuildingBlock: EYOCIG_clean_linker_4, # of connection points: 2
#     Edge 21, Type (0, 0), BuildingBlock: EYOCIG_clean_linker_4, # of connection points: 2
#     Edge 22, Type (0, 0), BuildingBlock: EYOCIG_clean_linker_4, # of connection points: 2
#     Edge 23, Type (0, 0), BuildingBlock: EYOCIG_clean_linker_4, # of connection points: 2
#     Edge 24, Type (0, 0), BuildingBlock: EYOCIG_clean_linker_4, # of connection points: 2
#     Edge 25, Type (0, 0), BuildingBlock: EYOCIG_clean_linker_4, # of connection points: 2
#     Edge 26, Type (0, 0), BuildingBlock: EYOCIG_clean_linker_4, # of connection points: 2
#     Edge 27, Type (0, 0), BuildingBlock: EYOCIG_clean_linker_4, # of connection points: 2
#     Edge 28, Type (0, 0), BuildingBlock: EYOCIG_clean_linker_4, # of connection points: 2
#     Edge 29, Type (0, 0), BuildingBlock: EYOCIG_clean_linker_4, # of connection points: 2
#     Edge 30, Type (0, 0), BuildingBlock: EYOCIG_clean_linker_4, # of connection points: 2
#     Edge 31, Type (0, 0), BuildingBlock: EYOCIG_clean_linker_4, # of connection points: 2
# Relax obj value: 0.246
# Max RMSD: 0.263
# Mean RMSD: 0.263
data_MOF--net-vmh--node1-IZENUY_clean_sbu_0--edge1-EYOCIG_clean_linker_4
_symmetry_space_group_name_H-M    P1
_symmetry_Int_Tables_number       1
_symmetry_cell_setting            triclinic
loop_
_symmetry_equiv_pos_as_xyz
'x, y, z'
_cell_length_a     22.446419
_cell_length_b     33.964515
_cell_length_c     22.88974
_cell_angle_alpha  89.996311
_cell_angle_beta   105.80852
_cell_angle_gamma 90.000694
loop_
_atom_site_label
_atom_site_type_symbol
_atom_site_fract_x
_atom_site_fract_y
_atom_site_fract_z
_atom_type_partial_charge
Fe0 Fe 0.26224 0.11513 0.11978 0.0
Fe1 Fe 0.27193 0.043 0.03974 0.0
O2 O 0.29281 0.09202 0.06455 0.0
Fe3 Fe 0.34651 0.11768 0.03407 0.0
O4 O 0.40205 0.11964 0.108 0.0
O5 O 0.33661 0.13991 0.15858 0.0
O6 O 0.28754 0.07563 0.17425 0.0
C7 C 0.27671 0.03949 0.16518 0.0
C8 C 0.26894 0.17944 0.04939 0.0
O9 O 0.26222 0.02507 0.11236 0.0
C10 C 0.27644 0.0836 0.93152 0.0
O11 O 0.18425 0.0921 0.09118 0.0
O12 O 0.19096 0.05545 1.0133 0.0
O13 O 0.3194 0.16675 0.04372 0.0
O14 O 0.23407 0.15793 0.07088 0.0
C15 C 0.39382 0.04192 0.04561 0.0
O16 O 0.27691 0.05218 0.96174 0.0
O17 O 0.29377 0.11606 0.9579 0.0
C18 C 0.15953 0.07031 0.0456 0.0
O19 O 0.3521 0.02645 0.06511 0.0
O20 O 0.38588 0.07437 1.01883 0.0
C21 C 0.3916 0.13295 0.15567 0.0
Fe22 Fe 0.78153 0.11511 0.41873 0.0
Fe23 Fe 0.77201 0.043 0.49889 0.0
O24 O 0.75102 0.092 0.47401 0.0
Fe25 Fe 0.69729 0.11763 0.50448 0.0
O26 O 0.64172 0.11955 0.43056 0.0
O27 O 0.70711 0.13986 0.37994 0.0
O28 O 0.75625 0.07559 0.36431 0.0
C29 C 0.76716 0.03946 0.37342 0.0
C30 C 0.77476 0.17943 0.48907 0.0
O31 O 0.78171 0.02506 0.42626 0.0
C32 C 0.76744 0.08362 0.60706 0.0
O33 O 0.85955 0.09213 0.44731 0.0
O34 O 0.85295 0.05552 0.52527 0.0
O35 O 0.72432 0.16671 0.49478 0.0
O36 O 0.80965 0.15794 0.46759 0.0
C37 C 0.65015 0.04182 0.4931 0.0
O38 O 0.76705 0.0522 0.57689 0.0
O39 O 0.75005 0.11606 0.58065 0.0
C40 C 0.88433 0.07038 0.49291 0.0
O41 O 0.69188 0.02638 0.47359 0.0
O42 O 0.65799 0.0743 0.51977 0.0
C43 C 0.65214 0.13288 0.38287 0.0
Fe44 Fe 0.77181 1.00623 0.99883 0.0
Fe45 Fe 0.78148 0.93411 0.91876 0.0
O46 O 0.75093 0.95721 0.97401 0.0
Fe47 Fe 0.69724 0.93155 1.0045 0.0
O48 O 0.65788 0.97486 0.01975 0.0
O49 O 0.69165 1.02278 0.97348 0.0
O50 O 0.78152 1.02416 0.92621 0.0
C51 C 0.76703 1.00975 0.87338 0.0
C52 C 0.76733 0.96562 0.10704 0.0
O53 O 0.75617 0.97362 0.8643 0.0
C54 C 0.77478 0.86979 0.98912 0.0
O55 O 0.85278 0.99377 0.02525 0.0
O56 O 0.85947 0.95713 0.94736 0.0
O57 O 0.75 0.93316 0.08067 0.0
O58 O 0.76685 0.99704 0.07684 0.0
C59 C 0.65212 0.91627 0.8829 0.0
O60 O 0.80966 0.8913 0.96764 0.0
O61 O 0.72434 0.88248 0.99484 0.0
C62 C 0.88421 0.97891 0.99294 0.0
O63 O 0.70711 0.90933 0.87996 0.0
O64 O 0.64168 0.92958 0.93058 0.0
C65 C 0.64992 1.0073 0.99296 0.0
Fe66 Fe 0.26226 0.93408 0.61977 0.0
Fe67 Fe 0.34657 0.93148 0.53409 0.0
O68 O 0.29289 0.95718 0.56458 0.0
Fe69 Fe 0.27213 1.00622 0.5398 0.0
O70 O 0.2624 1.02414 0.61242 0.0
O71 O 0.2876 0.97355 0.67427 0.0
O72 O 0.3366 0.90925 0.65859 0.0
C73 C 0.39161 0.91618 0.65569 0.0
C74 C 0.15965 0.97896 0.54558 0.0
O75 O 0.40209 0.92948 0.60803 0.0
C76 C 0.27656 0.96563 0.43157 0.0
O77 O 0.23406 0.8913 0.57085 0.0
O78 O 0.31939 0.88243 0.54371 0.0
O79 O 0.19113 0.99383 0.51333 0.0
O80 O 0.18432 0.95714 0.59114 0.0
C81 C 0.39405 1.00718 0.54577 0.0
O82 O 0.29383 0.93315 0.45792 0.0
O83 O 0.27711 0.99704 0.4618 0.0
C84 C 0.26891 0.86976 0.54938 0.0
O85 O 0.386 0.97477 0.51888 0.0
O86 O 0.35233 1.02269 0.56523 0.0
C87 C 0.27682 1.0097 0.66522 0.0
Fe88 Fe 0.76202 0.61511 0.11959 0.0
Fe89 Fe 0.77161 0.54299 0.03949 0.0
O90 O 0.79255 0.592 0.06433 0.0
Fe91 Fe 0.84627 0.61765 0.03385 0.0
O92 O 0.90183 0.61959 0.10778 0.0
O93 O 0.83642 0.63987 0.15839 0.0
O94 O 0.78731 0.5756 0.17404 0.0
C95 C 0.77643 0.53946 0.16494 0.0
C96 C 0.76876 0.67943 0.04923 0.0
O97 O 0.76191 0.52506 0.11211 0.0
C98 C 0.77614 0.58361 0.93129 0.0
O99 O 0.68401 0.59211 0.091 0.0
O100 O 0.69066 0.55548 1.01309 0.0
O101 O 0.8192 0.66672 0.04353 0.0
O102 O 0.73388 0.65793 0.07072 0.0
C103 C 0.89349 0.54186 0.04531 0.0
O104 O 0.77658 0.55218 0.96149 0.0
O105 O 0.79351 0.61606 0.95768 0.0
C106 C 0.65926 0.57035 0.04542 0.0
O107 O 0.85176 0.52641 0.06482 0.0
O108 O 0.88559 0.57433 1.01858 0.0
C109 C 0.8914 0.63291 0.15545 0.0
Fe110 Fe 0.28129 0.61513 0.41855 0.0
Fe111 Fe 0.2716 0.543 0.49861 0.0
O112 O 0.25072 0.59202 0.47379 0.0
Fe113 Fe 0.19702 0.61768 0.50427 0.0
O114 O 0.14147 0.61964 0.43033 0.0
O115 O 0.20692 0.63991 0.37974 0.0
O116 O 0.25599 0.57563 0.36409 0.0
C117 C 0.26683 0.53949 0.37317 0.0
C118 C 0.27459 0.67944 0.48893 0.0
O119 O 0.28131 0.52507 0.42599 0.0
C120 C 0.2671 0.5836 0.60682 0.0
O121 O 0.35928 0.5921 0.44716 0.0
O122 O 0.35257 0.55545 0.52504 0.0
O123 O 0.22413 0.66675 0.4946 0.0
O124 O 0.30946 0.65793 0.46745 0.0
C125 C 0.14971 0.54192 0.49274 0.0
O126 O 0.26663 0.55218 0.57661 0.0
O127 O 0.24976 0.61607 0.58043 0.0
C128 C 0.384 0.57032 0.49273 0.0
O129 O 0.19144 0.52645 0.47325 0.0
O130 O 0.15765 0.57437 0.51951 0.0
C131 C 0.15193 0.63295 0.38266 0.0
Fe132 Fe 0.2715 0.50622 0.99858 0.0
Fe133 Fe 0.28127 0.43409 0.91857 0.0
O134 O 0.25068 0.45719 0.97379 0.0
Fe135 Fe 0.19699 0.43151 1.00428 0.0
O136 O 0.15759 0.47481 0.0195 0.0
O137 O 0.19131 0.52273 0.97319 0.0
O138 O 0.28121 0.52415 0.92596 0.0
C139 C 0.26676 0.50972 0.87315 0.0
C140 C 0.26703 0.46562 0.10681 0.0
O141 O 0.25595 0.47358 0.86409 0.0
C142 C 0.27461 0.36977 0.98897 0.0
O143 O 0.35248 0.4938 0.02503 0.0
O144 O 0.35924 0.45714 0.94719 0.0
O145 O 0.24974 0.43315 0.08045 0.0
O146 O 0.26652 0.49704 0.07658 0.0
C147 C 0.15192 0.41622 0.88268 0.0
O148 O 0.30947 0.3913 0.96749 0.0
O149 O 0.22415 0.38245 0.99466 0.0
C150 C 0.38393 0.47893 0.99276 0.0
O151 O 0.20692 0.40928 0.87977 0.0
O152 O 0.14146 0.42952 0.93035 0.0
C153 C 0.14959 0.50723 0.99266 0.0
Fe154 Fe 0.76204 0.4341 0.6196 0.0
Fe155 Fe 0.8463 0.43154 0.53387 0.0
O156 O 0.7926 0.4572 0.56435 0.0
Fe157 Fe 0.77172 0.50622 0.53953 0.0
O158 O 0.76201 0.52415 0.61215 0.0
O159 O 0.78734 0.4736 0.67405 0.0
O160 O 0.83641 0.40931 0.6584 0.0
C161 C 0.8914 0.41626 0.65548 0.0
C162 C 0.65932 0.4789 0.5454 0.0
O163 O 0.90185 0.42957 0.6078 0.0
C164 C 0.77622 0.46562 0.43132 0.0
O165 O 0.73387 0.39129 0.57071 0.0
O166 O 0.81919 0.38247 0.54353 0.0
O167 O 0.69075 0.49377 0.5131 0.0
O168 O 0.68405 0.45712 0.59099 0.0
C169 C 0.89361 0.50729 0.54541 0.0
O170 O 0.79355 0.43316 0.4577 0.0
O171 O 0.77669 0.49704 0.46153 0.0
C172 C 0.76875 0.36978 0.54924 0.0
O173 O 0.88566 0.47485 0.51862 0.0
O174 O 0.85188 0.52277 0.56489 0.0
C175 C 0.77649 0.50974 0.66497 0.0
C176 C 0.27049 0.06948 0.81676 0.0
C177 C 0.27356 0.07934 0.86824 0.0
C178 C 0.27194 0.05224 0.76077 0.0
C179 C 0.27361 0.03406 0.71582 0.0
C180 C 0.77193 0.0523 0.77784 0.0
C181 C 0.77026 0.03412 0.82279 0.0
C182 C 0.77338 0.06953 0.72184 0.0
C183 C 0.77031 0.07938 0.67035 0.0
C184 C 0.772 0.99691 0.27787 0.0
C185 C 0.77036 1.01508 0.32283 0.0
C186 C 0.77339 0.9797 0.22185 0.0
C187 C 0.77027 0.96985 0.17035 0.0
C188 C 0.27189 0.99695 0.26075 0.0
C189 C 0.27353 1.01512 0.21578 0.0
C190 C 0.2705 0.97972 0.31677 0.0
C191 C 0.27361 0.96987 0.36826 0.0
C192 C 0.77161 0.55228 0.76051 0.0
C193 C 0.77328 0.53411 0.71556 0.0
C194 C 0.77017 0.56951 0.81652 0.0
C195 C 0.77326 0.57936 0.868 0.0
C196 C 0.27306 0.56949 0.72159 0.0
C197 C 0.26999 0.57935 0.67011 0.0
C198 C 0.27163 0.55226 0.77759 0.0
C199 C 0.26996 0.53409 0.82255 0.0
C200 C 0.27167 0.49695 0.27761 0.0
C201 C 0.27002 0.51512 0.32257 0.0
C202 C 0.27307 0.47972 0.2216 0.0
C203 C 0.26996 0.46986 0.17011 0.0
C204 C 0.77158 0.49692 0.2605 0.0
C205 C 0.77323 0.51509 0.21554 0.0
C206 C 0.77018 0.4797 0.31653 0.0
C207 C 0.77329 0.46985 0.36802 0.0
C208 C 0.49611 1.02123 0.03021 0.0
C209 C 0.44861 1.02208 0.04429 0.0
C210 C 0.54766 0.028 1.00843 0.0
C211 C 0.59515 0.02715 0.99433 0.0
C212 C 0.49649 0.02776 0.53058 0.0
C213 C 0.44894 0.02695 0.54458 0.0
C214 C 0.54804 1.02099 0.5088 0.0
C215 C 0.59548 1.02189 0.49462 0.0
C216 C 0.99569 0.5211 0.02977 0.0
C217 C 0.94822 0.52198 0.04389 0.0
C218 C 0.04724 0.52787 1.00798 0.0
C219 C 0.09476 0.52704 0.99394 0.0
C220 C 0.04743 0.52122 0.50817 0.0
C221 C 0.09493 0.52208 0.49408 0.0
C222 C 0.99588 0.52799 0.52995 0.0
C223 C 0.94839 0.52714 0.54405 0.0
C224 C 0.04937 0.03626 0.02626 0.0
C225 C 0.09855 0.05361 0.03845 0.0
C226 C 0.99435 1.01298 1.01228 0.0
C227 C 0.94518 0.99562 1.0001 0.0
C228 C 0.99449 0.03634 0.51221 0.0
C229 C 0.94532 0.05369 0.50003 0.0
C230 C 0.04952 1.01306 0.52619 0.0
C231 C 0.09868 0.99569 0.53838 0.0
C232 C 0.49407 0.51302 1.01212 0.0
C233 C 0.44491 0.49565 0.99993 0.0
C234 C 0.5491 0.5363 0.0261 0.0
C235 C 0.59827 0.55365 0.03828 0.0
C236 C 0.54918 0.51298 0.52606 0.0
C237 C 0.59834 0.49561 0.53825 0.0
C238 C 0.49415 0.53626 0.51208 0.0
C239 C 0.44499 0.55362 0.49989 0.0
C240 C 0.49276 0.14389 0.24678 0.0
C241 C 0.44434 0.13987 0.20754 0.0
C242 C 0.55095 0.14387 0.29181 0.0
C243 C 0.59937 0.13982 0.33105 0.0
C244 C 0.55094 0.90525 0.79184 0.0
C245 C 0.59936 0.90931 0.83107 0.0
C246 C 0.49275 0.90522 0.74682 0.0
C247 C 0.44433 0.90925 0.70757 0.0
C248 C 0.99258 0.64389 0.24653 0.0
C249 C 0.94416 0.63984 0.20729 0.0
C250 C 0.05077 0.64391 0.29155 0.0
C251 C 0.09919 0.63988 0.3308 0.0
C252 C 0.99257 0.40526 0.74656 0.0
C253 C 0.94415 0.40931 0.70732 0.0
C254 C 0.05077 0.40525 0.79158 0.0
C255 C 0.09919 0.40928 0.83082 0.0
C256 C 0.26472 0.25509 0.02628 0.0
C257 C 0.25833 0.22093 0.03853 0.0
C258 C 0.27889 0.29413 1.0121 0.0
C259 C 0.28526 0.32828 0.99985 0.0
C260 C 0.77883 0.25509 0.51206 0.0
C261 C 0.78529 0.22094 0.49987 0.0
C262 C 0.76458 0.29412 0.52619 0.0
C263 C 0.75815 0.32828 0.53841 0.0
C264 C 0.77893 0.79413 1.01213 0.0
C265 C 0.78537 0.82828 0.99993 0.0
C266 C 0.76467 0.75509 0.02625 0.0
C267 C 0.75822 0.72094 0.03844 0.0
C268 C 0.27879 0.75509 0.51203 0.0
C269 C 0.28519 0.72094 0.49979 0.0
C270 C 0.26461 0.79412 0.52622 0.0
C271 C 0.25824 0.82827 0.53848 0.0
loop_
_geom_bond_atom_site_label_1
_geom_bond_atom_site_label_2
_geom_bond_distance
_geom_bond_site_symmetry_2
_ccdc_geom_bond_type
Fe0 O2 1.918 . S
Fe0 O5 1.997 . S
Fe0 O6 2.002 . S
Fe0 O11 1.976 . S
Fe0 O14 1.996 . S
Fe1 O2 1.918 . S
Fe1 O9 1.997 . S
Fe1 O12 1.996 . S
Fe1 O16 1.976 1_554 S
Fe1 O19 2.002 1_545 S
O2 Fe0 1.918 . S
O2 Fe1 1.918 . S
O2 Fe3 1.918 . S
Fe3 O2 1.918 . S
Fe3 O4 2.002 . S
Fe3 O13 1.976 1_554 S
Fe3 O17 1.996 1_554 S
Fe3 O20 1.997 . S
O4 Fe3 2.002 . S
O4 C21 1.295 . S
O5 Fe0 1.997 . S
O5 C21 1.235 . S
O6 Fe0 2.002 . S
O6 C7 1.295 . S
C7 O6 1.295 . S
C7 O9 1.235 . S
C8 O13 1.287 1_554 S
C8 O14 1.255 . S
O9 Fe1 1.997 . S
O9 C7 1.235 . S
C10 O16 1.287 . S
C10 O17 1.255 . S
O11 Fe0 1.976 . S
O11 C18 1.287 . S
O12 Fe1 1.996 . S
O12 C18 1.255 . S
O13 Fe3 1.976 1_556 S
O13 C8 1.287 1_556 S
O14 Fe0 1.996 . S
O14 C8 1.255 . S
C15 O19 1.295 1_545 S
C15 O20 1.235 . S
O16 Fe1 1.976 1_556 S
O16 C10 1.287 . S
O17 Fe3 1.996 1_556 S
O17 C10 1.255 . S
C18 O11 1.287 . S
C18 O12 1.255 . S
O19 Fe1 2.002 1_565 S
O19 C15 1.295 1_565 S
O20 Fe3 1.997 . S
O20 C15 1.235 . S
C21 O4 1.295 . S
C21 O5 1.235 . S
Fe22 O24 1.918 . S
Fe22 O27 1.997 . S
Fe22 O28 2.002 . S
Fe22 O33 1.976 . S
Fe22 O36 1.996 . S
Fe23 O24 1.918 . S
Fe23 O31 1.997 . S
Fe23 O34 1.996 . S
Fe23 O38 1.976 . S
Fe23 O41 2.002 1_545 S
O24 Fe22 1.918 . S
O24 Fe23 1.918 . S
O24 Fe25 1.918 . S
Fe25 O24 1.918 . S
Fe25 O26 2.002 . S
Fe25 O35 1.976 . S
Fe25 O39 1.996 . S
Fe25 O42 1.997 . S
O26 Fe25 2.002 . S
O26 C43 1.295 . S
O27 Fe22 1.997 . S
O27 C43 1.235 . S
O28 Fe22 2.002 . S
O28 C29 1.295 . S
C29 O28 1.295 . S
C29 O31 1.235 . S
C30 O35 1.287 . S
C30 O36 1.255 . S
O31 Fe23 1.997 . S
O31 C29 1.235 . S
C32 O38 1.287 . S
C32 O39 1.255 . S
O33 Fe22 1.976 . S
O33 C40 1.287 . S
O34 Fe23 1.996 . S
O34 C40 1.255 . S
O35 Fe25 1.976 . S
O35 C30 1.287 . S
O36 Fe22 1.996 . S
O36 C30 1.255 . S
C37 O41 1.295 1_545 S
C37 O42 1.235 . S
O38 Fe23 1.976 . S
O38 C32 1.287 . S
O39 Fe25 1.996 . S
O39 C32 1.255 . S
C40 O33 1.287 . S
C40 O34 1.255 . S
O41 Fe23 2.002 1_565 S
O41 C37 1.295 1_565 S
O42 Fe25 1.997 . S
O42 C37 1.235 . S
C43 O26 1.295 . S
C43 O27 1.235 . S
Fe44 O46 1.918 . S
Fe44 O49 1.997 . S
Fe44 O50 2.002 1_565 S
Fe44 O55 1.976 . S
Fe44 O58 1.996 1_556 S
Fe45 O46 1.918 . S
Fe45 O53 1.997 . S
Fe45 O56 1.996 . S
Fe45 O60 1.976 . S
Fe45 O63 2.002 . S
O46 Fe44 1.918 . S
O46 Fe45 1.918 . S
O46 Fe47 1.918 . S
Fe47 O46 1.918 . S
Fe47 O48 2.002 . S
Fe47 O57 1.976 1_556 S
Fe47 O61 1.996 1_556 S
Fe47 O64 1.997 . S
O48 Fe47 2.002 . S
O48 C65 1.295 . S
O49 Fe44 1.997 . S
O49 C65 1.235 . S
O50 Fe44 2.002 1_545 S
O50 C51 1.295 1_545 S
C51 O50 1.295 1_565 S
C51 O53 1.235 . S
C52 O57 1.287 . S
C52 O58 1.255 . S
O53 Fe45 1.997 . S
O53 C51 1.235 . S
C54 O60 1.287 . S
C54 O61 1.255 1_556 S
O55 Fe44 1.976 . S
O55 C62 1.287 . S
O56 Fe45 1.996 . S
O56 C62 1.255 . S
O57 Fe47 1.976 1_554 S
O57 C52 1.287 . S
O58 Fe44 1.996 1_554 S
O58 C52 1.255 . S
C59 O63 1.295 . S
C59 O64 1.235 . S
O60 Fe45 1.976 . S
O60 C54 1.287 . S
O61 Fe47 1.996 1_554 S
O61 C54 1.255 1_554 S
C62 O55 1.287 . S
C62 O56 1.255 . S
O63 Fe45 2.002 . S
O63 C59 1.295 . S
O64 Fe47 1.997 . S
O64 C59 1.235 . S
C65 O48 1.295 . S
C65 O49 1.235 . S
Fe66 O68 1.918 . S
Fe66 O71 1.997 . S
Fe66 O72 2.002 . S
Fe66 O77 1.976 . S
Fe66 O80 1.996 . S
Fe67 O68 1.918 . S
Fe67 O75 1.997 . S
Fe67 O78 1.996 . S
Fe67 O82 1.976 . S
Fe67 O85 2.002 . S
O68 Fe66 1.918 . S
O68 Fe67 1.918 . S
O68 Fe69 1.918 . S
Fe69 O68 1.918 . S
Fe69 O70 2.002 1_565 S
Fe69 O79 1.976 . S
Fe69 O83 1.996 . S
Fe69 O86 1.997 . S
O70 Fe69 2.002 1_545 S
O70 C87 1.295 1_545 S
O71 Fe66 1.997 . S
O71 C87 1.235 . S
O72 Fe66 2.002 . S
O72 C73 1.295 . S
C73 O72 1.295 . S
C73 O75 1.235 . S
C74 O79 1.287 . S
C74 O80 1.255 . S
O75 Fe67 1.997 . S
O75 C73 1.235 . S
C76 O82 1.287 . S
C76 O83 1.255 . S
O77 Fe66 1.976 . S
O77 C84 1.287 . S
O78 Fe67 1.996 . S
O78 C84 1.255 . S
O79 Fe69 1.976 . S
O79 C74 1.287 . S
O80 Fe66 1.996 . S
O80 C74 1.255 . S
C81 O85 1.295 . S
C81 O86 1.235 . S
O82 Fe67 1.976 . S
O82 C76 1.287 . S
O83 Fe69 1.996 . S
O83 C76 1.255 . S
C84 O77 1.287 . S
C84 O78 1.255 . S
O85 Fe67 2.002 . S
O85 C81 1.295 . S
O86 Fe69 1.997 . S
O86 C81 1.235 . S
C87 O70 1.295 1_565 S
C87 O71 1.235 . S
Fe88 O90 1.918 . S
Fe88 O93 1.997 . S
Fe88 O94 2.002 . S
Fe88 O99 1.976 . S
Fe88 O102 1.996 . S
Fe89 O90 1.918 . S
Fe89 O97 1.997 . S
Fe89 O100 1.996 . S
Fe89 O104 1.976 1_554 S
Fe89 O107 2.002 . S
O90 Fe88 1.918 . S
O90 Fe89 1.918 . S
O90 Fe91 1.918 . S
Fe91 O90 1.918 . S
Fe91 O92 2.002 . S
Fe91 O101 1.976 1_554 S
Fe91 O105 1.996 1_554 S
Fe91 O108 1.997 . S
O92 Fe91 2.002 . S
O92 C109 1.295 . S
O93 Fe88 1.997 . S
O93 C109 1.235 . S
O94 Fe88 2.002 . S
O94 C95 1.295 . S
C95 O94 1.295 . S
C95 O97 1.235 . S
C96 O101 1.287 1_554 S
C96 O102 1.255 . S
O97 Fe89 1.997 . S
O97 C95 1.235 . S
C98 O104 1.287 . S
C98 O105 1.255 . S
O99 Fe88 1.976 . S
O99 C106 1.287 . S
O100 Fe89 1.996 . S
O100 C106 1.255 . S
O101 Fe91 1.976 1_556 S
O101 C96 1.287 1_556 S
O102 Fe88 1.996 . S
O102 C96 1.255 . S
C103 O107 1.295 . S
C103 O108 1.235 . S
O104 Fe89 1.976 1_556 S
O104 C98 1.287 . S
O105 Fe91 1.996 1_556 S
O105 C98 1.255 . S
C106 O99 1.287 . S
C106 O100 1.255 . S
O107 Fe89 2.002 . S
O107 C103 1.295 . S
O108 Fe91 1.997 . S
O108 C103 1.235 . S
C109 O92 1.295 . S
C109 O93 1.235 . S
Fe110 O112 1.918 . S
Fe110 O115 1.997 . S
Fe110 O116 2.002 . S
Fe110 O121 1.976 . S
Fe110 O124 1.996 . S
Fe111 O112 1.918 . S
Fe111 O119 1.997 . S
Fe111 O122 1.996 . S
Fe111 O126 1.976 . S
Fe111 O129 2.002 . S
O112 Fe110 1.918 . S
O112 Fe111 1.918 . S
O112 Fe113 1.918 . S
Fe113 O112 1.918 . S
Fe113 O114 2.002 . S
Fe113 O123 1.976 . S
Fe113 O127 1.996 . S
Fe113 O130 1.997 . S
O114 Fe113 2.002 . S
O114 C131 1.295 . S
O115 Fe110 1.997 . S
O115 C131 1.235 . S
O116 Fe110 2.002 . S
O116 C117 1.295 . S
C117 O116 1.295 . S
C117 O119 1.235 . S
C118 O123 1.287 . S
C118 O124 1.255 . S
O119 Fe111 1.997 . S
O119 C117 1.235 . S
C120 O126 1.287 . S
C120 O127 1.255 . S
O121 Fe110 1.976 . S
O121 C128 1.287 . S
O122 Fe111 1.996 . S
O122 C128 1.255 . S
O123 Fe113 1.976 . S
O123 C118 1.287 . S
O124 Fe110 1.996 . S
O124 C118 1.255 . S
C125 O129 1.295 . S
C125 O130 1.235 . S
O126 Fe111 1.976 . S
O126 C120 1.287 . S
O127 Fe113 1.996 . S
O127 C120 1.255 . S
C128 O121 1.287 . S
C128 O122 1.255 . S
O129 Fe111 2.002 . S
O129 C125 1.295 . S
O130 Fe113 1.997 . S
O130 C125 1.235 . S
C131 O114 1.295 . S
C131 O115 1.235 . S
Fe132 O134 1.918 . S
Fe132 O137 1.997 . S
Fe132 O138 2.002 . S
Fe132 O143 1.976 . S
Fe132 O146 1.996 1_556 S
Fe133 O134 1.918 . S
Fe133 O141 1.997 . S
Fe133 O144 1.996 . S
Fe133 O148 1.976 . S
Fe133 O151 2.002 . S
O134 Fe132 1.918 . S
O134 Fe133 1.918 . S
O134 Fe135 1.918 . S
Fe135 O134 1.918 . S
Fe135 O136 2.002 . S
Fe135 O145 1.976 1_556 S
Fe135 O149 1.996 1_556 S
Fe135 O152 1.997 . S
O136 Fe135 2.002 . S
O136 C153 1.295 . S
O137 Fe132 1.997 . S
O137 C153 1.235 . S
O138 Fe132 2.002 . S
O138 C139 1.295 . S
C139 O138 1.295 . S
C139 O141 1.235 . S
C140 O145 1.287 . S
C140 O146 1.255 . S
O141 Fe133 1.997 . S
O141 C139 1.235 . S
C142 O148 1.287 . S
C142 O149 1.255 1_556 S
O143 Fe132 1.976 . S
O143 C150 1.287 . S
O144 Fe133 1.996 . S
O144 C150 1.255 . S
O145 Fe135 1.976 1_554 S
O145 C140 1.287 . S
O146 Fe132 1.996 1_554 S
O146 C140 1.255 . S
C147 O151 1.295 . S
C147 O152 1.235 . S
O148 Fe133 1.976 . S
O148 C142 1.287 . S
O149 Fe135 1.996 1_554 S
O149 C142 1.255 1_554 S
C150 O143 1.287 . S
C150 O144 1.255 . S
O151 Fe133 2.002 . S
O151 C147 1.295 . S
O152 Fe135 1.997 . S
O152 C147 1.235 . S
C153 O136 1.295 . S
C153 O137 1.235 . S
Fe154 O156 1.918 . S
Fe154 O159 1.997 . S
Fe154 O160 2.002 . S
Fe154 O165 1.976 . S
Fe154 O168 1.996 . S
Fe155 O156 1.918 . S
Fe155 O163 1.997 . S
Fe155 O166 1.996 . S
Fe155 O170 1.976 . S
Fe155 O173 2.002 . S
O156 Fe154 1.918 . S
O156 Fe155 1.918 . S
O156 Fe157 1.918 . S
Fe157 O156 1.918 . S
Fe157 O158 2.002 . S
Fe157 O167 1.976 . S
Fe157 O171 1.996 . S
Fe157 O174 1.997 . S
O158 Fe157 2.002 . S
O158 C175 1.295 . S
O159 Fe154 1.997 . S
O159 C175 1.235 . S
O160 Fe154 2.002 . S
O160 C161 1.295 . S
C161 O160 1.295 . S
C161 O163 1.235 . S
C162 O167 1.287 . S
C162 O168 1.255 . S
O163 Fe155 1.997 . S
O163 C161 1.235 . S
C164 O170 1.287 . S
C164 O171 1.255 . S
O165 Fe154 1.976 . S
O165 C172 1.287 . S
O166 Fe155 1.996 . S
O166 C172 1.255 . S
O167 Fe157 1.976 . S
O167 C162 1.287 . S
O168 Fe154 1.996 . S
O168 C162 1.255 . S
C169 O173 1.295 . S
C169 O174 1.235 . S
O170 Fe155 1.976 . S
O170 C164 1.287 . S
O171 Fe157 1.996 . S
O171 C164 1.255 . S
C172 O165 1.287 . S
C172 O166 1.255 . S
O173 Fe155 2.002 . S
O173 C169 1.295 . S
O174 Fe157 1.997 . S
O174 C169 1.235 . S
C175 O158 1.295 . S
C175 O159 1.235 . S
C176 C177 1.170 . S
C176 C178 1.380 . S
C177 C176 1.170 . S
C178 C176 1.380 . S
C178 C179 1.170 . S
C179 C178 1.170 . S
C180 C181 1.170 . S
C180 C182 1.380 . S
C181 C180 1.170 . S
C182 C180 1.380 . S
C182 C183 1.170 . S
C183 C182 1.170 . S
C184 C185 1.170 . S
C184 C186 1.380 . S
C185 C184 1.170 . S
C186 C184 1.380 . S
C186 C187 1.170 . S
C187 C186 1.170 . S
C188 C189 1.170 . S
C188 C190 1.380 . S
C189 C188 1.170 . S
C190 C188 1.380 . S
C190 C191 1.170 . S
C191 C190 1.170 . S
C192 C193 1.170 . S
C192 C194 1.380 . S
C193 C192 1.170 . S
C194 C192 1.380 . S
C194 C195 1.170 . S
C195 C194 1.170 . S
C196 C197 1.170 . S
C196 C198 1.380 . S
C197 C196 1.170 . S
C198 C196 1.380 . S
C198 C199 1.170 . S
C199 C198 1.170 . S
C200 C201 1.170 . S
C200 C202 1.380 . S
C201 C200 1.170 . S
C202 C200 1.380 . S
C202 C203 1.170 . S
C203 C202 1.170 . S
C204 C205 1.170 . S
C204 C206 1.380 . S
C205 C204 1.170 . S
C206 C204 1.380 . S
C206 C207 1.170 . S
C207 C206 1.170 . S
C208 C209 1.170 1_565 S
C208 C210 1.380 1_554 S
C209 C208 1.170 1_545 S
C210 C208 1.380 1_556 S
C210 C211 1.170 . S
C211 C210 1.170 . S
C212 C213 1.170 . S
C212 C214 1.380 . S
C213 C212 1.170 . S
C214 C212 1.380 . S
C214 C215 1.170 1_565 S
C215 C214 1.170 1_545 S
C216 C217 1.170 . S
C216 C218 1.380 1_654 S
C217 C216 1.170 . S
C218 C216 1.380 1_456 S
C218 C219 1.170 . S
C219 C218 1.170 . S
C220 C221 1.170 . S
C220 C222 1.380 1_455 S
C221 C220 1.170 . S
C222 C220 1.380 1_655 S
C222 C223 1.170 . S
C223 C222 1.170 . S
C224 C225 1.170 . S
C224 C226 1.380 1_444 S
C225 C224 1.170 . S
C226 C224 1.380 1_666 S
C226 C227 1.170 . S
C227 C226 1.170 . S
C228 C229 1.170 . S
C228 C230 1.380 1_645 S
C229 C228 1.170 . S
C230 C228 1.380 1_465 S
C230 C231 1.170 . S
C231 C230 1.170 . S
C232 C233 1.170 . S
C232 C234 1.380 1_556 S
C233 C232 1.170 . S
C234 C232 1.380 1_554 S
C234 C235 1.170 . S
C235 C234 1.170 . S
C236 C237 1.170 . S
C236 C238 1.380 . S
C237 C236 1.170 . S
C238 C236 1.380 . S
C238 C239 1.170 . S
C239 C238 1.170 . S
C240 C241 1.170 . S
C240 C242 1.380 . S
C241 C240 1.170 . S
C242 C240 1.380 . S
C242 C243 1.170 . S
C243 C242 1.170 . S
C244 C245 1.170 . S
C244 C246 1.380 . S
C245 C244 1.170 . S
C246 C244 1.380 . S
C246 C247 1.170 . S
C247 C246 1.170 . S
C248 C249 1.170 . S
C248 C250 1.380 1_655 S
C249 C248 1.170 . S
C250 C248 1.380 1_455 S
C250 C251 1.170 . S
C251 C250 1.170 . S
C252 C253 1.170 . S
C252 C254 1.380 1_655 S
C253 C252 1.170 . S
C254 C252 1.380 1_455 S
C254 C255 1.170 . S
C255 C254 1.170 . S
C256 C257 1.170 . S
C256 C258 1.381 . S
C257 C256 1.170 . S
C258 C256 1.381 . S
C258 C259 1.169 1_554 S
C259 C258 1.169 1_556 S
C260 C261 1.170 . S
C260 C262 1.380 . S
C261 C260 1.170 . S
C262 C260 1.380 . S
C262 C263 1.170 . S
C263 C262 1.170 . S
C264 C265 1.170 . S
C264 C266 1.380 . S
C265 C264 1.170 . S
C266 C264 1.380 . S
C266 C267 1.170 1_556 S
C267 C266 1.170 1_554 S
C268 C269 1.170 . S
C268 C270 1.380 . S
C269 C268 1.170 . S
C270 C268 1.380 . S
C270 C271 1.170 . S
C271 C270 1.170 . S
C177 C10 1.407 . S
C179 C87 1.436 1_545 S
C181 C51 1.443 1_545 S
C183 C32 1.423 . S
C185 C29 1.413 1_565 S
C187 C52 1.405 . S
C189 C7 1.425 1_565 S
C191 C76 1.401 . S
C193 C175 1.429 . S
C195 C98 1.435 . S
C197 C120 1.406 . S
C199 C139 1.437 . S
C201 C117 1.414 . S
C203 C140 1.391 . S
C205 C95 1.418 . S
C207 C164 1.393 . S
C209 C15 1.055 . S
C211 C65 0.985 . S
C213 C81 0.996 . S
C215 C37 1.035 . S
C217 C103 0.995 . S
C219 C153 1.052 . S
C221 C125 0.996 . S
C223 C169 1.045 . S
C225 C18 1.958 . S
C227 C62 1.948 . S
C229 C40 1.964 . S
C231 C74 1.951 . S
C233 C150 1.964 . S
C235 C106 1.937 . S
C237 C162 1.970 . S
C239 C128 1.934 . S
C241 C21 1.607 . S
C243 C43 1.605 . S
C245 C59 1.602 . S
C247 C73 1.604 . S
C249 C109 1.610 . S
C251 C131 1.609 . S
C253 C161 1.602 . S
C255 C147 1.604 . S
C257 C8 1.444 . S
C259 C142 1.432 . S
C261 C30 1.449 . S
C263 C172 1.446 . S
C265 C54 1.451 . S
C267 C96 1.444 . S
C269 C118 1.444 . S
C271 C84 1.451 . S
