# Generated by pormake.
# Topology whw, (6)-cn, num edge types: 1
# Building blocks:
#     Node 0, Type 0, BuildingBlock: JUFBIX_clean_sbu_0, # of connection points: 6
#     Node 1, Type 0, BuildingBlock: JUFBIX_clean_sbu_0, # of connection points: 6
#     Node 2, Type 0, BuildingBlock: JUFBIX_clean_sbu_0, # of connection points: 6
#     Node 3, Type 0, BuildingBlock: JUFBIX_clean_sbu_0, # of connection points: 6
#     Node 4, Type 0, BuildingBlock: JUFBIX_clean_sbu_0, # of connection points: 6
#     Node 5, Type 0, BuildingBlock: JUFBIX_clean_sbu_0, # of connection points: 6
#     Node 6, Type 0, BuildingBlock: JUFBIX_clean_sbu_0, # of connection points: 6
#     Node 7, Type 0, BuildingBlock: JUFBIX_clean_sbu_0, # of connection points: 6
#     Node 8, Type 0, BuildingBlock: JUFBIX_clean_sbu_0, # of connection points: 6
#     Node 9, Type 0, BuildingBlock: JUFBIX_clean_sbu_0, # of connection points: 6
#     Node 10, Type 0, BuildingBlock: JUFBIX_clean_sbu_0, # of connection points: 6
#     Node 11, Type 0, BuildingBlock: JUFBIX_clean_sbu_0, # of connection points: 6
#     Node 12, Type 0, BuildingBlock: JUFBIX_clean_sbu_0, # of connection points: 6
#     Node 13, Type 0, BuildingBlock: JUFBIX_clean_sbu_0, # of connection points: 6
#     Node 14, Type 0, BuildingBlock: JUFBIX_clean_sbu_0, # of connection points: 6
#     Node 15, Type 0, BuildingBlock: JUFBIX_clean_sbu_0, # of connection points: 6
#     Edge 16, Type (0, 0), BuildingBlock: AJUNOK_clean_linker_0, # of connection points: 2
#     Edge 17, Type (0, 0), BuildingBlock: AJUNOK_clean_linker_0, # of connection points: 2
#     Edge 18, Type (0, 0), BuildingBlock: AJUNOK_clean_linker_0, # of connection points: 2
#     Edge 19, Type (0, 0), BuildingBlock: AJUNOK_clean_linker_0, # of connection points: 2
#     Edge 20, Type (0, 0), BuildingBlock: AJUNOK_clean_linker_0, # of connection points: 2
#     Edge 21, Type (0, 0), BuildingBlock: AJUNOK_clean_linker_0, # of connection points: 2
#     Edge 22, Type (0, 0), BuildingBlock: AJUNOK_clean_linker_0, # of connection points: 2
#     Edge 23, Type (0, 0), BuildingBlock: AJUNOK_clean_linker_0, # of connection points: 2
#     Edge 24, Type (0, 0), BuildingBlock: AJUNOK_clean_linker_0, # of connection points: 2
#     Edge 25, Type (0, 0), BuildingBlock: AJUNOK_clean_linker_0, # of connection points: 2
#     Edge 26, Type (0, 0), BuildingBlock: AJUNOK_clean_linker_0, # of connection points: 2
#     Edge 27, Type (0, 0), BuildingBlock: AJUNOK_clean_linker_0, # of connection points: 2
#     Edge 28, Type (0, 0), BuildingBlock: AJUNOK_clean_linker_0, # of connection points: 2
#     Edge 29, Type (0, 0), BuildingBlock: AJUNOK_clean_linker_0, # of connection points: 2
#     Edge 30, Type (0, 0), BuildingBlock: AJUNOK_clean_linker_0, # of connection points: 2
#     Edge 31, Type (0, 0), BuildingBlock: AJUNOK_clean_linker_0, # of connection points: 2
#     Edge 32, Type (0, 0), BuildingBlock: AJUNOK_clean_linker_0, # of connection points: 2
#     Edge 33, Type (0, 0), BuildingBlock: AJUNOK_clean_linker_0, # of connection points: 2
#     Edge 34, Type (0, 0), BuildingBlock: AJUNOK_clean_linker_0, # of connection points: 2
#     Edge 35, Type (0, 0), BuildingBlock: AJUNOK_clean_linker_0, # of connection points: 2
#     Edge 36, Type (0, 0), BuildingBlock: AJUNOK_clean_linker_0, # of connection points: 2
#     Edge 37, Type (0, 0), BuildingBlock: AJUNOK_clean_linker_0, # of connection points: 2
#     Edge 38, Type (0, 0), BuildingBlock: AJUNOK_clean_linker_0, # of connection points: 2
#     Edge 39, Type (0, 0), BuildingBlock: AJUNOK_clean_linker_0, # of connection points: 2
#     Edge 40, Type (0, 0), BuildingBlock: AJUNOK_clean_linker_0, # of connection points: 2
#     Edge 41, Type (0, 0), BuildingBlock: AJUNOK_clean_linker_0, # of connection points: 2
#     Edge 42, Type (0, 0), BuildingBlock: AJUNOK_clean_linker_0, # of connection points: 2
#     Edge 43, Type (0, 0), BuildingBlock: AJUNOK_clean_linker_0, # of connection points: 2
#     Edge 44, Type (0, 0), BuildingBlock: AJUNOK_clean_linker_0, # of connection points: 2
#     Edge 45, Type (0, 0), BuildingBlock: AJUNOK_clean_linker_0, # of connection points: 2
#     Edge 46, Type (0, 0), BuildingBlock: AJUNOK_clean_linker_0, # of connection points: 2
#     Edge 47, Type (0, 0), BuildingBlock: AJUNOK_clean_linker_0, # of connection points: 2
#     Edge 48, Type (0, 0), BuildingBlock: AJUNOK_clean_linker_0, # of connection points: 2
#     Edge 49, Type (0, 0), BuildingBlock: AJUNOK_clean_linker_0, # of connection points: 2
#     Edge 50, Type (0, 0), BuildingBlock: AJUNOK_clean_linker_0, # of connection points: 2
#     Edge 51, Type (0, 0), BuildingBlock: AJUNOK_clean_linker_0, # of connection points: 2
#     Edge 52, Type (0, 0), BuildingBlock: AJUNOK_clean_linker_0, # of connection points: 2
#     Edge 53, Type (0, 0), BuildingBlock: AJUNOK_clean_linker_0, # of connection points: 2
#     Edge 54, Type (0, 0), BuildingBlock: AJUNOK_clean_linker_0, # of connection points: 2
#     Edge 55, Type (0, 0), BuildingBlock: AJUNOK_clean_linker_0, # of connection points: 2
#     Edge 56, Type (0, 0), BuildingBlock: AJUNOK_clean_linker_0, # of connection points: 2
#     Edge 57, Type (0, 0), BuildingBlock: AJUNOK_clean_linker_0, # of connection points: 2
#     Edge 58, Type (0, 0), BuildingBlock: AJUNOK_clean_linker_0, # of connection points: 2
#     Edge 59, Type (0, 0), BuildingBlock: AJUNOK_clean_linker_0, # of connection points: 2
#     Edge 60, Type (0, 0), BuildingBlock: AJUNOK_clean_linker_0, # of connection points: 2
#     Edge 61, Type (0, 0), BuildingBlock: AJUNOK_clean_linker_0, # of connection points: 2
#     Edge 62, Type (0, 0), BuildingBlock: AJUNOK_clean_linker_0, # of connection points: 2
#     Edge 63, Type (0, 0), BuildingBlock: AJUNOK_clean_linker_0, # of connection points: 2
# Relax obj value: 0.949
# Max RMSD: 0.268
# Mean RMSD: 0.260
data_MOF--net-whw--node1-JUFBIX_clean_sbu_0--edge1-AJUNOK_clean_linker_0
_symmetry_space_group_name_H-M    P1
_symmetry_Int_Tables_number       1
_symmetry_cell_setting            triclinic
loop_
_symmetry_equiv_pos_as_xyz
'x, y, z'
_cell_length_a     37.45552
_cell_length_b     37.315638
_cell_length_c     19.84152
_cell_angle_alpha  82.490557
_cell_angle_beta   89.178458
_cell_angle_gamma 86.728236
loop_
_atom_site_label
_atom_site_type_symbol
_atom_site_fract_x
_atom_site_fract_y
_atom_site_fract_z
_atom_type_partial_charge
Co0 Co 0.01863 0.11785 0.16125 0.0
C1 C 0.99093 0.06337 0.09939 0.0
Co2 Co 0.96941 0.13548 0.10704 0.0
C3 C 0.06499 0.1068 0.27434 0.0
C4 C 0.09205 0.09143 0.1861 0.0
N5 N 0.05983 0.10311 0.20882 0.0
N6 N 0.09893 0.09832 0.29342 0.0
C7 C 0.11647 0.08905 0.23816 0.0
H8 H 0.04502 0.11829 0.30635 0.0
H9 H 0.09788 0.08681 0.13429 0.0
C10 C -0.00324 0.18625 0.17392 0.0
N11 N 0.92785 0.14929 0.06196 0.0
C12 C 0.9165 0.13594 1.00694 0.0
C13 C 0.90068 0.17148 0.07951 0.0
N14 N 0.88319 0.14868 0.98883 0.0
C15 C 0.87338 0.17157 1.03409 0.0
C16 C 0.95512 0.11676 0.24508 0.0
O17 O 0.0226 0.16312 0.18344 0.0
O18 O 0.97138 0.18116 0.13527 0.0
O19 O 0.94075 0.12275 0.18691 0.0
O20 O 0.98889 0.10885 0.24653 0.0
O21 O 0.96761 0.08846 0.08044 0.0
H22 H 0.9008 0.18671 0.12229 0.0
H23 H 0.93283 0.11761 0.98003 0.0
O24 O 0.01536 0.06983 0.13906 0.0
O25 O 0.04702 0.13124 0.07804 0.0
O26 O -0.00243 0.15108 1.0252 0.0
C27 C 0.03167 0.14726 1.02437 0.0
H28 H 0.14494 0.08259 0.23505 0.0
H29 H 0.84923 0.18895 1.03265 0.0
Co30 Co 0.14766 0.75428 0.4613 0.0
C31 C 0.21138 0.72884 0.40566 0.0
Co32 Co 0.14152 0.71997 0.37404 0.0
C33 C 0.12219 0.78541 0.58795 0.0
C34 C 0.16511 0.81385 0.53843 0.0
N35 N 0.14728 0.78351 0.53692 0.0
N36 N 0.12338 0.8158 0.61951 0.0
C37 C 0.15065 0.83344 0.58815 0.0
H38 H 0.10182 0.76603 0.59885 0.0
H39 H 0.18573 0.82267 0.50228 0.0
C40 C 0.07966 0.74619 0.42233 0.0
N41 N 0.13497 0.69238 0.29777 0.0
C42 C 0.10977 0.69484 0.24726 0.0
C43 C 0.15581 0.66304 0.2867 0.0
N44 N 0.11467 0.66856 0.20512 0.0
C45 C 0.14368 0.64865 0.2311 0.0
C46 C 0.14282 0.6803 0.50071 0.0
O47 O 0.0983 0.75823 0.46603 0.0
O48 O 0.0939 0.72891 0.37736 0.0
O49 O 0.13784 0.67828 0.43783 0.0
O50 O 0.14811 0.71067 0.521 0.0
O51 O 0.19023 0.71224 0.37254 0.0
H52 H 0.17821 0.6521 0.31814 0.0
H53 H 0.08819 0.71554 0.24147 0.0
O54 O 0.19913 0.74908 0.44973 0.0
O55 O 0.14744 0.7965 0.39882 0.0
O56 O 0.14616 0.76274 0.31485 0.0
C57 C 0.14904 0.79334 0.3359 0.0
H58 H 0.15886 0.85946 0.59884 0.0
H59 H 0.15498 0.62441 0.2126 0.0
Co60 Co 0.49008 0.88404 0.73012 0.0
C61 C 0.52567 0.93488 0.64641 0.0
Co62 Co 0.53897 0.86207 0.68706 0.0
C63 C 0.43464 0.89504 0.82932 0.0
C64 C 0.42099 0.92197 0.73058 0.0
N65 N 0.44806 0.90318 0.76602 0.0
N66 N 0.40039 0.9078 0.8344 0.0
C67 C 0.39152 0.92448 0.77234 0.0
H68 H 0.44852 0.87723 0.86922 0.0
H69 H 0.42155 0.93071 0.67653 0.0
C70 C 0.49906 0.81242 0.76361 0.0
N71 N 0.58044 0.8427 0.65283 0.0
C72 C 0.60816 0.86198 0.62857 0.0
C73 C 0.5861 0.81024 0.63091 0.0
N74 N 0.6287 0.84477 0.58535 0.0
C75 C 0.61588 0.8114 0.58965 0.0
C76 C 0.55073 0.87449 0.81838 0.0
O77 O 0.47656 0.83874 0.76396 0.0
O78 O 0.52903 0.81685 0.73389 0.0
O79 O 0.56557 0.87067 0.76199 0.0
O80 O 0.51718 0.88427 0.81773 0.0
O81 O 0.54703 0.90814 0.6387 0.0
H82 H 0.56729 0.78908 0.63672 0.0
H83 H 0.60978 0.89048 0.63258 0.0
O84 O 0.50226 0.93128 0.69345 0.0
O85 O 0.46519 0.88009 0.643 0.0
O86 O 0.51334 0.85179 0.60925 0.0
C87 C 0.48127 0.86359 0.59748 0.0
H88 H 0.36502 0.93547 0.75731 0.0
H89 H 0.62323 0.79166 0.55568 0.0
Co90 Co 0.39513 0.19797 0.86473 0.0
C91 C 0.44993 0.21649 0.93687 0.0
Co92 Co 0.38294 0.24597 0.91513 0.0
C93 C 0.38823 0.1524 0.76472 0.0
C94 C 0.41634 0.124 0.84993 0.0
N95 N 0.4039 0.15726 0.82292 0.0
N96 N 0.38813 0.11722 0.75562 0.0
C97 C 0.40645 0.09923 0.80901 0.0
H98 H 0.37547 0.17455 0.73152 0.0
H99 H 0.4294 0.11782 0.89855 0.0
C100 C 0.32477 0.22491 0.84831 0.0
N101 N 0.37173 0.28655 0.95706 0.0
C102 C 0.37996 0.29268 1.02025 0.0
C103 C 0.35133 0.31596 0.9312 0.0
N104 N 0.36508 0.32454 1.03532 0.0
C105 C 0.34727 0.33939 0.97911 0.0
C106 C 0.40638 0.26306 0.77892 0.0
O107 O 0.34718 0.20029 0.83441 0.0
O108 O 0.33435 0.24715 0.88672 0.0
O109 O 0.39457 0.27706 0.83081 0.0
O110 O 0.40865 0.22863 0.78275 0.0
O111 O 0.43014 0.24448 0.94422 0.0
H112 H 0.33972 0.31988 0.88097 0.0
H113 H 0.39691 0.2742 0.05401 0.0
O114 O 0.44133 0.1954 0.89537 0.0
O115 O 0.3842 0.16711 0.94713 0.0
O116 O 0.37441 0.21408 1.00067 0.0
C117 C 0.38113 0.17987 1.00334 0.0
H118 H 0.41092 0.07028 0.82072 0.0
H119 H 0.33202 0.36512 0.97339 0.0
Co120 Co 0.01968 0.85455 0.97965 0.0
C121 C -0.0072 0.80238 0.91554 0.0
Co122 Co 0.97195 0.8721 0.92087 0.0
C123 C 0.07411 0.85815 0.07598 0.0
C124 C 0.08651 0.81645 1.01367 0.0
N125 N 0.0607 0.84121 1.02704 0.0
N126 N 0.10735 0.8452 0.09388 0.0
C127 C 0.115 0.81847 0.0553 0.0
H128 H 0.05957 0.87945 0.09866 0.0
H129 H 0.0849 0.79823 0.97586 0.0
C130 C -0.00146 0.92751 0.98086 0.0
N131 N 0.93236 0.88684 0.86956 0.0
C132 C 0.92834 0.87854 0.80654 0.0
C133 C 0.90238 0.90671 0.8823 0.0
N134 N 0.89736 0.89245 0.77851 0.0
C135 C 0.88045 0.9099 0.82615 0.0
C136 C 0.95604 0.84506 0.05867 0.0
O137 O 0.02208 0.90295 1.00162 0.0
O138 O 0.97459 0.91996 0.94148 0.0
O139 O 0.9417 0.85946 1.0026 0.0
O140 O 0.99017 0.8419 0.06091 0.0
O141 O 0.96843 0.82649 0.89997 0.0
H142 H 0.89669 0.91764 0.92942 0.0
H143 H 0.94731 0.86112 0.78268 0.0
O144 O 0.01703 0.80771 0.95648 0.0
O145 O 0.04959 0.86398 0.90025 0.0
O146 O 0.00329 0.88083 0.83712 0.0
C147 C 0.03665 0.87113 0.84101 0.0
H148 H 0.13852 0.80015 0.05925 0.0
H149 H 0.8541 0.92341 0.82109 0.0
Co150 Co 0.38292 0.79804 0.17219 0.0
C151 C 0.42674 0.79709 0.06214 0.0
Co152 Co 0.36867 0.75734 0.10231 0.0
C153 C 0.41655 0.82286 0.29428 0.0
C154 C 0.37888 0.86229 0.2447 0.0
N155 N 0.39506 0.82962 0.23818 0.0
N156 N 0.41413 0.84971 0.33497 0.0
C157 C 0.39035 0.87447 0.30315 0.0
H158 H 0.43234 0.79785 0.30714 0.0
H159 H 0.35866 0.87598 0.21083 0.0
C160 C 0.3233 0.76051 0.21319 0.0
N161 N 0.3606 0.72393 0.03832 0.0
C162 C 0.38553 0.70145 1.01122 0.0
C163 C 0.33105 0.7215 1.00184 0.0
N164 N 0.37278 0.68501 0.95953 0.0
C165 C 0.33835 0.69817 0.95393 0.0
C166 C 0.41098 0.72781 0.20832 0.0
O167 O 0.34392 0.78476 0.22465 0.0
O168 O 0.32766 0.74472 0.15956 0.0
O169 O 0.39552 0.72028 0.15586 0.0
O170 O 0.41015 0.76032 0.22096 0.0
O171 O 0.40842 0.77118 0.04984 0.0
H172 H 0.30623 0.73722 1.00712 0.0
H173 H 0.41305 0.69821 1.02784 0.0
O174 O 0.42141 0.81107 0.11705 0.0
O175 O 0.35538 0.83473 0.11957 0.0
O176 O 0.34213 0.79609 0.0497 0.0
C177 C 0.34268 0.82872 0.06304 0.0
H178 H 0.38128 0.89955 0.32143 0.0
H179 H 0.31983 0.69335 0.91529 0.0
Co180 Co 0.46088 0.10402 0.38275 0.0
C181 C 0.48637 0.16856 0.32708 0.0
Co182 Co 0.51468 0.10042 0.33847 0.0
C183 C 0.40698 0.08958 0.47956 0.0
C184 C 0.3849 0.12383 0.39399 0.0
N185 N 0.41563 0.10684 0.4186 0.0
N186 N 0.37223 0.0951 0.49549 0.0
C187 C 0.35814 0.11699 0.44176 0.0
H188 H 0.42673 0.07532 0.51397 0.0
H189 H 0.38242 0.14094 0.34568 0.0
C190 C 0.49221 0.03551 0.4042 0.0
N191 N 0.56091 0.0952 0.3039 0.0
C192 C 0.57337 0.10297 0.23986 0.0
C193 C 0.59022 0.08282 0.34085 0.0
N194 N 0.60906 0.09599 0.23598 0.0
C195 C 0.61992 0.0838 0.29933 0.0
C196 C 0.51462 0.11163 0.47807 0.0
O197 O 0.46293 0.0537 0.40949 0.0
O198 O 0.5166 0.04972 0.36649 0.0
O199 O 0.53478 0.10727 0.42712 0.0
O200 O 0.48109 0.11032 0.47025 0.0
O201 O 0.51384 0.14942 0.31359 0.0
H202 H 0.59033 0.07417 0.39498 0.0
H203 H 0.55693 0.11474 0.19728 0.0
O204 O 0.45985 0.15376 0.35763 0.0
O205 O 0.44007 0.09988 0.29768 0.0
O206 O 0.49247 0.09726 0.24833 0.0
C207 C 0.45825 0.10111 0.24322 0.0
H208 H 0.3311 0.12896 0.439 0.0
H209 H 0.64735 0.07673 0.31443 0.0
Co210 Co 0.12821 0.23478 0.64555 0.0
C211 C 0.19162 0.25336 0.69761 0.0
Co212 Co 0.12239 0.28378 0.69492 0.0
C213 C 0.12667 0.18594 0.54404 0.0
C214 C 0.14753 0.16041 0.63941 0.0
N215 N 0.1338 0.19236 0.60757 0.0
N216 N 0.13517 0.15127 0.5356 0.0
C217 C 0.14809 0.13495 0.59529 0.0
H218 H 0.11498 0.20603 0.50504 0.0
H219 H 0.15677 0.15592 0.69138 0.0
C220 C 0.06106 0.2635 0.64865 0.0
N221 N 0.12023 0.3258 0.73368 0.0
C222 C 0.13757 0.32835 0.7913 0.0
C223 C 0.10822 0.35993 0.71092 0.0
N224 N 0.13758 0.36251 0.80597 0.0
C225 C 0.11845 0.3826 0.75608 0.0
C226 C 0.12845 0.29809 0.55157 0.0
O227 O 0.08044 0.23871 0.62639 0.0
O228 O 0.07401 0.28619 0.68239 0.0
O229 O 0.12634 0.31228 0.60651 0.0
O230 O 0.13567 0.26388 0.55646 0.0
O231 O 0.17239 0.28087 0.70912 0.0
H232 H 0.09337 0.36785 0.66451 0.0
H233 H 0.14927 0.305 0.82309 0.0
O234 O 0.17781 0.23002 0.6667 0.0
O235 O 0.11652 0.2067 0.73308 0.0
O236 O 0.11457 0.25499 0.78437 0.0
C237 C 0.11022 0.22116 0.7871 0.0
H238 H 0.15733 0.10677 0.60585 0.0
H239 H 0.11153 0.41131 0.75348 0.0
Co240 Co 0.84926 0.27754 0.70267 0.0
C241 C 0.91216 0.25321 0.65506 0.0
Co242 Co 0.84456 0.24263 0.61582 0.0
C243 C 0.87945 0.30044 0.83173 0.0
C244 C 0.83553 0.33492 0.79045 0.0
N245 N 0.85508 0.30474 0.77963 0.0
N246 N 0.87545 0.32644 0.87461 0.0
C247 C 0.84776 0.3481 0.84744 0.0
H248 H 0.89993 0.27863 0.83795 0.0
H249 H 0.81408 0.34725 0.75788 0.0
C250 C 0.77969 0.26721 0.6694 0.0
N251 N 0.84545 0.21337 0.5401 0.0
C252 C 0.87352 0.20532 0.49799 0.0
C253 C 0.82007 0.19183 0.52402 0.0
N254 N 0.86681 0.17957 0.45723 0.0
C255 C 0.83277 0.17159 0.47393 0.0
C256 C 0.84343 0.20387 0.74132 0.0
O257 O 0.80013 0.28388 0.70401 0.0
O258 O 0.79292 0.2473 0.62567 0.0
O259 O 0.84493 0.2004 0.67848 0.0
O260 O 0.84567 0.23469 0.76171 0.0
O261 O 0.89408 0.23964 0.61244 0.0
H262 H 0.79426 0.1898 0.54899 0.0
H263 H 0.89867 0.21801 0.4976 0.0
O264 O 0.89719 0.27018 0.69967 0.0
O265 O 0.85223 0.31956 0.63822 0.0
O266 O 0.84412 0.2861 0.55571 0.0
C267 C 0.84867 0.31686 0.57508 0.0
H268 H 0.83758 0.37281 0.86569 0.0
H269 H 0.81814 0.15141 0.4532 0.0
Co270 Co 0.61411 0.73527 0.16028 0.0
C271 C 0.67505 0.75112 0.22242 0.0
Co272 Co 0.60713 0.78465 0.20853 0.0
C273 C 0.61581 0.68687 0.05704 0.0
C274 C 0.63136 0.66047 0.1554 0.0
N275 N 0.61996 0.6929 0.12188 0.0
N276 N 0.62411 0.65201 0.04929 0.0
C277 C 0.63351 0.63518 0.11097 0.0
H278 H 0.60636 0.70739 1.01658 0.0
H279 H 0.63797 0.65552 0.20882 0.0
C280 C 0.54901 0.77065 0.14204 0.0
N281 N 0.60464 0.82655 0.24802 0.0
C282 C 0.62203 0.82897 0.3057 0.0
C283 C 0.59497 0.86109 0.22295 0.0
N284 N 0.62509 0.86338 0.31674 0.0
C285 C 0.60706 0.88391 0.26611 0.0
C286 C 0.62113 0.79881 0.06857 0.0
O287 O 0.56745 0.74242 0.13089 0.0
O288 O 0.55973 0.79069 0.18378 0.0
O289 O 0.61729 0.81293 0.12325 0.0
O290 O 0.62672 0.76434 0.07381 0.0
O291 O 0.65576 0.77886 0.23195 0.0
H292 H 0.58162 0.86931 0.17508 0.0
H293 H 0.63292 0.80563 0.33873 0.0
O294 O 0.66236 0.72779 0.19006 0.0
O295 O 0.59831 0.70775 0.24419 0.0
O296 O 0.59426 0.75626 0.29509 0.0
C297 C 0.59074 0.72232 0.29749 0.0
H298 H 0.64145 0.60671 0.12274 0.0
H299 H 0.60329 0.91312 0.26048 0.0
Co300 Co 0.61854 0.23537 0.96102 0.0
C301 C 0.65905 0.23593 0.84183 0.0
Co302 Co 0.60521 0.19291 0.89507 0.0
C303 C 0.60145 0.28826 0.05621 0.0
C304 C 0.65788 0.28271 0.03978 0.0
N305 N 0.62688 0.27087 1.02015 0.0
N306 N 0.61521 0.31013 0.09797 0.0
C307 C 0.65089 0.30648 0.08716 0.0
H308 H 0.5733 0.28375 0.05362 0.0
H309 H 0.684 0.27402 1.02205 0.0
C310 C 0.56688 0.19032 1.01507 0.0
N311 N 0.59109 0.15939 0.8354 0.0
C312 C 0.58428 0.16483 0.76708 0.0
C313 C 0.58007 0.12586 0.85547 0.0
N314 N 0.56934 0.13612 0.74442 0.0
C315 C 0.56682 0.11174 0.80054 0.0
C316 C 0.65355 0.16763 0.99482 0.0
O317 O 0.58338 0.21815 1.0229 0.0
O318 O 0.57102 0.17656 0.95977 0.0
O319 O 0.63851 0.15939 0.9419 0.0
O320 O 0.65103 0.20043 1.00772 0.0
O321 O 0.64024 0.20962 0.83304 0.0
H322 H 0.57997 0.11305 0.90752 0.0
H323 H 0.58836 0.19015 0.73532 0.0
O324 O 0.65491 0.25132 0.89585 0.0
O325 O 0.58598 0.26894 0.91276 0.0
O326 O 0.57235 0.22712 0.8513 0.0
C327 C 0.56983 0.25991 0.86235 0.0
H328 H 0.67086 0.31975 0.11229 0.0
H329 H 0.55542 0.08563 0.80216 0.0
Co330 Co 0.8735 0.70344 0.38259 0.0
C331 C 0.93224 0.73123 0.4269 0.0
Co332 Co 0.86335 0.75048 0.43666 0.0
C333 C 0.85663 0.65095 0.29931 0.0
C334 C 0.91064 0.64105 0.33245 0.0
N335 N 0.88112 0.66276 0.33897 0.0
N336 N 0.86965 0.62427 0.26538 0.0
C337 C 0.90377 0.61758 0.28652 0.0
H338 H 0.83039 0.66386 0.28957 0.0
H339 H 0.9362 0.64383 0.35538 0.0
C340 C 0.80238 0.72549 0.38636 0.0
N341 N 0.85276 0.79098 0.47878 0.0
C342 C 0.86681 0.80057 0.53534 0.0
C343 C 0.82803 0.81788 0.45817 0.0
N344 N 0.85149 0.83204 0.55067 0.0
C345 C 0.827 0.84309 0.50274 0.0
C346 C 0.87775 0.76884 0.29435 0.0
O347 O 0.82378 0.70006 0.37337 0.0
O348 O 0.81391 0.74965 0.41792 0.0
O349 O 0.87088 0.78181 0.35 0.0
O350 O 0.87606 0.7347 0.29498 0.0
O351 O 0.91056 0.75248 0.45342 0.0
H352 H 0.81201 0.81943 0.41312 0.0
H353 H 0.88798 0.785 0.56449 0.0
O354 O 0.92172 0.70794 0.39163 0.0
O355 O 0.8746 0.6726 0.46783 0.0
O356 O 0.86067 0.71793 0.52455 0.0
C357 C 0.87187 0.6847 0.52479 0.0
H358 H 0.92352 0.60002 0.26478 0.0
H359 H 0.81052 0.86805 0.49924 0.0
Co360 Co 0.51351 0.61188 0.6739 0.0
C361 C 0.48899 0.55677 0.61002 0.0
Co362 Co 0.4629 0.62665 0.62151 0.0
C363 C 0.55921 0.60287 0.78819 0.0
C364 C 0.58703 0.58702 0.70102 0.0
N365 N 0.55451 0.5984 0.72287 0.0
N366 N 0.59326 0.59553 0.80769 0.0
C367 C 0.6112 0.58578 0.7532 0.0
H368 H 0.53869 0.61403 0.81964 0.0
H369 H 0.59318 0.58192 0.64958 0.0
C370 C 0.48813 0.67932 0.68754 0.0
N371 N 0.42264 0.63939 0.5707 0.0
C372 C 0.42096 0.63234 0.50616 0.0
C373 C 0.39654 0.66511 0.57675 0.0
N374 N 0.39697 0.65445 0.46957 0.0
C375 C 0.38091 0.67471 0.51405 0.0
C376 C 0.44977 0.6071 0.75688 0.0
O377 O 0.51475 0.65715 0.69778 0.0
O378 O 0.46274 0.67264 0.65016 0.0
O379 O 0.43402 0.61275 0.69979 0.0
O380 O 0.48373 0.60065 0.75651 0.0
O381 O 0.4634 0.57985 0.59391 0.0
H382 H 0.39268 0.67946 0.6205 0.0
H383 H 0.44155 0.61627 0.48301 0.0
O384 O 0.51293 0.56455 0.64939 0.0
O385 O 0.54223 0.62703 0.59322 0.0
O386 O 0.49169 0.64343 0.54218 0.0
C387 C 0.52563 0.64179 0.54032 0.0
H388 H 0.63979 0.57993 0.75052 0.0
H389 H 0.36338 0.69853 0.49998 0.0
Co390 Co 0.98503 0.37898 0.23271 0.0
C391 C 0.01744 0.42839 0.1374 0.0
Co392 Co 0.02925 0.35549 0.17744 0.0
C393 C 0.92065 0.38549 0.31288 0.0
C394 C 0.9473 0.43499 0.29748 0.0
N395 N 0.94827 0.40134 0.27905 0.0
N396 N 0.9034 0.40723 0.35339 0.0
C397 C 0.91977 0.43866 0.34319 0.0
H398 H 0.91538 0.35724 0.31344 0.0
H399 H 0.96707 0.45466 0.28332 0.0
C400 C -0.0046 0.30771 0.27037 0.0
N401 N 0.06738 0.33512 0.13483 0.0
C402 C 0.09634 0.35333 0.11389 0.0
C403 C 0.07123 0.30372 0.10843 0.0
N404 N 0.11692 0.33622 0.07079 0.0
C405 C 0.10172 0.3044 0.06871 0.0
C406 C 0.0512 0.36993 0.30466 0.0
O407 O 0.9736 0.33409 0.27633 0.0
O408 O 0.02135 0.31143 0.22858 0.0
O409 O 0.06187 0.36371 0.2462 0.0
O410 O 0.01845 0.38134 0.31012 0.0
O411 O 0.03618 0.40082 0.12447 0.0
H412 H 0.05141 0.28355 0.11203 0.0
H413 H 0.09977 0.381 0.12235 0.0
O414 O -0.00396 0.42515 0.18752 0.0
O415 O 0.9524 0.37293 0.15562 0.0
O416 O -0.00311 0.34497 0.10765 0.0
C417 C 0.96394 0.3557 0.10671 0.0
H418 H 0.91411 0.46156 0.37074 0.0
H419 H 0.10898 0.28549 1.03311 0.0
Co420 Co 0.52983 0.36038 0.45071 0.0
C421 C 0.50063 0.30771 0.39527 0.0
Co422 Co 0.47872 0.37791 0.40372 0.0
C423 C 0.57137 0.35402 0.56605 0.0
C424 C 0.59518 0.32051 0.49605 0.0
N425 N 0.57002 0.34722 0.50134 0.0
N426 N 0.59385 0.33063 0.60358 0.0
C427 C 0.60967 0.30997 0.55943 0.0
H428 H 0.55096 0.37059 0.58853 0.0
H429 H 0.59871 0.306 0.45243 0.0
C430 C 0.50632 0.43224 0.4609 0.0
N431 N 0.4379 0.39038 0.35324 0.0
C432 C 0.43125 0.37585 0.29645 0.0
C433 C 0.40838 0.41162 0.36323 0.0
N434 N 0.39885 0.38641 0.27115 0.0
C435 C 0.38409 0.40923 0.31219 0.0
C436 C 0.4676 0.34867 0.53654 0.0
O437 O 0.5299 0.40717 0.47838 0.0
O438 O 0.48186 0.4264 0.42073 0.0
O439 O 0.4503 0.3673 0.48769 0.0
O440 O 0.50114 0.34342 0.52913 0.0
O441 O 0.47487 0.331 0.38839 0.0
H442 H 0.40436 0.42684 0.40579 0.0
H443 H 0.44945 0.35674 0.27484 0.0
O444 O 0.52931 0.31444 0.42289 0.0
O445 O 0.55841 0.37412 0.37328 0.0
O446 O 0.50805 0.38499 0.31861 0.0
C447 C 0.54207 0.37894 0.31688 0.0
H448 H 0.62583 0.28524 0.57402 0.0
H449 H 0.35739 0.42195 0.30717 0.0
Co450 Co 0.96893 0.62418 0.8968 0.0
C451 C 0.00027 0.6778 0.81378 0.0
Co452 Co 0.01704 0.60694 0.84493 0.0
C453 C 0.91267 0.62143 0.99211 0.0
C454 C 0.89935 0.65978 0.90549 0.0
N455 N 0.92668 0.63856 0.9352 0.0
N456 N 0.87745 0.62945 0.99803 0.0
C457 C 0.86897 0.6545 0.94468 0.0
H458 H 0.92815 0.60337 1.02906 0.0
H459 H 0.901 0.67665 0.85701 0.0
C460 C 0.98852 0.55197 0.93209 0.0
N461 N 0.05783 0.59071 0.80361 0.0
C462 C 0.06611 0.59794 0.73738 0.0
C463 C 0.087 0.57233 0.83247 0.0
N464 N 0.09941 0.58537 0.72351 0.0
C465 C 0.11298 0.56959 0.78324 0.0
C466 C 0.03042 0.62979 0.97544 0.0
O467 O 0.96556 0.57679 0.943 0.0
O468 O 0.01096 0.55833 0.88433 0.0
O469 O 0.04493 0.615 0.92614 0.0
O470 O -0.00341 0.6364 0.9732 0.0
O471 O 0.02476 0.6539 0.80677 0.0
H472 H 0.08993 0.56339 0.8863 0.0
H473 H 0.04929 0.61506 0.70098 0.0
O474 O 0.97354 0.67014 0.85188 0.0
O475 O 0.94068 0.61452 0.82245 0.0
O476 O 0.98777 0.60279 0.76255 0.0
C477 C 0.95407 0.61086 0.76471 0.0
H478 H 0.84284 0.668 0.93502 0.0
H479 H 0.14037 0.55916 0.79131 0.0
C480 C 0.0841 0.18272 0.9717 0.0
C481 C 0.05306 0.16377 0.96341 0.0
C482 C 0.10257 0.20115 0.91538 0.0
C483 C 0.09185 0.20031 0.84762 0.0
H484 H 0.09355 0.18441 1.02246 0.0
H485 H 0.1255 0.2161 0.92504 0.0
S486 S 0.01253 0.15474 0.79711 0.0
N487 N 0.0123 0.14644 0.88097 0.0
N488 N 0.0478 0.17858 0.77637 0.0
C489 C 0.06133 0.18083 0.83875 0.0
C490 C 0.04183 0.1633 0.89598 0.0
C491 C 0.11711 0.84607 0.27689 0.0
C492 C 0.14922 0.8251 0.28562 0.0
C493 C 0.10526 0.85888 0.21147 0.0
C494 C 0.12561 0.85082 0.1544 0.0
H495 H 0.09843 0.84713 0.31896 0.0
H496 H 0.07796 0.86987 0.20642 0.0
S497 S 0.21936 0.81346 0.1563 0.0
N498 N 0.20648 0.80831 0.23681 0.0
N499 N 0.18506 0.8343 0.1131 0.0
C500 C 0.16143 0.83827 0.16454 0.0
C501 C 0.17315 0.82473 0.231 0.0
C502 C 0.41228 0.86776 0.45259 0.0
C503 C 0.43092 0.85147 0.40079 0.0
C504 C 0.42829 0.87122 0.51564 0.0
C505 C 0.46398 0.85878 0.53045 0.0
H506 H 0.38482 0.8779 0.44447 0.0
H507 H 0.41252 0.88402 0.55295 0.0
S508 S 0.52564 0.81604 0.41082 0.0
N509 N 0.4878 0.82411 0.36837 0.0
N510 N 0.5178 0.83022 0.48534 0.0
C511 C 0.483 0.84254 0.47876 0.0
C512 C 0.46658 0.83894 0.41471 0.0
C513 C 0.34809 0.12669 0.65628 0.0
C514 C 0.37186 0.10364 0.69909 0.0
C515 C 0.34217 0.12045 0.58969 0.0
C516 C 0.35944 0.09066 0.56442 0.0
H517 H 0.33663 0.15165 0.67134 0.0
H518 H 0.32829 0.14165 0.55582 0.0
S519 S 0.40863 0.01334 0.66439 0.0
N520 N 0.40231 0.04365 0.7175 0.0
N521 N 0.3887 0.03109 0.59321 0.0
C522 C 0.3754 0.06315 0.61127 0.0
C523 C 0.38268 0.06998 0.6785 0.0
C524 C 0.88571 0.78927 0.16609 0.0
C525 C 0.89477 0.79166 0.23427 0.0
C526 C 0.90416 0.80809 0.11005 0.0
C527 C 0.9337 0.82906 0.119 0.0
H528 H 0.8643 0.77247 0.15584 0.0
H529 H 0.89614 0.80485 0.05906 0.0
S530 S 0.96952 0.84319 0.28663 0.0
N531 N 0.93553 0.8174 0.3065 0.0
N532 N 0.97108 0.85029 0.20272 0.0
C533 C 0.94312 0.83137 0.18688 0.0
C534 C 0.92354 0.81342 0.24375 0.0
C535 C 0.87693 0.1528 0.8025 0.0
C536 C 0.84417 0.17245 0.79246 0.0
C537 C 0.88813 0.13981 0.86824 0.0
C538 C 0.86652 0.14621 0.92486 0.0
H539 H 0.89622 0.15258 0.76125 0.0
H540 H 0.91554 0.12933 0.87405 0.0
S541 S 0.77173 0.18094 0.91869 0.0
N542 N 0.78581 0.18732 0.83896 0.0
N543 N 0.80591 0.16082 0.96323 0.0
C544 C 0.83063 0.15828 0.91306 0.0
C545 C 0.81957 0.17201 0.84617 0.0
C546 C 0.52335 0.11518 0.67049 0.0
C547 C 0.5557 0.13216 0.67704 0.0
C548 C 0.51038 0.109 0.60658 0.0
C549 C 0.52945 0.11861 0.54559 0.0
H550 H 0.50768 0.1067 0.71543 0.0
H551 H 0.4853 0.09602 0.60519 0.0
S552 S 0.61535 0.1644 0.53347 0.0
N553 N 0.60606 0.15922 0.61574 0.0
N554 N 0.5824 0.1469 0.49648 0.0
C555 C 0.56182 0.13571 0.55127 0.0
C556 C 0.57467 0.14272 0.61644 0.0
C557 C 0.61677 0.88976 0.48608 0.0
C558 C 0.64028 0.86302 0.52137 0.0
C559 C 0.61602 0.89509 0.4153 0.0
C560 C 0.63843 0.87349 0.37832 0.0
H561 H 0.59503 0.90239 0.51243 0.0
H562 H 0.59408 0.91166 0.3905 0.0
S563 S 0.71343 0.81061 0.44579 0.0
N564 N 0.69285 0.82282 0.5141 0.0
N565 N 0.69186 0.83319 0.38 0.0
C566 C 0.66676 0.85254 0.41237 0.0
C567 C 0.66744 0.84701 0.48453 0.0
C568 C 0.58383 0.70682 0.42597 0.0
C569 C 0.57575 0.70021 0.35954 0.0
C570 C 0.56914 0.68652 0.48425 0.0
C571 C 0.5448 0.65951 0.47872 0.0
H572 H 0.6017 0.72783 0.43303 0.0
H573 H 0.57585 0.693 0.53403 0.0
S574 S 0.51317 0.63277 0.31715 0.0
N575 N 0.54137 0.66447 0.29259 0.0
N576 N 0.51274 0.62808 0.40109 0.0
C577 C 0.53631 0.6529 0.41276 0.0
C578 C 0.55203 0.6727 0.35364 0.0
C579 C 0.54889 0.27447 0.74492 0.0
C580 C 0.56251 0.28704 0.80273 0.0
C581 C 0.55991 0.28863 0.68006 0.0
C582 C 0.58348 0.31679 0.67088 0.0
H583 H 0.53317 0.25074 0.74996 0.0
H584 H 0.55089 0.27685 0.63665 0.0
S585 S 0.61493 0.36863 0.80249 0.0
N586 N 0.59299 0.33564 0.84517 0.0
N587 N 0.61214 0.3632 0.72143 0.0
C588 C 0.59234 0.33358 0.72671 0.0
C589 C 0.58169 0.31881 0.79325 0.0
C590 C 0.95481 0.33056 0.99373 0.0
C591 C 0.94015 0.34774 0.04857 0.0
C592 C 0.93377 0.32287 0.93857 0.0
C593 C 0.89664 0.33201 0.93445 0.0
H594 H 0.98317 0.32311 0.99285 0.0
H595 H 0.94697 0.31038 0.89796 0.0
S596 S 0.84369 0.37415 0.06705 0.0
N597 N 0.88503 0.37157 0.09577 0.0
N598 N 0.84586 0.35701 0.99438 0.0
C599 C 0.88144 0.34832 0.98983 0.0
C600 C 0.90291 0.35615 0.04589 0.0
C601 C 0.83908 0.6474 0.15837 0.0
C602 C 0.85614 0.61817 0.20075 0.0
C603 C 0.83952 0.64819 0.08813 0.0
C604 C 0.85737 0.62009 0.05888 0.0
H605 H 0.8298 0.67209 0.17764 0.0
H606 H 0.83137 0.67334 0.0572 0.0
S607 S 0.88879 0.53067 0.14796 0.0
N608 N 0.87888 0.55551 0.20953 0.0
N609 N 0.87913 0.55692 0.07609 0.0
C610 C 0.86634 0.58749 0.10068 0.0
C611 C 0.86632 0.58672 0.17238 0.0
C612 C 0.4631 0.29265 0.62102 0.0
C613 C 0.44979 0.32818 0.59735 0.0
C614 C 0.4484 0.27199 0.67826 0.0
C615 C 0.42009 0.28596 0.71644 0.0
H616 H 0.48512 0.28038 0.59451 0.0
H617 H 0.45997 0.24492 0.69355 0.0
S618 S 0.3753 0.37767 0.67731 0.0
N619 N 0.40593 0.37625 0.61673 0.0
N620 N 0.37922 0.33813 0.72583 0.0
C621 C 0.40653 0.32159 0.69379 0.0
C622 C 0.421 0.3424 0.634 0.0
C623 C 0.3857 0.65772 0.34721 0.0
C624 C 0.40477 0.66815 0.40082 0.0
C625 C 0.39219 0.6732 0.28028 0.0
C626 C 0.41764 0.69968 0.26607 0.0
H627 H 0.36466 0.63899 0.35756 0.0
H628 H 0.37463 0.66722 0.2408 0.0
S629 S 0.47859 0.73061 0.38903 0.0
N630 N 0.45303 0.70225 0.4356 0.0
N631 N 0.46577 0.73086 0.30968 0.0
C632 C 0.43952 0.70694 0.3188 0.0
C633 C 0.43266 0.6916 0.38651 0.0
C634 C 0.0561 0.66497 0.14458 0.0
C635 C 0.09389 0.66126 0.14606 0.0
C636 C 0.03602 0.65473 0.09017 0.0
C637 C 0.05248 0.6403 1.03379 0.0
H638 H 0.0418 0.67504 0.18668 0.0
H639 H 0.00714 0.65794 0.09274 0.0
S640 S 0.15084 0.62836 1.00888 0.0
N641 N 0.14678 0.64437 0.0825 0.0
N642 N 0.10969 0.6252 0.9825 0.0
C643 C 0.09027 0.6374 1.03407 0.0
C644 C 0.11065 0.64779 0.08922 0.0
C645 C 0.12039 0.39218 0.90464 0.0
C646 C 0.14586 0.37128 0.87206 0.0
C647 C 0.11442 0.38421 0.97438 0.0
C648 C 0.13382 0.3552 1.01271 0.0
H649 H 0.10124 0.41049 0.87532 0.0
H650 H 0.09115 0.39719 0.99591 0.0
S651 S 0.21392 0.30483 0.95567 0.0
N652 N 0.19932 0.33086 0.88663 0.0
N653 N 0.18627 0.3139 1.0177 0.0
C654 C 0.16404 0.33977 0.9833 0.0
C655 C 0.17085 0.34879 0.9127 0.0
C656 C 0.95581 0.26136 0.26279 0.0
C657 C 0.98597 0.27143 0.29506 0.0
C658 C 0.95949 0.23335 0.2229 0.0
C659 C -0.00767 0.21333 0.22038 0.0
H660 H 0.93206 0.27946 0.25632 0.0
H661 H 0.93727 0.22887 0.19124 0.0
S662 S 0.07043 0.2173 0.33226 0.0
N663 N 0.0429 0.25154 0.34727 0.0
N664 N 0.0501 0.19693 0.27583 0.0
C665 C 0.01898 0.2176 0.26776 0.0
C666 C 0.01495 0.2464 0.30729 0.0
C667 C 0.98716 0.74293 0.36591 0.0
C668 C 0.96912 0.73759 0.42806 0.0
C669 C 0.02302 0.74927 0.36447 0.0
C670 C 0.04148 0.7494 0.42536 0.0
H671 H 0.97352 0.74198 0.31836 0.0
H672 H 0.03675 0.75229 0.31573 0.0
S673 S 0.00441 0.73917 0.60045 0.0
N674 N 0.97005 0.73559 0.55094 0.0
N675 N 0.03908 0.74603 0.5489 0.0
C676 C 0.02319 0.74605 0.48776 0.0
C677 C 0.98635 0.74023 0.48897 0.0
C678 C 0.45734 0.73671 0.71067 0.0
C679 C 0.48546 0.71048 0.72471 0.0
C680 C 0.45777 0.76933 0.73713 0.0
C681 C 0.48684 0.77635 0.77626 0.0
H682 H 0.4365 0.73332 0.67508 0.0
H683 H 0.43827 0.79081 0.71845 0.0
S684 S 0.55848 0.71168 0.84941 0.0
N685 N 0.53674 0.68954 0.79762 0.0
N686 N 0.53772 0.75215 0.84477 0.0
C687 C 0.51119 0.7483 0.80065 0.0
C688 C 0.51075 0.71493 0.77459 0.0
C689 C 0.5172 0.15334 0.03735 0.0
C690 C 0.53708 0.17966 0.06127 0.0
C691 C 0.48862 0.16577 0.9945 0.0
C692 C 0.47613 0.20257 0.98902 0.0
H693 H 0.5294 0.12659 1.03385 0.0
H694 H 0.47779 0.14716 0.96361 0.0
S695 S 0.49744 0.2646 0.11256 0.0
N696 N 0.52807 0.23075 0.12513 0.0
N697 N 0.47164 0.25543 0.05074 0.0
C698 C 0.48714 0.22302 0.039 0.0
C699 C 0.517 0.20964 0.07964 0.0
C700 C 0.03083 0.75398 0.8726 0.0
C701 C -0.00233 0.77356 0.87284 0.0
C702 C 0.03597 0.72594 0.83319 0.0
C703 C 0.00711 0.7155 0.79762 0.0
H704 H 0.05242 0.75916 0.90511 0.0
H705 H 0.06017 0.70857 0.84083 0.0
S706 S 0.92036 0.7656 0.76113 0.0
N707 N 0.93948 0.78694 0.81765 0.0
N708 N 0.94951 0.73271 0.7459 0.0
C709 C 0.97692 0.73904 0.78621 0.0
C710 C 0.97147 0.76777 0.82564 0.0
C711 C 0.50822 0.76197 0.04905 0.0
C712 C 0.52073 0.78445 0.09442 0.0
C713 C 0.47851 0.77356 1.00881 0.0
C714 C 0.45903 0.80508 1.02207 0.0
H715 H 0.5197 0.73475 0.04777 0.0
H716 H 0.46629 0.75395 0.98199 0.0
S717 S 0.49341 0.88175 0.09469 0.0
N718 N 0.52096 0.84674 0.12109 0.0
N719 N 0.46489 0.86675 0.04365 0.0
C720 C 0.4782 0.83204 0.04482 0.0
C721 C 0.50787 0.821 0.08727 0.0
C722 C 0.45863 0.2276 0.34427 0.0
C723 C 0.48832 0.20757 0.32212 0.0
C724 C 0.46296 0.2606 0.36693 0.0
C725 C 0.49697 0.27441 0.36725 0.0
H726 H 0.43251 0.21643 0.34979 0.0
H727 H 0.43989 0.27442 0.38763 0.0
S728 S 0.58037 0.23857 0.29211 0.0
N729 N 0.55091 0.20793 0.28563 0.0
N730 N 0.5588 0.27078 0.32873 0.0
C731 C 0.52586 0.25721 0.33677 0.0
C732 C 0.52146 0.2236 0.31316 0.0
C733 C 0.00538 0.25697 0.70975 0.0
C734 C 0.02341 0.26117 0.64741 0.0
C735 C 0.96917 0.25205 0.71171 0.0
C736 C 0.95039 0.25193 0.6512 0.0
H737 H 0.01944 0.257 0.75716 0.0
H738 H 0.95566 0.24914 0.76067 0.0
S739 S 0.98643 0.26323 0.47553 0.0
N740 N 0.02149 0.26466 0.52449 0.0
N741 N 0.95187 0.25718 0.52753 0.0
C742 C 0.96832 0.25575 0.58845 0.0
C743 C 0.00547 0.2601 0.58669 0.0
C744 C 0.02028 0.00256 0.08441 0.0
C745 C 0.99157 0.02843 0.07036 0.0
C746 C 0.02278 0.97053 0.05406 0.0
C747 C -0.00323 0.96297 1.00805 0.0
H748 H 0.04125 0.00714 0.11881 0.0
H749 H 0.04526 0.95145 0.06722 0.0
S750 S 0.91589 0.02158 0.95424 0.0
N751 N 0.9362 0.04386 1.00769 0.0
N752 N 0.94115 0.98423 0.95018 0.0
C753 C 0.96793 0.98864 0.99341 0.0
C754 C 0.96524 0.02112 1.0247 0.0
C755 C 0.26028 0.7673 0.36238 0.0
C756 C 0.24723 0.73258 0.37496 0.0
C757 C 0.28458 0.77589 0.30928 0.0
C758 C 0.29664 0.75015 0.26663 0.0
H759 H 0.24934 0.78887 0.38951 0.0
H760 H 0.29291 0.80344 0.29995 0.0
S761 S 0.27595 0.65351 0.28743 0.0
N762 N 0.25222 0.67079 0.34745 0.0
N763 N 0.2977 0.68726 0.247 0.0
C764 C 0.28604 0.71463 0.28211 0.0
C765 C 0.26168 0.70572 0.33685 0.0
C766 C 0.4748 0.99325 0.50567 0.0
C767 C 0.50167 0.00569 0.45957 0.0
C768 C 0.48323 0.9723 0.56769 0.0
C769 C 0.51887 0.96265 0.58683 0.0
H770 H 0.44687 0.00059 0.49474 0.0
H771 H 0.46139 0.96273 0.60008 0.0
S772 S 0.59957 0.98742 0.48506 0.0
N773 N 0.56587 0.00581 0.43734 0.0
N774 N 0.58135 0.96667 0.5547 0.0
C775 C 0.54608 0.97418 0.54108 0.0
C776 C 0.53757 -0.00454 0.47734 0.0
C777 C 0.27224 0.26521 0.80471 0.0
C778 C 0.29015 0.23076 0.812 0.0
C779 C 0.24142 0.27266 0.76497 0.0
C780 C 0.22705 0.24596 0.7309 0.0
H781 H 0.28239 0.28689 0.82902 0.0
H782 H 0.22849 0.29955 0.76175 0.0
S783 S 0.2627 0.15065 0.73664 0.0
N784 N 0.29063 0.16925 0.78363 0.0
N785 N 0.2327 0.18317 0.70912 0.0
C786 C 0.24465 0.2113 0.73796 0.0
C787 C 0.27609 0.20371 0.77853 0.0
C788 C 0.69838 0.223 0.74405 0.0
C789 C 0.68586 0.24738 0.789 0.0
C790 C 0.72633 0.23136 0.69794 0.0
C791 C 0.74251 0.26454 0.69473 0.0
H792 H 0.68798 0.19633 0.74712 0.0
H793 H 0.73725 0.21049 0.66911 0.0
S794 S 0.71433 0.34072 0.79037 0.0
N795 N 0.68816 0.30803 0.81993 0.0
N796 N 0.73994 0.32429 0.73196 0.0
C797 C 0.72758 0.29059 0.73411 0.0
C798 C 0.69961 0.28182 0.78189 0.0
C799 C 0.74843 0.70345 0.3352 0.0
C800 C 0.7689 0.73232 0.34751 0.0
C801 C 0.71888 0.70929 0.29155 0.0
C802 C 0.70926 0.74411 0.25842 0.0
H803 H 0.75526 0.67627 0.35955 0.0
H804 H 0.70289 0.68667 0.28532 0.0
S805 S 0.7581 0.82722 0.26336 0.0
N806 N 0.78025 0.79588 0.31549 0.0
N807 N 0.72439 0.80688 0.23516 0.0
C808 C 0.73035 0.77279 0.2681 0.0
C809 C 0.7603 0.76689 0.31219 0.0
C810 C 0.46873 0.51824 0.52523 0.0
C811 C 0.49347 0.52391 0.57511 0.0
C812 C 0.47388 0.48949 0.48658 0.0
C813 C 0.50403 0.46513 0.49598 0.0
H814 H 0.4452 0.53633 0.51537 0.0
H815 H 0.45366 0.48604 0.44982 0.0
S816 S 0.57734 0.46824 0.61922 0.0
N817 N 0.54958 0.5028 0.63125 0.0
N818 N 0.55942 0.44903 0.55844 0.0
C819 C 0.52922 0.47067 0.54524 0.0
C820 C 0.52387 0.49987 0.58489 0.0
C821 C 0.00998 0.48737 0.96684 0.0
C822 C -0.00485 0.52034 0.98456 0.0
C823 C 0.01908 0.45822 1.01701 0.0
C824 C 0.0141 0.46119 0.0867 0.0
H825 H 0.01421 0.48396 0.91387 0.0
H826 H 0.02891 0.43281 1.00087 0.0
S827 S 0.9828 0.54391 0.16008 0.0
N828 N 0.98045 0.55569 0.07708 0.0
N829 N -0.00278 0.50093 0.17077 0.0
C830 C 0.00094 0.49454 0.10506 0.0
C831 C 0.99155 0.5241 0.05418 0.0
C832 C 0.13712 0.13428 0.35412 0.0
C833 C 0.11342 0.10637 0.35542 0.0
C834 C 0.14481 0.14854 0.41382 0.0
C835 C 0.12955 0.13466 0.47614 0.0
H836 H 0.14785 0.14655 0.30617 0.0
H837 H 0.16202 0.17104 0.41127 0.0
S838 S 0.06658 0.06132 0.50575 0.0
N839 N 0.07514 0.06528 0.42326 0.0
N840 N 0.09055 0.09133 0.53614 0.0
C841 C 0.10702 0.10586 0.47835 0.0
C842 C 0.09871 0.09187 0.41764 0.0
C843 C 0.10189 0.81266 0.74049 0.0
C844 C 0.09977 0.82881 0.6723 0.0
C845 C 0.08213 0.82722 0.79336 0.0
C846 C 0.05828 0.85838 0.78142 0.0
H847 H 0.11972 0.78896 0.75343 0.0
H848 H 0.08539 0.81344 0.84456 0.0
S849 S 0.04297 0.91135 0.61149 0.0
N850 N 0.07238 0.87861 0.59603 0.0
N851 N 0.03412 0.90454 0.69393 0.0
C852 C 0.05545 0.87441 0.71303 0.0
C853 C 0.07645 0.86014 0.65928 0.0
C854 C 0.33726 0.84959 0.93878 0.0
C855 C 0.34352 0.85812 1.00467 0.0
C856 C 0.35355 0.86827 0.88158 0.0
C857 C 0.37629 0.89615 0.88846 0.0
H858 H 0.32295 0.82591 0.93196 0.0
H859 H 0.35098 0.85881 0.83264 0.0
S860 S 0.39386 0.9357 0.04505 0.0
N861 N 0.36789 0.9021 0.0701 0.0
N862 N 0.39928 0.93589 0.96226 0.0
C863 C 0.37911 0.90801 0.95191 0.0
C864 C 0.36212 0.88956 1.01009 0.0
C865 C 0.42692 0.15626 0.17784 0.0
C866 C 0.43982 0.11974 0.17957 0.0
C867 C 0.40646 0.17472 0.12315 0.0
C868 C 0.39696 0.15759 0.0671 0.0
H869 H 0.43283 0.17099 0.2195 0.0
H870 H 0.39879 0.20306 0.12428 0.0
S871 S 0.42158 0.06106 0.04862 0.0
N872 N 0.44018 0.06671 0.12123 0.0
N873 N 0.40117 0.10039 1.01977 0.0
C874 C 0.4089 0.12058 0.06926 0.0
C875 C 0.43031 0.10199 0.1248 0.0
C876 C 0.83732 0.85901 0.65472 0.0
C877 C 0.86176 0.85163 0.60345 0.0
C878 C 0.8484 0.87498 0.71041 0.0
C879 C 0.88404 0.8843 0.71526 0.0
H880 H 0.81013 0.85072 0.65322 0.0
H881 H 0.82968 0.87801 0.75162 0.0
S882 S 0.95585 0.87617 0.58646 0.0
N883 N 0.92128 0.85808 0.5561 0.0
N884 N 0.94202 0.88984 0.65879 0.0
C885 C 0.9077 0.87971 0.66093 0.0
C886 C 0.89659 0.8628 0.60547 0.0
C887 C 0.87482 0.14795 0.35272 0.0
C888 C 0.88997 0.16284 0.4072 0.0
C889 C 0.89589 0.13159 0.3037 0.0
C890 C 0.93371 0.12828 0.30599 0.0
H891 H 0.84611 0.14973 0.34645 0.0
H892 H 0.88218 0.12209 0.2623 0.0
S893 S 0.98799 0.16211 0.43769 0.0
N894 N 0.94634 0.17236 0.45995 0.0
N895 N 0.98536 0.14198 0.36872 0.0
C896 C 0.9494 0.14254 0.36068 0.0
C897 C 0.92788 0.15965 0.41055 0.0
C898 C 0.66885 0.14979 0.11619 0.0
C899 C 0.65918 0.13904 0.05363 0.0
C900 C 0.65478 0.13328 0.17759 0.0
C901 C 0.63129 0.10533 0.17794 0.0
H902 H 0.68327 0.17407 0.11717 0.0
H903 H 0.65934 0.14473 0.22393 0.0
S904 S 0.60887 0.05825 1.03291 0.0
N905 N 0.63368 0.09135 0.99943 0.0
N906 N 0.60616 0.06164 0.11499 0.0
C907 C 0.62639 0.09046 0.11797 0.0
C908 C 0.64126 0.10664 0.05569 0.0
C909 C 0.56647 0.86991 0.94564 0.0
C910 C 0.57088 0.85751 0.88186 0.0
C911 C 0.58517 0.85252 1.00394 0.0
C912 C 0.60795 0.82076 1.00263 0.0
H913 H 0.54854 0.89323 0.95067 0.0
H914 H 0.58056 0.86345 0.05132 0.0
S915 S 0.62954 0.77735 0.84829 0.0
N916 N 0.60165 0.81184 0.82111 0.0
N917 N 0.63426 0.77873 0.93043 0.0
C918 C 0.61281 0.80841 0.9391 0.0
C919 C 0.5949 0.82671 0.87931 0.0
C920 C 0.5936 0.58997 0.93152 0.0
C921 C 0.60734 0.6052 0.8688 0.0
C922 C 0.60056 0.60451 0.99111 0.0
C923 C 0.62058 0.63531 0.98909 0.0
H924 H 0.57618 0.56765 0.93373 0.0
H925 H 0.58874 0.59284 0.03849 0.0
S926 S 0.6638 0.68393 0.83785 0.0
N927 N 0.64319 0.65131 0.80824 0.0
N928 N 0.65574 0.67932 0.92057 0.0
C929 C 0.63544 0.65004 0.92709 0.0
C930 C 0.62898 0.63474 0.86671 0.0
C931 C 0.59726 0.35347 0.25987 0.0
C932 C 0.56122 0.36706 0.25465 0.0
C933 C 0.61447 0.33568 0.20862 0.0
C934 C 0.59684 0.33027 0.1486 0.0
H935 H 0.61222 0.35525 0.30551 0.0
H936 H 0.64168 0.32495 0.21754 0.0
S937 S 0.50342 0.36368 0.10503 0.0
N938 N 0.50918 0.3755 0.18133 0.0
N939 N 0.54159 0.34315 0.08481 0.0
C940 C 0.5612 0.34494 0.14116 0.0
C941 C 0.54353 0.36303 0.19381 0.0
C942 C 0.85554 0.36959 0.40117 0.0
C943 C 0.88168 0.39394 0.41043 0.0
C944 C 0.84219 0.3469 0.45627 0.0
C945 C 0.85455 0.34784 0.52261 0.0
H946 H 0.84758 0.36608 0.35028 0.0
H947 H 0.824 0.32672 0.44611 0.0
S948 S 0.91906 0.41055 0.57501 0.0
N949 N 0.91652 0.4206 0.49162 0.0
N950 N 0.89103 0.37826 0.59561 0.0
C951 C 0.87785 0.37471 0.53349 0.0
C952 C 0.89157 0.39775 0.47717 0.0
C953 C 0.89789 0.64373 0.70912 0.0
C954 C 0.93169 0.62504 0.70182 0.0
C955 C 0.87846 0.66264 0.653 0.0
C956 C 0.89104 0.66304 0.5857 0.0
H957 H 0.88659 0.64492 0.75931 0.0
H958 H 0.85342 0.67715 0.66258 0.0
S959 S 0.97791 0.61953 0.53646 0.0
N960 N 0.97676 0.60955 0.62 0.0
N961 N 0.94019 0.64313 0.51547 0.0
C962 C 0.92438 0.64389 0.57737 0.0
C963 C 0.94456 0.62545 0.63468 0.0
C964 C 0.37747 0.39369 0.15366 0.0
C965 C 0.38324 0.37192 0.21599 0.0
C966 C 0.37027 0.37812 0.09502 0.0
C967 C 0.36871 0.3403 0.09719 0.0
H968 H 0.38066 0.42256 0.14963 0.0
H969 H 0.36771 0.39561 0.04715 0.0
S970 S 0.3775 0.27255 0.25139 0.0
N971 N 0.38421 0.3116 0.27852 0.0
N972 N 0.36954 0.28218 0.16919 0.0
C973 C 0.37234 0.31863 0.16051 0.0
C974 C 0.37988 0.33451 0.21973 0.0
C975 C 0.42986 0.66196 0.90634 0.0
C976 C 0.39228 0.66152 0.91517 0.0
C977 C 0.44857 0.6419 0.8594 0.0
C978 C 0.43085 0.62048 0.8179 0.0
H979 H 0.445 0.67908 0.93389 0.0
H980 H 0.47703 0.64494 0.85287 0.0
S981 S 0.33373 0.60547 0.82597 0.0
N982 N 0.33904 0.6334 0.88263 0.0
N983 N 0.37375 0.59811 0.79292 0.0
C984 C 0.39368 0.61858 0.82806 0.0
C985 C 0.37464 0.63835 0.87674 0.0
C986 C 0.15591 0.64721 0.61506 0.0
C987 C 0.1392 0.64843 0.55171 0.0
C988 C 0.14601 0.62262 0.67044 0.0
C989 C 0.11879 0.59902 0.66412 0.0
H990 H 0.17496 0.667 0.62315 0.0
H991 H 0.15695 0.62468 0.71993 0.0
S992 S 0.0715 0.58694 0.50705 0.0
N993 N 0.09816 0.62015 0.48344 0.0
N994 N 0.07897 0.57453 0.58885 0.0
C995 C 0.10463 0.59738 0.59973 0.0
C996 C 0.11501 0.62201 0.54299 0.0
C997 C 0.06732 0.36481 0.43168 0.0
C998 C 0.07441 0.3552 0.36613 0.0
C999 C 0.08644 0.34782 0.48987 0.0
C1000 C 0.11313 0.31945 0.4865 0.0
H1001 H 0.04629 0.3852 0.43849 0.0
H1002 H 0.0789 0.35597 0.53875 0.0
S1003 S 0.14231 0.28319 0.32801 0.0
N1004 N 0.11133 0.31512 0.30236 0.0
N1005 N 0.14537 0.2829 0.41099 0.0
C1006 C 0.12062 0.30971 0.42142 0.0
C1007 C 0.1019 0.32756 0.36188 0.0
loop_
_geom_bond_atom_site_label_1
_geom_bond_atom_site_label_2
_geom_bond_distance
_geom_bond_site_symmetry_2
_ccdc_geom_bond_type
Co0 N5 2.057 . S
Co0 O17 2.021 . S
Co0 O20 2.062 1_455 S
Co0 O24 2.117 . S
Co0 O25 2.020 . S
C1 O21 1.259 1_455 S
C1 O24 1.258 . S
Co2 N11 2.057 1_554 S
Co2 O18 2.117 . S
Co2 O19 2.020 . S
Co2 O21 2.021 . S
Co2 O26 2.062 1_654 S
C3 N5 1.316 . S
C3 N6 1.347 . S
C3 H8 0.931 . S
C4 N5 1.375 . S
C4 C7 1.350 . S
C4 H9 0.930 . S
N5 Co0 2.057 . S
N5 C3 1.316 . S
N5 C4 1.375 . S
N6 C3 1.347 . S
N6 C7 1.373 . S
C7 C4 1.350 . S
C7 N6 1.373 . S
C7 H28 0.931 . S
H8 C3 0.931 . S
H9 C4 0.930 . S
C10 O17 1.259 . S
C10 O18 1.258 1_455 S
N11 Co2 2.057 1_556 S
N11 C12 1.316 . S
N11 C13 1.375 . S
C12 N11 1.316 . S
C12 N14 1.347 . S
C12 H23 0.931 . S
C13 N11 1.375 . S
C13 C15 1.350 . S
C13 H22 0.930 . S
N14 C12 1.347 . S
N14 C15 1.373 . S
C15 C13 1.350 . S
C15 N14 1.373 . S
C15 H29 0.931 . S
C16 O19 1.256 . S
C16 O20 1.255 . S
O17 Co0 2.021 . S
O17 C10 1.259 . S
O18 Co2 2.117 . S
O18 C10 1.258 1_655 S
O19 Co2 2.020 . S
O19 C16 1.256 . S
O20 Co0 2.062 1_655 S
O20 C16 1.255 . S
O21 C1 1.259 1_655 S
O21 Co2 2.021 . S
H22 C13 0.930 . S
H23 C12 0.931 . S
O24 Co0 2.117 . S
O24 C1 1.258 . S
O25 Co0 2.020 . S
O25 C27 1.256 1_554 S
O26 Co2 2.062 1_456 S
O26 C27 1.255 . S
C27 O25 1.256 1_556 S
C27 O26 1.255 . S
H28 C7 0.931 . S
H29 C15 0.931 . S
Co30 N35 2.057 . S
Co30 O47 2.021 . S
Co30 O50 2.062 . S
Co30 O54 2.117 . S
Co30 O55 2.020 . S
C31 O51 1.259 . S
C31 O54 1.258 . S
Co32 N41 2.057 . S
Co32 O48 2.117 . S
Co32 O49 2.020 . S
Co32 O51 2.021 . S
Co32 O56 2.062 . S
C33 N35 1.316 . S
C33 N36 1.347 . S
C33 H38 0.931 . S
C34 N35 1.375 . S
C34 C37 1.350 . S
C34 H39 0.930 . S
N35 Co30 2.057 . S
N35 C33 1.316 . S
N35 C34 1.375 . S
N36 C33 1.347 . S
N36 C37 1.373 . S
C37 C34 1.350 . S
C37 N36 1.373 . S
C37 H58 0.931 . S
H38 C33 0.931 . S
H39 C34 0.930 . S
C40 O47 1.259 . S
C40 O48 1.258 . S
N41 Co32 2.057 . S
N41 C42 1.316 . S
N41 C43 1.375 . S
C42 N41 1.316 . S
C42 N44 1.347 . S
C42 H53 0.931 . S
C43 N41 1.375 . S
C43 C45 1.350 . S
C43 H52 0.930 . S
N44 C42 1.347 . S
N44 C45 1.373 . S
C45 C43 1.350 . S
C45 N44 1.373 . S
C45 H59 0.931 . S
C46 O49 1.256 . S
C46 O50 1.255 . S
O47 Co30 2.021 . S
O47 C40 1.259 . S
O48 Co32 2.117 . S
O48 C40 1.258 . S
O49 Co32 2.020 . S
O49 C46 1.256 . S
O50 Co30 2.062 . S
O50 C46 1.255 . S
O51 C31 1.259 . S
O51 Co32 2.021 . S
H52 C43 0.930 . S
H53 C42 0.931 . S
O54 Co30 2.117 . S
O54 C31 1.258 . S
O55 Co30 2.020 . S
O55 C57 1.256 . S
O56 Co32 2.062 . S
O56 C57 1.255 . S
C57 O55 1.256 . S
C57 O56 1.255 . S
H58 C37 0.931 . S
H59 C45 0.931 . S
Co60 N65 2.057 . S
Co60 O77 2.021 . S
Co60 O80 2.062 . S
Co60 O84 2.117 . S
Co60 O85 2.020 . S
C61 O81 1.259 . S
C61 O84 1.258 . S
Co62 N71 2.057 . S
Co62 O78 2.117 . S
Co62 O79 2.020 . S
Co62 O81 2.021 . S
Co62 O86 2.062 . S
C63 N65 1.316 . S
C63 N66 1.347 . S
C63 H68 0.931 . S
C64 N65 1.375 . S
C64 C67 1.350 . S
C64 H69 0.930 . S
N65 Co60 2.057 . S
N65 C63 1.316 . S
N65 C64 1.375 . S
N66 C63 1.347 . S
N66 C67 1.373 . S
C67 C64 1.350 . S
C67 N66 1.373 . S
C67 H88 0.931 . S
H68 C63 0.931 . S
H69 C64 0.930 . S
C70 O77 1.259 . S
C70 O78 1.258 . S
N71 Co62 2.057 . S
N71 C72 1.316 . S
N71 C73 1.375 . S
C72 N71 1.316 . S
C72 N74 1.347 . S
C72 H83 0.931 . S
C73 N71 1.375 . S
C73 C75 1.350 . S
C73 H82 0.930 . S
N74 C72 1.347 . S
N74 C75 1.373 . S
C75 C73 1.350 . S
C75 N74 1.373 . S
C75 H89 0.931 . S
C76 O79 1.256 . S
C76 O80 1.255 . S
O77 Co60 2.021 . S
O77 C70 1.259 . S
O78 Co62 2.117 . S
O78 C70 1.258 . S
O79 Co62 2.020 . S
O79 C76 1.256 . S
O80 Co60 2.062 . S
O80 C76 1.255 . S
O81 C61 1.259 . S
O81 Co62 2.021 . S
H82 C73 0.930 . S
H83 C72 0.931 . S
O84 Co60 2.117 . S
O84 C61 1.258 . S
O85 Co60 2.020 . S
O85 C87 1.256 . S
O86 Co62 2.062 . S
O86 C87 1.255 . S
C87 O85 1.256 . S
C87 O86 1.255 . S
H88 C67 0.931 . S
H89 C75 0.931 . S
Co90 N95 2.057 . S
Co90 O107 2.021 . S
Co90 O110 2.062 . S
Co90 O114 2.117 . S
Co90 O115 2.020 . S
C91 O111 1.259 . S
C91 O114 1.258 . S
Co92 N101 2.057 . S
Co92 O108 2.117 . S
Co92 O109 2.020 . S
Co92 O111 2.021 . S
Co92 O116 2.062 . S
C93 N95 1.316 . S
C93 N96 1.347 . S
C93 H98 0.931 . S
C94 N95 1.375 . S
C94 C97 1.350 . S
C94 H99 0.930 . S
N95 Co90 2.057 . S
N95 C93 1.316 . S
N95 C94 1.375 . S
N96 C93 1.347 . S
N96 C97 1.373 . S
C97 C94 1.350 . S
C97 N96 1.373 . S
C97 H118 0.931 . S
H98 C93 0.931 . S
H99 C94 0.930 . S
C100 O107 1.259 . S
C100 O108 1.258 . S
N101 Co92 2.057 . S
N101 C102 1.316 1_556 S
N101 C103 1.375 . S
C102 N101 1.316 1_554 S
C102 N104 1.347 . S
C102 H113 0.931 . S
C103 N101 1.375 . S
C103 C105 1.350 1_556 S
C103 H112 0.930 . S
N104 C102 1.347 . S
N104 C105 1.373 . S
C105 C103 1.350 1_554 S
C105 N104 1.373 . S
C105 H119 0.931 . S
C106 O109 1.256 . S
C106 O110 1.255 . S
O107 Co90 2.021 . S
O107 C100 1.259 . S
O108 Co92 2.117 . S
O108 C100 1.258 . S
O109 Co92 2.020 . S
O109 C106 1.256 . S
O110 Co90 2.062 . S
O110 C106 1.255 . S
O111 C91 1.259 . S
O111 Co92 2.021 . S
H112 C103 0.930 . S
H113 C102 0.931 . S
O114 Co90 2.117 . S
O114 C91 1.258 . S
O115 Co90 2.020 . S
O115 C117 1.256 . S
O116 Co92 2.062 . S
O116 C117 1.255 . S
C117 O115 1.256 . S
C117 O116 1.255 . S
H118 C97 0.931 . S
H119 C105 0.931 . S
Co120 N125 2.057 1_556 S
Co120 O137 2.021 . S
Co120 O140 2.062 1_456 S
Co120 O144 2.117 . S
Co120 O145 2.020 . S
C121 O141 1.259 1_455 S
C121 O144 1.258 . S
Co122 N131 2.057 . S
Co122 O138 2.117 . S
Co122 O139 2.020 . S
Co122 O141 2.021 . S
Co122 O146 2.062 1_655 S
C123 N125 1.316 . S
C123 N126 1.347 . S
C123 H128 0.931 . S
C124 N125 1.375 . S
C124 C127 1.350 . S
C124 H129 0.930 . S
N125 Co120 2.057 1_554 S
N125 C123 1.316 . S
N125 C124 1.375 . S
N126 C123 1.347 . S
N126 C127 1.373 . S
C127 C124 1.350 . S
C127 N126 1.373 . S
C127 H148 0.931 . S
H128 C123 0.931 . S
H129 C124 0.930 . S
C130 O137 1.259 . S
C130 O138 1.258 1_455 S
N131 Co122 2.057 . S
N131 C132 1.316 . S
N131 C133 1.375 . S
C132 N131 1.316 . S
C132 N134 1.347 . S
C132 H143 0.931 . S
C133 N131 1.375 . S
C133 C135 1.350 . S
C133 H142 0.930 . S
N134 C132 1.347 . S
N134 C135 1.373 . S
C135 C133 1.350 . S
C135 N134 1.373 . S
C135 H149 0.931 . S
C136 O139 1.256 1_554 S
C136 O140 1.255 . S
O137 Co120 2.021 . S
O137 C130 1.259 . S
O138 Co122 2.117 . S
O138 C130 1.258 1_655 S
O139 Co122 2.020 . S
O139 C136 1.256 1_556 S
O140 Co120 2.062 1_654 S
O140 C136 1.255 . S
O141 C121 1.259 1_655 S
O141 Co122 2.021 . S
H142 C133 0.930 . S
H143 C132 0.931 . S
O144 Co120 2.117 . S
O144 C121 1.258 . S
O145 Co120 2.020 . S
O145 C147 1.256 . S
O146 Co122 2.062 1_455 S
O146 C147 1.255 . S
C147 O145 1.256 . S
C147 O146 1.255 . S
H148 C127 0.931 . S
H149 C135 0.931 . S
Co150 N155 2.057 . S
Co150 O167 2.021 . S
Co150 O170 2.062 . S
Co150 O174 2.117 . S
Co150 O175 2.020 . S
C151 O171 1.259 . S
C151 O174 1.258 . S
Co152 N161 2.057 . S
Co152 O168 2.117 . S
Co152 O169 2.020 . S
Co152 O171 2.021 . S
Co152 O176 2.062 . S
C153 N155 1.316 . S
C153 N156 1.347 . S
C153 H158 0.931 . S
C154 N155 1.375 . S
C154 C157 1.350 . S
C154 H159 0.930 . S
N155 Co150 2.057 . S
N155 C153 1.316 . S
N155 C154 1.375 . S
N156 C153 1.347 . S
N156 C157 1.373 . S
C157 C154 1.350 . S
C157 N156 1.373 . S
C157 H178 0.931 . S
H158 C153 0.931 . S
H159 C154 0.930 . S
C160 O167 1.259 . S
C160 O168 1.258 . S
N161 Co152 2.057 . S
N161 C162 1.316 1_554 S
N161 C163 1.375 . S
C162 N161 1.316 1_556 S
C162 N164 1.347 . S
C162 H173 0.931 . S
C163 N161 1.375 . S
C163 C165 1.350 1_554 S
C163 H172 0.930 . S
N164 C162 1.347 . S
N164 C165 1.373 . S
C165 C163 1.350 1_556 S
C165 N164 1.373 . S
C165 H179 0.931 . S
C166 O169 1.256 . S
C166 O170 1.255 . S
O167 Co150 2.021 . S
O167 C160 1.259 . S
O168 Co152 2.117 . S
O168 C160 1.258 . S
O169 Co152 2.020 . S
O169 C166 1.256 . S
O170 Co150 2.062 . S
O170 C166 1.255 . S
O171 C151 1.259 . S
O171 Co152 2.021 . S
H172 C163 0.930 . S
H173 C162 0.931 . S
O174 Co150 2.117 . S
O174 C151 1.258 . S
O175 Co150 2.020 . S
O175 C177 1.256 . S
O176 Co152 2.062 . S
O176 C177 1.255 . S
C177 O175 1.256 . S
C177 O176 1.255 . S
H178 C157 0.931 . S
H179 C165 0.931 . S
Co180 N185 2.057 . S
Co180 O197 2.021 . S
Co180 O200 2.062 . S
Co180 O204 2.117 . S
Co180 O205 2.020 . S
C181 O201 1.259 . S
C181 O204 1.258 . S
Co182 N191 2.057 . S
Co182 O198 2.117 . S
Co182 O199 2.020 . S
Co182 O201 2.021 . S
Co182 O206 2.062 . S
C183 N185 1.316 . S
C183 N186 1.347 . S
C183 H188 0.931 . S
C184 N185 1.375 . S
C184 C187 1.350 . S
C184 H189 0.930 . S
N185 Co180 2.057 . S
N185 C183 1.316 . S
N185 C184 1.375 . S
N186 C183 1.347 . S
N186 C187 1.373 . S
C187 C184 1.350 . S
C187 N186 1.373 . S
C187 H208 0.931 . S
H188 C183 0.931 . S
H189 C184 0.930 . S
C190 O197 1.259 . S
C190 O198 1.258 . S
N191 Co182 2.057 . S
N191 C192 1.316 . S
N191 C193 1.375 . S
C192 N191 1.316 . S
C192 N194 1.347 . S
C192 H203 0.931 . S
C193 N191 1.375 . S
C193 C195 1.350 . S
C193 H202 0.930 . S
N194 C192 1.347 . S
N194 C195 1.373 . S
C195 C193 1.350 . S
C195 N194 1.373 . S
C195 H209 0.931 . S
C196 O199 1.256 . S
C196 O200 1.255 . S
O197 Co180 2.021 . S
O197 C190 1.259 . S
O198 Co182 2.117 . S
O198 C190 1.258 . S
O199 Co182 2.020 . S
O199 C196 1.256 . S
O200 Co180 2.062 . S
O200 C196 1.255 . S
O201 C181 1.259 . S
O201 Co182 2.021 . S
H202 C193 0.930 . S
H203 C192 0.931 . S
O204 Co180 2.117 . S
O204 C181 1.258 . S
O205 Co180 2.020 . S
O205 C207 1.256 . S
O206 Co182 2.062 . S
O206 C207 1.255 . S
C207 O205 1.256 . S
C207 O206 1.255 . S
H208 C187 0.931 . S
H209 C195 0.931 . S
Co210 N215 2.057 . S
Co210 O227 2.021 . S
Co210 O230 2.062 . S
Co210 O234 2.117 . S
Co210 O235 2.020 . S
C211 O231 1.259 . S
C211 O234 1.258 . S
Co212 N221 2.057 . S
Co212 O228 2.117 . S
Co212 O229 2.020 . S
Co212 O231 2.021 . S
Co212 O236 2.062 . S
C213 N215 1.316 . S
C213 N216 1.347 . S
C213 H218 0.931 . S
C214 N215 1.375 . S
C214 C217 1.350 . S
C214 H219 0.930 . S
N215 Co210 2.057 . S
N215 C213 1.316 . S
N215 C214 1.375 . S
N216 C213 1.347 . S
N216 C217 1.373 . S
C217 C214 1.350 . S
C217 N216 1.373 . S
C217 H238 0.931 . S
H218 C213 0.931 . S
H219 C214 0.930 . S
C220 O227 1.259 . S
C220 O228 1.258 . S
N221 Co212 2.057 . S
N221 C222 1.316 . S
N221 C223 1.375 . S
C222 N221 1.316 . S
C222 N224 1.347 . S
C222 H233 0.931 . S
C223 N221 1.375 . S
C223 C225 1.350 . S
C223 H232 0.930 . S
N224 C222 1.347 . S
N224 C225 1.373 . S
C225 C223 1.350 . S
C225 N224 1.373 . S
C225 H239 0.931 . S
C226 O229 1.256 . S
C226 O230 1.255 . S
O227 Co210 2.021 . S
O227 C220 1.259 . S
O228 Co212 2.117 . S
O228 C220 1.258 . S
O229 Co212 2.020 . S
O229 C226 1.256 . S
O230 Co210 2.062 . S
O230 C226 1.255 . S
O231 C211 1.259 . S
O231 Co212 2.021 . S
H232 C223 0.930 . S
H233 C222 0.931 . S
O234 Co210 2.117 . S
O234 C211 1.258 . S
O235 Co210 2.020 . S
O235 C237 1.256 . S
O236 Co212 2.062 . S
O236 C237 1.255 . S
C237 O235 1.256 . S
C237 O236 1.255 . S
H238 C217 0.931 . S
H239 C225 0.931 . S
Co240 N245 2.057 . S
Co240 O257 2.021 . S
Co240 O260 2.062 . S
Co240 O264 2.117 . S
Co240 O265 2.020 . S
C241 O261 1.259 . S
C241 O264 1.258 . S
Co242 N251 2.057 . S
Co242 O258 2.117 . S
Co242 O259 2.020 . S
Co242 O261 2.021 . S
Co242 O266 2.062 . S
C243 N245 1.316 . S
C243 N246 1.347 . S
C243 H248 0.931 . S
C244 N245 1.375 . S
C244 C247 1.350 . S
C244 H249 0.930 . S
N245 Co240 2.057 . S
N245 C243 1.316 . S
N245 C244 1.375 . S
N246 C243 1.347 . S
N246 C247 1.373 . S
C247 C244 1.350 . S
C247 N246 1.373 . S
C247 H268 0.931 . S
H248 C243 0.931 . S
H249 C244 0.930 . S
C250 O257 1.259 . S
C250 O258 1.258 . S
N251 Co242 2.057 . S
N251 C252 1.316 . S
N251 C253 1.375 . S
C252 N251 1.316 . S
C252 N254 1.347 . S
C252 H263 0.931 . S
C253 N251 1.375 . S
C253 C255 1.350 . S
C253 H262 0.930 . S
N254 C252 1.347 . S
N254 C255 1.373 . S
C255 C253 1.350 . S
C255 N254 1.373 . S
C255 H269 0.931 . S
C256 O259 1.256 . S
C256 O260 1.255 . S
O257 Co240 2.021 . S
O257 C250 1.259 . S
O258 Co242 2.117 . S
O258 C250 1.258 . S
O259 Co242 2.020 . S
O259 C256 1.256 . S
O260 Co240 2.062 . S
O260 C256 1.255 . S
O261 C241 1.259 . S
O261 Co242 2.021 . S
H262 C253 0.930 . S
H263 C252 0.931 . S
O264 Co240 2.117 . S
O264 C241 1.258 . S
O265 Co240 2.020 . S
O265 C267 1.256 . S
O266 Co242 2.062 . S
O266 C267 1.255 . S
C267 O265 1.256 . S
C267 O266 1.255 . S
H268 C247 0.931 . S
H269 C255 0.931 . S
Co270 N275 2.057 . S
Co270 O287 2.021 . S
Co270 O290 2.062 . S
Co270 O294 2.117 . S
Co270 O295 2.020 . S
C271 O291 1.259 . S
C271 O294 1.258 . S
Co272 N281 2.057 . S
Co272 O288 2.117 . S
Co272 O289 2.020 . S
Co272 O291 2.021 . S
Co272 O296 2.062 . S
C273 N275 1.316 1_556 S
C273 N276 1.347 . S
C273 H278 0.931 . S
C274 N275 1.375 . S
C274 C277 1.350 1_554 S
C274 H279 0.930 . S
N275 Co270 2.057 . S
N275 C273 1.316 1_554 S
N275 C274 1.375 . S
N276 C273 1.347 . S
N276 C277 1.373 . S
C277 C274 1.350 1_556 S
C277 N276 1.373 . S
C277 H298 0.931 . S
H278 C273 0.931 . S
H279 C274 0.930 . S
C280 O287 1.259 . S
C280 O288 1.258 . S
N281 Co272 2.057 . S
N281 C282 1.316 . S
N281 C283 1.375 . S
C282 N281 1.316 . S
C282 N284 1.347 . S
C282 H293 0.931 . S
C283 N281 1.375 . S
C283 C285 1.350 . S
C283 H292 0.930 . S
N284 C282 1.347 . S
N284 C285 1.373 . S
C285 C283 1.350 . S
C285 N284 1.373 . S
C285 H299 0.931 . S
C286 O289 1.256 . S
C286 O290 1.255 . S
O287 Co270 2.021 . S
O287 C280 1.259 . S
O288 Co272 2.117 . S
O288 C280 1.258 . S
O289 Co272 2.020 . S
O289 C286 1.256 . S
O290 Co270 2.062 . S
O290 C286 1.255 . S
O291 C271 1.259 . S
O291 Co272 2.021 . S
H292 C283 0.930 . S
H293 C282 0.931 . S
O294 Co270 2.117 . S
O294 C271 1.258 . S
O295 Co270 2.020 . S
O295 C297 1.256 . S
O296 Co272 2.062 . S
O296 C297 1.255 . S
C297 O295 1.256 . S
C297 O296 1.255 . S
H298 C277 0.931 . S
H299 C285 0.931 . S
Co300 N305 2.057 . S
Co300 O317 2.021 . S
Co300 O320 2.062 . S
Co300 O324 2.117 . S
Co300 O325 2.020 . S
C301 O321 1.259 . S
C301 O324 1.258 . S
Co302 N311 2.057 . S
Co302 O318 2.117 . S
Co302 O319 2.020 . S
Co302 O321 2.021 . S
Co302 O326 2.062 . S
C303 N305 1.316 1_554 S
C303 N306 1.347 . S
C303 H308 0.931 . S
C304 N305 1.375 . S
C304 C307 1.350 1_556 S
C304 H309 0.930 . S
N305 Co300 2.057 . S
N305 C303 1.316 1_556 S
N305 C304 1.375 . S
N306 C303 1.347 . S
N306 C307 1.373 . S
C307 C304 1.350 1_554 S
C307 N306 1.373 . S
C307 H328 0.931 . S
H308 C303 0.931 . S
H309 C304 0.930 . S
C310 O317 1.259 . S
C310 O318 1.258 . S
N311 Co302 2.057 . S
N311 C312 1.316 . S
N311 C313 1.375 . S
C312 N311 1.316 . S
C312 N314 1.347 . S
C312 H323 0.931 . S
C313 N311 1.375 . S
C313 C315 1.350 . S
C313 H322 0.930 . S
N314 C312 1.347 . S
N314 C315 1.373 . S
C315 C313 1.350 . S
C315 N314 1.373 . S
C315 H329 0.931 . S
C316 O319 1.256 . S
C316 O320 1.255 . S
O317 Co300 2.021 . S
O317 C310 1.259 . S
O318 Co302 2.117 . S
O318 C310 1.258 . S
O319 Co302 2.020 . S
O319 C316 1.256 . S
O320 Co300 2.062 . S
O320 C316 1.255 . S
O321 C301 1.259 . S
O321 Co302 2.021 . S
H322 C313 0.930 . S
H323 C312 0.931 . S
O324 Co300 2.117 . S
O324 C301 1.258 . S
O325 Co300 2.020 . S
O325 C327 1.256 . S
O326 Co302 2.062 . S
O326 C327 1.255 . S
C327 O325 1.256 . S
C327 O326 1.255 . S
H328 C307 0.931 . S
H329 C315 0.931 . S
Co330 N335 2.057 . S
Co330 O347 2.021 . S
Co330 O350 2.062 . S
Co330 O354 2.117 . S
Co330 O355 2.020 . S
C331 O351 1.259 . S
C331 O354 1.258 . S
Co332 N341 2.057 . S
Co332 O348 2.117 . S
Co332 O349 2.020 . S
Co332 O351 2.021 . S
Co332 O356 2.062 . S
C333 N335 1.316 . S
C333 N336 1.347 . S
C333 H338 0.931 . S
C334 N335 1.375 . S
C334 C337 1.350 . S
C334 H339 0.930 . S
N335 Co330 2.057 . S
N335 C333 1.316 . S
N335 C334 1.375 . S
N336 C333 1.347 . S
N336 C337 1.373 . S
C337 C334 1.350 . S
C337 N336 1.373 . S
C337 H358 0.931 . S
H338 C333 0.931 . S
H339 C334 0.930 . S
C340 O347 1.259 . S
C340 O348 1.258 . S
N341 Co332 2.057 . S
N341 C342 1.316 . S
N341 C343 1.375 . S
C342 N341 1.316 . S
C342 N344 1.347 . S
C342 H353 0.931 . S
C343 N341 1.375 . S
C343 C345 1.350 . S
C343 H352 0.930 . S
N344 C342 1.347 . S
N344 C345 1.373 . S
C345 C343 1.350 . S
C345 N344 1.373 . S
C345 H359 0.931 . S
C346 O349 1.256 . S
C346 O350 1.255 . S
O347 Co330 2.021 . S
O347 C340 1.259 . S
O348 Co332 2.117 . S
O348 C340 1.258 . S
O349 Co332 2.020 . S
O349 C346 1.256 . S
O350 Co330 2.062 . S
O350 C346 1.255 . S
O351 C331 1.259 . S
O351 Co332 2.021 . S
H352 C343 0.930 . S
H353 C342 0.931 . S
O354 Co330 2.117 . S
O354 C331 1.258 . S
O355 Co330 2.020 . S
O355 C357 1.256 . S
O356 Co332 2.062 . S
O356 C357 1.255 . S
C357 O355 1.256 . S
C357 O356 1.255 . S
H358 C337 0.931 . S
H359 C345 0.931 . S
Co360 N365 2.057 . S
Co360 O377 2.021 . S
Co360 O380 2.062 . S
Co360 O384 2.117 . S
Co360 O385 2.020 . S
C361 O381 1.259 . S
C361 O384 1.258 . S
Co362 N371 2.057 . S
Co362 O378 2.117 . S
Co362 O379 2.020 . S
Co362 O381 2.021 . S
Co362 O386 2.062 . S
C363 N365 1.316 . S
C363 N366 1.347 . S
C363 H368 0.931 . S
C364 N365 1.375 . S
C364 C367 1.350 . S
C364 H369 0.930 . S
N365 Co360 2.057 . S
N365 C363 1.316 . S
N365 C364 1.375 . S
N366 C363 1.347 . S
N366 C367 1.373 . S
C367 C364 1.350 . S
C367 N366 1.373 . S
C367 H388 0.931 . S
H368 C363 0.931 . S
H369 C364 0.930 . S
C370 O377 1.259 . S
C370 O378 1.258 . S
N371 Co362 2.057 . S
N371 C372 1.316 . S
N371 C373 1.375 . S
C372 N371 1.316 . S
C372 N374 1.347 . S
C372 H383 0.931 . S
C373 N371 1.375 . S
C373 C375 1.350 . S
C373 H382 0.930 . S
N374 C372 1.347 . S
N374 C375 1.373 . S
C375 C373 1.350 . S
C375 N374 1.373 . S
C375 H389 0.931 . S
C376 O379 1.256 . S
C376 O380 1.255 . S
O377 Co360 2.021 . S
O377 C370 1.259 . S
O378 Co362 2.117 . S
O378 C370 1.258 . S
O379 Co362 2.020 . S
O379 C376 1.256 . S
O380 Co360 2.062 . S
O380 C376 1.255 . S
O381 C361 1.259 . S
O381 Co362 2.021 . S
H382 C373 0.930 . S
H383 C372 0.931 . S
O384 Co360 2.117 . S
O384 C361 1.258 . S
O385 Co360 2.020 . S
O385 C387 1.256 . S
O386 Co362 2.062 . S
O386 C387 1.255 . S
C387 O385 1.256 . S
C387 O386 1.255 . S
H388 C367 0.931 . S
H389 C375 0.931 . S
Co390 N395 2.057 . S
Co390 O407 2.021 . S
Co390 O410 2.062 1_655 S
Co390 O414 2.117 . S
Co390 O415 2.020 . S
C391 O411 1.259 . S
C391 O414 1.258 1_455 S
Co392 N401 2.057 . S
Co392 O408 2.117 . S
Co392 O409 2.020 . S
Co392 O411 2.021 . S
Co392 O416 2.062 1_455 S
C393 N395 1.316 . S
C393 N396 1.347 . S
C393 H398 0.931 . S
C394 N395 1.375 . S
C394 C397 1.350 . S
C394 H399 0.930 . S
N395 Co390 2.057 . S
N395 C393 1.316 . S
N395 C394 1.375 . S
N396 C393 1.347 . S
N396 C397 1.373 . S
C397 C394 1.350 . S
C397 N396 1.373 . S
C397 H418 0.931 . S
H398 C393 0.931 . S
H399 C394 0.930 . S
C400 O407 1.259 . S
C400 O408 1.258 1_655 S
N401 Co392 2.057 . S
N401 C402 1.316 1_554 S
N401 C403 1.375 . S
C402 N401 1.316 1_556 S
C402 N404 1.347 . S
C402 H413 0.931 . S
C403 N401 1.375 . S
C403 C405 1.350 1_554 S
C403 H412 0.930 . S
N404 C402 1.347 . S
N404 C405 1.373 . S
C405 C403 1.350 1_556 S
C405 N404 1.373 . S
C405 H419 0.931 . S
C406 O409 1.256 . S
C406 O410 1.255 . S
O407 Co390 2.021 . S
O407 C400 1.259 . S
O408 Co392 2.117 . S
O408 C400 1.258 1_455 S
O409 Co392 2.020 . S
O409 C406 1.256 . S
O410 Co390 2.062 1_455 S
O410 C406 1.255 . S
O411 C391 1.259 . S
O411 Co392 2.021 . S
H412 C403 0.930 . S
H413 C402 0.931 . S
O414 Co390 2.117 . S
O414 C391 1.258 1_655 S
O415 Co390 2.020 . S
O415 C417 1.256 . S
O416 Co392 2.062 1_655 S
O416 C417 1.255 . S
C417 O415 1.256 . S
C417 O416 1.255 . S
H418 C397 0.931 . S
H419 C405 0.931 . S
Co420 N425 2.057 . S
Co420 O437 2.021 . S
Co420 O440 2.062 . S
Co420 O444 2.117 . S
Co420 O445 2.020 . S
C421 O441 1.259 . S
C421 O444 1.258 . S
Co422 N431 2.057 . S
Co422 O438 2.117 . S
Co422 O439 2.020 . S
Co422 O441 2.021 . S
Co422 O446 2.062 . S
C423 N425 1.316 . S
C423 N426 1.347 . S
C423 H428 0.931 . S
C424 N425 1.375 . S
C424 C427 1.350 . S
C424 H429 0.930 . S
N425 Co420 2.057 . S
N425 C423 1.316 . S
N425 C424 1.375 . S
N426 C423 1.347 . S
N426 C427 1.373 . S
C427 C424 1.350 . S
C427 N426 1.373 . S
C427 H448 0.931 . S
H428 C423 0.931 . S
H429 C424 0.930 . S
C430 O437 1.259 . S
C430 O438 1.258 . S
N431 Co422 2.057 . S
N431 C432 1.316 . S
N431 C433 1.375 . S
C432 N431 1.316 . S
C432 N434 1.347 . S
C432 H443 0.931 . S
C433 N431 1.375 . S
C433 C435 1.350 . S
C433 H442 0.930 . S
N434 C432 1.347 . S
N434 C435 1.373 . S
C435 C433 1.350 . S
C435 N434 1.373 . S
C435 H449 0.931 . S
C436 O439 1.256 . S
C436 O440 1.255 . S
O437 Co420 2.021 . S
O437 C430 1.259 . S
O438 Co422 2.117 . S
O438 C430 1.258 . S
O439 Co422 2.020 . S
O439 C436 1.256 . S
O440 Co420 2.062 . S
O440 C436 1.255 . S
O441 C421 1.259 . S
O441 Co422 2.021 . S
H442 C433 0.930 . S
H443 C432 0.931 . S
O444 Co420 2.117 . S
O444 C421 1.258 . S
O445 Co420 2.020 . S
O445 C447 1.256 . S
O446 Co422 2.062 . S
O446 C447 1.255 . S
C447 O445 1.256 . S
C447 O446 1.255 . S
H448 C427 0.931 . S
H449 C435 0.931 . S
Co450 N455 2.057 . S
Co450 O467 2.021 . S
Co450 O470 2.062 1_655 S
Co450 O474 2.117 . S
Co450 O475 2.020 . S
C451 O471 1.259 . S
C451 O474 1.258 1_455 S
Co452 N461 2.057 . S
Co452 O468 2.117 . S
Co452 O469 2.020 . S
Co452 O471 2.021 . S
Co452 O476 2.062 1_455 S
C453 N455 1.316 1_554 S
C453 N456 1.347 . S
C453 H458 0.931 . S
C454 N455 1.375 . S
C454 C457 1.350 1_556 S
C454 H459 0.930 . S
N455 Co450 2.057 . S
N455 C453 1.316 1_556 S
N455 C454 1.375 . S
N456 C453 1.347 . S
N456 C457 1.373 . S
C457 C454 1.350 1_554 S
C457 N456 1.373 . S
C457 H478 0.931 . S
H458 C453 0.931 . S
H459 C454 0.930 . S
C460 O467 1.259 1_455 S
C460 O468 1.258 . S
N461 Co452 2.057 . S
N461 C462 1.316 . S
N461 C463 1.375 . S
C462 N461 1.316 . S
C462 N464 1.347 . S
C462 H473 0.931 . S
C463 N461 1.375 . S
C463 C465 1.350 . S
C463 H472 0.930 . S
N464 C462 1.347 . S
N464 C465 1.373 . S
C465 C463 1.350 . S
C465 N464 1.373 . S
C465 H479 0.931 . S
C466 O469 1.256 . S
C466 O470 1.255 . S
O467 Co450 2.021 . S
O467 C460 1.259 1_655 S
O468 Co452 2.117 . S
O468 C460 1.258 . S
O469 Co452 2.020 . S
O469 C466 1.256 . S
O470 Co450 2.062 1_455 S
O470 C466 1.255 . S
O471 C451 1.259 . S
O471 Co452 2.021 . S
H472 C463 0.930 . S
H473 C462 0.931 . S
O474 Co450 2.117 . S
O474 C451 1.258 1_655 S
O475 Co450 2.020 . S
O475 C477 1.256 . S
O476 Co452 2.062 1_655 S
O476 C477 1.255 . S
C477 O475 1.256 . S
C477 O476 1.255 . S
H478 C457 0.931 . S
H479 C465 0.931 . S
C480 C481 1.369 . S
C480 C482 1.419 . S
C480 H484 0.930 . S
C481 C480 1.369 . S
C481 C490 1.429 . S
C482 C480 1.419 . S
C482 C483 1.363 . S
C482 H485 0.929 . S
C483 C482 1.363 . S
C483 C489 1.428 . S
H484 C480 0.930 . S
H485 C482 0.929 . S
S486 N487 1.613 . S
S486 N488 1.610 . S
N487 S486 1.613 . S
N487 C490 1.350 . S
N488 S486 1.610 . S
N488 C489 1.351 . S
C489 C483 1.428 . S
C489 N488 1.351 . S
C489 C490 1.434 . S
C490 C481 1.429 . S
C490 N487 1.350 . S
C490 C489 1.434 . S
C491 C492 1.369 . S
C491 C493 1.419 . S
C491 H495 0.930 . S
C492 C491 1.369 . S
C492 C501 1.429 . S
C493 C491 1.419 . S
C493 C494 1.363 . S
C493 H496 0.929 . S
C494 C493 1.363 . S
C494 C500 1.428 . S
H495 C491 0.930 . S
H496 C493 0.929 . S
S497 N498 1.613 . S
S497 N499 1.610 . S
N498 S497 1.613 . S
N498 C501 1.350 . S
N499 S497 1.610 . S
N499 C500 1.351 . S
C500 C494 1.428 . S
C500 N499 1.351 . S
C500 C501 1.434 . S
C501 C492 1.429 . S
C501 N498 1.350 . S
C501 C500 1.434 . S
C502 C503 1.369 . S
C502 C504 1.419 . S
C502 H506 0.930 . S
C503 C502 1.369 . S
C503 C512 1.429 . S
C504 C502 1.419 . S
C504 C505 1.363 . S
C504 H507 0.929 . S
C505 C504 1.363 . S
C505 C511 1.428 . S
H506 C502 0.930 . S
H507 C504 0.929 . S
S508 N509 1.613 . S
S508 N510 1.610 . S
N509 S508 1.613 . S
N509 C512 1.350 . S
N510 S508 1.610 . S
N510 C511 1.351 . S
C511 C505 1.428 . S
C511 N510 1.351 . S
C511 C512 1.434 . S
C512 C503 1.429 . S
C512 N509 1.350 . S
C512 C511 1.434 . S
C513 C514 1.369 . S
C513 C515 1.419 . S
C513 H517 0.930 . S
C514 C513 1.369 . S
C514 C523 1.429 . S
C515 C513 1.419 . S
C515 C516 1.363 . S
C515 H518 0.929 . S
C516 C515 1.363 . S
C516 C522 1.428 . S
H517 C513 0.930 . S
H518 C515 0.929 . S
S519 N520 1.613 . S
S519 N521 1.610 . S
N520 S519 1.613 . S
N520 C523 1.350 . S
N521 S519 1.610 . S
N521 C522 1.351 . S
C522 C516 1.428 . S
C522 N521 1.351 . S
C522 C523 1.434 . S
C523 C514 1.429 . S
C523 N520 1.350 . S
C523 C522 1.434 . S
C524 C525 1.369 . S
C524 C526 1.419 . S
C524 H528 0.930 . S
C525 C524 1.369 . S
C525 C534 1.429 . S
C526 C524 1.419 . S
C526 C527 1.363 . S
C526 H529 0.929 . S
C527 C526 1.363 . S
C527 C533 1.428 . S
H528 C524 0.930 . S
H529 C526 0.929 . S
S530 N531 1.613 . S
S530 N532 1.610 . S
N531 S530 1.613 . S
N531 C534 1.350 . S
N532 S530 1.610 . S
N532 C533 1.351 . S
C533 C527 1.428 . S
C533 N532 1.351 . S
C533 C534 1.434 . S
C534 C525 1.429 . S
C534 N531 1.350 . S
C534 C533 1.434 . S
C535 C536 1.369 . S
C535 C537 1.419 . S
C535 H539 0.930 . S
C536 C535 1.369 . S
C536 C545 1.429 . S
C537 C535 1.419 . S
C537 C538 1.363 . S
C537 H540 0.929 . S
C538 C537 1.363 . S
C538 C544 1.428 . S
H539 C535 0.930 . S
H540 C537 0.929 . S
S541 N542 1.613 . S
S541 N543 1.610 . S
N542 S541 1.613 . S
N542 C545 1.350 . S
N543 S541 1.610 . S
N543 C544 1.351 . S
C544 C538 1.428 . S
C544 N543 1.351 . S
C544 C545 1.434 . S
C545 C536 1.429 . S
C545 N542 1.350 . S
C545 C544 1.434 . S
C546 C547 1.369 . S
C546 C548 1.419 . S
C546 H550 0.930 . S
C547 C546 1.369 . S
C547 C556 1.429 . S
C548 C546 1.419 . S
C548 C549 1.363 . S
C548 H551 0.929 . S
C549 C548 1.363 . S
C549 C555 1.428 . S
H550 C546 0.930 . S
H551 C548 0.929 . S
S552 N553 1.613 . S
S552 N554 1.610 . S
N553 S552 1.613 . S
N553 C556 1.350 . S
N554 S552 1.610 . S
N554 C555 1.351 . S
C555 C549 1.428 . S
C555 N554 1.351 . S
C555 C556 1.434 . S
C556 C547 1.429 . S
C556 N553 1.350 . S
C556 C555 1.434 . S
C557 C558 1.369 . S
C557 C559 1.419 . S
C557 H561 0.930 . S
C558 C557 1.369 . S
C558 C567 1.429 . S
C559 C557 1.419 . S
C559 C560 1.363 . S
C559 H562 0.929 . S
C560 C559 1.363 . S
C560 C566 1.428 . S
H561 C557 0.930 . S
H562 C559 0.929 . S
S563 N564 1.613 . S
S563 N565 1.610 . S
N564 S563 1.613 . S
N564 C567 1.350 . S
N565 S563 1.610 . S
N565 C566 1.351 . S
C566 C560 1.428 . S
C566 N565 1.351 . S
C566 C567 1.434 . S
C567 C558 1.429 . S
C567 N564 1.350 . S
C567 C566 1.434 . S
C568 C569 1.369 . S
C568 C570 1.419 . S
C568 H572 0.930 . S
C569 C568 1.369 . S
C569 C578 1.429 . S
C570 C568 1.419 . S
C570 C571 1.363 . S
C570 H573 0.929 . S
C571 C570 1.363 . S
C571 C577 1.428 . S
H572 C568 0.930 . S
H573 C570 0.929 . S
S574 N575 1.613 . S
S574 N576 1.610 . S
N575 S574 1.613 . S
N575 C578 1.350 . S
N576 S574 1.610 . S
N576 C577 1.351 . S
C577 C571 1.428 . S
C577 N576 1.351 . S
C577 C578 1.434 . S
C578 C569 1.429 . S
C578 N575 1.350 . S
C578 C577 1.434 . S
C579 C580 1.369 . S
C579 C581 1.419 . S
C579 H583 0.930 . S
C580 C579 1.369 . S
C580 C589 1.429 . S
C581 C579 1.419 . S
C581 C582 1.363 . S
C581 H584 0.929 . S
C582 C581 1.363 . S
C582 C588 1.428 . S
H583 C579 0.930 . S
H584 C581 0.929 . S
S585 N586 1.613 . S
S585 N587 1.610 . S
N586 S585 1.613 . S
N586 C589 1.350 . S
N587 S585 1.610 . S
N587 C588 1.351 . S
C588 C582 1.428 . S
C588 N587 1.351 . S
C588 C589 1.434 . S
C589 C580 1.429 . S
C589 N586 1.350 . S
C589 C588 1.434 . S
C590 C591 1.369 . S
C590 C592 1.419 . S
C590 H594 0.930 1_556 S
C591 C590 1.369 . S
C591 C600 1.429 . S
C592 C590 1.419 . S
C592 C593 1.363 . S
C592 H595 0.929 . S
C593 C592 1.363 . S
C593 C599 1.428 . S
H594 C590 0.930 1_554 S
H595 C592 0.929 . S
S596 N597 1.613 . S
S596 N598 1.610 . S
N597 S596 1.613 . S
N597 C600 1.350 . S
N598 S596 1.610 . S
N598 C599 1.351 . S
C599 C593 1.428 . S
C599 N598 1.351 . S
C599 C600 1.434 . S
C600 C591 1.429 . S
C600 N597 1.350 . S
C600 C599 1.434 . S
C601 C602 1.369 . S
C601 C603 1.419 . S
C601 H605 0.930 . S
C602 C601 1.369 . S
C602 C611 1.429 . S
C603 C601 1.419 . S
C603 C604 1.363 . S
C603 H606 0.929 . S
C604 C603 1.363 . S
C604 C610 1.428 . S
H605 C601 0.930 . S
H606 C603 0.929 . S
S607 N608 1.613 . S
S607 N609 1.610 . S
N608 S607 1.613 . S
N608 C611 1.350 . S
N609 S607 1.610 . S
N609 C610 1.351 . S
C610 C604 1.428 . S
C610 N609 1.351 . S
C610 C611 1.434 . S
C611 C602 1.429 . S
C611 N608 1.350 . S
C611 C610 1.434 . S
C612 C613 1.369 . S
C612 C614 1.419 . S
C612 H616 0.930 . S
C613 C612 1.369 . S
C613 C622 1.429 . S
C614 C612 1.419 . S
C614 C615 1.363 . S
C614 H617 0.929 . S
C615 C614 1.363 . S
C615 C621 1.428 . S
H616 C612 0.930 . S
H617 C614 0.929 . S
S618 N619 1.613 . S
S618 N620 1.610 . S
N619 S618 1.613 . S
N619 C622 1.350 . S
N620 S618 1.610 . S
N620 C621 1.351 . S
C621 C615 1.428 . S
C621 N620 1.351 . S
C621 C622 1.434 . S
C622 C613 1.429 . S
C622 N619 1.350 . S
C622 C621 1.434 . S
C623 C624 1.369 . S
C623 C625 1.419 . S
C623 H627 0.930 . S
C624 C623 1.369 . S
C624 C633 1.429 . S
C625 C623 1.419 . S
C625 C626 1.363 . S
C625 H628 0.929 . S
C626 C625 1.363 . S
C626 C632 1.428 . S
H627 C623 0.930 . S
H628 C625 0.929 . S
S629 N630 1.613 . S
S629 N631 1.610 . S
N630 S629 1.613 . S
N630 C633 1.350 . S
N631 S629 1.610 . S
N631 C632 1.351 . S
C632 C626 1.428 . S
C632 N631 1.351 . S
C632 C633 1.434 . S
C633 C624 1.429 . S
C633 N630 1.350 . S
C633 C632 1.434 . S
C634 C635 1.369 . S
C634 C636 1.419 . S
C634 H638 0.930 . S
C635 C634 1.369 . S
C635 C644 1.429 . S
C636 C634 1.419 . S
C636 C637 1.363 . S
C636 H639 0.929 . S
C637 C636 1.363 . S
C637 C643 1.428 . S
H638 C634 0.930 . S
H639 C636 0.929 . S
S640 N641 1.613 . S
S640 N642 1.610 . S
N641 S640 1.613 . S
N641 C644 1.350 . S
N642 S640 1.610 . S
N642 C643 1.351 . S
C643 C637 1.428 . S
C643 N642 1.351 . S
C643 C644 1.434 . S
C644 C635 1.429 . S
C644 N641 1.350 . S
C644 C643 1.434 . S
C645 C646 1.369 . S
C645 C647 1.419 . S
C645 H649 0.930 . S
C646 C645 1.369 . S
C646 C655 1.429 . S
C647 C645 1.419 . S
C647 C648 1.363 . S
C647 H650 0.929 . S
C648 C647 1.363 . S
C648 C654 1.428 . S
H649 C645 0.930 . S
H650 C647 0.929 . S
S651 N652 1.613 . S
S651 N653 1.610 . S
N652 S651 1.613 . S
N652 C655 1.350 . S
N653 S651 1.610 . S
N653 C654 1.351 . S
C654 C648 1.428 . S
C654 N653 1.351 . S
C654 C655 1.434 . S
C655 C646 1.429 . S
C655 N652 1.350 . S
C655 C654 1.434 . S
C656 C657 1.369 . S
C656 C658 1.419 . S
C656 H660 0.930 . S
C657 C656 1.369 . S
C657 C666 1.429 1_455 S
C658 C656 1.419 . S
C658 C659 1.363 . S
C658 H661 0.929 . S
C659 C658 1.363 . S
C659 C665 1.428 1_455 S
H660 C656 0.930 . S
H661 C658 0.929 . S
S662 N663 1.613 . S
S662 N664 1.610 . S
N663 S662 1.613 . S
N663 C666 1.350 . S
N664 S662 1.610 . S
N664 C665 1.351 . S
C665 C659 1.428 1_655 S
C665 N664 1.351 . S
C665 C666 1.434 . S
C666 C657 1.429 1_655 S
C666 N663 1.350 . S
C666 C665 1.434 . S
C667 C668 1.369 . S
C667 C669 1.419 1_655 S
C667 H671 0.930 . S
C668 C667 1.369 . S
C668 C677 1.429 . S
C669 C667 1.419 1_455 S
C669 C670 1.363 . S
C669 H672 0.929 . S
C670 C669 1.363 . S
C670 C676 1.428 . S
H671 C667 0.930 . S
H672 C669 0.929 . S
S673 N674 1.613 1_455 S
S673 N675 1.610 . S
N674 S673 1.613 1_655 S
N674 C677 1.350 . S
N675 S673 1.610 . S
N675 C676 1.351 . S
C676 C670 1.428 . S
C676 N675 1.351 . S
C676 C677 1.434 1_455 S
C677 C668 1.429 . S
C677 N674 1.350 . S
C677 C676 1.434 1_655 S
C678 C679 1.369 . S
C678 C680 1.419 . S
C678 H682 0.930 . S
C679 C678 1.369 . S
C679 C688 1.429 . S
C680 C678 1.419 . S
C680 C681 1.363 . S
C680 H683 0.929 . S
C681 C680 1.363 . S
C681 C687 1.428 . S
H682 C678 0.930 . S
H683 C680 0.929 . S
S684 N685 1.613 . S
S684 N686 1.610 . S
N685 S684 1.613 . S
N685 C688 1.350 . S
N686 S684 1.610 . S
N686 C687 1.351 . S
C687 C681 1.428 . S
C687 N686 1.351 . S
C687 C688 1.434 . S
C688 C679 1.429 . S
C688 N685 1.350 . S
C688 C687 1.434 . S
C689 C690 1.369 . S
C689 C691 1.419 . S
C689 H693 0.930 . S
C690 C689 1.369 . S
C690 C699 1.429 . S
C691 C689 1.419 . S
C691 C692 1.363 . S
C691 H694 0.929 . S
C692 C691 1.363 . S
C692 C698 1.428 . S
H693 C689 0.930 . S
H694 C691 0.929 . S
S695 N696 1.613 . S
S695 N697 1.610 . S
N696 S695 1.613 . S
N696 C699 1.350 . S
N697 S695 1.610 . S
N697 C698 1.351 . S
C698 C692 1.428 . S
C698 N697 1.351 . S
C698 C699 1.434 . S
C699 C690 1.429 . S
C699 N696 1.350 . S
C699 C698 1.434 . S
C700 C701 1.369 . S
C700 C702 1.419 . S
C700 H704 0.930 . S
C701 C700 1.369 . S
C701 C710 1.429 1_455 S
C702 C700 1.419 . S
C702 C703 1.363 . S
C702 H705 0.929 . S
C703 C702 1.363 . S
C703 C709 1.428 1_455 S
H704 C700 0.930 . S
H705 C702 0.929 . S
S706 N707 1.613 . S
S706 N708 1.610 . S
N707 S706 1.613 . S
N707 C710 1.350 . S
N708 S706 1.610 . S
N708 C709 1.351 . S
C709 C703 1.428 1_655 S
C709 N708 1.351 . S
C709 C710 1.434 . S
C710 C701 1.429 1_655 S
C710 N707 1.350 . S
C710 C709 1.434 . S
C711 C712 1.369 . S
C711 C713 1.419 . S
C711 H715 0.930 . S
C712 C711 1.369 . S
C712 C721 1.429 . S
C713 C711 1.419 . S
C713 C714 1.363 . S
C713 H716 0.929 . S
C714 C713 1.363 . S
C714 C720 1.428 . S
H715 C711 0.930 . S
H716 C713 0.929 . S
S717 N718 1.613 . S
S717 N719 1.610 . S
N718 S717 1.613 . S
N718 C721 1.350 . S
N719 S717 1.610 . S
N719 C720 1.351 . S
C720 C714 1.428 . S
C720 N719 1.351 . S
C720 C721 1.434 . S
C721 C712 1.429 . S
C721 N718 1.350 . S
C721 C720 1.434 . S
C722 C723 1.369 . S
C722 C724 1.419 . S
C722 H726 0.930 . S
C723 C722 1.369 . S
C723 C732 1.429 . S
C724 C722 1.419 . S
C724 C725 1.363 . S
C724 H727 0.929 . S
C725 C724 1.363 . S
C725 C731 1.428 . S
H726 C722 0.930 . S
H727 C724 0.929 . S
S728 N729 1.613 . S
S728 N730 1.610 . S
N729 S728 1.613 . S
N729 C732 1.350 . S
N730 S728 1.610 . S
N730 C731 1.351 . S
C731 C725 1.428 . S
C731 N730 1.351 . S
C731 C732 1.434 . S
C732 C723 1.429 . S
C732 N729 1.350 . S
C732 C731 1.434 . S
C733 C734 1.369 . S
C733 C735 1.419 1_455 S
C733 H737 0.930 . S
C734 C733 1.369 . S
C734 C743 1.429 . S
C735 C733 1.419 1_655 S
C735 C736 1.363 . S
C735 H738 0.929 . S
C736 C735 1.363 . S
C736 C742 1.428 . S
H737 C733 0.930 . S
H738 C735 0.929 . S
S739 N740 1.613 . S
S739 N741 1.610 1_455 S
N740 S739 1.613 . S
N740 C743 1.350 . S
N741 S739 1.610 1_655 S
N741 C742 1.351 . S
C742 C736 1.428 . S
C742 N741 1.351 . S
C742 C743 1.434 1_655 S
C743 C734 1.429 . S
C743 N740 1.350 . S
C743 C742 1.434 1_455 S
C744 C745 1.369 . S
C744 C746 1.419 1_554 S
C744 H748 0.930 . S
C745 C744 1.369 . S
C745 C754 1.429 1_445 S
C746 C744 1.419 1_556 S
C746 C747 1.363 1_545 S
C746 H749 0.929 . S
C747 C746 1.363 1_565 S
C747 C753 1.428 1_455 S
H748 C744 0.930 . S
H749 C746 0.929 . S
S750 N751 1.613 . S
S750 N752 1.610 1_554 S
N751 S750 1.613 . S
N751 C754 1.350 . S
N752 S750 1.610 1_556 S
N752 C753 1.351 . S
C753 C747 1.428 1_655 S
C753 N752 1.351 . S
C753 C754 1.434 1_556 S
C754 C745 1.429 1_665 S
C754 N751 1.350 . S
C754 C753 1.434 1_554 S
C755 C756 1.369 . S
C755 C757 1.419 . S
C755 H759 0.930 . S
C756 C755 1.369 . S
C756 C765 1.429 . S
C757 C755 1.419 . S
C757 C758 1.363 . S
C757 H760 0.929 . S
C758 C757 1.363 . S
C758 C764 1.428 . S
H759 C755 0.930 . S
H760 C757 0.929 . S
S761 N762 1.613 . S
S761 N763 1.610 . S
N762 S761 1.613 . S
N762 C765 1.350 . S
N763 S761 1.610 . S
N763 C764 1.351 . S
C764 C758 1.428 . S
C764 N763 1.351 . S
C764 C765 1.434 . S
C765 C756 1.429 . S
C765 N762 1.350 . S
C765 C764 1.434 . S
C766 C767 1.369 . S
C766 C768 1.419 . S
C766 H770 0.930 . S
C767 C766 1.369 . S
C767 C776 1.429 1_545 S
C768 C766 1.419 . S
C768 C769 1.363 1_545 S
C768 H771 0.929 . S
C769 C768 1.363 1_565 S
C769 C775 1.428 . S
H770 C766 0.930 . S
H771 C768 0.929 . S
S772 N773 1.613 . S
S772 N774 1.610 . S
N773 S772 1.613 . S
N773 C776 1.350 . S
N774 S772 1.610 . S
N774 C775 1.351 . S
C775 C769 1.428 . S
C775 N774 1.351 . S
C775 C776 1.434 . S
C776 C767 1.429 1_565 S
C776 N773 1.350 . S
C776 C775 1.434 . S
C777 C778 1.369 . S
C777 C779 1.419 . S
C777 H781 0.930 . S
C778 C777 1.369 . S
C778 C787 1.429 . S
C779 C777 1.419 . S
C779 C780 1.363 . S
C779 H782 0.929 . S
C780 C779 1.363 . S
C780 C786 1.428 . S
H781 C777 0.930 . S
H782 C779 0.929 . S
S783 N784 1.613 . S
S783 N785 1.610 . S
N784 S783 1.613 . S
N784 C787 1.350 . S
N785 S783 1.610 . S
N785 C786 1.351 . S
C786 C780 1.428 . S
C786 N785 1.351 . S
C786 C787 1.434 . S
C787 C778 1.429 . S
C787 N784 1.350 . S
C787 C786 1.434 . S
C788 C789 1.369 . S
C788 C790 1.419 . S
C788 H792 0.930 . S
C789 C788 1.369 . S
C789 C798 1.429 . S
C790 C788 1.419 . S
C790 C791 1.363 . S
C790 H793 0.929 . S
C791 C790 1.363 . S
C791 C797 1.428 . S
H792 C788 0.930 . S
H793 C790 0.929 . S
S794 N795 1.613 . S
S794 N796 1.610 . S
N795 S794 1.613 . S
N795 C798 1.350 . S
N796 S794 1.610 . S
N796 C797 1.351 . S
C797 C791 1.428 . S
C797 N796 1.351 . S
C797 C798 1.434 . S
C798 C789 1.429 . S
C798 N795 1.350 . S
C798 C797 1.434 . S
C799 C800 1.369 . S
C799 C801 1.419 . S
C799 H803 0.930 . S
C800 C799 1.369 . S
C800 C809 1.429 . S
C801 C799 1.419 . S
C801 C802 1.363 . S
C801 H804 0.929 . S
C802 C801 1.363 . S
C802 C808 1.428 . S
H803 C799 0.930 . S
H804 C801 0.929 . S
S805 N806 1.613 . S
S805 N807 1.610 . S
N806 S805 1.613 . S
N806 C809 1.350 . S
N807 S805 1.610 . S
N807 C808 1.351 . S
C808 C802 1.428 . S
C808 N807 1.351 . S
C808 C809 1.434 . S
C809 C800 1.429 . S
C809 N806 1.350 . S
C809 C808 1.434 . S
C810 C811 1.369 . S
C810 C812 1.419 . S
C810 H814 0.930 . S
C811 C810 1.369 . S
C811 C820 1.429 . S
C812 C810 1.419 . S
C812 C813 1.363 . S
C812 H815 0.929 . S
C813 C812 1.363 . S
C813 C819 1.428 . S
H814 C810 0.930 . S
H815 C812 0.929 . S
S816 N817 1.613 . S
S816 N818 1.610 . S
N817 S816 1.613 . S
N817 C820 1.350 . S
N818 S816 1.610 . S
N818 C819 1.351 . S
C819 C813 1.428 . S
C819 N818 1.351 . S
C819 C820 1.434 . S
C820 C811 1.429 . S
C820 N817 1.350 . S
C820 C819 1.434 . S
C821 C822 1.369 . S
C821 C823 1.419 1_556 S
C821 H825 0.930 . S
C822 C821 1.369 . S
C822 C831 1.429 . S
C823 C821 1.419 1_554 S
C823 C824 1.363 . S
C823 H826 0.929 . S
C824 C823 1.363 . S
C824 C830 1.428 . S
H825 C821 0.930 . S
H826 C823 0.929 . S
S827 N828 1.613 1_554 S
S827 N829 1.610 . S
N828 S827 1.613 1_556 S
N828 C831 1.350 . S
N829 S827 1.610 . S
N829 C830 1.351 . S
C830 C824 1.428 . S
C830 N829 1.351 . S
C830 C831 1.434 1_554 S
C831 C822 1.429 . S
C831 N828 1.350 . S
C831 C830 1.434 1_556 S
C832 C833 1.369 . S
C832 C834 1.419 . S
C832 H836 0.930 . S
C833 C832 1.369 . S
C833 C842 1.429 . S
C834 C832 1.419 . S
C834 C835 1.363 . S
C834 H837 0.929 . S
C835 C834 1.363 . S
C835 C841 1.428 . S
H836 C832 0.930 . S
H837 C834 0.929 . S
S838 N839 1.613 . S
S838 N840 1.610 . S
N839 S838 1.613 . S
N839 C842 1.350 . S
N840 S838 1.610 . S
N840 C841 1.351 . S
C841 C835 1.428 . S
C841 N840 1.351 . S
C841 C842 1.434 . S
C842 C833 1.429 . S
C842 N839 1.350 . S
C842 C841 1.434 . S
C843 C844 1.369 . S
C843 C845 1.419 . S
C843 H847 0.930 . S
C844 C843 1.369 . S
C844 C853 1.429 . S
C845 C843 1.419 . S
C845 C846 1.363 . S
C845 H848 0.929 . S
C846 C845 1.363 . S
C846 C852 1.428 . S
H847 C843 0.930 . S
H848 C845 0.929 . S
S849 N850 1.613 . S
S849 N851 1.610 . S
N850 S849 1.613 . S
N850 C853 1.350 . S
N851 S849 1.610 . S
N851 C852 1.351 . S
C852 C846 1.428 . S
C852 N851 1.351 . S
C852 C853 1.434 . S
C853 C844 1.429 . S
C853 N850 1.350 . S
C853 C852 1.434 . S
C854 C855 1.369 . S
C854 C856 1.419 . S
C854 H858 0.930 . S
C855 C854 1.369 . S
C855 C864 1.426 1_556 S
C856 C854 1.419 . S
C856 C857 1.363 . S
C856 H859 0.929 . S
C857 C856 1.363 . S
C857 C863 1.428 . S
H858 C854 0.930 . S
H859 C856 0.929 . S
S860 N861 1.613 . S
S860 N862 1.610 1_554 S
N861 S860 1.613 . S
N861 C864 1.359 . S
N862 S860 1.610 1_556 S
N862 C863 1.351 . S
C863 C857 1.428 . S
C863 N862 1.351 . S
C863 C864 1.428 1_556 S
C864 C855 1.426 1_554 S
C864 N861 1.359 . S
C864 C863 1.428 1_554 S
C865 C866 1.369 . S
C865 C867 1.419 . S
C865 H869 0.930 . S
C866 C865 1.369 . S
C866 C875 1.429 . S
C867 C865 1.419 . S
C867 C868 1.363 . S
C867 H870 0.929 . S
C868 C867 1.363 . S
C868 C874 1.428 . S
H869 C865 0.930 . S
H870 C867 0.929 . S
S871 N872 1.613 . S
S871 N873 1.610 . S
N872 S871 1.613 . S
N872 C875 1.350 . S
N873 S871 1.610 . S
N873 C874 1.351 . S
C874 C868 1.428 . S
C874 N873 1.351 . S
C874 C875 1.434 . S
C875 C866 1.429 . S
C875 N872 1.350 . S
C875 C874 1.434 . S
C876 C877 1.369 . S
C876 C878 1.419 . S
C876 H880 0.930 . S
C877 C876 1.369 . S
C877 C886 1.429 . S
C878 C876 1.419 . S
C878 C879 1.363 . S
C878 H881 0.929 . S
C879 C878 1.363 . S
C879 C885 1.428 . S
H880 C876 0.930 . S
H881 C878 0.929 . S
S882 N883 1.613 . S
S882 N884 1.610 . S
N883 S882 1.613 . S
N883 C886 1.350 . S
N884 S882 1.610 . S
N884 C885 1.351 . S
C885 C879 1.428 . S
C885 N884 1.351 . S
C885 C886 1.434 . S
C886 C877 1.429 . S
C886 N883 1.350 . S
C886 C885 1.434 . S
C887 C888 1.369 . S
C887 C889 1.419 . S
C887 H891 0.930 . S
C888 C887 1.369 . S
C888 C897 1.429 . S
C889 C887 1.419 . S
C889 C890 1.363 . S
C889 H892 0.929 . S
C890 C889 1.363 . S
C890 C896 1.428 . S
H891 C887 0.930 . S
H892 C889 0.929 . S
S893 N894 1.613 . S
S893 N895 1.610 . S
N894 S893 1.613 . S
N894 C897 1.350 . S
N895 S893 1.610 . S
N895 C896 1.351 . S
C896 C890 1.428 . S
C896 N895 1.351 . S
C896 C897 1.434 . S
C897 C888 1.429 . S
C897 N894 1.350 . S
C897 C896 1.434 . S
C898 C899 1.369 . S
C898 C900 1.419 . S
C898 H902 0.930 . S
C899 C898 1.369 . S
C899 C908 1.429 . S
C900 C898 1.419 . S
C900 C901 1.363 . S
C900 H903 0.929 . S
C901 C900 1.363 . S
C901 C907 1.428 . S
H902 C898 0.930 . S
H903 C900 0.929 . S
S904 N905 1.613 . S
S904 N906 1.610 1_556 S
N905 S904 1.613 . S
N905 C908 1.350 1_556 S
N906 S904 1.610 1_554 S
N906 C907 1.351 . S
C907 C901 1.428 . S
C907 N906 1.351 . S
C907 C908 1.434 . S
C908 C899 1.429 . S
C908 N905 1.350 1_554 S
C908 C907 1.434 . S
C909 C910 1.369 . S
C909 C911 1.419 . S
C909 H913 0.930 . S
C910 C909 1.369 . S
C910 C919 1.429 . S
C911 C909 1.419 . S
C911 C912 1.363 . S
C911 H914 0.929 . S
C912 C911 1.363 . S
C912 C918 1.428 . S
H913 C909 0.930 . S
H914 C911 0.929 . S
S915 N916 1.613 . S
S915 N917 1.610 . S
N916 S915 1.613 . S
N916 C919 1.350 . S
N917 S915 1.610 . S
N917 C918 1.351 . S
C918 C912 1.428 . S
C918 N917 1.351 . S
C918 C919 1.434 . S
C919 C910 1.429 . S
C919 N916 1.350 . S
C919 C918 1.434 . S
C920 C921 1.369 . S
C920 C922 1.419 . S
C920 H924 0.930 . S
C921 C920 1.369 . S
C921 C930 1.429 . S
C922 C920 1.419 . S
C922 C923 1.363 . S
C922 H925 0.929 . S
C923 C922 1.363 . S
C923 C929 1.428 . S
H924 C920 0.930 . S
H925 C922 0.929 . S
S926 N927 1.613 . S
S926 N928 1.610 . S
N927 S926 1.613 . S
N927 C930 1.350 . S
N928 S926 1.610 . S
N928 C929 1.351 . S
C929 C923 1.428 . S
C929 N928 1.351 . S
C929 C930 1.434 . S
C930 C921 1.429 . S
C930 N927 1.350 . S
C930 C929 1.434 . S
C931 C932 1.369 . S
C931 C933 1.419 . S
C931 H935 0.930 . S
C932 C931 1.369 . S
C932 C941 1.429 . S
C933 C931 1.419 . S
C933 C934 1.363 . S
C933 H936 0.929 . S
C934 C933 1.363 . S
C934 C940 1.428 . S
H935 C931 0.930 . S
H936 C933 0.929 . S
S937 N938 1.613 . S
S937 N939 1.610 . S
N938 S937 1.613 . S
N938 C941 1.350 . S
N939 S937 1.610 . S
N939 C940 1.351 . S
C940 C934 1.428 . S
C940 N939 1.351 . S
C940 C941 1.434 . S
C941 C932 1.429 . S
C941 N938 1.350 . S
C941 C940 1.434 . S
C942 C943 1.369 . S
C942 C944 1.419 . S
C942 H946 0.930 . S
C943 C942 1.369 . S
C943 C952 1.429 . S
C944 C942 1.419 . S
C944 C945 1.363 . S
C944 H947 0.929 . S
C945 C944 1.363 . S
C945 C951 1.428 . S
H946 C942 0.930 . S
H947 C944 0.929 . S
S948 N949 1.613 . S
S948 N950 1.610 . S
N949 S948 1.613 . S
N949 C952 1.350 . S
N950 S948 1.610 . S
N950 C951 1.351 . S
C951 C945 1.428 . S
C951 N950 1.351 . S
C951 C952 1.434 . S
C952 C943 1.429 . S
C952 N949 1.350 . S
C952 C951 1.434 . S
C953 C954 1.369 . S
C953 C955 1.419 . S
C953 H957 0.930 . S
C954 C953 1.369 . S
C954 C963 1.429 . S
C955 C953 1.419 . S
C955 C956 1.363 . S
C955 H958 0.929 . S
C956 C955 1.363 . S
C956 C962 1.428 . S
H957 C953 0.930 . S
H958 C955 0.929 . S
S959 N960 1.613 . S
S959 N961 1.610 . S
N960 S959 1.613 . S
N960 C963 1.350 . S
N961 S959 1.610 . S
N961 C962 1.351 . S
C962 C956 1.428 . S
C962 N961 1.351 . S
C962 C963 1.434 . S
C963 C954 1.429 . S
C963 N960 1.350 . S
C963 C962 1.434 . S
C964 C965 1.369 . S
C964 C966 1.419 . S
C964 H968 0.930 . S
C965 C964 1.369 . S
C965 C974 1.429 . S
C966 C964 1.419 . S
C966 C967 1.363 . S
C966 H969 0.929 . S
C967 C966 1.363 . S
C967 C973 1.428 . S
H968 C964 0.930 . S
H969 C966 0.929 . S
S970 N971 1.613 . S
S970 N972 1.610 . S
N971 S970 1.613 . S
N971 C974 1.350 . S
N972 S970 1.610 . S
N972 C973 1.351 . S
C973 C967 1.428 . S
C973 N972 1.351 . S
C973 C974 1.434 . S
C974 C965 1.429 . S
C974 N971 1.350 . S
C974 C973 1.434 . S
C975 C976 1.369 . S
C975 C977 1.419 . S
C975 H979 0.930 . S
C976 C975 1.369 . S
C976 C985 1.429 . S
C977 C975 1.419 . S
C977 C978 1.363 . S
C977 H980 0.929 . S
C978 C977 1.363 . S
C978 C984 1.428 . S
H979 C975 0.930 . S
H980 C977 0.929 . S
S981 N982 1.613 . S
S981 N983 1.610 . S
N982 S981 1.613 . S
N982 C985 1.350 . S
N983 S981 1.610 . S
N983 C984 1.351 . S
C984 C978 1.428 . S
C984 N983 1.351 . S
C984 C985 1.434 . S
C985 C976 1.429 . S
C985 N982 1.350 . S
C985 C984 1.434 . S
C986 C987 1.369 . S
C986 C988 1.419 . S
C986 H990 0.930 . S
C987 C986 1.369 . S
C987 C996 1.429 . S
C988 C986 1.419 . S
C988 C989 1.363 . S
C988 H991 0.929 . S
C989 C988 1.363 . S
C989 C995 1.428 . S
H990 C986 0.930 . S
H991 C988 0.929 . S
S992 N993 1.613 . S
S992 N994 1.610 . S
N993 S992 1.613 . S
N993 C996 1.350 . S
N994 S992 1.610 . S
N994 C995 1.351 . S
C995 C989 1.428 . S
C995 N994 1.351 . S
C995 C996 1.434 . S
C996 C987 1.429 . S
C996 N993 1.350 . S
C996 C995 1.434 . S
C997 C998 1.369 . S
C997 C999 1.419 . S
C997 H1001 0.930 . S
C998 C997 1.369 . S
C998 C1007 1.429 . S
C999 C997 1.419 . S
C999 C1000 1.363 . S
C999 H1002 0.929 . S
C1000 C999 1.363 . S
C1000 C1006 1.428 . S
H1001 C997 0.930 . S
H1002 C999 0.929 . S
S1003 N1004 1.613 . S
S1003 N1005 1.610 . S
N1004 S1003 1.613 . S
N1004 C1007 1.350 . S
N1005 S1003 1.610 . S
N1005 C1006 1.351 . S
C1006 C1000 1.428 . S
C1006 N1005 1.351 . S
C1006 C1007 1.434 . S
C1007 C998 1.429 . S
C1007 N1004 1.350 . S
C1007 C1006 1.434 . S
C481 C27 2.067 . S
C483 C237 2.025 . S
C492 C57 0.756 . S
C494 N126 0.743 . S
C503 N156 1.602 . S
C505 C87 1.731 . S
C514 N96 0.497 . S
C516 N186 0.583 . S
C525 C346 2.023 . S
C527 C136 2.066 . S
C536 C256 0.755 . S
C538 N14 0.741 . S
C547 N314 1.595 . S
C549 C196 1.730 . S
C558 N74 0.581 . S
C560 N284 0.511 . S
C569 C297 2.027 . S
C571 C387 2.067 . S
C580 C327 0.755 . S
C582 N426 0.764 . S
C591 C417 1.733 1_556 S
C593 N246 1.601 . S
C602 N336 0.502 . S
C604 N456 0.584 . S
C613 C436 2.068 . S
C615 C106 2.027 . S
C624 N374 0.738 . S
C626 C166 0.755 . S
C635 N44 1.606 . S
C637 C466 1.733 1_554 S
C646 N224 0.515 . S
C648 N404 0.577 . S
C657 C400 1.203 1_455 S
C659 C10 1.220 . S
C668 C331 1.056 . S
C670 C40 1.054 . S
C679 C370 1.219 . S
C681 C70 1.202 . S
C690 C310 1.052 . S
C692 C91 1.055 . S
C701 C121 1.227 . S
C703 C451 1.194 . S
C712 C280 1.056 . S
C714 C151 1.054 . S
C723 C181 1.202 . S
C725 C421 1.221 . S
C734 C220 1.057 . S
C736 C241 1.054 . S
C745 C1 1.110 . S
C747 C130 1.095 . S
C756 C31 1.302 . S
C758 C160 1.315 . S
C767 C190 1.528 . S
C769 C61 1.514 . S
C778 C100 1.277 . S
C780 C211 1.272 . S
C789 C301 1.313 . S
C791 C250 1.305 . S
C800 C340 1.273 . S
C802 C271 1.277 . S
C811 C361 1.110 . S
C813 C430 1.094 . S
C822 C460 1.514 . S
C824 C391 1.525 . S
C833 N6 0.993 . S
C835 N216 0.990 . S
C844 N36 2.187 . S
C846 C147 2.173 . S
C855 C177 1.228 1_556 S
C857 N66 1.220 . S
C866 C207 2.383 . S
C868 C117 2.340 1_554 S
C877 N344 0.989 . S
C879 N134 0.989 . S
C888 N254 2.188 . S
C890 C16 2.173 . S
C899 C316 1.229 1_554 S
C901 N194 1.221 . S
C910 C76 2.383 . S
C912 C286 2.342 1_556 S
C921 N366 0.990 . S
C923 N276 0.992 . S
C932 C447 2.173 . S
C934 N306 2.188 . S
C943 N396 1.212 . S
C945 C267 1.229 . S
C954 C477 2.383 . S
C956 C357 2.340 . S
C965 N434 0.985 . S
C967 N104 0.992 . S
C976 N164 2.188 . S
C978 C376 2.173 . S
C987 C46 1.229 . S
C989 N464 1.213 . S
C998 C406 2.385 . S
C1000 C226 2.344 . S
