# Generated by pormake.
# Topology mon, (4)-cn, num edge types: 1
# Building blocks:
#     Node 0, Type 0, BuildingBlock: AZAVOO_clean_sbu_0, # of connection points: 4
#     Node 1, Type 0, BuildingBlock: AZAVOO_clean_sbu_0, # of connection points: 4
#     Node 2, Type 0, BuildingBlock: AZAVOO_clean_sbu_0, # of connection points: 4
#     Node 3, Type 0, BuildingBlock: AZAVOO_clean_sbu_0, # of connection points: 4
#     Node 4, Type 0, BuildingBlock: AZAVOO_clean_sbu_0, # of connection points: 4
#     Node 5, Type 0, BuildingBlock: AZAVOO_clean_sbu_0, # of connection points: 4
#     Node 6, Type 0, BuildingBlock: AZAVOO_clean_sbu_0, # of connection points: 4
#     Node 7, Type 0, BuildingBlock: AZAVOO_clean_sbu_0, # of connection points: 4
#     Node 8, Type 0, BuildingBlock: AZAVOO_clean_sbu_0, # of connection points: 4
#     Node 9, Type 0, BuildingBlock: AZAVOO_clean_sbu_0, # of connection points: 4
#     Node 10, Type 0, BuildingBlock: AZAVOO_clean_sbu_0, # of connection points: 4
#     Node 11, Type 0, BuildingBlock: AZAVOO_clean_sbu_0, # of connection points: 4
#     Node 12, Type 0, BuildingBlock: AZAVOO_clean_sbu_0, # of connection points: 4
#     Node 13, Type 0, BuildingBlock: AZAVOO_clean_sbu_0, # of connection points: 4
#     Node 14, Type 0, BuildingBlock: AZAVOO_clean_sbu_0, # of connection points: 4
#     Node 15, Type 0, BuildingBlock: AZAVOO_clean_sbu_0, # of connection points: 4
#     Edge 16, Type (0, 0), BuildingBlock: UVAHIK_clean_linker_0, # of connection points: 2
#     Edge 17, Type (0, 0), BuildingBlock: UVAHIK_clean_linker_0, # of connection points: 2
#     Edge 18, Type (0, 0), BuildingBlock: UVAHIK_clean_linker_0, # of connection points: 2
#     Edge 19, Type (0, 0), BuildingBlock: UVAHIK_clean_linker_0, # of connection points: 2
#     Edge 20, Type (0, 0), BuildingBlock: UVAHIK_clean_linker_0, # of connection points: 2
#     Edge 21, Type (0, 0), BuildingBlock: UVAHIK_clean_linker_0, # of connection points: 2
#     Edge 22, Type (0, 0), BuildingBlock: UVAHIK_clean_linker_0, # of connection points: 2
#     Edge 23, Type (0, 0), BuildingBlock: UVAHIK_clean_linker_0, # of connection points: 2
#     Edge 24, Type (0, 0), BuildingBlock: UVAHIK_clean_linker_0, # of connection points: 2
#     Edge 25, Type (0, 0), BuildingBlock: UVAHIK_clean_linker_0, # of connection points: 2
#     Edge 26, Type (0, 0), BuildingBlock: UVAHIK_clean_linker_0, # of connection points: 2
#     Edge 27, Type (0, 0), BuildingBlock: UVAHIK_clean_linker_0, # of connection points: 2
#     Edge 28, Type (0, 0), BuildingBlock: UVAHIK_clean_linker_0, # of connection points: 2
#     Edge 29, Type (0, 0), BuildingBlock: UVAHIK_clean_linker_0, # of connection points: 2
#     Edge 30, Type (0, 0), BuildingBlock: UVAHIK_clean_linker_0, # of connection points: 2
#     Edge 31, Type (0, 0), BuildingBlock: UVAHIK_clean_linker_0, # of connection points: 2
#     Edge 32, Type (0, 0), BuildingBlock: UVAHIK_clean_linker_0, # of connection points: 2
#     Edge 33, Type (0, 0), BuildingBlock: UVAHIK_clean_linker_0, # of connection points: 2
#     Edge 34, Type (0, 0), BuildingBlock: UVAHIK_clean_linker_0, # of connection points: 2
#     Edge 35, Type (0, 0), BuildingBlock: UVAHIK_clean_linker_0, # of connection points: 2
#     Edge 36, Type (0, 0), BuildingBlock: UVAHIK_clean_linker_0, # of connection points: 2
#     Edge 37, Type (0, 0), BuildingBlock: UVAHIK_clean_linker_0, # of connection points: 2
#     Edge 38, Type (0, 0), BuildingBlock: UVAHIK_clean_linker_0, # of connection points: 2
#     Edge 39, Type (0, 0), BuildingBlock: UVAHIK_clean_linker_0, # of connection points: 2
#     Edge 40, Type (0, 0), BuildingBlock: UVAHIK_clean_linker_0, # of connection points: 2
#     Edge 41, Type (0, 0), BuildingBlock: UVAHIK_clean_linker_0, # of connection points: 2
#     Edge 42, Type (0, 0), BuildingBlock: UVAHIK_clean_linker_0, # of connection points: 2
#     Edge 43, Type (0, 0), BuildingBlock: UVAHIK_clean_linker_0, # of connection points: 2
#     Edge 44, Type (0, 0), BuildingBlock: UVAHIK_clean_linker_0, # of connection points: 2
#     Edge 45, Type (0, 0), BuildingBlock: UVAHIK_clean_linker_0, # of connection points: 2
#     Edge 46, Type (0, 0), BuildingBlock: UVAHIK_clean_linker_0, # of connection points: 2
#     Edge 47, Type (0, 0), BuildingBlock: UVAHIK_clean_linker_0, # of connection points: 2
# Relax obj value: 0.178
# Max RMSD: 0.148
# Mean RMSD: 0.148
data_MOF--net-mon--node1-AZAVOO_clean_sbu_0--edge1-UVAHIK_clean_linker_0
_symmetry_space_group_name_H-M    P1
_symmetry_Int_Tables_number       1
_symmetry_cell_setting            triclinic
loop_
_symmetry_equiv_pos_as_xyz
'x, y, z'
_cell_length_a     43.399342
_cell_length_b     43.331522
_cell_length_c     106.87685
_cell_angle_alpha  89.916301
_cell_angle_beta   90.016176
_cell_angle_gamma 89.950228
loop_
_atom_site_label
_atom_site_type_symbol
_atom_site_fract_x
_atom_site_fract_y
_atom_site_fract_z
_atom_type_partial_charge
Mg0 Mg 0.01883 0.03372 0.58735 0.0
O1 O 0.06366 0.00857 0.59149 0.0
O2 O 0.10048 0.0261 0.57872 0.0
Mg3 Mg 0.07794 0.06186 0.56585 0.0
C4 C 0.09141 0.00861 0.5876 0.0
C5 C 0.99023 0.00815 0.61654 0.0
O6 O 0.99063 0.0271 0.62613 0.0
O7 O 0.03756 0.07675 0.59657 0.0
O8 O 0.0726 0.09384 0.58288 0.0
O9 O 0.00752 -0.00256 0.57312 0.0
O10 O 0.03215 0.04111 0.56907 0.0
C11 C 0.0579 0.09631 0.5932 0.0
C12 C 0.02193 0.01497 0.56523 0.0
O13 O 0.0005 0.01736 0.60607 0.0
Mg14 Mg 0.2446 0.72933 0.83772 0.0
O15 O 0.2741 0.77153 0.84158 0.0
O16 O 0.26409 0.8076 0.82719 0.0
Mg17 Mg 0.22792 0.78766 0.81383 0.0
C18 C 0.27848 0.79827 0.83692 0.0
C19 C 0.27117 0.70304 0.86527 0.0
O20 O 0.26447 0.70051 0.87721 0.0
O21 O 0.20297 0.75523 0.84462 0.0
O22 O 0.19187 0.78963 0.82973 0.0
O23 O 0.28173 0.7112 0.82477 0.0
O24 O 0.24249 0.74035 0.81892 0.0
C25 C 0.18635 0.77702 0.84032 0.0
C26 C 0.26752 0.72637 0.81605 0.0
O27 O 0.25091 0.71424 0.858 0.0
Mg28 Mg 0.54069 0.94537 0.08166 0.0
O29 O 0.49901 0.97326 0.08787 0.0
O30 O 0.45722 0.9575 0.0774 0.0
Mg31 Mg 0.47176 0.91545 0.06602 0.0
C32 C 0.47046 0.97535 0.08521 0.0
C33 C 0.59035 0.98552 0.09255 0.0
O34 O 0.59523 0.98566 0.08043 0.0
O35 O 0.52501 0.90707 0.09447 0.0
O36 O 0.48339 0.88952 0.08443 0.0
O37 O 0.54656 0.97695 0.06566 0.0
O38 O 0.51862 0.93436 0.06473 0.0
C39 C 0.50213 0.8887 0.09368 0.0
C40 C 0.5278 0.95955 0.0595 0.0
O41 O 0.56916 0.96847 0.09696 0.0
Mg42 Mg 0.33801 0.24734 0.33364 0.0
O43 O 0.31016 0.20415 0.3381 0.0
O44 O 0.33003 0.16398 0.3278 0.0
Mg45 Mg 0.37116 0.18209 0.31669 0.0
C46 C 0.31009 0.1756 0.3352 0.0
C47 C 0.31475 0.30177 0.34915 0.0
O48 O 0.3352 0.31517 0.34189 0.0
O49 O 0.37624 0.23084 0.3465 0.0
O50 O 0.39675 0.19267 0.3352 0.0
O51 O 0.30759 0.25634 0.31768 0.0
O52 O 0.35033 0.22852 0.31635 0.0
C53 C 0.39636 0.20967 0.34498 0.0
C54 C 0.32532 0.23847 0.31118 0.0
O55 O 0.31266 0.27255 0.34902 0.0
Mg56 Mg 0.04378 0.95543 0.41362 0.0
O57 O 0.08703 0.97986 0.40685 0.0
O58 O 0.12848 0.95561 0.41448 0.0
Mg59 Mg 0.11095 0.91646 0.42693 0.0
C60 C 0.11614 0.97685 0.40789 0.0
C61 C 0.9922 0.97335 0.39352 0.0
O62 O 0.98426 0.94415 0.39426 0.0
O63 O 0.05286 0.91629 0.40001 0.0
O64 O 0.09255 0.89232 0.40917 0.0
O65 O 0.04255 0.9858 0.43003 0.0
O66 O 0.0668 0.94086 0.42986 0.0
C67 C 0.07267 0.89452 0.40036 0.0
C68 C 0.06007 0.96605 0.4357 0.0
O69 O 0.01553 0.98285 0.39957 0.0
Mg70 Mg 0.32694 0.75166 0.6646 0.0
O71 O 0.30276 0.79457 0.6573 0.0
O72 O 0.32638 0.83649 0.66468 0.0
Mg73 Mg 0.36548 0.81945 0.67732 0.0
C74 C 0.30539 0.82378 0.6581 0.0
C75 C 0.3076 0.69497 0.64836 0.0
O76 O 0.33263 0.68348 0.6535 0.0
O77 O 0.36656 0.75954 0.6512 0.0
O78 O 0.39067 0.79952 0.66001 0.0
O79 O 0.2962 0.75132 0.68089 0.0
O80 O 0.34123 0.77524 0.68076 0.0
C81 C 0.38865 0.77894 0.65147 0.0
C82 C 0.316 0.76864 0.68659 0.0
O83 O 0.30043 0.72289 0.65053 0.0
Mg84 Mg 0.53519 0.04057 0.90921 0.0
O85 O 0.49256 0.0129 0.90346 0.0
O86 O 0.45102 0.03644 0.91146 0.0
Mg87 Mg 0.46751 0.07724 0.92318 0.0
C88 C 0.46348 0.01499 0.90505 0.0
C89 C 0.59145 0.00871 0.9 0.0
O90 O 0.59811 0.02012 0.91106 0.0
O91 O 0.523 0.07865 0.89533 0.0
O92 O 0.48358 0.10139 0.90513 0.0
O93 O 0.53937 0.01149 0.92607 0.0
O94 O 0.51285 0.05516 0.92539 0.0
C95 C 0.50256 0.09982 0.896 0.0
C96 C 0.52118 0.03093 0.93154 0.0
O97 O 0.56513 0.01452 0.89532 0.0
Mg98 Mg 0.24644 0.24184 0.16082 0.0
O99 O 0.2689 0.19769 0.15407 0.0
O100 O 0.2468 0.15655 0.16295 0.0
Mg101 Mg 0.20651 0.17549 0.17442 0.0
C102 C 0.26691 0.16866 0.15576 0.0
C103 C 0.26905 0.29674 0.14433 0.0
O104 O 0.24423 0.30935 0.14916 0.0
O105 O 0.20729 0.23334 0.14725 0.0
O106 O 0.18347 0.19322 0.1562 0.0
O107 O 0.27671 0.24203 0.1774 0.0
O108 O 0.2308 0.2197 0.17699 0.0
C109 C 0.18578 0.21324 0.14742 0.0
C110 C 0.25601 0.22542 0.18294 0.0
O111 O 0.27484 0.26858 0.14665 0.0
Mg112 Mg 0.8346 0.24413 0.15879 0.0
O113 O 0.80794 0.28744 0.15309 0.0
O114 O 0.82941 0.32789 0.16268 0.0
Mg115 Mg 0.87012 0.31042 0.17415 0.0
C116 C 0.80903 0.31629 0.15548 0.0
C117 C 0.81221 0.18701 0.14644 0.0
O118 O 0.83062 0.17805 0.15551 0.0
O119 O 0.87348 0.25705 0.14561 0.0
O120 O 0.89485 0.2965 0.15589 0.0
O121 O 0.80385 0.23905 0.17512 0.0
O122 O 0.84775 0.2651 0.17543 0.0
C123 C 0.894 0.278 0.14657 0.0
C124 C 0.82279 0.25686 0.18104 0.0
O125 O 0.81 0.21569 0.14414 0.0
Mg126 Mg 0.74649 0.76649 0.65554 0.0
O127 O 0.77609 0.72562 0.64942 0.0
O128 O 0.76404 0.68594 0.66194 0.0
Mg129 Mg 0.73029 0.70243 0.67695 0.0
C130 C 0.77887 0.69745 0.65273 0.0
C131 C 0.76656 0.79711 0.62713 0.0
O132 O 0.75313 0.80622 0.61674 0.0
O133 O 0.7042 0.74266 0.64803 0.0
O134 O 0.69278 0.70546 0.66171 0.0
O135 O 0.78396 0.78189 0.66906 0.0
O136 O 0.7459 0.75024 0.67371 0.0
C137 C 0.68707 0.7206 0.6517 0.0
C138 C 0.77051 0.76408 0.67712 0.0
O139 O 0.74957 0.78797 0.63606 0.0
Mg140 Mg 0.74674 0.24554 0.33201 0.0
O141 O 0.77275 0.28866 0.33809 0.0
O142 O 0.75093 0.33007 0.32934 0.0
Mg143 Mg 0.71009 0.31307 0.3178 0.0
C144 C 0.77149 0.31773 0.33627 0.0
C145 C 0.7665 0.19702 0.35379 0.0
O146 O 0.73712 0.19144 0.35568 0.0
O147 O 0.70843 0.25699 0.34571 0.0
O148 O 0.6862 0.29698 0.33602 0.0
O149 O 0.77669 0.2421 0.31558 0.0
O150 O 0.73261 0.26788 0.31552 0.0
C151 C 0.6876 0.27776 0.34511 0.0
C152 C 0.75773 0.26027 0.30983 0.0
O153 O 0.77452 0.21751 0.34594 0.0
Mg154 Mg 0.83091 0.74079 0.82902 0.0
O155 O 0.8057 0.69883 0.8367 0.0
O156 O 0.82742 0.65635 0.82884 0.0
Mg157 Mg 0.86664 0.67166 0.81601 0.0
C158 C 0.80735 0.66955 0.83573 0.0
C159 C 0.79312 0.79434 0.83837 0.0
O160 O 0.79563 0.79867 0.82625 0.0
O161 O 0.87067 0.73142 0.84216 0.0
O162 O 0.89281 0.69034 0.83331 0.0
O163 O 0.79927 0.7418 0.81293 0.0
O164 O 0.84347 0.71643 0.81277 0.0
C165 C 0.89179 0.71096 0.84187 0.0
C166 C 0.81818 0.72373 0.80712 0.0
O167 O 0.80677 0.77139 0.84329 0.0
Mg168 Mg 0.54072 0.54366 0.08088 0.0
O169 O 0.58372 0.51807 0.08735 0.0
O170 O 0.62523 0.54173 0.07945 0.0
Mg171 Mg 0.60832 0.58204 0.06755 0.0
C172 C 0.61283 0.52052 0.08604 0.0
C173 C 0.4877 0.5053 0.08979 0.0
O174 O 0.48226 0.51151 0.07796 0.0
O175 O 0.55112 0.58186 0.09479 0.0
O176 O 0.59134 0.60508 0.08574 0.0
O177 O 0.53904 0.51389 0.06414 0.0
O178 O 0.56389 0.55843 0.06477 0.0
C179 C 0.57172 0.60287 0.09463 0.0
C180 C 0.55703 0.5336 0.05874 0.0
O181 O 0.51142 0.51697 0.0949 0.0
Mg182 Mg 0.03746 0.45018 0.58293 0.0
O183 O -0.00425 0.47832 0.58915 0.0
O184 O 0.9534 0.45732 0.58086 0.0
Mg185 Mg 0.96838 0.41565 0.56929 0.0
C186 C 0.96663 0.47789 0.5875 0.0
C187 C 0.09232 0.48489 0.59212 0.0
O188 O 0.09783 0.47786 0.58038 0.0
O189 O 0.02495 0.41231 0.59655 0.0
O190 O 0.98434 0.39046 0.58728 0.0
O191 O 0.04127 0.48023 0.56647 0.0
O192 O 0.01412 0.43692 0.56662 0.0
C193 C 0.00402 0.39169 0.59618 0.0
C194 C 0.02231 0.46182 0.56088 0.0
O195 O 0.06769 0.47498 0.59714 0.0
Mg196 Mg 0.52642 0.45474 0.90819 0.0
O197 O 0.57103 0.47957 0.90298 0.0
O198 O 0.61044 0.45682 0.91287 0.0
Mg199 Mg 0.59081 0.41739 0.92453 0.0
C200 C 0.59968 0.4774 0.90551 0.0
C201 C 0.4802 0.4985 0.89624 0.0
O202 O 0.47307 0.49858 0.90819 0.0
O203 O 0.53935 0.41491 0.89531 0.0
O204 O 0.57769 0.39304 0.90613 0.0
O205 O 0.52179 0.4861 0.92441 0.0
O206 O 0.54608 0.4413 0.92534 0.0
C207 C 0.55998 0.3941 0.89657 0.0
C208 C 0.53872 0.46695 0.93066 0.0
O209 O 0.50154 0.48066 0.8925 0.0
Mg210 Mg 0.03907 0.54454 0.41076 0.0
O211 O -0.00393 0.51791 0.40498 0.0
O212 O 0.95481 0.54062 0.41352 0.0
Mg213 Mg 0.97187 0.58122 0.42518 0.0
C214 C 0.96706 0.51965 0.40678 0.0
C215 C 0.09131 0.50656 0.40117 0.0
O216 O 0.09765 0.51296 0.4129 0.0
O217 O 0.02689 0.58302 0.3971 0.0
O218 O 0.98715 0.6051 0.40693 0.0
O219 O 0.04285 0.51465 0.42747 0.0
O220 O 0.01709 0.55872 0.4272 0.0
C221 C 0.00602 0.60375 0.39776 0.0
C222 C 0.02487 0.53395 0.43311 0.0
O223 O 0.06729 0.51828 0.3963 0.0
C224 C 0.04077 0.13246 0.61004 0.0
C225 C 0.06244 0.12434 0.60085 0.0
C226 C 0.04106 0.16191 0.61531 0.0
C227 C 0.04432 0.22741 0.62523 0.0
H228 H 0.05363 0.28366 0.59725 0.0
C229 C 0.0311 0.36313 0.61335 0.0
C230 C 0.00592 0.36552 0.60508 0.0
C231 C 0.03894 0.33462 0.61859 0.0
C232 C 0.0514 0.26827 0.6052 0.0
H233 H 0.10407 0.13905 0.59131 0.0
H234 H 0.10505 0.19013 0.60075 0.0
H235 H 0.07174 0.23106 0.59528 0.0
H236 H 0.96615 0.34125 0.59767 0.0
H237 H 0.98015 0.29159 0.60676 0.0
H238 H 0.02177 0.26507 0.63469 0.0
C239 C 0.08709 0.1742 0.60353 0.0
C240 C 0.06208 0.23817 0.60416 0.0
C241 C 0.08654 0.14491 0.59813 0.0
C242 C 0.98605 0.3401 0.60377 0.0
C243 C 0.99384 0.3117 0.60908 0.0
C244 C 0.03338 0.25777 0.62623 0.0
C245 C 0.06322 0.18369 0.61157 0.0
C246 C 0.0579 0.21702 0.614 0.0
C247 C 0.02141 0.30843 0.61579 0.0
C248 C 0.0362 0.27797 0.61605 0.0
H249 H 0.02215 0.11697 0.61249 0.0
H250 H 0.02232 0.16832 0.62147 0.0
H251 H 0.04104 0.21176 0.63302 0.0
H252 H 0.04656 0.38241 0.61478 0.0
H253 H 0.06041 0.33243 0.6237 0.0
C254 C 0.92231 0.74109 0.85757 0.0
C255 C 0.91831 0.71397 0.85051 0.0
C256 C 0.95125 0.74848 0.86248 0.0
C257 C 0.02099 0.75684 0.87049 0.0
H258 H 0.06361 0.75483 0.83858 0.0
C259 C 0.15119 0.77081 0.85869 0.0
C260 C 0.15755 0.78467 0.84704 0.0
C261 C 0.12106 0.76991 0.86326 0.0
C262 C 0.05192 0.7559 0.84753 0.0
H263 H 0.93979 0.67073 0.84513 0.0
H264 H 0.99019 0.68383 0.8536 0.0
H265 H 0.01361 0.73065 0.84052 0.0
H266 H 0.13847 0.81315 0.83222 0.0
H267 H 0.0859 0.81124 0.84017 0.0
H268 H 0.06039 0.78178 0.87744 0.0
C269 C 0.97115 0.69958 0.85513 0.0
C270 C 0.02356 0.74152 0.84871 0.0
C271 C 0.94234 0.69222 0.85018 0.0
C272 C 0.13422 0.80163 0.84106 0.0
C273 C 0.10413 0.8007 0.84563 0.0
C274 C 0.05007 0.77082 0.86937 0.0
C275 C 0.97636 0.72879 0.8604 0.0
C276 C 0.00777 0.74178 0.86015 0.0
C277 C 0.09703 0.78284 0.85624 0.0
C278 C 0.06548 0.77074 0.85779 0.0
H279 H 0.90405 0.75806 0.85826 0.0
H280 H 0.9547 0.77107 0.86658 0.0
H281 H 0.00896 0.75761 0.87936 0.0
H282 H 0.16888 0.75827 0.86373 0.0
H283 H 0.11617 0.75619 0.87151 0.0
C284 C 0.54449 0.63149 0.11177 0.0
C285 C 0.57056 0.62782 0.10408 0.0
C286 C 0.53901 0.65964 0.11776 0.0
C287 C 0.53729 0.72985 0.12782 0.0
H288 H 0.52797 0.77208 0.09598 0.0
C289 C 0.52209 0.8595 0.11226 0.0
C290 C 0.49979 0.86301 0.10278 0.0
C291 C 0.52585 0.83107 0.11826 0.0
C292 C 0.53032 0.76054 0.10493 0.0
H293 H 0.61402 0.64856 0.09855 0.0
H294 H 0.60403 0.69769 0.10879 0.0
H295 H 0.55135 0.72126 0.09657 0.0
H296 H 0.46041 0.84134 0.09386 0.0
H297 H 0.46757 0.79169 0.10414 0.0
H298 H 0.51649 0.77024 0.13609 0.0
C299 C 0.5878 0.67896 0.11011 0.0
C300 C 0.54406 0.7317 0.1053 0.0
C301 C 0.59327 0.65094 0.1041 0.0
C302 C 0.47832 0.8392 0.10087 0.0
C303 C 0.48213 0.81084 0.10686 0.0
C304 C 0.52398 0.75944 0.12748 0.0
C305 C 0.55958 0.68425 0.11614 0.0
C306 C 0.54762 0.71602 0.11668 0.0
C307 C 0.50732 0.80598 0.11487 0.0
C308 C 0.52004 0.77462 0.11595 0.0
H309 H 0.52683 0.61386 0.11217 0.0
H310 H 0.51707 0.66327 0.12237 0.0
H311 H 0.53958 0.71786 0.13667 0.0
H312 H 0.53852 0.87767 0.1142 0.0
H313 H 0.54545 0.82775 0.1244 0.0
C314 C 0.6383 0.29936 0.35348 0.0
C315 C 0.66164 0.27688 0.35412 0.0
C316 C 0.60968 0.29393 0.35899 0.0
C317 C 0.55666 0.24976 0.35455 0.0
H318 H 0.51669 0.22746 0.38576 0.0
C319 C 0.44654 0.18643 0.35164 0.0
C320 C 0.42283 0.20794 0.35374 0.0
C321 C 0.47548 0.19071 0.35705 0.0
C322 C 0.52785 0.23348 0.37703 0.0
H323 H 0.67494 0.23352 0.36281 0.0
H324 H 0.62459 0.22394 0.37224 0.0
H325 H 0.56954 0.24917 0.38602 0.0
H326 H 0.40935 0.24762 0.36488 0.0
H327 H 0.46022 0.25523 0.37414 0.0
H328 H 0.51608 0.23361 0.34544 0.0
C329 C 0.62853 0.24565 0.36746 0.0
C330 C 0.55777 0.24597 0.37718 0.0
C331 C 0.65726 0.25105 0.36193 0.0
C332 C 0.42731 0.23101 0.36284 0.0
C333 C 0.45635 0.23524 0.36827 0.0
C334 C 0.52746 0.2368 0.35438 0.0
C335 C 0.60401 0.26604 0.36527 0.0
C336 C 0.57213 0.25441 0.36589 0.0
C337 C 0.4811 0.21642 0.36469 0.0
C338 C 0.51279 0.22847 0.36556 0.0
H339 H 0.64112 0.31988 0.3478 0.0
H340 H 0.59103 0.31001 0.35724 0.0
H341 H 0.56747 0.25567 0.34573 0.0
H342 H 0.44372 0.16794 0.34492 0.0
H343 H 0.4943 0.17582 0.35422 0.0
C344 C 0.04382 0.86556 0.38376 0.0
C345 C 0.07035 0.86895 0.39121 0.0
C346 C 0.03784 0.83756 0.37773 0.0
C347 C 0.04504 0.76539 0.36636 0.0
H348 H 0.01871 0.72573 0.39715 0.0
C349 C 0.0322 0.63545 0.3812 0.0
C350 C 0.00613 0.62961 0.38867 0.0
C351 C 0.03635 0.66451 0.37571 0.0
C352 C 0.02561 0.7366 0.38845 0.0
H353 H 0.11356 0.84739 0.39659 0.0
H354 H 0.10266 0.79847 0.38628 0.0
H355 H 0.03805 0.77832 0.39773 0.0
H356 H 0.96158 0.6476 0.39437 0.0
H357 H 0.96918 0.6982 0.38498 0.0
H358 H 0.0334 0.72257 0.35721 0.0
C359 C 0.08663 0.81745 0.3851 0.0
C360 C 0.03687 0.76651 0.3888 0.0
C361 C 0.09261 0.84534 0.39115 0.0
C362 C 0.98231 0.65162 0.38897 0.0
C363 C 0.98646 0.68052 0.38348 0.0
C364 C 0.03408 0.73486 0.36602 0.0
C365 C 0.05844 0.81281 0.37899 0.0
C366 C 0.04672 0.78112 0.37783 0.0
C367 C 0.01444 0.68785 0.37761 0.0
C368 C 0.02414 0.72044 0.37711 0.0
H369 H 0.02636 0.88342 0.38348 0.0
H370 H 0.01577 0.83424 0.37319 0.0
H371 H 0.05254 0.77648 0.3578 0.0
H372 H 0.05074 0.61878 0.38061 0.0
H373 H 0.05812 0.66971 0.37122 0.0
C374 C 0.43984 0.79544 0.64302 0.0
C375 C 0.41506 0.77456 0.64286 0.0
C376 C 0.46826 0.78705 0.63794 0.0
C377 C 0.51562 0.73512 0.64412 0.0
H378 H 0.56495 0.72812 0.61401 0.0
C379 C 0.6368 0.69286 0.64923 0.0
C380 C 0.65796 0.71488 0.64486 0.0
C381 C 0.60668 0.69255 0.64465 0.0
C382 C 0.55122 0.72968 0.62245 0.0
H383 H 0.39936 0.73052 0.63555 0.0
H384 H 0.44938 0.71577 0.62697 0.0
H385 H 0.51156 0.74765 0.61267 0.0
H386 H 0.66539 0.75078 0.63097 0.0
H387 H 0.61269 0.75082 0.62331 0.0
H388 H 0.55467 0.71854 0.65407 0.0
C389 C 0.44663 0.73857 0.63097 0.0
C390 C 0.52089 0.74085 0.62166 0.0
C391 C 0.4181 0.74698 0.636 0.0
C392 C 0.64945 0.73399 0.63477 0.0
C393 C 0.61926 0.73381 0.63025 0.0
C394 C 0.5455 0.72386 0.64489 0.0
C395 C 0.47225 0.75778 0.63259 0.0
C396 C 0.50328 0.74417 0.63258 0.0
C397 C 0.59712 0.71442 0.63571 0.0
C398 C 0.5639 0.72144 0.63413 0.0
H399 H 0.43814 0.81712 0.64801 0.0
H400 H 0.48789 0.8021 0.63934 0.0
H401 H 0.50227 0.73755 0.65263 0.0
H402 H 0.6428 0.67726 0.65678 0.0
H403 H 0.59022 0.67678 0.6488 0.0
C404 C 0.53602 0.36155 0.87976 0.0
C405 C 0.56127 0.36815 0.88758 0.0
C406 C 0.53342 0.33254 0.87411 0.0
C407 C 0.54036 0.26249 0.86402 0.0
H408 H 0.5311 0.21882 0.89554 0.0
C409 C 0.52942 0.13049 0.87929 0.0
C410 C 0.50366 0.12607 0.8871 0.0
C411 C 0.53502 0.1594 0.87389 0.0
C412 C 0.53372 0.23069 0.88666 0.0
H413 H 0.60595 0.35164 0.89383 0.0
H414 H 0.60099 0.30102 0.88417 0.0
H415 H 0.54937 0.27184 0.89552 0.0
H416 H 0.46112 0.14696 0.89367 0.0
H417 H 0.47135 0.1973 0.88445 0.0
H418 H 0.5246 0.2205 0.85525 0.0
C419 C 0.58321 0.31811 0.8825 0.0
C420 C 0.5444 0.26085 0.88664 0.0
C421 C 0.58582 0.34698 0.88815 0.0
C422 C 0.48153 0.14972 0.88794 0.0
C423 C 0.48716 0.1785 0.88256 0.0
C424 C 0.53011 0.23171 0.86402 0.0
C425 C 0.55608 0.30999 0.87617 0.0
C426 C 0.54762 0.27712 0.87538 0.0
C427 C 0.51483 0.18403 0.87617 0.0
C428 C 0.5263 0.21594 0.87542 0.0
H429 H 0.51693 0.37755 0.87898 0.0
H430 H 0.51224 0.32667 0.86931 0.0
H431 H 0.54249 0.27485 0.85524 0.0
H432 H 0.54672 0.11263 0.87831 0.0
H433 H 0.55661 0.16332 0.86906 0.0
C434 C 0.13639 0.19399 0.13811 0.0
C435 C 0.1604 0.21581 0.1382 0.0
C436 C 0.10858 0.20066 0.13208 0.0
C437 C 0.06223 0.25935 0.13511 0.0
H438 H 0.00782 0.24029 0.10739 0.0
C439 C 0.9415 0.3026 0.13796 0.0
C440 C 0.92021 0.2782 0.13772 0.0
C441 C 0.97046 0.29914 0.13248 0.0
C442 C 0.02293 0.24594 0.11512 0.0
H443 H 0.17563 0.25963 0.1305 0.0
H444 H 0.12667 0.27151 0.12038 0.0
H445 H 0.06163 0.22157 0.10717 0.0
H446 H 0.9108 0.23298 0.1299 0.0
H447 H 0.96174 0.22662 0.12067 0.0
H448 H 0.02408 0.28204 0.14351 0.0
C449 C 0.12958 0.24924 0.12485 0.0
C450 C 0.05351 0.23528 0.11497 0.0
C451 C 0.15748 0.24251 0.13078 0.0
C452 C 0.92693 0.25198 0.13046 0.0
C453 C 0.9561 0.2484 0.12508 0.0
C454 C 0.03202 0.26984 0.13528 0.0
C455 C 0.10446 0.22916 0.12608 0.0
C456 C 0.07312 0.2418 0.12507 0.0
C457 C 0.9788 0.27109 0.12681 0.0
C458 C 0.01186 0.26312 0.12537 0.0
H459 H 0.13808 0.17293 0.14354 0.0
H460 H 0.08931 0.18503 0.13324 0.0
H461 H 0.07695 0.26409 0.14308 0.0
H462 H 0.93673 0.32347 0.14318 0.0
H463 H 0.98725 0.3174 0.13365 0.0
C464 C 0.06377 0.00049 0.45422 0.0
C465 C 0.06947 0.97154 0.44879 0.0
C466 C 0.06522 0.00417 0.46715 0.0
C467 C 0.08683 0.97285 0.49764 0.0
H468 H 0.00504 0.00075 0.50706 0.0
C469 C 0.04035 0.97725 0.54911 0.0
C470 C 0.02723 0.00587 0.5522 0.0
C471 C 0.04811 0.97071 0.53665 0.0
C472 C 0.028 0.99305 0.50459 0.0
H473 H 0.08482 0.92475 0.45246 0.0
H474 H 0.08722 0.9313 0.47525 0.0
H475 H 0.01835 -0.00399 0.48505 0.0
H476 H 0.01123 0.04969 0.54496 0.0
H477 H 0.02363 0.03799 0.52325 0.0
H478 H 0.09643 0.97046 0.51737 0.0
C479 C 0.08146 0.95097 0.46944 0.0
C480 C 0.03566 0.99045 0.49201 0.0
C481 C 0.07998 0.94724 0.45642 0.0
C482 C 0.02126 0.02744 0.54274 0.0
C483 C 0.02833 0.02072 0.53034 0.0
C484 C 0.07916 0.97564 0.51035 0.0
C485 C 0.07242 0.97901 0.4749 0.0
C486 C 0.06522 0.98084 0.4884 0.0
C487 C 0.04208 0.99244 0.52716 0.0
C488 C 0.04978 0.98624 0.5139 0.0
H489 H 0.05623 0.01985 0.44857 0.0
H490 H 0.05869 0.02618 0.47116 0.0
H491 H 0.10972 0.96524 0.49504 0.0
H492 H 0.04549 0.9605 0.55635 0.0
H493 H 0.05863 0.94872 0.53441 0.0
C494 C 0.30585 0.74519 0.80035 0.0
C495 C 0.27898 0.72862 0.80318 0.0
C496 C 0.31294 0.75236 0.78786 0.0
C497 C 0.29424 0.7298 0.75532 0.0
H498 H 0.3163 0.81391 0.74656 0.0
C499 C 0.28254 0.77024 0.70547 0.0
C500 C 0.31102 0.777 0.69985 0.0
C501 C 0.2796 0.77021 0.71845 0.0
C502 C 0.31032 0.79035 0.74893 0.0
H503 H 0.23877 0.70614 0.79551 0.0
H504 H 0.25132 0.71779 0.77382 0.0
H505 H 0.31163 0.79903 0.76871 0.0
H506 H 0.35768 0.79268 0.70334 0.0
H507 H 0.35234 0.79275 0.72621 0.0
H508 H 0.292 0.72126 0.73565 0.0
C509 C 0.26711 0.72521 0.78106 0.0
C510 C 0.30786 0.78175 0.76156 0.0
C511 C 0.2599 0.71847 0.79347 0.0
C512 C 0.33553 0.7871 0.70742 0.0
C513 C 0.3325 0.7872 0.72049 0.0
C514 C 0.29637 0.73843 0.7428 0.0
C515 C 0.2934 0.7427 0.7781 0.0
C516 C 0.29932 0.75144 0.76487 0.0
C517 C 0.30498 0.77715 0.72607 0.0
C518 C 0.30395 0.76883 0.73948 0.0
H519 H 0.32045 0.75383 0.80778 0.0
H520 H 0.3334 0.76577 0.78586 0.0
H521 H 0.28823 0.70616 0.75753 0.0
H522 H 0.26304 0.76291 0.69989 0.0
H523 H 0.25801 0.76282 0.72257 0.0
C524 C 0.50542 0.94765 0.03849 0.0
C525 C 0.51647 0.96931 0.04714 0.0
C526 C 0.49824 0.95677 0.02628 0.0
C527 C 0.51829 0.01885 0.00399 0.0
H528 H 0.45886 0.9775 0.98274 0.0
C529 C 0.50222 0.05026 0.95211 0.0
C530 C 0.51062 0.0254 0.94442 0.0
C531 C 0.49619 0.0454 0.96479 0.0
C532 C 0.47532 0.98935 0.98864 0.0
H533 H 0.52628 0.01776 0.05021 0.0
H534 H 0.51258 0.03389 0.02916 0.0
H535 H 0.45998 0.96609 0.00519 0.0
H536 H 0.51744 0.97585 0.94365 0.0
H537 H 0.50602 0.96731 0.96579 0.0
H538 H 0.53352 0.04206 0.98743 0.0
C539 C 0.51064 0.00967 0.03155 0.0
C540 C 0.47617 0.9827 0.00145 0.0
C541 C 0.51835 0.00047 0.04364 0.0
C542 C 0.51113 0.99541 0.94941 0.0
C543 C 0.50442 0.99048 0.96202 0.0
C544 C 0.51702 0.02586 0.99128 0.0
C545 C 0.50153 0.9878 0.02258 0.0
C546 C 0.4981 -0.00305 0.00924 0.0
C547 C 0.49772 0.01553 0.96986 0.0
C548 C 0.49594 0.01078 0.98348 0.0
H549 H 0.50373 0.92347 0.04098 0.0
H550 H 0.49154 0.93922 0.01961 0.0
H551 H 0.536 0.02976 0.00958 0.0
H552 H 0.50178 0.0736 0.94847 0.0
H553 H 0.49115 0.06501 0.97073 0.0
C554 C 0.23563 0.20844 0.20365 0.0
C555 C 0.26092 0.21429 0.1958 0.0
C556 C 0.24017 0.203 0.2164 0.0
C557 C 0.29415 0.18128 0.24091 0.0
H558 H 0.25993 0.24961 0.25974 0.0
C559 C 0.33693 0.21495 0.2903 0.0
C560 C 0.3158 0.22848 0.29859 0.0
C561 C 0.32801 0.20761 0.27809 0.0
C562 C 0.26907 0.22989 0.25476 0.0
H563 H 0.31077 0.2165 0.19483 0.0
H564 H 0.31867 0.20611 0.21711 0.0
H565 H 0.24745 0.2441 0.23771 0.0
H566 H 0.26836 0.24322 0.30089 0.0
H567 H 0.25257 0.22956 0.27984 0.0
H568 H 0.31578 0.16695 0.25798 0.0
C569 C 0.29543 0.20614 0.2134 0.0
C570 C 0.26195 0.22685 0.24211 0.0
C571 C 0.29088 0.21227 0.20071 0.0
C572 C 0.28531 0.23326 0.29465 0.0
C573 C 0.2763 0.22555 0.28254 0.0
C574 C 0.30088 0.18398 0.25367 0.0
C575 C 0.27007 0.20254 0.2214 0.0
C576 C 0.27478 0.20284 0.23506 0.0
C577 C 0.29768 0.21334 0.274 0.0
C578 C 0.28881 0.20864 0.2607 0.0
H579 H 0.2123 0.20989 0.20009 0.0
H580 H 0.22032 0.20034 0.22245 0.0
H581 H 0.3043 0.16262 0.23558 0.0
H582 H 0.36059 0.21098 0.29312 0.0
H583 H 0.34519 0.19852 0.27174 0.0
C584 C 0.78529 0.26782 0.19818 0.0
C585 C 0.8158 0.26758 0.19378 0.0
C586 C 0.77904 0.27516 0.21065 0.0
C587 C 0.81034 0.26122 0.2403 0.0
H588 H 0.75834 0.32549 0.25421 0.0
C589 C 0.79563 0.26912 0.29281 0.0
C590 C 0.76529 0.27177 0.29721 0.0
C591 C 0.80253 0.27545 0.28035 0.0
C592 C 0.77274 0.30734 0.25043 0.0
H593 H 0.86353 0.2758 0.19872 0.0
H594 H 0.85262 0.2874 0.22069 0.0
H595 H 0.76828 0.32411 0.23155 0.0
H596 H 0.71876 0.28543 0.29234 0.0
H597 H 0.73067 0.29572 0.27033 0.0
H598 H 0.8139 0.24334 0.25881 0.0
C599 C 0.83363 0.28255 0.21441 0.0
C600 C 0.77847 0.30666 0.23753 0.0
C601 C 0.83982 0.27589 0.20189 0.0
C602 C 0.74231 0.28297 0.28914 0.0
C603 C 0.74917 0.289 0.27656 0.0
C604 C 0.80435 0.26163 0.25307 0.0
C605 C 0.80327 0.28174 0.2189 0.0
C606 C 0.79746 0.28365 0.23244 0.0
C607 C 0.77916 0.28411 0.27196 0.0
C608 C 0.78567 0.28477 0.25833 0.0
H609 H 0.76635 0.26168 0.19207 0.0
H610 H 0.7555 0.27415 0.21401 0.0
H611 H 0.82453 0.24292 0.23649 0.0
H612 H 0.81398 0.26116 0.29889 0.0
H613 H 0.82604 0.27239 0.27719 0.0
C614 C 0.80653 0.74247 0.69324 0.0
C615 C 0.78098 0.76077 0.69012 0.0
C616 C 0.81252 0.73505 0.70581 0.0
C617 C 0.79307 0.75962 0.73815 0.0
H618 H 0.81459 0.67579 0.74757 0.0
C619 C 0.78349 0.72261 0.78859 0.0
C620 C 0.81208 0.71508 0.79397 0.0
C621 C 0.77965 0.72205 0.77564 0.0
C622 C 0.80869 0.69926 0.74501 0.0
H623 H 0.74171 0.78566 0.69739 0.0
H624 H 0.75215 0.7733 0.71918 0.0
H625 H 0.81004 0.68963 0.72531 0.0
H626 H 0.85791 0.69752 0.79012 0.0
H627 H 0.85101 0.69644 0.76732 0.0
H628 H 0.79091 0.76914 0.75774 0.0
C629 C 0.76795 0.7649 0.71212 0.0
C630 C 0.8063 0.70728 0.73231 0.0
C631 C 0.76193 0.77204 0.69964 0.0
C632 C 0.8357 0.70371 0.78622 0.0
C633 C 0.83177 0.70303 0.77319 0.0
C634 C 0.79507 0.75155 0.75074 0.0
C635 C 0.79308 0.746 0.71539 0.0
C636 C 0.79812 0.73754 0.72875 0.0
C637 C 0.80423 0.71377 0.76781 0.0
C638 C 0.80255 0.72129 0.75431 0.0
H639 H 0.82105 0.73294 0.68596 0.0
H640 H 0.83213 0.72056 0.70801 0.0
H641 H 0.78742 0.78327 0.73577 0.0
H642 H 0.76463 0.73092 0.79431 0.0
H643 H 0.75803 0.72997 0.7717 0.0
C644 C 0.56156 0.45268 0.95144 0.0
C645 C 0.55056 0.47532 0.94315 0.0
C646 C 0.57025 0.46067 0.96363 0.0
C647 C 0.55578 0.52248 0.98684 0.0
H648 H 0.61618 0.47777 0.00656 0.0
C649 C 0.57762 0.55237 0.03825 0.0
C650 C 0.56857 0.52777 0.04598 0.0
C651 C 0.58344 0.54733 0.02554 0.0
C652 C 0.59949 0.49058 0.00108 0.0
H653 H 0.5421 0.52429 0.94077 0.0
H654 H 0.55831 0.53839 0.96174 0.0
H655 H 0.61118 0.46695 0.98413 0.0
H656 H 0.56112 0.47832 0.04682 0.0
H657 H 0.57197 0.4695 0.02468 0.0
H658 H 0.54415 0.54603 0.00377 0.0
C659 C 0.55911 0.51428 0.9591 0.0
C660 C 0.59638 0.48425 0.98829 0.0
C661 C 0.54995 0.50624 0.94703 0.0
C662 C 0.56781 0.49774 0.04103 0.0
C663 C 0.57423 0.49263 0.02841 0.0
C664 C 0.5593 0.52915 -0.00049 0.0
C665 C 0.56849 0.49153 0.9677 0.0
C666 C 0.57409 0.49978 0.98105 0.0
C667 C 0.58098 0.51753 0.02047 0.0
C668 C 0.58079 0.51297 0.00678 0.0
H669 H 0.56235 0.42866 0.94867 0.0
H670 H 0.5771 0.44244 0.96999 0.0
H671 H 0.5378 0.53438 0.98173 0.0
H672 H 0.57842 0.57573 0.04183 0.0
H673 H 0.58862 0.56686 0.01956 0.0
C674 C 0.00324 0.44717 0.53963 0.0
C675 C 0.01016 0.47002 0.54847 0.0
C676 C -0.00355 0.45543 0.52726 0.0
C677 C 0.01095 0.52053 0.50558 0.0
H678 H 0.96252 0.47132 0.48257 0.0
C679 C 0.00189 0.55108 0.4534 0.0
C680 C 0.01333 0.52728 0.44579 0.0
C681 C 0.99426 0.54521 0.46588 0.0
C682 C 0.9759 0.48536 0.48895 0.0
H683 H 0.01267 0.51925 0.55178 0.0
H684 H -0.00074 0.53375 0.5305 0.0
H685 H 0.96143 0.45941 0.50497 0.0
H686 H 0.02394 0.47839 0.44499 0.0
H687 H 0.0101 0.46812 0.46674 0.0
H688 H 0.02539 0.54638 0.48957 0.0
C689 C 0.00049 0.50945 0.53282 0.0
C690 C 0.97549 0.47845 0.50175 0.0
C691 C 0.00795 0.50118 0.54505 0.0
C692 C 0.01537 0.49722 0.45067 0.0
C693 C 0.00722 0.49126 0.46307 0.0
C694 C 0.0109 0.52772 0.49287 0.0
C695 C -0.00409 0.48671 0.52363 0.0
C696 C 0.99349 0.49562 0.5102 0.0
C697 C -0.00263 0.51535 0.47086 0.0
C698 C 0.99385 0.50989 0.48443 0.0
H699 H 0.00483 0.42295 0.54208 0.0
H700 H 0.99327 0.43723 0.52046 0.0
H701 H 0.02576 0.53384 0.51168 0.0
H702 H 8e-05 0.57446 0.44987 0.0
H703 H 0.98669 0.56413 0.47175 0.0
C704 C 0.25562 0.8307 0.64666 0.0
C705 C 0.2834 0.84331 0.65109 0.0
C706 C 0.2349 0.84883 0.63989 0.0
C707 C 0.23024 0.91475 0.61923 0.0
H708 H 0.14444 0.91908 0.62918 0.0
C709 C 0.14483 -0.00228 0.59509 0.0
C710 C 0.11392 0.98865 0.59404 0.0
C711 C 0.16564 0.97995 0.60199 0.0
C712 C 0.16817 0.91774 0.62611 0.0
H713 H 0.31129 0.88481 0.65183 0.0
H714 H 0.27514 0.91637 0.63972 0.0
H715 H 0.18046 0.88813 0.6414 0.0
H716 H 0.08064 0.95344 0.59899 0.0
H717 H 0.11721 0.92151 0.61046 0.0
H718 H 0.21805 0.94328 0.60368 0.0
C719 C 0.26949 0.89247 0.64161 0.0
C720 C 0.1888 0.90018 0.63319 0.0
C721 C 0.29004 0.87446 0.64858 0.0
C722 C 0.10434 0.96107 0.59973 0.0
C723 C 0.12529 0.94293 0.60641 0.0
C724 C 0.20952 0.93187 0.612 0.0
C725 C 0.24174 0.87979 0.63725 0.0
C726 C 0.22001 0.89865 0.62983 0.0
C727 C 0.15615 0.95234 0.60779 0.0
C728 C 0.17819 0.9337 0.61537 0.0
H729 H 0.24979 0.8068 0.64846 0.0
H730 H 0.21372 0.83852 0.63654 0.0
H731 H 0.25417 0.91358 0.61638 0.0
H732 H 0.1527 0.01911 0.59092 0.0
H733 H 0.18899 0.98833 0.60302 0.0
C734 C 0.30187 0.85066 0.83983 0.0
C735 C 0.2998 0.81953 0.84342 0.0
C736 C 0.32023 0.87118 0.8466 0.0
C737 C 0.35675 0.88074 0.87772 0.0
H738 H 0.4005 0.94709 0.86105 0.0
C739 C 0.44933 0.96052 0.90037 0.0
C740 C 0.44349 0.9922 0.89898 0.0
C741 C 0.43092 0.93891 0.89419 0.0
C742 C 0.38822 0.92874 0.8658 0.0
H743 H 0.31645 0.78529 0.85667 0.0
H744 H 0.34897 0.8209 0.86825 0.0
H745 H 0.37185 0.90961 0.84862 0.0
H746 H 0.41412 0.02641 0.89025 0.0
H747 H 0.38272 0.98854 0.87893 0.0
H748 H 0.3741 0.89966 0.89488 0.0
C749 C 0.33577 0.82967 0.86041 0.0
C750 C 0.37173 0.90734 0.85871 0.0
C751 C 0.31728 0.80919 0.8537 0.0
C752 C 0.41891 0.00204 0.89144 0.0
C753 C 0.40109 0.98049 0.88497 0.0
C754 C 0.37367 0.90191 0.88479 0.0
C755 C 0.33715 0.86102 0.85706 0.0
C756 C 0.35558 0.88319 0.86458 0.0
C757 C 0.40707 0.94879 0.88625 0.0
C758 C 0.38932 0.92618 0.87887 0.0
H759 H 0.28871 0.85942 0.83198 0.0
H760 H 0.32045 0.89522 0.84382 0.0
H761 H 0.34417 0.86278 0.88257 0.0
H762 H 0.46809 0.95255 0.90623 0.0
H763 H 0.43589 0.91455 0.89529 0.0
C764 C 0.45544 0.00084 0.10503 0.0
C765 C 0.4517 -0.00219 0.09207 0.0
C766 C 0.43613 0.0203 0.11184 0.0
C767 C 0.36083 0.0612 0.10929 0.0
H768 H 0.38851 0.09951 0.14009 0.0
C769 C 0.2964 0.15709 0.13644 0.0
C770 C 0.28786 0.14864 0.14864 0.0
C771 C 0.31631 0.13849 0.12953 0.0
C772 C 0.38058 0.08875 0.13153 0.0
H773 H 0.42629 0.01356 0.07587 0.0
H774 H 0.39379 0.0493 0.08758 0.0
H775 H 0.42491 0.06992 0.12751 0.0
H776 H 0.29345 0.1145 0.1633 0.0
H777 H 0.32957 0.08234 0.15128 0.0
H778 H 0.31683 0.08162 0.11315 0.0
C779 C 0.4105 0.03559 0.09266 0.0
C780 C 0.40129 0.07166 0.12433 0.0
C781 C 0.42923 0.01537 0.08591 0.0
C782 C 0.29968 0.12136 0.15389 0.0
C783 C 0.3203 0.10313 0.14707 0.0
C784 C 0.34038 0.07891 0.11634 0.0
C785 C 0.41323 0.03783 0.10578 0.0
C786 C 0.39164 0.05738 0.11316 0.0
C787 C 0.32857 0.11158 0.13484 0.0
C788 C 0.35007 0.09253 0.12754 0.0
H789 H 0.47251 0.98722 0.10997 0.0
H790 H 0.43867 0.02077 0.12191 0.0
H791 H 0.35223 0.0501 0.10092 0.0
H792 H 0.28739 0.17793 0.13217 0.0
H793 H 0.32249 0.14533 0.12011 0.0
C794 C 0.12607 0.02822 0.39817 0.0
C795 C 0.13601 -0.00199 0.40075 0.0
C796 C 0.14404 0.0478 0.3908 0.0
C797 C 0.19904 0.04782 0.36551 0.0
H798 H 0.22381 0.12834 0.37765 0.0
C799 C 0.28991 0.12296 0.34044 0.0
C800 C 0.28685 0.15522 0.34104 0.0
C801 C 0.26952 0.10386 0.34694 0.0
C802 C 0.21661 0.1062 0.374 0.0
H803 H 0.17234 0.96449 0.39769 0.0
H804 H 0.20343 -0.00135 0.38447 0.0
H805 H 0.19252 0.09493 0.39089 0.0
H806 H 0.25879 0.19264 0.34828 0.0
H807 H 0.22285 0.15935 0.35933 0.0
H808 H 0.22249 0.05916 0.34851 0.0
C809 C 0.18191 0.00714 0.38829 0.0
C810 C 0.1989 0.08703 0.38164 0.0
C811 C 0.16429 0.98776 0.3959 0.0
C812 C 0.2621 0.16789 0.34778 0.0
C813 C 0.24157 0.14879 0.35418 0.0
C814 C 0.21639 0.06716 0.35778 0.0
C815 C 0.17185 0.03726 0.38566 0.0
C816 C 0.19021 0.05763 0.37749 0.0
C817 C 0.24547 0.11658 0.35409 0.0
C818 C 0.2256 0.09651 0.36197 0.0
H819 H 0.10438 0.03668 0.40184 0.0
H820 H 0.13586 0.07096 0.38888 0.0
H821 H 0.19221 0.02532 0.36209 0.0
H822 H 0.30868 0.11245 0.3353 0.0
H823 H 0.27338 0.07917 0.34673 0.0
C824 C 0.97655 0.02789 0.38944 0.0
C825 C 0.97155 -0.00378 0.3875 0.0
C826 C 0.95515 0.04966 0.38532 0.0
C827 C 0.87292 0.05668 0.37596 0.0
H828 H 0.89875 0.13954 0.36728 0.0
C829 C 0.784 0.15483 0.36842 0.0
C830 C 0.79055 0.17629 0.35892 0.0
C831 C 0.80648 0.13355 0.37227 0.0
C832 C 0.89097 0.11646 0.36952 0.0
H833 H 0.94098 0.9627 0.37902 0.0
H834 H 0.90411 0.00089 0.37131 0.0
H835 H 0.93722 0.1004 0.37132 0.0
H836 H 0.82597 0.19245 0.34615 0.0
H837 H 0.86414 0.15504 0.35238 0.0
H838 H 0.82661 0.07243 0.37344 0.0
C839 C 0.92408 0.00883 0.37645 0.0
C840 C 0.91318 0.09399 0.37204 0.0
C841 C 0.94537 0.98692 0.38075 0.0
C842 C 0.82012 0.17644 0.35357 0.0
C843 C 0.84225 0.15496 0.35722 0.0
C844 C 0.85065 0.07906 0.37319 0.0
C845 C 0.92833 0.04048 0.37894 0.0
C846 C 0.90453 0.06383 0.37542 0.0
C847 C 0.83578 0.13302 0.36656 0.0
C848 C 0.85935 0.10931 0.36996 0.0
H849 H -0.00358 0.03594 0.39462 0.0
H850 H 0.95918 0.07363 0.38762 0.0
H851 H 0.86524 0.03391 0.37872 0.0
H852 H 0.76147 0.15424 0.37276 0.0
H853 H 0.80079 0.11746 0.37967 0.0
C854 C 0.61521 -0.00022 0.11296 0.0
C855 C 0.60769 0.00703 0.10051 0.0
C856 C 0.63416 0.0196 0.11988 0.0
C857 C 0.6638 0.09863 0.12181 0.0
H858 H 0.74217 0.06191 0.13091 0.0
C859 C 0.77026 0.17395 0.13121 0.0
C860 C 0.79028 0.16489 0.14086 0.0
C861 C 0.7468 0.1542 0.12719 0.0
C862 C 0.72027 0.07255 0.12868 0.0
H863 H 0.61202 0.04135 0.08583 0.0
H864 H 0.64424 0.07612 0.09799 0.0
H865 H 0.70006 0.02901 0.12392 0.0
H866 H 0.80214 0.12757 0.15355 0.0
H867 H 0.76097 0.09365 0.14683 0.0
H868 H 0.68373 0.14216 0.12655 0.0
C869 C 0.636 0.05509 0.10235 0.0
C870 C 0.69615 0.05363 0.12471 0.0
C871 C 0.61783 0.03505 0.09536 0.0
C872 C 0.78714 0.13527 0.14607 0.0
C873 C 0.7635 0.11571 0.14218 0.0
C874 C 0.68774 0.11754 0.12597 0.0
C875 C 0.64495 0.04723 0.11454 0.0
C876 C 0.66801 0.06659 0.12096 0.0
C877 C 0.74267 0.12511 0.13284 0.0
C878 C 0.71656 0.10481 0.12915 0.0
H879 H 0.60752 0.97832 0.11712 0.0
H880 H 0.64085 0.01315 0.1293 0.0
H881 H 0.6422 0.10908 0.11899 0.0
H882 H 0.77226 0.19656 0.12694 0.0
H883 H 0.73174 0.16189 0.11973 0.0
C884 C 0.75091 0.83311 0.8397 0.0
C885 C 0.77291 0.81469 0.84582 0.0
C886 C 0.73104 0.85193 0.84652 0.0
C887 C 0.72435 0.8963 0.87473 0.0
H888 H 0.63645 0.89348 0.86822 0.0
C889 C 0.63853 0.97562 0.90064 0.0
C890 C 0.613 0.98689 0.89394 0.0
C891 C 0.65791 0.95339 0.89542 0.0
C892 C 0.66096 0.8949 0.87003 0.0
H893 H 0.79161 0.80176 0.8639 0.0
H894 H 0.75717 0.83573 0.87589 0.0
H895 H 0.67053 0.85605 0.85826 0.0
H896 H 0.58827 0.98429 0.87636 0.0
H897 H 0.62278 0.94625 0.86702 0.0
H898 H 0.71525 0.93591 0.88603 0.0
C899 C 0.75524 0.83509 0.86579 0.0
C900 C 0.68039 0.87327 0.86441 0.0
C901 C 0.77483 0.8157 0.85895 0.0
C902 C 0.60767 0.97594 0.88177 0.0
C903 C 0.62731 0.9539 0.87648 0.0
C904 C 0.70499 0.91826 0.88022 0.0
C905 C 0.73303 0.85317 0.85961 0.0
C906 C 0.71227 0.87402 0.86659 0.0
C907 C 0.65252 0.94209 0.8833 0.0
C908 C 0.67306 0.91808 0.87782 0.0
H909 H 0.74875 0.83277 0.8296 0.0
H910 H 0.71433 0.86591 0.84154 0.0
H911 H 0.74893 0.89751 0.87645 0.0
H912 H 0.6432 0.98341 0.91007 0.0
H913 H 0.67674 0.94459 0.90104 0.0
C914 C 0.8178 0.79315 0.6172 0.0
C915 C 0.80031 0.79881 0.62799 0.0
C916 C 0.84798 0.80387 0.61631 0.0
C917 C 0.91023 0.8468 0.63298 0.0
H918 H 0.90955 0.89597 0.60263 0.0
C919 C 0.96581 0.96645 0.62935 0.0
C920 C 0.97762 0.97664 0.61783 0.0
C921 C 0.95219 0.93738 0.63038 0.0
C922 C 0.91075 0.88195 0.61101 0.0
H923 H 0.80134 0.81696 0.64682 0.0
H924 H 0.85401 0.83655 0.64522 0.0
H925 H 0.87227 0.85505 0.60522 0.0
H926 H 0.98577 0.96375 0.59849 0.0
H927 H 0.96205 0.91297 0.60032 0.0
H928 H 0.94803 0.87501 0.63895 0.0
C929 C 0.84468 0.82344 0.63748 0.0
C930 C 0.8893 0.85832 0.61251 0.0
C931 C 0.8145 0.81225 0.63843 0.0
C932 C 0.97661 0.95669 0.60748 0.0
C933 C 0.963 0.92759 0.60852 0.0
C934 C 0.93185 0.87048 0.63146 0.0
C935 C 0.86099 0.82103 0.62612 0.0
C936 C 0.88804 0.84117 0.62369 0.0
C937 C 0.95009 0.91783 0.61992 0.0
C938 C 0.93156 0.88906 0.62064 0.0
H939 H 0.80735 0.78246 0.60908 0.0
H940 H 0.86022 0.80092 0.60756 0.0
H941 H 0.91011 0.83372 0.64163 0.0
H942 H 0.96634 0.98122 0.63751 0.0
H943 H 0.94208 0.93082 0.63926 0.0
C944 C 0.79055 0.36923 0.1498 0.0
C945 C 0.78641 0.33708 0.14946 0.0
C946 C 0.77026 0.38879 0.14348 0.0
C947 C 0.714 0.38796 0.11752 0.0
H948 H 0.6933 0.46935 0.13004 0.0
C949 C 0.62231 0.46884 0.09558 0.0
C950 C 0.63281 0.49872 0.09281 0.0
C951 C 0.64069 0.44861 0.1025 0.0
C952 C 0.69907 0.4467 0.12645 0.0
H953 H 0.75679 0.30034 0.14273 0.0
H954 H 0.72096 0.3345 0.13198 0.0
H955 H 0.72447 0.4346 0.14288 0.0
H956 H 0.67058 0.531 0.09503 0.0
H957 H 0.70241 0.49573 0.10746 0.0
H958 H 0.68789 0.40003 0.1012 0.0
C959 C 0.74042 0.34457 0.13681 0.0
C960 C 0.71696 0.42684 0.13375 0.0
C961 C 0.76089 0.32498 0.14304 0.0
C962 C 0.66204 0.50801 0.097 0.0
C963 C 0.68012 0.488 0.10415 0.0
C964 C 0.69574 0.40765 0.11031 0.0
C965 C 0.74517 0.37667 0.13677 0.0
C966 C 0.72486 0.39731 0.12933 0.0
C967 C 0.66952 0.4582 0.10697 0.0
C968 C 0.68839 0.43723 0.11468 0.0
H969 H 0.80996 0.37933 0.15467 0.0
H970 H 0.77484 0.41335 0.14354 0.0
H971 H 0.72013 0.36565 0.1137 0.0
H972 H 0.5999 0.46111 0.09241 0.0
H973 H 0.63211 0.42571 0.10459 0.0
C974 C 0.79118 0.37005 0.34221 0.0
C975 C 0.79397 0.33777 0.34277 0.0
C976 C 0.81129 0.38888 0.34895 0.0
C977 C 0.86411 0.38691 0.37612 0.0
H978 H 0.89038 0.46616 0.36303 0.0
C979 C 0.95722 0.46709 0.39815 0.0
C980 C 0.94696 0.49733 0.40041 0.0
C981 C 0.93877 0.44645 0.39148 0.0
C982 C 0.88306 0.44411 0.36678 0.0
H983 H 0.82086 0.29999 0.35049 0.0
H984 H 0.85629 0.33286 0.36202 0.0
H985 H 0.8593 0.43203 0.34998 0.0
H986 H 0.90948 0.52973 0.39765 0.0
H987 H 0.87766 0.49384 0.38558 0.0
H988 H 0.88869 0.39899 0.39284 0.0
C989 C 0.83809 0.34362 0.35662 0.0
C990 C 0.8652 0.42462 0.35936 0.0
C991 C 0.81787 0.32478 0.34994 0.0
C992 C 0.91783 0.50649 0.39606 0.0
C993 C 0.89975 0.48611 0.38913 0.0
C994 C 0.88239 0.40625 0.38348 0.0
C995 C 0.8348 0.37589 0.35634 0.0
C996 C 0.85519 0.39592 0.36399 0.0
C997 C 0.91018 0.45604 0.38673 0.0
C998 C 0.89167 0.43511 0.3789 0.0
H999 H 0.77304 0.38085 0.33679 0.0
H1000 H 0.80783 0.41362 0.34863 0.0
H1001 H 0.85641 0.36521 0.38007 0.0
H1002 H 0.97954 0.45947 0.40149 0.0
H1003 H 0.94719 0.42332 0.38972 0.0
C1004 C 0.9616 0.52946 0.59779 0.0
C1005 C 0.94771 0.50235 0.59332 0.0
C1006 C 0.94383 0.55264 0.60328 0.0
C1007 C 0.86277 0.57973 0.6069 0.0
H1008 H 0.89623 0.62289 0.63563 0.0
C1009 C 0.79046 0.64621 0.64336 0.0
C1010 C 0.79896 0.67707 0.64533 0.0
C1011 C 0.80892 0.62687 0.6361 0.0
C1012 C 0.8868 0.61121 0.62753 0.0
H1013 H 0.90425 0.47831 0.59109 0.0
H1014 H 0.87338 0.51817 0.60107 0.0
H1015 H 0.92777 0.58473 0.62478 0.0
H1016 H 0.8334 0.71198 0.64144 0.0
H1017 H 0.86659 0.67748 0.62915 0.0
H1018 H 0.82122 0.60532 0.61016 0.0
C1019 C 0.8979 0.52199 0.60005 0.0
C1020 C 0.90484 0.58944 0.62127 0.0
C1021 C 0.91564 0.49898 0.59441 0.0
C1022 C 0.82639 0.68825 0.64003 0.0
C1023 C 0.84531 0.66861 0.63304 0.0
C1024 C 0.84458 0.60109 0.61331 0.0
C1025 C 0.91177 0.54912 0.60459 0.0
C1026 C 0.89299 0.57324 0.61092 0.0
C1027 C 0.83656 0.63785 0.63097 0.0
C1028 C 0.85642 0.61683 0.62371 0.0
H1029 H 0.98623 0.53295 0.59696 0.0
H1030 H 0.95526 0.57343 0.60643 0.0
H1031 H 0.85308 0.56824 0.59882 0.0
H1032 H 0.76926 0.63715 0.64726 0.0
H1033 H 0.80185 0.60316 0.63466 0.0
C1034 C 0.76031 0.66405 0.84912 0.0
C1035 C 0.78548 0.65039 0.84296 0.0
C1036 C 0.73978 0.64603 0.85603 0.0
C1037 C 0.71421 0.56504 0.86035 0.0
H1038 H 0.68049 0.59638 0.89147 0.0
C1039 C 0.65136 0.48904 0.8965 0.0
C1040 C 0.62126 0.4987 0.89931 0.0
C1041 C 0.6712 0.50838 0.88986 0.0
C1042 C 0.68967 0.58751 0.88276 0.0
H1043 H 0.809 0.60708 0.83937 0.0
H1044 H 0.77371 0.57581 0.85168 0.0
H1045 H 0.71595 0.62837 0.8793 0.0
H1046 H 0.58862 0.53645 0.89787 0.0
H1047 H 0.6239 0.57077 0.88658 0.0
H1048 H 0.68858 0.52381 0.86409 0.0
C1049 C 0.76935 0.60035 0.85092 0.0
C1050 C 0.70982 0.60581 0.87575 0.0
C1051 C 0.78972 0.61832 0.84391 0.0
C1052 C 0.61167 0.52842 0.89574 0.0
C1053 C 0.6318 0.54805 0.88935 0.0
C1054 C 0.69448 0.54663 0.86745 0.0
C1055 C 0.74409 0.61397 0.85705 0.0
C1056 C 0.72238 0.59476 0.86447 0.0
C1057 C 0.66152 0.53793 0.88619 0.0
C1058 C 0.68212 0.55771 0.87871 0.0
H1059 H 0.75627 0.68868 0.84853 0.0
H1060 H 0.72033 0.65724 0.86046 0.0
H1061 H 0.72286 0.55604 0.85158 0.0
H1062 H 0.65927 0.46619 0.89909 0.0
H1063 H 0.69411 0.50023 0.88755 0.0
C1064 C 0.45185 0.54765 0.89283 0.0
C1065 C 0.46568 0.52118 0.88775 0.0
C1066 C 0.4387 0.56988 0.88507 0.0
C1067 C 0.39488 0.58119 0.85822 0.0
H1068 H 0.41722 0.6672 0.86242 0.0
C1069 C 0.30429 0.67419 0.85009 0.0
C1070 C 0.30147 0.69244 0.86087 0.0
C1071 C 0.33148 0.65752 0.84791 0.0
C1072 C 0.41079 0.64331 0.86099 0.0
H1073 H 0.47632 0.49704 0.87052 0.0
H1074 H 0.45173 0.53578 0.85684 0.0
H1075 H 0.45225 0.62679 0.86962 0.0
H1076 H 0.32528 0.71004 0.87714 0.0
H1077 H 0.37218 0.68126 0.87349 0.0
H1078 H 0.35201 0.59741 0.8509 0.0
C1079 C 0.45193 0.53935 0.86687 0.0
C1080 C 0.43095 0.62024 0.86504 0.0
C1081 C 0.46585 0.51728 0.87467 0.0
C1082 C 0.32695 0.69603 0.86877 0.0
C1083 C 0.35401 0.67965 0.86658 0.0
C1084 C 0.37442 0.60429 0.85435 0.0
C1085 C 0.43854 0.56594 0.87205 0.0
C1086 C 0.42241 0.58908 0.86428 0.0
C1087 C 0.35615 0.659 0.85647 0.0
C1088 C 0.38136 0.63563 0.85642 0.0
H1089 H 0.45144 0.55144 0.90284 0.0
H1090 H 0.42805 0.58998 0.88927 0.0
H1091 H 0.38781 0.55726 0.85759 0.0
H1092 H 0.28472 0.67078 0.84397 0.0
H1093 H 0.33247 0.64208 0.83996 0.0
C1094 C 0.13339 0.52486 0.59178 0.0
C1095 C 0.11301 0.50645 0.59875 0.0
C1096 C 0.15242 0.54618 0.59771 0.0
C1097 C 0.19143 0.56297 0.62697 0.0
H1098 H 0.19962 0.64495 0.6127 0.0
C1099 C 0.29262 0.64342 0.63963 0.0
C1100 C 0.2856 0.67465 0.64173 0.0
C1101 C 0.27047 0.62353 0.63461 0.0
C1102 C 0.19747 0.62226 0.61687 0.0
H1103 H 0.0968 0.49566 0.61743 0.0
H1104 H 0.13096 0.53274 0.62791 0.0
H1105 H 0.16139 0.6094 0.60425 0.0
H1106 H 0.25011 0.70969 0.63983 0.0
H1107 H 0.21157 0.67501 0.63118 0.0
H1108 H 0.22764 0.57576 0.63956 0.0
C1109 C 0.13183 0.53069 0.61782 0.0
C1110 C 0.17571 0.60185 0.61198 0.0
C1111 C 0.11229 0.50958 0.61184 0.0
C1112 C 0.25633 0.68577 0.63831 0.0
C1113 C 0.23421 0.66589 0.63333 0.0
C1114 C 0.21338 0.58334 0.63182 0.0
C1115 C 0.15188 0.54937 0.61077 0.0
C1116 C 0.17278 0.57186 0.61685 0.0
C1117 C 0.24085 0.63444 0.63159 0.0
C1118 C 0.21691 0.61309 0.62672 0.0
H1119 H 0.13441 0.52315 0.58168 0.0
H1120 H 0.16791 0.55997 0.59206 0.0
H1121 H 0.18974 0.53994 0.63086 0.0
H1122 H 0.31501 0.63416 0.64209 0.0
H1123 H 0.27653 0.59955 0.63314 0.0
C1124 C 0.13034 0.46457 0.40115 0.0
C1125 C 0.11036 0.48383 0.39437 0.0
C1126 C 0.1481 0.44244 0.39507 0.0
C1127 C 0.18552 0.42548 0.36563 0.0
H1128 H 0.19701 0.34505 0.38095 0.0
C1129 C 0.29355 0.35249 0.3562 0.0
C1130 C 0.29025 0.3204 0.35507 0.0
C1131 C 0.26881 0.3707 0.36013 0.0
C1132 C 0.19386 0.36721 0.37643 0.0
H1133 H 0.09328 0.49505 0.37584 0.0
H1134 H 0.12526 0.45648 0.36507 0.0
H1135 H 0.15666 0.37923 0.38863 0.0
H1136 H 0.25858 0.28209 0.35743 0.0
H1137 H 0.21535 0.31385 0.36413 0.0
H1138 H 0.2229 0.4136 0.35349 0.0
C1139 C 0.12678 0.45852 0.37516 0.0
C1140 C 0.17086 0.38686 0.38089 0.0
C1141 C 0.10853 0.48051 0.3813 0.0
C1142 C 0.26198 0.30675 0.35832 0.0
C1143 C 0.23714 0.32498 0.36214 0.0
C1144 C 0.20858 0.40581 0.36116 0.0
C1145 C 0.14662 0.43918 0.38203 0.0
C1146 C 0.16711 0.41655 0.3758 0.0
C1147 C 0.24012 0.35723 0.36291 0.0
C1148 C 0.21361 0.37681 0.36676 0.0
H1149 H 0.13218 0.46638 0.41123 0.0
H1150 H 0.16354 0.42825 0.4006 0.0
H1151 H 0.18315 0.44824 0.36153 0.0
H1152 H 0.3151 0.36364 0.35382 0.0
H1153 H 0.27216 0.39537 0.36096 0.0
C1154 C 0.46847 0.48037 0.10962 0.0
C1155 C 0.46784 0.48306 0.09651 0.0
C1156 C 0.44956 0.45882 0.1157 0.0
C1157 C 0.40721 0.38643 0.11026 0.0
H1158 H 0.35288 0.41352 0.13686 0.0
C1159 C 0.32195 0.30423 0.13543 0.0
C1160 C 0.29248 0.31615 0.13804 0.0
C1161 C 0.34528 0.32346 0.1309 0.0
C1162 C 0.36787 0.40564 0.12942 0.0
H1163 H 0.44729 0.46504 0.0795 0.0
H1164 H 0.41485 0.4275 0.09005 0.0
H1165 H 0.39145 0.44906 0.12845 0.0
H1166 H 0.26405 0.35729 0.13739 0.0
H1167 H 0.30459 0.39069 0.12923 0.0
H1168 H 0.38323 0.34333 0.11095 0.0
C1169 C 0.42984 0.44194 0.09564 0.0
C1170 C 0.39019 0.42585 0.12473 0.0
C1171 C 0.44825 0.46368 0.08962 0.0
C1172 C 0.28655 0.34744 0.13557 0.0
C1173 C 0.30987 0.36665 0.13101 0.0
C1174 C 0.38506 0.36616 0.115 0.0
C1175 C 0.43023 0.43926 0.10873 0.0
C1176 C 0.40956 0.41667 0.1149 0.0
C1177 C 0.33965 0.35501 0.12884 0.0
C1178 C 0.36466 0.37576 0.12443 0.0
H1179 H 0.48335 0.49504 0.11516 0.0
H1180 H 0.45026 0.45722 0.12581 0.0
H1181 H 0.4221 0.37867 0.10276 0.0
H1182 H 0.32735 0.28024 0.13727 0.0
H1183 H 0.36798 0.31378 0.12937 0.0
loop_
_geom_bond_atom_site_label_1
_geom_bond_atom_site_label_2
_geom_bond_distance
_geom_bond_site_symmetry_2
_ccdc_geom_bond_type
Mg0 O1 2.028 . S
Mg0 O7 1.986 . S
Mg0 O9 2.114 . S
Mg0 O10 2.251 . S
Mg0 O13 2.010 . S
O1 Mg0 2.028 . S
O1 C4 1.250 . S
O2 Mg3 2.028 . S
O2 C4 1.248 . S
Mg3 O2 2.028 . S
Mg3 O8 2.032 . S
Mg3 O10 2.079 . S
C4 O1 1.250 . S
C4 O2 1.248 . S
C5 O6 1.264 . S
C5 O13 1.249 1_655 S
O6 C5 1.264 . S
O7 Mg0 1.986 . S
O7 C11 1.246 . S
O8 Mg3 2.032 . S
O8 C11 1.259 . S
O9 Mg0 2.114 . S
O9 C12 1.252 . S
O10 Mg0 2.251 . S
O10 Mg3 2.079 . S
O10 C12 1.273 . S
C11 O7 1.246 . S
C11 O8 1.259 . S
C12 O9 1.252 . S
C12 O10 1.273 . S
O13 Mg0 2.010 . S
O13 C5 1.249 1_455 S
Mg14 O15 2.028 . S
Mg14 O21 1.986 . S
Mg14 O23 2.114 . S
Mg14 O24 2.251 . S
Mg14 O27 2.010 . S
O15 Mg14 2.028 . S
O15 C18 1.250 . S
O16 Mg17 2.028 . S
O16 C18 1.248 . S
Mg17 O16 2.028 . S
Mg17 O22 2.032 . S
Mg17 O24 2.079 . S
C18 O15 1.250 . S
C18 O16 1.248 . S
C19 O20 1.264 . S
C19 O27 1.249 . S
O20 C19 1.264 . S
O21 Mg14 1.986 . S
O21 C25 1.246 . S
O22 Mg17 2.032 . S
O22 C25 1.259 . S
O23 Mg14 2.114 . S
O23 C26 1.252 . S
O24 Mg14 2.251 . S
O24 Mg17 2.079 . S
O24 C26 1.273 . S
C25 O21 1.246 . S
C25 O22 1.259 . S
C26 O23 1.252 . S
C26 O24 1.273 . S
O27 Mg14 2.010 . S
O27 C19 1.249 . S
Mg28 O29 2.028 . S
Mg28 O35 1.986 . S
Mg28 O37 2.114 . S
Mg28 O38 2.251 . S
Mg28 O41 2.010 . S
O29 Mg28 2.028 . S
O29 C32 1.250 . S
O30 Mg31 2.028 . S
O30 C32 1.248 . S
Mg31 O30 2.028 . S
Mg31 O36 2.032 . S
Mg31 O38 2.079 . S
C32 O29 1.250 . S
C32 O30 1.248 . S
C33 O34 1.264 . S
C33 O41 1.249 . S
O34 C33 1.264 . S
O35 Mg28 1.986 . S
O35 C39 1.246 . S
O36 Mg31 2.032 . S
O36 C39 1.259 . S
O37 Mg28 2.114 . S
O37 C40 1.252 . S
O38 Mg28 2.251 . S
O38 Mg31 2.079 . S
O38 C40 1.273 . S
C39 O35 1.246 . S
C39 O36 1.259 . S
C40 O37 1.252 . S
C40 O38 1.273 . S
O41 Mg28 2.010 . S
O41 C33 1.249 . S
Mg42 O43 2.028 . S
Mg42 O49 1.986 . S
Mg42 O51 2.114 . S
Mg42 O52 2.251 . S
Mg42 O55 2.010 . S
O43 Mg42 2.028 . S
O43 C46 1.250 . S
O44 Mg45 2.028 . S
O44 C46 1.248 . S
Mg45 O44 2.028 . S
Mg45 O50 2.032 . S
Mg45 O52 2.079 . S
C46 O43 1.250 . S
C46 O44 1.248 . S
C47 O48 1.264 . S
C47 O55 1.249 . S
O48 C47 1.264 . S
O49 Mg42 1.986 . S
O49 C53 1.246 . S
O50 Mg45 2.032 . S
O50 C53 1.259 . S
O51 Mg42 2.114 . S
O51 C54 1.252 . S
O52 Mg42 2.251 . S
O52 Mg45 2.079 . S
O52 C54 1.273 . S
C53 O49 1.246 . S
C53 O50 1.259 . S
C54 O51 1.252 . S
C54 O52 1.273 . S
O55 Mg42 2.010 . S
O55 C47 1.249 . S
Mg56 O57 2.028 . S
Mg56 O63 1.986 . S
Mg56 O65 2.114 . S
Mg56 O66 2.251 . S
Mg56 O69 2.010 . S
O57 Mg56 2.028 . S
O57 C60 1.250 . S
O58 Mg59 2.028 . S
O58 C60 1.248 . S
Mg59 O58 2.028 . S
Mg59 O64 2.032 . S
Mg59 O66 2.079 . S
C60 O57 1.250 . S
C60 O58 1.248 . S
C61 O62 1.264 . S
C61 O69 1.249 1_655 S
O62 C61 1.264 . S
O63 Mg56 1.986 . S
O63 C67 1.246 . S
O64 Mg59 2.032 . S
O64 C67 1.259 . S
O65 Mg56 2.114 . S
O65 C68 1.252 . S
O66 Mg56 2.251 . S
O66 Mg59 2.079 . S
O66 C68 1.273 . S
C67 O63 1.246 . S
C67 O64 1.259 . S
C68 O65 1.252 . S
C68 O66 1.273 . S
O69 Mg56 2.010 . S
O69 C61 1.249 1_455 S
Mg70 O71 2.028 . S
Mg70 O77 1.986 . S
Mg70 O79 2.114 . S
Mg70 O80 2.251 . S
Mg70 O83 2.010 . S
O71 Mg70 2.028 . S
O71 C74 1.250 . S
O72 Mg73 2.028 . S
O72 C74 1.248 . S
Mg73 O72 2.028 . S
Mg73 O78 2.032 . S
Mg73 O80 2.079 . S
C74 O71 1.250 . S
C74 O72 1.248 . S
C75 O76 1.264 . S
C75 O83 1.249 . S
O76 C75 1.264 . S
O77 Mg70 1.986 . S
O77 C81 1.246 . S
O78 Mg73 2.032 . S
O78 C81 1.259 . S
O79 Mg70 2.114 . S
O79 C82 1.252 . S
O80 Mg70 2.251 . S
O80 Mg73 2.079 . S
O80 C82 1.273 . S
C81 O77 1.246 . S
C81 O78 1.259 . S
C82 O79 1.252 . S
C82 O80 1.273 . S
O83 Mg70 2.010 . S
O83 C75 1.249 . S
Mg84 O85 2.028 . S
Mg84 O91 1.986 . S
Mg84 O93 2.114 . S
Mg84 O94 2.251 . S
Mg84 O97 2.010 . S
O85 Mg84 2.028 . S
O85 C88 1.250 . S
O86 Mg87 2.028 . S
O86 C88 1.248 . S
Mg87 O86 2.028 . S
Mg87 O92 2.032 . S
Mg87 O94 2.079 . S
C88 O85 1.250 . S
C88 O86 1.248 . S
C89 O90 1.264 . S
C89 O97 1.249 . S
O90 C89 1.264 . S
O91 Mg84 1.986 . S
O91 C95 1.246 . S
O92 Mg87 2.032 . S
O92 C95 1.259 . S
O93 Mg84 2.114 . S
O93 C96 1.252 . S
O94 Mg84 2.251 . S
O94 Mg87 2.079 . S
O94 C96 1.273 . S
C95 O91 1.246 . S
C95 O92 1.259 . S
C96 O93 1.252 . S
C96 O94 1.273 . S
O97 Mg84 2.010 . S
O97 C89 1.249 . S
Mg98 O99 2.028 . S
Mg98 O105 1.986 . S
Mg98 O107 2.114 . S
Mg98 O108 2.251 . S
Mg98 O111 2.010 . S
O99 Mg98 2.028 . S
O99 C102 1.250 . S
O100 Mg101 2.028 . S
O100 C102 1.248 . S
Mg101 O100 2.028 . S
Mg101 O106 2.032 . S
Mg101 O108 2.079 . S
C102 O99 1.250 . S
C102 O100 1.248 . S
C103 O104 1.264 . S
C103 O111 1.249 . S
O104 C103 1.264 . S
O105 Mg98 1.986 . S
O105 C109 1.246 . S
O106 Mg101 2.032 . S
O106 C109 1.259 . S
O107 Mg98 2.114 . S
O107 C110 1.252 . S
O108 Mg98 2.251 . S
O108 Mg101 2.079 . S
O108 C110 1.273 . S
C109 O105 1.246 . S
C109 O106 1.259 . S
C110 O107 1.252 . S
C110 O108 1.273 . S
O111 Mg98 2.010 . S
O111 C103 1.249 . S
Mg112 O113 2.028 . S
Mg112 O119 1.986 . S
Mg112 O121 2.114 . S
Mg112 O122 2.251 . S
Mg112 O125 2.010 . S
O113 Mg112 2.028 . S
O113 C116 1.250 . S
O114 Mg115 2.028 . S
O114 C116 1.248 . S
Mg115 O114 2.028 . S
Mg115 O120 2.032 . S
Mg115 O122 2.079 . S
C116 O113 1.250 . S
C116 O114 1.248 . S
C117 O118 1.264 . S
C117 O125 1.249 . S
O118 C117 1.264 . S
O119 Mg112 1.986 . S
O119 C123 1.246 . S
O120 Mg115 2.032 . S
O120 C123 1.259 . S
O121 Mg112 2.114 . S
O121 C124 1.252 . S
O122 Mg112 2.251 . S
O122 Mg115 2.079 . S
O122 C124 1.273 . S
C123 O119 1.246 . S
C123 O120 1.259 . S
C124 O121 1.252 . S
C124 O122 1.273 . S
O125 Mg112 2.010 . S
O125 C117 1.249 . S
Mg126 O127 2.028 . S
Mg126 O133 1.986 . S
Mg126 O135 2.114 . S
Mg126 O136 2.251 . S
Mg126 O139 2.010 . S
O127 Mg126 2.028 . S
O127 C130 1.250 . S
O128 Mg129 2.028 . S
O128 C130 1.248 . S
Mg129 O128 2.028 . S
Mg129 O134 2.032 . S
Mg129 O136 2.079 . S
C130 O127 1.250 . S
C130 O128 1.248 . S
C131 O132 1.264 . S
C131 O139 1.249 . S
O132 C131 1.264 . S
O133 Mg126 1.986 . S
O133 C137 1.246 . S
O134 Mg129 2.032 . S
O134 C137 1.259 . S
O135 Mg126 2.114 . S
O135 C138 1.252 . S
O136 Mg126 2.251 . S
O136 Mg129 2.079 . S
O136 C138 1.273 . S
C137 O133 1.246 . S
C137 O134 1.259 . S
C138 O135 1.252 . S
C138 O136 1.273 . S
O139 Mg126 2.010 . S
O139 C131 1.249 . S
Mg140 O141 2.028 . S
Mg140 O147 1.986 . S
Mg140 O149 2.114 . S
Mg140 O150 2.251 . S
Mg140 O153 2.010 . S
O141 Mg140 2.028 . S
O141 C144 1.250 . S
O142 Mg143 2.028 . S
O142 C144 1.248 . S
Mg143 O142 2.028 . S
Mg143 O148 2.032 . S
Mg143 O150 2.079 . S
C144 O141 1.250 . S
C144 O142 1.248 . S
C145 O146 1.264 . S
C145 O153 1.249 . S
O146 C145 1.264 . S
O147 Mg140 1.986 . S
O147 C151 1.246 . S
O148 Mg143 2.032 . S
O148 C151 1.259 . S
O149 Mg140 2.114 . S
O149 C152 1.252 . S
O150 Mg140 2.251 . S
O150 Mg143 2.079 . S
O150 C152 1.273 . S
C151 O147 1.246 . S
C151 O148 1.259 . S
C152 O149 1.252 . S
C152 O150 1.273 . S
O153 Mg140 2.010 . S
O153 C145 1.249 . S
Mg154 O155 2.028 . S
Mg154 O161 1.986 . S
Mg154 O163 2.114 . S
Mg154 O164 2.251 . S
Mg154 O167 2.010 . S
O155 Mg154 2.028 . S
O155 C158 1.250 . S
O156 Mg157 2.028 . S
O156 C158 1.248 . S
Mg157 O156 2.028 . S
Mg157 O162 2.032 . S
Mg157 O164 2.079 . S
C158 O155 1.250 . S
C158 O156 1.248 . S
C159 O160 1.264 . S
C159 O167 1.249 . S
O160 C159 1.264 . S
O161 Mg154 1.986 . S
O161 C165 1.246 . S
O162 Mg157 2.032 . S
O162 C165 1.259 . S
O163 Mg154 2.114 . S
O163 C166 1.252 . S
O164 Mg154 2.251 . S
O164 Mg157 2.079 . S
O164 C166 1.273 . S
C165 O161 1.246 . S
C165 O162 1.259 . S
C166 O163 1.252 . S
C166 O164 1.273 . S
O167 Mg154 2.010 . S
O167 C159 1.249 . S
Mg168 O169 2.028 . S
Mg168 O175 1.986 . S
Mg168 O177 2.114 . S
Mg168 O178 2.251 . S
Mg168 O181 2.010 . S
O169 Mg168 2.028 . S
O169 C172 1.250 . S
O170 Mg171 2.028 . S
O170 C172 1.248 . S
Mg171 O170 2.028 . S
Mg171 O176 2.032 . S
Mg171 O178 2.079 . S
C172 O169 1.250 . S
C172 O170 1.248 . S
C173 O174 1.264 . S
C173 O181 1.249 . S
O174 C173 1.264 . S
O175 Mg168 1.986 . S
O175 C179 1.246 . S
O176 Mg171 2.032 . S
O176 C179 1.259 . S
O177 Mg168 2.114 . S
O177 C180 1.252 . S
O178 Mg168 2.251 . S
O178 Mg171 2.079 . S
O178 C180 1.273 . S
C179 O175 1.246 . S
C179 O176 1.259 . S
C180 O177 1.252 . S
C180 O178 1.273 . S
O181 Mg168 2.010 . S
O181 C173 1.249 . S
Mg182 O183 2.028 . S
Mg182 O189 1.986 . S
Mg182 O191 2.114 . S
Mg182 O192 2.251 . S
Mg182 O195 2.010 . S
O183 Mg182 2.028 . S
O183 C186 1.250 1_455 S
O184 Mg185 2.028 . S
O184 C186 1.248 . S
Mg185 O184 2.028 . S
Mg185 O190 2.032 . S
Mg185 O192 2.079 1_655 S
C186 O183 1.250 1_655 S
C186 O184 1.248 . S
C187 O188 1.264 . S
C187 O195 1.249 . S
O188 C187 1.264 . S
O189 Mg182 1.986 . S
O189 C193 1.246 . S
O190 Mg185 2.032 . S
O190 C193 1.259 1_655 S
O191 Mg182 2.114 . S
O191 C194 1.252 . S
O192 Mg182 2.251 . S
O192 Mg185 2.079 1_455 S
O192 C194 1.273 . S
C193 O189 1.246 . S
C193 O190 1.259 1_455 S
C194 O191 1.252 . S
C194 O192 1.273 . S
O195 Mg182 2.010 . S
O195 C187 1.249 . S
Mg196 O197 2.028 . S
Mg196 O203 1.986 . S
Mg196 O205 2.114 . S
Mg196 O206 2.251 . S
Mg196 O209 2.010 . S
O197 Mg196 2.028 . S
O197 C200 1.250 . S
O198 Mg199 2.028 . S
O198 C200 1.248 . S
Mg199 O198 2.028 . S
Mg199 O204 2.032 . S
Mg199 O206 2.079 . S
C200 O197 1.250 . S
C200 O198 1.248 . S
C201 O202 1.264 . S
C201 O209 1.249 . S
O202 C201 1.264 . S
O203 Mg196 1.986 . S
O203 C207 1.246 . S
O204 Mg199 2.032 . S
O204 C207 1.259 . S
O205 Mg196 2.114 . S
O205 C208 1.252 . S
O206 Mg196 2.251 . S
O206 Mg199 2.079 . S
O206 C208 1.273 . S
C207 O203 1.246 . S
C207 O204 1.259 . S
C208 O205 1.252 . S
C208 O206 1.273 . S
O209 Mg196 2.010 . S
O209 C201 1.249 . S
Mg210 O211 2.028 . S
Mg210 O217 1.986 . S
Mg210 O219 2.114 . S
Mg210 O220 2.251 . S
Mg210 O223 2.010 . S
O211 Mg210 2.028 . S
O211 C214 1.250 1_455 S
O212 Mg213 2.028 . S
O212 C214 1.248 . S
Mg213 O212 2.028 . S
Mg213 O218 2.032 . S
Mg213 O220 2.079 1_655 S
C214 O211 1.250 1_655 S
C214 O212 1.248 . S
C215 O216 1.264 . S
C215 O223 1.249 . S
O216 C215 1.264 . S
O217 Mg210 1.986 . S
O217 C221 1.246 . S
O218 Mg213 2.032 . S
O218 C221 1.259 1_655 S
O219 Mg210 2.114 . S
O219 C222 1.252 . S
O220 Mg210 2.251 . S
O220 Mg213 2.079 1_455 S
O220 C222 1.273 . S
C221 O217 1.246 . S
C221 O218 1.259 1_455 S
C222 O219 1.252 . S
C222 O220 1.273 . S
O223 Mg210 2.010 . S
O223 C215 1.249 . S
C224 C225 1.349 . S
C224 C226 1.327 . S
C224 H249 0.950 . S
C225 C224 1.349 . S
C225 C241 1.349 . S
C226 C224 1.327 . S
C226 C245 1.429 . S
C226 H250 0.950 . S
C227 C244 1.574 . S
C227 C246 1.368 . S
C227 H251 0.949 . S
H228 C232 0.949 . S
C229 C230 1.349 . S
C229 C231 1.327 . S
C229 H252 0.950 . S
C230 C229 1.349 . S
C230 C242 1.349 . S
C231 C229 1.327 . S
C231 C247 1.429 . S
C231 H253 0.950 . S
C232 H228 0.949 . S
C232 C240 1.574 . S
C232 C248 1.368 . S
H233 C241 0.950 . S
H234 C239 0.950 . S
H235 C240 0.949 . S
H236 C242 0.966 . S
H237 C243 0.950 . S
H238 C244 0.949 . S
C239 H234 0.950 . S
C239 C241 1.327 . S
C239 C245 1.429 . S
C240 C232 1.574 . S
C240 H235 0.949 . S
C240 C246 1.368 . S
C241 C225 1.349 . S
C241 H233 0.950 . S
C241 C239 1.327 . S
C242 C230 1.349 . S
C242 H236 0.966 . S
C242 C243 1.327 . S
C243 H237 0.950 . S
C243 C242 1.327 . S
C243 C247 1.429 . S
C244 C227 1.574 . S
C244 H238 0.949 . S
C244 C248 1.368 . S
C245 C226 1.429 . S
C245 C239 1.429 . S
C245 C246 1.523 . S
C246 C227 1.368 . S
C246 C240 1.368 . S
C246 C245 1.523 . S
C247 C231 1.429 . S
C247 C243 1.429 . S
C247 C248 1.523 . S
C248 C232 1.368 . S
C248 C244 1.368 . S
C248 C247 1.523 . S
H249 C224 0.950 . S
H250 C226 0.950 . S
H251 C227 0.949 . S
H252 C229 0.950 . S
H253 C231 0.950 . S
C254 C255 1.349 . S
C254 C256 1.327 . S
C254 H279 0.950 . S
C255 C254 1.349 . S
C255 C271 1.349 . S
C256 C254 1.327 . S
C256 C275 1.429 . S
C256 H280 0.950 . S
C257 C274 1.574 . S
C257 C276 1.368 . S
C257 H281 0.949 . S
H258 C262 0.949 . S
C259 C260 1.349 . S
C259 C261 1.327 . S
C259 H282 0.950 . S
C260 C259 1.349 . S
C260 C272 1.349 . S
C261 C259 1.327 . S
C261 C277 1.429 . S
C261 H283 0.950 . S
C262 H258 0.949 . S
C262 C270 1.574 . S
C262 C278 1.368 . S
H263 C271 0.950 . S
H264 C269 0.950 . S
H265 C270 0.949 . S
H266 C272 0.950 . S
H267 C273 0.950 . S
H268 C274 0.949 . S
C269 H264 0.950 . S
C269 C271 1.327 . S
C269 C275 1.429 . S
C270 C262 1.574 . S
C270 H265 0.949 . S
C270 C276 1.368 . S
C271 C255 1.349 . S
C271 H263 0.950 . S
C271 C269 1.327 . S
C272 C260 1.349 . S
C272 H266 0.950 . S
C272 C273 1.327 . S
C273 H267 0.950 . S
C273 C272 1.327 . S
C273 C277 1.429 . S
C274 C257 1.574 . S
C274 H268 0.949 . S
C274 C278 1.368 . S
C275 C256 1.429 . S
C275 C269 1.429 . S
C275 C276 1.523 1_655 S
C276 C257 1.368 . S
C276 C270 1.368 . S
C276 C275 1.523 1_455 S
C277 C261 1.429 . S
C277 C273 1.429 . S
C277 C278 1.523 . S
C278 C262 1.368 . S
C278 C274 1.368 . S
C278 C277 1.523 . S
H279 C254 0.950 . S
H280 C256 0.950 . S
H281 C257 0.949 . S
H282 C259 0.950 . S
H283 C261 0.950 . S
C284 C285 1.349 . S
C284 C286 1.327 . S
C284 H309 0.950 . S
C285 C284 1.349 . S
C285 C301 1.349 . S
C286 C284 1.327 . S
C286 C305 1.429 . S
C286 H310 0.950 . S
C287 C304 1.574 . S
C287 C306 1.368 . S
C287 H311 0.949 . S
H288 C292 0.949 . S
C289 C290 1.349 . S
C289 C291 1.327 . S
C289 H312 0.950 . S
C290 C289 1.349 . S
C290 C302 1.349 . S
C291 C289 1.327 . S
C291 C307 1.429 . S
C291 H313 0.950 . S
C292 H288 0.949 . S
C292 C300 1.574 . S
C292 C308 1.368 . S
H293 C301 0.950 . S
H294 C299 0.950 . S
H295 C300 0.949 . S
H296 C302 0.950 . S
H297 C303 0.950 . S
H298 C304 0.949 . S
C299 H294 0.950 . S
C299 C301 1.327 . S
C299 C305 1.429 . S
C300 C292 1.574 . S
C300 H295 0.949 . S
C300 C306 1.368 . S
C301 C285 1.349 . S
C301 H293 0.950 . S
C301 C299 1.327 . S
C302 C290 1.349 . S
C302 H296 0.950 . S
C302 C303 1.327 . S
C303 H297 0.950 . S
C303 C302 1.327 . S
C303 C307 1.429 . S
C304 C287 1.574 . S
C304 H298 0.949 . S
C304 C308 1.368 . S
C305 C286 1.429 . S
C305 C299 1.429 . S
C305 C306 1.523 . S
C306 C287 1.368 . S
C306 C300 1.368 . S
C306 C305 1.523 . S
C307 C291 1.429 . S
C307 C303 1.429 . S
C307 C308 1.523 . S
C308 C292 1.368 . S
C308 C304 1.368 . S
C308 C307 1.523 . S
H309 C284 0.950 . S
H310 C286 0.950 . S
H311 C287 0.949 . S
H312 C289 0.950 . S
H313 C291 0.950 . S
C314 C315 1.349 . S
C314 C316 1.327 . S
C314 H339 0.950 . S
C315 C314 1.349 . S
C315 C331 1.349 . S
C316 C314 1.327 . S
C316 C335 1.429 . S
C316 H340 0.950 . S
C317 C334 1.574 . S
C317 C336 1.368 . S
C317 H341 0.949 . S
H318 C322 0.949 . S
C319 C320 1.349 . S
C319 C321 1.327 . S
C319 H342 0.950 . S
C320 C319 1.349 . S
C320 C332 1.349 . S
C321 C319 1.327 . S
C321 C337 1.429 . S
C321 H343 0.950 . S
C322 H318 0.949 . S
C322 C330 1.574 . S
C322 C338 1.368 . S
H323 C331 0.950 . S
H324 C329 0.950 . S
H325 C330 0.949 . S
H326 C332 0.950 . S
H327 C333 0.950 . S
H328 C334 0.949 . S
C329 H324 0.950 . S
C329 C331 1.327 . S
C329 C335 1.429 . S
C330 C322 1.574 . S
C330 H325 0.949 . S
C330 C336 1.368 . S
C331 C315 1.349 . S
C331 H323 0.950 . S
C331 C329 1.327 . S
C332 C320 1.349 . S
C332 H326 0.950 . S
C332 C333 1.327 . S
C333 H327 0.950 . S
C333 C332 1.327 . S
C333 C337 1.429 . S
C334 C317 1.574 . S
C334 H328 0.949 . S
C334 C338 1.368 . S
C335 C316 1.429 . S
C335 C329 1.429 . S
C335 C336 1.523 . S
C336 C317 1.368 . S
C336 C330 1.368 . S
C336 C335 1.523 . S
C337 C321 1.429 . S
C337 C333 1.429 . S
C337 C338 1.523 . S
C338 C322 1.368 . S
C338 C334 1.368 . S
C338 C337 1.523 . S
H339 C314 0.950 . S
H340 C316 0.950 . S
H341 C317 0.949 . S
H342 C319 0.950 . S
H343 C321 0.950 . S
C344 C345 1.349 . S
C344 C346 1.327 . S
C344 H369 0.950 . S
C345 C344 1.349 . S
C345 C361 1.349 . S
C346 C344 1.327 . S
C346 C365 1.429 . S
C346 H370 0.950 . S
C347 C364 1.574 . S
C347 C366 1.368 . S
C347 H371 0.949 . S
H348 C352 0.949 . S
C349 C350 1.349 . S
C349 C351 1.327 . S
C349 H372 0.950 . S
C350 C349 1.349 . S
C350 C362 1.349 . S
C351 C349 1.327 . S
C351 C367 1.429 . S
C351 H373 0.950 . S
C352 H348 0.949 . S
C352 C360 1.574 . S
C352 C368 1.368 . S
H353 C361 0.950 . S
H354 C359 0.950 . S
H355 C360 0.949 . S
H356 C362 0.966 . S
H357 C363 0.950 . S
H358 C364 0.949 . S
C359 H354 0.950 . S
C359 C361 1.327 . S
C359 C365 1.429 . S
C360 C352 1.574 . S
C360 H355 0.949 . S
C360 C366 1.368 . S
C361 C345 1.349 . S
C361 H353 0.950 . S
C361 C359 1.327 . S
C362 C350 1.349 . S
C362 H356 0.966 . S
C362 C363 1.327 . S
C363 H357 0.950 . S
C363 C362 1.327 . S
C363 C367 1.429 . S
C364 C347 1.574 . S
C364 H358 0.949 . S
C364 C368 1.368 . S
C365 C346 1.429 . S
C365 C359 1.429 . S
C365 C366 1.523 . S
C366 C347 1.368 . S
C366 C360 1.368 . S
C366 C365 1.523 . S
C367 C351 1.429 . S
C367 C363 1.429 . S
C367 C368 1.523 . S
C368 C352 1.368 . S
C368 C364 1.368 . S
C368 C367 1.523 . S
H369 C344 0.950 . S
H370 C346 0.950 . S
H371 C347 0.949 . S
H372 C349 0.950 . S
H373 C351 0.950 . S
C374 C375 1.349 . S
C374 C376 1.327 . S
C374 H399 0.950 . S
C375 C374 1.349 . S
C375 C391 1.349 . S
C376 C374 1.327 . S
C376 C395 1.429 . S
C376 H400 0.950 . S
C377 C394 1.574 . S
C377 C396 1.368 . S
C377 H401 0.949 . S
H378 C382 0.949 . S
C379 C380 1.349 . S
C379 C381 1.327 . S
C379 H402 0.950 . S
C380 C379 1.349 . S
C380 C392 1.349 . S
C381 C379 1.327 . S
C381 C397 1.429 . S
C381 H403 0.950 . S
C382 H378 0.949 . S
C382 C390 1.574 . S
C382 C398 1.368 . S
H383 C391 0.950 . S
H384 C389 0.950 . S
H385 C390 0.949 . S
H386 C392 0.950 . S
H387 C393 0.950 . S
H388 C394 0.949 . S
C389 H384 0.950 . S
C389 C391 1.327 . S
C389 C395 1.429 . S
C390 C382 1.574 . S
C390 H385 0.949 . S
C390 C396 1.368 . S
C391 C375 1.349 . S
C391 H383 0.950 . S
C391 C389 1.327 . S
C392 C380 1.349 . S
C392 H386 0.950 . S
C392 C393 1.327 . S
C393 H387 0.950 . S
C393 C392 1.327 . S
C393 C397 1.429 . S
C394 C377 1.574 . S
C394 H388 0.949 . S
C394 C398 1.368 . S
C395 C376 1.429 . S
C395 C389 1.429 . S
C395 C396 1.523 . S
C396 C377 1.368 . S
C396 C390 1.368 . S
C396 C395 1.523 . S
C397 C381 1.429 . S
C397 C393 1.429 . S
C397 C398 1.523 . S
C398 C382 1.368 . S
C398 C394 1.368 . S
C398 C397 1.523 . S
H399 C374 0.950 . S
H400 C376 0.950 . S
H401 C377 0.949 . S
H402 C379 0.950 . S
H403 C381 0.950 . S
C404 C405 1.349 . S
C404 C406 1.327 . S
C404 H429 0.950 . S
C405 C404 1.349 . S
C405 C421 1.349 . S
C406 C404 1.327 . S
C406 C425 1.429 . S
C406 H430 0.950 . S
C407 C424 1.574 . S
C407 C426 1.368 . S
C407 H431 0.949 . S
H408 C412 0.949 . S
C409 C410 1.349 . S
C409 C411 1.327 . S
C409 H432 0.950 . S
C410 C409 1.349 . S
C410 C422 1.349 . S
C411 C409 1.327 . S
C411 C427 1.429 . S
C411 H433 0.950 . S
C412 H408 0.949 . S
C412 C420 1.574 . S
C412 C428 1.368 . S
H413 C421 0.950 . S
H414 C419 0.950 . S
H415 C420 0.949 . S
H416 C422 0.950 . S
H417 C423 0.950 . S
H418 C424 0.949 . S
C419 H414 0.950 . S
C419 C421 1.327 . S
C419 C425 1.429 . S
C420 C412 1.574 . S
C420 H415 0.949 . S
C420 C426 1.368 . S
C421 C405 1.349 . S
C421 H413 0.950 . S
C421 C419 1.327 . S
C422 C410 1.349 . S
C422 H416 0.950 . S
C422 C423 1.327 . S
C423 H417 0.950 . S
C423 C422 1.327 . S
C423 C427 1.429 . S
C424 C407 1.574 . S
C424 H418 0.949 . S
C424 C428 1.368 . S
C425 C406 1.429 . S
C425 C419 1.429 . S
C425 C426 1.523 . S
C426 C407 1.368 . S
C426 C420 1.368 . S
C426 C425 1.523 . S
C427 C411 1.429 . S
C427 C423 1.429 . S
C427 C428 1.523 . S
C428 C412 1.368 . S
C428 C424 1.368 . S
C428 C427 1.523 . S
H429 C404 0.950 . S
H430 C406 0.950 . S
H431 C407 0.949 . S
H432 C409 0.950 . S
H433 C411 0.950 . S
C434 C435 1.349 . S
C434 C436 1.327 . S
C434 H459 0.950 . S
C435 C434 1.349 . S
C435 C451 1.349 . S
C436 C434 1.327 . S
C436 C455 1.429 . S
C436 H460 0.950 . S
C437 C454 1.574 . S
C437 C456 1.368 . S
C437 H461 0.949 . S
H438 C442 0.949 . S
C439 C440 1.349 . S
C439 C441 1.327 . S
C439 H462 0.950 . S
C440 C439 1.349 . S
C440 C452 1.349 . S
C441 C439 1.327 . S
C441 C457 1.429 . S
C441 H463 0.950 . S
C442 H438 0.949 . S
C442 C450 1.574 . S
C442 C458 1.368 . S
H443 C451 0.950 . S
H444 C449 0.950 . S
H445 C450 0.949 . S
H446 C452 0.950 . S
H447 C453 0.950 . S
H448 C454 0.949 . S
C449 H444 0.950 . S
C449 C451 1.327 . S
C449 C455 1.429 . S
C450 C442 1.574 . S
C450 H445 0.949 . S
C450 C456 1.368 . S
C451 C435 1.349 . S
C451 H443 0.950 . S
C451 C449 1.327 . S
C452 C440 1.349 . S
C452 H446 0.950 . S
C452 C453 1.327 . S
C453 H447 0.950 . S
C453 C452 1.327 . S
C453 C457 1.429 . S
C454 C437 1.574 . S
C454 H448 0.949 . S
C454 C458 1.368 . S
C455 C436 1.429 . S
C455 C449 1.429 . S
C455 C456 1.523 . S
C456 C437 1.368 . S
C456 C450 1.368 . S
C456 C455 1.523 . S
C457 C441 1.429 . S
C457 C453 1.429 . S
C457 C458 1.523 1_655 S
C458 C442 1.368 . S
C458 C454 1.368 . S
C458 C457 1.523 1_455 S
H459 C434 0.950 . S
H460 C436 0.950 . S
H461 C437 0.949 . S
H462 C439 0.950 . S
H463 C441 0.950 . S
C464 C465 1.349 . S
C464 C466 1.327 1_565 S
C464 H489 0.950 1_565 S
C465 C464 1.349 . S
C465 C481 1.349 . S
C466 C464 1.327 1_545 S
C466 C485 1.429 1_545 S
C466 H490 0.950 . S
C467 C484 1.574 . S
C467 C486 1.368 . S
C467 H491 0.949 . S
H468 C472 0.949 . S
C469 C470 1.349 . S
C469 C471 1.327 1_545 S
C469 H492 0.950 1_545 S
C470 C469 1.349 . S
C470 C482 1.349 . S
C471 C469 1.327 1_565 S
C471 C487 1.429 1_565 S
C471 H493 0.950 . S
C472 H468 0.949 . S
C472 C480 1.574 . S
C472 C488 1.368 . S
H473 C481 0.950 . S
H474 C479 0.950 . S
H475 C480 0.949 . S
H476 C482 0.950 . S
H477 C483 0.950 . S
H478 C484 0.949 . S
C479 H474 0.950 . S
C479 C481 1.327 . S
C479 C485 1.429 . S
C480 C472 1.574 . S
C480 H475 0.949 . S
C480 C486 1.368 1_545 S
C481 C465 1.349 . S
C481 H473 0.950 . S
C481 C479 1.327 . S
C482 C470 1.349 . S
C482 H476 0.950 . S
C482 C483 1.327 . S
C483 H477 0.950 . S
C483 C482 1.327 . S
C483 C487 1.429 . S
C484 C467 1.574 . S
C484 H478 0.949 . S
C484 C488 1.368 1_565 S
C485 C466 1.429 1_565 S
C485 C479 1.429 . S
C485 C486 1.523 . S
C486 C467 1.368 . S
C486 C480 1.368 1_565 S
C486 C485 1.523 . S
C487 C471 1.429 1_545 S
C487 C483 1.429 . S
C487 C488 1.523 . S
C488 C472 1.368 . S
C488 C484 1.368 1_545 S
C488 C487 1.523 . S
H489 C464 0.950 1_545 S
H490 C466 0.950 . S
H491 C467 0.949 . S
H492 C469 0.950 1_565 S
H493 C471 0.950 . S
C494 C495 1.349 . S
C494 C496 1.327 . S
C494 H519 0.950 . S
C495 C494 1.349 . S
C495 C511 1.349 . S
C496 C494 1.327 . S
C496 C515 1.429 . S
C496 H520 0.950 . S
C497 C514 1.574 . S
C497 C516 1.368 . S
C497 H521 0.949 . S
H498 C502 0.949 . S
C499 C500 1.349 . S
C499 C501 1.327 . S
C499 H522 0.950 . S
C500 C499 1.349 . S
C500 C512 1.349 . S
C501 C499 1.327 . S
C501 C517 1.429 . S
C501 H523 0.950 . S
C502 H498 0.949 . S
C502 C510 1.574 . S
C502 C518 1.368 . S
H503 C511 0.950 . S
H504 C509 0.950 . S
H505 C510 0.949 . S
H506 C512 0.950 . S
H507 C513 0.950 . S
H508 C514 0.949 . S
C509 H504 0.950 . S
C509 C511 1.327 . S
C509 C515 1.429 . S
C510 C502 1.574 . S
C510 H505 0.949 . S
C510 C516 1.368 . S
C511 C495 1.349 . S
C511 H503 0.950 . S
C511 C509 1.327 . S
C512 C500 1.349 . S
C512 H506 0.950 . S
C512 C513 1.327 . S
C513 H507 0.950 . S
C513 C512 1.327 . S
C513 C517 1.429 . S
C514 C497 1.574 . S
C514 H508 0.949 . S
C514 C518 1.368 . S
C515 C496 1.429 . S
C515 C509 1.429 . S
C515 C516 1.523 . S
C516 C497 1.368 . S
C516 C510 1.368 . S
C516 C515 1.523 . S
C517 C501 1.429 . S
C517 C513 1.429 . S
C517 C518 1.523 . S
C518 C502 1.368 . S
C518 C514 1.368 . S
C518 C517 1.523 . S
H519 C494 0.950 . S
H520 C496 0.950 . S
H521 C497 0.949 . S
H522 C499 0.950 . S
H523 C501 0.950 . S
C524 C525 1.349 . S
C524 C526 1.327 . S
C524 H549 0.950 . S
C525 C524 1.349 . S
C525 C541 1.349 1_565 S
C526 C524 1.327 . S
C526 C545 1.429 . S
C526 H550 0.950 . S
C527 C544 1.574 1_554 S
C527 C546 1.368 1_545 S
C527 H551 0.949 . S
H528 C532 0.949 . S
C529 C530 1.349 . S
C529 C531 1.327 . S
C529 H552 0.950 . S
C530 C529 1.349 . S
C530 C542 1.349 1_545 S
C531 C529 1.327 . S
C531 C547 1.429 . S
C531 H553 0.950 . S
C532 H528 0.949 . S
C532 C540 1.574 1_556 S
C532 C548 1.368 1_565 S
H533 C541 0.950 . S
H534 C539 0.950 . S
H535 C540 0.949 . S
H536 C542 0.950 . S
H537 C543 0.950 . S
H538 C544 0.949 . S
C539 H534 0.950 . S
C539 C541 1.327 . S
C539 C545 1.429 1_545 S
C540 C532 1.574 1_554 S
C540 H535 0.949 . S
C540 C546 1.368 . S
C541 C525 1.349 1_545 S
C541 H533 0.950 . S
C541 C539 1.327 . S
C542 C530 1.349 1_565 S
C542 H536 0.950 . S
C542 C543 1.327 . S
C543 H537 0.950 . S
C543 C542 1.327 . S
C543 C547 1.429 1_565 S
C544 C527 1.574 1_556 S
C544 H538 0.949 . S
C544 C548 1.368 . S
C545 C526 1.429 . S
C545 C539 1.429 1_565 S
C545 C546 1.523 . S
C546 C527 1.368 1_565 S
C546 C540 1.368 . S
C546 C545 1.523 . S
C547 C531 1.429 . S
C547 C543 1.429 1_545 S
C547 C548 1.523 . S
C548 C532 1.368 1_545 S
C548 C544 1.368 . S
C548 C547 1.523 . S
H549 C524 0.950 . S
H550 C526 0.950 . S
H551 C527 0.949 . S
H552 C529 0.950 . S
H553 C531 0.950 . S
C554 C555 1.349 . S
C554 C556 1.327 . S
C554 H579 0.950 . S
C555 C554 1.349 . S
C555 C571 1.349 . S
C556 C554 1.327 . S
C556 C575 1.429 . S
C556 H580 0.950 . S
C557 C574 1.574 . S
C557 C576 1.368 . S
C557 H581 0.949 . S
H558 C562 0.949 . S
C559 C560 1.349 . S
C559 C561 1.327 . S
C559 H582 0.950 . S
C560 C559 1.349 . S
C560 C572 1.349 . S
C561 C559 1.327 . S
C561 C577 1.429 . S
C561 H583 0.950 . S
C562 H558 0.949 . S
C562 C570 1.574 . S
C562 C578 1.368 . S
H563 C571 0.950 . S
H564 C569 0.950 . S
H565 C570 0.949 . S
H566 C572 0.950 . S
H567 C573 0.950 . S
H568 C574 0.949 . S
C569 H564 0.950 . S
C569 C571 1.327 . S
C569 C575 1.429 . S
C570 C562 1.574 . S
C570 H565 0.949 . S
C570 C576 1.368 . S
C571 C555 1.349 . S
C571 H563 0.950 . S
C571 C569 1.327 . S
C572 C560 1.349 . S
C572 H566 0.950 . S
C572 C573 1.327 . S
C573 H567 0.950 . S
C573 C572 1.327 . S
C573 C577 1.429 . S
C574 C557 1.574 . S
C574 H568 0.949 . S
C574 C578 1.368 . S
C575 C556 1.429 . S
C575 C569 1.429 . S
C575 C576 1.523 . S
C576 C557 1.368 . S
C576 C570 1.368 . S
C576 C575 1.523 . S
C577 C561 1.429 . S
C577 C573 1.429 . S
C577 C578 1.523 . S
C578 C562 1.368 . S
C578 C574 1.368 . S
C578 C577 1.523 . S
H579 C554 0.950 . S
H580 C556 0.950 . S
H581 C557 0.949 . S
H582 C559 0.950 . S
H583 C561 0.950 . S
C584 C585 1.349 . S
C584 C586 1.327 . S
C584 H609 0.950 . S
C585 C584 1.349 . S
C585 C601 1.349 . S
C586 C584 1.327 . S
C586 C605 1.429 . S
C586 H610 0.950 . S
C587 C604 1.574 . S
C587 C606 1.368 . S
C587 H611 0.949 . S
H588 C592 0.949 . S
C589 C590 1.349 . S
C589 C591 1.327 . S
C589 H612 0.950 . S
C590 C589 1.349 . S
C590 C602 1.349 . S
C591 C589 1.327 . S
C591 C607 1.429 . S
C591 H613 0.950 . S
C592 H588 0.949 . S
C592 C600 1.574 . S
C592 C608 1.368 . S
H593 C601 0.950 . S
H594 C599 0.950 . S
H595 C600 0.949 . S
H596 C602 0.950 . S
H597 C603 0.950 . S
H598 C604 0.949 . S
C599 H594 0.950 . S
C599 C601 1.327 . S
C599 C605 1.429 . S
C600 C592 1.574 . S
C600 H595 0.949 . S
C600 C606 1.368 . S
C601 C585 1.349 . S
C601 H593 0.950 . S
C601 C599 1.327 . S
C602 C590 1.349 . S
C602 H596 0.950 . S
C602 C603 1.327 . S
C603 H597 0.950 . S
C603 C602 1.327 . S
C603 C607 1.429 . S
C604 C587 1.574 . S
C604 H598 0.949 . S
C604 C608 1.368 . S
C605 C586 1.429 . S
C605 C599 1.429 . S
C605 C606 1.523 . S
C606 C587 1.368 . S
C606 C600 1.368 . S
C606 C605 1.523 . S
C607 C591 1.429 . S
C607 C603 1.429 . S
C607 C608 1.523 . S
C608 C592 1.368 . S
C608 C604 1.368 . S
C608 C607 1.523 . S
H609 C584 0.950 . S
H610 C586 0.950 . S
H611 C587 0.949 . S
H612 C589 0.950 . S
H613 C591 0.950 . S
C614 C615 1.349 . S
C614 C616 1.327 . S
C614 H639 0.950 . S
C615 C614 1.349 . S
C615 C631 1.349 . S
C616 C614 1.327 . S
C616 C635 1.429 . S
C616 H640 0.950 . S
C617 C634 1.574 . S
C617 C636 1.368 . S
C617 H641 0.949 . S
H618 C622 0.949 . S
C619 C620 1.349 . S
C619 C621 1.327 . S
C619 H642 0.950 . S
C620 C619 1.349 . S
C620 C632 1.349 . S
C621 C619 1.327 . S
C621 C637 1.429 . S
C621 H643 0.950 . S
C622 H618 0.949 . S
C622 C630 1.574 . S
C622 C638 1.368 . S
H623 C631 0.950 . S
H624 C629 0.950 . S
H625 C630 0.949 . S
H626 C632 0.950 . S
H627 C633 0.950 . S
H628 C634 0.949 . S
C629 H624 0.950 . S
C629 C631 1.327 . S
C629 C635 1.429 . S
C630 C622 1.574 . S
C630 H625 0.949 . S
C630 C636 1.368 . S
C631 C615 1.349 . S
C631 H623 0.950 . S
C631 C629 1.327 . S
C632 C620 1.349 . S
C632 H626 0.950 . S
C632 C633 1.327 . S
C633 H627 0.950 . S
C633 C632 1.327 . S
C633 C637 1.429 . S
C634 C617 1.574 . S
C634 H628 0.949 . S
C634 C638 1.368 . S
C635 C616 1.429 . S
C635 C629 1.429 . S
C635 C636 1.523 . S
C636 C617 1.368 . S
C636 C630 1.368 . S
C636 C635 1.523 . S
C637 C621 1.429 . S
C637 C633 1.429 . S
C637 C638 1.523 . S
C638 C622 1.368 . S
C638 C634 1.368 . S
C638 C637 1.523 . S
H639 C614 0.950 . S
H640 C616 0.950 . S
H641 C617 0.949 . S
H642 C619 0.950 . S
H643 C621 0.950 . S
C644 C645 1.349 . S
C644 C646 1.327 . S
C644 H669 0.950 . S
C645 C644 1.349 . S
C645 C661 1.349 . S
C646 C644 1.327 . S
C646 C665 1.429 . S
C646 H670 0.950 . S
C647 C664 1.574 1_556 S
C647 C666 1.368 . S
C647 H671 0.949 . S
H648 C652 0.949 . S
C649 C650 1.349 . S
C649 C651 1.327 . S
C649 H672 0.950 . S
C650 C649 1.349 . S
C650 C662 1.349 . S
C651 C649 1.327 . S
C651 C667 1.429 . S
C651 H673 0.950 . S
C652 H648 0.949 . S
C652 C660 1.574 1_554 S
C652 C668 1.368 . S
H653 C661 0.950 . S
H654 C659 0.950 . S
H655 C660 0.949 . S
H656 C662 0.950 . S
H657 C663 0.950 . S
H658 C664 0.949 . S
C659 H654 0.950 . S
C659 C661 1.327 . S
C659 C665 1.429 . S
C660 C652 1.574 1_556 S
C660 H655 0.949 . S
C660 C666 1.368 . S
C661 C645 1.349 . S
C661 H653 0.950 . S
C661 C659 1.327 . S
C662 C650 1.349 . S
C662 H656 0.950 . S
C662 C663 1.327 . S
C663 H657 0.950 . S
C663 C662 1.327 . S
C663 C667 1.429 . S
C664 C647 1.574 1_554 S
C664 H658 0.949 . S
C664 C668 1.368 . S
C665 C646 1.429 . S
C665 C659 1.429 . S
C665 C666 1.523 . S
C666 C647 1.368 . S
C666 C660 1.368 . S
C666 C665 1.523 . S
C667 C651 1.429 . S
C667 C663 1.429 . S
C667 C668 1.523 . S
C668 C652 1.368 . S
C668 C664 1.368 . S
C668 C667 1.523 . S
H669 C644 0.950 . S
H670 C646 0.950 . S
H671 C647 0.949 . S
H672 C649 0.950 . S
H673 C651 0.950 . S
C674 C675 1.349 . S
C674 C676 1.327 . S
C674 H699 0.950 . S
C675 C674 1.349 . S
C675 C691 1.349 . S
C676 C674 1.327 . S
C676 C695 1.429 . S
C676 H700 0.950 . S
C677 C694 1.574 . S
C677 C696 1.368 . S
C677 H701 0.949 . S
H678 C682 0.949 . S
C679 C680 1.349 . S
C679 C681 1.327 . S
C679 H702 0.950 . S
C680 C679 1.349 . S
C680 C692 1.349 . S
C681 C679 1.327 . S
C681 C697 1.429 . S
C681 H703 0.950 . S
C682 H678 0.949 . S
C682 C690 1.574 . S
C682 C698 1.368 . S
H683 C691 0.950 . S
H684 C689 0.950 . S
H685 C690 0.949 . S
H686 C692 0.950 . S
H687 C693 0.950 . S
H688 C694 0.949 . S
C689 H684 0.950 . S
C689 C691 1.327 . S
C689 C695 1.429 . S
C690 C682 1.574 . S
C690 H685 0.949 . S
C690 C696 1.368 . S
C691 C675 1.349 . S
C691 H683 0.950 . S
C691 C689 1.327 . S
C692 C680 1.349 . S
C692 H686 0.950 . S
C692 C693 1.327 . S
C693 H687 0.950 . S
C693 C692 1.327 . S
C693 C697 1.429 . S
C694 C677 1.574 . S
C694 H688 0.949 . S
C694 C698 1.368 . S
C695 C676 1.429 . S
C695 C689 1.429 . S
C695 C696 1.523 . S
C696 C677 1.368 . S
C696 C690 1.368 . S
C696 C695 1.523 . S
C697 C681 1.429 . S
C697 C693 1.429 . S
C697 C698 1.523 . S
C698 C682 1.368 . S
C698 C694 1.368 . S
C698 C697 1.523 . S
H699 C674 0.950 . S
H700 C676 0.950 . S
H701 C677 0.949 . S
H702 C679 0.950 . S
H703 C681 0.950 . S
C704 C705 1.349 . S
C704 C706 1.327 . S
C704 H729 0.950 . S
C705 C704 1.349 . S
C705 C721 1.349 . S
C706 C704 1.327 . S
C706 C725 1.429 . S
C706 H730 0.950 . S
C707 C724 1.574 . S
C707 C726 1.368 . S
C707 H731 0.949 . S
H708 C712 0.949 . S
C709 C710 1.356 . S
C709 C711 1.327 1_545 S
C709 H732 0.950 . S
C710 C709 1.356 . S
C710 C722 1.319 1_545 S
C711 C709 1.327 1_565 S
C711 C727 1.429 . S
C711 H733 0.950 . S
C712 H708 0.949 . S
C712 C720 1.574 . S
C712 C728 1.368 . S
H713 C721 0.950 . S
H714 C719 0.950 . S
H715 C720 0.949 . S
H716 C722 0.950 . S
H717 C723 0.950 . S
H718 C724 0.949 . S
C719 H714 0.950 . S
C719 C721 1.327 . S
C719 C725 1.429 . S
C720 C712 1.574 . S
C720 H715 0.949 . S
C720 C726 1.368 . S
C721 C705 1.349 . S
C721 H713 0.950 . S
C721 C719 1.327 . S
C722 C710 1.319 1_565 S
C722 H716 0.950 . S
C722 C723 1.327 . S
C723 H717 0.950 . S
C723 C722 1.327 . S
C723 C727 1.429 . S
C724 C707 1.574 . S
C724 H718 0.949 . S
C724 C728 1.368 . S
C725 C706 1.429 . S
C725 C719 1.429 . S
C725 C726 1.523 . S
C726 C707 1.368 . S
C726 C720 1.368 . S
C726 C725 1.523 . S
C727 C711 1.429 . S
C727 C723 1.429 . S
C727 C728 1.523 . S
C728 C712 1.368 . S
C728 C724 1.368 . S
C728 C727 1.523 . S
H729 C704 0.950 . S
H730 C706 0.950 . S
H731 C707 0.949 . S
H732 C709 0.950 . S
H733 C711 0.950 . S
C734 C735 1.349 . S
C734 C736 1.327 . S
C734 H759 0.950 . S
C735 C734 1.349 . S
C735 C751 1.349 . S
C736 C734 1.327 . S
C736 C755 1.429 . S
C736 H760 0.950 . S
C737 C754 1.574 . S
C737 C756 1.368 . S
C737 H761 0.949 . S
H738 C742 0.949 . S
C739 C740 1.321 1_565 S
C739 C741 1.327 . S
C739 H762 0.950 . S
C740 C739 1.321 1_545 S
C740 C752 1.354 . S
C741 C739 1.327 . S
C741 C757 1.429 . S
C741 H763 0.950 . S
C742 H738 0.949 . S
C742 C750 1.574 . S
C742 C758 1.368 . S
H743 C751 0.950 . S
H744 C749 0.950 . S
H745 C750 0.949 . S
H746 C752 0.950 . S
H747 C753 0.950 . S
H748 C754 0.949 . S
C749 H744 0.950 . S
C749 C751 1.327 . S
C749 C755 1.429 . S
C750 C742 1.574 . S
C750 H745 0.949 . S
C750 C756 1.368 . S
C751 C735 1.349 . S
C751 H743 0.950 . S
C751 C749 1.327 . S
C752 C740 1.354 . S
C752 H746 0.950 . S
C752 C753 1.327 1_545 S
C753 H747 0.950 . S
C753 C752 1.327 1_565 S
C753 C757 1.429 . S
C754 C737 1.574 . S
C754 H748 0.949 . S
C754 C758 1.368 . S
C755 C736 1.429 . S
C755 C749 1.429 . S
C755 C756 1.523 . S
C756 C737 1.368 . S
C756 C750 1.368 . S
C756 C755 1.523 . S
C757 C741 1.429 . S
C757 C753 1.429 . S
C757 C758 1.523 . S
C758 C742 1.368 . S
C758 C754 1.368 . S
C758 C757 1.523 . S
H759 C734 0.950 . S
H760 C736 0.950 . S
H761 C737 0.949 . S
H762 C739 0.950 . S
H763 C741 0.950 . S
C764 C765 1.346 1_545 S
C764 C766 1.327 . S
C764 H789 0.950 1_545 S
C765 C764 1.346 1_565 S
C765 C781 1.329 1_565 S
C766 C764 1.327 . S
C766 C785 1.429 . S
C766 H790 0.950 . S
C767 C784 1.574 . S
C767 C786 1.368 . S
C767 H791 0.949 . S
H768 C772 0.949 . S
C769 C770 1.349 . S
C769 C771 1.327 . S
C769 H792 0.950 . S
C770 C769 1.349 . S
C770 C782 1.349 . S
C771 C769 1.327 . S
C771 C787 1.429 . S
C771 H793 0.950 . S
C772 H768 0.949 . S
C772 C780 1.574 . S
C772 C788 1.368 . S
H773 C781 0.950 . S
H774 C779 0.950 . S
H775 C780 0.949 . S
H776 C782 0.950 . S
H777 C783 0.950 . S
H778 C784 0.949 . S
C779 H774 0.950 . S
C779 C781 1.327 . S
C779 C785 1.429 . S
C780 C772 1.574 . S
C780 H775 0.949 . S
C780 C786 1.368 . S
C781 C765 1.329 1_545 S
C781 H773 0.950 . S
C781 C779 1.327 . S
C782 C770 1.349 . S
C782 H776 0.950 . S
C782 C783 1.327 . S
C783 H777 0.950 . S
C783 C782 1.327 . S
C783 C787 1.429 . S
C784 C767 1.574 . S
C784 H778 0.949 . S
C784 C788 1.368 . S
C785 C766 1.429 . S
C785 C779 1.429 . S
C785 C786 1.523 . S
C786 C767 1.368 . S
C786 C780 1.368 . S
C786 C785 1.523 . S
C787 C771 1.429 . S
C787 C783 1.429 . S
C787 C788 1.523 . S
C788 C772 1.368 . S
C788 C784 1.368 . S
C788 C787 1.523 . S
H789 C764 0.950 1_565 S
H790 C766 0.950 . S
H791 C767 0.949 . S
H792 C769 0.950 . S
H793 C771 0.950 . S
C794 C795 1.317 1_545 S
C794 C796 1.327 . S
C794 H819 0.950 . S
C795 C794 1.317 1_565 S
C795 C811 1.358 . S
C796 C794 1.327 . S
C796 C815 1.429 . S
C796 H820 0.950 . S
C797 C814 1.574 . S
C797 C816 1.368 . S
C797 H821 0.949 . S
H798 C802 0.949 . S
C799 C800 1.349 . S
C799 C801 1.327 . S
C799 H822 0.950 . S
C800 C799 1.349 . S
C800 C812 1.349 . S
C801 C799 1.327 . S
C801 C817 1.429 . S
C801 H823 0.950 . S
C802 H798 0.949 . S
C802 C810 1.574 . S
C802 C818 1.368 . S
H803 C811 0.950 . S
H804 C809 0.950 . S
H805 C810 0.949 . S
H806 C812 0.950 . S
H807 C813 0.950 . S
H808 C814 0.949 . S
C809 H804 0.950 . S
C809 C811 1.327 1_545 S
C809 C815 1.429 . S
C810 C802 1.574 . S
C810 H805 0.949 . S
C810 C816 1.368 . S
C811 C795 1.358 . S
C811 H803 0.950 . S
C811 C809 1.327 1_565 S
C812 C800 1.349 . S
C812 H806 0.950 . S
C812 C813 1.327 . S
C813 H807 0.950 . S
C813 C812 1.327 . S
C813 C817 1.429 . S
C814 C797 1.574 . S
C814 H808 0.949 . S
C814 C818 1.368 . S
C815 C796 1.429 . S
C815 C809 1.429 . S
C815 C816 1.523 . S
C816 C797 1.368 . S
C816 C810 1.368 . S
C816 C815 1.523 . S
C817 C801 1.429 . S
C817 C813 1.429 . S
C817 C818 1.523 . S
C818 C802 1.368 . S
C818 C814 1.368 . S
C818 C817 1.523 . S
H819 C794 0.950 . S
H820 C796 0.950 . S
H821 C797 0.949 . S
H822 C799 0.950 . S
H823 C801 0.950 . S
C824 C825 1.349 . S
C824 C826 1.327 . S
C824 H849 0.950 1_655 S
C825 C824 1.349 . S
C825 C841 1.349 . S
C826 C824 1.327 . S
C826 C845 1.429 . S
C826 H850 0.950 . S
C827 C844 1.574 . S
C827 C846 1.368 . S
C827 H851 0.949 . S
H828 C832 0.949 . S
C829 C830 1.349 . S
C829 C831 1.327 . S
C829 H852 0.950 . S
C830 C829 1.349 . S
C830 C842 1.349 . S
C831 C829 1.327 . S
C831 C847 1.429 . S
C831 H853 0.950 . S
C832 H828 0.949 . S
C832 C840 1.574 . S
C832 C848 1.368 . S
H833 C841 0.950 1_565 S
H834 C839 0.950 . S
H835 C840 0.949 . S
H836 C842 0.950 . S
H837 C843 0.950 . S
H838 C844 0.949 . S
C839 H834 0.950 . S
C839 C841 1.327 . S
C839 C845 1.429 . S
C840 C832 1.574 . S
C840 H835 0.949 . S
C840 C846 1.368 . S
C841 C825 1.349 . S
C841 H833 0.950 1_545 S
C841 C839 1.327 . S
C842 C830 1.349 . S
C842 H836 0.950 . S
C842 C843 1.327 . S
C843 H837 0.950 . S
C843 C842 1.327 . S
C843 C847 1.429 . S
C844 C827 1.574 . S
C844 H838 0.949 . S
C844 C848 1.368 . S
C845 C826 1.429 . S
C845 C839 1.429 . S
C845 C846 1.523 . S
C846 C827 1.368 . S
C846 C840 1.368 . S
C846 C845 1.523 . S
C847 C831 1.429 . S
C847 C843 1.429 . S
C847 C848 1.523 . S
C848 C832 1.368 . S
C848 C844 1.368 . S
C848 C847 1.523 . S
H849 C824 0.950 1_455 S
H850 C826 0.950 . S
H851 C827 0.949 . S
H852 C829 0.950 . S
H853 C831 0.950 . S
C854 C855 1.349 . S
C854 C856 1.327 . S
C854 H879 0.950 1_545 S
C855 C854 1.349 . S
C855 C871 1.349 . S
C856 C854 1.327 . S
C856 C875 1.429 . S
C856 H880 0.950 . S
C857 C874 1.574 . S
C857 C876 1.368 . S
C857 H881 0.949 . S
H858 C862 0.949 . S
C859 C860 1.349 . S
C859 C861 1.327 . S
C859 H882 0.950 . S
C860 C859 1.349 . S
C860 C872 1.349 . S
C861 C859 1.327 . S
C861 C877 1.429 . S
C861 H883 0.950 . S
C862 H858 0.949 . S
C862 C870 1.574 . S
C862 C878 1.368 . S
H863 C871 0.950 . S
H864 C869 0.950 . S
H865 C870 0.949 . S
H866 C872 0.950 . S
H867 C873 0.950 . S
H868 C874 0.949 . S
C869 H864 0.950 . S
C869 C871 1.327 . S
C869 C875 1.429 . S
C870 C862 1.574 . S
C870 H865 0.949 . S
C870 C876 1.368 . S
C871 C855 1.349 . S
C871 H863 0.950 . S
C871 C869 1.327 . S
C872 C860 1.349 . S
C872 H866 0.950 . S
C872 C873 1.327 . S
C873 H867 0.950 . S
C873 C872 1.327 . S
C873 C877 1.429 . S
C874 C857 1.574 . S
C874 H868 0.949 . S
C874 C878 1.368 . S
C875 C856 1.429 . S
C875 C869 1.429 . S
C875 C876 1.523 . S
C876 C857 1.368 . S
C876 C870 1.368 . S
C876 C875 1.523 . S
C877 C861 1.429 . S
C877 C873 1.429 . S
C877 C878 1.523 . S
C878 C862 1.368 . S
C878 C874 1.368 . S
C878 C877 1.523 . S
H879 C854 0.950 1_565 S
H880 C856 0.950 . S
H881 C857 0.949 . S
H882 C859 0.950 . S
H883 C861 0.950 . S
C884 C885 1.349 . S
C884 C886 1.327 . S
C884 H909 0.950 . S
C885 C884 1.349 . S
C885 C901 1.349 . S
C886 C884 1.327 . S
C886 C905 1.429 . S
C886 H910 0.950 . S
C887 C904 1.574 . S
C887 C906 1.368 . S
C887 H911 0.949 . S
H888 C892 0.949 . S
C889 C890 1.349 . S
C889 C891 1.327 . S
C889 H912 0.950 . S
C890 C889 1.349 . S
C890 C902 1.349 . S
C891 C889 1.327 . S
C891 C907 1.429 . S
C891 H913 0.950 . S
C892 H888 0.949 . S
C892 C900 1.574 . S
C892 C908 1.368 . S
H893 C901 0.950 . S
H894 C899 0.950 . S
H895 C900 0.949 . S
H896 C902 0.950 . S
H897 C903 0.950 . S
H898 C904 0.949 . S
C899 H894 0.950 . S
C899 C901 1.327 . S
C899 C905 1.429 . S
C900 C892 1.574 . S
C900 H895 0.949 . S
C900 C906 1.368 . S
C901 C885 1.349 . S
C901 H893 0.950 . S
C901 C899 1.327 . S
C902 C890 1.349 . S
C902 H896 0.950 . S
C902 C903 1.327 . S
C903 H897 0.950 . S
C903 C902 1.327 . S
C903 C907 1.429 . S
C904 C887 1.574 . S
C904 H898 0.949 . S
C904 C908 1.368 . S
C905 C886 1.429 . S
C905 C899 1.429 . S
C905 C906 1.523 . S
C906 C887 1.368 . S
C906 C900 1.368 . S
C906 C905 1.523 . S
C907 C891 1.429 . S
C907 C903 1.429 . S
C907 C908 1.523 . S
C908 C892 1.368 . S
C908 C904 1.368 . S
C908 C907 1.523 . S
H909 C884 0.950 . S
H910 C886 0.950 . S
H911 C887 0.949 . S
H912 C889 0.950 . S
H913 C891 0.950 . S
C914 C915 1.349 . S
C914 C916 1.327 . S
C914 H939 0.950 . S
C915 C914 1.349 . S
C915 C931 1.349 . S
C916 C914 1.327 . S
C916 C935 1.429 . S
C916 H940 0.950 . S
C917 C934 1.574 . S
C917 C936 1.368 . S
C917 H941 0.949 . S
H918 C922 0.949 . S
C919 C920 1.349 . S
C919 C921 1.327 . S
C919 H942 0.950 . S
C920 C919 1.349 . S
C920 C932 1.349 . S
C921 C919 1.327 . S
C921 C937 1.429 . S
C921 H943 0.950 . S
C922 H918 0.949 . S
C922 C930 1.574 . S
C922 C938 1.368 . S
H923 C931 0.950 . S
H924 C929 0.950 . S
H925 C930 0.949 . S
H926 C932 0.950 . S
H927 C933 0.950 . S
H928 C934 0.949 . S
C929 H924 0.950 . S
C929 C931 1.327 . S
C929 C935 1.429 . S
C930 C922 1.574 . S
C930 H925 0.949 . S
C930 C936 1.368 . S
C931 C915 1.349 . S
C931 H923 0.950 . S
C931 C929 1.327 . S
C932 C920 1.349 . S
C932 H926 0.950 . S
C932 C933 1.327 . S
C933 H927 0.950 . S
C933 C932 1.327 . S
C933 C937 1.429 . S
C934 C917 1.574 . S
C934 H928 0.949 . S
C934 C938 1.368 . S
C935 C916 1.429 . S
C935 C929 1.429 . S
C935 C936 1.523 . S
C936 C917 1.368 . S
C936 C930 1.368 . S
C936 C935 1.523 . S
C937 C921 1.429 . S
C937 C933 1.429 . S
C937 C938 1.523 . S
C938 C922 1.368 . S
C938 C934 1.368 . S
C938 C937 1.523 . S
H939 C914 0.950 . S
H940 C916 0.950 . S
H941 C917 0.949 . S
H942 C919 0.950 . S
H943 C921 0.950 . S
C944 C945 1.349 . S
C944 C946 1.327 . S
C944 H969 0.950 . S
C945 C944 1.349 . S
C945 C961 1.349 . S
C946 C944 1.327 . S
C946 C965 1.429 . S
C946 H970 0.950 . S
C947 C964 1.574 . S
C947 C966 1.368 . S
C947 H971 0.949 . S
H948 C952 0.949 . S
C949 C950 1.349 . S
C949 C951 1.327 . S
C949 H972 0.950 . S
C950 C949 1.349 . S
C950 C962 1.349 . S
C951 C949 1.327 . S
C951 C967 1.429 . S
C951 H973 0.950 . S
C952 H948 0.949 . S
C952 C960 1.574 . S
C952 C968 1.368 . S
H953 C961 0.950 . S
H954 C959 0.950 . S
H955 C960 0.949 . S
H956 C962 0.950 . S
H957 C963 0.950 . S
H958 C964 0.949 . S
C959 H954 0.950 . S
C959 C961 1.327 . S
C959 C965 1.429 . S
C960 C952 1.574 . S
C960 H955 0.949 . S
C960 C966 1.368 . S
C961 C945 1.349 . S
C961 H953 0.950 . S
C961 C959 1.327 . S
C962 C950 1.349 . S
C962 H956 0.950 . S
C962 C963 1.327 . S
C963 H957 0.950 . S
C963 C962 1.327 . S
C963 C967 1.429 . S
C964 C947 1.574 . S
C964 H958 0.949 . S
C964 C968 1.368 . S
C965 C946 1.429 . S
C965 C959 1.429 . S
C965 C966 1.523 . S
C966 C947 1.368 . S
C966 C960 1.368 . S
C966 C965 1.523 . S
C967 C951 1.429 . S
C967 C963 1.429 . S
C967 C968 1.523 . S
C968 C952 1.368 . S
C968 C964 1.368 . S
C968 C967 1.523 . S
H969 C944 0.950 . S
H970 C946 0.950 . S
H971 C947 0.949 . S
H972 C949 0.950 . S
H973 C951 0.950 . S
C974 C975 1.349 . S
C974 C976 1.327 . S
C974 H999 0.950 . S
C975 C974 1.349 . S
C975 C991 1.349 . S
C976 C974 1.327 . S
C976 C995 1.429 . S
C976 H1000 0.950 . S
C977 C994 1.574 . S
C977 C996 1.368 . S
C977 H1001 0.949 . S
H978 C982 0.949 . S
C979 C980 1.349 . S
C979 C981 1.327 . S
C979 H1002 0.950 . S
C980 C979 1.349 . S
C980 C992 1.349 . S
C981 C979 1.327 . S
C981 C997 1.429 . S
C981 H1003 0.950 . S
C982 H978 0.949 . S
C982 C990 1.574 . S
C982 C998 1.368 . S
H983 C991 0.950 . S
H984 C989 0.950 . S
H985 C990 0.949 . S
H986 C992 0.950 . S
H987 C993 0.950 . S
H988 C994 0.949 . S
C989 H984 0.950 . S
C989 C991 1.327 . S
C989 C995 1.429 . S
C990 C982 1.574 . S
C990 H985 0.949 . S
C990 C996 1.368 . S
C991 C975 1.349 . S
C991 H983 0.950 . S
C991 C989 1.327 . S
C992 C980 1.349 . S
C992 H986 0.950 . S
C992 C993 1.327 . S
C993 H987 0.950 . S
C993 C992 1.327 . S
C993 C997 1.429 . S
C994 C977 1.574 . S
C994 H988 0.949 . S
C994 C998 1.368 . S
C995 C976 1.429 . S
C995 C989 1.429 . S
C995 C996 1.523 . S
C996 C977 1.368 . S
C996 C990 1.368 . S
C996 C995 1.523 . S
C997 C981 1.429 . S
C997 C993 1.429 . S
C997 C998 1.523 . S
C998 C982 1.368 . S
C998 C994 1.368 . S
C998 C997 1.523 . S
H999 C974 0.950 . S
H1000 C976 0.950 . S
H1001 C977 0.949 . S
H1002 C979 0.950 . S
H1003 C981 0.950 . S
C1004 C1005 1.349 . S
C1004 C1006 1.327 . S
C1004 H1029 0.950 . S
C1005 C1004 1.349 . S
C1005 C1021 1.349 . S
C1006 C1004 1.327 . S
C1006 C1025 1.429 . S
C1006 H1030 0.950 . S
C1007 C1024 1.574 . S
C1007 C1026 1.368 . S
C1007 H1031 0.949 . S
H1008 C1012 0.949 . S
C1009 C1010 1.349 . S
C1009 C1011 1.327 . S
C1009 H1032 0.950 . S
C1010 C1009 1.349 . S
C1010 C1022 1.349 . S
C1011 C1009 1.327 . S
C1011 C1027 1.429 . S
C1011 H1033 0.950 . S
C1012 H1008 0.949 . S
C1012 C1020 1.574 . S
C1012 C1028 1.368 . S
H1013 C1021 0.950 . S
H1014 C1019 0.950 . S
H1015 C1020 0.949 . S
H1016 C1022 0.950 . S
H1017 C1023 0.950 . S
H1018 C1024 0.949 . S
C1019 H1014 0.950 . S
C1019 C1021 1.327 . S
C1019 C1025 1.429 . S
C1020 C1012 1.574 . S
C1020 H1015 0.949 . S
C1020 C1026 1.368 . S
C1021 C1005 1.349 . S
C1021 H1013 0.950 . S
C1021 C1019 1.327 . S
C1022 C1010 1.349 . S
C1022 H1016 0.950 . S
C1022 C1023 1.327 . S
C1023 H1017 0.950 . S
C1023 C1022 1.327 . S
C1023 C1027 1.429 . S
C1024 C1007 1.574 . S
C1024 H1018 0.949 . S
C1024 C1028 1.368 . S
C1025 C1006 1.429 . S
C1025 C1019 1.429 . S
C1025 C1026 1.523 . S
C1026 C1007 1.368 . S
C1026 C1020 1.368 . S
C1026 C1025 1.523 . S
C1027 C1011 1.429 . S
C1027 C1023 1.429 . S
C1027 C1028 1.523 . S
C1028 C1012 1.368 . S
C1028 C1024 1.368 . S
C1028 C1027 1.523 . S
H1029 C1004 0.950 . S
H1030 C1006 0.950 . S
H1031 C1007 0.949 . S
H1032 C1009 0.950 . S
H1033 C1011 0.950 . S
C1034 C1035 1.349 . S
C1034 C1036 1.327 . S
C1034 H1059 0.950 . S
C1035 C1034 1.349 . S
C1035 C1051 1.349 . S
C1036 C1034 1.327 . S
C1036 C1055 1.429 . S
C1036 H1060 0.950 . S
C1037 C1054 1.574 . S
C1037 C1056 1.368 . S
C1037 H1061 0.949 . S
H1038 C1042 0.949 . S
C1039 C1040 1.349 . S
C1039 C1041 1.327 . S
C1039 H1062 0.950 . S
C1040 C1039 1.349 . S
C1040 C1052 1.349 . S
C1041 C1039 1.327 . S
C1041 C1057 1.429 . S
C1041 H1063 0.950 . S
C1042 H1038 0.949 . S
C1042 C1050 1.574 . S
C1042 C1058 1.368 . S
H1043 C1051 0.950 . S
H1044 C1049 0.950 . S
H1045 C1050 0.949 . S
H1046 C1052 0.950 . S
H1047 C1053 0.950 . S
H1048 C1054 0.949 . S
C1049 H1044 0.950 . S
C1049 C1051 1.327 . S
C1049 C1055 1.429 . S
C1050 C1042 1.574 . S
C1050 H1045 0.949 . S
C1050 C1056 1.368 . S
C1051 C1035 1.349 . S
C1051 H1043 0.950 . S
C1051 C1049 1.327 . S
C1052 C1040 1.349 . S
C1052 H1046 0.950 . S
C1052 C1053 1.327 . S
C1053 H1047 0.950 . S
C1053 C1052 1.327 . S
C1053 C1057 1.429 . S
C1054 C1037 1.574 . S
C1054 H1048 0.949 . S
C1054 C1058 1.368 . S
C1055 C1036 1.429 . S
C1055 C1049 1.429 . S
C1055 C1056 1.523 . S
C1056 C1037 1.368 . S
C1056 C1050 1.368 . S
C1056 C1055 1.523 . S
C1057 C1041 1.429 . S
C1057 C1053 1.429 . S
C1057 C1058 1.523 . S
C1058 C1042 1.368 . S
C1058 C1054 1.368 . S
C1058 C1057 1.523 . S
H1059 C1034 0.950 . S
H1060 C1036 0.950 . S
H1061 C1037 0.949 . S
H1062 C1039 0.950 . S
H1063 C1041 0.950 . S
C1064 C1065 1.349 . S
C1064 C1066 1.327 . S
C1064 H1089 0.950 . S
C1065 C1064 1.349 . S
C1065 C1081 1.349 . S
C1066 C1064 1.327 . S
C1066 C1085 1.429 . S
C1066 H1090 0.950 . S
C1067 C1084 1.574 . S
C1067 C1086 1.368 . S
C1067 H1091 0.949 . S
H1068 C1072 0.949 . S
C1069 C1070 1.349 . S
C1069 C1071 1.327 . S
C1069 H1092 0.950 . S
C1070 C1069 1.349 . S
C1070 C1082 1.349 . S
C1071 C1069 1.327 . S
C1071 C1087 1.429 . S
C1071 H1093 0.950 . S
C1072 H1068 0.949 . S
C1072 C1080 1.574 . S
C1072 C1088 1.368 . S
H1073 C1081 0.950 . S
H1074 C1079 0.950 . S
H1075 C1080 0.949 . S
H1076 C1082 0.950 . S
H1077 C1083 0.950 . S
H1078 C1084 0.949 . S
C1079 H1074 0.950 . S
C1079 C1081 1.327 . S
C1079 C1085 1.429 . S
C1080 C1072 1.574 . S
C1080 H1075 0.949 . S
C1080 C1086 1.368 . S
C1081 C1065 1.349 . S
C1081 H1073 0.950 . S
C1081 C1079 1.327 . S
C1082 C1070 1.349 . S
C1082 H1076 0.950 . S
C1082 C1083 1.327 . S
C1083 H1077 0.950 . S
C1083 C1082 1.327 . S
C1083 C1087 1.429 . S
C1084 C1067 1.574 . S
C1084 H1078 0.949 . S
C1084 C1088 1.368 . S
C1085 C1066 1.429 . S
C1085 C1079 1.429 . S
C1085 C1086 1.523 . S
C1086 C1067 1.368 . S
C1086 C1080 1.368 . S
C1086 C1085 1.523 . S
C1087 C1071 1.429 . S
C1087 C1083 1.429 . S
C1087 C1088 1.523 . S
C1088 C1072 1.368 . S
C1088 C1084 1.368 . S
C1088 C1087 1.523 . S
H1089 C1064 0.950 . S
H1090 C1066 0.950 . S
H1091 C1067 0.949 . S
H1092 C1069 0.950 . S
H1093 C1071 0.950 . S
C1094 C1095 1.349 . S
C1094 C1096 1.327 . S
C1094 H1119 0.950 . S
C1095 C1094 1.349 . S
C1095 C1111 1.349 . S
C1096 C1094 1.327 . S
C1096 C1115 1.429 . S
C1096 H1120 0.950 . S
C1097 C1114 1.574 . S
C1097 C1116 1.368 . S
C1097 H1121 0.949 . S
H1098 C1102 0.949 . S
C1099 C1100 1.349 . S
C1099 C1101 1.327 . S
C1099 H1122 0.950 . S
C1100 C1099 1.349 . S
C1100 C1112 1.349 . S
C1101 C1099 1.327 . S
C1101 C1117 1.429 . S
C1101 H1123 0.950 . S
C1102 H1098 0.949 . S
C1102 C1110 1.574 . S
C1102 C1118 1.368 . S
H1103 C1111 0.950 . S
H1104 C1109 0.950 . S
H1105 C1110 0.949 . S
H1106 C1112 0.950 . S
H1107 C1113 0.950 . S
H1108 C1114 0.949 . S
C1109 H1104 0.950 . S
C1109 C1111 1.327 . S
C1109 C1115 1.429 . S
C1110 C1102 1.574 . S
C1110 H1105 0.949 . S
C1110 C1116 1.368 . S
C1111 C1095 1.349 . S
C1111 H1103 0.950 . S
C1111 C1109 1.327 . S
C1112 C1100 1.349 . S
C1112 H1106 0.950 . S
C1112 C1113 1.327 . S
C1113 H1107 0.950 . S
C1113 C1112 1.327 . S
C1113 C1117 1.429 . S
C1114 C1097 1.574 . S
C1114 H1108 0.949 . S
C1114 C1118 1.368 . S
C1115 C1096 1.429 . S
C1115 C1109 1.429 . S
C1115 C1116 1.523 . S
C1116 C1097 1.368 . S
C1116 C1110 1.368 . S
C1116 C1115 1.523 . S
C1117 C1101 1.429 . S
C1117 C1113 1.429 . S
C1117 C1118 1.523 . S
C1118 C1102 1.368 . S
C1118 C1114 1.368 . S
C1118 C1117 1.523 . S
H1119 C1094 0.950 . S
H1120 C1096 0.950 . S
H1121 C1097 0.949 . S
H1122 C1099 0.950 . S
H1123 C1101 0.950 . S
C1124 C1125 1.349 . S
C1124 C1126 1.327 . S
C1124 H1149 0.950 . S
C1125 C1124 1.349 . S
C1125 C1141 1.349 . S
C1126 C1124 1.327 . S
C1126 C1145 1.429 . S
C1126 H1150 0.950 . S
C1127 C1144 1.574 . S
C1127 C1146 1.368 . S
C1127 H1151 0.949 . S
H1128 C1132 0.949 . S
C1129 C1130 1.349 . S
C1129 C1131 1.327 . S
C1129 H1152 0.950 . S
C1130 C1129 1.349 . S
C1130 C1142 1.349 . S
C1131 C1129 1.327 . S
C1131 C1147 1.429 . S
C1131 H1153 0.950 . S
C1132 H1128 0.949 . S
C1132 C1140 1.574 . S
C1132 C1148 1.368 . S
H1133 C1141 0.950 . S
H1134 C1139 0.950 . S
H1135 C1140 0.949 . S
H1136 C1142 0.950 . S
H1137 C1143 0.950 . S
H1138 C1144 0.949 . S
C1139 H1134 0.950 . S
C1139 C1141 1.327 . S
C1139 C1145 1.429 . S
C1140 C1132 1.574 . S
C1140 H1135 0.949 . S
C1140 C1146 1.368 . S
C1141 C1125 1.349 . S
C1141 H1133 0.950 . S
C1141 C1139 1.327 . S
C1142 C1130 1.349 . S
C1142 H1136 0.950 . S
C1142 C1143 1.327 . S
C1143 H1137 0.950 . S
C1143 C1142 1.327 . S
C1143 C1147 1.429 . S
C1144 C1127 1.574 . S
C1144 H1138 0.949 . S
C1144 C1148 1.368 . S
C1145 C1126 1.429 . S
C1145 C1139 1.429 . S
C1145 C1146 1.523 . S
C1146 C1127 1.368 . S
C1146 C1140 1.368 . S
C1146 C1145 1.523 . S
C1147 C1131 1.429 . S
C1147 C1143 1.429 . S
C1147 C1148 1.523 . S
C1148 C1132 1.368 . S
C1148 C1144 1.368 . S
C1148 C1147 1.523 . S
H1149 C1124 0.950 . S
H1150 C1126 0.950 . S
H1151 C1127 0.949 . S
H1152 C1129 0.950 . S
H1153 C1131 0.950 . S
C1154 C1155 1.349 . S
C1154 C1156 1.327 . S
C1154 H1179 0.950 . S
C1155 C1154 1.349 . S
C1155 C1171 1.349 . S
C1156 C1154 1.327 . S
C1156 C1175 1.429 . S
C1156 H1180 0.950 . S
C1157 C1174 1.574 . S
C1157 C1176 1.368 . S
C1157 H1181 0.949 . S
H1158 C1162 0.949 . S
C1159 C1160 1.349 . S
C1159 C1161 1.327 . S
C1159 H1182 0.950 . S
C1160 C1159 1.349 . S
C1160 C1172 1.349 . S
C1161 C1159 1.327 . S
C1161 C1177 1.429 . S
C1161 H1183 0.950 . S
C1162 H1158 0.949 . S
C1162 C1170 1.574 . S
C1162 C1178 1.368 . S
H1163 C1171 0.950 . S
H1164 C1169 0.950 . S
H1165 C1170 0.949 . S
H1166 C1172 0.950 . S
H1167 C1173 0.950 . S
H1168 C1174 0.949 . S
C1169 H1164 0.950 . S
C1169 C1171 1.327 . S
C1169 C1175 1.429 . S
C1170 C1162 1.574 . S
C1170 H1165 0.949 . S
C1170 C1176 1.368 . S
C1171 C1155 1.349 . S
C1171 H1163 0.950 . S
C1171 C1169 1.327 . S
C1172 C1160 1.349 . S
C1172 H1166 0.950 . S
C1172 C1173 1.327 . S
C1173 H1167 0.950 . S
C1173 C1172 1.327 . S
C1173 C1177 1.429 . S
C1174 C1157 1.574 . S
C1174 H1168 0.949 . S
C1174 C1178 1.368 . S
C1175 C1156 1.429 . S
C1175 C1169 1.429 . S
C1175 C1176 1.523 . S
C1176 C1157 1.368 . S
C1176 C1170 1.368 . S
C1176 C1175 1.523 . S
C1177 C1161 1.429 . S
C1177 C1173 1.429 . S
C1177 C1178 1.523 . S
C1178 C1162 1.368 . S
C1178 C1174 1.368 . S
C1178 C1177 1.523 . S
H1179 C1154 0.950 . S
H1180 C1156 0.950 . S
H1181 C1157 0.949 . S
H1182 C1159 0.950 . S
H1183 C1161 0.950 . S
C225 C11 0.883 . S
C230 C193 0.883 . S
C255 C165 0.883 . S
C260 C25 0.883 . S
C285 C179 0.883 . S
C290 C39 0.883 . S
C315 C151 0.883 . S
C320 C53 0.883 . S
C345 C67 0.883 . S
C350 C221 0.883 . S
C375 C81 0.883 . S
C380 C137 0.883 . S
C405 C207 0.883 . S
C410 C95 0.883 . S
C435 C109 0.883 . S
C440 C123 0.883 . S
C465 C68 1.650 . S
C470 C12 1.650 . S
C495 C26 1.650 . S
C500 C82 1.650 . S
C525 C40 1.649 . S
C530 C96 1.649 . S
C555 C110 1.650 . S
C560 C54 1.650 . S
C585 C124 1.649 . S
C590 C152 1.649 . S
C615 C138 1.649 . S
C620 C166 1.649 . S
C645 C208 1.649 . S
C650 C180 1.649 . S
C675 C194 1.649 . S
C680 C222 1.649 . S
C705 C74 1.172 . S
C710 C4 1.195 . S
C735 C18 1.173 . S
C740 C88 1.196 . S
C765 C32 1.196 . S
C770 C102 1.173 . S
C795 C60 1.195 . S
C800 C46 1.172 . S
C825 C61 1.076 1_545 S
C830 C145 1.076 . S
C855 C33 1.077 1_545 S
C860 C117 1.077 . S
C885 C159 1.077 . S
C890 C89 1.077 1_565 S
C915 C131 1.076 . S
C920 C5 1.076 1_565 S
C945 C116 1.173 . S
C950 C172 1.173 . S
C975 C144 1.173 . S
C980 C214 1.173 . S
C1005 C186 1.173 . S
C1010 C130 1.173 . S
C1035 C158 1.173 . S
C1040 C200 1.173 . S
C1065 C201 1.077 . S
C1070 C19 1.077 . S
C1095 C187 1.076 . S
C1100 C75 1.076 . S
C1125 C215 1.076 . S
C1130 C47 1.076 . S
C1155 C173 1.077 . S
C1160 C103 1.077 . S
