# Generated by pormake.
# Topology umz, (4)-cn, num edge types: 1
# Building blocks:
#     Node 0, Type 0, BuildingBlock: ICAMEG_clean_sbu_1, # of connection points: 4
#     Node 1, Type 0, BuildingBlock: ICAMEG_clean_sbu_1, # of connection points: 4
#     Node 2, Type 0, BuildingBlock: ICAMEG_clean_sbu_1, # of connection points: 4
#     Node 3, Type 0, BuildingBlock: ICAMEG_clean_sbu_1, # of connection points: 4
#     Node 4, Type 0, BuildingBlock: ICAMEG_clean_sbu_1, # of connection points: 4
#     Node 5, Type 0, BuildingBlock: ICAMEG_clean_sbu_1, # of connection points: 4
#     Node 6, Type 0, BuildingBlock: ICAMEG_clean_sbu_1, # of connection points: 4
#     Node 7, Type 0, BuildingBlock: ICAMEG_clean_sbu_1, # of connection points: 4
#     Node 8, Type 0, BuildingBlock: ICAMEG_clean_sbu_1, # of connection points: 4
#     Node 9, Type 0, BuildingBlock: ICAMEG_clean_sbu_1, # of connection points: 4
#     Node 10, Type 0, BuildingBlock: ICAMEG_clean_sbu_1, # of connection points: 4
#     Node 11, Type 0, BuildingBlock: ICAMEG_clean_sbu_1, # of connection points: 4
#     Node 12, Type 0, BuildingBlock: ICAMEG_clean_sbu_1, # of connection points: 4
#     Node 13, Type 0, BuildingBlock: ICAMEG_clean_sbu_1, # of connection points: 4
#     Node 14, Type 0, BuildingBlock: ICAMEG_clean_sbu_1, # of connection points: 4
#     Node 15, Type 0, BuildingBlock: ICAMEG_clean_sbu_1, # of connection points: 4
#     Edge 16, Type (0, 0), BuildingBlock: TEMPAE_clean_linker_10, # of connection points: 2
#     Edge 17, Type (0, 0), BuildingBlock: TEMPAE_clean_linker_10, # of connection points: 2
#     Edge 18, Type (0, 0), BuildingBlock: TEMPAE_clean_linker_10, # of connection points: 2
#     Edge 19, Type (0, 0), BuildingBlock: TEMPAE_clean_linker_10, # of connection points: 2
#     Edge 20, Type (0, 0), BuildingBlock: TEMPAE_clean_linker_10, # of connection points: 2
#     Edge 21, Type (0, 0), BuildingBlock: TEMPAE_clean_linker_10, # of connection points: 2
#     Edge 22, Type (0, 0), BuildingBlock: TEMPAE_clean_linker_10, # of connection points: 2
#     Edge 23, Type (0, 0), BuildingBlock: TEMPAE_clean_linker_10, # of connection points: 2
#     Edge 24, Type (0, 0), BuildingBlock: TEMPAE_clean_linker_10, # of connection points: 2
#     Edge 25, Type (0, 0), BuildingBlock: TEMPAE_clean_linker_10, # of connection points: 2
#     Edge 26, Type (0, 0), BuildingBlock: TEMPAE_clean_linker_10, # of connection points: 2
#     Edge 27, Type (0, 0), BuildingBlock: TEMPAE_clean_linker_10, # of connection points: 2
#     Edge 28, Type (0, 0), BuildingBlock: TEMPAE_clean_linker_10, # of connection points: 2
#     Edge 29, Type (0, 0), BuildingBlock: TEMPAE_clean_linker_10, # of connection points: 2
#     Edge 30, Type (0, 0), BuildingBlock: TEMPAE_clean_linker_10, # of connection points: 2
#     Edge 31, Type (0, 0), BuildingBlock: TEMPAE_clean_linker_10, # of connection points: 2
#     Edge 32, Type (0, 0), BuildingBlock: TEMPAE_clean_linker_10, # of connection points: 2
#     Edge 33, Type (0, 0), BuildingBlock: TEMPAE_clean_linker_10, # of connection points: 2
#     Edge 34, Type (0, 0), BuildingBlock: TEMPAE_clean_linker_10, # of connection points: 2
#     Edge 35, Type (0, 0), BuildingBlock: TEMPAE_clean_linker_10, # of connection points: 2
#     Edge 36, Type (0, 0), BuildingBlock: TEMPAE_clean_linker_10, # of connection points: 2
#     Edge 37, Type (0, 0), BuildingBlock: TEMPAE_clean_linker_10, # of connection points: 2
#     Edge 38, Type (0, 0), BuildingBlock: TEMPAE_clean_linker_10, # of connection points: 2
#     Edge 39, Type (0, 0), BuildingBlock: TEMPAE_clean_linker_10, # of connection points: 2
#     Edge 40, Type (0, 0), BuildingBlock: TEMPAE_clean_linker_10, # of connection points: 2
#     Edge 41, Type (0, 0), BuildingBlock: TEMPAE_clean_linker_10, # of connection points: 2
#     Edge 42, Type (0, 0), BuildingBlock: TEMPAE_clean_linker_10, # of connection points: 2
#     Edge 43, Type (0, 0), BuildingBlock: TEMPAE_clean_linker_10, # of connection points: 2
#     Edge 44, Type (0, 0), BuildingBlock: TEMPAE_clean_linker_10, # of connection points: 2
#     Edge 45, Type (0, 0), BuildingBlock: TEMPAE_clean_linker_10, # of connection points: 2
#     Edge 46, Type (0, 0), BuildingBlock: TEMPAE_clean_linker_10, # of connection points: 2
#     Edge 47, Type (0, 0), BuildingBlock: TEMPAE_clean_linker_10, # of connection points: 2
# Relax obj value: 0.211
# Max RMSD: 0.186
# Mean RMSD: 0.167
data_MOF--net-umz--node1-ICAMEG_clean_sbu_1--edge1-TEMPAE_clean_linker_10
_symmetry_space_group_name_H-M    P1
_symmetry_Int_Tables_number       1
_symmetry_cell_setting            triclinic
loop_
_symmetry_equiv_pos_as_xyz
'x, y, z'
_cell_length_a     60.902234
_cell_length_b     60.90276
_cell_length_c     24.518667
_cell_angle_alpha  89.518774
_cell_angle_beta   90.456488
_cell_angle_gamma 89.769739
loop_
_atom_site_label
_atom_site_type_symbol
_atom_site_fract_x
_atom_site_fract_y
_atom_site_fract_z
_atom_type_partial_charge
Co0 Co 0.99017 0.57927 0.9853 0.0
Co1 Co 1.00018 0.62635 0.05719 0.0
O2 O 0.99754 0.61064 0.98798 0.0
C3 C 0.02403 0.56137 0.91208 0.0
O4 O 0.02941 0.5479 0.95215 0.0
C5 C 0.97293 0.66597 0.04104 0.0
O6 O 0.962 0.65907 0.0838 0.0
O7 O 0.97004 0.61689 0.07724 0.0
O8 O 0.97053 0.58189 0.04981 0.0
H9 H 0.9912 0.63508 0.2595 0.0
H10 H 0.98474 0.60687 0.88586 0.0
O11 O 0.00946 0.57613 0.91955 0.0
H12 H 0.91119 0.57692 0.92293 0.0
H13 H 0.96923 0.50864 0.89213 0.0
H14 H 0.98666 0.54358 0.06784 0.0
H15 H 0.94258 0.56755 0.98296 0.0
H16 H 0.97836 0.54803 0.8959 0.0
O17 O 0.9881 0.65389 0.02133 0.0
H18 H 0.98849 0.6159 0.17164 0.0
H19 H 0.01713 0.67046 0.09032 0.0
H20 H 0.97719 0.50428 0.066 0.0
H21 H 0.95384 0.61645 0.82439 0.0
H22 H 0.96845 0.48655 0.97771 0.0
H23 H 0.91674 0.60144 0.8428 0.0
O24 O 0.01533 0.5721 0.03566 0.0
H25 H 0.05709 0.65674 0.9304 0.0
H26 H 0.04408 0.62483 0.11276 0.0
H27 H 0.08167 0.63517 0.08656 0.0
H28 H 0.08835 0.65136 0.99489 0.0
H29 H 0.01978 0.6459 0.95803 0.0
H30 H 0.02011 0.69025 0.17737 0.0
H31 H 0.0071 0.67255 0.26278 0.0
O32 O 0.01231 0.59972 0.09497 0.0
C33 C 0.96233 0.59746 0.07764 0.0
C34 C 0.99698 0.64295 0.22259 0.0
C35 C 0.0132 0.67391 0.1765 0.0
N36 N 0.00277 0.64196 0.12588 0.0
C37 C 0.99551 0.63215 0.17269 0.0
C38 C 0.01151 0.6626 0.12734 0.0
C39 C 0.00589 0.66397 0.2244 0.0
C40 C 0.96868 0.60015 0.89393 0.0
N41 N 0.96553 0.58652 0.93769 0.0
C42 C 0.95123 0.60569 0.85908 0.0
C43 C 0.93041 0.59728 0.86946 0.0
C44 C 0.92728 0.58353 0.91443 0.0
C45 C 0.94512 0.57835 0.94838 0.0
C46 C 0.97292 0.51622 0.9309 0.0
C47 C 0.98272 0.53605 0.02925 0.0
C48 C 0.97816 0.5385 0.93329 0.0
N49 N 0.98296 0.54817 0.9821 0.0
C50 C 0.97736 0.51377 0.02848 0.0
C51 C 0.97246 0.50383 0.97891 0.0
C52 C 0.01934 0.58074 0.08194 0.0
C53 C 0.05438 0.64977 0.97052 0.0
C54 C 0.04686 0.63173 0.07266 0.0
C55 C 0.06818 0.63762 0.05813 0.0
C56 C 0.07191 0.64672 0.0067 0.0
N57 N 0.02972 0.63491 0.03706 0.0
C58 C 0.03328 0.64368 0.98646 0.0
Co59 Co 0.89569 0.99341 0.52408 0.0
Co60 Co 0.85287 0.00361 0.61119 0.0
O61 O 0.86563 0.00379 0.53767 0.0
C62 C 0.91584 0.029 0.46004 0.0
O63 O 0.93052 0.02983 0.49952 0.0
C64 C 0.81775 0.98071 0.54838 0.0
O65 O 0.83256 0.96911 0.52262 0.0
O66 O 0.86012 0.97194 0.62133 0.0
O67 O 0.89304 0.97032 0.58158 0.0
H68 H 0.85152 0.98574 0.81168 0.0
H69 H 0.8647 0.99799 0.43097 0.0
O70 O 0.89925 0.01638 0.46499 0.0
H71 H 0.88538 0.91963 0.43611 0.0
H72 H 0.95953 0.97047 0.40723 0.0
H73 H 0.93335 0.98076 0.59514 0.0
H74 H 0.90098 0.94539 0.5029 0.0
H75 H 0.92184 0.98356 0.42407 0.0
O76 O 0.82341 0.9956 0.58161 0.0
H77 H 0.86735 0.98666 0.71956 0.0
H78 H 0.81084 0.02001 0.65825 0.0
H79 H 0.9711 0.96752 0.58011 0.0
H80 H 0.84891 0.97283 0.36294 0.0
H81 H 0.98445 0.96234 0.48559 0.0
H82 H 0.8592 0.93333 0.36533 0.0
O83 O 0.90751 0.01405 0.58036 0.0
H84 H 0.82266 0.06912 0.50955 0.0
H85 H 0.85971 0.04374 0.67833 0.0
H86 H 0.85144 0.08314 0.6658 0.0
H87 H 0.8327 0.09605 0.58099 0.0
H88 H 0.83145 0.02987 0.52356 0.0
H89 H 0.79429 0.01928 0.74968 0.0
H90 H 0.81469 0.00212 0.82725 0.0
O91 O 0.8816 0.01151 0.64453 0.0
C92 C 0.87842 0.96238 0.61288 0.0
C93 C 0.84249 0.99334 0.77828 0.0
C94 C 0.81036 0.01213 0.74346 0.0
N95 N 0.84013 0.00349 0.68356 0.0
C96 C 0.85141 0.99397 0.72601 0.0
C97 C 0.81981 0.01246 0.69174 0.0
C98 C 0.82182 0.00251 0.78696 0.0
C99 C 0.86943 0.98086 0.43193 0.0
N100 N 0.88386 0.97321 0.47064 0.0
C101 C 0.86036 0.96668 0.39346 0.0
C102 C 0.86611 0.94451 0.39488 0.0
C103 C 0.88078 0.93681 0.43461 0.0
C104 C 0.88951 0.95147 0.47246 0.0
C105 C 0.95391 0.97266 0.44861 0.0
C106 C 0.939 0.97852 0.55387 0.0
C107 C 0.93258 0.98007 0.45841 0.0
N108 N 0.92537 0.98295 0.51057 0.0
C109 C 0.96041 0.97102 0.54562 0.0
C110 C 0.96788 0.96811 0.49259 0.0
C111 C 0.90072 0.01689 0.62892 0.0
C112 C 0.83078 0.06369 0.54673 0.0
C113 C 0.85166 0.04924 0.64118 0.0
C114 C 0.84696 0.07157 0.63439 0.0
C115 C 0.83644 0.07879 0.58681 0.0
N116 N 0.84598 0.03452 0.60176 0.0
C117 C 0.83574 0.04149 0.55493 0.0
Co118 Co 0.53672 0.91286 0.97558 0.0
Co119 Co 0.5285 0.86268 0.03765 0.0
O120 O 0.53263 0.88089 0.97212 0.0
C121 C 0.50163 0.90845 0.89067 0.0
O122 O 0.49185 0.89373 0.92133 0.0
C123 C 0.56093 0.8272 0.02681 0.0
O124 O 0.56976 0.83486 0.07179 0.0
O125 O 0.55594 0.87461 0.07054 0.0
O126 O 0.55432 0.90982 0.04386 0.0
H127 H 0.52861 0.84729 0.23953 0.0
H128 H 0.54786 0.88915 0.8744 0.0
O129 O 0.51944 0.91722 0.90662 0.0
H130 H 0.61659 0.92476 0.93302 0.0
H131 H 0.5515 0.98796 0.89696 0.0
H132 H 0.53487 0.94581 0.06404 0.0
H133 H 0.5827 0.92921 0.98623 0.0
H134 H 0.547 0.94782 0.89368 0.0
O135 O 0.54535 0.83789 0.00334 0.0
H136 H 0.53316 0.86997 0.15677 0.0
H137 H 0.51524 0.816 0.05749 0.0
H138 H 0.53931 0.98595 0.06918 0.0
H139 H 0.58134 0.88444 0.81962 0.0
H140 H 0.54763 0.00735 0.9852 0.0
H141 H 0.61602 0.90231 0.8489 0.0
O142 O 0.50953 0.91638 0.02019 0.0
H143 H 0.48254 0.83046 0.88751 0.0
H144 H 0.48226 0.85814 0.07595 0.0
H145 H 0.44776 0.84499 0.03458 0.0
H146 H 0.44777 0.83094 0.93977 0.0
H147 H 0.51663 0.84406 0.9302 0.0
H148 H 0.51064 0.79268 0.13917 0.0
H149 H 0.51729 0.80831 0.23108 0.0
O150 O 0.51185 0.88656 0.0741 0.0
C151 C 0.56209 0.89452 0.07409 0.0
C152 C 0.52557 0.8403 0.19975 0.0
C153 C 0.51548 0.80966 0.14344 0.0
N154 N 0.5243 0.84444 0.10229 0.0
C155 C 0.52807 0.8531 0.1527 0.0
C156 C 0.51808 0.82298 0.09732 0.0
C157 C 0.51924 0.81843 0.19497 0.0
C158 C 0.56287 0.89707 0.88722 0.0
N159 N 0.5633 0.90952 0.93329 0.0
C160 C 0.58178 0.8943 0.85613 0.0
C161 C 0.60124 0.90431 0.87261 0.0
C162 C 0.60158 0.9169 0.91982 0.0
C163 C 0.58235 0.9193 0.94989 0.0
C164 C 0.54781 0.97887 0.93383 0.0
C165 C 0.53857 0.95497 0.02732 0.0
C166 C 0.54521 0.95611 0.9322 0.0
N167 N 0.54072 0.94444 0.97863 0.0
C168 C 0.54103 0.97772 0.03049 0.0
C169 C 0.54568 0.98971 0.98335 0.0
C170 C 0.5044 0.9057 0.06328 0.0
C171 C 0.48234 0.83647 0.92893 0.0
C172 C 0.48239 0.85219 0.03455 0.0
C173 C 0.46281 0.84468 0.01142 0.0
C174 C 0.46283 0.83678 0.95823 0.0
N175 N 0.50147 0.85176 0.0056 0.0
C176 C 0.50161 0.84409 0.9534 0.0
Co177 Co 0.57309 0.51508 0.48453 0.0
Co178 Co 0.62327 0.50812 0.5474 0.0
O179 O 0.60511 0.51019 0.4807 0.0
C180 C 0.57946 0.48243 0.39365 0.0
O181 O 0.59988 0.47883 0.40856 0.0
C182 C 0.66048 0.53753 0.52539 0.0
O183 O 0.65392 0.54851 0.56819 0.0
O184 O 0.61278 0.53765 0.56889 0.0
O185 O 0.57698 0.53477 0.54896 0.0
H186 H 0.63808 0.51774 0.74776 0.0
H187 H 0.59685 0.52392 0.38117 0.0
O188 O 0.56744 0.49577 0.41986 0.0
H189 H 0.55935 0.59333 0.42536 0.0
H190 H 0.49671 0.52657 0.4087 0.0
H191 H 0.54134 0.51664 0.57563 0.0
H192 H 0.55601 0.56101 0.48589 0.0
H193 H 0.53685 0.52255 0.40309 0.0
O194 O 0.64886 0.52162 0.50764 0.0
H195 H 0.6159 0.51927 0.66336 0.0
H196 H 0.66926 0.49346 0.57322 0.0
H197 H 0.50129 0.52149 0.58312 0.0
H198 H 0.60045 0.55575 0.31925 0.0
H199 H 0.47865 0.52644 0.49931 0.0
H200 H 0.58159 0.59078 0.34115 0.0
O201 O 0.57002 0.48914 0.53381 0.0
H202 H 0.65503 0.45325 0.41768 0.0
H203 H 0.6252 0.464 0.60195 0.0
H204 H 0.63728 0.4271 0.5743 0.0
H205 H 0.65243 0.42155 0.48165 0.0
H206 H 0.64236 0.48982 0.44661 0.0
H207 H 0.69204 0.49167 0.65671 0.0
H208 H 0.67646 0.50386 0.74482 0.0
O209 O 0.59863 0.4947 0.5897 0.0
C210 C 0.59298 0.5441 0.57328 0.0
C211 C 0.64504 0.51232 0.70966 0.0
C212 C 0.67531 0.49769 0.65856 0.0
N213 N 0.64118 0.50634 0.61338 0.0
C214 C 0.63254 0.51312 0.6617 0.0
C215 C 0.66231 0.4987 0.61143 0.0
C216 C 0.66657 0.50454 0.70797 0.0
C217 C 0.58844 0.539 0.39079 0.0
N218 N 0.57598 0.54045 0.43671 0.0
C219 C 0.59062 0.55703 0.35567 0.0
C220 C 0.58006 0.57669 0.36801 0.0
C221 C 0.56758 0.57813 0.41525 0.0
C222 C 0.56578 0.55977 0.44941 0.0
C223 C 0.50639 0.52474 0.4456 0.0
C224 C 0.53168 0.51918 0.53896 0.0
C225 C 0.52916 0.52227 0.44267 0.0
N226 N 0.54153 0.51957 0.48904 0.0
C227 C 0.50898 0.52185 0.54347 0.0
C228 C 0.49628 0.52464 0.4964 0.0
C229 C 0.58005 0.48611 0.57905 0.0
C230 C 0.64848 0.45546 0.45818 0.0
C231 C 0.63149 0.4617 0.5613 0.0
C232 C 0.63844 0.44078 0.546 0.0
C233 C 0.64698 0.43768 0.49406 0.0
N234 N 0.63299 0.47907 0.52583 0.0
C235 C 0.64137 0.47616 0.47489 0.0
Co236 Co 0.99788 0.91436 0.98757 0.0
Co237 Co 0.00495 0.86482 0.92371 0.0
O238 O 0.00352 0.88252 0.99015 0.0
C239 C 0.03308 0.93233 0.05796 0.0
O240 O 0.0389 0.94441 0.01588 0.0
C241 C 0.97551 0.82758 0.94533 0.0
O242 O 0.96459 0.83438 0.90193 0.0
O243 O 0.97532 0.87568 0.90145 0.0
O244 O 0.97756 0.91122 0.92376 0.0
H245 H 0.99469 0.85141 0.72311 0.0
H246 H 0.99179 0.88988 0.09132 0.0
O247 O 0.01784 0.91816 0.05265 0.0
H248 H 0.91963 0.92319 0.04919 0.0
H249 H 0.98197 0.98866 0.06859 0.0
H250 H 0.99588 0.94794 0.89927 0.0
H251 H 0.951 0.92909 0.98796 0.0
H252 H 0.98822 0.94862 0.07132 0.0
O253 O 0.99149 0.83906 0.9635 0.0
H254 H 0.99348 0.87303 0.80755 0.0
H255 H 0.01915 0.81888 0.89826 0.0
H256 H 0.98956 0.98794 0.89471 0.0
H257 H 0.96091 0.88379 0.15406 0.0
H258 H 0.98258 0.00858 0.97979 0.0
H259 H 0.9245 0.9005 0.1331 0.0
O260 O 0.02298 0.91858 0.93636 0.0
H261 H 0.06054 0.83411 0.05646 0.0
H262 H 0.04861 0.86196 0.86908 0.0
H263 H 0.08563 0.84985 0.89779 0.0
H264 H 0.09176 0.83568 0.99201 0.0
H265 H 0.02381 0.84668 0.02625 0.0
H266 H 0.02057 0.79665 0.81478 0.0
H267 H 0.0083 0.81291 0.72637 0.0
O268 O 0.01844 0.88955 0.88203 0.0
C269 C 0.96836 0.89543 0.89859 0.0
C270 C 1.00012 0.84415 0.76136 0.0
C271 C 0.01465 0.81342 0.8128 0.0
N272 N 0.00634 0.8473 0.85781 0.0
C273 C 0.9995 0.85632 0.80933 0.0
C274 C 0.01384 0.8261 0.85993 0.0
C275 C 0.00775 0.82255 0.76322 0.0
C276 C 0.97604 0.89733 0.08213 0.0
N277 N 0.97327 0.90996 0.03624 0.0
C278 C 0.9586 0.89377 0.11771 0.0
C279 C 0.93817 0.90313 0.1059 0.0
C280 C 0.93542 0.91585 0.05881 0.0
C281 C 0.95324 0.91907 0.02419 0.0
C282 C 0.98494 0.97983 0.03121 0.0
C283 C 0.99278 0.95677 0.93649 0.0
C284 C 0.9885 0.95716 0.03249 0.0
N285 N 0.99241 0.94589 0.98547 0.0
C286 C 0.98923 0.97943 0.93364 0.0
C287 C 0.98529 0.991 0.98138 0.0
C288 C 0.02649 0.90839 0.89196 0.0
C289 C 0.05806 0.84018 0.01525 0.0
C290 C 0.05116 0.85597 0.91027 0.0
C291 C 0.07215 0.84905 0.92623 0.0
C292 C 0.07558 0.8411 0.97908 0.0
N293 N 0.03402 0.85489 0.94589 0.0
C294 C 0.03729 0.84725 0.99787 0.0
Co295 Co 0.57169 0.99295 0.50254 0.0
Co296 Co 0.61995 0.01143 0.44852 0.0
O297 O 0.60189 0.00371 0.51171 0.0
C298 C 0.56782 0.02749 0.58688 0.0
O299 O 0.5812 0.03976 0.55824 0.0
C300 C 0.6541 0.98272 0.50169 0.0
O301 O 0.64106 0.96566 0.4981 0.0
O302 O 0.61585 0.98154 0.41875 0.0
O303 O 0.58004 0.97655 0.43526 0.0
H304 H 0.63903 0.01236 0.24943 0.0
H305 H 0.59516 0.98611 0.60766 0.0
O306 O 0.56238 0.00858 0.57005 0.0
H307 H 0.57505 0.91201 0.54553 0.0
H308 H 0.49885 0.96477 0.5682 0.0
H309 H 0.54145 0.98806 0.40793 0.0
H310 H 0.565 0.94471 0.49066 0.0
H311 H 0.53736 0.97616 0.57852 0.0
O312 O 0.64722 0.0018 0.48825 0.0
H313 H 0.61619 0.00394 0.32934 0.0
H314 H 0.6629 0.03415 0.43375 0.0
H315 H 0.50316 0.97604 0.39554 0.0
H316 H 0.60542 0.95386 0.66402 0.0
H317 H 0.48145 0.96449 0.47606 0.0
H318 H 0.59535 0.91648 0.63299 0.0
O319 O 0.5637 0.01924 0.45727 0.0
H320 H 0.63698 0.06598 0.59527 0.0
H321 H 0.61466 0.05685 0.40302 0.0
H322 H 0.61847 0.09411 0.44039 0.0
H323 H 0.62977 0.09886 0.53713 0.0
H324 H 0.63267 0.02899 0.55642 0.0
H325 H 0.68639 0.04269 0.35502 0.0
H326 H 0.67445 0.03186 0.26198 0.0
O327 O 0.59375 0.02152 0.40567 0.0
C328 C 0.59782 0.97143 0.4111 0.0
C329 C 0.64439 0.01724 0.28973 0.0
C330 C 0.67097 0.03423 0.349 0.0
N331 N 0.63809 0.01869 0.38619 0.0
C332 C 0.63147 0.01258 0.33516 0.0
C333 C 0.65762 0.02931 0.39347 0.0
C334 C 0.66426 0.02816 0.29681 0.0
C335 C 0.59064 0.9699 0.59405 0.0
N336 N 0.5794 0.9673 0.54613 0.0
C337 C 0.59653 0.9517 0.62605 0.0
C338 C 0.59089 0.93073 0.60859 0.0
C339 C 0.57951 0.92821 0.55952 0.0
C340 C 0.57391 0.94679 0.52857 0.0
C341 C 0.50811 0.96959 0.53268 0.0
C342 C 0.53227 0.98265 0.44308 0.0
C343 C 0.52993 0.9762 0.53833 0.0
N344 N 0.54174 0.98263 0.49382 0.0
C345 C 0.51054 0.97596 0.43583 0.0
C346 C 0.49838 0.96946 0.48103 0.0
C347 C 0.57365 0.02587 0.41472 0.0
C348 C 0.63211 0.06412 0.55301 0.0
C349 C 0.61943 0.05876 0.44527 0.0
C350 C 0.62165 0.07991 0.46614 0.0
C351 C 0.62802 0.08256 0.5204 0.0
N352 N 0.62346 0.04076 0.47753 0.0
C353 C 0.62974 0.04323 0.53073 0.0
Co354 Co 0.53012 0.58639 0.01978 0.0
Co355 Co 0.50657 0.63356 0.96501 0.0
O356 O 0.51887 0.61645 0.02586 0.0
C357 C 0.49606 0.5828 0.10423 0.0
O358 O 0.48351 0.5948 0.0719 0.0
C359 C 0.54211 0.66508 0.99369 0.0
O360 O 0.55683 0.65003 0.98234 0.0
O361 O 0.53201 0.62629 0.91757 0.0
O362 O 0.54472 0.594 0.95009 0.0
H363 H 0.48477 0.64734 0.76951 0.0
H364 H 0.53744 0.61106 0.12204 0.0
O365 O 0.5155 0.5779 0.0898 0.0
H366 H 0.61139 0.59417 0.05299 0.0
H367 H 0.56517 0.51701 0.0925 0.0
H368 H 0.5344 0.55437 0.92975 0.0
H369 H 0.57838 0.58191 0.0031 0.0
H370 H 0.55026 0.55458 0.09877 0.0
O371 O 0.5217 0.66063 0.99191 0.0
H372 H 0.50007 0.62584 0.84658 0.0
H373 H 0.48709 0.67845 0.95454 0.0
H374 H 0.54875 0.51662 0.92187 0.0
H375 H 0.57002 0.62345 0.17353 0.0
H376 H 0.56427 0.49766 0.00372 0.0
H377 H 0.60732 0.61503 0.13898 0.0
O378 O 0.50374 0.57661 0.97726 0.0
H379 H 0.46978 0.65728 0.13758 0.0
H380 H 0.45799 0.63161 0.94944 0.0
H381 H 0.42601 0.63893 0.00777 0.0
H382 H 0.43182 0.65187 0.10258 0.0
H383 H 0.50129 0.64958 0.07797 0.0
H384 H 0.47185 0.70061 0.87846 0.0
H385 H 0.47054 0.68503 0.78519 0.0
O386 O 0.49127 0.60734 0.93628 0.0
C387 C 0.5446 0.60953 0.9149 0.0
C388 C 0.48519 0.65429 0.80999 0.0
C389 C 0.47797 0.68419 0.87113 0.0
N390 N 0.49432 0.6508 0.90512 0.0
C391 C 0.49378 0.64217 0.85386 0.0
C392 C 0.48666 0.67158 0.91403 0.0
C393 C 0.47723 0.67544 0.81881 0.0
C394 C 0.55362 0.6072 0.10698 0.0
N395 N 0.55601 0.59565 0.05985 0.0
C396 C 0.572 0.61432 0.1362 0.0
C397 C 0.59293 0.60961 0.11676 0.0
C398 C 0.59522 0.59791 0.0685 0.0
C399 C 0.57647 0.59107 0.04035 0.0
C400 C 0.55832 0.52502 0.05664 0.0
C401 C 0.54109 0.54622 0.96556 0.0
C402 C 0.54988 0.54631 0.05993 0.0
N403 N 0.54157 0.55671 0.01462 0.0
C404 C 0.54919 0.52484 0.96084 0.0
C405 C 0.55788 0.51421 0.00677 0.0
C406 C 0.49112 0.58661 0.94331 0.0
C407 C 0.46704 0.6517 0.0963 0.0
C408 C 0.46064 0.63719 0.99068 0.0
C409 C 0.44248 0.64135 0.02348 0.0
C410 C 0.44575 0.64863 0.07666 0.0
N411 N 0.48148 0.64024 0.01024 0.0
C412 C 0.48481 0.64741 0.0623 0.0
Co413 Co 0.90901 0.51934 0.50735 0.0
Co414 Co 0.86064 0.50288 0.4453 0.0
O415 O 0.87766 0.5116 0.51005 0.0
C416 C 0.90811 0.48614 0.59798 0.0
O417 O 0.8944 0.47412 0.56953 0.0
C418 C 0.82225 0.53246 0.44474 0.0
O419 O 0.82902 0.53885 0.39646 0.0
O420 O 0.87037 0.52964 0.40483 0.0
O421 O 0.90455 0.5348 0.43656 0.0
H422 H 0.84895 0.49081 0.24459 0.0
H423 H 0.88309 0.52988 0.6055 0.0
O424 O 0.91485 0.50437 0.57899 0.0
H425 H 0.91067 0.60101 0.53784 0.0
H426 H 0.9812 0.54431 0.58694 0.0
H427 H 0.9428 0.51955 0.42075 0.0
H428 H 0.91981 0.56668 0.49031 0.0
H429 H 0.94171 0.5356 0.589 0.0
O430 O 0.83399 0.51905 0.47304 0.0
H431 H 0.86966 0.50175 0.32666 0.0
H432 H 0.81548 0.48498 0.42661 0.0
H433 H 0.98222 0.52839 0.4167 0.0
H434 H 0.87372 0.56381 0.65464 0.0
H435 H 0.00172 0.54078 0.50028 0.0
H436 H 0.88754 0.5997 0.62077 0.0
O437 O 0.91638 0.49173 0.46735 0.0
H438 H 0.83082 0.46167 0.60662 0.0
H439 H 0.86047 0.45486 0.42093 0.0
H440 H 0.84985 0.42151 0.47177 0.0
H441 H 0.83483 0.4248 0.56525 0.0
H442 H 0.84192 0.49459 0.55458 0.0
H443 H 0.79415 0.47393 0.34554 0.0
H444 H 0.81089 0.4768 0.25371 0.0
O445 O 0.88631 0.48677 0.41571 0.0
C446 C 0.88907 0.53892 0.40277 0.0
C447 C 0.84147 0.48947 0.28438 0.0
C448 C 0.81073 0.47999 0.34103 0.0
N449 N 0.84384 0.49398 0.38145 0.0
C450 C 0.85313 0.49564 0.33103 0.0
C451 C 0.8229 0.48626 0.3868 0.0
C452 C 0.82013 0.48161 0.28953 0.0
C453 C 0.88926 0.54543 0.59072 0.0
N454 N 0.90206 0.54629 0.54526 0.0
C455 C 0.88385 0.56459 0.61861 0.0
C456 C 0.89159 0.58472 0.59956 0.0
C457 C 0.90456 0.58547 0.55301 0.0
C458 C 0.90963 0.56598 0.52617 0.0
C459 C 0.97289 0.53893 0.55024 0.0
C460 C 0.95111 0.52509 0.45721 0.0
C461 C 0.95053 0.5339 0.55119 0.0
N462 N 0.93992 0.52708 0.50503 0.0
C463 C 0.97346 0.53002 0.45469 0.0
C464 C 0.98439 0.53696 0.5016 0.0
C465 C 0.90629 0.48261 0.42773 0.0
C466 C 0.83728 0.46003 0.56585 0.0
C467 C 0.85407 0.45644 0.4617 0.0
C468 C 0.84801 0.43749 0.49022 0.0
C469 C 0.83957 0.43935 0.54265 0.0
N470 N 0.8517 0.47668 0.48467 0.0
C471 C 0.84349 0.47862 0.5361 0.0
Co472 Co 0.0144 0.42017 0.01797 0.0
Co473 Co 0.00714 0.37293 0.94509 0.0
O474 O 0.00797 0.38839 0.01544 0.0
C475 C 0.98216 0.4121 0.11017 0.0
O476 O 0.97969 0.39143 0.0969 0.0
C477 C 0.02524 0.33882 0.02559 0.0
O478 O 0.02474 0.35243 0.06676 0.0
O479 O 0.03762 0.38254 0.9302 0.0
O480 O 0.03436 0.41778 0.9536 0.0
H481 H 0.02037 0.3668 0.74368 0.0
H482 H 0.02172 0.39246 0.11776 0.0
O483 O 0.9947 0.42462 0.08266 0.0
H484 H 0.09309 0.42689 0.07994 0.0
H485 H 0.03199 0.49191 0.10947 0.0
H486 H 0.01749 0.45552 0.93401 0.0
H487 H 0.06112 0.43445 0.02045 0.0
H488 H 0.02376 0.45233 0.10659 0.0
O489 O 0.01909 0.34496 0.97809 0.0
H490 H 0.02012 0.38532 0.83259 0.0
H491 H 0.99382 0.32823 0.90794 0.0
H492 H 0.02609 0.49506 0.93502 0.0
H493 H 0.05313 0.38467 0.17855 0.0
H494 H 0.03354 0.51344 0.02329 0.0
H495 H 0.0892 0.40193 0.15987 0.0
O496 O 0.98904 0.4263 0.96791 0.0
H497 H 0.94603 0.34178 0.05929 0.0
H498 H 0.96552 0.37332 0.88042 0.0
H499 H 0.92732 0.36234 0.89759 0.0
H500 H 0.91734 0.34632 0.98749 0.0
H501 H 0.9839 0.35325 0.04069 0.0
H502 H 0.99395 0.30903 0.81981 0.0
H503 H 0.0072 0.32836 0.73683 0.0
O504 O 0.99525 0.39975 0.90735 0.0
C505 C 0.044 0.40241 0.92797 0.0
C506 C 0.01447 0.35822 0.77949 0.0
C507 C 0.99967 0.32579 0.82224 0.0
N508 N 0.00679 0.35797 0.87541 0.0
C509 C 0.01424 0.36865 0.82998 0.0
C510 C 0.99968 0.33675 0.87206 0.0
C511 C 0.00711 0.33665 0.7757 0.0
C512 C 0.03718 0.40027 0.10956 0.0
N513 N 0.03936 0.41415 0.06591 0.0
C514 C 0.05501 0.39569 0.14404 0.0
C515 C 0.07525 0.40534 0.13349 0.0
C516 C 0.07744 0.41933 0.08865 0.0
C517 C 0.05925 0.42351 0.05504 0.0
C518 C 0.02895 0.48402 0.07077 0.0
C519 C 0.02086 0.46336 0.97252 0.0
C520 C 0.02417 0.46162 0.06886 0.0
N521 N 0.02046 0.4515 0.02006 0.0
C522 C 0.02569 0.48577 0.97283 0.0
C523 C 0.02984 0.4961 0.02235 0.0
C524 C 0.98633 0.41786 0.92086 0.0
C525 C 0.95019 0.34862 0.01984 0.0
C526 C 0.96137 0.36644 0.91977 0.0
C527 C 0.93967 0.3602 0.92917 0.0
C528 C 0.93409 0.35121 0.97959 0.0
N529 N 0.97714 0.36373 0.95933 0.0
C530 C 0.97171 0.35504 0.00894 0.0
Co531 Co 0.10903 0.01609 0.49495 0.0
Co532 Co 0.14758 0.98787 0.42195 0.0
O533 O 0.13699 1.00015 0.49055 0.0
C534 C 0.10382 0.97716 0.57016 0.0
O535 O 0.11979 0.96682 0.54538 0.0
C536 C 0.18225 0.02062 0.45353 0.0
O537 O 0.16862 0.03075 0.48612 0.0
O538 O 0.13529 0.01315 0.37794 0.0
O539 O 0.11947 0.03611 0.43702 0.0
H540 H 0.13971 0.96438 0.22669 0.0
H541 H 0.13567 0.00812 0.59546 0.0
O542 O 0.09777 0.99623 0.55426 0.0
H543 H 0.12963 0.0886 0.57749 0.0
H544 H 0.04549 0.05157 0.59122 0.0
H545 H 0.07838 0.03547 0.41276 0.0
H546 H 0.11201 0.06446 0.50994 0.0
H547 H 0.08072 0.03165 0.58582 0.0
O548 O 0.17629 0.00367 0.42731 0.0
H549 H 0.1273 0.98045 0.31312 0.0
H550 H 0.18996 0.96847 0.38495 0.0
H551 H 0.0431 0.05538 0.41642 0.0
H552 H 0.15335 0.03163 0.66418 0.0
H553 H 0.02646 0.06362 0.50606 0.0
H554 H 0.15042 0.0722 0.65541 0.0
O555 O 0.09459 0.99709 0.43789 0.0
H556 H 0.19025 0.95294 0.5763 0.0
H557 H 0.14515 0.93917 0.41229 0.0
H558 H 0.15965 0.90781 0.46596 0.0
H559 H 0.18244 0.91461 0.54853 0.0
H560 H 0.17523 0.98379 0.52179 0.0
H561 H 0.20312 0.95252 0.29902 0.0
H562 H 0.17787 0.95027 0.21922 0.0
O563 O 0.11954 0.97197 0.41427 0.0
C564 C 0.12664 0.03163 0.38987 0.0
C565 C 0.15082 0.96516 0.26127 0.0
C566 C 0.18642 0.95854 0.30183 0.0
N567 N 0.15778 0.97517 0.3543 0.0
C568 C 0.14386 0.97417 0.31042 0.0
C569 C 0.17889 0.96764 0.35035 0.0
C570 C 0.17225 0.95728 0.25708 0.0
C571 C 0.13406 0.02573 0.5917 0.0
N572 N 0.12254 0.03487 0.54915 0.0
C573 C 0.14423 0.03897 0.63059 0.0
C574 C 0.14261 0.06173 0.62559 0.0
C575 C 0.13096 0.07095 0.58188 0.0
C576 C 0.12103 0.05719 0.54374 0.0
C577 C 0.05262 0.04814 0.55189 0.0
C578 C 0.07132 0.03907 0.45199 0.0
C579 C 0.07255 0.03682 0.54856 0.0
N580 N 0.08168 0.03246 0.49902 0.0
C581 C 0.05132 0.05034 0.45376 0.0
C582 C 0.04196 0.05491 0.5041 0.0
C583 C 0.10014 0.97968 0.41257 0.0
C584 C 0.18043 0.94977 0.54027 0.0
C585 C 0.15502 0.94226 0.44823 0.0
C586 C 0.16322 0.92444 0.4784 0.0
C587 C 0.17601 0.92827 0.52471 0.0
N588 N 0.15953 0.9633 0.46359 0.0
C589 C 0.17198 0.96718 0.50907 0.0
Co590 Co 0.4615 0.08674 0.00104 0.0
Co591 Co 0.47078 0.1368 0.93975 0.0
O592 O 0.46634 0.11854 0.00497 0.0
C593 C 0.49674 0.09038 0.08547 0.0
O594 O 0.50671 0.10484 0.05441 0.0
C595 C 0.43955 0.17327 0.95303 0.0
O596 O 0.43057 0.16677 0.90705 0.0
O597 O 0.44286 0.12579 0.90715 0.0
O598 O 0.44392 0.09041 0.93286 0.0
H599 H 0.47072 0.15284 0.73818 0.0
H600 H 0.45099 0.11046 0.10266 0.0
O601 O 0.47876 0.08187 0.06985 0.0
H602 H 0.38142 0.07655 0.04387 0.0
H603 H 0.44518 0.01182 0.07875 0.0
H604 H 0.46238 0.05399 0.91204 0.0
H605 H 0.41515 0.07147 0.99039 0.0
H606 H 0.45064 0.05183 0.08258 0.0
O607 O 0.45482 0.16177 0.97525 0.0
H608 H 0.46561 0.13008 0.82057 0.0
H609 H 0.48527 0.18315 0.92073 0.0
H610 H 0.45697 0.01397 0.90635 0.0
H611 H 0.41768 0.11578 0.15771 0.0
H612 H 0.44836 0.99258 0.99015 0.0
H613 H 0.38257 0.09876 0.12834 0.0
O614 O 0.48856 0.08272 0.95622 0.0
H615 H 0.51821 0.16717 0.08958 0.0
H616 H 0.517 0.14016 0.90053 0.0
H617 H 0.55202 0.15219 0.94139 0.0
H618 H 0.55276 0.1659 0.03651 0.0
H619 H 0.4836 0.15466 0.04742 0.0
H620 H 0.49051 0.20656 0.83942 0.0
H621 H 0.48325 0.19142 0.74727 0.0
O622 O 0.48661 0.11262 0.90243 0.0
C623 C 0.43639 0.10598 0.90303 0.0
C624 C 0.47402 0.15962 0.77808 0.0
C625 C 0.48512 0.18976 0.83488 0.0
N626 N 0.47528 0.15516 0.87546 0.0
C627 C 0.4712 0.14677 0.82491 0.0
C628 C 0.48216 0.1764 0.88079 0.0
C629 C 0.48103 0.18126 0.78321 0.0
C630 C 0.4358 0.10291 0.0898 0.0
N631 N 0.43505 0.09058 0.04354 0.0
C632 C 0.41698 0.10603 0.12105 0.0
C633 C 0.39728 0.09649 0.10452 0.0
C634 C 0.39662 0.08403 0.05712 0.0
C635 C 0.41576 0.08127 0.0269 0.0
C636 C 0.44898 0.02092 0.04196 0.0
C637 C 0.45855 0.04482 0.94867 0.0
C638 C 0.45213 0.0436 0.04389 0.0
N639 N 0.45677 0.05527 0.99756 0.0
C640 C 0.45555 0.02215 0.9452 0.0
C641 C 0.45074 0.01015 0.99224 0.0
C642 C 0.49374 0.09335 0.91308 0.0
C643 C 0.51809 0.16131 0.04803 0.0
C644 C 0.5172 0.14597 0.94206 0.0
C645 C 0.53707 0.15284 0.96491 0.0
C646 C 0.53747 0.16055 0.01827 0.0
N647 N 0.49824 0.14683 0.97146 0.0
C648 C 0.49852 0.15432 0.02384 0.0
Co649 Co 0.4225 0.48588 0.52384 0.0
Co650 Co 0.37539 0.4998 0.45492 0.0
O651 O 0.39151 0.49528 0.52405 0.0
C652 C 0.41807 0.51628 0.62049 0.0
O653 O 0.39704 0.51924 0.61102 0.0
C654 C 0.34026 0.47304 0.50885 0.0
O655 O 0.35386 0.45637 0.51453 0.0
O656 O 0.38122 0.46888 0.43528 0.0
O657 O 0.41684 0.46707 0.45848 0.0
H658 H 0.36326 0.49116 0.2532 0.0
H659 H 0.39394 0.47876 0.62168 0.0
O660 O 0.42968 0.50426 0.58956 0.0
H661 H 0.42555 0.40631 0.5804 0.0
H662 H 0.49569 0.46476 0.6068 0.0
H663 H 0.45501 0.47948 0.43584 0.0
H664 H 0.43439 0.43851 0.52342 0.0
H665 H 0.45626 0.47393 0.60871 0.0
O666 O 0.34703 0.4914 0.49037 0.0
H667 H 0.38352 0.48722 0.34004 0.0
H668 H 0.33266 0.52075 0.42316 0.0
H669 H 0.4942 0.46949 0.43212 0.0
H670 H 0.38488 0.44713 0.67987 0.0
H671 H 0.51487 0.46218 0.51807 0.0
H672 H 0.40074 0.41051 0.65957 0.0
O673 O 0.43012 0.51128 0.47592 0.0
H674 H 0.3521 0.56043 0.57973 0.0
H675 H 0.38115 0.54298 0.39794 0.0
H676 H 0.37524 0.58165 0.42303 0.0
H677 H 0.36056 0.59059 0.51446 0.0
H678 H 0.35848 0.52196 0.55311 0.0
H679 H 0.31173 0.5249 0.3372 0.0
H680 H 0.32705 0.5101 0.25134 0.0
O681 O 0.40266 0.50856 0.41557 0.0
C682 C 0.4001 0.45988 0.43252 0.0
C683 C 0.35641 0.49771 0.2903 0.0
C684 C 0.32748 0.51661 0.33747 0.0
N685 N 0.3593 0.50373 0.38678 0.0
C686 C 0.36783 0.49555 0.33968 0.0
C687 C 0.33937 0.51414 0.38609 0.0
C688 C 0.33609 0.50832 0.28931 0.0
C689 C 0.4013 0.46312 0.61294 0.0
N690 N 0.41528 0.46081 0.57004 0.0
C691 C 0.39593 0.44514 0.64589 0.0
C692 C 0.40478 0.42459 0.6344 0.0
C693 C 0.4187 0.42223 0.59004 0.0
C694 C 0.4237 0.44057 0.55799 0.0
C695 C 0.48681 0.46767 0.56909 0.0
C696 C 0.46374 0.47589 0.47342 0.0
C697 C 0.4645 0.47305 0.5699 0.0
N698 N 0.45323 0.47708 0.52239 0.0
C699 C 0.48598 0.47033 0.47104 0.0
C700 C 0.49757 0.46625 0.51928 0.0
C701 C 0.42181 0.51496 0.42895 0.0
C702 C 0.35852 0.55675 0.53977 0.0
C703 C 0.37496 0.54672 0.43801 0.0
C704 C 0.37154 0.56866 0.45187 0.0
C705 C 0.36328 0.57366 0.50316 0.0
N706 N 0.37027 0.53022 0.4742 0.0
C707 C 0.36213 0.535 0.52447 0.0
Co708 Co 0.01236 0.0881 0.03207 0.0
Co709 Co 0.99445 0.13746 0.0871 0.0
O710 O 0.00332 0.11914 0.02523 0.0
C711 C 0.97623 0.08639 0.94962 0.0
O712 O 0.9647 0.09981 0.97985 0.0
C713 C 0.02481 0.17524 0.07969 0.0
O714 O 0.03286 0.16876 0.12699 0.0
O715 O 0.02118 0.12835 0.12947 0.0
O716 O 0.02986 0.09482 0.09805 0.0
H717 H 0.98166 0.1529 0.28539 0.0
H718 H 0.0187 0.11178 0.92727 0.0
O719 O 0.99533 0.08036 0.96494 0.0
H720 H 0.09279 0.0881 0.98606 0.0
H721 H 0.03725 0.01465 0.96123 0.0
H722 H 0.01761 0.05677 0.12475 0.0
H723 H 0.06045 0.07914 0.04173 0.0
H724 H 0.02665 0.05368 0.95337 0.0
O725 O 0.01046 0.16353 0.05516 0.0
H726 H 0.99275 0.13056 0.2068 0.0
H727 H 0.97687 0.18317 0.09852 0.0
H728 H 0.0284 0.01785 0.1345 0.0
H729 H 0.05059 0.12089 0.87 0.0
H730 H 0.03823 0.99648 0.05232 0.0
H731 H 0.08796 0.10905 0.89938 0.0
O732 O 0.9865 0.08084 0.07887 0.0
H733 H 0.95355 0.16335 0.91975 0.0
H734 H 0.94645 0.13951 0.1114 0.0
H735 H 0.91319 0.14913 0.05828 0.0
H736 H 0.91663 0.16121 0.96172 0.0
H737 H 0.98636 0.15329 0.97425 0.0
H738 H 0.96585 0.20617 0.17597 0.0
H739 H 0.96814 0.19103 0.27025 0.0
O740 O 0.97821 0.11253 0.12028 0.0
C741 C 0.03264 0.11079 0.13026 0.0
C742 C 0.98059 0.15969 0.24451 0.0
C743 C 0.97173 0.18959 0.18311 0.0
N744 N 0.98551 0.15555 0.14808 0.0
C745 C 0.98683 0.14711 0.19983 0.0
C746 C 0.97805 0.17651 0.13941 0.0
C747 C 0.97301 0.18108 0.23599 0.0
C748 C 0.0349 0.10644 0.9401 0.0
N749 N 0.03769 0.09483 0.98758 0.0
C750 C 0.0529 0.1117 0.90761 0.0
C751 C 0.07386 0.10507 0.92414 0.0
C752 C 0.07659 0.09333 0.97277 0.0
C753 C 0.05821 0.08835 0.00419 0.0
C754 C 0.03302 0.02379 0.99734 0.0
C755 C 0.02199 0.04764 0.08879 0.0
C756 C 0.02688 0.04588 0.99311 0.0
N757 N 0.02146 0.05753 0.03853 0.0
C758 C 0.02805 0.02559 0.09458 0.0
C759 C 0.03358 0.01361 0.04847 0.0
C760 C 0.97582 0.09195 0.11388 0.0
C761 C 0.95184 0.15814 0.96181 0.0
C762 C 0.94807 0.14458 0.06934 0.0
C763 C 0.92919 0.1501 0.03951 0.0
C764 C 0.93113 0.15691 0.98536 0.0
N765 N 0.96833 0.14585 0.04599 0.0
C766 C 0.97036 0.15251 0.99292 0.0
Co767 Co 0.42773 0.00727 0.47409 0.0
Co768 Co 0.37918 0.98962 0.52793 0.0
O769 O 0.39741 0.99685 0.4647 0.0
C770 C 0.43117 0.97265 0.38966 0.0
O771 O 0.41744 0.96066 0.41801 0.0
C772 C 0.34568 0.01832 0.47205 0.0
O773 O 0.35918 0.03507 0.4737 0.0
O774 O 0.3835 0.01964 0.55667 0.0
O775 O 0.41948 0.02391 0.54123 0.0
H776 H 0.35986 0.98999 0.72684 0.0
H777 H 0.40448 0.01425 0.36873 0.0
O778 O 0.43698 0.99143 0.40672 0.0
H779 H 0.42541 0.08819 0.43041 0.0
H780 H 0.50096 0.03453 0.40892 0.0
H781 H 0.45789 0.01191 0.56897 0.0
H782 H 0.43501 0.05545 0.48561 0.0
H783 H 0.46236 0.02355 0.39834 0.0
O784 O 0.35206 0.99933 0.48769 0.0
H785 H 0.38289 0.9977 0.64684 0.0
H786 H 0.336 0.96736 0.54315 0.0
H787 H 0.4963 0.02351 0.58161 0.0
H788 H 0.39466 0.04655 0.31205 0.0
H789 H 0.51824 0.03475 0.50121 0.0
H790 H 0.40515 0.08385 0.34285 0.0
O791 O 0.43529 0.98094 0.51965 0.0
H792 H 0.36171 0.93447 0.38288 0.0
H793 H 0.38393 0.94438 0.57493 0.0
H794 H 0.37974 0.90696 0.53877 0.0
H795 H 0.36849 0.90183 0.44214 0.0
H796 H 0.3664 0.97162 0.42052 0.0
H797 H 0.31232 0.95954 0.62197 0.0
H798 H 0.32425 0.9708 0.7147 0.0
O799 O 0.40523 0.97943 0.57133 0.0
C800 C 0.40167 0.02944 0.56474 0.0
C801 C 0.3545 0.98494 0.68668 0.0
C802 C 0.32781 0.96788 0.62782 0.0
N803 N 0.36089 0.98287 0.59034 0.0
C804 C 0.36752 0.9892 0.6412 0.0
C805 C 0.34127 0.9724 0.58329 0.0
C806 C 0.33452 0.97419 0.67983 0.0
C807 C 0.40918 0.03042 0.38224 0.0
N808 N 0.4204 0.03295 0.43022 0.0
C809 C 0.40354 0.04865 0.35006 0.0
C810 C 0.40941 0.06957 0.36739 0.0
C811 C 0.42077 0.07203 0.41652 0.0
C812 C 0.42612 0.05343 0.44765 0.0
C813 C 0.4916 0.02987 0.4444 0.0
C814 C 0.46718 0.01716 0.53386 0.0
C815 C 0.46973 0.02347 0.4386 0.0
N816 N 0.45779 0.01723 0.48304 0.0
C817 C 0.48897 0.02363 0.54127 0.0
C818 C 0.50126 0.02996 0.49613 0.0
C819 C 0.42523 0.97462 0.56234 0.0
C820 C 0.36656 0.9365 0.4251 0.0
C821 C 0.3792 0.9423 0.53272 0.0
C822 C 0.37676 0.92106 0.51254 0.0
C823 C 0.37041 0.91819 0.45834 0.0
N824 N 0.3754 0.96017 0.49984 0.0
C825 C 0.36914 0.95749 0.44669 0.0
Co826 Co 0.47098 0.41884 0.98788 0.0
Co827 Co 0.48522 0.36817 0.04285 0.0
O828 O 0.4772 0.38729 0.98105 0.0
C829 C 0.50567 0.4176 0.90411 0.0
O830 O 0.51632 0.40362 0.93574 0.0
C831 C 0.45242 0.3329 0.03686 0.0
O832 O 0.44665 0.33901 0.08594 0.0
O833 O 0.45956 0.37883 0.08489 0.0
O834 O 0.45477 0.41366 0.05677 0.0
H835 H 0.49751 0.35017 0.24126 0.0
H836 H 0.46014 0.39639 0.88437 0.0
O837 O 0.48711 0.42514 0.9187 0.0
H838 H 0.38973 0.42552 0.9512 0.0
H839 H 0.44698 0.49339 0.91891 0.0
H840 H 0.47255 0.45062 0.07886 0.0
H841 H 0.42401 0.43138 0.00318 0.0
H842 H 0.45612 0.45408 0.91027 0.0
O843 O 0.46705 0.34373 0.01105 0.0
H844 H 0.4877 0.3739 0.16279 0.0
H845 H 0.49978 0.32136 0.05401 0.0
H846 H 0.46445 0.49007 0.08869 0.0
H847 H 0.42627 0.39035 0.83075 0.0
H848 H 0.45154 0.51175 0.00824 0.0
H849 H 0.39075 0.40497 0.86416 0.0
O850 O 0.49845 0.42364 0.03124 0.0
H851 H 0.52342 0.33988 0.8766 0.0
H852 H 0.5332 0.36375 0.06693 0.0
H853 H 0.5655 0.35219 0.01419 0.0
H854 H 0.56071 0.3401 0.91834 0.0
H855 H 0.49158 0.3518 0.93065 0.0
H856 H 0.50962 0.29703 0.13139 0.0
H857 H 0.50855 0.31142 0.22583 0.0
O858 O 0.50317 0.39177 0.07638 0.0
C859 C 0.45065 0.3977 0.08891 0.0
C860 C 0.49808 0.34372 0.2003 0.0
C861 C 0.50489 0.3139 0.13864 0.0
N862 N 0.49328 0.34908 0.10381 0.0
C863 C 0.49258 0.35709 0.15567 0.0
C864 C 0.49931 0.32776 0.09498 0.0
C865 C 0.50427 0.32198 0.19161 0.0
C866 C 0.44476 0.40291 0.89898 0.0
N867 N 0.44408 0.41434 0.94664 0.0
C868 C 0.42563 0.39939 0.86854 0.0
C869 C 0.4057 0.40757 0.88734 0.0
C870 C 0.40511 0.41909 0.93619 0.0
C871 C 0.42457 0.42229 0.96555 0.0
C872 C 0.45286 0.48419 0.95401 0.0
C873 C 0.4671 0.45995 0.04355 0.0
C874 C 0.45796 0.46189 0.94946 0.0
N875 N 0.4647 0.45 0.9941 0.0
C876 C 0.46252 0.4823 0.0494 0.0
C877 C 0.4553 0.49445 0.00427 0.0
C878 C 0.50765 0.41195 0.06844 0.0
C879 C 0.52571 0.34504 0.91839 0.0
C880 C 0.53099 0.35859 0.02518 0.0
C881 C 0.54933 0.352 0.99557 0.0
C882 C 0.54663 0.3452 0.94181 0.0
N883 N 0.51051 0.35831 0.00197 0.0
C884 C 0.50773 0.3517 0.94926 0.0
Co885 Co 0.09858 0.47501 0.49043 0.0
Co886 Co 0.14011 0.50172 0.56162 0.0
O887 O 0.12767 0.48907 0.49467 0.0
C888 C 0.09592 0.50979 0.40398 0.0
O889 O 0.10719 0.52289 0.43581 0.0
C890 C 0.17594 0.47069 0.52795 0.0
O891 O 0.1616 0.45676 0.5082 0.0
O892 O 0.13252 0.475 0.60514 0.0
O893 O 0.1043 0.45944 0.56066 0.0
H894 H 0.13903 0.5217 0.75998 0.0
H895 H 0.12859 0.47241 0.39614 0.0
O896 O 0.09165 0.49028 0.41947 0.0
H897 H 0.116 0.39569 0.45327 0.0
H898 H 0.03573 0.43798 0.39351 0.0
H899 H 0.0635 0.46487 0.57009 0.0
H900 H 0.09814 0.42622 0.50158 0.0
H901 H 0.07242 0.45475 0.40051 0.0
O902 O 0.16979 0.48899 0.54734 0.0
H903 H 0.12424 0.50601 0.67505 0.0
H904 H 0.18208 0.52434 0.59051 0.0
H905 H 0.02685 0.44794 0.56509 0.0
H906 H 0.14666 0.44238 0.34637 0.0
H907 H 0.01268 0.43447 0.4762 0.0
H908 H 0.14043 0.40369 0.37498 0.0
O909 O 0.08407 0.49941 0.53143 0.0
H910 H 0.17136 0.54197 0.40063 0.0
H911 H 0.13411 0.54995 0.5772 0.0
H912 H 0.14276 0.58302 0.52285 0.0
H913 H 0.16156 0.57913 0.43389 0.0
H914 H 0.16216 0.50934 0.45613 0.0
H915 H 0.19761 0.53997 0.6748 0.0
H916 H 0.176 0.5388 0.76027 0.0
O917 O 0.11133 0.51495 0.57939 0.0
C918 C 0.11752 0.46051 0.60107 0.0
C919 C 0.14859 0.52237 0.72298 0.0
C920 C 0.18147 0.5326 0.67517 0.0
N921 N 0.1522 0.51439 0.62771 0.0
C922 C 0.14027 0.51357 0.67467 0.0
C923 C 0.17261 0.52367 0.62759 0.0
C924 C 0.16934 0.53194 0.72311 0.0
C925 C 0.12566 0.45561 0.4085 0.0
N926 N 0.11224 0.45106 0.45148 0.0
C927 C 0.136 0.43868 0.38031 0.0
C928 C 0.13252 0.41698 0.39644 0.0
C929 C 0.11883 0.41248 0.44039 0.0
C930 C 0.1088 0.42983 0.46766 0.0
C931 C 0.04172 0.4438 0.43246 0.0
C932 C 0.05753 0.45891 0.53135 0.0
C933 C 0.06247 0.45338 0.43666 0.0
N934 N 0.07012 0.46083 0.48568 0.0
C935 C 0.03674 0.44938 0.52875 0.0
C936 C 0.02879 0.44182 0.47888 0.0
C937 C 0.09118 0.51313 0.56641 0.0
C938 C 0.16318 0.54388 0.43935 0.0
C939 C 0.14213 0.54813 0.53837 0.0
C940 C 0.14708 0.56691 0.50787 0.0
C941 C 0.15766 0.56472 0.458 0.0
N942 N 0.14759 0.52775 0.51978 0.0
C943 C 0.158 0.52547 0.471 0.0
C944 C 0.95677 0.70353 0.05209 0.0
C945 C 0.97077 0.68934 0.02366 0.0
C946 C 0.95641 0.72621 0.04114 0.0
C947 C 0.97024 0.73498 1.00038 0.0
C948 C 0.98392 0.72069 0.9703 0.0
C949 C 0.98408 0.69806 0.98241 0.0
C950 C 0.94164 0.74085 0.07424 0.0
C951 C 0.99872 0.72937 0.92605 0.0
C952 C 0.957 0.79106 0.93878 0.0
C953 C 0.97249 0.80458 0.9646 0.0
C954 C 0.95591 0.76849 0.95054 0.0
C955 C 0.97052 0.75913 0.98947 0.0
C956 C 0.98564 0.7728 0.01724 0.0
C957 C 0.9865 0.79534 0.00439 0.0
C958 C 0.93956 0.75453 0.91995 0.0
C959 C 0.00133 0.76349 0.05952 0.0
H960 H 0.94645 0.69705 0.08417 0.0
H961 H 0.995 0.68728 0.96031 0.0
H962 H 0.95171 0.75281 0.09732 0.0
H963 H 0.93055 0.75044 0.04685 0.0
H964 H 0.93148 0.73142 0.10359 0.0
H965 H 0.0078 0.71604 0.90515 0.0
H966 H 0.98892 0.73866 0.89522 0.0
H967 H 0.01081 0.74093 0.94379 0.0
H968 H 0.9461 0.79797 0.90793 0.0
H969 H 0.99857 0.80558 0.02446 0.0
H970 H 0.92907 0.7454 0.94904 0.0
H971 H 0.94842 0.74219 0.89529 0.0
H972 H 0.92882 0.76444 0.89232 0.0
H973 H 0.99212 0.75451 0.0915 0.0
H974 H 0.01136 0.77643 0.07928 0.0
H975 H 0.01256 0.75151 0.04019 0.0
C976 C 0.69194 0.99799 0.50974 0.0
C977 C 0.6779 0.97981 0.51339 0.0
C978 C 0.71475 0.9956 0.51451 0.0
C979 C 0.7239 0.97455 0.52451 0.0
C980 C 0.70988 0.95615 0.52976 0.0
C981 C 0.68702 0.95897 0.52374 0.0
C982 C 0.72907 0.01568 0.50842 0.0
C983 C 0.71905 0.93354 0.54156 0.0
C984 C 0.78479 0.97045 0.49216 0.0
C985 C 0.7941 0.97601 0.54253 0.0
C986 C 0.76184 0.96881 0.48602 0.0
C987 C 0.74812 0.97232 0.53167 0.0
C988 C 0.75766 0.97644 0.58333 0.0
C989 C 0.78049 0.97848 0.58796 0.0
C990 C 0.75226 0.96471 0.43012 0.0
C991 C 0.74373 0.97986 0.63327 0.0
H992 H 0.68518 0.0142 0.50203 0.0
H993 H 0.67634 0.94482 0.52656 0.0
H994 H 0.73824 0.0186 0.54693 0.0
H995 H 0.74135 0.01302 0.47593 0.0
H996 H 0.71941 0.03069 0.49813 0.0
H997 H 0.70596 0.92097 0.54511 0.0
H998 H 0.73041 0.92863 0.50865 0.0
H999 H 0.7287 0.93368 0.58013 0.0
H1000 H 0.79533 0.96854 0.45707 0.0
H1001 H 0.78771 0.9824 0.62724 0.0
H1002 H 0.74388 0.97982 0.41505 0.0
H1003 H 0.73975 0.95154 0.43197 0.0
H1004 H 0.76503 0.96001 0.40024 0.0
H1005 H 0.73483 0.99574 0.62957 0.0
H1006 H 0.75373 0.98007 0.67137 0.0
H1007 H 0.73124 0.96673 0.6368 0.0
C1008 C 0.55329 0.79421 0.96922 0.0
C1009 C 0.56422 0.80368 0.0137 0.0
C1010 C 0.55248 0.77129 0.96333 0.0
C1011 C 0.56257 0.75756 0.00328 0.0
C1012 C 0.57481 0.76706 0.04623 0.0
C1013 C 0.57566 0.78998 0.05061 0.0
C1014 C 0.53967 0.76178 0.91623 0.0
C1015 C 0.58559 0.75305 0.09002 0.0
C1016 C 0.53463 0.70282 0.02764 0.0
C1017 C 0.54872 0.68821 0.00107 0.0
C1018 C 0.5393 0.72533 0.02974 0.0
C1019 C 0.55828 0.73351 0.00359 0.0
C1020 C 0.57278 0.71879 0.97753 0.0
C1021 C 0.56794 0.69624 0.97707 0.0
C1022 C 0.52365 0.74041 0.05908 0.0
C1023 C 0.59297 0.72696 0.94848 0.0
H1024 H 0.54449 0.80463 0.94034 0.0
H1025 H 0.5842 0.79708 0.08513 0.0
H1026 H 0.5492 0.74849 0.89658 0.0
H1027 H 0.52423 0.75445 0.93154 0.0
H1028 H 0.5354 0.77443 0.88495 0.0
H1029 H 0.59653 0.76277 0.11699 0.0
H1030 H 0.57273 0.7453 0.1155 0.0
H1031 H 0.59533 0.73962 0.07166 0.0
H1032 H 0.51977 0.69666 0.04632 0.0
H1033 H 0.57873 0.68504 0.95586 0.0
H1034 H 0.51615 0.75222 0.02965 0.0
H1035 H 0.53268 0.75011 0.09005 0.0
H1036 H 0.51028 0.73128 0.07973 0.0
H1037 H 0.58799 0.7379 0.9141 0.0
H1038 H 0.60307 0.71332 0.93218 0.0
H1039 H 0.60328 0.73681 0.97651 0.0
C1040 C 0.69688 0.55638 0.53027 0.0
C1041 C 0.68351 0.54017 0.50694 0.0
C1042 C 0.71955 0.55701 0.52043 0.0
C1043 C 0.72915 0.54108 0.48625 0.0
C1044 C 0.71563 0.52528 0.46059 0.0
C1045 C 0.69298 0.52501 0.47123 0.0
C1046 C 0.73336 0.57419 0.54836 0.0
C1047 C 0.72521 0.50813 0.42346 0.0
C1048 C 0.78585 0.55042 0.42667 0.0
C1049 C 0.79911 0.5369 0.46008 0.0
C1050 C 0.76317 0.55232 0.4354 0.0
C1051 C 0.75343 0.54047 0.47872 0.0
C1052 C 0.76683 0.5275 0.51399 0.0
C1053 C 0.7895 0.52587 0.50427 0.0
C1054 C 0.7495 0.56639 0.39702 0.0
C1055 C 0.75709 0.51474 0.56093 0.0
H1056 H 0.68976 0.56821 0.55786 0.0
H1057 H 0.68285 0.51237 0.45311 0.0
H1058 H 0.7449 0.56611 0.57753 0.0
H1059 H 0.74339 0.5832 0.51803 0.0
H1060 H 0.72323 0.58622 0.57097 0.0
H1061 H 0.71236 0.49773 0.40443 0.0
H1062 H 0.73485 0.51611 0.39065 0.0
H1063 H 0.73664 0.49736 0.44699 0.0
H1064 H 0.79308 0.55906 0.39245 0.0
H1065 H 0.79955 0.51532 0.5302 0.0
H1066 H 0.7396 0.57835 0.42036 0.0
H1067 H 0.73783 0.55589 0.37414 0.0
H1068 H 0.75972 0.57554 0.36725 0.0
H1069 H 0.74758 0.52588 0.58751 0.0
H1070 H 0.76984 0.50626 0.5861 0.0
H1071 H 0.74551 0.50226 0.54505 0.0
C1072 C 0.02292 0.30461 0.0826 0.0
C1073 C 0.02956 0.31511 0.03447 0.0
C1074 C 0.02376 0.28159 0.08767 0.0
C1075 C 0.032 0.26884 0.04413 0.0
C1076 C 0.03979 0.27951 0.9966 0.0
C1077 C 0.03815 0.30247 0.99202 0.0
C1078 C 0.01487 0.27085 0.13859 0.0
C1079 C 0.04927 0.26665 0.94992 0.0
C1080 C 0.04695 0.20974 0.08076 0.0
C1081 C 0.02838 0.19834 0.0624 0.0
C1082 C 0.04885 0.23255 0.07284 0.0
C1083 C 0.03145 0.24435 0.04738 0.0
C1084 C 0.01299 0.2328 0.02705 0.0
C1085 C 0.01184 0.2099 0.03405 0.0
C1086 C 0.06913 0.2441 0.0934 0.0
C1087 C 0.99389 0.24475 1.00047 0.0
H1088 H 0.01599 0.3143 0.11517 0.0
H1089 H 0.04332 0.31055 0.95471 0.0
H1090 H 0.0007 0.26029 0.1278 0.0
H1091 H 0.02756 0.26009 0.15767 0.0
H1092 H 0.00944 0.28306 0.16913 0.0
H1093 H 0.05661 0.27749 0.91835 0.0
H1094 H 0.06207 0.25507 0.9652 0.0
H1095 H 0.0362 0.25672 0.93043 0.0
H1096 H 0.05982 0.20089 0.10254 0.0
H1097 H 0.99735 0.20125 0.02008 0.0
H1098 H 0.06482 0.25469 0.12835 0.0
H1099 H 0.07589 0.25492 0.06105 0.0
H1100 H 0.08212 0.23236 0.10691 0.0
H1101 H 0.98635 0.25609 0.03025 0.0
H1102 H 0.98105 0.23334 0.9855 0.0
H1103 H 0.99965 0.25488 0.96565 0.0
C1104 C 0.30738 0.00403 0.46741 0.0
C1105 C 0.3219 0.02166 0.46048 0.0
C1106 C 0.28461 0.00703 0.46405 0.0
C1107 C 0.27596 0.02812 0.45187 0.0
C1108 C 0.29046 0.04587 0.44238 0.0
C1109 C 0.3133 0.04248 0.44734 0.0
C1110 C 0.2698 0.98764 0.47491 0.0
C1111 C 0.28183 0.06844 0.42787 0.0
C1112 C 0.21723 0.02346 0.40249 0.0
C1113 C 0.20557 0.02703 0.45071 0.0
C1114 C 0.24012 0.02577 0.40099 0.0
C1115 C 0.25168 0.03116 0.44932 0.0
C1116 C 0.23983 0.03608 0.49731 0.0
C1117 C 0.21681 0.0342 0.49724 0.0
C1118 C 0.252 0.02091 0.34863 0.0
C1119 C 0.25154 0.04152 0.54993 0.0
H1120 H 0.31373 0.98782 0.47711 0.0
H1121 H 0.32435 0.05621 0.44177 0.0
H1122 H 0.25857 0.99138 0.50905 0.0
H1123 H 0.25947 0.98433 0.43846 0.0
H1124 H 0.27917 0.97247 0.48541 0.0
H1125 H 0.29522 0.08011 0.41801 0.0
H1126 H 0.27047 0.06751 0.39235 0.0
H1127 H 0.27231 0.07509 0.46245 0.0
H1128 H 0.2085 0.01811 0.36626 0.0
H1129 H 0.20781 0.03686 0.53461 0.0
H1130 H 0.26006 0.00458 0.35189 0.0
H1131 H 0.26503 0.03323 0.34112 0.0
H1132 H 0.24065 0.02077 0.31294 0.0
H1133 H 0.25993 0.02658 0.56601 0.0
H1134 H 0.24005 0.04757 0.58147 0.0
H1135 H 0.26431 0.05413 0.5429 0.0
C1136 C 0.44968 0.20521 0.01147 0.0
C1137 C 0.43632 0.1963 0.97042 0.0
C1138 C 0.44981 0.22787 0.02128 0.0
C1139 C 0.43617 0.24197 0.98953 0.0
C1140 C 0.42173 0.23297 0.95023 0.0
C1141 C 0.42198 0.21024 0.94113 0.0
C1142 C 0.46534 0.23683 0.06389 0.0
C1143 C 0.40681 0.24745 0.91594 0.0
C1144 C 0.42919 0.2994 0.04562 0.0
C1145 C 0.44562 0.31093 0.01774 0.0
C1146 C 0.42518 0.27716 0.03505 0.0
C1147 C 0.43796 0.26618 0.99576 0.0
C1148 C 0.45368 0.27804 0.96521 0.0
C1149 C 0.45729 0.30032 0.97645 0.0
C1150 C 0.4081 0.26516 0.06805 0.0
C1151 C 0.46758 0.26691 0.92275 0.0
H1152 H 0.46081 0.19463 0.03436 0.0
H1153 H 0.41154 0.20353 0.90942 0.0
H1154 H 0.47783 0.24734 0.04396 0.0
H1155 H 0.45628 0.24728 0.09301 0.0
H1156 H 0.47396 0.2236 0.08715 0.0
H1157 H 0.39505 0.23776 0.89109 0.0
H1158 H 0.3974 0.2588 0.94218 0.0
H1159 H 0.41682 0.25767 0.88802 0.0
H1160 H 0.41998 0.30752 0.07734 0.0
H1161 H 0.47004 0.30907 0.95478 0.0
H1162 H 0.41634 0.25334 0.09624 0.0
H1163 H 0.39713 0.25558 0.04096 0.0
H1164 H 0.39792 0.27653 0.09254 0.0
H1165 H 0.47859 0.25468 0.94285 0.0
H1166 H 0.47782 0.27876 0.89963 0.0
H1167 H 0.45702 0.2579 0.89352 0.0
C1168 C 0.30168 0.4868 0.49976 0.0
C1169 C 0.31625 0.47012 0.5168 0.0
C1170 C 0.27889 0.48402 0.50213 0.0
C1171 C 0.27021 0.46425 0.52344 0.0
C1172 C 0.28472 0.44745 0.54184 0.0
C1173 C 0.30759 0.45049 0.53784 0.0
C1174 C 0.26409 0.50234 0.4816 0.0
C1175 C 0.27607 0.42635 0.56597 0.0
C1176 C 0.2123 0.47288 0.5739 0.0
C1177 C 0.19967 0.46554 0.52964 0.0
C1178 C 0.23523 0.47093 0.57422 0.0
C1179 C 0.24592 0.46195 0.52844 0.0
C1180 C 0.23318 0.45352 0.48468 0.0
C1181 C 0.2101 0.45518 0.48611 0.0
C1182 C 0.24806 0.4797 0.62225 0.0
C1183 C 0.24394 0.44415 0.43474 0.0
H1184 H 0.30805 0.50205 0.48351 0.0
H1185 H 0.31867 0.43751 0.55112 0.0
H1186 H 0.25247 0.496 0.45047 0.0
H1187 H 0.25419 0.50883 0.51569 0.0
H1188 H 0.27345 0.51614 0.4633 0.0
H1189 H 0.28947 0.41487 0.57831 0.0
H1190 H 0.26594 0.42998 0.60224 0.0
H1191 H 0.26527 0.41803 0.536 0.0
H1192 H 0.20422 0.48066 0.608 0.0
H1193 H 0.20034 0.44957 0.45181 0.0
H1194 H 0.25643 0.49512 0.61018 0.0
H1195 H 0.26092 0.4678 0.63537 0.0
H1196 H 0.23733 0.48325 0.65757 0.0
H1197 H 0.25199 0.45758 0.41156 0.0
H1198 H 0.23191 0.43598 0.40739 0.0
H1199 H 0.25689 0.43214 0.44654 0.0
C1200 C 0.04871 0.54146 0.84786 0.0
C1201 C 0.03216 0.55712 0.85621 0.0
C1202 C 0.0556 0.53614 0.79508 0.0
C1203 C 0.04562 0.5466 0.7493 0.0
C1204 C 0.0289 0.56242 0.75734 0.0
C1205 C 0.02242 0.56756 0.81069 0.0
C1206 C 0.07372 0.51938 0.78832 0.0
C1207 C 0.01783 0.57385 0.70961 0.0
C1208 C 0.08267 0.54465 0.6266 0.0
C1209 C 0.07557 0.52538 0.60098 0.0
C1210 C 0.07193 0.55282 0.67253 0.0
C1211 C 0.05357 0.54147 0.69345 0.0
C1212 C 0.04491 0.52336 0.66442 0.0
C1213 C 0.05599 0.51558 0.61822 0.0
C1214 C 0.08157 0.57236 0.70156 0.0
C1215 C 0.02523 0.51091 0.68502 0.0
H1216 H 0.05628 0.53325 0.88265 0.0
H1217 H 0.00944 0.5795 0.81664 0.0
H1218 H 0.06828 0.50621 0.76036 0.0
H1219 H 0.08824 0.52731 0.76964 0.0
H1220 H 0.07886 0.51178 0.82776 0.0
H1221 H 0.0049 0.58555 0.7227 0.0
H1222 H 0.03017 0.58296 0.68537 0.0
H1223 H 0.01027 0.56155 0.6822 0.0
H1224 H 0.09762 0.5525 0.61307 0.0
H1225 H 0.05034 0.50073 0.59868 0.0
H1226 H 0.09014 0.56669 0.73925 0.0
H1227 H 0.06846 0.58397 0.71383 0.0
H1228 H 0.09357 0.5813 0.6758 0.0
H1229 H 0.03023 0.5006 0.72058 0.0
H1230 H 0.0182 0.5 0.65329 0.0
H1231 H 0.01224 0.52234 0.69889 0.0
C1232 C 0.9655 0.05838 0.16814 0.0
C1233 C 0.96166 0.08045 0.15401 0.0
C1234 C 0.95567 0.04896 0.2145 0.0
C1235 C 0.94146 0.06182 0.24696 0.0
C1236 C 0.93617 0.0835 0.23025 0.0
C1237 C 0.94638 0.09255 0.18426 0.0
C1238 C 0.96179 0.02578 0.23091 0.0
C1239 C 0.92094 0.09775 0.26314 0.0
C1240 C 0.90795 0.03492 0.36001 0.0
C1241 C 0.92113 0.03892 0.40613 0.0
C1242 C 0.91429 0.04224 0.30784 0.0
C1243 C 0.93429 0.05374 0.3016 0.0
C1244 C 0.94746 0.05811 0.3481 0.0
C1245 C 0.94068 0.05075 0.39965 0.0
C1246 C 0.89974 0.03742 0.25931 0.0
C1247 C 0.96892 0.07034 0.34337 0.0
H1248 H 0.97724 0.04887 0.14513 0.0
H1249 H 0.94312 0.10954 0.17357 0.0
H1250 H 0.97268 0.02616 0.2674 0.0
H1251 H 0.94696 0.01629 0.24206 0.0
H1252 H 0.97054 0.01703 0.19788 0.0
H1253 H 0.91621 0.11304 0.2409 0.0
H1254 H 0.90582 0.08865 0.27388 0.0
H1255 H 0.92919 0.10238 0.30186 0.0
H1256 H 0.89289 0.02568 0.36444 0.0
H1257 H 0.95105 0.05389 0.43484 0.0
H1258 H 0.90883 0.02725 0.22961 0.0
H1259 H 0.8951 0.05294 0.23815 0.0
H1260 H 0.88453 0.02861 0.27106 0.0
H1261 H 0.98009 0.06154 0.3154 0.0
H1262 H 0.97737 0.07218 0.38339 0.0
H1263 H 0.96596 0.08693 0.3257 0.0
C1264 C 0.47435 0.9045 0.81379 0.0
C1265 C 0.49178 0.9159 0.83806 0.0
C1266 C 0.46455 0.91218 0.76503 0.0
C1267 C 0.47214 0.93187 0.74051 0.0
C1268 C 0.49009 0.94311 0.76412 0.0
C1269 C 0.49975 0.93493 0.81229 0.0
C1270 C 0.44561 0.8996 0.74065 0.0
C1271 C 0.49843 0.96439 0.74003 0.0
C1272 C 0.45499 0.94897 0.59611 0.0
C1273 C 0.4374 0.96316 0.6067 0.0
C1274 C 0.46623 0.93819 0.63915 0.0
C1275 C 0.45991 0.94206 0.69382 0.0
C1276 C 0.44222 0.95648 0.70446 0.0
C1277 C 0.43113 0.96668 0.66087 0.0
C1278 C 0.48491 0.92279 0.62623 0.0
C1279 C 0.43521 0.96151 0.76204 0.0
H1280 H 0.46824 0.88969 0.8331 0.0
H1281 H 0.5132 0.94391 0.83063 0.0
H1282 H 0.43027 0.90934 0.74431 0.0
H1283 H 0.44838 0.89684 0.69656 0.0
H1284 H 0.44319 0.88347 0.76118 0.0
H1285 H 0.51353 0.97026 0.76094 0.0
H1286 H 0.50197 0.96245 0.69603 0.0
H1287 H 0.48557 0.97725 0.74347 0.0
H1288 H 0.45975 0.9461 0.55428 0.0
H1289 H 0.41774 0.97786 0.66942 0.0
H1290 H 0.48208 0.90652 0.64556 0.0
H1291 H 0.50047 0.92929 0.64337 0.0
H1292 H 0.48696 0.92056 0.58163 0.0
H1293 H 0.43068 0.94614 0.78367 0.0
H1294 H 0.421 0.97299 0.76323 0.0
H1295 H 0.44907 0.96893 0.78492 0.0
C1296 C 0.53033 0.41027 0.15379 0.0
C1297 C 0.52217 0.42263 0.10933 0.0
C1298 C 0.54067 0.42035 0.19818 0.0
C1299 C 0.54352 0.44338 0.1978 0.0
C1300 C 0.53645 0.45589 0.15187 0.0
C1301 C 0.52576 0.44539 0.10824 0.0
C1302 C 0.5475 0.40643 0.24678 0.0
C1303 C 0.53955 0.48045 0.14963 0.0
C1304 C 0.54762 0.47084 0.33601 0.0
C1305 C 0.57043 0.47231 0.3436 0.0
C1306 C 0.53865 0.46173 0.28847 0.0
C1307 C 0.55283 0.45432 0.24689 0.0
C1308 C 0.57586 0.45618 0.25381 0.0
C1309 C 0.5844 0.46491 0.30241 0.0
C1310 C 0.514 0.45964 0.2833 0.0
C1311 C 0.59147 0.44892 0.2099 0.0
H1312 H 0.52781 0.39267 0.15526 0.0
H1313 H 0.51958 0.45513 0.07419 0.0
H1314 H 0.56516 0.40887 0.2562 0.0
H1315 H 0.53811 0.41155 0.28318 0.0
H1316 H 0.54463 0.38865 0.24004 0.0
H1317 H 0.53013 0.48835 0.1827 0.0
H1318 H 0.55711 0.48449 0.15632 0.0
H1319 H 0.53405 0.48764 0.11001 0.0
H1320 H 0.53673 0.47654 0.36772 0.0
H1321 H 0.60203 0.4663 0.30774 0.0
H1322 H 0.50949 0.4421 0.27891 0.0
H1323 H 0.50804 0.46839 0.24616 0.0
H1324 H 0.50528 0.46639 0.31914 0.0
H1325 H 0.59 0.43097 0.20367 0.0
H1326 H 0.60884 0.45272 0.22014 0.0
H1327 H 0.58713 0.45709 0.17062 0.0
C1328 C 0.0903 0.94977 0.34796 0.0
C1329 C 0.0851 0.97014 0.3711 0.0
C1330 C 0.08019 0.94278 0.29959 0.0
C1331 C 0.06415 0.95629 0.27391 0.0
C1332 C 0.05759 0.97611 0.29917 0.0
C1333 C 0.06819 0.98283 0.34745 0.0
C1334 C 0.08787 0.92166 0.27394 0.0
C1335 C 0.04042 0.99092 0.27342 0.0
C1336 C 0.05949 0.95183 0.11952 0.0
C1337 C 0.04149 0.93776 0.11325 0.0
C1338 C 0.06683 0.95817 0.17152 0.0
C1339 C 0.05575 0.95048 0.21854 0.0
C1340 C 0.03742 0.93647 0.21249 0.0
C1341 C 0.03061 0.93015 0.16 0.0
C1342 C 0.08659 0.97295 0.17619 0.0
C1343 C 0.02493 0.92827 0.26148 0.0
H1344 H 0.10329 0.93979 0.36593 0.0
H1345 H 0.06414 0.99867 0.36464 0.0
H1346 H 0.07366 0.91119 0.26311 0.0
H1347 H 0.09672 0.92547 0.23564 0.0
H1348 H 0.09906 0.91213 0.30129 0.0
H1349 H 0.03478 0.00383 0.30191 0.0
H1350 H 0.04735 0.99911 0.23686 0.0
H1351 H 0.02601 0.98125 0.25978 0.0
H1352 H 0.06791 0.95791 0.0837 0.0
H1353 H 0.01646 0.91956 0.15563 0.0
H1354 H 0.0998 0.96441 0.19956 0.0
H1355 H 0.08226 0.98797 0.19901 0.0
H1356 H 0.09311 0.97788 0.13574 0.0
H1357 H 0.03591 0.91823 0.28811 0.0
H1358 H 0.01051 0.91817 0.24982 0.0
H1359 H 0.01916 0.94238 0.28598 0.0
C1360 C 0.5198 0.06401 0.87981 0.0
C1361 C 0.50647 0.08243 0.86951 0.0
C1362 C 0.53123 0.05376 0.83707 0.0
C1363 C 0.52872 0.0618 0.78287 0.0
C1364 C 0.515 0.08013 0.77238 0.0
C1365 C 0.50433 0.0903 0.81568 0.0
C1366 C 0.54586 0.03433 0.84978 0.0
C1367 C 0.51127 0.0889 0.71513 0.0
C1368 C 0.56918 0.05197 0.66844 0.0
C1369 C 0.55862 0.03546 0.63882 0.0
C1370 C 0.56031 0.05974 0.71743 0.0
C1371 C 0.54011 0.0512 0.73637 0.0
C1372 C 0.52954 0.0343 0.7069 0.0
C1373 C 0.53912 0.02641 0.65899 0.0
C1374 C 0.5722 0.07757 0.74805 0.0
C1375 C 0.50768 0.02518 0.72466 0.0
H1376 H 0.52143 0.05773 0.92116 0.0
H1377 H 0.49381 0.10423 0.80681 0.0
H1378 H 0.53887 0.01938 0.83099 0.0
H1379 H 0.56237 0.03686 0.83202 0.0
H1380 H 0.54771 0.03142 0.89436 0.0
H1381 H 0.4995 0.10288 0.71382 0.0
H1382 H 0.52705 0.09444 0.69756 0.0
H1383 H 0.50482 0.0757 0.68859 0.0
H1384 H 0.58441 0.05881 0.6534 0.0
H1385 H 0.53091 0.01357 0.63634 0.0
H1386 H 0.57381 0.07305 0.79185 0.0
H1387 H 0.56256 0.09305 0.74556 0.0
H1388 H 0.58882 0.0807 0.73143 0.0
H1389 H 0.50923 0.01783 0.76606 0.0
H1390 H 0.50139 0.01249 0.69633 0.0
H1391 H 0.49533 0.03859 0.7269 0.0
C1392 C 0.43261 0.51758 0.33182 0.0
C1393 C 0.4353 0.52489 0.38553 0.0
C1394 C 0.44423 0.52713 0.28876 0.0
C1395 C 0.4588 0.54465 0.29946 0.0
C1396 C 0.46199 0.55181 0.35384 0.0
C1397 C 0.45025 0.54173 0.39645 0.0
C1398 C 0.44058 0.5187 0.23161 0.0
C1399 C 0.47741 0.57041 0.36681 0.0
C1400 C 0.49876 0.55759 0.18545 0.0
C1401 C 0.48744 0.5742 0.15658 0.0
C1402 C 0.49006 0.54832 0.23326 0.0
C1403 C 0.46967 0.55601 0.25298 0.0
C1404 C 0.45859 0.57333 0.22514 0.0
C1405 C 0.46755 0.58213 0.17717 0.0
C1406 C 0.50231 0.52977 0.26152 0.0
C1407 C 0.43684 0.58203 0.24496 0.0
H1408 H 0.42133 0.50428 0.32336 0.0
H1409 H 0.45228 0.54742 0.43793 0.0
H1410 H 0.43373 0.53199 0.20526 0.0
H1411 H 0.45643 0.51355 0.21368 0.0
H1412 H 0.42914 0.50454 0.23053 0.0
H1413 H 0.49389 0.56707 0.34972 0.0
H1414 H 0.47123 0.5858 0.3475 0.0
H1415 H 0.47915 0.57306 0.41142 0.0
H1416 H 0.51417 0.55137 0.16987 0.0
H1417 H 0.4588 0.59509 0.15542 0.0
H1418 H 0.49232 0.51458 0.2603 0.0
H1419 H 0.50511 0.53375 0.30508 0.0
H1420 H 0.51842 0.52634 0.24237 0.0
H1421 H 0.42415 0.56909 0.24127 0.0
H1422 H 0.43123 0.5967 0.22139 0.0
H1423 H 0.43806 0.58643 0.28869 0.0
C1424 C 0.95876 0.44663 0.89023 0.0
C1425 C 0.97356 0.42972 0.87786 0.0
C1426 C 0.94644 0.45722 0.84866 0.0
C1427 C 0.9492 0.45084 0.7936 0.0
C1428 C 0.96437 0.43402 0.78103 0.0
C1429 C 0.9762 0.42366 0.82312 0.0
C1430 C 0.93034 0.47502 0.86362 0.0
C1431 C 0.96827 0.427 0.72288 0.0
C1432 C 0.90771 0.46051 0.67902 0.0
C1433 C 0.91718 0.47822 0.65105 0.0
C1434 C 0.91717 0.45232 0.72771 0.0
C1435 C 0.93675 0.4618 0.7483 0.0
C1436 C 0.94594 0.48014 0.72116 0.0
C1437 C 0.93598 0.48819 0.67321 0.0
C1438 C 0.9067 0.43293 0.75591 0.0
C1439 C 0.96703 0.49052 0.74091 0.0
H1440 H 0.95654 0.45134 0.93235 0.0
H1441 H 0.98775 0.41082 0.81279 0.0
H1442 H 0.93398 0.49034 0.8407 0.0
H1443 H 0.91348 0.46996 0.85194 0.0
H1444 H 0.93069 0.47864 0.90796 0.0
H1445 H 0.98085 0.41381 0.72003 0.0
H1446 H 0.95275 0.42097 0.70448 0.0
H1447 H 0.97373 0.44125 0.69806 0.0
H1448 H 0.89308 0.45287 0.66254 0.0
H1449 H 0.94348 0.50187 0.65198 0.0
H1450 H 0.90512 0.43609 0.80022 0.0
H1451 H 0.91731 0.41822 0.7514 0.0
H1452 H 0.89021 0.42918 0.73881 0.0
H1453 H 0.96625 0.4939 0.78522 0.0
H1454 H 0.97067 0.5061 0.71896 0.0
H1455 H 0.98091 0.47897 0.73457 0.0
C1456 C 0.96559 0.40677 0.20281 0.0
C1457 C 0.97192 0.42086 0.16026 0.0
C1458 C 0.95663 0.41512 0.25117 0.0
C1459 C 0.95342 0.43806 0.25656 0.0
C1460 C 0.95988 0.45236 0.21376 0.0
C1461 C 0.96926 0.4436 0.16648 0.0
C1462 C 0.95037 0.39939 0.29628 0.0
C1463 C 0.95633 0.47688 0.21718 0.0
C1464 C 0.90716 0.459 0.3449 0.0
C1465 C 0.91848 0.46832 0.3892 0.0
C1466 C 0.91833 0.44868 0.30243 0.0
C1467 C 0.94149 0.44703 0.30449 0.0
C1468 C 0.95303 0.45516 0.35055 0.0
C1469 C 0.9414 0.46588 0.39222 0.0
C1470 C 0.90533 0.44057 0.25389 0.0
C1471 C 0.97771 0.45331 0.35482 0.0
H1472 H 0.96793 0.38921 0.19864 0.0
H1473 H 0.97415 0.45461 0.13382 0.0
H1474 H 0.95788 0.40461 0.33545 0.0
H1475 H 0.93231 0.39959 0.30166 0.0
H1476 H 0.95563 0.38228 0.28778 0.0
H1477 H 0.96283 0.48579 0.18105 0.0
H1478 H 0.93852 0.48051 0.22044 0.0
H1479 H 0.96442 0.48339 0.25432 0.0
H1480 H 0.88946 0.46054 0.34199 0.0
H1481 H 0.95036 0.47296 0.42612 0.0
H1482 H 0.90899 0.423 0.24653 0.0
H1483 H 0.91016 0.44986 0.21676 0.0
H1484 H 0.88733 0.44248 0.25937 0.0
H1485 H 0.98313 0.43633 0.34569 0.0
H1486 H 0.98391 0.45783 0.39595 0.0
H1487 H 0.98537 0.46436 0.3243 0.0
C1488 C 0.05225 0.93761 0.85697 0.0
C1489 C 0.03924 0.91903 0.84762 0.0
C1490 C 0.06394 0.94761 0.8141 0.0
C1491 C 0.0622 0.93909 0.76057 0.0
C1492 C 0.04902 0.92044 0.751 0.0
C1493 C 0.03792 0.91058 0.79453 0.0
C1494 C 0.07809 0.9673 0.82598 0.0
C1495 C 0.04629 0.91106 0.69448 0.0
C1496 C 0.07302 0.97538 0.63688 0.0
C1497 C 0.09342 0.96745 0.6192 0.0
C1498 C 0.06292 0.96663 0.68348 0.0
C1499 C 0.07363 0.94981 0.71386 0.0
C1500 C 0.09445 0.94207 0.69694 0.0
C1501 C 0.104 0.95083 0.64949 0.0
C1502 C 0.04048 0.97499 0.69927 0.0
C1503 C 0.10653 0.92437 0.72866 0.0
H1504 H 0.0534 0.94425 0.89776 0.0
H1505 H 0.02781 0.89637 0.78646 0.0
H1506 H 0.09516 0.96416 0.81245 0.0
H1507 H 0.07191 0.98178 0.80272 0.0
H1508 H 0.0784 0.9714 0.87005 0.0
H1509 H 0.03532 0.89652 0.69392 0.0
H1510 H 0.03934 0.92375 0.66647 0.0
H1511 H 0.06249 0.90616 0.67813 0.0
H1512 H 0.06472 0.98821 0.61368 0.0
H1513 H 0.11988 0.94482 0.63647 0.0
H1514 H 0.04069 0.98065 0.74214 0.0
H1515 H 0.02837 0.96147 0.69658 0.0
H1516 H 0.03476 0.98876 0.67265 0.0
H1517 H 0.10789 0.92898 0.77225 0.0
H1518 H 0.12328 0.92137 0.71264 0.0
H1519 H 0.09718 0.9088 0.72683 0.0
C1520 C 0.5437 0.05124 0.38085 0.0
C1521 C 0.56124 0.03699 0.37033 0.0
C1522 C 0.53223 0.06169 0.3377 0.0
C1523 C 0.53832 0.05746 0.28303 0.0
C1524 C 0.55594 0.04296 0.27248 0.0
C1525 C 0.56723 0.03306 0.31615 0.0
C1526 C 0.51359 0.07715 0.35049 0.0
C1527 C 0.56273 0.03757 0.21492 0.0
C1528 C 0.49842 0.06424 0.16457 0.0
C1529 C 0.50651 0.08309 0.13825 0.0
C1530 C 0.50803 0.05625 0.21301 0.0
C1531 C 0.52604 0.06751 0.23627 0.0
C1532 C 0.53374 0.08705 0.21119 0.0
C1533 C 0.52399 0.09452 0.1622 0.0
C1534 C 0.49958 0.03513 0.23777 0.0
C1535 C 0.55275 0.09964 0.23515 0.0
H1536 H 0.53915 0.0544 0.42271 0.0
H1537 H 0.58058 0.02181 0.30771 0.0
H1538 H 0.5164 0.09336 0.3308 0.0
H1539 H 0.49799 0.07062 0.33366 0.0
H1540 H 0.51162 0.07954 0.39507 0.0
H1541 H 0.57685 0.02598 0.21382 0.0
H1542 H 0.54874 0.03015 0.19253 0.0
H1543 H 0.56731 0.05281 0.19275 0.0
H1544 H 0.48492 0.05526 0.14646 0.0
H1545 H 0.53018 0.10921 0.14247 0.0
H1546 H 0.49609 0.03731 0.28173 0.0
H1547 H 0.51235 0.02217 0.23465 0.0
H1548 H 0.48442 0.02926 0.21711 0.0
H1549 H 0.55004 0.1026 0.27918 0.0
H1550 H 0.55523 0.11567 0.2142 0.0
H1551 H 0.56804 0.08981 0.23165 0.0
C1552 C 0.44993 0.53254 0.66996 0.0
C1553 C 0.42821 0.52507 0.67056 0.0
C1554 C 0.45983 0.54096 0.71727 0.0
C1555 C 0.44797 0.54108 0.76679 0.0
C1556 C 0.42637 0.53257 0.76802 0.0
C1557 C 0.41657 0.52508 0.71959 0.0
C1558 C 0.48269 0.55034 0.71375 0.0
C1559 C 0.41361 0.53147 0.8205 0.0
C1560 C 0.48125 0.55126 0.8966 0.0
C1561 C 0.47748 0.57377 0.90455 0.0
C1562 C 0.47136 0.54015 0.8527 0.0
C1563 C 0.45741 0.55184 0.816 0.0
C1564 C 0.45288 0.5743 0.82519 0.0
C1565 C 0.46276 0.58488 0.86946 0.0
C1566 C 0.47689 0.51626 0.84405 0.0
C1567 C 0.43848 0.58754 0.78654 0.0
H1568 H 0.45898 0.53234 0.63204 0.0
H1569 H 0.39994 0.51879 0.72031 0.0
H1570 H 0.4824 0.56795 0.72506 0.0
H1571 H 0.49382 0.54179 0.74299 0.0
H1572 H 0.48965 0.54888 0.67219 0.0
H1573 H 0.39778 0.52266 0.81556 0.0
H1574 H 0.42353 0.52301 0.85259 0.0
H1575 H 0.41012 0.5483 0.8351 0.0
H1576 H 0.49268 0.54251 0.92308 0.0
H1577 H 0.45962 0.60224 0.87509 0.0
H1578 H 0.48932 0.51492 0.81147 0.0
H1579 H 0.4622 0.50693 0.83078 0.0
H1580 H 0.48387 0.50848 0.88151 0.0
H1581 H 0.44561 0.58737 0.74503 0.0
H1582 H 0.43664 0.60489 0.79945 0.0
H1583 H 0.42192 0.5801 0.7837 0.0
C1584 C 0.91307 0.01908 0.72524 0.0
C1585 C 0.91535 0.02625 0.67106 0.0
C1586 C 0.92447 0.02917 0.76791 0.0
C1587 C 0.93852 0.04701 0.75631 0.0
C1588 C 0.94166 0.05377 0.70139 0.0
C1589 C 0.93008 0.04319 0.65917 0.0
C1590 C 0.92094 0.02106 0.8256 0.0
C1591 C 0.95667 0.07262 0.68751 0.0
C1592 C 0.94712 0.0852 0.87647 0.0
C1593 C 0.96712 0.07748 0.89805 0.0
C1594 C 0.93811 0.07609 0.8288 0.0
C1595 C 0.94929 0.05877 0.80229 0.0
C1596 C 0.96974 0.05131 0.82312 0.0
C1597 C 0.97841 0.06077 0.87056 0.0
C1598 C 0.91624 0.08449 0.80783 0.0
C1599 C 0.98207 0.03272 0.79659 0.0
H1600 H 0.90204 0.00567 0.7345 0.0
H1601 H 0.93184 0.04876 0.61733 0.0
H1602 H 0.9369 0.0167 0.84503 0.0
H1603 H 0.91345 0.0343 0.8502 0.0
H1604 H 0.91008 0.00646 0.82733 0.0
H1605 H 0.95841 0.07497 0.64277 0.0
H1606 H 0.95009 0.088 0.70514 0.0
H1607 H 0.97318 0.06981 0.70575 0.0
H1608 H 0.93837 0.09819 0.89716 0.0
H1609 H 0.99389 0.05465 0.88677 0.0
H1610 H 0.90371 0.07141 0.81193 0.0
H1611 H 0.91734 0.08876 0.76386 0.0
H1612 H 0.91052 0.09917 0.83034 0.0
H1613 H 0.97273 0.01723 0.80146 0.0
H1614 H 0.9987 0.03025 0.81468 0.0
H1615 H 0.98376 0.03586 0.7522 0.0
C1616 C 0.42913 0.94854 0.30749 0.0
C1617 C 0.44023 0.96453 0.33769 0.0
C1618 C 0.43783 0.94062 0.25844 0.0
C1619 C 0.45841 0.94841 0.24004 0.0
C1620 C 0.46953 0.96479 0.27009 0.0
C1621 C 0.46012 0.9729 0.31802 0.0
C1622 C 0.42528 0.92346 0.22706 0.0
C1623 C 0.49178 0.97312 0.2529 0.0
C1624 C 0.49277 0.90815 0.16021 0.0
C1625 C 0.49141 0.9165 0.10667 0.0
C1626 C 0.48232 0.91853 0.20359 0.0
C1627 C 0.46949 0.93752 0.19342 0.0
C1628 C 0.46758 0.94593 0.13942 0.0
C1629 C 0.47886 0.93551 0.09669 0.0
C1630 C 0.48547 0.90935 0.26063 0.0
C1631 C 0.45384 0.96603 0.12688 0.0
H1632 H 0.4136 0.94225 0.3221 0.0
H1633 H 0.46873 0.98535 0.34108 0.0
H1634 H 0.42399 0.92825 0.18338 0.0
H1635 H 0.43424 0.90758 0.22925 0.0
H1636 H 0.40849 0.92096 0.24329 0.0
H1637 H 0.49839 0.98561 0.28136 0.0
H1638 H 0.50364 0.95928 0.25106 0.0
H1639 H 0.49067 0.98049 0.21146 0.0
H1640 H 0.50259 0.89369 0.1689 0.0
H1641 H 0.47781 0.94218 0.05562 0.0
H1642 H 0.46938 0.90468 0.27803 0.0
H1643 H 0.49267 0.92206 0.28748 0.0
H1644 H 0.4964 0.8947 0.26169 0.0
H1645 H 0.43742 0.96454 0.14581 0.0
H1646 H 0.45168 0.96873 0.0823 0.0
H1647 H 0.46186 0.98071 0.14444 0.0
C1648 C 0.50601 0.44341 0.82414 0.0
C1649 C 0.51549 0.42556 0.85245 0.0
C1650 C 0.5157 0.45204 0.77691 0.0
C1651 C 0.53531 0.44253 0.75717 0.0
C1652 C 0.54456 0.42405 0.78444 0.0
C1653 C 0.5346 0.41584 0.83191 0.0
C1654 C 0.50538 0.47188 0.74944 0.0
C1655 C 0.56537 0.41335 0.76442 0.0
C1656 C 0.55311 0.45805 0.61314 0.0
C1657 C 0.56889 0.47419 0.62377 0.0
C1658 C 0.54229 0.44724 0.65616 0.0
C1659 C 0.54707 0.45307 0.71083 0.0
C1660 C 0.56289 0.46946 0.72158 0.0
C1661 C 0.57372 0.47963 0.67804 0.0
C1662 C 0.5259 0.42947 0.6432 0.0
C1663 C 0.56818 0.47653 0.77913 0.0
H1664 H 0.49125 0.45107 0.83965 0.0
H1665 H 0.54193 0.40195 0.85326 0.0
H1666 H 0.51607 0.48638 0.75556 0.0
H1667 H 0.50385 0.4693 0.70489 0.0
H1668 H 0.48886 0.47568 0.76586 0.0
H1669 H 0.5694 0.39802 0.7873 0.0
H1670 H 0.5638 0.40945 0.72044 0.0
H1671 H 0.57929 0.42491 0.76886 0.0
H1672 H 0.54945 0.45369 0.5713 0.0
H1673 H 0.58565 0.49232 0.68662 0.0
H1674 H 0.53217 0.41346 0.65875 0.0
H1675 H 0.52274 0.42806 0.59868 0.0
H1676 H 0.51011 0.43271 0.66397 0.0
H1677 H 0.55314 0.48291 0.79888 0.0
H1678 H 0.58096 0.4895 0.78048 0.0
H1679 H 0.57401 0.46225 0.80367 0.0
C1680 C 0.09568 0.53627 0.32488 0.0
C1681 C 0.08677 0.51788 0.35119 0.0
C1682 C 0.08626 0.54464 0.27636 0.0
C1683 C 0.06714 0.53474 0.25439 0.0
C1684 C 0.05844 0.51579 0.28003 0.0
C1685 C 0.06849 0.50747 0.32771 0.0
C1686 C 0.0963 0.56461 0.24972 0.0
C1687 C 0.03779 0.505 0.25893 0.0
C1688 C 0.02797 0.57334 0.1798 0.0
C1689 C 0.03141 0.56813 0.12483 0.0
C1690 C 0.03922 0.56234 0.22193 0.0
C1691 C 0.05468 0.54581 0.20915 0.0
C1692 C 0.05811 0.54018 0.15378 0.0
C1693 C 0.04628 0.55132 0.11219 0.0
C1694 C 0.03452 0.56851 0.2803 0.0
C1695 C 0.07456 0.52276 0.13848 0.0
H1696 H 0.10994 0.54424 0.34243 0.0
H1697 H 0.06144 0.49328 0.34784 0.0
H1698 H 0.09826 0.56193 0.20532 0.0
H1699 H 0.08521 0.57895 0.25464 0.0
H1700 H 0.11256 0.56871 0.26772 0.0
H1701 H 0.03424 0.48932 0.28054 0.0
H1702 H 0.02362 0.51627 0.26432 0.0
H1703 H 0.03914 0.5017 0.21468 0.0
H1704 H 0.01623 0.58602 0.19018 0.0
H1705 H 0.04906 0.54726 0.06985 0.0
H1706 H 0.0496 0.57499 0.29991 0.0
H1707 H 0.02947 0.55377 0.30389 0.0
H1708 H 0.02136 0.58112 0.28334 0.0
H1709 H 0.09127 0.52801 0.15097 0.0
H1710 H 0.0745 0.51952 0.09395 0.0
H1711 H 0.07106 0.50719 0.16047 0.0
C1712 C 0.91523 0.56307 0.35319 0.0
C1713 C 0.89434 0.55346 0.35594 0.0
C1714 C 0.92255 0.57315 0.30532 0.0
C1715 C 0.90847 0.57414 0.25921 0.0
C1716 C 0.88665 0.56637 0.26315 0.0
C1717 C 0.87986 0.55591 0.31145 0.0
C1718 C 0.94605 0.58103 0.30286 0.0
C1719 C 0.87095 0.56781 0.21534 0.0
C1720 C 0.93396 0.6081 0.14654 0.0
C1721 C 0.94504 0.59177 0.11738 0.0
C1722 C 0.92015 0.60253 0.19011 0.0
C1723 C 0.91793 0.58021 0.2056 0.0
C1724 C 0.92792 0.56363 0.17406 0.0
C1725 C 0.94108 0.56962 0.12994 0.0
C1726 C 0.90912 0.6206 0.22162 0.0
C1727 C 0.92634 0.53961 0.18964 0.0
H1728 H 0.92648 0.56165 0.3875 0.0
H1729 H 0.8636 0.54877 0.31329 0.0
H1730 H 0.95548 0.57057 0.27442 0.0
H1731 H 0.94671 0.59811 0.28705 0.0
H1732 H 0.95434 0.58043 0.34338 0.0
H1733 H 0.85364 0.56567 0.22827 0.0
H1734 H 0.87252 0.58382 0.19381 0.0
H1735 H 0.87491 0.55471 0.18581 0.0
H1736 H 0.93664 0.62525 0.13663 0.0
H1737 H 0.94936 0.55683 0.10745 0.0
H1738 H 0.91858 0.62376 0.25958 0.0
H1739 H 0.89226 0.61578 0.23352 0.0
H1740 H 0.90825 0.63615 0.19764 0.0
H1741 H 0.9351 0.53669 0.22893 0.0
H1742 H 0.93364 0.52871 0.15845 0.0
H1743 H 0.90896 0.53485 0.19552 0.0
C1744 C 0.87341 0.9384 0.69555 0.0
C1745 C 0.88512 0.94361 0.64814 0.0
C1746 C 0.88323 0.92583 0.73749 0.0
C1747 C 0.90518 0.91853 0.73166 0.0
C1748 C 0.91592 0.92137 0.68116 0.0
C1749 C 0.90563 0.93365 0.63978 0.0
C1750 C 0.87091 0.92237 0.78997 0.0
C1751 C 0.93933 0.91384 0.67297 0.0
C1752 C 0.94484 0.92301 0.84994 0.0
C1753 C 0.94996 0.90091 0.8609 0.0
C1754 C 0.92942 0.92886 0.80976 0.0
C1755 C 0.91847 0.9122 0.78035 0.0
C1756 C 0.92238 0.88986 0.79369 0.0
C1757 C 0.9383 0.88445 0.83344 0.0
C1758 C 0.92589 0.95295 0.79664 0.0
C1759 C 0.91054 0.87166 0.76439 0.0
H1760 H 0.85731 0.94552 0.70192 0.0
H1761 H 0.91459 0.93702 0.60263 0.0
H1762 H 0.87471 0.90603 0.80814 0.0
H1763 H 0.87595 0.93503 0.81977 0.0
H1764 H 0.85288 0.92381 0.7835 0.0
H1765 H 0.94427 0.91483 0.62949 0.0
H1766 H 0.95055 0.92438 0.69712 0.0
H1767 H 0.9416 0.89671 0.68756 0.0
H1768 H 0.95355 0.9359 0.87114 0.0
H1769 H 0.94194 0.86733 0.842 0.0
H1770 H 0.90819 0.95718 0.79878 0.0
H1771 H 0.93134 0.95651 0.7544 0.0
H1772 H 0.93505 0.96385 0.82487 0.0
H1773 H 0.89304 0.87601 0.75712 0.0
H1774 H 0.9114 0.85595 0.7877 0.0
H1775 H 0.91822 0.86902 0.7241 0.0
C1776 C 0.58002 0.88692 0.16489 0.0
C1777 C 0.57603 0.90124 0.12074 0.0
C1778 C 0.58786 0.89496 0.21491 0.0
C1779 C 0.59161 0.91776 0.22056 0.0
C1780 C 0.58984 0.93181 0.1745 0.0
C1781 C 0.58231 0.92332 0.12503 0.0
C1782 C 0.59022 0.87937 0.26274 0.0
C1783 C 0.59364 0.95626 0.17865 0.0
C1784 C 0.57613 0.94761 0.34871 0.0
C1785 C 0.59668 0.95466 0.36787 0.0
C1786 C 0.57436 0.93443 0.30248 0.0
C1787 C 0.59366 0.9277 0.27535 0.0
C1788 C 0.61451 0.93324 0.29696 0.0
C1789 C 0.61579 0.9469 0.34272 0.0
C1790 C 0.55174 0.92909 0.28046 0.0
C1791 C 0.63543 0.92584 0.27001 0.0
H1792 H 0.57565 0.86975 0.16174 0.0
H1793 H 0.57981 0.93446 0.09082 0.0
H1794 H 0.60473 0.8836 0.28817 0.0
H1795 H 0.57547 0.88064 0.2888 0.0
H1796 H 0.59179 0.86207 0.24925 0.0
H1797 H 0.59376 0.96447 0.13802 0.0
H1798 H 0.58039 0.96376 0.20323 0.0
H1799 H 0.60944 0.95963 0.19963 0.0
H1800 H 0.56125 0.95334 0.36804 0.0
H1801 H 0.63175 0.95201 0.35773 0.0
H1802 H 0.5502 0.91122 0.27325 0.0
H1803 H 0.54914 0.93759 0.24068 0.0
H1804 H 0.53847 0.93424 0.3085 0.0
H1805 H 0.63413 0.90851 0.2567 0.0
H1806 H 0.64986 0.92742 0.29768 0.0
H1807 H 0.63837 0.93607 0.23317 0.0
C1808 C 0.5662 0.56336 0.63263 0.0
C1809 C 0.58785 0.56094 0.61448 0.0
C1810 C 0.56145 0.57579 0.67881 0.0
C1811 C 0.57871 0.58651 0.7068 0.0
C1812 C 0.60023 0.58597 0.68554 0.0
C1813 C 0.60463 0.57294 0.63991 0.0
C1814 C 0.53826 0.57567 0.70034 0.0
C1815 C 0.6189 0.59788 0.71306 0.0
C1816 C 0.557 0.62138 0.82169 0.0
C1817 C 0.55782 0.60623 0.86514 0.0
C1818 C 0.56562 0.616 0.77048 0.0
C1819 C 0.57469 0.59485 0.76251 0.0
C1820 C 0.57711 0.58021 0.80729 0.0
C1821 C 0.569 0.58625 0.85819 0.0
C1822 C 0.56356 0.63235 0.72413 0.0
C1823 C 0.58647 0.55736 0.80056 0.0
H1824 H 0.55305 0.55437 0.61302 0.0
H1825 H 0.62135 0.57149 0.6256 0.0
H1826 H 0.53762 0.56535 0.73783 0.0
H1827 H 0.53293 0.59246 0.71142 0.0
H1828 H 0.52638 0.56902 0.67018 0.0
H1829 H 0.63299 0.60019 0.68512 0.0
H1830 H 0.61346 0.61416 0.72792 0.0
H1831 H 0.6247 0.58817 0.74888 0.0
H1832 H 0.5487 0.637 0.82677 0.0
H1833 H 0.57015 0.57454 0.89162 0.0
H1834 H 0.5493 0.62797 0.69803 0.0
H1835 H 0.57842 0.63206 0.69823 0.0
H1836 H 0.56098 0.6493 0.73924 0.0
H1837 H 0.57541 0.54761 0.77403 0.0
H1838 H 0.58843 0.54853 0.84015 0.0
H1839 H 0.60269 0.55807 0.78046 0.0
C1840 C 0.0941 0.4329 0.64853 0.0
C1841 C 0.11303 0.446 0.64864 0.0
C1842 C 0.08639 0.42317 0.69658 0.0
C1843 C 0.09831 0.42592 0.74579 0.0
C1844 C 0.11868 0.43706 0.7451 0.0
C1845 C 0.12569 0.44725 0.69663 0.0
C1846 C 0.06438 0.41177 0.69547 0.0
C1847 C 0.1323 0.43956 0.79631 0.0
C1848 C 0.06151 0.4305 0.86842 0.0
C1849 C 0.06073 0.4087 0.88724 0.0
C1850 C 0.07444 0.43644 0.82383 0.0
C1851 C 0.08758 0.42035 0.79835 0.0
C1852 C 0.08821 0.39866 0.81968 0.0
C1853 C 0.07446 0.39297 0.86337 0.0
C1854 C 0.07281 0.45965 0.80179 0.0
C1855 C 0.10261 0.38125 0.79487 0.0
H1856 H 0.08434 0.43141 0.61161 0.0
H1857 H 0.14052 0.45703 0.69712 0.0
H1858 H 0.06553 0.39545 0.71567 0.0
H1859 H 0.05225 0.42165 0.71838 0.0
H1860 H 0.05804 0.40952 0.65328 0.0
H1861 H 0.14951 0.44414 0.78694 0.0
H1862 H 0.1251 0.45264 0.8219 0.0
H1863 H 0.13238 0.42411 0.82067 0.0
H1864 H 0.05101 0.4428 0.88645 0.0
H1865 H 0.0741 0.37613 0.87799 0.0
H1866 H 0.06583 0.45949 0.75983 0.0
H1867 H 0.08935 0.46713 0.79937 0.0
H1868 H 0.06227 0.4703 0.82735 0.0
H1869 H 0.09489 0.37528 0.75668 0.0
H1870 H 0.10495 0.36698 0.82288 0.0
H1871 H 0.11893 0.38803 0.78431 0.0
C1872 C 0.04298 0.09747 0.22168 0.0
C1873 C 0.04925 0.10743 0.17275 0.0
C1874 C 0.05869 0.08773 0.2563 0.0
C1875 C 0.08115 0.08824 0.24156 0.0
C1876 C 0.08764 0.09968 0.19388 0.0
C1877 C 0.07149 0.1089 0.15945 0.0
C1878 C 0.05106 0.07547 0.30645 0.0
C1879 C 0.11141 0.10081 0.17724 0.0
C1880 C 0.11842 0.06953 0.35699 0.0
C1881 C 0.1205 0.04708 0.34579 0.0
C1882 C 0.10713 0.08365 0.32096 0.0
C1883 C 0.09731 0.07495 0.27342 0.0
C1884 C 0.10075 0.0526 0.26001 0.0
C1885 C 0.11253 0.03895 0.29623 0.0
C1886 C 0.10431 0.10748 0.33592 0.0
C1887 C 0.09027 0.04251 0.21015 0.0
H1888 H 0.02565 0.0959 0.23082 0.0
H1889 H 0.07612 0.11617 0.1207 0.0
H1890 H 0.06024 0.08108 0.34297 0.0
H1891 H 0.03321 0.07772 0.31375 0.0
H1892 H 0.05445 0.05766 0.30185 0.0
H1893 H 0.11402 0.11297 0.14392 0.0
H1894 H 0.12195 0.10519 0.21259 0.0
H1895 H 0.11684 0.08445 0.16285 0.0
H1896 H 0.12461 0.07582 0.39539 0.0
H1897 H 0.11381 0.02154 0.28787 0.0
H1898 H 0.08736 0.11025 0.3507 0.0
H1899 H 0.10671 0.11825 0.29975 0.0
H1900 H 0.11599 0.11246 0.36855 0.0
H1901 H 0.0725 0.04 0.21773 0.0
H1902 H 0.09775 0.02637 0.20033 0.0
H1903 H 0.09175 0.05349 0.17408 0.0
C1904 C 0.38375 0.0545 0.63204 0.0
C1905 C 0.40288 0.04627 0.60788 0.0
C1906 C 0.38496 0.06819 0.67776 0.0
C1907 C 0.40575 0.07331 0.70038 0.0
C1908 C 0.42511 0.06611 0.67424 0.0
C1909 C 0.42342 0.05289 0.62801 0.0
C1910 C 0.36399 0.07608 0.70363 0.0
C1911 C 0.44766 0.07099 0.69732 0.0
C1912 C 0.41918 0.11394 0.8115 0.0
C1913 C 0.42252 0.09959 0.8559 0.0
C1914 C 0.41169 0.106 0.76104 0.0
C1915 C 0.40757 0.08327 0.75524 0.0
C1916 C 0.40861 0.06925 0.80147 0.0
C1917 C 0.41582 0.07765 0.85133 0.0
C1918 C 0.41009 0.12158 0.71302 0.0
C1919 C 0.40437 0.04488 0.79723 0.0
H1920 H 0.36779 0.04972 0.6163 0.0
H1921 H 0.43832 0.04679 0.60947 0.0
H1922 H 0.36056 0.066 0.74043 0.0
H1923 H 0.36554 0.0934 0.71677 0.0
H1924 H 0.34974 0.07474 0.6753 0.0
H1925 H 0.46104 0.06551 0.66996 0.0
H1926 H 0.44952 0.08884 0.70446 0.0
H1927 H 0.44978 0.0625 0.73728 0.0
H1928 H 0.42384 0.13104 0.81485 0.0
H1929 H 0.41779 0.06649 0.88572 0.0
H1930 H 0.39577 0.1176 0.68672 0.0
H1931 H 0.42509 0.12002 0.68792 0.0
H1932 H 0.40871 0.13892 0.72635 0.0
H1933 H 0.38868 0.04179 0.77542 0.0
H1934 H 0.40373 0.03671 0.83787 0.0
H1935 H 0.41768 0.03709 0.7734 0.0
C1936 C 0.43034 0.42397 0.14752 0.0
C1937 C 0.43688 0.4023 0.13699 0.0
C1938 C 0.42127 0.42967 0.19766 0.0
C1939 C 0.41808 0.41319 0.23781 0.0
C1940 C 0.42273 0.39099 0.22575 0.0
C1941 C 0.43233 0.3858 0.17559 0.0
C1942 C 0.41678 0.45364 0.20911 0.0
C1943 C 0.4189 0.37291 0.267 0.0
C1944 C 0.42543 0.43675 0.378 0.0
C1945 C 0.40387 0.4432 0.39007 0.0
C1946 C 0.43013 0.42545 0.33007 0.0
C1947 C 0.41276 0.4199 0.29413 0.0
C1948 C 0.39077 0.42416 0.30901 0.0
C1949 C 0.38656 0.43597 0.35672 0.0
C1950 C 0.45388 0.42143 0.31551 0.0
C1951 C 0.3718 0.41786 0.27249 0.0
H1952 H 0.43349 0.43684 0.11786 0.0
H1953 H 0.4371 0.36897 0.16773 0.0
H1954 H 0.39981 0.45587 0.22422 0.0
H1955 H 0.42815 0.45943 0.2415 0.0
H1956 H 0.41895 0.46422 0.17243 0.0
H1957 H 0.41887 0.35646 0.24771 0.0
H1958 H 0.43215 0.37314 0.29829 0.0
H1959 H 0.40307 0.37537 0.28823 0.0
H1960 H 0.43892 0.44187 0.40393 0.0
H1961 H 0.3698 0.44054 0.36616 0.0
H1962 H 0.45846 0.43228 0.28085 0.0
H1963 H 0.45636 0.40423 0.30235 0.0
H1964 H 0.46523 0.42477 0.35014 0.0
H1965 H 0.37024 0.42999 0.23866 0.0
H1966 H 0.35604 0.41762 0.29503 0.0
H1967 H 0.37458 0.40149 0.2542 0.0
loop_
_geom_bond_atom_site_label_1
_geom_bond_atom_site_label_2
_geom_bond_distance
_geom_bond_site_symmetry_2
_ccdc_geom_bond_type
Co0 O2 2.131 1_655 S
Co0 O8 2.074 . S
Co0 O11 2.093 1_654 S
Co0 O24 2.097 1_655 S
Co0 N41 2.151 1_554 S
Co0 N49 2.214 . S
Co1 O2 2.166 . S
Co1 O7 2.058 1_455 S
Co1 O17 2.057 1_455 S
Co1 O32 2.037 . S
Co1 N36 2.145 . S
Co1 N57 2.257 . S
O2 Co0 2.131 1_455 S
O2 Co1 2.166 . S
C3 O4 1.278 . S
C3 O11 1.224 . S
O4 C3 1.278 . S
C5 O6 1.245 1_554 S
C5 O17 1.232 . S
O6 C5 1.245 1_556 S
O7 Co1 2.058 1_655 S
O7 C33 1.269 . S
O8 Co0 2.074 . S
O8 C33 1.257 . S
H9 C34 0.930 . S
H10 C40 0.930 . S
O11 Co0 2.093 1_456 S
O11 C3 1.224 . S
H12 C44 0.929 . S
H13 C46 0.916 1_556 S
H14 C47 0.930 . S
H15 C45 0.929 1_554 S
H16 C48 0.928 . S
O17 Co1 2.057 1_655 S
O17 C5 1.232 . S
H18 C37 0.929 . S
H19 C38 0.929 . S
H20 C50 0.931 . S
H21 C42 0.929 . S
H22 C51 0.930 . S
H23 C43 0.931 . S
O24 Co0 2.097 1_455 S
O24 C52 1.214 . S
H25 C53 0.929 . S
H26 C54 0.929 . S
H27 C55 0.930 . S
H28 C56 0.929 . S
H29 C58 0.930 1_556 S
H30 C35 0.930 . S
H31 C39 0.930 . S
O32 Co1 2.037 . S
O32 C52 1.234 . S
C33 O7 1.269 . S
C33 O8 1.257 . S
C34 H9 0.930 . S
C34 C37 1.388 . S
C34 C39 1.418 . S
C35 H30 0.930 . S
C35 C38 1.404 . S
C35 C39 1.353 . S
N36 Co1 2.145 . S
N36 C37 1.397 . S
N36 C38 1.334 . S
C37 H18 0.929 . S
C37 C34 1.388 . S
C37 N36 1.397 . S
C38 H19 0.929 . S
C38 C35 1.404 . S
C38 N36 1.334 . S
C39 H31 0.930 . S
C39 C34 1.418 . S
C39 C35 1.353 . S
C40 H10 0.930 . S
C40 N41 1.330 . S
C40 C42 1.446 . S
N41 Co0 2.151 1_556 S
N41 C40 1.330 . S
N41 C45 1.418 . S
C42 H21 0.929 . S
C42 C40 1.446 . S
C42 C43 1.332 . S
C43 H23 0.931 . S
C43 C42 1.332 . S
C43 C44 1.267 . S
C44 H12 0.929 . S
C44 C43 1.267 . S
C44 C45 1.251 . S
C45 H15 0.929 1_556 S
C45 N41 1.418 . S
C45 C44 1.251 . S
C46 H13 0.916 1_554 S
C46 C48 1.402 1_554 S
C46 C51 1.278 . S
C47 H14 0.930 . S
C47 N49 1.325 . S
C47 C50 1.357 . S
C48 H16 0.928 . S
C48 C46 1.402 1_556 S
C48 N49 1.261 1_556 S
N49 Co0 2.214 . S
N49 C47 1.325 . S
N49 C48 1.261 1_554 S
C50 H20 0.931 . S
C50 C47 1.357 . S
C50 C51 1.312 . S
C51 H22 0.930 . S
C51 C46 1.278 . S
C51 C50 1.312 . S
C52 O24 1.214 . S
C52 O32 1.234 . S
C53 H25 0.929 . S
C53 C56 1.391 1_556 S
C53 C58 1.391 1_556 S
C54 H26 0.929 . S
C54 C55 1.390 . S
C54 N57 1.391 . S
C55 H27 0.930 . S
C55 C54 1.390 . S
C55 C56 1.392 . S
C56 H28 0.929 . S
C56 C53 1.391 1_554 S
C56 C55 1.392 . S
N57 Co1 2.257 . S
N57 C54 1.391 . S
N57 C58 1.388 . S
C58 H29 0.930 1_554 S
C58 C53 1.391 1_554 S
C58 N57 1.388 . S
Co59 O61 2.143 1_565 S
Co59 O67 2.074 . S
Co59 O70 2.093 1_565 S
Co59 O83 2.097 1_565 S
Co59 N100 2.151 . S
Co59 N108 2.214 . S
Co60 O61 2.160 . S
Co60 O66 2.058 1_545 S
Co60 O76 2.057 1_545 S
Co60 O91 2.037 . S
Co60 N95 2.145 . S
Co60 N116 2.257 . S
O61 Co59 2.143 1_545 S
O61 Co60 2.160 . S
C62 O63 1.278 . S
C62 O70 1.224 . S
O63 C62 1.278 . S
C64 O65 1.245 . S
C64 O76 1.232 . S
O65 C64 1.245 . S
O66 Co60 2.058 1_565 S
O66 C92 1.269 . S
O67 Co59 2.074 . S
O67 C92 1.257 . S
H68 C93 0.930 . S
H69 C99 0.930 . S
O70 Co59 2.093 1_545 S
O70 C62 1.224 . S
H71 C103 0.929 . S
H72 C105 0.930 . S
H73 C106 0.930 . S
H74 C104 0.929 . S
H75 C107 0.928 . S
O76 Co60 2.057 1_565 S
O76 C64 1.232 . S
H77 C96 0.929 . S
H78 C97 0.929 . S
H79 C109 0.931 . S
H80 C101 0.929 . S
H81 C110 0.930 1_455 S
H82 C102 0.931 . S
O83 Co59 2.097 1_545 S
O83 C111 1.214 . S
H84 C112 0.929 . S
H85 C113 0.929 . S
H86 C114 0.930 . S
H87 C115 0.929 . S
H88 C117 0.930 . S
H89 C94 0.930 . S
H90 C98 0.930 . S
O91 Co60 2.037 . S
O91 C111 1.234 . S
C92 O66 1.269 . S
C92 O67 1.257 . S
C93 H68 0.930 . S
C93 C96 1.388 . S
C93 C98 1.418 . S
C94 H89 0.930 . S
C94 C97 1.404 . S
C94 C98 1.353 . S
N95 Co60 2.145 . S
N95 C96 1.397 . S
N95 C97 1.334 . S
C96 H77 0.929 . S
C96 C93 1.388 . S
C96 N95 1.397 . S
C97 H78 0.929 . S
C97 C94 1.404 . S
C97 N95 1.334 . S
C98 H90 0.930 . S
C98 C93 1.418 . S
C98 C94 1.353 . S
C99 H69 0.930 . S
C99 N100 1.330 . S
C99 C101 1.446 . S
N100 Co59 2.151 . S
N100 C99 1.330 . S
N100 C104 1.418 . S
C101 H80 0.929 . S
C101 C99 1.446 . S
C101 C102 1.332 . S
C102 H82 0.931 . S
C102 C101 1.332 . S
C102 C103 1.267 . S
C103 H71 0.929 . S
C103 C102 1.267 . S
C103 C104 1.251 . S
C104 H74 0.929 . S
C104 N100 1.418 . S
C104 C103 1.251 . S
C105 H72 0.930 . S
C105 C107 1.406 . S
C105 C110 1.261 . S
C106 H73 0.930 . S
C106 N108 1.325 . S
C106 C109 1.357 . S
C107 H75 0.928 . S
C107 C105 1.406 . S
C107 N108 1.261 . S
N108 Co59 2.214 . S
N108 C106 1.325 . S
N108 C107 1.261 . S
C109 H79 0.931 . S
C109 C106 1.357 . S
C109 C110 1.312 . S
C110 H81 0.930 1_655 S
C110 C105 1.261 . S
C110 C109 1.312 . S
C111 O83 1.214 . S
C111 O91 1.234 . S
C112 H84 0.929 . S
C112 C115 1.391 . S
C112 C117 1.391 . S
C113 H85 0.929 . S
C113 C114 1.390 . S
C113 N116 1.391 . S
C114 H86 0.930 . S
C114 C113 1.390 . S
C114 C115 1.392 . S
C115 H87 0.929 . S
C115 C112 1.391 . S
C115 C114 1.392 . S
N116 Co60 2.257 . S
N116 C113 1.391 . S
N116 C117 1.388 . S
C117 H88 0.930 . S
C117 C112 1.391 . S
C117 N116 1.388 . S
Co118 O120 2.143 . S
Co118 O126 2.074 . S
Co118 O129 2.093 1_554 S
Co118 O142 2.097 . S
Co118 N159 2.151 1_554 S
Co118 N167 2.214 . S
Co119 O120 2.160 . S
Co119 O125 2.058 . S
Co119 O135 2.057 . S
Co119 O150 2.037 . S
Co119 N154 2.145 . S
Co119 N175 2.257 . S
O120 Co118 2.143 . S
O120 Co119 2.160 . S
C121 O122 1.278 . S
C121 O129 1.224 . S
O122 C121 1.278 . S
C123 O124 1.245 1_554 S
C123 O135 1.232 . S
O124 C123 1.245 1_556 S
O125 Co119 2.058 . S
O125 C151 1.269 . S
O126 Co118 2.074 . S
O126 C151 1.257 . S
H127 C152 0.930 . S
H128 C158 0.930 . S
O129 Co118 2.093 1_556 S
O129 C121 1.224 . S
H130 C162 0.929 . S
H131 C164 0.930 1_556 S
H132 C165 0.930 . S
H133 C163 0.929 1_554 S
H134 C166 0.928 . S
O135 Co119 2.057 . S
O135 C123 1.232 . S
H136 C155 0.929 . S
H137 C156 0.929 . S
H138 C168 0.931 . S
H139 C160 0.929 . S
H140 C169 0.930 1_545 S
H141 C161 0.931 . S
O142 Co118 2.097 . S
O142 C170 1.214 . S
H143 C171 0.929 1_556 S
H144 C172 0.929 . S
H145 C173 0.930 . S
H146 C174 0.929 . S
H147 C176 0.937 . S
H148 C153 0.930 . S
H149 C157 0.930 . S
O150 Co119 2.037 . S
O150 C170 1.234 . S
C151 O125 1.269 . S
C151 O126 1.257 . S
C152 H127 0.930 . S
C152 C155 1.388 . S
C152 C157 1.418 . S
C153 H148 0.930 . S
C153 C156 1.404 . S
C153 C157 1.353 . S
N154 Co119 2.145 . S
N154 C155 1.397 . S
N154 C156 1.334 . S
C155 H136 0.929 . S
C155 C152 1.388 . S
C155 N154 1.397 . S
C156 H137 0.929 . S
C156 C153 1.404 . S
C156 N154 1.334 . S
C157 H149 0.930 . S
C157 C152 1.418 . S
C157 C153 1.353 . S
C158 H128 0.930 . S
C158 N159 1.330 . S
C158 C160 1.446 . S
N159 Co118 2.151 1_556 S
N159 C158 1.330 . S
N159 C163 1.418 . S
C160 H139 0.929 . S
C160 C158 1.446 . S
C160 C161 1.332 . S
C161 H141 0.931 . S
C161 C160 1.332 . S
C161 C162 1.267 . S
C162 H130 0.929 . S
C162 C161 1.267 . S
C162 C163 1.251 . S
C163 H133 0.929 1_556 S
C163 N159 1.418 . S
C163 C162 1.251 . S
C164 H131 0.930 1_554 S
C164 C166 1.406 1_554 S
C164 C169 1.261 . S
C165 H132 0.930 . S
C165 N167 1.325 . S
C165 C168 1.357 . S
C166 H134 0.928 . S
C166 C164 1.406 1_556 S
C166 N167 1.261 1_556 S
N167 Co118 2.214 . S
N167 C165 1.325 . S
N167 C166 1.261 1_554 S
C168 H138 0.931 . S
C168 C165 1.357 . S
C168 C169 1.312 . S
C169 H140 0.930 1_565 S
C169 C164 1.261 . S
C169 C168 1.312 . S
C170 O142 1.214 . S
C170 O150 1.234 . S
C171 H143 0.929 1_554 S
C171 C174 1.391 . S
C171 C176 1.391 . S
C172 H144 0.929 . S
C172 C173 1.390 . S
C172 N175 1.391 . S
C173 H145 0.930 . S
C173 C172 1.390 . S
C173 C174 1.392 . S
C174 H146 0.929 . S
C174 C171 1.391 . S
C174 C173 1.392 . S
N175 Co119 2.257 . S
N175 C172 1.391 . S
N175 C176 1.388 . S
C176 H147 0.937 . S
C176 C171 1.391 . S
C176 N175 1.388 . S
Co177 O179 2.143 . S
Co177 O185 2.074 . S
Co177 O188 2.093 . S
Co177 O201 2.097 . S
Co177 N218 2.151 . S
Co177 N226 2.214 . S
Co178 O179 2.160 . S
Co178 O184 2.058 . S
Co178 O194 2.057 . S
Co178 O209 2.037 . S
Co178 N213 2.145 . S
Co178 N234 2.257 . S
O179 Co177 2.143 . S
O179 Co178 2.160 . S
C180 O181 1.278 . S
C180 O188 1.224 . S
O181 C180 1.278 . S
C182 O183 1.245 . S
C182 O194 1.232 . S
O183 C182 1.245 . S
O184 Co178 2.058 . S
O184 C210 1.269 . S
O185 Co177 2.074 . S
O185 C210 1.257 . S
H186 C211 0.930 . S
H187 C217 0.930 . S
O188 Co177 2.093 . S
O188 C180 1.224 . S
H189 C221 0.929 . S
H190 C223 0.930 . S
H191 C224 0.930 . S
H192 C222 0.929 . S
H193 C225 0.928 . S
O194 Co178 2.057 . S
O194 C182 1.232 . S
H195 C214 0.929 . S
H196 C215 0.929 . S
H197 C227 0.931 . S
H198 C219 0.929 . S
H199 C228 0.930 . S
H200 C220 0.931 . S
O201 Co177 2.097 . S
O201 C229 1.214 . S
H202 C230 0.929 . S
H203 C231 0.929 . S
H204 C232 0.930 . S
H205 C233 0.929 . S
H206 C235 0.930 . S
H207 C212 0.930 . S
H208 C216 0.930 . S
O209 Co178 2.037 . S
O209 C229 1.234 . S
C210 O184 1.269 . S
C210 O185 1.257 . S
C211 H186 0.930 . S
C211 C214 1.388 . S
C211 C216 1.418 . S
C212 H207 0.930 . S
C212 C215 1.404 . S
C212 C216 1.353 . S
N213 Co178 2.145 . S
N213 C214 1.397 . S
N213 C215 1.334 . S
C214 H195 0.929 . S
C214 C211 1.388 . S
C214 N213 1.397 . S
C215 H196 0.929 . S
C215 C212 1.404 . S
C215 N213 1.334 . S
C216 H208 0.930 . S
C216 C211 1.418 . S
C216 C212 1.353 . S
C217 H187 0.930 . S
C217 N218 1.330 . S
C217 C219 1.446 . S
N218 Co177 2.151 . S
N218 C217 1.330 . S
N218 C222 1.418 . S
C219 H198 0.929 . S
C219 C217 1.446 . S
C219 C220 1.332 . S
C220 H200 0.931 . S
C220 C219 1.332 . S
C220 C221 1.267 . S
C221 H189 0.929 . S
C221 C220 1.267 . S
C221 C222 1.251 . S
C222 H192 0.929 . S
C222 N218 1.418 . S
C222 C221 1.251 . S
C223 H190 0.930 . S
C223 C225 1.406 . S
C223 C228 1.261 . S
C224 H191 0.930 . S
C224 N226 1.325 . S
C224 C227 1.357 . S
C225 H193 0.928 . S
C225 C223 1.406 . S
C225 N226 1.261 . S
N226 Co177 2.214 . S
N226 C224 1.325 . S
N226 C225 1.261 . S
C227 H197 0.931 . S
C227 C224 1.357 . S
C227 C228 1.312 . S
C228 H199 0.930 . S
C228 C223 1.261 . S
C228 C227 1.312 . S
C229 O201 1.214 . S
C229 O209 1.234 . S
C230 H202 0.929 . S
C230 C233 1.391 . S
C230 C235 1.391 . S
C231 H203 0.929 . S
C231 C232 1.390 . S
C231 N234 1.391 . S
C232 H204 0.930 . S
C232 C231 1.390 . S
C232 C233 1.392 . S
C233 H205 0.929 . S
C233 C230 1.391 . S
C233 C232 1.392 . S
N234 Co178 2.257 . S
N234 C231 1.391 . S
N234 C235 1.388 . S
C235 H206 0.930 . S
C235 C230 1.391 . S
C235 N234 1.388 . S
Co236 O238 2.143 1_655 S
Co236 O244 2.074 . S
Co236 O247 2.093 1_656 S
Co236 O260 2.097 1_655 S
Co236 N277 2.151 1_556 S
Co236 N285 2.214 . S
Co237 O238 2.160 . S
Co237 O243 2.058 1_455 S
Co237 O253 2.057 1_455 S
Co237 O268 2.037 . S
Co237 N272 2.145 . S
Co237 N293 2.257 . S
O238 Co236 2.143 1_455 S
O238 Co237 2.160 . S
C239 O240 1.278 . S
C239 O247 1.224 . S
O240 C239 1.278 . S
C241 O242 1.245 1_556 S
C241 O253 1.232 . S
O242 C241 1.245 1_554 S
O243 Co237 2.058 1_655 S
O243 C269 1.269 . S
O244 Co236 2.074 . S
O244 C269 1.257 . S
H245 C270 0.930 . S
H246 C276 0.930 . S
O247 Co236 2.093 1_454 S
O247 C239 1.224 . S
H248 C280 0.929 . S
H249 C282 0.930 1_554 S
H250 C283 0.930 . S
H251 C281 0.929 1_556 S
H252 C284 0.928 1_554 S
O253 Co237 2.057 1_655 S
O253 C241 1.232 . S
H254 C273 0.929 . S
H255 C274 0.929 . S
H256 C286 0.931 . S
H257 C278 0.929 . S
H258 C287 0.930 1_545 S
H259 C279 0.931 . S
O260 Co236 2.097 1_455 S
O260 C288 1.214 . S
H261 C289 0.929 1_554 S
H262 C290 0.929 . S
H263 C291 0.930 . S
H264 C292 0.929 . S
H265 C294 0.930 . S
H266 C271 0.930 . S
H267 C275 0.930 . S
O268 Co237 2.037 . S
O268 C288 1.234 . S
C269 O243 1.269 . S
C269 O244 1.257 . S
C270 H245 0.930 . S
C270 C273 1.388 . S
C270 C275 1.418 . S
C271 H266 0.930 . S
C271 C274 1.404 . S
C271 C275 1.353 . S
N272 Co237 2.145 . S
N272 C273 1.397 . S
N272 C274 1.334 . S
C273 H254 0.929 . S
C273 C270 1.388 . S
C273 N272 1.397 . S
C274 H255 0.929 . S
C274 C271 1.404 . S
C274 N272 1.334 . S
C275 H267 0.930 . S
C275 C270 1.418 . S
C275 C271 1.353 . S
C276 H246 0.930 . S
C276 N277 1.330 . S
C276 C278 1.446 . S
N277 Co236 2.151 1_554 S
N277 C276 1.330 . S
N277 C281 1.418 . S
C278 H257 0.929 . S
C278 C276 1.446 . S
C278 C279 1.332 . S
C279 H259 0.931 . S
C279 C278 1.332 . S
C279 C280 1.267 . S
C280 H248 0.929 . S
C280 C279 1.267 . S
C280 C281 1.251 . S
C281 H251 0.929 1_554 S
C281 N277 1.418 . S
C281 C280 1.251 . S
C282 H249 0.930 1_556 S
C282 C284 1.406 . S
C282 C287 1.261 . S
C283 H250 0.930 . S
C283 N285 1.325 . S
C283 C286 1.357 . S
C284 H252 0.928 1_556 S
C284 C282 1.406 . S
C284 N285 1.261 . S
N285 Co236 2.214 . S
N285 C283 1.325 . S
N285 C284 1.261 . S
C286 H256 0.931 . S
C286 C283 1.357 . S
C286 C287 1.312 . S
C287 H258 0.930 1_565 S
C287 C282 1.261 . S
C287 C286 1.312 . S
C288 O260 1.214 . S
C288 O268 1.234 . S
C289 H261 0.929 1_556 S
C289 C292 1.391 . S
C289 C294 1.391 . S
C290 H262 0.929 . S
C290 C291 1.390 . S
C290 N293 1.391 . S
C291 H263 0.930 . S
C291 C290 1.390 . S
C291 C292 1.392 . S
C292 H264 0.929 . S
C292 C289 1.391 . S
C292 C291 1.392 . S
N293 Co237 2.257 . S
N293 C290 1.391 . S
N293 C294 1.388 . S
C294 H265 0.930 . S
C294 C289 1.391 . S
C294 N293 1.388 . S
Co295 O297 2.131 1_565 S
Co295 O303 2.074 . S
Co295 O306 2.093 1_565 S
Co295 O319 2.097 1_565 S
Co295 N336 2.151 . S
Co295 N344 2.214 . S
Co296 O297 2.166 . S
Co296 O302 2.058 1_545 S
Co296 O312 2.057 1_545 S
Co296 O327 2.037 . S
Co296 N331 2.145 . S
Co296 N352 2.257 . S
O297 Co295 2.131 1_545 S
O297 Co296 2.166 . S
C298 O299 1.278 . S
C298 O306 1.224 . S
O299 C298 1.278 . S
C300 O301 1.245 . S
C300 O312 1.232 . S
O301 C300 1.245 . S
O302 Co296 2.058 1_565 S
O302 C328 1.269 . S
O303 Co295 2.074 . S
O303 C328 1.257 . S
H304 C329 0.930 . S
H305 C335 0.930 . S
O306 Co295 2.093 1_545 S
O306 C298 1.224 . S
H307 C339 0.929 . S
H308 C341 0.930 . S
H309 C342 0.930 . S
H310 C340 0.929 . S
H311 C343 0.928 . S
O312 Co296 2.057 1_565 S
O312 C300 1.232 . S
H313 C332 0.929 . S
H314 C333 0.929 . S
H315 C345 0.931 . S
H316 C337 0.929 . S
H317 C346 0.930 . S
H318 C338 0.931 . S
O319 Co295 2.097 1_545 S
O319 C347 1.214 . S
H320 C348 0.929 . S
H321 C349 0.929 . S
H322 C350 0.930 . S
H323 C351 0.929 . S
H324 C353 0.930 . S
H325 C330 0.930 . S
H326 C334 0.930 . S
O327 Co296 2.037 . S
O327 C347 1.234 . S
C328 O302 1.269 . S
C328 O303 1.257 . S
C329 H304 0.930 . S
C329 C332 1.388 . S
C329 C334 1.418 . S
C330 H325 0.930 . S
C330 C333 1.404 . S
C330 C334 1.353 . S
N331 Co296 2.145 . S
N331 C332 1.397 . S
N331 C333 1.334 . S
C332 H313 0.929 . S
C332 C329 1.388 . S
C332 N331 1.397 . S
C333 H314 0.929 . S
C333 C330 1.404 . S
C333 N331 1.334 . S
C334 H326 0.930 . S
C334 C329 1.418 . S
C334 C330 1.353 . S
C335 H305 0.930 . S
C335 N336 1.330 . S
C335 C337 1.446 . S
N336 Co295 2.151 . S
N336 C335 1.330 . S
N336 C340 1.418 . S
C337 H316 0.929 . S
C337 C335 1.446 . S
C337 C338 1.332 . S
C338 H318 0.931 . S
C338 C337 1.332 . S
C338 C339 1.267 . S
C339 H307 0.929 . S
C339 C338 1.267 . S
C339 C340 1.251 . S
C340 H310 0.929 . S
C340 N336 1.418 . S
C340 C339 1.251 . S
C341 H308 0.930 . S
C341 C343 1.406 . S
C341 C346 1.261 . S
C342 H309 0.930 . S
C342 N344 1.325 . S
C342 C345 1.357 . S
C343 H311 0.928 . S
C343 C341 1.406 . S
C343 N344 1.261 . S
N344 Co295 2.214 . S
N344 C342 1.325 . S
N344 C343 1.261 . S
C345 H315 0.931 . S
C345 C342 1.357 . S
C345 C346 1.312 . S
C346 H317 0.930 . S
C346 C341 1.261 . S
C346 C345 1.312 . S
C347 O319 1.214 . S
C347 O327 1.234 . S
C348 H320 0.929 . S
C348 C351 1.391 . S
C348 C353 1.391 . S
C349 H321 0.929 . S
C349 C350 1.390 . S
C349 N352 1.391 . S
C350 H322 0.930 . S
C350 C349 1.390 . S
C350 C351 1.392 . S
C351 H323 0.929 . S
C351 C348 1.391 . S
C351 C350 1.392 . S
N352 Co296 2.257 . S
N352 C349 1.391 . S
N352 C353 1.388 . S
C353 H324 0.930 . S
C353 C348 1.391 . S
C353 N352 1.388 . S
Co354 O356 2.143 . S
Co354 O362 2.071 1_554 S
Co354 O365 2.095 . S
Co354 O378 2.095 1_554 S
Co354 N395 2.153 . S
Co354 N403 2.213 1_554 S
Co355 O356 2.160 1_556 S
Co355 O361 2.058 . S
Co355 O371 2.057 . S
Co355 O386 2.037 . S
Co355 N390 2.145 . S
Co355 N411 2.257 . S
O356 Co354 2.143 . S
O356 Co355 2.160 1_554 S
C357 O358 1.278 . S
C357 O365 1.224 . S
O358 C357 1.278 . S
C359 O360 1.245 . S
C359 O371 1.232 1_554 S
O360 C359 1.245 . S
O361 Co355 2.058 . S
O361 C387 1.269 . S
O362 Co354 2.071 1_556 S
O362 C387 1.257 . S
H363 C388 0.930 . S
H364 C394 0.930 . S
O365 Co354 2.095 . S
O365 C357 1.224 . S
H366 C398 0.929 . S
H367 C400 0.930 . S
H368 C401 0.930 . S
H369 C399 0.929 . S
H370 C402 0.928 . S
O371 Co355 2.057 . S
O371 C359 1.232 1_556 S
H372 C391 0.929 . S
H373 C392 0.929 . S
H374 C404 0.931 . S
H375 C396 0.929 . S
H376 C405 0.930 . S
H377 C397 0.931 . S
O378 Co354 2.095 1_556 S
O378 C406 1.214 . S
H379 C407 0.929 . S
H380 C408 0.929 . S
H381 C409 0.930 . S
H382 C410 0.929 1_554 S
H383 C412 0.930 . S
H384 C389 0.930 . S
H385 C393 0.930 . S
O386 Co355 2.037 . S
O386 C406 1.234 . S
C387 O361 1.269 . S
C387 O362 1.257 . S
C388 H363 0.930 . S
C388 C391 1.388 . S
C388 C393 1.418 . S
C389 H384 0.930 . S
C389 C392 1.404 . S
C389 C393 1.353 . S
N390 Co355 2.145 . S
N390 C391 1.397 . S
N390 C392 1.334 . S
C391 H372 0.929 . S
C391 C388 1.388 . S
C391 N390 1.397 . S
C392 H373 0.929 . S
C392 C389 1.404 . S
C392 N390 1.334 . S
C393 H385 0.930 . S
C393 C388 1.418 . S
C393 C389 1.353 . S
C394 H364 0.930 . S
C394 N395 1.330 . S
C394 C396 1.446 . S
N395 Co354 2.153 . S
N395 C394 1.330 . S
N395 C399 1.418 . S
C396 H375 0.929 . S
C396 C394 1.446 . S
C396 C397 1.332 . S
C397 H377 0.931 . S
C397 C396 1.332 . S
C397 C398 1.267 . S
C398 H366 0.929 . S
C398 C397 1.267 . S
C398 C399 1.251 . S
C399 H369 0.929 . S
C399 N395 1.418 . S
C399 C398 1.251 . S
C400 H367 0.930 . S
C400 C402 1.406 . S
C400 C405 1.261 1_554 S
C401 H368 0.930 . S
C401 N403 1.325 . S
C401 C404 1.357 . S
C402 H370 0.928 . S
C402 C400 1.406 . S
C402 N403 1.261 1_554 S
N403 Co354 2.213 1_556 S
N403 C401 1.325 . S
N403 C402 1.261 1_556 S
C404 H374 0.931 . S
C404 C401 1.357 . S
C404 C405 1.312 . S
C405 H376 0.930 . S
C405 C400 1.261 1_556 S
C405 C404 1.312 . S
C406 O378 1.214 . S
C406 O386 1.234 . S
C407 H379 0.929 . S
C407 C410 1.391 1_554 S
C407 C412 1.391 . S
C408 H380 0.929 . S
C408 C409 1.390 . S
C408 N411 1.391 . S
C409 H381 0.930 . S
C409 C408 1.390 . S
C409 C410 1.392 . S
C410 H382 0.929 1_556 S
C410 C407 1.391 1_556 S
C410 C409 1.392 . S
N411 Co355 2.257 . S
N411 C408 1.391 . S
N411 C412 1.388 1_556 S
C412 H383 0.930 . S
C412 C407 1.391 . S
C412 N411 1.388 1_554 S
Co413 O415 2.143 . S
Co413 O421 2.074 . S
Co413 O424 2.093 . S
Co413 O437 2.097 . S
Co413 N454 2.151 . S
Co413 N462 2.214 . S
Co414 O415 2.160 . S
Co414 O420 2.058 . S
Co414 O430 2.057 . S
Co414 O445 2.037 . S
Co414 N449 2.145 . S
Co414 N470 2.257 . S
O415 Co413 2.143 . S
O415 Co414 2.160 . S
C416 O417 1.278 . S
C416 O424 1.224 . S
O417 C416 1.278 . S
C418 O419 1.245 . S
C418 O430 1.232 . S
O419 C418 1.245 . S
O420 Co414 2.058 . S
O420 C446 1.269 . S
O421 Co413 2.074 . S
O421 C446 1.257 . S
H422 C447 0.930 . S
H423 C453 0.930 . S
O424 Co413 2.093 . S
O424 C416 1.224 . S
H425 C457 0.929 . S
H426 C459 0.930 . S
H427 C460 0.930 . S
H428 C458 0.929 . S
H429 C461 0.928 . S
O430 Co414 2.057 . S
O430 C418 1.232 . S
H431 C450 0.929 . S
H432 C451 0.929 . S
H433 C463 0.931 . S
H434 C455 0.929 . S
H435 C464 0.930 1_455 S
H436 C456 0.931 . S
O437 Co413 2.097 . S
O437 C465 1.214 . S
H438 C466 0.929 . S
H439 C467 0.929 . S
H440 C468 0.930 . S
H441 C469 0.929 . S
H442 C471 0.930 . S
H443 C448 0.930 . S
H444 C452 0.930 . S
O445 Co414 2.037 . S
O445 C465 1.234 . S
C446 O420 1.269 . S
C446 O421 1.257 . S
C447 H422 0.930 . S
C447 C450 1.388 . S
C447 C452 1.418 . S
C448 H443 0.930 . S
C448 C451 1.404 . S
C448 C452 1.353 . S
N449 Co414 2.145 . S
N449 C450 1.397 . S
N449 C451 1.334 . S
C450 H431 0.929 . S
C450 C447 1.388 . S
C450 N449 1.397 . S
C451 H432 0.929 . S
C451 C448 1.404 . S
C451 N449 1.334 . S
C452 H444 0.930 . S
C452 C447 1.418 . S
C452 C448 1.353 . S
C453 H423 0.930 . S
C453 N454 1.330 . S
C453 C455 1.446 . S
N454 Co413 2.151 . S
N454 C453 1.330 . S
N454 C458 1.418 . S
C455 H434 0.929 . S
C455 C453 1.446 . S
C455 C456 1.332 . S
C456 H436 0.931 . S
C456 C455 1.332 . S
C456 C457 1.267 . S
C457 H425 0.929 . S
C457 C456 1.267 . S
C457 C458 1.251 . S
C458 H428 0.929 . S
C458 N454 1.418 . S
C458 C457 1.251 . S
C459 H426 0.930 . S
C459 C461 1.406 . S
C459 C464 1.261 . S
C460 H427 0.930 . S
C460 N462 1.325 . S
C460 C463 1.357 . S
C461 H429 0.928 . S
C461 C459 1.406 . S
C461 N462 1.261 . S
N462 Co413 2.214 . S
N462 C460 1.325 . S
N462 C461 1.261 . S
C463 H433 0.931 . S
C463 C460 1.357 . S
C463 C464 1.312 . S
C464 H435 0.930 1_655 S
C464 C459 1.261 . S
C464 C463 1.312 . S
C465 O437 1.214 . S
C465 O445 1.234 . S
C466 H438 0.929 . S
C466 C469 1.391 . S
C466 C471 1.391 . S
C467 H439 0.929 . S
C467 C468 1.390 . S
C467 N470 1.391 . S
C468 H440 0.930 . S
C468 C467 1.390 . S
C468 C469 1.392 . S
C469 H441 0.929 . S
C469 C466 1.391 . S
C469 C468 1.392 . S
N470 Co414 2.257 . S
N470 C467 1.391 . S
N470 C471 1.388 . S
C471 H442 0.930 . S
C471 C466 1.391 . S
C471 N470 1.388 . S
Co472 O474 2.131 1_455 S
Co472 O480 2.074 . S
Co472 O483 2.093 1_456 S
Co472 O496 2.097 1_455 S
Co472 N513 2.151 1_556 S
Co472 N521 2.214 . S
Co473 O474 2.166 . S
Co473 O479 2.058 1_655 S
Co473 O489 2.057 1_655 S
Co473 O504 2.037 . S
Co473 N508 2.145 . S
Co473 N529 2.257 . S
O474 Co472 2.131 1_655 S
O474 Co473 2.166 . S
C475 O476 1.278 . S
C475 O483 1.224 . S
O476 C475 1.278 . S
C477 O478 1.245 1_556 S
C477 O489 1.232 . S
O478 C477 1.245 1_554 S
O479 Co473 2.058 1_455 S
O479 C505 1.269 . S
O480 Co472 2.074 . S
O480 C505 1.257 . S
H481 C506 0.930 . S
H482 C512 0.930 . S
O483 Co472 2.093 1_654 S
O483 C475 1.224 . S
H484 C516 0.929 . S
H485 C518 0.916 1_554 S
H486 C519 0.930 . S
H487 C517 0.929 1_556 S
H488 C520 0.928 . S
O489 Co473 2.057 1_455 S
O489 C477 1.232 . S
H490 C509 0.929 . S
H491 C510 0.929 . S
H492 C522 0.931 . S
H493 C514 0.929 . S
H494 C523 0.930 . S
H495 C515 0.931 . S
O496 Co472 2.097 1_655 S
O496 C524 1.214 . S
H497 C525 0.929 . S
H498 C526 0.929 . S
H499 C527 0.930 . S
H500 C528 0.929 . S
H501 C530 0.930 1_554 S
H502 C507 0.930 . S
H503 C511 0.930 . S
O504 Co473 2.037 . S
O504 C524 1.234 . S
C505 O479 1.269 . S
C505 O480 1.257 . S
C506 H481 0.930 . S
C506 C509 1.388 . S
C506 C511 1.418 . S
C507 H502 0.930 . S
C507 C510 1.404 . S
C507 C511 1.353 . S
N508 Co473 2.145 . S
N508 C509 1.397 . S
N508 C510 1.334 . S
C509 H490 0.929 . S
C509 C506 1.388 . S
C509 N508 1.397 . S
C510 H491 0.929 . S
C510 C507 1.404 . S
C510 N508 1.334 . S
C511 H503 0.930 . S
C511 C506 1.418 . S
C511 C507 1.353 . S
C512 H482 0.930 . S
C512 N513 1.330 . S
C512 C514 1.446 . S
N513 Co472 2.151 1_554 S
N513 C512 1.330 . S
N513 C517 1.418 . S
C514 H493 0.929 . S
C514 C512 1.446 . S
C514 C515 1.332 . S
C515 H495 0.931 . S
C515 C514 1.332 . S
C515 C516 1.267 . S
C516 H484 0.929 . S
C516 C515 1.267 . S
C516 C517 1.251 . S
C517 H487 0.929 1_554 S
C517 N513 1.418 . S
C517 C516 1.251 . S
C518 H485 0.916 1_556 S
C518 C520 1.402 1_556 S
C518 C523 1.278 . S
C519 H486 0.930 . S
C519 N521 1.325 . S
C519 C522 1.357 . S
C520 H488 0.928 . S
C520 C518 1.402 1_554 S
C520 N521 1.261 1_554 S
N521 Co472 2.214 . S
N521 C519 1.325 . S
N521 C520 1.261 1_556 S
C522 H492 0.931 . S
C522 C519 1.357 . S
C522 C523 1.312 . S
C523 H494 0.930 . S
C523 C518 1.278 . S
C523 C522 1.312 . S
C524 O496 1.214 . S
C524 O504 1.234 . S
C525 H497 0.929 . S
C525 C528 1.391 1_554 S
C525 C530 1.391 1_554 S
C526 H498 0.929 . S
C526 C527 1.390 . S
C526 N529 1.391 . S
C527 H499 0.930 . S
C527 C526 1.390 . S
C527 C528 1.392 . S
C528 H500 0.929 . S
C528 C525 1.391 1_556 S
C528 C527 1.392 . S
N529 Co473 2.257 . S
N529 C526 1.391 . S
N529 C530 1.388 . S
C530 H501 0.930 1_556 S
C530 C525 1.391 1_556 S
C530 N529 1.388 . S
Co531 O533 2.143 1_545 S
Co531 O539 2.074 . S
Co531 O542 2.093 1_545 S
Co531 O555 2.097 1_545 S
Co531 N572 2.151 . S
Co531 N580 2.214 . S
Co532 O533 2.160 . S
Co532 O538 2.058 1_565 S
Co532 O548 2.057 1_565 S
Co532 O563 2.037 . S
Co532 N567 2.145 . S
Co532 N588 2.257 . S
O533 Co531 2.143 1_565 S
O533 Co532 2.160 . S
C534 O535 1.278 . S
C534 O542 1.224 . S
O535 C534 1.278 . S
C536 O537 1.245 . S
C536 O548 1.232 . S
O537 C536 1.245 . S
O538 Co532 2.058 1_545 S
O538 C564 1.269 . S
O539 Co531 2.074 . S
O539 C564 1.257 . S
H540 C565 0.930 . S
H541 C571 0.930 . S
O542 Co531 2.093 1_565 S
O542 C534 1.224 . S
H543 C575 0.929 . S
H544 C577 0.930 . S
H545 C578 0.930 . S
H546 C576 0.929 . S
H547 C579 0.928 . S
O548 Co532 2.057 1_545 S
O548 C536 1.232 . S
H549 C568 0.929 . S
H550 C569 0.929 . S
H551 C581 0.931 . S
H552 C573 0.929 . S
H553 C582 0.930 1_655 S
H554 C574 0.931 . S
O555 Co531 2.097 1_565 S
O555 C583 1.214 . S
H556 C584 0.929 . S
H557 C585 0.929 . S
H558 C586 0.930 . S
H559 C587 0.929 . S
H560 C589 0.930 . S
H561 C566 0.930 . S
H562 C570 0.930 . S
O563 Co532 2.037 . S
O563 C583 1.234 . S
C564 O538 1.269 . S
C564 O539 1.257 . S
C565 H540 0.930 . S
C565 C568 1.388 . S
C565 C570 1.418 . S
C566 H561 0.930 . S
C566 C569 1.404 . S
C566 C570 1.353 . S
N567 Co532 2.145 . S
N567 C568 1.397 . S
N567 C569 1.334 . S
C568 H549 0.929 . S
C568 C565 1.388 . S
C568 N567 1.397 . S
C569 H550 0.929 . S
C569 C566 1.404 . S
C569 N567 1.334 . S
C570 H562 0.930 . S
C570 C565 1.418 . S
C570 C566 1.353 . S
C571 H541 0.930 . S
C571 N572 1.330 . S
C571 C573 1.446 . S
N572 Co531 2.151 . S
N572 C571 1.330 . S
N572 C576 1.418 . S
C573 H552 0.929 . S
C573 C571 1.446 . S
C573 C574 1.332 . S
C574 H554 0.931 . S
C574 C573 1.332 . S
C574 C575 1.267 . S
C575 H543 0.929 . S
C575 C574 1.267 . S
C575 C576 1.251 . S
C576 H546 0.929 . S
C576 N572 1.418 . S
C576 C575 1.251 . S
C577 H544 0.930 . S
C577 C579 1.406 . S
C577 C582 1.261 . S
C578 H545 0.930 . S
C578 N580 1.325 . S
C578 C581 1.357 . S
C579 H547 0.928 . S
C579 C577 1.406 . S
C579 N580 1.261 . S
N580 Co531 2.214 . S
N580 C578 1.325 . S
N580 C579 1.261 . S
C581 H551 0.931 . S
C581 C578 1.357 . S
C581 C582 1.312 . S
C582 H553 0.930 1_455 S
C582 C577 1.261 . S
C582 C581 1.312 . S
C583 O555 1.214 . S
C583 O563 1.234 . S
C584 H556 0.929 . S
C584 C587 1.391 . S
C584 C589 1.391 . S
C585 H557 0.929 . S
C585 C586 1.390 . S
C585 N588 1.391 . S
C586 H558 0.930 . S
C586 C585 1.390 . S
C586 C587 1.392 . S
C587 H559 0.929 . S
C587 C584 1.391 . S
C587 C586 1.392 . S
N588 Co532 2.257 . S
N588 C585 1.391 . S
N588 C589 1.388 . S
C589 H560 0.930 . S
C589 C584 1.391 . S
C589 N588 1.388 . S
Co590 O592 2.143 . S
Co590 O598 2.074 . S
Co590 O601 2.093 1_556 S
Co590 O614 2.097 . S
Co590 N631 2.151 1_556 S
Co590 N639 2.214 . S
Co591 O592 2.160 . S
Co591 O597 2.058 . S
Co591 O607 2.057 . S
Co591 O622 2.037 . S
Co591 N626 2.145 . S
Co591 N647 2.257 . S
O592 Co590 2.143 . S
O592 Co591 2.160 . S
C593 O594 1.278 . S
C593 O601 1.224 . S
O594 C593 1.278 . S
C595 O596 1.245 1_556 S
C595 O607 1.232 . S
O596 C595 1.245 1_554 S
O597 Co591 2.058 . S
O597 C623 1.269 . S
O598 Co590 2.074 . S
O598 C623 1.257 . S
H599 C624 0.930 . S
H600 C630 0.930 . S
O601 Co590 2.093 1_554 S
O601 C593 1.224 . S
H602 C634 0.929 . S
H603 C636 0.930 1_554 S
H604 C637 0.930 . S
H605 C635 0.929 1_556 S
H606 C638 0.928 . S
O607 Co591 2.057 . S
O607 C595 1.232 . S
H608 C627 0.929 . S
H609 C628 0.929 . S
H610 C640 0.931 . S
H611 C632 0.929 . S
H612 C641 0.930 1_565 S
H613 C633 0.931 . S
O614 Co590 2.097 . S
O614 C642 1.214 . S
H615 C643 0.929 1_554 S
H616 C644 0.929 . S
H617 C645 0.930 . S
H618 C646 0.929 . S
H619 C648 0.937 . S
H620 C625 0.930 . S
H621 C629 0.930 . S
O622 Co591 2.037 . S
O622 C642 1.234 . S
C623 O597 1.269 . S
C623 O598 1.257 . S
C624 H599 0.930 . S
C624 C627 1.388 . S
C624 C629 1.418 . S
C625 H620 0.930 . S
C625 C628 1.404 . S
C625 C629 1.353 . S
N626 Co591 2.145 . S
N626 C627 1.397 . S
N626 C628 1.334 . S
C627 H608 0.929 . S
C627 C624 1.388 . S
C627 N626 1.397 . S
C628 H609 0.929 . S
C628 C625 1.404 . S
C628 N626 1.334 . S
C629 H621 0.930 . S
C629 C624 1.418 . S
C629 C625 1.353 . S
C630 H600 0.930 . S
C630 N631 1.330 . S
C630 C632 1.446 . S
N631 Co590 2.151 1_554 S
N631 C630 1.330 . S
N631 C635 1.418 . S
C632 H611 0.929 . S
C632 C630 1.446 . S
C632 C633 1.332 . S
C633 H613 0.931 . S
C633 C632 1.332 . S
C633 C634 1.267 . S
C634 H602 0.929 . S
C634 C633 1.267 . S
C634 C635 1.251 . S
C635 H605 0.929 1_554 S
C635 N631 1.418 . S
C635 C634 1.251 . S
C636 H603 0.930 1_556 S
C636 C638 1.406 1_556 S
C636 C641 1.261 . S
C637 H604 0.930 . S
C637 N639 1.325 . S
C637 C640 1.357 . S
C638 H606 0.928 . S
C638 C636 1.406 1_554 S
C638 N639 1.261 1_554 S
N639 Co590 2.214 . S
N639 C637 1.325 . S
N639 C638 1.261 1_556 S
C640 H610 0.931 . S
C640 C637 1.357 . S
C640 C641 1.312 . S
C641 H612 0.930 1_545 S
C641 C636 1.261 . S
C641 C640 1.312 . S
C642 O614 1.214 . S
C642 O622 1.234 . S
C643 H615 0.929 1_556 S
C643 C646 1.391 . S
C643 C648 1.391 . S
C644 H616 0.929 . S
C644 C645 1.390 . S
C644 N647 1.391 . S
C645 H617 0.930 . S
C645 C644 1.390 . S
C645 C646 1.392 . S
C646 H618 0.929 . S
C646 C643 1.391 . S
C646 C645 1.392 . S
N647 Co591 2.257 . S
N647 C644 1.391 . S
N647 C648 1.388 . S
C648 H619 0.937 . S
C648 C643 1.391 . S
C648 N647 1.388 . S
Co649 O651 2.143 . S
Co649 O657 2.074 . S
Co649 O660 2.093 . S
Co649 O673 2.097 . S
Co649 N690 2.151 . S
Co649 N698 2.214 . S
Co650 O651 2.160 . S
Co650 O656 2.058 . S
Co650 O666 2.057 . S
Co650 O681 2.037 . S
Co650 N685 2.145 . S
Co650 N706 2.257 . S
O651 Co649 2.143 . S
O651 Co650 2.160 . S
C652 O653 1.278 . S
C652 O660 1.224 . S
O653 C652 1.278 . S
C654 O655 1.245 . S
C654 O666 1.232 . S
O655 C654 1.245 . S
O656 Co650 2.058 . S
O656 C682 1.269 . S
O657 Co649 2.074 . S
O657 C682 1.257 . S
H658 C683 0.930 . S
H659 C689 0.930 . S
O660 Co649 2.093 . S
O660 C652 1.224 . S
H661 C693 0.929 . S
H662 C695 0.930 . S
H663 C696 0.930 . S
H664 C694 0.929 . S
H665 C697 0.928 . S
O666 Co650 2.057 . S
O666 C654 1.232 . S
H667 C686 0.929 . S
H668 C687 0.929 . S
H669 C699 0.931 . S
H670 C691 0.929 . S
H671 C700 0.930 . S
H672 C692 0.931 . S
O673 Co649 2.097 . S
O673 C701 1.214 . S
H674 C702 0.929 . S
H675 C703 0.929 . S
H676 C704 0.930 . S
H677 C705 0.929 . S
H678 C707 0.930 . S
H679 C684 0.930 . S
H680 C688 0.930 . S
O681 Co650 2.037 . S
O681 C701 1.234 . S
C682 O656 1.269 . S
C682 O657 1.257 . S
C683 H658 0.930 . S
C683 C686 1.388 . S
C683 C688 1.418 . S
C684 H679 0.930 . S
C684 C687 1.404 . S
C684 C688 1.353 . S
N685 Co650 2.145 . S
N685 C686 1.397 . S
N685 C687 1.334 . S
C686 H667 0.929 . S
C686 C683 1.388 . S
C686 N685 1.397 . S
C687 H668 0.929 . S
C687 C684 1.404 . S
C687 N685 1.334 . S
C688 H680 0.930 . S
C688 C683 1.418 . S
C688 C684 1.353 . S
C689 H659 0.930 . S
C689 N690 1.330 . S
C689 C691 1.446 . S
N690 Co649 2.151 . S
N690 C689 1.330 . S
N690 C694 1.418 . S
C691 H670 0.929 . S
C691 C689 1.446 . S
C691 C692 1.332 . S
C692 H672 0.931 . S
C692 C691 1.332 . S
C692 C693 1.267 . S
C693 H661 0.929 . S
C693 C692 1.267 . S
C693 C694 1.251 . S
C694 H664 0.929 . S
C694 N690 1.418 . S
C694 C693 1.251 . S
C695 H662 0.930 . S
C695 C697 1.406 . S
C695 C700 1.261 . S
C696 H663 0.930 . S
C696 N698 1.325 . S
C696 C699 1.357 . S
C697 H665 0.928 . S
C697 C695 1.406 . S
C697 N698 1.261 . S
N698 Co649 2.214 . S
N698 C696 1.325 . S
N698 C697 1.261 . S
C699 H669 0.931 . S
C699 C696 1.357 . S
C699 C700 1.312 . S
C700 H671 0.930 . S
C700 C695 1.261 . S
C700 C699 1.312 . S
C701 O673 1.214 . S
C701 O681 1.234 . S
C702 H674 0.929 . S
C702 C705 1.391 . S
C702 C707 1.391 . S
C703 H675 0.929 . S
C703 C704 1.390 . S
C703 N706 1.391 . S
C704 H676 0.930 . S
C704 C703 1.390 . S
C704 C705 1.392 . S
C705 H677 0.929 . S
C705 C702 1.391 . S
C705 C704 1.392 . S
N706 Co650 2.257 . S
N706 C703 1.391 . S
N706 C707 1.388 . S
C707 H678 0.930 . S
C707 C702 1.391 . S
C707 N706 1.388 . S
Co708 O710 2.143 1_455 S
Co708 O716 2.074 . S
Co708 O719 2.093 1_454 S
Co708 O732 2.097 1_455 S
Co708 N749 2.151 1_554 S
Co708 N757 2.214 . S
Co709 O710 2.160 . S
Co709 O715 2.058 1_655 S
Co709 O725 2.057 1_655 S
Co709 O740 2.037 . S
Co709 N744 2.145 . S
Co709 N765 2.257 . S
O710 Co708 2.143 1_655 S
O710 Co709 2.160 . S
C711 O712 1.278 . S
C711 O719 1.224 . S
O712 C711 1.278 . S
C713 O714 1.245 1_554 S
C713 O725 1.232 . S
O714 C713 1.245 1_556 S
O715 Co709 2.058 1_455 S
O715 C741 1.269 . S
O716 Co708 2.074 . S
O716 C741 1.257 . S
H717 C742 0.930 . S
H718 C748 0.930 . S
O719 Co708 2.093 1_656 S
O719 C711 1.224 . S
H720 C752 0.929 . S
H721 C754 0.930 1_556 S
H722 C755 0.930 . S
H723 C753 0.929 1_554 S
H724 C756 0.928 1_556 S
O725 Co709 2.057 1_455 S
O725 C713 1.232 . S
H726 C745 0.929 . S
H727 C746 0.929 . S
H728 C758 0.931 . S
H729 C750 0.929 . S
H730 C759 0.930 1_565 S
H731 C751 0.931 . S
O732 Co708 2.097 1_655 S
O732 C760 1.214 . S
H733 C761 0.929 1_556 S
H734 C762 0.929 . S
H735 C763 0.930 . S
H736 C764 0.929 . S
H737 C766 0.930 . S
H738 C743 0.930 . S
H739 C747 0.930 . S
O740 Co709 2.037 . S
O740 C760 1.234 . S
C741 O715 1.269 . S
C741 O716 1.257 . S
C742 H717 0.930 . S
C742 C745 1.388 . S
C742 C747 1.418 . S
C743 H738 0.930 . S
C743 C746 1.404 . S
C743 C747 1.353 . S
N744 Co709 2.145 . S
N744 C745 1.397 . S
N744 C746 1.334 . S
C745 H726 0.929 . S
C745 C742 1.388 . S
C745 N744 1.397 . S
C746 H727 0.929 . S
C746 C743 1.404 . S
C746 N744 1.334 . S
C747 H739 0.930 . S
C747 C742 1.418 . S
C747 C743 1.353 . S
C748 H718 0.930 . S
C748 N749 1.330 . S
C748 C750 1.446 . S
N749 Co708 2.151 1_556 S
N749 C748 1.330 . S
N749 C753 1.418 . S
C750 H729 0.929 . S
C750 C748 1.446 . S
C750 C751 1.332 . S
C751 H731 0.931 . S
C751 C750 1.332 . S
C751 C752 1.267 . S
C752 H720 0.929 . S
C752 C751 1.267 . S
C752 C753 1.251 . S
C753 H723 0.929 1_556 S
C753 N749 1.418 . S
C753 C752 1.251 . S
C754 H721 0.930 1_554 S
C754 C756 1.406 . S
C754 C759 1.261 . S
C755 H722 0.930 . S
C755 N757 1.325 . S
C755 C758 1.357 . S
C756 H724 0.928 1_554 S
C756 C754 1.406 . S
C756 N757 1.261 . S
N757 Co708 2.214 . S
N757 C755 1.325 . S
N757 C756 1.261 . S
C758 H728 0.931 . S
C758 C755 1.357 . S
C758 C759 1.312 . S
C759 H730 0.930 1_545 S
C759 C754 1.261 . S
C759 C758 1.312 . S
C760 O732 1.214 . S
C760 O740 1.234 . S
C761 H733 0.929 1_554 S
C761 C764 1.391 . S
C761 C766 1.391 . S
C762 H734 0.929 . S
C762 C763 1.390 . S
C762 N765 1.391 . S
C763 H735 0.930 . S
C763 C762 1.390 . S
C763 C764 1.392 . S
C764 H736 0.929 . S
C764 C761 1.391 . S
C764 C763 1.392 . S
N765 Co709 2.257 . S
N765 C762 1.391 . S
N765 C766 1.388 . S
C766 H737 0.930 . S
C766 C761 1.391 . S
C766 N765 1.388 . S
Co767 O769 2.131 1_545 S
Co767 O775 2.074 . S
Co767 O778 2.093 1_545 S
Co767 O791 2.097 1_545 S
Co767 N808 2.151 . S
Co767 N816 2.214 . S
Co768 O769 2.166 . S
Co768 O774 2.058 1_565 S
Co768 O784 2.057 1_565 S
Co768 O799 2.037 . S
Co768 N803 2.145 . S
Co768 N824 2.257 . S
O769 Co767 2.131 1_565 S
O769 Co768 2.166 . S
C770 O771 1.278 . S
C770 O778 1.224 . S
O771 C770 1.278 . S
C772 O773 1.245 . S
C772 O784 1.232 . S
O773 C772 1.245 . S
O774 Co768 2.058 1_545 S
O774 C800 1.269 . S
O775 Co767 2.074 . S
O775 C800 1.257 . S
H776 C801 0.930 . S
H777 C807 0.930 . S
O778 Co767 2.093 1_565 S
O778 C770 1.224 . S
H779 C811 0.929 . S
H780 C813 0.930 . S
H781 C814 0.930 . S
H782 C812 0.929 . S
H783 C815 0.928 . S
O784 Co768 2.057 1_545 S
O784 C772 1.232 . S
H785 C804 0.929 . S
H786 C805 0.929 . S
H787 C817 0.931 . S
H788 C809 0.929 . S
H789 C818 0.930 . S
H790 C810 0.931 . S
O791 Co767 2.097 1_565 S
O791 C819 1.214 . S
H792 C820 0.929 . S
H793 C821 0.929 . S
H794 C822 0.930 . S
H795 C823 0.929 . S
H796 C825 0.930 . S
H797 C802 0.930 . S
H798 C806 0.930 . S
O799 Co768 2.037 . S
O799 C819 1.234 . S
C800 O774 1.269 . S
C800 O775 1.257 . S
C801 H776 0.930 . S
C801 C804 1.388 . S
C801 C806 1.418 . S
C802 H797 0.930 . S
C802 C805 1.404 . S
C802 C806 1.353 . S
N803 Co768 2.145 . S
N803 C804 1.397 . S
N803 C805 1.334 . S
C804 H785 0.929 . S
C804 C801 1.388 . S
C804 N803 1.397 . S
C805 H786 0.929 . S
C805 C802 1.404 . S
C805 N803 1.334 . S
C806 H798 0.930 . S
C806 C801 1.418 . S
C806 C802 1.353 . S
C807 H777 0.930 . S
C807 N808 1.330 . S
C807 C809 1.446 . S
N808 Co767 2.151 . S
N808 C807 1.330 . S
N808 C812 1.418 . S
C809 H788 0.929 . S
C809 C807 1.446 . S
C809 C810 1.332 . S
C810 H790 0.931 . S
C810 C809 1.332 . S
C810 C811 1.267 . S
C811 H779 0.929 . S
C811 C810 1.267 . S
C811 C812 1.251 . S
C812 H782 0.929 . S
C812 N808 1.418 . S
C812 C811 1.251 . S
C813 H780 0.930 . S
C813 C815 1.406 . S
C813 C818 1.261 . S
C814 H781 0.930 . S
C814 N816 1.325 . S
C814 C817 1.357 . S
C815 H783 0.928 . S
C815 C813 1.406 . S
C815 N816 1.261 . S
N816 Co767 2.214 . S
N816 C814 1.325 . S
N816 C815 1.261 . S
C817 H787 0.931 . S
C817 C814 1.357 . S
C817 C818 1.312 . S
C818 H789 0.930 . S
C818 C813 1.261 . S
C818 C817 1.312 . S
C819 O791 1.214 . S
C819 O799 1.234 . S
C820 H792 0.929 . S
C820 C823 1.391 . S
C820 C825 1.391 . S
C821 H793 0.929 . S
C821 C822 1.390 . S
C821 N824 1.391 . S
C822 H794 0.930 . S
C822 C821 1.390 . S
C822 C823 1.392 . S
C823 H795 0.929 . S
C823 C820 1.391 . S
C823 C822 1.392 . S
N824 Co768 2.257 . S
N824 C821 1.391 . S
N824 C825 1.388 . S
C825 H796 0.930 . S
C825 C820 1.391 . S
C825 N824 1.388 . S
Co826 O828 2.143 . S
Co826 O834 2.071 1_556 S
Co826 O837 2.095 . S
Co826 O850 2.095 1_556 S
Co826 N867 2.153 . S
Co826 N875 2.213 1_556 S
Co827 O828 2.160 1_554 S
Co827 O833 2.058 . S
Co827 O843 2.057 . S
Co827 O858 2.037 . S
Co827 N862 2.145 . S
Co827 N883 2.257 . S
O828 Co826 2.143 . S
O828 Co827 2.160 1_556 S
C829 O830 1.278 . S
C829 O837 1.224 . S
O830 C829 1.278 . S
C831 O832 1.245 . S
C831 O843 1.232 1_556 S
O832 C831 1.245 . S
O833 Co827 2.058 . S
O833 C859 1.269 . S
O834 Co826 2.071 1_554 S
O834 C859 1.257 . S
H835 C860 0.930 . S
H836 C866 0.930 . S
O837 Co826 2.095 . S
O837 C829 1.224 . S
H838 C870 0.929 . S
H839 C872 0.930 . S
H840 C873 0.930 . S
H841 C871 0.929 . S
H842 C874 0.928 . S
O843 Co827 2.057 . S
O843 C831 1.232 1_554 S
H844 C863 0.929 . S
H845 C864 0.929 . S
H846 C876 0.931 . S
H847 C868 0.929 . S
H848 C877 0.930 . S
H849 C869 0.931 . S
O850 Co826 2.095 1_554 S
O850 C878 1.214 . S
H851 C879 0.929 . S
H852 C880 0.929 . S
H853 C881 0.930 . S
H854 C882 0.929 1_556 S
H855 C884 0.930 . S
H856 C861 0.930 . S
H857 C865 0.930 . S
O858 Co827 2.037 . S
O858 C878 1.234 . S
C859 O833 1.269 . S
C859 O834 1.257 . S
C860 H835 0.930 . S
C860 C863 1.388 . S
C860 C865 1.418 . S
C861 H856 0.930 . S
C861 C864 1.404 . S
C861 C865 1.353 . S
N862 Co827 2.145 . S
N862 C863 1.397 . S
N862 C864 1.334 . S
C863 H844 0.929 . S
C863 C860 1.388 . S
C863 N862 1.397 . S
C864 H845 0.929 . S
C864 C861 1.404 . S
C864 N862 1.334 . S
C865 H857 0.930 . S
C865 C860 1.418 . S
C865 C861 1.353 . S
C866 H836 0.930 . S
C866 N867 1.330 . S
C866 C868 1.446 . S
N867 Co826 2.153 . S
N867 C866 1.330 . S
N867 C871 1.418 . S
C868 H847 0.929 . S
C868 C866 1.446 . S
C868 C869 1.332 . S
C869 H849 0.931 . S
C869 C868 1.332 . S
C869 C870 1.267 . S
C870 H838 0.929 . S
C870 C869 1.267 . S
C870 C871 1.251 . S
C871 H841 0.929 . S
C871 N867 1.418 . S
C871 C870 1.251 . S
C872 H839 0.930 . S
C872 C874 1.406 . S
C872 C877 1.261 1_556 S
C873 H840 0.930 . S
C873 N875 1.325 . S
C873 C876 1.357 . S
C874 H842 0.928 . S
C874 C872 1.406 . S
C874 N875 1.261 1_556 S
N875 Co826 2.213 1_554 S
N875 C873 1.325 . S
N875 C874 1.261 1_554 S
C876 H846 0.931 . S
C876 C873 1.357 . S
C876 C877 1.312 . S
C877 H848 0.930 . S
C877 C872 1.261 1_554 S
C877 C876 1.312 . S
C878 O850 1.214 . S
C878 O858 1.234 . S
C879 H851 0.929 . S
C879 C882 1.391 1_556 S
C879 C884 1.391 . S
C880 H852 0.929 . S
C880 C881 1.390 . S
C880 N883 1.391 . S
C881 H853 0.930 . S
C881 C880 1.390 . S
C881 C882 1.392 . S
C882 H854 0.929 1_554 S
C882 C879 1.391 1_554 S
C882 C881 1.392 . S
N883 Co827 2.257 . S
N883 C880 1.391 . S
N883 C884 1.388 1_554 S
C884 H855 0.930 . S
C884 C879 1.391 . S
C884 N883 1.388 1_556 S
Co885 O887 2.143 . S
Co885 O893 2.074 . S
Co885 O896 2.093 . S
Co885 O909 2.097 . S
Co885 N926 2.151 . S
Co885 N934 2.214 . S
Co886 O887 2.160 . S
Co886 O892 2.058 . S
Co886 O902 2.057 . S
Co886 O917 2.037 . S
Co886 N921 2.145 . S
Co886 N942 2.257 . S
O887 Co885 2.143 . S
O887 Co886 2.160 . S
C888 O889 1.278 . S
C888 O896 1.224 . S
O889 C888 1.278 . S
C890 O891 1.245 . S
C890 O902 1.232 . S
O891 C890 1.245 . S
O892 Co886 2.058 . S
O892 C918 1.269 . S
O893 Co885 2.074 . S
O893 C918 1.257 . S
H894 C919 0.930 . S
H895 C925 0.930 . S
O896 Co885 2.093 . S
O896 C888 1.224 . S
H897 C929 0.929 . S
H898 C931 0.930 . S
H899 C932 0.930 . S
H900 C930 0.929 . S
H901 C933 0.928 . S
O902 Co886 2.057 . S
O902 C890 1.232 . S
H903 C922 0.929 . S
H904 C923 0.929 . S
H905 C935 0.931 . S
H906 C927 0.929 . S
H907 C936 0.930 1_655 S
H908 C928 0.931 . S
O909 Co885 2.097 . S
O909 C937 1.214 . S
H910 C938 0.929 . S
H911 C939 0.929 . S
H912 C940 0.930 . S
H913 C941 0.929 . S
H914 C943 0.930 . S
H915 C920 0.930 . S
H916 C924 0.930 . S
O917 Co886 2.037 . S
O917 C937 1.234 . S
C918 O892 1.269 . S
C918 O893 1.257 . S
C919 H894 0.930 . S
C919 C922 1.388 . S
C919 C924 1.418 . S
C920 H915 0.930 . S
C920 C923 1.404 . S
C920 C924 1.353 . S
N921 Co886 2.145 . S
N921 C922 1.397 . S
N921 C923 1.334 . S
C922 H903 0.929 . S
C922 C919 1.388 . S
C922 N921 1.397 . S
C923 H904 0.929 . S
C923 C920 1.404 . S
C923 N921 1.334 . S
C924 H916 0.930 . S
C924 C919 1.418 . S
C924 C920 1.353 . S
C925 H895 0.930 . S
C925 N926 1.330 . S
C925 C927 1.446 . S
N926 Co885 2.151 . S
N926 C925 1.330 . S
N926 C930 1.418 . S
C927 H906 0.929 . S
C927 C925 1.446 . S
C927 C928 1.332 . S
C928 H908 0.931 . S
C928 C927 1.332 . S
C928 C929 1.267 . S
C929 H897 0.929 . S
C929 C928 1.267 . S
C929 C930 1.251 . S
C930 H900 0.929 . S
C930 N926 1.418 . S
C930 C929 1.251 . S
C931 H898 0.930 . S
C931 C933 1.406 . S
C931 C936 1.261 . S
C932 H899 0.930 . S
C932 N934 1.325 . S
C932 C935 1.357 . S
C933 H901 0.928 . S
C933 C931 1.406 . S
C933 N934 1.261 . S
N934 Co885 2.214 . S
N934 C932 1.325 . S
N934 C933 1.261 . S
C935 H905 0.931 . S
C935 C932 1.357 . S
C935 C936 1.312 . S
C936 H907 0.930 1_455 S
C936 C931 1.261 . S
C936 C935 1.312 . S
C937 O909 1.214 . S
C937 O917 1.234 . S
C938 H910 0.929 . S
C938 C941 1.391 . S
C938 C943 1.391 . S
C939 H911 0.929 . S
C939 C940 1.390 . S
C939 N942 1.391 . S
C940 H912 0.930 . S
C940 C939 1.390 . S
C940 C941 1.392 . S
C941 H913 0.929 . S
C941 C938 1.391 . S
C941 C940 1.392 . S
N942 Co886 2.257 . S
N942 C939 1.391 . S
N942 C943 1.388 . S
C943 H914 0.930 . S
C943 C938 1.391 . S
C943 N942 1.388 . S
C944 C945 1.391 1_554 S
C944 C946 1.394 . S
C944 H960 0.931 . S
C945 C944 1.391 1_556 S
C945 C949 1.374 . S
C946 C944 1.394 . S
C946 C947 1.363 1_554 S
C946 C950 1.531 . S
C947 C946 1.363 1_556 S
C947 C948 1.415 1_655 S
C947 C955 1.504 . S
C948 C947 1.415 1_455 S
C948 C949 1.392 1_455 S
C948 C951 1.511 . S
C949 C945 1.374 . S
C949 C948 1.392 1_655 S
C949 H961 0.930 1_655 S
C950 C946 1.531 . S
C950 H962 0.960 . S
C950 H963 0.962 . S
C950 H964 0.960 . S
C951 C948 1.511 . S
C951 H965 0.961 . S
C951 H966 0.961 . S
C951 H967 0.961 . S
C952 C953 1.370 . S
C952 C954 1.363 . S
C952 H968 0.931 . S
C953 C952 1.370 . S
C953 C957 1.408 1_656 S
C954 C952 1.363 . S
C954 C955 1.370 . S
C954 C958 1.524 . S
C955 C947 1.504 . S
C955 C954 1.370 . S
C955 C956 1.403 1_656 S
C956 C955 1.403 1_454 S
C956 C957 1.404 . S
C956 C959 1.539 . S
C957 C953 1.408 1_454 S
C957 C956 1.404 . S
C957 H969 0.930 . S
C958 C954 1.524 . S
C958 H970 0.956 . S
C958 H971 0.961 . S
C958 H972 0.961 . S
C959 C956 1.539 . S
C959 H973 0.958 . S
C959 H974 0.961 . S
C959 H975 0.960 . S
H960 C944 0.931 . S
H961 C949 0.930 1_455 S
H962 C950 0.960 . S
H963 C950 0.962 . S
H964 C950 0.960 . S
H965 C951 0.961 . S
H966 C951 0.961 . S
H967 C951 0.961 . S
H968 C952 0.931 . S
H969 C957 0.930 . S
H970 C958 0.956 . S
H971 C958 0.961 . S
H972 C958 0.961 . S
H973 C959 0.958 . S
H974 C959 0.961 . S
H975 C959 0.960 . S
C976 C977 1.391 1_545 S
C976 C978 1.394 . S
C976 H992 0.931 . S
C977 C976 1.391 1_565 S
C977 C981 1.376 . S
C978 C976 1.394 . S
C978 C979 1.369 1_545 S
C978 C982 1.531 . S
C979 C978 1.369 1_565 S
C979 C980 1.410 . S
C979 C987 1.503 . S
C980 C979 1.410 . S
C980 C981 1.392 . S
C980 C983 1.511 . S
C981 C977 1.376 . S
C981 C980 1.392 . S
C981 H993 0.929 . S
C982 C978 1.531 . S
C982 H994 0.960 . S
C982 H995 0.962 . S
C982 H996 0.960 . S
C983 C980 1.511 . S
C983 H997 0.961 . S
C983 H998 0.961 . S
C983 H999 0.961 . S
C984 C985 1.370 . S
C984 C986 1.363 . S
C984 H1000 0.931 . S
C985 C984 1.370 . S
C985 C989 1.408 . S
C986 C984 1.363 . S
C986 C987 1.370 . S
C986 C990 1.524 . S
C987 C979 1.503 . S
C987 C986 1.370 . S
C987 C988 1.403 . S
C988 C987 1.403 . S
C988 C989 1.404 . S
C988 C991 1.539 1_565 S
C989 C985 1.408 . S
C989 C988 1.404 . S
C989 H1001 0.930 1_565 S
C990 C986 1.524 . S
C990 H1002 0.956 . S
C990 H1003 0.961 . S
C990 H1004 0.961 . S
C991 C988 1.539 1_545 S
C991 H1005 0.958 . S
C991 H1006 0.961 . S
C991 H1007 0.960 . S
H992 C976 0.931 . S
H993 C981 0.929 . S
H994 C982 0.960 . S
H995 C982 0.962 . S
H996 C982 0.960 . S
H997 C983 0.961 . S
H998 C983 0.961 . S
H999 C983 0.961 . S
H1000 C984 0.931 . S
H1001 C989 0.930 1_545 S
H1002 C990 0.956 . S
H1003 C990 0.961 . S
H1004 C990 0.961 . S
H1005 C991 0.958 . S
H1006 C991 0.961 . S
H1007 C991 0.960 . S
C1008 C1009 1.391 1_556 S
C1008 C1010 1.394 . S
C1008 H1024 0.931 . S
C1009 C1008 1.391 1_554 S
C1009 C1013 1.376 . S
C1010 C1008 1.394 . S
C1010 C1011 1.369 1_556 S
C1010 C1014 1.531 . S
C1011 C1010 1.369 1_554 S
C1011 C1012 1.410 . S
C1011 C1019 1.503 . S
C1012 C1011 1.410 . S
C1012 C1013 1.392 . S
C1012 C1015 1.511 . S
C1013 C1009 1.376 . S
C1013 C1012 1.392 . S
C1013 H1025 0.929 . S
C1014 C1010 1.531 . S
C1014 H1026 0.960 . S
C1014 H1027 0.962 . S
C1014 H1028 0.960 . S
C1015 C1012 1.511 . S
C1015 H1029 0.961 . S
C1015 H1030 0.961 . S
C1015 H1031 0.961 . S
C1016 C1017 1.370 . S
C1016 C1018 1.363 . S
C1016 H1032 0.931 . S
C1017 C1016 1.370 . S
C1017 C1021 1.408 1_554 S
C1018 C1016 1.363 . S
C1018 C1019 1.370 . S
C1018 C1022 1.524 . S
C1019 C1011 1.503 . S
C1019 C1018 1.370 . S
C1019 C1020 1.403 1_554 S
C1020 C1019 1.403 1_556 S
C1020 C1021 1.404 . S
C1020 C1023 1.539 . S
C1021 C1017 1.408 1_556 S
C1021 C1020 1.404 . S
C1021 H1033 0.930 . S
C1022 C1018 1.524 . S
C1022 H1034 0.956 . S
C1022 H1035 0.961 . S
C1022 H1036 0.961 . S
C1023 C1020 1.539 . S
C1023 H1037 0.958 . S
C1023 H1038 0.961 . S
C1023 H1039 0.960 . S
H1024 C1008 0.931 . S
H1025 C1013 0.929 . S
H1026 C1014 0.960 . S
H1027 C1014 0.962 . S
H1028 C1014 0.960 . S
H1029 C1015 0.961 . S
H1030 C1015 0.961 . S
H1031 C1015 0.961 . S
H1032 C1016 0.931 . S
H1033 C1021 0.930 . S
H1034 C1022 0.956 . S
H1035 C1022 0.961 . S
H1036 C1022 0.961 . S
H1037 C1023 0.958 . S
H1038 C1023 0.961 . S
H1039 C1023 0.960 . S
C1040 C1041 1.391 . S
C1040 C1042 1.394 . S
C1040 H1056 0.931 . S
C1041 C1040 1.391 . S
C1041 C1045 1.376 . S
C1042 C1040 1.394 . S
C1042 C1043 1.369 . S
C1042 C1046 1.531 . S
C1043 C1042 1.369 . S
C1043 C1044 1.410 . S
C1043 C1051 1.503 . S
C1044 C1043 1.410 . S
C1044 C1045 1.392 . S
C1044 C1047 1.511 . S
C1045 C1041 1.376 . S
C1045 C1044 1.392 . S
C1045 H1057 0.929 . S
C1046 C1042 1.531 . S
C1046 H1058 0.960 . S
C1046 H1059 0.962 . S
C1046 H1060 0.960 . S
C1047 C1044 1.511 . S
C1047 H1061 0.961 . S
C1047 H1062 0.961 . S
C1047 H1063 0.961 . S
C1048 C1049 1.370 . S
C1048 C1050 1.363 . S
C1048 H1064 0.931 . S
C1049 C1048 1.370 . S
C1049 C1053 1.408 . S
C1050 C1048 1.363 . S
C1050 C1051 1.370 . S
C1050 C1054 1.524 . S
C1051 C1043 1.503 . S
C1051 C1050 1.370 . S
C1051 C1052 1.403 . S
C1052 C1051 1.403 . S
C1052 C1053 1.404 . S
C1052 C1055 1.539 . S
C1053 C1049 1.408 . S
C1053 C1052 1.404 . S
C1053 H1065 0.930 . S
C1054 C1050 1.524 . S
C1054 H1066 0.956 . S
C1054 H1067 0.961 . S
C1054 H1068 0.961 . S
C1055 C1052 1.539 . S
C1055 H1069 0.958 . S
C1055 H1070 0.961 . S
C1055 H1071 0.960 . S
H1056 C1040 0.931 . S
H1057 C1045 0.929 . S
H1058 C1046 0.960 . S
H1059 C1046 0.962 . S
H1060 C1046 0.960 . S
H1061 C1047 0.961 . S
H1062 C1047 0.961 . S
H1063 C1047 0.961 . S
H1064 C1048 0.931 . S
H1065 C1053 0.930 . S
H1066 C1054 0.956 . S
H1067 C1054 0.961 . S
H1068 C1054 0.961 . S
H1069 C1055 0.958 . S
H1070 C1055 0.961 . S
H1071 C1055 0.960 . S
C1072 C1073 1.367 1_655 S
C1072 C1074 1.396 . S
C1072 H1088 0.955 . S
C1073 C1072 1.367 1_455 S
C1073 C1077 1.376 1_554 S
C1074 C1072 1.396 . S
C1074 C1075 1.369 1_655 S
C1074 C1078 1.531 . S
C1075 C1074 1.369 1_455 S
C1075 C1076 1.410 1_554 S
C1075 C1083 1.503 . S
C1076 C1075 1.410 1_556 S
C1076 C1077 1.392 . S
C1076 C1079 1.511 . S
C1077 C1073 1.376 1_556 S
C1077 C1076 1.392 . S
C1077 H1089 0.929 . S
C1078 C1074 1.531 . S
C1078 H1090 0.960 . S
C1078 H1091 0.962 . S
C1078 H1092 0.960 . S
C1079 C1076 1.511 . S
C1079 H1093 0.961 . S
C1079 H1094 0.961 . S
C1079 H1095 0.961 . S
C1080 C1081 1.370 . S
C1080 C1082 1.363 . S
C1080 H1096 0.931 . S
C1081 C1080 1.370 . S
C1081 C1085 1.408 1_454 S
C1082 C1080 1.363 . S
C1082 C1083 1.370 . S
C1082 C1086 1.524 . S
C1083 C1075 1.503 . S
C1083 C1082 1.370 . S
C1083 C1084 1.403 1_454 S
C1084 C1083 1.403 1_656 S
C1084 C1085 1.404 . S
C1084 C1087 1.539 . S
C1085 C1081 1.408 1_656 S
C1085 C1084 1.404 . S
C1085 H1097 0.930 . S
C1086 C1082 1.524 . S
C1086 H1098 0.956 . S
C1086 H1099 0.961 . S
C1086 H1100 0.961 . S
C1087 C1084 1.539 . S
C1087 H1101 0.958 . S
C1087 H1102 0.961 . S
C1087 H1103 0.960 . S
H1088 C1072 0.955 . S
H1089 C1077 0.929 . S
H1090 C1078 0.960 . S
H1091 C1078 0.962 . S
H1092 C1078 0.960 . S
H1093 C1079 0.961 . S
H1094 C1079 0.961 . S
H1095 C1079 0.961 . S
H1096 C1080 0.931 . S
H1097 C1085 0.930 . S
H1098 C1086 0.956 . S
H1099 C1086 0.961 . S
H1100 C1086 0.961 . S
H1101 C1087 0.958 . S
H1102 C1087 0.961 . S
H1103 C1087 0.960 . S
C1104 C1105 1.391 1_565 S
C1104 C1106 1.396 . S
C1104 H1120 0.931 . S
C1105 C1104 1.391 1_545 S
C1105 C1109 1.376 . S
C1106 C1104 1.396 . S
C1106 C1107 1.340 1_565 S
C1106 C1110 1.558 . S
C1107 C1106 1.340 1_545 S
C1107 C1108 1.410 . S
C1107 C1115 1.503 . S
C1108 C1107 1.410 . S
C1108 C1109 1.392 . S
C1108 C1111 1.511 . S
C1109 C1105 1.376 . S
C1109 C1108 1.392 . S
C1109 H1121 0.929 . S
C1110 C1106 1.558 . S
C1110 H1122 0.960 . S
C1110 H1123 0.962 . S
C1110 H1124 0.960 . S
C1111 C1108 1.511 . S
C1111 H1125 0.961 . S
C1111 H1126 0.961 . S
C1111 H1127 0.961 . S
C1112 C1113 1.370 . S
C1112 C1114 1.363 . S
C1112 H1128 0.916 1_545 S
C1113 C1112 1.370 . S
C1113 C1117 1.408 . S
C1114 C1112 1.363 . S
C1114 C1115 1.370 . S
C1114 C1118 1.524 1_545 S
C1115 C1107 1.503 . S
C1115 C1114 1.370 . S
C1115 C1116 1.403 . S
C1116 C1115 1.403 . S
C1116 C1117 1.404 . S
C1116 C1119 1.539 . S
C1117 C1113 1.408 . S
C1117 C1116 1.404 . S
C1117 H1129 0.930 . S
C1118 C1114 1.524 1_565 S
C1118 H1130 0.956 . S
C1118 H1131 0.961 1_565 S
C1118 H1132 0.961 . S
C1119 C1116 1.539 . S
C1119 H1133 0.958 . S
C1119 H1134 0.961 . S
C1119 H1135 0.960 . S
H1120 C1104 0.931 . S
H1121 C1109 0.929 . S
H1122 C1110 0.960 . S
H1123 C1110 0.962 . S
H1124 C1110 0.960 . S
H1125 C1111 0.961 . S
H1126 C1111 0.961 . S
H1127 C1111 0.961 . S
H1128 C1112 0.916 1_565 S
H1129 C1117 0.930 . S
H1130 C1118 0.956 . S
H1131 C1118 0.961 1_545 S
H1132 C1118 0.961 . S
H1133 C1119 0.958 . S
H1134 C1119 0.961 . S
H1135 C1119 0.960 . S
C1136 C1137 1.391 . S
C1136 C1138 1.394 . S
C1136 H1152 0.931 . S
C1137 C1136 1.391 . S
C1137 C1141 1.375 1_556 S
C1138 C1136 1.394 . S
C1138 C1139 1.369 . S
C1138 C1142 1.531 . S
C1139 C1138 1.369 . S
C1139 C1140 1.410 . S
C1139 C1147 1.503 . S
C1140 C1139 1.410 . S
C1140 C1141 1.392 1_556 S
C1140 C1143 1.511 1_556 S
C1141 C1137 1.375 1_554 S
C1141 C1140 1.392 1_554 S
C1141 H1153 0.930 . S
C1142 C1138 1.531 . S
C1142 H1154 0.960 . S
C1142 H1155 0.962 . S
C1142 H1156 0.960 . S
C1143 C1140 1.511 1_554 S
C1143 H1157 0.961 . S
C1143 H1158 0.961 . S
C1143 H1159 0.961 1_554 S
C1144 C1145 1.370 1_554 S
C1144 C1146 1.363 . S
C1144 H1160 0.931 . S
C1145 C1144 1.370 1_556 S
C1145 C1149 1.408 . S
C1146 C1144 1.363 . S
C1146 C1147 1.370 1_554 S
C1146 C1150 1.524 . S
C1147 C1139 1.503 . S
C1147 C1146 1.370 1_556 S
C1147 C1148 1.403 . S
C1148 C1147 1.403 . S
C1148 C1149 1.404 . S
C1148 C1151 1.539 . S
C1149 C1145 1.408 . S
C1149 C1148 1.404 . S
C1149 H1161 0.930 . S
C1150 C1146 1.524 . S
C1150 H1162 0.956 . S
C1150 H1163 0.961 . S
C1150 H1164 0.961 . S
C1151 C1148 1.539 . S
C1151 H1165 0.958 . S
C1151 H1166 0.961 . S
C1151 H1167 0.960 . S
H1152 C1136 0.931 . S
H1153 C1141 0.930 . S
H1154 C1142 0.960 . S
H1155 C1142 0.962 . S
H1156 C1142 0.960 . S
H1157 C1143 0.961 . S
H1158 C1143 0.961 . S
H1159 C1143 0.961 1_556 S
H1160 C1144 0.931 . S
H1161 C1149 0.930 . S
H1162 C1150 0.956 . S
H1163 C1150 0.961 . S
H1164 C1150 0.961 . S
H1165 C1151 0.958 . S
H1166 C1151 0.961 . S
H1167 C1151 0.960 . S
C1168 C1169 1.391 . S
C1168 C1170 1.394 . S
C1168 H1184 0.931 . S
C1169 C1168 1.391 . S
C1169 C1173 1.376 . S
C1170 C1168 1.394 . S
C1170 C1171 1.369 . S
C1170 C1174 1.531 . S
C1171 C1170 1.369 . S
C1171 C1172 1.410 . S
C1171 C1179 1.503 . S
C1172 C1171 1.410 . S
C1172 C1173 1.392 . S
C1172 C1175 1.511 . S
C1173 C1169 1.376 . S
C1173 C1172 1.392 . S
C1173 H1185 0.929 . S
C1174 C1170 1.531 . S
C1174 H1186 0.960 . S
C1174 H1187 0.962 . S
C1174 H1188 0.960 . S
C1175 C1172 1.511 . S
C1175 H1189 0.961 . S
C1175 H1190 0.961 . S
C1175 H1191 0.961 . S
C1176 C1177 1.370 . S
C1176 C1178 1.363 . S
C1176 H1192 0.931 . S
C1177 C1176 1.370 . S
C1177 C1181 1.408 . S
C1178 C1176 1.363 . S
C1178 C1179 1.370 . S
C1178 C1182 1.524 . S
C1179 C1171 1.503 . S
C1179 C1178 1.370 . S
C1179 C1180 1.403 . S
C1180 C1179 1.403 . S
C1180 C1181 1.404 . S
C1180 C1183 1.539 . S
C1181 C1177 1.408 . S
C1181 C1180 1.404 . S
C1181 H1193 0.930 . S
C1182 C1178 1.524 . S
C1182 H1194 0.956 . S
C1182 H1195 0.961 . S
C1182 H1196 0.961 . S
C1183 C1180 1.539 . S
C1183 H1197 0.958 . S
C1183 H1198 0.961 . S
C1183 H1199 0.960 . S
H1184 C1168 0.931 . S
H1185 C1173 0.929 . S
H1186 C1174 0.960 . S
H1187 C1174 0.962 . S
H1188 C1174 0.960 . S
H1189 C1175 0.961 . S
H1190 C1175 0.961 . S
H1191 C1175 0.961 . S
H1192 C1176 0.931 . S
H1193 C1181 0.930 . S
H1194 C1182 0.956 . S
H1195 C1182 0.961 . S
H1196 C1182 0.961 . S
H1197 C1183 0.958 . S
H1198 C1183 0.961 . S
H1199 C1183 0.960 . S
C1200 C1201 1.391 . S
C1200 C1202 1.394 . S
C1200 H1216 0.931 . S
C1201 C1200 1.391 . S
C1201 C1205 1.376 . S
C1202 C1200 1.394 . S
C1202 C1203 1.369 . S
C1202 C1206 1.531 . S
C1203 C1202 1.369 . S
C1203 C1204 1.410 . S
C1203 C1211 1.503 . S
C1204 C1203 1.410 . S
C1204 C1205 1.392 . S
C1204 C1207 1.511 . S
C1205 C1201 1.376 . S
C1205 C1204 1.392 . S
C1205 H1217 0.929 . S
C1206 C1202 1.531 . S
C1206 H1218 0.960 . S
C1206 H1219 0.962 . S
C1206 H1220 0.960 . S
C1207 C1204 1.511 . S
C1207 H1221 0.961 . S
C1207 H1222 0.961 . S
C1207 H1223 0.961 . S
C1208 C1209 1.370 . S
C1208 C1210 1.363 . S
C1208 H1224 0.931 . S
C1209 C1208 1.370 . S
C1209 C1213 1.408 . S
C1210 C1208 1.363 . S
C1210 C1211 1.370 . S
C1210 C1214 1.524 . S
C1211 C1203 1.503 . S
C1211 C1210 1.370 . S
C1211 C1212 1.403 . S
C1212 C1211 1.403 . S
C1212 C1213 1.404 . S
C1212 C1215 1.539 . S
C1213 C1209 1.408 . S
C1213 C1212 1.404 . S
C1213 H1225 0.930 . S
C1214 C1210 1.524 . S
C1214 H1226 0.956 . S
C1214 H1227 0.961 . S
C1214 H1228 0.961 . S
C1215 C1212 1.539 . S
C1215 H1229 0.958 . S
C1215 H1230 0.961 . S
C1215 H1231 0.960 . S
H1216 C1200 0.931 . S
H1217 C1205 0.929 . S
H1218 C1206 0.960 . S
H1219 C1206 0.962 . S
H1220 C1206 0.960 . S
H1221 C1207 0.961 . S
H1222 C1207 0.961 . S
H1223 C1207 0.961 . S
H1224 C1208 0.931 . S
H1225 C1213 0.930 . S
H1226 C1214 0.956 . S
H1227 C1214 0.961 . S
H1228 C1214 0.961 . S
H1229 C1215 0.958 . S
H1230 C1215 0.961 . S
H1231 C1215 0.960 . S
C1232 C1233 1.391 . S
C1232 C1234 1.394 . S
C1232 H1248 0.931 . S
C1233 C1232 1.391 . S
C1233 C1237 1.376 . S
C1234 C1232 1.394 . S
C1234 C1235 1.369 . S
C1234 C1238 1.531 . S
C1235 C1234 1.369 . S
C1235 C1236 1.410 . S
C1235 C1243 1.503 . S
C1236 C1235 1.410 . S
C1236 C1237 1.392 . S
C1236 C1239 1.511 . S
C1237 C1233 1.376 . S
C1237 C1236 1.392 . S
C1237 H1249 0.929 . S
C1238 C1234 1.531 . S
C1238 H1250 0.960 . S
C1238 H1251 0.962 . S
C1238 H1252 0.960 . S
C1239 C1236 1.511 . S
C1239 H1253 0.961 . S
C1239 H1254 0.961 . S
C1239 H1255 0.961 . S
C1240 C1241 1.370 . S
C1240 C1242 1.363 . S
C1240 H1256 0.931 . S
C1241 C1240 1.370 . S
C1241 C1245 1.408 . S
C1242 C1240 1.363 . S
C1242 C1243 1.370 . S
C1242 C1246 1.524 . S
C1243 C1235 1.503 . S
C1243 C1242 1.370 . S
C1243 C1244 1.403 . S
C1244 C1243 1.403 . S
C1244 C1245 1.404 . S
C1244 C1247 1.539 . S
C1245 C1241 1.408 . S
C1245 C1244 1.404 . S
C1245 H1257 0.930 . S
C1246 C1242 1.524 . S
C1246 H1258 0.956 . S
C1246 H1259 0.961 . S
C1246 H1260 0.961 . S
C1247 C1244 1.539 . S
C1247 H1261 0.958 . S
C1247 H1262 0.961 . S
C1247 H1263 0.960 . S
H1248 C1232 0.931 . S
H1249 C1237 0.929 . S
H1250 C1238 0.960 . S
H1251 C1238 0.962 . S
H1252 C1238 0.960 . S
H1253 C1239 0.961 . S
H1254 C1239 0.961 . S
H1255 C1239 0.961 . S
H1256 C1240 0.931 . S
H1257 C1245 0.930 . S
H1258 C1246 0.956 . S
H1259 C1246 0.961 . S
H1260 C1246 0.961 . S
H1261 C1247 0.958 . S
H1262 C1247 0.961 . S
H1263 C1247 0.960 . S
C1264 C1265 1.391 . S
C1264 C1266 1.394 . S
C1264 H1280 0.931 . S
C1265 C1264 1.391 . S
C1265 C1269 1.376 . S
C1266 C1264 1.394 . S
C1266 C1267 1.369 . S
C1266 C1270 1.531 . S
C1267 C1266 1.369 . S
C1267 C1268 1.410 . S
C1267 C1275 1.503 . S
C1268 C1267 1.410 . S
C1268 C1269 1.392 . S
C1268 C1271 1.511 . S
C1269 C1265 1.376 . S
C1269 C1268 1.392 . S
C1269 H1281 0.929 . S
C1270 C1266 1.531 . S
C1270 H1282 0.960 . S
C1270 H1283 0.962 . S
C1270 H1284 0.960 . S
C1271 C1268 1.511 . S
C1271 H1285 0.961 . S
C1271 H1286 0.961 . S
C1271 H1287 0.961 . S
C1272 C1273 1.370 . S
C1272 C1274 1.363 . S
C1272 H1288 0.931 . S
C1273 C1272 1.370 . S
C1273 C1277 1.408 . S
C1274 C1272 1.363 . S
C1274 C1275 1.370 . S
C1274 C1278 1.524 . S
C1275 C1267 1.503 . S
C1275 C1274 1.370 . S
C1275 C1276 1.403 . S
C1276 C1275 1.403 . S
C1276 C1277 1.404 . S
C1276 C1279 1.539 . S
C1277 C1273 1.408 . S
C1277 C1276 1.404 . S
C1277 H1289 0.930 . S
C1278 C1274 1.524 . S
C1278 H1290 0.956 . S
C1278 H1291 0.961 . S
C1278 H1292 0.961 . S
C1279 C1276 1.539 . S
C1279 H1293 0.958 . S
C1279 H1294 0.961 . S
C1279 H1295 0.960 . S
H1280 C1264 0.931 . S
H1281 C1269 0.929 . S
H1282 C1270 0.960 . S
H1283 C1270 0.962 . S
H1284 C1270 0.960 . S
H1285 C1271 0.961 . S
H1286 C1271 0.961 . S
H1287 C1271 0.961 . S
H1288 C1272 0.931 . S
H1289 C1277 0.930 . S
H1290 C1278 0.956 . S
H1291 C1278 0.961 . S
H1292 C1278 0.961 . S
H1293 C1279 0.958 . S
H1294 C1279 0.961 . S
H1295 C1279 0.960 . S
C1296 C1297 1.391 . S
C1296 C1298 1.394 . S
C1296 H1312 0.931 . S
C1297 C1296 1.391 . S
C1297 C1301 1.376 . S
C1298 C1296 1.394 . S
C1298 C1299 1.369 . S
C1298 C1302 1.531 . S
C1299 C1298 1.369 . S
C1299 C1300 1.410 . S
C1299 C1307 1.503 . S
C1300 C1299 1.410 . S
C1300 C1301 1.392 . S
C1300 C1303 1.511 . S
C1301 C1297 1.376 . S
C1301 C1300 1.392 . S
C1301 H1313 0.929 . S
C1302 C1298 1.531 . S
C1302 H1314 0.960 . S
C1302 H1315 0.962 . S
C1302 H1316 0.960 . S
C1303 C1300 1.511 . S
C1303 H1317 0.961 . S
C1303 H1318 0.961 . S
C1303 H1319 0.961 . S
C1304 C1305 1.370 . S
C1304 C1306 1.363 . S
C1304 H1320 0.931 . S
C1305 C1304 1.370 . S
C1305 C1309 1.408 . S
C1306 C1304 1.363 . S
C1306 C1307 1.370 . S
C1306 C1310 1.524 . S
C1307 C1299 1.503 . S
C1307 C1306 1.370 . S
C1307 C1308 1.403 . S
C1308 C1307 1.403 . S
C1308 C1309 1.404 . S
C1308 C1311 1.539 . S
C1309 C1305 1.408 . S
C1309 C1308 1.404 . S
C1309 H1321 0.930 . S
C1310 C1306 1.524 . S
C1310 H1322 0.956 . S
C1310 H1323 0.961 . S
C1310 H1324 0.961 . S
C1311 C1308 1.539 . S
C1311 H1325 0.958 . S
C1311 H1326 0.961 . S
C1311 H1327 0.960 . S
H1312 C1296 0.931 . S
H1313 C1301 0.929 . S
H1314 C1302 0.960 . S
H1315 C1302 0.962 . S
H1316 C1302 0.960 . S
H1317 C1303 0.961 . S
H1318 C1303 0.961 . S
H1319 C1303 0.961 . S
H1320 C1304 0.931 . S
H1321 C1309 0.930 . S
H1322 C1310 0.956 . S
H1323 C1310 0.961 . S
H1324 C1310 0.961 . S
H1325 C1311 0.958 . S
H1326 C1311 0.961 . S
H1327 C1311 0.960 . S
C1328 C1329 1.391 . S
C1328 C1330 1.394 . S
C1328 H1344 0.931 . S
C1329 C1328 1.391 . S
C1329 C1333 1.376 . S
C1330 C1328 1.394 . S
C1330 C1331 1.369 . S
C1330 C1334 1.531 . S
C1331 C1330 1.369 . S
C1331 C1332 1.410 . S
C1331 C1339 1.503 . S
C1332 C1331 1.410 . S
C1332 C1333 1.392 . S
C1332 C1335 1.511 . S
C1333 C1329 1.376 . S
C1333 C1332 1.392 . S
C1333 H1345 0.929 . S
C1334 C1330 1.531 . S
C1334 H1346 0.960 . S
C1334 H1347 0.962 . S
C1334 H1348 0.960 . S
C1335 C1332 1.511 . S
C1335 H1349 0.961 . S
C1335 H1350 0.961 . S
C1335 H1351 0.961 . S
C1336 C1337 1.370 . S
C1336 C1338 1.363 . S
C1336 H1352 0.931 . S
C1337 C1336 1.370 . S
C1337 C1341 1.408 . S
C1338 C1336 1.363 . S
C1338 C1339 1.370 . S
C1338 C1342 1.524 . S
C1339 C1331 1.503 . S
C1339 C1338 1.370 . S
C1339 C1340 1.403 . S
C1340 C1339 1.403 . S
C1340 C1341 1.404 . S
C1340 C1343 1.539 . S
C1341 C1337 1.408 . S
C1341 C1340 1.404 . S
C1341 H1353 0.930 . S
C1342 C1338 1.524 . S
C1342 H1354 0.956 . S
C1342 H1355 0.961 . S
C1342 H1356 0.961 . S
C1343 C1340 1.539 . S
C1343 H1357 0.958 . S
C1343 H1358 0.962 . S
C1343 H1359 0.960 . S
H1344 C1328 0.931 . S
H1345 C1333 0.929 . S
H1346 C1334 0.960 . S
H1347 C1334 0.962 . S
H1348 C1334 0.960 . S
H1349 C1335 0.961 . S
H1350 C1335 0.961 . S
H1351 C1335 0.961 . S
H1352 C1336 0.931 . S
H1353 C1341 0.930 . S
H1354 C1342 0.956 . S
H1355 C1342 0.961 . S
H1356 C1342 0.961 . S
H1357 C1343 0.958 . S
H1358 C1343 0.962 . S
H1359 C1343 0.960 . S
C1360 C1361 1.391 . S
C1360 C1362 1.394 . S
C1360 H1376 0.931 . S
C1361 C1360 1.391 . S
C1361 C1365 1.376 . S
C1362 C1360 1.394 . S
C1362 C1363 1.369 . S
C1362 C1366 1.531 . S
C1363 C1362 1.369 . S
C1363 C1364 1.410 . S
C1363 C1371 1.503 . S
C1364 C1363 1.410 . S
C1364 C1365 1.392 . S
C1364 C1367 1.511 . S
C1365 C1361 1.376 . S
C1365 C1364 1.392 . S
C1365 H1377 0.929 . S
C1366 C1362 1.531 . S
C1366 H1378 0.960 . S
C1366 H1379 0.962 . S
C1366 H1380 0.960 . S
C1367 C1364 1.511 . S
C1367 H1381 0.961 . S
C1367 H1382 0.961 . S
C1367 H1383 0.961 . S
C1368 C1369 1.370 . S
C1368 C1370 1.363 . S
C1368 H1384 0.931 . S
C1369 C1368 1.370 . S
C1369 C1373 1.408 . S
C1370 C1368 1.363 . S
C1370 C1371 1.370 . S
C1370 C1374 1.524 . S
C1371 C1363 1.503 . S
C1371 C1370 1.370 . S
C1371 C1372 1.403 . S
C1372 C1371 1.403 . S
C1372 C1373 1.404 . S
C1372 C1375 1.539 . S
C1373 C1369 1.408 . S
C1373 C1372 1.404 . S
C1373 H1385 0.930 . S
C1374 C1370 1.524 . S
C1374 H1386 0.956 . S
C1374 H1387 0.961 . S
C1374 H1388 0.961 . S
C1375 C1372 1.539 . S
C1375 H1389 0.958 . S
C1375 H1390 0.961 1_545 S
C1375 H1391 0.960 . S
H1376 C1360 0.931 . S
H1377 C1365 0.929 . S
H1378 C1366 0.960 . S
H1379 C1366 0.962 . S
H1380 C1366 0.960 . S
H1381 C1367 0.961 . S
H1382 C1367 0.961 . S
H1383 C1367 0.961 . S
H1384 C1368 0.931 . S
H1385 C1373 0.930 . S
H1386 C1374 0.956 . S
H1387 C1374 0.961 . S
H1388 C1374 0.961 . S
H1389 C1375 0.958 . S
H1390 C1375 0.961 1_565 S
H1391 C1375 0.960 . S
C1392 C1393 1.391 . S
C1392 C1394 1.394 . S
C1392 H1408 0.931 . S
C1393 C1392 1.391 . S
C1393 C1397 1.376 . S
C1394 C1392 1.394 . S
C1394 C1395 1.369 . S
C1394 C1398 1.531 . S
C1395 C1394 1.369 . S
C1395 C1396 1.410 . S
C1395 C1403 1.503 . S
C1396 C1395 1.410 . S
C1396 C1397 1.392 . S
C1396 C1399 1.511 . S
C1397 C1393 1.376 . S
C1397 C1396 1.392 . S
C1397 H1409 0.929 . S
C1398 C1394 1.531 . S
C1398 H1410 0.960 . S
C1398 H1411 0.962 . S
C1398 H1412 0.960 . S
C1399 C1396 1.511 . S
C1399 H1413 0.961 . S
C1399 H1414 0.961 . S
C1399 H1415 0.961 . S
C1400 C1401 1.370 . S
C1400 C1402 1.363 . S
C1400 H1416 0.931 . S
C1401 C1400 1.370 . S
C1401 C1405 1.408 . S
C1402 C1400 1.363 . S
C1402 C1403 1.370 . S
C1402 C1406 1.524 . S
C1403 C1395 1.503 . S
C1403 C1402 1.370 . S
C1403 C1404 1.403 . S
C1404 C1403 1.403 . S
C1404 C1405 1.404 . S
C1404 C1407 1.539 . S
C1405 C1401 1.408 . S
C1405 C1404 1.404 . S
C1405 H1417 0.930 . S
C1406 C1402 1.524 . S
C1406 H1418 0.956 . S
C1406 H1419 0.961 . S
C1406 H1420 0.961 . S
C1407 C1404 1.539 . S
C1407 H1421 0.958 . S
C1407 H1422 0.961 . S
C1407 H1423 0.960 . S
H1408 C1392 0.931 . S
H1409 C1397 0.929 . S
H1410 C1398 0.960 . S
H1411 C1398 0.962 . S
H1412 C1398 0.960 . S
H1413 C1399 0.961 . S
H1414 C1399 0.961 . S
H1415 C1399 0.961 . S
H1416 C1400 0.931 . S
H1417 C1405 0.930 . S
H1418 C1406 0.956 . S
H1419 C1406 0.961 . S
H1420 C1406 0.961 . S
H1421 C1407 0.958 . S
H1422 C1407 0.961 . S
H1423 C1407 0.960 . S
C1424 C1425 1.391 . S
C1424 C1426 1.394 . S
C1424 H1440 0.931 . S
C1425 C1424 1.391 . S
C1425 C1429 1.376 . S
C1426 C1424 1.394 . S
C1426 C1427 1.369 . S
C1426 C1430 1.531 . S
C1427 C1426 1.369 . S
C1427 C1428 1.410 . S
C1427 C1435 1.503 . S
C1428 C1427 1.410 . S
C1428 C1429 1.392 . S
C1428 C1431 1.511 . S
C1429 C1425 1.376 . S
C1429 C1428 1.392 . S
C1429 H1441 0.929 . S
C1430 C1426 1.531 . S
C1430 H1442 0.960 . S
C1430 H1443 0.962 . S
C1430 H1444 0.960 . S
C1431 C1428 1.511 . S
C1431 H1445 0.961 . S
C1431 H1446 0.961 . S
C1431 H1447 0.961 . S
C1432 C1433 1.370 . S
C1432 C1434 1.363 . S
C1432 H1448 0.931 . S
C1433 C1432 1.370 . S
C1433 C1437 1.408 . S
C1434 C1432 1.363 . S
C1434 C1435 1.370 . S
C1434 C1438 1.524 . S
C1435 C1427 1.503 . S
C1435 C1434 1.370 . S
C1435 C1436 1.403 . S
C1436 C1435 1.403 . S
C1436 C1437 1.404 . S
C1436 C1439 1.539 . S
C1437 C1433 1.408 . S
C1437 C1436 1.404 . S
C1437 H1449 0.930 . S
C1438 C1434 1.524 . S
C1438 H1450 0.956 . S
C1438 H1451 0.961 . S
C1438 H1452 0.961 . S
C1439 C1436 1.539 . S
C1439 H1453 0.958 . S
C1439 H1454 0.961 . S
C1439 H1455 0.960 . S
H1440 C1424 0.931 . S
H1441 C1429 0.929 . S
H1442 C1430 0.960 . S
H1443 C1430 0.962 . S
H1444 C1430 0.960 . S
H1445 C1431 0.961 . S
H1446 C1431 0.961 . S
H1447 C1431 0.961 . S
H1448 C1432 0.931 . S
H1449 C1437 0.930 . S
H1450 C1438 0.956 . S
H1451 C1438 0.961 . S
H1452 C1438 0.961 . S
H1453 C1439 0.958 . S
H1454 C1439 0.961 . S
H1455 C1439 0.960 . S
C1456 C1457 1.391 . S
C1456 C1458 1.394 . S
C1456 H1472 0.931 . S
C1457 C1456 1.391 . S
C1457 C1461 1.376 . S
C1458 C1456 1.394 . S
C1458 C1459 1.369 . S
C1458 C1462 1.531 . S
C1459 C1458 1.369 . S
C1459 C1460 1.410 . S
C1459 C1467 1.503 . S
C1460 C1459 1.410 . S
C1460 C1461 1.392 . S
C1460 C1463 1.511 . S
C1461 C1457 1.376 . S
C1461 C1460 1.392 . S
C1461 H1473 0.929 . S
C1462 C1458 1.531 . S
C1462 H1474 0.960 . S
C1462 H1475 0.962 . S
C1462 H1476 0.960 . S
C1463 C1460 1.511 . S
C1463 H1477 0.961 . S
C1463 H1478 0.961 . S
C1463 H1479 0.961 . S
C1464 C1465 1.370 . S
C1464 C1466 1.363 . S
C1464 H1480 0.931 . S
C1465 C1464 1.370 . S
C1465 C1469 1.408 . S
C1466 C1464 1.363 . S
C1466 C1467 1.370 . S
C1466 C1470 1.524 . S
C1467 C1459 1.503 . S
C1467 C1466 1.370 . S
C1467 C1468 1.403 . S
C1468 C1467 1.403 . S
C1468 C1469 1.404 . S
C1468 C1471 1.539 . S
C1469 C1465 1.408 . S
C1469 C1468 1.404 . S
C1469 H1481 0.930 . S
C1470 C1466 1.524 . S
C1470 H1482 0.956 . S
C1470 H1483 0.961 . S
C1470 H1484 0.961 . S
C1471 C1468 1.539 . S
C1471 H1485 0.958 . S
C1471 H1486 0.961 . S
C1471 H1487 0.960 . S
H1472 C1456 0.931 . S
H1473 C1461 0.929 . S
H1474 C1462 0.960 . S
H1475 C1462 0.962 . S
H1476 C1462 0.960 . S
H1477 C1463 0.961 . S
H1478 C1463 0.961 . S
H1479 C1463 0.961 . S
H1480 C1464 0.931 . S
H1481 C1469 0.930 . S
H1482 C1470 0.956 . S
H1483 C1470 0.961 . S
H1484 C1470 0.961 . S
H1485 C1471 0.958 . S
H1486 C1471 0.961 . S
H1487 C1471 0.960 . S
C1488 C1489 1.391 . S
C1488 C1490 1.394 . S
C1488 H1504 0.931 . S
C1489 C1488 1.391 . S
C1489 C1493 1.376 . S
C1490 C1488 1.394 . S
C1490 C1491 1.369 . S
C1490 C1494 1.531 . S
C1491 C1490 1.369 . S
C1491 C1492 1.410 . S
C1491 C1499 1.503 . S
C1492 C1491 1.410 . S
C1492 C1493 1.392 . S
C1492 C1495 1.511 . S
C1493 C1489 1.376 . S
C1493 C1492 1.392 . S
C1493 H1505 0.929 . S
C1494 C1490 1.531 . S
C1494 H1506 0.960 . S
C1494 H1507 0.962 . S
C1494 H1508 0.960 . S
C1495 C1492 1.511 . S
C1495 H1509 0.961 . S
C1495 H1510 0.961 . S
C1495 H1511 0.961 . S
C1496 C1497 1.370 . S
C1496 C1498 1.363 . S
C1496 H1512 0.931 . S
C1497 C1496 1.370 . S
C1497 C1501 1.408 . S
C1498 C1496 1.363 . S
C1498 C1499 1.370 . S
C1498 C1502 1.524 . S
C1499 C1491 1.503 . S
C1499 C1498 1.370 . S
C1499 C1500 1.403 . S
C1500 C1499 1.403 . S
C1500 C1501 1.404 . S
C1500 C1503 1.539 . S
C1501 C1497 1.408 . S
C1501 C1500 1.404 . S
C1501 H1513 0.930 . S
C1502 C1498 1.524 . S
C1502 H1514 0.956 . S
C1502 H1515 0.961 . S
C1502 H1516 0.961 . S
C1503 C1500 1.539 . S
C1503 H1517 0.958 . S
C1503 H1518 0.961 . S
C1503 H1519 0.960 . S
H1504 C1488 0.931 . S
H1505 C1493 0.929 . S
H1506 C1494 0.960 . S
H1507 C1494 0.962 . S
H1508 C1494 0.960 . S
H1509 C1495 0.961 . S
H1510 C1495 0.961 . S
H1511 C1495 0.961 . S
H1512 C1496 0.931 . S
H1513 C1501 0.930 . S
H1514 C1502 0.956 . S
H1515 C1502 0.961 . S
H1516 C1502 0.961 . S
H1517 C1503 0.958 . S
H1518 C1503 0.961 . S
H1519 C1503 0.960 . S
C1520 C1521 1.391 . S
C1520 C1522 1.394 . S
C1520 H1536 0.931 . S
C1521 C1520 1.391 . S
C1521 C1525 1.376 . S
C1522 C1520 1.394 . S
C1522 C1523 1.369 . S
C1522 C1526 1.531 . S
C1523 C1522 1.369 . S
C1523 C1524 1.410 . S
C1523 C1531 1.503 . S
C1524 C1523 1.410 . S
C1524 C1525 1.392 . S
C1524 C1527 1.511 . S
C1525 C1521 1.376 . S
C1525 C1524 1.392 . S
C1525 H1537 0.929 . S
C1526 C1522 1.531 . S
C1526 H1538 0.960 . S
C1526 H1539 0.962 . S
C1526 H1540 0.960 . S
C1527 C1524 1.511 . S
C1527 H1541 0.961 . S
C1527 H1542 0.961 . S
C1527 H1543 0.961 . S
C1528 C1529 1.370 . S
C1528 C1530 1.363 . S
C1528 H1544 0.931 . S
C1529 C1528 1.370 . S
C1529 C1533 1.408 . S
C1530 C1528 1.363 . S
C1530 C1531 1.370 . S
C1530 C1534 1.524 . S
C1531 C1523 1.503 . S
C1531 C1530 1.370 . S
C1531 C1532 1.403 . S
C1532 C1531 1.403 . S
C1532 C1533 1.404 . S
C1532 C1535 1.539 . S
C1533 C1529 1.408 . S
C1533 C1532 1.404 . S
C1533 H1545 0.930 . S
C1534 C1530 1.524 . S
C1534 H1546 0.956 . S
C1534 H1547 0.961 . S
C1534 H1548 0.961 . S
C1535 C1532 1.539 . S
C1535 H1549 0.958 . S
C1535 H1550 0.961 . S
C1535 H1551 0.960 . S
H1536 C1520 0.931 . S
H1537 C1525 0.929 . S
H1538 C1526 0.960 . S
H1539 C1526 0.962 . S
H1540 C1526 0.960 . S
H1541 C1527 0.961 . S
H1542 C1527 0.961 . S
H1543 C1527 0.961 . S
H1544 C1528 0.931 . S
H1545 C1533 0.930 . S
H1546 C1534 0.956 . S
H1547 C1534 0.961 . S
H1548 C1534 0.961 . S
H1549 C1535 0.958 . S
H1550 C1535 0.961 . S
H1551 C1535 0.960 . S
C1552 C1553 1.391 . S
C1552 C1554 1.394 . S
C1552 H1568 0.931 . S
C1553 C1552 1.391 . S
C1553 C1557 1.376 . S
C1554 C1552 1.394 . S
C1554 C1555 1.369 . S
C1554 C1558 1.531 . S
C1555 C1554 1.369 . S
C1555 C1556 1.410 . S
C1555 C1563 1.503 . S
C1556 C1555 1.410 . S
C1556 C1557 1.392 . S
C1556 C1559 1.511 . S
C1557 C1553 1.376 . S
C1557 C1556 1.392 . S
C1557 H1569 0.929 . S
C1558 C1554 1.531 . S
C1558 H1570 0.960 . S
C1558 H1571 0.962 . S
C1558 H1572 0.960 . S
C1559 C1556 1.511 . S
C1559 H1573 0.961 . S
C1559 H1574 0.961 . S
C1559 H1575 0.961 . S
C1560 C1561 1.370 . S
C1560 C1562 1.363 . S
C1560 H1576 0.931 . S
C1561 C1560 1.370 . S
C1561 C1565 1.408 . S
C1562 C1560 1.363 . S
C1562 C1563 1.370 . S
C1562 C1566 1.524 . S
C1563 C1555 1.503 . S
C1563 C1562 1.370 . S
C1563 C1564 1.403 . S
C1564 C1563 1.403 . S
C1564 C1565 1.404 . S
C1564 C1567 1.539 . S
C1565 C1561 1.408 . S
C1565 C1564 1.404 . S
C1565 H1577 0.930 . S
C1566 C1562 1.524 . S
C1566 H1578 0.956 . S
C1566 H1579 0.961 . S
C1566 H1580 0.961 . S
C1567 C1564 1.539 . S
C1567 H1581 0.958 . S
C1567 H1582 0.961 . S
C1567 H1583 0.960 . S
H1568 C1552 0.931 . S
H1569 C1557 0.929 . S
H1570 C1558 0.960 . S
H1571 C1558 0.962 . S
H1572 C1558 0.960 . S
H1573 C1559 0.961 . S
H1574 C1559 0.961 . S
H1575 C1559 0.961 . S
H1576 C1560 0.931 . S
H1577 C1565 0.930 . S
H1578 C1566 0.956 . S
H1579 C1566 0.961 . S
H1580 C1566 0.961 . S
H1581 C1567 0.958 . S
H1582 C1567 0.961 . S
H1583 C1567 0.960 . S
C1584 C1585 1.391 . S
C1584 C1586 1.394 . S
C1584 H1600 0.931 . S
C1585 C1584 1.391 . S
C1585 C1589 1.376 . S
C1586 C1584 1.394 . S
C1586 C1587 1.369 . S
C1586 C1590 1.531 . S
C1587 C1586 1.369 . S
C1587 C1588 1.410 . S
C1587 C1595 1.503 . S
C1588 C1587 1.410 . S
C1588 C1589 1.392 . S
C1588 C1591 1.511 . S
C1589 C1585 1.376 . S
C1589 C1588 1.392 . S
C1589 H1601 0.929 . S
C1590 C1586 1.531 . S
C1590 H1602 0.960 . S
C1590 H1603 0.962 . S
C1590 H1604 0.960 . S
C1591 C1588 1.511 . S
C1591 H1605 0.961 . S
C1591 H1606 0.961 . S
C1591 H1607 0.961 . S
C1592 C1593 1.370 . S
C1592 C1594 1.363 . S
C1592 H1608 0.931 . S
C1593 C1592 1.370 . S
C1593 C1597 1.408 . S
C1594 C1592 1.363 . S
C1594 C1595 1.370 . S
C1594 C1598 1.524 . S
C1595 C1587 1.503 . S
C1595 C1594 1.370 . S
C1595 C1596 1.403 . S
C1596 C1595 1.403 . S
C1596 C1597 1.404 . S
C1596 C1599 1.539 . S
C1597 C1593 1.408 . S
C1597 C1596 1.404 . S
C1597 H1609 0.930 . S
C1598 C1594 1.524 . S
C1598 H1610 0.956 . S
C1598 H1611 0.961 . S
C1598 H1612 0.961 . S
C1599 C1596 1.539 . S
C1599 H1613 0.958 . S
C1599 H1614 0.961 . S
C1599 H1615 0.960 . S
H1600 C1584 0.931 . S
H1601 C1589 0.929 . S
H1602 C1590 0.960 . S
H1603 C1590 0.962 . S
H1604 C1590 0.960 . S
H1605 C1591 0.961 . S
H1606 C1591 0.961 . S
H1607 C1591 0.961 . S
H1608 C1592 0.931 . S
H1609 C1597 0.930 . S
H1610 C1598 0.956 . S
H1611 C1598 0.961 . S
H1612 C1598 0.961 . S
H1613 C1599 0.958 . S
H1614 C1599 0.961 . S
H1615 C1599 0.960 . S
C1616 C1617 1.391 . S
C1616 C1618 1.394 . S
C1616 H1632 0.931 . S
C1617 C1616 1.391 . S
C1617 C1621 1.376 . S
C1618 C1616 1.394 . S
C1618 C1619 1.369 . S
C1618 C1622 1.531 . S
C1619 C1618 1.369 . S
C1619 C1620 1.410 . S
C1619 C1627 1.503 . S
C1620 C1619 1.410 . S
C1620 C1621 1.392 . S
C1620 C1623 1.511 . S
C1621 C1617 1.376 . S
C1621 C1620 1.392 . S
C1621 H1633 0.929 . S
C1622 C1618 1.531 . S
C1622 H1634 0.960 . S
C1622 H1635 0.962 . S
C1622 H1636 0.960 . S
C1623 C1620 1.511 . S
C1623 H1637 0.961 . S
C1623 H1638 0.961 . S
C1623 H1639 0.961 . S
C1624 C1625 1.370 . S
C1624 C1626 1.363 . S
C1624 H1640 0.931 . S
C1625 C1624 1.370 . S
C1625 C1629 1.408 . S
C1626 C1624 1.363 . S
C1626 C1627 1.370 . S
C1626 C1630 1.524 . S
C1627 C1619 1.503 . S
C1627 C1626 1.370 . S
C1627 C1628 1.403 . S
C1628 C1627 1.403 . S
C1628 C1629 1.404 . S
C1628 C1631 1.539 . S
C1629 C1625 1.408 . S
C1629 C1628 1.404 . S
C1629 H1641 0.930 . S
C1630 C1626 1.524 . S
C1630 H1642 0.956 . S
C1630 H1643 0.961 . S
C1630 H1644 0.961 . S
C1631 C1628 1.539 . S
C1631 H1645 0.958 . S
C1631 H1646 0.961 . S
C1631 H1647 0.960 . S
H1632 C1616 0.931 . S
H1633 C1621 0.929 . S
H1634 C1622 0.960 . S
H1635 C1622 0.962 . S
H1636 C1622 0.960 . S
H1637 C1623 0.961 . S
H1638 C1623 0.961 . S
H1639 C1623 0.961 . S
H1640 C1624 0.931 . S
H1641 C1629 0.930 . S
H1642 C1630 0.956 . S
H1643 C1630 0.961 . S
H1644 C1630 0.961 . S
H1645 C1631 0.958 . S
H1646 C1631 0.961 . S
H1647 C1631 0.960 . S
C1648 C1649 1.391 . S
C1648 C1650 1.394 . S
C1648 H1664 0.931 . S
C1649 C1648 1.391 . S
C1649 C1653 1.376 . S
C1650 C1648 1.394 . S
C1650 C1651 1.369 . S
C1650 C1654 1.531 . S
C1651 C1650 1.369 . S
C1651 C1652 1.410 . S
C1651 C1659 1.503 . S
C1652 C1651 1.410 . S
C1652 C1653 1.392 . S
C1652 C1655 1.511 . S
C1653 C1649 1.376 . S
C1653 C1652 1.392 . S
C1653 H1665 0.929 . S
C1654 C1650 1.531 . S
C1654 H1666 0.960 . S
C1654 H1667 0.962 . S
C1654 H1668 0.960 . S
C1655 C1652 1.511 . S
C1655 H1669 0.961 . S
C1655 H1670 0.961 . S
C1655 H1671 0.961 . S
C1656 C1657 1.370 . S
C1656 C1658 1.363 . S
C1656 H1672 0.931 . S
C1657 C1656 1.370 . S
C1657 C1661 1.408 . S
C1658 C1656 1.363 . S
C1658 C1659 1.370 . S
C1658 C1662 1.524 . S
C1659 C1651 1.503 . S
C1659 C1658 1.370 . S
C1659 C1660 1.403 . S
C1660 C1659 1.403 . S
C1660 C1661 1.404 . S
C1660 C1663 1.539 . S
C1661 C1657 1.408 . S
C1661 C1660 1.404 . S
C1661 H1673 0.930 . S
C1662 C1658 1.524 . S
C1662 H1674 0.956 . S
C1662 H1675 0.961 . S
C1662 H1676 0.961 . S
C1663 C1660 1.539 . S
C1663 H1677 0.958 . S
C1663 H1678 0.961 . S
C1663 H1679 0.960 . S
H1664 C1648 0.931 . S
H1665 C1653 0.929 . S
H1666 C1654 0.960 . S
H1667 C1654 0.962 . S
H1668 C1654 0.960 . S
H1669 C1655 0.961 . S
H1670 C1655 0.961 . S
H1671 C1655 0.961 . S
H1672 C1656 0.931 . S
H1673 C1661 0.930 . S
H1674 C1662 0.956 . S
H1675 C1662 0.961 . S
H1676 C1662 0.961 . S
H1677 C1663 0.958 . S
H1678 C1663 0.961 . S
H1679 C1663 0.960 . S
C1680 C1681 1.391 . S
C1680 C1682 1.394 . S
C1680 H1696 0.931 . S
C1681 C1680 1.391 . S
C1681 C1685 1.376 . S
C1682 C1680 1.394 . S
C1682 C1683 1.369 . S
C1682 C1686 1.531 . S
C1683 C1682 1.369 . S
C1683 C1684 1.410 . S
C1683 C1691 1.503 . S
C1684 C1683 1.410 . S
C1684 C1685 1.392 . S
C1684 C1687 1.511 . S
C1685 C1681 1.376 . S
C1685 C1684 1.392 . S
C1685 H1697 0.929 . S
C1686 C1682 1.531 . S
C1686 H1698 0.960 . S
C1686 H1699 0.962 . S
C1686 H1700 0.960 . S
C1687 C1684 1.511 . S
C1687 H1701 0.961 . S
C1687 H1702 0.961 . S
C1687 H1703 0.961 . S
C1688 C1689 1.370 . S
C1688 C1690 1.363 . S
C1688 H1704 0.931 . S
C1689 C1688 1.370 . S
C1689 C1693 1.408 . S
C1690 C1688 1.363 . S
C1690 C1691 1.370 . S
C1690 C1694 1.524 . S
C1691 C1683 1.503 . S
C1691 C1690 1.370 . S
C1691 C1692 1.403 . S
C1692 C1691 1.403 . S
C1692 C1693 1.404 . S
C1692 C1695 1.539 . S
C1693 C1689 1.408 . S
C1693 C1692 1.404 . S
C1693 H1705 0.930 . S
C1694 C1690 1.524 . S
C1694 H1706 0.956 . S
C1694 H1707 0.961 . S
C1694 H1708 0.961 . S
C1695 C1692 1.539 . S
C1695 H1709 0.958 . S
C1695 H1710 0.961 . S
C1695 H1711 0.960 . S
H1696 C1680 0.931 . S
H1697 C1685 0.929 . S
H1698 C1686 0.960 . S
H1699 C1686 0.962 . S
H1700 C1686 0.960 . S
H1701 C1687 0.961 . S
H1702 C1687 0.961 . S
H1703 C1687 0.961 . S
H1704 C1688 0.931 . S
H1705 C1693 0.930 . S
H1706 C1694 0.956 . S
H1707 C1694 0.961 . S
H1708 C1694 0.961 . S
H1709 C1695 0.958 . S
H1710 C1695 0.961 . S
H1711 C1695 0.960 . S
C1712 C1713 1.391 . S
C1712 C1714 1.394 . S
C1712 H1728 0.931 . S
C1713 C1712 1.391 . S
C1713 C1717 1.376 . S
C1714 C1712 1.394 . S
C1714 C1715 1.369 . S
C1714 C1718 1.531 . S
C1715 C1714 1.369 . S
C1715 C1716 1.410 . S
C1715 C1723 1.503 . S
C1716 C1715 1.410 . S
C1716 C1717 1.392 . S
C1716 C1719 1.511 . S
C1717 C1713 1.376 . S
C1717 C1716 1.392 . S
C1717 H1729 0.929 . S
C1718 C1714 1.531 . S
C1718 H1730 0.960 . S
C1718 H1731 0.962 . S
C1718 H1732 0.960 . S
C1719 C1716 1.511 . S
C1719 H1733 0.961 . S
C1719 H1734 0.961 . S
C1719 H1735 0.961 . S
C1720 C1721 1.370 . S
C1720 C1722 1.363 . S
C1720 H1736 0.931 . S
C1721 C1720 1.370 . S
C1721 C1725 1.408 . S
C1722 C1720 1.363 . S
C1722 C1723 1.370 . S
C1722 C1726 1.524 . S
C1723 C1715 1.503 . S
C1723 C1722 1.370 . S
C1723 C1724 1.403 . S
C1724 C1723 1.403 . S
C1724 C1725 1.404 . S
C1724 C1727 1.539 . S
C1725 C1721 1.408 . S
C1725 C1724 1.404 . S
C1725 H1737 0.930 . S
C1726 C1722 1.524 . S
C1726 H1738 0.956 . S
C1726 H1739 0.961 . S
C1726 H1740 0.961 . S
C1727 C1724 1.539 . S
C1727 H1741 0.958 . S
C1727 H1742 0.961 . S
C1727 H1743 0.960 . S
H1728 C1712 0.931 . S
H1729 C1717 0.929 . S
H1730 C1718 0.960 . S
H1731 C1718 0.962 . S
H1732 C1718 0.960 . S
H1733 C1719 0.961 . S
H1734 C1719 0.961 . S
H1735 C1719 0.961 . S
H1736 C1720 0.931 . S
H1737 C1725 0.930 . S
H1738 C1726 0.956 . S
H1739 C1726 0.961 . S
H1740 C1726 0.961 . S
H1741 C1727 0.958 . S
H1742 C1727 0.961 . S
H1743 C1727 0.960 . S
C1744 C1745 1.391 . S
C1744 C1746 1.394 . S
C1744 H1760 0.931 . S
C1745 C1744 1.391 . S
C1745 C1749 1.376 . S
C1746 C1744 1.394 . S
C1746 C1747 1.369 . S
C1746 C1750 1.531 . S
C1747 C1746 1.369 . S
C1747 C1748 1.410 . S
C1747 C1755 1.503 . S
C1748 C1747 1.410 . S
C1748 C1749 1.392 . S
C1748 C1751 1.511 . S
C1749 C1745 1.376 . S
C1749 C1748 1.392 . S
C1749 H1761 0.929 . S
C1750 C1746 1.531 . S
C1750 H1762 0.960 . S
C1750 H1763 0.962 . S
C1750 H1764 0.960 . S
C1751 C1748 1.511 . S
C1751 H1765 0.961 . S
C1751 H1766 0.961 . S
C1751 H1767 0.961 . S
C1752 C1753 1.370 . S
C1752 C1754 1.363 . S
C1752 H1768 0.931 . S
C1753 C1752 1.370 . S
C1753 C1757 1.408 . S
C1754 C1752 1.363 . S
C1754 C1755 1.370 . S
C1754 C1758 1.524 . S
C1755 C1747 1.503 . S
C1755 C1754 1.370 . S
C1755 C1756 1.403 . S
C1756 C1755 1.403 . S
C1756 C1757 1.404 . S
C1756 C1759 1.539 . S
C1757 C1753 1.408 . S
C1757 C1756 1.404 . S
C1757 H1769 0.930 . S
C1758 C1754 1.524 . S
C1758 H1770 0.956 . S
C1758 H1771 0.961 . S
C1758 H1772 0.961 . S
C1759 C1756 1.539 . S
C1759 H1773 0.958 . S
C1759 H1774 0.961 . S
C1759 H1775 0.960 . S
H1760 C1744 0.931 . S
H1761 C1749 0.929 . S
H1762 C1750 0.960 . S
H1763 C1750 0.962 . S
H1764 C1750 0.960 . S
H1765 C1751 0.961 . S
H1766 C1751 0.961 . S
H1767 C1751 0.961 . S
H1768 C1752 0.931 . S
H1769 C1757 0.930 . S
H1770 C1758 0.956 . S
H1771 C1758 0.961 . S
H1772 C1758 0.961 . S
H1773 C1759 0.958 . S
H1774 C1759 0.961 . S
H1775 C1759 0.960 . S
C1776 C1777 1.391 . S
C1776 C1778 1.394 . S
C1776 H1792 0.931 . S
C1777 C1776 1.391 . S
C1777 C1781 1.376 . S
C1778 C1776 1.394 . S
C1778 C1779 1.369 . S
C1778 C1782 1.531 . S
C1779 C1778 1.369 . S
C1779 C1780 1.410 . S
C1779 C1787 1.503 . S
C1780 C1779 1.410 . S
C1780 C1781 1.392 . S
C1780 C1783 1.511 . S
C1781 C1777 1.376 . S
C1781 C1780 1.392 . S
C1781 H1793 0.929 . S
C1782 C1778 1.531 . S
C1782 H1794 0.960 . S
C1782 H1795 0.962 . S
C1782 H1796 0.960 . S
C1783 C1780 1.511 . S
C1783 H1797 0.961 . S
C1783 H1798 0.961 . S
C1783 H1799 0.961 . S
C1784 C1785 1.370 . S
C1784 C1786 1.363 . S
C1784 H1800 0.931 . S
C1785 C1784 1.370 . S
C1785 C1789 1.408 . S
C1786 C1784 1.363 . S
C1786 C1787 1.370 . S
C1786 C1790 1.524 . S
C1787 C1779 1.503 . S
C1787 C1786 1.370 . S
C1787 C1788 1.403 . S
C1788 C1787 1.403 . S
C1788 C1789 1.404 . S
C1788 C1791 1.539 . S
C1789 C1785 1.408 . S
C1789 C1788 1.404 . S
C1789 H1801 0.930 . S
C1790 C1786 1.524 . S
C1790 H1802 0.956 . S
C1790 H1803 0.961 . S
C1790 H1804 0.961 . S
C1791 C1788 1.539 . S
C1791 H1805 0.958 . S
C1791 H1806 0.961 . S
C1791 H1807 0.960 . S
H1792 C1776 0.931 . S
H1793 C1781 0.929 . S
H1794 C1782 0.960 . S
H1795 C1782 0.962 . S
H1796 C1782 0.960 . S
H1797 C1783 0.961 . S
H1798 C1783 0.961 . S
H1799 C1783 0.961 . S
H1800 C1784 0.931 . S
H1801 C1789 0.930 . S
H1802 C1790 0.956 . S
H1803 C1790 0.961 . S
H1804 C1790 0.961 . S
H1805 C1791 0.958 . S
H1806 C1791 0.961 . S
H1807 C1791 0.960 . S
C1808 C1809 1.391 . S
C1808 C1810 1.394 . S
C1808 H1824 0.931 . S
C1809 C1808 1.391 . S
C1809 C1813 1.376 . S
C1810 C1808 1.394 . S
C1810 C1811 1.369 . S
C1810 C1814 1.531 . S
C1811 C1810 1.369 . S
C1811 C1812 1.410 . S
C1811 C1819 1.503 . S
C1812 C1811 1.410 . S
C1812 C1813 1.392 . S
C1812 C1815 1.511 . S
C1813 C1809 1.376 . S
C1813 C1812 1.392 . S
C1813 H1825 0.929 . S
C1814 C1810 1.531 . S
C1814 H1826 0.960 . S
C1814 H1827 0.962 . S
C1814 H1828 0.960 . S
C1815 C1812 1.511 . S
C1815 H1829 0.961 . S
C1815 H1830 0.961 . S
C1815 H1831 0.961 . S
C1816 C1817 1.370 . S
C1816 C1818 1.363 . S
C1816 H1832 0.931 . S
C1817 C1816 1.370 . S
C1817 C1821 1.408 . S
C1818 C1816 1.363 . S
C1818 C1819 1.370 . S
C1818 C1822 1.524 . S
C1819 C1811 1.503 . S
C1819 C1818 1.370 . S
C1819 C1820 1.403 . S
C1820 C1819 1.403 . S
C1820 C1821 1.404 . S
C1820 C1823 1.539 . S
C1821 C1817 1.408 . S
C1821 C1820 1.404 . S
C1821 H1833 0.930 . S
C1822 C1818 1.524 . S
C1822 H1834 0.956 . S
C1822 H1835 0.961 . S
C1822 H1836 0.961 . S
C1823 C1820 1.539 . S
C1823 H1837 0.958 . S
C1823 H1838 0.961 . S
C1823 H1839 0.960 . S
H1824 C1808 0.931 . S
H1825 C1813 0.929 . S
H1826 C1814 0.960 . S
H1827 C1814 0.962 . S
H1828 C1814 0.960 . S
H1829 C1815 0.961 . S
H1830 C1815 0.961 . S
H1831 C1815 0.961 . S
H1832 C1816 0.931 . S
H1833 C1821 0.930 . S
H1834 C1822 0.956 . S
H1835 C1822 0.961 . S
H1836 C1822 0.961 . S
H1837 C1823 0.958 . S
H1838 C1823 0.961 . S
H1839 C1823 0.960 . S
C1840 C1841 1.391 . S
C1840 C1842 1.394 . S
C1840 H1856 0.931 . S
C1841 C1840 1.391 . S
C1841 C1845 1.376 . S
C1842 C1840 1.394 . S
C1842 C1843 1.369 . S
C1842 C1846 1.531 . S
C1843 C1842 1.369 . S
C1843 C1844 1.410 . S
C1843 C1851 1.503 . S
C1844 C1843 1.410 . S
C1844 C1845 1.392 . S
C1844 C1847 1.511 . S
C1845 C1841 1.376 . S
C1845 C1844 1.392 . S
C1845 H1857 0.929 . S
C1846 C1842 1.531 . S
C1846 H1858 0.960 . S
C1846 H1859 0.962 . S
C1846 H1860 0.960 . S
C1847 C1844 1.511 . S
C1847 H1861 0.961 . S
C1847 H1862 0.961 . S
C1847 H1863 0.961 . S
C1848 C1849 1.370 . S
C1848 C1850 1.363 . S
C1848 H1864 0.931 . S
C1849 C1848 1.370 . S
C1849 C1853 1.408 . S
C1850 C1848 1.363 . S
C1850 C1851 1.370 . S
C1850 C1854 1.524 . S
C1851 C1843 1.503 . S
C1851 C1850 1.370 . S
C1851 C1852 1.403 . S
C1852 C1851 1.403 . S
C1852 C1853 1.404 . S
C1852 C1855 1.539 . S
C1853 C1849 1.408 . S
C1853 C1852 1.404 . S
C1853 H1865 0.930 . S
C1854 C1850 1.524 . S
C1854 H1866 0.956 . S
C1854 H1867 0.961 . S
C1854 H1868 0.961 . S
C1855 C1852 1.539 . S
C1855 H1869 0.958 . S
C1855 H1870 0.961 . S
C1855 H1871 0.960 . S
H1856 C1840 0.931 . S
H1857 C1845 0.929 . S
H1858 C1846 0.960 . S
H1859 C1846 0.962 . S
H1860 C1846 0.960 . S
H1861 C1847 0.961 . S
H1862 C1847 0.961 . S
H1863 C1847 0.961 . S
H1864 C1848 0.931 . S
H1865 C1853 0.930 . S
H1866 C1854 0.956 . S
H1867 C1854 0.961 . S
H1868 C1854 0.961 . S
H1869 C1855 0.958 . S
H1870 C1855 0.961 . S
H1871 C1855 0.960 . S
C1872 C1873 1.391 . S
C1872 C1874 1.394 . S
C1872 H1888 0.931 . S
C1873 C1872 1.391 . S
C1873 C1877 1.376 . S
C1874 C1872 1.394 . S
C1874 C1875 1.369 . S
C1874 C1878 1.531 . S
C1875 C1874 1.369 . S
C1875 C1876 1.410 . S
C1875 C1883 1.503 . S
C1876 C1875 1.410 . S
C1876 C1877 1.392 . S
C1876 C1879 1.511 . S
C1877 C1873 1.376 . S
C1877 C1876 1.392 . S
C1877 H1889 0.929 . S
C1878 C1874 1.531 . S
C1878 H1890 0.960 . S
C1878 H1891 0.962 . S
C1878 H1892 0.960 . S
C1879 C1876 1.511 . S
C1879 H1893 0.961 . S
C1879 H1894 0.961 . S
C1879 H1895 0.961 . S
C1880 C1881 1.370 . S
C1880 C1882 1.363 . S
C1880 H1896 0.931 . S
C1881 C1880 1.370 . S
C1881 C1885 1.408 . S
C1882 C1880 1.363 . S
C1882 C1883 1.370 . S
C1882 C1886 1.524 . S
C1883 C1875 1.503 . S
C1883 C1882 1.370 . S
C1883 C1884 1.403 . S
C1884 C1883 1.403 . S
C1884 C1885 1.404 . S
C1884 C1887 1.539 . S
C1885 C1881 1.408 . S
C1885 C1884 1.404 . S
C1885 H1897 0.930 . S
C1886 C1882 1.524 . S
C1886 H1898 0.956 . S
C1886 H1899 0.961 . S
C1886 H1900 0.961 . S
C1887 C1884 1.539 . S
C1887 H1901 0.958 . S
C1887 H1902 0.961 . S
C1887 H1903 0.960 . S
H1888 C1872 0.931 . S
H1889 C1877 0.929 . S
H1890 C1878 0.960 . S
H1891 C1878 0.962 . S
H1892 C1878 0.960 . S
H1893 C1879 0.961 . S
H1894 C1879 0.961 . S
H1895 C1879 0.961 . S
H1896 C1880 0.931 . S
H1897 C1885 0.930 . S
H1898 C1886 0.956 . S
H1899 C1886 0.961 . S
H1900 C1886 0.961 . S
H1901 C1887 0.958 . S
H1902 C1887 0.961 . S
H1903 C1887 0.960 . S
C1904 C1905 1.391 . S
C1904 C1906 1.394 . S
C1904 H1920 0.931 . S
C1905 C1904 1.391 . S
C1905 C1909 1.376 . S
C1906 C1904 1.394 . S
C1906 C1907 1.369 . S
C1906 C1910 1.531 . S
C1907 C1906 1.369 . S
C1907 C1908 1.410 . S
C1907 C1915 1.503 . S
C1908 C1907 1.410 . S
C1908 C1909 1.392 . S
C1908 C1911 1.511 . S
C1909 C1905 1.376 . S
C1909 C1908 1.392 . S
C1909 H1921 0.929 . S
C1910 C1906 1.531 . S
C1910 H1922 0.960 . S
C1910 H1923 0.962 . S
C1910 H1924 0.960 . S
C1911 C1908 1.511 . S
C1911 H1925 0.961 . S
C1911 H1926 0.961 . S
C1911 H1927 0.961 . S
C1912 C1913 1.370 . S
C1912 C1914 1.363 . S
C1912 H1928 0.931 . S
C1913 C1912 1.370 . S
C1913 C1917 1.408 . S
C1914 C1912 1.363 . S
C1914 C1915 1.370 . S
C1914 C1918 1.524 . S
C1915 C1907 1.503 . S
C1915 C1914 1.370 . S
C1915 C1916 1.403 . S
C1916 C1915 1.403 . S
C1916 C1917 1.404 . S
C1916 C1919 1.539 . S
C1917 C1913 1.408 . S
C1917 C1916 1.404 . S
C1917 H1929 0.930 . S
C1918 C1914 1.524 . S
C1918 H1930 0.956 . S
C1918 H1931 0.961 . S
C1918 H1932 0.961 . S
C1919 C1916 1.539 . S
C1919 H1933 0.958 . S
C1919 H1934 0.961 . S
C1919 H1935 0.960 . S
H1920 C1904 0.931 . S
H1921 C1909 0.929 . S
H1922 C1910 0.960 . S
H1923 C1910 0.962 . S
H1924 C1910 0.960 . S
H1925 C1911 0.961 . S
H1926 C1911 0.961 . S
H1927 C1911 0.961 . S
H1928 C1912 0.931 . S
H1929 C1917 0.930 . S
H1930 C1918 0.956 . S
H1931 C1918 0.961 . S
H1932 C1918 0.961 . S
H1933 C1919 0.958 . S
H1934 C1919 0.961 . S
H1935 C1919 0.960 . S
C1936 C1937 1.391 . S
C1936 C1938 1.394 . S
C1936 H1952 0.931 . S
C1937 C1936 1.391 . S
C1937 C1941 1.376 . S
C1938 C1936 1.394 . S
C1938 C1939 1.369 . S
C1938 C1942 1.531 . S
C1939 C1938 1.369 . S
C1939 C1940 1.410 . S
C1939 C1947 1.503 . S
C1940 C1939 1.410 . S
C1940 C1941 1.392 . S
C1940 C1943 1.511 . S
C1941 C1937 1.376 . S
C1941 C1940 1.392 . S
C1941 H1953 0.929 . S
C1942 C1938 1.531 . S
C1942 H1954 0.960 . S
C1942 H1955 0.962 . S
C1942 H1956 0.960 . S
C1943 C1940 1.511 . S
C1943 H1957 0.961 . S
C1943 H1958 0.961 . S
C1943 H1959 0.961 . S
C1944 C1945 1.370 . S
C1944 C1946 1.363 . S
C1944 H1960 0.931 . S
C1945 C1944 1.370 . S
C1945 C1949 1.408 . S
C1946 C1944 1.363 . S
C1946 C1947 1.370 . S
C1946 C1950 1.524 . S
C1947 C1939 1.503 . S
C1947 C1946 1.370 . S
C1947 C1948 1.403 . S
C1948 C1947 1.403 . S
C1948 C1949 1.404 . S
C1948 C1951 1.539 . S
C1949 C1945 1.408 . S
C1949 C1948 1.404 . S
C1949 H1961 0.930 . S
C1950 C1946 1.524 . S
C1950 H1962 0.956 . S
C1950 H1963 0.961 . S
C1950 H1964 0.961 . S
C1951 C1948 1.539 . S
C1951 H1965 0.958 . S
C1951 H1966 0.961 . S
C1951 H1967 0.960 . S
H1952 C1936 0.931 . S
H1953 C1941 0.929 . S
H1954 C1942 0.960 . S
H1955 C1942 0.962 . S
H1956 C1942 0.960 . S
H1957 C1943 0.961 . S
H1958 C1943 0.961 . S
H1959 C1943 0.961 . S
H1960 C1944 0.931 . S
H1961 C1949 0.930 . S
H1962 C1950 0.956 . S
H1963 C1950 0.961 . S
H1964 C1950 0.961 . S
H1965 C1951 0.958 . S
H1966 C1951 0.961 . S
H1967 C1951 0.960 . S
C945 C5 1.344 1_556 S
C953 C241 1.357 . S
C977 C300 1.367 . S
C985 C64 1.351 . S
C1009 C123 1.565 . S
C1017 C359 1.552 . S
C1041 C182 1.540 . S
C1049 C418 1.559 . S
C1073 C477 1.344 1_554 S
C1081 C713 1.360 . S
C1105 C772 1.347 . S
C1113 C536 1.367 . S
C1137 C595 1.540 . S
C1145 C831 1.561 . S
C1169 C654 1.535 . S
C1177 C890 1.558 . S
C1201 C3 1.498 . S
C1209 C937 1.542 . S
C1233 C760 1.505 . S
C1241 C62 1.476 . S
C1265 C121 1.562 . S
C1273 C819 1.621 . S
C1297 C878 1.672 . S
C1305 C180 1.642 . S
C1329 C583 1.517 . S
C1337 C239 1.483 . S
C1361 C642 1.547 . S
C1369 C298 1.518 . S
C1393 C701 1.671 . S
C1401 C357 1.641 . S
C1425 C524 1.624 . S
C1433 C416 1.586 . S
C1457 C475 1.533 . S
C1465 C465 1.544 . S
C1489 C288 1.504 . S
C1497 C534 1.476 . S
C1521 C347 1.619 . S
C1529 C593 1.591 . S
C1553 C652 1.629 . S
C1561 C406 1.675 . S
C1585 C111 1.508 . S
C1593 C711 1.473 . S
C1617 C770 1.535 . S
C1625 C170 1.544 . S
C1649 C829 1.611 . S
C1657 C229 1.673 . S
C1681 C888 1.595 . S
C1689 C52 1.624 . S
C1713 C446 0.985 . S
C1721 C33 1.007 . S
C1745 C92 1.111 . S
C1753 C269 1.090 . S
C1777 C151 1.013 . S
C1785 C328 1.039 . S
C1809 C210 0.939 . S
C1817 C387 0.970 . S
C1841 C918 1.046 . S
C1849 C505 1.037 . S
C1873 C741 1.067 . S
C1881 C564 1.075 . S
C1905 C800 0.978 . S
C1913 C623 0.991 . S
C1937 C859 0.978 . S
C1945 C682 0.935 . S
