# Generated by pormake.
# Topology uku, (4)-cn, num edge types: 1
# Building blocks:
#     Node 0, Type 0, BuildingBlock: QUQFOY_clean_sbu_1, # of connection points: 4
#     Node 1, Type 0, BuildingBlock: QUQFOY_clean_sbu_1, # of connection points: 4
#     Node 2, Type 0, BuildingBlock: QUQFOY_clean_sbu_1, # of connection points: 4
#     Node 3, Type 0, BuildingBlock: QUQFOY_clean_sbu_1, # of connection points: 4
#     Node 4, Type 0, BuildingBlock: QUQFOY_clean_sbu_1, # of connection points: 4
#     Node 5, Type 0, BuildingBlock: QUQFOY_clean_sbu_1, # of connection points: 4
#     Node 6, Type 0, BuildingBlock: QUQFOY_clean_sbu_1, # of connection points: 4
#     Node 7, Type 0, BuildingBlock: QUQFOY_clean_sbu_1, # of connection points: 4
#     Node 8, Type 0, BuildingBlock: QUQFOY_clean_sbu_1, # of connection points: 4
#     Node 9, Type 0, BuildingBlock: QUQFOY_clean_sbu_1, # of connection points: 4
#     Node 10, Type 0, BuildingBlock: QUQFOY_clean_sbu_1, # of connection points: 4
#     Node 11, Type 0, BuildingBlock: QUQFOY_clean_sbu_1, # of connection points: 4
#     Edge 12, Type (0, 0), BuildingBlock: OJICUG_clean_linker_0, # of connection points: 2
#     Edge 13, Type (0, 0), BuildingBlock: OJICUG_clean_linker_0, # of connection points: 2
#     Edge 14, Type (0, 0), BuildingBlock: OJICUG_clean_linker_0, # of connection points: 2
#     Edge 15, Type (0, 0), BuildingBlock: OJICUG_clean_linker_0, # of connection points: 2
#     Edge 16, Type (0, 0), BuildingBlock: OJICUG_clean_linker_0, # of connection points: 2
#     Edge 17, Type (0, 0), BuildingBlock: OJICUG_clean_linker_0, # of connection points: 2
#     Edge 18, Type (0, 0), BuildingBlock: OJICUG_clean_linker_0, # of connection points: 2
#     Edge 19, Type (0, 0), BuildingBlock: OJICUG_clean_linker_0, # of connection points: 2
#     Edge 20, Type (0, 0), BuildingBlock: OJICUG_clean_linker_0, # of connection points: 2
#     Edge 21, Type (0, 0), BuildingBlock: OJICUG_clean_linker_0, # of connection points: 2
#     Edge 22, Type (0, 0), BuildingBlock: OJICUG_clean_linker_0, # of connection points: 2
#     Edge 23, Type (0, 0), BuildingBlock: OJICUG_clean_linker_0, # of connection points: 2
#     Edge 24, Type (0, 0), BuildingBlock: OJICUG_clean_linker_0, # of connection points: 2
#     Edge 25, Type (0, 0), BuildingBlock: OJICUG_clean_linker_0, # of connection points: 2
#     Edge 26, Type (0, 0), BuildingBlock: OJICUG_clean_linker_0, # of connection points: 2
#     Edge 27, Type (0, 0), BuildingBlock: OJICUG_clean_linker_0, # of connection points: 2
#     Edge 28, Type (0, 0), BuildingBlock: OJICUG_clean_linker_0, # of connection points: 2
#     Edge 29, Type (0, 0), BuildingBlock: OJICUG_clean_linker_0, # of connection points: 2
#     Edge 30, Type (0, 0), BuildingBlock: OJICUG_clean_linker_0, # of connection points: 2
#     Edge 31, Type (0, 0), BuildingBlock: OJICUG_clean_linker_0, # of connection points: 2
#     Edge 32, Type (0, 0), BuildingBlock: OJICUG_clean_linker_0, # of connection points: 2
#     Edge 33, Type (0, 0), BuildingBlock: OJICUG_clean_linker_0, # of connection points: 2
#     Edge 34, Type (0, 0), BuildingBlock: OJICUG_clean_linker_0, # of connection points: 2
#     Edge 35, Type (0, 0), BuildingBlock: OJICUG_clean_linker_0, # of connection points: 2
# Relax obj value: 0.260
# Max RMSD: 0.221
# Mean RMSD: 0.221
data_MOF--net-uku--node1-QUQFOY_clean_sbu_1--edge1-OJICUG_clean_linker_0
_symmetry_space_group_name_H-M    P1
_symmetry_Int_Tables_number       1
_symmetry_cell_setting            triclinic
loop_
_symmetry_equiv_pos_as_xyz
'x, y, z'
_cell_length_a     32.061216
_cell_length_b     32.06206
_cell_length_c     32.055796
_cell_angle_alpha  90.033396
_cell_angle_beta   89.959396
_cell_angle_gamma 89.912081
loop_
_atom_site_label
_atom_site_type_symbol
_atom_site_fract_x
_atom_site_fract_y
_atom_site_fract_z
_atom_type_partial_charge
O0 O 0.07723 0.08944 0.61998 0.0
Cd1 Cd 0.10947 0.14346 0.6106 0.0
Cd2 Cd 0.08113 0.1603 0.68167 0.0
O3 O 0.03478 0.11828 0.66604 0.0
O4 O 0.10263 0.15845 0.5503 0.0
O5 O 0.06828 0.18945 0.60189 0.0
C6 C 0.07265 0.18284 0.56233 0.0
C7 C 0.07649 0.22535 0.71454 0.0
C8 C 0.04445 0.08794 0.64217 0.0
C9 C 0.16781 0.12898 0.67728 0.0
O10 O 0.13406 0.12961 0.69787 0.0
O11 O 0.16837 0.14259 0.63984 0.0
O12 O 0.0643 0.19159 0.73273 0.0
O13 O 0.08815 0.22286 0.67609 0.0
O14 O 0.92965 0.92576 0.61913 0.0
Cd15 Cd 0.90055 0.86969 0.61047 0.0
Cd16 Cd 0.92597 0.85741 0.6835 0.0
O17 O 0.97082 0.90109 0.66852 0.0
O18 O 0.91091 0.85237 0.55127 0.0
O19 O 0.94405 0.82517 0.6056 0.0
C20 C 0.94117 0.8297 0.56562 0.0
C21 C 0.93257 0.79496 0.72066 0.0
C22 C 0.96097 0.92994 0.64301 0.0
C23 C 0.83809 0.88354 0.67348 0.0
O24 O 0.87072 0.88579 0.69562 0.0
O25 O 0.84019 0.86842 0.63667 0.0
O26 O 0.94154 0.83051 0.73724 0.0
O27 O 0.92314 0.79427 0.68154 0.0
O28 O 0.08587 0.92441 0.39821 0.0
Cd29 Cd 0.1182 0.87038 0.40807 0.0
Cd30 Cd 0.09107 0.85314 0.33628 0.0
O31 O 0.04476 0.89558 0.35111 0.0
O32 O 0.10981 0.8547 0.46804 0.0
O33 O 0.07728 0.824 0.41524 0.0
C34 C 0.08047 0.83019 0.45498 0.0
C35 C 0.08511 0.78885 0.30213 0.0
C36 C 0.05372 0.92593 0.37516 0.0
C37 C 0.1778 0.8843 0.34215 0.0
O38 O 0.14454 0.8832 0.32084 0.0
O39 O 0.17765 0.8714 0.37985 0.0
O40 O 0.07411 0.8233 0.28449 0.0
O41 O 0.09668 0.79024 0.34063 0.0
O42 O 0.93302 0.08412 0.39265 0.0
Cd43 Cd 0.90092 0.13872 0.39997 0.0
Cd44 Cd 0.93006 0.15314 0.32863 0.0
O45 O 0.97598 0.11137 0.34621 0.0
O46 O 0.90758 0.15631 0.45968 0.0
O47 O 0.94234 0.18467 0.40699 0.0
C48 C 0.93771 0.17994 0.44677 0.0
C49 C 0.93559 0.21716 0.29405 0.0
C50 C 0.96602 0.08181 0.37084 0.0
C51 C 0.84319 0.12306 0.33279 0.0
O52 O 0.87718 0.12248 0.31261 0.0
O53 O 0.84241 0.13781 0.36982 0.0
O54 O 0.94776 0.18276 0.27695 0.0
O55 O 0.92336 0.21589 0.33237 0.0
O56 O 0.61976 0.07929 0.08327 0.0
Cd57 Cd 0.61227 0.11049 0.13836 0.0
Cd58 Cd 0.68395 0.08195 0.152 0.0
O59 O 0.66679 0.03642 0.10971 0.0
O60 O 0.55266 0.1032 0.15587 0.0
O61 O 0.60558 0.0684 0.18382 0.0
C62 C 0.56577 0.07286 0.17915 0.0
C63 C 0.71914 0.07588 0.21564 0.0
C64 C 0.64195 0.04657 0.08037 0.0
C65 C 0.67852 0.16921 0.12315 0.0
O66 O 0.69909 0.13546 0.12195 0.0
O67 O 0.64159 0.16938 0.13814 0.0
O68 O 0.73611 0.0645 0.18091 0.0
O69 O 0.68062 0.08756 0.21488 0.0
O70 O 0.39272 0.93329 0.08746 0.0
Cd71 Cd 0.40215 0.90102 0.14152 0.0
Cd72 Cd 0.33121 0.92983 0.15869 0.0
O73 O 0.34691 0.97596 0.1164 0.0
O74 O 0.46247 0.90771 0.15653 0.0
O75 O 0.41095 0.94218 0.18748 0.0
C76 C 0.4505 0.93769 0.18092 0.0
C77 C 0.29869 0.93484 0.22392 0.0
C78 C 0.37063 0.96616 0.08598 0.0
C79 C 0.33498 0.84305 0.12766 0.0
O80 O 0.31457 0.87692 0.12829 0.0
O81 O 0.37251 0.84231 0.141 0.0
O82 O 0.28039 0.94705 0.1902 0.0
O83 O 0.33706 0.92294 0.22126 0.0
O84 O 0.61434 0.92804 0.92238 0.0
Cd85 Cd 0.60442 0.89574 0.86838 0.0
Cd86 Cd 0.67644 0.92213 0.85141 0.0
O87 O 0.66192 0.96868 0.89368 0.0
O88 O 0.54451 0.90438 0.8528 0.0
O89 O 0.59738 0.93664 0.8219 0.0
C90 C 0.55764 0.93365 0.82821 0.0
C91 C 0.7111 0.92775 0.78737 0.0
C92 C 0.63765 0.95997 0.92394 0.0
C93 C 0.66958 0.83552 0.8829 0.0
O94 O 0.69121 0.86854 0.88172 0.0
O95 O 0.63196 0.836 0.86984 0.0
O96 O 0.72858 0.93854 0.82195 0.0
O97 O 0.67248 0.91658 0.78848 0.0
O98 O 0.39307 0.0825 0.92487 0.0
Cd99 Cd 0.40156 0.11252 0.86925 0.0
Cd100 Cd 0.32889 0.08639 0.85622 0.0
O101 O 0.34433 0.04111 0.89939 0.0
O102 O 0.46087 0.10283 0.85179 0.0
O103 O 0.40681 0.06965 0.82421 0.0
C104 C 0.44676 0.07275 0.82878 0.0
C105 C 0.29254 0.08026 0.79325 0.0
C106 C 0.36959 0.05083 0.92849 0.0
C107 C 0.33751 0.17397 0.8836 0.0
O108 O 0.31579 0.14104 0.88527 0.0
O109 O 0.37443 0.17253 0.86868 0.0
O110 O 0.27571 0.07042 0.82847 0.0
O111 O 0.33148 0.09035 0.79316 0.0
O112 O 0.08594 0.61864 0.08503 0.0
Cd113 Cd 0.1419 0.60967 0.11431 0.0
Cd114 Cd 0.15504 0.68241 0.08823 0.0
O115 O 0.11109 0.66749 0.04355 0.0
O116 O 0.15905 0.55032 0.10424 0.0
O117 O 0.18649 0.6044 0.07096 0.0
C118 C 0.18186 0.56446 0.07401 0.0
C119 C 0.21796 0.71862 0.08114 0.0
C120 C 0.08198 0.64238 0.05356 0.0
C121 C 0.12874 0.67351 0.17618 0.0
O122 O 0.12687 0.69542 0.14336 0.0
O123 O 0.14333 0.63646 0.17443 0.0
O124 O 0.18261 0.73558 0.07198 0.0
O125 O 0.21815 0.67965 0.09111 0.0
O126 O 0.0881 0.39753 0.92859 0.0
Cd127 Cd 0.14228 0.40724 0.89654 0.0
Cd128 Cd 0.15883 0.33517 0.92308 0.0
O129 O 0.1165 0.34994 0.96949 0.0
O130 O 0.158 0.46709 0.90526 0.0
O131 O 0.18855 0.41408 0.9377 0.0
C132 C 0.18237 0.45385 0.93468 0.0
C133 C 0.22277 0.30027 0.92875 0.0
C134 C 0.08635 0.3743 0.9606 0.0
C135 C 0.12787 0.34216 0.83631 0.0
O136 O 0.12866 0.32057 0.8694 0.0
O137 O 0.14118 0.37968 0.83681 0.0
O138 O 0.18813 0.28289 0.93949 0.0
O139 O 0.22177 0.33893 0.91767 0.0
O140 O 0.92319 0.62093 0.93628 0.0
Cd141 Cd 0.86947 0.61173 0.90347 0.0
Cd142 Cd 0.85223 0.6826 0.93215 0.0
O143 O 0.89389 0.66663 0.9788 0.0
O144 O 0.85448 0.55138 0.90986 0.0
O145 O 0.82321 0.60276 0.94425 0.0
C146 C 0.82988 0.56323 0.93972 0.0
C147 C 0.78679 0.71485 0.93609 0.0
C148 C 0.92434 0.64285 0.96926 0.0
C149 C 0.88421 0.67897 0.84573 0.0
O150 O 0.88333 0.6993 0.87964 0.0
O151 O 0.87068 0.64153 0.84481 0.0
O152 O 0.8202 0.73325 0.94894 0.0
O153 O 0.78984 0.67652 0.92419 0.0
O154 O 0.9274 0.3931 0.08017 0.0
Cd155 Cd 0.87256 0.40069 0.11177 0.0
Cd156 Cd 0.85839 0.32922 0.08302 0.0
O157 O 0.9005 0.34637 0.03732 0.0
O158 O 0.85518 0.46039 0.10476 0.0
O159 O 0.82684 0.40768 0.07001 0.0
C160 C 0.83167 0.44746 0.07453 0.0
C161 C 0.79471 0.29419 0.07694 0.0
C162 C 0.93 0.37102 0.04737 0.0
C163 C 0.8879 0.33409 0.17013 0.0
O164 O 0.88867 0.31364 0.1363 0.0
O165 O 0.87314 0.37111 0.17056 0.0
O166 O 0.82938 0.27723 0.06536 0.0
O167 O 0.79554 0.3326 0.0889 0.0
C168 C 0.96395 0.19544 0.51902 0.0
C169 C 0.97128 0.19313 0.47589 0.0
H170 H 0.99061 0.19588 0.58026 0.0
C171 C 0.01275 0.19535 0.46147 0.0
H172 H 0.93245 0.19362 0.53112 0.0
C173 C 0.0462 0.19544 0.48963 0.0
C174 C 0.0389 0.19465 0.53282 0.0
H175 H 0.01957 0.19326 0.42843 0.0
H176 H 0.07773 0.19356 0.4776 0.0
C177 C 0.9974 0.19686 0.54717 0.0
C178 C 0.05177 0.81756 0.52691 0.0
C179 C 0.04608 0.8176 0.48347 0.0
H180 H 0.02278 0.81955 0.58711 0.0
C181 C 1.00524 0.81374 0.4677 0.0
H182 H 0.08274 0.82068 0.54004 0.0
C183 C 0.97074 0.81427 0.49463 0.0
C184 C 0.97635 0.81737 0.53796 0.0
H185 H 0.99964 0.81404 0.43438 0.0
H186 H 0.93967 0.81481 0.48139 0.0
C187 C 0.0173 0.81681 0.55388 0.0
C188 C 0.46565 0.01275 0.19583 0.0
C189 C 0.48006 0.97131 0.19291 0.0
H190 H 0.48153 0.07777 0.19347 0.0
C191 C 0.52326 0.96405 0.19327 0.0
H192 H 0.43254 0.01952 0.19521 0.0
C193 C 0.55136 0.99754 0.19348 0.0
C194 C 0.53683 0.03902 0.19201 0.0
H195 H 0.53534 0.93257 0.19086 0.0
H196 H 0.58439 0.9908 0.19105 0.0
C197 C 0.49371 0.04626 0.19472 0.0
C198 C 0.48583 0.96243 0.81525 0.0
C199 C 0.52925 0.96818 0.81576 0.0
H200 H 0.42557 0.9913 0.81714 0.0
C201 C 0.54496 0.00908 0.81265 0.0
H202 H 0.47275 0.9314 0.8178 0.0
C203 C 0.51797 0.04354 0.81348 0.0
C204 C 0.47462 0.03784 0.81612 0.0
H205 H 0.57826 0.0147 0.81336 0.0
H206 H 0.53113 0.07462 0.81461 0.0
C207 C 0.4588 0.99688 0.81478 0.0
C208 C 0.1978 0.46635 0.01016 0.0
C209 C 0.19474 0.48216 0.96927 0.0
H210 H 0.19585 0.48003 0.07573 0.0
C211 C 0.19526 0.52559 0.96358 0.0
H212 H 0.19708 0.43304 0.01574 0.0
C213 C 0.19572 0.55254 0.99807 0.0
C214 C 0.19437 0.53663 0.03902 0.0
H215 H 0.19274 0.53875 0.93257 0.0
H216 H 0.19339 0.58579 0.99254 0.0
C217 C 0.19698 0.49327 0.04467 0.0
C218 C 0.81496 0.54783 0.01475 0.0
C219 C 0.81783 0.53357 0.97325 0.0
H220 H 0.81739 0.53169 0.07972 0.0
C221 C 0.81742 0.4904 0.96586 0.0
H222 H 0.81562 0.58091 0.02161 0.0
C223 C 0.81721 0.46218 0.99928 0.0
C224 C 0.81875 0.47654 0.04081 0.0
H225 H 0.81981 0.47844 0.93434 0.0
H226 H 0.81962 0.42917 0.99244 0.0
C227 C 0.81608 0.51964 0.04817 0.0
C228 C 0.24426 0.1282 0.69661 0.0
C229 C 0.20443 0.11013 0.69807 0.0
H230 H 0.30443 0.13227 0.72598 0.0
C231 C 0.19726 0.07685 0.72572 0.0
H232 H 0.25053 0.15396 0.6757 0.0
C233 C 0.22758 0.06465 0.75428 0.0
C234 C 0.26603 0.08525 0.7558 0.0
H235 H 0.16699 0.06188 0.7271 0.0
H236 H 0.21988 0.04082 0.77696 0.0
C237 C 0.27501 0.11573 0.72538 0.0
C238 C 0.77241 0.94803 0.74489 0.0
C239 C 0.73672 0.92332 0.74926 0.0
H240 H 0.83182 0.95523 0.71584 0.0
C241 C 0.73059 0.88972 0.72152 0.0
H242 H 0.7778 0.97423 0.76556 0.0
C243 C 0.76202 0.87842 0.69297 0.0
C244 C 0.79953 0.90091 0.69186 0.0
H245 H 0.70335 0.86999 0.72447 0.0
H246 H 0.75851 0.85025 0.67465 0.0
C247 C 0.80331 0.93709 0.71637 0.0
C248 C 0.23682 0.95147 0.26754 0.0
C249 C 0.27411 0.92918 0.26262 0.0
H250 H 0.17774 0.95509 0.29798 0.0
C251 C 0.28323 0.89656 0.29071 0.0
H252 H 0.22906 0.97691 0.24668 0.0
C253 C 0.25342 0.88373 0.32029 0.0
C254 C 0.21445 0.90365 0.32205 0.0
H255 H 0.31175 0.87869 0.28746 0.0
H256 H 0.25943 0.85629 0.33904 0.0
C257 C 0.20745 0.93893 0.29697 0.0
C258 C 0.73651 0.11195 0.28324 0.0
C259 C 0.7452 0.08073 0.25342 0.0
H260 H 0.76114 0.1503 0.33272 0.0
C261 C 0.78305 0.05902 0.25594 0.0
H262 H 0.70755 0.12933 0.28188 0.0
C263 C 0.81319 0.07079 0.28487 0.0
C264 C 0.80642 0.10474 0.31187 0.0
H265 H 0.7905 0.0346 0.23376 0.0
H266 H 0.84308 0.05495 0.28422 0.0
C267 C 0.76707 0.12399 0.31235 0.0
C268 C 0.7253 0.20048 0.07062 0.0
C269 C 0.69886 0.20645 0.10515 0.0
H270 H 0.77588 0.22396 0.03419 0.0
C271 C 0.69867 0.24533 0.12529 0.0
H272 H 0.72571 0.17095 0.05413 0.0
C273 C 0.72759 0.27615 0.11349 0.0
C274 C 0.75693 0.26815 0.08164 0.0
H275 H 0.67875 0.25063 0.15208 0.0
H276 H 0.72924 0.30468 0.13153 0.0
C277 C 0.75405 0.23085 0.0591 0.0
C278 C 0.25685 0.7834 0.06472 0.0
C279 C 0.25554 0.74501 0.08548 0.0
H280 H 0.28416 0.84387 0.0613 0.0
C281 C 0.28639 0.73599 0.11553 0.0
H282 H 0.23383 0.79111 0.04121 0.0
C283 C 0.31543 0.76666 0.12745 0.0
C284 C 0.3138 0.80645 0.10926 0.0
H285 H 0.28596 0.70661 0.13218 0.0
H286 H 0.3367 0.76038 0.15292 0.0
C287 C 0.28568 0.81364 0.07636 0.0
C288 C 0.72081 0.73016 0.89641 0.0
C289 C 0.74812 0.73931 0.92967 0.0
H290 H 0.6734 0.75393 0.85501 0.0
C291 C 0.74256 0.77653 0.95188 0.0
H292 H 0.72457 0.70169 0.87858 0.0
C293 C 0.71333 0.80586 0.93868 0.0
C294 C 0.68911 0.79885 0.90282 0.0
H295 H 0.76282 0.78431 0.97778 0.0
H296 H 0.71188 0.83556 0.9548 0.0
C297 C 0.69145 0.75992 0.88292 0.0
C298 C 0.29332 0.20749 0.93695 0.0
C299 C 0.3185 0.21208 0.90132 0.0
H300 H 0.24361 0.23225 0.97389 0.0
C301 C 0.31781 0.25013 0.87968 0.0
H302 H 0.29354 0.17858 0.95448 0.0
C303 C 0.2891 0.28135 0.89121 0.0
C304 C 0.26081 0.27451 0.92421 0.0
H305 H 0.33668 0.25429 0.85195 0.0
H306 H 0.28657 0.30908 0.87208 0.0
C307 C 0.26469 0.23821 0.94814 0.0
C308 C 0.12273 0.72257 0.28323 0.0
C309 C 0.08936 0.75055 0.27676 0.0
H310 H 0.16188 0.6751 0.25586 0.0
C311 C 0.0647 0.74609 0.24102 0.0
H312 H 0.14241 0.72556 0.31052 0.0
C313 C 0.07549 0.71722 0.2104 0.0
C314 C 0.11145 0.6924 0.21452 0.0
H315 H 0.03867 0.76693 0.23536 0.0
H316 H 0.05742 0.7166 0.18183 0.0
C317 C 0.13387 0.69365 0.25209 0.0
C318 C 0.11534 0.29163 0.73048 0.0
C319 C 0.0824 0.26386 0.73932 0.0
H320 H 0.15607 0.3393 0.75475 0.0
C321 C 0.06003 0.26881 0.77654 0.0
H322 H 0.13328 0.28833 0.70202 0.0
C323 C 0.07279 0.29791 0.80614 0.0
C324 C 0.10838 0.3226 0.79943 0.0
H325 H 0.03436 0.2482 0.78408 0.0
H326 H 0.05656 0.29892 0.83581 0.0
C327 C 0.12839 0.32086 0.76052 0.0
C328 C 0.88575 0.69789 0.76912 0.0
C329 C 0.90301 0.70015 0.8093 0.0
H330 H 0.8822 0.72651 0.70853 0.0
C331 C 0.93549 0.72863 0.81683 0.0
H332 H 0.86064 0.67631 0.76255 0.0
C333 C 0.94763 0.75711 0.78643 0.0
C334 C 0.92778 0.75775 0.74754 0.0
H335 H 0.9499 0.73063 0.84735 0.0
H336 H 0.97081 0.78036 0.79434 0.0
C337 C 0.89815 0.7266 0.7383 0.0
C338 C 0.95275 0.25834 0.23079 0.0
C339 C 0.93049 0.25509 0.26825 0.0
H340 H 0.95713 0.28714 0.17102 0.0
C341 C 0.89857 0.28426 0.27667 0.0
H342 H 0.97771 0.23667 0.22358 0.0
C343 C 0.88643 0.31337 0.24613 0.0
C344 C 0.90627 0.31354 0.20709 0.0
H345 H 0.88076 0.28233 0.30533 0.0
H346 H 0.85959 0.33315 0.25176 0.0
C347 C 0.94087 0.28728 0.20069 0.0
C348 C 0.01088 0.02908 0.60488 0.0
C349 C 0.02037 0.04913 0.64259 0.0
H350 H 0.98394 0.97537 0.57563 0.0
C351 C 0.01115 0.02939 0.68053 0.0
H352 H 0.01826 0.04367 0.5753 0.0
C353 C 0.9933 0.98963 0.68071 0.0
C354 C 0.98337 0.9698 0.64296 0.0
H355 H 0.019 0.0441 0.70993 0.0
H356 H 0.98643 0.97477 0.71027 0.0
C357 C 0.99173 0.99003 0.60507 0.0
C358 C 0.99905 0.02383 0.41019 0.0
C359 C 0.99027 0.04303 0.37187 0.0
H360 H 0.02677 0.9714 0.44114 0.0
C361 C 1.0011 0.02281 0.33457 0.0
H362 H 0.9905 0.03883 0.43928 0.0
C363 C 0.02004 0.98353 0.33561 0.0
C364 C 0.02947 0.9647 0.37397 0.0
H365 H 0.9939 0.03687 0.30469 0.0
H366 H 0.02834 0.96839 0.30653 0.0
C367 C 0.01931 0.9853 0.41124 0.0
C368 C 0.60162 0.9948 0.98305 0.0
C369 C 0.6389 0.98418 0.96271 0.0
H370 H 0.57356 0.02361 0.03654 0.0
C371 C 0.67724 0.99292 0.98188 0.0
H372 H 0.57174 0.98785 0.96889 0.0
C373 C 0.67824 0.01159 0.02128 0.0
C374 C 0.64093 0.02282 0.04129 0.0
H375 H 0.70631 0.98424 0.96693 0.0
H376 H 0.70809 0.0182 0.03563 0.0
C377 C 0.60265 0.01478 0.02172 0.0
C378 C 0.33224 0.99988 0.02763 0.0
C379 C 0.3702 0.99028 0.04716 0.0
H380 H 0.30242 0.02525 0.97332 0.0
C381 C 0.40788 0.99963 0.02698 0.0
H382 H 0.30286 0.99217 0.04245 0.0
C383 C 0.40763 0.01908 0.98805 0.0
C384 C 0.36971 0.02789 0.96807 0.0
H385 H 0.43747 0.99196 0.04141 0.0
H386 H 0.43704 0.02683 0.97331 0.0
C387 C 0.332 0.01804 0.98798 0.0
C388 C 0.98335 0.68075 1.00216 0.0
C389 C 0.96291 0.64302 0.99373 0.0
H390 H 0.03846 0.70993 0.02642 0.0
C391 C 0.98215 0.60515 1.00423 0.0
H392 H 0.96926 0.71023 0.9935 0.0
C393 C 0.02113 0.60499 0.02357 0.0
C394 C 0.0421 0.64263 0.03111 0.0
H395 H 0.96701 0.57573 0.99743 0.0
H396 H 0.03519 0.57544 0.03209 0.0
C397 C 0.02304 0.68053 0.02021 0.0
C398 C 0.02831 0.33511 0.99382 0.0
C399 C 0.04753 0.37333 0.98475 0.0
H400 H 0.97454 0.30458 0.01943 0.0
C401 C 0.02725 0.41074 0.99506 0.0
H402 H 0.04321 0.30594 0.98539 0.0
C403 C 0.9886 0.40996 0.01508 0.0
C404 C 0.96899 0.37179 0.02347 0.0
H405 H 0.04146 0.44053 0.98786 0.0
H406 H 0.97384 0.43914 0.02371 0.0
C407 C 0.98892 0.33435 0.01253 0.0
loop_
_geom_bond_atom_site_label_1
_geom_bond_atom_site_label_2
_geom_bond_distance
_geom_bond_site_symmetry_2
_ccdc_geom_bond_type
O0 Cd1 2.223 . S
O0 C8 1.315 . S
Cd1 O0 2.223 . S
Cd1 O4 2.297 . S
Cd1 O5 2.439 . S
Cd1 O11 2.240 . S
Cd2 O3 2.240 . S
Cd2 O10 2.223 . S
Cd2 O12 2.297 . S
Cd2 O13 2.439 . S
O3 Cd2 2.240 . S
O3 C8 1.279 . S
O4 Cd1 2.297 . S
O4 C6 1.247 . S
O5 Cd1 2.439 . S
O5 C6 1.208 . S
C6 O4 1.247 . S
C6 O5 1.208 . S
C7 O12 1.247 . S
C7 O13 1.208 . S
C8 O0 1.315 . S
C8 O3 1.279 . S
C9 O10 1.315 . S
C9 O11 1.279 . S
O10 Cd2 2.223 . S
O10 C9 1.315 . S
O11 Cd1 2.240 . S
O11 C9 1.279 . S
O12 Cd2 2.297 . S
O12 C7 1.247 . S
O13 Cd2 2.439 . S
O13 C7 1.208 . S
O14 Cd15 2.223 . S
O14 C22 1.315 . S
Cd15 O14 2.223 . S
Cd15 O18 2.297 . S
Cd15 O19 2.439 . S
Cd15 O25 2.240 . S
Cd16 O17 2.240 . S
Cd16 O24 2.223 . S
Cd16 O26 2.297 . S
Cd16 O27 2.439 . S
O17 Cd16 2.240 . S
O17 C22 1.279 . S
O18 Cd15 2.297 . S
O18 C20 1.247 . S
O19 Cd15 2.439 . S
O19 C20 1.208 . S
C20 O18 1.247 . S
C20 O19 1.208 . S
C21 O26 1.247 . S
C21 O27 1.208 . S
C22 O14 1.315 . S
C22 O17 1.279 . S
C23 O24 1.315 . S
C23 O25 1.279 . S
O24 Cd16 2.223 . S
O24 C23 1.315 . S
O25 Cd15 2.240 . S
O25 C23 1.279 . S
O26 Cd16 2.297 . S
O26 C21 1.247 . S
O27 Cd16 2.439 . S
O27 C21 1.208 . S
O28 Cd29 2.223 . S
O28 C36 1.315 . S
Cd29 O28 2.223 . S
Cd29 O32 2.297 . S
Cd29 O33 2.439 . S
Cd29 O39 2.240 . S
Cd30 O31 2.240 . S
Cd30 O38 2.223 . S
Cd30 O40 2.297 . S
Cd30 O41 2.439 . S
O31 Cd30 2.240 . S
O31 C36 1.279 . S
O32 Cd29 2.297 . S
O32 C34 1.247 . S
O33 Cd29 2.439 . S
O33 C34 1.208 . S
C34 O32 1.247 . S
C34 O33 1.208 . S
C35 O40 1.247 . S
C35 O41 1.208 . S
C36 O28 1.315 . S
C36 O31 1.279 . S
C37 O38 1.315 . S
C37 O39 1.279 . S
O38 Cd30 2.223 . S
O38 C37 1.315 . S
O39 Cd29 2.240 . S
O39 C37 1.279 . S
O40 Cd30 2.297 . S
O40 C35 1.247 . S
O41 Cd30 2.439 . S
O41 C35 1.208 . S
O42 Cd43 2.223 . S
O42 C50 1.315 . S
Cd43 O42 2.223 . S
Cd43 O46 2.297 . S
Cd43 O47 2.439 . S
Cd43 O53 2.240 . S
Cd44 O45 2.240 . S
Cd44 O52 2.223 . S
Cd44 O54 2.297 . S
Cd44 O55 2.439 . S
O45 Cd44 2.240 . S
O45 C50 1.279 . S
O46 Cd43 2.297 . S
O46 C48 1.247 . S
O47 Cd43 2.439 . S
O47 C48 1.208 . S
C48 O46 1.247 . S
C48 O47 1.208 . S
C49 O54 1.247 . S
C49 O55 1.208 . S
C50 O42 1.315 . S
C50 O45 1.279 . S
C51 O52 1.315 . S
C51 O53 1.279 . S
O52 Cd44 2.223 . S
O52 C51 1.315 . S
O53 Cd43 2.240 . S
O53 C51 1.279 . S
O54 Cd44 2.297 . S
O54 C49 1.247 . S
O55 Cd44 2.439 . S
O55 C49 1.208 . S
O56 Cd57 2.223 . S
O56 C64 1.315 . S
Cd57 O56 2.223 . S
Cd57 O60 2.297 . S
Cd57 O61 2.439 . S
Cd57 O67 2.240 . S
Cd58 O59 2.240 . S
Cd58 O66 2.223 . S
Cd58 O68 2.297 . S
Cd58 O69 2.439 . S
O59 Cd58 2.240 . S
O59 C64 1.279 . S
O60 Cd57 2.297 . S
O60 C62 1.247 . S
O61 Cd57 2.439 . S
O61 C62 1.208 . S
C62 O60 1.247 . S
C62 O61 1.208 . S
C63 O68 1.247 . S
C63 O69 1.208 . S
C64 O56 1.315 . S
C64 O59 1.279 . S
C65 O66 1.315 . S
C65 O67 1.279 . S
O66 Cd58 2.223 . S
O66 C65 1.315 . S
O67 Cd57 2.240 . S
O67 C65 1.279 . S
O68 Cd58 2.297 . S
O68 C63 1.247 . S
O69 Cd58 2.439 . S
O69 C63 1.208 . S
O70 Cd71 2.223 . S
O70 C78 1.315 . S
Cd71 O70 2.223 . S
Cd71 O74 2.297 . S
Cd71 O75 2.439 . S
Cd71 O81 2.240 . S
Cd72 O73 2.240 . S
Cd72 O80 2.223 . S
Cd72 O82 2.297 . S
Cd72 O83 2.439 . S
O73 Cd72 2.240 . S
O73 C78 1.279 . S
O74 Cd71 2.297 . S
O74 C76 1.247 . S
O75 Cd71 2.439 . S
O75 C76 1.208 . S
C76 O74 1.247 . S
C76 O75 1.208 . S
C77 O82 1.247 . S
C77 O83 1.208 . S
C78 O70 1.315 . S
C78 O73 1.279 . S
C79 O80 1.315 . S
C79 O81 1.279 . S
O80 Cd72 2.223 . S
O80 C79 1.315 . S
O81 Cd71 2.240 . S
O81 C79 1.279 . S
O82 Cd72 2.297 . S
O82 C77 1.247 . S
O83 Cd72 2.439 . S
O83 C77 1.208 . S
O84 Cd85 2.223 . S
O84 C92 1.315 . S
Cd85 O84 2.223 . S
Cd85 O88 2.297 . S
Cd85 O89 2.439 . S
Cd85 O95 2.240 . S
Cd86 O87 2.240 . S
Cd86 O94 2.223 . S
Cd86 O96 2.297 . S
Cd86 O97 2.439 . S
O87 Cd86 2.240 . S
O87 C92 1.279 . S
O88 Cd85 2.297 . S
O88 C90 1.247 . S
O89 Cd85 2.439 . S
O89 C90 1.208 . S
C90 O88 1.247 . S
C90 O89 1.208 . S
C91 O96 1.247 . S
C91 O97 1.208 . S
C92 O84 1.315 . S
C92 O87 1.279 . S
C93 O94 1.315 . S
C93 O95 1.279 . S
O94 Cd86 2.223 . S
O94 C93 1.315 . S
O95 Cd85 2.240 . S
O95 C93 1.279 . S
O96 Cd86 2.297 . S
O96 C91 1.247 . S
O97 Cd86 2.439 . S
O97 C91 1.208 . S
O98 Cd99 2.223 . S
O98 C106 1.315 . S
Cd99 O98 2.223 . S
Cd99 O102 2.297 . S
Cd99 O103 2.439 . S
Cd99 O109 2.240 . S
Cd100 O101 2.240 . S
Cd100 O108 2.223 . S
Cd100 O110 2.297 . S
Cd100 O111 2.439 . S
O101 Cd100 2.240 . S
O101 C106 1.279 . S
O102 Cd99 2.297 . S
O102 C104 1.247 . S
O103 Cd99 2.439 . S
O103 C104 1.208 . S
C104 O102 1.247 . S
C104 O103 1.208 . S
C105 O110 1.247 . S
C105 O111 1.208 . S
C106 O98 1.315 . S
C106 O101 1.279 . S
C107 O108 1.315 . S
C107 O109 1.279 . S
O108 Cd100 2.223 . S
O108 C107 1.315 . S
O109 Cd99 2.240 . S
O109 C107 1.279 . S
O110 Cd100 2.297 . S
O110 C105 1.247 . S
O111 Cd100 2.439 . S
O111 C105 1.208 . S
O112 Cd113 2.223 . S
O112 C120 1.315 . S
Cd113 O112 2.223 . S
Cd113 O116 2.297 . S
Cd113 O117 2.439 . S
Cd113 O123 2.240 . S
Cd114 O115 2.240 . S
Cd114 O122 2.223 . S
Cd114 O124 2.297 . S
Cd114 O125 2.439 . S
O115 Cd114 2.240 . S
O115 C120 1.279 . S
O116 Cd113 2.297 . S
O116 C118 1.247 . S
O117 Cd113 2.439 . S
O117 C118 1.208 . S
C118 O116 1.247 . S
C118 O117 1.208 . S
C119 O124 1.247 . S
C119 O125 1.208 . S
C120 O112 1.315 . S
C120 O115 1.279 . S
C121 O122 1.315 . S
C121 O123 1.279 . S
O122 Cd114 2.223 . S
O122 C121 1.315 . S
O123 Cd113 2.240 . S
O123 C121 1.279 . S
O124 Cd114 2.297 . S
O124 C119 1.247 . S
O125 Cd114 2.439 . S
O125 C119 1.208 . S
O126 Cd127 2.223 . S
O126 C134 1.315 . S
Cd127 O126 2.223 . S
Cd127 O130 2.297 . S
Cd127 O131 2.439 . S
Cd127 O137 2.240 . S
Cd128 O129 2.240 . S
Cd128 O136 2.223 . S
Cd128 O138 2.297 . S
Cd128 O139 2.439 . S
O129 Cd128 2.240 . S
O129 C134 1.279 . S
O130 Cd127 2.297 . S
O130 C132 1.247 . S
O131 Cd127 2.439 . S
O131 C132 1.208 . S
C132 O130 1.247 . S
C132 O131 1.208 . S
C133 O138 1.247 . S
C133 O139 1.208 . S
C134 O126 1.315 . S
C134 O129 1.279 . S
C135 O136 1.315 . S
C135 O137 1.279 . S
O136 Cd128 2.223 . S
O136 C135 1.315 . S
O137 Cd127 2.240 . S
O137 C135 1.279 . S
O138 Cd128 2.297 . S
O138 C133 1.247 . S
O139 Cd128 2.439 . S
O139 C133 1.208 . S
O140 Cd141 2.223 . S
O140 C148 1.315 . S
Cd141 O140 2.223 . S
Cd141 O144 2.297 . S
Cd141 O145 2.439 . S
Cd141 O151 2.240 . S
Cd142 O143 2.240 . S
Cd142 O150 2.223 . S
Cd142 O152 2.297 . S
Cd142 O153 2.439 . S
O143 Cd142 2.240 . S
O143 C148 1.279 . S
O144 Cd141 2.297 . S
O144 C146 1.247 . S
O145 Cd141 2.439 . S
O145 C146 1.208 . S
C146 O144 1.247 . S
C146 O145 1.208 . S
C147 O152 1.247 . S
C147 O153 1.208 . S
C148 O140 1.315 . S
C148 O143 1.279 . S
C149 O150 1.315 . S
C149 O151 1.279 . S
O150 Cd142 2.223 . S
O150 C149 1.315 . S
O151 Cd141 2.240 . S
O151 C149 1.279 . S
O152 Cd142 2.297 . S
O152 C147 1.247 . S
O153 Cd142 2.439 . S
O153 C147 1.208 . S
O154 Cd155 2.223 . S
O154 C162 1.315 . S
Cd155 O154 2.223 . S
Cd155 O158 2.297 . S
Cd155 O159 2.439 . S
Cd155 O165 2.240 . S
Cd156 O157 2.240 . S
Cd156 O164 2.223 . S
Cd156 O166 2.297 . S
Cd156 O167 2.439 . S
O157 Cd156 2.240 . S
O157 C162 1.279 . S
O158 Cd155 2.297 . S
O158 C160 1.247 . S
O159 Cd155 2.439 . S
O159 C160 1.208 . S
C160 O158 1.247 . S
C160 O159 1.208 . S
C161 O166 1.247 . S
C161 O167 1.208 . S
C162 O154 1.315 . S
C162 O157 1.279 . S
C163 O164 1.315 . S
C163 O165 1.279 . S
O164 Cd156 2.223 . S
O164 C163 1.315 . S
O165 Cd155 2.240 . S
O165 C163 1.279 . S
O166 Cd156 2.297 . S
O166 C161 1.247 . S
O167 Cd156 2.439 . S
O167 C161 1.208 . S
C168 C169 1.387 . S
C168 H172 0.950 . S
C168 C177 1.390 1_655 S
C169 C168 1.387 . S
C169 C171 1.387 . S
H170 C177 0.950 . S
C171 C169 1.387 . S
C171 C173 1.390 1_655 S
C171 H175 0.950 . S
H172 C168 0.950 . S
C173 C171 1.390 1_455 S
C173 C174 1.387 . S
C173 H176 0.950 . S
C174 C173 1.387 . S
C174 C177 1.387 . S
H175 C171 0.950 . S
H176 C173 0.950 . S
C177 C168 1.390 1_455 S
C177 H170 0.950 . S
C177 C174 1.387 . S
C178 C179 1.387 . S
C178 H182 0.950 . S
C178 C187 1.390 1_455 S
C179 C178 1.387 . S
C179 C181 1.387 . S
H180 C187 0.950 . S
C181 C179 1.387 . S
C181 C183 1.390 1_455 S
C181 H185 0.950 . S
H182 C178 0.950 . S
C183 C181 1.390 1_655 S
C183 C184 1.387 . S
C183 H186 0.950 . S
C184 C183 1.387 . S
C184 C187 1.387 . S
H185 C181 0.950 . S
H186 C183 0.950 . S
C187 C178 1.390 1_655 S
C187 H180 0.950 . S
C187 C184 1.387 . S
C188 C189 1.387 . S
C188 H192 0.950 . S
C188 C197 1.390 1_565 S
C189 C188 1.387 . S
C189 C191 1.387 . S
H190 C197 0.950 . S
C191 C189 1.387 . S
C191 C193 1.390 1_565 S
C191 H195 0.950 . S
H192 C188 0.950 . S
C193 C191 1.390 1_545 S
C193 C194 1.387 . S
C193 H196 0.950 . S
C194 C193 1.387 . S
C194 C197 1.387 . S
H195 C191 0.950 . S
H196 C193 0.950 . S
C197 C188 1.390 1_545 S
C197 H190 0.950 . S
C197 C194 1.387 . S
C198 C199 1.387 . S
C198 H202 0.950 . S
C198 C207 1.390 1_565 S
C199 C198 1.387 . S
C199 C201 1.387 . S
H200 C207 0.950 . S
C201 C199 1.387 . S
C201 C203 1.390 1_565 S
C201 H205 0.950 . S
H202 C198 0.950 . S
C203 C201 1.390 1_545 S
C203 C204 1.387 . S
C203 H206 0.950 . S
C204 C203 1.387 . S
C204 C207 1.387 . S
H205 C201 0.950 . S
H206 C203 0.950 . S
C207 C198 1.390 1_545 S
C207 H200 0.950 . S
C207 C204 1.387 . S
C208 C209 1.387 . S
C208 H212 0.950 . S
C208 C217 1.390 1_556 S
C209 C208 1.387 . S
C209 C211 1.387 . S
H210 C217 0.950 . S
C211 C209 1.387 . S
C211 C213 1.390 1_556 S
C211 H215 0.950 . S
H212 C208 0.950 . S
C213 C211 1.390 1_554 S
C213 C214 1.387 . S
C213 H216 0.950 . S
C214 C213 1.387 . S
C214 C217 1.387 . S
H215 C211 0.950 . S
H216 C213 0.950 . S
C217 C208 1.390 1_554 S
C217 H210 0.950 . S
C217 C214 1.387 . S
C218 C219 1.387 . S
C218 H222 0.950 . S
C218 C227 1.390 1_556 S
C219 C218 1.387 . S
C219 C221 1.387 . S
H220 C227 0.950 . S
C221 C219 1.387 . S
C221 C223 1.390 1_556 S
C221 H225 0.950 . S
H222 C218 0.950 . S
C223 C221 1.390 1_554 S
C223 C224 1.387 . S
C223 H226 0.950 . S
C224 C223 1.387 . S
C224 C227 1.387 . S
H225 C221 0.950 . S
H226 C223 0.950 . S
C227 C218 1.390 1_554 S
C227 H220 0.950 . S
C227 C224 1.387 . S
C228 C229 1.387 . S
C228 H232 0.950 . S
C228 C237 1.390 . S
C229 C228 1.387 . S
C229 C231 1.387 . S
H230 C237 0.950 . S
C231 C229 1.387 . S
C231 C233 1.390 . S
C231 H235 0.950 . S
H232 C228 0.950 . S
C233 C231 1.390 . S
C233 C234 1.387 . S
C233 H236 0.950 . S
C234 C233 1.387 . S
C234 C237 1.387 . S
H235 C231 0.950 . S
H236 C233 0.950 . S
C237 C228 1.390 . S
C237 H230 0.950 . S
C237 C234 1.387 . S
C238 C239 1.387 . S
C238 H242 0.950 . S
C238 C247 1.390 . S
C239 C238 1.387 . S
C239 C241 1.387 . S
H240 C247 0.950 . S
C241 C239 1.387 . S
C241 C243 1.390 . S
C241 H245 0.950 . S
H242 C238 0.950 . S
C243 C241 1.390 . S
C243 C244 1.387 . S
C243 H246 0.950 . S
C244 C243 1.387 . S
C244 C247 1.387 . S
H245 C241 0.950 . S
H246 C243 0.950 . S
C247 C238 1.390 . S
C247 H240 0.950 . S
C247 C244 1.387 . S
C248 C249 1.387 . S
C248 H252 0.950 . S
C248 C257 1.390 . S
C249 C248 1.387 . S
C249 C251 1.387 . S
H250 C257 0.950 . S
C251 C249 1.387 . S
C251 C253 1.390 . S
C251 H255 0.950 . S
H252 C248 0.950 . S
C253 C251 1.390 . S
C253 C254 1.387 . S
C253 H256 0.950 . S
C254 C253 1.387 . S
C254 C257 1.387 . S
H255 C251 0.950 . S
H256 C253 0.950 . S
C257 C248 1.390 . S
C257 H250 0.950 . S
C257 C254 1.387 . S
C258 C259 1.387 . S
C258 H262 0.950 . S
C258 C267 1.390 . S
C259 C258 1.387 . S
C259 C261 1.387 . S
H260 C267 0.950 . S
C261 C259 1.387 . S
C261 C263 1.390 . S
C261 H265 0.950 . S
H262 C258 0.950 . S
C263 C261 1.390 . S
C263 C264 1.387 . S
C263 H266 0.950 . S
C264 C263 1.387 . S
C264 C267 1.387 . S
H265 C261 0.950 . S
H266 C263 0.950 . S
C267 C258 1.390 . S
C267 H260 0.950 . S
C267 C264 1.387 . S
C268 C269 1.387 . S
C268 H272 0.950 . S
C268 C277 1.390 . S
C269 C268 1.387 . S
C269 C271 1.387 . S
H270 C277 0.950 . S
C271 C269 1.387 . S
C271 C273 1.390 . S
C271 H275 0.950 . S
H272 C268 0.950 . S
C273 C271 1.390 . S
C273 C274 1.387 . S
C273 H276 0.950 . S
C274 C273 1.387 . S
C274 C277 1.387 . S
H275 C271 0.950 . S
H276 C273 0.950 . S
C277 C268 1.390 . S
C277 H270 0.950 . S
C277 C274 1.387 . S
C278 C279 1.387 . S
C278 H282 0.950 . S
C278 C287 1.390 . S
C279 C278 1.387 . S
C279 C281 1.387 . S
H280 C287 0.950 . S
C281 C279 1.387 . S
C281 C283 1.390 . S
C281 H285 0.950 . S
H282 C278 0.950 . S
C283 C281 1.390 . S
C283 C284 1.387 . S
C283 H286 0.950 . S
C284 C283 1.387 . S
C284 C287 1.387 . S
H285 C281 0.950 . S
H286 C283 0.950 . S
C287 C278 1.390 . S
C287 H280 0.950 . S
C287 C284 1.387 . S
C288 C289 1.387 . S
C288 H292 0.950 . S
C288 C297 1.390 . S
C289 C288 1.387 . S
C289 C291 1.387 . S
H290 C297 0.950 . S
C291 C289 1.387 . S
C291 C293 1.390 . S
C291 H295 0.950 . S
H292 C288 0.950 . S
C293 C291 1.390 . S
C293 C294 1.387 . S
C293 H296 0.950 . S
C294 C293 1.387 . S
C294 C297 1.387 . S
H295 C291 0.950 . S
H296 C293 0.950 . S
C297 C288 1.390 . S
C297 H290 0.950 . S
C297 C294 1.387 . S
C298 C299 1.387 . S
C298 H302 0.950 . S
C298 C307 1.390 . S
C299 C298 1.387 . S
C299 C301 1.387 . S
H300 C307 0.950 . S
C301 C299 1.387 . S
C301 C303 1.390 . S
C301 H305 0.950 . S
H302 C298 0.950 . S
C303 C301 1.390 . S
C303 C304 1.387 . S
C303 H306 0.950 . S
C304 C303 1.387 . S
C304 C307 1.387 . S
H305 C301 0.950 . S
H306 C303 0.950 . S
C307 C298 1.390 . S
C307 H300 0.950 . S
C307 C304 1.387 . S
C308 C309 1.387 . S
C308 H312 0.950 . S
C308 C317 1.390 . S
C309 C308 1.387 . S
C309 C311 1.387 . S
H310 C317 0.950 . S
C311 C309 1.387 . S
C311 C313 1.390 . S
C311 H315 0.950 . S
H312 C308 0.950 . S
C313 C311 1.390 . S
C313 C314 1.387 . S
C313 H316 0.950 . S
C314 C313 1.387 . S
C314 C317 1.387 . S
H315 C311 0.950 . S
H316 C313 0.950 . S
C317 C308 1.390 . S
C317 H310 0.950 . S
C317 C314 1.387 . S
C318 C319 1.387 . S
C318 H322 0.950 . S
C318 C327 1.390 . S
C319 C318 1.387 . S
C319 C321 1.387 . S
H320 C327 0.950 . S
C321 C319 1.387 . S
C321 C323 1.390 . S
C321 H325 0.950 . S
H322 C318 0.950 . S
C323 C321 1.390 . S
C323 C324 1.387 . S
C323 H326 0.950 . S
C324 C323 1.387 . S
C324 C327 1.387 . S
H325 C321 0.950 . S
H326 C323 0.950 . S
C327 C318 1.390 . S
C327 H320 0.950 . S
C327 C324 1.387 . S
C328 C329 1.387 . S
C328 H332 0.950 . S
C328 C337 1.390 . S
C329 C328 1.387 . S
C329 C331 1.387 . S
H330 C337 0.950 . S
C331 C329 1.387 . S
C331 C333 1.390 . S
C331 H335 0.950 . S
H332 C328 0.950 . S
C333 C331 1.390 . S
C333 C334 1.387 . S
C333 H336 0.950 . S
C334 C333 1.387 . S
C334 C337 1.387 . S
H335 C331 0.950 . S
H336 C333 0.950 . S
C337 C328 1.390 . S
C337 H330 0.950 . S
C337 C334 1.387 . S
C338 C339 1.387 . S
C338 H342 0.950 . S
C338 C347 1.390 . S
C339 C338 1.387 . S
C339 C341 1.387 . S
H340 C347 0.950 . S
C341 C339 1.387 . S
C341 C343 1.390 . S
C341 H345 0.950 . S
H342 C338 0.950 . S
C343 C341 1.390 . S
C343 C344 1.387 . S
C343 H346 0.950 . S
C344 C343 1.387 . S
C344 C347 1.387 . S
H345 C341 0.950 . S
H346 C343 0.950 . S
C347 C338 1.390 . S
C347 H340 0.950 . S
C347 C344 1.387 . S
C348 C349 1.387 . S
C348 H352 0.950 . S
C348 C357 1.390 1_445 S
C349 C348 1.387 . S
C349 C351 1.387 . S
H350 C357 0.950 . S
C351 C349 1.387 . S
C351 C353 1.390 1_445 S
C351 H355 0.950 . S
H352 C348 0.950 . S
C353 C351 1.390 1_665 S
C353 C354 1.387 . S
C353 H356 0.950 . S
C354 C353 1.387 . S
C354 C357 1.387 . S
H355 C351 0.950 . S
H356 C353 0.950 . S
C357 C348 1.390 1_665 S
C357 H350 0.950 . S
C357 C354 1.387 . S
C358 C359 1.387 . S
C358 H362 0.950 . S
C358 C367 1.390 1_645 S
C359 C358 1.387 . S
C359 C361 1.387 . S
H360 C367 0.950 . S
C361 C359 1.387 . S
C361 C363 1.390 1_645 S
C361 H365 0.950 . S
H362 C358 0.950 . S
C363 C361 1.390 1_465 S
C363 C364 1.387 . S
C363 H366 0.950 . S
C364 C363 1.387 . S
C364 C367 1.387 . S
H365 C361 0.950 . S
H366 C363 0.950 . S
C367 C358 1.390 1_465 S
C367 H360 0.950 . S
C367 C364 1.387 . S
C368 C369 1.387 . S
C368 H372 0.950 . S
C368 C377 1.390 1_566 S
C369 C368 1.387 . S
C369 C371 1.387 . S
H370 C377 0.950 . S
C371 C369 1.387 . S
C371 C373 1.390 1_566 S
C371 H375 0.950 . S
H372 C368 0.950 . S
C373 C371 1.390 1_544 S
C373 C374 1.387 . S
C373 H376 0.950 . S
C374 C373 1.387 . S
C374 C377 1.387 . S
H375 C371 0.950 . S
H376 C373 0.950 . S
C377 C368 1.390 1_544 S
C377 H370 0.950 . S
C377 C374 1.387 . S
C378 C379 1.387 . S
C378 H382 0.950 . S
C378 C387 1.390 1_564 S
C379 C378 1.387 . S
C379 C381 1.387 . S
H380 C387 0.950 . S
C381 C379 1.387 . S
C381 C383 1.390 1_564 S
C381 H385 0.950 . S
H382 C378 0.950 . S
C383 C381 1.390 1_546 S
C383 C384 1.387 . S
C383 H386 0.950 . S
C384 C383 1.387 . S
C384 C387 1.387 . S
H385 C381 0.950 . S
H386 C383 0.950 . S
C387 C378 1.390 1_546 S
C387 H380 0.950 . S
C387 C384 1.387 . S
C388 C389 1.387 . S
C388 H392 0.950 . S
C388 C397 1.390 1_656 S
C389 C388 1.387 . S
C389 C391 1.387 . S
H390 C397 0.950 . S
C391 C389 1.387 . S
C391 C393 1.390 1_656 S
C391 H395 0.950 . S
H392 C388 0.950 . S
C393 C391 1.390 1_454 S
C393 C394 1.387 . S
C393 H396 0.950 . S
C394 C393 1.387 . S
C394 C397 1.387 . S
H395 C391 0.950 . S
H396 C393 0.950 . S
C397 C388 1.390 1_454 S
C397 H390 0.950 . S
C397 C394 1.387 . S
C398 C399 1.387 . S
C398 H402 0.950 . S
C398 C407 1.390 1_456 S
C399 C398 1.387 . S
C399 C401 1.387 . S
H400 C407 0.950 . S
C401 C399 1.387 . S
C401 C403 1.390 1_456 S
C401 H405 0.950 . S
H402 C398 0.950 . S
C403 C401 1.390 1_654 S
C403 C404 1.387 . S
C403 H406 0.950 . S
C404 C403 1.387 . S
C404 C407 1.387 . S
H405 C401 0.950 . S
H406 C403 0.950 . S
C407 C398 1.390 1_654 S
C407 H400 0.950 . S
C407 C404 1.387 . S
C169 C48 1.198 . S
C174 C6 1.198 . S
C179 C34 1.198 . S
C184 C20 1.198 . S
C189 C76 1.200 . S
C194 C62 1.200 . S
C199 C90 1.198 . S
C204 C104 1.198 . S
C209 C132 1.200 . S
C214 C118 1.200 . S
C219 C146 1.200 . S
C224 C160 1.200 . S
C229 C9 1.316 . S
C234 C105 1.162 . S
C239 C91 1.166 . S
C244 C23 1.316 . S
C249 C77 1.167 . S
C254 C37 1.316 . S
C259 C63 1.162 . S
C264 C51 1.317 . S
C269 C65 1.315 . S
C274 C161 1.168 . S
C279 C119 1.166 . S
C284 C79 1.315 . S
C289 C147 1.162 . S
C294 C93 1.317 . S
C299 C107 1.315 . S
C304 C133 1.167 . S
C309 C35 1.163 . S
C314 C121 1.316 . S
C319 C7 1.161 . S
C324 C135 1.317 . S
C329 C149 1.316 . S
C334 C21 1.164 . S
C339 C49 1.167 . S
C344 C163 1.315 . S
C349 C8 1.456 . S
C354 C22 1.456 . S
C359 C50 1.456 . S
C364 C36 1.456 . S
C369 C92 1.456 . S
C374 C64 1.456 . S
C379 C78 1.455 . S
C384 C106 1.455 . S
C389 C148 1.455 . S
C394 C120 1.455 . S
C399 C134 1.455 . S
C404 C162 1.455 . S
