# Generated by pormake.
# Topology upb, (4)-cn, num edge types: 1
# Building blocks:
#     Node 0, Type 0, BuildingBlock: GALJAG_clean_sbu_0, # of connection points: 4
#     Node 1, Type 0, BuildingBlock: GALJAG_clean_sbu_0, # of connection points: 4
#     Node 2, Type 0, BuildingBlock: GALJAG_clean_sbu_0, # of connection points: 4
#     Node 3, Type 0, BuildingBlock: GALJAG_clean_sbu_0, # of connection points: 4
#     Node 4, Type 0, BuildingBlock: GALJAG_clean_sbu_0, # of connection points: 4
#     Node 5, Type 0, BuildingBlock: GALJAG_clean_sbu_0, # of connection points: 4
#     Node 6, Type 0, BuildingBlock: GALJAG_clean_sbu_0, # of connection points: 4
#     Node 7, Type 0, BuildingBlock: GALJAG_clean_sbu_0, # of connection points: 4
#     Node 8, Type 0, BuildingBlock: GALJAG_clean_sbu_0, # of connection points: 4
#     Node 9, Type 0, BuildingBlock: GALJAG_clean_sbu_0, # of connection points: 4
#     Node 10, Type 0, BuildingBlock: GALJAG_clean_sbu_0, # of connection points: 4
#     Node 11, Type 0, BuildingBlock: GALJAG_clean_sbu_0, # of connection points: 4
#     Node 12, Type 0, BuildingBlock: GALJAG_clean_sbu_0, # of connection points: 4
#     Node 13, Type 0, BuildingBlock: GALJAG_clean_sbu_0, # of connection points: 4
#     Node 14, Type 0, BuildingBlock: GALJAG_clean_sbu_0, # of connection points: 4
#     Node 15, Type 0, BuildingBlock: GALJAG_clean_sbu_0, # of connection points: 4
#     Edge 16, Type (0, 0), BuildingBlock: EZIPEK_clean_linker_0, # of connection points: 2
#     Edge 17, Type (0, 0), BuildingBlock: EZIPEK_clean_linker_0, # of connection points: 2
#     Edge 18, Type (0, 0), BuildingBlock: EZIPEK_clean_linker_0, # of connection points: 2
#     Edge 19, Type (0, 0), BuildingBlock: EZIPEK_clean_linker_0, # of connection points: 2
#     Edge 20, Type (0, 0), BuildingBlock: EZIPEK_clean_linker_0, # of connection points: 2
#     Edge 21, Type (0, 0), BuildingBlock: EZIPEK_clean_linker_0, # of connection points: 2
#     Edge 22, Type (0, 0), BuildingBlock: EZIPEK_clean_linker_0, # of connection points: 2
#     Edge 23, Type (0, 0), BuildingBlock: EZIPEK_clean_linker_0, # of connection points: 2
#     Edge 24, Type (0, 0), BuildingBlock: EZIPEK_clean_linker_0, # of connection points: 2
#     Edge 25, Type (0, 0), BuildingBlock: EZIPEK_clean_linker_0, # of connection points: 2
#     Edge 26, Type (0, 0), BuildingBlock: EZIPEK_clean_linker_0, # of connection points: 2
#     Edge 27, Type (0, 0), BuildingBlock: EZIPEK_clean_linker_0, # of connection points: 2
#     Edge 28, Type (0, 0), BuildingBlock: EZIPEK_clean_linker_0, # of connection points: 2
#     Edge 29, Type (0, 0), BuildingBlock: EZIPEK_clean_linker_0, # of connection points: 2
#     Edge 30, Type (0, 0), BuildingBlock: EZIPEK_clean_linker_0, # of connection points: 2
#     Edge 31, Type (0, 0), BuildingBlock: EZIPEK_clean_linker_0, # of connection points: 2
#     Edge 32, Type (0, 0), BuildingBlock: EZIPEK_clean_linker_0, # of connection points: 2
#     Edge 33, Type (0, 0), BuildingBlock: EZIPEK_clean_linker_0, # of connection points: 2
#     Edge 34, Type (0, 0), BuildingBlock: EZIPEK_clean_linker_0, # of connection points: 2
#     Edge 35, Type (0, 0), BuildingBlock: EZIPEK_clean_linker_0, # of connection points: 2
#     Edge 36, Type (0, 0), BuildingBlock: EZIPEK_clean_linker_0, # of connection points: 2
#     Edge 37, Type (0, 0), BuildingBlock: EZIPEK_clean_linker_0, # of connection points: 2
#     Edge 38, Type (0, 0), BuildingBlock: EZIPEK_clean_linker_0, # of connection points: 2
#     Edge 39, Type (0, 0), BuildingBlock: EZIPEK_clean_linker_0, # of connection points: 2
#     Edge 40, Type (0, 0), BuildingBlock: EZIPEK_clean_linker_0, # of connection points: 2
#     Edge 41, Type (0, 0), BuildingBlock: EZIPEK_clean_linker_0, # of connection points: 2
#     Edge 42, Type (0, 0), BuildingBlock: EZIPEK_clean_linker_0, # of connection points: 2
#     Edge 43, Type (0, 0), BuildingBlock: EZIPEK_clean_linker_0, # of connection points: 2
#     Edge 44, Type (0, 0), BuildingBlock: EZIPEK_clean_linker_0, # of connection points: 2
#     Edge 45, Type (0, 0), BuildingBlock: EZIPEK_clean_linker_0, # of connection points: 2
#     Edge 46, Type (0, 0), BuildingBlock: EZIPEK_clean_linker_0, # of connection points: 2
#     Edge 47, Type (0, 0), BuildingBlock: EZIPEK_clean_linker_0, # of connection points: 2
# Relax obj value: 0.253
# Max RMSD: 0.089
# Mean RMSD: 0.089
data_MOF--net-upb--node1-GALJAG_clean_sbu_0--edge1-EZIPEK_clean_linker_0
_symmetry_space_group_name_H-M    P1
_symmetry_Int_Tables_number       1
_symmetry_cell_setting            triclinic
loop_
_symmetry_equiv_pos_as_xyz
'x, y, z'
_cell_length_a     32.413646
_cell_length_b     32.417356
_cell_length_c     26.677144
_cell_angle_alpha  90.017754
_cell_angle_beta   89.894138
_cell_angle_gamma 89.99714
loop_
_atom_site_label
_atom_site_type_symbol
_atom_site_fract_x
_atom_site_fract_y
_atom_site_fract_z
_atom_type_partial_charge
In0 In 0.04219 0.22677 0.29035 0.0
O1 O 0.08843 0.17733 0.31193 0.0
O2 O 0.07874 0.1882 0.23389 0.0
C3 C 0.0267 0.23225 0.38896 0.0
C4 C 0.0768 0.29842 0.26072 0.0
C5 C 0.96924 0.19413 0.26104 0.0
O6 O 0.04898 0.20407 0.37052 0.0
O7 O 0.01309 0.25823 0.35785 0.0
O8 O 0.97196 0.22104 0.29476 0.0
O9 O 0.00266 0.18613 0.23902 0.0
C10 C 0.09716 0.16764 0.2673 0.0
O11 O 0.04323 0.28593 0.24223 0.0
O12 O 0.09197 0.27525 0.29359 0.0
In13 In 0.76304 0.04108 0.30151 0.0
O14 O 0.81998 0.07793 0.32106 0.0
O15 O 0.79746 0.08263 0.24604 0.0
C16 C 0.75555 0.02868 0.40057 0.0
C17 C 0.69294 0.07691 0.27065 0.0
C18 C 0.79279 0.96695 0.27189 0.0
O19 O 0.78294 0.05187 0.38226 0.0
O20 O 0.73127 0.01271 0.3692 0.0
O21 O 0.76202 0.97038 0.30028 0.0
O22 O 0.80629 0.00058 0.25518 0.0
C23 C 0.82436 0.09322 0.27784 0.0
O24 O 0.70583 0.0438 0.25127 0.0
O25 O 0.71512 0.09143 0.30501 0.0
In26 In 0.95608 0.76681 0.30053 0.0
O27 O 0.95255 0.69701 0.31298 0.0
O28 O 0.91951 0.72167 0.25181 0.0
C29 C 0.02488 0.80102 0.26033 0.0
C30 C 0.89723 0.82358 0.28586 0.0
C31 C 0.97023 0.77126 0.39938 0.0
O32 O 0.02516 0.76547 0.27943 0.0
O33 O 0.98967 0.81687 0.25695 0.0
O34 O 0.93423 0.77298 0.38152 0.0
O35 O 0.99888 0.76752 0.36771 0.0
C36 C 0.92741 0.6906 0.27822 0.0
O37 O 0.90914 0.81282 0.32899 0.0
O38 O 0.91425 0.80492 0.24968 0.0
In39 In 0.23091 0.95277 0.29694 0.0
O40 O 0.29562 0.9532 0.26165 0.0
O41 O 0.27287 0.89742 0.29338 0.0
C42 C 0.19769 0.02475 0.26757 0.0
C43 C 0.17149 0.90009 0.2684 0.0
C44 C 0.24433 0.96972 0.39395 0.0
O45 O 0.22545 0.0073 0.24182 0.0
O46 O 0.18722 0.00618 0.30691 0.0
O47 O 0.21595 0.94602 0.37941 0.0
O48 O 0.26698 0.98415 0.35964 0.0
C49 C 0.30217 0.9157 0.27173 0.0
O50 O 0.1832 0.9042 0.31312 0.0
O51 O 0.19026 0.92225 0.23677 0.0
In52 In 0.03788 0.77785 0.70396 0.0
O53 O 0.09045 0.82208 0.68768 0.0
O54 O 0.07624 0.8099 0.76427 0.0
C55 C 0.01294 0.77579 0.60856 0.0
C56 C 0.07616 0.7051 0.71785 0.0
C57 C 0.9668 0.80721 0.74146 0.0
O58 O 0.03994 0.80099 0.62375 0.0
O59 O 0.99851 0.75163 0.64136 0.0
O60 O 0.97665 0.76971 0.74659 0.0
O61 O 0.99335 0.82941 0.72014 0.0
C62 C 0.09819 0.82936 0.73315 0.0
O63 O 0.06031 0.7248 0.75393 0.0
O64 O 0.07054 0.72092 0.67542 0.0
In65 In 0.23039 0.03888 0.69746 0.0
O66 O 0.18313 0.08749 0.67608 0.0
O67 O 0.193 0.07659 0.75387 0.0
C68 C 0.23985 0.01462 0.60247 0.0
C69 C 0.29994 0.0809 0.71764 0.0
C70 C 0.20142 0.96751 0.73435 0.0
O71 O 0.21373 0.04159 0.61536 0.0
O72 O 0.26136 -0.00025 0.6376 0.0
O73 O 0.23827 0.97855 0.74217 0.0
O74 O 0.17992 0.99263 0.70982 0.0
C75 C 0.17319 0.09589 0.72067 0.0
O76 O 0.27828 0.06513 0.75204 0.0
O77 O 0.28778 0.07343 0.67388 0.0
In78 In 0.95701 0.22837 0.69495 0.0
O79 O 0.95517 0.28821 0.74066 0.0
O80 O 0.9092 0.27848 0.68517 0.0
C81 C 0.02796 0.19408 0.72555 0.0
C82 C 0.90071 0.17524 0.73134 0.0
C83 C 0.97699 0.23488 0.59724 0.0
O84 O 0.01941 0.23132 0.73499 0.0
O85 O 0.0002 0.17413 0.70312 0.0
O86 O 0.94523 0.21612 0.61224 0.0
O87 O 0.998 0.25167 0.63132 0.0
C88 C 0.92297 0.30132 0.71943 0.0
O89 O 0.90734 0.18007 0.68514 0.0
O90 O 0.92219 0.19762 0.75995 0.0
In91 In 0.76967 0.96436 0.70625 0.0
O92 O 0.81928 0.91716 0.6902 0.0
O93 O 0.80313 0.92692 0.76676 0.0
C94 C 0.75997 0.98731 0.61045 0.0
C95 C 0.70043 0.9219 0.72604 0.0
C96 C 0.79951 0.03598 0.74171 0.0
O97 O 0.78796 0.96296 0.6245 0.0
O98 O 0.73632 0.00018 0.64469 0.0
O99 O 0.7626 0.02528 0.74986 0.0
O100 O 0.82095 0.01012 0.71803 0.0
C101 C 0.82545 0.90793 0.73546 0.0
O102 O 0.71214 0.95102 0.75415 0.0
O103 O 0.72317 0.91491 0.68872 0.0
In104 In 0.53697 0.72884 0.79076 0.0
O105 O 0.54856 0.78597 0.74079 0.0
O106 O 0.58471 0.7773 0.80628 0.0
C107 C 0.465 0.69827 0.75578 0.0
C108 C 0.5931 0.67025 0.77042 0.0
C109 C 0.5159 0.7322 0.88755 0.0
O110 O 0.46642 0.72771 0.78642 0.0
O111 O 0.49948 0.68765 0.73837 0.0
O112 O 0.53859 0.70392 0.87002 0.0
O113 O 0.5042 0.75907 0.85634 0.0
C114 C 0.57767 0.79879 0.76811 0.0
O115 O 0.58039 0.67746 0.81433 0.0
O116 O 0.57773 0.69266 0.73653 0.0
In117 In 0.26163 0.54033 0.79257 0.0
O118 O 0.31688 0.57913 0.81415 0.0
O119 O 0.2951 0.5842 0.73894 0.0
C120 C 0.25493 0.52392 0.89099 0.0
C121 C 0.19204 0.57774 0.76298 0.0
C122 C 0.29327 0.46842 0.75788 0.0
O123 O 0.28355 0.54591 0.87321 0.0
O124 O 0.229 0.511 0.85941 0.0
O125 O 0.26284 0.46959 0.78714 0.0
O126 O 0.30518 0.50316 0.74289 0.0
C127 C 0.32116 0.59533 0.77139 0.0
O128 O 0.20538 0.54594 0.74093 0.0
O129 O 0.21313 0.58978 0.79966 0.0
In130 In 0.45897 0.27265 0.79607 0.0
O131 O 0.45015 0.21875 0.74195 0.0
O132 O 0.41204 0.22194 0.80697 0.0
C133 C 0.53054 0.30546 0.76433 0.0
C134 C 0.40251 0.32944 0.77009 0.0
C135 C 0.47947 0.26179 0.89243 0.0
O136 O 0.52077 0.26875 0.7538 0.0
O137 O 0.50408 0.32521 0.78912 0.0
O138 O 0.45211 0.28677 0.87839 0.0
O139 O 0.49648 0.24124 0.85789 0.0
C140 C 0.42103 0.20325 0.76712 0.0
O141 O 0.41 0.3195 0.81476 0.0
O142 O 0.42338 0.31051 0.73736 0.0
In143 In 0.73154 0.4585 0.79509 0.0
O144 O 0.79441 0.45815 0.75526 0.0
O145 O 0.7743 0.40385 0.79295 0.0
C146 C 0.69737 0.53029 0.76672 0.0
C147 C 0.6737 0.40462 0.76517 0.0
C148 C 0.74791 0.47521 0.89152 0.0
O149 O 0.7274 0.51495 0.74287 0.0
O150 O 0.68499 0.50966 0.80372 0.0
O151 O 0.71913 0.45149 0.87826 0.0
O152 O 0.76913 0.49014 0.85622 0.0
C153 C 0.80202 0.42128 0.76754 0.0
O154 O 0.68416 0.40902 0.81033 0.0
O155 O 0.69296 0.42696 0.73417 0.0
In156 In 0.53419 0.26633 0.20115 0.0
O157 O 0.59118 0.3011 0.17671 0.0
O158 O 0.56697 0.31478 0.2492 0.0
C159 C 0.51874 0.2607 0.10276 0.0
C160 C 0.56642 0.19348 0.22941 0.0
C161 C 0.46383 0.2996 0.23655 0.0
O162 O 0.5512 0.27684 0.11982 0.0
O163 O 0.4939 0.247 0.13524 0.0
O164 O 0.47579 0.26439 0.25081 0.0
O165 O 0.4875 0.3176 0.20628 0.0
C166 C 0.59381 0.32246 0.2161 0.0
O167 O 0.57121 0.22589 0.25476 0.0
O168 O 0.54283 0.197 0.19235 0.0
In169 In 0.73734 0.53669 0.19679 0.0
O170 O 0.69909 0.59066 0.17071 0.0
O171 O 0.69187 0.57157 0.24684 0.0
C172 C 0.75073 0.51642 0.10061 0.0
C173 C 0.80534 0.57109 0.23597 0.0
C174 C 0.69879 0.46586 0.22149 0.0
O175 O 0.72236 0.54055 0.11413 0.0
O176 O 0.77316 0.50288 0.13548 0.0
O177 O 0.73755 0.46752 0.21712 0.0
O178 O 0.68058 0.49983 0.21662 0.0
C179 C 0.68022 0.59516 0.21183 0.0
O180 O 0.7856 0.5435 0.25935 0.0
O181 O 0.79105 0.58045 0.19375 0.0
In182 In 0.45569 0.72409 0.19555 0.0
O183 O 0.40698 0.67553 0.18352 0.0
O184 O 0.42057 0.69199 0.25924 0.0
C185 C 0.46958 0.73114 0.09653 0.0
C186 C 0.42384 0.79662 0.22583 0.0
C187 C 0.528 0.68771 0.2182 0.0
O188 O 0.43763 0.71423 0.11399 0.0
O189 O 0.49381 0.74575 0.12887 0.0
O190 O 0.52397 0.72648 0.21874 0.0
O191 O 0.49535 0.66795 0.2094 0.0
C192 C 0.39987 0.66977 0.22948 0.0
O193 O 0.454 0.78024 0.24819 0.0
O194 O 0.41118 0.77712 0.18813 0.0
In195 In 0.2695 0.45751 0.19698 0.0
O196 O 0.31696 0.4073 0.18493 0.0
O197 O 0.30326 0.42384 0.26052 0.0
C198 C 0.25988 0.47908 0.10024 0.0
C199 C 0.19766 0.41951 0.21761 0.0
C200 C 0.30139 0.52805 0.23301 0.0
O201 O 0.28674 0.45357 0.11443 0.0
O202 O 0.23739 0.49353 0.1346 0.0
O203 O 0.26656 0.51505 0.24729 0.0
O204 O 0.31997 0.5053 0.2021 0.0
C205 C 0.32414 0.40169 0.23085 0.0
O206 O 0.20584 0.45496 0.23451 0.0
O207 O 0.22535 0.40385 0.19046 0.0
C208 C 0.1116 0.09661 0.2339 0.0
C209 C 0.12627 0.1338 0.25572 0.0
C210 C 0.1929 0.10136 0.27371 0.0
C211 C 0.17765 0.06391 0.25366 0.0
N212 N 0.12776 0.02764 0.20388 0.0
N213 N 0.18324 0.17517 0.2843 0.0
C214 C 0.13873 0.0623 0.22983 0.0
C215 C 0.16782 0.13731 0.27169 0.0
N216 N 0.0711 0.09319 0.22023 0.0
N217 N 0.23057 0.10195 0.29665 0.0
H218 H 0.16557 0.20205 0.2826 0.0
H219 H 0.21421 0.18061 0.29215 0.0
H220 H 0.25041 0.07659 0.29638 0.0
H221 H 0.24144 0.1267 0.31767 0.0
H222 H 0.05725 0.06549 0.20998 0.0
H223 H 0.05035 0.11768 0.22195 0.0
H224 H 0.10137 0.0255 0.18187 0.0
H225 H 0.14717 0.00206 0.2008 0.0
C226 C 0.9359 0.12532 0.27276 0.0
C227 C 0.93263 0.16714 0.25729 0.0
C228 C 0.85744 0.16007 0.25107 0.0
C229 C 0.86117 0.11795 0.2648 0.0
N230 N 0.9042 0.05784 0.27449 0.0
N231 N 0.89209 0.22246 0.2229 0.0
C232 C 0.90054 0.09976 0.27102 0.0
C233 C 0.89387 0.18393 0.24356 0.0
N234 N 0.97195 0.11058 0.2925 0.0
N235 N 0.81924 0.1777 0.24762 0.0
H236 H 0.91834 0.24049 0.21709 0.0
H237 H 0.86536 0.2351 0.20772 0.0
H238 H 0.79199 0.16103 0.2523 0.0
H239 H 0.81449 0.20926 0.2433 0.0
H240 H 0.97435 0.08184 0.30971 0.0
H241 H 0.99862 0.12822 0.29634 0.0
H242 H 0.93248 0.04256 0.27399 0.0
H243 H 0.87892 0.03802 0.27242 0.0
C244 C 0.80796 0.89351 0.24718 0.0
C245 C 0.81915 0.92991 0.27324 0.0
C246 C 0.88381 0.89812 0.29977 0.0
C247 C 0.87079 0.86019 0.2787 0.0
N248 N 0.81893 0.81985 0.23642 0.0
N249 N 0.86309 0.96371 0.33398 0.0
C250 C 0.83249 0.85731 0.25314 0.0
C251 C 0.85579 0.93138 0.30221 0.0
N252 N 0.77439 0.89383 0.2163 0.0
N253 N 0.92359 0.90299 0.31575 0.0
H254 H 0.84301 0.98856 0.33827 0.0
H255 H 0.88707 0.96387 0.35994 0.0
H256 H 0.94573 0.8798 0.31301 0.0
H257 H 0.93582 0.93137 0.3265 0.0
H258 H 0.76685 0.86964 0.19234 0.0
H259 H 0.7556 0.91975 0.21207 0.0
H260 H 0.78951 0.8149 0.22206 0.0
H261 H 0.83618 0.79286 0.24018 0.0
C262 C 0.06352 0.8638 0.28669 0.0
C263 C 0.06238 0.82702 0.25769 0.0
C264 C 0.13378 0.83943 0.23071 0.0
C265 C 0.13318 0.87744 0.25703 0.0
N266 N 0.09367 0.93138 0.29655 0.0
N267 N 0.09386 0.7826 0.19613 0.0
C268 C 0.09666 0.89147 0.28033 0.0
C269 C 0.09679 0.81561 0.22773 0.0
N270 N 0.03487 0.87092 0.32341 0.0
N271 N 0.16987 0.82552 0.21031 0.0
H272 H 0.06722 0.76466 0.19348 0.0
H273 H 0.11649 0.77492 0.16999 0.0
H274 H 0.19696 0.84292 0.21086 0.0
H275 H 0.17351 0.79608 0.19536 0.0
H276 H 0.03686 0.89554 0.34842 0.0
H277 H 0.01214 0.84973 0.33332 0.0
H278 H 0.06618 0.94416 0.30966 0.0
H279 H 0.11734 0.95283 0.29163 0.0
C280 C 0.11755 0.89662 0.77363 0.0
C281 C 0.12951 0.86014 0.74797 0.0
C282 C 0.19655 0.89057 0.72739 0.0
C283 C 0.18355 0.92779 0.75039 0.0
N284 N 0.13918 0.96209 0.80922 0.0
N285 N 0.18404 0.81738 0.71565 0.0
C286 C 0.14656 0.92915 0.77854 0.0
C287 C 0.1704 0.85547 0.72998 0.0
N288 N 0.07782 0.90159 0.78984 0.0
N289 N 0.23233 0.88949 0.70027 0.0
H290 H 0.16554 0.79116 0.71857 0.0
H291 H 0.21454 0.8111 0.70598 0.0
H292 H 0.25296 0.91412 0.69891 0.0
H293 H 0.24062 0.86494 0.67717 0.0
H294 H 0.06621 0.92946 0.80321 0.0
H295 H 0.05539 0.87871 0.78702 0.0
H296 H 0.11435 0.96367 0.83397 0.0
H297 H 0.16049 0.98601 0.81337 0.0
C298 C 0.10365 0.11104 0.75838 0.0
C299 C 0.13931 0.1249 0.73235 0.0
C300 C 0.1042 0.18913 0.70991 0.0
C301 C 0.06853 0.17514 0.73573 0.0
N302 N 0.03845 0.1298 0.79691 0.0
N303 N 0.1778 0.18134 0.69693 0.0
C304 C 0.06975 0.13835 0.76419 0.0
C305 C 0.14095 0.16542 0.71257 0.0
N306 N 0.10087 0.07111 0.77455 0.0
N307 N 0.10243 0.22347 0.68026 0.0
H308 H 0.20532 0.16486 0.69963 0.0
H309 H 0.18176 0.21203 0.68642 0.0
H310 H 0.07643 0.2422 0.67761 0.0
H311 H 0.12594 0.23191 0.65565 0.0
H312 H 0.07376 0.05821 0.7885 0.0
H313 H 0.12459 0.0497 0.77046 0.0
H314 H 0.03903 0.10513 0.82191 0.0
H315 H 0.01399 0.1502 0.80272 0.0
C316 C 0.82884 0.14844 0.73215 0.0
C317 C 0.87 0.14494 0.7494 0.0
C318 C 0.85458 0.07643 0.7829 0.0
C319 C 0.8172 0.07641 0.75561 0.0
N320 N 0.76694 0.11277 0.70565 0.0
N321 N 0.92261 0.10615 0.79265 0.0
C322 C 0.80319 0.11289 0.73172 0.0
C323 C 0.8828 0.10951 0.77643 0.0
N324 N 0.81458 0.18584 0.71611 0.0
N325 N 0.863 0.04434 0.81446 0.0
H326 H 0.94403 0.12989 0.78918 0.0
H327 H 0.93513 0.07905 0.80701 0.0
H328 H 0.84219 0.02016 0.81993 0.0
H329 H 0.8882 0.04371 0.83859 0.0
H330 H 0.78386 0.19147 0.70705 0.0
H331 H 0.83287 0.21235 0.71665 0.0
H332 H 0.75789 0.13656 0.68187 0.0
H333 H 0.74658 0.08793 0.70584 0.0
C334 C 0.89106 0.888 0.77969 0.0
C335 C 0.85676 0.87683 0.74954 0.0
C336 C 0.89088 0.81233 0.72548 0.0
C337 C 0.92582 0.82436 0.75389 0.0
N338 N 0.955 0.8662 0.81906 0.0
N339 N 0.81881 0.82394 0.706 0.0
C340 C 0.92425 0.85969 0.785 0.0
C341 C 0.85495 0.83735 0.72671 0.0
N342 N 0.89348 0.92664 0.80002 0.0
N343 N 0.893 0.77891 0.6943 0.0
H344 H 0.79213 0.84189 0.70548 0.0
H345 H 0.81418 0.79386 0.69349 0.0
H346 H 0.91815 0.75895 0.69314 0.0
H347 H 0.87071 0.77212 0.66748 0.0
H348 H 0.9199 0.9382 0.81715 0.0
H349 H 0.87004 0.94845 0.79696 0.0
H350 H 0.9542 0.88947 0.84596 0.0
H351 H 0.97949 0.84558 0.82342 0.0
C352 C 0.66367 0.64076 0.78199 0.0
C353 C 0.62395 0.63777 0.75995 0.0
C354 C 0.64177 0.57009 0.72515 0.0
C355 C 0.67802 0.57017 0.75442 0.0
N356 N 0.72635 0.60538 0.80746 0.0
N357 N 0.57396 0.59944 0.71159 0.0
C358 C 0.69014 0.60579 0.78129 0.0
C359 C 0.61289 0.60276 0.73085 0.0
N360 N 0.67607 0.67719 0.80299 0.0
N361 N 0.63514 0.53855 0.69218 0.0
H362 H 0.55177 0.62251 0.71512 0.0
H363 H 0.56256 0.57268 0.69508 0.0
H364 H 0.65649 0.51478 0.68718 0.0
H365 H 0.61096 0.53797 0.66656 0.0
H366 H 0.70587 0.68278 0.81573 0.0
H367 H 0.65723 0.70324 0.80439 0.0
H368 H 0.73494 0.628 0.83307 0.0
H369 H 0.74753 0.58124 0.80443 0.0
C370 C 0.43184 0.62955 0.76939 0.0
C371 C 0.42842 0.67109 0.75274 0.0
C372 C 0.3534 0.66281 0.74495 0.0
C373 C 0.3576 0.62083 0.75912 0.0
N374 N 0.40164 0.5615 0.7689 0.0
N375 N 0.38755 0.72532 0.71628 0.0
C376 C 0.39713 0.60336 0.76616 0.0
C377 C 0.38961 0.68715 0.73781 0.0
N378 N 0.46714 0.61562 0.79182 0.0
N379 N 0.31499 0.67978 0.74046 0.0
H380 H 0.41362 0.74364 0.71056 0.0
H381 H 0.36083 0.73733 0.70034 0.0
H382 H 0.28796 0.66267 0.74476 0.0
H383 H 0.30983 0.71122 0.7356 0.0
H384 H 0.46912 0.58698 0.80938 0.0
H385 H 0.49303 0.63387 0.79816 0.0
H386 H 0.4303 0.54692 0.76923 0.0
H387 H 0.37689 0.54126 0.7649 0.0
C388 C 0.31148 0.39626 0.73012 0.0
C389 C 0.32146 0.43269 0.75691 0.0
C390 C 0.38843 0.40384 0.77957 0.0
C391 C 0.37647 0.36555 0.75886 0.0
N392 N 0.326 0.32342 0.71685 0.0
N393 N 0.36539 0.4673 0.81706 0.0
C394 C 0.33792 0.36121 0.73427 0.0
C395 C 0.35891 0.43557 0.78418 0.0
N396 N 0.27714 0.39543 0.70055 0.0
N397 N 0.42834 0.41014 0.79421 0.0
H398 H 0.34385 0.4905 0.82384 0.0
H399 H 0.39032 0.46827 0.84163 0.0
H400 H 0.45121 0.38775 0.79027 0.0
H401 H 0.43965 0.43891 0.80494 0.0
H402 H 0.27011 0.37123 0.67637 0.0
H403 H 0.25704 0.42048 0.69771 0.0
H404 H 0.29656 0.31715 0.70331 0.0
H405 H 0.34506 0.29754 0.7186 0.0
C406 C 0.60316 0.39065 0.73013 0.0
C407 C 0.64049 0.37568 0.75101 0.0
C408 C 0.60784 0.30943 0.77017 0.0
C409 C 0.57022 0.32482 0.75052 0.0
N410 N 0.53511 0.37399 0.69827 0.0
N411 N 0.68206 0.31782 0.77621 0.0
C412 C 0.56907 0.36343 0.72572 0.0
C413 C 0.64402 0.33391 0.76598 0.0
N414 N 0.59917 0.43141 0.71803 0.0
N415 N 0.60856 0.27303 0.796 0.0
H416 H 0.70909 0.33513 0.77285 0.0
H417 H 0.68719 0.2866 0.78298 0.0
H418 H 0.58295 0.25387 0.79974 0.0
H419 H 0.63395 0.26302 0.81655 0.0
H420 H 0.57116 0.44501 0.70844 0.0
H421 H 0.62325 0.45251 0.72096 0.0
H422 H 0.53371 0.40016 0.67569 0.0
H423 H 0.50988 0.35425 0.69417 0.0
C424 C 0.64837 0.42056 0.17858 0.0
C425 C 0.67523 0.42689 0.21977 0.0
C426 C 0.65179 0.36183 0.25712 0.0
C427 C 0.62157 0.3585 0.21885 0.0
N428 N 0.58489 0.38991 0.14987 0.0
N429 N 0.70056 0.40607 0.30071 0.0
C430 C 0.61817 0.38926 0.18137 0.0
C431 C 0.67664 0.3981 0.25974 0.0
N432 N 0.65248 0.44368 0.13597 0.0
N433 N 0.6575 0.32994 0.28986 0.0
H434 H 0.71951 0.432 0.30323 0.0
H435 H 0.69961 0.38857 0.33341 0.0
H436 H 0.63972 0.30312 0.28893 0.0
H437 H 0.68172 0.32869 0.31539 0.0
H438 H 0.6365 0.43732 0.103 0.0
H439 H 0.67504 0.46631 0.13158 0.0
H440 H 0.57886 0.41421 0.1254 0.0
H441 H 0.56082 0.36865 0.15193 0.0
C442 C 0.57729 0.64058 0.17562 0.0
C443 C 0.56863 0.66687 0.21677 0.0
C444 C 0.6362 0.65007 0.25287 0.0
C445 C 0.64189 0.61982 0.21496 0.0
N446 N 0.61183 0.57875 0.14855 0.0
N447 N 0.58763 0.69373 0.29779 0.0
C448 C 0.61077 0.61292 0.17864 0.0
C449 C 0.59756 0.67104 0.25634 0.0
N450 N 0.55455 0.64307 0.13259 0.0
N451 N 0.66794 0.65959 0.28444 0.0
H452 H 0.5597 0.70943 0.30138 0.0
H453 H 0.60567 0.69444 0.33005 0.0
H454 H 0.69657 0.64495 0.28266 0.0
H455 H 0.66704 0.68418 0.30954 0.0
H456 H 0.56224 0.62709 0.09997 0.0
H457 H 0.53118 0.66472 0.12744 0.0
H458 H 0.58756 0.5706 0.12495 0.0
H459 H 0.63437 0.55593 0.15132 0.0
C460 C 0.38311 0.60255 0.27182 0.0
C461 C 0.36971 0.63834 0.24588 0.0
C462 C 0.30434 0.6048 0.22485 0.0
C463 C 0.31892 0.56823 0.24785 0.0
N464 N 0.36444 0.53582 0.30664 0.0
N465 N 0.31387 0.67836 0.21201 0.0
C466 C 0.35578 0.56846 0.27608 0.0
C467 C 0.32888 0.64104 0.22732 0.0
N468 N 0.42268 0.59995 0.28914 0.0
N469 N 0.26846 0.60416 0.19804 0.0
H470 H 0.33132 0.70538 0.21415 0.0
H471 H 0.28326 0.68328 0.20186 0.0
H472 H 0.24905 0.57852 0.19695 0.0
H473 H 0.25886 0.62822 0.17502 0.0
H474 H 0.43568 0.57282 0.30277 0.0
H475 H 0.44349 0.6244 0.28744 0.0
H476 H 0.38928 0.53513 0.33132 0.0
H477 H 0.344 0.51116 0.31085 0.0
C478 C 0.3513 0.32987 0.23344 0.0
C479 C 0.35577 0.3718 0.24746 0.0
C480 C 0.42628 0.35796 0.27546 0.0
C481 C 0.42448 0.31901 0.25163 0.0
N482 N 0.38547 0.26646 0.20879 0.0
N483 N 0.39729 0.42659 0.28218 0.0
C484 C 0.38674 0.30404 0.23194 0.0
C485 C 0.39286 0.38592 0.26983 0.0
N486 N 0.3131 0.31502 0.22151 0.0
N487 N 0.46037 0.36813 0.30287 0.0
H488 H 0.37353 0.448 0.27868 0.0
H489 H 0.42519 0.43975 0.29299 0.0
H490 H 0.48506 0.34778 0.30743 0.0
H491 H 0.46246 0.39462 0.32479 0.0
H492 H 0.30697 0.28395 0.21504 0.0
H493 H 0.28668 0.33343 0.2228 0.0
H494 H 0.36035 0.25607 0.18806 0.0
H495 H 0.41048 0.24624 0.20829 0.0
C496 C 0.11099 0.36358 0.28594 0.0
C497 C 0.09763 0.33735 0.24672 0.0
C498 C 0.13818 0.37788 0.18713 0.0
C499 C 0.15873 0.39712 0.22784 0.0
N500 N 0.16605 0.40644 0.31749 0.0
N501 N 0.09932 0.31855 0.15904 0.0
C502 C 0.14501 0.39026 0.27772 0.0
C503 C 0.11069 0.34469 0.19675 0.0
N504 N 0.09106 0.36273 0.33111 0.0
N505 N 0.14481 0.39161 0.13935 0.0
H506 H 0.07908 0.29397 0.16415 0.0
H507 H 0.11219 0.31962 0.12325 0.0
H508 H 0.16393 0.41668 0.13137 0.0
H509 H 0.12804 0.38116 0.10859 0.0
H510 H 0.09709 0.3836 0.35989 0.0
H511 H 0.06535 0.34405 0.33751 0.0
H512 H 0.16 0.3982 0.35453 0.0
H513 H 0.19173 0.42546 0.31378 0.0
C514 C 0.62299 0.10468 0.29036 0.0
C515 C 0.65502 0.0983 0.25478 0.0
C516 C 0.62552 0.15061 0.19963 0.0
C517 C 0.59384 0.15761 0.2356 0.0
N518 N 0.55679 0.13642 0.30935 0.0
N519 N 0.6815 0.10705 0.1709 0.0
C520 C 0.59077 0.13298 0.27921 0.0
C521 C 0.65423 0.11827 0.20763 0.0
N522 N 0.62409 0.08425 0.33518 0.0
N523 N 0.63022 0.17685 0.15981 0.0
H524 H 0.7042 0.0847 0.17592 0.0
H525 H 0.67941 0.11726 0.13399 0.0
H526 H 0.61036 0.20134 0.15231 0.0
H527 H 0.65579 0.17659 0.13614 0.0
H528 H 0.60476 0.09096 0.36529 0.0
H529 H 0.64555 0.06111 0.34289 0.0
H530 H 0.55067 0.11698 0.33949 0.0
H531 H 0.5328 0.15695 0.30175 0.0
C532 C 0.83856 0.61775 0.29907 0.0
C533 C 0.84198 0.59263 0.25575 0.0
C534 C 0.90677 0.62655 0.23242 0.0
C535 C 0.90267 0.65252 0.27477 0.0
N536 N 0.87134 0.6661 0.35551 0.0
N537 N 0.88396 0.56453 0.18958 0.0
C538 C 0.87104 0.64551 0.31075 0.0
C539 C 0.8778 0.59423 0.22521 0.0
N540 N 0.80294 0.61776 0.32665 0.0
N541 N 0.93762 0.63361 0.19851 0.0
H542 H 0.86342 0.54009 0.18441 0.0
H543 H 0.91092 0.56182 0.16859 0.0
H544 H 0.96058 0.65568 0.20429 0.0
H545 H 0.9395 0.619 0.16382 0.0
H546 H 0.79638 0.6395 0.35428 0.0
H547 H 0.77841 0.59779 0.31993 0.0
H548 H 0.85184 0.65872 0.38525 0.0
H549 H 0.89323 0.68828 0.36491 0.0
C550 C 0.3586 0.89138 0.21348 0.0
C551 C 0.34177 0.89435 0.26242 0.0
C552 C 0.38679 0.83875 0.29159 0.0
C553 C 0.40288 0.83491 0.24225 0.0
N554 N 0.415 0.86645 0.16186 0.0
N555 N 0.35033 0.88219 0.35086 0.0
C556 C 0.39245 0.86442 0.20511 0.0
C557 C 0.35956 0.87183 0.30245 0.0
N558 N 0.34075 0.91188 0.17439 0.0
N559 N 0.39465 0.80942 0.32709 0.0
H560 H 0.33113 0.90699 0.35986 0.0
H561 H 0.36517 0.86926 0.3817 0.0
H562 H 0.41411 0.78434 0.32135 0.0
H563 H 0.37932 0.80832 0.36143 0.0
H564 H 0.34884 0.9068 0.13708 0.0
H565 H 0.31585 0.93189 0.17868 0.0
H566 H 0.41112 0.88951 0.13509 0.0
H567 H 0.44061 0.84761 0.15552 0.0
C568 C 0.16832 0.6332 0.70655 0.0
C569 C 0.15842 0.60353 0.74341 0.0
C570 C 0.09066 0.63544 0.75538 0.0
C571 C 0.10344 0.66896 0.72483 0.0
N572 N 0.15813 0.703 0.6783 0.0
N573 N 0.11153 0.57632 0.80511 0.0
C574 C 0.14303 0.66854 0.70159 0.0
C575 C 0.11982 0.60446 0.76833 0.0
N576 N 0.20247 0.62812 0.67702 0.0
N577 N 0.0505 0.63259 0.77069 0.0
H578 H 0.13148 0.552 0.81348 0.0
H579 H 0.08605 0.5783 0.82883 0.0
H580 H 0.02811 0.65416 0.76068 0.0
H581 H 0.03853 0.60698 0.78923 0.0
H582 H 0.20886 0.64669 0.6461 0.0
H583 H 0.22221 0.60287 0.68027 0.0
H584 H 0.18853 0.70564 0.666 0.0
H585 H 0.14216 0.73076 0.67592 0.0
C586 C 0.39527 0.13079 0.77438 0.0
C587 C 0.39524 0.16912 0.7488 0.0
C588 C 0.33255 0.14992 0.70405 0.0
C589 C 0.33366 0.11049 0.72741 0.0
N590 N 0.37045 0.0602 0.77671 0.0
N591 N 0.36955 0.212 0.68174 0.0
C592 C 0.36631 0.09993 0.76033 0.0
C593 C 0.36599 0.17741 0.7108 0.0
N594 N 0.42258 0.12418 0.81252 0.0
N595 N 0.29818 0.16258 0.67859 0.0
H596 H 0.39255 0.23406 0.68668 0.0
H597 H 0.35181 0.21704 0.6498 0.0
H598 H 0.27186 0.14456 0.6743 0.0
H599 H 0.29385 0.19271 0.66614 0.0
H600 H 0.42096 0.09897 0.83662 0.0
H601 H 0.44575 0.14521 0.82174 0.0
H602 H 0.39583 0.04972 0.7969 0.0
H603 H 0.35028 0.03667 0.76626 0.0
C604 C 0.88779 0.34537 0.78457 0.0
C605 C 0.901 0.33942 0.7343 0.0
C606 C 0.85452 0.39418 0.70583 0.0
C607 C 0.84104 0.39965 0.75599 0.0
N608 N 0.85509 0.39146 0.84405 0.0
N609 N 0.90737 0.36674 0.65068 0.0
C610 C 0.86131 0.37895 0.79569 0.0
C611 C 0.88784 0.36685 0.69612 0.0
N612 N 0.89757 0.31746 0.82107 0.0
N613 N 0.83399 0.41266 0.66721 0.0
H614 H 0.93252 0.3476 0.64306 0.0
H615 H 0.90157 0.38844 0.62278 0.0
H616 H 0.80939 0.43288 0.67246 0.0
H617 H 0.83952 0.40568 0.62968 0.0
H618 H 0.8844 0.31799 0.85671 0.0
H619 H 0.91608 0.2917 0.81504 0.0
H620 H 0.87183 0.37987 0.87424 0.0
H621 H 0.83645 0.41666 0.85317 0.0
C622 C 0.62533 0.90346 0.73687 0.0
C623 C 0.66764 0.89255 0.73998 0.0
C624 C 0.64933 0.82021 0.75016 0.0
C625 C 0.60711 0.83122 0.75293 0.0
N626 N 0.55439 0.88365 0.75435 0.0
N627 N 0.71945 0.84262 0.76274 0.0
C628 C 0.59478 0.87299 0.74758 0.0
C629 C 0.67949 0.85151 0.75055 0.0
N630 N 0.61448 0.94242 0.72255 0.0
N631 N 0.66061 0.77976 0.74522 0.0
H632 H 0.74209 0.86532 0.76589 0.0
H633 H 0.72893 0.81367 0.77521 0.0
H634 H 0.63914 0.75598 0.74174 0.0
H635 H 0.69092 0.77044 0.73866 0.0
H636 H 0.58428 0.95108 0.71448 0.0
H637 H 0.63622 0.96549 0.71571 0.0
H638 H 0.54417 0.91407 0.75608 0.0
H639 H 0.53137 0.86194 0.76148 0.0
C640 C 0.01894 0.26988 0.47078 0.0
C641 C 0.01475 0.23305 0.44248 0.0
C642 C 0.9913 0.1966 0.51749 0.0
C643 C 0.99021 0.23452 0.54409 0.0
N644 N 0.99559 0.30887 0.54282 0.0
N645 N 0.98708 0.16391 0.43637 0.0
C646 C 0.00203 0.2717 0.51991 0.0
C647 C 0.99817 0.19706 0.46506 0.0
N648 N 0.04038 0.30259 0.45161 0.0
N649 N 0.98774 0.15991 0.54239 0.0
H650 H 0.9896 0.16346 0.39741 0.0
H651 H 0.97108 0.13865 0.45079 0.0
H652 H 0.98497 0.1578 0.58125 0.0
H653 H 0.99234 0.13147 0.52503 0.0
H654 H 0.04779 0.32865 0.47261 0.0
H655 H 0.05446 0.30193 0.41645 0.0
H656 H -0.00014 0.33702 0.52472 0.0
H657 H 0.98198 0.31169 0.5781 0.0
C658 C 0.75593 0.04056 0.54215 0.0
C659 C 0.75497 0.99858 0.55722 0.0
C660 C 0.75676 0.97658 0.46965 0.0
C661 C 0.75405 0.01843 0.45443 0.0
N662 N 0.74259 0.08984 0.47584 0.0
N663 N 0.74401 0.9271 0.53563 0.0
C664 C 0.75109 0.05037 0.4906 0.0
C665 C 0.75217 0.96671 0.52104 0.0
N666 N 0.76361 0.0709 0.5765 0.0
N667 N 0.76608 0.94641 0.43562 0.0
H668 H 0.73921 0.91879 0.57296 0.0
H669 H 0.73765 0.90345 0.51034 0.0
H670 H 0.77158 0.95234 0.39782 0.0
H671 H 0.7727 0.91611 0.44586 0.0
H672 H 0.76904 0.10152 0.56668 0.0
H673 H 0.7683 0.06496 0.61445 0.0
H674 H 0.73597 0.11355 0.50096 0.0
H675 H 0.73825 0.09805 0.43841 0.0
C676 C 0.9804 0.80871 0.53365 0.0
C677 C -5e-05 0.77402 0.55566 0.0
C678 C 0.99355 0.73573 0.47698 0.0
C679 C 0.97843 0.7719 0.45359 0.0
N680 N 0.96163 0.84432 0.45705 0.0
N681 N 0.03059 0.70645 0.5471 0.0
C682 C 0.97277 0.80883 0.48122 0.0
C683 C 0.00781 0.7379 0.52713 0.0
N684 N 0.9679 0.8409 0.56315 0.0
N685 N 0.99321 0.69904 0.45165 0.0
H686 H 0.04189 0.70683 0.58362 0.0
H687 H 0.04134 0.68152 0.5262 0.0
H688 H 0.98283 0.69623 0.41481 0.0
H689 H -0.00039 0.67078 0.46848 0.0
H690 H 0.94971 0.8651 0.55017 0.0
H691 H 0.9726 0.84165 0.60183 0.0
H692 H 0.96156 0.8732 0.47412 0.0
H693 H 0.95543 0.84548 0.41871 0.0
C694 C 0.25121 0.03383 0.51291 0.0
C695 C 0.24561 0.00262 0.54952 0.0
C696 C 0.25002 0.94992 0.48408 0.0
C697 C 0.24863 0.98135 0.44717 0.0
N698 N 0.24076 0.05368 0.42666 0.0
N699 N 0.23358 0.93085 0.56943 0.0
C700 C 0.24764 0.02352 0.46149 0.0
C701 C 0.24371 0.96051 0.53514 0.0
N702 N 0.26104 0.07314 0.52714 0.0
N703 N 0.25821 0.9101 0.47045 0.0
H704 H 0.22724 0.93734 0.60692 0.0
H705 H 0.22758 0.90031 0.55969 0.0
H706 H 0.26406 0.90145 0.43343 0.0
H707 H 0.26346 0.88662 0.49632 0.0
H708 H 0.26934 0.09607 0.50169 0.0
H709 H 0.2653 0.08167 0.56448 0.0
H710 H 0.23528 0.08436 0.43623 0.0
H711 H 0.23644 0.04772 0.38867 0.0
C712 C 0.50808 0.76854 0.9701 0.0
C713 C 0.50245 0.73267 0.94044 0.0
C714 C 0.47737 0.69501 0.01379 0.0
C715 C 0.47918 0.73196 0.04235 0.0
N716 N 0.48706 0.80603 0.04431 0.0
N717 N 0.47162 0.66524 0.93104 0.0
C718 C 0.49186 0.76942 0.01954 0.0
C719 C 0.4841 0.69688 0.96135 0.0
N720 N 0.53044 0.80108 0.95207 0.0
N721 N 0.47138 0.65777 0.03673 0.0
H722 H 0.47447 0.66599 0.8921 0.0
H723 H 0.45436 0.64031 0.94405 0.0
H724 H 0.46775 0.65437 0.07531 0.0
H725 H 0.47431 0.62972 0.01797 0.0
H726 H 0.53904 0.82615 0.97417 0.0
H727 H 0.54393 0.8013 0.91656 0.0
H728 H 0.49206 0.83459 0.02746 0.0
H729 H 0.47387 0.80815 0.07991 0.0
C730 C 0.25391 0.54407 0.98167 0.0
C731 C 0.25321 0.51263 0.94468 0.0
C732 C 0.24912 0.46011 0.01045 0.0
C733 C 0.25544 0.4911 0.0471 0.0
N734 N 0.27054 0.56216 0.06733 0.0
N735 N 0.25798 0.44017 0.92382 0.0
C736 C 0.25944 0.53308 0.03276 0.0
C737 C 0.25271 0.47044 0.95896 0.0
N738 N 0.24808 0.58434 0.9682 0.0
N739 N 0.23853 0.42101 0.02474 0.0
H740 H 0.26223 0.44622 0.88581 0.0
H741 H 0.26232 0.40924 0.93301 0.0
H742 H 0.2347 0.41244 0.06217 0.0
H743 H 0.22945 0.39828 -0.00056 0.0
H744 H 0.24414 0.60806 0.99412 0.0
H745 H 0.24307 0.59351 0.93123 0.0
H746 H 0.27823 0.59237 0.05785 0.0
H747 H 0.27587 0.55531 0.10494 0.0
C748 C 0.50932 0.2978 0.02175 0.0
C749 C 0.50966 0.2601 0.04864 0.0
C750 C 0.48971 0.2226 0.97271 0.0
C751 C 0.49265 0.25992 0.94523 0.0
N752 N 0.51525 0.3308 0.94084 0.0
N753 N 0.50822 0.18566 0.04839 0.0
C754 C 0.50547 0.29689 0.96894 0.0
C755 C 0.50213 0.22213 0.02379 0.0
N756 N 0.51066 0.33463 0.04674 0.0
N757 N 0.47348 0.18813 0.95077 0.0
H758 H 0.51783 0.18409 0.08563 0.0
H759 H 0.50738 0.15705 0.03066 0.0
H760 H 0.46398 0.18727 0.91346 0.0
H761 H 0.46636 0.16138 0.97061 0.0
H762 H 0.50614 0.36298 0.02921 0.0
H763 H 0.51198 0.33684 0.0857 0.0
H764 H 0.5287 0.35722 0.9559 0.0
H765 H 0.51409 0.33099 0.90175 0.0
C766 C 0.75344 0.52776 0.9602 0.0
C767 C 0.75467 0.48592 0.94464 0.0
C768 C 0.75573 0.46333 0.03215 0.0
C769 C 0.75671 0.50526 0.04749 0.0
N770 N 0.76826 0.57665 0.02629 0.0
N771 N 0.76772 0.4146 0.96481 0.0
C772 C 0.75938 0.53726 0.0115 0.0
C773 C 0.75924 0.45388 0.98036 0.0
N774 N 0.74389 0.55827 0.92683 0.0
N775 N 0.74906 0.43266 0.06638 0.0
H776 H 0.77139 0.40679 0.92711 0.0
H777 H 0.77527 0.3908 0.98938 0.0
H778 H 0.74583 0.43799 0.10469 0.0
H779 H 0.74321 0.40217 0.05626 0.0
H780 H 0.73824 0.58868 0.93749 0.0
H781 H 0.73751 0.55262 0.88923 0.0
H782 H 0.77442 0.60043 0.0011 0.0
H783 H 0.77385 0.58452 0.0636 0.0
loop_
_geom_bond_atom_site_label_1
_geom_bond_atom_site_label_2
_geom_bond_distance
_geom_bond_site_symmetry_2
_ccdc_geom_bond_type
In0 O1 2.294 . S
In0 O2 2.326 . S
In0 O6 2.266 . S
In0 O7 2.326 1_455 S
In0 O8 2.266 1_455 S
In0 O9 2.326 1_455 S
In0 O11 2.294 . S
In0 O12 2.326 . S
O1 In0 2.294 . S
O1 C10 1.240 . S
O2 In0 2.326 . S
O2 C10 1.252 . S
C3 O6 1.252 . S
C3 O7 1.260 1_455 S
C4 O11 1.240 . S
C4 O12 1.252 . S
C5 O8 1.252 . S
C5 O9 1.260 . S
O6 In0 2.266 . S
O6 C3 1.252 . S
O7 In0 2.326 1_655 S
O7 C3 1.260 1_655 S
O8 In0 2.266 1_655 S
O8 C5 1.252 . S
O9 In0 2.326 1_655 S
O9 C5 1.260 . S
C10 O1 1.240 . S
C10 O2 1.252 . S
O11 In0 2.294 . S
O11 C4 1.240 . S
O12 In0 2.326 . S
O12 C4 1.252 . S
In13 O14 2.294 . S
In13 O15 2.326 . S
In13 O19 2.266 . S
In13 O20 2.326 1_545 S
In13 O21 2.266 1_545 S
In13 O22 2.326 1_545 S
In13 O24 2.294 . S
In13 O25 2.326 . S
O14 In13 2.294 . S
O14 C23 1.240 . S
O15 In13 2.326 . S
O15 C23 1.252 . S
C16 O19 1.252 . S
C16 O20 1.260 1_545 S
C17 O24 1.240 . S
C17 O25 1.252 . S
C18 O21 1.252 . S
C18 O22 1.260 . S
O19 In13 2.266 . S
O19 C16 1.252 . S
O20 In13 2.326 1_565 S
O20 C16 1.260 1_565 S
O21 In13 2.266 1_565 S
O21 C18 1.252 . S
O22 In13 2.326 1_565 S
O22 C18 1.260 . S
C23 O14 1.240 . S
C23 O15 1.252 . S
O24 In13 2.294 . S
O24 C17 1.240 . S
O25 In13 2.326 . S
O25 C17 1.252 . S
In26 O27 2.294 . S
In26 O28 2.326 . S
In26 O32 2.266 1_655 S
In26 O33 2.326 1_655 S
In26 O34 2.266 . S
In26 O35 2.326 1_655 S
In26 O37 2.294 . S
In26 O38 2.326 . S
O27 In26 2.294 . S
O27 C36 1.240 . S
O28 In26 2.326 . S
O28 C36 1.252 . S
C29 O32 1.252 . S
C29 O33 1.260 . S
C30 O37 1.240 . S
C30 O38 1.252 . S
C31 O34 1.252 . S
C31 O35 1.260 1_655 S
O32 In26 2.266 1_455 S
O32 C29 1.252 . S
O33 In26 2.326 1_455 S
O33 C29 1.260 . S
O34 In26 2.266 . S
O34 C31 1.252 . S
O35 In26 2.326 1_455 S
O35 C31 1.260 1_455 S
C36 O27 1.240 . S
C36 O28 1.252 . S
O37 In26 2.294 . S
O37 C30 1.240 . S
O38 In26 2.326 . S
O38 C30 1.252 . S
In39 O40 2.294 . S
In39 O41 2.326 . S
In39 O45 2.266 1_565 S
In39 O46 2.326 1_565 S
In39 O47 2.266 . S
In39 O48 2.326 1_565 S
In39 O50 2.294 . S
In39 O51 2.326 . S
O40 In39 2.294 . S
O40 C49 1.240 . S
O41 In39 2.326 . S
O41 C49 1.252 . S
C42 O45 1.252 . S
C42 O46 1.260 . S
C43 O50 1.240 . S
C43 O51 1.252 . S
C44 O47 1.252 . S
C44 O48 1.260 1_565 S
O45 In39 2.266 1_545 S
O45 C42 1.252 . S
O46 In39 2.326 1_545 S
O46 C42 1.260 . S
O47 In39 2.266 . S
O47 C44 1.252 . S
O48 In39 2.326 1_545 S
O48 C44 1.260 1_545 S
C49 O40 1.240 . S
C49 O41 1.252 . S
O50 In39 2.294 . S
O50 C43 1.240 . S
O51 In39 2.326 . S
O51 C43 1.252 . S
In52 O53 2.294 . S
In52 O54 2.326 . S
In52 O58 2.266 . S
In52 O59 2.326 1_455 S
In52 O60 2.266 1_455 S
In52 O61 2.326 1_455 S
In52 O63 2.294 . S
In52 O64 2.326 . S
O53 In52 2.294 . S
O53 C62 1.240 . S
O54 In52 2.326 . S
O54 C62 1.252 . S
C55 O58 1.252 . S
C55 O59 1.260 1_455 S
C56 O63 1.240 . S
C56 O64 1.252 . S
C57 O60 1.252 . S
C57 O61 1.260 . S
O58 In52 2.266 . S
O58 C55 1.252 . S
O59 In52 2.326 1_655 S
O59 C55 1.260 1_655 S
O60 In52 2.266 1_655 S
O60 C57 1.252 . S
O61 In52 2.326 1_655 S
O61 C57 1.260 . S
C62 O53 1.240 . S
C62 O54 1.252 . S
O63 In52 2.294 . S
O63 C56 1.240 . S
O64 In52 2.326 . S
O64 C56 1.252 . S
In65 O66 2.294 . S
In65 O67 2.326 . S
In65 O71 2.266 . S
In65 O72 2.326 1_545 S
In65 O73 2.266 1_545 S
In65 O74 2.326 1_545 S
In65 O76 2.294 . S
In65 O77 2.326 . S
O66 In65 2.294 . S
O66 C75 1.240 . S
O67 In65 2.326 . S
O67 C75 1.252 . S
C68 O71 1.252 . S
C68 O72 1.260 1_545 S
C69 O76 1.240 . S
C69 O77 1.252 . S
C70 O73 1.252 . S
C70 O74 1.260 . S
O71 In65 2.266 . S
O71 C68 1.252 . S
O72 In65 2.326 1_565 S
O72 C68 1.260 1_565 S
O73 In65 2.266 1_565 S
O73 C70 1.252 . S
O74 In65 2.326 1_565 S
O74 C70 1.260 . S
C75 O66 1.240 . S
C75 O67 1.252 . S
O76 In65 2.294 . S
O76 C69 1.240 . S
O77 In65 2.326 . S
O77 C69 1.252 . S
In78 O79 2.294 . S
In78 O80 2.326 . S
In78 O84 2.266 1_655 S
In78 O85 2.326 1_655 S
In78 O86 2.266 . S
In78 O87 2.326 1_655 S
In78 O89 2.294 . S
In78 O90 2.326 . S
O79 In78 2.294 . S
O79 C88 1.240 . S
O80 In78 2.326 . S
O80 C88 1.252 . S
C81 O84 1.252 . S
C81 O85 1.260 . S
C82 O89 1.240 . S
C82 O90 1.252 . S
C83 O86 1.252 . S
C83 O87 1.260 1_655 S
O84 In78 2.266 1_455 S
O84 C81 1.252 . S
O85 In78 2.326 1_455 S
O85 C81 1.260 . S
O86 In78 2.266 . S
O86 C83 1.252 . S
O87 In78 2.326 1_455 S
O87 C83 1.260 1_455 S
C88 O79 1.240 . S
C88 O80 1.252 . S
O89 In78 2.294 . S
O89 C82 1.240 . S
O90 In78 2.326 . S
O90 C82 1.252 . S
In91 O92 2.294 . S
In91 O93 2.326 . S
In91 O97 2.266 . S
In91 O98 2.326 1_565 S
In91 O99 2.266 1_565 S
In91 O100 2.326 1_565 S
In91 O102 2.294 . S
In91 O103 2.326 . S
O92 In91 2.294 . S
O92 C101 1.240 . S
O93 In91 2.326 . S
O93 C101 1.252 . S
C94 O97 1.252 . S
C94 O98 1.260 1_565 S
C95 O102 1.240 . S
C95 O103 1.252 . S
C96 O99 1.252 . S
C96 O100 1.260 . S
O97 In91 2.266 . S
O97 C94 1.252 . S
O98 In91 2.326 1_545 S
O98 C94 1.260 1_545 S
O99 In91 2.266 1_545 S
O99 C96 1.252 . S
O100 In91 2.326 1_545 S
O100 C96 1.260 . S
C101 O92 1.240 . S
C101 O93 1.252 . S
O102 In91 2.294 . S
O102 C95 1.240 . S
O103 In91 2.326 . S
O103 C95 1.252 . S
In104 O105 2.294 . S
In104 O106 2.326 . S
In104 O110 2.266 . S
In104 O111 2.326 . S
In104 O112 2.266 . S
In104 O113 2.326 . S
In104 O115 2.294 . S
In104 O116 2.326 . S
O105 In104 2.294 . S
O105 C114 1.240 . S
O106 In104 2.326 . S
O106 C114 1.252 . S
C107 O110 1.252 . S
C107 O111 1.260 . S
C108 O115 1.240 . S
C108 O116 1.252 . S
C109 O112 1.252 . S
C109 O113 1.260 . S
O110 In104 2.266 . S
O110 C107 1.252 . S
O111 In104 2.326 . S
O111 C107 1.260 . S
O112 In104 2.266 . S
O112 C109 1.252 . S
O113 In104 2.326 . S
O113 C109 1.260 . S
C114 O105 1.240 . S
C114 O106 1.252 . S
O115 In104 2.294 . S
O115 C108 1.240 . S
O116 In104 2.326 . S
O116 C108 1.252 . S
In117 O118 2.294 . S
In117 O119 2.326 . S
In117 O123 2.266 . S
In117 O124 2.326 . S
In117 O125 2.266 . S
In117 O126 2.326 . S
In117 O128 2.294 . S
In117 O129 2.326 . S
O118 In117 2.294 . S
O118 C127 1.240 . S
O119 In117 2.326 . S
O119 C127 1.252 . S
C120 O123 1.252 . S
C120 O124 1.260 . S
C121 O128 1.240 . S
C121 O129 1.252 . S
C122 O125 1.252 . S
C122 O126 1.260 . S
O123 In117 2.266 . S
O123 C120 1.252 . S
O124 In117 2.326 . S
O124 C120 1.260 . S
O125 In117 2.266 . S
O125 C122 1.252 . S
O126 In117 2.326 . S
O126 C122 1.260 . S
C127 O118 1.240 . S
C127 O119 1.252 . S
O128 In117 2.294 . S
O128 C121 1.240 . S
O129 In117 2.326 . S
O129 C121 1.252 . S
In130 O131 2.294 . S
In130 O132 2.326 . S
In130 O136 2.266 . S
In130 O137 2.326 . S
In130 O138 2.266 . S
In130 O139 2.326 . S
In130 O141 2.294 . S
In130 O142 2.326 . S
O131 In130 2.294 . S
O131 C140 1.240 . S
O132 In130 2.326 . S
O132 C140 1.252 . S
C133 O136 1.252 . S
C133 O137 1.260 . S
C134 O141 1.240 . S
C134 O142 1.252 . S
C135 O138 1.252 . S
C135 O139 1.260 . S
O136 In130 2.266 . S
O136 C133 1.252 . S
O137 In130 2.326 . S
O137 C133 1.260 . S
O138 In130 2.266 . S
O138 C135 1.252 . S
O139 In130 2.326 . S
O139 C135 1.260 . S
C140 O131 1.240 . S
C140 O132 1.252 . S
O141 In130 2.294 . S
O141 C134 1.240 . S
O142 In130 2.326 . S
O142 C134 1.252 . S
In143 O144 2.294 . S
In143 O145 2.326 . S
In143 O149 2.266 . S
In143 O150 2.326 . S
In143 O151 2.266 . S
In143 O152 2.326 . S
In143 O154 2.294 . S
In143 O155 2.326 . S
O144 In143 2.294 . S
O144 C153 1.240 . S
O145 In143 2.326 . S
O145 C153 1.252 . S
C146 O149 1.252 . S
C146 O150 1.260 . S
C147 O154 1.240 . S
C147 O155 1.252 . S
C148 O151 1.252 . S
C148 O152 1.260 . S
O149 In143 2.266 . S
O149 C146 1.252 . S
O150 In143 2.326 . S
O150 C146 1.260 . S
O151 In143 2.266 . S
O151 C148 1.252 . S
O152 In143 2.326 . S
O152 C148 1.260 . S
C153 O144 1.240 . S
C153 O145 1.252 . S
O154 In143 2.294 . S
O154 C147 1.240 . S
O155 In143 2.326 . S
O155 C147 1.252 . S
In156 O157 2.294 . S
In156 O158 2.326 . S
In156 O162 2.266 . S
In156 O163 2.326 . S
In156 O164 2.266 . S
In156 O165 2.326 . S
In156 O167 2.294 . S
In156 O168 2.326 . S
O157 In156 2.294 . S
O157 C166 1.240 . S
O158 In156 2.326 . S
O158 C166 1.252 . S
C159 O162 1.252 . S
C159 O163 1.260 . S
C160 O167 1.240 . S
C160 O168 1.252 . S
C161 O164 1.252 . S
C161 O165 1.260 . S
O162 In156 2.266 . S
O162 C159 1.252 . S
O163 In156 2.326 . S
O163 C159 1.260 . S
O164 In156 2.266 . S
O164 C161 1.252 . S
O165 In156 2.326 . S
O165 C161 1.260 . S
C166 O157 1.240 . S
C166 O158 1.252 . S
O167 In156 2.294 . S
O167 C160 1.240 . S
O168 In156 2.326 . S
O168 C160 1.252 . S
In169 O170 2.294 . S
In169 O171 2.326 . S
In169 O175 2.266 . S
In169 O176 2.326 . S
In169 O177 2.266 . S
In169 O178 2.326 . S
In169 O180 2.294 . S
In169 O181 2.326 . S
O170 In169 2.294 . S
O170 C179 1.240 . S
O171 In169 2.326 . S
O171 C179 1.252 . S
C172 O175 1.252 . S
C172 O176 1.260 . S
C173 O180 1.240 . S
C173 O181 1.252 . S
C174 O177 1.252 . S
C174 O178 1.260 . S
O175 In169 2.266 . S
O175 C172 1.252 . S
O176 In169 2.326 . S
O176 C172 1.260 . S
O177 In169 2.266 . S
O177 C174 1.252 . S
O178 In169 2.326 . S
O178 C174 1.260 . S
C179 O170 1.240 . S
C179 O171 1.252 . S
O180 In169 2.294 . S
O180 C173 1.240 . S
O181 In169 2.326 . S
O181 C173 1.252 . S
In182 O183 2.294 . S
In182 O184 2.326 . S
In182 O188 2.266 . S
In182 O189 2.326 . S
In182 O190 2.266 . S
In182 O191 2.326 . S
In182 O193 2.294 . S
In182 O194 2.326 . S
O183 In182 2.294 . S
O183 C192 1.240 . S
O184 In182 2.326 . S
O184 C192 1.252 . S
C185 O188 1.252 . S
C185 O189 1.260 . S
C186 O193 1.240 . S
C186 O194 1.252 . S
C187 O190 1.252 . S
C187 O191 1.260 . S
O188 In182 2.266 . S
O188 C185 1.252 . S
O189 In182 2.326 . S
O189 C185 1.260 . S
O190 In182 2.266 . S
O190 C187 1.252 . S
O191 In182 2.326 . S
O191 C187 1.260 . S
C192 O183 1.240 . S
C192 O184 1.252 . S
O193 In182 2.294 . S
O193 C186 1.240 . S
O194 In182 2.326 . S
O194 C186 1.252 . S
In195 O196 2.294 . S
In195 O197 2.326 . S
In195 O201 2.266 . S
In195 O202 2.326 . S
In195 O203 2.266 . S
In195 O204 2.326 . S
In195 O206 2.294 . S
In195 O207 2.326 . S
O196 In195 2.294 . S
O196 C205 1.240 . S
O197 In195 2.326 . S
O197 C205 1.252 . S
C198 O201 1.252 . S
C198 O202 1.260 . S
C199 O206 1.240 . S
C199 O207 1.252 . S
C200 O203 1.252 . S
C200 O204 1.260 . S
O201 In195 2.266 . S
O201 C198 1.252 . S
O202 In195 2.326 . S
O202 C198 1.260 . S
O203 In195 2.266 . S
O203 C200 1.252 . S
O204 In195 2.326 . S
O204 C200 1.260 . S
C205 O196 1.240 . S
C205 O197 1.252 . S
O206 In195 2.294 . S
O206 C199 1.240 . S
O207 In195 2.326 . S
O207 C199 1.252 . S
C208 C209 1.363 . S
C208 C214 1.379 . S
C208 N216 1.356 . S
C209 C208 1.363 . S
C209 C215 1.363 . S
C210 C211 1.363 . S
C210 C215 1.379 . S
C210 N217 1.356 . S
C211 C210 1.363 . S
C211 C214 1.363 . S
N212 C214 1.356 . S
N212 H224 0.984 . S
N212 H225 0.985 . S
N213 C215 1.356 . S
N213 H218 0.984 . S
N213 H219 0.985 . S
C214 C208 1.379 . S
C214 C211 1.363 . S
C214 N212 1.356 . S
C215 C209 1.363 . S
C215 C210 1.379 . S
C215 N213 1.356 . S
N216 C208 1.356 . S
N216 H222 0.984 . S
N216 H223 0.984 . S
N217 C210 1.356 . S
N217 H220 0.984 . S
N217 H221 0.985 . S
H218 N213 0.984 . S
H219 N213 0.985 . S
H220 N217 0.984 . S
H221 N217 0.985 . S
H222 N216 0.984 . S
H223 N216 0.984 . S
H224 N212 0.984 . S
H225 N212 0.985 . S
C226 C227 1.363 . S
C226 C232 1.379 . S
C226 N234 1.356 . S
C227 C226 1.363 . S
C227 C233 1.363 . S
C228 C229 1.363 . S
C228 C233 1.379 . S
C228 N235 1.356 . S
C229 C228 1.363 . S
C229 C232 1.363 . S
N230 C232 1.356 . S
N230 H242 0.984 . S
N230 H243 0.985 . S
N231 C233 1.356 . S
N231 H236 0.984 . S
N231 H237 0.985 . S
C232 C226 1.379 . S
C232 C229 1.363 . S
C232 N230 1.356 . S
C233 C227 1.363 . S
C233 C228 1.379 . S
C233 N231 1.356 . S
N234 C226 1.356 . S
N234 H240 0.984 . S
N234 H241 0.984 . S
N235 C228 1.356 . S
N235 H238 0.984 . S
N235 H239 0.985 . S
H236 N231 0.984 . S
H237 N231 0.985 . S
H238 N235 0.984 . S
H239 N235 0.985 . S
H240 N234 0.984 . S
H241 N234 0.984 . S
H242 N230 0.984 . S
H243 N230 0.985 . S
C244 C245 1.363 . S
C244 C250 1.379 . S
C244 N252 1.356 . S
C245 C244 1.363 . S
C245 C251 1.363 . S
C246 C247 1.363 . S
C246 C251 1.379 . S
C246 N253 1.356 . S
C247 C246 1.363 . S
C247 C250 1.363 . S
N248 C250 1.356 . S
N248 H260 0.984 . S
N248 H261 0.985 . S
N249 C251 1.356 . S
N249 H254 0.984 . S
N249 H255 0.985 . S
C250 C244 1.379 . S
C250 C247 1.363 . S
C250 N248 1.356 . S
C251 C245 1.363 . S
C251 C246 1.379 . S
C251 N249 1.356 . S
N252 C244 1.356 . S
N252 H258 0.984 . S
N252 H259 0.984 . S
N253 C246 1.356 . S
N253 H256 0.984 . S
N253 H257 0.985 . S
H254 N249 0.984 . S
H255 N249 0.985 . S
H256 N253 0.984 . S
H257 N253 0.985 . S
H258 N252 0.984 . S
H259 N252 0.984 . S
H260 N248 0.984 . S
H261 N248 0.985 . S
C262 C263 1.363 . S
C262 C268 1.379 . S
C262 N270 1.356 . S
C263 C262 1.363 . S
C263 C269 1.363 . S
C264 C265 1.363 . S
C264 C269 1.379 . S
C264 N271 1.356 . S
C265 C264 1.363 . S
C265 C268 1.363 . S
N266 C268 1.356 . S
N266 H278 0.984 . S
N266 H279 0.985 . S
N267 C269 1.356 . S
N267 H272 0.984 . S
N267 H273 0.985 . S
C268 C262 1.379 . S
C268 C265 1.363 . S
C268 N266 1.356 . S
C269 C263 1.363 . S
C269 C264 1.379 . S
C269 N267 1.356 . S
N270 C262 1.356 . S
N270 H276 0.984 . S
N270 H277 0.984 . S
N271 C264 1.356 . S
N271 H274 0.984 . S
N271 H275 0.985 . S
H272 N267 0.984 . S
H273 N267 0.985 . S
H274 N271 0.984 . S
H275 N271 0.985 . S
H276 N270 0.984 . S
H277 N270 0.984 . S
H278 N266 0.984 . S
H279 N266 0.985 . S
C280 C281 1.363 . S
C280 C286 1.379 . S
C280 N288 1.356 . S
C281 C280 1.363 . S
C281 C287 1.363 . S
C282 C283 1.363 . S
C282 C287 1.379 . S
C282 N289 1.356 . S
C283 C282 1.363 . S
C283 C286 1.363 . S
N284 C286 1.356 . S
N284 H296 0.984 . S
N284 H297 0.985 . S
N285 C287 1.356 . S
N285 H290 0.984 . S
N285 H291 0.985 . S
C286 C280 1.379 . S
C286 C283 1.363 . S
C286 N284 1.356 . S
C287 C281 1.363 . S
C287 C282 1.379 . S
C287 N285 1.356 . S
N288 C280 1.356 . S
N288 H294 0.984 . S
N288 H295 0.984 . S
N289 C282 1.356 . S
N289 H292 0.984 . S
N289 H293 0.985 . S
H290 N285 0.984 . S
H291 N285 0.985 . S
H292 N289 0.984 . S
H293 N289 0.985 . S
H294 N288 0.984 . S
H295 N288 0.984 . S
H296 N284 0.984 . S
H297 N284 0.985 . S
C298 C299 1.363 . S
C298 C304 1.379 . S
C298 N306 1.356 . S
C299 C298 1.363 . S
C299 C305 1.363 . S
C300 C301 1.363 . S
C300 C305 1.379 . S
C300 N307 1.356 . S
C301 C300 1.363 . S
C301 C304 1.363 . S
N302 C304 1.356 . S
N302 H314 0.984 . S
N302 H315 0.985 . S
N303 C305 1.356 . S
N303 H308 0.984 . S
N303 H309 0.985 . S
C304 C298 1.379 . S
C304 C301 1.363 . S
C304 N302 1.356 . S
C305 C299 1.363 . S
C305 C300 1.379 . S
C305 N303 1.356 . S
N306 C298 1.356 . S
N306 H312 0.984 . S
N306 H313 0.984 . S
N307 C300 1.356 . S
N307 H310 0.984 . S
N307 H311 0.985 . S
H308 N303 0.984 . S
H309 N303 0.985 . S
H310 N307 0.984 . S
H311 N307 0.985 . S
H312 N306 0.984 . S
H313 N306 0.984 . S
H314 N302 0.984 . S
H315 N302 0.985 . S
C316 C317 1.363 . S
C316 C322 1.379 . S
C316 N324 1.356 . S
C317 C316 1.363 . S
C317 C323 1.363 . S
C318 C319 1.363 . S
C318 C323 1.379 . S
C318 N325 1.356 . S
C319 C318 1.363 . S
C319 C322 1.363 . S
N320 C322 1.356 . S
N320 H332 0.984 . S
N320 H333 0.985 . S
N321 C323 1.356 . S
N321 H326 0.984 . S
N321 H327 0.985 . S
C322 C316 1.379 . S
C322 C319 1.363 . S
C322 N320 1.356 . S
C323 C317 1.363 . S
C323 C318 1.379 . S
C323 N321 1.356 . S
N324 C316 1.356 . S
N324 H330 0.984 . S
N324 H331 0.984 . S
N325 C318 1.356 . S
N325 H328 0.984 . S
N325 H329 0.985 . S
H326 N321 0.984 . S
H327 N321 0.985 . S
H328 N325 0.984 . S
H329 N325 0.985 . S
H330 N324 0.984 . S
H331 N324 0.984 . S
H332 N320 0.984 . S
H333 N320 0.985 . S
C334 C335 1.363 . S
C334 C340 1.379 . S
C334 N342 1.356 . S
C335 C334 1.363 . S
C335 C341 1.363 . S
C336 C337 1.363 . S
C336 C341 1.379 . S
C336 N343 1.356 . S
C337 C336 1.363 . S
C337 C340 1.363 . S
N338 C340 1.356 . S
N338 H350 0.984 . S
N338 H351 0.985 . S
N339 C341 1.356 . S
N339 H344 0.984 . S
N339 H345 0.985 . S
C340 C334 1.379 . S
C340 C337 1.363 . S
C340 N338 1.356 . S
C341 C335 1.363 . S
C341 C336 1.379 . S
C341 N339 1.356 . S
N342 C334 1.356 . S
N342 H348 0.984 . S
N342 H349 0.984 . S
N343 C336 1.356 . S
N343 H346 0.984 . S
N343 H347 0.985 . S
H344 N339 0.984 . S
H345 N339 0.985 . S
H346 N343 0.984 . S
H347 N343 0.985 . S
H348 N342 0.984 . S
H349 N342 0.984 . S
H350 N338 0.984 . S
H351 N338 0.985 . S
C352 C353 1.363 . S
C352 C358 1.379 . S
C352 N360 1.356 . S
C353 C352 1.363 . S
C353 C359 1.363 . S
C354 C355 1.363 . S
C354 C359 1.379 . S
C354 N361 1.356 . S
C355 C354 1.363 . S
C355 C358 1.363 . S
N356 C358 1.356 . S
N356 H368 0.984 . S
N356 H369 0.985 . S
N357 C359 1.356 . S
N357 H362 0.984 . S
N357 H363 0.985 . S
C358 C352 1.379 . S
C358 C355 1.363 . S
C358 N356 1.356 . S
C359 C353 1.363 . S
C359 C354 1.379 . S
C359 N357 1.356 . S
N360 C352 1.356 . S
N360 H366 0.984 . S
N360 H367 0.984 . S
N361 C354 1.356 . S
N361 H364 0.984 . S
N361 H365 0.985 . S
H362 N357 0.984 . S
H363 N357 0.985 . S
H364 N361 0.984 . S
H365 N361 0.985 . S
H366 N360 0.984 . S
H367 N360 0.984 . S
H368 N356 0.984 . S
H369 N356 0.985 . S
C370 C371 1.363 . S
C370 C376 1.379 . S
C370 N378 1.356 . S
C371 C370 1.363 . S
C371 C377 1.363 . S
C372 C373 1.363 . S
C372 C377 1.379 . S
C372 N379 1.356 . S
C373 C372 1.363 . S
C373 C376 1.363 . S
N374 C376 1.356 . S
N374 H386 0.984 . S
N374 H387 0.985 . S
N375 C377 1.356 . S
N375 H380 0.984 . S
N375 H381 0.985 . S
C376 C370 1.379 . S
C376 C373 1.363 . S
C376 N374 1.356 . S
C377 C371 1.363 . S
C377 C372 1.379 . S
C377 N375 1.356 . S
N378 C370 1.356 . S
N378 H384 0.984 . S
N378 H385 0.984 . S
N379 C372 1.356 . S
N379 H382 0.984 . S
N379 H383 0.985 . S
H380 N375 0.984 . S
H381 N375 0.985 . S
H382 N379 0.984 . S
H383 N379 0.985 . S
H384 N378 0.984 . S
H385 N378 0.984 . S
H386 N374 0.984 . S
H387 N374 0.985 . S
C388 C389 1.363 . S
C388 C394 1.379 . S
C388 N396 1.356 . S
C389 C388 1.363 . S
C389 C395 1.363 . S
C390 C391 1.363 . S
C390 C395 1.379 . S
C390 N397 1.356 . S
C391 C390 1.363 . S
C391 C394 1.363 . S
N392 C394 1.356 . S
N392 H404 0.984 . S
N392 H405 0.985 . S
N393 C395 1.356 . S
N393 H398 0.984 . S
N393 H399 0.985 . S
C394 C388 1.379 . S
C394 C391 1.363 . S
C394 N392 1.356 . S
C395 C389 1.363 . S
C395 C390 1.379 . S
C395 N393 1.356 . S
N396 C388 1.356 . S
N396 H402 0.984 . S
N396 H403 0.984 . S
N397 C390 1.356 . S
N397 H400 0.984 . S
N397 H401 0.985 . S
H398 N393 0.984 . S
H399 N393 0.985 . S
H400 N397 0.984 . S
H401 N397 0.985 . S
H402 N396 0.984 . S
H403 N396 0.984 . S
H404 N392 0.984 . S
H405 N392 0.985 . S
C406 C407 1.363 . S
C406 C412 1.379 . S
C406 N414 1.356 . S
C407 C406 1.363 . S
C407 C413 1.363 . S
C408 C409 1.363 . S
C408 C413 1.379 . S
C408 N415 1.356 . S
C409 C408 1.363 . S
C409 C412 1.363 . S
N410 C412 1.356 . S
N410 H422 0.984 . S
N410 H423 0.985 . S
N411 C413 1.356 . S
N411 H416 0.984 . S
N411 H417 0.985 . S
C412 C406 1.379 . S
C412 C409 1.363 . S
C412 N410 1.356 . S
C413 C407 1.363 . S
C413 C408 1.379 . S
C413 N411 1.356 . S
N414 C406 1.356 . S
N414 H420 0.984 . S
N414 H421 0.984 . S
N415 C408 1.356 . S
N415 H418 0.984 . S
N415 H419 0.985 . S
H416 N411 0.984 . S
H417 N411 0.985 . S
H418 N415 0.984 . S
H419 N415 0.985 . S
H420 N414 0.984 . S
H421 N414 0.984 . S
H422 N410 0.984 . S
H423 N410 0.985 . S
C424 C425 1.363 . S
C424 C430 1.379 . S
C424 N432 1.356 . S
C425 C424 1.363 . S
C425 C431 1.363 . S
C426 C427 1.363 . S
C426 C431 1.379 . S
C426 N433 1.356 . S
C427 C426 1.363 . S
C427 C430 1.363 . S
N428 C430 1.356 . S
N428 H440 0.984 . S
N428 H441 0.985 . S
N429 C431 1.356 . S
N429 H434 0.984 . S
N429 H435 0.985 . S
C430 C424 1.379 . S
C430 C427 1.363 . S
C430 N428 1.356 . S
C431 C425 1.363 . S
C431 C426 1.379 . S
C431 N429 1.356 . S
N432 C424 1.356 . S
N432 H438 0.984 . S
N432 H439 0.984 . S
N433 C426 1.356 . S
N433 H436 0.984 . S
N433 H437 0.985 . S
H434 N429 0.984 . S
H435 N429 0.985 . S
H436 N433 0.984 . S
H437 N433 0.985 . S
H438 N432 0.984 . S
H439 N432 0.984 . S
H440 N428 0.984 . S
H441 N428 0.985 . S
C442 C443 1.363 . S
C442 C448 1.379 . S
C442 N450 1.356 . S
C443 C442 1.363 . S
C443 C449 1.363 . S
C444 C445 1.363 . S
C444 C449 1.379 . S
C444 N451 1.356 . S
C445 C444 1.363 . S
C445 C448 1.363 . S
N446 C448 1.356 . S
N446 H458 0.984 . S
N446 H459 0.985 . S
N447 C449 1.356 . S
N447 H452 0.984 . S
N447 H453 0.985 . S
C448 C442 1.379 . S
C448 C445 1.363 . S
C448 N446 1.356 . S
C449 C443 1.363 . S
C449 C444 1.379 . S
C449 N447 1.356 . S
N450 C442 1.356 . S
N450 H456 0.984 . S
N450 H457 0.984 . S
N451 C444 1.356 . S
N451 H454 0.984 . S
N451 H455 0.985 . S
H452 N447 0.984 . S
H453 N447 0.985 . S
H454 N451 0.984 . S
H455 N451 0.985 . S
H456 N450 0.984 . S
H457 N450 0.984 . S
H458 N446 0.984 . S
H459 N446 0.985 . S
C460 C461 1.363 . S
C460 C466 1.379 . S
C460 N468 1.356 . S
C461 C460 1.363 . S
C461 C467 1.363 . S
C462 C463 1.363 . S
C462 C467 1.379 . S
C462 N469 1.356 . S
C463 C462 1.363 . S
C463 C466 1.363 . S
N464 C466 1.356 . S
N464 H476 0.984 . S
N464 H477 0.985 . S
N465 C467 1.356 . S
N465 H470 0.984 . S
N465 H471 0.985 . S
C466 C460 1.379 . S
C466 C463 1.363 . S
C466 N464 1.356 . S
C467 C461 1.363 . S
C467 C462 1.379 . S
C467 N465 1.356 . S
N468 C460 1.356 . S
N468 H474 0.984 . S
N468 H475 0.984 . S
N469 C462 1.356 . S
N469 H472 0.984 . S
N469 H473 0.985 . S
H470 N465 0.984 . S
H471 N465 0.985 . S
H472 N469 0.984 . S
H473 N469 0.985 . S
H474 N468 0.984 . S
H475 N468 0.984 . S
H476 N464 0.984 . S
H477 N464 0.985 . S
C478 C479 1.363 . S
C478 C484 1.379 . S
C478 N486 1.356 . S
C479 C478 1.363 . S
C479 C485 1.363 . S
C480 C481 1.363 . S
C480 C485 1.379 . S
C480 N487 1.356 . S
C481 C480 1.363 . S
C481 C484 1.363 . S
N482 C484 1.356 . S
N482 H494 0.984 . S
N482 H495 0.985 . S
N483 C485 1.356 . S
N483 H488 0.984 . S
N483 H489 0.985 . S
C484 C478 1.379 . S
C484 C481 1.363 . S
C484 N482 1.356 . S
C485 C479 1.363 . S
C485 C480 1.379 . S
C485 N483 1.356 . S
N486 C478 1.356 . S
N486 H492 0.984 . S
N486 H493 0.984 . S
N487 C480 1.356 . S
N487 H490 0.984 . S
N487 H491 0.985 . S
H488 N483 0.984 . S
H489 N483 0.985 . S
H490 N487 0.984 . S
H491 N487 0.985 . S
H492 N486 0.984 . S
H493 N486 0.984 . S
H494 N482 0.984 . S
H495 N482 0.985 . S
C496 C497 1.363 . S
C496 C502 1.379 . S
C496 N504 1.356 . S
C497 C496 1.363 . S
C497 C503 1.363 . S
C498 C499 1.363 . S
C498 C503 1.379 . S
C498 N505 1.356 . S
C499 C498 1.363 . S
C499 C502 1.363 . S
N500 C502 1.356 . S
N500 H512 0.984 . S
N500 H513 0.985 . S
N501 C503 1.356 . S
N501 H506 0.984 . S
N501 H507 0.985 . S
C502 C496 1.379 . S
C502 C499 1.363 . S
C502 N500 1.356 . S
C503 C497 1.363 . S
C503 C498 1.379 . S
C503 N501 1.356 . S
N504 C496 1.356 . S
N504 H510 0.984 . S
N504 H511 0.984 . S
N505 C498 1.356 . S
N505 H508 0.984 . S
N505 H509 0.985 . S
H506 N501 0.984 . S
H507 N501 0.985 . S
H508 N505 0.984 . S
H509 N505 0.985 . S
H510 N504 0.984 . S
H511 N504 0.984 . S
H512 N500 0.984 . S
H513 N500 0.985 . S
C514 C515 1.363 . S
C514 C520 1.379 . S
C514 N522 1.356 . S
C515 C514 1.363 . S
C515 C521 1.363 . S
C516 C517 1.363 . S
C516 C521 1.379 . S
C516 N523 1.356 . S
C517 C516 1.363 . S
C517 C520 1.363 . S
N518 C520 1.356 . S
N518 H530 0.984 . S
N518 H531 0.985 . S
N519 C521 1.356 . S
N519 H524 0.984 . S
N519 H525 0.985 . S
C520 C514 1.379 . S
C520 C517 1.363 . S
C520 N518 1.356 . S
C521 C515 1.363 . S
C521 C516 1.379 . S
C521 N519 1.356 . S
N522 C514 1.356 . S
N522 H528 0.984 . S
N522 H529 0.984 . S
N523 C516 1.356 . S
N523 H526 0.984 . S
N523 H527 0.985 . S
H524 N519 0.984 . S
H525 N519 0.985 . S
H526 N523 0.984 . S
H527 N523 0.985 . S
H528 N522 0.984 . S
H529 N522 0.984 . S
H530 N518 0.984 . S
H531 N518 0.985 . S
C532 C533 1.363 . S
C532 C538 1.379 . S
C532 N540 1.356 . S
C533 C532 1.363 . S
C533 C539 1.363 . S
C534 C535 1.363 . S
C534 C539 1.379 . S
C534 N541 1.356 . S
C535 C534 1.363 . S
C535 C538 1.363 . S
N536 C538 1.356 . S
N536 H548 0.984 . S
N536 H549 0.985 . S
N537 C539 1.356 . S
N537 H542 0.984 . S
N537 H543 0.985 . S
C538 C532 1.379 . S
C538 C535 1.363 . S
C538 N536 1.356 . S
C539 C533 1.363 . S
C539 C534 1.379 . S
C539 N537 1.356 . S
N540 C532 1.356 . S
N540 H546 0.984 . S
N540 H547 0.984 . S
N541 C534 1.356 . S
N541 H544 0.984 . S
N541 H545 0.985 . S
H542 N537 0.984 . S
H543 N537 0.985 . S
H544 N541 0.984 . S
H545 N541 0.985 . S
H546 N540 0.984 . S
H547 N540 0.984 . S
H548 N536 0.984 . S
H549 N536 0.985 . S
C550 C551 1.363 . S
C550 C556 1.379 . S
C550 N558 1.356 . S
C551 C550 1.363 . S
C551 C557 1.363 . S
C552 C553 1.363 . S
C552 C557 1.379 . S
C552 N559 1.356 . S
C553 C552 1.363 . S
C553 C556 1.363 . S
N554 C556 1.356 . S
N554 H566 0.984 . S
N554 H567 0.985 . S
N555 C557 1.356 . S
N555 H560 0.984 . S
N555 H561 0.985 . S
C556 C550 1.379 . S
C556 C553 1.363 . S
C556 N554 1.356 . S
C557 C551 1.363 . S
C557 C552 1.379 . S
C557 N555 1.356 . S
N558 C550 1.356 . S
N558 H564 0.984 . S
N558 H565 0.984 . S
N559 C552 1.356 . S
N559 H562 0.984 . S
N559 H563 0.985 . S
H560 N555 0.984 . S
H561 N555 0.985 . S
H562 N559 0.984 . S
H563 N559 0.985 . S
H564 N558 0.984 . S
H565 N558 0.984 . S
H566 N554 0.984 . S
H567 N554 0.985 . S
C568 C569 1.363 . S
C568 C574 1.379 . S
C568 N576 1.356 . S
C569 C568 1.363 . S
C569 C575 1.363 . S
C570 C571 1.363 . S
C570 C575 1.379 . S
C570 N577 1.356 . S
C571 C570 1.363 . S
C571 C574 1.363 . S
N572 C574 1.356 . S
N572 H584 0.984 . S
N572 H585 0.985 . S
N573 C575 1.356 . S
N573 H578 0.984 . S
N573 H579 0.985 . S
C574 C568 1.379 . S
C574 C571 1.363 . S
C574 N572 1.356 . S
C575 C569 1.363 . S
C575 C570 1.379 . S
C575 N573 1.356 . S
N576 C568 1.356 . S
N576 H582 0.984 . S
N576 H583 0.984 . S
N577 C570 1.356 . S
N577 H580 0.984 . S
N577 H581 0.985 . S
H578 N573 0.984 . S
H579 N573 0.985 . S
H580 N577 0.984 . S
H581 N577 0.985 . S
H582 N576 0.984 . S
H583 N576 0.984 . S
H584 N572 0.984 . S
H585 N572 0.985 . S
C586 C587 1.363 . S
C586 C592 1.379 . S
C586 N594 1.356 . S
C587 C586 1.363 . S
C587 C593 1.363 . S
C588 C589 1.363 . S
C588 C593 1.379 . S
C588 N595 1.356 . S
C589 C588 1.363 . S
C589 C592 1.363 . S
N590 C592 1.356 . S
N590 H602 0.984 . S
N590 H603 0.985 . S
N591 C593 1.356 . S
N591 H596 0.984 . S
N591 H597 0.985 . S
C592 C586 1.379 . S
C592 C589 1.363 . S
C592 N590 1.356 . S
C593 C587 1.363 . S
C593 C588 1.379 . S
C593 N591 1.356 . S
N594 C586 1.356 . S
N594 H600 0.984 . S
N594 H601 0.984 . S
N595 C588 1.356 . S
N595 H598 0.984 . S
N595 H599 0.985 . S
H596 N591 0.984 . S
H597 N591 0.985 . S
H598 N595 0.984 . S
H599 N595 0.985 . S
H600 N594 0.984 . S
H601 N594 0.984 . S
H602 N590 0.984 . S
H603 N590 0.985 . S
C604 C605 1.363 . S
C604 C610 1.379 . S
C604 N612 1.356 . S
C605 C604 1.363 . S
C605 C611 1.363 . S
C606 C607 1.363 . S
C606 C611 1.379 . S
C606 N613 1.356 . S
C607 C606 1.363 . S
C607 C610 1.363 . S
N608 C610 1.356 . S
N608 H620 0.984 . S
N608 H621 0.985 . S
N609 C611 1.356 . S
N609 H614 0.984 . S
N609 H615 0.985 . S
C610 C604 1.379 . S
C610 C607 1.363 . S
C610 N608 1.356 . S
C611 C605 1.363 . S
C611 C606 1.379 . S
C611 N609 1.356 . S
N612 C604 1.356 . S
N612 H618 0.984 . S
N612 H619 0.984 . S
N613 C606 1.356 . S
N613 H616 0.984 . S
N613 H617 0.985 . S
H614 N609 0.984 . S
H615 N609 0.985 . S
H616 N613 0.984 . S
H617 N613 0.985 . S
H618 N612 0.984 . S
H619 N612 0.984 . S
H620 N608 0.984 . S
H621 N608 0.985 . S
C622 C623 1.363 . S
C622 C628 1.379 . S
C622 N630 1.356 . S
C623 C622 1.363 . S
C623 C629 1.363 . S
C624 C625 1.363 . S
C624 C629 1.379 . S
C624 N631 1.356 . S
C625 C624 1.363 . S
C625 C628 1.363 . S
N626 C628 1.356 . S
N626 H638 0.984 . S
N626 H639 0.985 . S
N627 C629 1.356 . S
N627 H632 0.984 . S
N627 H633 0.985 . S
C628 C622 1.379 . S
C628 C625 1.363 . S
C628 N626 1.356 . S
C629 C623 1.363 . S
C629 C624 1.379 . S
C629 N627 1.356 . S
N630 C622 1.356 . S
N630 H636 0.984 . S
N630 H637 0.984 . S
N631 C624 1.356 . S
N631 H634 0.984 . S
N631 H635 0.985 . S
H632 N627 0.984 . S
H633 N627 0.985 . S
H634 N631 0.984 . S
H635 N631 0.985 . S
H636 N630 0.984 . S
H637 N630 0.984 . S
H638 N626 0.984 . S
H639 N626 0.985 . S
C640 C641 1.363 . S
C640 C646 1.379 . S
C640 N648 1.356 . S
C641 C640 1.363 . S
C641 C647 1.363 1_455 S
C642 C643 1.363 . S
C642 C647 1.379 . S
C642 N649 1.356 . S
C643 C642 1.363 . S
C643 C646 1.363 1_655 S
N644 C646 1.356 . S
N644 H656 0.984 . S
N644 H657 0.985 . S
N645 C647 1.356 . S
N645 H650 0.984 . S
N645 H651 0.985 . S
C646 C640 1.379 . S
C646 C643 1.363 1_455 S
C646 N644 1.356 . S
C647 C641 1.363 1_655 S
C647 C642 1.379 . S
C647 N645 1.356 . S
N648 C640 1.356 . S
N648 H654 0.984 . S
N648 H655 0.984 . S
N649 C642 1.356 . S
N649 H652 0.984 . S
N649 H653 0.985 . S
H650 N645 0.984 . S
H651 N645 0.985 . S
H652 N649 0.984 . S
H653 N649 0.985 . S
H654 N648 0.984 . S
H655 N648 0.984 . S
H656 N644 0.984 . S
H657 N644 0.985 . S
C658 C659 1.363 1_545 S
C658 C664 1.379 . S
C658 N666 1.356 . S
C659 C658 1.363 1_565 S
C659 C665 1.363 . S
C660 C661 1.363 1_565 S
C660 C665 1.379 . S
C660 N667 1.356 . S
C661 C660 1.363 1_545 S
C661 C664 1.363 . S
N662 C664 1.356 . S
N662 H674 0.984 . S
N662 H675 0.985 . S
N663 C665 1.356 . S
N663 H668 0.984 . S
N663 H669 0.985 . S
C664 C658 1.379 . S
C664 C661 1.363 . S
C664 N662 1.356 . S
C665 C659 1.363 . S
C665 C660 1.379 . S
C665 N663 1.356 . S
N666 C658 1.356 . S
N666 H672 0.984 . S
N666 H673 0.984 . S
N667 C660 1.356 . S
N667 H670 0.984 . S
N667 H671 0.985 . S
H668 N663 0.984 . S
H669 N663 0.985 . S
H670 N667 0.984 . S
H671 N667 0.985 . S
H672 N666 0.984 . S
H673 N666 0.984 . S
H674 N662 0.984 . S
H675 N662 0.985 . S
C676 C677 1.363 1_655 S
C676 C682 1.379 . S
C676 N684 1.356 . S
C677 C676 1.363 1_455 S
C677 C683 1.363 . S
C678 C679 1.363 1_455 S
C678 C683 1.379 . S
C678 N685 1.356 . S
C679 C678 1.363 1_655 S
C679 C682 1.363 . S
N680 C682 1.356 . S
N680 H692 0.984 . S
N680 H693 0.985 . S
N681 C683 1.356 . S
N681 H686 0.984 . S
N681 H687 0.985 . S
C682 C676 1.379 . S
C682 C679 1.363 . S
C682 N680 1.356 . S
C683 C677 1.363 . S
C683 C678 1.379 . S
C683 N681 1.356 . S
N684 C676 1.356 . S
N684 H690 0.984 . S
N684 H691 0.984 . S
N685 C678 1.356 . S
N685 H688 0.984 . S
N685 H689 0.985 . S
H686 N681 0.984 . S
H687 N681 0.985 . S
H688 N685 0.984 . S
H689 N685 0.985 . S
H690 N684 0.984 . S
H691 N684 0.984 . S
H692 N680 0.984 . S
H693 N680 0.985 . S
C694 C695 1.363 . S
C694 C700 1.379 . S
C694 N702 1.356 . S
C695 C694 1.363 . S
C695 C701 1.363 1_545 S
C696 C697 1.363 . S
C696 C701 1.379 . S
C696 N703 1.356 . S
C697 C696 1.363 . S
C697 C700 1.363 1_565 S
N698 C700 1.356 . S
N698 H710 0.984 . S
N698 H711 0.985 . S
N699 C701 1.356 . S
N699 H704 0.984 . S
N699 H705 0.985 . S
C700 C694 1.379 . S
C700 C697 1.363 1_545 S
C700 N698 1.356 . S
C701 C695 1.363 1_565 S
C701 C696 1.379 . S
C701 N699 1.356 . S
N702 C694 1.356 . S
N702 H708 0.984 . S
N702 H709 0.984 . S
N703 C696 1.356 . S
N703 H706 0.984 . S
N703 H707 0.985 . S
H704 N699 0.984 . S
H705 N699 0.985 . S
H706 N703 0.984 . S
H707 N703 0.985 . S
H708 N702 0.984 . S
H709 N702 0.984 . S
H710 N698 0.984 . S
H711 N698 0.985 . S
C712 C713 1.363 . S
C712 C718 1.379 1_556 S
C712 N720 1.356 . S
C713 C712 1.363 . S
C713 C719 1.363 . S
C714 C715 1.363 . S
C714 C719 1.379 1_554 S
C714 N721 1.356 . S
C715 C714 1.363 . S
C715 C718 1.363 . S
N716 C718 1.356 . S
N716 H728 0.984 . S
N716 H729 0.985 . S
N717 C719 1.356 . S
N717 H722 0.984 . S
N717 H723 0.985 . S
C718 C712 1.379 1_554 S
C718 C715 1.363 . S
C718 N716 1.356 . S
C719 C713 1.363 . S
C719 C714 1.379 1_556 S
C719 N717 1.356 . S
N720 C712 1.356 . S
N720 H726 0.984 . S
N720 H727 0.984 . S
N721 C714 1.356 . S
N721 H724 0.984 . S
N721 H725 0.985 . S
H722 N717 0.984 . S
H723 N717 0.985 . S
H724 N721 0.984 . S
H725 N721 0.985 . S
H726 N720 0.984 . S
H727 N720 0.984 . S
H728 N716 0.984 . S
H729 N716 0.985 . S
C730 C731 1.363 . S
C730 C736 1.379 1_556 S
C730 N738 1.356 . S
C731 C730 1.363 . S
C731 C737 1.363 . S
C732 C733 1.363 . S
C732 C737 1.379 1_554 S
C732 N739 1.356 . S
C733 C732 1.363 . S
C733 C736 1.363 . S
N734 C736 1.356 . S
N734 H746 0.984 . S
N734 H747 0.985 . S
N735 C737 1.356 . S
N735 H740 0.984 . S
N735 H741 0.985 . S
C736 C730 1.379 1_554 S
C736 C733 1.363 . S
C736 N734 1.356 . S
C737 C731 1.363 . S
C737 C732 1.379 1_556 S
C737 N735 1.356 . S
N738 C730 1.356 . S
N738 H744 0.984 . S
N738 H745 0.984 . S
N739 C732 1.356 . S
N739 H742 0.984 . S
N739 H743 0.985 . S
H740 N735 0.984 . S
H741 N735 0.985 . S
H742 N739 0.984 . S
H743 N739 0.985 . S
H744 N738 0.984 . S
H745 N738 0.984 . S
H746 N734 0.984 . S
H747 N734 0.985 . S
C748 C749 1.363 . S
C748 C754 1.379 1_554 S
C748 N756 1.356 . S
C749 C748 1.363 . S
C749 C755 1.363 . S
C750 C751 1.363 . S
C750 C755 1.379 1_556 S
C750 N757 1.356 . S
C751 C750 1.363 . S
C751 C754 1.363 . S
N752 C754 1.356 . S
N752 H764 0.984 . S
N752 H765 0.985 . S
N753 C755 1.356 . S
N753 H758 0.984 . S
N753 H759 0.985 . S
C754 C748 1.379 1_556 S
C754 C751 1.363 . S
C754 N752 1.356 . S
C755 C749 1.363 . S
C755 C750 1.379 1_554 S
C755 N753 1.356 . S
N756 C748 1.356 . S
N756 H762 0.984 . S
N756 H763 0.984 . S
N757 C750 1.356 . S
N757 H760 0.984 . S
N757 H761 0.985 . S
H758 N753 0.984 . S
H759 N753 0.985 . S
H760 N757 0.984 . S
H761 N757 0.985 . S
H762 N756 0.984 . S
H763 N756 0.984 . S
H764 N752 0.984 . S
H765 N752 0.985 . S
C766 C767 1.363 . S
C766 C772 1.379 1_556 S
C766 N774 1.356 . S
C767 C766 1.363 . S
C767 C773 1.363 . S
C768 C769 1.363 . S
C768 C773 1.379 1_554 S
C768 N775 1.356 . S
C769 C768 1.363 . S
C769 C772 1.363 . S
N770 C772 1.356 . S
N770 H782 0.984 . S
N770 H783 0.985 . S
N771 C773 1.356 . S
N771 H776 0.984 . S
N771 H777 0.985 . S
C772 C766 1.379 1_554 S
C772 C769 1.363 . S
C772 N770 1.356 . S
C773 C767 1.363 . S
C773 C768 1.379 1_556 S
C773 N771 1.356 . S
N774 C766 1.356 . S
N774 H780 0.984 . S
N774 H781 0.984 . S
N775 C768 1.356 . S
N775 H778 0.984 . S
N775 H779 0.985 . S
H776 N771 0.984 . S
H777 N771 0.985 . S
H778 N775 0.984 . S
H779 N775 0.985 . S
H780 N774 0.984 . S
H781 N774 0.984 . S
H782 N770 0.984 . S
H783 N770 0.985 . S
C209 C10 1.607 . S
C211 C42 1.621 . S
C227 C5 1.621 . S
C229 C23 1.607 . S
C245 C18 1.621 . S
C247 C30 1.607 . S
C263 C29 1.621 . S
C265 C43 1.607 . S
C281 C62 1.607 . S
C283 C70 1.621 . S
C299 C75 1.607 . S
C301 C81 1.621 . S
C317 C82 1.607 . S
C319 C96 1.621 . S
C335 C101 1.607 . S
C337 C57 1.621 . S
C353 C108 1.607 . S
C355 C146 1.621 . S
C371 C107 1.621 . S
C373 C127 1.607 . S
C389 C122 1.621 . S
C391 C134 1.607 . S
C407 C147 1.607 . S
C409 C133 1.621 . S
C425 C174 1.621 . S
C427 C166 1.607 . S
C443 C187 1.621 . S
C445 C179 1.607 . S
C461 C192 1.607 . S
C463 C200 1.621 . S
C479 C205 1.607 . S
C481 C161 1.621 . S
C497 C4 1.270 . S
C499 C199 1.270 . S
C515 C17 1.270 . S
C517 C160 1.270 . S
C533 C173 1.270 . S
C535 C36 1.270 . S
C551 C49 1.270 . S
C553 C186 1.270 . S
C569 C121 1.270 . S
C571 C56 1.270 . S
C587 C140 1.270 . S
C589 C69 1.270 . S
C605 C88 1.270 . S
C607 C153 1.270 . S
C623 C95 1.270 . S
C625 C114 1.270 . S
C641 C3 1.689 . S
C643 C83 1.689 . S
C659 C94 1.689 . S
C661 C16 1.689 . S
C677 C55 1.689 . S
C679 C31 1.689 . S
C695 C68 1.689 . S
C697 C44 1.689 . S
C713 C109 1.689 . S
C715 C185 1.689 . S
C731 C120 1.689 . S
C733 C198 1.689 . S
C749 C159 1.689 . S
C751 C135 1.689 . S
C767 C148 1.689 . S
C769 C172 1.689 . S
