# Generated by pormake.
# Topology gme, (4)-cn, num edge types: 1
# Building blocks:
#     Node 0, Type 0, BuildingBlock: UXUYUI_clean_sbu_0, # of connection points: 4
#     Node 1, Type 0, BuildingBlock: UXUYUI_clean_sbu_0, # of connection points: 4
#     Node 2, Type 0, BuildingBlock: UXUYUI_clean_sbu_0, # of connection points: 4
#     Node 3, Type 0, BuildingBlock: UXUYUI_clean_sbu_0, # of connection points: 4
#     Node 4, Type 0, BuildingBlock: UXUYUI_clean_sbu_0, # of connection points: 4
#     Node 5, Type 0, BuildingBlock: UXUYUI_clean_sbu_0, # of connection points: 4
#     Node 6, Type 0, BuildingBlock: UXUYUI_clean_sbu_0, # of connection points: 4
#     Node 7, Type 0, BuildingBlock: UXUYUI_clean_sbu_0, # of connection points: 4
#     Node 8, Type 0, BuildingBlock: UXUYUI_clean_sbu_0, # of connection points: 4
#     Node 9, Type 0, BuildingBlock: UXUYUI_clean_sbu_0, # of connection points: 4
#     Node 10, Type 0, BuildingBlock: UXUYUI_clean_sbu_0, # of connection points: 4
#     Node 11, Type 0, BuildingBlock: UXUYUI_clean_sbu_0, # of connection points: 4
#     Node 12, Type 0, BuildingBlock: UXUYUI_clean_sbu_0, # of connection points: 4
#     Node 13, Type 0, BuildingBlock: UXUYUI_clean_sbu_0, # of connection points: 4
#     Node 14, Type 0, BuildingBlock: UXUYUI_clean_sbu_0, # of connection points: 4
#     Node 15, Type 0, BuildingBlock: UXUYUI_clean_sbu_0, # of connection points: 4
#     Node 16, Type 0, BuildingBlock: UXUYUI_clean_sbu_0, # of connection points: 4
#     Node 17, Type 0, BuildingBlock: UXUYUI_clean_sbu_0, # of connection points: 4
#     Node 18, Type 0, BuildingBlock: UXUYUI_clean_sbu_0, # of connection points: 4
#     Node 19, Type 0, BuildingBlock: UXUYUI_clean_sbu_0, # of connection points: 4
#     Node 20, Type 0, BuildingBlock: UXUYUI_clean_sbu_0, # of connection points: 4
#     Node 21, Type 0, BuildingBlock: UXUYUI_clean_sbu_0, # of connection points: 4
#     Node 22, Type 0, BuildingBlock: UXUYUI_clean_sbu_0, # of connection points: 4
#     Node 23, Type 0, BuildingBlock: UXUYUI_clean_sbu_0, # of connection points: 4
#     Edge 24, Type (0, 0), BuildingBlock: KIFKEQ_clean_linker_1, # of connection points: 2
#     Edge 25, Type (0, 0), BuildingBlock: KIFKEQ_clean_linker_1, # of connection points: 2
#     Edge 26, Type (0, 0), BuildingBlock: KIFKEQ_clean_linker_1, # of connection points: 2
#     Edge 27, Type (0, 0), BuildingBlock: KIFKEQ_clean_linker_1, # of connection points: 2
#     Edge 28, Type (0, 0), BuildingBlock: KIFKEQ_clean_linker_1, # of connection points: 2
#     Edge 29, Type (0, 0), BuildingBlock: KIFKEQ_clean_linker_1, # of connection points: 2
#     Edge 30, Type (0, 0), BuildingBlock: KIFKEQ_clean_linker_1, # of connection points: 2
#     Edge 31, Type (0, 0), BuildingBlock: KIFKEQ_clean_linker_1, # of connection points: 2
#     Edge 32, Type (0, 0), BuildingBlock: KIFKEQ_clean_linker_1, # of connection points: 2
#     Edge 33, Type (0, 0), BuildingBlock: KIFKEQ_clean_linker_1, # of connection points: 2
#     Edge 34, Type (0, 0), BuildingBlock: KIFKEQ_clean_linker_1, # of connection points: 2
#     Edge 35, Type (0, 0), BuildingBlock: KIFKEQ_clean_linker_1, # of connection points: 2
#     Edge 36, Type (0, 0), BuildingBlock: KIFKEQ_clean_linker_1, # of connection points: 2
#     Edge 37, Type (0, 0), BuildingBlock: KIFKEQ_clean_linker_1, # of connection points: 2
#     Edge 38, Type (0, 0), BuildingBlock: KIFKEQ_clean_linker_1, # of connection points: 2
#     Edge 39, Type (0, 0), BuildingBlock: KIFKEQ_clean_linker_1, # of connection points: 2
#     Edge 40, Type (0, 0), BuildingBlock: KIFKEQ_clean_linker_1, # of connection points: 2
#     Edge 41, Type (0, 0), BuildingBlock: KIFKEQ_clean_linker_1, # of connection points: 2
#     Edge 42, Type (0, 0), BuildingBlock: KIFKEQ_clean_linker_1, # of connection points: 2
#     Edge 43, Type (0, 0), BuildingBlock: KIFKEQ_clean_linker_1, # of connection points: 2
#     Edge 44, Type (0, 0), BuildingBlock: KIFKEQ_clean_linker_1, # of connection points: 2
#     Edge 45, Type (0, 0), BuildingBlock: KIFKEQ_clean_linker_1, # of connection points: 2
#     Edge 46, Type (0, 0), BuildingBlock: KIFKEQ_clean_linker_1, # of connection points: 2
#     Edge 47, Type (0, 0), BuildingBlock: KIFKEQ_clean_linker_1, # of connection points: 2
#     Edge 48, Type (0, 0), BuildingBlock: KIFKEQ_clean_linker_1, # of connection points: 2
#     Edge 49, Type (0, 0), BuildingBlock: KIFKEQ_clean_linker_1, # of connection points: 2
#     Edge 50, Type (0, 0), BuildingBlock: KIFKEQ_clean_linker_1, # of connection points: 2
#     Edge 51, Type (0, 0), BuildingBlock: KIFKEQ_clean_linker_1, # of connection points: 2
#     Edge 52, Type (0, 0), BuildingBlock: KIFKEQ_clean_linker_1, # of connection points: 2
#     Edge 53, Type (0, 0), BuildingBlock: KIFKEQ_clean_linker_1, # of connection points: 2
#     Edge 54, Type (0, 0), BuildingBlock: KIFKEQ_clean_linker_1, # of connection points: 2
#     Edge 55, Type (0, 0), BuildingBlock: KIFKEQ_clean_linker_1, # of connection points: 2
#     Edge 56, Type (0, 0), BuildingBlock: KIFKEQ_clean_linker_1, # of connection points: 2
#     Edge 57, Type (0, 0), BuildingBlock: KIFKEQ_clean_linker_1, # of connection points: 2
#     Edge 58, Type (0, 0), BuildingBlock: KIFKEQ_clean_linker_1, # of connection points: 2
#     Edge 59, Type (0, 0), BuildingBlock: KIFKEQ_clean_linker_1, # of connection points: 2
#     Edge 60, Type (0, 0), BuildingBlock: KIFKEQ_clean_linker_1, # of connection points: 2
#     Edge 61, Type (0, 0), BuildingBlock: KIFKEQ_clean_linker_1, # of connection points: 2
#     Edge 62, Type (0, 0), BuildingBlock: KIFKEQ_clean_linker_1, # of connection points: 2
#     Edge 63, Type (0, 0), BuildingBlock: KIFKEQ_clean_linker_1, # of connection points: 2
#     Edge 64, Type (0, 0), BuildingBlock: KIFKEQ_clean_linker_1, # of connection points: 2
#     Edge 65, Type (0, 0), BuildingBlock: KIFKEQ_clean_linker_1, # of connection points: 2
#     Edge 66, Type (0, 0), BuildingBlock: KIFKEQ_clean_linker_1, # of connection points: 2
#     Edge 67, Type (0, 0), BuildingBlock: KIFKEQ_clean_linker_1, # of connection points: 2
#     Edge 68, Type (0, 0), BuildingBlock: KIFKEQ_clean_linker_1, # of connection points: 2
#     Edge 69, Type (0, 0), BuildingBlock: KIFKEQ_clean_linker_1, # of connection points: 2
#     Edge 70, Type (0, 0), BuildingBlock: KIFKEQ_clean_linker_1, # of connection points: 2
#     Edge 71, Type (0, 0), BuildingBlock: KIFKEQ_clean_linker_1, # of connection points: 2
# Relax obj value: 0.245
# Max RMSD: 0.175
# Mean RMSD: 0.174
data_MOF--net-gme--node1-UXUYUI_clean_sbu_0--edge1-KIFKEQ_clean_linker_1
_symmetry_space_group_name_H-M    P1
_symmetry_Int_Tables_number       1
_symmetry_cell_setting            triclinic
loop_
_symmetry_equiv_pos_as_xyz
'x, y, z'
_cell_length_a     96.484187
_cell_length_b     96.470199
_cell_length_c     68.70854
_cell_angle_alpha  90.012918
_cell_angle_beta   89.967965
_cell_angle_gamma 120.00205
loop_
_atom_site_label
_atom_site_type_symbol
_atom_site_fract_x
_atom_site_fract_y
_atom_site_fract_z
_atom_type_partial_charge
Li0 Li 0.43403 0.11645 0.07948 0.0
Li1 Li 0.42788 0.09891 0.10809 0.0
Li2 Li 0.44705 0.10011 0.08339 0.0
Li3 Li 0.418 0.0878 0.07714 0.0
C4 C 0.45813 0.13171 0.10894 0.0
N5 N 0.47707 0.16105 0.12662 0.0
C6 C 0.45201 0.13675 0.12409 0.0
C7 C 0.474 0.14153 0.10301 0.0
C8 C 0.46173 0.15164 0.13277 0.0
C9 C 0.48335 0.15633 0.11207 0.0
C10 C 0.39785 0.09713 0.08569 0.0
C11 C 0.36968 0.07764 0.08653 0.0
N12 N 0.36713 0.08556 0.07185 0.0
C13 C 0.39495 0.10511 0.07066 0.0
C14 C 0.38512 0.08333 0.09377 0.0
C15 C 0.37933 0.09906 0.06385 0.0
C16 C 0.44032 0.14236 0.05289 0.0
N17 N 0.43708 0.13668 0.07147 0.0
C18 C 0.43869 0.16084 0.08268 0.0
C19 C 0.43561 0.14535 0.08606 0.0
C20 C 0.44281 0.1673 0.0639 0.0
C21 C 0.44324 0.15779 0.04874 0.0
H22 H 0.44065 0.13501 0.04127 0.0
H23 H 0.43199 0.14018 0.10037 0.0
C24 C 0.43679 0.09994 0.14708 0.0
N25 N 0.42454 0.09788 0.1354 0.0
C26 C 0.43535 0.10015 0.16724 0.0
C27 C 0.40862 0.09594 0.16302 0.0
C28 C 0.41061 0.09587 0.14289 0.0
C29 C 0.42116 0.09826 0.17546 0.0
H30 H 0.44777 0.10164 0.14065 0.0
H31 H 0.40117 0.09449 0.13323 0.0
C32 C 0.44654 0.11 0.04502 0.0
N33 N 0.46806 0.12491 0.01504 0.0
C34 C 0.44265 0.104 0.02608 0.0
C35 C 0.46138 0.12353 0.04873 0.0
C36 C 0.45369 0.11172 0.01111 0.0
C37 C 0.4721 0.13092 0.03339 0.0
C38 C 0.42771 0.07192 0.11173 0.0
C39 C 0.44105 0.07142 0.11873 0.0
C40 C 0.41312 0.06362 0.12162 0.0
C41 C 0.43963 0.06278 0.13565 0.0
C42 C 0.41219 0.05514 0.13851 0.0
N43 N 0.42535 0.05491 0.14513 0.0
C44 C 0.47741 0.10626 0.09393 0.0
C45 C 0.4693 0.09419 0.06284 0.0
C46 C 0.49226 0.1073 0.09184 0.0
N47 N 0.46638 0.09994 0.07947 0.0
C48 C 0.48406 0.09504 0.06009 0.0
C49 C 0.49583 0.1018 0.07467 0.0
H50 H 0.47464 0.11052 0.10711 0.0
H51 H 0.46025 0.08916 0.0516 0.0
C52 C 0.39683 0.07472 0.04556 0.0
N53 N 0.40096 0.07119 0.063 0.0
C54 C 0.38511 0.06257 0.03412 0.0
C55 C 0.38192 0.04347 0.05902 0.0
C56 C 0.3937 0.05599 0.06996 0.0
C57 C 0.37768 0.04665 0.04068 0.0
H58 H 0.40289 0.08695 0.0404 0.0
H59 H 0.39738 0.05351 0.08374 0.0
O60 O 0.44883 0.11707 0.10037 0.0
O61 O 0.41311 0.10268 0.09225 0.0
O62 O 0.43598 0.10237 0.05986 0.0
O63 O 0.42894 0.08055 0.09537 0.0
H64 H 0.43978 0.12939 0.12892 0.0
H65 H 0.47914 0.13777 0.09164 0.0
H66 H 0.45707 0.15572 0.14439 0.0
H67 H 0.49562 0.16405 0.10757 0.0
H68 H 0.35973 0.06691 0.09255 0.0
H69 H 0.40467 0.11577 0.06418 0.0
H70 H 0.38717 0.07693 0.1053 0.0
H71 H 0.37691 0.10507 0.05217 0.0
H72 H 0.43772 0.16767 0.09459 0.0
H73 H 0.44607 0.16233 0.034 0.0
H74 H 0.44523 0.10178 0.17631 0.0
H75 H 0.39757 0.09463 0.16876 0.0
H76 H 0.43124 0.09346 0.023 0.0
H77 H 0.46451 0.12831 0.06327 0.0
H78 H 0.45084 0.10722 0.99637 0.0
H79 H 0.48362 0.14143 0.03606 0.0
H80 H 0.45239 0.07766 0.11121 0.0
H81 H 0.4027 0.06397 0.11652 0.0
H82 H 0.44988 0.06235 0.14127 0.0
H83 H 0.40102 0.04881 0.14641 0.0
H84 H 0.50081 0.11226 0.10364 0.0
H85 H 0.48633 0.09073 0.04659 0.0
H86 H 0.38212 0.06554 0.02012 0.0
H87 H 0.37675 0.03136 0.06449 0.0
Li88 Li 0.31541 0.43606 0.58203 0.0
Li89 Li 0.33093 0.43258 0.61004 0.0
Li90 Li 0.34438 0.44965 0.58245 0.0
Li91 Li 0.33007 0.42176 0.57801 0.0
C92 C 0.3386 0.46781 0.60552 0.0
N93 N 0.35685 0.50026 0.61261 0.0
C94 C 0.35004 0.47345 0.62035 0.0
C95 C 0.33629 0.47864 0.59446 0.0
C96 C 0.35919 0.48991 0.62366 0.0
C97 C 0.34568 0.49501 0.59822 0.0
C98 C 0.30365 0.40009 0.59405 0.0
C99 C 0.29935 0.37421 0.6037 0.0
N100 N 0.28816 0.36728 0.58944 0.0
C101 C 0.29207 0.39274 0.57956 0.0
C102 C 0.30731 0.39079 0.60628 0.0
C103 C 0.28438 0.37612 0.57744 0.0
C104 C 0.28852 0.43118 0.55959 0.0
N105 N 0.29645 0.43638 0.57678 0.0
C106 C 0.27622 0.44115 0.58947 0.0
C107 C 0.29068 0.44138 0.59158 0.0
C108 C 0.26775 0.43586 0.57191 0.0
C109 C 0.2741 0.43101 0.55673 0.0
H110 H 0.29333 0.42704 0.54821 0.0
H111 H 0.29724 0.4453 0.60512 0.0
C112 C 0.34405 0.43389 0.64735 0.0
N113 N 0.33045 0.42965 0.63715 0.0
C114 C 0.34351 0.43258 0.66762 0.0
C115 C 0.31494 0.42229 0.66631 0.0
C116 C 0.31604 0.4238 0.64611 0.0
C117 C 0.32883 0.4269 0.67736 0.0
H118 H 0.35535 0.43863 0.63976 0.0
H119 H 0.30545 0.42055 0.63752 0.0
C120 C 0.33141 0.44573 0.54362 0.0
N121 N 0.33449 0.46143 0.50884 0.0
C122 C 0.33871 0.44303 0.52762 0.0
C123 C 0.3255 0.45627 0.54183 0.0
C124 C 0.34022 0.45113 0.5102 0.0
C125 C 0.32721 0.46413 0.52416 0.0
C126 C 0.36201 0.43387 0.58741 0.0
C127 C 0.36556 0.43711 0.56765 0.0
C128 C 0.37188 0.43067 0.59918 0.0
C129 C 0.37895 0.4371 0.55996 0.0
C130 C 0.38517 0.43076 0.59095 0.0
N131 N 0.3884 0.43394 0.57167 0.0
C132 C 0.37622 0.47332 0.589 0.0
C133 C 0.36497 0.47939 0.562 0.0
C134 C 0.39068 0.48756 0.58654 0.0
N135 N 0.36373 0.46943 0.57675 0.0
C136 C 0.3792 0.49378 0.55901 0.0
C137 C 0.3923 0.49802 0.57138 0.0
H138 H 0.37487 0.46547 0.60097 0.0
H139 H 0.35493 0.47642 0.55268 0.0
C140 C 0.32248 0.40059 0.54672 0.0
N141 N 0.32935 0.4043 0.56462 0.0
C142 C 0.32306 0.38885 0.5355 0.0
C143 C 0.33726 0.3846 0.56171 0.0
C144 C 0.33628 0.39633 0.57247 0.0
C145 C 0.33093 0.38099 0.54276 0.0
H146 H 0.31687 0.40703 0.541 0.0
H147 H 0.34149 0.39944 0.58686 0.0
O148 O 0.3299 0.45178 0.60165 0.0
O149 O 0.31165 0.41636 0.59598 0.0
O150 O 0.32947 0.43754 0.56061 0.0
O151 O 0.34889 0.4337 0.5953 0.0
H152 H 0.35199 0.46521 0.629 0.0
H153 H 0.32741 0.47445 0.58302 0.0
H154 H 0.36819 0.49446 0.63498 0.0
H155 H 0.3441 0.50354 0.58969 0.0
H156 H 0.30211 0.36685 0.61298 0.0
H157 H 0.28919 0.39981 0.56993 0.0
H158 H 0.31632 0.39636 0.6175 0.0
H159 H 0.27545 0.37025 0.56622 0.0
H160 H 0.27168 0.44505 0.60144 0.0
H161 H 0.26777 0.42673 0.54306 0.0
H162 H 0.35452 0.43644 0.6756 0.0
H163 H 0.30336 0.41765 0.6732 0.0
H164 H 0.3431 0.43469 0.52859 0.0
H165 H 0.31985 0.45856 0.55401 0.0
H166 H 0.34589 0.44919 0.49773 0.0
H167 H 0.32278 0.47239 0.52263 0.0
H168 H 0.3581 0.43967 0.55837 0.0
H169 H 0.36927 0.4281 0.61451 0.0
H170 H 0.38183 0.43959 0.54468 0.0
H171 H 0.39292 0.42829 0.59989 0.0
H172 H 0.40034 0.49051 0.59669 0.0
H173 H 0.37994 0.50148 0.54711 0.0
H174 H 0.31777 0.38625 0.52112 0.0
H175 H 0.34358 0.37899 0.56784 0.0
Li176 Li 0.89051 0.32591 0.10841 0.0
Li177 Li 0.87251 0.31337 0.08021 0.0
Li178 Li 0.90076 0.33049 0.07475 0.0
Li179 Li 0.88372 0.34123 0.08555 0.0
C180 C 0.90013 0.30453 0.09519 0.0
N181 N 0.92009 0.29345 0.10753 0.0
C182 C 0.89543 0.28836 0.09316 0.0
C183 C 0.91494 0.31506 0.10356 0.0
C184 C 0.90571 0.28299 0.09946 0.0
C185 C 0.92487 0.30923 0.1097 0.0
C186 C 0.86038 0.32986 0.11071 0.0
C187 C 0.84002 0.3372 0.10699 0.0
N188 N 0.84341 0.34372 0.12512 0.0
C189 C 0.86358 0.33652 0.12936 0.0
C190 C 0.84842 0.33008 0.09947 0.0
C191 C 0.8549 0.34351 0.13637 0.0
C192 C 0.90185 0.33701 0.146 0.0
N193 N 0.89462 0.32367 0.13474 0.0
C194 C 0.89164 0.30706 0.162 0.0
C195 C 0.88962 0.30888 0.14224 0.0
C196 C 0.8986 0.32058 0.17421 0.0
C197 C 0.9039 0.33573 0.16588 0.0
H198 H 0.90551 0.34859 0.13962 0.0
H199 H 0.88382 0.29847 0.13292 0.0
C200 C 0.85544 0.28485 0.05821 0.0
N201 N 0.85427 0.29406 0.07239 0.0
C202 C 0.84217 0.27013 0.05335 0.0
C203 C 0.82697 0.27451 0.07817 0.0
C204 C 0.84042 0.28924 0.08229 0.0
C205 C 0.82784 0.26476 0.06364 0.0
H206 H 0.86677 0.28878 0.05099 0.0
H207 H 0.83992 0.29664 0.09377 0.0
C208 C 0.91917 0.36034 0.09454 0.0
N209 N 0.94794 0.38876 0.09199 0.0
C210 C 0.9209 0.37226 0.08156 0.0
C211 C 0.93202 0.36299 0.10645 0.0
C212 C 0.93556 0.3865 0.08041 0.0
C213 C 0.94648 0.37741 0.10488 0.0
C214 C 0.87484 0.32342 0.04415 0.0
C215 C 0.88179 0.31831 0.0301 0.0
C216 C 0.85934 0.32074 0.04127 0.0
C217 C 0.87305 0.31046 0.01347 0.0
C218 C 0.85098 0.31281 0.02447 0.0
N219 N 0.85795 0.30787 0.01104 0.0
C220 C 0.92457 0.32503 0.05608 0.0
C221 C 0.92392 0.34846 0.04745 0.0
C222 C 0.93734 0.32909 0.04336 0.0
N223 N 0.91837 0.33489 0.05819 0.0
C224 C 0.93667 0.35302 0.03466 0.0
C225 C 0.94359 0.3433 0.03251 0.0
H226 H 0.91953 0.31389 0.06393 0.0
H227 H 0.91827 0.35566 0.04862 0.0
C228 C 0.88525 0.36931 0.09962 0.0
N229 N 0.8807 0.3592 0.08414 0.0
C230 C 0.88359 0.38286 0.09906 0.0
C231 C 0.87269 0.37539 0.06658 0.0
C232 C 0.87453 0.36195 0.06779 0.0
C233 C 0.8773 0.38608 0.08233 0.0
H234 H 0.89033 0.3669 0.11232 0.0
H235 H 0.87117 0.35379 0.05564 0.0
O236 O 0.89007 0.30989 0.0894 0.0
O237 O 0.86902 0.32331 0.10339 0.0
O238 O 0.90485 0.34637 0.09609 0.0
O239 O 0.88316 0.33103 0.0606 0.0
H240 H 0.88396 0.28005 0.08679 0.0
H241 H 0.91871 0.32758 0.10523 0.0
H242 H 0.90224 0.27051 0.09796 0.0
H243 H 0.93637 0.31725 0.11617 0.0
H244 H 0.83082 0.33757 0.09838 0.0
H245 H 0.87274 0.33641 0.13829 0.0
H246 H 0.84577 0.32497 0.08502 0.0
H247 H 0.85731 0.34879 0.15075 0.0
H248 H 0.8876 0.29517 0.16767 0.0
H249 H 0.90905 0.34647 0.17469 0.0
H250 H 0.84326 0.26275 0.04225 0.0
H251 H 0.81607 0.27066 0.08642 0.0
H252 H 0.9111 0.37048 0.07228 0.0
H253 H 0.93083 0.35408 0.1169 0.0
H254 H 0.93708 0.39576 0.07031 0.0
H255 H 0.95653 0.37959 0.11397 0.0
H256 H 0.89375 0.32024 0.03206 0.0
H257 H 0.85376 0.32458 0.05199 0.0
H258 H 0.87825 0.30637 0.00253 0.0
H259 H 0.83894 0.31056 0.02213 0.0
H260 H 0.94207 0.32107 0.0418 0.0
H261 H 0.94111 0.36411 0.02667 0.0
H262 H 0.88753 0.39091 0.1114 0.0
H263 H 0.86768 0.37736 0.05347 0.0
Li264 Li 0.5638 0.89066 0.60522 0.0
Li265 Li 0.55804 0.87511 0.57663 0.0
Li266 Li 0.57316 0.9043 0.57451 0.0
Li267 Li 0.54328 0.88895 0.58326 0.0
C268 C 0.59414 0.89357 0.5932 0.0
N269 N 0.62431 0.9008 0.6055 0.0
C270 C 0.5975 0.8813 0.59699 0.0
C271 C 0.60623 0.90952 0.59537 0.0
C272 C 0.61279 0.8852 0.60329 0.0
C273 C 0.62137 0.91293 0.60168 0.0
C274 C 0.5397 0.85839 0.60911 0.0
C275 C 0.52077 0.83438 0.62598 0.0
N276 N 0.53289 0.83176 0.63111 0.0
C277 C 0.55196 0.85548 0.61458 0.0
C278 C 0.52398 0.84779 0.61487 0.0
C279 C 0.54828 0.84195 0.62569 0.0
C280 C 0.55476 0.88688 0.64402 0.0
N281 N 0.56785 0.89138 0.63264 0.0
C282 C 0.58421 0.89612 0.66078 0.0
C283 C 0.58244 0.89602 0.64059 0.0
C284 C 0.57085 0.89144 0.67288 0.0
C285 C 0.55598 0.88685 0.66422 0.0
H286 H 0.54332 0.8834 0.63735 0.0
H287 H 0.59273 0.89966 0.63142 0.0
C288 C 0.56982 0.85778 0.55686 0.0
N289 N 0.55653 0.85646 0.56544 0.0
C290 C 0.56975 0.84419 0.54976 0.0
C291 C 0.54212 0.82828 0.55986 0.0
C292 C 0.54271 0.84219 0.56664 0.0
C293 C 0.55587 0.82912 0.55163 0.0
H294 H 0.58057 0.86936 0.55589 0.0
H295 H 0.53224 0.84154 0.57329 0.0
C296 C 0.5639 0.91743 0.6118 0.0
N297 N 0.5692 0.93418 0.64622 0.0
C298 C 0.55101 0.91628 0.62243 0.0
C299 C 0.5795 0.92728 0.61855 0.0
C300 C 0.55393 0.9248 0.63982 0.0
C301 C 0.58193 0.9356 0.63602 0.0
C302 C 0.54862 0.87906 0.54277 0.0
C303 C 0.55895 0.88086 0.52749 0.0
C304 C 0.53273 0.86661 0.54227 0.0
C305 C 0.5532 0.87009 0.51194 0.0
C306 C 0.52744 0.85609 0.52647 0.0
N307 N 0.5377 0.85803 0.51177 0.0
C308 C 0.5981 0.92007 0.54728 0.0
C309 C 0.59145 0.93686 0.56547 0.0
C310 C 0.60956 0.93319 0.53672 0.0
N311 N 0.5892 0.92214 0.56109 0.0
C312 C 0.60294 0.95031 0.55553 0.0
C313 C 0.612 0.94851 0.54078 0.0
H314 H 0.59616 0.90822 0.54436 0.0
H315 H 0.58415 0.9381 0.5765 0.0
C316 C 0.51345 0.88338 0.59653 0.0
N317 N 0.52338 0.88815 0.58088 0.0
C318 C 0.49861 0.88253 0.59537 0.0
C319 C 0.5043 0.89104 0.56179 0.0
C320 C 0.51916 0.89198 0.56372 0.0
C321 C 0.49378 0.88632 0.57778 0.0
H322 H 0.51714 0.88034 0.60997 0.0
H323 H 0.52728 0.89561 0.55147 0.0
O324 O 0.57929 0.88994 0.58673 0.0
O325 O 0.54299 0.87157 0.59824 0.0
O326 O 0.56124 0.90883 0.59501 0.0
O327 O 0.55412 0.88917 0.55841 0.0
H328 H 0.58843 0.86889 0.59502 0.0
H329 H 0.60397 0.91919 0.5923 0.0
H330 H 0.61552 0.87583 0.60635 0.0
H331 H 0.63079 0.92522 0.60353 0.0
H332 H 0.50866 0.82605 0.63052 0.0
H333 H 0.56417 0.86363 0.61037 0.0
H334 H 0.51436 0.8499 0.61076 0.0
H335 H 0.55767 0.83956 0.63003 0.0
H336 H 0.59587 0.89963 0.66681 0.0
H337 H 0.54541 0.88345 0.67296 0.0
H338 H 0.58053 0.84544 0.54322 0.0
H339 H 0.53121 0.81693 0.5618 0.0
H340 H 0.53887 0.90881 0.61738 0.0
H341 H 0.58961 0.92837 0.61051 0.0
H342 H 0.54405 0.92393 0.64826 0.0
H343 H 0.59393 0.94315 0.64149 0.0
H344 H 0.57129 0.8904 0.52767 0.0
H345 H 0.52464 0.86492 0.55412 0.0
H346 H 0.56107 0.87129 0.50004 0.0
H347 H 0.5152 0.84634 0.52595 0.0
H348 H 0.61638 0.9314 0.52547 0.0
H349 H 0.60435 0.96192 0.55886 0.0
H350 H 0.49112 0.87913 0.60822 0.0
H351 H 0.50106 0.89379 0.54783 0.0
Li352 Li 0.66468 0.5737 0.07963 0.0
Li353 Li 0.65055 0.54464 0.08581 0.0
Li354 Li 0.66748 0.56423 0.10973 0.0
Li355 Li 0.68009 0.56042 0.0806 0.0
C356 C 0.63847 0.56119 0.11395 0.0
N357 N 0.62107 0.5609 0.14613 0.0
C358 C 0.62424 0.54732 0.11892 0.0
C359 C 0.6436 0.57503 0.12511 0.0
C360 C 0.61567 0.54737 0.13529 0.0
C361 C 0.63473 0.57461 0.1414 0.0
C362 C 0.66176 0.5457 0.04812 0.0
C363 C 0.66151 0.52137 0.03929 0.0
N364 N 0.6595 0.52395 0.02031 0.0
C365 C 0.65969 0.54811 0.02853 0.0
C366 C 0.66268 0.53221 0.05357 0.0
C367 C 0.65857 0.53698 0.01469 0.0
C368 C 0.66689 0.59198 0.04693 0.0
N369 N 0.66291 0.58984 0.06608 0.0
C370 C 0.65528 0.60984 0.06487 0.0
C371 C 0.65733 0.59856 0.07521 0.0
C372 C 0.65863 0.61188 0.04481 0.0
C373 C 0.66473 0.6029 0.03592 0.0
H374 H 0.67141 0.58493 0.04011 0.0
H375 H 0.65434 0.59667 0.09049 0.0
C376 C 0.62658 0.51419 0.09721 0.0
N377 N 0.63187 0.52441 0.08186 0.0
C378 C 0.61279 0.49925 0.09557 0.0
C379 C 0.61026 0.50547 0.06214 0.0
C380 C 0.62398 0.52042 0.06456 0.0
C381 C 0.60442 0.49464 0.07782 0.0
H382 H 0.6328 0.51789 0.11096 0.0
H383 H 0.6283 0.52886 0.05263 0.0
C384 C 0.69223 0.59689 0.09053 0.0
N385 N 0.70572 0.62927 0.08291 0.0
C386 C 0.70266 0.60381 0.0748 0.0
C387 C 0.68887 0.60655 0.10254 0.0
C388 C 0.7093 0.62017 0.07114 0.0
C389 C 0.69575 0.62285 0.09842 0.0
C390 C 0.67481 0.54107 0.11626 0.0
C391 C 0.68999 0.55271 0.1227 0.0
C392 C 0.66698 0.52615 0.12545 0.0
C393 C 0.69699 0.54928 0.13838 0.0
C394 C 0.67439 0.52318 0.14107 0.0
N395 N 0.68911 0.53471 0.14717 0.0
C396 C 0.65844 0.55457 0.14834 0.0
C397 C 0.68175 0.58011 0.14567 0.0
C398 C 0.65938 0.55536 0.16858 0.0
N399 N 0.66945 0.56689 0.13735 0.0
C400 C 0.68308 0.58147 0.16591 0.0
C401 C 0.67181 0.56896 0.17761 0.0
H402 H 0.64897 0.54405 0.14132 0.0
H403 H 0.6907 0.58946 0.13663 0.0
C404 C 0.70496 0.5681 0.05349 0.0
N405 N 0.6974 0.55899 0.06935 0.0
C406 C 0.71844 0.56824 0.04582 0.0
C407 C 0.71511 0.54845 0.06977 0.0
C408 C 0.70182 0.54881 0.07703 0.0
C409 C 0.72386 0.55856 0.05429 0.0
H410 H 0.7006 0.57535 0.04688 0.0
H411 H 0.69518 0.54104 0.08894 0.0
O412 O 0.64709 0.56127 0.09803 0.0
O413 O 0.66298 0.5566 0.06178 0.0
O414 O 0.68532 0.58079 0.09409 0.0
O415 O 0.6676 0.54441 0.10124 0.0
H416 H 0.61976 0.53664 0.11017 0.0
H417 H 0.65446 0.58591 0.12149 0.0
H418 H 0.6047 0.53667 0.13933 0.0
H419 H 0.63871 0.58519 0.15029 0.0
H420 H 0.6622 0.51089 0.0433 0.0
H421 H 0.65892 0.55846 0.02405 0.0
H422 H 0.66426 0.53008 0.06862 0.0
H423 H 0.65696 0.5387 -0.00052 0.0
H424 H 0.6509 0.61671 0.0725 0.0
H425 H 0.66729 0.60382 0.02048 0.0
H426 H 0.60857 0.49159 0.10826 0.0
H427 H 0.60434 0.50244 0.04813 0.0
H428 H 0.7056 0.59668 0.06548 0.0
H429 H 0.68093 0.60152 0.11482 0.0
H430 H 0.71732 0.62562 0.05893 0.0
H431 H 0.69312 0.6304 0.10754 0.0
H432 H 0.69625 0.56431 0.11574 0.0
H433 H 0.65534 0.51691 0.12056 0.0
H434 H 0.70868 0.55821 0.14357 0.0
H435 H 0.66845 0.5117 0.14834 0.0
H436 H 0.6504 0.54549 0.17707 0.0
H437 H 0.693 0.59202 0.17235 0.0
H438 H 0.72466 0.57594 0.03358 0.0
H439 H 0.71885 0.54079 0.07673 0.0
Li440 Li 0.11258 0.68032 0.57745 0.0
Li441 Li 0.0954 0.66731 0.60583 0.0
Li442 Li 0.09783 0.65087 0.58017 0.0
Li443 Li 0.08404 0.66634 0.57497 0.0
C444 C 0.12924 0.67388 0.60614 0.0
N445 N 0.15903 0.68915 0.62362 0.0
C446 C 0.13285 0.6857 0.62018 0.0
C447 C 0.14072 0.66969 0.60118 0.0
C448 C 0.14799 0.69332 0.62879 0.0
C449 C 0.15573 0.67759 0.61013 0.0
C450 C 0.09135 0.69496 0.58563 0.0
C451 C 0.0708 0.70212 0.58869 0.0
N452 N 0.07787 0.71308 0.57422 0.0
C453 C 0.09843 0.70633 0.57083 0.0
C454 C 0.07745 0.69287 0.5947 0.0
C455 C 0.09143 0.71537 0.56527 0.0
C456 C 0.13955 0.70133 0.55262 0.0
N457 N 0.1321 0.69907 0.57013 0.0
C458 C 0.1522 0.72502 0.58079 0.0
C459 C 0.13799 0.7107 0.58394 0.0
C460 C 0.16035 0.72757 0.56304 0.0
C461 C 0.15381 0.71553 0.5488 0.0
H462 H 0.13446 0.69234 0.54144 0.0
H463 H 0.13156 0.70889 0.59745 0.0
C464 C 0.09489 0.65698 0.64396 0.0
N465 N 0.09371 0.66818 0.63328 0.0
C466 C 0.0933 0.65665 0.66414 0.0
C467 C 0.08997 0.67985 0.66202 0.0
C468 C 0.09142 0.6796 0.64182 0.0
C469 C 0.09078 0.66818 0.6734 0.0
H470 H 0.09697 0.64822 0.63674 0.0
H471 H 0.09074 0.68849 0.63295 0.0
C472 C 0.10824 0.66295 0.54263 0.0
N473 N 0.12582 0.65943 0.51326 0.0
C474 C 0.1044 0.66355 0.52316 0.0
C475 C 0.12097 0.6605 0.54717 0.0
C476 C 0.11346 0.66178 0.50852 0.0
C477 C 0.12972 0.65875 0.53212 0.0
C478 C 0.06876 0.6394 0.60803 0.0
C479 C 0.06832 0.62528 0.61371 0.0
C480 C 0.05994 0.64482 0.61847 0.0
C481 C 0.05926 0.61693 0.62994 0.0
C482 C 0.05105 0.63615 0.63464 0.0
N483 N 0.0509 0.62251 0.64 0.0
C484 C 0.105 0.62735 0.59035 0.0
C485 C 0.09245 0.62288 0.5595 0.0
C486 C 0.10556 0.61324 0.58875 0.0
N487 N 0.09843 0.6318 0.57591 0.0
C488 C 0.09293 0.60873 0.55718 0.0
C489 C 0.09942 0.6037 0.57204 0.0
H490 H 0.10961 0.63469 0.60325 0.0
H491 H 0.08725 0.62672 0.54828 0.0
C492 C 0.06978 0.67468 0.54483 0.0
N493 N 0.06678 0.66608 0.56152 0.0
C494 C 0.05718 0.67412 0.5342 0.0
C495 C 0.03873 0.65595 0.55824 0.0
C496 C 0.05167 0.65691 0.56841 0.0
C497 C 0.04137 0.66448 0.54075 0.0
H498 H 0.08195 0.6818 0.53966 0.0
H499 H 0.04961 0.65001 0.58154 0.0
O500 O 0.11447 0.66623 0.59754 0.0
O501 O 0.09784 0.68578 0.59102 0.0
O502 O 0.09925 0.66434 0.55707 0.0
O503 O 0.07781 0.6479 0.59237 0.0
H504 H 0.12415 0.68912 0.62422 0.0
H505 H 0.13809 0.66039 0.5906 0.0
H506 H 0.15097 0.70258 0.63956 0.0
H507 H 0.16474 0.67449 0.60639 0.0
H508 H 0.06 0.70055 0.59549 0.0
H509 H 0.10911 0.70803 0.56354 0.0
H510 H 0.07176 0.68407 0.6061 0.0
H511 H 0.09675 0.72415 0.55377 0.0
H512 H 0.15682 0.73391 0.59225 0.0
H513 H 0.15951 0.71714 0.53475 0.0
H514 H 0.09425 0.64762 0.67245 0.0
H515 H 0.08803 0.68892 0.66866 0.0
H516 H 0.09451 0.66534 0.51941 0.0
H517 H 0.12411 0.66003 0.56213 0.0
H518 H 0.11064 0.66224 0.49338 0.0
H519 H 0.13962 0.65687 0.53544 0.0
H520 H 0.07493 0.62081 0.60572 0.0
H521 H 0.0602 0.65576 0.61436 0.0
H522 H 0.05888 0.60603 0.63455 0.0
H523 H 0.04431 0.6403 0.64297 0.0
H524 H 0.11082 0.60986 0.60044 0.0
H525 H 0.088 0.60163 0.54413 0.0
H526 H 0.05977 0.68097 0.52087 0.0
H527 H 0.02674 0.64809 0.56363 0.0
Li528 Li 0.88975 0.54794 0.41438 0.0
Li529 Li 0.90246 0.57561 0.4222 0.0
Li530 Li 0.87413 0.56188 0.41783 0.0
Li531 Li 0.89272 0.56753 0.39051 0.0
C532 C 0.87582 0.54653 0.45084 0.0
N533 N 0.85448 0.52363 0.47633 0.0
C534 C 0.87859 0.54841 0.47088 0.0
C535 C 0.86216 0.53301 0.44376 0.0
C536 C 0.86767 0.53669 0.48353 0.0
C537 C 0.85152 0.52157 0.45688 0.0
C538 C 0.92227 0.56396 0.41028 0.0
C539 C 0.94727 0.56445 0.40551 0.0
N540 N 0.94748 0.56116 0.42472 0.0
C541 C 0.92272 0.56056 0.42999 0.0
C542 C 0.93462 0.5659 0.39794 0.0
C543 C 0.93557 0.5592 0.437 0.0
C544 C 0.89197 0.52224 0.4002 0.0
N545 N 0.88997 0.52836 0.41708 0.0
C546 C 0.88873 0.50657 0.43512 0.0
C547 C 0.88874 0.52105 0.43444 0.0
C548 C 0.89029 0.49969 0.41781 0.0
C549 C 0.89214 0.50787 0.40021 0.0
H550 H 0.89355 0.52864 0.38671 0.0
H551 H 0.88779 0.52639 0.44781 0.0
C552 C 0.91568 0.5952 0.45515 0.0
N553 N 0.91911 0.59212 0.43704 0.0
C554 C 0.92779 0.6068 0.46677 0.0
C555 C 0.9466 0.61203 0.44066 0.0
C556 C 0.93413 0.60041 0.42952 0.0
C557 C 0.94356 0.61521 0.45968 0.0
H558 H 0.90356 0.58851 0.46061 0.0
H559 H 0.93647 0.59782 0.41497 0.0
C560 C 0.86513 0.54339 0.3796 0.0
N561 N 0.85047 0.53731 0.3436 0.0
C562 C 0.85882 0.55276 0.37283 0.0
C563 C 0.86387 0.53085 0.36813 0.0
C564 C 0.85148 0.54952 0.35458 0.0
C565 C 0.85644 0.52799 0.34995 0.0
C566 C 0.89932 0.59892 0.40825 0.0
C567 C 0.89591 0.60733 0.42221 0.0
C568 C 0.91291 0.60709 0.39653 0.0
C569 C 0.90623 0.62379 0.42431 0.0
C570 C 0.92292 0.62355 0.39906 0.0
N571 N 0.91941 0.63149 0.41279 0.0
C572 C 0.85415 0.56902 0.44067 0.0
C573 C 0.8406 0.54799 0.41793 0.0
C574 C 0.83968 0.56765 0.44669 0.0
N575 N 0.85434 0.55947 0.42625 0.0
C576 C 0.82592 0.54627 0.42337 0.0
C577 C 0.82531 0.55629 0.4378 0.0
H578 H 0.86524 0.5777 0.44746 0.0
H579 H 0.84102 0.5402 0.40695 0.0
C580 C 0.90077 0.56353 0.35268 0.0
N581 N 0.89582 0.57202 0.3635 0.0
C582 C 0.90203 0.56535 0.33251 0.0
C583 C 0.89335 0.58486 0.33507 0.0
C584 C 0.89223 0.58263 0.35521 0.0
C585 C 0.89818 0.57604 0.32342 0.0
H586 H 0.90335 0.55504 0.35973 0.0
H587 H 0.88816 0.5891 0.3642 0.0
O588 O 0.88638 0.55807 0.4384 0.0
O589 O 0.90981 0.56532 0.40292 0.0
O590 O 0.87279 0.54673 0.39719 0.0
O591 O 0.8896 0.58274 0.4063 0.0
H592 H 0.88909 0.55883 0.47659 0.0
H593 H 0.85978 0.53127 0.42833 0.0
H594 H 0.86968 0.53799 0.49908 0.0
H595 H 0.84092 0.51105 0.4516 0.0
H596 H 0.95692 0.56593 0.39612 0.0
H597 H 0.9133 0.559 0.43981 0.0
H598 H 0.93442 0.5685 0.38264 0.0
H599 H 0.93607 0.55659 0.45221 0.0
H600 H 0.88729 0.50073 0.44904 0.0
H601 H 0.89386 0.50331 0.38656 0.0
H602 H 0.92486 0.60902 0.48123 0.0
H603 H 0.95858 0.61802 0.43466 0.0
H604 H 0.85983 0.56262 0.38145 0.0
H605 H 0.86857 0.5234 0.37317 0.0
H606 H 0.84666 0.55676 0.3491 0.0
H607 H 0.85543 0.51835 0.34089 0.0
H608 H 0.88547 0.60121 0.43142 0.0
H609 H 0.91586 0.60073 0.38583 0.0
H610 H 0.90378 0.63043 0.43512 0.0
H611 H 0.93354 0.63 0.39018 0.0
H612 H 0.83976 0.5754 0.45814 0.0
H613 H 0.81523 0.53745 0.41594 0.0
H614 H 0.90553 0.5581 0.3241 0.0
H615 H 0.8904 0.59332 0.32869 0.0
Li616 Li 0.32968 0.90843 0.9206 0.0
Li617 Li 0.34492 0.89531 0.91259 0.0
Li618 Li 0.32906 0.89946 0.88799 0.0
Li619 Li 0.31632 0.87996 0.91399 0.0
C620 C 0.35687 0.93134 0.90752 0.0
N621 N 0.37409 0.96263 0.92037 0.0
C622 C 0.36969 0.93596 0.92034 0.0
C623 C 0.35285 0.94265 0.90118 0.0
C624 C 0.37825 0.95184 0.92665 0.0
C625 C 0.36168 0.9584 0.90788 0.0
C626 C 0.32295 0.8821 0.95075 0.0
C627 C 0.31307 0.85742 0.96864 0.0
N628 N 0.30469 0.86189 0.98047 0.0
C629 C 0.31423 0.88645 0.96308 0.0
C630 C 0.32239 0.86747 0.95355 0.0
C631 C 0.30508 0.87607 0.97803 0.0
C632 C 0.32027 0.93086 0.93252 0.0
N633 N 0.32972 0.92448 0.93651 0.0
C634 C 0.3412 0.94184 0.96377 0.0
C635 C 0.33992 0.92956 0.95189 0.0
C636 C 0.33187 0.94894 0.95979 0.0
C637 C 0.32122 0.94326 0.94399 0.0
H638 H 0.31212 0.92644 0.92034 0.0
H639 H 0.34724 0.9242 0.95471 0.0
C640 C 0.37613 0.90335 0.9028 0.0
N641 N 0.36442 0.89523 0.91615 0.0
C642 C 0.39024 0.90272 0.90338 0.0
C643 C 0.38012 0.88561 0.93167 0.0
C644 C 0.36623 0.88668 0.93062 0.0
C645 C 0.39229 0.89354 0.91777 0.0
H646 H 0.37434 0.91008 0.89147 0.0
H647 H 0.35673 0.88035 0.94105 0.0
C648 C 0.30045 0.89573 0.89071 0.0
N649 N 0.28062 0.89531 0.86141 0.0
C650 C 0.28758 0.88121 0.88437 0.0
C651 C 0.3032 0.91004 0.88216 0.0
C652 C 0.27769 0.88125 0.86955 0.0
C653 C 0.29306 0.90957 0.86735 0.0
C654 C 0.33945 0.87421 0.88568 0.0
C655 C 0.34809 0.88074 0.86853 0.0
C656 C 0.34116 0.86253 0.89569 0.0
C657 C 0.35833 0.87549 0.86169 0.0
C658 C 0.35154 0.85763 0.88839 0.0
N659 N 0.35984 0.86415 0.87169 0.0
C660 C 0.33671 0.91732 0.85253 0.0
C661 C 0.31707 0.88981 0.85056 0.0
C662 C 0.33552 0.91916 0.83254 0.0
N663 N 0.32752 0.90281 0.86105 0.0
C664 C 0.31545 0.89111 0.8306 0.0
C665 C 0.3248 0.90592 0.82131 0.0
H666 H 0.34506 0.9274 0.8612 0.0
H667 H 0.31014 0.87836 0.85772 0.0
C668 C 0.28586 0.85985 0.92994 0.0
N669 N 0.29809 0.86001 0.91995 0.0
C670 C 0.27163 0.84547 0.93294 0.0
C671 C 0.28309 0.8317 0.91574 0.0
C672 C 0.29705 0.84634 0.91301 0.0
C673 C 0.27002 0.83118 0.92546 0.0
H674 H 0.28697 0.87098 0.93499 0.0
H675 H 0.30687 0.84686 0.90487 0.0
O676 O 0.34806 0.91576 0.90158 0.0
O677 O 0.33176 0.89197 0.93581 0.0
O678 O 0.31047 0.89593 0.90494 0.0
O679 O 0.32972 0.87953 0.89293 0.0
H680 H 0.37286 0.92734 0.92557 0.0
H681 H 0.34284 0.93924 0.89146 0.0
H682 H 0.38815 0.95556 0.93664 0.0
H683 H 0.35861 0.96724 0.90321 0.0
H684 H 0.31243 0.84601 0.97088 0.0
H685 H 0.31436 0.89762 0.96102 0.0
H686 H 0.3288 0.86375 0.94393 0.0
H687 H 0.29823 0.87927 0.98764 0.0
H688 H 0.34975 0.94603 0.97562 0.0
H689 H 0.31373 0.94834 0.94055 0.0
H690 H 0.3994 0.9093 0.89259 0.0
H691 H 0.38109 0.87827 0.94291 0.0
H692 H 0.28535 0.86999 0.89063 0.0
H693 H 0.31324 0.92137 0.88663 0.0
H694 H 0.26774 0.87009 0.86446 0.0
H695 H 0.29513 0.92055 0.86051 0.0
H696 H 0.34711 0.88993 0.8607 0.0
H697 H 0.33482 0.85756 0.90918 0.0
H698 H 0.36514 0.8805 0.84849 0.0
H699 H 0.35308 0.84871 0.89609 0.0
H700 H 0.34291 0.93079 0.82594 0.0
H701 H 0.30727 0.88053 0.82246 0.0
H702 H 0.26178 0.84565 0.94026 0.0
H703 H 0.28243 0.82095 0.90993 0.0
Li704 Li 0.44707 0.3425 0.41568 0.0
Li705 Li 0.41773 0.32698 0.42251 0.0
Li706 Li 0.43275 0.31401 0.41967 0.0
Li707 Li 0.42791 0.32443 0.39094 0.0
C708 C 0.43784 0.3237 0.45544 0.0
N709 N 0.44171 0.30889 0.48769 0.0
C710 C 0.4246 0.31338 0.46673 0.0
C711 C 0.45306 0.32656 0.46058 0.0
C712 C 0.42681 0.306 0.48298 0.0
C713 C 0.45477 0.31893 0.47693 0.0
C714 C 0.42699 0.35654 0.40508 0.0
C715 C 0.41529 0.37237 0.39493 0.0
N716 N 0.42173 0.3819 0.41081 0.0
C717 C 0.43357 0.36655 0.42122 0.0
C718 C 0.41784 0.35951 0.39175 0.0
C719 C 0.43074 0.37927 0.4239 0.0
C720 C 0.47386 0.36994 0.40209 0.0
N721 N 0.46635 0.36214 0.41867 0.0
C722 C 0.4864 0.38304 0.43819 0.0
C723 C 0.47227 0.36832 0.43654 0.0
C724 C 0.4944 0.39145 0.42129 0.0
C725 C 0.48797 0.38469 0.40306 0.0
H726 H 0.46882 0.36468 0.38811 0.0
H727 H 0.4659 0.36191 0.44947 0.0
C728 C 0.38564 0.31968 0.43416 0.0
N729 N 0.40171 0.32851 0.43732 0.0
C730 C 0.37502 0.32179 0.44588 0.0
C731 C 0.39753 0.34156 0.46439 0.0
C732 C 0.4077 0.33911 0.45229 0.0
C733 C 0.38095 0.3329 0.46116 0.0
H734 H 0.38089 0.3109 0.42276 0.0
H735 H 0.42046 0.34571 0.45485 0.0
C736 C 0.4521 0.31724 0.38746 0.0
N737 N 0.45918 0.29872 0.3633 0.0
C738 C 0.4404 0.30148 0.38321 0.0
C739 C 0.46738 0.32358 0.37942 0.0
C740 C 0.44422 0.29231 0.37097 0.0
C741 C 0.47073 0.31402 0.36724 0.0
C742 C 0.39678 0.30133 0.39945 0.0
C743 C 0.385 0.28528 0.40177 0.0
C744 C 0.39348 0.31146 0.38828 0.0
C745 C 0.37007 0.27966 0.39299 0.0
C746 C 0.37842 0.30537 0.37969 0.0
N747 N 0.36712 0.28973 0.38222 0.0
C748 C 0.42074 0.2837 0.43605 0.0
C749 C 0.44872 0.29704 0.43026 0.0
C750 C 0.42092 0.2701 0.44251 0.0
N751 N 0.43445 0.29667 0.42983 0.0
C752 C 0.44944 0.28366 0.43653 0.0
C753 C 0.43535 0.26985 0.4424 0.0
H754 H 0.40962 0.28387 0.43571 0.0
H755 H 0.45944 0.3076 0.4253 0.0
C756 C 0.43366 0.33623 0.353 0.0
N757 N 0.42512 0.32259 0.36349 0.0
C758 C 0.43277 0.33583 0.33273 0.0
C759 C 0.41409 0.30737 0.33446 0.0
C760 C 0.41553 0.30828 0.35469 0.0
C761 C 0.42286 0.32125 0.32325 0.0
H762 H 0.44128 0.3474 0.36044 0.0
H763 H 0.40911 0.29755 0.36335 0.0
O764 O 0.43586 0.33073 0.43923 0.0
O765 O 0.42954 0.34395 0.40221 0.0
O766 O 0.44869 0.32654 0.39932 0.0
O767 O 0.41157 0.30679 0.40757 0.0
H768 H 0.41272 0.31097 0.46286 0.0
H769 H 0.46341 0.33439 0.45185 0.0
H770 H 0.41666 0.29792 0.4918 0.0
H771 H 0.46646 0.32094 0.48101 0.0
H772 H 0.40821 0.3748 0.38476 0.0
H773 H 0.44064 0.36441 0.43171 0.0
H774 H 0.4128 0.352 0.37905 0.0
H775 H 0.43569 0.38705 0.4364 0.0
H776 H 0.49085 0.38792 0.45252 0.0
H777 H 0.49386 0.39066 0.38967 0.0
H778 H 0.36228 0.31469 0.44311 0.0
H779 H 0.40263 0.35036 0.47592 0.0
H780 H 0.4285 0.29635 0.38926 0.0
H781 H 0.47656 0.33577 0.38256 0.0
H782 H 0.43528 0.2801 0.36756 0.0
H783 H 0.48252 0.31878 0.36091 0.0
H784 H 0.38739 0.27724 0.41022 0.0
H785 H 0.40238 0.32386 0.38627 0.0
H786 H 0.36085 0.26727 0.39469 0.0
H787 H 0.37572 0.31308 0.37104 0.0
H788 H 0.40983 0.2598 0.44721 0.0
H789 H 0.46079 0.28392 0.43603 0.0
H790 H 0.43967 0.34678 0.32454 0.0
H791 H 0.40649 0.29589 0.32761 0.0
Li792 Li 0.09068 0.42446 0.91708 0.0
Li793 Li 0.11029 0.45356 0.91153 0.0
Li794 Li 0.10611 0.43371 0.88712 0.0
Li795 Li 0.12037 0.43561 0.91565 0.0
C796 C 0.0838 0.44168 0.88133 0.0
N797 N 0.07163 0.44655 0.84725 0.0
C798 C 0.09213 0.45627 0.87146 0.0
C799 C 0.06927 0.42958 0.87387 0.0
C800 C 0.08578 0.45849 0.85425 0.0
C801 C 0.06332 0.43227 0.85662 0.0
C802 C 0.10772 0.44923 0.9501 0.0
C803 C 0.12105 0.47292 0.97009 0.0
N804 N 0.10732 0.46789 0.9804 0.0
C805 C 0.09376 0.44427 0.96096 0.0
C806 C 0.12151 0.46363 0.95476 0.0
C807 C 0.09379 0.45388 0.97621 0.0
C808 C 0.07012 0.39963 0.94274 0.0
N809 N 0.07115 0.41049 0.92939 0.0
C810 C 0.04412 0.40364 0.93531 0.0
C811 C 0.05855 0.41261 0.9255 0.0
C812 C 0.04275 0.39263 0.94965 0.0
C813 C 0.05593 0.39049 0.95313 0.0
H814 H 0.08048 0.39841 0.9457 0.0
H815 H 0.05984 0.4216 0.91514 0.0
C816 C 0.12524 0.48731 0.90733 0.0
N817 N 0.11281 0.47418 0.91559 0.0
C818 C 0.12645 0.50229 0.90926 0.0
C819 C 0.10216 0.48994 0.92838 0.0
C820 C 0.10127 0.47519 0.92577 0.0
C821 C 0.11477 0.50377 0.91986 0.0
H822 H 0.13396 0.48608 0.89875 0.0
H823 H 0.09128 0.46448 0.93173 0.0
C824 C 0.09749 0.40291 0.89128 0.0
N825 N 0.08661 0.37745 0.8657 0.0
C826 C 0.10789 0.40231 0.87755 0.0
C827 C 0.08157 0.3905 0.89204 0.0
C828 C 0.10215 0.38936 0.86472 0.0
C829 C 0.07631 0.37774 0.87898 0.0
C830 C 0.14247 0.45755 0.89499 0.0
C831 C 0.14843 0.45024 0.88262 0.0
C832 C 0.15292 0.46977 0.90748 0.0
C833 C 0.16474 0.45521 0.88306 0.0
C834 C 0.16914 0.47438 0.90751 0.0
N835 N 0.17466 0.46705 0.89542 0.0
C836 C 0.11627 0.44244 0.84854 0.0
C837 C 0.09154 0.41818 0.85095 0.0
C838 C 0.11555 0.44163 0.82829 0.0
N839 N 0.10447 0.43073 0.85944 0.0
C840 C 0.09032 0.41689 0.83071 0.0
C841 C 0.10246 0.42873 0.81911 0.0
H842 H 0.1261 0.45262 0.85557 0.0
H843 H 0.08202 0.4093 0.85986 0.0
C844 C 0.14546 0.44209 0.94238 0.0
N845 N 0.13737 0.43346 0.92647 0.0
C846 C 0.15907 0.44188 0.94886 0.0
C847 C 0.15533 0.42338 0.92294 0.0
C848 C 0.14179 0.4239 0.91706 0.0
C849 C 0.16435 0.43267 0.93884 0.0
H850 H 0.14162 0.44948 0.94973 0.0
H851 H 0.13516 0.41716 0.9045 0.0
O852 O 0.09006 0.43914 0.89791 0.0
O853 O 0.10788 0.44001 0.93504 0.0
O854 O 0.10287 0.4154 0.9041 0.0
O855 O 0.12645 0.45252 0.89519 0.0
H856 H 0.10349 0.46568 0.87686 0.0
H857 H 0.06281 0.4181 0.88109 0.0
H858 H 0.09214 0.46969 0.84641 0.0
H859 H 0.05215 0.42298 0.85062 0.0
H860 H 0.1316 0.48415 0.97373 0.0
H861 H 0.08297 0.43316 0.95766 0.0
H862 H 0.13237 0.46778 0.94641 0.0
H863 H 0.08306 0.4502 0.98468 0.0
H864 H 0.03423 0.40552 0.93189 0.0
H865 H 0.05549 0.38231 0.96421 0.0
H866 H 0.13618 0.51247 0.90201 0.0
H867 H 0.09298 0.49044 0.93689 0.0
H868 H 0.12016 0.41189 0.87649 0.0
H869 H 0.07334 0.39071 0.90255 0.0
H870 H 0.11003 0.38882 0.85393 0.0
H871 H 0.06401 0.36809 0.87939 0.0
H872 H 0.14052 0.44067 0.87298 0.0
H873 H 0.14852 0.4755 0.91724 0.0
H874 H 0.16948 0.44957 0.87367 0.0
H875 H 0.17733 0.48373 0.91722 0.0
H876 H 0.12497 0.45124 0.81991 0.0
H877 H 0.08001 0.40675 0.82424 0.0
H878 H 0.16552 0.44905 0.96135 0.0
H879 H 0.15905 0.41629 0.91457 0.0
Li880 Li 0.64991 0.10276 0.4117 0.0
Li881 Li 0.66355 0.08828 0.41959 0.0
Li882 Li 0.67887 0.11722 0.41563 0.0
Li883 Li 0.66716 0.09942 0.3881 0.0
C884 C 0.66851 0.10593 0.45365 0.0
N885 N 0.68133 0.10767 0.49013 0.0
C886 C 0.68278 0.1056 0.45563 0.0
C887 C 0.66074 0.10706 0.47022 0.0
C888 C 0.68907 0.10652 0.4742 0.0
C889 C 0.66743 0.10796 0.48854 0.0
C890 C 0.636 0.06725 0.40368 0.0
C891 C 0.62648 0.03902 0.40014 0.0
N892 N 0.61454 0.03576 0.41304 0.0
C893 C 0.62355 0.06361 0.4168 0.0
C894 C 0.63741 0.05486 0.39516 0.0
C895 C 0.61285 0.04762 0.42138 0.0
C896 C 0.61994 0.09736 0.40001 0.0
N897 N 0.6311 0.10405 0.41429 0.0
C898 C 0.61509 0.11257 0.43133 0.0
C899 C 0.62895 0.11149 0.42983 0.0
C900 C 0.6033 0.10567 0.41684 0.0
C901 C 0.6058 0.09793 0.40107 0.0
H902 H 0.62205 0.09155 0.38782 0.0
H903 H 0.63803 0.11664 0.44101 0.0
C904 C 0.67127 0.0647 0.43246 0.0
N905 N 0.66153 0.07098 0.43491 0.0
C906 C 0.66951 0.05216 0.44433 0.0
C907 C 0.6479 0.05301 0.46108 0.0
C908 C 0.65012 0.06553 0.44899 0.0
C909 C 0.65769 0.04616 0.45888 0.0
H910 H 0.68049 0.0695 0.42147 0.0
H911 H 0.64273 0.07094 0.45082 0.0
C912 C 0.66601 0.13304 0.39502 0.0
N913 N 0.66525 0.16126 0.3968 0.0
C914 C 0.66624 0.14098 0.37792 0.0
C915 C 0.66543 0.13946 0.41304 0.0
C916 C 0.66584 0.15523 0.37912 0.0
C917 C 0.66504 0.15374 0.41363 0.0
C918 C 0.6935 0.09783 0.39401 0.0
C919 C 0.7096 0.10924 0.39119 0.0
C920 C 0.68697 0.08314 0.38436 0.0
C921 C 0.71883 0.10587 0.37846 0.0
C922 C 0.69657 0.08022 0.37173 0.0
N923 N 0.71217 0.09156 0.36904 0.0
C924 C 0.69869 0.14395 0.44075 0.0
C925 C 0.70743 0.14472 0.40832 0.0
C926 C 0.71232 0.15864 0.44481 0.0
N927 N 0.69671 0.13718 0.42285 0.0
C928 C 0.72119 0.15936 0.41172 0.0
C929 C 0.72388 0.16641 0.43024 0.0
H930 H 0.68973 0.13806 0.4519 0.0
H931 H 0.70522 0.1393 0.39404 0.0
C932 C 0.6576 0.08569 0.35081 0.0
N933 N 0.66976 0.09756 0.36109 0.0
C934 C 0.65872 0.085 0.33062 0.0
C935 C 0.68505 0.10853 0.33211 0.0
C936 C 0.68333 0.10886 0.35224 0.0
C937 C 0.67252 0.09665 0.32095 0.0
H938 H 0.64682 0.07704 0.35824 0.0
H939 H 0.69272 0.11828 0.36081 0.0
O940 O 0.66189 0.10473 0.43568 0.0
O941 O 0.64675 0.08285 0.39924 0.0
O942 O 0.66642 0.11909 0.39402 0.0
O943 O 0.6842 0.101 0.40621 0.0
H944 H 0.68896 0.10467 0.44303 0.0
H945 H 0.64963 0.1072 0.46895 0.0
H946 H 0.7001 0.1063 0.47595 0.0
H947 H 0.66154 0.10885 0.50149 0.0
H948 H 0.62748 0.02932 0.39372 0.0
H949 H 0.62233 0.07303 0.42367 0.0
H950 H 0.64683 0.05741 0.38481 0.0
H951 H 0.60325 0.04465 0.43163 0.0
H952 H 0.61349 0.11854 0.44376 0.0
H953 H 0.59702 0.09259 0.38955 0.0
H954 H 0.67745 0.04738 0.44231 0.0
H955 H 0.63846 0.04862 0.47187 0.0
H956 H 0.66672 0.13616 0.36386 0.0
H957 H 0.66529 0.13351 0.42642 0.0
H958 H 0.66601 0.1615 0.366 0.0
H959 H 0.66458 0.15883 0.42748 0.0
H960 H 0.71498 0.12054 0.39883 0.0
H961 H 0.67457 0.07415 0.38647 0.0
H962 H 0.7313 0.11461 0.37609 0.0
H963 H 0.69161 0.06894 0.36404 0.0
H964 H 0.71391 0.16371 0.45926 0.0
H965 H 0.72959 0.16516 0.39992 0.0
H966 H 0.64864 0.0758 0.32265 0.0
H967 H 0.69599 0.11763 0.32537 0.0
Li968 Li 0.57548 0.66759 0.91983 0.0
Li969 Li 0.54746 0.65382 0.91359 0.0
Li970 Li 0.56695 0.67123 0.88839 0.0
Li971 Li 0.56218 0.68274 0.91733 0.0
C972 C 0.56863 0.64017 0.90264 0.0
N973 N 0.57937 0.61889 0.90933 0.0
C974 C 0.56448 0.63122 0.91982 0.0
C975 C 0.57808 0.63817 0.88875 0.0
C976 C 0.57009 0.62057 0.92297 0.0
C977 C 0.58342 0.62738 0.89244 0.0
C978 C 0.54684 0.66558 0.94986 0.0
C979 C 0.52104 0.66323 0.95558 0.0
N980 N 0.52393 0.66454 0.97504 0.0
C981 C 0.54955 0.66696 0.96995 0.0
C982 C 0.53247 0.66377 0.94263 0.0
C983 C 0.53783 0.66638 0.98242 0.0
C984 C 0.60357 0.6644 0.92542 0.0
N985 N 0.59148 0.66557 0.93399 0.0
C986 C 0.59983 0.66211 0.96545 0.0
C987 C 0.58955 0.66456 0.95361 0.0
C988 C 0.61245 0.66085 0.95708 0.0
C989 C 0.61433 0.66219 0.93674 0.0
H990 H 0.6047 0.66475 0.90981 0.0
H991 H 0.57974 0.66525 0.96006 0.0
C992 C 0.51753 0.62918 0.90146 0.0
N993 N 0.52767 0.63454 0.91688 0.0
C994 C 0.50274 0.61516 0.903 0.0
C995 C 0.50913 0.61247 0.9363 0.0
C996 C 0.52385 0.62648 0.93407 0.0
C997 C 0.49832 0.60662 0.92064 0.0
H998 H 0.52099 0.6358 0.88793 0.0
H999 H 0.53219 0.63101 0.94609 0.0
C1000 C 0.59861 0.69426 0.89952 0.0
N1001 N 0.62983 0.70678 0.88687 0.0
C1002 C 0.61049 0.70933 0.90589 0.0
C1003 C 0.60263 0.68558 0.88669 0.0
C1004 C 0.6262 0.71545 0.89936 0.0
C1005 C 0.61846 0.69211 0.88045 0.0
C1006 C 0.54351 0.67953 0.88455 0.0
C1007 C 0.55565 0.69499 0.87984 0.0
C1008 C 0.52821 0.67367 0.87676 0.0
C1009 C 0.55227 0.70434 0.86735 0.0
C1010 C 0.52531 0.6834 0.86432 0.0
N1011 N 0.5373 0.6984 0.85991 0.0
C1012 C 0.55906 0.66032 0.85045 0.0
C1013 C 0.58044 0.68715 0.85203 0.0
C1014 C 0.55909 0.66094 0.83017 0.0
N1015 N 0.56961 0.6733 0.8609 0.0
C1016 C 0.58113 0.68818 0.83174 0.0
C1017 C 0.57024 0.675 0.82064 0.0
H1018 H 0.5504 0.64958 0.85795 0.0
H1019 H 0.58834 0.69749 0.86066 0.0
C1020 C 0.57472 0.71269 0.93497 0.0
N1021 N 0.56117 0.70054 0.9271 0.0
C1022 C 0.57499 0.72651 0.94152 0.0
C1023 C 0.5471 0.71468 0.93259 0.0
C1024 C 0.54742 0.70117 0.92602 0.0
C1025 C 0.56109 0.72765 0.94015 0.0
H1026 H 0.58537 0.7117 0.93592 0.0
H1027 H 0.53678 0.69131 0.91974 0.0
O1028 O 0.56363 0.65098 0.89954 0.0
O1029 O 0.5584 0.66638 0.93747 0.0
O1030 O 0.58314 0.68822 0.90565 0.0
O1031 O 0.54651 0.67008 0.89666 0.0
H1032 H 0.55728 0.63273 0.93076 0.0
H1033 H 0.5813 0.64494 0.87532 0.0
H1034 H 0.56711 0.61368 0.93629 0.0
H1035 H 0.59082 0.62576 0.88187 0.0
H1036 H 0.50989 0.66181 0.95013 0.0
H1037 H 0.56061 0.66857 0.97594 0.0
H1038 H 0.53006 0.66279 0.92721 0.0
H1039 H 0.5398 0.66744 0.99798 0.0
H1040 H 0.59755 0.66071 0.98095 0.0
H1041 H 0.6239 0.66137 0.92959 0.0
H1042 H 0.49495 0.61097 0.89042 0.0
H1043 H 0.50618 0.60641 0.95023 0.0
H1044 H 0.60762 0.71629 0.91574 0.0
H1045 H 0.59365 0.67388 0.88169 0.0
H1046 H 0.63551 0.7271 0.90419 0.0
H1047 H 0.62172 0.68548 0.87055 0.0
H1048 H 0.56756 0.69975 0.88574 0.0
H1049 H 0.51868 0.66173 0.88028 0.0
H1050 H 0.56156 0.71632 0.86357 0.0
H1051 H 0.51352 0.67901 0.85817 0.0
H1052 H 0.55051 0.65057 0.822 0.0
H1053 H 0.58974 0.69928 0.82479 0.0
H1054 H 0.58597 0.73625 0.9474 0.0
H1055 H 0.5362 0.71521 0.93109 0.0
Li1056 Li 0.57065 0.90236 0.91843 0.0
Li1057 Li 0.55649 0.87374 0.91674 0.0
Li1058 Li 0.56249 0.8902 0.88634 0.0
Li1059 Li 0.5422 0.88766 0.91053 0.0
C1060 C 0.59346 0.89542 0.90087 0.0
N1061 N 0.62562 0.90857 0.89243 0.0
C1062 C 0.60274 0.89044 0.91105 0.0
C1063 C 0.60052 0.90703 0.88632 0.0
C1064 C 0.61899 0.89726 0.9066 0.0
C1065 C 0.6168 0.91354 0.88228 0.0
C1066 C 0.55044 0.87958 0.95221 0.0
C1067 C 0.53414 0.85764 0.97378 0.0
N1068 N 0.54634 0.86342 0.98686 0.0
C1069 C 0.56281 0.88533 0.9659 0.0
C1070 C 0.53596 0.86566 0.95621 0.0
C1071 C 0.56051 0.87698 0.98332 0.0
C1072 C 0.57926 0.92521 0.94695 0.0
N1073 N 0.58594 0.92035 0.93307 0.0
C1074 C 0.61218 0.9406 0.94266 0.0
C1075 C 0.60209 0.9278 0.93067 0.0
C1076 C 0.60557 0.94575 0.95723 0.0
C1077 C 0.58886 0.93794 0.9592 0.0
H1078 H 0.56639 0.91909 0.94855 0.0
H1079 H 0.60725 0.92387 0.91964 0.0
C1080 C 0.54474 0.8406 0.91955 0.0
N1081 N 0.55552 0.85509 0.92697 0.0
C1082 C 0.54455 0.8268 0.92596 0.0
C1083 C 0.56625 0.84306 0.94795 0.0
C1084 C 0.56619 0.85657 0.94088 0.0
C1085 C 0.55551 0.82791 0.94024 0.0
H1086 H 0.53661 0.83982 0.90823 0.0
H1087 H 0.57482 0.86829 0.94625 0.0
C1088 C 0.56469 0.92302 0.90027 0.0
N1089 N 0.57648 0.95521 0.90717 0.0
C1090 C 0.55626 0.92797 0.91223 0.0
C1091 C 0.57904 0.93443 0.89167 0.0
C1092 C 0.56244 0.9443 0.91557 0.0
C1093 C 0.58483 0.95065 0.89539 0.0
C1094 C 0.52709 0.86242 0.88724 0.0
C1095 C 0.524 0.86466 0.86797 0.0
C1096 C 0.51445 0.85208 0.89932 0.0
C1097 C 0.50824 0.85667 0.86118 0.0
C1098 C 0.49886 0.84434 0.89199 0.0
N1099 N 0.4961 0.84678 0.87324 0.0
C1100 C 0.57251 0.88221 0.85161 0.0
C1101 C 0.56444 0.90163 0.84843 0.0
C1102 C 0.57522 0.88263 0.8316 0.0
N1103 N 0.56714 0.89157 0.8595 0.0
C1104 C 0.5669 0.90238 0.82836 0.0
C1105 C 0.57225 0.8927 0.81965 0.0
H1106 H 0.57454 0.87433 0.86087 0.0
H1107 H 0.56004 0.90883 0.85516 0.0
C1108 C 0.51533 0.88531 0.93048 0.0
N1109 N 0.52243 0.88732 0.91281 0.0
C1110 C 0.50085 0.8852 0.9321 0.0
C1111 C 0.50133 0.88928 0.89732 0.0
C1112 C 0.51589 0.88953 0.89642 0.0
C1113 C 0.49364 0.8871 0.91534 0.0
H1114 H 0.52097 0.88392 0.94333 0.0
H1115 H 0.52203 0.89153 0.88265 0.0
O1116 O 0.57747 0.88863 0.90483 0.0
O1117 O 0.5525 0.88751 0.93499 0.0
O1118 O 0.55904 0.90707 0.89723 0.0
O1119 O 0.54241 0.87035 0.89425 0.0
H1120 H 0.59745 0.88138 0.92225 0.0
H1121 H 0.59359 0.91112 0.87836 0.0
H1122 H 0.62631 0.89353 0.91439 0.0
H1123 H 0.62243 0.92258 0.87111 0.0
H1124 H 0.52302 0.84681 0.97701 0.0
H1125 H 0.57416 0.89598 0.96301 0.0
H1126 H 0.52627 0.86104 0.9458 0.0
H1127 H 0.57001 0.88125 0.99398 0.0
H1128 H 0.62501 0.94624 0.94072 0.0
H1129 H 0.58323 0.94171 0.96997 0.0
H1130 H 0.5363 0.81548 0.91921 0.0
H1131 H 0.5748 0.84454 0.95911 0.0
H1132 H 0.54517 0.91929 0.91907 0.0
H1133 H 0.58567 0.9308 0.88232 0.0
H1134 H 0.55609 0.94831 0.92489 0.0
H1135 H 0.59596 0.95961 0.88892 0.0
H1136 H 0.53363 0.87257 0.85839 0.0
H1137 H 0.51665 0.85016 0.91423 0.0
H1138 H 0.50566 0.85836 0.84633 0.0
H1139 H 0.48895 0.8364 0.90122 0.0
H1140 H 0.57953 0.87511 0.82555 0.0
H1141 H 0.56419 0.91011 0.81972 0.0
H1142 H 0.49527 0.8835 0.94625 0.0
H1143 H 0.49628 0.89107 0.88413 0.0
Li1144 Li 0.66247 0.57321 0.42369 0.0
Li1145 Li 0.67622 0.559 0.42091 0.0
Li1146 Li 0.66564 0.56453 0.39171 0.0
Li1147 Li 0.64737 0.54431 0.41743 0.0
C1148 C 0.69537 0.5923 0.41822 0.0
N1149 N 0.72135 0.61688 0.43702 0.0
C1150 C 0.6969 0.59187 0.4384 0.0
C1151 C 0.70706 0.60521 0.40759 0.0
C1152 C 0.71012 0.60441 0.44764 0.0
C1153 C 0.72011 0.61753 0.41737 0.0
C1154 C 0.65955 0.54868 0.45791 0.0
C1155 C 0.65332 0.52532 0.47707 0.0
N1156 N 0.65903 0.53467 0.4932 0.0
C1157 C 0.6652 0.55804 0.47473 0.0
C1158 C 0.65343 0.53216 0.45911 0.0
C1159 C 0.6649 0.55075 0.49241 0.0
C1160 C 0.65133 0.58467 0.45324 0.0
N1161 N 0.66101 0.58947 0.43738 0.0
C1162 C 0.66759 0.61661 0.44232 0.0
C1163 C 0.66906 0.60506 0.43168 0.0
C1164 C 0.65774 0.612 0.4589 0.0
C1165 C 0.64949 0.59576 0.46424 0.0
H1166 H 0.6449 0.57214 0.45721 0.0
H1167 H 0.67657 0.6085 0.41886 0.0
C1168 C 0.70625 0.56289 0.41522 0.0
N1169 N 0.69457 0.55778 0.42896 0.0
C1170 C 0.72002 0.56201 0.41856 0.0
C1171 C 0.71005 0.55155 0.45068 0.0
C1172 C 0.69628 0.55232 0.44656 0.0
C1173 C 0.72196 0.5562 0.43643 0.0
H1174 H 0.70472 0.56745 0.4015 0.0
H1175 H 0.68703 0.54846 0.4574 0.0
C1176 C 0.63838 0.57069 0.40377 0.0
N1177 N 0.62482 0.58998 0.40549 0.0
C1178 C 0.62513 0.56647 0.41572 0.0
C1179 C 0.64469 0.58465 0.3926 0.0
C1180 C 0.61846 0.57641 0.41641 0.0
C1181 C 0.63766 0.59426 0.39369 0.0
C1182 C 0.67154 0.53572 0.39619 0.0
C1183 C 0.68165 0.53977 0.38004 0.0
C1184 C 0.66996 0.52363 0.40877 0.0
C1185 C 0.69027 0.53186 0.37696 0.0
C1186 C 0.67879 0.51601 0.40521 0.0
N1187 N 0.68869 0.52026 0.38952 0.0
C1188 C 0.68242 0.57653 0.3562 0.0
C1189 C 0.6541 0.562 0.35405 0.0
C1190 C 0.68373 0.57797 0.33595 0.0
N1191 N 0.66777 0.56842 0.3647 0.0
C1192 C 0.65483 0.56324 0.33382 0.0
C1193 C 0.66979 0.57104 0.32447 0.0
H1194 H 0.69308 0.5814 0.36511 0.0
H1195 H 0.64262 0.55564 0.3613 0.0
C1196 C 0.6172 0.52292 0.43436 0.0
N1197 N 0.62798 0.52476 0.42041 0.0
C1198 C 0.60264 0.50857 0.43574 0.0
C1199 C 0.61076 0.49831 0.40857 0.0
C1200 C 0.62512 0.51283 0.40772 0.0
C1201 C 0.5992 0.49609 0.42258 0.0
H1202 H 0.61986 0.53267 0.44425 0.0
H1203 H 0.63395 0.51466 0.39679 0.0
O1204 O 0.68255 0.58017 0.4088 0.0
O1205 O 0.6596 0.55564 0.44054 0.0
O1206 O 0.64543 0.56144 0.40339 0.0
O1207 O 0.66332 0.54362 0.3997 0.0
H1208 H 0.68802 0.58196 0.44682 0.0
H1209 H 0.70604 0.6057 0.39195 0.0
H1210 H 0.71144 0.60422 0.46326 0.0
H1211 H 0.72924 0.62761 0.40932 0.0
H1212 H 0.64868 0.51256 0.47818 0.0
H1213 H 0.66977 0.57082 0.47416 0.0
H1214 H 0.6488 0.52468 0.44637 0.0
H1215 H 0.6693 0.55786 0.50551 0.0
H1216 H 0.67418 0.629 0.43771 0.0
H1217 H 0.64146 0.59159 0.47661 0.0
H1218 H 0.72909 0.56588 0.40732 0.0
H1219 H 0.71122 0.54702 0.46464 0.0
H1220 H 0.62018 0.55575 0.42452 0.0
H1221 H 0.65502 0.58813 0.3834 0.0
H1222 H 0.60826 0.57335 0.42568 0.0
H1223 H 0.64247 0.60515 0.38523 0.0
H1224 H 0.68297 0.54903 0.37009 0.0
H1225 H 0.6621 0.52024 0.42122 0.0
H1226 H 0.69823 0.53496 0.3646 0.0
H1227 H 0.67778 0.50673 0.41493 0.0
H1228 H 0.6955 0.58394 0.32936 0.0
H1229 H 0.64378 0.55798 0.3256 0.0
H1230 H 0.59402 0.50742 0.44665 0.0
H1231 H 0.60874 0.48893 0.39836 0.0
Li1232 Li 0.11711 0.67961 0.91398 0.0
Li1233 Li 0.08971 0.6629 0.92082 0.0
Li1234 Li 0.10639 0.65155 0.91103 0.0
Li1235 Li 0.09912 0.66619 0.88653 0.0
C1236 C 0.11642 0.6702 0.95116 0.0
N1237 N 0.1344 0.68422 0.98414 0.0
C1238 C 0.11031 0.67551 0.96603 0.0
C1239 C 0.13159 0.67185 0.95315 0.0
C1240 C 0.11961 0.6826 0.98258 0.0
C1241 C 0.14052 0.67904 0.9699 0.0
C1242 C 0.10412 0.69774 0.90985 0.0
C1243 C 0.11875 0.726 0.90266 0.0
N1244 N 0.11578 0.72919 0.92099 0.0
C1245 C 0.10121 0.7013 0.92862 0.0
C1246 C 0.11293 0.71018 0.89674 0.0
C1247 C 0.10719 0.71727 0.93396 0.0
C1248 C 0.14717 0.70482 0.90498 0.0
N1249 N 0.13617 0.69935 0.91955 0.0
C1250 C 0.15249 0.72278 0.93848 0.0
C1251 C 0.13851 0.70804 0.93607 0.0
C1252 C 0.16397 0.7287 0.92358 0.0
C1253 C 0.1612 0.7195 0.90669 0.0
H1254 H 0.14492 0.6979 0.89181 0.0
H1255 H 0.12942 0.70379 0.9472 0.0
C1256 C 0.06816 0.64831 0.95131 0.0
N1257 N 0.07193 0.65881 0.93639 0.0
C1258 C 0.05487 0.64439 0.96293 0.0
C1259 C 0.04973 0.66237 0.94375 0.0
C1260 C 0.06305 0.6658 0.93234 0.0
C1261 C 0.04546 0.65148 0.95928 0.0
H1262 H 0.07539 0.64282 0.95398 0.0
H1263 H 0.06631 0.67402 0.92023 0.0
C1264 C 0.12978 0.66334 0.88406 0.0
N1265 N 0.14882 0.65237 0.86819 0.0
C1266 C 0.12661 0.65672 0.86539 0.0
C1267 C 0.14274 0.66458 0.89457 0.0
C1268 C 0.13635 0.65119 0.85764 0.0
C1269 C 0.15219 0.6589 0.88633 0.0
C1270 C 0.06973 0.63486 0.90484 0.0
C1271 C 0.06643 0.62193 0.91696 0.0
C1272 C 0.05718 0.63672 0.89777 0.0
C1273 C 0.05056 0.6111 0.92193 0.0
C1274 C 0.04148 0.62564 0.90311 0.0
N1275 N 0.03853 0.61318 0.91498 0.0
C1276 C 0.11297 0.6302 0.93179 0.0
C1277 C 0.10822 0.62486 0.89801 0.0
C1278 C 0.11499 0.61694 0.93417 0.0
N1279 N 0.10973 0.6339 0.9139 0.0
C1280 C 0.11043 0.61168 0.89966 0.0
C1281 C 0.11378 0.60756 0.91794 0.0
H1282 H 0.11378 0.63741 0.94424 0.0
H1283 H 0.10514 0.62779 0.8841 0.0
C1284 C 0.10413 0.68039 0.84959 0.0
N1285 N 0.09468 0.66686 0.8599 0.0
C1286 C 0.10198 0.68078 0.82956 0.0
C1287 C 0.08053 0.65326 0.83114 0.0
C1288 C 0.08299 0.65344 0.85118 0.0
C1289 C 0.09018 0.66703 0.82007 0.0
H1290 H 0.11365 0.69069 0.85683 0.0
H1291 H 0.07587 0.64277 0.85971 0.0
O1292 O 0.10742 0.66307 0.93496 0.0
O1293 O 0.09861 0.68218 0.90448 0.0
O1294 O 0.12029 0.66868 0.89198 0.0
O1295 O 0.0852 0.64585 0.9003 0.0
H1296 H 0.09858 0.67428 0.96476 0.0
H1297 H 0.13641 0.66766 0.94187 0.0
H1298 H 0.11507 0.68684 0.99415 0.0
H1299 H 0.15232 0.68048 0.97159 0.0
H1300 H 0.12567 0.73574 0.8927 0.0
H1301 H 0.09466 0.69187 0.93907 0.0
H1302 H 0.11539 0.70768 0.88222 0.0
H1303 H 0.1051 0.72019 0.94846 0.0
H1304 H 0.15411 0.72966 0.9516 0.0
H1305 H 0.16983 0.72361 0.89492 0.0
H1306 H 0.05185 0.63565 0.97441 0.0
H1307 H 0.04293 0.66823 0.94049 0.0
H1308 H 0.11664 0.65571 0.85703 0.0
H1309 H 0.14545 0.66984 0.90895 0.0
H1310 H 0.13399 0.64595 0.84325 0.0
H1311 H 0.16222 0.6597 0.89434 0.0
H1312 H 0.07603 0.62038 0.92263 0.0
H1313 H 0.05958 0.64675 0.88849 0.0
H1314 H 0.04782 0.60108 0.93137 0.0
H1315 H 0.03165 0.62699 0.89787 0.0
H1316 H 0.1175 0.61406 0.9485 0.0
H1317 H 0.10911 0.60454 0.88689 0.0
H1318 H 0.10986 0.69153 0.82147 0.0
H1319 H 0.07129 0.64243 0.82434 0.0
Li1320 Li 0.42459 0.09378 0.42019 0.0
Li1321 Li 0.43748 0.1221 0.41916 0.0
Li1322 Li 0.4311 0.10571 0.38805 0.0
Li1323 Li 0.45262 0.10917 0.41165 0.0
C1324 C 0.40048 0.09979 0.41145 0.0
N1325 N 0.36819 0.08566 0.41958 0.0
C1326 C 0.39529 0.09914 0.4306 0.0
C1327 C 0.38926 0.09331 0.39642 0.0
C1328 C 0.37891 0.09192 0.43442 0.0
C1329 C 0.37298 0.08621 0.40083 0.0
C1330 C 0.44572 0.11691 0.45382 0.0
C1331 C 0.4634 0.1391 0.47427 0.0
N1332 N 0.45208 0.1335 0.48851 0.0
C1333 C 0.43429 0.11132 0.46869 0.0
C1334 C 0.46043 0.13085 0.45666 0.0
C1335 C 0.43773 0.1199 0.48611 0.0
C1336 C 0.41637 0.07088 0.44893 0.0
N1337 N 0.40994 0.07468 0.43367 0.0
C1338 C 0.3851 0.05025 0.43748 0.0
C1339 C 0.39466 0.06463 0.42767 0.0
C1340 C 0.39157 0.04604 0.45311 0.0
C1341 C 0.40737 0.05652 0.45887 0.0
H1342 H 0.42869 0.07884 0.45301 0.0
H1343 H 0.39003 0.06747 0.41493 0.0
C1344 C 0.44848 0.15501 0.42005 0.0
N1345 N 0.43883 0.14106 0.42948 0.0
C1346 C 0.4494 0.16922 0.4262 0.0
C1347 C 0.43066 0.15452 0.45194 0.0
C1348 C 0.43001 0.14057 0.44518 0.0
C1349 C 0.44029 0.16908 0.44225 0.0
H1350 H 0.45515 0.15506 0.4074 0.0
H1351 H 0.4223 0.12936 0.45234 0.0
C1352 C 0.43016 0.07368 0.40031 0.0
N1353 N 0.41761 0.04118 0.40542 0.0
C1354 C 0.43801 0.06804 0.41222 0.0
C1355 C 0.41601 0.06282 0.39087 0.0
C1356 C 0.43145 0.05155 0.41465 0.0
C1357 C 0.40984 0.04642 0.39367 0.0
C1358 C 0.46593 0.1346 0.38761 0.0
C1359 C 0.46818 0.13279 0.36787 0.0
C1360 C 0.47892 0.14543 0.39889 0.0
C1361 C 0.48346 0.14169 0.35981 0.0
C1362 C 0.49402 0.15409 0.39029 0.0
N1363 N 0.49596 0.15205 0.3711 0.0
C1364 C 0.42025 0.11316 0.3534 0.0
C1365 C 0.42787 0.09337 0.3506 0.0
C1366 C 0.41717 0.11231 0.33343 0.0
N1367 N 0.42557 0.10381 0.36146 0.0
C1368 C 0.4249 0.09209 0.33064 0.0
C1369 C 0.41961 0.10173 0.32177 0.0
H1370 H 0.41863 0.12142 0.36246 0.0
H1371 H 0.43238 0.0863 0.35738 0.0
C1372 C 0.47873 0.11008 0.43118 0.0
N1373 N 0.47272 0.11016 0.41332 0.0
C1374 C 0.49323 0.11025 0.43286 0.0
C1375 C 0.49507 0.11061 0.39774 0.0
C1376 C 0.4804 0.11016 0.39674 0.0
C1377 C 0.50159 0.11059 0.41598 0.0
H1378 H 0.47216 0.10965 0.44412 0.0
H1379 H 0.47506 0.10963 0.38274 0.0
O1380 O 0.41645 0.10687 0.40734 0.0
O1381 O 0.44257 0.10872 0.43663 0.0
O1382 O 0.4361 0.08977 0.39828 0.0
O1383 O 0.45108 0.12591 0.3958 0.0
H1384 H 0.40379 0.10383 0.44242 0.0
H1385 H 0.39309 0.09371 0.38152 0.0
H1386 H 0.37472 0.09122 0.44919 0.0
H1387 H 0.36415 0.08112 0.38936 0.0
H1388 H 0.47471 0.14995 0.47663 0.0
H1389 H 0.42281 0.10059 0.46673 0.0
H1390 H 0.46944 0.13528 0.44537 0.0
H1391 H 0.42897 0.11576 0.49769 0.0
H1392 H 0.37301 0.04226 0.43249 0.0
H1393 H 0.41273 0.05356 0.47084 0.0
H1394 H 0.45671 0.18007 0.418 0.0
H1395 H 0.42352 0.15386 0.46445 0.0
H1396 H 0.44894 0.07632 0.4197 0.0
H1397 H 0.40972 0.06702 0.38175 0.0
H1398 H 0.43732 0.047 0.42393 0.0
H1399 H 0.39883 0.03787 0.38659 0.0
H1400 H 0.45826 0.12453 0.35889 0.0
H1401 H 0.47737 0.14709 0.41413 0.0
H1402 H 0.48539 0.14034 0.34458 0.0
H1403 H 0.50419 0.16244 0.39888 0.0
H1404 H 0.41303 0.11989 0.32717 0.0
H1405 H 0.42724 0.08401 0.32216 0.0
H1406 H 0.49789 0.11017 0.44717 0.0
H1407 H 0.50105 0.11057 0.38441 0.0
Li1408 Li 0.31657 0.43718 0.92056 0.0
Li1409 Li 0.33195 0.4247 0.92326 0.0
Li1410 Li 0.3455 0.45429 0.91706 0.0
Li1411 Li 0.32911 0.43368 0.89208 0.0
C1412 C 0.32829 0.44712 0.95603 0.0
N1413 N 0.31796 0.45745 0.98747 0.0
C1414 C 0.31478 0.43626 0.9666 0.0
C1415 C 0.33658 0.46322 0.96155 0.0
C1416 C 0.30973 0.44172 0.98241 0.0
C1417 C 0.33116 0.46821 0.97747 0.0
C1418 C 0.30575 0.40106 0.91282 0.0
C1419 C 0.3037 0.37539 0.90736 0.0
N1420 N 0.2944 0.36955 0.92351 0.0
C1421 C 0.29619 0.3948 0.92941 0.0
C1422 C 0.30956 0.39127 0.90172 0.0
C1423 C 0.29055 0.37884 0.93455 0.0
C1424 C 0.28343 0.42464 0.92528 0.0
N1425 N 0.29793 0.43778 0.9287 0.0
C1426 C 0.28544 0.45171 0.94207 0.0
C1427 C 0.29917 0.45125 0.93674 0.0
C1428 C 0.27035 0.43816 0.93908 0.0
C1429 C 0.26943 0.4245 0.93059 0.0
H1430 H 0.28271 0.41436 0.91805 0.0
H1431 H 0.31082 0.46171 0.93882 0.0
C1432 C 0.34317 0.40277 0.92897 0.0
N1433 N 0.33484 0.40922 0.93712 0.0
C1434 C 0.34565 0.39177 0.93936 0.0
C1435 C 0.33082 0.39418 0.96625 0.0
C1436 C 0.32867 0.40515 0.95536 0.0
C1437 C 0.33957 0.38749 0.95835 0.0
H1438 H 0.34809 0.40633 0.91454 0.0
H1439 H 0.32214 0.41045 0.96151 0.0
C1440 C 0.31827 0.45772 0.89323 0.0
N1441 N 0.29618 0.46607 0.88087 0.0
C1442 C 0.30518 0.44708 0.88195 0.0
C1443 C 0.32012 0.47259 0.89825 0.0
C1444 C 0.29415 0.45153 0.87584 0.0
C1445 C 0.30883 0.4766 0.89185 0.0
C1446 C 0.35851 0.43866 0.8889 0.0
C1447 C 0.37125 0.45342 0.88293 0.0
C1448 C 0.35487 0.42485 0.87834 0.0
C1449 C 0.38003 0.45413 0.86641 0.0
C1450 C 0.3639 0.42607 0.86187 0.0
N1451 N 0.37619 0.44056 0.85629 0.0
C1452 C 0.37556 0.47534 0.93312 0.0
C1453 C 0.36599 0.48734 0.91075 0.0
C1454 C 0.38992 0.48976 0.93526 0.0
N1455 N 0.36403 0.47442 0.92096 0.0
C1456 C 0.3801 0.50203 0.91257 0.0
C1457 C 0.39235 0.50331 0.92481 0.0
H1458 H 0.37368 0.46478 0.94089 0.0
H1459 H 0.35676 0.48613 0.90083 0.0
C1460 C 0.31741 0.41709 0.8558 0.0
N1461 N 0.32786 0.43112 0.86457 0.0
C1462 C 0.31704 0.41584 0.83553 0.0
C1463 C 0.33783 0.44363 0.83375 0.0
C1464 C 0.33781 0.44432 0.85401 0.0
C1465 C 0.32736 0.42923 0.82425 0.0
H1466 H 0.30924 0.40693 0.86449 0.0
H1467 H 0.34579 0.4554 0.8614 0.0
O1468 O 0.33349 0.44203 0.94051 0.0
O1469 O 0.31171 0.41679 0.9078 0.0
O1470 O 0.32891 0.45336 0.89986 0.0
O1471 O 0.34959 0.43776 0.90486 0.0
H1472 H 0.30802 0.42382 0.96239 0.0
H1473 H 0.34705 0.47182 0.95361 0.0
H1474 H 0.29922 0.43347 0.99058 0.0
H1475 H 0.33744 0.48065 0.98186 0.0
H1476 H 0.30664 0.36772 0.89894 0.0
H1477 H 0.29338 0.40222 0.93847 0.0
H1478 H 0.31718 0.39592 0.88909 0.0
H1479 H 0.28321 0.37389 0.94739 0.0
H1480 H 0.28661 0.46251 0.94844 0.0
H1481 H 0.25797 0.41398 0.92755 0.0
H1482 H 0.35269 0.38709 0.93284 0.0
H1483 H 0.32579 0.39109 0.98075 0.0
H1484 H 0.3034 0.43541 0.87822 0.0
H1485 H 0.33002 0.48086 0.90727 0.0
H1486 H 0.28392 0.4434 0.86717 0.0
H1487 H 0.31006 0.48804 0.8957 0.0
H1488 H 0.3743 0.46424 0.89086 0.0
H1489 H 0.34498 0.41335 0.88257 0.0
H1490 H 0.38987 0.46548 0.8616 0.0
H1491 H 0.3611 0.41549 0.85347 0.0
H1492 H 0.39905 0.4903 0.94491 0.0
H1493 H 0.38161 0.51212 0.90402 0.0
H1494 H 0.30856 0.40461 0.82875 0.0
H1495 H 0.34606 0.45421 0.82564 0.0
Li1496 Li 0.87321 0.31655 0.41489 0.0
Li1497 Li 0.90094 0.33035 0.41959 0.0
Li1498 Li 0.88802 0.3455 0.41112 0.0
Li1499 Li 0.89098 0.32701 0.38669 0.0
C1500 C 0.88191 0.32625 0.45301 0.0
N1501 N 0.87566 0.31247 0.48954 0.0
C1502 C 0.88299 0.31254 0.45632 0.0
C1503 C 0.87765 0.33297 0.46826 0.0
C1504 C 0.87979 0.30574 0.47489 0.0
C1505 C 0.87454 0.32582 0.48663 0.0
C1506 C 0.89433 0.30021 0.40276 0.0
C1507 C 0.91146 0.29245 0.38618 0.0
N1508 N 0.90623 0.27961 0.39823 0.0
C1509 C 0.88901 0.28683 0.41484 0.0
C1510 C 0.90556 0.30297 0.38819 0.0
C1511 C 0.89522 0.27661 0.41238 0.0
C1512 C 0.84991 0.28463 0.4143 0.0
N1513 N 0.85356 0.29876 0.42278 0.0
C1514 C 0.8294 0.28616 0.44139 0.0
C1515 C 0.84369 0.29984 0.43607 0.0
C1516 C 0.82555 0.27135 0.43312 0.0
C1517 C 0.83596 0.27069 0.41939 0.0
H1518 H 0.85785 0.28422 0.4035 0.0
H1519 H 0.84688 0.3113 0.44248 0.0
C1520 C 0.92218 0.34291 0.45055 0.0
N1521 N 0.91803 0.33226 0.43569 0.0
C1522 C 0.93473 0.34572 0.46297 0.0
C1523 C 0.93848 0.32641 0.44477 0.0
C1524 C 0.92591 0.32406 0.43261 0.0
C1525 C 0.94309 0.33744 0.46014 0.0
H1526 H 0.91592 0.34949 0.45251 0.0
H1527 H 0.92273 0.31588 0.42062 0.0
C1528 C 0.85575 0.32284 0.39189 0.0
N1529 N 0.8228 0.3086 0.39126 0.0
C1530 C 0.84672 0.30981 0.37966 0.0
C1531 C 0.84804 0.32869 0.40376 0.0
C1532 C 0.83006 0.30275 0.37957 0.0
C1533 C 0.83137 0.32132 0.40323 0.0
C1534 C 0.92374 0.35568 0.40249 0.0
C1535 C 0.93013 0.36905 0.41471 0.0
C1536 C 0.93382 0.35076 0.39426 0.0
C1537 C 0.94652 0.37715 0.41873 0.0
C1538 C 0.95014 0.35917 0.39865 0.0
N1539 N 0.9561 0.37207 0.41071 0.0
C1540 C 0.89331 0.37385 0.42992 0.0
C1541 C 0.88237 0.36969 0.39814 0.0
C1542 C 0.89368 0.38849 0.43128 0.0
N1543 N 0.88783 0.36491 0.41347 0.0
C1544 C 0.88239 0.38415 0.39893 0.0
C1545 C 0.88825 0.39387 0.41559 0.0
H1546 H 0.89762 0.36971 0.44185 0.0
H1547 H 0.87803 0.36226 0.38528 0.0
C1548 C 0.8833 0.30989 0.35161 0.0
N1549 N 0.89357 0.32413 0.36007 0.0
C1550 C 0.88444 0.30765 0.33174 0.0
C1551 C 0.90708 0.33455 0.3299 0.0
C1552 C 0.90539 0.33634 0.34977 0.0
C1553 C 0.89637 0.32013 0.32063 0.0
H1554 H 0.87415 0.30035 0.3603 0.0
H1555 H 0.91335 0.34753 0.35695 0.0
O1556 O 0.88488 0.33308 0.43493 0.0
O1557 O 0.88812 0.31018 0.40473 0.0
O1558 O 0.87202 0.32957 0.3927 0.0
O1559 O 0.90764 0.3473 0.39889 0.0
H1560 H 0.88632 0.30725 0.44471 0.0
H1561 H 0.87674 0.34358 0.4659 0.0
H1562 H 0.8806 0.29513 0.47766 0.0
H1563 H 0.87122 0.33088 0.49858 0.0
H1564 H 0.92023 0.29451 0.37505 0.0
H1565 H 0.88011 0.28429 0.42597 0.0
H1566 H 0.90982 0.31318 0.37866 0.0
H1567 H 0.89124 0.26625 0.42167 0.0
H1568 H 0.82157 0.28708 0.45196 0.0
H1569 H 0.8332 0.25952 0.41241 0.0
H1570 H 0.9381 0.35462 0.47432 0.0
H1571 H 0.94453 0.3197 0.4421 0.0
H1572 H 0.85249 0.30508 0.37048 0.0
H1573 H 0.85485 0.33865 0.41349 0.0
H1574 H 0.82291 0.29259 0.37026 0.0
H1575 H 0.82523 0.32565 0.41241 0.0
H1576 H 0.92249 0.37301 0.42121 0.0
H1577 H 0.92908 0.34048 0.38473 0.0
H1578 H 0.95161 0.38744 0.42828 0.0
H1579 H 0.95807 0.35542 0.39251 0.0
H1580 H 0.89847 0.39564 0.44431 0.0
H1581 H 0.87779 0.38762 0.38663 0.0
H1582 H 0.87606 0.2963 0.32512 0.0
H1583 H 0.91633 0.34451 0.32177 0.0
Li1584 Li 0.10438 0.45393 0.57802 0.0
Li1585 Li 0.09979 0.43434 0.60468 0.0
Li1586 Li 0.11582 0.43643 0.57675 0.0
Li1587 Li 0.08782 0.42409 0.57388 0.0
C1588 C 0.13542 0.45905 0.60092 0.0
N1589 N 0.16711 0.46937 0.60939 0.0
C1590 C 0.13934 0.45161 0.61565 0.0
C1591 C 0.14761 0.47177 0.59054 0.0
C1592 C 0.15543 0.45699 0.6197 0.0
C1593 C 0.16356 0.47681 0.59504 0.0
C1594 C 0.07592 0.43982 0.60673 0.0
C1595 C 0.05795 0.4283 0.634 0.0
N1596 N 0.06081 0.44312 0.63912 0.0
C1597 C 0.07865 0.45493 0.61225 0.0
C1598 C 0.06543 0.42637 0.61765 0.0
C1599 C 0.0709 0.45635 0.62867 0.0
C1600 C 0.09478 0.47449 0.56166 0.0
N1601 N 0.10621 0.47398 0.57265 0.0
C1602 C 0.11861 0.50196 0.57924 0.0
C1603 C 0.11808 0.48732 0.58126 0.0
C1604 C 0.10663 0.50282 0.56855 0.0
C1605 C 0.09475 0.48887 0.5594 0.0
H1606 H 0.08535 0.46359 0.55524 0.0
H1607 H 0.12683 0.48649 0.59023 0.0
C1608 C 0.09401 0.41808 0.64092 0.0
N1609 N 0.09834 0.43231 0.63216 0.0
C1610 C 0.09355 0.41696 0.66119 0.0
C1611 C 0.10217 0.44517 0.66296 0.0
C1612 C 0.10244 0.44574 0.64268 0.0
C1613 C 0.09776 0.43065 0.67247 0.0
H1614 H 0.09119 0.40769 0.63219 0.0
H1615 H 0.10604 0.45692 0.63527 0.0
C1616 C 0.11349 0.44448 0.53976 0.0
N1617 N 0.13252 0.45262 0.5069 0.0
C1618 C 0.1155 0.43289 0.52997 0.0
C1619 C 0.12113 0.4602 0.53279 0.0
C1620 C 0.12518 0.43725 0.5134 0.0
C1621 C 0.1307 0.46408 0.51616 0.0
C1622 C 0.09128 0.40094 0.58558 0.0
C1623 C 0.09661 0.39472 0.57087 0.0
C1624 C 0.07682 0.39092 0.59506 0.0
C1625 C 0.08737 0.37856 0.56588 0.0
C1626 C 0.06791 0.37484 0.58962 0.0
N1627 N 0.07333 0.36904 0.57527 0.0
C1628 C 0.13696 0.42519 0.58125 0.0
C1629 C 0.14652 0.44637 0.55833 0.0
C1630 C 0.15113 0.42476 0.57993 0.0
N1631 N 0.13488 0.43587 0.57055 0.0
C1632 C 0.16084 0.44618 0.55632 0.0
C1633 C 0.16329 0.43543 0.56746 0.0
H1634 H 0.1278 0.41735 0.59137 0.0
H1635 H 0.14504 0.45533 0.55075 0.0
C1636 C 0.05457 0.40389 0.56803 0.0
N1637 N 0.0693 0.40812 0.56088 0.0
C1638 C 0.04084 0.39275 0.55816 0.0
C1639 C 0.05771 0.39041 0.53389 0.0
C1640 C 0.07109 0.40155 0.54425 0.0
C1641 C 0.04235 0.38606 0.5407 0.0
H1642 H 0.05347 0.40943 0.58113 0.0
H1643 H 0.0829 0.40509 0.53891 0.0
O1644 O 0.11974 0.45359 0.59632 0.0
O1645 O 0.08363 0.43821 0.59089 0.0
O1646 O 0.10384 0.44043 0.55582 0.0
O1647 O 0.09999 0.41682 0.59039 0.0
H1648 H 0.13006 0.44163 0.62368 0.0
H1649 H 0.14479 0.47747 0.57885 0.0
H1650 H 0.15864 0.45128 0.63096 0.0
H1651 H 0.17312 0.48655 0.58703 0.0
H1652 H 0.04991 0.41802 0.64266 0.0
H1653 H 0.08675 0.46548 0.60407 0.0
H1654 H 0.06332 0.41461 0.61378 0.0
H1655 H 0.07295 0.46798 0.63313 0.0
H1656 H 0.12813 0.51242 0.58632 0.0
H1657 H 0.08515 0.48888 0.55127 0.0
H1658 H 0.09035 0.4056 0.66795 0.0
H1659 H 0.10537 0.45598 0.6711 0.0
H1660 H 0.10995 0.42074 0.53531 0.0
H1661 H 0.1197 0.46932 0.54011 0.0
H1662 H 0.12694 0.42843 0.50578 0.0
H1663 H 0.1367 0.4762 0.51062 0.0
H1664 H 0.10765 0.4023 0.56319 0.0
H1665 H 0.07237 0.39556 0.60627 0.0
H1666 H 0.09133 0.37361 0.55448 0.0
H1667 H 0.05666 0.36699 0.59675 0.0
H1668 H 0.15268 0.41636 0.58881 0.0
H1669 H 0.17014 0.4548 0.54686 0.0
H1670 H 0.02921 0.3899 0.56373 0.0
H1671 H 0.05937 0.38542 0.52055 0.0
Li1672 Li 0.649 0.10348 0.08068 0.0
Li1673 Li 0.66509 0.10031 0.10629 0.0
Li1674 Li 0.67787 0.1155 0.07673 0.0
Li1675 Li 0.66191 0.08699 0.07607 0.0
C1676 C 0.67631 0.13566 0.10242 0.0
N1677 N 0.69813 0.16689 0.11253 0.0
C1678 C 0.68736 0.13883 0.11734 0.0
C1679 C 0.6763 0.14842 0.09276 0.0
C1680 C 0.6983 0.15469 0.12221 0.0
C1681 C 0.68745 0.16411 0.09805 0.0
C1682 C 0.63591 0.07567 0.11037 0.0
C1683 C 0.63061 0.05783 0.13751 0.0
N1684 N 0.61877 0.06058 0.14354 0.0
C1685 C 0.62363 0.07826 0.11679 0.0
C1686 C 0.63937 0.0653 0.12074 0.0
C1687 C 0.61512 0.07053 0.1336 0.0
C1688 C 0.61822 0.0934 0.06573 0.0
N1689 N 0.63052 0.10505 0.0761 0.0
C1690 C 0.61557 0.11819 0.08224 0.0
C1691 C 0.62952 0.11736 0.08421 0.0
C1692 C 0.60244 0.1061 0.07205 0.0
C1693 C 0.60397 0.09368 0.06352 0.0
H1694 H 0.61936 0.08368 0.05962 0.0
H1695 H 0.63948 0.12639 0.09249 0.0
C1696 C 0.67776 0.0961 0.14171 0.0
N1697 N 0.66682 0.09935 0.13374 0.0
C1698 C 0.6791 0.09564 0.1619 0.0
C1699 C 0.65791 0.10196 0.16523 0.0
C1700 C 0.6571 0.10243 0.145 0.0
C1701 C 0.66907 0.09858 0.17397 0.0
H1702 H 0.6856 0.09408 0.1324 0.0
H1703 H 0.64868 0.10524 0.13823 0.0
C1704 C 0.66013 0.11003 0.04136 0.0
N1705 N 0.65783 0.12518 0.00839 0.0
C1706 C 0.66133 0.10463 0.0229 0.0
C1707 C 0.65763 0.12305 0.04303 0.0
C1708 C 0.66018 0.11247 0.00641 0.0
C1709 C 0.65653 0.13057 0.02621 0.0
C1710 C 0.68983 0.09194 0.08641 0.0
C1711 C 0.70144 0.09753 0.07175 0.0
C1712 C 0.68596 0.07775 0.0962 0.0
C1713 C 0.70894 0.08877 0.06708 0.0
C1714 C 0.69372 0.06933 0.09108 0.0
N1715 N 0.70495 0.07497 0.07675 0.0
C1716 C 0.70951 0.13816 0.08078 0.0
C1717 C 0.69952 0.14091 0.05042 0.0
C1718 C 0.7245 0.15122 0.07672 0.0
N1719 N 0.69732 0.1334 0.06785 0.0
C1720 C 0.71441 0.15404 0.04568 0.0
C1721 C 0.72712 0.15939 0.05898 0.0
H1722 H 0.70753 0.13181 0.09439 0.0
H1723 H 0.68987 0.13681 0.0401 0.0
C1724 C 0.64934 0.05374 0.06983 0.0
N1725 N 0.65969 0.06869 0.06321 0.0
C1726 C 0.64712 0.04038 0.05937 0.0
C1727 C 0.66649 0.05813 0.03576 0.0
C1728 C 0.66832 0.07112 0.04666 0.0
C1729 C 0.65556 0.04252 0.04192 0.0
H1730 H 0.6425 0.05219 0.08291 0.0
H1731 H 0.67645 0.08319 0.0418 0.0
O1732 O 0.66569 0.12019 0.09717 0.0
O1733 O 0.64455 0.08332 0.09412 0.0
O1734 O 0.66094 0.10228 0.05761 0.0
O1735 O 0.68214 0.10019 0.09095 0.0
H1736 H 0.68773 0.12919 0.12486 0.0
H1737 H 0.66782 0.1463 0.08129 0.0
H1738 H 0.70698 0.15728 0.13363 0.0
H1739 H 0.68761 0.17408 0.09063 0.0
H1740 H 0.63325 0.04988 0.14575 0.0
H1741 H 0.62079 0.08625 0.10899 0.0
H1742 H 0.64888 0.06322 0.11605 0.0
H1743 H 0.60564 0.07248 0.13878 0.0
H1744 H 0.61504 0.12813 0.08879 0.0
H1745 H 0.59411 0.084 0.05578 0.0
H1746 H 0.68809 0.09331 0.16797 0.0
H1747 H 0.6498 0.10411 0.1739 0.0
H1748 H 0.66309 0.09445 0.02131 0.0
H1749 H 0.65667 0.12737 0.05715 0.0
H1750 H 0.66113 0.10844 0.99204 0.0
H1751 H 0.65466 0.1407 0.02732 0.0
H1752 H 0.70448 0.10838 0.06387 0.0
H1753 H 0.67692 0.07318 0.10746 0.0
H1754 H 0.71789 0.09291 0.05571 0.0
H1755 H 0.69077 0.05829 0.09846 0.0
H1756 H 0.73382 0.15505 0.08759 0.0
H1757 H 0.71596 0.15987 0.03173 0.0
H1758 H 0.6384 0.02855 0.06446 0.0
H1759 H 0.67332 0.06028 0.02248 0.0
Li1760 Li 0.56184 0.66854 0.60567 0.0
Li1761 Li 0.54348 0.6517 0.57975 0.0
Li1762 Li 0.57303 0.66773 0.57443 0.0
Li1763 Li 0.55751 0.68109 0.57558 0.0
C1764 C 0.56285 0.64049 0.60611 0.0
N1765 N 0.5668 0.62218 0.6341 0.0
C1766 C 0.55061 0.62484 0.60975 0.0
C1767 C 0.57715 0.64678 0.61659 0.0
C1768 C 0.55283 0.61579 0.62398 0.0
C1769 C 0.5789 0.63735 0.63071 0.0
C1770 C 0.52731 0.665 0.60194 0.0
C1771 C 0.50303 0.66571 0.59585 0.0
N1772 N 0.49757 0.65948 0.61384 0.0
C1773 C 0.52154 0.65884 0.62049 0.0
C1774 C 0.51805 0.66866 0.58962 0.0
C1775 C 0.50645 0.65603 0.62618 0.0
C1776 C 0.57399 0.68476 0.64144 0.0
N1777 N 0.56433 0.67023 0.63321 0.0
C1778 C 0.557 0.65788 0.66452 0.0
C1779 C 0.55581 0.65694 0.6443 0.0
C1780 C 0.56669 0.67275 0.67357 0.0
C1781 C 0.57531 0.68632 0.66169 0.0
H1782 H 0.58045 0.69519 0.63227 0.0
H1783 H 0.54788 0.6456 0.63748 0.0
C1784 C 0.52078 0.62449 0.55802 0.0
N1785 N 0.52422 0.63196 0.5756 0.0
C1786 C 0.50642 0.61012 0.55529 0.0
C1787 C 0.49974 0.6112 0.58896 0.0
C1788 C 0.5142 0.62546 0.59103 0.0
C1789 C 0.49562 0.6034 0.57086 0.0
H1790 H 0.52914 0.62969 0.54609 0.0
H1791 H 0.51756 0.63122 0.60506 0.0
C1792 C 0.59373 0.69653 0.58701 0.0
N1793 N 0.62623 0.71518 0.58046 0.0
C1794 C 0.59938 0.70746 0.57163 0.0
C1795 C 0.6046 0.69523 0.59923 0.0
C1796 C 0.61586 0.71675 0.56851 0.0
C1797 C 0.62099 0.70472 0.59563 0.0
C1798 C 0.54751 0.66476 0.54001 0.0
C1799 C 0.55533 0.66873 0.52201 0.0
C1800 C 0.53148 0.66076 0.54106 0.0
C1801 C 0.54704 0.66892 0.50544 0.0
C1802 C 0.52358 0.66106 0.52417 0.0
N1803 N 0.53147 0.66513 0.50686 0.0
C1804 C 0.59643 0.65868 0.56773 0.0
C1805 C 0.5961 0.67687 0.54481 0.0
C1806 C 0.60818 0.65764 0.55706 0.0
N1807 N 0.59051 0.66801 0.56132 0.0
C1808 C 0.60774 0.67607 0.53357 0.0
C1809 C 0.6137 0.66613 0.53951 0.0
H1810 H 0.59165 0.65158 0.58071 0.0
H1811 H 0.59122 0.68425 0.54012 0.0
C1812 C 0.5501 0.70547 0.57905 0.0
N1813 N 0.55581 0.69868 0.56642 0.0
C1814 C 0.54883 0.71865 0.57338 0.0
C1815 C 0.55977 0.71793 0.54196 0.0
C1816 C 0.5607 0.70465 0.54821 0.0
C1817 C 0.55373 0.72507 0.55464 0.0
H1818 H 0.54669 0.70072 0.59362 0.0
H1819 H 0.56561 0.6993 0.53864 0.0
O1820 O 0.56079 0.64957 0.59236 0.0
O1821 O 0.54217 0.66795 0.59622 0.0
O1822 O 0.57764 0.68713 0.59008 0.0
O1823 O 0.55552 0.66469 0.55643 0.0
H1824 H 0.53953 0.61971 0.60166 0.0
H1825 H 0.58674 0.65885 0.61397 0.0
H1826 H 0.54344 0.60367 0.62698 0.0
H1827 H 0.58987 0.64211 0.63901 0.0
H1828 H 0.49575 0.66846 0.58643 0.0
H1829 H 0.52856 0.65611 0.63034 0.0
H1830 H 0.52246 0.67396 0.5755 0.0
H1831 H 0.50181 0.65113 0.64042 0.0
H1832 H 0.55033 0.64701 0.6729 0.0
H1833 H 0.58271 0.69809 0.66792 0.0
H1834 H 0.50371 0.60446 0.54111 0.0
H1835 H 0.49199 0.60619 0.6015 0.0
H1836 H 0.59113 0.70864 0.56207 0.0
H1837 H 0.60043 0.68699 0.61137 0.0
H1838 H 0.6204 0.72518 0.55656 0.0
H1839 H 0.62954 0.70379 0.60491 0.0
H1840 H 0.56767 0.67168 0.52082 0.0
H1841 H 0.52511 0.6572 0.5547 0.0
H1842 H 0.55297 0.67206 0.49145 0.0
H1843 H 0.51117 0.65799 0.52482 0.0
H1844 H 0.61228 0.64963 0.56197 0.0
H1845 H 0.61176 0.68286 0.52016 0.0
H1846 H 0.54446 0.72404 0.58375 0.0
H1847 H 0.56374 0.72259 0.52743 0.0
Li1848 Li 0.89002 0.56452 0.10985 0.0
Li1849 Li 0.88429 0.5422 0.08644 0.0
Li1850 Li 0.90039 0.56964 0.07749 0.0
Li1851 Li 0.87272 0.55962 0.08091 0.0
C1852 C 0.92059 0.56369 0.09519 0.0
N1853 N 0.95268 0.57592 0.08713 0.0
C1854 C 0.92554 0.55491 0.08389 0.0
C1855 C 0.93195 0.57863 0.10252 0.0
C1856 C 0.94182 0.56131 0.07995 0.0
C1857 C 0.94812 0.58463 0.09824 0.0
C1858 C 0.85809 0.53493 0.11585 0.0
C1859 C 0.8306 0.51682 0.1247 0.0
N1860 N 0.83556 0.51407 0.14206 0.0
C1861 C 0.86291 0.53195 0.1338 0.0
C1862 C 0.8418 0.52734 0.11127 0.0
C1863 C 0.85134 0.52135 0.14684 0.0
C1864 C 0.88245 0.57311 0.14605 0.0
N1865 N 0.89291 0.56992 0.13656 0.0
C1866 C 0.90655 0.5716 0.16619 0.0
C1867 C 0.90486 0.56924 0.14613 0.0
C1868 C 0.89568 0.57447 0.17658 0.0
C1869 C 0.88362 0.57544 0.1662 0.0
H1870 H 0.87291 0.57332 0.13805 0.0
H1871 H 0.91284 0.56643 0.13826 0.0
C1872 C 0.88536 0.51683 0.06741 0.0
N1873 N 0.88115 0.52112 0.0843 0.0
C1874 C 0.88373 0.50168 0.06548 0.0
C1875 C 0.87357 0.49566 0.09839 0.0
C1876 C 0.8754 0.51092 0.09967 0.0
C1877 C 0.87782 0.49088 0.08114 0.0
H1878 H 0.89018 0.52526 0.0555 0.0
H1879 H 0.87252 0.5147 0.11308 0.0
C1880 C 0.89061 0.59251 0.08064 0.0
N1881 N 0.89097 0.61693 0.05923 0.0
C1882 C 0.8896 0.59152 0.06034 0.0
C1883 C 0.89179 0.6059 0.09005 0.0
C1884 C 0.88981 0.60399 0.04978 0.0
C1885 C 0.89196 0.61812 0.07896 0.0
C1886 C 0.87225 0.54106 0.04961 0.0
C1887 C 0.87512 0.54179 0.0296 0.0
C1888 C 0.85796 0.52864 0.05717 0.0
C1889 C 0.86362 0.53008 0.01745 0.0
C1890 C 0.84675 0.51716 0.04455 0.0
N1891 N 0.84978 0.51811 0.02511 0.0
C1892 C 0.9219 0.57665 0.04708 0.0
C1893 C 0.92767 0.59928 0.06643 0.0
C1894 C 0.93521 0.58587 0.03542 0.0
N1895 N 0.91848 0.58344 0.06226 0.0
C1896 C 0.94103 0.60901 0.055 0.0
C1897 C 0.94498 0.6023 0.03928 0.0
H1898 H 0.91441 0.56398 0.04427 0.0
H1899 H 0.9247 0.60432 0.0787 0.0
C1900 C 0.84532 0.56192 0.08616 0.0
N1901 N 0.85463 0.56065 0.07226 0.0
C1902 C 0.83202 0.56314 0.08088 0.0
C1903 C 0.83827 0.56192 0.04704 0.0
C1904 C 0.8515 0.56082 0.05299 0.0
C1905 C 0.82835 0.56311 0.06108 0.0
H1906 H 0.84826 0.56198 0.10136 0.0
H1907 H 0.85937 0.56031 0.04219 0.0
O1908 O 0.90467 0.55781 0.09874 0.0
O1909 O 0.8692 0.54553 0.10302 0.0
O1910 O 0.8903 0.58042 0.0914 0.0
O1911 O 0.88346 0.55253 0.06157 0.0
H1912 H 0.91689 0.54334 0.07807 0.0
H1913 H 0.92829 0.58566 0.11112 0.0
H1914 H 0.94582 0.55469 0.07114 0.0
H1915 H 0.95704 0.59623 0.10367 0.0
H1916 H 0.81797 0.51085 0.12132 0.0
H1917 H 0.87545 0.53758 0.13754 0.0
H1918 H 0.83783 0.52954 0.09748 0.0
H1919 H 0.85491 0.5189 0.16075 0.0
H1920 H 0.91616 0.57098 0.17351 0.0
H1921 H 0.87486 0.57741 0.17363 0.0
H1922 H 0.88708 0.49847 0.05189 0.0
H1923 H 0.86927 0.48785 0.11096 0.0
H1924 H 0.88868 0.58127 0.05278 0.0
H1925 H 0.89254 0.60681 0.10576 0.0
H1926 H 0.88904 0.60339 0.03406 0.0
H1927 H 0.89287 0.62856 0.08605 0.0
H1928 H 0.88613 0.55134 0.02352 0.0
H1929 H 0.85555 0.5278 0.07258 0.0
H1930 H 0.86568 0.53051 0.00193 0.0
H1931 H 0.83565 0.50748 0.05021 0.0
H1932 H 0.93797 0.58008 0.02377 0.0
H1933 H 0.94812 0.62162 0.05841 0.0
H1934 H 0.82458 0.56389 0.09216 0.0
H1935 H 0.83595 0.56209 0.03164 0.0
Li1936 Li 0.32536 0.89355 0.60869 0.0
Li1937 Li 0.34194 0.88792 0.58369 0.0
Li1938 Li 0.32904 0.90342 0.5756 0.0
Li1939 Li 0.31305 0.87584 0.58068 0.0
C1940 C 0.35505 0.92476 0.59341 0.0
N1941 N 0.37266 0.95745 0.58766 0.0
C1942 C 0.36848 0.93129 0.58128 0.0
C1943 C 0.35069 0.93486 0.60281 0.0
C1944 C 0.37719 0.94785 0.5785 0.0
C1945 C 0.35972 0.95135 0.59967 0.0
C1946 C 0.31628 0.85702 0.60504 0.0
C1947 C 0.30997 0.83019 0.59684 0.0
N1948 N 0.29704 0.82428 0.60886 0.0
C1949 C 0.30298 0.8507 0.61737 0.0
C1950 C 0.31985 0.84671 0.59471 0.0
C1951 C 0.29338 0.83411 0.61907 0.0
C1952 C 0.30926 0.89024 0.64424 0.0
N1953 N 0.32381 0.89715 0.6354 0.0
C1954 C 0.33698 0.90889 0.66536 0.0
C1955 C 0.33753 0.90639 0.64544 0.0
C1956 C 0.32214 0.90175 0.675 0.0
C1957 C 0.30814 0.8924 0.66415 0.0
H1958 H 0.29855 0.883 0.6358 0.0
H1959 H 0.34893 0.91163 0.638 0.0
C1960 C 0.36999 0.89314 0.5649 0.0
N1961 N 0.36017 0.88573 0.58028 0.0
C1962 C 0.38412 0.89264 0.56267 0.0
C1963 C 0.37733 0.87626 0.59165 0.0
C1964 C 0.36349 0.87733 0.59352 0.0
C1965 C 0.38793 0.88417 0.57622 0.0
H1966 H 0.36695 0.89966 0.55456 0.0
H1967 H 0.35548 0.87166 0.60567 0.0
C1968 C 0.30025 0.90005 0.59155 0.0
N1969 N 0.28234 0.91518 0.59305 0.0
C1970 C 0.28808 0.89629 0.57797 0.0
C1971 C 0.30312 0.91133 0.60608 0.0
C1972 C 0.27922 0.90412 0.57891 0.0
C1973 C 0.29398 0.91889 0.60655 0.0
C1974 C 0.32289 0.88241 0.54235 0.0
C1975 C 0.31102 0.88594 0.53709 0.0
C1976 C 0.32785 0.87481 0.52903 0.0
C1977 C 0.30422 0.88176 0.51856 0.0
C1978 C 0.32075 0.87081 0.51063 0.0
N1979 N 0.30918 0.87433 0.50582 0.0
C1980 C 0.34333 0.92381 0.54451 0.0
C1981 C 0.32639 0.93061 0.56194 0.0
C1982 C 0.34755 0.93644 0.53164 0.0
N1983 N 0.33291 0.92109 0.55929 0.0
C1984 C 0.33012 0.9433 0.54924 0.0
C1985 C 0.34087 0.94638 0.53384 0.0
H1986 H 0.3486 0.91627 0.54294 0.0
H1987 H 0.31843 0.92857 0.57394 0.0
C1988 C 0.28014 0.85471 0.58025 0.0
N1989 N 0.29419 0.85699 0.57287 0.0
C1990 C 0.2658 0.84104 0.57545 0.0
C1991 C 0.28065 0.83211 0.55579 0.0
C1992 C 0.29473 0.8461 0.56079 0.0
C1993 C 0.26596 0.82951 0.56314 0.0
H1994 H 0.28012 0.86343 0.59011 0.0
H1995 H 0.30611 0.84816 0.55531 0.0
O1996 O 0.34604 0.90853 0.5958 0.0
O1997 O 0.32551 0.87322 0.60268 0.0
O1998 O 0.30886 0.89229 0.59106 0.0
O1999 O 0.32963 0.88626 0.56047 0.0
H2000 H 0.37202 0.92366 0.57391 0.0
H2001 H 0.3404 0.93001 0.61233 0.0
H2002 H 0.38754 0.95306 0.56903 0.0
H2003 H 0.35642 0.9593 0.60675 0.0
H2004 H 0.31253 0.82206 0.58885 0.0
H2005 H 0.3 0.85853 0.62535 0.0
H2006 H 0.32999 0.85142 0.58493 0.0
H2007 H 0.28299 0.82904 0.62847 0.0
H2008 H 0.34807 0.91598 0.6732 0.0
H2009 H 0.29646 0.88683 0.67097 0.0
H2010 H 0.39198 0.89879 0.55053 0.0
H2011 H 0.37998 0.86974 0.60246 0.0
H2012 H 0.2854 0.88733 0.56689 0.0
H2013 H 0.31235 0.91432 0.61683 0.0
H2014 H 0.26982 0.90137 0.56845 0.0
H2015 H 0.29616 0.92771 0.61764 0.0
H2016 H 0.30715 0.8919 0.54718 0.0
H2017 H 0.33703 0.872 0.53292 0.0
H2018 H 0.29501 0.88442 0.5143 0.0
H2019 H 0.32444 0.86489 0.50018 0.0
H2020 H 0.35622 0.93858 0.52035 0.0
H2021 H 0.32461 0.95057 0.55148 0.0
H2022 H 0.25473 0.83931 0.5817 0.0
H2023 H 0.28123 0.82346 0.54629 0.0
Li2024 Li 0.42967 0.32481 0.10997 0.0
Li2025 Li 0.45062 0.34296 0.08474 0.0
Li2026 Li 0.42241 0.32778 0.07724 0.0
Li2027 Li 0.43636 0.31396 0.08141 0.0
C2028 C 0.42496 0.35302 0.09459 0.0
N2029 N 0.40802 0.36864 0.08759 0.0
C2030 C 0.43112 0.36615 0.082 0.0
C2031 C 0.41029 0.34797 0.10383 0.0
C2032 C 0.42235 0.37385 0.0786 0.0
C2033 C 0.40188 0.35598 0.10005 0.0
C2034 C 0.46058 0.32057 0.10412 0.0
C2035 C 0.4826 0.31802 0.09176 0.0
N2036 N 0.47933 0.30638 0.10512 0.0
C2037 C 0.45749 0.30864 0.11779 0.0
C2038 C 0.47325 0.32534 0.09102 0.0
C2039 C 0.46709 0.30159 0.11804 0.0
C2040 C 0.42148 0.30826 0.14555 0.0
N2041 N 0.42502 0.32231 0.13686 0.0
C2042 C 0.42382 0.33355 0.16733 0.0
C2043 C 0.42607 0.3348 0.1472 0.0
C2044 C 0.42072 0.31939 0.17681 0.0
C2045 C 0.41937 0.30657 0.16568 0.0
H2046 H 0.42059 0.2985 0.13685 0.0
H2047 H 0.42901 0.34585 0.13986 0.0
C2048 C 0.47304 0.37193 0.06636 0.0
N2049 N 0.47036 0.36212 0.08181 0.0
C2050 C 0.48759 0.38626 0.06464 0.0
C2051 C 0.49646 0.37971 0.09437 0.0
C2052 C 0.48167 0.3657 0.09569 0.0
C2053 C 0.49956 0.39035 0.07881 0.0
H2054 H 0.46381 0.3687 0.05551 0.0
H2055 H 0.47919 0.35762 0.10779 0.0
C2056 C 0.39927 0.29759 0.09463 0.0
N2057 N 0.36694 0.2766 0.09985 0.0
C2058 C 0.39126 0.28405 0.08281 0.0
C2059 C 0.39088 0.30027 0.10937 0.0
C2060 C 0.3749 0.27363 0.0856 0.0
C2061 C 0.37453 0.28957 0.11171 0.0
C2062 C 0.43657 0.32336 0.04325 0.0
C2063 C 0.42179 0.30953 0.04041 0.0
C2064 C 0.44708 0.33015 0.02758 0.0
C2065 C 0.41775 0.30267 0.02189 0.0
C2066 C 0.44262 0.32294 0.00928 0.0
N2067 N 0.42817 0.30945 0.00684 0.0
C2068 C 0.41324 0.33985 0.04638 0.0
C2069 C 0.39099 0.32193 0.06551 0.0
C2070 C 0.40341 0.34274 0.03425 0.0
N2071 N 0.40695 0.3296 0.06165 0.0
C2072 C 0.38068 0.32448 0.05374 0.0
C2073 C 0.38689 0.33505 0.0379 0.0
H2074 H 0.42601 0.34611 0.04388 0.0
H2075 H 0.38621 0.3141 0.07787 0.0
C2076 C 0.42993 0.28277 0.08457 0.0
N2077 N 0.43851 0.29629 0.07393 0.0
C2078 C 0.43169 0.2695 0.08134 0.0
C2079 C 0.45084 0.28417 0.0559 0.0
C2080 C 0.44872 0.29722 0.05966 0.0
C2081 C 0.44244 0.27019 0.06707 0.0
H2082 H 0.42201 0.28247 0.09592 0.0
H2083 H 0.45557 0.30825 0.05163 0.0
O2084 O 0.43312 0.345 0.0976 0.0
O2085 O 0.45096 0.32722 0.10316 0.0
O2086 O 0.41536 0.30773 0.09236 0.0
O2087 O 0.44084 0.3303 0.06125 0.0
H2088 H 0.44245 0.37021 0.07473 0.0
H2089 H 0.40538 0.33789 0.11368 0.0
H2090 H 0.42691 0.38394 0.06875 0.0
H2091 H 0.39045 0.35212 0.10698 0.0
H2092 H 0.49238 0.32152 0.08162 0.0
H2093 H 0.4477 0.30476 0.12798 0.0
H2094 H 0.47567 0.3344 0.08016 0.0
H2095 H 0.46478 0.29227 0.12846 0.0
H2096 H 0.42509 0.34373 0.17547 0.0
H2097 H 0.41686 0.29542 0.1725 0.0
H2098 H 0.48928 0.39412 0.05252 0.0
H2099 H 0.50537 0.38207 0.10541 0.0
H2100 H 0.39762 0.28151 0.07168 0.0
H2101 H 0.39686 0.31053 0.11884 0.0
H2102 H 0.36855 0.26315 0.07649 0.0
H2103 H 0.36787 0.29157 0.12296 0.0
H2104 H 0.41351 0.30422 0.05234 0.0
H2105 H 0.45858 0.34088 0.02957 0.0
H2106 H 0.40633 0.29196 0.01949 0.0
H2107 H 0.45064 0.32805 0.99701 0.0
H2108 H 0.40878 0.35129 0.02251 0.0
H2109 H 0.36801 0.31832 0.05706 0.0
H2110 H 0.42483 0.25886 0.09009 0.0
H2111 H 0.45934 0.2852 0.04489 0.0
H2112 H 0.42889 0.12703 0.297 0.0
H2113 H 0.40577 0.07542 0.29809 0.0
H2114 H 0.4277 0.12646 0.26153 0.0
H2115 H 0.40505 0.07488 0.2626 0.0
H2116 H 0.39541 0.07905 0.19847 0.0
H2117 H 0.39327 0.08025 0.23382 0.0
H2118 H 0.44156 0.12033 0.23601 0.0
H2119 H 0.44352 0.11942 0.20075 0.0
C2120 C 0.42336 0.11555 0.28968 0.0
C2121 C 0.41751 0.10127 0.30034 0.0
C2122 C 0.42284 0.11524 0.26936 0.0
C2123 C 0.41642 0.10064 0.25926 0.0
C2124 C 0.40999 0.08632 0.26994 0.0
C2125 C 0.41055 0.08664 0.29026 0.0
C2126 C 0.40548 0.08822 0.20651 0.0
C2127 C 0.41966 0.09909 0.19685 0.0
C2128 C 0.40431 0.08883 0.22675 0.0
C2129 C 0.41725 0.10039 0.2377 0.0
C2130 C 0.43131 0.1114 0.22798 0.0
C2131 C 0.43251 0.11075 0.2078 0.0
H2132 H 0.34423 0.4171 0.7026 0.0
H2133 H 0.31176 0.4357 0.70092 0.0
H2134 H 0.34362 0.41731 0.73816 0.0
H2135 H 0.31074 0.4354 0.73633 0.0
H2136 H 0.32856 0.4513 0.79842 0.0
H2137 H 0.32883 0.45026 0.76302 0.0
H2138 H 0.32535 0.40389 0.76582 0.0
H2139 H 0.32559 0.40516 0.80136 0.0
C2140 C 0.33694 0.42119 0.70982 0.0
C2141 C 0.32805 0.42639 0.69895 0.0
C2142 C 0.33646 0.42115 0.73016 0.0
C2143 C 0.32715 0.4264 0.74004 0.0
C2144 C 0.31816 0.43145 0.72915 0.0
C2145 C 0.3186 0.43145 0.70885 0.0
C2146 C 0.32798 0.44094 0.7915 0.0
C2147 C 0.3271 0.42834 0.80268 0.0
C2148 C 0.32795 0.44026 0.77121 0.0
C2149 C 0.32707 0.42698 0.76162 0.0
C2150 C 0.32617 0.41434 0.77279 0.0
C2151 C 0.32614 0.415 0.79312 0.0
H2152 H 0.87677 0.29659 0.19768 0.0
H2153 H 0.92226 0.34067 0.19943 0.0
H2154 H 0.87711 0.29472 0.23287 0.0
H2155 H 0.92199 0.33942 0.23477 0.0
H2156 H 0.92279 0.32802 0.29834 0.0
H2157 H 0.9241 0.32646 0.26296 0.0
H2158 H 0.87298 0.30752 0.25961 0.0
H2159 H 0.87171 0.30863 0.29487 0.0
C2160 C 0.88694 0.30582 0.20551 0.0
C2161 C 0.89945 0.31885 0.19564 0.0
C2162 C 0.887 0.30487 0.22578 0.0
C2163 C 0.89946 0.31702 0.23674 0.0
C2164 C 0.91224 0.32977 0.22684 0.0
C2165 C 0.91227 0.33062 0.20654 0.0
C2166 C 0.91186 0.32344 0.28997 0.0
C2167 C 0.89715 0.31843 0.29931 0.0
C2168 C 0.9126 0.32259 0.26971 0.0
C2169 C 0.89865 0.31688 0.25837 0.0
C2170 C 0.88392 0.31167 0.26783 0.0
C2171 C 0.88318 0.31236 0.28806 0.0
H2172 H 0.5499 0.86919 0.69857 0.0
H2173 H 0.59512 0.91345 0.69587 0.0
H2174 H 0.55149 0.86967 0.73389 0.0
H2175 H 0.59711 0.91351 0.73127 0.0
H2176 H 0.58402 0.91823 0.79463 0.0
H2177 H 0.58455 0.91771 0.75921 0.0
H2178 H 0.56565 0.86657 0.76063 0.0
H2179 H 0.56432 0.86697 0.79597 0.0
C2180 C 0.56022 0.879 0.70552 0.0
C2181 C 0.57232 0.89135 0.69439 0.0
C2182 C 0.56124 0.87916 0.72578 0.0
C2183 C 0.57444 0.89162 0.73544 0.0
C2184 C 0.5867 0.90382 0.7243 0.0
C2185 C 0.58565 0.9037 0.704 0.0
C2186 C 0.57992 0.90687 0.78738 0.0
C2187 C 0.574 0.89263 0.79816 0.0
C2188 C 0.58042 0.9066 0.76707 0.0
C2189 C 0.57507 0.89208 0.75706 0.0
C2190 C 0.56964 0.87792 0.76787 0.0
C2191 C 0.56908 0.87818 0.78816 0.0
H2192 H 0.69062 0.59561 0.30071 0.0
H2193 H 0.6513 0.54686 0.29932 0.0
H2194 H 0.69239 0.59548 0.26525 0.0
H2195 H 0.65254 0.54701 0.26404 0.0
H2196 H 0.66868 0.54581 0.2029 0.0
H2197 H 0.66921 0.54681 0.23833 0.0
H2198 H 0.67786 0.59529 0.23635 0.0
H2199 H 0.6776 0.59433 0.20081 0.0
C2200 C 0.68235 0.58488 0.29286 0.0
C2201 C 0.67078 0.57126 0.30287 0.0
C2202 C 0.68326 0.58487 0.27253 0.0
C2203 C 0.67263 0.57122 0.26179 0.0
C2204 C 0.66107 0.55765 0.27184 0.0
C2205 C 0.66019 0.55764 0.2921 0.0
C2206 C 0.67068 0.55667 0.21005 0.0
C2207 C 0.67297 0.56995 0.19912 0.0
C2208 C 0.67095 0.55724 0.23035 0.0
C2209 C 0.67341 0.57107 0.2402 0.0
C2210 C 0.67609 0.5845 0.22923 0.0
C2211 C 0.67592 0.58396 0.20889 0.0
H2212 H 0.07241 0.64264 0.6968 0.0
H2213 H 0.10569 0.69349 0.69829 0.0
H2214 H 0.07071 0.64218 0.73222 0.0
H2215 H 0.10442 0.69304 0.73374 0.0
H2216 H 0.08949 0.68967 0.79684 0.0
H2217 H 0.08817 0.68984 0.76136 0.0
H2218 H 0.08666 0.6443 0.75954 0.0
H2219 H 0.08753 0.644 0.79492 0.0
C2220 C 0.07941 0.65371 0.70476 0.0
C2221 C 0.08923 0.66809 0.69484 0.0
C2222 C 0.07849 0.65346 0.72505 0.0
C2223 C 0.0875 0.66756 0.73589 0.0
C2224 C 0.09712 0.682 0.72589 0.0
C2225 C 0.0979 0.68227 0.70557 0.0
C2226 C 0.0888 0.67969 0.7888 0.0
C2227 C 0.08858 0.66681 0.79861 0.0
C2228 C 0.08811 0.6798 0.76848 0.0
C2229 C 0.08735 0.6671 0.75754 0.0
C2230 C 0.08693 0.65414 0.76745 0.0
C2231 C 0.08747 0.65397 0.78775 0.0
H2232 H 0.89082 0.59474 0.20005 0.0
H2233 H 0.90224 0.55677 0.20203 0.0
H2234 H 0.89201 0.59632 0.23558 0.0
H2235 H 0.90365 0.55854 0.23732 0.0
H2236 H 0.92066 0.57676 0.2985 0.0
H2237 H 0.92055 0.57737 0.26303 0.0
H2238 H 0.87686 0.57944 0.26408 0.0
H2239 H 0.87684 0.57864 0.29958 0.0
C2240 C 0.89354 0.58671 0.20803 0.0
C2241 C 0.89654 0.5757 0.19816 0.0
C2242 C 0.89425 0.58764 0.22836 0.0
C2243 C 0.89804 0.57763 0.23921 0.0
C2244 C 0.90102 0.56663 0.22935 0.0
C2245 C 0.90023 0.56565 0.20909 0.0
C2246 C 0.911 0.57729 0.29118 0.0
C2247 C 0.89871 0.57754 0.30188 0.0
C2248 C 0.91095 0.57767 0.27087 0.0
C2249 C 0.89864 0.57836 0.26078 0.0
C2250 C 0.8866 0.57908 0.27146 0.0
C2251 C 0.8866 0.57864 0.29179 0.0
H2252 H 0.29791 0.89297 0.79864 0.0
H2253 H 0.34944 0.9217 0.79561 0.0
H2254 H 0.29645 0.89314 0.76319 0.0
H2255 H 0.34799 0.92183 0.76021 0.0
H2256 H 0.30343 0.87871 0.70134 0.0
H2257 H 0.30342 0.8811 0.7366 0.0
H2258 H 0.33925 0.93117 0.73238 0.0
H2259 H 0.33927 0.92877 0.69701 0.0
C2260 C 0.30892 0.89935 0.79039 0.0
C2261 C 0.3238 0.90724 0.79991 0.0
C2262 C 0.30808 0.89944 0.7701 0.0
C2263 C 0.32211 0.90741 0.75888 0.0
C2264 C 0.33695 0.91574 0.76843 0.0
C2265 C 0.33779 0.91567 0.78872 0.0
C2266 C 0.31111 0.8903 0.7079 0.0
C2267 C 0.32139 0.90354 0.69637 0.0
C2268 C 0.3111 0.89168 0.72812 0.0
C2269 C 0.32136 0.90633 0.73731 0.0
C2270 C 0.33138 0.91967 0.72576 0.0
C2271 C 0.33139 0.91829 0.70551 0.0
H2272 H 0.4477 0.33333 0.29764 0.0
H2273 H 0.39608 0.3074 0.30054 0.0
H2274 H 0.44638 0.332 0.26209 0.0
H2275 H 0.39476 0.30616 0.26488 0.0
H2276 H 0.40333 0.32735 0.20108 0.0
H2277 H 0.40324 0.32715 0.23676 0.0
H2278 H 0.43626 0.30925 0.23652 0.0
H2279 H 0.4363 0.30937 0.20093 0.0
C2280 C 0.43609 0.32742 0.29064 0.0
C2281 C 0.42199 0.32049 0.30176 0.0
C2282 C 0.43533 0.32655 0.27035 0.0
C2283 C 0.42047 0.31894 0.26082 0.0
C2284 C 0.40636 0.31213 0.27192 0.0
C2285 C 0.40711 0.31277 0.29225 0.0
C2286 C 0.41048 0.3233 0.2087 0.0
C2287 C 0.41981 0.31837 0.19831 0.0
C2288 C 0.41036 0.3231 0.22905 0.0
C2289 C 0.41979 0.31824 0.23931 0.0
C2290 C 0.42897 0.31314 0.22892 0.0
C2291 C 0.4289 0.3131 0.2086 0.0
H2292 H 0.07581 0.4074 0.69654 0.0
H2293 H 0.1205 0.45227 0.69706 0.0
H2294 H 0.07675 0.40608 0.73201 0.0
H2295 H 0.12118 0.45121 0.73244 0.0
H2296 H 0.1264 0.43549 0.79305 0.0
H2297 H 0.12498 0.43545 0.75764 0.0
H2298 H 0.07461 0.42006 0.76099 0.0
H2299 H 0.07604 0.42016 0.79646 0.0
C2300 C 0.08582 0.41696 0.70423 0.0
C2301 C 0.09807 0.42994 0.69402 0.0
C2302 C 0.08629 0.41628 0.72453 0.0
C2303 C 0.09906 0.42852 0.735 0.0
C2304 C 0.11128 0.4415 0.72477 0.0
C2305 C 0.11078 0.4422 0.70452 0.0
C2306 C 0.11504 0.43217 0.78623 0.0
C2307 C 0.10135 0.42791 0.79756 0.0
C2308 C 0.11423 0.43215 0.76595 0.0
C2309 C 0.0997 0.42785 0.75653 0.0
C2310 C 0.08593 0.42327 0.76783 0.0
C2311 C 0.08675 0.42331 0.78814 0.0
H2312 H 0.66136 0.07111 0.29587 0.0
H2313 H 0.68559 0.12282 0.29695 0.0
H2314 H 0.6609 0.07162 0.26046 0.0
H2315 H 0.68605 0.12335 0.26163 0.0
H2316 H 0.67458 0.07828 0.1964 0.0
H2317 H 0.67688 0.07815 0.2317 0.0
H2318 H 0.66784 0.11766 0.23565 0.0
H2319 H 0.66655 0.11844 0.20041 0.0
C2320 C 0.66669 0.08259 0.28858 0.0
C2321 C 0.67343 0.09691 0.29933 0.0
C2322 C 0.66662 0.08289 0.26824 0.0
C2323 C 0.67337 0.09753 0.25815 0.0
C2324 C 0.6805 0.11185 0.2689 0.0
C2325 C 0.68046 0.11154 0.28921 0.0
C2326 C 0.67332 0.0871 0.20478 0.0
C2327 C 0.67036 0.09837 0.19552 0.0
C2328 C 0.67444 0.08689 0.22506 0.0
C2329 C 0.67254 0.09789 0.23656 0.0
C2330 C 0.6696 0.10915 0.22727 0.0
C2331 C 0.6686 0.10944 0.20703 0.0
H2332 H 0.59236 0.69282 0.69659 0.0
H2333 H 0.54266 0.65568 0.69985 0.0
H2334 H 0.59334 0.69485 0.73188 0.0
H2335 H 0.54407 0.65663 0.73496 0.0
H2336 H 0.54546 0.67014 0.79749 0.0
H2337 H 0.54493 0.67109 0.76208 0.0
H2338 H 0.59425 0.68209 0.76023 0.0
H2339 H 0.59488 0.68208 0.79576 0.0
C2340 C 0.58164 0.68506 0.70477 0.0
C2341 C 0.56745 0.67404 0.69522 0.0
C2342 C 0.58228 0.68605 0.7251 0.0
C2343 C 0.56881 0.67588 0.73643 0.0
C2344 C 0.55464 0.66488 0.72684 0.0
C2345 C 0.55392 0.6641 0.70657 0.0
C2346 C 0.55617 0.67284 0.78941 0.0
C2347 C 0.57018 0.67597 0.79921 0.0
C2348 C 0.55588 0.67328 0.76911 0.0
C2349 C 0.5695 0.67649 0.75813 0.0
C2350 C 0.58359 0.67981 0.76809 0.0
C2351 C 0.58396 0.6797 0.78844 0.0
H2352 H 0.46422 0.19397 0.08317 0.0
H2353 H 0.42916 0.1777 0.03713 0.0
H2354 H 0.46713 0.22055 0.08141 0.0
H2355 H 0.43163 0.2042 0.0357 0.0
H2356 H 0.4447 0.25659 0.033 0.0
H2357 H 0.44792 0.23307 0.02939 0.0
H2358 H 0.44918 0.22947 0.09201 0.0
H2359 H 0.44657 0.25308 0.09551 0.0
C2360 C 0.45728 0.1962 0.07252 0.0
C2361 C 0.44632 0.18383 0.06046 0.0
C2362 C 0.45888 0.21135 0.07155 0.0
C2363 C 0.44938 0.21438 0.05869 0.0
C2364 C 0.43917 0.20227 0.0457 0.0
C2365 C 0.43771 0.1871 0.04654 0.0
C2366 C 0.44592 0.25086 0.04593 0.0
C2367 C 0.44522 0.25654 0.06454 0.0
C2368 C 0.44764 0.23736 0.04387 0.0
C2369 C 0.44883 0.22942 0.0604 0.0
C2370 C 0.44855 0.23542 0.07895 0.0
C2371 C 0.44681 0.24882 0.08099 0.0
H2372 H 0.18187 0.43831 0.59839 0.0
H2373 H 0.17962 0.43383 0.53584 0.0
H2374 H 0.20714 0.43844 0.59851 0.0
H2375 H 0.20471 0.43326 0.53585 0.0
H2376 H 0.2581 0.44853 0.54298 0.0
H2377 H 0.23287 0.44874 0.54113 0.0
H2378 H 0.21692 0.42074 0.59404 0.0
H2379 H 0.24232 0.42122 0.59619 0.0
C2380 C 0.18677 0.43719 0.58467 0.0
C2381 C 0.17881 0.43591 0.56713 0.0
C2382 C 0.20119 0.43717 0.58471 0.0
C2383 C 0.20787 0.43561 0.56721 0.0
C2384 C 0.19999 0.4346 0.54958 0.0
C2385 C 0.18562 0.43486 0.54954 0.0
C2386 C 0.2491 0.44238 0.5541 0.0
C2387 C 0.25213 0.43502 0.56984 0.0
C2388 C 0.23465 0.44243 0.55303 0.0
C2389 C 0.22292 0.43493 0.56757 0.0
C2390 C 0.22583 0.42704 0.58288 0.0
C2391 C 0.24032 0.42721 0.58409 0.0
H2392 H 0.81284 0.24137 0.09036 0.0
H2393 H 0.81207 0.25199 0.02949 0.0
H2394 H 0.78943 0.2149 0.08565 0.0
H2395 H 0.78829 0.2254 0.02477 0.0
H2396 H 0.7331 0.18741 0.04152 0.0
H2397 H 0.75875 0.2123 0.03942 0.0
H2398 H 0.78228 0.18901 0.06588 0.0
H2399 H 0.75682 0.16397 0.06743 0.0
C2400 C 0.80764 0.23796 0.07596 0.0
C2401 C 0.81411 0.24862 0.06029 0.0
C2402 C 0.79436 0.22282 0.07323 0.0
C2403 C 0.78717 0.21816 0.05484 0.0
C2404 C 0.79369 0.22878 0.03907 0.0
C2405 C 0.80722 0.24388 0.04174 0.0
C2406 C 0.7438 0.18744 0.04635 0.0
C2407 C 0.74287 0.17377 0.05496 0.0
C2408 C 0.75846 0.2017 0.04516 0.0
C2409 C 0.77238 0.20254 0.05269 0.0
C2410 C 0.77164 0.18867 0.0602 0.0
C2411 C 0.75706 0.1744 0.0612 0.0
H2412 H 0.57701 0.75162 0.53615 0.0
H2413 H 0.52948 0.73142 0.56038 0.0
H2414 H 0.57752 0.77687 0.53041 0.0
H2415 H 0.53012 0.75672 0.55507 0.0
H2416 H 0.53208 0.8018 0.53453 0.0
H2417 H 0.53124 0.77621 0.5307 0.0
H2418 H 0.57924 0.79728 0.55361 0.0
H2419 H 0.58003 0.82266 0.55772 0.0
C2420 C 0.56656 0.75248 0.53991 0.0
C2421 C 0.55326 0.73962 0.54889 0.0
C2422 C 0.5669 0.76696 0.53675 0.0
C2423 C 0.55391 0.7688 0.54241 0.0
C2424 C 0.54027 0.75564 0.55041 0.0
C2425 C 0.53997 0.74121 0.55365 0.0
C2426 C 0.54249 0.80099 0.53862 0.0
C2427 C 0.55607 0.81425 0.5466 0.0
C2428 C 0.54201 0.78636 0.53637 0.0
C2429 C 0.55514 0.78473 0.54194 0.0
C2430 C 0.56902 0.79821 0.54893 0.0
C2431 C 0.56946 0.81279 0.55127 0.0
H2432 H 0.73027 0.5343 0.04844 0.0
H2433 H 0.75218 0.5858 0.04714 0.0
H2434 H 0.75657 0.53673 0.04555 0.0
H2435 H 0.77848 0.58823 0.04371 0.0
H2436 H 0.81864 0.5832 0.07544 0.0
H2437 H 0.79382 0.58302 0.06844 0.0
H2438 H 0.7812 0.54536 0.02623 0.0
H2439 H 0.80598 0.5453 0.0336 0.0
C2440 C 0.74069 0.54612 0.04709 0.0
C2441 C 0.73921 0.55986 0.04833 0.0
C2442 C 0.75574 0.54752 0.04525 0.0
C2443 C 0.7696 0.56269 0.04465 0.0
C2444 C 0.76801 0.5764 0.04441 0.0
C2445 C 0.75294 0.57499 0.04619 0.0
C2446 C 0.81061 0.57495 0.06459 0.0
C2447 C 0.81413 0.56413 0.05525 0.0
C2448 C 0.7965 0.57499 0.06037 0.0
C2449 C 0.78556 0.56416 0.04678 0.0
C2450 C 0.78938 0.55377 0.03685 0.0
C2451 C 0.80357 0.5538 0.04099 0.0
H2452 H 0.26032 0.79889 0.56502 0.0
H2453 H 0.23756 0.82654 0.55172 0.0
H2454 H 0.23463 0.77424 0.56195 0.0
H2455 H 0.21191 0.80191 0.54814 0.0
H2456 H 0.16772 0.75788 0.57319 0.0
H2457 H 0.19336 0.78235 0.57026 0.0
H2458 H 0.21298 0.75624 0.54116 0.0
H2459 H 0.18744 0.7315 0.54503 0.0
C2460 C 0.24987 0.79965 0.56099 0.0
C2461 C 0.25086 0.81459 0.5588 0.0
C2462 C 0.23515 0.78554 0.55917 0.0
C2463 C 0.22117 0.7861 0.555 0.0
C2464 C 0.22238 0.80107 0.5518 0.0
C2465 C 0.23705 0.81516 0.55378 0.0
C2466 C 0.17751 0.75733 0.56623 0.0
C2467 C 0.17559 0.7427 0.55956 0.0
C2468 C 0.19217 0.77142 0.56428 0.0
C2469 C 0.20526 0.77128 0.55548 0.0
C2470 C 0.20319 0.75673 0.54822 0.0
C2471 C 0.18851 0.74259 0.55024 0.0
H2472 H 0.81992 0.58103 0.44585 0.0
H2473 H 0.79562 0.52947 0.44053 0.0
H2474 H 0.79415 0.57978 0.4492 0.0
H2475 H 0.76988 0.5284 0.44315 0.0
H2476 H 0.73285 0.54053 0.4141 0.0
H2477 H 0.75744 0.53946 0.41839 0.0
H2478 H 0.7681 0.56792 0.47062 0.0
H2479 H 0.74324 0.56879 0.46642 0.0
C2480 C 0.80914 0.56941 0.44583 0.0
C2481 C 0.80985 0.55537 0.44262 0.0
C2482 C 0.79439 0.56872 0.4477 0.0
C2483 C 0.78009 0.55401 0.44622 0.0
C2484 C 0.78077 0.5399 0.44408 0.0
C2485 C 0.7955 0.54056 0.44246 0.0
C2486 C 0.7404 0.54642 0.42658 0.0
C2487 C 0.73628 0.55479 0.4399 0.0
C2488 C 0.75436 0.54571 0.42912 0.0
C2489 C 0.76459 0.55358 0.44486 0.0
C2490 C 0.76038 0.56178 0.45837 0.0
C2491 C 0.74621 0.56223 0.45602 0.0
H2492 H 0.17678 0.75228 0.89639 0.0
H2493 H 0.18429 0.74064 0.95468 0.0
H2494 H 0.20212 0.77736 0.89793 0.0
H2495 H 0.20987 0.76575 0.95618 0.0
H2496 H 0.24889 0.81942 0.95606 0.0
H2497 H 0.22254 0.79518 0.95658 0.0
H2498 H 0.22999 0.78448 0.89772 0.0
H2499 H 0.25582 0.80887 0.8969 0.0
C2500 C 0.1839 0.7551 0.90952 0.0
C2501 C 0.17871 0.74445 0.92532 0.0
C2502 C 0.19841 0.76944 0.9104 0.0
C2503 C 0.20811 0.77341 0.92706 0.0
C2504 C 0.20263 0.76305 0.94318 0.0
C2505 C 0.18802 0.74869 0.94233 0.0
C2506 C 0.24483 0.8119 0.94322 0.0
C2507 C 0.25445 0.81605 0.92645 0.0
C2508 C 0.22982 0.79798 0.94358 0.0
C2509 C 0.22415 0.788 0.92714 0.0
C2510 C 0.2339 0.79205 0.91052 0.0
C2511 C 0.24883 0.80592 0.91016 0.0
H2512 H 0.46526 0.2 0.44303 0.0
H2513 H 0.4144 0.17144 0.45372 0.0
H2514 H 0.4637 0.22429 0.44683 0.0
H2515 H 0.41303 0.19569 0.45855 0.0
H2516 H 0.41351 0.23961 0.4311 0.0
H2517 H 0.41467 0.21529 0.43553 0.0
H2518 H 0.45874 0.24168 0.46787 0.0
H2519 H 0.45757 0.26623 0.46336 0.0
C2520 C 0.4538 0.19891 0.4465 0.0
C2521 C 0.43991 0.18377 0.44775 0.0
C2522 C 0.45295 0.21283 0.44894 0.0
C2523 C 0.4382 0.21192 0.45277 0.0
C2524 C 0.42452 0.19679 0.45528 0.0
C2525 C 0.42535 0.18288 0.45273 0.0
C2526 C 0.42326 0.24021 0.43956 0.0
C2527 C 0.43546 0.25487 0.44687 0.0
C2528 C 0.42392 0.22623 0.44213 0.0
C2529 C 0.43679 0.22653 0.45209 0.0
C2530 C 0.44876 0.2411 0.45994 0.0
C2531 C 0.4481 0.25514 0.45735 0.0
H2532 H 0.24412 0.41561 0.95863 0.0
H2533 H 0.26316 0.46125 0.92968 0.0
H2534 H 0.21859 0.41472 0.96317 0.0
H2535 H 0.23758 0.46023 0.93361 0.0
H2536 H 0.19245 0.45899 0.94996 0.0
H2537 H 0.21835 0.46088 0.95466 0.0
H2538 H 0.19702 0.4103 0.94261 0.0
H2539 H 0.17101 0.40823 0.93915 0.0
C2540 C 0.24282 0.42548 0.95334 0.0
C2541 C 0.25553 0.43845 0.9437 0.0
C2542 C 0.22822 0.42497 0.95587 0.0
C2543 C 0.22596 0.43733 0.9486 0.0
C2544 C 0.23893 0.45061 0.93966 0.0
C2545 C 0.25359 0.45119 0.93733 0.0
C2546 C 0.1932 0.44818 0.94887 0.0
C2547 C 0.17967 0.43347 0.94399 0.0
C2548 C 0.20811 0.44932 0.9513 0.0
C2549 C 0.20984 0.4358 0.94878 0.0
C2550 C 0.19615 0.42095 0.94483 0.0
C2551 C 0.18124 0.41979 0.94256 0.0
H2552 H 0.75411 0.17488 0.41886 0.0
H2553 H 0.72732 0.19241 0.45063 0.0
H2554 H 0.77841 0.20043 0.42329 0.0
H2555 H 0.75194 0.21797 0.45577 0.0
H2556 H 0.79519 0.26656 0.43313 0.0
H2557 H 0.77028 0.24093 0.43586 0.0
H2558 H 0.79748 0.21732 0.44736 0.0
H2559 H 0.82228 0.24284 0.44411 0.0
C2560 C 0.75344 0.18419 0.4269 0.0
C2561 C 0.73878 0.18169 0.43422 0.0
C2562 C 0.76743 0.19878 0.42969 0.0
C2563 C 0.76713 0.21123 0.43997 0.0
C2564 C 0.75252 0.20864 0.44769 0.0
C2565 C 0.73847 0.19398 0.44488 0.0
C2566 C 0.79576 0.25591 0.43666 0.0
C2567 C 0.81058 0.25656 0.43814 0.0
C2568 C 0.78153 0.24125 0.43826 0.0
C2569 C 0.78193 0.22706 0.4415 0.0
C2570 C 0.79679 0.22798 0.44438 0.0
C2571 C 0.81097 0.24257 0.4426 0.0
H2572 H 0.5833 0.75771 0.92913 0.0
H2573 H 0.53954 0.7315 0.96197 0.0
H2574 H 0.58235 0.78218 0.93349 0.0
H2575 H 0.53879 0.7562 0.96706 0.0
H2576 H 0.53095 0.79694 0.94427 0.0
H2577 H 0.53308 0.77306 0.94797 0.0
H2578 H 0.58439 0.80247 0.95416 0.0
H2579 H 0.5824 0.82626 0.94884 0.0
C2580 C 0.5737 0.7573 0.93775 0.0
C2581 C 0.56145 0.74273 0.94512 0.0
C2582 C 0.57317 0.77136 0.94036 0.0
C2583 C 0.56045 0.7712 0.95059 0.0
C2584 C 0.5486 0.75671 0.95879 0.0
C2585 C 0.54903 0.74259 0.95596 0.0
C2586 C 0.5427 0.79833 0.94637 0.0
C2587 C 0.55651 0.81355 0.94584 0.0
C2588 C 0.5439 0.78461 0.94883 0.0
C2589 C 0.55895 0.78579 0.95111 0.0
C2590 C 0.57264 0.80108 0.952 0.0
C2591 C 0.57146 0.81478 0.94923 0.0
H2592 H 0.33439 0.95215 -0.00073 0.0
H2593 H 0.3341 0.97681 0.94695 0.0
H2594 H 0.34192 0.9762 0.01822 0.0
H2595 H 0.34112 0.00079 0.96604 0.0
H2596 H 0.38113 0.04346 0.00183 0.0
H2597 H 0.3661 0.01973 0.98193 0.0
H2598 H 0.33475 0.99549 0.03049 0.0
H2599 H 0.34989 0.01937 0.05052 0.0
C2600 C 0.33568 0.96265 0.99189 0.0
C2601 C 0.3339 0.96268 0.97161 0.0
C2602 C 0.33979 0.97638 0.00277 0.0
C2603 C 0.34221 0.99044 0.9936 0.0
C2604 C 0.33951 0.99018 0.97347 0.0
C2605 C 0.33536 0.97642 0.96257 0.0
C2606 C 0.37075 0.03326 0.00813 0.0
C2607 C 0.36681 0.03323 0.02782 0.0
C2608 C 0.36211 0.01963 0.99669 0.0
C2609 C 0.34932 0.00567 0.00469 0.0
C2610 C 0.34472 0.00598 0.02402 0.0
C2611 C 0.35338 0.01963 0.03548 0.0
H2612 H 0.35573 0.3361 0.4491 0.0
H2613 H 0.38165 0.33663 0.50062 0.0
H2614 H 0.33976 0.34412 0.46862 0.0
H2615 H 0.36603 0.34509 0.52 0.0
H2616 H 0.33034 0.35309 0.5526 0.0
H2617 H 0.33925 0.33802 0.53269 0.0
H2618 H 0.34734 0.36987 0.48441 0.0
H2619 H 0.33873 0.38499 0.50421 0.0
C2620 C 0.35782 0.33766 0.46464 0.0
C2621 C 0.37006 0.33593 0.47332 0.0
C2622 C 0.34877 0.34236 0.47578 0.0
C2623 C 0.35173 0.34535 0.4958 0.0
C2624 C 0.36337 0.34276 0.50464 0.0
C2625 C 0.37246 0.33812 0.4935 0.0
C2626 C 0.3339 0.35678 0.53768 0.0
C2627 C 0.33393 0.37032 0.53006 0.0
C2628 C 0.33895 0.34813 0.52629 0.0
C2629 C 0.34405 0.35281 0.50703 0.0
C2630 C 0.34326 0.36581 0.4991 0.0
C2631 C 0.33829 0.37448 0.51049 0.0
H2632 H 0.02429 0.40457 0.96341 0.0
H2633 H 0.02778 0.36158 0.96308 0.0
H2634 H -0.00029 0.39079 0.98213 0.0
H2635 H 0.00325 0.34793 0.98254 0.0
H2636 H 0.97036 0.34072 0.03807 0.0
H2637 H 0.99399 0.3511 0.01714 0.0
H2638 H 0.97152 0.36743 0.97591 0.0
H2639 H 0.9478 0.35676 0.99645 0.0
C2640 C 0.01974 0.39212 0.96712 0.0
C2641 C 0.02792 0.38412 0.96146 0.0
C2642 C 0.00568 0.38426 0.97793 0.0
C2643 C -0.00047 0.36827 0.98357 0.0
C2644 C 0.0078 0.36029 0.97835 0.0
C2645 C 0.02184 0.36812 0.96729 0.0
C2646 C 0.97033 0.34622 0.02435 0.0
C2647 C 0.9573 0.34813 0.01906 0.0
C2648 C 0.98386 0.35216 0.01241 0.0
C2649 C 0.9846 0.36021 0.99508 0.0
C2650 C 0.97132 0.3615 0.98939 0.0
C2651 C 0.95779 0.35546 0.0012 0.0
H2652 H 0.6589 0.01929 0.44869 0.0
H2653 H 0.65096 0.04249 0.49776 0.0
H2654 H 0.65211 0.99595 0.46889 0.0
H2655 H 0.64321 0.01892 0.51751 0.0
H2656 H 0.63514 0.97785 0.55343 0.0
H2657 H 0.65036 0.00198 0.53388 0.0
H2658 H 0.628 0.97473 0.48178 0.0
H2659 H 0.61338 0.95062 0.50132 0.0
C2660 C 0.6559 0.01949 0.46384 0.0
C2661 C 0.65523 0.03265 0.47154 0.0
C2662 C 0.65183 0.00604 0.47536 0.0
C2663 C 0.64693 0.00544 0.49478 0.0
C2664 C 0.64706 0.01895 0.50269 0.0
C2665 C 0.65125 0.03241 0.49125 0.0
C2666 C 0.63377 0.97704 0.53775 0.0
C2667 C 0.62302 0.96246 0.52886 0.0
C2668 C 0.6424 0.99084 0.52655 0.0
C2669 C 0.64023 0.99038 0.50626 0.0
C2670 C 0.63014 0.97555 0.49731 0.0
C2671 C 0.62169 0.96171 0.5085 0.0
H2672 H 0.63357 0.61734 0.04969 0.0
H2673 H 0.67461 0.63013 0.01279 0.0
H2674 H 0.62571 0.63251 0.02877 0.0
H2675 H 0.66606 0.64461 0.99127 0.0
H2676 H 0.62527 0.64182 0.94821 0.0
H2677 H 0.63954 0.63328 0.96988 0.0
H2678 H 0.63671 0.66208 0.01605 0.0
H2679 H 0.62314 0.67137 0.99418 0.0
C2680 C 0.64113 0.62362 0.03739 0.0
C2681 C 0.65473 0.62241 0.03296 0.0
C2682 C 0.63654 0.63226 0.02535 0.0
C2683 C 0.64528 0.63966 0.00845 0.0
C2684 C 0.65909 0.63888 0.0042 0.0
C2685 C 0.66388 0.63048 0.01645 0.0
C2686 C 0.62811 0.64678 0.96275 0.0
C2687 C 0.62284 0.65716 0.96947 0.0
C2688 C 0.63625 0.64183 0.97517 0.0
C2689 C 0.63909 0.64696 0.9946 0.0
C2690 C 0.6345 0.65786 0.00113 0.0
C2691 C 0.62661 0.66304 0.98864 0.0
H2692 H 0.03824 0.66127 0.50125 0.0
H2693 H 0.01318 0.66206 0.55302 0.0
H2694 H 0.01421 0.65309 0.48209 0.0
H2695 H 0.98899 0.65362 0.53377 0.0
H2696 H 0.9476 0.61152 0.4983 0.0
H2697 H 0.9712 0.62744 0.51806 0.0
H2698 H 0.99393 0.65961 0.46974 0.0
H2699 H 0.9701 0.64378 0.44991 0.0
C2700 C 0.02775 0.66014 0.50847 0.0
C2701 C 0.02758 0.66213 0.52872 0.0
C2702 C 0.01395 0.65544 0.49746 0.0
C2703 C -0.00032 0.65257 0.50647 0.0
C2704 C -0.00024 0.65552 0.5265 0.0
C2705 C 0.01359 0.6603 0.53751 0.0
C2706 C 0.9574 0.62225 0.49201 0.0
C2707 C 0.957 0.62627 0.47244 0.0
C2708 C 0.97096 0.63139 0.50337 0.0
C2709 C 0.98446 0.64472 0.49541 0.0
C2710 C 0.98377 0.64927 0.47617 0.0
C2711 C 0.97015 0.64017 0.46482 0.0
H2712 H 0.60216 0.9483 0.99628 0.0
H2713 H 0.63237 0.9739 0.94739 0.0
H2714 H 0.61712 0.97173 0.01676 0.0
H2715 H 0.64787 0.99715 0.96816 0.0
H2716 H 0.65138 0.04025 0.00264 0.0
H2717 H 0.64218 0.0166 0.98245 0.0
H2718 H 0.64216 0.98955 0.03261 0.0
H2719 H 0.65126 0.01333 0.05295 0.0
C2720 C 0.61212 0.95889 0.98997 0.0
C2721 C 0.61592 0.95934 0.97015 0.0
C2722 C 0.62086 0.97224 0.00178 0.0
C2723 C 0.63364 0.98634 0.99406 0.0
C2724 C 0.63795 0.98653 0.97447 0.0
C2725 C 0.62917 0.97316 0.96262 0.0
C2726 C 0.64978 0.02936 0.00929 0.0
C2727 C 0.65194 0.02861 0.0294 0.0
C2728 C 0.64453 0.01579 0.9977 0.0
C2729 C 0.64136 0.00116 0.00594 0.0
C2730 C 0.64425 0.00059 0.0259 0.0
C2731 C 0.64946 0.01418 0.03753 0.0
H2732 H 0.65451 0.63699 0.44541 0.0
H2733 H 0.6561 0.61374 0.49841 0.0
H2734 H 0.64798 0.65441 0.46425 0.0
H2735 H 0.64871 0.63041 0.51706 0.0
H2736 H 0.6407 0.66524 0.54941 0.0
H2737 H 0.65534 0.65602 0.52921 0.0
H2738 H 0.62449 0.65041 0.48062 0.0
H2739 H 0.61027 0.66002 0.50064 0.0
C2740 C 0.65369 0.63574 0.46109 0.0
C2741 C 0.65559 0.62382 0.47039 0.0
C2742 C 0.64978 0.64561 0.47188 0.0
C2743 C 0.64764 0.64372 0.49216 0.0
C2744 C 0.6504 0.63236 0.50151 0.0
C2745 C 0.65438 0.62259 0.49076 0.0
C2746 C 0.63729 0.6623 0.5343 0.0
C2747 C 0.62428 0.66321 0.52662 0.0
C2748 C 0.64562 0.65697 0.52274 0.0
C2749 C 0.64096 0.65225 0.50335 0.0
C2750 C 0.62856 0.65411 0.49539 0.0
C2751 C 0.62035 0.65959 0.50689 0.0
H2752 H 0.94848 0.60053 -2e-05 0.0
H2753 H 0.97429 0.62643 0.05135 0.0
H2754 H 0.97288 0.61439 0.98098 0.0
H2755 H -0.00151 0.64119 0.03201 0.0
H2756 H 0.01652 0.6474 0.94736 0.0
H2757 H 0.99243 0.63856 0.96674 0.0
H2758 H 0.01742 0.63578 0.0175 0.0
H2759 H 0.04175 0.64575 -0.00151 0.0
C2760 C 0.95933 0.60931 0.00719 0.0
C2761 C 0.95946 0.61216 0.02727 0.0
C2762 C 0.9733 0.61748 0.9962 0.0
C2763 C 0.98772 0.62887 0.00496 0.0
C2764 C 0.98767 0.63229 0.02485 0.0
C2765 C 0.97372 0.62397 0.03591 0.0
C2766 C 0.01699 0.64529 0.96276 0.0
C2767 C 0.03106 0.64715 0.97131 0.0
C2768 C 0.0031 0.64 0.97383 0.0
C2769 C 0.00289 0.63627 0.99366 0.0
C2770 C 0.01712 0.63867 0.00233 0.0
C2771 C 0.03105 0.64413 0.99133 0.0
H2772 H 0.34568 0.9762 0.54281 0.0
H2773 H 0.34686 0.94789 0.49466 0.0
H2774 H 0.35565 -0.00057 0.52145 0.0
H2775 H 0.35748 0.97139 0.47365 0.0
H2776 H 0.39966 0.02313 0.45775 0.0
H2777 H 0.38506 -0.00197 0.47585 0.0
H2778 H 0.34795 0.00914 0.48924 0.0
H2779 H 0.36252 0.03424 0.47077 0.0
C2780 C 0.34778 0.97482 0.52764 0.0
C2781 C 0.34561 0.96018 0.52053 0.0
C2782 C 0.35353 0.98815 0.51545 0.0
C2783 C 0.35739 0.98716 0.496 0.0
C2784 C 0.35473 0.97245 0.48868 0.0
C2785 C 0.34877 0.95906 0.50076 0.0
C2786 C 0.38831 0.0201 0.46444 0.0
C2787 C 0.38218 0.03052 0.46302 0.0
C2788 C 0.37993 0.00575 0.47465 0.0
C2789 C 0.36541 0.00172 0.48388 0.0
C2790 C 0.35915 0.01205 0.48225 0.0
C2791 C 0.36741 0.0263 0.47169 0.0
H2792 H 0.36289 0.3402 0.05019 0.0
H2793 H 0.38752 0.33867 0.99841 0.0
H2794 H 0.34815 0.34975 0.03089 0.0
H2795 H 0.37331 0.34887 0.97927 0.0
H2796 H 0.33949 0.36016 0.94713 0.0
H2797 H 0.34785 0.34428 0.96635 0.0
H2798 H 0.35653 0.37541 0.01564 0.0
H2799 H 0.34822 0.39116 0.99657 0.0
C2800 C 0.36496 0.34164 0.03464 0.0
C2801 C 0.3765 0.33886 0.02585 0.0
C2802 C 0.35664 0.34727 0.02362 0.0
C2803 C 0.35971 0.35025 0.00361 0.0
C2804 C 0.37059 0.34661 0.99464 0.0
C2805 C 0.37889 0.34096 0.00564 0.0
C2806 C 0.34311 0.36352 0.96211 0.0
C2807 C 0.34325 0.37694 0.97032 0.0
C2808 C 0.34786 0.35443 0.97311 0.0
C2809 C 0.35285 0.35859 0.99251 0.0
C2810 C 0.35247 0.37169 0.00086 0.0
C2811 C 0.34773 0.38076 0.9899 0.0
H2812 H 0.03877 0.38766 0.50167 0.0
H2813 H 0.01358 0.3613 0.55306 0.0
H2814 H 0.01452 0.37294 0.4826 0.0
H2815 H 0.9892 0.34623 0.53383 0.0
H2816 H 0.94631 0.34306 0.49938 0.0
H2817 H 0.97034 0.35221 0.5189 0.0
H2818 H 0.99517 0.34794 0.4689 0.0
H2819 H 0.97143 0.33974 0.44908 0.0
C2820 C 0.02813 0.37841 0.50878 0.0
C2821 C 0.02804 0.37567 0.52886 0.0
C2822 C 0.01421 0.36992 0.49783 0.0
C2823 C -0.00012 0.35842 0.50669 0.0
C2824 C -3e-05 0.35519 0.52664 0.0
C2825 C 0.01391 0.36378 0.53764 0.0
C2826 C 0.95691 0.34408 0.49254 0.0
C2827 C 0.95702 0.34091 0.4726 0.0
C2828 C 0.97062 0.34909 0.50382 0.0
C2829 C 0.98474 0.35093 0.49542 0.0
C2830 C 0.98457 0.3469 0.47573 0.0
C2831 C 0.97089 0.34201 0.46442 0.0
H2832 H 0.52503 0.12681 0.08495 0.0
H2833 H 0.50267 0.07985 0.05861 0.0
H2834 H 0.55096 0.12834 0.08306 0.0
H2835 H 0.52875 0.08152 0.0565 0.0
H2836 H 0.58143 0.09751 0.04137 0.0
H2837 H 0.55578 0.09687 0.04051 0.0
H2838 H 0.56305 0.11408 0.09973 0.0
H2839 H 0.5884 0.11443 0.1008 0.0
C2840 C 0.52564 0.11679 0.07879 0.0
C2841 C 0.51174 0.10312 0.07216 0.0
C2842 C 0.5405 0.1177 0.07766 0.0
C2843 C 0.54185 0.10499 0.06978 0.0
C2844 C 0.52808 0.09155 0.06251 0.0
C2845 C 0.51316 0.0906 0.06371 0.0
C2846 C 0.57751 0.10106 0.05424 0.0
C2847 C 0.58704 0.1061 0.07112 0.0
C2848 C 0.56284 0.10072 0.05372 0.0
C2849 C 0.55747 0.10551 0.07001 0.0
C2850 C 0.56702 0.1106 0.08683 0.0
C2851 C 0.58158 0.11084 0.0874 0.0
H2852 H 0.49016 0.57617 0.55185 0.0
H2853 H 0.4663 0.59639 0.58463 0.0
H2854 H 0.46499 0.55077 0.54962 0.0
H2855 H 0.44134 0.57094 0.58294 0.0
H2856 H 0.39581 0.52733 0.56304 0.0
H2857 H 0.42064 0.5529 0.56036 0.0
H2858 H 0.44776 0.52926 0.57218 0.0
H2859 H 0.42295 0.50361 0.57416 0.0
C2860 C 0.47952 0.57523 0.55842 0.0
C2861 C 0.48022 0.58824 0.56851 0.0
C2862 C 0.46515 0.56065 0.55731 0.0
C2863 C 0.4512 0.55883 0.56617 0.0
C2864 C 0.45184 0.57199 0.57581 0.0
C2865 C 0.46618 0.58652 0.57697 0.0
C2866 C 0.40708 0.52755 0.56474 0.0
C2867 C 0.40742 0.51345 0.56888 0.0
C2868 C 0.4213 0.54222 0.5634 0.0
C2869 C 0.43616 0.54311 0.56615 0.0
C2870 C 0.43651 0.52896 0.56981 0.0
C2871 C 0.42229 0.51429 0.57118 0.0
H2872 H 0.86716 0.39893 0.11063 0.0
H2873 H 0.88458 0.40644 0.05143 0.0
H2874 H 0.86655 0.42388 0.10935 0.0
H2875 H 0.88343 0.4311 0.04992 0.0
H2876 H 0.89929 0.48365 0.06485 0.0
H2877 H 0.89808 0.45783 0.06418 0.0
H2878 H 0.85256 0.43626 0.09397 0.0
H2879 H 0.85375 0.46213 0.09462 0.0
C2880 C 0.87079 0.40588 0.09732 0.0
C2881 C 0.87599 0.40075 0.08117 0.0
C2882 C 0.87027 0.42008 0.0965 0.0
C2883 C 0.87496 0.42948 0.07954 0.0
C2884 C 0.87989 0.4242 0.06327 0.0
C2885 C 0.88039 0.40999 0.06407 0.0
C2886 C 0.8889 0.47336 0.07099 0.0
C2887 C 0.87663 0.47496 0.07983 0.0
C2888 C 0.88821 0.45855 0.07061 0.0
C2889 C 0.87524 0.445 0.07907 0.0
C2890 C 0.86283 0.44653 0.0876 0.0
C2891 C 0.86351 0.46135 0.08797 0.0
H2892 H 0.41784 0.90983 0.57217 0.0
H2893 H 0.39233 0.85837 0.57716 0.0
H2894 H 0.44319 0.91005 0.57181 0.0
H2895 H 0.41759 0.85835 0.5758 0.0
H2896 H 0.46544 0.86495 0.5954 0.0
H2897 H 0.44012 0.8645 0.59438 0.0
H2898 H 0.46033 0.90433 0.55418 0.0
H2899 H 0.48607 0.90569 0.55657 0.0
C2900 C 0.4177 0.89854 0.57284 0.0
C2901 C 0.40319 0.88409 0.57474 0.0
C2902 C 0.43221 0.89862 0.57253 0.0
C2903 C 0.43254 0.88421 0.5738 0.0
C2904 C 0.4179 0.86972 0.57521 0.0
C2905 C 0.4034 0.86968 0.57587 0.0
C2906 C 0.46461 0.8738 0.58657 0.0
C2907 C 0.47795 0.88546 0.57622 0.0
C2908 C 0.44992 0.87335 0.5857 0.0
C2909 C 0.44807 0.88438 0.57419 0.0
C2910 C 0.46131 0.8958 0.56347 0.0
C2911 C 0.47607 0.89641 0.56459 0.0
H2912 H 0.57728 0.48723 0.05687 0.0
H2913 H 0.59759 0.4661 0.09461 0.0
H2914 H 0.55227 0.46166 0.05563 0.0
H2915 H 0.5723 0.44089 0.09405 0.0
H2916 H 0.51773 0.40955 0.10887 0.0
H2917 H 0.54352 0.43405 0.1071 0.0
H2918 H 0.5422 0.43123 0.04443 0.0
H2919 H 0.5167 0.4061 0.04602 0.0
C2920 C 0.57654 0.47715 0.0647 0.0
C2921 C 0.58948 0.47884 0.07599 0.0
C2922 C 0.56218 0.46254 0.06404 0.0
C2923 C 0.56039 0.44943 0.07488 0.0
C2924 C 0.57336 0.45093 0.08577 0.0
C2925 C 0.58779 0.46542 0.08618 0.0
C2926 C 0.523 0.41388 0.09467 0.0
C2927 C 0.51511 0.40566 0.0776 0.0
C2928 C 0.53774 0.428 0.0937 0.0
C2929 C 0.54481 0.43442 0.07565 0.0
C2930 C 0.5369 0.42649 0.05852 0.0
C2931 C 0.52226 0.41217 0.05948 0.0
H2932 H 0.11348 0.52426 0.59808 0.0
H2933 H 0.09805 0.51545 0.53806 0.0
H2934 H 0.11185 0.54853 0.59787 0.0
H2935 H 0.09549 0.53938 0.53823 0.0
H2936 H 0.10882 0.59262 0.54096 0.0
H2937 H 0.11069 0.56827 0.53934 0.0
H2938 H 0.09185 0.55605 0.59782 0.0
H2939 H 0.09039 0.58048 0.59952 0.0
C2940 C 0.10983 0.52754 0.58477 0.0
C2941 C 0.10597 0.51789 0.56805 0.0
C2942 C 0.10863 0.54135 0.58475 0.0
C2943 C 0.10336 0.54583 0.5681 0.0
C2944 C 0.09967 0.53633 0.55127 0.0
C2945 C 0.10097 0.52251 0.55124 0.0
C2946 C 0.10499 0.58463 0.55337 0.0
C2947 C 0.09963 0.5885 0.57044 0.0
C2948 C 0.10602 0.57068 0.55245 0.0
C2949 C 0.1016 0.56029 0.56853 0.0
C2950 C 0.09575 0.56397 0.58534 0.0
C2951 C 0.09486 0.57794 0.58631 0.0
H2952 H 0.87624 0.47536 0.39128 0.0
H2953 H 0.9034 0.48858 0.44483 0.0
H2954 H 0.87604 0.45002 0.39112 0.0
H2955 H 0.90284 0.46299 0.44482 0.0
H2956 H 0.88217 0.4078 0.44687 0.0
H2957 H 0.88289 0.43346 0.44787 0.0
H2958 H 0.89612 0.44102 0.38714 0.0
H2959 H 0.89579 0.41564 0.38617 0.0
C2960 C 0.88228 0.47293 0.40295 0.0
C2961 C 0.88993 0.48409 0.41801 0.0
C2962 C 0.88211 0.45838 0.40287 0.0
C2963 C 0.88947 0.45456 0.41792 0.0
C2964 C 0.89693 0.46556 0.43313 0.0
C2965 C 0.89721 0.4802 0.43314 0.0
C2966 C 0.88543 0.41501 0.43378 0.0
C2967 C 0.88883 0.40957 0.4164 0.0
C2968 C 0.88581 0.42969 0.43437 0.0
C2969 C 0.88947 0.43918 0.41755 0.0
C2970 C 0.89299 0.43383 0.40024 0.0
C2971 C 0.89275 0.41924 0.39969 0.0
H2972 H 0.46732 0.87092 0.89232 0.0
H2973 H 0.48546 0.9033 0.94119 0.0
H2974 H 0.4424 0.87157 0.89362 0.0
H2975 H 0.46076 0.9044 0.9422 0.0
H2976 H 0.40918 0.89254 0.94939 0.0
H2977 H 0.43291 0.88973 0.94947 0.0
H2978 H 0.43264 0.88915 0.88656 0.0
H2979 H 0.4084 0.8909 0.88651 0.0
C2980 C 0.46598 0.87825 0.90327 0.0
C2981 C 0.47831 0.8871 0.91661 0.0
C2982 C 0.45173 0.87868 0.90399 0.0
C2983 C 0.44958 0.88813 0.91793 0.0
C2984 C 0.46188 0.89681 0.93145 0.0
C2985 C 0.47607 0.89624 0.93085 0.0
C2986 C 0.41405 0.89158 0.93558 0.0
C2987 C 0.40688 0.892 0.91795 0.0
C2988 C 0.42779 0.89018 0.93562 0.0
C2989 C 0.43474 0.88924 0.91802 0.0
C2990 C 0.42752 0.88962 0.9004 0.0
C2991 C 0.41374 0.89089 0.90037 0.0
H2992 H 0.51982 0.40027 0.44584 0.0
H2993 H 0.50275 0.41824 0.39965 0.0
H2994 H 0.54488 0.42581 0.44683 0.0
H2995 H 0.52769 0.44375 0.4007 0.0
H2996 H 0.58077 0.47905 0.39168 0.0
H2997 H 0.55544 0.45399 0.39216 0.0
H2998 H 0.55638 0.45411 0.45503 0.0
H2999 H 0.58216 0.47896 0.45453 0.0
C3000 C 0.52135 0.40974 0.43606 0.0
C3001 C 0.50936 0.40719 0.42256 0.0
C3002 C 0.53569 0.42437 0.43665 0.0
C3003 C 0.53833 0.43678 0.42376 0.0
C3004 C 0.52617 0.43434 0.41057 0.0
C3005 C 0.51188 0.41971 0.40996 0.0
C3006 C 0.57568 0.47366 0.40561 0.0
C3007 C 0.58355 0.48097 0.42306 0.0
C3008 C 0.56104 0.45939 0.4059 0.0
C3009 C 0.55385 0.45207 0.42364 0.0
C3010 C 0.56167 0.45938 0.44112 0.0
C3011 C 0.57635 0.4737 0.44084 0.0
H3012 H 0.14126 0.53387 0.92275 0.0
H3013 H 0.08954 0.50935 0.92003 0.0
H3014 H 0.14198 0.55954 0.92345 0.0
H3015 H 0.09039 0.53494 0.92168 0.0
H3016 H 0.09865 0.58337 0.94416 0.0
H3017 H 0.09968 0.55856 0.94619 0.0
H3018 H 0.13338 0.57449 0.89855 0.0
H3019 H 0.13225 0.59926 0.89642 0.0
C3020 C 0.13006 0.53389 0.92231 0.0
C3021 C 0.11534 0.51945 0.92132 0.0
C3022 C 0.1305 0.5486 0.92283 0.0
C3023 C 0.11625 0.54916 0.92271 0.0
C3024 C 0.10155 0.5348 0.92209 0.0
C3025 C 0.1011 0.52012 0.92124 0.0
C3026 C 0.10642 0.58163 0.9343 0.0
C3027 C 0.11534 0.59315 0.92009 0.0
C3028 C 0.10693 0.56744 0.93539 0.0
C3029 C 0.11659 0.56465 0.9225 0.0
C3030 C 0.12593 0.57641 0.90873 0.0
C3031 C 0.1252 0.59049 0.90742 0.0
H3032 H 0.57262 0.0813 0.41259 0.0
H3033 H 0.60063 0.13208 0.42371 0.0
H3034 H 0.54811 0.0829 0.41349 0.0
H3035 H 0.57608 0.13369 0.42452 0.0
H3036 H 0.52967 0.1302 0.39734 0.0
H3037 H 0.55458 0.12932 0.39874 0.0
H3038 H 0.53258 0.08966 0.43891 0.0
H3039 H 0.5077 0.09059 0.43759 0.0
C3040 C 0.5735 0.09279 0.41524 0.0
C3041 C 0.58847 0.10658 0.41805 0.0
C3042 C 0.5595 0.09368 0.41589 0.0
C3043 C 0.56025 0.10842 0.41907 0.0
C3044 C 0.57522 0.12221 0.42195 0.0
C3045 C 0.58921 0.12127 0.42161 0.0
C3046 C 0.53021 0.12134 0.40649 0.0
C3047 C 0.51681 0.11045 0.41735 0.0
C3048 C 0.54445 0.12091 0.4074 0.0
C3049 C 0.54545 0.10941 0.41892 0.0
C3050 C 0.53207 0.09858 0.42985 0.0
C3051 C 0.51791 0.09917 0.42918 0.0
H3052 H 0.4694 0.6002 0.90561 0.0
H3053 H 0.49157 0.57913 0.94011 0.0
H3054 H 0.44394 0.57534 0.90753 0.0
H3055 H 0.46587 0.55457 0.943 0.0
H3056 H 0.4224 0.50735 0.92341 0.0
H3057 H 0.44784 0.5324 0.92343 0.0
H3058 H 0.42263 0.55873 0.9291 0.0
H3059 H 0.39717 0.53362 0.92863 0.0
C3060 C 0.46885 0.59029 0.91365 0.0
C3061 C 0.48259 0.59166 0.92259 0.0
C3062 C 0.45417 0.57609 0.915 0.0
C3063 C 0.45282 0.56293 0.92543 0.0
C3064 C 0.46651 0.56439 0.93464 0.0
C3065 C 0.48121 0.57856 0.9332 0.0
C3066 C 0.42232 0.51849 0.92489 0.0
C3067 C 0.40781 0.51854 0.92598 0.0
C3068 C 0.4369 0.53286 0.92494 0.0
C3069 C 0.43731 0.54762 0.92623 0.0
C3070 C 0.42277 0.54762 0.92773 0.0
C3071 C 0.40818 0.53324 0.92752 0.0
loop_
_geom_bond_atom_site_label_1
_geom_bond_atom_site_label_2
_geom_bond_distance
_geom_bond_site_symmetry_2
_ccdc_geom_bond_type
Li0 N17 1.990 . S
Li0 O60 1.956 . S
Li0 O61 1.970 . S
Li0 O62 1.961 . S
Li1 N25 1.990 . S
Li1 O60 1.970 . S
Li1 O61 1.956 . S
Li1 O63 1.961 . S
Li2 N47 1.990 . S
Li2 O60 1.961 . S
Li2 O62 1.956 . S
Li2 O63 1.970 . S
Li3 N53 1.990 . S
Li3 O61 1.961 . S
Li3 O62 1.970 . S
Li3 O63 1.956 . S
C4 C6 1.348 . S
C4 C7 1.356 . S
C4 O60 1.325 . S
N5 C8 1.314 . S
N5 C9 1.279 . S
C6 C4 1.348 . S
C6 C8 1.353 . S
C6 H64 0.929 . S
C7 C4 1.356 . S
C7 C9 1.358 . S
C7 H65 0.930 . S
C8 N5 1.314 . S
C8 C6 1.353 . S
C8 H66 0.930 . S
C9 N5 1.279 . S
C9 C7 1.358 . S
C9 H67 0.930 . S
C10 C13 1.348 . S
C10 C14 1.356 . S
C10 O61 1.325 . S
C11 N12 1.279 . S
C11 C14 1.358 . S
C11 H68 0.930 . S
N12 C11 1.279 . S
N12 C15 1.314 . S
C13 C10 1.348 . S
C13 C15 1.353 . S
C13 H69 0.929 . S
C14 C10 1.356 . S
C14 C11 1.358 . S
C14 H70 0.930 . S
C15 N12 1.314 . S
C15 C13 1.353 . S
C15 H71 0.930 . S
C16 N17 1.314 . S
C16 C21 1.353 . S
C16 H22 0.930 . S
N17 Li0 1.990 . S
N17 C16 1.314 . S
N17 C19 1.279 . S
C18 C19 1.358 . S
C18 C20 1.356 . S
C18 H72 0.930 . S
C19 N17 1.279 . S
C19 C18 1.358 . S
C19 H23 0.930 . S
C20 C18 1.356 . S
C20 C21 1.348 . S
C21 C16 1.353 . S
C21 C20 1.348 . S
C21 H73 0.929 . S
H22 C16 0.930 . S
H23 C19 0.930 . S
C24 N25 1.314 . S
C24 C26 1.353 . S
C24 H30 0.930 . S
N25 Li1 1.990 . S
N25 C24 1.314 . S
N25 C28 1.279 . S
C26 C24 1.353 . S
C26 C29 1.348 . S
C26 H74 0.929 . S
C27 C28 1.358 . S
C27 C29 1.356 . S
C27 H75 0.930 . S
C28 N25 1.279 . S
C28 C27 1.358 . S
C28 H31 0.930 . S
C29 C26 1.348 . S
C29 C27 1.356 . S
H30 C24 0.930 . S
H31 C28 0.930 . S
C32 C34 1.348 . S
C32 C35 1.356 . S
C32 O62 1.325 . S
N33 C36 1.314 . S
N33 C37 1.279 . S
C34 C32 1.348 . S
C34 C36 1.353 . S
C34 H76 0.929 . S
C35 C32 1.356 . S
C35 C37 1.358 . S
C35 H77 0.930 . S
C36 N33 1.314 . S
C36 C34 1.353 . S
C36 H78 0.950 . S
C37 N33 1.279 . S
C37 C35 1.358 . S
C37 H79 0.930 . S
C38 C39 1.348 . S
C38 C40 1.356 . S
C38 O63 1.325 . S
C39 C38 1.348 . S
C39 C41 1.353 . S
C39 H80 0.929 . S
C40 C38 1.356 . S
C40 C42 1.358 . S
C40 H81 0.930 . S
C41 C39 1.353 . S
C41 N43 1.314 . S
C41 H82 0.930 . S
C42 C40 1.358 . S
C42 N43 1.279 . S
C42 H83 0.930 . S
N43 C41 1.314 . S
N43 C42 1.279 . S
C44 C46 1.353 . S
C44 N47 1.314 . S
C44 H50 0.930 . S
C45 N47 1.279 . S
C45 C48 1.358 . S
C45 H51 0.930 . S
C46 C44 1.353 . S
C46 C49 1.348 . S
C46 H84 0.929 . S
N47 Li2 1.990 . S
N47 C44 1.314 . S
N47 C45 1.279 . S
C48 C45 1.358 . S
C48 C49 1.356 . S
C48 H85 0.930 . S
C49 C46 1.348 . S
C49 C48 1.356 . S
H50 C44 0.930 . S
H51 C45 0.930 . S
C52 N53 1.314 . S
C52 C54 1.353 . S
C52 H58 0.930 . S
N53 Li3 1.990 . S
N53 C52 1.314 . S
N53 C56 1.279 . S
C54 C52 1.353 . S
C54 C57 1.348 . S
C54 H86 0.929 . S
C55 C56 1.358 . S
C55 C57 1.356 . S
C55 H87 0.930 . S
C56 N53 1.279 . S
C56 C55 1.358 . S
C56 H59 0.930 . S
C57 C54 1.348 . S
C57 C55 1.356 . S
H58 C52 0.930 . S
H59 C56 0.930 . S
O60 Li0 1.956 . S
O60 Li1 1.970 . S
O60 Li2 1.961 . S
O60 C4 1.325 . S
O61 Li0 1.970 . S
O61 Li1 1.956 . S
O61 Li3 1.961 . S
O61 C10 1.325 . S
O62 Li0 1.961 . S
O62 Li2 1.956 . S
O62 Li3 1.970 . S
O62 C32 1.325 . S
O63 Li1 1.961 . S
O63 Li2 1.970 . S
O63 Li3 1.956 . S
O63 C38 1.325 . S
H64 C6 0.929 . S
H65 C7 0.930 . S
H66 C8 0.930 . S
H67 C9 0.930 . S
H68 C11 0.930 . S
H69 C13 0.929 . S
H70 C14 0.930 . S
H71 C15 0.930 . S
H72 C18 0.930 . S
H73 C21 0.929 . S
H74 C26 0.929 . S
H75 C27 0.930 . S
H76 C34 0.929 . S
H77 C35 0.930 . S
H78 C36 0.950 . S
H79 C37 0.930 . S
H80 C39 0.929 . S
H81 C40 0.930 . S
H82 C41 0.930 . S
H83 C42 0.930 . S
H84 C46 0.929 . S
H85 C48 0.930 . S
H86 C54 0.929 . S
H87 C55 0.930 . S
Li88 N105 1.990 . S
Li88 O148 1.956 . S
Li88 O149 1.970 . S
Li88 O150 1.961 . S
Li89 N113 1.990 . S
Li89 O148 1.970 . S
Li89 O149 1.956 . S
Li89 O151 1.961 . S
Li90 N135 1.990 . S
Li90 O148 1.961 . S
Li90 O150 1.956 . S
Li90 O151 1.970 . S
Li91 N141 1.990 . S
Li91 O149 1.961 . S
Li91 O150 1.970 . S
Li91 O151 1.956 . S
C92 C94 1.348 . S
C92 C95 1.356 . S
C92 O148 1.325 . S
N93 C96 1.314 . S
N93 C97 1.279 . S
C94 C92 1.348 . S
C94 C96 1.353 . S
C94 H152 0.929 . S
C95 C92 1.356 . S
C95 C97 1.358 . S
C95 H153 0.930 . S
C96 N93 1.314 . S
C96 C94 1.353 . S
C96 H154 0.930 . S
C97 N93 1.279 . S
C97 C95 1.358 . S
C97 H155 0.930 . S
C98 C101 1.348 . S
C98 C102 1.356 . S
C98 O149 1.325 . S
C99 N100 1.279 . S
C99 C102 1.358 . S
C99 H156 0.930 . S
N100 C99 1.279 . S
N100 C103 1.314 . S
C101 C98 1.348 . S
C101 C103 1.353 . S
C101 H157 0.929 . S
C102 C98 1.356 . S
C102 C99 1.358 . S
C102 H158 0.930 . S
C103 N100 1.314 . S
C103 C101 1.353 . S
C103 H159 0.930 . S
C104 N105 1.314 . S
C104 C109 1.353 . S
C104 H110 0.930 . S
N105 Li88 1.990 . S
N105 C104 1.314 . S
N105 C107 1.279 . S
C106 C107 1.358 . S
C106 C108 1.356 . S
C106 H160 0.930 . S
C107 N105 1.279 . S
C107 C106 1.358 . S
C107 H111 0.930 . S
C108 C106 1.356 . S
C108 C109 1.348 . S
C109 C104 1.353 . S
C109 C108 1.348 . S
C109 H161 0.929 . S
H110 C104 0.930 . S
H111 C107 0.930 . S
C112 N113 1.314 . S
C112 C114 1.353 . S
C112 H118 0.930 . S
N113 Li89 1.990 . S
N113 C112 1.314 . S
N113 C116 1.279 . S
C114 C112 1.353 . S
C114 C117 1.348 . S
C114 H162 0.929 . S
C115 C116 1.358 . S
C115 C117 1.356 . S
C115 H163 0.930 . S
C116 N113 1.279 . S
C116 C115 1.358 . S
C116 H119 0.930 . S
C117 C114 1.348 . S
C117 C115 1.356 . S
H118 C112 0.930 . S
H119 C116 0.930 . S
C120 C122 1.348 . S
C120 C123 1.356 . S
C120 O150 1.325 . S
N121 C124 1.314 . S
N121 C125 1.279 . S
C122 C120 1.348 . S
C122 C124 1.353 . S
C122 H164 0.929 . S
C123 C120 1.356 . S
C123 C125 1.358 . S
C123 H165 0.930 . S
C124 N121 1.314 . S
C124 C122 1.353 . S
C124 H166 0.930 . S
C125 N121 1.279 . S
C125 C123 1.358 . S
C125 H167 0.930 . S
C126 C127 1.348 . S
C126 C128 1.356 . S
C126 O151 1.325 . S
C127 C126 1.348 . S
C127 C129 1.353 . S
C127 H168 0.929 . S
C128 C126 1.356 . S
C128 C130 1.358 . S
C128 H169 0.930 . S
C129 C127 1.353 . S
C129 N131 1.314 . S
C129 H170 0.930 . S
C130 C128 1.358 . S
C130 N131 1.279 . S
C130 H171 0.930 . S
N131 C129 1.314 . S
N131 C130 1.279 . S
C132 C134 1.353 . S
C132 N135 1.314 . S
C132 H138 0.930 . S
C133 N135 1.279 . S
C133 C136 1.358 . S
C133 H139 0.930 . S
C134 C132 1.353 . S
C134 C137 1.348 . S
C134 H172 0.929 . S
N135 Li90 1.990 . S
N135 C132 1.314 . S
N135 C133 1.279 . S
C136 C133 1.358 . S
C136 C137 1.356 . S
C136 H173 0.930 . S
C137 C134 1.348 . S
C137 C136 1.356 . S
H138 C132 0.930 . S
H139 C133 0.930 . S
C140 N141 1.314 . S
C140 C142 1.353 . S
C140 H146 0.930 . S
N141 Li91 1.990 . S
N141 C140 1.314 . S
N141 C144 1.279 . S
C142 C140 1.353 . S
C142 C145 1.348 . S
C142 H174 0.929 . S
C143 C144 1.358 . S
C143 C145 1.356 . S
C143 H175 0.930 . S
C144 N141 1.279 . S
C144 C143 1.358 . S
C144 H147 0.930 . S
C145 C142 1.348 . S
C145 C143 1.356 . S
H146 C140 0.930 . S
H147 C144 0.930 . S
O148 Li88 1.956 . S
O148 Li89 1.970 . S
O148 Li90 1.961 . S
O148 C92 1.325 . S
O149 Li88 1.970 . S
O149 Li89 1.956 . S
O149 Li91 1.961 . S
O149 C98 1.325 . S
O150 Li88 1.961 . S
O150 Li90 1.956 . S
O150 Li91 1.970 . S
O150 C120 1.325 . S
O151 Li89 1.961 . S
O151 Li90 1.970 . S
O151 Li91 1.956 . S
O151 C126 1.325 . S
H152 C94 0.929 . S
H153 C95 0.930 . S
H154 C96 0.930 . S
H155 C97 0.930 . S
H156 C99 0.930 . S
H157 C101 0.929 . S
H158 C102 0.930 . S
H159 C103 0.930 . S
H160 C106 0.930 . S
H161 C109 0.929 . S
H162 C114 0.929 . S
H163 C115 0.930 . S
H164 C122 0.929 . S
H165 C123 0.930 . S
H166 C124 0.930 . S
H167 C125 0.930 . S
H168 C127 0.929 . S
H169 C128 0.930 . S
H170 C129 0.930 . S
H171 C130 0.930 . S
H172 C134 0.929 . S
H173 C136 0.930 . S
H174 C142 0.929 . S
H175 C143 0.930 . S
Li176 N193 1.990 . S
Li176 O236 1.956 . S
Li176 O237 1.970 . S
Li176 O238 1.961 . S
Li177 N201 1.990 . S
Li177 O236 1.970 . S
Li177 O237 1.956 . S
Li177 O239 1.961 . S
Li178 N223 1.990 . S
Li178 O236 1.961 . S
Li178 O238 1.956 . S
Li178 O239 1.970 . S
Li179 N229 1.990 . S
Li179 O237 1.961 . S
Li179 O238 1.970 . S
Li179 O239 1.956 . S
C180 C182 1.348 . S
C180 C183 1.356 . S
C180 O236 1.325 . S
N181 C184 1.314 . S
N181 C185 1.279 . S
C182 C180 1.348 . S
C182 C184 1.353 . S
C182 H240 0.929 . S
C183 C180 1.356 . S
C183 C185 1.358 . S
C183 H241 0.930 . S
C184 N181 1.314 . S
C184 C182 1.353 . S
C184 H242 0.930 . S
C185 N181 1.279 . S
C185 C183 1.358 . S
C185 H243 0.930 . S
C186 C189 1.348 . S
C186 C190 1.356 . S
C186 O237 1.325 . S
C187 N188 1.279 . S
C187 C190 1.358 . S
C187 H244 0.930 . S
N188 C187 1.279 . S
N188 C191 1.314 . S
C189 C186 1.348 . S
C189 C191 1.353 . S
C189 H245 0.929 . S
C190 C186 1.356 . S
C190 C187 1.358 . S
C190 H246 0.930 . S
C191 N188 1.314 . S
C191 C189 1.353 . S
C191 H247 0.930 . S
C192 N193 1.314 . S
C192 C197 1.353 . S
C192 H198 0.930 . S
N193 Li176 1.990 . S
N193 C192 1.314 . S
N193 C195 1.279 . S
C194 C195 1.358 . S
C194 C196 1.356 . S
C194 H248 0.930 . S
C195 N193 1.279 . S
C195 C194 1.358 . S
C195 H199 0.930 . S
C196 C194 1.356 . S
C196 C197 1.348 . S
C197 C192 1.353 . S
C197 C196 1.348 . S
C197 H249 0.929 . S
H198 C192 0.930 . S
H199 C195 0.930 . S
C200 N201 1.314 . S
C200 C202 1.353 . S
C200 H206 0.930 . S
N201 Li177 1.990 . S
N201 C200 1.314 . S
N201 C204 1.279 . S
C202 C200 1.353 . S
C202 C205 1.348 . S
C202 H250 0.929 . S
C203 C204 1.358 . S
C203 C205 1.356 . S
C203 H251 0.930 . S
C204 N201 1.279 . S
C204 C203 1.358 . S
C204 H207 0.930 . S
C205 C202 1.348 . S
C205 C203 1.356 . S
H206 C200 0.930 . S
H207 C204 0.930 . S
C208 C210 1.348 . S
C208 C211 1.356 . S
C208 O238 1.325 . S
N209 C212 1.314 . S
N209 C213 1.279 . S
C210 C208 1.348 . S
C210 C212 1.353 . S
C210 H252 0.929 . S
C211 C208 1.356 . S
C211 C213 1.358 . S
C211 H253 0.930 . S
C212 N209 1.314 . S
C212 C210 1.353 . S
C212 H254 0.930 . S
C213 N209 1.279 . S
C213 C211 1.358 . S
C213 H255 0.930 . S
C214 C215 1.348 . S
C214 C216 1.356 . S
C214 O239 1.325 . S
C215 C214 1.348 . S
C215 C217 1.353 . S
C215 H256 0.929 . S
C216 C214 1.356 . S
C216 C218 1.358 . S
C216 H257 0.930 . S
C217 C215 1.353 . S
C217 N219 1.314 . S
C217 H258 0.952 . S
C218 C216 1.358 . S
C218 N219 1.279 . S
C218 H259 0.930 . S
N219 C217 1.314 . S
N219 C218 1.279 . S
C220 C222 1.353 . S
C220 N223 1.314 . S
C220 H226 0.930 . S
C221 N223 1.279 . S
C221 C224 1.358 . S
C221 H227 0.930 . S
C222 C220 1.353 . S
C222 C225 1.348 . S
C222 H260 0.929 . S
N223 Li178 1.990 . S
N223 C220 1.314 . S
N223 C221 1.279 . S
C224 C221 1.358 . S
C224 C225 1.356 . S
C224 H261 0.930 . S
C225 C222 1.348 . S
C225 C224 1.356 . S
H226 C220 0.930 . S
H227 C221 0.930 . S
C228 N229 1.314 . S
C228 C230 1.353 . S
C228 H234 0.930 . S
N229 Li179 1.990 . S
N229 C228 1.314 . S
N229 C232 1.279 . S
C230 C228 1.353 . S
C230 C233 1.348 . S
C230 H262 0.929 . S
C231 C232 1.358 . S
C231 C233 1.356 . S
C231 H263 0.930 . S
C232 N229 1.279 . S
C232 C231 1.358 . S
C232 H235 0.930 . S
C233 C230 1.348 . S
C233 C231 1.356 . S
H234 C228 0.930 . S
H235 C232 0.930 . S
O236 Li176 1.956 . S
O236 Li177 1.970 . S
O236 Li178 1.961 . S
O236 C180 1.325 . S
O237 Li176 1.970 . S
O237 Li177 1.956 . S
O237 Li179 1.961 . S
O237 C186 1.325 . S
O238 Li176 1.961 . S
O238 Li178 1.956 . S
O238 Li179 1.970 . S
O238 C208 1.325 . S
O239 Li177 1.961 . S
O239 Li178 1.970 . S
O239 Li179 1.956 . S
O239 C214 1.325 . S
H240 C182 0.929 . S
H241 C183 0.930 . S
H242 C184 0.930 . S
H243 C185 0.930 . S
H244 C187 0.930 . S
H245 C189 0.929 . S
H246 C190 0.930 . S
H247 C191 0.930 . S
H248 C194 0.930 . S
H249 C197 0.929 . S
H250 C202 0.929 . S
H251 C203 0.930 . S
H252 C210 0.929 . S
H253 C211 0.930 . S
H254 C212 0.930 . S
H255 C213 0.930 . S
H256 C215 0.929 . S
H257 C216 0.930 . S
H258 C217 0.952 . S
H259 C218 0.930 . S
H260 C222 0.929 . S
H261 C224 0.930 . S
H262 C230 0.929 . S
H263 C231 0.930 . S
Li264 N281 1.990 . S
Li264 O324 1.956 . S
Li264 O325 1.970 . S
Li264 O326 1.961 . S
Li265 N289 1.990 . S
Li265 O324 1.970 . S
Li265 O325 1.956 . S
Li265 O327 1.961 . S
Li266 N311 1.990 . S
Li266 O324 1.961 . S
Li266 O326 1.956 . S
Li266 O327 1.970 . S
Li267 N317 1.990 . S
Li267 O325 1.961 . S
Li267 O326 1.970 . S
Li267 O327 1.956 . S
C268 C270 1.348 . S
C268 C271 1.356 . S
C268 O324 1.325 . S
N269 C272 1.314 . S
N269 C273 1.279 . S
C270 C268 1.348 . S
C270 C272 1.353 . S
C270 H328 0.929 . S
C271 C268 1.356 . S
C271 C273 1.358 . S
C271 H329 0.930 . S
C272 N269 1.314 . S
C272 C270 1.353 . S
C272 H330 0.930 . S
C273 N269 1.279 . S
C273 C271 1.358 . S
C273 H331 0.930 . S
C274 C277 1.348 . S
C274 C278 1.356 . S
C274 O325 1.325 . S
C275 N276 1.279 . S
C275 C278 1.358 . S
C275 H332 0.930 . S
N276 C275 1.279 . S
N276 C279 1.314 . S
C277 C274 1.348 . S
C277 C279 1.353 . S
C277 H333 0.929 . S
C278 C274 1.356 . S
C278 C275 1.358 . S
C278 H334 0.930 . S
C279 N276 1.314 . S
C279 C277 1.353 . S
C279 H335 0.930 . S
C280 N281 1.314 . S
C280 C285 1.353 . S
C280 H286 0.930 . S
N281 Li264 1.990 . S
N281 C280 1.314 . S
N281 C283 1.279 . S
C282 C283 1.358 . S
C282 C284 1.356 . S
C282 H336 0.930 . S
C283 N281 1.279 . S
C283 C282 1.358 . S
C283 H287 0.930 . S
C284 C282 1.356 . S
C284 C285 1.348 . S
C285 C280 1.353 . S
C285 C284 1.348 . S
C285 H337 0.929 . S
H286 C280 0.930 . S
H287 C283 0.930 . S
C288 N289 1.314 . S
C288 C290 1.353 . S
C288 H294 0.930 . S
N289 Li265 1.990 . S
N289 C288 1.314 . S
N289 C292 1.279 . S
C290 C288 1.353 . S
C290 C293 1.348 . S
C290 H338 0.929 . S
C291 C292 1.358 . S
C291 C293 1.356 . S
C291 H339 0.930 . S
C292 N289 1.279 . S
C292 C291 1.358 . S
C292 H295 0.930 . S
C293 C290 1.348 . S
C293 C291 1.356 . S
H294 C288 0.930 . S
H295 C292 0.930 . S
C296 C298 1.348 . S
C296 C299 1.356 . S
C296 O326 1.325 . S
N297 C300 1.314 . S
N297 C301 1.279 . S
C298 C296 1.348 . S
C298 C300 1.353 . S
C298 H340 0.929 . S
C299 C296 1.356 . S
C299 C301 1.358 . S
C299 H341 0.930 . S
C300 N297 1.314 . S
C300 C298 1.353 . S
C300 H342 0.930 . S
C301 N297 1.279 . S
C301 C299 1.358 . S
C301 H343 0.930 . S
C302 C303 1.348 . S
C302 C304 1.356 . S
C302 O327 1.325 . S
C303 C302 1.348 . S
C303 C305 1.353 . S
C303 H344 0.929 . S
C304 C302 1.356 . S
C304 C306 1.358 . S
C304 H345 0.930 . S
C305 C303 1.353 . S
C305 N307 1.314 . S
C305 H346 0.930 . S
C306 C304 1.358 . S
C306 N307 1.279 . S
C306 H347 0.930 . S
N307 C305 1.314 . S
N307 C306 1.279 . S
C308 C310 1.353 . S
C308 N311 1.314 . S
C308 H314 0.930 . S
C309 N311 1.279 . S
C309 C312 1.358 . S
C309 H315 0.930 . S
C310 C308 1.353 . S
C310 C313 1.348 . S
C310 H348 0.929 . S
N311 Li266 1.990 . S
N311 C308 1.314 . S
N311 C309 1.279 . S
C312 C309 1.358 . S
C312 C313 1.356 . S
C312 H349 0.930 . S
C313 C310 1.348 . S
C313 C312 1.356 . S
H314 C308 0.930 . S
H315 C309 0.930 . S
C316 N317 1.314 . S
C316 C318 1.353 . S
C316 H322 0.930 . S
N317 Li267 1.990 . S
N317 C316 1.314 . S
N317 C320 1.279 . S
C318 C316 1.353 . S
C318 C321 1.348 . S
C318 H350 0.929 . S
C319 C320 1.358 . S
C319 C321 1.356 . S
C319 H351 0.930 . S
C320 N317 1.279 . S
C320 C319 1.358 . S
C320 H323 0.930 . S
C321 C318 1.348 . S
C321 C319 1.356 . S
H322 C316 0.930 . S
H323 C320 0.930 . S
O324 Li264 1.956 . S
O324 Li265 1.970 . S
O324 Li266 1.961 . S
O324 C268 1.325 . S
O325 Li264 1.970 . S
O325 Li265 1.956 . S
O325 Li267 1.961 . S
O325 C274 1.325 . S
O326 Li264 1.961 . S
O326 Li266 1.956 . S
O326 Li267 1.970 . S
O326 C296 1.325 . S
O327 Li265 1.961 . S
O327 Li266 1.970 . S
O327 Li267 1.956 . S
O327 C302 1.325 . S
H328 C270 0.929 . S
H329 C271 0.930 . S
H330 C272 0.930 . S
H331 C273 0.930 . S
H332 C275 0.930 . S
H333 C277 0.929 . S
H334 C278 0.930 . S
H335 C279 0.930 . S
H336 C282 0.930 . S
H337 C285 0.929 . S
H338 C290 0.929 . S
H339 C291 0.930 . S
H340 C298 0.929 . S
H341 C299 0.930 . S
H342 C300 0.930 . S
H343 C301 0.930 . S
H344 C303 0.929 . S
H345 C304 0.930 . S
H346 C305 0.930 . S
H347 C306 0.930 . S
H348 C310 0.929 . S
H349 C312 0.930 . S
H350 C318 0.929 . S
H351 C319 0.930 . S
Li352 N369 1.990 . S
Li352 O412 1.956 . S
Li352 O413 1.970 . S
Li352 O414 1.961 . S
Li353 N377 1.990 . S
Li353 O412 1.970 . S
Li353 O413 1.956 . S
Li353 O415 1.961 . S
Li354 N399 1.990 . S
Li354 O412 1.961 . S
Li354 O414 1.956 . S
Li354 O415 1.970 . S
Li355 N405 1.990 . S
Li355 O413 1.961 . S
Li355 O414 1.970 . S
Li355 O415 1.956 . S
C356 C358 1.348 . S
C356 C359 1.356 . S
C356 O412 1.325 . S
N357 C360 1.314 . S
N357 C361 1.279 . S
C358 C356 1.348 . S
C358 C360 1.353 . S
C358 H416 0.929 . S
C359 C356 1.356 . S
C359 C361 1.358 . S
C359 H417 0.930 . S
C360 N357 1.314 . S
C360 C358 1.353 . S
C360 H418 0.930 . S
C361 N357 1.279 . S
C361 C359 1.358 . S
C361 H419 0.930 . S
C362 C365 1.348 . S
C362 C366 1.356 . S
C362 O413 1.325 . S
C363 N364 1.279 . S
C363 C366 1.358 . S
C363 H420 0.930 . S
N364 C363 1.279 . S
N364 C367 1.314 . S
C365 C362 1.348 . S
C365 C367 1.353 . S
C365 H421 0.929 . S
C366 C362 1.356 . S
C366 C363 1.358 . S
C366 H422 0.930 . S
C367 N364 1.314 . S
C367 C365 1.353 . S
C367 H423 0.951 . S
C368 N369 1.314 . S
C368 C373 1.353 . S
C368 H374 0.930 . S
N369 Li352 1.990 . S
N369 C368 1.314 . S
N369 C371 1.279 . S
C370 C371 1.358 . S
C370 C372 1.356 . S
C370 H424 0.930 . S
C371 N369 1.279 . S
C371 C370 1.358 . S
C371 H375 0.930 . S
C372 C370 1.356 . S
C372 C373 1.348 . S
C373 C368 1.353 . S
C373 C372 1.348 . S
C373 H425 0.929 . S
H374 C368 0.930 . S
H375 C371 0.930 . S
C376 N377 1.314 . S
C376 C378 1.353 . S
C376 H382 0.930 . S
N377 Li353 1.990 . S
N377 C376 1.314 . S
N377 C380 1.279 . S
C378 C376 1.353 . S
C378 C381 1.348 . S
C378 H426 0.929 . S
C379 C380 1.358 . S
C379 C381 1.356 . S
C379 H427 0.930 . S
C380 N377 1.279 . S
C380 C379 1.358 . S
C380 H383 0.930 . S
C381 C378 1.348 . S
C381 C379 1.356 . S
H382 C376 0.930 . S
H383 C380 0.930 . S
C384 C386 1.348 . S
C384 C387 1.356 . S
C384 O414 1.325 . S
N385 C388 1.314 . S
N385 C389 1.279 . S
C386 C384 1.348 . S
C386 C388 1.353 . S
C386 H428 0.929 . S
C387 C384 1.356 . S
C387 C389 1.358 . S
C387 H429 0.930 . S
C388 N385 1.314 . S
C388 C386 1.353 . S
C388 H430 0.930 . S
C389 N385 1.279 . S
C389 C387 1.358 . S
C389 H431 0.930 . S
C390 C391 1.348 . S
C390 C392 1.356 . S
C390 O415 1.325 . S
C391 C390 1.348 . S
C391 C393 1.353 . S
C391 H432 0.929 . S
C392 C390 1.356 . S
C392 C394 1.358 . S
C392 H433 0.930 . S
C393 C391 1.353 . S
C393 N395 1.314 . S
C393 H434 0.930 . S
C394 C392 1.358 . S
C394 N395 1.279 . S
C394 H435 0.930 . S
N395 C393 1.314 . S
N395 C394 1.279 . S
C396 C398 1.353 . S
C396 N399 1.314 . S
C396 H402 0.930 . S
C397 N399 1.279 . S
C397 C400 1.358 . S
C397 H403 0.930 . S
C398 C396 1.353 . S
C398 C401 1.348 . S
C398 H436 0.929 . S
N399 Li354 1.990 . S
N399 C396 1.314 . S
N399 C397 1.279 . S
C400 C397 1.358 . S
C400 C401 1.356 . S
C400 H437 0.930 . S
C401 C398 1.348 . S
C401 C400 1.356 . S
H402 C396 0.930 . S
H403 C397 0.930 . S
C404 N405 1.314 . S
C404 C406 1.353 . S
C404 H410 0.930 . S
N405 Li355 1.990 . S
N405 C404 1.314 . S
N405 C408 1.279 . S
C406 C404 1.353 . S
C406 C409 1.348 . S
C406 H438 0.929 . S
C407 C408 1.358 . S
C407 C409 1.356 . S
C407 H439 0.930 . S
C408 N405 1.279 . S
C408 C407 1.358 . S
C408 H411 0.930 . S
C409 C406 1.348 . S
C409 C407 1.356 . S
H410 C404 0.930 . S
H411 C408 0.930 . S
O412 Li352 1.956 . S
O412 Li353 1.970 . S
O412 Li354 1.961 . S
O412 C356 1.325 . S
O413 Li352 1.970 . S
O413 Li353 1.956 . S
O413 Li355 1.961 . S
O413 C362 1.325 . S
O414 Li352 1.961 . S
O414 Li354 1.956 . S
O414 Li355 1.970 . S
O414 C384 1.325 . S
O415 Li353 1.961 . S
O415 Li354 1.970 . S
O415 Li355 1.956 . S
O415 C390 1.325 . S
H416 C358 0.929 . S
H417 C359 0.930 . S
H418 C360 0.930 . S
H419 C361 0.930 . S
H420 C363 0.930 . S
H421 C365 0.929 . S
H422 C366 0.930 . S
H423 C367 0.951 . S
H424 C370 0.930 . S
H425 C373 0.929 . S
H426 C378 0.929 . S
H427 C379 0.930 . S
H428 C386 0.929 . S
H429 C387 0.930 . S
H430 C388 0.930 . S
H431 C389 0.930 . S
H432 C391 0.929 . S
H433 C392 0.930 . S
H434 C393 0.930 . S
H435 C394 0.930 . S
H436 C398 0.929 . S
H437 C400 0.930 . S
H438 C406 0.929 . S
H439 C407 0.930 . S
Li440 N457 1.990 . S
Li440 O500 1.956 . S
Li440 O501 1.970 . S
Li440 O502 1.961 . S
Li441 N465 1.990 . S
Li441 O500 1.970 . S
Li441 O501 1.956 . S
Li441 O503 1.961 . S
Li442 N487 1.990 . S
Li442 O500 1.961 . S
Li442 O502 1.956 . S
Li442 O503 1.970 . S
Li443 N493 1.990 . S
Li443 O501 1.961 . S
Li443 O502 1.970 . S
Li443 O503 1.956 . S
C444 C446 1.348 . S
C444 C447 1.356 . S
C444 O500 1.325 . S
N445 C448 1.314 . S
N445 C449 1.279 . S
C446 C444 1.348 . S
C446 C448 1.353 . S
C446 H504 0.929 . S
C447 C444 1.356 . S
C447 C449 1.358 . S
C447 H505 0.930 . S
C448 N445 1.314 . S
C448 C446 1.353 . S
C448 H506 0.930 . S
C449 N445 1.279 . S
C449 C447 1.358 . S
C449 H507 0.930 . S
C450 C453 1.348 . S
C450 C454 1.356 . S
C450 O501 1.325 . S
C451 N452 1.279 . S
C451 C454 1.358 . S
C451 H508 0.930 . S
N452 C451 1.279 . S
N452 C455 1.314 . S
C453 C450 1.348 . S
C453 C455 1.353 . S
C453 H509 0.929 . S
C454 C450 1.356 . S
C454 C451 1.358 . S
C454 H510 0.930 . S
C455 N452 1.314 . S
C455 C453 1.353 . S
C455 H511 0.930 . S
C456 N457 1.314 . S
C456 C461 1.353 . S
C456 H462 0.930 . S
N457 Li440 1.990 . S
N457 C456 1.314 . S
N457 C459 1.279 . S
C458 C459 1.358 . S
C458 C460 1.356 . S
C458 H512 0.930 . S
C459 N457 1.279 . S
C459 C458 1.358 . S
C459 H463 0.930 . S
C460 C458 1.356 . S
C460 C461 1.348 . S
C461 C456 1.353 . S
C461 C460 1.348 . S
C461 H513 0.929 . S
H462 C456 0.930 . S
H463 C459 0.930 . S
C464 N465 1.314 . S
C464 C466 1.353 . S
C464 H470 0.930 . S
N465 Li441 1.990 . S
N465 C464 1.314 . S
N465 C468 1.279 . S
C466 C464 1.353 . S
C466 C469 1.348 . S
C466 H514 0.929 . S
C467 C468 1.358 . S
C467 C469 1.356 . S
C467 H515 0.930 . S
C468 N465 1.279 . S
C468 C467 1.358 . S
C468 H471 0.930 . S
C469 C466 1.348 . S
C469 C467 1.356 . S
H470 C464 0.930 . S
H471 C468 0.930 . S
C472 C474 1.348 . S
C472 C475 1.356 . S
C472 O502 1.325 . S
N473 C476 1.314 . S
N473 C477 1.279 . S
C474 C472 1.348 . S
C474 C476 1.353 . S
C474 H516 0.929 . S
C475 C472 1.356 . S
C475 C477 1.358 . S
C475 H517 0.930 . S
C476 N473 1.314 . S
C476 C474 1.353 . S
C476 H518 0.930 . S
C477 N473 1.279 . S
C477 C475 1.358 . S
C477 H519 0.930 . S
C478 C479 1.348 . S
C478 C480 1.356 . S
C478 O503 1.325 . S
C479 C478 1.348 . S
C479 C481 1.353 . S
C479 H520 0.929 . S
C480 C478 1.356 . S
C480 C482 1.358 . S
C480 H521 0.930 . S
C481 C479 1.353 . S
C481 N483 1.314 . S
C481 H522 0.930 . S
C482 C480 1.358 . S
C482 N483 1.279 . S
C482 H523 0.930 . S
N483 C481 1.314 . S
N483 C482 1.279 . S
C484 C486 1.353 . S
C484 N487 1.314 . S
C484 H490 0.930 . S
C485 N487 1.279 . S
C485 C488 1.358 . S
C485 H491 0.930 . S
C486 C484 1.353 . S
C486 C489 1.348 . S
C486 H524 0.929 . S
N487 Li442 1.990 . S
N487 C484 1.314 . S
N487 C485 1.279 . S
C488 C485 1.358 . S
C488 C489 1.356 . S
C488 H525 0.930 . S
C489 C486 1.348 . S
C489 C488 1.356 . S
H490 C484 0.930 . S
H491 C485 0.930 . S
C492 N493 1.314 . S
C492 C494 1.353 . S
C492 H498 0.930 . S
N493 Li443 1.990 . S
N493 C492 1.314 . S
N493 C496 1.279 . S
C494 C492 1.353 . S
C494 C497 1.348 . S
C494 H526 0.929 . S
C495 C496 1.358 . S
C495 C497 1.356 . S
C495 H527 0.930 . S
C496 N493 1.279 . S
C496 C495 1.358 . S
C496 H499 0.930 . S
C497 C494 1.348 . S
C497 C495 1.356 . S
H498 C492 0.930 . S
H499 C496 0.930 . S
O500 Li440 1.956 . S
O500 Li441 1.970 . S
O500 Li442 1.961 . S
O500 C444 1.325 . S
O501 Li440 1.970 . S
O501 Li441 1.956 . S
O501 Li443 1.961 . S
O501 C450 1.325 . S
O502 Li440 1.961 . S
O502 Li442 1.956 . S
O502 Li443 1.970 . S
O502 C472 1.325 . S
O503 Li441 1.961 . S
O503 Li442 1.970 . S
O503 Li443 1.956 . S
O503 C478 1.325 . S
H504 C446 0.929 . S
H505 C447 0.930 . S
H506 C448 0.930 . S
H507 C449 0.930 . S
H508 C451 0.930 . S
H509 C453 0.929 . S
H510 C454 0.930 . S
H511 C455 0.930 . S
H512 C458 0.930 . S
H513 C461 0.929 . S
H514 C466 0.929 . S
H515 C467 0.930 . S
H516 C474 0.929 . S
H517 C475 0.930 . S
H518 C476 0.930 . S
H519 C477 0.930 . S
H520 C479 0.929 . S
H521 C480 0.930 . S
H522 C481 0.930 . S
H523 C482 0.930 . S
H524 C486 0.929 . S
H525 C488 0.930 . S
H526 C494 0.929 . S
H527 C495 0.930 . S
Li528 N545 1.990 . S
Li528 O588 1.956 . S
Li528 O589 1.970 . S
Li528 O590 1.961 . S
Li529 N553 1.990 . S
Li529 O588 1.970 . S
Li529 O589 1.956 . S
Li529 O591 1.961 . S
Li530 N575 1.990 . S
Li530 O588 1.961 . S
Li530 O590 1.956 . S
Li530 O591 1.970 . S
Li531 N581 1.990 . S
Li531 O589 1.961 . S
Li531 O590 1.970 . S
Li531 O591 1.956 . S
C532 C534 1.348 . S
C532 C535 1.356 . S
C532 O588 1.325 . S
N533 C536 1.314 . S
N533 C537 1.279 . S
C534 C532 1.348 . S
C534 C536 1.353 . S
C534 H592 0.929 . S
C535 C532 1.356 . S
C535 C537 1.358 . S
C535 H593 0.930 . S
C536 N533 1.314 . S
C536 C534 1.353 . S
C536 H594 0.930 . S
C537 N533 1.279 . S
C537 C535 1.358 . S
C537 H595 0.930 . S
C538 C541 1.348 . S
C538 C542 1.356 . S
C538 O589 1.325 . S
C539 N540 1.279 . S
C539 C542 1.358 . S
C539 H596 0.930 . S
N540 C539 1.279 . S
N540 C543 1.314 . S
C541 C538 1.348 . S
C541 C543 1.353 . S
C541 H597 0.929 . S
C542 C538 1.356 . S
C542 C539 1.358 . S
C542 H598 0.930 . S
C543 N540 1.314 . S
C543 C541 1.353 . S
C543 H599 0.930 . S
C544 N545 1.314 . S
C544 C549 1.353 . S
C544 H550 0.930 . S
N545 Li528 1.990 . S
N545 C544 1.314 . S
N545 C547 1.279 . S
C546 C547 1.358 . S
C546 C548 1.356 . S
C546 H600 0.930 . S
C547 N545 1.279 . S
C547 C546 1.358 . S
C547 H551 0.930 . S
C548 C546 1.356 . S
C548 C549 1.348 . S
C549 C544 1.353 . S
C549 C548 1.348 . S
C549 H601 0.929 . S
H550 C544 0.930 . S
H551 C547 0.930 . S
C552 N553 1.314 . S
C552 C554 1.353 . S
C552 H558 0.930 . S
N553 Li529 1.990 . S
N553 C552 1.314 . S
N553 C556 1.279 . S
C554 C552 1.353 . S
C554 C557 1.348 . S
C554 H602 0.929 . S
C555 C556 1.358 . S
C555 C557 1.356 . S
C555 H603 0.930 . S
C556 N553 1.279 . S
C556 C555 1.358 . S
C556 H559 0.930 . S
C557 C554 1.348 . S
C557 C555 1.356 . S
H558 C552 0.930 . S
H559 C556 0.930 . S
C560 C562 1.348 . S
C560 C563 1.356 . S
C560 O590 1.325 . S
N561 C564 1.314 . S
N561 C565 1.279 . S
C562 C560 1.348 . S
C562 C564 1.353 . S
C562 H604 0.929 . S
C563 C560 1.356 . S
C563 C565 1.358 . S
C563 H605 0.930 . S
C564 N561 1.314 . S
C564 C562 1.353 . S
C564 H606 0.930 . S
C565 N561 1.279 . S
C565 C563 1.358 . S
C565 H607 0.930 . S
C566 C567 1.348 . S
C566 C568 1.356 . S
C566 O591 1.325 . S
C567 C566 1.348 . S
C567 C569 1.353 . S
C567 H608 0.929 . S
C568 C566 1.356 . S
C568 C570 1.358 . S
C568 H609 0.930 . S
C569 C567 1.353 . S
C569 N571 1.314 . S
C569 H610 0.930 . S
C570 C568 1.358 . S
C570 N571 1.279 . S
C570 H611 0.930 . S
N571 C569 1.314 . S
N571 C570 1.279 . S
C572 C574 1.353 . S
C572 N575 1.314 . S
C572 H578 0.930 . S
C573 N575 1.279 . S
C573 C576 1.358 . S
C573 H579 0.930 . S
C574 C572 1.353 . S
C574 C577 1.348 . S
C574 H612 0.929 . S
N575 Li530 1.990 . S
N575 C572 1.314 . S
N575 C573 1.279 . S
C576 C573 1.358 . S
C576 C577 1.356 . S
C576 H613 0.930 . S
C577 C574 1.348 . S
C577 C576 1.356 . S
H578 C572 0.930 . S
H579 C573 0.930 . S
C580 N581 1.314 . S
C580 C582 1.353 . S
C580 H586 0.930 . S
N581 Li531 1.990 . S
N581 C580 1.314 . S
N581 C584 1.279 . S
C582 C580 1.353 . S
C582 C585 1.348 . S
C582 H614 0.929 . S
C583 C584 1.358 . S
C583 C585 1.356 . S
C583 H615 0.930 . S
C584 N581 1.279 . S
C584 C583 1.358 . S
C584 H587 0.930 . S
C585 C582 1.348 . S
C585 C583 1.356 . S
H586 C580 0.930 . S
H587 C584 0.930 . S
O588 Li528 1.956 . S
O588 Li529 1.970 . S
O588 Li530 1.961 . S
O588 C532 1.325 . S
O589 Li528 1.970 . S
O589 Li529 1.956 . S
O589 Li531 1.961 . S
O589 C538 1.325 . S
O590 Li528 1.961 . S
O590 Li530 1.956 . S
O590 Li531 1.970 . S
O590 C560 1.325 . S
O591 Li529 1.961 . S
O591 Li530 1.970 . S
O591 Li531 1.956 . S
O591 C566 1.325 . S
H592 C534 0.929 . S
H593 C535 0.930 . S
H594 C536 0.930 . S
H595 C537 0.930 . S
H596 C539 0.930 . S
H597 C541 0.929 . S
H598 C542 0.930 . S
H599 C543 0.930 . S
H600 C546 0.930 . S
H601 C549 0.929 . S
H602 C554 0.929 . S
H603 C555 0.930 . S
H604 C562 0.929 . S
H605 C563 0.930 . S
H606 C564 0.930 . S
H607 C565 0.930 . S
H608 C567 0.929 . S
H609 C568 0.930 . S
H610 C569 0.930 . S
H611 C570 0.930 . S
H612 C574 0.929 . S
H613 C576 0.930 . S
H614 C582 0.929 . S
H615 C583 0.930 . S
Li616 N633 1.990 . S
Li616 O676 1.956 . S
Li616 O677 1.970 . S
Li616 O678 1.961 . S
Li617 N641 1.990 . S
Li617 O676 1.970 . S
Li617 O677 1.956 . S
Li617 O679 1.961 . S
Li618 N663 1.990 . S
Li618 O676 1.961 . S
Li618 O678 1.956 . S
Li618 O679 1.970 . S
Li619 N669 1.990 . S
Li619 O677 1.961 . S
Li619 O678 1.970 . S
Li619 O679 1.956 . S
C620 C622 1.348 . S
C620 C623 1.356 . S
C620 O676 1.325 . S
N621 C624 1.314 . S
N621 C625 1.279 . S
C622 C620 1.348 . S
C622 C624 1.353 . S
C622 H680 0.929 . S
C623 C620 1.356 . S
C623 C625 1.358 . S
C623 H681 0.930 . S
C624 N621 1.314 . S
C624 C622 1.353 . S
C624 H682 0.930 . S
C625 N621 1.279 . S
C625 C623 1.358 . S
C625 H683 0.930 . S
C626 C629 1.348 . S
C626 C630 1.356 . S
C626 O677 1.325 . S
C627 N628 1.279 . S
C627 C630 1.358 . S
C627 H684 0.930 . S
N628 C627 1.279 . S
N628 C631 1.314 . S
C629 C626 1.348 . S
C629 C631 1.353 . S
C629 H685 0.929 . S
C630 C626 1.356 . S
C630 C627 1.358 . S
C630 H686 0.930 . S
C631 N628 1.314 . S
C631 C629 1.353 . S
C631 H687 0.952 . S
C632 N633 1.314 . S
C632 C637 1.353 . S
C632 H638 0.930 . S
N633 Li616 1.990 . S
N633 C632 1.314 . S
N633 C635 1.279 . S
C634 C635 1.358 . S
C634 C636 1.356 . S
C634 H688 0.930 . S
C635 N633 1.279 . S
C635 C634 1.358 . S
C635 H639 0.930 . S
C636 C634 1.356 . S
C636 C637 1.348 . S
C637 C632 1.353 . S
C637 C636 1.348 . S
C637 H689 0.929 . S
H638 C632 0.930 . S
H639 C635 0.930 . S
C640 N641 1.314 . S
C640 C642 1.353 . S
C640 H646 0.930 . S
N641 Li617 1.990 . S
N641 C640 1.314 . S
N641 C644 1.279 . S
C642 C640 1.353 . S
C642 C645 1.348 . S
C642 H690 0.929 . S
C643 C644 1.358 . S
C643 C645 1.356 . S
C643 H691 0.930 . S
C644 N641 1.279 . S
C644 C643 1.358 . S
C644 H647 0.930 . S
C645 C642 1.348 . S
C645 C643 1.356 . S
H646 C640 0.930 . S
H647 C644 0.930 . S
C648 C650 1.348 . S
C648 C651 1.356 . S
C648 O678 1.325 . S
N649 C652 1.314 . S
N649 C653 1.279 . S
C650 C648 1.348 . S
C650 C652 1.353 . S
C650 H692 0.929 . S
C651 C648 1.356 . S
C651 C653 1.358 . S
C651 H693 0.930 . S
C652 N649 1.314 . S
C652 C650 1.353 . S
C652 H694 0.930 . S
C653 N649 1.279 . S
C653 C651 1.358 . S
C653 H695 0.930 . S
C654 C655 1.348 . S
C654 C656 1.356 . S
C654 O679 1.325 . S
C655 C654 1.348 . S
C655 C657 1.353 . S
C655 H696 0.929 . S
C656 C654 1.356 . S
C656 C658 1.358 . S
C656 H697 0.930 . S
C657 C655 1.353 . S
C657 N659 1.314 . S
C657 H698 0.930 . S
C658 C656 1.358 . S
C658 N659 1.279 . S
C658 H699 0.930 . S
N659 C657 1.314 . S
N659 C658 1.279 . S
C660 C662 1.353 . S
C660 N663 1.314 . S
C660 H666 0.930 . S
C661 N663 1.279 . S
C661 C664 1.358 . S
C661 H667 0.930 . S
C662 C660 1.353 . S
C662 C665 1.348 . S
C662 H700 0.929 . S
N663 Li618 1.990 . S
N663 C660 1.314 . S
N663 C661 1.279 . S
C664 C661 1.358 . S
C664 C665 1.356 . S
C664 H701 0.930 . S
C665 C662 1.348 . S
C665 C664 1.356 . S
H666 C660 0.930 . S
H667 C661 0.930 . S
C668 N669 1.314 . S
C668 C670 1.353 . S
C668 H674 0.930 . S
N669 Li619 1.990 . S
N669 C668 1.314 . S
N669 C672 1.279 . S
C670 C668 1.353 . S
C670 C673 1.348 . S
C670 H702 0.929 . S
C671 C672 1.358 . S
C671 C673 1.356 . S
C671 H703 0.930 . S
C672 N669 1.279 . S
C672 C671 1.358 . S
C672 H675 0.930 . S
C673 C670 1.348 . S
C673 C671 1.356 . S
H674 C668 0.930 . S
H675 C672 0.930 . S
O676 Li616 1.956 . S
O676 Li617 1.970 . S
O676 Li618 1.961 . S
O676 C620 1.325 . S
O677 Li616 1.970 . S
O677 Li617 1.956 . S
O677 Li619 1.961 . S
O677 C626 1.325 . S
O678 Li616 1.961 . S
O678 Li618 1.956 . S
O678 Li619 1.970 . S
O678 C648 1.325 . S
O679 Li617 1.961 . S
O679 Li618 1.970 . S
O679 Li619 1.956 . S
O679 C654 1.325 . S
H680 C622 0.929 . S
H681 C623 0.930 . S
H682 C624 0.930 . S
H683 C625 0.930 . S
H684 C627 0.930 . S
H685 C629 0.929 . S
H686 C630 0.930 . S
H687 C631 0.952 . S
H688 C634 0.930 . S
H689 C637 0.929 . S
H690 C642 0.929 . S
H691 C643 0.930 . S
H692 C650 0.929 . S
H693 C651 0.930 . S
H694 C652 0.930 . S
H695 C653 0.930 . S
H696 C655 0.929 . S
H697 C656 0.930 . S
H698 C657 0.930 . S
H699 C658 0.930 . S
H700 C662 0.929 . S
H701 C664 0.930 . S
H702 C670 0.929 . S
H703 C671 0.930 . S
Li704 N721 1.990 . S
Li704 O764 1.956 . S
Li704 O765 1.970 . S
Li704 O766 1.961 . S
Li705 N729 1.990 . S
Li705 O764 1.970 . S
Li705 O765 1.956 . S
Li705 O767 1.961 . S
Li706 N751 1.990 . S
Li706 O764 1.961 . S
Li706 O766 1.956 . S
Li706 O767 1.970 . S
Li707 N757 1.990 . S
Li707 O765 1.961 . S
Li707 O766 1.970 . S
Li707 O767 1.956 . S
C708 C710 1.348 . S
C708 C711 1.356 . S
C708 O764 1.325 . S
N709 C712 1.314 . S
N709 C713 1.279 . S
C710 C708 1.348 . S
C710 C712 1.353 . S
C710 H768 0.929 . S
C711 C708 1.356 . S
C711 C713 1.358 . S
C711 H769 0.930 . S
C712 N709 1.314 . S
C712 C710 1.353 . S
C712 H770 0.930 . S
C713 N709 1.279 . S
C713 C711 1.358 . S
C713 H771 0.930 . S
C714 C717 1.348 . S
C714 C718 1.356 . S
C714 O765 1.325 . S
C715 N716 1.279 . S
C715 C718 1.358 . S
C715 H772 0.930 . S
N716 C715 1.279 . S
N716 C719 1.314 . S
C717 C714 1.348 . S
C717 C719 1.353 . S
C717 H773 0.929 . S
C718 C714 1.356 . S
C718 C715 1.358 . S
C718 H774 0.930 . S
C719 N716 1.314 . S
C719 C717 1.353 . S
C719 H775 0.930 . S
C720 N721 1.314 . S
C720 C725 1.353 . S
C720 H726 0.930 . S
N721 Li704 1.990 . S
N721 C720 1.314 . S
N721 C723 1.279 . S
C722 C723 1.358 . S
C722 C724 1.356 . S
C722 H776 0.930 . S
C723 N721 1.279 . S
C723 C722 1.358 . S
C723 H727 0.930 . S
C724 C722 1.356 . S
C724 C725 1.348 . S
C725 C720 1.353 . S
C725 C724 1.348 . S
C725 H777 0.929 . S
H726 C720 0.930 . S
H727 C723 0.930 . S
C728 N729 1.314 . S
C728 C730 1.353 . S
C728 H734 0.930 . S
N729 Li705 1.990 . S
N729 C728 1.314 . S
N729 C732 1.279 . S
C730 C728 1.353 . S
C730 C733 1.348 . S
C730 H778 0.929 . S
C731 C732 1.358 . S
C731 C733 1.356 . S
C731 H779 0.930 . S
C732 N729 1.279 . S
C732 C731 1.358 . S
C732 H735 0.930 . S
C733 C730 1.348 . S
C733 C731 1.356 . S
H734 C728 0.930 . S
H735 C732 0.930 . S
C736 C738 1.348 . S
C736 C739 1.356 . S
C736 O766 1.325 . S
N737 C740 1.314 . S
N737 C741 1.279 . S
C738 C736 1.348 . S
C738 C740 1.353 . S
C738 H780 0.929 . S
C739 C736 1.356 . S
C739 C741 1.358 . S
C739 H781 0.930 . S
C740 N737 1.314 . S
C740 C738 1.353 . S
C740 H782 0.930 . S
C741 N737 1.279 . S
C741 C739 1.358 . S
C741 H783 0.930 . S
C742 C743 1.348 . S
C742 C744 1.356 . S
C742 O767 1.325 . S
C743 C742 1.348 . S
C743 C745 1.353 . S
C743 H784 0.929 . S
C744 C742 1.356 . S
C744 C746 1.358 . S
C744 H785 0.930 . S
C745 C743 1.353 . S
C745 N747 1.314 . S
C745 H786 0.930 . S
C746 C744 1.358 . S
C746 N747 1.279 . S
C746 H787 0.930 . S
N747 C745 1.314 . S
N747 C746 1.279 . S
C748 C750 1.353 . S
C748 N751 1.314 . S
C748 H754 0.930 . S
C749 N751 1.279 . S
C749 C752 1.358 . S
C749 H755 0.930 . S
C750 C748 1.353 . S
C750 C753 1.348 . S
C750 H788 0.929 . S
N751 Li706 1.990 . S
N751 C748 1.314 . S
N751 C749 1.279 . S
C752 C749 1.358 . S
C752 C753 1.356 . S
C752 H789 0.930 . S
C753 C750 1.348 . S
C753 C752 1.356 . S
H754 C748 0.930 . S
H755 C749 0.930 . S
C756 N757 1.314 . S
C756 C758 1.353 . S
C756 H762 0.930 . S
N757 Li707 1.990 . S
N757 C756 1.314 . S
N757 C760 1.279 . S
C758 C756 1.353 . S
C758 C761 1.348 . S
C758 H790 0.929 . S
C759 C760 1.358 . S
C759 C761 1.356 . S
C759 H791 0.930 . S
C760 N757 1.279 . S
C760 C759 1.358 . S
C760 H763 0.930 . S
C761 C758 1.348 . S
C761 C759 1.356 . S
H762 C756 0.930 . S
H763 C760 0.930 . S
O764 Li704 1.956 . S
O764 Li705 1.970 . S
O764 Li706 1.961 . S
O764 C708 1.325 . S
O765 Li704 1.970 . S
O765 Li705 1.956 . S
O765 Li707 1.961 . S
O765 C714 1.325 . S
O766 Li704 1.961 . S
O766 Li706 1.956 . S
O766 Li707 1.970 . S
O766 C736 1.325 . S
O767 Li705 1.961 . S
O767 Li706 1.970 . S
O767 Li707 1.956 . S
O767 C742 1.325 . S
H768 C710 0.929 . S
H769 C711 0.930 . S
H770 C712 0.930 . S
H771 C713 0.930 . S
H772 C715 0.930 . S
H773 C717 0.929 . S
H774 C718 0.930 . S
H775 C719 0.930 . S
H776 C722 0.930 . S
H777 C725 0.929 . S
H778 C730 0.929 . S
H779 C731 0.930 . S
H780 C738 0.929 . S
H781 C739 0.930 . S
H782 C740 0.930 . S
H783 C741 0.930 . S
H784 C743 0.929 . S
H785 C744 0.930 . S
H786 C745 0.930 . S
H787 C746 0.930 . S
H788 C750 0.929 . S
H789 C752 0.930 . S
H790 C758 0.929 . S
H791 C759 0.930 . S
Li792 N809 1.990 . S
Li792 O852 1.956 . S
Li792 O853 1.970 . S
Li792 O854 1.961 . S
Li793 N817 1.990 . S
Li793 O852 1.970 . S
Li793 O853 1.956 . S
Li793 O855 1.961 . S
Li794 N839 1.990 . S
Li794 O852 1.961 . S
Li794 O854 1.956 . S
Li794 O855 1.970 . S
Li795 N845 1.990 . S
Li795 O853 1.961 . S
Li795 O854 1.970 . S
Li795 O855 1.956 . S
C796 C798 1.348 . S
C796 C799 1.356 . S
C796 O852 1.325 . S
N797 C800 1.314 . S
N797 C801 1.279 . S
C798 C796 1.348 . S
C798 C800 1.353 . S
C798 H856 0.929 . S
C799 C796 1.356 . S
C799 C801 1.358 . S
C799 H857 0.930 . S
C800 N797 1.314 . S
C800 C798 1.353 . S
C800 H858 0.930 . S
C801 N797 1.279 . S
C801 C799 1.358 . S
C801 H859 0.930 . S
C802 C805 1.348 . S
C802 C806 1.356 . S
C802 O853 1.325 . S
C803 N804 1.279 . S
C803 C806 1.358 . S
C803 H860 0.930 . S
N804 C803 1.279 . S
N804 C807 1.314 . S
C805 C802 1.348 . S
C805 C807 1.353 . S
C805 H861 0.929 . S
C806 C802 1.356 . S
C806 C803 1.358 . S
C806 H862 0.930 . S
C807 N804 1.314 . S
C807 C805 1.353 . S
C807 H863 0.950 . S
C808 N809 1.314 . S
C808 C813 1.353 . S
C808 H814 0.930 . S
N809 Li792 1.990 . S
N809 C808 1.314 . S
N809 C811 1.279 . S
C810 C811 1.358 . S
C810 C812 1.356 . S
C810 H864 0.930 . S
C811 N809 1.279 . S
C811 C810 1.358 . S
C811 H815 0.930 . S
C812 C810 1.356 . S
C812 C813 1.348 . S
C813 C808 1.353 . S
C813 C812 1.348 . S
C813 H865 0.929 . S
H814 C808 0.930 . S
H815 C811 0.930 . S
C816 N817 1.314 . S
C816 C818 1.353 . S
C816 H822 0.930 . S
N817 Li793 1.990 . S
N817 C816 1.314 . S
N817 C820 1.279 . S
C818 C816 1.353 . S
C818 C821 1.348 . S
C818 H866 0.929 . S
C819 C820 1.358 . S
C819 C821 1.356 . S
C819 H867 0.930 . S
C820 N817 1.279 . S
C820 C819 1.358 . S
C820 H823 0.930 . S
C821 C818 1.348 . S
C821 C819 1.356 . S
H822 C816 0.930 . S
H823 C820 0.930 . S
C824 C826 1.348 . S
C824 C827 1.356 . S
C824 O854 1.325 . S
N825 C828 1.314 . S
N825 C829 1.279 . S
C826 C824 1.348 . S
C826 C828 1.353 . S
C826 H868 0.929 . S
C827 C824 1.356 . S
C827 C829 1.358 . S
C827 H869 0.930 . S
C828 N825 1.314 . S
C828 C826 1.353 . S
C828 H870 0.930 . S
C829 N825 1.279 . S
C829 C827 1.358 . S
C829 H871 0.930 . S
C830 C831 1.348 . S
C830 C832 1.356 . S
C830 O855 1.325 . S
C831 C830 1.348 . S
C831 C833 1.353 . S
C831 H872 0.929 . S
C832 C830 1.356 . S
C832 C834 1.358 . S
C832 H873 0.930 . S
C833 C831 1.353 . S
C833 N835 1.314 . S
C833 H874 0.930 . S
C834 C832 1.358 . S
C834 N835 1.279 . S
C834 H875 0.930 . S
N835 C833 1.314 . S
N835 C834 1.279 . S
C836 C838 1.353 . S
C836 N839 1.314 . S
C836 H842 0.930 . S
C837 N839 1.279 . S
C837 C840 1.358 . S
C837 H843 0.930 . S
C838 C836 1.353 . S
C838 C841 1.348 . S
C838 H876 0.929 . S
N839 Li794 1.990 . S
N839 C836 1.314 . S
N839 C837 1.279 . S
C840 C837 1.358 . S
C840 C841 1.356 . S
C840 H877 0.930 . S
C841 C838 1.348 . S
C841 C840 1.356 . S
H842 C836 0.930 . S
H843 C837 0.930 . S
C844 N845 1.314 . S
C844 C846 1.353 . S
C844 H850 0.930 . S
N845 Li795 1.990 . S
N845 C844 1.314 . S
N845 C848 1.279 . S
C846 C844 1.353 . S
C846 C849 1.348 . S
C846 H878 0.929 . S
C847 C848 1.358 . S
C847 C849 1.356 . S
C847 H879 0.930 . S
C848 N845 1.279 . S
C848 C847 1.358 . S
C848 H851 0.930 . S
C849 C846 1.348 . S
C849 C847 1.356 . S
H850 C844 0.930 . S
H851 C848 0.930 . S
O852 Li792 1.956 . S
O852 Li793 1.970 . S
O852 Li794 1.961 . S
O852 C796 1.325 . S
O853 Li792 1.970 . S
O853 Li793 1.956 . S
O853 Li795 1.961 . S
O853 C802 1.325 . S
O854 Li792 1.961 . S
O854 Li794 1.956 . S
O854 Li795 1.970 . S
O854 C824 1.325 . S
O855 Li793 1.961 . S
O855 Li794 1.970 . S
O855 Li795 1.956 . S
O855 C830 1.325 . S
H856 C798 0.929 . S
H857 C799 0.930 . S
H858 C800 0.930 . S
H859 C801 0.930 . S
H860 C803 0.930 . S
H861 C805 0.929 . S
H862 C806 0.930 . S
H863 C807 0.950 . S
H864 C810 0.930 . S
H865 C813 0.929 . S
H866 C818 0.929 . S
H867 C819 0.930 . S
H868 C826 0.929 . S
H869 C827 0.930 . S
H870 C828 0.930 . S
H871 C829 0.930 . S
H872 C831 0.929 . S
H873 C832 0.930 . S
H874 C833 0.930 . S
H875 C834 0.930 . S
H876 C838 0.929 . S
H877 C840 0.930 . S
H878 C846 0.929 . S
H879 C847 0.930 . S
Li880 N897 1.990 . S
Li880 O940 1.956 . S
Li880 O941 1.970 . S
Li880 O942 1.961 . S
Li881 N905 1.990 . S
Li881 O940 1.970 . S
Li881 O941 1.956 . S
Li881 O943 1.961 . S
Li882 N927 1.990 . S
Li882 O940 1.961 . S
Li882 O942 1.956 . S
Li882 O943 1.970 . S
Li883 N933 1.990 . S
Li883 O941 1.961 . S
Li883 O942 1.970 . S
Li883 O943 1.956 . S
C884 C886 1.348 . S
C884 C887 1.356 . S
C884 O940 1.325 . S
N885 C888 1.314 . S
N885 C889 1.279 . S
C886 C884 1.348 . S
C886 C888 1.353 . S
C886 H944 0.929 . S
C887 C884 1.356 . S
C887 C889 1.358 . S
C887 H945 0.930 . S
C888 N885 1.314 . S
C888 C886 1.353 . S
C888 H946 0.930 . S
C889 N885 1.279 . S
C889 C887 1.358 . S
C889 H947 0.930 . S
C890 C893 1.348 . S
C890 C894 1.356 . S
C890 O941 1.325 . S
C891 N892 1.279 . S
C891 C894 1.358 . S
C891 H948 0.930 . S
N892 C891 1.279 . S
N892 C895 1.314 . S
C893 C890 1.348 . S
C893 C895 1.353 . S
C893 H949 0.929 . S
C894 C890 1.356 . S
C894 C891 1.358 . S
C894 H950 0.930 . S
C895 N892 1.314 . S
C895 C893 1.353 . S
C895 H951 0.930 . S
C896 N897 1.314 . S
C896 C901 1.353 . S
C896 H902 0.930 . S
N897 Li880 1.990 . S
N897 C896 1.314 . S
N897 C899 1.279 . S
C898 C899 1.358 . S
C898 C900 1.356 . S
C898 H952 0.930 . S
C899 N897 1.279 . S
C899 C898 1.358 . S
C899 H903 0.930 . S
C900 C898 1.356 . S
C900 C901 1.348 . S
C901 C896 1.353 . S
C901 C900 1.348 . S
C901 H953 0.929 . S
H902 C896 0.930 . S
H903 C899 0.930 . S
C904 N905 1.314 . S
C904 C906 1.353 . S
C904 H910 0.930 . S
N905 Li881 1.990 . S
N905 C904 1.314 . S
N905 C908 1.279 . S
C906 C904 1.353 . S
C906 C909 1.348 . S
C906 H954 0.929 . S
C907 C908 1.358 . S
C907 C909 1.356 . S
C907 H955 0.930 . S
C908 N905 1.279 . S
C908 C907 1.358 . S
C908 H911 0.930 . S
C909 C906 1.348 . S
C909 C907 1.356 . S
H910 C904 0.930 . S
H911 C908 0.930 . S
C912 C914 1.348 . S
C912 C915 1.356 . S
C912 O942 1.325 . S
N913 C916 1.314 . S
N913 C917 1.279 . S
C914 C912 1.348 . S
C914 C916 1.353 . S
C914 H956 0.929 . S
C915 C912 1.356 . S
C915 C917 1.358 . S
C915 H957 0.930 . S
C916 N913 1.314 . S
C916 C914 1.353 . S
C916 H958 0.930 . S
C917 N913 1.279 . S
C917 C915 1.358 . S
C917 H959 0.930 . S
C918 C919 1.348 . S
C918 C920 1.356 . S
C918 O943 1.325 . S
C919 C918 1.348 . S
C919 C921 1.353 . S
C919 H960 0.929 . S
C920 C918 1.356 . S
C920 C922 1.358 . S
C920 H961 0.930 . S
C921 C919 1.353 . S
C921 N923 1.314 . S
C921 H962 0.930 . S
C922 C920 1.358 . S
C922 N923 1.279 . S
C922 H963 0.930 . S
N923 C921 1.314 . S
N923 C922 1.279 . S
C924 C926 1.353 . S
C924 N927 1.314 . S
C924 H930 0.930 . S
C925 N927 1.279 . S
C925 C928 1.358 . S
C925 H931 0.930 . S
C926 C924 1.353 . S
C926 C929 1.348 . S
C926 H964 0.929 . S
N927 Li882 1.990 . S
N927 C924 1.314 . S
N927 C925 1.279 . S
C928 C925 1.358 . S
C928 C929 1.356 . S
C928 H965 0.930 . S
C929 C926 1.348 . S
C929 C928 1.356 . S
H930 C924 0.930 . S
H931 C925 0.930 . S
C932 N933 1.314 . S
C932 C934 1.353 . S
C932 H938 0.930 . S
N933 Li883 1.990 . S
N933 C932 1.314 . S
N933 C936 1.279 . S
C934 C932 1.353 . S
C934 C937 1.348 . S
C934 H966 0.929 . S
C935 C936 1.358 . S
C935 C937 1.356 . S
C935 H967 0.930 . S
C936 N933 1.279 . S
C936 C935 1.358 . S
C936 H939 0.930 . S
C937 C934 1.348 . S
C937 C935 1.356 . S
H938 C932 0.930 . S
H939 C936 0.930 . S
O940 Li880 1.956 . S
O940 Li881 1.970 . S
O940 Li882 1.961 . S
O940 C884 1.325 . S
O941 Li880 1.970 . S
O941 Li881 1.956 . S
O941 Li883 1.961 . S
O941 C890 1.325 . S
O942 Li880 1.961 . S
O942 Li882 1.956 . S
O942 Li883 1.970 . S
O942 C912 1.325 . S
O943 Li881 1.961 . S
O943 Li882 1.970 . S
O943 Li883 1.956 . S
O943 C918 1.325 . S
H944 C886 0.929 . S
H945 C887 0.930 . S
H946 C888 0.930 . S
H947 C889 0.930 . S
H948 C891 0.930 . S
H949 C893 0.929 . S
H950 C894 0.930 . S
H951 C895 0.930 . S
H952 C898 0.930 . S
H953 C901 0.929 . S
H954 C906 0.929 . S
H955 C907 0.930 . S
H956 C914 0.929 . S
H957 C915 0.930 . S
H958 C916 0.930 . S
H959 C917 0.930 . S
H960 C919 0.929 . S
H961 C920 0.930 . S
H962 C921 0.930 . S
H963 C922 0.930 . S
H964 C926 0.929 . S
H965 C928 0.930 . S
H966 C934 0.929 . S
H967 C935 0.930 . S
Li968 N985 1.990 . S
Li968 O1028 1.956 . S
Li968 O1029 1.970 . S
Li968 O1030 1.961 . S
Li969 N993 1.990 . S
Li969 O1028 1.970 . S
Li969 O1029 1.956 . S
Li969 O1031 1.961 . S
Li970 N1015 1.990 . S
Li970 O1028 1.961 . S
Li970 O1030 1.956 . S
Li970 O1031 1.970 . S
Li971 N1021 1.990 . S
Li971 O1029 1.961 . S
Li971 O1030 1.970 . S
Li971 O1031 1.956 . S
C972 C974 1.348 . S
C972 C975 1.356 . S
C972 O1028 1.325 . S
N973 C976 1.314 . S
N973 C977 1.279 . S
C974 C972 1.348 . S
C974 C976 1.353 . S
C974 H1032 0.929 . S
C975 C972 1.356 . S
C975 C977 1.358 . S
C975 H1033 0.930 . S
C976 N973 1.314 . S
C976 C974 1.353 . S
C976 H1034 0.930 . S
C977 N973 1.279 . S
C977 C975 1.358 . S
C977 H1035 0.930 . S
C978 C981 1.348 . S
C978 C982 1.356 . S
C978 O1029 1.325 . S
C979 N980 1.279 . S
C979 C982 1.358 . S
C979 H1036 0.930 . S
N980 C979 1.279 . S
N980 C983 1.314 . S
C981 C978 1.348 . S
C981 C983 1.353 . S
C981 H1037 0.929 . S
C982 C978 1.356 . S
C982 C979 1.358 . S
C982 H1038 0.930 . S
C983 N980 1.314 . S
C983 C981 1.353 . S
C983 H1039 0.951 . S
C984 N985 1.314 . S
C984 C989 1.353 . S
C984 H990 0.930 . S
N985 Li968 1.990 . S
N985 C984 1.314 . S
N985 C987 1.279 . S
C986 C987 1.358 . S
C986 C988 1.356 . S
C986 H1040 0.930 . S
C987 N985 1.279 . S
C987 C986 1.358 . S
C987 H991 0.930 . S
C988 C986 1.356 . S
C988 C989 1.348 . S
C989 C984 1.353 . S
C989 C988 1.348 . S
C989 H1041 0.929 . S
H990 C984 0.930 . S
H991 C987 0.930 . S
C992 N993 1.314 . S
C992 C994 1.353 . S
C992 H998 0.930 . S
N993 Li969 1.990 . S
N993 C992 1.314 . S
N993 C996 1.279 . S
C994 C992 1.353 . S
C994 C997 1.348 . S
C994 H1042 0.929 . S
C995 C996 1.358 . S
C995 C997 1.356 . S
C995 H1043 0.930 . S
C996 N993 1.279 . S
C996 C995 1.358 . S
C996 H999 0.930 . S
C997 C994 1.348 . S
C997 C995 1.356 . S
H998 C992 0.930 . S
H999 C996 0.930 . S
C1000 C1002 1.348 . S
C1000 C1003 1.356 . S
C1000 O1030 1.325 . S
N1001 C1004 1.314 . S
N1001 C1005 1.279 . S
C1002 C1000 1.348 . S
C1002 C1004 1.353 . S
C1002 H1044 0.929 . S
C1003 C1000 1.356 . S
C1003 C1005 1.358 . S
C1003 H1045 0.930 . S
C1004 N1001 1.314 . S
C1004 C1002 1.353 . S
C1004 H1046 0.930 . S
C1005 N1001 1.279 . S
C1005 C1003 1.358 . S
C1005 H1047 0.930 . S
C1006 C1007 1.348 . S
C1006 C1008 1.356 . S
C1006 O1031 1.325 . S
C1007 C1006 1.348 . S
C1007 C1009 1.353 . S
C1007 H1048 0.929 . S
C1008 C1006 1.356 . S
C1008 C1010 1.358 . S
C1008 H1049 0.930 . S
C1009 C1007 1.353 . S
C1009 N1011 1.314 . S
C1009 H1050 0.930 . S
C1010 C1008 1.358 . S
C1010 N1011 1.279 . S
C1010 H1051 0.930 . S
N1011 C1009 1.314 . S
N1011 C1010 1.279 . S
C1012 C1014 1.353 . S
C1012 N1015 1.314 . S
C1012 H1018 0.930 . S
C1013 N1015 1.279 . S
C1013 C1016 1.358 . S
C1013 H1019 0.930 . S
C1014 C1012 1.353 . S
C1014 C1017 1.348 . S
C1014 H1052 0.929 . S
N1015 Li970 1.990 . S
N1015 C1012 1.314 . S
N1015 C1013 1.279 . S
C1016 C1013 1.358 . S
C1016 C1017 1.356 . S
C1016 H1053 0.930 . S
C1017 C1014 1.348 . S
C1017 C1016 1.356 . S
H1018 C1012 0.930 . S
H1019 C1013 0.930 . S
C1020 N1021 1.314 . S
C1020 C1022 1.353 . S
C1020 H1026 0.930 . S
N1021 Li971 1.990 . S
N1021 C1020 1.314 . S
N1021 C1024 1.279 . S
C1022 C1020 1.353 . S
C1022 C1025 1.348 . S
C1022 H1054 0.929 . S
C1023 C1024 1.358 . S
C1023 C1025 1.356 . S
C1023 H1055 0.930 . S
C1024 N1021 1.279 . S
C1024 C1023 1.358 . S
C1024 H1027 0.930 . S
C1025 C1022 1.348 . S
C1025 C1023 1.356 . S
H1026 C1020 0.930 . S
H1027 C1024 0.930 . S
O1028 Li968 1.956 . S
O1028 Li969 1.970 . S
O1028 Li970 1.961 . S
O1028 C972 1.325 . S
O1029 Li968 1.970 . S
O1029 Li969 1.956 . S
O1029 Li971 1.961 . S
O1029 C978 1.325 . S
O1030 Li968 1.961 . S
O1030 Li970 1.956 . S
O1030 Li971 1.970 . S
O1030 C1000 1.325 . S
O1031 Li969 1.961 . S
O1031 Li970 1.970 . S
O1031 Li971 1.956 . S
O1031 C1006 1.325 . S
H1032 C974 0.929 . S
H1033 C975 0.930 . S
H1034 C976 0.930 . S
H1035 C977 0.930 . S
H1036 C979 0.930 . S
H1037 C981 0.929 . S
H1038 C982 0.930 . S
H1039 C983 0.951 . S
H1040 C986 0.930 . S
H1041 C989 0.929 . S
H1042 C994 0.929 . S
H1043 C995 0.930 . S
H1044 C1002 0.929 . S
H1045 C1003 0.930 . S
H1046 C1004 0.930 . S
H1047 C1005 0.930 . S
H1048 C1007 0.929 . S
H1049 C1008 0.930 . S
H1050 C1009 0.930 . S
H1051 C1010 0.930 . S
H1052 C1014 0.929 . S
H1053 C1016 0.930 . S
H1054 C1022 0.929 . S
H1055 C1023 0.930 . S
Li1056 N1073 1.990 . S
Li1056 O1116 1.956 . S
Li1056 O1117 1.970 . S
Li1056 O1118 1.961 . S
Li1057 N1081 1.990 . S
Li1057 O1116 1.970 . S
Li1057 O1117 1.956 . S
Li1057 O1119 1.961 . S
Li1058 N1103 1.990 . S
Li1058 O1116 1.961 . S
Li1058 O1118 1.956 . S
Li1058 O1119 1.970 . S
Li1059 N1109 1.990 . S
Li1059 O1117 1.961 . S
Li1059 O1118 1.970 . S
Li1059 O1119 1.956 . S
C1060 C1062 1.348 . S
C1060 C1063 1.356 . S
C1060 O1116 1.325 . S
N1061 C1064 1.314 . S
N1061 C1065 1.279 . S
C1062 C1060 1.348 . S
C1062 C1064 1.353 . S
C1062 H1120 0.929 . S
C1063 C1060 1.356 . S
C1063 C1065 1.358 . S
C1063 H1121 0.930 . S
C1064 N1061 1.314 . S
C1064 C1062 1.353 . S
C1064 H1122 0.930 . S
C1065 N1061 1.279 . S
C1065 C1063 1.358 . S
C1065 H1123 0.930 . S
C1066 C1069 1.348 . S
C1066 C1070 1.356 . S
C1066 O1117 1.325 . S
C1067 N1068 1.279 . S
C1067 C1070 1.358 . S
C1067 H1124 0.930 . S
N1068 C1067 1.279 . S
N1068 C1071 1.314 . S
C1069 C1066 1.348 . S
C1069 C1071 1.353 . S
C1069 H1125 0.929 . S
C1070 C1066 1.356 . S
C1070 C1067 1.358 . S
C1070 H1126 0.930 . S
C1071 N1068 1.314 . S
C1071 C1069 1.353 . S
C1071 H1127 0.889 1_556 S
C1072 N1073 1.314 . S
C1072 C1077 1.353 . S
C1072 H1078 0.930 . S
N1073 Li1056 1.990 . S
N1073 C1072 1.314 . S
N1073 C1075 1.279 . S
C1074 C1075 1.358 . S
C1074 C1076 1.356 . S
C1074 H1128 0.930 . S
C1075 N1073 1.279 . S
C1075 C1074 1.358 . S
C1075 H1079 0.930 . S
C1076 C1074 1.356 . S
C1076 C1077 1.348 . S
C1077 C1072 1.353 . S
C1077 C1076 1.348 . S
C1077 H1129 0.929 . S
H1078 C1072 0.930 . S
H1079 C1075 0.930 . S
C1080 N1081 1.314 . S
C1080 C1082 1.353 . S
C1080 H1086 0.930 . S
N1081 Li1057 1.990 . S
N1081 C1080 1.314 . S
N1081 C1084 1.279 . S
C1082 C1080 1.353 . S
C1082 C1085 1.348 . S
C1082 H1130 0.929 . S
C1083 C1084 1.358 . S
C1083 C1085 1.356 . S
C1083 H1131 0.930 . S
C1084 N1081 1.279 . S
C1084 C1083 1.358 . S
C1084 H1087 0.930 . S
C1085 C1082 1.348 . S
C1085 C1083 1.356 . S
H1086 C1080 0.930 . S
H1087 C1084 0.930 . S
C1088 C1090 1.348 . S
C1088 C1091 1.356 . S
C1088 O1118 1.325 . S
N1089 C1092 1.314 . S
N1089 C1093 1.279 . S
C1090 C1088 1.348 . S
C1090 C1092 1.353 . S
C1090 H1132 0.929 . S
C1091 C1088 1.356 . S
C1091 C1093 1.358 . S
C1091 H1133 0.930 . S
C1092 N1089 1.314 . S
C1092 C1090 1.353 . S
C1092 H1134 0.930 . S
C1093 N1089 1.279 . S
C1093 C1091 1.358 . S
C1093 H1135 0.930 . S
C1094 C1095 1.348 . S
C1094 C1096 1.356 . S
C1094 O1119 1.325 . S
C1095 C1094 1.348 . S
C1095 C1097 1.353 . S
C1095 H1136 0.929 . S
C1096 C1094 1.356 . S
C1096 C1098 1.358 . S
C1096 H1137 0.930 . S
C1097 C1095 1.353 . S
C1097 N1099 1.314 . S
C1097 H1138 0.930 . S
C1098 C1096 1.358 . S
C1098 N1099 1.279 . S
C1098 H1139 0.930 . S
N1099 C1097 1.314 . S
N1099 C1098 1.279 . S
C1100 C1102 1.353 . S
C1100 N1103 1.314 . S
C1100 H1106 0.930 . S
C1101 N1103 1.279 . S
C1101 C1104 1.358 . S
C1101 H1107 0.930 . S
C1102 C1100 1.353 . S
C1102 C1105 1.348 . S
C1102 H1140 0.929 . S
N1103 Li1058 1.990 . S
N1103 C1100 1.314 . S
N1103 C1101 1.279 . S
C1104 C1101 1.358 . S
C1104 C1105 1.356 . S
C1104 H1141 0.930 . S
C1105 C1102 1.348 . S
C1105 C1104 1.356 . S
H1106 C1100 0.930 . S
H1107 C1101 0.930 . S
C1108 N1109 1.314 . S
C1108 C1110 1.353 . S
C1108 H1114 0.930 . S
N1109 Li1059 1.990 . S
N1109 C1108 1.314 . S
N1109 C1112 1.279 . S
C1110 C1108 1.353 . S
C1110 C1113 1.348 . S
C1110 H1142 0.929 . S
C1111 C1112 1.358 . S
C1111 C1113 1.356 . S
C1111 H1143 0.930 . S
C1112 N1109 1.279 . S
C1112 C1111 1.358 . S
C1112 H1115 0.930 . S
C1113 C1110 1.348 . S
C1113 C1111 1.356 . S
H1114 C1108 0.930 . S
H1115 C1112 0.930 . S
O1116 Li1056 1.956 . S
O1116 Li1057 1.970 . S
O1116 Li1058 1.961 . S
O1116 C1060 1.325 . S
O1117 Li1056 1.970 . S
O1117 Li1057 1.956 . S
O1117 Li1059 1.961 . S
O1117 C1066 1.325 . S
O1118 Li1056 1.961 . S
O1118 Li1058 1.956 . S
O1118 Li1059 1.970 . S
O1118 C1088 1.325 . S
O1119 Li1057 1.961 . S
O1119 Li1058 1.970 . S
O1119 Li1059 1.956 . S
O1119 C1094 1.325 . S
H1120 C1062 0.929 . S
H1121 C1063 0.930 . S
H1122 C1064 0.930 . S
H1123 C1065 0.930 . S
H1124 C1067 0.930 . S
H1125 C1069 0.929 . S
H1126 C1070 0.930 . S
H1127 C1071 0.889 1_554 S
H1128 C1074 0.930 . S
H1129 C1077 0.929 . S
H1130 C1082 0.929 . S
H1131 C1083 0.930 . S
H1132 C1090 0.929 . S
H1133 C1091 0.930 . S
H1134 C1092 0.930 . S
H1135 C1093 0.930 . S
H1136 C1095 0.929 . S
H1137 C1096 0.930 . S
H1138 C1097 0.930 . S
H1139 C1098 0.930 . S
H1140 C1102 0.929 . S
H1141 C1104 0.930 . S
H1142 C1110 0.929 . S
H1143 C1111 0.930 . S
Li1144 N1161 1.990 . S
Li1144 O1204 1.956 . S
Li1144 O1205 1.970 . S
Li1144 O1206 1.961 . S
Li1145 N1169 1.990 . S
Li1145 O1204 1.970 . S
Li1145 O1205 1.956 . S
Li1145 O1207 1.961 . S
Li1146 N1191 1.990 . S
Li1146 O1204 1.961 . S
Li1146 O1206 1.956 . S
Li1146 O1207 1.970 . S
Li1147 N1197 1.990 . S
Li1147 O1205 1.961 . S
Li1147 O1206 1.970 . S
Li1147 O1207 1.956 . S
C1148 C1150 1.348 . S
C1148 C1151 1.356 . S
C1148 O1204 1.325 . S
N1149 C1152 1.314 . S
N1149 C1153 1.279 . S
C1150 C1148 1.348 . S
C1150 C1152 1.353 . S
C1150 H1208 0.929 . S
C1151 C1148 1.356 . S
C1151 C1153 1.358 . S
C1151 H1209 0.930 . S
C1152 N1149 1.314 . S
C1152 C1150 1.353 . S
C1152 H1210 0.930 . S
C1153 N1149 1.279 . S
C1153 C1151 1.358 . S
C1153 H1211 0.930 . S
C1154 C1157 1.348 . S
C1154 C1158 1.356 . S
C1154 O1205 1.325 . S
C1155 N1156 1.279 . S
C1155 C1158 1.358 . S
C1155 H1212 0.930 . S
N1156 C1155 1.279 . S
N1156 C1159 1.314 . S
C1157 C1154 1.348 . S
C1157 C1159 1.353 . S
C1157 H1213 0.929 . S
C1158 C1154 1.356 . S
C1158 C1155 1.358 . S
C1158 H1214 0.930 . S
C1159 N1156 1.314 . S
C1159 C1157 1.353 . S
C1159 H1215 0.930 . S
C1160 N1161 1.314 . S
C1160 C1165 1.353 . S
C1160 H1166 0.930 . S
N1161 Li1144 1.990 . S
N1161 C1160 1.314 . S
N1161 C1163 1.279 . S
C1162 C1163 1.358 . S
C1162 C1164 1.356 . S
C1162 H1216 0.930 . S
C1163 N1161 1.279 . S
C1163 C1162 1.358 . S
C1163 H1167 0.930 . S
C1164 C1162 1.356 . S
C1164 C1165 1.348 . S
C1165 C1160 1.353 . S
C1165 C1164 1.348 . S
C1165 H1217 0.929 . S
H1166 C1160 0.930 . S
H1167 C1163 0.930 . S
C1168 N1169 1.314 . S
C1168 C1170 1.353 . S
C1168 H1174 0.930 . S
N1169 Li1145 1.990 . S
N1169 C1168 1.314 . S
N1169 C1172 1.279 . S
C1170 C1168 1.353 . S
C1170 C1173 1.348 . S
C1170 H1218 0.929 . S
C1171 C1172 1.358 . S
C1171 C1173 1.356 . S
C1171 H1219 0.930 . S
C1172 N1169 1.279 . S
C1172 C1171 1.358 . S
C1172 H1175 0.930 . S
C1173 C1170 1.348 . S
C1173 C1171 1.356 . S
H1174 C1168 0.930 . S
H1175 C1172 0.930 . S
C1176 C1178 1.348 . S
C1176 C1179 1.356 . S
C1176 O1206 1.325 . S
N1177 C1180 1.314 . S
N1177 C1181 1.279 . S
C1178 C1176 1.348 . S
C1178 C1180 1.353 . S
C1178 H1220 0.929 . S
C1179 C1176 1.356 . S
C1179 C1181 1.358 . S
C1179 H1221 0.930 . S
C1180 N1177 1.314 . S
C1180 C1178 1.353 . S
C1180 H1222 0.930 . S
C1181 N1177 1.279 . S
C1181 C1179 1.358 . S
C1181 H1223 0.930 . S
C1182 C1183 1.348 . S
C1182 C1184 1.356 . S
C1182 O1207 1.325 . S
C1183 C1182 1.348 . S
C1183 C1185 1.353 . S
C1183 H1224 0.929 . S
C1184 C1182 1.356 . S
C1184 C1186 1.358 . S
C1184 H1225 0.930 . S
C1185 C1183 1.353 . S
C1185 N1187 1.314 . S
C1185 H1226 0.930 . S
C1186 C1184 1.358 . S
C1186 N1187 1.279 . S
C1186 H1227 0.930 . S
N1187 C1185 1.314 . S
N1187 C1186 1.279 . S
C1188 C1190 1.353 . S
C1188 N1191 1.314 . S
C1188 H1194 0.930 . S
C1189 N1191 1.279 . S
C1189 C1192 1.358 . S
C1189 H1195 0.930 . S
C1190 C1188 1.353 . S
C1190 C1193 1.348 . S
C1190 H1228 0.929 . S
N1191 Li1146 1.990 . S
N1191 C1188 1.314 . S
N1191 C1189 1.279 . S
C1192 C1189 1.358 . S
C1192 C1193 1.356 . S
C1192 H1229 0.930 . S
C1193 C1190 1.348 . S
C1193 C1192 1.356 . S
H1194 C1188 0.930 . S
H1195 C1189 0.930 . S
C1196 N1197 1.314 . S
C1196 C1198 1.353 . S
C1196 H1202 0.930 . S
N1197 Li1147 1.990 . S
N1197 C1196 1.314 . S
N1197 C1200 1.279 . S
C1198 C1196 1.353 . S
C1198 C1201 1.348 . S
C1198 H1230 0.929 . S
C1199 C1200 1.358 . S
C1199 C1201 1.356 . S
C1199 H1231 0.930 . S
C1200 N1197 1.279 . S
C1200 C1199 1.358 . S
C1200 H1203 0.930 . S
C1201 C1198 1.348 . S
C1201 C1199 1.356 . S
H1202 C1196 0.930 . S
H1203 C1200 0.930 . S
O1204 Li1144 1.956 . S
O1204 Li1145 1.970 . S
O1204 Li1146 1.961 . S
O1204 C1148 1.325 . S
O1205 Li1144 1.970 . S
O1205 Li1145 1.956 . S
O1205 Li1147 1.961 . S
O1205 C1154 1.325 . S
O1206 Li1144 1.961 . S
O1206 Li1146 1.956 . S
O1206 Li1147 1.970 . S
O1206 C1176 1.325 . S
O1207 Li1145 1.961 . S
O1207 Li1146 1.970 . S
O1207 Li1147 1.956 . S
O1207 C1182 1.325 . S
H1208 C1150 0.929 . S
H1209 C1151 0.930 . S
H1210 C1152 0.930 . S
H1211 C1153 0.930 . S
H1212 C1155 0.930 . S
H1213 C1157 0.929 . S
H1214 C1158 0.930 . S
H1215 C1159 0.930 . S
H1216 C1162 0.930 . S
H1217 C1165 0.929 . S
H1218 C1170 0.929 . S
H1219 C1171 0.930 . S
H1220 C1178 0.929 . S
H1221 C1179 0.930 . S
H1222 C1180 0.930 . S
H1223 C1181 0.930 . S
H1224 C1183 0.929 . S
H1225 C1184 0.930 . S
H1226 C1185 0.930 . S
H1227 C1186 0.930 . S
H1228 C1190 0.929 . S
H1229 C1192 0.930 . S
H1230 C1198 0.929 . S
H1231 C1199 0.930 . S
Li1232 N1249 1.990 . S
Li1232 O1292 1.956 . S
Li1232 O1293 1.970 . S
Li1232 O1294 1.961 . S
Li1233 N1257 1.990 . S
Li1233 O1292 1.970 . S
Li1233 O1293 1.956 . S
Li1233 O1295 1.961 . S
Li1234 N1279 1.990 . S
Li1234 O1292 1.961 . S
Li1234 O1294 1.956 . S
Li1234 O1295 1.970 . S
Li1235 N1285 1.990 . S
Li1235 O1293 1.961 . S
Li1235 O1294 1.970 . S
Li1235 O1295 1.956 . S
C1236 C1238 1.348 . S
C1236 C1239 1.356 . S
C1236 O1292 1.325 . S
N1237 C1240 1.314 . S
N1237 C1241 1.279 . S
C1238 C1236 1.348 . S
C1238 C1240 1.353 . S
C1238 H1296 0.929 . S
C1239 C1236 1.356 . S
C1239 C1241 1.358 . S
C1239 H1297 0.930 . S
C1240 N1237 1.314 . S
C1240 C1238 1.353 . S
C1240 H1298 0.887 1_556 S
C1241 N1237 1.279 . S
C1241 C1239 1.358 . S
C1241 H1299 0.930 . S
C1242 C1245 1.348 . S
C1242 C1246 1.356 . S
C1242 O1293 1.325 . S
C1243 N1244 1.279 . S
C1243 C1246 1.358 . S
C1243 H1300 0.930 . S
N1244 C1243 1.279 . S
N1244 C1247 1.314 . S
C1245 C1242 1.348 . S
C1245 C1247 1.353 . S
C1245 H1301 0.929 . S
C1246 C1242 1.356 . S
C1246 C1243 1.358 . S
C1246 H1302 0.930 . S
C1247 N1244 1.314 . S
C1247 C1245 1.353 . S
C1247 H1303 0.930 . S
C1248 N1249 1.314 . S
C1248 C1253 1.353 . S
C1248 H1254 0.930 . S
N1249 Li1232 1.990 . S
N1249 C1248 1.314 . S
N1249 C1251 1.279 . S
C1250 C1251 1.358 . S
C1250 C1252 1.356 . S
C1250 H1304 0.930 . S
C1251 N1249 1.279 . S
C1251 C1250 1.358 . S
C1251 H1255 0.930 . S
C1252 C1250 1.356 . S
C1252 C1253 1.348 . S
C1253 C1248 1.353 . S
C1253 C1252 1.348 . S
C1253 H1305 0.929 . S
H1254 C1248 0.930 . S
H1255 C1251 0.930 . S
C1256 N1257 1.314 . S
C1256 C1258 1.353 . S
C1256 H1262 0.930 . S
N1257 Li1233 1.990 . S
N1257 C1256 1.314 . S
N1257 C1260 1.279 . S
C1258 C1256 1.353 . S
C1258 C1261 1.348 . S
C1258 H1306 0.929 . S
C1259 C1260 1.358 . S
C1259 C1261 1.356 . S
C1259 H1307 0.930 . S
C1260 N1257 1.279 . S
C1260 C1259 1.358 . S
C1260 H1263 0.930 . S
C1261 C1258 1.348 . S
C1261 C1259 1.356 . S
H1262 C1256 0.930 . S
H1263 C1260 0.930 . S
C1264 C1266 1.348 . S
C1264 C1267 1.356 . S
C1264 O1294 1.325 . S
N1265 C1268 1.314 . S
N1265 C1269 1.279 . S
C1266 C1264 1.348 . S
C1266 C1268 1.353 . S
C1266 H1308 0.929 . S
C1267 C1264 1.356 . S
C1267 C1269 1.358 . S
C1267 H1309 0.930 . S
C1268 N1265 1.314 . S
C1268 C1266 1.353 . S
C1268 H1310 0.930 . S
C1269 N1265 1.279 . S
C1269 C1267 1.358 . S
C1269 H1311 0.930 . S
C1270 C1271 1.348 . S
C1270 C1272 1.356 . S
C1270 O1295 1.325 . S
C1271 C1270 1.348 . S
C1271 C1273 1.353 . S
C1271 H1312 0.929 . S
C1272 C1270 1.356 . S
C1272 C1274 1.358 . S
C1272 H1313 0.930 . S
C1273 C1271 1.353 . S
C1273 N1275 1.314 . S
C1273 H1314 0.930 . S
C1274 C1272 1.358 . S
C1274 N1275 1.279 . S
C1274 H1315 0.930 . S
N1275 C1273 1.314 . S
N1275 C1274 1.279 . S
C1276 C1278 1.353 . S
C1276 N1279 1.314 . S
C1276 H1282 0.930 . S
C1277 N1279 1.279 . S
C1277 C1280 1.358 . S
C1277 H1283 0.930 . S
C1278 C1276 1.353 . S
C1278 C1281 1.348 . S
C1278 H1316 0.929 . S
N1279 Li1234 1.990 . S
N1279 C1276 1.314 . S
N1279 C1277 1.279 . S
C1280 C1277 1.358 . S
C1280 C1281 1.356 . S
C1280 H1317 0.930 . S
C1281 C1278 1.348 . S
C1281 C1280 1.356 . S
H1282 C1276 0.930 . S
H1283 C1277 0.930 . S
C1284 N1285 1.314 . S
C1284 C1286 1.353 . S
C1284 H1290 0.930 . S
N1285 Li1235 1.990 . S
N1285 C1284 1.314 . S
N1285 C1288 1.279 . S
C1286 C1284 1.353 . S
C1286 C1289 1.348 . S
C1286 H1318 0.929 . S
C1287 C1288 1.358 . S
C1287 C1289 1.356 . S
C1287 H1319 0.930 . S
C1288 N1285 1.279 . S
C1288 C1287 1.358 . S
C1288 H1291 0.930 . S
C1289 C1286 1.348 . S
C1289 C1287 1.356 . S
H1290 C1284 0.930 . S
H1291 C1288 0.930 . S
O1292 Li1232 1.956 . S
O1292 Li1233 1.970 . S
O1292 Li1234 1.961 . S
O1292 C1236 1.325 . S
O1293 Li1232 1.970 . S
O1293 Li1233 1.956 . S
O1293 Li1235 1.961 . S
O1293 C1242 1.325 . S
O1294 Li1232 1.961 . S
O1294 Li1234 1.956 . S
O1294 Li1235 1.970 . S
O1294 C1264 1.325 . S
O1295 Li1233 1.961 . S
O1295 Li1234 1.970 . S
O1295 Li1235 1.956 . S
O1295 C1270 1.325 . S
H1296 C1238 0.929 . S
H1297 C1239 0.930 . S
H1298 C1240 0.887 1_554 S
H1299 C1241 0.930 . S
H1300 C1243 0.930 . S
H1301 C1245 0.929 . S
H1302 C1246 0.930 . S
H1303 C1247 0.930 . S
H1304 C1250 0.930 . S
H1305 C1253 0.929 . S
H1306 C1258 0.929 . S
H1307 C1259 0.930 . S
H1308 C1266 0.929 . S
H1309 C1267 0.930 . S
H1310 C1268 0.930 . S
H1311 C1269 0.930 . S
H1312 C1271 0.929 . S
H1313 C1272 0.930 . S
H1314 C1273 0.930 . S
H1315 C1274 0.930 . S
H1316 C1278 0.929 . S
H1317 C1280 0.930 . S
H1318 C1286 0.929 . S
H1319 C1287 0.930 . S
Li1320 N1337 1.990 . S
Li1320 O1380 1.956 . S
Li1320 O1381 1.970 . S
Li1320 O1382 1.961 . S
Li1321 N1345 1.990 . S
Li1321 O1380 1.970 . S
Li1321 O1381 1.956 . S
Li1321 O1383 1.961 . S
Li1322 N1367 1.990 . S
Li1322 O1380 1.961 . S
Li1322 O1382 1.956 . S
Li1322 O1383 1.970 . S
Li1323 N1373 1.990 . S
Li1323 O1381 1.961 . S
Li1323 O1382 1.970 . S
Li1323 O1383 1.956 . S
C1324 C1326 1.348 . S
C1324 C1327 1.356 . S
C1324 O1380 1.325 . S
N1325 C1328 1.314 . S
N1325 C1329 1.279 . S
C1326 C1324 1.348 . S
C1326 C1328 1.353 . S
C1326 H1384 0.929 . S
C1327 C1324 1.356 . S
C1327 C1329 1.358 . S
C1327 H1385 0.930 . S
C1328 N1325 1.314 . S
C1328 C1326 1.353 . S
C1328 H1386 0.930 . S
C1329 N1325 1.279 . S
C1329 C1327 1.358 . S
C1329 H1387 0.930 . S
C1330 C1333 1.348 . S
C1330 C1334 1.356 . S
C1330 O1381 1.325 . S
C1331 N1332 1.279 . S
C1331 C1334 1.358 . S
C1331 H1388 0.930 . S
N1332 C1331 1.279 . S
N1332 C1335 1.314 . S
C1333 C1330 1.348 . S
C1333 C1335 1.353 . S
C1333 H1389 0.929 . S
C1334 C1330 1.356 . S
C1334 C1331 1.358 . S
C1334 H1390 0.930 . S
C1335 N1332 1.314 . S
C1335 C1333 1.353 . S
C1335 H1391 0.930 . S
C1336 N1337 1.314 . S
C1336 C1341 1.353 . S
C1336 H1342 0.930 . S
N1337 Li1320 1.990 . S
N1337 C1336 1.314 . S
N1337 C1339 1.279 . S
C1338 C1339 1.358 . S
C1338 C1340 1.356 . S
C1338 H1392 0.930 . S
C1339 N1337 1.279 . S
C1339 C1338 1.358 . S
C1339 H1343 0.930 . S
C1340 C1338 1.356 . S
C1340 C1341 1.348 . S
C1341 C1336 1.353 . S
C1341 C1340 1.348 . S
C1341 H1393 0.929 . S
H1342 C1336 0.930 . S
H1343 C1339 0.930 . S
C1344 N1345 1.314 . S
C1344 C1346 1.353 . S
C1344 H1350 0.930 . S
N1345 Li1321 1.990 . S
N1345 C1344 1.314 . S
N1345 C1348 1.279 . S
C1346 C1344 1.353 . S
C1346 C1349 1.348 . S
C1346 H1394 0.929 . S
C1347 C1348 1.358 . S
C1347 C1349 1.356 . S
C1347 H1395 0.930 . S
C1348 N1345 1.279 . S
C1348 C1347 1.358 . S
C1348 H1351 0.930 . S
C1349 C1346 1.348 . S
C1349 C1347 1.356 . S
H1350 C1344 0.930 . S
H1351 C1348 0.930 . S
C1352 C1354 1.348 . S
C1352 C1355 1.356 . S
C1352 O1382 1.325 . S
N1353 C1356 1.314 . S
N1353 C1357 1.279 . S
C1354 C1352 1.348 . S
C1354 C1356 1.353 . S
C1354 H1396 0.929 . S
C1355 C1352 1.356 . S
C1355 C1357 1.358 . S
C1355 H1397 0.930 . S
C1356 N1353 1.314 . S
C1356 C1354 1.353 . S
C1356 H1398 0.930 . S
C1357 N1353 1.279 . S
C1357 C1355 1.358 . S
C1357 H1399 0.930 . S
C1358 C1359 1.348 . S
C1358 C1360 1.356 . S
C1358 O1383 1.325 . S
C1359 C1358 1.348 . S
C1359 C1361 1.353 . S
C1359 H1400 0.929 . S
C1360 C1358 1.356 . S
C1360 C1362 1.358 . S
C1360 H1401 0.930 . S
C1361 C1359 1.353 . S
C1361 N1363 1.314 . S
C1361 H1402 0.930 . S
C1362 C1360 1.358 . S
C1362 N1363 1.279 . S
C1362 H1403 0.930 . S
N1363 C1361 1.314 . S
N1363 C1362 1.279 . S
C1364 C1366 1.353 . S
C1364 N1367 1.314 . S
C1364 H1370 0.930 . S
C1365 N1367 1.279 . S
C1365 C1368 1.358 . S
C1365 H1371 0.930 . S
C1366 C1364 1.353 . S
C1366 C1369 1.348 . S
C1366 H1404 0.929 . S
N1367 Li1322 1.990 . S
N1367 C1364 1.314 . S
N1367 C1365 1.279 . S
C1368 C1365 1.358 . S
C1368 C1369 1.356 . S
C1368 H1405 0.930 . S
C1369 C1366 1.348 . S
C1369 C1368 1.356 . S
H1370 C1364 0.930 . S
H1371 C1365 0.930 . S
C1372 N1373 1.314 . S
C1372 C1374 1.353 . S
C1372 H1378 0.930 . S
N1373 Li1323 1.990 . S
N1373 C1372 1.314 . S
N1373 C1376 1.279 . S
C1374 C1372 1.353 . S
C1374 C1377 1.348 . S
C1374 H1406 0.929 . S
C1375 C1376 1.358 . S
C1375 C1377 1.356 . S
C1375 H1407 0.930 . S
C1376 N1373 1.279 . S
C1376 C1375 1.358 . S
C1376 H1379 0.930 . S
C1377 C1374 1.348 . S
C1377 C1375 1.356 . S
H1378 C1372 0.930 . S
H1379 C1376 0.930 . S
O1380 Li1320 1.956 . S
O1380 Li1321 1.970 . S
O1380 Li1322 1.961 . S
O1380 C1324 1.325 . S
O1381 Li1320 1.970 . S
O1381 Li1321 1.956 . S
O1381 Li1323 1.961 . S
O1381 C1330 1.325 . S
O1382 Li1320 1.961 . S
O1382 Li1322 1.956 . S
O1382 Li1323 1.970 . S
O1382 C1352 1.325 . S
O1383 Li1321 1.961 . S
O1383 Li1322 1.970 . S
O1383 Li1323 1.956 . S
O1383 C1358 1.325 . S
H1384 C1326 0.929 . S
H1385 C1327 0.930 . S
H1386 C1328 0.930 . S
H1387 C1329 0.930 . S
H1388 C1331 0.930 . S
H1389 C1333 0.929 . S
H1390 C1334 0.930 . S
H1391 C1335 0.930 . S
H1392 C1338 0.930 . S
H1393 C1341 0.929 . S
H1394 C1346 0.929 . S
H1395 C1347 0.930 . S
H1396 C1354 0.929 . S
H1397 C1355 0.930 . S
H1398 C1356 0.930 . S
H1399 C1357 0.930 . S
H1400 C1359 0.929 . S
H1401 C1360 0.930 . S
H1402 C1361 0.930 . S
H1403 C1362 0.930 . S
H1404 C1366 0.929 . S
H1405 C1368 0.930 . S
H1406 C1374 0.929 . S
H1407 C1375 0.930 . S
Li1408 N1425 1.990 . S
Li1408 O1468 1.956 . S
Li1408 O1469 1.970 . S
Li1408 O1470 1.961 . S
Li1409 N1433 1.990 . S
Li1409 O1468 1.970 . S
Li1409 O1469 1.956 . S
Li1409 O1471 1.961 . S
Li1410 N1455 1.990 . S
Li1410 O1468 1.961 . S
Li1410 O1470 1.956 . S
Li1410 O1471 1.970 . S
Li1411 N1461 1.990 . S
Li1411 O1469 1.961 . S
Li1411 O1470 1.970 . S
Li1411 O1471 1.956 . S
C1412 C1414 1.348 . S
C1412 C1415 1.356 . S
C1412 O1468 1.325 . S
N1413 C1416 1.314 . S
N1413 C1417 1.279 . S
C1414 C1412 1.348 . S
C1414 C1416 1.353 . S
C1414 H1472 0.929 . S
C1415 C1412 1.356 . S
C1415 C1417 1.358 . S
C1415 H1473 0.930 . S
C1416 N1413 1.314 . S
C1416 C1414 1.353 . S
C1416 H1474 0.889 1_556 S
C1417 N1413 1.279 . S
C1417 C1415 1.358 . S
C1417 H1475 0.930 . S
C1418 C1421 1.348 . S
C1418 C1422 1.356 . S
C1418 O1469 1.325 . S
C1419 N1420 1.279 . S
C1419 C1422 1.358 . S
C1419 H1476 0.930 . S
N1420 C1419 1.279 . S
N1420 C1423 1.314 . S
C1421 C1418 1.348 . S
C1421 C1423 1.353 . S
C1421 H1477 0.929 . S
C1422 C1418 1.356 . S
C1422 C1419 1.358 . S
C1422 H1478 0.930 . S
C1423 N1420 1.314 . S
C1423 C1421 1.353 . S
C1423 H1479 0.930 . S
C1424 N1425 1.314 . S
C1424 C1429 1.353 . S
C1424 H1430 0.930 . S
N1425 Li1408 1.990 . S
N1425 C1424 1.314 . S
N1425 C1427 1.279 . S
C1426 C1427 1.358 . S
C1426 C1428 1.356 . S
C1426 H1480 0.930 . S
C1427 N1425 1.279 . S
C1427 C1426 1.358 . S
C1427 H1431 0.930 . S
C1428 C1426 1.356 . S
C1428 C1429 1.348 . S
C1429 C1424 1.353 . S
C1429 C1428 1.348 . S
C1429 H1481 0.929 . S
H1430 C1424 0.930 . S
H1431 C1427 0.930 . S
C1432 N1433 1.314 . S
C1432 C1434 1.353 . S
C1432 H1438 0.930 . S
N1433 Li1409 1.990 . S
N1433 C1432 1.314 . S
N1433 C1436 1.279 . S
C1434 C1432 1.353 . S
C1434 C1437 1.348 . S
C1434 H1482 0.929 . S
C1435 C1436 1.358 . S
C1435 C1437 1.356 . S
C1435 H1483 0.930 . S
C1436 N1433 1.279 . S
C1436 C1435 1.358 . S
C1436 H1439 0.930 . S
C1437 C1434 1.348 . S
C1437 C1435 1.356 . S
H1438 C1432 0.930 . S
H1439 C1436 0.930 . S
C1440 C1442 1.348 . S
C1440 C1443 1.356 . S
C1440 O1470 1.325 . S
N1441 C1444 1.314 . S
N1441 C1445 1.279 . S
C1442 C1440 1.348 . S
C1442 C1444 1.353 . S
C1442 H1484 0.929 . S
C1443 C1440 1.356 . S
C1443 C1445 1.358 . S
C1443 H1485 0.930 . S
C1444 N1441 1.314 . S
C1444 C1442 1.353 . S
C1444 H1486 0.930 . S
C1445 N1441 1.279 . S
C1445 C1443 1.358 . S
C1445 H1487 0.930 . S
C1446 C1447 1.348 . S
C1446 C1448 1.356 . S
C1446 O1471 1.325 . S
C1447 C1446 1.348 . S
C1447 C1449 1.353 . S
C1447 H1488 0.929 . S
C1448 C1446 1.356 . S
C1448 C1450 1.358 . S
C1448 H1489 0.930 . S
C1449 C1447 1.353 . S
C1449 N1451 1.314 . S
C1449 H1490 0.930 . S
C1450 C1448 1.358 . S
C1450 N1451 1.279 . S
C1450 H1491 0.930 . S
N1451 C1449 1.314 . S
N1451 C1450 1.279 . S
C1452 C1454 1.353 . S
C1452 N1455 1.314 . S
C1452 H1458 0.930 . S
C1453 N1455 1.279 . S
C1453 C1456 1.358 . S
C1453 H1459 0.930 . S
C1454 C1452 1.353 . S
C1454 C1457 1.348 . S
C1454 H1492 0.929 . S
N1455 Li1410 1.990 . S
N1455 C1452 1.314 . S
N1455 C1453 1.279 . S
C1456 C1453 1.358 . S
C1456 C1457 1.356 . S
C1456 H1493 0.930 . S
C1457 C1454 1.348 . S
C1457 C1456 1.356 . S
H1458 C1452 0.930 . S
H1459 C1453 0.930 . S
C1460 N1461 1.314 . S
C1460 C1462 1.353 . S
C1460 H1466 0.930 . S
N1461 Li1411 1.990 . S
N1461 C1460 1.314 . S
N1461 C1464 1.279 . S
C1462 C1460 1.353 . S
C1462 C1465 1.348 . S
C1462 H1494 0.929 . S
C1463 C1464 1.358 . S
C1463 C1465 1.356 . S
C1463 H1495 0.930 . S
C1464 N1461 1.279 . S
C1464 C1463 1.358 . S
C1464 H1467 0.930 . S
C1465 C1462 1.348 . S
C1465 C1463 1.356 . S
H1466 C1460 0.930 . S
H1467 C1464 0.930 . S
O1468 Li1408 1.956 . S
O1468 Li1409 1.970 . S
O1468 Li1410 1.961 . S
O1468 C1412 1.325 . S
O1469 Li1408 1.970 . S
O1469 Li1409 1.956 . S
O1469 Li1411 1.961 . S
O1469 C1418 1.325 . S
O1470 Li1408 1.961 . S
O1470 Li1410 1.956 . S
O1470 Li1411 1.970 . S
O1470 C1440 1.325 . S
O1471 Li1409 1.961 . S
O1471 Li1410 1.970 . S
O1471 Li1411 1.956 . S
O1471 C1446 1.325 . S
H1472 C1414 0.929 . S
H1473 C1415 0.930 . S
H1474 C1416 0.889 1_554 S
H1475 C1417 0.930 . S
H1476 C1419 0.930 . S
H1477 C1421 0.929 . S
H1478 C1422 0.930 . S
H1479 C1423 0.930 . S
H1480 C1426 0.930 . S
H1481 C1429 0.929 . S
H1482 C1434 0.929 . S
H1483 C1435 0.930 . S
H1484 C1442 0.929 . S
H1485 C1443 0.930 . S
H1486 C1444 0.930 . S
H1487 C1445 0.930 . S
H1488 C1447 0.929 . S
H1489 C1448 0.930 . S
H1490 C1449 0.930 . S
H1491 C1450 0.930 . S
H1492 C1454 0.929 . S
H1493 C1456 0.930 . S
H1494 C1462 0.929 . S
H1495 C1463 0.930 . S
Li1496 N1513 1.990 . S
Li1496 O1556 1.956 . S
Li1496 O1557 1.970 . S
Li1496 O1558 1.961 . S
Li1497 N1521 1.990 . S
Li1497 O1556 1.970 . S
Li1497 O1557 1.956 . S
Li1497 O1559 1.961 . S
Li1498 N1543 1.990 . S
Li1498 O1556 1.961 . S
Li1498 O1558 1.956 . S
Li1498 O1559 1.970 . S
Li1499 N1549 1.990 . S
Li1499 O1557 1.961 . S
Li1499 O1558 1.970 . S
Li1499 O1559 1.956 . S
C1500 C1502 1.348 . S
C1500 C1503 1.356 . S
C1500 O1556 1.325 . S
N1501 C1504 1.314 . S
N1501 C1505 1.279 . S
C1502 C1500 1.348 . S
C1502 C1504 1.353 . S
C1502 H1560 0.929 . S
C1503 C1500 1.356 . S
C1503 C1505 1.358 . S
C1503 H1561 0.930 . S
C1504 N1501 1.314 . S
C1504 C1502 1.353 . S
C1504 H1562 0.930 . S
C1505 N1501 1.279 . S
C1505 C1503 1.358 . S
C1505 H1563 0.930 . S
C1506 C1509 1.348 . S
C1506 C1510 1.356 . S
C1506 O1557 1.325 . S
C1507 N1508 1.279 . S
C1507 C1510 1.358 . S
C1507 H1564 0.930 . S
N1508 C1507 1.279 . S
N1508 C1511 1.314 . S
C1509 C1506 1.348 . S
C1509 C1511 1.353 . S
C1509 H1565 0.929 . S
C1510 C1506 1.356 . S
C1510 C1507 1.358 . S
C1510 H1566 0.930 . S
C1511 N1508 1.314 . S
C1511 C1509 1.353 . S
C1511 H1567 0.930 . S
C1512 N1513 1.314 . S
C1512 C1517 1.353 . S
C1512 H1518 0.930 . S
N1513 Li1496 1.990 . S
N1513 C1512 1.314 . S
N1513 C1515 1.279 . S
C1514 C1515 1.358 . S
C1514 C1516 1.356 . S
C1514 H1568 0.930 . S
C1515 N1513 1.279 . S
C1515 C1514 1.358 . S
C1515 H1519 0.930 . S
C1516 C1514 1.356 . S
C1516 C1517 1.348 . S
C1517 C1512 1.353 . S
C1517 C1516 1.348 . S
C1517 H1569 0.929 . S
H1518 C1512 0.930 . S
H1519 C1515 0.930 . S
C1520 N1521 1.314 . S
C1520 C1522 1.353 . S
C1520 H1526 0.930 . S
N1521 Li1497 1.990 . S
N1521 C1520 1.314 . S
N1521 C1524 1.279 . S
C1522 C1520 1.353 . S
C1522 C1525 1.348 . S
C1522 H1570 0.929 . S
C1523 C1524 1.358 . S
C1523 C1525 1.356 . S
C1523 H1571 0.930 . S
C1524 N1521 1.279 . S
C1524 C1523 1.358 . S
C1524 H1527 0.930 . S
C1525 C1522 1.348 . S
C1525 C1523 1.356 . S
H1526 C1520 0.930 . S
H1527 C1524 0.930 . S
C1528 C1530 1.348 . S
C1528 C1531 1.356 . S
C1528 O1558 1.325 . S
N1529 C1532 1.314 . S
N1529 C1533 1.279 . S
C1530 C1528 1.348 . S
C1530 C1532 1.353 . S
C1530 H1572 0.929 . S
C1531 C1528 1.356 . S
C1531 C1533 1.358 . S
C1531 H1573 0.930 . S
C1532 N1529 1.314 . S
C1532 C1530 1.353 . S
C1532 H1574 0.930 . S
C1533 N1529 1.279 . S
C1533 C1531 1.358 . S
C1533 H1575 0.930 . S
C1534 C1535 1.348 . S
C1534 C1536 1.356 . S
C1534 O1559 1.325 . S
C1535 C1534 1.348 . S
C1535 C1537 1.353 . S
C1535 H1576 0.929 . S
C1536 C1534 1.356 . S
C1536 C1538 1.358 . S
C1536 H1577 0.930 . S
C1537 C1535 1.353 . S
C1537 N1539 1.314 . S
C1537 H1578 0.930 . S
C1538 C1536 1.358 . S
C1538 N1539 1.279 . S
C1538 H1579 0.930 . S
N1539 C1537 1.314 . S
N1539 C1538 1.279 . S
C1540 C1542 1.353 . S
C1540 N1543 1.314 . S
C1540 H1546 0.930 . S
C1541 N1543 1.279 . S
C1541 C1544 1.358 . S
C1541 H1547 0.930 . S
C1542 C1540 1.353 . S
C1542 C1545 1.348 . S
C1542 H1580 0.929 . S
N1543 Li1498 1.990 . S
N1543 C1540 1.314 . S
N1543 C1541 1.279 . S
C1544 C1541 1.358 . S
C1544 C1545 1.356 . S
C1544 H1581 0.930 . S
C1545 C1542 1.348 . S
C1545 C1544 1.356 . S
H1546 C1540 0.930 . S
H1547 C1541 0.930 . S
C1548 N1549 1.314 . S
C1548 C1550 1.353 . S
C1548 H1554 0.930 . S
N1549 Li1499 1.990 . S
N1549 C1548 1.314 . S
N1549 C1552 1.279 . S
C1550 C1548 1.353 . S
C1550 C1553 1.348 . S
C1550 H1582 0.929 . S
C1551 C1552 1.358 . S
C1551 C1553 1.356 . S
C1551 H1583 0.930 . S
C1552 N1549 1.279 . S
C1552 C1551 1.358 . S
C1552 H1555 0.930 . S
C1553 C1550 1.348 . S
C1553 C1551 1.356 . S
H1554 C1548 0.930 . S
H1555 C1552 0.930 . S
O1556 Li1496 1.956 . S
O1556 Li1497 1.970 . S
O1556 Li1498 1.961 . S
O1556 C1500 1.325 . S
O1557 Li1496 1.970 . S
O1557 Li1497 1.956 . S
O1557 Li1499 1.961 . S
O1557 C1506 1.325 . S
O1558 Li1496 1.961 . S
O1558 Li1498 1.956 . S
O1558 Li1499 1.970 . S
O1558 C1528 1.325 . S
O1559 Li1497 1.961 . S
O1559 Li1498 1.970 . S
O1559 Li1499 1.956 . S
O1559 C1534 1.325 . S
H1560 C1502 0.929 . S
H1561 C1503 0.930 . S
H1562 C1504 0.930 . S
H1563 C1505 0.930 . S
H1564 C1507 0.930 . S
H1565 C1509 0.929 . S
H1566 C1510 0.930 . S
H1567 C1511 0.930 . S
H1568 C1514 0.930 . S
H1569 C1517 0.929 . S
H1570 C1522 0.929 . S
H1571 C1523 0.930 . S
H1572 C1530 0.929 . S
H1573 C1531 0.930 . S
H1574 C1532 0.930 . S
H1575 C1533 0.930 . S
H1576 C1535 0.929 . S
H1577 C1536 0.930 . S
H1578 C1537 0.930 . S
H1579 C1538 0.930 . S
H1580 C1542 0.929 . S
H1581 C1544 0.930 . S
H1582 C1550 0.929 . S
H1583 C1551 0.930 . S
Li1584 N1601 1.990 . S
Li1584 O1644 1.956 . S
Li1584 O1645 1.970 . S
Li1584 O1646 1.961 . S
Li1585 N1609 1.990 . S
Li1585 O1644 1.970 . S
Li1585 O1645 1.956 . S
Li1585 O1647 1.961 . S
Li1586 N1631 1.990 . S
Li1586 O1644 1.961 . S
Li1586 O1646 1.956 . S
Li1586 O1647 1.970 . S
Li1587 N1637 1.990 . S
Li1587 O1645 1.961 . S
Li1587 O1646 1.970 . S
Li1587 O1647 1.956 . S
C1588 C1590 1.348 . S
C1588 C1591 1.356 . S
C1588 O1644 1.325 . S
N1589 C1592 1.314 . S
N1589 C1593 1.279 . S
C1590 C1588 1.348 . S
C1590 C1592 1.353 . S
C1590 H1648 0.929 . S
C1591 C1588 1.356 . S
C1591 C1593 1.358 . S
C1591 H1649 0.930 . S
C1592 N1589 1.314 . S
C1592 C1590 1.353 . S
C1592 H1650 0.930 . S
C1593 N1589 1.279 . S
C1593 C1591 1.358 . S
C1593 H1651 0.930 . S
C1594 C1597 1.348 . S
C1594 C1598 1.356 . S
C1594 O1645 1.325 . S
C1595 N1596 1.279 . S
C1595 C1598 1.358 . S
C1595 H1652 0.930 . S
N1596 C1595 1.279 . S
N1596 C1599 1.314 . S
C1597 C1594 1.348 . S
C1597 C1599 1.353 . S
C1597 H1653 0.929 . S
C1598 C1594 1.356 . S
C1598 C1595 1.358 . S
C1598 H1654 0.930 . S
C1599 N1596 1.314 . S
C1599 C1597 1.353 . S
C1599 H1655 0.930 . S
C1600 N1601 1.314 . S
C1600 C1605 1.353 . S
C1600 H1606 0.930 . S
N1601 Li1584 1.990 . S
N1601 C1600 1.314 . S
N1601 C1603 1.279 . S
C1602 C1603 1.358 . S
C1602 C1604 1.356 . S
C1602 H1656 0.930 . S
C1603 N1601 1.279 . S
C1603 C1602 1.358 . S
C1603 H1607 0.930 . S
C1604 C1602 1.356 . S
C1604 C1605 1.348 . S
C1605 C1600 1.353 . S
C1605 C1604 1.348 . S
C1605 H1657 0.929 . S
H1606 C1600 0.930 . S
H1607 C1603 0.930 . S
C1608 N1609 1.314 . S
C1608 C1610 1.353 . S
C1608 H1614 0.930 . S
N1609 Li1585 1.990 . S
N1609 C1608 1.314 . S
N1609 C1612 1.279 . S
C1610 C1608 1.353 . S
C1610 C1613 1.348 . S
C1610 H1658 0.929 . S
C1611 C1612 1.358 . S
C1611 C1613 1.356 . S
C1611 H1659 0.930 . S
C1612 N1609 1.279 . S
C1612 C1611 1.358 . S
C1612 H1615 0.930 . S
C1613 C1610 1.348 . S
C1613 C1611 1.356 . S
H1614 C1608 0.930 . S
H1615 C1612 0.930 . S
C1616 C1618 1.348 . S
C1616 C1619 1.356 . S
C1616 O1646 1.325 . S
N1617 C1620 1.314 . S
N1617 C1621 1.279 . S
C1618 C1616 1.348 . S
C1618 C1620 1.353 . S
C1618 H1660 0.929 . S
C1619 C1616 1.356 . S
C1619 C1621 1.358 . S
C1619 H1661 0.930 . S
C1620 N1617 1.314 . S
C1620 C1618 1.353 . S
C1620 H1662 0.930 . S
C1621 N1617 1.279 . S
C1621 C1619 1.358 . S
C1621 H1663 0.930 . S
C1622 C1623 1.348 . S
C1622 C1624 1.356 . S
C1622 O1647 1.325 . S
C1623 C1622 1.348 . S
C1623 C1625 1.353 . S
C1623 H1664 0.929 . S
C1624 C1622 1.356 . S
C1624 C1626 1.358 . S
C1624 H1665 0.930 . S
C1625 C1623 1.353 . S
C1625 N1627 1.314 . S
C1625 H1666 0.930 . S
C1626 C1624 1.358 . S
C1626 N1627 1.279 . S
C1626 H1667 0.930 . S
N1627 C1625 1.314 . S
N1627 C1626 1.279 . S
C1628 C1630 1.353 . S
C1628 N1631 1.314 . S
C1628 H1634 0.930 . S
C1629 N1631 1.279 . S
C1629 C1632 1.358 . S
C1629 H1635 0.930 . S
C1630 C1628 1.353 . S
C1630 C1633 1.348 . S
C1630 H1668 0.929 . S
N1631 Li1586 1.990 . S
N1631 C1628 1.314 . S
N1631 C1629 1.279 . S
C1632 C1629 1.358 . S
C1632 C1633 1.356 . S
C1632 H1669 0.930 . S
C1633 C1630 1.348 . S
C1633 C1632 1.356 . S
H1634 C1628 0.930 . S
H1635 C1629 0.930 . S
C1636 N1637 1.314 . S
C1636 C1638 1.353 . S
C1636 H1642 0.930 . S
N1637 Li1587 1.990 . S
N1637 C1636 1.314 . S
N1637 C1640 1.279 . S
C1638 C1636 1.353 . S
C1638 C1641 1.348 . S
C1638 H1670 0.929 . S
C1639 C1640 1.358 . S
C1639 C1641 1.356 . S
C1639 H1671 0.930 . S
C1640 N1637 1.279 . S
C1640 C1639 1.358 . S
C1640 H1643 0.930 . S
C1641 C1638 1.348 . S
C1641 C1639 1.356 . S
H1642 C1636 0.930 . S
H1643 C1640 0.930 . S
O1644 Li1584 1.956 . S
O1644 Li1585 1.970 . S
O1644 Li1586 1.961 . S
O1644 C1588 1.325 . S
O1645 Li1584 1.970 . S
O1645 Li1585 1.956 . S
O1645 Li1587 1.961 . S
O1645 C1594 1.325 . S
O1646 Li1584 1.961 . S
O1646 Li1586 1.956 . S
O1646 Li1587 1.970 . S
O1646 C1616 1.325 . S
O1647 Li1585 1.961 . S
O1647 Li1586 1.970 . S
O1647 Li1587 1.956 . S
O1647 C1622 1.325 . S
H1648 C1590 0.929 . S
H1649 C1591 0.930 . S
H1650 C1592 0.930 . S
H1651 C1593 0.930 . S
H1652 C1595 0.930 . S
H1653 C1597 0.929 . S
H1654 C1598 0.930 . S
H1655 C1599 0.930 . S
H1656 C1602 0.930 . S
H1657 C1605 0.929 . S
H1658 C1610 0.929 . S
H1659 C1611 0.930 . S
H1660 C1618 0.929 . S
H1661 C1619 0.930 . S
H1662 C1620 0.930 . S
H1663 C1621 0.930 . S
H1664 C1623 0.929 . S
H1665 C1624 0.930 . S
H1666 C1625 0.930 . S
H1667 C1626 0.930 . S
H1668 C1630 0.929 . S
H1669 C1632 0.930 . S
H1670 C1638 0.929 . S
H1671 C1639 0.930 . S
Li1672 N1689 1.990 . S
Li1672 O1732 1.956 . S
Li1672 O1733 1.970 . S
Li1672 O1734 1.961 . S
Li1673 N1697 1.990 . S
Li1673 O1732 1.970 . S
Li1673 O1733 1.956 . S
Li1673 O1735 1.961 . S
Li1674 N1719 1.990 . S
Li1674 O1732 1.961 . S
Li1674 O1734 1.956 . S
Li1674 O1735 1.970 . S
Li1675 N1725 1.990 . S
Li1675 O1733 1.961 . S
Li1675 O1734 1.970 . S
Li1675 O1735 1.956 . S
C1676 C1678 1.348 . S
C1676 C1679 1.356 . S
C1676 O1732 1.325 . S
N1677 C1680 1.314 . S
N1677 C1681 1.279 . S
C1678 C1676 1.348 . S
C1678 C1680 1.353 . S
C1678 H1736 0.929 . S
C1679 C1676 1.356 . S
C1679 C1681 1.358 . S
C1679 H1737 0.930 . S
C1680 N1677 1.314 . S
C1680 C1678 1.353 . S
C1680 H1738 0.930 . S
C1681 N1677 1.279 . S
C1681 C1679 1.358 . S
C1681 H1739 0.930 . S
C1682 C1685 1.348 . S
C1682 C1686 1.356 . S
C1682 O1733 1.325 . S
C1683 N1684 1.279 . S
C1683 C1686 1.358 . S
C1683 H1740 0.930 . S
N1684 C1683 1.279 . S
N1684 C1687 1.314 . S
C1685 C1682 1.348 . S
C1685 C1687 1.353 . S
C1685 H1741 0.929 . S
C1686 C1682 1.356 . S
C1686 C1683 1.358 . S
C1686 H1742 0.930 . S
C1687 N1684 1.314 . S
C1687 C1685 1.353 . S
C1687 H1743 0.930 . S
C1688 N1689 1.314 . S
C1688 C1693 1.353 . S
C1688 H1694 0.930 . S
N1689 Li1672 1.990 . S
N1689 C1688 1.314 . S
N1689 C1691 1.279 . S
C1690 C1691 1.358 . S
C1690 C1692 1.356 . S
C1690 H1744 0.930 . S
C1691 N1689 1.279 . S
C1691 C1690 1.358 . S
C1691 H1695 0.930 . S
C1692 C1690 1.356 . S
C1692 C1693 1.348 . S
C1693 C1688 1.353 . S
C1693 C1692 1.348 . S
C1693 H1745 0.929 . S
H1694 C1688 0.930 . S
H1695 C1691 0.930 . S
C1696 N1697 1.314 . S
C1696 C1698 1.353 . S
C1696 H1702 0.930 . S
N1697 Li1673 1.990 . S
N1697 C1696 1.314 . S
N1697 C1700 1.279 . S
C1698 C1696 1.353 . S
C1698 C1701 1.348 . S
C1698 H1746 0.929 . S
C1699 C1700 1.358 . S
C1699 C1701 1.356 . S
C1699 H1747 0.930 . S
C1700 N1697 1.279 . S
C1700 C1699 1.358 . S
C1700 H1703 0.930 . S
C1701 C1698 1.348 . S
C1701 C1699 1.356 . S
H1702 C1696 0.930 . S
H1703 C1700 0.930 . S
C1704 C1706 1.348 . S
C1704 C1707 1.356 . S
C1704 O1734 1.325 . S
N1705 C1708 1.314 . S
N1705 C1709 1.279 . S
C1706 C1704 1.348 . S
C1706 C1708 1.353 . S
C1706 H1748 0.929 . S
C1707 C1704 1.356 . S
C1707 C1709 1.358 . S
C1707 H1749 0.930 . S
C1708 N1705 1.314 . S
C1708 C1706 1.353 . S
C1708 H1750 0.887 1_554 S
C1709 N1705 1.279 . S
C1709 C1707 1.358 . S
C1709 H1751 0.930 . S
C1710 C1711 1.348 . S
C1710 C1712 1.356 . S
C1710 O1735 1.325 . S
C1711 C1710 1.348 . S
C1711 C1713 1.353 . S
C1711 H1752 0.929 . S
C1712 C1710 1.356 . S
C1712 C1714 1.358 . S
C1712 H1753 0.930 . S
C1713 C1711 1.353 . S
C1713 N1715 1.314 . S
C1713 H1754 0.930 . S
C1714 C1712 1.358 . S
C1714 N1715 1.279 . S
C1714 H1755 0.930 . S
N1715 C1713 1.314 . S
N1715 C1714 1.279 . S
C1716 C1718 1.353 . S
C1716 N1719 1.314 . S
C1716 H1722 0.930 . S
C1717 N1719 1.279 . S
C1717 C1720 1.358 . S
C1717 H1723 0.930 . S
C1718 C1716 1.353 . S
C1718 C1721 1.348 . S
C1718 H1756 0.929 . S
N1719 Li1674 1.990 . S
N1719 C1716 1.314 . S
N1719 C1717 1.279 . S
C1720 C1717 1.358 . S
C1720 C1721 1.356 . S
C1720 H1757 0.930 . S
C1721 C1718 1.348 . S
C1721 C1720 1.356 . S
H1722 C1716 0.930 . S
H1723 C1717 0.930 . S
C1724 N1725 1.314 . S
C1724 C1726 1.353 . S
C1724 H1730 0.930 . S
N1725 Li1675 1.990 . S
N1725 C1724 1.314 . S
N1725 C1728 1.279 . S
C1726 C1724 1.353 . S
C1726 C1729 1.348 . S
C1726 H1758 0.929 . S
C1727 C1728 1.358 . S
C1727 C1729 1.356 . S
C1727 H1759 0.930 . S
C1728 N1725 1.279 . S
C1728 C1727 1.358 . S
C1728 H1731 0.930 . S
C1729 C1726 1.348 . S
C1729 C1727 1.356 . S
H1730 C1724 0.930 . S
H1731 C1728 0.930 . S
O1732 Li1672 1.956 . S
O1732 Li1673 1.970 . S
O1732 Li1674 1.961 . S
O1732 C1676 1.325 . S
O1733 Li1672 1.970 . S
O1733 Li1673 1.956 . S
O1733 Li1675 1.961 . S
O1733 C1682 1.325 . S
O1734 Li1672 1.961 . S
O1734 Li1674 1.956 . S
O1734 Li1675 1.970 . S
O1734 C1704 1.325 . S
O1735 Li1673 1.961 . S
O1735 Li1674 1.970 . S
O1735 Li1675 1.956 . S
O1735 C1710 1.325 . S
H1736 C1678 0.929 . S
H1737 C1679 0.930 . S
H1738 C1680 0.930 . S
H1739 C1681 0.930 . S
H1740 C1683 0.930 . S
H1741 C1685 0.929 . S
H1742 C1686 0.930 . S
H1743 C1687 0.930 . S
H1744 C1690 0.930 . S
H1745 C1693 0.929 . S
H1746 C1698 0.929 . S
H1747 C1699 0.930 . S
H1748 C1706 0.929 . S
H1749 C1707 0.930 . S
H1750 C1708 0.887 1_556 S
H1751 C1709 0.930 . S
H1752 C1711 0.929 . S
H1753 C1712 0.930 . S
H1754 C1713 0.930 . S
H1755 C1714 0.930 . S
H1756 C1718 0.929 . S
H1757 C1720 0.930 . S
H1758 C1726 0.929 . S
H1759 C1727 0.930 . S
Li1760 N1777 1.990 . S
Li1760 O1820 1.956 . S
Li1760 O1821 1.970 . S
Li1760 O1822 1.961 . S
Li1761 N1785 1.990 . S
Li1761 O1820 1.970 . S
Li1761 O1821 1.956 . S
Li1761 O1823 1.961 . S
Li1762 N1807 1.990 . S
Li1762 O1820 1.961 . S
Li1762 O1822 1.956 . S
Li1762 O1823 1.970 . S
Li1763 N1813 1.990 . S
Li1763 O1821 1.961 . S
Li1763 O1822 1.970 . S
Li1763 O1823 1.956 . S
C1764 C1766 1.348 . S
C1764 C1767 1.356 . S
C1764 O1820 1.325 . S
N1765 C1768 1.314 . S
N1765 C1769 1.279 . S
C1766 C1764 1.348 . S
C1766 C1768 1.353 . S
C1766 H1824 0.929 . S
C1767 C1764 1.356 . S
C1767 C1769 1.358 . S
C1767 H1825 0.930 . S
C1768 N1765 1.314 . S
C1768 C1766 1.353 . S
C1768 H1826 0.930 . S
C1769 N1765 1.279 . S
C1769 C1767 1.358 . S
C1769 H1827 0.930 . S
C1770 C1773 1.348 . S
C1770 C1774 1.356 . S
C1770 O1821 1.325 . S
C1771 N1772 1.279 . S
C1771 C1774 1.358 . S
C1771 H1828 0.930 . S
N1772 C1771 1.279 . S
N1772 C1775 1.314 . S
C1773 C1770 1.348 . S
C1773 C1775 1.353 . S
C1773 H1829 0.929 . S
C1774 C1770 1.356 . S
C1774 C1771 1.358 . S
C1774 H1830 0.930 . S
C1775 N1772 1.314 . S
C1775 C1773 1.353 . S
C1775 H1831 0.930 . S
C1776 N1777 1.314 . S
C1776 C1781 1.353 . S
C1776 H1782 0.930 . S
N1777 Li1760 1.990 . S
N1777 C1776 1.314 . S
N1777 C1779 1.279 . S
C1778 C1779 1.358 . S
C1778 C1780 1.356 . S
C1778 H1832 0.930 . S
C1779 N1777 1.279 . S
C1779 C1778 1.358 . S
C1779 H1783 0.930 . S
C1780 C1778 1.356 . S
C1780 C1781 1.348 . S
C1781 C1776 1.353 . S
C1781 C1780 1.348 . S
C1781 H1833 0.929 . S
H1782 C1776 0.930 . S
H1783 C1779 0.930 . S
C1784 N1785 1.314 . S
C1784 C1786 1.353 . S
C1784 H1790 0.930 . S
N1785 Li1761 1.990 . S
N1785 C1784 1.314 . S
N1785 C1788 1.279 . S
C1786 C1784 1.353 . S
C1786 C1789 1.348 . S
C1786 H1834 0.929 . S
C1787 C1788 1.358 . S
C1787 C1789 1.356 . S
C1787 H1835 0.930 . S
C1788 N1785 1.279 . S
C1788 C1787 1.358 . S
C1788 H1791 0.930 . S
C1789 C1786 1.348 . S
C1789 C1787 1.356 . S
H1790 C1784 0.930 . S
H1791 C1788 0.930 . S
C1792 C1794 1.348 . S
C1792 C1795 1.356 . S
C1792 O1822 1.325 . S
N1793 C1796 1.314 . S
N1793 C1797 1.279 . S
C1794 C1792 1.348 . S
C1794 C1796 1.353 . S
C1794 H1836 0.929 . S
C1795 C1792 1.356 . S
C1795 C1797 1.358 . S
C1795 H1837 0.930 . S
C1796 N1793 1.314 . S
C1796 C1794 1.353 . S
C1796 H1838 0.930 . S
C1797 N1793 1.279 . S
C1797 C1795 1.358 . S
C1797 H1839 0.930 . S
C1798 C1799 1.348 . S
C1798 C1800 1.356 . S
C1798 O1823 1.325 . S
C1799 C1798 1.348 . S
C1799 C1801 1.353 . S
C1799 H1840 0.929 . S
C1800 C1798 1.356 . S
C1800 C1802 1.358 . S
C1800 H1841 0.930 . S
C1801 C1799 1.353 . S
C1801 N1803 1.314 . S
C1801 H1842 0.930 . S
C1802 C1800 1.358 . S
C1802 N1803 1.279 . S
C1802 H1843 0.930 . S
N1803 C1801 1.314 . S
N1803 C1802 1.279 . S
C1804 C1806 1.353 . S
C1804 N1807 1.314 . S
C1804 H1810 0.930 . S
C1805 N1807 1.279 . S
C1805 C1808 1.358 . S
C1805 H1811 0.930 . S
C1806 C1804 1.353 . S
C1806 C1809 1.348 . S
C1806 H1844 0.929 . S
N1807 Li1762 1.990 . S
N1807 C1804 1.314 . S
N1807 C1805 1.279 . S
C1808 C1805 1.358 . S
C1808 C1809 1.356 . S
C1808 H1845 0.930 . S
C1809 C1806 1.348 . S
C1809 C1808 1.356 . S
H1810 C1804 0.930 . S
H1811 C1805 0.930 . S
C1812 N1813 1.314 . S
C1812 C1814 1.353 . S
C1812 H1818 0.930 . S
N1813 Li1763 1.990 . S
N1813 C1812 1.314 . S
N1813 C1816 1.279 . S
C1814 C1812 1.353 . S
C1814 C1817 1.348 . S
C1814 H1846 0.929 . S
C1815 C1816 1.358 . S
C1815 C1817 1.356 . S
C1815 H1847 0.930 . S
C1816 N1813 1.279 . S
C1816 C1815 1.358 . S
C1816 H1819 0.930 . S
C1817 C1814 1.348 . S
C1817 C1815 1.356 . S
H1818 C1812 0.930 . S
H1819 C1816 0.930 . S
O1820 Li1760 1.956 . S
O1820 Li1761 1.970 . S
O1820 Li1762 1.961 . S
O1820 C1764 1.325 . S
O1821 Li1760 1.970 . S
O1821 Li1761 1.956 . S
O1821 Li1763 1.961 . S
O1821 C1770 1.325 . S
O1822 Li1760 1.961 . S
O1822 Li1762 1.956 . S
O1822 Li1763 1.970 . S
O1822 C1792 1.325 . S
O1823 Li1761 1.961 . S
O1823 Li1762 1.970 . S
O1823 Li1763 1.956 . S
O1823 C1798 1.325 . S
H1824 C1766 0.929 . S
H1825 C1767 0.930 . S
H1826 C1768 0.930 . S
H1827 C1769 0.930 . S
H1828 C1771 0.930 . S
H1829 C1773 0.929 . S
H1830 C1774 0.930 . S
H1831 C1775 0.930 . S
H1832 C1778 0.930 . S
H1833 C1781 0.929 . S
H1834 C1786 0.929 . S
H1835 C1787 0.930 . S
H1836 C1794 0.929 . S
H1837 C1795 0.930 . S
H1838 C1796 0.930 . S
H1839 C1797 0.930 . S
H1840 C1799 0.929 . S
H1841 C1800 0.930 . S
H1842 C1801 0.930 . S
H1843 C1802 0.930 . S
H1844 C1806 0.929 . S
H1845 C1808 0.930 . S
H1846 C1814 0.929 . S
H1847 C1815 0.930 . S
Li1848 N1865 1.990 . S
Li1848 O1908 1.956 . S
Li1848 O1909 1.970 . S
Li1848 O1910 1.961 . S
Li1849 N1873 1.990 . S
Li1849 O1908 1.970 . S
Li1849 O1909 1.956 . S
Li1849 O1911 1.961 . S
Li1850 N1895 1.990 . S
Li1850 O1908 1.961 . S
Li1850 O1910 1.956 . S
Li1850 O1911 1.970 . S
Li1851 N1901 1.990 . S
Li1851 O1909 1.961 . S
Li1851 O1910 1.970 . S
Li1851 O1911 1.956 . S
C1852 C1854 1.348 . S
C1852 C1855 1.356 . S
C1852 O1908 1.325 . S
N1853 C1856 1.314 . S
N1853 C1857 1.279 . S
C1854 C1852 1.348 . S
C1854 C1856 1.353 . S
C1854 H1912 0.929 . S
C1855 C1852 1.356 . S
C1855 C1857 1.358 . S
C1855 H1913 0.930 . S
C1856 N1853 1.314 . S
C1856 C1854 1.353 . S
C1856 H1914 0.930 . S
C1857 N1853 1.279 . S
C1857 C1855 1.358 . S
C1857 H1915 0.930 . S
C1858 C1861 1.348 . S
C1858 C1862 1.356 . S
C1858 O1909 1.325 . S
C1859 N1860 1.279 . S
C1859 C1862 1.358 . S
C1859 H1916 0.930 . S
N1860 C1859 1.279 . S
N1860 C1863 1.314 . S
C1861 C1858 1.348 . S
C1861 C1863 1.353 . S
C1861 H1917 0.929 . S
C1862 C1858 1.356 . S
C1862 C1859 1.358 . S
C1862 H1918 0.930 . S
C1863 N1860 1.314 . S
C1863 C1861 1.353 . S
C1863 H1919 0.930 . S
C1864 N1865 1.314 . S
C1864 C1869 1.353 . S
C1864 H1870 0.930 . S
N1865 Li1848 1.990 . S
N1865 C1864 1.314 . S
N1865 C1867 1.279 . S
C1866 C1867 1.358 . S
C1866 C1868 1.356 . S
C1866 H1920 0.930 . S
C1867 N1865 1.279 . S
C1867 C1866 1.358 . S
C1867 H1871 0.930 . S
C1868 C1866 1.356 . S
C1868 C1869 1.348 . S
C1869 C1864 1.353 . S
C1869 C1868 1.348 . S
C1869 H1921 0.929 . S
H1870 C1864 0.930 . S
H1871 C1867 0.930 . S
C1872 N1873 1.314 . S
C1872 C1874 1.353 . S
C1872 H1878 0.930 . S
N1873 Li1849 1.990 . S
N1873 C1872 1.314 . S
N1873 C1876 1.279 . S
C1874 C1872 1.353 . S
C1874 C1877 1.348 . S
C1874 H1922 0.929 . S
C1875 C1876 1.358 . S
C1875 C1877 1.356 . S
C1875 H1923 0.930 . S
C1876 N1873 1.279 . S
C1876 C1875 1.358 . S
C1876 H1879 0.930 . S
C1877 C1874 1.348 . S
C1877 C1875 1.356 . S
H1878 C1872 0.930 . S
H1879 C1876 0.930 . S
C1880 C1882 1.348 . S
C1880 C1883 1.356 . S
C1880 O1910 1.325 . S
N1881 C1884 1.314 . S
N1881 C1885 1.279 . S
C1882 C1880 1.348 . S
C1882 C1884 1.353 . S
C1882 H1924 0.929 . S
C1883 C1880 1.356 . S
C1883 C1885 1.358 . S
C1883 H1925 0.930 . S
C1884 N1881 1.314 . S
C1884 C1882 1.353 . S
C1884 H1926 0.930 . S
C1885 N1881 1.279 . S
C1885 C1883 1.358 . S
C1885 H1927 0.930 . S
C1886 C1887 1.348 . S
C1886 C1888 1.356 . S
C1886 O1911 1.325 . S
C1887 C1886 1.348 . S
C1887 C1889 1.353 . S
C1887 H1928 0.929 . S
C1888 C1886 1.356 . S
C1888 C1890 1.358 . S
C1888 H1929 0.930 . S
C1889 C1887 1.353 . S
C1889 N1891 1.314 . S
C1889 H1930 0.890 1_554 S
C1890 C1888 1.358 . S
C1890 N1891 1.279 . S
C1890 H1931 0.930 . S
N1891 C1889 1.314 . S
N1891 C1890 1.279 . S
C1892 C1894 1.353 . S
C1892 N1895 1.314 . S
C1892 H1898 0.930 . S
C1893 N1895 1.279 . S
C1893 C1896 1.358 . S
C1893 H1899 0.930 . S
C1894 C1892 1.353 . S
C1894 C1897 1.348 . S
C1894 H1932 0.929 . S
N1895 Li1850 1.990 . S
N1895 C1892 1.314 . S
N1895 C1893 1.279 . S
C1896 C1893 1.358 . S
C1896 C1897 1.356 . S
C1896 H1933 0.930 . S
C1897 C1894 1.348 . S
C1897 C1896 1.356 . S
H1898 C1892 0.930 . S
H1899 C1893 0.930 . S
C1900 N1901 1.314 . S
C1900 C1902 1.353 . S
C1900 H1906 0.930 . S
N1901 Li1851 1.990 . S
N1901 C1900 1.314 . S
N1901 C1904 1.279 . S
C1902 C1900 1.353 . S
C1902 C1905 1.348 . S
C1902 H1934 0.929 . S
C1903 C1904 1.358 . S
C1903 C1905 1.356 . S
C1903 H1935 0.930 . S
C1904 N1901 1.279 . S
C1904 C1903 1.358 . S
C1904 H1907 0.930 . S
C1905 C1902 1.348 . S
C1905 C1903 1.356 . S
H1906 C1900 0.930 . S
H1907 C1904 0.930 . S
O1908 Li1848 1.956 . S
O1908 Li1849 1.970 . S
O1908 Li1850 1.961 . S
O1908 C1852 1.325 . S
O1909 Li1848 1.970 . S
O1909 Li1849 1.956 . S
O1909 Li1851 1.961 . S
O1909 C1858 1.325 . S
O1910 Li1848 1.961 . S
O1910 Li1850 1.956 . S
O1910 Li1851 1.970 . S
O1910 C1880 1.325 . S
O1911 Li1849 1.961 . S
O1911 Li1850 1.970 . S
O1911 Li1851 1.956 . S
O1911 C1886 1.325 . S
H1912 C1854 0.929 . S
H1913 C1855 0.930 . S
H1914 C1856 0.930 . S
H1915 C1857 0.930 . S
H1916 C1859 0.930 . S
H1917 C1861 0.929 . S
H1918 C1862 0.930 . S
H1919 C1863 0.930 . S
H1920 C1866 0.930 . S
H1921 C1869 0.929 . S
H1922 C1874 0.929 . S
H1923 C1875 0.930 . S
H1924 C1882 0.929 . S
H1925 C1883 0.930 . S
H1926 C1884 0.930 . S
H1927 C1885 0.930 . S
H1928 C1887 0.929 . S
H1929 C1888 0.930 . S
H1930 C1889 0.890 1_556 S
H1931 C1890 0.930 . S
H1932 C1894 0.929 . S
H1933 C1896 0.930 . S
H1934 C1902 0.929 . S
H1935 C1903 0.930 . S
Li1936 N1953 1.990 . S
Li1936 O1996 1.956 . S
Li1936 O1997 1.970 . S
Li1936 O1998 1.961 . S
Li1937 N1961 1.990 . S
Li1937 O1996 1.970 . S
Li1937 O1997 1.956 . S
Li1937 O1999 1.961 . S
Li1938 N1983 1.990 . S
Li1938 O1996 1.961 . S
Li1938 O1998 1.956 . S
Li1938 O1999 1.970 . S
Li1939 N1989 1.990 . S
Li1939 O1997 1.961 . S
Li1939 O1998 1.970 . S
Li1939 O1999 1.956 . S
C1940 C1942 1.348 . S
C1940 C1943 1.356 . S
C1940 O1996 1.325 . S
N1941 C1944 1.314 . S
N1941 C1945 1.279 . S
C1942 C1940 1.348 . S
C1942 C1944 1.353 . S
C1942 H2000 0.929 . S
C1943 C1940 1.356 . S
C1943 C1945 1.358 . S
C1943 H2001 0.930 . S
C1944 N1941 1.314 . S
C1944 C1942 1.353 . S
C1944 H2002 0.930 . S
C1945 N1941 1.279 . S
C1945 C1943 1.358 . S
C1945 H2003 0.930 . S
C1946 C1949 1.348 . S
C1946 C1950 1.356 . S
C1946 O1997 1.325 . S
C1947 N1948 1.279 . S
C1947 C1950 1.358 . S
C1947 H2004 0.930 . S
N1948 C1947 1.279 . S
N1948 C1951 1.314 . S
C1949 C1946 1.348 . S
C1949 C1951 1.353 . S
C1949 H2005 0.929 . S
C1950 C1946 1.356 . S
C1950 C1947 1.358 . S
C1950 H2006 0.930 . S
C1951 N1948 1.314 . S
C1951 C1949 1.353 . S
C1951 H2007 0.930 . S
C1952 N1953 1.314 . S
C1952 C1957 1.353 . S
C1952 H1958 0.930 . S
N1953 Li1936 1.990 . S
N1953 C1952 1.314 . S
N1953 C1955 1.279 . S
C1954 C1955 1.358 . S
C1954 C1956 1.356 . S
C1954 H2008 0.930 . S
C1955 N1953 1.279 . S
C1955 C1954 1.358 . S
C1955 H1959 0.930 . S
C1956 C1954 1.356 . S
C1956 C1957 1.348 . S
C1957 C1952 1.353 . S
C1957 C1956 1.348 . S
C1957 H2009 0.929 . S
H1958 C1952 0.930 . S
H1959 C1955 0.930 . S
C1960 N1961 1.314 . S
C1960 C1962 1.353 . S
C1960 H1966 0.930 . S
N1961 Li1937 1.990 . S
N1961 C1960 1.314 . S
N1961 C1964 1.279 . S
C1962 C1960 1.353 . S
C1962 C1965 1.348 . S
C1962 H2010 0.929 . S
C1963 C1964 1.358 . S
C1963 C1965 1.356 . S
C1963 H2011 0.930 . S
C1964 N1961 1.279 . S
C1964 C1963 1.358 . S
C1964 H1967 0.930 . S
C1965 C1962 1.348 . S
C1965 C1963 1.356 . S
H1966 C1960 0.930 . S
H1967 C1964 0.930 . S
C1968 C1970 1.348 . S
C1968 C1971 1.356 . S
C1968 O1998 1.325 . S
N1969 C1972 1.314 . S
N1969 C1973 1.279 . S
C1970 C1968 1.348 . S
C1970 C1972 1.353 . S
C1970 H2012 0.929 . S
C1971 C1968 1.356 . S
C1971 C1973 1.358 . S
C1971 H2013 0.930 . S
C1972 N1969 1.314 . S
C1972 C1970 1.353 . S
C1972 H2014 0.930 . S
C1973 N1969 1.279 . S
C1973 C1971 1.358 . S
C1973 H2015 0.930 . S
C1974 C1975 1.348 . S
C1974 C1976 1.356 . S
C1974 O1999 1.325 . S
C1975 C1974 1.348 . S
C1975 C1977 1.353 . S
C1975 H2016 0.929 . S
C1976 C1974 1.356 . S
C1976 C1978 1.358 . S
C1976 H2017 0.930 . S
C1977 C1975 1.353 . S
C1977 N1979 1.314 . S
C1977 H2018 0.930 . S
C1978 C1976 1.358 . S
C1978 N1979 1.279 . S
C1978 H2019 0.930 . S
N1979 C1977 1.314 . S
N1979 C1978 1.279 . S
C1980 C1982 1.353 . S
C1980 N1983 1.314 . S
C1980 H1986 0.930 . S
C1981 N1983 1.279 . S
C1981 C1984 1.358 . S
C1981 H1987 0.930 . S
C1982 C1980 1.353 . S
C1982 C1985 1.348 . S
C1982 H2020 0.929 . S
N1983 Li1938 1.990 . S
N1983 C1980 1.314 . S
N1983 C1981 1.279 . S
C1984 C1981 1.358 . S
C1984 C1985 1.356 . S
C1984 H2021 0.930 . S
C1985 C1982 1.348 . S
C1985 C1984 1.356 . S
H1986 C1980 0.930 . S
H1987 C1981 0.930 . S
C1988 N1989 1.314 . S
C1988 C1990 1.353 . S
C1988 H1994 0.930 . S
N1989 Li1939 1.990 . S
N1989 C1988 1.314 . S
N1989 C1992 1.279 . S
C1990 C1988 1.353 . S
C1990 C1993 1.348 . S
C1990 H2022 0.929 . S
C1991 C1992 1.358 . S
C1991 C1993 1.356 . S
C1991 H2023 0.930 . S
C1992 N1989 1.279 . S
C1992 C1991 1.358 . S
C1992 H1995 0.930 . S
C1993 C1990 1.348 . S
C1993 C1991 1.356 . S
H1994 C1988 0.930 . S
H1995 C1992 0.930 . S
O1996 Li1936 1.956 . S
O1996 Li1937 1.970 . S
O1996 Li1938 1.961 . S
O1996 C1940 1.325 . S
O1997 Li1936 1.970 . S
O1997 Li1937 1.956 . S
O1997 Li1939 1.961 . S
O1997 C1946 1.325 . S
O1998 Li1936 1.961 . S
O1998 Li1938 1.956 . S
O1998 Li1939 1.970 . S
O1998 C1968 1.325 . S
O1999 Li1937 1.961 . S
O1999 Li1938 1.970 . S
O1999 Li1939 1.956 . S
O1999 C1974 1.325 . S
H2000 C1942 0.929 . S
H2001 C1943 0.930 . S
H2002 C1944 0.930 . S
H2003 C1945 0.930 . S
H2004 C1947 0.930 . S
H2005 C1949 0.929 . S
H2006 C1950 0.930 . S
H2007 C1951 0.930 . S
H2008 C1954 0.930 . S
H2009 C1957 0.929 . S
H2010 C1962 0.929 . S
H2011 C1963 0.930 . S
H2012 C1970 0.929 . S
H2013 C1971 0.930 . S
H2014 C1972 0.930 . S
H2015 C1973 0.930 . S
H2016 C1975 0.929 . S
H2017 C1976 0.930 . S
H2018 C1977 0.930 . S
H2019 C1978 0.930 . S
H2020 C1982 0.929 . S
H2021 C1984 0.930 . S
H2022 C1990 0.929 . S
H2023 C1991 0.930 . S
Li2024 N2041 1.990 . S
Li2024 O2084 1.956 . S
Li2024 O2085 1.970 . S
Li2024 O2086 1.961 . S
Li2025 N2049 1.990 . S
Li2025 O2084 1.970 . S
Li2025 O2085 1.956 . S
Li2025 O2087 1.961 . S
Li2026 N2071 1.990 . S
Li2026 O2084 1.961 . S
Li2026 O2086 1.956 . S
Li2026 O2087 1.970 . S
Li2027 N2077 1.990 . S
Li2027 O2085 1.961 . S
Li2027 O2086 1.970 . S
Li2027 O2087 1.956 . S
C2028 C2030 1.348 . S
C2028 C2031 1.356 . S
C2028 O2084 1.325 . S
N2029 C2032 1.314 . S
N2029 C2033 1.279 . S
C2030 C2028 1.348 . S
C2030 C2032 1.353 . S
C2030 H2088 0.929 . S
C2031 C2028 1.356 . S
C2031 C2033 1.358 . S
C2031 H2089 0.930 . S
C2032 N2029 1.314 . S
C2032 C2030 1.353 . S
C2032 H2090 0.930 . S
C2033 N2029 1.279 . S
C2033 C2031 1.358 . S
C2033 H2091 0.930 . S
C2034 C2037 1.348 . S
C2034 C2038 1.356 . S
C2034 O2085 1.325 . S
C2035 N2036 1.279 . S
C2035 C2038 1.358 . S
C2035 H2092 0.930 . S
N2036 C2035 1.279 . S
N2036 C2039 1.314 . S
C2037 C2034 1.348 . S
C2037 C2039 1.353 . S
C2037 H2093 0.929 . S
C2038 C2034 1.356 . S
C2038 C2035 1.358 . S
C2038 H2094 0.930 . S
C2039 N2036 1.314 . S
C2039 C2037 1.353 . S
C2039 H2095 0.930 . S
C2040 N2041 1.314 . S
C2040 C2045 1.353 . S
C2040 H2046 0.930 . S
N2041 Li2024 1.990 . S
N2041 C2040 1.314 . S
N2041 C2043 1.279 . S
C2042 C2043 1.358 . S
C2042 C2044 1.356 . S
C2042 H2096 0.930 . S
C2043 N2041 1.279 . S
C2043 C2042 1.358 . S
C2043 H2047 0.930 . S
C2044 C2042 1.356 . S
C2044 C2045 1.348 . S
C2045 C2040 1.353 . S
C2045 C2044 1.348 . S
C2045 H2097 0.929 . S
H2046 C2040 0.930 . S
H2047 C2043 0.930 . S
C2048 N2049 1.314 . S
C2048 C2050 1.353 . S
C2048 H2054 0.930 . S
N2049 Li2025 1.990 . S
N2049 C2048 1.314 . S
N2049 C2052 1.279 . S
C2050 C2048 1.353 . S
C2050 C2053 1.348 . S
C2050 H2098 0.929 . S
C2051 C2052 1.358 . S
C2051 C2053 1.356 . S
C2051 H2099 0.930 . S
C2052 N2049 1.279 . S
C2052 C2051 1.358 . S
C2052 H2055 0.930 . S
C2053 C2050 1.348 . S
C2053 C2051 1.356 . S
H2054 C2048 0.930 . S
H2055 C2052 0.930 . S
C2056 C2058 1.348 . S
C2056 C2059 1.356 . S
C2056 O2086 1.325 . S
N2057 C2060 1.314 . S
N2057 C2061 1.279 . S
C2058 C2056 1.348 . S
C2058 C2060 1.353 . S
C2058 H2100 0.929 . S
C2059 C2056 1.356 . S
C2059 C2061 1.358 . S
C2059 H2101 0.930 . S
C2060 N2057 1.314 . S
C2060 C2058 1.353 . S
C2060 H2102 0.930 . S
C2061 N2057 1.279 . S
C2061 C2059 1.358 . S
C2061 H2103 0.930 . S
C2062 C2063 1.348 . S
C2062 C2064 1.356 . S
C2062 O2087 1.325 . S
C2063 C2062 1.348 . S
C2063 C2065 1.353 . S
C2063 H2104 0.929 . S
C2064 C2062 1.356 . S
C2064 C2066 1.358 . S
C2064 H2105 0.930 . S
C2065 C2063 1.353 . S
C2065 N2067 1.314 . S
C2065 H2106 0.888 1_554 S
C2066 C2064 1.358 . S
C2066 N2067 1.279 . S
C2066 H2107 0.930 . S
N2067 C2065 1.314 . S
N2067 C2066 1.279 . S
C2068 C2070 1.353 . S
C2068 N2071 1.314 . S
C2068 H2074 0.930 . S
C2069 N2071 1.279 . S
C2069 C2072 1.358 . S
C2069 H2075 0.930 . S
C2070 C2068 1.353 . S
C2070 C2073 1.348 . S
C2070 H2108 0.929 . S
N2071 Li2026 1.990 . S
N2071 C2068 1.314 . S
N2071 C2069 1.279 . S
C2072 C2069 1.358 . S
C2072 C2073 1.356 . S
C2072 H2109 0.930 . S
C2073 C2070 1.348 . S
C2073 C2072 1.356 . S
H2074 C2068 0.930 . S
H2075 C2069 0.930 . S
C2076 N2077 1.314 . S
C2076 C2078 1.353 . S
C2076 H2082 0.930 . S
N2077 Li2027 1.990 . S
N2077 C2076 1.314 . S
N2077 C2080 1.279 . S
C2078 C2076 1.353 . S
C2078 C2081 1.348 . S
C2078 H2110 0.929 . S
C2079 C2080 1.358 . S
C2079 C2081 1.356 . S
C2079 H2111 0.930 . S
C2080 N2077 1.279 . S
C2080 C2079 1.358 . S
C2080 H2083 0.930 . S
C2081 C2078 1.348 . S
C2081 C2079 1.356 . S
H2082 C2076 0.930 . S
H2083 C2080 0.930 . S
O2084 Li2024 1.956 . S
O2084 Li2025 1.970 . S
O2084 Li2026 1.961 . S
O2084 C2028 1.325 . S
O2085 Li2024 1.970 . S
O2085 Li2025 1.956 . S
O2085 Li2027 1.961 . S
O2085 C2034 1.325 . S
O2086 Li2024 1.961 . S
O2086 Li2026 1.956 . S
O2086 Li2027 1.970 . S
O2086 C2056 1.325 . S
O2087 Li2025 1.961 . S
O2087 Li2026 1.970 . S
O2087 Li2027 1.956 . S
O2087 C2062 1.325 . S
H2088 C2030 0.929 . S
H2089 C2031 0.930 . S
H2090 C2032 0.930 . S
H2091 C2033 0.930 . S
H2092 C2035 0.930 . S
H2093 C2037 0.929 . S
H2094 C2038 0.930 . S
H2095 C2039 0.930 . S
H2096 C2042 0.930 . S
H2097 C2045 0.929 . S
H2098 C2050 0.929 . S
H2099 C2051 0.930 . S
H2100 C2058 0.929 . S
H2101 C2059 0.930 . S
H2102 C2060 0.930 . S
H2103 C2061 0.930 . S
H2104 C2063 0.929 . S
H2105 C2064 0.930 . S
H2106 C2065 0.888 1_556 S
H2107 C2066 0.930 . S
H2108 C2070 0.929 . S
H2109 C2072 0.930 . S
H2110 C2078 0.929 . S
H2111 C2079 0.930 . S
H2112 C2120 0.950 . S
H2113 C2125 0.950 . S
H2114 C2122 0.950 . S
H2115 C2124 0.950 . S
H2116 C2126 0.950 . S
H2117 C2128 0.950 . S
H2118 C2130 0.950 . S
H2119 C2131 0.950 . S
C2120 H2112 0.950 . S
C2120 C2121 1.386 . S
C2120 C2122 1.391 . S
C2121 C2120 1.386 . S
C2121 C2125 1.393 . S
C2122 H2114 0.950 . S
C2122 C2120 1.391 . S
C2122 C2123 1.400 . S
C2123 C2122 1.400 . S
C2123 C2124 1.398 . S
C2123 C2129 1.491 . S
C2124 H2115 0.950 . S
C2124 C2123 1.398 . S
C2124 C2125 1.391 . S
C2125 H2113 0.950 . S
C2125 C2121 1.393 . S
C2125 C2124 1.391 . S
C2126 H2116 0.950 . S
C2126 C2127 1.386 . S
C2126 C2128 1.391 . S
C2127 C2126 1.386 . S
C2127 C2131 1.393 . S
C2128 H2117 0.950 . S
C2128 C2126 1.391 . S
C2128 C2129 1.400 . S
C2129 C2123 1.491 . S
C2129 C2128 1.400 . S
C2129 C2130 1.398 . S
C2130 H2118 0.950 . S
C2130 C2129 1.398 . S
C2130 C2131 1.391 . S
C2131 H2119 0.950 . S
C2131 C2127 1.393 . S
C2131 C2130 1.391 . S
H2132 C2140 0.950 . S
H2133 C2145 0.950 . S
H2134 C2142 0.950 . S
H2135 C2144 0.950 . S
H2136 C2146 0.950 . S
H2137 C2148 0.950 . S
H2138 C2150 0.950 . S
H2139 C2151 0.950 . S
C2140 H2132 0.950 . S
C2140 C2141 1.386 . S
C2140 C2142 1.391 . S
C2141 C2140 1.386 . S
C2141 C2145 1.393 . S
C2142 H2134 0.950 . S
C2142 C2140 1.391 . S
C2142 C2143 1.400 . S
C2143 C2142 1.400 . S
C2143 C2144 1.398 . S
C2143 C2149 1.491 . S
C2144 H2135 0.950 . S
C2144 C2143 1.398 . S
C2144 C2145 1.391 . S
C2145 H2133 0.950 . S
C2145 C2141 1.393 . S
C2145 C2144 1.391 . S
C2146 H2136 0.950 . S
C2146 C2147 1.386 . S
C2146 C2148 1.391 . S
C2147 C2146 1.386 . S
C2147 C2151 1.393 . S
C2148 H2137 0.950 . S
C2148 C2146 1.391 . S
C2148 C2149 1.400 . S
C2149 C2143 1.491 . S
C2149 C2148 1.400 . S
C2149 C2150 1.398 . S
C2150 H2138 0.950 . S
C2150 C2149 1.398 . S
C2150 C2151 1.391 . S
C2151 H2139 0.950 . S
C2151 C2147 1.393 . S
C2151 C2150 1.391 . S
H2152 C2160 0.950 . S
H2153 C2165 0.950 . S
H2154 C2162 0.950 . S
H2155 C2164 0.950 . S
H2156 C2166 0.950 . S
H2157 C2168 0.950 . S
H2158 C2170 0.950 . S
H2159 C2171 0.950 . S
C2160 H2152 0.950 . S
C2160 C2161 1.386 . S
C2160 C2162 1.391 . S
C2161 C2160 1.386 . S
C2161 C2165 1.393 . S
C2162 H2154 0.950 . S
C2162 C2160 1.391 . S
C2162 C2163 1.400 . S
C2163 C2162 1.400 . S
C2163 C2164 1.398 . S
C2163 C2169 1.491 . S
C2164 H2155 0.950 . S
C2164 C2163 1.398 . S
C2164 C2165 1.391 . S
C2165 H2153 0.950 . S
C2165 C2161 1.393 . S
C2165 C2164 1.391 . S
C2166 H2156 0.950 . S
C2166 C2167 1.386 . S
C2166 C2168 1.391 . S
C2167 C2166 1.386 . S
C2167 C2171 1.393 . S
C2168 H2157 0.950 . S
C2168 C2166 1.391 . S
C2168 C2169 1.400 . S
C2169 C2163 1.491 . S
C2169 C2168 1.400 . S
C2169 C2170 1.398 . S
C2170 H2158 0.950 . S
C2170 C2169 1.398 . S
C2170 C2171 1.391 . S
C2171 H2159 0.950 . S
C2171 C2167 1.393 . S
C2171 C2170 1.391 . S
H2172 C2180 0.950 . S
H2173 C2185 0.950 . S
H2174 C2182 0.950 . S
H2175 C2184 0.950 . S
H2176 C2186 0.950 . S
H2177 C2188 0.950 . S
H2178 C2190 0.950 . S
H2179 C2191 0.950 . S
C2180 H2172 0.950 . S
C2180 C2181 1.386 . S
C2180 C2182 1.391 . S
C2181 C2180 1.386 . S
C2181 C2185 1.393 . S
C2182 H2174 0.950 . S
C2182 C2180 1.391 . S
C2182 C2183 1.400 . S
C2183 C2182 1.400 . S
C2183 C2184 1.398 . S
C2183 C2189 1.491 . S
C2184 H2175 0.950 . S
C2184 C2183 1.398 . S
C2184 C2185 1.391 . S
C2185 H2173 0.950 . S
C2185 C2181 1.393 . S
C2185 C2184 1.391 . S
C2186 H2176 0.950 . S
C2186 C2187 1.386 . S
C2186 C2188 1.391 . S
C2187 C2186 1.386 . S
C2187 C2191 1.393 . S
C2188 H2177 0.950 . S
C2188 C2186 1.391 . S
C2188 C2189 1.400 . S
C2189 C2183 1.491 . S
C2189 C2188 1.400 . S
C2189 C2190 1.398 . S
C2190 H2178 0.950 . S
C2190 C2189 1.398 . S
C2190 C2191 1.391 . S
C2191 H2179 0.950 . S
C2191 C2187 1.393 . S
C2191 C2190 1.391 . S
H2192 C2200 0.950 . S
H2193 C2205 0.950 . S
H2194 C2202 0.950 . S
H2195 C2204 0.950 . S
H2196 C2206 0.950 . S
H2197 C2208 0.950 . S
H2198 C2210 0.950 . S
H2199 C2211 0.950 . S
C2200 H2192 0.950 . S
C2200 C2201 1.386 . S
C2200 C2202 1.391 . S
C2201 C2200 1.386 . S
C2201 C2205 1.393 . S
C2202 H2194 0.950 . S
C2202 C2200 1.391 . S
C2202 C2203 1.400 . S
C2203 C2202 1.400 . S
C2203 C2204 1.398 . S
C2203 C2209 1.491 . S
C2204 H2195 0.950 . S
C2204 C2203 1.398 . S
C2204 C2205 1.391 . S
C2205 H2193 0.950 . S
C2205 C2201 1.393 . S
C2205 C2204 1.391 . S
C2206 H2196 0.950 . S
C2206 C2207 1.386 . S
C2206 C2208 1.391 . S
C2207 C2206 1.386 . S
C2207 C2211 1.393 . S
C2208 H2197 0.950 . S
C2208 C2206 1.391 . S
C2208 C2209 1.400 . S
C2209 C2203 1.491 . S
C2209 C2208 1.400 . S
C2209 C2210 1.398 . S
C2210 H2198 0.950 . S
C2210 C2209 1.398 . S
C2210 C2211 1.391 . S
C2211 H2199 0.950 . S
C2211 C2207 1.393 . S
C2211 C2210 1.391 . S
H2212 C2220 0.950 . S
H2213 C2225 0.950 . S
H2214 C2222 0.950 . S
H2215 C2224 0.950 . S
H2216 C2226 0.950 . S
H2217 C2228 0.950 . S
H2218 C2230 0.950 . S
H2219 C2231 0.950 . S
C2220 H2212 0.950 . S
C2220 C2221 1.386 . S
C2220 C2222 1.391 . S
C2221 C2220 1.386 . S
C2221 C2225 1.393 . S
C2222 H2214 0.950 . S
C2222 C2220 1.391 . S
C2222 C2223 1.400 . S
C2223 C2222 1.400 . S
C2223 C2224 1.398 . S
C2223 C2229 1.491 . S
C2224 H2215 0.950 . S
C2224 C2223 1.398 . S
C2224 C2225 1.391 . S
C2225 H2213 0.950 . S
C2225 C2221 1.393 . S
C2225 C2224 1.391 . S
C2226 H2216 0.950 . S
C2226 C2227 1.386 . S
C2226 C2228 1.391 . S
C2227 C2226 1.386 . S
C2227 C2231 1.393 . S
C2228 H2217 0.950 . S
C2228 C2226 1.391 . S
C2228 C2229 1.400 . S
C2229 C2223 1.491 . S
C2229 C2228 1.400 . S
C2229 C2230 1.398 . S
C2230 H2218 0.950 . S
C2230 C2229 1.398 . S
C2230 C2231 1.391 . S
C2231 H2219 0.950 . S
C2231 C2227 1.393 . S
C2231 C2230 1.391 . S
H2232 C2240 0.950 . S
H2233 C2245 0.950 . S
H2234 C2242 0.950 . S
H2235 C2244 0.950 . S
H2236 C2246 0.950 . S
H2237 C2248 0.950 . S
H2238 C2250 0.950 . S
H2239 C2251 0.950 . S
C2240 H2232 0.950 . S
C2240 C2241 1.386 . S
C2240 C2242 1.391 . S
C2241 C2240 1.386 . S
C2241 C2245 1.393 . S
C2242 H2234 0.950 . S
C2242 C2240 1.391 . S
C2242 C2243 1.400 . S
C2243 C2242 1.400 . S
C2243 C2244 1.398 . S
C2243 C2249 1.491 . S
C2244 H2235 0.950 . S
C2244 C2243 1.398 . S
C2244 C2245 1.391 . S
C2245 H2233 0.950 . S
C2245 C2241 1.393 . S
C2245 C2244 1.391 . S
C2246 H2236 0.950 . S
C2246 C2247 1.386 . S
C2246 C2248 1.391 . S
C2247 C2246 1.386 . S
C2247 C2251 1.393 . S
C2248 H2237 0.950 . S
C2248 C2246 1.391 . S
C2248 C2249 1.400 . S
C2249 C2243 1.491 . S
C2249 C2248 1.400 . S
C2249 C2250 1.398 . S
C2250 H2238 0.950 . S
C2250 C2249 1.398 . S
C2250 C2251 1.391 . S
C2251 H2239 0.950 . S
C2251 C2247 1.393 . S
C2251 C2250 1.391 . S
H2252 C2260 0.950 . S
H2253 C2265 0.950 . S
H2254 C2262 0.950 . S
H2255 C2264 0.950 . S
H2256 C2266 0.950 . S
H2257 C2268 0.950 . S
H2258 C2270 0.950 . S
H2259 C2271 0.950 . S
C2260 H2252 0.950 . S
C2260 C2261 1.386 . S
C2260 C2262 1.391 . S
C2261 C2260 1.386 . S
C2261 C2265 1.393 . S
C2262 H2254 0.950 . S
C2262 C2260 1.391 . S
C2262 C2263 1.400 . S
C2263 C2262 1.400 . S
C2263 C2264 1.398 . S
C2263 C2269 1.491 . S
C2264 H2255 0.950 . S
C2264 C2263 1.398 . S
C2264 C2265 1.391 . S
C2265 H2253 0.950 . S
C2265 C2261 1.393 . S
C2265 C2264 1.391 . S
C2266 H2256 0.950 . S
C2266 C2267 1.386 . S
C2266 C2268 1.391 . S
C2267 C2266 1.386 . S
C2267 C2271 1.393 . S
C2268 H2257 0.950 . S
C2268 C2266 1.391 . S
C2268 C2269 1.400 . S
C2269 C2263 1.491 . S
C2269 C2268 1.400 . S
C2269 C2270 1.398 . S
C2270 H2258 0.950 . S
C2270 C2269 1.398 . S
C2270 C2271 1.391 . S
C2271 H2259 0.950 . S
C2271 C2267 1.393 . S
C2271 C2270 1.391 . S
H2272 C2280 0.950 . S
H2273 C2285 0.950 . S
H2274 C2282 0.950 . S
H2275 C2284 0.950 . S
H2276 C2286 0.950 . S
H2277 C2288 0.950 . S
H2278 C2290 0.950 . S
H2279 C2291 0.950 . S
C2280 H2272 0.950 . S
C2280 C2281 1.386 . S
C2280 C2282 1.391 . S
C2281 C2280 1.386 . S
C2281 C2285 1.393 . S
C2282 H2274 0.950 . S
C2282 C2280 1.391 . S
C2282 C2283 1.400 . S
C2283 C2282 1.400 . S
C2283 C2284 1.398 . S
C2283 C2289 1.491 . S
C2284 H2275 0.950 . S
C2284 C2283 1.398 . S
C2284 C2285 1.391 . S
C2285 H2273 0.950 . S
C2285 C2281 1.393 . S
C2285 C2284 1.391 . S
C2286 H2276 0.950 . S
C2286 C2287 1.386 . S
C2286 C2288 1.391 . S
C2287 C2286 1.386 . S
C2287 C2291 1.393 . S
C2288 H2277 0.950 . S
C2288 C2286 1.391 . S
C2288 C2289 1.400 . S
C2289 C2283 1.491 . S
C2289 C2288 1.400 . S
C2289 C2290 1.398 . S
C2290 H2278 0.950 . S
C2290 C2289 1.398 . S
C2290 C2291 1.391 . S
C2291 H2279 0.950 . S
C2291 C2287 1.393 . S
C2291 C2290 1.391 . S
H2292 C2300 0.950 . S
H2293 C2305 0.950 . S
H2294 C2302 0.950 . S
H2295 C2304 0.950 . S
H2296 C2306 0.950 . S
H2297 C2308 0.950 . S
H2298 C2310 0.950 . S
H2299 C2311 0.950 . S
C2300 H2292 0.950 . S
C2300 C2301 1.386 . S
C2300 C2302 1.391 . S
C2301 C2300 1.386 . S
C2301 C2305 1.393 . S
C2302 H2294 0.950 . S
C2302 C2300 1.391 . S
C2302 C2303 1.400 . S
C2303 C2302 1.400 . S
C2303 C2304 1.398 . S
C2303 C2309 1.491 . S
C2304 H2295 0.950 . S
C2304 C2303 1.398 . S
C2304 C2305 1.391 . S
C2305 H2293 0.950 . S
C2305 C2301 1.393 . S
C2305 C2304 1.391 . S
C2306 H2296 0.950 . S
C2306 C2307 1.386 . S
C2306 C2308 1.391 . S
C2307 C2306 1.386 . S
C2307 C2311 1.393 . S
C2308 H2297 0.950 . S
C2308 C2306 1.391 . S
C2308 C2309 1.400 . S
C2309 C2303 1.491 . S
C2309 C2308 1.400 . S
C2309 C2310 1.398 . S
C2310 H2298 0.950 . S
C2310 C2309 1.398 . S
C2310 C2311 1.391 . S
C2311 H2299 0.950 . S
C2311 C2307 1.393 . S
C2311 C2310 1.391 . S
H2312 C2320 0.950 . S
H2313 C2325 0.950 . S
H2314 C2322 0.950 . S
H2315 C2324 0.950 . S
H2316 C2326 0.950 . S
H2317 C2328 0.950 . S
H2318 C2330 0.950 . S
H2319 C2331 0.950 . S
C2320 H2312 0.950 . S
C2320 C2321 1.386 . S
C2320 C2322 1.391 . S
C2321 C2320 1.386 . S
C2321 C2325 1.393 . S
C2322 H2314 0.950 . S
C2322 C2320 1.391 . S
C2322 C2323 1.400 . S
C2323 C2322 1.400 . S
C2323 C2324 1.398 . S
C2323 C2329 1.491 . S
C2324 H2315 0.950 . S
C2324 C2323 1.398 . S
C2324 C2325 1.391 . S
C2325 H2313 0.950 . S
C2325 C2321 1.393 . S
C2325 C2324 1.391 . S
C2326 H2316 0.950 . S
C2326 C2327 1.386 . S
C2326 C2328 1.391 . S
C2327 C2326 1.386 . S
C2327 C2331 1.393 . S
C2328 H2317 0.950 . S
C2328 C2326 1.391 . S
C2328 C2329 1.400 . S
C2329 C2323 1.491 . S
C2329 C2328 1.400 . S
C2329 C2330 1.398 . S
C2330 H2318 0.950 . S
C2330 C2329 1.398 . S
C2330 C2331 1.391 . S
C2331 H2319 0.950 . S
C2331 C2327 1.393 . S
C2331 C2330 1.391 . S
H2332 C2340 0.950 . S
H2333 C2345 0.950 . S
H2334 C2342 0.950 . S
H2335 C2344 0.950 . S
H2336 C2346 0.950 . S
H2337 C2348 0.950 . S
H2338 C2350 0.950 . S
H2339 C2351 0.950 . S
C2340 H2332 0.950 . S
C2340 C2341 1.386 . S
C2340 C2342 1.391 . S
C2341 C2340 1.386 . S
C2341 C2345 1.393 . S
C2342 H2334 0.950 . S
C2342 C2340 1.391 . S
C2342 C2343 1.400 . S
C2343 C2342 1.400 . S
C2343 C2344 1.398 . S
C2343 C2349 1.491 . S
C2344 H2335 0.950 . S
C2344 C2343 1.398 . S
C2344 C2345 1.391 . S
C2345 H2333 0.950 . S
C2345 C2341 1.393 . S
C2345 C2344 1.391 . S
C2346 H2336 0.950 . S
C2346 C2347 1.386 . S
C2346 C2348 1.391 . S
C2347 C2346 1.386 . S
C2347 C2351 1.393 . S
C2348 H2337 0.950 . S
C2348 C2346 1.391 . S
C2348 C2349 1.400 . S
C2349 C2343 1.491 . S
C2349 C2348 1.400 . S
C2349 C2350 1.398 . S
C2350 H2338 0.950 . S
C2350 C2349 1.398 . S
C2350 C2351 1.391 . S
C2351 H2339 0.950 . S
C2351 C2347 1.393 . S
C2351 C2350 1.391 . S
H2352 C2360 0.950 . S
H2353 C2365 0.950 . S
H2354 C2362 0.950 . S
H2355 C2364 0.950 . S
H2356 C2366 0.950 . S
H2357 C2368 0.950 . S
H2358 C2370 0.950 . S
H2359 C2371 0.950 . S
C2360 H2352 0.950 . S
C2360 C2361 1.386 . S
C2360 C2362 1.391 . S
C2361 C2360 1.386 . S
C2361 C2365 1.393 . S
C2362 H2354 0.950 . S
C2362 C2360 1.391 . S
C2362 C2363 1.400 . S
C2363 C2362 1.400 . S
C2363 C2364 1.398 . S
C2363 C2369 1.491 . S
C2364 H2355 0.950 . S
C2364 C2363 1.398 . S
C2364 C2365 1.391 . S
C2365 H2353 0.950 . S
C2365 C2361 1.393 . S
C2365 C2364 1.391 . S
C2366 H2356 0.950 . S
C2366 C2367 1.386 . S
C2366 C2368 1.391 . S
C2367 C2366 1.386 . S
C2367 C2371 1.393 . S
C2368 H2357 0.950 . S
C2368 C2366 1.391 . S
C2368 C2369 1.400 . S
C2369 C2363 1.491 . S
C2369 C2368 1.400 . S
C2369 C2370 1.398 . S
C2370 H2358 0.950 . S
C2370 C2369 1.398 . S
C2370 C2371 1.391 . S
C2371 H2359 0.950 . S
C2371 C2367 1.393 . S
C2371 C2370 1.391 . S
H2372 C2380 0.950 . S
H2373 C2385 0.950 . S
H2374 C2382 0.950 . S
H2375 C2384 0.950 . S
H2376 C2386 0.950 . S
H2377 C2388 0.950 . S
H2378 C2390 0.950 . S
H2379 C2391 0.950 . S
C2380 H2372 0.950 . S
C2380 C2381 1.386 . S
C2380 C2382 1.391 . S
C2381 C2380 1.386 . S
C2381 C2385 1.393 . S
C2382 H2374 0.950 . S
C2382 C2380 1.391 . S
C2382 C2383 1.400 . S
C2383 C2382 1.400 . S
C2383 C2384 1.398 . S
C2383 C2389 1.491 . S
C2384 H2375 0.950 . S
C2384 C2383 1.398 . S
C2384 C2385 1.391 . S
C2385 H2373 0.950 . S
C2385 C2381 1.393 . S
C2385 C2384 1.391 . S
C2386 H2376 0.950 . S
C2386 C2387 1.386 . S
C2386 C2388 1.391 . S
C2387 C2386 1.386 . S
C2387 C2391 1.393 . S
C2388 H2377 0.950 . S
C2388 C2386 1.391 . S
C2388 C2389 1.400 . S
C2389 C2383 1.491 . S
C2389 C2388 1.400 . S
C2389 C2390 1.398 . S
C2390 H2378 0.950 . S
C2390 C2389 1.398 . S
C2390 C2391 1.391 . S
C2391 H2379 0.950 . S
C2391 C2387 1.393 . S
C2391 C2390 1.391 . S
H2392 C2400 0.950 . S
H2393 C2405 0.950 . S
H2394 C2402 0.950 . S
H2395 C2404 0.950 . S
H2396 C2406 0.950 . S
H2397 C2408 0.950 . S
H2398 C2410 0.950 . S
H2399 C2411 0.950 . S
C2400 H2392 0.950 . S
C2400 C2401 1.386 . S
C2400 C2402 1.391 . S
C2401 C2400 1.386 . S
C2401 C2405 1.393 . S
C2402 H2394 0.950 . S
C2402 C2400 1.391 . S
C2402 C2403 1.400 . S
C2403 C2402 1.400 . S
C2403 C2404 1.398 . S
C2403 C2409 1.491 . S
C2404 H2395 0.950 . S
C2404 C2403 1.398 . S
C2404 C2405 1.391 . S
C2405 H2393 0.950 . S
C2405 C2401 1.393 . S
C2405 C2404 1.391 . S
C2406 H2396 0.950 . S
C2406 C2407 1.386 . S
C2406 C2408 1.391 . S
C2407 C2406 1.386 . S
C2407 C2411 1.393 . S
C2408 H2397 0.950 . S
C2408 C2406 1.391 . S
C2408 C2409 1.400 . S
C2409 C2403 1.491 . S
C2409 C2408 1.400 . S
C2409 C2410 1.398 . S
C2410 H2398 0.950 . S
C2410 C2409 1.398 . S
C2410 C2411 1.391 . S
C2411 H2399 0.950 . S
C2411 C2407 1.393 . S
C2411 C2410 1.391 . S
H2412 C2420 0.950 . S
H2413 C2425 0.950 . S
H2414 C2422 0.950 . S
H2415 C2424 0.950 . S
H2416 C2426 0.950 . S
H2417 C2428 0.950 . S
H2418 C2430 0.950 . S
H2419 C2431 0.950 . S
C2420 H2412 0.950 . S
C2420 C2421 1.386 . S
C2420 C2422 1.391 . S
C2421 C2420 1.386 . S
C2421 C2425 1.393 . S
C2422 H2414 0.950 . S
C2422 C2420 1.391 . S
C2422 C2423 1.400 . S
C2423 C2422 1.400 . S
C2423 C2424 1.398 . S
C2423 C2429 1.491 . S
C2424 H2415 0.950 . S
C2424 C2423 1.398 . S
C2424 C2425 1.391 . S
C2425 H2413 0.950 . S
C2425 C2421 1.393 . S
C2425 C2424 1.391 . S
C2426 H2416 0.950 . S
C2426 C2427 1.386 . S
C2426 C2428 1.391 . S
C2427 C2426 1.386 . S
C2427 C2431 1.393 . S
C2428 H2417 0.950 . S
C2428 C2426 1.391 . S
C2428 C2429 1.400 . S
C2429 C2423 1.491 . S
C2429 C2428 1.400 . S
C2429 C2430 1.398 . S
C2430 H2418 0.950 . S
C2430 C2429 1.398 . S
C2430 C2431 1.391 . S
C2431 H2419 0.950 . S
C2431 C2427 1.393 . S
C2431 C2430 1.391 . S
H2432 C2440 0.950 . S
H2433 C2445 0.950 . S
H2434 C2442 0.950 . S
H2435 C2444 0.950 . S
H2436 C2446 0.950 . S
H2437 C2448 0.950 . S
H2438 C2450 0.950 . S
H2439 C2451 0.950 . S
C2440 H2432 0.950 . S
C2440 C2441 1.386 . S
C2440 C2442 1.391 . S
C2441 C2440 1.386 . S
C2441 C2445 1.393 . S
C2442 H2434 0.950 . S
C2442 C2440 1.391 . S
C2442 C2443 1.400 . S
C2443 C2442 1.400 . S
C2443 C2444 1.398 . S
C2443 C2449 1.491 . S
C2444 H2435 0.950 . S
C2444 C2443 1.398 . S
C2444 C2445 1.391 . S
C2445 H2433 0.950 . S
C2445 C2441 1.393 . S
C2445 C2444 1.391 . S
C2446 H2436 0.950 . S
C2446 C2447 1.386 . S
C2446 C2448 1.391 . S
C2447 C2446 1.386 . S
C2447 C2451 1.393 . S
C2448 H2437 0.950 . S
C2448 C2446 1.391 . S
C2448 C2449 1.400 . S
C2449 C2443 1.491 . S
C2449 C2448 1.400 . S
C2449 C2450 1.398 . S
C2450 H2438 0.950 . S
C2450 C2449 1.398 . S
C2450 C2451 1.391 . S
C2451 H2439 0.950 . S
C2451 C2447 1.393 . S
C2451 C2450 1.391 . S
H2452 C2460 0.950 . S
H2453 C2465 0.950 . S
H2454 C2462 0.950 . S
H2455 C2464 0.950 . S
H2456 C2466 0.950 . S
H2457 C2468 0.950 . S
H2458 C2470 0.950 . S
H2459 C2471 0.950 . S
C2460 H2452 0.950 . S
C2460 C2461 1.386 . S
C2460 C2462 1.391 . S
C2461 C2460 1.386 . S
C2461 C2465 1.393 . S
C2462 H2454 0.950 . S
C2462 C2460 1.391 . S
C2462 C2463 1.400 . S
C2463 C2462 1.400 . S
C2463 C2464 1.398 . S
C2463 C2469 1.491 . S
C2464 H2455 0.950 . S
C2464 C2463 1.398 . S
C2464 C2465 1.391 . S
C2465 H2453 0.950 . S
C2465 C2461 1.393 . S
C2465 C2464 1.391 . S
C2466 H2456 0.950 . S
C2466 C2467 1.386 . S
C2466 C2468 1.391 . S
C2467 C2466 1.386 . S
C2467 C2471 1.393 . S
C2468 H2457 0.950 . S
C2468 C2466 1.391 . S
C2468 C2469 1.400 . S
C2469 C2463 1.491 . S
C2469 C2468 1.400 . S
C2469 C2470 1.398 . S
C2470 H2458 0.950 . S
C2470 C2469 1.398 . S
C2470 C2471 1.391 . S
C2471 H2459 0.950 . S
C2471 C2467 1.393 . S
C2471 C2470 1.391 . S
H2472 C2480 0.950 . S
H2473 C2485 0.950 . S
H2474 C2482 0.950 . S
H2475 C2484 0.950 . S
H2476 C2486 0.950 . S
H2477 C2488 0.950 . S
H2478 C2490 0.950 . S
H2479 C2491 0.950 . S
C2480 H2472 0.950 . S
C2480 C2481 1.386 . S
C2480 C2482 1.391 . S
C2481 C2480 1.386 . S
C2481 C2485 1.393 . S
C2482 H2474 0.950 . S
C2482 C2480 1.391 . S
C2482 C2483 1.400 . S
C2483 C2482 1.400 . S
C2483 C2484 1.398 . S
C2483 C2489 1.491 . S
C2484 H2475 0.950 . S
C2484 C2483 1.398 . S
C2484 C2485 1.391 . S
C2485 H2473 0.950 . S
C2485 C2481 1.393 . S
C2485 C2484 1.391 . S
C2486 H2476 0.950 . S
C2486 C2487 1.386 . S
C2486 C2488 1.391 . S
C2487 C2486 1.386 . S
C2487 C2491 1.393 . S
C2488 H2477 0.950 . S
C2488 C2486 1.391 . S
C2488 C2489 1.400 . S
C2489 C2483 1.491 . S
C2489 C2488 1.400 . S
C2489 C2490 1.398 . S
C2490 H2478 0.950 . S
C2490 C2489 1.398 . S
C2490 C2491 1.391 . S
C2491 H2479 0.950 . S
C2491 C2487 1.393 . S
C2491 C2490 1.391 . S
H2492 C2500 0.950 . S
H2493 C2505 0.950 . S
H2494 C2502 0.950 . S
H2495 C2504 0.950 . S
H2496 C2506 0.950 . S
H2497 C2508 0.950 . S
H2498 C2510 0.950 . S
H2499 C2511 0.950 . S
C2500 H2492 0.950 . S
C2500 C2501 1.386 . S
C2500 C2502 1.391 . S
C2501 C2500 1.386 . S
C2501 C2505 1.393 . S
C2502 H2494 0.950 . S
C2502 C2500 1.391 . S
C2502 C2503 1.400 . S
C2503 C2502 1.400 . S
C2503 C2504 1.398 . S
C2503 C2509 1.491 . S
C2504 H2495 0.950 . S
C2504 C2503 1.398 . S
C2504 C2505 1.391 . S
C2505 H2493 0.950 . S
C2505 C2501 1.393 . S
C2505 C2504 1.391 . S
C2506 H2496 0.950 . S
C2506 C2507 1.386 . S
C2506 C2508 1.391 . S
C2507 C2506 1.386 . S
C2507 C2511 1.393 . S
C2508 H2497 0.950 . S
C2508 C2506 1.391 . S
C2508 C2509 1.400 . S
C2509 C2503 1.491 . S
C2509 C2508 1.400 . S
C2509 C2510 1.398 . S
C2510 H2498 0.950 . S
C2510 C2509 1.398 . S
C2510 C2511 1.391 . S
C2511 H2499 0.950 . S
C2511 C2507 1.393 . S
C2511 C2510 1.391 . S
H2512 C2520 0.950 . S
H2513 C2525 0.950 . S
H2514 C2522 0.950 . S
H2515 C2524 0.950 . S
H2516 C2526 0.950 . S
H2517 C2528 0.950 . S
H2518 C2530 0.950 . S
H2519 C2531 0.950 . S
C2520 H2512 0.950 . S
C2520 C2521 1.386 . S
C2520 C2522 1.391 . S
C2521 C2520 1.386 . S
C2521 C2525 1.393 . S
C2522 H2514 0.950 . S
C2522 C2520 1.391 . S
C2522 C2523 1.400 . S
C2523 C2522 1.400 . S
C2523 C2524 1.398 . S
C2523 C2529 1.491 . S
C2524 H2515 0.950 . S
C2524 C2523 1.398 . S
C2524 C2525 1.391 . S
C2525 H2513 0.950 . S
C2525 C2521 1.393 . S
C2525 C2524 1.391 . S
C2526 H2516 0.950 . S
C2526 C2527 1.386 . S
C2526 C2528 1.391 . S
C2527 C2526 1.386 . S
C2527 C2531 1.393 . S
C2528 H2517 0.950 . S
C2528 C2526 1.391 . S
C2528 C2529 1.400 . S
C2529 C2523 1.491 . S
C2529 C2528 1.400 . S
C2529 C2530 1.398 . S
C2530 H2518 0.950 . S
C2530 C2529 1.398 . S
C2530 C2531 1.391 . S
C2531 H2519 0.950 . S
C2531 C2527 1.393 . S
C2531 C2530 1.391 . S
H2532 C2540 0.950 . S
H2533 C2545 0.950 . S
H2534 C2542 0.950 . S
H2535 C2544 0.950 . S
H2536 C2546 0.950 . S
H2537 C2548 0.950 . S
H2538 C2550 0.950 . S
H2539 C2551 0.950 . S
C2540 H2532 0.950 . S
C2540 C2541 1.386 . S
C2540 C2542 1.391 . S
C2541 C2540 1.386 . S
C2541 C2545 1.393 . S
C2542 H2534 0.950 . S
C2542 C2540 1.391 . S
C2542 C2543 1.400 . S
C2543 C2542 1.400 . S
C2543 C2544 1.398 . S
C2543 C2549 1.491 . S
C2544 H2535 0.950 . S
C2544 C2543 1.398 . S
C2544 C2545 1.391 . S
C2545 H2533 0.950 . S
C2545 C2541 1.393 . S
C2545 C2544 1.391 . S
C2546 H2536 0.950 . S
C2546 C2547 1.386 . S
C2546 C2548 1.391 . S
C2547 C2546 1.386 . S
C2547 C2551 1.393 . S
C2548 H2537 0.950 . S
C2548 C2546 1.391 . S
C2548 C2549 1.400 . S
C2549 C2543 1.491 . S
C2549 C2548 1.400 . S
C2549 C2550 1.398 . S
C2550 H2538 0.950 . S
C2550 C2549 1.398 . S
C2550 C2551 1.391 . S
C2551 H2539 0.950 . S
C2551 C2547 1.393 . S
C2551 C2550 1.391 . S
H2552 C2560 0.950 . S
H2553 C2565 0.950 . S
H2554 C2562 0.950 . S
H2555 C2564 0.950 . S
H2556 C2566 0.950 . S
H2557 C2568 0.950 . S
H2558 C2570 0.950 . S
H2559 C2571 0.950 . S
C2560 H2552 0.950 . S
C2560 C2561 1.386 . S
C2560 C2562 1.391 . S
C2561 C2560 1.386 . S
C2561 C2565 1.393 . S
C2562 H2554 0.950 . S
C2562 C2560 1.391 . S
C2562 C2563 1.400 . S
C2563 C2562 1.400 . S
C2563 C2564 1.398 . S
C2563 C2569 1.491 . S
C2564 H2555 0.950 . S
C2564 C2563 1.398 . S
C2564 C2565 1.391 . S
C2565 H2553 0.950 . S
C2565 C2561 1.393 . S
C2565 C2564 1.391 . S
C2566 H2556 0.950 . S
C2566 C2567 1.386 . S
C2566 C2568 1.391 . S
C2567 C2566 1.386 . S
C2567 C2571 1.393 . S
C2568 H2557 0.950 . S
C2568 C2566 1.391 . S
C2568 C2569 1.400 . S
C2569 C2563 1.491 . S
C2569 C2568 1.400 . S
C2569 C2570 1.398 . S
C2570 H2558 0.950 . S
C2570 C2569 1.398 . S
C2570 C2571 1.391 . S
C2571 H2559 0.950 . S
C2571 C2567 1.393 . S
C2571 C2570 1.391 . S
H2572 C2580 0.950 . S
H2573 C2585 0.950 . S
H2574 C2582 0.950 . S
H2575 C2584 0.950 . S
H2576 C2586 0.950 . S
H2577 C2588 0.950 . S
H2578 C2590 0.950 . S
H2579 C2591 0.950 . S
C2580 H2572 0.950 . S
C2580 C2581 1.386 . S
C2580 C2582 1.391 . S
C2581 C2580 1.386 . S
C2581 C2585 1.393 . S
C2582 H2574 0.950 . S
C2582 C2580 1.391 . S
C2582 C2583 1.400 . S
C2583 C2582 1.400 . S
C2583 C2584 1.398 . S
C2583 C2589 1.491 . S
C2584 H2575 0.950 . S
C2584 C2583 1.398 . S
C2584 C2585 1.391 . S
C2585 H2573 0.950 . S
C2585 C2581 1.393 . S
C2585 C2584 1.391 . S
C2586 H2576 0.950 . S
C2586 C2587 1.386 . S
C2586 C2588 1.391 . S
C2587 C2586 1.386 . S
C2587 C2591 1.393 . S
C2588 H2577 0.950 . S
C2588 C2586 1.391 . S
C2588 C2589 1.400 . S
C2589 C2583 1.491 . S
C2589 C2588 1.400 . S
C2589 C2590 1.398 . S
C2590 H2578 0.950 . S
C2590 C2589 1.398 . S
C2590 C2591 1.391 . S
C2591 H2579 0.950 . S
C2591 C2587 1.393 . S
C2591 C2590 1.391 . S
H2592 C2600 0.950 . S
H2593 C2605 0.950 . S
H2594 C2602 0.950 1_554 S
H2595 C2604 0.950 . S
H2596 C2606 0.950 . S
H2597 C2608 0.950 1_556 S
H2598 C2610 0.950 . S
H2599 C2611 0.950 . S
C2600 H2592 0.950 . S
C2600 C2601 1.386 . S
C2600 C2602 1.391 . S
C2601 C2600 1.386 . S
C2601 C2605 1.393 . S
C2602 H2594 0.950 1_556 S
C2602 C2600 1.391 . S
C2602 C2603 1.400 . S
C2603 C2602 1.400 . S
C2603 C2604 1.398 . S
C2603 C2609 1.491 1_566 S
C2604 H2595 0.950 . S
C2604 C2603 1.398 . S
C2604 C2605 1.391 . S
C2605 H2593 0.950 . S
C2605 C2601 1.393 . S
C2605 C2604 1.391 . S
C2606 H2596 0.950 . S
C2606 C2607 1.386 . S
C2606 C2608 1.391 . S
C2607 C2606 1.386 . S
C2607 C2611 1.393 . S
C2608 H2597 0.950 1_554 S
C2608 C2606 1.391 . S
C2608 C2609 1.400 . S
C2609 C2603 1.491 1_544 S
C2609 C2608 1.400 . S
C2609 C2610 1.398 . S
C2610 H2598 0.950 . S
C2610 C2609 1.398 . S
C2610 C2611 1.391 . S
C2611 H2599 0.950 . S
C2611 C2607 1.393 . S
C2611 C2610 1.391 . S
H2612 C2620 0.950 . S
H2613 C2625 0.950 . S
H2614 C2622 0.950 . S
H2615 C2624 0.950 . S
H2616 C2626 0.950 . S
H2617 C2628 0.950 . S
H2618 C2630 0.950 . S
H2619 C2631 0.950 . S
C2620 H2612 0.950 . S
C2620 C2621 1.386 . S
C2620 C2622 1.391 . S
C2621 C2620 1.386 . S
C2621 C2625 1.393 . S
C2622 H2614 0.950 . S
C2622 C2620 1.391 . S
C2622 C2623 1.400 . S
C2623 C2622 1.400 . S
C2623 C2624 1.398 . S
C2623 C2629 1.491 . S
C2624 H2615 0.950 . S
C2624 C2623 1.398 . S
C2624 C2625 1.391 . S
C2625 H2613 0.950 . S
C2625 C2621 1.393 . S
C2625 C2624 1.391 . S
C2626 H2616 0.950 . S
C2626 C2627 1.386 . S
C2626 C2628 1.391 . S
C2627 C2626 1.386 . S
C2627 C2631 1.393 . S
C2628 H2617 0.950 . S
C2628 C2626 1.391 . S
C2628 C2629 1.400 . S
C2629 C2623 1.491 . S
C2629 C2628 1.400 . S
C2629 C2630 1.398 . S
C2630 H2618 0.950 . S
C2630 C2629 1.398 . S
C2630 C2631 1.391 . S
C2631 H2619 0.950 . S
C2631 C2627 1.393 . S
C2631 C2630 1.391 . S
H2632 C2640 0.950 . S
H2633 C2645 0.950 . S
H2634 C2642 0.950 . S
H2635 C2644 0.950 . S
H2636 C2646 0.950 . S
H2637 C2648 0.950 . S
H2638 C2650 0.950 . S
H2639 C2651 0.950 . S
C2640 H2632 0.950 . S
C2640 C2641 1.386 . S
C2640 C2642 1.391 . S
C2641 C2640 1.386 . S
C2641 C2645 1.393 . S
C2642 H2634 0.950 . S
C2642 C2640 1.391 . S
C2642 C2643 1.400 . S
C2643 C2642 1.400 . S
C2643 C2644 1.398 . S
C2643 C2649 1.491 1_456 S
C2644 H2635 0.950 . S
C2644 C2643 1.398 . S
C2644 C2645 1.391 . S
C2645 H2633 0.950 . S
C2645 C2641 1.393 . S
C2645 C2644 1.391 . S
C2646 H2636 0.950 . S
C2646 C2647 1.386 . S
C2646 C2648 1.391 . S
C2647 C2646 1.386 . S
C2647 C2651 1.393 . S
C2648 H2637 0.950 . S
C2648 C2646 1.391 . S
C2648 C2649 1.400 . S
C2649 C2643 1.491 1_654 S
C2649 C2648 1.400 . S
C2649 C2650 1.398 . S
C2650 H2638 0.950 . S
C2650 C2649 1.398 . S
C2650 C2651 1.391 . S
C2651 H2639 0.950 . S
C2651 C2647 1.393 . S
C2651 C2650 1.391 . S
H2652 C2660 0.950 . S
H2653 C2665 0.950 . S
H2654 C2662 0.928 1_565 S
H2655 C2664 0.950 . S
H2656 C2666 0.950 . S
H2657 C2668 0.932 1_545 S
H2658 C2670 0.950 . S
H2659 C2671 0.950 . S
C2660 H2652 0.950 . S
C2660 C2661 1.386 . S
C2660 C2662 1.391 . S
C2661 C2660 1.386 . S
C2661 C2665 1.393 . S
C2662 H2654 0.928 1_545 S
C2662 C2660 1.391 . S
C2662 C2663 1.400 . S
C2663 C2662 1.400 . S
C2663 C2664 1.398 . S
C2663 C2669 1.491 1_545 S
C2664 H2655 0.950 . S
C2664 C2663 1.398 . S
C2664 C2665 1.391 . S
C2665 H2653 0.950 . S
C2665 C2661 1.393 . S
C2665 C2664 1.391 . S
C2666 H2656 0.950 . S
C2666 C2667 1.386 . S
C2666 C2668 1.391 . S
C2667 C2666 1.386 . S
C2667 C2671 1.393 . S
C2668 H2657 0.932 1_565 S
C2668 C2666 1.391 . S
C2668 C2669 1.400 . S
C2669 C2663 1.491 1_565 S
C2669 C2668 1.400 . S
C2669 C2670 1.398 . S
C2670 H2658 0.950 . S
C2670 C2669 1.398 . S
C2670 C2671 1.391 . S
C2671 H2659 0.950 . S
C2671 C2667 1.393 . S
C2671 C2670 1.391 . S
H2672 C2680 0.950 . S
H2673 C2685 0.950 . S
H2674 C2682 0.950 . S
H2675 C2684 0.950 1_556 S
H2676 C2686 0.950 . S
H2677 C2688 0.950 . S
H2678 C2690 0.950 1_554 S
H2679 C2691 0.950 . S
C2680 H2672 0.950 . S
C2680 C2681 1.386 . S
C2680 C2682 1.391 . S
C2681 C2680 1.386 . S
C2681 C2685 1.393 . S
C2682 H2674 0.950 . S
C2682 C2680 1.391 . S
C2682 C2683 1.400 . S
C2683 C2682 1.400 . S
C2683 C2684 1.398 . S
C2683 C2689 1.491 1_554 S
C2684 H2675 0.950 1_554 S
C2684 C2683 1.398 . S
C2684 C2685 1.391 . S
C2685 H2673 0.950 . S
C2685 C2681 1.393 . S
C2685 C2684 1.391 . S
C2686 H2676 0.950 . S
C2686 C2687 1.386 . S
C2686 C2688 1.391 . S
C2687 C2686 1.386 . S
C2687 C2691 1.393 . S
C2688 H2677 0.950 . S
C2688 C2686 1.391 . S
C2688 C2689 1.400 . S
C2689 C2683 1.491 1_556 S
C2689 C2688 1.400 . S
C2689 C2690 1.398 . S
C2690 H2678 0.950 1_556 S
C2690 C2689 1.398 . S
C2690 C2691 1.391 . S
C2691 H2679 0.950 . S
C2691 C2687 1.393 . S
C2691 C2690 1.391 . S
H2692 C2700 0.950 . S
H2693 C2705 0.950 . S
H2694 C2702 0.950 . S
H2695 C2704 0.950 1_655 S
H2696 C2706 0.950 . S
H2697 C2708 0.950 . S
H2698 C2710 0.950 1_455 S
H2699 C2711 0.950 . S
C2700 H2692 0.950 . S
C2700 C2701 1.386 . S
C2700 C2702 1.391 . S
C2701 C2700 1.386 . S
C2701 C2705 1.393 . S
C2702 H2694 0.950 . S
C2702 C2700 1.391 . S
C2702 C2703 1.400 . S
C2703 C2702 1.400 . S
C2703 C2704 1.398 . S
C2703 C2709 1.491 1_455 S
C2704 H2695 0.950 1_455 S
C2704 C2703 1.398 . S
C2704 C2705 1.391 . S
C2705 H2693 0.950 . S
C2705 C2701 1.393 . S
C2705 C2704 1.391 . S
C2706 H2696 0.950 . S
C2706 C2707 1.386 . S
C2706 C2708 1.391 . S
C2707 C2706 1.386 . S
C2707 C2711 1.393 . S
C2708 H2697 0.950 . S
C2708 C2706 1.391 . S
C2708 C2709 1.400 . S
C2709 C2703 1.491 1_655 S
C2709 C2708 1.400 . S
C2709 C2710 1.398 . S
C2710 H2698 0.950 1_655 S
C2710 C2709 1.398 . S
C2710 C2711 1.391 . S
C2711 H2699 0.950 . S
C2711 C2707 1.393 . S
C2711 C2710 1.391 . S
H2712 C2720 0.950 . S
H2713 C2725 0.950 . S
H2714 C2722 0.950 . S
H2715 C2724 0.950 1_545 S
H2716 C2726 0.948 . S
H2717 C2728 0.950 . S
H2718 C2730 0.950 1_565 S
H2719 C2731 0.950 . S
C2720 H2712 0.950 . S
C2720 C2721 1.386 . S
C2720 C2722 1.391 1_556 S
C2721 C2720 1.386 . S
C2721 C2725 1.393 . S
C2722 H2714 0.950 . S
C2722 C2720 1.391 1_554 S
C2722 C2723 1.400 1_554 S
C2723 C2722 1.400 1_556 S
C2723 C2724 1.398 . S
C2723 C2729 1.491 1_566 S
C2724 H2715 0.950 1_565 S
C2724 C2723 1.398 . S
C2724 C2725 1.391 . S
C2725 H2713 0.950 . S
C2725 C2721 1.393 . S
C2725 C2724 1.391 . S
C2726 H2716 0.948 . S
C2726 C2727 1.386 . S
C2726 C2728 1.391 1_554 S
C2727 C2726 1.386 . S
C2727 C2731 1.393 . S
C2728 H2717 0.950 . S
C2728 C2726 1.391 1_556 S
C2728 C2729 1.400 1_556 S
C2729 C2723 1.491 1_544 S
C2729 C2728 1.400 1_554 S
C2729 C2730 1.398 . S
C2730 H2718 0.950 1_545 S
C2730 C2729 1.398 . S
C2730 C2731 1.391 . S
C2731 H2719 0.950 . S
C2731 C2727 1.393 . S
C2731 C2730 1.391 . S
H2732 C2740 0.950 . S
H2733 C2745 0.950 . S
H2734 C2742 0.950 . S
H2735 C2744 0.950 . S
H2736 C2746 0.950 . S
H2737 C2748 0.950 . S
H2738 C2750 0.950 . S
H2739 C2751 0.950 . S
C2740 H2732 0.950 . S
C2740 C2741 1.386 . S
C2740 C2742 1.391 . S
C2741 C2740 1.386 . S
C2741 C2745 1.393 . S
C2742 H2734 0.950 . S
C2742 C2740 1.391 . S
C2742 C2743 1.400 . S
C2743 C2742 1.400 . S
C2743 C2744 1.398 . S
C2743 C2749 1.491 . S
C2744 H2735 0.950 . S
C2744 C2743 1.398 . S
C2744 C2745 1.391 . S
C2745 H2733 0.950 . S
C2745 C2741 1.393 . S
C2745 C2744 1.391 . S
C2746 H2736 0.950 . S
C2746 C2747 1.386 . S
C2746 C2748 1.391 . S
C2747 C2746 1.386 . S
C2747 C2751 1.393 . S
C2748 H2737 0.950 . S
C2748 C2746 1.391 . S
C2748 C2749 1.400 . S
C2749 C2743 1.491 . S
C2749 C2748 1.400 . S
C2749 C2750 1.398 . S
C2750 H2738 0.950 . S
C2750 C2749 1.398 . S
C2750 C2751 1.391 . S
C2751 H2739 0.950 . S
C2751 C2747 1.393 . S
C2751 C2750 1.391 . S
H2752 C2760 0.950 . S
H2753 C2765 0.950 . S
H2754 C2762 0.950 . S
H2755 C2764 0.950 . S
H2756 C2766 0.950 . S
H2757 C2768 0.950 . S
H2758 C2770 0.950 . S
H2759 C2771 0.950 . S
C2760 H2752 0.950 . S
C2760 C2761 1.386 . S
C2760 C2762 1.391 . S
C2761 C2760 1.386 . S
C2761 C2765 1.393 . S
C2762 H2754 0.950 . S
C2762 C2760 1.391 . S
C2762 C2763 1.400 . S
C2763 C2762 1.400 . S
C2763 C2764 1.398 . S
C2763 C2769 1.491 1_654 S
C2764 H2755 0.950 . S
C2764 C2763 1.398 . S
C2764 C2765 1.391 . S
C2765 H2753 0.950 . S
C2765 C2761 1.393 . S
C2765 C2764 1.391 . S
C2766 H2756 0.950 . S
C2766 C2767 1.386 . S
C2766 C2768 1.391 . S
C2767 C2766 1.386 . S
C2767 C2771 1.393 . S
C2768 H2757 0.950 . S
C2768 C2766 1.391 . S
C2768 C2769 1.400 . S
C2769 C2763 1.491 1_456 S
C2769 C2768 1.400 . S
C2769 C2770 1.398 . S
C2770 H2758 0.950 . S
C2770 C2769 1.398 . S
C2770 C2771 1.391 . S
C2771 H2759 0.950 . S
C2771 C2767 1.393 . S
C2771 C2770 1.391 . S
H2772 C2780 0.950 . S
H2773 C2785 0.950 . S
H2774 C2782 0.950 . S
H2775 C2784 0.950 . S
H2776 C2786 0.950 . S
H2777 C2788 0.950 . S
H2778 C2790 0.950 . S
H2779 C2791 0.950 . S
C2780 H2772 0.950 . S
C2780 C2781 1.386 . S
C2780 C2782 1.391 . S
C2781 C2780 1.386 . S
C2781 C2785 1.393 . S
C2782 H2774 0.950 . S
C2782 C2780 1.391 . S
C2782 C2783 1.400 . S
C2783 C2782 1.400 . S
C2783 C2784 1.398 . S
C2783 C2789 1.491 1_565 S
C2784 H2775 0.950 . S
C2784 C2783 1.398 . S
C2784 C2785 1.391 . S
C2785 H2773 0.950 . S
C2785 C2781 1.393 . S
C2785 C2784 1.391 . S
C2786 H2776 0.950 . S
C2786 C2787 1.386 . S
C2786 C2788 1.391 . S
C2787 C2786 1.386 . S
C2787 C2791 1.393 . S
C2788 H2777 0.950 . S
C2788 C2786 1.391 . S
C2788 C2789 1.400 . S
C2789 C2783 1.491 1_545 S
C2789 C2788 1.400 . S
C2789 C2790 1.398 . S
C2790 H2778 0.950 . S
C2790 C2789 1.398 . S
C2790 C2791 1.391 . S
C2791 H2779 0.950 . S
C2791 C2787 1.393 . S
C2791 C2790 1.391 . S
H2792 C2800 0.950 . S
H2793 C2805 0.950 . S
H2794 C2802 0.950 . S
H2795 C2804 0.950 . S
H2796 C2806 0.950 . S
H2797 C2808 0.950 . S
H2798 C2810 0.950 . S
H2799 C2811 0.950 . S
C2800 H2792 0.950 . S
C2800 C2801 1.386 . S
C2800 C2802 1.391 . S
C2801 C2800 1.386 . S
C2801 C2805 1.393 . S
C2802 H2794 0.950 . S
C2802 C2800 1.391 . S
C2802 C2803 1.400 . S
C2803 C2802 1.400 . S
C2803 C2804 1.398 1_554 S
C2803 C2809 1.491 1_554 S
C2804 H2795 0.950 . S
C2804 C2803 1.398 1_556 S
C2804 C2805 1.391 1_556 S
C2805 H2793 0.950 . S
C2805 C2801 1.393 . S
C2805 C2804 1.391 1_554 S
C2806 H2796 0.950 . S
C2806 C2807 1.386 . S
C2806 C2808 1.391 . S
C2807 C2806 1.386 . S
C2807 C2811 1.393 . S
C2808 H2797 0.950 . S
C2808 C2806 1.391 . S
C2808 C2809 1.400 . S
C2809 C2803 1.491 1_556 S
C2809 C2808 1.400 . S
C2809 C2810 1.398 1_556 S
C2810 H2798 0.950 . S
C2810 C2809 1.398 1_554 S
C2810 C2811 1.391 1_554 S
C2811 H2799 0.950 . S
C2811 C2807 1.393 . S
C2811 C2810 1.391 1_556 S
H2812 C2820 0.950 . S
H2813 C2825 0.950 . S
H2814 C2822 0.950 . S
H2815 C2824 0.914 1_655 S
H2816 C2826 0.950 . S
H2817 C2828 0.950 . S
H2818 C2830 0.916 1_455 S
H2819 C2831 0.950 . S
C2820 H2812 0.950 . S
C2820 C2821 1.386 . S
C2820 C2822 1.391 . S
C2821 C2820 1.386 . S
C2821 C2825 1.393 . S
C2822 H2814 0.950 . S
C2822 C2820 1.391 . S
C2822 C2823 1.400 . S
C2823 C2822 1.400 . S
C2823 C2824 1.398 . S
C2823 C2829 1.491 1_455 S
C2824 H2815 0.914 1_455 S
C2824 C2823 1.398 . S
C2824 C2825 1.391 . S
C2825 H2813 0.950 . S
C2825 C2821 1.393 . S
C2825 C2824 1.391 . S
C2826 H2816 0.950 . S
C2826 C2827 1.386 . S
C2826 C2828 1.391 . S
C2827 C2826 1.386 . S
C2827 C2831 1.393 . S
C2828 H2817 0.950 . S
C2828 C2826 1.391 . S
C2828 C2829 1.400 . S
C2829 C2823 1.491 1_655 S
C2829 C2828 1.400 . S
C2829 C2830 1.398 . S
C2830 H2818 0.916 1_655 S
C2830 C2829 1.398 . S
C2830 C2831 1.391 . S
C2831 H2819 0.950 . S
C2831 C2827 1.393 . S
C2831 C2830 1.391 . S
H2832 C2840 0.950 . S
H2833 C2845 0.950 . S
H2834 C2842 0.950 . S
H2835 C2844 0.950 . S
H2836 C2846 0.950 . S
H2837 C2848 0.950 . S
H2838 C2850 0.950 . S
H2839 C2851 0.950 . S
C2840 H2832 0.950 . S
C2840 C2841 1.386 . S
C2840 C2842 1.391 . S
C2841 C2840 1.386 . S
C2841 C2845 1.393 . S
C2842 H2834 0.950 . S
C2842 C2840 1.391 . S
C2842 C2843 1.400 . S
C2843 C2842 1.400 . S
C2843 C2844 1.398 . S
C2843 C2849 1.491 . S
C2844 H2835 0.950 . S
C2844 C2843 1.398 . S
C2844 C2845 1.391 . S
C2845 H2833 0.950 . S
C2845 C2841 1.393 . S
C2845 C2844 1.391 . S
C2846 H2836 0.950 . S
C2846 C2847 1.386 . S
C2846 C2848 1.391 . S
C2847 C2846 1.386 . S
C2847 C2851 1.393 . S
C2848 H2837 0.950 . S
C2848 C2846 1.391 . S
C2848 C2849 1.400 . S
C2849 C2843 1.491 . S
C2849 C2848 1.400 . S
C2849 C2850 1.398 . S
C2850 H2838 0.950 . S
C2850 C2849 1.398 . S
C2850 C2851 1.391 . S
C2851 H2839 0.950 . S
C2851 C2847 1.393 . S
C2851 C2850 1.391 . S
H2852 C2860 0.950 . S
H2853 C2865 0.950 . S
H2854 C2862 0.950 . S
H2855 C2864 0.950 . S
H2856 C2866 0.950 . S
H2857 C2868 0.950 . S
H2858 C2870 0.950 . S
H2859 C2871 0.950 . S
C2860 H2852 0.950 . S
C2860 C2861 1.386 . S
C2860 C2862 1.391 . S
C2861 C2860 1.386 . S
C2861 C2865 1.393 . S
C2862 H2854 0.950 . S
C2862 C2860 1.391 . S
C2862 C2863 1.400 . S
C2863 C2862 1.400 . S
C2863 C2864 1.398 . S
C2863 C2869 1.491 . S
C2864 H2855 0.950 . S
C2864 C2863 1.398 . S
C2864 C2865 1.391 . S
C2865 H2853 0.950 . S
C2865 C2861 1.393 . S
C2865 C2864 1.391 . S
C2866 H2856 0.950 . S
C2866 C2867 1.386 . S
C2866 C2868 1.391 . S
C2867 C2866 1.386 . S
C2867 C2871 1.393 . S
C2868 H2857 0.950 . S
C2868 C2866 1.391 . S
C2868 C2869 1.400 . S
C2869 C2863 1.491 . S
C2869 C2868 1.400 . S
C2869 C2870 1.398 . S
C2870 H2858 0.950 . S
C2870 C2869 1.398 . S
C2870 C2871 1.391 . S
C2871 H2859 0.950 . S
C2871 C2867 1.393 . S
C2871 C2870 1.391 . S
H2872 C2880 0.950 . S
H2873 C2885 0.950 . S
H2874 C2882 0.950 . S
H2875 C2884 0.950 . S
H2876 C2886 0.950 . S
H2877 C2888 0.950 . S
H2878 C2890 0.950 . S
H2879 C2891 0.950 . S
C2880 H2872 0.950 . S
C2880 C2881 1.386 . S
C2880 C2882 1.391 . S
C2881 C2880 1.386 . S
C2881 C2885 1.393 . S
C2882 H2874 0.950 . S
C2882 C2880 1.391 . S
C2882 C2883 1.400 . S
C2883 C2882 1.400 . S
C2883 C2884 1.398 . S
C2883 C2889 1.491 . S
C2884 H2875 0.950 . S
C2884 C2883 1.398 . S
C2884 C2885 1.391 . S
C2885 H2873 0.950 . S
C2885 C2881 1.393 . S
C2885 C2884 1.391 . S
C2886 H2876 0.950 . S
C2886 C2887 1.386 . S
C2886 C2888 1.391 . S
C2887 C2886 1.386 . S
C2887 C2891 1.393 . S
C2888 H2877 0.950 . S
C2888 C2886 1.391 . S
C2888 C2889 1.400 . S
C2889 C2883 1.491 . S
C2889 C2888 1.400 . S
C2889 C2890 1.398 . S
C2890 H2878 0.950 . S
C2890 C2889 1.398 . S
C2890 C2891 1.391 . S
C2891 H2879 0.950 . S
C2891 C2887 1.393 . S
C2891 C2890 1.391 . S
H2892 C2900 0.950 . S
H2893 C2905 0.950 . S
H2894 C2902 0.950 . S
H2895 C2904 0.950 . S
H2896 C2906 0.950 . S
H2897 C2908 0.950 . S
H2898 C2910 0.950 . S
H2899 C2911 0.950 . S
C2900 H2892 0.950 . S
C2900 C2901 1.386 . S
C2900 C2902 1.391 . S
C2901 C2900 1.386 . S
C2901 C2905 1.393 . S
C2902 H2894 0.950 . S
C2902 C2900 1.391 . S
C2902 C2903 1.400 . S
C2903 C2902 1.400 . S
C2903 C2904 1.398 . S
C2903 C2909 1.491 . S
C2904 H2895 0.950 . S
C2904 C2903 1.398 . S
C2904 C2905 1.391 . S
C2905 H2893 0.950 . S
C2905 C2901 1.393 . S
C2905 C2904 1.391 . S
C2906 H2896 0.950 . S
C2906 C2907 1.386 . S
C2906 C2908 1.391 . S
C2907 C2906 1.386 . S
C2907 C2911 1.393 . S
C2908 H2897 0.950 . S
C2908 C2906 1.391 . S
C2908 C2909 1.400 . S
C2909 C2903 1.491 . S
C2909 C2908 1.400 . S
C2909 C2910 1.398 . S
C2910 H2898 0.950 . S
C2910 C2909 1.398 . S
C2910 C2911 1.391 . S
C2911 H2899 0.950 . S
C2911 C2907 1.393 . S
C2911 C2910 1.391 . S
H2912 C2920 0.950 . S
H2913 C2925 0.950 . S
H2914 C2922 0.950 . S
H2915 C2924 0.950 . S
H2916 C2926 0.950 . S
H2917 C2928 0.950 . S
H2918 C2930 0.950 . S
H2919 C2931 0.950 . S
C2920 H2912 0.950 . S
C2920 C2921 1.386 . S
C2920 C2922 1.391 . S
C2921 C2920 1.386 . S
C2921 C2925 1.393 . S
C2922 H2914 0.950 . S
C2922 C2920 1.391 . S
C2922 C2923 1.400 . S
C2923 C2922 1.400 . S
C2923 C2924 1.398 . S
C2923 C2929 1.491 . S
C2924 H2915 0.950 . S
C2924 C2923 1.398 . S
C2924 C2925 1.391 . S
C2925 H2913 0.950 . S
C2925 C2921 1.393 . S
C2925 C2924 1.391 . S
C2926 H2916 0.950 . S
C2926 C2927 1.386 . S
C2926 C2928 1.391 . S
C2927 C2926 1.386 . S
C2927 C2931 1.393 . S
C2928 H2917 0.950 . S
C2928 C2926 1.391 . S
C2928 C2929 1.400 . S
C2929 C2923 1.491 . S
C2929 C2928 1.400 . S
C2929 C2930 1.398 . S
C2930 H2918 0.950 . S
C2930 C2929 1.398 . S
C2930 C2931 1.391 . S
C2931 H2919 0.950 . S
C2931 C2927 1.393 . S
C2931 C2930 1.391 . S
H2932 C2940 0.950 . S
H2933 C2945 0.950 . S
H2934 C2942 0.950 . S
H2935 C2944 0.950 . S
H2936 C2946 0.950 . S
H2937 C2948 0.950 . S
H2938 C2950 0.950 . S
H2939 C2951 0.950 . S
C2940 H2932 0.950 . S
C2940 C2941 1.386 . S
C2940 C2942 1.391 . S
C2941 C2940 1.386 . S
C2941 C2945 1.393 . S
C2942 H2934 0.950 . S
C2942 C2940 1.391 . S
C2942 C2943 1.400 . S
C2943 C2942 1.400 . S
C2943 C2944 1.398 . S
C2943 C2949 1.491 . S
C2944 H2935 0.950 . S
C2944 C2943 1.398 . S
C2944 C2945 1.391 . S
C2945 H2933 0.950 . S
C2945 C2941 1.393 . S
C2945 C2944 1.391 . S
C2946 H2936 0.950 . S
C2946 C2947 1.386 . S
C2946 C2948 1.391 . S
C2947 C2946 1.386 . S
C2947 C2951 1.393 . S
C2948 H2937 0.950 . S
C2948 C2946 1.391 . S
C2948 C2949 1.400 . S
C2949 C2943 1.491 . S
C2949 C2948 1.400 . S
C2949 C2950 1.398 . S
C2950 H2938 0.950 . S
C2950 C2949 1.398 . S
C2950 C2951 1.391 . S
C2951 H2939 0.950 . S
C2951 C2947 1.393 . S
C2951 C2950 1.391 . S
H2952 C2960 0.950 . S
H2953 C2965 0.950 . S
H2954 C2962 0.950 . S
H2955 C2964 0.950 . S
H2956 C2966 0.950 . S
H2957 C2968 0.950 . S
H2958 C2970 0.950 . S
H2959 C2971 0.950 . S
C2960 H2952 0.950 . S
C2960 C2961 1.386 . S
C2960 C2962 1.391 . S
C2961 C2960 1.386 . S
C2961 C2965 1.393 . S
C2962 H2954 0.950 . S
C2962 C2960 1.391 . S
C2962 C2963 1.400 . S
C2963 C2962 1.400 . S
C2963 C2964 1.398 . S
C2963 C2969 1.491 . S
C2964 H2955 0.950 . S
C2964 C2963 1.398 . S
C2964 C2965 1.391 . S
C2965 H2953 0.950 . S
C2965 C2961 1.393 . S
C2965 C2964 1.391 . S
C2966 H2956 0.950 . S
C2966 C2967 1.386 . S
C2966 C2968 1.391 . S
C2967 C2966 1.386 . S
C2967 C2971 1.393 . S
C2968 H2957 0.950 . S
C2968 C2966 1.391 . S
C2968 C2969 1.400 . S
C2969 C2963 1.491 . S
C2969 C2968 1.400 . S
C2969 C2970 1.398 . S
C2970 H2958 0.950 . S
C2970 C2969 1.398 . S
C2970 C2971 1.391 . S
C2971 H2959 0.950 . S
C2971 C2967 1.393 . S
C2971 C2970 1.391 . S
H2972 C2980 0.950 . S
H2973 C2985 0.950 . S
H2974 C2982 0.950 . S
H2975 C2984 0.950 . S
H2976 C2986 0.950 . S
H2977 C2988 0.950 . S
H2978 C2990 0.950 . S
H2979 C2991 0.950 . S
C2980 H2972 0.950 . S
C2980 C2981 1.386 . S
C2980 C2982 1.391 . S
C2981 C2980 1.386 . S
C2981 C2985 1.393 . S
C2982 H2974 0.950 . S
C2982 C2980 1.391 . S
C2982 C2983 1.400 . S
C2983 C2982 1.400 . S
C2983 C2984 1.398 . S
C2983 C2989 1.491 . S
C2984 H2975 0.950 . S
C2984 C2983 1.398 . S
C2984 C2985 1.391 . S
C2985 H2973 0.950 . S
C2985 C2981 1.393 . S
C2985 C2984 1.391 . S
C2986 H2976 0.950 . S
C2986 C2987 1.386 . S
C2986 C2988 1.391 . S
C2987 C2986 1.386 . S
C2987 C2991 1.393 . S
C2988 H2977 0.950 . S
C2988 C2986 1.391 . S
C2988 C2989 1.400 . S
C2989 C2983 1.491 . S
C2989 C2988 1.400 . S
C2989 C2990 1.398 . S
C2990 H2978 0.950 . S
C2990 C2989 1.398 . S
C2990 C2991 1.391 . S
C2991 H2979 0.950 . S
C2991 C2987 1.393 . S
C2991 C2990 1.391 . S
H2992 C3000 0.950 . S
H2993 C3005 0.950 . S
H2994 C3002 0.950 . S
H2995 C3004 0.950 . S
H2996 C3006 0.950 . S
H2997 C3008 0.950 . S
H2998 C3010 0.950 . S
H2999 C3011 0.950 . S
C3000 H2992 0.950 . S
C3000 C3001 1.386 . S
C3000 C3002 1.391 . S
C3001 C3000 1.386 . S
C3001 C3005 1.393 . S
C3002 H2994 0.950 . S
C3002 C3000 1.391 . S
C3002 C3003 1.400 . S
C3003 C3002 1.400 . S
C3003 C3004 1.398 . S
C3003 C3009 1.491 . S
C3004 H2995 0.950 . S
C3004 C3003 1.398 . S
C3004 C3005 1.391 . S
C3005 H2993 0.950 . S
C3005 C3001 1.393 . S
C3005 C3004 1.391 . S
C3006 H2996 0.950 . S
C3006 C3007 1.386 . S
C3006 C3008 1.391 . S
C3007 C3006 1.386 . S
C3007 C3011 1.393 . S
C3008 H2997 0.950 . S
C3008 C3006 1.391 . S
C3008 C3009 1.400 . S
C3009 C3003 1.491 . S
C3009 C3008 1.400 . S
C3009 C3010 1.398 . S
C3010 H2998 0.950 . S
C3010 C3009 1.398 . S
C3010 C3011 1.391 . S
C3011 H2999 0.950 . S
C3011 C3007 1.393 . S
C3011 C3010 1.391 . S
H3012 C3020 0.950 . S
H3013 C3025 0.950 . S
H3014 C3022 0.950 . S
H3015 C3024 0.950 . S
H3016 C3026 0.950 . S
H3017 C3028 0.950 . S
H3018 C3030 0.950 . S
H3019 C3031 0.950 . S
C3020 H3012 0.950 . S
C3020 C3021 1.386 . S
C3020 C3022 1.391 . S
C3021 C3020 1.386 . S
C3021 C3025 1.393 . S
C3022 H3014 0.950 . S
C3022 C3020 1.391 . S
C3022 C3023 1.400 . S
C3023 C3022 1.400 . S
C3023 C3024 1.398 . S
C3023 C3029 1.491 . S
C3024 H3015 0.950 . S
C3024 C3023 1.398 . S
C3024 C3025 1.391 . S
C3025 H3013 0.950 . S
C3025 C3021 1.393 . S
C3025 C3024 1.391 . S
C3026 H3016 0.950 . S
C3026 C3027 1.386 . S
C3026 C3028 1.391 . S
C3027 C3026 1.386 . S
C3027 C3031 1.393 . S
C3028 H3017 0.950 . S
C3028 C3026 1.391 . S
C3028 C3029 1.400 . S
C3029 C3023 1.491 . S
C3029 C3028 1.400 . S
C3029 C3030 1.398 . S
C3030 H3018 0.950 . S
C3030 C3029 1.398 . S
C3030 C3031 1.391 . S
C3031 H3019 0.950 . S
C3031 C3027 1.393 . S
C3031 C3030 1.391 . S
H3032 C3040 0.950 . S
H3033 C3045 0.950 . S
H3034 C3042 0.950 . S
H3035 C3044 0.950 . S
H3036 C3046 0.950 . S
H3037 C3048 0.950 . S
H3038 C3050 0.950 . S
H3039 C3051 0.950 . S
C3040 H3032 0.950 . S
C3040 C3041 1.386 . S
C3040 C3042 1.391 . S
C3041 C3040 1.386 . S
C3041 C3045 1.393 . S
C3042 H3034 0.950 . S
C3042 C3040 1.391 . S
C3042 C3043 1.400 . S
C3043 C3042 1.400 . S
C3043 C3044 1.398 . S
C3043 C3049 1.491 . S
C3044 H3035 0.950 . S
C3044 C3043 1.398 . S
C3044 C3045 1.391 . S
C3045 H3033 0.950 . S
C3045 C3041 1.393 . S
C3045 C3044 1.391 . S
C3046 H3036 0.950 . S
C3046 C3047 1.386 . S
C3046 C3048 1.391 . S
C3047 C3046 1.386 . S
C3047 C3051 1.393 . S
C3048 H3037 0.950 . S
C3048 C3046 1.391 . S
C3048 C3049 1.400 . S
C3049 C3043 1.491 . S
C3049 C3048 1.400 . S
C3049 C3050 1.398 . S
C3050 H3038 0.950 . S
C3050 C3049 1.398 . S
C3050 C3051 1.391 . S
C3051 H3039 0.950 . S
C3051 C3047 1.393 . S
C3051 C3050 1.391 . S
H3052 C3060 0.950 . S
H3053 C3065 0.950 . S
H3054 C3062 0.950 . S
H3055 C3064 0.950 . S
H3056 C3066 0.950 . S
H3057 C3068 0.950 . S
H3058 C3070 0.950 . S
H3059 C3071 0.950 . S
C3060 H3052 0.950 . S
C3060 C3061 1.386 . S
C3060 C3062 1.391 . S
C3061 C3060 1.386 . S
C3061 C3065 1.393 . S
C3062 H3054 0.950 . S
C3062 C3060 1.391 . S
C3062 C3063 1.400 . S
C3063 C3062 1.400 . S
C3063 C3064 1.398 . S
C3063 C3069 1.491 . S
C3064 H3055 0.950 . S
C3064 C3063 1.398 . S
C3064 C3065 1.391 . S
C3065 H3053 0.950 . S
C3065 C3061 1.393 . S
C3065 C3064 1.391 . S
C3066 H3056 0.950 . S
C3066 C3067 1.386 . S
C3066 C3068 1.391 . S
C3067 C3066 1.386 . S
C3067 C3071 1.393 . S
C3068 H3057 0.950 . S
C3068 C3066 1.391 . S
C3068 C3069 1.400 . S
C3069 C3063 1.491 . S
C3069 C3068 1.400 . S
C3069 C3070 1.398 . S
C3070 H3058 0.950 . S
C3070 C3069 1.398 . S
C3070 C3071 1.391 . S
C3071 H3059 0.950 . S
C3071 C3067 1.393 . S
C3071 C3070 1.391 . S
C2121 C1369 1.467 . S
C2127 C29 1.472 . S
C2141 C117 1.465 . S
C2147 C1465 1.475 . S
C2161 C196 1.475 . S
C2167 C1553 1.464 . S
C2181 C284 1.473 . S
C2187 C1105 1.466 . S
C2201 C1193 1.466 . S
C2207 C401 1.474 . S
C2221 C469 1.466 . S
C2227 C1289 1.474 . S
C2241 C1868 1.464 . S
C2247 C585 1.475 . S
C2261 C665 1.467 . S
C2267 C1956 1.474 . S
C2281 C761 1.473 . S
C2287 C2044 1.466 . S
C2301 C1613 1.466 . S
C2307 C841 1.474 . S
C2321 C937 1.466 . S
C2327 C1701 1.474 . S
C2341 C1780 1.467 . S
C2347 C1017 1.473 . S
C2361 C20 0.988 . S
C2367 C2081 0.980 . S
C2381 C1633 0.985 . S
C2387 C108 0.982 . S
C2401 C205 0.978 . S
C2407 C1721 0.987 . S
C2421 C1817 0.991 . S
C2427 C293 0.974 . S
C2441 C409 0.993 . S
C2447 C1905 0.974 . S
C2461 C1993 0.977 . S
C2467 C460 0.991 . S
C2481 C577 0.974 . S
C2487 C1173 0.993 . S
C2501 C1252 0.989 . S
C2507 C673 0.976 . S
C2521 C1349 0.978 . S
C2527 C753 0.990 . S
C2541 C1428 0.990 . S
C2547 C849 0.975 . S
C2561 C929 0.974 . S
C2567 C1516 0.992 . S
C2581 C1025 0.972 . S
C2587 C1085 0.994 . S
C2601 C636 0.898 . S
C2607 C57 0.911 . S
C2621 C733 0.920 . S
C2627 C145 0.902 . S
C2641 C812 0.902 . S
C2647 C225 0.906 . S
C2661 C909 0.920 . S
C2667 C313 0.901 . S
C2681 C372 0.911 . S
C2687 C988 0.898 . S
C2701 C497 0.895 . S
C2707 C557 0.919 . S
C2721 C1076 0.915 . S
C2727 C1729 0.893 . S
C2741 C1164 0.892 . S
C2747 C1809 0.909 . S
C2761 C1897 0.909 . S
C2767 C1261 0.907 . S
C2781 C1985 0.898 . S
C2787 C1340 0.902 . S
C2801 C2073 0.892 . S
C2807 C1437 0.913 . S
C2821 C1641 0.910 . S
C2827 C1525 0.893 . S
C2841 C49 1.494 . S
C2847 C1692 1.501 . S
C2861 C1789 1.496 . S
C2867 C137 1.500 . S
C2881 C233 1.494 . S
C2887 C1877 1.502 . S
C2901 C1965 1.493 . S
C2907 C321 1.503 . S
C2921 C381 1.502 . S
C2927 C2053 1.495 . S
C2941 C1604 1.500 . S
C2947 C489 1.496 . S
C2961 C548 1.494 . S
C2967 C1545 1.500 . S
C2981 C1113 1.502 . S
C2987 C645 1.494 . S
C3001 C724 1.501 . S
C3007 C1201 1.496 . S
C3021 C821 1.496 . S
C3027 C1281 1.502 . S
C3041 C900 1.501 . S
C3047 C1377 1.495 . S
C3061 C997 1.495 . S
C3067 C1457 1.502 . S
