# Generated by pormake.
# Topology sma, (6)-cn, num edge types: 1
# Building blocks:
#     Node 0, Type 0, BuildingBlock: BETFAJ_clean_sbu_0, # of connection points: 6
#     Node 1, Type 0, BuildingBlock: BETFAJ_clean_sbu_0, # of connection points: 6
#     Node 2, Type 0, BuildingBlock: BETFAJ_clean_sbu_0, # of connection points: 6
#     Edge 3, Type (0, 0), BuildingBlock: TEMPAE_clean_linker_10, # of connection points: 2
#     Edge 4, Type (0, 0), BuildingBlock: TEMPAE_clean_linker_10, # of connection points: 2
#     Edge 5, Type (0, 0), BuildingBlock: TEMPAE_clean_linker_10, # of connection points: 2
#     Edge 6, Type (0, 0), BuildingBlock: TEMPAE_clean_linker_10, # of connection points: 2
#     Edge 7, Type (0, 0), BuildingBlock: TEMPAE_clean_linker_10, # of connection points: 2
#     Edge 8, Type (0, 0), BuildingBlock: TEMPAE_clean_linker_10, # of connection points: 2
#     Edge 9, Type (0, 0), BuildingBlock: TEMPAE_clean_linker_10, # of connection points: 2
#     Edge 10, Type (0, 0), BuildingBlock: TEMPAE_clean_linker_10, # of connection points: 2
#     Edge 11, Type (0, 0), BuildingBlock: TEMPAE_clean_linker_10, # of connection points: 2
# Relax obj value: 0.131
# Max RMSD: 0.258
# Mean RMSD: 0.203
data_MOF--net-sma--node1-BETFAJ_clean_sbu_0--edge1-TEMPAE_clean_linker_10
_symmetry_space_group_name_H-M    P1
_symmetry_Int_Tables_number       1
_symmetry_cell_setting            triclinic
loop_
_symmetry_equiv_pos_as_xyz
'x, y, z'
_cell_length_a     41.225111
_cell_length_b     48.138575
_cell_length_c     13.9359
_cell_angle_alpha  93.341059
_cell_angle_beta   89.519607
_cell_angle_gamma 139.52599
loop_
_atom_site_label
_atom_site_type_symbol
_atom_site_fract_x
_atom_site_fract_y
_atom_site_fract_z
_atom_type_partial_charge
Sm0 Sm 0.12915 0.64326 0.14476 0.0
Sm1 Sm 1.06691 0.65531 0.22085 0.0
C2 C 0.18441 0.64355 0.04275 0.0
C3 C 0.20735 0.63034 0.0352 0.0
C4 C 0.21518 0.62291 0.94378 0.0
C5 C 0.24341 0.61682 0.93372 0.0
C6 C 0.26477 0.6181 0.01501 0.0
C7 C 0.25532 0.62409 0.10683 0.0
C8 C 0.22703 0.63018 0.1168 0.0
C9 C 0.12817 0.64919 0.33806 0.0
C10 C 0.18393 0.74111 0.18891 0.0
C11 C 1.00643 0.65658 0.2802 0.0
C12 C 0.98018 0.66328 0.2355 0.0
C13 C 0.97277 0.68342 0.29005 0.0
C14 C 0.94625 0.6883 0.24993 0.0
C15 C 0.92614 0.67301 0.15393 0.0
C16 C 0.9344 0.65339 0.09912 0.0
C17 C 0.96112 0.64872 0.13919 0.0
C18 C 1.07275 0.6507 0.02693 0.0
C19 C 1.0195 0.56055 0.22862 0.0
O20 O 0.13607 0.61481 0.02513 0.0
O21 O 0.20241 0.67257 0.11191 0.0
O22 O 0.12869 0.66904 0.28221 0.0
O23 O 0.13486 0.62933 0.2943 0.0
O24 O 0.1799 0.71565 0.13006 0.0
O25 O 0.14731 0.72465 0.24536 0.0
O26 O 0.9909 0.62148 0.25058 0.0
O27 O 1.05523 0.68985 0.29285 0.0
O28 O 1.06666 0.62832 0.08438 0.0
O29 O 0.07465 0.67642 0.06986 0.0
O30 O 1.02214 0.58814 0.26788 0.0
O31 O 1.05308 0.57261 0.16835 0.0
H32 H 0.20101 0.62344 0.87965 0.0
H33 H 0.25018 0.61288 0.8618 0.0
H34 H 0.27033 0.62461 0.17125 0.0
H35 H 0.22178 0.63597 0.18829 0.0
H36 H 0.98721 0.69514 0.36427 0.0
H37 H 0.94168 0.70425 0.2944 0.0
H38 H 0.91919 0.64061 0.0256 0.0
H39 H 0.96627 0.63313 0.09502 0.0
Sm40 Sm 0.63315 0.14347 0.37683 0.0
Sm41 Sm 0.57954 0.1645 0.31274 0.0
C42 C 0.67564 0.13063 0.47392 0.0
C43 C 0.66883 0.09629 0.49323 0.0
C44 C 0.6574 0.08129 0.58553 0.0
C45 C 0.65478 1.05147 0.60679 0.0
C46 C 0.66398 1.03613 0.53648 0.0
C47 C 0.67467 1.05071 0.44373 0.0
C48 C 0.67708 0.08034 0.42238 0.0
C49 C 0.61833 0.13789 0.18582 0.0
C50 C 0.51499 0.06314 0.29989 0.0
C51 C 0.53021 0.17749 0.26285 0.0
C52 C 0.52694 0.2042 0.30726 0.0
C53 C 0.56882 0.24932 0.31793 0.0
C54 C 0.56574 0.27364 0.36612 0.0
C55 C 0.5208 0.25358 0.4055 0.0
C56 C 0.47878 0.20845 0.39321 0.0
C57 C 0.48179 0.18419 0.34454 0.0
C58 C 0.59466 0.16726 0.50384 0.0
C59 C 0.70142 0.24496 0.34124 0.0
O60 O 0.64507 0.12897 0.51242 0.0
O61 O 0.68737 0.14411 0.38726 0.0
O62 O 0.62941 0.16499 0.24539 0.0
O63 O 0.6209 0.11548 0.22369 0.0
O64 O 0.55054 0.07519 0.356 0.0
O65 O 0.52088 0.09167 0.26342 0.0
O66 O 0.57245 0.1973 0.22597 0.0
O67 O 0.51039 0.14503 0.31017 0.0
O68 O 0.58051 0.13995 0.44085 0.0
O69 O 0.60089 0.19523 0.46855 0.0
O70 O 0.66148 0.22971 0.29712 0.0
O71 O 0.69845 0.21954 0.3876 0.0
H72 H 0.65144 0.09328 0.64205 0.0
H73 H 0.64697 1.0414 0.67926 0.0
H74 H 0.6813 1.03923 0.38735 0.0
H75 H 0.68613 0.09117 0.35052 0.0
H76 H 0.60427 0.26594 0.2902 0.0
H77 H 0.59872 0.30828 0.37237 0.0
H78 H 0.44368 0.19161 0.42335 0.0
H79 H 0.4489 0.14952 0.33781 0.0
Sm80 Sm 0.63317 0.6884 0.85675 0.0
Sm81 Sm 0.56105 0.59094 0.89971 0.0
C82 C 0.68536 0.76043 0.7746 0.0
C83 C 0.67948 0.78624 0.75074 0.0
C84 C 0.68297 0.79594 0.65528 0.0
C85 C 0.67899 0.82127 0.63185 0.0
C86 C 0.6717 0.83779 0.70348 0.0
C87 C 0.66767 0.82762 0.79889 0.0
C88 C 0.67138 0.80212 0.8222 0.0
C89 C 0.61186 0.67061 0.04223 0.0
C90 C 0.51662 0.6262 0.90281 0.0
C91 C 0.50173 0.51028 0.93052 0.0
C92 C 0.49757 0.47929 0.88067 0.0
C93 C 0.51215 0.46505 0.92927 0.0
C94 C 0.51309 0.43935 0.88011 0.0
C95 C 0.49947 0.42722 0.78092 0.0
C96 C 0.48358 0.44056 0.73314 0.0
C97 C 0.48271 0.46623 0.78211 0.0
C98 C 0.58377 0.61183 0.71445 0.0
C99 C 0.68146 0.65709 0.9013 0.0
O100 O 0.65654 0.72328 0.72515 0.0
O101 O 0.69167 0.75937 0.86586 0.0
O102 O 0.619 0.65512 -0.01663 0.0
O103 O 0.62117 0.70055 0.00749 0.0
O104 O 0.55574 0.65897 0.85523 0.0
O105 O 0.51322 0.59901 0.9385 0.0
O106 O 0.54316 0.54266 -0.01704 0.0
O107 O 0.48696 0.52169 0.88046 0.0
O108 O 0.5739 0.62452 0.77435 0.0
O109 O 0.578 0.58399 0.7483 0.0
O110 O 0.6373 0.62056 0.92869 0.0
O111 O 0.68866 0.68642 0.86446 0.0
H112 H 0.68926 0.78422 0.5987 0.0
H113 H 0.68273 0.82868 0.55779 0.0
H114 H 0.6613 0.83917 0.85574 0.0
H115 H 0.66808 0.79503 0.89642 0.0
H116 H 0.52406 0.47471 0.00495 0.0
H117 H 0.52594 0.43007 0.91933 0.0
H118 H 0.47191 0.43128 0.65736 0.0
H119 H 0.47128 0.4765 0.74183 0.0
C120 C 0.28853 0.58782 0.93028 0.0
C121 C 0.29855 0.61526 0.0036 0.0
C122 C 0.32157 0.58686 0.9152 0.0
C123 C 0.36601 0.61393 -0.02524 0.0
C124 C 0.3758 0.64095 0.05029 0.0
C125 C 0.34217 0.64132 0.06366 0.0
C126 C 0.30939 0.55745 0.834 0.0
C127 C 0.42264 0.67045 0.11552 0.0
C128 C 0.43785 0.59174 -0.01934 0.0
C129 C 0.47662 0.62143 0.91918 0.0
C130 C 0.40149 0.5887 -0.00097 0.0
C131 C 0.4036 0.61584 0.95478 0.0
C132 C 0.44229 0.64547 0.89188 0.0
C133 C 0.47813 0.64793 0.87508 0.0
C134 C 0.36111 0.55676 0.06682 0.0
C135 C 0.44618 0.67501 0.84272 0.0
H136 H 0.25473 0.56702 0.88418 0.0
H137 H 0.35098 0.66315 0.11967 0.0
H138 H 0.33843 0.57679 0.78027 0.0
H139 H 0.30966 0.53648 0.86171 0.0
H140 H 0.2723 0.53689 0.79701 0.0
H141 H 0.42343 0.68754 0.17449 0.0
H142 H 0.42574 0.65196 0.14774 0.0
H143 H 0.45604 0.69467 0.07298 0.0
H144 H 0.43624 0.57121 0.01562 0.0
H145 H 0.50765 0.67099 0.82728 0.0
H146 H 0.32368 0.53475 0.02993 0.0
H147 H 0.36369 0.57388 0.12921 0.0
H148 H 0.36386 0.53734 0.09401 0.0
H149 H 0.41109 0.65589 0.79928 0.0
H150 H 0.478 0.69583 0.79479 0.0
H151 H 0.45108 0.6958 0.89744 0.0
C152 C 0.79533 0.31244 0.38091 0.0
C153 C 0.75083 0.29151 0.33182 0.0
C154 C 0.8414 0.35619 0.36955 0.0
C155 C 0.84347 0.37974 0.30683 0.0
C156 C 0.7987 0.35863 0.25702 0.0
C157 C 0.7534 0.31531 0.27033 0.0
C158 C 0.8879 0.3773 0.42495 0.0
C159 C 0.79855 0.38183 0.18895 0.0
C160 C 0.9464 0.50272 0.32894 0.0
C161 C 0.97693 0.51454 0.25318 0.0
C162 C 0.90447 0.45944 0.34983 0.0
C163 C 0.89182 0.42648 0.29326 0.0
C164 C 0.92322 0.43826 0.21828 0.0
C165 C 0.96531 0.48192 0.19955 0.0
C166 C 0.87276 0.4489 0.43099 0.0
C167 C 0.91133 0.40453 0.15535 0.0
H168 H 0.7942 0.29474 0.42856 0.0
H169 H 0.71976 0.29996 0.23116 0.0
H170 H 0.91673 0.38937 0.37432 0.0
H171 H 0.90388 0.40543 0.47119 0.0
H172 H 0.88038 0.35497 0.47107 0.0
H173 H 0.76089 0.3608 0.15417 0.0
H174 H 0.81133 0.40979 0.22842 0.0
H175 H 0.82508 0.39437 0.13183 0.0
H176 H 0.95492 0.52737 0.37182 0.0
H177 H 0.98833 0.49033 0.14088 0.0
H178 H 0.86684 0.42805 0.47968 0.0
H179 H 0.83539 0.43081 0.40128 0.0
H180 H 0.88994 0.47815 0.47392 0.0
H181 H 0.90626 0.38329 0.20035 0.0
H182 H 0.94111 0.41881 0.10479 0.0
H183 H 0.87558 0.38407 0.11283 0.0
C184 C 0.6272 0.97181 0.61744 0.0
C185 C 0.66375 1.00599 0.56022 0.0
C186 C 0.627 0.94356 0.64073 0.0
C187 C 0.66444 0.94963 0.60669 0.0
C188 C 0.70141 0.98405 0.54893 0.0
C189 C 0.70056 1.01164 0.52633 0.0
C190 C 0.58666 0.90717 0.70186 0.0
C191 C 0.74228 0.99203 0.51167 0.0
C192 C 0.69366 0.90276 0.73943 0.0
C193 C 0.6691 0.86602 0.67919 0.0
C194 C 0.69225 0.93 0.717 0.0
C195 C 0.66541 0.92038 0.63234 0.0
C196 C 0.6402 0.88318 0.57157 0.0
C197 C 0.64248 0.85662 0.59547 0.0
C198 C 0.72003 0.96943 0.78353 0.0
C199 C 0.61082 0.87144 0.48106 0.0
H200 H 0.59827 0.96679 0.64319 0.0
H201 H 0.72944 1.03824 0.48335 0.0
H202 H 0.56564 0.87605 0.66269 0.0
H203 H 0.60382 0.91025 0.76889 0.0
H204 H 0.55981 0.90639 0.72161 0.0
H205 H 0.76804 1.01992 0.46703 0.0
H206 H 0.76445 0.99801 0.57293 0.0
H207 H 0.72561 0.96319 0.46774 0.0
H208 H 0.71491 0.91074 0.80355 0.0
H209 H 0.62285 0.8281 0.54897 0.0
H210 H 0.69381 0.96864 0.80921 0.0
H211 H 0.74883 0.99866 0.74398 0.0
H212 H 0.73868 0.97221 0.84706 0.0
H213 H 0.58155 0.86784 0.49902 0.0
H214 H 0.59259 0.84111 0.44228 0.0
H215 H 0.63594 0.89755 0.43186 0.0
C216 C 0.71312 0.62938 0.92044 0.0
C217 C 0.72365 0.66485 0.91993 0.0
C218 C 0.74918 0.63376 0.95256 0.0
C219 C 0.79743 0.67468 -0.01351 0.0
C220 C 0.80912 0.71102 -0.01746 0.0
C221 C 0.77222 0.70573 0.94883 0.0
C222 C 0.73481 0.59407 0.95368 0.0
C223 C 0.8599 0.75523 0.01811 0.0
C224 C 0.86329 0.67137 0.16891 0.0
C225 C 0.89566 0.67641 0.11202 0.0
C226 C 0.83283 0.67249 0.1299 0.0
C227 C 0.83404 0.67848 0.03088 0.0
C228 C 0.86733 0.68452 -0.02661 0.0
C229 C 0.89766 0.68354 0.01443 0.0
C230 C 0.79806 0.66586 0.19434 0.0
C231 C 0.86996 0.69088 0.86763 0.0
H232 H 0.67584 0.59764 0.89775 0.0
H233 H 0.78065 0.73326 0.94975 0.0
H234 H 0.76249 0.59888 0.91621 0.0
H235 H 0.735 0.58797 0.02911 0.0
H236 H 0.69707 0.56511 0.91875 0.0
H237 H 0.86484 0.78061 0.00241 0.0
H238 H 0.86476 0.75657 0.09709 0.0
H239 H 0.88989 0.76229 -0.01534 0.0
H240 H 0.86051 0.66522 0.24383 0.0
H241 H 0.92296 0.6883 -0.03043 0.0
H242 H 0.75864 0.63514 0.17083 0.0
H243 H 0.80321 0.69192 0.18865 0.0
H244 H 0.80423 0.665 0.27103 0.0
H245 H 0.83365 0.66146 0.82932 0.0
H246 H 0.89999 0.69799 0.83398 0.0
H247 H 0.87664 0.71756 0.85709 0.0
C248 C 0.42993 1.00147 0.21162 0.0
C249 C 0.46682 1.01599 0.27762 0.0
C250 C 0.3841 0.95723 0.19183 0.0
C251 C 0.37428 0.92629 0.2394 0.0
C252 C 0.41152 0.94073 0.30546 0.0
C253 C 0.4571 0.9851 0.32344 0.0
C254 C 0.3459 0.9436 0.12048 0.0
C255 C 0.40295 0.90925 0.35845 0.0
C256 C 0.23851 0.81541 0.26712 0.0
C257 C 0.23176 0.78884 0.19722 0.0
C258 C 0.28416 0.85992 0.2806 0.0
C259 C 0.32463 0.87901 0.22262 0.0
C260 C 0.31781 0.85259 0.15059 0.0
C261 C 0.27174 0.80802 0.13897 0.0
C262 C 0.28937 0.88644 0.35848 0.0
C263 C 0.35954 0.87133 0.08653 0.0
H264 H 0.43674 1.02472 0.17524 0.0
H265 H 0.48496 0.99557 0.37467 0.0
H266 H 0.33572 0.92075 0.06288 0.0
H267 H 0.3112 0.92662 0.15701 0.0
H268 H 0.35973 0.97128 0.08676 0.0
H269 H 0.43585 0.92536 0.40595 0.0
H270 H 0.37009 0.89079 0.4031 0.0
H271 H 0.39446 0.88582 0.30629 0.0
H272 H 0.20824 0.80131 0.31297 0.0
H273 H 0.26729 0.78812 0.08466 0.0
H274 H 0.30029 0.91319 0.32721 0.0
H275 H 0.31952 0.90096 0.41243 0.0
H276 H 0.2542 0.86715 0.39603 0.0
H277 H 0.37254 0.89806 0.04957 0.0
H278 H 0.34787 0.84707 0.03132 0.0
H279 H 0.39194 0.88489 0.13078 0.0
C280 C 0.48857 0.3678 0.76762 0.0
C281 C 0.50283 0.40168 0.72669 0.0
C282 C 0.49139 0.34354 0.71677 0.0
C283 C 0.50899 0.35327 0.62248 0.0
C284 C 0.52366 0.38752 0.58096 0.0
C285 C 0.52046 0.41122 0.63335 0.0
C286 C 0.47519 0.30725 0.76378 0.0
C287 C 0.54292 0.39926 0.48102 0.0
C288 C 0.55846 0.3159 0.52117 0.0
C289 C 0.51793 0.27941 0.46049 0.0
C290 C 0.55609 0.34015 0.574 0.0
C291 C 0.51197 0.32762 0.56707 0.0
C292 C 0.47089 0.29082 0.5063 0.0
C293 C 0.47441 0.26737 0.45367 0.0
C294 C 0.60086 0.37919 0.63756 0.0
C295 C 0.42312 0.27624 0.49659 0.0
H296 H 0.47441 0.35975 0.83909 0.0
H297 H 0.53246 0.43774 0.6014 0.0
H298 H 0.44395 0.27654 0.71976 0.0
H299 H 0.50651 0.31258 0.76754 0.0
H300 H 0.46279 0.30393 0.8377 0.0
H301 H 0.55278 0.4267 0.45882 0.0
H302 H 0.57658 0.40779 0.4778 0.0
H303 H 0.51421 0.37129 0.42816 0.0
H304 H 0.592 0.32528 0.52869 0.0
H305 H 0.44307 0.23974 0.40618 0.0
H306 H 0.59025 0.37524 0.7133 0.0
H307 H 0.61377 0.40806 0.61553 0.0
H308 H 0.63257 0.38498 0.63448 0.0
H309 H 0.40765 0.27021 0.5683 0.0
H310 H 0.39419 0.24651 0.44792 0.0
H311 H 0.43101 0.30189 0.46815 0.0
C312 C 1.05955 0.61404 0.87609 0.0
C313 C 0.08457 0.6522 0.92845 0.0
C314 C 1.06973 0.61443 0.78047 0.0
C315 C 0.10719 0.65422 0.7393 0.0
C316 C 0.13437 0.69313 0.79387 0.0
C317 C 0.12184 0.69155 0.88822 0.0
C318 C 1.039 0.5723 0.72259 0.0
C319 C 0.17577 0.7361 0.75215 0.0
C320 C 0.14994 0.65129 0.50429 0.0
C321 C 0.12362 0.65081 0.44035 0.0
C322 C 0.14656 0.65416 0.60328 0.0
C323 C 0.11447 0.65459 0.63661 0.0
C324 C 0.08735 0.65353 0.57164 0.0
C325 C 0.09319 0.65259 0.47363 0.0
C326 C 0.17719 0.65685 0.67191 0.0
C327 C 1.05139 0.65237 0.60533 0.0
H328 H 1.03091 0.58383 0.90912 0.0
H329 H 0.14165 0.72096 0.93097 0.0
H330 H 1.01769 0.56795 0.66234 0.0
H331 H 1.06376 0.57239 0.69046 0.0
H332 H 1.0121 0.54437 0.76684 0.0
H333 H 0.19717 0.76332 0.80796 0.0
H334 H 0.20205 0.73867 0.7164 0.0
H335 H 0.15971 0.73916 0.6966 0.0
H336 H 0.1739 0.65044 0.47695 0.0
H337 H 1.07297 0.65211 0.42279 0.0
H338 H 0.15213 0.62818 0.71394 0.0
H339 H 0.19976 0.68536 0.72419 0.0
H340 H 0.20278 0.65901 0.63386 0.0
H341 H 1.02246 0.62422 0.64782 0.0
H342 H 1.03233 0.65041 0.54447 0.0
H343 H 1.07159 0.68152 0.65314 0.0
C344 C 0.58205 0.14156 0.05815 0.0
C345 C 0.60944 0.13618 0.0849 0.0
C346 C 0.57807 0.14574 0.96258 0.0
C347 C 0.60365 0.14591 0.89425 0.0
C348 C 0.63078 0.13974 0.92079 0.0
C349 C 0.63265 0.13414 0.0168 0.0
C350 C 0.54725 0.1506 0.93514 0.0
C351 C 0.65907 0.14058 0.84874 0.0
C352 C 0.56202 0.12151 0.63501 0.0
C353 C 0.59594 0.1629 0.6047 0.0
C354 C 0.56377 0.11552 0.73013 0.0
C355 C 0.60132 0.15197 0.79447 0.0
C356 C 0.63578 0.19398 0.76421 0.0
C357 C 0.63211 0.199 0.66877 0.0
C358 C 0.52556 0.07039 0.76163 0.0
C359 C 0.67685 0.23327 0.83193 0.0
H360 H 0.56418 0.14294 0.11228 0.0
H361 H 0.65432 0.13051 0.03944 0.0
H362 H 0.57166 0.18243 0.90715 0.0
H363 H 0.51885 0.12588 0.8768 0.0
H364 H 0.52776 0.14757 -0.003 0.0
H365 H 0.67861 0.13557 0.88185 0.0
H366 H 0.6331 0.11534 0.78921 0.0
H367 H 0.68719 0.17192 0.81644 0.0
H368 H 0.53393 0.09376 0.58415 0.0
H369 H 0.65841 0.23082 0.64344 0.0
H370 H 0.50533 0.06679 0.82253 0.0
H371 H 0.54457 0.06392 0.78755 0.0
H372 H 0.49773 1.04572 0.70251 0.0
H373 H 0.66038 0.23434 0.89317 0.0
H374 H 0.70143 0.26352 0.79568 0.0
H375 H 0.70016 0.23168 0.86233 0.0
C376 C 0.53477 0.59078 0.56934 0.0
C377 C 0.58104 0.61451 0.61367 0.0
C378 C 0.53189 0.59705 0.47503 0.0
C379 C 0.57653 0.62792 0.42646 0.0
C380 C 0.62346 0.65212 0.4719 0.0
C381 C 0.62508 0.64494 0.56603 0.0
C382 C 0.4815 0.57078 0.42745 0.0
C383 C 0.67173 0.68538 0.42113 0.0
C384 C 0.58294 0.6212 0.16181 0.0
C385 C 0.59465 0.6557 0.13734 0.0
C386 C 0.57242 0.60921 0.25541 0.0
C387 C 0.57444 0.6329 0.32542 0.0
C388 C 0.58236 0.66565 0.29982 0.0
C389 C 0.59239 0.67674 0.20477 0.0
C390 C 0.5638 0.5739 0.28072 0.0
C391 C 0.58425 0.6911 0.37383 0.0
H392 H 0.50114 0.56789 0.6091 0.0
H393 H 0.66064 0.66366 0.6032 0.0
H394 H 0.48185 0.59226 0.40078 0.0
H395 H 0.47344 0.55086 0.36409 0.0
H396 H 0.4507 0.54927 0.47722 0.0
H397 H 0.70503 0.70241 0.46862 0.0
H398 H 0.67071 0.66978 0.3573 0.0
H399 H 0.67623 0.70945 0.39507 0.0
H400 H 0.5844 0.60484 0.10893 0.0
H401 H 0.60087 0.70309 0.18458 0.0
H402 H 0.53194 0.55189 0.3279 0.0
H403 H 0.59757 0.58829 0.32087 0.0
H404 H 0.5562 0.5548 0.21568 0.0
H405 H 0.55331 0.66963 0.42314 0.0
H406 H 0.582 0.70994 0.33977 0.0
H407 H 0.61995 0.71375 0.41816 0.0
loop_
_geom_bond_atom_site_label_1
_geom_bond_atom_site_label_2
_geom_bond_distance
_geom_bond_site_symmetry_2
_ccdc_geom_bond_type
Sm0 C2 2.846 . S
Sm0 O20 2.543 . S
Sm0 O21 2.450 . S
Sm0 O22 2.681 . S
Sm0 O23 2.464 . S
Sm0 O24 2.396 . S
Sm0 O28 2.386 . S
Sm0 O31 2.408 1_455 S
Sm1 C11 2.846 . S
Sm1 O22 2.386 1_655 S
Sm1 O25 2.408 1_655 S
Sm1 O26 2.543 . S
Sm1 O27 2.450 . S
Sm1 O28 2.681 1_655 S
Sm1 O29 2.464 1_554 S
Sm1 O30 2.396 . S
C2 Sm0 2.846 . S
C2 C3 1.506 . S
C2 O20 1.261 . S
C2 O21 1.242 . S
C3 C2 1.506 . S
C3 C4 1.358 . S
C3 C8 1.382 . S
C4 C3 1.358 . S
C4 C5 1.385 . S
C4 H32 0.930 . S
C5 C4 1.385 . S
C5 C6 1.395 . S
C5 H33 0.929 . S
C6 C5 1.395 . S
C6 C7 1.335 . S
C7 C6 1.335 . S
C7 C8 1.398 . S
C7 H34 0.930 . S
C8 C3 1.382 . S
C8 C7 1.398 . S
C8 H35 0.929 . S
C9 O22 1.271 . S
C9 O23 1.251 . S
C10 O24 1.252 . S
C10 O25 1.272 . S
C11 Sm1 2.846 . S
C11 C12 1.506 . S
C11 O26 1.261 . S
C11 O27 1.242 . S
C12 C11 1.506 . S
C12 C13 1.358 . S
C12 C17 1.382 . S
C13 C12 1.358 . S
C13 C14 1.385 . S
C13 H36 0.930 . S
C14 C13 1.385 . S
C14 C15 1.395 . S
C14 H37 0.929 . S
C15 C14 1.395 . S
C15 C16 1.335 . S
C16 C15 1.335 . S
C16 C17 1.398 . S
C16 H38 0.930 . S
C17 C12 1.382 . S
C17 C16 1.398 . S
C17 H39 0.929 . S
C18 O28 1.271 1_556 S
C18 O29 1.251 1_455 S
C19 O30 1.252 . S
C19 O31 1.272 . S
O20 Sm0 2.543 . S
O20 C2 1.261 . S
O21 Sm0 2.450 . S
O21 C2 1.242 . S
O22 Sm0 2.681 . S
O22 Sm1 2.386 1_455 S
O22 C9 1.271 . S
O23 Sm0 2.464 . S
O23 C9 1.251 . S
O24 Sm0 2.396 . S
O24 C10 1.252 . S
O25 Sm1 2.408 1_455 S
O25 C10 1.272 . S
O26 Sm1 2.543 . S
O26 C11 1.261 . S
O27 Sm1 2.450 . S
O27 C11 1.242 . S
O28 Sm0 2.386 . S
O28 Sm1 2.681 1_455 S
O28 C18 1.271 1_554 S
O29 Sm1 2.464 1_556 S
O29 C18 1.251 1_655 S
O30 Sm1 2.396 . S
O30 C19 1.252 . S
O31 Sm0 2.408 1_655 S
O31 C19 1.272 . S
H32 C4 0.930 . S
H33 C5 0.929 . S
H34 C7 0.930 . S
H35 C8 0.929 . S
H36 C13 0.930 . S
H37 C14 0.929 . S
H38 C16 0.930 . S
H39 C17 0.929 . S
Sm40 C42 2.846 . S
Sm40 O60 2.543 . S
Sm40 O61 2.450 . S
Sm40 O62 2.681 . S
Sm40 O63 2.464 . S
Sm40 O64 2.396 . S
Sm40 O68 2.386 . S
Sm40 O71 2.408 . S
Sm41 C51 2.846 . S
Sm41 O62 2.386 . S
Sm41 O65 2.408 . S
Sm41 O66 2.543 . S
Sm41 O67 2.450 . S
Sm41 O68 2.681 . S
Sm41 O69 2.464 . S
Sm41 O70 2.396 . S
C42 Sm40 2.846 . S
C42 C43 1.506 1_545 S
C42 O60 1.261 . S
C42 O61 1.242 . S
C43 C42 1.506 1_565 S
C43 C44 1.358 . S
C43 C48 1.382 . S
C44 C43 1.358 . S
C44 C45 1.385 . S
C44 H72 0.930 . S
C45 C44 1.385 . S
C45 C46 1.395 . S
C45 H73 0.929 . S
C46 C45 1.395 . S
C46 C47 1.335 . S
C47 C46 1.335 . S
C47 C48 1.398 . S
C47 H74 0.930 . S
C48 C43 1.382 . S
C48 C47 1.398 . S
C48 H75 0.929 . S
C49 O62 1.271 . S
C49 O63 1.251 . S
C50 O64 1.252 . S
C50 O65 1.272 . S
C51 Sm41 2.846 . S
C51 C52 1.506 . S
C51 O66 1.261 . S
C51 O67 1.242 . S
C52 C51 1.506 . S
C52 C53 1.358 . S
C52 C57 1.382 . S
C53 C52 1.358 . S
C53 C54 1.385 . S
C53 H76 0.930 . S
C54 C53 1.385 . S
C54 C55 1.395 . S
C54 H77 0.929 . S
C55 C54 1.395 . S
C55 C56 1.335 . S
C56 C55 1.335 . S
C56 C57 1.398 . S
C56 H78 0.930 . S
C57 C52 1.382 . S
C57 C56 1.398 . S
C57 H79 0.929 . S
C58 O68 1.271 . S
C58 O69 1.251 . S
C59 O70 1.252 . S
C59 O71 1.272 . S
O60 Sm40 2.543 . S
O60 C42 1.261 . S
O61 Sm40 2.450 . S
O61 C42 1.242 . S
O62 Sm40 2.681 . S
O62 Sm41 2.386 . S
O62 C49 1.271 . S
O63 Sm40 2.464 . S
O63 C49 1.251 . S
O64 Sm40 2.396 . S
O64 C50 1.252 . S
O65 Sm41 2.408 . S
O65 C50 1.272 . S
O66 Sm41 2.543 . S
O66 C51 1.261 . S
O67 Sm41 2.450 . S
O67 C51 1.242 . S
O68 Sm40 2.386 . S
O68 Sm41 2.681 . S
O68 C58 1.271 . S
O69 Sm41 2.464 . S
O69 C58 1.251 . S
O70 Sm41 2.396 . S
O70 C59 1.252 . S
O71 Sm40 2.408 . S
O71 C59 1.272 . S
H72 C44 0.930 . S
H73 C45 0.929 . S
H74 C47 0.930 . S
H75 C48 0.929 . S
H76 C53 0.930 . S
H77 C54 0.929 . S
H78 C56 0.930 . S
H79 C57 0.929 . S
Sm80 C82 2.846 . S
Sm80 O100 2.543 . S
Sm80 O101 2.450 . S
Sm80 O102 2.681 . S
Sm80 O103 2.464 1_556 S
Sm80 O104 2.396 . S
Sm80 O108 2.386 . S
Sm80 O111 2.408 . S
Sm81 C91 2.846 . S
Sm81 O102 2.386 . S
Sm81 O105 2.408 . S
Sm81 O106 2.543 . S
Sm81 O107 2.450 . S
Sm81 O108 2.681 . S
Sm81 O109 2.464 . S
Sm81 O110 2.396 . S
C82 Sm80 2.846 . S
C82 C83 1.506 . S
C82 O100 1.261 . S
C82 O101 1.242 . S
C83 C82 1.506 . S
C83 C84 1.358 . S
C83 C88 1.382 . S
C84 C83 1.358 . S
C84 C85 1.385 . S
C84 H112 0.930 . S
C85 C84 1.385 . S
C85 C86 1.395 . S
C85 H113 0.929 . S
C86 C85 1.395 . S
C86 C87 1.335 . S
C87 C86 1.335 . S
C87 C88 1.398 . S
C87 H114 0.930 . S
C88 C83 1.382 . S
C88 C87 1.398 . S
C88 H115 0.929 1_556 S
C89 O102 1.271 1_554 S
C89 O103 1.251 . S
C90 O104 1.252 . S
C90 O105 1.272 . S
C91 Sm81 2.846 . S
C91 C92 1.506 . S
C91 O106 1.261 . S
C91 O107 1.242 . S
C92 C91 1.506 . S
C92 C93 1.358 . S
C92 C97 1.382 . S
C93 C92 1.358 . S
C93 C94 1.385 . S
C93 H116 0.930 . S
C94 C93 1.385 . S
C94 C95 1.395 . S
C94 H117 0.929 . S
C95 C94 1.395 . S
C95 C96 1.335 . S
C96 C95 1.335 . S
C96 C97 1.398 . S
C96 H118 0.930 . S
C97 C92 1.382 . S
C97 C96 1.398 . S
C97 H119 0.929 . S
C98 O108 1.271 . S
C98 O109 1.251 . S
C99 O110 1.252 . S
C99 O111 1.272 . S
O100 Sm80 2.543 . S
O100 C82 1.261 . S
O101 Sm80 2.450 . S
O101 C82 1.242 . S
O102 Sm80 2.681 . S
O102 Sm81 2.386 . S
O102 C89 1.271 1_556 S
O103 Sm80 2.464 1_554 S
O103 C89 1.251 . S
O104 Sm80 2.396 . S
O104 C90 1.252 . S
O105 Sm81 2.408 . S
O105 C90 1.272 . S
O106 Sm81 2.543 . S
O106 C91 1.261 . S
O107 Sm81 2.450 . S
O107 C91 1.242 . S
O108 Sm80 2.386 . S
O108 Sm81 2.681 . S
O108 C98 1.271 . S
O109 Sm81 2.464 . S
O109 C98 1.251 . S
O110 Sm81 2.396 . S
O110 C99 1.252 . S
O111 Sm80 2.408 . S
O111 C99 1.272 . S
H112 C84 0.930 . S
H113 C85 0.929 . S
H114 C87 0.930 . S
H115 C88 0.929 1_554 S
H116 C93 0.930 . S
H117 C94 0.929 . S
H118 C96 0.930 . S
H119 C97 0.929 . S
C120 C121 1.391 . S
C120 C122 1.394 1_554 S
C120 H136 0.931 . S
C121 C120 1.391 . S
C121 C125 1.376 . S
C122 C120 1.394 1_556 S
C122 C123 1.369 . S
C122 C126 1.531 . S
C123 C122 1.369 . S
C123 C124 1.410 1_556 S
C123 C131 1.503 . S
C124 C123 1.410 1_554 S
C124 C125 1.392 . S
C124 C127 1.511 . S
C125 C121 1.376 . S
C125 C124 1.392 . S
C125 H137 0.929 . S
C126 C122 1.531 . S
C126 H138 0.960 . S
C126 H139 0.962 . S
C126 H140 0.960 . S
C127 C124 1.511 . S
C127 H141 0.961 . S
C127 H142 0.961 . S
C127 H143 0.961 1_554 S
C128 C129 1.370 . S
C128 C130 1.363 1_556 S
C128 H144 0.931 1_556 S
C129 C128 1.370 . S
C129 C133 1.408 . S
C130 C128 1.363 1_554 S
C130 C131 1.370 1_554 S
C130 C134 1.524 . S
C131 C123 1.503 . S
C131 C130 1.370 1_556 S
C131 C132 1.403 . S
C132 C131 1.403 . S
C132 C133 1.404 . S
C132 C135 1.539 . S
C133 C129 1.408 . S
C133 C132 1.404 . S
C133 H145 0.930 . S
C134 C130 1.524 . S
C134 H146 0.956 . S
C134 H147 0.961 . S
C134 H148 0.961 . S
C135 C132 1.539 . S
C135 H149 0.958 . S
C135 H150 0.961 . S
C135 H151 0.960 . S
H136 C120 0.931 . S
H137 C125 0.929 . S
H138 C126 0.960 . S
H139 C126 0.962 . S
H140 C126 0.960 . S
H141 C127 0.961 . S
H142 C127 0.961 . S
H143 C127 0.961 1_556 S
H144 C128 0.931 1_554 S
H145 C133 0.930 . S
H146 C134 0.956 . S
H147 C134 0.961 . S
H148 C134 0.961 . S
H149 C135 0.958 . S
H150 C135 0.961 . S
H151 C135 0.960 . S
C152 C153 1.391 . S
C152 C154 1.394 . S
C152 H168 0.931 . S
C153 C152 1.391 . S
C153 C157 1.376 . S
C154 C152 1.394 . S
C154 C155 1.369 . S
C154 C158 1.531 . S
C155 C154 1.369 . S
C155 C156 1.410 . S
C155 C163 1.503 . S
C156 C155 1.410 . S
C156 C157 1.392 . S
C156 C159 1.511 . S
C157 C153 1.376 . S
C157 C156 1.392 . S
C157 H169 0.929 . S
C158 C154 1.531 . S
C158 H170 0.960 . S
C158 H171 0.962 . S
C158 H172 0.960 . S
C159 C156 1.511 . S
C159 H173 0.961 . S
C159 H174 0.961 . S
C159 H175 0.961 . S
C160 C161 1.370 . S
C160 C162 1.363 . S
C160 H176 0.931 . S
C161 C160 1.370 . S
C161 C165 1.408 . S
C162 C160 1.363 . S
C162 C163 1.370 . S
C162 C166 1.524 . S
C163 C155 1.503 . S
C163 C162 1.370 . S
C163 C164 1.403 . S
C164 C163 1.403 . S
C164 C165 1.404 . S
C164 C167 1.539 . S
C165 C161 1.408 . S
C165 C164 1.404 . S
C165 H177 0.930 . S
C166 C162 1.524 . S
C166 H178 0.956 . S
C166 H179 0.961 . S
C166 H180 0.961 . S
C167 C164 1.539 . S
C167 H181 0.958 . S
C167 H182 0.961 . S
C167 H183 0.960 . S
H168 C152 0.931 . S
H169 C157 0.929 . S
H170 C158 0.960 . S
H171 C158 0.962 . S
H172 C158 0.960 . S
H173 C159 0.961 . S
H174 C159 0.961 . S
H175 C159 0.961 . S
H176 C160 0.931 . S
H177 C165 0.930 . S
H178 C166 0.956 . S
H179 C166 0.961 . S
H180 C166 0.961 . S
H181 C167 0.958 . S
H182 C167 0.961 . S
H183 C167 0.960 . S
C184 C185 1.391 . S
C184 C186 1.394 . S
C184 H200 0.931 . S
C185 C184 1.391 . S
C185 C189 1.376 . S
C186 C184 1.394 . S
C186 C187 1.369 . S
C186 C190 1.531 . S
C187 C186 1.369 . S
C187 C188 1.410 . S
C187 C195 1.503 . S
C188 C187 1.410 . S
C188 C189 1.392 . S
C188 C191 1.511 . S
C189 C185 1.376 . S
C189 C188 1.392 . S
C189 H201 0.929 . S
C190 C186 1.531 . S
C190 H202 0.960 . S
C190 H203 0.962 . S
C190 H204 0.960 . S
C191 C188 1.511 . S
C191 H205 0.961 . S
C191 H206 0.961 . S
C191 H207 0.961 . S
C192 C193 1.370 . S
C192 C194 1.363 . S
C192 H208 0.931 . S
C193 C192 1.370 . S
C193 C197 1.408 . S
C194 C192 1.363 . S
C194 C195 1.370 . S
C194 C198 1.524 . S
C195 C187 1.503 . S
C195 C194 1.370 . S
C195 C196 1.403 . S
C196 C195 1.403 . S
C196 C197 1.404 . S
C196 C199 1.539 . S
C197 C193 1.408 . S
C197 C196 1.404 . S
C197 H209 0.930 . S
C198 C194 1.524 . S
C198 H210 0.956 . S
C198 H211 0.961 . S
C198 H212 0.961 . S
C199 C196 1.539 . S
C199 H213 0.958 . S
C199 H214 0.961 . S
C199 H215 0.960 . S
H200 C184 0.931 . S
H201 C189 0.929 . S
H202 C190 0.960 . S
H203 C190 0.962 . S
H204 C190 0.960 . S
H205 C191 0.961 . S
H206 C191 0.961 . S
H207 C191 0.961 . S
H208 C192 0.931 . S
H209 C197 0.930 . S
H210 C198 0.956 . S
H211 C198 0.961 . S
H212 C198 0.961 . S
H213 C199 0.958 . S
H214 C199 0.961 . S
H215 C199 0.960 . S
C216 C217 1.391 . S
C216 C218 1.394 . S
C216 H232 0.931 . S
C217 C216 1.391 . S
C217 C221 1.376 . S
C218 C216 1.394 . S
C218 C219 1.369 . S
C218 C222 1.531 . S
C219 C218 1.369 . S
C219 C220 1.410 1_556 S
C219 C227 1.503 1_556 S
C220 C219 1.410 1_554 S
C220 C221 1.392 1_554 S
C220 C223 1.511 . S
C221 C217 1.376 . S
C221 C220 1.392 1_556 S
C221 H233 0.929 1_556 S
C222 C218 1.531 . S
C222 H234 0.960 . S
C222 H235 0.962 . S
C222 H236 0.960 . S
C223 C220 1.511 . S
C223 H237 0.961 . S
C223 H238 0.961 . S
C223 H239 0.961 . S
C224 C225 1.370 . S
C224 C226 1.363 . S
C224 H240 0.931 . S
C225 C224 1.370 . S
C225 C229 1.408 . S
C226 C224 1.363 . S
C226 C227 1.370 . S
C226 C230 1.524 . S
C227 C219 1.503 1_554 S
C227 C226 1.370 . S
C227 C228 1.403 . S
C228 C227 1.403 . S
C228 C229 1.404 . S
C228 C231 1.539 1_554 S
C229 C225 1.408 . S
C229 C228 1.404 . S
C229 H241 0.930 . S
C230 C226 1.524 . S
C230 H242 0.956 . S
C230 H243 0.961 . S
C230 H244 0.961 . S
C231 C228 1.539 1_556 S
C231 H245 0.958 . S
C231 H246 0.961 . S
C231 H247 0.960 . S
H232 C216 0.931 . S
H233 C221 0.929 1_554 S
H234 C222 0.960 . S
H235 C222 0.962 . S
H236 C222 0.960 . S
H237 C223 0.961 . S
H238 C223 0.961 . S
H239 C223 0.961 . S
H240 C224 0.931 . S
H241 C229 0.930 . S
H242 C230 0.956 . S
H243 C230 0.961 . S
H244 C230 0.961 . S
H245 C231 0.958 . S
H246 C231 0.961 . S
H247 C231 0.960 . S
C248 C249 1.391 . S
C248 C250 1.394 . S
C248 H264 0.931 . S
C249 C248 1.391 . S
C249 C253 1.376 . S
C250 C248 1.394 . S
C250 C251 1.369 . S
C250 C254 1.531 . S
C251 C250 1.369 . S
C251 C252 1.410 . S
C251 C259 1.503 . S
C252 C251 1.410 . S
C252 C253 1.392 . S
C252 C255 1.511 . S
C253 C249 1.376 . S
C253 C252 1.392 . S
C253 H265 0.929 . S
C254 C250 1.531 . S
C254 H266 0.960 . S
C254 H267 0.962 . S
C254 H268 0.960 . S
C255 C252 1.511 . S
C255 H269 0.961 . S
C255 H270 0.961 . S
C255 H271 0.961 . S
C256 C257 1.370 . S
C256 C258 1.363 . S
C256 H272 0.931 . S
C257 C256 1.370 . S
C257 C261 1.408 . S
C258 C256 1.363 . S
C258 C259 1.370 . S
C258 C262 1.524 . S
C259 C251 1.503 . S
C259 C258 1.370 . S
C259 C260 1.403 . S
C260 C259 1.403 . S
C260 C261 1.404 . S
C260 C263 1.539 . S
C261 C257 1.408 . S
C261 C260 1.404 . S
C261 H273 0.930 . S
C262 C258 1.524 . S
C262 H274 0.956 . S
C262 H275 0.961 . S
C262 H276 0.961 . S
C263 C260 1.539 . S
C263 H277 0.958 . S
C263 H278 0.961 . S
C263 H279 0.960 . S
H264 C248 0.931 . S
H265 C253 0.929 . S
H266 C254 0.960 . S
H267 C254 0.962 . S
H268 C254 0.960 . S
H269 C255 0.961 . S
H270 C255 0.961 . S
H271 C255 0.961 . S
H272 C256 0.931 . S
H273 C261 0.930 . S
H274 C262 0.956 . S
H275 C262 0.961 . S
H276 C262 0.961 . S
H277 C263 0.958 . S
H278 C263 0.961 . S
H279 C263 0.960 . S
C280 C281 1.391 . S
C280 C282 1.394 . S
C280 H296 0.931 . S
C281 C280 1.391 . S
C281 C285 1.376 . S
C282 C280 1.394 . S
C282 C283 1.369 . S
C282 C286 1.531 . S
C283 C282 1.369 . S
C283 C284 1.410 . S
C283 C291 1.503 . S
C284 C283 1.410 . S
C284 C285 1.392 . S
C284 C287 1.511 . S
C285 C281 1.376 . S
C285 C284 1.392 . S
C285 H297 0.929 . S
C286 C282 1.531 . S
C286 H298 0.960 . S
C286 H299 0.962 . S
C286 H300 0.960 . S
C287 C284 1.511 . S
C287 H301 0.961 . S
C287 H302 0.961 . S
C287 H303 0.961 . S
C288 C289 1.370 . S
C288 C290 1.363 . S
C288 H304 0.931 . S
C289 C288 1.370 . S
C289 C293 1.408 . S
C290 C288 1.363 . S
C290 C291 1.370 . S
C290 C294 1.524 . S
C291 C283 1.503 . S
C291 C290 1.370 . S
C291 C292 1.403 . S
C292 C291 1.403 . S
C292 C293 1.404 . S
C292 C295 1.539 . S
C293 C289 1.408 . S
C293 C292 1.404 . S
C293 H305 0.930 . S
C294 C290 1.524 . S
C294 H306 0.956 . S
C294 H307 0.961 . S
C294 H308 0.961 . S
C295 C292 1.539 . S
C295 H309 0.958 . S
C295 H310 0.961 . S
C295 H311 0.960 . S
H296 C280 0.931 . S
H297 C285 0.929 . S
H298 C286 0.960 . S
H299 C286 0.962 . S
H300 C286 0.960 . S
H301 C287 0.961 . S
H302 C287 0.961 . S
H303 C287 0.961 . S
H304 C288 0.931 . S
H305 C293 0.930 . S
H306 C294 0.956 . S
H307 C294 0.961 . S
H308 C294 0.961 . S
H309 C295 0.958 . S
H310 C295 0.961 . S
H311 C295 0.960 . S
C312 C313 1.391 1_655 S
C312 C314 1.394 . S
C312 H328 0.931 . S
C313 C312 1.391 1_455 S
C313 C317 1.376 . S
C314 C312 1.394 . S
C314 C315 1.369 1_655 S
C314 C318 1.531 . S
C315 C314 1.369 1_455 S
C315 C316 1.410 . S
C315 C323 1.503 . S
C316 C315 1.410 . S
C316 C317 1.392 . S
C316 C319 1.511 . S
C317 C313 1.376 . S
C317 C316 1.392 . S
C317 H329 0.929 . S
C318 C314 1.531 . S
C318 H330 0.960 . S
C318 H331 0.962 . S
C318 H332 0.960 . S
C319 C316 1.511 . S
C319 H333 0.961 . S
C319 H334 0.961 . S
C319 H335 0.961 . S
C320 C321 1.370 . S
C320 C322 1.363 . S
C320 H336 0.931 . S
C321 C320 1.370 . S
C321 C325 1.408 1_455 S
C322 C320 1.363 . S
C322 C323 1.370 . S
C322 C326 1.524 . S
C323 C315 1.503 . S
C323 C322 1.370 . S
C323 C324 1.403 1_455 S
C324 C323 1.403 1_655 S
C324 C325 1.404 . S
C324 C327 1.539 . S
C325 C321 1.408 1_655 S
C325 C324 1.404 . S
C325 H337 0.930 . S
C326 C322 1.524 . S
C326 H338 0.956 . S
C326 H339 0.961 . S
C326 H340 0.961 . S
C327 C324 1.539 . S
C327 H341 0.958 . S
C327 H342 0.961 . S
C327 H343 0.960 . S
H328 C312 0.931 . S
H329 C317 0.929 . S
H330 C318 0.960 . S
H331 C318 0.962 . S
H332 C318 0.960 . S
H333 C319 0.961 . S
H334 C319 0.961 . S
H335 C319 0.961 . S
H336 C320 0.931 . S
H337 C325 0.930 . S
H338 C326 0.956 . S
H339 C326 0.961 . S
H340 C326 0.961 . S
H341 C327 0.958 . S
H342 C327 0.961 . S
H343 C327 0.960 . S
C344 C345 1.391 . S
C344 C346 1.394 . S
C344 H360 0.931 . S
C345 C344 1.391 . S
C345 C349 1.376 . S
C346 C344 1.394 . S
C346 C347 1.369 . S
C346 C350 1.531 . S
C347 C346 1.369 . S
C347 C348 1.410 . S
C347 C355 1.503 1_554 S
C348 C347 1.410 . S
C348 C349 1.392 . S
C348 C351 1.511 . S
C349 C345 1.376 . S
C349 C348 1.392 . S
C349 H361 0.929 . S
C350 C346 1.531 . S
C350 H362 0.960 1_554 S
C350 H363 0.964 . S
C350 H364 0.960 . S
C351 C348 1.511 . S
C351 H365 0.961 . S
C351 H366 0.961 1_554 S
C351 H367 0.961 . S
C352 C353 1.370 . S
C352 C354 1.363 . S
C352 H368 0.931 . S
C353 C352 1.370 . S
C353 C357 1.408 . S
C354 C352 1.363 . S
C354 C355 1.370 . S
C354 C358 1.524 . S
C355 C347 1.503 1_556 S
C355 C354 1.370 . S
C355 C356 1.403 . S
C356 C355 1.403 . S
C356 C357 1.404 . S
C356 C359 1.539 . S
C357 C353 1.408 . S
C357 C356 1.404 . S
C357 H369 0.930 . S
C358 C354 1.524 . S
C358 H370 0.956 . S
C358 H371 0.961 . S
C358 H372 0.961 . S
C359 C356 1.539 . S
C359 H373 0.958 . S
C359 H374 0.961 . S
C359 H375 0.960 . S
H360 C344 0.931 . S
H361 C349 0.929 . S
H362 C350 0.960 1_556 S
H363 C350 0.964 . S
H364 C350 0.960 . S
H365 C351 0.961 . S
H366 C351 0.961 1_556 S
H367 C351 0.961 . S
H368 C352 0.931 . S
H369 C357 0.930 . S
H370 C358 0.956 . S
H371 C358 0.961 . S
H372 C358 0.961 . S
H373 C359 0.958 . S
H374 C359 0.961 . S
H375 C359 0.960 . S
C376 C377 1.391 . S
C376 C378 1.394 . S
C376 H392 0.931 . S
C377 C376 1.391 . S
C377 C381 1.376 . S
C378 C376 1.394 . S
C378 C379 1.369 . S
C378 C382 1.531 . S
C379 C378 1.369 . S
C379 C380 1.410 . S
C379 C387 1.503 . S
C380 C379 1.410 . S
C380 C381 1.392 . S
C380 C383 1.511 . S
C381 C377 1.376 . S
C381 C380 1.392 . S
C381 H393 0.929 . S
C382 C378 1.531 . S
C382 H394 0.960 . S
C382 H395 0.962 . S
C382 H396 0.960 . S
C383 C380 1.511 . S
C383 H397 0.961 . S
C383 H398 0.961 . S
C383 H399 0.961 . S
C384 C385 1.370 . S
C384 C386 1.363 . S
C384 H400 0.931 . S
C385 C384 1.370 . S
C385 C389 1.408 . S
C386 C384 1.363 . S
C386 C387 1.370 . S
C386 C390 1.524 . S
C387 C379 1.503 . S
C387 C386 1.370 . S
C387 C388 1.403 . S
C388 C387 1.403 . S
C388 C389 1.404 . S
C388 C391 1.539 . S
C389 C385 1.408 . S
C389 C388 1.404 . S
C389 H401 0.930 . S
C390 C386 1.524 . S
C390 H402 0.956 . S
C390 H403 0.961 . S
C390 H404 0.961 . S
C391 C388 1.539 . S
C391 H405 0.958 . S
C391 H406 0.961 . S
C391 H407 0.960 . S
H392 C376 0.931 . S
H393 C381 0.929 . S
H394 C382 0.960 . S
H395 C382 0.962 . S
H396 C382 0.960 . S
H397 C383 0.961 . S
H398 C383 0.961 . S
H399 C383 0.961 . S
H400 C384 0.931 . S
H401 C389 0.930 . S
H402 C390 0.956 . S
H403 C390 0.961 . S
H404 C390 0.961 . S
H405 C391 0.958 . S
H406 C391 0.961 . S
H407 C391 0.960 . S
C121 C6 2.203 . S
C129 C90 2.201 . S
C153 C59 2.996 . S
C161 C19 2.958 . S
C185 C46 1.592 . S
C193 C86 1.552 . S
C217 C99 2.580 . S
C225 C15 2.431 . S
C249 C50 2.695 1_565 S
C257 C10 2.654 . S
C281 C95 1.532 . S
C289 C55 1.521 . S
C313 C18 0.469 . S
C321 C9 0.590 . S
C345 C49 0.535 . S
C353 C58 0.547 . S
C377 C98 0.557 . S
C385 C89 0.525 . S
