# Generated by pormake.
# Topology smd, (6)-cn, num edge types: 1
# Building blocks:
#     Node 0, Type 0, BuildingBlock: VOLQOD_clean_sbu_1, # of connection points: 6
#     Node 1, Type 0, BuildingBlock: VOLQOD_clean_sbu_1, # of connection points: 6
#     Node 2, Type 0, BuildingBlock: VOLQOD_clean_sbu_1, # of connection points: 6
#     Node 3, Type 0, BuildingBlock: VOLQOD_clean_sbu_1, # of connection points: 6
#     Node 4, Type 0, BuildingBlock: VOLQOD_clean_sbu_1, # of connection points: 6
#     Node 5, Type 0, BuildingBlock: VOLQOD_clean_sbu_1, # of connection points: 6
#     Node 6, Type 0, BuildingBlock: VOLQOD_clean_sbu_1, # of connection points: 6
#     Node 7, Type 0, BuildingBlock: VOLQOD_clean_sbu_1, # of connection points: 6
#     Node 8, Type 0, BuildingBlock: VOLQOD_clean_sbu_1, # of connection points: 6
#     Node 9, Type 0, BuildingBlock: VOLQOD_clean_sbu_1, # of connection points: 6
#     Node 10, Type 0, BuildingBlock: VOLQOD_clean_sbu_1, # of connection points: 6
#     Node 11, Type 0, BuildingBlock: VOLQOD_clean_sbu_1, # of connection points: 6
#     Node 12, Type 0, BuildingBlock: VOLQOD_clean_sbu_1, # of connection points: 6
#     Node 13, Type 0, BuildingBlock: VOLQOD_clean_sbu_1, # of connection points: 6
#     Node 14, Type 0, BuildingBlock: VOLQOD_clean_sbu_1, # of connection points: 6
#     Node 15, Type 0, BuildingBlock: VOLQOD_clean_sbu_1, # of connection points: 6
#     Node 16, Type 0, BuildingBlock: VOLQOD_clean_sbu_1, # of connection points: 6
#     Node 17, Type 0, BuildingBlock: VOLQOD_clean_sbu_1, # of connection points: 6
#     Edge 18, Type (0, 0), BuildingBlock: XIVTED_clean_linker_0, # of connection points: 2
#     Edge 19, Type (0, 0), BuildingBlock: XIVTED_clean_linker_0, # of connection points: 2
#     Edge 20, Type (0, 0), BuildingBlock: XIVTED_clean_linker_0, # of connection points: 2
#     Edge 21, Type (0, 0), BuildingBlock: XIVTED_clean_linker_0, # of connection points: 2
#     Edge 22, Type (0, 0), BuildingBlock: XIVTED_clean_linker_0, # of connection points: 2
#     Edge 23, Type (0, 0), BuildingBlock: XIVTED_clean_linker_0, # of connection points: 2
#     Edge 24, Type (0, 0), BuildingBlock: XIVTED_clean_linker_0, # of connection points: 2
#     Edge 25, Type (0, 0), BuildingBlock: XIVTED_clean_linker_0, # of connection points: 2
#     Edge 26, Type (0, 0), BuildingBlock: XIVTED_clean_linker_0, # of connection points: 2
#     Edge 27, Type (0, 0), BuildingBlock: XIVTED_clean_linker_0, # of connection points: 2
#     Edge 28, Type (0, 0), BuildingBlock: XIVTED_clean_linker_0, # of connection points: 2
#     Edge 29, Type (0, 0), BuildingBlock: XIVTED_clean_linker_0, # of connection points: 2
#     Edge 30, Type (0, 0), BuildingBlock: XIVTED_clean_linker_0, # of connection points: 2
#     Edge 31, Type (0, 0), BuildingBlock: XIVTED_clean_linker_0, # of connection points: 2
#     Edge 32, Type (0, 0), BuildingBlock: XIVTED_clean_linker_0, # of connection points: 2
#     Edge 33, Type (0, 0), BuildingBlock: XIVTED_clean_linker_0, # of connection points: 2
#     Edge 34, Type (0, 0), BuildingBlock: XIVTED_clean_linker_0, # of connection points: 2
#     Edge 35, Type (0, 0), BuildingBlock: XIVTED_clean_linker_0, # of connection points: 2
#     Edge 36, Type (0, 0), BuildingBlock: XIVTED_clean_linker_0, # of connection points: 2
#     Edge 37, Type (0, 0), BuildingBlock: XIVTED_clean_linker_0, # of connection points: 2
#     Edge 38, Type (0, 0), BuildingBlock: XIVTED_clean_linker_0, # of connection points: 2
#     Edge 39, Type (0, 0), BuildingBlock: XIVTED_clean_linker_0, # of connection points: 2
#     Edge 40, Type (0, 0), BuildingBlock: XIVTED_clean_linker_0, # of connection points: 2
#     Edge 41, Type (0, 0), BuildingBlock: XIVTED_clean_linker_0, # of connection points: 2
#     Edge 42, Type (0, 0), BuildingBlock: XIVTED_clean_linker_0, # of connection points: 2
#     Edge 43, Type (0, 0), BuildingBlock: XIVTED_clean_linker_0, # of connection points: 2
#     Edge 44, Type (0, 0), BuildingBlock: XIVTED_clean_linker_0, # of connection points: 2
#     Edge 45, Type (0, 0), BuildingBlock: XIVTED_clean_linker_0, # of connection points: 2
#     Edge 46, Type (0, 0), BuildingBlock: XIVTED_clean_linker_0, # of connection points: 2
#     Edge 47, Type (0, 0), BuildingBlock: XIVTED_clean_linker_0, # of connection points: 2
#     Edge 48, Type (0, 0), BuildingBlock: XIVTED_clean_linker_0, # of connection points: 2
#     Edge 49, Type (0, 0), BuildingBlock: XIVTED_clean_linker_0, # of connection points: 2
#     Edge 50, Type (0, 0), BuildingBlock: XIVTED_clean_linker_0, # of connection points: 2
#     Edge 51, Type (0, 0), BuildingBlock: XIVTED_clean_linker_0, # of connection points: 2
#     Edge 52, Type (0, 0), BuildingBlock: XIVTED_clean_linker_0, # of connection points: 2
#     Edge 53, Type (0, 0), BuildingBlock: XIVTED_clean_linker_0, # of connection points: 2
#     Edge 54, Type (0, 0), BuildingBlock: XIVTED_clean_linker_0, # of connection points: 2
#     Edge 55, Type (0, 0), BuildingBlock: XIVTED_clean_linker_0, # of connection points: 2
#     Edge 56, Type (0, 0), BuildingBlock: XIVTED_clean_linker_0, # of connection points: 2
#     Edge 57, Type (0, 0), BuildingBlock: XIVTED_clean_linker_0, # of connection points: 2
#     Edge 58, Type (0, 0), BuildingBlock: XIVTED_clean_linker_0, # of connection points: 2
#     Edge 59, Type (0, 0), BuildingBlock: XIVTED_clean_linker_0, # of connection points: 2
#     Edge 60, Type (0, 0), BuildingBlock: XIVTED_clean_linker_0, # of connection points: 2
#     Edge 61, Type (0, 0), BuildingBlock: XIVTED_clean_linker_0, # of connection points: 2
#     Edge 62, Type (0, 0), BuildingBlock: XIVTED_clean_linker_0, # of connection points: 2
#     Edge 63, Type (0, 0), BuildingBlock: XIVTED_clean_linker_0, # of connection points: 2
#     Edge 64, Type (0, 0), BuildingBlock: XIVTED_clean_linker_0, # of connection points: 2
#     Edge 65, Type (0, 0), BuildingBlock: XIVTED_clean_linker_0, # of connection points: 2
#     Edge 66, Type (0, 0), BuildingBlock: XIVTED_clean_linker_0, # of connection points: 2
#     Edge 67, Type (0, 0), BuildingBlock: XIVTED_clean_linker_0, # of connection points: 2
#     Edge 68, Type (0, 0), BuildingBlock: XIVTED_clean_linker_0, # of connection points: 2
#     Edge 69, Type (0, 0), BuildingBlock: XIVTED_clean_linker_0, # of connection points: 2
#     Edge 70, Type (0, 0), BuildingBlock: XIVTED_clean_linker_0, # of connection points: 2
#     Edge 71, Type (0, 0), BuildingBlock: XIVTED_clean_linker_0, # of connection points: 2
# Relax obj value: 0.180
# Max RMSD: 0.177
# Mean RMSD: 0.174
data_MOF--net-smd--node1-VOLQOD_clean_sbu_1--edge1-XIVTED_clean_linker_0
_symmetry_space_group_name_H-M    P1
_symmetry_Int_Tables_number       1
_symmetry_cell_setting            triclinic
loop_
_symmetry_equiv_pos_as_xyz
'x, y, z'
_cell_length_a     77.8594
_cell_length_b     78.033783
_cell_length_c     17.16878
_cell_angle_alpha  90.070071
_cell_angle_beta   89.961425
_cell_angle_gamma 120.0678
loop_
_atom_site_label
_atom_site_type_symbol
_atom_site_fract_x
_atom_site_fract_y
_atom_site_fract_z
_atom_type_partial_charge
O0 O -0.00117 0.21058 0.29967 0.0
Zn1 Zn -0.00155 0.20292 0.41072 0.0
O2 O -0.00356 0.22161 0.47844 0.0
Zn3 Zn 0.0217 0.23861 0.53115 0.0
Zn4 Zn -0.01173 0.23694 0.41598 0.0
Zn5 Zn 0.97652 0.20714 0.55472 0.0
O6 O 0.01773 0.24051 0.6472 0.0
O7 O 0.98731 0.21467 0.66087 0.0
O8 O 0.0234 0.20271 0.43274 0.0
O9 O 0.0392 0.22654 0.52049 0.0
O10 O 0.03557 0.2658 0.48045 0.0
O11 O 0.01155 0.26416 0.40492 0.0
O12 O 0.96499 0.23804 0.46424 0.0
O13 O 0.97604 0.17498 0.42737 0.0
O14 O 0.95558 0.21449 0.55353 0.0
O15 O 0.96407 0.17808 0.54058 0.0
C16 C -0.00922 0.2193 0.26597 0.0
C17 C 0.00307 0.2288 0.6897 0.0
C18 C 0.02927 0.27347 0.43057 0.0
C19 C 0.03795 0.21249 0.47847 0.0
C20 C 0.95325 0.22751 0.51853 0.0
C21 C 0.96455 0.1674 0.48561 0.0
O22 O 0.9829 0.22753 0.30467 0.0
O23 O 0.79342 0.80598 0.64853 0.0
Zn24 Zn 0.80092 0.81324 0.53805 0.0
O25 O 0.77984 0.79483 0.47153 0.0
Zn26 Zn 0.78664 0.77679 0.41975 0.0
Zn27 Zn 0.75589 0.78059 0.53292 0.0
Zn28 Zn 0.77603 0.80963 0.39201 0.0
O29 O 0.78165 0.77584 0.30271 0.0
O30 O 0.78582 0.80606 0.29047 0.0
O31 O 0.82579 0.81262 0.5157 0.0
O32 O 0.81607 0.78741 0.43304 0.0
O33 O 0.77153 0.74945 0.46929 0.0
O34 O 0.74931 0.75258 0.53976 0.0
O35 O 0.73257 0.78099 0.48203 0.0
O36 O 0.80595 0.84099 0.5253 0.0
O37 O 0.74711 0.79958 0.37797 0.0
O38 O 0.78935 0.83834 0.41666 0.0
C39 C 0.77681 0.79742 0.68368 0.0
C40 C 0.78463 0.79058 0.26082 0.0
C41 C 0.75673 0.74227 0.5157 0.0
C42 C 0.82956 0.80162 0.47261 0.0
C43 C 0.73161 0.7887 0.41781 0.0
C44 C 0.80051 0.84864 0.47232 0.0
O45 O 0.76042 0.78894 0.64643 0.0
O46 O 0.19968 0.00104 0.33174 0.0
Zn47 Zn 0.19303 0.00244 0.44322 0.0
O48 O 0.21473 0.00604 0.50889 0.0
Zn49 Zn 0.20819 0.98124 0.56037 0.0
Zn50 Zn 0.23797 0.01537 0.44389 0.0
Zn51 Zn 0.21996 0.02598 0.58514 0.0
O52 O 0.2134 0.98549 0.6768 0.0
O53 O 0.21518 0.01473 0.69079 0.0
O54 O 0.16805 0.97717 0.46945 0.0
O55 O 0.17901 0.96216 0.54833 0.0
O56 O 0.22306 0.9689 0.50927 0.0
O57 O 0.244 -0.00637 0.43323 0.0
O58 O 0.26204 0.03942 0.48771 0.0
O59 O 0.18831 0.02545 0.45486 0.0
O60 O 0.24868 0.04664 0.58734 0.0
O61 O 0.20427 0.03932 0.56509 0.0
C62 C 0.21626 0.01024 0.29647 0.0
C63 C 0.21458 -0.00057 0.71948 0.0
C64 C 0.237 0.97609 0.45888 0.0
C65 C 0.16495 0.96248 0.51167 0.0
C66 C 0.26369 0.05012 0.54646 0.0
C67 C 0.19314 0.03826 0.50888 0.0
O68 O 0.23255 0.0197 0.33364 0.0
O69 O 0.01293 0.78658 0.64434 0.0
Zn70 Zn 0.01765 0.79205 0.52798 0.0
O71 O -0.0067 0.78602 0.47403 0.0
Zn72 Zn 0.98535 0.76374 0.40602 0.0
Zn73 Zn 0.97331 0.77925 0.55131 0.0
Zn74 Zn -0.00407 0.80818 0.41409 0.0
O75 O 0.98039 0.76947 0.29699 0.0
O76 O -0.00363 0.80243 0.30062 0.0
O77 O 0.03139 0.77849 0.47701 0.0
O78 O 0.00821 0.75959 0.39157 0.0
O79 O 0.96336 0.73863 0.45291 0.0
O80 O 0.95659 0.74975 0.56099 0.0
O81 O 0.95629 0.79087 0.52738 0.0
O82 O 0.03607 0.82118 0.51922 0.0
O83 O 0.97215 0.81174 0.43026 0.0
O84 O 0.02139 0.83314 0.44314 0.0
C85 C 0.00049 0.78884 0.68514 0.0
C86 C -0.01172 0.7862 0.26268 0.0
C87 C 0.95405 0.73549 0.51722 0.0
C88 C 0.02533 0.76606 0.421 0.0
C89 C 0.9577 0.80364 0.47795 0.0
C90 C 0.03592 0.83565 0.48562 0.0
O91 O 0.98577 0.78908 0.65434 0.0
O92 O 0.23066 0.21568 0.31545 0.0
Zn93 Zn 0.22946 0.21127 0.4331 0.0
O94 O 0.21182 0.21914 0.48244 0.0
Zn95 Zn 0.22649 0.24284 0.54458 0.0
Zn96 Zn 0.19772 0.22372 0.40185 0.0
Zn97 Zn 0.19239 0.19849 0.54775 0.0
O98 O 0.21922 0.23781 0.65921 0.0
O99 O 0.19961 0.2051 0.65868 0.0
O100 O 0.25719 0.22626 0.48117 0.0
O101 O 0.25472 0.24983 0.5444 0.0
O102 O 0.22532 0.26622 0.4988 0.0
O103 O 0.20811 0.25265 0.39075 0.0
O104 O 0.16882 0.21101 0.42338 0.0
O105 O 0.21772 0.18179 0.44814 0.0
O106 O 0.1652 0.19503 0.53434 0.0
O107 O 0.19144 0.17305 0.52428 0.0
C108 C 0.21664 0.21412 0.27212 0.0
C109 C 0.20953 0.22137 0.69515 0.0
C110 C 0.21822 0.2677 0.4338 0.0
C111 C 0.26487 0.24206 0.52204 0.0
C112 C 0.15809 0.20053 0.47954 0.0
C113 C 0.20249 0.16866 0.48448 0.0
O114 O 0.20168 0.21441 0.30013 0.0
O115 O 0.76493 -0.0087 0.65573 0.0
Zn116 Zn 0.76659 0.98712 0.53967 0.0
O117 O 0.78405 0.01249 0.48816 0.0
Zn118 Zn 0.76908 0.0206 0.42393 0.0
Zn119 Zn 0.79826 0.03289 0.56412 0.0
Zn120 Zn 0.80285 0.01012 0.42214 0.0
O121 O 0.77805 0.02473 0.31221 0.0
O122 O 0.79565 0.00948 0.31024 0.0
O123 O 0.73916 0.97336 0.48861 0.0
O124 O 0.74149 -0.00181 0.41733 0.0
O125 O 0.76815 0.04402 0.46834 0.0
O126 O 0.7902 0.05356 0.56376 0.0
O127 O 0.82756 0.04567 0.54963 0.0
O128 O 0.77833 0.96935 0.53001 0.0
O129 O 0.83066 0.03246 0.43953 0.0
O130 O 0.80301 0.98525 0.44574 0.0
C131 C 0.77665 0.00595 0.69832 0.0
C132 C 0.78669 0.01705 0.27498 0.0
C133 C 0.77754 0.05565 0.52452 0.0
C134 C 0.7316 0.98045 0.44164 0.0
C135 C 0.83824 0.04459 0.49588 0.0
C136 C 0.79273 0.97061 0.49024 0.0
O137 O 0.79073 0.02179 0.66981 0.0
O138 O 0.67189 0.54424 -0.00718 0.0
Zn139 Zn 0.67172 0.53825 0.87943 0.0
O140 O 0.67166 0.55924 0.81965 0.0
Zn141 Zn 0.64715 0.55033 0.76192 0.0
Zn142 Zn 0.67653 0.58095 0.88682 0.0
Zn143 Zn 0.69266 0.5685 0.74606 0.0
O144 O 0.65262 0.55562 0.64638 0.0
O145 O 0.68211 0.55758 0.64152 0.0
O146 O 0.64743 0.51223 0.85499 0.0
O147 O 0.63086 0.52078 0.7728 0.0
O148 O 0.63095 0.56216 0.80597 0.0
O149 O 0.65132 0.58098 0.90007 0.0
O150 O 0.69635 0.60744 0.83979 0.0
O151 O 0.69652 0.53659 0.86064 0.0
O152 O 0.70624 0.59776 0.73589 0.0
O153 O 0.71261 0.56123 0.77681 0.0
C154 C 0.67794 0.56039 0.03009 0.0
C155 C 0.66665 0.55557 0.60807 0.0
C156 C 0.63477 0.57349 0.86487 0.0
C157 C 0.6326 0.50772 0.81083 0.0
C158 C 0.70653 0.6114 0.77735 0.0
C159 C 0.7119 0.54781 0.8207 0.0
O160 O 0.68291 0.57667 -0.00452 0.0
O161 O 0.46516 0.14306 0.97837 0.0
Zn162 Zn 0.47114 0.14889 0.8652 0.0
O163 O 0.44871 0.12994 0.80445 0.0
Zn164 Zn 0.45405 0.11092 0.75187 0.0
Zn165 Zn 0.42592 0.11644 0.87216 0.0
Zn166 Zn 0.44349 0.14413 0.72634 0.0
O167 O 0.45015 0.11083 0.6345 0.0
O168 O 0.45214 0.14016 0.62302 0.0
O169 O 0.49527 0.14709 0.83903 0.0
O170 O 0.48274 0.11948 0.76828 0.0
O171 O 0.43809 0.08353 0.79928 0.0
O172 O 0.41975 0.08861 0.88524 0.0
O173 O 0.40173 0.11603 0.82641 0.0
O174 O 0.4768 0.17674 0.84845 0.0
O175 O 0.41432 0.13379 0.71879 0.0
O176 O 0.45733 0.17305 0.74786 0.0
C177 C 0.44893 0.13515 0.01637 0.0
C178 C 0.4522 0.1253 0.59308 0.0
C179 C 0.42544 0.07747 0.85449 0.0
C180 C 0.49733 0.13414 0.80162 0.0
C181 C 0.39958 0.12313 0.76263 0.0
C182 C 0.47014 0.18391 0.79828 0.0
O183 O 0.43215 0.1266 0.98212 0.0
O184 O 0.87237 0.33863 -0.00097 0.0
Zn185 Zn 0.86262 0.33652 0.89047 0.0
O186 O 0.88008 0.33365 0.81989 0.0
Zn187 Zn 0.89732 0.35862 0.76767 0.0
Zn188 Zn 0.89498 0.32462 0.88003 0.0
Zn189 Zn 0.86439 0.31422 0.74372 0.0
O190 O 0.89863 0.354 0.65188 0.0
O191 O 0.87007 0.32568 0.63796 0.0
O192 O 0.86148 0.36078 0.86524 0.0
O193 O 0.8855 0.37636 0.7779 0.0
O194 O 0.92469 0.37197 0.8183 0.0
O195 O 0.92275 0.34698 0.88741 0.0
O196 O 0.89499 0.30117 0.82927 0.0
O197 O 0.83494 0.31327 0.88366 0.0
O198 O 0.87271 0.29402 0.73581 0.0
O199 O 0.83544 0.30068 0.76807 0.0
C200 C 0.88019 0.32963 0.03217 0.0
C201 C 0.88538 0.34043 0.60914 0.0
C202 C 0.93242 0.36487 0.86437 0.0
C203 C 0.87129 0.37517 0.81897 0.0
C204 C 0.88514 0.29075 0.77095 0.0
C205 C 0.82614 0.30111 0.82833 0.0
O206 O 0.88644 0.31994 -0.00698 0.0
O207 O 0.68545 0.12504 0.01727 0.0
Zn208 Zn 0.6896 0.13076 0.90051 0.0
O209 O 0.66437 0.12169 0.84769 0.0
Zn210 Zn 0.65764 0.0991 0.7823 0.0
Zn211 Zn 0.64489 0.11415 0.92657 0.0
Zn212 Zn 0.66401 0.14222 0.78661 0.0
O213 O 0.6525 0.10383 0.67135 0.0
O214 O 0.66487 0.13646 0.67382 0.0
O215 O 0.70532 0.11936 0.84783 0.0
O216 O 0.68189 0.0972 0.77005 0.0
O217 O 0.63608 0.07343 0.83006 0.0
O218 O 0.63057 0.08503 0.93969 0.0
O219 O 0.62483 0.1217 0.89968 0.0
O220 O 0.70532 0.16046 0.89105 0.0
O221 O 0.63887 0.1432 0.80322 0.0
O222 O 0.68757 0.16842 0.81282 0.0
C223 C 0.67256 0.12645 0.0586 0.0
C224 C 0.6586 0.12031 0.63641 0.0
C225 C 0.62768 0.07061 0.89641 0.0
C226 C 0.69961 0.10597 0.79543 0.0
C227 C 0.62448 0.13354 0.84988 0.0
C228 C 0.70273 0.17331 0.85535 0.0
O229 O 0.65733 0.12571 0.02816 0.0
O230 O 0.88823 0.57125 -0.01088 0.0
Zn231 Zn 0.88252 0.57072 0.87375 0.0
O232 O 0.88823 0.55233 0.81868 0.0
Zn233 Zn 0.91029 0.56644 0.74926 0.0
Zn234 Zn 0.89509 0.53812 0.89129 0.0
Zn235 Zn 0.86559 0.53383 0.75724 0.0
O236 O 0.90387 0.55514 0.64201 0.0
O237 O 0.87099 0.54095 0.64409 0.0
O238 O 0.89665 0.59799 0.82377 0.0
O239 O 0.91514 0.59381 0.73577 0.0
O240 O 0.93528 0.56811 0.78954 0.0
O241 O 0.92405 0.54706 0.88833 0.0
O242 O 0.87952 0.50909 0.87228 0.0
O243 O 0.85354 0.56094 0.86583 0.0
O244 O 0.86072 0.50609 0.76981 0.0
O245 O 0.84102 0.53441 0.78918 0.0
C246 C 0.88996 0.55849 0.02952 0.0
C247 C 0.88727 0.54786 0.60688 0.0
C248 C 0.93829 0.55938 0.84598 0.0
C249 C 0.90893 0.60446 0.76726 0.0
C250 C 0.86692 0.49857 0.82055 0.0
C251 C 0.83884 0.54649 0.83229 0.0
O252 O 0.89096 0.54423 -0.00154 0.0
O253 O 0.43517 0.3242 0.96841 0.0
Zn254 Zn 0.43613 0.32012 0.8523 0.0
O255 O 0.45197 0.34573 0.80026 0.0
Zn256 Zn 0.43536 0.35199 0.73712 0.0
Zn257 Zn 0.46527 0.36664 0.87549 0.0
Zn258 Zn 0.47166 0.34501 0.73388 0.0
O259 O 0.443 0.35503 0.62431 0.0
O260 O 0.46372 0.34324 0.62252 0.0
O261 O 0.40799 0.30495 0.80775 0.0
O262 O 0.40804 0.32911 0.73895 0.0
O263 O 0.43327 0.37495 0.77841 0.0
O264 O 0.45449 0.38515 0.87672 0.0
O265 O 0.49457 0.38209 0.85804 0.0
O266 O 0.44938 0.30386 0.83971 0.0
O267 O 0.49851 0.36923 0.74851 0.0
O268 O 0.47424 0.32138 0.75776 0.0
C269 C 0.44628 0.3392 0.01053 0.0
C270 C 0.45301 0.34883 0.58732 0.0
C271 C 0.44157 0.38645 0.83602 0.0
C272 C 0.39914 0.31153 0.7652 0.0
C273 C 0.5055 0.38195 0.80322 0.0
C274 C 0.46441 0.30632 0.80099 0.0
O275 O 0.45931 0.35558 0.98149 0.0
O276 O 0.33268 0.87762 0.96394 0.0
Zn277 Zn 0.33379 0.87212 0.07648 0.0
O278 O 0.3316 0.89143 0.13967 0.0
Zn279 Zn 0.35648 0.90932 0.19347 0.0
Zn280 Zn 0.32349 0.90605 0.07357 0.0
Zn281 Zn 0.31163 0.87769 0.21671 0.0
O282 O 0.35218 0.91001 0.31017 0.0
O283 O 0.32387 0.88138 0.32041 0.0
O284 O 0.35943 0.87329 0.09862 0.0
O285 O 0.37505 0.89843 0.18154 0.0
O286 O 0.36968 0.93694 0.14545 0.0
O287 O 0.34646 0.93303 0.06027 0.0
O288 O 0.30122 0.90855 0.12219 0.0
O289 O 0.31178 0.8443 0.09716 0.0
O290 O 0.29338 0.88868 0.22461 0.0
O291 O 0.29628 0.84883 0.19665 0.0
C292 C 0.32498 0.88633 0.92761 0.0
C293 C 0.33905 0.89586 0.35105 0.0
C294 C 0.36352 0.94347 0.09046 0.0
C295 C 0.37421 0.88419 0.14193 0.0
C296 C 0.291 0.90091 0.18365 0.0
C297 C 0.2981 0.83753 0.14817 0.0
O298 O 0.31815 0.89594 0.96346 0.0
O299 O 0.13123 0.47127 0.33263 0.0
Zn300 Zn 0.13722 0.47829 0.22024 0.0
O301 O 0.11643 0.45836 0.15592 0.0
Zn302 Zn 0.12592 0.44277 0.10042 0.0
Zn303 Zn 0.09463 0.44178 0.22332 0.0
Zn304 Zn 0.10714 0.47074 0.08393 0.0
O305 O 0.12047 0.44213 -0.01508 0.0
O306 O 0.11232 0.46565 0.97667 0.0
O307 O 0.16332 0.48043 0.1959 0.0
O308 O 0.15563 0.45604 0.11128 0.0
O309 O 0.11382 0.41496 0.14635 0.0
O310 O 0.09424 0.4164 0.23758 0.0
O311 O 0.06832 0.43575 0.17812 0.0
O312 O 0.13983 0.50499 0.20351 0.0
O313 O 0.07756 0.45853 0.08595 0.0
O314 O 0.12015 0.49985 0.10177 0.0
C315 C 0.11467 0.46223 0.36802 0.0
C316 C 0.11613 0.45321 0.94504 0.0
C317 C 0.10201 0.40741 0.20399 0.0
C318 C 0.16837 0.47072 0.15107 0.0
C319 C 0.06403 0.44406 0.1238 0.0
C320 C 0.13253 0.51131 0.15237 0.0
O321 O 0.09836 0.45273 0.33113 0.0
O322 O 0.53226 0.66695 0.97919 0.0
Zn323 Zn 0.52608 0.66792 0.09162 0.0
O324 O 0.54847 0.67226 0.15483 0.0
Zn325 Zn 0.54276 0.64808 0.20938 0.0
Zn326 Zn 0.57115 0.68097 0.08718 0.0
Zn327 Zn 0.55422 0.69285 0.22862 0.0
O328 O 0.54857 0.65314 0.3248 0.0
O329 O 0.55077 0.68263 0.33552 0.0
O330 O 0.50183 0.64227 0.11988 0.0
O331 O 0.5137 0.62853 0.20089 0.0
O332 O 0.55747 0.63556 0.1593 0.0
O333 O 0.57636 0.65863 0.07309 0.0
O334 O 0.59573 0.7048 0.1299 0.0
O335 O 0.52005 0.69001 0.10568 0.0
O336 O 0.58278 0.71376 0.22572 0.0
O337 O 0.53759 0.70526 0.21136 0.0
C338 C 0.54866 0.67644 0.94289 0.0
C339 C 0.5502 0.66752 0.36584 0.0
C340 C 0.57001 0.64167 0.10365 0.0
C341 C 0.4993 0.62811 0.16415 0.0
C342 C 0.59765 0.71639 0.18582 0.0
C343 C 0.52521 0.70314 0.15858 0.0
O344 O 0.56512 0.68583 0.97895 0.0
O345 O 0.34658 0.45117 0.33596 0.0
Zn346 Zn 0.35162 0.45711 0.22066 0.0
O347 O 0.3273 0.45103 0.16652 0.0
Zn348 Zn 0.31859 0.4281 0.10076 0.0
Zn349 Zn 0.30688 0.44556 0.24075 0.0
Zn350 Zn 0.33147 0.47296 0.10145 0.0
O351 O 0.31323 0.43345 -0.00803 0.0
O352 O 0.33262 0.46619 -0.01014 0.0
O353 O 0.3648 0.44327 0.16881 0.0
O354 O 0.34117 0.42325 0.08668 0.0
O355 O 0.29525 0.40367 0.14607 0.0
O356 O 0.2866 0.41679 0.24228 0.0
O357 O 0.29357 0.46124 0.21939 0.0
O358 O 0.37072 0.48614 0.21261 0.0
O359 O 0.30886 0.47839 0.11307 0.0
O360 O 0.35705 0.49755 0.12912 0.0
C361 C 0.33261 0.4504 0.37742 0.0
C362 C 0.32288 0.44966 0.95472 0.0
C363 C 0.28403 0.40183 0.20332 0.0
C364 C 0.35854 0.43031 0.11473 0.0
C365 C 0.29547 0.47313 0.16501 0.0
C366 C 0.37112 0.50034 0.17468 0.0
O367 O 0.31768 0.45037 0.34738 0.0
O368 O 0.56323 0.87728 -0.00977 0.0
Zn369 Zn 0.56214 0.87333 0.10805 0.0
O370 O 0.54615 0.88314 0.15751 0.0
Zn371 Zn 0.56241 0.90649 0.21911 0.0
Zn372 Zn 0.53345 0.88945 0.07668 0.0
Zn373 Zn 0.52558 0.86345 0.22282 0.0
O374 O 0.55577 0.90169 0.33408 0.0
O375 O 0.53333 0.86959 0.3339 0.0
O376 O 0.59025 0.88685 0.153 0.0
O377 O 0.59012 0.91198 0.21393 0.0
O378 O 0.563 0.93083 0.17516 0.0
O379 O 0.54668 0.91868 0.0642 0.0
O380 O 0.50503 0.87963 0.09916 0.0
O381 O 0.54825 0.84382 0.12408 0.0
O382 O 0.49956 0.86289 0.20949 0.0
O383 O 0.52205 0.83681 0.19852 0.0
C384 C 0.54962 0.87675 0.94723 0.0
C385 C 0.54481 0.88552 0.37019 0.0
C386 C 0.55721 0.93327 0.10872 0.0
C387 C 0.59912 0.9031 0.19084 0.0
C388 C 0.49367 0.86973 0.15495 0.0
C389 C 0.53239 0.8314 0.15913 0.0
O390 O 0.5356 0.87867 0.9754 0.0
O391 O 0.10247 0.6563 0.30961 0.0
Zn392 Zn 0.10431 0.65179 0.19439 0.0
O393 O 0.12019 0.67685 0.13946 0.0
Zn394 Zn 0.10378 0.68247 0.07306 0.0
Zn395 Zn 0.13267 0.69823 0.21254 0.0
Zn396 Zn 0.13991 0.67564 0.0745 0.0
O397 O 0.11456 0.68955 0.96475 0.0
O398 O 0.13327 0.67547 0.96181 0.0
O399 O 0.07721 0.63561 0.14319 0.0
O400 O 0.07827 0.65761 0.0584 0.0
O401 O 0.09838 0.70303 0.11857 0.0
O402 O 0.12177 0.71669 0.20877 0.0
O403 O 0.16194 0.71296 0.19814 0.0
O404 O 0.11782 0.63573 0.18677 0.0
O405 O 0.16712 0.69884 0.09507 0.0
O406 O 0.14115 0.65114 0.0968 0.0
C407 C 0.11344 0.67164 0.35031 0.0
C408 C 0.12414 0.68297 0.92712 0.0
C409 C 0.10726 0.7159 0.17167 0.0
C410 C 0.06953 0.64031 0.08749 0.0
C411 C 0.17353 0.71188 0.14868 0.0
C412 C 0.13186 0.63698 0.14462 0.0
O413 O 0.12635 0.68783 0.3196 0.0
H414 H 0.1015 0.3977 0.35516 0.0
H415 H 0.02764 0.28568 0.28441 0.0
H416 H 0.09045 0.37295 0.12373 0.0
H417 H 0.06235 0.30504 0.49546 0.0
H418 H 0.04971 0.31782 0.22561 0.0
H419 H 0.08727 0.36436 0.4096 0.0
C420 C 0.09639 0.38519 0.3159 0.0
C421 C 0.09702 0.38792 0.23501 0.0
C422 C 0.05263 0.31499 0.28448 0.0
C423 C 0.0803 0.34988 0.29667 0.0
C424 C 0.03992 0.29675 0.31848 0.0
C425 C 0.04303 0.29284 0.39539 0.0
C426 C 0.06833 0.32963 0.32818 0.0
C427 C 0.05939 0.30755 0.43623 0.0
C428 C 0.08832 0.36623 0.34695 0.0
C429 C 0.09025 0.37137 0.18642 0.0
N430 N 0.07128 0.32549 0.40253 0.0
N431 N 0.08174 0.35292 0.21809 0.0
H432 H 0.72396 0.79705 0.27155 0.0
H433 H 0.63299 0.73108 0.10719 0.0
H434 H 0.69464 0.7673 0.48454 0.0
H435 H 0.60794 0.73593 0.32499 0.0
H436 H 0.6662 0.75274 0.15996 0.0
H437 H 0.69169 0.78334 0.2083 0.0
C438 C 0.71075 0.78781 0.30543 0.0
C439 C 0.71206 0.78305 0.38335 0.0
C440 C 0.65341 0.74948 0.19539 0.0
C441 C 0.67512 0.7671 0.31049 0.0
C442 C 0.63446 0.737 0.16545 0.0
C443 C 0.61767 0.73166 0.21168 0.0
C444 C 0.65553 0.75641 0.2724 0.0
C445 C 0.62046 0.7397 0.28707 0.0
C446 C 0.69235 0.77984 0.26883 0.0
C447 C 0.69437 0.77116 0.4242 0.0
N448 N 0.63904 0.75137 0.31558 0.0
N449 N 0.6766 0.76351 0.3871 0.0
H450 H 0.22704 0.9376 0.49418 0.0
H451 H 0.28586 0.93059 0.1244 0.0
H452 H 0.26216 0.98567 0.33579 0.0
H453 H 0.26781 0.88905 0.31519 0.0
H454 H 0.27068 0.94735 0.19034 0.0
H455 H 0.2369 0.91674 0.42124 0.0
C456 C 0.23688 0.94381 0.44466 0.0
C457 C 0.24384 0.96346 0.42146 0.0
C458 C 0.26989 0.93445 0.21747 0.0
C459 C 0.25468 0.93964 0.33713 0.0
C460 C 0.27842 0.92476 0.1795 0.0
C461 C 0.27841 0.90857 0.2148 0.0
C462 C 0.26125 0.92791 0.29124 0.0
C463 C 0.2684 0.90164 0.2862 0.0
C464 C 0.2424 0.93188 0.40291 0.0
C465 C 0.25646 0.97068 0.35642 0.0
N466 N 0.26039 0.91149 0.32258 0.0
N467 N 0.26136 0.95877 0.31655 0.0
H468 H 0.29889 0.06687 0.46597 0.0
H469 H 0.36447 0.10527 0.84396 0.0
H470 H 0.27387 0.06774 0.68954 0.0
H471 H 0.38873 0.1267 0.61501 0.0
H472 H 0.33102 0.09116 0.78945 0.0
H473 H 0.33208 0.08862 0.519 0.0
C474 C 0.30035 0.07184 0.52581 0.0
C475 C 0.2836 0.06537 0.57348 0.0
C476 C 0.34371 0.09923 0.75151 0.0
C477 C 0.32145 0.08992 0.63472 0.0
C478 C 0.36278 0.10724 0.78255 0.0
C479 C 0.37942 0.11703 0.73393 0.0
C480 C 0.3413 0.10068 0.67114 0.0
C481 C 0.37635 0.11922 0.65474 0.0
C482 C 0.31928 0.08427 0.55599 0.0
C483 C 0.28637 0.07232 0.65063 0.0
N484 N 0.35766 0.11082 0.62557 0.0
N485 N 0.30495 0.08396 0.67923 0.0
H486 H 0.87817 0.2771 0.62161 0.0
H487 H 0.93445 0.21624 0.65875 0.0
H488 H 0.9043 0.27289 0.83744 0.0
H489 H 0.93872 0.24987 0.4526 0.0
H490 H 0.91418 0.22815 0.72048 0.0
H491 H 0.89127 0.25822 0.55647 0.0
C492 C 0.8863 0.27185 0.65581 0.0
C493 C 0.89027 0.27668 0.7352 0.0
C494 C 0.91935 0.23267 0.66138 0.0
C495 C 0.9051 0.25502 0.66068 0.0
C496 C 0.93082 0.22582 0.62569 0.0
C497 C 0.93845 0.23222 0.55036 0.0
C498 C 0.91515 0.24571 0.6211 0.0
C499 C 0.93327 0.2447 0.51084 0.0
C500 C 0.89385 0.26121 0.61828 0.0
C501 C 0.90101 0.2696 0.77617 0.0
N502 N 0.92194 0.2511 0.54686 0.0
N503 N 0.90811 0.25911 0.73832 0.0
H504 H 0.72643 0.72371 0.61971 0.0
H505 H 0.73404 0.62625 0.66028 0.0
H506 H 0.76987 0.71569 0.49297 0.0
H507 H 0.70248 0.64288 0.8224 0.0
H508 H 0.74697 0.65826 0.59566 0.0
H509 H 0.71621 0.69293 0.68823 0.0
C510 C 0.73376 0.71541 0.60565 0.0
C511 C 0.74912 0.7224 0.55033 0.0
C512 C 0.7374 0.65498 0.64588 0.0
C513 C 0.73746 0.68698 0.62981 0.0
C514 C 0.73004 0.63674 0.68299 0.0
C515 C 0.71703 0.63182 0.74659 0.0
C516 C 0.73153 0.6683 0.67198 0.0
C517 C 0.71244 0.64602 0.77363 0.0
C518 C 0.72798 0.69786 0.64548 0.0
C519 C 0.75797 0.71088 0.53496 0.0
N520 N 0.7195 0.66352 0.73558 0.0
N521 N 0.752 0.6937 0.57459 0.0
H522 H 0.93286 0.72275 0.65359 0.0
H523 H 0.93091 0.62011 0.63583 0.0
H524 H 0.94983 0.7016 0.45158 0.0
H525 H 0.9 0.63291 0.81521 0.0
H526 H 0.9386 0.65067 0.57073 0.0
H527 H 0.92019 0.69028 0.71432 0.0
C528 C 0.93361 0.71121 0.62133 0.0
C529 C 0.94267 0.71503 0.54762 0.0
C530 C 0.9301 0.64684 0.62423 0.0
C531 C 0.92851 0.678 0.61751 0.0
C532 C 0.92582 0.62941 0.66204 0.0
C533 C 0.91481 0.62389 0.73151 0.0
C534 C 0.92353 0.6591 0.65611 0.0
C535 C 0.90857 0.6366 0.76197 0.0
C536 C 0.92644 0.6927 0.65628 0.0
C537 C 0.94313 0.69945 0.50864 0.0
N538 N 0.91309 0.65369 0.72417 0.0
N539 N 0.93642 0.68173 0.54451 0.0
H540 H 0.28849 0.22517 0.54227 0.0
H541 H 0.3718 0.32281 0.7568 0.0
H542 H 0.28805 0.27996 0.569 0.0
H543 H 0.3793 0.27228 0.71976 0.0
H544 H 0.33932 0.30508 0.69673 0.0
H545 H 0.32091 0.24051 0.60905 0.0
C546 C 0.29532 0.24045 0.56103 0.0
C547 C 0.28552 0.25128 0.55051 0.0
C548 C 0.34788 0.29767 0.70184 0.0
C549 C 0.32209 0.26863 0.62766 0.0
C550 C 0.3664 0.30778 0.73678 0.0
C551 C 0.3782 0.29899 0.7429 0.0
C552 C 0.34105 0.27861 0.67152 0.0
C553 C 0.3705 0.27947 0.71637 0.0
C554 C 0.31367 0.24911 0.59971 0.0
C555 C 0.29491 0.27095 0.57646 0.0
N556 N 0.3524 0.26992 0.68079 0.0
N557 N 0.31252 0.27889 0.61394 0.0
H558 H 0.73739 0.11487 0.84126 0.0
H559 H 0.7514 0.06488 0.4567 0.0
H560 H 0.69457 0.08792 0.65566 0.0
H561 H 0.78851 0.07737 0.65994 0.0
H562 H 0.73517 0.081 0.51949 0.0
H563 H 0.76018 0.10744 0.76821 0.0
C564 C 0.73279 0.10743 0.78549 0.0
C565 C 0.71391 0.10172 0.75529 0.0
C566 C 0.74703 0.08043 0.55007 0.0
C567 C 0.7399 0.0937 0.67112 0.0
C568 C 0.7564 0.07133 0.51393 0.0
C569 C 0.77108 0.06941 0.55358 0.0
C570 C 0.75224 0.08756 0.62666 0.0
C571 C 0.77709 0.07829 0.62746 0.0
C572 C 0.74579 0.10328 0.7438 0.0
C573 C 0.70878 0.09231 0.68228 0.0
N574 N 0.76741 0.08671 0.66226 0.0
N575 N 0.72166 0.08862 0.64301 0.0
H576 H 0.61898 0.88583 0.25708 0.0
H577 H 0.70953 -0.0071 0.36448 0.0
H578 H 0.62662 0.94147 0.17591 0.0
H579 H 0.70826 0.9395 0.43991 0.0
H580 H 0.6789 0.97315 0.29468 0.0
H581 H 0.652 0.90386 0.31911 0.0
C582 C 0.62787 0.90174 0.25046 0.0
C583 C 0.62021 0.91227 0.2116 0.0
C584 C 0.68518 0.96559 0.32638 0.0
C585 C 0.65736 0.93284 0.28315 0.0
C586 C 0.70272 0.97693 0.36685 0.0
C587 C 0.71159 0.96788 0.40807 0.0
C588 C 0.67613 0.94487 0.32677 0.0
C589 C 0.70188 0.94708 0.40913 0.0
C590 C 0.64654 0.91202 0.28652 0.0
C591 C 0.63202 0.93285 0.20563 0.0
N592 N 0.68462 0.93621 0.36875 0.0
N593 N 0.64988 0.94243 0.24142 0.0
H594 H 0.01767 0.74319 0.29173 0.0
H595 H 0.11887 0.74136 0.29655 0.0
H596 H 0.06339 0.77542 0.46305 0.0
H597 H 0.07561 0.71751 0.11116 0.0
H598 H 0.10026 0.75564 0.35561 0.0
H599 H 0.03956 0.73444 0.22501 0.0
C600 C 0.03232 0.74838 0.31583 0.0
C601 C 0.03862 0.76 0.38371 0.0
C602 C 0.09503 0.74751 0.30146 0.0
C603 C 0.06402 0.75001 0.30627 0.0
C604 C 0.10568 0.73943 0.26738 0.0
C605 C 0.09865 0.72796 0.19918 0.0
C606 C 0.0772 0.74403 0.26726 0.0
C607 C 0.08151 0.72603 0.16409 0.0
C608 C 0.04491 0.74346 0.27707 0.0
C609 C 0.05787 0.76635 0.41123 0.0
N610 N 0.07127 0.73376 0.19902 0.0
N611 N 0.0699 0.76118 0.37253 0.0
H612 H 0.26888 0.3663 0.12649 0.0
H613 H 0.23532 0.30338 0.51122 0.0
H614 H 0.26667 0.39191 0.3468 0.0
H615 H 0.21338 0.27698 0.28534 0.0
H616 H 0.24753 0.33615 0.45313 0.0
H617 H 0.24896 0.33329 0.18327 0.0
C618 C 0.26397 0.36498 0.18635 0.0
C619 C 0.26954 0.38187 0.23204 0.0
C620 C 0.23977 0.32312 0.41672 0.0
C621 C 0.24714 0.34427 0.29761 0.0
C622 C 0.23286 0.30444 0.44977 0.0
C623 C 0.22346 0.28742 0.40305 0.0
C624 C 0.23761 0.32474 0.33626 0.0
C625 C 0.2206 0.28968 0.32368 0.0
C626 C 0.25259 0.34616 0.21869 0.0
C627 C 0.26273 0.3793 0.30936 0.0
N628 N 0.22793 0.308 0.29257 0.0
N629 N 0.25217 0.36085 0.34013 0.0
H630 H 0.95889 0.40446 0.83583 0.0
H631 H 0.03146 0.41065 0.17865 0.0
H632 H 0.95076 0.35493 0.97574 0.0
H633 H 0.04933 0.45631 0.0041 0.0
H634 H -0.001 0.39251 0.11682 0.0
H635 H -0.00987 0.42565 0.90541 0.0
C636 C 0.96369 0.39801 0.88056 0.0
C637 C 0.95217 0.37785 0.89963 0.0
C638 C 0.00998 0.40658 0.09236 0.0
C639 C -0.01251 0.40202 0.98023 0.0
C640 C 0.02849 0.41704 0.12807 0.0
C641 C 0.04327 0.43493 0.09605 0.0
C642 C 0.00615 0.41403 0.02414 0.0
C643 C 0.03845 0.44248 0.03047 0.0
C644 C 0.98144 0.41012 0.92045 0.0
C645 C 0.95909 0.37033 0.95855 0.0
N646 N 0.02034 0.4319 -0.00383 0.0
N647 N 0.97619 0.38241 -0.00323 0.0
H648 H 0.61082 0.58378 0.78459 0.0
H649 H 0.57144 0.61048 0.17148 0.0
H650 H 0.62572 0.57417 0.01612 0.0
H651 H 0.58231 0.6424 0.95501 0.0
H652 H 0.58287 0.58946 0.11014 0.0
H653 H 0.59112 0.59736 0.84209 0.0
C654 C 0.60951 0.58409 0.84733 0.0
C655 C 0.61997 0.57811 0.89592 0.0
C656 C 0.58258 0.601 0.07622 0.0
C657 C 0.59767 0.59337 0.96153 0.0
C658 C 0.57612 0.61298 0.11113 0.0
C659 C 0.5763 0.6284 0.06867 0.0
C660 C 0.58879 0.60425 -0.00194 0.0
C661 C 0.58233 0.63092 -0.00965 0.0
C662 C 0.59845 0.59193 0.88004 0.0
C663 C 0.61799 0.57889 0.9769 0.0
N664 N 0.58834 0.61898 0.95757 0.0
N665 N 0.60714 0.58649 0.00728 0.0
H666 H 0.41327 0.06644 0.0035 0.0
H667 H 0.36789 0.95269 0.93766 0.0
H668 H 0.42223 0.04405 0.78638 0.0
H669 H 0.38805 0.97862 0.16501 0.0
H670 H 0.38591 0.98566 0.87956 0.0
H671 H 0.40176 0.03408 0.06287 0.0
C672 C 0.41273 0.05466 0.96816 0.0
C673 C 0.41847 0.05782 0.88952 0.0
C674 C 0.38664 0.98413 0.94199 0.0
C675 C 0.40534 0.02083 0.95741 0.0
C676 C 0.37632 0.96539 0.9752 0.0
C677 C 0.37646 0.96308 0.05618 0.0
C678 C 0.39672 0.00072 -0.00969 0.0
C679 C 0.38765 0.97987 0.10232 0.0
C680 C 0.40638 0.0363 0.00243 0.0
C681 C 0.41782 0.04216 0.847 0.0
N682 N 0.39709 -0.00187 0.06878 0.0
N683 N 0.41107 0.0242 0.88124 0.0
H684 H 0.61458 0.05989 0.04533 0.0
H685 H 0.55467 0.94404 0.95977 0.0
H686 H 0.6122 0.03519 0.81757 0.0
H687 H 0.57665 0.96856 0.18812 0.0
H688 H 0.57005 0.9775 0.90694 0.0
H689 H 0.59521 0.02654 0.09763 0.0
C690 C 0.60986 0.04746 0.00604 0.0
C691 C 0.6151 0.05035 0.92681 0.0
C692 C 0.57138 0.97553 0.96866 0.0
C693 C 0.59284 0.01211 -0.01323 0.0
C694 C 0.5625 0.95645 -0.00088 0.0
C695 C 0.56447 0.95348 0.07861 0.0
C696 C 0.5821 -0.00823 0.01805 0.0
C697 C 0.57485 0.97015 0.1265 0.0
C698 C 0.59887 0.02843 0.03618 0.0
C699 C 0.60859 0.03364 0.87901 0.0
N700 N 0.58333 0.98862 0.09541 0.0
N701 N 0.59776 0.01518 0.90978 0.0
H702 H 0.04095 0.60379 0.14355 0.0
H703 H 0.97265 0.58404 0.76829 0.0
H704 H 0.05617 0.64245 0.9442 0.0
H705 H 0.95089 0.55022 0.98063 0.0
H706 H 0.00602 0.60066 0.8227 0.0
H707 H 0.01009 0.5799 0.07705 0.0
C708 C 0.03784 0.60722 0.08597 0.0
C709 C 0.05095 0.62529 0.05005 0.0
C710 C -0.00602 0.58942 0.8571 0.0
C711 C 0.01615 0.59806 0.97351 0.0
C712 C 0.97493 0.57985 0.82583 0.0
C713 C 0.95888 0.56603 0.87054 0.0
C714 C -0.00299 0.58529 0.93388 0.0
C715 C 0.9628 0.56099 0.94443 0.0
C716 C 0.02032 0.5936 0.04803 0.0
C717 C 0.04634 0.62891 0.97501 0.0
N718 N 0.98145 0.57089 0.97444 0.0
N719 N 0.02935 0.61548 0.93954 0.0
H720 H 0.39723 0.44167 0.15342 0.0
H721 H 0.4113 0.39031 0.77401 0.0
H722 H 0.35128 0.40741 -0.01456 0.0
H723 H 0.45233 0.40969 0.9673 0.0
H724 H 0.39246 0.40316 0.84054 0.0
H725 H 0.42014 0.43496 0.07864 0.0
C726 C 0.39191 0.43264 0.10138 0.0
C727 C 0.37225 0.42501 0.07606 0.0
C728 C 0.40572 0.4048 0.86802 0.0
C729 C 0.39843 0.41777 -0.01041 0.0
C730 C 0.41661 0.39763 0.82968 0.0
C731 C 0.43324 0.39858 0.86565 0.0
C732 C 0.41148 0.41301 0.94286 0.0
C733 C 0.43946 0.40841 0.93771 0.0
C734 C 0.40501 0.42894 0.05854 0.0
C735 C 0.36623 0.41354 0.00775 0.0
N736 N 0.42841 0.41501 0.97453 0.0
N737 N 0.37926 0.41035 0.96694 0.0
H738 H 0.04614 0.19169 0.37178 0.0
H739 H 0.13652 0.19698 0.61008 0.0
H740 H 0.06531 0.22121 0.59422 0.0
H741 H 0.13342 0.19551 0.359 0.0
H742 H 0.10473 0.19644 0.61459 0.0
H743 H 0.07295 0.18404 0.3767 0.0
C744 C 0.05591 0.19644 0.42191 0.0
C745 C 0.05369 0.20731 0.4823 0.0
C746 C 0.11093 0.19592 0.55873 0.0
C747 C 0.08406 0.19835 0.48853 0.0
C748 C 0.1289 0.19606 0.55609 0.0
C749 C 0.13758 0.19648 0.48401 0.0
C750 C 0.10155 0.19582 0.48885 0.0
C751 C 0.12726 0.19542 0.41567 0.0
C752 C 0.07115 0.19206 0.42458 0.0
C753 C 0.06671 0.21304 0.54596 0.0
N754 N 0.10978 0.19521 0.41972 0.0
N755 N 0.08141 0.2085 0.54742 0.0
H756 H 0.78212 0.94237 0.60344 0.0
H757 H 0.80735 0.87427 0.35387 0.0
H758 H 0.81442 0.96264 0.38695 0.0
H759 H 0.8043 0.86968 0.60446 0.0
H760 H 0.80958 0.90657 0.36359 0.0
H761 H 0.78906 0.91503 0.60501 0.0
C762 C 0.79072 0.94111 0.55648 0.0
C763 C 0.79752 0.95463 0.49453 0.0
C764 C 0.80881 0.89867 0.41653 0.0
C765 C 0.80542 0.92354 0.49599 0.0
C766 C 0.8075 0.88028 0.41097 0.0
C767 C 0.80553 0.86938 0.47846 0.0
C768 C 0.80756 0.90588 0.48994 0.0
C769 C 0.80585 0.87773 0.55115 0.0
C770 C 0.79482 0.92565 0.55781 0.0
C771 C 0.80881 0.95248 0.43564 0.0
N772 N 0.8064 0.89538 0.55501 0.0
N773 N 0.81217 0.93703 0.43721 0.0
H774 H 0.04494 0.87002 0.40781 0.0
H775 H 0.15189 0.93036 0.60714 0.0
H776 H 0.06671 0.84682 0.58659 0.0
H777 H 0.13201 0.95487 0.42647 0.0
H778 H 0.11932 0.90068 0.6076 0.0
H779 H 0.07534 0.90225 0.42074 0.0
C780 C 0.05601 0.87172 0.4501 0.0
C781 C 0.05336 0.85563 0.49555 0.0
C782 C 0.122 0.91257 0.56804 0.0
C783 C 0.08805 0.89233 0.51056 0.0
C784 C 0.14064 0.92955 0.56772 0.0
C785 C 0.14477 0.94507 0.51613 0.0
C786 C 0.10735 0.91096 0.51607 0.0
C787 C 0.12951 0.94322 0.46696 0.0
C788 C 0.07335 0.8901 0.45738 0.0
C789 C 0.06817 0.8587 0.54959 0.0
N790 N 0.11149 0.92638 0.46767 0.0
N791 N 0.08487 0.87663 0.55523 0.0
H792 H 0.21371 0.15066 0.37496 0.0
H793 H 0.18606 0.05726 0.62652 0.0
H794 H 0.17995 0.13927 0.58736 0.0
H795 H 0.18943 0.05524 0.37611 0.0
H796 H 0.18432 0.0876 0.61542 0.0
H797 H 0.2063 0.11622 0.37519 0.0
C798 C 0.2047 0.1409 0.42143 0.0
C799 C 0.19758 0.14783 0.48162 0.0
C800 C 0.18504 0.08029 0.56285 0.0
C801 C 0.18916 0.10866 0.48226 0.0
C802 C 0.18603 0.06303 0.56916 0.0
C803 C 0.18797 0.05389 0.50213 0.0
C804 C 0.18658 0.08869 0.48917 0.0
C805 C 0.18787 0.06187 0.42912 0.0
C806 C 0.20034 0.12125 0.42111 0.0
C807 C 0.18578 0.13453 0.53997 0.0
N808 N 0.18765 0.07913 0.42456 0.0
N809 N 0.18218 0.11563 0.5395 0.0
H810 H 0.86088 0.06359 0.62221 0.0
H811 H 0.95092 0.14082 0.36442 0.0
H812 H 0.86454 0.05697 0.37411 0.0
H813 H 0.94602 0.14526 0.61321 0.0
H814 H 0.92297 0.10678 0.36912 0.0
H815 H 0.89541 0.08989 0.62261 0.0
C816 C 0.86904 0.06759 0.56784 0.0
C817 C 0.85977 0.05844 0.49775 0.0
C818 C 0.92827 0.11511 0.4228 0.0
C819 C 0.89926 0.08874 0.49744 0.0
C820 C 0.94422 0.1345 0.42015 0.0
C821 C 0.95041 0.14598 0.48826 0.0
C822 C 0.91859 0.1073 0.49403 0.0
C823 C 0.94137 0.13708 0.559 0.0
C824 C 0.88879 0.08257 0.56806 0.0
C825 C 0.87113 0.06387 0.42927 0.0
N826 N 0.92576 0.11837 0.55986 0.0
N827 N 0.89023 0.07898 0.43051 0.0
H828 H 0.94202 0.81097 0.34844 0.0
H829 H 0.85845 0.8199 0.58241 0.0
H830 H 0.93639 0.80591 0.59852 0.0
H831 H 0.84722 0.79165 0.35705 0.0
H832 H 0.89183 0.82423 0.58061 0.0
H833 H 0.91177 0.81347 0.34312 0.0
C834 C 0.93464 0.81081 0.40217 0.0
C835 C 0.94151 0.80812 0.474 0.0
C836 C 0.88207 0.81725 0.53139 0.0
C837 C 0.90738 0.81112 0.46835 0.0
C838 C 0.86308 0.81479 0.53223 0.0
C839 C 0.85002 0.80521 0.4701 0.0
C840 C 0.88814 0.81043 0.46736 0.0
C841 C 0.85677 0.79888 0.40653 0.0
C842 C 0.91739 0.81209 0.39904 0.0
C843 C 0.9314 0.80781 0.54201 0.0
N844 N 0.87544 0.80162 0.4067 0.0
N845 N 0.91481 0.8093 0.53757 0.0
H846 H 0.80239 0.51481 0.79338 0.0
H847 H 0.74968 0.57778 0.80797 0.0
H848 H 0.83041 0.5739 0.8899 0.0
H849 H 0.71512 0.51492 0.8516 0.0
H850 H 0.77992 0.57606 0.81935 0.0
H851 H 0.77027 0.51367 0.79871 0.0
C852 C 0.80178 0.52745 0.81613 0.0
C853 C 0.81911 0.54456 0.84051 0.0
C854 C 0.76573 0.56265 0.82679 0.0
C855 C 0.78277 0.54336 0.84585 0.0
C856 C 0.74848 0.56358 0.81974 0.0
C857 C 0.72994 0.54643 0.82864 0.0
C858 C 0.76447 0.54439 0.84126 0.0
C859 C 0.72921 0.52845 0.8446 0.0
C860 C 0.78349 0.52672 0.8195 0.0
C861 C 0.81748 0.56045 0.8701 0.0
N862 N 0.74633 0.52781 0.84954 0.0
N863 N 0.79967 0.55955 0.8709 0.0
H864 H 0.48502 0.29827 0.69248 0.0
H865 H 0.47892 0.20729 0.92725 0.0
H866 H 0.45736 0.28006 0.91845 0.0
H867 H 0.47421 0.20798 0.677 0.0
H868 H 0.48251 0.24039 0.93252 0.0
H869 H 0.49224 0.27112 0.69537 0.0
C870 C 0.48071 0.28873 0.7431 0.0
C871 C 0.47031 0.29115 0.80483 0.0
C872 C 0.48108 0.23338 0.87653 0.0
C873 C 0.47882 0.26053 0.80889 0.0
C874 C 0.47915 0.21463 0.87342 0.0
C875 C 0.47602 0.20493 0.80165 0.0
C876 C 0.48026 0.24246 0.80728 0.0
C877 C 0.47633 0.21495 0.7335 0.0
C878 C 0.48483 0.2733 0.74461 0.0
C879 C 0.46511 0.27844 0.86914 0.0
N880 N 0.47829 0.23319 0.73797 0.0
N881 N 0.46938 0.26358 0.86944 0.0
H882 H 0.7309 0.19133 0.96841 0.0
H883 H 0.79912 0.2827 0.71264 0.0
H884 H 0.70959 0.20305 0.75423 0.0
H885 H 0.80568 0.28478 0.96263 0.0
H886 H 0.76602 0.25372 0.72608 0.0
H887 H 0.7584 0.22553 0.96864 0.0
C888 C 0.73193 0.20116 0.92184 0.0
C889 C 0.71815 0.19433 0.86064 0.0
C890 C 0.77455 0.26075 0.77808 0.0
C891 C 0.7495 0.23325 0.86034 0.0
C892 C 0.79343 0.27721 0.77041 0.0
C893 C 0.80514 0.28593 0.8366 0.0
C894 C 0.76761 0.25271 0.85224 0.0
C895 C 0.79708 0.2784 0.91018 0.0
C896 C 0.7475 0.22068 0.92234 0.0
C897 C 0.71998 0.20771 0.80226 0.0
N898 N 0.77892 0.2619 0.91602 0.0
N899 N 0.73562 0.22648 0.80276 0.0
H900 H 0.85994 0.47611 0.68988 0.0
H901 H 0.85072 0.38386 0.92512 0.0
H902 H 0.86106 0.47369 0.94076 0.0
H903 H 0.88009 0.40217 0.7021 0.0
H904 H 0.84414 0.41135 0.92061 0.0
H905 H 0.85663 0.44312 0.68395 0.0
C906 C 0.85895 0.46839 0.74359 0.0
C907 C 0.86097 0.47756 0.81592 0.0
C908 C 0.85183 0.40916 0.8724 0.0
C909 C 0.85712 0.4402 0.80952 0.0
C910 C 0.85561 0.39354 0.87483 0.0
C911 C 0.86623 0.39095 0.81435 0.0
C912 C 0.85846 0.42207 0.80858 0.0
C913 C 0.87213 0.40386 0.75047 0.0
C914 C 0.85722 0.44973 0.74013 0.0
C915 C 0.85977 0.46712 0.88391 0.0
N916 N 0.86821 0.41897 0.74931 0.0
N917 N 0.85801 0.44897 0.87909 0.0
H918 H 0.52951 0.39749 0.67602 0.0
H919 H 0.62187 0.4786 0.91974 0.0
H920 H 0.52909 0.40191 0.92659 0.0
H921 H 0.60693 0.48974 0.69041 0.0
H922 H 0.5928 0.44517 0.91526 0.0
H923 H 0.56318 0.4263 0.67412 0.0
C924 C 0.53664 0.40431 0.73062 0.0
C925 C 0.5265 0.39755 0.80152 0.0
C926 C 0.59611 0.45491 0.86568 0.0
C927 C 0.56479 0.43009 0.79967 0.0
C928 C 0.61266 0.47389 0.86803 0.0
C929 C 0.61658 0.48696 0.80574 0.0
C930 C 0.58372 0.44893 0.80002 0.0
C931 C 0.60421 0.48017 0.74009 0.0
C932 C 0.55574 0.42072 0.72942 0.0
C933 C 0.53634 0.40689 0.87066 0.0
N934 N 0.58826 0.46159 0.73898 0.0
N935 N 0.55497 0.42276 0.86803 0.0
H936 H 0.5873 0.10557 0.89227 0.0
H937 H 0.534 0.16702 0.82202 0.0
H938 H 0.62016 0.16383 0.79002 0.0
H939 H 0.50487 0.10399 0.78082 0.0
H940 H 0.56594 0.16787 0.83015 0.0
H941 H 0.55672 0.10648 0.8749 0.0
C942 C 0.5881 0.11864 0.86674 0.0
C943 C 0.60626 0.13467 0.84252 0.0
C944 C 0.55251 0.15395 0.81863 0.0
C945 C 0.57136 0.13576 0.82288 0.0
C946 C 0.53435 0.15342 0.8143 0.0
C947 C 0.51682 0.13539 0.80099 0.0
C948 C 0.55292 0.13626 0.81159 0.0
C949 C 0.51804 0.1182 0.79099 0.0
C950 C 0.57064 0.11905 0.85631 0.0
C951 C 0.60641 0.15116 0.80915 0.0
N952 N 0.53577 0.11902 0.79757 0.0
N953 N 0.58914 0.15137 0.80078 0.0
H954 H 0.47248 0.86874 0.28364 0.0
H955 H 0.3834 0.86377 0.03724 0.0
H956 H 0.47015 0.86623 0.03254 0.0
H957 H 0.40204 0.89463 0.25722 0.0
H958 H 0.41066 0.85685 0.04473 0.0
H959 H 0.44164 0.87018 0.28447 0.0
C960 C 0.46524 0.86808 0.22894 0.0
C961 C 0.47381 0.86748 0.15787 0.0
C962 C 0.4087 0.86507 0.09142 0.0
C963 C 0.43887 0.86905 0.15848 0.0
C964 C 0.39318 0.86902 0.08729 0.0
C965 C 0.3906 0.87995 0.14641 0.0
C966 C 0.42153 0.87182 0.15565 0.0
C967 C 0.40369 0.88637 0.20997 0.0
C968 C 0.44783 0.86907 0.22944 0.0
C969 C 0.46404 0.86684 0.08847 0.0
N970 N 0.41864 0.88216 0.21306 0.0
N971 N 0.44707 0.86765 0.09048 0.0
H972 H 0.14919 0.62584 0.03255 0.0
H973 H 0.14273 0.53609 0.27778 0.0
H974 H 0.12594 0.61228 0.26676 0.0
H975 H 0.13397 0.53378 0.02892 0.0
H976 H 0.14718 0.56955 0.27911 0.0
H977 H 0.15422 0.59727 0.03656 0.0
C978 C 0.14543 0.61703 0.08517 0.0
C979 C 0.13688 0.62119 0.14907 0.0
C980 C 0.14456 0.56175 0.22427 0.0
C981 C 0.14284 0.5889 0.15416 0.0
C982 C 0.14211 0.54278 0.22337 0.0
C983 C 0.13773 0.53218 0.15325 0.0
C984 C 0.14303 0.57017 0.15437 0.0
C985 C 0.13704 0.54141 0.0843 0.0
C986 C 0.14826 0.60077 0.08727 0.0
C987 C 0.13229 0.60935 0.21586 0.0
N988 N 0.13961 0.55992 0.08658 0.0
N989 N 0.13527 0.59365 0.21664 0.0
H990 H 0.46523 0.61999 0.08648 0.0
H991 H 0.40251 0.51223 0.27369 0.0
H992 H 0.48782 0.59623 0.25978 0.0
H993 H 0.37998 0.53384 0.09174 0.0
H994 H 0.4327 0.54435 0.278 0.0
H995 H 0.43281 0.5899 0.09591 0.0
C996 C 0.46337 0.60852 0.1268 0.0
C997 C 0.47932 0.61057 0.1719 0.0
C998 C 0.42113 0.54213 0.23736 0.0
C999 C 0.44232 0.57617 0.18291 0.0
C1000 C 0.40386 0.52376 0.23483 0.0
C1001 C 0.38876 0.52026 0.18166 0.0
C1002 C 0.42341 0.55714 0.18616 0.0
C1003 C 0.39129 0.53585 0.13333 0.0
C1004 C 0.44486 0.59135 0.13211 0.0
C1005 C 0.47601 0.59525 0.22336 0.0
N1006 N 0.40838 0.5536 0.13632 0.0
N1007 N 0.45791 0.57868 0.22715 0.0
H1008 H 0.51713 0.71801 0.02889 0.0
H1009 H 0.5101 0.80246 0.2644 0.0
H1010 H 0.51881 0.72169 0.27982 0.0
H1011 H 0.5398 0.81219 0.04278 0.0
H1012 H 0.50183 0.76773 0.25989 0.0
H1013 H 0.51341 0.74742 0.02385 0.0
C1014 C 0.51614 0.72467 0.08285 0.0
C1015 C 0.51856 0.71771 0.15486 0.0
C1016 C 0.50991 0.77747 0.2119 0.0
C1017 C 0.51424 0.75096 0.14943 0.0
C1018 C 0.51464 0.79721 0.21439 0.0
C1019 C 0.52593 0.8102 0.15447 0.0
C1020 C 0.51619 0.77069 0.14837 0.0
C1021 C 0.53138 0.80269 0.09081 0.0
C1022 C 0.51415 0.74145 0.07988 0.0
C1023 C 0.51727 0.72686 0.22316 0.0
N1024 N 0.52651 0.78339 0.0895 0.0
N1025 N 0.51534 0.74317 0.21881 0.0
H1026 H 0.28733 0.80994 0.03132 0.0
H1027 H 0.19419 0.73198 0.2767 0.0
H1028 H 0.27608 0.81672 0.27242 0.0
H1029 H 0.20114 0.725 0.03128 0.0
H1030 H 0.22809 0.75947 0.28125 0.0
H1031 H 0.25975 0.77562 0.03511 0.0
C1032 C 0.27927 0.8041 0.08526 0.0
C1033 C 0.28362 0.81623 0.15116 0.0
C1034 C 0.22234 0.75185 0.22639 0.0
C1035 C 0.25236 0.77728 0.15599 0.0
C1036 C 0.20296 0.73619 0.2238 0.0
C1037 C 0.19478 0.72656 0.15314 0.0
C1038 C 0.23353 0.75822 0.15751 0.0
C1039 C 0.2069 0.73226 0.08673 0.0
C1040 C 0.26356 0.78457 0.08739 0.0
C1041 C 0.27288 0.80799 0.21975 0.0
N1042 N 0.22563 0.74803 0.09012 0.0
N1043 N 0.25764 0.7891 0.22012 0.0
H1044 H 0.28085 0.48052 0.03269 0.0
H1045 H 0.19728 0.49141 0.25883 0.0
H1046 H 0.27588 0.47925 0.28322 0.0
H1047 H 0.18729 0.46238 0.03554 0.0
H1048 H 0.23133 0.49751 0.2578 0.0
H1049 H 0.25166 0.48467 0.02373 0.0
C1050 C 0.27391 0.48161 0.08573 0.0
C1051 C 0.28054 0.47932 0.1588 0.0
C1052 C 0.22171 0.49004 0.20871 0.0
C1053 C 0.24754 0.48416 0.14892 0.0
C1054 C 0.20233 0.48657 0.20911 0.0
C1055 C 0.1894 0.47611 0.14765 0.0
C1056 C 0.22824 0.48331 0.14586 0.0
C1057 C 0.19672 0.47022 0.08462 0.0
C1058 C 0.25725 0.48384 0.08053 0.0
C1059 C 0.27102 0.48072 0.22581 0.0
N1060 N 0.21569 0.47384 0.08544 0.0
N1061 N 0.2549 0.48296 0.21928 0.0
H1062 H 0.96926 0.22906 0.1679 0.0
H1063 H 0.03388 0.23877 0.79122 0.0
H1064 H 0.01684 0.21575 0.17063 0.0
H1065 H 0.97287 0.22482 0.77951 0.0
H1066 H 0.03174 0.23831 0.93447 0.0
H1067 H 0.974 0.23478 0.02724 0.0
C1068 C 0.98063 0.22727 0.1389 0.0
C1069 C -0.00749 0.22169 0.1807 0.0
C1070 C 0.01894 0.23557 0.90018 0.0
C1071 C -0.00171 0.22867 0.02101 0.0
C1072 C 0.02021 0.23599 0.81892 0.0
C1073 C 0.00347 0.23163 0.77428 0.0
C1074 C 0.00093 0.23115 0.93603 0.0
C1075 C 0.98602 0.22801 0.81234 0.0
C1076 C 0.98336 0.2306 0.05892 0.0
C1077 C 0.00715 0.21975 0.1404 0.0
N1078 N 0.98518 0.22782 0.89113 0.0
N1079 N 0.00969 0.22331 0.06272 0.0
H1080 H 0.80914 0.82045 0.16624 0.0
H1081 H 0.74797 0.77005 0.78041 0.0
H1082 H 0.76176 0.75963 0.16269 0.0
H1083 H 0.80648 0.82184 0.78137 0.0
H1084 H 0.75076 0.76682 0.9216 0.0
H1085 H 0.8071 0.82172 0.02505 0.0
C1086 C 0.79851 0.80724 0.13522 0.0
C1087 C 0.78565 0.78989 0.17562 0.0
C1088 C 0.76294 0.77886 0.8906 0.0
C1089 C 0.78281 0.79137 0.01433 0.0
C1090 C 0.76126 0.78086 0.81044 0.0
C1091 C 0.777 0.79627 0.76933 0.0
C1092 C 0.78035 0.79253 0.92952 0.0
C1093 C 0.794 0.80971 0.81073 0.0
C1094 C 0.79729 0.80798 0.05475 0.0
C1095 C 0.77206 0.7732 0.13313 0.0
N1096 N 0.7952 0.80755 0.88844 0.0
N1097 N 0.77079 0.77441 0.05444 0.0
H1098 H 0.24655 0.03349 0.19736 0.0
H1099 H 0.19481 0.968 0.81937 0.0
H1100 H 0.18741 0.9826 0.20215 0.0
H1101 H 0.23874 0.03014 0.8112 0.0
H1102 H 0.19598 0.96973 0.96287 0.0
H1103 H 0.24765 0.02921 0.05674 0.0
C1104 C 0.23378 0.02147 0.1688 0.0
C1105 C 0.21678 0.00852 0.21121 0.0
C1106 C 0.20545 0.98288 0.92925 0.0
C1107 C 0.21812 0.00333 0.05118 0.0
C1108 C 0.20489 0.98186 0.84789 0.0
C1109 C 0.21655 -0.001 0.80422 0.0
C1110 C 0.21806 0.00106 0.96605 0.0
C1111 C 0.22934 0.01666 0.84325 0.0
C1112 C 0.23445 0.01901 0.08876 0.0
C1113 C 0.2007 -0.00692 0.17138 0.0
N1114 N 0.22975 0.01725 0.92201 0.0
N1115 N 0.20178 0.99087 0.09341 0.0
H1116 H 0.01292 0.7699 0.78533 0.0
H1117 H -0.00653 0.81623 0.16647 0.0
H1118 H -0.00853 0.81124 0.77773 0.0
H1119 H -0.01236 0.75821 0.16503 0.0
H1120 H -0.00099 0.81835 0.0257 0.0
H1121 H 0.01072 0.76964 0.92846 0.0
C1122 C 0.00813 0.77917 0.81394 0.0
C1123 C 0.00227 0.79053 0.77028 0.0
C1124 C -0.00355 0.80514 0.05631 0.0
C1125 C -0.00028 0.7903 0.93211 0.0
C1126 C -0.00677 0.8039 0.13641 0.0
C1127 C -0.0101 0.78695 0.17716 0.0
C1128 C -0.0033 0.78949 0.01705 0.0
C1129 C -0.01013 0.77143 0.13553 0.0
C1130 C 0.00669 0.77887 0.89514 0.0
C1131 C -0.00403 0.80217 0.80961 0.0
N1132 N -0.00664 0.77312 0.0576 0.0
N1133 N -0.00514 0.80177 0.88837 0.0
H1134 H 0.24889 0.23438 0.17616 0.0
H1135 H 0.1833 0.19236 0.79082 0.0
H1136 H 0.18622 0.19186 0.17542 0.0
H1137 H 0.23844 0.2481 0.79356 0.0
H1138 H 0.18647 0.18917 0.93022 0.0
H1139 H 0.24791 0.23631 0.03304 0.0
C1140 C 0.23508 0.22515 0.14565 0.0
C1141 C 0.2176 0.21296 0.18702 0.0
C1142 C 0.19786 0.20216 0.90054 0.0
C1143 C 0.21632 0.2152 0.02528 0.0
C1144 C 0.19604 0.20401 0.82096 0.0
C1145 C 0.21059 0.22058 0.78069 0.0
C1146 C 0.21445 0.21686 0.94039 0.0
C1147 C 0.22679 0.23521 0.82272 0.0
C1148 C 0.23447 0.22643 0.06447 0.0
C1149 C 0.19999 0.20149 0.14539 0.0
N1150 N 0.22837 0.23296 0.90054 0.0
N1151 N 0.1998 0.20291 0.06689 0.0
H1152 H 0.7928 -0.00762 0.18082 0.0
H1153 H 0.77787 0.03503 0.78677 0.0
H1154 H 0.77517 0.03676 0.17521 0.0
H1155 H 0.76982 0.97627 0.80083 0.0
H1156 H 0.77858 0.03694 0.92869 0.0
H1157 H 0.78705 0.98765 0.04057 0.0
C1158 C 0.78788 0.00125 0.15002 0.0
C1159 C 0.78459 0.01511 0.18963 0.0
C1160 C 0.77637 0.02351 0.90094 0.0
C1161 C 0.77785 0.00961 0.02965 0.0
C1162 C 0.77597 0.02241 0.82017 0.0
C1163 C 0.77383 0.00548 0.78278 0.0
C1164 C 0.7751 0.00774 0.94449 0.0
C1165 C 0.7714 0.98952 0.82804 0.0
C1166 C 0.78438 -0.00164 0.07023 0.0
C1167 C 0.77796 0.02599 0.14694 0.0
N1168 N 0.77243 0.99115 0.90702 0.0
N1169 N 0.77494 0.0231 0.06903 0.0
H1170 H 0.68012 0.53363 0.12552 0.0
H1171 H 0.64858 0.56878 0.50737 0.0
H1172 H 0.67329 0.58523 0.12846 0.0
H1173 H 0.68325 0.53964 0.51552 0.0
H1174 H 0.65116 0.56975 0.36458 0.0
H1175 H 0.67569 0.53103 0.26704 0.0
C1176 C 0.67783 0.54448 0.15609 0.0
C1177 C 0.67722 0.55975 0.11562 0.0
C1178 C 0.65807 0.56306 0.39795 0.0
C1179 C 0.67166 0.55657 0.27625 0.0
C1180 C 0.65645 0.56233 0.47898 0.0
C1181 C 0.66582 0.55422 0.52276 0.0
C1182 C 0.66877 0.55525 0.36115 0.0
C1183 C 0.67597 0.54618 0.4836 0.0
C1184 C 0.67527 0.54296 0.23653 0.0
C1185 C 0.67411 0.57338 0.15776 0.0
N1186 N 0.67716 0.54687 0.40484 0.0
N1187 N 0.67127 0.57137 0.23596 0.0
H1188 H 0.43266 0.09393 0.49307 0.0
H1189 H 0.47935 0.15965 0.11221 0.0
H1190 H 0.47532 0.15644 0.50065 0.0
H1191 H 0.42075 0.10797 0.11415 0.0
H1192 H 0.48171 0.156 0.25257 0.0
H1193 H 0.43223 0.09587 0.34995 0.0
C1194 C 0.44221 0.10791 0.46442 0.0
C1195 C 0.45398 0.12507 0.50805 0.0
C1196 C 0.46832 0.14552 0.2222 0.0
C1197 C 0.45353 0.1274 0.34631 0.0
C1198 C 0.46693 0.14762 0.14233 0.0
C1199 C 0.44975 0.13421 0.10183 0.0
C1200 C 0.45257 0.12969 0.26151 0.0
C1201 C 0.43415 0.1188 0.14351 0.0
C1202 C 0.4418 0.10906 0.38325 0.0
C1203 C 0.46595 0.14292 0.46874 0.0
N1204 N 0.43597 0.11687 0.22124 0.0
N1205 N 0.46542 0.14363 0.39003 0.0
H1206 H 0.88539 0.30529 0.1325 0.0
H1207 H 0.90144 0.37211 0.50874 0.0
H1208 H 0.88218 0.35892 0.12451 0.0
H1209 H 0.87563 0.30864 0.51821 0.0
H1210 H 0.9028 0.37041 0.36564 0.0
H1211 H 0.88997 0.30925 0.27411 0.0
C1212 C 0.88571 0.31789 0.16049 0.0
C1213 C 0.8831 0.33162 0.11713 0.0
C1214 C 0.897 0.35693 0.39951 0.0
C1215 C 0.88874 0.33645 0.2777 0.0
C1216 C 0.8963 0.35792 0.48068 0.0
C1217 C 0.88814 0.34047 0.52455 0.0
C1218 C 0.88992 0.33845 0.36308 0.0
C1219 C 0.8817 0.32239 0.48599 0.0
C1220 C 0.88834 0.32015 0.24097 0.0
C1221 C 0.88379 0.3478 0.15606 0.0
N1222 N 0.88273 0.32184 0.40738 0.0
N1223 N 0.88657 0.34979 0.23425 0.0
H1224 H 0.68667 0.1087 0.15746 0.0
H1225 H 0.66013 0.14882 0.54052 0.0
H1226 H 0.66139 0.14684 0.1531 0.0
H1227 H 0.66165 0.09427 0.53812 0.0
H1228 H 0.66605 0.15185 0.40026 0.0
H1229 H 0.68382 0.10732 0.30049 0.0
C1230 C 0.68091 0.11707 0.18677 0.0
C1231 C 0.67419 0.12784 0.14394 0.0
C1232 C 0.665 0.13917 0.43039 0.0
C1233 C 0.67082 0.12627 0.3058 0.0
C1234 C 0.66156 0.1374 0.51031 0.0
C1235 C 0.66022 0.12118 0.55078 0.0
C1236 C 0.66742 0.12479 0.39075 0.0
C1237 C 0.66231 0.10687 0.50883 0.0
C1238 C 0.67909 0.11611 0.26795 0.0
C1239 C 0.66662 0.13827 0.18422 0.0
N1240 N 0.66594 0.10906 0.43094 0.0
N1241 N 0.66513 0.13722 0.26288 0.0
H1242 H 0.91371 0.55125 0.12063 0.0
H1243 H 0.858 0.54598 0.51293 0.0
H1244 H 0.86922 0.5687 0.1304 0.0
H1245 H 0.9168 0.55336 0.50698 0.0
H1246 H 0.85966 0.551 0.37165 0.0
H1247 H 0.9134 0.54942 0.26225 0.0
C1248 C 0.90401 0.55488 0.15302 0.0
C1249 C 0.89142 0.56007 0.11446 0.0
C1250 C 0.87217 0.55155 0.40158 0.0
C1251 C 0.89072 0.55766 0.27594 0.0
C1252 C 0.87116 0.54846 0.48183 0.0
C1253 C 0.88726 0.54917 0.52148 0.0
C1254 C 0.88927 0.55505 0.36102 0.0
C1255 C 0.90405 0.55268 0.47866 0.0
C1256 C 0.90385 0.55386 0.23366 0.0
C1257 C 0.87919 0.56474 0.15857 0.0
N1258 N 0.90457 0.5554 0.40061 0.0
N1259 N 0.87891 0.56315 0.2375 0.0
H1260 H 0.4463 0.36751 0.10012 0.0
H1261 H 0.46164 0.32577 0.49418 0.0
H1262 H 0.44053 0.30964 0.11181 0.0
H1263 H 0.43918 0.36637 0.48725 0.0
H1264 H 0.4568 0.32118 0.35338 0.0
H1265 H 0.44586 0.36865 0.24201 0.0
C1266 C 0.44476 0.35496 0.13296 0.0
C1267 C 0.44357 0.3385 0.09499 0.0
C1268 C 0.45285 0.33099 0.38295 0.0
C1269 C 0.44342 0.33986 0.25661 0.0
C1270 C 0.45581 0.33381 0.46298 0.0
C1271 C 0.45096 0.34662 0.5022 0.0
C1272 C 0.44532 0.34131 0.34193 0.0
C1273 C 0.44319 0.35643 0.45918 0.0
C1274 C 0.44445 0.35559 0.21367 0.0
C1275 C 0.44145 0.32255 0.13953 0.0
N1276 N 0.44077 0.3537 0.38106 0.0
N1277 N 0.44177 0.32374 0.21859 0.0
H1278 H 0.35158 0.92731 0.45123 0.0
H1279 H 0.32777 0.86021 0.83063 0.0
H1280 H 0.32915 0.86435 0.44339 0.0
H1281 H 0.3257 0.91448 0.83075 0.0
H1282 H 0.3336 0.86358 0.69031 0.0
H1283 H 0.34837 0.92527 0.59418 0.0
C1284 C 0.34639 0.91319 0.47983 0.0
C1285 C 0.34056 0.89596 0.43618 0.0
C1286 C 0.33175 0.87469 0.72102 0.0
C1287 C 0.33677 0.89349 0.59759 0.0
C1288 C 0.32836 0.87273 0.80091 0.0
C1289 C 0.3261 0.887 0.84205 0.0
C1290 C 0.33322 0.89118 0.68224 0.0
C1291 C 0.32711 0.90302 0.80087 0.0
C1292 C 0.34435 0.91198 0.56087 0.0
C1293 C 0.33369 0.87794 0.47532 0.0
N1294 N 0.33075 0.90477 0.72303 0.0
N1295 N 0.33197 0.87717 0.55386 0.0
H1296 H 0.13898 0.44573 0.84449 0.0
H1297 H 0.08354 0.45262 0.46609 0.0
H1298 H 0.09035 0.45736 0.85335 0.0
H1299 H 0.14518 0.46824 0.4635 0.0
H1300 H 0.08295 0.44805 0.60711 0.0
H1301 H 0.1383 0.44708 0.70129 0.0
C1302 C 0.12803 0.44827 0.81616 0.0
C1303 C 0.11482 0.45162 0.86003 0.0
C1304 C 0.0966 0.45253 0.57549 0.0
C1305 C 0.1139 0.45309 0.69848 0.0
C1306 C 0.09696 0.45519 0.49528 0.0
C1307 C 0.11447 0.46097 0.4534 0.0
C1308 C 0.11377 0.45537 0.6136 0.0
C1309 C 0.13143 0.464 0.49389 0.0
C1310 C 0.12774 0.4492 0.73498 0.0
C1311 C 0.10093 0.45495 0.82122 0.0
N1312 N 0.13064 0.46105 0.57196 0.0
N1313 N 0.10082 0.45559 0.74251 0.0
H1314 H 0.51943 0.64913 0.84886 0.0
H1315 H 0.57453 0.6986 0.45576 0.0
H1316 H 0.57858 0.7 0.84312 0.0
H1317 H 0.53002 0.63671 0.46749 0.0
H1318 H 0.57488 0.70031 0.59754 0.0
H1319 H 0.52112 0.64548 0.70797 0.0
C1320 C 0.53269 0.65963 0.81788 0.0
C1321 C 0.54886 0.67498 0.85753 0.0
C1322 C 0.5652 0.68628 0.56931 0.0
C1323 C 0.55089 0.67074 0.69725 0.0
C1324 C 0.56497 0.68531 0.48861 0.0
C1325 C 0.55216 0.6675 0.45058 0.0
C1326 C 0.5522 0.66943 0.61215 0.0
C1327 C 0.54014 0.65066 0.49521 0.0
C1328 C 0.53372 0.65738 0.73781 0.0
C1329 C 0.56577 0.688 0.81478 0.0
N1330 N 0.54021 0.65209 0.57417 0.0
N1331 N 0.5663 0.68565 0.73674 0.0
H1332 H 0.29804 0.42009 0.85606 0.0
H1333 H 0.36432 0.46834 0.47734 0.0
H1334 H 0.3512 0.47758 0.85993 0.0
H1335 H 0.30105 0.42833 0.4694 0.0
H1336 H 0.36263 0.4674 0.62074 0.0
H1337 H 0.3017 0.41873 0.71507 0.0
C1338 C 0.31043 0.43244 0.8272 0.0
C1339 C 0.32422 0.44906 0.86941 0.0
C1340 C 0.3492 0.45875 0.58719 0.0
C1341 C 0.32868 0.4474 0.70914 0.0
C1342 C 0.35019 0.45918 0.50589 0.0
C1343 C 0.33277 0.44856 0.46228 0.0
C1344 C 0.33075 0.4473 0.62404 0.0
C1345 C 0.31477 0.43693 0.50137 0.0
C1346 C 0.31253 0.43163 0.74699 0.0
C1347 C 0.34009 0.46461 0.82928 0.0
N1348 N 0.31421 0.4366 0.58014 0.0
N1349 N 0.34195 0.46338 0.75118 0.0
H1350 H 0.51843 0.85528 0.85267 0.0
H1351 H 0.57481 0.91127 0.46718 0.0
H1352 H 0.58172 0.89505 0.84954 0.0
H1353 H 0.518 0.85725 0.4673 0.0
H1354 H 0.57735 0.90749 0.60802 0.0
H1355 H 0.51784 0.85695 0.7111 0.0
C1356 C 0.53227 0.86411 0.8217 0.0
C1357 C 0.55015 0.87501 0.86228 0.0
C1358 C 0.56439 0.89649 0.57688 0.0
C1359 C 0.54956 0.87746 0.70059 0.0
C1360 C 0.56282 0.89875 0.49688 0.0
C1361 C 0.54613 0.8846 0.45563 0.0
C1362 C 0.54904 0.88013 0.61561 0.0
C1363 C 0.53114 0.86852 0.49672 0.0
C1364 C 0.53194 0.86512 0.74102 0.0
C1365 C 0.56768 0.8863 0.81986 0.0
N1366 N 0.53292 0.86678 0.57437 0.0
N1367 N 0.56693 0.88749 0.74095 0.0
H1368 H 0.10608 0.64148 0.451 0.0
H1369 H 0.11397 0.7042 0.83017 0.0
H1370 H 0.11677 0.7013 0.44175 0.0
H1371 H 0.1301 0.65869 0.8302 0.0
H1372 H 0.10866 0.69991 0.68942 0.0
H1373 H 0.10776 0.64375 0.59413 0.0
C1374 C 0.10841 0.6549 0.47926 0.0
C1375 C 0.11145 0.67128 0.43525 0.0
C1376 C 0.11342 0.69094 0.72041 0.0
C1377 C 0.11337 0.67397 0.59688 0.0
C1378 C 0.11652 0.69341 0.80048 0.0
C1379 C 0.12264 0.68191 0.84163 0.0
C1380 C 0.11615 0.67663 0.68168 0.0
C1381 C 0.12561 0.66804 0.80045 0.0
C1382 C 0.10956 0.65626 0.56043 0.0
C1383 C 0.11457 0.68843 0.47402 0.0
N1384 N 0.12221 0.66569 0.7226 0.0
N1385 N 0.11547 0.68935 0.55274 0.0
loop_
_geom_bond_atom_site_label_1
_geom_bond_atom_site_label_2
_geom_bond_distance
_geom_bond_site_symmetry_2
_ccdc_geom_bond_type
O0 Zn1 1.953 . S
O0 C16 1.225 . S
Zn1 O0 1.953 . S
Zn1 O2 1.949 . S
Zn1 O8 1.919 . S
Zn1 O13 1.924 1_455 S
O2 Zn1 1.949 . S
O2 Zn3 1.923 . S
O2 Zn4 1.950 . S
O2 Zn5 1.945 1_455 S
Zn3 O2 1.923 . S
Zn3 O6 1.933 . S
Zn3 O9 1.941 . S
Zn3 O10 1.965 . S
Zn4 O2 1.950 . S
Zn4 O11 1.938 . S
Zn4 O12 1.906 1_455 S
Zn4 O22 1.953 1_455 S
Zn5 O2 1.945 1_655 S
Zn5 O7 1.932 1_655 S
Zn5 O14 1.977 . S
Zn5 O15 1.910 . S
O6 Zn3 1.933 . S
O6 C17 1.226 . S
O7 Zn5 1.932 1_455 S
O7 C17 1.307 . S
O8 Zn1 1.919 . S
O8 C19 1.253 . S
O9 Zn3 1.941 . S
O9 C19 1.283 . S
O10 Zn3 1.965 . S
O10 C18 1.303 . S
O11 Zn4 1.938 . S
O11 C18 1.247 . S
O12 Zn4 1.906 1_655 S
O12 C20 1.304 . S
O13 Zn1 1.924 1_655 S
O13 C21 1.311 . S
O14 Zn5 1.977 . S
O14 C20 1.272 . S
O15 Zn5 1.910 . S
O15 C21 1.231 . S
C16 O0 1.225 . S
C16 O22 1.266 1_455 S
C17 O6 1.226 . S
C17 O7 1.307 . S
C18 O10 1.303 . S
C18 O11 1.247 . S
C19 O8 1.253 . S
C19 O9 1.283 . S
C20 O12 1.304 . S
C20 O14 1.272 . S
C21 O13 1.311 . S
C21 O15 1.231 . S
O22 Zn4 1.953 1_655 S
O22 C16 1.266 1_655 S
O23 Zn24 1.953 . S
O23 C39 1.225 . S
Zn24 O23 1.953 . S
Zn24 O25 1.949 . S
Zn24 O31 1.919 . S
Zn24 O36 1.924 . S
O25 Zn24 1.949 . S
O25 Zn26 1.923 . S
O25 Zn27 1.950 . S
O25 Zn28 1.945 . S
Zn26 O25 1.923 . S
Zn26 O29 1.933 . S
Zn26 O32 1.941 . S
Zn26 O33 1.965 . S
Zn27 O25 1.950 . S
Zn27 O34 1.938 . S
Zn27 O35 1.906 . S
Zn27 O45 1.953 . S
Zn28 O25 1.945 . S
Zn28 O30 1.932 . S
Zn28 O37 1.977 . S
Zn28 O38 1.910 . S
O29 Zn26 1.933 . S
O29 C40 1.226 . S
O30 Zn28 1.932 . S
O30 C40 1.307 . S
O31 Zn24 1.919 . S
O31 C42 1.253 . S
O32 Zn26 1.941 . S
O32 C42 1.283 . S
O33 Zn26 1.965 . S
O33 C41 1.303 . S
O34 Zn27 1.938 . S
O34 C41 1.247 . S
O35 Zn27 1.906 . S
O35 C43 1.304 . S
O36 Zn24 1.924 . S
O36 C44 1.311 . S
O37 Zn28 1.977 . S
O37 C43 1.272 . S
O38 Zn28 1.910 . S
O38 C44 1.231 . S
C39 O23 1.225 . S
C39 O45 1.298 . S
C40 O29 1.226 . S
C40 O30 1.307 . S
C41 O33 1.303 . S
C41 O34 1.247 . S
C42 O31 1.253 . S
C42 O32 1.283 . S
C43 O35 1.304 . S
C43 O37 1.272 . S
C44 O36 1.311 . S
C44 O38 1.231 . S
O45 Zn27 1.953 . S
O45 C39 1.298 . S
O46 Zn47 1.953 . S
O46 C62 1.225 . S
Zn47 O46 1.953 . S
Zn47 O48 1.949 . S
Zn47 O54 1.919 1_545 S
Zn47 O59 1.924 . S
O48 Zn47 1.949 . S
O48 Zn49 1.923 1_545 S
O48 Zn50 1.950 . S
O48 Zn51 1.945 . S
Zn49 O48 1.923 1_565 S
Zn49 O52 1.933 . S
Zn49 O55 1.941 . S
Zn49 O56 1.965 . S
Zn50 O48 1.950 . S
Zn50 O57 1.938 1_545 S
Zn50 O58 1.906 . S
Zn50 O68 1.953 . S
Zn51 O48 1.945 . S
Zn51 O53 1.932 . S
Zn51 O60 1.977 . S
Zn51 O61 1.910 . S
O52 Zn49 1.933 . S
O52 C63 1.226 1_565 S
O53 Zn51 1.932 . S
O53 C63 1.307 . S
O54 Zn47 1.919 1_565 S
O54 C65 1.253 . S
O55 Zn49 1.941 . S
O55 C65 1.283 . S
O56 Zn49 1.965 . S
O56 C64 1.303 . S
O57 Zn50 1.938 1_565 S
O57 C64 1.247 . S
O58 Zn50 1.906 . S
O58 C66 1.304 . S
O59 Zn47 1.924 . S
O59 C67 1.311 . S
O60 Zn51 1.977 . S
O60 C66 1.272 . S
O61 Zn51 1.910 . S
O61 C67 1.231 . S
C62 O46 1.225 . S
C62 O68 1.298 . S
C63 O52 1.226 1_545 S
C63 O53 1.307 . S
C64 O56 1.303 . S
C64 O57 1.247 . S
C65 O54 1.253 . S
C65 O55 1.283 . S
C66 O58 1.304 . S
C66 O60 1.272 . S
C67 O59 1.311 . S
C67 O61 1.231 . S
O68 Zn50 1.953 . S
O68 C62 1.298 . S
O69 Zn70 1.953 . S
O69 C85 1.225 . S
Zn70 O69 1.953 . S
Zn70 O71 1.949 . S
Zn70 O77 1.919 . S
Zn70 O82 1.924 . S
O71 Zn70 1.949 . S
O71 Zn72 1.923 . S
O71 Zn73 1.950 1_455 S
O71 Zn74 1.945 . S
Zn72 O71 1.923 . S
Zn72 O75 1.933 . S
Zn72 O78 1.941 . S
Zn72 O79 1.965 1_455 S
Zn73 O71 1.950 1_655 S
Zn73 O80 1.938 . S
Zn73 O81 1.906 . S
Zn73 O91 1.953 1_655 S
Zn74 O71 1.945 . S
Zn74 O76 1.932 . S
Zn74 O83 1.977 1_455 S
Zn74 O84 1.910 . S
O75 Zn72 1.933 . S
O75 C86 1.226 . S
O76 Zn74 1.932 . S
O76 C86 1.307 . S
O77 Zn70 1.919 . S
O77 C88 1.253 . S
O78 Zn72 1.941 . S
O78 C88 1.283 . S
O79 Zn72 1.965 1_655 S
O79 C87 1.303 . S
O80 Zn73 1.938 . S
O80 C87 1.247 . S
O81 Zn73 1.906 . S
O81 C89 1.304 . S
O82 Zn70 1.924 . S
O82 C90 1.311 . S
O83 Zn74 1.977 1_655 S
O83 C89 1.272 . S
O84 Zn74 1.910 . S
O84 C90 1.231 . S
C85 O69 1.225 . S
C85 O91 1.298 . S
C86 O75 1.226 . S
C86 O76 1.307 . S
C87 O79 1.303 . S
C87 O80 1.247 . S
C88 O77 1.253 . S
C88 O78 1.283 . S
C89 O81 1.304 . S
C89 O83 1.272 . S
C90 O82 1.311 . S
C90 O84 1.231 . S
O91 Zn73 1.953 1_455 S
O91 C85 1.298 . S
O92 Zn93 1.953 . S
O92 C108 1.225 . S
Zn93 O92 1.953 . S
Zn93 O94 1.949 . S
Zn93 O100 1.919 . S
Zn93 O105 1.924 . S
O94 Zn93 1.949 . S
O94 Zn95 1.923 . S
O94 Zn96 1.950 . S
O94 Zn97 1.945 . S
Zn95 O94 1.923 . S
Zn95 O98 1.933 . S
Zn95 O101 1.941 . S
Zn95 O102 1.965 . S
Zn96 O94 1.950 . S
Zn96 O103 1.938 . S
Zn96 O104 1.906 . S
Zn96 O114 1.953 . S
Zn97 O94 1.945 . S
Zn97 O99 1.932 . S
Zn97 O106 1.977 . S
Zn97 O107 1.910 . S
O98 Zn95 1.933 . S
O98 C109 1.226 . S
O99 Zn97 1.932 . S
O99 C109 1.307 . S
O100 Zn93 1.919 . S
O100 C111 1.253 . S
O101 Zn95 1.941 . S
O101 C111 1.283 . S
O102 Zn95 1.965 . S
O102 C110 1.303 . S
O103 Zn96 1.938 . S
O103 C110 1.247 . S
O104 Zn96 1.906 . S
O104 C112 1.304 . S
O105 Zn93 1.924 . S
O105 C113 1.311 . S
O106 Zn97 1.977 . S
O106 C112 1.272 . S
O107 Zn97 1.910 . S
O107 C113 1.231 . S
C108 O92 1.225 . S
C108 O114 1.298 . S
C109 O98 1.226 . S
C109 O99 1.307 . S
C110 O102 1.303 . S
C110 O103 1.247 . S
C111 O100 1.253 . S
C111 O101 1.283 . S
C112 O104 1.304 . S
C112 O106 1.272 . S
C113 O105 1.311 . S
C113 O107 1.231 . S
O114 Zn96 1.953 . S
O114 C108 1.298 . S
O115 Zn116 1.953 . S
O115 C131 1.225 1_565 S
Zn116 O115 1.953 . S
Zn116 O117 1.949 1_565 S
Zn116 O123 1.919 . S
Zn116 O128 1.924 . S
O117 Zn116 1.949 1_545 S
O117 Zn118 1.923 . S
O117 Zn119 1.950 . S
O117 Zn120 1.945 . S
Zn118 O117 1.923 . S
Zn118 O121 1.933 . S
Zn118 O124 1.948 . S
Zn118 O125 1.965 . S
Zn119 O117 1.950 . S
Zn119 O126 1.938 . S
Zn119 O127 1.906 . S
Zn119 O137 1.953 . S
Zn120 O117 1.945 . S
Zn120 O122 1.932 . S
Zn120 O129 1.977 . S
Zn120 O130 1.910 1_545 S
O121 Zn118 1.933 . S
O121 C132 1.226 . S
O122 Zn120 1.932 . S
O122 C132 1.307 . S
O123 Zn116 1.919 . S
O123 C134 1.253 . S
O124 Zn118 1.948 . S
O124 C134 1.265 1_545 S
O125 Zn118 1.965 . S
O125 C133 1.303 . S
O126 Zn119 1.938 . S
O126 C133 1.247 . S
O127 Zn119 1.906 . S
O127 C135 1.304 . S
O128 Zn116 1.924 . S
O128 C136 1.311 . S
O129 Zn120 1.977 . S
O129 C135 1.272 . S
O130 Zn120 1.910 1_565 S
O130 C136 1.231 . S
C131 O115 1.225 1_545 S
C131 O137 1.298 . S
C132 O121 1.226 . S
C132 O122 1.307 . S
C133 O125 1.303 . S
C133 O126 1.247 . S
C134 O123 1.253 . S
C134 O124 1.265 1_565 S
C135 O127 1.304 . S
C135 O129 1.272 . S
C136 O128 1.311 . S
C136 O130 1.231 . S
O137 Zn119 1.953 . S
O137 C131 1.298 . S
O138 Zn139 1.953 1_554 S
O138 C154 1.225 . S
Zn139 O138 1.953 1_556 S
Zn139 O140 1.949 . S
Zn139 O146 1.919 . S
Zn139 O151 1.924 . S
O140 Zn139 1.949 . S
O140 Zn141 1.923 . S
O140 Zn142 1.950 . S
O140 Zn143 1.945 . S
Zn141 O140 1.923 . S
Zn141 O144 1.933 . S
Zn141 O147 1.941 . S
Zn141 O148 1.965 . S
Zn142 O140 1.950 . S
Zn142 O149 1.938 . S
Zn142 O150 1.906 . S
Zn142 O160 1.953 1_556 S
Zn143 O140 1.945 . S
Zn143 O145 1.932 . S
Zn143 O152 1.977 . S
Zn143 O153 1.910 . S
O144 Zn141 1.933 . S
O144 C155 1.226 . S
O145 Zn143 1.932 . S
O145 C155 1.307 . S
O146 Zn139 1.919 . S
O146 C157 1.253 . S
O147 Zn141 1.941 . S
O147 C157 1.283 . S
O148 Zn141 1.965 . S
O148 C156 1.303 . S
O149 Zn142 1.938 . S
O149 C156 1.247 . S
O150 Zn142 1.906 . S
O150 C158 1.304 . S
O151 Zn139 1.924 . S
O151 C159 1.311 . S
O152 Zn143 1.977 . S
O152 C158 1.272 . S
O153 Zn143 1.910 . S
O153 C159 1.231 . S
C154 O138 1.225 . S
C154 O160 1.298 . S
C155 O144 1.226 . S
C155 O145 1.307 . S
C156 O148 1.303 . S
C156 O149 1.247 . S
C157 O146 1.253 . S
C157 O147 1.283 . S
C158 O150 1.304 . S
C158 O152 1.272 . S
C159 O151 1.311 . S
C159 O153 1.231 . S
O160 Zn142 1.953 1_554 S
O160 C154 1.298 . S
O161 Zn162 1.953 1_554 S
O161 C177 1.225 . S
Zn162 O161 1.953 1_556 S
Zn162 O163 1.949 . S
Zn162 O169 1.919 . S
Zn162 O174 1.924 . S
O163 Zn162 1.949 . S
O163 Zn164 1.923 . S
O163 Zn165 1.950 . S
O163 Zn166 1.945 . S
Zn164 O163 1.923 . S
Zn164 O167 1.933 . S
Zn164 O170 1.941 . S
Zn164 O171 1.965 . S
Zn165 O163 1.950 . S
Zn165 O172 1.938 . S
Zn165 O173 1.906 . S
Zn165 O183 1.953 1_556 S
Zn166 O163 1.945 . S
Zn166 O168 1.932 . S
Zn166 O175 1.977 . S
Zn166 O176 1.910 . S
O167 Zn164 1.933 . S
O167 C178 1.226 . S
O168 Zn166 1.932 . S
O168 C178 1.307 . S
O169 Zn162 1.919 . S
O169 C180 1.253 . S
O170 Zn164 1.941 . S
O170 C180 1.283 . S
O171 Zn164 1.965 . S
O171 C179 1.303 . S
O172 Zn165 1.938 . S
O172 C179 1.247 . S
O173 Zn165 1.906 . S
O173 C181 1.304 . S
O174 Zn162 1.924 . S
O174 C182 1.311 . S
O175 Zn166 1.977 . S
O175 C181 1.272 . S
O176 Zn166 1.910 . S
O176 C182 1.231 . S
C177 O161 1.225 . S
C177 O183 1.298 . S
C178 O167 1.226 . S
C178 O168 1.307 . S
C179 O171 1.303 . S
C179 O172 1.247 . S
C180 O169 1.253 . S
C180 O170 1.283 . S
C181 O173 1.304 . S
C181 O175 1.272 . S
C182 O174 1.311 . S
C182 O176 1.231 . S
O183 Zn165 1.953 1_554 S
O183 C177 1.298 . S
O184 Zn185 1.953 1_554 S
O184 C200 1.225 . S
Zn185 O184 1.953 1_556 S
Zn185 O186 1.949 . S
Zn185 O192 1.919 . S
Zn185 O197 1.924 . S
O186 Zn185 1.949 . S
O186 Zn187 1.923 . S
O186 Zn188 1.950 . S
O186 Zn189 1.945 . S
Zn187 O186 1.923 . S
Zn187 O190 1.933 . S
Zn187 O193 1.941 . S
Zn187 O194 1.965 . S
Zn188 O186 1.950 . S
Zn188 O195 1.938 . S
Zn188 O196 1.906 . S
Zn188 O206 1.953 1_556 S
Zn189 O186 1.945 . S
Zn189 O191 1.932 . S
Zn189 O198 1.977 . S
Zn189 O199 1.910 . S
O190 Zn187 1.933 . S
O190 C201 1.226 . S
O191 Zn189 1.932 . S
O191 C201 1.307 . S
O192 Zn185 1.919 . S
O192 C203 1.253 . S
O193 Zn187 1.941 . S
O193 C203 1.283 . S
O194 Zn187 1.965 . S
O194 C202 1.303 . S
O195 Zn188 1.938 . S
O195 C202 1.247 . S
O196 Zn188 1.906 . S
O196 C204 1.304 . S
O197 Zn185 1.924 . S
O197 C205 1.311 . S
O198 Zn189 1.977 . S
O198 C204 1.272 . S
O199 Zn189 1.910 . S
O199 C205 1.231 . S
C200 O184 1.225 . S
C200 O206 1.298 . S
C201 O190 1.226 . S
C201 O191 1.307 . S
C202 O194 1.303 . S
C202 O195 1.247 . S
C203 O192 1.253 . S
C203 O193 1.283 . S
C204 O196 1.304 . S
C204 O198 1.272 . S
C205 O197 1.311 . S
C205 O199 1.231 . S
O206 Zn188 1.953 1_554 S
O206 C200 1.298 . S
O207 Zn208 1.953 . S
O207 C223 1.225 1_556 S
Zn208 O207 1.953 . S
Zn208 O209 1.949 . S
Zn208 O215 1.919 . S
Zn208 O220 1.924 . S
O209 Zn208 1.949 . S
O209 Zn210 1.923 . S
O209 Zn211 1.950 . S
O209 Zn212 1.945 . S
Zn210 O209 1.923 . S
Zn210 O213 1.933 . S
Zn210 O216 1.941 . S
Zn210 O217 1.965 . S
Zn211 O209 1.950 . S
Zn211 O218 1.938 . S
Zn211 O219 1.906 . S
Zn211 O229 1.953 1_556 S
Zn212 O209 1.945 . S
Zn212 O214 1.932 . S
Zn212 O221 1.977 . S
Zn212 O222 1.910 . S
O213 Zn210 1.933 . S
O213 C224 1.226 . S
O214 Zn212 1.932 . S
O214 C224 1.307 . S
O215 Zn208 1.919 . S
O215 C226 1.253 . S
O216 Zn210 1.941 . S
O216 C226 1.283 . S
O217 Zn210 1.965 . S
O217 C225 1.303 . S
O218 Zn211 1.938 . S
O218 C225 1.247 . S
O219 Zn211 1.906 . S
O219 C227 1.304 . S
O220 Zn208 1.924 . S
O220 C228 1.311 . S
O221 Zn212 1.977 . S
O221 C227 1.272 . S
O222 Zn212 1.910 . S
O222 C228 1.231 . S
C223 O207 1.225 1_554 S
C223 O229 1.298 . S
C224 O213 1.226 . S
C224 O214 1.307 . S
C225 O217 1.303 . S
C225 O218 1.247 . S
C226 O215 1.253 . S
C226 O216 1.283 . S
C227 O219 1.304 . S
C227 O221 1.272 . S
C228 O220 1.311 . S
C228 O222 1.231 . S
O229 Zn211 1.953 1_554 S
O229 C223 1.298 . S
O230 Zn231 1.957 . S
O230 C246 1.223 1_556 S
Zn231 O230 1.957 . S
Zn231 O232 1.949 . S
Zn231 O238 1.919 . S
Zn231 O243 1.924 . S
O232 Zn231 1.949 . S
O232 Zn233 1.923 . S
O232 Zn234 1.950 . S
O232 Zn235 1.945 . S
Zn233 O232 1.923 . S
Zn233 O236 1.933 . S
Zn233 O239 1.941 . S
Zn233 O240 1.965 . S
Zn234 O232 1.950 . S
Zn234 O241 1.938 . S
Zn234 O242 1.906 . S
Zn234 O252 1.953 1_556 S
Zn235 O232 1.945 . S
Zn235 O237 1.932 . S
Zn235 O244 1.977 . S
Zn235 O245 1.910 . S
O236 Zn233 1.933 . S
O236 C247 1.226 . S
O237 Zn235 1.932 . S
O237 C247 1.307 . S
O238 Zn231 1.919 . S
O238 C249 1.253 . S
O239 Zn233 1.941 . S
O239 C249 1.283 . S
O240 Zn233 1.965 . S
O240 C248 1.303 . S
O241 Zn234 1.938 . S
O241 C248 1.247 . S
O242 Zn234 1.906 . S
O242 C250 1.304 . S
O243 Zn231 1.924 . S
O243 C251 1.311 . S
O244 Zn235 1.977 . S
O244 C250 1.272 . S
O245 Zn235 1.910 . S
O245 C251 1.231 . S
C246 O230 1.223 1_554 S
C246 O252 1.298 . S
C247 O236 1.226 . S
C247 O237 1.307 . S
C248 O240 1.303 . S
C248 O241 1.247 . S
C249 O238 1.253 . S
C249 O239 1.283 . S
C250 O242 1.304 . S
C250 O244 1.272 . S
C251 O243 1.311 . S
C251 O245 1.231 . S
O252 Zn234 1.953 1_554 S
O252 C246 1.298 . S
O253 Zn254 1.953 . S
O253 C269 1.225 1_556 S
Zn254 O253 1.953 . S
Zn254 O255 1.949 . S
Zn254 O261 1.919 . S
Zn254 O266 1.924 . S
O255 Zn254 1.949 . S
O255 Zn256 1.923 . S
O255 Zn257 1.950 . S
O255 Zn258 1.945 . S
Zn256 O255 1.923 . S
Zn256 O259 1.933 . S
Zn256 O262 1.941 . S
Zn256 O263 1.965 . S
Zn257 O255 1.950 . S
Zn257 O264 1.938 . S
Zn257 O265 1.906 . S
Zn257 O275 1.953 1_556 S
Zn258 O255 1.945 . S
Zn258 O260 1.932 . S
Zn258 O267 1.977 . S
Zn258 O268 1.910 . S
O259 Zn256 1.933 . S
O259 C270 1.226 . S
O260 Zn258 1.932 . S
O260 C270 1.307 . S
O261 Zn254 1.919 . S
O261 C272 1.253 . S
O262 Zn256 1.941 . S
O262 C272 1.283 . S
O263 Zn256 1.965 . S
O263 C271 1.303 . S
O264 Zn257 1.938 . S
O264 C271 1.247 . S
O265 Zn257 1.906 . S
O265 C273 1.304 . S
O266 Zn254 1.924 . S
O266 C274 1.311 . S
O267 Zn258 1.977 . S
O267 C273 1.272 . S
O268 Zn258 1.910 . S
O268 C274 1.231 . S
C269 O253 1.225 1_554 S
C269 O275 1.298 . S
C270 O259 1.226 . S
C270 O260 1.307 . S
C271 O263 1.303 . S
C271 O264 1.247 . S
C272 O261 1.253 . S
C272 O262 1.283 . S
C273 O265 1.304 . S
C273 O267 1.272 . S
C274 O266 1.311 . S
C274 O268 1.231 . S
O275 Zn257 1.953 1_554 S
O275 C269 1.298 . S
O276 Zn277 1.953 1_556 S
O276 C292 1.225 . S
Zn277 O276 1.953 1_554 S
Zn277 O278 1.949 . S
Zn277 O284 1.919 . S
Zn277 O289 1.924 . S
O278 Zn277 1.949 . S
O278 Zn279 1.923 . S
O278 Zn280 1.950 . S
O278 Zn281 1.945 . S
Zn279 O278 1.923 . S
Zn279 O282 1.933 . S
Zn279 O285 1.941 . S
Zn279 O286 1.965 . S
Zn280 O278 1.950 . S
Zn280 O287 1.938 . S
Zn280 O288 1.906 . S
Zn280 O298 1.953 1_554 S
Zn281 O278 1.945 . S
Zn281 O283 1.932 . S
Zn281 O290 1.977 . S
Zn281 O291 1.910 . S
O282 Zn279 1.933 . S
O282 C293 1.226 . S
O283 Zn281 1.932 . S
O283 C293 1.307 . S
O284 Zn277 1.919 . S
O284 C295 1.253 . S
O285 Zn279 1.941 . S
O285 C295 1.283 . S
O286 Zn279 1.965 . S
O286 C294 1.303 . S
O287 Zn280 1.938 . S
O287 C294 1.247 . S
O288 Zn280 1.906 . S
O288 C296 1.304 . S
O289 Zn277 1.924 . S
O289 C297 1.311 . S
O290 Zn281 1.977 . S
O290 C296 1.272 . S
O291 Zn281 1.910 . S
O291 C297 1.231 . S
C292 O276 1.225 . S
C292 O298 1.298 . S
C293 O282 1.226 . S
C293 O283 1.307 . S
C294 O286 1.303 . S
C294 O287 1.247 . S
C295 O284 1.253 . S
C295 O285 1.283 . S
C296 O288 1.304 . S
C296 O290 1.272 . S
C297 O289 1.311 . S
C297 O291 1.231 . S
O298 Zn280 1.953 1_556 S
O298 C292 1.298 . S
O299 Zn300 1.953 . S
O299 C315 1.225 . S
Zn300 O299 1.953 . S
Zn300 O301 1.949 . S
Zn300 O307 1.919 . S
Zn300 O312 1.924 . S
O301 Zn300 1.949 . S
O301 Zn302 1.923 . S
O301 Zn303 1.950 . S
O301 Zn304 1.945 . S
Zn302 O301 1.923 . S
Zn302 O305 1.933 1_554 S
Zn302 O308 1.941 . S
Zn302 O309 1.965 . S
Zn303 O301 1.950 . S
Zn303 O310 1.938 . S
Zn303 O311 1.906 . S
Zn303 O321 1.953 . S
Zn304 O301 1.945 . S
Zn304 O306 1.932 1_554 S
Zn304 O313 1.977 . S
Zn304 O314 1.910 . S
O305 Zn302 1.933 1_556 S
O305 C316 1.226 . S
O306 Zn304 1.932 1_556 S
O306 C316 1.307 . S
O307 Zn300 1.919 . S
O307 C318 1.253 . S
O308 Zn302 1.941 . S
O308 C318 1.283 . S
O309 Zn302 1.965 . S
O309 C317 1.303 . S
O310 Zn303 1.938 . S
O310 C317 1.247 . S
O311 Zn303 1.906 . S
O311 C319 1.304 . S
O312 Zn300 1.924 . S
O312 C320 1.311 . S
O313 Zn304 1.977 . S
O313 C319 1.272 . S
O314 Zn304 1.910 . S
O314 C320 1.231 . S
C315 O299 1.225 . S
C315 O321 1.298 . S
C316 O305 1.226 . S
C316 O306 1.307 . S
C317 O309 1.303 . S
C317 O310 1.247 . S
C318 O307 1.253 . S
C318 O308 1.283 . S
C319 O311 1.304 . S
C319 O313 1.272 . S
C320 O312 1.311 . S
C320 O314 1.231 . S
O321 Zn303 1.953 . S
O321 C315 1.298 . S
O322 Zn323 1.953 1_556 S
O322 C338 1.225 . S
Zn323 O322 1.953 1_554 S
Zn323 O324 1.949 . S
Zn323 O330 1.919 . S
Zn323 O335 1.924 . S
O324 Zn323 1.949 . S
O324 Zn325 1.923 . S
O324 Zn326 1.950 . S
O324 Zn327 1.945 . S
Zn325 O324 1.923 . S
Zn325 O328 1.933 . S
Zn325 O331 1.941 . S
Zn325 O332 1.965 . S
Zn326 O324 1.950 . S
Zn326 O333 1.938 . S
Zn326 O334 1.906 . S
Zn326 O344 1.953 1_554 S
Zn327 O324 1.945 . S
Zn327 O329 1.932 . S
Zn327 O336 1.977 . S
Zn327 O337 1.910 . S
O328 Zn325 1.933 . S
O328 C339 1.226 . S
O329 Zn327 1.932 . S
O329 C339 1.307 . S
O330 Zn323 1.919 . S
O330 C341 1.253 . S
O331 Zn325 1.941 . S
O331 C341 1.283 . S
O332 Zn325 1.965 . S
O332 C340 1.303 . S
O333 Zn326 1.938 . S
O333 C340 1.247 . S
O334 Zn326 1.906 . S
O334 C342 1.304 . S
O335 Zn323 1.924 . S
O335 C343 1.311 . S
O336 Zn327 1.977 . S
O336 C342 1.272 . S
O337 Zn327 1.910 . S
O337 C343 1.231 . S
C338 O322 1.225 . S
C338 O344 1.298 . S
C339 O328 1.226 . S
C339 O329 1.307 . S
C340 O332 1.303 . S
C340 O333 1.247 . S
C341 O330 1.253 . S
C341 O331 1.283 . S
C342 O334 1.304 . S
C342 O336 1.272 . S
C343 O335 1.311 . S
C343 O337 1.231 . S
O344 Zn326 1.953 1_556 S
O344 C338 1.298 . S
O345 Zn346 1.953 . S
O345 C361 1.225 . S
Zn346 O345 1.953 . S
Zn346 O347 1.949 . S
Zn346 O353 1.919 . S
Zn346 O358 1.924 . S
O347 Zn346 1.949 . S
O347 Zn348 1.923 . S
O347 Zn349 1.950 . S
O347 Zn350 1.945 . S
Zn348 O347 1.923 . S
Zn348 O351 1.933 1_554 S
Zn348 O354 1.941 . S
Zn348 O355 1.965 . S
Zn349 O347 1.950 . S
Zn349 O356 1.938 . S
Zn349 O357 1.906 . S
Zn349 O367 1.953 . S
Zn350 O347 1.945 . S
Zn350 O352 1.932 1_554 S
Zn350 O359 1.977 . S
Zn350 O360 1.910 . S
O351 Zn348 1.933 1_556 S
O351 C362 1.226 . S
O352 Zn350 1.932 1_556 S
O352 C362 1.307 . S
O353 Zn346 1.919 . S
O353 C364 1.253 . S
O354 Zn348 1.941 . S
O354 C364 1.283 . S
O355 Zn348 1.965 . S
O355 C363 1.303 . S
O356 Zn349 1.938 . S
O356 C363 1.247 . S
O357 Zn349 1.906 . S
O357 C365 1.304 . S
O358 Zn346 1.924 . S
O358 C366 1.311 . S
O359 Zn350 1.977 . S
O359 C365 1.272 . S
O360 Zn350 1.910 . S
O360 C366 1.231 . S
C361 O345 1.225 . S
C361 O367 1.298 . S
C362 O351 1.226 . S
C362 O352 1.307 . S
C363 O355 1.303 . S
C363 O356 1.247 . S
C364 O353 1.253 . S
C364 O354 1.283 . S
C365 O357 1.304 . S
C365 O359 1.272 . S
C366 O358 1.311 . S
C366 O360 1.231 . S
O367 Zn349 1.953 . S
O367 C361 1.298 . S
O368 Zn369 1.953 . S
O368 C384 1.225 1_554 S
Zn369 O368 1.953 . S
Zn369 O370 1.949 . S
Zn369 O376 1.919 . S
Zn369 O381 1.924 . S
O370 Zn369 1.949 . S
O370 Zn371 1.923 . S
O370 Zn372 1.950 . S
O370 Zn373 1.945 . S
Zn371 O370 1.923 . S
Zn371 O374 1.933 . S
Zn371 O377 1.941 . S
Zn371 O378 1.965 . S
Zn372 O370 1.950 . S
Zn372 O379 1.938 . S
Zn372 O380 1.906 . S
Zn372 O390 1.953 1_554 S
Zn373 O370 1.945 . S
Zn373 O375 1.932 . S
Zn373 O382 1.977 . S
Zn373 O383 1.910 . S
O374 Zn371 1.933 . S
O374 C385 1.226 . S
O375 Zn373 1.932 . S
O375 C385 1.307 . S
O376 Zn369 1.919 . S
O376 C387 1.253 . S
O377 Zn371 1.941 . S
O377 C387 1.283 . S
O378 Zn371 1.965 . S
O378 C386 1.303 . S
O379 Zn372 1.938 . S
O379 C386 1.247 . S
O380 Zn372 1.906 . S
O380 C388 1.304 . S
O381 Zn369 1.924 . S
O381 C389 1.311 . S
O382 Zn373 1.977 . S
O382 C388 1.272 . S
O383 Zn373 1.910 . S
O383 C389 1.231 . S
C384 O368 1.225 1_556 S
C384 O390 1.298 . S
C385 O374 1.226 . S
C385 O375 1.307 . S
C386 O378 1.303 . S
C386 O379 1.247 . S
C387 O376 1.253 . S
C387 O377 1.283 . S
C388 O380 1.304 . S
C388 O382 1.272 . S
C389 O381 1.311 . S
C389 O383 1.231 . S
O390 Zn372 1.953 1_556 S
O390 C384 1.298 . S
O391 Zn392 1.953 . S
O391 C407 1.225 . S
Zn392 O391 1.953 . S
Zn392 O393 1.949 . S
Zn392 O399 1.919 . S
Zn392 O404 1.924 . S
O393 Zn392 1.949 . S
O393 Zn394 1.923 . S
O393 Zn395 1.950 . S
O393 Zn396 1.945 . S
Zn394 O393 1.923 . S
Zn394 O397 1.933 1_554 S
Zn394 O400 1.941 . S
Zn394 O401 1.965 . S
Zn395 O393 1.950 . S
Zn395 O402 1.938 . S
Zn395 O403 1.906 . S
Zn395 O413 1.953 . S
Zn396 O393 1.945 . S
Zn396 O398 1.932 1_554 S
Zn396 O405 1.977 . S
Zn396 O406 1.910 . S
O397 Zn394 1.933 1_556 S
O397 C408 1.226 . S
O398 Zn396 1.932 1_556 S
O398 C408 1.307 . S
O399 Zn392 1.919 . S
O399 C410 1.253 . S
O400 Zn394 1.941 . S
O400 C410 1.283 . S
O401 Zn394 1.965 . S
O401 C409 1.303 . S
O402 Zn395 1.938 . S
O402 C409 1.247 . S
O403 Zn395 1.906 . S
O403 C411 1.304 . S
O404 Zn392 1.924 . S
O404 C412 1.311 . S
O405 Zn396 1.977 . S
O405 C411 1.272 . S
O406 Zn396 1.910 . S
O406 C412 1.231 . S
C407 O391 1.225 . S
C407 O413 1.298 . S
C408 O397 1.226 . S
C408 O398 1.307 . S
C409 O401 1.303 . S
C409 O402 1.247 . S
C410 O399 1.253 . S
C410 O400 1.283 . S
C411 O403 1.304 . S
C411 O405 1.272 . S
C412 O404 1.311 . S
C412 O406 1.231 . S
O413 Zn395 1.953 . S
O413 C407 1.298 . S
H414 C420 0.930 . S
H415 C424 0.930 . S
H416 C429 0.929 . S
H417 C427 0.929 . S
H418 C422 0.929 . S
H419 C428 0.929 . S
C420 H414 0.930 . S
C420 C421 1.367 . S
C420 C428 1.378 . S
C421 C420 1.367 . S
C421 C429 1.433 . S
C422 H418 0.929 . S
C422 C424 1.378 . S
C422 C426 1.350 . S
C423 C426 1.463 . S
C423 C428 1.350 . S
C423 N431 1.427 . S
C424 H415 0.930 . S
C424 C422 1.378 . S
C424 C425 1.367 . S
C425 C424 1.367 . S
C425 C427 1.433 . S
C426 C422 1.350 . S
C426 C423 1.463 . S
C426 N430 1.427 . S
C427 H417 0.929 . S
C427 C425 1.433 . S
C427 N430 1.384 . S
C428 H419 0.929 . S
C428 C420 1.378 . S
C428 C423 1.350 . S
C429 H416 0.929 . S
C429 C421 1.433 . S
C429 N431 1.384 . S
N430 C426 1.427 . S
N430 C427 1.384 . S
N431 C423 1.427 . S
N431 C429 1.384 . S
H432 C438 0.930 . S
H433 C442 0.930 . S
H434 C447 0.929 . S
H435 C445 0.929 . S
H436 C440 0.929 . S
H437 C446 0.929 . S
C438 H432 0.930 . S
C438 C439 1.367 . S
C438 C446 1.378 . S
C439 C438 1.367 . S
C439 C447 1.433 . S
C440 H436 0.929 . S
C440 C442 1.378 . S
C440 C444 1.350 . S
C441 C444 1.463 . S
C441 C446 1.350 . S
C441 N449 1.427 . S
C442 H433 0.930 . S
C442 C440 1.378 . S
C442 C443 1.367 . S
C443 C442 1.367 . S
C443 C445 1.433 . S
C444 C440 1.350 . S
C444 C441 1.463 . S
C444 N448 1.427 . S
C445 H435 0.929 . S
C445 C443 1.433 . S
C445 N448 1.384 . S
C446 H437 0.929 . S
C446 C438 1.378 . S
C446 C441 1.350 . S
C447 H434 0.929 . S
C447 C439 1.433 . S
C447 N449 1.384 . S
N448 C444 1.427 . S
N448 C445 1.384 . S
N449 C441 1.427 . S
N449 C447 1.384 . S
H450 C456 0.930 . S
H451 C460 0.930 . S
H452 C465 0.929 . S
H453 C463 0.929 . S
H454 C458 0.929 . S
H455 C464 0.929 . S
C456 H450 0.930 . S
C456 C457 1.367 . S
C456 C464 1.378 . S
C457 C456 1.367 . S
C457 C465 1.433 . S
C458 H454 0.929 . S
C458 C460 1.378 . S
C458 C462 1.350 . S
C459 C462 1.463 . S
C459 C464 1.350 . S
C459 N467 1.427 . S
C460 H451 0.930 . S
C460 C458 1.378 . S
C460 C461 1.367 . S
C461 C460 1.367 . S
C461 C463 1.433 . S
C462 C458 1.350 . S
C462 C459 1.463 . S
C462 N466 1.427 . S
C463 H453 0.929 . S
C463 C461 1.433 . S
C463 N466 1.384 . S
C464 H455 0.929 . S
C464 C456 1.378 . S
C464 C459 1.350 . S
C465 H452 0.929 . S
C465 C457 1.433 . S
C465 N467 1.384 . S
N466 C462 1.427 . S
N466 C463 1.384 . S
N467 C459 1.427 . S
N467 C465 1.384 . S
H468 C474 0.930 . S
H469 C478 0.930 . S
H470 C483 0.929 . S
H471 C481 0.929 . S
H472 C476 0.929 . S
H473 C482 0.929 . S
C474 H468 0.930 . S
C474 C475 1.367 . S
C474 C482 1.378 . S
C475 C474 1.367 . S
C475 C483 1.433 . S
C476 H472 0.929 . S
C476 C478 1.378 . S
C476 C480 1.350 . S
C477 C480 1.463 . S
C477 C482 1.350 . S
C477 N485 1.427 . S
C478 H469 0.930 . S
C478 C476 1.378 . S
C478 C479 1.367 . S
C479 C478 1.367 . S
C479 C481 1.433 . S
C480 C476 1.350 . S
C480 C477 1.463 . S
C480 N484 1.427 . S
C481 H471 0.929 . S
C481 C479 1.433 . S
C481 N484 1.384 . S
C482 H473 0.929 . S
C482 C474 1.378 . S
C482 C477 1.350 . S
C483 H470 0.929 . S
C483 C475 1.433 . S
C483 N485 1.384 . S
N484 C480 1.427 . S
N484 C481 1.384 . S
N485 C477 1.427 . S
N485 C483 1.384 . S
H486 C492 0.930 . S
H487 C496 0.930 . S
H488 C501 0.929 . S
H489 C499 0.929 . S
H490 C494 0.929 . S
H491 C500 0.929 . S
C492 H486 0.930 . S
C492 C493 1.367 . S
C492 C500 1.378 . S
C493 C492 1.367 . S
C493 C501 1.433 . S
C494 H490 0.929 . S
C494 C496 1.378 . S
C494 C498 1.350 . S
C495 C498 1.463 . S
C495 C500 1.350 . S
C495 N503 1.427 . S
C496 H487 0.930 . S
C496 C494 1.378 . S
C496 C497 1.367 . S
C497 C496 1.367 . S
C497 C499 1.433 . S
C498 C494 1.350 . S
C498 C495 1.463 . S
C498 N502 1.427 . S
C499 H489 0.929 . S
C499 C497 1.433 . S
C499 N502 1.384 . S
C500 H491 0.929 . S
C500 C492 1.378 . S
C500 C495 1.350 . S
C501 H488 0.929 . S
C501 C493 1.433 . S
C501 N503 1.384 . S
N502 C498 1.427 . S
N502 C499 1.384 . S
N503 C495 1.427 . S
N503 C501 1.384 . S
H504 C510 0.930 . S
H505 C514 0.930 . S
H506 C519 0.929 . S
H507 C517 0.929 . S
H508 C512 0.929 . S
H509 C518 0.929 . S
C510 H504 0.930 . S
C510 C511 1.367 . S
C510 C518 1.378 . S
C511 C510 1.367 . S
C511 C519 1.433 . S
C512 H508 0.929 . S
C512 C514 1.378 . S
C512 C516 1.350 . S
C513 C516 1.463 . S
C513 C518 1.350 . S
C513 N521 1.427 . S
C514 H505 0.930 . S
C514 C512 1.378 . S
C514 C515 1.367 . S
C515 C514 1.367 . S
C515 C517 1.433 . S
C516 C512 1.350 . S
C516 C513 1.463 . S
C516 N520 1.427 . S
C517 H507 0.929 . S
C517 C515 1.433 . S
C517 N520 1.384 . S
C518 H509 0.929 . S
C518 C510 1.378 . S
C518 C513 1.350 . S
C519 H506 0.929 . S
C519 C511 1.433 . S
C519 N521 1.384 . S
N520 C516 1.427 . S
N520 C517 1.384 . S
N521 C513 1.427 . S
N521 C519 1.384 . S
H522 C528 0.930 . S
H523 C532 0.930 . S
H524 C537 0.929 . S
H525 C535 0.929 . S
H526 C530 0.929 . S
H527 C536 0.929 . S
C528 H522 0.930 . S
C528 C529 1.367 . S
C528 C536 1.378 . S
C529 C528 1.367 . S
C529 C537 1.433 . S
C530 H526 0.929 . S
C530 C532 1.378 . S
C530 C534 1.350 . S
C531 C534 1.463 . S
C531 C536 1.350 . S
C531 N539 1.427 . S
C532 H523 0.930 . S
C532 C530 1.378 . S
C532 C533 1.367 . S
C533 C532 1.367 . S
C533 C535 1.433 . S
C534 C530 1.350 . S
C534 C531 1.463 . S
C534 N538 1.427 . S
C535 H525 0.929 . S
C535 C533 1.433 . S
C535 N538 1.384 . S
C536 H527 0.929 . S
C536 C528 1.378 . S
C536 C531 1.350 . S
C537 H524 0.929 . S
C537 C529 1.433 . S
C537 N539 1.384 . S
N538 C534 1.427 . S
N538 C535 1.384 . S
N539 C531 1.427 . S
N539 C537 1.384 . S
H540 C546 0.930 . S
H541 C550 0.930 . S
H542 C555 0.929 . S
H543 C553 0.929 . S
H544 C548 0.929 . S
H545 C554 0.929 . S
C546 H540 0.930 . S
C546 C547 1.367 . S
C546 C554 1.378 . S
C547 C546 1.367 . S
C547 C555 1.433 . S
C548 H544 0.929 . S
C548 C550 1.378 . S
C548 C552 1.350 . S
C549 C552 1.463 . S
C549 C554 1.350 . S
C549 N557 1.427 . S
C550 H541 0.930 . S
C550 C548 1.378 . S
C550 C551 1.367 . S
C551 C550 1.367 . S
C551 C553 1.433 . S
C552 C548 1.350 . S
C552 C549 1.463 . S
C552 N556 1.427 . S
C553 H543 0.929 . S
C553 C551 1.433 . S
C553 N556 1.384 . S
C554 H545 0.929 . S
C554 C546 1.378 . S
C554 C549 1.350 . S
C555 H542 0.929 . S
C555 C547 1.433 . S
C555 N557 1.384 . S
N556 C552 1.427 . S
N556 C553 1.384 . S
N557 C549 1.427 . S
N557 C555 1.384 . S
H558 C564 0.930 . S
H559 C568 0.930 . S
H560 C573 0.929 . S
H561 C571 0.929 . S
H562 C566 0.929 . S
H563 C572 0.929 . S
C564 H558 0.930 . S
C564 C565 1.367 . S
C564 C572 1.378 . S
C565 C564 1.367 . S
C565 C573 1.433 . S
C566 H562 0.929 . S
C566 C568 1.378 . S
C566 C570 1.350 . S
C567 C570 1.463 . S
C567 C572 1.350 . S
C567 N575 1.427 . S
C568 H559 0.930 . S
C568 C566 1.378 . S
C568 C569 1.367 . S
C569 C568 1.367 . S
C569 C571 1.433 . S
C570 C566 1.350 . S
C570 C567 1.463 . S
C570 N574 1.427 . S
C571 H561 0.929 . S
C571 C569 1.433 . S
C571 N574 1.384 . S
C572 H563 0.929 . S
C572 C564 1.378 . S
C572 C567 1.350 . S
C573 H560 0.929 . S
C573 C565 1.433 . S
C573 N575 1.384 . S
N574 C570 1.427 . S
N574 C571 1.384 . S
N575 C567 1.427 . S
N575 C573 1.384 . S
H576 C582 0.930 . S
H577 C586 0.930 . S
H578 C591 0.929 . S
H579 C589 0.929 . S
H580 C584 0.929 . S
H581 C590 0.929 . S
C582 H576 0.930 . S
C582 C583 1.367 . S
C582 C590 1.378 . S
C583 C582 1.367 . S
C583 C591 1.433 . S
C584 H580 0.929 . S
C584 C586 1.378 . S
C584 C588 1.350 . S
C585 C588 1.463 . S
C585 C590 1.350 . S
C585 N593 1.427 . S
C586 H577 0.930 . S
C586 C584 1.378 . S
C586 C587 1.367 . S
C587 C586 1.367 . S
C587 C589 1.433 . S
C588 C584 1.350 . S
C588 C585 1.463 . S
C588 N592 1.427 . S
C589 H579 0.929 . S
C589 C587 1.433 . S
C589 N592 1.384 . S
C590 H581 0.929 . S
C590 C582 1.378 . S
C590 C585 1.350 . S
C591 H578 0.929 . S
C591 C583 1.433 . S
C591 N593 1.384 . S
N592 C588 1.427 . S
N592 C589 1.384 . S
N593 C585 1.427 . S
N593 C591 1.384 . S
H594 C600 0.930 . S
H595 C604 0.930 . S
H596 C609 0.929 . S
H597 C607 0.929 . S
H598 C602 0.929 . S
H599 C608 0.929 . S
C600 H594 0.930 . S
C600 C601 1.367 . S
C600 C608 1.378 . S
C601 C600 1.367 . S
C601 C609 1.433 . S
C602 H598 0.929 . S
C602 C604 1.378 . S
C602 C606 1.350 . S
C603 C606 1.463 . S
C603 C608 1.350 . S
C603 N611 1.427 . S
C604 H595 0.930 . S
C604 C602 1.378 . S
C604 C605 1.367 . S
C605 C604 1.367 . S
C605 C607 1.433 . S
C606 C602 1.350 . S
C606 C603 1.463 . S
C606 N610 1.427 . S
C607 H597 0.929 . S
C607 C605 1.433 . S
C607 N610 1.384 . S
C608 H599 0.929 . S
C608 C600 1.378 . S
C608 C603 1.350 . S
C609 H596 0.929 . S
C609 C601 1.433 . S
C609 N611 1.384 . S
N610 C606 1.427 . S
N610 C607 1.384 . S
N611 C603 1.427 . S
N611 C609 1.384 . S
H612 C618 0.930 . S
H613 C622 0.930 . S
H614 C627 0.929 . S
H615 C625 0.929 . S
H616 C620 0.929 . S
H617 C626 0.929 . S
C618 H612 0.930 . S
C618 C619 1.367 . S
C618 C626 1.378 . S
C619 C618 1.367 . S
C619 C627 1.433 . S
C620 H616 0.929 . S
C620 C622 1.378 . S
C620 C624 1.350 . S
C621 C624 1.463 . S
C621 C626 1.350 . S
C621 N629 1.427 . S
C622 H613 0.930 . S
C622 C620 1.378 . S
C622 C623 1.367 . S
C623 C622 1.367 . S
C623 C625 1.433 . S
C624 C620 1.350 . S
C624 C621 1.463 . S
C624 N628 1.427 . S
C625 H615 0.929 . S
C625 C623 1.433 . S
C625 N628 1.384 . S
C626 H617 0.929 . S
C626 C618 1.378 . S
C626 C621 1.350 . S
C627 H614 0.929 . S
C627 C619 1.433 . S
C627 N629 1.384 . S
N628 C624 1.427 . S
N628 C625 1.384 . S
N629 C621 1.427 . S
N629 C627 1.384 . S
H630 C636 0.930 . S
H631 C640 0.930 . S
H632 C645 0.929 . S
H633 C643 0.929 . S
H634 C638 0.929 . S
H635 C644 0.928 1_455 S
C636 H630 0.930 . S
C636 C637 1.367 . S
C636 C644 1.378 . S
C637 C636 1.367 . S
C637 C645 1.433 . S
C638 H634 0.929 . S
C638 C640 1.378 . S
C638 C642 1.350 . S
C639 C642 1.448 1_656 S
C639 C644 1.362 . S
C639 N647 1.428 . S
C640 H631 0.930 . S
C640 C638 1.378 . S
C640 C641 1.367 . S
C641 C640 1.367 . S
C641 C643 1.433 . S
C642 C638 1.350 . S
C642 C639 1.448 1_454 S
C642 N646 1.427 . S
C643 H633 0.929 . S
C643 C641 1.433 . S
C643 N646 1.384 . S
C644 H635 0.928 1_655 S
C644 C636 1.378 . S
C644 C639 1.362 . S
C645 H632 0.929 . S
C645 C637 1.433 . S
C645 N647 1.384 . S
N646 C642 1.427 . S
N646 C643 1.384 . S
N647 C639 1.428 . S
N647 C645 1.384 . S
H648 C654 0.930 . S
H649 C658 0.930 . S
H650 C663 0.929 . S
H651 C661 0.929 . S
H652 C656 0.929 . S
H653 C662 0.929 . S
C654 H648 0.930 . S
C654 C655 1.367 . S
C654 C662 1.378 . S
C655 C654 1.367 . S
C655 C663 1.433 1_556 S
C656 H652 0.929 . S
C656 C658 1.378 . S
C656 C660 1.350 . S
C657 C660 1.463 1_556 S
C657 C662 1.350 . S
C657 N665 1.427 1_556 S
C658 H649 0.930 . S
C658 C656 1.378 . S
C658 C659 1.367 . S
C659 C658 1.367 . S
C659 C661 1.433 1_554 S
C660 C656 1.350 . S
C660 C657 1.463 1_554 S
C660 N664 1.427 1_554 S
C661 H651 0.929 . S
C661 C659 1.433 1_556 S
C661 N664 1.384 . S
C662 H653 0.929 . S
C662 C654 1.378 . S
C662 C657 1.350 . S
C663 H650 0.929 . S
C663 C655 1.433 1_554 S
C663 N665 1.384 . S
N664 C660 1.427 1_556 S
N664 C661 1.384 . S
N665 C657 1.427 1_554 S
N665 C663 1.384 . S
H666 C672 0.930 1_554 S
H667 C676 0.930 1_556 S
H668 C681 0.929 . S
H669 C679 0.929 . S
H670 C674 0.929 . S
H671 C680 0.929 . S
C672 H666 0.930 1_556 S
C672 C673 1.367 . S
C672 C680 1.378 1_556 S
C673 C672 1.367 . S
C673 C681 1.433 . S
C674 H670 0.929 . S
C674 C676 1.378 1_556 S
C674 C678 1.350 1_566 S
C675 C678 1.463 1_556 S
C675 C680 1.350 1_556 S
C675 N683 1.427 . S
C676 H667 0.930 1_554 S
C676 C674 1.378 1_554 S
C676 C677 1.367 . S
C677 C676 1.367 . S
C677 C679 1.433 . S
C678 C674 1.350 1_544 S
C678 C675 1.463 1_554 S
C678 N682 1.427 . S
C679 H669 0.929 . S
C679 C677 1.433 . S
C679 N682 1.384 1_565 S
C680 H671 0.929 . S
C680 C672 1.378 1_554 S
C680 C675 1.350 1_554 S
C681 H668 0.929 . S
C681 C673 1.433 . S
C681 N683 1.384 . S
N682 C678 1.427 . S
N682 C679 1.384 1_545 S
N683 C675 1.427 . S
N683 C681 1.384 . S
H684 C690 0.930 1_554 S
H685 C694 0.930 1_556 S
H686 C699 0.929 . S
H687 C697 0.929 . S
H688 C692 0.929 . S
H689 C698 0.929 . S
C690 H684 0.930 1_556 S
C690 C691 1.367 . S
C690 C698 1.378 1_556 S
C691 C690 1.367 . S
C691 C699 1.433 . S
C692 H688 0.929 . S
C692 C694 1.378 1_556 S
C692 C696 1.350 1_566 S
C693 C696 1.463 1_556 S
C693 C698 1.350 1_556 S
C693 N701 1.427 . S
C694 H685 0.930 1_554 S
C694 C692 1.378 1_554 S
C694 C695 1.367 . S
C695 C694 1.367 . S
C695 C697 1.433 . S
C696 C692 1.350 1_544 S
C696 C693 1.463 1_554 S
C696 N700 1.427 . S
C697 H687 0.929 . S
C697 C695 1.433 . S
C697 N700 1.384 1_565 S
C698 H689 0.929 . S
C698 C690 1.378 1_554 S
C698 C693 1.350 1_554 S
C699 H686 0.929 . S
C699 C691 1.433 . S
C699 N701 1.384 . S
N700 C696 1.427 . S
N700 C697 1.384 1_545 S
N701 C693 1.427 . S
N701 C699 1.384 . S
H702 C708 0.930 . S
H703 C712 0.930 . S
H704 C717 0.929 1_556 S
H705 C715 0.929 1_554 S
H706 C710 0.929 1_455 S
H707 C716 0.929 . S
C708 H702 0.930 . S
C708 C709 1.367 . S
C708 C716 1.378 . S
C709 C708 1.367 . S
C709 C717 1.433 . S
C710 H706 0.929 1_655 S
C710 C712 1.378 . S
C710 C714 1.350 1_655 S
C711 C714 1.463 1_554 S
C711 C716 1.350 . S
C711 N719 1.427 1_554 S
C712 H703 0.930 . S
C712 C710 1.378 . S
C712 C713 1.367 . S
C713 C712 1.367 . S
C713 C715 1.433 . S
C714 C710 1.350 1_455 S
C714 C711 1.463 1_556 S
C714 N718 1.427 1_456 S
C715 H705 0.929 1_556 S
C715 C713 1.433 . S
C715 N718 1.384 1_556 S
C716 H707 0.929 . S
C716 C708 1.378 . S
C716 C711 1.350 . S
C717 H704 0.929 1_554 S
C717 C709 1.433 . S
C717 N719 1.384 1_554 S
N718 C714 1.427 1_654 S
N718 C715 1.384 1_554 S
N719 C711 1.427 1_556 S
N719 C717 1.384 1_556 S
H720 C726 0.930 . S
H721 C730 0.930 . S
H722 C735 0.923 1_556 S
H723 C733 0.924 1_554 S
H724 C728 0.929 . S
H725 C734 0.929 . S
C726 H720 0.930 . S
C726 C727 1.367 . S
C726 C734 1.378 . S
C727 C726 1.367 . S
C727 C735 1.444 . S
C728 H724 0.929 . S
C728 C730 1.378 . S
C728 C732 1.350 . S
C729 C732 1.463 1_554 S
C729 C734 1.350 . S
C729 N737 1.427 1_554 S
C730 H721 0.930 . S
C730 C728 1.378 . S
C730 C731 1.367 . S
C731 C730 1.367 . S
C731 C733 1.443 . S
C732 C728 1.350 . S
C732 C729 1.463 1_556 S
C732 N736 1.427 1_556 S
C733 H723 0.924 1_556 S
C733 C731 1.443 . S
C733 N736 1.380 1_556 S
C734 H725 0.929 . S
C734 C726 1.378 . S
C734 C729 1.350 . S
C735 H722 0.923 1_554 S
C735 C727 1.444 . S
C735 N737 1.380 1_554 S
N736 C732 1.427 1_554 S
N736 C733 1.380 1_554 S
N737 C729 1.427 1_556 S
N737 C735 1.380 1_556 S
H738 C744 0.930 . S
H739 C748 0.930 . S
H740 C753 0.929 . S
H741 C751 0.929 . S
H742 C746 0.929 . S
H743 C752 0.929 . S
C744 H738 0.930 . S
C744 C745 1.367 . S
C744 C752 1.378 . S
C745 C744 1.367 . S
C745 C753 1.433 . S
C746 H742 0.929 . S
C746 C748 1.378 . S
C746 C750 1.350 . S
C747 C750 1.463 . S
C747 C752 1.350 . S
C747 N755 1.427 . S
C748 H739 0.930 . S
C748 C746 1.378 . S
C748 C749 1.367 . S
C749 C748 1.367 . S
C749 C751 1.433 . S
C750 C746 1.350 . S
C750 C747 1.463 . S
C750 N754 1.427 . S
C751 H741 0.929 . S
C751 C749 1.433 . S
C751 N754 1.384 . S
C752 H743 0.929 . S
C752 C744 1.378 . S
C752 C747 1.350 . S
C753 H740 0.929 . S
C753 C745 1.433 . S
C753 N755 1.384 . S
N754 C750 1.427 . S
N754 C751 1.384 . S
N755 C747 1.427 . S
N755 C753 1.384 . S
H756 C762 0.930 . S
H757 C766 0.930 . S
H758 C771 0.929 . S
H759 C769 0.929 . S
H760 C764 0.929 . S
H761 C770 0.929 . S
C762 H756 0.930 . S
C762 C763 1.367 . S
C762 C770 1.378 . S
C763 C762 1.367 . S
C763 C771 1.433 . S
C764 H760 0.929 . S
C764 C766 1.378 . S
C764 C768 1.350 . S
C765 C768 1.463 . S
C765 C770 1.350 . S
C765 N773 1.427 . S
C766 H757 0.930 . S
C766 C764 1.378 . S
C766 C767 1.367 . S
C767 C766 1.367 . S
C767 C769 1.433 . S
C768 C764 1.350 . S
C768 C765 1.463 . S
C768 N772 1.427 . S
C769 H759 0.929 . S
C769 C767 1.433 . S
C769 N772 1.384 . S
C770 H761 0.929 . S
C770 C762 1.378 . S
C770 C765 1.350 . S
C771 H758 0.929 . S
C771 C763 1.433 . S
C771 N773 1.384 . S
N772 C768 1.427 . S
N772 C769 1.384 . S
N773 C765 1.427 . S
N773 C771 1.384 . S
H774 C780 0.930 . S
H775 C784 0.930 . S
H776 C789 0.929 . S
H777 C787 0.929 . S
H778 C782 0.929 . S
H779 C788 0.929 . S
C780 H774 0.930 . S
C780 C781 1.367 . S
C780 C788 1.378 . S
C781 C780 1.367 . S
C781 C789 1.433 . S
C782 H778 0.929 . S
C782 C784 1.378 . S
C782 C786 1.350 . S
C783 C786 1.463 . S
C783 C788 1.350 . S
C783 N791 1.427 . S
C784 H775 0.930 . S
C784 C782 1.378 . S
C784 C785 1.367 . S
C785 C784 1.367 . S
C785 C787 1.433 . S
C786 C782 1.350 . S
C786 C783 1.463 . S
C786 N790 1.427 . S
C787 H777 0.929 . S
C787 C785 1.433 . S
C787 N790 1.384 . S
C788 H779 0.929 . S
C788 C780 1.378 . S
C788 C783 1.350 . S
C789 H776 0.929 . S
C789 C781 1.433 . S
C789 N791 1.384 . S
N790 C786 1.427 . S
N790 C787 1.384 . S
N791 C783 1.427 . S
N791 C789 1.384 . S
H792 C798 0.930 . S
H793 C802 0.930 . S
H794 C807 0.929 . S
H795 C805 0.929 . S
H796 C800 0.929 . S
H797 C806 0.929 . S
C798 H792 0.930 . S
C798 C799 1.367 . S
C798 C806 1.378 . S
C799 C798 1.367 . S
C799 C807 1.433 . S
C800 H796 0.929 . S
C800 C802 1.378 . S
C800 C804 1.350 . S
C801 C804 1.463 . S
C801 C806 1.350 . S
C801 N809 1.427 . S
C802 H793 0.930 . S
C802 C800 1.378 . S
C802 C803 1.367 . S
C803 C802 1.367 . S
C803 C805 1.433 . S
C804 C800 1.350 . S
C804 C801 1.463 . S
C804 N808 1.427 . S
C805 H795 0.929 . S
C805 C803 1.433 . S
C805 N808 1.384 . S
C806 H797 0.929 . S
C806 C798 1.378 . S
C806 C801 1.350 . S
C807 H794 0.929 . S
C807 C799 1.433 . S
C807 N809 1.384 . S
N808 C804 1.427 . S
N808 C805 1.384 . S
N809 C801 1.427 . S
N809 C807 1.384 . S
H810 C816 0.930 . S
H811 C820 0.930 . S
H812 C825 0.929 . S
H813 C823 0.929 . S
H814 C818 0.929 . S
H815 C824 0.929 . S
C816 H810 0.930 . S
C816 C817 1.367 . S
C816 C824 1.378 . S
C817 C816 1.367 . S
C817 C825 1.433 . S
C818 H814 0.929 . S
C818 C820 1.378 . S
C818 C822 1.350 . S
C819 C822 1.463 . S
C819 C824 1.350 . S
C819 N827 1.427 . S
C820 H811 0.930 . S
C820 C818 1.378 . S
C820 C821 1.367 . S
C821 C820 1.367 . S
C821 C823 1.433 . S
C822 C818 1.350 . S
C822 C819 1.463 . S
C822 N826 1.427 . S
C823 H813 0.929 . S
C823 C821 1.433 . S
C823 N826 1.384 . S
C824 H815 0.929 . S
C824 C816 1.378 . S
C824 C819 1.350 . S
C825 H812 0.929 . S
C825 C817 1.433 . S
C825 N827 1.384 . S
N826 C822 1.427 . S
N826 C823 1.384 . S
N827 C819 1.427 . S
N827 C825 1.384 . S
H828 C834 0.930 . S
H829 C838 0.930 . S
H830 C843 0.929 . S
H831 C841 0.929 . S
H832 C836 0.929 . S
H833 C842 0.929 . S
C834 H828 0.930 . S
C834 C835 1.367 . S
C834 C842 1.378 . S
C835 C834 1.367 . S
C835 C843 1.433 . S
C836 H832 0.929 . S
C836 C838 1.378 . S
C836 C840 1.350 . S
C837 C840 1.463 . S
C837 C842 1.350 . S
C837 N845 1.427 . S
C838 H829 0.930 . S
C838 C836 1.378 . S
C838 C839 1.367 . S
C839 C838 1.367 . S
C839 C841 1.433 . S
C840 C836 1.350 . S
C840 C837 1.463 . S
C840 N844 1.427 . S
C841 H831 0.929 . S
C841 C839 1.433 . S
C841 N844 1.384 . S
C842 H833 0.929 . S
C842 C834 1.378 . S
C842 C837 1.350 . S
C843 H830 0.929 . S
C843 C835 1.433 . S
C843 N845 1.384 . S
N844 C840 1.427 . S
N844 C841 1.384 . S
N845 C837 1.427 . S
N845 C843 1.384 . S
H846 C852 0.930 . S
H847 C856 0.930 . S
H848 C861 0.929 . S
H849 C859 0.929 . S
H850 C854 0.929 . S
H851 C860 0.929 . S
C852 H846 0.930 . S
C852 C853 1.367 . S
C852 C860 1.378 . S
C853 C852 1.367 . S
C853 C861 1.433 . S
C854 H850 0.929 . S
C854 C856 1.378 . S
C854 C858 1.350 . S
C855 C858 1.463 . S
C855 C860 1.350 . S
C855 N863 1.427 . S
C856 H847 0.930 . S
C856 C854 1.378 . S
C856 C857 1.367 . S
C857 C856 1.367 . S
C857 C859 1.433 . S
C858 C854 1.350 . S
C858 C855 1.463 . S
C858 N862 1.427 . S
C859 H849 0.929 . S
C859 C857 1.433 . S
C859 N862 1.384 . S
C860 H851 0.929 . S
C860 C852 1.378 . S
C860 C855 1.350 . S
C861 H848 0.929 . S
C861 C853 1.433 . S
C861 N863 1.384 . S
N862 C858 1.427 . S
N862 C859 1.384 . S
N863 C855 1.427 . S
N863 C861 1.384 . S
H864 C870 0.930 . S
H865 C874 0.930 . S
H866 C879 0.929 . S
H867 C877 0.929 . S
H868 C872 0.929 . S
H869 C878 0.929 . S
C870 H864 0.930 . S
C870 C871 1.367 . S
C870 C878 1.378 . S
C871 C870 1.367 . S
C871 C879 1.433 . S
C872 H868 0.929 . S
C872 C874 1.378 . S
C872 C876 1.350 . S
C873 C876 1.463 . S
C873 C878 1.350 . S
C873 N881 1.427 . S
C874 H865 0.930 . S
C874 C872 1.378 . S
C874 C875 1.367 . S
C875 C874 1.367 . S
C875 C877 1.433 . S
C876 C872 1.350 . S
C876 C873 1.463 . S
C876 N880 1.427 . S
C877 H867 0.929 . S
C877 C875 1.433 . S
C877 N880 1.384 . S
C878 H869 0.929 . S
C878 C870 1.378 . S
C878 C873 1.350 . S
C879 H866 0.929 . S
C879 C871 1.433 . S
C879 N881 1.384 . S
N880 C876 1.427 . S
N880 C877 1.384 . S
N881 C873 1.427 . S
N881 C879 1.384 . S
H882 C888 0.930 . S
H883 C892 0.930 . S
H884 C897 0.929 . S
H885 C895 0.929 . S
H886 C890 0.929 . S
H887 C896 0.929 . S
C888 H882 0.930 . S
C888 C889 1.367 . S
C888 C896 1.378 . S
C889 C888 1.367 . S
C889 C897 1.433 . S
C890 H886 0.929 . S
C890 C892 1.378 . S
C890 C894 1.350 . S
C891 C894 1.463 . S
C891 C896 1.350 . S
C891 N899 1.427 . S
C892 H883 0.930 . S
C892 C890 1.378 . S
C892 C893 1.367 . S
C893 C892 1.367 . S
C893 C895 1.433 . S
C894 C890 1.350 . S
C894 C891 1.463 . S
C894 N898 1.427 . S
C895 H885 0.929 . S
C895 C893 1.433 . S
C895 N898 1.384 . S
C896 H887 0.929 . S
C896 C888 1.378 . S
C896 C891 1.350 . S
C897 H884 0.929 . S
C897 C889 1.433 . S
C897 N899 1.384 . S
N898 C894 1.427 . S
N898 C895 1.384 . S
N899 C891 1.427 . S
N899 C897 1.384 . S
H900 C906 0.930 . S
H901 C910 0.930 . S
H902 C915 0.929 . S
H903 C913 0.929 . S
H904 C908 0.929 . S
H905 C914 0.929 . S
C906 H900 0.930 . S
C906 C907 1.367 . S
C906 C914 1.378 . S
C907 C906 1.367 . S
C907 C915 1.433 . S
C908 H904 0.929 . S
C908 C910 1.378 . S
C908 C912 1.350 . S
C909 C912 1.463 . S
C909 C914 1.350 . S
C909 N917 1.427 . S
C910 H901 0.930 . S
C910 C908 1.378 . S
C910 C911 1.367 . S
C911 C910 1.367 . S
C911 C913 1.433 . S
C912 C908 1.350 . S
C912 C909 1.463 . S
C912 N916 1.427 . S
C913 H903 0.929 . S
C913 C911 1.433 . S
C913 N916 1.384 . S
C914 H905 0.929 . S
C914 C906 1.378 . S
C914 C909 1.350 . S
C915 H902 0.929 . S
C915 C907 1.433 . S
C915 N917 1.384 . S
N916 C912 1.427 . S
N916 C913 1.384 . S
N917 C909 1.427 . S
N917 C915 1.384 . S
H918 C924 0.930 . S
H919 C928 0.930 . S
H920 C933 0.929 . S
H921 C931 0.929 . S
H922 C926 0.929 . S
H923 C932 0.929 . S
C924 H918 0.930 . S
C924 C925 1.367 . S
C924 C932 1.378 . S
C925 C924 1.367 . S
C925 C933 1.433 . S
C926 H922 0.929 . S
C926 C928 1.378 . S
C926 C930 1.350 . S
C927 C930 1.463 . S
C927 C932 1.350 . S
C927 N935 1.427 . S
C928 H919 0.930 . S
C928 C926 1.378 . S
C928 C929 1.367 . S
C929 C928 1.367 . S
C929 C931 1.433 . S
C930 C926 1.350 . S
C930 C927 1.463 . S
C930 N934 1.427 . S
C931 H921 0.929 . S
C931 C929 1.433 . S
C931 N934 1.384 . S
C932 H923 0.929 . S
C932 C924 1.378 . S
C932 C927 1.350 . S
C933 H920 0.929 . S
C933 C925 1.433 . S
C933 N935 1.384 . S
N934 C930 1.427 . S
N934 C931 1.384 . S
N935 C927 1.427 . S
N935 C933 1.384 . S
H936 C942 0.930 . S
H937 C946 0.930 . S
H938 C951 0.929 . S
H939 C949 0.929 . S
H940 C944 0.929 . S
H941 C950 0.929 . S
C942 H936 0.930 . S
C942 C943 1.367 . S
C942 C950 1.378 . S
C943 C942 1.367 . S
C943 C951 1.433 . S
C944 H940 0.929 . S
C944 C946 1.378 . S
C944 C948 1.350 . S
C945 C948 1.463 . S
C945 C950 1.350 . S
C945 N953 1.427 . S
C946 H937 0.930 . S
C946 C944 1.378 . S
C946 C947 1.367 . S
C947 C946 1.367 . S
C947 C949 1.433 . S
C948 C944 1.350 . S
C948 C945 1.463 . S
C948 N952 1.427 . S
C949 H939 0.929 . S
C949 C947 1.433 . S
C949 N952 1.384 . S
C950 H941 0.929 . S
C950 C942 1.378 . S
C950 C945 1.350 . S
C951 H938 0.929 . S
C951 C943 1.433 . S
C951 N953 1.384 . S
N952 C948 1.427 . S
N952 C949 1.384 . S
N953 C945 1.427 . S
N953 C951 1.384 . S
H954 C960 0.930 . S
H955 C964 0.930 . S
H956 C969 0.929 . S
H957 C967 0.929 . S
H958 C962 0.929 . S
H959 C968 0.929 . S
C960 H954 0.930 . S
C960 C961 1.367 . S
C960 C968 1.378 . S
C961 C960 1.367 . S
C961 C969 1.433 . S
C962 H958 0.929 . S
C962 C964 1.378 . S
C962 C966 1.350 . S
C963 C966 1.463 . S
C963 C968 1.350 . S
C963 N971 1.427 . S
C964 H955 0.930 . S
C964 C962 1.378 . S
C964 C965 1.367 . S
C965 C964 1.367 . S
C965 C967 1.433 . S
C966 C962 1.350 . S
C966 C963 1.463 . S
C966 N970 1.427 . S
C967 H957 0.929 . S
C967 C965 1.433 . S
C967 N970 1.384 . S
C968 H959 0.929 . S
C968 C960 1.378 . S
C968 C963 1.350 . S
C969 H956 0.929 . S
C969 C961 1.433 . S
C969 N971 1.384 . S
N970 C966 1.427 . S
N970 C967 1.384 . S
N971 C963 1.427 . S
N971 C969 1.384 . S
H972 C978 0.930 . S
H973 C982 0.930 . S
H974 C987 0.929 . S
H975 C985 0.929 . S
H976 C980 0.929 . S
H977 C986 0.929 . S
C978 H972 0.930 . S
C978 C979 1.367 . S
C978 C986 1.378 . S
C979 C978 1.367 . S
C979 C987 1.433 . S
C980 H976 0.929 . S
C980 C982 1.378 . S
C980 C984 1.350 . S
C981 C984 1.463 . S
C981 C986 1.350 . S
C981 N989 1.427 . S
C982 H973 0.930 . S
C982 C980 1.378 . S
C982 C983 1.367 . S
C983 C982 1.367 . S
C983 C985 1.433 . S
C984 C980 1.350 . S
C984 C981 1.463 . S
C984 N988 1.427 . S
C985 H975 0.929 . S
C985 C983 1.433 . S
C985 N988 1.384 . S
C986 H977 0.929 . S
C986 C978 1.378 . S
C986 C981 1.350 . S
C987 H974 0.929 . S
C987 C979 1.433 . S
C987 N989 1.384 . S
N988 C984 1.427 . S
N988 C985 1.384 . S
N989 C981 1.427 . S
N989 C987 1.384 . S
H990 C996 0.930 . S
H991 C1000 0.930 . S
H992 C1005 0.929 . S
H993 C1003 0.929 . S
H994 C998 0.929 . S
H995 C1004 0.929 . S
C996 H990 0.930 . S
C996 C997 1.367 . S
C996 C1004 1.378 . S
C997 C996 1.367 . S
C997 C1005 1.433 . S
C998 H994 0.929 . S
C998 C1000 1.378 . S
C998 C1002 1.350 . S
C999 C1002 1.463 . S
C999 C1004 1.350 . S
C999 N1007 1.427 . S
C1000 H991 0.930 . S
C1000 C998 1.378 . S
C1000 C1001 1.367 . S
C1001 C1000 1.367 . S
C1001 C1003 1.433 . S
C1002 C998 1.350 . S
C1002 C999 1.463 . S
C1002 N1006 1.427 . S
C1003 H993 0.929 . S
C1003 C1001 1.433 . S
C1003 N1006 1.384 . S
C1004 H995 0.929 . S
C1004 C996 1.378 . S
C1004 C999 1.350 . S
C1005 H992 0.929 . S
C1005 C997 1.433 . S
C1005 N1007 1.384 . S
N1006 C1002 1.427 . S
N1006 C1003 1.384 . S
N1007 C999 1.427 . S
N1007 C1005 1.384 . S
H1008 C1014 0.930 . S
H1009 C1018 0.930 . S
H1010 C1023 0.929 . S
H1011 C1021 0.929 . S
H1012 C1016 0.929 . S
H1013 C1022 0.929 . S
C1014 H1008 0.930 . S
C1014 C1015 1.367 . S
C1014 C1022 1.378 . S
C1015 C1014 1.367 . S
C1015 C1023 1.433 . S
C1016 H1012 0.929 . S
C1016 C1018 1.378 . S
C1016 C1020 1.350 . S
C1017 C1020 1.463 . S
C1017 C1022 1.350 . S
C1017 N1025 1.427 . S
C1018 H1009 0.930 . S
C1018 C1016 1.378 . S
C1018 C1019 1.367 . S
C1019 C1018 1.367 . S
C1019 C1021 1.433 . S
C1020 C1016 1.350 . S
C1020 C1017 1.463 . S
C1020 N1024 1.427 . S
C1021 H1011 0.929 . S
C1021 C1019 1.433 . S
C1021 N1024 1.384 . S
C1022 H1013 0.929 . S
C1022 C1014 1.378 . S
C1022 C1017 1.350 . S
C1023 H1010 0.929 . S
C1023 C1015 1.433 . S
C1023 N1025 1.384 . S
N1024 C1020 1.427 . S
N1024 C1021 1.384 . S
N1025 C1017 1.427 . S
N1025 C1023 1.384 . S
H1026 C1032 0.930 . S
H1027 C1036 0.930 . S
H1028 C1041 0.929 . S
H1029 C1039 0.929 . S
H1030 C1034 0.929 . S
H1031 C1040 0.929 . S
C1032 H1026 0.930 . S
C1032 C1033 1.367 . S
C1032 C1040 1.378 . S
C1033 C1032 1.367 . S
C1033 C1041 1.433 . S
C1034 H1030 0.929 . S
C1034 C1036 1.378 . S
C1034 C1038 1.350 . S
C1035 C1038 1.463 . S
C1035 C1040 1.350 . S
C1035 N1043 1.427 . S
C1036 H1027 0.930 . S
C1036 C1034 1.378 . S
C1036 C1037 1.367 . S
C1037 C1036 1.367 . S
C1037 C1039 1.433 . S
C1038 C1034 1.350 . S
C1038 C1035 1.463 . S
C1038 N1042 1.427 . S
C1039 H1029 0.929 . S
C1039 C1037 1.433 . S
C1039 N1042 1.384 . S
C1040 H1031 0.929 . S
C1040 C1032 1.378 . S
C1040 C1035 1.350 . S
C1041 H1028 0.929 . S
C1041 C1033 1.433 . S
C1041 N1043 1.384 . S
N1042 C1038 1.427 . S
N1042 C1039 1.384 . S
N1043 C1035 1.427 . S
N1043 C1041 1.384 . S
H1044 C1050 0.930 . S
H1045 C1054 0.930 . S
H1046 C1059 0.929 . S
H1047 C1057 0.929 . S
H1048 C1052 0.929 . S
H1049 C1058 0.929 . S
C1050 H1044 0.930 . S
C1050 C1051 1.367 . S
C1050 C1058 1.378 . S
C1051 C1050 1.367 . S
C1051 C1059 1.433 . S
C1052 H1048 0.929 . S
C1052 C1054 1.378 . S
C1052 C1056 1.350 . S
C1053 C1056 1.463 . S
C1053 C1058 1.350 . S
C1053 N1061 1.427 . S
C1054 H1045 0.930 . S
C1054 C1052 1.378 . S
C1054 C1055 1.367 . S
C1055 C1054 1.367 . S
C1055 C1057 1.433 . S
C1056 C1052 1.350 . S
C1056 C1053 1.463 . S
C1056 N1060 1.427 . S
C1057 H1047 0.929 . S
C1057 C1055 1.433 . S
C1057 N1060 1.384 . S
C1058 H1049 0.929 . S
C1058 C1050 1.378 . S
C1058 C1053 1.350 . S
C1059 H1046 0.929 . S
C1059 C1051 1.433 . S
C1059 N1061 1.384 . S
N1060 C1056 1.427 . S
N1060 C1057 1.384 . S
N1061 C1053 1.427 . S
N1061 C1059 1.384 . S
H1062 C1068 0.930 1_655 S
H1063 C1072 0.930 . S
H1064 C1077 0.929 . S
H1065 C1075 0.929 . S
H1066 C1070 0.929 . S
H1067 C1076 0.929 . S
C1068 H1062 0.930 1_455 S
C1068 C1069 1.367 . S
C1068 C1076 1.378 . S
C1069 C1068 1.367 . S
C1069 C1077 1.433 . S
C1070 H1066 0.929 . S
C1070 C1072 1.378 . S
C1070 C1074 1.350 . S
C1071 C1074 1.463 1_554 S
C1071 C1076 1.350 . S
C1071 N1079 1.427 . S
C1072 H1063 0.930 . S
C1072 C1070 1.378 . S
C1072 C1073 1.367 . S
C1073 C1072 1.367 . S
C1073 C1075 1.433 . S
C1074 C1070 1.350 . S
C1074 C1071 1.463 1_556 S
C1074 N1078 1.427 . S
C1075 H1065 0.929 . S
C1075 C1073 1.433 . S
C1075 N1078 1.384 . S
C1076 H1067 0.929 . S
C1076 C1068 1.378 . S
C1076 C1071 1.350 . S
C1077 H1064 0.929 . S
C1077 C1069 1.433 . S
C1077 N1079 1.384 . S
N1078 C1074 1.427 . S
N1078 C1075 1.384 . S
N1079 C1071 1.427 . S
N1079 C1077 1.384 . S
H1080 C1086 0.930 . S
H1081 C1090 0.930 . S
H1082 C1095 0.929 . S
H1083 C1093 0.929 . S
H1084 C1088 0.929 . S
H1085 C1094 0.929 . S
C1086 H1080 0.930 . S
C1086 C1087 1.367 . S
C1086 C1094 1.378 . S
C1087 C1086 1.367 . S
C1087 C1095 1.433 . S
C1088 H1084 0.929 . S
C1088 C1090 1.378 . S
C1088 C1092 1.350 . S
C1089 C1092 1.463 1_554 S
C1089 C1094 1.350 . S
C1089 N1097 1.427 . S
C1090 H1081 0.930 . S
C1090 C1088 1.378 . S
C1090 C1091 1.367 . S
C1091 C1090 1.367 . S
C1091 C1093 1.433 . S
C1092 C1088 1.350 . S
C1092 C1089 1.463 1_556 S
C1092 N1096 1.427 . S
C1093 H1083 0.929 . S
C1093 C1091 1.433 . S
C1093 N1096 1.384 . S
C1094 H1085 0.929 . S
C1094 C1086 1.378 . S
C1094 C1089 1.350 . S
C1095 H1082 0.929 . S
C1095 C1087 1.433 . S
C1095 N1097 1.384 . S
N1096 C1092 1.427 . S
N1096 C1093 1.384 . S
N1097 C1089 1.427 . S
N1097 C1095 1.384 . S
H1098 C1104 0.930 . S
H1099 C1108 0.930 . S
H1100 C1113 0.929 1_565 S
H1101 C1111 0.929 . S
H1102 C1106 0.929 . S
H1103 C1112 0.929 . S
C1104 H1098 0.930 . S
C1104 C1105 1.367 . S
C1104 C1112 1.378 . S
C1105 C1104 1.367 . S
C1105 C1113 1.433 . S
C1106 H1102 0.929 . S
C1106 C1108 1.378 . S
C1106 C1110 1.350 1_565 S
C1107 C1110 1.463 1_554 S
C1107 C1112 1.350 . S
C1107 N1115 1.427 . S
C1108 H1099 0.930 . S
C1108 C1106 1.378 . S
C1108 C1109 1.367 1_565 S
C1109 C1108 1.367 1_545 S
C1109 C1111 1.433 . S
C1110 C1106 1.350 1_545 S
C1110 C1107 1.463 1_556 S
C1110 N1114 1.427 . S
C1111 H1101 0.929 . S
C1111 C1109 1.433 . S
C1111 N1114 1.384 . S
C1112 H1103 0.929 . S
C1112 C1104 1.378 . S
C1112 C1107 1.350 . S
C1113 H1100 0.929 1_545 S
C1113 C1105 1.433 . S
C1113 N1115 1.384 . S
N1114 C1110 1.427 . S
N1114 C1111 1.384 . S
N1115 C1107 1.427 . S
N1115 C1113 1.384 . S
H1116 C1122 0.930 . S
H1117 C1126 0.930 . S
H1118 C1131 0.929 . S
H1119 C1129 0.929 . S
H1120 C1124 0.929 . S
H1121 C1130 0.929 . S
C1122 H1116 0.930 . S
C1122 C1123 1.367 . S
C1122 C1130 1.378 . S
C1123 C1122 1.367 . S
C1123 C1131 1.433 . S
C1124 H1120 0.929 . S
C1124 C1126 1.378 . S
C1124 C1128 1.350 . S
C1125 C1128 1.463 1_556 S
C1125 C1130 1.350 . S
C1125 N1133 1.427 . S
C1126 H1117 0.930 . S
C1126 C1124 1.378 . S
C1126 C1127 1.367 . S
C1127 C1126 1.367 . S
C1127 C1129 1.433 1_455 S
C1128 C1124 1.350 . S
C1128 C1125 1.463 1_554 S
C1128 N1132 1.427 . S
C1129 H1119 0.929 . S
C1129 C1127 1.433 1_655 S
C1129 N1132 1.384 1_655 S
C1130 H1121 0.929 . S
C1130 C1122 1.378 . S
C1130 C1125 1.350 . S
C1131 H1118 0.929 . S
C1131 C1123 1.433 . S
C1131 N1133 1.384 . S
N1132 C1128 1.427 . S
N1132 C1129 1.384 1_455 S
N1133 C1125 1.427 . S
N1133 C1131 1.384 . S
H1134 C1140 0.930 . S
H1135 C1144 0.930 . S
H1136 C1149 0.929 . S
H1137 C1147 0.929 . S
H1138 C1142 0.929 . S
H1139 C1148 0.929 . S
C1140 H1134 0.930 . S
C1140 C1141 1.367 . S
C1140 C1148 1.378 . S
C1141 C1140 1.367 . S
C1141 C1149 1.433 . S
C1142 H1138 0.929 . S
C1142 C1144 1.378 . S
C1142 C1146 1.350 . S
C1143 C1146 1.463 1_554 S
C1143 C1148 1.350 . S
C1143 N1151 1.427 . S
C1144 H1135 0.930 . S
C1144 C1142 1.378 . S
C1144 C1145 1.367 . S
C1145 C1144 1.367 . S
C1145 C1147 1.433 . S
C1146 C1142 1.350 . S
C1146 C1143 1.463 1_556 S
C1146 N1150 1.427 . S
C1147 H1137 0.929 . S
C1147 C1145 1.433 . S
C1147 N1150 1.384 . S
C1148 H1139 0.929 . S
C1148 C1140 1.378 . S
C1148 C1143 1.350 . S
C1149 H1136 0.929 . S
C1149 C1141 1.433 . S
C1149 N1151 1.384 . S
N1150 C1146 1.427 . S
N1150 C1147 1.384 . S
N1151 C1143 1.427 . S
N1151 C1149 1.384 . S
H1152 C1158 0.930 1_565 S
H1153 C1162 0.930 . S
H1154 C1167 0.929 . S
H1155 C1165 0.929 . S
H1156 C1160 0.929 . S
H1157 C1166 0.896 1_565 S
C1158 H1152 0.930 1_545 S
C1158 C1159 1.367 . S
C1158 C1166 1.388 . S
C1159 C1158 1.367 . S
C1159 C1167 1.433 . S
C1160 H1156 0.929 . S
C1160 C1162 1.378 . S
C1160 C1164 1.350 . S
C1161 C1164 1.463 1_554 S
C1161 C1166 1.378 . S
C1161 N1169 1.427 . S
C1162 H1153 0.930 . S
C1162 C1160 1.378 . S
C1162 C1163 1.367 . S
C1163 C1162 1.367 . S
C1163 C1165 1.433 1_545 S
C1164 C1160 1.350 . S
C1164 C1161 1.463 1_556 S
C1164 N1168 1.427 1_545 S
C1165 H1155 0.929 . S
C1165 C1163 1.433 1_565 S
C1165 N1168 1.384 . S
C1166 H1157 0.896 1_545 S
C1166 C1158 1.388 . S
C1166 C1161 1.378 . S
C1167 H1154 0.929 . S
C1167 C1159 1.433 . S
C1167 N1169 1.384 . S
N1168 C1164 1.427 1_565 S
N1168 C1165 1.384 . S
N1169 C1161 1.427 . S
N1169 C1167 1.384 . S
H1170 C1176 0.930 . S
H1171 C1180 0.930 . S
H1172 C1185 0.929 . S
H1173 C1183 0.929 . S
H1174 C1178 0.929 . S
H1175 C1184 0.929 . S
C1176 H1170 0.930 . S
C1176 C1177 1.367 . S
C1176 C1184 1.378 . S
C1177 C1176 1.367 . S
C1177 C1185 1.433 . S
C1178 H1174 0.929 . S
C1178 C1180 1.378 . S
C1178 C1182 1.350 . S
C1179 C1182 1.463 . S
C1179 C1184 1.350 . S
C1179 N1187 1.427 . S
C1180 H1171 0.930 . S
C1180 C1178 1.378 . S
C1180 C1181 1.367 . S
C1181 C1180 1.367 . S
C1181 C1183 1.433 . S
C1182 C1178 1.350 . S
C1182 C1179 1.463 . S
C1182 N1186 1.427 . S
C1183 H1173 0.929 . S
C1183 C1181 1.433 . S
C1183 N1186 1.384 . S
C1184 H1175 0.929 . S
C1184 C1176 1.378 . S
C1184 C1179 1.350 . S
C1185 H1172 0.929 . S
C1185 C1177 1.433 . S
C1185 N1187 1.384 . S
N1186 C1182 1.427 . S
N1186 C1183 1.384 . S
N1187 C1179 1.427 . S
N1187 C1185 1.384 . S
H1188 C1194 0.930 . S
H1189 C1198 0.930 . S
H1190 C1203 0.929 . S
H1191 C1201 0.929 . S
H1192 C1196 0.929 . S
H1193 C1202 0.929 . S
C1194 H1188 0.930 . S
C1194 C1195 1.367 . S
C1194 C1202 1.378 . S
C1195 C1194 1.367 . S
C1195 C1203 1.433 . S
C1196 H1192 0.929 . S
C1196 C1198 1.378 . S
C1196 C1200 1.350 . S
C1197 C1200 1.463 . S
C1197 C1202 1.350 . S
C1197 N1205 1.427 . S
C1198 H1189 0.930 . S
C1198 C1196 1.378 . S
C1198 C1199 1.367 . S
C1199 C1198 1.367 . S
C1199 C1201 1.433 . S
C1200 C1196 1.350 . S
C1200 C1197 1.463 . S
C1200 N1204 1.427 . S
C1201 H1191 0.929 . S
C1201 C1199 1.433 . S
C1201 N1204 1.384 . S
C1202 H1193 0.929 . S
C1202 C1194 1.378 . S
C1202 C1197 1.350 . S
C1203 H1190 0.929 . S
C1203 C1195 1.433 . S
C1203 N1205 1.384 . S
N1204 C1200 1.427 . S
N1204 C1201 1.384 . S
N1205 C1197 1.427 . S
N1205 C1203 1.384 . S
H1206 C1212 0.930 . S
H1207 C1216 0.930 . S
H1208 C1221 0.929 . S
H1209 C1219 0.929 . S
H1210 C1214 0.929 . S
H1211 C1220 0.929 . S
C1212 H1206 0.930 . S
C1212 C1213 1.367 . S
C1212 C1220 1.378 . S
C1213 C1212 1.367 . S
C1213 C1221 1.433 . S
C1214 H1210 0.929 . S
C1214 C1216 1.378 . S
C1214 C1218 1.350 . S
C1215 C1218 1.463 . S
C1215 C1220 1.350 . S
C1215 N1223 1.427 . S
C1216 H1207 0.930 . S
C1216 C1214 1.378 . S
C1216 C1217 1.367 . S
C1217 C1216 1.367 . S
C1217 C1219 1.433 . S
C1218 C1214 1.350 . S
C1218 C1215 1.463 . S
C1218 N1222 1.427 . S
C1219 H1209 0.929 . S
C1219 C1217 1.433 . S
C1219 N1222 1.384 . S
C1220 H1211 0.929 . S
C1220 C1212 1.378 . S
C1220 C1215 1.350 . S
C1221 H1208 0.929 . S
C1221 C1213 1.433 . S
C1221 N1223 1.384 . S
N1222 C1218 1.427 . S
N1222 C1219 1.384 . S
N1223 C1215 1.427 . S
N1223 C1221 1.384 . S
H1224 C1230 0.930 . S
H1225 C1234 0.930 . S
H1226 C1239 0.929 . S
H1227 C1237 0.929 . S
H1228 C1232 0.929 . S
H1229 C1238 0.929 . S
C1230 H1224 0.930 . S
C1230 C1231 1.367 . S
C1230 C1238 1.378 . S
C1231 C1230 1.367 . S
C1231 C1239 1.433 . S
C1232 H1228 0.929 . S
C1232 C1234 1.378 . S
C1232 C1236 1.350 . S
C1233 C1236 1.463 . S
C1233 C1238 1.350 . S
C1233 N1241 1.427 . S
C1234 H1225 0.930 . S
C1234 C1232 1.378 . S
C1234 C1235 1.367 . S
C1235 C1234 1.367 . S
C1235 C1237 1.433 . S
C1236 C1232 1.350 . S
C1236 C1233 1.463 . S
C1236 N1240 1.427 . S
C1237 H1227 0.929 . S
C1237 C1235 1.433 . S
C1237 N1240 1.384 . S
C1238 H1229 0.929 . S
C1238 C1230 1.378 . S
C1238 C1233 1.350 . S
C1239 H1226 0.929 . S
C1239 C1231 1.433 . S
C1239 N1241 1.384 . S
N1240 C1236 1.427 . S
N1240 C1237 1.384 . S
N1241 C1233 1.427 . S
N1241 C1239 1.384 . S
H1242 C1248 0.930 . S
H1243 C1252 0.930 . S
H1244 C1257 0.929 . S
H1245 C1255 0.929 . S
H1246 C1250 0.929 . S
H1247 C1256 0.929 . S
C1248 H1242 0.930 . S
C1248 C1249 1.367 . S
C1248 C1256 1.378 . S
C1249 C1248 1.367 . S
C1249 C1257 1.433 . S
C1250 H1246 0.929 . S
C1250 C1252 1.378 . S
C1250 C1254 1.350 . S
C1251 C1254 1.463 . S
C1251 C1256 1.350 . S
C1251 N1259 1.427 . S
C1252 H1243 0.930 . S
C1252 C1250 1.378 . S
C1252 C1253 1.367 . S
C1253 C1252 1.367 . S
C1253 C1255 1.433 . S
C1254 C1250 1.350 . S
C1254 C1251 1.463 . S
C1254 N1258 1.427 . S
C1255 H1245 0.929 . S
C1255 C1253 1.433 . S
C1255 N1258 1.384 . S
C1256 H1247 0.929 . S
C1256 C1248 1.378 . S
C1256 C1251 1.350 . S
C1257 H1244 0.929 . S
C1257 C1249 1.433 . S
C1257 N1259 1.384 . S
N1258 C1254 1.427 . S
N1258 C1255 1.384 . S
N1259 C1251 1.427 . S
N1259 C1257 1.384 . S
H1260 C1266 0.930 . S
H1261 C1270 0.930 . S
H1262 C1275 0.929 . S
H1263 C1273 0.929 . S
H1264 C1268 0.929 . S
H1265 C1274 0.929 . S
C1266 H1260 0.930 . S
C1266 C1267 1.367 . S
C1266 C1274 1.378 . S
C1267 C1266 1.367 . S
C1267 C1275 1.433 . S
C1268 H1264 0.929 . S
C1268 C1270 1.378 . S
C1268 C1272 1.350 . S
C1269 C1272 1.463 . S
C1269 C1274 1.350 . S
C1269 N1277 1.427 . S
C1270 H1261 0.930 . S
C1270 C1268 1.378 . S
C1270 C1271 1.367 . S
C1271 C1270 1.367 . S
C1271 C1273 1.433 . S
C1272 C1268 1.350 . S
C1272 C1269 1.463 . S
C1272 N1276 1.427 . S
C1273 H1263 0.929 . S
C1273 C1271 1.433 . S
C1273 N1276 1.384 . S
C1274 H1265 0.929 . S
C1274 C1266 1.378 . S
C1274 C1269 1.350 . S
C1275 H1262 0.929 . S
C1275 C1267 1.433 . S
C1275 N1277 1.384 . S
N1276 C1272 1.427 . S
N1276 C1273 1.384 . S
N1277 C1269 1.427 . S
N1277 C1275 1.384 . S
H1278 C1284 0.930 . S
H1279 C1288 0.930 . S
H1280 C1293 0.929 . S
H1281 C1291 0.929 . S
H1282 C1286 0.929 . S
H1283 C1292 0.929 . S
C1284 H1278 0.930 . S
C1284 C1285 1.367 . S
C1284 C1292 1.378 . S
C1285 C1284 1.367 . S
C1285 C1293 1.433 . S
C1286 H1282 0.929 . S
C1286 C1288 1.378 . S
C1286 C1290 1.350 . S
C1287 C1290 1.463 . S
C1287 C1292 1.350 . S
C1287 N1295 1.427 . S
C1288 H1279 0.930 . S
C1288 C1286 1.378 . S
C1288 C1289 1.367 . S
C1289 C1288 1.367 . S
C1289 C1291 1.433 . S
C1290 C1286 1.350 . S
C1290 C1287 1.463 . S
C1290 N1294 1.427 . S
C1291 H1281 0.929 . S
C1291 C1289 1.433 . S
C1291 N1294 1.384 . S
C1292 H1283 0.929 . S
C1292 C1284 1.378 . S
C1292 C1287 1.350 . S
C1293 H1280 0.929 . S
C1293 C1285 1.433 . S
C1293 N1295 1.384 . S
N1294 C1290 1.427 . S
N1294 C1291 1.384 . S
N1295 C1287 1.427 . S
N1295 C1293 1.384 . S
H1296 C1302 0.930 . S
H1297 C1306 0.930 . S
H1298 C1311 0.929 . S
H1299 C1309 0.929 . S
H1300 C1304 0.929 . S
H1301 C1310 0.929 . S
C1302 H1296 0.930 . S
C1302 C1303 1.367 . S
C1302 C1310 1.378 . S
C1303 C1302 1.367 . S
C1303 C1311 1.433 . S
C1304 H1300 0.929 . S
C1304 C1306 1.378 . S
C1304 C1308 1.350 . S
C1305 C1308 1.463 . S
C1305 C1310 1.350 . S
C1305 N1313 1.427 . S
C1306 H1297 0.930 . S
C1306 C1304 1.378 . S
C1306 C1307 1.367 . S
C1307 C1306 1.367 . S
C1307 C1309 1.433 . S
C1308 C1304 1.350 . S
C1308 C1305 1.463 . S
C1308 N1312 1.427 . S
C1309 H1299 0.929 . S
C1309 C1307 1.433 . S
C1309 N1312 1.384 . S
C1310 H1301 0.929 . S
C1310 C1302 1.378 . S
C1310 C1305 1.350 . S
C1311 H1298 0.929 . S
C1311 C1303 1.433 . S
C1311 N1313 1.384 . S
N1312 C1308 1.427 . S
N1312 C1309 1.384 . S
N1313 C1305 1.427 . S
N1313 C1311 1.384 . S
H1314 C1320 0.930 . S
H1315 C1324 0.930 . S
H1316 C1329 0.929 . S
H1317 C1327 0.929 . S
H1318 C1322 0.929 . S
H1319 C1328 0.929 . S
C1320 H1314 0.930 . S
C1320 C1321 1.367 . S
C1320 C1328 1.378 . S
C1321 C1320 1.367 . S
C1321 C1329 1.433 . S
C1322 H1318 0.929 . S
C1322 C1324 1.378 . S
C1322 C1326 1.350 . S
C1323 C1326 1.463 . S
C1323 C1328 1.350 . S
C1323 N1331 1.427 . S
C1324 H1315 0.930 . S
C1324 C1322 1.378 . S
C1324 C1325 1.367 . S
C1325 C1324 1.367 . S
C1325 C1327 1.433 . S
C1326 C1322 1.350 . S
C1326 C1323 1.463 . S
C1326 N1330 1.427 . S
C1327 H1317 0.929 . S
C1327 C1325 1.433 . S
C1327 N1330 1.384 . S
C1328 H1319 0.929 . S
C1328 C1320 1.378 . S
C1328 C1323 1.350 . S
C1329 H1316 0.929 . S
C1329 C1321 1.433 . S
C1329 N1331 1.384 . S
N1330 C1326 1.427 . S
N1330 C1327 1.384 . S
N1331 C1323 1.427 . S
N1331 C1329 1.384 . S
H1332 C1338 0.930 . S
H1333 C1342 0.930 . S
H1334 C1347 0.929 . S
H1335 C1345 0.929 . S
H1336 C1340 0.929 . S
H1337 C1346 0.929 . S
C1338 H1332 0.930 . S
C1338 C1339 1.367 . S
C1338 C1346 1.378 . S
C1339 C1338 1.367 . S
C1339 C1347 1.433 . S
C1340 H1336 0.929 . S
C1340 C1342 1.378 . S
C1340 C1344 1.350 . S
C1341 C1344 1.463 . S
C1341 C1346 1.350 . S
C1341 N1349 1.427 . S
C1342 H1333 0.930 . S
C1342 C1340 1.378 . S
C1342 C1343 1.367 . S
C1343 C1342 1.367 . S
C1343 C1345 1.433 . S
C1344 C1340 1.350 . S
C1344 C1341 1.463 . S
C1344 N1348 1.427 . S
C1345 H1335 0.929 . S
C1345 C1343 1.433 . S
C1345 N1348 1.384 . S
C1346 H1337 0.929 . S
C1346 C1338 1.378 . S
C1346 C1341 1.350 . S
C1347 H1334 0.929 . S
C1347 C1339 1.433 . S
C1347 N1349 1.384 . S
N1348 C1344 1.427 . S
N1348 C1345 1.384 . S
N1349 C1341 1.427 . S
N1349 C1347 1.384 . S
H1350 C1356 0.930 . S
H1351 C1360 0.930 . S
H1352 C1365 0.929 . S
H1353 C1363 0.929 . S
H1354 C1358 0.929 . S
H1355 C1364 0.929 . S
C1356 H1350 0.930 . S
C1356 C1357 1.367 . S
C1356 C1364 1.378 . S
C1357 C1356 1.367 . S
C1357 C1365 1.433 . S
C1358 H1354 0.929 . S
C1358 C1360 1.378 . S
C1358 C1362 1.350 . S
C1359 C1362 1.463 . S
C1359 C1364 1.350 . S
C1359 N1367 1.427 . S
C1360 H1351 0.930 . S
C1360 C1358 1.378 . S
C1360 C1361 1.367 . S
C1361 C1360 1.367 . S
C1361 C1363 1.433 . S
C1362 C1358 1.350 . S
C1362 C1359 1.463 . S
C1362 N1366 1.427 . S
C1363 H1353 0.929 . S
C1363 C1361 1.433 . S
C1363 N1366 1.384 . S
C1364 H1355 0.929 . S
C1364 C1356 1.378 . S
C1364 C1359 1.350 . S
C1365 H1352 0.929 . S
C1365 C1357 1.433 . S
C1365 N1367 1.384 . S
N1366 C1362 1.427 . S
N1366 C1363 1.384 . S
N1367 C1359 1.427 . S
N1367 C1365 1.384 . S
H1368 C1374 0.930 . S
H1369 C1378 0.930 . S
H1370 C1383 0.929 . S
H1371 C1381 0.929 . S
H1372 C1376 0.929 . S
H1373 C1382 0.929 . S
C1374 H1368 0.930 . S
C1374 C1375 1.367 . S
C1374 C1382 1.378 . S
C1375 C1374 1.367 . S
C1375 C1383 1.433 . S
C1376 H1372 0.929 . S
C1376 C1378 1.378 . S
C1376 C1380 1.350 . S
C1377 C1380 1.463 . S
C1377 C1382 1.350 . S
C1377 N1385 1.427 . S
C1378 H1369 0.930 . S
C1378 C1376 1.378 . S
C1378 C1379 1.367 . S
C1379 C1378 1.367 . S
C1379 C1381 1.433 . S
C1380 C1376 1.350 . S
C1380 C1377 1.463 . S
C1380 N1384 1.427 . S
C1381 H1371 0.929 . S
C1381 C1379 1.433 . S
C1381 N1384 1.384 . S
C1382 H1373 0.929 . S
C1382 C1374 1.378 . S
C1382 C1377 1.350 . S
C1383 H1370 0.929 . S
C1383 C1375 1.433 . S
C1383 N1385 1.384 . S
N1384 C1380 1.427 . S
N1384 C1381 1.384 . S
N1385 C1377 1.427 . S
N1385 C1383 1.384 . S
C421 C317 1.579 . S
C425 C18 1.574 . S
C439 C43 1.527 . S
C443 C342 1.527 . S
C457 C64 1.522 . S
C461 C296 1.578 . S
C475 C66 1.519 . S
C479 C181 1.519 . S
C493 C204 1.514 . S
C497 C20 1.514 . S
C511 C41 1.518 . S
C515 C158 1.575 . S
C529 C87 1.485 . S
C533 C249 1.464 . S
C547 C111 1.452 . S
C551 C272 1.448 . S
C565 C226 1.474 . S
C569 C133 1.492 . S
C583 C387 1.468 . S
C587 C134 1.460 . S
C601 C88 1.469 . S
C605 C409 1.488 . S
C619 C363 1.492 . S
C623 C110 1.490 . S
C637 C202 1.531 . S
C641 C319 1.582 . S
C655 C156 1.587 . S
C659 C340 1.582 . S
C673 C179 1.579 . S
C677 C294 1.587 . S
C691 C225 1.501 . S
C695 C386 1.503 . S
C709 C410 1.469 . S
C713 C248 1.491 . S
C727 C364 1.461 . S
C731 C271 1.485 . S
C745 C19 1.367 . S
C749 C112 1.407 . S
C763 C136 1.380 . S
C767 C44 1.394 . S
C781 C90 1.392 . S
C785 C65 1.396 . S
C799 C113 1.387 . S
C803 C67 1.413 . S
C817 C135 1.420 . S
C821 C21 1.420 . S
C835 C89 1.441 . S
C839 C42 1.396 . S
C853 C251 1.391 . S
C857 C159 1.409 . S
C871 C274 1.398 . S
C875 C182 1.433 . S
C889 C228 1.391 . S
C893 C205 1.409 . S
C907 C250 1.431 . S
C911 C203 1.389 . S
C925 C273 1.429 . S
C929 C157 1.387 . S
C943 C227 1.407 . S
C947 C180 1.383 . S
C961 C388 1.428 . S
C965 C295 1.386 . S
C979 C412 1.370 . S
C983 C320 1.405 . S
C997 C341 1.380 . S
C1001 C366 1.396 . S
C1015 C343 1.439 . S
C1019 C389 1.402 . S
C1033 C297 1.415 . S
C1037 C411 1.413 . S
C1051 C365 1.443 . S
C1055 C318 1.403 . S
C1069 C16 1.372 . S
C1073 C17 1.374 . S
C1087 C40 1.371 . S
C1091 C39 1.368 . S
C1105 C62 1.374 . S
C1109 C63 1.376 . S
C1123 C85 1.372 . S
C1127 C86 1.375 . S
C1141 C108 1.374 . S
C1145 C109 1.377 . S
C1159 C132 1.372 . S
C1163 C131 1.369 . S
C1177 C154 1.373 . S
C1181 C155 1.374 . S
C1195 C178 1.370 . S
C1199 C177 1.368 . S
C1213 C200 1.374 . S
C1217 C201 1.376 . S
C1231 C223 1.373 . S
C1235 C224 1.377 . S
C1249 C246 1.370 . S
C1253 C247 1.373 . S
C1267 C269 1.368 . S
C1271 C270 1.372 . S
C1285 C293 1.373 . S
C1289 C292 1.371 . S
C1303 C316 1.377 . S
C1307 C315 1.375 . S
C1321 C338 1.366 . S
C1325 C339 1.368 . S
C1339 C362 1.381 . S
C1343 C361 1.379 . S
C1357 C384 1.372 . S
C1361 C385 1.374 . S
C1375 C407 1.376 . S
C1379 C408 1.378 . S
