# Generated by pormake.
# Topology umw, (4)-cn, num edge types: 1
# Building blocks:
#     Node 0, Type 0, BuildingBlock: KUFVIS_clean_sbu_0, # of connection points: 4
#     Node 1, Type 0, BuildingBlock: KUFVIS_clean_sbu_0, # of connection points: 4
#     Node 2, Type 0, BuildingBlock: KUFVIS_clean_sbu_0, # of connection points: 4
#     Node 3, Type 0, BuildingBlock: KUFVIS_clean_sbu_0, # of connection points: 4
#     Node 4, Type 0, BuildingBlock: KUFVIS_clean_sbu_0, # of connection points: 4
#     Node 5, Type 0, BuildingBlock: KUFVIS_clean_sbu_0, # of connection points: 4
#     Node 6, Type 0, BuildingBlock: KUFVIS_clean_sbu_0, # of connection points: 4
#     Node 7, Type 0, BuildingBlock: KUFVIS_clean_sbu_0, # of connection points: 4
#     Edge 8, Type (0, 0), None
#     Edge 9, Type (0, 0), None
#     Edge 10, Type (0, 0), None
#     Edge 11, Type (0, 0), None
#     Edge 12, Type (0, 0), None
#     Edge 13, Type (0, 0), None
#     Edge 14, Type (0, 0), None
#     Edge 15, Type (0, 0), None
#     Edge 16, Type (0, 0), None
#     Edge 17, Type (0, 0), None
#     Edge 18, Type (0, 0), None
#     Edge 19, Type (0, 0), None
#     Edge 20, Type (0, 0), None
#     Edge 21, Type (0, 0), None
#     Edge 22, Type (0, 0), None
#     Edge 23, Type (0, 0), None
# Relax obj value: 0.117
# Max RMSD: 0.103
# Mean RMSD: 0.103
data_MOF--net-umw--node1-KUFVIS_clean_sbu_0--edge1-none
_symmetry_space_group_name_H-M    P1
_symmetry_Int_Tables_number       1
_symmetry_cell_setting            triclinic
loop_
_symmetry_equiv_pos_as_xyz
'x, y, z'
_cell_length_a     19.002198
_cell_length_b     19.003082
_cell_length_c     11.697155
_cell_angle_alpha  89.999471
_cell_angle_beta   90.000565
_cell_angle_gamma 89.854477
loop_
_atom_site_label
_atom_site_type_symbol
_atom_site_fract_x
_atom_site_fract_y
_atom_site_fract_z
_atom_type_partial_charge
Mn0 Mn 0.42835 0.20618 0.32087 0.0
Mn1 Mn 0.59834 0.15297 0.28892 0.0
C2 C 0.49614 0.18778 0.47742 0.0
C3 C 0.34641 0.29744 0.37166 0.0
C4 C 0.47215 0.05444 0.27577 0.0
O5 O 0.45251 0.22156 0.14527 0.0
O6 O 0.56953 0.20021 0.14541 0.0
C7 C 0.67162 0.28926 0.28062 0.0
N8 N 0.66691 0.22242 0.31979 0.0
C9 C 0.78471 0.22493 0.39378 0.0
C10 C 0.79343 0.29161 0.34459 0.0
C11 C 0.73542 0.32517 0.29313 0.0
C12 C 0.71954 0.1924 0.38015 0.0
H13 H 0.62751 0.31377 0.23778 0.0
C14 C 0.51328 0.21818 0.09371 0.0
O15 O 0.32626 0.23687 0.33266 0.0
O16 O 0.4129 0.31006 0.35944 0.0
N17 N 0.63963 0.10303 0.41463 0.0
C18 C 0.6181 0.04383 0.46978 0.0
C19 C 0.66559 1.00728 0.54023 0.0
C20 C 0.73418 0.03301 0.55588 0.0
C21 C 0.75439 0.09555 0.50156 0.0
C22 C 0.70504 0.12892 0.43112 0.0
H23 H 0.56492 0.02555 0.46173 0.0
O24 O 0.42907 0.1908 0.48444 0.0
O25 O 0.52451 0.20054 0.37829 0.0
O26 O 0.42098 0.09602 0.29937 0.0
O27 O 0.53449 0.07641 0.25971 0.0
C28 C 0.82135 0.12638 0.51451 0.0
C29 C 0.83679 0.19075 0.4596 0.0
H30 H 0.84318 0.31889 0.35159 0.0
H31 H 0.73978 0.37806 0.26134 0.0
H32 H 0.64938 0.95927 0.582 0.0
H33 H 0.77049 1.00483 0.6108 0.0
H34 H 0.86099 0.10153 0.56755 0.0
H35 H 0.88794 0.21467 0.47179 0.0
Mn36 Mn 0.82499 0.42695 0.57046 0.0
Mn37 Mn 0.87612 0.59686 0.53711 0.0
C38 C 0.84258 0.49494 0.72672 0.0
C39 C 0.73434 0.34486 0.62133 0.0
C40 C 0.97588 0.47156 0.52379 0.0
O41 O 0.81029 0.45089 0.39445 0.0
O42 O 0.82721 0.56852 0.39506 0.0
C43 C 0.74017 0.67118 0.53115 0.0
N44 N 0.80692 0.66554 0.57052 0.0
C45 C 0.80523 0.78324 0.64505 0.0
C46 C 0.73851 0.79279 0.59613 0.0
C47 C 0.7047 0.73535 0.54398 0.0
C48 C 0.83748 0.71783 0.6306 0.0
H49 H 0.71543 0.62759 0.48764 0.0
C50 C 0.81181 0.51175 0.34295 0.0
O51 O 0.79515 0.32475 0.58275 0.0
O52 O 0.72115 0.41123 0.60812 0.0
N53 N 0.92718 0.63738 0.66217 0.0
C54 C 0.98639 0.61509 0.7168 0.0
C55 C 0.0235 0.66209 0.787 0.0
C56 C 0.99809 0.73085 0.80351 0.0
C57 C 0.93524 0.75168 0.75042 0.0
C58 C 0.9014 0.70283 0.67998 0.0
H59 H 1.00419 0.56168 0.70872 0.0
O60 O 0.83968 0.42792 0.73407 0.0
O61 O 0.82969 0.52308 0.62741 0.0
O62 O 0.93531 0.4204 0.55058 0.0
O63 O 0.95265 0.53312 0.50357 0.0
C64 C 0.90451 0.81875 0.76472 0.0
C65 C 0.83984 0.83482 0.71095 0.0
H66 H 0.71143 0.84274 0.60366 0.0
H67 H 0.65196 0.7404 0.5118 0.0
H68 H 0.07169 0.64538 0.82798 0.0
H69 H 0.02667 0.76676 0.85832 0.0
H70 H 0.92969 0.85799 0.81785 0.0
H71 H 0.8161 0.8861 0.7239 0.0
Mn72 Mn 0.60203 0.82432 0.82088 0.0
Mn73 Mn 0.43204 0.87754 0.78892 0.0
C74 C 0.53424 0.84272 -0.02258 0.0
C75 C 0.68396 0.73306 0.87167 0.0
C76 C 0.55823 0.97607 0.77578 0.0
O77 O 0.57786 0.80894 0.64527 0.0
O78 O 0.46085 0.8303 0.64541 0.0
C79 C 0.35876 0.74124 0.78062 0.0
N80 N 0.36347 0.80808 0.81978 0.0
C81 C 0.24566 0.80557 0.89376 0.0
C82 C 0.23695 0.73888 0.84457 0.0
C83 C 0.29496 0.70533 0.79313 0.0
C84 C 0.31083 0.8381 0.88013 0.0
H85 H 0.40287 0.71673 0.73779 0.0
C86 C 0.51709 0.81232 0.59372 0.0
O87 O 0.70411 0.79364 0.83266 0.0
O88 O 0.61748 0.72045 0.85944 0.0
N89 N 0.39075 0.92747 0.91463 0.0
C90 C 0.41227 0.98667 -0.03022 0.0
C91 C 0.36478 0.02321 0.04023 0.0
C92 C 0.29619 0.99748 0.05587 0.0
C93 C 0.27598 0.93494 0.00155 0.0
C94 C 0.32533 0.90158 0.93112 0.0
H95 H 0.46544 1.00495 0.96174 0.0
O96 O 0.6013 0.8397 -0.01555 0.0
O97 O 0.50587 0.82996 0.87829 0.0
O98 O 0.6094 0.93449 0.79937 0.0
O99 O 0.49588 0.9541 0.75973 0.0
C100 C 0.20902 0.90411 0.0145 0.0
C101 C 0.19358 0.83975 0.95959 0.0
H102 H 0.1872 0.7116 0.85157 0.0
H103 H 0.2906 0.65243 0.76133 0.0
H104 H 0.38098 0.07122 0.082 0.0
H105 H 0.25987 0.02566 0.11079 0.0
H106 H 0.16938 0.92896 0.06753 0.0
H107 H 0.14243 0.81582 -0.02823 0.0
Mn108 Mn 0.20538 0.60355 0.07046 0.0
Mn109 Mn 0.15425 0.43364 0.03712 0.0
C110 C 0.1878 0.53556 0.22671 0.0
C111 C 0.29604 0.68564 0.12133 0.0
C112 C 0.05449 0.55894 0.0238 0.0
O113 O 0.22009 0.57961 0.89445 0.0
O114 O 0.20315 0.46198 0.89505 0.0
C115 C 0.29021 0.35932 0.03113 0.0
N116 N 0.22346 0.36496 0.07051 0.0
C117 C 0.22517 0.24726 0.14503 0.0
C118 C 0.29188 0.23772 0.09611 0.0
C119 C 0.32569 0.29516 0.04396 0.0
C120 C 0.19291 0.31267 0.13058 0.0
H121 H 0.31494 0.40292 -0.01237 0.0
C122 C 0.21856 0.51875 0.84295 0.0
O123 O 0.23523 0.70575 0.08274 0.0
O124 O 0.30922 0.61927 0.10812 0.0
N125 N 0.10321 0.39311 0.16218 0.0
C126 C 0.044 0.41539 0.21681 0.0
C127 C 1.00689 0.36838 0.28702 0.0
C128 C 0.03231 0.29962 0.30352 0.0
C129 C 0.09516 0.2788 0.25041 0.0
C130 C 0.12899 0.32766 0.17998 0.0
H131 H 0.02619 0.4688 0.20874 0.0
O132 O 0.1907 0.60258 0.23406 0.0
O133 O 0.20069 0.50741 0.12741 0.0
O134 O 0.09507 0.6101 0.05056 0.0
O135 O 0.07772 0.49738 0.0036 0.0
C136 C 0.12589 0.21174 0.26471 0.0
C137 C 0.19056 0.19567 0.21093 0.0
H138 H 0.31896 0.18776 0.10363 0.0
H139 H 0.37843 0.29012 0.01179 0.0
H140 H 0.9587 0.3851 0.328 0.0
H141 H 1.00373 0.26371 0.35833 0.0
H142 H 0.10071 0.17249 0.31784 0.0
H143 H 0.2143 0.14439 0.22388 0.0
Mn144 Mn 0.42678 0.82503 0.23688 0.0
Mn145 Mn 0.59667 0.87607 0.27042 0.0
C146 C 0.49478 0.84257 0.08067 0.0
C147 C 0.34472 0.73435 0.18614 0.0
C148 C 0.47143 0.97583 0.28376 0.0
O149 O 0.4507 0.81051 0.41296 0.0
O150 O 0.56842 0.82685 0.41225 0.0
C151 C 0.67123 0.74025 0.27598 0.0
N152 N 0.66542 0.807 0.23664 0.0
C153 C 0.78313 0.80559 0.16212 0.0
C154 C 0.79284 0.73889 0.211 0.0
C155 C 0.73549 0.70495 0.26318 0.0
C156 C 0.71765 0.83771 0.17666 0.0
H157 H 0.62769 0.71541 0.31949 0.0
C158 C 0.51159 0.81179 0.46442 0.0
O159 O 0.32458 0.79518 0.2246 0.0
O160 O 0.41108 0.72116 0.19945 0.0
N161 N 0.63708 0.92735 0.14549 0.0
C162 C 0.61465 0.98653 0.09092 0.0
C163 C 0.66157 0.02378 0.02077 0.0
C164 C 0.73038 0.99851 0.00417 0.0
C165 C 0.75133 0.93565 0.05711 0.0
C166 C 0.70256 0.90168 0.12752 0.0
H167 H 0.56119 1.00418 0.09897 0.0
O168 O 0.42776 0.83959 0.07325 0.0
O169 O 0.52292 0.82971 0.17998 0.0
O170 O 0.42029 0.93535 0.25649 0.0
O171 O 0.53287 0.95249 0.30461 0.0
C172 C 0.81844 0.90503 0.04264 0.0
C173 C 0.83463 0.84034 0.09624 0.0
H174 H 0.84285 0.71192 0.20345 0.0
H175 H 0.74068 0.65225 0.29543 0.0
H176 H 0.64476 0.07196 -0.02013 0.0
H177 H 0.76622 0.02719 0.94939 0.0
H178 H 0.85762 0.93032 -0.01047 0.0
H179 H 0.88595 0.81671 0.08321 0.0
Mn180 Mn 0.20618 0.42831 0.48647 0.0
Mn181 Mn 0.15305 0.59828 0.51859 0.0
C182 C 0.18783 0.4961 0.32996 0.0
C183 C 0.29745 0.34638 0.43581 0.0
C184 C 0.0545 0.47215 0.53178 0.0
O185 O 0.22138 0.45245 0.66214 0.0
O186 O 0.20057 0.56957 0.6619 0.0
C187 C 0.28924 0.67176 0.52652 0.0
N188 N 0.2224 0.6669 0.48736 0.0
C189 C 0.22463 0.78471 0.41341 0.0
C190 C 0.29131 0.79358 0.46257 0.0
C191 C 0.325 0.73565 0.51404 0.0
C192 C 0.19223 0.71948 0.4271 0.0
H193 H 0.31385 0.62772 0.56936 0.0
C194 C 0.21824 0.51325 0.71365 0.0
O195 O 0.23685 0.32623 0.47471 0.0
O196 O 0.31008 0.41286 0.44814 0.0
N197 N 0.10291 0.63945 0.39299 0.0
C198 C 0.04372 0.6178 0.33792 0.0
C199 C 1.00704 0.66521 0.2675 0.0
C200 C 0.03264 0.73385 0.25178 0.0
C201 C 0.0952 0.75417 0.30594 0.0
C202 C 0.1287 0.70489 0.37634 0.0
H203 H 0.02556 0.56459 0.34596 0.0
O204 O 0.19093 0.42905 0.32288 0.0
O205 O 0.20055 0.52446 0.42911 0.0
O206 O 0.09599 0.421 0.5077 0.0
O207 O 0.07656 0.53441 0.54837 0.0
C208 C 0.12593 0.82117 0.29286 0.0
C209 C 0.19032 0.83672 0.34762 0.0
H210 H 0.31848 0.84338 0.45555 0.0
H211 H 0.37786 0.74014 0.5459 0.0
H212 H 0.95903 0.64892 0.22583 0.0
H213 H 1.00436 0.7701 0.19689 0.0
H214 H 0.10097 0.86075 0.23985 0.0
H215 H 0.21414 0.8879 0.33537 0.0
Mn216 Mn 0.60359 0.20548 0.73688 0.0
Mn217 Mn 0.4337 0.15443 0.77042 0.0
C218 C 0.5356 0.18793 0.58067 0.0
C219 C 0.68566 0.29615 0.68614 0.0
C220 C 0.55895 0.05468 0.78377 0.0
O221 O 0.57968 0.21999 0.91296 0.0
O222 O 0.46195 0.20366 0.91224 0.0
C223 C 0.35914 0.29025 0.77597 0.0
N224 N 0.36496 0.2235 0.73663 0.0
C225 C 0.24725 0.2249 0.66211 0.0
C226 C 0.23753 0.29159 0.71099 0.0
C227 C 0.29488 0.32554 0.76317 0.0
C228 C 0.31272 0.19278 0.67665 0.0
H229 H 0.40267 0.31509 0.81948 0.0
C230 C 0.51879 0.21871 0.96442 0.0
O231 O 0.7058 0.23532 0.7246 0.0
O232 O 0.6193 0.30934 0.69945 0.0
N233 N 0.3933 0.10315 0.64549 0.0
C234 C 0.41573 0.04397 0.59093 0.0
C235 C 0.36882 1.00671 0.52077 0.0
C236 C 0.30001 0.03198 0.50418 0.0
C237 C 0.27905 0.09484 0.5571 0.0
C238 C 0.32782 0.12882 0.62751 0.0
H239 H 0.4692 0.02632 0.59898 0.0
O240 O 0.60261 0.19092 0.57325 0.0
O241 O 0.50746 0.20079 0.67998 0.0
O242 O 0.61008 0.09516 0.75649 0.0
O243 O 0.4975 0.07802 0.80463 0.0
C244 C 0.21195 0.12546 0.54264 0.0
C245 C 0.19575 0.19014 0.59623 0.0
H246 H 0.18751 0.31856 0.70343 0.0
H247 H 0.28968 0.37824 0.79543 0.0
H248 H 0.38564 0.95854 0.47988 0.0
H249 H 0.26416 1.0033 0.4494 0.0
H250 H 0.17276 0.10016 0.48952 0.0
H251 H 0.14442 0.21378 0.58319 0.0
Mn252 Mn 0.8242 0.60219 -0.01353 0.0
Mn253 Mn 0.87732 0.43223 0.0186 0.0
C254 C 0.84255 0.5344 0.82996 0.0
C255 C 0.73293 0.68412 0.93581 0.0
C256 C 0.97588 0.55835 0.03179 0.0
O257 O 0.809 0.57805 0.16214 0.0
O258 O 0.8298 0.46093 0.16191 0.0
C259 C 0.74114 0.35874 0.02652 0.0
N260 N 0.80798 0.3636 -0.01264 0.0
C261 C 0.80575 0.24579 0.9134 0.0
C262 C 0.73908 0.23692 0.96256 0.0
C263 C 0.70539 0.29485 0.01403 0.0
C264 C 0.83815 0.31102 0.9271 0.0
H265 H 0.71653 0.40278 0.06936 0.0
C266 C 0.81214 0.51725 0.21365 0.0
O267 O 0.79353 0.70427 -0.02529 0.0
O268 O 0.7203 0.61765 0.94814 0.0
N269 N 0.92748 0.39106 0.893 0.0
C270 C 0.98666 0.41271 0.83794 0.0
C271 C 0.02334 0.3653 0.76752 0.0
C272 C 0.99775 0.29667 0.75179 0.0
C273 C 0.93518 0.27634 0.80595 0.0
C274 C 0.90169 0.32562 0.87635 0.0
H275 H 1.00481 0.46593 0.84598 0.0
O276 O 0.83944 0.60146 0.82288 0.0
O277 O 0.82982 0.50604 0.92911 0.0
O278 O 0.93438 0.6095 0.00769 0.0
O279 O 0.95381 0.49609 0.0484 0.0
C280 C 0.90446 0.20935 0.79286 0.0
C281 C 0.84007 0.19379 0.84762 0.0
H282 H 0.71191 0.18712 0.95555 0.0
H283 H 0.65252 0.29035 0.0459 0.0
H284 H 0.07135 0.3816 0.72585 0.0
H285 H 0.02603 0.26042 0.6969 0.0
H286 H 0.92942 0.16977 0.73985 0.0
H287 H 0.81625 0.1426 0.83537 0.0
loop_
_geom_bond_atom_site_label_1
_geom_bond_atom_site_label_2
_geom_bond_distance
_geom_bond_site_symmetry_2
_ccdc_geom_bond_type
Mn0 O5 2.095 . S
Mn0 O15 2.162 . S
Mn0 O16 2.297 . S
Mn0 O24 2.385 . S
Mn0 O25 2.209 . S
Mn0 O26 2.094 . S
Mn1 O6 2.121 . S
Mn1 N8 2.257 . S
Mn1 N17 2.282 . S
Mn1 O25 2.215 . S
Mn1 O27 2.117 . S
C2 O24 1.234 . S
C2 O25 1.283 . S
C3 O15 1.281 . S
C3 O16 1.236 . S
C4 O26 1.240 . S
C4 O27 1.264 . S
O5 Mn0 2.095 . S
O5 C14 1.250 . S
O6 Mn1 2.121 . S
O6 C14 1.258 . S
C7 N8 1.326 . S
C7 C11 1.460 . S
C7 H13 0.929 . S
N8 Mn1 2.257 . S
N8 C7 1.326 . S
N8 C12 1.362 . S
C9 C10 1.258 . S
C9 C12 1.431 . S
C9 C29 1.449 . S
C10 C9 1.258 . S
C10 C11 1.477 . S
C10 H30 0.931 . S
C11 C7 1.460 . S
C11 C10 1.477 . S
C11 H31 0.930 . S
C12 N8 1.362 . S
C12 C9 1.431 . S
C12 C22 1.476 . S
H13 C7 0.929 . S
C14 O5 1.250 . S
C14 O6 1.258 . S
O15 Mn0 2.162 . S
O15 C3 1.281 . S
O16 Mn0 2.297 . S
O16 C3 1.236 . S
N17 Mn1 2.282 . S
N17 C18 1.328 . S
N17 C22 1.318 . S
C18 N17 1.328 . S
C18 C19 1.457 . S
C18 H23 0.929 . S
C19 C18 1.457 . S
C19 C20 1.291 . S
C19 H32 0.931 1_545 S
C20 C19 1.291 . S
C20 C21 1.373 . S
C20 H33 0.929 . S
C21 C20 1.373 . S
C21 C22 1.396 . S
C21 C28 1.403 . S
C22 C12 1.476 . S
C22 N17 1.318 . S
C22 C21 1.396 . S
H23 C18 0.929 . S
O24 Mn0 2.385 . S
O24 C2 1.234 . S
O25 Mn0 2.209 . S
O25 Mn1 2.215 . S
O25 C2 1.283 . S
O26 Mn0 2.094 . S
O26 C4 1.240 . S
O27 Mn1 2.117 . S
O27 C4 1.264 . S
C28 C21 1.403 . S
C28 C29 1.399 . S
C28 H34 0.929 . S
C29 C9 1.449 . S
C29 C28 1.399 . S
C29 H35 0.930 . S
H30 C10 0.931 . S
H31 C11 0.930 . S
H32 C19 0.931 1_565 S
H33 C20 0.929 . S
H34 C28 0.929 . S
H35 C29 0.930 . S
Mn36 O41 2.095 . S
Mn36 O51 2.162 . S
Mn36 O52 2.297 . S
Mn36 O60 2.385 . S
Mn36 O61 2.209 . S
Mn36 O62 2.094 . S
Mn37 O42 2.121 . S
Mn37 N44 2.257 . S
Mn37 N53 2.282 . S
Mn37 O61 2.215 . S
Mn37 O63 2.117 . S
C38 O60 1.234 . S
C38 O61 1.283 . S
C39 O51 1.281 . S
C39 O52 1.236 . S
C40 O62 1.240 . S
C40 O63 1.264 . S
O41 Mn36 2.095 . S
O41 C50 1.250 . S
O42 Mn37 2.121 . S
O42 C50 1.258 . S
C43 N44 1.326 . S
C43 C47 1.460 . S
C43 H49 0.929 . S
N44 Mn37 2.257 . S
N44 C43 1.326 . S
N44 C48 1.362 . S
C45 C46 1.258 . S
C45 C48 1.431 . S
C45 C65 1.449 . S
C46 C45 1.258 . S
C46 C47 1.477 . S
C46 H66 0.931 . S
C47 C43 1.460 . S
C47 C46 1.477 . S
C47 H67 0.930 . S
C48 N44 1.362 . S
C48 C45 1.431 . S
C48 C58 1.476 . S
H49 C43 0.929 . S
C50 O41 1.250 . S
C50 O42 1.258 . S
O51 Mn36 2.162 . S
O51 C39 1.281 . S
O52 Mn36 2.297 . S
O52 C39 1.236 . S
N53 Mn37 2.282 . S
N53 C54 1.328 . S
N53 C58 1.318 . S
C54 N53 1.328 . S
C54 C55 1.457 . S
C54 H59 0.929 . S
C55 C54 1.457 . S
C55 C56 1.291 . S
C55 H68 0.931 1_655 S
C56 C55 1.291 . S
C56 C57 1.373 . S
C56 H69 0.929 1_556 S
C57 C56 1.373 . S
C57 C58 1.396 . S
C57 C64 1.403 . S
C58 C48 1.476 . S
C58 N53 1.318 . S
C58 C57 1.396 . S
H59 C54 0.929 . S
O60 Mn36 2.385 . S
O60 C38 1.234 . S
O61 Mn36 2.209 . S
O61 Mn37 2.215 . S
O61 C38 1.283 . S
O62 Mn36 2.094 . S
O62 C40 1.240 . S
O63 Mn37 2.117 . S
O63 C40 1.264 . S
C64 C57 1.403 . S
C64 C65 1.399 . S
C64 H70 0.929 . S
C65 C45 1.449 . S
C65 C64 1.399 . S
C65 H71 0.930 . S
H66 C46 0.931 . S
H67 C47 0.930 . S
H68 C55 0.931 1_455 S
H69 C56 0.929 1_554 S
H70 C64 0.929 . S
H71 C65 0.930 . S
Mn72 O77 2.095 . S
Mn72 O87 2.162 . S
Mn72 O88 2.297 . S
Mn72 O96 2.385 1_556 S
Mn72 O97 2.209 . S
Mn72 O98 2.094 . S
Mn73 O78 2.121 . S
Mn73 N80 2.257 . S
Mn73 N89 2.282 . S
Mn73 O97 2.215 . S
Mn73 O99 2.117 . S
C74 O96 1.234 . S
C74 O97 1.283 1_554 S
C75 O87 1.281 . S
C75 O88 1.236 . S
C76 O98 1.240 . S
C76 O99 1.264 . S
O77 Mn72 2.095 . S
O77 C86 1.250 . S
O78 Mn73 2.121 . S
O78 C86 1.258 . S
C79 N80 1.326 . S
C79 C83 1.460 . S
C79 H85 0.929 . S
N80 Mn73 2.257 . S
N80 C79 1.326 . S
N80 C84 1.362 . S
C81 C82 1.258 . S
C81 C84 1.431 . S
C81 C101 1.449 1_556 S
C82 C81 1.258 . S
C82 C83 1.477 . S
C82 H102 0.931 . S
C83 C79 1.460 . S
C83 C82 1.477 . S
C83 H103 0.930 . S
C84 N80 1.362 . S
C84 C81 1.431 . S
C84 C94 1.476 1_556 S
H85 C79 0.929 . S
C86 O77 1.250 . S
C86 O78 1.258 . S
O87 Mn72 2.162 . S
O87 C75 1.281 . S
O88 Mn72 2.297 . S
O88 C75 1.236 . S
N89 Mn73 2.282 . S
N89 C90 1.328 1_556 S
N89 C94 1.318 1_556 S
C90 N89 1.328 1_554 S
C90 C91 1.457 . S
C90 H95 0.929 . S
C91 C90 1.457 . S
C91 C92 1.291 . S
C91 H104 0.931 1_565 S
C92 C91 1.291 . S
C92 C93 1.373 . S
C92 H105 0.929 . S
C93 C92 1.373 . S
C93 C94 1.396 . S
C93 C100 1.403 . S
C94 C84 1.476 1_554 S
C94 N89 1.318 1_554 S
C94 C93 1.396 . S
H95 C90 0.929 . S
O96 Mn72 2.385 1_554 S
O96 C74 1.234 . S
O97 Mn72 2.209 . S
O97 Mn73 2.215 . S
O97 C74 1.283 1_556 S
O98 Mn72 2.094 . S
O98 C76 1.240 . S
O99 Mn73 2.117 . S
O99 C76 1.264 . S
C100 C93 1.403 . S
C100 C101 1.399 . S
C100 H106 0.929 . S
C101 C81 1.449 1_554 S
C101 C100 1.399 . S
C101 H107 0.930 . S
H102 C82 0.931 . S
H103 C83 0.930 . S
H104 C91 0.931 1_545 S
H105 C92 0.929 . S
H106 C100 0.929 . S
H107 C101 0.930 . S
Mn108 O113 2.095 1_554 S
Mn108 O123 2.162 . S
Mn108 O124 2.297 . S
Mn108 O132 2.385 . S
Mn108 O133 2.209 . S
Mn108 O134 2.094 . S
Mn109 O114 2.121 1_554 S
Mn109 N116 2.257 . S
Mn109 N125 2.282 . S
Mn109 O133 2.215 . S
Mn109 O135 2.117 . S
C110 O132 1.234 . S
C110 O133 1.283 . S
C111 O123 1.281 . S
C111 O124 1.236 . S
C112 O134 1.240 . S
C112 O135 1.264 . S
O113 Mn108 2.095 1_556 S
O113 C122 1.250 . S
O114 Mn109 2.121 1_556 S
O114 C122 1.258 . S
C115 N116 1.326 . S
C115 C119 1.460 . S
C115 H121 0.929 1_554 S
N116 Mn109 2.257 . S
N116 C115 1.326 . S
N116 C120 1.362 . S
C117 C118 1.258 . S
C117 C120 1.431 . S
C117 C137 1.449 . S
C118 C117 1.258 . S
C118 C119 1.477 . S
C118 H138 0.931 . S
C119 C115 1.460 . S
C119 C118 1.477 . S
C119 H139 0.930 . S
C120 N116 1.362 . S
C120 C117 1.431 . S
C120 C130 1.476 . S
H121 C115 0.929 1_556 S
C122 O113 1.250 . S
C122 O114 1.258 . S
O123 Mn108 2.162 . S
O123 C111 1.281 . S
O124 Mn108 2.297 . S
O124 C111 1.236 . S
N125 Mn109 2.282 . S
N125 C126 1.328 . S
N125 C130 1.318 . S
C126 N125 1.328 . S
C126 C127 1.457 . S
C126 H131 0.929 . S
C127 C126 1.457 . S
C127 C128 1.291 . S
C127 H140 0.931 1_455 S
C128 C127 1.291 . S
C128 C129 1.373 . S
C128 H141 0.929 . S
C129 C128 1.373 . S
C129 C130 1.396 . S
C129 C136 1.403 . S
C130 C120 1.476 . S
C130 N125 1.318 . S
C130 C129 1.396 . S
H131 C126 0.929 . S
O132 Mn108 2.385 . S
O132 C110 1.234 . S
O133 Mn108 2.209 . S
O133 Mn109 2.215 . S
O133 C110 1.283 . S
O134 Mn108 2.094 . S
O134 C112 1.240 . S
O135 Mn109 2.117 . S
O135 C112 1.264 . S
C136 C129 1.403 . S
C136 C137 1.399 . S
C136 H142 0.929 . S
C137 C117 1.449 . S
C137 C136 1.399 . S
C137 H143 0.930 . S
H138 C118 0.931 . S
H139 C119 0.930 . S
H140 C127 0.931 1_655 S
H141 C128 0.929 . S
H142 C136 0.929 . S
H143 C137 0.930 . S
Mn144 O149 2.095 . S
Mn144 O159 2.162 . S
Mn144 O160 2.297 . S
Mn144 O168 2.385 . S
Mn144 O169 2.209 . S
Mn144 O170 2.094 . S
Mn145 O150 2.121 . S
Mn145 N152 2.257 . S
Mn145 N161 2.282 . S
Mn145 O169 2.215 . S
Mn145 O171 2.117 . S
C146 O168 1.234 . S
C146 O169 1.283 . S
C147 O159 1.281 . S
C147 O160 1.236 . S
C148 O170 1.240 . S
C148 O171 1.264 . S
O149 Mn144 2.095 . S
O149 C158 1.250 . S
O150 Mn145 2.121 . S
O150 C158 1.258 . S
C151 N152 1.326 . S
C151 C155 1.460 . S
C151 H157 0.929 . S
N152 Mn145 2.257 . S
N152 C151 1.326 . S
N152 C156 1.362 . S
C153 C154 1.258 . S
C153 C156 1.431 . S
C153 C173 1.449 . S
C154 C153 1.258 . S
C154 C155 1.477 . S
C154 H174 0.931 . S
C155 C151 1.460 . S
C155 C154 1.477 . S
C155 H175 0.930 . S
C156 N152 1.362 . S
C156 C153 1.431 . S
C156 C166 1.476 . S
H157 C151 0.929 . S
C158 O149 1.250 . S
C158 O150 1.258 . S
O159 Mn144 2.162 . S
O159 C147 1.281 . S
O160 Mn144 2.297 . S
O160 C147 1.236 . S
N161 Mn145 2.282 . S
N161 C162 1.328 . S
N161 C166 1.318 . S
C162 N161 1.328 . S
C162 C163 1.457 1_554 S
C162 H167 0.929 . S
C163 C162 1.457 1_556 S
C163 C164 1.291 . S
C163 H176 0.931 1_565 S
C164 C163 1.291 . S
C164 C165 1.373 . S
C164 H177 0.929 . S
C165 C164 1.373 . S
C165 C166 1.396 1_556 S
C165 C172 1.403 . S
C166 C156 1.476 . S
C166 N161 1.318 . S
C166 C165 1.396 1_554 S
H167 C162 0.929 . S
O168 Mn144 2.385 . S
O168 C146 1.234 . S
O169 Mn144 2.209 . S
O169 Mn145 2.215 . S
O169 C146 1.283 . S
O170 Mn144 2.094 . S
O170 C148 1.240 . S
O171 Mn145 2.117 . S
O171 C148 1.264 . S
C172 C165 1.403 . S
C172 C173 1.399 1_556 S
C172 H178 0.929 . S
C173 C153 1.449 . S
C173 C172 1.399 1_554 S
C173 H179 0.930 . S
H174 C154 0.931 . S
H175 C155 0.930 . S
H176 C163 0.931 1_545 S
H177 C164 0.929 . S
H178 C172 0.929 . S
H179 C173 0.930 . S
Mn180 O185 2.095 . S
Mn180 O195 2.162 . S
Mn180 O196 2.297 . S
Mn180 O204 2.385 . S
Mn180 O205 2.209 . S
Mn180 O206 2.094 . S
Mn181 O186 2.121 . S
Mn181 N188 2.257 . S
Mn181 N197 2.282 . S
Mn181 O205 2.215 . S
Mn181 O207 2.117 . S
C182 O204 1.234 . S
C182 O205 1.283 . S
C183 O195 1.281 . S
C183 O196 1.236 . S
C184 O206 1.240 . S
C184 O207 1.264 . S
O185 Mn180 2.095 . S
O185 C194 1.250 . S
O186 Mn181 2.121 . S
O186 C194 1.258 . S
C187 N188 1.326 . S
C187 C191 1.460 . S
C187 H193 0.929 . S
N188 Mn181 2.257 . S
N188 C187 1.326 . S
N188 C192 1.362 . S
C189 C190 1.258 . S
C189 C192 1.431 . S
C189 C209 1.449 . S
C190 C189 1.258 . S
C190 C191 1.477 . S
C190 H210 0.931 . S
C191 C187 1.460 . S
C191 C190 1.477 . S
C191 H211 0.930 . S
C192 N188 1.362 . S
C192 C189 1.431 . S
C192 C202 1.476 . S
H193 C187 0.929 . S
C194 O185 1.250 . S
C194 O186 1.258 . S
O195 Mn180 2.162 . S
O195 C183 1.281 . S
O196 Mn180 2.297 . S
O196 C183 1.236 . S
N197 Mn181 2.282 . S
N197 C198 1.328 . S
N197 C202 1.318 . S
C198 N197 1.328 . S
C198 C199 1.457 . S
C198 H203 0.929 . S
C199 C198 1.457 . S
C199 C200 1.291 . S
C199 H212 0.931 1_455 S
C200 C199 1.291 . S
C200 C201 1.373 . S
C200 H213 0.929 . S
C201 C200 1.373 . S
C201 C202 1.396 . S
C201 C208 1.403 . S
C202 C192 1.476 . S
C202 N197 1.318 . S
C202 C201 1.396 . S
H203 C198 0.929 . S
O204 Mn180 2.385 . S
O204 C182 1.234 . S
O205 Mn180 2.209 . S
O205 Mn181 2.215 . S
O205 C182 1.283 . S
O206 Mn180 2.094 . S
O206 C184 1.240 . S
O207 Mn181 2.117 . S
O207 C184 1.264 . S
C208 C201 1.403 . S
C208 C209 1.399 . S
C208 H214 0.929 . S
C209 C189 1.449 . S
C209 C208 1.399 . S
C209 H215 0.930 . S
H210 C190 0.931 . S
H211 C191 0.930 . S
H212 C199 0.931 1_655 S
H213 C200 0.929 . S
H214 C208 0.929 . S
H215 C209 0.930 . S
Mn216 O221 2.095 . S
Mn216 O231 2.162 . S
Mn216 O232 2.297 . S
Mn216 O240 2.385 . S
Mn216 O241 2.209 . S
Mn216 O242 2.094 . S
Mn217 O222 2.121 . S
Mn217 N224 2.257 . S
Mn217 N233 2.282 . S
Mn217 O241 2.215 . S
Mn217 O243 2.117 . S
C218 O240 1.234 . S
C218 O241 1.283 . S
C219 O231 1.281 . S
C219 O232 1.236 . S
C220 O242 1.240 . S
C220 O243 1.264 . S
O221 Mn216 2.095 . S
O221 C230 1.250 1_556 S
O222 Mn217 2.121 . S
O222 C230 1.258 1_556 S
C223 N224 1.326 . S
C223 C227 1.460 . S
C223 H229 0.929 . S
N224 Mn217 2.257 . S
N224 C223 1.326 . S
N224 C228 1.362 . S
C225 C226 1.258 . S
C225 C228 1.431 . S
C225 C245 1.449 . S
C226 C225 1.258 . S
C226 C227 1.477 . S
C226 H246 0.931 . S
C227 C223 1.460 . S
C227 C226 1.477 . S
C227 H247 0.930 . S
C228 N224 1.362 . S
C228 C225 1.431 . S
C228 C238 1.476 . S
H229 C223 0.929 . S
C230 O221 1.250 1_554 S
C230 O222 1.258 1_554 S
O231 Mn216 2.162 . S
O231 C219 1.281 . S
O232 Mn216 2.297 . S
O232 C219 1.236 . S
N233 Mn217 2.282 . S
N233 C234 1.328 . S
N233 C238 1.318 . S
C234 N233 1.328 . S
C234 C235 1.457 . S
C234 H239 0.929 . S
C235 C234 1.457 . S
C235 C236 1.291 . S
C235 H248 0.931 1_545 S
C236 C235 1.291 . S
C236 C237 1.373 . S
C236 H249 0.929 . S
C237 C236 1.373 . S
C237 C238 1.396 . S
C237 C244 1.403 . S
C238 C228 1.476 . S
C238 N233 1.318 . S
C238 C237 1.396 . S
H239 C234 0.929 . S
O240 Mn216 2.385 . S
O240 C218 1.234 . S
O241 Mn216 2.209 . S
O241 Mn217 2.215 . S
O241 C218 1.283 . S
O242 Mn216 2.094 . S
O242 C220 1.240 . S
O243 Mn217 2.117 . S
O243 C220 1.264 . S
C244 C237 1.403 . S
C244 C245 1.399 . S
C244 H250 0.929 . S
C245 C225 1.449 . S
C245 C244 1.399 . S
C245 H251 0.930 . S
H246 C226 0.931 . S
H247 C227 0.930 . S
H248 C235 0.931 1_565 S
H249 C236 0.929 . S
H250 C244 0.929 . S
H251 C245 0.930 . S
Mn252 O257 2.095 . S
Mn252 O267 2.162 . S
Mn252 O268 2.297 . S
Mn252 O276 2.385 1_554 S
Mn252 O277 2.209 1_554 S
Mn252 O278 2.094 . S
Mn253 O258 2.121 . S
Mn253 N260 2.257 . S
Mn253 N269 2.282 1_554 S
Mn253 O277 2.215 1_554 S
Mn253 O279 2.117 . S
C254 O276 1.234 . S
C254 O277 1.283 . S
C255 O267 1.281 . S
C255 O268 1.236 . S
C256 O278 1.240 . S
C256 O279 1.264 . S
O257 Mn252 2.095 . S
O257 C266 1.250 . S
O258 Mn253 2.121 . S
O258 C266 1.258 . S
C259 N260 1.326 . S
C259 C263 1.460 . S
C259 H265 0.929 . S
N260 Mn253 2.257 . S
N260 C259 1.326 . S
N260 C264 1.362 1_554 S
C261 C262 1.258 . S
C261 C264 1.431 . S
C261 C281 1.449 . S
C262 C261 1.258 . S
C262 C263 1.477 1_556 S
C262 H282 0.931 . S
C263 C259 1.460 . S
C263 C262 1.477 1_554 S
C263 H283 0.930 . S
C264 N260 1.362 1_556 S
C264 C261 1.431 . S
C264 C274 1.476 . S
H265 C259 0.929 . S
C266 O257 1.250 . S
C266 O258 1.258 . S
O267 Mn252 2.162 . S
O267 C255 1.281 . S
O268 Mn252 2.297 . S
O268 C255 1.236 . S
N269 Mn253 2.282 1_556 S
N269 C270 1.328 . S
N269 C274 1.318 . S
C270 N269 1.328 . S
C270 C271 1.457 . S
C270 H275 0.929 . S
C271 C270 1.457 . S
C271 C272 1.291 . S
C271 H284 0.931 1_655 S
C272 C271 1.291 . S
C272 C273 1.373 . S
C272 H285 0.929 . S
C273 C272 1.373 . S
C273 C274 1.396 . S
C273 C280 1.403 . S
C274 C264 1.476 . S
C274 N269 1.318 . S
C274 C273 1.396 . S
H275 C270 0.929 . S
O276 Mn252 2.385 1_556 S
O276 C254 1.234 . S
O277 Mn252 2.209 1_556 S
O277 Mn253 2.215 1_556 S
O277 C254 1.283 . S
O278 Mn252 2.094 . S
O278 C256 1.240 . S
O279 Mn253 2.117 . S
O279 C256 1.264 . S
C280 C273 1.403 . S
C280 C281 1.399 . S
C280 H286 0.929 . S
C281 C261 1.449 . S
C281 C280 1.399 . S
C281 H287 0.930 . S
H282 C262 0.931 . S
H283 C263 0.930 . S
H284 C271 0.931 1_455 S
H285 C272 0.929 . S
H286 C280 0.929 . S
H287 C281 0.930 . S
C2 C218 0.882 . S
C38 C254 0.882 . S
C146 C74 0.882 . S
C182 C110 0.882 . S
C3 C183 1.830 . S
C39 C219 1.830 . S
C255 C75 1.830 1_554 S
C111 C147 1.830 . S
C148 C4 1.435 1_565 S
C40 C184 1.435 1_655 S
C76 C220 1.435 1_565 S
C256 C112 1.435 1_655 S
C230 C14 1.155 . S
C266 C50 1.155 . S
C86 C158 1.155 . S
C122 C194 1.155 . S
