# Generated by pormake.
# Topology dei, (4)-cn, num edge types: 1
# Building blocks:
#     Node 0, Type 0, BuildingBlock: NAHDIM_clean_sbu_0, # of connection points: 4
#     Node 1, Type 0, BuildingBlock: NAHDIM_clean_sbu_0, # of connection points: 4
#     Node 2, Type 0, BuildingBlock: NAHDIM_clean_sbu_0, # of connection points: 4
#     Node 3, Type 0, BuildingBlock: NAHDIM_clean_sbu_0, # of connection points: 4
#     Node 4, Type 0, BuildingBlock: NAHDIM_clean_sbu_0, # of connection points: 4
#     Node 5, Type 0, BuildingBlock: NAHDIM_clean_sbu_0, # of connection points: 4
#     Node 6, Type 0, BuildingBlock: NAHDIM_clean_sbu_0, # of connection points: 4
#     Node 7, Type 0, BuildingBlock: NAHDIM_clean_sbu_0, # of connection points: 4
#     Node 8, Type 0, BuildingBlock: NAHDIM_clean_sbu_0, # of connection points: 4
#     Node 9, Type 0, BuildingBlock: NAHDIM_clean_sbu_0, # of connection points: 4
#     Node 10, Type 0, BuildingBlock: NAHDIM_clean_sbu_0, # of connection points: 4
#     Node 11, Type 0, BuildingBlock: NAHDIM_clean_sbu_0, # of connection points: 4
#     Node 12, Type 0, BuildingBlock: NAHDIM_clean_sbu_0, # of connection points: 4
#     Node 13, Type 0, BuildingBlock: NAHDIM_clean_sbu_0, # of connection points: 4
#     Node 14, Type 0, BuildingBlock: NAHDIM_clean_sbu_0, # of connection points: 4
#     Node 15, Type 0, BuildingBlock: NAHDIM_clean_sbu_0, # of connection points: 4
#     Node 16, Type 0, BuildingBlock: NAHDIM_clean_sbu_0, # of connection points: 4
#     Node 17, Type 0, BuildingBlock: NAHDIM_clean_sbu_0, # of connection points: 4
#     Node 18, Type 0, BuildingBlock: NAHDIM_clean_sbu_0, # of connection points: 4
#     Node 19, Type 0, BuildingBlock: NAHDIM_clean_sbu_0, # of connection points: 4
#     Node 20, Type 0, BuildingBlock: NAHDIM_clean_sbu_0, # of connection points: 4
#     Node 21, Type 0, BuildingBlock: NAHDIM_clean_sbu_0, # of connection points: 4
#     Node 22, Type 0, BuildingBlock: NAHDIM_clean_sbu_0, # of connection points: 4
#     Node 23, Type 0, BuildingBlock: NAHDIM_clean_sbu_0, # of connection points: 4
#     Node 24, Type 0, BuildingBlock: NAHDIM_clean_sbu_0, # of connection points: 4
#     Node 25, Type 0, BuildingBlock: NAHDIM_clean_sbu_0, # of connection points: 4
#     Node 26, Type 0, BuildingBlock: NAHDIM_clean_sbu_0, # of connection points: 4
#     Node 27, Type 0, BuildingBlock: NAHDIM_clean_sbu_0, # of connection points: 4
#     Node 28, Type 0, BuildingBlock: NAHDIM_clean_sbu_0, # of connection points: 4
#     Node 29, Type 0, BuildingBlock: NAHDIM_clean_sbu_0, # of connection points: 4
#     Node 30, Type 0, BuildingBlock: NAHDIM_clean_sbu_0, # of connection points: 4
#     Node 31, Type 0, BuildingBlock: NAHDIM_clean_sbu_0, # of connection points: 4
#     Edge 32, Type (0, 0), BuildingBlock: TEMPAE_clean_linker_10, # of connection points: 2
#     Edge 33, Type (0, 0), BuildingBlock: TEMPAE_clean_linker_10, # of connection points: 2
#     Edge 34, Type (0, 0), BuildingBlock: TEMPAE_clean_linker_10, # of connection points: 2
#     Edge 35, Type (0, 0), BuildingBlock: TEMPAE_clean_linker_10, # of connection points: 2
#     Edge 36, Type (0, 0), BuildingBlock: TEMPAE_clean_linker_10, # of connection points: 2
#     Edge 37, Type (0, 0), BuildingBlock: TEMPAE_clean_linker_10, # of connection points: 2
#     Edge 38, Type (0, 0), BuildingBlock: TEMPAE_clean_linker_10, # of connection points: 2
#     Edge 39, Type (0, 0), BuildingBlock: TEMPAE_clean_linker_10, # of connection points: 2
#     Edge 40, Type (0, 0), BuildingBlock: TEMPAE_clean_linker_10, # of connection points: 2
#     Edge 41, Type (0, 0), BuildingBlock: TEMPAE_clean_linker_10, # of connection points: 2
#     Edge 42, Type (0, 0), BuildingBlock: TEMPAE_clean_linker_10, # of connection points: 2
#     Edge 43, Type (0, 0), BuildingBlock: TEMPAE_clean_linker_10, # of connection points: 2
#     Edge 44, Type (0, 0), BuildingBlock: TEMPAE_clean_linker_10, # of connection points: 2
#     Edge 45, Type (0, 0), BuildingBlock: TEMPAE_clean_linker_10, # of connection points: 2
#     Edge 46, Type (0, 0), BuildingBlock: TEMPAE_clean_linker_10, # of connection points: 2
#     Edge 47, Type (0, 0), BuildingBlock: TEMPAE_clean_linker_10, # of connection points: 2
#     Edge 48, Type (0, 0), BuildingBlock: TEMPAE_clean_linker_10, # of connection points: 2
#     Edge 49, Type (0, 0), BuildingBlock: TEMPAE_clean_linker_10, # of connection points: 2
#     Edge 50, Type (0, 0), BuildingBlock: TEMPAE_clean_linker_10, # of connection points: 2
#     Edge 51, Type (0, 0), BuildingBlock: TEMPAE_clean_linker_10, # of connection points: 2
#     Edge 52, Type (0, 0), BuildingBlock: TEMPAE_clean_linker_10, # of connection points: 2
#     Edge 53, Type (0, 0), BuildingBlock: TEMPAE_clean_linker_10, # of connection points: 2
#     Edge 54, Type (0, 0), BuildingBlock: TEMPAE_clean_linker_10, # of connection points: 2
#     Edge 55, Type (0, 0), BuildingBlock: TEMPAE_clean_linker_10, # of connection points: 2
#     Edge 56, Type (0, 0), BuildingBlock: TEMPAE_clean_linker_10, # of connection points: 2
#     Edge 57, Type (0, 0), BuildingBlock: TEMPAE_clean_linker_10, # of connection points: 2
#     Edge 58, Type (0, 0), BuildingBlock: TEMPAE_clean_linker_10, # of connection points: 2
#     Edge 59, Type (0, 0), BuildingBlock: TEMPAE_clean_linker_10, # of connection points: 2
#     Edge 60, Type (0, 0), BuildingBlock: TEMPAE_clean_linker_10, # of connection points: 2
#     Edge 61, Type (0, 0), BuildingBlock: TEMPAE_clean_linker_10, # of connection points: 2
#     Edge 62, Type (0, 0), BuildingBlock: TEMPAE_clean_linker_10, # of connection points: 2
#     Edge 63, Type (0, 0), BuildingBlock: TEMPAE_clean_linker_10, # of connection points: 2
#     Edge 64, Type (0, 0), BuildingBlock: TEMPAE_clean_linker_10, # of connection points: 2
#     Edge 65, Type (0, 0), BuildingBlock: TEMPAE_clean_linker_10, # of connection points: 2
#     Edge 66, Type (0, 0), BuildingBlock: TEMPAE_clean_linker_10, # of connection points: 2
#     Edge 67, Type (0, 0), BuildingBlock: TEMPAE_clean_linker_10, # of connection points: 2
#     Edge 68, Type (0, 0), BuildingBlock: TEMPAE_clean_linker_10, # of connection points: 2
#     Edge 69, Type (0, 0), BuildingBlock: TEMPAE_clean_linker_10, # of connection points: 2
#     Edge 70, Type (0, 0), BuildingBlock: TEMPAE_clean_linker_10, # of connection points: 2
#     Edge 71, Type (0, 0), BuildingBlock: TEMPAE_clean_linker_10, # of connection points: 2
#     Edge 72, Type (0, 0), BuildingBlock: TEMPAE_clean_linker_10, # of connection points: 2
#     Edge 73, Type (0, 0), BuildingBlock: TEMPAE_clean_linker_10, # of connection points: 2
#     Edge 74, Type (0, 0), BuildingBlock: TEMPAE_clean_linker_10, # of connection points: 2
#     Edge 75, Type (0, 0), BuildingBlock: TEMPAE_clean_linker_10, # of connection points: 2
#     Edge 76, Type (0, 0), BuildingBlock: TEMPAE_clean_linker_10, # of connection points: 2
#     Edge 77, Type (0, 0), BuildingBlock: TEMPAE_clean_linker_10, # of connection points: 2
#     Edge 78, Type (0, 0), BuildingBlock: TEMPAE_clean_linker_10, # of connection points: 2
#     Edge 79, Type (0, 0), BuildingBlock: TEMPAE_clean_linker_10, # of connection points: 2
#     Edge 80, Type (0, 0), BuildingBlock: TEMPAE_clean_linker_10, # of connection points: 2
#     Edge 81, Type (0, 0), BuildingBlock: TEMPAE_clean_linker_10, # of connection points: 2
#     Edge 82, Type (0, 0), BuildingBlock: TEMPAE_clean_linker_10, # of connection points: 2
#     Edge 83, Type (0, 0), BuildingBlock: TEMPAE_clean_linker_10, # of connection points: 2
#     Edge 84, Type (0, 0), BuildingBlock: TEMPAE_clean_linker_10, # of connection points: 2
#     Edge 85, Type (0, 0), BuildingBlock: TEMPAE_clean_linker_10, # of connection points: 2
#     Edge 86, Type (0, 0), BuildingBlock: TEMPAE_clean_linker_10, # of connection points: 2
#     Edge 87, Type (0, 0), BuildingBlock: TEMPAE_clean_linker_10, # of connection points: 2
#     Edge 88, Type (0, 0), BuildingBlock: TEMPAE_clean_linker_10, # of connection points: 2
#     Edge 89, Type (0, 0), BuildingBlock: TEMPAE_clean_linker_10, # of connection points: 2
#     Edge 90, Type (0, 0), BuildingBlock: TEMPAE_clean_linker_10, # of connection points: 2
#     Edge 91, Type (0, 0), BuildingBlock: TEMPAE_clean_linker_10, # of connection points: 2
#     Edge 92, Type (0, 0), BuildingBlock: TEMPAE_clean_linker_10, # of connection points: 2
#     Edge 93, Type (0, 0), BuildingBlock: TEMPAE_clean_linker_10, # of connection points: 2
#     Edge 94, Type (0, 0), BuildingBlock: TEMPAE_clean_linker_10, # of connection points: 2
#     Edge 95, Type (0, 0), BuildingBlock: TEMPAE_clean_linker_10, # of connection points: 2
# Relax obj value: 0.225
# Max RMSD: 0.090
# Mean RMSD: 0.090
data_MOF--net-dei--node1-NAHDIM_clean_sbu_0--edge1-TEMPAE_clean_linker_10
_symmetry_space_group_name_H-M    P1
_symmetry_Int_Tables_number       1
_symmetry_cell_setting            triclinic
loop_
_symmetry_equiv_pos_as_xyz
'x, y, z'
_cell_length_a     53.605708
_cell_length_b     53.602053
_cell_length_c     94.551406
_cell_angle_alpha  90.00995
_cell_angle_beta   89.990784
_cell_angle_gamma 90.002025
loop_
_atom_site_label
_atom_site_type_symbol
_atom_site_fract_x
_atom_site_fract_y
_atom_site_fract_z
_atom_type_partial_charge
C0 C 0.18607 0.57834 0.02041 0.0
O1 O 0.20026 0.58737 0.03051 0.0
O2 O 0.16074 0.60934 0.05118 0.0
Zn3 Zn 0.14917 0.61331 0.03112 0.0
O4 O 0.11185 0.60948 0.03096 0.0
C5 C 0.17551 0.66024 0.02901 0.0
O6 O 0.19128 0.64936 0.03768 0.0
O7 O 0.16427 0.58713 0.01867 0.0
C8 C 0.09876 0.62623 0.03692 0.0
O9 O 0.1101 0.64517 0.04297 0.0
C10 C 0.15958 0.58845 0.0575 0.0
O11 O 0.15137 0.56885 0.05057 0.0
O12 O 0.15701 0.64789 0.02438 0.0
C13 C 0.69454 0.90231 0.28492 0.0
O14 O 0.69859 0.8882 0.29605 0.0
O15 O 0.65348 0.91311 0.31665 0.0
Zn16 Zn 0.64692 0.90059 0.29698 0.0
O17 O 0.64734 0.86311 0.29765 0.0
C18 C 0.60268 0.93172 0.29263 0.0
O19 O 0.61603 0.94989 0.29808 0.0
O20 O 0.67294 0.91153 0.28314 0.0
C21 C 0.63826 0.85084 0.28738 0.0
O22 O 0.62925 0.86303 0.27645 0.0
C23 C 0.63745 0.90631 0.32577 0.0
O24 O 0.61826 0.89298 0.32156 0.0
O25 O 0.61256 0.91042 0.29088 0.0
C26 C 0.29026 0.4253 0.53442 0.0
O27 O 0.27691 0.42451 0.54607 0.0
O28 O 0.31034 0.39785 0.5675 0.0
Zn29 Zn 0.32041 0.38695 0.54798 0.0
O30 O 0.35792 0.38573 0.5476 0.0
C31 C 0.3151 0.33662 0.55397 0.0
O32 O 0.32831 0.34481 0.56472 0.0
O33 O 0.30879 0.41072 0.53307 0.0
C34 C 0.36985 0.37664 0.53719 0.0
O35 O 0.35738 0.36821 0.52623 0.0
C36 C 0.32342 0.41419 0.5738 0.0
O37 O 0.34157 0.42519 0.56684 0.0
O38 O 0.30811 0.35213 0.54462 0.0
C39 C 0.82099 0.11279 0.79521 0.0
O40 O 0.81568 0.1289 0.80525 0.0
O41 O 0.85945 0.11016 0.82763 0.0
Zn42 Zn 0.86845 0.11849 0.8076 0.0
O43 O 0.86917 0.15584 0.80546 0.0
C44 C 0.90785 0.08887 0.79417 0.0
O45 O 0.88983 0.07895 0.78662 0.0
O46 O 0.84316 0.10468 0.79418 0.0
C47 C 0.87797 0.1656 0.79427 0.0
O48 O 0.8864 0.15096 0.7842 0.0
C49 C 0.8741 0.1181 0.83718 0.0
O50 O 0.89395 0.13085 0.8334 0.0
O51 O 0.90266 0.1053 0.8034 0.0
C52 C 0.2007 0.41514 0.97157 0.0
O53 O 0.21077 0.41148 0.95908 0.0
O54 O 0.17459 0.37962 0.94322 0.0
Zn55 Zn 0.16849 0.37359 0.96389 0.0
O56 O 0.13125 0.37453 0.96645 0.0
C57 C 0.19642 0.32777 0.96185 0.0
O58 O 0.20698 0.33932 0.95115 0.0
O59 O 0.18348 0.40065 0.9758 0.0
C60 C 0.11793 0.36014 0.95889 0.0
O61 O 0.12902 0.34473 0.9501 0.0
C62 C 0.16458 0.39832 0.93723 0.0
O63 O 0.15186 0.41426 0.94494 0.0
O64 O 0.18042 0.33936 0.96927 0.0
C65 C 0.81647 0.88385 0.20538 0.0
O66 O 0.81223 0.86554 0.19645 0.0
O67 O 0.85493 0.89009 0.17185 0.0
Zn68 Zn 0.86364 0.88133 0.19203 0.0
O69 O 0.86502 0.84388 0.19408 0.0
C70 C 0.91638 0.88691 0.19134 0.0
O71 O 0.91388 0.86844 0.18232 0.0
O72 O 0.83766 0.89442 0.20528 0.0
C73 C 0.87582 0.8332 0.2044 0.0
O74 O 0.88639 0.84692 0.21423 0.0
C75 C 0.86061 0.87488 0.16205 0.0
O76 O 0.87166 0.85381 0.16536 0.0
O77 O 0.89699 0.89603 0.19707 0.0
C78 C 0.30033 0.56917 0.46802 0.0
O79 O 0.28873 0.57153 0.45585 0.0
O80 O 0.32567 0.59915 0.43694 0.0
Zn81 Zn 0.3338 0.60756 0.45716 0.0
O82 O 0.37118 0.60694 0.45929 0.0
C83 C 0.31483 0.65706 0.45211 0.0
O84 O 0.31281 0.64858 0.43912 0.0
O85 O 0.3192 0.58275 0.47062 0.0
C86 C 0.38431 0.62257 0.45244 0.0
O87 O 0.37308 0.63884 0.44423 0.0
C88 C 0.33931 0.58427 0.4299 0.0
O89 O 0.35768 0.57267 0.43634 0.0
O90 O 0.3224 0.64245 0.46179 0.0
C91 C 0.69759 0.09992 0.71627 0.0
O92 O 0.69982 0.11719 0.7065 0.0
O93 O 0.65486 0.08577 0.68392 0.0
Zn94 Zn 0.64982 0.09798 0.7039 0.0
O95 O 0.64816 0.13548 0.70353 0.0
C96 C 0.60517 0.06702 0.70755 0.0
O97 O 0.61648 0.05076 0.69936 0.0
O98 O 0.67734 0.08769 0.71705 0.0
C99 C 0.63968 0.14757 0.71404 0.0
O100 O 0.63251 0.13529 0.72536 0.0
C101 C 0.66591 0.0999 0.67512 0.0
O102 O 0.67531 0.12111 0.67959 0.0
O103 O 0.61646 0.08693 0.71102 0.0
C104 C 0.87982 0.43514 0.95933 0.0
O105 O 0.89794 0.43907 0.95024 0.0
O106 O 0.87333 0.3959 0.9263 0.0
Zn107 Zn 0.88218 0.38773 0.94637 0.0
O108 O 0.91961 0.3861 0.94798 0.0
C109 C 0.84997 0.34995 0.9594 0.0
O110 O 0.83899 0.36878 0.96576 0.0
O111 O 0.8693 0.41393 0.95958 0.0
C112 C 0.93007 0.37344 0.95768 0.0
O113 O 0.91609 0.36149 0.96687 0.0
C114 C 0.88258 0.38167 0.91692 0.0
O115 O 0.89693 0.3631 0.92093 0.0
O116 O 0.86807 0.35408 0.95104 0.0
C117 C 0.33538 0.07087 0.72195 0.0
O118 O 0.34052 0.05813 0.71044 0.0
O119 O 0.36248 0.0995 0.69118 0.0
Zn120 Zn 0.37264 0.10546 0.71134 0.0
O121 O 0.37387 0.14267 0.7147 0.0
C122 C 0.42169 0.09067 0.70409 0.0
O123 O 0.41409 0.0998 0.69194 0.0
O124 O 0.34727 0.09088 0.72448 0.0
C125 C 0.382 0.15746 0.70525 0.0
O126 O 0.39014 0.14822 0.69324 0.0
C127 C 0.34292 0.10874 0.68571 0.0
O128 O 0.32761 0.12171 0.69368 0.0
O129 O 0.40673 0.09059 0.71453 0.0
C130 C 0.62457 0.56147 0.45943 0.0
O131 O 0.60976 0.55857 0.44847 0.0
O132 O 0.63509 0.60409 0.42896 0.0
Zn133 Zn 0.62258 0.60995 0.44867 0.0
O134 O 0.58504 0.60993 0.44813 0.0
C135 C 0.65687 0.65003 0.45564 0.0
O136 O 0.67419 0.63335 0.45294 0.0
O137 O 0.63381 0.58288 0.46179 0.0
C138 C 0.57244 0.62016 0.45793 0.0
O139 O 0.58426 0.63081 0.4685 0.0
C140 C 0.62932 0.6208 0.42001 0.0
O141 O 0.61623 0.64012 0.42429 0.0
O142 O 0.63407 0.64371 0.45498 0.0
C143 C 0.18284 0.93143 0.2169 0.0
O144 O 0.17965 0.94304 0.2048 0.0
O145 O 0.14439 0.90983 0.18781 0.0
Zn146 Zn 0.14064 0.90041 0.20822 0.0
O147 O 0.14261 0.86304 0.20907 0.0
C148 C 0.09458 0.92774 0.20873 0.0
O149 O 0.10641 0.942 0.19963 0.0
O150 O 0.16791 0.91409 0.22039 0.0
C151 C 0.12604 0.85029 0.20274 0.0
O152 O 0.10804 0.86198 0.19603 0.0
C153 C 0.16074 0.89939 0.1801 0.0
O154 O 0.1768 0.88405 0.18599 0.0
O155 O 0.10634 0.91003 0.21466 0.0
C156 C 0.86002 0.56232 0.03613 0.0
O157 O 0.87383 0.559 0.04746 0.0
O158 O 0.84985 0.60284 0.06725 0.0
Zn159 Zn 0.86124 0.61034 0.0475 0.0
O160 O 0.89873 0.61126 0.04761 0.0
C161 C 0.82752 0.64936 0.03691 0.0
O162 O 0.81145 0.63132 0.03459 0.0
O163 O 0.85078 0.58377 0.03386 0.0
C164 C 0.91053 0.61863 0.03672 0.0
O165 O 0.89786 0.62575 0.02554 0.0
C166 C 0.85517 0.61943 0.07636 0.0
O167 O 0.86666 0.63977 0.07215 0.0
O168 O 0.8489 0.64418 0.04189 0.0
C169 C 0.17631 0.06694 0.77567 0.0
O170 O 0.17218 0.05564 0.78778 0.0
O171 O 0.13992 0.09127 0.80464 0.0
Zn172 Zn 0.13564 0.09989 0.78414 0.0
O173 O 0.13723 0.13728 0.78269 0.0
C174 C 0.09132 0.06972 0.78304 0.0
O175 O 0.10424 0.05527 0.79155 0.0
O176 O 0.16266 0.08527 0.77211 0.0
C177 C 0.12147 0.15007 0.78963 0.0
O178 O 0.10461 0.1384 0.79725 0.0
C179 C 0.15766 0.10059 0.81181 0.0
O180 O 0.17429 0.11458 0.80537 0.0
O181 O 0.10158 0.08911 0.77796 0.0
C182 C 0.61592 0.42792 0.53302 0.0
O183 O 0.6002 0.43177 0.54347 0.0
O184 O 0.61836 0.38566 0.56355 0.0
Zn185 Zn 0.60856 0.37968 0.54321 0.0
O186 O 0.57117 0.38134 0.54082 0.0
C187 C 0.6421 0.3377 0.53939 0.0
O188 O 0.65926 0.35333 0.54385 0.0
O189 O 0.62361 0.40586 0.53076 0.0
C190 C 0.55738 0.36245 0.54307 0.0
O191 O 0.56772 0.34143 0.54715 0.0
C192 C 0.60223 0.3869 0.57338 0.0
O193 O 0.57846 0.38524 0.5702 0.0
O194 O 0.61985 0.34537 0.53782 0.0
C195 C 0.3424 0.91921 0.26998 0.0
O196 O 0.35938 0.90409 0.26479 0.0
O197 O 0.3601 0.91143 0.31568 0.0
Zn198 Zn 0.36822 0.90693 0.29513 0.0
O199 O 0.36734 0.87001 0.29089 0.0
C200 C 0.41797 0.92242 0.30153 0.0
O201 O 0.41033 0.91698 0.31436 0.0
O202 O 0.34276 0.92415 0.28311 0.0
C203 C 0.38071 0.85508 0.29808 0.0
O204 O 0.39524 0.86415 0.30802 0.0
C205 C 0.34304 0.89915 0.32187 0.0
O206 O 0.32873 0.88425 0.31439 0.0
O207 O 0.40285 0.92007 0.29125 0.0
C208 C 0.67485 0.07077 0.52978 0.0
O209 O 0.68872 0.07747 0.54059 0.0
O210 O 0.64545 0.0923 0.56228 0.0
Zn211 Zn 0.63765 0.10347 0.54232 0.0
O212 O 0.60025 0.10277 0.53931 0.0
C213 C 0.65404 0.15303 0.54947 0.0
O214 O 0.65053 0.14461 0.56235 0.0
O215 O 0.65307 0.07983 0.52849 0.0
C216 C 0.58704 0.12246 0.53864 0.0
O217 O 0.59798 0.14432 0.53956 0.0
C218 C 0.62877 0.09384 0.5718 0.0
O219 O 0.6065 0.10203 0.56836 0.0
O220 O 0.65051 0.13843 0.53906 0.0
C221 C 0.17868 0.41921 0.79033 0.0
O222 O 0.17565 0.43318 0.80162 0.0
O223 O 0.15097 0.39576 0.823 0.0
Zn224 Zn 0.14139 0.38656 0.80317 0.0
O225 O 0.14059 0.34912 0.80186 0.0
C226 C 0.10142 0.41656 0.7904 0.0
O227 O 0.11915 0.42738 0.78303 0.0
O228 O 0.16605 0.39928 0.78903 0.0
C229 C 0.12931 0.33826 0.79176 0.0
O230 O 0.11825 0.35185 0.78205 0.0
C231 C 0.13623 0.38799 0.83255 0.0
O232 O 0.11632 0.37533 0.82877 0.0
O233 O 0.10701 0.39953 0.7992 0.0
C234 C 0.7988 0.91862 0.02257 0.0
O235 O 0.78711 0.91358 0.03444 0.0
O236 O 0.82514 0.88419 0.05146 0.0
Zn237 Zn 0.83144 0.87787 0.03081 0.0
O238 O 0.86874 0.87759 0.02833 0.0
C239 C 0.80227 0.83288 0.03294 0.0
O240 O 0.79245 0.84457 0.0438 0.0
O241 O 0.81729 0.90528 0.0189 0.0
C242 C 0.88156 0.86235 0.03562 0.0
O243 O 0.86995 0.84677 0.04409 0.0
C244 C 0.83796 0.90056 0.0579 0.0
O245 O 0.85384 0.9142 0.05067 0.0
O246 O 0.81838 0.84407 0.02538 0.0
C247 C 0.30928 0.61397 0.28385 0.0
O248 O 0.30389 0.62868 0.29454 0.0
O249 O 0.34775 0.60677 0.3164 0.0
Zn250 Zn 0.3567 0.61808 0.29662 0.0
O251 O 0.3571 0.65575 0.29593 0.0
C252 C 0.40898 0.6132 0.2991 0.0
O253 O 0.40433 0.62906 0.30936 0.0
O254 O 0.33146 0.60595 0.28258 0.0
C255 C 0.36987 0.66804 0.287 0.0
O256 O 0.38307 0.65593 0.27751 0.0
C257 C 0.35095 0.62174 0.32668 0.0
O258 O 0.35925 0.64433 0.3241 0.0
O259 O 0.39091 0.60516 0.29171 0.0
C260 C 0.69418 0.92387 0.46702 0.0
O261 O 0.70363 0.92424 0.4542 0.0
O262 O 0.6694 0.89303 0.43632 0.0
Zn263 Zn 0.66293 0.8832 0.45649 0.0
O264 O 0.62572 0.88361 0.45934 0.0
C265 C 0.68078 0.83399 0.44992 0.0
O266 O 0.68081 0.84315 0.43704 0.0
O267 O 0.67776 0.90766 0.47013 0.0
C268 C 0.61186 0.86982 0.45174 0.0
O269 O 0.62223 0.85539 0.44216 0.0
C270 C 0.65901 0.91201 0.43083 0.0
O271 O 0.64518 0.92652 0.43883 0.0
O272 O 0.67483 0.84812 0.46018 0.0
C273 C 0.31678 0.42503 0.72004 0.0
O274 O 0.31662 0.43726 0.708 0.0
O275 O 0.34152 0.40275 0.68703 0.0
Zn276 Zn 0.35433 0.39378 0.70652 0.0
O277 O 0.35593 0.35624 0.70837 0.0
C278 C 0.40477 0.40254 0.69956 0.0
O279 O 0.3978 0.38883 0.68875 0.0
O280 O 0.33147 0.40663 0.72158 0.0
C281 C 0.37309 0.34475 0.71498 0.0
O282 O 0.39053 0.35764 0.72145 0.0
C283 C 0.34226 0.38647 0.67725 0.0
O284 O 0.35058 0.36402 0.68018 0.0
O285 O 0.38879 0.40792 0.709 0.0
C286 C 0.80984 0.08451 0.97681 0.0
O287 O 0.79837 0.09186 0.96526 0.0
O288 O 0.83917 0.11828 0.94849 0.0
Zn289 Zn 0.8465 0.12207 0.96917 0.0
O290 O 0.88371 0.11881 0.97111 0.0
C291 C 0.81876 0.16797 0.9696 0.0
O292 O 0.8048 0.15613 0.96035 0.0
O293 O 0.82991 0.09529 0.98052 0.0
C294 C 0.89714 0.13474 0.9647 0.0
O295 O 0.88616 0.1528 0.95766 0.0
C296 C 0.84822 0.09983 0.9418 0.0
O297 O 0.86057 0.0827 0.94886 0.0
O298 O 0.8368 0.15646 0.97537 0.0
C299 C 0.18888 0.61398 0.2029 0.0
O300 O 0.19191 0.63239 0.19388 0.0
O301 O 0.14825 0.60287 0.1689 0.0
Zn302 Zn 0.14244 0.61363 0.18897 0.0
O303 O 0.14212 0.65112 0.18946 0.0
C304 C 0.10212 0.58257 0.20105 0.0
O305 O 0.11955 0.56691 0.20512 0.0
O306 O 0.16868 0.60158 0.20256 0.0
C307 C 0.13407 0.66223 0.20043 0.0
O308 O 0.12621 0.64886 0.21119 0.0
C309 C 0.16811 0.5945 0.16331 0.0
O310 O 0.18813 0.59147 0.17113 0.0
O311 O 0.1082 0.60239 0.19455 0.0
C312 C 0.36961 0.92863 0.46783 0.0
O313 O 0.38554 0.93357 0.45764 0.0
O314 O 0.36047 0.88907 0.43549 0.0
Zn315 Zn 0.37349 0.88159 0.45491 0.0
O316 O 0.41103 0.88298 0.45417 0.0
C317 C 0.34029 0.84052 0.46136 0.0
O318 O 0.32277 0.85753 0.46016 0.0
O319 O 0.36093 0.90667 0.46889 0.0
C320 C 0.42443 0.87043 0.46266 0.0
O321 O 0.41351 0.85651 0.47228 0.0
C322 C 0.36683 0.87372 0.42591 0.0
O323 O 0.38084 0.85456 0.42938 0.0
O324 O 0.36298 0.84692 0.46001 0.0
C325 C 0.8434 0.5843 0.23243 0.0
O326 O 0.85959 0.60001 0.23788 0.0
O327 O 0.86653 0.58857 0.18738 0.0
Zn328 Zn 0.87236 0.59445 0.20805 0.0
O329 O 0.87093 0.63164 0.21099 0.0
C330 C 0.91737 0.56537 0.20633 0.0
O331 O 0.90513 0.55421 0.19609 0.0
O332 O 0.8456 0.5781 0.21953 0.0
C333 C 0.88649 0.64513 0.20432 0.0
O334 O 0.90308 0.63424 0.19616 0.0
C335 C 0.84688 0.59674 0.18148 0.0
O336 O 0.82985 0.6078 0.18927 0.0
O337 O 0.90659 0.58245 0.21336 0.0
C338 C 0.13234 0.05883 0.95732 0.0
O339 O 0.11713 0.05607 0.94654 0.0
O340 O 0.14113 0.09903 0.92597 0.0
Zn341 Zn 0.13154 0.10687 0.94599 0.0
O342 O 0.09416 0.1092 0.94724 0.0
C343 C 0.16643 0.14489 0.95687 0.0
O344 O 0.18118 0.12632 0.96037 0.0
O345 O 0.14254 0.07994 0.95929 0.0
C346 C 0.08433 0.11748 0.95853 0.0
O347 O 0.09891 0.1243 0.96901 0.0
C348 C 0.1342 0.11486 0.91677 0.0
O349 O 0.12167 0.13459 0.92096 0.0
O350 O 0.14551 0.14033 0.95111 0.0
C351 C 0.68114 0.39143 0.71734 0.0
O352 O 0.68322 0.36952 0.71123 0.0
O353 O 0.6361 0.39225 0.68487 0.0
Zn354 Zn 0.63336 0.38571 0.70577 0.0
O355 O 0.63572 0.34874 0.70936 0.0
C356 C 0.5893 0.41647 0.70753 0.0
O357 O 0.60217 0.43144 0.69929 0.0
O358 O 0.66068 0.40324 0.71633 0.0
C359 C 0.61837 0.33402 0.7056 0.0
O360 O 0.59842 0.34324 0.69945 0.0
C361 C 0.64556 0.37638 0.67645 0.0
O362 O 0.655 0.35564 0.68156 0.0
O363 O 0.59951 0.39669 0.71213 0.0
C364 C 0.34994 0.06065 0.54199 0.0
O365 O 0.36478 0.05928 0.55302 0.0
O366 O 0.3398 0.10516 0.57157 0.0
Zn367 Zn 0.35017 0.11003 0.55135 0.0
O368 O 0.38764 0.11179 0.55082 0.0
C369 C 0.31591 0.15133 0.54786 0.0
O370 O 0.3009 0.13739 0.55548 0.0
O371 O 0.33963 0.08139 0.53914 0.0
C372 C 0.39903 0.1121 0.53903 0.0
O373 O 0.38598 0.11132 0.52728 0.0
C374 C 0.34616 0.12243 0.58004 0.0
O375 O 0.3582 0.14186 0.57501 0.0
O376 O 0.33712 0.14278 0.54433 0.0
C377 C 0.67789 0.57866 0.27962 0.0
O378 O 0.67294 0.56729 0.2916 0.0
O379 O 0.64031 0.60329 0.30788 0.0
Zn380 Zn 0.63714 0.61211 0.28736 0.0
O381 O 0.64052 0.64931 0.28589 0.0
C382 C 0.59114 0.58459 0.28604 0.0
O383 O 0.60297 0.56964 0.29478 0.0
O384 O 0.66436 0.59687 0.27574 0.0
C385 C 0.6248 0.66323 0.29213 0.0
O386 O 0.60653 0.65285 0.29929 0.0
C387 C 0.65807 0.61186 0.31533 0.0
O388 O 0.67541 0.62541 0.30921 0.0
O389 O 0.60277 0.60303 0.28077 0.0
C390 C 0.12013 0.93059 0.03414 0.0
O391 O 0.10364 0.93498 0.04412 0.0
O392 O 0.12918 0.89341 0.06708 0.0
Zn393 Zn 0.11824 0.88388 0.04753 0.0
O394 O 0.0807 0.88259 0.04693 0.0
C395 C 0.14717 0.84395 0.03381 0.0
O396 O 0.15633 0.86151 0.02562 0.0
O397 O 0.13007 0.90913 0.03343 0.0
C398 C 0.06974 0.87108 0.03695 0.0
O399 O 0.08326 0.8602 0.02713 0.0
C400 C 0.12208 0.87924 0.07707 0.0
O401 O 0.10813 0.85981 0.07402 0.0
O402 O 0.13143 0.84965 0.04332 0.0
C403 C 0.82681 0.42855 0.77806 0.0
O404 O 0.82546 0.43086 0.79186 0.0
O405 O 0.87075 0.41047 0.80474 0.0
Zn406 Zn 0.87381 0.40352 0.78391 0.0
O407 O 0.87253 0.36618 0.7817 0.0
C408 C 0.91757 0.43446 0.78243 0.0
O409 O 0.90494 0.44833 0.79138 0.0
O410 O 0.84602 0.41863 0.77255 0.0
C411 C 0.88925 0.35324 0.78778 0.0
O412 O 0.90705 0.36477 0.79476 0.0
C413 C 0.85584 0.39754 0.81219 0.0
O414 O 0.84133 0.38118 0.8059 0.0
O415 O 0.90734 0.41508 0.77731 0.0
C416 C 0.14698 0.59278 0.13983 0.0
C417 C 0.1688 0.58994 0.14787 0.0
C418 C 0.14738 0.59051 0.12508 0.0
C419 C 0.17016 0.58522 0.11815 0.0
C420 C 0.19212 0.58147 0.12619 0.0
C421 C 0.19119 0.5839 0.14099 0.0
C422 C 0.12352 0.59458 0.11689 0.0
C423 C 0.21671 0.57567 0.11914 0.0
C424 C 0.1626 0.56419 0.08008 0.0
C425 C 0.16526 0.58684 0.07279 0.0
C426 C 0.16544 0.56306 0.09483 0.0
C427 C 0.17098 0.58512 0.10244 0.0
C428 C 0.17487 0.60777 0.09507 0.0
C429 C 0.17201 0.60835 0.08034 0.0
C430 C 0.16135 0.53853 0.10232 0.0
C431 C 0.1808 0.6317 0.10281 0.0
H432 H 0.12953 0.59727 0.14504 0.0
H433 H 0.20812 0.58161 0.14712 0.0
H434 H 0.12548 0.61121 0.10999 0.0
H435 H 0.11974 0.57835 0.10993 0.0
H436 H 0.10716 0.59742 0.12392 0.0
H437 H 0.23159 0.57127 0.12693 0.0
H438 H 0.21461 0.55963 0.11182 0.0
H439 H 0.22278 0.5919 0.11273 0.0
H440 H 0.15757 0.54744 0.07432 0.0
H441 H 0.17428 0.6259 0.07479 0.0
H442 H 0.14377 0.5394 0.1085 0.0
H443 H 0.17671 0.53486 0.1099 0.0
H444 H 0.16008 0.52264 0.09481 0.0
H445 H 0.16452 0.63734 0.10932 0.0
H446 H 0.18537 0.64721 0.09546 0.0
H447 H 0.19675 0.6289 0.1101 0.0
C448 C 0.64712 0.93565 0.409 0.0
C449 C 0.65973 0.9156 0.41531 0.0
C450 C 0.64493 0.93735 0.39423 0.0
C451 C 0.65545 0.91847 0.38562 0.0
C452 C 0.66932 0.89893 0.39191 0.0
C453 C 0.67137 0.89779 0.40667 0.0
C454 C 0.63028 0.95863 0.38789 0.0
C455 C 0.68079 0.8784 0.3831 0.0
C456 C 0.62442 0.90159 0.35095 0.0
C457 C 0.64115 0.91144 0.34101 0.0
C458 C 0.62855 0.9044 0.36549 0.0
C459 C 0.64985 0.91755 0.37024 0.0
C460 C 0.66634 0.92838 0.36029 0.0
C461 C 0.66185 0.92512 0.34576 0.0
C462 C 0.61053 0.89251 0.37577 0.0
C463 C 0.68909 0.94276 0.36498 0.0
H464 H 0.63824 0.9496 0.41559 0.0
H465 H 0.68128 0.8823 0.41145 0.0
H466 H 0.64068 0.96711 0.37895 0.0
H467 H 0.61238 0.95147 0.3836 0.0
H468 H 0.62607 0.97338 0.39579 0.0
H469 H 0.69273 0.86576 0.38949 0.0
H470 H 0.66578 0.86715 0.37813 0.0
H471 H 0.69221 0.88643 0.37444 0.0
H472 H 0.60833 0.89108 0.34739 0.0
H473 H 0.6748 0.93291 0.33814 0.0
H474 H 0.6035 0.90664 0.38336 0.0
H475 H 0.62028 0.87792 0.38199 0.0
H476 H 0.59432 0.88381 0.37036 0.0
H477 H 0.6838 0.95726 0.3728 0.0
H478 H 0.6988 0.95188 0.35598 0.0
H479 H 0.70238 0.92996 0.37029 0.0
C480 C 0.34241 0.37682 0.6515 0.0
C481 C 0.33588 0.39308 0.6625 0.0
C482 C 0.33798 0.38313 0.63736 0.0
C483 C 0.32638 0.40615 0.63411 0.0
C484 C 0.31907 0.4224 0.64517 0.0
C485 C 0.3241 0.41575 0.65927 0.0
C486 C 0.34629 0.36536 0.62587 0.0
C487 C 0.30628 0.44689 0.64209 0.0
C488 C 0.34131 0.42747 0.59697 0.0
C489 C 0.32154 0.41687 0.58933 0.0
C490 C 0.34231 0.42562 0.61175 0.0
C491 C 0.32286 0.41324 0.61905 0.0
C492 C 0.3018 0.40449 0.61151 0.0
C493 C 0.30147 0.40624 0.5967 0.0
C494 C 0.36518 0.43506 0.61939 0.0
C495 C 0.28045 0.39167 0.61896 0.0
H496 H 0.35158 0.3593 0.6539 0.0
H497 H 0.31889 0.42834 0.66774 0.0
H498 H 0.33014 0.35993 0.61921 0.0
H499 H 0.36004 0.37471 0.61887 0.0
H500 H 0.35494 0.34815 0.6302 0.0
H501 H 0.30025 0.45659 0.65189 0.0
H502 H 0.31912 0.45933 0.63619 0.0
H503 H 0.28972 0.44376 0.63528 0.0
H504 H 0.35685 0.43582 0.59136 0.0
H505 H 0.28598 0.3983 0.59087 0.0
H506 H 0.37646 0.41894 0.62305 0.0
H507 H 0.35983 0.44597 0.62888 0.0
H508 H 0.37707 0.44691 0.6125 0.0
H509 H 0.28636 0.37272 0.62227 0.0
H510 H 0.26382 0.38982 0.61202 0.0
H511 H 0.27506 0.40206 0.62863 0.0
C512 C 0.86026 0.08061 0.91868 0.0
C513 C 0.84786 0.09952 0.92615 0.0
C514 C 0.86285 0.08182 0.90393 0.0
C515 C 0.8528 0.10242 0.89651 0.0
C516 C 0.83918 0.1209 0.9039 0.0
C517 C 0.83685 0.11922 0.91864 0.0
C518 C 0.87738 0.06168 0.89639 0.0
C519 C 0.82812 0.14312 0.89634 0.0
C520 C 0.88493 0.12277 0.86271 0.0
C521 C 0.86875 0.11353 0.85231 0.0
C522 C 0.88 0.11908 0.87712 0.0
C523 C 0.85836 0.10581 0.88123 0.0
C524 C 0.84203 0.09622 0.87081 0.0
C525 C 0.84742 0.10021 0.85645 0.0
C526 C 0.89788 0.1296 0.88794 0.0
C527 C 0.81881 0.08194 0.87483 0.0
H528 H 0.86871 0.06526 0.92439 0.0
H529 H 0.82711 0.13385 0.92432 0.0
H530 H 0.86671 0.05461 0.88717 0.0
H531 H 0.89511 0.06956 0.8923 0.0
H532 H 0.88186 0.04573 0.90345 0.0
H533 H 0.81623 0.15464 0.90341 0.0
H534 H 0.84334 0.15503 0.89214 0.0
H535 H 0.81675 0.13691 0.88719 0.0
H536 H 0.90147 0.13305 0.85962 0.0
H537 H 0.83483 0.09298 0.84847 0.0
H538 H 0.90502 0.11442 0.89481 0.0
H539 H 0.888 0.1431 0.89486 0.0
H540 H 0.91402 0.13921 0.88298 0.0
H541 H 0.82383 0.06562 0.88146 0.0
H542 H 0.80832 0.07525 0.86543 0.0
H543 H 0.80634 0.09398 0.88124 0.0
C544 C 0.15167 0.41974 0.91489 0.0
C545 C 0.1645 0.40026 0.92161 0.0
C546 C 0.14875 0.42004 0.90014 0.0
C547 C 0.15886 0.40038 0.89196 0.0
C548 C 0.17294 0.38137 0.89861 0.0
C549 C 0.17563 0.38156 0.91336 0.0
C550 C 0.13377 0.44073 0.8934 0.0
C551 C 0.18405 0.3601 0.89024 0.0
C552 C 0.12586 0.38219 0.85806 0.0
C553 C 0.14171 0.39218 0.84771 0.0
C554 C 0.13112 0.38505 0.87248 0.0
C555 C 0.15272 0.3983 0.87668 0.0
C556 C 0.16859 0.40884 0.86631 0.0
C557 C 0.16291 0.40561 0.85192 0.0
C558 C 0.11373 0.37351 0.88323 0.0
C559 C 0.19171 0.4232 0.87042 0.0
H560 H 0.14315 0.43435 0.92117 0.0
H561 H 0.1857 0.36651 0.91846 0.0
H562 H 0.14396 0.44866 0.88423 0.0
H563 H 0.11589 0.4331 0.88937 0.0
H564 H 0.12955 0.456 0.90098 0.0
H565 H 0.19633 0.34808 0.8968 0.0
H566 H 0.16884 0.34838 0.88584 0.0
H567 H 0.19501 0.36735 0.88118 0.0
H568 H 0.10942 0.37182 0.85491 0.0
H569 H 0.17521 0.41345 0.84398 0.0
H570 H 0.10677 0.38803 0.89061 0.0
H571 H 0.12396 0.35951 0.88963 0.0
H572 H 0.09745 0.36422 0.87822 0.0
H573 H 0.18674 0.43866 0.8777 0.0
H574 H 0.20154 0.4311 0.8611 0.0
H575 H 0.20477 0.41077 0.87618 0.0
C576 C 0.82 0.88786 0.08123 0.0
C577 C 0.83771 0.90155 0.07354 0.0
C578 C 0.82164 0.88583 0.09599 0.0
C579 C 0.84159 0.89755 0.10319 0.0
C580 C 0.85873 0.9125 0.09558 0.0
C581 C 0.8565 0.91443 0.08084 0.0
C582 C 0.80281 0.87 0.10377 0.0
C583 C 0.88033 0.92521 0.10288 0.0
C584 C 0.84091 0.90165 0.14336 0.0
C585 C 0.85543 0.88086 0.14706 0.0
C586 C 0.83606 0.90731 0.12911 0.0
C587 C 0.84615 0.89194 0.11836 0.0
C588 C 0.86086 0.871 0.12205 0.0
C589 C 0.86521 0.86566 0.13634 0.0
C590 C 0.82012 0.92966 0.12555 0.0
C591 C 0.87214 0.85425 0.11089 0.0
H592 H 0.80528 0.87805 0.07567 0.0
H593 H 0.87023 0.92509 0.07498 0.0
H594 H 0.81194 0.85269 0.10759 0.0
H595 H 0.7956 0.88006 0.11317 0.0
H596 H 0.7868 0.86469 0.09693 0.0
H597 H 0.89041 0.9382 0.09573 0.0
H598 H 0.87374 0.93576 0.11225 0.0
H599 H 0.8937 0.91091 0.10669 0.0
H600 H 0.83323 0.91343 0.15159 0.0
H601 H 0.87653 0.84962 0.13909 0.0
H602 H 0.8037 0.9237 0.11925 0.0
H603 H 0.83088 0.94295 0.11894 0.0
H604 H 0.81344 0.93957 0.13515 0.0
H605 H 0.85717 0.84601 0.10427 0.0
H606 H 0.88332 0.83885 0.11553 0.0
H607 H 0.88435 0.86532 0.10379 0.0
C608 C 0.35684 0.57388 0.40614 0.0
C609 C 0.33729 0.58362 0.4143 0.0
C610 C 0.35733 0.57715 0.39142 0.0
C611 C 0.33765 0.5902 0.38472 0.0
C612 C 0.31694 0.59836 0.39277 0.0
C613 C 0.31707 0.5951 0.40749 0.0
C614 C 0.3798 0.56825 0.38321 0.0
C615 C 0.29541 0.61201 0.38599 0.0
C616 C 0.3547 0.62887 0.35263 0.0
C617 C 0.34673 0.61364 0.34145 0.0
C618 C 0.35176 0.62139 0.36672 0.0
C619 C 0.34031 0.5982 0.36975 0.0
C620 C 0.33186 0.58286 0.35854 0.0
C621 C 0.3353 0.5907 0.34449 0.0
C622 C 0.36122 0.63823 0.37837 0.0
C623 C 0.31931 0.55816 0.36141 0.0
H624 H 0.3725 0.56492 0.41131 0.0
H625 H 0.30175 0.60244 0.41372 0.0
H626 H 0.37395 0.55807 0.37355 0.0
H627 H 0.39095 0.5846 0.37976 0.0
H628 H 0.39197 0.55587 0.38962 0.0
H629 H 0.27926 0.61386 0.39327 0.0
H630 H 0.30152 0.63099 0.38283 0.0
H631 H 0.28921 0.60221 0.37627 0.0
H632 H 0.36362 0.64658 0.35038 0.0
H633 H 0.32902 0.57888 0.33589 0.0
H634 H 0.37534 0.62823 0.38481 0.0
H635 H 0.34566 0.64341 0.38553 0.0
H636 H 0.36979 0.65562 0.3742 0.0
H637 H 0.33231 0.54559 0.36711 0.0
H638 H 0.31315 0.54876 0.35154 0.0
H639 H 0.30285 0.56097 0.36834 0.0
C640 C 0.67224 0.11286 0.65006 0.0
C641 C 0.66494 0.0945 0.65978 0.0
C642 C 0.6681 0.10977 0.63554 0.0
C643 C 0.6567 0.08761 0.63058 0.0
C644 C 0.65081 0.06829 0.64023 0.0
C645 C 0.65484 0.07203 0.65476 0.0
C646 C 0.67451 0.1309 0.62561 0.0
C647 C 0.6391 0.0442 0.63529 0.0
C648 C 0.61822 0.09652 0.59743 0.0
C649 C 0.63508 0.08944 0.58683 0.0
C650 C 0.62475 0.09509 0.61175 0.0
C651 C 0.6486 0.08602 0.61559 0.0
C652 C 0.66523 0.07758 0.60499 0.0
C653 C 0.65834 0.07956 0.5907 0.0
C654 C 0.60653 0.10446 0.62273 0.0
C655 C 0.69063 0.06736 0.60871 0.0
H656 H 0.68017 0.13023 0.65382 0.0
H657 H 0.64936 0.05766 0.6622 0.0
H658 H 0.6859 0.12397 0.61664 0.0
H659 H 0.65711 0.13883 0.62111 0.0
H660 H 0.68492 0.1461 0.63099 0.0
H661 H 0.63902 0.02978 0.64373 0.0
H662 H 0.61955 0.04772 0.63201 0.0
H663 H 0.64919 0.03676 0.62596 0.0
H664 H 0.60018 0.1041 0.59455 0.0
H665 H 0.67138 0.07384 0.58255 0.0
H666 H 0.61443 0.12106 0.62813 0.0
H667 H 0.60333 0.09 0.63092 0.0
H668 H 0.58825 0.10971 0.61806 0.0
H669 H 0.70263 0.08264 0.61275 0.0
H670 H 0.70002 0.05872 0.59945 0.0
H671 H 0.68906 0.05323 0.61724 0.0
C672 C 0.84065 0.38422 0.83601 0.0
C673 C 0.85678 0.39888 0.82781 0.0
C674 C 0.8432 0.38307 0.85076 0.0
C675 C 0.86239 0.39686 0.85743 0.0
C676 C 0.878 0.41257 0.84929 0.0
C677 C 0.87497 0.41344 0.83456 0.0
C678 C 0.82607 0.36625 0.85911 0.0
C679 C 0.89868 0.42755 0.85604 0.0
C680 C 0.86103 0.40477 0.89737 0.0
C681 C 0.87734 0.38579 0.90174 0.0
C682 C 0.85592 0.40864 0.88297 0.0
C683 C 0.86747 0.39322 0.87274 0.0
C684 C 0.88399 0.3741 0.87708 0.0
C685 C 0.88869 0.3706 0.89152 0.0
C686 C 0.83815 0.42914 0.8787 0.0
C687 C 0.89673 0.3573 0.86646 0.0
H688 H 0.82643 0.37304 0.83088 0.0
H689 H 0.88747 0.42488 0.82831 0.0
H690 H 0.83691 0.35042 0.86352 0.0
H691 H 0.81787 0.37653 0.86817 0.0
H692 H 0.81069 0.35861 0.85254 0.0
H693 H 0.90777 0.44044 0.84842 0.0
H694 H 0.89135 0.4386 0.86505 0.0
H695 H 0.91307 0.41471 0.86031 0.0
H696 H 0.85216 0.41657 0.90521 0.0
H697 H 0.90134 0.35592 0.89479 0.0
H698 H 0.82225 0.42115 0.87271 0.0
H699 H 0.84772 0.44254 0.87159 0.0
H700 H 0.83071 0.43951 0.88796 0.0
H701 H 0.88256 0.34716 0.86014 0.0
H702 H 0.90918 0.34342 0.87159 0.0
H703 H 0.90797 0.36865 0.859 0.0
C704 C 0.35754 0.09614 0.66168 0.0
C705 C 0.33937 0.10752 0.6702 0.0
C706 C 0.35618 0.09734 0.6469 0.0
C707 C 0.33606 0.1101 0.64046 0.0
C708 C 0.31696 0.12052 0.64895 0.0
C709 C 0.31888 0.11917 0.66375 0.0
C710 C 0.37695 0.08603 0.63821 0.0
C711 C 0.29509 0.13402 0.64243 0.0
C712 C 0.35106 0.1382 0.60471 0.0
C713 C 0.34161 0.12012 0.59542 0.0
C714 C 0.34864 0.1355 0.61939 0.0
C715 C 0.33632 0.11429 0.62492 0.0
C716 C 0.32588 0.09644 0.61561 0.0
C717 C 0.32873 0.09952 0.60095 0.0
C718 C 0.36011 0.15493 0.62897 0.0
C719 C 0.3124 0.07373 0.62115 0.0
H720 H 0.37338 0.08697 0.66655 0.0
H721 H 0.30469 0.12789 0.67025 0.0
H722 H 0.36919 0.07345 0.63001 0.0
H723 H 0.38733 0.10104 0.63267 0.0
H724 H 0.39034 0.07528 0.6448 0.0
H725 H 0.2805 0.13858 0.65036 0.0
H726 H 0.30162 0.15164 0.63752 0.0
H727 H 0.28661 0.12255 0.63393 0.0
H728 H 0.36094 0.15423 0.60054 0.0
H729 H 0.32123 0.08555 0.59383 0.0
H730 H 0.37528 0.14636 0.6353 0.0
H731 H 0.34596 0.16209 0.63651 0.0
H732 H 0.36795 0.17094 0.62298 0.0
H733 H 0.32578 0.06142 0.62676 0.0
H734 H 0.30341 0.06282 0.61255 0.0
H735 H 0.29791 0.07931 0.62891 0.0
C736 C 0.65044 0.59785 0.40024 0.0
C737 C 0.63633 0.61828 0.40494 0.0
C738 C 0.65633 0.59497 0.38585 0.0
C739 C 0.64779 0.61289 0.37598 0.0
C740 C 0.6339 0.63374 0.38071 0.0
C741 C 0.62839 0.6362 0.39513 0.0
C742 C 0.67131 0.57259 0.38118 0.0
C743 C 0.62441 0.65323 0.3705 0.0
C744 C 0.67562 0.62058 0.33936 0.0
C745 C 0.65735 0.60924 0.33091 0.0
C746 C 0.67342 0.62084 0.35416 0.0
C747 C 0.65243 0.60957 0.36061 0.0
C748 C 0.6346 0.59701 0.35217 0.0
C749 C 0.6373 0.59695 0.33743 0.0
C750 C 0.69292 0.63423 0.36283 0.0
C751 C 0.61195 0.58475 0.35866 0.0
H752 H 0.65672 0.58396 0.40777 0.0
H753 H 0.61753 0.65207 0.39867 0.0
H754 H 0.65988 0.56076 0.37405 0.0
H755 H 0.6879 0.57869 0.37508 0.0
H756 H 0.67762 0.56104 0.39025 0.0
H757 H 0.61442 0.66865 0.37594 0.0
H758 H 0.64018 0.66127 0.36441 0.0
H759 H 0.6115 0.6445 0.36278 0.0
H760 H 0.69126 0.62998 0.33442 0.0
H761 H 0.62317 0.588 0.33099 0.0
H762 H 0.69923 0.62232 0.37173 0.0
H763 H 0.68472 0.65139 0.36746 0.0
H764 H 0.70942 0.6396 0.3564 0.0
H765 H 0.61759 0.57203 0.36734 0.0
H766 H 0.601 0.57396 0.35078 0.0
H767 H 0.59965 0.59923 0.36332 0.0
C768 C 0.13942 0.91481 0.15828 0.0
C769 C 0.15889 0.90119 0.16452 0.0
C770 C 0.13496 0.91352 0.14369 0.0
C771 C 0.15041 0.89835 0.13513 0.0
C772 C 0.17103 0.88583 0.14121 0.0
C773 C 0.17502 0.88737 0.15585 0.0
C774 C 0.11281 0.92721 0.13759 0.0
C775 C 0.18804 0.86964 0.13238 0.0
C776 C 0.12058 0.86905 0.1028 0.0
C777 C 0.12948 0.88432 0.09187 0.0
C778 C 0.12734 0.87345 0.1169 0.0
C779 C 0.14346 0.89356 0.12016 0.0
C780 C 0.1526 0.90902 0.10919 0.0
C781 C 0.14545 0.90424 0.09515 0.0
C782 C 0.11713 0.85658 0.12832 0.0
C783 C 0.16987 0.93059 0.11229 0.0
H784 H 0.12694 0.92566 0.16488 0.0
H785 H 0.19021 0.87693 0.16056 0.0
H786 H 0.11838 0.93795 0.12808 0.0
H787 H 0.09844 0.91352 0.13425 0.0
H788 H 0.10425 0.94022 0.14535 0.0
H789 H 0.2048 0.86351 0.13836 0.0
H790 H 0.17773 0.85282 0.12883 0.0
H791 H 0.1942 0.87978 0.12277 0.0
H792 H 0.10823 0.85363 0.10037 0.0
H793 H 0.15244 0.9161 0.08676 0.0
H794 H 0.10632 0.8677 0.13609 0.0
H795 H 0.13271 0.84761 0.13414 0.0
H796 H 0.10484 0.84172 0.12401 0.0
H797 H 0.16061 0.94397 0.11955 0.0
H798 H 0.17553 0.94069 0.10254 0.0
H799 H 0.18689 0.92375 0.11772 0.0
C800 C 0.83872 0.59331 0.0963 0.0
C801 C 0.85019 0.61532 0.09158 0.0
C802 C 0.83555 0.58865 0.11081 0.0
C803 C 0.84416 0.60636 0.12078 0.0
C804 C 0.85508 0.62891 0.11605 0.0
C805 C 0.8579 0.63314 0.10152 0.0
C806 C 0.82362 0.5645 0.11547 0.0
C807 C 0.86452 0.64827 0.12637 0.0
C808 C 0.82376 0.60689 0.1592 0.0
C809 C 0.84465 0.59641 0.16588 0.0
C810 C 0.82277 0.60919 0.14442 0.0
C811 C 0.84319 0.60091 0.13617 0.0
C812 C 0.8638 0.58929 0.14281 0.0
C813 C 0.86425 0.58712 0.15758 0.0
C814 C 0.80038 0.62148 0.13769 0.0
C815 C 0.88595 0.58022 0.13437 0.0
H816 H 0.83261 0.5795 0.08867 0.0
H817 H 0.86668 0.65024 0.09798 0.0
H818 H 0.83757 0.55288 0.12111 0.0
H819 H 0.8082 0.56828 0.123 0.0
H820 H 0.81615 0.5536 0.10642 0.0
H821 H 0.87156 0.66528 0.12096 0.0
H822 H 0.84942 0.65379 0.13375 0.0
H823 H 0.87986 0.64028 0.13281 0.0
H824 H 0.80847 0.61398 0.16553 0.0
H825 H 0.88041 0.57887 0.16264 0.0
H826 H 0.79336 0.61004 0.12876 0.0
H827 H 0.80588 0.63989 0.13331 0.0
H828 H 0.78496 0.62438 0.14536 0.0
H829 H 0.87973 0.56782 0.12567 0.0
H830 H 0.89961 0.56994 0.14101 0.0
H831 H 0.89558 0.59639 0.12947 0.0
C832 C 0.17584 0.11054 0.83552 0.0
C833 C 0.15755 0.09848 0.82742 0.0
C834 C 0.17411 0.11139 0.85033 0.0
C835 C 0.15356 0.09998 0.85715 0.0
C836 C 0.13575 0.08668 0.84908 0.0
C837 C 0.13798 0.08605 0.83431 0.0
C838 C 0.19359 0.12558 0.8586 0.0
C839 C 0.11358 0.07425 0.85597 0.0
C840 C 0.15381 0.09055 0.89701 0.0
C841 C 0.13975 0.11111 0.90158 0.0
C842 C 0.15877 0.08678 0.88257 0.0
C843 C 0.14936 0.10393 0.87252 0.0
C844 C 0.13532 0.1248 0.8771 0.0
C845 C 0.13073 0.12815 0.89156 0.0
C846 C 0.1739 0.0644 0.87806 0.0
C847 C 0.1249 0.14348 0.86669 0.0
H848 H 0.19111 0.12006 0.83029 0.0
H849 H 0.12382 0.07655 0.82814 0.0
H850 H 0.18515 0.14273 0.8631 0.0
H851 H 0.20046 0.11419 0.86759 0.0
H852 H 0.20974 0.13105 0.85192 0.0
H853 H 0.10269 0.06278 0.84838 0.0
H854 H 0.11974 0.06214 0.86482 0.0
H855 H 0.10106 0.08868 0.86049 0.0
H856 H 0.16089 0.07733 0.9047 0.0
H857 H 0.11987 0.14409 0.89499 0.0
H858 H 0.19034 0.07049 0.87183 0.0
H859 H 0.16251 0.05222 0.87111 0.0
H860 H 0.18049 0.05322 0.88722 0.0
H861 H 0.14022 0.15167 0.86032 0.0
H862 H 0.11463 0.15886 0.872 0.0
H863 H 0.11201 0.13399 0.85925 0.0
C864 C 0.59272 0.38411 0.59916 0.0
C865 C 0.61015 0.38823 0.58835 0.0
C866 C 0.60009 0.38353 0.61338 0.0
C867 C 0.62545 0.38749 0.61689 0.0
C868 C 0.64302 0.39244 0.60608 0.0
C869 C 0.63519 0.39259 0.5919 0.0
C870 C 0.58082 0.37799 0.62461 0.0
C871 C 0.67014 0.39713 0.60946 0.0
C872 C 0.63679 0.40333 0.65545 0.0
C873 C 0.64326 0.37995 0.661 0.0
C874 C 0.63211 0.40636 0.64095 0.0
C875 C 0.63355 0.38542 0.63187 0.0
C876 C 0.64092 0.36197 0.63734 0.0
C877 C 0.64589 0.35956 0.65183 0.0
C878 C 0.62476 0.43176 0.63544 0.0
C879 C 0.64239 0.33913 0.62801 0.0
H880 H 0.57335 0.38069 0.59651 0.0
H881 H 0.64873 0.39592 0.5836 0.0
H882 H 0.58584 0.36054 0.63025 0.0
H883 H 0.58044 0.39319 0.63257 0.0
H884 H 0.56178 0.37582 0.62014 0.0
H885 H 0.6811 0.40231 0.59993 0.0
H886 H 0.67184 0.41229 0.61739 0.0
H887 H 0.67851 0.38013 0.61418 0.0
H888 H 0.63493 0.41921 0.66248 0.0
H889 H 0.65083 0.34143 0.65606 0.0
H890 H 0.60496 0.43142 0.63203 0.0
H891 H 0.63615 0.4367 0.62605 0.0
H892 H 0.62702 0.44657 0.64356 0.0
H893 H 0.62352 0.33452 0.62395 0.0
H894 H 0.64981 0.32262 0.63373 0.0
H895 H 0.65446 0.34284 0.61872 0.0
C896 C 0.36003 0.91176 0.34539 0.0
C897 C 0.34198 0.89885 0.33751 0.0
C898 C 0.36162 0.90895 0.36009 0.0
C899 C 0.3446 0.89304 0.36712 0.0
C900 C 0.32541 0.88112 0.35937 0.0
C901 C 0.32438 0.88409 0.34462 0.0
C902 C 0.38242 0.92193 0.36798 0.0
C903 C 0.30673 0.86427 0.36654 0.0
C904 C 0.36954 0.86251 0.40035 0.0
C905 C 0.3597 0.87788 0.41098 0.0
C906 C 0.36422 0.86692 0.38606 0.0
C907 C 0.34851 0.88708 0.3823 0.0
C908 C 0.33786 0.9022 0.39298 0.0
C909 C 0.34368 0.89749 0.40722 0.0
C910 C 0.37605 0.85043 0.37497 0.0
C911 C 0.32082 0.92368 0.38935 0.0
H912 H 0.37365 0.92331 0.34001 0.0
H913 H 0.31027 0.87419 0.33863 0.0
H914 H 0.37487 0.9323 0.37718 0.0
H915 H 0.3957 0.90783 0.37212 0.0
H916 H 0.39287 0.93517 0.36115 0.0
H917 H 0.29124 0.85889 0.35936 0.0
H918 H 0.31621 0.84703 0.37019 0.0
H919 H 0.29877 0.87354 0.37602 0.0
H920 H 0.38188 0.84729 0.40316 0.0
H921 H 0.33587 0.90935 0.41538 0.0
H922 H 0.38857 0.86173 0.36815 0.0
H923 H 0.36148 0.84228 0.36804 0.0
H924 H 0.3871 0.83499 0.37968 0.0
H925 H 0.3314 0.93813 0.38347 0.0
H926 H 0.31252 0.93242 0.39891 0.0
H927 H 0.30552 0.91724 0.38234 0.0
C928 C 0.05686 0.64414 0.04263 0.0
C929 C 0.07116 0.62465 0.03694 0.0
C930 C 0.0307 0.64309 0.04262 0.0
C931 C 0.01854 0.62199 0.03683 0.0
C932 C 0.03284 0.60219 0.03113 0.0
C933 C 0.05899 0.60377 0.03123 0.0
C934 C 0.01608 0.66461 0.04875 0.0
C935 C 0.02052 0.57934 0.02492 0.0
C936 C 0.95168 0.60977 0.0482 0.0
C937 C 0.93816 0.61923 0.03668 0.0
C938 C 0.97785 0.61034 0.04833 0.0
C939 C 0.99082 0.62072 0.03669 0.0
C940 C 0.9773 0.63022 0.02502 0.0
C941 C 0.95113 0.6293 0.02513 0.0
C942 C 0.99163 0.59992 0.06095 0.0
C943 C 0.99049 0.64153 0.01244 0.0
H944 H 0.06608 0.66035 0.04705 0.0
H945 H 0.06989 0.58861 0.02684 0.0
H946 H 0.00362 0.67263 0.04055 0.0
H947 H 0.00404 0.65792 0.0575 0.0
H948 H 0.02836 0.67966 0.05284 0.0
H949 H 0.03431 0.56547 0.02104 0.0
H950 H 0.00853 0.57028 0.03299 0.0
H951 H 0.00826 0.58481 0.01599 0.0
H952 H 0.94181 0.60188 0.05715 0.0
H953 H 0.94085 0.63666 0.01619 0.0
H954 H 0.00301 0.61479 0.06595 0.0
H955 H 0.00465 0.58503 0.0575 0.0
H956 H 0.97879 0.59208 0.06903 0.0
H957 H 0.00188 0.6577 0.01589 0.0
H958 H 0.97726 0.6479 0.00415 0.0
H959 H 0.00342 0.62771 0.0077 0.0
C960 C 0.60887 0.70607 0.29749 0.0
C961 C 0.62713 0.69072 0.29139 0.0
C962 C 0.6108 0.73215 0.29685 0.0
C963 C 0.63155 0.74314 0.29 0.0
C964 C 0.6501 0.72778 0.28387 0.0
C965 C 0.64765 0.70174 0.28461 0.0
C966 C 0.5906 0.74795 0.30347 0.0
C967 C 0.67255 0.73884 0.27652 0.0
C968 C 0.62519 0.80989 0.27707 0.0
C969 C 0.63711 0.82325 0.28789 0.0
C970 C 0.62335 0.7838 0.27759 0.0
C971 C 0.63377 0.77075 0.28919 0.0
C972 C 0.64606 0.78408 0.30007 0.0
C973 C 0.64755 0.81019 0.2993 0.0
C974 C 0.61004 0.77021 0.26581 0.0
C975 C 0.65749 0.77078 0.31257 0.0
H976 H 0.59295 0.69771 0.30274 0.0
H977 H 0.66189 0.69003 0.27991 0.0
H978 H 0.59876 0.76028 0.31168 0.0
H979 H 0.58204 0.76017 0.29533 0.0
H980 H 0.57568 0.7365 0.3084 0.0
H981 H 0.68541 0.7243 0.2724 0.0
H982 H 0.66642 0.75073 0.26757 0.0
H983 H 0.683 0.75097 0.28396 0.0
H984 H 0.61706 0.81983 0.26822 0.0
H985 H 0.65684 0.82036 0.3077 0.0
H986 H 0.59392 0.75972 0.27014 0.0
H987 H 0.62277 0.7564 0.26086 0.0
H988 H 0.60318 0.78309 0.25747 0.0
H989 H 0.64287 0.76037 0.3184 0.0
H990 H 0.66679 0.78384 0.32001 0.0
H991 H 0.67142 0.75694 0.30886 0.0
C992 C 0.41049 0.38251 0.54979 0.0
C993 C 0.39744 0.37501 0.53764 0.0
C994 C 0.43656 0.3806 0.55051 0.0
C995 C 0.44994 0.37104 0.5388 0.0
C996 C 0.43692 0.36362 0.52647 0.0
C997 C 0.41081 0.36565 0.52604 0.0
C998 C 0.44978 0.38864 0.56386 0.0
C999 C 0.45058 0.35343 0.51375 0.0
C1000 C 0.519 0.38641 0.53648 0.0
C1001 C 0.52993 0.36444 0.54165 0.0
C1002 C 0.49299 0.3887 0.53533 0.0
C1003 C 0.47755 0.3686 0.53953 0.0
C1004 C 0.48846 0.34633 0.54467 0.0
C1005 C 0.51452 0.34449 0.54563 0.0
C1006 C 0.48204 0.41271 0.52973 0.0
C1007 C 0.47258 0.32454 0.5493 0.0
H1008 H 0.40032 0.38974 0.55881 0.0
H1009 H 0.40089 0.35984 0.51662 0.0
H1010 H 0.46022 0.37266 0.5684 0.0
H1011 H 0.46358 0.40344 0.56141 0.0
H1012 H 0.43666 0.39582 0.572 0.0
H1013 H 0.43775 0.34885 0.50489 0.0
H1014 H 0.46449 0.36723 0.50996 0.0
H1015 H 0.46096 0.33631 0.51672 0.0
H1016 H 0.53076 0.4019 0.53334 0.0
H1017 H 0.5228 0.32746 0.54965 0.0
H1018 H 0.47002 0.42141 0.53791 0.0
H1019 H 0.47007 0.40879 0.52042 0.0
H1020 H 0.49664 0.42634 0.52659 0.0
H1021 H 0.46019 0.33032 0.55811 0.0
H1022 H 0.48397 0.30841 0.55287 0.0
H1023 H 0.46043 0.31837 0.54047 0.0
C1024 C 0.90685 0.31153 0.79418 0.0
C1025 C 0.88795 0.32563 0.78774 0.0
C1026 C 0.90539 0.28541 0.79481 0.0
C1027 C 0.88449 0.27308 0.78891 0.0
C1028 C 0.86552 0.28716 0.78221 0.0
C1029 C 0.86749 0.31327 0.78169 0.0
C1030 C 0.92605 0.27104 0.80198 0.0
C1031 C 0.84293 0.27467 0.77582 0.0
C1032 C 0.89048 0.20387 0.78083 0.0
C1033 C 0.87913 0.19309 0.79273 0.0
C1034 C 0.89219 0.22989 0.77939 0.0
C1035 C 0.88222 0.24549 0.79006 0.0
C1036 C 0.87049 0.23474 0.80202 0.0
C1037 C 0.86913 0.20868 0.80322 0.0
C1038 C 0.90489 0.24068 0.76651 0.0
C1039 C 0.85956 0.25078 0.8136 0.0
H1040 H 0.92275 0.3209 0.79885 0.0
H1041 H 0.85279 0.32401 0.77671 0.0
H1042 H 0.9185 0.2608 0.81124 0.0
H1043 H 0.93389 0.25695 0.79462 0.0
H1044 H 0.94141 0.28336 0.80565 0.0
H1045 H 0.83016 0.28822 0.77065 0.0
H1046 H 0.84882 0.26065 0.76786 0.0
H1047 H 0.83243 0.26458 0.78416 0.0
H1048 H 0.89827 0.19199 0.77268 0.0
H1049 H 0.86026 0.20053 0.81242 0.0
H1050 H 0.92127 0.25193 0.7698 0.0
H1051 H 0.89196 0.25339 0.76085 0.0
H1052 H 0.91127 0.22601 0.75904 0.0
H1053 H 0.87443 0.26236 0.81845 0.0
H1054 H 0.85057 0.23952 0.82205 0.0
H1055 H 0.84549 0.26372 0.80911 0.0
C1056 C 0.97252 0.38548 0.949 0.0
C1057 C 0.95763 0.37176 0.9584 0.0
C1058 C 0.99863 0.38372 0.94938 0.0
C1059 C 0.01015 0.36778 0.95938 0.0
C1060 C 0.99525 0.35399 0.96895 0.0
C1061 C 0.96917 0.35618 0.96837 0.0
C1062 C 0.0139 0.39879 0.93902 0.0
C1063 C 0.00686 0.33675 0.97973 0.0
C1064 C 0.0758 0.34546 0.95113 0.0
C1065 C 0.09034 0.36151 0.95946 0.0
C1066 C 0.04967 0.34711 0.95114 0.0
C1067 C 0.03778 0.36529 0.95965 0.0
C1068 C 0.05232 0.38137 0.9682 0.0
C1069 C 0.07842 0.37927 0.96802 0.0
C1070 C 0.0348 0.32958 0.9419 0.0
C1071 C 0.0403 0.40101 0.97741 0.0
H1072 H 0.96378 0.39761 0.94128 0.0
H1073 H 0.95782 0.34549 0.97566 0.0
H1074 H 0.02717 0.41096 0.94481 0.0
H1075 H 0.02512 0.38612 0.93226 0.0
H1076 H 0.00211 0.41065 0.93209 0.0
H1077 H 0.99269 0.32758 0.98654 0.0
H1078 H 0.01785 0.32207 0.97427 0.0
H1079 H 0.01996 0.34729 0.98657 0.0
H1080 H 0.08482 0.33166 0.94449 0.0
H1081 H 0.08951 0.39177 0.97448 0.0
H1082 H 0.02395 0.34041 0.93402 0.0
H1083 H 0.02121 0.31901 0.94842 0.0
H1084 H 0.04684 0.31607 0.93617 0.0
H1085 H 0.02962 0.41427 0.97073 0.0
H1086 H 0.0542 0.41171 0.98366 0.0
H1087 H 0.02686 0.3922 0.9848 0.0
C1088 C 0.86459 0.79107 0.19491 0.0
C1089 C 0.87696 0.80559 0.20508 0.0
C1090 C 0.86591 0.76493 0.19522 0.0
C1091 C 0.88001 0.75299 0.20591 0.0
C1092 C 0.89238 0.7675 0.21627 0.0
C1093 C 0.89067 0.79364 0.21575 0.0
C1094 C 0.85239 0.7501 0.184 0.0
C1095 C 0.90766 0.75543 0.2278 0.0
C1096 C 0.86647 0.68451 0.21306 0.0
C1097 C 0.88535 0.67271 0.20524 0.0
C1098 C 0.86469 0.71064 0.21352 0.0
C1099 C 0.88223 0.72531 0.20603 0.0
C1100 C 0.90155 0.71353 0.19832 0.0
C1101 C 0.90286 0.68739 0.198 0.0
C1102 C 0.84379 0.72255 0.22184 0.0
C1103 C 0.92066 0.72854 0.19022 0.0
H1104 H 0.85391 0.80013 0.18665 0.0
H1105 H 0.9003 0.8047 0.22364 0.0
H1106 H 0.86597 0.73898 0.17779 0.0
H1107 H 0.83927 0.73676 0.18903 0.0
H1108 H 0.84173 0.7622 0.17662 0.0
H1109 H 0.91572 0.76932 0.23523 0.0
H1110 H 0.89595 0.74219 0.23391 0.0
H1111 H 0.92312 0.74451 0.22305 0.0
H1112 H 0.85286 0.67333 0.21868 0.0
H1113 H 0.91755 0.67846 0.19197 0.0
H1114 H 0.83168 0.73352 0.21464 0.0
H1115 H 0.85152 0.7357 0.22977 0.0
H1116 H 0.83209 0.70854 0.22741 0.0
H1117 H 0.91126 0.73973 0.18191 0.0
H1118 H 0.93497 0.71656 0.18511 0.0
H1119 H 0.93019 0.74182 0.19742 0.0
C1120 C 0.42619 0.6404 0.44657 0.0
C1121 C 0.41188 0.62225 0.45353 0.0
C1122 C 0.45233 0.64024 0.44739 0.0
C1123 C 0.46447 0.62142 0.45532 0.0
C1124 C 0.45016 0.60307 0.46239 0.0
C1125 C 0.42403 0.60373 0.46144 0.0
C1126 C 0.46696 0.66018 0.43974 0.0
C1127 C 0.46246 0.58266 0.47091 0.0
C1128 C 0.53221 0.60744 0.44657 0.0
C1129 C 0.54482 0.62026 0.45736 0.0
C1130 C 0.50606 0.60752 0.44584 0.0
C1131 C 0.49218 0.62084 0.4561 0.0
C1132 C 0.50477 0.63377 0.46703 0.0
C1133 C 0.53094 0.63328 0.46755 0.0
C1134 C 0.49328 0.59342 0.43406 0.0
C1135 C 0.4906 0.64825 0.47813 0.0
H1136 H 0.41697 0.65481 0.44046 0.0
H1137 H 0.41313 0.5896 0.46684 0.0
H1138 H 0.4788 0.67057 0.44735 0.0
H1139 H 0.47961 0.65146 0.43187 0.0
H1140 H 0.45468 0.67368 0.43417 0.0
H1141 H 0.44866 0.56986 0.47584 0.0
H1142 H 0.47502 0.57157 0.46402 0.0
H1143 H 0.47413 0.59094 0.47939 0.0
H1144 H 0.54277 0.59727 0.43868 0.0
H1145 H 0.54052 0.64327 0.4759 0.0
H1146 H 0.48198 0.60645 0.42758 0.0
H1147 H 0.4803 0.57938 0.43856 0.0
H1148 H 0.50676 0.58372 0.42703 0.0
H1149 H 0.47918 0.66297 0.47302 0.0
H1150 H 0.50318 0.6572 0.48597 0.0
H1151 H 0.47758 0.63569 0.48383 0.0
C1152 C 0.64476 0.18805 0.70118 0.0
C1153 C 0.63708 0.17505 0.71331 0.0
C1154 C 0.64178 0.21398 0.70016 0.0
C1155 C 0.63086 0.22725 0.71153 0.0
C1156 C 0.62325 0.21429 0.72384 0.0
C1157 C 0.62647 0.18834 0.72458 0.0
C1158 C 0.65018 0.22717 0.68687 0.0
C1159 C 0.61154 0.22783 0.73617 0.0
C1160 C 0.64305 0.29693 0.71352 0.0
C1161 C 0.62117 0.30675 0.70757 0.0
C1162 C 0.64633 0.2711 0.71503 0.0
C1163 C 0.62728 0.25469 0.71047 0.0
C1164 C 0.60502 0.26447 0.70462 0.0
C1165 C 0.60224 0.29039 0.70323 0.0
C1166 C 0.67032 0.26136 0.72132 0.0
C1167 C 0.58428 0.24752 0.69966 0.0
H1168 H 0.653 0.17794 0.69242 0.0
H1169 H 0.62047 0.17845 0.73399 0.0
H1170 H 0.63409 0.2367 0.68185 0.0
H1171 H 0.66412 0.24174 0.68953 0.0
H1172 H 0.65858 0.21417 0.67905 0.0
H1173 H 0.60688 0.21506 0.74504 0.0
H1174 H 0.62441 0.24245 0.74014 0.0
H1175 H 0.59421 0.23735 0.73269 0.0
H1176 H 0.65778 0.30943 0.71691 0.0
H1177 H 0.58527 0.2978 0.69864 0.0
H1178 H 0.68017 0.24953 0.71347 0.0
H1179 H 0.66622 0.24946 0.73063 0.0
H1180 H 0.68305 0.27662 0.72465 0.0
H1181 H 0.59118 0.23521 0.69108 0.0
H1182 H 0.5679 0.2581 0.69568 0.0
H1183 H 0.5781 0.23529 0.70846 0.0
C1184 C 0.39457 0.30436 0.72044 0.0
C1185 C 0.37408 0.31712 0.7147 0.0
C1186 C 0.3963 0.27826 0.71958 0.0
C1187 C 0.37702 0.26459 0.71289 0.0
C1188 C 0.35605 0.27731 0.70734 0.0
C1189 C 0.35486 0.30341 0.70828 0.0
C1190 C 0.41898 0.26535 0.72558 0.0
C1191 C 0.33506 0.26339 0.70019 0.0
C1192 C 0.39136 0.20094 0.69724 0.0
C1193 C 0.3815 0.18482 0.70751 0.0
C1194 C 0.39035 0.22692 0.69898 0.0
C1195 C 0.37912 0.23706 0.71125 0.0
C1196 C 0.36938 0.22092 0.72173 0.0
C1197 C 0.37072 0.19499 0.71975 0.0
C1198 C 0.40104 0.24353 0.68758 0.0
C1199 C 0.35719 0.23106 0.73494 0.0
H1200 H 0.40951 0.31479 0.7254 0.0
H1201 H 0.33892 0.31309 0.70385 0.0
H1202 H 0.41323 0.25091 0.73333 0.0
H1203 H 0.42924 0.25568 0.71698 0.0
H1204 H 0.43192 0.27856 0.73088 0.0
H1205 H 0.31962 0.27595 0.69692 0.0
H1206 H 0.34222 0.25361 0.69068 0.0
H1207 H 0.32744 0.24896 0.70741 0.0
H1208 H 0.39978 0.19328 0.68777 0.0
H1209 H 0.36304 0.18268 0.72774 0.0
H1210 H 0.41525 0.25621 0.69217 0.0
H1211 H 0.38608 0.25538 0.68304 0.0
H1212 H 0.4098 0.2327 0.67888 0.0
H1213 H 0.37034 0.24349 0.74064 0.0
H1214 H 0.35111 0.21602 0.74224 0.0
H1215 H 0.34069 0.24246 0.73204 0.0
C1216 C 0.1223 0.70203 0.21254 0.0
C1217 C 0.1333 0.68982 0.20099 0.0
C1218 C 0.12108 0.72816 0.21312 0.0
C1219 C 0.13121 0.74242 0.20191 0.0
C1220 C 0.14252 0.73024 0.19027 0.0
C1221 C 0.14338 0.70408 0.18994 0.0
C1222 C 0.10879 0.74051 0.22567 0.0
C1223 C 0.15364 0.74484 0.17815 0.0
C1224 C 0.10808 0.80867 0.19647 0.0
C1225 C 0.12724 0.8227 0.2027 0.0
C1226 C 0.10907 0.78252 0.19621 0.0
C1227 C 0.12977 0.77011 0.20227 0.0
C1228 C 0.14915 0.78413 0.20861 0.0
C1229 C 0.14763 0.81027 0.20877 0.0
C1230 C 0.08799 0.76817 0.18941 0.0
C1231 C 0.17157 0.77153 0.21513 0.0
H1232 H 0.11444 0.69116 0.22112 0.0
H1233 H 0.15199 0.69481 0.18099 0.0
H1234 H 0.12217 0.75325 0.23096 0.0
H1235 H 0.09279 0.752 0.22208 0.0
H1236 H 0.10196 0.72675 0.23356 0.0
H1237 H 0.16209 0.73255 0.16999 0.0
H1238 H 0.13902 0.75642 0.17307 0.0
H1239 H 0.16821 0.75774 0.18216 0.0
H1240 H 0.09223 0.81812 0.19177 0.0
H1241 H 0.16254 0.82096 0.21359 0.0
H1242 H 0.07964 0.75511 0.19719 0.0
H1243 H 0.09525 0.75678 0.18052 0.0
H1244 H 0.07308 0.78062 0.18532 0.0
H1245 H 0.1655 0.75862 0.22363 0.0
H1246 H 0.185 0.78513 0.21968 0.0
H1247 H 0.18137 0.76019 0.20704 0.0
C1248 C 0.1413 0.19022 0.78201 0.0
C1249 C 0.1224 0.1777 0.78944 0.0
C1250 C 0.14267 0.21637 0.78203 0.0
C1251 C 0.12469 0.23034 0.78962 0.0
C1252 C 0.10544 0.21783 0.79702 0.0
C1253 C 0.10455 0.19167 0.79685 0.0
C1254 C 0.1635 0.22906 0.77403 0.0
C1255 C 0.08589 0.23209 0.80521 0.0
C1256 C 0.14082 0.2962 0.80126 0.0
C1257 C 0.12842 0.31065 0.79107 0.0
C1258 C 0.1399 0.27005 0.80084 0.0
C1259 C 0.1262 0.25804 0.79001 0.0
C1260 C 0.11373 0.27248 0.77966 0.0
C1261 C 0.11501 0.29862 0.78031 0.0
C1262 C 0.1535 0.25527 0.81205 0.0
C1263 C 0.09889 0.26032 0.76797 0.0
H1264 H 0.15518 0.17957 0.77626 0.0
H1265 H 0.08986 0.18217 0.8026 0.0
H1266 H 0.15564 0.24215 0.76611 0.0
H1267 H 0.17504 0.24024 0.78143 0.0
H1268 H 0.17579 0.21553 0.76849 0.0
H1269 H 0.0719 0.21958 0.81019 0.0
H1270 H 0.09492 0.24335 0.81362 0.0
H1271 H 0.07603 0.24526 0.79809 0.0
H1272 H 0.15126 0.30532 0.8096 0.0
H1273 H 0.10536 0.30962 0.7724 0.0
H1274 H 0.16711 0.24245 0.80702 0.0
H1275 H 0.14005 0.2436 0.81803 0.0
H1276 H 0.16361 0.26744 0.81964 0.0
H1277 H 0.11105 0.24764 0.76176 0.0
H1278 H 0.09048 0.2742 0.76066 0.0
H1279 H 0.08372 0.24879 0.77256 0.0
C1280 C 0.35591 0.7085 0.2976 0.0
C1281 C 0.37069 0.69565 0.28774 0.0
C1282 C 0.35715 0.73456 0.29881 0.0
C1283 C 0.37363 0.74814 0.29 0.0
C1284 C 0.38835 0.73534 0.2799 0.0
C1285 C 0.38667 0.70925 0.27887 0.0
C1286 C 0.34107 0.74754 0.30968 0.0
C1287 C 0.4062 0.74917 0.27035 0.0
C1288 C 0.3624 0.81781 0.28586 0.0
C1289 C 0.37939 0.8278 0.29563 0.0
C1290 C 0.36048 0.79192 0.2838 0.0
C1291 C 0.37597 0.77565 0.29168 0.0
C1292 C 0.39338 0.78563 0.30141 0.0
C1293 C 0.39484 0.81156 0.30329 0.0
C1294 C 0.34165 0.78196 0.27335 0.0
C1295 C 0.41028 0.76889 0.30997 0.0
H1296 H 0.34345 0.69817 0.30447 0.0
H1297 H 0.39817 0.69949 0.27124 0.0
H1298 H 0.35306 0.75716 0.31753 0.0
H1299 H 0.32941 0.762 0.3045 0.0
H1300 H 0.32862 0.73437 0.31538 0.0
H1301 H 0.41578 0.73657 0.26277 0.0
H1302 H 0.39606 0.7637 0.26429 0.0
H1303 H 0.42052 0.75883 0.27682 0.0
H1304 H 0.35038 0.8302 0.2799 0.0
H1305 H 0.40806 0.81909 0.31084 0.0
H1306 H 0.32794 0.76994 0.2789 0.0
H1307 H 0.35111 0.7702 0.26533 0.0
H1308 H 0.3314 0.79711 0.26783 0.0
H1309 H 0.39892 0.7564 0.31676 0.0
H1310 H 0.42326 0.77962 0.31682 0.0
H1311 H 0.42142 0.75684 0.30282 0.0
C1312 C 0.4405 0.11422 0.55114 0.0
C1313 C 0.42663 0.11335 0.53857 0.0
C1314 C 0.46664 0.11553 0.55087 0.0
C1315 C 0.47923 0.11598 0.53771 0.0
C1316 C 0.46537 0.11503 0.52498 0.0
C1317 C 0.43923 0.11372 0.52556 0.0
C1318 C 0.48079 0.11649 0.56468 0.0
C1319 C 0.47816 0.11547 0.51075 0.0
C1320 C 0.54493 0.14248 0.53739 0.0
C1321 C 0.5595 0.12074 0.53772 0.0
C1322 C 0.51878 0.14119 0.53718 0.0
C1323 C 0.50692 0.1176 0.5373 0.0
C1324 C 0.5215 0.09558 0.5374 0.0
C1325 C 0.54762 0.09741 0.5376 0.0
C1326 C 0.50385 0.16508 0.53706 0.0
C1327 C 0.5095 0.07009 0.53752 0.0
H1328 H 0.43094 0.11392 0.56124 0.0
H1329 H 0.42868 0.11304 0.51579 0.0
H1330 H 0.49399 0.1006 0.56531 0.0
H1331 H 0.49199 0.13387 0.56522 0.0
H1332 H 0.46821 0.11582 0.57401 0.0
H1333 H 0.4647 0.11445 0.50184 0.0
H1334 H 0.48928 0.13282 0.50966 0.0
H1335 H 0.49131 0.09956 0.50989 0.0
H1336 H 0.55393 0.16058 0.53746 0.0
H1337 H 0.55872 0.08052 0.53785 0.0
H1338 H 0.4922 0.16622 0.54673 0.0
H1339 H 0.49101 0.16527 0.52786 0.0
H1340 H 0.51592 0.18191 0.53655 0.0
H1341 H 0.49808 0.06787 0.54722 0.0
H1342 H 0.52348 0.0548 0.53715 0.0
H1343 H 0.49676 0.0681 0.52834 0.0
C1344 C 0.9232 0.8458 0.04303 0.0
C1345 C 0.90919 0.863 0.03516 0.0
C1346 C 0.94937 0.84674 0.04314 0.0
C1347 C 0.96183 0.86536 0.03523 0.0
C1348 C 0.94783 0.88263 0.02715 0.0
C1349 C 0.92167 0.88121 0.02719 0.0
C1350 C 0.96367 0.82793 0.05184 0.0
C1351 C 0.96046 0.90279 0.01859 0.0
C1352 C 0.02766 0.88283 0.04635 0.0
C1353 C 0.04214 0.86978 0.03644 0.0
C1354 C 0.00151 0.88166 0.04602 0.0
C1355 C 0.98954 0.86701 0.03558 0.0
C1356 C 0.00402 0.85381 0.02554 0.0
C1357 C 0.03015 0.8554 0.02607 0.0
C1358 C 0.98668 0.89608 0.05687 0.0
C1359 C 0.99192 0.83791 0.01428 0.0
H1360 H 0.91373 0.83165 0.04921 0.0
H1361 H 0.911 0.89461 0.0211 0.0
H1362 H 0.97697 0.8176 0.04502 0.0
H1363 H 0.9748 0.83769 0.06005 0.0
H1364 H 0.95121 0.81427 0.05714 0.0
H1365 H 0.9469 0.91451 0.0127 0.0
H1366 H 0.97153 0.91502 0.02569 0.0
H1367 H 0.97363 0.89432 0.01092 0.0
H1368 H 0.03676 0.89403 0.05438 0.0
H1369 H 0.04117 0.84522 0.01839 0.0
H1370 H 0.97504 0.88309 0.06319 0.0
H1371 H 0.97384 0.90925 0.0515 0.0
H1372 H 0.99882 0.90682 0.0642 0.0
H1373 H 0.9804 0.82316 0.01929 0.0
H1374 H 0.00583 0.82888 0.00723 0.0
H1375 H 0.97924 0.84948 0.00773 0.0
C1376 C 0.46677 0.8557 0.47013 0.0
C1377 C 0.452 0.87097 0.46146 0.0
C1378 C 0.49286 0.85554 0.46884 0.0
C1379 C 0.50447 0.87109 0.45868 0.0
C1380 C 0.48969 0.88675 0.45001 0.0
C1381 C 0.46364 0.88647 0.45149 0.0
C1382 C 0.508 0.83856 0.47825 0.0
C1383 C 0.5014 0.90365 0.43909 0.0
C1384 C 0.57319 0.8866 0.46319 0.0
C1385 C 0.58441 0.8701 0.45358 0.0
C1386 C 0.54719 0.88713 0.46496 0.0
C1387 C 0.53205 0.87071 0.45697 0.0
C1388 C 0.54326 0.85396 0.44729 0.0
C1389 C 0.56929 0.85389 0.44569 0.0
C1390 C 0.5359 0.90531 0.47536 0.0
C1391 C 0.52774 0.83612 0.4386 0.0
H1392 H 0.45795 0.84365 0.47785 0.0
H1393 H 0.45239 0.89837 0.44477 0.0
H1394 H 0.51873 0.82516 0.47169 0.0
H1395 H 0.52171 0.84964 0.48441 0.0
H1396 H 0.49616 0.82787 0.48575 0.0
H1397 H 0.48733 0.91505 0.43338 0.0
H1398 H 0.51497 0.91639 0.44423 0.0
H1399 H 0.51188 0.89236 0.43125 0.0
H1400 H 0.58471 0.89923 0.46931 0.0
H1401 H 0.57779 0.84105 0.43826 0.0
H1402 H 0.52504 0.89506 0.48348 0.0
H1403 H 0.52274 0.91793 0.46981 0.0
H1404 H 0.55026 0.91682 0.48076 0.0
H1405 H 0.51661 0.82393 0.44568 0.0
H1406 H 0.53933 0.82416 0.43161 0.0
H1407 H 0.51437 0.8467 0.43195 0.0
C1408 C 0.04619 0.13083 0.97179 0.0
C1409 C 0.05687 0.11961 0.95983 0.0
C1410 C 0.02022 0.13331 0.97309 0.0
C1411 C 0.00456 0.12423 0.96219 0.0
C1412 C 0.0152 0.11266 0.95016 0.0
C1413 C 0.04123 0.11055 0.9491 0.0
C1414 C 0.00955 0.14586 0.98605 0.0
C1415 C 0.99908 0.10263 0.93835 0.0
C1416 C 0.93635 0.11133 0.97036 0.0
C1417 C 0.92467 0.1324 0.96456 0.0
C1418 C 0.96236 0.10847 0.96974 0.0
C1419 C 0.97704 0.12721 0.96325 0.0
C1420 C 0.9654 0.14869 0.95757 0.0
C1421 C 0.93936 0.151 0.95826 0.0
C1422 C 0.97412 0.08526 0.97586 0.0
C1423 C 0.98044 0.16915 0.95065 0.0
H1424 H 0.05812 0.1379 0.98013 0.0
H1425 H 0.04932 0.10177 0.93985 0.0
H1426 H 0.99875 0.16261 0.98288 0.0
H1427 H 0.99646 0.13306 0.99152 0.0
H1428 H 0.02426 0.15164 0.99365 0.0
H1429 H 0.01024 0.09367 0.92985 0.0
H1430 H 0.98568 0.08875 0.94259 0.0
H1431 H 0.98799 0.118 0.93363 0.0
H1432 H 0.92513 0.09684 0.97521 0.0
H1433 H 0.9305 0.16737 0.95379 0.0
H1434 H 0.9881 0.09041 0.98399 0.0
H1435 H 0.98412 0.0749 0.96743 0.0
H1436 H 0.96013 0.07262 0.98074 0.0
H1437 H 0.99461 0.1764 0.95815 0.0
H1438 H 0.9686 0.18494 0.94706 0.0
H1439 H 0.99063 0.16158 0.94138 0.0
C1440 C 0.19522 0.44169 0.99301 0.0
C1441 C 0.20611 0.43814 0.97967 0.0
C1442 C 0.1963 0.46489 -0.00021 0.0
C1443 C 0.20862 0.48503 0.99308 0.0
C1444 C 0.2213 0.48107 0.98014 0.0
C1445 C 0.21989 0.45761 0.97357 0.0
C1446 C 0.18269 0.46829 0.01365 0.0
C1447 C 0.23488 0.50202 0.97276 0.0
C1448 C 0.17868 0.54718 0.00129 0.0
C1449 C 0.19396 0.55622 0.01218 0.0
C1450 C 0.18403 0.52458 0.99452 0.0
C1451 C 0.20522 0.51067 -0.00129 0.0
C1452 C 0.22152 0.52033 0.00913 0.0
C1453 C 0.21568 0.54304 0.01577 0.0
C1454 C 0.16622 0.51499 0.98339 0.0
C1455 C 0.2444 0.50611 0.01376 0.0
H1456 H 0.18482 0.42664 0.99789 0.0
H1457 H 0.22852 0.45498 0.96331 0.0
H1458 H 0.19483 0.47777 0.02147 0.0
H1459 H 0.16609 0.48031 0.01197 0.0
H1460 H 0.17636 0.45025 0.01819 0.0
H1461 H 0.24712 0.49505 0.96414 0.0
H1462 H 0.22109 0.51508 0.96811 0.0
H1463 H 0.24638 0.51277 0.98038 0.0
H1464 H 0.16201 0.55737 0.99834 0.0
H1465 H 0.22765 0.54997 0.02413 0.0
H1466 H 0.15688 0.49783 0.98728 0.0
H1467 H 0.17653 0.50996 0.97362 0.0
H1468 H 0.15163 0.52888 0.98063 0.0
H1469 H 0.23866 0.4895 0.01995 0.0
H1470 H 0.25695 0.51767 0.02043 0.0
H1471 H 0.25502 0.49934 0.00445 0.0
C1472 C 0.77611 0.87602 0.21777 0.0
C1473 C 0.79771 0.89049 0.21622 0.0
C1474 C 0.75925 0.88059 0.2288 0.0
C1475 C 0.76403 0.90022 0.23844 0.0
C1476 C 0.78525 0.91558 0.23659 0.0
C1477 C 0.80192 0.91047 0.22552 0.0
C1478 C 0.73684 0.86375 0.23046 0.0
C1479 C 0.79077 0.93686 0.24658 0.0
C1480 C 0.70913 0.91862 0.26151 0.0
C1481 C 0.71371 0.90449 0.27374 0.0
C1482 C 0.72593 0.91833 0.25013 0.0
C1483 C 0.74768 0.90344 0.25098 0.0
C1484 C 0.75293 0.89004 0.26353 0.0
C1485 C 0.73593 0.89082 0.27478 0.0
C1486 C 0.7199 0.93311 0.23698 0.0
C1487 C 0.77593 0.87392 0.26484 0.0
H1488 H 0.77268 0.8606 0.21061 0.0
H1489 H 0.8185 0.92184 0.22432 0.0
H1490 H 0.73829 0.85326 0.24055 0.0
H1491 H 0.7195 0.87501 0.23096 0.0
H1492 H 0.73512 0.85015 0.22165 0.0
H1493 H 0.80671 0.94843 0.24292 0.0
H1494 H 0.77414 0.94899 0.24775 0.0
H1495 H 0.79527 0.92936 0.25721 0.0
H1496 H 0.69206 0.92936 0.26067 0.0
H1497 H 0.73967 0.87993 0.2842 0.0
H1498 H 0.71551 0.92015 0.22817 0.0
H1499 H 0.73625 0.94438 0.23367 0.0
H1500 H 0.70373 0.94576 0.23855 0.0
H1501 H 0.77488 0.85833 0.25714 0.0
H1502 H 0.77808 0.86594 0.27561 0.0
H1503 H 0.79288 0.8849 0.26228 0.0
C1504 C 0.26821 0.46374 0.52594 0.0
C1505 C 0.28584 0.44482 0.52365 0.0
C1506 C 0.2663 0.48405 0.51661 0.0
C1507 C 0.28247 0.48542 0.5048 0.0
C1508 C 0.29925 0.46565 0.50201 0.0
C1509 C 0.30069 0.44558 0.51144 0.0
C1510 C 0.24799 0.50467 0.51984 0.0
C1511 C 0.31679 0.46637 0.4895 0.0
C1512 C 0.27511 0.5315 0.47461 0.0
C1513 C 0.29321 0.54936 0.47814 0.0
C1514 C 0.27037 0.51112 0.48356 0.0
C1515 C 0.28411 0.5086 0.49626 0.0
C1516 C 0.30144 0.52726 0.50021 0.0
C1517 C 0.30574 0.54741 0.49111 0.0
C1518 C 0.25157 0.49169 0.4791 0.0
C1519 C 0.31643 0.52531 0.51369 0.0
H1520 H 0.25653 0.4632 0.53529 0.0
H1521 H 0.31419 0.43092 0.50949 0.0
H1522 H 0.25826 0.52138 0.52359 0.0
H1523 H 0.23764 0.51013 0.51016 0.0
H1524 H 0.23436 0.49916 0.52812 0.0
H1525 H 0.32711 0.44857 0.48812 0.0
H1526 H 0.30634 0.47037 0.47963 0.0
H1527 H 0.33056 0.48162 0.49097 0.0
H1528 H 0.26523 0.53296 0.46465 0.0
H1529 H 0.31956 0.56126 0.49401 0.0
H1530 H 0.23898 0.48696 0.48802 0.0
H1531 H 0.26145 0.47433 0.47602 0.0
H1532 H 0.24011 0.49801 0.46999 0.0
H1533 H 0.3039 0.5222 0.52286 0.0
H1534 H 0.32776 0.5423 0.51573 0.0
H1535 H 0.3292 0.50905 0.51303 0.0
C1536 C 0.80776 0.08898 0.77371 0.0
C1537 C 0.80214 0.1062 0.78443 0.0
C1538 C 0.79093 0.08448 0.76264 0.0
C1539 C 0.76808 0.09768 0.76225 0.0
C1540 C 0.76186 0.11427 0.77335 0.0
C1541 C 0.77894 0.11825 0.78434 0.0
C1542 C 0.79804 0.06643 0.75106 0.0
C1543 C 0.73767 0.12873 0.77329 0.0
C1544 C 0.73776 0.11313 0.72721 0.0
C1545 C 0.7171 0.09708 0.7272 0.0
C1546 C 0.75499 0.11285 0.73834 0.0
C1547 C 0.75159 0.09596 0.74968 0.0
C1548 C 0.7315 0.07884 0.7494 0.0
C1549 C 0.7144 0.07966 0.73817 0.0
C1550 C 0.77619 0.13143 0.73826 0.0
C1551 C 0.72752 0.06036 0.76124 0.0
H1552 H 0.82559 0.07944 0.77377 0.0
H1553 H 0.7744 0.1315 0.79261 0.0
H1554 H 0.78256 0.05319 0.74899 0.0
H1555 H 0.8015 0.07684 0.74111 0.0
H1556 H 0.81509 0.05564 0.75372 0.0
H1557 H 0.73492 0.1396 0.78317 0.0
H1558 H 0.73751 0.14185 0.76421 0.0
H1559 H 0.72163 0.11588 0.77194 0.0
H1560 H 0.74007 0.12657 0.71875 0.0
H1561 H 0.69856 0.06709 0.73819 0.0
H1562 H 0.79427 0.12171 0.73974 0.0
H1563 H 0.77395 0.14464 0.74721 0.0
H1564 H 0.77702 0.14231 0.72828 0.0
H1565 H 0.74506 0.05015 0.76353 0.0
H1566 H 0.71267 0.04661 0.75871 0.0
H1567 H 0.72216 0.07045 0.77102 0.0
C1568 C 0.87167 0.52024 0.02701 0.0
C1569 C 0.85809 0.54241 0.02535 0.0
C1570 C 0.87263 0.50242 0.01618 0.0
C1571 C 0.85952 0.50678 0.00343 0.0
C1572 C 0.84472 0.52849 0.00196 0.0
C1573 C 0.84424 0.54612 0.01294 0.0
C1574 C 0.88867 0.47951 0.01814 0.0
C1575 C 0.83023 0.53357 0.98858 0.0
C1576 C 0.88761 0.47612 0.97105 0.0
C1577 C 0.87314 0.45445 0.96985 0.0
C1578 C 0.88287 0.49367 0.9817 0.0
C1579 C 0.86302 0.48955 0.9913 0.0
C1580 C 0.84771 0.46821 0.98981 0.0
C1581 C 0.85303 0.45082 0.97912 0.0
C1582 C 0.89969 0.51617 0.983 0.0
C1583 C 0.82621 0.46337 -0.00025 0.0
H1584 H 0.88234 0.51716 0.03659 0.0
H1585 H 0.83357 0.56314 0.01161 0.0
H1586 H 0.87773 0.4624 0.01588 0.0
H1587 H 0.90445 0.48 0.01055 0.0
H1588 H 0.89637 0.47811 0.02902 0.0
H1589 H 0.81756 0.54986 0.98969 0.0
H1590 H 0.84339 0.53733 0.97977 0.0
H1591 H 0.81902 0.517 0.98557 0.0
H1592 H 0.90315 0.47909 0.96391 0.0
H1593 H 0.84165 0.43418 0.97819 0.0
H1594 H 0.90987 0.51545 0.99321 0.0
H1595 H 0.88845 0.53354 0.98298 0.0
H1596 H 0.91356 0.51724 0.97429 0.0
H1597 H 0.83345 0.45971 0.01055 0.0
H1598 H 0.81477 0.44713 0.9964 0.0
H1599 H 0.814 0.48004 0.00042 0.0
C1600 C 0.20254 0.07315 0.75419 0.0
C1601 C 0.19853 0.06078 0.76706 0.0
C1602 C 0.22504 0.07051 0.74684 0.0
C1603 C 0.24399 0.05502 0.75245 0.0
C1604 C 0.23946 0.04116 0.76492 0.0
C1605 C 0.21674 0.04423 0.77212 0.0
C1606 C 0.22909 0.08556 0.73352 0.0
C1607 C 0.25912 0.02421 0.77111 0.0
C1608 C 0.29787 0.04445 0.72714 0.0
C1609 C 0.31392 0.064 0.73099 0.0
C1610 C 0.27561 0.04017 0.73461 0.0
C1611 C 0.26931 0.05589 0.74609 0.0
C1612 C 0.28619 0.07461 0.75054 0.0
C1613 C 0.3083 0.07839 0.74296 0.0
C1614 C 0.25822 0.01979 0.7297 0.0
C1615 C 0.28021 0.09174 0.76278 0.0
H1616 H 0.18845 0.08573 0.75011 0.0
H1617 H 0.21371 0.03446 0.78201 0.0
H1618 H 0.24353 0.09999 0.73546 0.0
H1619 H 0.23597 0.0734 0.72486 0.0
H1620 H 0.21177 0.095 0.72991 0.0
H1621 H 0.25139 0.01183 0.77945 0.0
H1622 H 0.2677 0.01251 0.76274 0.0
H1623 H 0.2742 0.03566 0.77585 0.0
H1624 H 0.30217 0.03311 0.71797 0.0
H1625 H 0.32072 0.09334 0.74612 0.0
H1626 H 0.2419 0.02826 0.72432 0.0
H1627 H 0.25108 0.00894 0.73883 0.0
H1628 H 0.26748 0.00681 0.72219 0.0
H1629 H 0.26415 0.10382 0.75994 0.0
H1630 H 0.29621 0.10389 0.76565 0.0
H1631 H 0.27474 0.08074 0.77222 0.0
C1632 C 0.63983 0.44487 0.51238 0.0
C1633 C 0.62213 0.44836 0.52313 0.0
C1634 C 0.64387 0.4633 0.50208 0.0
C1635 C 0.62962 0.48551 0.50247 0.0
C1636 C 0.61251 0.48956 0.51364 0.0
C1637 C 0.60909 0.47099 0.52389 0.0
C1638 C 0.66261 0.45857 0.49047 0.0
C1639 C 0.59683 0.51295 0.51438 0.0
C1640 C 0.64497 0.54319 0.4809 0.0
C1641 C 0.6281 0.54087 0.46963 0.0
C1642 C 0.64662 0.52468 0.49136 0.0
C1643 C 0.63078 0.5036 0.4906 0.0
C1644 C 0.61441 0.50073 0.47897 0.0
C1645 C 0.61339 0.51932 0.46858 0.0
C1646 C 0.66461 0.52813 0.50349 0.0
C1647 C 0.59708 0.47859 0.47783 0.0
H1648 H 0.65014 0.4275 0.51181 0.0
H1649 H 0.59544 0.47388 0.53218 0.0
H1650 H 0.6527 0.45567 0.4803 0.0
H1651 H 0.67501 0.47497 0.48912 0.0
H1652 H 0.67429 0.44187 0.49263 0.0
H1653 H 0.5855 0.51389 0.52421 0.0
H1654 H 0.60887 0.52974 0.51385 0.0
H1655 H 0.58402 0.51362 0.50516 0.0
H1656 H 0.65655 0.55971 0.4817 0.0
H1657 H 0.60035 0.51736 0.45989 0.0
H1658 H 0.67569 0.51089 0.50516 0.0
H1659 H 0.65405 0.53173 0.51337 0.0
H1660 H 0.6776 0.54396 0.50167 0.0
H1661 H 0.60779 0.46094 0.47862 0.0
H1662 H 0.58645 0.47848 0.46774 0.0
H1663 H 0.58359 0.47888 0.48673 0.0
C1664 C 0.22341 0.95341 0.22141 0.0
C1665 C 0.20555 0.93567 0.22547 0.0
C1666 C 0.24638 0.95517 0.22852 0.0
C1667 C 0.25159 0.9386 0.23979 0.0
C1668 C 0.23317 0.92149 0.24434 0.0
C1669 C 0.21034 0.92036 0.2372 0.0
C1670 C 0.26541 0.97401 0.22358 0.0
C1671 C 0.23801 0.90341 0.25629 0.0
C1672 C 0.31679 0.91609 0.24804 0.0
C1673 C 0.32118 0.92744 0.26116 0.0
C1674 C 0.29475 0.92074 0.24052 0.0
C1675 C 0.27687 0.93743 0.24618 0.0
C1676 C 0.28205 0.95039 0.25888 0.0
C1677 C 0.3041 0.94509 0.26629 0.0
C1678 C 0.28984 0.90642 0.22704 0.0
C1679 C 0.26368 0.96873 0.26506 0.0
H1680 H 0.21979 0.96543 0.21243 0.0
H1681 H 0.19661 0.9067 0.24049 0.0
H1682 H 0.27345 0.98419 0.23273 0.0
H1683 H 0.28098 0.96422 0.21819 0.0
H1684 H 0.25728 0.98775 0.21609 0.0
H1685 H 0.2213 0.8921 0.25896 0.0
H1686 H 0.25337 0.89055 0.25332 0.0
H1687 H 0.24402 0.91362 0.26591 0.0
H1688 H 0.32996 0.90253 0.24396 0.0
H1689 H 0.30754 0.95418 0.27635 0.0
H1690 H 0.28386 0.91925 0.2185 0.0
H1691 H 0.27445 0.89293 0.22882 0.0
H1692 H 0.30653 0.89594 0.22339 0.0
H1693 H 0.2564 0.98138 0.25674 0.0
H1694 H 0.27216 0.98016 0.27361 0.0
H1695 H 0.24755 0.95846 0.26955 0.0
C1696 C 0.66816 0.04444 0.50839 0.0
C1697 C 0.68334 0.05119 0.51985 0.0
C1698 C 0.67432 0.02421 0.49972 0.0
C1699 C 0.69628 0.0104 0.50251 0.0
C1700 C 0.71241 0.01789 0.51357 0.0
C1701 C 0.70571 0.03822 0.52216 0.0
C1702 C 0.65663 0.01688 0.48798 0.0
C1703 C 0.73611 0.00377 0.51674 0.0
C1704 C 0.68898 0.94358 0.49072 0.0
C1705 C 0.69926 0.94439 0.47708 0.0
C1706 C 0.68953 0.96453 0.49955 0.0
C1707 C 0.70071 0.98683 0.49465 0.0
C1708 C 0.71294 0.98716 0.48138 0.0
C1709 C 0.71205 0.96589 0.47271 0.0
C1710 C 0.67641 0.96334 0.51368 0.0
C1711 C 0.72538 0.01049 0.47589 0.0
H1712 H 0.65097 0.0545 0.50643 0.0
H1713 H 0.71763 0.04343 0.53093 0.0
H1714 H 0.66683 0.01524 0.47782 0.0
H1715 H 0.64837 0.99835 0.49034 0.0
H1716 H 0.64122 0.03053 0.48663 0.0
H1717 H 0.74832 0.01401 0.52425 0.0
H1718 H 0.7314 0.98541 0.52145 0.0
H1719 H 0.74671 0.00013 0.50687 0.0
H1720 H 0.67939 0.92691 0.49427 0.0
H1721 H 0.72024 0.9666 0.46224 0.0
H1722 H 0.65919 0.9748 0.51326 0.0
H1723 H 0.68843 0.97114 0.52214 0.0
H1724 H 0.67116 0.94397 0.5166 0.0
H1725 H 0.71089 0.02402 0.47251 0.0
H1726 H 0.73768 0.00653 0.4667 0.0
H1727 H 0.73659 0.01954 0.48431 0.0
C1728 C 0.21469 0.44499 0.78175 0.0
C1729 C 0.19772 0.42543 0.77957 0.0
C1730 C 0.23425 0.44931 0.77216 0.0
C1731 C 0.23682 0.43365 0.76019 0.0
C1732 C 0.21904 0.41468 0.75761 0.0
C1733 C 0.19972 0.41083 0.76732 0.0
C1734 C 0.25277 0.46984 0.77517 0.0
C1735 C 0.22106 0.39763 0.74493 0.0
C1736 C 0.27825 0.44684 0.72857 0.0
C1737 C 0.29819 0.43053 0.73118 0.0
C1738 C 0.25871 0.44936 0.73837 0.0
C1739 C 0.25924 0.43523 0.75102 0.0
C1740 C 0.28013 0.42003 0.7541 0.0
C1741 C 0.29934 0.41788 0.74414 0.0
C1742 C 0.23685 0.46593 0.7348 0.0
C1743 C 0.28147 0.40476 0.7675 0.0
H1744 H 0.21317 0.45646 0.79115 0.0
H1745 H 0.18652 0.39586 0.76546 0.0
H1746 H 0.2709 0.46153 0.77829 0.0
H1747 H 0.2561 0.48118 0.76553 0.0
H1748 H 0.24638 0.48235 0.78381 0.0
H1749 H 0.20474 0.38496 0.74394 0.0
H1750 H 0.22268 0.40874 0.73508 0.0
H1751 H 0.23816 0.38608 0.74583 0.0
H1752 H 0.27731 0.45682 0.71862 0.0
H1753 H 0.31486 0.4055 0.74633 0.0
H1754 H 0.23145 0.47744 0.74406 0.0
H1755 H 0.22053 0.4542 0.73199 0.0
H1756 H 0.24097 0.47849 0.72575 0.0
H1757 H 0.27744 0.41658 0.77685 0.0
H1758 H 0.30002 0.39589 0.76896 0.0
H1759 H 0.26712 0.38984 0.76717 0.0
C1760 C 0.80669 0.94725 0.00228 0.0
C1761 C 0.79321 0.94171 0.0146 0.0
C1762 C 0.80487 0.97069 0.99584 0.0
C1763 C 0.78906 0.98902 0.00182 0.0
C1764 C 0.77394 0.98295 0.0136 0.0
C1765 C 0.77624 0.95933 0.01989 0.0
C1766 C 0.82125 0.97637 0.98324 0.0
C1767 C 0.75655 0.00189 0.0201 0.0
C1768 C 0.81452 0.05403 0.99653 0.0
C1769 C 0.80158 0.06187 0.98444 0.0
C1770 C 0.80954 0.03088 0.00277 0.0
C1771 C 0.79107 0.01521 0.99682 0.0
C1772 C 0.77676 0.02368 0.9852 0.0
C1773 C 0.78223 0.04695 0.9791 0.0
C1774 C 0.82519 0.02258 0.01521 0.0
C1775 C 0.75666 0.00762 0.97872 0.0
H1776 H 0.8196 0.93364 0.99799 0.0
H1777 H 0.76557 0.95512 0.02933 0.0
H1778 H 0.8101 0.98485 0.97461 0.0
H1779 H 0.83577 0.99009 0.98633 0.0
H1780 H 0.83067 0.95943 0.97907 0.0
H1781 H 0.7431 0.99311 0.02753 0.0
H1782 H 0.76761 0.01592 0.02603 0.0
H1783 H 0.746 0.01198 0.01179 0.0
H1784 H 0.8293 0.06556 0.00084 0.0
H1785 H 0.772 0.05296 0.96982 0.0
H1786 H 0.83718 0.00668 0.01199 0.0
H1787 H 0.81307 0.01601 0.02396 0.0
H1788 H 0.83737 0.03774 0.01927 0.0
H1789 H 0.76542 0.99216 0.9727 0.0
H1790 H 0.74458 0.01839 0.97138 0.0
H1791 H 0.74482 0.99914 0.98705 0.0
C1792 C 0.26743 0.62128 0.27303 0.0
C1793 C 0.29057 0.60911 0.27267 0.0
C1794 C 0.25057 0.61917 0.26176 0.0
C1795 C 0.25694 0.60438 0.24989 0.0
C1796 C 0.27969 0.59098 0.24979 0.0
C1797 C 0.2963 0.59358 0.26117 0.0
C1798 C 0.2265 0.63379 0.26225 0.0
C1799 C 0.28696 0.57479 0.23739 0.0
C1800 C 0.20418 0.59068 0.22421 0.0
C1801 C 0.20757 0.60963 0.21415 0.0
C1802 C 0.22067 0.58807 0.23566 0.0
C1803 C 0.24084 0.60492 0.23711 0.0
C1804 C 0.24483 0.6235 0.22671 0.0
C1805 C 0.22822 0.62555 0.21534 0.0
C1806 C 0.21602 0.56785 0.24646 0.0
C1807 C 0.26611 0.64187 0.22789 0.0
H1808 H 0.26278 0.63321 0.2819 0.0
H1809 H 0.31407 0.58394 0.26087 0.0
H1810 H 0.22676 0.64843 0.25395 0.0
H1811 H 0.21041 0.6214 0.26001 0.0
H1812 H 0.22349 0.64292 0.27266 0.0
H1813 H 0.30381 0.56339 0.23965 0.0
H1814 H 0.27141 0.56212 0.23449 0.0
H1815 H 0.29086 0.58672 0.22806 0.0
H1816 H 0.18833 0.57822 0.22332 0.0
H1817 H 0.23105 0.64019 0.2076 0.0
H1818 H 0.21057 0.57642 0.25668 0.0
H1819 H 0.23333 0.557 0.24835 0.0
H1820 H 0.20102 0.55483 0.24311 0.0
H1821 H 0.26368 0.65346 0.23752 0.0
H1822 H 0.26731 0.65444 0.21858 0.0
H1823 H 0.28409 0.6318 0.22898 0.0
C1824 C 0.33268 0.04089 0.52008 0.0
C1825 C 0.34816 0.03948 0.53201 0.0
C1826 C 0.33319 0.02219 0.50968 0.0
C1827 C 0.34973 0.0018 0.51123 0.0
C1828 C 0.36455 -0.00028 0.52356 0.0
C1829 C 0.36349 0.01853 0.53383 0.0
C1830 C 0.31685 0.02483 0.49676 0.0
C1831 C 0.38251 0.97829 0.52557 0.0
C1832 C 0.34469 0.94351 0.48859 0.0
C1833 C 0.36316 0.94795 0.47838 0.0
C1834 C 0.33947 0.96124 0.49912 0.0
C1835 C 0.35324 0.98376 0.49948 0.0
C1836 C 0.37149 0.98856 0.48901 0.0
C1837 C 0.37613 0.97065 0.47854 0.0
C1838 C 0.31967 0.95565 0.51002 0.0
C1839 C 0.38668 0.01231 0.48911 0.0
H1840 H 0.32064 0.05694 0.51864 0.0
H1841 H 0.37547 0.01725 0.54304 0.0
H1842 H 0.32864 0.02873 0.48738 0.0
H1843 H 0.30669 0.00718 0.49467 0.0
H1844 H 0.30306 0.04017 0.4979 0.0
H1845 H 0.3914 0.9785 0.53618 0.0
H1846 H 0.37275 0.96022 0.52415 0.0
H1847 H 0.39741 0.97929 0.51743 0.0
H1848 H 0.33447 0.92606 0.48847 0.0
H1849 H 0.39041 0.97423 0.47069 0.0
H1850 H 0.30616 0.97129 0.51065 0.0
H1851 H 0.32841 0.95377 0.5206 0.0
H1852 H 0.30933 0.9382 0.50762 0.0
H1853 H 0.37416 0.02879 0.48898 0.0
H1854 H 0.39954 0.01356 0.47992 0.0
H1855 H 0.39788 0.01331 0.49896 0.0
C1856 C 0.71803 0.55513 0.27668 0.0
C1857 C 0.70117 0.5732 0.27178 0.0
C1858 C 0.74166 0.55242 0.27042 0.0
C1859 C 0.74856 0.56834 0.25914 0.0
C1860 C 0.73112 0.58567 0.25368 0.0
C1861 C 0.70762 0.58777 0.26001 0.0
C1862 C 0.75961 0.53339 0.27631 0.0
C1863 C 0.73776 0.60303 0.24166 0.0
C1864 C 0.81513 0.58907 0.25321 0.0
C1865 C 0.82095 0.57694 0.2405 0.0
C1866 C 0.79208 0.58528 0.25986 0.0
C1867 C 0.77457 0.56871 0.25374 0.0
C1868 C 0.78106 0.55499 0.2415 0.0
C1869 C 0.80415 0.5594 0.23495 0.0
C1870 C 0.78582 0.60036 0.27289 0.0
C1871 C 0.76308 0.53678 0.23484 0.0
H1872 H 0.71313 0.54367 0.2857 0.0
H1873 H 0.69466 0.60165 0.25607 0.0
H1874 H 0.76852 0.52268 0.26763 0.0
H1875 H 0.77469 0.54306 0.28218 0.0
H1876 H 0.75027 0.52013 0.28362 0.0
H1877 H 0.72161 0.61445 0.23816 0.0
H1878 H 0.75292 0.6158 0.24504 0.0
H1879 H 0.74477 0.59223 0.23248 0.0
H1880 H 0.82806 0.60254 0.25761 0.0
H1881 H 0.80865 0.54972 0.22521 0.0
H1882 H 0.77854 0.58806 0.28137 0.0
H1883 H 0.77095 0.61403 0.27031 0.0
H1884 H 0.80222 0.6107 0.27704 0.0
H1885 H 0.75445 0.5247 0.24302 0.0
H1886 H 0.77234 0.52476 0.22683 0.0
H1887 H 0.74782 0.5472 0.22956 0.0
C1888 C 0.14411 0.94574 0.01308 0.0
C1889 C 0.12564 0.94978 0.02334 0.0
C1890 C 0.14828 0.96319 0.00226 0.0
C1891 C 0.13345 0.985 0.00164 0.0
C1892 C 0.11526 0.98949 0.01219 0.0
C1893 C 0.11166 0.97188 0.02295 0.0
C1894 C 0.16804 0.95795 0.99127 0.0
C1895 C 0.09898 0.01249 0.01185 0.0
C1896 C 0.15075 0.04161 0.97964 0.0
C1897 C 0.13506 0.03865 0.96788 0.0
C1898 C 0.15132 0.02369 0.99046 0.0
C1899 C 0.13569 0.00247 0.98952 0.0
C1900 C 0.12062 0.99888 0.97741 0.0
C1901 C 0.12057 0.01696 0.96671 0.0
C1902 C 0.16787 0.02796 0.00315 0.0
C1903 C 0.10363 0.97652 0.97604 0.0
H1904 H 0.1551 0.92877 0.01337 0.0
H1905 H 0.09738 0.97516 0.03085 0.0
H1906 H 0.1591 0.9549 0.98083 0.0
H1907 H 0.18068 0.97423 0.99018 0.0
H1908 H 0.17936 0.94123 0.99391 0.0
H1909 H 0.08645 0.01371 0.02119 0.0
H1910 H 0.11071 0.02953 0.01149 0.0
H1911 H 0.08735 0.01235 0.00215 0.0
H1912 H 0.16212 0.05825 0.98058 0.0
H1913 H 0.10846 0.01447 0.95764 0.0
H1914 H 0.17901 0.011 0.00546 0.0
H1915 H 0.15617 0.03178 0.01259 0.0
H1916 H 0.18079 0.04393 0.00159 0.0
H1917 H 0.11432 0.95903 0.97763 0.0
H1918 H 0.09431 0.97568 0.96555 0.0
H1919 H 0.08905 0.97727 0.98436 0.0
C1920 C 0.80672 0.4344 0.75452 0.0
C1921 C 0.80442 0.43232 0.76924 0.0
C1922 C 0.78572 0.43262 0.74575 0.0
C1923 C 0.76205 0.42811 0.75187 0.0
C1924 C 0.75938 0.42806 0.76676 0.0
C1925 C 0.78064 0.43043 0.7753 0.0
C1926 C 0.78922 0.43347 0.72991 0.0
C1927 C 0.73451 0.42306 0.7737 0.0
C1928 C 0.7035 0.42678 0.72917 0.0
C1929 C 0.70186 0.40129 0.72595 0.0
C1930 C 0.72321 0.43601 0.73745 0.0
C1931 C 0.74123 0.41922 0.74284 0.0
C1932 C 0.73948 0.39345 0.73968 0.0
C1933 C 0.71998 0.38487 0.73114 0.0
C1934 C 0.72486 0.46364 0.74037 0.0
C1935 C 0.7581 0.37484 0.74541 0.0
H1936 H 0.82507 0.43623 0.74982 0.0
H1937 H 0.77876 0.42886 0.78668 0.0
H1938 H 0.78821 0.41426 0.72558 0.0
H1939 H 0.77419 0.44454 0.72485 0.0
H1940 H 0.80755 0.4416 0.72694 0.0
H1941 H 0.73482 0.42738 0.78519 0.0
H1942 H 0.71952 0.43415 0.76864 0.0
H1943 H 0.72966 0.40306 0.77238 0.0
H1944 H 0.68955 0.43952 0.72509 0.0
H1945 H 0.71866 0.36512 0.72877 0.0
H1946 H 0.74298 0.47099 0.73651 0.0
H1947 H 0.72415 0.46712 0.75193 0.0
H1948 H 0.70955 0.47425 0.73523 0.0
H1949 H 0.77708 0.37939 0.74151 0.0
H1950 H 0.75362 0.35537 0.74228 0.0
H1951 H 0.7586 0.37587 0.75713 0.0
C1952 C 0.17108 0.8104 0.02115 0.0
C1953 C 0.15459 0.81755 0.03194 0.0
C1954 C 0.17756 0.78521 0.0192 0.0
C1955 C 0.16728 0.76687 0.02825 0.0
C1956 C 0.15091 0.77405 0.03927 0.0
C1957 C 0.14479 0.79926 0.04098 0.0
C1958 C 0.19509 0.77818 0.00736 0.0
C1959 C 0.13954 0.75505 0.04918 0.0
C1960 C 0.15851 0.69921 0.0182 0.0
C1961 C 0.17657 0.68752 0.02665 0.0
C1962 C 0.15639 0.72526 0.01784 0.0
C1963 C 0.17275 0.73997 0.02611 0.0
C1964 C 0.19222 0.72839 0.0338 0.0
C1965 C 0.19391 0.70225 0.03398 0.0
C1966 C 0.13546 0.7369 0.00943 0.0
C1967 C 0.21015 0.74346 0.04266 0.0
H1968 H 0.17876 0.82442 0.01414 0.0
H1969 H 0.1321 0.80458 0.04938 0.0
H1970 H 0.2111 0.76739 0.01159 0.0
H1971 H 0.1853 0.76599 -0.00033 0.0
H1972 H 0.20236 0.79477 0.00165 0.0
H1973 H 0.1276 0.7638 0.0574 0.0
H1974 H 0.12802 0.74163 0.04308 0.0
H1975 H 0.15446 0.74424 0.05451 0.0
H1976 H 0.14519 0.68798 0.01238 0.0
H1977 H 0.20807 0.6934 0.04044 0.0
H1978 H 0.14241 0.75292 0.00314 0.0
H1979 H 0.12104 0.74414 0.01679 0.0
H1980 H 0.12649 0.72331 0.00216 0.0
H1981 H 0.2172 0.75976 0.03664 0.0
H1982 H 0.2263 0.73215 0.04628 0.0
H1983 H 0.20028 0.75073 0.05212 0.0
C1984 C 0.56338 0.95706 0.29377 0.0
C1985 C 0.57543 0.93451 0.29063 0.0
C1986 C 0.53721 0.95857 0.29395 0.0
C1987 C 0.52291 0.93695 0.29108 0.0
C1988 C 0.53499 0.91459 0.28703 0.0
C1989 C 0.56108 0.9137 0.28676 0.0
C1990 C 0.52494 0.98288 0.29801 0.0
C1991 C 0.52044 0.89106 0.28395 0.0
C1992 C 0.46176 0.92619 0.31004 0.0
C1993 C 0.44443 0.92887 0.29904 0.0
C1994 C 0.48729 0.92976 0.30767 0.0
C1995 C 0.4957 0.93654 0.29401 0.0
C1996 C 0.47822 0.94057 0.28303 0.0
C1997 C 0.45274 0.93648 0.28565 0.0
C1998 C 0.50536 0.92505 0.31965 0.0
C1999 C 0.48649 0.94826 0.26841 0.0
H2000 H 0.57433 0.9733 0.29663 0.0
H2001 H 0.5702 0.89624 0.28417 0.0
H2002 H 0.50899 0.98697 0.2909 0.0
H2003 H 0.51747 0.98141 0.30892 0.0
H2004 H 0.53823 0.99876 0.29764 0.0
H2005 H 0.53249 0.8759 0.27977 0.0
H2006 H 0.5114 0.88437 0.29381 0.0
H2007 H 0.50543 0.89483 0.27618 0.0
H2008 H 0.45551 0.92038 0.32043 0.0
H2009 H 0.4394 0.93881 0.27713 0.0
H2010 H 0.51775 0.94141 0.32114 0.0
H2011 H 0.51739 0.90885 0.31703 0.0
H2012 H 0.4957 0.92115 0.32981 0.0
H2013 H 0.49988 0.96402 0.26903 0.0
H2014 H 0.47052 0.95387 0.26164 0.0
H2015 H 0.49628 0.93248 0.26323 0.0
C2016 C 0.32778 0.19327 0.53858 0.0
C2017 C 0.31042 0.1781 0.54561 0.0
C2018 C 0.32533 0.21929 0.53859 0.0
C2019 C 0.30495 0.2304 0.54571 0.0
C2020 C 0.2863 0.21514 0.55184 0.0
C2021 C 0.28928 0.18912 0.55174 0.0
C2022 C 0.3456 0.2349 0.53189 0.0
C2023 C 0.26411 0.22632 0.55936 0.0
C2024 C 0.31992 0.29283 0.56233 0.0
C2025 C 0.31033 0.30959 0.55234 0.0
C2026 C 0.31754 0.26703 0.56047 0.0
C2027 C 0.30511 0.25771 0.54837 0.0
C2028 C 0.2945 0.2745 0.53851 0.0
C2029 C 0.29731 0.30031 0.54058 0.0
C2030 C 0.32917 0.24973 0.57124 0.0
C2031 C 0.28091 0.2652 0.52556 0.0
H2032 H 0.34403 0.18492 0.53367 0.0
H2033 H 0.27565 0.17753 0.55708 0.0
H2034 H 0.33739 0.24959 0.52506 0.0
H2035 H 0.35649 0.24441 0.54029 0.0
H2036 H 0.35863 0.2235 0.52542 0.0
H2037 H 0.24943 0.21219 0.56152 0.0
H2038 H 0.27024 0.2344 0.56959 0.0
H2039 H 0.25588 0.24167 0.55302 0.0
H2040 H 0.3299 0.29982 0.57148 0.0
H2041 H 0.28974 0.31317 0.53285 0.0
H2042 H 0.34422 0.23867 0.56617 0.0
H2043 H 0.31505 0.23637 0.57526 0.0
H2044 H 0.33723 0.25997 0.58037 0.0
H2045 H 0.29432 0.25599 0.51831 0.0
H2046 H 0.27149 0.28055 0.51973 0.0
H2047 H 0.26676 0.25105 0.52856 0.0
C2048 C 0.95311 0.09303 0.79975 0.0
C2049 C 0.93421 0.08192 0.79166 0.0
C2050 C 0.97827 0.08777 0.79718 0.0
C2051 C 0.98478 0.0709 0.78627 0.0
C2052 C 0.96583 0.05912 0.77826 0.0
C2053 C 0.9407 0.06481 0.78105 0.0
C2054 C 0.99794 0.10072 0.80598 0.0
C2055 C 0.97212 0.04096 0.7666 0.0
C2056 C 0.0502 0.08288 0.77315 0.0
C2057 C 0.06405 0.06636 0.78156 0.0
C2058 C 0.02408 0.08326 0.77377 0.0
C2059 C 0.01155 0.0667 0.78301 0.0
C2060 C 0.02529 0.04859 0.79061 0.0
C2061 C 0.05143 0.04862 0.7898 0.0
C2062 C 0.01009 0.10275 0.7654 0.0
C2063 C 0.01256 0.03046 0.80047 0.0
H2064 H 0.94829 0.1062 0.80801 0.0
H2065 H 0.9262 0.05609 0.77478 0.0
H2066 H 0.01023 0.08674 0.8111 0.0
H2067 H 0.00985 0.11249 0.79908 0.0
H2068 H 0.98972 0.11275 0.81434 0.0
H2069 H 0.95522 0.0321 0.76201 0.0
H2070 H 0.98228 0.0508 0.75803 0.0
H2071 H 0.98466 0.02612 0.77064 0.0
H2072 H 0.05978 0.09645 0.76661 0.0
H2073 H 0.06197 0.03563 0.79623 0.0
H2074 H 0.00302 0.11735 0.77269 0.0
H2075 H 0.99373 0.09437 0.76002 0.0
H2076 H 0.0221 0.11185 0.75732 0.0
H2077 H 0.00624 0.04051 0.81009 0.0
H2078 H 0.02522 0.01512 0.80378 0.0
H2079 H 0.99581 0.02224 0.7954 0.0
C2080 C 0.19671 0.17705 0.96581 0.0
C2081 C 0.17414 0.17114 0.95908 0.0
C2082 C 0.20409 0.20203 0.96763 0.0
C2083 C 0.18858 0.22141 0.96252 0.0
C2084 C 0.16577 0.2155 0.95577 0.0
C2085 C 0.15882 0.1905 0.95417 0.0
C2086 C 0.22844 0.20771 0.97496 0.0
C2087 C 0.14869 0.23562 0.95011 0.0
C2088 C 0.18842 0.28827 0.97514 0.0
C2089 C 0.1993 0.30048 0.96355 0.0
C2090 C 0.1867 0.26217 0.97553 0.0
C2091 C 0.19587 0.24802 0.96401 0.0
C2092 C 0.20866 0.26012 0.95285 0.0
C2093 C 0.21033 0.28624 0.95279 0.0
C2094 C 0.17328 0.24993 0.98774 0.0
C2095 C 0.21868 0.24571 0.94036 0.0
H2096 H 0.20863 0.16219 0.96965 0.0
H2097 H 0.14136 0.18616 0.94894 0.0
H2098 H 0.24101 0.21797 0.96768 0.0
H2099 H 0.22509 0.21996 0.98422 0.0
H2100 H 0.23811 0.19054 0.9786 0.0
H2101 H 0.13166 0.22784 0.94508 0.0
H2102 H 0.1429 0.24823 0.95882 0.0
H2103 H 0.15874 0.2471 0.94218 0.0
H2104 H 0.18015 0.29913 0.9836 0.0
H2105 H 0.21893 0.29551 0.94384 0.0
H2106 H 0.18349 0.2331 0.99135 0.0
H2107 H 0.15449 0.24384 0.98423 0.0
H2108 H 0.17099 0.26284 0.99684 0.0
H2109 H 0.22903 0.22894 0.94393 0.0
H2110 H 0.23123 0.25725 0.93368 0.0
H2111 H 0.20288 0.23922 0.93373 0.0
C2112 C 0.94457 0.91508 0.20525 0.0
C2113 C 0.94148 0.89642 0.19498 0.0
C2114 C 0.96846 0.92364 0.20898 0.0
C2115 C 0.98965 0.91328 0.20226 0.0
C2116 C 0.98659 0.89468 0.19177 0.0
C2117 C 0.96256 0.88648 0.18827 0.0
C2118 C 0.97106 0.94349 0.22021 0.0
C2119 C 0.00874 0.88318 0.18433 0.0
C2120 C 0.0533 0.94346 0.20024 0.0
C2121 C 0.067 0.92827 0.2095 0.0
C2122 C 0.02752 0.94009 0.19854 0.0
C2123 C 0.01523 0.92116 0.20631 0.0
C2124 C 0.02855 0.90736 0.21659 0.0
C2125 C 0.0543 0.9111 0.21807 0.0
C2126 C 0.0139 0.95537 0.18757 0.0
C2127 C 0.01607 0.88717 0.2252 0.0
H2128 H 0.92835 0.92286 0.21049 0.0
H2129 H 0.96036 0.87212 0.1803 0.0
H2130 H 0.98157 0.93593 0.22937 0.0
H2131 H 0.98188 0.95953 0.21604 0.0
H2132 H 0.95269 0.95037 0.22401 0.0
H2133 H 0.00311 0.86928 0.17622 0.0
H2134 H 0.01996 0.89793 0.1791 0.0
H2135 H 0.02099 0.8738 0.19215 0.0
H2136 H 0.06291 0.95695 0.19367 0.0
H2137 H 0.06468 0.89949 0.22539 0.0
H2138 H 0.99569 0.96193 0.19172 0.0
H2139 H 0.01006 0.94357 0.17817 0.0
H2140 H 0.02496 0.9718 0.18411 0.0
H2141 H 0.99804 0.89385 0.22953 0.0
H2142 H 0.02799 0.88074 0.23409 0.0
H2143 H 0.01202 0.87093 0.21828 0.0
C2144 C 0.31431 0.69338 0.46877 0.0
C2145 C 0.3123 0.68409 0.45495 0.0
C2146 C 0.31565 0.71915 0.47133 0.0
C2147 C 0.31528 0.7359 0.45976 0.0
C2148 C 0.31176 0.72668 0.44588 0.0
C2149 C 0.31015 0.70089 0.44365 0.0
C2150 C 0.3189 0.72832 0.48631 0.0
C2151 C 0.31139 0.74394 0.43325 0.0
C2152 C 0.30888 0.80611 0.46385 0.0
C2153 C 0.33381 0.81377 0.4626 0.0
C2154 C 0.30253 0.78068 0.46359 0.0
C2155 C 0.32156 0.76262 0.46188 0.0
C2156 C 0.34681 0.77023 0.46116 0.0
C2157 C 0.35263 0.79567 0.46161 0.0
C2158 C 0.27545 0.7732 0.46462 0.0
C2159 C 0.36767 0.75154 0.45928 0.0
H2160 H 0.31571 0.68051 0.47758 0.0
H2161 H 0.30847 0.69389 0.43293 0.0
H2162 H 0.33835 0.73489 0.48783 0.0
H2163 H 0.30638 0.74438 0.48843 0.0
H2164 H 0.31504 0.71346 0.4942 0.0
H2165 H 0.30628 0.73406 0.42333 0.0
H2166 H 0.29797 0.75939 0.43497 0.0
H2167 H 0.33012 0.75241 0.43183 0.0
H2168 H 0.29424 0.81998 0.46471 0.0
H2169 H 0.37196 0.80139 0.46069 0.0
H2170 H 0.27304 0.75814 0.47256 0.0
H2171 H 0.26908 0.76573 0.45429 0.0
H2172 H 0.26327 0.78915 0.46756 0.0
H2173 H 0.36684 0.73718 0.46771 0.0
H2174 H 0.38638 0.76044 0.45954 0.0
H2175 H 0.36548 0.7418 0.449 0.0
C2176 C 0.46529 0.08815 0.69519 0.0
C2177 C 0.44782 0.08233 0.70571 0.0
C2178 C 0.49054 0.08218 0.69685 0.0
C2179 C 0.4985 0.06971 0.70924 0.0
C2180 C 0.48082 0.06278 0.71965 0.0
C2181 C 0.45565 0.06939 0.71782 0.0
C2182 C 0.50883 0.09017 0.68555 0.0
C2183 C 0.48859 0.04902 0.73286 0.0
C2184 C 0.56419 0.04483 0.70515 0.0
C2185 C 0.57815 0.06482 0.71055 0.0
C2186 C 0.538 0.0451 0.70571 0.0
C2187 C 0.52562 0.06597 0.71163 0.0
C2188 C 0.53966 0.08522 0.71806 0.0
C2189 C 0.56575 0.08431 0.71754 0.0
C2190 C 0.52362 0.02393 0.69905 0.0
C2191 C 0.52722 0.10786 0.72445 0.0
H2192 H 0.4594 0.09812 0.68579 0.0
H2193 H 0.44217 0.06464 0.72593 0.0
H2194 H 0.52232 0.10373 0.69005 0.0
H2195 H 0.51966 0.07387 0.68175 0.0
H2196 H 0.49947 0.09899 0.67634 0.0
H2197 H 0.47229 0.04227 0.73902 0.0
H2198 H 0.50056 0.03283 0.73012 0.0
H2199 H 0.49978 0.06156 0.7397 0.0
H2200 H 0.57362 0.02953 0.6999 0.0
H2201 H 0.57636 0.0997 0.72191 0.0
H2202 H 0.51613 0.03002 0.68868 0.0
H2203 H 0.50752 0.01855 0.70577 0.0
H2204 H 0.53556 0.00726 0.69731 0.0
H2205 H 0.51875 0.11925 0.7159 0.0
H2206 H 0.54059 0.11976 0.73038 0.0
H2207 H 0.51199 0.10221 0.7317 0.0
C2208 C 0.82276 0.31865 0.97174 0.0
C2209 C 0.84177 0.32399 0.96199 0.0
C2210 C 0.81543 0.29391 0.97441 0.0
C2211 C 0.8274 0.27418 0.96714 0.0
C2212 C 0.84636 0.27951 0.95716 0.0
C2213 C 0.8533 0.30431 0.95473 0.0
C2214 C 0.79514 0.28885 0.9851 0.0
C2215 C 0.85957 0.25898 0.94916 0.0
C2216 C 0.8328 0.20803 0.98049 0.0
C2217 C 0.81688 0.19537 0.97115 0.0
C2218 C 0.83497 0.23407 0.98007 0.0
C2219 C 0.82088 0.24775 0.97007 0.0
C2220 C 0.80323 0.2353 0.96146 0.0
C2221 C 0.8014 0.20921 0.96212 0.0
C2222 C 0.85383 0.24669 0.98953 0.0
C2223 C 0.78773 0.24926 0.95073 0.0
H2224 H 0.81374 0.33376 0.97739 0.0
H2225 H 0.86794 0.30823 0.94714 0.0
H2226 H 0.78002 0.27766 0.98021 0.0
H2227 H 0.80279 0.27772 0.99399 0.0
H2228 H 0.78699 0.30631 0.98943 0.0
H2229 H 0.87355 0.26635 0.94155 0.0
H2230 H 0.86925 0.24641 0.95669 0.0
H2231 H 0.84582 0.24756 0.94324 0.0
H2232 H 0.8446 0.1975 0.98763 0.0
H2233 H 0.78887 0.19961 0.95495 0.0
H2234 H 0.84578 0.26368 0.99442 0.0
H2235 H 0.87014 0.25258 0.98312 0.0
H2236 H 0.86053 0.23412 0.99807 0.0
H2237 H 0.7798 0.26648 0.95543 0.0
H2238 H 0.77225 0.23765 0.94652 0.0
H2239 H 0.79978 0.25496 0.94175 0.0
C2240 C 0.68351 0.79669 0.46583 0.0
C2241 C 0.68367 0.80682 0.45214 0.0
C2242 C 0.68257 0.77077 0.46793 0.0
C2243 C 0.68144 0.75472 0.45606 0.0
C2244 C 0.68309 0.76479 0.44225 0.0
C2245 C 0.68435 0.7907 0.44046 0.0
C2246 C 0.68136 0.76069 0.48281 0.0
C2247 C 0.68182 0.7483 0.4293 0.0
C2248 C 0.68847 0.6843 0.45805 0.0
C2249 C 0.66346 0.67663 0.45759 0.0
C2250 C 0.69473 0.70976 0.45829 0.0
C2251 C 0.67551 0.72785 0.45789 0.0
C2252 C 0.65024 0.72018 0.45805 0.0
C2253 C 0.64454 0.6947 0.45799 0.0
C2254 C 0.72186 0.71728 0.45839 0.0
C2255 C 0.62916 0.73889 0.45755 0.0
H2256 H 0.68325 0.80902 0.47491 0.0
H2257 H 0.68462 0.79833 0.42985 0.0
H2258 H 0.66217 0.75403 0.48505 0.0
H2259 H 0.6941 0.74452 0.48405 0.0
H2260 H 0.68632 0.77507 0.49079 0.0
H2261 H 0.68548 0.75881 0.41939 0.0
H2262 H 0.69553 0.73288 0.43012 0.0
H2263 H 0.66301 0.73975 0.42856 0.0
H2264 H 0.7032 0.67045 0.45786 0.0
H2265 H 0.62515 0.68898 0.4577 0.0
H2266 H 0.72522 0.73193 0.46646 0.0
H2267 H 0.72696 0.72526 0.44796 0.0
H2268 H 0.73437 0.70121 0.46058 0.0
H2269 H 0.63117 0.75269 0.46622 0.0
H2270 H 0.61056 0.7299 0.45848 0.0
H2271 H 0.62986 0.74932 0.44742 0.0
C2272 C 0.79753 0.68231 0.02864 0.0
C2273 C 0.82064 0.67579 0.03456 0.0
C2274 C 0.79077 0.70749 0.02692 0.0
C2275 C 0.80744 0.72643 0.03133 0.0
C2276 C 0.83087 0.7199 0.03717 0.0
C2277 C 0.83719 0.69472 0.03864 0.0
C2278 C 0.76577 0.71382 0.02052 0.0
C2279 C 0.84917 0.73954 0.04207 0.0
C2280 C 0.80774 0.79351 0.01911 0.0
C2281 C 0.79852 0.80572 0.03115 0.0
C2282 C 0.80872 0.76738 0.01848 0.0
C2283 C 0.80061 0.75322 0.03025 0.0
C2284 C 0.78948 0.76539 0.04194 0.0
C2285 C 0.78841 0.79153 0.04221 0.0
C2286 C 0.82026 0.75507 0.00569 0.0
C2287 C 0.7807 0.75097 0.05473 0.0
H2288 H 0.78467 0.66779 0.02542 0.0
H2289 H 0.85509 0.6899 0.04323 0.0
H2290 H 0.75416 0.72388 0.02839 0.0
H2291 H 0.76828 0.72648 0.01134 0.0
H2292 H 0.75548 0.69696 0.01697 0.0
H2293 H 0.86663 0.73131 0.04635 0.0
H2294 H 0.85411 0.75205 0.03315 0.0
H2295 H 0.84052 0.75124 0.05042 0.0
H2296 H 0.81526 0.80437 0.01043 0.0
H2297 H 0.78113 0.80081 0.05152 0.0
H2298 H 0.80928 0.73849 0.00245 0.0
H2299 H 0.83934 0.74858 0.00837 0.0
H2300 H 0.82159 0.76808 0.99658 0.0
H2301 H 0.76943 0.73459 0.05149 0.0
H2302 H 0.7694 0.7627 0.062 0.0
H2303 H 0.79713 0.74388 0.06063 0.0
C2304 C 0.62799 0.29378 0.53589 0.0
C2305 C 0.64756 0.31071 0.53813 0.0
C2306 C 0.63202 0.26801 0.53658 0.0
C2307 C 0.65629 0.25887 0.5394 0.0
C2308 C 0.67642 0.27577 0.54082 0.0
C2309 C 0.67179 0.30156 0.54025 0.0
C2310 C 0.61 0.2506 0.53508 0.0
C2311 C 0.70262 0.26667 0.54356 0.0
C2312 C 0.65605 0.19677 0.55837 0.0
C2313 C 0.65836 0.17996 0.54708 0.0
C2314 C 0.65657 0.22258 0.55607 0.0
C2315 C 0.65983 0.23182 0.54217 0.0
C2316 C 0.66381 0.215 0.53086 0.0
C2317 C 0.66284 0.18921 0.53343 0.0
C2318 C 0.65208 0.23991 0.56842 0.0
C2319 C 0.66786 0.22419 0.51595 0.0
H2320 H 0.60921 0.30065 0.53417 0.0
H2321 H 0.68705 0.31451 0.54188 0.0
H2322 H 0.61391 0.23617 0.52697 0.0
H2323 H 0.60669 0.2408 0.54524 0.0
H2324 H 0.59264 0.26061 0.53207 0.0
H2325 H 0.71661 0.28184 0.54246 0.0
H2326 H 0.70386 0.25906 0.55445 0.0
H2327 H 0.70751 0.25135 0.53617 0.0
H2328 H 0.65269 0.1898 0.56896 0.0
H2329 H 0.66489 0.17632 0.52467 0.0
H2330 H 0.63398 0.24963 0.567 0.0
H2331 H 0.66682 0.2544 0.5689 0.0
H2332 H 0.65167 0.22984 0.57869 0.0
H2333 H 0.65014 0.23187 0.51173 0.0
H2334 H 0.67424 0.20905 0.50878 0.0
H2335 H 0.68182 0.23947 0.51579 0.0
C2336 C 0.95755 0.45573 0.78879 0.0
C2337 C 0.94466 0.43836 0.78044 0.0
C2338 C 0.98372 0.45604 0.78911 0.0
C2339 C 0.9972 0.43859 0.78087 0.0
C2340 C 0.98431 0.42254 0.7715 0.0
C2341 C 0.95818 0.42263 0.77139 0.0
C2342 C 0.99682 0.47361 0.79913 0.0
C2343 C 0.99801 0.4038 0.76244 0.0
C2344 C 0.06795 0.44109 0.77809 0.0
C2345 C 0.07493 0.42334 0.78826 0.0
C2346 C 0.04269 0.44674 0.77571 0.0
C2347 C 0.02411 0.43429 0.78366 0.0
C2348 C 0.03111 0.41673 0.79411 0.0
C2349 C 0.05639 0.41149 0.79628 0.0
C2350 C 0.03585 0.46563 0.76452 0.0
C2351 C 0.01185 0.40304 0.80284 0.0
H2352 H 0.94726 0.46814 0.79572 0.0
H2353 H 0.94836 0.40938 0.76475 0.0
H2354 H 0.00361 0.463 0.80845 0.0
H2355 H 0.0133 0.48224 0.79399 0.0
H2356 H 0.98424 0.48866 0.80294 0.0
H2357 H 0.98569 0.39531 0.75431 0.0
H2358 H 0.01413 0.41265 0.75707 0.0
H2359 H 0.00541 0.38866 0.76926 0.0
H2360 H 0.08218 0.45036 0.77187 0.0
H2361 H 0.06158 0.39783 0.8042 0.0
H2362 H 0.02345 0.48015 0.76905 0.0
H2363 H 0.02537 0.45633 0.75589 0.0
H2364 H 0.05253 0.47486 0.75991 0.0
H2365 H -0.00028 0.41658 0.80845 0.0
H2366 H 0.02045 0.39045 0.8108 0.0
H2367 H -0.00029 0.39173 0.79583 0.0
C2368 C 0.44042 0.58911 0.28492 0.0
C2369 C 0.43497 0.60559 0.29604 0.0
C2370 C 0.46518 0.58248 0.28178 0.0
C2371 C 0.48485 0.59265 0.28994 0.0
C2372 C 0.47939 0.60901 0.30128 0.0
C2373 C 0.45456 0.61525 0.30419 0.0
C2374 C 0.47033 0.56491 0.26965 0.0
C2375 C 0.49985 0.62028 0.31024 0.0
C2376 C 0.54999 0.56586 0.29263 0.0
C2377 C 0.56366 0.5832 0.28466 0.0
C2378 C 0.52392 0.56755 0.29363 0.0
C2379 C 0.51131 0.58705 0.2865 0.0
C2380 C 0.5248 0.60334 0.27754 0.0
C2381 C 0.55082 0.60119 0.27671 0.0
C2382 C 0.51014 0.54965 0.30316 0.0
C2383 C 0.51203 0.62429 0.26969 0.0
H2384 H 0.42537 0.58152 0.27859 0.0
H2385 H 0.45054 0.62794 0.31282 0.0
H2386 H 0.48133 0.57467 0.26139 0.0
H2387 H 0.48169 0.54888 0.27334 0.0
H2388 H 0.45292 0.55768 0.26478 0.0
H2389 H 0.49242 0.63228 0.31884 0.0
H2390 H 0.51133 0.60529 0.31505 0.0
H2391 H 0.5124 0.63171 0.30351 0.0
H2392 H 0.55972 0.55174 0.2987 0.0
H2393 H 0.56119 0.61451 0.2704 0.0
H2394 H 0.49292 0.54277 0.29796 0.0
H2395 H 0.50445 0.5595 0.31297 0.0
H2396 H 0.52186 0.53339 0.30616 0.0
H2397 H 0.49508 0.61739 0.26422 0.0
H2398 H 0.52451 0.63315 0.26177 0.0
H2399 H 0.50601 0.63878 0.27735 0.0
C2400 C 0.4392 0.42369 0.71295 0.0
C2401 C 0.43128 0.40959 0.70127 0.0
C2402 C 0.46463 0.42867 0.71516 0.0
C2403 C 0.48245 0.41913 0.70553 0.0
C2404 C 0.47446 0.40565 0.69348 0.0
C2405 C 0.44898 0.40114 0.69147 0.0
C2406 C 0.47248 0.44338 0.72802 0.0
C2407 C 0.4929 0.39509 0.68297 0.0
C2408 C 0.54979 0.43994 0.70275 0.0
C2409 C 0.56209 0.41996 0.70932 0.0
C2410 C 0.52362 0.44093 0.70229 0.0
C2411 C 0.50957 0.4214 0.70845 0.0
C2412 C 0.52187 0.40216 0.71595 0.0
C2413 C 0.54798 0.40174 0.71635 0.0
C2414 C 0.51112 0.46199 0.69441 0.0
C2415 C 0.50755 0.38097 0.72267 0.0
H2416 H 0.42559 0.43043 0.72052 0.0
H2417 H 0.44303 0.39033 0.68239 0.0
H2418 H 0.48234 0.43093 0.73554 0.0
H2419 H 0.4857 0.45839 0.725 0.0
H2420 H 0.4563 0.45189 0.73357 0.0
H2421 H 0.48357 0.38605 0.67382 0.0
H2422 H 0.50528 0.41008 0.67894 0.0
H2423 H 0.50491 0.38105 0.68826 0.0
H2424 H 0.56054 0.45424 0.69741 0.0
H2425 H 0.55731 0.38634 0.72157 0.0
H2426 H 0.49497 0.46925 0.70049 0.0
H2427 H 0.5039 0.45496 0.68416 0.0
H2428 H 0.5242 0.47761 0.69225 0.0
H2429 H 0.49213 0.38827 0.7293 0.0
H2430 H 0.51966 0.36893 0.72933 0.0
H2431 H 0.49908 0.36924 0.71427 0.0
C2432 C 0.95809 0.54881 0.19755 0.0
C2433 C 0.9445 0.56133 0.20805 0.0
C2434 C 0.98425 0.54888 0.19765 0.0
C2435 C 0.99707 0.56153 0.2086 0.0
C2436 C 0.98345 0.57235 0.21987 0.0
C2437 C 0.9573 0.57224 0.21942 0.0
C2438 C 0.99809 0.53719 0.18541 0.0
C2439 C 0.99644 0.58567 0.23185 0.0
C2440 C 0.06776 0.55552 0.21066 0.0
C2441 C 0.07538 0.57711 0.20346 0.0
C2442 C 0.04228 0.5502 0.21259 0.0
C2443 C 0.02415 0.56679 0.20712 0.0
C2444 C 0.03178 0.58867 0.19994 0.0
C2445 C 0.05723 0.59357 0.19825 0.0
C2446 C 0.03476 0.52681 0.22039 0.0
C2447 C 0.01303 0.60685 0.1939 0.0
H2448 H 0.94835 0.54021 0.18876 0.0
H2449 H 0.94691 0.58167 0.22768 0.0
H2450 H 0.00588 0.55213 0.17859 0.0
H2451 H 0.01396 0.5258 0.18926 0.0
H2452 H 0.98576 0.52521 0.17884 0.0
H2453 H 0.9836 0.58949 0.24082 0.0
H2454 H 0.01244 0.57453 0.23578 0.0
H2455 H 0.00393 0.60373 0.22799 0.0
H2456 H 0.08166 0.54273 0.21474 0.0
H2457 H 0.06289 0.61032 0.19268 0.0
H2458 H 0.02384 0.51449 0.21328 0.0
H2459 H 0.02254 0.53162 0.22946 0.0
H2460 H 0.05113 0.51624 0.22439 0.0
H2461 H 0.00092 0.59723 0.1861 0.0
H2462 H 0.02208 0.62298 0.1886 0.0
H2463 H 0.00079 0.61403 0.20244 0.0
loop_
_geom_bond_atom_site_label_1
_geom_bond_atom_site_label_2
_geom_bond_distance
_geom_bond_site_symmetry_2
_ccdc_geom_bond_type
C0 O1 1.160 . S
C0 O7 1.185 . S
O1 C0 1.160 . S
O2 Zn3 1.899 . S
O2 C10 1.284 . S
Zn3 O2 1.899 . S
Zn3 O4 2.032 . S
Zn3 O7 2.086 . S
Zn3 O12 1.977 . S
O4 Zn3 2.032 . S
O4 C8 1.278 . S
C5 O6 1.203 . S
C5 O12 1.267 . S
O6 C5 1.203 . S
O7 C0 1.185 . S
O7 Zn3 2.086 . S
C8 O4 1.278 . S
C8 O9 1.211 . S
O9 C8 1.211 . S
C10 O2 1.284 . S
C10 O11 1.273 . S
O11 C10 1.273 . S
O12 Zn3 1.977 . S
O12 C5 1.267 . S
C13 O14 1.160 . S
C13 O20 1.185 . S
O14 C13 1.160 . S
O15 Zn16 1.899 . S
O15 C23 1.284 . S
Zn16 O15 1.899 . S
Zn16 O17 2.032 . S
Zn16 O20 2.086 . S
Zn16 O25 1.977 . S
O17 Zn16 2.032 . S
O17 C21 1.278 . S
C18 O19 1.203 . S
C18 O25 1.267 . S
O19 C18 1.203 . S
O20 C13 1.185 . S
O20 Zn16 2.086 . S
C21 O17 1.278 . S
C21 O22 1.211 . S
O22 C21 1.211 . S
C23 O15 1.284 . S
C23 O24 1.273 . S
O24 C23 1.273 . S
O25 Zn16 1.977 . S
O25 C18 1.267 . S
C26 O27 1.160 . S
C26 O33 1.185 . S
O27 C26 1.160 . S
O28 Zn29 1.899 . S
O28 C36 1.284 . S
Zn29 O28 1.899 . S
Zn29 O30 2.032 . S
Zn29 O33 2.086 . S
Zn29 O38 1.977 . S
O30 Zn29 2.032 . S
O30 C34 1.278 . S
C31 O32 1.203 . S
C31 O38 1.267 . S
O32 C31 1.203 . S
O33 C26 1.185 . S
O33 Zn29 2.086 . S
C34 O30 1.278 . S
C34 O35 1.211 . S
O35 C34 1.211 . S
C36 O28 1.284 . S
C36 O37 1.273 . S
O37 C36 1.273 . S
O38 Zn29 1.977 . S
O38 C31 1.267 . S
C39 O40 1.160 . S
C39 O46 1.185 . S
O40 C39 1.160 . S
O41 Zn42 1.899 . S
O41 C49 1.284 . S
Zn42 O41 1.899 . S
Zn42 O43 2.032 . S
Zn42 O46 2.086 . S
Zn42 O51 1.977 . S
O43 Zn42 2.032 . S
O43 C47 1.278 . S
C44 O45 1.203 . S
C44 O51 1.267 . S
O45 C44 1.203 . S
O46 C39 1.185 . S
O46 Zn42 2.086 . S
C47 O43 1.278 . S
C47 O48 1.211 . S
O48 C47 1.211 . S
C49 O41 1.284 . S
C49 O50 1.273 . S
O50 C49 1.273 . S
O51 Zn42 1.977 . S
O51 C44 1.267 . S
C52 O53 1.160 . S
C52 O59 1.185 . S
O53 C52 1.160 . S
O54 Zn55 1.899 . S
O54 C62 1.284 . S
Zn55 O54 1.899 . S
Zn55 O56 2.032 . S
Zn55 O59 2.086 . S
Zn55 O64 1.977 . S
O56 Zn55 2.032 . S
O56 C60 1.278 . S
C57 O58 1.203 . S
C57 O64 1.267 . S
O58 C57 1.203 . S
O59 C52 1.185 . S
O59 Zn55 2.086 . S
C60 O56 1.278 . S
C60 O61 1.211 . S
O61 C60 1.211 . S
C62 O54 1.284 . S
C62 O63 1.273 . S
O63 C62 1.273 . S
O64 Zn55 1.977 . S
O64 C57 1.267 . S
C65 O66 1.160 . S
C65 O72 1.185 . S
O66 C65 1.160 . S
O67 Zn68 1.899 . S
O67 C75 1.284 . S
Zn68 O67 1.899 . S
Zn68 O69 2.032 . S
Zn68 O72 2.086 . S
Zn68 O77 1.977 . S
O69 Zn68 2.032 . S
O69 C73 1.278 . S
C70 O71 1.203 . S
C70 O77 1.267 . S
O71 C70 1.203 . S
O72 C65 1.185 . S
O72 Zn68 2.086 . S
C73 O69 1.278 . S
C73 O74 1.211 . S
O74 C73 1.211 . S
C75 O67 1.284 . S
C75 O76 1.273 . S
O76 C75 1.273 . S
O77 Zn68 1.977 . S
O77 C70 1.267 . S
C78 O79 1.160 . S
C78 O85 1.185 . S
O79 C78 1.160 . S
O80 Zn81 1.899 . S
O80 C88 1.284 . S
Zn81 O80 1.899 . S
Zn81 O82 2.032 . S
Zn81 O85 2.086 . S
Zn81 O90 1.977 . S
O82 Zn81 2.032 . S
O82 C86 1.278 . S
C83 O84 1.203 . S
C83 O90 1.267 . S
O84 C83 1.203 . S
O85 C78 1.185 . S
O85 Zn81 2.086 . S
C86 O82 1.278 . S
C86 O87 1.211 . S
O87 C86 1.211 . S
C88 O80 1.284 . S
C88 O89 1.273 . S
O89 C88 1.273 . S
O90 Zn81 1.977 . S
O90 C83 1.267 . S
C91 O92 1.160 . S
C91 O98 1.185 . S
O92 C91 1.160 . S
O93 Zn94 1.899 . S
O93 C101 1.284 . S
Zn94 O93 1.899 . S
Zn94 O95 2.032 . S
Zn94 O98 2.086 . S
Zn94 O103 1.977 . S
O95 Zn94 2.032 . S
O95 C99 1.278 . S
C96 O97 1.203 . S
C96 O103 1.267 . S
O97 C96 1.203 . S
O98 C91 1.185 . S
O98 Zn94 2.086 . S
C99 O95 1.278 . S
C99 O100 1.211 . S
O100 C99 1.211 . S
C101 O93 1.284 . S
C101 O102 1.273 . S
O102 C101 1.273 . S
O103 Zn94 1.977 . S
O103 C96 1.267 . S
C104 O105 1.160 . S
C104 O111 1.185 . S
O105 C104 1.160 . S
O106 Zn107 1.899 . S
O106 C114 1.284 . S
Zn107 O106 1.899 . S
Zn107 O108 2.032 . S
Zn107 O111 2.086 . S
Zn107 O116 1.977 . S
O108 Zn107 2.032 . S
O108 C112 1.278 . S
C109 O110 1.203 . S
C109 O116 1.267 . S
O110 C109 1.203 . S
O111 C104 1.185 . S
O111 Zn107 2.086 . S
C112 O108 1.278 . S
C112 O113 1.211 . S
O113 C112 1.211 . S
C114 O106 1.284 . S
C114 O115 1.273 . S
O115 C114 1.273 . S
O116 Zn107 1.977 . S
O116 C109 1.267 . S
C117 O118 1.160 . S
C117 O124 1.185 . S
O118 C117 1.160 . S
O119 Zn120 1.899 . S
O119 C127 1.284 . S
Zn120 O119 1.899 . S
Zn120 O121 2.032 . S
Zn120 O124 2.086 . S
Zn120 O129 1.977 . S
O121 Zn120 2.032 . S
O121 C125 1.278 . S
C122 O123 1.203 . S
C122 O129 1.267 . S
O123 C122 1.203 . S
O124 C117 1.185 . S
O124 Zn120 2.086 . S
C125 O121 1.278 . S
C125 O126 1.211 . S
O126 C125 1.211 . S
C127 O119 1.284 . S
C127 O128 1.273 . S
O128 C127 1.273 . S
O129 Zn120 1.977 . S
O129 C122 1.267 . S
C130 O131 1.160 . S
C130 O137 1.185 . S
O131 C130 1.160 . S
O132 Zn133 1.899 . S
O132 C140 1.284 . S
Zn133 O132 1.899 . S
Zn133 O134 2.032 . S
Zn133 O137 2.086 . S
Zn133 O142 1.977 . S
O134 Zn133 2.032 . S
O134 C138 1.278 . S
C135 O136 1.203 . S
C135 O142 1.267 . S
O136 C135 1.203 . S
O137 C130 1.185 . S
O137 Zn133 2.086 . S
C138 O134 1.278 . S
C138 O139 1.211 . S
O139 C138 1.211 . S
C140 O132 1.284 . S
C140 O141 1.273 . S
O141 C140 1.273 . S
O142 Zn133 1.977 . S
O142 C135 1.267 . S
C143 O144 1.160 . S
C143 O150 1.185 . S
O144 C143 1.160 . S
O145 Zn146 1.899 . S
O145 C153 1.284 . S
Zn146 O145 1.899 . S
Zn146 O147 2.032 . S
Zn146 O150 2.086 . S
Zn146 O155 1.977 . S
O147 Zn146 2.032 . S
O147 C151 1.278 . S
C148 O149 1.203 . S
C148 O155 1.267 . S
O149 C148 1.203 . S
O150 C143 1.185 . S
O150 Zn146 2.086 . S
C151 O147 1.278 . S
C151 O152 1.211 . S
O152 C151 1.211 . S
C153 O145 1.284 . S
C153 O154 1.273 . S
O154 C153 1.273 . S
O155 Zn146 1.977 . S
O155 C148 1.267 . S
C156 O157 1.160 . S
C156 O163 1.185 . S
O157 C156 1.160 . S
O158 Zn159 1.899 . S
O158 C166 1.284 . S
Zn159 O158 1.899 . S
Zn159 O160 2.032 . S
Zn159 O163 2.086 . S
Zn159 O168 1.977 . S
O160 Zn159 2.032 . S
O160 C164 1.278 . S
C161 O162 1.203 . S
C161 O168 1.267 . S
O162 C161 1.203 . S
O163 C156 1.185 . S
O163 Zn159 2.086 . S
C164 O160 1.278 . S
C164 O165 1.211 . S
O165 C164 1.211 . S
C166 O158 1.284 . S
C166 O167 1.273 . S
O167 C166 1.273 . S
O168 Zn159 1.977 . S
O168 C161 1.267 . S
C169 O170 1.160 . S
C169 O176 1.185 . S
O170 C169 1.160 . S
O171 Zn172 1.899 . S
O171 C179 1.284 . S
Zn172 O171 1.899 . S
Zn172 O173 2.032 . S
Zn172 O176 2.086 . S
Zn172 O181 1.977 . S
O173 Zn172 2.032 . S
O173 C177 1.278 . S
C174 O175 1.203 . S
C174 O181 1.267 . S
O175 C174 1.203 . S
O176 C169 1.185 . S
O176 Zn172 2.086 . S
C177 O173 1.278 . S
C177 O178 1.211 . S
O178 C177 1.211 . S
C179 O171 1.284 . S
C179 O180 1.273 . S
O180 C179 1.273 . S
O181 Zn172 1.977 . S
O181 C174 1.267 . S
C182 O183 1.160 . S
C182 O189 1.185 . S
O183 C182 1.160 . S
O184 Zn185 1.899 . S
O184 C192 1.284 . S
Zn185 O184 1.899 . S
Zn185 O186 2.032 . S
Zn185 O189 2.086 . S
Zn185 O194 1.977 . S
O186 Zn185 2.032 . S
O186 C190 1.278 . S
C187 O188 1.203 . S
C187 O194 1.267 . S
O188 C187 1.203 . S
O189 C182 1.185 . S
O189 Zn185 2.086 . S
C190 O186 1.278 . S
C190 O191 1.211 . S
O191 C190 1.211 . S
C192 O184 1.284 . S
C192 O193 1.273 . S
O193 C192 1.273 . S
O194 Zn185 1.977 . S
O194 C187 1.267 . S
C195 O196 1.160 . S
C195 O202 1.185 . S
O196 C195 1.160 . S
O197 Zn198 1.899 . S
O197 C205 1.284 . S
Zn198 O197 1.899 . S
Zn198 O199 2.032 . S
Zn198 O202 2.086 . S
Zn198 O207 1.977 . S
O199 Zn198 2.032 . S
O199 C203 1.278 . S
C200 O201 1.203 . S
C200 O207 1.267 . S
O201 C200 1.203 . S
O202 C195 1.185 . S
O202 Zn198 2.086 . S
C203 O199 1.278 . S
C203 O204 1.211 . S
O204 C203 1.211 . S
C205 O197 1.284 . S
C205 O206 1.273 . S
O206 C205 1.273 . S
O207 Zn198 1.977 . S
O207 C200 1.267 . S
C208 O209 1.160 . S
C208 O215 1.185 . S
O209 C208 1.160 . S
O210 Zn211 1.899 . S
O210 C218 1.284 . S
Zn211 O210 1.899 . S
Zn211 O212 2.032 . S
Zn211 O215 2.086 . S
Zn211 O220 1.977 . S
O212 Zn211 2.032 . S
O212 C216 1.278 . S
C213 O214 1.203 . S
C213 O220 1.267 . S
O214 C213 1.203 . S
O215 C208 1.185 . S
O215 Zn211 2.086 . S
C216 O212 1.278 . S
C216 O217 1.211 . S
O217 C216 1.211 . S
C218 O210 1.284 . S
C218 O219 1.273 . S
O219 C218 1.273 . S
O220 Zn211 1.977 . S
O220 C213 1.267 . S
C221 O222 1.160 . S
C221 O228 1.185 . S
O222 C221 1.160 . S
O223 Zn224 1.899 . S
O223 C231 1.284 . S
Zn224 O223 1.899 . S
Zn224 O225 2.032 . S
Zn224 O228 2.086 . S
Zn224 O233 1.977 . S
O225 Zn224 2.032 . S
O225 C229 1.278 . S
C226 O227 1.203 . S
C226 O233 1.267 . S
O227 C226 1.203 . S
O228 C221 1.185 . S
O228 Zn224 2.086 . S
C229 O225 1.278 . S
C229 O230 1.211 . S
O230 C229 1.211 . S
C231 O223 1.284 . S
C231 O232 1.273 . S
O232 C231 1.273 . S
O233 Zn224 1.977 . S
O233 C226 1.267 . S
C234 O235 1.160 . S
C234 O241 1.185 . S
O235 C234 1.160 . S
O236 Zn237 1.899 . S
O236 C244 1.284 . S
Zn237 O236 1.899 . S
Zn237 O238 2.032 . S
Zn237 O241 2.086 . S
Zn237 O246 1.977 . S
O238 Zn237 2.032 . S
O238 C242 1.278 . S
C239 O240 1.203 . S
C239 O246 1.267 . S
O240 C239 1.203 . S
O241 C234 1.185 . S
O241 Zn237 2.086 . S
C242 O238 1.278 . S
C242 O243 1.211 . S
O243 C242 1.211 . S
C244 O236 1.284 . S
C244 O245 1.273 . S
O245 C244 1.273 . S
O246 Zn237 1.977 . S
O246 C239 1.267 . S
C247 O248 1.160 . S
C247 O254 1.185 . S
O248 C247 1.160 . S
O249 Zn250 1.899 . S
O249 C257 1.284 . S
Zn250 O249 1.899 . S
Zn250 O251 2.032 . S
Zn250 O254 2.086 . S
Zn250 O259 1.977 . S
O251 Zn250 2.032 . S
O251 C255 1.278 . S
C252 O253 1.203 . S
C252 O259 1.267 . S
O253 C252 1.203 . S
O254 C247 1.185 . S
O254 Zn250 2.086 . S
C255 O251 1.278 . S
C255 O256 1.211 . S
O256 C255 1.211 . S
C257 O249 1.284 . S
C257 O258 1.273 . S
O258 C257 1.273 . S
O259 Zn250 1.977 . S
O259 C252 1.267 . S
C260 O261 1.160 . S
C260 O267 1.185 . S
O261 C260 1.160 . S
O262 Zn263 1.899 . S
O262 C270 1.284 . S
Zn263 O262 1.899 . S
Zn263 O264 2.032 . S
Zn263 O267 2.086 . S
Zn263 O272 1.977 . S
O264 Zn263 2.032 . S
O264 C268 1.278 . S
C265 O266 1.203 . S
C265 O272 1.267 . S
O266 C265 1.203 . S
O267 C260 1.185 . S
O267 Zn263 2.086 . S
C268 O264 1.278 . S
C268 O269 1.211 . S
O269 C268 1.211 . S
C270 O262 1.284 . S
C270 O271 1.273 . S
O271 C270 1.273 . S
O272 Zn263 1.977 . S
O272 C265 1.267 . S
C273 O274 1.160 . S
C273 O280 1.185 . S
O274 C273 1.160 . S
O275 Zn276 1.899 . S
O275 C283 1.284 . S
Zn276 O275 1.899 . S
Zn276 O277 2.032 . S
Zn276 O280 2.086 . S
Zn276 O285 1.977 . S
O277 Zn276 2.032 . S
O277 C281 1.278 . S
C278 O279 1.203 . S
C278 O285 1.267 . S
O279 C278 1.203 . S
O280 C273 1.185 . S
O280 Zn276 2.086 . S
C281 O277 1.278 . S
C281 O282 1.211 . S
O282 C281 1.211 . S
C283 O275 1.284 . S
C283 O284 1.273 . S
O284 C283 1.273 . S
O285 Zn276 1.977 . S
O285 C278 1.267 . S
C286 O287 1.160 . S
C286 O293 1.185 . S
O287 C286 1.160 . S
O288 Zn289 1.899 . S
O288 C296 1.284 . S
Zn289 O288 1.899 . S
Zn289 O290 2.032 . S
Zn289 O293 2.086 . S
Zn289 O298 1.977 . S
O290 Zn289 2.032 . S
O290 C294 1.278 . S
C291 O292 1.203 . S
C291 O298 1.267 . S
O292 C291 1.203 . S
O293 C286 1.185 . S
O293 Zn289 2.086 . S
C294 O290 1.278 . S
C294 O295 1.211 . S
O295 C294 1.211 . S
C296 O288 1.284 . S
C296 O297 1.273 . S
O297 C296 1.273 . S
O298 Zn289 1.977 . S
O298 C291 1.267 . S
C299 O300 1.160 . S
C299 O306 1.185 . S
O300 C299 1.160 . S
O301 Zn302 1.899 . S
O301 C309 1.284 . S
Zn302 O301 1.899 . S
Zn302 O303 2.032 . S
Zn302 O306 2.086 . S
Zn302 O311 1.977 . S
O303 Zn302 2.032 . S
O303 C307 1.278 . S
C304 O305 1.203 . S
C304 O311 1.267 . S
O305 C304 1.203 . S
O306 C299 1.185 . S
O306 Zn302 2.086 . S
C307 O303 1.278 . S
C307 O308 1.211 . S
O308 C307 1.211 . S
C309 O301 1.284 . S
C309 O310 1.273 . S
O310 C309 1.273 . S
O311 Zn302 1.977 . S
O311 C304 1.267 . S
C312 O313 1.160 . S
C312 O319 1.185 . S
O313 C312 1.160 . S
O314 Zn315 1.899 . S
O314 C322 1.284 . S
Zn315 O314 1.899 . S
Zn315 O316 2.032 . S
Zn315 O319 2.086 . S
Zn315 O324 1.977 . S
O316 Zn315 2.032 . S
O316 C320 1.278 . S
C317 O318 1.203 . S
C317 O324 1.267 . S
O318 C317 1.203 . S
O319 C312 1.185 . S
O319 Zn315 2.086 . S
C320 O316 1.278 . S
C320 O321 1.211 . S
O321 C320 1.211 . S
C322 O314 1.284 . S
C322 O323 1.273 . S
O323 C322 1.273 . S
O324 Zn315 1.977 . S
O324 C317 1.267 . S
C325 O326 1.160 . S
C325 O332 1.185 . S
O326 C325 1.160 . S
O327 Zn328 1.899 . S
O327 C335 1.284 . S
Zn328 O327 1.899 . S
Zn328 O329 2.032 . S
Zn328 O332 2.086 . S
Zn328 O337 1.977 . S
O329 Zn328 2.032 . S
O329 C333 1.278 . S
C330 O331 1.203 . S
C330 O337 1.267 . S
O331 C330 1.203 . S
O332 C325 1.185 . S
O332 Zn328 2.086 . S
C333 O329 1.278 . S
C333 O334 1.211 . S
O334 C333 1.211 . S
C335 O327 1.284 . S
C335 O336 1.273 . S
O336 C335 1.273 . S
O337 Zn328 1.977 . S
O337 C330 1.267 . S
C338 O339 1.160 . S
C338 O345 1.185 . S
O339 C338 1.160 . S
O340 Zn341 1.899 . S
O340 C348 1.284 . S
Zn341 O340 1.899 . S
Zn341 O342 2.032 . S
Zn341 O345 2.086 . S
Zn341 O350 1.977 . S
O342 Zn341 2.032 . S
O342 C346 1.278 . S
C343 O344 1.203 . S
C343 O350 1.267 . S
O344 C343 1.203 . S
O345 C338 1.185 . S
O345 Zn341 2.086 . S
C346 O342 1.278 . S
C346 O347 1.211 . S
O347 C346 1.211 . S
C348 O340 1.284 . S
C348 O349 1.273 . S
O349 C348 1.273 . S
O350 Zn341 1.977 . S
O350 C343 1.267 . S
C351 O352 1.160 . S
C351 O358 1.185 . S
O352 C351 1.160 . S
O353 Zn354 1.899 . S
O353 C361 1.284 . S
Zn354 O353 1.899 . S
Zn354 O355 2.032 . S
Zn354 O358 2.086 . S
Zn354 O363 1.977 . S
O355 Zn354 2.032 . S
O355 C359 1.278 . S
C356 O357 1.203 . S
C356 O363 1.267 . S
O357 C356 1.203 . S
O358 C351 1.185 . S
O358 Zn354 2.086 . S
C359 O355 1.278 . S
C359 O360 1.211 . S
O360 C359 1.211 . S
C361 O353 1.284 . S
C361 O362 1.273 . S
O362 C361 1.273 . S
O363 Zn354 1.977 . S
O363 C356 1.267 . S
C364 O365 1.160 . S
C364 O371 1.185 . S
O365 C364 1.160 . S
O366 Zn367 1.899 . S
O366 C374 1.284 . S
Zn367 O366 1.899 . S
Zn367 O368 2.032 . S
Zn367 O371 2.086 . S
Zn367 O376 1.977 . S
O368 Zn367 2.032 . S
O368 C372 1.278 . S
C369 O370 1.203 . S
C369 O376 1.267 . S
O370 C369 1.203 . S
O371 C364 1.185 . S
O371 Zn367 2.086 . S
C372 O368 1.278 . S
C372 O373 1.211 . S
O373 C372 1.211 . S
C374 O366 1.284 . S
C374 O375 1.273 . S
O375 C374 1.273 . S
O376 Zn367 1.977 . S
O376 C369 1.267 . S
C377 O378 1.160 . S
C377 O384 1.185 . S
O378 C377 1.160 . S
O379 Zn380 1.899 . S
O379 C387 1.284 . S
Zn380 O379 1.899 . S
Zn380 O381 2.032 . S
Zn380 O384 2.086 . S
Zn380 O389 1.977 . S
O381 Zn380 2.032 . S
O381 C385 1.278 . S
C382 O383 1.203 . S
C382 O389 1.267 . S
O383 C382 1.203 . S
O384 C377 1.185 . S
O384 Zn380 2.086 . S
C385 O381 1.278 . S
C385 O386 1.211 . S
O386 C385 1.211 . S
C387 O379 1.284 . S
C387 O388 1.273 . S
O388 C387 1.273 . S
O389 Zn380 1.977 . S
O389 C382 1.267 . S
C390 O391 1.160 . S
C390 O397 1.185 . S
O391 C390 1.160 . S
O392 Zn393 1.899 . S
O392 C400 1.284 . S
Zn393 O392 1.899 . S
Zn393 O394 2.032 . S
Zn393 O397 2.086 . S
Zn393 O402 1.977 . S
O394 Zn393 2.032 . S
O394 C398 1.278 . S
C395 O396 1.203 . S
C395 O402 1.267 . S
O396 C395 1.203 . S
O397 C390 1.185 . S
O397 Zn393 2.086 . S
C398 O394 1.278 . S
C398 O399 1.211 . S
O399 C398 1.211 . S
C400 O392 1.284 . S
C400 O401 1.273 . S
O401 C400 1.273 . S
O402 Zn393 1.977 . S
O402 C395 1.267 . S
C403 O404 1.160 . S
C403 O410 1.185 . S
O404 C403 1.160 . S
O405 Zn406 1.899 . S
O405 C413 1.284 . S
Zn406 O405 1.899 . S
Zn406 O407 2.032 . S
Zn406 O410 2.086 . S
Zn406 O415 1.977 . S
O407 Zn406 2.032 . S
O407 C411 1.278 . S
C408 O409 1.203 . S
C408 O415 1.267 . S
O409 C408 1.203 . S
O410 C403 1.185 . S
O410 Zn406 2.086 . S
C411 O407 1.278 . S
C411 O412 1.211 . S
O412 C411 1.211 . S
C413 O405 1.284 . S
C413 O414 1.273 . S
O414 C413 1.273 . S
O415 Zn406 1.977 . S
O415 C408 1.267 . S
C416 C417 1.391 . S
C416 C418 1.394 . S
C416 H432 0.931 . S
C417 C416 1.391 . S
C417 C421 1.376 . S
C418 C416 1.394 . S
C418 C419 1.369 . S
C418 C422 1.531 . S
C419 C418 1.369 . S
C419 C420 1.410 . S
C419 C427 1.503 . S
C420 C419 1.410 . S
C420 C421 1.392 . S
C420 C423 1.511 . S
C421 C417 1.376 . S
C421 C420 1.392 . S
C421 H433 0.929 . S
C422 C418 1.531 . S
C422 H434 0.960 . S
C422 H435 0.962 . S
C422 H436 0.960 . S
C423 C420 1.511 . S
C423 H437 0.961 . S
C423 H438 0.961 . S
C423 H439 0.961 . S
C424 C425 1.370 . S
C424 C426 1.363 . S
C424 H440 0.931 . S
C425 C424 1.370 . S
C425 C429 1.408 . S
C426 C424 1.363 . S
C426 C427 1.370 . S
C426 C430 1.524 . S
C427 C419 1.503 . S
C427 C426 1.370 . S
C427 C428 1.403 . S
C428 C427 1.403 . S
C428 C429 1.404 . S
C428 C431 1.539 . S
C429 C425 1.408 . S
C429 C428 1.404 . S
C429 H441 0.930 . S
C430 C426 1.524 . S
C430 H442 0.956 . S
C430 H443 0.961 . S
C430 H444 0.961 . S
C431 C428 1.539 . S
C431 H445 0.958 . S
C431 H446 0.961 . S
C431 H447 0.960 . S
H432 C416 0.931 . S
H433 C421 0.929 . S
H434 C422 0.960 . S
H435 C422 0.962 . S
H436 C422 0.960 . S
H437 C423 0.961 . S
H438 C423 0.961 . S
H439 C423 0.961 . S
H440 C424 0.931 . S
H441 C429 0.930 . S
H442 C430 0.956 . S
H443 C430 0.961 . S
H444 C430 0.961 . S
H445 C431 0.958 . S
H446 C431 0.961 . S
H447 C431 0.960 . S
C448 C449 1.391 . S
C448 C450 1.394 . S
C448 H464 0.931 . S
C449 C448 1.391 . S
C449 C453 1.376 . S
C450 C448 1.394 . S
C450 C451 1.369 . S
C450 C454 1.531 . S
C451 C450 1.369 . S
C451 C452 1.410 . S
C451 C459 1.503 . S
C452 C451 1.410 . S
C452 C453 1.392 . S
C452 C455 1.511 . S
C453 C449 1.376 . S
C453 C452 1.392 . S
C453 H465 0.929 . S
C454 C450 1.531 . S
C454 H466 0.960 . S
C454 H467 0.962 . S
C454 H468 0.960 . S
C455 C452 1.511 . S
C455 H469 0.961 . S
C455 H470 0.961 . S
C455 H471 0.961 . S
C456 C457 1.370 . S
C456 C458 1.363 . S
C456 H472 0.931 . S
C457 C456 1.370 . S
C457 C461 1.408 . S
C458 C456 1.363 . S
C458 C459 1.370 . S
C458 C462 1.524 . S
C459 C451 1.503 . S
C459 C458 1.370 . S
C459 C460 1.403 . S
C460 C459 1.403 . S
C460 C461 1.404 . S
C460 C463 1.539 . S
C461 C457 1.408 . S
C461 C460 1.404 . S
C461 H473 0.930 . S
C462 C458 1.524 . S
C462 H474 0.956 . S
C462 H475 0.961 . S
C462 H476 0.961 . S
C463 C460 1.539 . S
C463 H477 0.958 . S
C463 H478 0.961 . S
C463 H479 0.960 . S
H464 C448 0.931 . S
H465 C453 0.929 . S
H466 C454 0.960 . S
H467 C454 0.962 . S
H468 C454 0.960 . S
H469 C455 0.961 . S
H470 C455 0.961 . S
H471 C455 0.961 . S
H472 C456 0.931 . S
H473 C461 0.930 . S
H474 C462 0.956 . S
H475 C462 0.961 . S
H476 C462 0.961 . S
H477 C463 0.958 . S
H478 C463 0.961 . S
H479 C463 0.960 . S
C480 C481 1.391 . S
C480 C482 1.394 . S
C480 H496 0.931 . S
C481 C480 1.391 . S
C481 C485 1.376 . S
C482 C480 1.394 . S
C482 C483 1.369 . S
C482 C486 1.531 . S
C483 C482 1.369 . S
C483 C484 1.410 . S
C483 C491 1.503 . S
C484 C483 1.410 . S
C484 C485 1.392 . S
C484 C487 1.511 . S
C485 C481 1.376 . S
C485 C484 1.392 . S
C485 H497 0.929 . S
C486 C482 1.531 . S
C486 H498 0.960 . S
C486 H499 0.962 . S
C486 H500 0.960 . S
C487 C484 1.511 . S
C487 H501 0.961 . S
C487 H502 0.961 . S
C487 H503 0.961 . S
C488 C489 1.370 . S
C488 C490 1.363 . S
C488 H504 0.931 . S
C489 C488 1.370 . S
C489 C493 1.408 . S
C490 C488 1.363 . S
C490 C491 1.370 . S
C490 C494 1.524 . S
C491 C483 1.503 . S
C491 C490 1.370 . S
C491 C492 1.403 . S
C492 C491 1.403 . S
C492 C493 1.404 . S
C492 C495 1.539 . S
C493 C489 1.408 . S
C493 C492 1.404 . S
C493 H505 0.930 . S
C494 C490 1.524 . S
C494 H506 0.956 . S
C494 H507 0.961 . S
C494 H508 0.961 . S
C495 C492 1.539 . S
C495 H509 0.958 . S
C495 H510 0.961 . S
C495 H511 0.960 . S
H496 C480 0.931 . S
H497 C485 0.929 . S
H498 C486 0.960 . S
H499 C486 0.962 . S
H500 C486 0.960 . S
H501 C487 0.961 . S
H502 C487 0.961 . S
H503 C487 0.961 . S
H504 C488 0.931 . S
H505 C493 0.930 . S
H506 C494 0.956 . S
H507 C494 0.961 . S
H508 C494 0.961 . S
H509 C495 0.958 . S
H510 C495 0.961 . S
H511 C495 0.960 . S
C512 C513 1.391 . S
C512 C514 1.394 . S
C512 H528 0.931 . S
C513 C512 1.391 . S
C513 C517 1.376 . S
C514 C512 1.394 . S
C514 C515 1.369 . S
C514 C518 1.531 . S
C515 C514 1.369 . S
C515 C516 1.410 . S
C515 C523 1.503 . S
C516 C515 1.410 . S
C516 C517 1.392 . S
C516 C519 1.511 . S
C517 C513 1.376 . S
C517 C516 1.392 . S
C517 H529 0.929 . S
C518 C514 1.531 . S
C518 H530 0.960 . S
C518 H531 0.962 . S
C518 H532 0.960 . S
C519 C516 1.511 . S
C519 H533 0.961 . S
C519 H534 0.961 . S
C519 H535 0.961 . S
C520 C521 1.370 . S
C520 C522 1.363 . S
C520 H536 0.931 . S
C521 C520 1.370 . S
C521 C525 1.408 . S
C522 C520 1.363 . S
C522 C523 1.370 . S
C522 C526 1.524 . S
C523 C515 1.503 . S
C523 C522 1.370 . S
C523 C524 1.403 . S
C524 C523 1.403 . S
C524 C525 1.404 . S
C524 C527 1.539 . S
C525 C521 1.408 . S
C525 C524 1.404 . S
C525 H537 0.930 . S
C526 C522 1.524 . S
C526 H538 0.956 . S
C526 H539 0.961 . S
C526 H540 0.961 . S
C527 C524 1.539 . S
C527 H541 0.958 . S
C527 H542 0.961 . S
C527 H543 0.960 . S
H528 C512 0.931 . S
H529 C517 0.929 . S
H530 C518 0.960 . S
H531 C518 0.962 . S
H532 C518 0.960 . S
H533 C519 0.961 . S
H534 C519 0.961 . S
H535 C519 0.961 . S
H536 C520 0.931 . S
H537 C525 0.930 . S
H538 C526 0.956 . S
H539 C526 0.961 . S
H540 C526 0.961 . S
H541 C527 0.958 . S
H542 C527 0.961 . S
H543 C527 0.960 . S
C544 C545 1.391 . S
C544 C546 1.394 . S
C544 H560 0.931 . S
C545 C544 1.391 . S
C545 C549 1.376 . S
C546 C544 1.394 . S
C546 C547 1.369 . S
C546 C550 1.531 . S
C547 C546 1.369 . S
C547 C548 1.410 . S
C547 C555 1.503 . S
C548 C547 1.410 . S
C548 C549 1.392 . S
C548 C551 1.511 . S
C549 C545 1.376 . S
C549 C548 1.392 . S
C549 H561 0.929 . S
C550 C546 1.531 . S
C550 H562 0.960 . S
C550 H563 0.962 . S
C550 H564 0.960 . S
C551 C548 1.511 . S
C551 H565 0.961 . S
C551 H566 0.961 . S
C551 H567 0.961 . S
C552 C553 1.370 . S
C552 C554 1.363 . S
C552 H568 0.931 . S
C553 C552 1.370 . S
C553 C557 1.408 . S
C554 C552 1.363 . S
C554 C555 1.370 . S
C554 C558 1.524 . S
C555 C547 1.503 . S
C555 C554 1.370 . S
C555 C556 1.403 . S
C556 C555 1.403 . S
C556 C557 1.404 . S
C556 C559 1.539 . S
C557 C553 1.408 . S
C557 C556 1.404 . S
C557 H569 0.930 . S
C558 C554 1.524 . S
C558 H570 0.956 . S
C558 H571 0.961 . S
C558 H572 0.961 . S
C559 C556 1.539 . S
C559 H573 0.958 . S
C559 H574 0.961 . S
C559 H575 0.960 . S
H560 C544 0.931 . S
H561 C549 0.929 . S
H562 C550 0.960 . S
H563 C550 0.962 . S
H564 C550 0.960 . S
H565 C551 0.961 . S
H566 C551 0.961 . S
H567 C551 0.961 . S
H568 C552 0.931 . S
H569 C557 0.930 . S
H570 C558 0.956 . S
H571 C558 0.961 . S
H572 C558 0.961 . S
H573 C559 0.958 . S
H574 C559 0.961 . S
H575 C559 0.960 . S
C576 C577 1.391 . S
C576 C578 1.394 . S
C576 H592 0.931 . S
C577 C576 1.391 . S
C577 C581 1.376 . S
C578 C576 1.394 . S
C578 C579 1.369 . S
C578 C582 1.531 . S
C579 C578 1.369 . S
C579 C580 1.410 . S
C579 C587 1.503 . S
C580 C579 1.410 . S
C580 C581 1.392 . S
C580 C583 1.511 . S
C581 C577 1.376 . S
C581 C580 1.392 . S
C581 H593 0.929 . S
C582 C578 1.531 . S
C582 H594 0.960 . S
C582 H595 0.962 . S
C582 H596 0.960 . S
C583 C580 1.511 . S
C583 H597 0.961 . S
C583 H598 0.961 . S
C583 H599 0.961 . S
C584 C585 1.370 . S
C584 C586 1.363 . S
C584 H600 0.931 . S
C585 C584 1.370 . S
C585 C589 1.408 . S
C586 C584 1.363 . S
C586 C587 1.370 . S
C586 C590 1.524 . S
C587 C579 1.503 . S
C587 C586 1.370 . S
C587 C588 1.403 . S
C588 C587 1.403 . S
C588 C589 1.404 . S
C588 C591 1.539 . S
C589 C585 1.408 . S
C589 C588 1.404 . S
C589 H601 0.930 . S
C590 C586 1.524 . S
C590 H602 0.956 . S
C590 H603 0.961 . S
C590 H604 0.961 . S
C591 C588 1.539 . S
C591 H605 0.958 . S
C591 H606 0.961 . S
C591 H607 0.960 . S
H592 C576 0.931 . S
H593 C581 0.929 . S
H594 C582 0.960 . S
H595 C582 0.962 . S
H596 C582 0.960 . S
H597 C583 0.961 . S
H598 C583 0.961 . S
H599 C583 0.961 . S
H600 C584 0.931 . S
H601 C589 0.930 . S
H602 C590 0.956 . S
H603 C590 0.961 . S
H604 C590 0.961 . S
H605 C591 0.958 . S
H606 C591 0.961 . S
H607 C591 0.960 . S
C608 C609 1.391 . S
C608 C610 1.394 . S
C608 H624 0.931 . S
C609 C608 1.391 . S
C609 C613 1.376 . S
C610 C608 1.394 . S
C610 C611 1.369 . S
C610 C614 1.531 . S
C611 C610 1.369 . S
C611 C612 1.410 . S
C611 C619 1.503 . S
C612 C611 1.410 . S
C612 C613 1.392 . S
C612 C615 1.511 . S
C613 C609 1.376 . S
C613 C612 1.392 . S
C613 H625 0.929 . S
C614 C610 1.531 . S
C614 H626 0.960 . S
C614 H627 0.962 . S
C614 H628 0.960 . S
C615 C612 1.511 . S
C615 H629 0.961 . S
C615 H630 0.961 . S
C615 H631 0.961 . S
C616 C617 1.370 . S
C616 C618 1.363 . S
C616 H632 0.931 . S
C617 C616 1.370 . S
C617 C621 1.408 . S
C618 C616 1.363 . S
C618 C619 1.370 . S
C618 C622 1.524 . S
C619 C611 1.503 . S
C619 C618 1.370 . S
C619 C620 1.403 . S
C620 C619 1.403 . S
C620 C621 1.404 . S
C620 C623 1.539 . S
C621 C617 1.408 . S
C621 C620 1.404 . S
C621 H633 0.930 . S
C622 C618 1.524 . S
C622 H634 0.956 . S
C622 H635 0.961 . S
C622 H636 0.961 . S
C623 C620 1.539 . S
C623 H637 0.958 . S
C623 H638 0.961 . S
C623 H639 0.960 . S
H624 C608 0.931 . S
H625 C613 0.929 . S
H626 C614 0.960 . S
H627 C614 0.962 . S
H628 C614 0.960 . S
H629 C615 0.961 . S
H630 C615 0.961 . S
H631 C615 0.961 . S
H632 C616 0.931 . S
H633 C621 0.930 . S
H634 C622 0.956 . S
H635 C622 0.961 . S
H636 C622 0.961 . S
H637 C623 0.958 . S
H638 C623 0.961 . S
H639 C623 0.960 . S
C640 C641 1.391 . S
C640 C642 1.394 . S
C640 H656 0.931 . S
C641 C640 1.391 . S
C641 C645 1.376 . S
C642 C640 1.394 . S
C642 C643 1.369 . S
C642 C646 1.531 . S
C643 C642 1.369 . S
C643 C644 1.410 . S
C643 C651 1.503 . S
C644 C643 1.410 . S
C644 C645 1.392 . S
C644 C647 1.511 . S
C645 C641 1.376 . S
C645 C644 1.392 . S
C645 H657 0.929 . S
C646 C642 1.531 . S
C646 H658 0.960 . S
C646 H659 0.962 . S
C646 H660 0.960 . S
C647 C644 1.511 . S
C647 H661 0.961 . S
C647 H662 0.961 . S
C647 H663 0.961 . S
C648 C649 1.370 . S
C648 C650 1.363 . S
C648 H664 0.931 . S
C649 C648 1.370 . S
C649 C653 1.408 . S
C650 C648 1.363 . S
C650 C651 1.370 . S
C650 C654 1.524 . S
C651 C643 1.503 . S
C651 C650 1.370 . S
C651 C652 1.403 . S
C652 C651 1.403 . S
C652 C653 1.404 . S
C652 C655 1.539 . S
C653 C649 1.408 . S
C653 C652 1.404 . S
C653 H665 0.930 . S
C654 C650 1.524 . S
C654 H666 0.956 . S
C654 H667 0.961 . S
C654 H668 0.961 . S
C655 C652 1.539 . S
C655 H669 0.958 . S
C655 H670 0.961 . S
C655 H671 0.960 . S
H656 C640 0.931 . S
H657 C645 0.929 . S
H658 C646 0.960 . S
H659 C646 0.962 . S
H660 C646 0.960 . S
H661 C647 0.961 . S
H662 C647 0.961 . S
H663 C647 0.961 . S
H664 C648 0.931 . S
H665 C653 0.930 . S
H666 C654 0.956 . S
H667 C654 0.961 . S
H668 C654 0.961 . S
H669 C655 0.958 . S
H670 C655 0.961 . S
H671 C655 0.960 . S
C672 C673 1.391 . S
C672 C674 1.394 . S
C672 H688 0.931 . S
C673 C672 1.391 . S
C673 C677 1.376 . S
C674 C672 1.394 . S
C674 C675 1.369 . S
C674 C678 1.531 . S
C675 C674 1.369 . S
C675 C676 1.410 . S
C675 C683 1.503 . S
C676 C675 1.410 . S
C676 C677 1.392 . S
C676 C679 1.511 . S
C677 C673 1.376 . S
C677 C676 1.392 . S
C677 H689 0.929 . S
C678 C674 1.531 . S
C678 H690 0.960 . S
C678 H691 0.962 . S
C678 H692 0.960 . S
C679 C676 1.511 . S
C679 H693 0.961 . S
C679 H694 0.961 . S
C679 H695 0.961 . S
C680 C681 1.370 . S
C680 C682 1.363 . S
C680 H696 0.931 . S
C681 C680 1.370 . S
C681 C685 1.408 . S
C682 C680 1.363 . S
C682 C683 1.370 . S
C682 C686 1.524 . S
C683 C675 1.503 . S
C683 C682 1.370 . S
C683 C684 1.403 . S
C684 C683 1.403 . S
C684 C685 1.404 . S
C684 C687 1.539 . S
C685 C681 1.408 . S
C685 C684 1.404 . S
C685 H697 0.930 . S
C686 C682 1.524 . S
C686 H698 0.956 . S
C686 H699 0.961 . S
C686 H700 0.961 . S
C687 C684 1.539 . S
C687 H701 0.958 . S
C687 H702 0.961 . S
C687 H703 0.960 . S
H688 C672 0.931 . S
H689 C677 0.929 . S
H690 C678 0.960 . S
H691 C678 0.962 . S
H692 C678 0.960 . S
H693 C679 0.961 . S
H694 C679 0.961 . S
H695 C679 0.961 . S
H696 C680 0.931 . S
H697 C685 0.930 . S
H698 C686 0.956 . S
H699 C686 0.961 . S
H700 C686 0.961 . S
H701 C687 0.958 . S
H702 C687 0.961 . S
H703 C687 0.960 . S
C704 C705 1.391 . S
C704 C706 1.394 . S
C704 H720 0.931 . S
C705 C704 1.391 . S
C705 C709 1.376 . S
C706 C704 1.394 . S
C706 C707 1.369 . S
C706 C710 1.531 . S
C707 C706 1.369 . S
C707 C708 1.410 . S
C707 C715 1.503 . S
C708 C707 1.410 . S
C708 C709 1.392 . S
C708 C711 1.511 . S
C709 C705 1.376 . S
C709 C708 1.392 . S
C709 H721 0.929 . S
C710 C706 1.531 . S
C710 H722 0.960 . S
C710 H723 0.962 . S
C710 H724 0.960 . S
C711 C708 1.511 . S
C711 H725 0.961 . S
C711 H726 0.961 . S
C711 H727 0.961 . S
C712 C713 1.370 . S
C712 C714 1.363 . S
C712 H728 0.931 . S
C713 C712 1.370 . S
C713 C717 1.408 . S
C714 C712 1.363 . S
C714 C715 1.370 . S
C714 C718 1.524 . S
C715 C707 1.503 . S
C715 C714 1.370 . S
C715 C716 1.403 . S
C716 C715 1.403 . S
C716 C717 1.404 . S
C716 C719 1.539 . S
C717 C713 1.408 . S
C717 C716 1.404 . S
C717 H729 0.930 . S
C718 C714 1.524 . S
C718 H730 0.956 . S
C718 H731 0.961 . S
C718 H732 0.961 . S
C719 C716 1.539 . S
C719 H733 0.958 . S
C719 H734 0.961 . S
C719 H735 0.960 . S
H720 C704 0.931 . S
H721 C709 0.929 . S
H722 C710 0.960 . S
H723 C710 0.962 . S
H724 C710 0.960 . S
H725 C711 0.961 . S
H726 C711 0.961 . S
H727 C711 0.961 . S
H728 C712 0.931 . S
H729 C717 0.930 . S
H730 C718 0.956 . S
H731 C718 0.961 . S
H732 C718 0.961 . S
H733 C719 0.958 . S
H734 C719 0.961 . S
H735 C719 0.960 . S
C736 C737 1.391 . S
C736 C738 1.394 . S
C736 H752 0.931 . S
C737 C736 1.391 . S
C737 C741 1.376 . S
C738 C736 1.394 . S
C738 C739 1.369 . S
C738 C742 1.531 . S
C739 C738 1.369 . S
C739 C740 1.410 . S
C739 C747 1.503 . S
C740 C739 1.410 . S
C740 C741 1.392 . S
C740 C743 1.511 . S
C741 C737 1.376 . S
C741 C740 1.392 . S
C741 H753 0.929 . S
C742 C738 1.531 . S
C742 H754 0.960 . S
C742 H755 0.962 . S
C742 H756 0.960 . S
C743 C740 1.511 . S
C743 H757 0.961 . S
C743 H758 0.961 . S
C743 H759 0.961 . S
C744 C745 1.370 . S
C744 C746 1.363 . S
C744 H760 0.931 . S
C745 C744 1.370 . S
C745 C749 1.408 . S
C746 C744 1.363 . S
C746 C747 1.370 . S
C746 C750 1.524 . S
C747 C739 1.503 . S
C747 C746 1.370 . S
C747 C748 1.403 . S
C748 C747 1.403 . S
C748 C749 1.404 . S
C748 C751 1.539 . S
C749 C745 1.408 . S
C749 C748 1.404 . S
C749 H761 0.930 . S
C750 C746 1.524 . S
C750 H762 0.956 . S
C750 H763 0.961 . S
C750 H764 0.961 . S
C751 C748 1.539 . S
C751 H765 0.958 . S
C751 H766 0.961 . S
C751 H767 0.960 . S
H752 C736 0.931 . S
H753 C741 0.929 . S
H754 C742 0.960 . S
H755 C742 0.962 . S
H756 C742 0.960 . S
H757 C743 0.961 . S
H758 C743 0.961 . S
H759 C743 0.961 . S
H760 C744 0.931 . S
H761 C749 0.930 . S
H762 C750 0.956 . S
H763 C750 0.961 . S
H764 C750 0.961 . S
H765 C751 0.958 . S
H766 C751 0.961 . S
H767 C751 0.960 . S
C768 C769 1.391 . S
C768 C770 1.394 . S
C768 H784 0.931 . S
C769 C768 1.391 . S
C769 C773 1.376 . S
C770 C768 1.394 . S
C770 C771 1.369 . S
C770 C774 1.531 . S
C771 C770 1.369 . S
C771 C772 1.410 . S
C771 C779 1.503 . S
C772 C771 1.410 . S
C772 C773 1.392 . S
C772 C775 1.511 . S
C773 C769 1.376 . S
C773 C772 1.392 . S
C773 H785 0.929 . S
C774 C770 1.531 . S
C774 H786 0.960 . S
C774 H787 0.962 . S
C774 H788 0.960 . S
C775 C772 1.511 . S
C775 H789 0.961 . S
C775 H790 0.961 . S
C775 H791 0.961 . S
C776 C777 1.370 . S
C776 C778 1.363 . S
C776 H792 0.931 . S
C777 C776 1.370 . S
C777 C781 1.408 . S
C778 C776 1.363 . S
C778 C779 1.370 . S
C778 C782 1.524 . S
C779 C771 1.503 . S
C779 C778 1.370 . S
C779 C780 1.403 . S
C780 C779 1.403 . S
C780 C781 1.404 . S
C780 C783 1.539 . S
C781 C777 1.408 . S
C781 C780 1.404 . S
C781 H793 0.930 . S
C782 C778 1.524 . S
C782 H794 0.956 . S
C782 H795 0.961 . S
C782 H796 0.961 . S
C783 C780 1.539 . S
C783 H797 0.958 . S
C783 H798 0.961 . S
C783 H799 0.960 . S
H784 C768 0.931 . S
H785 C773 0.929 . S
H786 C774 0.960 . S
H787 C774 0.962 . S
H788 C774 0.960 . S
H789 C775 0.961 . S
H790 C775 0.961 . S
H791 C775 0.961 . S
H792 C776 0.931 . S
H793 C781 0.930 . S
H794 C782 0.956 . S
H795 C782 0.961 . S
H796 C782 0.961 . S
H797 C783 0.958 . S
H798 C783 0.961 . S
H799 C783 0.960 . S
C800 C801 1.391 . S
C800 C802 1.394 . S
C800 H816 0.931 . S
C801 C800 1.391 . S
C801 C805 1.376 . S
C802 C800 1.394 . S
C802 C803 1.369 . S
C802 C806 1.531 . S
C803 C802 1.369 . S
C803 C804 1.410 . S
C803 C811 1.503 . S
C804 C803 1.410 . S
C804 C805 1.392 . S
C804 C807 1.511 . S
C805 C801 1.376 . S
C805 C804 1.392 . S
C805 H817 0.929 . S
C806 C802 1.531 . S
C806 H818 0.960 . S
C806 H819 0.962 . S
C806 H820 0.960 . S
C807 C804 1.511 . S
C807 H821 0.961 . S
C807 H822 0.961 . S
C807 H823 0.961 . S
C808 C809 1.370 . S
C808 C810 1.363 . S
C808 H824 0.931 . S
C809 C808 1.370 . S
C809 C813 1.408 . S
C810 C808 1.363 . S
C810 C811 1.370 . S
C810 C814 1.524 . S
C811 C803 1.503 . S
C811 C810 1.370 . S
C811 C812 1.403 . S
C812 C811 1.403 . S
C812 C813 1.404 . S
C812 C815 1.539 . S
C813 C809 1.408 . S
C813 C812 1.404 . S
C813 H825 0.930 . S
C814 C810 1.524 . S
C814 H826 0.956 . S
C814 H827 0.961 . S
C814 H828 0.961 . S
C815 C812 1.539 . S
C815 H829 0.958 . S
C815 H830 0.961 . S
C815 H831 0.960 . S
H816 C800 0.931 . S
H817 C805 0.929 . S
H818 C806 0.960 . S
H819 C806 0.962 . S
H820 C806 0.960 . S
H821 C807 0.961 . S
H822 C807 0.961 . S
H823 C807 0.961 . S
H824 C808 0.931 . S
H825 C813 0.930 . S
H826 C814 0.956 . S
H827 C814 0.961 . S
H828 C814 0.961 . S
H829 C815 0.958 . S
H830 C815 0.961 . S
H831 C815 0.960 . S
C832 C833 1.391 . S
C832 C834 1.394 . S
C832 H848 0.931 . S
C833 C832 1.391 . S
C833 C837 1.376 . S
C834 C832 1.394 . S
C834 C835 1.369 . S
C834 C838 1.531 . S
C835 C834 1.369 . S
C835 C836 1.410 . S
C835 C843 1.503 . S
C836 C835 1.410 . S
C836 C837 1.392 . S
C836 C839 1.511 . S
C837 C833 1.376 . S
C837 C836 1.392 . S
C837 H849 0.929 . S
C838 C834 1.531 . S
C838 H850 0.960 . S
C838 H851 0.962 . S
C838 H852 0.960 . S
C839 C836 1.511 . S
C839 H853 0.961 . S
C839 H854 0.961 . S
C839 H855 0.961 . S
C840 C841 1.370 . S
C840 C842 1.363 . S
C840 H856 0.931 . S
C841 C840 1.370 . S
C841 C845 1.408 . S
C842 C840 1.363 . S
C842 C843 1.370 . S
C842 C846 1.524 . S
C843 C835 1.503 . S
C843 C842 1.370 . S
C843 C844 1.403 . S
C844 C843 1.403 . S
C844 C845 1.404 . S
C844 C847 1.539 . S
C845 C841 1.408 . S
C845 C844 1.404 . S
C845 H857 0.930 . S
C846 C842 1.524 . S
C846 H858 0.956 . S
C846 H859 0.961 . S
C846 H860 0.961 . S
C847 C844 1.539 . S
C847 H861 0.958 . S
C847 H862 0.961 . S
C847 H863 0.960 . S
H848 C832 0.931 . S
H849 C837 0.929 . S
H850 C838 0.960 . S
H851 C838 0.962 . S
H852 C838 0.960 . S
H853 C839 0.961 . S
H854 C839 0.961 . S
H855 C839 0.961 . S
H856 C840 0.931 . S
H857 C845 0.930 . S
H858 C846 0.956 . S
H859 C846 0.961 . S
H860 C846 0.961 . S
H861 C847 0.958 . S
H862 C847 0.961 . S
H863 C847 0.960 . S
C864 C865 1.391 . S
C864 C866 1.394 . S
C864 H880 0.931 . S
C865 C864 1.391 . S
C865 C869 1.376 . S
C866 C864 1.394 . S
C866 C867 1.369 . S
C866 C870 1.531 . S
C867 C866 1.369 . S
C867 C868 1.410 . S
C867 C875 1.503 . S
C868 C867 1.410 . S
C868 C869 1.392 . S
C868 C871 1.511 . S
C869 C865 1.376 . S
C869 C868 1.392 . S
C869 H881 0.929 . S
C870 C866 1.531 . S
C870 H882 0.960 . S
C870 H883 0.962 . S
C870 H884 0.960 . S
C871 C868 1.511 . S
C871 H885 0.961 . S
C871 H886 0.961 . S
C871 H887 0.961 . S
C872 C873 1.370 . S
C872 C874 1.363 . S
C872 H888 0.931 . S
C873 C872 1.370 . S
C873 C877 1.408 . S
C874 C872 1.363 . S
C874 C875 1.370 . S
C874 C878 1.524 . S
C875 C867 1.503 . S
C875 C874 1.370 . S
C875 C876 1.403 . S
C876 C875 1.403 . S
C876 C877 1.404 . S
C876 C879 1.539 . S
C877 C873 1.408 . S
C877 C876 1.404 . S
C877 H889 0.930 . S
C878 C874 1.524 . S
C878 H890 0.956 . S
C878 H891 0.961 . S
C878 H892 0.961 . S
C879 C876 1.539 . S
C879 H893 0.958 . S
C879 H894 0.961 . S
C879 H895 0.960 . S
H880 C864 0.931 . S
H881 C869 0.929 . S
H882 C870 0.960 . S
H883 C870 0.962 . S
H884 C870 0.960 . S
H885 C871 0.961 . S
H886 C871 0.961 . S
H887 C871 0.961 . S
H888 C872 0.931 . S
H889 C877 0.930 . S
H890 C878 0.956 . S
H891 C878 0.961 . S
H892 C878 0.961 . S
H893 C879 0.958 . S
H894 C879 0.961 . S
H895 C879 0.960 . S
C896 C897 1.391 . S
C896 C898 1.394 . S
C896 H912 0.931 . S
C897 C896 1.391 . S
C897 C901 1.376 . S
C898 C896 1.394 . S
C898 C899 1.369 . S
C898 C902 1.531 . S
C899 C898 1.369 . S
C899 C900 1.410 . S
C899 C907 1.503 . S
C900 C899 1.410 . S
C900 C901 1.392 . S
C900 C903 1.511 . S
C901 C897 1.376 . S
C901 C900 1.392 . S
C901 H913 0.929 . S
C902 C898 1.531 . S
C902 H914 0.960 . S
C902 H915 0.962 . S
C902 H916 0.960 . S
C903 C900 1.511 . S
C903 H917 0.961 . S
C903 H918 0.961 . S
C903 H919 0.961 . S
C904 C905 1.370 . S
C904 C906 1.363 . S
C904 H920 0.931 . S
C905 C904 1.370 . S
C905 C909 1.408 . S
C906 C904 1.363 . S
C906 C907 1.370 . S
C906 C910 1.524 . S
C907 C899 1.503 . S
C907 C906 1.370 . S
C907 C908 1.403 . S
C908 C907 1.403 . S
C908 C909 1.404 . S
C908 C911 1.539 . S
C909 C905 1.408 . S
C909 C908 1.404 . S
C909 H921 0.930 . S
C910 C906 1.524 . S
C910 H922 0.956 . S
C910 H923 0.961 . S
C910 H924 0.961 . S
C911 C908 1.539 . S
C911 H925 0.958 . S
C911 H926 0.961 . S
C911 H927 0.960 . S
H912 C896 0.931 . S
H913 C901 0.929 . S
H914 C902 0.960 . S
H915 C902 0.962 . S
H916 C902 0.960 . S
H917 C903 0.961 . S
H918 C903 0.961 . S
H919 C903 0.961 . S
H920 C904 0.931 . S
H921 C909 0.930 . S
H922 C910 0.956 . S
H923 C910 0.961 . S
H924 C910 0.961 . S
H925 C911 0.958 . S
H926 C911 0.961 . S
H927 C911 0.960 . S
C928 C929 1.391 . S
C928 C930 1.394 . S
C928 H944 0.931 . S
C929 C928 1.391 . S
C929 C933 1.376 . S
C930 C928 1.394 . S
C930 C931 1.369 . S
C930 C934 1.531 . S
C931 C930 1.369 . S
C931 C932 1.410 . S
C931 C939 1.503 1_455 S
C932 C931 1.410 . S
C932 C933 1.392 . S
C932 C935 1.511 . S
C933 C929 1.376 . S
C933 C932 1.392 . S
C933 H945 0.929 . S
C934 C930 1.531 . S
C934 H946 0.960 1_455 S
C934 H947 0.962 . S
C934 H948 0.960 . S
C935 C932 1.511 . S
C935 H949 0.961 . S
C935 H950 0.961 1_455 S
C935 H951 0.961 . S
C936 C937 1.370 . S
C936 C938 1.363 . S
C936 H952 0.931 . S
C937 C936 1.370 . S
C937 C941 1.408 . S
C938 C936 1.363 . S
C938 C939 1.370 . S
C938 C942 1.524 . S
C939 C931 1.503 1_655 S
C939 C938 1.370 . S
C939 C940 1.403 . S
C940 C939 1.403 . S
C940 C941 1.404 . S
C940 C943 1.539 . S
C941 C937 1.408 . S
C941 C940 1.404 . S
C941 H953 0.930 . S
C942 C938 1.524 . S
C942 H954 0.956 . S
C942 H955 0.961 1_655 S
C942 H956 0.961 . S
C943 C940 1.539 . S
C943 H957 0.958 . S
C943 H958 0.961 . S
C943 H959 0.971 . S
H944 C928 0.931 . S
H945 C933 0.929 . S
H946 C934 0.960 1_655 S
H947 C934 0.962 . S
H948 C934 0.960 . S
H949 C935 0.961 . S
H950 C935 0.961 1_655 S
H951 C935 0.961 . S
H952 C936 0.931 . S
H953 C941 0.930 . S
H954 C942 0.956 . S
H955 C942 0.961 1_455 S
H956 C942 0.961 . S
H957 C943 0.958 . S
H958 C943 0.961 . S
H959 C943 0.971 . S
C960 C961 1.391 . S
C960 C962 1.394 . S
C960 H976 0.931 . S
C961 C960 1.391 . S
C961 C965 1.376 . S
C962 C960 1.394 . S
C962 C963 1.369 . S
C962 C966 1.531 . S
C963 C962 1.369 . S
C963 C964 1.410 . S
C963 C971 1.503 . S
C964 C963 1.410 . S
C964 C965 1.392 . S
C964 C967 1.511 . S
C965 C961 1.376 . S
C965 C964 1.392 . S
C965 H977 0.929 . S
C966 C962 1.531 . S
C966 H978 0.960 . S
C966 H979 0.962 . S
C966 H980 0.960 . S
C967 C964 1.511 . S
C967 H981 0.961 . S
C967 H982 0.961 . S
C967 H983 0.961 . S
C968 C969 1.370 . S
C968 C970 1.363 . S
C968 H984 0.931 . S
C969 C968 1.370 . S
C969 C973 1.408 . S
C970 C968 1.363 . S
C970 C971 1.370 . S
C970 C974 1.524 . S
C971 C963 1.503 . S
C971 C970 1.370 . S
C971 C972 1.403 . S
C972 C971 1.403 . S
C972 C973 1.404 . S
C972 C975 1.539 . S
C973 C969 1.408 . S
C973 C972 1.404 . S
C973 H985 0.930 . S
C974 C970 1.524 . S
C974 H986 0.956 . S
C974 H987 0.961 . S
C974 H988 0.961 . S
C975 C972 1.539 . S
C975 H989 0.958 . S
C975 H990 0.961 . S
C975 H991 0.960 . S
H976 C960 0.931 . S
H977 C965 0.929 . S
H978 C966 0.960 . S
H979 C966 0.962 . S
H980 C966 0.960 . S
H981 C967 0.961 . S
H982 C967 0.961 . S
H983 C967 0.961 . S
H984 C968 0.931 . S
H985 C973 0.930 . S
H986 C974 0.956 . S
H987 C974 0.961 . S
H988 C974 0.961 . S
H989 C975 0.958 . S
H990 C975 0.961 . S
H991 C975 0.960 . S
C992 C993 1.391 . S
C992 C994 1.394 . S
C992 H1008 0.931 . S
C993 C992 1.391 . S
C993 C997 1.376 . S
C994 C992 1.394 . S
C994 C995 1.369 . S
C994 C998 1.531 . S
C995 C994 1.369 . S
C995 C996 1.410 . S
C995 C1003 1.503 . S
C996 C995 1.410 . S
C996 C997 1.392 . S
C996 C999 1.511 . S
C997 C993 1.376 . S
C997 C996 1.392 . S
C997 H1009 0.929 . S
C998 C994 1.531 . S
C998 H1010 0.960 . S
C998 H1011 0.962 . S
C998 H1012 0.960 . S
C999 C996 1.511 . S
C999 H1013 0.961 . S
C999 H1014 0.961 . S
C999 H1015 0.961 . S
C1000 C1001 1.370 . S
C1000 C1002 1.363 . S
C1000 H1016 0.931 . S
C1001 C1000 1.370 . S
C1001 C1005 1.408 . S
C1002 C1000 1.363 . S
C1002 C1003 1.370 . S
C1002 C1006 1.524 . S
C1003 C995 1.503 . S
C1003 C1002 1.370 . S
C1003 C1004 1.403 . S
C1004 C1003 1.403 . S
C1004 C1005 1.404 . S
C1004 C1007 1.539 . S
C1005 C1001 1.408 . S
C1005 C1004 1.404 . S
C1005 H1017 0.930 . S
C1006 C1002 1.524 . S
C1006 H1018 0.956 . S
C1006 H1019 0.961 . S
C1006 H1020 0.961 . S
C1007 C1004 1.539 . S
C1007 H1021 0.958 . S
C1007 H1022 0.961 . S
C1007 H1023 0.960 . S
H1008 C992 0.931 . S
H1009 C997 0.929 . S
H1010 C998 0.960 . S
H1011 C998 0.962 . S
H1012 C998 0.960 . S
H1013 C999 0.961 . S
H1014 C999 0.961 . S
H1015 C999 0.961 . S
H1016 C1000 0.931 . S
H1017 C1005 0.930 . S
H1018 C1006 0.956 . S
H1019 C1006 0.961 . S
H1020 C1006 0.961 . S
H1021 C1007 0.958 . S
H1022 C1007 0.961 . S
H1023 C1007 0.960 . S
C1024 C1025 1.391 . S
C1024 C1026 1.394 . S
C1024 H1040 0.931 . S
C1025 C1024 1.391 . S
C1025 C1029 1.376 . S
C1026 C1024 1.394 . S
C1026 C1027 1.369 . S
C1026 C1030 1.531 . S
C1027 C1026 1.369 . S
C1027 C1028 1.410 . S
C1027 C1035 1.503 . S
C1028 C1027 1.410 . S
C1028 C1029 1.392 . S
C1028 C1031 1.511 . S
C1029 C1025 1.376 . S
C1029 C1028 1.392 . S
C1029 H1041 0.929 . S
C1030 C1026 1.531 . S
C1030 H1042 0.960 . S
C1030 H1043 0.962 . S
C1030 H1044 0.960 . S
C1031 C1028 1.511 . S
C1031 H1045 0.961 . S
C1031 H1046 0.961 . S
C1031 H1047 0.961 . S
C1032 C1033 1.370 . S
C1032 C1034 1.363 . S
C1032 H1048 0.931 . S
C1033 C1032 1.370 . S
C1033 C1037 1.408 . S
C1034 C1032 1.363 . S
C1034 C1035 1.370 . S
C1034 C1038 1.524 . S
C1035 C1027 1.503 . S
C1035 C1034 1.370 . S
C1035 C1036 1.403 . S
C1036 C1035 1.403 . S
C1036 C1037 1.404 . S
C1036 C1039 1.539 . S
C1037 C1033 1.408 . S
C1037 C1036 1.404 . S
C1037 H1049 0.930 . S
C1038 C1034 1.524 . S
C1038 H1050 0.956 . S
C1038 H1051 0.961 . S
C1038 H1052 0.961 . S
C1039 C1036 1.539 . S
C1039 H1053 0.958 . S
C1039 H1054 0.961 . S
C1039 H1055 0.960 . S
H1040 C1024 0.931 . S
H1041 C1029 0.929 . S
H1042 C1030 0.960 . S
H1043 C1030 0.962 . S
H1044 C1030 0.960 . S
H1045 C1031 0.961 . S
H1046 C1031 0.961 . S
H1047 C1031 0.961 . S
H1048 C1032 0.931 . S
H1049 C1037 0.930 . S
H1050 C1038 0.956 . S
H1051 C1038 0.961 . S
H1052 C1038 0.961 . S
H1053 C1039 0.958 . S
H1054 C1039 0.961 . S
H1055 C1039 0.960 . S
C1056 C1057 1.391 . S
C1056 C1058 1.394 . S
C1056 H1072 0.931 . S
C1057 C1056 1.391 . S
C1057 C1061 1.376 . S
C1058 C1056 1.394 . S
C1058 C1059 1.369 . S
C1058 C1062 1.531 . S
C1059 C1058 1.369 . S
C1059 C1060 1.410 . S
C1059 C1067 1.503 1_655 S
C1060 C1059 1.410 . S
C1060 C1061 1.392 . S
C1060 C1063 1.511 . S
C1061 C1057 1.376 . S
C1061 C1060 1.392 . S
C1061 H1073 0.929 . S
C1062 C1058 1.531 . S
C1062 H1074 0.960 1_655 S
C1062 H1075 0.962 . S
C1062 H1076 0.960 . S
C1063 C1060 1.511 . S
C1063 H1077 0.961 . S
C1063 H1078 0.961 1_655 S
C1063 H1079 0.961 . S
C1064 C1065 1.370 . S
C1064 C1066 1.363 . S
C1064 H1080 0.931 . S
C1065 C1064 1.370 . S
C1065 C1069 1.408 . S
C1066 C1064 1.363 . S
C1066 C1067 1.370 . S
C1066 C1070 1.524 . S
C1067 C1059 1.503 1_455 S
C1067 C1066 1.370 . S
C1067 C1068 1.403 . S
C1068 C1067 1.403 . S
C1068 C1069 1.404 . S
C1068 C1071 1.539 . S
C1069 C1065 1.408 . S
C1069 C1068 1.404 . S
C1069 H1081 0.930 . S
C1070 C1066 1.524 . S
C1070 H1082 0.956 . S
C1070 H1083 0.961 1_455 S
C1070 H1084 0.961 . S
C1071 C1068 1.539 . S
C1071 H1085 0.958 . S
C1071 H1086 0.961 . S
C1071 H1087 0.971 . S
H1072 C1056 0.931 . S
H1073 C1061 0.929 . S
H1074 C1062 0.960 1_455 S
H1075 C1062 0.962 . S
H1076 C1062 0.960 . S
H1077 C1063 0.961 . S
H1078 C1063 0.961 1_455 S
H1079 C1063 0.961 . S
H1080 C1064 0.931 . S
H1081 C1069 0.930 . S
H1082 C1070 0.956 . S
H1083 C1070 0.961 1_655 S
H1084 C1070 0.961 . S
H1085 C1071 0.958 . S
H1086 C1071 0.961 . S
H1087 C1071 0.971 . S
C1088 C1089 1.391 . S
C1088 C1090 1.394 . S
C1088 H1104 0.931 . S
C1089 C1088 1.391 . S
C1089 C1093 1.376 . S
C1090 C1088 1.394 . S
C1090 C1091 1.369 . S
C1090 C1094 1.531 . S
C1091 C1090 1.369 . S
C1091 C1092 1.410 . S
C1091 C1099 1.503 . S
C1092 C1091 1.410 . S
C1092 C1093 1.392 . S
C1092 C1095 1.511 . S
C1093 C1089 1.376 . S
C1093 C1092 1.392 . S
C1093 H1105 0.929 . S
C1094 C1090 1.531 . S
C1094 H1106 0.960 . S
C1094 H1107 0.962 . S
C1094 H1108 0.960 . S
C1095 C1092 1.511 . S
C1095 H1109 0.961 . S
C1095 H1110 0.961 . S
C1095 H1111 0.961 . S
C1096 C1097 1.370 . S
C1096 C1098 1.363 . S
C1096 H1112 0.931 . S
C1097 C1096 1.370 . S
C1097 C1101 1.408 . S
C1098 C1096 1.363 . S
C1098 C1099 1.370 . S
C1098 C1102 1.524 . S
C1099 C1091 1.503 . S
C1099 C1098 1.370 . S
C1099 C1100 1.403 . S
C1100 C1099 1.403 . S
C1100 C1101 1.404 . S
C1100 C1103 1.539 . S
C1101 C1097 1.408 . S
C1101 C1100 1.404 . S
C1101 H1113 0.930 . S
C1102 C1098 1.524 . S
C1102 H1114 0.956 . S
C1102 H1115 0.961 . S
C1102 H1116 0.961 . S
C1103 C1100 1.539 . S
C1103 H1117 0.958 . S
C1103 H1118 0.961 . S
C1103 H1119 0.960 . S
H1104 C1088 0.931 . S
H1105 C1093 0.929 . S
H1106 C1094 0.960 . S
H1107 C1094 0.962 . S
H1108 C1094 0.960 . S
H1109 C1095 0.961 . S
H1110 C1095 0.961 . S
H1111 C1095 0.961 . S
H1112 C1096 0.931 . S
H1113 C1101 0.930 . S
H1114 C1102 0.956 . S
H1115 C1102 0.961 . S
H1116 C1102 0.961 . S
H1117 C1103 0.958 . S
H1118 C1103 0.961 . S
H1119 C1103 0.960 . S
C1120 C1121 1.391 . S
C1120 C1122 1.394 . S
C1120 H1136 0.931 . S
C1121 C1120 1.391 . S
C1121 C1125 1.376 . S
C1122 C1120 1.394 . S
C1122 C1123 1.369 . S
C1122 C1126 1.531 . S
C1123 C1122 1.369 . S
C1123 C1124 1.410 . S
C1123 C1131 1.503 . S
C1124 C1123 1.410 . S
C1124 C1125 1.392 . S
C1124 C1127 1.511 . S
C1125 C1121 1.376 . S
C1125 C1124 1.392 . S
C1125 H1137 0.929 . S
C1126 C1122 1.531 . S
C1126 H1138 0.960 . S
C1126 H1139 0.962 . S
C1126 H1140 0.960 . S
C1127 C1124 1.511 . S
C1127 H1141 0.961 . S
C1127 H1142 0.961 . S
C1127 H1143 0.961 . S
C1128 C1129 1.370 . S
C1128 C1130 1.363 . S
C1128 H1144 0.931 . S
C1129 C1128 1.370 . S
C1129 C1133 1.408 . S
C1130 C1128 1.363 . S
C1130 C1131 1.370 . S
C1130 C1134 1.524 . S
C1131 C1123 1.503 . S
C1131 C1130 1.370 . S
C1131 C1132 1.403 . S
C1132 C1131 1.403 . S
C1132 C1133 1.404 . S
C1132 C1135 1.539 . S
C1133 C1129 1.408 . S
C1133 C1132 1.404 . S
C1133 H1145 0.930 . S
C1134 C1130 1.524 . S
C1134 H1146 0.956 . S
C1134 H1147 0.961 . S
C1134 H1148 0.961 . S
C1135 C1132 1.539 . S
C1135 H1149 0.958 . S
C1135 H1150 0.961 . S
C1135 H1151 0.960 . S
H1136 C1120 0.931 . S
H1137 C1125 0.929 . S
H1138 C1126 0.960 . S
H1139 C1126 0.962 . S
H1140 C1126 0.960 . S
H1141 C1127 0.961 . S
H1142 C1127 0.961 . S
H1143 C1127 0.961 . S
H1144 C1128 0.931 . S
H1145 C1133 0.930 . S
H1146 C1134 0.956 . S
H1147 C1134 0.961 . S
H1148 C1134 0.961 . S
H1149 C1135 0.958 . S
H1150 C1135 0.961 . S
H1151 C1135 0.960 . S
C1152 C1153 1.391 . S
C1152 C1154 1.394 . S
C1152 H1168 0.931 . S
C1153 C1152 1.391 . S
C1153 C1157 1.376 . S
C1154 C1152 1.394 . S
C1154 C1155 1.369 . S
C1154 C1158 1.531 . S
C1155 C1154 1.369 . S
C1155 C1156 1.410 . S
C1155 C1163 1.503 . S
C1156 C1155 1.410 . S
C1156 C1157 1.392 . S
C1156 C1159 1.511 . S
C1157 C1153 1.376 . S
C1157 C1156 1.392 . S
C1157 H1169 0.929 . S
C1158 C1154 1.531 . S
C1158 H1170 0.960 . S
C1158 H1171 0.962 . S
C1158 H1172 0.960 . S
C1159 C1156 1.511 . S
C1159 H1173 0.961 . S
C1159 H1174 0.961 . S
C1159 H1175 0.961 . S
C1160 C1161 1.370 . S
C1160 C1162 1.363 . S
C1160 H1176 0.931 . S
C1161 C1160 1.370 . S
C1161 C1165 1.408 . S
C1162 C1160 1.363 . S
C1162 C1163 1.370 . S
C1162 C1166 1.524 . S
C1163 C1155 1.503 . S
C1163 C1162 1.370 . S
C1163 C1164 1.403 . S
C1164 C1163 1.403 . S
C1164 C1165 1.404 . S
C1164 C1167 1.539 . S
C1165 C1161 1.408 . S
C1165 C1164 1.404 . S
C1165 H1177 0.930 . S
C1166 C1162 1.524 . S
C1166 H1178 0.956 . S
C1166 H1179 0.961 . S
C1166 H1180 0.961 . S
C1167 C1164 1.539 . S
C1167 H1181 0.958 . S
C1167 H1182 0.961 . S
C1167 H1183 0.960 . S
H1168 C1152 0.931 . S
H1169 C1157 0.929 . S
H1170 C1158 0.960 . S
H1171 C1158 0.962 . S
H1172 C1158 0.960 . S
H1173 C1159 0.961 . S
H1174 C1159 0.961 . S
H1175 C1159 0.961 . S
H1176 C1160 0.931 . S
H1177 C1165 0.930 . S
H1178 C1166 0.956 . S
H1179 C1166 0.961 . S
H1180 C1166 0.961 . S
H1181 C1167 0.958 . S
H1182 C1167 0.961 . S
H1183 C1167 0.960 . S
C1184 C1185 1.391 . S
C1184 C1186 1.394 . S
C1184 H1200 0.931 . S
C1185 C1184 1.391 . S
C1185 C1189 1.376 . S
C1186 C1184 1.394 . S
C1186 C1187 1.369 . S
C1186 C1190 1.531 . S
C1187 C1186 1.369 . S
C1187 C1188 1.410 . S
C1187 C1195 1.503 . S
C1188 C1187 1.410 . S
C1188 C1189 1.392 . S
C1188 C1191 1.511 . S
C1189 C1185 1.376 . S
C1189 C1188 1.392 . S
C1189 H1201 0.929 . S
C1190 C1186 1.531 . S
C1190 H1202 0.960 . S
C1190 H1203 0.962 . S
C1190 H1204 0.960 . S
C1191 C1188 1.511 . S
C1191 H1205 0.961 . S
C1191 H1206 0.961 . S
C1191 H1207 0.961 . S
C1192 C1193 1.370 . S
C1192 C1194 1.363 . S
C1192 H1208 0.931 . S
C1193 C1192 1.370 . S
C1193 C1197 1.408 . S
C1194 C1192 1.363 . S
C1194 C1195 1.370 . S
C1194 C1198 1.524 . S
C1195 C1187 1.503 . S
C1195 C1194 1.370 . S
C1195 C1196 1.403 . S
C1196 C1195 1.403 . S
C1196 C1197 1.404 . S
C1196 C1199 1.539 . S
C1197 C1193 1.408 . S
C1197 C1196 1.404 . S
C1197 H1209 0.930 . S
C1198 C1194 1.524 . S
C1198 H1210 0.956 . S
C1198 H1211 0.961 . S
C1198 H1212 0.961 . S
C1199 C1196 1.539 . S
C1199 H1213 0.958 . S
C1199 H1214 0.961 . S
C1199 H1215 0.960 . S
H1200 C1184 0.931 . S
H1201 C1189 0.929 . S
H1202 C1190 0.960 . S
H1203 C1190 0.962 . S
H1204 C1190 0.960 . S
H1205 C1191 0.961 . S
H1206 C1191 0.961 . S
H1207 C1191 0.961 . S
H1208 C1192 0.931 . S
H1209 C1197 0.930 . S
H1210 C1198 0.956 . S
H1211 C1198 0.961 . S
H1212 C1198 0.961 . S
H1213 C1199 0.958 . S
H1214 C1199 0.961 . S
H1215 C1199 0.960 . S
C1216 C1217 1.391 . S
C1216 C1218 1.394 . S
C1216 H1232 0.931 . S
C1217 C1216 1.391 . S
C1217 C1221 1.376 . S
C1218 C1216 1.394 . S
C1218 C1219 1.369 . S
C1218 C1222 1.531 . S
C1219 C1218 1.369 . S
C1219 C1220 1.410 . S
C1219 C1227 1.503 . S
C1220 C1219 1.410 . S
C1220 C1221 1.392 . S
C1220 C1223 1.511 . S
C1221 C1217 1.376 . S
C1221 C1220 1.392 . S
C1221 H1233 0.929 . S
C1222 C1218 1.531 . S
C1222 H1234 0.960 . S
C1222 H1235 0.962 . S
C1222 H1236 0.960 . S
C1223 C1220 1.511 . S
C1223 H1237 0.961 . S
C1223 H1238 0.961 . S
C1223 H1239 0.961 . S
C1224 C1225 1.370 . S
C1224 C1226 1.363 . S
C1224 H1240 0.931 . S
C1225 C1224 1.370 . S
C1225 C1229 1.408 . S
C1226 C1224 1.363 . S
C1226 C1227 1.370 . S
C1226 C1230 1.524 . S
C1227 C1219 1.503 . S
C1227 C1226 1.370 . S
C1227 C1228 1.403 . S
C1228 C1227 1.403 . S
C1228 C1229 1.404 . S
C1228 C1231 1.539 . S
C1229 C1225 1.408 . S
C1229 C1228 1.404 . S
C1229 H1241 0.930 . S
C1230 C1226 1.524 . S
C1230 H1242 0.956 . S
C1230 H1243 0.961 . S
C1230 H1244 0.961 . S
C1231 C1228 1.539 . S
C1231 H1245 0.958 . S
C1231 H1246 0.961 . S
C1231 H1247 0.960 . S
H1232 C1216 0.931 . S
H1233 C1221 0.929 . S
H1234 C1222 0.960 . S
H1235 C1222 0.962 . S
H1236 C1222 0.960 . S
H1237 C1223 0.961 . S
H1238 C1223 0.961 . S
H1239 C1223 0.961 . S
H1240 C1224 0.931 . S
H1241 C1229 0.930 . S
H1242 C1230 0.956 . S
H1243 C1230 0.961 . S
H1244 C1230 0.961 . S
H1245 C1231 0.958 . S
H1246 C1231 0.961 . S
H1247 C1231 0.960 . S
C1248 C1249 1.391 . S
C1248 C1250 1.394 . S
C1248 H1264 0.931 . S
C1249 C1248 1.391 . S
C1249 C1253 1.376 . S
C1250 C1248 1.394 . S
C1250 C1251 1.369 . S
C1250 C1254 1.531 . S
C1251 C1250 1.369 . S
C1251 C1252 1.410 . S
C1251 C1259 1.503 . S
C1252 C1251 1.410 . S
C1252 C1253 1.392 . S
C1252 C1255 1.511 . S
C1253 C1249 1.376 . S
C1253 C1252 1.392 . S
C1253 H1265 0.929 . S
C1254 C1250 1.531 . S
C1254 H1266 0.960 . S
C1254 H1267 0.962 . S
C1254 H1268 0.960 . S
C1255 C1252 1.511 . S
C1255 H1269 0.961 . S
C1255 H1270 0.961 . S
C1255 H1271 0.961 . S
C1256 C1257 1.370 . S
C1256 C1258 1.363 . S
C1256 H1272 0.931 . S
C1257 C1256 1.370 . S
C1257 C1261 1.408 . S
C1258 C1256 1.363 . S
C1258 C1259 1.370 . S
C1258 C1262 1.524 . S
C1259 C1251 1.503 . S
C1259 C1258 1.370 . S
C1259 C1260 1.403 . S
C1260 C1259 1.403 . S
C1260 C1261 1.404 . S
C1260 C1263 1.539 . S
C1261 C1257 1.408 . S
C1261 C1260 1.404 . S
C1261 H1273 0.930 . S
C1262 C1258 1.524 . S
C1262 H1274 0.956 . S
C1262 H1275 0.961 . S
C1262 H1276 0.961 . S
C1263 C1260 1.539 . S
C1263 H1277 0.958 . S
C1263 H1278 0.961 . S
C1263 H1279 0.960 . S
H1264 C1248 0.931 . S
H1265 C1253 0.929 . S
H1266 C1254 0.960 . S
H1267 C1254 0.962 . S
H1268 C1254 0.960 . S
H1269 C1255 0.961 . S
H1270 C1255 0.961 . S
H1271 C1255 0.961 . S
H1272 C1256 0.931 . S
H1273 C1261 0.930 . S
H1274 C1262 0.956 . S
H1275 C1262 0.961 . S
H1276 C1262 0.961 . S
H1277 C1263 0.958 . S
H1278 C1263 0.961 . S
H1279 C1263 0.960 . S
C1280 C1281 1.391 . S
C1280 C1282 1.394 . S
C1280 H1296 0.931 . S
C1281 C1280 1.391 . S
C1281 C1285 1.376 . S
C1282 C1280 1.394 . S
C1282 C1283 1.369 . S
C1282 C1286 1.531 . S
C1283 C1282 1.369 . S
C1283 C1284 1.410 . S
C1283 C1291 1.503 . S
C1284 C1283 1.410 . S
C1284 C1285 1.392 . S
C1284 C1287 1.511 . S
C1285 C1281 1.376 . S
C1285 C1284 1.392 . S
C1285 H1297 0.929 . S
C1286 C1282 1.531 . S
C1286 H1298 0.960 . S
C1286 H1299 0.962 . S
C1286 H1300 0.960 . S
C1287 C1284 1.511 . S
C1287 H1301 0.961 . S
C1287 H1302 0.961 . S
C1287 H1303 0.961 . S
C1288 C1289 1.370 . S
C1288 C1290 1.363 . S
C1288 H1304 0.931 . S
C1289 C1288 1.370 . S
C1289 C1293 1.408 . S
C1290 C1288 1.363 . S
C1290 C1291 1.370 . S
C1290 C1294 1.524 . S
C1291 C1283 1.503 . S
C1291 C1290 1.370 . S
C1291 C1292 1.403 . S
C1292 C1291 1.403 . S
C1292 C1293 1.404 . S
C1292 C1295 1.539 . S
C1293 C1289 1.408 . S
C1293 C1292 1.404 . S
C1293 H1305 0.930 . S
C1294 C1290 1.524 . S
C1294 H1306 0.956 . S
C1294 H1307 0.961 . S
C1294 H1308 0.961 . S
C1295 C1292 1.539 . S
C1295 H1309 0.958 . S
C1295 H1310 0.961 . S
C1295 H1311 0.960 . S
H1296 C1280 0.931 . S
H1297 C1285 0.929 . S
H1298 C1286 0.960 . S
H1299 C1286 0.962 . S
H1300 C1286 0.960 . S
H1301 C1287 0.961 . S
H1302 C1287 0.961 . S
H1303 C1287 0.961 . S
H1304 C1288 0.931 . S
H1305 C1293 0.930 . S
H1306 C1294 0.956 . S
H1307 C1294 0.961 . S
H1308 C1294 0.961 . S
H1309 C1295 0.958 . S
H1310 C1295 0.961 . S
H1311 C1295 0.960 . S
C1312 C1313 1.391 . S
C1312 C1314 1.394 . S
C1312 H1328 0.931 . S
C1313 C1312 1.391 . S
C1313 C1317 1.376 . S
C1314 C1312 1.394 . S
C1314 C1315 1.369 . S
C1314 C1318 1.531 . S
C1315 C1314 1.369 . S
C1315 C1316 1.410 . S
C1315 C1323 1.503 . S
C1316 C1315 1.410 . S
C1316 C1317 1.392 . S
C1316 C1319 1.511 . S
C1317 C1313 1.376 . S
C1317 C1316 1.392 . S
C1317 H1329 0.929 . S
C1318 C1314 1.531 . S
C1318 H1330 0.960 . S
C1318 H1331 0.962 . S
C1318 H1332 0.960 . S
C1319 C1316 1.511 . S
C1319 H1333 0.961 . S
C1319 H1334 0.961 . S
C1319 H1335 0.961 . S
C1320 C1321 1.370 . S
C1320 C1322 1.363 . S
C1320 H1336 0.931 . S
C1321 C1320 1.370 . S
C1321 C1325 1.408 . S
C1322 C1320 1.363 . S
C1322 C1323 1.370 . S
C1322 C1326 1.524 . S
C1323 C1315 1.503 . S
C1323 C1322 1.370 . S
C1323 C1324 1.403 . S
C1324 C1323 1.403 . S
C1324 C1325 1.404 . S
C1324 C1327 1.539 . S
C1325 C1321 1.408 . S
C1325 C1324 1.404 . S
C1325 H1337 0.930 . S
C1326 C1322 1.524 . S
C1326 H1338 0.956 . S
C1326 H1339 0.961 . S
C1326 H1340 0.961 . S
C1327 C1324 1.539 . S
C1327 H1341 0.958 . S
C1327 H1342 0.961 . S
C1327 H1343 0.960 . S
H1328 C1312 0.931 . S
H1329 C1317 0.929 . S
H1330 C1318 0.960 . S
H1331 C1318 0.962 . S
H1332 C1318 0.960 . S
H1333 C1319 0.961 . S
H1334 C1319 0.961 . S
H1335 C1319 0.961 . S
H1336 C1320 0.931 . S
H1337 C1325 0.930 . S
H1338 C1326 0.956 . S
H1339 C1326 0.961 . S
H1340 C1326 0.961 . S
H1341 C1327 0.958 . S
H1342 C1327 0.961 . S
H1343 C1327 0.960 . S
C1344 C1345 1.391 . S
C1344 C1346 1.394 . S
C1344 H1360 0.931 . S
C1345 C1344 1.391 . S
C1345 C1349 1.376 . S
C1346 C1344 1.394 . S
C1346 C1347 1.369 . S
C1346 C1350 1.531 . S
C1347 C1346 1.369 . S
C1347 C1348 1.410 . S
C1347 C1355 1.503 1_655 S
C1348 C1347 1.410 . S
C1348 C1349 1.392 . S
C1348 C1351 1.511 . S
C1349 C1345 1.376 . S
C1349 C1348 1.392 . S
C1349 H1361 0.929 . S
C1350 C1346 1.531 . S
C1350 H1362 0.960 1_655 S
C1350 H1363 0.962 . S
C1350 H1364 0.960 . S
C1351 C1348 1.511 . S
C1351 H1365 0.961 . S
C1351 H1366 0.961 1_655 S
C1351 H1367 0.961 . S
C1352 C1353 1.370 . S
C1352 C1354 1.363 . S
C1352 H1368 0.931 . S
C1353 C1352 1.370 . S
C1353 C1357 1.408 . S
C1354 C1352 1.363 . S
C1354 C1355 1.370 . S
C1354 C1358 1.524 . S
C1355 C1347 1.503 1_455 S
C1355 C1354 1.370 . S
C1355 C1356 1.403 . S
C1356 C1355 1.403 . S
C1356 C1357 1.404 . S
C1356 C1359 1.539 . S
C1357 C1353 1.408 . S
C1357 C1356 1.404 . S
C1357 H1369 0.930 . S
C1358 C1354 1.524 . S
C1358 H1370 0.956 . S
C1358 H1371 0.961 1_455 S
C1358 H1372 0.961 . S
C1359 C1356 1.539 . S
C1359 H1373 0.958 . S
C1359 H1374 0.961 . S
C1359 H1375 0.971 . S
H1360 C1344 0.931 . S
H1361 C1349 0.929 . S
H1362 C1350 0.960 1_455 S
H1363 C1350 0.962 . S
H1364 C1350 0.960 . S
H1365 C1351 0.961 . S
H1366 C1351 0.961 1_455 S
H1367 C1351 0.961 . S
H1368 C1352 0.931 . S
H1369 C1357 0.930 . S
H1370 C1358 0.956 . S
H1371 C1358 0.961 1_655 S
H1372 C1358 0.961 . S
H1373 C1359 0.958 . S
H1374 C1359 0.961 . S
H1375 C1359 0.971 . S
C1376 C1377 1.391 . S
C1376 C1378 1.394 . S
C1376 H1392 0.931 . S
C1377 C1376 1.391 . S
C1377 C1381 1.376 . S
C1378 C1376 1.394 . S
C1378 C1379 1.369 . S
C1378 C1382 1.531 . S
C1379 C1378 1.369 . S
C1379 C1380 1.410 . S
C1379 C1387 1.503 . S
C1380 C1379 1.410 . S
C1380 C1381 1.392 . S
C1380 C1383 1.511 . S
C1381 C1377 1.376 . S
C1381 C1380 1.392 . S
C1381 H1393 0.929 . S
C1382 C1378 1.531 . S
C1382 H1394 0.960 . S
C1382 H1395 0.962 . S
C1382 H1396 0.960 . S
C1383 C1380 1.511 . S
C1383 H1397 0.961 . S
C1383 H1398 0.961 . S
C1383 H1399 0.961 . S
C1384 C1385 1.370 . S
C1384 C1386 1.363 . S
C1384 H1400 0.931 . S
C1385 C1384 1.370 . S
C1385 C1389 1.408 . S
C1386 C1384 1.363 . S
C1386 C1387 1.370 . S
C1386 C1390 1.524 . S
C1387 C1379 1.503 . S
C1387 C1386 1.370 . S
C1387 C1388 1.403 . S
C1388 C1387 1.403 . S
C1388 C1389 1.404 . S
C1388 C1391 1.539 . S
C1389 C1385 1.408 . S
C1389 C1388 1.404 . S
C1389 H1401 0.930 . S
C1390 C1386 1.524 . S
C1390 H1402 0.956 . S
C1390 H1403 0.961 . S
C1390 H1404 0.961 . S
C1391 C1388 1.539 . S
C1391 H1405 0.958 . S
C1391 H1406 0.961 . S
C1391 H1407 0.960 . S
H1392 C1376 0.931 . S
H1393 C1381 0.929 . S
H1394 C1382 0.960 . S
H1395 C1382 0.962 . S
H1396 C1382 0.960 . S
H1397 C1383 0.961 . S
H1398 C1383 0.961 . S
H1399 C1383 0.961 . S
H1400 C1384 0.931 . S
H1401 C1389 0.930 . S
H1402 C1390 0.956 . S
H1403 C1390 0.961 . S
H1404 C1390 0.961 . S
H1405 C1391 0.958 . S
H1406 C1391 0.961 . S
H1407 C1391 0.960 . S
C1408 C1409 1.391 . S
C1408 C1410 1.394 . S
C1408 H1424 0.931 . S
C1409 C1408 1.391 . S
C1409 C1413 1.376 . S
C1410 C1408 1.394 . S
C1410 C1411 1.369 . S
C1410 C1414 1.531 . S
C1411 C1410 1.369 . S
C1411 C1412 1.410 . S
C1411 C1419 1.503 1_455 S
C1412 C1411 1.410 . S
C1412 C1413 1.392 . S
C1412 C1415 1.511 . S
C1413 C1409 1.376 . S
C1413 C1412 1.392 . S
C1413 H1425 0.929 . S
C1414 C1410 1.531 . S
C1414 H1426 0.960 1_455 S
C1414 H1427 0.962 . S
C1414 H1428 0.960 . S
C1415 C1412 1.511 . S
C1415 H1429 0.961 . S
C1415 H1430 0.961 1_455 S
C1415 H1431 0.961 . S
C1416 C1417 1.370 . S
C1416 C1418 1.363 . S
C1416 H1432 0.931 . S
C1417 C1416 1.370 . S
C1417 C1421 1.408 . S
C1418 C1416 1.363 . S
C1418 C1419 1.370 . S
C1418 C1422 1.524 . S
C1419 C1411 1.503 1_655 S
C1419 C1418 1.370 . S
C1419 C1420 1.403 . S
C1420 C1419 1.403 . S
C1420 C1421 1.404 . S
C1420 C1423 1.539 . S
C1421 C1417 1.408 . S
C1421 C1420 1.404 . S
C1421 H1433 0.930 . S
C1422 C1418 1.524 . S
C1422 H1434 0.956 . S
C1422 H1435 0.961 1_655 S
C1422 H1436 0.961 . S
C1423 C1420 1.539 . S
C1423 H1437 0.958 . S
C1423 H1438 0.961 . S
C1423 H1439 0.971 . S
H1424 C1408 0.931 . S
H1425 C1413 0.929 . S
H1426 C1414 0.960 1_655 S
H1427 C1414 0.962 . S
H1428 C1414 0.960 . S
H1429 C1415 0.961 . S
H1430 C1415 0.961 1_655 S
H1431 C1415 0.961 . S
H1432 C1416 0.931 . S
H1433 C1421 0.930 . S
H1434 C1422 0.956 . S
H1435 C1422 0.961 1_455 S
H1436 C1422 0.961 . S
H1437 C1423 0.958 . S
H1438 C1423 0.961 . S
H1439 C1423 0.971 . S
C1440 C1441 1.391 . S
C1440 C1442 1.394 1_556 S
C1440 H1456 0.931 . S
C1441 C1440 1.391 . S
C1441 C1445 1.376 . S
C1442 C1440 1.394 1_554 S
C1442 C1443 1.369 1_554 S
C1442 C1446 1.531 . S
C1443 C1442 1.369 1_556 S
C1443 C1444 1.410 . S
C1443 C1451 1.503 1_556 S
C1444 C1443 1.410 . S
C1444 C1445 1.392 . S
C1444 C1447 1.511 . S
C1445 C1441 1.376 . S
C1445 C1444 1.392 . S
C1445 H1457 0.929 . S
C1446 C1442 1.531 . S
C1446 H1458 0.960 . S
C1446 H1459 0.962 . S
C1446 H1460 0.960 . S
C1447 C1444 1.511 . S
C1447 H1461 0.961 . S
C1447 H1462 0.961 . S
C1447 H1463 0.961 . S
C1448 C1449 1.370 . S
C1448 C1450 1.363 . S
C1448 H1464 0.931 . S
C1449 C1448 1.370 . S
C1449 C1453 1.408 . S
C1450 C1448 1.363 . S
C1450 C1451 1.370 . S
C1450 C1454 1.524 1_554 S
C1451 C1443 1.503 1_554 S
C1451 C1450 1.370 . S
C1451 C1452 1.403 . S
C1452 C1451 1.403 . S
C1452 C1453 1.404 . S
C1452 C1455 1.539 . S
C1453 C1449 1.408 . S
C1453 C1452 1.404 . S
C1453 H1465 0.930 . S
C1454 C1450 1.524 1_556 S
C1454 H1466 0.956 . S
C1454 H1467 0.961 . S
C1454 H1468 0.961 . S
C1455 C1452 1.539 . S
C1455 H1469 0.958 . S
C1455 H1470 0.961 . S
C1455 H1471 0.960 . S
H1456 C1440 0.931 . S
H1457 C1445 0.929 . S
H1458 C1446 0.960 . S
H1459 C1446 0.962 . S
H1460 C1446 0.960 . S
H1461 C1447 0.961 . S
H1462 C1447 0.961 . S
H1463 C1447 0.961 . S
H1464 C1448 0.931 . S
H1465 C1453 0.930 . S
H1466 C1454 0.956 . S
H1467 C1454 0.961 . S
H1468 C1454 0.961 . S
H1469 C1455 0.958 . S
H1470 C1455 0.961 . S
H1471 C1455 0.960 . S
C1472 C1473 1.391 . S
C1472 C1474 1.394 . S
C1472 H1488 0.931 . S
C1473 C1472 1.391 . S
C1473 C1477 1.376 . S
C1474 C1472 1.394 . S
C1474 C1475 1.369 . S
C1474 C1478 1.531 . S
C1475 C1474 1.369 . S
C1475 C1476 1.410 . S
C1475 C1483 1.503 . S
C1476 C1475 1.410 . S
C1476 C1477 1.392 . S
C1476 C1479 1.511 . S
C1477 C1473 1.376 . S
C1477 C1476 1.392 . S
C1477 H1489 0.929 . S
C1478 C1474 1.531 . S
C1478 H1490 0.960 . S
C1478 H1491 0.962 . S
C1478 H1492 0.960 . S
C1479 C1476 1.511 . S
C1479 H1493 0.961 . S
C1479 H1494 0.961 . S
C1479 H1495 0.961 . S
C1480 C1481 1.370 . S
C1480 C1482 1.363 . S
C1480 H1496 0.931 . S
C1481 C1480 1.370 . S
C1481 C1485 1.408 . S
C1482 C1480 1.363 . S
C1482 C1483 1.370 . S
C1482 C1486 1.524 . S
C1483 C1475 1.503 . S
C1483 C1482 1.370 . S
C1483 C1484 1.403 . S
C1484 C1483 1.403 . S
C1484 C1485 1.404 . S
C1484 C1487 1.539 . S
C1485 C1481 1.408 . S
C1485 C1484 1.404 . S
C1485 H1497 0.930 . S
C1486 C1482 1.524 . S
C1486 H1498 0.956 . S
C1486 H1499 0.961 . S
C1486 H1500 0.961 . S
C1487 C1484 1.539 . S
C1487 H1501 0.958 . S
C1487 H1502 0.961 . S
C1487 H1503 0.960 . S
H1488 C1472 0.931 . S
H1489 C1477 0.929 . S
H1490 C1478 0.960 . S
H1491 C1478 0.962 . S
H1492 C1478 0.960 . S
H1493 C1479 0.961 . S
H1494 C1479 0.961 . S
H1495 C1479 0.961 . S
H1496 C1480 0.931 . S
H1497 C1485 0.930 . S
H1498 C1486 0.956 . S
H1499 C1486 0.961 . S
H1500 C1486 0.961 . S
H1501 C1487 0.958 . S
H1502 C1487 0.961 . S
H1503 C1487 0.960 . S
C1504 C1505 1.391 . S
C1504 C1506 1.394 . S
C1504 H1520 0.931 . S
C1505 C1504 1.391 . S
C1505 C1509 1.376 . S
C1506 C1504 1.394 . S
C1506 C1507 1.369 . S
C1506 C1510 1.531 . S
C1507 C1506 1.369 . S
C1507 C1508 1.410 . S
C1507 C1515 1.503 . S
C1508 C1507 1.410 . S
C1508 C1509 1.392 . S
C1508 C1511 1.511 . S
C1509 C1505 1.376 . S
C1509 C1508 1.392 . S
C1509 H1521 0.929 . S
C1510 C1506 1.531 . S
C1510 H1522 0.960 . S
C1510 H1523 0.962 . S
C1510 H1524 0.960 . S
C1511 C1508 1.511 . S
C1511 H1525 0.961 . S
C1511 H1526 0.961 . S
C1511 H1527 0.961 . S
C1512 C1513 1.370 . S
C1512 C1514 1.363 . S
C1512 H1528 0.931 . S
C1513 C1512 1.370 . S
C1513 C1517 1.408 . S
C1514 C1512 1.363 . S
C1514 C1515 1.370 . S
C1514 C1518 1.524 . S
C1515 C1507 1.503 . S
C1515 C1514 1.370 . S
C1515 C1516 1.403 . S
C1516 C1515 1.403 . S
C1516 C1517 1.404 . S
C1516 C1519 1.539 . S
C1517 C1513 1.408 . S
C1517 C1516 1.404 . S
C1517 H1529 0.930 . S
C1518 C1514 1.524 . S
C1518 H1530 0.956 . S
C1518 H1531 0.961 . S
C1518 H1532 0.961 . S
C1519 C1516 1.539 . S
C1519 H1533 0.958 . S
C1519 H1534 0.961 . S
C1519 H1535 0.960 . S
H1520 C1504 0.931 . S
H1521 C1509 0.929 . S
H1522 C1510 0.960 . S
H1523 C1510 0.962 . S
H1524 C1510 0.960 . S
H1525 C1511 0.961 . S
H1526 C1511 0.961 . S
H1527 C1511 0.961 . S
H1528 C1512 0.931 . S
H1529 C1517 0.930 . S
H1530 C1518 0.956 . S
H1531 C1518 0.961 . S
H1532 C1518 0.961 . S
H1533 C1519 0.958 . S
H1534 C1519 0.961 . S
H1535 C1519 0.960 . S
C1536 C1537 1.391 . S
C1536 C1538 1.394 . S
C1536 H1552 0.931 . S
C1537 C1536 1.391 . S
C1537 C1541 1.376 . S
C1538 C1536 1.394 . S
C1538 C1539 1.369 . S
C1538 C1542 1.531 . S
C1539 C1538 1.369 . S
C1539 C1540 1.410 . S
C1539 C1547 1.503 . S
C1540 C1539 1.410 . S
C1540 C1541 1.392 . S
C1540 C1543 1.511 . S
C1541 C1537 1.376 . S
C1541 C1540 1.392 . S
C1541 H1553 0.929 . S
C1542 C1538 1.531 . S
C1542 H1554 0.960 . S
C1542 H1555 0.962 . S
C1542 H1556 0.960 . S
C1543 C1540 1.511 . S
C1543 H1557 0.961 . S
C1543 H1558 0.961 . S
C1543 H1559 0.961 . S
C1544 C1545 1.370 . S
C1544 C1546 1.363 . S
C1544 H1560 0.931 . S
C1545 C1544 1.370 . S
C1545 C1549 1.408 . S
C1546 C1544 1.363 . S
C1546 C1547 1.370 . S
C1546 C1550 1.524 . S
C1547 C1539 1.503 . S
C1547 C1546 1.370 . S
C1547 C1548 1.403 . S
C1548 C1547 1.403 . S
C1548 C1549 1.404 . S
C1548 C1551 1.539 . S
C1549 C1545 1.408 . S
C1549 C1548 1.404 . S
C1549 H1561 0.930 . S
C1550 C1546 1.524 . S
C1550 H1562 0.956 . S
C1550 H1563 0.961 . S
C1550 H1564 0.961 . S
C1551 C1548 1.539 . S
C1551 H1565 0.958 . S
C1551 H1566 0.961 . S
C1551 H1567 0.960 . S
H1552 C1536 0.931 . S
H1553 C1541 0.929 . S
H1554 C1542 0.960 . S
H1555 C1542 0.962 . S
H1556 C1542 0.960 . S
H1557 C1543 0.961 . S
H1558 C1543 0.961 . S
H1559 C1543 0.961 . S
H1560 C1544 0.931 . S
H1561 C1549 0.930 . S
H1562 C1550 0.956 . S
H1563 C1550 0.961 . S
H1564 C1550 0.961 . S
H1565 C1551 0.958 . S
H1566 C1551 0.961 . S
H1567 C1551 0.960 . S
C1568 C1569 1.391 . S
C1568 C1570 1.394 . S
C1568 H1584 0.931 . S
C1569 C1568 1.391 . S
C1569 C1573 1.376 . S
C1570 C1568 1.394 . S
C1570 C1571 1.369 . S
C1570 C1574 1.531 . S
C1571 C1570 1.369 . S
C1571 C1572 1.410 . S
C1571 C1579 1.503 1_554 S
C1572 C1571 1.410 . S
C1572 C1573 1.392 . S
C1572 C1575 1.511 1_554 S
C1573 C1569 1.376 . S
C1573 C1572 1.392 . S
C1573 H1585 0.929 . S
C1574 C1570 1.531 . S
C1574 H1586 0.960 . S
C1574 H1587 0.962 . S
C1574 H1588 0.960 . S
C1575 C1572 1.511 1_556 S
C1575 H1589 0.961 . S
C1575 H1590 0.961 . S
C1575 H1591 0.961 1_556 S
C1576 C1577 1.370 . S
C1576 C1578 1.363 . S
C1576 H1592 0.931 . S
C1577 C1576 1.370 . S
C1577 C1581 1.408 . S
C1578 C1576 1.363 . S
C1578 C1579 1.370 . S
C1578 C1582 1.524 . S
C1579 C1571 1.503 1_556 S
C1579 C1578 1.370 . S
C1579 C1580 1.403 1_556 S
C1580 C1579 1.403 1_554 S
C1580 C1581 1.404 1_554 S
C1580 C1583 1.539 . S
C1581 C1577 1.408 . S
C1581 C1580 1.404 1_556 S
C1581 H1593 0.930 . S
C1582 C1578 1.524 . S
C1582 H1594 0.956 . S
C1582 H1595 0.961 . S
C1582 H1596 0.961 . S
C1583 C1580 1.539 . S
C1583 H1597 0.958 . S
C1583 H1598 0.961 . S
C1583 H1599 0.960 . S
H1584 C1568 0.931 . S
H1585 C1573 0.929 . S
H1586 C1574 0.960 . S
H1587 C1574 0.962 . S
H1588 C1574 0.960 . S
H1589 C1575 0.961 . S
H1590 C1575 0.961 . S
H1591 C1575 0.961 1_554 S
H1592 C1576 0.931 . S
H1593 C1581 0.930 . S
H1594 C1582 0.956 . S
H1595 C1582 0.961 . S
H1596 C1582 0.961 . S
H1597 C1583 0.958 . S
H1598 C1583 0.961 . S
H1599 C1583 0.960 . S
C1600 C1601 1.391 . S
C1600 C1602 1.394 . S
C1600 H1616 0.931 . S
C1601 C1600 1.391 . S
C1601 C1605 1.376 . S
C1602 C1600 1.394 . S
C1602 C1603 1.369 . S
C1602 C1606 1.531 . S
C1603 C1602 1.369 . S
C1603 C1604 1.410 . S
C1603 C1611 1.503 . S
C1604 C1603 1.410 . S
C1604 C1605 1.392 . S
C1604 C1607 1.511 . S
C1605 C1601 1.376 . S
C1605 C1604 1.392 . S
C1605 H1617 0.929 . S
C1606 C1602 1.531 . S
C1606 H1618 0.960 . S
C1606 H1619 0.962 . S
C1606 H1620 0.960 . S
C1607 C1604 1.511 . S
C1607 H1621 0.961 . S
C1607 H1622 0.961 . S
C1607 H1623 0.961 . S
C1608 C1609 1.370 . S
C1608 C1610 1.363 . S
C1608 H1624 0.931 . S
C1609 C1608 1.370 . S
C1609 C1613 1.408 . S
C1610 C1608 1.363 . S
C1610 C1611 1.370 . S
C1610 C1614 1.524 . S
C1611 C1603 1.503 . S
C1611 C1610 1.370 . S
C1611 C1612 1.403 . S
C1612 C1611 1.403 . S
C1612 C1613 1.404 . S
C1612 C1615 1.539 . S
C1613 C1609 1.408 . S
C1613 C1612 1.404 . S
C1613 H1625 0.930 . S
C1614 C1610 1.524 . S
C1614 H1626 0.956 . S
C1614 H1627 0.961 . S
C1614 H1628 0.961 . S
C1615 C1612 1.539 . S
C1615 H1629 0.958 . S
C1615 H1630 0.961 . S
C1615 H1631 0.960 . S
H1616 C1600 0.931 . S
H1617 C1605 0.929 . S
H1618 C1606 0.960 . S
H1619 C1606 0.962 . S
H1620 C1606 0.960 . S
H1621 C1607 0.961 . S
H1622 C1607 0.961 . S
H1623 C1607 0.961 . S
H1624 C1608 0.931 . S
H1625 C1613 0.930 . S
H1626 C1614 0.956 . S
H1627 C1614 0.961 . S
H1628 C1614 0.961 . S
H1629 C1615 0.958 . S
H1630 C1615 0.961 . S
H1631 C1615 0.960 . S
C1632 C1633 1.391 . S
C1632 C1634 1.394 . S
C1632 H1648 0.931 . S
C1633 C1632 1.391 . S
C1633 C1637 1.376 . S
C1634 C1632 1.394 . S
C1634 C1635 1.369 . S
C1634 C1638 1.531 . S
C1635 C1634 1.369 . S
C1635 C1636 1.410 . S
C1635 C1643 1.503 . S
C1636 C1635 1.410 . S
C1636 C1637 1.392 . S
C1636 C1639 1.511 . S
C1637 C1633 1.376 . S
C1637 C1636 1.392 . S
C1637 H1649 0.929 . S
C1638 C1634 1.531 . S
C1638 H1650 0.960 . S
C1638 H1651 0.962 . S
C1638 H1652 0.960 . S
C1639 C1636 1.511 . S
C1639 H1653 0.961 . S
C1639 H1654 0.961 . S
C1639 H1655 0.961 . S
C1640 C1641 1.370 . S
C1640 C1642 1.363 . S
C1640 H1656 0.931 . S
C1641 C1640 1.370 . S
C1641 C1645 1.408 . S
C1642 C1640 1.363 . S
C1642 C1643 1.370 . S
C1642 C1646 1.524 . S
C1643 C1635 1.503 . S
C1643 C1642 1.370 . S
C1643 C1644 1.403 . S
C1644 C1643 1.403 . S
C1644 C1645 1.404 . S
C1644 C1647 1.539 . S
C1645 C1641 1.408 . S
C1645 C1644 1.404 . S
C1645 H1657 0.930 . S
C1646 C1642 1.524 . S
C1646 H1658 0.956 . S
C1646 H1659 0.961 . S
C1646 H1660 0.961 . S
C1647 C1644 1.539 . S
C1647 H1661 0.958 . S
C1647 H1662 0.961 . S
C1647 H1663 0.960 . S
H1648 C1632 0.931 . S
H1649 C1637 0.929 . S
H1650 C1638 0.960 . S
H1651 C1638 0.962 . S
H1652 C1638 0.960 . S
H1653 C1639 0.961 . S
H1654 C1639 0.961 . S
H1655 C1639 0.961 . S
H1656 C1640 0.931 . S
H1657 C1645 0.930 . S
H1658 C1646 0.956 . S
H1659 C1646 0.961 . S
H1660 C1646 0.961 . S
H1661 C1647 0.958 . S
H1662 C1647 0.961 . S
H1663 C1647 0.960 . S
C1664 C1665 1.391 . S
C1664 C1666 1.394 . S
C1664 H1680 0.931 . S
C1665 C1664 1.391 . S
C1665 C1669 1.376 . S
C1666 C1664 1.394 . S
C1666 C1667 1.369 . S
C1666 C1670 1.531 . S
C1667 C1666 1.369 . S
C1667 C1668 1.410 . S
C1667 C1675 1.503 . S
C1668 C1667 1.410 . S
C1668 C1669 1.392 . S
C1668 C1671 1.511 . S
C1669 C1665 1.376 . S
C1669 C1668 1.392 . S
C1669 H1681 0.929 . S
C1670 C1666 1.531 . S
C1670 H1682 0.960 . S
C1670 H1683 0.962 . S
C1670 H1684 0.960 . S
C1671 C1668 1.511 . S
C1671 H1685 0.961 . S
C1671 H1686 0.961 . S
C1671 H1687 0.961 . S
C1672 C1673 1.370 . S
C1672 C1674 1.363 . S
C1672 H1688 0.931 . S
C1673 C1672 1.370 . S
C1673 C1677 1.408 . S
C1674 C1672 1.363 . S
C1674 C1675 1.370 . S
C1674 C1678 1.524 . S
C1675 C1667 1.503 . S
C1675 C1674 1.370 . S
C1675 C1676 1.403 . S
C1676 C1675 1.403 . S
C1676 C1677 1.404 . S
C1676 C1679 1.539 . S
C1677 C1673 1.408 . S
C1677 C1676 1.404 . S
C1677 H1689 0.930 . S
C1678 C1674 1.524 . S
C1678 H1690 0.956 . S
C1678 H1691 0.961 . S
C1678 H1692 0.961 . S
C1679 C1676 1.539 . S
C1679 H1693 0.958 . S
C1679 H1694 0.961 . S
C1679 H1695 0.960 . S
H1680 C1664 0.931 . S
H1681 C1669 0.929 . S
H1682 C1670 0.960 . S
H1683 C1670 0.962 . S
H1684 C1670 0.960 . S
H1685 C1671 0.961 . S
H1686 C1671 0.961 . S
H1687 C1671 0.961 . S
H1688 C1672 0.931 . S
H1689 C1677 0.930 . S
H1690 C1678 0.956 . S
H1691 C1678 0.961 . S
H1692 C1678 0.961 . S
H1693 C1679 0.958 . S
H1694 C1679 0.961 . S
H1695 C1679 0.960 . S
C1696 C1697 1.391 . S
C1696 C1698 1.394 . S
C1696 H1712 0.931 . S
C1697 C1696 1.391 . S
C1697 C1701 1.376 . S
C1698 C1696 1.394 . S
C1698 C1699 1.369 . S
C1698 C1702 1.531 . S
C1699 C1698 1.369 . S
C1699 C1700 1.410 . S
C1699 C1707 1.503 1_545 S
C1700 C1699 1.410 . S
C1700 C1701 1.392 . S
C1700 C1703 1.511 . S
C1701 C1697 1.376 . S
C1701 C1700 1.392 . S
C1701 H1713 0.929 . S
C1702 C1698 1.531 . S
C1702 H1714 0.960 . S
C1702 H1715 0.962 . S
C1702 H1716 0.960 . S
C1703 C1700 1.511 . S
C1703 H1717 0.961 . S
C1703 H1718 0.961 1_545 S
C1703 H1719 0.961 . S
C1704 C1705 1.370 . S
C1704 C1706 1.363 . S
C1704 H1720 0.931 . S
C1705 C1704 1.370 . S
C1705 C1709 1.408 . S
C1706 C1704 1.363 . S
C1706 C1707 1.370 . S
C1706 C1710 1.524 . S
C1707 C1699 1.503 1_565 S
C1707 C1706 1.370 . S
C1707 C1708 1.403 . S
C1708 C1707 1.403 . S
C1708 C1709 1.404 . S
C1708 C1711 1.539 1_565 S
C1709 C1705 1.408 . S
C1709 C1708 1.404 . S
C1709 H1721 0.930 . S
C1710 C1706 1.524 . S
C1710 H1722 0.956 . S
C1710 H1723 0.961 . S
C1710 H1724 0.961 . S
C1711 C1708 1.539 1_545 S
C1711 H1725 0.958 . S
C1711 H1726 0.961 . S
C1711 H1727 0.960 . S
H1712 C1696 0.931 . S
H1713 C1701 0.929 . S
H1714 C1702 0.960 . S
H1715 C1702 0.962 . S
H1716 C1702 0.960 . S
H1717 C1703 0.961 . S
H1718 C1703 0.961 1_565 S
H1719 C1703 0.961 . S
H1720 C1704 0.931 . S
H1721 C1709 0.930 . S
H1722 C1710 0.956 . S
H1723 C1710 0.961 . S
H1724 C1710 0.961 . S
H1725 C1711 0.958 . S
H1726 C1711 0.961 . S
H1727 C1711 0.960 . S
C1728 C1729 1.391 . S
C1728 C1730 1.394 . S
C1728 H1744 0.931 . S
C1729 C1728 1.391 . S
C1729 C1733 1.376 . S
C1730 C1728 1.394 . S
C1730 C1731 1.369 . S
C1730 C1734 1.531 . S
C1731 C1730 1.369 . S
C1731 C1732 1.410 . S
C1731 C1739 1.503 . S
C1732 C1731 1.410 . S
C1732 C1733 1.392 . S
C1732 C1735 1.511 . S
C1733 C1729 1.376 . S
C1733 C1732 1.392 . S
C1733 H1745 0.929 . S
C1734 C1730 1.531 . S
C1734 H1746 0.960 . S
C1734 H1747 0.962 . S
C1734 H1748 0.960 . S
C1735 C1732 1.511 . S
C1735 H1749 0.961 . S
C1735 H1750 0.961 . S
C1735 H1751 0.961 . S
C1736 C1737 1.370 . S
C1736 C1738 1.363 . S
C1736 H1752 0.931 . S
C1737 C1736 1.370 . S
C1737 C1741 1.408 . S
C1738 C1736 1.363 . S
C1738 C1739 1.370 . S
C1738 C1742 1.524 . S
C1739 C1731 1.503 . S
C1739 C1738 1.370 . S
C1739 C1740 1.403 . S
C1740 C1739 1.403 . S
C1740 C1741 1.404 . S
C1740 C1743 1.539 . S
C1741 C1737 1.408 . S
C1741 C1740 1.404 . S
C1741 H1753 0.930 . S
C1742 C1738 1.524 . S
C1742 H1754 0.956 . S
C1742 H1755 0.961 . S
C1742 H1756 0.961 . S
C1743 C1740 1.539 . S
C1743 H1757 0.958 . S
C1743 H1758 0.961 . S
C1743 H1759 0.960 . S
H1744 C1728 0.931 . S
H1745 C1733 0.929 . S
H1746 C1734 0.960 . S
H1747 C1734 0.962 . S
H1748 C1734 0.960 . S
H1749 C1735 0.961 . S
H1750 C1735 0.961 . S
H1751 C1735 0.961 . S
H1752 C1736 0.931 . S
H1753 C1741 0.930 . S
H1754 C1742 0.956 . S
H1755 C1742 0.961 . S
H1756 C1742 0.961 . S
H1757 C1743 0.958 . S
H1758 C1743 0.961 . S
H1759 C1743 0.960 . S
C1760 C1761 1.391 . S
C1760 C1762 1.394 . S
C1760 H1776 0.931 . S
C1761 C1760 1.391 . S
C1761 C1765 1.376 . S
C1762 C1760 1.394 . S
C1762 C1763 1.369 . S
C1762 C1766 1.531 1_554 S
C1763 C1762 1.369 . S
C1763 C1764 1.410 . S
C1763 C1771 1.503 1_564 S
C1764 C1763 1.410 . S
C1764 C1765 1.392 . S
C1764 C1767 1.509 . S
C1765 C1761 1.376 . S
C1765 C1764 1.392 . S
C1765 H1777 0.929 . S
C1766 C1762 1.531 1_556 S
C1766 H1778 0.960 . S
C1766 H1779 0.962 . S
C1766 H1780 0.960 . S
C1767 C1764 1.509 . S
C1767 H1781 0.961 . S
C1767 H1782 0.964 1_565 S
C1767 H1783 0.960 . S
C1768 C1769 1.370 . S
C1768 C1770 1.403 . S
C1768 H1784 0.931 . S
C1769 C1768 1.370 . S
C1769 C1773 1.408 . S
C1770 C1768 1.403 . S
C1770 C1771 1.399 . S
C1770 C1774 1.459 1_556 S
C1771 C1763 1.503 1_546 S
C1771 C1770 1.399 . S
C1771 C1772 1.403 . S
C1772 C1771 1.403 . S
C1772 C1773 1.404 . S
C1772 C1775 1.539 1_545 S
C1773 C1769 1.408 . S
C1773 C1772 1.404 . S
C1773 H1785 0.930 . S
C1774 C1770 1.459 1_554 S
C1774 H1786 0.956 . S
C1774 H1787 0.961 . S
C1774 H1788 0.961 . S
C1775 C1772 1.539 1_565 S
C1775 H1789 0.958 . S
C1775 H1790 0.961 . S
C1775 H1791 0.960 . S
H1776 C1760 0.931 . S
H1777 C1765 0.929 . S
H1778 C1766 0.960 . S
H1779 C1766 0.962 . S
H1780 C1766 0.960 . S
H1781 C1767 0.961 . S
H1782 C1767 0.964 1_545 S
H1783 C1767 0.960 . S
H1784 C1768 0.931 . S
H1785 C1773 0.930 . S
H1786 C1774 0.956 . S
H1787 C1774 0.961 . S
H1788 C1774 0.961 . S
H1789 C1775 0.958 . S
H1790 C1775 0.961 . S
H1791 C1775 0.960 . S
C1792 C1793 1.391 . S
C1792 C1794 1.394 . S
C1792 H1808 0.931 . S
C1793 C1792 1.391 . S
C1793 C1797 1.376 . S
C1794 C1792 1.394 . S
C1794 C1795 1.369 . S
C1794 C1798 1.531 . S
C1795 C1794 1.369 . S
C1795 C1796 1.410 . S
C1795 C1803 1.503 . S
C1796 C1795 1.410 . S
C1796 C1797 1.392 . S
C1796 C1799 1.511 . S
C1797 C1793 1.376 . S
C1797 C1796 1.392 . S
C1797 H1809 0.929 . S
C1798 C1794 1.531 . S
C1798 H1810 0.960 . S
C1798 H1811 0.962 . S
C1798 H1812 0.960 . S
C1799 C1796 1.511 . S
C1799 H1813 0.961 . S
C1799 H1814 0.961 . S
C1799 H1815 0.961 . S
C1800 C1801 1.370 . S
C1800 C1802 1.363 . S
C1800 H1816 0.931 . S
C1801 C1800 1.370 . S
C1801 C1805 1.408 . S
C1802 C1800 1.363 . S
C1802 C1803 1.370 . S
C1802 C1806 1.524 . S
C1803 C1795 1.503 . S
C1803 C1802 1.370 . S
C1803 C1804 1.403 . S
C1804 C1803 1.403 . S
C1804 C1805 1.404 . S
C1804 C1807 1.539 . S
C1805 C1801 1.408 . S
C1805 C1804 1.404 . S
C1805 H1817 0.930 . S
C1806 C1802 1.524 . S
C1806 H1818 0.956 . S
C1806 H1819 0.961 . S
C1806 H1820 0.961 . S
C1807 C1804 1.539 . S
C1807 H1821 0.958 . S
C1807 H1822 0.961 . S
C1807 H1823 0.960 . S
H1808 C1792 0.931 . S
H1809 C1797 0.929 . S
H1810 C1798 0.960 . S
H1811 C1798 0.962 . S
H1812 C1798 0.960 . S
H1813 C1799 0.961 . S
H1814 C1799 0.961 . S
H1815 C1799 0.961 . S
H1816 C1800 0.931 . S
H1817 C1805 0.930 . S
H1818 C1806 0.956 . S
H1819 C1806 0.961 . S
H1820 C1806 0.961 . S
H1821 C1807 0.958 . S
H1822 C1807 0.961 . S
H1823 C1807 0.960 . S
C1824 C1825 1.391 . S
C1824 C1826 1.394 . S
C1824 H1840 0.931 . S
C1825 C1824 1.391 . S
C1825 C1829 1.376 . S
C1826 C1824 1.394 . S
C1826 C1827 1.369 . S
C1826 C1830 1.531 . S
C1827 C1826 1.369 . S
C1827 C1828 1.410 . S
C1827 C1835 1.503 1_545 S
C1828 C1827 1.410 . S
C1828 C1829 1.392 . S
C1828 C1831 1.511 1_545 S
C1829 C1825 1.376 . S
C1829 C1828 1.392 . S
C1829 H1841 0.929 . S
C1830 C1826 1.531 . S
C1830 H1842 0.960 . S
C1830 H1843 0.962 . S
C1830 H1844 0.960 . S
C1831 C1828 1.511 1_565 S
C1831 H1845 0.961 . S
C1831 H1846 0.961 . S
C1831 H1847 0.961 . S
C1832 C1833 1.370 . S
C1832 C1834 1.363 . S
C1832 H1848 0.931 . S
C1833 C1832 1.370 . S
C1833 C1837 1.408 . S
C1834 C1832 1.363 . S
C1834 C1835 1.370 . S
C1834 C1838 1.524 . S
C1835 C1827 1.503 1_565 S
C1835 C1834 1.370 . S
C1835 C1836 1.403 . S
C1836 C1835 1.403 . S
C1836 C1837 1.404 . S
C1836 C1839 1.539 1_565 S
C1837 C1833 1.408 . S
C1837 C1836 1.404 . S
C1837 H1849 0.930 . S
C1838 C1834 1.524 . S
C1838 H1850 0.956 . S
C1838 H1851 0.961 . S
C1838 H1852 0.961 . S
C1839 C1836 1.539 1_545 S
C1839 H1853 0.958 . S
C1839 H1854 0.961 1_545 S
C1839 H1855 0.960 . S
H1840 C1824 0.931 . S
H1841 C1829 0.929 . S
H1842 C1830 0.960 . S
H1843 C1830 0.962 . S
H1844 C1830 0.960 . S
H1845 C1831 0.961 . S
H1846 C1831 0.961 . S
H1847 C1831 0.961 . S
H1848 C1832 0.931 . S
H1849 C1837 0.930 . S
H1850 C1838 0.956 . S
H1851 C1838 0.961 . S
H1852 C1838 0.961 . S
H1853 C1839 0.958 . S
H1854 C1839 0.961 1_565 S
H1855 C1839 0.960 . S
C1856 C1857 1.391 . S
C1856 C1858 1.394 . S
C1856 H1872 0.931 . S
C1857 C1856 1.391 . S
C1857 C1861 1.376 . S
C1858 C1856 1.394 . S
C1858 C1859 1.369 . S
C1858 C1862 1.531 . S
C1859 C1858 1.369 . S
C1859 C1860 1.410 . S
C1859 C1867 1.503 . S
C1860 C1859 1.410 . S
C1860 C1861 1.392 . S
C1860 C1863 1.511 . S
C1861 C1857 1.376 . S
C1861 C1860 1.392 . S
C1861 H1873 0.929 . S
C1862 C1858 1.531 . S
C1862 H1874 0.960 . S
C1862 H1875 0.962 . S
C1862 H1876 0.960 . S
C1863 C1860 1.511 . S
C1863 H1877 0.961 . S
C1863 H1878 0.961 . S
C1863 H1879 0.961 . S
C1864 C1865 1.370 . S
C1864 C1866 1.363 . S
C1864 H1880 0.931 . S
C1865 C1864 1.370 . S
C1865 C1869 1.408 . S
C1866 C1864 1.363 . S
C1866 C1867 1.370 . S
C1866 C1870 1.524 . S
C1867 C1859 1.503 . S
C1867 C1866 1.370 . S
C1867 C1868 1.403 . S
C1868 C1867 1.403 . S
C1868 C1869 1.404 . S
C1868 C1871 1.539 . S
C1869 C1865 1.408 . S
C1869 C1868 1.404 . S
C1869 H1881 0.930 . S
C1870 C1866 1.524 . S
C1870 H1882 0.956 . S
C1870 H1883 0.961 . S
C1870 H1884 0.961 . S
C1871 C1868 1.539 . S
C1871 H1885 0.958 . S
C1871 H1886 0.961 . S
C1871 H1887 0.960 . S
H1872 C1856 0.931 . S
H1873 C1861 0.929 . S
H1874 C1862 0.960 . S
H1875 C1862 0.962 . S
H1876 C1862 0.960 . S
H1877 C1863 0.961 . S
H1878 C1863 0.961 . S
H1879 C1863 0.961 . S
H1880 C1864 0.931 . S
H1881 C1869 0.930 . S
H1882 C1870 0.956 . S
H1883 C1870 0.961 . S
H1884 C1870 0.961 . S
H1885 C1871 0.958 . S
H1886 C1871 0.961 . S
H1887 C1871 0.960 . S
C1888 C1889 1.391 . S
C1888 C1890 1.394 . S
C1888 H1904 0.931 . S
C1889 C1888 1.391 . S
C1889 C1893 1.376 . S
C1890 C1888 1.394 . S
C1890 C1891 1.369 . S
C1890 C1894 1.505 1_554 S
C1891 C1890 1.369 . S
C1891 C1892 1.410 . S
C1891 C1899 1.503 1_564 S
C1892 C1891 1.410 . S
C1892 C1893 1.392 . S
C1892 C1895 1.511 . S
C1893 C1889 1.376 . S
C1893 C1892 1.392 . S
C1893 H1905 0.929 . S
C1894 C1890 1.505 1_556 S
C1894 H1906 1.024 . S
C1894 H1907 0.920 1_556 S
C1894 H1908 0.970 . S
C1895 C1892 1.511 . S
C1895 H1909 0.961 . S
C1895 H1910 0.961 1_565 S
C1895 H1911 0.961 1_554 S
C1896 C1897 1.370 . S
C1896 C1898 1.346 1_556 S
C1896 H1912 0.931 . S
C1897 C1896 1.370 . S
C1897 C1901 1.408 . S
C1898 C1896 1.346 1_554 S
C1898 C1899 1.355 1_554 S
C1898 C1902 1.557 . S
C1899 C1891 1.503 1_546 S
C1899 C1898 1.355 1_556 S
C1899 C1900 1.403 . S
C1900 C1899 1.403 . S
C1900 C1901 1.404 . S
C1900 C1903 1.539 1_545 S
C1901 C1897 1.408 . S
C1901 C1900 1.404 . S
C1901 H1913 0.930 . S
C1902 C1898 1.557 . S
C1902 H1914 0.956 . S
C1902 H1915 0.961 . S
C1902 H1916 0.961 . S
C1903 C1900 1.539 1_565 S
C1903 H1917 0.958 . S
C1903 H1918 0.961 . S
C1903 H1919 0.960 . S
H1904 C1888 0.931 . S
H1905 C1893 0.929 . S
H1906 C1894 1.024 . S
H1907 C1894 0.920 1_554 S
H1908 C1894 0.970 . S
H1909 C1895 0.961 . S
H1910 C1895 0.961 1_545 S
H1911 C1895 0.961 1_556 S
H1912 C1896 0.931 . S
H1913 C1901 0.930 . S
H1914 C1902 0.956 . S
H1915 C1902 0.961 . S
H1916 C1902 0.961 . S
H1917 C1903 0.958 . S
H1918 C1903 0.961 . S
H1919 C1903 0.960 . S
C1920 C1921 1.391 . S
C1920 C1922 1.394 . S
C1920 H1936 0.931 . S
C1921 C1920 1.391 . S
C1921 C1925 1.376 . S
C1922 C1920 1.394 . S
C1922 C1923 1.369 . S
C1922 C1926 1.531 . S
C1923 C1922 1.369 . S
C1923 C1924 1.410 . S
C1923 C1931 1.503 . S
C1924 C1923 1.410 . S
C1924 C1925 1.392 . S
C1924 C1927 1.511 . S
C1925 C1921 1.376 . S
C1925 C1924 1.392 . S
C1925 H1937 0.929 . S
C1926 C1922 1.531 . S
C1926 H1938 0.960 . S
C1926 H1939 0.962 . S
C1926 H1940 0.960 . S
C1927 C1924 1.511 . S
C1927 H1941 0.961 . S
C1927 H1942 0.961 . S
C1927 H1943 0.961 . S
C1928 C1929 1.370 . S
C1928 C1930 1.363 . S
C1928 H1944 0.931 . S
C1929 C1928 1.370 . S
C1929 C1933 1.408 . S
C1930 C1928 1.363 . S
C1930 C1931 1.370 . S
C1930 C1934 1.524 . S
C1931 C1923 1.503 . S
C1931 C1930 1.370 . S
C1931 C1932 1.403 . S
C1932 C1931 1.403 . S
C1932 C1933 1.404 . S
C1932 C1935 1.539 . S
C1933 C1929 1.408 . S
C1933 C1932 1.404 . S
C1933 H1945 0.930 . S
C1934 C1930 1.524 . S
C1934 H1946 0.956 . S
C1934 H1947 0.961 . S
C1934 H1948 0.961 . S
C1935 C1932 1.539 . S
C1935 H1949 0.958 . S
C1935 H1950 0.961 . S
C1935 H1951 0.960 . S
H1936 C1920 0.931 . S
H1937 C1925 0.929 . S
H1938 C1926 0.960 . S
H1939 C1926 0.962 . S
H1940 C1926 0.960 . S
H1941 C1927 0.961 . S
H1942 C1927 0.961 . S
H1943 C1927 0.961 . S
H1944 C1928 0.931 . S
H1945 C1933 0.930 . S
H1946 C1934 0.956 . S
H1947 C1934 0.961 . S
H1948 C1934 0.961 . S
H1949 C1935 0.958 . S
H1950 C1935 0.961 . S
H1951 C1935 0.960 . S
C1952 C1953 1.391 . S
C1952 C1954 1.394 . S
C1952 H1968 0.931 . S
C1953 C1952 1.391 . S
C1953 C1957 1.376 . S
C1954 C1952 1.394 . S
C1954 C1955 1.369 . S
C1954 C1958 1.531 . S
C1955 C1954 1.369 . S
C1955 C1956 1.410 . S
C1955 C1963 1.503 . S
C1956 C1955 1.410 . S
C1956 C1957 1.392 . S
C1956 C1959 1.511 . S
C1957 C1953 1.376 . S
C1957 C1956 1.392 . S
C1957 H1969 0.929 . S
C1958 C1954 1.531 . S
C1958 H1970 0.960 . S
C1958 H1971 0.962 . S
C1958 H1972 0.960 . S
C1959 C1956 1.511 . S
C1959 H1973 0.961 . S
C1959 H1974 0.961 . S
C1959 H1975 0.961 . S
C1960 C1961 1.370 . S
C1960 C1962 1.363 . S
C1960 H1976 0.931 . S
C1961 C1960 1.370 . S
C1961 C1965 1.408 . S
C1962 C1960 1.363 . S
C1962 C1963 1.370 . S
C1962 C1966 1.524 . S
C1963 C1955 1.503 . S
C1963 C1962 1.370 . S
C1963 C1964 1.403 . S
C1964 C1963 1.403 . S
C1964 C1965 1.404 . S
C1964 C1967 1.539 . S
C1965 C1961 1.408 . S
C1965 C1964 1.404 . S
C1965 H1977 0.930 . S
C1966 C1962 1.524 . S
C1966 H1978 0.956 . S
C1966 H1979 0.961 . S
C1966 H1980 0.961 . S
C1967 C1964 1.539 . S
C1967 H1981 0.958 . S
C1967 H1982 0.961 . S
C1967 H1983 0.960 . S
H1968 C1952 0.931 . S
H1969 C1957 0.929 . S
H1970 C1958 0.960 . S
H1971 C1958 0.962 . S
H1972 C1958 0.960 . S
H1973 C1959 0.961 . S
H1974 C1959 0.961 . S
H1975 C1959 0.961 . S
H1976 C1960 0.931 . S
H1977 C1965 0.930 . S
H1978 C1966 0.956 . S
H1979 C1966 0.961 . S
H1980 C1966 0.961 . S
H1981 C1967 0.958 . S
H1982 C1967 0.961 . S
H1983 C1967 0.960 . S
C1984 C1985 1.391 . S
C1984 C1986 1.394 . S
C1984 H2000 0.931 . S
C1985 C1984 1.391 . S
C1985 C1989 1.376 . S
C1986 C1984 1.394 . S
C1986 C1987 1.369 . S
C1986 C1990 1.531 . S
C1987 C1986 1.369 . S
C1987 C1988 1.410 . S
C1987 C1995 1.503 . S
C1988 C1987 1.410 . S
C1988 C1989 1.392 . S
C1988 C1991 1.511 . S
C1989 C1985 1.376 . S
C1989 C1988 1.392 . S
C1989 H2001 0.929 . S
C1990 C1986 1.531 . S
C1990 H2002 0.960 . S
C1990 H2003 0.962 . S
C1990 H2004 0.960 . S
C1991 C1988 1.511 . S
C1991 H2005 0.961 . S
C1991 H2006 0.961 . S
C1991 H2007 0.961 . S
C1992 C1993 1.370 . S
C1992 C1994 1.363 . S
C1992 H2008 0.931 . S
C1993 C1992 1.370 . S
C1993 C1997 1.408 . S
C1994 C1992 1.363 . S
C1994 C1995 1.370 . S
C1994 C1998 1.524 . S
C1995 C1987 1.503 . S
C1995 C1994 1.370 . S
C1995 C1996 1.403 . S
C1996 C1995 1.403 . S
C1996 C1997 1.404 . S
C1996 C1999 1.539 . S
C1997 C1993 1.408 . S
C1997 C1996 1.404 . S
C1997 H2009 0.930 . S
C1998 C1994 1.524 . S
C1998 H2010 0.956 . S
C1998 H2011 0.961 . S
C1998 H2012 0.961 . S
C1999 C1996 1.539 . S
C1999 H2013 0.958 . S
C1999 H2014 0.961 . S
C1999 H2015 0.960 . S
H2000 C1984 0.931 . S
H2001 C1989 0.929 . S
H2002 C1990 0.960 . S
H2003 C1990 0.962 . S
H2004 C1990 0.960 . S
H2005 C1991 0.961 . S
H2006 C1991 0.961 . S
H2007 C1991 0.961 . S
H2008 C1992 0.931 . S
H2009 C1997 0.930 . S
H2010 C1998 0.956 . S
H2011 C1998 0.961 . S
H2012 C1998 0.961 . S
H2013 C1999 0.958 . S
H2014 C1999 0.961 . S
H2015 C1999 0.960 . S
C2016 C2017 1.391 . S
C2016 C2018 1.394 . S
C2016 H2032 0.931 . S
C2017 C2016 1.391 . S
C2017 C2021 1.376 . S
C2018 C2016 1.394 . S
C2018 C2019 1.369 . S
C2018 C2022 1.531 . S
C2019 C2018 1.369 . S
C2019 C2020 1.410 . S
C2019 C2027 1.503 . S
C2020 C2019 1.410 . S
C2020 C2021 1.392 . S
C2020 C2023 1.511 . S
C2021 C2017 1.376 . S
C2021 C2020 1.392 . S
C2021 H2033 0.929 . S
C2022 C2018 1.531 . S
C2022 H2034 0.960 . S
C2022 H2035 0.962 . S
C2022 H2036 0.960 . S
C2023 C2020 1.511 . S
C2023 H2037 0.961 . S
C2023 H2038 0.961 . S
C2023 H2039 0.961 . S
C2024 C2025 1.370 . S
C2024 C2026 1.363 . S
C2024 H2040 0.931 . S
C2025 C2024 1.370 . S
C2025 C2029 1.408 . S
C2026 C2024 1.363 . S
C2026 C2027 1.370 . S
C2026 C2030 1.524 . S
C2027 C2019 1.503 . S
C2027 C2026 1.370 . S
C2027 C2028 1.403 . S
C2028 C2027 1.403 . S
C2028 C2029 1.404 . S
C2028 C2031 1.539 . S
C2029 C2025 1.408 . S
C2029 C2028 1.404 . S
C2029 H2041 0.930 . S
C2030 C2026 1.524 . S
C2030 H2042 0.956 . S
C2030 H2043 0.961 . S
C2030 H2044 0.961 . S
C2031 C2028 1.539 . S
C2031 H2045 0.958 . S
C2031 H2046 0.961 . S
C2031 H2047 0.960 . S
H2032 C2016 0.931 . S
H2033 C2021 0.929 . S
H2034 C2022 0.960 . S
H2035 C2022 0.962 . S
H2036 C2022 0.960 . S
H2037 C2023 0.961 . S
H2038 C2023 0.961 . S
H2039 C2023 0.961 . S
H2040 C2024 0.931 . S
H2041 C2029 0.930 . S
H2042 C2030 0.956 . S
H2043 C2030 0.961 . S
H2044 C2030 0.961 . S
H2045 C2031 0.958 . S
H2046 C2031 0.961 . S
H2047 C2031 0.960 . S
C2048 C2049 1.391 . S
C2048 C2050 1.394 . S
C2048 H2064 0.931 . S
C2049 C2048 1.391 . S
C2049 C2053 1.376 . S
C2050 C2048 1.394 . S
C2050 C2051 1.369 . S
C2050 C2054 1.531 . S
C2051 C2050 1.369 . S
C2051 C2052 1.410 . S
C2051 C2059 1.503 1_655 S
C2052 C2051 1.410 . S
C2052 C2053 1.392 . S
C2052 C2055 1.511 . S
C2053 C2049 1.376 . S
C2053 C2052 1.392 . S
C2053 H2065 0.929 . S
C2054 C2050 1.531 . S
C2054 H2066 0.960 1_655 S
C2054 H2067 0.962 . S
C2054 H2068 0.960 . S
C2055 C2052 1.511 . S
C2055 H2069 0.961 . S
C2055 H2070 0.961 1_655 S
C2055 H2071 0.961 . S
C2056 C2057 1.370 . S
C2056 C2058 1.363 . S
C2056 H2072 0.931 . S
C2057 C2056 1.370 . S
C2057 C2061 1.408 . S
C2058 C2056 1.363 . S
C2058 C2059 1.370 . S
C2058 C2062 1.524 . S
C2059 C2051 1.503 1_455 S
C2059 C2058 1.370 . S
C2059 C2060 1.403 . S
C2060 C2059 1.403 . S
C2060 C2061 1.404 . S
C2060 C2063 1.539 . S
C2061 C2057 1.408 . S
C2061 C2060 1.404 . S
C2061 H2073 0.930 . S
C2062 C2058 1.524 . S
C2062 H2074 0.956 . S
C2062 H2075 0.961 1_455 S
C2062 H2076 0.961 . S
C2063 C2060 1.539 . S
C2063 H2077 0.958 . S
C2063 H2078 0.961 . S
C2063 H2079 0.971 . S
H2064 C2048 0.931 . S
H2065 C2053 0.929 . S
H2066 C2054 0.960 1_455 S
H2067 C2054 0.962 . S
H2068 C2054 0.960 . S
H2069 C2055 0.961 . S
H2070 C2055 0.961 1_455 S
H2071 C2055 0.961 . S
H2072 C2056 0.931 . S
H2073 C2061 0.930 . S
H2074 C2062 0.956 . S
H2075 C2062 0.961 1_655 S
H2076 C2062 0.961 . S
H2077 C2063 0.958 . S
H2078 C2063 0.961 . S
H2079 C2063 0.971 . S
C2080 C2081 1.391 . S
C2080 C2082 1.394 . S
C2080 H2096 0.931 . S
C2081 C2080 1.391 . S
C2081 C2085 1.376 . S
C2082 C2080 1.394 . S
C2082 C2083 1.369 . S
C2082 C2086 1.531 . S
C2083 C2082 1.369 . S
C2083 C2084 1.410 . S
C2083 C2091 1.503 . S
C2084 C2083 1.410 . S
C2084 C2085 1.392 . S
C2084 C2087 1.511 . S
C2085 C2081 1.376 . S
C2085 C2084 1.392 . S
C2085 H2097 0.929 . S
C2086 C2082 1.531 . S
C2086 H2098 0.960 . S
C2086 H2099 0.962 . S
C2086 H2100 0.960 . S
C2087 C2084 1.511 . S
C2087 H2101 0.961 . S
C2087 H2102 0.961 . S
C2087 H2103 0.961 . S
C2088 C2089 1.370 . S
C2088 C2090 1.363 . S
C2088 H2104 0.931 . S
C2089 C2088 1.370 . S
C2089 C2093 1.408 . S
C2090 C2088 1.363 . S
C2090 C2091 1.370 . S
C2090 C2094 1.524 . S
C2091 C2083 1.503 . S
C2091 C2090 1.370 . S
C2091 C2092 1.403 . S
C2092 C2091 1.403 . S
C2092 C2093 1.404 . S
C2092 C2095 1.539 . S
C2093 C2089 1.408 . S
C2093 C2092 1.404 . S
C2093 H2105 0.930 . S
C2094 C2090 1.524 . S
C2094 H2106 0.956 . S
C2094 H2107 0.961 . S
C2094 H2108 0.961 . S
C2095 C2092 1.539 . S
C2095 H2109 0.958 . S
C2095 H2110 0.961 . S
C2095 H2111 0.960 . S
H2096 C2080 0.931 . S
H2097 C2085 0.929 . S
H2098 C2086 0.960 . S
H2099 C2086 0.962 . S
H2100 C2086 0.960 . S
H2101 C2087 0.961 . S
H2102 C2087 0.961 . S
H2103 C2087 0.961 . S
H2104 C2088 0.931 . S
H2105 C2093 0.930 . S
H2106 C2094 0.956 . S
H2107 C2094 0.961 . S
H2108 C2094 0.961 . S
H2109 C2095 0.958 . S
H2110 C2095 0.961 . S
H2111 C2095 0.960 . S
C2112 C2113 1.391 . S
C2112 C2114 1.394 . S
C2112 H2128 0.931 . S
C2113 C2112 1.391 . S
C2113 C2117 1.376 . S
C2114 C2112 1.394 . S
C2114 C2115 1.369 . S
C2114 C2118 1.531 . S
C2115 C2114 1.369 . S
C2115 C2116 1.410 . S
C2115 C2123 1.503 1_655 S
C2116 C2115 1.410 . S
C2116 C2117 1.392 . S
C2116 C2119 1.511 . S
C2117 C2113 1.376 . S
C2117 C2116 1.392 . S
C2117 H2129 0.929 . S
C2118 C2114 1.531 . S
C2118 H2130 0.960 1_655 S
C2118 H2131 0.962 . S
C2118 H2132 0.960 . S
C2119 C2116 1.511 . S
C2119 H2133 0.961 . S
C2119 H2134 0.961 1_655 S
C2119 H2135 0.961 . S
C2120 C2121 1.370 . S
C2120 C2122 1.363 . S
C2120 H2136 0.931 . S
C2121 C2120 1.370 . S
C2121 C2125 1.408 . S
C2122 C2120 1.363 . S
C2122 C2123 1.370 . S
C2122 C2126 1.524 . S
C2123 C2115 1.503 1_455 S
C2123 C2122 1.370 . S
C2123 C2124 1.403 . S
C2124 C2123 1.403 . S
C2124 C2125 1.404 . S
C2124 C2127 1.539 . S
C2125 C2121 1.408 . S
C2125 C2124 1.404 . S
C2125 H2137 0.930 . S
C2126 C2122 1.524 . S
C2126 H2138 0.956 . S
C2126 H2139 0.961 1_455 S
C2126 H2140 0.961 . S
C2127 C2124 1.539 . S
C2127 H2141 0.958 . S
C2127 H2142 0.961 . S
C2127 H2143 0.971 . S
H2128 C2112 0.931 . S
H2129 C2117 0.929 . S
H2130 C2118 0.960 1_455 S
H2131 C2118 0.962 . S
H2132 C2118 0.960 . S
H2133 C2119 0.961 . S
H2134 C2119 0.961 1_455 S
H2135 C2119 0.961 . S
H2136 C2120 0.931 . S
H2137 C2125 0.930 . S
H2138 C2126 0.956 . S
H2139 C2126 0.961 1_655 S
H2140 C2126 0.961 . S
H2141 C2127 0.958 . S
H2142 C2127 0.961 . S
H2143 C2127 0.971 . S
C2144 C2145 1.391 . S
C2144 C2146 1.394 . S
C2144 H2160 0.931 . S
C2145 C2144 1.391 . S
C2145 C2149 1.376 . S
C2146 C2144 1.394 . S
C2146 C2147 1.369 . S
C2146 C2150 1.531 . S
C2147 C2146 1.369 . S
C2147 C2148 1.410 . S
C2147 C2155 1.503 . S
C2148 C2147 1.410 . S
C2148 C2149 1.392 . S
C2148 C2151 1.511 . S
C2149 C2145 1.376 . S
C2149 C2148 1.392 . S
C2149 H2161 0.929 . S
C2150 C2146 1.531 . S
C2150 H2162 0.960 . S
C2150 H2163 0.962 . S
C2150 H2164 0.960 . S
C2151 C2148 1.511 . S
C2151 H2165 0.961 . S
C2151 H2166 0.961 . S
C2151 H2167 0.961 . S
C2152 C2153 1.370 . S
C2152 C2154 1.363 . S
C2152 H2168 0.931 . S
C2153 C2152 1.370 . S
C2153 C2157 1.408 . S
C2154 C2152 1.363 . S
C2154 C2155 1.370 . S
C2154 C2158 1.524 . S
C2155 C2147 1.503 . S
C2155 C2154 1.370 . S
C2155 C2156 1.403 . S
C2156 C2155 1.403 . S
C2156 C2157 1.404 . S
C2156 C2159 1.539 . S
C2157 C2153 1.408 . S
C2157 C2156 1.404 . S
C2157 H2169 0.930 . S
C2158 C2154 1.524 . S
C2158 H2170 0.956 . S
C2158 H2171 0.961 . S
C2158 H2172 0.961 . S
C2159 C2156 1.539 . S
C2159 H2173 0.958 . S
C2159 H2174 0.961 . S
C2159 H2175 0.960 . S
H2160 C2144 0.931 . S
H2161 C2149 0.929 . S
H2162 C2150 0.960 . S
H2163 C2150 0.962 . S
H2164 C2150 0.960 . S
H2165 C2151 0.961 . S
H2166 C2151 0.961 . S
H2167 C2151 0.961 . S
H2168 C2152 0.931 . S
H2169 C2157 0.930 . S
H2170 C2158 0.956 . S
H2171 C2158 0.961 . S
H2172 C2158 0.961 . S
H2173 C2159 0.958 . S
H2174 C2159 0.961 . S
H2175 C2159 0.960 . S
C2176 C2177 1.391 . S
C2176 C2178 1.394 . S
C2176 H2192 0.931 . S
C2177 C2176 1.391 . S
C2177 C2181 1.376 . S
C2178 C2176 1.394 . S
C2178 C2179 1.369 . S
C2178 C2182 1.531 . S
C2179 C2178 1.369 . S
C2179 C2180 1.410 . S
C2179 C2187 1.503 . S
C2180 C2179 1.410 . S
C2180 C2181 1.392 . S
C2180 C2183 1.511 . S
C2181 C2177 1.376 . S
C2181 C2180 1.392 . S
C2181 H2193 0.929 . S
C2182 C2178 1.531 . S
C2182 H2194 0.960 . S
C2182 H2195 0.962 . S
C2182 H2196 0.960 . S
C2183 C2180 1.511 . S
C2183 H2197 0.961 . S
C2183 H2198 0.961 . S
C2183 H2199 0.961 . S
C2184 C2185 1.370 . S
C2184 C2186 1.363 . S
C2184 H2200 0.931 . S
C2185 C2184 1.370 . S
C2185 C2189 1.408 . S
C2186 C2184 1.363 . S
C2186 C2187 1.370 . S
C2186 C2190 1.524 . S
C2187 C2179 1.503 . S
C2187 C2186 1.370 . S
C2187 C2188 1.403 . S
C2188 C2187 1.403 . S
C2188 C2189 1.404 . S
C2188 C2191 1.539 . S
C2189 C2185 1.408 . S
C2189 C2188 1.404 . S
C2189 H2201 0.930 . S
C2190 C2186 1.524 . S
C2190 H2202 0.956 . S
C2190 H2203 0.961 . S
C2190 H2204 0.961 . S
C2191 C2188 1.539 . S
C2191 H2205 0.958 . S
C2191 H2206 0.961 . S
C2191 H2207 0.960 . S
H2192 C2176 0.931 . S
H2193 C2181 0.929 . S
H2194 C2182 0.960 . S
H2195 C2182 0.962 . S
H2196 C2182 0.960 . S
H2197 C2183 0.961 . S
H2198 C2183 0.961 . S
H2199 C2183 0.961 . S
H2200 C2184 0.931 . S
H2201 C2189 0.930 . S
H2202 C2190 0.956 . S
H2203 C2190 0.961 . S
H2204 C2190 0.961 . S
H2205 C2191 0.958 . S
H2206 C2191 0.961 . S
H2207 C2191 0.960 . S
C2208 C2209 1.391 . S
C2208 C2210 1.394 . S
C2208 H2224 0.931 . S
C2209 C2208 1.391 . S
C2209 C2213 1.376 . S
C2210 C2208 1.394 . S
C2210 C2211 1.369 . S
C2210 C2214 1.531 . S
C2211 C2210 1.369 . S
C2211 C2212 1.410 . S
C2211 C2219 1.503 . S
C2212 C2211 1.410 . S
C2212 C2213 1.392 . S
C2212 C2215 1.511 . S
C2213 C2209 1.376 . S
C2213 C2212 1.392 . S
C2213 H2225 0.929 . S
C2214 C2210 1.531 . S
C2214 H2226 0.960 . S
C2214 H2227 0.962 . S
C2214 H2228 0.960 . S
C2215 C2212 1.511 . S
C2215 H2229 0.961 . S
C2215 H2230 0.961 . S
C2215 H2231 0.961 . S
C2216 C2217 1.370 . S
C2216 C2218 1.363 . S
C2216 H2232 0.931 . S
C2217 C2216 1.370 . S
C2217 C2221 1.408 . S
C2218 C2216 1.363 . S
C2218 C2219 1.370 . S
C2218 C2222 1.524 . S
C2219 C2211 1.503 . S
C2219 C2218 1.370 . S
C2219 C2220 1.403 . S
C2220 C2219 1.403 . S
C2220 C2221 1.404 . S
C2220 C2223 1.539 . S
C2221 C2217 1.408 . S
C2221 C2220 1.404 . S
C2221 H2233 0.930 . S
C2222 C2218 1.524 . S
C2222 H2234 0.956 . S
C2222 H2235 0.961 . S
C2222 H2236 0.961 . S
C2223 C2220 1.539 . S
C2223 H2237 0.958 . S
C2223 H2238 0.961 . S
C2223 H2239 0.960 . S
H2224 C2208 0.931 . S
H2225 C2213 0.929 . S
H2226 C2214 0.960 . S
H2227 C2214 0.962 . S
H2228 C2214 0.960 . S
H2229 C2215 0.961 . S
H2230 C2215 0.961 . S
H2231 C2215 0.961 . S
H2232 C2216 0.931 . S
H2233 C2221 0.930 . S
H2234 C2222 0.956 . S
H2235 C2222 0.961 . S
H2236 C2222 0.961 . S
H2237 C2223 0.958 . S
H2238 C2223 0.961 . S
H2239 C2223 0.960 . S
C2240 C2241 1.391 . S
C2240 C2242 1.394 . S
C2240 H2256 0.931 . S
C2241 C2240 1.391 . S
C2241 C2245 1.376 . S
C2242 C2240 1.394 . S
C2242 C2243 1.369 . S
C2242 C2246 1.531 . S
C2243 C2242 1.369 . S
C2243 C2244 1.410 . S
C2243 C2251 1.503 . S
C2244 C2243 1.410 . S
C2244 C2245 1.392 . S
C2244 C2247 1.511 . S
C2245 C2241 1.376 . S
C2245 C2244 1.392 . S
C2245 H2257 0.929 . S
C2246 C2242 1.531 . S
C2246 H2258 0.960 . S
C2246 H2259 0.962 . S
C2246 H2260 0.960 . S
C2247 C2244 1.511 . S
C2247 H2261 0.961 . S
C2247 H2262 0.961 . S
C2247 H2263 0.961 . S
C2248 C2249 1.370 . S
C2248 C2250 1.363 . S
C2248 H2264 0.931 . S
C2249 C2248 1.370 . S
C2249 C2253 1.408 . S
C2250 C2248 1.363 . S
C2250 C2251 1.370 . S
C2250 C2254 1.524 . S
C2251 C2243 1.503 . S
C2251 C2250 1.370 . S
C2251 C2252 1.403 . S
C2252 C2251 1.403 . S
C2252 C2253 1.404 . S
C2252 C2255 1.539 . S
C2253 C2249 1.408 . S
C2253 C2252 1.404 . S
C2253 H2265 0.930 . S
C2254 C2250 1.524 . S
C2254 H2266 0.956 . S
C2254 H2267 0.961 . S
C2254 H2268 0.961 . S
C2255 C2252 1.539 . S
C2255 H2269 0.958 . S
C2255 H2270 0.961 . S
C2255 H2271 0.960 . S
H2256 C2240 0.931 . S
H2257 C2245 0.929 . S
H2258 C2246 0.960 . S
H2259 C2246 0.962 . S
H2260 C2246 0.960 . S
H2261 C2247 0.961 . S
H2262 C2247 0.961 . S
H2263 C2247 0.961 . S
H2264 C2248 0.931 . S
H2265 C2253 0.930 . S
H2266 C2254 0.956 . S
H2267 C2254 0.961 . S
H2268 C2254 0.961 . S
H2269 C2255 0.958 . S
H2270 C2255 0.961 . S
H2271 C2255 0.960 . S
C2272 C2273 1.391 . S
C2272 C2274 1.394 . S
C2272 H2288 0.931 . S
C2273 C2272 1.391 . S
C2273 C2277 1.376 . S
C2274 C2272 1.394 . S
C2274 C2275 1.369 . S
C2274 C2278 1.531 . S
C2275 C2274 1.369 . S
C2275 C2276 1.410 . S
C2275 C2283 1.503 . S
C2276 C2275 1.410 . S
C2276 C2277 1.392 . S
C2276 C2279 1.511 . S
C2277 C2273 1.376 . S
C2277 C2276 1.392 . S
C2277 H2289 0.929 . S
C2278 C2274 1.531 . S
C2278 H2290 0.960 . S
C2278 H2291 0.962 . S
C2278 H2292 0.960 . S
C2279 C2276 1.511 . S
C2279 H2293 0.961 . S
C2279 H2294 0.961 . S
C2279 H2295 0.961 . S
C2280 C2281 1.370 . S
C2280 C2282 1.363 . S
C2280 H2296 0.931 . S
C2281 C2280 1.370 . S
C2281 C2285 1.408 . S
C2282 C2280 1.363 . S
C2282 C2283 1.370 . S
C2282 C2286 1.524 . S
C2283 C2275 1.503 . S
C2283 C2282 1.370 . S
C2283 C2284 1.403 . S
C2284 C2283 1.403 . S
C2284 C2285 1.404 . S
C2284 C2287 1.539 . S
C2285 C2281 1.408 . S
C2285 C2284 1.404 . S
C2285 H2297 0.930 . S
C2286 C2282 1.524 . S
C2286 H2298 0.956 . S
C2286 H2299 0.961 . S
C2286 H2300 0.961 . S
C2287 C2284 1.539 . S
C2287 H2301 0.958 . S
C2287 H2302 0.961 . S
C2287 H2303 0.960 . S
H2288 C2272 0.931 . S
H2289 C2277 0.929 . S
H2290 C2278 0.960 . S
H2291 C2278 0.962 . S
H2292 C2278 0.960 . S
H2293 C2279 0.961 . S
H2294 C2279 0.961 . S
H2295 C2279 0.961 . S
H2296 C2280 0.931 . S
H2297 C2285 0.930 . S
H2298 C2286 0.956 . S
H2299 C2286 0.961 . S
H2300 C2286 0.961 . S
H2301 C2287 0.958 . S
H2302 C2287 0.961 . S
H2303 C2287 0.960 . S
C2304 C2305 1.391 . S
C2304 C2306 1.394 . S
C2304 H2320 0.931 . S
C2305 C2304 1.391 . S
C2305 C2309 1.376 . S
C2306 C2304 1.394 . S
C2306 C2307 1.369 . S
C2306 C2310 1.531 . S
C2307 C2306 1.369 . S
C2307 C2308 1.410 . S
C2307 C2315 1.503 . S
C2308 C2307 1.410 . S
C2308 C2309 1.392 . S
C2308 C2311 1.511 . S
C2309 C2305 1.376 . S
C2309 C2308 1.392 . S
C2309 H2321 0.929 . S
C2310 C2306 1.531 . S
C2310 H2322 0.960 . S
C2310 H2323 0.962 . S
C2310 H2324 0.960 . S
C2311 C2308 1.511 . S
C2311 H2325 0.961 . S
C2311 H2326 0.961 . S
C2311 H2327 0.961 . S
C2312 C2313 1.370 . S
C2312 C2314 1.363 . S
C2312 H2328 0.931 . S
C2313 C2312 1.370 . S
C2313 C2317 1.408 . S
C2314 C2312 1.363 . S
C2314 C2315 1.370 . S
C2314 C2318 1.524 . S
C2315 C2307 1.503 . S
C2315 C2314 1.370 . S
C2315 C2316 1.403 . S
C2316 C2315 1.403 . S
C2316 C2317 1.404 . S
C2316 C2319 1.539 . S
C2317 C2313 1.408 . S
C2317 C2316 1.404 . S
C2317 H2329 0.930 . S
C2318 C2314 1.524 . S
C2318 H2330 0.956 . S
C2318 H2331 0.961 . S
C2318 H2332 0.961 . S
C2319 C2316 1.539 . S
C2319 H2333 0.958 . S
C2319 H2334 0.961 . S
C2319 H2335 0.960 . S
H2320 C2304 0.931 . S
H2321 C2309 0.929 . S
H2322 C2310 0.960 . S
H2323 C2310 0.962 . S
H2324 C2310 0.960 . S
H2325 C2311 0.961 . S
H2326 C2311 0.961 . S
H2327 C2311 0.961 . S
H2328 C2312 0.931 . S
H2329 C2317 0.930 . S
H2330 C2318 0.956 . S
H2331 C2318 0.961 . S
H2332 C2318 0.961 . S
H2333 C2319 0.958 . S
H2334 C2319 0.961 . S
H2335 C2319 0.960 . S
C2336 C2337 1.391 . S
C2336 C2338 1.394 . S
C2336 H2352 0.931 . S
C2337 C2336 1.391 . S
C2337 C2341 1.376 . S
C2338 C2336 1.394 . S
C2338 C2339 1.369 . S
C2338 C2342 1.531 . S
C2339 C2338 1.369 . S
C2339 C2340 1.410 . S
C2339 C2347 1.503 1_655 S
C2340 C2339 1.410 . S
C2340 C2341 1.392 . S
C2340 C2343 1.511 . S
C2341 C2337 1.376 . S
C2341 C2340 1.392 . S
C2341 H2353 0.929 . S
C2342 C2338 1.531 . S
C2342 H2354 0.960 1_655 S
C2342 H2355 0.962 . S
C2342 H2356 0.960 . S
C2343 C2340 1.511 . S
C2343 H2357 0.961 . S
C2343 H2358 0.961 1_655 S
C2343 H2359 0.961 . S
C2344 C2345 1.370 . S
C2344 C2346 1.363 . S
C2344 H2360 0.931 . S
C2345 C2344 1.370 . S
C2345 C2349 1.408 . S
C2346 C2344 1.363 . S
C2346 C2347 1.370 . S
C2346 C2350 1.524 . S
C2347 C2339 1.503 1_455 S
C2347 C2346 1.370 . S
C2347 C2348 1.403 . S
C2348 C2347 1.403 . S
C2348 C2349 1.404 . S
C2348 C2351 1.539 . S
C2349 C2345 1.408 . S
C2349 C2348 1.404 . S
C2349 H2361 0.930 . S
C2350 C2346 1.524 . S
C2350 H2362 0.956 . S
C2350 H2363 0.961 1_455 S
C2350 H2364 0.961 . S
C2351 C2348 1.539 . S
C2351 H2365 0.958 . S
C2351 H2366 0.961 . S
C2351 H2367 0.971 . S
H2352 C2336 0.931 . S
H2353 C2341 0.929 . S
H2354 C2342 0.960 1_455 S
H2355 C2342 0.962 . S
H2356 C2342 0.960 . S
H2357 C2343 0.961 . S
H2358 C2343 0.961 1_455 S
H2359 C2343 0.961 . S
H2360 C2344 0.931 . S
H2361 C2349 0.930 . S
H2362 C2350 0.956 . S
H2363 C2350 0.961 1_655 S
H2364 C2350 0.961 . S
H2365 C2351 0.958 . S
H2366 C2351 0.961 . S
H2367 C2351 0.971 . S
C2368 C2369 1.391 . S
C2368 C2370 1.394 . S
C2368 H2384 0.931 . S
C2369 C2368 1.391 . S
C2369 C2373 1.376 . S
C2370 C2368 1.394 . S
C2370 C2371 1.369 . S
C2370 C2374 1.531 . S
C2371 C2370 1.369 . S
C2371 C2372 1.410 . S
C2371 C2379 1.503 . S
C2372 C2371 1.410 . S
C2372 C2373 1.392 . S
C2372 C2375 1.511 . S
C2373 C2369 1.376 . S
C2373 C2372 1.392 . S
C2373 H2385 0.929 . S
C2374 C2370 1.531 . S
C2374 H2386 0.960 . S
C2374 H2387 0.962 . S
C2374 H2388 0.960 . S
C2375 C2372 1.511 . S
C2375 H2389 0.961 . S
C2375 H2390 0.961 . S
C2375 H2391 0.961 . S
C2376 C2377 1.370 . S
C2376 C2378 1.363 . S
C2376 H2392 0.931 . S
C2377 C2376 1.370 . S
C2377 C2381 1.408 . S
C2378 C2376 1.363 . S
C2378 C2379 1.370 . S
C2378 C2382 1.524 . S
C2379 C2371 1.503 . S
C2379 C2378 1.370 . S
C2379 C2380 1.403 . S
C2380 C2379 1.403 . S
C2380 C2381 1.404 . S
C2380 C2383 1.539 . S
C2381 C2377 1.408 . S
C2381 C2380 1.404 . S
C2381 H2393 0.930 . S
C2382 C2378 1.524 . S
C2382 H2394 0.956 . S
C2382 H2395 0.961 . S
C2382 H2396 0.961 . S
C2383 C2380 1.539 . S
C2383 H2397 0.958 . S
C2383 H2398 0.961 . S
C2383 H2399 0.960 . S
H2384 C2368 0.931 . S
H2385 C2373 0.929 . S
H2386 C2374 0.960 . S
H2387 C2374 0.962 . S
H2388 C2374 0.960 . S
H2389 C2375 0.961 . S
H2390 C2375 0.961 . S
H2391 C2375 0.961 . S
H2392 C2376 0.931 . S
H2393 C2381 0.930 . S
H2394 C2382 0.956 . S
H2395 C2382 0.961 . S
H2396 C2382 0.961 . S
H2397 C2383 0.958 . S
H2398 C2383 0.961 . S
H2399 C2383 0.960 . S
C2400 C2401 1.391 . S
C2400 C2402 1.394 . S
C2400 H2416 0.931 . S
C2401 C2400 1.391 . S
C2401 C2405 1.376 . S
C2402 C2400 1.394 . S
C2402 C2403 1.369 . S
C2402 C2406 1.531 . S
C2403 C2402 1.369 . S
C2403 C2404 1.410 . S
C2403 C2411 1.503 . S
C2404 C2403 1.410 . S
C2404 C2405 1.392 . S
C2404 C2407 1.511 . S
C2405 C2401 1.376 . S
C2405 C2404 1.392 . S
C2405 H2417 0.929 . S
C2406 C2402 1.531 . S
C2406 H2418 0.960 . S
C2406 H2419 0.962 . S
C2406 H2420 0.960 . S
C2407 C2404 1.511 . S
C2407 H2421 0.961 . S
C2407 H2422 0.961 . S
C2407 H2423 0.961 . S
C2408 C2409 1.370 . S
C2408 C2410 1.363 . S
C2408 H2424 0.931 . S
C2409 C2408 1.370 . S
C2409 C2413 1.408 . S
C2410 C2408 1.363 . S
C2410 C2411 1.370 . S
C2410 C2414 1.524 . S
C2411 C2403 1.503 . S
C2411 C2410 1.370 . S
C2411 C2412 1.403 . S
C2412 C2411 1.403 . S
C2412 C2413 1.404 . S
C2412 C2415 1.539 . S
C2413 C2409 1.408 . S
C2413 C2412 1.404 . S
C2413 H2425 0.930 . S
C2414 C2410 1.524 . S
C2414 H2426 0.956 . S
C2414 H2427 0.961 . S
C2414 H2428 0.961 . S
C2415 C2412 1.539 . S
C2415 H2429 0.958 . S
C2415 H2430 0.961 . S
C2415 H2431 0.960 . S
H2416 C2400 0.931 . S
H2417 C2405 0.929 . S
H2418 C2406 0.960 . S
H2419 C2406 0.962 . S
H2420 C2406 0.960 . S
H2421 C2407 0.961 . S
H2422 C2407 0.961 . S
H2423 C2407 0.961 . S
H2424 C2408 0.931 . S
H2425 C2413 0.930 . S
H2426 C2414 0.956 . S
H2427 C2414 0.961 . S
H2428 C2414 0.961 . S
H2429 C2415 0.958 . S
H2430 C2415 0.961 . S
H2431 C2415 0.960 . S
C2432 C2433 1.391 . S
C2432 C2434 1.394 . S
C2432 H2448 0.931 . S
C2433 C2432 1.391 . S
C2433 C2437 1.376 . S
C2434 C2432 1.394 . S
C2434 C2435 1.369 . S
C2434 C2438 1.531 . S
C2435 C2434 1.369 . S
C2435 C2436 1.410 . S
C2435 C2443 1.503 1_655 S
C2436 C2435 1.410 . S
C2436 C2437 1.392 . S
C2436 C2439 1.511 . S
C2437 C2433 1.376 . S
C2437 C2436 1.392 . S
C2437 H2449 0.929 . S
C2438 C2434 1.531 . S
C2438 H2450 0.960 1_655 S
C2438 H2451 0.962 . S
C2438 H2452 0.960 . S
C2439 C2436 1.511 . S
C2439 H2453 0.961 . S
C2439 H2454 0.961 1_655 S
C2439 H2455 0.961 . S
C2440 C2441 1.370 . S
C2440 C2442 1.363 . S
C2440 H2456 0.931 . S
C2441 C2440 1.370 . S
C2441 C2445 1.408 . S
C2442 C2440 1.363 . S
C2442 C2443 1.370 . S
C2442 C2446 1.524 . S
C2443 C2435 1.503 1_455 S
C2443 C2442 1.370 . S
C2443 C2444 1.403 . S
C2444 C2443 1.403 . S
C2444 C2445 1.404 . S
C2444 C2447 1.539 . S
C2445 C2441 1.408 . S
C2445 C2444 1.404 . S
C2445 H2457 0.930 . S
C2446 C2442 1.524 . S
C2446 H2458 0.956 . S
C2446 H2459 0.961 1_455 S
C2446 H2460 0.961 . S
C2447 C2444 1.539 . S
C2447 H2461 0.958 . S
C2447 H2462 0.961 . S
C2447 H2463 0.971 . S
H2448 C2432 0.931 . S
H2449 C2437 0.929 . S
H2450 C2438 0.960 1_455 S
H2451 C2438 0.962 . S
H2452 C2438 0.960 . S
H2453 C2439 0.961 . S
H2454 C2439 0.961 1_455 S
H2455 C2439 0.961 . S
H2456 C2440 0.931 . S
H2457 C2445 0.930 . S
H2458 C2446 0.956 . S
H2459 C2446 0.961 1_655 S
H2460 C2446 0.961 . S
H2461 C2447 0.958 . S
H2462 C2447 0.961 . S
H2463 C2447 0.971 . S
C417 C309 1.368 . S
C425 C10 1.394 . S
C449 C270 1.427 . S
C457 C23 1.415 . S
C481 C283 1.393 . S
C489 C36 1.418 . S
C513 C296 1.409 . S
C521 C49 1.419 . S
C545 C62 1.416 . S
C553 C231 1.418 . S
C577 C244 1.381 . S
C585 C75 1.390 . S
C609 C88 1.418 . S
C617 C257 1.418 . S
C641 C101 1.432 . S
C649 C218 1.412 . S
C673 C413 1.363 . S
C681 C114 1.396 . S
C705 C127 1.433 . S
C713 C374 1.416 . S
C737 C140 1.394 . S
C745 C387 1.416 . S
C769 C153 1.437 . S
C777 C400 1.411 . S
C801 C166 1.396 . S
C809 C335 1.416 . S
C833 C179 1.366 . S
C841 C348 1.392 . S
C865 C192 1.381 . S
C873 C361 1.388 . S
C897 C205 1.437 . S
C905 C322 1.411 . S
C929 C8 1.457 . S
C937 C164 1.476 . S
C961 C385 1.481 . S
C969 C21 1.487 . S
C993 C34 1.479 . S
C1001 C190 1.483 . S
C1025 C411 1.496 . S
C1033 C47 1.493 . S
C1057 C112 1.485 . S
C1065 C60 1.485 . S
C1089 C73 1.468 . S
C1097 C333 1.478 . S
C1121 C86 1.466 . S
C1129 C138 1.480 . S
C1153 C99 1.468 . S
C1161 C359 1.478 . S
C1185 C281 1.489 . S
C1193 C125 1.490 . S
C1217 C307 1.490 . S
C1225 C151 1.490 . S
C1249 C177 1.466 . S
C1257 C229 1.478 . S
C1281 C255 1.467 . S
C1289 C203 1.478 . S
C1313 C372 1.506 . S
C1321 C216 1.495 . S
C1345 C242 1.467 . S
C1353 C398 1.481 . S
C1377 C320 1.459 . S
C1385 C268 1.477 . S
C1409 C346 1.457 . S
C1417 C294 1.476 . S
C1441 C52 1.154 . S
C1449 C0 1.132 . S
C1473 C65 1.139 . S
C1481 C13 1.119 . S
C1505 C26 1.097 . S
C1513 C78 1.137 . S
C1537 C39 1.126 . S
C1545 C91 1.143 . S
C1569 C156 1.106 . S
C1577 C104 1.145 . S
C1601 C169 1.137 . S
C1609 C117 1.122 . S
C1633 C182 1.149 . S
C1641 C130 1.119 . S
C1665 C143 1.121 . S
C1673 C195 1.142 . S
C1697 C208 1.163 . S
C1705 C260 1.123 . S
C1729 C221 1.097 . S
C1737 C273 1.137 . S
C1761 C234 1.162 . S
C1769 C286 1.125 . S
C1793 C247 1.135 . S
C1801 C299 1.119 . S
C1825 C364 1.135 . S
C1833 C312 1.123 . S
C1857 C377 1.134 . S
C1865 C325 1.137 . S
C1889 C390 1.159 . S
C1897 C338 1.118 . S
C1921 C403 1.117 . S
C1929 C351 1.129 . S
C1953 C395 1.238 . S
C1961 C5 1.252 . S
C1985 C18 1.302 . S
C1993 C200 1.282 . S
C2017 C369 1.303 . S
C2025 C31 1.282 . S
C2049 C44 1.227 . S
C2057 C174 1.252 . S
C2081 C343 1.218 . S
C2089 C57 1.247 . S
C2113 C70 1.260 . S
C2121 C148 1.260 . S
C2145 C83 1.277 . S
C2153 C317 1.268 . S
C2177 C122 1.275 . S
C2185 C96 1.273 . S
C2209 C109 1.239 . S
C2217 C291 1.253 . S
C2241 C265 1.269 . S
C2249 C135 1.264 . S
C2273 C161 1.219 . S
C2281 C239 1.246 . S
C2305 C187 1.300 . S
C2313 C213 1.279 . S
C2337 C408 1.225 . S
C2345 C226 1.251 . S
C2369 C252 1.251 . S
C2377 C382 1.257 . S
C2401 C278 1.256 . S
C2409 C356 1.259 . S
C2433 C330 1.282 . S
C2441 C304 1.275 . S
