# Generated by pormake.
# Topology sra, (4)-cn, num edge types: 1
# Building blocks:
#     Node 0, Type 0, BuildingBlock: QUQFOY_clean_sbu_1, # of connection points: 4
#     Node 1, Type 0, BuildingBlock: QUQFOY_clean_sbu_1, # of connection points: 4
#     Node 2, Type 0, BuildingBlock: QUQFOY_clean_sbu_1, # of connection points: 4
#     Node 3, Type 0, BuildingBlock: QUQFOY_clean_sbu_1, # of connection points: 4
#     Node 4, Type 0, BuildingBlock: QUQFOY_clean_sbu_1, # of connection points: 4
#     Node 5, Type 0, BuildingBlock: QUQFOY_clean_sbu_1, # of connection points: 4
#     Node 6, Type 0, BuildingBlock: QUQFOY_clean_sbu_1, # of connection points: 4
#     Node 7, Type 0, BuildingBlock: QUQFOY_clean_sbu_1, # of connection points: 4
#     Edge 8, Type (0, 0), BuildingBlock: FUNLAD_clean_linker_1, # of connection points: 2
#     Edge 9, Type (0, 0), BuildingBlock: FUNLAD_clean_linker_1, # of connection points: 2
#     Edge 10, Type (0, 0), BuildingBlock: FUNLAD_clean_linker_1, # of connection points: 2
#     Edge 11, Type (0, 0), BuildingBlock: FUNLAD_clean_linker_1, # of connection points: 2
#     Edge 12, Type (0, 0), BuildingBlock: FUNLAD_clean_linker_1, # of connection points: 2
#     Edge 13, Type (0, 0), BuildingBlock: FUNLAD_clean_linker_1, # of connection points: 2
#     Edge 14, Type (0, 0), BuildingBlock: FUNLAD_clean_linker_1, # of connection points: 2
#     Edge 15, Type (0, 0), BuildingBlock: FUNLAD_clean_linker_1, # of connection points: 2
#     Edge 16, Type (0, 0), BuildingBlock: FUNLAD_clean_linker_1, # of connection points: 2
#     Edge 17, Type (0, 0), BuildingBlock: FUNLAD_clean_linker_1, # of connection points: 2
#     Edge 18, Type (0, 0), BuildingBlock: FUNLAD_clean_linker_1, # of connection points: 2
#     Edge 19, Type (0, 0), BuildingBlock: FUNLAD_clean_linker_1, # of connection points: 2
#     Edge 20, Type (0, 0), BuildingBlock: FUNLAD_clean_linker_1, # of connection points: 2
#     Edge 21, Type (0, 0), BuildingBlock: FUNLAD_clean_linker_1, # of connection points: 2
#     Edge 22, Type (0, 0), BuildingBlock: FUNLAD_clean_linker_1, # of connection points: 2
#     Edge 23, Type (0, 0), BuildingBlock: FUNLAD_clean_linker_1, # of connection points: 2
# Relax obj value: 0.042
# Max RMSD: 0.079
# Mean RMSD: 0.079
data_MOF--net-sra--node1-QUQFOY_clean_sbu_1--edge1-FUNLAD_clean_linker_1
_symmetry_space_group_name_H-M    P1
_symmetry_Int_Tables_number       1
_symmetry_cell_setting            triclinic
loop_
_symmetry_equiv_pos_as_xyz
'x, y, z'
_cell_length_a     29.135189
_cell_length_b     55.659859
_cell_length_c     35.338463
_cell_angle_alpha  89.798679
_cell_angle_beta   90.224209
_cell_angle_gamma 89.965723
loop_
_atom_site_label
_atom_site_type_symbol
_atom_site_fract_x
_atom_site_fract_y
_atom_site_fract_z
_atom_type_partial_charge
O0 O 0.96339 0.10813 0.14351 0.0
Cd1 Cd 1.02389 0.11379 0.1147 0.0
Cd2 Cd 0.05219 0.12424 0.18548 0.0
O3 O 0.98835 0.11127 0.2024 0.0
O4 O 1.012 0.09868 0.06451 0.0
O5 O 0.06477 0.08533 0.10461 0.0
C6 C 0.04296 0.08303 0.07296 0.0
C7 C 0.12422 0.10898 0.20193 0.0
C8 C 0.95607 0.1071 0.17887 0.0
C9 C 0.05107 0.16467 0.12929 0.0
O10 O 0.05331 0.1587 0.16402 0.0
O11 O 0.04294 0.14901 0.10404 0.0
O12 O 0.10118 0.12199 0.22542 0.0
O13 O 0.10493 0.10329 0.17025 0.0
O14 O 0.14935 0.40621 0.16299 0.0
Cd15 Cd 0.09416 0.39779 0.1291 0.0
Cd16 Cd 0.04926 0.39505 0.19564 0.0
O17 O 0.10989 0.40914 0.21592 0.0
O18 O 0.10665 0.41216 0.07866 0.0
O19 O 0.0498 0.42411 0.11583 0.0
C20 C 0.07296 0.42664 0.08491 0.0
C21 C 0.981 0.40878 0.22186 0.0
C22 C 0.14738 0.41106 0.19804 0.0
C23 C 0.06031 0.34942 0.14978 0.0
O24 O 0.04787 0.35922 0.18047 0.0
O25 O 0.07826 0.36184 0.12346 0.0
O26 O 1.00933 0.39583 0.24104 0.0
O27 O 0.99184 0.41472 0.18768 0.0
O28 O 0.97763 0.90819 0.84329 0.0
Cd29 Cd 0.02762 0.89757 0.8809 0.0
Cd30 Cd 0.07483 0.88727 0.8173 0.0
O31 O 1.01692 0.90146 0.79108 0.0
O32 O 1.01813 0.91625 0.9283 0.0
O33 O 0.08011 0.91954 0.89241 0.0
C34 C 0.05711 0.92641 0.92156 0.0
C35 C 0.14802 0.89968 0.79892 0.0
C36 C 0.98046 0.90839 0.80743 0.0
C37 C 0.05065 0.8461 0.87013 0.0
O38 O 0.06985 0.85292 0.83964 0.0
O39 O 0.03139 0.86118 0.89181 0.0
O40 O 0.12383 0.88562 0.77787 0.0
O41 O 0.13026 0.9072 0.83007 0.0
O42 O 0.12936 0.5966 0.84709 0.0
Cd43 Cd 0.07418 0.60706 0.87914 0.0
Cd44 Cd 0.04017 0.61932 0.80976 0.0
O45 O 0.10299 0.60605 0.7902 0.0
O46 O 0.08273 0.58979 0.92836 0.0
O47 O 1.02315 0.58386 0.89049 0.0
C48 C 0.04527 0.57835 0.92098 0.0
C49 C 0.96733 0.6055 0.79199 0.0
C50 C 0.13494 0.59803 0.81156 0.0
C51 C 0.05493 0.65923 0.86624 0.0
O52 O 0.04181 0.65326 0.8332 0.0
O53 O 0.06906 0.6435 0.88972 0.0
O54 O 0.99078 0.61925 0.76976 0.0
O55 O 0.98632 0.59853 0.8232 0.0
O56 O 0.46013 0.60287 0.64917 0.0
Cd57 Cd 0.51713 0.61174 0.61812 0.0
Cd58 Cd 0.55157 0.62055 0.6882 0.0
O59 O 0.48814 0.60743 0.70692 0.0
O60 O 0.50469 0.59735 0.56752 0.0
O61 O 0.56213 0.58571 0.60448 0.0
C62 C 0.53877 0.5831 0.57364 0.0
C63 C 0.62402 0.60538 0.70414 0.0
C64 C 0.45502 0.60208 0.68479 0.0
C65 C 0.54243 0.66262 0.63467 0.0
O66 O 0.55239 0.65538 0.66787 0.0
O67 O 0.5286 0.64798 0.60959 0.0
O68 O 0.60106 0.6183 0.72778 0.0
O69 O 0.6045 0.59974 0.67253 0.0
O70 O 0.6578 0.9074 0.65926 0.0
Cd71 Cd 0.60884 0.89879 0.6197 0.0
Cd72 Cd 0.55595 0.89132 0.68085 0.0
O73 O 0.61295 0.90468 0.70929 0.0
O74 O 0.62605 0.91564 0.57211 0.0
O75 O 0.56275 0.9238 0.60436 0.0
C76 C 0.58945 0.92841 0.57613 0.0
C77 C 0.48217 0.90423 0.69642 0.0
C78 C 0.65186 0.90918 0.69472 0.0
C79 C 0.57827 0.84857 0.63115 0.0
O80 O 0.5591 0.85646 0.6609 0.0
O81 O 0.59997 0.86266 0.60928 0.0
O82 O 0.50542 0.89043 0.71873 0.0
O83 O 0.50148 0.91156 0.66567 0.0
O84 O 0.47486 0.41179 0.33935 0.0
Cd85 Cd 0.52594 0.40108 0.37589 0.0
Cd86 Cd 0.57085 0.38961 0.31215 0.0
O87 O 0.51219 0.40311 0.28697 0.0
O88 O 0.51877 0.42022 0.42289 0.0
O89 O 0.57949 0.42285 0.38537 0.0
C90 C 0.55768 0.43011 0.41497 0.0
C91 C 0.64069 0.40028 0.28518 0.0
C92 C 0.47668 0.41101 0.30348 0.0
C93 C 0.5485 0.34945 0.36728 0.0
O94 O 0.56765 0.35583 0.33656 0.0
O95 O 0.52889 0.36482 0.38821 0.0
O96 O 0.61339 0.3854 0.26881 0.0
O97 O 0.62833 0.40947 0.31706 0.0
O98 O 0.63119 0.10112 0.34136 0.0
Cd99 Cd 0.57618 0.11063 0.3743 0.0
Cd100 Cd 0.54062 0.1233 0.30572 0.0
O101 O 0.60313 0.11046 0.28497 0.0
O102 O 0.58607 0.09287 0.42288 0.0
O103 O 0.52652 0.08654 0.38514 0.0
C104 C 0.54923 0.08095 0.4153 0.0
C105 C 0.46773 0.10947 0.28827 0.0
C106 C 0.63584 0.10267 0.30575 0.0
C107 C 0.55512 0.16272 0.36307 0.0
O108 O 0.54207 0.157 0.3299 0.0
O109 O 0.56973 0.14685 0.3861 0.0
O110 O 0.49079 0.12347 0.26616 0.0
O111 O 0.48714 0.10226 0.31917 0.0
H112 H 0.03568 0.31393 0.1681 0.0
C113 C 0.0548 0.32322 0.1461 0.0
H114 H 0.09632 0.31897 0.0976 0.0
H115 H 0.14796 0.21338 0.15554 0.0
H116 H 0.21984 0.23444 0.1658 0.0
H117 H 0.22541 0.27817 0.15504 0.0
H118 H 0.15918 0.3011 0.13388 0.0
C119 C 0.07492 0.31031 0.11874 0.0
C120 C 0.07297 0.28359 0.12008 0.0
C121 C 0.11219 0.27042 0.13183 0.0
C122 C 0.10887 0.24526 0.13833 0.0
C123 C 0.14845 0.23257 0.15053 0.0
C124 C 0.18995 0.24442 0.15643 0.0
C125 C 0.1931 0.26904 0.15035 0.0
C126 C 0.1548 0.28198 0.13822 0.0
H127 H 0.05432 0.19471 0.08819 0.0
C128 C 0.05645 0.19009 0.11806 0.0
H129 H 0.06556 0.20312 0.17366 0.0
H130 H 0.99348 0.30299 0.09231 0.0
H131 H 0.92118 0.28215 0.08265 0.0
H132 H 0.91416 0.23888 0.09686 0.0
H133 H 0.97932 0.21615 0.12027 0.0
C134 C 0.06221 0.20756 0.14381 0.0
C135 C 0.06641 0.2333 0.13291 0.0
C136 C 0.02756 0.24634 0.11979 0.0
C137 C 0.03111 0.27146 0.11283 0.0
C138 C 0.99221 0.28402 0.09899 0.0
C139 C 0.95061 0.27226 0.09317 0.0
C140 C 0.9467 0.24789 0.10108 0.0
C141 C 0.98453 0.235 0.11433 0.0
H142 H 1.0171 0.81423 0.89483 0.0
C143 C 0.04637 0.8202 0.87832 0.0
H144 H 0.10453 0.81028 0.84708 0.0
H145 H 1.0193 0.71021 0.93058 0.0
H146 H 0.02837 0.73056 0.99068 0.0
H147 H 0.05788 0.77205 0.99339 0.0
H148 H 0.0767 0.79373 0.93589 0.0
C149 C 0.07535 0.804 0.86343 0.0
C150 C 0.06499 0.77771 0.86314 0.0
C151 C 0.05772 0.76469 0.89724 0.0
C152 C 0.04447 0.74007 0.89589 0.0
C153 C 0.03258 0.72834 0.93009 0.0
C154 C 0.03716 0.7399 0.96479 0.0
C155 C 0.0535 0.76331 0.9663 0.0
C156 C 0.06374 0.77564 0.93303 0.0
H157 H 0.08449 0.69031 0.89623 0.0
C158 C 0.05828 0.68491 0.87602 0.0
H159 H 1.00623 0.69587 0.83846 0.0
H160 H 0.074 0.79734 0.79199 0.0
H161 H 0.07171 0.77609 0.73256 0.0
H162 H 0.05834 0.73239 0.73077 0.0
H163 H 0.04617 0.70982 0.78834 0.0
C164 C 0.0324 0.70161 0.85848 0.0
C165 C 0.04296 0.72784 0.86068 0.0
C166 C 0.05201 0.74065 0.82669 0.0
C167 C 0.06185 0.76567 0.82785 0.0
C168 C 0.06808 0.77819 0.79318 0.0
C169 C 0.06662 0.76623 0.75867 0.0
C170 C 0.05895 0.74165 0.75765 0.0
C171 C 0.05175 0.72893 0.79108 0.0
H172 H 0.51968 0.69532 0.60457 0.0
C173 C 0.54321 0.68854 0.62603 0.0
H174 H 0.59379 0.69672 0.66652 0.0
H175 H 0.54861 0.79756 0.56537 0.0
H176 H 0.56845 0.77503 0.50917 0.0
H177 H 0.59076 0.73235 0.5137 0.0
H178 H 0.59141 0.71174 0.57423 0.0
C179 C 0.57027 0.70381 0.64528 0.0
C180 C 0.56479 0.73044 0.64253 0.0
C181 C 0.56843 0.74267 0.6073 0.0
C182 C 0.55961 0.76781 0.60513 0.0
C183 C 0.5583 0.77894 0.56904 0.0
C184 C 0.56915 0.76615 0.53647 0.0
C185 C 0.58142 0.74209 0.53899 0.0
C186 C 0.58117 0.7304 0.5739 0.0
H187 H 0.60829 0.81511 0.60896 0.0
C188 C 0.57905 0.82251 0.62397 0.0
H189 H 0.51731 0.81559 0.65249 0.0
H190 H 0.55269 0.71271 0.71454 0.0
H191 H 0.53978 0.73582 0.77124 0.0
H192 H 0.53425 0.77999 0.76858 0.0
H193 H 0.54059 0.80121 0.70912 0.0
C194 C 0.54643 0.80785 0.63774 0.0
C195 C 0.55196 0.78117 0.6387 0.0
C196 C 0.55005 0.76906 0.67412 0.0
C197 C 0.55532 0.74367 0.67589 0.0
C198 C 0.55066 0.73201 0.71145 0.0
C199 C 0.54299 0.74506 0.74436 0.0
C200 C 0.53973 0.7699 0.74285 0.0
C201 C 0.54322 0.78185 0.70832 0.0
H202 H 0.515 0.31776 0.39265 0.0
C203 C 0.54453 0.32365 0.37639 0.0
H204 H 0.60328 0.31366 0.34599 0.0
H205 H 0.51808 0.21329 0.42831 0.0
H206 H 0.52596 0.23356 0.48858 0.0
H207 H 0.5545 0.27523 0.49174 0.0
H208 H 0.57362 0.29713 0.43452 0.0
C209 C 0.57387 0.30742 0.36209 0.0
C210 C 0.56345 0.28115 0.36161 0.0
C211 C 0.55582 0.26805 0.39557 0.0
C212 C 0.54295 0.24337 0.39398 0.0
C213 C 0.53094 0.2315 0.42802 0.0
C214 C 0.53487 0.24301 0.46281 0.0
C215 C 0.55068 0.26651 0.46458 0.0
C216 C 0.56111 0.27896 0.43146 0.0
H217 H 0.58394 0.1937 0.39381 0.0
C218 C 0.55784 0.18831 0.37349 0.0
H219 H 0.50562 0.19927 0.33608 0.0
H220 H 0.573 0.30098 0.29064 0.0
H221 H 0.57157 0.27987 0.23107 0.0
H222 H 0.55863 0.23614 0.22892 0.0
H223 H 0.54605 0.2134 0.28626 0.0
C224 C 0.53166 0.205 0.35623 0.0
C225 C 0.54195 0.23124 0.35869 0.0
C226 C 0.55121 0.24416 0.32484 0.0
C227 C 0.5608 0.26919 0.32622 0.0
C228 C 0.56727 0.2818 0.29167 0.0
C229 C 0.56629 0.26993 0.25708 0.0
C230 C 0.55886 0.24534 0.25586 0.0
C231 C 0.55142 0.23252 0.28916 0.0
H232 H 0.40004 0.0942 0.30266 0.0
C233 C 0.41897 0.1036 0.28069 0.0
H234 H 0.41511 0.12163 0.22831 0.0
H235 H 0.21219 0.06472 0.24463 0.0
H236 H 0.25548 0.02748 0.24525 0.0
H237 H 0.34013 0.02788 0.2448 0.0
H238 H 0.38205 0.06551 0.24454 0.0
C239 C 0.39652 0.11155 0.24972 0.0
C240 C 0.34524 0.11075 0.24669 0.0
C241 C 0.32118 0.08858 0.24524 0.0
C242 C 0.27222 0.08834 0.24362 0.0
C243 C 0.24922 0.06595 0.24436 0.0
C244 C 0.27366 0.04444 0.24493 0.0
C245 C 0.32133 0.04466 0.24482 0.0
C246 C 0.34499 0.0664 0.24493 0.0
H247 H 0.19166 0.09382 0.18645 0.0
C248 C 0.17303 0.10284 0.20889 0.0
H249 H 0.1778 0.12048 0.26137 0.0
H250 H 0.37995 0.15653 0.24972 0.0
H251 H 0.33688 0.19361 0.2454 0.0
H252 H 0.25264 0.19315 0.23844 0.0
H253 H 0.21095 0.1556 0.23628 0.0
C254 C 0.19602 0.11059 0.23963 0.0
C255 C 0.24736 0.11026 0.24168 0.0
C256 C 0.27151 0.13241 0.24215 0.0
C257 C 0.32029 0.13266 0.24505 0.0
C258 C 0.34311 0.15514 0.24661 0.0
C259 C 0.31878 0.17664 0.24431 0.0
C260 C 0.27137 0.17639 0.24049 0.0
C261 C 0.24784 0.15463 0.23943 0.0
H262 H 0.69289 0.3971 0.24092 0.0
C263 C 0.6856 0.40532 0.26813 0.0
H264 H 0.71245 0.42611 0.31307 0.0
H265 H 0.88812 0.37501 0.22167 0.0
H266 H 0.85802 0.3375 0.24602 0.0
H267 H 0.78701 0.33677 0.28382 0.0
H268 H 0.74509 0.37345 0.29638 0.0
C269 C 0.71891 0.41746 0.28609 0.0
C270 C 0.76588 0.41859 0.26975 0.0
C271 C 0.79159 0.39714 0.26498 0.0
C272 C 0.83414 0.39779 0.24558 0.0
C273 C 0.857 0.37581 0.23818 0.0
C274 C 0.83988 0.35407 0.2517 0.0
C275 C 0.7998 0.35364 0.27279 0.0
C276 C 0.77583 0.37485 0.27948 0.0
H277 H 0.93118 0.41021 0.26809 0.0
C278 C 0.93613 0.41454 0.23834 0.0
H279 H 0.90341 0.42516 0.18738 0.0
H280 H 0.72602 0.46293 0.27531 0.0
H281 H 0.75834 0.50082 0.25392 0.0
H282 H 0.83438 0.5022 0.22349 0.0
H283 H 0.87848 0.46566 0.21393 0.0
C284 C 0.89972 0.42097 0.21727 0.0
C285 C 0.85287 0.42014 0.23383 0.0
C286 C 0.82775 0.44162 0.2394 0.0
C287 C 0.7841 0.44084 0.2573 0.0
C288 C 0.75945 0.46254 0.26209 0.0
C289 C 0.77761 0.48439 0.24996 0.0
C290 C 0.82043 0.48517 0.23281 0.0
C291 C 0.84539 0.46409 0.22752 0.0
H292 H 0.21682 0.91463 0.81044 0.0
C293 C 0.19587 0.90571 0.78921 0.0
H294 H 0.19423 0.88944 0.73545 0.0
H295 H 0.39577 0.94779 0.74097 0.0
H296 H 0.35118 0.98454 0.74452 0.0
H297 H 0.26675 0.98318 0.7491 0.0
H298 H 0.22645 0.94506 0.75086 0.0
C299 C 0.21482 0.8989 0.75633 0.0
C300 C 0.26531 0.90025 0.75005 0.0
C301 C 0.28816 0.92272 0.74758 0.0
C302 C 0.33674 0.92352 0.74329 0.0
C303 C 0.35887 0.94615 0.74288 0.0
C304 C 0.3337 0.96738 0.74508 0.0
C305 C 0.28617 0.96662 0.74779 0.0
C306 C 0.26348 0.94461 0.74901 0.0
H307 H 0.41337 0.91845 0.68206 0.0
C308 C 0.43353 0.90974 0.70412 0.0
H309 H 0.43289 0.89275 0.75751 0.0
H310 H 0.2324 0.8541 0.75377 0.0
H311 H 0.27649 0.81751 0.74714 0.0
H312 H 0.36003 0.81895 0.73639 0.0
H313 H 0.39998 0.85699 0.73257 0.0
C314 C 0.41297 0.90211 0.73597 0.0
C315 C 0.36209 0.90187 0.73999 0.0
C316 C 0.33904 0.87943 0.74142 0.0
C317 C 0.29072 0.87862 0.74671 0.0
C318 C 0.26889 0.85589 0.74904 0.0
C319 C 0.29382 0.83468 0.74539 0.0
C320 C 0.34084 0.83549 0.73942 0.0
C321 C 0.36336 0.85751 0.73742 0.0
H322 H 0.69163 0.59056 0.68824 0.0
C323 C 0.67292 0.59929 0.71092 0.0
H324 H 0.67743 0.61623 0.76398 0.0
H325 H 0.88202 0.56171 0.74676 0.0
H326 H 0.84025 0.52404 0.74534 0.0
H327 H 0.7556 0.52355 0.74497 0.0
H328 H 0.71216 0.56073 0.74525 0.0
C329 C 0.6958 0.60667 0.74196 0.0
C330 C 0.74715 0.60635 0.74426 0.0
C331 C 0.77209 0.58443 0.74556 0.0
C332 C 0.82105 0.5847 0.74758 0.0
C333 C 0.84495 0.56256 0.74678 0.0
C334 C 0.82138 0.5408 0.74573 0.0
C335 C 0.77371 0.54053 0.74538 0.0
C336 C 0.74918 0.56202 0.74532 0.0
H337 H 0.89955 0.59014 0.80595 0.0
C338 C 0.91861 0.59962 0.78414 0.0
H339 H 0.91494 0.6179 0.73196 0.0
H340 H 0.71064 0.65173 0.74064 0.0
H341 H 0.75218 0.68926 0.74475 0.0
H342 H 0.83636 0.68968 0.75211 0.0
H343 H 0.87954 0.65258 0.75499 0.0
C344 C 0.89629 0.60768 0.75316 0.0
C345 C 0.84502 0.60686 0.74996 0.0
C346 C 0.81999 0.62876 0.74903 0.0
C347 C 0.77123 0.62851 0.74583 0.0
C348 C 0.74751 0.65074 0.74395 0.0
C349 C 0.77095 0.67249 0.74613 0.0
C350 C 0.81833 0.67272 0.75019 0.0
C351 C 0.84272 0.65122 0.75166 0.0
H352 H 0.68551 0.91539 0.75002 0.0
C353 C 0.6913 0.91443 0.71969 0.0
H354 H 0.74071 0.91481 0.676 0.0
H355 H 0.90275 0.96066 0.76937 0.0
H356 H 0.88214 0.99417 0.72848 0.0
H357 H 0.81231 0.99267 0.68883 0.0
H358 H 0.76259 0.95768 0.68983 0.0
C359 C 0.73442 0.91545 0.70627 0.0
C360 C 0.77515 0.91675 0.73173 0.0
C361 C 0.8039 0.93729 0.73071 0.0
C362 C 0.84428 0.93814 0.75345 0.0
C363 C 0.87203 0.95899 0.75227 0.0
C364 C 0.86051 0.97837 0.72905 0.0
C365 C 0.82117 0.97753 0.70673 0.0
C366 C 0.79301 0.95731 0.7075 0.0
H367 H 0.9424 0.91324 0.75373 0.0
C368 C 0.9397 0.91444 0.78434 0.0
H369 H 0.89497 0.9188 0.83076 0.0
H370 H 0.73067 0.87329 0.73745 0.0
H371 H 0.75102 0.8402 0.77872 0.0
H372 H 0.81912 0.8425 0.82021 0.0
H373 H 0.86753 0.87786 0.82023 0.0
C374 C 0.89857 0.91864 0.80016 0.0
C375 C 0.85582 0.91842 0.77707 0.0
C376 C 0.82685 0.89798 0.77846 0.0
C377 C 0.78691 0.89693 0.75528 0.0
C378 C 0.76034 0.87559 0.75549 0.0
C379 C 0.77188 0.8563 0.77885 0.0
C380 C 0.81025 0.85757 0.80215 0.0
C381 C 0.83768 0.87804 0.80194 0.0
H382 H 0.38342 0.59038 0.67839 0.0
C383 C 0.40859 0.59645 0.69906 0.0
H384 H 0.41827 0.60881 0.75484 0.0
H385 H 0.21377 0.64584 0.76929 0.0
H386 H 0.25693 0.683 0.76982 0.0
H387 H 0.34027 0.68311 0.75793 0.0
H388 H 0.38105 0.64603 0.74578 0.0
C389 C 0.39443 0.60128 0.73435 0.0
C390 C 0.34433 0.60073 0.7436 0.0
C391 C 0.32081 0.62262 0.75043 0.0
C392 C 0.27252 0.6226 0.75663 0.0
C393 C 0.25022 0.64475 0.76386 0.0
C394 C 0.2746 0.66626 0.76432 0.0
C395 C 0.32152 0.66632 0.75767 0.0
C396 C 0.34452 0.64485 0.75077 0.0
H397 H 0.20476 0.5832 0.81587 0.0
C398 C 0.18104 0.59226 0.79673 0.0
H399 H 0.17486 0.61161 0.74562 0.0
H400 H 0.37906 0.5554 0.73533 0.0
H401 H 0.3356 0.51825 0.73311 0.0
H402 H 0.25138 0.51847 0.74011 0.0
H403 H 0.21014 0.55582 0.74989 0.0
C404 C 0.19714 0.60098 0.76386 0.0
C405 C 0.24755 0.60071 0.75587 0.0
C406 C 0.27105 0.57882 0.74903 0.0
C407 C 0.31952 0.57878 0.74353 0.0
C408 C 0.34219 0.55655 0.73835 0.0
C409 C 0.31769 0.53507 0.73726 0.0
C410 C 0.27029 0.53519 0.74132 0.0
C411 C 0.24706 0.55675 0.74713 0.0
H412 H 0.70604 0.08826 0.30876 0.0
C413 C 0.68162 0.09719 0.29006 0.0
H414 H 0.67361 0.1164 0.23896 0.0
H415 H 0.88017 0.15099 0.23745 0.0
H416 H 0.83948 0.18811 0.24979 0.0
H417 H 0.75616 0.18802 0.26181 0.0
H418 H 0.71294 0.15087 0.26128 0.0
C419 C 0.69656 0.10591 0.25683 0.0
C420 C 0.7467 0.10573 0.24786 0.0
C421 C 0.77162 0.12764 0.24844 0.0
C422 C 0.81986 0.12765 0.24207 0.0
C423 C 0.84364 0.14986 0.24249 0.0
C424 C 0.8207 0.17133 0.24951 0.0
C425 C 0.77379 0.17129 0.25624 0.0
C426 C 0.74937 0.14978 0.25578 0.0
H427 H 0.88382 0.09718 0.16971 0.0
C428 C 0.90857 0.10228 0.19136 0.0
H429 H 0.91707 0.11279 0.24825 0.0
H430 H 0.70915 0.06089 0.24173 0.0
H431 H 0.75021 0.02358 0.2311 0.0
H432 H 0.83431 0.02337 0.22324 0.0
H433 H 0.87785 0.0605 0.22552 0.0
C434 C 0.89356 0.10625 0.22668 0.0
C435 C 0.84331 0.10577 0.2351 0.0
C436 C 0.81847 0.08385 0.23473 0.0
C437 C 0.77008 0.08387 0.24057 0.0
C438 C 0.74603 0.06181 0.23864 0.0
C439 C 0.76915 0.04029 0.23235 0.0
C440 C 0.81649 0.04018 0.22781 0.0
C441 C 0.84104 0.06164 0.22898 0.0
H442 H 0.18625 0.42015 0.24958 0.0
C443 C 0.18931 0.41699 0.21934 0.0
H444 H 0.23516 0.41321 0.17341 0.0
H445 H 0.39991 0.46318 0.26204 0.0
H446 H 0.3803 0.49487 0.21735 0.0
H447 H 0.3114 0.49165 0.17685 0.0
H448 H 0.26165 0.45672 0.18077 0.0
C449 C 0.23113 0.4161 0.20361 0.0
C450 C 0.27312 0.41782 0.22737 0.0
C451 C 0.30192 0.43823 0.22445 0.0
C452 C 0.34177 0.44003 0.24762 0.0
C453 C 0.3696 0.46078 0.24467 0.0
C454 C 0.35863 0.47913 0.21927 0.0
C455 C 0.3198 0.47732 0.19649 0.0
C456 C 0.29158 0.45718 0.19898 0.0
H457 H 0.4381 0.41479 0.25004 0.0
C458 C 0.43596 0.41702 0.28055 0.0
H459 H 0.39213 0.42341 0.32694 0.0
H460 H 0.22831 0.37476 0.23674 0.0
H461 H 0.24789 0.34328 0.28138 0.0
H462 H 0.3153 0.34716 0.32335 0.0
H463 H 0.36373 0.38249 0.32058 0.0
C464 C 0.39538 0.42224 0.29637 0.0
C465 C 0.35268 0.42134 0.27344 0.0
C466 C 0.32387 0.40092 0.2764 0.0
C467 C 0.28445 0.39894 0.25287 0.0
C468 C 0.25773 0.37769 0.25488 0.0
C469 C 0.2688 0.35933 0.28019 0.0
C470 C 0.30679 0.3615 0.30375 0.0
C471 C 0.33424 0.38193 0.30189 0.0
H472 H 0.0267 0.06035 0.02406 0.0
C473 C 0.04987 0.06218 0.04808 0.0
H474 H 0.10285 0.046 0.08005 0.0
H475 H 0.04307 0.94058 0.03513 0.0
H476 H 0.03813 0.93987 0.10361 0.0
H477 H 0.05141 0.97664 0.14082 0.0
H478 H 0.07021 0.01422 0.10992 0.0
C479 C 0.08044 0.04467 0.0555 0.0
C480 C 0.07937 0.02182 0.03351 0.0
C481 C 0.06844 0.99996 0.05216 0.0
C482 C 0.05978 0.97886 0.03067 0.0
C483 C 0.04915 0.95724 0.05001 0.0
C484 C 0.04634 0.95655 0.08933 0.0
C485 C 0.05388 0.97724 0.11028 0.0
C486 C 0.06471 0.99874 0.0921 0.0
H487 H 0.10927 0.95235 0.94139 0.0
C488 C 0.07412 0.94631 0.94521 0.0
H489 H 1.011 0.95224 0.97263 0.0
H490 H 0.11101 0.0589 0.98991 0.0
H491 H 0.11408 0.06013 0.92127 0.0
H492 H 0.09031 0.02507 0.88345 0.0
H493 H 0.06482 0.98848 0.91385 0.0
C494 C 0.04609 0.95832 0.96858 0.0
C495 C 0.06131 0.9797 0.99058 0.0
C496 C 0.07402 1.00136 0.97197 0.0
C497 C 0.08474 0.02214 0.99362 0.0
C498 C 0.10021 0.04305 0.97464 0.0
C499 C 0.10247 0.04393 0.93531 0.0
C500 C 0.0893 0.02416 0.91404 0.0
C501 C 0.07509 1.00312 0.93196 0.0
H502 H 0.99506 0.55136 0.94087 0.0
C503 C 0.0293 0.55856 0.94547 0.0
H504 H 0.09168 0.55528 0.97548 0.0
H505 H 0.03531 0.49515 0.11554 0.0
H506 H 0.04819 0.53409 0.14396 0.0
H507 H 0.05797 0.57025 0.10426 0.0
H508 H 0.05543 0.56759 0.0358 0.0
C509 C 0.05753 0.54801 0.97071 0.0
C510 C 0.04385 0.52679 0.9939 0.0
C511 C 0.04386 0.52871 0.03391 0.0
C512 C 0.03722 0.50793 0.0568 0.0
C513 C 0.03942 0.51032 0.09668 0.0
C514 C 0.04684 0.5326 0.11343 0.0
C515 C 0.05241 0.55295 0.09109 0.0
C516 C 0.05102 0.55115 0.05181 0.0
H517 H 0.08805 0.4487 0.03491 0.0
C518 C 0.06422 0.44656 0.05829 0.0
H519 H 1.00787 0.46146 0.08726 0.0
H520 H 0.0439 0.51593 0.91788 0.0
H521 H 1.02436 0.47773 0.88973 0.0
H522 H 1.00414 0.44288 0.92963 0.0
H523 H 1.00478 0.446 0.99816 0.0
C524 C 0.03103 0.46301 0.06336 0.0
C525 C 0.02984 0.48526 0.03961 0.0
C526 C 0.02589 0.48371 0.99966 0.0
C527 C 0.03457 0.50425 0.97669 0.0
C528 C 0.03504 0.50143 0.93685 0.0
C529 C 1.02425 0.47947 0.92024 0.0
C530 C 1.01308 0.45982 0.94269 0.0
C531 C 1.01391 0.4618 0.98194 0.0
H532 H 0.61061 0.45629 0.43284 0.0
C533 C 0.57585 0.45004 0.438 0.0
H534 H 0.51452 0.45522 0.46838 0.0
H535 H 0.57818 0.51509 0.60579 0.0
H536 H 0.56503 0.47645 0.63548 0.0
H537 H 0.55301 0.44011 0.59696 0.0
H538 H 0.55361 0.44229 0.52839 0.0
C539 C 0.54912 0.46161 0.46293 0.0
C540 C 0.56513 0.4827 0.48522 0.0
C541 C 0.56627 0.48105 0.52526 0.0
C542 C 0.57416 0.50193 0.54745 0.0
C543 C 0.57307 0.49983 0.58742 0.0
C544 C 0.56551 0.47772 0.6049 0.0
C545 C 0.55868 0.45727 0.58323 0.0
C546 C 0.55896 0.4588 0.54389 0.0
H547 H 0.52339 0.56097 0.52393 0.0
C548 C 0.54754 0.56324 0.54718 0.0
H549 H 0.60434 0.54855 0.57633 0.0
H550 H 0.56454 0.49281 0.40886 0.0
H551 H 0.58443 0.53065 0.37937 0.0
H552 H 0.60603 0.56572 0.41803 0.0
H553 H 0.60652 0.56319 0.48668 0.0
C554 C 0.58088 0.54686 0.55252 0.0
C555 C 0.58153 0.52442 0.5295 0.0
C556 C 0.58466 0.52563 0.48948 0.0
C557 C 0.57493 0.50497 0.46722 0.0
C558 C 0.57393 0.50744 0.4273 0.0
C559 C 0.58497 0.52918 0.40993 0.0
C560 C 0.59693 0.54895 0.43168 0.0
C561 C 0.59676 0.54731 0.471 0.0
H562 H 0.60671 0.95246 0.5289 0.0
C563 C 0.58073 0.94864 0.55009 0.0
H564 H 0.51877 0.96013 0.57494 0.0
H565 H 0.55218 0.06901 0.5302 0.0
H566 H 0.54793 0.07067 0.5987 0.0
H567 H 0.54108 0.03355 0.63659 0.0
H568 H 0.53801 0.99462 0.60632 0.0
C569 C 0.54425 0.9633 0.55312 0.0
C570 C 0.54146 0.98577 0.53003 0.0
C571 C 0.543 0.00841 0.54829 0.0
C572 C 0.54782 0.0298 0.5265 0.0
C573 C 0.54929 0.05218 0.54543 0.0
C574 C 0.54674 0.0534 0.58472 0.0
C575 C 0.54283 0.03251 0.60605 0.0
C576 C 0.54107 0.01024 0.58824 0.0
H577 H 0.5019 0.05203 0.43318 0.0
C578 C 0.53485 0.06043 0.43897 0.0
H579 H 0.5961 0.05911 0.47096 0.0
H580 H 0.52807 0.94607 0.486 0.0
H581 H 0.53378 0.94414 0.41755 0.0
H582 H 0.55017 0.98057 0.38003 0.0
H583 H 0.55963 0.01912 0.41043 0.0
C584 C 0.56328 0.05067 0.46483 0.0
C585 C 0.55162 0.02853 0.48657 0.0
C586 C 0.54807 1.00595 0.46817 0.0
C587 C 0.54144 0.98468 0.48993 0.0
C588 C 0.53538 0.96256 0.47088 0.0
C589 C 0.53823 0.96123 0.43162 0.0
C590 C 0.54725 0.98175 0.41049 0.0
C591 C 0.55227 1.00387 0.42838 0.0
loop_
_geom_bond_atom_site_label_1
_geom_bond_atom_site_label_2
_geom_bond_distance
_geom_bond_site_symmetry_2
_ccdc_geom_bond_type
O0 Cd1 2.223 . S
O0 C8 1.315 . S
Cd1 O0 2.223 . S
Cd1 O4 2.297 . S
Cd1 O5 2.439 1_655 S
Cd1 O11 2.240 1_655 S
Cd2 O3 2.240 1_455 S
Cd2 O10 2.223 . S
Cd2 O12 2.297 . S
Cd2 O13 2.439 . S
O3 Cd2 2.240 1_655 S
O3 C8 1.279 . S
O4 Cd1 2.297 . S
O4 C6 1.243 1_655 S
O5 Cd1 2.439 1_455 S
O5 C6 1.212 . S
C6 O4 1.243 1_455 S
C6 O5 1.212 . S
C7 O12 1.247 . S
C7 O13 1.208 . S
C8 O0 1.315 . S
C8 O3 1.279 . S
C9 O10 1.315 . S
C9 O11 1.279 . S
O10 Cd2 2.223 . S
O10 C9 1.315 . S
O11 Cd1 2.240 1_455 S
O11 C9 1.279 . S
O12 Cd2 2.297 . S
O12 C7 1.247 . S
O13 Cd2 2.439 . S
O13 C7 1.208 . S
O14 Cd15 2.223 . S
O14 C22 1.315 . S
Cd15 O14 2.223 . S
Cd15 O18 2.297 . S
Cd15 O19 2.439 . S
Cd15 O25 2.240 . S
Cd16 O17 2.240 . S
Cd16 O24 2.223 . S
Cd16 O26 2.297 1_455 S
Cd16 O27 2.439 1_455 S
O17 Cd16 2.240 . S
O17 C22 1.279 . S
O18 Cd15 2.297 . S
O18 C20 1.247 . S
O19 Cd15 2.439 . S
O19 C20 1.208 . S
C20 O18 1.247 . S
C20 O19 1.208 . S
C21 O26 1.247 . S
C21 O27 1.208 . S
C22 O14 1.315 . S
C22 O17 1.279 . S
C23 O24 1.315 . S
C23 O25 1.279 . S
O24 Cd16 2.223 . S
O24 C23 1.315 . S
O25 Cd15 2.240 . S
O25 C23 1.279 . S
O26 Cd16 2.297 1_655 S
O26 C21 1.247 . S
O27 Cd16 2.439 1_655 S
O27 C21 1.208 . S
O28 Cd29 2.223 . S
O28 C36 1.315 . S
Cd29 O28 2.223 . S
Cd29 O32 2.297 . S
Cd29 O33 2.439 1_655 S
Cd29 O39 2.240 1_655 S
Cd30 O31 2.240 1_455 S
Cd30 O38 2.223 . S
Cd30 O40 2.297 . S
Cd30 O41 2.439 . S
O31 Cd30 2.240 1_655 S
O31 C36 1.279 . S
O32 Cd29 2.297 . S
O32 C34 1.243 1_655 S
O33 Cd29 2.439 1_455 S
O33 C34 1.212 . S
C34 O32 1.243 1_455 S
C34 O33 1.212 . S
C35 O40 1.247 . S
C35 O41 1.208 . S
C36 O28 1.315 . S
C36 O31 1.279 . S
C37 O38 1.315 . S
C37 O39 1.279 . S
O38 Cd30 2.223 . S
O38 C37 1.315 . S
O39 Cd29 2.240 1_455 S
O39 C37 1.279 . S
O40 Cd30 2.297 . S
O40 C35 1.247 . S
O41 Cd30 2.439 . S
O41 C35 1.208 . S
O42 Cd43 2.223 . S
O42 C50 1.315 . S
Cd43 O42 2.223 . S
Cd43 O46 2.297 . S
Cd43 O47 2.439 . S
Cd43 O53 2.240 . S
Cd44 O45 2.240 . S
Cd44 O52 2.223 . S
Cd44 O54 2.297 1_455 S
Cd44 O55 2.439 1_455 S
O45 Cd44 2.240 . S
O45 C50 1.279 . S
O46 Cd43 2.297 . S
O46 C48 1.247 . S
O47 Cd43 2.439 . S
O47 C48 1.208 . S
C48 O46 1.247 . S
C48 O47 1.208 . S
C49 O54 1.247 . S
C49 O55 1.208 . S
C50 O42 1.315 . S
C50 O45 1.279 . S
C51 O52 1.315 . S
C51 O53 1.279 . S
O52 Cd44 2.223 . S
O52 C51 1.315 . S
O53 Cd43 2.240 . S
O53 C51 1.279 . S
O54 Cd44 2.297 1_655 S
O54 C49 1.247 . S
O55 Cd44 2.439 1_655 S
O55 C49 1.208 . S
O56 Cd57 2.223 . S
O56 C64 1.315 . S
Cd57 O56 2.223 . S
Cd57 O60 2.297 . S
Cd57 O61 2.439 . S
Cd57 O67 2.240 . S
Cd58 O59 2.240 . S
Cd58 O66 2.223 . S
Cd58 O68 2.297 . S
Cd58 O69 2.439 . S
O59 Cd58 2.240 . S
O59 C64 1.279 . S
O60 Cd57 2.297 . S
O60 C62 1.247 . S
O61 Cd57 2.439 . S
O61 C62 1.208 . S
C62 O60 1.247 . S
C62 O61 1.208 . S
C63 O68 1.247 . S
C63 O69 1.208 . S
C64 O56 1.315 . S
C64 O59 1.279 . S
C65 O66 1.315 . S
C65 O67 1.279 . S
O66 Cd58 2.223 . S
O66 C65 1.315 . S
O67 Cd57 2.240 . S
O67 C65 1.279 . S
O68 Cd58 2.297 . S
O68 C63 1.247 . S
O69 Cd58 2.439 . S
O69 C63 1.208 . S
O70 Cd71 2.223 . S
O70 C78 1.315 . S
Cd71 O70 2.223 . S
Cd71 O74 2.297 . S
Cd71 O75 2.439 . S
Cd71 O81 2.240 . S
Cd72 O73 2.240 . S
Cd72 O80 2.223 . S
Cd72 O82 2.297 . S
Cd72 O83 2.439 . S
O73 Cd72 2.240 . S
O73 C78 1.279 . S
O74 Cd71 2.297 . S
O74 C76 1.247 . S
O75 Cd71 2.439 . S
O75 C76 1.208 . S
C76 O74 1.247 . S
C76 O75 1.208 . S
C77 O82 1.247 . S
C77 O83 1.208 . S
C78 O70 1.315 . S
C78 O73 1.279 . S
C79 O80 1.315 . S
C79 O81 1.279 . S
O80 Cd72 2.223 . S
O80 C79 1.315 . S
O81 Cd71 2.240 . S
O81 C79 1.279 . S
O82 Cd72 2.297 . S
O82 C77 1.247 . S
O83 Cd72 2.439 . S
O83 C77 1.208 . S
O84 Cd85 2.223 . S
O84 C92 1.315 . S
Cd85 O84 2.223 . S
Cd85 O88 2.297 . S
Cd85 O89 2.439 . S
Cd85 O95 2.240 . S
Cd86 O87 2.240 . S
Cd86 O94 2.223 . S
Cd86 O96 2.297 . S
Cd86 O97 2.439 . S
O87 Cd86 2.240 . S
O87 C92 1.279 . S
O88 Cd85 2.297 . S
O88 C90 1.247 . S
O89 Cd85 2.439 . S
O89 C90 1.208 . S
C90 O88 1.247 . S
C90 O89 1.208 . S
C91 O96 1.247 . S
C91 O97 1.208 . S
C92 O84 1.315 . S
C92 O87 1.279 . S
C93 O94 1.315 . S
C93 O95 1.279 . S
O94 Cd86 2.223 . S
O94 C93 1.315 . S
O95 Cd85 2.240 . S
O95 C93 1.279 . S
O96 Cd86 2.297 . S
O96 C91 1.247 . S
O97 Cd86 2.439 . S
O97 C91 1.208 . S
O98 Cd99 2.223 . S
O98 C106 1.315 . S
Cd99 O98 2.223 . S
Cd99 O102 2.297 . S
Cd99 O103 2.439 . S
Cd99 O109 2.240 . S
Cd100 O101 2.240 . S
Cd100 O108 2.223 . S
Cd100 O110 2.297 . S
Cd100 O111 2.439 . S
O101 Cd100 2.240 . S
O101 C106 1.279 . S
O102 Cd99 2.297 . S
O102 C104 1.247 . S
O103 Cd99 2.439 . S
O103 C104 1.208 . S
C104 O102 1.247 . S
C104 O103 1.208 . S
C105 O110 1.247 . S
C105 O111 1.208 . S
C106 O98 1.315 . S
C106 O101 1.279 . S
C107 O108 1.315 . S
C107 O109 1.279 . S
O108 Cd100 2.223 . S
O108 C107 1.315 . S
O109 Cd99 2.240 . S
O109 C107 1.279 . S
O110 Cd100 2.297 . S
O110 C105 1.247 . S
O111 Cd100 2.439 . S
O111 C105 1.208 . S
H112 C113 0.951 . S
C113 H112 0.951 . S
C113 C119 1.265 . S
H114 C119 0.950 . S
H115 C123 0.949 . S
H116 C124 0.950 . S
H117 C125 0.951 . S
H118 C126 0.951 . S
C119 C113 1.265 . S
C119 H114 0.950 . S
C119 C120 1.478 . S
C120 C119 1.478 . S
C120 C121 1.397 . S
C120 C137 1.394 . S
C121 C120 1.397 . S
C121 C122 1.438 . S
C121 C126 1.429 . S
C122 C121 1.438 . S
C122 C123 1.428 . S
C122 C135 1.394 . S
C123 H115 0.949 . S
C123 C122 1.428 . S
C123 C124 1.345 . S
C124 H116 0.950 . S
C124 C123 1.345 . S
C124 C125 1.424 . S
C125 H117 0.951 . S
C125 C124 1.424 . S
C125 C126 1.347 . S
C126 H118 0.951 . S
C126 C121 1.429 . S
C126 C125 1.347 . S
H127 C128 0.951 . S
C128 H127 0.951 . S
C128 C134 1.256 1_455 S
H129 C134 0.966 . S
H130 C138 0.949 . S
H131 C139 0.950 . S
H132 C140 0.951 . S
H133 C141 0.951 . S
C134 C128 1.256 1_655 S
C134 H129 0.966 . S
C134 C135 1.472 1_655 S
C135 C122 1.394 . S
C135 C134 1.472 1_455 S
C135 C136 1.397 . S
C136 C135 1.397 . S
C136 C137 1.438 . S
C136 C141 1.429 1_455 S
C137 C120 1.394 . S
C137 C136 1.438 . S
C137 C138 1.428 . S
C138 H130 0.949 . S
C138 C137 1.428 . S
C138 C139 1.345 1_455 S
C139 H131 0.950 . S
C139 C138 1.345 1_655 S
C139 C140 1.424 . S
C140 H132 0.951 . S
C140 C139 1.424 . S
C140 C141 1.347 . S
C141 H133 0.951 . S
C141 C136 1.429 1_655 S
C141 C140 1.347 . S
H142 C143 0.951 1_655 S
C143 H142 0.951 1_455 S
C143 C149 1.265 . S
H144 C149 0.950 . S
H145 C153 0.949 . S
H146 C154 0.950 . S
H147 C155 0.951 . S
H148 C156 0.951 . S
C149 C143 1.265 . S
C149 H144 0.950 . S
C149 C150 1.478 . S
C150 C149 1.478 . S
C150 C151 1.397 . S
C150 C167 1.394 . S
C151 C150 1.397 . S
C151 C152 1.438 . S
C151 C156 1.429 . S
C152 C151 1.438 . S
C152 C153 1.428 . S
C152 C165 1.394 . S
C153 H145 0.949 . S
C153 C152 1.428 . S
C153 C154 1.345 . S
C154 H146 0.950 . S
C154 C153 1.345 . S
C154 C155 1.424 . S
C155 H147 0.951 . S
C155 C154 1.424 . S
C155 C156 1.347 . S
C156 H148 0.951 . S
C156 C151 1.429 . S
C156 C155 1.347 . S
H157 C158 0.951 . S
C158 H157 0.951 . S
C158 C164 1.265 . S
H159 C164 0.950 1_655 S
H160 C168 0.949 . S
H161 C169 0.950 . S
H162 C170 0.951 . S
H163 C171 0.951 . S
C164 C158 1.265 . S
C164 H159 0.950 1_455 S
C164 C165 1.478 . S
C165 C152 1.394 . S
C165 C164 1.478 . S
C165 C166 1.397 . S
C166 C165 1.397 . S
C166 C167 1.438 . S
C166 C171 1.429 1_455 S
C167 C150 1.394 . S
C167 C166 1.438 . S
C167 C168 1.428 1_455 S
C168 H160 0.949 . S
C168 C167 1.428 1_655 S
C168 C169 1.345 . S
C169 H161 0.950 . S
C169 C168 1.345 . S
C169 C170 1.424 . S
C170 H162 0.951 . S
C170 C169 1.424 . S
C170 C171 1.347 . S
C171 H163 0.951 . S
C171 C166 1.429 1_655 S
C171 C170 1.347 . S
H172 C173 0.951 . S
C173 H172 0.951 . S
C173 C179 1.265 . S
H174 C179 0.950 . S
H175 C183 0.949 . S
H176 C184 0.950 . S
H177 C185 0.951 . S
H178 C186 0.951 . S
C179 C173 1.265 . S
C179 H174 0.950 . S
C179 C180 1.478 . S
C180 C179 1.478 . S
C180 C181 1.397 . S
C180 C197 1.394 . S
C181 C180 1.397 . S
C181 C182 1.438 . S
C181 C186 1.429 . S
C182 C181 1.438 . S
C182 C183 1.428 . S
C182 C195 1.394 . S
C183 H175 0.949 . S
C183 C182 1.428 . S
C183 C184 1.345 . S
C184 H176 0.950 . S
C184 C183 1.345 . S
C184 C185 1.424 . S
C185 H177 0.951 . S
C185 C184 1.424 . S
C185 C186 1.347 . S
C186 H178 0.951 . S
C186 C181 1.429 . S
C186 C185 1.347 . S
H187 C188 0.951 . S
C188 H187 0.951 . S
C188 C194 1.265 . S
H189 C194 0.950 . S
H190 C198 0.949 . S
H191 C199 0.950 . S
H192 C200 0.951 . S
H193 C201 0.951 . S
C194 C188 1.265 . S
C194 H189 0.950 . S
C194 C195 1.478 . S
C195 C182 1.394 . S
C195 C194 1.478 . S
C195 C196 1.397 . S
C196 C195 1.397 . S
C196 C197 1.438 . S
C196 C201 1.429 . S
C197 C180 1.394 . S
C197 C196 1.438 . S
C197 C198 1.428 . S
C198 H190 0.949 . S
C198 C197 1.428 . S
C198 C199 1.345 . S
C199 H191 0.950 . S
C199 C198 1.345 . S
C199 C200 1.424 . S
C200 H192 0.951 . S
C200 C199 1.424 . S
C200 C201 1.347 . S
C201 H193 0.951 . S
C201 C196 1.429 . S
C201 C200 1.347 . S
H202 C203 0.951 . S
C203 H202 0.951 . S
C203 C209 1.265 . S
H204 C209 0.950 . S
H205 C213 0.949 . S
H206 C214 0.950 . S
H207 C215 0.951 . S
H208 C216 0.951 . S
C209 C203 1.265 . S
C209 H204 0.950 . S
C209 C210 1.478 . S
C210 C209 1.478 . S
C210 C211 1.397 . S
C210 C227 1.394 . S
C211 C210 1.397 . S
C211 C212 1.438 . S
C211 C216 1.429 . S
C212 C211 1.438 . S
C212 C213 1.428 . S
C212 C225 1.394 . S
C213 H205 0.949 . S
C213 C212 1.428 . S
C213 C214 1.345 . S
C214 H206 0.950 . S
C214 C213 1.345 . S
C214 C215 1.424 . S
C215 H207 0.951 . S
C215 C214 1.424 . S
C215 C216 1.347 . S
C216 H208 0.951 . S
C216 C211 1.429 . S
C216 C215 1.347 . S
H217 C218 0.951 . S
C218 H217 0.951 . S
C218 C224 1.265 . S
H219 C224 0.950 . S
H220 C228 0.949 . S
H221 C229 0.950 . S
H222 C230 0.951 . S
H223 C231 0.951 . S
C224 C218 1.265 . S
C224 H219 0.950 . S
C224 C225 1.478 . S
C225 C212 1.394 . S
C225 C224 1.478 . S
C225 C226 1.397 . S
C226 C225 1.397 . S
C226 C227 1.438 . S
C226 C231 1.429 . S
C227 C210 1.394 . S
C227 C226 1.438 . S
C227 C228 1.428 . S
C228 H220 0.949 . S
C228 C227 1.428 . S
C228 C229 1.345 . S
C229 H221 0.950 . S
C229 C228 1.345 . S
C229 C230 1.424 . S
C230 H222 0.951 . S
C230 C229 1.424 . S
C230 C231 1.347 . S
C231 H223 0.951 . S
C231 C226 1.429 . S
C231 C230 1.347 . S
H232 C233 0.951 . S
C233 H232 0.951 . S
C233 C239 1.265 . S
H234 C239 0.950 . S
H235 C243 0.949 . S
H236 C244 0.950 . S
H237 C245 0.951 . S
H238 C246 0.951 . S
C239 C233 1.265 . S
C239 H234 0.950 . S
C239 C240 1.478 . S
C240 C239 1.478 . S
C240 C241 1.397 . S
C240 C257 1.394 . S
C241 C240 1.397 . S
C241 C242 1.438 . S
C241 C246 1.429 . S
C242 C241 1.438 . S
C242 C243 1.428 . S
C242 C255 1.394 . S
C243 H235 0.949 . S
C243 C242 1.428 . S
C243 C244 1.345 . S
C244 H236 0.950 . S
C244 C243 1.345 . S
C244 C245 1.424 . S
C245 H237 0.951 . S
C245 C244 1.424 . S
C245 C246 1.347 . S
C246 H238 0.951 . S
C246 C241 1.429 . S
C246 C245 1.347 . S
H247 C248 0.951 . S
C248 H247 0.951 . S
C248 C254 1.265 . S
H249 C254 0.950 . S
H250 C258 0.949 . S
H251 C259 0.950 . S
H252 C260 0.951 . S
H253 C261 0.951 . S
C254 C248 1.265 . S
C254 H249 0.950 . S
C254 C255 1.478 . S
C255 C242 1.394 . S
C255 C254 1.478 . S
C255 C256 1.397 . S
C256 C255 1.397 . S
C256 C257 1.438 . S
C256 C261 1.429 . S
C257 C240 1.394 . S
C257 C256 1.438 . S
C257 C258 1.428 . S
C258 H250 0.949 . S
C258 C257 1.428 . S
C258 C259 1.345 . S
C259 H251 0.950 . S
C259 C258 1.345 . S
C259 C260 1.424 . S
C260 H252 0.951 . S
C260 C259 1.424 . S
C260 C261 1.347 . S
C261 H253 0.951 . S
C261 C256 1.429 . S
C261 C260 1.347 . S
H262 C263 0.951 . S
C263 H262 0.951 . S
C263 C269 1.265 . S
H264 C269 0.950 . S
H265 C273 0.949 . S
H266 C274 0.950 . S
H267 C275 0.951 . S
H268 C276 0.951 . S
C269 C263 1.265 . S
C269 H264 0.950 . S
C269 C270 1.478 . S
C270 C269 1.478 . S
C270 C271 1.397 . S
C270 C287 1.394 . S
C271 C270 1.397 . S
C271 C272 1.438 . S
C271 C276 1.429 . S
C272 C271 1.438 . S
C272 C273 1.428 . S
C272 C285 1.394 . S
C273 H265 0.949 . S
C273 C272 1.428 . S
C273 C274 1.345 . S
C274 H266 0.950 . S
C274 C273 1.345 . S
C274 C275 1.424 . S
C275 H267 0.951 . S
C275 C274 1.424 . S
C275 C276 1.347 . S
C276 H268 0.951 . S
C276 C271 1.429 . S
C276 C275 1.347 . S
H277 C278 0.951 . S
C278 H277 0.951 . S
C278 C284 1.265 . S
H279 C284 0.950 . S
H280 C288 0.949 . S
H281 C289 0.950 . S
H282 C290 0.951 . S
H283 C291 0.951 . S
C284 C278 1.265 . S
C284 H279 0.950 . S
C284 C285 1.478 . S
C285 C272 1.394 . S
C285 C284 1.478 . S
C285 C286 1.397 . S
C286 C285 1.397 . S
C286 C287 1.438 . S
C286 C291 1.429 . S
C287 C270 1.394 . S
C287 C286 1.438 . S
C287 C288 1.428 . S
C288 H280 0.949 . S
C288 C287 1.428 . S
C288 C289 1.345 . S
C289 H281 0.950 . S
C289 C288 1.345 . S
C289 C290 1.424 . S
C290 H282 0.951 . S
C290 C289 1.424 . S
C290 C291 1.347 . S
C291 H283 0.951 . S
C291 C286 1.429 . S
C291 C290 1.347 . S
H292 C293 0.951 . S
C293 H292 0.951 . S
C293 C299 1.265 . S
H294 C299 0.950 . S
H295 C303 0.949 . S
H296 C304 0.950 . S
H297 C305 0.951 . S
H298 C306 0.951 . S
C299 C293 1.265 . S
C299 H294 0.950 . S
C299 C300 1.478 . S
C300 C299 1.478 . S
C300 C301 1.397 . S
C300 C317 1.394 . S
C301 C300 1.397 . S
C301 C302 1.438 . S
C301 C306 1.429 . S
C302 C301 1.438 . S
C302 C303 1.428 . S
C302 C315 1.394 . S
C303 H295 0.949 . S
C303 C302 1.428 . S
C303 C304 1.345 . S
C304 H296 0.950 . S
C304 C303 1.345 . S
C304 C305 1.424 . S
C305 H297 0.951 . S
C305 C304 1.424 . S
C305 C306 1.347 . S
C306 H298 0.951 . S
C306 C301 1.429 . S
C306 C305 1.347 . S
H307 C308 0.951 . S
C308 H307 0.951 . S
C308 C314 1.265 . S
H309 C314 0.950 . S
H310 C318 0.949 . S
H311 C319 0.950 . S
H312 C320 0.951 . S
H313 C321 0.951 . S
C314 C308 1.265 . S
C314 H309 0.950 . S
C314 C315 1.478 . S
C315 C302 1.394 . S
C315 C314 1.478 . S
C315 C316 1.397 . S
C316 C315 1.397 . S
C316 C317 1.438 . S
C316 C321 1.429 . S
C317 C300 1.394 . S
C317 C316 1.438 . S
C317 C318 1.428 . S
C318 H310 0.949 . S
C318 C317 1.428 . S
C318 C319 1.345 . S
C319 H311 0.950 . S
C319 C318 1.345 . S
C319 C320 1.424 . S
C320 H312 0.951 . S
C320 C319 1.424 . S
C320 C321 1.347 . S
C321 H313 0.951 . S
C321 C316 1.429 . S
C321 C320 1.347 . S
H322 C323 0.951 . S
C323 H322 0.951 . S
C323 C329 1.265 . S
H324 C329 0.950 . S
H325 C333 0.949 . S
H326 C334 0.950 . S
H327 C335 0.951 . S
H328 C336 0.951 . S
C329 C323 1.265 . S
C329 H324 0.950 . S
C329 C330 1.478 . S
C330 C329 1.478 . S
C330 C331 1.397 . S
C330 C347 1.394 . S
C331 C330 1.397 . S
C331 C332 1.438 . S
C331 C336 1.429 . S
C332 C331 1.438 . S
C332 C333 1.428 . S
C332 C345 1.394 . S
C333 H325 0.949 . S
C333 C332 1.428 . S
C333 C334 1.345 . S
C334 H326 0.950 . S
C334 C333 1.345 . S
C334 C335 1.424 . S
C335 H327 0.951 . S
C335 C334 1.424 . S
C335 C336 1.347 . S
C336 H328 0.951 . S
C336 C331 1.429 . S
C336 C335 1.347 . S
H337 C338 0.951 . S
C338 H337 0.951 . S
C338 C344 1.265 . S
H339 C344 0.950 . S
H340 C348 0.949 . S
H341 C349 0.950 . S
H342 C350 0.951 . S
H343 C351 0.951 . S
C344 C338 1.265 . S
C344 H339 0.950 . S
C344 C345 1.478 . S
C345 C332 1.394 . S
C345 C344 1.478 . S
C345 C346 1.397 . S
C346 C345 1.397 . S
C346 C347 1.438 . S
C346 C351 1.429 . S
C347 C330 1.394 . S
C347 C346 1.438 . S
C347 C348 1.428 . S
C348 H340 0.949 . S
C348 C347 1.428 . S
C348 C349 1.345 . S
C349 H341 0.950 . S
C349 C348 1.345 . S
C349 C350 1.424 . S
C350 H342 0.951 . S
C350 C349 1.424 . S
C350 C351 1.347 . S
C351 H343 0.951 . S
C351 C346 1.429 . S
C351 C350 1.347 . S
H352 C353 0.951 . S
C353 H352 0.951 . S
C353 C359 1.265 . S
H354 C359 0.950 . S
H355 C363 0.949 . S
H356 C364 0.950 . S
H357 C365 0.951 . S
H358 C366 0.951 . S
C359 C353 1.265 . S
C359 H354 0.950 . S
C359 C360 1.478 . S
C360 C359 1.478 . S
C360 C361 1.397 . S
C360 C377 1.394 . S
C361 C360 1.397 . S
C361 C362 1.438 . S
C361 C366 1.429 . S
C362 C361 1.438 . S
C362 C363 1.428 . S
C362 C375 1.394 . S
C363 H355 0.949 . S
C363 C362 1.428 . S
C363 C364 1.345 . S
C364 H356 0.950 . S
C364 C363 1.345 . S
C364 C365 1.424 . S
C365 H357 0.951 . S
C365 C364 1.424 . S
C365 C366 1.347 . S
C366 H358 0.951 . S
C366 C361 1.429 . S
C366 C365 1.347 . S
H367 C368 0.951 . S
C368 H367 0.951 . S
C368 C374 1.265 . S
H369 C374 0.950 . S
H370 C378 0.949 . S
H371 C379 0.950 . S
H372 C380 0.951 . S
H373 C381 0.951 . S
C374 C368 1.265 . S
C374 H369 0.950 . S
C374 C375 1.478 . S
C375 C362 1.394 . S
C375 C374 1.478 . S
C375 C376 1.397 . S
C376 C375 1.397 . S
C376 C377 1.438 . S
C376 C381 1.429 . S
C377 C360 1.394 . S
C377 C376 1.438 . S
C377 C378 1.428 . S
C378 H370 0.949 . S
C378 C377 1.428 . S
C378 C379 1.345 . S
C379 H371 0.950 . S
C379 C378 1.345 . S
C379 C380 1.424 . S
C380 H372 0.951 . S
C380 C379 1.424 . S
C380 C381 1.347 . S
C381 H373 0.951 . S
C381 C376 1.429 . S
C381 C380 1.347 . S
H382 C383 0.951 . S
C383 H382 0.951 . S
C383 C389 1.265 . S
H384 C389 0.950 . S
H385 C393 0.949 . S
H386 C394 0.950 . S
H387 C395 0.951 . S
H388 C396 0.951 . S
C389 C383 1.265 . S
C389 H384 0.950 . S
C389 C390 1.478 . S
C390 C389 1.478 . S
C390 C391 1.397 . S
C390 C407 1.394 . S
C391 C390 1.397 . S
C391 C392 1.438 . S
C391 C396 1.429 . S
C392 C391 1.438 . S
C392 C393 1.428 . S
C392 C405 1.394 . S
C393 H385 0.949 . S
C393 C392 1.428 . S
C393 C394 1.345 . S
C394 H386 0.950 . S
C394 C393 1.345 . S
C394 C395 1.424 . S
C395 H387 0.951 . S
C395 C394 1.424 . S
C395 C396 1.347 . S
C396 H388 0.951 . S
C396 C391 1.429 . S
C396 C395 1.347 . S
H397 C398 0.951 . S
C398 H397 0.951 . S
C398 C404 1.265 . S
H399 C404 0.950 . S
H400 C408 0.949 . S
H401 C409 0.950 . S
H402 C410 0.951 . S
H403 C411 0.951 . S
C404 C398 1.265 . S
C404 H399 0.950 . S
C404 C405 1.478 . S
C405 C392 1.394 . S
C405 C404 1.478 . S
C405 C406 1.397 . S
C406 C405 1.397 . S
C406 C407 1.438 . S
C406 C411 1.429 . S
C407 C390 1.394 . S
C407 C406 1.438 . S
C407 C408 1.428 . S
C408 H400 0.949 . S
C408 C407 1.428 . S
C408 C409 1.345 . S
C409 H401 0.950 . S
C409 C408 1.345 . S
C409 C410 1.424 . S
C410 H402 0.951 . S
C410 C409 1.424 . S
C410 C411 1.347 . S
C411 H403 0.951 . S
C411 C406 1.429 . S
C411 C410 1.347 . S
H412 C413 0.951 . S
C413 H412 0.951 . S
C413 C419 1.265 . S
H414 C419 0.950 . S
H415 C423 0.949 . S
H416 C424 0.950 . S
H417 C425 0.951 . S
H418 C426 0.951 . S
C419 C413 1.265 . S
C419 H414 0.950 . S
C419 C420 1.478 . S
C420 C419 1.478 . S
C420 C421 1.397 . S
C420 C437 1.394 . S
C421 C420 1.397 . S
C421 C422 1.438 . S
C421 C426 1.429 . S
C422 C421 1.438 . S
C422 C423 1.428 . S
C422 C435 1.394 . S
C423 H415 0.949 . S
C423 C422 1.428 . S
C423 C424 1.345 . S
C424 H416 0.950 . S
C424 C423 1.345 . S
C424 C425 1.424 . S
C425 H417 0.951 . S
C425 C424 1.424 . S
C425 C426 1.347 . S
C426 H418 0.951 . S
C426 C421 1.429 . S
C426 C425 1.347 . S
H427 C428 0.951 . S
C428 H427 0.951 . S
C428 C434 1.265 . S
H429 C434 0.950 . S
H430 C438 0.949 . S
H431 C439 0.950 . S
H432 C440 0.951 . S
H433 C441 0.951 . S
C434 C428 1.265 . S
C434 H429 0.950 . S
C434 C435 1.478 . S
C435 C422 1.394 . S
C435 C434 1.478 . S
C435 C436 1.397 . S
C436 C435 1.397 . S
C436 C437 1.438 . S
C436 C441 1.429 . S
C437 C420 1.394 . S
C437 C436 1.438 . S
C437 C438 1.428 . S
C438 H430 0.949 . S
C438 C437 1.428 . S
C438 C439 1.345 . S
C439 H431 0.950 . S
C439 C438 1.345 . S
C439 C440 1.424 . S
C440 H432 0.951 . S
C440 C439 1.424 . S
C440 C441 1.347 . S
C441 H433 0.951 . S
C441 C436 1.429 . S
C441 C440 1.347 . S
H442 C443 0.951 . S
C443 H442 0.951 . S
C443 C449 1.265 . S
H444 C449 0.950 . S
H445 C453 0.949 . S
H446 C454 0.950 . S
H447 C455 0.951 . S
H448 C456 0.951 . S
C449 C443 1.265 . S
C449 H444 0.950 . S
C449 C450 1.478 . S
C450 C449 1.478 . S
C450 C451 1.397 . S
C450 C467 1.394 . S
C451 C450 1.397 . S
C451 C452 1.438 . S
C451 C456 1.429 . S
C452 C451 1.438 . S
C452 C453 1.428 . S
C452 C465 1.394 . S
C453 H445 0.949 . S
C453 C452 1.428 . S
C453 C454 1.345 . S
C454 H446 0.950 . S
C454 C453 1.345 . S
C454 C455 1.424 . S
C455 H447 0.951 . S
C455 C454 1.424 . S
C455 C456 1.347 . S
C456 H448 0.951 . S
C456 C451 1.429 . S
C456 C455 1.347 . S
H457 C458 0.951 . S
C458 H457 0.951 . S
C458 C464 1.265 . S
H459 C464 0.950 . S
H460 C468 0.949 . S
H461 C469 0.950 . S
H462 C470 0.951 . S
H463 C471 0.951 . S
C464 C458 1.265 . S
C464 H459 0.950 . S
C464 C465 1.478 . S
C465 C452 1.394 . S
C465 C464 1.478 . S
C465 C466 1.397 . S
C466 C465 1.397 . S
C466 C467 1.438 . S
C466 C471 1.429 . S
C467 C450 1.394 . S
C467 C466 1.438 . S
C467 C468 1.428 . S
C468 H460 0.949 . S
C468 C467 1.428 . S
C468 C469 1.345 . S
C469 H461 0.950 . S
C469 C468 1.345 . S
C469 C470 1.424 . S
C470 H462 0.951 . S
C470 C469 1.424 . S
C470 C471 1.347 . S
C471 H463 0.951 . S
C471 C466 1.429 . S
C471 C470 1.347 . S
H472 C473 0.951 . S
C473 H472 0.951 . S
C473 C479 1.265 1_655 S
H474 C479 0.950 . S
H475 C483 0.949 1_556 S
H476 C484 0.950 . S
H477 C485 0.951 . S
H478 C486 0.951 . S
C479 C473 1.265 1_455 S
C479 H474 0.950 . S
C479 C480 1.478 . S
C480 C479 1.478 . S
C480 C481 1.397 1_545 S
C480 C497 1.394 1_454 S
C481 C480 1.397 1_565 S
C481 C482 1.438 . S
C481 C486 1.429 . S
C482 C481 1.438 . S
C482 C483 1.428 . S
C482 C495 1.394 1_454 S
C483 H475 0.949 1_554 S
C483 C482 1.428 . S
C483 C484 1.345 . S
C484 H476 0.950 . S
C484 C483 1.345 . S
C484 C485 1.424 . S
C485 H477 0.951 . S
C485 C484 1.424 . S
C485 C486 1.347 . S
C486 H478 0.951 . S
C486 C481 1.429 . S
C486 C485 1.347 . S
H487 C488 0.951 . S
C488 H487 0.951 . S
C488 C494 1.265 1_455 S
H489 C494 0.950 . S
H490 C498 0.949 1_554 S
H491 C499 0.950 . S
H492 C500 0.951 . S
H493 C501 0.951 . S
C494 C488 1.265 1_655 S
C494 H489 0.950 . S
C494 C495 1.478 . S
C495 C482 1.394 1_656 S
C495 C494 1.478 . S
C495 C496 1.397 1_565 S
C496 C495 1.397 1_545 S
C496 C497 1.438 . S
C496 C501 1.429 . S
C497 C480 1.394 1_656 S
C497 C496 1.438 . S
C497 C498 1.428 . S
C498 H490 0.949 1_556 S
C498 C497 1.428 . S
C498 C499 1.345 . S
C499 H491 0.950 . S
C499 C498 1.345 . S
C499 C500 1.424 . S
C500 H492 0.951 . S
C500 C499 1.424 . S
C500 C501 1.347 . S
C501 H493 0.951 . S
C501 C496 1.429 . S
C501 C500 1.347 . S
H502 C503 0.951 . S
C503 H502 0.951 . S
C503 C509 1.265 . S
H504 C509 0.950 . S
H505 C513 0.949 . S
H506 C514 0.950 . S
H507 C515 0.951 . S
H508 C516 0.951 . S
C509 C503 1.265 . S
C509 H504 0.950 . S
C509 C510 1.478 . S
C510 C509 1.478 . S
C510 C511 1.397 . S
C510 C527 1.394 . S
C511 C510 1.397 . S
C511 C512 1.438 1_556 S
C511 C516 1.429 . S
C512 C511 1.438 1_554 S
C512 C513 1.428 . S
C512 C525 1.394 . S
C513 H505 0.949 . S
C513 C512 1.428 . S
C513 C514 1.345 . S
C514 H506 0.950 . S
C514 C513 1.345 . S
C514 C515 1.424 . S
C515 H507 0.951 . S
C515 C514 1.424 . S
C515 C516 1.347 1_554 S
C516 H508 0.951 . S
C516 C511 1.429 . S
C516 C515 1.347 1_556 S
H517 C518 0.951 . S
C518 H517 0.951 . S
C518 C524 1.265 . S
H519 C524 0.950 . S
H520 C528 0.949 . S
H521 C529 0.950 . S
H522 C530 0.951 . S
H523 C531 0.951 . S
C524 C518 1.265 . S
C524 H519 0.950 . S
C524 C525 1.478 . S
C525 C512 1.394 . S
C525 C524 1.478 . S
C525 C526 1.397 . S
C526 C525 1.397 . S
C526 C527 1.438 1_554 S
C526 C531 1.429 1_455 S
C527 C510 1.394 . S
C527 C526 1.438 1_556 S
C527 C528 1.428 1_455 S
C528 H520 0.949 . S
C528 C527 1.428 1_655 S
C528 C529 1.345 . S
C529 H521 0.950 . S
C529 C528 1.345 . S
C529 C530 1.424 . S
C530 H522 0.951 . S
C530 C529 1.424 . S
C530 C531 1.347 1_556 S
C531 H523 0.951 . S
C531 C526 1.429 1_655 S
C531 C530 1.347 1_554 S
H532 C533 0.951 . S
C533 H532 0.951 . S
C533 C539 1.265 . S
H534 C539 0.950 . S
H535 C543 0.949 . S
H536 C544 0.950 . S
H537 C545 0.951 . S
H538 C546 0.951 . S
C539 C533 1.265 . S
C539 H534 0.950 . S
C539 C540 1.478 . S
C540 C539 1.478 . S
C540 C541 1.397 . S
C540 C557 1.394 . S
C541 C540 1.397 . S
C541 C542 1.438 . S
C541 C546 1.429 . S
C542 C541 1.438 . S
C542 C543 1.428 . S
C542 C555 1.394 . S
C543 H535 0.949 . S
C543 C542 1.428 . S
C543 C544 1.345 . S
C544 H536 0.950 . S
C544 C543 1.345 . S
C544 C545 1.424 . S
C545 H537 0.951 . S
C545 C544 1.424 . S
C545 C546 1.347 . S
C546 H538 0.951 . S
C546 C541 1.429 . S
C546 C545 1.347 . S
H547 C548 0.951 . S
C548 H547 0.951 . S
C548 C554 1.265 . S
H549 C554 0.950 . S
H550 C558 0.949 . S
H551 C559 0.950 . S
H552 C560 0.951 . S
H553 C561 0.951 . S
C554 C548 1.265 . S
C554 H549 0.950 . S
C554 C555 1.478 . S
C555 C542 1.394 . S
C555 C554 1.478 . S
C555 C556 1.397 . S
C556 C555 1.397 . S
C556 C557 1.438 . S
C556 C561 1.429 . S
C557 C540 1.394 . S
C557 C556 1.438 . S
C557 C558 1.428 . S
C558 H550 0.949 . S
C558 C557 1.428 . S
C558 C559 1.345 . S
C559 H551 0.950 . S
C559 C558 1.345 . S
C559 C560 1.424 . S
C560 H552 0.951 . S
C560 C559 1.424 . S
C560 C561 1.347 . S
C561 H553 0.951 . S
C561 C556 1.429 . S
C561 C560 1.347 . S
H562 C563 0.951 . S
C563 H562 0.951 . S
C563 C569 1.265 . S
H564 C569 0.950 . S
H565 C573 0.949 . S
H566 C574 0.950 . S
H567 C575 0.951 . S
H568 C576 0.951 . S
C569 C563 1.265 . S
C569 H564 0.950 . S
C569 C570 1.478 . S
C570 C569 1.478 . S
C570 C571 1.397 . S
C570 C587 1.394 . S
C571 C570 1.397 . S
C571 C572 1.438 1_565 S
C571 C576 1.429 . S
C572 C571 1.438 1_545 S
C572 C573 1.428 . S
C572 C585 1.394 . S
C573 H565 0.949 . S
C573 C572 1.428 . S
C573 C574 1.345 . S
C574 H566 0.950 . S
C574 C573 1.345 . S
C574 C575 1.424 . S
C575 H567 0.951 . S
C575 C574 1.424 . S
C575 C576 1.347 1_545 S
C576 H568 0.951 . S
C576 C571 1.429 . S
C576 C575 1.347 1_565 S
H577 C578 0.951 . S
C578 H577 0.951 . S
C578 C584 1.265 . S
H579 C584 0.950 . S
H580 C588 0.949 . S
H581 C589 0.950 . S
H582 C590 0.951 . S
H583 C591 0.951 . S
C584 C578 1.265 . S
C584 H579 0.950 . S
C584 C585 1.478 . S
C585 C572 1.394 . S
C585 C584 1.478 . S
C585 C586 1.397 . S
C586 C585 1.397 . S
C586 C587 1.438 1_545 S
C586 C591 1.429 . S
C587 C570 1.394 . S
C587 C586 1.438 1_565 S
C587 C588 1.428 . S
C588 H580 0.949 . S
C588 C587 1.428 . S
C588 C589 1.345 . S
C589 H581 0.950 . S
C589 C588 1.345 . S
C589 C590 1.424 . S
C590 H582 0.951 . S
C590 C589 1.424 . S
C590 C591 1.347 1_565 S
C591 H583 0.951 . S
C591 C586 1.429 . S
C591 C590 1.347 1_545 S
C113 C23 1.450 . S
C128 C9 1.446 . S
C143 C37 1.511 . S
C158 C51 1.495 . S
C173 C65 1.500 . S
C188 C79 1.507 . S
C203 C93 1.504 . S
C218 C107 1.504 . S
C233 C105 1.307 . S
C248 C7 1.302 . S
C263 C91 1.252 . S
C278 C21 1.250 . S
C293 C35 1.301 . S
C308 C77 1.308 . S
C323 C63 1.304 . S
C338 C49 1.307 . S
C353 C78 1.706 . S
C368 C36 1.706 . S
C383 C64 1.661 . S
C398 C50 1.661 . S
C413 C106 1.661 . S
C428 C8 1.661 . S
C443 C22 1.706 . S
C458 C92 1.705 . S
C473 C6 1.486 1_655 S
C488 C34 1.500 . S
C503 C48 1.481 . S
C518 C20 1.471 . S
C533 C90 1.515 . S
C548 C62 1.503 . S
C563 C76 1.511 . S
C578 C104 1.520 . S
