# Generated by pormake.
# Topology ict, (4)-cn, num edge types: 1
# Building blocks:
#     Node 0, Type 0, BuildingBlock: NAHDIM_clean_sbu_0, # of connection points: 4
#     Node 1, Type 0, BuildingBlock: NAHDIM_clean_sbu_0, # of connection points: 4
#     Node 2, Type 0, BuildingBlock: NAHDIM_clean_sbu_0, # of connection points: 4
#     Node 3, Type 0, BuildingBlock: NAHDIM_clean_sbu_0, # of connection points: 4
#     Node 4, Type 0, BuildingBlock: NAHDIM_clean_sbu_0, # of connection points: 4
#     Node 5, Type 0, BuildingBlock: NAHDIM_clean_sbu_0, # of connection points: 4
#     Node 6, Type 0, BuildingBlock: NAHDIM_clean_sbu_0, # of connection points: 4
#     Node 7, Type 0, BuildingBlock: NAHDIM_clean_sbu_0, # of connection points: 4
#     Node 8, Type 0, BuildingBlock: NAHDIM_clean_sbu_0, # of connection points: 4
#     Node 9, Type 0, BuildingBlock: NAHDIM_clean_sbu_0, # of connection points: 4
#     Node 10, Type 0, BuildingBlock: NAHDIM_clean_sbu_0, # of connection points: 4
#     Node 11, Type 0, BuildingBlock: NAHDIM_clean_sbu_0, # of connection points: 4
#     Node 12, Type 0, BuildingBlock: NAHDIM_clean_sbu_0, # of connection points: 4
#     Node 13, Type 0, BuildingBlock: NAHDIM_clean_sbu_0, # of connection points: 4
#     Node 14, Type 0, BuildingBlock: NAHDIM_clean_sbu_0, # of connection points: 4
#     Node 15, Type 0, BuildingBlock: NAHDIM_clean_sbu_0, # of connection points: 4
#     Node 16, Type 0, BuildingBlock: NAHDIM_clean_sbu_0, # of connection points: 4
#     Node 17, Type 0, BuildingBlock: NAHDIM_clean_sbu_0, # of connection points: 4
#     Node 18, Type 0, BuildingBlock: NAHDIM_clean_sbu_0, # of connection points: 4
#     Node 19, Type 0, BuildingBlock: NAHDIM_clean_sbu_0, # of connection points: 4
#     Node 20, Type 0, BuildingBlock: NAHDIM_clean_sbu_0, # of connection points: 4
#     Node 21, Type 0, BuildingBlock: NAHDIM_clean_sbu_0, # of connection points: 4
#     Node 22, Type 0, BuildingBlock: NAHDIM_clean_sbu_0, # of connection points: 4
#     Node 23, Type 0, BuildingBlock: NAHDIM_clean_sbu_0, # of connection points: 4
#     Node 24, Type 0, BuildingBlock: NAHDIM_clean_sbu_0, # of connection points: 4
#     Node 25, Type 0, BuildingBlock: NAHDIM_clean_sbu_0, # of connection points: 4
#     Node 26, Type 0, BuildingBlock: NAHDIM_clean_sbu_0, # of connection points: 4
#     Node 27, Type 0, BuildingBlock: NAHDIM_clean_sbu_0, # of connection points: 4
#     Node 28, Type 0, BuildingBlock: NAHDIM_clean_sbu_0, # of connection points: 4
#     Node 29, Type 0, BuildingBlock: NAHDIM_clean_sbu_0, # of connection points: 4
#     Node 30, Type 0, BuildingBlock: NAHDIM_clean_sbu_0, # of connection points: 4
#     Node 31, Type 0, BuildingBlock: NAHDIM_clean_sbu_0, # of connection points: 4
#     Node 32, Type 0, BuildingBlock: NAHDIM_clean_sbu_0, # of connection points: 4
#     Node 33, Type 0, BuildingBlock: NAHDIM_clean_sbu_0, # of connection points: 4
#     Node 34, Type 0, BuildingBlock: NAHDIM_clean_sbu_0, # of connection points: 4
#     Node 35, Type 0, BuildingBlock: NAHDIM_clean_sbu_0, # of connection points: 4
#     Edge 36, Type (0, 0), None
#     Edge 37, Type (0, 0), None
#     Edge 38, Type (0, 0), None
#     Edge 39, Type (0, 0), None
#     Edge 40, Type (0, 0), None
#     Edge 41, Type (0, 0), None
#     Edge 42, Type (0, 0), None
#     Edge 43, Type (0, 0), None
#     Edge 44, Type (0, 0), None
#     Edge 45, Type (0, 0), None
#     Edge 46, Type (0, 0), None
#     Edge 47, Type (0, 0), None
#     Edge 48, Type (0, 0), None
#     Edge 49, Type (0, 0), None
#     Edge 50, Type (0, 0), None
#     Edge 51, Type (0, 0), None
#     Edge 52, Type (0, 0), None
#     Edge 53, Type (0, 0), None
#     Edge 54, Type (0, 0), None
#     Edge 55, Type (0, 0), None
#     Edge 56, Type (0, 0), None
#     Edge 57, Type (0, 0), None
#     Edge 58, Type (0, 0), None
#     Edge 59, Type (0, 0), None
#     Edge 60, Type (0, 0), None
#     Edge 61, Type (0, 0), None
#     Edge 62, Type (0, 0), None
#     Edge 63, Type (0, 0), None
#     Edge 64, Type (0, 0), None
#     Edge 65, Type (0, 0), None
#     Edge 66, Type (0, 0), None
#     Edge 67, Type (0, 0), None
#     Edge 68, Type (0, 0), None
#     Edge 69, Type (0, 0), None
#     Edge 70, Type (0, 0), None
#     Edge 71, Type (0, 0), None
#     Edge 72, Type (0, 0), None
#     Edge 73, Type (0, 0), None
#     Edge 74, Type (0, 0), None
#     Edge 75, Type (0, 0), None
#     Edge 76, Type (0, 0), None
#     Edge 77, Type (0, 0), None
#     Edge 78, Type (0, 0), None
#     Edge 79, Type (0, 0), None
#     Edge 80, Type (0, 0), None
#     Edge 81, Type (0, 0), None
#     Edge 82, Type (0, 0), None
#     Edge 83, Type (0, 0), None
#     Edge 84, Type (0, 0), None
#     Edge 85, Type (0, 0), None
#     Edge 86, Type (0, 0), None
#     Edge 87, Type (0, 0), None
#     Edge 88, Type (0, 0), None
#     Edge 89, Type (0, 0), None
#     Edge 90, Type (0, 0), None
#     Edge 91, Type (0, 0), None
#     Edge 92, Type (0, 0), None
#     Edge 93, Type (0, 0), None
#     Edge 94, Type (0, 0), None
#     Edge 95, Type (0, 0), None
#     Edge 96, Type (0, 0), None
#     Edge 97, Type (0, 0), None
#     Edge 98, Type (0, 0), None
#     Edge 99, Type (0, 0), None
#     Edge 100, Type (0, 0), None
#     Edge 101, Type (0, 0), None
#     Edge 102, Type (0, 0), None
#     Edge 103, Type (0, 0), None
#     Edge 104, Type (0, 0), None
#     Edge 105, Type (0, 0), None
#     Edge 106, Type (0, 0), None
#     Edge 107, Type (0, 0), None
# Relax obj value: 0.086
# Max RMSD: 0.117
# Mean RMSD: 0.117
data_MOF--net-ict--node1-NAHDIM_clean_sbu_0--edge1-none
_symmetry_space_group_name_H-M    P1
_symmetry_Int_Tables_number       1
_symmetry_cell_setting            triclinic
loop_
_symmetry_equiv_pos_as_xyz
'x, y, z'
_cell_length_a     30.461947
_cell_length_b     30.462137
_cell_length_c     16.906518
_cell_angle_alpha  90.001645
_cell_angle_beta   89.997242
_cell_angle_gamma 119.99581
loop_
_atom_site_label
_atom_site_type_symbol
_atom_site_fract_x
_atom_site_fract_y
_atom_site_fract_z
_atom_type_partial_charge
C0 C 0.29571 0.2245 0.92027 0.0
O1 O 0.25581 0.20153 0.87415 0.0
O2 O 0.16842 0.18777 -0.00376 0.0
Zn3 Zn 0.2213 0.17349 0.04166 0.0
O4 O 0.2036 0.10186 0.01707 0.0
C5 C 0.20453 0.20666 0.19318 0.0
O6 O 0.18407 0.22751 0.14988 0.0
O7 O 0.29019 0.21962 -0.00519 0.0
C8 C 0.16851 0.06355 0.05235 0.0
O9 O 0.14164 0.06981 0.10726 0.0
C10 C 0.13634 0.16098 0.94364 0.0
O11 O 0.13746 0.12203 0.91269 0.0
O12 O 0.22352 0.1825 0.16006 0.0
C13 C 0.7553 0.06717 0.92027 0.0
O14 O 0.7783 0.05026 0.87416 0.0
O15 O 0.79203 0.97661 -0.00375 0.0
Zn16 Zn 0.8063 0.04377 0.04167 0.0
O17 O 0.87793 0.0977 0.01709 0.0
C18 C 0.77313 -0.00618 0.19319 0.0
O19 O 0.7523 0.95252 0.14989 0.0
O20 O 0.76017 0.06652 -0.00518 0.0
C21 C 0.91624 0.10091 0.05238 0.0
O22 O 0.90998 0.06779 0.10728 0.0
C23 C 0.81883 0.97131 0.94366 0.0
O24 O 0.85778 0.01138 0.91272 0.0
O25 O 0.79728 0.03698 0.16007 0.0
C26 C 0.91264 0.68408 0.92026 0.0
O27 O 0.92954 0.72398 0.87416 0.0
O28 O 0.00321 0.81137 -0.00376 0.0
Zn29 Zn 0.93605 0.75849 0.04166 0.0
O30 O 0.88212 0.77619 0.01708 0.0
C31 C 0.986 0.77526 0.19317 0.0
O32 O 0.0273 0.79572 0.14987 0.0
O33 O 0.9133 0.6896 -0.00519 0.0
C34 C 0.87889 0.81128 0.05237 0.0
O35 O 0.91202 0.83814 0.10728 0.0
C36 C 0.0085 0.84345 0.94364 0.0
O37 O 0.96843 0.84234 0.9127 0.0
O38 O 0.94284 0.75627 0.16006 0.0
C39 C 0.22047 0.29974 0.55249 0.0
O40 O 0.19749 0.25984 0.59861 0.0
O41 O 0.18375 0.17246 0.47652 0.0
Zn42 Zn 0.16947 0.22534 0.4311 0.0
O43 O 0.09783 0.20764 0.45568 0.0
C44 C 0.20263 0.20856 0.27958 0.0
O45 O 0.22347 0.18809 0.32287 0.0
O46 O 0.21559 0.29423 0.47795 0.0
C47 C 0.05952 0.17254 0.42041 0.0
O48 O 0.06579 0.14567 0.3655 0.0
C49 C 0.15695 0.14037 0.52912 0.0
O50 O 0.118 0.14149 0.56007 0.0
O51 O 0.17847 0.22756 0.3127 0.0
C52 C 0.68005 0.91667 0.5525 0.0
O53 O 0.71995 0.93356 0.59861 0.0
O54 O 0.80734 0.00724 0.47653 0.0
Zn55 Zn 0.75446 0.94008 0.4311 0.0
O56 O 0.77216 0.88615 0.45568 0.0
C57 C 0.77123 0.99003 0.27959 0.0
O58 O 0.79168 0.03133 0.32289 0.0
O59 O 0.68557 0.91733 0.47795 0.0
C60 C 0.80725 0.88293 0.42039 0.0
O61 O 0.83412 0.91605 0.36548 0.0
C62 C 0.83942 0.01253 0.52912 0.0
O63 O 0.83831 0.97246 0.56006 0.0
O64 O 0.75225 0.94687 0.31271 0.0
C65 C 0.06313 0.75933 0.55249 0.0
O66 O 0.04622 0.78233 0.5986 0.0
O67 O 0.97257 0.79606 0.47651 0.0
Zn68 Zn 0.03973 0.81033 0.43109 0.0
O69 O 0.09366 0.88196 0.45567 0.0
C70 C -0.01021 0.77716 0.27958 0.0
O71 O 0.94849 0.75632 0.32288 0.0
O72 O 0.06249 0.7642 0.47794 0.0
C73 C 0.09688 0.92028 0.42038 0.0
O74 O 0.06376 0.91402 0.36548 0.0
C75 C 0.96728 0.82285 0.5291 0.0
O76 O 0.00734 0.86181 0.56004 0.0
O77 O 0.03294 0.80132 0.31269 0.0
C78 C 0.68006 0.75933 0.05249 0.0
O79 O 0.71996 0.78231 0.09861 0.0
O80 O 0.80735 0.79606 0.97652 0.0
Zn81 Zn 0.75446 0.81034 0.9311 0.0
O82 O 0.77217 0.88197 0.95569 0.0
C83 C 0.77124 0.77717 0.77958 0.0
O84 O 0.79169 0.75632 0.82288 0.0
O85 O 0.68558 0.76421 0.97795 0.0
C86 C 0.80726 0.92028 0.92041 0.0
O87 O 0.83413 0.91402 0.8655 0.0
C88 C 0.83943 0.82285 0.02912 0.0
O89 O 0.83831 0.8618 0.06007 0.0
O90 O 0.75225 0.80134 0.8127 0.0
C91 C 0.22047 0.91667 0.05249 0.0
O92 O 0.19747 0.93357 0.0986 0.0
O93 O 0.18374 0.00723 0.97651 0.0
Zn94 Zn 0.16947 0.94007 0.93109 0.0
O95 O 0.09784 0.88614 0.95567 0.0
C96 C 0.20264 0.99001 0.77957 0.0
O97 O 0.22347 0.03131 0.82287 0.0
O98 O 0.2156 0.91731 0.97794 0.0
C99 C 0.05953 0.88292 0.92039 0.0
O100 O 0.06579 0.91604 0.86548 0.0
C101 C 0.15694 0.01252 0.0291 0.0
O102 O 0.11798 0.97245 0.06004 0.0
O103 O 0.17848 0.94686 0.81269 0.0
C104 C 0.06313 0.29975 0.0525 0.0
O105 O 0.04623 0.25985 0.09861 0.0
O106 O 0.97256 0.17246 0.97653 0.0
Zn107 Zn 0.03972 0.22534 0.9311 0.0
O108 O 0.09365 0.20764 0.95568 0.0
C109 C -0.01023 0.20857 0.77959 0.0
O110 O 0.94847 0.18811 0.82289 0.0
O111 O 0.06247 0.29423 0.97795 0.0
C112 C 0.09687 0.17255 0.92039 0.0
O113 O 0.06375 0.14569 0.86548 0.0
C114 C 0.96727 0.14038 0.02912 0.0
O115 O 0.00734 0.14149 0.06006 0.0
O116 O 0.03293 0.22756 0.8127 0.0
C117 C 0.7553 0.68409 0.42027 0.0
O118 O 0.77828 0.72399 0.37415 0.0
O119 O 0.79202 0.81137 0.49624 0.0
Zn120 Zn 0.8063 0.75849 0.54166 0.0
O121 O 0.87794 0.77619 0.51708 0.0
C122 C 0.77314 0.77528 0.69318 0.0
O123 O 0.7523 0.79574 0.64989 0.0
O124 O 0.76018 0.68961 0.49481 0.0
C125 C 0.91625 0.81129 0.55236 0.0
O126 O 0.90998 0.83816 0.60726 0.0
C127 C 0.81882 0.84346 0.44364 0.0
O128 O 0.85777 0.84234 0.4127 0.0
O129 O 0.79729 0.75627 0.66006 0.0
C130 C 0.29572 0.06716 0.42026 0.0
O131 O 0.25582 0.05027 0.37415 0.0
O132 O 0.16843 0.97659 0.49624 0.0
Zn133 Zn 0.22131 0.04375 0.54166 0.0
O134 O 0.20361 0.09768 0.51708 0.0
C135 C 0.20454 -0.0062 0.69317 0.0
O136 O 0.18409 0.9525 0.64987 0.0
O137 O 0.2902 0.0665 0.49481 0.0
C138 C 0.16851 0.10091 0.55237 0.0
O139 O 0.14165 0.06778 0.60728 0.0
C140 C 0.13634 0.9713 0.44364 0.0
O141 O 0.13746 0.01137 0.4127 0.0
O142 O 0.22352 0.03696 0.66006 0.0
C143 C 0.91264 0.2245 0.42027 0.0
O144 O 0.92955 0.2015 0.37417 0.0
O145 O 0.0032 0.18778 0.49625 0.0
Zn146 Zn 0.93604 0.1735 0.54167 0.0
O147 O 0.88211 0.10187 0.51709 0.0
C148 C 0.98598 0.20667 0.69319 0.0
O149 O 0.02728 0.22751 0.64989 0.0
O150 O 0.91328 0.21963 0.49482 0.0
C151 C 0.87889 0.06356 0.55238 0.0
O152 O 0.91201 0.06982 0.60729 0.0
C153 C 0.00849 0.16098 0.44366 0.0
O154 O 0.96843 0.12202 0.41272 0.0
O155 O 0.94282 0.18251 0.66007 0.0
C156 C 0.96238 0.55784 0.2536 0.0
O157 O 0.92248 0.53486 0.20749 0.0
O158 O 0.83509 0.52111 0.32957 0.0
Zn159 Zn 0.88797 0.50683 0.37499 0.0
O160 O 0.87027 0.43519 0.35041 0.0
C161 C 0.8712 0.54 0.52651 0.0
O162 O 0.85074 0.56085 0.48322 0.0
O163 O 0.95686 0.55295 0.32815 0.0
C164 C 0.83517 0.39688 0.38568 0.0
O165 O 0.8083 0.40315 0.44059 0.0
C166 C 0.80301 0.49432 0.27697 0.0
O167 O 0.80413 0.45537 0.24602 0.0
O168 O 0.89018 0.51583 0.49339 0.0
C169 C 0.42197 0.4005 0.2536 0.0
O170 O 0.44497 0.38359 0.2075 0.0
O171 O 0.45869 0.30994 0.32959 0.0
Zn172 Zn 0.47297 0.3771 0.37501 0.0
O173 O 0.5446 0.43103 0.35042 0.0
C174 C 0.4398 0.32716 0.52652 0.0
O175 O 0.41896 0.28585 0.48322 0.0
O176 O 0.42683 0.39985 0.32815 0.0
C177 C 0.58291 0.43425 0.38571 0.0
O178 O 0.57665 0.40112 0.44062 0.0
C179 C 0.48549 0.30465 0.277 0.0
O180 O 0.52445 0.34471 0.24606 0.0
O181 O 0.46395 0.37031 0.4934 0.0
C182 C 0.57931 0.01742 0.2536 0.0
O183 O 0.5962 0.05732 0.20749 0.0
O184 O 0.66987 0.1447 0.32957 0.0
Zn185 Zn 0.60272 0.09182 0.375 0.0
O186 O 0.54878 0.10952 0.35042 0.0
C187 C 0.65266 0.1086 0.52651 0.0
O188 O 0.69396 0.12905 0.48321 0.0
O189 O 0.57996 0.02294 0.32815 0.0
C190 C 0.54556 0.14462 0.38571 0.0
O191 O 0.57868 0.17148 0.44062 0.0
C192 C 0.67516 0.17679 0.27697 0.0
O193 O 0.63509 0.17567 0.24603 0.0
O194 O 0.60951 0.08961 0.49339 0.0
C195 C 0.88714 0.63308 0.88583 0.0
O196 O 0.86416 0.59318 0.93194 0.0
O197 O 0.85041 0.50579 0.80985 0.0
Zn198 Zn 0.83613 0.55868 0.76443 0.0
O199 O 0.7645 0.54097 0.78902 0.0
C200 C 0.8693 0.54189 0.61291 0.0
O201 O 0.89013 0.52142 0.65621 0.0
O202 O 0.88226 0.62756 0.81128 0.0
C203 C 0.72619 0.50587 0.75374 0.0
O204 O 0.73246 0.47901 0.69884 0.0
C205 C 0.82362 0.47371 0.86245 0.0
O206 O 0.78467 0.47483 0.8934 0.0
O207 O 0.84514 0.5609 0.64603 0.0
C208 C 0.34672 0.25001 0.88583 0.0
O209 O 0.38662 0.2669 0.93195 0.0
O210 O 0.474 0.34057 0.80986 0.0
Zn211 Zn 0.42112 0.27342 0.76443 0.0
O212 O 0.43883 0.21948 0.78901 0.0
C213 C 0.4379 0.32336 0.61292 0.0
O214 O 0.45835 0.36466 0.65622 0.0
O215 O 0.35224 0.25066 0.81128 0.0
C216 C 0.47392 0.21626 0.75372 0.0
O217 O 0.50078 0.24938 0.69881 0.0
C218 C 0.50609 0.34586 0.86245 0.0
O219 O 0.50498 0.30579 0.8934 0.0
O220 O 0.41891 0.28021 0.64604 0.0
C221 C 0.7298 0.09267 0.88582 0.0
O222 O 0.71288 0.11566 0.93193 0.0
O223 O 0.63924 0.12939 0.80984 0.0
Zn224 Zn 0.7064 0.14367 0.76442 0.0
O225 O 0.76033 0.2153 0.789 0.0
C226 C 0.65645 0.1105 0.61291 0.0
O227 O 0.61515 0.08966 0.65621 0.0
O228 O 0.72915 0.09754 0.81128 0.0
C229 C 0.76355 0.25361 0.75372 0.0
O230 O 0.73042 0.24735 0.69881 0.0
C231 C 0.63394 0.15619 0.86243 0.0
O232 O 0.67401 0.19515 0.89337 0.0
O233 O 0.69961 0.13466 0.64602 0.0
C234 C 0.34673 0.09266 0.38583 0.0
O235 O 0.38662 0.11564 0.43194 0.0
O236 O 0.47401 0.12939 0.30985 0.0
Zn237 Zn 0.42113 0.14367 0.26443 0.0
O238 O 0.43883 0.21531 0.28902 0.0
C239 C 0.43791 0.1105 0.11292 0.0
O240 O 0.45836 0.08965 0.15621 0.0
O241 O 0.35224 0.09755 0.31128 0.0
C242 C 0.47393 0.25362 0.25374 0.0
O243 O 0.5008 0.24735 0.19884 0.0
C244 C 0.50609 0.15618 0.36245 0.0
O245 O 0.50498 0.19513 0.3934 0.0
O246 O 0.41891 0.13467 0.14604 0.0
C247 C 0.88713 0.25 0.38583 0.0
O248 O 0.86414 0.26691 0.43193 0.0
O249 O 0.85041 0.34056 0.30984 0.0
Zn250 Zn 0.83614 0.2734 0.26442 0.0
O251 O 0.7645 0.21947 0.289 0.0
C252 C 0.8693 0.32334 0.11291 0.0
O253 O 0.89014 0.36465 0.1562 0.0
O254 O 0.88227 0.25065 0.31128 0.0
C255 C 0.72619 0.21625 0.25372 0.0
O256 O 0.73245 0.24938 0.19881 0.0
C257 C 0.82361 0.34585 0.36243 0.0
O258 O 0.78465 0.30579 0.39337 0.0
O259 O 0.84515 0.28019 0.14602 0.0
C260 C 0.72979 0.63308 0.38583 0.0
O261 O 0.7129 0.59318 0.43194 0.0
O262 O 0.63923 0.5058 0.30986 0.0
Zn263 Zn 0.70639 0.55868 0.26443 0.0
O264 O 0.76032 0.54098 0.28901 0.0
C265 C 0.65644 0.5419 0.11292 0.0
O266 O 0.61514 0.52144 0.15622 0.0
O267 O 0.72914 0.62756 0.31128 0.0
C268 C 0.76354 0.50589 0.25372 0.0
O269 O 0.73042 0.47902 0.1988 0.0
C270 C 0.63394 0.47371 0.36245 0.0
O271 O 0.67401 0.47483 0.39339 0.0
O272 O 0.69959 0.5609 0.14603 0.0
C273 C 0.42196 0.01742 0.7536 0.0
O274 O 0.44494 0.05732 0.70749 0.0
O275 O 0.45869 0.14471 0.82957 0.0
Zn276 Zn 0.47297 0.09182 0.87499 0.0
O277 O 0.5446 0.10953 0.85041 0.0
C278 C 0.4398 0.10861 0.02651 0.0
O279 O 0.41896 0.12908 0.98322 0.0
O280 O 0.42684 0.02294 0.82815 0.0
C281 C 0.58291 0.14463 0.88569 0.0
O282 O 0.57665 0.17149 0.94059 0.0
C283 C 0.48548 0.17679 0.77697 0.0
O284 O 0.52444 0.17567 0.74602 0.0
O285 O 0.46396 0.08961 -0.00661 0.0
C286 C 0.96238 0.40049 0.7536 0.0
O287 O 0.92249 0.3836 0.70749 0.0
O288 O 0.8351 0.30993 0.82957 0.0
Zn289 Zn 0.88798 0.37708 0.87499 0.0
O290 O 0.87027 0.43102 0.85041 0.0
C291 C 0.8712 0.32714 0.0265 0.0
O292 O 0.85075 0.28584 0.98321 0.0
O293 O 0.95686 0.39984 0.82815 0.0
C294 C 0.83518 0.43424 0.8857 0.0
O295 O 0.80832 0.40112 0.94062 0.0
C296 C 0.80301 0.30464 0.77697 0.0
O297 O 0.80412 0.34471 0.74603 0.0
O298 O 0.89019 0.37029 -0.00661 0.0
C299 C 0.5793 0.55783 0.7536 0.0
O300 O 0.59621 0.53484 0.7075 0.0
O301 O 0.66986 0.52111 0.82958 0.0
Zn302 Zn 0.6027 0.50683 0.87501 0.0
O303 O 0.54877 0.4352 0.85042 0.0
C304 C 0.65265 0.54 0.02652 0.0
O305 O 0.69395 0.56085 0.98322 0.0
O306 O 0.57995 0.55296 0.82815 0.0
C307 C 0.54555 0.39689 0.88571 0.0
O308 O 0.57868 0.40315 0.94062 0.0
C309 C 0.67516 0.49431 0.77699 0.0
O310 O 0.63509 0.45535 0.74606 0.0
O311 O 0.60949 0.51584 -0.0066 0.0
C312 C 0.62904 0.89117 0.58693 0.0
O313 O 0.58915 0.8682 0.54082 0.0
O314 O 0.50176 0.85444 0.66291 0.0
Zn315 Zn 0.55464 0.84016 0.70833 0.0
O316 O 0.53694 0.76852 0.68374 0.0
C317 C 0.53786 0.87333 0.85985 0.0
O318 O 0.51741 0.89418 0.81655 0.0
O319 O 0.62352 0.88628 0.66148 0.0
C320 C 0.50184 0.73021 0.71902 0.0
O321 O 0.47497 0.73648 0.77392 0.0
C322 C 0.46968 0.82765 0.61031 0.0
O323 O 0.47079 0.7887 0.57935 0.0
O324 O 0.55685 0.84916 0.82672 0.0
C325 C 0.08864 0.73383 0.58694 0.0
O326 O 0.11163 0.71692 0.54083 0.0
O327 O 0.12536 0.64327 0.66292 0.0
Zn328 Zn 0.13963 0.71043 0.70834 0.0
O329 O 0.21127 0.76436 0.68376 0.0
C330 C 0.10647 0.66049 0.85985 0.0
O331 O 0.08563 0.61919 0.81656 0.0
O332 O 0.0935 0.73319 0.66148 0.0
C333 C 0.24958 0.76758 0.71904 0.0
O334 O 0.24332 0.73446 0.77395 0.0
C335 C 0.15216 0.63798 0.61033 0.0
O336 O 0.19112 0.67805 0.57939 0.0
O337 O 0.13062 0.70364 0.82674 0.0
C338 C 0.24597 0.35075 0.58693 0.0
O339 O 0.26287 0.39065 0.54082 0.0
O340 O 0.33654 0.47803 0.6629 0.0
Zn341 Zn 0.26938 0.42515 0.70833 0.0
O342 O 0.21545 0.44286 0.68375 0.0
C343 C 0.31933 0.44193 0.85984 0.0
O344 O 0.36063 0.46239 0.81654 0.0
O345 O 0.24663 0.35627 0.66148 0.0
C346 C 0.21223 0.47795 0.71904 0.0
O347 O 0.24535 0.50481 0.77395 0.0
C348 C 0.34183 0.51012 0.61031 0.0
O349 O 0.30176 0.50901 0.57937 0.0
O350 O 0.27618 0.42294 0.82673 0.0
C351 C 0.55381 0.96641 0.21916 0.0
O352 O 0.53083 0.92651 0.26528 0.0
O353 O 0.51708 0.83913 0.14319 0.0
Zn354 Zn 0.5028 0.89201 0.09777 0.0
O355 O 0.43116 0.87431 0.12235 0.0
C356 C 0.53597 0.87522 0.94625 0.0
O357 O 0.5568 0.85476 -0.01046 0.0
O358 O 0.54893 0.96089 0.14462 0.0
C359 C 0.39286 0.83921 0.08707 0.0
O360 O 0.39912 0.81234 0.03217 0.0
C361 C 0.49029 0.80704 0.19579 0.0
O362 O 0.45133 0.80816 0.22674 0.0
O363 O 0.51181 0.89423 0.97937 0.0
C364 C 0.01339 0.58334 0.21917 0.0
O365 O 0.05328 0.60024 0.26528 0.0
O366 O 0.14067 0.6739 0.14319 0.0
Zn367 Zn 0.08779 0.60675 0.09777 0.0
O368 O 0.10549 0.55281 0.12235 0.0
C369 C 0.10457 0.65669 0.94626 0.0
O370 O 0.12502 0.698 -0.01044 0.0
O371 O 0.01891 0.584 0.14462 0.0
C372 C 0.14059 0.54959 0.08706 0.0
O373 O 0.16745 0.58271 0.03214 0.0
C374 C 0.17276 0.67919 0.19579 0.0
O375 O 0.17164 0.63912 0.22673 0.0
O376 O 0.08558 0.61354 0.97937 0.0
C377 C 0.39647 0.426 0.21916 0.0
O378 O 0.37955 0.44899 0.26527 0.0
O379 O 0.30591 0.46273 0.14318 0.0
Zn380 Zn 0.37307 0.477 0.09775 0.0
O381 O 0.427 0.54863 0.12233 0.0
C382 C 0.32312 0.44383 0.94624 0.0
O383 O 0.28182 0.42299 -0.01046 0.0
O384 O 0.39582 0.43087 0.14461 0.0
C385 C 0.43022 0.58695 0.08705 0.0
O386 O 0.39709 0.58069 0.03214 0.0
C387 C 0.30061 0.48952 0.19577 0.0
O388 O 0.34068 0.52848 0.2267 0.0
O389 O 0.36628 0.46799 0.97936 0.0
C390 C 0.01339 0.426 0.71916 0.0
O391 O 0.05329 0.44897 0.76528 0.0
O392 O 0.14068 0.46272 0.64319 0.0
Zn393 Zn 0.0878 0.47701 0.59777 0.0
O394 O 0.1055 0.54864 0.62235 0.0
C395 C 0.10457 0.44383 0.44625 0.0
O396 O 0.12503 0.42298 0.48954 0.0
O397 O 0.01891 0.43088 0.64462 0.0
C398 C 0.1406 0.58695 0.58708 0.0
O399 O 0.16747 0.58069 0.53217 0.0
C400 C 0.17276 0.48951 0.69579 0.0
O401 O 0.17164 0.52847 0.72674 0.0
O402 O 0.08558 0.468 0.47937 0.0
C403 C 0.5538 0.58333 0.71916 0.0
O404 O 0.5308 0.60025 0.76527 0.0
O405 O 0.51707 0.67389 0.64317 0.0
Zn406 Zn 0.5028 0.60673 0.59775 0.0
O407 O 0.43117 0.5528 0.62233 0.0
C408 C 0.53597 0.65668 0.44624 0.0
O409 O 0.55681 0.69798 0.48954 0.0
O410 O 0.54893 0.58398 0.64461 0.0
C411 C 0.39286 0.54958 0.58705 0.0
O412 O 0.39912 0.58271 0.53214 0.0
C413 C 0.49027 0.67918 0.69576 0.0
O414 O 0.45131 0.63912 0.7267 0.0
O415 O 0.51182 0.61352 0.47936 0.0
C416 C 0.39646 0.96641 0.71916 0.0
O417 O 0.37956 0.92652 0.76528 0.0
O418 O 0.3059 0.83913 0.64319 0.0
Zn419 Zn 0.37305 0.89201 0.59776 0.0
O420 O 0.42699 0.87431 0.62234 0.0
C421 C 0.32311 0.87523 0.44625 0.0
O422 O 0.2818 0.85478 0.48956 0.0
O423 O 0.39581 0.9609 0.64461 0.0
C424 C 0.43021 0.83922 0.58705 0.0
O425 O 0.39709 0.81236 0.53214 0.0
C426 C 0.30061 0.80705 0.69579 0.0
O427 O 0.34068 0.80816 0.72673 0.0
O428 O 0.36626 0.89423 0.47937 0.0
C429 C 0.08863 0.35076 0.08693 0.0
O430 O 0.11161 0.39065 0.04082 0.0
O431 O 0.12536 0.47804 0.16291 0.0
Zn432 Zn 0.13964 0.42516 0.20833 0.0
O433 O 0.21127 0.44286 0.18374 0.0
C434 C 0.10647 0.44194 0.35985 0.0
O435 O 0.08563 0.46241 0.31655 0.0
O436 O 0.09351 0.35627 0.16148 0.0
C437 C 0.24958 0.47796 0.21902 0.0
O438 O 0.24331 0.50483 0.27392 0.0
C439 C 0.15215 0.51012 0.11031 0.0
O440 O 0.1911 0.50901 0.07936 0.0
O441 O 0.13063 0.42294 0.32673 0.0
C442 C 0.62905 0.73383 0.08693 0.0
O443 O 0.58915 0.71693 0.04082 0.0
O444 O 0.50176 0.64326 0.1629 0.0
Zn445 Zn 0.55464 0.71042 0.20833 0.0
O446 O 0.53694 0.76435 0.18375 0.0
C447 C 0.53787 0.66047 0.35984 0.0
O448 O 0.51742 0.61917 0.31654 0.0
O449 O 0.62353 0.73317 0.16148 0.0
C450 C 0.50185 0.76758 0.21904 0.0
O451 O 0.47499 0.73445 0.27395 0.0
C452 C 0.46968 0.63797 0.11031 0.0
O453 O 0.47079 0.67804 0.07936 0.0
O454 O 0.55686 0.70362 0.32672 0.0
C455 C 0.24597 0.89116 0.08694 0.0
O456 O 0.26289 0.86817 0.04083 0.0
O457 O 0.33653 0.85444 0.16292 0.0
Zn458 Zn 0.26937 0.84016 0.20834 0.0
O459 O 0.21544 0.76853 0.18376 0.0
C460 C 0.31931 0.87334 0.35985 0.0
O461 O 0.36062 0.89418 0.31655 0.0
O462 O 0.24661 0.88629 0.16149 0.0
C463 C 0.21222 0.73022 0.21905 0.0
O464 O 0.24535 0.73648 0.27396 0.0
C465 C 0.34182 0.82764 0.11033 0.0
O466 O 0.30176 0.78868 0.07939 0.0
O467 O 0.27616 0.84918 0.32674 0.0
loop_
_geom_bond_atom_site_label_1
_geom_bond_atom_site_label_2
_geom_bond_distance
_geom_bond_site_symmetry_2
_ccdc_geom_bond_type
C0 O1 1.160 . S
C0 O7 1.185 1_556 S
O1 C0 1.160 . S
O2 Zn3 1.899 . S
O2 C10 1.284 1_554 S
Zn3 O2 1.899 . S
Zn3 O4 2.032 1_554 S
Zn3 O7 2.086 . S
Zn3 O12 1.977 . S
O4 Zn3 2.032 1_556 S
O4 C8 1.278 1_556 S
C5 O6 1.203 . S
C5 O12 1.267 . S
O6 C5 1.203 . S
O7 C0 1.185 1_554 S
O7 Zn3 2.086 . S
C8 O4 1.278 1_554 S
C8 O9 1.211 . S
O9 C8 1.211 . S
C10 O2 1.284 1_556 S
C10 O11 1.273 1_556 S
O11 C10 1.273 1_554 S
O12 Zn3 1.977 . S
O12 C5 1.267 . S
C13 O14 1.160 . S
C13 O20 1.185 1_556 S
O14 C13 1.160 . S
O15 Zn16 1.899 1_565 S
O15 C23 1.284 1_554 S
Zn16 O15 1.899 1_545 S
Zn16 O17 2.032 1_554 S
Zn16 O20 2.086 . S
Zn16 O25 1.977 . S
O17 Zn16 2.032 1_556 S
O17 C21 1.278 1_556 S
C18 O19 1.188 1_545 S
C18 O25 1.278 . S
O19 C18 1.188 1_565 S
O20 C13 1.185 1_554 S
O20 Zn16 2.086 . S
C21 O17 1.278 1_554 S
C21 O22 1.211 . S
O22 C21 1.211 . S
C23 O15 1.284 1_556 S
C23 O24 1.273 1_556 S
O24 C23 1.273 1_554 S
O25 Zn16 1.977 . S
O25 C18 1.278 . S
C26 O27 1.160 . S
C26 O33 1.185 1_556 S
O27 C26 1.160 . S
O28 Zn29 1.899 1_455 S
O28 C36 1.284 1_554 S
Zn29 O28 1.899 1_655 S
Zn29 O30 2.032 1_554 S
Zn29 O33 2.086 . S
Zn29 O38 1.977 . S
O30 Zn29 2.032 1_556 S
O30 C34 1.278 1_556 S
C31 O32 1.201 1_655 S
C31 O38 1.269 . S
O32 C31 1.201 1_455 S
O33 C26 1.185 1_554 S
O33 Zn29 2.086 . S
C34 O30 1.278 1_554 S
C34 O35 1.211 . S
O35 C34 1.211 . S
C36 O28 1.284 1_556 S
C36 O37 1.273 1_556 S
O37 C36 1.273 1_554 S
O38 Zn29 1.977 . S
O38 C31 1.269 . S
C39 O40 1.160 . S
C39 O46 1.185 . S
O40 C39 1.160 . S
O41 Zn42 1.899 . S
O41 C49 1.284 . S
Zn42 O41 1.899 . S
Zn42 O43 2.032 . S
Zn42 O46 2.086 . S
Zn42 O51 1.977 . S
O43 Zn42 2.032 . S
O43 C47 1.278 . S
C44 O45 1.203 . S
C44 O51 1.267 . S
O45 C44 1.203 . S
O46 C39 1.185 . S
O46 Zn42 2.086 . S
C47 O43 1.278 . S
C47 O48 1.211 . S
O48 C47 1.211 . S
C49 O41 1.284 . S
C49 O50 1.273 . S
O50 C49 1.273 . S
O51 Zn42 1.977 . S
O51 C44 1.267 . S
C52 O53 1.160 . S
C52 O59 1.185 . S
O53 C52 1.160 . S
O54 Zn55 1.899 1_545 S
O54 C62 1.284 . S
Zn55 O54 1.899 1_565 S
Zn55 O56 2.032 . S
Zn55 O59 2.086 . S
Zn55 O64 1.977 . S
O56 Zn55 2.032 . S
O56 C60 1.278 . S
C57 O58 1.201 1_565 S
C57 O64 1.269 . S
O58 C57 1.201 1_545 S
O59 C52 1.185 . S
O59 Zn55 2.086 . S
C60 O56 1.278 . S
C60 O61 1.211 . S
O61 C60 1.211 . S
C62 O54 1.284 . S
C62 O63 1.273 . S
O63 C62 1.273 . S
O64 Zn55 1.977 . S
O64 C57 1.269 . S
C65 O66 1.160 . S
C65 O72 1.185 . S
O66 C65 1.160 . S
O67 Zn68 1.899 1_655 S
O67 C75 1.284 . S
Zn68 O67 1.899 1_455 S
Zn68 O69 2.032 . S
Zn68 O72 2.086 . S
Zn68 O77 1.977 . S
O69 Zn68 2.032 . S
O69 C73 1.278 . S
C70 O71 1.188 1_455 S
C70 O77 1.278 . S
O71 C70 1.188 1_655 S
O72 C65 1.185 . S
O72 Zn68 2.086 . S
C73 O69 1.278 . S
C73 O74 1.211 . S
O74 C73 1.211 . S
C75 O67 1.284 . S
C75 O76 1.273 . S
O76 C75 1.273 . S
O77 Zn68 1.977 . S
O77 C70 1.278 . S
C78 O79 1.160 . S
C78 O85 1.185 1_554 S
O79 C78 1.160 . S
O80 Zn81 1.899 . S
O80 C88 1.284 1_556 S
Zn81 O80 1.899 . S
Zn81 O82 2.032 1_556 S
Zn81 O85 2.086 . S
Zn81 O90 1.977 . S
O82 Zn81 2.032 1_554 S
O82 C86 1.278 1_554 S
C83 O84 1.203 . S
C83 O90 1.267 . S
O84 C83 1.203 . S
O85 C78 1.185 1_556 S
O85 Zn81 2.086 . S
C86 O82 1.278 1_556 S
C86 O87 1.211 . S
O87 C86 1.211 . S
C88 O80 1.284 1_554 S
C88 O89 1.273 1_554 S
O89 C88 1.273 1_556 S
O90 Zn81 1.977 . S
O90 C83 1.267 . S
C91 O92 1.160 . S
C91 O98 1.185 1_554 S
O92 C91 1.160 . S
O93 Zn94 1.899 1_545 S
O93 C101 1.284 1_556 S
Zn94 O93 1.899 1_565 S
Zn94 O95 2.032 1_556 S
Zn94 O98 2.086 . S
Zn94 O103 1.977 . S
O95 Zn94 2.032 1_554 S
O95 C99 1.278 1_554 S
C96 O97 1.188 1_565 S
C96 O103 1.278 . S
O97 C96 1.188 1_545 S
O98 C91 1.185 1_556 S
O98 Zn94 2.086 . S
C99 O95 1.278 1_556 S
C99 O100 1.211 . S
O100 C99 1.211 . S
C101 O93 1.284 1_554 S
C101 O102 1.273 1_554 S
O102 C101 1.273 1_556 S
O103 Zn94 1.977 . S
O103 C96 1.278 . S
C104 O105 1.160 . S
C104 O111 1.185 1_554 S
O105 C104 1.160 . S
O106 Zn107 1.899 1_655 S
O106 C114 1.284 1_556 S
Zn107 O106 1.899 1_455 S
Zn107 O108 2.032 1_556 S
Zn107 O111 2.086 . S
Zn107 O116 1.977 . S
O108 Zn107 2.032 1_554 S
O108 C112 1.278 1_554 S
C109 O110 1.201 1_455 S
C109 O116 1.269 . S
O110 C109 1.201 1_655 S
O111 C104 1.185 1_556 S
O111 Zn107 2.086 . S
C112 O108 1.278 1_556 S
C112 O113 1.211 . S
O113 C112 1.211 . S
C114 O106 1.284 1_554 S
C114 O115 1.273 1_554 S
O115 C114 1.273 1_556 S
O116 Zn107 1.977 . S
O116 C109 1.269 . S
C117 O118 1.160 . S
C117 O124 1.185 . S
O118 C117 1.160 . S
O119 Zn120 1.899 . S
O119 C127 1.284 . S
Zn120 O119 1.899 . S
Zn120 O121 2.032 . S
Zn120 O124 2.086 . S
Zn120 O129 1.977 . S
O121 Zn120 2.032 . S
O121 C125 1.278 . S
C122 O123 1.203 . S
C122 O129 1.267 . S
O123 C122 1.203 . S
O124 C117 1.185 . S
O124 Zn120 2.086 . S
C125 O121 1.278 . S
C125 O126 1.211 . S
O126 C125 1.211 . S
C127 O119 1.284 . S
C127 O128 1.273 . S
O128 C127 1.273 . S
O129 Zn120 1.977 . S
O129 C122 1.267 . S
C130 O131 1.160 . S
C130 O137 1.185 . S
O131 C130 1.160 . S
O132 Zn133 1.899 1_565 S
O132 C140 1.284 . S
Zn133 O132 1.899 1_545 S
Zn133 O134 2.032 . S
Zn133 O137 2.086 . S
Zn133 O142 1.977 . S
O134 Zn133 2.032 . S
O134 C138 1.278 . S
C135 O136 1.201 1_545 S
C135 O142 1.269 . S
O136 C135 1.201 1_565 S
O137 C130 1.185 . S
O137 Zn133 2.086 . S
C138 O134 1.278 . S
C138 O139 1.211 . S
O139 C138 1.211 . S
C140 O132 1.284 . S
C140 O141 1.273 . S
O141 C140 1.273 . S
O142 Zn133 1.977 . S
O142 C135 1.269 . S
C143 O144 1.160 . S
C143 O150 1.185 . S
O144 C143 1.160 . S
O145 Zn146 1.899 1_455 S
O145 C153 1.284 . S
Zn146 O145 1.899 1_655 S
Zn146 O147 2.032 . S
Zn146 O150 2.086 . S
Zn146 O155 1.977 . S
O147 Zn146 2.032 . S
O147 C151 1.278 . S
C148 O149 1.188 1_655 S
C148 O155 1.278 . S
O149 C148 1.188 1_455 S
O150 C143 1.185 . S
O150 Zn146 2.086 . S
C151 O147 1.278 . S
C151 O152 1.211 . S
O152 C151 1.211 . S
C153 O145 1.284 . S
C153 O154 1.273 . S
O154 C153 1.273 . S
O155 Zn146 1.977 . S
O155 C148 1.278 . S
C156 O157 1.160 . S
C156 O163 1.185 . S
O157 C156 1.160 . S
O158 Zn159 1.899 . S
O158 C166 1.284 . S
Zn159 O158 1.899 . S
Zn159 O160 2.032 . S
Zn159 O163 2.086 . S
Zn159 O168 1.977 . S
O160 Zn159 2.032 . S
O160 C164 1.278 . S
C161 O162 1.203 . S
C161 O168 1.267 . S
O162 C161 1.203 . S
O163 C156 1.185 . S
O163 Zn159 2.086 . S
C164 O160 1.278 . S
C164 O165 1.211 . S
O165 C164 1.211 . S
C166 O158 1.284 . S
C166 O167 1.273 . S
O167 C166 1.273 . S
O168 Zn159 1.977 . S
O168 C161 1.267 . S
C169 O170 1.160 . S
C169 O176 1.185 . S
O170 C169 1.160 . S
O171 Zn172 1.899 . S
O171 C179 1.284 . S
Zn172 O171 1.899 . S
Zn172 O173 2.032 . S
Zn172 O176 2.086 . S
Zn172 O181 1.977 . S
O173 Zn172 2.032 . S
O173 C177 1.278 . S
C174 O175 1.203 . S
C174 O181 1.267 . S
O175 C174 1.203 . S
O176 C169 1.185 . S
O176 Zn172 2.086 . S
C177 O173 1.278 . S
C177 O178 1.211 . S
O178 C177 1.211 . S
C179 O171 1.284 . S
C179 O180 1.273 . S
O180 C179 1.273 . S
O181 Zn172 1.977 . S
O181 C174 1.267 . S
C182 O183 1.160 . S
C182 O189 1.185 . S
O183 C182 1.160 . S
O184 Zn185 1.899 . S
O184 C192 1.284 . S
Zn185 O184 1.899 . S
Zn185 O186 2.032 . S
Zn185 O189 2.086 . S
Zn185 O194 1.977 . S
O186 Zn185 2.032 . S
O186 C190 1.278 . S
C187 O188 1.203 . S
C187 O194 1.267 . S
O188 C187 1.203 . S
O189 C182 1.185 . S
O189 Zn185 2.086 . S
C190 O186 1.278 . S
C190 O191 1.211 . S
O191 C190 1.211 . S
C192 O184 1.284 . S
C192 O193 1.273 . S
O193 C192 1.273 . S
O194 Zn185 1.977 . S
O194 C187 1.267 . S
C195 O196 1.160 . S
C195 O202 1.185 . S
O196 C195 1.160 . S
O197 Zn198 1.899 . S
O197 C205 1.284 . S
Zn198 O197 1.899 . S
Zn198 O199 2.032 . S
Zn198 O202 2.086 . S
Zn198 O207 1.977 . S
O199 Zn198 2.032 . S
O199 C203 1.278 . S
C200 O201 1.203 . S
C200 O207 1.267 . S
O201 C200 1.203 . S
O202 C195 1.185 . S
O202 Zn198 2.086 . S
C203 O199 1.278 . S
C203 O204 1.211 . S
O204 C203 1.211 . S
C205 O197 1.284 . S
C205 O206 1.273 . S
O206 C205 1.273 . S
O207 Zn198 1.977 . S
O207 C200 1.267 . S
C208 O209 1.160 . S
C208 O215 1.185 . S
O209 C208 1.160 . S
O210 Zn211 1.899 . S
O210 C218 1.284 . S
Zn211 O210 1.899 . S
Zn211 O212 2.032 . S
Zn211 O215 2.086 . S
Zn211 O220 1.977 . S
O212 Zn211 2.032 . S
O212 C216 1.278 . S
C213 O214 1.203 . S
C213 O220 1.267 . S
O214 C213 1.203 . S
O215 C208 1.185 . S
O215 Zn211 2.086 . S
C216 O212 1.278 . S
C216 O217 1.211 . S
O217 C216 1.211 . S
C218 O210 1.284 . S
C218 O219 1.273 . S
O219 C218 1.273 . S
O220 Zn211 1.977 . S
O220 C213 1.267 . S
C221 O222 1.160 . S
C221 O228 1.185 . S
O222 C221 1.160 . S
O223 Zn224 1.899 . S
O223 C231 1.284 . S
Zn224 O223 1.899 . S
Zn224 O225 2.032 . S
Zn224 O228 2.086 . S
Zn224 O233 1.977 . S
O225 Zn224 2.032 . S
O225 C229 1.278 . S
C226 O227 1.203 . S
C226 O233 1.267 . S
O227 C226 1.203 . S
O228 C221 1.185 . S
O228 Zn224 2.086 . S
C229 O225 1.278 . S
C229 O230 1.211 . S
O230 C229 1.211 . S
C231 O223 1.284 . S
C231 O232 1.273 . S
O232 C231 1.273 . S
O233 Zn224 1.977 . S
O233 C226 1.267 . S
C234 O235 1.160 . S
C234 O241 1.185 . S
O235 C234 1.160 . S
O236 Zn237 1.899 . S
O236 C244 1.284 . S
Zn237 O236 1.899 . S
Zn237 O238 2.032 . S
Zn237 O241 2.086 . S
Zn237 O246 1.977 . S
O238 Zn237 2.032 . S
O238 C242 1.278 . S
C239 O240 1.203 . S
C239 O246 1.267 . S
O240 C239 1.203 . S
O241 C234 1.185 . S
O241 Zn237 2.086 . S
C242 O238 1.278 . S
C242 O243 1.211 . S
O243 C242 1.211 . S
C244 O236 1.284 . S
C244 O245 1.273 . S
O245 C244 1.273 . S
O246 Zn237 1.977 . S
O246 C239 1.267 . S
C247 O248 1.160 . S
C247 O254 1.185 . S
O248 C247 1.160 . S
O249 Zn250 1.899 . S
O249 C257 1.284 . S
Zn250 O249 1.899 . S
Zn250 O251 2.032 . S
Zn250 O254 2.086 . S
Zn250 O259 1.977 . S
O251 Zn250 2.032 . S
O251 C255 1.278 . S
C252 O253 1.203 . S
C252 O259 1.267 . S
O253 C252 1.203 . S
O254 C247 1.185 . S
O254 Zn250 2.086 . S
C255 O251 1.278 . S
C255 O256 1.211 . S
O256 C255 1.211 . S
C257 O249 1.284 . S
C257 O258 1.273 . S
O258 C257 1.273 . S
O259 Zn250 1.977 . S
O259 C252 1.267 . S
C260 O261 1.160 . S
C260 O267 1.185 . S
O261 C260 1.160 . S
O262 Zn263 1.899 . S
O262 C270 1.284 . S
Zn263 O262 1.899 . S
Zn263 O264 2.032 . S
Zn263 O267 2.086 . S
Zn263 O272 1.977 . S
O264 Zn263 2.032 . S
O264 C268 1.278 . S
C265 O266 1.203 . S
C265 O272 1.267 . S
O266 C265 1.203 . S
O267 C260 1.185 . S
O267 Zn263 2.086 . S
C268 O264 1.278 . S
C268 O269 1.211 . S
O269 C268 1.211 . S
C270 O262 1.284 . S
C270 O271 1.273 . S
O271 C270 1.273 . S
O272 Zn263 1.977 . S
O272 C265 1.267 . S
C273 O274 1.160 . S
C273 O280 1.185 . S
O274 C273 1.160 . S
O275 Zn276 1.899 . S
O275 C283 1.284 . S
Zn276 O275 1.899 . S
Zn276 O277 2.032 . S
Zn276 O280 2.086 . S
Zn276 O285 1.977 . S
O277 Zn276 2.032 . S
O277 C281 1.278 . S
C278 O279 1.203 . S
C278 O285 1.267 1_554 S
O279 C278 1.203 . S
O280 C273 1.185 . S
O280 Zn276 2.086 . S
C281 O277 1.278 . S
C281 O282 1.211 . S
O282 C281 1.211 . S
C283 O275 1.284 . S
C283 O284 1.273 . S
O284 C283 1.273 . S
O285 Zn276 1.977 . S
O285 C278 1.267 1_556 S
C286 O287 1.160 . S
C286 O293 1.185 . S
O287 C286 1.160 . S
O288 Zn289 1.899 . S
O288 C296 1.284 . S
Zn289 O288 1.899 . S
Zn289 O290 2.032 . S
Zn289 O293 2.086 . S
Zn289 O298 1.977 . S
O290 Zn289 2.032 . S
O290 C294 1.278 . S
C291 O292 1.203 . S
C291 O298 1.267 1_554 S
O292 C291 1.203 . S
O293 C286 1.185 . S
O293 Zn289 2.086 . S
C294 O290 1.278 . S
C294 O295 1.211 . S
O295 C294 1.211 . S
C296 O288 1.284 . S
C296 O297 1.273 . S
O297 C296 1.273 . S
O298 Zn289 1.977 . S
O298 C291 1.267 1_556 S
C299 O300 1.160 . S
C299 O306 1.185 . S
O300 C299 1.160 . S
O301 Zn302 1.899 . S
O301 C309 1.284 . S
Zn302 O301 1.899 . S
Zn302 O303 2.032 . S
Zn302 O306 2.086 . S
Zn302 O311 1.977 . S
O303 Zn302 2.032 . S
O303 C307 1.278 . S
C304 O305 1.203 . S
C304 O311 1.267 1_554 S
O305 C304 1.203 . S
O306 C299 1.185 . S
O306 Zn302 2.086 . S
C307 O303 1.278 . S
C307 O308 1.211 . S
O308 C307 1.211 . S
C309 O301 1.284 . S
C309 O310 1.273 . S
O310 C309 1.273 . S
O311 Zn302 1.977 . S
O311 C304 1.267 1_556 S
C312 O313 1.160 . S
C312 O319 1.185 . S
O313 C312 1.160 . S
O314 Zn315 1.899 . S
O314 C322 1.284 . S
Zn315 O314 1.899 . S
Zn315 O316 2.032 . S
Zn315 O319 2.086 . S
Zn315 O324 1.977 . S
O316 Zn315 2.032 . S
O316 C320 1.278 . S
C317 O318 1.203 . S
C317 O324 1.267 . S
O318 C317 1.203 . S
O319 C312 1.185 . S
O319 Zn315 2.086 . S
C320 O316 1.278 . S
C320 O321 1.211 . S
O321 C320 1.211 . S
C322 O314 1.284 . S
C322 O323 1.273 . S
O323 C322 1.273 . S
O324 Zn315 1.977 . S
O324 C317 1.267 . S
C325 O326 1.160 . S
C325 O332 1.185 . S
O326 C325 1.160 . S
O327 Zn328 1.899 . S
O327 C335 1.284 . S
Zn328 O327 1.899 . S
Zn328 O329 2.032 . S
Zn328 O332 2.086 . S
Zn328 O337 1.977 . S
O329 Zn328 2.032 . S
O329 C333 1.278 . S
C330 O331 1.203 . S
C330 O337 1.267 . S
O331 C330 1.203 . S
O332 C325 1.185 . S
O332 Zn328 2.086 . S
C333 O329 1.278 . S
C333 O334 1.211 . S
O334 C333 1.211 . S
C335 O327 1.284 . S
C335 O336 1.273 . S
O336 C335 1.273 . S
O337 Zn328 1.977 . S
O337 C330 1.267 . S
C338 O339 1.160 . S
C338 O345 1.185 . S
O339 C338 1.160 . S
O340 Zn341 1.899 . S
O340 C348 1.284 . S
Zn341 O340 1.899 . S
Zn341 O342 2.032 . S
Zn341 O345 2.086 . S
Zn341 O350 1.977 . S
O342 Zn341 2.032 . S
O342 C346 1.278 . S
C343 O344 1.203 . S
C343 O350 1.267 . S
O344 C343 1.203 . S
O345 C338 1.185 . S
O345 Zn341 2.086 . S
C346 O342 1.278 . S
C346 O347 1.211 . S
O347 C346 1.211 . S
C348 O340 1.284 . S
C348 O349 1.273 . S
O349 C348 1.273 . S
O350 Zn341 1.977 . S
O350 C343 1.267 . S
C351 O352 1.160 . S
C351 O358 1.185 . S
O352 C351 1.160 . S
O353 Zn354 1.899 . S
O353 C361 1.284 . S
Zn354 O353 1.899 . S
Zn354 O355 2.032 . S
Zn354 O358 2.086 . S
Zn354 O363 1.977 . S
O355 Zn354 2.032 . S
O355 C359 1.278 . S
C356 O357 1.203 . S
C356 O363 1.267 1_556 S
O357 C356 1.203 . S
O358 C351 1.185 . S
O358 Zn354 2.086 . S
C359 O355 1.278 . S
C359 O360 1.211 . S
O360 C359 1.211 . S
C361 O353 1.284 . S
C361 O362 1.273 . S
O362 C361 1.273 . S
O363 Zn354 1.977 . S
O363 C356 1.267 1_554 S
C364 O365 1.160 . S
C364 O371 1.185 . S
O365 C364 1.160 . S
O366 Zn367 1.899 . S
O366 C374 1.284 . S
Zn367 O366 1.899 . S
Zn367 O368 2.032 . S
Zn367 O371 2.086 . S
Zn367 O376 1.977 . S
O368 Zn367 2.032 . S
O368 C372 1.278 . S
C369 O370 1.203 . S
C369 O376 1.267 1_556 S
O370 C369 1.203 . S
O371 C364 1.185 . S
O371 Zn367 2.086 . S
C372 O368 1.278 . S
C372 O373 1.211 . S
O373 C372 1.211 . S
C374 O366 1.284 . S
C374 O375 1.273 . S
O375 C374 1.273 . S
O376 Zn367 1.977 . S
O376 C369 1.267 1_554 S
C377 O378 1.160 . S
C377 O384 1.185 . S
O378 C377 1.160 . S
O379 Zn380 1.899 . S
O379 C387 1.284 . S
Zn380 O379 1.899 . S
Zn380 O381 2.032 . S
Zn380 O384 2.086 . S
Zn380 O389 1.977 . S
O381 Zn380 2.032 . S
O381 C385 1.278 . S
C382 O383 1.203 . S
C382 O389 1.267 1_556 S
O383 C382 1.203 . S
O384 C377 1.185 . S
O384 Zn380 2.086 . S
C385 O381 1.278 . S
C385 O386 1.211 . S
O386 C385 1.211 . S
C387 O379 1.284 . S
C387 O388 1.273 . S
O388 C387 1.273 . S
O389 Zn380 1.977 . S
O389 C382 1.267 1_554 S
C390 O391 1.160 . S
C390 O397 1.185 . S
O391 C390 1.160 . S
O392 Zn393 1.899 . S
O392 C400 1.284 . S
Zn393 O392 1.899 . S
Zn393 O394 2.032 . S
Zn393 O397 2.086 . S
Zn393 O402 1.977 . S
O394 Zn393 2.032 . S
O394 C398 1.278 . S
C395 O396 1.203 . S
C395 O402 1.267 . S
O396 C395 1.203 . S
O397 C390 1.185 . S
O397 Zn393 2.086 . S
C398 O394 1.278 . S
C398 O399 1.211 . S
O399 C398 1.211 . S
C400 O392 1.284 . S
C400 O401 1.273 . S
O401 C400 1.273 . S
O402 Zn393 1.977 . S
O402 C395 1.267 . S
C403 O404 1.160 . S
C403 O410 1.185 . S
O404 C403 1.160 . S
O405 Zn406 1.899 . S
O405 C413 1.284 . S
Zn406 O405 1.899 . S
Zn406 O407 2.032 . S
Zn406 O410 2.086 . S
Zn406 O415 1.977 . S
O407 Zn406 2.032 . S
O407 C411 1.278 . S
C408 O409 1.203 . S
C408 O415 1.267 . S
O409 C408 1.203 . S
O410 C403 1.185 . S
O410 Zn406 2.086 . S
C411 O407 1.278 . S
C411 O412 1.211 . S
O412 C411 1.211 . S
C413 O405 1.284 . S
C413 O414 1.273 . S
O414 C413 1.273 . S
O415 Zn406 1.977 . S
O415 C408 1.267 . S
C416 O417 1.160 . S
C416 O423 1.185 . S
O417 C416 1.160 . S
O418 Zn419 1.899 . S
O418 C426 1.284 . S
Zn419 O418 1.899 . S
Zn419 O420 2.032 . S
Zn419 O423 2.086 . S
Zn419 O428 1.977 . S
O420 Zn419 2.032 . S
O420 C424 1.278 . S
C421 O422 1.203 . S
C421 O428 1.267 . S
O422 C421 1.203 . S
O423 C416 1.185 . S
O423 Zn419 2.086 . S
C424 O420 1.278 . S
C424 O425 1.211 . S
O425 C424 1.211 . S
C426 O418 1.284 . S
C426 O427 1.273 . S
O427 C426 1.273 . S
O428 Zn419 1.977 . S
O428 C421 1.267 . S
C429 O430 1.160 . S
C429 O436 1.185 . S
O430 C429 1.160 . S
O431 Zn432 1.899 . S
O431 C439 1.284 . S
Zn432 O431 1.899 . S
Zn432 O433 2.032 . S
Zn432 O436 2.086 . S
Zn432 O441 1.977 . S
O433 Zn432 2.032 . S
O433 C437 1.278 . S
C434 O435 1.203 . S
C434 O441 1.267 . S
O435 C434 1.203 . S
O436 C429 1.185 . S
O436 Zn432 2.086 . S
C437 O433 1.278 . S
C437 O438 1.211 . S
O438 C437 1.211 . S
C439 O431 1.284 . S
C439 O440 1.273 . S
O440 C439 1.273 . S
O441 Zn432 1.977 . S
O441 C434 1.267 . S
C442 O443 1.160 . S
C442 O449 1.185 . S
O443 C442 1.160 . S
O444 Zn445 1.899 . S
O444 C452 1.284 . S
Zn445 O444 1.899 . S
Zn445 O446 2.032 . S
Zn445 O449 2.086 . S
Zn445 O454 1.977 . S
O446 Zn445 2.032 . S
O446 C450 1.278 . S
C447 O448 1.203 . S
C447 O454 1.267 . S
O448 C447 1.203 . S
O449 C442 1.185 . S
O449 Zn445 2.086 . S
C450 O446 1.278 . S
C450 O451 1.211 . S
O451 C450 1.211 . S
C452 O444 1.284 . S
C452 O453 1.273 . S
O453 C452 1.273 . S
O454 Zn445 1.977 . S
O454 C447 1.267 . S
C455 O456 1.160 . S
C455 O462 1.185 . S
O456 C455 1.160 . S
O457 Zn458 1.899 . S
O457 C465 1.284 . S
Zn458 O457 1.899 . S
Zn458 O459 2.032 . S
Zn458 O462 2.086 . S
Zn458 O467 1.977 . S
O459 Zn458 2.032 . S
O459 C463 1.278 . S
C460 O461 1.203 . S
C460 O467 1.267 . S
O461 C460 1.203 . S
O462 C455 1.185 . S
O462 Zn458 2.086 . S
C463 O459 1.278 . S
C463 O464 1.211 . S
O464 C463 1.211 . S
C465 O457 1.284 . S
C465 O466 1.273 . S
O466 C465 1.273 . S
O467 Zn458 1.977 . S
O467 C460 1.267 . S
C208 C0 1.389 . S
C221 C13 1.389 . S
C26 C195 1.389 . S
C338 C39 1.389 . S
C312 C52 1.389 . S
C65 C325 1.389 . S
C442 C78 1.389 . S
C455 C91 1.389 . S
C429 C104 1.389 . S
C260 C117 1.389 . S
C130 C234 1.389 . S
C247 C143 1.389 . S
C364 C156 1.389 1_455 S
C169 C377 1.389 . S
C351 C182 1.389 1_565 S
C416 C273 1.389 1_565 S
C390 C286 1.389 1_455 S
C299 C403 1.389 . S
C101 C8 1.309 . S
C114 C21 1.309 . S
C88 C34 1.309 . S
C47 C153 1.309 . S
C127 C60 1.309 . S
C73 C140 1.309 . S
C23 C86 1.309 . S
C99 C36 1.309 . S
C10 C112 1.309 . S
C75 C125 1.309 . S
C49 C138 1.309 . S
C151 C62 1.309 . S
C164 C257 1.309 . S
C270 C177 1.309 . S
C244 C190 1.309 . S
C203 C309 1.309 . S
C283 C216 1.309 . S
C229 C296 1.309 . S
C242 C179 1.309 . S
C255 C192 1.309 . S
C166 C268 1.309 . S
C231 C281 1.309 . S
C205 C294 1.309 . S
C307 C218 1.309 . S
C413 C320 1.309 . S
C333 C426 1.309 . S
C346 C400 1.309 . S
C465 C359 1.309 . S
C372 C439 1.309 . S
C452 C385 1.309 . S
C335 C398 1.309 . S
C348 C411 1.309 . S
C424 C322 1.309 . S
C437 C387 1.309 . S
C361 C450 1.309 . S
C374 C463 1.309 . S
C5 C44 1.262 . S
C18 C57 1.262 1_545 S
C70 C31 1.262 1_455 S
C83 C122 1.262 . S
C135 C96 1.262 1_545 S
C148 C109 1.262 1_655 S
C161 C200 1.262 . S
C174 C213 1.262 . S
C226 C187 1.262 . S
C239 C278 1.262 . S
C252 C291 1.262 . S
C265 C304 1.262 . S
C356 C317 1.262 . S
C369 C330 1.262 . S
C382 C343 1.262 . S
C395 C434 1.262 . S
C447 C408 1.262 . S
C460 C421 1.262 . S
