# Generated by pormake.
# Topology umw, (4)-cn, num edge types: 1
# Building blocks:
#     Node 0, Type 0, BuildingBlock: TATPOV_clean_sbu_0, # of connection points: 4
#     Node 1, Type 0, BuildingBlock: TATPOV_clean_sbu_0, # of connection points: 4
#     Node 2, Type 0, BuildingBlock: TATPOV_clean_sbu_0, # of connection points: 4
#     Node 3, Type 0, BuildingBlock: TATPOV_clean_sbu_0, # of connection points: 4
#     Node 4, Type 0, BuildingBlock: TATPOV_clean_sbu_0, # of connection points: 4
#     Node 5, Type 0, BuildingBlock: TATPOV_clean_sbu_0, # of connection points: 4
#     Node 6, Type 0, BuildingBlock: TATPOV_clean_sbu_0, # of connection points: 4
#     Node 7, Type 0, BuildingBlock: TATPOV_clean_sbu_0, # of connection points: 4
#     Edge 8, Type (0, 0), BuildingBlock: FUNLAD_clean_linker_0, # of connection points: 2
#     Edge 9, Type (0, 0), BuildingBlock: FUNLAD_clean_linker_0, # of connection points: 2
#     Edge 10, Type (0, 0), BuildingBlock: FUNLAD_clean_linker_0, # of connection points: 2
#     Edge 11, Type (0, 0), BuildingBlock: FUNLAD_clean_linker_0, # of connection points: 2
#     Edge 12, Type (0, 0), BuildingBlock: FUNLAD_clean_linker_0, # of connection points: 2
#     Edge 13, Type (0, 0), BuildingBlock: FUNLAD_clean_linker_0, # of connection points: 2
#     Edge 14, Type (0, 0), BuildingBlock: FUNLAD_clean_linker_0, # of connection points: 2
#     Edge 15, Type (0, 0), BuildingBlock: FUNLAD_clean_linker_0, # of connection points: 2
#     Edge 16, Type (0, 0), BuildingBlock: FUNLAD_clean_linker_0, # of connection points: 2
#     Edge 17, Type (0, 0), BuildingBlock: FUNLAD_clean_linker_0, # of connection points: 2
#     Edge 18, Type (0, 0), BuildingBlock: FUNLAD_clean_linker_0, # of connection points: 2
#     Edge 19, Type (0, 0), BuildingBlock: FUNLAD_clean_linker_0, # of connection points: 2
#     Edge 20, Type (0, 0), BuildingBlock: FUNLAD_clean_linker_0, # of connection points: 2
#     Edge 21, Type (0, 0), BuildingBlock: FUNLAD_clean_linker_0, # of connection points: 2
#     Edge 22, Type (0, 0), BuildingBlock: FUNLAD_clean_linker_0, # of connection points: 2
#     Edge 23, Type (0, 0), BuildingBlock: FUNLAD_clean_linker_0, # of connection points: 2
# Relax obj value: 0.145
# Max RMSD: 0.109
# Mean RMSD: 0.109
data_MOF--net-umw--node1-TATPOV_clean_sbu_0--edge1-FUNLAD_clean_linker_0
_symmetry_space_group_name_H-M    P1
_symmetry_Int_Tables_number       1
_symmetry_cell_setting            triclinic
loop_
_symmetry_equiv_pos_as_xyz
'x, y, z'
_cell_length_a     48.346249
_cell_length_b     48.482102
_cell_length_c     29.132064
_cell_angle_alpha  89.419542
_cell_angle_beta   89.668502
_cell_angle_gamma 90.074644
loop_
_atom_site_label
_atom_site_type_symbol
_atom_site_fract_x
_atom_site_fract_y
_atom_site_fract_z
_atom_type_partial_charge
Zn0 Zn 0.45088 0.14047 0.28021 0.0
Zn1 Zn 0.40808 0.17361 0.27685 0.0
O2 O 0.42144 0.17565 0.2095 0.0
O3 O 0.45234 0.14218 0.21126 0.0
O4 O 0.37604 0.2001 0.28298 0.0
O5 O 0.47353 0.16709 0.31643 0.0
O6 O 0.4355 0.19164 0.32139 0.0
C7 C 0.43881 0.16018 0.18907 0.0
C8 C 0.40223 0.11349 0.31103 0.0
O9 O 0.3912 0.13557 0.29561 0.0
O10 O 0.42828 0.11119 0.31211 0.0
C11 C 0.36417 0.20014 0.32209 0.0
O12 O 0.37219 0.18218 0.35337 0.0
C13 C 0.46076 0.1878 0.33183 0.0
Zn14 Zn 0.86754 0.47058 0.5649 0.0
Zn15 Zn 0.83827 0.42498 0.5594 0.0
O16 O 0.83849 0.43773 0.49151 0.0
O17 O 0.86919 0.47134 0.49591 0.0
O18 O 0.81433 0.39088 0.56446 0.0
O19 O 0.83707 0.49084 0.59731 0.0
O20 O 0.816 0.45072 0.60136 0.0
C21 C 0.8535 0.45621 0.47225 0.0
C22 C 0.89663 0.42449 0.60086 0.0
O23 O 0.8764 0.41158 0.58316 0.0
O24 O 0.89681 0.45059 0.60105 0.0
C25 C 0.81364 0.37996 0.60439 0.0
O26 O 0.82944 0.39032 0.63648 0.0
C27 C 0.817 0.47621 0.6113 0.0
Zn28 Zn 0.55599 0.84593 0.7311 0.0
Zn29 Zn 0.59916 0.81835 0.76078 0.0
O30 O 0.58526 0.79398 0.70718 0.0
O31 O 0.54506 0.81361 0.69309 0.0
O32 O 0.63085 0.7971 0.78898 0.0
O33 O 0.53986 0.84933 0.79427 0.0
O34 O 0.57266 0.82082 0.81622 0.0
C35 C 0.56213 0.79432 0.6863 0.0
C36 C 0.60651 0.87566 0.71745 0.0
O37 O 0.61638 0.85585 0.74129 0.0
O38 O 0.58137 0.87536 0.70552 0.0
C39 C 0.65584 0.79886 0.77543 0.0
O40 O 0.66189 0.81457 0.73975 0.0
C41 C 0.55084 0.83454 0.82514 0.0
Zn42 Zn 0.16452 0.5573 0.96184 0.0
Zn43 Zn 0.19452 0.60015 -0.01237 0.0
O44 O 0.21937 0.58216 0.93735 0.0
O45 O 0.19631 0.54375 0.92466 0.0
O46 O 0.21783 0.63081 0.01389 0.0
O47 O 0.16028 0.54297 0.02621 0.0
O48 O 0.18843 0.57648 0.04574 0.0
C49 C 0.21742 0.55872 0.91801 0.0
C50 C 0.13783 0.60915 0.94381 0.0
O51 O 0.15842 0.61891 0.96549 0.0
O52 O 0.13655 0.58363 0.93523 0.0
C53 C 0.21864 0.6558 0.00029 0.0
O54 O 0.20393 0.6634 0.96456 0.0
C55 C 0.17418 0.55522 0.05648 0.0
Zn56 Zn 0.45425 0.86077 0.31007 0.0
Zn57 Zn 0.41232 0.82903 0.28797 0.0
O58 O 0.43277 0.80569 0.33751 0.0
O59 O 0.47115 0.82961 0.34569 0.0
O60 O 0.38181 0.804 0.26548 0.0
O61 O 0.46543 0.86695 0.24431 0.0
O62 O 0.43442 0.83533 0.22818 0.0
C63 C 0.45686 0.80833 0.35468 0.0
C64 C 0.40193 0.88453 0.33387 0.0
O65 O 0.39239 0.86409 0.31167 0.0
O66 O 0.42767 0.88672 0.34067 0.0
C67 C 0.36856 0.8111 0.22963 0.0
O68 O 0.37388 0.8352 0.2105 0.0
C69 C 0.45385 0.8515 0.21544 0.0
Zn70 Zn 0.15382 0.46796 0.54468 0.0
Zn71 Zn 0.18358 0.42322 0.52938 0.0
O72 O 0.20899 0.4463 0.57213 0.0
O73 O 0.18576 0.48525 0.57646 0.0
O74 O 0.2063 0.38949 0.5134 0.0
O75 O 0.14896 0.47563 0.47757 0.0
O76 O 0.17688 0.44064 0.46565 0.0
C77 C 0.20712 0.47123 0.58553 0.0
C78 C 0.12739 0.41895 0.57856 0.0
O79 O 0.14781 0.40719 0.55896 0.0
O80 O 0.12601 0.44501 0.57958 0.0
C81 C 0.22457 0.39121 0.48186 0.0
O82 O 0.22915 0.41521 0.46188 0.0
C83 C 0.16251 0.46065 0.45021 0.0
Zn84 Zn 0.55513 0.14286 0.72827 0.0
Zn85 Zn 0.59997 0.17146 0.74754 0.0
O86 O 0.57627 0.17772 0.80626 0.0
O87 O 0.54038 0.15142 0.79061 0.0
O88 O 0.63441 0.19478 0.75364 0.0
O89 O 0.54414 0.1678 0.67706 0.0
O90 O 0.58353 0.18924 0.68872 0.0
C91 C 0.55267 0.16773 0.81735 0.0
C92 C 0.60395 0.10972 0.72603 0.0
O93 O 0.61525 0.13171 0.74065 0.0
O94 O 0.57848 0.10947 0.71628 0.0
C95 C 0.63208 0.22065 0.74707 0.0
O96 O 0.60723 0.23123 0.74244 0.0
C97 C 0.56119 0.18656 0.66623 0.0
Zn98 Zn 0.86878 0.55882 -0.00472 0.0
Zn99 Zn 0.84295 0.6053 0.01599 0.0
O100 O 0.83801 0.58381 0.0775 0.0
O101 O 0.8622 0.54675 0.06037 0.0
O102 O 0.82092 0.6407 0.01907 0.0
O103 O 0.84105 0.54776 0.94848 0.0
O104 O 0.8219 0.58795 0.96204 0.0
C105 C 0.84774 0.56022 0.08876 0.0
C106 C 0.90404 0.6059 -0.01445 0.0
O107 O 0.88328 0.61821 0.00305 0.0
O108 O 0.90267 0.58043 0.9767 0.0
C109 C 0.82498 0.65655 -0.01545 0.0
O110 O 0.84449 0.6501 0.95498 0.0
C111 C 0.8225 0.5654 0.94007 0.0
C112 C 0.50342 0.20385 0.37133 0.0
C113 C 0.47489 0.20654 0.36379 0.0
C114 C 0.51625 0.21841 0.40633 0.0
C115 C 0.50074 0.23601 0.4348 0.0
C116 C 0.47271 0.24045 0.42455 0.0
C117 C 0.45988 0.2259 0.38935 0.0
C118 C 0.51113 0.24528 0.48009 0.0
C119 C 0.53682 0.23983 0.49539 0.0
C120 C 0.54235 0.23242 0.54408 0.0
C121 C 0.56986 0.23056 0.55918 0.0
C122 C 0.57614 0.21709 0.60058 0.0
C123 C 0.55496 0.2048 0.62691 0.0
H124 H 0.49968 0.22218 0.56219 0.0
C125 C 0.52739 0.20823 0.61338 0.0
C126 C 0.52111 0.22191 0.57259 0.0
H127 H 0.51063 0.19926 0.63338 0.0
H128 H 0.51569 0.18947 0.35159 0.0
H129 H 0.53783 0.21414 0.41245 0.0
H130 H 0.46019 0.25383 0.44577 0.0
H131 H 0.43791 0.2287 0.38397 0.0
H132 H 0.49558 0.25211 0.50451 0.0
H133 H 0.55349 0.2361 0.47121 0.0
H134 H 0.58664 0.2382 0.53773 0.0
H135 H 0.59759 0.21482 0.61045 0.0
C136 C 0.79484 0.51702 0.64776 0.0
C137 C 0.79607 0.48833 0.64218 0.0
C138 C 0.77901 0.52835 0.683 0.0
C139 C 0.76434 0.5111 0.71389 0.0
C140 C 0.76325 0.48267 0.70499 0.0
C141 C 0.77895 0.47136 0.66946 0.0
C142 C 0.75519 0.52056 0.76003 0.0
C143 C 0.76136 0.54568 0.7765 0.0
C144 C 0.77075 0.54973 0.82442 0.0
C145 C 0.78236 0.52778 0.84982 0.0
C146 C 0.79801 0.53293 0.88876 0.0
C147 C 0.80235 0.56004 0.90344 0.0
H148 H 0.76507 0.59401 0.8219 0.0
C149 C 0.78899 0.58183 0.88046 0.0
C150 C 0.77352 0.57671 0.84099 0.0
H151 H 0.79191 0.60295 0.89123 0.0
H152 H 0.80726 0.53069 0.62639 0.0
H153 H 0.78008 0.55042 0.68727 0.0
H154 H 0.75199 0.46883 0.7278 0.0
H155 H 0.77913 0.44916 0.66551 0.0
H156 H 0.7489 0.50451 0.78424 0.0
H157 H 0.76479 0.56292 0.7532 0.0
H158 H 0.7814 0.50672 0.83805 0.0
H159 H 0.8078 0.5157 0.90617 0.0
C160 C 0.45671 0.83022 0.13768 0.0
C161 C 0.46321 0.85202 0.16716 0.0
C162 C 0.46659 0.83028 0.09252 0.0
C163 C 0.48287 0.85233 0.07598 0.0
C164 C 0.4886 0.87448 0.10498 0.0
C165 C 0.47914 0.87421 0.15031 0.0
C166 C 0.49375 0.85305 0.02847 0.0
C167 C 0.50198 0.83022 0.00641 0.0
C168 C 0.51409 0.83138 0.95966 0.0
C169 C 0.53468 0.81241 0.94747 0.0
C170 C 0.54686 0.8135 0.90386 0.0
C171 C 0.53822 0.83328 0.8714 0.0
H172 H 0.48882 0.86535 0.93493 0.0
C173 C 0.51713 0.85184 0.88335 0.0
C174 C 0.50521 0.85093 0.92702 0.0
H175 H 0.50987 0.86721 0.85903 0.0
H176 H 0.44434 0.81291 0.14966 0.0
H177 H 0.46122 0.81324 0.07052 0.0
H178 H 0.50087 0.89181 0.09278 0.0
H179 H 0.48426 0.89143 0.1721 0.0
H180 H 0.49694 0.87319 0.01255 0.0
H181 H 0.50159 0.8104 0.02416 0.0
H182 H 0.54167 0.79701 0.97198 0.0
H183 H 0.5629 0.79877 0.89554 0.0
C184 C 0.14922 0.49123 0.38458 0.0
C185 C 0.16256 0.4673 0.40063 0.0
C186 C 0.15059 0.49866 0.33831 0.0
C187 C 0.16536 0.48233 0.30706 0.0
C188 C 0.17775 0.45785 0.32262 0.0
C189 C 0.17657 0.45047 0.36911 0.0
C190 C 0.16782 0.49039 0.2581 0.0
C191 C 0.16934 0.51698 0.24463 0.0
C192 C 0.17132 0.52577 0.19594 0.0
C193 C 0.18387 0.55115 0.18515 0.0
C194 C 0.1852 0.56058 0.13975 0.0
C195 C 0.17357 0.54497 0.10436 0.0
H196 H 0.14919 0.49082 0.16776 0.0
C197 C 0.16087 0.51961 0.11522 0.0
C198 C 0.15975 0.51009 0.16054 0.0
H199 H 0.1516 0.50716 0.08877 0.0
H200 H 0.138 0.50451 0.40784 0.0
H201 H 0.13997 0.51717 0.32711 0.0
H202 H 0.18892 0.44476 0.29898 0.0
H203 H 0.18689 0.4318 0.38037 0.0
H204 H 0.16989 0.47406 0.23305 0.0
H205 H 0.17022 0.53304 0.27034 0.0
H206 H 0.1927 0.56371 0.21191 0.0
H207 H 0.19501 0.58028 0.13253 0.0
C208 C 0.32953 0.22009 0.37648 0.0
C209 C 0.34373 0.22164 0.33431 0.0
C210 C 0.31213 0.24147 0.39043 0.0
C211 C 0.30872 0.26517 0.36266 0.0
C212 C 0.32209 0.26614 0.31965 0.0
C213 C 0.3394 0.24466 0.30559 0.0
C214 C 0.2919 0.28942 0.37716 0.0
C215 C 0.28333 0.29388 0.42067 0.0
C216 C 0.26801 0.31901 0.43501 0.0
C217 C 0.25085 0.31761 0.47406 0.0
C218 C 0.23669 0.34097 0.48936 0.0
C219 C 0.23972 0.3664 0.46627 0.0
H220 H 0.28493 0.34674 0.38284 0.0
C221 C 0.25721 0.36791 0.42757 0.0
C222 C 0.2712 0.34452 0.4121 0.0
H223 H 0.26013 0.3872 0.40909 0.0
H224 H 0.33211 0.20246 0.39918 0.0
H225 H 0.3016 0.23911 0.42304 0.0
H226 H 0.31968 0.28393 0.29721 0.0
H227 H 0.34997 0.24647 0.27282 0.0
H228 H 0.28706 0.3046 0.35076 0.0
H229 H 0.28748 0.27878 0.44741 0.0
H230 H 0.24825 0.29831 0.49268 0.0
H231 H 0.22346 0.33911 0.51936 0.0
C232 C 0.7937 0.34583 0.66043 0.0
C233 C 0.79335 0.3581 0.61648 0.0
C234 C 0.77297 0.32734 0.67411 0.0
C235 C 0.75139 0.3206 0.64403 0.0
C236 C 0.75143 0.33234 0.59972 0.0
C237 C 0.77226 0.35077 0.58594 0.0
C238 C 0.72746 0.30326 0.65881 0.0
C239 C 0.72821 0.28504 0.69409 0.0
C240 C 0.70345 0.2692 0.70953 0.0
C241 C 0.70673 0.24269 0.72859 0.0
C242 C 0.68363 0.22707 0.74207 0.0
C243 C 0.65681 0.23791 0.73751 0.0
H244 H 0.67344 0.30114 0.69355 0.0
C245 C 0.65367 0.26494 0.72039 0.0
C246 C 0.67669 0.28039 0.7065 0.0
H247 H 0.63334 0.27402 0.71666 0.0
H248 H 0.8096 0.35109 0.68489 0.0
H249 H 0.77343 0.31935 0.70889 0.0
H250 H 0.73499 0.32764 0.5759 0.0
H251 H 0.77132 0.35992 0.55191 0.0
H252 H 0.70851 0.30539 0.6392 0.0
H253 H 0.74765 0.28063 0.71109 0.0
H254 H 0.72716 0.23377 0.73196 0.0
H255 H 0.68678 0.20636 0.75532 0.0
C256 C 0.81218 0.6978 0.93749 0.0
C257 C 0.80539 0.67894 0.97273 0.0
C258 C 0.7924 0.71606 0.92029 0.0
C259 C 0.76514 0.71563 0.93753 0.0
C260 C 0.75889 0.6981 0.97493 0.0
C261 C 0.7788 0.67988 -0.00763 0.0
C262 C 0.74268 0.73251 0.91657 0.0
C263 C 0.74311 0.74082 0.87217 0.0
C264 C 0.7203 0.75615 0.84917 0.0
C265 C 0.72627 0.77089 0.80853 0.0
C266 C 0.70541 0.78477 0.78465 0.0
C267 C 0.67795 0.784 0.8006 0.0
H268 H 0.68703 0.74353 0.89546 0.0
C269 C 0.67186 0.76908 0.8411 0.0
C270 C 0.69276 0.75529 0.86513 0.0
H271 H 0.65089 0.76796 0.85427 0.0
H272 H 0.83266 0.69794 0.92217 0.0
H273 H 0.79854 0.73014 0.89306 0.0
H274 H 0.7382 0.69766 -0.01056 0.0
H275 H 0.77294 0.66565 0.01964 0.0
H276 H 0.72482 0.73698 0.93795 0.0
H277 H 0.76091 0.73601 0.85087 0.0
H278 H 0.74722 0.77171 0.79515 0.0
H279 H 0.71084 0.79601 0.75355 0.0
C280 C 0.24856 0.66857 0.06687 0.0
C281 C 0.23515 0.67627 0.02601 0.0
C282 C 0.26351 0.6879 0.09203 0.0
C283 C 0.26567 0.71548 0.07668 0.0
C284 C 0.25216 0.72313 0.03587 0.0
C285 C 0.23711 0.7038 0.0108 0.0
C286 C 0.28117 0.73706 0.10231 0.0
C287 C 0.29972 0.73162 0.13573 0.0
C288 C 0.31574 0.75316 0.16041 0.0
C289 C 0.32843 0.74602 0.20217 0.0
C290 C 0.34495 0.76499 0.22538 0.0
C291 C 0.34934 0.7916 0.20718 0.0
H292 H 0.31123 0.78628 0.10994 0.0
C293 C 0.33638 0.79893 0.16574 0.0
C294 C 0.31987 0.77996 0.14251 0.0
H295 H 0.33947 0.81919 0.15053 0.0
H296 H 0.24725 0.6476 0.07989 0.0
H297 H 0.27277 0.68101 0.12378 0.0
H298 H 0.25327 0.7442 0.02321 0.0
H299 H 0.22697 0.71048 0.97957 0.0
H300 H 0.27712 0.7583 0.09254 0.0
H301 H 0.30373 0.71044 0.14586 0.0
H302 H 0.32579 0.72552 0.21676 0.0
H303 H 0.35468 0.75861 0.25714 0.0
C304 C 0.36399 0.91844 0.31856 0.0
C305 C 0.38402 0.9075 0.3483 0.0
C306 C 0.35266 0.94458 0.32678 0.0
C307 C 0.36107 0.95986 0.3652 0.0
C308 C 0.37871 0.94736 0.39732 0.0
C309 C 0.39036 0.92163 0.38868 0.0
C310 C 0.35554 0.98986 0.37023 0.0
C311 C 0.35277 0.00712 0.33398 0.0
C312 C 0.3609 0.0367 0.33593 0.0
C313 C 0.35029 0.05551 0.30348 0.0
C314 C 0.36215 0.08176 0.29795 0.0
C315 C 0.38531 0.08925 0.32395 0.0
H316 H 0.3921 0.0312 0.38879 0.0
C317 C 0.39487 0.0711 0.35811 0.0
C318 C 0.38275 0.04521 0.36427 0.0
H319 H 0.41276 0.07637 0.37852 0.0
H320 H 0.35874 0.90786 0.2872 0.0
H321 H 0.33844 0.9532 0.30196 0.0
H322 H 0.38534 0.95847 0.42744 0.0
H323 H 0.40561 0.9135 0.41233 0.0
H324 H 0.35923 0.99862 0.40383 0.0
H325 H 0.34847 0.99899 0.3002 0.0
H326 H 0.33374 0.04938 0.28083 0.0
H327 H 0.35457 0.09531 0.27105 0.0
C328 C 0.93091 0.3858 0.59691 0.0
C329 C 0.921 0.40962 0.61858 0.0
C330 C 0.95701 0.37517 0.60813 0.0
C331 C 0.97326 0.38802 0.64174 0.0
C332 C 0.96207 0.41021 0.66615 0.0
C333 C 0.93641 0.42115 0.65429 0.0
C334 C 1.00295 0.38152 0.64878 0.0
C335 C 0.01996 0.37497 0.61373 0.0
C336 C 0.05009 0.38141 0.61373 0.0
C337 C 0.06744 0.36913 0.58087 0.0
C338 C 0.09402 0.37962 0.57222 0.0
C339 C 0.10339 0.40297 0.5957 0.0
H340 H 0.04799 0.41389 0.66483 0.0
C341 C 0.08693 0.41392 0.63087 0.0
C342 C 0.06065 0.40326 0.63994 0.0
H343 H 0.09369 0.43193 0.6495 0.0
H344 H 0.91933 0.37646 0.56938 0.0
H345 H 0.96477 0.3576 0.58941 0.0
H346 H 0.97405 0.42038 0.6924 0.0
H347 H 0.92908 0.43934 0.67188 0.0
H348 H 0.01179 0.38746 0.6814 0.0
H349 H 0.01125 0.36859 0.58123 0.0
H350 H 0.05981 0.35245 0.55991 0.0
H351 H 0.10624 0.37092 0.54466 0.0
C352 C 0.64135 0.91158 0.73875 0.0
C353 C 0.62319 0.90036 0.70638 0.0
C354 C 0.65212 0.93821 0.73218 0.0
C355 C 0.64516 0.9537 0.69273 0.0
C356 C 0.62926 0.94122 0.65854 0.0
C357 C 0.61806 0.915 0.66555 0.0
C358 C 0.65079 0.98371 0.68793 0.0
C359 C 0.65065 1.00093 0.72397 0.0
C360 C 0.64301 0.03052 0.71907 0.0
C361 C 0.65144 0.04959 0.75227 0.0
C362 C 0.64022 0.07627 0.75292 0.0
C363 C 0.61981 0.08392 0.72114 0.0
H364 H 0.61599 0.02476 0.66042 0.0
C365 C 0.61225 0.06526 0.68692 0.0
C366 C 0.62375 0.03896 0.68572 0.0
H367 H 0.59655 0.07065 0.66199 0.0
H368 H 0.64567 0.9006 0.77047 0.0
H369 H 0.66492 0.94695 0.7587 0.0
H370 H 0.62375 0.95256 0.62768 0.0
H371 H 0.60432 0.90668 0.63988 0.0
H372 H 0.64969 0.99244 0.65348 0.0
H373 H 0.65223 0.99277 0.75869 0.0
H374 H 0.66592 0.0435 0.77873 0.0
H375 H 0.64623 0.09025 0.77987 0.0
C376 C 0.94782 0.61123 0.94115 0.0
C377 C 0.93022 0.62072 0.97604 0.0
C378 C 0.97406 0.62264 0.93492 0.0
C379 C 0.9835 0.64373 0.96375 0.0
C380 C 0.96558 0.65384 -0.00219 0.0
C381 C 0.93895 0.64271 0.00348 0.0
C382 C 0.01312 0.65207 0.96313 0.0
C383 C 0.02869 0.65104 0.92463 0.0
C384 C 0.05912 0.64677 0.92525 0.0
C385 C 0.07072 0.63059 0.89041 0.0
C386 C 0.09744 0.62013 0.8947 0.0
C387 C 0.1134 0.62624 0.93336 0.0
H388 H 0.06803 0.66817 -0.01131 0.0
C389 C 0.10309 0.64495 0.96572 0.0
C390 C 0.07602 0.65504 0.9619 0.0
H391 H 0.11505 0.65 -0.00416 0.0
H392 H 0.94162 0.59433 0.91942 0.0
H393 H 0.98746 0.61362 0.90925 0.0
H394 H 0.97249 0.66977 0.02091 0.0
H395 H 0.92582 0.6503 0.03081 0.0
H396 H 0.02274 0.65547 -0.00383 0.0
H397 H 0.01838 0.64813 0.89196 0.0
H398 H 0.05833 0.62413 0.86154 0.0
H399 H 0.10501 0.60588 0.86912 0.0
C400 C 0.50989 0.17076 0.86466 0.0
C401 C 0.53852 0.17532 0.86055 0.0
C402 C 0.49608 0.17581 0.90572 0.0
C403 C 0.51062 0.18515 0.94414 0.0
C404 C 0.53896 0.19126 0.9395 0.0
C405 C 0.55286 0.18637 0.89795 0.0
C406 C 0.49676 0.18732 -0.01041 0.0
C407 C 0.47663 0.16957 0.00244 0.0
C408 C 0.46479 0.16832 0.04931 0.0
C409 C 0.4583 0.14235 0.06806 0.0
C410 C 0.44877 0.13992 0.11312 0.0
C411 C 0.44467 0.16349 0.13979 0.0
H412 H 0.46423 0.21241 0.06136 0.0
C413 C 0.44961 0.18967 0.12037 0.0
C414 C 0.45992 0.19209 0.07544 0.0
H415 H 0.44678 0.2081 0.14058 0.0
H416 H 0.49802 0.16298 0.83612 0.0
H417 H 0.47402 0.17201 0.90737 0.0
H418 H 0.55054 0.19883 0.96851 0.0
H419 H 0.57487 0.19038 0.89558 0.0
H420 H 0.505 0.2018 0.01428 0.0
H421 H 0.47063 0.15316 0.97938 0.0
H422 H 0.46163 0.12379 0.04838 0.0
H423 H 0.44513 0.11952 0.12751 0.0
C424 C 0.84966 0.51981 0.14207 0.0
C425 C 0.84206 0.54746 0.13429 0.0
C426 C 0.84549 0.50731 0.18472 0.0
C427 C 0.83387 0.52218 0.22113 0.0
C428 C 0.82516 0.54946 0.21313 0.0
C429 C 0.82929 0.56208 0.17004 0.0
C430 C 0.83138 0.50964 0.26771 0.0
C431 C 0.85027 0.49154 0.28356 0.0
C432 C 0.85022 0.48051 0.33106 0.0
C433 C 0.8757 0.47661 0.35289 0.0
C434 C 0.87667 0.46766 0.39844 0.0
C435 C 0.8522 0.46152 0.42255 0.0
H436 H 0.80576 0.47592 0.33821 0.0
C437 C 0.82668 0.46391 0.4001 0.0
C438 C 0.82566 0.47365 0.35468 0.0
H439 H 0.80755 0.45951 0.41829 0.0
H440 H 0.85899 0.50764 0.11513 0.0
H441 H 0.85145 0.48592 0.18903 0.0
H442 H 0.81585 0.56125 0.24055 0.0
H443 H 0.82294 0.5833 0.16499 0.0
H444 H 0.81518 0.51702 0.29048 0.0
H445 H 0.86814 0.48658 0.26241 0.0
H446 H 0.8949 0.48148 0.33517 0.0
H447 H 0.89658 0.46599 0.41515 0.0
C448 C 0.52809 0.76429 0.64786 0.0
C449 C 0.55534 0.77406 0.65083 0.0
C450 C 0.51869 0.75208 0.60769 0.0
C451 C 0.53623 0.75025 0.56905 0.0
C452 C 0.56436 0.75711 0.57414 0.0
C453 C 0.5739 0.76889 0.61482 0.0
C454 C 0.52545 0.74601 0.52171 0.0
C455 C 0.4986 0.7496 0.51046 0.0
C456 C 0.48923 0.75848 0.46401 0.0
C457 C 0.46079 0.7577 0.45398 0.0
C458 C 0.45021 0.77217 0.4161 0.0
C459 C 0.46791 0.78803 0.38803 0.0
H460 H 0.52903 0.77419 0.43987 0.0
C461 C 0.49653 0.78706 0.39592 0.0
C462 C 0.50711 0.77247 0.43337 0.0
H463 H 0.51073 0.79889 0.37455 0.0
H464 H 0.51354 0.7677 0.67566 0.0
H465 H 0.49727 0.74579 0.60656 0.0
H466 H 0.57851 0.75559 0.54531 0.0
H467 H 0.59502 0.7763 0.61637 0.0
H468 H 0.54075 0.74445 0.49444 0.0
H469 H 0.48285 0.75 0.53703 0.0
H470 H 0.4465 0.74725 0.47709 0.0
H471 H 0.42806 0.77253 0.41082 0.0
C472 C 0.25115 0.56626 0.85327 0.0
C473 C 0.23866 0.54864 0.88578 0.0
C474 C 0.26517 0.55518 0.8154 0.0
C475 C 0.26681 0.52632 0.80983 0.0
C476 C 0.2573 0.50911 0.84555 0.0
C477 C 0.24314 0.52011 0.88286 0.0
C478 C 0.27359 0.51303 0.76526 0.0
C479 C 0.26857 0.52555 0.72464 0.0
C480 C 0.25969 0.51055 0.6827 0.0
C481 C 0.24612 0.526 0.64865 0.0
C482 C 0.23064 0.51297 0.61502 0.0
C483 C 0.22863 0.48409 0.61413 0.0
H484 H 0.27112 0.46863 0.70304 0.0
C485 C 0.24473 0.46841 0.64464 0.0
C486 C 0.26017 0.48151 0.67876 0.0
H487 H 0.24387 0.44609 0.64424 0.0
H488 H 0.24824 0.58837 0.85512 0.0
H489 H 0.27327 0.56923 0.78956 0.0
H490 H 0.25861 0.48687 0.84275 0.0
H491 H 0.23411 0.50609 0.90801 0.0
H492 H 0.27665 0.49091 0.76648 0.0
H493 H 0.26519 0.54767 0.72406 0.0
H494 H 0.24566 0.54833 0.65004 0.0
H495 H 0.21894 0.52563 0.59121 0.0
loop_
_geom_bond_atom_site_label_1
_geom_bond_atom_site_label_2
_geom_bond_distance
_geom_bond_site_symmetry_2
_ccdc_geom_bond_type
Zn0 O3 2.031 . S
Zn0 O5 2.049 . S
Zn0 O10 2.067 . S
Zn1 O2 1.962 . S
Zn1 O4 1.986 . S
Zn1 O6 1.996 . S
Zn1 O9 1.943 . S
O2 Zn1 1.962 . S
O2 C7 1.254 . S
O3 Zn0 2.031 . S
O3 C7 1.269 . S
O4 Zn1 1.986 . S
O4 C11 1.262 . S
O5 Zn0 2.049 . S
O5 C13 1.260 . S
O6 Zn1 1.996 . S
O6 C13 1.257 . S
C7 O2 1.254 . S
C7 O3 1.269 . S
C8 O9 1.249 . S
C8 O10 1.270 . S
O9 Zn1 1.943 . S
O9 C8 1.249 . S
O10 Zn0 2.067 . S
O10 C8 1.270 . S
C11 O4 1.262 . S
C11 O12 1.232 . S
O12 C11 1.232 . S
C13 O5 1.260 . S
C13 O6 1.257 . S
Zn14 O17 2.031 . S
Zn14 O19 2.049 . S
Zn14 O24 2.067 . S
Zn15 O16 1.962 . S
Zn15 O18 1.986 . S
Zn15 O20 1.996 . S
Zn15 O23 1.943 . S
O16 Zn15 1.962 . S
O16 C21 1.254 . S
O17 Zn14 2.031 . S
O17 C21 1.269 . S
O18 Zn15 1.986 . S
O18 C25 1.262 . S
O19 Zn14 2.049 . S
O19 C27 1.260 . S
O20 Zn15 1.996 . S
O20 C27 1.257 . S
C21 O16 1.254 . S
C21 O17 1.269 . S
C22 O23 1.249 . S
C22 O24 1.270 . S
O23 Zn15 1.943 . S
O23 C22 1.249 . S
O24 Zn14 2.067 . S
O24 C22 1.270 . S
C25 O18 1.262 . S
C25 O26 1.232 . S
O26 C25 1.232 . S
C27 O19 1.260 . S
C27 O20 1.257 . S
Zn28 O31 2.031 . S
Zn28 O33 2.049 . S
Zn28 O38 2.067 . S
Zn29 O30 1.962 . S
Zn29 O32 1.986 . S
Zn29 O34 1.996 . S
Zn29 O37 1.943 . S
O30 Zn29 1.962 . S
O30 C35 1.254 . S
O31 Zn28 2.031 . S
O31 C35 1.269 . S
O32 Zn29 1.986 . S
O32 C39 1.262 . S
O33 Zn28 2.049 . S
O33 C41 1.260 . S
O34 Zn29 1.996 . S
O34 C41 1.257 . S
C35 O30 1.254 . S
C35 O31 1.269 . S
C36 O37 1.249 . S
C36 O38 1.270 . S
O37 Zn29 1.943 . S
O37 C36 1.249 . S
O38 Zn28 2.067 . S
O38 C36 1.270 . S
C39 O32 1.262 . S
C39 O40 1.232 . S
O40 C39 1.232 . S
C41 O33 1.260 . S
C41 O34 1.257 . S
Zn42 O45 2.031 1_554 S
Zn42 O47 2.049 . S
Zn42 O52 2.067 . S
Zn43 O44 1.962 1_554 S
Zn43 O46 1.986 . S
Zn43 O48 1.996 . S
Zn43 O51 1.943 . S
O44 Zn43 1.962 1_556 S
O44 C49 1.254 . S
O45 Zn42 2.031 1_556 S
O45 C49 1.269 . S
O46 Zn43 1.986 . S
O46 C53 1.262 . S
O47 Zn42 2.049 . S
O47 C55 1.260 . S
O48 Zn43 1.996 . S
O48 C55 1.257 . S
C49 O44 1.254 . S
C49 O45 1.269 . S
C50 O51 1.249 . S
C50 O52 1.270 . S
O51 Zn43 1.943 . S
O51 C50 1.249 . S
O52 Zn42 2.067 . S
O52 C50 1.270 . S
C53 O46 1.262 . S
C53 O54 1.232 . S
O54 C53 1.232 . S
C55 O47 1.260 . S
C55 O48 1.257 . S
Zn56 O59 2.031 . S
Zn56 O61 2.049 . S
Zn56 O66 2.067 . S
Zn57 O58 1.962 . S
Zn57 O60 1.986 . S
Zn57 O62 1.996 . S
Zn57 O65 1.943 . S
O58 Zn57 1.962 . S
O58 C63 1.254 . S
O59 Zn56 2.031 . S
O59 C63 1.269 . S
O60 Zn57 1.986 . S
O60 C67 1.262 . S
O61 Zn56 2.049 . S
O61 C69 1.260 . S
O62 Zn57 1.996 . S
O62 C69 1.257 . S
C63 O58 1.254 . S
C63 O59 1.269 . S
C64 O65 1.249 . S
C64 O66 1.270 . S
O65 Zn57 1.943 . S
O65 C64 1.249 . S
O66 Zn56 2.067 . S
O66 C64 1.270 . S
C67 O60 1.262 . S
C67 O68 1.232 . S
O68 C67 1.232 . S
C69 O61 1.260 . S
C69 O62 1.257 . S
Zn70 O73 2.031 . S
Zn70 O75 2.049 . S
Zn70 O80 2.067 . S
Zn71 O72 1.962 . S
Zn71 O74 1.986 . S
Zn71 O76 1.996 . S
Zn71 O79 1.943 . S
O72 Zn71 1.962 . S
O72 C77 1.254 . S
O73 Zn70 2.031 . S
O73 C77 1.269 . S
O74 Zn71 1.986 . S
O74 C81 1.262 . S
O75 Zn70 2.049 . S
O75 C83 1.260 . S
O76 Zn71 1.996 . S
O76 C83 1.257 . S
C77 O72 1.254 . S
C77 O73 1.269 . S
C78 O79 1.249 . S
C78 O80 1.270 . S
O79 Zn71 1.943 . S
O79 C78 1.249 . S
O80 Zn70 2.067 . S
O80 C78 1.270 . S
C81 O74 1.262 . S
C81 O82 1.232 . S
O82 C81 1.232 . S
C83 O75 1.260 . S
C83 O76 1.257 . S
Zn84 O87 2.031 . S
Zn84 O89 2.049 . S
Zn84 O94 2.067 . S
Zn85 O86 1.962 . S
Zn85 O88 1.986 . S
Zn85 O90 1.996 . S
Zn85 O93 1.943 . S
O86 Zn85 1.962 . S
O86 C91 1.254 . S
O87 Zn84 2.031 . S
O87 C91 1.269 . S
O88 Zn85 1.986 . S
O88 C95 1.262 . S
O89 Zn84 2.049 . S
O89 C97 1.260 . S
O90 Zn85 1.996 . S
O90 C97 1.257 . S
C91 O86 1.254 . S
C91 O87 1.269 . S
C92 O93 1.249 . S
C92 O94 1.270 . S
O93 Zn85 1.943 . S
O93 C92 1.249 . S
O94 Zn84 2.067 . S
O94 C92 1.270 . S
C95 O88 1.262 . S
C95 O96 1.232 . S
O96 C95 1.232 . S
C97 O89 1.260 . S
C97 O90 1.257 . S
Zn98 O101 2.031 . S
Zn98 O103 2.049 1_554 S
Zn98 O108 2.067 . S
Zn99 O100 1.962 . S
Zn99 O102 1.986 1_554 S
Zn99 O104 1.996 1_554 S
Zn99 O107 1.943 . S
O100 Zn99 1.962 . S
O100 C105 1.254 . S
O101 Zn98 2.031 . S
O101 C105 1.269 . S
O102 Zn99 1.986 1_556 S
O102 C109 1.262 1_556 S
O103 Zn98 2.049 1_556 S
O103 C111 1.260 . S
O104 Zn99 1.996 1_556 S
O104 C111 1.257 . S
C105 O100 1.254 . S
C105 O101 1.269 . S
C106 O107 1.249 . S
C106 O108 1.270 . S
O107 Zn99 1.943 . S
O107 C106 1.249 . S
O108 Zn98 2.067 . S
O108 C106 1.270 . S
C109 O102 1.262 1_554 S
C109 O110 1.232 . S
O110 C109 1.232 . S
C111 O103 1.260 . S
C111 O104 1.257 . S
C112 C113 1.386 . S
C112 C114 1.383 . S
C112 H128 0.951 . S
C113 C112 1.386 . S
C113 C117 1.383 . S
C114 C112 1.383 . S
C114 C115 1.402 . S
C114 H129 0.951 . S
C115 C114 1.402 . S
C115 C116 1.375 . S
C115 C118 1.481 . S
C116 C115 1.375 . S
C116 C117 1.367 . S
C116 H130 0.951 . S
C117 C113 1.383 . S
C117 C116 1.367 . S
C117 H131 0.950 . S
C118 C115 1.481 . S
C118 C119 1.297 . S
C118 H132 0.950 . S
C119 C118 1.297 . S
C119 C120 1.479 . S
C119 H133 0.950 . S
C120 C119 1.479 . S
C120 C121 1.375 . S
C120 C126 1.404 . S
C121 C120 1.375 . S
C121 C122 1.369 . S
C121 H134 0.950 . S
C122 C121 1.369 . S
C122 C123 1.392 . S
C122 H135 0.951 . S
C123 C122 1.392 . S
C123 C125 1.384 . S
H124 C126 0.949 . S
C125 C123 1.384 . S
C125 C126 1.385 . S
C125 H127 0.950 . S
C126 C120 1.404 . S
C126 H124 0.949 . S
C126 C125 1.385 . S
H127 C125 0.950 . S
H128 C112 0.951 . S
H129 C114 0.951 . S
H130 C116 0.951 . S
H131 C117 0.950 . S
H132 C118 0.950 . S
H133 C119 0.950 . S
H134 C121 0.950 . S
H135 C122 0.951 . S
C136 C137 1.386 . S
C136 C138 1.383 . S
C136 H152 0.951 . S
C137 C136 1.386 . S
C137 C141 1.383 . S
C138 C136 1.383 . S
C138 C139 1.402 . S
C138 H153 0.951 . S
C139 C138 1.402 . S
C139 C140 1.375 . S
C139 C142 1.481 . S
C140 C139 1.375 . S
C140 C141 1.367 . S
C140 H154 0.951 . S
C141 C137 1.383 . S
C141 C140 1.367 . S
C141 H155 0.950 . S
C142 C139 1.481 . S
C142 C143 1.297 . S
C142 H156 0.950 . S
C143 C142 1.297 . S
C143 C144 1.479 . S
C143 H157 0.950 . S
C144 C143 1.479 . S
C144 C145 1.375 . S
C144 C150 1.404 . S
C145 C144 1.375 . S
C145 C146 1.369 . S
C145 H158 0.950 . S
C146 C145 1.369 . S
C146 C147 1.392 . S
C146 H159 0.951 . S
C147 C146 1.392 . S
C147 C149 1.384 . S
H148 C150 0.949 . S
C149 C147 1.384 . S
C149 C150 1.385 . S
C149 H151 0.950 . S
C150 C144 1.404 . S
C150 H148 0.949 . S
C150 C149 1.385 . S
H151 C149 0.950 . S
H152 C136 0.951 . S
H153 C138 0.951 . S
H154 C140 0.951 . S
H155 C141 0.950 . S
H156 C142 0.950 . S
H157 C143 0.950 . S
H158 C145 0.950 . S
H159 C146 0.951 . S
C160 C161 1.386 . S
C160 C162 1.383 . S
C160 H176 0.951 . S
C161 C160 1.386 . S
C161 C165 1.383 . S
C162 C160 1.383 . S
C162 C163 1.402 . S
C162 H177 0.951 . S
C163 C162 1.402 . S
C163 C164 1.375 . S
C163 C166 1.481 . S
C164 C163 1.375 . S
C164 C165 1.367 . S
C164 H178 0.951 . S
C165 C161 1.383 . S
C165 C164 1.367 . S
C165 H179 0.950 . S
C166 C163 1.481 . S
C166 C167 1.297 . S
C166 H180 0.950 . S
C167 C166 1.297 . S
C167 C168 1.479 1_554 S
C167 H181 0.950 . S
C168 C167 1.479 1_556 S
C168 C169 1.375 . S
C168 C174 1.404 . S
C169 C168 1.375 . S
C169 C170 1.369 . S
C169 H182 0.950 . S
C170 C169 1.369 . S
C170 C171 1.392 . S
C170 H183 0.951 . S
C171 C170 1.392 . S
C171 C173 1.384 . S
H172 C174 0.949 . S
C173 C171 1.384 . S
C173 C174 1.385 . S
C173 H175 0.950 . S
C174 C168 1.404 . S
C174 H172 0.949 . S
C174 C173 1.385 . S
H175 C173 0.950 . S
H176 C160 0.951 . S
H177 C162 0.951 . S
H178 C164 0.951 . S
H179 C165 0.950 . S
H180 C166 0.950 . S
H181 C167 0.950 . S
H182 C169 0.950 . S
H183 C170 0.951 . S
C184 C185 1.386 . S
C184 C186 1.383 . S
C184 H200 0.951 . S
C185 C184 1.386 . S
C185 C189 1.383 . S
C186 C184 1.383 . S
C186 C187 1.402 . S
C186 H201 0.951 . S
C187 C186 1.402 . S
C187 C188 1.375 . S
C187 C190 1.481 . S
C188 C187 1.375 . S
C188 C189 1.367 . S
C188 H202 0.951 . S
C189 C185 1.383 . S
C189 C188 1.367 . S
C189 H203 0.950 . S
C190 C187 1.481 . S
C190 C191 1.297 . S
C190 H204 0.950 . S
C191 C190 1.297 . S
C191 C192 1.479 . S
C191 H205 0.950 . S
C192 C191 1.479 . S
C192 C193 1.375 . S
C192 C198 1.404 . S
C193 C192 1.375 . S
C193 C194 1.369 . S
C193 H206 0.950 . S
C194 C193 1.369 . S
C194 C195 1.392 . S
C194 H207 0.951 . S
C195 C194 1.392 . S
C195 C197 1.384 . S
H196 C198 0.949 . S
C197 C195 1.384 . S
C197 C198 1.385 . S
C197 H199 0.950 . S
C198 C192 1.404 . S
C198 H196 0.949 . S
C198 C197 1.385 . S
H199 C197 0.950 . S
H200 C184 0.951 . S
H201 C186 0.951 . S
H202 C188 0.951 . S
H203 C189 0.950 . S
H204 C190 0.950 . S
H205 C191 0.950 . S
H206 C193 0.950 . S
H207 C194 0.951 . S
C208 C209 1.386 . S
C208 C210 1.383 . S
C208 H224 0.951 . S
C209 C208 1.386 . S
C209 C213 1.383 . S
C210 C208 1.383 . S
C210 C211 1.402 . S
C210 H225 0.951 . S
C211 C210 1.402 . S
C211 C212 1.375 . S
C211 C214 1.481 . S
C212 C211 1.375 . S
C212 C213 1.367 . S
C212 H226 0.951 . S
C213 C209 1.383 . S
C213 C212 1.367 . S
C213 H227 0.950 . S
C214 C211 1.481 . S
C214 C215 1.297 . S
C214 H228 0.950 . S
C215 C214 1.297 . S
C215 C216 1.479 . S
C215 H229 0.950 . S
C216 C215 1.479 . S
C216 C217 1.375 . S
C216 C222 1.404 . S
C217 C216 1.375 . S
C217 C218 1.369 . S
C217 H230 0.950 . S
C218 C217 1.369 . S
C218 C219 1.392 . S
C218 H231 0.951 . S
C219 C218 1.392 . S
C219 C221 1.384 . S
H220 C222 0.949 . S
C221 C219 1.384 . S
C221 C222 1.385 . S
C221 H223 0.950 . S
C222 C216 1.404 . S
C222 H220 0.949 . S
C222 C221 1.385 . S
H223 C221 0.950 . S
H224 C208 0.951 . S
H225 C210 0.951 . S
H226 C212 0.951 . S
H227 C213 0.950 . S
H228 C214 0.950 . S
H229 C215 0.950 . S
H230 C217 0.950 . S
H231 C218 0.951 . S
C232 C233 1.386 . S
C232 C234 1.383 . S
C232 H248 0.951 . S
C233 C232 1.386 . S
C233 C237 1.383 . S
C234 C232 1.383 . S
C234 C235 1.402 . S
C234 H249 0.951 . S
C235 C234 1.402 . S
C235 C236 1.375 . S
C235 C238 1.481 . S
C236 C235 1.375 . S
C236 C237 1.367 . S
C236 H250 0.951 . S
C237 C233 1.383 . S
C237 C236 1.367 . S
C237 H251 0.950 . S
C238 C235 1.481 . S
C238 C239 1.297 . S
C238 H252 0.950 . S
C239 C238 1.297 . S
C239 C240 1.479 . S
C239 H253 0.950 . S
C240 C239 1.479 . S
C240 C241 1.375 . S
C240 C246 1.404 . S
C241 C240 1.375 . S
C241 C242 1.369 . S
C241 H254 0.950 . S
C242 C241 1.369 . S
C242 C243 1.392 . S
C242 H255 0.951 . S
C243 C242 1.392 . S
C243 C245 1.384 . S
H244 C246 0.949 . S
C245 C243 1.384 . S
C245 C246 1.385 . S
C245 H247 0.950 . S
C246 C240 1.404 . S
C246 H244 0.949 . S
C246 C245 1.385 . S
H247 C245 0.950 . S
H248 C232 0.951 . S
H249 C234 0.951 . S
H250 C236 0.951 . S
H251 C237 0.950 . S
H252 C238 0.950 . S
H253 C239 0.950 . S
H254 C241 0.950 . S
H255 C242 0.951 . S
C256 C257 1.386 . S
C256 C258 1.383 . S
C256 H272 0.951 . S
C257 C256 1.386 . S
C257 C261 1.383 . S
C258 C256 1.383 . S
C258 C259 1.402 . S
C258 H273 0.951 . S
C259 C258 1.402 . S
C259 C260 1.375 . S
C259 C262 1.481 . S
C260 C259 1.375 . S
C260 C261 1.367 . S
C260 H274 0.951 . S
C261 C257 1.383 . S
C261 C260 1.367 . S
C261 H275 0.950 . S
C262 C259 1.481 . S
C262 C263 1.297 . S
C262 H276 0.950 . S
C263 C262 1.297 . S
C263 C264 1.479 . S
C263 H277 0.950 . S
C264 C263 1.479 . S
C264 C265 1.375 . S
C264 C270 1.404 . S
C265 C264 1.375 . S
C265 C266 1.369 . S
C265 H278 0.950 . S
C266 C265 1.369 . S
C266 C267 1.392 . S
C266 H279 0.951 . S
C267 C266 1.392 . S
C267 C269 1.384 . S
H268 C270 0.949 . S
C269 C267 1.384 . S
C269 C270 1.385 . S
C269 H271 0.950 . S
C270 C264 1.404 . S
C270 H268 0.949 . S
C270 C269 1.385 . S
H271 C269 0.950 . S
H272 C256 0.951 . S
H273 C258 0.951 . S
H274 C260 0.951 . S
H275 C261 0.950 . S
H276 C262 0.950 . S
H277 C263 0.950 . S
H278 C265 0.950 . S
H279 C266 0.951 . S
C280 C281 1.386 . S
C280 C282 1.383 . S
C280 H296 0.951 . S
C281 C280 1.386 . S
C281 C285 1.383 . S
C282 C280 1.383 . S
C282 C283 1.402 . S
C282 H297 0.951 . S
C283 C282 1.402 . S
C283 C284 1.375 . S
C283 C286 1.481 . S
C284 C283 1.375 . S
C284 C285 1.367 . S
C284 H298 0.951 . S
C285 C281 1.383 . S
C285 C284 1.367 . S
C285 H299 0.950 . S
C286 C283 1.481 . S
C286 C287 1.297 . S
C286 H300 0.950 . S
C287 C286 1.297 . S
C287 C288 1.479 . S
C287 H301 0.950 . S
C288 C287 1.479 . S
C288 C289 1.375 . S
C288 C294 1.404 . S
C289 C288 1.375 . S
C289 C290 1.369 . S
C289 H302 0.950 . S
C290 C289 1.369 . S
C290 C291 1.392 . S
C290 H303 0.951 . S
C291 C290 1.392 . S
C291 C293 1.384 . S
H292 C294 0.949 . S
C293 C291 1.384 . S
C293 C294 1.385 . S
C293 H295 0.950 . S
C294 C288 1.404 . S
C294 H292 0.949 . S
C294 C293 1.385 . S
H295 C293 0.950 . S
H296 C280 0.951 . S
H297 C282 0.951 . S
H298 C284 0.951 . S
H299 C285 0.950 . S
H300 C286 0.950 . S
H301 C287 0.950 . S
H302 C289 0.950 . S
H303 C290 0.951 . S
C304 C305 1.386 . S
C304 C306 1.383 . S
C304 H320 0.951 . S
C305 C304 1.386 . S
C305 C309 1.383 . S
C306 C304 1.383 . S
C306 C307 1.402 . S
C306 H321 0.951 . S
C307 C306 1.402 . S
C307 C308 1.375 . S
C307 C310 1.481 . S
C308 C307 1.375 . S
C308 C309 1.367 . S
C308 H322 0.951 . S
C309 C305 1.383 . S
C309 C308 1.367 . S
C309 H323 0.950 . S
C310 C307 1.481 . S
C310 C311 1.297 1_565 S
C310 H324 0.950 . S
C311 C310 1.297 1_545 S
C311 C312 1.479 . S
C311 H325 0.950 . S
C312 C311 1.479 . S
C312 C313 1.375 . S
C312 C318 1.404 . S
C313 C312 1.375 . S
C313 C314 1.369 . S
C313 H326 0.950 . S
C314 C313 1.369 . S
C314 C315 1.392 . S
C314 H327 0.951 . S
C315 C314 1.392 . S
C315 C317 1.384 . S
H316 C318 0.949 . S
C317 C315 1.384 . S
C317 C318 1.385 . S
C317 H319 0.950 . S
C318 C312 1.404 . S
C318 H316 0.949 . S
C318 C317 1.385 . S
H319 C317 0.950 . S
H320 C304 0.951 . S
H321 C306 0.951 . S
H322 C308 0.951 . S
H323 C309 0.950 . S
H324 C310 0.950 . S
H325 C311 0.950 . S
H326 C313 0.950 . S
H327 C314 0.951 . S
C328 C329 1.386 . S
C328 C330 1.383 . S
C328 H344 0.951 . S
C329 C328 1.386 . S
C329 C333 1.383 . S
C330 C328 1.383 . S
C330 C331 1.402 . S
C330 H345 0.951 . S
C331 C330 1.402 . S
C331 C332 1.375 . S
C331 C334 1.481 . S
C332 C331 1.375 . S
C332 C333 1.367 . S
C332 H346 0.951 . S
C333 C329 1.383 . S
C333 C332 1.367 . S
C333 H347 0.950 . S
C334 C331 1.481 . S
C334 C335 1.297 1_655 S
C334 H348 0.950 . S
C335 C334 1.297 1_455 S
C335 C336 1.479 . S
C335 H349 0.950 . S
C336 C335 1.479 . S
C336 C337 1.375 . S
C336 C342 1.404 . S
C337 C336 1.375 . S
C337 C338 1.369 . S
C337 H350 0.950 . S
C338 C337 1.369 . S
C338 C339 1.392 . S
C338 H351 0.951 . S
C339 C338 1.392 . S
C339 C341 1.384 . S
H340 C342 0.949 . S
C341 C339 1.384 . S
C341 C342 1.385 . S
C341 H343 0.950 . S
C342 C336 1.404 . S
C342 H340 0.949 . S
C342 C341 1.385 . S
H343 C341 0.950 . S
H344 C328 0.951 . S
H345 C330 0.951 . S
H346 C332 0.951 . S
H347 C333 0.950 . S
H348 C334 0.950 . S
H349 C335 0.950 . S
H350 C337 0.950 . S
H351 C338 0.951 . S
C352 C353 1.386 . S
C352 C354 1.383 . S
C352 H368 0.951 . S
C353 C352 1.386 . S
C353 C357 1.383 . S
C354 C352 1.383 . S
C354 C355 1.402 . S
C354 H369 0.951 . S
C355 C354 1.402 . S
C355 C356 1.375 . S
C355 C358 1.481 . S
C356 C355 1.375 . S
C356 C357 1.367 . S
C356 H370 0.951 . S
C357 C353 1.383 . S
C357 C356 1.367 . S
C357 H371 0.950 . S
C358 C355 1.481 . S
C358 C359 1.297 1_565 S
C358 H372 0.950 . S
C359 C358 1.297 1_545 S
C359 C360 1.479 . S
C359 H373 0.950 . S
C360 C359 1.479 . S
C360 C361 1.375 . S
C360 C366 1.404 . S
C361 C360 1.375 . S
C361 C362 1.369 . S
C361 H374 0.950 . S
C362 C361 1.369 . S
C362 C363 1.392 . S
C362 H375 0.951 . S
C363 C362 1.392 . S
C363 C365 1.384 . S
H364 C366 0.949 . S
C365 C363 1.384 . S
C365 C366 1.385 . S
C365 H367 0.950 . S
C366 C360 1.404 . S
C366 H364 0.949 . S
C366 C365 1.385 . S
H367 C365 0.950 . S
H368 C352 0.951 . S
H369 C354 0.951 . S
H370 C356 0.951 . S
H371 C357 0.950 . S
H372 C358 0.950 . S
H373 C359 0.950 . S
H374 C361 0.950 . S
H375 C362 0.951 . S
C376 C377 1.386 1_556 S
C376 C378 1.382 1_556 S
C376 H392 0.951 . S
C377 C376 1.386 1_554 S
C377 C381 1.383 . S
C378 C376 1.382 1_554 S
C378 C379 1.413 . S
C378 H393 0.940 1_554 S
C379 C378 1.413 . S
C379 C380 1.375 . S
C379 C382 1.481 . S
C380 C379 1.375 . S
C380 C381 1.367 . S
C380 H394 0.951 . S
C381 C377 1.383 . S
C381 C380 1.367 . S
C381 H395 0.950 . S
C382 C379 1.481 . S
C382 C383 1.297 1_655 S
C382 H396 0.950 . S
C383 C382 1.297 1_455 S
C383 C384 1.479 . S
C383 H397 0.950 1_554 S
C384 C383 1.479 . S
C384 C385 1.375 1_554 S
C384 C390 1.404 . S
C385 C384 1.375 1_556 S
C385 C386 1.369 . S
C385 H398 0.950 . S
C386 C385 1.369 . S
C386 C387 1.392 1_556 S
C386 H399 0.951 . S
C387 C386 1.392 1_554 S
C387 C389 1.384 . S
H388 C390 0.949 . S
C389 C387 1.384 . S
C389 C390 1.385 . S
C389 H391 0.950 . S
C390 C384 1.404 . S
C390 H388 0.949 . S
C390 C389 1.385 . S
H391 C389 0.950 . S
H392 C376 0.951 . S
H393 C378 0.940 1_556 S
H394 C380 0.951 . S
H395 C381 0.950 . S
H396 C382 0.950 . S
H397 C383 0.950 1_556 S
H398 C385 0.950 . S
H399 C386 0.951 . S
C400 C401 1.386 . S
C400 C402 1.383 . S
C400 H416 0.951 . S
C401 C400 1.386 . S
C401 C405 1.383 . S
C402 C400 1.383 . S
C402 C403 1.402 . S
C402 H417 0.951 . S
C403 C402 1.402 . S
C403 C404 1.375 . S
C403 C406 1.481 1_556 S
C404 C403 1.375 . S
C404 C405 1.367 . S
C404 H418 0.951 . S
C405 C401 1.383 . S
C405 C404 1.367 . S
C405 H419 0.950 . S
C406 C403 1.481 1_554 S
C406 C407 1.297 . S
C406 H420 0.950 . S
C407 C406 1.297 . S
C407 C408 1.479 . S
C407 H421 0.950 . S
C408 C407 1.479 . S
C408 C409 1.375 . S
C408 C414 1.404 . S
C409 C408 1.375 . S
C409 C410 1.369 . S
C409 H422 0.950 . S
C410 C409 1.369 . S
C410 C411 1.392 . S
C410 H423 0.951 . S
C411 C410 1.392 . S
C411 C413 1.384 . S
H412 C414 0.949 . S
C413 C411 1.384 . S
C413 C414 1.385 . S
C413 H415 0.950 . S
C414 C408 1.404 . S
C414 H412 0.949 . S
C414 C413 1.385 . S
H415 C413 0.950 . S
H416 C400 0.951 . S
H417 C402 0.951 . S
H418 C404 0.951 . S
H419 C405 0.950 . S
H420 C406 0.950 . S
H421 C407 0.950 . S
H422 C409 0.950 . S
H423 C410 0.951 . S
C424 C425 1.386 . S
C424 C426 1.383 . S
C424 H440 0.951 . S
C425 C424 1.386 . S
C425 C429 1.383 . S
C426 C424 1.383 . S
C426 C427 1.402 . S
C426 H441 0.951 . S
C427 C426 1.402 . S
C427 C428 1.375 . S
C427 C430 1.481 . S
C428 C427 1.375 . S
C428 C429 1.367 . S
C428 H442 0.951 . S
C429 C425 1.383 . S
C429 C428 1.367 . S
C429 H443 0.950 . S
C430 C427 1.481 . S
C430 C431 1.297 . S
C430 H444 0.950 . S
C431 C430 1.297 . S
C431 C432 1.479 . S
C431 H445 0.950 . S
C432 C431 1.479 . S
C432 C433 1.375 . S
C432 C438 1.404 . S
C433 C432 1.375 . S
C433 C434 1.369 . S
C433 H446 0.950 . S
C434 C433 1.369 . S
C434 C435 1.392 . S
C434 H447 0.951 . S
C435 C434 1.392 . S
C435 C437 1.384 . S
H436 C438 0.949 . S
C437 C435 1.384 . S
C437 C438 1.385 . S
C437 H439 0.950 . S
C438 C432 1.404 . S
C438 H436 0.949 . S
C438 C437 1.385 . S
H439 C437 0.950 . S
H440 C424 0.951 . S
H441 C426 0.951 . S
H442 C428 0.951 . S
H443 C429 0.950 . S
H444 C430 0.950 . S
H445 C431 0.950 . S
H446 C433 0.950 . S
H447 C434 0.951 . S
C448 C449 1.386 . S
C448 C450 1.383 . S
C448 H464 0.951 . S
C449 C448 1.386 . S
C449 C453 1.383 . S
C450 C448 1.383 . S
C450 C451 1.402 . S
C450 H465 0.951 . S
C451 C450 1.402 . S
C451 C452 1.375 . S
C451 C454 1.481 . S
C452 C451 1.375 . S
C452 C453 1.367 . S
C452 H466 0.951 . S
C453 C449 1.383 . S
C453 C452 1.367 . S
C453 H467 0.950 . S
C454 C451 1.481 . S
C454 C455 1.297 . S
C454 H468 0.950 . S
C455 C454 1.297 . S
C455 C456 1.479 . S
C455 H469 0.950 . S
C456 C455 1.479 . S
C456 C457 1.375 . S
C456 C462 1.404 . S
C457 C456 1.375 . S
C457 C458 1.369 . S
C457 H470 0.950 . S
C458 C457 1.369 . S
C458 C459 1.392 . S
C458 H471 0.951 . S
C459 C458 1.392 . S
C459 C461 1.384 . S
H460 C462 0.949 . S
C461 C459 1.384 . S
C461 C462 1.385 . S
C461 H463 0.950 . S
C462 C456 1.404 . S
C462 H460 0.949 . S
C462 C461 1.385 . S
H463 C461 0.950 . S
H464 C448 0.951 . S
H465 C450 0.951 . S
H466 C452 0.951 . S
H467 C453 0.950 . S
H468 C454 0.950 . S
H469 C455 0.950 . S
H470 C457 0.950 . S
H471 C458 0.951 . S
C472 C473 1.386 . S
C472 C474 1.383 . S
C472 H488 0.951 . S
C473 C472 1.386 . S
C473 C477 1.383 . S
C474 C472 1.383 . S
C474 C475 1.402 . S
C474 H489 0.951 . S
C475 C474 1.402 . S
C475 C476 1.375 . S
C475 C478 1.481 . S
C476 C475 1.375 . S
C476 C477 1.367 . S
C476 H490 0.951 . S
C477 C473 1.383 . S
C477 C476 1.367 . S
C477 H491 0.950 . S
C478 C475 1.481 . S
C478 C479 1.297 . S
C478 H492 0.950 . S
C479 C478 1.297 . S
C479 C480 1.479 . S
C479 H493 0.950 . S
C480 C479 1.479 . S
C480 C481 1.375 . S
C480 C486 1.404 . S
C481 C480 1.375 . S
C481 C482 1.369 . S
C481 H494 0.950 . S
C482 C481 1.369 . S
C482 C483 1.392 . S
C482 H495 0.951 . S
C483 C482 1.392 . S
C483 C485 1.384 . S
H484 C486 0.949 . S
C485 C483 1.384 . S
C485 C486 1.385 . S
C485 H487 0.950 . S
C486 C480 1.404 . S
C486 H484 0.949 . S
C486 C485 1.385 . S
H487 C485 0.950 . S
H488 C472 0.951 . S
H489 C474 0.951 . S
H490 C476 0.951 . S
H491 C477 0.950 . S
H492 C478 0.950 . S
H493 C479 0.950 . S
H494 C481 0.950 . S
H495 C482 0.951 . S
C113 C13 0.832 . S
C123 C97 0.911 . S
C137 C27 0.793 . S
C147 C111 0.884 . S
C161 C69 0.804 . S
C171 C41 0.707 . S
C185 C83 0.841 . S
C195 C55 0.769 . S
C209 C11 1.307 . S
C219 C81 1.340 . S
C233 C25 1.308 . S
C243 C95 1.340 . S
C257 C109 1.305 1_556 S
C267 C39 1.339 . S
C281 C53 1.335 . S
C291 C67 1.287 . S
C305 C64 1.222 . S
C315 C8 1.239 . S
C329 C22 1.185 . S
C339 C78 1.178 . S
C353 C36 1.210 . S
C363 C92 1.218 . S
C377 C106 1.233 . S
C387 C50 1.257 . S
C401 C91 1.667 . S
C411 C7 1.598 . S
C425 C105 1.666 . S
C435 C21 1.598 . S
C449 C35 1.648 . S
C459 C63 1.627 . S
C473 C49 1.646 . S
C483 C77 1.637 . S
