# Generated by pormake.
# Topology fnl, (5)-cn, num edge types: 1
# Building blocks:
#     Node 0, Type 0, BuildingBlock: XOMCOT_clean_sbu_1, # of connection points: 5
#     Node 1, Type 0, BuildingBlock: XOMCOT_clean_sbu_1, # of connection points: 5
#     Node 2, Type 0, BuildingBlock: XOMCOT_clean_sbu_1, # of connection points: 5
#     Node 3, Type 0, BuildingBlock: XOMCOT_clean_sbu_1, # of connection points: 5
#     Node 4, Type 0, BuildingBlock: XOMCOT_clean_sbu_1, # of connection points: 5
#     Node 5, Type 0, BuildingBlock: XOMCOT_clean_sbu_1, # of connection points: 5
#     Node 6, Type 0, BuildingBlock: XOMCOT_clean_sbu_1, # of connection points: 5
#     Node 7, Type 0, BuildingBlock: XOMCOT_clean_sbu_1, # of connection points: 5
#     Node 8, Type 0, BuildingBlock: XOMCOT_clean_sbu_1, # of connection points: 5
#     Node 9, Type 0, BuildingBlock: XOMCOT_clean_sbu_1, # of connection points: 5
#     Node 10, Type 0, BuildingBlock: XOMCOT_clean_sbu_1, # of connection points: 5
#     Node 11, Type 0, BuildingBlock: XOMCOT_clean_sbu_1, # of connection points: 5
#     Node 12, Type 0, BuildingBlock: XOMCOT_clean_sbu_1, # of connection points: 5
#     Node 13, Type 0, BuildingBlock: XOMCOT_clean_sbu_1, # of connection points: 5
#     Node 14, Type 0, BuildingBlock: XOMCOT_clean_sbu_1, # of connection points: 5
#     Node 15, Type 0, BuildingBlock: XOMCOT_clean_sbu_1, # of connection points: 5
#     Edge 16, Type (0, 0), BuildingBlock: XIVTED_clean_linker_0, # of connection points: 2
#     Edge 17, Type (0, 0), BuildingBlock: XIVTED_clean_linker_0, # of connection points: 2
#     Edge 18, Type (0, 0), BuildingBlock: XIVTED_clean_linker_0, # of connection points: 2
#     Edge 19, Type (0, 0), BuildingBlock: XIVTED_clean_linker_0, # of connection points: 2
#     Edge 20, Type (0, 0), BuildingBlock: XIVTED_clean_linker_0, # of connection points: 2
#     Edge 21, Type (0, 0), BuildingBlock: XIVTED_clean_linker_0, # of connection points: 2
#     Edge 22, Type (0, 0), BuildingBlock: XIVTED_clean_linker_0, # of connection points: 2
#     Edge 23, Type (0, 0), BuildingBlock: XIVTED_clean_linker_0, # of connection points: 2
#     Edge 24, Type (0, 0), BuildingBlock: XIVTED_clean_linker_0, # of connection points: 2
#     Edge 25, Type (0, 0), BuildingBlock: XIVTED_clean_linker_0, # of connection points: 2
#     Edge 26, Type (0, 0), BuildingBlock: XIVTED_clean_linker_0, # of connection points: 2
#     Edge 27, Type (0, 0), BuildingBlock: XIVTED_clean_linker_0, # of connection points: 2
#     Edge 28, Type (0, 0), BuildingBlock: XIVTED_clean_linker_0, # of connection points: 2
#     Edge 29, Type (0, 0), BuildingBlock: XIVTED_clean_linker_0, # of connection points: 2
#     Edge 30, Type (0, 0), BuildingBlock: XIVTED_clean_linker_0, # of connection points: 2
#     Edge 31, Type (0, 0), BuildingBlock: XIVTED_clean_linker_0, # of connection points: 2
#     Edge 32, Type (0, 0), BuildingBlock: XIVTED_clean_linker_0, # of connection points: 2
#     Edge 33, Type (0, 0), BuildingBlock: XIVTED_clean_linker_0, # of connection points: 2
#     Edge 34, Type (0, 0), BuildingBlock: XIVTED_clean_linker_0, # of connection points: 2
#     Edge 35, Type (0, 0), BuildingBlock: XIVTED_clean_linker_0, # of connection points: 2
#     Edge 36, Type (0, 0), BuildingBlock: XIVTED_clean_linker_0, # of connection points: 2
#     Edge 37, Type (0, 0), BuildingBlock: XIVTED_clean_linker_0, # of connection points: 2
#     Edge 38, Type (0, 0), BuildingBlock: XIVTED_clean_linker_0, # of connection points: 2
#     Edge 39, Type (0, 0), BuildingBlock: XIVTED_clean_linker_0, # of connection points: 2
#     Edge 40, Type (0, 0), BuildingBlock: XIVTED_clean_linker_0, # of connection points: 2
#     Edge 41, Type (0, 0), BuildingBlock: XIVTED_clean_linker_0, # of connection points: 2
#     Edge 42, Type (0, 0), BuildingBlock: XIVTED_clean_linker_0, # of connection points: 2
#     Edge 43, Type (0, 0), BuildingBlock: XIVTED_clean_linker_0, # of connection points: 2
#     Edge 44, Type (0, 0), BuildingBlock: XIVTED_clean_linker_0, # of connection points: 2
#     Edge 45, Type (0, 0), BuildingBlock: XIVTED_clean_linker_0, # of connection points: 2
#     Edge 46, Type (0, 0), BuildingBlock: XIVTED_clean_linker_0, # of connection points: 2
#     Edge 47, Type (0, 0), BuildingBlock: XIVTED_clean_linker_0, # of connection points: 2
#     Edge 48, Type (0, 0), BuildingBlock: XIVTED_clean_linker_0, # of connection points: 2
#     Edge 49, Type (0, 0), BuildingBlock: XIVTED_clean_linker_0, # of connection points: 2
#     Edge 50, Type (0, 0), BuildingBlock: XIVTED_clean_linker_0, # of connection points: 2
#     Edge 51, Type (0, 0), BuildingBlock: XIVTED_clean_linker_0, # of connection points: 2
#     Edge 52, Type (0, 0), BuildingBlock: XIVTED_clean_linker_0, # of connection points: 2
#     Edge 53, Type (0, 0), BuildingBlock: XIVTED_clean_linker_0, # of connection points: 2
#     Edge 54, Type (0, 0), BuildingBlock: XIVTED_clean_linker_0, # of connection points: 2
#     Edge 55, Type (0, 0), BuildingBlock: XIVTED_clean_linker_0, # of connection points: 2
# Relax obj value: 0.497
# Max RMSD: 0.266
# Mean RMSD: 0.266
data_MOF--net-fnl--node1-XOMCOT_clean_sbu_1--edge1-XIVTED_clean_linker_0
_symmetry_space_group_name_H-M    P1
_symmetry_Int_Tables_number       1
_symmetry_cell_setting            triclinic
loop_
_symmetry_equiv_pos_as_xyz
'x, y, z'
_cell_length_a     34.451367
_cell_length_b     34.471396
_cell_length_c     97.332748
_cell_angle_alpha  89.949305
_cell_angle_beta   89.968022
_cell_angle_gamma 90.010605
loop_
_atom_site_label
_atom_site_type_symbol
_atom_site_fract_x
_atom_site_fract_y
_atom_site_fract_z
_atom_type_partial_charge
C0 C 0.95971 0.01134 0.0612 0.0
C1 C 0.95062 0.97271 0.05983 0.0
N2 N 0.98119 0.95172 0.0642 0.0
N3 N -0.00438 0.01458 0.06655 0.0
C4 C 0.00818 0.9778 0.06815 0.0
H5 H 0.94137 0.03559 0.05846 0.0
Co6 Co 0.01959 0.06116 0.07032 0.0
C7 C 0.07485 0.04807 0.09301 0.0
O8 O 0.06562 0.0822 0.09804 0.0
N9 N 0.04396 0.10904 0.07365 0.0
C10 C 0.0894 0.15489 0.07491 0.0
C11 C 0.08197 0.11694 0.0715 0.0
C12 C 0.02894 0.14286 0.07815 0.0
N13 N 0.05594 0.17095 0.07917 0.0
O14 O 0.05227 0.05347 0.0547 0.0
H15 H 0.10311 0.0962 0.06783 0.0
H16 H -0.00133 0.14752 0.08034 0.0
O17 O 0.05799 0.03527 0.08219 0.0
C18 C 0.04495 0.07526 0.04446 0.0
O19 O 0.018 0.10202 0.04568 0.0
N20 N 0.98431 0.06813 0.08491 0.0
C21 C 0.91982 0.06985 0.10227 0.0
C22 C 0.95264 0.04791 0.10567 0.0
C23 C 0.98403 0.04647 0.09668 0.0
C24 C 0.95249 0.0896 0.08144 0.0
C25 C 0.92001 0.09118 0.09003 0.0
H26 H 0.00626 0.0254 0.0988 0.0
H27 H 0.95159 0.10406 0.07158 0.0
H28 H 0.03637 0.97021 0.07224 0.0
H29 H 0.92389 0.96101 0.05571 0.0
H30 H 0.11722 0.1694 0.07435 0.0
H31 H 0.95276 0.02929 0.11465 0.0
H32 H 0.89469 0.10746 0.08683 0.0
C33 C 0.28269 0.76553 0.31073 0.0
C34 C 0.32099 0.75751 0.30794 0.0
N35 N 0.34279 0.78641 0.31315 0.0
N36 N 0.28049 0.79907 0.31777 0.0
C37 C 0.31751 0.81134 0.319 0.0
H38 H 0.25796 0.7479 0.30793 0.0
Co39 Co 0.23484 0.82027 0.32421 0.0
C40 C 0.25546 0.86779 0.34831 0.0
O41 O 0.22486 0.85392 0.35473 0.0
N42 N 0.188 0.84202 0.33032 0.0
C43 C 0.14205 0.88565 0.33479 0.0
C44 C 0.18 0.8804 0.33088 0.0
C45 C 0.15424 0.82466 0.33372 0.0
N46 N 0.12601 0.85044 0.33659 0.0
O47 O 0.23666 0.85712 0.3096 0.0
H48 H 0.20037 0.90319 0.32833 0.0
H49 H 0.14936 0.79384 0.33332 0.0
O50 O 0.26335 0.85637 0.3361 0.0
C51 C 0.21194 0.85289 0.3 0.0
O52 O 0.18482 0.82633 0.30135 0.0
N53 N 0.23355 0.78107 0.33773 0.0
C54 C 0.23623 0.71406 0.35376 0.0
C55 C 0.26062 0.74548 0.35661 0.0
C56 C 0.25989 0.77804 0.34817 0.0
C57 C 0.21067 0.75004 0.33451 0.0
C58 C 0.21125 0.71626 0.34247 0.0
H59 H 0.28242 0.7993 0.34959 0.0
H60 H 0.19328 0.75073 0.32526 0.0
H61 H 0.32593 0.83757 0.32431 0.0
H62 H 0.33192 0.73254 0.30243 0.0
H63 H 0.12725 0.91316 0.3359 0.0
H64 H 0.28215 0.74373 0.3647 0.0
H65 H 0.19342 0.69172 0.33957 0.0
C66 C 0.52809 0.10431 0.55464 0.0
C67 C 0.53435 0.14309 0.55219 0.0
N68 N 0.50906 0.16358 0.55986 0.0
N69 N 0.4992 0.10045 0.56386 0.0
C70 C 0.48798 0.13701 0.56681 0.0
H71 H 0.54374 0.08033 0.5501 0.0
Co72 Co 0.48264 0.05315 0.57041 0.0
C73 C 0.43496 0.06878 0.59502 0.0
O74 O 0.45091 0.03869 0.6011 0.0
N75 N 0.46583 0.00431 0.57659 0.0
C76 C 0.42804 0.95342 0.58108 0.0
C77 C 0.42865 0.99185 0.57726 0.0
C78 C 0.48711 0.97281 0.57984 0.0
N79 N 0.46499 0.94155 0.58263 0.0
O80 O 0.44431 0.05216 0.55632 0.0
H81 H 0.40357 0.00942 0.57483 0.0
H82 H 0.51827 0.97215 0.5799 0.0
O83 O 0.44539 0.07813 0.58282 0.0
C84 C 0.44954 0.02816 0.54656 0.0
O85 O 0.47821 0.00314 0.54747 0.0
N86 N 0.52313 0.055 0.58341 0.0
C87 C 0.59032 0.06017 0.59929 0.0
C88 C 0.5573 0.08194 0.60261 0.0
C89 C 0.52453 0.07993 0.5943 0.0
C90 C 0.55587 0.03557 0.57953 0.0
C91 C 0.58963 0.03713 0.58746 0.0
H92 H 0.50147 0.10022 0.5963 0.0
H93 H 0.55598 0.01932 0.57003 0.0
H94 H 0.46548 0.14414 0.57414 0.0
H95 H 0.55562 0.15523 0.54522 0.0
H96 H 0.40253 0.93531 0.58205 0.0
H97 H 0.55755 0.10221 0.61111 0.0
H98 H 0.6151 0.02115 0.58422 0.0
C99 C 0.19972 0.33583 0.80454 0.0
C100 C 0.16091 0.34194 0.80206 0.0
N101 N 0.14045 0.31671 0.80977 0.0
N102 N 0.2036 0.30709 0.81381 0.0
C103 C 0.16704 0.29583 0.81678 0.0
H104 H 0.2237 0.35145 0.79996 0.0
Co105 Co 0.25095 0.29075 0.82034 0.0
C106 C 0.23539 0.24096 0.84451 0.0
O107 O 0.26544 0.25633 0.8508 0.0
N108 N 0.29985 0.27432 0.8265 0.0
C109 C 0.35138 0.23729 0.83081 0.0
C110 C 0.313 0.23738 0.82693 0.0
C111 C 0.3309 0.296 0.82995 0.0
N112 N 0.36254 0.27434 0.83264 0.0
O113 O 0.25265 0.25307 0.80602 0.0
H114 H 0.29595 0.21212 0.82428 0.0
H115 H 0.33094 0.32716 0.8302 0.0
O116 O 0.22609 0.25258 0.83245 0.0
C117 C 0.27693 0.25864 0.79636 0.0
O118 O 0.30163 0.28756 0.79736 0.0
N119 N 0.2485 0.33057 0.83358 0.0
C120 C 0.24363 0.39659 0.85 0.0
C121 C 0.22288 0.36301 0.85338 0.0
C122 C 0.22458 0.33083 0.84478 0.0
C123 C 0.26693 0.36389 0.8297 0.0
C124 C 0.26532 0.3972 0.83785 0.0
H125 H 0.20496 0.30728 0.84688 0.0
H126 H 0.28258 0.36472 0.82006 0.0
H127 H 0.15991 0.27341 0.82414 0.0
H128 H 0.14875 0.36304 0.79504 0.0
H129 H 0.36998 0.21209 0.8316 0.0
H130 H 0.20369 0.3624 0.86221 0.0
H131 H 0.28031 0.42326 0.8346 0.0
C132 C 0.96563 0.09419 0.94042 0.0
C133 C 0.958 0.13194 0.94405 0.0
N134 N 0.98112 0.15533 0.93655 0.0
N135 N 0.99341 0.09377 0.9307 0.0
C136 C 0.0023 0.13144 0.9285 0.0
H137 H 0.95222 0.06852 0.94471 0.0
Co138 Co 0.0137 0.04831 0.92379 0.0
C139 C 0.05847 0.06907 0.89905 0.0
O140 O 0.04325 0.0389 0.89279 0.0
N141 N 0.03457 0.0014 0.91731 0.0
C142 C 0.07767 0.95517 0.91257 0.0
C143 C 0.07285 0.9935 0.91602 0.0
C144 C 0.01687 0.96719 0.91484 0.0
N145 N 0.04233 0.93871 0.91185 0.0
O146 O 0.05213 0.04972 0.93788 0.0
H147 H 0.09593 0.01411 0.91788 0.0
H148 H 0.98622 0.96222 0.91611 0.0
O149 O 0.04861 0.07695 0.91143 0.0
C150 C 0.04798 0.02515 0.94754 0.0
O151 O 0.02102 -0.00162 0.94637 0.0
N152 N 0.97293 0.04729 0.91092 0.0
C153 C 0.904 0.04915 0.89592 0.0
C154 C 0.93491 0.07367 0.89251 0.0
C155 C 0.96851 0.07335 0.90044 0.0
C156 C 0.94241 0.02441 0.91472 0.0
C157 C 0.90771 0.02456 0.90728 0.0
H158 H 0.98962 0.09579 0.89857 0.0
H159 H 0.94432 0.0073 0.92401 0.0
H160 H 0.02458 0.14117 0.92146 0.0
H161 H 0.93707 0.14142 0.95164 0.0
H162 H 0.10507 0.94039 0.91112 0.0
H163 H 0.93208 0.0949 0.88435 0.0
H164 H 0.88366 0.00663 0.91062 0.0
C165 C 0.20544 0.77157 0.18671 0.0
C166 C 0.16694 0.76209 0.18824 0.0
N167 N 0.14547 0.79256 0.18408 0.0
N168 N 0.20819 0.80764 0.18145 0.0
C169 C 0.17119 0.8199 0.18009 0.0
H170 H 0.22995 0.75342 0.18932 0.0
Co171 Co 0.25451 0.83228 0.17761 0.0
C172 C 0.24017 0.88709 0.15482 0.0
O173 O 0.27466 0.87901 0.14982 0.0
N174 N 0.3021 0.8573 0.17421 0.0
C175 C 0.34784 0.90292 0.17312 0.0
C176 C 0.30957 0.89545 0.17615 0.0
C177 C 0.33644 0.84226 0.17022 0.0
N178 N 0.36453 0.86932 0.16933 0.0
O179 O 0.24628 0.865 0.19316 0.0
H180 H 0.28844 0.91658 0.17953 0.0
H181 H 0.34157 0.81187 0.16847 0.0
O182 O 0.22791 0.86992 0.16567 0.0
C183 C 0.26844 0.8583 0.20335 0.0
O184 O 0.29596 0.83214 0.20208 0.0
N185 N 0.26215 0.79693 0.1631 0.0
C186 C 0.26527 0.73222 0.14592 0.0
C187 C 0.24304 0.7647 0.14234 0.0
C188 C 0.24091 0.79621 0.15124 0.0
C189 C 0.28393 0.76548 0.16672 0.0
C190 C 0.28622 0.73291 0.15823 0.0
H191 H 0.21963 0.81812 0.14898 0.0
H192 H 0.29802 0.76488 0.17665 0.0
H193 H 0.1632 0.84816 0.17617 0.0
H194 H 0.15563 0.73518 0.19235 0.0
H195 H 0.36223 0.93077 0.17373 0.0
H196 H 0.22469 0.76441 0.1333 0.0
H197 H 0.30267 0.70784 0.16157 0.0
C198 C 0.53836 0.00971 0.43887 0.0
C199 C 0.54665 0.97139 0.44149 0.0
N200 N 0.51748 0.94962 0.43644 0.0
N201 N 0.50437 0.01198 0.43209 0.0
C202 C 0.49211 0.97497 0.43086 0.0
H203 H 0.55603 0.03441 0.44165 0.0
Co204 Co 0.4823 0.05775 0.42615 0.0
C205 C 0.43526 0.03846 0.4018 0.0
O206 O 0.44895 0.06958 0.39565 0.0
N207 N 0.45964 0.10472 0.42054 0.0
C208 C 0.41509 0.15005 0.41639 0.0
C209 C 0.42108 0.11196 0.41997 0.0
C210 C 0.47634 0.13908 0.41752 0.0
N211 N 0.45001 0.16696 0.41483 0.0
O212 O 0.44531 0.05378 0.44065 0.0
H213 H 0.39866 0.09092 0.42223 0.0
H214 H 0.50706 0.14454 0.41801 0.0
O215 O 0.44675 0.02972 0.41392 0.0
C216 C 0.44828 0.07788 0.45049 0.0
O217 O 0.47394 0.10598 0.44956 0.0
N218 N 0.52155 0.06107 0.41269 0.0
C219 C 0.58814 0.06171 0.3964 0.0
C220 C 0.55738 0.0366 0.39343 0.0
C221 C 0.52507 0.03565 0.40199 0.0
C222 C 0.55207 0.08447 0.41607 0.0
C223 C 0.58562 0.08557 0.40798 0.0
H224 H 0.50438 0.01268 0.40041 0.0
H225 H 0.55115 0.10102 0.42549 0.0
H226 H 0.46546 0.96665 0.42578 0.0
H227 H 0.57194 0.96046 0.44683 0.0
H228 H 0.38728 0.16429 0.41528 0.0
H229 H 0.5595 0.01581 0.38512 0.0
H230 H 0.60974 0.10383 0.41098 0.0
C231 C 0.29492 0.33171 0.69468 0.0
C232 C 0.33289 0.33981 0.69791 0.0
N233 N 0.35596 0.31947 0.68936 0.0
N234 N 0.29405 0.30638 0.68418 0.0
C235 C 0.33165 0.29945 0.6811 0.0
H236 H 0.26943 0.34319 0.69974 0.0
Co237 Co 0.24844 0.28661 0.67721 0.0
C238 C 0.26831 0.24457 0.65182 0.0
O239 O 0.23779 0.26021 0.64589 0.0
N240 N 0.20143 0.2662 0.6706 0.0
C241 C 0.15537 0.22361 0.66511 0.0
C242 C 0.19332 0.22803 0.66915 0.0
C243 C 0.16775 0.28425 0.66758 0.0
N244 N 0.13944 0.25912 0.66411 0.0
O245 O 0.25077 0.24659 0.69073 0.0
H246 H 0.21363 0.20477 0.67114 0.0
H247 H 0.16302 0.31499 0.6686 0.0
O248 O 0.27675 0.25335 0.66425 0.0
C249 C 0.22602 0.24843 0.70043 0.0
O250 O 0.19796 0.27415 0.69963 0.0
N251 N 0.24664 0.32884 0.66497 0.0
C252 C 0.24682 0.3994 0.65096 0.0
C253 C 0.27119 0.36908 0.64683 0.0
C254 C 0.27172 0.33459 0.65427 0.0
C255 C 0.22406 0.35877 0.66948 0.0
C256 C 0.22336 0.39428 0.66254 0.0
H257 H 0.29397 0.31379 0.65183 0.0
H258 H 0.20749 0.35548 0.67886 0.0
H259 H 0.34108 0.27944 0.67323 0.0
H260 H 0.34272 0.35923 0.70592 0.0
H261 H 0.14052 0.19642 0.66331 0.0
H262 H 0.29159 0.37296 0.63846 0.0
H263 H 0.20553 0.41775 0.6664 0.0
C264 C 0.7045 0.29776 0.6999 0.0
C265 C 0.66592 0.2928 0.70301 0.0
N266 N 0.64467 0.30967 0.69304 0.0
N267 N 0.70758 0.31775 0.68807 0.0
C268 C 0.67067 0.32452 0.68406 0.0
H269 H 0.72892 0.28778 0.70593 0.0
Co270 Co 0.75488 0.33177 0.68078 0.0
C271 C 0.73906 0.37686 0.65554 0.0
O272 O 0.76878 0.35989 0.64957 0.0
N273 N 0.80385 0.34605 0.67391 0.0
C274 C 0.85579 0.38145 0.6686 0.0
C275 C 0.81756 0.38262 0.67264 0.0
C276 C 0.83446 0.32332 0.67076 0.0
N277 N 0.86638 0.34399 0.66748 0.0
O278 O 0.75792 0.37213 0.69414 0.0
H279 H 0.80101 0.40855 0.67484 0.0
H280 H 0.83392 0.29218 0.67117 0.0
O281 O 0.72991 0.36782 0.6679 0.0
C282 C 0.78249 0.36786 0.70378 0.0
O283 O 0.80731 0.33897 0.7031 0.0
N284 N 0.75115 0.28946 0.66863 0.0
C285 C 0.74634 0.22089 0.65362 0.0
C286 C 0.72551 0.2538 0.64956 0.0
C287 C 0.72722 0.28736 0.65747 0.0
C288 C 0.76932 0.25679 0.67326 0.0
C289 C 0.76774 0.22217 0.66581 0.0
H290 H 0.70783 0.31064 0.65482 0.0
H291 H 0.78511 0.25766 0.68286 0.0
H292 H 0.66295 0.34067 0.67493 0.0
H293 H 0.65442 0.27776 0.71189 0.0
H294 H 0.87467 0.40624 0.66722 0.0
H295 H 0.70654 0.25301 0.64069 0.0
H296 H 0.7828 0.19672 0.66958 0.0
C297 C 0.79884 0.82326 0.19762 0.0
C298 C 0.83772 0.82902 0.20006 0.0
N299 N 0.85797 0.81033 0.19025 0.0
N300 N 0.7947 0.8012 0.18631 0.0
C301 C 0.83119 0.79363 0.18204 0.0
H302 H 0.77496 0.83471 0.20359 0.0
Co303 Co 0.7472 0.78853 0.17893 0.0
C304 C 0.76295 0.7435 0.15356 0.0
O305 O 0.73401 0.76095 0.1473 0.0
N306 N 0.69819 0.77585 0.17191 0.0
C307 C 0.64523 0.74263 0.16618 0.0
C308 C 0.68357 0.73987 0.16999 0.0
C309 C 0.66805 0.79979 0.16945 0.0
N310 N 0.63557 0.78046 0.16593 0.0
O311 O 0.74318 0.74731 0.19195 0.0
H312 H 0.6995 0.71324 0.17165 0.0
H313 H 0.66923 0.8308 0.17063 0.0
O314 O 0.77158 0.75266 0.16593 0.0
C315 C 0.71815 0.75065 0.2015 0.0
O316 O 0.69367 0.77987 0.20112 0.0
N317 N 0.75185 0.83157 0.16714 0.0
C318 C 0.7606 0.90258 0.15377 0.0
C319 C 0.77866 0.86914 0.14869 0.0
C320 C 0.77497 0.83419 0.15577 0.0
C321 C 0.73557 0.86427 0.17254 0.0
C322 C 0.73921 0.90009 0.16595 0.0
H323 H 0.79261 0.81029 0.15241 0.0
H324 H 0.7202 0.86258 0.18222 0.0
H325 H 0.83808 0.77717 0.1729 0.0
H326 H 0.85011 0.84546 0.20846 0.0
H327 H 0.62556 0.71865 0.16444 0.0
H328 H 0.79736 0.87048 0.13975 0.0
H329 H 0.72603 0.92563 0.17045 0.0
C330 C 0.79281 0.27434 0.80901 0.0
C331 C 0.83133 0.26683 0.80643 0.0
N332 N 0.85259 0.29546 0.81209 0.0
N333 N 0.78993 0.30728 0.81637 0.0
C334 C 0.82677 0.31972 0.81799 0.0
H335 H 0.76839 0.25686 0.80579 0.0
Co336 Co 0.74389 0.3283 0.8225 0.0
C337 C 0.76163 0.37049 0.84802 0.0
O338 O 0.73021 0.35541 0.85354 0.0
N339 N 0.69673 0.35013 0.82833 0.0
C340 C 0.65176 0.39421 0.83347 0.0
C341 C 0.6896 0.38858 0.8295 0.0
C342 C 0.66254 0.33314 0.83142 0.0
N343 N 0.63492 0.35919 0.83472 0.0
O344 O 0.74867 0.36776 0.80883 0.0
H345 H 0.71065 0.41118 0.82751 0.0
H346 H 0.65709 0.30247 0.83071 0.0
O347 O 0.77129 0.36145 0.83572 0.0
C348 C 0.72478 0.3666 0.79887 0.0
O349 O 0.69627 0.34127 0.79925 0.0
N350 N 0.73982 0.28665 0.835 0.0
C351 C 0.73899 0.2165 0.8493 0.0
C352 C 0.7637 0.24663 0.85331 0.0
C353 C 0.76476 0.28083 0.84572 0.0
C354 C 0.71661 0.25697 0.83067 0.0
C355 C 0.71545 0.22166 0.83774 0.0
H356 H 0.78752 0.30122 0.84803 0.0
H357 H 0.70027 0.26006 0.82124 0.0
H358 H 0.83461 0.34569 0.82356 0.0
H359 H 0.84276 0.24246 0.80071 0.0
H360 H 0.63772 0.42187 0.83517 0.0
H361 H 0.78417 0.24267 0.86165 0.0
H362 H 0.69742 0.19825 0.83396 0.0
C363 C 0.68979 0.81998 0.30243 0.0
C364 C 0.6509 0.82596 0.30009 0.0
N365 N 0.63069 0.80334 0.30883 0.0
N366 N 0.69399 0.79396 0.31264 0.0
C367 C 0.65752 0.78413 0.31632 0.0
H368 H 0.71361 0.83386 0.29711 0.0
Co369 Co 0.74166 0.77892 0.31931 0.0
C370 C 0.72758 0.73598 0.34517 0.0
O371 O 0.75798 0.75299 0.35067 0.0
N372 N 0.79089 0.76369 0.32562 0.0
C373 C 0.84253 0.72776 0.33084 0.0
C374 C 0.80413 0.72697 0.32698 0.0
C375 C 0.82186 0.78608 0.32857 0.0
N376 N 0.85358 0.76512 0.33178 0.0
O377 O 0.74196 0.73766 0.30625 0.0
H378 H 0.78707 0.7012 0.32503 0.0
H379 H 0.82167 0.81723 0.32821 0.0
O380 O 0.71734 0.74443 0.33288 0.0
C381 C 0.76603 0.74074 0.29638 0.0
O382 O 0.79175 0.76889 0.29668 0.0
N383 N 0.74063 0.82225 0.33104 0.0
C384 C 0.73793 0.89349 0.34453 0.0
C385 C 0.71766 0.8614 0.34969 0.0
C386 C 0.7183 0.8264 0.34255 0.0
C387 C 0.75862 0.85386 0.32547 0.0
C388 C 0.75813 0.8897 0.33214 0.0
H389 H 0.69917 0.80371 0.34599 0.0
H390 H 0.77326 0.85118 0.31568 0.0
H391 H 0.65064 0.76398 0.32449 0.0
H392 H 0.63847 0.84514 0.29246 0.0
H393 H 0.86113 0.70282 0.33233 0.0
H394 H 0.69965 0.86394 0.35878 0.0
H395 H 0.77289 0.91427 0.32756 0.0
C396 C 0.46152 0.51069 0.5608 0.0
C397 C 0.45365 0.47229 0.55819 0.0
N398 N 0.48245 0.45076 0.56362 0.0
N399 N 0.49488 0.51324 0.56795 0.0
C400 C 0.50719 0.47632 0.56942 0.0
H401 H 0.44403 0.53526 0.55773 0.0
Co402 Co 0.51625 0.55921 0.57396 0.0
C403 C 0.56007 0.54139 0.59913 0.0
O404 O 0.54488 0.57259 0.60474 0.0
N405 N 0.53835 0.60637 0.57965 0.0
C406 C 0.58273 0.65143 0.58433 0.0
C407 C 0.57687 0.61348 0.58058 0.0
C408 C 0.52154 0.64067 0.58264 0.0
N409 N 0.54777 0.66837 0.58565 0.0
O410 O 0.55466 0.55496 0.55988 0.0
H411 H 0.59938 0.59239 0.57852 0.0
H412 H 0.49085 0.64619 0.58198 0.0
O413 O 0.55058 0.53172 0.58687 0.0
C414 C 0.55191 0.57904 0.55 0.0
O415 O 0.52582 0.60677 0.55075 0.0
N416 N 0.47553 0.5629 0.58686 0.0
C417 C 0.40674 0.56384 0.60198 0.0
C418 C 0.437 0.53868 0.60552 0.0
C419 C 0.47047 0.53759 0.59753 0.0
C420 C 0.44559 0.58637 0.58293 0.0
C421 C 0.411 0.58765 0.59043 0.0
H422 H 0.49094 0.51464 0.59951 0.0
H423 H 0.44785 0.60285 0.5735 0.0
H424 H 0.53344 0.46825 0.57481 0.0
H425 H 0.42893 0.46114 0.55258 0.0
H426 H 0.6105 0.66551 0.58578 0.0
H427 H 0.43368 0.51797 0.61382 0.0
H428 H 0.38741 0.60601 0.587 0.0
C429 C 0.01685 0.60501 0.05416 0.0
C430 C 0.02229 0.64372 0.05137 0.0
N431 N 0.00303 0.66442 0.06093 0.0
N432 N 0.99445 0.60143 0.06543 0.0
C433 C 0.98634 0.63808 0.06933 0.0
H434 H 0.02865 0.58086 0.04843 0.0
Co435 Co 0.98171 0.55428 0.07301 0.0
C436 C 0.93735 0.57048 0.09851 0.0
O437 O 0.9547 0.54143 0.10475 0.0
N438 N 0.96902 0.50556 0.08022 0.0
C439 C 0.93604 0.4524 0.08588 0.0
C440 C 0.93308 0.49078 0.08215 0.0
C441 C 0.99311 0.47557 0.08268 0.0
N442 N 0.97394 0.44291 0.08612 0.0
O443 O 0.93999 0.5504 0.06024 0.0
H444 H 0.90637 0.50656 0.08045 0.0
H445 H 0.02411 0.477 0.08149 0.0
O446 O 0.94643 0.57907 0.08612 0.0
C447 C 0.94286 0.52556 0.05063 0.0
O448 O 0.97182 0.50076 0.05087 0.0
N449 N 0.02524 0.55886 0.08456 0.0
C450 C 0.09691 0.56762 0.09746 0.0
C451 C 0.06364 0.58538 0.10281 0.0
C452 C 0.02834 0.58172 0.09597 0.0
C453 C 0.05775 0.5428 0.07891 0.0
C454 C 0.09391 0.54649 0.08525 0.0
H455 H 0.00454 0.59918 0.09953 0.0
H456 H 0.05561 0.52755 0.06923 0.0
H457 H 0.96936 0.64542 0.07831 0.0
H458 H 0.03881 0.6557 0.04291 0.0
H459 H 0.9121 0.43259 0.0875 0.0
H460 H 0.06539 0.60388 0.11179 0.0
H461 H 0.11931 0.53358 0.08055 0.0
C462 C 0.4755 0.60315 0.44717 0.0
C463 C 0.46933 0.64198 0.44952 0.0
N464 N 0.49305 0.66232 0.44118 0.0
N465 N 0.50276 0.5991 0.43736 0.0
C466 C 0.5131 0.63561 0.43394 0.0
H467 H 0.4609 0.57926 0.4522 0.0
Co468 Co 0.51847 0.55157 0.43077 0.0
C469 C 0.56329 0.56625 0.40538 0.0
O470 O 0.54658 0.53593 0.39973 0.0
N471 N 0.53441 0.50252 0.42454 0.0
C472 C 0.57147 0.45146 0.41963 0.0
C473 C 0.57143 0.48984 0.42349 0.0
C474 C 0.51265 0.4712 0.42146 0.0
N475 N 0.53434 0.43984 0.41843 0.0
O476 O 0.55838 0.55086 0.44437 0.0
H477 H 0.59682 0.50726 0.42564 0.0
H478 H 0.48146 0.47083 0.42164 0.0
O479 O 0.55423 0.57622 0.41765 0.0
C480 C 0.55344 0.52689 0.45418 0.0
O481 O 0.52452 0.50211 0.45346 0.0
N482 N 0.47632 0.55292 0.41848 0.0
C483 C 0.40598 0.55774 0.40442 0.0
C484 C 0.43862 0.57819 0.3998 0.0
C485 C 0.47312 0.57647 0.40724 0.0
C486 C 0.44425 0.53438 0.42346 0.0
C487 C 0.40885 0.53594 0.4165 0.0
H488 H 0.49608 0.59594 0.40429 0.0
H489 H 0.44603 0.5189 0.43311 0.0
H490 H 0.53424 0.6426 0.42609 0.0
H491 H 0.44924 0.65427 0.45687 0.0
H492 H 0.59679 0.43323 0.41837 0.0
H493 H 0.4368 0.59733 0.39099 0.0
H494 H 0.38383 0.52099 0.42068 0.0
C495 C 0.0065 0.50217 0.95111 0.0
C496 C 0.01199 0.46326 0.95352 0.0
N497 N -0.0042 0.44327 0.9431 0.0
N498 N 0.98681 0.50667 0.93928 0.0
C499 C 0.98079 0.47031 0.93457 0.0
H500 H 0.01583 0.5258 0.95763 0.0
Co501 Co 0.97183 0.55455 0.9327 0.0
C502 C 0.92672 0.54058 0.90736 0.0
O503 O 0.94317 0.57103 0.90167 0.0
N504 N 0.95643 0.6039 0.9265 0.0
C505 C 0.91949 0.65496 0.92146 0.0
C506 C 0.91946 0.61673 0.92548 0.0
C507 C 0.97829 0.63509 0.92325 0.0
N508 N 0.95663 0.66644 0.9201 0.0
O509 O 0.93149 0.55517 0.94613 0.0
H510 H 0.89401 0.59943 0.92769 0.0
H511 H 0.00951 0.63529 0.92333 0.0
O512 O 0.93614 0.53041 0.91957 0.0
C513 C 0.93455 0.5792 0.95599 0.0
O514 O 0.96239 0.60526 0.95559 0.0
N515 N 0.01412 0.55308 0.92046 0.0
C516 C 0.08325 0.55005 0.90565 0.0
C517 C 0.05052 0.52959 0.9012 0.0
C518 C 0.01668 0.53035 0.909 0.0
C519 C 0.04646 0.57129 0.92535 0.0
C520 C 0.08137 0.57051 0.91803 0.0
H521 H 0.99364 0.51104 0.90605 0.0
H522 H 0.04515 0.58626 0.93511 0.0
H523 H 0.96496 0.46369 0.92527 0.0
H524 H 0.02685 0.45069 0.96225 0.0
H525 H 0.89418 0.67314 0.92011 0.0
H526 H 0.05176 0.51138 0.89214 0.0
H527 H 0.10666 0.58528 0.92207 0.0
H528 H 0.04274 0.41698 0.07591 0.0
H529 H 0.00061 0.1977 0.09655 0.0
H530 H 0.94301 0.38133 0.09971 0.0
H531 H 0.09586 0.23453 0.07084 0.0
H532 H 0.98431 0.26554 0.10077 0.0
H533 H 0.06784 0.35152 0.07713 0.0
C534 C 0.02628 0.39564 0.0816 0.0
C535 C 0.99043 0.40482 0.08767 0.0
C536 C 0.00899 0.25877 0.09431 0.0
C537 C 0.01891 0.3291 0.0888 0.0
C538 C 0.01818 0.22009 0.09183 0.0
C539 C 0.04917 0.21051 0.0831 0.0
C540 C 0.03093 0.28806 0.08799 0.0
C541 C 0.0717 0.2406 0.0776 0.0
C542 C 0.04062 0.35802 0.0822 0.0
C543 C 0.97036 0.37543 0.09468 0.0
N544 N 0.06184 0.27807 0.08001 0.0
N545 N 0.98473 0.33875 0.09496 0.0
H546 H 0.09696 0.78625 0.34895 0.0
H547 H 0.88279 0.83517 0.32412 0.0
H548 H 0.06344 0.89396 0.32971 0.0
H549 H 0.91228 0.72942 0.34557 0.0
H550 H 0.94767 0.85929 0.32818 0.0
H551 H 0.0287 0.76719 0.34994 0.0
C552 C 0.07518 0.80599 0.34503 0.0
C553 C 0.08588 0.84146 0.33903 0.0
C554 C 0.93996 0.83092 0.33211 0.0
C555 C 0.00792 0.81997 0.34016 0.0
C556 C 0.90264 0.81709 0.32986 0.0
C557 C 0.89183 0.78005 0.33451 0.0
C558 C 0.96705 0.80748 0.33893 0.0
C559 C 0.91946 0.75786 0.34162 0.0
C560 C 0.03626 0.79518 0.34565 0.0
C561 C 0.05652 0.86638 0.33441 0.0
N562 N 0.95594 0.77183 0.34354 0.0
N563 N 0.0189 0.85494 0.33493 0.0
H564 H 0.42685 0.88385 0.59608 0.0
H565 H 0.59397 0.72996 0.57987 0.0
H566 H 0.53434 0.91048 0.57523 0.0
H567 H 0.48282 0.69872 0.59712 0.0
H568 H 0.57618 0.79814 0.58161 0.0
H569 H 0.44973 0.8173 0.59945 0.0
C570 C 0.45523 0.8758 0.59225 0.0
C571 C 0.47859 0.90284 0.58533 0.0
C572 C 0.55575 0.77639 0.58512 0.0
C573 C 0.50508 0.82712 0.58927 0.0
C574 C 0.56605 0.73744 0.58422 0.0
C575 C 0.53958 0.70861 0.58815 0.0
C576 C 0.51869 0.78656 0.58995 0.0
C577 C 0.50368 0.72003 0.59365 0.0
C578 C 0.46837 0.83793 0.59426 0.0
C579 C 0.51542 0.89099 0.58079 0.0
N580 N 0.4941 0.75816 0.59426 0.0
N581 N 0.52738 0.85401 0.58278 0.0
H582 H 0.4209 0.23647 0.84579 0.0
H583 H 0.57286 0.40535 0.8296 0.0
H584 H 0.39242 0.34467 0.82578 0.0
H585 H 0.60543 0.29388 0.84621 0.0
H586 H 0.50478 0.38723 0.83179 0.0
H587 H 0.48724 0.26001 0.84911 0.0
C588 C 0.42849 0.26515 0.84214 0.0
C589 C 0.40102 0.28847 0.83544 0.0
C590 C 0.52681 0.36682 0.83506 0.0
C591 C 0.47653 0.31571 0.83931 0.0
C592 C 0.5657 0.37729 0.8339 0.0
C593 C 0.59484 0.35081 0.8375 0.0
C594 C 0.51704 0.32958 0.83982 0.0
C595 C 0.58385 0.31474 0.84297 0.0
C596 C 0.46625 0.27866 0.84411 0.0
C597 C 0.41228 0.32572 0.83114 0.0
N598 N 0.54578 0.305 0.84383 0.0
N599 N 0.44919 0.33803 0.83308 0.0
H600 H 0.91894 0.72291 0.90588 0.0
H601 H 0.08809 0.87745 0.91852 0.0
H602 H 0.02631 0.69789 0.92698 0.0
H603 H 0.97598 0.90738 0.90184 0.0
H604 H 0.0693 0.80931 0.91839 0.0
H605 H 0.94216 0.78881 0.90155 0.0
C606 C 0.94735 0.73118 0.90959 0.0
C607 C 0.97056 0.70477 0.91687 0.0
C608 C 0.04888 0.83074 0.91466 0.0
C609 C -0.00252 0.7799 0.91181 0.0
C610 C 0.05973 0.86966 0.91463 0.0
C611 C 0.03337 0.8982 0.91035 0.0
C612 C 0.0114 0.82027 0.91038 0.0
C613 C -0.00314 0.88636 0.90551 0.0
C614 C 0.96069 0.76872 0.90704 0.0
C615 C 0.00749 0.71692 0.9212 0.0
N616 N 0.98681 0.84829 0.90576 0.0
N617 N 0.01968 0.75363 0.91867 0.0
H618 H 0.42697 0.90982 0.1784 0.0
H619 H 0.57614 0.75054 0.15103 0.0
H620 H 0.39374 0.81279 0.15301 0.0
H621 H 0.60788 0.84766 0.17666 0.0
H622 H 0.51032 0.77673 0.14938 0.0
H623 H 0.49497 0.89226 0.1752 0.0
C624 C 0.43399 0.88517 0.17199 0.0
C625 C 0.40466 0.86231 0.16618 0.0
C626 C 0.53187 0.79247 0.15524 0.0
C627 C 0.48228 0.84164 0.16264 0.0
C628 C 0.56933 0.7774 0.15625 0.0
C629 C 0.59753 0.79677 0.16405 0.0
C630 C 0.52257 0.82702 0.16215 0.0
C631 C 0.58734 0.83186 0.17042 0.0
C632 C 0.47281 0.87498 0.17023 0.0
C633 C 0.41543 0.83056 0.15799 0.0
N634 N 0.55063 0.84566 0.16941 0.0
N635 N 0.45338 0.82091 0.15658 0.0
H636 H 0.40454 0.22844 0.42142 0.0
H637 H 0.57124 0.38237 0.40447 0.0
H638 H 0.51423 0.19767 0.40297 0.0
H639 H 0.46528 0.40888 0.42626 0.0
H640 H 0.54781 0.31606 0.40107 0.0
H641 H 0.42257 0.29666 0.41993 0.0
C642 C 0.43218 0.23604 0.41687 0.0
C643 C 0.45819 0.20731 0.41251 0.0
C644 C 0.52962 0.3366 0.40649 0.0
C645 C 0.47934 0.28528 0.41099 0.0
C646 C 0.54308 0.37434 0.40851 0.0
C647 C 0.52032 0.40128 0.41571 0.0
C648 C 0.49319 0.32578 0.41173 0.0
C649 C 0.48373 0.38945 0.4205 0.0
C650 C 0.44261 0.27501 0.41611 0.0
C651 C 0.49374 0.21889 0.40676 0.0
N652 N 0.47145 0.35257 0.41849 0.0
N653 N 0.50346 0.257 0.40629 0.0
H654 H 0.89491 0.27304 0.67455 0.0
H655 H 0.11115 0.32519 0.65285 0.0
H656 H 0.92589 0.38027 0.65429 0.0
H657 H 0.07641 0.21481 0.66979 0.0
H658 H 0.04293 0.34414 0.65144 0.0
H659 H 0.96028 0.24944 0.67096 0.0
C660 C 0.91516 0.29157 0.66916 0.0
C661 C 0.90464 0.32894 0.66476 0.0
C662 C 0.05021 0.31561 0.65532 0.0
C663 C 0.98037 0.30206 0.66089 0.0
C664 C 0.08912 0.30487 0.65619 0.0
C665 C 0.09945 0.2686 0.66163 0.0
C666 C 0.02147 0.28996 0.66002 0.0
C667 C 0.06978 0.24301 0.66552 0.0
C668 C 0.95276 0.27803 0.66719 0.0
C669 C 0.93278 0.3516 0.65808 0.0
N670 N 0.03214 0.25437 0.66479 0.0
N671 N 0.96947 0.33791 0.65644 0.0
H672 H 0.07519 0.00753 0.03432 0.0
H673 H 0.07841 0.09234 0.95798 0.0
H674 H 0.05449 0.1273 0.02374 0.0
H675 H 0.05856 0.97195 0.96791 0.0
H676 H 0.09318 0.1049 0.98218 0.0
H677 H 0.09201 0.99445 0.01025 0.0
C678 C 0.07517 0.03124 0.02701 0.0
C679 C 0.06281 0.06839 0.03091 0.0
C680 C 0.08648 0.07557 0.97899 0.0
C681 C 0.08199 0.05373 0.00354 0.0
C682 C 0.07831 0.06833 0.96517 0.0
C683 C 0.06658 0.03118 0.96102 0.0
C684 C 0.08312 0.04538 0.98863 0.0
C685 C 0.06685 0.00115 0.97076 0.0
C686 C 0.08459 0.02374 0.01329 0.0
C687 C 0.06322 0.09809 0.02106 0.0
N688 N 0.07441 0.009 0.98416 0.0
N689 N 0.07222 0.09004 0.00779 0.0
H690 H 0.15836 0.86284 0.27971 0.0
H691 H 0.32043 0.87058 0.22385 0.0
H692 H 0.27846 0.88487 0.28953 0.0
H693 H 0.19918 0.88362 0.21388 0.0
H694 H 0.30571 0.88521 0.24781 0.0
H695 H 0.1715 0.87987 0.25581 0.0
C696 C 0.18735 0.87208 0.27688 0.0
C697 C 0.21754 0.87178 0.28654 0.0
C698 C 0.28236 0.88575 0.24037 0.0
C699 C 0.23296 0.89059 0.25917 0.0
C700 C 0.29077 0.8773 0.22669 0.0
C701 C 0.26087 0.87534 0.21696 0.0
C702 C 0.24362 0.89129 0.2444 0.0
C703 C 0.22303 0.88466 0.22111 0.0
C704 C 0.19483 0.88187 0.26323 0.0
C705 C 0.25441 0.8844 0.28237 0.0
N706 N 0.2153 0.89136 0.23461 0.0
N707 N 0.26131 0.89245 0.26891 0.0
H708 H 0.41379 0.09325 0.53658 0.0
H709 H 0.41965 0.00921 0.46039 0.0
H710 H 0.44072 0.97457 0.52626 0.0
H711 H 0.43378 0.12998 0.47087 0.0
H712 H 0.40257 -0.00458 0.48434 0.0
H713 H 0.39619 0.1051 0.51256 0.0
C714 C 0.41488 0.06939 0.52935 0.0
C715 C 0.42948 0.03308 0.5333 0.0
C716 C 0.40849 0.02507 0.4813 0.0
C717 C 0.4096 0.04647 0.50593 0.0
C718 C 0.41805 0.033 0.46764 0.0
C719 C 0.42889 0.07067 0.46375 0.0
C720 C 0.40952 0.05511 0.49104 0.0
C721 C 0.42632 0.1004 0.47354 0.0
C722 C 0.40503 0.07623 0.51565 0.0
C723 C 0.43029 0.00319 0.52354 0.0
N724 N 0.41742 0.09191 0.48679 0.0
N725 N 0.42106 0.01068 0.51024 0.0
H726 H 0.17329 0.23028 0.72024 0.0
H727 H 0.33191 0.25012 0.77647 0.0
H728 H 0.29559 0.22443 0.71099 0.0
H729 H 0.2131 0.22131 0.78607 0.0
H730 H 0.32095 0.2299 0.75277 0.0
H731 H 0.18763 0.21557 0.74424 0.0
C732 C 0.2031 0.22487 0.72322 0.0
C733 C 0.23336 0.22919 0.7137 0.0
C734 C 0.29747 0.22709 0.7601 0.0
C735 C 0.25014 0.21338 0.74119 0.0
C736 C 0.30372 0.23872 0.77364 0.0
C737 C 0.27316 0.23804 0.78315 0.0
C738 C 0.26013 0.21559 0.75599 0.0
C739 C 0.23736 0.22261 0.77901 0.0
C740 C 0.21132 0.21648 0.73693 0.0
C741 C 0.27142 0.2216 0.71804 0.0
N742 N 0.23154 0.21286 0.76564 0.0
N743 N 0.27885 0.21503 0.73156 0.0
H744 H 0.67327 0.38615 0.77885 0.0
H745 H 0.8365 0.37822 0.72388 0.0
H746 H 0.79472 0.39295 0.7893 0.0
H747 H 0.71719 0.40318 0.71378 0.0
H748 H 0.82348 0.39602 0.7477 0.0
H749 H 0.68901 0.40483 0.75531 0.0
C750 C 0.70319 0.39249 0.77624 0.0
C751 C 0.73283 0.38732 0.78593 0.0
C752 C 0.80033 0.3986 0.74023 0.0
C753 C 0.75123 0.4078 0.75895 0.0
C754 C 0.80778 0.38842 0.72662 0.0
C755 C 0.77769 0.38852 0.71693 0.0
C756 C 0.7623 0.40805 0.74422 0.0
C757 C 0.74114 0.40236 0.72097 0.0
C758 C 0.71219 0.4032 0.7628 0.0
C759 C 0.77103 0.39631 0.78209 0.0
N760 N 0.7342 0.41064 0.7344 0.0
N761 N 0.77928 0.40518 0.76879 0.0
H762 H 0.66238 0.73761 0.2208 0.0
H763 H 0.81998 0.72323 0.27696 0.0
H764 H 0.78221 0.71293 0.2114 0.0
H765 H 0.69799 0.71209 0.28608 0.0
H766 H 0.80675 0.70635 0.25308 0.0
H767 H 0.67316 0.71558 0.24432 0.0
C768 C 0.69074 0.72661 0.22362 0.0
C769 C 0.72165 0.72784 0.21426 0.0
C770 C 0.78293 0.7065 0.26035 0.0
C771 C 0.7345 0.70344 0.24122 0.0
C772 C 0.79052 0.71613 0.27399 0.0
C773 C 0.75994 0.7197 0.2834 0.0
C774 C 0.74434 0.70151 0.25604 0.0
C775 C 0.72236 0.70991 0.27909 0.0
C776 C 0.69691 0.71397 0.23705 0.0
C777 C 0.75768 0.71284 0.21836 0.0
N778 N 0.71544 0.70229 0.26561 0.0
N779 N 0.7634 0.7022 0.23165 0.0
H780 H 0.56521 0.47231 0.47394 0.0
H781 H 0.56873 0.63221 0.53021 0.0
H782 H 0.58635 0.59283 0.46466 0.0
H783 H 0.57967 0.51049 0.53972 0.0
H784 H 0.58692 0.61855 0.50647 0.0
H785 H 0.58236 0.4845 0.49787 0.0
C786 C 0.57444 0.50117 0.47689 0.0
C787 C 0.57374 0.53175 0.46739 0.0
C788 C 0.5863 0.59488 0.51379 0.0
C789 C 0.59246 0.54619 0.49482 0.0
C790 C 0.57586 0.60269 0.52735 0.0
C791 C 0.57206 0.57233 0.53685 0.0
C792 C 0.59204 0.5563 0.50964 0.0
C793 C 0.58199 0.5347 0.53267 0.0
C794 C 0.58424 0.50814 0.49057 0.0
C795 C 0.58627 0.56849 0.4717 0.0
N796 N 0.59062 0.52758 0.51927 0.0
N797 N 0.59419 0.57492 0.48519 0.0
H798 H 0.91848 0.63218 0.97591 0.0
H799 H 0.92951 0.47112 0.03091 0.0
H800 H 0.9049 0.51109 0.96588 0.0
H801 H 0.9058 0.5905 0.04118 0.0
H802 H 0.90809 0.48367 0.00744 0.0
H803 H 0.90122 0.61775 0.99968 0.0
C804 C 0.91083 0.60269 0.97866 0.0
C805 C 0.91379 0.57267 0.96902 0.0
C806 C 0.90654 0.50693 0.01489 0.0
C807 C 0.89506 0.5557 0.99625 0.0
C808 C 0.91882 0.49975 0.0283 0.0
C809 C 0.92018 0.53002 0.03789 0.0
C810 C 0.89651 0.54488 0.01099 0.0
C811 C 0.9056 0.56643 0.03404 0.0
C812 C 0.90094 0.59442 0.99224 0.0
C813 C 0.90324 0.53504 0.97305 0.0
N814 N 0.89534 0.57313 0.02077 0.0
N815 N 0.89535 0.52742 0.98647 0.0
H816 H 0.16165 0.87979 0.15105 0.0
H817 H 0.13885 0.07077 0.10684 0.0
H818 H 0.26046 0.94964 0.13964 0.0
H819 H 0.06918 0.96996 0.09791 0.0
H820 H 0.17879 0.0315 0.12231 0.0
H821 H 0.12117 0.91803 0.13516 0.0
C822 C 0.17459 0.90353 0.14537 0.0
C823 C 0.21428 0.91185 0.14663 0.0
C824 C 0.15493 0.01794 0.11689 0.0
C825 C 0.16861 0.9552 0.12865 0.0
C826 C 0.13226 0.04022 0.10807 0.0
C827 C 0.10106 0.02334 0.10106 0.0
C828 C 0.14562 0.9788 0.11898 0.0
C829 C 0.0934 0.98377 0.10304 0.0
C830 C 0.1517 0.92491 0.13623 0.0
C831 C 0.22993 0.94241 0.13892 0.0
N832 N 0.11532 0.96278 0.11199 0.0
N833 N 0.20699 0.96321 0.13032 0.0
H834 H 0.31616 0.91043 0.33804 0.0
H835 H 0.39141 0.97839 0.41182 0.0
H836 H 0.25733 0.8815 0.37588 0.0
H837 H 0.42079 0.03839 0.37426 0.0
H838 H 0.34832 0.93573 0.39867 0.0
H839 H 0.36128 0.95115 0.35112 0.0
C840 C 0.31274 0.91265 0.34908 0.0
C841 C 0.28284 0.89277 0.35587 0.0
C842 C 0.36423 0.9583 0.39334 0.0
C843 C 0.3344 0.93875 0.37085 0.0
C844 C 0.38884 0.98253 0.40082 0.0
C845 C 0.40946 0.0121 0.39413 0.0
C846 C 0.36071 0.96338 0.37907 0.0
C847 C 0.40516 0.01616 0.37985 0.0
C848 C 0.3384 0.93589 0.35652 0.0
C849 C 0.27977 0.89656 0.3702 0.0
N850 N 0.38135 0.992 0.37279 0.0
N851 N 0.30532 0.91898 0.37722 0.0
H852 H 0.3914 0.13012 0.58581 0.0
H853 H 0.32709 0.19752 0.66098 0.0
H854 H 0.42143 0.06696 0.62264 0.0
H855 H 0.26793 0.23401 0.62407 0.0
H856 H 0.3681 0.15477 0.64704 0.0
H857 H 0.35144 0.17387 0.59971 0.0
C858 C 0.38951 0.12539 0.59679 0.0
C859 C 0.40962 0.09477 0.60306 0.0
C860 C 0.34607 0.17215 0.64203 0.0
C861 C 0.36448 0.14483 0.619 0.0
C862 C 0.3228 0.1966 0.64996 0.0
C863 C 0.29395 0.21915 0.64368 0.0
C864 C 0.34074 0.17071 0.62772 0.0
C865 C 0.28964 0.21691 0.62935 0.0
C866 C 0.36671 0.15032 0.60471 0.0
C867 C 0.40624 0.09004 0.61735 0.0
N868 N 0.31285 0.1932 0.62185 0.0
N869 N 0.38425 0.11492 0.62484 0.0
H870 H 0.10485 0.12742 0.90896 0.0
H871 H 0.17448 0.19787 0.83471 0.0
H872 H 0.07069 0.07036 0.87138 0.0
H873 H 0.23659 0.22521 0.872 0.0
H874 H 0.13064 0.15648 0.84808 0.0
H875 H 0.14797 0.16965 0.89558 0.0
C876 C 0.10638 0.12383 0.89791 0.0
C877 C 0.08434 0.09524 0.89128 0.0
C878 C 0.15399 0.17148 0.85329 0.0
C879 C 0.13318 0.14345 0.87597 0.0
C880 C 0.17896 0.19509 0.84568 0.0
C881 C 0.20932 0.21485 0.85224 0.0
C882 C 0.15915 0.16808 0.86757 0.0
C883 C 0.21372 0.21031 0.86649 0.0
C884 C 0.13103 0.14781 0.8903 0.0
C885 C 0.08737 0.09184 0.87694 0.0
N886 N 0.18879 0.18755 0.87369 0.0
N887 N 0.11123 0.11574 0.86976 0.0
H888 H 0.88967 0.04478 0.86845 0.0
H889 H 0.73123 0.19921 0.87647 0.0
H890 H 0.83409 0.06703 0.90732 0.0
H891 H 0.75849 0.14802 0.83727 0.0
H892 H 0.75802 0.14213 0.88795 0.0
H893 H 0.83325 0.07176 0.85662 0.0
C894 C 0.86495 0.05431 0.87445 0.0
C895 C 0.86654 0.05429 0.88883 0.0
C896 C 0.75708 0.14268 0.87683 0.0
C897 C 0.80256 0.08627 0.87548 0.0
C898 C 0.74173 0.17525 0.8703 0.0
C899 C 0.74323 0.17832 0.85597 0.0
C900 C 0.77509 0.11369 0.86893 0.0
C901 C 0.75703 0.14667 0.84838 0.0
C902 C 0.83273 0.06972 0.86773 0.0
C903 C 0.8339 0.06678 0.89619 0.0
N904 N 0.77346 0.11605 0.85496 0.0
N905 N 0.8036 0.08328 0.88944 0.0
H906 H 0.66389 0.07314 0.58961 0.0
H907 H 0.75807 0.21025 0.62628 0.0
H908 H 0.59859 0.06076 0.62718 0.0
H909 H 0.72257 0.15022 0.66304 0.0
H910 H 0.73365 0.15668 0.61253 0.0
H911 H 0.71841 0.09886 0.60282 0.0
C912 C 0.66136 0.07503 0.60068 0.0
C913 C 0.62633 0.06595 0.6073 0.0
C914 C 0.73255 0.15414 0.6236 0.0
C915 C 0.68773 0.09688 0.62236 0.0
C916 C 0.74627 0.185 0.63144 0.0
C917 C 0.74179 0.18467 0.64574 0.0
C918 C 0.71358 0.12306 0.63014 0.0
C919 C 0.72638 0.15147 0.652 0.0
C920 C 0.69229 0.09028 0.6082 0.0
C921 C 0.62475 0.06859 0.62166 0.0
N922 N 0.71182 0.12238 0.64413 0.0
N923 N 0.65475 0.08451 0.6287 0.0
H924 H 0.71669 0.96241 0.33294 0.0
H925 H 0.6597 0.04361 0.40632 0.0
H926 H 0.74874 0.91051 0.37162 0.0
H927 H 0.59834 0.0683 0.36875 0.0
H928 H 0.71276 0.01545 0.39285 0.0
H929 H 0.6944 0.02021 0.34526 0.0
C930 C 0.72017 0.96373 0.34399 0.0
C931 C 0.73376 0.9315 0.35135 0.0
C932 C 0.68827 0.02823 0.38754 0.0
C933 C 0.70823 -0.00294 0.36543 0.0
C934 C 0.65819 0.04454 0.39521 0.0
C935 C 0.62454 0.05758 0.38858 0.0
C936 C 0.68439 0.02504 0.37322 0.0
C937 C 0.62373 0.05795 0.37419 0.0
C938 C 0.70734 -0.0034 0.351 0.0
C939 C 0.73764 0.93457 0.36564 0.0
N940 N 0.65292 0.04115 0.36697 0.0
N941 N 0.72432 0.96654 0.37225 0.0
H942 H 0.78738 0.96909 0.16564 0.0
H943 H 0.84778 0.05199 0.09258 0.0
H944 H 0.75214 0.92112 0.1267 0.0
H945 H 0.91047 0.07338 0.13016 0.0
H946 H 0.79475 0.02381 0.10597 0.0
H947 H 0.81416 0.02555 0.15358 0.0
C948 C 0.78423 0.97107 0.15459 0.0
C949 C 0.76821 0.94029 0.14708 0.0
C950 C 0.81963 0.03569 0.11131 0.0
C951 C 0.79877 0.00429 0.1333 0.0
C952 C 0.84976 0.05207 0.10369 0.0
C953 C 0.88379 0.06432 0.1103 0.0
C954 C 0.82371 0.03158 0.12559 0.0
C955 C 0.88494 0.06354 0.1247 0.0
C956 C 0.79964 0.00313 0.14772 0.0
C957 C 0.76493 0.94407 0.1328 0.0
N958 N 0.85562 0.04669 0.13187 0.0
N959 N 0.78061 0.97525 0.12633 0.0
H960 H 0.74079 0.38787 0.62777 0.0
H961 H 0.57097 0.54416 0.62683 0.0
H962 H 0.67803 0.4217 0.66426 0.0
H963 H 0.60739 0.48206 0.59054 0.0
H964 H 0.61418 0.50399 0.64065 0.0
H965 H 0.69657 0.42698 0.61395 0.0
C966 C 0.71782 0.40368 0.6329 0.0
C967 C 0.71314 0.40159 0.64722 0.0
C968 C 0.61264 0.49906 0.62967 0.0
C969 C 0.66246 0.44642 0.63141 0.0
C970 C 0.5881 0.52207 0.62175 0.0
C971 C 0.58569 0.51651 0.60749 0.0
C972 C 0.63536 0.47057 0.62329 0.0
C973 C 0.60837 0.48728 0.6015 0.0
C974 C 0.69246 0.42581 0.62498 0.0
C975 C 0.6827 0.42252 0.65327 0.0
N976 N 0.63251 0.46552 0.60943 0.0
N977 N 0.65858 0.44423 0.64532 0.0
H978 H 0.88186 0.47927 0.91574 0.0
H979 H 0.82215 0.41654 0.83966 0.0
H980 H 0.91557 0.54393 0.87963 0.0
H981 H 0.75891 0.38031 0.87578 0.0
H982 H 0.86297 0.4578 0.85421 0.0
H983 H 0.84228 0.4369 0.9012 0.0
C984 C 0.88087 0.4846 0.90478 0.0
C985 C 0.90186 0.51526 0.8989 0.0
C986 C 0.84009 0.44081 0.85891 0.0
C987 C 0.85717 0.46679 0.88224 0.0
C988 C 0.81692 0.41721 0.85063 0.0
C989 C 0.787 0.39517 0.85651 0.0
C990 C 0.83356 0.44187 0.87316 0.0
C991 C 0.78147 0.39706 0.87079 0.0
C992 C 0.85829 0.46047 0.8965 0.0
C993 C 0.89966 0.52079 0.88462 0.0
N994 N 0.80461 0.41991 0.87863 0.0
N995 N 0.87785 0.49668 0.87677 0.0
H996 H 0.8906 0.62873 0.08881 0.0
H997 H 0.82153 0.69716 0.16327 0.0
H998 H 0.92382 0.56978 0.12617 0.0
H999 H 0.76213 0.72965 0.12593 0.0
H1000 H 0.86382 0.65458 0.14981 0.0
H1001 H 0.84761 0.67061 0.10227 0.0
C1002 C 0.88882 0.62456 0.09983 0.0
C1003 C 0.91073 0.59566 0.10637 0.0
C1004 C 0.84141 0.67095 0.1446 0.0
C1005 C 0.86197 0.64357 0.12181 0.0
C1006 C 0.81732 0.69528 0.15226 0.0
C1007 C 0.7882 0.7169 0.14572 0.0
C1008 C 0.83661 0.66862 0.13029 0.0
C1009 C 0.78409 0.7134 0.13142 0.0
C1010 C 0.86424 0.64839 0.10749 0.0
C1011 C 0.90733 0.59156 0.12068 0.0
N1012 N 0.80815 0.68987 0.12417 0.0
N1013 N 0.88355 0.61538 0.12793 0.0
H1014 H 0.66769 0.68867 0.33714 0.0
H1015 H 0.60897 0.62732 0.41357 0.0
H1016 H 0.7315 0.72589 0.37296 0.0
H1017 H 0.57417 0.56265 0.37765 0.0
H1018 H 0.64895 0.66906 0.39885 0.0
H1019 H 0.62753 0.64735 0.35192 0.0
C1020 C 0.67326 0.68814 0.34809 0.0
C1021 C 0.70309 0.7106 0.35382 0.0
C1022 C 0.63261 0.64562 0.39423 0.0
C1023 C 0.65714 0.6638 0.37075 0.0
C1024 C 0.60979 0.62186 0.40261 0.0
C1025 C 0.58834 0.59137 0.39684 0.0
C1026 C 0.63352 0.63912 0.37998 0.0
C1027 C 0.59038 0.58566 0.38257 0.0
C1028 C 0.65041 0.66453 0.35651 0.0
C1029 C 0.70898 0.70887 0.36808 0.0
N1030 N 0.61241 0.60941 0.37463 0.0
N1031 N 0.68612 0.68601 0.37607 0.0
H1032 H 0.33717 0.57901 0.41606 0.0
H1033 H 0.25533 0.64344 0.34329 0.0
H1034 H 0.3897 0.55105 0.37709 0.0
H1035 H 0.23254 0.70264 0.38143 0.0
H1036 H 0.28469 0.5899 0.3562 0.0
H1037 H 0.28017 0.60403 0.4039 0.0
C1038 C 0.33612 0.577 0.40496 0.0
C1039 C 0.3683 0.56366 0.39751 0.0
C1040 C 0.27213 0.61405 0.36176 0.0
C1041 C 0.30365 0.59229 0.38361 0.0
C1042 C 0.25515 0.6444 0.35442 0.0
C1043 C 0.24211 0.67752 0.36136 0.0
C1044 C 0.27589 0.61706 0.37609 0.0
C1045 C 0.24278 0.67765 0.37575 0.0
C1046 C 0.30373 0.59142 0.39804 0.0
C1047 C 0.36565 0.5618 0.38315 0.0
N1048 N 0.26007 0.64814 0.38266 0.0
N1049 N 0.3341 0.57655 0.37664 0.0
H1050 H 0.26961 0.72191 0.1181 0.0
H1051 H 0.11757 0.5574 0.12422 0.0
H1052 H 0.24754 0.66055 0.15592 0.0
H1053 H 0.16183 0.59686 0.08522 0.0
H1054 H 0.17441 0.58504 0.13557 0.0
H1055 H 0.24154 0.66777 0.10531 0.0
C1056 C 0.25989 0.69646 0.12366 0.0
C1057 C 0.26017 0.69591 0.13806 0.0
C1058 C 0.17233 0.58685 0.12449 0.0
C1059 C 0.22716 0.63442 0.12361 0.0
C1060 C 0.13985 0.57112 0.11804 0.0
C1061 C 0.13492 0.57549 0.10384 0.0
C1062 C 0.19943 0.60801 0.1167 0.0
C1063 C 0.16459 0.59315 0.09622 0.0
C1064 C 0.24384 0.66555 0.11638 0.0
C1065 C 0.24762 0.6622 0.14481 0.0
N1066 N 0.1952 0.60966 0.10279 0.0
N1067 N 0.23068 0.63319 0.13755 0.0
H1068 H 0.0966 0.56488 0.8786 0.0
H1069 H 0.25321 0.40435 0.87764 0.0
H1070 H 0.15242 0.52346 0.9154 0.0
H1071 H 0.22016 0.46808 0.84137 0.0
H1072 H 0.22743 0.45667 0.89188 0.0
H1073 H 0.15097 0.54042 0.86502 0.0
C1074 C 0.12097 0.55156 0.88382 0.0
C1075 C 0.11998 0.54555 0.89805 0.0
C1076 C 0.22672 0.45984 0.88081 0.0
C1077 C 0.1816 0.51648 0.88265 0.0
C1078 C 0.24141 0.42996 0.8727 0.0
C1079 C 0.23812 0.43181 0.85837 0.0
C1080 C 0.20768 0.4912 0.87451 0.0
C1081 C 0.22296 0.46557 0.85242 0.0
C1082 C 0.15201 0.53758 0.8761 0.0
C1083 C 0.15215 0.52839 0.90441 0.0
N1084 N 0.20736 0.49358 0.86053 0.0
N1085 N 0.18129 0.51352 0.89661 0.0
H1086 H 0.26483 0.46851 0.6629 0.0
H1087 H 0.33623 0.54767 0.59075 0.0
H1088 H 0.23945 0.41618 0.62373 0.0
H1089 H 0.39277 0.56934 0.62948 0.0
H1090 H 0.28024 0.52117 0.60314 0.0
H1091 H 0.29015 0.52581 0.65095 0.0
C1092 C 0.26324 0.46977 0.6518 0.0
C1093 C 0.25075 0.43754 0.64422 0.0
C1094 C 0.30437 0.53294 0.60893 0.0
C1095 C 0.27979 0.50238 0.63058 0.0
C1096 C 0.33615 0.54826 0.60188 0.0
C1097 C 0.36922 0.55998 0.60916 0.0
C1098 C 0.3059 0.52947 0.6233 0.0
C1099 C 0.3679 0.55997 0.62355 0.0
C1100 C 0.27785 0.50231 0.64499 0.0
C1101 C 0.24945 0.44036 0.62987 0.0
N1102 N 0.33701 0.5442 0.63017 0.0
N1103 N 0.26448 0.47199 0.62348 0.0
H1104 H 0.92319 0.89987 0.06807 0.0
H1105 H 0.05797 0.7164 0.05334 0.0
H1106 H 0.04637 0.90874 0.0608 0.0
H1107 H 0.94327 0.7072 0.07083 0.0
H1108 H 0.05318 0.78707 0.05463 0.0
H1109 H 0.92878 0.82916 0.06777 0.0
C1110 C 0.95139 0.88689 0.06638 0.0
C1111 C 0.98435 0.91013 0.06442 0.0
C1112 C 0.02912 0.76959 0.05824 0.0
C1113 C 0.99102 0.82938 0.06409 0.0
C1114 C 0.03174 0.7293 0.05742 0.0
C1115 C 0.00091 0.70598 0.06195 0.0
C1116 C -0.00475 0.78669 0.06349 0.0
C1117 C 0.96781 0.72414 0.06734 0.0
C1118 C 0.95462 0.84658 0.0663 0.0
C1119 C 0.02032 0.89186 0.06247 0.0
N1120 N 0.96573 0.76346 0.06788 0.0
N1121 N 0.02267 0.85253 0.06226 0.0
H1122 H 0.38562 0.85233 0.31231 0.0
H1123 H 0.58852 0.74034 0.31628 0.0
H1124 H 0.39493 0.72759 0.31334 0.0
H1125 H 0.57813 0.86016 0.30403 0.0
H1126 H 0.51769 0.73618 0.31778 0.0
H1127 H 0.4565 0.85687 0.31175 0.0
C1128 C 0.40261 0.82592 0.31248 0.0
C1129 C 0.38442 0.78953 0.31283 0.0
C1130 C 0.53094 0.76337 0.31476 0.0
C1131 C 0.46538 0.79444 0.31219 0.0
C1132 C 0.57132 0.76581 0.31399 0.0
C1133 C 0.58915 0.80061 0.30998 0.0
C1134 C 0.50829 0.79609 0.31165 0.0
C1135 C 0.5655 0.83265 0.30698 0.0
C1136 C 0.44301 0.8285 0.31208 0.0
C1137 C 0.4078 0.75619 0.31289 0.0
N1138 N 0.52628 0.82967 0.30792 0.0
N1139 N 0.44708 0.75944 0.31262 0.0
H1140 H 0.56639 0.21647 0.5563 0.0
H1141 H 0.42393 0.39825 0.56326 0.0
H1142 H 0.44418 0.20556 0.56516 0.0
H1143 H 0.54872 0.40832 0.56335 0.0
H1144 H 0.43028 0.32766 0.56248 0.0
H1145 H 0.56005 0.28701 0.55736 0.0
C1146 C 0.53819 0.22894 0.55841 0.0
C1147 C 0.50574 0.20513 0.56062 0.0
C1148 C 0.45628 0.34531 0.56271 0.0
C1149 C 0.49828 0.2858 0.56191 0.0
C1150 C 0.45267 0.38559 0.56305 0.0
C1151 C 0.48586 0.40917 0.56334 0.0
C1152 C 0.49338 0.32846 0.56251 0.0
C1153 C 0.52241 0.39121 0.56327 0.0
C1154 C 0.53463 0.26919 0.55911 0.0
C1155 C 0.46999 0.22283 0.56352 0.0
N1156 N 0.5252 0.35192 0.5628 0.0
N1157 N 0.46717 0.26212 0.56402 0.0
H1158 H 0.09872 0.25167 0.81505 0.0
H1159 H 0.89464 0.36193 0.81235 0.0
H1160 H 0.08731 0.37374 0.80615 0.0
H1161 H 0.90548 0.23729 0.81165 0.0
H1162 H 0.96542 0.36739 0.81219 0.0
H1163 H 0.02794 0.24634 0.81599 0.0
C1164 C 0.08131 0.27737 0.81337 0.0
C1165 C 0.09888 0.31318 0.81048 0.0
C1166 C 0.9523 0.33884 0.81206 0.0
C1167 C 0.01801 0.30732 0.81149 0.0
C1168 C 0.91193 0.33573 0.81223 0.0
C1169 C 0.89419 0.29911 0.81199 0.0
C1170 C 0.97509 0.30508 0.81177 0.0
C1171 C 0.91798 0.26608 0.81167 0.0
C1172 C 0.04095 0.27428 0.81381 0.0
C1173 C 0.07494 0.34549 0.80822 0.0
N1174 N 0.95723 0.26983 0.81162 0.0
N1175 N 0.03573 0.34182 0.80881 0.0
H1176 H 0.96877 0.19959 0.95907 0.0
H1177 H 0.99402 0.40133 0.91949 0.0
H1178 H -0.00074 0.20609 0.91615 0.0
H1179 H 0.99264 0.39032 0.96363 0.0
H1180 H 0.99065 0.33042 0.91757 0.0
H1181 H 0.97208 0.27015 0.96048 0.0
C1182 C 0.97597 0.21592 0.94991 0.0
C1183 C 0.98363 0.19695 0.93746 0.0
C1184 C 0.9912 0.34359 0.92766 0.0
C1185 C 0.98766 0.2779 0.939 0.0
C1186 C 0.99286 0.384 0.92876 0.0
C1187 C 0.99373 0.40172 0.94174 0.0
C1188 C 0.9899 0.32083 0.93964 0.0
C1189 C 0.99256 0.3779 0.95343 0.0
C1190 C 0.97812 0.25621 0.95074 0.0
C1191 C 0.99345 0.21958 0.92597 0.0
N1192 N 0.99055 0.33875 0.9521 0.0
N1193 N 0.995 0.25893 0.92699 0.0
H1194 H 0.094 0.73421 0.18032 0.0
H1195 H 0.90982 0.8657 0.19754 0.0
H1196 H 0.10191 0.85714 0.18801 0.0
H1197 H 0.90085 0.75172 0.17958 0.0
H1198 H 0.98047 0.86208 0.19543 0.0
H1199 H 0.02324 0.73892 0.18127 0.0
C1200 C 0.0808 0.76218 0.18223 0.0
C1201 C 0.10381 0.79531 0.18414 0.0
C1202 C 0.96303 0.83792 0.1919 0.0
C1203 C 0.02294 0.80097 0.18522 0.0
C1204 C 0.92276 0.83987 0.19319 0.0
C1205 C 0.89949 0.8089 0.18877 0.0
C1206 C 0.98021 0.80457 0.18629 0.0
C1207 C 0.91772 0.77634 0.18301 0.0
C1208 C 0.04044 0.7649 0.18268 0.0
C1209 C 0.08523 0.83096 0.18638 0.0
N1210 N 0.95703 0.77491 0.18202 0.0
N1211 N 0.04585 0.83281 0.18696 0.0
H1212 H 0.43592 0.71491 0.44551 0.0
H1213 H 0.57631 0.89746 0.43619 0.0
H1214 H 0.55679 0.70456 0.43453 0.0
H1215 H 0.45152 0.90678 0.43757 0.0
H1216 H 0.57043 0.82682 0.43712 0.0
H1217 H 0.44169 0.78548 0.44416 0.0
C1218 C 0.46372 0.72752 0.44287 0.0
C1219 C 0.49596 0.70387 0.44016 0.0
C1220 C 0.54432 0.84432 0.43718 0.0
C1221 C 0.50277 0.78456 0.43855 0.0
C1222 C 0.54768 0.88463 0.43675 0.0
C1223 C 0.51434 0.90801 0.43683 0.0
C1224 C 0.50737 0.82725 0.43783 0.0
C1225 C 0.47793 0.88983 0.43735 0.0
C1226 C 0.46693 0.76778 0.44201 0.0
C1227 C 0.53114 0.72172 0.43658 0.0
N1228 N 0.47541 0.85052 0.4379 0.0
N1229 N 0.53368 0.76103 0.43595 0.0
H1230 H 0.59481 0.31227 0.7145 0.0
H1231 H 0.40414 0.30647 0.66772 0.0
H1232 H 0.59931 0.31262 0.67021 0.0
H1233 H 0.40329 0.32965 0.71126 0.0
H1234 H 0.47529 0.30458 0.6683 0.0
H1235 H 0.52417 0.3147 0.71342 0.0
C1236 C 0.58089 0.31268 0.70453 0.0
C1237 C 0.60298 0.31206 0.69243 0.0
C1238 C 0.45947 0.3102 0.67771 0.0
C1239 C 0.52192 0.31507 0.69109 0.0
C1240 C 0.4189 0.31102 0.6774 0.0
C1241 C 0.39776 0.31831 0.68946 0.0
C1242 C 0.47895 0.3163 0.6902 0.0
C1243 C 0.41837 0.32445 0.70169 0.0
C1244 C 0.54053 0.31433 0.70392 0.0
C1245 C 0.58337 0.31334 0.67979 0.0
N1246 N 0.45775 0.32316 0.70176 0.0
N1247 N 0.5439 0.31458 0.67944 0.0
loop_
_geom_bond_atom_site_label_1
_geom_bond_atom_site_label_2
_geom_bond_distance
_geom_bond_site_symmetry_2
_ccdc_geom_bond_type
C0 C1 1.351 . S
C0 N3 1.368 1_655 S
C0 H5 0.931 . S
C1 C0 1.351 . S
C1 N2 1.373 1_655 S
C1 H29 0.930 . S
N2 C1 1.373 1_455 S
N2 C4 1.340 . S
N3 C0 1.368 1_455 S
N3 C4 1.321 . S
N3 Co6 2.135 1_565 S
C4 N2 1.340 . S
C4 N3 1.321 . S
C4 H28 0.930 . S
H5 C0 0.931 . S
Co6 N3 2.135 1_545 S
Co6 N9 2.121 . S
Co6 O14 2.055 . S
Co6 O17 2.039 . S
Co6 N20 2.140 1_455 S
C7 O8 1.227 . S
C7 O17 1.265 . S
O8 C7 1.227 . S
N9 Co6 2.121 . S
N9 C11 1.375 . S
N9 C12 1.313 . S
C10 C11 1.338 . S
C10 N13 1.377 . S
C10 H30 0.930 . S
C11 N9 1.375 . S
C11 C10 1.338 . S
C11 H15 0.931 . S
C12 N9 1.313 . S
C12 N13 1.344 . S
C12 H16 0.930 . S
N13 C10 1.377 . S
N13 C12 1.344 . S
O14 Co6 2.055 . S
O14 C18 1.253 . S
H15 C11 0.931 . S
H16 C12 0.930 . S
O17 Co6 2.039 . S
O17 C7 1.265 . S
C18 O14 1.253 . S
C18 O19 1.227 1_455 S
O19 C18 1.227 1_655 S
N20 Co6 2.140 1_655 S
N20 C23 1.346 . S
N20 C24 1.345 . S
C21 C22 1.387 . S
C21 C25 1.391 . S
C22 C21 1.387 . S
C22 C23 1.369 . S
C22 H31 0.929 1_545 S
C23 N20 1.346 . S
C23 C22 1.369 . S
C23 H26 0.928 1_545 S
C24 N20 1.345 . S
C24 C25 1.371 . S
C24 H27 0.931 . S
C25 C21 1.391 . S
C25 C24 1.371 . S
C25 H32 0.930 . S
H26 C23 0.928 1_565 S
H27 C24 0.931 . S
H28 C4 0.930 . S
H29 C1 0.930 . S
H30 C10 0.930 . S
H31 C22 0.929 1_565 S
H32 C25 0.930 . S
C33 C34 1.351 . S
C33 N36 1.368 . S
C33 H38 0.931 . S
C34 C33 1.351 . S
C34 N35 1.373 . S
C34 H62 0.930 . S
N35 C34 1.373 . S
N35 C37 1.340 . S
N36 C33 1.368 . S
N36 C37 1.321 . S
N36 Co39 2.135 . S
C37 N35 1.340 . S
C37 N36 1.321 . S
C37 H61 0.930 . S
H38 C33 0.931 . S
Co39 N36 2.135 . S
Co39 N42 2.121 . S
Co39 O47 2.055 . S
Co39 O50 2.039 . S
Co39 N53 2.140 . S
C40 O41 1.227 . S
C40 O50 1.265 . S
O41 C40 1.227 . S
N42 Co39 2.121 . S
N42 C44 1.375 . S
N42 C45 1.313 . S
C43 C44 1.338 . S
C43 N46 1.377 . S
C43 H63 0.930 . S
C44 N42 1.375 . S
C44 C43 1.338 . S
C44 H48 0.931 . S
C45 N42 1.313 . S
C45 N46 1.344 . S
C45 H49 0.930 . S
N46 C43 1.377 . S
N46 C45 1.344 . S
O47 Co39 2.055 . S
O47 C51 1.253 . S
H48 C44 0.931 . S
H49 C45 0.930 . S
O50 Co39 2.039 . S
O50 C40 1.265 . S
C51 O47 1.253 . S
C51 O52 1.227 . S
O52 C51 1.227 . S
N53 Co39 2.140 . S
N53 C56 1.346 . S
N53 C57 1.345 . S
C54 C55 1.387 . S
C54 C58 1.391 . S
C55 C54 1.387 . S
C55 C56 1.369 . S
C55 H64 0.929 . S
C56 N53 1.346 . S
C56 C55 1.369 . S
C56 H59 0.928 . S
C57 N53 1.345 . S
C57 C58 1.371 . S
C57 H60 0.931 . S
C58 C54 1.391 . S
C58 C57 1.371 . S
C58 H65 0.930 . S
H59 C56 0.928 . S
H60 C57 0.931 . S
H61 C37 0.930 . S
H62 C34 0.930 . S
H63 C43 0.930 . S
H64 C55 0.929 . S
H65 C58 0.930 . S
C66 C67 1.351 . S
C66 N69 1.368 . S
C66 H71 0.931 . S
C67 C66 1.351 . S
C67 N68 1.373 . S
C67 H95 0.930 . S
N68 C67 1.373 . S
N68 C70 1.340 . S
N69 C66 1.368 . S
N69 C70 1.321 . S
N69 Co72 2.135 . S
C70 N68 1.340 . S
C70 N69 1.321 . S
C70 H94 0.930 . S
H71 C66 0.931 . S
Co72 N69 2.135 . S
Co72 N75 2.121 . S
Co72 O80 2.055 . S
Co72 O83 2.039 . S
Co72 N86 2.140 . S
C73 O74 1.227 . S
C73 O83 1.265 . S
O74 C73 1.227 . S
N75 Co72 2.121 . S
N75 C77 1.375 . S
N75 C78 1.313 1_545 S
C76 C77 1.338 1_565 S
C76 N79 1.377 . S
C76 H96 0.930 . S
C77 N75 1.375 . S
C77 C76 1.338 1_545 S
C77 H81 0.931 . S
C78 N75 1.313 1_565 S
C78 N79 1.344 . S
C78 H82 0.930 . S
N79 C76 1.377 . S
N79 C78 1.344 . S
O80 Co72 2.055 . S
O80 C84 1.253 . S
H81 C77 0.931 . S
H82 C78 0.930 . S
O83 Co72 2.039 . S
O83 C73 1.265 . S
C84 O80 1.253 . S
C84 O85 1.227 . S
O85 C84 1.227 . S
N86 Co72 2.140 . S
N86 C89 1.346 . S
N86 C90 1.345 . S
C87 C88 1.387 . S
C87 C91 1.391 . S
C88 C87 1.387 . S
C88 C89 1.369 . S
C88 H97 0.929 . S
C89 N86 1.346 . S
C89 C88 1.369 . S
C89 H92 0.928 . S
C90 N86 1.345 . S
C90 C91 1.371 . S
C90 H93 0.931 . S
C91 C87 1.391 . S
C91 C90 1.371 . S
C91 H98 0.930 . S
H92 C89 0.928 . S
H93 C90 0.931 . S
H94 C70 0.930 . S
H95 C67 0.930 . S
H96 C76 0.930 . S
H97 C88 0.929 . S
H98 C91 0.930 . S
C99 C100 1.351 . S
C99 N102 1.368 . S
C99 H104 0.931 . S
C100 C99 1.351 . S
C100 N101 1.373 . S
C100 H128 0.930 . S
N101 C100 1.373 . S
N101 C103 1.340 . S
N102 C99 1.368 . S
N102 C103 1.321 . S
N102 Co105 2.135 . S
C103 N101 1.340 . S
C103 N102 1.321 . S
C103 H127 0.930 . S
H104 C99 0.931 . S
Co105 N102 2.135 . S
Co105 N108 2.121 . S
Co105 O113 2.055 . S
Co105 O116 2.039 . S
Co105 N119 2.140 . S
C106 O107 1.227 . S
C106 O116 1.265 . S
O107 C106 1.227 . S
N108 Co105 2.121 . S
N108 C110 1.375 . S
N108 C111 1.313 . S
C109 C110 1.338 . S
C109 N112 1.377 . S
C109 H129 0.930 . S
C110 N108 1.375 . S
C110 C109 1.338 . S
C110 H114 0.931 . S
C111 N108 1.313 . S
C111 N112 1.344 . S
C111 H115 0.930 . S
N112 C109 1.377 . S
N112 C111 1.344 . S
O113 Co105 2.055 . S
O113 C117 1.253 . S
H114 C110 0.931 . S
H115 C111 0.930 . S
O116 Co105 2.039 . S
O116 C106 1.265 . S
C117 O113 1.253 . S
C117 O118 1.227 . S
O118 C117 1.227 . S
N119 Co105 2.140 . S
N119 C122 1.346 . S
N119 C123 1.345 . S
C120 C121 1.387 . S
C120 C124 1.391 . S
C121 C120 1.387 . S
C121 C122 1.369 . S
C121 H130 0.929 . S
C122 N119 1.346 . S
C122 C121 1.369 . S
C122 H125 0.928 . S
C123 N119 1.345 . S
C123 C124 1.371 . S
C123 H126 0.931 . S
C124 C120 1.391 . S
C124 C123 1.371 . S
C124 H131 0.930 . S
H125 C122 0.928 . S
H126 C123 0.931 . S
H127 C103 0.930 . S
H128 C100 0.930 . S
H129 C109 0.930 . S
H130 C121 0.929 . S
H131 C124 0.930 . S
C132 C133 1.351 . S
C132 N135 1.368 1_655 S
C132 H137 0.931 . S
C133 C132 1.351 . S
C133 N134 1.373 1_655 S
C133 H161 0.930 . S
N134 C133 1.373 1_455 S
N134 C136 1.340 . S
N135 C132 1.368 1_455 S
N135 C136 1.321 . S
N135 Co138 2.135 . S
C136 N134 1.340 . S
C136 N135 1.321 . S
C136 H160 0.930 . S
H137 C132 0.931 . S
Co138 N135 2.135 . S
Co138 N141 2.121 . S
Co138 O146 2.055 . S
Co138 O149 2.039 . S
Co138 N152 2.140 1_455 S
C139 O140 1.227 . S
C139 O149 1.265 . S
O140 C139 1.227 . S
N141 Co138 2.121 . S
N141 C143 1.375 . S
N141 C144 1.313 1_545 S
C142 C143 1.338 1_565 S
C142 N145 1.377 . S
C142 H162 0.930 . S
C143 N141 1.375 . S
C143 C142 1.338 1_545 S
C143 H147 0.931 . S
C144 N141 1.313 1_565 S
C144 N145 1.344 . S
C144 H148 0.930 . S
N145 C142 1.377 . S
N145 C144 1.344 . S
O146 Co138 2.055 . S
O146 C150 1.253 . S
H147 C143 0.931 . S
H148 C144 0.930 . S
O149 Co138 2.039 . S
O149 C139 1.265 . S
C150 O146 1.253 . S
C150 O151 1.227 1_455 S
O151 C150 1.227 1_655 S
N152 Co138 2.140 1_655 S
N152 C155 1.346 . S
N152 C156 1.345 . S
C153 C154 1.387 . S
C153 C157 1.391 . S
C154 C153 1.387 . S
C154 C155 1.369 . S
C154 H163 0.929 . S
C155 N152 1.346 . S
C155 C154 1.369 . S
C155 H158 0.928 . S
C156 N152 1.345 . S
C156 C157 1.371 . S
C156 H159 0.931 . S
C157 C153 1.391 . S
C157 C156 1.371 . S
C157 H164 0.930 . S
H158 C155 0.928 . S
H159 C156 0.931 . S
H160 C136 0.930 . S
H161 C133 0.930 . S
H162 C142 0.930 . S
H163 C154 0.929 . S
H164 C157 0.930 . S
C165 C166 1.351 . S
C165 N168 1.368 . S
C165 H170 0.931 . S
C166 C165 1.351 . S
C166 N167 1.373 . S
C166 H194 0.930 . S
N167 C166 1.373 . S
N167 C169 1.340 . S
N168 C165 1.368 . S
N168 C169 1.321 . S
N168 Co171 2.135 . S
C169 N167 1.340 . S
C169 N168 1.321 . S
C169 H193 0.930 . S
H170 C165 0.931 . S
Co171 N168 2.135 . S
Co171 N174 2.121 . S
Co171 O179 2.055 . S
Co171 O182 2.039 . S
Co171 N185 2.140 . S
C172 O173 1.227 . S
C172 O182 1.265 . S
O173 C172 1.227 . S
N174 Co171 2.121 . S
N174 C176 1.375 . S
N174 C177 1.313 . S
C175 C176 1.338 . S
C175 N178 1.377 . S
C175 H195 0.930 . S
C176 N174 1.375 . S
C176 C175 1.338 . S
C176 H180 0.931 . S
C177 N174 1.313 . S
C177 N178 1.344 . S
C177 H181 0.930 . S
N178 C175 1.377 . S
N178 C177 1.344 . S
O179 Co171 2.055 . S
O179 C183 1.253 . S
H180 C176 0.931 . S
H181 C177 0.930 . S
O182 Co171 2.039 . S
O182 C172 1.265 . S
C183 O179 1.253 . S
C183 O184 1.227 . S
O184 C183 1.227 . S
N185 Co171 2.140 . S
N185 C188 1.346 . S
N185 C189 1.345 . S
C186 C187 1.387 . S
C186 C190 1.391 . S
C187 C186 1.387 . S
C187 C188 1.369 . S
C187 H196 0.929 . S
C188 N185 1.346 . S
C188 C187 1.369 . S
C188 H191 0.928 . S
C189 N185 1.345 . S
C189 C190 1.371 . S
C189 H192 0.931 . S
C190 C186 1.391 . S
C190 C189 1.371 . S
C190 H197 0.930 . S
H191 C188 0.928 . S
H192 C189 0.931 . S
H193 C169 0.930 . S
H194 C166 0.930 . S
H195 C175 0.930 . S
H196 C187 0.929 . S
H197 C190 0.930 . S
C198 C199 1.351 . S
C198 N201 1.368 . S
C198 H203 0.931 . S
C199 C198 1.351 . S
C199 N200 1.373 . S
C199 H227 0.930 . S
N200 C199 1.373 . S
N200 C202 1.340 . S
N201 C198 1.368 . S
N201 C202 1.321 . S
N201 Co204 2.135 1_565 S
C202 N200 1.340 . S
C202 N201 1.321 . S
C202 H226 0.930 . S
H203 C198 0.931 . S
Co204 N201 2.135 1_545 S
Co204 N207 2.121 . S
Co204 O212 2.055 . S
Co204 O215 2.039 . S
Co204 N218 2.140 . S
C205 O206 1.227 . S
C205 O215 1.265 . S
O206 C205 1.227 . S
N207 Co204 2.121 . S
N207 C209 1.375 . S
N207 C210 1.313 . S
C208 C209 1.338 . S
C208 N211 1.377 . S
C208 H228 0.930 . S
C209 N207 1.375 . S
C209 C208 1.338 . S
C209 H213 0.931 . S
C210 N207 1.313 . S
C210 N211 1.344 . S
C210 H214 0.930 . S
N211 C208 1.377 . S
N211 C210 1.344 . S
O212 Co204 2.055 . S
O212 C216 1.253 . S
H213 C209 0.931 . S
H214 C210 0.930 . S
O215 Co204 2.039 . S
O215 C205 1.265 . S
C216 O212 1.253 . S
C216 O217 1.227 . S
O217 C216 1.227 . S
N218 Co204 2.140 . S
N218 C221 1.346 . S
N218 C222 1.345 . S
C219 C220 1.387 . S
C219 C223 1.391 . S
C220 C219 1.387 . S
C220 C221 1.369 . S
C220 H229 0.929 1_545 S
C221 N218 1.346 . S
C221 C220 1.369 . S
C221 H224 0.928 1_545 S
C222 N218 1.345 . S
C222 C223 1.371 . S
C222 H225 0.931 . S
C223 C219 1.391 . S
C223 C222 1.371 . S
C223 H230 0.930 . S
H224 C221 0.928 1_565 S
H225 C222 0.931 . S
H226 C202 0.930 . S
H227 C199 0.930 . S
H228 C208 0.930 . S
H229 C220 0.929 1_565 S
H230 C223 0.930 . S
C231 C232 1.351 . S
C231 N234 1.368 . S
C231 H236 0.931 . S
C232 C231 1.351 . S
C232 N233 1.373 . S
C232 H260 0.930 . S
N233 C232 1.373 . S
N233 C235 1.340 . S
N234 C231 1.368 . S
N234 C235 1.321 . S
N234 Co237 2.135 . S
C235 N233 1.340 . S
C235 N234 1.321 . S
C235 H259 0.930 . S
H236 C231 0.931 . S
Co237 N234 2.135 . S
Co237 N240 2.121 . S
Co237 O245 2.055 . S
Co237 O248 2.039 . S
Co237 N251 2.140 . S
C238 O239 1.227 . S
C238 O248 1.265 . S
O239 C238 1.227 . S
N240 Co237 2.121 . S
N240 C242 1.375 . S
N240 C243 1.313 . S
C241 C242 1.338 . S
C241 N244 1.377 . S
C241 H261 0.930 . S
C242 N240 1.375 . S
C242 C241 1.338 . S
C242 H246 0.931 . S
C243 N240 1.313 . S
C243 N244 1.344 . S
C243 H247 0.930 . S
N244 C241 1.377 . S
N244 C243 1.344 . S
O245 Co237 2.055 . S
O245 C249 1.253 . S
H246 C242 0.931 . S
H247 C243 0.930 . S
O248 Co237 2.039 . S
O248 C238 1.265 . S
C249 O245 1.253 . S
C249 O250 1.227 . S
O250 C249 1.227 . S
N251 Co237 2.140 . S
N251 C254 1.346 . S
N251 C255 1.345 . S
C252 C253 1.387 . S
C252 C256 1.391 . S
C253 C252 1.387 . S
C253 C254 1.369 . S
C253 H262 0.929 . S
C254 N251 1.346 . S
C254 C253 1.369 . S
C254 H257 0.928 . S
C255 N251 1.345 . S
C255 C256 1.371 . S
C255 H258 0.931 . S
C256 C252 1.391 . S
C256 C255 1.371 . S
C256 H263 0.930 . S
H257 C254 0.928 . S
H258 C255 0.931 . S
H259 C235 0.930 . S
H260 C232 0.930 . S
H261 C241 0.930 . S
H262 C253 0.929 . S
H263 C256 0.930 . S
C264 C265 1.351 . S
C264 N267 1.368 . S
C264 H269 0.931 . S
C265 C264 1.351 . S
C265 N266 1.373 . S
C265 H293 0.930 . S
N266 C265 1.373 . S
N266 C268 1.340 . S
N267 C264 1.368 . S
N267 C268 1.321 . S
N267 Co270 2.135 . S
C268 N266 1.340 . S
C268 N267 1.321 . S
C268 H292 0.930 . S
H269 C264 0.931 . S
Co270 N267 2.135 . S
Co270 N273 2.121 . S
Co270 O278 2.055 . S
Co270 O281 2.039 . S
Co270 N284 2.140 . S
C271 O272 1.227 . S
C271 O281 1.265 . S
O272 C271 1.227 . S
N273 Co270 2.121 . S
N273 C275 1.375 . S
N273 C276 1.313 . S
C274 C275 1.338 . S
C274 N277 1.377 . S
C274 H294 0.930 . S
C275 N273 1.375 . S
C275 C274 1.338 . S
C275 H279 0.931 . S
C276 N273 1.313 . S
C276 N277 1.344 . S
C276 H280 0.930 . S
N277 C274 1.377 . S
N277 C276 1.344 . S
O278 Co270 2.055 . S
O278 C282 1.253 . S
H279 C275 0.931 . S
H280 C276 0.930 . S
O281 Co270 2.039 . S
O281 C271 1.265 . S
C282 O278 1.253 . S
C282 O283 1.227 . S
O283 C282 1.227 . S
N284 Co270 2.140 . S
N284 C287 1.346 . S
N284 C288 1.345 . S
C285 C286 1.387 . S
C285 C289 1.391 . S
C286 C285 1.387 . S
C286 C287 1.369 . S
C286 H295 0.929 . S
C287 N284 1.346 . S
C287 C286 1.369 . S
C287 H290 0.928 . S
C288 N284 1.345 . S
C288 C289 1.371 . S
C288 H291 0.931 . S
C289 C285 1.391 . S
C289 C288 1.371 . S
C289 H296 0.930 . S
H290 C287 0.928 . S
H291 C288 0.931 . S
H292 C268 0.930 . S
H293 C265 0.930 . S
H294 C274 0.930 . S
H295 C286 0.929 . S
H296 C289 0.930 . S
C297 C298 1.351 . S
C297 N300 1.368 . S
C297 H302 0.931 . S
C298 C297 1.351 . S
C298 N299 1.373 . S
C298 H326 0.930 . S
N299 C298 1.373 . S
N299 C301 1.340 . S
N300 C297 1.368 . S
N300 C301 1.321 . S
N300 Co303 2.135 . S
C301 N299 1.340 . S
C301 N300 1.321 . S
C301 H325 0.930 . S
H302 C297 0.931 . S
Co303 N300 2.135 . S
Co303 N306 2.121 . S
Co303 O311 2.055 . S
Co303 O314 2.039 . S
Co303 N317 2.140 . S
C304 O305 1.227 . S
C304 O314 1.265 . S
O305 C304 1.227 . S
N306 Co303 2.121 . S
N306 C308 1.375 . S
N306 C309 1.313 . S
C307 C308 1.338 . S
C307 N310 1.377 . S
C307 H327 0.930 . S
C308 N306 1.375 . S
C308 C307 1.338 . S
C308 H312 0.931 . S
C309 N306 1.313 . S
C309 N310 1.344 . S
C309 H313 0.930 . S
N310 C307 1.377 . S
N310 C309 1.344 . S
O311 Co303 2.055 . S
O311 C315 1.253 . S
H312 C308 0.931 . S
H313 C309 0.930 . S
O314 Co303 2.039 . S
O314 C304 1.265 . S
C315 O311 1.253 . S
C315 O316 1.227 . S
O316 C315 1.227 . S
N317 Co303 2.140 . S
N317 C320 1.346 . S
N317 C321 1.345 . S
C318 C319 1.387 . S
C318 C322 1.391 . S
C319 C318 1.387 . S
C319 C320 1.369 . S
C319 H328 0.929 . S
C320 N317 1.346 . S
C320 C319 1.369 . S
C320 H323 0.928 . S
C321 N317 1.345 . S
C321 C322 1.371 . S
C321 H324 0.931 . S
C322 C318 1.391 . S
C322 C321 1.371 . S
C322 H329 0.930 . S
H323 C320 0.928 . S
H324 C321 0.931 . S
H325 C301 0.930 . S
H326 C298 0.930 . S
H327 C307 0.930 . S
H328 C319 0.929 . S
H329 C322 0.930 . S
C330 C331 1.351 . S
C330 N333 1.368 . S
C330 H335 0.931 . S
C331 C330 1.351 . S
C331 N332 1.373 . S
C331 H359 0.930 . S
N332 C331 1.373 . S
N332 C334 1.340 . S
N333 C330 1.368 . S
N333 C334 1.321 . S
N333 Co336 2.135 . S
C334 N332 1.340 . S
C334 N333 1.321 . S
C334 H358 0.930 . S
H335 C330 0.931 . S
Co336 N333 2.135 . S
Co336 N339 2.121 . S
Co336 O344 2.055 . S
Co336 O347 2.039 . S
Co336 N350 2.140 . S
C337 O338 1.227 . S
C337 O347 1.265 . S
O338 C337 1.227 . S
N339 Co336 2.121 . S
N339 C341 1.375 . S
N339 C342 1.313 . S
C340 C341 1.338 . S
C340 N343 1.377 . S
C340 H360 0.930 . S
C341 N339 1.375 . S
C341 C340 1.338 . S
C341 H345 0.931 . S
C342 N339 1.313 . S
C342 N343 1.344 . S
C342 H346 0.930 . S
N343 C340 1.377 . S
N343 C342 1.344 . S
O344 Co336 2.055 . S
O344 C348 1.253 . S
H345 C341 0.931 . S
H346 C342 0.930 . S
O347 Co336 2.039 . S
O347 C337 1.265 . S
C348 O344 1.253 . S
C348 O349 1.227 . S
O349 C348 1.227 . S
N350 Co336 2.140 . S
N350 C353 1.346 . S
N350 C354 1.345 . S
C351 C352 1.387 . S
C351 C355 1.391 . S
C352 C351 1.387 . S
C352 C353 1.369 . S
C352 H361 0.929 . S
C353 N350 1.346 . S
C353 C352 1.369 . S
C353 H356 0.928 . S
C354 N350 1.345 . S
C354 C355 1.371 . S
C354 H357 0.931 . S
C355 C351 1.391 . S
C355 C354 1.371 . S
C355 H362 0.930 . S
H356 C353 0.928 . S
H357 C354 0.931 . S
H358 C334 0.930 . S
H359 C331 0.930 . S
H360 C340 0.930 . S
H361 C352 0.929 . S
H362 C355 0.930 . S
C363 C364 1.351 . S
C363 N366 1.368 . S
C363 H368 0.931 . S
C364 C363 1.351 . S
C364 N365 1.373 . S
C364 H392 0.930 . S
N365 C364 1.373 . S
N365 C367 1.340 . S
N366 C363 1.368 . S
N366 C367 1.321 . S
N366 Co369 2.135 . S
C367 N365 1.340 . S
C367 N366 1.321 . S
C367 H391 0.930 . S
H368 C363 0.931 . S
Co369 N366 2.135 . S
Co369 N372 2.121 . S
Co369 O377 2.055 . S
Co369 O380 2.039 . S
Co369 N383 2.140 . S
C370 O371 1.227 . S
C370 O380 1.265 . S
O371 C370 1.227 . S
N372 Co369 2.121 . S
N372 C374 1.375 . S
N372 C375 1.313 . S
C373 C374 1.338 . S
C373 N376 1.377 . S
C373 H393 0.930 . S
C374 N372 1.375 . S
C374 C373 1.338 . S
C374 H378 0.931 . S
C375 N372 1.313 . S
C375 N376 1.344 . S
C375 H379 0.930 . S
N376 C373 1.377 . S
N376 C375 1.344 . S
O377 Co369 2.055 . S
O377 C381 1.253 . S
H378 C374 0.931 . S
H379 C375 0.930 . S
O380 Co369 2.039 . S
O380 C370 1.265 . S
C381 O377 1.253 . S
C381 O382 1.227 . S
O382 C381 1.227 . S
N383 Co369 2.140 . S
N383 C386 1.346 . S
N383 C387 1.345 . S
C384 C385 1.387 . S
C384 C388 1.391 . S
C385 C384 1.387 . S
C385 C386 1.369 . S
C385 H394 0.929 . S
C386 N383 1.346 . S
C386 C385 1.369 . S
C386 H389 0.928 . S
C387 N383 1.345 . S
C387 C388 1.371 . S
C387 H390 0.931 . S
C388 C384 1.391 . S
C388 C387 1.371 . S
C388 H395 0.930 . S
H389 C386 0.928 . S
H390 C387 0.931 . S
H391 C367 0.930 . S
H392 C364 0.930 . S
H393 C373 0.930 . S
H394 C385 0.929 . S
H395 C388 0.930 . S
C396 C397 1.351 . S
C396 N399 1.368 . S
C396 H401 0.931 . S
C397 C396 1.351 . S
C397 N398 1.373 . S
C397 H425 0.930 . S
N398 C397 1.373 . S
N398 C400 1.340 . S
N399 C396 1.368 . S
N399 C400 1.321 . S
N399 Co402 2.135 . S
C400 N398 1.340 . S
C400 N399 1.321 . S
C400 H424 0.930 . S
H401 C396 0.931 . S
Co402 N399 2.135 . S
Co402 N405 2.121 . S
Co402 O410 2.055 . S
Co402 O413 2.039 . S
Co402 N416 2.140 . S
C403 O404 1.227 . S
C403 O413 1.265 . S
O404 C403 1.227 . S
N405 Co402 2.121 . S
N405 C407 1.375 . S
N405 C408 1.313 . S
C406 C407 1.338 . S
C406 N409 1.377 . S
C406 H426 0.930 . S
C407 N405 1.375 . S
C407 C406 1.338 . S
C407 H411 0.931 . S
C408 N405 1.313 . S
C408 N409 1.344 . S
C408 H412 0.930 . S
N409 C406 1.377 . S
N409 C408 1.344 . S
O410 Co402 2.055 . S
O410 C414 1.253 . S
H411 C407 0.931 . S
H412 C408 0.930 . S
O413 Co402 2.039 . S
O413 C403 1.265 . S
C414 O410 1.253 . S
C414 O415 1.227 . S
O415 C414 1.227 . S
N416 Co402 2.140 . S
N416 C419 1.346 . S
N416 C420 1.345 . S
C417 C418 1.387 . S
C417 C421 1.391 . S
C418 C417 1.387 . S
C418 C419 1.369 . S
C418 H427 0.929 . S
C419 N416 1.346 . S
C419 C418 1.369 . S
C419 H422 0.928 . S
C420 N416 1.345 . S
C420 C421 1.371 . S
C420 H423 0.931 . S
C421 C417 1.391 . S
C421 C420 1.371 . S
C421 H428 0.930 . S
H422 C419 0.928 . S
H423 C420 0.931 . S
H424 C400 0.930 . S
H425 C397 0.930 . S
H426 C406 0.930 . S
H427 C418 0.929 . S
H428 C421 0.930 . S
C429 C430 1.351 . S
C429 N432 1.368 1_455 S
C429 H434 0.931 . S
C430 C429 1.351 . S
C430 N431 1.373 1_455 S
C430 H458 0.930 . S
N431 C430 1.373 1_655 S
N431 C433 1.340 . S
N432 C429 1.368 1_655 S
N432 C433 1.321 . S
N432 Co435 2.135 . S
C433 N431 1.340 . S
C433 N432 1.321 . S
C433 H457 0.930 . S
H434 C429 0.931 . S
Co435 N432 2.135 . S
Co435 N438 2.121 . S
Co435 O443 2.055 . S
Co435 O446 2.039 . S
Co435 N449 2.140 1_655 S
C436 O437 1.227 . S
C436 O446 1.265 . S
O437 C436 1.227 . S
N438 Co435 2.121 . S
N438 C440 1.375 . S
N438 C441 1.313 . S
C439 C440 1.338 . S
C439 N442 1.377 . S
C439 H459 0.930 . S
C440 N438 1.375 . S
C440 C439 1.338 . S
C440 H444 0.931 . S
C441 N438 1.313 . S
C441 N442 1.344 . S
C441 H445 0.930 . S
N442 C439 1.377 . S
N442 C441 1.344 . S
O443 Co435 2.055 . S
O443 C447 1.253 1_655 S
H444 C440 0.931 . S
H445 C441 0.930 . S
O446 Co435 2.039 . S
O446 C436 1.265 . S
C447 O443 1.253 1_455 S
C447 O448 1.227 . S
O448 C447 1.227 . S
N449 Co435 2.140 1_455 S
N449 C452 1.346 . S
N449 C453 1.345 . S
C450 C451 1.387 . S
C450 C454 1.391 . S
C451 C450 1.387 . S
C451 C452 1.369 . S
C451 H460 0.929 . S
C452 N449 1.346 . S
C452 C451 1.369 . S
C452 H455 0.928 . S
C453 N449 1.345 . S
C453 C454 1.371 . S
C453 H456 0.931 . S
C454 C450 1.391 . S
C454 C453 1.371 . S
C454 H461 0.930 . S
H455 C452 0.928 . S
H456 C453 0.931 . S
H457 C433 0.930 . S
H458 C430 0.930 . S
H459 C439 0.930 . S
H460 C451 0.929 . S
H461 C454 0.930 . S
C462 C463 1.351 . S
C462 N465 1.368 . S
C462 H467 0.931 . S
C463 C462 1.351 . S
C463 N464 1.373 . S
C463 H491 0.930 . S
N464 C463 1.373 . S
N464 C466 1.340 . S
N465 C462 1.368 . S
N465 C466 1.321 . S
N465 Co468 2.135 . S
C466 N464 1.340 . S
C466 N465 1.321 . S
C466 H490 0.930 . S
H467 C462 0.931 . S
Co468 N465 2.135 . S
Co468 N471 2.121 . S
Co468 O476 2.055 . S
Co468 O479 2.039 . S
Co468 N482 2.140 . S
C469 O470 1.227 . S
C469 O479 1.265 . S
O470 C469 1.227 . S
N471 Co468 2.121 . S
N471 C473 1.375 . S
N471 C474 1.313 . S
C472 C473 1.338 . S
C472 N475 1.377 . S
C472 H492 0.930 . S
C473 N471 1.375 . S
C473 C472 1.338 . S
C473 H477 0.931 . S
C474 N471 1.313 . S
C474 N475 1.344 . S
C474 H478 0.930 . S
N475 C472 1.377 . S
N475 C474 1.344 . S
O476 Co468 2.055 . S
O476 C480 1.253 . S
H477 C473 0.931 . S
H478 C474 0.930 . S
O479 Co468 2.039 . S
O479 C469 1.265 . S
C480 O476 1.253 . S
C480 O481 1.227 . S
O481 C480 1.227 . S
N482 Co468 2.140 . S
N482 C485 1.346 . S
N482 C486 1.345 . S
C483 C484 1.387 . S
C483 C487 1.391 . S
C484 C483 1.387 . S
C484 C485 1.369 . S
C484 H493 0.929 . S
C485 N482 1.346 . S
C485 C484 1.369 . S
C485 H488 0.928 . S
C486 N482 1.345 . S
C486 C487 1.371 . S
C486 H489 0.931 . S
C487 C483 1.391 . S
C487 C486 1.371 . S
C487 H494 0.930 . S
H488 C485 0.928 . S
H489 C486 0.931 . S
H490 C466 0.930 . S
H491 C463 0.930 . S
H492 C472 0.930 . S
H493 C484 0.929 . S
H494 C487 0.930 . S
C495 C496 1.351 . S
C495 N498 1.368 1_455 S
C495 H500 0.931 . S
C496 C495 1.351 . S
C496 N497 1.373 1_455 S
C496 H524 0.930 . S
N497 C496 1.373 1_655 S
N497 C499 1.340 . S
N498 C495 1.368 1_655 S
N498 C499 1.321 . S
N498 Co501 2.135 . S
C499 N497 1.340 . S
C499 N498 1.321 . S
C499 H523 0.930 . S
H500 C495 0.931 . S
Co501 N498 2.135 . S
Co501 N504 2.121 . S
Co501 O509 2.055 . S
Co501 O512 2.039 . S
Co501 N515 2.140 1_655 S
C502 O503 1.227 . S
C502 O512 1.265 . S
O503 C502 1.227 . S
N504 Co501 2.121 . S
N504 C506 1.375 . S
N504 C507 1.313 . S
C505 C506 1.338 . S
C505 N508 1.377 . S
C505 H525 0.930 . S
C506 N504 1.375 . S
C506 C505 1.338 . S
C506 H510 0.931 . S
C507 N504 1.313 . S
C507 N508 1.344 . S
C507 H511 0.930 . S
N508 C505 1.377 . S
N508 C507 1.344 . S
O509 Co501 2.055 . S
O509 C513 1.253 1_655 S
H510 C506 0.931 . S
H511 C507 0.930 . S
O512 Co501 2.039 . S
O512 C502 1.265 . S
C513 O509 1.253 1_455 S
C513 O514 1.227 . S
O514 C513 1.227 . S
N515 Co501 2.140 1_455 S
N515 C518 1.346 . S
N515 C519 1.345 . S
C516 C517 1.387 . S
C516 C520 1.391 . S
C517 C516 1.387 . S
C517 C518 1.369 . S
C517 H526 0.929 . S
C518 N515 1.346 . S
C518 C517 1.369 . S
C518 H521 0.928 . S
C519 N515 1.345 . S
C519 C520 1.371 . S
C519 H522 0.931 . S
C520 C516 1.391 . S
C520 C519 1.371 . S
C520 H527 0.930 . S
H521 C518 0.928 . S
H522 C519 0.931 . S
H523 C499 0.930 . S
H524 C496 0.930 . S
H525 C505 0.930 . S
H526 C517 0.929 . S
H527 C520 0.930 . S
H528 C534 0.933 . S
H529 C538 0.930 . S
H530 C543 0.929 . S
H531 C541 0.929 . S
H532 C536 0.923 1_655 S
H533 C542 0.929 . S
C534 H528 0.933 . S
C534 C535 1.363 1_455 S
C534 C542 1.380 . S
C535 C534 1.363 1_655 S
C535 C543 1.433 . S
C536 H532 0.923 1_455 S
C536 C538 1.381 . S
C536 C540 1.353 . S
C537 C540 1.465 . S
C537 C542 1.353 . S
C537 N545 1.422 1_455 S
C538 H529 0.930 . S
C538 C536 1.381 . S
C538 C539 1.367 . S
C539 C538 1.367 . S
C539 C541 1.433 . S
C540 C536 1.353 . S
C540 C537 1.465 . S
C540 N544 1.427 . S
C541 H531 0.929 . S
C541 C539 1.433 . S
C541 N544 1.384 . S
C542 H533 0.929 . S
C542 C534 1.380 . S
C542 C537 1.353 . S
C543 H530 0.929 . S
C543 C535 1.433 . S
C543 N545 1.384 . S
N544 C540 1.427 . S
N544 C541 1.384 . S
N545 C537 1.422 1_655 S
N545 C543 1.384 . S
H546 C552 0.930 . S
H547 C556 0.930 . S
H548 C561 0.929 . S
H549 C559 0.929 . S
H550 C554 0.929 . S
H551 C560 0.929 . S
C552 H546 0.930 . S
C552 C553 1.367 . S
C552 C560 1.378 . S
C553 C552 1.367 . S
C553 C561 1.433 . S
C554 H550 0.929 . S
C554 C556 1.378 . S
C554 C558 1.350 . S
C555 C558 1.463 1_455 S
C555 C560 1.350 . S
C555 N563 1.427 . S
C556 H547 0.930 . S
C556 C554 1.378 . S
C556 C557 1.367 . S
C557 C556 1.367 . S
C557 C559 1.433 . S
C558 C554 1.350 . S
C558 C555 1.463 1_655 S
C558 N562 1.427 . S
C559 H549 0.929 . S
C559 C557 1.433 . S
C559 N562 1.384 . S
C560 H551 0.929 . S
C560 C552 1.378 . S
C560 C555 1.350 . S
C561 H548 0.929 . S
C561 C553 1.433 . S
C561 N563 1.384 . S
N562 C558 1.427 . S
N562 C559 1.384 . S
N563 C555 1.427 . S
N563 C561 1.384 . S
H564 C570 0.930 . S
H565 C574 0.930 . S
H566 C579 0.929 . S
H567 C577 0.929 . S
H568 C572 0.929 . S
H569 C578 0.929 . S
C570 H564 0.930 . S
C570 C571 1.367 . S
C570 C578 1.378 . S
C571 C570 1.367 . S
C571 C579 1.433 . S
C572 H568 0.929 . S
C572 C574 1.378 . S
C572 C576 1.350 . S
C573 C576 1.463 . S
C573 C578 1.350 . S
C573 N581 1.427 . S
C574 H565 0.930 . S
C574 C572 1.378 . S
C574 C575 1.367 . S
C575 C574 1.367 . S
C575 C577 1.433 . S
C576 C572 1.350 . S
C576 C573 1.463 . S
C576 N580 1.427 . S
C577 H567 0.929 . S
C577 C575 1.433 . S
C577 N580 1.384 . S
C578 H569 0.929 . S
C578 C570 1.378 . S
C578 C573 1.350 . S
C579 H566 0.929 . S
C579 C571 1.433 . S
C579 N581 1.384 . S
N580 C576 1.427 . S
N580 C577 1.384 . S
N581 C573 1.427 . S
N581 C579 1.384 . S
H582 C588 0.930 . S
H583 C592 0.930 . S
H584 C597 0.929 . S
H585 C595 0.929 . S
H586 C590 0.929 . S
H587 C596 0.929 . S
C588 H582 0.930 . S
C588 C589 1.367 . S
C588 C596 1.378 . S
C589 C588 1.367 . S
C589 C597 1.433 . S
C590 H586 0.929 . S
C590 C592 1.378 . S
C590 C594 1.350 . S
C591 C594 1.463 . S
C591 C596 1.350 . S
C591 N599 1.427 . S
C592 H583 0.930 . S
C592 C590 1.378 . S
C592 C593 1.367 . S
C593 C592 1.367 . S
C593 C595 1.433 . S
C594 C590 1.350 . S
C594 C591 1.463 . S
C594 N598 1.427 . S
C595 H585 0.929 . S
C595 C593 1.433 . S
C595 N598 1.384 . S
C596 H587 0.929 . S
C596 C588 1.378 . S
C596 C591 1.350 . S
C597 H584 0.929 . S
C597 C589 1.433 . S
C597 N599 1.384 . S
N598 C594 1.427 . S
N598 C595 1.384 . S
N599 C591 1.427 . S
N599 C597 1.384 . S
H600 C606 0.930 . S
H601 C610 0.930 . S
H602 C615 0.929 . S
H603 C613 0.929 . S
H604 C608 0.929 . S
H605 C614 0.929 . S
C606 H600 0.930 . S
C606 C607 1.367 . S
C606 C614 1.378 . S
C607 C606 1.367 . S
C607 C615 1.433 1_655 S
C608 H604 0.929 . S
C608 C610 1.378 . S
C608 C612 1.350 . S
C609 C612 1.462 . S
C609 C614 1.351 1_455 S
C609 N617 1.426 . S
C610 H601 0.930 . S
C610 C608 1.378 . S
C610 C611 1.367 . S
C611 C610 1.367 . S
C611 C613 1.433 1_455 S
C612 C608 1.350 . S
C612 C609 1.462 . S
C612 N616 1.427 1_455 S
C613 H603 0.929 . S
C613 C611 1.433 1_655 S
C613 N616 1.384 . S
C614 H605 0.929 . S
C614 C606 1.378 . S
C614 C609 1.351 1_655 S
C615 H602 0.929 . S
C615 C607 1.433 1_455 S
C615 N617 1.384 . S
N616 C612 1.427 1_655 S
N616 C613 1.384 . S
N617 C609 1.426 . S
N617 C615 1.384 . S
H618 C624 0.930 . S
H619 C628 0.930 . S
H620 C633 0.929 . S
H621 C631 0.929 . S
H622 C626 0.929 . S
H623 C632 0.929 . S
C624 H618 0.930 . S
C624 C625 1.367 . S
C624 C632 1.378 . S
C625 C624 1.367 . S
C625 C633 1.433 . S
C626 H622 0.929 . S
C626 C628 1.378 . S
C626 C630 1.350 . S
C627 C630 1.463 . S
C627 C632 1.350 . S
C627 N635 1.427 . S
C628 H619 0.930 . S
C628 C626 1.378 . S
C628 C629 1.367 . S
C629 C628 1.367 . S
C629 C631 1.433 . S
C630 C626 1.350 . S
C630 C627 1.463 . S
C630 N634 1.427 . S
C631 H621 0.929 . S
C631 C629 1.433 . S
C631 N634 1.384 . S
C632 H623 0.929 . S
C632 C624 1.378 . S
C632 C627 1.350 . S
C633 H620 0.929 . S
C633 C625 1.433 . S
C633 N635 1.384 . S
N634 C630 1.427 . S
N634 C631 1.384 . S
N635 C627 1.427 . S
N635 C633 1.384 . S
H636 C642 0.930 . S
H637 C646 0.930 . S
H638 C651 0.929 . S
H639 C649 0.929 . S
H640 C644 0.929 . S
H641 C650 0.929 . S
C642 H636 0.930 . S
C642 C643 1.367 . S
C642 C650 1.378 . S
C643 C642 1.367 . S
C643 C651 1.433 . S
C644 H640 0.929 . S
C644 C646 1.378 . S
C644 C648 1.350 . S
C645 C648 1.463 . S
C645 C650 1.350 . S
C645 N653 1.427 . S
C646 H637 0.930 . S
C646 C644 1.378 . S
C646 C647 1.367 . S
C647 C646 1.367 . S
C647 C649 1.433 . S
C648 C644 1.350 . S
C648 C645 1.463 . S
C648 N652 1.427 . S
C649 H639 0.929 . S
C649 C647 1.433 . S
C649 N652 1.384 . S
C650 H641 0.929 . S
C650 C642 1.378 . S
C650 C645 1.350 . S
C651 H638 0.929 . S
C651 C643 1.433 . S
C651 N653 1.384 . S
N652 C648 1.427 . S
N652 C649 1.384 . S
N653 C645 1.427 . S
N653 C651 1.384 . S
H654 C660 0.930 . S
H655 C664 0.930 . S
H656 C669 0.929 . S
H657 C667 0.929 . S
H658 C662 0.929 . S
H659 C668 0.929 . S
C660 H654 0.930 . S
C660 C661 1.367 . S
C660 C668 1.378 . S
C661 C660 1.367 . S
C661 C669 1.433 . S
C662 H658 0.929 . S
C662 C664 1.378 . S
C662 C666 1.350 . S
C663 C666 1.463 1_655 S
C663 C668 1.350 . S
C663 N671 1.427 . S
C664 H655 0.930 . S
C664 C662 1.378 . S
C664 C665 1.367 . S
C665 C664 1.367 . S
C665 C667 1.433 . S
C666 C662 1.350 . S
C666 C663 1.463 1_455 S
C666 N670 1.427 . S
C667 H657 0.929 . S
C667 C665 1.433 . S
C667 N670 1.384 . S
C668 H659 0.929 . S
C668 C660 1.378 . S
C668 C663 1.350 . S
C669 H656 0.929 . S
C669 C661 1.433 . S
C669 N671 1.384 . S
N670 C666 1.427 . S
N670 C667 1.384 . S
N671 C663 1.427 . S
N671 C669 1.384 . S
H672 C678 0.930 . S
H673 C682 0.930 . S
H674 C687 0.929 . S
H675 C685 0.929 . S
H676 C680 0.929 . S
H677 C686 0.929 . S
C678 H672 0.930 . S
C678 C679 1.367 . S
C678 C686 1.378 . S
C679 C678 1.367 . S
C679 C687 1.433 1_455 S
C680 H676 0.929 . S
C680 C682 1.378 . S
C680 C684 1.350 1_655 S
C681 C684 1.463 1_554 S
C681 C686 1.350 . S
C681 N689 1.427 1_455 S
C682 H673 0.930 . S
C682 C680 1.378 . S
C682 C683 1.367 1_655 S
C683 C682 1.367 1_455 S
C683 C685 1.433 . S
C684 C680 1.350 1_455 S
C684 C681 1.463 1_556 S
C684 N688 1.427 . S
C685 H675 0.929 . S
C685 C683 1.433 . S
C685 N688 1.384 . S
C686 H677 0.929 . S
C686 C678 1.378 . S
C686 C681 1.350 . S
C687 H674 0.929 . S
C687 C679 1.433 1_655 S
C687 N689 1.384 . S
N688 C684 1.427 . S
N688 C685 1.384 . S
N689 C681 1.427 1_655 S
N689 C687 1.384 . S
H690 C696 0.930 . S
H691 C700 0.930 . S
H692 C705 0.929 . S
H693 C703 0.929 . S
H694 C698 0.929 . S
H695 C704 0.929 . S
C696 H690 0.930 . S
C696 C697 1.367 . S
C696 C704 1.378 . S
C697 C696 1.367 . S
C697 C705 1.433 . S
C698 H694 0.929 . S
C698 C700 1.378 . S
C698 C702 1.350 . S
C699 C702 1.463 . S
C699 C704 1.350 . S
C699 N707 1.427 . S
C700 H691 0.930 . S
C700 C698 1.378 . S
C700 C701 1.367 . S
C701 C700 1.367 . S
C701 C703 1.433 . S
C702 C698 1.350 . S
C702 C699 1.463 . S
C702 N706 1.427 . S
C703 H693 0.929 . S
C703 C701 1.433 . S
C703 N706 1.384 . S
C704 H695 0.929 . S
C704 C696 1.378 . S
C704 C699 1.350 . S
C705 H692 0.929 . S
C705 C697 1.433 . S
C705 N707 1.384 . S
N706 C702 1.427 . S
N706 C703 1.384 . S
N707 C699 1.427 . S
N707 C705 1.384 . S
H708 C714 0.930 . S
H709 C718 0.930 . S
H710 C723 0.929 . S
H711 C721 0.929 . S
H712 C716 0.929 . S
H713 C722 0.929 . S
C714 H708 0.930 . S
C714 C715 1.367 . S
C714 C722 1.378 . S
C715 C714 1.367 . S
C715 C723 1.433 . S
C716 H712 0.929 . S
C716 C718 1.378 . S
C716 C720 1.350 . S
C717 C720 1.463 . S
C717 C722 1.350 . S
C717 N725 1.427 . S
C718 H709 0.930 . S
C718 C716 1.378 . S
C718 C719 1.367 . S
C719 C718 1.367 . S
C719 C721 1.433 . S
C720 C716 1.350 . S
C720 C717 1.463 . S
C720 N724 1.427 . S
C721 H711 0.929 . S
C721 C719 1.433 . S
C721 N724 1.384 . S
C722 H713 0.929 . S
C722 C714 1.378 . S
C722 C717 1.350 . S
C723 H710 0.929 . S
C723 C715 1.433 . S
C723 N725 1.384 . S
N724 C720 1.427 . S
N724 C721 1.384 . S
N725 C717 1.427 . S
N725 C723 1.384 . S
H726 C732 0.930 . S
H727 C736 0.930 . S
H728 C741 0.929 . S
H729 C739 0.929 . S
H730 C734 0.929 . S
H731 C740 0.929 . S
C732 H726 0.930 . S
C732 C733 1.367 . S
C732 C740 1.378 . S
C733 C732 1.367 . S
C733 C741 1.433 . S
C734 H730 0.929 . S
C734 C736 1.378 . S
C734 C738 1.350 . S
C735 C738 1.463 . S
C735 C740 1.350 . S
C735 N743 1.427 . S
C736 H727 0.930 . S
C736 C734 1.378 . S
C736 C737 1.367 . S
C737 C736 1.367 . S
C737 C739 1.433 . S
C738 C734 1.350 . S
C738 C735 1.463 . S
C738 N742 1.427 . S
C739 H729 0.929 . S
C739 C737 1.433 . S
C739 N742 1.384 . S
C740 H731 0.929 . S
C740 C732 1.378 . S
C740 C735 1.350 . S
C741 H728 0.929 . S
C741 C733 1.433 . S
C741 N743 1.384 . S
N742 C738 1.427 . S
N742 C739 1.384 . S
N743 C735 1.427 . S
N743 C741 1.384 . S
H744 C750 0.930 . S
H745 C754 0.930 . S
H746 C759 0.929 . S
H747 C757 0.929 . S
H748 C752 0.929 . S
H749 C758 0.929 . S
C750 H744 0.930 . S
C750 C751 1.367 . S
C750 C758 1.378 . S
C751 C750 1.367 . S
C751 C759 1.433 . S
C752 H748 0.929 . S
C752 C754 1.378 . S
C752 C756 1.350 . S
C753 C756 1.463 . S
C753 C758 1.350 . S
C753 N761 1.427 . S
C754 H745 0.930 . S
C754 C752 1.378 . S
C754 C755 1.367 . S
C755 C754 1.367 . S
C755 C757 1.433 . S
C756 C752 1.350 . S
C756 C753 1.463 . S
C756 N760 1.427 . S
C757 H747 0.929 . S
C757 C755 1.433 . S
C757 N760 1.384 . S
C758 H749 0.929 . S
C758 C750 1.378 . S
C758 C753 1.350 . S
C759 H746 0.929 . S
C759 C751 1.433 . S
C759 N761 1.384 . S
N760 C756 1.427 . S
N760 C757 1.384 . S
N761 C753 1.427 . S
N761 C759 1.384 . S
H762 C768 0.930 . S
H763 C772 0.930 . S
H764 C777 0.929 . S
H765 C775 0.929 . S
H766 C770 0.929 . S
H767 C776 0.929 . S
C768 H762 0.930 . S
C768 C769 1.367 . S
C768 C776 1.378 . S
C769 C768 1.367 . S
C769 C777 1.433 . S
C770 H766 0.929 . S
C770 C772 1.378 . S
C770 C774 1.350 . S
C771 C774 1.463 . S
C771 C776 1.350 . S
C771 N779 1.427 . S
C772 H763 0.930 . S
C772 C770 1.378 . S
C772 C773 1.367 . S
C773 C772 1.367 . S
C773 C775 1.433 . S
C774 C770 1.350 . S
C774 C771 1.463 . S
C774 N778 1.427 . S
C775 H765 0.929 . S
C775 C773 1.433 . S
C775 N778 1.384 . S
C776 H767 0.929 . S
C776 C768 1.378 . S
C776 C771 1.350 . S
C777 H764 0.929 . S
C777 C769 1.433 . S
C777 N779 1.384 . S
N778 C774 1.427 . S
N778 C775 1.384 . S
N779 C771 1.427 . S
N779 C777 1.384 . S
H780 C786 0.930 . S
H781 C790 0.930 . S
H782 C795 0.929 . S
H783 C793 0.929 . S
H784 C788 0.929 . S
H785 C794 0.929 . S
C786 H780 0.930 . S
C786 C787 1.367 . S
C786 C794 1.378 . S
C787 C786 1.367 . S
C787 C795 1.433 . S
C788 H784 0.929 . S
C788 C790 1.378 . S
C788 C792 1.350 . S
C789 C792 1.463 . S
C789 C794 1.350 . S
C789 N797 1.427 . S
C790 H781 0.930 . S
C790 C788 1.378 . S
C790 C791 1.367 . S
C791 C790 1.367 . S
C791 C793 1.433 . S
C792 C788 1.350 . S
C792 C789 1.463 . S
C792 N796 1.427 . S
C793 H783 0.929 . S
C793 C791 1.433 . S
C793 N796 1.384 . S
C794 H785 0.929 . S
C794 C786 1.378 . S
C794 C789 1.350 . S
C795 H782 0.929 . S
C795 C787 1.433 . S
C795 N797 1.384 . S
N796 C792 1.427 . S
N796 C793 1.384 . S
N797 C789 1.427 . S
N797 C795 1.384 . S
H798 C804 0.930 . S
H799 C808 0.930 . S
H800 C813 0.929 . S
H801 C811 0.929 . S
H802 C806 0.929 . S
H803 C812 0.929 . S
C804 H798 0.930 . S
C804 C805 1.367 1_655 S
C804 C812 1.378 . S
C805 C804 1.367 1_455 S
C805 C813 1.433 . S
C806 H802 0.929 . S
C806 C808 1.378 . S
C806 C810 1.350 . S
C807 C810 1.463 1_556 S
C807 C812 1.350 1_455 S
C807 N815 1.427 . S
C808 H799 0.930 . S
C808 C806 1.378 . S
C808 C809 1.367 . S
C809 C808 1.367 . S
C809 C811 1.433 1_455 S
C810 C806 1.350 . S
C810 C807 1.463 1_554 S
C810 N814 1.427 1_455 S
C811 H801 0.929 . S
C811 C809 1.433 1_655 S
C811 N814 1.384 . S
C812 H803 0.929 . S
C812 C804 1.378 . S
C812 C807 1.350 1_655 S
C813 H800 0.929 . S
C813 C805 1.433 . S
C813 N815 1.384 . S
N814 C810 1.427 1_655 S
N814 C811 1.384 . S
N815 C807 1.427 . S
N815 C813 1.384 . S
H816 C822 0.930 . S
H817 C826 0.930 . S
H818 C831 0.929 . S
H819 C829 0.929 . S
H820 C824 0.929 . S
H821 C830 0.929 . S
C822 H816 0.930 . S
C822 C823 1.367 . S
C822 C830 1.378 . S
C823 C822 1.367 . S
C823 C831 1.433 . S
C824 H820 0.929 . S
C824 C826 1.378 . S
C824 C828 1.350 1_545 S
C825 C828 1.463 . S
C825 C830 1.350 . S
C825 N833 1.427 . S
C826 H817 0.930 . S
C826 C824 1.378 . S
C826 C827 1.367 . S
C827 C826 1.367 . S
C827 C829 1.433 1_545 S
C828 C824 1.350 1_565 S
C828 C825 1.463 . S
C828 N832 1.427 . S
C829 H819 0.929 . S
C829 C827 1.433 1_565 S
C829 N832 1.384 . S
C830 H821 0.929 . S
C830 C822 1.378 . S
C830 C825 1.350 . S
C831 H818 0.929 . S
C831 C823 1.433 . S
C831 N833 1.384 . S
N832 C828 1.427 . S
N832 C829 1.384 . S
N833 C825 1.427 . S
N833 C831 1.384 . S
H834 C840 0.930 . S
H835 C844 0.930 . S
H836 C849 0.929 . S
H837 C847 0.929 . S
H838 C842 0.929 . S
H839 C848 0.929 . S
C840 H834 0.930 . S
C840 C841 1.367 . S
C840 C848 1.378 . S
C841 C840 1.367 . S
C841 C849 1.433 . S
C842 H838 0.929 . S
C842 C844 1.378 . S
C842 C846 1.350 1_545 S
C843 C846 1.463 . S
C843 C848 1.350 . S
C843 N851 1.427 . S
C844 H835 0.930 . S
C844 C842 1.378 . S
C844 C845 1.367 . S
C845 C844 1.367 . S
C845 C847 1.433 1_545 S
C846 C842 1.350 1_565 S
C846 C843 1.463 . S
C846 N850 1.427 . S
C847 H837 0.929 . S
C847 C845 1.433 1_565 S
C847 N850 1.384 . S
C848 H839 0.929 . S
C848 C840 1.378 . S
C848 C843 1.350 . S
C849 H836 0.929 . S
C849 C841 1.433 . S
C849 N851 1.384 . S
N850 C846 1.427 . S
N850 C847 1.384 . S
N851 C843 1.427 . S
N851 C849 1.384 . S
H852 C858 0.930 . S
H853 C862 0.930 . S
H854 C867 0.929 . S
H855 C865 0.929 . S
H856 C860 0.929 . S
H857 C866 0.929 . S
C858 H852 0.930 . S
C858 C859 1.367 . S
C858 C866 1.378 . S
C859 C858 1.367 . S
C859 C867 1.433 . S
C860 H856 0.929 . S
C860 C862 1.378 . S
C860 C864 1.350 . S
C861 C864 1.463 . S
C861 C866 1.350 . S
C861 N869 1.427 . S
C862 H853 0.930 . S
C862 C860 1.378 . S
C862 C863 1.367 . S
C863 C862 1.367 . S
C863 C865 1.433 . S
C864 C860 1.350 . S
C864 C861 1.463 . S
C864 N868 1.427 . S
C865 H855 0.929 . S
C865 C863 1.433 . S
C865 N868 1.384 . S
C866 H857 0.929 . S
C866 C858 1.378 . S
C866 C861 1.350 . S
C867 H854 0.929 . S
C867 C859 1.433 . S
C867 N869 1.384 . S
N868 C864 1.427 . S
N868 C865 1.384 . S
N869 C861 1.427 . S
N869 C867 1.384 . S
H870 C876 0.930 . S
H871 C880 0.930 . S
H872 C885 0.929 . S
H873 C883 0.929 . S
H874 C878 0.929 . S
H875 C884 0.929 . S
C876 H870 0.930 . S
C876 C877 1.367 . S
C876 C884 1.378 . S
C877 C876 1.367 . S
C877 C885 1.433 . S
C878 H874 0.929 . S
C878 C880 1.378 . S
C878 C882 1.350 . S
C879 C882 1.463 . S
C879 C884 1.350 . S
C879 N887 1.427 . S
C880 H871 0.930 . S
C880 C878 1.378 . S
C880 C881 1.367 . S
C881 C880 1.367 . S
C881 C883 1.433 . S
C882 C878 1.350 . S
C882 C879 1.463 . S
C882 N886 1.427 . S
C883 H873 0.929 . S
C883 C881 1.433 . S
C883 N886 1.384 . S
C884 H875 0.929 . S
C884 C876 1.378 . S
C884 C879 1.350 . S
C885 H872 0.929 . S
C885 C877 1.433 . S
C885 N887 1.384 . S
N886 C882 1.427 . S
N886 C883 1.384 . S
N887 C879 1.427 . S
N887 C885 1.384 . S
H888 C894 0.930 . S
H889 C898 0.930 . S
H890 C903 0.929 . S
H891 C901 0.929 . S
H892 C896 0.929 . S
H893 C902 0.929 . S
C894 H888 0.930 . S
C894 C895 1.367 . S
C894 C902 1.378 . S
C895 C894 1.367 . S
C895 C903 1.433 . S
C896 H892 0.929 . S
C896 C898 1.378 . S
C896 C900 1.350 . S
C897 C900 1.463 . S
C897 C902 1.350 . S
C897 N905 1.427 . S
C898 H889 0.930 . S
C898 C896 1.378 . S
C898 C899 1.367 . S
C899 C898 1.367 . S
C899 C901 1.433 . S
C900 C896 1.350 . S
C900 C897 1.463 . S
C900 N904 1.427 . S
C901 H891 0.929 . S
C901 C899 1.433 . S
C901 N904 1.384 . S
C902 H893 0.929 . S
C902 C894 1.378 . S
C902 C897 1.350 . S
C903 H890 0.929 . S
C903 C895 1.433 . S
C903 N905 1.384 . S
N904 C900 1.427 . S
N904 C901 1.384 . S
N905 C897 1.427 . S
N905 C903 1.384 . S
H906 C912 0.930 . S
H907 C916 0.930 . S
H908 C921 0.929 . S
H909 C919 0.929 . S
H910 C914 0.929 . S
H911 C920 0.929 . S
C912 H906 0.930 . S
C912 C913 1.367 . S
C912 C920 1.378 . S
C913 C912 1.367 . S
C913 C921 1.433 . S
C914 H910 0.929 . S
C914 C916 1.378 . S
C914 C918 1.350 . S
C915 C918 1.463 . S
C915 C920 1.350 . S
C915 N923 1.427 . S
C916 H907 0.930 . S
C916 C914 1.378 . S
C916 C917 1.367 . S
C917 C916 1.367 . S
C917 C919 1.433 . S
C918 C914 1.350 . S
C918 C915 1.463 . S
C918 N922 1.427 . S
C919 H909 0.929 . S
C919 C917 1.433 . S
C919 N922 1.384 . S
C920 H911 0.929 . S
C920 C912 1.378 . S
C920 C915 1.350 . S
C921 H908 0.929 . S
C921 C913 1.433 . S
C921 N923 1.384 . S
N922 C918 1.427 . S
N922 C919 1.384 . S
N923 C915 1.427 . S
N923 C921 1.384 . S
H924 C930 0.930 . S
H925 C934 0.930 1_565 S
H926 C939 0.929 . S
H927 C937 0.929 . S
H928 C932 0.929 . S
H929 C938 0.929 1_545 S
C930 H924 0.930 . S
C930 C931 1.367 . S
C930 C938 1.378 . S
C931 C930 1.367 . S
C931 C939 1.433 . S
C932 H928 0.929 . S
C932 C934 1.378 1_565 S
C932 C936 1.350 . S
C933 C936 1.463 . S
C933 C938 1.350 . S
C933 N941 1.427 . S
C934 H925 0.930 1_545 S
C934 C932 1.378 1_545 S
C934 C935 1.367 . S
C935 C934 1.367 . S
C935 C937 1.433 . S
C936 C932 1.350 . S
C936 C933 1.463 . S
C936 N940 1.427 1_565 S
C937 H927 0.929 . S
C937 C935 1.433 . S
C937 N940 1.384 . S
C938 H929 0.929 1_565 S
C938 C930 1.378 . S
C938 C933 1.350 . S
C939 H926 0.929 . S
C939 C931 1.433 . S
C939 N941 1.384 . S
N940 C936 1.427 1_545 S
N940 C937 1.384 . S
N941 C933 1.427 . S
N941 C939 1.384 . S
H942 C948 0.930 . S
H943 C952 0.930 . S
H944 C957 0.929 . S
H945 C955 0.929 . S
H946 C950 0.929 . S
H947 C956 0.929 . S
C948 H942 0.930 . S
C948 C949 1.367 . S
C948 C956 1.378 . S
C949 C948 1.367 . S
C949 C957 1.433 . S
C950 H946 0.929 . S
C950 C952 1.378 . S
C950 C954 1.350 1_545 S
C951 C954 1.463 . S
C951 C956 1.350 . S
C951 N959 1.427 . S
C952 H943 0.930 . S
C952 C950 1.378 . S
C952 C953 1.367 . S
C953 C952 1.367 . S
C953 C955 1.433 . S
C954 C950 1.350 1_565 S
C954 C951 1.463 . S
C954 N958 1.427 . S
C955 H945 0.929 . S
C955 C953 1.433 . S
C955 N958 1.384 1_545 S
C956 H947 0.929 . S
C956 C948 1.378 . S
C956 C951 1.350 . S
C957 H944 0.929 . S
C957 C949 1.433 . S
C957 N959 1.384 . S
N958 C954 1.427 . S
N958 C955 1.384 1_565 S
N959 C951 1.427 . S
N959 C957 1.384 . S
H960 C966 0.930 . S
H961 C970 0.930 . S
H962 C975 0.929 . S
H963 C973 0.929 . S
H964 C968 0.929 . S
H965 C974 0.929 . S
C966 H960 0.930 . S
C966 C967 1.367 . S
C966 C974 1.378 . S
C967 C966 1.367 . S
C967 C975 1.433 . S
C968 H964 0.929 . S
C968 C970 1.378 . S
C968 C972 1.350 . S
C969 C972 1.463 . S
C969 C974 1.350 . S
C969 N977 1.427 . S
C970 H961 0.930 . S
C970 C968 1.378 . S
C970 C971 1.367 . S
C971 C970 1.367 . S
C971 C973 1.433 . S
C972 C968 1.350 . S
C972 C969 1.463 . S
C972 N976 1.427 . S
C973 H963 0.929 . S
C973 C971 1.433 . S
C973 N976 1.384 . S
C974 H965 0.929 . S
C974 C966 1.378 . S
C974 C969 1.350 . S
C975 H962 0.929 . S
C975 C967 1.433 . S
C975 N977 1.384 . S
N976 C972 1.427 . S
N976 C973 1.384 . S
N977 C969 1.427 . S
N977 C975 1.384 . S
H978 C984 0.930 . S
H979 C988 0.930 . S
H980 C993 0.929 . S
H981 C991 0.929 . S
H982 C986 0.929 . S
H983 C992 0.929 . S
C984 H978 0.930 . S
C984 C985 1.367 . S
C984 C992 1.378 . S
C985 C984 1.367 . S
C985 C993 1.433 . S
C986 H982 0.929 . S
C986 C988 1.378 . S
C986 C990 1.350 . S
C987 C990 1.463 . S
C987 C992 1.350 . S
C987 N995 1.427 . S
C988 H979 0.930 . S
C988 C986 1.378 . S
C988 C989 1.367 . S
C989 C988 1.367 . S
C989 C991 1.433 . S
C990 C986 1.350 . S
C990 C987 1.463 . S
C990 N994 1.427 . S
C991 H981 0.929 . S
C991 C989 1.433 . S
C991 N994 1.384 . S
C992 H983 0.929 . S
C992 C984 1.378 . S
C992 C987 1.350 . S
C993 H980 0.929 . S
C993 C985 1.433 . S
C993 N995 1.384 . S
N994 C990 1.427 . S
N994 C991 1.384 . S
N995 C987 1.427 . S
N995 C993 1.384 . S
H996 C1002 0.930 . S
H997 C1006 0.930 . S
H998 C1011 0.929 . S
H999 C1009 0.929 . S
H1000 C1004 0.929 . S
H1001 C1010 0.929 . S
C1002 H996 0.930 . S
C1002 C1003 1.367 . S
C1002 C1010 1.378 . S
C1003 C1002 1.367 . S
C1003 C1011 1.433 . S
C1004 H1000 0.929 . S
C1004 C1006 1.378 . S
C1004 C1008 1.350 . S
C1005 C1008 1.463 . S
C1005 C1010 1.350 . S
C1005 N1013 1.427 . S
C1006 H997 0.930 . S
C1006 C1004 1.378 . S
C1006 C1007 1.367 . S
C1007 C1006 1.367 . S
C1007 C1009 1.433 . S
C1008 C1004 1.350 . S
C1008 C1005 1.463 . S
C1008 N1012 1.427 . S
C1009 H999 0.929 . S
C1009 C1007 1.433 . S
C1009 N1012 1.384 . S
C1010 H1001 0.929 . S
C1010 C1002 1.378 . S
C1010 C1005 1.350 . S
C1011 H998 0.929 . S
C1011 C1003 1.433 . S
C1011 N1013 1.384 . S
N1012 C1008 1.427 . S
N1012 C1009 1.384 . S
N1013 C1005 1.427 . S
N1013 C1011 1.384 . S
H1014 C1020 0.930 . S
H1015 C1024 0.930 . S
H1016 C1029 0.929 . S
H1017 C1027 0.929 . S
H1018 C1022 0.929 . S
H1019 C1028 0.929 . S
C1020 H1014 0.930 . S
C1020 C1021 1.367 . S
C1020 C1028 1.378 . S
C1021 C1020 1.367 . S
C1021 C1029 1.433 . S
C1022 H1018 0.929 . S
C1022 C1024 1.378 . S
C1022 C1026 1.350 . S
C1023 C1026 1.463 . S
C1023 C1028 1.350 . S
C1023 N1031 1.427 . S
C1024 H1015 0.930 . S
C1024 C1022 1.378 . S
C1024 C1025 1.367 . S
C1025 C1024 1.367 . S
C1025 C1027 1.433 . S
C1026 C1022 1.350 . S
C1026 C1023 1.463 . S
C1026 N1030 1.427 . S
C1027 H1017 0.929 . S
C1027 C1025 1.433 . S
C1027 N1030 1.384 . S
C1028 H1019 0.929 . S
C1028 C1020 1.378 . S
C1028 C1023 1.350 . S
C1029 H1016 0.929 . S
C1029 C1021 1.433 . S
C1029 N1031 1.384 . S
N1030 C1026 1.427 . S
N1030 C1027 1.384 . S
N1031 C1023 1.427 . S
N1031 C1029 1.384 . S
H1032 C1038 0.930 . S
H1033 C1042 0.930 . S
H1034 C1047 0.929 . S
H1035 C1045 0.929 . S
H1036 C1040 0.929 . S
H1037 C1046 0.929 . S
C1038 H1032 0.930 . S
C1038 C1039 1.367 . S
C1038 C1046 1.378 . S
C1039 C1038 1.367 . S
C1039 C1047 1.433 . S
C1040 H1036 0.929 . S
C1040 C1042 1.378 . S
C1040 C1044 1.350 . S
C1041 C1044 1.463 . S
C1041 C1046 1.350 . S
C1041 N1049 1.427 . S
C1042 H1033 0.930 . S
C1042 C1040 1.378 . S
C1042 C1043 1.367 . S
C1043 C1042 1.367 . S
C1043 C1045 1.433 . S
C1044 C1040 1.350 . S
C1044 C1041 1.463 . S
C1044 N1048 1.427 . S
C1045 H1035 0.929 . S
C1045 C1043 1.433 . S
C1045 N1048 1.384 . S
C1046 H1037 0.929 . S
C1046 C1038 1.378 . S
C1046 C1041 1.350 . S
C1047 H1034 0.929 . S
C1047 C1039 1.433 . S
C1047 N1049 1.384 . S
N1048 C1044 1.427 . S
N1048 C1045 1.384 . S
N1049 C1041 1.427 . S
N1049 C1047 1.384 . S
H1050 C1056 0.930 . S
H1051 C1060 0.930 . S
H1052 C1065 0.929 . S
H1053 C1063 0.929 . S
H1054 C1058 0.929 . S
H1055 C1064 0.929 . S
C1056 H1050 0.930 . S
C1056 C1057 1.367 . S
C1056 C1064 1.378 . S
C1057 C1056 1.367 . S
C1057 C1065 1.433 . S
C1058 H1054 0.929 . S
C1058 C1060 1.378 . S
C1058 C1062 1.350 . S
C1059 C1062 1.463 . S
C1059 C1064 1.350 . S
C1059 N1067 1.427 . S
C1060 H1051 0.930 . S
C1060 C1058 1.378 . S
C1060 C1061 1.367 . S
C1061 C1060 1.367 . S
C1061 C1063 1.433 . S
C1062 C1058 1.350 . S
C1062 C1059 1.463 . S
C1062 N1066 1.427 . S
C1063 H1053 0.929 . S
C1063 C1061 1.433 . S
C1063 N1066 1.384 . S
C1064 H1055 0.929 . S
C1064 C1056 1.378 . S
C1064 C1059 1.350 . S
C1065 H1052 0.929 . S
C1065 C1057 1.433 . S
C1065 N1067 1.384 . S
N1066 C1062 1.427 . S
N1066 C1063 1.384 . S
N1067 C1059 1.427 . S
N1067 C1065 1.384 . S
H1068 C1074 0.930 . S
H1069 C1078 0.930 . S
H1070 C1083 0.929 . S
H1071 C1081 0.929 . S
H1072 C1076 0.929 . S
H1073 C1082 0.929 . S
C1074 H1068 0.930 . S
C1074 C1075 1.367 . S
C1074 C1082 1.378 . S
C1075 C1074 1.367 . S
C1075 C1083 1.433 . S
C1076 H1072 0.929 . S
C1076 C1078 1.378 . S
C1076 C1080 1.350 . S
C1077 C1080 1.463 . S
C1077 C1082 1.350 . S
C1077 N1085 1.427 . S
C1078 H1069 0.930 . S
C1078 C1076 1.378 . S
C1078 C1079 1.367 . S
C1079 C1078 1.367 . S
C1079 C1081 1.433 . S
C1080 C1076 1.350 . S
C1080 C1077 1.463 . S
C1080 N1084 1.427 . S
C1081 H1071 0.929 . S
C1081 C1079 1.433 . S
C1081 N1084 1.384 . S
C1082 H1073 0.929 . S
C1082 C1074 1.378 . S
C1082 C1077 1.350 . S
C1083 H1070 0.929 . S
C1083 C1075 1.433 . S
C1083 N1085 1.384 . S
N1084 C1080 1.427 . S
N1084 C1081 1.384 . S
N1085 C1077 1.427 . S
N1085 C1083 1.384 . S
H1086 C1092 0.930 . S
H1087 C1096 0.930 . S
H1088 C1101 0.929 . S
H1089 C1099 0.929 . S
H1090 C1094 0.929 . S
H1091 C1100 0.929 . S
C1092 H1086 0.930 . S
C1092 C1093 1.367 . S
C1092 C1100 1.378 . S
C1093 C1092 1.367 . S
C1093 C1101 1.433 . S
C1094 H1090 0.929 . S
C1094 C1096 1.378 . S
C1094 C1098 1.350 . S
C1095 C1098 1.463 . S
C1095 C1100 1.350 . S
C1095 N1103 1.427 . S
C1096 H1087 0.930 . S
C1096 C1094 1.378 . S
C1096 C1097 1.367 . S
C1097 C1096 1.367 . S
C1097 C1099 1.433 . S
C1098 C1094 1.350 . S
C1098 C1095 1.463 . S
C1098 N1102 1.427 . S
C1099 H1089 0.929 . S
C1099 C1097 1.433 . S
C1099 N1102 1.384 . S
C1100 H1091 0.929 . S
C1100 C1092 1.378 . S
C1100 C1095 1.350 . S
C1101 H1088 0.929 . S
C1101 C1093 1.433 . S
C1101 N1103 1.384 . S
N1102 C1098 1.427 . S
N1102 C1099 1.384 . S
N1103 C1095 1.427 . S
N1103 C1101 1.384 . S
H1104 C1110 0.930 . S
H1105 C1114 0.930 . S
H1106 C1119 0.929 . S
H1107 C1117 0.929 . S
H1108 C1112 0.929 . S
H1109 C1118 0.929 . S
C1110 H1104 0.930 . S
C1110 C1111 1.367 1_655 S
C1110 C1118 1.378 . S
C1111 C1110 1.367 1_455 S
C1111 C1119 1.433 . S
C1112 H1108 0.929 . S
C1112 C1114 1.378 . S
C1112 C1116 1.344 1_455 S
C1113 C1116 1.461 1_455 S
C1113 C1118 1.350 1_455 S
C1113 N1121 1.427 . S
C1114 H1105 0.930 . S
C1114 C1112 1.378 . S
C1114 C1115 1.367 1_455 S
C1115 C1114 1.367 1_655 S
C1115 C1117 1.433 . S
C1116 C1112 1.344 1_655 S
C1116 C1113 1.461 1_655 S
C1116 N1120 1.435 . S
C1117 H1107 0.929 . S
C1117 C1115 1.433 . S
C1117 N1120 1.384 . S
C1118 H1109 0.929 . S
C1118 C1110 1.378 . S
C1118 C1113 1.350 1_655 S
C1119 H1106 0.929 . S
C1119 C1111 1.433 . S
C1119 N1121 1.384 . S
N1120 C1116 1.435 . S
N1120 C1117 1.384 . S
N1121 C1113 1.427 . S
N1121 C1119 1.384 . S
H1122 C1128 0.930 . S
H1123 C1132 0.930 . S
H1124 C1137 0.929 . S
H1125 C1135 0.929 . S
H1126 C1130 0.929 . S
H1127 C1136 0.929 . S
C1128 H1122 0.930 . S
C1128 C1129 1.367 . S
C1128 C1136 1.378 . S
C1129 C1128 1.367 . S
C1129 C1137 1.433 . S
C1130 H1126 0.929 . S
C1130 C1132 1.378 . S
C1130 C1134 1.350 . S
C1131 C1134 1.463 . S
C1131 C1136 1.350 . S
C1131 N1139 1.427 . S
C1132 H1123 0.930 . S
C1132 C1130 1.378 . S
C1132 C1133 1.367 . S
C1133 C1132 1.367 . S
C1133 C1135 1.433 . S
C1134 C1130 1.350 . S
C1134 C1131 1.463 . S
C1134 N1138 1.427 . S
C1135 H1125 0.929 . S
C1135 C1133 1.433 . S
C1135 N1138 1.384 . S
C1136 H1127 0.929 . S
C1136 C1128 1.378 . S
C1136 C1131 1.350 . S
C1137 H1124 0.929 . S
C1137 C1129 1.433 . S
C1137 N1139 1.384 . S
N1138 C1134 1.427 . S
N1138 C1135 1.384 . S
N1139 C1131 1.427 . S
N1139 C1137 1.384 . S
H1140 C1146 0.930 . S
H1141 C1150 0.930 . S
H1142 C1155 0.929 . S
H1143 C1153 0.929 . S
H1144 C1148 0.929 . S
H1145 C1154 0.929 . S
C1146 H1140 0.930 . S
C1146 C1147 1.367 . S
C1146 C1154 1.378 . S
C1147 C1146 1.367 . S
C1147 C1155 1.433 . S
C1148 H1144 0.929 . S
C1148 C1150 1.378 . S
C1148 C1152 1.350 . S
C1149 C1152 1.463 . S
C1149 C1154 1.350 . S
C1149 N1157 1.427 . S
C1150 H1141 0.930 . S
C1150 C1148 1.378 . S
C1150 C1151 1.367 . S
C1151 C1150 1.367 . S
C1151 C1153 1.433 . S
C1152 C1148 1.350 . S
C1152 C1149 1.463 . S
C1152 N1156 1.427 . S
C1153 H1143 0.929 . S
C1153 C1151 1.433 . S
C1153 N1156 1.384 . S
C1154 H1145 0.929 . S
C1154 C1146 1.378 . S
C1154 C1149 1.350 . S
C1155 H1142 0.929 . S
C1155 C1147 1.433 . S
C1155 N1157 1.384 . S
N1156 C1152 1.427 . S
N1156 C1153 1.384 . S
N1157 C1149 1.427 . S
N1157 C1155 1.384 . S
H1158 C1164 0.930 . S
H1159 C1168 0.930 . S
H1160 C1173 0.929 . S
H1161 C1171 0.929 . S
H1162 C1166 0.929 . S
H1163 C1172 0.929 . S
C1164 H1158 0.930 . S
C1164 C1165 1.367 . S
C1164 C1172 1.378 . S
C1165 C1164 1.367 . S
C1165 C1173 1.433 . S
C1166 H1162 0.929 . S
C1166 C1168 1.378 . S
C1166 C1170 1.350 . S
C1167 C1170 1.463 1_455 S
C1167 C1172 1.350 . S
C1167 N1175 1.427 . S
C1168 H1159 0.930 . S
C1168 C1166 1.378 . S
C1168 C1169 1.367 . S
C1169 C1168 1.367 . S
C1169 C1171 1.433 . S
C1170 C1166 1.350 . S
C1170 C1167 1.463 1_655 S
C1170 N1174 1.427 . S
C1171 H1161 0.929 . S
C1171 C1169 1.433 . S
C1171 N1174 1.384 . S
C1172 H1163 0.929 . S
C1172 C1164 1.378 . S
C1172 C1167 1.350 . S
C1173 H1160 0.929 . S
C1173 C1165 1.433 . S
C1173 N1175 1.384 . S
N1174 C1170 1.427 . S
N1174 C1171 1.384 . S
N1175 C1167 1.427 . S
N1175 C1173 1.384 . S
H1176 C1182 0.930 . S
H1177 C1186 0.930 . S
H1178 C1191 0.929 . S
H1179 C1189 0.929 . S
H1180 C1184 0.926 1_455 S
H1181 C1190 0.930 . S
C1182 H1176 0.930 . S
C1182 C1183 1.367 . S
C1182 C1190 1.378 . S
C1183 C1182 1.367 . S
C1183 C1191 1.433 . S
C1184 H1180 0.926 1_655 S
C1184 C1186 1.380 . S
C1184 C1188 1.350 . S
C1185 C1188 1.463 1_455 S
C1185 C1190 1.350 . S
C1185 N1193 1.427 . S
C1186 H1177 0.930 . S
C1186 C1184 1.380 . S
C1186 C1187 1.367 . S
C1187 C1186 1.367 . S
C1187 C1189 1.433 . S
C1188 C1184 1.350 . S
C1188 C1185 1.463 1_655 S
C1188 N1192 1.427 . S
C1189 H1179 0.929 . S
C1189 C1187 1.433 . S
C1189 N1192 1.384 . S
C1190 H1181 0.930 . S
C1190 C1182 1.378 . S
C1190 C1185 1.350 . S
C1191 H1178 0.929 . S
C1191 C1183 1.433 . S
C1191 N1193 1.384 . S
N1192 C1188 1.427 . S
N1192 C1189 1.384 . S
N1193 C1185 1.427 . S
N1193 C1191 1.384 . S
H1194 C1200 0.930 . S
H1195 C1204 0.930 . S
H1196 C1209 0.929 . S
H1197 C1207 0.929 . S
H1198 C1202 0.929 . S
H1199 C1208 0.929 . S
C1200 H1194 0.930 . S
C1200 C1201 1.367 . S
C1200 C1208 1.378 . S
C1201 C1200 1.367 . S
C1201 C1209 1.433 . S
C1202 H1198 0.929 . S
C1202 C1204 1.378 . S
C1202 C1206 1.350 . S
C1203 C1206 1.463 1_455 S
C1203 C1208 1.350 . S
C1203 N1211 1.427 . S
C1204 H1195 0.930 . S
C1204 C1202 1.378 . S
C1204 C1205 1.367 . S
C1205 C1204 1.367 . S
C1205 C1207 1.433 . S
C1206 C1202 1.350 . S
C1206 C1203 1.463 1_655 S
C1206 N1210 1.427 . S
C1207 H1197 0.929 . S
C1207 C1205 1.433 . S
C1207 N1210 1.384 . S
C1208 H1199 0.929 . S
C1208 C1200 1.378 . S
C1208 C1203 1.350 . S
C1209 H1196 0.929 . S
C1209 C1201 1.433 . S
C1209 N1211 1.384 . S
N1210 C1206 1.427 . S
N1210 C1207 1.384 . S
N1211 C1203 1.427 . S
N1211 C1209 1.384 . S
H1212 C1218 0.930 . S
H1213 C1222 0.930 . S
H1214 C1227 0.929 . S
H1215 C1225 0.929 . S
H1216 C1220 0.929 . S
H1217 C1226 0.929 . S
C1218 H1212 0.930 . S
C1218 C1219 1.367 . S
C1218 C1226 1.378 . S
C1219 C1218 1.367 . S
C1219 C1227 1.433 . S
C1220 H1216 0.929 . S
C1220 C1222 1.378 . S
C1220 C1224 1.350 . S
C1221 C1224 1.463 . S
C1221 C1226 1.350 . S
C1221 N1229 1.427 . S
C1222 H1213 0.930 . S
C1222 C1220 1.378 . S
C1222 C1223 1.367 . S
C1223 C1222 1.367 . S
C1223 C1225 1.433 . S
C1224 C1220 1.350 . S
C1224 C1221 1.463 . S
C1224 N1228 1.427 . S
C1225 H1215 0.929 . S
C1225 C1223 1.433 . S
C1225 N1228 1.384 . S
C1226 H1217 0.929 . S
C1226 C1218 1.378 . S
C1226 C1221 1.350 . S
C1227 H1214 0.929 . S
C1227 C1219 1.433 . S
C1227 N1229 1.384 . S
N1228 C1224 1.427 . S
N1228 C1225 1.384 . S
N1229 C1221 1.427 . S
N1229 C1227 1.384 . S
H1230 C1236 0.930 . S
H1231 C1240 0.930 . S
H1232 C1245 0.929 . S
H1233 C1243 0.929 . S
H1234 C1238 0.929 . S
H1235 C1244 0.929 . S
C1236 H1230 0.930 . S
C1236 C1237 1.367 . S
C1236 C1244 1.378 . S
C1237 C1236 1.367 . S
C1237 C1245 1.433 . S
C1238 H1234 0.929 . S
C1238 C1240 1.378 . S
C1238 C1242 1.350 . S
C1239 C1242 1.463 . S
C1239 C1244 1.350 . S
C1239 N1247 1.427 . S
C1240 H1231 0.930 . S
C1240 C1238 1.378 . S
C1240 C1241 1.367 . S
C1241 C1240 1.367 . S
C1241 C1243 1.433 . S
C1242 C1238 1.350 . S
C1242 C1239 1.463 . S
C1242 N1246 1.427 . S
C1243 H1233 0.929 . S
C1243 C1241 1.433 . S
C1243 N1246 1.384 . S
C1244 H1235 0.929 . S
C1244 C1236 1.378 . S
C1244 C1239 1.350 . S
C1245 H1232 0.929 . S
C1245 C1237 1.433 . S
C1245 N1247 1.384 . S
N1246 C1242 1.427 . S
N1246 C1243 1.384 . S
N1247 C1239 1.427 . S
N1247 C1245 1.384 . S
C535 N442 1.369 . S
C539 N13 1.360 . S
C553 N46 1.360 . S
C557 N376 1.369 . S
C571 N79 1.360 . S
C575 N409 1.368 . S
C589 N112 1.360 . S
C593 N343 1.368 . S
C607 N508 1.360 . S
C611 N145 1.367 . S
C625 N178 1.367 . S
C629 N310 1.361 . S
C643 N211 1.364 . S
C647 N475 1.363 . S
C661 N277 1.368 . S
C665 N244 1.362 . S
C679 C18 1.657 . S
C683 C150 1.657 . S
C697 C51 1.664 . S
C701 C183 1.664 . S
C715 C84 1.656 . S
C719 C216 1.656 . S
C733 C249 1.663 . S
C737 C117 1.663 . S
C751 C348 1.664 . S
C755 C282 1.664 . S
C769 C315 1.662 . S
C773 C381 1.662 . S
C787 C480 1.662 . S
C791 C414 1.662 . S
C805 C513 1.663 . S
C809 C447 1.663 . S
C823 C172 1.008 . S
C827 C7 1.033 . S
C841 C40 1.009 . S
C845 C205 1.032 . S
C859 C73 1.018 . S
C863 C238 1.022 . S
C877 C139 1.021 . S
C881 C106 1.019 . S
C895 C153 0.413 . S
C899 C351 0.390 . S
C913 C87 0.371 . S
C917 C285 0.427 . S
C931 C384 0.417 . S
C935 C219 0.378 . S
C949 C318 0.372 . S
C953 C21 0.423 . S
C967 C271 1.031 . S
C971 C403 1.009 . S
C985 C502 1.010 . S
C989 C337 1.031 . S
C1003 C436 1.013 . S
C1007 C304 1.028 . S
C1021 C370 1.030 . S
C1025 C469 1.010 . S
C1039 C483 0.391 . S
C1043 C54 0.404 . S
C1057 C186 0.400 . S
C1061 C450 0.404 . S
C1075 C516 0.423 . S
C1079 C120 0.378 . S
C1093 C252 0.386 . S
C1097 C417 0.408 . S
C1111 N2 0.548 . S
C1115 N431 0.534 . S
C1129 N35 0.566 . S
C1133 N365 0.566 . S
C1147 N68 0.546 . S
C1151 N398 0.535 . S
C1165 N101 0.556 . S
C1169 N332 0.570 . S
C1183 N134 0.539 . S
C1187 N497 0.562 . S
C1201 N167 0.537 . S
C1205 N299 0.540 . S
C1219 N464 0.557 . S
C1223 N200 0.536 . S
C1237 N266 0.543 . S
C1241 N233 0.565 . S
