# Generated by pormake.
# Topology unv, (4)-cn, num edge types: 1
# Building blocks:
#     Node 0, Type 0, BuildingBlock: CEKHIL_clean_sbu_0, # of connection points: 4
#     Node 1, Type 0, BuildingBlock: CEKHIL_clean_sbu_0, # of connection points: 4
#     Node 2, Type 0, BuildingBlock: CEKHIL_clean_sbu_0, # of connection points: 4
#     Node 3, Type 0, BuildingBlock: CEKHIL_clean_sbu_0, # of connection points: 4
#     Node 4, Type 0, BuildingBlock: CEKHIL_clean_sbu_0, # of connection points: 4
#     Node 5, Type 0, BuildingBlock: CEKHIL_clean_sbu_0, # of connection points: 4
#     Node 6, Type 0, BuildingBlock: CEKHIL_clean_sbu_0, # of connection points: 4
#     Node 7, Type 0, BuildingBlock: CEKHIL_clean_sbu_0, # of connection points: 4
#     Node 8, Type 0, BuildingBlock: CEKHIL_clean_sbu_0, # of connection points: 4
#     Node 9, Type 0, BuildingBlock: CEKHIL_clean_sbu_0, # of connection points: 4
#     Node 10, Type 0, BuildingBlock: CEKHIL_clean_sbu_0, # of connection points: 4
#     Node 11, Type 0, BuildingBlock: CEKHIL_clean_sbu_0, # of connection points: 4
#     Node 12, Type 0, BuildingBlock: CEKHIL_clean_sbu_0, # of connection points: 4
#     Node 13, Type 0, BuildingBlock: CEKHIL_clean_sbu_0, # of connection points: 4
#     Node 14, Type 0, BuildingBlock: CEKHIL_clean_sbu_0, # of connection points: 4
#     Node 15, Type 0, BuildingBlock: CEKHIL_clean_sbu_0, # of connection points: 4
#     Node 16, Type 0, BuildingBlock: CEKHIL_clean_sbu_0, # of connection points: 4
#     Node 17, Type 0, BuildingBlock: CEKHIL_clean_sbu_0, # of connection points: 4
#     Node 18, Type 0, BuildingBlock: CEKHIL_clean_sbu_0, # of connection points: 4
#     Node 19, Type 0, BuildingBlock: CEKHIL_clean_sbu_0, # of connection points: 4
#     Node 20, Type 0, BuildingBlock: CEKHIL_clean_sbu_0, # of connection points: 4
#     Node 21, Type 0, BuildingBlock: CEKHIL_clean_sbu_0, # of connection points: 4
#     Node 22, Type 0, BuildingBlock: CEKHIL_clean_sbu_0, # of connection points: 4
#     Node 23, Type 0, BuildingBlock: CEKHIL_clean_sbu_0, # of connection points: 4
#     Edge 24, Type (0, 0), BuildingBlock: ZUJKAS_clean_linker_0, # of connection points: 2
#     Edge 25, Type (0, 0), BuildingBlock: ZUJKAS_clean_linker_0, # of connection points: 2
#     Edge 26, Type (0, 0), BuildingBlock: ZUJKAS_clean_linker_0, # of connection points: 2
#     Edge 27, Type (0, 0), BuildingBlock: ZUJKAS_clean_linker_0, # of connection points: 2
#     Edge 28, Type (0, 0), BuildingBlock: ZUJKAS_clean_linker_0, # of connection points: 2
#     Edge 29, Type (0, 0), BuildingBlock: ZUJKAS_clean_linker_0, # of connection points: 2
#     Edge 30, Type (0, 0), BuildingBlock: ZUJKAS_clean_linker_0, # of connection points: 2
#     Edge 31, Type (0, 0), BuildingBlock: ZUJKAS_clean_linker_0, # of connection points: 2
#     Edge 32, Type (0, 0), BuildingBlock: ZUJKAS_clean_linker_0, # of connection points: 2
#     Edge 33, Type (0, 0), BuildingBlock: ZUJKAS_clean_linker_0, # of connection points: 2
#     Edge 34, Type (0, 0), BuildingBlock: ZUJKAS_clean_linker_0, # of connection points: 2
#     Edge 35, Type (0, 0), BuildingBlock: ZUJKAS_clean_linker_0, # of connection points: 2
#     Edge 36, Type (0, 0), BuildingBlock: ZUJKAS_clean_linker_0, # of connection points: 2
#     Edge 37, Type (0, 0), BuildingBlock: ZUJKAS_clean_linker_0, # of connection points: 2
#     Edge 38, Type (0, 0), BuildingBlock: ZUJKAS_clean_linker_0, # of connection points: 2
#     Edge 39, Type (0, 0), BuildingBlock: ZUJKAS_clean_linker_0, # of connection points: 2
#     Edge 40, Type (0, 0), BuildingBlock: ZUJKAS_clean_linker_0, # of connection points: 2
#     Edge 41, Type (0, 0), BuildingBlock: ZUJKAS_clean_linker_0, # of connection points: 2
#     Edge 42, Type (0, 0), BuildingBlock: ZUJKAS_clean_linker_0, # of connection points: 2
#     Edge 43, Type (0, 0), BuildingBlock: ZUJKAS_clean_linker_0, # of connection points: 2
#     Edge 44, Type (0, 0), BuildingBlock: ZUJKAS_clean_linker_0, # of connection points: 2
#     Edge 45, Type (0, 0), BuildingBlock: ZUJKAS_clean_linker_0, # of connection points: 2
#     Edge 46, Type (0, 0), BuildingBlock: ZUJKAS_clean_linker_0, # of connection points: 2
#     Edge 47, Type (0, 0), BuildingBlock: ZUJKAS_clean_linker_0, # of connection points: 2
#     Edge 48, Type (0, 0), BuildingBlock: ZUJKAS_clean_linker_0, # of connection points: 2
#     Edge 49, Type (0, 0), BuildingBlock: ZUJKAS_clean_linker_0, # of connection points: 2
#     Edge 50, Type (0, 0), BuildingBlock: ZUJKAS_clean_linker_0, # of connection points: 2
#     Edge 51, Type (0, 0), BuildingBlock: ZUJKAS_clean_linker_0, # of connection points: 2
#     Edge 52, Type (0, 0), BuildingBlock: ZUJKAS_clean_linker_0, # of connection points: 2
#     Edge 53, Type (0, 0), BuildingBlock: ZUJKAS_clean_linker_0, # of connection points: 2
#     Edge 54, Type (0, 0), BuildingBlock: ZUJKAS_clean_linker_0, # of connection points: 2
#     Edge 55, Type (0, 0), BuildingBlock: ZUJKAS_clean_linker_0, # of connection points: 2
#     Edge 56, Type (0, 0), BuildingBlock: ZUJKAS_clean_linker_0, # of connection points: 2
#     Edge 57, Type (0, 0), BuildingBlock: ZUJKAS_clean_linker_0, # of connection points: 2
#     Edge 58, Type (0, 0), BuildingBlock: ZUJKAS_clean_linker_0, # of connection points: 2
#     Edge 59, Type (0, 0), BuildingBlock: ZUJKAS_clean_linker_0, # of connection points: 2
#     Edge 60, Type (0, 0), BuildingBlock: ZUJKAS_clean_linker_0, # of connection points: 2
#     Edge 61, Type (0, 0), BuildingBlock: ZUJKAS_clean_linker_0, # of connection points: 2
#     Edge 62, Type (0, 0), BuildingBlock: ZUJKAS_clean_linker_0, # of connection points: 2
#     Edge 63, Type (0, 0), BuildingBlock: ZUJKAS_clean_linker_0, # of connection points: 2
#     Edge 64, Type (0, 0), BuildingBlock: ZUJKAS_clean_linker_0, # of connection points: 2
#     Edge 65, Type (0, 0), BuildingBlock: ZUJKAS_clean_linker_0, # of connection points: 2
#     Edge 66, Type (0, 0), BuildingBlock: ZUJKAS_clean_linker_0, # of connection points: 2
#     Edge 67, Type (0, 0), BuildingBlock: ZUJKAS_clean_linker_0, # of connection points: 2
#     Edge 68, Type (0, 0), BuildingBlock: ZUJKAS_clean_linker_0, # of connection points: 2
#     Edge 69, Type (0, 0), BuildingBlock: ZUJKAS_clean_linker_0, # of connection points: 2
#     Edge 70, Type (0, 0), BuildingBlock: ZUJKAS_clean_linker_0, # of connection points: 2
#     Edge 71, Type (0, 0), BuildingBlock: ZUJKAS_clean_linker_0, # of connection points: 2
# Relax obj value: 0.330
# Max RMSD: 0.240
# Mean RMSD: 0.214
data_MOF--net-unv--node1-CEKHIL_clean_sbu_0--edge1-ZUJKAS_clean_linker_0
_symmetry_space_group_name_H-M    P1
_symmetry_Int_Tables_number       1
_symmetry_cell_setting            triclinic
loop_
_symmetry_equiv_pos_as_xyz
'x, y, z'
_cell_length_a     62.287128
_cell_length_b     62.313791
_cell_length_c     62.323651
_cell_angle_alpha  90.022229
_cell_angle_beta   90.005544
_cell_angle_gamma 90.000023
loop_
_atom_site_label
_atom_site_type_symbol
_atom_site_fract_x
_atom_site_fract_y
_atom_site_fract_z
_atom_type_partial_charge
Co0 Co 0.02094 0.10369 0.37551 0.0
O1 O 0.03262 0.12753 0.35972 0.0
O2 O 0.99801 0.1199 0.36216 0.0
C3 C 0.04016 0.1088 0.40585 0.0
O4 O 0.00297 0.08118 0.39113 0.0
Co5 Co 0.0503 0.06625 0.39108 0.0
O6 O 0.02556 0.06056 0.41036 0.0
C7 C 0.03583 0.06773 0.34578 0.0
C8 C 0.01296 0.13279 0.35529 0.0
C9 C 0.00671 0.06709 0.40578 0.0
O10 O 0.02369 0.08407 0.34965 0.0
O11 O 0.04863 0.05964 0.35969 0.0
O12 O 0.02296 0.12003 0.40233 0.0
O13 O 0.04627 0.09686 0.39009 0.0
Co14 Co 0.96997 0.3825 0.36693 0.0
O15 O 0.95843 0.35963 0.34969 0.0
O16 O 0.993 0.36713 0.35279 0.0
C17 C 0.95073 0.37512 0.39677 0.0
O18 O 0.98786 0.40391 0.38401 0.0
Co19 Co 0.94039 0.41861 0.38486 0.0
O20 O 0.96569 0.42499 0.40315 0.0
C21 C 0.9552 0.42048 0.33967 0.0
C22 C 0.97814 0.35445 0.34537 0.0
C23 C 0.98445 0.41825 0.39851 0.0
O24 O 0.96726 0.40383 0.34239 0.0
O25 O 0.94227 0.42747 0.35405 0.0
O26 O 0.96811 0.36444 0.39256 0.0
O27 O 0.94449 0.38812 0.38193 0.0
Co28 Co 0.0213 0.89094 0.13599 0.0
O29 O 0.03151 0.86625 0.1516 0.0
O30 O 0.99732 0.87556 0.14834 0.0
C31 C 0.04069 0.88571 0.10576 0.0
O32 O 0.00474 0.9147 0.12075 0.0
Co33 Co 0.05287 0.92727 0.12215 0.0
O34 O 0.02835 0.93619 0.10385 0.0
C35 C 0.03719 0.92539 0.16697 0.0
C36 C 0.01149 0.86197 0.15542 0.0
C37 C 0.00919 0.93008 0.10768 0.0
O38 O 0.02432 0.90984 0.16231 0.0
O39 O 0.05091 0.93305 0.15371 0.0
O40 O 0.02302 0.87512 0.10889 0.0
O41 O 0.0472 0.89691 0.12192 0.0
Co42 Co 0.97229 0.61197 0.14267 0.0
O43 O 0.96117 0.63547 0.15951 0.0
O44 O 0.99561 0.62725 0.1562 0.0
C45 C 0.95322 0.61863 0.11249 0.0
O46 O 0.98994 0.58996 0.12616 0.0
Co47 Co 0.94232 0.57558 0.12588 0.0
O48 O 0.96779 0.56757 0.10852 0.0
C49 C 0.95683 0.57516 0.17112 0.0
C50 C 0.98105 0.64028 0.16354 0.0
C51 C 0.98654 0.57465 0.1127 0.0
O52 O 0.96941 0.59129 0.16775 0.0
O53 O 0.9436 0.56807 0.15707 0.0
O54 O 0.97051 0.62946 0.11666 0.0
O55 O 0.9468 0.60611 0.12769 0.0
Co56 Co 0.37646 0.01919 0.10492 0.0
O57 O 0.35993 0.02848 0.1293 0.0
O58 O 0.36595 0.99451 0.12054 0.0
C59 C 0.40507 0.04089 0.10992 0.0
O60 O 0.39327 0.00372 0.08146 0.0
Co61 Co 0.38734 0.05164 0.06838 0.0
O62 O 0.40693 0.02837 0.05886 0.0
C63 C 0.34389 0.033 0.07117 0.0
C64 C 0.35761 0.0083 0.13382 0.0
C65 C 0.40534 0.00908 0.06553 0.0
O66 O 0.35003 0.0199 0.08597 0.0
O67 O 0.35573 0.04809 0.06381 0.0
O68 O 0.40327 0.02323 0.12082 0.0
O69 O 0.38842 0.04603 0.09874 0.0
Co70 Co 0.61895 0.49769 0.10375 0.0
O71 O 0.63563 0.48418 0.12596 0.0
O72 O 0.6313 0.5193 0.12237 0.0
C73 C 0.58955 0.47667 0.10709 0.0
O74 O 0.60241 0.51722 0.0833 0.0
Co75 Co 0.60396 0.47164 0.06365 0.0
O76 O 0.58378 0.49612 0.06064 0.0
C77 C 0.6487 0.48793 0.0662 0.0
C78 C 0.6391 0.50332 0.13333 0.0
C79 C 0.58786 0.5144 0.06889 0.0
O80 O 0.64464 0.49818 0.08375 0.0
O81 O 0.63517 0.47544 0.05702 0.0
O82 O 0.59243 0.49276 0.12 0.0
O83 O 0.6054 0.47259 0.09444 0.0
Co84 Co 0.3682 0.9722 0.38516 0.0
O85 O 0.35087 0.96158 0.36187 0.0
O86 O 0.35559 0.99594 0.36976 0.0
C87 C 0.39755 0.95196 0.37859 0.0
O88 O 0.38556 0.9892 0.40704 0.0
Co89 Co 0.38355 0.94167 0.42165 0.0
O90 O 0.40236 0.96625 0.42925 0.0
C91 C 0.33894 0.95786 0.4217 0.0
C92 C 0.34761 0.98155 0.35691 0.0
C93 C 0.39907 0.98516 0.42216 0.0
O94 O 0.34306 0.97048 0.40581 0.0
O95 O 0.35229 0.94394 0.42881 0.0
O96 O 0.39408 0.96933 0.36766 0.0
O97 O 0.38206 0.94616 0.39108 0.0
Co98 Co 0.62664 0.50336 0.38688 0.0
O99 O 0.64378 0.51593 0.36449 0.0
O100 O 0.63971 0.481 0.36973 0.0
C101 C 0.59703 0.52368 0.38141 0.0
O102 O 0.60961 0.48467 0.40771 0.0
Co103 Co 0.61069 0.53152 0.42509 0.0
O104 O 0.59213 0.50631 0.43074 0.0
C105 C 0.65553 0.51574 0.42449 0.0
C106 C 0.64744 0.49648 0.35804 0.0
C107 C 0.59589 0.48778 0.42288 0.0
O108 O 0.65176 0.50418 0.4077 0.0
O109 O 0.64186 0.52891 0.43239 0.0
O110 O 0.6007 0.50703 0.36948 0.0
O111 O 0.61235 0.52874 0.39441 0.0
Co112 Co 0.1035 0.37819 0.01991 0.0
O113 O 0.1268 0.36077 0.03035 0.0
O114 O 0.11873 0.36554 0.99603 0.0
C115 C 0.11023 0.40736 0.04039 0.0
O116 O 0.0813 0.39542 0.00313 0.0
Co117 Co 0.06725 0.39393 0.05065 0.0
O118 O 0.06077 0.41373 0.02655 0.0
C119 C 0.06668 0.34933 0.03409 0.0
C120 C 0.13147 0.35729 0.01036 0.0
C121 C 0.06705 0.40975 0.00749 0.0
O122 O 0.08288 0.35311 0.02176 0.0
O123 O 0.05948 0.36289 0.04777 0.0
O124 O 0.12102 0.40414 0.02287 0.0
O125 O 0.09773 0.39185 0.04602 0.0
Co126 Co 0.10206 0.61539 0.49552 0.0
O127 O 0.12465 0.63119 0.48173 0.0
O128 O 0.12062 0.62841 0.5169 0.0
C129 C 0.10524 0.58531 0.47551 0.0
O130 O 0.08102 0.59971 0.51519 0.0
Co131 Co 0.06217 0.60108 0.46869 0.0
O132 O 0.05685 0.58289 0.49424 0.0
C133 C 0.0656 0.64595 0.48386 0.0
C134 C 0.13187 0.63547 0.50076 0.0
C135 C 0.06529 0.58651 0.51254 0.0
O136 O 0.08252 0.64144 0.49493 0.0
O137 O 0.05655 0.63259 0.47112 0.0
O138 O 0.11798 0.58849 0.49169 0.0
O139 O 0.09295 0.60124 0.47072 0.0
Co140 Co 0.89411 0.85906 0.49586 0.0
O141 O 0.87142 0.84365 0.4818 0.0
O142 O 0.876 0.84506 0.51698 0.0
C143 C 0.89044 0.88989 0.47716 0.0
O144 O 0.9154 0.874 0.51582 0.0
Co145 Co 0.93352 0.875 0.46935 0.0
O146 O 0.93796 0.89321 0.49512 0.0
C147 C 0.93127 0.82963 0.48347 0.0
C148 C 0.86456 0.83854 0.50075 0.0
C149 C 0.93024 0.88821 0.5134 0.0
O150 O 0.91385 0.83327 0.49406 0.0
O151 O 0.94037 0.84367 0.47154 0.0
O152 O 0.87801 0.88598 0.49341 0.0
O153 O 0.90274 0.87425 0.47149 0.0
Co154 Co 0.38538 0.62552 0.50663 0.0
O155 O 0.36314 0.64165 0.5206 0.0
O156 O 0.36748 0.63965 0.48542 0.0
C157 C 0.38068 0.59497 0.52564 0.0
O158 O 0.40606 0.60964 0.48674 0.0
Co159 Co 0.42431 0.60894 0.53349 0.0
O160 O 0.42932 0.59133 0.50747 0.0
C161 C 0.4228 0.65435 0.51972 0.0
C162 C 0.35608 0.64636 0.50161 0.0
C163 C 0.42125 0.59578 0.48919 0.0
O164 O 0.40591 0.65081 0.50823 0.0
O165 O 0.43109 0.6403 0.53221 0.0
O166 O 0.36835 0.5992 0.5094 0.0
O167 O 0.39358 0.61021 0.5311 0.0
Co168 Co 0.50429 0.61206 0.85302 0.0
O169 O 0.51842 0.63385 0.83637 0.0
O170 O 0.48319 0.62938 0.83815 0.0
C171 C 0.52279 0.61789 0.88366 0.0
O172 O 0.48415 0.59185 0.86909 0.0
Co173 Co 0.53033 0.57382 0.87208 0.0
O174 O 0.50444 0.57093 0.89045 0.0
C175 C 0.51717 0.57316 0.82627 0.0
C176 C 0.49942 0.64063 0.83131 0.0
C177 C 0.48628 0.57831 0.88455 0.0
O178 O 0.50636 0.5907 0.82851 0.0
O179 O 0.52884 0.5651 0.84117 0.0
O180 O 0.50648 0.62987 0.87881 0.0
O181 O 0.5286 0.60447 0.869 0.0
Co182 Co 0.50089 0.89517 0.85963 0.0
O183 O 0.48887 0.87085 0.84497 0.0
O184 O 0.52372 0.87742 0.84807 0.0
C185 C 0.48107 0.89268 0.88988 0.0
O186 O 0.51876 0.91851 0.87413 0.0
Co187 Co 0.47069 0.93376 0.87042 0.0
O188 O 0.49583 0.94299 0.88763 0.0
C189 C 0.48734 0.92859 0.82642 0.0
C190 C 0.50845 0.86487 0.8413 0.0
C191 C 0.51473 0.93544 0.88534 0.0
O192 O 0.49953 0.91299 0.83247 0.0
O193 O 0.47335 0.93739 0.83863 0.0
O194 O 0.49794 0.88072 0.88737 0.0
O195 O 0.47534 0.90338 0.87312 0.0
Co196 Co 0.50495 0.38318 0.62776 0.0
O197 O 0.51759 0.36088 0.64495 0.0
O198 O 0.48263 0.36627 0.64121 0.0
C199 C 0.5249 0.37743 0.598 0.0
O200 O 0.48619 0.40397 0.61077 0.0
Co201 Co 0.53318 0.42111 0.61127 0.0
O202 O 0.50784 0.42662 0.59282 0.0
C203 C 0.51789 0.42087 0.65625 0.0
C204 C 0.49815 0.35461 0.64891 0.0
C205 C 0.48929 0.41892 0.59683 0.0
O206 O 0.50614 0.40416 0.65269 0.0
O207 O 0.53099 0.42859 0.64242 0.0
O208 O 0.50824 0.36557 0.60192 0.0
O209 O 0.53021 0.39046 0.61319 0.0
Co210 Co 0.50033 0.10282 0.61641 0.0
O211 O 0.48697 0.12418 0.63427 0.0
O212 O 0.52207 0.12069 0.62958 0.0
C213 C 0.47906 0.10781 0.58745 0.0
O214 O 0.51978 0.0832 0.59878 0.0
Co215 Co 0.47436 0.06364 0.59917 0.0
O216 O 0.49869 0.06186 0.57868 0.0
C217 C 0.49101 0.06352 0.64391 0.0
C218 C 0.50617 0.13129 0.63801 0.0
C219 C 0.51699 0.06973 0.58335 0.0
O220 O 0.50083 0.08154 0.64101 0.0
O221 O 0.47878 0.05494 0.62977 0.0
O222 O 0.49529 0.12044 0.59082 0.0
O223 O 0.47512 0.09428 0.60258 0.0
Co224 Co 0.85556 0.50204 0.6123 0.0
O225 O 0.83879 0.51689 0.63357 0.0
O226 O 0.84037 0.48155 0.63004 0.0
C227 C 0.88632 0.52056 0.61782 0.0
O228 O 0.8716 0.48116 0.59279 0.0
Co229 Co 0.87509 0.52671 0.57339 0.0
O230 O 0.893 0.50048 0.57106 0.0
C231 C 0.82915 0.51394 0.5728 0.0
C232 C 0.83349 0.49811 0.64077 0.0
C233 C 0.88691 0.48262 0.57897 0.0
O234 O 0.83119 0.50365 0.59068 0.0
O235 O 0.84422 0.52522 0.56451 0.0
O236 O 0.88123 0.50471 0.6303 0.0
O237 O 0.87182 0.52593 0.60405 0.0
Co238 Co 0.14315 0.97424 0.61347 0.0
O239 O 0.16025 0.96444 0.63728 0.0
O240 O 0.15575 0.99851 0.62814 0.0
C241 C 0.11374 0.95427 0.62058 0.0
O242 O 0.12612 0.99046 0.59075 0.0
Co243 Co 0.12798 0.94237 0.57806 0.0
O244 O 0.1096 0.9668 0.56905 0.0
C245 C 0.17267 0.95843 0.57776 0.0
C246 C 0.16366 0.98454 0.64148 0.0
C247 C 0.11291 0.98595 0.57549 0.0
O248 O 0.16848 0.97166 0.59314 0.0
O249 O 0.15931 0.94429 0.5711 0.0
O250 O 0.11704 0.97213 0.63076 0.0
O251 O 0.12931 0.94799 0.60844 0.0
Co252 Co 0.85961 0.50005 0.89252 0.0
O253 O 0.84348 0.48793 0.86916 0.0
O254 O 0.84731 0.52278 0.87519 0.0
C255 C 0.88944 0.47985 0.88845 0.0
O256 O 0.87562 0.51815 0.9147 0.0
Co257 Co 0.8732 0.4708 0.93085 0.0
O258 O 0.89176 0.49568 0.93794 0.0
C259 C 0.82881 0.4876 0.92854 0.0
C260 C 0.83978 0.50748 0.86312 0.0
C261 C 0.88854 0.51445 0.93045 0.0
O262 O 0.83351 0.49907 0.91196 0.0
O263 O 0.84184 0.47415 0.937 0.0
O264 O 0.88647 0.49668 0.87656 0.0
O265 O 0.87329 0.47445 0.90022 0.0
Co266 Co 0.13678 0.01883 0.89275 0.0
O267 O 0.15254 0.02989 0.86859 0.0
O268 O 0.14788 0.99535 0.87574 0.0
C269 C 0.10742 0.03981 0.88933 0.0
O270 O 0.121 0.00159 0.91568 0.0
Co271 Co 0.12554 0.04894 0.93116 0.0
O272 O 0.10708 0.02449 0.9399 0.0
C273 C 0.16953 0.03198 0.92662 0.0
C274 C 0.15553 0.01005 0.86304 0.0
C275 C 0.1092 0.00565 0.93218 0.0
O276 O 0.16352 0.01951 0.91124 0.0
O277 O 0.15735 0.04624 0.93504 0.0
O278 O 0.10956 0.02276 0.87755 0.0
O279 O 0.12407 0.0449 0.90056 0.0
Co280 Co 0.61291 0.85215 0.50331 0.0
O281 O 0.63437 0.8361 0.51852 0.0
O282 O 0.63035 0.83592 0.48324 0.0
C283 C 0.61882 0.88359 0.52041 0.0
O284 O 0.59302 0.86743 0.48225 0.0
Co285 Co 0.57457 0.87262 0.52815 0.0
O286 O 0.5724 0.89 0.50154 0.0
C287 C 0.57361 0.82631 0.51698 0.0
C288 C 0.64134 0.82984 0.49995 0.0
C289 C 0.57978 0.88325 0.48369 0.0
O290 O 0.59132 0.82794 0.50634 0.0
O291 O 0.5655 0.84177 0.52786 0.0
O292 O 0.63093 0.8779 0.50446 0.0
O293 O 0.60522 0.86932 0.52672 0.0
Co294 Co 0.61194 0.1463 0.97234 0.0
O295 O 0.6355 0.16354 0.96218 0.0
O296 O 0.62646 0.15951 0.99634 0.0
C297 C 0.61951 0.11661 0.95291 0.0
O298 O 0.58945 0.12927 0.98887 0.0
Co299 Co 0.5767 0.13024 0.94065 0.0
O300 O 0.5677 0.11244 0.96546 0.0
C301 C 0.57576 0.17507 0.95615 0.0
C302 C 0.63974 0.16726 0.98222 0.0
C303 C 0.57413 0.11605 0.98455 0.0
O304 O 0.59121 0.17125 0.96941 0.0
O305 O 0.56929 0.16149 0.94214 0.0
O306 O 0.62974 0.12052 0.97061 0.0
O307 O 0.60706 0.13184 0.94638 0.0
Co308 Co 0.38199 0.36924 0.97289 0.0
O309 O 0.35818 0.35211 0.96313 0.0
O310 O 0.36724 0.35691 0.9972 0.0
C311 C 0.37521 0.39859 0.95278 0.0
O312 O 0.40471 0.38639 0.989 0.0
Co313 Co 0.41762 0.38377 0.94094 0.0
O314 O 0.42645 0.40255 0.96513 0.0
C315 C 0.41753 0.33932 0.9574 0.0
C316 C 0.35392 0.3489 0.98325 0.0
C317 C 0.41996 0.39955 0.98431 0.0
O318 O 0.40226 0.34385 0.97063 0.0
O319 O 0.42429 0.35239 0.94305 0.0
O320 O 0.36475 0.39533 0.97049 0.0
O321 O 0.38722 0.38287 0.94661 0.0
Co322 Co 0.89193 0.13866 0.02137 0.0
O323 O 0.86689 0.15385 0.03119 0.0
O324 O 0.87631 0.15005 0.99708 0.0
C325 C 0.88753 0.10879 0.04136 0.0
O326 O 0.91615 0.12358 0.00531 0.0
Co327 Co 0.92838 0.12699 0.05365 0.0
O328 O 0.93899 0.10933 0.02937 0.0
C329 C 0.92523 0.17118 0.03665 0.0
C330 C 0.8626 0.15721 0.01111 0.0
C331 C 0.93252 0.11189 0.01013 0.0
O332 O 0.91 0.16558 0.02379 0.0
O333 O 0.93313 0.15864 0.05089 0.0
O334 O 0.87695 0.11115 0.02358 0.0
O335 O 0.8981 0.12545 0.04765 0.0
H336 H 0.11555 0.02933 0.58333 0.0
H337 H 0.10017 0.05842 0.56183 0.0
H338 H 0.07137 0.01186 0.51946 0.0
H339 H 0.08604 0.98289 0.54097 0.0
H340 H 0.10908 0.06755 0.52141 0.0
H341 H 0.02219 0.05234 0.52664 0.0
H342 H 0.0411 0.0399 0.54474 0.0
H343 H 0.03568 0.0282 0.51882 0.0
C344 C 0.1056 0.02528 0.56966 0.0
C345 C 0.1021 0.00372 0.56389 0.0
C346 C 0.09682 0.04195 0.5574 0.0
C347 C 0.08429 0.03736 0.53923 0.0
C348 C 0.08043 0.01586 0.53374 0.0
H349 H 0.07614 0.08686 0.41664 0.0
H350 H 0.08691 0.07498 0.4522 0.0
C351 C 0.08906 -0.00075 0.546 0.0
C352 C 0.07708 0.05471 0.52458 0.0
H353 H 0.03448 0.06979 0.49368 0.0
C354 C 0.09264 0.06842 0.51574 0.0
C355 C 0.05556 0.05632 0.51748 0.0
C356 C 0.03768 0.04354 0.52764 0.0
C357 C 0.08762 0.08228 0.49873 0.0
C358 C 0.06665 0.08203 0.49 0.0
C359 C 0.05067 0.06975 0.50009 0.0
C360 C 0.06164 0.09199 0.46896 0.0
C361 C 0.10505 0.09657 0.48987 0.0
C362 C 0.04374 0.10548 0.46642 0.0
C363 C 0.03737 0.11216 0.44591 0.0
C364 C 0.04871 0.10524 0.42767 0.0
C365 C 0.06712 0.09252 0.43038 0.0
C366 C 0.07342 0.08585 0.45078 0.0
H367 H 0.11653 0.1013 0.50268 0.0
H368 H 0.11422 0.08764 0.47749 0.0
H369 H 0.09832 0.11132 0.48247 0.0
H370 H 0.0343 0.11026 0.48021 0.0
H371 H 0.02302 0.12184 0.4443 0.0
H372 H 0.97096 0.36632 0.43467 0.0
H373 H 0.95856 0.37616 0.47061 0.0
H374 H 0.89804 0.39693 0.44405 0.0
H375 H 0.91073 0.38795 0.40807 0.0
H376 H 0.91679 0.42794 0.46528 0.0
H377 H 0.91795 0.35535 0.51648 0.0
H378 H 0.94288 0.35961 0.5027 0.0
H379 H 0.91894 0.35401 0.48754 0.0
C380 C 0.95478 0.37239 0.43662 0.0
C381 C 0.94182 0.37653 0.41863 0.0
C382 C 0.94765 0.37788 0.4572 0.0
C383 C 0.92729 0.38715 0.46009 0.0
C384 C 0.91379 0.38978 0.44223 0.0
H385 H 0.86612 0.4448 0.57113 0.0
H386 H 0.8772 0.41757 0.54494 0.0
C387 C 0.92105 0.38467 0.42167 0.0
C388 C 0.92144 0.39739 0.48079 0.0
H389 H 0.91692 0.38937 0.53492 0.0
C390 C 0.91658 0.41937 0.48043 0.0
C391 C 0.92119 0.38626 0.50061 0.0
C392 C 0.92532 0.36245 0.50188 0.0
C393 C 0.91179 0.43061 0.49923 0.0
C394 C 0.91242 0.41975 0.51913 0.0
C395 C 0.91679 0.39766 0.51963 0.0
C396 C 0.90843 0.43162 0.53928 0.0
C397 C 0.9061 0.45413 0.49764 0.0
C398 C 0.92285 0.4477 0.54561 0.0
C399 C 0.91649 0.46338 0.56027 0.0
C400 C 0.89572 0.463 0.56905 0.0
C401 C 0.88224 0.44544 0.56463 0.0
C402 C 0.88854 0.42987 0.54969 0.0
H403 H 0.90172 0.45881 0.481 0.0
H404 H 0.89248 0.45812 0.50843 0.0
H405 H 0.92013 0.46391 0.50261 0.0
H406 H 0.93833 0.44919 0.53782 0.0
H407 H 0.92726 0.47663 0.56357 0.0
H408 H 0.02528 0.87047 0.06746 0.0
H409 H 0.03666 0.88131 0.0314 0.0
H410 H 0.08625 0.92097 0.05909 0.0
H411 H 0.07549 0.90971 0.09487 0.0
H412 H 0.03443 0.92054 0.016 0.0
H413 H 0.11883 0.89503 0.0105 0.0
H414 H 0.10098 0.8848 0.03091 0.0
H415 H 0.11493 0.90988 0.03479 0.0
C416 C 0.03899 0.88103 0.06579 0.0
C417 C 0.04945 0.8893 0.084 0.0
C418 C 0.04544 0.88726 0.04519 0.0
C419 C 0.06251 0.90174 0.04247 0.0
C420 C 0.07344 0.90933 0.06066 0.0
H421 H 0.08072 0.00836 0.96533 0.0
H422 H 0.06746 0.97946 0.98781 0.0
C423 C 0.06711 0.90303 0.08118 0.0
C424 C 0.06735 0.91109 0.02109 0.0
H425 H 0.10928 0.92694 0.98965 0.0
C426 C 0.05073 0.92147 0.00995 0.0
C427 C 0.08849 0.91196 0.0128 0.0
C428 C 0.10673 0.89958 0.02279 0.0
C429 C 0.05498 0.93417 0.99185 0.0
C430 C 0.07647 0.93701 0.98507 0.0
C431 C 0.09282 0.92513 0.99505 0.0
C432 C 0.08266 0.95405 0.96961 0.0
C433 C 0.03642 0.94489 0.98058 0.0
C434 C 0.09588 0.9495 0.95192 0.0
C435 C 0.10381 0.96617 0.93907 0.0
C436 C 0.09882 0.98768 0.94385 0.0
C437 C 0.08497 0.99203 0.96115 0.0
C438 C 0.07714 0.97544 0.97394 0.0
H439 H 0.02164 0.93497 0.98179 0.0
H440 H 0.03303 0.96052 0.98842 0.0
H441 H 0.03998 0.94778 0.96336 0.0
H442 H 0.10049 0.93312 0.94837 0.0
H443 H 0.11446 0.96223 0.92591 0.0
H444 H 0.96636 0.6402 0.07652 0.0
H445 H 0.95493 0.63374 0.03945 0.0
H446 H 0.91007 0.58591 0.06172 0.0
H447 H 0.92077 0.59285 0.0986 0.0
H448 H 0.96006 0.59844 0.01771 0.0
H449 H 0.87347 0.61528 0.01855 0.0
H450 H 0.89096 0.62395 0.03997 0.0
H451 H 0.87955 0.59731 0.04012 0.0
C452 C 0.95368 0.62869 0.07352 0.0
C453 C 0.94451 0.61697 0.09048 0.0
C454 C 0.94719 0.625 0.05232 0.0
C455 C 0.93139 0.60957 0.04774 0.0
C456 C 0.92181 0.59836 0.06479 0.0
H457 H 0.92098 0.51257 0.95968 0.0
H458 H 0.93307 0.54082 0.98354 0.0
C459 C 0.92813 0.60217 0.08593 0.0
C460 C 0.92659 0.60319 0.02527 0.0
H461 H 0.88512 0.58729 0.99327 0.0
C462 C 0.94367 0.59654 0.01213 0.0
C463 C 0.90531 0.60125 0.01756 0.0
C464 C 0.88635 0.6101 0.02975 0.0
C465 C 0.93992 0.58612 0.99252 0.0
C466 C 0.91855 0.58168 0.9862 0.0
C467 C 0.90154 0.59024 0.99827 0.0
C468 C 0.91348 0.56572 0.96924 0.0
C469 C 0.95895 0.57936 0.97916 0.0
C470 C 0.89831 0.57015 0.95313 0.0
C471 C 0.89104 0.55378 0.93951 0.0
C472 C 0.89867 0.53266 0.94195 0.0
C473 C 0.91465 0.5286 0.95737 0.0
C474 C 0.92182 0.54487 0.97093 0.0
H475 H 0.9723 0.59106 0.98082 0.0
H476 H 0.96492 0.56362 0.98497 0.0
H477 H 0.95471 0.57789 0.96192 0.0
H478 H 0.89153 0.58609 0.95162 0.0
H479 H 0.8787 0.55746 0.92783 0.0
H480 H 0.41337 0.07591 0.08528 0.0
H481 H 0.44822 0.08779 0.07214 0.0
H482 H 0.47961 0.04059 0.11187 0.0
H483 H 0.44455 0.02805 0.12461 0.0
H484 H 0.48531 0.10315 0.08953 0.0
H485 H 0.49851 0.0231 0.05203 0.0
H486 H 0.47309 0.03075 0.06352 0.0
H487 H 0.49505 0.02323 0.08064 0.0
C488 C 0.42767 0.06821 0.09147 0.0
C489 C 0.4262 0.05077 0.10565 0.0
C490 C 0.44762 0.07508 0.08399 0.0
C491 C 0.46648 0.06474 0.09064 0.0
C492 C 0.46521 0.04843 0.10614 0.0
H493 H 0.58213 0.11879 0.02795 0.0
H494 H 0.55994 0.1046 0.05715 0.0
C495 C 0.44518 0.04141 0.11352 0.0
C496 C 0.487 0.07006 0.07983 0.0
H497 H 0.52336 0.05006 0.04404 0.0
C498 C 0.4939 0.09151 0.07984 0.0
C499 C 0.49801 0.05481 0.06707 0.0
C500 C 0.49078 0.03172 0.06559 0.0
C501 C 0.51072 0.0984 0.06653 0.0
C502 C 0.52133 0.08326 0.05331 0.0
C503 C 0.51526 0.06159 0.05428 0.0
C504 C 0.53644 0.08996 0.03616 0.0
C505 C 0.51593 0.12205 0.06566 0.0
C506 C 0.5312 0.08554 0.01472 0.0
C507 C 0.54395 0.09329 0.99807 0.0
C508 C 0.56223 0.1058 0.00245 0.0
C509 C 0.56804 0.10942 0.02399 0.0
C510 C 0.5553 0.10144 0.04071 0.0
H511 H 0.50351 0.13196 0.07377 0.0
H512 H 0.53148 0.12496 0.07382 0.0
H513 H 0.51741 0.12756 0.04878 0.0
H514 H 0.51676 0.07665 0.0108 0.0
H515 H 0.539 0.09002 0.98174 0.0
H516 H 0.58023 0.44277 0.08152 0.0
H517 H 0.545 0.43142 0.06901 0.0
H518 H 0.51494 0.47811 0.11038 0.0
H519 H 0.55047 0.49005 0.12263 0.0
H520 H 0.50874 0.41573 0.08817 0.0
H521 H 0.4936 0.49564 0.05106 0.0
H522 H 0.51956 0.48806 0.06136 0.0
H523 H 0.49836 0.49526 0.0795 0.0
C524 C 0.56614 0.45046 0.0882 0.0
C525 C 0.56811 0.46747 0.10285 0.0
C526 C 0.54598 0.44392 0.08107 0.0
C527 C 0.52736 0.45418 0.08846 0.0
C528 C 0.52914 0.47027 0.10415 0.0
H529 H 0.41198 0.39778 0.02772 0.0
H530 H 0.43381 0.41318 0.05657 0.0
C531 C 0.54942 0.47693 0.11128 0.0
C532 C 0.50651 0.44873 0.07834 0.0
H533 H 0.4695 0.46807 0.04286 0.0
C534 C 0.49985 0.42721 0.07857 0.0
C535 C 0.49511 0.46378 0.06572 0.0
C536 C 0.502 0.48696 0.06418 0.0
C537 C 0.48299 0.42003 0.06547 0.0
C538 C 0.47207 0.43494 0.05225 0.0
C539 C 0.47784 0.45671 0.05308 0.0
C540 C 0.45697 0.42787 0.03525 0.0
C541 C 0.47812 0.3963 0.06476 0.0
C542 C 0.46208 0.43197 0.01371 0.0
C543 C 0.44953 0.4235 0.99724 0.0
C544 C 0.4316 0.41058 0.00191 0.0
C545 C 0.42584 0.4074 0.02353 0.0
C546 C 0.43836 0.41609 0.04006 0.0
H547 H 0.49071 0.38661 0.07286 0.0
H548 H 0.46265 0.39321 0.07301 0.0
H549 H 0.47664 0.39066 0.04792 0.0
H550 H 0.4763 0.4411 0.0096 0.0
H551 H 0.45437 0.42652 0.98082 0.0
H552 H 0.56475 0.86161 0.44889 0.0
H553 H 0.53929 0.87552 0.42247 0.0
H554 H 0.54749 0.93933 0.44819 0.0
H555 H 0.57204 0.92519 0.47532 0.0
H556 H 0.50787 0.92809 0.45065 0.0
H557 H 0.53462 0.90927 0.36828 0.0
H558 H 0.53523 0.88582 0.38491 0.0
H559 H 0.5526 0.90814 0.391 0.0
C560 C 0.56173 0.87872 0.44831 0.0
C561 C 0.57016 0.89235 0.46415 0.0
C562 C 0.54724 0.88671 0.43312 0.0
C563 C 0.54144 0.90852 0.43326 0.0
C564 C 0.55163 0.92245 0.44778 0.0
H565 H 0.43527 0.96802 0.36278 0.0
H566 H 0.47165 0.95706 0.37307 0.0
C567 C 0.56568 0.91439 0.46325 0.0
C568 C 0.52206 0.91592 0.4215 0.0
H569 H 0.49626 0.91466 0.37306 0.0
C570 C 0.50559 0.92548 0.43359 0.0
C571 C 0.51895 0.91256 0.39923 0.0
C572 C 0.53641 0.90359 0.38509 0.0
C573 C 0.48595 0.93108 0.42429 0.0
C574 C 0.48237 0.9265 0.40239 0.0
C575 C 0.499 0.91776 0.38997 0.0
C576 C 0.46112 0.93043 0.39265 0.0
C577 C 0.46902 0.94165 0.43808 0.0
C578 C 0.44333 0.91852 0.3996 0.0
C579 C 0.4226 0.92477 0.39388 0.0
C580 C 0.41935 0.943 0.38104 0.0
C581 C 0.43729 0.95393 0.37275 0.0
C582 C 0.45807 0.94769 0.37856 0.0
H583 H 0.47597 0.94857 0.45297 0.0
H584 H 0.46068 0.95461 0.42912 0.0
H585 H 0.45686 0.92951 0.44278 0.0
H586 H 0.44545 0.90505 0.41039 0.0
H587 H 0.40911 0.91593 0.40037 0.0
H588 H 0.44962 0.5626 0.48875 0.0
H589 H 0.47165 0.55058 0.45907 0.0
H590 H 0.43802 0.59337 0.41628 0.0
H591 H 0.41621 0.60632 0.44644 0.0
H592 H 0.46603 0.53235 0.4207 0.0
H593 H 0.49861 0.61506 0.41046 0.0
H594 H 0.48134 0.60815 0.43259 0.0
H595 H 0.47034 0.61142 0.40613 0.0
C596 C 0.44668 0.56943 0.47304 0.0
C597 C 0.43147 0.58585 0.47013 0.0
C598 C 0.45925 0.56238 0.45598 0.0
C599 C 0.45689 0.57142 0.43552 0.0
C600 C 0.44052 0.58658 0.43206 0.0
H601 H 0.56123 0.51484 0.35735 0.0
H602 H 0.52457 0.52779 0.36364 0.0
C603 C 0.42795 0.59383 0.44928 0.0
C604 C 0.47309 0.56608 0.41887 0.0
H605 H 0.51734 0.5871 0.39431 0.0
C606 C 0.47703 0.54432 0.41448 0.0
C607 C 0.48739 0.58178 0.41076 0.0
C608 C 0.48439 0.60541 0.41525 0.0
C609 C 0.4959 0.53767 0.40411 0.0
C610 C 0.51086 0.55333 0.39721 0.0
C611 C 0.50588 0.57516 0.39971 0.0
C612 C 0.53312 0.54752 0.39094 0.0
C613 C 0.50045 0.51393 0.40237 0.0
C614 C 0.55027 0.55523 0.40338 0.0
C615 C 0.57117 0.54826 0.39953 0.0
C616 C 0.57539 0.53321 0.38332 0.0
C617 C 0.55841 0.52627 0.37013 0.0
C618 C 0.53744 0.53352 0.37381 0.0
H619 H 0.48891 0.50414 0.41181 0.0
H620 H 0.49922 0.50891 0.38534 0.0
H621 H 0.51693 0.51024 0.40807 0.0
H622 H 0.54737 0.56609 0.41665 0.0
H623 H 0.58389 0.55409 0.40984 0.0
H624 H 0.08709 0.41808 0.07567 0.0
H625 H 0.07617 0.45386 0.08675 0.0
H626 H 0.11668 0.48164 0.03794 0.0
H627 H 0.12708 0.44554 0.02611 0.0
H628 H 0.09483 0.49021 0.1008 0.0
H629 H 0.05823 0.50314 0.02024 0.0
H630 H 0.06934 0.47766 0.02815 0.0
H631 H 0.08682 0.4994 0.02086 0.0
C632 C 0.09394 0.43178 0.06744 0.0
C633 C 0.10758 0.42899 0.04973 0.0
C634 C 0.08775 0.45227 0.07387 0.0
C635 C 0.09521 0.47043 0.06286 0.0
C636 C 0.11031 0.46782 0.04632 0.0
H637 H 0.02942 0.58497 0.1158 0.0
H638 H 0.05994 0.56445 0.10179 0.0
C639 C 0.11637 0.4472 0.0397 0.0
C640 C 0.08529 0.49154 0.06766 0.0
H641 H 0.04945 0.52758 0.04718 0.0
C642 C 0.08523 0.49871 0.08902 0.0
C643 C 0.07275 0.50254 0.0522 0.0
C644 C 0.07158 0.4953 0.0291 0.0
C645 C 0.07169 0.51542 0.09573 0.0
C646 C 0.05832 0.52565 0.08048 0.0
C647 C 0.05972 0.51967 0.05881 0.0
C648 C 0.04035 0.53981 0.08707 0.0
C649 C 0.07057 0.52076 0.11934 0.0
C650 C 0.01926 0.53333 0.0826 0.0
C651 C 0.00187 0.54511 0.09027 0.0
C652 C 0.00514 0.56363 0.10273 0.0
C653 C 0.02632 0.57065 0.10645 0.0
C654 C 0.04379 0.55889 0.09856 0.0
H655 H 0.07936 0.50891 0.12934 0.0
H656 H 0.07783 0.53678 0.12212 0.0
H657 H 0.05363 0.52134 0.12484 0.0
H658 H 0.0162 0.51868 0.07373 0.0
H659 H 0.98584 0.53923 0.08695 0.0
H660 H 0.02753 0.41162 0.3912 0.0
H661 H 0.05764 0.43178 0.40649 0.0
H662 H 0.01336 0.46886 0.44467 0.0
H663 H 0.98346 0.44863 0.43007 0.0
H664 H 0.06471 0.47318 0.40142 0.0
H665 H 0.05917 0.45811 0.48815 0.0
H666 H 0.04534 0.44155 0.46878 0.0
H667 H 0.03333 0.46608 0.47841 0.0
C668 C 0.02425 0.42376 0.4032 0.0
C669 C 0.00302 0.42856 0.4093 0.0
C670 C 0.04149 0.43525 0.41193 0.0
C671 C 0.03783 0.45161 0.427 0.0
C672 C 0.01671 0.45593 0.43356 0.0
H673 H 0.07941 0.57535 0.44194 0.0
H674 H 0.06904 0.53985 0.42956 0.0
C675 C -0.00046 0.44445 0.42495 0.0
C676 C 0.05542 0.46608 0.43399 0.0
H677 H 0.07301 0.49365 0.47788 0.0
C678 C 0.06697 0.47724 0.4182 0.0
C679 C 0.05891 0.47107 0.45587 0.0
C680 C 0.04867 0.45834 0.47373 0.0
C681 C 0.08022 0.49463 0.42358 0.0
C682 C 0.08149 0.50133 0.44523 0.0
C683 C 0.0717 0.48883 0.46121 0.0
C684 C 0.0901 0.52269 0.45125 0.0
C685 C 0.09205 0.50614 0.40588 0.0
C686 C 0.10524 0.52496 0.46781 0.0
C687 C 0.11105 0.54541 0.47515 0.0
C688 C 0.10162 0.56383 0.46616 0.0
C689 C 0.08701 0.56148 0.44916 0.0
C690 C 0.08122 0.54115 0.4419 0.0
H691 H 0.09652 0.49483 0.39283 0.0
H692 H 0.08139 0.51853 0.3988 0.0
H693 H 0.10683 0.51408 0.41192 0.0
H694 H 0.11212 0.51093 0.47541 0.0
H695 H 0.12227 0.54675 0.48836 0.0
H696 H 0.91083 0.90125 0.44052 0.0
H697 H 0.92443 0.93675 0.43105 0.0
H698 H 0.89422 0.96362 0.4872 0.0
H699 H 0.88023 0.928 0.4967 0.0
H700 H 0.89381 0.99086 0.44742 0.0
H701 H 0.97378 0.9596 0.47095 0.0
H702 H 0.96005 0.94299 0.45178 0.0
H703 H 0.94905 0.94639 0.47824 0.0
C704 C 0.90664 0.91479 0.45059 0.0
C705 C 0.89466 0.91186 0.46944 0.0
C706 C 0.91443 0.93504 0.44517 0.0
C707 C 0.91058 0.95267 0.45861 0.0
C708 C 0.89736 0.95016 0.47666 0.0
H709 H 0.00452 0.05462 0.4474 0.0
H710 H 0.97781 0.0309 0.46361 0.0
C711 C 0.88938 0.92984 0.48204 0.0
C712 C 0.92238 0.97291 0.45488 0.0
H713 H 0.97335 0.99223 0.4512 0.0
C714 C 0.91119 0.99136 0.44847 0.0
C715 C 0.94496 0.9736 0.45683 0.0
C716 C 0.95769 0.95466 0.46503 0.0
C717 C 0.92221 0.01027 0.44288 0.0
C718 C 0.94496 0.01044 0.44331 0.0
C719 C 0.95595 0.99219 0.45071 0.0
C720 C 0.95804 0.02863 0.4351 0.0
C721 C 0.90935 0.02979 0.43663 0.0
C722 C 0.9554 0.03602 0.41394 0.0
C723 C 0.97042 0.05002 0.40483 0.0
C724 C 0.98861 0.05632 0.41654 0.0
C725 C 0.99067 0.04986 0.43802 0.0
C726 C 0.97541 0.03631 0.44727 0.0
H727 H 0.89339 0.0298 0.4446 0.0
H728 H 0.91787 0.04487 0.44084 0.0
H729 H 0.90656 0.02955 0.41904 0.0
H730 H 0.94252 0.02994 0.40399 0.0
H731 H 0.96863 0.05462 0.38816 0.0
H732 H 0.40897 0.58144 0.55592 0.0
H733 H 0.41624 0.54474 0.567 0.0
H734 H 0.36439 0.52207 0.52706 0.0
H735 H 0.35756 0.55898 0.51512 0.0
H736 H 0.39336 0.51387 0.58679 0.0
H737 H 0.41426 0.48797 0.50377 0.0
H738 H 0.40998 0.51577 0.51051 0.0
H739 H 0.38751 0.49787 0.50799 0.0
C740 C 0.39901 0.56871 0.54954 0.0
C741 C 0.38293 0.57306 0.53437 0.0
C742 C 0.40312 0.5477 0.55598 0.0
C743 C 0.39112 0.53058 0.54757 0.0
C744 C 0.37418 0.53497 0.53336 0.0
H745 H 0.44618 0.41311 0.60518 0.0
H746 H 0.41635 0.43489 0.59152 0.0
C747 C 0.37021 0.55606 0.52668 0.0
C748 C 0.39761 0.50833 0.553 0.0
H749 H 0.42295 0.46467 0.53171 0.0
C750 C 0.39945 0.50284 0.57476 0.0
C751 C 0.40543 0.49398 0.53721 0.0
C752 C 0.40437 0.49913 0.51356 0.0
C753 C 0.41066 0.48444 0.58129 0.0
C754 C 0.41967 0.47076 0.56553 0.0
C755 C 0.41603 0.47519 0.54373 0.0
C756 C 0.43633 0.45466 0.57109 0.0
C757 C 0.41436 0.48091 0.60498 0.0
C758 C 0.45717 0.4576 0.56311 0.0
C759 C 0.47408 0.44505 0.57056 0.0
C760 C 0.47061 0.42931 0.58635 0.0
C761 C 0.44946 0.42528 0.59322 0.0
C762 C 0.4324 0.43781 0.58555 0.0
H763 H 0.40898 0.49478 0.61481 0.0
H764 H 0.40528 0.46656 0.6103 0.0
H765 H 0.43165 0.47807 0.60827 0.0
H766 H 0.46061 0.4704 0.55185 0.0
H767 H 0.49006 0.44842 0.5646 0.0
H768 H 0.5462 0.51825 0.05682 0.0
H769 H 0.53194 0.54404 0.03087 0.0
H770 H 0.59261 0.57741 0.03071 0.0
H771 H 0.60662 0.55214 0.0574 0.0
H772 H 0.55675 0.6047 0.02205 0.0
H773 H 0.55731 0.531 0.97173 0.0
H774 H 0.54041 0.52933 0.99498 0.0
H775 H 0.56901 0.53177 0.99816 0.0
C776 C 0.55617 0.53159 0.05185 0.0
C777 C 0.57755 0.5331 0.0588 0.0
C778 C 0.54806 0.54626 0.03701 0.0
C779 C 0.56145 0.56221 0.02843 0.0
C780 C 0.58207 0.56512 0.03706 0.0
H781 H 0.56015 0.59982 0.89663 0.0
H782 H 0.57029 0.59004 0.93318 0.0
C783 C 0.59005 0.5507 0.05231 0.0
C784 C 0.55547 0.57309 0.00816 0.0
H785 H 0.54512 0.56265 0.95544 0.0
C786 C 0.55412 0.59558 0.00747 0.0
C787 C 0.55249 0.56111 0.98907 0.0
C788 C 0.55506 0.537 0.98838 0.0
C789 C 0.54974 0.6064 0.98812 0.0
C790 C 0.54645 0.59432 0.96918 0.0
C791 C 0.54767 0.57187 0.96999 0.0
C792 C 0.54225 0.60424 0.94799 0.0
C793 C 0.54921 0.63059 0.98796 0.0
C794 C 0.52345 0.61611 0.94426 0.0
C795 C 0.51775 0.62196 0.92333 0.0
C796 C 0.53061 0.61567 0.90587 0.0
C797 C 0.54993 0.6048 0.90979 0.0
C798 C 0.55574 0.59922 0.93065 0.0
H799 H 0.55706 0.63748 0.00241 0.0
H800 H 0.55726 0.63701 0.97342 0.0
H801 H 0.53225 0.63606 0.98773 0.0
H802 H 0.51259 0.61978 0.95732 0.0
H803 H 0.50265 0.63017 0.92072 0.0
H804 H 0.40178 0.96525 0.06955 0.0
H805 H 0.41743 0.93788 0.04603 0.0
H806 H 0.44941 0.98738 0.00973 0.0
H807 H 0.43449 0.01459 0.03329 0.0
H808 H 0.40952 0.93378 0.00427 0.0
H809 H 0.49676 0.94429 0.01444 0.0
H810 H 0.47761 0.95553 0.03307 0.0
H811 H 0.48444 0.96962 0.00874 0.0
C812 C 0.41254 0.97026 0.05686 0.0
C813 C 0.41674 0.99216 0.05325 0.0
C814 C 0.42145 0.95459 0.04341 0.0
C815 C 0.43483 0.96053 0.02627 0.0
C816 C 0.4396 0.98231 0.02315 0.0
H817 H 0.4474 0.91883 0.89944 0.0
H818 H 0.43586 0.9308 0.93484 0.0
C819 C 0.4308 0.99792 0.03655 0.0
C820 C 0.44191 0.94452 0.01011 0.0
H821 H 0.48519 0.93019 0.97977 0.0
C822 C 0.42615 0.93261 -0.00076 0.0
C823 C 0.46364 0.94261 0.00375 0.0
C824 C 0.48157 0.95353 0.01581 0.0
C825 C 0.43131 0.92018 0.98119 0.0
C826 C 0.45269 0.92005 0.97354 0.0
C827 C 0.46872 0.93058 0.98539 0.0
C828 C 0.45841 0.91093 0.95231 0.0
C829 C 0.41369 0.90773 0.97019 0.0
C830 C 0.4751 0.89592 0.95028 0.0
C831 C 0.48189 0.88918 0.92996 0.0
C832 C 0.47221 0.8975 0.91134 0.0
C833 C 0.45512 0.91206 0.91346 0.0
C834 C 0.44839 0.9188 0.93373 0.0
H835 H 0.40089 0.90315 0.98173 0.0
H836 H 0.40624 0.91796 0.95767 0.0
H837 H 0.41999 0.89296 0.96245 0.0
H838 H 0.48316 0.88978 0.9644 0.0
H839 H 0.49517 0.87802 0.92883 0.0
H840 H 0.55636 0.40468 0.58493 0.0
H841 H 0.56741 0.41235 0.5483 0.0
H842 H 0.52575 0.36221 0.5249 0.0
H843 H 0.51384 0.35501 0.56173 0.0
H844 H 0.58607 0.38999 0.51635 0.0
H845 H 0.50305 0.41359 0.49279 0.0
H846 H 0.51024 0.40835 0.5203 0.0
H847 H 0.50675 0.38648 0.50182 0.0
C848 C 0.54962 0.39515 0.57205 0.0
C849 C 0.53393 0.37951 0.57618 0.0
C850 C 0.55604 0.39948 0.55108 0.0
C851 C 0.54709 0.38816 0.53379 0.0
C852 C 0.53246 0.37152 0.53794 0.0
H853 H 0.60339 0.44463 0.41624 0.0
H854 H 0.58974 0.41471 0.43787 0.0
C855 C 0.52581 0.36732 0.559 0.0
C856 C 0.55226 0.39515 0.51162 0.0
H857 H 0.5307 0.42208 0.46908 0.0
C858 C 0.57397 0.39663 0.50574 0.0
C859 C 0.53638 0.40373 0.49782 0.0
C860 C 0.5128 0.40315 0.50345 0.0
C861 C 0.58039 0.40815 0.48748 0.0
C862 C 0.56456 0.41785 0.47436 0.0
C863 C 0.54277 0.41463 0.47917 0.0
C864 C 0.57019 0.43471 0.4585 0.0
C865 C 0.60409 0.41136 0.48353 0.0
C866 C 0.56269 0.45564 0.46202 0.0
C867 C 0.57013 0.47261 0.44956 0.0
C868 C 0.58542 0.46912 0.43332 0.0
C869 C 0.59182 0.44792 0.42878 0.0
C870 C 0.58417 0.43082 0.44124 0.0
H871 H 0.61408 0.40545 0.49707 0.0
H872 H 0.6089 0.40247 0.46888 0.0
H873 H 0.60774 0.42862 0.48099 0.0
H874 H 0.55182 0.45907 0.47515 0.0
H875 H 0.56455 0.48863 0.45335 0.0
H876 H 0.44399 0.08419 0.57763 0.0
H877 H 0.43215 0.07295 0.54218 0.0
H878 H 0.48039 0.11317 0.51303 0.0
H879 H 0.49281 0.12413 0.54882 0.0
H880 H 0.41741 0.09285 0.50586 0.0
H881 H 0.4965 0.05347 0.49162 0.0
H882 H 0.48892 0.06384 0.51754 0.0
H883 H 0.49665 0.08191 0.49646 0.0
C884 C 0.45189 0.09093 0.5637 0.0
C885 C 0.46951 0.1048 0.56599 0.0
C886 C 0.44506 0.08454 0.54342 0.0
C887 C 0.45564 0.0919 0.52497 0.0
C888 C 0.47228 0.10698 0.52709 0.0
H889 H 0.39772 0.02812 0.41193 0.0
H890 H 0.41368 0.05791 0.43207 0.0
C891 C 0.47922 0.11337 0.54751 0.0
C892 C 0.45013 0.08202 0.50404 0.0
H893 H 0.46861 0.04505 0.46808 0.0
C894 C 0.42867 0.08274 0.49724 0.0
C895 C 0.4649 0.06877 0.49297 0.0
C896 C 0.48801 0.06674 0.49999 0.0
C897 C 0.42115 0.06935 0.48076 0.0
C898 C 0.43571 0.05531 0.47038 0.0
C899 C 0.45752 0.05584 0.47606 0.0
C900 C 0.42816 0.03766 0.45628 0.0
C901 C 0.39741 0.06912 0.47586 0.0
C902 C 0.43192 0.01637 0.46258 0.0
C903 C 0.42314 -0.00064 0.45099 0.0
C904 C 0.41025 0.00324 0.43288 0.0
C905 C 0.40733 0.02456 0.42597 0.0
C906 C 0.41634 0.04163 0.43752 0.0
H907 H 0.38795 0.07819 0.48795 0.0
H908 H 0.3946 0.07661 0.45996 0.0
H909 H 0.39126 0.05241 0.47528 0.0
H910 H 0.44105 0.01289 0.47696 0.0
H911 H 0.42594 0.98319 0.45672 0.0
H912 H 0.03579 0.55433 0.51239 0.0
H913 H 0.01342 0.54251 0.54189 0.0
H914 H 0.04881 0.58307 0.58547 0.0
H915 H 0.07099 0.59584 0.5555 0.0
H916 H 0.01818 0.52336 0.57994 0.0
H917 H 0.98924 0.60724 0.59168 0.0
H918 H 0.0062 0.59998 0.56943 0.0
H919 H 0.01731 0.60228 0.59595 0.0
C920 C 0.03906 0.56068 0.52824 0.0
C921 C 0.05487 0.57647 0.53144 0.0
C922 C 0.02629 0.55375 0.54519 0.0
C923 C 0.02905 0.56228 0.56584 0.0
C924 C 0.046 0.5767 0.56955 0.0
H925 H 0.92129 0.50959 0.64234 0.0
H926 H 0.9587 0.52066 0.63666 0.0
C927 C 0.05878 0.58384 0.55244 0.0
C928 C 0.0126 0.55734 0.58238 0.0
H929 H 0.96917 0.57984 0.60711 0.0
C930 C 0.00769 0.5357 0.58635 0.0
C931 C 0.99898 0.57351 0.59075 0.0
C932 C 0.00302 0.59706 0.58671 0.0
C933 C 0.98849 0.5297 0.59652 0.0
C934 C 0.97418 0.54588 0.6036 0.0
C935 C 0.98014 0.56751 0.60156 0.0
C936 C 0.95158 0.54098 0.60939 0.0
C937 C 0.98286 0.50616 0.59784 0.0
C938 C 0.93506 0.54956 0.5967 0.0
C939 C 0.91378 0.54363 0.60016 0.0
C940 C 0.90852 0.52879 0.61626 0.0
C941 C 0.92491 0.52091 0.62966 0.0
C942 C 0.94629 0.52709 0.62634 0.0
H943 H 0.99418 0.49599 0.58854 0.0
H944 H 0.98345 0.5009 0.61483 0.0
H945 H 0.96637 0.50329 0.59171 0.0
H946 H 0.93871 0.56034 0.58355 0.0
H947 H 0.90154 0.55015 0.58968 0.0
H948 H 0.94775 0.92788 0.51747 0.0
H949 H 0.97443 0.93891 0.54403 0.0
H950 H 0.96547 0.87933 0.57802 0.0
H951 H 0.9383 0.86835 0.55167 0.0
H952 H 0.97646 0.91791 0.60495 0.0
H953 H 0.03067 0.90277 0.53583 0.0
H954 H 0.00955 0.92165 0.53045 0.0
H955 H 0.00304 0.89412 0.53613 0.0
C956 C 0.95093 0.91745 0.53102 0.0
C957 C 0.94124 0.89714 0.53238 0.0
C958 C 0.96614 0.92377 0.54617 0.0
C959 C 0.97218 0.90973 0.56268 0.0
C960 C 0.96102 0.89035 0.56534 0.0
H961 H 0.10361 0.91415 0.60691 0.0
H962 H 0.06802 0.90068 0.59736 0.0
C963 C 0.9455 0.88412 0.5503 0.0
C964 C 0.99235 0.9137 0.57457 0.0
H965 H 0.04622 0.91861 0.56652 0.0
C966 C 0.99177 0.91795 0.59668 0.0
C967 C 0.0123 0.91323 0.56377 0.0
C968 C 0.01406 0.9075 0.54028 0.0
C969 C 0.01073 0.92249 0.60814 0.0
C970 C 0.03057 0.92306 0.59705 0.0
C971 C 0.03105 0.91821 0.57507 0.0
C972 C 0.05113 0.92938 0.60733 0.0
C973 C 0.00933 0.92645 0.63197 0.0
C974 C 0.05342 0.94969 0.61683 0.0
C975 C 0.07376 0.95727 0.62263 0.0
C976 C 0.09213 0.94482 0.61858 0.0
C977 C 0.08971 0.92409 0.61013 0.0
C978 C 0.06938 0.91639 0.60468 0.0
H979 H 0.99494 0.91861 0.63901 0.0
H980 H 0.02385 0.92047 0.6404 0.0
H981 H 0.00795 0.94396 0.63491 0.0
H982 H 0.03972 0.96024 0.61855 0.0
H983 H 0.0752 0.9734 0.62895 0.0
H984 H 0.05734 0.3934 0.96805 0.0
H985 H 0.03179 0.40817 0.94221 0.0
H986 H 0.02551 0.46523 0.98103 0.0
H987 H 0.05008 0.44993 0.00743 0.0
H988 H 0.9884 0.4492 0.97429 0.0
H989 H 0.0294 0.45177 0.89576 0.0
H990 H 0.03112 0.42553 0.90738 0.0
H991 H 0.04384 0.44791 0.92057 0.0
C992 C 0.05096 0.40935 0.97073 0.0
C993 C 0.05557 0.42049 0.98978 0.0
C994 C 0.03644 0.41787 0.95586 0.0
C995 C 0.02679 0.43793 0.95952 0.0
C996 C 0.03268 0.44971 0.97783 0.0
H997 H 0.92813 0.49903 0.88032 0.0
H998 H 0.96297 0.48873 0.89549 0.0
C999 C 0.04676 0.44099 0.9929 0.0
C1000 C 0.00831 0.44514 0.94626 0.0
H1001 H 0.99053 0.45185 0.89477 0.0
C1002 C 0.98906 0.45006 0.95691 0.0
C1003 C 0.00907 0.44645 0.92357 0.0
C1004 C 0.02955 0.44285 0.91119 0.0
C1005 C 0.97048 0.45565 0.94561 0.0
C1006 C 0.97086 0.45557 0.92293 0.0
C1007 C 0.99021 0.45142 0.91217 0.0
C1008 C 0.95109 0.45974 0.91044 0.0
C1009 C 0.9506 0.46168 0.95812 0.0
C1010 C 0.9332 0.4463 0.91297 0.0
C1011 C 0.91332 0.45222 0.90455 0.0
C1012 C 0.91109 0.47151 0.89314 0.0
C1013 C 0.92941 0.48404 0.88902 0.0
C1014 C 0.9493 0.47821 0.89769 0.0
H1015 H 0.95458 0.46679 0.97474 0.0
H1016 H 0.9417 0.47489 0.95012 0.0
H1017 H 0.93982 0.44755 0.95919 0.0
H1018 H 0.93438 0.43177 0.92244 0.0
H1019 H 0.89949 0.4422 0.90781 0.0
H1020 H 0.0985 0.07341 0.91575 0.0
H1021 H 0.0633 0.08499 0.9283 0.0
H1022 H 0.03289 0.0397 0.88566 0.0
H1023 H 0.06827 0.02751 0.87342 0.0
H1024 H 0.02688 0.10142 0.90958 0.0
H1025 H 0.01165 0.02055 0.9444 0.0
H1026 H 0.03761 0.02836 0.93426 0.0
H1027 H 0.0164 0.02141 0.91599 0.0
C1028 C 0.08434 0.06605 0.90883 0.0
C1029 C 0.08616 0.04929 0.89387 0.0
C1030 C 0.06421 0.07275 0.91598 0.0
C1031 C 0.0455 0.0629 0.90824 0.0
C1032 C 0.04717 0.04718 0.89218 0.0
H1033 H 0.92656 0.11506 0.96642 0.0
H1034 H 0.95043 0.10168 0.93813 0.0
C1035 C 0.06737 0.04035 0.8851 0.0
C1036 C 0.02462 0.06813 0.9184 0.0
H1037 H 0.9866 0.04747 0.952 0.0
C1038 C 0.01782 0.0896 0.91859 0.0
C1039 C 0.01299 0.05264 0.93026 0.0
C1040 C 0.02003 0.02948 0.93144 0.0
C1041 C 0.00036 0.09624 0.93121 0.0
C1042 C 0.9891 0.08085 0.94355 0.0
C1043 C 0.9952 0.05919 0.94242 0.0
C1044 C 0.97317 0.08722 0.96005 0.0
C1045 C 0.99506 0.11986 0.93231 0.0
C1046 C 0.97751 0.08269 0.98166 0.0
C1047 C 0.96385 0.09002 0.99777 0.0
C1048 C 0.9455 0.10217 0.99268 0.0
C1049 C 0.94064 0.10591 0.97093 0.0
C1050 C 0.95433 0.09842 0.95474 0.0
H1051 H 0.00773 0.12994 0.92485 0.0
H1052 H 0.97979 0.12287 0.92365 0.0
H1053 H 0.99292 0.12505 0.94922 0.0
H1054 H 0.9919 0.07402 0.98614 0.0
H1055 H 0.96808 0.08665 0.01428 0.0
H1056 H 0.5212 0.05915 0.54129 0.0
H1057 H 0.5469 0.03342 0.52642 0.0
H1058 H 0.57967 0.03094 0.58734 0.0
H1059 H 0.55454 0.05741 0.60196 0.0
H1060 H 0.60721 0.0228 0.55184 0.0
H1061 H 0.53256 0.97383 0.54958 0.0
H1062 H 0.53176 0.99756 0.5333 0.0
H1063 H 0.53355 -0.0001 0.56202 0.0
C1064 C 0.5344 0.05373 0.5512 0.0
C1065 C 0.53575 0.05994 0.57282 0.0
C1066 C 0.54902 0.03901 0.54275 0.0
C1067 C 0.56474 0.0298 0.556 0.0
C1068 C 0.56756 0.03776 0.57689 0.0
H1069 H 0.60047 0.89814 0.55699 0.0
H1070 H 0.59104 0.93514 0.56572 0.0
C1071 C 0.55321 0.05289 0.58523 0.0
C1072 C 0.57537 0.00951 0.5496 0.0
H1073 H 0.56429 0.95707 0.53848 0.0
C1074 C 0.59789 0.00842 0.54878 0.0
C1075 C 0.56313 0.9907 0.546 0.0
C1076 C 0.53894 0.9904 0.54794 0.0
C1077 C 0.60847 0.9889 0.5445 0.0
C1078 C 0.59614 0.97021 0.54083 0.0
C1079 C 0.57368 0.97146 0.54133 0.0
C1080 C 0.60579 0.94876 0.53739 0.0
C1081 C 0.63267 0.98824 0.54461 0.0
C1082 C 0.61784 0.94424 0.51889 0.0
C1083 C 0.62346 0.92303 0.51398 0.0
C1084 C 0.6168 0.90612 0.52735 0.0
C1085 C 0.60575 0.91086 0.54638 0.0
C1086 C 0.60036 0.93198 0.55138 0.0
H1087 H 0.6397 0.00288 0.55197 0.0
H1088 H 0.63853 0.97394 0.55349 0.0
H1089 H 0.63856 0.98705 0.52785 0.0
H1090 H 0.62184 0.95689 0.50768 0.0
H1091 H 0.63183 0.91978 0.4991 0.0
H1092 H 0.59484 0.10293 0.91949 0.0
H1093 H 0.58819 0.06596 0.90858 0.0
H1094 H 0.63528 0.04375 0.95422 0.0
H1095 H 0.64151 0.08082 0.9658 0.0
H1096 H 0.61193 0.03225 0.89292 0.0
H1097 H 0.58104 0.01439 0.97491 0.0
H1098 H 0.58717 0.04132 0.96637 0.0
H1099 H 0.60847 0.02307 0.97308 0.0
C1100 C 0.60397 0.09024 0.92707 0.0
C1101 C 0.61836 0.09474 0.94382 0.0
C1102 C 0.60023 0.06909 0.92073 0.0
C1103 C 0.61091 0.05206 0.9309 0.0
C1104 C 0.62651 0.05662 0.9465 0.0
H1105 H 0.55844 0.92919 0.88076 0.0
H1106 H 0.58724 0.95299 0.89343 0.0
C1107 C 0.63011 0.07781 0.95302 0.0
C1108 C 0.60393 0.02975 0.92639 0.0
H1109 H 0.575 0.98878 0.94836 0.0
C1110 C 0.60422 0.02247 0.90507 0.0
C1111 C 0.59392 0.01706 0.94236 0.0
C1112 C 0.59243 0.02432 0.96544 0.0
C1113 C 0.59331 0.00371 0.89897 0.0
C1114 C 0.58221 0.99171 0.91475 0.0
C1115 C 0.58354 0.99802 0.93633 0.0
C1116 C 0.56576 0.97552 0.9089 0.0
C1117 C 0.5923 0.99787 0.87548 0.0
C1118 C 0.54431 0.97974 0.91422 0.0
C1119 C 0.528 0.96614 0.90735 0.0
C1120 C 0.53266 0.94796 0.89481 0.0
C1121 C 0.55428 0.94313 0.89027 0.0
C1122 C 0.57074 0.9568 0.89735 0.0
H1123 H 0.59952 0.01043 0.86509 0.0
H1124 H 0.60118 0.98268 0.87278 0.0
H1125 H 0.57539 0.99534 0.87041 0.0
H1126 H 0.54005 0.99406 0.92313 0.0
H1127 H 0.51162 0.97036 0.91137 0.0
H1128 H 0.44984 0.56545 0.86417 0.0
H1129 H 0.42312 0.54038 0.87822 0.0
H1130 H 0.45277 0.54388 0.94074 0.0
H1131 H 0.48015 0.56802 0.92638 0.0
H1132 H 0.45212 0.50484 0.92777 0.0
H1133 H 0.37065 0.53726 0.91463 0.0
H1134 H 0.38602 0.53788 0.89033 0.0
H1135 H 0.39435 0.55387 0.91295 0.0
C1136 C 0.45014 0.56144 0.88109 0.0
C1137 C 0.46708 0.56846 0.89419 0.0
C1138 C 0.43478 0.54718 0.88916 0.0
C1139 C 0.43583 0.54023 0.9106 0.0
C1140 C 0.45164 0.54893 0.92414 0.0
H1141 H 0.36193 0.4367 0.97016 0.0
H1142 H 0.37371 0.47268 0.95948 0.0
C1143 C 0.46726 0.56273 0.91596 0.0
C1144 C 0.4233 0.52125 0.91777 0.0
H1145 H 0.37331 0.49853 0.91826 0.0
C1146 C 0.43483 0.50371 0.926 0.0
C1147 C 0.40072 0.51964 0.91554 0.0
C1148 C 0.38722 0.53828 0.90809 0.0
C1149 C 0.42461 0.48448 0.9314 0.0
C1150 C 0.40231 0.48242 0.92791 0.0
C1151 C 0.3905 0.5001 0.92048 0.0
C1152 C 0.39143 0.46171 0.93173 0.0
C1153 C 0.43784 0.46638 0.94065 0.0
C1154 C 0.39676 0.44386 0.9191 0.0
C1155 C 0.3902 0.42335 0.9252 0.0
C1156 C 0.37811 0.42039 0.94398 0.0
C1157 C 0.37129 0.43849 0.95563 0.0
C1158 C 0.37796 0.45905 0.94955 0.0
H1159 H 0.45346 0.47217 0.94705 0.0
H1160 H 0.42904 0.45811 0.95376 0.0
H1161 H 0.4412 0.45443 0.92788 0.0
H1162 H 0.40702 0.44569 0.90518 0.0
H1163 H 0.39554 0.40972 0.91581 0.0
H1164 H 0.88423 0.06993 0.02134 0.0
H1165 H 0.89937 0.03589 0.03364 0.0
H1166 H 0.91688 0.06541 0.0938 0.0
H1167 H 0.90255 0.09966 0.0812 0.0
H1168 H 0.95022 0.0475 0.07583 0.0
H1169 H 0.88376 0.98859 0.07443 0.0
H1170 H 0.88668 0.00233 0.04932 0.0
H1171 H 0.87921 0.01716 0.07296 0.0
C1172 C 0.89074 0.06898 0.03743 0.0
C1173 C 0.89228 0.08741 0.05033 0.0
C1174 C 0.89931 0.04946 0.04449 0.0
C1175 C 0.90912 0.04799 0.06474 0.0
C1176 C 0.90939 0.06613 0.07813 0.0
H1177 H 0.969 0.93654 0.12418 0.0
H1178 H 0.94301 0.96377 0.11272 0.0
C1179 C 0.90116 0.08569 0.07095 0.0
C1180 C 0.92165 0.02866 0.07081 0.0
H1181 H 0.9195 0.97406 0.07576 0.0
C1182 C 0.94339 0.03149 0.07601 0.0
C1183 C 0.91276 0.00774 0.07115 0.0
C1184 C 0.88927 0.00377 0.06688 0.0
C1185 C 0.95656 0.01407 0.08127 0.0
C1186 C 0.94797 0.99306 0.08062 0.0
C1187 C 0.92613 0.99016 0.07587 0.0
C1188 C 0.96159 0.97412 0.08528 0.0
C1189 C 0.9795 0.01845 0.08781 0.0
C1190 C 0.98007 0.97021 0.07301 0.0
C1191 C 0.99504 0.95493 0.07966 0.0
C1192 C 0.99156 0.94297 0.09845 0.0
C1193 C 0.97212 0.94554 0.10964 0.0
C1194 C 0.95726 0.96109 0.10313 0.0
H1195 H 0.98171 0.03529 0.09325 0.0
H1196 H 0.98465 0.00756 0.10093 0.0
H1197 H 0.9902 0.01582 0.07382 0.0
H1198 H 0.98342 0.97971 0.05886 0.0
H1199 H 0.00972 0.95306 0.07053 0.0
H1200 H 0.97381 0.15253 0.35191 0.0
H1201 H 0.96701 0.18993 0.34185 0.0
H1202 H 0.03416 0.19833 0.32729 0.0
H1203 H 0.04105 0.16104 0.33718 0.0
H1204 H 0.98671 0.2234 0.36423 0.0
H1205 H 0.00459 0.22956 0.27724 0.0
H1206 H 0.99882 0.20431 0.29028 0.0
H1207 H 0.025 0.2162 0.29262 0.0
C1208 C 0.98702 0.16216 0.346 0.0
C1209 C 0.00798 0.15384 0.34543 0.0
C1210 C 0.98312 0.18355 0.3403 0.0
C1211 C 5e-05 0.19689 0.33367 0.0
C1212 C 0.02078 0.18826 0.33198 0.0
H1213 H 0.01702 0.33392 0.34425 0.0
H1214 H 0.02292 0.29554 0.33781 0.0
C1215 C 0.02471 0.16694 0.33777 0.0
C1216 C 0.99664 0.22036 0.33128 0.0
H1217 H 0.00219 0.26263 0.29668 0.0
C1218 C 0.98989 0.23192 0.34939 0.0
C1219 C 0.00095 0.23148 0.31194 0.0
C1220 C 0.00756 0.21976 0.29184 0.0
C1221 C 0.98772 0.2543 0.34882 0.0
C1222 C 0.99234 0.26545 0.32964 0.0
C1223 C 0.99882 0.25398 0.31139 0.0
C1224 C 0.99008 0.28906 0.32863 0.0
C1225 C 0.98074 0.26607 0.36882 0.0
C1226 C 0.96988 0.29816 0.32477 0.0
C1227 C 0.96644 0.32001 0.32847 0.0
C1228 C 0.98316 0.33313 0.33613 0.0
C1229 C 0.00383 0.32429 0.33828 0.0
C1230 C 0.00724 0.30236 0.33464 0.0
H1231 H 0.9781 0.25506 0.38259 0.0
H1232 H 0.99312 0.27806 0.37338 0.0
H1233 H 0.96561 0.27492 0.36561 0.0
H1234 H 0.95645 0.28809 0.3202 0.0
H1235 H 0.95034 0.32633 0.32661 0.0
H1236 H 0.01398 0.66558 0.15107 0.0
H1237 H 0.01875 0.70352 0.15873 0.0
H1238 H 0.96599 0.70119 0.20367 0.0
H1239 H 0.95995 0.66346 0.19426 0.0
H1240 H 0.96014 0.73336 0.18266 0.0
H1241 H 0.04571 0.73859 0.20198 0.0
H1242 H 0.04388 0.72599 0.17629 0.0
H1243 H 0.03248 0.71299 0.19961 0.0
C1244 C 0.00378 0.67302 0.16303 0.0
C1245 C 0.98672 0.66157 0.17223 0.0
C1246 C 0.00662 0.69479 0.16758 0.0
C1247 C 0.99309 0.70542 0.18222 0.0
C1248 C 0.97672 0.69354 0.19232 0.0
H1249 H 0.02915 0.84152 0.18983 0.0
H1250 H 0.02211 0.80469 0.20171 0.0
C1251 C 0.97335 0.67192 0.18711 0.0
C1252 C 0.9945 0.72925 0.18491 0.0
H1253 H 0.03031 0.77067 0.18505 0.0
C1254 C 0.97552 0.74144 0.18374 0.0
C1255 C 0.01433 0.7402 0.18704 0.0
C1256 C 0.03515 0.72866 0.19158 0.0
C1257 C 0.97594 0.76398 0.18325 0.0
C1258 C 0.99597 0.77477 0.18244 0.0
C1259 C 0.01486 0.76265 0.18505 0.0
C1260 C 0.99787 0.79821 0.17755 0.0
C1261 C 0.9548 0.7758 0.1838 0.0
C1262 C 0.9863 0.8073 0.1604 0.0
C1263 C 0.9896 0.82865 0.15436 0.0
C1264 C 0.00527 0.8411 0.16464 0.0
C1265 C 0.01682 0.83224 0.18181 0.0
C1266 C 0.01289 0.81113 0.18846 0.0
H1267 H 0.94289 0.76695 0.19369 0.0
H1268 H 0.95652 0.79223 0.19046 0.0
H1269 H 0.94817 0.77681 0.16731 0.0
H1270 H 0.97537 0.79767 0.15095 0.0
H1271 H 0.9809 0.83498 0.14069 0.0
H1272 H 0.32118 0.02285 0.15314 0.0
H1273 H 0.31015 0.01665 0.1904 0.0
H1274 H 0.3651 0.97534 0.19947 0.0
H1275 H 0.37476 0.97991 0.16178 0.0
H1276 H 0.3358 0.96086 0.22233 0.0
H1277 H 0.33601 0.04851 0.23753 0.0
H1278 H 0.31577 0.04076 0.21866 0.0
H1279 H 0.34378 0.03738 0.21207 0.0
C1280 C 0.33048 0.012 0.16305 0.0
C1281 C 0.34877 0.00182 0.15473 0.0
C1282 C 0.32442 0.00875 0.18443 0.0
C1283 C 0.33725 0.99624 0.19816 0.0
C1284 C 0.35492 0.9852 0.18939 0.0
H1285 H 0.36148 0.01367 0.33126 0.0
H1286 H 0.35514 0.01724 0.29285 0.0
C1287 C 0.36046 0.98775 0.16781 0.0
C1288 C 0.33316 0.9953 0.22175 0.0
H1289 H 0.3266 0.02635 0.26651 0.0
C1290 C 0.33383 0.97522 0.23198 0.0
C1291 C 0.33074 0.01402 0.23451 0.0
C1292 C 0.33175 0.03637 0.22517 0.0
C1293 C 0.33324 0.97334 0.25444 0.0
C1294 C 0.33039 0.99202 0.26716 0.0
C1295 C 0.32864 0.012 0.25686 0.0
C1296 C 0.33165 0.9916 0.29109 0.0
C1297 C 0.33715 0.95146 0.26412 0.0
C1298 C 0.31984 0.97675 0.30333 0.0
C1299 C 0.32407 0.97419 0.32525 0.0
C1300 C 0.33933 0.98722 0.3355 0.0
C1301 C 0.34948 0.00353 0.32378 0.0
C1302 C 0.34589 0.00552 0.30175 0.0
H1303 H 0.34501 0.9404 0.25254 0.0
H1304 H 0.34748 0.95255 0.27859 0.0
H1305 H 0.32157 0.94419 0.26872 0.0
H1306 H 0.30802 0.96648 0.2958 0.0
H1307 H 0.31595 0.96158 0.33403 0.0
H1308 H 0.67383 0.48308 0.15058 0.0
H1309 H 0.6844 0.48262 0.18847 0.0
H1310 H 0.63325 0.52711 0.20299 0.0
H1311 H 0.62415 0.52908 0.16494 0.0
H1312 H 0.66302 0.53512 0.22826 0.0
H1313 H 0.65441 0.44663 0.22985 0.0
H1314 H 0.67577 0.45512 0.21262 0.0
H1315 H 0.64838 0.46216 0.20631 0.0
C1316 C 0.66533 0.4932 0.16188 0.0
C1317 C 0.64823 0.50613 0.15495 0.0
C1318 C 0.67109 0.49265 0.18359 0.0
C1319 C 0.65907 0.5041 0.1989 0.0
C1320 C 0.64275 0.51796 0.19167 0.0
H1321 H 0.63144 0.46924 0.32834 0.0
H1322 H 0.63782 0.47058 0.28975 0.0
C1323 C 0.63756 0.51916 0.16987 0.0
C1324 C 0.66258 0.50107 0.22243 0.0
H1325 H 0.66538 0.46314 0.26196 0.0
C1326 C 0.66349 0.51935 0.23561 0.0
C1327 C 0.66299 0.4805 0.2322 0.0
C1328 C 0.66011 0.46001 0.21954 0.0
C1329 C 0.66382 0.51774 0.2581 0.0
C1330 C 0.66479 0.49717 0.26785 0.0
C1331 C 0.66484 0.47891 0.25462 0.0
C1332 C 0.66342 0.49413 0.2916 0.0
C1333 C 0.66167 0.53818 0.27097 0.0
C1334 C 0.67637 0.50597 0.30582 0.0
C1335 C 0.67215 0.50576 0.3279 0.0
C1336 C 0.65573 0.49278 0.33622 0.0
C1337 C 0.64437 0.4792 0.32233 0.0
C1338 C 0.64798 0.48006 0.30021 0.0
H1339 H 0.65486 0.55146 0.26121 0.0
H1340 H 0.65117 0.53583 0.28516 0.0
H1341 H 0.67778 0.54337 0.27653 0.0
H1342 H 0.68908 0.51616 0.29982 0.0
H1343 H 0.68116 0.51633 0.33836 0.0
H1344 H 0.33203 0.31511 0.96589 0.0
H1345 H 0.29412 0.30622 0.97177 0.0
H1346 H 0.28977 0.35714 0.01862 0.0
H1347 H 0.32795 0.36443 0.01428 0.0
H1348 H 0.2644 0.3288 0.03018 0.0
H1349 H 0.24946 0.33907 0.94304 0.0
H1350 H 0.26637 0.31656 0.94879 0.0
H1351 H 0.2755 0.34341 0.95469 0.0
C1352 C 0.32302 0.32387 0.9779 0.0
C1353 C 0.3328 0.34043 0.98964 0.0
C1354 C 0.30127 0.31908 0.98099 0.0
C1355 C 0.28868 0.33161 0.99495 0.0
C1356 C 0.29892 0.34727 0.00761 0.0
H1357 H 0.15917 0.37143 0.98017 0.0
H1358 H 0.1968 0.36139 0.97626 0.0
C1359 C 0.32082 0.35143 0.00518 0.0
C1360 C 0.26479 0.3296 0.99565 0.0
H1361 H 0.21965 0.33108 0.96449 0.0
C1362 C 0.25463 0.32933 0.01578 0.0
C1363 C 0.25189 0.33041 0.97689 0.0
C1364 C 0.26134 0.3326 0.95467 0.0
C1365 C 0.23223 0.33113 0.01778 0.0
C1366 C 0.21932 0.33164 -0.00098 0.0
C1367 C 0.22942 0.33062 0.97889 0.0
C1368 C 0.19569 0.33568 -0.00028 0.0
C1369 C 0.223 0.33395 0.04002 0.0
C1370 C 0.18205 0.3241 0.0135 0.0
C1371 C 0.16067 0.33045 0.01634 0.0
C1372 C 0.15226 0.34769 0.00454 0.0
C1373 C 0.16524 0.35793 0.9893 0.0
C1374 C 0.18681 0.35219 0.98711 0.0
H1375 H 0.23538 0.33932 0.05169 0.0
H1376 H 0.2098 0.34592 0.04009 0.0
H1377 H 0.21664 0.31836 0.04578 0.0
H1378 H 0.18809 0.31066 0.02268 0.0
H1379 H 0.15086 0.32225 0.02811 0.0
H1380 H 0.15801 0.63463 0.53611 0.0
H1381 H 0.19613 0.64451 0.53739 0.0
H1382 H 0.19237 0.66784 0.47238 0.0
H1383 H 0.15444 0.65799 0.47096 0.0
H1384 H 0.22506 0.62506 0.50729 0.0
H1385 H 0.22905 0.71404 0.50378 0.0
H1386 H 0.20554 0.69975 0.51302 0.0
H1387 H 0.21111 0.70171 0.48482 0.0
C1388 C 0.16515 0.64246 0.52234 0.0
C1389 C 0.15327 0.64545 0.50341 0.0
C1390 C 0.18693 0.64804 0.52306 0.0
C1391 C 0.19704 0.65702 0.50501 0.0
C1392 C 0.18484 0.66124 0.48659 0.0
H1393 H 0.32998 0.64426 0.46632 0.0
H1394 H 0.29103 0.65011 0.4659 0.0
C1395 C 0.16317 0.65549 0.48578 0.0
C1396 C 0.22074 0.65919 0.50428 0.0
H1397 H 0.2617 0.69509 0.49731 0.0
C1398 C 0.23307 0.64038 0.50526 0.0
C1399 C 0.23111 0.6792 0.50151 0.0
C1400 C 0.21859 0.69989 0.50088 0.0
C1401 C 0.25548 0.64099 0.50323 0.0
C1402 C 0.26584 0.66091 0.50004 0.0
C1403 C 0.25362 0.67982 0.49944 0.0
C1404 C 0.28953 0.6621 0.49843 0.0
C1405 C 0.26801 0.62029 0.50455 0.0
C1406 C 0.30159 0.66784 0.51651 0.0
C1407 C 0.32376 0.66443 0.51684 0.0
C1408 C 0.33424 0.65533 0.49903 0.0
C1409 C 0.32239 0.65139 0.48024 0.0
C1410 C 0.30013 0.65464 0.48 0.0
H1411 H 0.25786 0.60659 0.50974 0.0
H1412 H 0.27483 0.61648 0.48855 0.0
H1413 H 0.2816 0.622 0.51596 0.0
H1414 H 0.29366 0.67359 0.53089 0.0
H1415 H 0.33248 0.66769 0.53153 0.0
H1416 H 0.6638 0.80969 0.53149 0.0
H1417 H 0.7024 0.80252 0.53178 0.0
H1418 H 0.70656 0.82139 0.4654 0.0
H1419 H 0.66781 0.8285 0.46489 0.0
H1420 H 0.73501 0.77865 0.49484 0.0
H1421 H 0.73908 0.86625 0.513 0.0
H1422 H 0.71614 0.85032 0.52071 0.0
H1423 H 0.72046 0.85666 0.49302 0.0
C1424 C 0.67277 0.81161 0.51672 0.0
C1425 C 0.66281 0.81983 0.4982 0.0
C1426 C 0.69482 0.80746 0.51693 0.0
C1427 C 0.70725 0.81154 0.49866 0.0
C1428 C 0.69713 0.81805 0.47962 0.0
H1429 H 0.84162 0.81731 0.47028 0.0
H1430 H 0.80384 0.80705 0.47191 0.0
C1431 C 0.67499 0.82205 0.47934 0.0
C1432 C 0.7309 0.81244 0.50059 0.0
H1433 H 0.77167 0.8476 0.51066 0.0
C1434 C 0.74311 0.79367 0.49828 0.0
C1435 C 0.74126 0.83203 0.50541 0.0
C1436 C 0.7287 0.85255 0.50827 0.0
C1437 C 0.76562 0.79412 0.50033 0.0
C1438 C 0.77601 0.81384 0.50473 0.0
C1439 C 0.76367 0.83248 0.50742 0.0
C1440 C 0.79973 0.81605 0.50517 0.0
C1441 C 0.77811 0.77354 0.49792 0.0
C1442 C 0.81012 0.82418 0.52347 0.0
C1443 C 0.83182 0.83003 0.52261 0.0
C1444 C 0.84333 0.82819 0.50331 0.0
C1445 C 0.83317 0.81894 0.48539 0.0
C1446 C 0.81159 0.81293 0.48632 0.0
H1447 H 0.76774 0.75923 0.50029 0.0
H1448 H 0.78494 0.77274 0.48149 0.0
H1449 H 0.79161 0.77289 0.50954 0.0
H1450 H 0.80119 0.82686 0.53815 0.0
H1451 H 0.83917 0.83722 0.53663 0.0
H1452 H 0.49411 0.84813 0.80365 0.0
H1453 H 0.4946 0.81021 0.7931 0.0
H1454 H 0.52974 0.7949 0.85085 0.0
H1455 H 0.53093 0.83298 0.86021 0.0
H1456 H 0.54192 0.76928 0.82246 0.0
H1457 H 0.45311 0.76998 0.81727 0.0
H1458 H 0.46528 0.78697 0.79757 0.0
H1459 H 0.46815 0.79313 0.82572 0.0
C1460 C 0.50251 0.83664 0.81364 0.0
C1461 C 0.51259 0.84333 0.83263 0.0
C1462 C 0.50244 0.81494 0.80785 0.0
C1463 C 0.5114 0.79942 0.82159 0.0
C1464 C 0.52254 0.8064 0.83998 0.0
H1465 H 0.47044 0.67062 0.84354 0.0
H1466 H 0.47321 0.70921 0.83754 0.0
C1467 C 0.52332 0.82819 0.84532 0.0
C1468 C 0.50836 0.77597 0.81765 0.0
H1469 H 0.47026 0.7374 0.80899 0.0
C1470 C 0.52622 0.76233 0.81953 0.0
C1471 C 0.48783 0.76673 0.81406 0.0
C1472 C 0.46749 0.77993 0.81376 0.0
C1473 C 0.52411 0.73989 0.81879 0.0
C1474 C 0.50368 0.73068 0.81464 0.0
C1475 C 0.48595 0.74435 0.81193 0.0
C1476 C 0.49991 0.70702 0.8153 0.0
C1477 C 0.54366 0.72646 0.82386 0.0
C1478 C 0.51308 0.69266 0.8039 0.0
C1479 C 0.51192 0.67058 0.80789 0.0
C1480 C 0.49683 0.66241 0.82249 0.0
C1481 C 0.48207 0.67649 0.83202 0.0
C1482 C 0.48375 0.69861 0.82866 0.0
H1483 H 0.55605 0.73585 0.83261 0.0
H1484 H 0.53938 0.71232 0.83381 0.0
H1485 H 0.551 0.72076 0.80868 0.0
H1486 H 0.525 0.69856 0.79274 0.0
H1487 H 0.52343 0.65999 0.80029 0.0
H1488 H 0.51793 0.33552 0.68299 0.0
H1489 H 0.51795 0.29707 0.69138 0.0
H1490 H 0.47254 0.28616 0.64014 0.0
H1491 H 0.47098 0.32465 0.63332 0.0
H1492 H 0.46535 0.25852 0.66793 0.0
H1493 H 0.55377 0.25867 0.65747 0.0
H1494 H 0.54535 0.27396 0.68028 0.0
H1495 H 0.53787 0.28242 0.65361 0.0
C1496 C 0.50742 0.32489 0.6741 0.0
C1497 C 0.49444 0.33294 0.65755 0.0
C1498 C 0.50773 0.30288 0.67859 0.0
C1499 C 0.49603 0.28844 0.66576 0.0
C1500 C 0.48192 0.29679 0.65021 0.0
H1501 H 0.53186 0.1634 0.6242 0.0
H1502 H 0.52979 0.20109 0.63462 0.0
C1503 C 0.48094 0.31885 0.64635 0.0
C1504 C 0.49933 0.26474 0.66725 0.0
H1505 H 0.53769 0.22554 0.66509 0.0
C1506 C 0.4812 0.25133 0.66729 0.0
C1507 C 0.52002 0.2552 0.66622 0.0
C1508 C 0.54033 0.26829 0.66417 0.0
C1509 C 0.48301 0.22894 0.66521 0.0
C1510 C 0.5037 0.21939 0.66459 0.0
C1511 C 0.52184 0.23273 0.66568 0.0
C1512 C 0.50696 0.196 0.66043 0.0
C1513 C 0.46264 0.21612 0.66225 0.0
C1514 C 0.49569 0.18023 0.67201 0.0
C1515 C 0.49628 0.15874 0.66547 0.0
C1516 C 0.5091 0.15248 0.64803 0.0
C1517 C 0.52203 0.16782 0.63785 0.0
C1518 C 0.52077 0.18941 0.6438 0.0
H1519 H 0.44905 0.2264 0.65695 0.0
H1520 H 0.46482 0.2032 0.65018 0.0
H1521 H 0.458 0.20875 0.67777 0.0
H1522 H 0.48572 0.18461 0.68553 0.0
H1523 H 0.48624 0.14711 0.67361 0.0
H1524 H 0.85598 0.53251 0.83163 0.0
H1525 H 0.84576 0.53207 0.79388 0.0
H1526 H 0.79172 0.49129 0.80892 0.0
H1527 H 0.80337 0.49013 0.84644 0.0
H1528 H 0.80856 0.47516 0.77771 0.0
H1529 H 0.8053 0.56044 0.75642 0.0
H1530 H 0.83123 0.55551 0.76765 0.0
H1531 H 0.80748 0.55197 0.78397 0.0
C1532 C 0.84156 0.524 0.82692 0.0
C1533 C 0.83029 0.51157 0.84188 0.0
C1534 C 0.83558 0.52384 0.80528 0.0
C1535 C 0.81763 0.51198 0.79831 0.0
C1536 C 0.80563 0.50057 0.81368 0.0
H1537 H 0.80273 0.5234 0.6589 0.0
H1538 H 0.79284 0.5248 0.69691 0.0
C1539 C 0.81213 0.50006 0.83518 0.0
C1540 C 0.81304 0.50942 0.77489 0.0
H1541 H 0.81495 0.5361 0.72714 0.0
C1542 C 0.80944 0.48865 0.76676 0.0
C1543 C 0.81349 0.52686 0.7603 0.0
C1544 C 0.81431 0.54992 0.76765 0.0
C1545 C 0.80759 0.48473 0.74464 0.0
C1546 C 0.81075 0.50181 0.72998 0.0
C1547 C 0.81301 0.52276 0.73814 0.0
C1548 C 0.81333 0.49831 0.70638 0.0
C1549 C 0.80211 0.46227 0.73742 0.0
C1550 C 0.82745 0.48244 0.69864 0.0
C1551 C 0.83228 0.48104 0.67678 0.0
C1552 C 0.82385 0.49605 0.66229 0.0
C1553 C 0.80927 0.51151 0.66976 0.0
C1554 C 0.8038 0.51242 0.69153 0.0
H1555 H 0.79131 0.45432 0.74918 0.0
H1556 H 0.79413 0.46214 0.72149 0.0
H1557 H 0.81702 0.45255 0.73656 0.0
H1558 H 0.83578 0.47187 0.7096 0.0
H1559 H 0.84401 0.46932 0.67152 0.0
H1560 H 0.14961 0.01659 0.66711 0.0
H1561 H 0.1576 0.02145 0.705 0.0
H1562 H 0.20607 0.972 0.7012 0.0
H1563 H 0.19646 0.96578 0.66359 0.0
H1564 H 0.1853 0.96381 0.73309 0.0
H1565 H 0.19928 0.05024 0.7407 0.0
H1566 H 0.17369 0.04708 0.72812 0.0
H1567 H 0.19766 0.03758 0.71475 0.0
C1568 C 0.16242 0.00722 0.67422 0.0
C1569 C 0.17255 0.99094 0.66244 0.0
C1570 C 0.16714 0.0101 0.69595 0.0
C1571 C 0.1828 0.99741 0.70616 0.0
C1572 C 0.19391 0.98203 0.69388 0.0
H1573 H 0.18921 0.02957 0.84318 0.0
H1574 H 0.20128 0.02423 0.80615 0.0
C1575 C 0.18857 0.97858 0.67233 0.0
C1576 C 0.18548 0.99834 0.72998 0.0
H1577 H 0.18361 0.03287 0.77241 0.0
C1578 C 0.18548 0.97899 0.74161 0.0
C1579 C 0.18642 0.01794 0.74148 0.0
C1580 C 0.18954 0.03931 0.73051 0.0
C1581 C 0.18499 0.97873 0.76414 0.0
C1582 C 0.18304 0.99835 0.77548 0.0
C1583 C 0.1845 0.0177 0.76394 0.0
C1584 C 0.1781 -0.00073 0.79893 0.0
C1585 C 0.18671 0.95734 0.77536 0.0
C1586 C 0.16145 0.98671 0.80762 0.0
C1587 C 0.15525 0.98911 0.82905 0.0
C1588 C 0.16489 0.0048 0.84197 0.0
C1589 C 0.18165 0.01725 0.83351 0.0
C1590 C 0.18842 0.01428 0.8123 0.0
H1591 H 0.19717 0.94621 0.76615 0.0
H1592 H 0.19334 0.95898 0.79181 0.0
H1593 H 0.17057 0.94985 0.77626 0.0
H1594 H 0.1525 0.97568 0.79764 0.0
H1595 H 0.14194 0.97968 0.83508 0.0
H1596 H 0.84314 0.19334 0.02617 0.0
H1597 H 0.80588 0.20444 0.01995 0.0
H1598 H 0.79695 0.14995 0.97801 0.0
H1599 H 0.83466 0.14026 0.98261 0.0
H1600 H 0.77437 0.17936 0.96359 0.0
H1601 H 0.75824 0.17874 0.05105 0.0
H1602 H 0.77725 0.19896 0.04363 0.0
H1603 H 0.78381 0.17096 0.04017 0.0
C1604 C 0.83325 0.18415 0.0152 0.0
C1605 C 0.84162 0.16601 0.00481 0.0
C1606 C 0.81187 0.19025 0.01193 0.0
C1607 C 0.79818 0.17758 -0.0008 0.0
C1608 C 0.80699 0.16001 0.98803 0.0
H1609 H 0.66481 0.15356 0.01486 0.0
H1610 H 0.70316 0.15999 0.01911 0.0
C1611 C 0.82857 0.15446 0.9906 0.0
C1612 C 0.7746 0.18178 0.99804 0.0
H1613 H 0.72951 0.18837 0.02862 0.0
C1614 C 0.76458 0.18128 0.97785 0.0
C1615 C 0.76164 0.18417 0.01663 0.0
C1616 C 0.77074 0.18302 0.03907 0.0
C1617 C 0.74213 0.18194 0.97572 0.0
C1618 C 0.72921 0.18475 0.99427 0.0
C1619 C 0.73931 0.18637 0.01437 0.0
C1620 C 0.70527 0.18354 0.99356 0.0
C1621 C 0.73268 0.17814 0.95372 0.0
C1622 C 0.69322 0.19538 0.97858 0.0
C1623 C 0.67135 0.19108 0.97563 0.0
C1624 C 0.66094 0.17574 0.98842 0.0
C1625 C 0.67242 0.16561 0.00492 0.0
C1626 C 0.69442 0.16926 0.00729 0.0
H1627 H 0.74437 0.17031 0.94276 0.0
H1628 H 0.71817 0.16784 0.95459 0.0
H1629 H 0.72819 0.19376 0.94646 0.0
H1630 H 0.70088 0.20723 0.96847 0.0
H1631 H 0.66276 0.19917 0.96287 0.0
H1632 H 0.06717 0.94997 0.18706 0.0
H1633 H 0.06177 0.97411 0.21735 0.0
H1634 H 0.99648 0.95202 0.22367 0.0
H1635 H 0.00182 0.92747 0.19329 0.0
H1636 H 0.0308 0.00735 0.21757 0.0
H1637 H 0.01986 0.95059 0.28575 0.0
H1638 H 0.03177 0.94239 0.26064 0.0
H1639 H 0.00332 0.94651 0.26244 0.0
C1640 C 0.05175 0.94991 0.1951 0.0
C1641 C 0.03491 0.93681 0.18772 0.0
C1642 C 0.04867 0.96381 0.21236 0.0
C1643 C 0.02872 0.96495 0.22269 0.0
C1644 C 0.01208 0.95125 0.21604 0.0
H1645 H 0.00332 0.06987 0.31577 0.0
H1646 H 0.9984 0.04622 0.28452 0.0
C1647 C 0.01518 0.93718 0.19873 0.0
C1648 C 0.02541 0.98131 0.23966 0.0
H1649 H 0.01939 0.98747 0.29375 0.0
C1650 C 0.02798 0.00305 0.2342 0.0
C1651 C 0.02172 0.97563 0.26129 0.0
C1652 C 0.01912 0.95253 0.26805 0.0
C1653 C 0.02784 0.01918 0.24995 0.0
C1654 C 0.02497 0.0134 0.27164 0.0
C1655 C 0.0215 0.99179 0.27702 0.0
C1656 C 0.02821 0.02904 0.28923 0.0
C1657 C 0.03188 0.04216 0.24352 0.0
C1658 C 0.04677 0.02748 0.30179 0.0
C1659 C 0.04968 0.04092 0.31941 0.0
C1660 C 0.034 0.0562 0.32501 0.0
C1661 C 0.01576 0.05838 0.31184 0.0
C1662 C 0.01286 0.04483 0.29407 0.0
H1663 H 0.03492 0.04385 0.22604 0.0
H1664 H 0.01775 0.05212 0.24783 0.0
H1665 H 0.04592 0.04858 0.25244 0.0
H1666 H 0.05887 0.01551 0.29818 0.0
H1667 H 0.06401 0.03886 0.32904 0.0
H1668 H 0.9881 0.42072 0.30995 0.0
H1669 H 0.99391 0.44733 0.28136 0.0
H1670 H 0.93356 0.47734 0.29696 0.0
H1671 H 0.92756 0.45108 0.32519 0.0
H1672 H 0.9672 0.45975 0.2449 0.0
H1673 H 0.97871 0.52633 0.30268 0.0
H1674 H 0.98076 0.49842 0.3103 0.0
H1675 H 0.95486 0.51091 0.30766 0.0
C1676 C 0.97591 0.43275 0.30702 0.0
C1677 C 0.95746 0.43385 0.32004 0.0
C1678 C 0.97933 0.44803 0.2908 0.0
C1679 C 0.96443 0.46464 0.28748 0.0
C1680 C 0.94553 0.465 0.29964 0.0
H1681 H 0.92748 0.54744 0.18778 0.0
H1682 H 0.93283 0.52132 0.2163 0.0
C1683 C 0.94208 0.44983 0.3157 0.0
C1684 C 0.96827 0.48182 0.27144 0.0
H1685 H 0.97024 0.53643 0.26643 0.0
C1686 C 0.96826 0.47648 0.24959 0.0
C1687 C 0.96999 0.50364 0.27758 0.0
C1688 C 0.97131 0.51021 0.30084 0.0
C1689 C 0.96849 0.4925 0.23373 0.0
C1690 C 0.96849 0.51438 0.23991 0.0
C1691 C 0.96997 0.51968 0.26172 0.0
C1692 C 0.96501 0.53176 0.22402 0.0
C1693 C 0.96815 0.4859 0.21044 0.0
C1694 C 0.98093 0.54714 0.21967 0.0
C1695 C 0.97788 0.56234 0.2033 0.0
C1696 C 0.95882 0.56237 0.19114 0.0
C1697 C 0.94247 0.54776 0.19659 0.0
C1698 C 0.94553 0.53268 0.21283 0.0
H1699 H 0.9743 0.46931 0.20825 0.0
H1700 H 0.95136 0.48637 0.20448 0.0
H1701 H 0.9779 0.49701 0.2005 0.0
H1702 H 0.996 0.54685 0.22835 0.0
H1703 H 0.99082 0.57331 0.19948 0.0
H1704 H 0.19463 0.06212 0.94556 0.0
H1705 H 0.22595 0.05605 0.96834 0.0
H1706 H 0.22285 0.98823 0.95501 0.0
H1707 H 0.19148 0.99424 0.93176 0.0
H1708 H 0.22236 0.00378 0.00198 0.0
H1709 H 0.28929 0.03543 0.9524 0.0
H1710 H 0.26525 0.05143 0.95234 0.0
H1711 H 0.26477 0.02498 0.94089 0.0
C1712 C 0.2009 0.04597 0.94706 0.0
C1713 C 0.19066 0.02866 0.93685 0.0
C1714 C 0.21877 0.04253 0.96008 0.0
C1715 C 0.22664 0.02172 0.96332 0.0
C1716 C 0.21699 0.00442 0.95259 0.0
H1717 H 0.3231 0.99485 0.06407 0.0
H1718 H 0.29376 0.98864 0.0385 0.0
C1719 C 0.19923 0.0079 0.93922 0.0
C1720 C 0.24391 0.0183 0.97923 0.0
H1721 H 0.2955 0.03289 0.99007 0.0
C1722 C 0.23853 0.0097 -0.00066 0.0
C1723 C 0.26486 0.02609 0.97563 0.0
C1724 C 0.27154 0.03486 0.95409 0.0
C1725 C 0.25325 0.00999 0.01646 0.0
C1726 C 0.27389 0.01885 0.01315 0.0
C1727 C 0.27958 0.02629 0.99264 0.0
C1728 C 0.28937 0.02226 0.03091 0.0
C1729 C 0.24625 0.002 0.0382 0.0
C1730 C 0.29626 0.04319 0.03548 0.0
C1731 C 0.31302 0.04673 0.04986 0.0
C1732 C 0.32321 0.02941 0.06008 0.0
C1733 C 0.31537 0.00852 0.05662 0.0
C1734 C 0.29865 0.00495 0.04198 0.0
H1735 H 0.22864 -0.00072 0.03899 0.0
H1736 H 0.25442 0.98657 0.04168 0.0
H1737 H 0.25084 0.01361 0.05092 0.0
H1738 H 0.28923 0.05678 0.02723 0.0
H1739 H 0.31865 0.06301 0.05226 0.0
H1740 H 0.67714 0.52166 0.0705 0.0
H1741 H 0.70787 0.52977 0.047 0.0
H1742 H 0.69677 0.471 0.01222 0.0
H1743 H 0.66645 0.46278 0.03532 0.0
H1744 H 0.74585 0.50515 0.03706 0.0
H1745 H 0.6954 0.51798 0.96524 0.0
H1746 H 0.6847 0.51858 0.99219 0.0
H1747 H 0.68892 0.49337 0.97872 0.0
C1748 C 0.68148 0.51034 0.05804 0.0
C1749 C 0.66918 0.49168 0.05466 0.0
C1750 C 0.69891 0.51508 0.04455 0.0
C1751 C 0.70413 0.50128 0.02749 0.0
C1752 C 0.6926 0.48217 0.02489 0.0
H1753 H 0.80978 0.46127 0.95769 0.0
H1754 H 0.77975 0.46946 0.98124 0.0
C1755 C 0.67533 0.47744 0.03825 0.0
C1756 C 0.72176 0.50622 0.01232 0.0
H1757 H 0.73238 0.50786 0.95858 0.0
C1758 C 0.74292 0.50626 0.01994 0.0
C1759 C 0.71792 0.50815 0.99001 0.0
C1760 C 0.69548 0.50976 0.98106 0.0
C1761 C 0.76036 0.50627 0.00567 0.0
C1762 C 0.75644 0.50585 0.98328 0.0
C1763 C 0.73534 0.50777 0.97573 0.0
C1764 C 0.77377 0.50088 0.96777 0.0
C1765 C 0.78284 0.5059 0.01467 0.0
C1766 C 0.7796 0.51536 0.95152 0.0
C1767 C 0.79681 0.51064 0.93777 0.0
C1768 C 0.80831 0.49131 0.94007 0.0
C1769 C 0.8015 0.47641 0.9556 0.0
C1770 C 0.78442 0.48113 0.96923 0.0
H1771 H 0.78342 0.5132 0.03092 0.0
H1772 H 0.7883 0.48901 0.01608 0.0
H1773 H 0.7942 0.5146 0.00404 0.0
H1774 H 0.77132 0.53056 0.94994 0.0
H1775 H 0.80167 0.52248 0.92602 0.0
H1776 H 0.31799 0.92742 0.44485 0.0
H1777 H 0.28877 0.9328 0.47042 0.0
H1778 H 0.2856 -0.0003 0.45325 0.0
H1779 H 0.31492 0.99443 0.42727 0.0
H1780 H 0.29277 0.98057 0.50357 0.0
H1781 H 0.22155 0.95563 0.45567 0.0
H1782 H 0.24634 0.94116 0.45191 0.0
H1783 H 0.24454 0.96865 0.44364 0.0
C1784 C 0.31084 0.94322 0.44618 0.0
C1785 C 0.31877 0.96051 0.43403 0.0
C1786 C 0.2942 0.94625 0.46084 0.0
C1787 C 0.28521 0.96664 0.46377 0.0
C1788 C 0.29242 0.98384 0.45115 0.0
H1789 H 0.1968 0.99477 0.57128 0.0
H1790 H 0.22511 -0.00038 0.54429 0.0
C1791 C 0.30901 0.98077 0.43622 0.0
C1792 C 0.26907 0.96975 0.4809 0.0
H1793 H 0.21693 0.95867 0.4932 0.0
C1794 C 0.27606 0.9762 0.50132 0.0
C1795 C 0.24745 0.96385 0.47782 0.0
C1796 C 0.23933 0.957 0.45608 0.0
C1797 C 0.26209 0.97591 0.51907 0.0
C1798 C 0.24057 0.96925 0.51614 0.0
C1799 C 0.23345 0.96369 0.49546 0.0
C1800 C 0.22548 0.96632 0.53436 0.0
C1801 C 0.27072 0.98163 0.54095 0.0
C1802 C 0.2166 0.94597 0.53805 0.0
C1803 C 0.20044 0.9432 0.55329 0.0
C1804 C 0.19278 0.96073 0.56526 0.0
C1805 C 0.20254 0.98091 0.56249 0.0
C1806 C 0.21868 0.98371 0.54703 0.0
H1807 H 0.28854 0.98231 0.54115 0.0
H1808 H 0.26452 0.99764 0.5457 0.0
H1809 H 0.26529 0.96982 0.55313 0.0
H1810 H 0.22169 0.9323 0.52858 0.0
H1811 H 0.19333 0.92744 0.55508 0.0
H1812 H 0.79771 0.48281 0.57573 0.0
H1813 H 0.76816 0.47653 0.55027 0.0
H1814 H 0.78653 0.53311 0.51499 0.0
H1815 H 0.8158 0.53948 0.54 0.0
H1816 H 0.7332 0.50267 0.53739 0.0
H1817 H 0.78702 0.48587 0.4689 0.0
H1818 H 0.79619 0.4856 0.4964 0.0
H1819 H 0.79376 0.51057 0.48209 0.0
C1820 C 0.79525 0.49406 0.56272 0.0
C1821 C 0.80929 0.51153 0.55981 0.0
C1822 C 0.77847 0.49036 0.54811 0.0
C1823 C 0.77559 0.504 0.53037 0.0
C1824 C 0.78887 0.522 0.52816 0.0
H1825 H 0.67361 0.54366 0.45272 0.0
H1826 H 0.70267 0.53679 0.47787 0.0
C1827 C 0.80552 0.5257 0.54263 0.0
C1828 C 0.75861 0.49999 0.51414 0.0
H1829 H 0.75088 0.49684 0.45992 0.0
C1830 C 0.73705 0.50097 0.5205 0.0
C1831 C 0.76359 0.49729 0.49212 0.0
C1832 C 0.78641 0.49453 0.48448 0.0
C1833 C 0.72042 0.501 0.50527 0.0
C1834 C 0.72555 0.50039 0.48313 0.0
C1835 C 0.74699 0.4977 0.47686 0.0
C1836 C 0.70908 0.50465 0.46645 0.0
C1837 C 0.6975 0.5023 0.51299 0.0
C1838 C 0.70383 0.48929 0.45078 0.0
C1839 C 0.68719 0.49325 0.43609 0.0
C1840 C 0.67565 0.51266 0.43688 0.0
C1841 C 0.68193 0.52842 0.4518 0.0
C1842 C 0.69846 0.52447 0.46634 0.0
H1843 H 0.69586 0.4959 0.52955 0.0
H1844 H 0.69236 0.51935 0.51321 0.0
H1845 H 0.68654 0.49328 0.50222 0.0
H1846 H 0.71208 0.47399 0.45042 0.0
H1847 H 0.68271 0.48076 0.42485 0.0
H1848 H 0.06614 0.32171 -0.00045 0.0
H1849 H 0.04085 0.29202 0.99345 0.0
H1850 H 0.01358 0.30233 0.05619 0.0
H1851 H 0.03849 0.33175 0.06242 0.0
H1852 H 0.03254 0.25374 0.0176 0.0
H1853 H 0.96151 0.30706 0.01538 0.0
H1854 H 0.98861 0.31694 0.01234 0.0
H1855 H 0.97795 0.3115 0.03862 0.0
C1856 C 0.05497 0.31741 0.01216 0.0
C1857 C 0.05419 0.32926 0.03138 0.0
C1858 C 0.04045 0.30058 0.00858 0.0
C1859 C 0.02495 0.29546 0.02413 0.0
C1860 C 0.025 0.30646 0.04374 0.0
H1861 H 0.95255 0.19108 0.06439 0.0
H1862 H 0.97558 0.22179 0.05718 0.0
C1863 C 0.03938 0.32319 0.04731 0.0
C1864 C 0.00867 0.27857 0.02033 0.0
H1865 H 0.95459 0.26967 0.02288 0.0
C1866 C 0.01549 0.25724 0.01828 0.0
C1867 C 0.98641 0.28321 0.02087 0.0
C1868 C 0.97815 0.30595 0.02169 0.0
C1869 C 0.00064 0.2403 0.01843 0.0
C1870 C 0.97853 0.24487 0.02085 0.0
C1871 C 0.97159 0.26624 0.02127 0.0
C1872 C 0.9629 0.22764 0.02544 0.0
C1873 C 0.00873 0.21754 0.01685 0.0
C1874 C 0.94742 0.22143 0.0103 0.0
C1875 C 0.93407 0.20376 0.01437 0.0
C1876 C 0.93605 0.19217 0.03367 0.0
C1877 C 0.95072 0.19942 0.04925 0.0
C1878 C 0.96399 0.21694 0.04516 0.0
H1879 H 0.0251 0.21683 0.0098 0.0
H1880 H 0.00941 0.21043 0.03316 0.0
H1881 H 0.99773 0.20759 0.00695 0.0
H1882 H 0.94625 0.22971 0.99507 0.0
H1883 H 0.92299 0.19859 0.00202 0.0
H1884 H 0.06876 0.67391 0.51802 0.0
H1885 H 0.04564 0.70513 0.52517 0.0
H1886 H 0.01423 0.69583 0.46423 0.0
H1887 H 0.03693 0.66491 0.457 0.0
H1888 H 0.03808 0.74358 0.50181 0.0
H1889 H 0.96432 0.69465 0.50755 0.0
H1890 H 0.9909 0.68315 0.50919 0.0
H1891 H 0.97906 0.68895 0.48348 0.0
C1892 C 0.05715 0.67875 0.50602 0.0
C1893 C 0.05454 0.66677 0.48704 0.0
C1894 C 0.04386 0.69646 0.51021 0.0
C1895 C 0.0278 0.70233 0.49551 0.0
C1896 C 0.02608 0.69115 0.47608 0.0
H1897 H 0.96286 0.81304 0.45824 0.0
H1898 H 0.98568 0.78225 0.46561 0.0
C1899 C 0.03921 0.67356 0.47191 0.0
C1900 C 0.01272 0.72018 0.49996 0.0
H1901 H 0.95923 0.73218 0.4989 0.0
C1902 C 0.02084 0.74109 0.50162 0.0
C1903 C 0.99023 0.71687 0.50029 0.0
C1904 C 0.98061 0.69466 0.50028 0.0
C1905 C 0.00702 0.75889 0.50177 0.0
C1906 C 0.9846 0.75563 0.49977 0.0
C1907 C 0.97643 0.73467 0.49998 0.0
C1908 C 0.96975 0.77365 0.49522 0.0
C1909 C 0.0166 0.78106 0.50343 0.0
C1910 C 0.95238 0.77834 0.50881 0.0
C1911 C 0.93901 0.79594 0.50451 0.0
C1912 C 0.94282 0.80903 0.48649 0.0
C1913 C 0.95959 0.80351 0.4724 0.0
C1914 C 0.97282 0.786 0.47669 0.0
H1915 H 0.03227 0.78071 0.51195 0.0
H1916 H 0.01947 0.78744 0.48706 0.0
H1917 H 0.00565 0.79222 0.51199 0.0
H1918 H 0.94954 0.76876 0.52303 0.0
H1919 H 0.92629 0.79978 0.51571 0.0
H1920 H 0.54205 0.81319 0.54414 0.0
H1921 H 0.51675 0.78387 0.53912 0.0
H1922 H 0.54926 0.76538 0.4809 0.0
H1923 H 0.57501 0.79485 0.4859 0.0
H1924 H 0.48921 0.77909 0.50327 0.0
H1925 H 0.54296 0.70851 0.51452 0.0
H1926 H 0.55055 0.73513 0.52308 0.0
H1927 H 0.551 0.72831 0.49512 0.0
C1928 C 0.54409 0.80276 0.53039 0.0
C1929 C 0.56059 0.80642 0.51541 0.0
C1930 C 0.52951 0.78604 0.5275 0.0
C1931 C 0.53104 0.7725 0.50961 0.0
C1932 C 0.54789 0.77554 0.49493 0.0
H1933 H 0.42385 0.68167 0.48501 0.0
H1934 H 0.44933 0.71124 0.47911 0.0
C1935 C 0.56264 0.79234 0.49785 0.0
C1936 C 0.51446 0.75569 0.50644 0.0
H1937 H 0.50624 0.70164 0.50955 0.0
C1938 C 0.49292 0.76211 0.50434 0.0
C1939 C 0.51938 0.7336 0.50781 0.0
C1940 C 0.54218 0.72583 0.51038 0.0
C1941 C 0.47609 0.74708 0.50456 0.0
C1942 C 0.48098 0.72506 0.50679 0.0
C1943 C 0.50257 0.71857 0.50787 0.0
C1944 C 0.46408 0.70869 0.51046 0.0
C1945 C 0.4532 0.75491 0.50355 0.0
C1946 C 0.46364 0.6978 0.53013 0.0
C1947 C 0.44922 0.68105 0.53351 0.0
C1948 C 0.43485 0.67472 0.51728 0.0
C1949 C 0.43454 0.68632 0.49791 0.0
C1950 C 0.44915 0.70314 0.49448 0.0
H1951 H 0.45209 0.77266 0.5049 0.0
H1952 H 0.44597 0.75002 0.48803 0.0
H1953 H 0.44354 0.74756 0.5166 0.0
H1954 H 0.47489 0.70194 0.54273 0.0
H1955 H 0.44983 0.67255 0.54866 0.0
H1956 H 0.54455 0.54259 0.81144 0.0
H1957 H 0.53854 0.51709 0.78247 0.0
H1958 H 0.47837 0.54781 0.76747 0.0
H1959 H 0.48433 0.57374 0.79662 0.0
H1960 H 0.50273 0.48863 0.78019 0.0
H1961 H 0.50912 0.54188 0.70864 0.0
H1962 H 0.51929 0.54978 0.73459 0.0
H1963 H 0.49092 0.54973 0.72965 0.0
C1964 C 0.53014 0.5442 0.80183 0.0
C1965 C 0.5149 0.56023 0.8064 0.0
C1966 C 0.5267 0.52951 0.78532 0.0
C1967 C 0.50798 0.53046 0.7729 0.0
C1968 C 0.49301 0.54689 0.77678 0.0
H1969 H 0.48301 0.42202 0.68347 0.0
H1970 H 0.47681 0.4478 0.71274 0.0
C1971 C 0.49649 0.56175 0.79337 0.0
C1972 C 0.50426 0.51367 0.75643 0.0
H1973 H 0.50532 0.50492 0.70238 0.0
C1974 C 0.50294 0.49217 0.76315 0.0
C1975 C 0.50451 0.51838 0.73426 0.0
C1976 C 0.50615 0.54115 0.7262 0.0
C1977 C 0.50292 0.4752 0.74829 0.0
C1978 C 0.50416 0.4799 0.72616 0.0
C1979 C 0.50438 0.50142 0.7194 0.0
C1980 C 0.50796 0.46294 0.7099 0.0
C1981 C 0.50283 0.45238 0.75633 0.0
C1982 C 0.52762 0.46263 0.699 0.0
C1983 C 0.5312 0.44802 0.68247 0.0
C1984 C 0.51515 0.43335 0.67633 0.0
C1985 C 0.49576 0.43296 0.68793 0.0
C1986 C 0.49216 0.44774 0.70457 0.0
H1987 H 0.50421 0.45148 0.77408 0.0
H1988 H 0.48764 0.44446 0.75146 0.0
H1989 H 0.51629 0.44322 0.74906 0.0
H1990 H 0.54008 0.47409 0.703 0.0
H1991 H 0.54637 0.4487 0.674 0.0
H1992 H 0.52444 0.92917 0.80262 0.0
H1993 H 0.53225 0.95263 0.77193 0.0
H1994 H 0.46671 0.9749 0.7723 0.0
H1995 H 0.45889 0.95192 0.80296 0.0
H1996 H 0.51501 0.95744 0.73087 0.0
H1997 H 0.50099 0.03043 0.77924 0.0
H1998 H 0.50423 0.00422 0.79116 0.0
H1999 H 0.47859 0.0124 0.78061 0.0
C2000 C 0.5116 0.93875 0.79586 0.0
C2001 C 0.4911 0.93889 0.80536 0.0
C2002 C 0.51614 0.95226 0.77846 0.0
C2003 C 0.50024 0.96602 0.77035 0.0
C2004 C 0.4794 0.96494 0.77879 0.0
H2005 H 0.47106 0.02653 0.65591 0.0
H2006 H 0.47851 0.00405 0.68672 0.0
C2007 C 0.4749 0.95164 0.79619 0.0
C2008 C 0.50513 0.98184 0.75327 0.0
H2009 H 0.49853 0.03478 0.74074 0.0
C2010 C 0.51181 0.97441 0.73311 0.0
C2011 C 0.50162 0.00408 0.75636 0.0
C2012 C 0.4962 0.01329 0.77809 0.0
C2013 C 0.51325 0.9884 0.71552 0.0
C2014 C 0.50748 0.01023 0.71814 0.0
C2015 C 0.50261 0.01798 0.73868 0.0
C2016 C 0.50358 0.02439 0.69945 0.0
C2017 C 0.52028 0.97956 0.69411 0.0
C2018 C 0.51462 0.04389 0.69682 0.0
C2019 C 0.5103 0.05707 0.67906 0.0
C2020 C 0.49472 0.051 0.66385 0.0
C2021 C 0.48331 0.03175 0.66709 0.0
C2022 C 0.48767 0.01868 0.68465 0.0
H2023 H 0.53094 0.96541 0.69617 0.0
H2024 H 0.50594 0.97428 0.68496 0.0
H2025 H 0.52886 0.99189 0.68452 0.0
H2026 H 0.52674 0.04873 0.70831 0.0
H2027 H 0.51938 0.07175 0.67708 0.0
H2028 H 0.43774 0.31667 0.92611 0.0
H2029 H 0.46344 0.2874 0.93073 0.0
H2030 H 0.45189 0.28771 -0.00109 0.0
H2031 H 0.42574 0.31697 0.99438 0.0
H2032 H 0.499 0.29322 0.98 0.0
H2033 H 0.45276 0.22202 0.95245 0.0
H2034 H 0.44944 0.24638 0.93726 0.0
H2035 H 0.44008 0.24521 0.96446 0.0
C2036 C 0.44028 0.31019 0.94204 0.0
C2037 C 0.42969 0.31907 0.95988 0.0
C2038 C 0.45499 0.29351 0.94465 0.0
C2039 C 0.45956 0.2855 0.96514 0.0
C2040 C 0.44849 0.29371 0.98296 0.0
H2041 H 0.56848 0.19887 0.99249 0.0
H2042 H 0.54093 0.22661 0.99724 0.0
C2043 C 0.43345 0.31026 0.98032 0.0
C2044 C 0.47701 0.26959 0.96772 0.0
H2045 H 0.49056 0.2182 0.95478 0.0
C2046 C 0.49718 0.27669 0.97486 0.0
C2047 C 0.47449 0.24818 0.96085 0.0
C2048 C 0.45301 0.23982 0.95343 0.0
C2049 C 0.51523 0.26311 0.97428 0.0
C2050 C 0.51286 0.24183 0.96671 0.0
C2051 C 0.49242 0.23456 0.96045 0.0
C2052 C 0.53139 0.22709 0.96383 0.0
C2053 C 0.53682 0.27199 0.98072 0.0
C2054 C 0.53545 0.21839 0.94347 0.0
C2055 C 0.55098 0.20249 0.94077 0.0
C2056 C 0.56291 0.19495 0.95838 0.0
C2057 C 0.55976 0.20454 0.97857 0.0
C2058 C 0.54398 0.22038 0.98132 0.0
H2059 H 0.53675 0.2898 0.98147 0.0
H2060 H 0.54111 0.26582 0.99686 0.0
H2061 H 0.54948 0.26679 0.9693 0.0
H2062 H 0.52605 0.22339 0.92973 0.0
H2063 H 0.55306 0.19547 0.925 0.0
loop_
_geom_bond_atom_site_label_1
_geom_bond_atom_site_label_2
_geom_bond_distance
_geom_bond_site_symmetry_2
_ccdc_geom_bond_type
Co0 O1 2.216 1_655 S
Co0 O2 2.091 . S
Co0 O4 2.004 . S
Co0 O10 2.021 . S
Co0 O12 2.137 1_655 S
Co0 O13 2.244 1_655 S
O1 Co0 2.216 1_455 S
O1 C8 1.247 1_455 S
O2 Co0 2.091 . S
O2 C8 1.261 . S
C3 O12 1.247 . S
C3 O13 1.272 . S
O4 Co0 2.004 . S
O4 C9 1.259 . S
Co5 O6 2.061 1_455 S
Co5 O11 2.052 . S
Co5 O13 2.135 . S
O6 Co5 2.061 1_655 S
O6 C9 1.235 . S
C7 O10 1.238 1_455 S
C7 O11 1.241 . S
C8 O1 1.247 1_655 S
C8 O2 1.261 . S
C9 O4 1.259 . S
C9 O6 1.235 . S
O10 Co0 2.021 . S
O10 C7 1.238 1_655 S
O11 Co5 2.052 . S
O11 C7 1.241 . S
O12 Co0 2.137 1_455 S
O12 C3 1.247 . S
O13 Co0 2.244 1_455 S
O13 C3 1.272 . S
O13 Co5 2.135 . S
Co14 O15 2.216 1_455 S
Co14 O16 2.091 . S
Co14 O18 2.004 . S
Co14 O24 2.021 . S
Co14 O26 2.137 1_455 S
Co14 O27 2.244 1_455 S
O15 Co14 2.216 1_655 S
O15 C22 1.247 1_655 S
O16 Co14 2.091 . S
O16 C22 1.261 . S
C17 O26 1.247 . S
C17 O27 1.272 . S
O18 Co14 2.004 . S
O18 C23 1.259 . S
Co19 O20 2.061 1_655 S
Co19 O25 2.052 . S
Co19 O27 2.135 . S
O20 Co19 2.061 1_455 S
O20 C23 1.235 . S
C21 O24 1.238 1_655 S
C21 O25 1.241 . S
C22 O15 1.247 1_455 S
C22 O16 1.261 . S
C23 O18 1.259 . S
C23 O20 1.235 . S
O24 Co14 2.021 . S
O24 C21 1.238 1_455 S
O25 Co19 2.052 . S
O25 C21 1.241 . S
O26 Co14 2.137 1_655 S
O26 C17 1.247 . S
O27 Co14 2.244 1_655 S
O27 C17 1.272 . S
O27 Co19 2.135 . S
Co28 O29 2.216 1_655 S
Co28 O30 2.091 . S
Co28 O32 2.004 . S
Co28 O38 2.021 . S
Co28 O40 2.137 1_655 S
Co28 O41 2.244 1_655 S
O29 Co28 2.216 1_455 S
O29 C36 1.247 1_455 S
O30 Co28 2.091 . S
O30 C36 1.261 . S
C31 O40 1.247 . S
C31 O41 1.272 . S
O32 Co28 2.004 . S
O32 C37 1.259 . S
Co33 O34 2.061 1_455 S
Co33 O39 2.052 . S
Co33 O41 2.135 . S
O34 Co33 2.061 1_655 S
O34 C37 1.235 . S
C35 O38 1.238 1_455 S
C35 O39 1.241 . S
C36 O29 1.247 1_655 S
C36 O30 1.261 . S
C37 O32 1.259 . S
C37 O34 1.235 . S
O38 Co28 2.021 . S
O38 C35 1.238 1_655 S
O39 Co33 2.052 . S
O39 C35 1.241 . S
O40 Co28 2.137 1_455 S
O40 C31 1.247 . S
O41 Co28 2.244 1_455 S
O41 C31 1.272 . S
O41 Co33 2.135 . S
Co42 O43 2.216 1_455 S
Co42 O44 2.091 . S
Co42 O46 2.004 . S
Co42 O52 2.021 . S
Co42 O54 2.137 1_455 S
Co42 O55 2.244 1_455 S
O43 Co42 2.216 1_655 S
O43 C50 1.247 1_655 S
O44 Co42 2.091 . S
O44 C50 1.261 . S
C45 O54 1.247 . S
C45 O55 1.272 . S
O46 Co42 2.004 . S
O46 C51 1.259 . S
Co47 O48 2.061 1_655 S
Co47 O53 2.052 . S
Co47 O55 2.135 . S
O48 Co47 2.061 1_455 S
O48 C51 1.235 . S
C49 O52 1.238 1_655 S
C49 O53 1.241 . S
C50 O43 1.247 1_455 S
C50 O44 1.261 . S
C51 O46 1.259 . S
C51 O48 1.235 . S
O52 Co42 2.021 . S
O52 C49 1.238 1_455 S
O53 Co47 2.052 . S
O53 C49 1.241 . S
O54 Co42 2.137 1_655 S
O54 C45 1.247 . S
O55 Co42 2.244 1_655 S
O55 C45 1.272 . S
O55 Co47 2.135 . S
Co56 O57 2.216 1_565 S
Co56 O58 2.091 . S
Co56 O60 2.004 . S
Co56 O66 2.021 . S
Co56 O68 2.137 1_565 S
Co56 O69 2.244 1_565 S
O57 Co56 2.216 1_545 S
O57 C64 1.247 1_545 S
O58 Co56 2.091 . S
O58 C64 1.261 . S
C59 O68 1.247 . S
C59 O69 1.272 . S
O60 Co56 2.004 . S
O60 C65 1.259 . S
Co61 O62 2.061 1_545 S
Co61 O67 2.052 . S
Co61 O69 2.135 . S
O62 Co61 2.061 1_565 S
O62 C65 1.235 . S
C63 O66 1.238 1_545 S
C63 O67 1.241 . S
C64 O57 1.247 1_565 S
C64 O58 1.261 . S
C65 O60 1.259 . S
C65 O62 1.235 . S
O66 Co56 2.021 . S
O66 C63 1.238 1_565 S
O67 Co61 2.052 . S
O67 C63 1.241 . S
O68 Co56 2.137 1_545 S
O68 C59 1.247 . S
O69 Co56 2.244 1_545 S
O69 C59 1.272 . S
O69 Co61 2.135 . S
Co70 O71 2.216 . S
Co70 O72 2.091 . S
Co70 O74 2.004 . S
Co70 O80 2.021 . S
Co70 O82 2.137 . S
Co70 O83 2.244 . S
O71 Co70 2.216 . S
O71 C78 1.247 . S
O72 Co70 2.091 . S
O72 C78 1.261 . S
C73 O82 1.247 . S
C73 O83 1.272 . S
O74 Co70 2.004 . S
O74 C79 1.259 . S
Co75 O76 2.061 . S
Co75 O81 2.052 . S
Co75 O83 2.135 . S
O76 Co75 2.061 . S
O76 C79 1.235 . S
C77 O80 1.238 . S
C77 O81 1.241 . S
C78 O71 1.247 . S
C78 O72 1.261 . S
C79 O74 1.259 . S
C79 O76 1.235 . S
O80 Co70 2.021 . S
O80 C77 1.238 . S
O81 Co75 2.052 . S
O81 C77 1.241 . S
O82 Co70 2.137 . S
O82 C73 1.247 . S
O83 Co70 2.244 . S
O83 C73 1.272 . S
O83 Co75 2.135 . S
Co84 O85 2.216 1_545 S
Co84 O86 2.091 . S
Co84 O88 2.004 . S
Co84 O94 2.021 . S
Co84 O96 2.137 1_545 S
Co84 O97 2.244 1_545 S
O85 Co84 2.216 1_565 S
O85 C92 1.247 1_565 S
O86 Co84 2.091 . S
O86 C92 1.261 . S
C87 O96 1.247 . S
C87 O97 1.272 . S
O88 Co84 2.004 . S
O88 C93 1.259 . S
Co89 O90 2.061 1_565 S
Co89 O95 2.052 . S
Co89 O97 2.135 . S
O90 Co89 2.061 1_545 S
O90 C93 1.235 . S
C91 O94 1.238 1_565 S
C91 O95 1.241 . S
C92 O85 1.247 1_545 S
C92 O86 1.261 . S
C93 O88 1.259 . S
C93 O90 1.235 . S
O94 Co84 2.021 . S
O94 C91 1.238 1_545 S
O95 Co89 2.052 . S
O95 C91 1.241 . S
O96 Co84 2.137 1_565 S
O96 C87 1.247 . S
O97 Co84 2.244 1_565 S
O97 C87 1.272 . S
O97 Co89 2.135 . S
Co98 O99 2.216 . S
Co98 O100 2.091 . S
Co98 O102 2.004 . S
Co98 O108 2.021 . S
Co98 O110 2.137 . S
Co98 O111 2.244 . S
O99 Co98 2.216 . S
O99 C106 1.247 . S
O100 Co98 2.091 . S
O100 C106 1.261 . S
C101 O110 1.247 . S
C101 O111 1.272 . S
O102 Co98 2.004 . S
O102 C107 1.259 . S
Co103 O104 2.061 . S
Co103 O109 2.052 . S
Co103 O111 2.135 . S
O104 Co103 2.061 . S
O104 C107 1.235 . S
C105 O108 1.238 . S
C105 O109 1.241 . S
C106 O99 1.247 . S
C106 O100 1.261 . S
C107 O102 1.259 . S
C107 O104 1.235 . S
O108 Co98 2.021 . S
O108 C105 1.238 . S
O109 Co103 2.052 . S
O109 C105 1.241 . S
O110 Co98 2.137 . S
O110 C101 1.247 . S
O111 Co98 2.244 . S
O111 C101 1.272 . S
O111 Co103 2.135 . S
Co112 O113 2.216 1_556 S
Co112 O114 2.091 . S
Co112 O116 2.004 . S
Co112 O122 2.021 . S
Co112 O124 2.137 1_556 S
Co112 O125 2.244 1_556 S
O113 Co112 2.216 1_554 S
O113 C120 1.247 1_554 S
O114 Co112 2.091 . S
O114 C120 1.261 . S
C115 O124 1.247 . S
C115 O125 1.272 . S
O116 Co112 2.004 . S
O116 C121 1.259 . S
Co117 O118 2.061 1_554 S
Co117 O123 2.052 . S
Co117 O125 2.135 . S
O118 Co117 2.061 1_556 S
O118 C121 1.235 . S
C119 O122 1.238 1_554 S
C119 O123 1.241 . S
C120 O113 1.247 1_556 S
C120 O114 1.261 . S
C121 O116 1.259 . S
C121 O118 1.235 . S
O122 Co112 2.021 . S
O122 C119 1.238 1_556 S
O123 Co117 2.052 . S
O123 C119 1.241 . S
O124 Co112 2.137 1_554 S
O124 C115 1.247 . S
O125 Co112 2.244 1_554 S
O125 C115 1.272 . S
O125 Co117 2.135 . S
Co126 O127 2.216 . S
Co126 O128 2.091 . S
Co126 O130 2.004 . S
Co126 O136 2.021 . S
Co126 O138 2.137 . S
Co126 O139 2.244 . S
O127 Co126 2.216 . S
O127 C134 1.247 . S
O128 Co126 2.091 . S
O128 C134 1.261 . S
C129 O138 1.247 . S
C129 O139 1.272 . S
O130 Co126 2.004 . S
O130 C135 1.259 . S
Co131 O132 2.061 . S
Co131 O137 2.052 . S
Co131 O139 2.135 . S
O132 Co131 2.061 . S
O132 C135 1.235 . S
C133 O136 1.238 . S
C133 O137 1.241 . S
C134 O127 1.247 . S
C134 O128 1.261 . S
C135 O130 1.259 . S
C135 O132 1.235 . S
O136 Co126 2.021 . S
O136 C133 1.238 . S
O137 Co131 2.052 . S
O137 C133 1.241 . S
O138 Co126 2.137 . S
O138 C129 1.247 . S
O139 Co126 2.244 . S
O139 C129 1.272 . S
O139 Co131 2.135 . S
Co140 O141 2.216 . S
Co140 O142 2.091 . S
Co140 O144 2.004 . S
Co140 O150 2.021 . S
Co140 O152 2.137 . S
Co140 O153 2.244 . S
O141 Co140 2.216 . S
O141 C148 1.247 . S
O142 Co140 2.091 . S
O142 C148 1.261 . S
C143 O152 1.247 . S
C143 O153 1.272 . S
O144 Co140 2.004 . S
O144 C149 1.259 . S
Co145 O146 2.061 . S
Co145 O151 2.052 . S
Co145 O153 2.135 . S
O146 Co145 2.061 . S
O146 C149 1.235 . S
C147 O150 1.238 . S
C147 O151 1.241 . S
C148 O141 1.247 . S
C148 O142 1.261 . S
C149 O144 1.259 . S
C149 O146 1.235 . S
O150 Co140 2.021 . S
O150 C147 1.238 . S
O151 Co145 2.052 . S
O151 C147 1.241 . S
O152 Co140 2.137 . S
O152 C143 1.247 . S
O153 Co140 2.244 . S
O153 C143 1.272 . S
O153 Co145 2.135 . S
Co154 O155 2.216 . S
Co154 O156 2.091 . S
Co154 O158 2.004 . S
Co154 O164 2.021 . S
Co154 O166 2.137 . S
Co154 O167 2.244 . S
O155 Co154 2.216 . S
O155 C162 1.247 . S
O156 Co154 2.091 . S
O156 C162 1.261 . S
C157 O166 1.247 . S
C157 O167 1.272 . S
O158 Co154 2.004 . S
O158 C163 1.259 . S
Co159 O160 2.061 . S
Co159 O165 2.052 . S
Co159 O167 2.135 . S
O160 Co159 2.061 . S
O160 C163 1.235 . S
C161 O164 1.238 . S
C161 O165 1.241 . S
C162 O155 1.247 . S
C162 O156 1.261 . S
C163 O158 1.259 . S
C163 O160 1.235 . S
O164 Co154 2.021 . S
O164 C161 1.238 . S
O165 Co159 2.052 . S
O165 C161 1.241 . S
O166 Co154 2.137 . S
O166 C157 1.247 . S
O167 Co154 2.244 . S
O167 C157 1.272 . S
O167 Co159 2.135 . S
Co168 O169 2.216 . S
Co168 O170 2.091 . S
Co168 O172 2.004 . S
Co168 O178 2.021 . S
Co168 O180 2.137 . S
Co168 O181 2.244 . S
O169 Co168 2.216 . S
O169 C176 1.247 . S
O170 Co168 2.091 . S
O170 C176 1.261 . S
C171 O180 1.247 . S
C171 O181 1.272 . S
O172 Co168 2.004 . S
O172 C177 1.259 . S
Co173 O174 2.061 . S
Co173 O179 2.052 . S
Co173 O181 2.135 . S
O174 Co173 2.061 . S
O174 C177 1.235 . S
C175 O178 1.238 . S
C175 O179 1.241 . S
C176 O169 1.247 . S
C176 O170 1.261 . S
C177 O172 1.259 . S
C177 O174 1.235 . S
O178 Co168 2.021 . S
O178 C175 1.238 . S
O179 Co173 2.052 . S
O179 C175 1.241 . S
O180 Co168 2.137 . S
O180 C171 1.247 . S
O181 Co168 2.244 . S
O181 C171 1.272 . S
O181 Co173 2.135 . S
Co182 O183 2.216 . S
Co182 O184 2.091 . S
Co182 O186 2.004 . S
Co182 O192 2.021 . S
Co182 O194 2.137 . S
Co182 O195 2.244 . S
O183 Co182 2.216 . S
O183 C190 1.247 . S
O184 Co182 2.091 . S
O184 C190 1.261 . S
C185 O194 1.247 . S
C185 O195 1.272 . S
O186 Co182 2.004 . S
O186 C191 1.259 . S
Co187 O188 2.061 . S
Co187 O193 2.052 . S
Co187 O195 2.135 . S
O188 Co187 2.061 . S
O188 C191 1.235 . S
C189 O192 1.238 . S
C189 O193 1.241 . S
C190 O183 1.247 . S
C190 O184 1.261 . S
C191 O186 1.259 . S
C191 O188 1.235 . S
O192 Co182 2.021 . S
O192 C189 1.238 . S
O193 Co187 2.052 . S
O193 C189 1.241 . S
O194 Co182 2.137 . S
O194 C185 1.247 . S
O195 Co182 2.244 . S
O195 C185 1.272 . S
O195 Co187 2.135 . S
Co196 O197 2.216 . S
Co196 O198 2.091 . S
Co196 O200 2.004 . S
Co196 O206 2.021 . S
Co196 O208 2.137 . S
Co196 O209 2.244 . S
O197 Co196 2.216 . S
O197 C204 1.247 . S
O198 Co196 2.091 . S
O198 C204 1.261 . S
C199 O208 1.247 . S
C199 O209 1.272 . S
O200 Co196 2.004 . S
O200 C205 1.259 . S
Co201 O202 2.061 . S
Co201 O207 2.052 . S
Co201 O209 2.135 . S
O202 Co201 2.061 . S
O202 C205 1.235 . S
C203 O206 1.238 . S
C203 O207 1.241 . S
C204 O197 1.247 . S
C204 O198 1.261 . S
C205 O200 1.259 . S
C205 O202 1.235 . S
O206 Co196 2.021 . S
O206 C203 1.238 . S
O207 Co201 2.052 . S
O207 C203 1.241 . S
O208 Co196 2.137 . S
O208 C199 1.247 . S
O209 Co196 2.244 . S
O209 C199 1.272 . S
O209 Co201 2.135 . S
Co210 O211 2.216 . S
Co210 O212 2.091 . S
Co210 O214 2.004 . S
Co210 O220 2.021 . S
Co210 O222 2.137 . S
Co210 O223 2.244 . S
O211 Co210 2.216 . S
O211 C218 1.247 . S
O212 Co210 2.091 . S
O212 C218 1.261 . S
C213 O222 1.247 . S
C213 O223 1.272 . S
O214 Co210 2.004 . S
O214 C219 1.259 . S
Co215 O216 2.061 . S
Co215 O221 2.052 . S
Co215 O223 2.135 . S
O216 Co215 2.061 . S
O216 C219 1.235 . S
C217 O220 1.238 . S
C217 O221 1.241 . S
C218 O211 1.247 . S
C218 O212 1.261 . S
C219 O214 1.259 . S
C219 O216 1.235 . S
O220 Co210 2.021 . S
O220 C217 1.238 . S
O221 Co215 2.052 . S
O221 C217 1.241 . S
O222 Co210 2.137 . S
O222 C213 1.247 . S
O223 Co210 2.244 . S
O223 C213 1.272 . S
O223 Co215 2.135 . S
Co224 O225 2.216 . S
Co224 O226 2.091 . S
Co224 O228 2.004 . S
Co224 O234 2.021 . S
Co224 O236 2.137 . S
Co224 O237 2.244 . S
O225 Co224 2.216 . S
O225 C232 1.247 . S
O226 Co224 2.091 . S
O226 C232 1.261 . S
C227 O236 1.247 . S
C227 O237 1.272 . S
O228 Co224 2.004 . S
O228 C233 1.259 . S
Co229 O230 2.061 . S
Co229 O235 2.052 . S
Co229 O237 2.135 . S
O230 Co229 2.061 . S
O230 C233 1.235 . S
C231 O234 1.238 . S
C231 O235 1.241 . S
C232 O225 1.247 . S
C232 O226 1.261 . S
C233 O228 1.259 . S
C233 O230 1.235 . S
O234 Co224 2.021 . S
O234 C231 1.238 . S
O235 Co229 2.052 . S
O235 C231 1.241 . S
O236 Co224 2.137 . S
O236 C227 1.247 . S
O237 Co224 2.244 . S
O237 C227 1.272 . S
O237 Co229 2.135 . S
Co238 O239 2.216 1_545 S
Co238 O240 2.091 . S
Co238 O242 2.004 . S
Co238 O248 2.021 . S
Co238 O250 2.137 1_545 S
Co238 O251 2.244 1_545 S
O239 Co238 2.216 1_565 S
O239 C246 1.247 1_565 S
O240 Co238 2.091 . S
O240 C246 1.261 . S
C241 O250 1.247 . S
C241 O251 1.272 . S
O242 Co238 2.004 . S
O242 C247 1.259 . S
Co243 O244 2.061 1_565 S
Co243 O249 2.052 . S
Co243 O251 2.135 . S
O244 Co243 2.061 1_545 S
O244 C247 1.235 . S
C245 O248 1.238 1_565 S
C245 O249 1.241 . S
C246 O239 1.247 1_545 S
C246 O240 1.261 . S
C247 O242 1.259 . S
C247 O244 1.235 . S
O248 Co238 2.021 . S
O248 C245 1.238 1_545 S
O249 Co243 2.052 . S
O249 C245 1.241 . S
O250 Co238 2.137 1_565 S
O250 C241 1.247 . S
O251 Co238 2.244 1_565 S
O251 C241 1.272 . S
O251 Co243 2.135 . S
Co252 O253 2.216 . S
Co252 O254 2.091 . S
Co252 O256 2.004 . S
Co252 O262 2.021 . S
Co252 O264 2.137 . S
Co252 O265 2.244 . S
O253 Co252 2.216 . S
O253 C260 1.247 . S
O254 Co252 2.091 . S
O254 C260 1.261 . S
C255 O264 1.247 . S
C255 O265 1.272 . S
O256 Co252 2.004 . S
O256 C261 1.259 . S
Co257 O258 2.061 . S
Co257 O263 2.052 . S
Co257 O265 2.135 . S
O258 Co257 2.061 . S
O258 C261 1.235 . S
C259 O262 1.238 . S
C259 O263 1.241 . S
C260 O253 1.247 . S
C260 O254 1.261 . S
C261 O256 1.259 . S
C261 O258 1.235 . S
O262 Co252 2.021 . S
O262 C259 1.238 . S
O263 Co257 2.052 . S
O263 C259 1.241 . S
O264 Co252 2.137 . S
O264 C255 1.247 . S
O265 Co252 2.244 . S
O265 C255 1.272 . S
O265 Co257 2.135 . S
Co266 O267 2.216 1_565 S
Co266 O268 2.091 . S
Co266 O270 2.004 . S
Co266 O276 2.021 . S
Co266 O278 2.137 1_565 S
Co266 O279 2.244 1_565 S
O267 Co266 2.216 1_545 S
O267 C274 1.247 1_545 S
O268 Co266 2.091 . S
O268 C274 1.261 . S
C269 O278 1.247 . S
C269 O279 1.272 . S
O270 Co266 2.004 . S
O270 C275 1.259 . S
Co271 O272 2.061 1_545 S
Co271 O277 2.052 . S
Co271 O279 2.135 . S
O272 Co271 2.061 1_565 S
O272 C275 1.235 . S
C273 O276 1.238 1_545 S
C273 O277 1.241 . S
C274 O267 1.247 1_565 S
C274 O268 1.261 . S
C275 O270 1.259 . S
C275 O272 1.235 . S
O276 Co266 2.021 . S
O276 C273 1.238 1_565 S
O277 Co271 2.052 . S
O277 C273 1.241 . S
O278 Co266 2.137 1_545 S
O278 C269 1.247 . S
O279 Co266 2.244 1_545 S
O279 C269 1.272 . S
O279 Co271 2.135 . S
Co280 O281 2.216 . S
Co280 O282 2.091 . S
Co280 O284 2.004 . S
Co280 O290 2.021 . S
Co280 O292 2.137 . S
Co280 O293 2.244 . S
O281 Co280 2.216 . S
O281 C288 1.247 . S
O282 Co280 2.091 . S
O282 C288 1.261 . S
C283 O292 1.247 . S
C283 O293 1.272 . S
O284 Co280 2.004 . S
O284 C289 1.259 . S
Co285 O286 2.061 . S
Co285 O291 2.052 . S
Co285 O293 2.135 . S
O286 Co285 2.061 . S
O286 C289 1.235 . S
C287 O290 1.238 . S
C287 O291 1.241 . S
C288 O281 1.247 . S
C288 O282 1.261 . S
C289 O284 1.259 . S
C289 O286 1.235 . S
O290 Co280 2.021 . S
O290 C287 1.238 . S
O291 Co285 2.052 . S
O291 C287 1.241 . S
O292 Co280 2.137 . S
O292 C283 1.247 . S
O293 Co280 2.244 . S
O293 C283 1.272 . S
O293 Co285 2.135 . S
Co294 O295 2.216 1_554 S
Co294 O296 2.091 . S
Co294 O298 2.004 . S
Co294 O304 2.021 . S
Co294 O306 2.137 1_554 S
Co294 O307 2.244 1_554 S
O295 Co294 2.216 1_556 S
O295 C302 1.247 1_556 S
O296 Co294 2.091 . S
O296 C302 1.261 . S
C297 O306 1.247 . S
C297 O307 1.272 . S
O298 Co294 2.004 . S
O298 C303 1.259 . S
Co299 O300 2.061 1_556 S
Co299 O305 2.052 . S
Co299 O307 2.135 . S
O300 Co299 2.061 1_554 S
O300 C303 1.235 . S
C301 O304 1.238 1_556 S
C301 O305 1.241 . S
C302 O295 1.247 1_554 S
C302 O296 1.261 . S
C303 O298 1.259 . S
C303 O300 1.235 . S
O304 Co294 2.021 . S
O304 C301 1.238 1_554 S
O305 Co299 2.052 . S
O305 C301 1.241 . S
O306 Co294 2.137 1_556 S
O306 C297 1.247 . S
O307 Co294 2.244 1_556 S
O307 C297 1.272 . S
O307 Co299 2.135 . S
Co308 O309 2.216 1_554 S
Co308 O310 2.091 . S
Co308 O312 2.004 . S
Co308 O318 2.021 . S
Co308 O320 2.137 1_554 S
Co308 O321 2.244 1_554 S
O309 Co308 2.216 1_556 S
O309 C316 1.247 1_556 S
O310 Co308 2.091 . S
O310 C316 1.261 . S
C311 O320 1.247 . S
C311 O321 1.272 . S
O312 Co308 2.004 . S
O312 C317 1.259 . S
Co313 O314 2.061 1_556 S
Co313 O319 2.052 . S
Co313 O321 2.135 . S
O314 Co313 2.061 1_554 S
O314 C317 1.235 . S
C315 O318 1.238 1_556 S
C315 O319 1.241 . S
C316 O309 1.247 1_554 S
C316 O310 1.261 . S
C317 O312 1.259 . S
C317 O314 1.235 . S
O318 Co308 2.021 . S
O318 C315 1.238 1_554 S
O319 Co313 2.052 . S
O319 C315 1.241 . S
O320 Co308 2.137 1_556 S
O320 C311 1.247 . S
O321 Co308 2.244 1_556 S
O321 C311 1.272 . S
O321 Co313 2.135 . S
Co322 O323 2.216 1_556 S
Co322 O324 2.091 . S
Co322 O326 2.004 . S
Co322 O332 2.021 . S
Co322 O334 2.137 1_556 S
Co322 O335 2.244 1_556 S
O323 Co322 2.216 1_554 S
O323 C330 1.247 1_554 S
O324 Co322 2.091 . S
O324 C330 1.261 . S
C325 O334 1.247 . S
C325 O335 1.272 . S
O326 Co322 2.004 . S
O326 C331 1.259 . S
Co327 O328 2.061 1_554 S
Co327 O333 2.052 . S
Co327 O335 2.135 . S
O328 Co327 2.061 1_556 S
O328 C331 1.235 . S
C329 O332 1.238 1_554 S
C329 O333 1.241 . S
C330 O323 1.247 1_556 S
C330 O324 1.261 . S
C331 O326 1.259 . S
C331 O328 1.235 . S
O332 Co322 2.021 . S
O332 C329 1.238 1_556 S
O333 Co327 2.052 . S
O333 C329 1.241 . S
O334 Co322 2.137 1_554 S
O334 C325 1.247 . S
O335 Co322 2.244 1_554 S
O335 C325 1.272 . S
O335 Co327 2.135 . S
H336 C344 0.929 . S
H337 C346 0.930 . S
H338 C348 0.930 . S
H339 C351 0.929 . S
H340 C354 0.930 . S
H341 C356 0.960 . S
H342 C356 0.960 . S
H343 C356 0.960 . S
C344 H336 0.929 . S
C344 C345 1.377 . S
C344 C346 1.384 . S
C345 C344 1.377 . S
C345 C351 1.390 . S
C346 H337 0.930 . S
C346 C344 1.384 . S
C346 C347 1.372 . S
C347 C346 1.372 . S
C347 C348 1.400 . S
C347 C352 1.490 . S
C348 H338 0.930 . S
C348 C347 1.400 . S
C348 C351 1.386 . S
H349 C365 0.930 . S
H350 C366 0.931 . S
C351 H339 0.929 . S
C351 C345 1.390 . S
C351 C348 1.386 . S
C352 C347 1.490 . S
C352 C354 1.395 . S
C352 C355 1.403 . S
H353 C359 0.930 . S
C354 H340 0.930 . S
C354 C352 1.395 . S
C354 C357 1.403 . S
C355 C352 1.403 . S
C355 C356 1.524 . S
C355 C359 1.400 . S
C356 H341 0.960 . S
C356 H342 0.960 . S
C356 H343 0.960 . S
C356 C355 1.524 . S
C357 C354 1.403 . S
C357 C358 1.392 . S
C357 C361 1.495 . S
C358 C357 1.392 . S
C358 C359 1.385 . S
C358 C360 1.478 . S
C359 H353 0.930 . S
C359 C355 1.400 . S
C359 C358 1.385 . S
C360 C358 1.478 . S
C360 C362 1.381 . S
C360 C366 1.383 . S
C361 C357 1.495 . S
C361 H367 0.959 . S
C361 H368 0.961 . S
C361 H369 0.960 . S
C362 C360 1.381 . S
C362 C363 1.394 . S
C362 H370 0.930 . S
C363 C362 1.394 . S
C363 C364 1.383 . S
C363 H371 0.929 . S
C364 C363 1.383 . S
C364 C365 1.377 . S
C365 H349 0.930 . S
C365 C364 1.377 . S
C365 C366 1.379 . S
C366 H350 0.931 . S
C366 C360 1.383 . S
C366 C365 1.379 . S
H367 C361 0.959 . S
H368 C361 0.961 . S
H369 C361 0.960 . S
H370 C362 0.930 . S
H371 C363 0.929 . S
H372 C380 0.929 . S
H373 C382 0.930 . S
H374 C384 0.930 . S
H375 C387 0.929 . S
H376 C390 0.930 . S
H377 C392 0.960 . S
H378 C392 0.960 . S
H379 C392 0.960 . S
C380 H372 0.929 . S
C380 C381 1.377 . S
C380 C382 1.384 . S
C381 C380 1.377 . S
C381 C387 1.390 . S
C382 H373 0.930 . S
C382 C380 1.384 . S
C382 C383 1.372 . S
C383 C382 1.372 . S
C383 C384 1.400 . S
C383 C388 1.490 . S
C384 H374 0.930 . S
C384 C383 1.400 . S
C384 C387 1.386 . S
H385 C401 0.930 . S
H386 C402 0.931 . S
C387 H375 0.929 . S
C387 C381 1.390 . S
C387 C384 1.386 . S
C388 C383 1.490 . S
C388 C390 1.395 . S
C388 C391 1.403 . S
H389 C395 0.930 . S
C390 H376 0.930 . S
C390 C388 1.395 . S
C390 C393 1.403 . S
C391 C388 1.403 . S
C391 C392 1.524 . S
C391 C395 1.400 . S
C392 H377 0.960 . S
C392 H378 0.960 . S
C392 H379 0.960 . S
C392 C391 1.524 . S
C393 C390 1.403 . S
C393 C394 1.392 . S
C393 C397 1.495 . S
C394 C393 1.392 . S
C394 C395 1.385 . S
C394 C396 1.478 . S
C395 H389 0.930 . S
C395 C391 1.400 . S
C395 C394 1.385 . S
C396 C394 1.478 . S
C396 C398 1.381 . S
C396 C402 1.383 . S
C397 C393 1.495 . S
C397 H403 0.959 . S
C397 H404 0.961 . S
C397 H405 0.960 . S
C398 C396 1.381 . S
C398 C399 1.394 . S
C398 H406 0.930 . S
C399 C398 1.394 . S
C399 C400 1.383 . S
C399 H407 0.929 . S
C400 C399 1.383 . S
C400 C401 1.377 . S
C401 H385 0.930 . S
C401 C400 1.377 . S
C401 C402 1.379 . S
C402 H386 0.931 . S
C402 C396 1.383 . S
C402 C401 1.379 . S
H403 C397 0.959 . S
H404 C397 0.961 . S
H405 C397 0.960 . S
H406 C398 0.930 . S
H407 C399 0.929 . S
H408 C416 0.929 . S
H409 C418 0.930 . S
H410 C420 0.930 . S
H411 C423 0.929 . S
H412 C426 0.930 . S
H413 C428 0.960 . S
H414 C428 0.960 . S
H415 C428 0.960 . S
C416 H408 0.929 . S
C416 C417 1.377 . S
C416 C418 1.384 . S
C417 C416 1.377 . S
C417 C423 1.390 . S
C418 H409 0.930 . S
C418 C416 1.384 . S
C418 C419 1.372 . S
C419 C418 1.372 . S
C419 C420 1.400 . S
C419 C424 1.490 . S
C420 H410 0.930 . S
C420 C419 1.400 . S
C420 C423 1.386 . S
H421 C437 0.930 . S
H422 C438 0.944 . S
C423 H411 0.929 . S
C423 C417 1.390 . S
C423 C420 1.386 . S
C424 C419 1.490 . S
C424 C426 1.395 . S
C424 C427 1.403 . S
H425 C431 0.930 . S
C426 H412 0.930 . S
C426 C424 1.395 . S
C426 C429 1.403 . S
C427 C424 1.403 . S
C427 C428 1.524 . S
C427 C431 1.400 . S
C428 H413 0.960 . S
C428 H414 0.960 . S
C428 H415 0.960 . S
C428 C427 1.524 . S
C429 C426 1.403 . S
C429 C430 1.392 . S
C429 C433 1.495 1_554 S
C430 C429 1.392 . S
C430 C431 1.385 . S
C430 C432 1.478 1_554 S
C431 H425 0.930 . S
C431 C427 1.400 . S
C431 C430 1.385 . S
C432 C430 1.478 1_556 S
C432 C434 1.381 . S
C432 C438 1.383 . S
C433 C429 1.495 1_556 S
C433 H439 0.959 . S
C433 H440 0.961 . S
C433 H441 0.960 . S
C434 C432 1.381 . S
C434 C435 1.394 . S
C434 H442 0.930 . S
C435 C434 1.394 . S
C435 C436 1.383 . S
C435 H443 0.929 . S
C436 C435 1.383 . S
C436 C437 1.377 . S
C437 H421 0.930 . S
C437 C436 1.377 . S
C437 C438 1.379 . S
C438 H422 0.944 . S
C438 C432 1.383 . S
C438 C437 1.379 . S
H439 C433 0.959 . S
H440 C433 0.961 . S
H441 C433 0.960 . S
H442 C434 0.930 . S
H443 C435 0.929 . S
H444 C452 0.929 . S
H445 C454 0.930 . S
H446 C456 0.930 . S
H447 C459 0.929 . S
H448 C462 0.930 . S
H449 C464 0.960 . S
H450 C464 0.960 . S
H451 C464 0.960 . S
C452 H444 0.929 . S
C452 C453 1.377 . S
C452 C454 1.384 . S
C453 C452 1.377 . S
C453 C459 1.390 . S
C454 H445 0.930 . S
C454 C452 1.384 . S
C454 C455 1.372 . S
C455 C454 1.372 . S
C455 C456 1.400 . S
C455 C460 1.490 . S
C456 H446 0.930 . S
C456 C455 1.400 . S
C456 C459 1.386 . S
H457 C473 0.930 . S
H458 C474 0.931 . S
C459 H447 0.929 . S
C459 C453 1.390 . S
C459 C456 1.386 . S
C460 C455 1.490 . S
C460 C462 1.395 . S
C460 C463 1.403 . S
H461 C467 0.930 . S
C462 H448 0.930 . S
C462 C460 1.395 . S
C462 C465 1.403 . S
C463 C460 1.403 . S
C463 C464 1.524 . S
C463 C467 1.400 . S
C464 H449 0.960 . S
C464 H450 0.960 . S
C464 H451 0.960 . S
C464 C463 1.524 . S
C465 C462 1.403 . S
C465 C466 1.392 . S
C465 C469 1.495 1_554 S
C466 C465 1.392 . S
C466 C467 1.385 . S
C466 C468 1.478 1_554 S
C467 H461 0.930 . S
C467 C463 1.400 . S
C467 C466 1.385 . S
C468 C466 1.478 1_556 S
C468 C470 1.381 . S
C468 C474 1.383 . S
C469 C465 1.495 1_556 S
C469 H475 0.959 . S
C469 H476 0.961 . S
C469 H477 0.960 . S
C470 C468 1.381 . S
C470 C471 1.394 . S
C470 H478 0.930 . S
C471 C470 1.394 . S
C471 C472 1.383 . S
C471 H479 0.929 . S
C472 C471 1.383 . S
C472 C473 1.377 . S
C473 H457 0.930 . S
C473 C472 1.377 . S
C473 C474 1.379 . S
C474 H458 0.931 . S
C474 C468 1.383 . S
C474 C473 1.379 . S
H475 C469 0.959 . S
H476 C469 0.961 . S
H477 C469 0.960 . S
H478 C470 0.930 . S
H479 C471 0.929 . S
H480 C488 0.929 . S
H481 C490 0.930 . S
H482 C492 0.930 . S
H483 C495 0.929 . S
H484 C498 0.930 . S
H485 C500 0.960 . S
H486 C500 0.960 . S
H487 C500 0.960 . S
C488 H480 0.929 . S
C488 C489 1.377 . S
C488 C490 1.384 . S
C489 C488 1.377 . S
C489 C495 1.390 . S
C490 H481 0.930 . S
C490 C488 1.384 . S
C490 C491 1.372 . S
C491 C490 1.372 . S
C491 C492 1.400 . S
C491 C496 1.490 . S
C492 H482 0.930 . S
C492 C491 1.400 . S
C492 C495 1.386 . S
H493 C509 0.930 . S
H494 C510 0.931 . S
C495 H483 0.929 . S
C495 C489 1.390 . S
C495 C492 1.386 . S
C496 C491 1.490 . S
C496 C498 1.395 . S
C496 C499 1.403 . S
H497 C503 0.930 . S
C498 H484 0.930 . S
C498 C496 1.395 . S
C498 C501 1.403 . S
C499 C496 1.403 . S
C499 C500 1.524 . S
C499 C503 1.400 . S
C500 H485 0.960 . S
C500 H486 0.960 . S
C500 H487 0.960 . S
C500 C499 1.524 . S
C501 C498 1.403 . S
C501 C502 1.392 . S
C501 C505 1.495 . S
C502 C501 1.392 . S
C502 C503 1.385 . S
C502 C504 1.478 . S
C503 H497 0.930 . S
C503 C499 1.400 . S
C503 C502 1.385 . S
C504 C502 1.478 . S
C504 C506 1.381 . S
C504 C510 1.383 . S
C505 C501 1.495 . S
C505 H511 0.959 . S
C505 H512 0.961 . S
C505 H513 0.960 . S
C506 C504 1.381 . S
C506 C507 1.394 . S
C506 H514 0.930 . S
C507 C506 1.394 . S
C507 C508 1.383 . S
C507 H515 0.929 . S
C508 C507 1.383 . S
C508 C509 1.377 . S
C509 H493 0.930 . S
C509 C508 1.377 . S
C509 C510 1.379 . S
C510 H494 0.931 . S
C510 C504 1.383 . S
C510 C509 1.379 . S
H511 C505 0.959 . S
H512 C505 0.961 . S
H513 C505 0.960 . S
H514 C506 0.930 . S
H515 C507 0.929 . S
H516 C524 0.929 . S
H517 C526 0.930 . S
H518 C528 0.930 . S
H519 C531 0.929 . S
H520 C534 0.930 . S
H521 C536 0.960 . S
H522 C536 0.960 . S
H523 C536 0.960 . S
C524 H516 0.929 . S
C524 C525 1.377 . S
C524 C526 1.384 . S
C525 C524 1.377 . S
C525 C531 1.390 . S
C526 H517 0.930 . S
C526 C524 1.384 . S
C526 C527 1.372 . S
C527 C526 1.372 . S
C527 C528 1.400 . S
C527 C532 1.490 . S
C528 H518 0.930 . S
C528 C527 1.400 . S
C528 C531 1.386 . S
H529 C545 0.930 . S
H530 C546 0.931 . S
C531 H519 0.929 . S
C531 C525 1.390 . S
C531 C528 1.386 . S
C532 C527 1.490 . S
C532 C534 1.395 . S
C532 C535 1.403 . S
H533 C539 0.930 . S
C534 H520 0.930 . S
C534 C532 1.395 . S
C534 C537 1.403 . S
C535 C532 1.403 . S
C535 C536 1.524 . S
C535 C539 1.400 . S
C536 H521 0.960 . S
C536 H522 0.960 . S
C536 H523 0.960 . S
C536 C535 1.524 . S
C537 C534 1.403 . S
C537 C538 1.392 . S
C537 C541 1.495 . S
C538 C537 1.392 . S
C538 C539 1.385 . S
C538 C540 1.478 . S
C539 H533 0.930 . S
C539 C535 1.400 . S
C539 C538 1.385 . S
C540 C538 1.478 . S
C540 C542 1.381 . S
C540 C546 1.383 . S
C541 C537 1.495 . S
C541 H547 0.959 . S
C541 H548 0.961 . S
C541 H549 0.960 . S
C542 C540 1.381 . S
C542 C543 1.394 . S
C542 H550 0.930 . S
C543 C542 1.394 . S
C543 C544 1.383 . S
C543 H551 0.980 . S
C544 C543 1.383 . S
C544 C545 1.377 . S
C545 H529 0.930 . S
C545 C544 1.377 . S
C545 C546 1.379 . S
C546 H530 0.931 . S
C546 C540 1.383 . S
C546 C545 1.379 . S
H547 C541 0.959 . S
H548 C541 0.961 . S
H549 C541 0.960 . S
H550 C542 0.930 . S
H551 C543 0.980 . S
H552 C560 0.929 . S
H553 C562 0.930 . S
H554 C564 0.930 . S
H555 C567 0.929 . S
H556 C570 0.930 . S
H557 C572 0.960 . S
H558 C572 0.960 . S
H559 C572 0.960 . S
C560 H552 0.929 . S
C560 C561 1.377 . S
C560 C562 1.384 . S
C561 C560 1.377 . S
C561 C567 1.390 . S
C562 H553 0.930 . S
C562 C560 1.384 . S
C562 C563 1.372 . S
C563 C562 1.372 . S
C563 C564 1.400 . S
C563 C568 1.490 . S
C564 H554 0.930 . S
C564 C563 1.400 . S
C564 C567 1.386 . S
H565 C581 0.930 . S
H566 C582 0.931 . S
C567 H555 0.929 . S
C567 C561 1.390 . S
C567 C564 1.386 . S
C568 C563 1.490 . S
C568 C570 1.395 . S
C568 C571 1.403 . S
H569 C575 0.930 . S
C570 H556 0.930 . S
C570 C568 1.395 . S
C570 C573 1.403 . S
C571 C568 1.403 . S
C571 C572 1.524 . S
C571 C575 1.400 . S
C572 H557 0.960 . S
C572 H558 0.960 . S
C572 H559 0.960 . S
C572 C571 1.524 . S
C573 C570 1.403 . S
C573 C574 1.392 . S
C573 C577 1.495 . S
C574 C573 1.392 . S
C574 C575 1.385 . S
C574 C576 1.478 . S
C575 H569 0.930 . S
C575 C571 1.400 . S
C575 C574 1.385 . S
C576 C574 1.478 . S
C576 C578 1.381 . S
C576 C582 1.383 . S
C577 C573 1.495 . S
C577 H583 0.959 . S
C577 H584 0.961 . S
C577 H585 0.960 . S
C578 C576 1.381 . S
C578 C579 1.394 . S
C578 H586 0.930 . S
C579 C578 1.394 . S
C579 C580 1.383 . S
C579 H587 0.929 . S
C580 C579 1.383 . S
C580 C581 1.377 . S
C581 H565 0.930 . S
C581 C580 1.377 . S
C581 C582 1.379 . S
C582 H566 0.931 . S
C582 C576 1.383 . S
C582 C581 1.379 . S
H583 C577 0.959 . S
H584 C577 0.961 . S
H585 C577 0.960 . S
H586 C578 0.930 . S
H587 C579 0.929 . S
H588 C596 0.929 . S
H589 C598 0.930 . S
H590 C600 0.930 . S
H591 C603 0.929 . S
H592 C606 0.930 . S
H593 C608 0.960 . S
H594 C608 0.960 . S
H595 C608 0.960 . S
C596 H588 0.929 . S
C596 C597 1.377 . S
C596 C598 1.384 . S
C597 C596 1.377 . S
C597 C603 1.390 . S
C598 H589 0.930 . S
C598 C596 1.384 . S
C598 C599 1.372 . S
C599 C598 1.372 . S
C599 C600 1.400 . S
C599 C604 1.490 . S
C600 H590 0.930 . S
C600 C599 1.400 . S
C600 C603 1.386 . S
H601 C617 0.930 . S
H602 C618 0.931 . S
C603 H591 0.929 . S
C603 C597 1.390 . S
C603 C600 1.386 . S
C604 C599 1.490 . S
C604 C606 1.395 . S
C604 C607 1.403 . S
H605 C611 0.930 . S
C606 H592 0.930 . S
C606 C604 1.395 . S
C606 C609 1.403 . S
C607 C604 1.403 . S
C607 C608 1.524 . S
C607 C611 1.400 . S
C608 H593 0.960 . S
C608 H594 0.960 . S
C608 H595 0.960 . S
C608 C607 1.524 . S
C609 C606 1.403 . S
C609 C610 1.392 . S
C609 C613 1.495 . S
C610 C609 1.392 . S
C610 C611 1.385 . S
C610 C612 1.478 . S
C611 H605 0.930 . S
C611 C607 1.400 . S
C611 C610 1.385 . S
C612 C610 1.478 . S
C612 C614 1.381 . S
C612 C618 1.383 . S
C613 C609 1.495 . S
C613 H619 0.959 . S
C613 H620 0.961 . S
C613 H621 0.960 . S
C614 C612 1.381 . S
C614 C615 1.394 . S
C614 H622 0.930 . S
C615 C614 1.394 . S
C615 C616 1.383 . S
C615 H623 0.929 . S
C616 C615 1.383 . S
C616 C617 1.377 . S
C617 H601 0.930 . S
C617 C616 1.377 . S
C617 C618 1.379 . S
C618 H602 0.931 . S
C618 C612 1.383 . S
C618 C617 1.379 . S
H619 C613 0.959 . S
H620 C613 0.961 . S
H621 C613 0.960 . S
H622 C614 0.930 . S
H623 C615 0.929 . S
H624 C632 0.929 . S
H625 C634 0.930 . S
H626 C636 0.930 . S
H627 C639 0.929 . S
H628 C642 0.930 . S
H629 C644 0.960 . S
H630 C644 0.960 . S
H631 C644 0.960 . S
C632 H624 0.929 . S
C632 C633 1.377 . S
C632 C634 1.384 . S
C633 C632 1.377 . S
C633 C639 1.390 . S
C634 H625 0.930 . S
C634 C632 1.384 . S
C634 C635 1.372 . S
C635 C634 1.372 . S
C635 C636 1.400 . S
C635 C640 1.490 . S
C636 H626 0.930 . S
C636 C635 1.400 . S
C636 C639 1.386 . S
H637 C653 0.930 . S
H638 C654 0.931 . S
C639 H627 0.929 . S
C639 C633 1.390 . S
C639 C636 1.386 . S
C640 C635 1.490 . S
C640 C642 1.395 . S
C640 C643 1.403 . S
H641 C647 0.930 . S
C642 H628 0.930 . S
C642 C640 1.395 . S
C642 C645 1.403 . S
C643 C640 1.403 . S
C643 C644 1.524 . S
C643 C647 1.400 . S
C644 H629 0.960 . S
C644 H630 0.960 . S
C644 H631 0.960 . S
C644 C643 1.524 . S
C645 C642 1.403 . S
C645 C646 1.392 . S
C645 C649 1.495 . S
C646 C645 1.392 . S
C646 C647 1.385 . S
C646 C648 1.478 . S
C647 H641 0.930 . S
C647 C643 1.400 . S
C647 C646 1.385 . S
C648 C646 1.478 . S
C648 C650 1.381 . S
C648 C654 1.383 . S
C649 C645 1.495 . S
C649 H655 0.959 . S
C649 H656 0.961 . S
C649 H657 0.960 . S
C650 C648 1.381 . S
C650 C651 1.394 . S
C650 H658 0.930 . S
C651 C650 1.394 . S
C651 C652 1.383 . S
C651 H659 0.929 . S
C652 C651 1.383 . S
C652 C653 1.377 . S
C653 H637 0.930 . S
C653 C652 1.377 . S
C653 C654 1.379 . S
C654 H638 0.931 . S
C654 C648 1.383 . S
C654 C653 1.379 . S
H655 C649 0.959 . S
H656 C649 0.961 . S
H657 C649 0.960 . S
H658 C650 0.930 . S
H659 C651 0.929 . S
H660 C668 0.929 . S
H661 C670 0.930 . S
H662 C672 0.930 . S
H663 C675 0.929 . S
H664 C678 0.930 . S
H665 C680 0.960 . S
H666 C680 0.960 . S
H667 C680 0.960 . S
C668 H660 0.929 . S
C668 C669 1.377 . S
C668 C670 1.384 . S
C669 C668 1.377 . S
C669 C675 1.390 . S
C670 H661 0.930 . S
C670 C668 1.384 . S
C670 C671 1.372 . S
C671 C670 1.372 . S
C671 C672 1.400 . S
C671 C676 1.490 . S
C672 H662 0.930 . S
C672 C671 1.400 . S
C672 C675 1.386 . S
H673 C689 0.930 . S
H674 C690 0.931 . S
C675 H663 0.929 . S
C675 C669 1.390 . S
C675 C672 1.386 . S
C676 C671 1.490 . S
C676 C678 1.395 . S
C676 C679 1.403 . S
H677 C683 0.930 . S
C678 H664 0.930 . S
C678 C676 1.395 . S
C678 C681 1.403 . S
C679 C676 1.403 . S
C679 C680 1.524 . S
C679 C683 1.400 . S
C680 H665 0.960 . S
C680 H666 0.960 . S
C680 H667 0.960 . S
C680 C679 1.524 . S
C681 C678 1.403 . S
C681 C682 1.392 . S
C681 C685 1.495 . S
C682 C681 1.392 . S
C682 C683 1.385 . S
C682 C684 1.478 . S
C683 H677 0.930 . S
C683 C679 1.400 . S
C683 C682 1.385 . S
C684 C682 1.478 . S
C684 C686 1.381 . S
C684 C690 1.383 . S
C685 C681 1.495 . S
C685 H691 0.959 . S
C685 H692 0.961 . S
C685 H693 0.960 . S
C686 C684 1.381 . S
C686 C687 1.394 . S
C686 H694 0.930 . S
C687 C686 1.394 . S
C687 C688 1.383 . S
C687 H695 0.929 . S
C688 C687 1.383 . S
C688 C689 1.377 . S
C689 H673 0.930 . S
C689 C688 1.377 . S
C689 C690 1.379 . S
C690 H674 0.931 . S
C690 C684 1.383 . S
C690 C689 1.379 . S
H691 C685 0.959 . S
H692 C685 0.961 . S
H693 C685 0.960 . S
H694 C686 0.930 . S
H695 C687 0.929 . S
H696 C704 0.929 . S
H697 C706 0.930 . S
H698 C708 0.930 . S
H699 C711 0.929 . S
H700 C714 0.930 . S
H701 C716 0.960 . S
H702 C716 0.960 . S
H703 C716 0.960 . S
C704 H696 0.929 . S
C704 C705 1.377 . S
C704 C706 1.384 . S
C705 C704 1.377 . S
C705 C711 1.390 . S
C706 H697 0.930 . S
C706 C704 1.384 . S
C706 C707 1.372 . S
C707 C706 1.372 . S
C707 C708 1.400 . S
C707 C712 1.490 . S
C708 H698 0.930 . S
C708 C707 1.400 . S
C708 C711 1.386 . S
H709 C725 0.930 . S
H710 C726 0.931 . S
C711 H699 0.929 . S
C711 C705 1.390 . S
C711 C708 1.386 . S
C712 C707 1.490 . S
C712 C714 1.395 . S
C712 C715 1.403 . S
H713 C719 0.930 . S
C714 H700 0.930 . S
C714 C712 1.395 . S
C714 C717 1.403 . S
C715 C712 1.403 . S
C715 C716 1.524 . S
C715 C719 1.400 . S
C716 H701 0.960 . S
C716 H702 0.960 . S
C716 H703 0.960 . S
C716 C715 1.524 . S
C717 C714 1.403 . S
C717 C718 1.392 . S
C717 C721 1.495 . S
C718 C717 1.392 . S
C718 C719 1.385 . S
C718 C720 1.478 1_565 S
C719 H713 0.930 . S
C719 C715 1.400 . S
C719 C718 1.385 . S
C720 C718 1.478 1_545 S
C720 C722 1.381 . S
C720 C726 1.383 . S
C721 C717 1.495 . S
C721 H727 0.959 . S
C721 H728 0.961 1_565 S
C721 H729 0.960 . S
C722 C720 1.381 . S
C722 C723 1.394 . S
C722 H730 0.930 1_545 S
C723 C722 1.394 . S
C723 C724 1.383 . S
C723 H731 0.929 . S
C724 C723 1.383 . S
C724 C725 1.377 . S
C725 H709 0.930 . S
C725 C724 1.377 . S
C725 C726 1.379 . S
C726 H710 0.931 . S
C726 C720 1.383 . S
C726 C725 1.379 . S
H727 C721 0.959 . S
H728 C721 0.961 1_545 S
H729 C721 0.960 . S
H730 C722 0.930 1_565 S
H731 C723 0.929 . S
H732 C740 0.929 . S
H733 C742 0.930 . S
H734 C744 0.930 . S
H735 C747 0.929 . S
H736 C750 0.930 . S
H737 C752 0.960 . S
H738 C752 0.960 . S
H739 C752 0.960 . S
C740 H732 0.929 . S
C740 C741 1.377 . S
C740 C742 1.384 . S
C741 C740 1.377 . S
C741 C747 1.390 . S
C742 H733 0.930 . S
C742 C740 1.384 . S
C742 C743 1.372 . S
C743 C742 1.372 . S
C743 C744 1.400 . S
C743 C748 1.490 . S
C744 H734 0.930 . S
C744 C743 1.400 . S
C744 C747 1.386 . S
H745 C761 0.930 . S
H746 C762 0.931 . S
C747 H735 0.929 . S
C747 C741 1.390 . S
C747 C744 1.386 . S
C748 C743 1.490 . S
C748 C750 1.395 . S
C748 C751 1.403 . S
H749 C755 0.930 . S
C750 H736 0.930 . S
C750 C748 1.395 . S
C750 C753 1.403 . S
C751 C748 1.403 . S
C751 C752 1.524 . S
C751 C755 1.400 . S
C752 H737 0.960 . S
C752 H738 0.960 . S
C752 H739 0.960 . S
C752 C751 1.524 . S
C753 C750 1.403 . S
C753 C754 1.392 . S
C753 C757 1.495 . S
C754 C753 1.392 . S
C754 C755 1.385 . S
C754 C756 1.478 . S
C755 H749 0.930 . S
C755 C751 1.400 . S
C755 C754 1.385 . S
C756 C754 1.478 . S
C756 C758 1.381 . S
C756 C762 1.383 . S
C757 C753 1.495 . S
C757 H763 0.959 . S
C757 H764 0.961 . S
C757 H765 0.960 . S
C758 C756 1.381 . S
C758 C759 1.394 . S
C758 H766 0.930 . S
C759 C758 1.394 . S
C759 C760 1.383 . S
C759 H767 0.929 . S
C760 C759 1.383 . S
C760 C761 1.377 . S
C761 H745 0.930 . S
C761 C760 1.377 . S
C761 C762 1.379 . S
C762 H746 0.931 . S
C762 C756 1.383 . S
C762 C761 1.379 . S
H763 C757 0.959 . S
H764 C757 0.961 . S
H765 C757 0.960 . S
H766 C758 0.930 . S
H767 C759 0.929 . S
H768 C776 0.929 . S
H769 C778 0.930 . S
H770 C780 0.930 1_556 S
H771 C783 0.929 . S
H772 C786 0.968 . S
H773 C788 0.960 . S
H774 C788 0.960 . S
H775 C788 0.960 . S
C776 H768 0.929 . S
C776 C777 1.377 . S
C776 C778 1.384 . S
C777 C776 1.377 . S
C777 C783 1.390 . S
C778 H769 0.930 . S
C778 C776 1.384 . S
C778 C779 1.372 . S
C779 C778 1.372 . S
C779 C780 1.400 . S
C779 C784 1.490 1_554 S
C780 H770 0.930 1_554 S
C780 C779 1.400 . S
C780 C783 1.386 . S
H781 C797 0.930 . S
H782 C798 0.931 . S
C783 H771 0.929 . S
C783 C777 1.390 . S
C783 C780 1.386 . S
C784 C779 1.490 1_556 S
C784 C786 1.395 . S
C784 C787 1.403 . S
H785 C791 0.930 . S
C786 H772 0.968 . S
C786 C784 1.395 . S
C786 C789 1.403 . S
C787 C784 1.403 . S
C787 C788 1.524 . S
C787 C791 1.400 . S
C788 H773 0.960 . S
C788 H774 0.960 . S
C788 H775 0.960 . S
C788 C787 1.524 . S
C789 C786 1.403 . S
C789 C790 1.392 . S
C789 C793 1.495 . S
C790 C789 1.392 . S
C790 C791 1.385 . S
C790 C792 1.478 . S
C791 H785 0.930 . S
C791 C787 1.400 . S
C791 C790 1.385 . S
C792 C790 1.478 . S
C792 C794 1.381 . S
C792 C798 1.383 . S
C793 C789 1.495 . S
C793 H799 0.959 . S
C793 H800 0.961 . S
C793 H801 0.960 . S
C794 C792 1.381 . S
C794 C795 1.394 . S
C794 H802 0.930 . S
C795 C794 1.394 . S
C795 C796 1.383 . S
C795 H803 0.929 . S
C796 C795 1.383 . S
C796 C797 1.377 . S
C797 H781 0.930 . S
C797 C796 1.377 . S
C797 C798 1.379 . S
C798 H782 0.931 . S
C798 C792 1.383 . S
C798 C797 1.379 . S
H799 C793 0.959 . S
H800 C793 0.961 . S
H801 C793 0.960 . S
H802 C794 0.930 . S
H803 C795 0.929 . S
H804 C812 0.929 . S
H805 C814 0.930 . S
H806 C816 0.930 1_556 S
H807 C819 0.929 . S
H808 C822 0.930 1_554 S
H809 C824 0.960 . S
H810 C824 0.960 . S
H811 C824 0.960 . S
C812 H804 0.929 . S
C812 C813 1.377 . S
C812 C814 1.384 . S
C813 C812 1.377 . S
C813 C819 1.390 . S
C814 H805 0.930 . S
C814 C812 1.384 . S
C814 C815 1.372 . S
C815 C814 1.372 . S
C815 C816 1.400 . S
C815 C820 1.490 1_554 S
C816 H806 0.930 1_554 S
C816 C815 1.400 . S
C816 C819 1.386 . S
H817 C833 0.930 . S
H818 C834 0.931 . S
C819 H807 0.929 . S
C819 C813 1.390 . S
C819 C816 1.386 . S
C820 C815 1.490 1_556 S
C820 C822 1.395 . S
C820 C823 1.403 . S
H821 C827 0.930 . S
C822 H808 0.930 1_556 S
C822 C820 1.395 . S
C822 C825 1.403 . S
C823 C820 1.403 . S
C823 C824 1.524 . S
C823 C827 1.400 . S
C824 H809 0.960 . S
C824 H810 0.960 . S
C824 H811 0.960 . S
C824 C823 1.524 . S
C825 C822 1.403 . S
C825 C826 1.392 . S
C825 C829 1.495 . S
C826 C825 1.392 . S
C826 C827 1.385 . S
C826 C828 1.478 . S
C827 H821 0.930 . S
C827 C823 1.400 . S
C827 C826 1.385 . S
C828 C826 1.478 . S
C828 C830 1.381 . S
C828 C834 1.383 . S
C829 C825 1.495 . S
C829 H835 0.959 . S
C829 H836 0.961 . S
C829 H837 0.960 . S
C830 C828 1.381 . S
C830 C831 1.394 . S
C830 H838 0.930 . S
C831 C830 1.394 . S
C831 C832 1.383 . S
C831 H839 0.929 . S
C832 C831 1.383 . S
C832 C833 1.377 . S
C833 H817 0.930 . S
C833 C832 1.377 . S
C833 C834 1.379 . S
C834 H818 0.931 . S
C834 C828 1.383 . S
C834 C833 1.379 . S
H835 C829 0.959 . S
H836 C829 0.961 . S
H837 C829 0.960 . S
H838 C830 0.930 . S
H839 C831 0.929 . S
H840 C848 0.929 . S
H841 C850 0.930 . S
H842 C852 0.930 . S
H843 C855 0.929 . S
H844 C858 0.930 . S
H845 C860 0.960 . S
H846 C860 0.960 . S
H847 C860 0.960 . S
C848 H840 0.929 . S
C848 C849 1.377 . S
C848 C850 1.384 . S
C849 C848 1.377 . S
C849 C855 1.390 . S
C850 H841 0.930 . S
C850 C848 1.384 . S
C850 C851 1.372 . S
C851 C850 1.372 . S
C851 C852 1.400 . S
C851 C856 1.490 . S
C852 H842 0.930 . S
C852 C851 1.400 . S
C852 C855 1.386 . S
H853 C869 0.930 . S
H854 C870 0.931 . S
C855 H843 0.929 . S
C855 C849 1.390 . S
C855 C852 1.386 . S
C856 C851 1.490 . S
C856 C858 1.395 . S
C856 C859 1.403 . S
H857 C863 0.930 . S
C858 H844 0.930 . S
C858 C856 1.395 . S
C858 C861 1.403 . S
C859 C856 1.403 . S
C859 C860 1.524 . S
C859 C863 1.400 . S
C860 H845 0.960 . S
C860 H846 0.960 . S
C860 H847 0.960 . S
C860 C859 1.524 . S
C861 C858 1.403 . S
C861 C862 1.392 . S
C861 C865 1.495 . S
C862 C861 1.392 . S
C862 C863 1.385 . S
C862 C864 1.478 . S
C863 H857 0.930 . S
C863 C859 1.400 . S
C863 C862 1.385 . S
C864 C862 1.478 . S
C864 C866 1.381 . S
C864 C870 1.383 . S
C865 C861 1.495 . S
C865 H871 0.959 . S
C865 H872 0.961 . S
C865 H873 0.960 . S
C866 C864 1.381 . S
C866 C867 1.394 . S
C866 H874 0.930 . S
C867 C866 1.394 . S
C867 C868 1.383 . S
C867 H875 0.929 . S
C868 C867 1.383 . S
C868 C869 1.377 . S
C869 H853 0.930 . S
C869 C868 1.377 . S
C869 C870 1.379 . S
C870 H854 0.931 . S
C870 C864 1.383 . S
C870 C869 1.379 . S
H871 C865 0.959 . S
H872 C865 0.961 . S
H873 C865 0.960 . S
H874 C866 0.930 . S
H875 C867 0.929 . S
H876 C884 0.929 . S
H877 C886 0.930 . S
H878 C888 0.930 . S
H879 C891 0.929 . S
H880 C894 0.930 . S
H881 C896 0.960 . S
H882 C896 0.960 . S
H883 C896 0.960 . S
C884 H876 0.929 . S
C884 C885 1.377 . S
C884 C886 1.384 . S
C885 C884 1.377 . S
C885 C891 1.390 . S
C886 H877 0.930 . S
C886 C884 1.384 . S
C886 C887 1.372 . S
C887 C886 1.372 . S
C887 C888 1.400 . S
C887 C892 1.490 . S
C888 H878 0.930 . S
C888 C887 1.400 . S
C888 C891 1.386 . S
H889 C905 0.930 . S
H890 C906 0.931 . S
C891 H879 0.929 . S
C891 C885 1.390 . S
C891 C888 1.386 . S
C892 C887 1.490 . S
C892 C894 1.395 . S
C892 C895 1.403 . S
H893 C899 0.930 . S
C894 H880 0.930 . S
C894 C892 1.395 . S
C894 C897 1.403 . S
C895 C892 1.403 . S
C895 C896 1.524 . S
C895 C899 1.400 . S
C896 H881 0.960 . S
C896 H882 0.960 . S
C896 H883 0.960 . S
C896 C895 1.524 . S
C897 C894 1.403 . S
C897 C898 1.392 . S
C897 C901 1.495 . S
C898 C897 1.392 . S
C898 C899 1.385 . S
C898 C900 1.478 . S
C899 H893 0.930 . S
C899 C895 1.400 . S
C899 C898 1.385 . S
C900 C898 1.478 . S
C900 C902 1.381 . S
C900 C906 1.383 . S
C901 C897 1.495 . S
C901 H907 0.959 . S
C901 H908 0.961 . S
C901 H909 0.960 . S
C902 C900 1.381 . S
C902 C903 1.394 . S
C902 H910 0.930 . S
C903 C902 1.394 . S
C903 C904 1.383 . S
C903 H911 0.929 . S
C904 C903 1.383 . S
C904 C905 1.377 . S
C905 H889 0.930 . S
C905 C904 1.377 . S
C905 C906 1.379 . S
C906 H890 0.931 . S
C906 C900 1.383 . S
C906 C905 1.379 . S
H907 C901 0.959 . S
H908 C901 0.961 . S
H909 C901 0.960 . S
H910 C902 0.930 . S
H911 C903 0.929 . S
H912 C920 0.929 . S
H913 C922 0.930 . S
H914 C924 0.930 . S
H915 C927 0.929 . S
H916 C930 0.930 1_455 S
H917 C932 0.960 . S
H918 C932 0.960 . S
H919 C932 0.960 . S
C920 H912 0.929 . S
C920 C921 1.377 . S
C920 C922 1.384 . S
C921 C920 1.377 . S
C921 C927 1.390 . S
C922 H913 0.930 . S
C922 C920 1.384 . S
C922 C923 1.372 . S
C923 C922 1.372 . S
C923 C924 1.400 . S
C923 C928 1.490 1_455 S
C924 H914 0.930 . S
C924 C923 1.400 . S
C924 C927 1.386 . S
H925 C941 0.930 . S
H926 C942 0.931 . S
C927 H915 0.929 . S
C927 C921 1.390 . S
C927 C924 1.386 . S
C928 C923 1.490 1_655 S
C928 C930 1.395 . S
C928 C931 1.403 . S
H929 C935 0.930 . S
C930 H916 0.930 1_655 S
C930 C928 1.395 . S
C930 C933 1.403 . S
C931 C928 1.403 . S
C931 C932 1.524 . S
C931 C935 1.400 . S
C932 H917 0.960 . S
C932 H918 0.960 . S
C932 H919 0.960 . S
C932 C931 1.524 . S
C933 C930 1.403 . S
C933 C934 1.392 . S
C933 C937 1.495 . S
C934 C933 1.392 . S
C934 C935 1.385 . S
C934 C936 1.478 . S
C935 H929 0.930 . S
C935 C931 1.400 . S
C935 C934 1.385 . S
C936 C934 1.478 . S
C936 C938 1.381 . S
C936 C942 1.383 . S
C937 C933 1.495 . S
C937 H943 0.959 . S
C937 H944 0.961 . S
C937 H945 0.960 . S
C938 C936 1.381 . S
C938 C939 1.394 . S
C938 H946 0.930 . S
C939 C938 1.394 . S
C939 C940 1.383 . S
C939 H947 0.929 . S
C940 C939 1.383 . S
C940 C941 1.377 . S
C941 H925 0.930 . S
C941 C940 1.377 . S
C941 C942 1.379 . S
C942 H926 0.931 . S
C942 C936 1.383 . S
C942 C941 1.379 . S
H943 C937 0.959 . S
H944 C937 0.961 . S
H945 C937 0.960 . S
H946 C938 0.930 . S
H947 C939 0.929 . S
H948 C956 0.929 . S
H949 C958 0.930 . S
H950 C960 0.930 . S
H951 C963 0.929 . S
H952 C966 0.930 1_655 S
H953 C968 0.960 . S
H954 C968 0.960 . S
H955 C968 0.960 . S
C956 H948 0.929 . S
C956 C957 1.377 . S
C956 C958 1.384 . S
C957 C956 1.377 . S
C957 C963 1.390 . S
C958 H949 0.930 . S
C958 C956 1.384 . S
C958 C959 1.372 . S
C959 C958 1.372 . S
C959 C960 1.400 . S
C959 C964 1.490 1_655 S
C960 H950 0.930 . S
C960 C959 1.400 . S
C960 C963 1.386 . S
H961 C977 0.930 . S
H962 C978 0.931 . S
C963 H951 0.929 . S
C963 C957 1.390 . S
C963 C960 1.386 . S
C964 C959 1.490 1_455 S
C964 C966 1.395 . S
C964 C967 1.403 . S
H965 C971 0.930 . S
C966 H952 0.930 1_455 S
C966 C964 1.395 . S
C966 C969 1.403 . S
C967 C964 1.403 . S
C967 C968 1.524 . S
C967 C971 1.400 . S
C968 H953 0.960 . S
C968 H954 0.960 . S
C968 H955 0.960 . S
C968 C967 1.524 . S
C969 C966 1.403 . S
C969 C970 1.392 . S
C969 C973 1.495 . S
C970 C969 1.392 . S
C970 C971 1.385 . S
C970 C972 1.478 . S
C971 H965 0.930 . S
C971 C967 1.400 . S
C971 C970 1.385 . S
C972 C970 1.478 . S
C972 C974 1.381 . S
C972 C978 1.383 . S
C973 C969 1.495 . S
C973 H979 0.959 . S
C973 H980 0.961 . S
C973 H981 0.960 . S
C974 C972 1.381 . S
C974 C975 1.394 . S
C974 H982 0.930 . S
C975 C974 1.394 . S
C975 C976 1.383 . S
C975 H983 0.929 . S
C976 C975 1.383 . S
C976 C977 1.377 . S
C977 H961 0.930 . S
C977 C976 1.377 . S
C977 C978 1.379 . S
C978 H962 0.931 . S
C978 C972 1.383 . S
C978 C977 1.379 . S
H979 C973 0.959 . S
H980 C973 0.961 . S
H981 C973 0.960 . S
H982 C974 0.930 . S
H983 C975 0.929 . S
H984 C992 0.929 . S
H985 C994 0.930 . S
H986 C996 0.930 . S
H987 C999 0.929 . S
H988 C1002 0.930 . S
H989 C1004 0.960 . S
H990 C1004 0.960 . S
H991 C1004 0.960 . S
C992 H984 0.929 . S
C992 C993 1.377 . S
C992 C994 1.384 . S
C993 C992 1.377 . S
C993 C999 1.390 . S
C994 H985 0.930 . S
C994 C992 1.384 . S
C994 C995 1.372 . S
C995 C994 1.372 . S
C995 C996 1.400 . S
C995 C1000 1.490 1_455 S
C996 H986 0.930 . S
C996 C995 1.400 . S
C996 C999 1.386 . S
H997 C1013 0.930 . S
H998 C1014 0.931 . S
C999 H987 0.929 . S
C999 C993 1.390 . S
C999 C996 1.386 . S
C1000 C995 1.490 1_655 S
C1000 C1002 1.395 . S
C1000 C1003 1.403 . S
H1001 C1007 0.930 . S
C1002 H988 0.930 . S
C1002 C1000 1.395 . S
C1002 C1005 1.403 . S
C1003 C1000 1.403 . S
C1003 C1004 1.524 1_655 S
C1003 C1007 1.400 . S
C1004 H989 0.960 . S
C1004 H990 0.960 . S
C1004 H991 0.960 . S
C1004 C1003 1.524 1_455 S
C1005 C1002 1.403 . S
C1005 C1006 1.392 . S
C1005 C1009 1.495 . S
C1006 C1005 1.392 . S
C1006 C1007 1.385 . S
C1006 C1008 1.478 . S
C1007 H1001 0.930 . S
C1007 C1003 1.400 . S
C1007 C1006 1.385 . S
C1008 C1006 1.478 . S
C1008 C1010 1.381 . S
C1008 C1014 1.383 . S
C1009 C1005 1.495 . S
C1009 H1015 0.959 . S
C1009 H1016 0.961 . S
C1009 H1017 0.960 . S
C1010 C1008 1.381 . S
C1010 C1011 1.394 . S
C1010 H1018 0.930 . S
C1011 C1010 1.394 . S
C1011 C1012 1.383 . S
C1011 H1019 0.929 . S
C1012 C1011 1.383 . S
C1012 C1013 1.377 . S
C1013 H997 0.930 . S
C1013 C1012 1.377 . S
C1013 C1014 1.379 . S
C1014 H998 0.931 . S
C1014 C1008 1.383 . S
C1014 C1013 1.379 . S
H1015 C1009 0.959 . S
H1016 C1009 0.961 . S
H1017 C1009 0.960 . S
H1018 C1010 0.930 . S
H1019 C1011 0.929 . S
H1020 C1028 0.929 . S
H1021 C1030 0.930 . S
H1022 C1032 0.930 . S
H1023 C1035 0.929 . S
H1024 C1038 0.930 . S
H1025 C1040 0.960 . S
H1026 C1040 0.960 . S
H1027 C1040 0.960 . S
C1028 H1020 0.929 . S
C1028 C1029 1.377 . S
C1028 C1030 1.384 . S
C1029 C1028 1.377 . S
C1029 C1035 1.390 . S
C1030 H1021 0.930 . S
C1030 C1028 1.384 . S
C1030 C1031 1.372 . S
C1031 C1030 1.372 . S
C1031 C1032 1.400 . S
C1031 C1036 1.490 . S
C1032 H1022 0.930 . S
C1032 C1031 1.400 . S
C1032 C1035 1.386 . S
H1033 C1049 0.930 . S
H1034 C1050 0.931 . S
C1035 H1023 0.929 . S
C1035 C1029 1.390 . S
C1035 C1032 1.386 . S
C1036 C1031 1.490 . S
C1036 C1038 1.395 . S
C1036 C1039 1.403 . S
H1037 C1043 0.946 . S
C1038 H1024 0.930 . S
C1038 C1036 1.395 . S
C1038 C1041 1.403 . S
C1039 C1036 1.403 . S
C1039 C1040 1.524 . S
C1039 C1043 1.400 . S
C1040 H1025 0.960 . S
C1040 H1026 0.960 . S
C1040 H1027 0.960 . S
C1040 C1039 1.524 . S
C1041 C1038 1.403 . S
C1041 C1042 1.392 . S
C1041 C1045 1.495 . S
C1042 C1041 1.392 . S
C1042 C1043 1.385 . S
C1042 C1044 1.478 1_455 S
C1043 H1037 0.946 . S
C1043 C1039 1.400 . S
C1043 C1042 1.385 . S
C1044 C1042 1.478 1_655 S
C1044 C1046 1.381 . S
C1044 C1050 1.383 . S
C1045 C1041 1.495 . S
C1045 H1051 0.959 . S
C1045 H1052 0.961 . S
C1045 H1053 0.960 . S
C1046 C1044 1.381 . S
C1046 C1047 1.394 . S
C1046 H1054 0.930 1_655 S
C1047 C1046 1.394 . S
C1047 C1048 1.383 . S
C1047 H1055 0.929 . S
C1048 C1047 1.383 . S
C1048 C1049 1.377 . S
C1049 H1033 0.930 . S
C1049 C1048 1.377 . S
C1049 C1050 1.379 . S
C1050 H1034 0.931 . S
C1050 C1044 1.383 . S
C1050 C1049 1.379 . S
H1051 C1045 0.959 . S
H1052 C1045 0.961 . S
H1053 C1045 0.960 . S
H1054 C1046 0.930 1_455 S
H1055 C1047 0.929 . S
H1056 C1064 0.929 . S
H1057 C1066 0.930 . S
H1058 C1068 0.930 1_565 S
H1059 C1071 0.929 . S
H1060 C1074 0.930 . S
H1061 C1076 0.960 . S
H1062 C1076 0.960 . S
H1063 C1076 0.960 . S
C1064 H1056 0.929 . S
C1064 C1065 1.377 . S
C1064 C1066 1.384 . S
C1065 C1064 1.377 . S
C1065 C1071 1.390 . S
C1066 H1057 0.930 . S
C1066 C1064 1.384 . S
C1066 C1067 1.372 . S
C1067 C1066 1.372 . S
C1067 C1068 1.400 . S
C1067 C1072 1.490 1_545 S
C1068 H1058 0.930 1_545 S
C1068 C1067 1.400 . S
C1068 C1071 1.386 . S
H1069 C1085 0.930 . S
H1070 C1086 0.931 . S
C1071 H1059 0.929 . S
C1071 C1065 1.390 . S
C1071 C1068 1.386 . S
C1072 C1067 1.490 1_565 S
C1072 C1074 1.395 . S
C1072 C1075 1.403 . S
H1073 C1079 0.930 . S
C1074 H1060 0.930 . S
C1074 C1072 1.395 . S
C1074 C1077 1.403 . S
C1075 C1072 1.403 . S
C1075 C1076 1.524 . S
C1075 C1079 1.400 . S
C1076 H1061 0.960 . S
C1076 H1062 0.960 . S
C1076 H1063 0.960 . S
C1076 C1075 1.524 . S
C1077 C1074 1.403 . S
C1077 C1078 1.392 . S
C1077 C1081 1.495 . S
C1078 C1077 1.392 . S
C1078 C1079 1.385 . S
C1078 C1080 1.478 . S
C1079 H1073 0.930 . S
C1079 C1075 1.400 . S
C1079 C1078 1.385 . S
C1080 C1078 1.478 . S
C1080 C1082 1.381 . S
C1080 C1086 1.383 . S
C1081 C1077 1.495 . S
C1081 H1087 0.959 . S
C1081 H1088 0.961 . S
C1081 H1089 0.960 . S
C1082 C1080 1.381 . S
C1082 C1083 1.394 . S
C1082 H1090 0.930 . S
C1083 C1082 1.394 . S
C1083 C1084 1.383 . S
C1083 H1091 0.929 . S
C1084 C1083 1.383 . S
C1084 C1085 1.377 . S
C1085 H1069 0.930 . S
C1085 C1084 1.377 . S
C1085 C1086 1.379 . S
C1086 H1070 0.931 . S
C1086 C1080 1.383 . S
C1086 C1085 1.379 . S
H1087 C1081 0.959 . S
H1088 C1081 0.961 . S
H1089 C1081 0.960 . S
H1090 C1082 0.930 . S
H1091 C1083 0.929 . S
H1092 C1100 0.929 . S
H1093 C1102 0.930 . S
H1094 C1104 0.930 . S
H1095 C1107 0.929 . S
H1096 C1110 0.930 . S
H1097 C1112 0.960 . S
H1098 C1112 0.960 . S
H1099 C1112 0.960 . S
C1100 H1092 0.929 . S
C1100 C1101 1.377 . S
C1100 C1102 1.384 . S
C1101 C1100 1.377 . S
C1101 C1107 1.390 . S
C1102 H1093 0.930 . S
C1102 C1100 1.384 . S
C1102 C1103 1.372 . S
C1103 C1102 1.372 . S
C1103 C1104 1.400 . S
C1103 C1108 1.490 . S
C1104 H1094 0.930 . S
C1104 C1103 1.400 . S
C1104 C1107 1.386 . S
H1105 C1121 0.930 . S
H1106 C1122 0.931 . S
C1107 H1095 0.929 . S
C1107 C1101 1.390 . S
C1107 C1104 1.386 . S
C1108 C1103 1.490 . S
C1108 C1110 1.395 . S
C1108 C1111 1.403 . S
H1109 C1115 0.930 1_565 S
C1110 H1096 0.930 . S
C1110 C1108 1.395 . S
C1110 C1113 1.403 . S
C1111 C1108 1.403 . S
C1111 C1112 1.524 . S
C1111 C1115 1.400 . S
C1112 H1097 0.960 . S
C1112 H1098 0.960 . S
C1112 H1099 0.960 . S
C1112 C1111 1.524 . S
C1113 C1110 1.403 . S
C1113 C1114 1.392 . S
C1113 C1117 1.495 . S
C1114 C1113 1.392 . S
C1114 C1115 1.385 . S
C1114 C1116 1.478 1_545 S
C1115 H1109 0.930 1_545 S
C1115 C1111 1.400 . S
C1115 C1114 1.385 . S
C1116 C1114 1.478 1_565 S
C1116 C1118 1.381 . S
C1116 C1122 1.383 . S
C1117 C1113 1.495 . S
C1117 H1123 0.959 . S
C1117 H1124 0.961 . S
C1117 H1125 0.960 . S
C1118 C1116 1.381 . S
C1118 C1119 1.394 . S
C1118 H1126 0.930 . S
C1119 C1118 1.394 . S
C1119 C1120 1.383 . S
C1119 H1127 0.929 . S
C1120 C1119 1.383 . S
C1120 C1121 1.377 . S
C1121 H1105 0.930 . S
C1121 C1120 1.377 . S
C1121 C1122 1.379 . S
C1122 H1106 0.931 . S
C1122 C1116 1.383 . S
C1122 C1121 1.379 . S
H1123 C1117 0.959 . S
H1124 C1117 0.961 . S
H1125 C1117 0.960 . S
H1126 C1118 0.930 . S
H1127 C1119 0.929 . S
H1128 C1136 0.929 . S
H1129 C1138 0.930 . S
H1130 C1140 0.930 . S
H1131 C1143 0.929 . S
H1132 C1146 0.930 . S
H1133 C1148 0.960 . S
H1134 C1148 0.960 . S
H1135 C1148 0.960 . S
C1136 H1128 0.929 . S
C1136 C1137 1.377 . S
C1136 C1138 1.384 . S
C1137 C1136 1.377 . S
C1137 C1143 1.390 . S
C1138 H1129 0.930 . S
C1138 C1136 1.384 . S
C1138 C1139 1.372 . S
C1139 C1138 1.372 . S
C1139 C1140 1.400 . S
C1139 C1144 1.490 . S
C1140 H1130 0.930 . S
C1140 C1139 1.400 . S
C1140 C1143 1.386 . S
H1141 C1157 0.930 . S
H1142 C1158 0.931 . S
C1143 H1131 0.929 . S
C1143 C1137 1.390 . S
C1143 C1140 1.386 . S
C1144 C1139 1.490 . S
C1144 C1146 1.395 . S
C1144 C1147 1.403 . S
H1145 C1151 0.930 . S
C1146 H1132 0.930 . S
C1146 C1144 1.395 . S
C1146 C1149 1.403 . S
C1147 C1144 1.403 . S
C1147 C1148 1.524 . S
C1147 C1151 1.400 . S
C1148 H1133 0.960 . S
C1148 H1134 0.960 . S
C1148 H1135 0.960 . S
C1148 C1147 1.524 . S
C1149 C1146 1.403 . S
C1149 C1150 1.392 . S
C1149 C1153 1.495 . S
C1150 C1149 1.392 . S
C1150 C1151 1.385 . S
C1150 C1152 1.478 . S
C1151 H1145 0.930 . S
C1151 C1147 1.400 . S
C1151 C1150 1.385 . S
C1152 C1150 1.478 . S
C1152 C1154 1.381 . S
C1152 C1158 1.383 . S
C1153 C1149 1.495 . S
C1153 H1159 0.959 . S
C1153 H1160 0.961 . S
C1153 H1161 0.960 . S
C1154 C1152 1.381 . S
C1154 C1155 1.394 . S
C1154 H1162 0.930 . S
C1155 C1154 1.394 . S
C1155 C1156 1.383 . S
C1155 H1163 0.929 . S
C1156 C1155 1.383 . S
C1156 C1157 1.377 . S
C1157 H1141 0.930 . S
C1157 C1156 1.377 . S
C1157 C1158 1.379 . S
C1158 H1142 0.931 . S
C1158 C1152 1.383 . S
C1158 C1157 1.379 . S
H1159 C1153 0.959 . S
H1160 C1153 0.961 . S
H1161 C1153 0.960 . S
H1162 C1154 0.930 . S
H1163 C1155 0.929 . S
H1164 C1172 0.929 . S
H1165 C1174 0.930 . S
H1166 C1176 0.930 . S
H1167 C1179 0.929 . S
H1168 C1182 0.930 . S
H1169 C1184 0.960 . S
H1170 C1184 0.960 . S
H1171 C1184 0.960 . S
C1172 H1164 0.929 . S
C1172 C1173 1.377 . S
C1172 C1174 1.384 . S
C1173 C1172 1.377 . S
C1173 C1179 1.390 . S
C1174 H1165 0.930 . S
C1174 C1172 1.384 . S
C1174 C1175 1.372 . S
C1175 C1174 1.372 . S
C1175 C1176 1.400 . S
C1175 C1180 1.490 . S
C1176 H1166 0.930 . S
C1176 C1175 1.400 . S
C1176 C1179 1.386 . S
H1177 C1193 0.930 . S
H1178 C1194 0.931 . S
C1179 H1167 0.929 . S
C1179 C1173 1.390 . S
C1179 C1176 1.386 . S
C1180 C1175 1.490 . S
C1180 C1182 1.395 . S
C1180 C1183 1.403 . S
H1181 C1187 0.930 . S
C1182 H1168 0.930 . S
C1182 C1180 1.395 . S
C1182 C1185 1.403 . S
C1183 C1180 1.403 . S
C1183 C1184 1.524 . S
C1183 C1187 1.400 . S
C1184 H1169 0.960 . S
C1184 H1170 0.960 . S
C1184 H1171 0.960 . S
C1184 C1183 1.524 . S
C1185 C1182 1.403 . S
C1185 C1186 1.392 . S
C1185 C1189 1.495 . S
C1186 C1185 1.392 . S
C1186 C1187 1.385 . S
C1186 C1188 1.478 1_545 S
C1187 H1181 0.930 . S
C1187 C1183 1.400 . S
C1187 C1186 1.385 . S
C1188 C1186 1.478 1_565 S
C1188 C1190 1.381 . S
C1188 C1194 1.383 . S
C1189 C1185 1.495 . S
C1189 H1195 0.959 . S
C1189 H1196 0.961 . S
C1189 H1197 0.960 . S
C1190 C1188 1.381 . S
C1190 C1191 1.394 . S
C1190 H1198 0.930 . S
C1191 C1190 1.394 . S
C1191 C1192 1.383 . S
C1191 H1199 0.929 . S
C1192 C1191 1.383 . S
C1192 C1193 1.377 . S
C1193 H1177 0.930 . S
C1193 C1192 1.377 . S
C1193 C1194 1.379 . S
C1194 H1178 0.931 . S
C1194 C1188 1.383 . S
C1194 C1193 1.379 . S
H1195 C1189 0.959 . S
H1196 C1189 0.961 . S
H1197 C1189 0.960 . S
H1198 C1190 0.930 . S
H1199 C1191 0.929 . S
H1200 C1208 0.929 . S
H1201 C1210 0.930 . S
H1202 C1212 0.930 . S
H1203 C1215 0.929 . S
H1204 C1218 0.930 . S
H1205 C1220 0.960 . S
H1206 C1220 0.960 . S
H1207 C1220 0.960 . S
C1208 H1200 0.929 . S
C1208 C1209 1.377 . S
C1208 C1210 1.384 . S
C1209 C1208 1.377 . S
C1209 C1215 1.390 1_655 S
C1210 H1201 0.930 . S
C1210 C1208 1.384 . S
C1210 C1211 1.372 . S
C1211 C1210 1.372 . S
C1211 C1212 1.400 1_655 S
C1211 C1216 1.490 . S
C1212 H1202 0.930 . S
C1212 C1211 1.400 1_455 S
C1212 C1215 1.386 . S
H1213 C1229 0.930 . S
H1214 C1230 0.931 . S
C1215 H1203 0.929 . S
C1215 C1209 1.390 1_455 S
C1215 C1212 1.386 . S
C1216 C1211 1.490 . S
C1216 C1218 1.395 . S
C1216 C1219 1.403 1_655 S
H1217 C1223 0.930 . S
C1218 H1204 0.930 . S
C1218 C1216 1.395 . S
C1218 C1221 1.403 . S
C1219 C1216 1.403 1_455 S
C1219 C1220 1.524 . S
C1219 C1223 1.400 . S
C1220 H1205 0.960 . S
C1220 H1206 0.960 . S
C1220 H1207 0.960 . S
C1220 C1219 1.524 . S
C1221 C1218 1.403 . S
C1221 C1222 1.415 . S
C1221 C1225 1.495 . S
C1222 C1221 1.415 . S
C1222 C1223 1.365 1_655 S
C1222 C1224 1.474 1_655 S
C1223 H1217 0.930 . S
C1223 C1219 1.400 . S
C1223 C1222 1.365 1_455 S
C1224 C1222 1.474 1_455 S
C1224 C1226 1.349 1_455 S
C1224 C1230 1.418 . S
C1225 C1221 1.495 . S
C1225 H1231 0.959 . S
C1225 H1232 0.961 . S
C1225 H1233 0.960 . S
C1226 C1224 1.349 1_655 S
C1226 C1227 1.394 . S
C1226 H1234 0.930 . S
C1227 C1226 1.394 . S
C1227 C1228 1.383 1_655 S
C1227 H1235 0.929 . S
C1228 C1227 1.383 1_455 S
C1228 C1229 1.377 . S
C1229 H1213 0.930 . S
C1229 C1228 1.377 . S
C1229 C1230 1.379 . S
C1230 H1214 0.931 . S
C1230 C1224 1.418 . S
C1230 C1229 1.379 . S
H1231 C1225 0.959 . S
H1232 C1225 0.961 . S
H1233 C1225 0.960 . S
H1234 C1226 0.930 . S
H1235 C1227 0.929 . S
H1236 C1244 0.929 . S
H1237 C1246 0.930 . S
H1238 C1248 0.930 . S
H1239 C1251 0.929 . S
H1240 C1254 0.930 . S
H1241 C1256 0.960 . S
H1242 C1256 0.960 . S
H1243 C1256 0.960 . S
C1244 H1236 0.929 . S
C1244 C1245 1.377 . S
C1244 C1246 1.384 . S
C1245 C1244 1.377 . S
C1245 C1251 1.390 1_455 S
C1246 H1237 0.930 . S
C1246 C1244 1.384 . S
C1246 C1247 1.372 . S
C1247 C1246 1.372 . S
C1247 C1248 1.400 1_455 S
C1247 C1252 1.490 . S
C1248 H1238 0.930 . S
C1248 C1247 1.400 1_655 S
C1248 C1251 1.386 . S
H1249 C1265 0.930 . S
H1250 C1266 0.931 . S
C1251 H1239 0.929 . S
C1251 C1245 1.390 1_655 S
C1251 C1248 1.386 . S
C1252 C1247 1.490 . S
C1252 C1254 1.395 1_455 S
C1252 C1255 1.403 . S
H1253 C1259 0.930 . S
C1254 H1240 0.930 . S
C1254 C1252 1.395 1_655 S
C1254 C1257 1.403 . S
C1255 C1252 1.403 . S
C1255 C1256 1.524 . S
C1255 C1259 1.400 . S
C1256 H1241 0.960 . S
C1256 H1242 0.960 . S
C1256 H1243 0.960 . S
C1256 C1255 1.524 . S
C1257 C1254 1.403 . S
C1257 C1258 1.392 . S
C1257 C1261 1.495 . S
C1258 C1257 1.392 . S
C1258 C1259 1.385 1_655 S
C1258 C1260 1.478 . S
C1259 H1253 0.930 . S
C1259 C1255 1.400 . S
C1259 C1258 1.385 1_455 S
C1260 C1258 1.478 . S
C1260 C1262 1.381 1_655 S
C1260 C1266 1.383 . S
C1261 C1257 1.495 . S
C1261 H1267 0.959 . S
C1261 H1268 0.961 . S
C1261 H1269 0.960 . S
C1262 C1260 1.381 1_455 S
C1262 C1263 1.394 . S
C1262 H1270 0.930 . S
C1263 C1262 1.394 . S
C1263 C1264 1.383 1_455 S
C1263 H1271 0.929 . S
C1264 C1263 1.383 1_655 S
C1264 C1265 1.377 . S
C1265 H1249 0.930 . S
C1265 C1264 1.377 . S
C1265 C1266 1.379 . S
C1266 H1250 0.931 . S
C1266 C1260 1.383 . S
C1266 C1265 1.379 . S
H1267 C1261 0.959 . S
H1268 C1261 0.961 . S
H1269 C1261 0.960 . S
H1270 C1262 0.930 . S
H1271 C1263 0.929 . S
H1272 C1280 0.929 . S
H1273 C1282 0.930 . S
H1274 C1284 0.929 1_545 S
H1275 C1287 0.932 . S
H1276 C1290 0.930 . S
H1277 C1292 0.960 . S
H1278 C1292 0.960 . S
H1279 C1292 0.960 . S
C1280 H1272 0.929 . S
C1280 C1281 1.377 . S
C1280 C1282 1.384 . S
C1281 C1280 1.377 . S
C1281 C1287 1.390 . S
C1282 H1273 0.930 . S
C1282 C1280 1.384 . S
C1282 C1283 1.372 . S
C1283 C1282 1.372 . S
C1283 C1284 1.400 . S
C1283 C1288 1.491 . S
C1284 H1274 0.929 1_565 S
C1284 C1283 1.400 . S
C1284 C1287 1.386 . S
H1285 C1301 0.930 . S
H1286 C1302 0.935 . S
C1287 H1275 0.932 . S
C1287 C1281 1.390 . S
C1287 C1284 1.386 . S
C1288 C1283 1.491 . S
C1288 C1290 1.430 . S
C1288 C1291 1.368 1_565 S
H1289 C1295 0.930 . S
C1290 H1276 0.930 . S
C1290 C1288 1.430 . S
C1290 C1293 1.403 . S
C1291 C1288 1.368 1_545 S
C1291 C1292 1.524 . S
C1291 C1295 1.400 . S
C1292 H1277 0.960 . S
C1292 H1278 0.960 . S
C1292 H1279 0.960 . S
C1292 C1291 1.524 . S
C1293 C1290 1.403 . S
C1293 C1294 1.392 . S
C1293 C1297 1.495 . S
C1294 C1293 1.392 . S
C1294 C1295 1.385 1_565 S
C1294 C1296 1.480 . S
C1295 H1289 0.930 . S
C1295 C1291 1.400 . S
C1295 C1294 1.385 1_545 S
C1296 C1294 1.480 . S
C1296 C1298 1.378 1_565 S
C1296 C1302 1.382 . S
C1297 C1293 1.495 . S
C1297 H1303 0.959 . S
C1297 H1304 0.961 . S
C1297 H1305 0.960 . S
C1298 C1296 1.378 1_545 S
C1298 C1299 1.394 . S
C1298 H1306 0.932 . S
C1299 C1298 1.394 . S
C1299 C1300 1.383 . S
C1299 H1307 0.929 . S
C1300 C1299 1.383 . S
C1300 C1301 1.377 . S
C1301 H1285 0.930 . S
C1301 C1300 1.377 . S
C1301 C1302 1.376 1_545 S
C1302 H1286 0.935 . S
C1302 C1296 1.382 . S
C1302 C1301 1.376 1_565 S
H1303 C1297 0.959 . S
H1304 C1297 0.961 . S
H1305 C1297 0.960 . S
H1306 C1298 0.932 . S
H1307 C1299 0.929 . S
H1308 C1316 0.929 . S
H1309 C1318 0.930 . S
H1310 C1320 0.930 . S
H1311 C1323 0.929 . S
H1312 C1326 0.930 . S
H1313 C1328 0.960 . S
H1314 C1328 0.960 . S
H1315 C1328 0.960 . S
C1316 H1308 0.929 . S
C1316 C1317 1.377 . S
C1316 C1318 1.384 . S
C1317 C1316 1.377 . S
C1317 C1323 1.390 . S
C1318 H1309 0.930 . S
C1318 C1316 1.384 . S
C1318 C1319 1.372 . S
C1319 C1318 1.372 . S
C1319 C1320 1.400 . S
C1319 C1324 1.490 . S
C1320 H1310 0.930 . S
C1320 C1319 1.400 . S
C1320 C1323 1.386 . S
H1321 C1337 0.930 . S
H1322 C1338 0.931 . S
C1323 H1311 0.929 . S
C1323 C1317 1.390 . S
C1323 C1320 1.386 . S
C1324 C1319 1.490 . S
C1324 C1326 1.395 . S
C1324 C1327 1.403 . S
H1325 C1331 0.930 . S
C1326 H1312 0.930 . S
C1326 C1324 1.395 . S
C1326 C1329 1.403 . S
C1327 C1324 1.403 . S
C1327 C1328 1.524 . S
C1327 C1331 1.400 . S
C1328 H1313 0.960 . S
C1328 H1314 0.960 . S
C1328 H1315 0.960 . S
C1328 C1327 1.524 . S
C1329 C1326 1.403 . S
C1329 C1330 1.392 . S
C1329 C1333 1.495 . S
C1330 C1329 1.392 . S
C1330 C1331 1.385 . S
C1330 C1332 1.478 . S
C1331 H1325 0.930 . S
C1331 C1327 1.400 . S
C1331 C1330 1.385 . S
C1332 C1330 1.478 . S
C1332 C1334 1.381 . S
C1332 C1338 1.383 . S
C1333 C1329 1.495 . S
C1333 H1339 0.959 . S
C1333 H1340 0.961 . S
C1333 H1341 0.960 . S
C1334 C1332 1.381 . S
C1334 C1335 1.394 . S
C1334 H1342 0.930 . S
C1335 C1334 1.394 . S
C1335 C1336 1.383 . S
C1335 H1343 0.929 . S
C1336 C1335 1.383 . S
C1336 C1337 1.377 . S
C1337 H1321 0.930 . S
C1337 C1336 1.377 . S
C1337 C1338 1.379 . S
C1338 H1322 0.931 . S
C1338 C1332 1.383 . S
C1338 C1337 1.379 . S
H1339 C1333 0.959 . S
H1340 C1333 0.961 . S
H1341 C1333 0.960 . S
H1342 C1334 0.930 . S
H1343 C1335 0.929 . S
H1344 C1352 0.929 . S
H1345 C1354 0.930 . S
H1346 C1356 0.930 . S
H1347 C1359 0.929 . S
H1348 C1362 0.930 . S
H1349 C1364 0.960 . S
H1350 C1364 0.960 . S
H1351 C1364 0.960 . S
C1352 H1344 0.929 . S
C1352 C1353 1.377 . S
C1352 C1354 1.384 . S
C1353 C1352 1.377 . S
C1353 C1359 1.390 1_554 S
C1354 H1345 0.930 . S
C1354 C1352 1.384 . S
C1354 C1355 1.372 . S
C1355 C1354 1.372 . S
C1355 C1356 1.400 1_554 S
C1355 C1360 1.490 . S
C1356 H1346 0.930 . S
C1356 C1355 1.400 1_556 S
C1356 C1359 1.386 . S
H1357 C1373 0.930 . S
H1358 C1374 0.931 . S
C1359 H1347 0.929 . S
C1359 C1353 1.390 1_556 S
C1359 C1356 1.386 . S
C1360 C1355 1.490 . S
C1360 C1362 1.395 . S
C1360 C1363 1.403 1_554 S
H1361 C1367 0.930 . S
C1362 H1348 0.930 . S
C1362 C1360 1.395 . S
C1362 C1365 1.403 . S
C1363 C1360 1.403 1_556 S
C1363 C1364 1.524 . S
C1363 C1367 1.400 . S
C1364 H1349 0.960 . S
C1364 H1350 0.960 . S
C1364 H1351 0.960 . S
C1364 C1363 1.524 . S
C1365 C1362 1.403 . S
C1365 C1366 1.392 . S
C1365 C1369 1.495 . S
C1366 C1365 1.392 . S
C1366 C1367 1.385 1_554 S
C1366 C1368 1.478 . S
C1367 H1361 0.930 . S
C1367 C1363 1.400 . S
C1367 C1366 1.385 1_556 S
C1368 C1366 1.478 . S
C1368 C1370 1.381 . S
C1368 C1374 1.383 1_554 S
C1369 C1365 1.495 . S
C1369 H1375 0.959 . S
C1369 H1376 0.961 . S
C1369 H1377 0.960 . S
C1370 C1368 1.381 . S
C1370 C1371 1.394 . S
C1370 H1378 0.930 . S
C1371 C1370 1.394 . S
C1371 C1372 1.383 1_554 S
C1371 H1379 0.929 . S
C1372 C1371 1.383 1_556 S
C1372 C1373 1.377 . S
C1373 H1357 0.930 . S
C1373 C1372 1.377 . S
C1373 C1374 1.379 . S
C1374 H1358 0.931 . S
C1374 C1368 1.383 1_556 S
C1374 C1373 1.379 . S
H1375 C1369 0.959 . S
H1376 C1369 0.961 . S
H1377 C1369 0.960 . S
H1378 C1370 0.930 . S
H1379 C1371 0.929 . S
H1380 C1388 0.929 . S
H1381 C1390 0.930 . S
H1382 C1392 0.930 . S
H1383 C1395 0.929 . S
H1384 C1398 0.930 . S
H1385 C1400 0.960 . S
H1386 C1400 0.960 . S
H1387 C1400 0.960 . S
C1388 H1380 0.929 . S
C1388 C1389 1.377 . S
C1388 C1390 1.384 . S
C1389 C1388 1.377 . S
C1389 C1395 1.390 . S
C1390 H1381 0.930 . S
C1390 C1388 1.384 . S
C1390 C1391 1.372 . S
C1391 C1390 1.372 . S
C1391 C1392 1.400 . S
C1391 C1396 1.490 . S
C1392 H1382 0.930 . S
C1392 C1391 1.400 . S
C1392 C1395 1.386 . S
H1393 C1409 0.930 . S
H1394 C1410 0.931 . S
C1395 H1383 0.929 . S
C1395 C1389 1.390 . S
C1395 C1392 1.386 . S
C1396 C1391 1.490 . S
C1396 C1398 1.395 . S
C1396 C1399 1.403 . S
H1397 C1403 0.930 . S
C1398 H1384 0.930 . S
C1398 C1396 1.395 . S
C1398 C1401 1.403 . S
C1399 C1396 1.403 . S
C1399 C1400 1.524 . S
C1399 C1403 1.400 . S
C1400 H1385 0.960 . S
C1400 H1386 0.960 . S
C1400 H1387 0.960 . S
C1400 C1399 1.524 . S
C1401 C1398 1.403 . S
C1401 C1402 1.392 . S
C1401 C1405 1.495 . S
C1402 C1401 1.392 . S
C1402 C1403 1.385 . S
C1402 C1404 1.478 . S
C1403 H1397 0.930 . S
C1403 C1399 1.400 . S
C1403 C1402 1.385 . S
C1404 C1402 1.478 . S
C1404 C1406 1.381 . S
C1404 C1410 1.383 . S
C1405 C1401 1.495 . S
C1405 H1411 0.959 . S
C1405 H1412 0.961 . S
C1405 H1413 0.960 . S
C1406 C1404 1.381 . S
C1406 C1407 1.394 . S
C1406 H1414 0.930 . S
C1407 C1406 1.394 . S
C1407 C1408 1.383 . S
C1407 H1415 0.929 . S
C1408 C1407 1.383 . S
C1408 C1409 1.377 . S
C1409 H1393 0.930 . S
C1409 C1408 1.377 . S
C1409 C1410 1.379 . S
C1410 H1394 0.931 . S
C1410 C1404 1.383 . S
C1410 C1409 1.379 . S
H1411 C1405 0.959 . S
H1412 C1405 0.961 . S
H1413 C1405 0.960 . S
H1414 C1406 0.930 . S
H1415 C1407 0.929 . S
H1416 C1424 0.929 . S
H1417 C1426 0.930 . S
H1418 C1428 0.930 . S
H1419 C1431 0.929 . S
H1420 C1434 0.930 . S
H1421 C1436 0.960 . S
H1422 C1436 0.960 . S
H1423 C1436 0.960 . S
C1424 H1416 0.929 . S
C1424 C1425 1.377 . S
C1424 C1426 1.384 . S
C1425 C1424 1.377 . S
C1425 C1431 1.390 . S
C1426 H1417 0.930 . S
C1426 C1424 1.384 . S
C1426 C1427 1.372 . S
C1427 C1426 1.372 . S
C1427 C1428 1.400 . S
C1427 C1432 1.490 . S
C1428 H1418 0.930 . S
C1428 C1427 1.400 . S
C1428 C1431 1.386 . S
H1429 C1445 0.930 . S
H1430 C1446 0.931 . S
C1431 H1419 0.929 . S
C1431 C1425 1.390 . S
C1431 C1428 1.386 . S
C1432 C1427 1.490 . S
C1432 C1434 1.395 . S
C1432 C1435 1.403 . S
H1433 C1439 0.930 . S
C1434 H1420 0.930 . S
C1434 C1432 1.395 . S
C1434 C1437 1.403 . S
C1435 C1432 1.403 . S
C1435 C1436 1.524 . S
C1435 C1439 1.400 . S
C1436 H1421 0.960 . S
C1436 H1422 0.960 . S
C1436 H1423 0.960 . S
C1436 C1435 1.524 . S
C1437 C1434 1.403 . S
C1437 C1438 1.392 . S
C1437 C1441 1.495 . S
C1438 C1437 1.392 . S
C1438 C1439 1.385 . S
C1438 C1440 1.478 . S
C1439 H1433 0.930 . S
C1439 C1435 1.400 . S
C1439 C1438 1.385 . S
C1440 C1438 1.478 . S
C1440 C1442 1.381 . S
C1440 C1446 1.383 . S
C1441 C1437 1.495 . S
C1441 H1447 0.959 . S
C1441 H1448 0.961 . S
C1441 H1449 0.960 . S
C1442 C1440 1.381 . S
C1442 C1443 1.394 . S
C1442 H1450 0.930 . S
C1443 C1442 1.394 . S
C1443 C1444 1.383 . S
C1443 H1451 0.929 . S
C1444 C1443 1.383 . S
C1444 C1445 1.377 . S
C1445 H1429 0.930 . S
C1445 C1444 1.377 . S
C1445 C1446 1.379 . S
C1446 H1430 0.931 . S
C1446 C1440 1.383 . S
C1446 C1445 1.379 . S
H1447 C1441 0.959 . S
H1448 C1441 0.961 . S
H1449 C1441 0.960 . S
H1450 C1442 0.930 . S
H1451 C1443 0.929 . S
H1452 C1460 0.929 . S
H1453 C1462 0.930 . S
H1454 C1464 0.930 . S
H1455 C1467 0.929 . S
H1456 C1470 0.930 . S
H1457 C1472 0.960 . S
H1458 C1472 0.960 . S
H1459 C1472 0.960 . S
C1460 H1452 0.929 . S
C1460 C1461 1.377 . S
C1460 C1462 1.384 . S
C1461 C1460 1.377 . S
C1461 C1467 1.390 . S
C1462 H1453 0.930 . S
C1462 C1460 1.384 . S
C1462 C1463 1.372 . S
C1463 C1462 1.372 . S
C1463 C1464 1.400 . S
C1463 C1468 1.490 . S
C1464 H1454 0.930 . S
C1464 C1463 1.400 . S
C1464 C1467 1.386 . S
H1465 C1481 0.930 . S
H1466 C1482 0.931 . S
C1467 H1455 0.929 . S
C1467 C1461 1.390 . S
C1467 C1464 1.386 . S
C1468 C1463 1.490 . S
C1468 C1470 1.395 . S
C1468 C1471 1.403 . S
H1469 C1475 0.930 . S
C1470 H1456 0.930 . S
C1470 C1468 1.395 . S
C1470 C1473 1.403 . S
C1471 C1468 1.403 . S
C1471 C1472 1.524 . S
C1471 C1475 1.400 . S
C1472 H1457 0.960 . S
C1472 H1458 0.960 . S
C1472 H1459 0.960 . S
C1472 C1471 1.524 . S
C1473 C1470 1.403 . S
C1473 C1474 1.392 . S
C1473 C1477 1.495 . S
C1474 C1473 1.392 . S
C1474 C1475 1.385 . S
C1474 C1476 1.478 . S
C1475 H1469 0.930 . S
C1475 C1471 1.400 . S
C1475 C1474 1.385 . S
C1476 C1474 1.478 . S
C1476 C1478 1.381 . S
C1476 C1482 1.383 . S
C1477 C1473 1.495 . S
C1477 H1483 0.959 . S
C1477 H1484 0.961 . S
C1477 H1485 0.960 . S
C1478 C1476 1.381 . S
C1478 C1479 1.394 . S
C1478 H1486 0.930 . S
C1479 C1478 1.394 . S
C1479 C1480 1.383 . S
C1479 H1487 0.929 . S
C1480 C1479 1.383 . S
C1480 C1481 1.377 . S
C1481 H1465 0.930 . S
C1481 C1480 1.377 . S
C1481 C1482 1.379 . S
C1482 H1466 0.931 . S
C1482 C1476 1.383 . S
C1482 C1481 1.379 . S
H1483 C1477 0.959 . S
H1484 C1477 0.961 . S
H1485 C1477 0.960 . S
H1486 C1478 0.930 . S
H1487 C1479 0.929 . S
H1488 C1496 0.929 . S
H1489 C1498 0.930 . S
H1490 C1500 0.930 . S
H1491 C1503 0.929 . S
H1492 C1506 0.930 . S
H1493 C1508 0.960 . S
H1494 C1508 0.960 . S
H1495 C1508 0.960 . S
C1496 H1488 0.929 . S
C1496 C1497 1.377 . S
C1496 C1498 1.384 . S
C1497 C1496 1.377 . S
C1497 C1503 1.390 . S
C1498 H1489 0.930 . S
C1498 C1496 1.384 . S
C1498 C1499 1.372 . S
C1499 C1498 1.372 . S
C1499 C1500 1.400 . S
C1499 C1504 1.490 . S
C1500 H1490 0.930 . S
C1500 C1499 1.400 . S
C1500 C1503 1.386 . S
H1501 C1517 0.930 . S
H1502 C1518 0.931 . S
C1503 H1491 0.929 . S
C1503 C1497 1.390 . S
C1503 C1500 1.386 . S
C1504 C1499 1.490 . S
C1504 C1506 1.395 . S
C1504 C1507 1.403 . S
H1505 C1511 0.930 . S
C1506 H1492 0.930 . S
C1506 C1504 1.395 . S
C1506 C1509 1.403 . S
C1507 C1504 1.403 . S
C1507 C1508 1.524 . S
C1507 C1511 1.400 . S
C1508 H1493 0.960 . S
C1508 H1494 0.960 . S
C1508 H1495 0.960 . S
C1508 C1507 1.524 . S
C1509 C1506 1.403 . S
C1509 C1510 1.392 . S
C1509 C1513 1.495 . S
C1510 C1509 1.392 . S
C1510 C1511 1.385 . S
C1510 C1512 1.478 . S
C1511 H1505 0.930 . S
C1511 C1507 1.400 . S
C1511 C1510 1.385 . S
C1512 C1510 1.478 . S
C1512 C1514 1.381 . S
C1512 C1518 1.383 . S
C1513 C1509 1.495 . S
C1513 H1519 0.959 . S
C1513 H1520 0.961 . S
C1513 H1521 0.960 . S
C1514 C1512 1.381 . S
C1514 C1515 1.394 . S
C1514 H1522 0.930 . S
C1515 C1514 1.394 . S
C1515 C1516 1.383 . S
C1515 H1523 0.929 . S
C1516 C1515 1.383 . S
C1516 C1517 1.377 . S
C1517 H1501 0.930 . S
C1517 C1516 1.377 . S
C1517 C1518 1.379 . S
C1518 H1502 0.931 . S
C1518 C1512 1.383 . S
C1518 C1517 1.379 . S
H1519 C1513 0.959 . S
H1520 C1513 0.961 . S
H1521 C1513 0.960 . S
H1522 C1514 0.930 . S
H1523 C1515 0.929 . S
H1524 C1532 0.929 . S
H1525 C1534 0.930 . S
H1526 C1536 0.930 . S
H1527 C1539 0.929 . S
H1528 C1542 0.930 . S
H1529 C1544 0.960 . S
H1530 C1544 0.960 . S
H1531 C1544 0.960 . S
C1532 H1524 0.929 . S
C1532 C1533 1.377 . S
C1532 C1534 1.384 . S
C1533 C1532 1.377 . S
C1533 C1539 1.390 . S
C1534 H1525 0.930 . S
C1534 C1532 1.384 . S
C1534 C1535 1.372 . S
C1535 C1534 1.372 . S
C1535 C1536 1.400 . S
C1535 C1540 1.490 . S
C1536 H1526 0.930 . S
C1536 C1535 1.400 . S
C1536 C1539 1.386 . S
H1537 C1553 0.930 . S
H1538 C1554 0.931 . S
C1539 H1527 0.929 . S
C1539 C1533 1.390 . S
C1539 C1536 1.386 . S
C1540 C1535 1.490 . S
C1540 C1542 1.395 . S
C1540 C1543 1.403 . S
H1541 C1547 0.930 . S
C1542 H1528 0.930 . S
C1542 C1540 1.395 . S
C1542 C1545 1.403 . S
C1543 C1540 1.403 . S
C1543 C1544 1.524 . S
C1543 C1547 1.400 . S
C1544 H1529 0.960 . S
C1544 H1530 0.960 . S
C1544 H1531 0.960 . S
C1544 C1543 1.524 . S
C1545 C1542 1.403 . S
C1545 C1546 1.392 . S
C1545 C1549 1.495 . S
C1546 C1545 1.392 . S
C1546 C1547 1.385 . S
C1546 C1548 1.478 . S
C1547 H1541 0.930 . S
C1547 C1543 1.400 . S
C1547 C1546 1.385 . S
C1548 C1546 1.478 . S
C1548 C1550 1.381 . S
C1548 C1554 1.383 . S
C1549 C1545 1.495 . S
C1549 H1555 0.959 . S
C1549 H1556 0.961 . S
C1549 H1557 0.960 . S
C1550 C1548 1.381 . S
C1550 C1551 1.394 . S
C1550 H1558 0.930 . S
C1551 C1550 1.394 . S
C1551 C1552 1.383 . S
C1551 H1559 0.929 . S
C1552 C1551 1.383 . S
C1552 C1553 1.377 . S
C1553 H1537 0.930 . S
C1553 C1552 1.377 . S
C1553 C1554 1.379 . S
C1554 H1538 0.931 . S
C1554 C1548 1.383 . S
C1554 C1553 1.379 . S
H1555 C1549 0.959 . S
H1556 C1549 0.961 . S
H1557 C1549 0.960 . S
H1558 C1550 0.930 . S
H1559 C1551 0.929 . S
H1560 C1568 0.929 . S
H1561 C1570 0.930 . S
H1562 C1572 0.930 . S
H1563 C1575 0.929 . S
H1564 C1578 0.930 . S
H1565 C1580 0.960 . S
H1566 C1580 0.960 . S
H1567 C1580 0.960 . S
C1568 H1560 0.929 . S
C1568 C1569 1.377 1_565 S
C1568 C1570 1.384 . S
C1569 C1568 1.377 1_545 S
C1569 C1575 1.390 . S
C1570 H1561 0.930 . S
C1570 C1568 1.384 . S
C1570 C1571 1.372 1_565 S
C1571 C1570 1.372 1_545 S
C1571 C1572 1.400 . S
C1571 C1576 1.493 . S
C1572 H1562 0.930 . S
C1572 C1571 1.400 . S
C1572 C1575 1.386 . S
H1573 C1589 0.946 . S
H1574 C1590 0.941 . S
C1575 H1563 0.929 . S
C1575 C1569 1.390 . S
C1575 C1572 1.386 . S
C1576 C1571 1.493 . S
C1576 C1578 1.364 1_545 S
C1576 C1579 1.430 . S
H1577 C1583 0.930 . S
C1578 H1564 0.930 . S
C1578 C1576 1.364 1_565 S
C1578 C1581 1.403 . S
C1579 C1576 1.430 . S
C1579 C1580 1.524 . S
C1579 C1583 1.400 . S
C1580 H1565 0.960 . S
C1580 H1566 0.960 . S
C1580 H1567 0.960 . S
C1580 C1579 1.524 . S
C1581 C1578 1.403 . S
C1581 C1582 1.392 . S
C1581 C1585 1.495 . S
C1582 C1581 1.392 . S
C1582 C1583 1.385 1_565 S
C1582 C1584 1.478 . S
C1583 H1577 0.930 . S
C1583 C1579 1.400 . S
C1583 C1582 1.385 1_545 S
C1584 C1582 1.478 . S
C1584 C1586 1.381 . S
C1584 C1590 1.373 1_565 S
C1585 C1581 1.495 . S
C1585 H1591 0.959 . S
C1585 H1592 0.961 . S
C1585 H1593 0.960 . S
C1586 C1584 1.381 . S
C1586 C1587 1.394 . S
C1586 H1594 0.930 . S
C1587 C1586 1.394 . S
C1587 C1588 1.383 . S
C1587 H1595 0.929 . S
C1588 C1587 1.383 . S
C1588 C1589 1.363 1_565 S
C1589 H1573 0.946 . S
C1589 C1588 1.363 1_545 S
C1589 C1590 1.379 . S
C1590 H1574 0.941 . S
C1590 C1584 1.373 1_545 S
C1590 C1589 1.379 . S
H1591 C1585 0.959 . S
H1592 C1585 0.961 . S
H1593 C1585 0.960 . S
H1594 C1586 0.930 . S
H1595 C1587 0.929 . S
H1596 C1604 0.929 . S
H1597 C1606 0.930 . S
H1598 C1608 0.930 . S
H1599 C1611 0.929 . S
H1600 C1614 0.930 . S
H1601 C1616 0.960 . S
H1602 C1616 0.960 . S
H1603 C1616 0.960 . S
C1604 H1596 0.929 . S
C1604 C1605 1.377 . S
C1604 C1606 1.384 . S
C1605 C1604 1.377 . S
C1605 C1611 1.390 1_556 S
C1606 H1597 0.930 . S
C1606 C1604 1.384 . S
C1606 C1607 1.372 . S
C1607 C1606 1.372 . S
C1607 C1608 1.400 1_556 S
C1607 C1612 1.490 . S
C1608 H1598 0.930 . S
C1608 C1607 1.400 1_554 S
C1608 C1611 1.386 . S
H1609 C1625 0.930 . S
H1610 C1626 0.931 . S
C1611 H1599 0.929 . S
C1611 C1605 1.390 1_554 S
C1611 C1608 1.386 . S
C1612 C1607 1.490 . S
C1612 C1614 1.395 . S
C1612 C1615 1.403 1_556 S
H1613 C1619 0.930 . S
C1614 H1600 0.930 . S
C1614 C1612 1.395 . S
C1614 C1617 1.403 . S
C1615 C1612 1.403 1_554 S
C1615 C1616 1.524 . S
C1615 C1619 1.400 . S
C1616 H1601 0.960 . S
C1616 H1602 0.960 . S
C1616 H1603 0.960 . S
C1616 C1615 1.524 . S
C1617 C1614 1.403 . S
C1617 C1618 1.392 . S
C1617 C1621 1.495 . S
C1618 C1617 1.392 . S
C1618 C1619 1.385 1_556 S
C1618 C1620 1.479 . S
C1619 H1613 0.930 . S
C1619 C1615 1.400 . S
C1619 C1618 1.385 1_554 S
C1620 C1618 1.479 . S
C1620 C1622 1.398 . S
C1620 C1626 1.364 1_556 S
C1621 C1617 1.495 . S
C1621 H1627 0.959 . S
C1621 H1628 0.961 . S
C1621 H1629 0.960 . S
C1622 C1620 1.398 . S
C1622 C1623 1.394 . S
C1622 H1630 0.930 . S
C1623 C1622 1.394 . S
C1623 C1624 1.383 1_556 S
C1623 H1631 0.929 . S
C1624 C1623 1.383 1_554 S
C1624 C1625 1.377 . S
C1625 H1609 0.930 . S
C1625 C1624 1.377 . S
C1625 C1626 1.379 . S
C1626 H1610 0.931 . S
C1626 C1620 1.364 1_554 S
C1626 C1625 1.379 . S
H1627 C1621 0.959 . S
H1628 C1621 0.961 . S
H1629 C1621 0.960 . S
H1630 C1622 0.930 . S
H1631 C1623 0.929 . S
H1632 C1640 0.929 . S
H1633 C1642 0.930 . S
H1634 C1644 0.930 . S
H1635 C1647 0.929 . S
H1636 C1650 0.930 . S
H1637 C1652 0.960 . S
H1638 C1652 0.960 . S
H1639 C1652 0.960 . S
C1640 H1632 0.929 . S
C1640 C1641 1.377 . S
C1640 C1642 1.384 . S
C1641 C1640 1.377 . S
C1641 C1647 1.390 1_455 S
C1642 H1633 0.930 . S
C1642 C1640 1.384 . S
C1642 C1643 1.372 . S
C1643 C1642 1.372 . S
C1643 C1644 1.400 1_455 S
C1643 C1648 1.490 . S
C1644 H1634 0.930 . S
C1644 C1643 1.400 1_655 S
C1644 C1647 1.386 . S
H1645 C1661 0.930 . S
H1646 C1662 0.931 . S
C1647 H1635 0.929 . S
C1647 C1641 1.390 1_655 S
C1647 C1644 1.386 . S
C1648 C1643 1.490 . S
C1648 C1650 1.395 1_565 S
C1648 C1651 1.403 1_455 S
H1649 C1655 0.930 . S
C1650 H1636 0.930 . S
C1650 C1648 1.395 1_545 S
C1650 C1653 1.403 . S
C1651 C1648 1.403 1_655 S
C1651 C1652 1.524 . S
C1651 C1655 1.400 . S
C1652 H1637 0.960 . S
C1652 H1638 0.960 . S
C1652 H1639 0.960 . S
C1652 C1651 1.524 . S
C1653 C1650 1.403 . S
C1653 C1654 1.392 . S
C1653 C1657 1.495 . S
C1654 C1653 1.392 . S
C1654 C1655 1.385 1_445 S
C1654 C1656 1.478 . S
C1655 H1649 0.930 . S
C1655 C1651 1.400 . S
C1655 C1654 1.385 1_665 S
C1656 C1654 1.478 . S
C1656 C1658 1.381 . S
C1656 C1662 1.383 1_455 S
C1657 C1653 1.495 . S
C1657 H1663 0.959 . S
C1657 H1664 0.961 . S
C1657 H1665 0.960 . S
C1658 C1656 1.381 . S
C1658 C1659 1.394 . S
C1658 H1666 0.930 . S
C1659 C1658 1.394 . S
C1659 C1660 1.383 . S
C1659 H1667 0.929 . S
C1660 C1659 1.383 . S
C1660 C1661 1.377 1_455 S
C1661 H1645 0.930 . S
C1661 C1660 1.377 1_655 S
C1661 C1662 1.379 . S
C1662 H1646 0.931 . S
C1662 C1656 1.383 1_655 S
C1662 C1661 1.379 . S
H1663 C1657 0.959 . S
H1664 C1657 0.961 . S
H1665 C1657 0.960 . S
H1666 C1658 0.930 . S
H1667 C1659 0.929 . S
H1668 C1676 0.929 . S
H1669 C1678 0.930 . S
H1670 C1680 0.930 . S
H1671 C1683 0.929 . S
H1672 C1686 0.930 . S
H1673 C1688 0.960 . S
H1674 C1688 0.960 . S
H1675 C1688 0.960 . S
C1676 H1668 0.929 . S
C1676 C1677 1.377 1_455 S
C1676 C1678 1.384 . S
C1677 C1676 1.377 1_655 S
C1677 C1683 1.390 . S
C1678 H1669 0.930 . S
C1678 C1676 1.384 . S
C1678 C1679 1.372 1_455 S
C1679 C1678 1.372 1_655 S
C1679 C1680 1.400 . S
C1679 C1684 1.490 . S
C1680 H1670 0.930 . S
C1680 C1679 1.400 . S
C1680 C1683 1.386 . S
H1681 C1697 0.930 . S
H1682 C1698 0.931 . S
C1683 H1671 0.929 . S
C1683 C1677 1.390 . S
C1683 C1680 1.386 . S
C1684 C1679 1.490 . S
C1684 C1686 1.395 . S
C1684 C1687 1.403 1_655 S
H1685 C1691 0.930 . S
C1686 H1672 0.930 . S
C1686 C1684 1.395 . S
C1686 C1689 1.403 . S
C1687 C1684 1.403 1_455 S
C1687 C1688 1.524 . S
C1687 C1691 1.400 . S
C1688 H1673 0.960 . S
C1688 H1674 0.960 . S
C1688 H1675 0.960 . S
C1688 C1687 1.524 . S
C1689 C1686 1.403 . S
C1689 C1690 1.392 . S
C1689 C1693 1.495 . S
C1690 C1689 1.392 . S
C1690 C1691 1.385 1_655 S
C1690 C1692 1.478 . S
C1691 H1685 0.930 . S
C1691 C1687 1.400 . S
C1691 C1690 1.385 1_455 S
C1692 C1690 1.478 . S
C1692 C1694 1.381 1_655 S
C1692 C1698 1.383 . S
C1693 C1689 1.495 . S
C1693 H1699 0.959 . S
C1693 H1700 0.961 . S
C1693 H1701 0.960 . S
C1694 C1692 1.381 1_455 S
C1694 C1695 1.394 . S
C1694 H1702 0.930 . S
C1695 C1694 1.394 . S
C1695 C1696 1.383 1_455 S
C1695 H1703 0.929 . S
C1696 C1695 1.383 1_655 S
C1696 C1697 1.377 . S
C1697 H1681 0.930 . S
C1697 C1696 1.377 . S
C1697 C1698 1.379 . S
C1698 H1682 0.931 . S
C1698 C1692 1.383 . S
C1698 C1697 1.379 . S
H1699 C1693 0.959 . S
H1700 C1693 0.961 . S
H1701 C1693 0.960 . S
H1702 C1694 0.930 . S
H1703 C1695 0.929 . S
H1704 C1712 0.929 . S
H1705 C1714 0.930 . S
H1706 C1716 0.931 . S
H1707 C1719 0.929 . S
H1708 C1722 0.932 . S
H1709 C1724 0.960 . S
H1710 C1724 0.960 . S
H1711 C1724 0.960 . S
C1712 H1704 0.929 . S
C1712 C1713 1.377 . S
C1712 C1714 1.384 . S
C1713 C1712 1.377 . S
C1713 C1719 1.390 . S
C1714 H1705 0.930 . S
C1714 C1712 1.384 . S
C1714 C1715 1.372 . S
C1715 C1714 1.372 . S
C1715 C1716 1.400 . S
C1715 C1720 1.490 . S
C1716 H1706 0.931 . S
C1716 C1715 1.400 . S
C1716 C1719 1.386 . S
H1717 C1733 0.930 . S
H1718 C1734 0.931 . S
C1719 H1707 0.929 . S
C1719 C1713 1.390 . S
C1719 C1716 1.386 . S
C1720 C1715 1.490 . S
C1720 C1722 1.419 1_545 S
C1720 C1723 1.403 . S
H1721 C1727 0.933 . S
C1722 H1708 0.932 . S
C1722 C1720 1.419 1_565 S
C1722 C1725 1.379 1_556 S
C1723 C1720 1.403 . S
C1723 C1724 1.524 . S
C1723 C1727 1.370 1_556 S
C1724 H1709 0.960 . S
C1724 H1710 0.960 . S
C1724 H1711 0.960 . S
C1724 C1723 1.524 . S
C1725 C1722 1.379 1_554 S
C1725 C1726 1.392 . S
C1725 C1729 1.495 . S
C1726 C1725 1.392 . S
C1726 C1727 1.414 1_565 S
C1726 C1728 1.478 . S
C1727 H1721 0.933 . S
C1727 C1723 1.370 1_554 S
C1727 C1726 1.414 1_545 S
C1728 C1726 1.478 . S
C1728 C1730 1.381 1_565 S
C1728 C1734 1.383 . S
C1729 C1725 1.495 . S
C1729 H1735 0.959 . S
C1729 H1736 0.961 . S
C1729 H1737 0.960 . S
C1730 C1728 1.381 1_545 S
C1730 C1731 1.394 . S
C1730 H1738 0.930 . S
C1731 C1730 1.394 . S
C1731 C1732 1.377 1_545 S
C1731 H1739 0.929 . S
C1732 C1731 1.377 1_565 S
C1732 C1733 1.387 . S
C1733 H1717 0.930 . S
C1733 C1732 1.387 . S
C1733 C1734 1.379 . S
C1734 H1718 0.931 . S
C1734 C1728 1.383 . S
C1734 C1733 1.379 . S
H1735 C1729 0.959 . S
H1736 C1729 0.961 . S
H1737 C1729 0.960 . S
H1738 C1730 0.930 . S
H1739 C1731 0.929 . S
H1740 C1748 0.929 . S
H1741 C1750 0.930 . S
H1742 C1752 0.930 . S
H1743 C1755 0.929 . S
H1744 C1758 0.930 . S
H1745 C1760 0.960 . S
H1746 C1760 0.960 . S
H1747 C1760 0.960 . S
C1748 H1740 0.929 . S
C1748 C1749 1.377 . S
C1748 C1750 1.384 . S
C1749 C1748 1.377 . S
C1749 C1755 1.390 . S
C1750 H1741 0.930 . S
C1750 C1748 1.384 . S
C1750 C1751 1.372 . S
C1751 C1750 1.372 . S
C1751 C1752 1.400 . S
C1751 C1756 1.490 . S
C1752 H1742 0.930 . S
C1752 C1751 1.400 . S
C1752 C1755 1.386 . S
H1753 C1769 0.930 . S
H1754 C1770 0.931 . S
C1755 H1743 0.929 . S
C1755 C1749 1.390 . S
C1755 C1752 1.386 . S
C1756 C1751 1.490 . S
C1756 C1758 1.395 . S
C1756 C1759 1.403 1_554 S
H1757 C1763 0.930 . S
C1758 H1744 0.930 . S
C1758 C1756 1.395 . S
C1758 C1761 1.403 . S
C1759 C1756 1.403 1_556 S
C1759 C1760 1.524 . S
C1759 C1763 1.400 . S
C1760 H1745 0.960 . S
C1760 H1746 0.960 . S
C1760 H1747 0.960 . S
C1760 C1759 1.524 . S
C1761 C1758 1.403 . S
C1761 C1762 1.392 1_554 S
C1761 C1765 1.495 . S
C1762 C1761 1.392 1_556 S
C1762 C1763 1.385 . S
C1762 C1764 1.478 . S
C1763 H1757 0.930 . S
C1763 C1759 1.400 . S
C1763 C1762 1.385 . S
C1764 C1762 1.478 . S
C1764 C1766 1.381 . S
C1764 C1770 1.383 . S
C1765 C1761 1.495 . S
C1765 H1771 0.959 . S
C1765 H1772 0.961 . S
C1765 H1773 0.960 . S
C1766 C1764 1.381 . S
C1766 C1767 1.394 . S
C1766 H1774 0.930 . S
C1767 C1766 1.394 . S
C1767 C1768 1.383 . S
C1767 H1775 0.929 . S
C1768 C1767 1.383 . S
C1768 C1769 1.377 . S
C1769 H1753 0.930 . S
C1769 C1768 1.377 . S
C1769 C1770 1.379 . S
C1770 H1754 0.931 . S
C1770 C1764 1.383 . S
C1770 C1769 1.379 . S
H1771 C1765 0.959 . S
H1772 C1765 0.961 . S
H1773 C1765 0.960 . S
H1774 C1766 0.930 . S
H1775 C1767 0.929 . S
H1776 C1784 0.929 . S
H1777 C1786 0.930 . S
H1778 C1788 0.930 . S
H1779 C1791 0.929 . S
H1780 C1794 0.930 . S
H1781 C1796 0.960 . S
H1782 C1796 0.960 . S
H1783 C1796 0.960 1_545 S
C1784 H1776 0.929 . S
C1784 C1785 1.377 . S
C1784 C1786 1.384 . S
C1785 C1784 1.377 . S
C1785 C1791 1.390 1_565 S
C1786 H1777 0.930 . S
C1786 C1784 1.384 . S
C1786 C1787 1.372 . S
C1787 C1786 1.372 . S
C1787 C1788 1.400 1_565 S
C1787 C1792 1.490 . S
C1788 H1778 0.930 . S
C1788 C1787 1.400 1_545 S
C1788 C1791 1.386 . S
H1789 C1805 0.930 . S
H1790 C1806 0.931 . S
C1791 H1779 0.929 . S
C1791 C1785 1.390 1_545 S
C1791 C1788 1.386 . S
C1792 C1787 1.490 . S
C1792 C1794 1.395 . S
C1792 C1795 1.403 . S
H1793 C1799 0.930 . S
C1794 H1780 0.930 . S
C1794 C1792 1.395 . S
C1794 C1797 1.403 . S
C1795 C1792 1.403 . S
C1795 C1796 1.524 . S
C1795 C1799 1.400 . S
C1796 H1781 0.960 . S
C1796 H1782 0.960 . S
C1796 H1783 0.960 1_565 S
C1796 C1795 1.524 . S
C1797 C1794 1.403 . S
C1797 C1798 1.392 . S
C1797 C1801 1.497 . S
C1798 C1797 1.392 . S
C1798 C1799 1.385 . S
C1798 C1800 1.478 . S
C1799 H1793 0.930 . S
C1799 C1795 1.400 . S
C1799 C1798 1.385 . S
C1800 C1798 1.478 . S
C1800 C1802 1.381 . S
C1800 C1806 1.383 1_565 S
C1801 C1797 1.497 . S
C1801 H1807 0.959 . S
C1801 H1808 0.941 1_565 S
C1801 H1809 0.979 . S
C1802 C1800 1.381 . S
C1802 C1803 1.394 . S
C1802 H1810 0.930 . S
C1803 C1802 1.394 . S
C1803 C1804 1.383 . S
C1803 H1811 0.929 . S
C1804 C1803 1.383 . S
C1804 C1805 1.377 1_565 S
C1805 H1789 0.930 . S
C1805 C1804 1.377 1_545 S
C1805 C1806 1.379 . S
C1806 H1790 0.931 . S
C1806 C1800 1.383 1_545 S
C1806 C1805 1.379 . S
H1807 C1801 0.959 . S
H1808 C1801 0.941 1_545 S
H1809 C1801 0.979 . S
H1810 C1802 0.930 . S
H1811 C1803 0.929 . S
H1812 C1820 0.929 . S
H1813 C1822 0.930 . S
H1814 C1824 0.930 . S
H1815 C1827 0.929 . S
H1816 C1830 0.930 . S
H1817 C1832 0.960 . S
H1818 C1832 0.960 . S
H1819 C1832 0.960 . S
C1820 H1812 0.929 . S
C1820 C1821 1.377 . S
C1820 C1822 1.384 . S
C1821 C1820 1.377 . S
C1821 C1827 1.390 . S
C1822 H1813 0.930 . S
C1822 C1820 1.384 . S
C1822 C1823 1.372 . S
C1823 C1822 1.372 . S
C1823 C1824 1.400 . S
C1823 C1828 1.490 . S
C1824 H1814 0.930 . S
C1824 C1823 1.400 . S
C1824 C1827 1.386 . S
H1825 C1841 0.930 . S
H1826 C1842 0.931 . S
C1827 H1815 0.929 . S
C1827 C1821 1.390 . S
C1827 C1824 1.386 . S
C1828 C1823 1.490 . S
C1828 C1830 1.395 . S
C1828 C1831 1.403 . S
H1829 C1835 0.930 . S
C1830 H1816 0.930 . S
C1830 C1828 1.395 . S
C1830 C1833 1.403 . S
C1831 C1828 1.403 . S
C1831 C1832 1.524 . S
C1831 C1835 1.400 . S
C1832 H1817 0.960 . S
C1832 H1818 0.960 . S
C1832 H1819 0.960 . S
C1832 C1831 1.524 . S
C1833 C1830 1.403 . S
C1833 C1834 1.392 . S
C1833 C1837 1.495 . S
C1834 C1833 1.392 . S
C1834 C1835 1.385 . S
C1834 C1836 1.478 . S
C1835 H1829 0.930 . S
C1835 C1831 1.400 . S
C1835 C1834 1.385 . S
C1836 C1834 1.478 . S
C1836 C1838 1.381 . S
C1836 C1842 1.383 . S
C1837 C1833 1.495 . S
C1837 H1843 0.959 . S
C1837 H1844 0.961 . S
C1837 H1845 0.960 . S
C1838 C1836 1.381 . S
C1838 C1839 1.394 . S
C1838 H1846 0.930 . S
C1839 C1838 1.394 . S
C1839 C1840 1.383 . S
C1839 H1847 0.929 . S
C1840 C1839 1.383 . S
C1840 C1841 1.377 . S
C1841 H1825 0.930 . S
C1841 C1840 1.377 . S
C1841 C1842 1.379 . S
C1842 H1826 0.931 . S
C1842 C1836 1.383 . S
C1842 C1841 1.379 . S
H1843 C1837 0.959 . S
H1844 C1837 0.961 . S
H1845 C1837 0.960 . S
H1846 C1838 0.930 . S
H1847 C1839 0.929 . S
H1848 C1856 0.929 . S
H1849 C1858 0.930 . S
H1850 C1860 0.930 . S
H1851 C1863 0.929 . S
H1852 C1866 0.930 . S
H1853 C1868 0.960 . S
H1854 C1868 0.960 . S
H1855 C1868 0.960 . S
C1856 H1848 0.929 . S
C1856 C1857 1.365 1_556 S
C1856 C1858 1.384 . S
C1857 C1856 1.365 1_554 S
C1857 C1863 1.402 . S
C1858 H1849 0.930 . S
C1858 C1856 1.384 . S
C1858 C1859 1.379 . S
C1859 C1858 1.379 . S
C1859 C1860 1.393 1_556 S
C1859 C1864 1.490 . S
C1860 H1850 0.930 . S
C1860 C1859 1.393 1_554 S
C1860 C1863 1.386 . S
H1861 C1877 0.930 . S
H1862 C1878 0.931 . S
C1863 H1851 0.929 . S
C1863 C1857 1.402 . S
C1863 C1860 1.386 . S
C1864 C1859 1.490 . S
C1864 C1866 1.410 . S
C1864 C1867 1.389 1_456 S
H1865 C1871 0.930 . S
C1866 H1852 0.930 . S
C1866 C1864 1.410 . S
C1866 C1869 1.403 . S
C1867 C1864 1.389 1_654 S
C1867 C1868 1.524 . S
C1867 C1871 1.400 . S
C1868 H1853 0.960 . S
C1868 H1854 0.960 . S
C1868 H1855 0.960 . S
C1868 C1867 1.524 . S
C1869 C1866 1.403 . S
C1869 C1870 1.392 1_455 S
C1869 C1873 1.495 . S
C1870 C1869 1.392 1_655 S
C1870 C1871 1.385 1_556 S
C1870 C1872 1.478 . S
C1871 H1865 0.930 . S
C1871 C1867 1.400 . S
C1871 C1870 1.385 1_554 S
C1872 C1870 1.478 . S
C1872 C1874 1.381 . S
C1872 C1878 1.383 1_556 S
C1873 C1869 1.495 . S
C1873 H1879 0.959 . S
C1873 H1880 0.961 . S
C1873 H1881 0.960 1_455 S
C1874 C1872 1.381 . S
C1874 C1875 1.394 . S
C1874 H1882 0.930 . S
C1875 C1874 1.394 . S
C1875 C1876 1.383 1_556 S
C1875 H1883 0.929 . S
C1876 C1875 1.383 1_554 S
C1876 C1877 1.377 . S
C1877 H1861 0.930 . S
C1877 C1876 1.377 . S
C1877 C1878 1.379 . S
C1878 H1862 0.931 . S
C1878 C1872 1.383 1_554 S
C1878 C1877 1.379 . S
H1879 C1873 0.959 . S
H1880 C1873 0.961 . S
H1881 C1873 0.960 1_655 S
H1882 C1874 0.930 . S
H1883 C1875 0.929 . S
H1884 C1892 0.929 . S
H1885 C1894 0.930 . S
H1886 C1896 0.930 . S
H1887 C1899 0.929 . S
H1888 C1902 0.930 . S
H1889 C1904 0.960 . S
H1890 C1904 0.960 . S
H1891 C1904 0.960 . S
C1892 H1884 0.929 . S
C1892 C1893 1.377 . S
C1892 C1894 1.384 . S
C1893 C1892 1.377 . S
C1893 C1899 1.390 . S
C1894 H1885 0.930 . S
C1894 C1892 1.384 . S
C1894 C1895 1.372 . S
C1895 C1894 1.372 . S
C1895 C1896 1.400 . S
C1895 C1900 1.490 . S
C1896 H1886 0.930 . S
C1896 C1895 1.400 . S
C1896 C1899 1.386 . S
H1897 C1913 0.930 . S
H1898 C1914 0.931 . S
C1899 H1887 0.929 . S
C1899 C1893 1.390 . S
C1899 C1896 1.386 . S
C1900 C1895 1.490 . S
C1900 C1902 1.395 . S
C1900 C1903 1.403 1_455 S
H1901 C1907 0.930 . S
C1902 H1888 0.930 . S
C1902 C1900 1.395 . S
C1902 C1905 1.403 . S
C1903 C1900 1.403 1_655 S
C1903 C1904 1.524 . S
C1903 C1907 1.400 . S
C1904 H1889 0.960 . S
C1904 H1890 0.960 . S
C1904 H1891 0.960 . S
C1904 C1903 1.524 . S
C1905 C1902 1.403 . S
C1905 C1906 1.392 1_455 S
C1905 C1909 1.495 . S
C1906 C1905 1.392 1_655 S
C1906 C1907 1.385 . S
C1906 C1908 1.478 . S
C1907 H1901 0.930 . S
C1907 C1903 1.400 . S
C1907 C1906 1.385 . S
C1908 C1906 1.478 . S
C1908 C1910 1.381 . S
C1908 C1914 1.383 . S
C1909 C1905 1.495 . S
C1909 H1915 0.959 . S
C1909 H1916 0.961 . S
C1909 H1917 0.960 . S
C1910 C1908 1.381 . S
C1910 C1911 1.394 . S
C1910 H1918 0.930 . S
C1911 C1910 1.394 . S
C1911 C1912 1.383 . S
C1911 H1919 0.929 . S
C1912 C1911 1.383 . S
C1912 C1913 1.377 . S
C1913 H1897 0.930 . S
C1913 C1912 1.377 . S
C1913 C1914 1.379 . S
C1914 H1898 0.931 . S
C1914 C1908 1.383 . S
C1914 C1913 1.379 . S
H1915 C1909 0.959 . S
H1916 C1909 0.961 . S
H1917 C1909 0.960 . S
H1918 C1910 0.930 . S
H1919 C1911 0.929 . S
H1920 C1928 0.929 . S
H1921 C1930 0.930 . S
H1922 C1932 0.930 . S
H1923 C1935 0.929 . S
H1924 C1938 0.930 . S
H1925 C1940 0.960 . S
H1926 C1940 0.960 . S
H1927 C1940 0.960 . S
C1928 H1920 0.929 . S
C1928 C1929 1.377 . S
C1928 C1930 1.384 . S
C1929 C1928 1.377 . S
C1929 C1935 1.390 . S
C1930 H1921 0.930 . S
C1930 C1928 1.384 . S
C1930 C1931 1.372 . S
C1931 C1930 1.372 . S
C1931 C1932 1.400 . S
C1931 C1936 1.490 . S
C1932 H1922 0.930 . S
C1932 C1931 1.400 . S
C1932 C1935 1.386 . S
H1933 C1949 0.930 . S
H1934 C1950 0.931 . S
C1935 H1923 0.929 . S
C1935 C1929 1.390 . S
C1935 C1932 1.386 . S
C1936 C1931 1.490 . S
C1936 C1938 1.395 . S
C1936 C1939 1.403 . S
H1937 C1943 0.930 . S
C1938 H1924 0.930 . S
C1938 C1936 1.395 . S
C1938 C1941 1.403 . S
C1939 C1936 1.403 . S
C1939 C1940 1.524 . S
C1939 C1943 1.400 . S
C1940 H1925 0.960 . S
C1940 H1926 0.960 . S
C1940 H1927 0.960 . S
C1940 C1939 1.524 . S
C1941 C1938 1.403 . S
C1941 C1942 1.392 . S
C1941 C1945 1.495 . S
C1942 C1941 1.392 . S
C1942 C1943 1.385 . S
C1942 C1944 1.478 . S
C1943 H1937 0.930 . S
C1943 C1939 1.400 . S
C1943 C1942 1.385 . S
C1944 C1942 1.478 . S
C1944 C1946 1.381 . S
C1944 C1950 1.383 . S
C1945 C1941 1.495 . S
C1945 H1951 0.959 . S
C1945 H1952 0.961 . S
C1945 H1953 0.960 . S
C1946 C1944 1.381 . S
C1946 C1947 1.394 . S
C1946 H1954 0.930 . S
C1947 C1946 1.394 . S
C1947 C1948 1.383 . S
C1947 H1955 0.929 . S
C1948 C1947 1.383 . S
C1948 C1949 1.377 . S
C1949 H1933 0.930 . S
C1949 C1948 1.377 . S
C1949 C1950 1.379 . S
C1950 H1934 0.931 . S
C1950 C1944 1.383 . S
C1950 C1949 1.379 . S
H1951 C1945 0.959 . S
H1952 C1945 0.961 . S
H1953 C1945 0.960 . S
H1954 C1946 0.930 . S
H1955 C1947 0.929 . S
H1956 C1964 0.929 . S
H1957 C1966 0.930 . S
H1958 C1968 0.930 . S
H1959 C1971 0.929 . S
H1960 C1974 0.930 . S
H1961 C1976 0.960 . S
H1962 C1976 0.960 . S
H1963 C1976 0.960 . S
C1964 H1956 0.929 . S
C1964 C1965 1.377 . S
C1964 C1966 1.384 . S
C1965 C1964 1.377 . S
C1965 C1971 1.390 . S
C1966 H1957 0.930 . S
C1966 C1964 1.384 . S
C1966 C1967 1.372 . S
C1967 C1966 1.372 . S
C1967 C1968 1.400 . S
C1967 C1972 1.490 . S
C1968 H1958 0.930 . S
C1968 C1967 1.400 . S
C1968 C1971 1.386 . S
H1969 C1985 0.930 . S
H1970 C1986 0.931 . S
C1971 H1959 0.929 . S
C1971 C1965 1.390 . S
C1971 C1968 1.386 . S
C1972 C1967 1.490 . S
C1972 C1974 1.395 . S
C1972 C1975 1.403 . S
H1973 C1979 0.930 . S
C1974 H1960 0.930 . S
C1974 C1972 1.395 . S
C1974 C1977 1.403 . S
C1975 C1972 1.403 . S
C1975 C1976 1.524 . S
C1975 C1979 1.400 . S
C1976 H1961 0.960 . S
C1976 H1962 0.960 . S
C1976 H1963 0.960 . S
C1976 C1975 1.524 . S
C1977 C1974 1.403 . S
C1977 C1978 1.392 . S
C1977 C1981 1.495 . S
C1978 C1977 1.392 . S
C1978 C1979 1.385 . S
C1978 C1980 1.478 . S
C1979 H1973 0.930 . S
C1979 C1975 1.400 . S
C1979 C1978 1.385 . S
C1980 C1978 1.478 . S
C1980 C1982 1.381 . S
C1980 C1986 1.383 . S
C1981 C1977 1.495 . S
C1981 H1987 0.959 . S
C1981 H1988 0.961 . S
C1981 H1989 0.960 . S
C1982 C1980 1.381 . S
C1982 C1983 1.394 . S
C1982 H1990 0.930 . S
C1983 C1982 1.394 . S
C1983 C1984 1.383 . S
C1983 H1991 0.929 . S
C1984 C1983 1.383 . S
C1984 C1985 1.377 . S
C1985 H1969 0.930 . S
C1985 C1984 1.377 . S
C1985 C1986 1.379 . S
C1986 H1970 0.931 . S
C1986 C1980 1.383 . S
C1986 C1985 1.379 . S
H1987 C1981 0.959 . S
H1988 C1981 0.961 . S
H1989 C1981 0.960 . S
H1990 C1982 0.930 . S
H1991 C1983 0.929 . S
H1992 C2000 0.929 . S
H1993 C2002 0.930 . S
H1994 C2004 0.930 . S
H1995 C2007 0.929 . S
H1996 C2010 0.930 . S
H1997 C2012 0.960 . S
H1998 C2012 0.960 . S
H1999 C2012 0.960 . S
C2000 H1992 0.929 . S
C2000 C2001 1.377 . S
C2000 C2002 1.384 . S
C2001 C2000 1.377 . S
C2001 C2007 1.390 . S
C2002 H1993 0.930 . S
C2002 C2000 1.384 . S
C2002 C2003 1.372 . S
C2003 C2002 1.372 . S
C2003 C2004 1.400 . S
C2003 C2008 1.490 . S
C2004 H1994 0.930 . S
C2004 C2003 1.400 . S
C2004 C2007 1.386 . S
H2005 C2021 0.930 . S
H2006 C2022 0.931 . S
C2007 H1995 0.929 . S
C2007 C2001 1.390 . S
C2007 C2004 1.386 . S
C2008 C2003 1.490 . S
C2008 C2010 1.395 . S
C2008 C2011 1.403 . S
H2009 C2015 0.930 . S
C2010 H1996 0.930 . S
C2010 C2008 1.395 . S
C2010 C2013 1.403 1_565 S
C2011 C2008 1.403 . S
C2011 C2012 1.524 . S
C2011 C2015 1.400 1_565 S
C2012 H1997 0.960 . S
C2012 H1998 0.960 . S
C2012 H1999 0.960 . S
C2012 C2011 1.524 . S
C2013 C2010 1.403 1_545 S
C2013 C2014 1.392 . S
C2013 C2017 1.495 . S
C2014 C2013 1.392 . S
C2014 C2015 1.385 . S
C2014 C2016 1.478 . S
C2015 H2009 0.930 . S
C2015 C2011 1.400 1_545 S
C2015 C2014 1.385 . S
C2016 C2014 1.478 . S
C2016 C2018 1.381 . S
C2016 C2022 1.383 . S
C2017 C2013 1.495 . S
C2017 H2023 0.959 . S
C2017 H2024 0.961 . S
C2017 H2025 0.960 . S
C2018 C2016 1.381 . S
C2018 C2019 1.394 . S
C2018 H2026 0.930 . S
C2019 C2018 1.394 . S
C2019 C2020 1.383 . S
C2019 H2027 0.929 . S
C2020 C2019 1.383 . S
C2020 C2021 1.377 . S
C2021 H2005 0.930 . S
C2021 C2020 1.377 . S
C2021 C2022 1.379 . S
C2022 H2006 0.931 . S
C2022 C2016 1.383 . S
C2022 C2021 1.379 . S
H2023 C2017 0.959 . S
H2024 C2017 0.961 . S
H2025 C2017 0.960 . S
H2026 C2018 0.930 . S
H2027 C2019 0.929 . S
H2028 C2036 0.929 . S
H2029 C2038 0.930 . S
H2030 C2040 0.930 . S
H2031 C2043 0.929 . S
H2032 C2046 0.930 . S
H2033 C2048 0.960 . S
H2034 C2048 0.960 . S
H2035 C2048 0.960 . S
C2036 H2028 0.929 . S
C2036 C2037 1.377 . S
C2036 C2038 1.384 . S
C2037 C2036 1.377 . S
C2037 C2043 1.390 1_556 S
C2038 H2029 0.930 . S
C2038 C2036 1.384 . S
C2038 C2039 1.372 . S
C2039 C2038 1.372 . S
C2039 C2040 1.400 1_556 S
C2039 C2044 1.490 . S
C2040 H2030 0.930 . S
C2040 C2039 1.400 1_554 S
C2040 C2043 1.386 . S
H2041 C2057 0.930 . S
H2042 C2058 0.931 . S
C2043 H2031 0.929 . S
C2043 C2037 1.390 1_554 S
C2043 C2040 1.386 . S
C2044 C2039 1.490 . S
C2044 C2046 1.395 1_556 S
C2044 C2047 1.403 . S
H2045 C2051 0.930 . S
C2046 H2032 0.930 . S
C2046 C2044 1.395 1_554 S
C2046 C2049 1.403 . S
C2047 C2044 1.403 . S
C2047 C2048 1.524 . S
C2047 C2051 1.400 . S
C2048 H2033 0.960 . S
C2048 H2034 0.960 . S
C2048 H2035 0.960 . S
C2048 C2047 1.524 . S
C2049 C2046 1.403 . S
C2049 C2050 1.388 1_554 S
C2049 C2053 1.495 . S
C2050 C2049 1.388 1_556 S
C2050 C2051 1.390 . S
C2050 C2052 1.477 1_556 S
C2051 H2045 0.930 . S
C2051 C2047 1.400 . S
C2051 C2050 1.390 . S
C2052 C2050 1.477 1_554 S
C2052 C2054 1.382 1_554 S
C2052 C2058 1.382 . S
C2053 C2049 1.495 . S
C2053 H2059 0.959 . S
C2053 H2060 0.961 . S
C2053 H2061 0.960 . S
C2054 C2052 1.382 1_556 S
C2054 C2055 1.394 . S
C2054 H2062 0.930 . S
C2055 C2054 1.394 . S
C2055 C2056 1.383 . S
C2055 H2063 0.929 . S
C2056 C2055 1.383 . S
C2056 C2057 1.377 1_556 S
C2057 H2041 0.930 . S
C2057 C2056 1.377 1_554 S
C2057 C2058 1.379 . S
C2058 H2042 0.931 . S
C2058 C2052 1.382 . S
C2058 C2057 1.379 . S
H2059 C2053 0.959 . S
H2060 C2053 0.961 . S
H2061 C2053 0.960 . S
H2062 C2054 0.930 . S
H2063 C2055 0.929 . S
C345 C247 0.446 . S
C364 C3 0.331 . S
C381 C17 0.337 . S
C400 C233 0.491 . S
C417 C31 0.502 . S
C436 C275 0.556 . S
C453 C45 0.532 . S
C472 C261 0.626 . S
C489 C59 0.318 . S
C508 C303 0.473 . S
C525 C73 0.457 . S
C544 C317 0.505 . S
C561 C289 0.593 . S
C580 C87 0.360 . S
C597 C163 0.589 . S
C616 C101 0.444 . S
C633 C115 0.333 . S
C652 C51 0.544 . S
C669 C23 0.548 . S
C688 C129 0.513 . S
C705 C143 0.686 . S
C724 C9 0.765 . S
C741 C157 0.480 . S
C760 C205 0.540 . S
C777 C79 0.710 . S
C796 C171 0.690 . S
C813 C65 0.683 . S
C832 C185 0.674 . S
C849 C199 0.486 . S
C868 C107 0.611 . S
C885 C213 0.471 . S
C904 C93 0.622 . S
C921 C135 0.704 . S
C940 C227 0.671 . S
C957 C149 0.606 . S
C976 C241 0.476 . S
C993 C121 0.708 . S
C1012 C255 0.712 . S
C1029 C269 0.489 . S
C1048 C331 0.578 . S
C1065 C219 0.714 . S
C1084 C283 0.699 . S
C1101 C297 0.525 . S
C1120 C191 0.638 . S
C1137 C177 0.598 . S
C1156 C311 0.383 . S
C1173 C325 0.484 . S
C1192 C37 0.471 . S
C1209 C8 1.820 . S
C1228 C22 1.788 . S
C1245 C50 1.686 . S
C1264 C36 1.689 . S
C1281 C64 1.818 . S
C1300 C92 1.801 . S
C1317 C78 2.027 . S
C1336 C106 2.014 . S
C1353 C316 1.808 . S
C1372 C120 1.807 . S
C1389 C134 2.032 . S
C1408 C162 1.993 . S
C1425 C288 1.909 . S
C1444 C148 1.927 . S
C1461 C190 1.928 . S
C1480 C176 1.896 . S
C1497 C204 2.014 . S
C1516 C218 2.013 . S
C1533 C260 1.928 . S
C1552 C232 1.924 . S
C1569 C246 1.684 . S
C1588 C274 1.699 . S
C1605 C330 1.698 . S
C1624 C302 1.669 . S
C1641 C35 1.014 . S
C1660 C7 1.041 . S
C1677 C21 1.277 . S
C1696 C49 1.235 . S
C1713 C273 0.997 . S
C1732 C63 1.030 1_565 S
C1749 C77 1.204 . S
C1768 C259 1.158 . S
C1785 C91 1.274 . S
C1804 C245 1.310 . S
C1821 C231 1.478 . S
C1840 C105 1.442 . S
C1857 C119 0.998 . S
C1876 C329 0.962 . S
C1893 C133 1.201 . S
C1912 C147 1.163 . S
C1929 C287 1.479 . S
C1948 C161 1.515 . S
C1965 C175 1.487 . S
C1984 C203 1.497 . S
C2001 C189 1.196 . S
C2020 C217 1.213 . S
C2037 C315 1.269 . S
C2056 C301 1.301 . S
