# Generated by pormake.
# Topology ske, (6)-cn, num edge types: 1
# Building blocks:
#     Node 0, Type 0, BuildingBlock: CUWYAW_clean_sbu_0, # of connection points: 6
#     Node 1, Type 0, BuildingBlock: CUWYAW_clean_sbu_0, # of connection points: 6
#     Node 2, Type 0, BuildingBlock: CUWYAW_clean_sbu_0, # of connection points: 6
#     Node 3, Type 0, BuildingBlock: CUWYAW_clean_sbu_0, # of connection points: 6
#     Node 4, Type 0, BuildingBlock: CUWYAW_clean_sbu_0, # of connection points: 6
#     Node 5, Type 0, BuildingBlock: CUWYAW_clean_sbu_0, # of connection points: 6
#     Node 6, Type 0, BuildingBlock: CUWYAW_clean_sbu_0, # of connection points: 6
#     Node 7, Type 0, BuildingBlock: CUWYAW_clean_sbu_0, # of connection points: 6
#     Edge 8, Type (0, 0), BuildingBlock: XUDNAN_clean_linker_2, # of connection points: 2
#     Edge 9, Type (0, 0), BuildingBlock: XUDNAN_clean_linker_2, # of connection points: 2
#     Edge 10, Type (0, 0), BuildingBlock: XUDNAN_clean_linker_2, # of connection points: 2
#     Edge 11, Type (0, 0), BuildingBlock: XUDNAN_clean_linker_2, # of connection points: 2
#     Edge 12, Type (0, 0), BuildingBlock: XUDNAN_clean_linker_2, # of connection points: 2
#     Edge 13, Type (0, 0), BuildingBlock: XUDNAN_clean_linker_2, # of connection points: 2
#     Edge 14, Type (0, 0), BuildingBlock: XUDNAN_clean_linker_2, # of connection points: 2
#     Edge 15, Type (0, 0), BuildingBlock: XUDNAN_clean_linker_2, # of connection points: 2
#     Edge 16, Type (0, 0), BuildingBlock: XUDNAN_clean_linker_2, # of connection points: 2
#     Edge 17, Type (0, 0), BuildingBlock: XUDNAN_clean_linker_2, # of connection points: 2
#     Edge 18, Type (0, 0), BuildingBlock: XUDNAN_clean_linker_2, # of connection points: 2
#     Edge 19, Type (0, 0), BuildingBlock: XUDNAN_clean_linker_2, # of connection points: 2
#     Edge 20, Type (0, 0), BuildingBlock: XUDNAN_clean_linker_2, # of connection points: 2
#     Edge 21, Type (0, 0), BuildingBlock: XUDNAN_clean_linker_2, # of connection points: 2
#     Edge 22, Type (0, 0), BuildingBlock: XUDNAN_clean_linker_2, # of connection points: 2
#     Edge 23, Type (0, 0), BuildingBlock: XUDNAN_clean_linker_2, # of connection points: 2
#     Edge 24, Type (0, 0), BuildingBlock: XUDNAN_clean_linker_2, # of connection points: 2
#     Edge 25, Type (0, 0), BuildingBlock: XUDNAN_clean_linker_2, # of connection points: 2
#     Edge 26, Type (0, 0), BuildingBlock: XUDNAN_clean_linker_2, # of connection points: 2
#     Edge 27, Type (0, 0), BuildingBlock: XUDNAN_clean_linker_2, # of connection points: 2
#     Edge 28, Type (0, 0), BuildingBlock: XUDNAN_clean_linker_2, # of connection points: 2
#     Edge 29, Type (0, 0), BuildingBlock: XUDNAN_clean_linker_2, # of connection points: 2
#     Edge 30, Type (0, 0), BuildingBlock: XUDNAN_clean_linker_2, # of connection points: 2
#     Edge 31, Type (0, 0), BuildingBlock: XUDNAN_clean_linker_2, # of connection points: 2
# Relax obj value: 0.182
# Max RMSD: 0.194
# Mean RMSD: 0.187
data_MOF--net-ske--node1-CUWYAW_clean_sbu_0--edge1-XUDNAN_clean_linker_2
_symmetry_space_group_name_H-M    P1
_symmetry_Int_Tables_number       1
_symmetry_cell_setting            triclinic
loop_
_symmetry_equiv_pos_as_xyz
'x, y, z'
_cell_length_a     103.02928
_cell_length_b     29.176144
_cell_length_c     15.526918
_cell_angle_alpha  89.865204
_cell_angle_beta   90.059289
_cell_angle_gamma 97.774426
loop_
_atom_site_label
_atom_site_type_symbol
_atom_site_fract_x
_atom_site_fract_y
_atom_site_fract_z
_atom_type_partial_charge
C0 C 0.18574 0.2593 0.51046 0.0
Eu1 Eu 0.16068 0.26512 0.52277 0.0
C2 C 0.19785 0.25804 0.56172 0.0
C3 C 0.20831 0.29403 0.55294 0.0
C4 C 0.22025 0.292 0.59504 0.0
C5 C 0.22206 0.25368 0.64667 0.0
C6 C 0.21154 0.21768 0.65542 0.0
C7 C 0.19958 0.2199 0.61384 0.0
C8 C 0.15079 0.34685 0.53296 0.0
C9 C 0.14631 0.2583 0.70091 0.0
C10 C 0.10657 0.26514 0.53361 0.0
Eu11 Eu 0.13137 0.25703 0.51427 0.0
C12 C 0.09302 0.26037 0.49936 0.0
C13 C 0.08327 0.23016 0.54144 0.0
C14 C 0.07006 0.22937 0.52006 0.0
C15 C 0.06622 0.25897 0.45608 0.0
C16 C 0.07603 0.28825 0.41186 0.0
C17 C 0.0893 0.28904 0.4334 0.0
C18 C 0.141 0.17492 0.50004 0.0
C19 C 0.14594 0.25764 0.33529 0.0
O20 O 0.17665 0.22335 0.5133 0.0
O21 O 0.18087 0.29836 0.50781 0.0
O22 O 0.16039 0.3367 0.58037 0.0
O23 O 0.14701 0.31379 0.48306 0.0
O24 O 0.15673 0.24814 0.66026 0.0
O25 O 0.13616 0.27046 0.6581 0.0
O26 O 0.1153 0.29872 0.50581 0.0
O27 O 0.11159 0.22746 0.55179 0.0
O28 O 0.13115 0.18588 0.45598 0.0
O29 O 0.14497 0.2072 0.55168 0.0
O30 O 0.13503 0.26696 0.37175 0.0
O31 O 0.15625 0.25021 0.38151 0.0
H32 H 0.2073 0.32366 0.51249 0.0
H33 H 0.22801 0.32067 0.58749 0.0
H34 H 0.21258 0.18714 0.69316 0.0
H35 H 0.19178 0.1913 0.62141 0.0
H36 H 0.08583 0.208 0.59308 0.0
H37 H 0.06284 0.20576 0.55442 0.0
H38 H 0.07345 0.31178 0.36266 0.0
H39 H 0.09656 0.31304 0.40025 0.0
C40 C 0.85169 0.27275 0.52774 0.0
Eu41 Eu 0.87607 0.25792 0.51586 0.0
C42 C 0.83928 0.26453 0.57699 0.0
C43 C 0.83252 0.21976 0.58839 0.0
C44 C 0.81969 0.21347 0.62004 0.0
C45 C 0.81324 0.25174 0.64019 0.0
C46 C 0.82033 0.29634 0.6336 0.0
C47 C 0.8332 0.3026 0.60232 0.0
C48 C 0.88432 0.1732 0.51097 0.0
C49 C 0.89052 0.25324 0.702 0.0
C50 C 0.92972 0.24867 0.52057 0.0
Eu51 Eu 0.90511 0.26121 0.52363 0.0
C52 C 0.94343 0.25629 0.48929 0.0
C53 C 0.95304 0.28249 0.53976 0.0
C54 C 0.96634 0.28366 0.52085 0.0
C55 C 0.97039 0.25863 0.4509 0.0
C56 C 0.96077 0.23346 0.39871 0.0
C57 C 0.94742 0.23211 0.41793 0.0
C58 C 0.89638 0.34528 0.52399 0.0
C59 C 0.89091 0.25668 0.33688 0.0
O60 O 0.86148 0.30102 0.55934 0.0
O61 O 0.85547 0.23779 0.48669 0.0
O62 O 0.87415 0.18379 0.47063 0.0
O63 O 0.88896 0.20638 0.55817 0.0
O64 O 0.88039 0.26702 0.66148 0.0
O65 O 0.90018 0.23974 0.65784 0.0
O66 O 0.92061 0.22345 0.47602 0.0
O67 O 0.92529 0.28127 0.56491 0.0
O68 O 0.90604 0.33535 0.57044 0.0
O69 O 0.8922 0.31157 0.47718 0.0
O70 O 0.90095 0.24693 0.38313 0.0
O71 O 0.88054 0.27027 0.37395 0.0
H72 H 0.83693 0.18961 0.56977 0.0
H73 H 0.81468 0.17852 0.62638 0.0
H74 H 0.81573 0.32666 0.64805 0.0
H75 H 0.83817 0.33747 0.59373 0.0
H76 H 0.95031 0.30086 0.59605 0.0
H77 H 0.97347 0.30388 0.56168 0.0
H78 H 0.96356 0.21344 0.34479 0.0
H79 H 0.94029 0.21088 0.37868 0.0
C80 C 0.10567 0.76017 0.55653 0.0
Eu81 Eu 0.13018 0.75637 0.52947 0.0
C82 C 0.09156 0.75885 0.57364 0.0
C83 C 0.0844 0.71766 0.60414 0.0
C84 C 0.07087 0.71378 0.6128 0.0
C85 C 0.06414 0.75084 0.59062 0.0
C86 C 0.07132 0.793 0.5645 0.0
C87 C 0.08497 0.79694 0.55577 0.0
C88 C 0.13949 0.67563 0.4994 0.0
C89 C 0.14671 0.75912 0.70941 0.0
C90 C 0.18459 0.73756 0.51943 0.0
Eu91 Eu 0.16119 0.76114 0.5254 0.0
C92 C 0.19722 0.73998 0.47397 0.0
C93 C 0.20502 0.78179 0.45228 0.0
C94 C 0.21729 0.78121 0.41279 0.0
C95 C 0.2219 0.73887 0.39489 0.0
C96 C 0.21405 0.69751 0.41866 0.0
C97 C 0.20187 0.69812 0.4567 0.0
C98 C 0.1536 0.84782 0.51867 0.0
C99 C 0.14466 0.75982 0.34537 0.0
O100 O 0.11304 0.79411 0.5169 0.0
O101 O 0.11171 0.72568 0.5813 0.0
O102 O 0.12918 0.68793 0.46308 0.0
O103 O 0.14438 0.70593 0.55292 0.0
O104 O 0.13597 0.76903 0.6705 0.0
O105 O 0.15706 0.74975 0.66623 0.0
O106 O 0.17438 0.71389 0.48223 0.0
O107 O 0.18181 0.77377 0.5621 0.0
O108 O 0.16576 0.84086 0.51437 0.0
O109 O 0.14679 0.80922 0.52356 0.0
O110 O 0.15536 0.75123 0.38632 0.0
O111 O 0.13404 0.76981 0.3862 0.0
H112 H 0.08917 0.68769 0.6188 0.0
H113 H 0.0656 0.68109 0.63427 0.0
H114 H 0.06634 0.82205 0.54684 0.0
H115 H 0.0903 0.82915 0.5326 0.0
H116 H 0.20167 0.81466 0.46573 0.0
H117 H 0.22304 0.81374 0.39533 0.0
H118 H 0.21735 0.66422 0.40889 0.0
H119 H 0.19612 0.66551 0.47405 0.0
C120 C 0.92791 0.75713 0.54976 0.0
Eu121 Eu 0.90343 0.76387 0.52462 0.0
C122 C 0.94185 0.75333 0.56406 0.0
C123 C 0.95145 0.79207 0.55443 0.0
C124 C 0.96471 0.78781 0.56544 0.0
C125 C 0.96854 0.74471 0.58633 0.0
C126 C 0.95884 0.70665 0.6001 0.0
C127 C 0.94564 0.71084 0.58863 0.0
C128 C 0.89353 0.84469 0.51866 0.0
C129 C 0.88829 0.75787 0.71039 0.0
C130 C 0.84966 0.76528 0.51627 0.0
Eu131 Eu 0.87426 0.75375 0.52976 0.0
C132 C 0.83717 0.75626 0.46795 0.0
C133 C 0.82875 0.71478 0.48069 0.0
C134 C 0.81615 0.70883 0.44593 0.0
C135 C 0.81161 0.74393 0.39638 0.0
C136 C 0.8201 0.78533 0.38278 0.0
C137 C 0.83272 0.79148 0.41855 0.0
C138 C 0.88425 0.67211 0.53315 0.0
C139 C 0.88927 0.7566 0.34248 0.0
O140 O 0.91871 0.72166 0.55692 0.0
O141 O 0.92386 0.79578 0.52587 0.0
O142 O 0.9035 0.83612 0.47361 0.0
O143 O 0.88946 0.81093 0.56666 0.0
O144 O 0.89898 0.75148 0.66773 0.0
O145 O 0.87765 0.76644 0.67033 0.0
O146 O 0.85925 0.7946 0.48472 0.0
O147 O 0.85378 0.73059 0.55679 0.0
O148 O 0.87402 0.67989 0.57629 0.0
O149 O 0.88822 0.70653 0.48683 0.0
O150 O 0.87833 0.75969 0.38557 0.0
O151 O 0.90043 0.75277 0.38203 0.0
H152 H 0.94876 0.82546 0.53673 0.0
H153 H 0.97196 0.81772 0.55417 0.0
H154 H 0.96146 0.6732 0.6181 0.0
H155 H 0.93844 0.68059 0.59797 0.0
H156 H 0.83171 0.68727 0.52001 0.0
H157 H 0.80985 0.67693 0.46011 0.0
H158 H 0.81703 0.81302 0.34455 0.0
H159 H 0.83888 0.82423 0.40911 0.0
C160 C 0.68441 0.7496 0.05682 0.0
Eu161 Eu 0.65959 0.75899 0.04445 0.0
C162 C 0.69617 0.75025 0.11224 0.0
C163 C 0.70664 0.78621 0.10287 0.0
C164 C 0.71884 0.78298 0.14066 0.0
C165 C 0.72084 0.74357 0.18855 0.0
C166 C 0.71007 0.70914 0.20275 0.0
C167 C 0.69792 0.71225 0.16458 0.0
C168 C 0.65102 0.84315 0.03132 0.0
C169 C 0.64545 0.75905 0.23067 0.0
C170 C 0.6063 0.77038 0.04725 0.0
Eu171 Eu 0.63076 0.75575 0.05214 0.0
C172 C 0.59271 0.76091 1.01444 0.0
C173 C 0.58516 0.71766 0.02749 0.0
C174 C 0.57167 0.71174 1.0126 0.0
C175 C 0.56532 0.74864 0.98268 0.0
C176 C 0.573 0.79154 0.96686 0.0
C177 C 0.58651 0.79761 0.98305 0.0
C178 C 0.6388 0.67092 0.06139 0.0
C179 C 0.64496 0.75332 0.86386 0.0
O180 O 0.67492 0.71512 0.06369 0.0
O181 O 0.68018 0.78887 0.04014 0.0
O182 O 0.66057 0.83049 0.98733 0.0
O183 O 0.64673 0.81157 0.08357 0.0
O184 O 0.65528 0.7458 0.18712 0.0
O185 O 0.63551 0.77358 0.19059 0.0
O186 O 0.61547 0.79453 1.00129 0.0
O187 O 0.61069 0.73865 0.09439 0.0
O188 O 0.62915 0.68307 0.10496 0.0
O189 O 0.64352 0.70297 1.01141 0.0
O190 O 0.63433 0.7605 0.90693 0.0
O191 O 0.65577 0.74566 0.90356 0.0
H192 H 0.70562 0.81581 0.06237 0.0
H193 H 0.72687 0.8101 0.12799 0.0
H194 H 0.71113 0.67883 0.24111 0.0
H195 H 0.69008 0.6839 0.1732 0.0
H196 H 0.58956 0.68877 0.05292 0.0
H197 H 0.56618 0.67843 0.02794 0.0
H198 H 0.5686 0.8207 0.94283 0.0
H199 H 0.59206 0.83155 0.97383 0.0
C200 C 0.35073 0.77061 0.06515 0.0
Eu201 Eu 0.37487 0.75379 0.04868 0.0
C202 C 0.33841 0.76281 0.11491 0.0
C203 C 0.33244 0.7182 0.13671 0.0
C204 C 0.31977 0.71158 0.17113 0.0
C205 C 0.31274 0.74933 0.18343 0.0
C206 C 0.31908 0.79414 0.16603 0.0
C207 C 0.33178 0.80073 0.13225 0.0
C208 C 0.38304 0.66848 0.04647 0.0
C209 C 0.38982 0.75714 0.23193 0.0
C210 C 0.42874 0.74499 0.04189 0.0
Eu211 Eu 0.40419 0.75808 0.05096 0.0
C212 C 0.44244 0.75269 1.01057 0.0
C213 C 0.4521 0.78178 0.05599 0.0
C214 C 0.46543 0.78049 0.03998 0.0
C215 C 0.46939 0.74999 0.97821 0.0
C216 C 0.45967 0.72342 0.92875 0.0
C217 C 0.44639 0.72442 0.94527 0.0
C218 C 0.39583 0.84272 0.05508 0.0
C219 C 0.38903 0.75855 0.86671 0.0
O220 O 0.36075 0.79664 0.09913 0.0
O221 O 0.3541 0.73621 0.02028 0.0
O222 O 0.37234 0.67771 1.01071 0.0
O223 O 0.38828 0.70306 0.08877 0.0
O224 O 0.3798 0.7685 0.1879 0.0
O225 O 0.3998 0.74219 0.19242 0.0
O226 O 0.41953 0.72345 0.99314 0.0
O227 O 0.4245 0.77491 0.09364 0.0
O228 O 0.40605 0.83259 0.0952 0.0
O229 O 0.39089 0.80899 1.00983 0.0
O230 O 0.39949 0.7472 0.90705 0.0
O231 O 0.379 0.77021 0.91008 0.0
H232 H 0.33736 0.68831 0.12453 0.0
H233 H 0.31536 0.67664 0.18592 0.0
H234 H 0.31402 0.82403 0.17408 0.0
H235 H 0.33621 0.83547 0.11577 0.0
H236 H 0.44938 0.80361 0.10747 0.0
H237 H 0.47257 0.80136 0.07968 0.0
H238 H 0.46229 0.70042 0.87899 0.0
H239 H 0.43924 0.7012 0.90965 0.0
C240 C 0.60728 0.2553 1.01486 0.0
Eu241 Eu 0.63227 0.25383 0.99535 0.0
C242 C 0.59291 0.2532 0.02387 0.0
C243 C 0.58479 0.21272 0.99938 0.0
C244 C 0.57122 0.2107 1.00115 0.0
C245 C 0.56536 0.24905 0.02751 0.0
C246 C 0.57339 0.28892 0.05626 0.0
C247 C 0.5871 0.29105 0.05412 0.0
C248 C 0.64259 0.17278 0.98775 0.0
C249 C 0.6477 0.25885 0.18008 0.0
C250 C 0.68648 0.25695 0.98444 0.0
Eu251 Eu 0.66158 0.26451 0.99702 0.0
C252 C 0.69811 0.25441 0.92944 0.0
C253 C 0.70714 0.29421 0.91357 0.0
C254 C 0.71907 0.29091 0.8724 0.0
C255 C 0.72232 0.24765 0.84679 0.0
C256 C 0.71321 0.20796 0.86252 0.0
C257 C 0.70127 0.21132 0.90293 0.0
C258 C 0.65193 0.34465 0.02248 0.0
C259 C 0.64628 0.26315 0.81283 0.0
O260 O 0.6158 0.29198 0.02988 0.0
O261 O 0.6124 0.21918 0.98905 0.0
O262 O 0.63253 0.18124 0.94351 0.0
O263 O 0.64658 0.20698 0.03436 0.0
O264 O 0.63665 0.26305 0.13908 0.0
O265 O 0.65851 0.25313 0.13864 0.0
O266 O 0.67723 0.22142 0.98671 0.0
O267 O 0.68194 0.29655 0.99075 0.0
O268 O 0.66205 0.33265 0.06148 0.0
O269 O 0.64732 0.3146 0.96738 0.0
O270 O 0.6571 0.25701 0.85447 0.0
O271 O 0.63537 0.26858 0.85363 0.0
H272 H 0.58891 0.18275 0.9765 0.0
H273 H 0.56526 0.17939 0.97944 0.0
H274 H 0.56909 0.31902 0.07659 0.0
H275 H 0.59312 0.32257 0.07404 0.0
H276 H 0.70512 0.32788 0.9348 0.0
H277 H 0.72573 0.32231 0.86083 0.0
H278 H 0.71542 0.17385 0.8459 0.0
H279 H 0.69471 0.17983 0.91592 0.0
C280 C 0.42809 0.2254 0.99457 0.0
Eu281 Eu 0.405 0.25279 0.99227 0.0
C282 C 0.44209 0.23784 1.01794 0.0
C283 C 0.44987 0.27581 0.97951 0.0
C284 C 0.46354 0.28063 0.98621 0.0
C285 C 0.46967 0.24803 0.03219 0.0
C286 C 0.46191 0.21216 0.07594 0.0
C287 C 0.44823 0.20707 0.06867 0.0
C288 C 0.40105 0.34372 1.00703 0.0
C289 C 0.3896 0.26053 0.17031 0.0
C290 C 0.35122 0.27322 0.96939 0.0
Eu291 Eu 0.37525 0.25533 0.9878 0.0
C292 C 0.33877 0.26399 0.92036 0.0
C293 C 0.33054 0.22167 0.92913 0.0
C294 C 0.31769 0.21674 0.89814 0.0
C295 C 0.31268 0.25401 0.85814 0.0
C296 C 0.32119 0.29526 0.844 0.0
C297 C 0.33408 0.30021 0.87512 0.0
C298 C 0.3824 0.17022 1.01604 0.0
C299 C 0.39071 0.25318 0.80544 0.0
O300 O 0.41946 0.21542 0.05606 0.0
O301 O 0.42358 0.24759 0.93018 0.0
O302 O 0.41236 0.32904 1.00779 0.0
O303 O 0.39228 0.30926 1.00009 0.0
O304 O 0.39925 0.24283 0.13243 0.0
O305 O 0.3803 0.2768 0.12536 0.0
O306 O 0.36131 0.29826 0.93377 0.0
O307 O 0.35456 0.24012 1.0181 0.0
O308 O 0.37246 0.18547 0.05146 0.0
O309 O 0.3879 0.19966 0.96293 0.0
O310 O 0.37921 0.25162 0.84394 0.0
O311 O 0.40175 0.25363 0.84868 0.0
H312 H 0.44548 0.3002 0.93993 0.0
H313 H 0.46937 0.3083 0.95125 0.0
H314 H 0.46645 0.18618 0.11046 0.0
H315 H 0.44249 0.17732 0.09823 0.0
H316 H 0.3338 0.19295 0.96351 0.0
H317 H 0.31149 0.18414 0.90844 0.0
H318 H 0.31766 0.32466 0.81359 0.0
H319 H 0.34017 0.33331 0.86792 0.0
H320 H 0.2474 0.28483 0.59085 0.0
H321 H 0.22563 0.21766 0.80679 0.0
H322 H 0.24631 0.21078 0.88125 0.0
H323 H 0.27432 0.21919 0.59672 0.0
H324 H 0.28664 0.26746 0.57252 0.0
H325 H 0.27012 0.26725 0.53426 0.0
H326 H 0.26908 0.3459 0.60892 0.0
H327 H 0.28559 0.34632 0.64757 0.0
H328 H 0.27254 0.3517 0.7225 0.0
H329 H 0.26892 0.20993 0.93283 0.0
H330 H 0.29258 0.21627 0.96052 0.0
H331 H 0.30038 0.28604 0.71481 0.0
C332 C 0.24695 0.26914 0.65421 0.0
C333 C 0.23476 0.25128 0.69219 0.0
C334 C 0.23474 0.23061 0.77495 0.0
C335 C 0.24646 0.2269 0.81835 0.0
C336 C 0.25822 0.24448 0.779 0.0
C337 C 0.25861 0.26548 0.69912 0.0
C338 C 0.27269 0.2816 0.67214 0.0
C339 C 0.27614 0.25741 0.58898 0.0
C340 C 0.27512 0.33452 0.66222 0.0
C341 C 0.28008 0.26573 0.74905 0.0
C342 C 0.27147 0.24448 0.80969 0.0
C343 C 0.27578 0.22636 0.88581 0.0
C344 C 0.28927 0.22978 0.90054 0.0
C345 C 0.2984 0.25099 0.83938 0.0
C346 C 0.29368 0.26962 0.76285 0.0
H347 H 0.74677 0.29862 0.87604 0.0
H348 H 0.72689 0.18736 0.71887 0.0
H349 H 0.74785 0.1767 0.65224 0.0
H350 H 0.76921 0.34619 0.7056 0.0
H351 H 0.78276 0.36176 0.77803 0.0
H352 H 0.7662 0.36109 0.8157 0.0
H353 H 0.77044 0.30461 0.9381 0.0
H354 H 0.78702 0.30518 0.90107 0.0
H355 H 0.77642 0.25103 0.91187 0.0
H356 H 0.77057 0.17684 0.60253 0.0
H357 H 0.7941 0.1887 0.57 0.0
H358 H 0.79983 0.30075 0.75604 0.0
C359 C 0.74676 0.2724 0.82683 0.0
C360 C 0.73507 0.24342 0.80384 0.0
C361 C 0.73565 0.20928 0.7396 0.0
C362 C 0.74752 0.20317 0.70058 0.0
C363 C 0.75879 0.23188 0.72518 0.0
C364 C 0.75856 0.26609 0.7862 0.0
C365 C 0.7722 0.29236 0.79968 0.0
C366 C 0.77261 0.34337 0.77316 0.0
C367 C 0.77678 0.28801 0.89325 0.0
C368 C 0.7801 0.26671 0.73799 0.0
C369 C 0.7721 0.23218 0.69557 0.0
C370 C 0.77698 0.20361 0.63557 0.0
C371 C 0.79043 0.21035 0.61827 0.0
C372 C 0.79897 0.24515 0.66133 0.0
C373 C 0.79363 0.27388 0.72175 0.0
H374 H 0.29875 0.80309 0.28738 0.0
H375 H 0.29435 0.67855 0.13077 0.0
H376 H 0.27098 0.66472 0.16648 0.0
H377 H 0.27643 0.76131 0.45436 0.0
H378 H 0.26956 0.81455 0.46707 0.0
H379 H 0.28613 0.81588 0.42921 0.0
H380 H 0.28061 0.86118 0.29343 0.0
H381 H 0.26403 0.86011 0.33115 0.0
H382 H 0.26707 0.83782 0.22601 0.0
H383 H 0.24833 0.66434 0.21339 0.0
H384 H 0.22723 0.67465 0.27707 0.0
H385 H 0.24549 0.79812 0.40926 0.0
C386 C 0.29287 0.77303 0.2602 0.0
C387 C 0.29856 0.7415 0.20719 0.0
C388 C 0.29044 0.70257 0.1734 0.0
C389 C 0.27706 0.69465 0.19242 0.0
C390 C 0.27183 0.72616 0.24465 0.0
C391 C 0.2794 0.76462 0.27822 0.0
C392 C 0.2711 0.79263 0.3331 0.0
C393 C 0.2761 0.79627 0.42649 0.0
C394 C 0.27068 0.84079 0.29356 0.0
C395 C 0.25781 0.76301 0.32663 0.0
C396 C 0.25852 0.72536 0.27397 0.0
C397 C 0.24764 0.69336 0.25561 0.0
C398 C 0.23568 0.69939 0.29301 0.0
C399 C 0.23464 0.73653 0.35031 0.0
C400 C 0.24588 0.76928 0.36605 0.0
H401 H 0.74108 0.80791 0.25128 0.0
H402 H 0.73125 0.66241 0.18683 0.0
H403 H 0.75317 0.64823 0.23208 0.0
H404 H 0.77498 0.81739 0.17552 0.0
H405 H 0.78129 0.85653 0.25989 0.0
H406 H 0.76473 0.85612 0.22226 0.0
H407 H 0.7562 0.84174 0.3781 0.0
H408 H 0.77274 0.8419 0.41602 0.0
H409 H 0.76053 0.79292 0.43782 0.0
H410 H 0.77582 0.64864 0.28042 0.0
H411 H 0.79837 0.66319 0.33401 0.0
H412 H 0.79418 0.80811 0.37244 0.0
C413 C 0.74355 0.77311 0.24637 0.0
C414 C 0.73425 0.73611 0.21686 0.0
C415 C 0.73796 0.69114 0.21151 0.0
C416 C 0.75047 0.68274 0.23618 0.0
C417 C 0.75931 0.71967 0.26539 0.0
C418 C 0.75611 0.76402 0.27054 0.0
C419 C 0.76762 0.79721 0.30456 0.0
C420 C 0.77244 0.83399 0.23649 0.0
C421 C 0.76406 0.81975 0.38918 0.0
C422 C 0.77764 0.76415 0.31904 0.0
C423 C 0.7726 0.71979 0.29493 0.0
C424 C 0.77988 0.68314 0.30031 0.0
C425 C 0.79269 0.69178 0.33175 0.0
C426 C 0.79812 0.73665 0.35916 0.0
C427 C 0.79044 0.77342 0.35184 0.0
H428 H 0.15834 0.92048 0.40683 0.0
H429 H 0.13868 0.87724 0.64572 0.0
H430 H 0.13363 0.95709 0.66861 0.0
H431 H 0.17259 0.03144 0.46635 0.0
H432 H 0.1694 0.05945 0.3664 0.0
H433 H 0.17114 0.99888 0.36745 0.0
H434 H 0.14834 0.97883 0.29607 0.0
H435 H 0.14663 0.03948 0.2932 0.0
H436 H 0.13427 0.99895 0.34471 0.0
H437 H 0.13325 0.04369 0.67316 0.0
H438 H 0.13345 0.1275 0.64567 0.0
H439 H 0.15092 0.11265 0.39535 0.0
C440 C 0.15281 0.9279 0.4632 0.0
C441 C 0.14896 0.89324 0.52504 0.0
C442 C 0.14165 0.9036 0.59774 0.0
C443 C 0.13882 0.94881 0.61139 0.0
C444 C 0.14304 0.98271 0.55025 0.0
C445 C 0.14949 0.97243 0.47614 0.0
C446 C 0.15246 0.01473 0.41887 0.0
C447 C 0.16728 0.02683 0.40393 0.0
C448 C 0.14498 0.00757 0.33313 0.0
C449 C 0.14716 0.05089 0.4738 0.0
C450 C 0.14191 0.03177 0.54985 0.0
C451 C 0.13709 0.0588 0.61315 0.0
C452 C 0.13733 0.10631 0.59737 0.0
C453 C 0.14215 0.12608 0.51849 0.0
C454 C 0.14714 0.09809 0.45602 0.0
H455 H 0.89445 0.41227 0.64294 0.0
H456 H 0.8924 0.38463 0.36881 0.0
H457 H 0.89 0.46669 0.34044 0.0
H458 H 0.86943 0.48981 0.63943 0.0
H459 H 0.87728 0.52636 0.72307 0.0
H460 H 0.87914 0.46588 0.72035 0.0
H461 H 0.90439 0.48773 0.7192 0.0
H462 H 0.90262 0.54831 0.72041 0.0
H463 H 0.91194 0.5256 0.63619 0.0
H464 H 0.88991 0.55338 0.34258 0.0
H465 H 0.88761 0.63497 0.37537 0.0
H466 H 0.88694 0.60359 0.64844 0.0
C467 C 0.89345 0.42368 0.57711 0.0
C468 C 0.8938 0.39279 0.50785 0.0
C469 C 0.89221 0.40819 0.42251 0.0
C470 C 0.89092 0.45464 0.40586 0.0
C471 C 0.89088 0.48467 0.47557 0.0
C472 C 0.89172 0.4695 0.55959 0.0
C473 C 0.89065 0.50809 0.62309 0.0
C474 C 0.87839 0.49686 0.67982 0.0
C475 C 0.90314 0.51801 0.67795 0.0
C476 C 0.8893 0.54757 0.56177 0.0
C477 C 0.88973 0.53358 0.4769 0.0
C478 C 0.88934 0.56455 0.40872 0.0
C479 C 0.88812 0.61075 0.42788 0.0
C480 C 0.88698 0.62501 0.51427 0.0
C481 C 0.88766 0.59315 0.58189 0.0
H482 H 0.90243 0.92124 0.42476 0.0
H483 H 0.87727 0.87379 0.63997 0.0
H484 H 0.87315 0.95421 0.66637 0.0
H485 H 0.91693 0.02821 0.51844 0.0
H486 H 0.91723 0.06013 0.41876 0.0
H487 H 0.91824 0.99897 0.41731 0.0
H488 H 0.89809 0.98539 0.31596 0.0
H489 H 0.89709 0.04652 0.31607 0.0
H490 H 0.88307 0.00608 0.34711 0.0
H491 H 0.87231 0.03986 0.67115 0.0
H492 H 0.87282 0.12389 0.64431 0.0
H493 H 0.89796 0.11465 0.42336 0.0
C494 C 0.89602 0.9278 0.47725 0.0
C495 C 0.89021 0.89163 0.53072 0.0
C496 C 0.88181 0.90125 0.59843 0.0
C497 C 0.87948 0.94674 0.61413 0.0
C498 C 0.88558 0.98187 0.56116 0.0
C499 C 0.89354 0.97283 0.49344 0.0
C500 C 0.89862 0.01647 0.44452 0.0
C501 C 0.91365 0.02653 0.45013 0.0
C502 C 0.89393 0.01342 0.35035 0.0
C503 C 0.89218 0.05158 0.49479 0.0
C504 C 0.88486 0.03099 0.56261 0.0
C505 C 0.87799 0.05636 0.61825 0.0
C506 C 0.87836 0.10386 0.60285 0.0
C507 C 0.88544 0.12505 0.53218 0.0
C508 C 0.89255 0.09887 0.47807 0.0
H509 H 0.14961 0.61855 0.61943 0.0
H510 H 0.13633 0.62556 0.35501 0.0
H511 H 0.13785 0.54274 0.33647 0.0
H512 H 0.17266 0.53349 0.58223 0.0
H513 H 0.16862 0.50312 0.68195 0.0
H514 H 0.16744 0.56405 0.67401 0.0
H515 H 0.14324 0.54823 0.72353 0.0
H516 H 0.14432 0.48721 0.7305 0.0
H517 H 0.13186 0.50751 0.66454 0.0
H518 H 0.13844 0.45909 0.34881 0.0
H519 H 0.14105 0.37878 0.38574 0.0
H520 H 0.15495 0.42292 0.64033 0.0
C521 C 0.14741 0.60276 0.55712 0.0
C522 C 0.14294 0.62846 0.48821 0.0
C523 C 0.13981 0.60647 0.40833 0.0
C524 C 0.14059 0.55942 0.39724 0.0
C525 C 0.14454 0.53455 0.46674 0.0
C526 C 0.1481 0.55526 0.54486 0.0
C527 C 0.15162 0.51944 0.60923 0.0
C528 C 0.16594 0.5307 0.63856 0.0
C529 C 0.1422 0.51538 0.68652 0.0
C530 C 0.14956 0.47585 0.55454 0.0
C531 C 0.14527 0.48554 0.47308 0.0
C532 C 0.14199 0.45107 0.41194 0.0
C533 C 0.14343 0.40549 0.43374 0.0
C534 C 0.14832 0.39475 0.51551 0.0
C535 C 0.15134 0.43037 0.57698 0.0
H536 H 0.64006 0.60776 0.92911 0.0
H537 H 0.64503 0.62767 0.20441 0.0
H538 H 0.64781 0.54558 0.2219 0.0
H539 H 0.62099 0.49574 0.94472 0.0
H540 H 0.62794 0.4714 0.85169 0.0
H541 H 0.62735 0.53279 0.85713 0.0
H542 H 0.6524 0.54925 0.83332 0.0
H543 H 0.65302 0.48796 0.82602 0.0
H544 H 0.66319 0.52233 0.903 0.0
H545 H 0.64888 0.46287 0.21334 0.0
H546 H 0.65073 0.38209 0.1775 0.0
H547 H 0.64464 0.41058 0.90711 0.0
C548 C 0.64206 0.59479 0.99248 0.0
C549 C 0.6425 0.6239 0.06573 0.0
C550 C 0.64475 0.60582 0.14793 0.0
C551 C 0.64628 0.55927 0.15842 0.0
C552 C 0.64533 0.53094 0.08604 0.0
C553 C 0.64342 0.54772 1.00437 0.0
C554 C 0.64244 0.50862 0.93859 0.0
C555 C 0.62887 0.50175 0.89548 0.0
C556 C 0.65342 0.51758 0.87126 0.0
C557 C 0.64425 0.46763 0.99632 0.0
C558 C 0.64577 0.48176 0.08113 0.0
C559 C 0.64772 0.45129 0.14729 0.0
C560 C 0.64866 0.4054 0.12632 0.0
C561 C 0.64767 0.39002 0.03997 0.0
C562 C 0.64512 0.42124 0.97392 0.0
H563 H 0.39693 0.9089 0.92593 0.0
H564 H 0.38632 0.88196 0.19306 0.0
H565 H 0.3826 0.96326 0.21069 0.0
H566 H 0.41473 0.02126 0.96119 0.0
H567 H 0.40954 0.04702 0.86361 0.0
H568 H 0.4104 0.98577 0.86791 0.0
H569 H 0.38608 0.96824 0.82217 0.0
H570 H 0.38522 0.02944 0.81604 0.0
H571 H 0.3738 0.99287 0.8826 0.0
H572 H 0.38107 0.04641 0.20339 0.0
H573 H 0.37969 0.12784 0.16877 0.0
H574 H 0.39186 0.10584 0.90631 0.0
C575 C 0.3935 0.92013 0.98725 0.0
C576 C 0.39164 0.88915 0.05808 0.0
C577 C 0.38758 0.90509 0.1381 0.0
C578 C 0.38553 0.95123 0.14873 0.0
C579 C 0.38778 0.98134 0.07888 0.0
C580 C 0.39155 0.96666 0.99933 0.0
C581 C 0.39362 0.00718 0.93621 0.0
C582 C 0.40792 0.01581 0.90542 0.0
C583 C 0.38411 0.99894 0.85972 0.0
C584 C 0.39036 0.04671 0.9929 0.0
C585 C 0.3871 0.03057 0.07497 0.0
C586 C 0.38355 0.05946 0.13937 0.0
C587 C 0.38284 0.10576 0.1191 0.0
C588 C 0.3857 0.12327 0.03518 0.0
C589 C 0.38981 0.09357 0.9714 0.0
H590 H 0.37863 0.38873 0.03343 0.0
H591 H 0.4205 0.41313 0.98373 0.0
H592 H 0.42015 0.49663 0.99166 0.0
H593 H 0.37008 0.48722 0.91036 0.0
H594 H 0.35817 0.5023 0.98652 0.0
H595 H 0.36126 0.44316 0.97779 0.0
H596 H 0.36636 0.4422 0.14101 0.0
H597 H 0.36342 0.50154 0.14987 0.0
H598 H 0.37882 0.48513 0.18502 0.0
H599 H 0.41634 0.57649 1.01787 0.0
H600 H 0.40817 0.65108 0.03811 0.0
H601 H 0.36844 0.58135 0.05402 0.0
C602 C 0.38766 0.41179 0.02375 0.0
C603 C 0.39965 0.39399 1.00867 0.0
C604 C 0.41124 0.42549 0.99645 0.0
C605 C 0.41118 0.47324 1.00085 0.0
C606 C 0.39942 0.48976 1.01755 0.0
C607 C 0.3878 0.46044 0.02779 0.0
C608 C 0.37662 0.48877 0.04473 0.0
C609 C 0.3659 0.47982 0.97568 0.0
C610 C 0.37097 0.47879 0.13553 0.0
C611 C 0.3838 0.53802 0.03902 0.0
C612 C 0.39702 0.5373 0.02621 0.0
C613 C 0.40595 0.57764 0.02584 0.0
C614 C 0.40125 0.62007 0.03701 0.0
C615 C 0.38771 0.62244 0.04437 0.0
C616 C 0.37885 0.58067 0.04619 0.0
H617 H 0.62972 0.09018 0.92863 0.0
H618 H 0.66249 0.14916 0.08677 0.0
H619 H 0.66725 0.07058 0.1227 0.0
H620 H 0.61927 0.99223 0.06852 0.0
H621 H 0.61473 0.95286 0.98092 0.0
H622 H 0.61377 0.01371 0.96778 0.0
H623 H 0.62884 0.0164 0.83379 0.0
H624 H 0.62972 0.95551 0.84591 0.0
H625 H 0.64456 0.99606 0.84269 0.0
H626 H 0.66868 0.98606 0.1397 0.0
H627 H 0.66744 0.90087 0.1299 0.0
H628 H 0.63358 0.89605 0.96297 0.0
C629 C 0.63793 0.0865 0.97042 0.0
C630 C 0.6458 0.12572 1.00463 0.0
C631 C 0.6564 0.11956 0.05961 0.0
C632 C 0.65912 0.07508 0.08075 0.0
C633 C 0.65109 0.0371 0.04693 0.0
C634 C 0.64073 0.04228 0.99273 0.0
C635 C 0.63373 0.99565 0.96432 0.0
C636 C 0.61953 0.98818 0.99736 0.0
C637 C 0.63425 0.99062 0.86584 0.0
C638 C 0.64197 0.96348 1.00927 0.0
C639 C 0.65183 0.98818 0.05745 0.0
C640 C 0.66095 0.96634 0.1028 0.0
C641 C 0.66015 0.91809 0.0972 0.0
C642 C 0.65033 0.89238 0.04674 0.0
C643 C 0.64103 0.91517 1.00315 0.0
H644 H 0.13545 0.30724 0.20589 0.0
H645 H 0.15824 0.19489 0.25238 0.0
H646 H 0.15976 0.18236 0.09634 0.0
H647 H 0.11727 0.26007 0.02149 0.0
H648 H 0.11852 0.31374 0.96231 0.0
H649 H 0.1189 0.31437 0.07834 0.0
H650 H 0.14108 0.36792 0.07563 0.0
H651 H 0.14069 0.36783 0.95957 0.0
H652 H 0.15458 0.35062 1.01567 0.0
H653 H 0.15863 0.17984 0.93999 0.0
H654 H 0.15669 0.19157 0.78447 0.0
H655 H 0.13528 0.30765 0.83007 0.0
C656 C 0.14064 0.27983 0.18274 0.0
C657 C 0.14659 0.25154 0.24105 0.0
C658 C 0.1536 0.21679 0.20883 0.0
C659 C 0.15448 0.20932 0.12035 0.0
C660 C 0.14849 0.23739 0.06455 0.0
C661 C 0.14189 0.27249 0.09371 0.0
C662 C 0.13701 0.29892 1.01816 0.0
C663 C 0.12203 0.29661 0.02021 0.0
C664 C 0.14374 0.34931 1.01722 0.0
C665 C 0.1415 0.27191 0.94247 0.0
C666 C 0.14814 0.23678 0.97174 0.0
C667 C 0.15351 0.20733 0.91604 0.0
C668 C 0.15237 0.21437 0.82771 0.0
C669 C 0.14591 0.25062 0.79513 0.0
C670 C 0.14017 0.27941 0.85327 0.0
H671 H 0.8755 0.28913 0.20731 0.0
H672 H 0.90836 0.21271 0.25185 0.0
H673 H 0.91102 0.20411 0.09713 0.0
H674 H 0.86228 0.222 0.02081 0.0
H675 H 0.85798 0.27101 0.96166 0.0
H676 H 0.85808 0.27174 0.07775 0.0
H677 H 0.87416 0.34804 0.07564 0.0
H678 H 0.87413 0.34748 0.95956 0.0
H679 H 0.88938 0.35044 1.01755 0.0
H680 H 0.9108 0.20293 0.94371 0.0
H681 H 0.90786 0.20935 0.78925 0.0
H682 H 0.87518 0.28707 0.83043 0.0
C683 C 0.88318 0.27045 0.18414 0.0
C684 C 0.89176 0.25178 0.24224 0.0
C685 C 0.90173 0.22772 0.20936 0.0
C686 C 0.90332 0.22244 0.12122 0.0
C687 C 0.89488 0.24132 0.06593 0.0
C688 C 0.885 0.26488 0.09498 0.0
C689 C 0.87756 0.28203 1.01894 0.0
C690 C 0.86311 0.2604 1.01989 0.0
C691 C 0.87889 0.33516 1.01789 0.0
C692 C 0.88485 0.26397 0.94362 0.0
C693 C 0.89477 0.24071 0.97358 0.0
C694 C 0.90306 0.22094 0.91903 0.0
C695 C 0.90126 0.22495 0.83084 0.0
C696 C 0.89124 0.24874 0.79689 0.0
C697 C 0.88285 0.26842 0.85428 0.0
H698 H 0.13355 0.80762 0.21309 0.0
H699 H 0.15594 0.69456 0.26398 0.0
H700 H 0.15845 0.68295 0.10903 0.0
H701 H 0.11649 0.75757 0.02066 0.0
H702 H 0.11766 0.8117 0.96305 0.0
H703 H 0.11707 0.81116 0.07906 0.0
H704 H 0.13874 0.86759 0.08414 0.0
H705 H 0.13942 0.86811 0.96814 0.0
H706 H 0.153 0.85243 0.02971 0.0
H707 H 0.15993 0.68511 0.95268 0.0
H708 H 0.15898 0.69755 0.79654 0.0
H709 H 0.13507 0.80736 0.83672 0.0
C710 C 0.13877 0.78004 0.19118 0.0
C711 C 0.1446 0.75211 0.25089 0.0
C712 C 0.15152 0.71673 0.21975 0.0
C713 C 0.15299 0.70973 0.13167 0.0
C714 C 0.14748 0.73829 0.07453 0.0
C715 C 0.14043 0.77258 0.10218 0.0
C716 C 0.1359 0.79879 0.02511 0.0
C717 C 0.12089 0.79453 0.02179 0.0
C718 C 0.14213 0.84975 0.02691 0.0
C719 C 0.1413 0.77307 0.95067 0.0
C720 C 0.1481 0.73882 0.98164 0.0
C721 C 0.15454 0.71151 0.92734 0.0
C722 C 0.15398 0.71903 0.83863 0.0
C723 C 0.14691 0.75323 0.80429 0.0
C724 C 0.14041 0.78056 0.86117 0.0
H725 H 0.90205 0.80858 0.83885 0.0
H726 H 0.87252 0.69082 0.79115 0.0
H727 H 0.87021 0.67682 0.9477 0.0
H728 H 0.91761 0.76441 0.02319 0.0
H729 H 0.9195 0.81816 0.08189 0.0
H730 H 0.9192 0.81872 0.96589 0.0
H731 H 0.90006 0.86778 0.96819 0.0
H732 H 0.90034 0.86756 0.08424 0.0
H733 H 0.8854 0.84723 0.02763 0.0
H734 H 0.87058 0.6761 0.10638 0.0
H735 H 0.87337 0.68934 0.26273 0.0
H736 H 0.90268 0.80758 0.21263 0.0
C737 C 0.89524 0.77964 0.86196 0.0
C738 C 0.88756 0.75021 0.80383 0.0
C739 C 0.8785 0.71337 0.83535 0.0
C740 C 0.87713 0.70521 0.92387 0.0
C741 C 0.88476 0.73473 0.97996 0.0
C742 C 0.89356 0.77149 0.95078 0.0
C743 C 0.90003 0.7991 0.02591 0.0
C744 C 0.91497 0.80012 0.0241 0.0
C745 C 0.89623 0.84833 0.0265 0.0
C746 C 0.89386 0.77093 0.10145 0.0
C747 C 0.88496 0.73438 0.07295 0.0
C748 C 0.87755 0.70446 0.12966 0.0
C749 C 0.87917 0.71225 0.21809 0.0
C750 C 0.88825 0.74919 0.24895 0.0
C751 C 0.8958 0.77872 0.19012 0.0
H752 H 0.65395 0.81878 0.36257 0.0
H753 H 0.63448 0.68083 0.30811 0.0
H754 H 0.63242 0.66448 0.46432 0.0
H755 H 0.67242 0.78878 0.54678 0.0
H756 H 0.67048 0.84019 0.60695 0.0
H757 H 0.67033 0.84154 0.49096 0.0
H758 H 0.64768 0.87072 0.49268 0.0
H759 H 0.64782 0.86982 0.60871 0.0
H760 H 0.63432 0.83823 0.55075 0.0
H761 H 0.63237 0.66283 0.62476 0.0
H762 H 0.63413 0.67633 0.78197 0.0
H763 H 0.65391 0.8149 0.73581 0.0
C764 C 0.64932 0.78519 0.3841 0.0
C765 C 0.64448 0.7507 0.32412 0.0
C766 C 0.63834 0.7073 0.35366 0.0
C767 C 0.63711 0.69782 0.44203 0.0
C768 C 0.64205 0.73224 0.49997 0.0
C769 C 0.64799 0.77514 0.47255 0.0
C770 C 0.65235 0.80594 0.54892 0.0
C771 C 0.66728 0.81992 0.54837 0.0
C772 C 0.64511 0.84871 0.55031 0.0
C773 C 0.64804 0.77347 0.62328 0.0
C774 C 0.64206 0.73123 0.59327 0.0
C775 C 0.63702 0.69575 0.64908 0.0
C776 C 0.63802 0.70367 0.738 0.0
C777 C 0.64405 0.74655 0.7701 0.0
C778 C 0.64923 0.78182 0.71226 0.0
H779 H 0.40053 0.71025 0.73908 0.0
H780 H 0.37685 0.82063 0.78079 0.0
H781 H 0.37529 0.83196 0.625 0.0
H782 H 0.41851 0.75962 0.55313 0.0
H783 H 0.41787 0.70577 0.49553 0.0
H784 H 0.41753 0.70578 0.61157 0.0
H785 H 0.39588 0.64921 0.6099 0.0
H786 H 0.3962 0.64884 0.49384 0.0
H787 H 0.38208 0.66418 0.5497 0.0
H788 H 0.37587 0.83251 0.4694 0.0
H789 H 0.37795 0.82068 0.31436 0.0
H790 H 0.4011 0.70933 0.36285 0.0
C791 C 0.39516 0.73705 0.71498 0.0
C792 C 0.38888 0.76478 0.77218 0.0
C793 C 0.38172 0.7989 0.73844 0.0
C794 C 0.38079 0.80575 0.64991 0.0
C795 C 0.38698 0.77797 0.59526 0.0
C796 C 0.39395 0.74402 0.62562 0.0
C797 C 0.39913 0.7181 0.55076 0.0
C798 C 0.41416 0.72261 0.55288 0.0
C799 C 0.39296 0.66706 0.55109 0.0
C800 C 0.39429 0.74393 0.47429 0.0
C801 C 0.38722 0.778 0.50255 0.0
C802 C 0.38137 0.80599 0.44615 0.0
C803 C 0.3826 0.79886 0.35802 0.0
C804 C 0.38967 0.76408 0.32631 0.0
C805 C 0.39575 0.73648 0.38529 0.0
H806 H 0.63261 0.21263 0.30879 0.0
H807 H 0.66508 0.32061 0.26129 0.0
H808 H 0.66747 0.33456 0.41746 0.0
H809 H 0.6183 0.26298 0.49049 0.0
H810 H 0.61489 0.2097 0.55046 0.0
H811 H 0.61538 0.20846 0.43452 0.0
H812 H 0.63286 0.15264 0.44011 0.0
H813 H 0.63239 0.15348 0.55612 0.0
H814 H 0.64772 0.16872 0.50051 0.0
H815 H 0.6668 0.33667 0.57528 0.0
H816 H 0.66352 0.32547 0.73161 0.0
H817 H 0.63159 0.21562 0.68335 0.0
C818 C 0.64011 0.23939 0.33185 0.0
C819 C 0.6486 0.26601 0.27369 0.0
C820 C 0.65851 0.30004 0.30533 0.0
C821 C 0.65992 0.30823 0.3937 0.0
C822 C 0.65148 0.28149 0.44973 0.0
C823 C 0.64186 0.24736 0.42068 0.0
C824 C 0.63464 0.22215 0.49607 0.0
C825 C 0.61993 0.22609 0.49267 0.0
C826 C 0.63704 0.17123 0.49832 0.0
C827 C 0.64134 0.24895 0.57152 0.0
C828 C 0.65113 0.28255 0.54263 0.0
C829 C 0.65914 0.31067 0.59891 0.0
C830 C 0.65721 0.3041 0.6874 0.0
C831 C 0.64725 0.2702 0.71896 0.0
C832 C 0.63911 0.24241 0.66043 0.0
H833 H 0.37734 0.2051 0.29894 0.0
H834 H 0.40406 0.33062 0.25265 0.0
H835 H 0.40711 0.34156 0.40967 0.0
H836 H 0.36169 0.24358 0.49042 0.0
H837 H 0.36079 0.18878 0.54549 0.0
H838 H 0.36053 0.19062 0.42953 0.0
H839 H 0.38038 0.14497 0.4247 0.0
H840 H 0.38074 0.14322 0.54071 0.0
H841 H 0.39517 0.16685 0.48172 0.0
H842 H 0.40822 0.33734 0.56891 0.0
H843 H 0.40611 0.32165 0.72485 0.0
H844 H 0.37778 0.20081 0.67383 0.0
C845 C 0.38367 0.23513 0.32246 0.0
C846 C 0.39038 0.26754 0.26436 0.0
C847 C 0.39879 0.30588 0.29658 0.0
C848 C 0.4006 0.3122 0.38546 0.0
C849 C 0.39395 0.27971 0.4414 0.0
C850 C 0.38559 0.242 0.41164 0.0
C851 C 0.37983 0.21214 0.4866 0.0
C852 C 0.36482 0.2086 0.48807 0.0
C853 C 0.3843 0.16394 0.4832 0.0
C854 C 0.38597 0.23977 0.56285 0.0
C855 C 0.39429 0.27804 0.53468 0.0
C856 C 0.40164 0.3078 0.59183 0.0
C857 C 0.40039 0.29856 0.68021 0.0
C858 C 0.39168 0.26047 0.71116 0.0
C859 C 0.38434 0.23064 0.65171 0.0
H860 H 0.04569 0.25268 0.57125 0.0
H861 H 0.05454 0.26735 0.29839 0.0
H862 H 0.03107 0.2685 0.2675 0.0
H863 H 1.01521 0.17618 0.54638 0.0
H864 H 1.00732 0.20135 0.63469 0.0
H865 H 0.02482 0.20188 0.63527 0.0
H866 H 0.02803 0.29095 0.65365 0.0
H867 H 1.01054 0.29067 0.65289 0.0
H868 H 0.02065 0.32618 0.57708 0.0
H869 H 1.00652 0.26673 0.26592 0.0
H870 H 0.98289 0.26558 0.29458 0.0
H871 H 0.99005 0.25089 0.56812 0.0
C872 C 0.04272 0.25563 0.50479 0.0
C873 C 0.05204 0.25978 0.43719 0.0
C874 C 0.04767 0.26458 0.35144 0.0
C875 C 0.03433 0.26495 0.33316 0.0
C876 C 0.02543 0.26048 0.40124 0.0
C877 C 0.02945 0.25601 0.48539 0.0
C878 C 0.01792 0.25208 0.54688 0.0
C879 C 1.01622 0.20508 0.59354 0.0
C880 C 0.01938 0.29238 0.61141 0.0
C881 C 1.00681 0.25547 0.48417 0.0
C882 C 1.01133 0.25995 0.40044 0.0
C883 C 1.00287 0.26327 0.33125 0.0
C884 C 0.98945 0.26234 0.3481 0.0
C885 C 0.9846 0.25838 0.43352 0.0
C886 C 0.99346 0.25467 0.50218 0.0
H887 H 0.98999 0.80212 0.65161 0.0
H888 H 0.97877 0.67251 0.51626 0.0
H889 H 1.00178 0.66006 0.50937 0.0
H890 H 0.01908 0.83836 0.53231 0.0
H891 H 0.02867 0.86211 0.6229 0.0
H892 H 1.01113 0.8605 0.62371 0.0
H893 H 1.0098 0.8152 0.76761 0.0
H894 H 0.02735 0.81676 0.76741 0.0
H895 H 1.0169 0.76215 0.77506 0.0
H896 H 0.02532 0.66189 0.50936 0.0
H897 H 0.04928 0.67773 0.51768 0.0
H898 H 0.04641 0.80658 0.6515 0.0
C899 C 0.99241 0.77112 0.62079 0.0
C900 C 0.98253 0.7379 0.58556 0.0
C901 C 0.98609 0.69782 0.54567 0.0
C902 C 0.99915 0.69054 0.54083 0.0
C903 C 1.00861 0.7237 0.57585 0.0
C904 C 1.00552 0.76318 0.61533 0.0
C905 C 0.01783 0.79333 0.64613 0.0
C906 C 0.01926 0.84142 0.60367 0.0
C907 C 0.01798 0.79707 0.74492 0.0
C908 C 0.02825 0.76517 0.61463 0.0
C909 C 0.02258 0.72492 0.57544 0.0
C910 C 0.02994 0.69304 0.54051 0.0
C911 C 0.04353 0.70229 0.5459 0.0
C912 C 0.04968 0.74306 0.58609 0.0
C913 C 0.04194 0.77516 0.62044 0.0
H914 H 0.54777 0.81283 1.00315 0.0
H915 H 0.5496 0.66972 0.93151 0.0
H916 H 0.52565 0.65582 0.9238 0.0
H917 H 0.51921 0.79652 0.12913 0.0
H918 H 0.51233 0.846 0.08884 0.0
H919 H 0.52981 0.84618 0.08883 0.0
H920 H 0.53059 0.86301 0.92503 0.0
H921 H 0.5131 0.86335 0.92468 0.0
H922 H 0.52035 0.82536 0.85326 0.0
H923 H 0.50176 0.65472 0.93406 0.0
H924 H 0.47891 0.66842 0.94728 0.0
H925 H 0.49185 0.81428 0.99499 0.0
C926 C 0.54321 0.77873 0.98428 0.0
C927 C 0.55076 0.74212 0.97003 0.0
C928 C 0.5442 0.69808 0.94602 0.0
C929 C 0.53053 0.68983 0.94046 0.0
C930 C 0.52346 0.72618 0.95669 0.0
C931 C 0.52951 0.77004 0.97628 0.0
C932 C 0.51942 0.80306 0.98838 0.0
C933 C 0.52025 0.82416 0.07922 0.0
C934 C 0.52096 0.84094 0.91869 0.0
C935 C 0.5068 0.77023 0.97586 0.0
C936 C 0.50944 0.72617 0.95743 0.0
C937 C 0.49953 0.68931 0.94639 0.0
C938 C 0.48653 0.69764 0.9533 0.0
C939 C 0.48342 0.74271 0.97003 0.0
C940 C 0.4938 0.77944 0.98181 0.0
H941 H 0.49004 0.26609 0.14978 0.0
H942 H 0.48096 0.22513 0.88591 0.0
H943 H 0.50434 0.22079 0.85835 0.0
H944 H 0.52045 0.33905 0.10176 0.0
H945 H 0.52892 0.32322 0.19665 0.0
H946 H 0.51137 0.32153 0.19829 0.0
H947 H 0.50876 0.23563 0.2458 0.0
H948 H 0.5263 0.23722 0.24466 0.0
H949 H 0.51612 0.19445 0.18212 0.0
H950 H 0.52806 0.22074 0.85733 0.0
H951 H 0.5518 0.22614 0.8817 0.0
H952 H 0.54668 0.26999 0.14501 0.0
C953 C 0.49307 0.25621 0.08649 0.0
C954 C 0.4838 0.24612 1.01949 0.0
C955 C 0.48799 0.23329 0.93745 0.0
C956 C 0.50121 0.23062 0.92137 0.0
C957 C 0.51015 0.24125 0.98792 0.0
C958 C 0.50636 0.25393 0.06886 0.0
C959 C 0.51822 0.26449 0.12765 0.0
C960 C 0.51983 0.31509 0.15785 0.0
C961 C 0.51729 0.23094 0.20461 0.0
C962 C 0.52919 0.2559 0.06665 0.0
C963 C 0.52418 0.24219 0.98676 0.0
C964 C 0.53213 0.23146 0.9195 0.0
C965 C 0.54559 0.23451 0.93404 0.0
C966 C 0.55105 0.2483 1.01514 0.0
C967 C 0.54275 0.25963 0.08224 0.0
loop_
_geom_bond_atom_site_label_1
_geom_bond_atom_site_label_2
_geom_bond_distance
_geom_bond_site_symmetry_2
_ccdc_geom_bond_type
C0 Eu1 2.835 . S
C0 C2 1.500 . S
C0 O20 1.257 . S
C0 O21 1.260 . S
Eu1 C0 2.835 . S
Eu1 O20 2.473 . S
Eu1 O21 2.480 . S
Eu1 O22 2.430 . S
Eu1 O23 2.670 . S
Eu1 O24 2.394 . S
Eu1 O29 2.355 . S
Eu1 O31 2.374 . S
C2 C0 1.500 . S
C2 C3 1.377 . S
C2 C7 1.377 . S
C3 C2 1.377 . S
C3 C4 1.395 . S
C3 H32 0.931 . S
C4 C3 1.395 . S
C4 C5 1.383 . S
C4 H33 0.931 . S
C5 C4 1.383 . S
C5 C6 1.394 . S
C6 C5 1.394 . S
C6 C7 1.378 . S
C6 H34 0.931 . S
C7 C2 1.377 . S
C7 C6 1.378 . S
C7 H35 0.931 . S
C8 O22 1.259 . S
C8 O23 1.270 . S
C9 O24 1.251 . S
C9 O25 1.251 . S
C10 Eu11 2.835 . S
C10 C12 1.500 . S
C10 O26 1.257 . S
C10 O27 1.260 . S
Eu11 C10 2.835 . S
Eu11 O23 2.355 . S
Eu11 O25 2.374 . S
Eu11 O26 2.473 . S
Eu11 O27 2.480 . S
Eu11 O28 2.430 . S
Eu11 O29 2.670 . S
Eu11 O30 2.394 . S
C12 C10 1.500 . S
C12 C13 1.377 . S
C12 C17 1.377 . S
C13 C12 1.377 . S
C13 C14 1.395 . S
C13 H36 0.931 . S
C14 C13 1.395 . S
C14 C15 1.383 . S
C14 H37 0.931 . S
C15 C14 1.383 . S
C15 C16 1.394 . S
C16 C15 1.394 . S
C16 C17 1.378 . S
C16 H38 0.931 . S
C17 C12 1.377 . S
C17 C16 1.378 . S
C17 H39 0.931 . S
C18 O28 1.259 . S
C18 O29 1.270 . S
C19 O30 1.251 . S
C19 O31 1.251 . S
O20 C0 1.257 . S
O20 Eu1 2.473 . S
O21 C0 1.260 . S
O21 Eu1 2.480 . S
O22 Eu1 2.430 . S
O22 C8 1.259 . S
O23 Eu1 2.670 . S
O23 C8 1.270 . S
O23 Eu11 2.355 . S
O24 Eu1 2.394 . S
O24 C9 1.251 . S
O25 C9 1.251 . S
O25 Eu11 2.374 . S
O26 C10 1.257 . S
O26 Eu11 2.473 . S
O27 C10 1.260 . S
O27 Eu11 2.480 . S
O28 Eu11 2.430 . S
O28 C18 1.259 . S
O29 Eu1 2.355 . S
O29 Eu11 2.670 . S
O29 C18 1.270 . S
O30 Eu11 2.394 . S
O30 C19 1.251 . S
O31 Eu1 2.374 . S
O31 C19 1.251 . S
H32 C3 0.931 . S
H33 C4 0.931 . S
H34 C6 0.931 . S
H35 C7 0.931 . S
H36 C13 0.931 . S
H37 C14 0.931 . S
H38 C16 0.931 . S
H39 C17 0.931 . S
C40 Eu41 2.835 . S
C40 C42 1.500 . S
C40 O60 1.257 . S
C40 O61 1.260 . S
Eu41 C40 2.835 . S
Eu41 O60 2.473 . S
Eu41 O61 2.480 . S
Eu41 O62 2.430 . S
Eu41 O63 2.670 . S
Eu41 O64 2.394 . S
Eu41 O69 2.355 . S
Eu41 O71 2.374 . S
C42 C40 1.500 . S
C42 C43 1.377 . S
C42 C47 1.377 . S
C43 C42 1.377 . S
C43 C44 1.395 . S
C43 H72 0.931 . S
C44 C43 1.395 . S
C44 C45 1.383 . S
C44 H73 0.931 . S
C45 C44 1.383 . S
C45 C46 1.394 . S
C46 C45 1.394 . S
C46 C47 1.378 . S
C46 H74 0.931 . S
C47 C42 1.377 . S
C47 C46 1.378 . S
C47 H75 0.931 . S
C48 O62 1.259 . S
C48 O63 1.270 . S
C49 O64 1.251 . S
C49 O65 1.251 . S
C50 Eu51 2.835 . S
C50 C52 1.500 . S
C50 O66 1.257 . S
C50 O67 1.260 . S
Eu51 C50 2.835 . S
Eu51 O63 2.355 . S
Eu51 O65 2.374 . S
Eu51 O66 2.473 . S
Eu51 O67 2.480 . S
Eu51 O68 2.430 . S
Eu51 O69 2.670 . S
Eu51 O70 2.394 . S
C52 C50 1.500 . S
C52 C53 1.377 . S
C52 C57 1.377 . S
C53 C52 1.377 . S
C53 C54 1.395 . S
C53 H76 0.931 . S
C54 C53 1.395 . S
C54 C55 1.383 . S
C54 H77 0.931 . S
C55 C54 1.383 . S
C55 C56 1.394 . S
C56 C55 1.394 . S
C56 C57 1.378 . S
C56 H78 0.931 . S
C57 C52 1.377 . S
C57 C56 1.378 . S
C57 H79 0.931 . S
C58 O68 1.259 . S
C58 O69 1.270 . S
C59 O70 1.251 . S
C59 O71 1.251 . S
O60 C40 1.257 . S
O60 Eu41 2.473 . S
O61 C40 1.260 . S
O61 Eu41 2.480 . S
O62 Eu41 2.430 . S
O62 C48 1.259 . S
O63 Eu41 2.670 . S
O63 C48 1.270 . S
O63 Eu51 2.355 . S
O64 Eu41 2.394 . S
O64 C49 1.251 . S
O65 C49 1.251 . S
O65 Eu51 2.374 . S
O66 C50 1.257 . S
O66 Eu51 2.473 . S
O67 C50 1.260 . S
O67 Eu51 2.480 . S
O68 Eu51 2.430 . S
O68 C58 1.259 . S
O69 Eu41 2.355 . S
O69 Eu51 2.670 . S
O69 C58 1.270 . S
O70 Eu51 2.394 . S
O70 C59 1.251 . S
O71 Eu41 2.374 . S
O71 C59 1.251 . S
H72 C43 0.931 . S
H73 C44 0.931 . S
H74 C46 0.931 . S
H75 C47 0.931 . S
H76 C53 0.931 . S
H77 C54 0.931 . S
H78 C56 0.931 . S
H79 C57 0.931 . S
C80 Eu81 2.835 . S
C80 C82 1.500 . S
C80 O100 1.257 . S
C80 O101 1.260 . S
Eu81 C80 2.835 . S
Eu81 O100 2.473 . S
Eu81 O101 2.480 . S
Eu81 O102 2.430 . S
Eu81 O103 2.670 . S
Eu81 O104 2.394 . S
Eu81 O109 2.355 . S
Eu81 O111 2.374 . S
C82 C80 1.500 . S
C82 C83 1.377 . S
C82 C87 1.377 . S
C83 C82 1.377 . S
C83 C84 1.395 . S
C83 H112 0.931 . S
C84 C83 1.395 . S
C84 C85 1.383 . S
C84 H113 0.931 . S
C85 C84 1.383 . S
C85 C86 1.394 . S
C86 C85 1.394 . S
C86 C87 1.378 . S
C86 H114 0.931 . S
C87 C82 1.377 . S
C87 C86 1.378 . S
C87 H115 0.931 . S
C88 O102 1.259 . S
C88 O103 1.270 . S
C89 O104 1.251 . S
C89 O105 1.251 . S
C90 Eu91 2.835 . S
C90 C92 1.500 . S
C90 O106 1.257 . S
C90 O107 1.260 . S
Eu91 C90 2.835 . S
Eu91 O103 2.355 . S
Eu91 O105 2.374 . S
Eu91 O106 2.473 . S
Eu91 O107 2.480 . S
Eu91 O108 2.430 . S
Eu91 O109 2.670 . S
Eu91 O110 2.394 . S
C92 C90 1.500 . S
C92 C93 1.377 . S
C92 C97 1.377 . S
C93 C92 1.377 . S
C93 C94 1.395 . S
C93 H116 0.931 . S
C94 C93 1.395 . S
C94 C95 1.383 . S
C94 H117 0.931 . S
C95 C94 1.383 . S
C95 C96 1.394 . S
C96 C95 1.394 . S
C96 C97 1.378 . S
C96 H118 0.931 . S
C97 C92 1.377 . S
C97 C96 1.378 . S
C97 H119 0.931 . S
C98 O108 1.259 . S
C98 O109 1.270 . S
C99 O110 1.251 . S
C99 O111 1.251 . S
O100 C80 1.257 . S
O100 Eu81 2.473 . S
O101 C80 1.260 . S
O101 Eu81 2.480 . S
O102 Eu81 2.430 . S
O102 C88 1.259 . S
O103 Eu81 2.670 . S
O103 C88 1.270 . S
O103 Eu91 2.355 . S
O104 Eu81 2.394 . S
O104 C89 1.251 . S
O105 C89 1.251 . S
O105 Eu91 2.374 . S
O106 C90 1.257 . S
O106 Eu91 2.473 . S
O107 C90 1.260 . S
O107 Eu91 2.480 . S
O108 Eu91 2.430 . S
O108 C98 1.259 . S
O109 Eu81 2.355 . S
O109 Eu91 2.670 . S
O109 C98 1.270 . S
O110 Eu91 2.394 . S
O110 C99 1.251 . S
O111 Eu81 2.374 . S
O111 C99 1.251 . S
H112 C83 0.931 . S
H113 C84 0.931 . S
H114 C86 0.931 . S
H115 C87 0.931 . S
H116 C93 0.931 . S
H117 C94 0.931 . S
H118 C96 0.931 . S
H119 C97 0.931 . S
C120 Eu121 2.835 . S
C120 C122 1.500 . S
C120 O140 1.257 . S
C120 O141 1.260 . S
Eu121 C120 2.835 . S
Eu121 O140 2.473 . S
Eu121 O141 2.480 . S
Eu121 O142 2.430 . S
Eu121 O143 2.670 . S
Eu121 O144 2.394 . S
Eu121 O149 2.355 . S
Eu121 O151 2.374 . S
C122 C120 1.500 . S
C122 C123 1.377 . S
C122 C127 1.377 . S
C123 C122 1.377 . S
C123 C124 1.395 . S
C123 H152 0.931 . S
C124 C123 1.395 . S
C124 C125 1.383 . S
C124 H153 0.931 . S
C125 C124 1.383 . S
C125 C126 1.394 . S
C126 C125 1.394 . S
C126 C127 1.378 . S
C126 H154 0.931 . S
C127 C122 1.377 . S
C127 C126 1.378 . S
C127 H155 0.931 . S
C128 O142 1.259 . S
C128 O143 1.270 . S
C129 O144 1.251 . S
C129 O145 1.251 . S
C130 Eu131 2.835 . S
C130 C132 1.500 . S
C130 O146 1.257 . S
C130 O147 1.260 . S
Eu131 C130 2.835 . S
Eu131 O143 2.355 . S
Eu131 O145 2.374 . S
Eu131 O146 2.473 . S
Eu131 O147 2.480 . S
Eu131 O148 2.430 . S
Eu131 O149 2.670 . S
Eu131 O150 2.394 . S
C132 C130 1.500 . S
C132 C133 1.377 . S
C132 C137 1.377 . S
C133 C132 1.377 . S
C133 C134 1.395 . S
C133 H156 0.931 . S
C134 C133 1.395 . S
C134 C135 1.383 . S
C134 H157 0.931 . S
C135 C134 1.383 . S
C135 C136 1.394 . S
C136 C135 1.394 . S
C136 C137 1.378 . S
C136 H158 0.931 . S
C137 C132 1.377 . S
C137 C136 1.378 . S
C137 H159 0.931 . S
C138 O148 1.259 . S
C138 O149 1.270 . S
C139 O150 1.251 . S
C139 O151 1.251 . S
O140 C120 1.257 . S
O140 Eu121 2.473 . S
O141 C120 1.260 . S
O141 Eu121 2.480 . S
O142 Eu121 2.430 . S
O142 C128 1.259 . S
O143 Eu121 2.670 . S
O143 C128 1.270 . S
O143 Eu131 2.355 . S
O144 Eu121 2.394 . S
O144 C129 1.251 . S
O145 C129 1.251 . S
O145 Eu131 2.374 . S
O146 C130 1.257 . S
O146 Eu131 2.473 . S
O147 C130 1.260 . S
O147 Eu131 2.480 . S
O148 Eu131 2.430 . S
O148 C138 1.259 . S
O149 Eu121 2.355 . S
O149 Eu131 2.670 . S
O149 C138 1.270 . S
O150 Eu131 2.394 . S
O150 C139 1.251 . S
O151 Eu121 2.374 . S
O151 C139 1.251 . S
H152 C123 0.931 . S
H153 C124 0.931 . S
H154 C126 0.931 . S
H155 C127 0.931 . S
H156 C133 0.931 . S
H157 C134 0.931 . S
H158 C136 0.931 . S
H159 C137 0.931 . S
C160 Eu161 2.835 1_554 S
C160 C162 1.500 . S
C160 O180 1.257 . S
C160 O181 1.260 . S
Eu161 C160 2.835 1_556 S
Eu161 O180 2.473 1_556 S
Eu161 O181 2.480 1_556 S
Eu161 O182 2.430 . S
Eu161 O183 2.670 . S
Eu161 O184 2.394 1_556 S
Eu161 O189 2.355 1_556 S
Eu161 O191 2.374 . S
C162 C160 1.500 . S
C162 C163 1.377 . S
C162 C167 1.377 . S
C163 C162 1.377 . S
C163 C164 1.395 . S
C163 H192 0.931 . S
C164 C163 1.395 . S
C164 C165 1.383 . S
C164 H193 0.931 . S
C165 C164 1.383 . S
C165 C166 1.394 . S
C166 C165 1.394 . S
C166 C167 1.378 . S
C166 H194 0.931 . S
C167 C162 1.377 . S
C167 C166 1.378 . S
C167 H195 0.931 . S
C168 O182 1.259 . S
C168 O183 1.270 . S
C169 O184 1.251 . S
C169 O185 1.251 . S
C170 Eu171 2.835 1_556 S
C170 C172 1.500 . S
C170 O186 1.257 . S
C170 O187 1.260 . S
Eu171 C170 2.835 1_554 S
Eu171 O183 2.355 1_554 S
Eu171 O185 2.374 . S
Eu171 O186 2.473 1_554 S
Eu171 O187 2.480 1_554 S
Eu171 O188 2.430 . S
Eu171 O189 2.670 . S
Eu171 O190 2.394 1_554 S
C172 C170 1.500 . S
C172 C173 1.377 . S
C172 C177 1.377 . S
C173 C172 1.377 . S
C173 C174 1.395 . S
C173 H196 0.931 . S
C174 C173 1.395 . S
C174 C175 1.383 . S
C174 H197 0.931 . S
C175 C174 1.383 . S
C175 C176 1.394 . S
C176 C175 1.394 . S
C176 C177 1.378 . S
C176 H198 0.931 . S
C177 C172 1.377 . S
C177 C176 1.378 . S
C177 H199 0.931 . S
C178 O188 1.259 . S
C178 O189 1.270 . S
C179 O190 1.251 . S
C179 O191 1.251 . S
O180 C160 1.257 . S
O180 Eu161 2.473 1_554 S
O181 C160 1.260 . S
O181 Eu161 2.480 1_554 S
O182 Eu161 2.430 . S
O182 C168 1.259 . S
O183 Eu161 2.670 . S
O183 C168 1.270 . S
O183 Eu171 2.355 1_556 S
O184 Eu161 2.394 1_554 S
O184 C169 1.251 . S
O185 C169 1.251 . S
O185 Eu171 2.374 . S
O186 C170 1.257 . S
O186 Eu171 2.473 1_556 S
O187 C170 1.260 . S
O187 Eu171 2.480 1_556 S
O188 Eu171 2.430 . S
O188 C178 1.259 . S
O189 Eu161 2.355 1_554 S
O189 Eu171 2.670 . S
O189 C178 1.270 . S
O190 Eu171 2.394 1_556 S
O190 C179 1.251 . S
O191 Eu161 2.374 . S
O191 C179 1.251 . S
H192 C163 0.931 . S
H193 C164 0.931 . S
H194 C166 0.931 . S
H195 C167 0.931 . S
H196 C173 0.931 . S
H197 C174 0.931 . S
H198 C176 0.931 . S
H199 C177 0.931 . S
C200 Eu201 2.835 1_554 S
C200 C202 1.500 . S
C200 O220 1.257 . S
C200 O221 1.260 . S
Eu201 C200 2.835 1_556 S
Eu201 O220 2.473 1_556 S
Eu201 O221 2.480 1_556 S
Eu201 O222 2.430 . S
Eu201 O223 2.670 . S
Eu201 O224 2.394 1_556 S
Eu201 O229 2.355 1_556 S
Eu201 O231 2.374 . S
C202 C200 1.500 . S
C202 C203 1.377 . S
C202 C207 1.377 . S
C203 C202 1.377 . S
C203 C204 1.395 . S
C203 H232 0.931 . S
C204 C203 1.395 . S
C204 C205 1.383 . S
C204 H233 0.931 . S
C205 C204 1.383 . S
C205 C206 1.394 . S
C206 C205 1.394 . S
C206 C207 1.378 . S
C206 H234 0.931 . S
C207 C202 1.377 . S
C207 C206 1.378 . S
C207 H235 0.931 . S
C208 O222 1.259 . S
C208 O223 1.270 . S
C209 O224 1.251 . S
C209 O225 1.251 . S
C210 Eu211 2.835 1_556 S
C210 C212 1.500 . S
C210 O226 1.257 . S
C210 O227 1.260 . S
Eu211 C210 2.835 1_554 S
Eu211 O223 2.355 1_554 S
Eu211 O225 2.374 . S
Eu211 O226 2.473 1_554 S
Eu211 O227 2.480 1_554 S
Eu211 O228 2.430 . S
Eu211 O229 2.670 . S
Eu211 O230 2.394 1_554 S
C212 C210 1.500 . S
C212 C213 1.377 . S
C212 C217 1.377 . S
C213 C212 1.377 . S
C213 C214 1.395 . S
C213 H236 0.931 . S
C214 C213 1.395 . S
C214 C215 1.383 . S
C214 H237 0.931 . S
C215 C214 1.383 . S
C215 C216 1.394 . S
C216 C215 1.394 . S
C216 C217 1.378 . S
C216 H238 0.931 . S
C217 C212 1.377 . S
C217 C216 1.378 . S
C217 H239 0.931 . S
C218 O228 1.259 . S
C218 O229 1.270 . S
C219 O230 1.251 . S
C219 O231 1.251 . S
O220 C200 1.257 . S
O220 Eu201 2.473 1_554 S
O221 C200 1.260 . S
O221 Eu201 2.480 1_554 S
O222 Eu201 2.430 . S
O222 C208 1.259 . S
O223 Eu201 2.670 . S
O223 C208 1.270 . S
O223 Eu211 2.355 1_556 S
O224 Eu201 2.394 1_554 S
O224 C209 1.251 . S
O225 C209 1.251 . S
O225 Eu211 2.374 . S
O226 C210 1.257 . S
O226 Eu211 2.473 1_556 S
O227 C210 1.260 . S
O227 Eu211 2.480 1_556 S
O228 Eu211 2.430 . S
O228 C218 1.259 . S
O229 Eu201 2.355 1_554 S
O229 Eu211 2.670 . S
O229 C218 1.270 . S
O230 Eu211 2.394 1_556 S
O230 C219 1.251 . S
O231 Eu201 2.374 . S
O231 C219 1.251 . S
H232 C203 0.931 . S
H233 C204 0.931 . S
H234 C206 0.931 . S
H235 C207 0.931 . S
H236 C213 0.931 . S
H237 C214 0.931 . S
H238 C216 0.931 . S
H239 C217 0.931 . S
C240 Eu241 2.835 1_554 S
C240 C242 1.500 . S
C240 O260 1.257 . S
C240 O261 1.260 . S
Eu241 C240 2.835 1_556 S
Eu241 O260 2.473 1_556 S
Eu241 O261 2.480 1_556 S
Eu241 O262 2.430 . S
Eu241 O263 2.670 . S
Eu241 O264 2.394 1_556 S
Eu241 O269 2.355 1_556 S
Eu241 O271 2.374 . S
C242 C240 1.500 . S
C242 C243 1.377 . S
C242 C247 1.377 . S
C243 C242 1.377 . S
C243 C244 1.395 . S
C243 H272 0.931 . S
C244 C243 1.395 . S
C244 C245 1.383 . S
C244 H273 0.931 . S
C245 C244 1.383 . S
C245 C246 1.394 . S
C246 C245 1.394 . S
C246 C247 1.378 . S
C246 H274 0.931 . S
C247 C242 1.377 . S
C247 C246 1.378 . S
C247 H275 0.931 . S
C248 O262 1.259 . S
C248 O263 1.270 . S
C249 O264 1.251 . S
C249 O265 1.251 . S
C250 Eu251 2.835 1_556 S
C250 C252 1.500 . S
C250 O266 1.257 . S
C250 O267 1.260 . S
Eu251 C250 2.835 1_554 S
Eu251 O263 2.355 1_554 S
Eu251 O265 2.374 . S
Eu251 O266 2.473 1_554 S
Eu251 O267 2.480 1_554 S
Eu251 O268 2.430 . S
Eu251 O269 2.670 . S
Eu251 O270 2.394 1_554 S
C252 C250 1.500 . S
C252 C253 1.377 . S
C252 C257 1.377 . S
C253 C252 1.377 . S
C253 C254 1.395 . S
C253 H276 0.931 . S
C254 C253 1.395 . S
C254 C255 1.383 . S
C254 H277 0.931 . S
C255 C254 1.383 . S
C255 C256 1.394 . S
C256 C255 1.394 . S
C256 C257 1.378 . S
C256 H278 0.931 . S
C257 C252 1.377 . S
C257 C256 1.378 . S
C257 H279 0.931 . S
C258 O268 1.259 . S
C258 O269 1.270 . S
C259 O270 1.251 . S
C259 O271 1.251 . S
O260 C240 1.257 . S
O260 Eu241 2.473 1_554 S
O261 C240 1.260 . S
O261 Eu241 2.480 1_554 S
O262 Eu241 2.430 . S
O262 C248 1.259 . S
O263 Eu241 2.670 . S
O263 C248 1.270 . S
O263 Eu251 2.355 1_556 S
O264 Eu241 2.394 1_554 S
O264 C249 1.251 . S
O265 C249 1.251 . S
O265 Eu251 2.374 . S
O266 C250 1.257 . S
O266 Eu251 2.473 1_556 S
O267 C250 1.260 . S
O267 Eu251 2.480 1_556 S
O268 Eu251 2.430 . S
O268 C258 1.259 . S
O269 Eu241 2.355 1_554 S
O269 Eu251 2.670 . S
O269 C258 1.270 . S
O270 Eu251 2.394 1_556 S
O270 C259 1.251 . S
O271 Eu241 2.374 . S
O271 C259 1.251 . S
H272 C243 0.931 . S
H273 C244 0.931 . S
H274 C246 0.931 . S
H275 C247 0.931 . S
H276 C253 0.931 . S
H277 C254 0.931 . S
H278 C256 0.931 . S
H279 C257 0.931 . S
C280 Eu281 2.835 1_554 S
C280 C282 1.500 . S
C280 O300 1.257 . S
C280 O301 1.260 . S
Eu281 C280 2.835 1_556 S
Eu281 O300 2.473 1_556 S
Eu281 O301 2.480 1_556 S
Eu281 O302 2.430 . S
Eu281 O303 2.670 . S
Eu281 O304 2.394 1_556 S
Eu281 O309 2.355 1_556 S
Eu281 O311 2.374 . S
C282 C280 1.500 . S
C282 C283 1.377 . S
C282 C287 1.377 . S
C283 C282 1.377 . S
C283 C284 1.395 . S
C283 H312 0.931 . S
C284 C283 1.395 . S
C284 C285 1.383 . S
C284 H313 0.931 . S
C285 C284 1.383 . S
C285 C286 1.394 . S
C286 C285 1.394 . S
C286 C287 1.378 . S
C286 H314 0.931 . S
C287 C282 1.377 . S
C287 C286 1.378 . S
C287 H315 0.931 . S
C288 O302 1.259 . S
C288 O303 1.270 . S
C289 O304 1.251 . S
C289 O305 1.251 . S
C290 Eu291 2.835 1_556 S
C290 C292 1.500 . S
C290 O306 1.257 . S
C290 O307 1.260 . S
Eu291 C290 2.835 1_554 S
Eu291 O303 2.355 1_554 S
Eu291 O305 2.374 . S
Eu291 O306 2.473 1_554 S
Eu291 O307 2.480 1_554 S
Eu291 O308 2.430 . S
Eu291 O309 2.670 . S
Eu291 O310 2.394 1_554 S
C292 C290 1.500 . S
C292 C293 1.377 . S
C292 C297 1.377 . S
C293 C292 1.377 . S
C293 C294 1.395 . S
C293 H316 0.931 . S
C294 C293 1.395 . S
C294 C295 1.383 . S
C294 H317 0.931 . S
C295 C294 1.383 . S
C295 C296 1.394 . S
C296 C295 1.394 . S
C296 C297 1.378 . S
C296 H318 0.931 . S
C297 C292 1.377 . S
C297 C296 1.378 . S
C297 H319 0.931 . S
C298 O308 1.259 . S
C298 O309 1.270 . S
C299 O310 1.251 . S
C299 O311 1.251 . S
O300 C280 1.257 . S
O300 Eu281 2.473 1_554 S
O301 C280 1.260 . S
O301 Eu281 2.480 1_554 S
O302 Eu281 2.430 . S
O302 C288 1.259 . S
O303 Eu281 2.670 . S
O303 C288 1.270 . S
O303 Eu291 2.355 1_556 S
O304 Eu281 2.394 1_554 S
O304 C289 1.251 . S
O305 C289 1.251 . S
O305 Eu291 2.374 . S
O306 C290 1.257 . S
O306 Eu291 2.473 1_556 S
O307 C290 1.260 . S
O307 Eu291 2.480 1_556 S
O308 Eu291 2.430 . S
O308 C298 1.259 . S
O309 Eu281 2.355 1_554 S
O309 Eu291 2.670 . S
O309 C298 1.270 . S
O310 Eu291 2.394 1_556 S
O310 C299 1.251 . S
O311 Eu281 2.374 . S
O311 C299 1.251 . S
H312 C283 0.931 . S
H313 C284 0.931 . S
H314 C286 0.931 . S
H315 C287 0.931 . S
H316 C293 0.931 . S
H317 C294 0.931 . S
H318 C296 0.931 . S
H319 C297 0.931 . S
H320 C332 0.930 . S
H321 C334 0.930 . S
H322 C335 0.930 . S
H323 C339 0.959 . S
H324 C339 0.959 . S
H325 C339 0.961 . S
H326 C340 0.960 . S
H327 C340 0.961 . S
H328 C340 0.959 . S
H329 C343 0.929 . S
H330 C344 0.931 . S
H331 C346 0.930 . S
C332 H320 0.930 . S
C332 C333 1.399 . S
C332 C337 1.399 . S
C333 C332 1.399 . S
C333 C334 1.376 . S
C334 H321 0.930 . S
C334 C333 1.376 . S
C334 C335 1.388 . S
C335 H322 0.930 . S
C335 C334 1.388 . S
C335 C336 1.390 . S
C336 C335 1.390 . S
C336 C337 1.394 . S
C336 C342 1.465 . S
C337 C332 1.399 . S
C337 C336 1.394 . S
C337 C338 1.516 . S
C338 C337 1.516 . S
C338 C339 1.502 . S
C338 C340 1.561 . S
C338 C341 1.526 . S
C339 H323 0.959 . S
C339 H324 0.959 . S
C339 H325 0.961 . S
C339 C338 1.502 . S
C340 H326 0.960 . S
C340 H327 0.961 . S
C340 H328 0.959 . S
C340 C338 1.561 . S
C341 C338 1.526 . S
C341 C342 1.396 . S
C341 C346 1.390 . S
C342 C336 1.465 . S
C342 C341 1.396 . S
C342 C343 1.399 . S
C343 H329 0.929 . S
C343 C342 1.399 . S
C343 C344 1.385 . S
C344 H330 0.931 . S
C344 C343 1.385 . S
C344 C345 1.389 . S
C345 C344 1.389 . S
C345 C346 1.387 . S
C346 H331 0.930 . S
C346 C341 1.390 . S
C346 C345 1.387 . S
H347 C359 0.930 . S
H348 C361 0.930 . S
H349 C362 0.930 . S
H350 C366 0.959 . S
H351 C366 0.959 . S
H352 C366 0.961 . S
H353 C367 0.960 . S
H354 C367 0.961 . S
H355 C367 0.959 . S
H356 C370 0.929 . S
H357 C371 0.931 . S
H358 C373 0.930 . S
C359 H347 0.930 . S
C359 C360 1.399 . S
C359 C364 1.399 . S
C360 C359 1.399 . S
C360 C361 1.376 . S
C361 H348 0.930 . S
C361 C360 1.376 . S
C361 C362 1.388 . S
C362 H349 0.930 . S
C362 C361 1.388 . S
C362 C363 1.390 . S
C363 C362 1.390 . S
C363 C364 1.394 . S
C363 C369 1.465 . S
C364 C359 1.399 . S
C364 C363 1.394 . S
C364 C365 1.516 . S
C365 C364 1.516 . S
C365 C366 1.502 . S
C365 C367 1.561 . S
C365 C368 1.526 . S
C366 H350 0.959 . S
C366 H351 0.959 . S
C366 H352 0.961 . S
C366 C365 1.502 . S
C367 H353 0.960 . S
C367 H354 0.961 . S
C367 H355 0.959 . S
C367 C365 1.561 . S
C368 C365 1.526 . S
C368 C369 1.396 . S
C368 C373 1.390 . S
C369 C363 1.465 . S
C369 C368 1.396 . S
C369 C370 1.399 . S
C370 H356 0.929 . S
C370 C369 1.399 . S
C370 C371 1.385 . S
C371 H357 0.931 . S
C371 C370 1.385 . S
C371 C372 1.389 . S
C372 C371 1.389 . S
C372 C373 1.387 . S
C373 H358 0.930 . S
C373 C368 1.390 . S
C373 C372 1.387 . S
H374 C386 0.930 . S
H375 C388 0.930 . S
H376 C389 0.930 . S
H377 C393 0.959 . S
H378 C393 0.959 . S
H379 C393 0.961 . S
H380 C394 0.960 . S
H381 C394 0.961 . S
H382 C394 0.959 . S
H383 C397 0.929 . S
H384 C398 0.931 . S
H385 C400 0.930 . S
C386 H374 0.930 . S
C386 C387 1.399 . S
C386 C391 1.399 . S
C387 C386 1.399 . S
C387 C388 1.376 . S
C388 H375 0.930 . S
C388 C387 1.376 . S
C388 C389 1.388 . S
C389 H376 0.930 . S
C389 C388 1.388 . S
C389 C390 1.390 . S
C390 C389 1.390 . S
C390 C391 1.394 . S
C390 C396 1.465 . S
C391 C386 1.399 . S
C391 C390 1.394 . S
C391 C392 1.516 . S
C392 C391 1.516 . S
C392 C393 1.502 . S
C392 C394 1.561 . S
C392 C395 1.526 . S
C393 H377 0.959 . S
C393 H378 0.959 . S
C393 H379 0.961 . S
C393 C392 1.502 . S
C394 H380 0.960 . S
C394 H381 0.961 . S
C394 H382 0.959 . S
C394 C392 1.561 . S
C395 C392 1.526 . S
C395 C396 1.396 . S
C395 C400 1.390 . S
C396 C390 1.465 . S
C396 C395 1.396 . S
C396 C397 1.399 . S
C397 H383 0.929 . S
C397 C396 1.399 . S
C397 C398 1.385 . S
C398 H384 0.931 . S
C398 C397 1.385 . S
C398 C399 1.389 . S
C399 C398 1.389 . S
C399 C400 1.387 . S
C400 H385 0.930 . S
C400 C395 1.390 . S
C400 C399 1.387 . S
H401 C413 0.930 . S
H402 C415 0.930 . S
H403 C416 0.930 . S
H404 C420 0.959 . S
H405 C420 0.959 . S
H406 C420 0.961 . S
H407 C421 0.960 . S
H408 C421 0.961 . S
H409 C421 0.959 . S
H410 C424 0.929 . S
H411 C425 0.931 . S
H412 C427 0.930 . S
C413 H401 0.930 . S
C413 C414 1.399 . S
C413 C418 1.399 . S
C414 C413 1.399 . S
C414 C415 1.376 . S
C415 H402 0.930 . S
C415 C414 1.376 . S
C415 C416 1.388 . S
C416 H403 0.930 . S
C416 C415 1.388 . S
C416 C417 1.390 . S
C417 C416 1.390 . S
C417 C418 1.394 . S
C417 C423 1.465 . S
C418 C413 1.399 . S
C418 C417 1.394 . S
C418 C419 1.516 . S
C419 C418 1.516 . S
C419 C420 1.502 . S
C419 C421 1.561 . S
C419 C422 1.526 . S
C420 H404 0.959 . S
C420 H405 0.959 . S
C420 H406 0.961 . S
C420 C419 1.502 . S
C421 H407 0.960 . S
C421 H408 0.961 . S
C421 H409 0.959 . S
C421 C419 1.561 . S
C422 C419 1.526 . S
C422 C423 1.396 . S
C422 C427 1.390 . S
C423 C417 1.465 . S
C423 C422 1.396 . S
C423 C424 1.399 . S
C424 H410 0.929 . S
C424 C423 1.399 . S
C424 C425 1.385 . S
C425 H411 0.931 . S
C425 C424 1.385 . S
C425 C426 1.389 . S
C426 C425 1.389 . S
C426 C427 1.387 . S
C427 H412 0.930 . S
C427 C422 1.390 . S
C427 C426 1.387 . S
H428 C440 0.930 . S
H429 C442 0.930 . S
H430 C443 0.930 . S
H431 C447 0.959 1_545 S
H432 C447 0.959 1_545 S
H433 C447 0.961 . S
H434 C448 0.960 . S
H435 C448 0.963 . S
H436 C448 0.959 . S
H437 C451 0.929 . S
H438 C452 0.931 . S
H439 C454 0.930 . S
C440 H428 0.930 . S
C440 C441 1.399 . S
C440 C445 1.399 . S
C441 C440 1.399 . S
C441 C442 1.376 . S
C442 H429 0.930 . S
C442 C441 1.376 . S
C442 C443 1.388 . S
C443 H430 0.930 . S
C443 C442 1.388 . S
C443 C444 1.390 . S
C444 C443 1.390 . S
C444 C445 1.394 . S
C444 C450 1.465 1_565 S
C445 C440 1.399 . S
C445 C444 1.394 . S
C445 C446 1.516 . S
C446 C445 1.516 . S
C446 C447 1.502 . S
C446 C448 1.561 . S
C446 C449 1.526 1_565 S
C447 H431 0.959 1_565 S
C447 H432 0.959 1_565 S
C447 H433 0.961 . S
C447 C446 1.502 . S
C448 H434 0.960 . S
C448 H435 0.963 . S
C448 H436 0.959 . S
C448 C446 1.561 . S
C449 C446 1.526 1_545 S
C449 C450 1.396 . S
C449 C454 1.390 . S
C450 C444 1.465 1_545 S
C450 C449 1.396 . S
C450 C451 1.399 . S
C451 H437 0.929 . S
C451 C450 1.399 . S
C451 C452 1.385 . S
C452 H438 0.931 . S
C452 C451 1.385 . S
C452 C453 1.389 . S
C453 C452 1.389 . S
C453 C454 1.387 . S
C454 H439 0.930 . S
C454 C449 1.390 . S
C454 C453 1.387 . S
H455 C467 0.930 . S
H456 C469 0.930 . S
H457 C470 0.930 . S
H458 C474 0.959 . S
H459 C474 0.959 . S
H460 C474 0.961 . S
H461 C475 0.960 . S
H462 C475 0.961 . S
H463 C475 0.959 . S
H464 C478 0.929 . S
H465 C479 0.931 . S
H466 C481 0.930 . S
C467 H455 0.930 . S
C467 C468 1.399 . S
C467 C472 1.399 . S
C468 C467 1.399 . S
C468 C469 1.376 . S
C469 H456 0.930 . S
C469 C468 1.376 . S
C469 C470 1.388 . S
C470 H457 0.930 . S
C470 C469 1.388 . S
C470 C471 1.390 . S
C471 C470 1.390 . S
C471 C472 1.394 . S
C471 C477 1.465 . S
C472 C467 1.399 . S
C472 C471 1.394 . S
C472 C473 1.516 . S
C473 C472 1.516 . S
C473 C474 1.502 . S
C473 C475 1.561 . S
C473 C476 1.526 . S
C474 H458 0.959 . S
C474 H459 0.959 . S
C474 H460 0.961 . S
C474 C473 1.502 . S
C475 H461 0.960 . S
C475 H462 0.961 . S
C475 H463 0.959 . S
C475 C473 1.561 . S
C476 C473 1.526 . S
C476 C477 1.396 . S
C476 C481 1.390 . S
C477 C471 1.465 . S
C477 C476 1.396 . S
C477 C478 1.399 . S
C478 H464 0.929 . S
C478 C477 1.399 . S
C478 C479 1.385 . S
C479 H465 0.931 . S
C479 C478 1.385 . S
C479 C480 1.389 . S
C480 C479 1.389 . S
C480 C481 1.387 . S
C481 H466 0.930 . S
C481 C476 1.390 . S
C481 C480 1.387 . S
H482 C494 0.930 . S
H483 C496 0.930 . S
H484 C497 0.930 . S
H485 C501 0.959 . S
H486 C501 0.959 . S
H487 C501 0.961 1_565 S
H488 C502 0.960 . S
H489 C502 0.961 1_545 S
H490 C502 0.959 . S
H491 C505 0.929 . S
H492 C506 0.931 . S
H493 C508 0.930 . S
C494 H482 0.930 . S
C494 C495 1.399 . S
C494 C499 1.399 . S
C495 C494 1.399 . S
C495 C496 1.376 . S
C496 H483 0.930 . S
C496 C495 1.376 . S
C496 C497 1.388 . S
C497 H484 0.930 . S
C497 C496 1.388 . S
C497 C498 1.390 . S
C498 C497 1.390 . S
C498 C499 1.394 . S
C498 C504 1.465 1_565 S
C499 C494 1.399 . S
C499 C498 1.394 . S
C499 C500 1.516 . S
C500 C499 1.516 . S
C500 C501 1.502 1_565 S
C500 C502 1.561 . S
C500 C503 1.526 1_565 S
C501 H485 0.959 . S
C501 H486 0.959 . S
C501 H487 0.961 1_545 S
C501 C500 1.502 1_545 S
C502 H488 0.960 . S
C502 H489 0.961 1_565 S
C502 H490 0.959 . S
C502 C500 1.561 . S
C503 C500 1.526 1_545 S
C503 C504 1.396 . S
C503 C508 1.390 . S
C504 C498 1.465 1_545 S
C504 C503 1.396 . S
C504 C505 1.399 . S
C505 H491 0.929 . S
C505 C504 1.399 . S
C505 C506 1.385 . S
C506 H492 0.931 . S
C506 C505 1.385 . S
C506 C507 1.389 . S
C507 C506 1.389 . S
C507 C508 1.387 . S
C508 H493 0.930 . S
C508 C503 1.390 . S
C508 C507 1.387 . S
H509 C521 0.930 . S
H510 C523 0.930 . S
H511 C524 0.930 . S
H512 C528 0.959 . S
H513 C528 0.959 . S
H514 C528 0.961 . S
H515 C529 0.960 . S
H516 C529 0.961 . S
H517 C529 0.959 . S
H518 C532 0.929 . S
H519 C533 0.931 . S
H520 C535 0.930 . S
C521 H509 0.930 . S
C521 C522 1.399 . S
C521 C526 1.399 . S
C522 C521 1.399 . S
C522 C523 1.376 . S
C523 H510 0.930 . S
C523 C522 1.376 . S
C523 C524 1.388 . S
C524 H511 0.930 . S
C524 C523 1.388 . S
C524 C525 1.390 . S
C525 C524 1.390 . S
C525 C526 1.394 . S
C525 C531 1.465 . S
C526 C521 1.399 . S
C526 C525 1.394 . S
C526 C527 1.516 . S
C527 C526 1.516 . S
C527 C528 1.502 . S
C527 C529 1.561 . S
C527 C530 1.526 . S
C528 H512 0.959 . S
C528 H513 0.959 . S
C528 H514 0.961 . S
C528 C527 1.502 . S
C529 H515 0.960 . S
C529 H516 0.961 . S
C529 H517 0.959 . S
C529 C527 1.561 . S
C530 C527 1.526 . S
C530 C531 1.396 . S
C530 C535 1.390 . S
C531 C525 1.465 . S
C531 C530 1.396 . S
C531 C532 1.399 . S
C532 H518 0.929 . S
C532 C531 1.399 . S
C532 C533 1.385 . S
C533 H519 0.931 . S
C533 C532 1.385 . S
C533 C534 1.389 . S
C534 C533 1.389 . S
C534 C535 1.387 . S
C535 H520 0.930 . S
C535 C530 1.390 . S
C535 C534 1.387 . S
H536 C548 0.930 . S
H537 C550 0.930 . S
H538 C551 0.930 . S
H539 C555 0.959 . S
H540 C555 0.959 . S
H541 C555 0.961 . S
H542 C556 0.960 . S
H543 C556 0.961 . S
H544 C556 0.959 . S
H545 C559 0.929 . S
H546 C560 0.931 . S
H547 C562 0.930 . S
C548 H536 0.930 . S
C548 C549 1.399 1_556 S
C548 C553 1.399 . S
C549 C548 1.399 1_554 S
C549 C550 1.376 . S
C550 H537 0.930 . S
C550 C549 1.376 . S
C550 C551 1.388 . S
C551 H538 0.930 . S
C551 C550 1.388 . S
C551 C552 1.390 . S
C552 C551 1.390 . S
C552 C553 1.394 1_554 S
C552 C558 1.465 . S
C553 C548 1.399 . S
C553 C552 1.394 1_556 S
C553 C554 1.516 . S
C554 C553 1.516 . S
C554 C555 1.502 . S
C554 C556 1.561 . S
C554 C557 1.526 . S
C555 H539 0.959 . S
C555 H540 0.959 . S
C555 H541 0.961 . S
C555 C554 1.502 . S
C556 H542 0.960 . S
C556 H543 0.961 . S
C556 H544 0.959 . S
C556 C554 1.561 . S
C557 C554 1.526 . S
C557 C558 1.396 1_556 S
C557 C562 1.390 . S
C558 C552 1.465 . S
C558 C557 1.396 1_554 S
C558 C559 1.399 . S
C559 H545 0.929 . S
C559 C558 1.399 . S
C559 C560 1.385 . S
C560 H546 0.931 . S
C560 C559 1.385 . S
C560 C561 1.389 . S
C561 C560 1.389 . S
C561 C562 1.387 1_554 S
C562 H547 0.930 . S
C562 C557 1.390 . S
C562 C561 1.387 1_556 S
H563 C575 0.930 . S
H564 C577 0.930 . S
H565 C578 0.930 . S
H566 C582 0.959 . S
H567 C582 0.959 . S
H568 C582 0.961 1_565 S
H569 C583 0.960 . S
H570 C583 0.961 1_545 S
H571 C583 0.959 . S
H572 C586 0.929 . S
H573 C587 0.931 . S
H574 C589 0.930 . S
C575 H563 0.930 . S
C575 C576 1.399 1_556 S
C575 C580 1.399 . S
C576 C575 1.399 1_554 S
C576 C577 1.376 . S
C577 H564 0.930 . S
C577 C576 1.376 . S
C577 C578 1.388 . S
C578 H565 0.930 . S
C578 C577 1.388 . S
C578 C579 1.390 . S
C579 C578 1.390 . S
C579 C580 1.394 1_554 S
C579 C585 1.465 1_565 S
C580 C575 1.399 . S
C580 C579 1.394 1_556 S
C580 C581 1.512 1_565 S
C581 C580 1.512 1_545 S
C581 C582 1.502 . S
C581 C583 1.561 1_545 S
C581 C584 1.530 . S
C582 H566 0.959 . S
C582 H567 0.959 . S
C582 H568 0.961 1_545 S
C582 C581 1.502 . S
C583 H569 0.960 . S
C583 H570 0.961 1_565 S
C583 H571 0.959 . S
C583 C581 1.561 1_565 S
C584 C581 1.530 . S
C584 C585 1.396 1_556 S
C584 C589 1.390 . S
C585 C579 1.465 1_545 S
C585 C584 1.396 1_554 S
C585 C586 1.399 . S
C586 H572 0.929 . S
C586 C585 1.399 . S
C586 C587 1.385 . S
C587 H573 0.931 . S
C587 C586 1.385 . S
C587 C588 1.389 . S
C588 C587 1.389 . S
C588 C589 1.387 1_554 S
C589 H574 0.930 . S
C589 C584 1.390 . S
C589 C588 1.387 1_556 S
H590 C602 0.930 . S
H591 C604 0.930 . S
H592 C605 0.930 . S
H593 C609 0.959 1_556 S
H594 C609 0.959 . S
H595 C609 0.961 . S
H596 C610 0.960 . S
H597 C610 0.961 . S
H598 C610 0.959 . S
H599 C613 0.929 . S
H600 C614 0.931 . S
H601 C616 0.930 . S
C602 H590 0.930 . S
C602 C603 1.399 . S
C602 C607 1.399 . S
C603 C602 1.399 . S
C603 C604 1.376 1_554 S
C604 H591 0.930 . S
C604 C603 1.376 1_556 S
C604 C605 1.388 . S
C605 H592 0.930 . S
C605 C604 1.388 . S
C605 C606 1.387 1_556 S
C606 C605 1.387 1_554 S
C606 C607 1.397 . S
C606 C612 1.465 1_554 S
C607 C602 1.399 . S
C607 C606 1.397 . S
C607 C608 1.516 . S
C608 C607 1.516 . S
C608 C609 1.502 . S
C608 C610 1.561 . S
C608 C611 1.526 . S
C609 H593 0.959 1_554 S
C609 H594 0.959 . S
C609 H595 0.961 . S
C609 C608 1.502 . S
C610 H596 0.960 . S
C610 H597 0.961 . S
C610 H598 0.959 . S
C610 C608 1.561 . S
C611 C608 1.526 . S
C611 C612 1.393 1_554 S
C611 C616 1.390 . S
C612 C606 1.465 1_556 S
C612 C611 1.393 1_556 S
C612 C613 1.401 . S
C613 H599 0.929 . S
C613 C612 1.401 . S
C613 C614 1.385 . S
C614 H600 0.931 . S
C614 C613 1.385 . S
C614 C615 1.389 1_556 S
C615 C614 1.389 1_554 S
C615 C616 1.387 . S
C616 H601 0.930 . S
C616 C611 1.390 . S
C616 C615 1.387 . S
H617 C629 0.930 . S
H618 C631 0.930 . S
H619 C632 0.930 . S
H620 C636 0.959 1_554 S
H621 C636 0.959 . S
H622 C636 0.961 1_545 S
H623 C637 0.960 1_545 S
H624 C637 0.961 . S
H625 C637 0.959 . S
H626 C640 0.929 . S
H627 C641 0.931 . S
H628 C643 0.930 . S
C629 H617 0.930 . S
C629 C630 1.399 1_556 S
C629 C634 1.399 . S
C630 C629 1.399 1_554 S
C630 C631 1.376 . S
C631 H618 0.930 . S
C631 C630 1.376 . S
C631 C632 1.388 . S
C632 H619 0.930 . S
C632 C631 1.388 . S
C632 C633 1.390 . S
C633 C632 1.390 . S
C633 C634 1.394 1_554 S
C633 C639 1.465 1_545 S
C634 C629 1.399 . S
C634 C633 1.394 1_556 S
C634 C635 1.516 1_545 S
C635 C634 1.516 1_565 S
C635 C636 1.502 . S
C635 C637 1.561 . S
C635 C638 1.526 . S
C636 H620 0.959 1_556 S
C636 H621 0.959 . S
C636 H622 0.961 1_565 S
C636 C635 1.502 . S
C637 H623 0.960 1_565 S
C637 H624 0.961 . S
C637 H625 0.959 . S
C637 C635 1.561 . S
C638 C635 1.526 . S
C638 C639 1.396 1_556 S
C638 C643 1.390 . S
C639 C633 1.465 1_565 S
C639 C638 1.396 1_554 S
C639 C640 1.399 . S
C640 H626 0.929 . S
C640 C639 1.399 . S
C640 C641 1.385 . S
C641 H627 0.931 . S
C641 C640 1.385 . S
C641 C642 1.389 . S
C642 C641 1.389 . S
C642 C643 1.387 1_554 S
C643 H628 0.930 . S
C643 C638 1.390 . S
C643 C642 1.387 1_556 S
H644 C656 0.930 . S
H645 C658 0.930 . S
H646 C659 0.930 . S
H647 C663 0.959 . S
H648 C663 0.959 . S
H649 C663 0.961 . S
H650 C664 0.960 . S
H651 C664 0.961 . S
H652 C664 0.959 . S
H653 C667 0.929 . S
H654 C668 0.931 . S
H655 C670 0.930 . S
C656 H644 0.930 . S
C656 C657 1.399 . S
C656 C661 1.399 . S
C657 C656 1.399 . S
C657 C658 1.376 . S
C658 H645 0.930 . S
C658 C657 1.376 . S
C658 C659 1.388 . S
C659 H646 0.930 . S
C659 C658 1.388 . S
C659 C660 1.390 1_554 S
C660 C659 1.390 1_556 S
C660 C661 1.394 1_556 S
C660 C666 1.465 . S
C661 C656 1.399 . S
C661 C660 1.394 1_554 S
C661 C662 1.516 1_554 S
C662 C661 1.516 1_556 S
C662 C663 1.502 . S
C662 C664 1.561 . S
C662 C665 1.526 . S
C663 H647 0.959 . S
C663 H648 0.959 . S
C663 H649 0.961 . S
C663 C662 1.502 . S
C664 H650 0.960 . S
C664 H651 0.961 . S
C664 H652 0.959 . S
C664 C662 1.561 . S
C665 C662 1.526 . S
C665 C666 1.396 . S
C665 C670 1.390 . S
C666 C660 1.465 . S
C666 C665 1.396 . S
C666 C667 1.399 . S
C667 H653 0.929 . S
C667 C666 1.399 . S
C667 C668 1.385 . S
C668 H654 0.931 . S
C668 C667 1.385 . S
C668 C669 1.389 . S
C669 C668 1.389 . S
C669 C670 1.387 . S
C670 H655 0.930 . S
C670 C665 1.390 . S
C670 C669 1.387 . S
H671 C683 0.930 . S
H672 C685 0.930 . S
H673 C686 0.930 . S
H674 C690 0.959 . S
H675 C690 0.959 . S
H676 C690 0.961 1_554 S
H677 C691 0.960 . S
H678 C691 0.961 . S
H679 C691 0.959 . S
H680 C694 0.929 . S
H681 C695 0.931 . S
H682 C697 0.930 . S
C683 H671 0.930 . S
C683 C684 1.399 . S
C683 C688 1.399 . S
C684 C683 1.399 . S
C684 C685 1.376 . S
C685 H672 0.930 . S
C685 C684 1.376 . S
C685 C686 1.388 . S
C686 H673 0.930 . S
C686 C685 1.388 . S
C686 C687 1.390 1_554 S
C687 C686 1.390 1_556 S
C687 C688 1.394 1_556 S
C687 C693 1.465 . S
C688 C683 1.399 . S
C688 C687 1.394 1_554 S
C688 C689 1.516 1_554 S
C689 C688 1.516 1_556 S
C689 C690 1.502 . S
C689 C691 1.561 . S
C689 C692 1.526 . S
C690 H674 0.959 . S
C690 H675 0.959 . S
C690 H676 0.961 1_556 S
C690 C689 1.502 . S
C691 H677 0.960 . S
C691 H678 0.961 . S
C691 H679 0.959 . S
C691 C689 1.561 . S
C692 C689 1.526 . S
C692 C693 1.396 . S
C692 C697 1.390 . S
C693 C687 1.465 . S
C693 C692 1.396 . S
C693 C694 1.399 . S
C694 H680 0.929 . S
C694 C693 1.399 . S
C694 C695 1.385 . S
C695 H681 0.931 . S
C695 C694 1.385 . S
C695 C696 1.389 . S
C696 C695 1.389 . S
C696 C697 1.387 . S
C697 H682 0.930 . S
C697 C692 1.390 . S
C697 C696 1.387 . S
H698 C710 0.930 . S
H699 C712 0.930 . S
H700 C713 0.930 . S
H701 C717 0.959 . S
H702 C717 0.959 . S
H703 C717 0.961 . S
H704 C718 0.960 . S
H705 C718 0.961 . S
H706 C718 0.959 . S
H707 C721 0.929 . S
H708 C722 0.931 . S
H709 C724 0.930 . S
C710 H698 0.930 . S
C710 C711 1.399 . S
C710 C715 1.399 . S
C711 C710 1.399 . S
C711 C712 1.376 . S
C712 H699 0.930 . S
C712 C711 1.376 . S
C712 C713 1.388 . S
C713 H700 0.930 . S
C713 C712 1.388 . S
C713 C714 1.390 . S
C714 C713 1.390 . S
C714 C715 1.394 . S
C714 C720 1.465 . S
C715 C710 1.399 . S
C715 C714 1.394 . S
C715 C716 1.516 . S
C716 C715 1.516 . S
C716 C717 1.502 . S
C716 C718 1.561 . S
C716 C719 1.526 1_554 S
C717 H701 0.959 . S
C717 H702 0.959 . S
C717 H703 0.961 . S
C717 C716 1.502 . S
C718 H704 0.960 . S
C718 H705 0.961 . S
C718 H706 0.959 . S
C718 C716 1.561 . S
C719 C716 1.526 1_556 S
C719 C720 1.396 1_556 S
C719 C724 1.390 . S
C720 C714 1.465 . S
C720 C719 1.396 1_554 S
C720 C721 1.399 1_554 S
C721 H707 0.929 . S
C721 C720 1.399 1_556 S
C721 C722 1.385 . S
C722 H708 0.931 . S
C722 C721 1.385 . S
C722 C723 1.389 . S
C723 C722 1.389 . S
C723 C724 1.387 . S
C724 H709 0.930 . S
C724 C719 1.390 . S
C724 C723 1.387 . S
H725 C737 0.930 . S
H726 C739 0.930 . S
H727 C740 0.930 . S
H728 C744 0.959 . S
H729 C744 0.959 . S
H730 C744 0.961 . S
H731 C745 0.960 . S
H732 C745 0.961 . S
H733 C745 0.959 . S
H734 C748 0.929 . S
H735 C749 0.931 . S
H736 C751 0.930 . S
C737 H725 0.930 . S
C737 C738 1.399 . S
C737 C742 1.399 . S
C738 C737 1.399 . S
C738 C739 1.376 . S
C739 H726 0.930 . S
C739 C738 1.376 . S
C739 C740 1.388 . S
C740 H727 0.930 . S
C740 C739 1.388 . S
C740 C741 1.390 1_556 S
C741 C740 1.390 1_554 S
C741 C742 1.394 1_554 S
C741 C747 1.465 . S
C742 C737 1.399 . S
C742 C741 1.394 1_556 S
C742 C743 1.516 1_556 S
C743 C742 1.516 1_554 S
C743 C744 1.502 . S
C743 C745 1.561 . S
C743 C746 1.526 . S
C744 H728 0.959 . S
C744 H729 0.959 . S
C744 H730 0.961 . S
C744 C743 1.502 . S
C745 H731 0.960 . S
C745 H732 0.961 . S
C745 H733 0.959 . S
C745 C743 1.561 . S
C746 C743 1.526 . S
C746 C747 1.396 . S
C746 C751 1.390 . S
C747 C741 1.465 . S
C747 C746 1.396 . S
C747 C748 1.399 . S
C748 H734 0.929 . S
C748 C747 1.399 . S
C748 C749 1.385 . S
C749 H735 0.931 . S
C749 C748 1.385 . S
C749 C750 1.389 . S
C750 C749 1.389 . S
C750 C751 1.387 . S
C751 H736 0.930 . S
C751 C746 1.390 . S
C751 C750 1.387 . S
H752 C764 0.930 . S
H753 C766 0.930 . S
H754 C767 0.930 . S
H755 C771 0.959 . S
H756 C771 0.959 . S
H757 C771 0.961 . S
H758 C772 0.960 . S
H759 C772 0.961 . S
H760 C772 0.959 . S
H761 C775 0.929 . S
H762 C776 0.931 . S
H763 C778 0.930 . S
C764 H752 0.930 . S
C764 C765 1.399 . S
C764 C769 1.399 . S
C765 C764 1.399 . S
C765 C766 1.376 . S
C766 H753 0.930 . S
C766 C765 1.376 . S
C766 C767 1.388 . S
C767 H754 0.930 . S
C767 C766 1.388 . S
C767 C768 1.390 . S
C768 C767 1.390 . S
C768 C769 1.394 . S
C768 C774 1.465 . S
C769 C764 1.399 . S
C769 C768 1.394 . S
C769 C770 1.516 . S
C770 C769 1.516 . S
C770 C771 1.502 . S
C770 C772 1.561 . S
C770 C773 1.526 . S
C771 H755 0.959 . S
C771 H756 0.959 . S
C771 H757 0.961 . S
C771 C770 1.502 . S
C772 H758 0.960 . S
C772 H759 0.961 . S
C772 H760 0.959 . S
C772 C770 1.561 . S
C773 C770 1.526 . S
C773 C774 1.396 . S
C773 C778 1.390 . S
C774 C768 1.465 . S
C774 C773 1.396 . S
C774 C775 1.399 . S
C775 H761 0.929 . S
C775 C774 1.399 . S
C775 C776 1.385 . S
C776 H762 0.931 . S
C776 C775 1.385 . S
C776 C777 1.389 . S
C777 C776 1.389 . S
C777 C778 1.387 . S
C778 H763 0.930 . S
C778 C773 1.390 . S
C778 C777 1.387 . S
H779 C791 0.930 . S
H780 C793 0.930 . S
H781 C794 0.930 . S
H782 C798 0.959 . S
H783 C798 0.959 . S
H784 C798 0.961 . S
H785 C799 0.960 . S
H786 C799 0.961 . S
H787 C799 0.959 . S
H788 C802 0.929 . S
H789 C803 0.931 . S
H790 C805 0.930 . S
C791 H779 0.930 . S
C791 C792 1.399 . S
C791 C796 1.399 . S
C792 C791 1.399 . S
C792 C793 1.376 . S
C793 H780 0.930 . S
C793 C792 1.376 . S
C793 C794 1.388 . S
C794 H781 0.930 . S
C794 C793 1.388 . S
C794 C795 1.390 . S
C795 C794 1.390 . S
C795 C796 1.394 . S
C795 C801 1.465 . S
C796 C791 1.399 . S
C796 C795 1.394 . S
C796 C797 1.516 . S
C797 C796 1.516 . S
C797 C798 1.502 . S
C797 C799 1.561 . S
C797 C800 1.526 . S
C798 H782 0.959 . S
C798 H783 0.959 . S
C798 H784 0.961 . S
C798 C797 1.502 . S
C799 H785 0.960 . S
C799 H786 0.961 . S
C799 H787 0.959 . S
C799 C797 1.561 . S
C800 C797 1.526 . S
C800 C801 1.396 . S
C800 C805 1.390 . S
C801 C795 1.465 . S
C801 C800 1.396 . S
C801 C802 1.399 . S
C802 H788 0.929 . S
C802 C801 1.399 . S
C802 C803 1.385 . S
C803 H789 0.931 . S
C803 C802 1.385 . S
C803 C804 1.389 . S
C804 C803 1.389 . S
C804 C805 1.387 . S
C805 H790 0.930 . S
C805 C800 1.390 . S
C805 C804 1.387 . S
H806 C818 0.930 . S
H807 C820 0.930 . S
H808 C821 0.930 . S
H809 C825 0.959 . S
H810 C825 0.959 . S
H811 C825 0.961 . S
H812 C826 0.960 . S
H813 C826 0.961 . S
H814 C826 0.959 . S
H815 C829 0.929 . S
H816 C830 0.931 . S
H817 C832 0.930 . S
C818 H806 0.930 . S
C818 C819 1.399 . S
C818 C823 1.399 . S
C819 C818 1.399 . S
C819 C820 1.376 . S
C820 H807 0.930 . S
C820 C819 1.376 . S
C820 C821 1.388 . S
C821 H808 0.930 . S
C821 C820 1.388 . S
C821 C822 1.390 . S
C822 C821 1.390 . S
C822 C823 1.394 . S
C822 C828 1.465 . S
C823 C818 1.399 . S
C823 C822 1.394 . S
C823 C824 1.516 . S
C824 C823 1.516 . S
C824 C825 1.502 . S
C824 C826 1.561 . S
C824 C827 1.526 . S
C825 H809 0.959 . S
C825 H810 0.959 . S
C825 H811 0.961 . S
C825 C824 1.502 . S
C826 H812 0.960 . S
C826 H813 0.961 . S
C826 H814 0.959 . S
C826 C824 1.561 . S
C827 C824 1.526 . S
C827 C828 1.396 . S
C827 C832 1.390 . S
C828 C822 1.465 . S
C828 C827 1.396 . S
C828 C829 1.399 . S
C829 H815 0.929 . S
C829 C828 1.399 . S
C829 C830 1.385 . S
C830 H816 0.931 . S
C830 C829 1.385 . S
C830 C831 1.389 . S
C831 C830 1.389 . S
C831 C832 1.387 . S
C832 H817 0.930 . S
C832 C827 1.390 . S
C832 C831 1.387 . S
H833 C845 0.930 . S
H834 C847 0.930 . S
H835 C848 0.930 . S
H836 C852 0.959 . S
H837 C852 0.959 . S
H838 C852 0.961 . S
H839 C853 0.960 . S
H840 C853 0.961 . S
H841 C853 0.959 . S
H842 C856 0.929 . S
H843 C857 0.931 . S
H844 C859 0.930 . S
C845 H833 0.930 . S
C845 C846 1.399 . S
C845 C850 1.399 . S
C846 C845 1.399 . S
C846 C847 1.376 . S
C847 H834 0.930 . S
C847 C846 1.376 . S
C847 C848 1.388 . S
C848 H835 0.930 . S
C848 C847 1.388 . S
C848 C849 1.390 . S
C849 C848 1.390 . S
C849 C850 1.394 . S
C849 C855 1.465 . S
C850 C845 1.399 . S
C850 C849 1.394 . S
C850 C851 1.516 . S
C851 C850 1.516 . S
C851 C852 1.502 . S
C851 C853 1.561 . S
C851 C854 1.526 . S
C852 H836 0.959 . S
C852 H837 0.959 . S
C852 H838 0.961 . S
C852 C851 1.502 . S
C853 H839 0.960 . S
C853 H840 0.961 . S
C853 H841 0.959 . S
C853 C851 1.561 . S
C854 C851 1.526 . S
C854 C855 1.396 . S
C854 C859 1.390 . S
C855 C849 1.465 . S
C855 C854 1.396 . S
C855 C856 1.399 . S
C856 H842 0.929 . S
C856 C855 1.399 . S
C856 C857 1.385 . S
C857 H843 0.931 . S
C857 C856 1.385 . S
C857 C858 1.389 . S
C858 C857 1.389 . S
C858 C859 1.387 . S
C859 H844 0.930 . S
C859 C854 1.390 . S
C859 C858 1.387 . S
H860 C872 0.930 . S
H861 C874 0.930 . S
H862 C875 0.930 . S
H863 C879 0.959 . S
H864 C879 0.959 . S
H865 C879 0.961 1_455 S
H866 C880 0.960 . S
H867 C880 0.961 1_655 S
H868 C880 0.959 . S
H869 C883 0.929 . S
H870 C884 0.931 . S
H871 C886 0.930 . S
C872 H860 0.930 . S
C872 C873 1.399 . S
C872 C877 1.399 . S
C873 C872 1.399 . S
C873 C874 1.376 . S
C874 H861 0.930 . S
C874 C873 1.376 . S
C874 C875 1.388 . S
C875 H862 0.930 . S
C875 C874 1.388 . S
C875 C876 1.390 . S
C876 C875 1.390 . S
C876 C877 1.394 . S
C876 C882 1.465 1_455 S
C877 C872 1.399 . S
C877 C876 1.394 . S
C877 C878 1.517 1_455 S
C878 C877 1.517 1_655 S
C878 C879 1.502 . S
C878 C880 1.561 1_655 S
C878 C881 1.525 . S
C879 H863 0.959 . S
C879 H864 0.959 . S
C879 H865 0.961 1_655 S
C879 C878 1.502 . S
C880 H866 0.960 . S
C880 H867 0.961 1_455 S
C880 H868 0.959 . S
C880 C878 1.561 1_455 S
C881 C878 1.525 . S
C881 C882 1.396 . S
C881 C886 1.390 . S
C882 C876 1.465 1_655 S
C882 C881 1.396 . S
C882 C883 1.399 . S
C883 H869 0.929 . S
C883 C882 1.399 . S
C883 C884 1.385 . S
C884 H870 0.931 . S
C884 C883 1.385 . S
C884 C885 1.389 . S
C885 C884 1.389 . S
C885 C886 1.387 . S
C886 H871 0.930 . S
C886 C881 1.390 . S
C886 C885 1.387 . S
H887 C899 0.930 . S
H888 C901 0.930 . S
H889 C902 0.930 . S
H890 C906 0.959 . S
H891 C906 0.959 . S
H892 C906 0.961 1_655 S
H893 C907 0.888 1_655 S
H894 C907 1.027 . S
H895 C907 0.962 . S
H896 C910 0.929 . S
H897 C911 0.931 . S
H898 C913 0.930 . S
C899 H887 0.930 . S
C899 C900 1.399 . S
C899 C904 1.399 . S
C900 C899 1.399 . S
C900 C901 1.376 . S
C901 H888 0.930 . S
C901 C900 1.376 . S
C901 C902 1.388 . S
C902 H889 0.930 . S
C902 C901 1.388 . S
C902 C903 1.390 . S
C903 C902 1.390 . S
C903 C904 1.394 . S
C903 C909 1.465 1_655 S
C904 C899 1.399 . S
C904 C903 1.394 . S
C904 C905 1.516 1_655 S
C905 C904 1.516 1_455 S
C905 C906 1.502 . S
C905 C907 1.563 . S
C905 C908 1.526 . S
C906 H890 0.959 . S
C906 H891 0.959 . S
C906 H892 0.961 1_455 S
C906 C905 1.502 . S
C907 H893 0.888 1_455 S
C907 H894 1.027 . S
C907 H895 0.962 . S
C907 C905 1.563 . S
C908 C905 1.526 . S
C908 C909 1.396 . S
C908 C913 1.390 . S
C909 C903 1.465 1_455 S
C909 C908 1.396 . S
C909 C910 1.399 . S
C910 H896 0.929 . S
C910 C909 1.399 . S
C910 C911 1.385 . S
C911 H897 0.931 . S
C911 C910 1.385 . S
C911 C912 1.389 . S
C912 C911 1.389 . S
C912 C913 1.387 . S
C913 H898 0.930 . S
C913 C908 1.390 . S
C913 C912 1.387 . S
H914 C926 0.930 . S
H915 C928 0.930 . S
H916 C929 0.930 . S
H917 C933 0.959 . S
H918 C933 0.959 . S
H919 C933 0.961 . S
H920 C934 0.960 . S
H921 C934 0.961 . S
H922 C934 0.959 . S
H923 C937 0.929 . S
H924 C938 0.931 . S
H925 C940 0.930 . S
C926 H914 0.930 . S
C926 C927 1.399 . S
C926 C931 1.399 . S
C927 C926 1.399 . S
C927 C928 1.376 . S
C928 H915 0.930 . S
C928 C927 1.376 . S
C928 C929 1.388 . S
C929 H916 0.930 . S
C929 C928 1.388 . S
C929 C930 1.390 . S
C930 C929 1.390 . S
C930 C931 1.394 . S
C930 C936 1.465 . S
C931 C926 1.399 . S
C931 C930 1.394 . S
C931 C932 1.516 . S
C932 C931 1.516 . S
C932 C933 1.502 . S
C932 C934 1.561 . S
C932 C935 1.526 . S
C933 H917 0.959 . S
C933 H918 0.959 . S
C933 H919 0.961 . S
C933 C932 1.502 . S
C934 H920 0.960 . S
C934 H921 0.961 . S
C934 H922 0.959 . S
C934 C932 1.561 . S
C935 C932 1.526 . S
C935 C936 1.396 . S
C935 C940 1.390 . S
C936 C930 1.465 . S
C936 C935 1.396 . S
C936 C937 1.399 . S
C937 H923 0.929 . S
C937 C936 1.399 . S
C937 C938 1.385 . S
C938 H924 0.931 . S
C938 C937 1.385 . S
C938 C939 1.389 . S
C939 C938 1.389 . S
C939 C940 1.387 . S
C940 H925 0.930 . S
C940 C935 1.390 . S
C940 C939 1.387 . S
H941 C953 0.930 . S
H942 C955 0.930 . S
H943 C956 0.930 . S
H944 C960 0.959 . S
H945 C960 0.959 . S
H946 C960 0.961 . S
H947 C961 0.960 . S
H948 C961 0.961 . S
H949 C961 0.959 . S
H950 C964 0.929 . S
H951 C965 0.931 . S
H952 C967 0.930 . S
C953 H941 0.930 . S
C953 C954 1.399 . S
C953 C958 1.399 . S
C954 C953 1.399 . S
C954 C955 1.376 . S
C955 H942 0.930 . S
C955 C954 1.376 . S
C955 C956 1.388 . S
C956 H943 0.930 . S
C956 C955 1.388 . S
C956 C957 1.390 . S
C957 C956 1.390 . S
C957 C958 1.394 . S
C957 C963 1.465 . S
C958 C953 1.399 . S
C958 C957 1.394 . S
C958 C959 1.516 . S
C959 C958 1.516 . S
C959 C960 1.502 . S
C959 C961 1.561 . S
C959 C962 1.526 . S
C960 H944 0.959 . S
C960 H945 0.959 . S
C960 H946 0.961 . S
C960 C959 1.502 . S
C961 H947 0.960 . S
C961 H948 0.961 . S
C961 H949 0.959 . S
C961 C959 1.561 . S
C962 C959 1.526 . S
C962 C963 1.396 . S
C962 C967 1.390 . S
C963 C957 1.465 . S
C963 C962 1.396 . S
C963 C964 1.399 . S
C964 H950 0.929 . S
C964 C963 1.399 . S
C964 C965 1.385 . S
C965 H951 0.931 . S
C965 C964 1.385 . S
C965 C966 1.389 . S
C966 C965 1.389 . S
C966 C967 1.387 . S
C967 H952 0.930 . S
C967 C962 1.390 . S
C967 C966 1.387 . S
C333 C5 1.661 . S
C345 C295 1.642 . S
C360 C255 1.658 . S
C372 C45 1.643 . S
C387 C205 1.641 . S
C399 C95 1.660 . S
C414 C165 1.660 . S
C426 C135 1.646 . S
C441 C98 1.578 . S
C453 C18 1.473 . S
C468 C58 1.526 . S
C480 C138 1.556 . S
C495 C128 1.555 . S
C507 C48 1.527 . S
C522 C88 1.470 . S
C534 C8 1.564 . S
C549 C178 1.446 . S
C561 C258 1.404 . S
C576 C218 1.447 . S
C588 C298 1.403 . S
C603 C288 1.399 1_554 S
C615 C208 1.464 1_554 S
C630 C248 1.468 1_554 S
C642 C168 1.404 1_554 S
C657 C19 1.967 . S
C669 C9 2.013 . S
C684 C59 2.019 . S
C696 C49 1.967 . S
C711 C99 2.017 . S
C723 C89 1.973 . S
C738 C129 1.983 . S
C750 C139 1.994 . S
C765 C169 1.983 . S
C777 C179 1.993 . S
C792 C219 1.967 . S
C804 C209 2.012 . S
C819 C249 1.980 . S
C831 C259 1.997 . S
C846 C289 2.003 . S
C858 C299 1.989 . S
C873 C15 2.262 . S
C885 C55 2.261 . S
C900 C125 2.244 . S
C912 C85 2.232 . S
C927 C175 2.255 . S
C939 C215 2.257 . S
C954 C285 2.234 . S
C966 C245 2.228 . S
