# Generated by pormake.
# Topology ecn, (8)-cn, num edge types: 1
# Building blocks:
#     Node 0, Type 0, BuildingBlock: EBIMEJ_clean_sbu_0, # of connection points: 8
#     Node 1, Type 0, BuildingBlock: EBIMEJ_clean_sbu_0, # of connection points: 8
#     Node 2, Type 0, BuildingBlock: EBIMEJ_clean_sbu_0, # of connection points: 8
#     Node 3, Type 0, BuildingBlock: EBIMEJ_clean_sbu_0, # of connection points: 8
#     Node 4, Type 0, BuildingBlock: EBIMEJ_clean_sbu_0, # of connection points: 8
#     Node 5, Type 0, BuildingBlock: EBIMEJ_clean_sbu_0, # of connection points: 8
#     Node 6, Type 0, BuildingBlock: EBIMEJ_clean_sbu_0, # of connection points: 8
#     Node 7, Type 0, BuildingBlock: EBIMEJ_clean_sbu_0, # of connection points: 8
#     Node 8, Type 0, BuildingBlock: EBIMEJ_clean_sbu_0, # of connection points: 8
#     Edge 9, Type (0, 0), BuildingBlock: ZUJKAS_clean_linker_0, # of connection points: 2
#     Edge 10, Type (0, 0), BuildingBlock: ZUJKAS_clean_linker_0, # of connection points: 2
#     Edge 11, Type (0, 0), BuildingBlock: ZUJKAS_clean_linker_0, # of connection points: 2
#     Edge 12, Type (0, 0), BuildingBlock: ZUJKAS_clean_linker_0, # of connection points: 2
#     Edge 13, Type (0, 0), BuildingBlock: ZUJKAS_clean_linker_0, # of connection points: 2
#     Edge 14, Type (0, 0), BuildingBlock: ZUJKAS_clean_linker_0, # of connection points: 2
#     Edge 15, Type (0, 0), BuildingBlock: ZUJKAS_clean_linker_0, # of connection points: 2
#     Edge 16, Type (0, 0), BuildingBlock: ZUJKAS_clean_linker_0, # of connection points: 2
#     Edge 17, Type (0, 0), BuildingBlock: ZUJKAS_clean_linker_0, # of connection points: 2
#     Edge 18, Type (0, 0), BuildingBlock: ZUJKAS_clean_linker_0, # of connection points: 2
#     Edge 19, Type (0, 0), BuildingBlock: ZUJKAS_clean_linker_0, # of connection points: 2
#     Edge 20, Type (0, 0), BuildingBlock: ZUJKAS_clean_linker_0, # of connection points: 2
#     Edge 21, Type (0, 0), BuildingBlock: ZUJKAS_clean_linker_0, # of connection points: 2
#     Edge 22, Type (0, 0), BuildingBlock: ZUJKAS_clean_linker_0, # of connection points: 2
#     Edge 23, Type (0, 0), BuildingBlock: ZUJKAS_clean_linker_0, # of connection points: 2
#     Edge 24, Type (0, 0), BuildingBlock: ZUJKAS_clean_linker_0, # of connection points: 2
#     Edge 25, Type (0, 0), BuildingBlock: ZUJKAS_clean_linker_0, # of connection points: 2
#     Edge 26, Type (0, 0), BuildingBlock: ZUJKAS_clean_linker_0, # of connection points: 2
#     Edge 27, Type (0, 0), BuildingBlock: ZUJKAS_clean_linker_0, # of connection points: 2
#     Edge 28, Type (0, 0), BuildingBlock: ZUJKAS_clean_linker_0, # of connection points: 2
#     Edge 29, Type (0, 0), BuildingBlock: ZUJKAS_clean_linker_0, # of connection points: 2
#     Edge 30, Type (0, 0), BuildingBlock: ZUJKAS_clean_linker_0, # of connection points: 2
#     Edge 31, Type (0, 0), BuildingBlock: ZUJKAS_clean_linker_0, # of connection points: 2
#     Edge 32, Type (0, 0), BuildingBlock: ZUJKAS_clean_linker_0, # of connection points: 2
#     Edge 33, Type (0, 0), BuildingBlock: ZUJKAS_clean_linker_0, # of connection points: 2
#     Edge 34, Type (0, 0), BuildingBlock: ZUJKAS_clean_linker_0, # of connection points: 2
#     Edge 35, Type (0, 0), BuildingBlock: ZUJKAS_clean_linker_0, # of connection points: 2
#     Edge 36, Type (0, 0), BuildingBlock: ZUJKAS_clean_linker_0, # of connection points: 2
#     Edge 37, Type (0, 0), BuildingBlock: ZUJKAS_clean_linker_0, # of connection points: 2
#     Edge 38, Type (0, 0), BuildingBlock: ZUJKAS_clean_linker_0, # of connection points: 2
#     Edge 39, Type (0, 0), BuildingBlock: ZUJKAS_clean_linker_0, # of connection points: 2
#     Edge 40, Type (0, 0), BuildingBlock: ZUJKAS_clean_linker_0, # of connection points: 2
#     Edge 41, Type (0, 0), BuildingBlock: ZUJKAS_clean_linker_0, # of connection points: 2
#     Edge 42, Type (0, 0), BuildingBlock: ZUJKAS_clean_linker_0, # of connection points: 2
#     Edge 43, Type (0, 0), BuildingBlock: ZUJKAS_clean_linker_0, # of connection points: 2
#     Edge 44, Type (0, 0), BuildingBlock: ZUJKAS_clean_linker_0, # of connection points: 2
# Relax obj value: 0.177
# Max RMSD: 0.240
# Mean RMSD: 0.240
data_MOF--net-ecn--node1-EBIMEJ_clean_sbu_0--edge1-ZUJKAS_clean_linker_0
_symmetry_space_group_name_H-M    P1
_symmetry_Int_Tables_number       1
_symmetry_cell_setting            triclinic
loop_
_symmetry_equiv_pos_as_xyz
'x, y, z'
_cell_length_a     66.763873
_cell_length_b     66.795353
_cell_length_c     19.91401
_cell_angle_alpha  89.969343
_cell_angle_beta   90.042373
_cell_angle_gamma 119.9958
loop_
_atom_site_label
_atom_site_type_symbol
_atom_site_fract_x
_atom_site_fract_y
_atom_site_fract_z
_atom_type_partial_charge
Co0 Co 0.17382 0.28942 0.96411 0.0
Co1 Co 0.14416 0.2363 0.01682 0.0
Co2 Co 0.11896 0.26244 -0.00668 0.0
H3 H 0.14639 0.27276 -0.00624 0.0
O4 O 0.15017 0.26805 0.02925 0.0
H5 H 0.11714 0.22543 0.01011 0.0
O6 O 0.11351 0.23097 0.97639 0.0
Co7 Co 0.08943 0.20612 0.03215 0.0
O8 O 0.10036 0.18248 0.0283 0.0
O9 O 0.13799 0.20421 0.00456 0.0
O10 O 0.06919 0.22067 0.04219 0.0
O11 O 0.08556 0.25314 0.97971 0.0
O12 O 0.19568 0.32369 0.93788 0.0
O13 O 0.20708 0.30003 0.9322 0.0
O14 O 0.09946 0.22381 0.11831 0.0
O15 O 0.13565 0.23079 0.11455 0.0
C16 C 0.1435 0.31247 0.97153 0.0
C17 C 0.195 0.26345 0.03879 0.0
C18 C 0.05294 0.16857 0.01656 0.0
C19 C 0.13966 0.26499 0.85918 0.0
C20 C 0.12001 0.18462 0.01461 0.0
C21 C 0.06853 0.23749 0.01367 0.0
C22 C 0.21229 0.32068 0.92324 0.0
C23 C 0.11853 0.22947 0.1469 0.0
O24 O 0.16149 0.31193 0.95147 0.0
O25 O 0.12664 0.29528 0.00128 0.0
O26 O 0.1757 0.24479 0.04472 0.0
O27 O 0.19688 0.28171 0.01128 0.0
O28 O 0.05556 0.18357 0.05902 0.0
O29 O 0.07105 0.17488 0.98299 0.0
O30 O 0.1587 0.26877 0.88462 0.0
O31 O 0.12456 0.26674 0.89399 0.0
Co32 Co 0.74666 0.89059 0.9667 0.0
Co33 Co 0.79988 0.91407 0.01671 0.0
Co34 Co 0.77379 0.86276 -0.00614 0.0
H35 H 0.76344 0.87982 -0.00463 0.0
O36 O 0.76829 0.88831 0.03079 0.0
H37 H 0.81076 0.89793 0.0109 0.0
O38 O 0.80531 0.88873 0.97723 0.0
Co39 Co 0.82998 0.8896 0.0344 0.0
O40 O 0.85355 0.92403 0.02328 0.0
O41 O 0.83176 0.94003 0.00235 0.0
O42 O 0.81569 0.85469 0.04055 0.0
O43 O 0.78298 0.83871 0.97898 0.0
O44 O 0.73644 0.91269 0.92769 0.0
O45 O 0.71201 0.87851 0.9469 0.0
O46 O 0.81164 0.88181 0.11933 0.0
O47 O 0.80596 0.91179 0.11457 0.0
C48 C 0.72367 0.8373 0.97264 0.0
C49 C 0.77264 0.93767 0.0401 0.0
C50 C 0.86855 0.89227 0.032 0.0
C51 C 0.77125 0.8816 0.86078 0.0
C52 C 0.8514 0.94152 0.00952 0.0
C53 C 0.79877 0.83728 0.012 0.0
C54 C 0.7154 0.89762 0.92525 0.0
C55 C 0.80666 0.89576 0.14757 0.0
O56 O 0.72412 0.85586 0.95336 0.0
O57 O 0.74094 0.8376 0.00176 0.0
O58 O 0.79142 0.93718 0.04375 0.0
O59 O 0.75405 0.92105 0.01487 0.0
O60 O 0.85069 0.8762 0.00543 0.0
O61 O 0.86452 0.90682 0.0593 0.0
O62 O 0.76749 0.89668 0.88737 0.0
O63 O 0.76948 0.86453 0.89458 0.0
Co64 Co 0.14576 0.86287 0.96154 0.0
Co65 Co 0.1225 0.8925 0.01527 0.0
Co66 Co 0.17386 0.91758 -0.00643 0.0
H67 H 0.15665 0.89016 0.99245 0.0
O68 O 0.14806 0.88621 0.02772 0.0
H69 H 0.1387 0.91935 0.01016 0.0
O70 O 0.14802 0.92332 0.97675 0.0
Co71 Co 0.14697 0.94662 0.03528 0.0
O72 O 0.11244 0.93572 0.03525 0.0
O73 O 0.0968 0.89898 0.00228 0.0
O74 O 0.18129 0.96445 0.05479 0.0
O75 O 0.19795 0.9512 0.98328 0.0
O76 O 0.15751 0.84388 0.909 0.0
O77 O 0.12514 0.8275 0.95319 0.0
O78 O 0.15541 0.93583 0.11844 0.0
O79 O 0.12516 0.90038 0.11367 0.0
C80 C 0.19915 0.89288 0.97048 0.0
C81 C 0.09853 0.84173 0.03605 0.0
C82 C 0.14556 0.98294 0.0192 0.0
C83 C 0.15563 0.89782 0.85908 0.0
C84 C 0.09505 0.91658 0.01718 0.0
C85 C 0.19913 0.96659 0.02453 0.0
C86 C 0.13941 0.82488 0.91892 0.0
C87 C 0.1416 0.91682 0.14641 0.0
O88 O 0.18057 0.87513 0.94949 0.0
O89 O 0.19892 0.90967 0.00099 0.0
O90 O 0.09929 0.86106 0.04191 0.0
O91 O 0.1148 0.83972 0.00814 0.0
O92 O 0.15864 0.98074 0.06003 0.0
O93 O 0.13332 0.96455 0.98734 0.0
O94 O 0.1402 0.87885 0.88429 0.0
O95 O 0.17275 0.91259 0.89388 0.0
Co96 Co 0.84027 0.62298 0.29855 0.0
Co97 Co 0.81009 0.56983 0.34986 0.0
Co98 Co 0.78549 0.59652 0.32716 0.0
H99 H 0.81282 0.60651 0.32809 0.0
O100 O 0.8165 0.60164 0.36343 0.0
H101 H 0.78318 0.55937 0.34445 0.0
O102 O 0.77944 0.56485 0.31083 0.0
Co103 Co 0.75569 0.54042 0.36843 0.0
O104 O 0.76693 0.51697 0.37157 0.0
O105 O 0.80338 0.53769 0.33565 0.0
O106 O 0.73545 0.5551 0.37511 0.0
O107 O 0.75229 0.58764 0.31281 0.0
O108 O 0.85938 0.65085 0.23537 0.0
O109 O 0.8758 0.64149 0.30668 0.0
O110 O 0.76622 0.55807 0.45431 0.0
O111 O 0.80207 0.56424 0.44815 0.0
C112 C 0.81048 0.6465 0.30427 0.0
C113 C 0.86096 0.59626 0.37158 0.0
C114 C 0.71953 0.50266 0.35282 0.0
C115 C 0.80622 0.59803 0.19418 0.0
C116 C 0.78588 0.51849 0.35228 0.0
C117 C 0.73505 0.57201 0.34613 0.0
C118 C 0.87847 0.65521 0.25994 0.0
C119 C 0.78533 0.56326 0.48183 0.0
O120 O 0.82829 0.64566 0.28406 0.0
O121 O 0.79362 0.62951 0.33465 0.0
O122 O 0.84152 0.57775 0.3767 0.0
O123 O 0.86315 0.61477 0.34486 0.0
O124 O 0.72122 0.51848 0.39055 0.0
O125 O 0.7383 0.50833 0.32377 0.0
O126 O 0.82501 0.6015 0.22065 0.0
O127 O 0.79135 0.60056 0.22779 0.0
Co128 Co 0.41502 0.22531 0.29778 0.0
Co129 Co 0.46726 0.24792 0.35454 0.0
Co130 Co 0.44096 0.19674 0.32986 0.0
H131 H 0.43097 0.21406 0.32948 0.0
O132 O 0.43539 0.22237 0.36529 0.0
H133 H 0.47808 0.23172 0.34802 0.0
O134 O 0.47259 0.22261 0.31421 0.0
Co135 Co 0.49738 0.22324 0.36984 0.0
O136 O 0.52099 0.2578 0.36935 0.0
O137 O 0.49944 0.2737 0.34338 0.0
O138 O 0.48268 0.1884 0.37842 0.0
O139 O 0.45003 0.1725 0.31653 0.0
O140 O 0.38059 0.21286 0.27329 0.0
O141 O 0.40446 0.24772 0.26346 0.0
O142 O 0.48088 0.21642 0.4576 0.0
O143 O 0.47215 0.24446 0.45238 0.0
C144 C 0.39215 0.17203 0.29902 0.0
C145 C 0.44026 0.27178 0.37519 0.0
C146 C 0.53475 0.22421 0.3513 0.0
C147 C 0.44045 0.21596 0.19622 0.0
C148 C 0.51896 0.27532 0.35496 0.0
C149 C 0.46574 0.17102 0.34989 0.0
C150 C 0.38369 0.23232 0.25635 0.0
C151 C 0.47451 0.22938 0.48539 0.0
O152 O 0.39378 0.19084 0.27691 0.0
O153 O 0.40787 0.1719 0.33564 0.0
O154 O 0.45878 0.27096 0.38264 0.0
O155 O 0.42233 0.25579 0.34537 0.0
O156 O 0.51959 0.21109 0.39237 0.0
O157 O 0.52866 0.23675 0.32067 0.0
O158 O 0.43717 0.23149 0.22181 0.0
O159 O 0.4375 0.19852 0.23033 0.0
Co160 Co 0.81336 0.19646 0.30046 0.0
Co161 Co 0.78956 0.22609 0.35015 0.0
Co162 Co 0.84087 0.25153 0.32689 0.0
H163 H 0.82394 0.22406 0.32845 0.0
O164 O 0.81548 0.22045 0.36392 0.0
H165 H 0.80555 0.25314 0.34327 0.0
O166 O 0.81473 0.25678 0.3096 0.0
Co167 Co 0.81368 0.28079 0.36521 0.0
O168 O 0.77935 0.26982 0.35255 0.0
O169 O 0.76341 0.23182 0.33615 0.0
O170 O 0.84854 0.30126 0.37358 0.0
O171 O 0.86475 0.28484 0.31202 0.0
O172 O 0.82528 0.17406 0.27626 0.0
O173 O 0.79043 0.16345 0.26767 0.0
O174 O 0.82094 0.27112 0.45243 0.0
O175 O 0.79219 0.23472 0.4478 0.0
C176 C 0.86669 0.22717 0.30658 0.0
C177 C 0.76646 0.17546 0.37587 0.0
C178 C 0.81091 0.31663 0.36146 0.0
C179 C 0.82326 0.22987 0.19242 0.0
C180 C 0.76186 0.25 0.34086 0.0
C181 C 0.86607 0.30192 0.34542 0.0
C182 C 0.80562 0.1578 0.26029 0.0
C183 C 0.8075 0.25203 0.48074 0.0
O184 O 0.8482 0.20895 0.28746 0.0
O185 O 0.86623 0.24411 0.33529 0.0
O186 O 0.76668 0.19461 0.3785 0.0
O187 O 0.78312 0.17361 0.35033 0.0
O188 O 0.79755 0.29879 0.39412 0.0
O189 O 0.82579 0.31409 0.33004 0.0
O190 O 0.80855 0.21053 0.21745 0.0
O191 O 0.83938 0.24569 0.22766 0.0
Co192 Co 0.50727 0.95692 0.63324 0.0
Co193 Co 0.47702 0.90317 0.68068 0.0
Co194 Co 0.45219 0.92975 0.65995 0.0
H195 H 0.47962 0.93994 0.66118 0.0
O196 O 0.4832 0.93482 0.69615 0.0
H197 H 0.45001 0.89258 0.67584 0.0
O198 O 0.44622 0.89815 0.64256 0.0
Co199 Co 0.42254 0.87343 0.6999 0.0
O200 O 0.43374 0.85001 0.69793 0.0
O201 O 0.47046 0.87111 0.66454 0.0
O202 O 0.40191 0.88773 0.70519 0.0
O203 O 0.419 0.92088 0.64568 0.0
O204 O 0.53946 0.96665 0.59392 0.0
O205 O 0.53072 0.99158 0.6168 0.0
O206 O 0.43311 0.89028 0.78675 0.0
O207 O 0.46917 0.89704 0.77903 0.0
C208 C 0.47712 0.97998 0.63989 0.0
C209 C 0.52783 0.93017 0.7055 0.0
C210 C 0.38649 0.8351 0.69307 0.0
C211 C 0.47377 0.93377 0.5251 0.0
C212 C 0.45276 0.85172 0.67873 0.0
C213 C 0.40163 0.9049 0.67762 0.0
C214 C 0.54609 0.98786 0.59385 0.0
C215 C 0.45227 0.89535 0.81356 0.0
O216 O 0.49519 0.97953 0.62033 0.0
O217 O 0.46013 0.96266 0.66869 0.0
O218 O 0.50864 0.91123 0.70664 0.0
O219 O 0.52979 0.94899 0.68226 0.0
O220 O 0.40241 0.84023 0.7349 0.0
O221 O 0.39111 0.8517 0.65432 0.0
O222 O 0.49311 0.93835 0.55003 0.0
O223 O 0.45789 0.93394 0.56044 0.0
Co224 Co 0.08021 0.55683 0.63202 0.0
Co225 Co 0.13369 0.58042 0.68187 0.0
Co226 Co 0.1074 0.52907 0.66023 0.0
H227 H 0.0971 0.5462 0.66106 0.0
O228 O 0.10201 0.55483 0.69619 0.0
H229 H 0.14433 0.56414 0.6773 0.0
O230 O 0.139 0.55484 0.64384 0.0
Co231 Co 0.16333 0.55589 0.70297 0.0
O232 O 0.18652 0.59066 0.70545 0.0
O233 O 0.16577 0.60598 0.66655 0.0
O234 O 0.14913 0.52099 0.70882 0.0
O235 O 0.11659 0.50494 0.64643 0.0
O236 O 0.05415 0.55056 0.56425 0.0
O237 O 0.059 0.57056 0.6488 0.0
O238 O 0.14362 0.54741 0.78504 0.0
O239 O 0.13951 0.57829 0.78021 0.0
C240 C 0.05727 0.50365 0.63813 0.0
C241 C 0.10703 0.60474 0.70167 0.0
C242 C 0.202 0.55896 0.69445 0.0
C243 C 0.10503 0.54785 0.52677 0.0
C244 C 0.18498 0.60787 0.68412 0.0
C245 C 0.13234 0.50356 0.67993 0.0
C246 C 0.04734 0.56224 0.59626 0.0
C247 C 0.13906 0.56166 0.81315 0.0
O248 O 0.05778 0.52216 0.61821 0.0
O249 O 0.07448 0.50398 0.66779 0.0
O250 O 0.12551 0.60381 0.7081 0.0
O251 O 0.08861 0.58837 0.67479 0.0
O252 O 0.1976 0.57168 0.73053 0.0
O253 O 0.18445 0.54452 0.66256 0.0
O254 O 0.10119 0.56291 0.55318 0.0
O255 O 0.10337 0.53084 0.56073 0.0
Co256 Co 0.47969 0.53022 0.63177 0.0
Co257 Co 0.45623 0.56005 0.68093 0.0
Co258 Co 0.50758 0.58512 0.65936 0.0
H259 H 0.49044 0.55774 0.66056 0.0
O260 O 0.48183 0.55404 0.69572 0.0
H261 H 0.47249 0.587 0.67607 0.0
O262 O 0.48179 0.5909 0.64263 0.0
Co263 Co 0.48078 0.61435 0.70085 0.0
O264 O 0.44608 0.60306 0.69949 0.0
O265 O 0.43061 0.56644 0.6655 0.0
O266 O 0.51568 0.6349 0.70715 0.0
O267 O 0.53171 0.61838 0.64503 0.0
O268 O 0.47543 0.50805 0.55386 0.0
O269 O 0.47493 0.4978 0.65249 0.0
O270 O 0.48888 0.60329 0.78403 0.0
O271 O 0.4583 0.56805 0.77924 0.0
C272 C 0.53294 0.56037 0.63786 0.0
C273 C 0.43222 0.50907 0.70283 0.0
C274 C 0.47824 0.65026 0.69384 0.0
C275 C 0.48884 0.56391 0.5259 0.0
C276 C 0.42881 0.58402 0.68015 0.0
C277 C 0.53312 0.63552 0.67839 0.0
C278 C 0.47335 0.49209 0.59174 0.0
C279 C 0.47468 0.58447 0.81226 0.0
O280 O 0.51437 0.54237 0.61818 0.0
O281 O 0.53266 0.57728 0.66732 0.0
O282 O 0.43282 0.52839 0.70671 0.0
O283 O 0.44893 0.50709 0.67836 0.0
O284 O 0.4664 0.63369 0.73277 0.0
O285 O 0.49142 0.64637 0.65816 0.0
O286 O 0.47376 0.54502 0.5523 0.0
O287 O 0.50583 0.57924 0.55993 0.0
H288 H 0.19738 0.22627 0.08565 0.0
H289 H 0.23134 0.22436 0.11978 0.0
H290 H 0.27459 0.29711 0.07944 0.0
H291 H 0.24041 0.29933 0.04423 0.0
H292 H 0.27265 0.23786 0.0359 0.0
H293 H 0.29082 0.28587 0.2775 0.0
H294 H 0.26272 0.27262 0.2379 0.0
H295 H 0.28612 0.29871 0.20394 0.0
C296 C 0.21402 0.24203 0.08428 0.0
C297 C 0.21602 0.26304 0.06233 0.0
C298 C 0.23347 0.24082 0.10374 0.0
C299 C 0.25546 0.26057 0.10257 0.0
C300 C 0.2577 0.28168 0.0813 0.0
H301 H 0.3874 0.27407 0.22873 0.0
H302 H 0.35709 0.28167 0.18899 0.0
C303 C 0.23816 0.28291 0.06113 0.0
C304 C 0.27587 0.25857 0.12238 0.0
H305 H 0.3152 0.2712 0.24841 0.0
C306 C 0.28207 0.24528 0.08213 0.0
C307 C 0.2881 0.26822 0.18271 0.0
C308 C 0.28165 0.28208 0.22852 0.0
C309 C 0.30012 0.2413 0.10069 0.0
C310 C 0.31197 0.25042 0.16199 0.0
C311 C 0.30607 0.26414 0.20157 0.0
C312 C 0.33032 0.24569 0.18626 0.0
C313 C 0.30646 0.22752 0.05413 0.0
C314 C 0.32532 0.22293 0.19891 0.0
C315 C 0.34262 0.21854 0.22172 0.0
C316 C 0.36525 0.23682 0.23252 0.0
C317 C 0.37016 0.2596 0.22054 0.0
C318 C 0.35284 0.26398 0.19795 0.0
H319 H 0.30045 0.2274 0.002 0.0
H320 H 0.32545 0.23457 0.05331 0.0
H321 H 0.29808 0.20936 0.07192 0.0
H322 H 0.30797 0.20855 0.19158 0.0
H323 H 0.33829 0.20083 0.23083 0.0
H324 H 0.83653 0.14333 0.23284 0.0
H325 H 0.828 0.10482 0.19585 0.0
H326 H 0.75496 0.08129 0.20177 0.0
H327 H 0.7634 0.11979 0.23761 0.0
H328 H 0.80245 0.06278 0.26121 0.0
H329 H 0.76222 0.06076 0.01522 0.0
H330 H 0.77873 0.08709 0.06257 0.0
H331 H 0.74942 0.06681 0.08593 0.0
C332 C 0.81867 0.12996 0.22588 0.0
C333 C 0.80064 0.13461 0.23768 0.0
C334 C 0.8138 0.10797 0.20477 0.0
C335 C 0.79084 0.09022 0.19489 0.0
C336 C 0.77282 0.0948 0.20738 0.0
H337 H 0.73638 0.94609 0.05982 0.0
H338 H 0.73892 0.98208 0.10078 0.0
C339 C 0.77767 0.1168 0.22825 0.0
C340 C 0.7858 0.06676 0.17376 0.0
H341 H 0.76137 0.02638 0.04901 0.0
C342 C 0.79345 0.05483 0.21482 0.0
C343 C 0.77383 0.05623 0.11355 0.0
C344 C 0.76572 0.06842 0.06638 0.0
C345 C 0.7896 0.0328 0.19735 0.0
C346 C 0.7782 0.02252 0.13623 0.0
C347 C 0.77005 0.03419 0.09586 0.0
C348 C 0.7762 1.00056 0.11122 0.0
C349 C 0.79771 0.02072 0.24498 0.0
C350 C 0.79624 0.99912 0.10202 0.0
C351 C 0.79484 0.9787 0.07953 0.0
C352 C 0.77332 0.95911 0.06435 0.0
C353 C 0.75319 0.96071 0.07163 0.0
C354 C 0.75463 0.98128 0.0949 0.0
H355 H 0.79869 0.02684 0.2974 0.0
H356 H 0.78607 1.00169 0.24381 0.0
H357 H 0.81533 0.02464 0.23022 0.0
H358 H 0.81313 1.01393 0.11195 0.0
H359 H 0.81083 0.97844 0.07343 0.0
H360 H 0.08576 0.79545 0.02627 0.0
H361 H 0.04915 0.76195 0.06277 0.0
H362 H 0.02646 0.80776 0.13868 0.0
H363 H 0.06255 0.84095 0.10319 0.0
H364 H 1.01882 0.7731 0.2279 0.0
H365 H 0.98517 0.73781 0.97381 0.0
H366 H 1.01335 0.74211 -0.00652 0.0
H367 H 1.00922 0.76662 0.98681 0.0
C368 C 0.07299 0.79837 0.05066 0.0
C369 C 0.07718 0.82099 0.061 0.0
C370 C 0.052 0.7792 0.07121 0.0
C371 C 0.0349 0.78235 0.10259 0.0
C372 C 0.03931 0.80487 0.11432 0.0
H373 H 0.88788 0.68877 0.1658 0.0
H374 H 0.92609 0.71925 0.12764 0.0
C375 C 0.06008 0.82389 0.09378 0.0
C376 C 1.0124 0.76248 0.1244 0.0
H377 H 0.96199 0.71687 0.06631 0.0
C378 C 1.00645 0.76071 0.19262 0.0
C379 C 0.99609 0.74661 0.07814 0.0
C380 C 1.00108 0.74837 0.00384 0.0
C381 C 0.98468 0.74359 0.2159 0.0
C382 C 0.96851 0.72741 0.16991 0.0
C383 C 0.97443 0.72917 0.1016 0.0
C384 C 0.94533 0.70868 0.19188 0.0
C385 C 0.97899 0.74349 0.2893 0.0
C386 C 0.9434 0.69243 0.23994 0.0
C387 C 0.92168 0.67523 0.26215 0.0
C388 C 0.90136 0.67365 0.23612 0.0
C389 C 0.90324 0.68961 0.18695 0.0
C390 C 0.92505 0.70697 0.165 0.0
H391 H 0.99033 0.76053 0.31323 0.0
H392 H 0.9607 0.73897 0.29617 0.0
H393 H 0.98165 0.73042 0.31604 0.0
H394 H 0.95873 0.69303 0.26031 0.0
H395 H 0.92083 0.66307 0.29951 0.0
H396 H 0.83408 0.82831 0.02138 0.0
H397 H 0.83291 0.79406 0.0685 0.0
H398 H 0.75871 0.76102 0.08591 0.0
H399 H 0.75979 0.7953 0.03664 0.0
H400 H 0.81945 0.77908 0.19338 0.0
H401 H 0.76538 0.70791 0.01708 0.0
H402 H 0.77713 0.73795 -0.00482 0.0
H403 H 0.75182 0.72356 0.0473 0.0
C404 C 0.81741 0.81349 0.03327 0.0
C405 C 0.79701 0.81451 0.0248 0.0
C406 C 0.81678 0.79392 0.06073 0.0
C407 C 0.79575 0.77481 0.08102 0.0
C408 C 0.77515 0.77528 0.06965 0.0
H409 H 0.77156 0.65085 0.30579 0.0
H410 H 0.76695 0.68196 0.25641 0.0
C411 C 0.77575 0.79489 0.04125 0.0
C412 C 0.79598 0.75559 0.11913 0.0
H413 H 0.77596 0.69734 0.11919 0.0
C414 C 0.80992 0.76122 0.17692 0.0
C415 C 0.78342 0.73218 0.09843 0.0
C416 C 0.76874 0.72498 0.0358 0.0
C417 C 0.81187 0.74431 0.21383 0.0
C418 C 0.79971 0.72101 0.19238 0.0
C419 C 0.78528 0.7152 0.13571 0.0
C420 C 0.80271 0.7027 0.22613 0.0
C421 C 0.8269 0.75154 0.27579 0.0
C422 C 0.82438 0.70404 0.22624 0.0
C423 C 0.82711 0.68633 0.25448 0.0
C424 C 0.80819 0.66675 0.28342 0.0
C425 C 0.78659 0.66573 0.28477 0.0
C426 C 0.78386 0.68343 0.25602 0.0
H427 H 0.82983 0.76833 0.29577 0.0
H428 H 0.81904 0.73828 0.31591 0.0
H429 H 0.84399 0.75358 0.2629 0.0
H430 H 0.83913 0.71853 0.20272 0.0
H431 H 0.84397 0.68773 0.25193 0.0
H432 H 0.20543 0.99951 0.11546 0.0
H433 H 0.24073 0.03262 0.15267 0.0
H434 H 0.28008 0.01521 0.01746 0.0
H435 H 0.24402 0.98067 0.98012 0.0
H436 H 0.30084 0.0296 0.14532 0.0
H437 H 0.27641 0.09182 0.0485 0.0
H438 H 0.25403 0.07076 0.10114 0.0
H439 H 0.26133 0.06181 0.02396 0.0
C440 C 0.2214 1.00246 0.09268 0.0
C441 C 0.22161 0.98729 0.04368 0.0
C442 C 0.24173 0.02167 0.11424 0.0
C443 C 0.26307 0.02683 0.08692 0.0
C444 C 0.26372 1.01169 0.03878 0.0
H445 H 0.37496 0.16576 0.17321 0.0
H446 H 0.34636 0.13019 0.11954 0.0
C447 C 0.24312 0.99204 0.0172 0.0
C448 C 0.28424 0.04816 0.10999 0.0
H449 H 0.30438 0.10551 0.13792 0.0
C450 C 0.30192 0.04633 0.14264 0.0
C451 C 0.28584 0.07008 0.10604 0.0
C452 C 0.26849 0.07378 0.06735 0.0
C453 C 0.32067 0.06566 0.17347 0.0
C454 C 0.32135 0.08726 0.17363 0.0
C455 C 0.30396 0.08907 0.13898 0.0
C456 C 0.3401 0.10852 0.207 0.0
C457 C 0.33959 0.06265 0.20469 0.0
C458 C 0.34652 0.10856 0.27454 0.0
C459 C 0.36356 0.12905 0.30513 0.0
C460 C 0.37379 0.15003 0.26956 0.0
C461 C 0.36712 0.14997 0.20253 0.0
C462 C 0.35075 0.12953 0.17158 0.0
H463 H 0.34053 0.04804 0.18137 0.0
H464 H 0.35672 0.07855 0.19958 0.0
H465 H 0.33584 0.05867 0.25887 0.0
H466 H 0.33816 0.09287 0.30407 0.0
H467 H 0.36838 0.12859 0.35681 0.0
H468 H 0.06547 0.27661 0.03647 0.0
H469 H 0.03246 0.27785 0.08728 0.0
H470 H 0.99164 0.20357 0.0752 0.0
H471 H 0.02441 0.2022 0.02621 0.0
H472 H 0.98603 0.26212 0.05371 0.0
H473 H 0.99089 0.2147 0.27538 0.0
H474 H 1.01335 0.2268 0.21261 0.0
H475 H 0.98755 0.19942 0.1984 0.0
C476 C 0.04924 0.26063 0.04306 0.0
C477 C 0.04761 0.2393 0.02767 0.0
C478 C 0.03044 0.26133 0.07265 0.0
C479 C 1.00975 0.24073 0.08712 0.0
C480 C 1.00759 0.21964 0.0666 0.0
H481 H 0.87544 0.19366 0.25988 0.0
H482 H 0.91119 0.19885 0.21029 0.0
C483 C 0.02631 0.21891 0.03785 0.0
C484 C 0.99069 0.24088 0.12614 0.0
H485 H 0.95683 0.2177 0.26563 0.0
C486 C 0.97983 0.25265 0.10045 0.0
C487 C 0.98261 0.22865 0.18756 0.0
C488 C 0.99435 0.21688 0.22052 0.0
C489 C 0.96054 0.25164 0.1328 0.0
C490 C 0.95202 0.23874 0.19292 0.0
C491 C 0.96325 0.22749 0.21945 0.0
C492 C 0.93081 0.23575 0.22727 0.0
C493 C 0.94887 0.26366 0.10111 0.0
C494 C 0.93006 0.25463 0.2556 0.0
C495 C 0.90961 0.2517 0.28478 0.0
C496 C 0.8894 0.22979 0.28605 0.0
C497 C 0.89055 0.21079 0.2599 0.0
C498 C 0.91102 0.21373 0.23125 0.0
H499 H 0.95477 0.26915 0.04871 0.0
H500 H 0.92979 0.25217 0.101 0.0
H501 H 0.95292 0.27928 0.13086 0.0
H502 H 0.94521 0.27173 0.25428 0.0
H503 H 0.90942 0.26677 0.30402 0.0
H504 H 0.86204 0.55921 0.4255 0.0
H505 H 0.89524 0.55672 0.46374 0.0
H506 H 0.94033 0.62838 0.41336 0.0
H507 H 0.90685 0.63111 0.37418 0.0
H508 H 0.95688 0.59906 0.36978 0.0
H509 H 0.93134 0.58317 0.63735 0.0
H510 H 0.90879 0.56355 0.58213 0.0
H511 H 0.91839 0.59396 0.57859 0.0
C512 C 0.87892 0.57462 0.4227 0.0
C513 C 0.88163 0.59547 0.39665 0.0
C514 C 0.89795 0.57312 0.445 0.0
C515 C 0.92026 0.59242 0.44251 0.0
C516 C 0.92322 0.61327 0.41613 0.0
H517 H 0.03446 0.5912 0.65311 0.0
H518 H 1.00517 0.60018 0.61353 0.0
C519 C 0.90407 0.61482 0.39373 0.0
C520 C 0.94029 0.59038 0.46648 0.0
H521 H 0.96005 0.57401 0.60217 0.0
C522 C 0.95775 0.59384 0.42078 0.0
C523 C 0.94157 0.5838 0.53323 0.0
C524 C 0.92415 0.58113 0.58586 0.0
C525 C 0.97602 0.59018 0.43945 0.0
C526 C 0.97661 0.58239 0.50529 0.0
C527 C 0.95953 0.57967 0.55147 0.0
C528 C 0.99485 0.57718 0.52787 0.0
C529 C 0.99461 0.59494 0.38853 0.0
C530 C 0.99871 0.561 0.49361 0.0
C531 C 1.0157 0.55604 0.51581 0.0
C532 C 0.0289 0.56687 0.57338 0.0
C533 C 0.02467 0.58265 0.60841 0.0
C534 C 1.00789 0.58779 0.58583 0.0
H535 H 0.99558 0.60723 0.34931 0.0
H536 H 1.01183 0.60214 0.41278 0.0
H537 H 0.99052 0.57854 0.36315 0.0
H538 H 0.98845 0.55203 0.45 0.0
H539 H 1.01844 0.54366 0.48809 0.0
H540 H 0.46833 0.47683 0.46227 0.0
H541 H 0.45943 0.43848 0.423 0.0
H542 H 0.45873 0.41711 0.6278 0.0
H543 H 0.46722 0.45528 0.66738 0.0
H544 H 0.48393 0.41645 0.43746 0.0
H545 H 0.39815 0.36454 0.5573 0.0
H546 H 0.41243 0.39563 0.55078 0.0
H547 H 0.42045 0.3823 0.61594 0.0
C548 C 0.46618 0.46391 0.49893 0.0
C549 C 0.46841 0.46904 0.56793 0.0
C550 C 0.46108 0.442 0.47643 0.0
C551 C 0.45797 0.42472 0.52243 0.0
C552 C 0.46046 0.42992 0.59137 0.0
H553 H 0.47308 0.30619 0.45301 0.0
H554 H 0.47574 0.3425 0.48572 0.0
C555 C 0.46552 0.45182 0.61392 0.0
C556 C 0.45312 0.40162 0.49811 0.0
H557 H 0.41564 0.34352 0.51375 0.0
C558 C 0.46889 0.40053 0.45378 0.0
C559 C 0.4333 0.3808 0.51842 0.0
C560 C 0.41498 0.38081 0.56268 0.0
C561 C 0.46583 0.37927 0.4311 0.0
C562 C 0.44668 0.35842 0.45421 0.0
C563 C 0.43044 0.35948 0.49661 0.0
C564 C 0.44391 0.33548 0.43712 0.0
C565 C 0.48319 0.37933 0.38243 0.0
C566 C 0.42456 0.3189 0.40117 0.0
C567 C 0.42283 0.29781 0.38248 0.0
C568 C 0.44042 0.29294 0.39972 0.0
C569 C 0.45929 0.30932 0.43802 0.0
C570 C 0.46094 0.33024 0.45661 0.0
H571 H 0.49256 0.39599 0.35486 0.0
H572 H 0.49616 0.3769 0.41064 0.0
H573 H 0.47467 0.36508 0.34537 0.0
H574 H 0.41109 0.32251 0.38612 0.0
H575 H 0.40806 0.28563 0.35318 0.0
H576 H 0.56259 0.03438 0.58344 0.0
H577 H 0.60119 0.06432 0.54691 0.0
H578 H 0.6209 1.01246 0.51921 0.0
H579 H 0.58227 0.98246 0.55469 0.0
H580 H 0.64386 0.07656 0.60318 0.0
H581 H 0.63978 0.04676 0.3406 0.0
H582 H 0.61441 0.03634 0.39285 0.0
H583 H 0.63379 0.02522 0.40353 0.0
C584 C 0.57513 0.02937 0.56922 0.0
C585 C 0.56935 1.00605 0.57153 0.0
C586 C 0.59718 0.04648 0.54839 0.0
C587 C 0.61388 0.04064 0.52922 0.0
C588 C 0.60819 0.01737 0.53216 0.0
H589 H 0.75665 0.12994 0.38197 0.0
H590 H 0.72079 0.09624 0.42239 0.0
C591 C 0.58613 1.00024 0.55282 0.0
C592 C 0.63743 0.05901 0.50824 0.0
H593 H 0.6756 0.07792 0.37696 0.0
C594 C 0.65078 0.07683 0.55372 0.0
C595 C 0.64662 0.05927 0.44392 0.0
C596 C 0.63288 0.041 0.39209 0.0
C597 C 0.67294 0.09491 0.53668 0.0
C598 C 0.68191 0.09554 0.47174 0.0
C599 C 0.6688 0.07743 0.42675 0.0
C600 C 0.70395 0.11574 0.44806 0.0
C601 C 0.68656 0.11314 0.58875 0.0
C602 C 0.70632 0.1378 0.44801 0.0
C603 C 0.72668 0.15696 0.42564 0.0
C604 C 0.74529 0.15466 0.40163 0.0
C605 C 0.74283 0.13245 0.40067 0.0
C606 C 0.72231 0.11316 0.42355 0.0
H607 H 0.68109 0.10634 0.64047 0.0
H608 H 0.70541 0.11975 0.58383 0.0
H609 H 0.68341 0.12784 0.58212 0.0
H610 H 0.69222 0.14022 0.46465 0.0
H611 H 0.72762 0.17363 0.42652 0.0
H612 H 0.50094 0.16196 0.35965 0.0
H613 H 0.49961 0.12763 0.40691 0.0
H614 H 0.4254 0.09479 0.42378 0.0
H615 H 0.42665 0.12914 0.37452 0.0
H616 H 0.48577 0.11265 0.53211 0.0
H617 H 0.4322 0.04169 0.35451 0.0
H618 H 0.44412 0.07177 0.33276 0.0
H619 H 0.41866 0.05742 0.38428 0.0
C620 C 0.48423 0.14716 0.37152 0.0
C621 C 0.46387 0.14824 0.36295 0.0
C622 C 0.48351 0.12756 0.39901 0.0
C623 C 0.46243 0.10849 0.41914 0.0
C624 C 0.44187 0.10903 0.40765 0.0
H625 H 0.43796 0.98392 0.64073 0.0
H626 H 0.43329 0.01512 0.59234 0.0
C627 C 0.44257 0.12867 0.37926 0.0
C628 C 0.46256 0.08924 0.45725 0.0
H629 H 0.44268 0.03103 0.45659 0.0
C630 C 0.47632 0.09481 0.51539 0.0
C631 C 0.45009 0.06587 0.43618 0.0
C632 C 0.43558 0.05877 0.37323 0.0
C633 C 0.4782 0.07787 0.55231 0.0
C634 C 0.46617 0.05461 0.53043 0.0
C635 C 0.4519 0.04886 0.47342 0.0
C636 C 0.4692 0.0363 0.56395 0.0
C637 C 0.49303 0.08503 0.61468 0.0
C638 C 0.49097 0.03787 0.56485 0.0
C639 C 0.49373 0.02013 0.59257 0.0
C640 C 0.47475 1.00027 0.62009 0.0
C641 C 0.45304 0.99901 0.62077 0.0
C642 C 0.45028 0.01677 0.59259 0.0
H643 H 0.49566 0.10165 0.63508 0.0
H644 H 0.48519 0.07161 0.65438 0.0
H645 H 0.51026 0.08738 0.60209 0.0
H646 H 0.50578 0.05257 0.54224 0.0
H647 H 0.51068 0.02172 0.59058 0.0
H648 H 0.05488 0.46141 0.62864 0.0
H649 H 0.02458 0.42643 0.57413 0.0
H650 H 0.98403 0.45962 0.5446 0.0
H651 H 1.01444 0.4948 0.59709 0.0
H652 H 0.97916 0.39647 0.59569 0.0
H653 H 0.98838 0.4417 0.35499 0.0
H654 H 1.00863 0.45486 0.42315 0.0
H655 H 0.98161 0.45478 0.42325 0.0
C656 C 0.03936 0.46117 0.6115 0.0
C657 C 0.03724 0.48107 0.61688 0.0
C658 C 0.02207 0.44115 0.57993 0.0
C659 C 1.00227 0.44055 0.55319 0.0
C660 C 0.99946 0.45985 0.56256 0.0
H661 H 0.87426 0.3455 0.36747 0.0
H662 H 0.90917 0.37829 0.41283 0.0
C663 C 1.0168 0.47992 0.59338 0.0
C664 C 0.98476 0.41999 0.51454 0.0
H665 H 0.95517 0.40405 0.36563 0.0
C666 C 0.97413 0.39809 0.54509 0.0
C667 C 0.97826 0.42196 0.44807 0.0
C668 C 0.98999 0.44455 0.41016 0.0
C669 C 0.9565 0.37841 0.51239 0.0
C670 C 0.94947 0.38059 0.44694 0.0
C671 C 0.96054 0.40235 0.41572 0.0
C672 C 0.92928 0.36104 0.4126 0.0
C673 C 0.94486 0.35563 0.54925 0.0
C674 C 0.92915 0.34059 0.39451 0.0
C675 C 0.90909 0.3217 0.36764 0.0
C676 C 0.88882 0.32293 0.35886 0.0
C677 C 0.88952 0.34389 0.37369 0.0
C678 C 0.9095 0.3627 0.39986 0.0
H679 H 0.94949 0.35768 0.6034 0.0
H680 H 0.92577 0.34724 0.54462 0.0
H681 H 0.95027 0.34389 0.52667 0.0
H682 H 0.94434 0.33903 0.40276 0.0
H683 H 0.90908 0.30577 0.3573 0.0
H684 H 0.57584 0.59974 0.63593 0.0
H685 H 0.61106 0.6048 0.58194 0.0
H686 H 0.5765 0.53198 0.53659 0.0
H687 H 0.5412 0.52682 0.58908 0.0
H688 H 0.63959 0.5866 0.6004 0.0
H689 H 0.59719 0.56001 0.35178 0.0
H690 H 0.58395 0.56605 0.42193 0.0
H691 H 0.58244 0.53845 0.41513 0.0
C692 C 0.57581 0.58471 0.61544 0.0
C693 C 0.55551 0.56288 0.61652 0.0
C694 C 0.59597 0.58767 0.5842 0.0
C695 C 0.59629 0.56891 0.55331 0.0
C696 C 0.57653 0.54688 0.55807 0.0
H697 H 0.69085 0.5369 0.36013 0.0
H698 H 0.65798 0.53892 0.40567 0.0
C699 C 0.55637 0.54392 0.58884 0.0
C700 C 0.61702 0.57231 0.51506 0.0
H701 H 0.63402 0.56249 0.36231 0.0
C702 C 0.63845 0.58161 0.54811 0.0
C703 C 0.61565 0.56598 0.44651 0.0
C704 C 0.59363 0.5573 0.40652 0.0
C705 C 0.65816 0.58374 0.51553 0.0
C706 C 0.65654 0.57667 0.44773 0.0
C707 C 0.6353 0.56795 0.41419 0.0
C708 C 0.67607 0.57621 0.4128 0.0
C709 C 0.68036 0.59262 0.55468 0.0
C710 C 0.697 0.5966 0.39877 0.0
C711 C 0.71589 0.59551 0.37166 0.0
C712 C 0.71417 0.57399 0.35875 0.0
C713 C 0.69278 0.55376 0.36953 0.0
C714 C 0.67395 0.55487 0.3958 0.0
H715 H 0.67779 0.59387 0.60931 0.0
H716 H 0.68779 0.58116 0.54729 0.0
H717 H 0.69316 0.61009 0.53616 0.0
H718 H 0.69893 0.6133 0.41059 0.0
H719 H 0.73218 0.61138 0.36464 0.0
H720 H 0.52946 0.89305 0.75646 0.0
H721 H 0.56309 0.8907 0.79141 0.0
H722 H 0.60733 0.96286 0.74495 0.0
H723 H 0.57347 0.96552 0.70927 0.0
H724 H 0.60229 0.90069 0.71002 0.0
H725 H 0.62603 0.95531 0.93974 0.0
H726 H 0.59783 0.94311 0.90121 0.0
H727 H 0.62219 0.96759 0.86371 0.0
C728 C 0.54625 0.90859 0.75392 0.0
C729 C 0.54862 0.92956 0.73007 0.0
C730 C 0.56552 0.90714 0.77391 0.0
C731 C 0.5877 0.92659 0.77126 0.0
C732 C 0.5903 0.94767 0.74821 0.0
H733 H 0.71996 0.93895 0.8873 0.0
H734 H 0.68967 0.94658 0.84747 0.0
C735 C 0.57093 0.94915 0.72773 0.0
C736 C 0.60794 0.92426 0.79104 0.0
H737 H 0.64953 0.93946 0.91165 0.0
C738 C 0.6127 0.90925 0.75392 0.0
C739 C 0.62149 0.93544 0.8483 0.0
C740 C 0.61665 0.95117 0.89106 0.0
C741 C 0.63058 0.90505 0.7726 0.0
C742 C 0.64379 0.91578 0.83083 0.0
C743 C 0.63934 0.93117 0.86718 0.0
C744 C 0.6621 0.91103 0.8552 0.0
C745 C 0.6353 0.88931 0.72937 0.0
C746 C 0.65666 0.88855 0.8737 0.0
C747 C 0.67394 0.88414 0.89649 0.0
C748 C 0.697 0.90215 0.90143 0.0
C749 C 0.70237 0.92468 0.88364 0.0
C750 C 0.68508 0.92909 0.86102 0.0
H751 H 0.62827 0.88772 0.67782 0.0
H752 H 0.65414 0.89569 0.72583 0.0
H753 H 0.62684 0.8718 0.75206 0.0
H754 H 0.63898 0.87441 0.87093 0.0
H755 H 0.66926 0.86663 0.91017 0.0
H756 H 0.14056 0.63929 0.77743 0.0
H757 H 0.14337 0.67551 0.81221 0.0
H758 H 0.0784 0.65593 0.71525 0.0
H759 H 0.07544 0.61934 0.67917 0.0
H760 H 0.11698 0.70303 0.68639 0.0
H761 H 0.10385 0.68382 0.95937 0.0
H762 H 0.12468 0.678 0.92039 0.0
H763 H 0.09479 0.66145 0.89645 0.0
C764 C 0.12669 0.64246 0.7636 0.0
C765 C 0.10764 0.62618 0.72561 0.0
C766 C 0.12834 0.66324 0.78388 0.0
C767 C 0.11101 0.66834 0.76699 0.0
C768 C 0.09193 0.65226 0.7291 0.0
H769 H 0.10062 0.78296 0.93597 0.0
H770 H 0.09328 0.74525 0.89652 0.0
C771 C 0.09019 0.63129 0.70886 0.0
C772 C 0.11335 0.69077 0.78807 0.0
H773 H 0.11794 0.72283 0.92693 0.0
C774 C 0.11699 0.70733 0.73891 0.0
C775 C 0.11332 0.69631 0.8566 0.0
C776 C 0.10876 0.67893 0.9114 0.0
C777 C 0.12114 0.72949 0.75663 0.0
C778 C 0.12185 0.73528 0.82532 0.0
C779 C 0.11763 0.71849 0.87431 0.0
C780 C 0.12644 0.75847 0.84763 0.0
C781 C 0.12457 0.74647 0.70171 0.0
C782 C 0.14765 0.77852 0.83384 0.0
C783 C 0.15196 0.80019 0.85674 0.0
C784 C 0.13514 0.80215 0.89398 0.0
C785 C 0.11397 0.78205 0.90766 0.0
C786 C 0.10972 0.76046 0.88503 0.0
H787 H 0.11805 0.73773 0.65255 0.0
H788 H 0.11566 0.75628 0.71414 0.0
H789 H 0.14331 0.75903 0.69635 0.0
H790 H 0.161 0.77737 0.80614 0.0
H791 H 0.16847 0.81535 0.84563 0.0
H792 H 0.22594 0.36572 0.89319 0.0
H793 H 0.26426 0.39605 0.85584 0.0
H794 H 0.28921 0.34775 0.86629 0.0
H795 H 0.2509 0.31733 0.9025 0.0
H796 H 0.30633 0.4138 0.92158 0.0
H797 H 0.3097 0.37466 0.67898 0.0
H798 H 0.28322 0.36456 0.72577 0.0
H799 H 0.30395 0.35629 0.75075 0.0
C800 C 0.23957 0.36156 0.88713 0.0
C801 C 0.23537 0.33911 0.90034 0.0
C802 C 0.26147 0.3789 0.86582 0.0
C803 C 0.27957 0.37413 0.85709 0.0
C804 C 0.27543 0.35175 0.87097 0.0
H805 H 0.42393 0.46455 0.72495 0.0
H806 H 0.38784 0.43111 0.76548 0.0
C807 C 0.25354 0.3344 0.89206 0.0
C808 C 0.30294 0.39278 0.83571 0.0
H809 H 0.34378 0.40864 0.7123 0.0
C810 C 0.31449 0.41265 0.8758 0.0
C811 C 0.31376 0.39123 0.77631 0.0
C812 C 0.30199 0.37064 0.73006 0.0
C813 C 0.33645 0.43098 0.85822 0.0
C814 C 0.34705 0.42971 0.79794 0.0
C815 C 0.33573 0.40963 0.75851 0.0
C816 C 0.36906 0.44969 0.77295 0.0
C817 C 0.34814 0.45145 0.90495 0.0
C818 C 0.37039 0.47106 0.76216 0.0
C819 C 0.39088 0.49008 0.73984 0.0
C820 C 0.41065 0.48827 0.72646 0.0
C821 C 0.40916 0.46664 0.73527 0.0
C822 C 0.38853 0.44752 0.75834 0.0
H823 H 0.34184 0.44658 0.95733 0.0
H824 H 0.36722 0.45905 0.90464 0.0
H825 H 0.34408 0.46491 0.8886 0.0
H826 H 0.35546 0.47305 0.77075 0.0
H827 H 0.39107 0.50625 0.73251 0.0
H828 H 0.17719 0.35491 0.92661 0.0
H829 H 0.17214 0.38533 0.87546 0.0
H830 H 0.09875 0.34543 0.91215 0.0
H831 H 0.10374 0.31516 0.96511 0.0
H832 H 0.14861 0.38222 0.76409 0.0
H833 H 0.11124 0.4078 0.9731 0.0
H834 H 0.12424 0.39004 0.98602 0.0
H835 H 0.0952 0.3775 0.95419 0.0
C836 C 0.16001 0.35277 0.92525 0.0
C837 C 0.14091 0.33254 0.95056 0.0
C838 C 0.15713 0.37019 0.89554 0.0
C839 C 0.13508 0.3679 0.89009 0.0
C840 C 0.11603 0.34799 0.9169 0.0
H841 H 0.09336 0.46068 0.69511 0.0
H842 H 0.0919 0.42556 0.73982 0.0
C843 C 0.11893 0.33062 0.94725 0.0
C844 C 0.13205 0.38567 0.85262 0.0
H845 H 0.11184 0.42361 0.86596 0.0
C846 C 0.14055 0.39123 0.78658 0.0
C847 C 0.12136 0.39741 0.8813 0.0
C848 C 0.11267 0.39308 0.95273 0.0
C849 C 0.13892 0.40821 0.74899 0.0
C850 C 0.12863 0.42022 0.77806 0.0
C851 C 0.11957 0.4143 0.84339 0.0
C852 C 0.12906 0.44038 0.74402 0.0
C853 C 0.14828 0.41318 0.67831 0.0
C854 C 0.15034 0.46024 0.73037 0.0
C855 C 0.15119 0.48016 0.70497 0.0
C856 C 0.13077 0.48083 0.69237 0.0
C857 C 0.10938 0.46062 0.70315 0.0
C858 C 0.10855 0.44063 0.72938 0.0
H859 H 0.1491 0.39829 0.65658 0.0
H860 H 0.13753 0.4174 0.6451 0.0
H861 H 0.16611 0.42825 0.67895 0.0
H862 H 0.16641 0.46069 0.7421 0.0
H863 H 0.16797 0.49545 0.69774 0.0
H864 H 0.72132 0.79509 0.9631 0.0
H865 H 0.69118 0.76015 0.90802 0.0
H866 H 0.65064 0.79331 0.87757 0.0
H867 H 0.68087 0.82842 0.93078 0.0
H868 H 0.64565 0.73018 0.929 0.0
H869 H 0.6555 0.77548 0.688 0.0
H870 H 0.67561 0.78858 0.75653 0.0
H871 H 0.64861 0.78854 0.75605 0.0
C872 C 0.70583 0.79485 0.94566 0.0
C873 C 0.70368 0.81473 0.95103 0.0
C874 C 0.68864 0.77486 0.91375 0.0
C875 C 0.66889 0.77425 0.8866 0.0
C876 C 0.66603 0.79354 0.89588 0.0
H877 H 0.54136 0.67919 0.69846 0.0
H878 H 0.57623 0.71206 0.74377 0.0
C879 C 0.68327 0.81358 0.92711 0.0
C880 C 0.65148 0.75372 0.8477 0.0
H881 H 0.62231 0.7378 0.6981 0.0
C882 C 0.64075 0.7318 0.87822 0.0
C883 C 0.64516 0.75569 0.78102 0.0
C884 C 0.65699 0.77829 0.7432 0.0
C885 C 0.62322 0.71214 0.84528 0.0
C886 C 0.61638 0.71431 0.77956 0.0
C887 C 0.62753 0.73608 0.74839 0.0
C888 C 0.59628 0.69476 0.74488 0.0
C889 C 0.61146 0.68935 0.88215 0.0
C890 C 0.59615 0.67426 0.72746 0.0
C891 C 0.57612 0.65532 0.70063 0.0
C892 C 0.55588 0.65657 0.6912 0.0
C893 C 0.5566 0.67759 0.70519 0.0
C894 C 0.57655 0.69644 0.73134 0.0
H895 H 0.61589 0.69142 0.93644 0.0
H896 H 0.59238 0.68094 0.87689 0.0
H897 H 0.61698 0.67763 0.86009 0.0
H898 H 0.6113 0.67269 0.73632 0.0
H899 H 0.57608 0.63935 0.69095 0.0
H900 H 0.35709 0.86998 0.68244 0.0
H901 H 0.32399 0.87109 0.73014 0.0
H902 H 0.3662 0.94476 0.75828 0.0
H903 H 0.39927 0.94379 0.70801 0.0
H904 H 0.32149 0.8821 0.85581 0.0
H905 H 0.30799 0.94138 0.69131 0.0
H906 H 0.32615 0.92971 0.66703 0.0
H907 H 0.33682 0.95379 0.724 0.0
C908 C 0.35912 0.88655 0.69668 0.0
C909 C 0.38076 0.90683 0.6908 0.0
C910 C 0.3402 0.88715 0.72452 0.0
C911 C 0.34241 0.90799 0.74799 0.0
C912 C 0.36377 0.9285 0.73942 0.0
H913 H 0.24271 0.93142 0.97627 0.0
H914 H 0.27856 0.93604 0.92781 0.0
C915 C 0.38271 0.92796 0.71046 0.0
C916 C 0.32293 0.90758 0.7865 0.0
H917 H 0.28624 0.92944 0.79228 0.0
C918 C 0.31381 0.89246 0.84162 0.0
C919 C 0.31294 0.92125 0.76893 0.0
C920 C 0.32131 0.9373 0.70925 0.0
C921 C 0.29497 0.89041 0.87886 0.0
C922 C 0.28466 0.90367 0.86041 0.0
C923 C 0.29412 0.91927 0.80652 0.0
C924 C 0.2633 0.90062 0.894 0.0
C925 C 0.28634 0.87408 0.93794 0.0
C926 C 0.24279 0.87914 0.89185 0.0
C927 C 0.22232 0.8764 0.91975 0.0
C928 C 0.22174 0.89512 0.95035 0.0
C929 C 0.24247 0.91653 0.9539 0.0
C930 C 0.26299 0.91927 0.92568 0.0
H931 H 0.29991 0.87063 0.9576 0.0
H932 H 0.28049 0.88107 0.97931 0.0
H933 H 0.27146 0.85733 0.92174 0.0
H934 H 0.24241 0.86457 0.86675 0.0
H935 H 0.20676 0.85968 0.91546 0.0
H936 H 0.17309 0.02529 0.07589 0.0
H937 H 0.16812 0.05928 0.07062 0.0
H938 H 0.10769 0.02148 0.9464 0.0
H939 H 0.11263 0.98749 0.95089 0.0
H940 H 0.16234 0.0814 0.93779 0.0
H941 H 0.08945 0.04803 0.12037 0.0
H942 H 0.11023 0.03819 0.1205 0.0
H943 H 0.08881 0.02889 0.05559 0.0
C944 C 0.15882 0.02428 0.04718 0.0
C945 C 0.14326 1.00378 0.01372 0.0
C946 C 0.15601 0.04367 0.04424 0.0
C947 C 0.13746 0.04278 0.00851 0.0
C948 C 0.12203 0.02242 0.97452 0.0
H949 H 0.08619 0.13996 0.98881 0.0
H950 H 0.09044 0.10564 0.98268 0.0
C951 C 0.12494 1.00309 0.97693 0.0
C952 C 0.13422 0.06314 0.00691 0.0
H953 H 0.10142 0.08446 0.07236 0.0
C954 C 0.14904 0.08214 0.96708 0.0
C955 C 0.11666 0.06384 0.04458 0.0
C956 C 0.10035 0.04375 0.08806 0.0
C957 C 0.1467 0.10189 0.96358 0.0
C958 C 0.12956 0.10298 0.00299 0.0
C959 C 0.11459 0.08376 0.04232 0.0
C960 C 0.1271 0.12395 0.00515 0.0
C961 C 0.16229 0.12109 0.91633 0.0
C962 C 0.14616 0.14567 0.02065 0.0
C963 C 0.14387 0.16535 0.02271 0.0
C964 C 0.12229 0.16367 0.01127 0.0
C965 C 0.10305 0.14184 -0.00237 0.0
C966 C 0.10547 0.12221 -0.00581 0.0
H967 H 0.16836 0.11447 0.87446 0.0
H968 H 0.15339 0.12988 0.89467 0.0
H969 H 0.1778 0.13402 0.94416 0.0
H970 H 0.16283 0.14743 0.0319 0.0
H971 H 0.15894 0.18184 0.03461 0.0
H972 H 0.0471 0.13199 0.94091 0.0
H973 H 1.01289 0.09322 0.93569 0.0
H974 H 0.97714 0.11448 0.07282 0.0
H975 H 1.01139 0.15326 0.07904 0.0
H976 H 0.98696 0.06477 0.07457 0.0
H977 H 0.93688 0.08279 0.88382 0.0
H978 H 0.96815 0.09837 0.88435 0.0
H979 H 0.95266 0.10391 0.94818 0.0
C980 C 0.03192 0.12844 0.96973 0.0
C981 C 0.0319 0.14561 0.01052 0.0
C982 C 1.01245 0.10631 0.96673 0.0
C983 C 0.99258 0.1011 0.00382 0.0
C984 C 0.99235 0.11827 0.0438 0.0
H985 H 0.85442 0.9835 0.02533 0.0
H986 H 0.88914 0.02161 0.02377 0.0
C987 C 1.01189 0.14036 0.04727 0.0
C988 C 0.97223 0.07753 0.00196 0.0
H989 H 0.91915 0.04532 0.92971 0.0
C990 C 0.97211 0.06039 0.04285 0.0
C991 C 0.95295 0.07211 0.9609 0.0
C992 C 0.95246 0.09014 0.91647 0.0
C993 C 0.95291 0.03789 0.04466 0.0
C994 C 0.93362 0.03226 0.00275 0.0
C995 C 0.93392 0.04953 0.96157 0.0
C996 C 0.9126 1.00887 0.00255 0.0
C997 C 0.95325 0.02071 0.09322 0.0
C998 C 0.91407 0.98892 0.9901 0.0
C999 C 0.89422 0.967 0.99205 0.0
C1000 C 0.87243 0.96465 0.00481 0.0
C1001 C 0.87092 0.98469 0.01507 0.0
C1002 C 0.89078 1.00652 0.01425 0.0
H1003 H 0.96582 0.02947 0.13462 0.0
H1004 H 0.93591 1.00946 0.11548 0.0
H1005 H 0.95858 1.0096 0.06617 0.0
H1006 H 0.93056 0.99027 0.97881 0.0
H1007 H 0.89591 0.95192 0.98307 0.0
H1008 H 0.87983 0.8601 0.99088 0.0
H1009 H 0.91851 0.86435 0.98719 0.0
H1010 H 0.9481 0.9344 0.05925 0.0
H1011 H 0.90955 0.92998 0.06525 0.0
H1012 H 0.95677 0.89397 0.91667 0.0
H1013 H 0.97553 0.90858 0.18908 0.0
H1014 H 0.94699 0.89843 0.15517 0.0
H1015 H 0.96834 0.9287 0.15238 0.0
C1016 C 0.89461 0.87633 0.0063 0.0
C1017 C 0.89171 0.89463 0.02896 0.0
C1018 C 0.91667 0.87876 0.00408 0.0
C1019 C 0.93616 0.89954 0.02425 0.0
C1020 C 0.93328 0.91799 0.04534 0.0
H1021 H 0.08395 0.9504 0.04017 0.0
H1022 H 0.04551 0.94649 0.03807 0.0
C1023 C 0.91125 0.91549 0.04833 0.0
C1024 C 0.95955 0.9021 0.02212 0.0
H1025 H 1.00713 0.91585 0.11818 0.0
C1026 C 0.96773 0.89861 0.96081 0.0
C1027 C 0.97385 0.90818 0.07978 0.0
C1028 C 0.96566 0.91097 0.14795 0.0
C1029 C 0.98998 0.90145 0.95531 0.0
C1030 C 1.0043 0.90772 0.01282 0.0
C1031 C 0.99614 0.91119 0.07409 0.0
C1032 C 0.02765 0.91027 0.01105 0.0
C1033 C 0.99813 0.89809 0.8878 0.0
C1034 C 0.0303 0.89116 -0.00311 0.0
C1035 C 0.0522 0.8933 -0.00193 0.0
C1036 C 0.07193 0.9146 0.01385 0.0
C1037 C 0.06919 0.93375 0.02781 0.0
C1038 C 0.04723 0.93156 0.02664 0.0
H1039 H 0.98761 0.89911 0.84608 0.0
H1040 H 1.01656 0.91123 0.87933 0.0
H1041 H 0.99655 0.88075 0.88618 0.0
H1042 H 1.01535 0.87446 0.98606 0.0
H1043 H 0.0536 0.87814 0.98748 0.0
H1044 H 0.84031 0.3584 0.30351 0.0
H1045 H 0.83606 0.39285 0.3003 0.0
H1046 H 0.7714 0.35574 0.40706 0.0
H1047 H 0.77578 0.32156 0.41163 0.0
H1048 H 0.80174 0.39926 0.24523 0.0
H1049 H 0.80633 0.41353 0.52035 0.0
H1050 H 0.81429 0.3941 0.48153 0.0
H1051 H 0.78435 0.385 0.49627 0.0
C1052 C 0.82526 0.35768 0.32649 0.0
C1053 C 0.8085 0.33742 0.35841 0.0
C1054 C 0.82283 0.37733 0.32457 0.0
C1055 C 0.80364 0.37701 0.35459 0.0
C1056 C 0.78665 0.35659 0.38514 0.0
H1057 H 0.7537 0.47435 0.39042 0.0
H1058 H 0.75768 0.43983 0.38784 0.0
C1059 C 0.78913 0.33704 0.38744 0.0
C1060 C 0.80112 0.39787 0.3533 0.0
H1061 H 0.7943 0.43537 0.45439 0.0
C1062 C 0.80026 0.40724 0.29094 0.0
C1063 C 0.79922 0.4083 0.41303 0.0
C1064 C 0.80132 0.39987 0.48159 0.0
C1065 C 0.79705 0.42646 0.28673 0.0
C1066 C 0.79484 0.43664 0.34643 0.0
C1067 C 0.7958 0.42736 0.40873 0.0
C1068 C 0.79211 0.45734 0.34549 0.0
C1069 C 0.79566 0.43552 0.2185 0.0
C1070 C 0.81022 0.4786 0.32288 0.0
C1071 C 0.80809 0.49836 0.3246 0.0
C1072 C 0.78777 0.49728 0.34902 0.0
C1073 C 0.76957 0.47585 0.37125 0.0
C1074 C 0.7718 0.45609 0.36984 0.0
H1075 H 0.79257 0.42285 0.17802 0.0
H1076 H 0.78163 0.43986 0.21721 0.0
H1077 H 0.81223 0.45155 0.20778 0.0
H1078 H 0.82617 0.47998 0.30487 0.0
H1079 H 0.82249 0.51454 0.30721 0.0
H1080 H 0.6761 0.48889 0.39959 0.0
H1081 H 0.64221 0.44979 0.39581 0.0
H1082 H 0.68244 0.42513 0.29274 0.0
H1083 H 0.71632 0.46414 0.29571 0.0
H1084 H 0.62561 0.41734 0.25482 0.0
H1085 H 0.64939 0.38669 0.48575 0.0
H1086 H 0.65728 0.41664 0.47555 0.0
H1087 H 0.67151 0.40496 0.42656 0.0
C1088 C 0.67766 0.47515 0.3758 0.0
C1089 C 0.69878 0.47951 0.34784 0.0
C1090 C 0.65834 0.4529 0.37368 0.0
C1091 C 0.65996 0.4347 0.34419 0.0
C1092 C 0.68094 0.43903 0.31565 0.0
H1093 H 0.56439 0.28606 0.35103 0.0
H1094 H 0.59878 0.32454 0.34439 0.0
C1095 C 0.7002 0.46129 0.31726 0.0
C1096 C 0.63979 0.41105 0.34399 0.0
H1097 H 0.61507 0.36018 0.43061 0.0
C1098 C 0.62322 0.40478 0.29311 0.0
C1099 C 0.63704 0.39478 0.39362 0.0
C1100 C 0.65465 0.40092 0.44879 0.0
C1101 C 0.60378 0.38248 0.2906 0.0
C1102 C 0.6006 0.36629 0.34145 0.0
C1103 C 0.61744 0.37258 0.39183 0.0
C1104 C 0.57972 0.34292 0.34416 0.0
C1105 C 0.5871 0.37641 0.23277 0.0
C1106 C 0.55759 0.34044 0.34719 0.0
C1107 C 0.53793 0.31851 0.35022 0.0
C1108 C 0.53997 0.29853 0.35151 0.0
C1109 C 0.56218 0.30105 0.34988 0.0
C1110 C 0.58186 0.32304 0.34612 0.0
H1111 H 0.59556 0.38762 0.18848 0.0
H1112 H 0.57981 0.35808 0.21742 0.0
H1113 H 0.57263 0.37906 0.24825 0.0
H1114 H 0.5555 0.3555 0.34789 0.0
H1115 H 0.52113 0.31726 0.3524 0.0
H1116 H 0.57192 0.2568 0.28142 0.0
H1117 H 0.61066 0.26132 0.27476 0.0
H1118 H 0.58813 0.20068 0.39784 0.0
H1119 H 0.54937 0.19617 0.40549 0.0
H1120 H 0.63837 0.26149 0.40761 0.0
H1121 H 0.62084 0.19534 0.21116 0.0
H1122 H 0.60469 0.21041 0.2155 0.0
H1123 H 0.59977 0.18872 0.27659 0.0
C1124 C 0.57518 0.24434 0.30671 0.0
C1125 C 0.55766 0.22613 0.34402 0.0
C1126 C 0.59729 0.24699 0.30294 0.0
C1127 C 0.60214 0.2313 0.33566 0.0
C1128 C 0.58462 0.21289 0.37208 0.0
H1129 H 0.71984 0.2108 0.3545 0.0
H1130 H 0.68168 0.2073 0.35281 0.0
C1131 C 0.56255 0.21036 0.37641 0.0
C1132 C 0.62572 0.23454 0.33339 0.0
H1133 H 0.65806 0.21421 0.25917 0.0
C1134 C 0.6428 0.25126 0.37508 0.0
C1135 C 0.63121 0.22099 0.29127 0.0
C1136 C 0.61328 0.20286 0.24569 0.0
C1137 C 0.66529 0.25453 0.37676 0.0
C1138 C 0.67099 0.24118 0.33384 0.0
C1139 C 0.65379 0.22452 0.29182 0.0
C1140 C 0.69438 0.24359 0.33336 0.0
C1141 C 0.68239 0.27168 0.42626 0.0
C1142 C 0.71432 0.26509 0.32185 0.0
C1143 C 0.73627 0.26723 0.32383 0.0
C1144 C 0.73867 0.24777 0.3357 0.0
C1145 C 0.71864 0.22613 0.34495 0.0
C1146 C 0.69677 0.2241 0.34405 0.0
H1147 H 0.67354 0.27516 0.46807 0.0
H1148 H 0.69359 0.2654 0.4479 0.0
H1149 H 0.69357 0.2883 0.4002 0.0
H1150 H 0.71294 0.28027 0.3114 0.0
H1151 H 0.75134 0.2841 0.31585 0.0
H1152 H 0.48778 0.84718 0.62317 0.0
H1153 H 0.49144 0.81262 0.619 0.0
H1154 H 0.42627 0.77396 0.72234 0.0
H1155 H 0.42209 0.80824 0.7249 0.0
H1156 H 0.49484 0.78838 0.72016 0.0
H1157 H 0.41704 0.73073 0.57046 0.0
H1158 H 0.42769 0.76134 0.57813 0.0
H1159 H 0.41031 0.74182 0.64377 0.0
C1160 C 0.47408 0.83128 0.64445 0.0
C1161 C 0.45459 0.83051 0.67416 0.0
C1162 C 0.47622 0.81152 0.64205 0.0
C1163 C 0.45898 0.79056 0.66939 0.0
C1164 C 0.43952 0.78973 0.69925 0.0
H1165 H 0.44676 0.65824 0.75692 0.0
H1166 H 0.44267 0.6926 0.74868 0.0
C1167 C 0.43724 0.80944 0.7011 0.0
C1168 C 0.46197 0.76995 0.66958 0.0
H1169 H 0.43589 0.7129 0.6257 0.0
C1170 C 0.48204 0.77194 0.69892 0.0
C1171 C 0.44528 0.74848 0.64181 0.0
C1172 C 0.42399 0.74548 0.60617 0.0
C1173 C 0.48561 0.75296 0.70264 0.0
C1174 C 0.46874 0.73146 0.67599 0.0
C1175 C 0.44875 0.72944 0.64624 0.0
C1176 C 0.47129 0.7107 0.67999 0.0
C1177 C 0.50714 0.75587 0.73648 0.0
C1178 C 0.48864 0.70945 0.64357 0.0
C1179 C 0.49096 0.68979 0.64794 0.0
C1180 C 0.47599 0.67112 0.68894 0.0
C1181 C 0.45859 0.6724 0.7251 0.0
C1182 C 0.45619 0.69197 0.72035 0.0
H1183 H 0.51628 0.77228 0.7653 0.0
H1184 H 0.50281 0.74121 0.77106 0.0
H1185 H 0.51916 0.75601 0.69778 0.0
H1186 H 0.50029 0.72365 0.61155 0.0
H1187 H 0.50448 0.68922 0.61943 0.0
H1188 H 0.19093 0.64597 0.61563 0.0
H1189 H 0.22553 0.68418 0.6107 0.0
H1190 H 0.26121 0.66068 0.74107 0.0
H1191 H 0.22691 0.6222 0.74453 0.0
H1192 H 0.24716 0.71446 0.70805 0.0
H1193 H 0.30849 0.69089 0.59614 0.0
H1194 H 0.27775 0.67099 0.59907 0.0
H1195 H 0.2955 0.67511 0.67171 0.0
C1196 C 0.2062 0.64885 0.64284 0.0
C1197 C 0.20617 0.63094 0.68015 0.0
C1198 C 0.22598 0.67074 0.63996 0.0
C1199 C 0.24616 0.67526 0.67452 0.0
C1200 C 0.24612 0.65747 0.71231 0.0
H1201 H 0.37677 0.79683 0.76588 0.0
H1202 H 0.34239 0.75839 0.7587 0.0
C1203 C 0.22642 0.63548 0.71458 0.0
C1204 C 0.2668 0.69887 0.67345 0.0
H1205 H 0.32494 0.72884 0.64267 0.0
C1206 C 0.26412 0.71761 0.69312 0.0
C1207 C 0.28895 0.70304 0.65384 0.0
C1208 C 0.29284 0.68397 0.62835 0.0
C1209 C 0.28304 0.74024 0.69542 0.0
C1210 C 0.30521 0.74428 0.67714 0.0
C1211 C 0.3079 0.72565 0.65687 0.0
C1212 C 0.32597 0.76766 0.6806 0.0
C1213 C 0.27928 0.75957 0.71907 0.0
C1214 C 0.32821 0.78557 0.6386 0.0
C1215 C 0.34788 0.80758 0.64255 0.0
C1216 C 0.36559 0.81199 0.68855 0.0
C1217 C 0.36334 0.79397 0.73017 0.0
C1218 C 0.34376 0.77199 0.72602 0.0
H1219 H 0.26225 0.75296 0.74412 0.0
H1220 H 0.29313 0.77108 0.75453 0.0
H1221 H 0.27987 0.77012 0.67523 0.0
H1222 H 0.31482 0.78247 0.60251 0.0
H1223 H 0.34922 0.82113 0.60968 0.0
H1224 H 0.41631 0.61579 0.71836 0.0
H1225 H 0.3776 0.61122 0.71676 0.0
H1226 H 0.35026 0.5434 0.62966 0.0
H1227 H 0.38866 0.54752 0.63244 0.0
H1228 H 0.34748 0.60374 0.61339 0.0
H1229 H 0.30868 0.52992 0.79114 0.0
H1230 H 0.33947 0.54719 0.77817 0.0
H1231 H 0.32172 0.52487 0.71925 0.0
C1232 C 0.40209 0.59989 0.69887 0.0
C1233 C 0.40563 0.58194 0.67616 0.0
C1234 C 0.37996 0.59732 0.69795 0.0
C1235 C 0.36095 0.57678 0.6744 0.0
C1236 C 0.36455 0.55915 0.64972 0.0
H1237 H 0.21397 0.53014 0.63104 0.0
H1238 H 0.25273 0.53465 0.62269 0.0
C1239 C 0.3866 0.56163 0.65097 0.0
C1240 C 0.33737 0.57379 0.67552 0.0
H1241 H 0.28278 0.53931 0.73668 0.0
C1242 C 0.33336 0.58971 0.64053 0.0
C1243 C 0.31895 0.55545 0.71103 0.0
C1244 C 0.32241 0.53851 0.75257 0.0
C1245 C 0.31136 0.58763 0.63946 0.0
C1246 C 0.29298 0.56926 0.67468 0.0
C1247 C 0.29692 0.55327 0.70935 0.0
C1248 C 0.26969 0.56678 0.67819 0.0
C1249 C 0.30783 0.60493 0.60011 0.0
C1250 C 0.26644 0.58322 0.71278 0.0
C1251 C 0.24439 0.58059 0.71808 0.0
C1252 C 0.22521 0.56151 0.68865 0.0
C1253 C 0.22848 0.54505 0.65396 0.0
C1254 C 0.25055 0.5476 0.64918 0.0
H1255 H 0.32212 0.61477 0.56395 0.0
H1256 H 0.29121 0.59619 0.57216 0.0
H1257 H 0.30716 0.61745 0.63538 0.0
H1258 H 0.28094 0.59796 0.73635 0.0
H1259 H 0.24238 0.59353 0.74519 0.0
H1260 H 0.1672 0.25825 0.77167 0.0
H1261 H 0.16171 0.25126 0.6511 0.0
H1262 H 0.09766 0.25217 0.66164 0.0
H1263 H 0.10305 0.25942 0.78264 0.0
H1264 H 0.12437 0.21482 0.58032 0.0
H1265 H 0.13595 0.30115 0.51745 0.0
H1266 H 0.14423 0.2949 0.59766 0.0
H1267 H 0.11434 0.28501 0.5798 0.0
C1268 C 0.1519 0.25696 0.74856 0.0
C1269 C 0.13565 0.2596 0.78676 0.0
C1270 C 0.1488 0.25291 0.67966 0.0
C1271 C 0.12948 0.25155 0.64757 0.0
C1272 C 0.1129 0.25358 0.68554 0.0
H1273 H 0.0874 0.23216 0.22991 0.0
H1274 H 0.0897 0.23697 0.35177 0.0
C1275 C 0.11596 0.2576 0.75464 0.0
C1276 C 0.12695 0.24822 0.57415 0.0
H1277 H 0.12638 0.27464 0.42803 0.0
C1278 C 0.12479 0.22786 0.54693 0.0
C1279 C 0.12759 0.26535 0.53102 0.0
C1280 C 0.13084 0.28794 0.55766 0.0
C1281 C 0.12308 0.2241 0.47739 0.0
C1282 C 0.12387 0.24129 0.43433 0.0
C1283 C 0.12581 0.26154 0.46151 0.0
C1284 C 0.12276 0.2386 0.3607 0.0
C1285 C 0.12019 0.20169 0.45046 0.0
C1286 C 0.14083 0.23833 0.32561 0.0
C1287 C 0.13966 0.23569 0.25591 0.0
C1288 C 0.12035 0.23324 0.2203 0.0
C1289 C 0.10245 0.23387 0.25578 0.0
C1290 C 0.10372 0.23663 0.32536 0.0
H1291 H 0.115 0.18838 0.49039 0.0
H1292 H 0.10701 0.19478 0.40987 0.0
H1293 H 0.13685 0.20486 0.4289 0.0
H1294 H 0.15582 0.24018 0.35218 0.0
H1295 H 0.15375 0.23532 0.23012 0.0
H1296 H 0.79818 0.92393 0.22828 0.0
H1297 H 0.79361 0.92187 0.35043 0.0
H1298 H 0.80225 0.86208 0.35523 0.0
H1299 H 0.80712 0.86409 0.23358 0.0
H1300 H 0.76047 0.88524 0.42769 0.0
H1301 H 0.84936 0.90522 0.49429 0.0
H1302 H 0.84182 0.91049 0.41167 0.0
H1303 H 0.83481 0.88178 0.43592 0.0
C1304 C 0.79915 0.91036 0.25528 0.0
C1305 C 0.80314 0.89425 0.22114 0.0
C1306 C 0.79656 0.90924 0.32504 0.0
C1307 C 0.79801 0.89209 0.36179 0.0
C1308 C 0.8016 0.87577 0.32786 0.0
H1309 H 0.77886 0.85217 0.7827 0.0
H1310 H 0.78569 0.85466 0.66124 0.0
C1311 C 0.80422 0.87687 0.25824 0.0
C1312 C 0.79504 0.89078 0.43549 0.0
H1313 H 0.82195 0.89263 0.58315 0.0
C1314 C 0.77393 0.88697 0.46174 0.0
C1315 C 0.81266 0.89298 0.47958 0.0
C1316 C 0.83602 0.89805 0.45413 0.0
C1317 C 0.76982 0.88496 0.53108 0.0
C1318 C 0.78741 0.88713 0.57513 0.0
C1319 C 0.80851 0.89089 0.54899 0.0
C1320 C 0.78434 0.88613 0.64868 0.0
C1321 C 0.74657 0.88019 0.5567 0.0
C1322 C 0.78186 0.90329 0.68157 0.0
C1323 C 0.77797 0.90195 0.75061 0.0
C1324 C 0.77657 0.88344 0.78817 0.0
C1325 C 0.77973 0.86658 0.75523 0.0
C1326 C 0.78365 0.86797 0.68596 0.0
H1327 H 0.73329 0.87364 0.51635 0.0
H1328 H 0.74048 0.86736 0.59819 0.0
H1329 H 0.74816 0.89644 0.57652 0.0
H1330 H 0.78275 0.91764 0.65367 0.0
H1331 H 0.77582 0.91535 0.7743 0.0
H1332 H 0.18822 0.93248 0.78019 0.0
H1333 H 0.18605 0.93764 0.65904 0.0
H1334 H 0.11769 0.87772 0.65395 0.0
H1335 H 0.11954 0.8725 0.77442 0.0
H1336 H 0.17931 0.90423 0.55974 0.0
H1337 H 0.11005 0.92712 0.552 0.0
H1338 H 0.12587 0.9291 0.62768 0.0
H1339 H 0.10276 0.90157 0.59987 0.0
C1340 C 0.17262 0.92058 0.75341 0.0
C1341 C 0.15407 0.90206 0.78694 0.0
C1342 C 0.17144 0.92353 0.6843 0.0
C1343 C 0.15161 0.90821 0.64796 0.0
C1344 C 0.13297 0.88996 0.68141 0.0
H1345 H 0.11094 0.88264 0.23024 0.0
H1346 H 0.11397 0.88041 0.35237 0.0
C1347 C 0.13415 0.88693 0.75023 0.0
C1348 C 0.15082 0.9103 0.57434 0.0
H1349 H 0.12016 0.91697 0.4478 0.0
C1350 C 0.16655 0.90724 0.53517 0.0
C1351 C 0.13403 0.91407 0.54276 0.0
C1352 C 0.11733 0.91837 0.58267 0.0
C1353 C 0.16558 0.90736 0.46486 0.0
C1354 C 0.14862 0.91087 0.43333 0.0
C1355 C 0.13302 0.91411 0.47244 0.0
C1356 C 0.14716 0.91178 0.35961 0.0
C1357 C 0.18232 0.9032 0.42472 0.0
C1358 C 0.16482 0.93018 0.32382 0.0
C1359 C 0.16314 0.93157 0.25438 0.0
C1360 C 0.14372 0.91456 0.21951 0.0
C1361 C 0.12615 0.89597 0.25557 0.0
C1362 C 0.1278 0.89469 0.32524 0.0
H1363 H 0.19099 0.89602 0.4562 0.0
H1364 H 0.1733 0.89112 0.38254 0.0
H1365 H 0.19584 0.91982 0.40305 0.0
H1366 H 0.17976 0.94366 0.34978 0.0
H1367 H 0.177 0.94611 0.22816 0.0
H1368 H 0.75244 0.56014 0.56953 0.0
H1369 H 0.75566 0.56511 0.69124 0.0
H1370 H 0.82601 0.57911 0.68334 0.0
H1371 H 0.82312 0.57422 0.561 0.0
H1372 H 0.78526 0.54054 0.78593 0.0
H1373 H 0.80622 0.63252 0.78772 0.0
H1374 H 0.78566 0.61265 0.7276 0.0
H1375 H 0.81558 0.62101 0.7203 0.0
C1376 C 0.76867 0.56435 0.59338 0.0
C1377 C 0.78756 0.56681 0.5554 0.0
C1378 C 0.77041 0.56714 0.66291 0.0
C1379 C 0.79103 0.57246 0.69569 0.0
C1380 C 0.80995 0.57496 0.65844 0.0
H1381 H 0.83158 0.5866 0.11165 0.0
H1382 H 0.82655 0.57893 0.99127 0.0
C1383 C 0.80826 0.5722 0.58869 0.0
C1384 C 0.79269 0.57541 0.7691 0.0
H1385 H 0.80166 0.61439 0.89252 0.0
C1386 C 0.78892 0.55666 0.80949 0.0
C1387 C 0.79721 0.59641 0.79898 0.0
C1388 C 0.80148 0.61693 0.75681 0.0
C1389 C 0.78951 0.5584 0.87976 0.0
C1390 C 0.79431 0.57952 0.90978 0.0
C1391 C 0.79793 0.59821 0.86917 0.0
C1392 C 0.79641 0.58288 0.98327 0.0
C1393 C 0.78465 0.53756 0.92138 0.0
C1394 C 0.78119 0.58783 0.0184 0.0
C1395 C 0.784 0.59226 0.08737 0.0
C1396 C 0.80228 0.59209 0.12203 0.0
C1397 C 0.81734 0.58691 0.08654 0.0
C1398 C 0.81443 0.58237 0.0178 0.0
H1399 H 0.7758 0.52133 0.89163 0.0
H1400 H 0.80123 0.53961 0.94008 0.0
H1401 H 0.77377 0.53589 0.96554 0.0
H1402 H 0.76725 0.58842 0.9923 0.0
H1403 H 0.77215 0.59625 0.11317 0.0
H1404 H 0.45544 0.2535 0.11451 0.0
H1405 H 0.46222 0.25532 -0.00648 0.0
H1406 H 0.44492 0.1839 -0.00626 0.0
H1407 H 0.43815 0.18183 0.11515 0.0
H1408 H 0.49372 0.24077 0.91858 0.0
H1409 H 0.39969 0.19315 0.85629 0.0
H1410 H 0.41054 0.20844 0.93469 0.0
H1411 H 0.40983 0.18157 0.92118 0.0
C1412 C 0.4532 0.2382 0.08899 0.0
C1413 C 0.44613 0.21747 0.12423 0.0
C1414 C 0.45714 0.23932 0.02004 0.0
C1415 C 0.45387 0.21971 0.98527 0.0
C1416 C 0.44738 0.19914 0.0202 0.0
H1417 H 0.48386 0.2039 0.57394 0.0
H1418 H 0.47908 0.20195 0.69569 0.0
C1419 C 0.4436 0.19803 0.08938 0.0
C1420 C 0.45661 0.22067 0.91193 0.0
H1421 H 0.42589 0.20445 0.76575 0.0
C1422 C 0.47896 0.2328 0.88499 0.0
C1423 C 0.4372 0.21043 0.86892 0.0
C1424 C 0.41289 0.19773 0.8963 0.0
C1425 C 0.48242 0.23475 0.81537 0.0
C1426 C 0.46302 0.22429 0.77234 0.0
C1427 C 0.44066 0.21236 0.79932 0.0
C1428 C 0.46564 0.22542 0.69892 0.0
C1429 C 0.50671 0.24816 0.78808 0.0
C1430 C 0.45928 0.23901 0.66089 0.0
C1431 C 0.46202 0.24025 0.59125 0.0
C1432 C 0.47096 0.2277 0.55877 0.0
C1433 C 0.47693 0.21379 0.59731 0.0
C1434 C 0.47432 0.2127 0.66685 0.0
H1435 H 0.51949 0.25838 0.82773 0.0
H1436 H 0.51161 0.23594 0.76612 0.0
H1437 H 0.50771 0.26005 0.74754 0.0
H1438 H 0.45243 0.24883 0.68522 0.0
H1439 H 0.45718 0.25105 0.56299 0.0
H1440 H 0.7869 0.21307 0.55878 0.0
H1441 H 0.7893 0.21072 0.68087 0.0
H1442 H 0.83307 0.2848 0.69124 0.0
H1443 H 0.83124 0.28731 0.5694 0.0
H1444 H 0.84981 0.26189 0.76488 0.0
H1445 H 0.75712 0.22822 0.82283 0.0
H1446 H 0.76196 0.21098 0.76308 0.0
H1447 H 0.7695 0.2401 0.74182 0.0
C1448 C 0.79697 0.22886 0.58707 0.0
C1449 C 0.80886 0.25036 0.5544 0.0
C1450 C 0.79819 0.22751 0.65683 0.0
C1451 C 0.81103 0.24764 0.69506 0.0
C1452 C 0.82299 0.26908 0.66258 0.0
H1453 H 0.84391 0.27092 0.12376 0.0
H1454 H 0.84114 0.27667 0.00334 0.0
C1455 C 0.82194 0.27045 0.59292 0.0
C1456 C 0.81275 0.24633 0.76876 0.0
H1457 H 0.78068 0.22798 0.91222 0.0
C1458 C 0.83474 0.25463 0.79727 0.0
C1459 C 0.79303 0.23694 0.81066 0.0
C1460 C 0.76909 0.22875 0.78321 0.0
C1461 C 0.8375 0.2531 0.86653 0.0
C1462 C 0.81773 0.24336 0.90832 0.0
C1463 C 0.79578 0.2354 0.87992 0.0
C1464 C 0.81927 0.24026 0.98128 0.0
C1465 C 0.86144 0.26125 0.89393 0.0
C1466 C 0.80737 0.21799 0.00888 0.0
C1467 C 0.80864 0.21469 0.07749 0.0
C1468 C 0.82193 0.23363 0.11988 0.0
C1469 C 0.83375 0.25598 0.09223 0.0
C1470 C 0.83227 0.25928 0.02348 0.0
H1471 H 0.87374 0.26294 0.85378 0.0
H1472 H 0.86809 0.2785 0.9174 0.0
H1473 H 0.86115 0.2492 0.93284 0.0
H1474 H 0.79723 0.2031 0.97713 0.0
H1475 H 0.79938 0.19724 0.09714 0.0
H1476 H 0.50688 0.94649 0.42925 0.0
H1477 H 0.50152 0.9383 0.30929 0.0
H1478 H 0.42749 0.90112 0.33666 0.0
H1479 H 0.43274 0.90994 0.4571 0.0
H1480 H 0.48122 0.89708 0.24516 0.0
H1481 H 0.43486 0.94462 0.1857 0.0
H1482 H 0.44921 0.94776 0.26505 0.0
H1483 H 0.42133 0.92284 0.24925 0.0
C1484 C 0.48943 0.93663 0.40979 0.0
C1485 C 0.4702 0.92892 0.45248 0.0
C1486 C 0.48641 0.93196 0.34122 0.0
C1487 C 0.46413 0.91936 0.31394 0.0
C1488 C 0.44484 0.91136 0.35647 0.0
H1489 H 0.41725 0.87973 0.90455 0.0
H1490 H 0.42024 0.88401 0.02627 0.0
C1491 C 0.44785 0.91632 0.4252 0.0
C1492 C 0.46137 0.91443 0.24103 0.0
H1493 H 0.43911 0.92344 0.09749 0.0
C1494 C 0.47201 0.90283 0.21278 0.0
C1495 C 0.44932 0.92193 0.19906 0.0
C1496 C 0.43819 0.93516 0.22606 0.0
C1497 C 0.47088 0.89845 0.14361 0.0
C1498 C 0.45908 0.90623 0.10156 0.0
C1499 C 0.44819 0.91756 0.12992 0.0
C1500 C 0.45766 0.90278 0.02794 0.0
C1501 C 0.48202 0.88525 0.11652 0.0
C1502 C 0.47775 0.91195 0.98841 0.0
C1503 C 0.47612 0.90933 0.91861 0.0
C1504 C 0.45435 0.8979 0.88727 0.0
C1505 C 0.4343 0.88882 0.92709 0.0
C1506 C 0.43595 0.89119 -0.0033 0.0
H1507 H 0.48439 0.87498 0.15641 0.0
H1508 H 0.47155 0.87341 0.07537 0.0
H1509 H 0.49935 0.89768 0.09624 0.0
H1510 H 0.49468 0.92147 0.0114 0.0
H1511 H 0.49185 0.91663 0.88915 0.0
H1512 H 0.11631 0.52061 0.45078 0.0
H1513 H 0.12381 0.52342 0.32967 0.0
H1514 H 0.11264 0.58157 0.31777 0.0
H1515 H 0.10553 0.57922 0.43809 0.0
H1516 H 0.09345 0.51969 0.22798 0.0
H1517 H 0.17361 0.60525 0.21842 0.0
H1518 H 0.16258 0.58923 0.29559 0.0
H1519 H 0.15028 0.60568 0.26175 0.0
C1520 C 0.11566 0.53412 0.42246 0.0
C1521 C 0.11039 0.54972 0.45421 0.0
C1522 C 0.11995 0.53569 0.35336 0.0
C1523 C 0.11914 0.55294 0.31512 0.0
C1524 C 0.1139 0.5685 0.34666 0.0
H1525 H 0.129 0.58888 0.89334 0.0
H1526 H 0.1234 0.58611 0.01528 0.0
C1527 C 0.1097 0.56701 0.41551 0.0
C1528 C 0.12247 0.55398 0.24157 0.0
H1529 H 0.15474 0.58967 0.11399 0.0
C1530 C 0.10697 0.53489 0.20299 0.0
C1531 C 0.14003 0.57392 0.20931 0.0
C1532 C 0.15771 0.59461 0.24841 0.0
C1533 C 0.10821 0.5354 0.13269 0.0
C1534 C 0.12569 0.55539 0.10039 0.0
C1535 C 0.14128 0.57443 0.13899 0.0
C1536 C 0.12845 0.5567 0.02661 0.0
C1537 C 0.09045 0.51474 0.09363 0.0
C1538 C 0.1333 0.5412 0.99295 0.0
C1539 C 0.13639 0.54264 0.92355 0.0
C1540 C 0.13495 0.55982 0.88644 0.0
C1541 C 0.13017 0.57542 0.92038 0.0
C1542 C 0.127 0.57389 0.98998 0.0
H1543 H 0.07472 0.5039 0.12404 0.0
H1544 H 0.08528 0.52018 0.04714 0.0
H1545 H 0.09798 0.50386 0.07904 0.0
H1546 H 0.135 0.52814 0.02051 0.0
H1547 H 0.14019 0.53043 0.89918 0.0
H1548 H 0.51557 0.60279 0.45064 0.0
H1549 H 0.51267 0.60772 0.3297 0.0
H1550 H 0.45565 0.5378 0.31626 0.0
H1551 H 0.45809 0.5328 0.43646 0.0
H1552 H 0.5173 0.58238 0.22686 0.0
H1553 H 0.43042 0.57398 0.21871 0.0
H1554 H 0.44649 0.579 0.29582 0.0
H1555 H 0.43069 0.55037 0.26089 0.0
C1556 C 0.5023 0.58854 0.42201 0.0
C1557 C 0.48701 0.56745 0.45332 0.0
C1558 C 0.50066 0.59139 0.353 0.0
C1559 C 0.48368 0.57325 0.31437 0.0
C1560 C 0.46849 0.5522 0.34545 0.0
H1561 H 0.44865 0.54676 0.89238 0.0
H1562 H 0.4514 0.54418 0.0145 0.0
C1563 C 0.47003 0.54936 0.41423 0.0
C1564 C 0.48254 0.57577 0.24091 0.0
H1565 H 0.44623 0.57138 0.11381 0.0
C1566 C 0.50185 0.5802 0.2021 0.0
C1567 C 0.4623 0.57278 0.20891 0.0
C1568 C 0.44137 0.56899 0.24826 0.0
C1569 C 0.50129 0.58115 0.13183 0.0
C1570 C 0.48096 0.57791 0.09981 0.0
C1571 C 0.46171 0.57368 0.13862 0.0
C1572 C 0.47951 0.57934 0.02606 0.0
C1573 C 0.52224 0.58505 0.09244 0.0
C1574 C 0.49424 0.60001 0.99253 0.0
C1575 C 0.49281 0.60151 0.92306 0.0
C1576 C 0.4764 0.58242 0.88573 0.0
C1577 C 0.4615 0.56175 0.91959 0.0
C1578 C 0.46302 0.56025 0.98928 0.0
H1579 H 0.53379 0.58106 0.12275 0.0
H1580 H 0.5171 0.57428 0.04628 0.0
H1581 H 0.5323 0.60347 0.07718 0.0
H1582 H 0.50673 0.61508 0.02022 0.0
H1583 H 0.50444 0.61778 0.89879 0.0
loop_
_geom_bond_atom_site_label_1
_geom_bond_atom_site_label_2
_geom_bond_distance
_geom_bond_site_symmetry_2
_ccdc_geom_bond_type
Co0 H3 2.400 1_556 S
Co0 O4 2.009 1_556 S
Co0 O12 2.115 . S
Co0 O13 2.315 1_556 S
Co0 O24 2.053 . S
Co0 O27 2.094 . S
Co0 O30 2.122 . S
Co1 O4 2.126 . S
Co1 H5 2.388 1_554 S
Co1 O6 2.053 1_554 S
Co1 O9 2.047 . S
Co1 O15 2.113 . S
Co1 O26 2.063 . S
Co2 H3 2.388 1_556 S
Co2 O4 2.053 1_556 S
Co2 O6 2.126 . S
Co2 O11 2.063 . S
Co2 O25 2.047 . S
Co2 O31 2.113 . S
H3 Co0 2.400 1_554 S
H3 Co2 2.388 1_554 S
H3 O4 0.760 . S
O4 Co0 2.009 1_554 S
O4 Co1 2.126 . S
O4 Co2 2.053 1_554 S
O4 H3 0.760 . S
H5 Co1 2.388 1_556 S
H5 O6 0.760 . S
H5 Co7 2.400 1_556 S
O6 Co1 2.053 1_556 S
O6 Co2 2.126 . S
O6 H5 0.760 . S
O6 Co7 2.009 1_556 S
Co7 H5 2.400 1_554 S
Co7 O6 2.009 1_554 S
Co7 O8 2.053 . S
Co7 O10 2.094 . S
Co7 O14 2.122 . S
Co7 O28 2.115 . S
Co7 O29 2.315 . S
O8 Co7 2.053 . S
O8 C20 1.259 . S
O9 Co1 2.047 . S
O9 C20 1.257 . S
O10 Co7 2.094 . S
O10 C21 1.253 . S
O11 Co2 2.063 . S
O11 C21 1.268 1_556 S
O12 Co0 2.115 . S
O12 C22 1.281 . S
O13 Co0 2.315 1_554 S
O13 C22 1.252 1_554 S
O14 Co7 2.122 . S
O14 C23 1.272 . S
O15 Co1 2.113 . S
O15 C23 1.245 . S
C16 O24 1.259 . S
C16 O25 1.257 . S
C17 O26 1.268 1_556 S
C17 O27 1.253 . S
C18 O28 1.281 . S
C18 O29 1.252 . S
C19 O30 1.272 . S
C19 O31 1.245 . S
C20 O8 1.259 . S
C20 O9 1.257 . S
C21 O10 1.253 . S
C21 O11 1.268 1_554 S
C22 O12 1.281 . S
C22 O13 1.252 1_556 S
C23 O14 1.272 . S
C23 O15 1.245 . S
O24 Co0 2.053 . S
O24 C16 1.259 . S
O25 Co2 2.047 . S
O25 C16 1.257 . S
O26 Co1 2.063 . S
O26 C17 1.268 1_554 S
O27 Co0 2.094 . S
O27 C17 1.253 . S
O28 Co7 2.115 . S
O28 C18 1.281 . S
O29 Co7 2.315 . S
O29 C18 1.252 . S
O30 Co0 2.122 . S
O30 C19 1.272 . S
O31 Co2 2.113 . S
O31 C19 1.245 . S
Co32 H35 2.400 1_556 S
Co32 O36 2.009 1_556 S
Co32 O44 2.115 . S
Co32 O45 2.315 1_556 S
Co32 O56 2.053 . S
Co32 O59 2.094 . S
Co32 O62 2.122 . S
Co33 O36 2.126 . S
Co33 H37 2.388 1_554 S
Co33 O38 2.053 1_554 S
Co33 O41 2.047 . S
Co33 O47 2.113 . S
Co33 O58 2.063 . S
Co34 H35 2.388 1_556 S
Co34 O36 2.053 1_556 S
Co34 O38 2.126 . S
Co34 O43 2.063 . S
Co34 O57 2.047 . S
Co34 O63 2.113 . S
H35 Co32 2.400 1_554 S
H35 Co34 2.388 1_554 S
H35 O36 0.760 . S
O36 Co32 2.009 1_554 S
O36 Co33 2.126 . S
O36 Co34 2.053 1_554 S
O36 H35 0.760 . S
H37 Co33 2.388 1_556 S
H37 O38 0.760 . S
H37 Co39 2.400 1_556 S
O38 Co33 2.053 1_556 S
O38 Co34 2.126 . S
O38 H37 0.760 . S
O38 Co39 2.009 1_556 S
Co39 H37 2.400 1_554 S
Co39 O38 2.009 1_554 S
Co39 O40 2.053 . S
Co39 O42 2.094 . S
Co39 O46 2.122 . S
Co39 O60 2.115 . S
Co39 O61 2.315 . S
O40 Co39 2.053 . S
O40 C52 1.259 . S
O41 Co33 2.047 . S
O41 C52 1.257 . S
O42 Co39 2.094 . S
O42 C53 1.253 . S
O43 Co34 2.063 . S
O43 C53 1.268 1_556 S
O44 Co32 2.115 . S
O44 C54 1.281 . S
O45 Co32 2.315 1_554 S
O45 C54 1.252 1_554 S
O46 Co39 2.122 . S
O46 C55 1.272 . S
O47 Co33 2.113 . S
O47 C55 1.245 . S
C48 O56 1.259 . S
C48 O57 1.257 . S
C49 O58 1.268 1_556 S
C49 O59 1.253 . S
C50 O60 1.281 . S
C50 O61 1.253 . S
C51 O62 1.272 . S
C51 O63 1.245 . S
C52 O40 1.259 . S
C52 O41 1.257 . S
C53 O42 1.253 . S
C53 O43 1.268 1_554 S
C54 O44 1.281 . S
C54 O45 1.252 1_556 S
C55 O46 1.272 . S
C55 O47 1.245 . S
O56 Co32 2.053 . S
O56 C48 1.259 . S
O57 Co34 2.047 . S
O57 C48 1.257 . S
O58 Co33 2.063 . S
O58 C49 1.268 1_554 S
O59 Co32 2.094 . S
O59 C49 1.253 . S
O60 Co39 2.115 . S
O60 C50 1.281 . S
O61 Co39 2.315 . S
O61 C50 1.253 . S
O62 Co32 2.122 . S
O62 C51 1.272 . S
O63 Co34 2.113 . S
O63 C51 1.245 . S
Co64 H67 2.400 1_556 S
Co64 O68 2.009 1_556 S
Co64 O76 2.115 . S
Co64 O77 2.315 1_556 S
Co64 O88 2.053 . S
Co64 O91 2.094 . S
Co64 O94 2.122 . S
Co65 O68 2.126 . S
Co65 H69 2.388 1_554 S
Co65 O70 2.053 1_554 S
Co65 O73 2.047 . S
Co65 O79 2.113 . S
Co65 O90 2.063 . S
Co66 H67 2.388 1_556 S
Co66 O68 2.053 1_556 S
Co66 O70 2.126 . S
Co66 O75 2.063 . S
Co66 O89 2.047 . S
Co66 O95 2.113 . S
H67 Co64 2.400 1_554 S
H67 Co66 2.388 1_554 S
H67 O68 0.760 . S
O68 Co64 2.009 1_554 S
O68 Co65 2.126 . S
O68 Co66 2.053 1_554 S
O68 H67 0.760 . S
H69 Co65 2.388 1_556 S
H69 O70 0.760 . S
H69 Co71 2.400 1_556 S
O70 Co65 2.053 1_556 S
O70 Co66 2.126 . S
O70 H69 0.760 . S
O70 Co71 2.009 1_556 S
Co71 H69 2.400 1_554 S
Co71 O70 2.009 1_554 S
Co71 O72 2.053 . S
Co71 O74 2.094 . S
Co71 O78 2.122 . S
Co71 O92 2.115 . S
Co71 O93 2.315 . S
O72 Co71 2.053 . S
O72 C84 1.259 . S
O73 Co65 2.047 . S
O73 C84 1.257 . S
O74 Co71 2.094 . S
O74 C85 1.253 . S
O75 Co66 2.063 . S
O75 C85 1.268 1_556 S
O76 Co64 2.115 . S
O76 C86 1.281 . S
O77 Co64 2.315 1_554 S
O77 C86 1.252 1_554 S
O78 Co71 2.122 . S
O78 C87 1.272 . S
O79 Co65 2.113 . S
O79 C87 1.245 . S
C80 O88 1.259 . S
C80 O89 1.257 . S
C81 O90 1.268 1_556 S
C81 O91 1.253 . S
C82 O92 1.281 . S
C82 O93 1.253 . S
C83 O94 1.272 . S
C83 O95 1.245 . S
C84 O72 1.259 . S
C84 O73 1.257 . S
C85 O74 1.253 . S
C85 O75 1.268 1_554 S
C86 O76 1.281 . S
C86 O77 1.252 1_556 S
C87 O78 1.272 . S
C87 O79 1.245 . S
O88 Co64 2.053 . S
O88 C80 1.259 . S
O89 Co66 2.047 . S
O89 C80 1.257 . S
O90 Co65 2.063 . S
O90 C81 1.268 1_554 S
O91 Co64 2.094 . S
O91 C81 1.253 . S
O92 Co71 2.115 . S
O92 C82 1.281 . S
O93 Co71 2.315 . S
O93 C82 1.253 . S
O94 Co64 2.122 . S
O94 C83 1.272 . S
O95 Co66 2.113 . S
O95 C83 1.245 . S
Co96 H99 2.400 . S
Co96 O100 2.009 . S
Co96 O108 2.115 . S
Co96 O109 2.315 . S
Co96 O120 2.053 . S
Co96 O123 2.094 . S
Co96 O126 2.122 . S
Co97 O100 2.126 . S
Co97 H101 2.388 . S
Co97 O102 2.053 . S
Co97 O105 2.047 . S
Co97 O111 2.113 . S
Co97 O122 2.063 . S
Co98 H99 2.388 . S
Co98 O100 2.053 . S
Co98 O102 2.126 . S
Co98 O107 2.063 . S
Co98 O121 2.047 . S
Co98 O127 2.113 . S
H99 Co96 2.400 . S
H99 Co98 2.388 . S
H99 O100 0.760 . S
O100 Co96 2.009 . S
O100 Co97 2.126 . S
O100 Co98 2.053 . S
O100 H99 0.760 . S
H101 Co97 2.388 . S
H101 O102 0.760 . S
H101 Co103 2.400 . S
O102 Co97 2.053 . S
O102 Co98 2.126 . S
O102 H101 0.760 . S
O102 Co103 2.009 . S
Co103 H101 2.400 . S
Co103 O102 2.009 . S
Co103 O104 2.053 . S
Co103 O106 2.094 . S
Co103 O110 2.122 . S
Co103 O124 2.115 . S
Co103 O125 2.315 . S
O104 Co103 2.053 . S
O104 C116 1.259 . S
O105 Co97 2.047 . S
O105 C116 1.257 . S
O106 Co103 2.094 . S
O106 C117 1.253 . S
O107 Co98 2.063 . S
O107 C117 1.268 . S
O108 Co96 2.115 . S
O108 C118 1.281 . S
O109 Co96 2.315 . S
O109 C118 1.252 . S
O110 Co103 2.122 . S
O110 C119 1.272 . S
O111 Co97 2.113 . S
O111 C119 1.245 . S
C112 O120 1.259 . S
C112 O121 1.257 . S
C113 O122 1.268 . S
C113 O123 1.253 . S
C114 O124 1.281 . S
C114 O125 1.252 . S
C115 O126 1.272 . S
C115 O127 1.245 . S
C116 O104 1.259 . S
C116 O105 1.257 . S
C117 O106 1.253 . S
C117 O107 1.268 . S
C118 O108 1.281 . S
C118 O109 1.252 . S
C119 O110 1.272 . S
C119 O111 1.245 . S
O120 Co96 2.053 . S
O120 C112 1.259 . S
O121 Co98 2.047 . S
O121 C112 1.257 . S
O122 Co97 2.063 . S
O122 C113 1.268 . S
O123 Co96 2.094 . S
O123 C113 1.253 . S
O124 Co103 2.115 . S
O124 C114 1.281 . S
O125 Co103 2.315 . S
O125 C114 1.252 . S
O126 Co96 2.122 . S
O126 C115 1.272 . S
O127 Co98 2.113 . S
O127 C115 1.245 . S
Co128 H131 2.400 . S
Co128 O132 2.009 . S
Co128 O140 2.115 . S
Co128 O141 2.315 . S
Co128 O152 2.053 . S
Co128 O155 2.094 . S
Co128 O158 2.122 . S
Co129 O132 2.126 . S
Co129 H133 2.388 . S
Co129 O134 2.053 . S
Co129 O137 2.047 . S
Co129 O143 2.113 . S
Co129 O154 2.063 . S
Co130 H131 2.388 . S
Co130 O132 2.053 . S
Co130 O134 2.126 . S
Co130 O139 2.063 . S
Co130 O153 2.047 . S
Co130 O159 2.113 . S
H131 Co128 2.400 . S
H131 Co130 2.388 . S
H131 O132 0.760 . S
O132 Co128 2.009 . S
O132 Co129 2.126 . S
O132 Co130 2.053 . S
O132 H131 0.760 . S
H133 Co129 2.388 . S
H133 O134 0.760 . S
H133 Co135 2.400 . S
O134 Co129 2.053 . S
O134 Co130 2.126 . S
O134 H133 0.760 . S
O134 Co135 2.009 . S
Co135 H133 2.400 . S
Co135 O134 2.009 . S
Co135 O136 2.053 . S
Co135 O138 2.094 . S
Co135 O142 2.122 . S
Co135 O156 2.115 . S
Co135 O157 2.315 . S
O136 Co135 2.053 . S
O136 C148 1.259 . S
O137 Co129 2.047 . S
O137 C148 1.257 . S
O138 Co135 2.094 . S
O138 C149 1.253 . S
O139 Co130 2.063 . S
O139 C149 1.268 . S
O140 Co128 2.115 . S
O140 C150 1.281 . S
O141 Co128 2.315 . S
O141 C150 1.252 . S
O142 Co135 2.122 . S
O142 C151 1.272 . S
O143 Co129 2.113 . S
O143 C151 1.245 . S
C144 O152 1.259 . S
C144 O153 1.257 . S
C145 O154 1.268 . S
C145 O155 1.253 . S
C146 O156 1.281 . S
C146 O157 1.252 . S
C147 O158 1.272 . S
C147 O159 1.245 . S
C148 O136 1.259 . S
C148 O137 1.257 . S
C149 O138 1.253 . S
C149 O139 1.268 . S
C150 O140 1.281 . S
C150 O141 1.252 . S
C151 O142 1.272 . S
C151 O143 1.245 . S
O152 Co128 2.053 . S
O152 C144 1.259 . S
O153 Co130 2.047 . S
O153 C144 1.257 . S
O154 Co129 2.063 . S
O154 C145 1.268 . S
O155 Co128 2.094 . S
O155 C145 1.253 . S
O156 Co135 2.115 . S
O156 C146 1.281 . S
O157 Co135 2.315 . S
O157 C146 1.252 . S
O158 Co128 2.122 . S
O158 C147 1.272 . S
O159 Co130 2.113 . S
O159 C147 1.245 . S
Co160 H163 2.400 . S
Co160 O164 2.009 . S
Co160 O172 2.115 . S
Co160 O173 2.315 . S
Co160 O184 2.053 . S
Co160 O187 2.094 . S
Co160 O190 2.122 . S
Co161 O164 2.126 . S
Co161 H165 2.388 . S
Co161 O166 2.053 . S
Co161 O169 2.047 . S
Co161 O175 2.113 . S
Co161 O186 2.063 . S
Co162 H163 2.388 . S
Co162 O164 2.053 . S
Co162 O166 2.126 . S
Co162 O171 2.063 . S
Co162 O185 2.047 . S
Co162 O191 2.113 . S
H163 Co160 2.400 . S
H163 Co162 2.388 . S
H163 O164 0.760 . S
O164 Co160 2.009 . S
O164 Co161 2.126 . S
O164 Co162 2.053 . S
O164 H163 0.760 . S
H165 Co161 2.388 . S
H165 O166 0.760 . S
H165 Co167 2.400 . S
O166 Co161 2.053 . S
O166 Co162 2.126 . S
O166 H165 0.760 . S
O166 Co167 2.009 . S
Co167 H165 2.400 . S
Co167 O166 2.009 . S
Co167 O168 2.053 . S
Co167 O170 2.094 . S
Co167 O174 2.122 . S
Co167 O188 2.115 . S
Co167 O189 2.315 . S
O168 Co167 2.053 . S
O168 C180 1.259 . S
O169 Co161 2.047 . S
O169 C180 1.257 . S
O170 Co167 2.094 . S
O170 C181 1.253 . S
O171 Co162 2.063 . S
O171 C181 1.268 . S
O172 Co160 2.115 . S
O172 C182 1.281 . S
O173 Co160 2.315 . S
O173 C182 1.252 . S
O174 Co167 2.122 . S
O174 C183 1.272 . S
O175 Co161 2.113 . S
O175 C183 1.245 . S
C176 O184 1.259 . S
C176 O185 1.257 . S
C177 O186 1.268 . S
C177 O187 1.253 . S
C178 O188 1.281 . S
C178 O189 1.252 . S
C179 O190 1.272 . S
C179 O191 1.245 . S
C180 O168 1.259 . S
C180 O169 1.257 . S
C181 O170 1.253 . S
C181 O171 1.268 . S
C182 O172 1.281 . S
C182 O173 1.252 . S
C183 O174 1.272 . S
C183 O175 1.245 . S
O184 Co160 2.053 . S
O184 C176 1.259 . S
O185 Co162 2.047 . S
O185 C176 1.257 . S
O186 Co161 2.063 . S
O186 C177 1.268 . S
O187 Co160 2.094 . S
O187 C177 1.253 . S
O188 Co167 2.115 . S
O188 C178 1.281 . S
O189 Co167 2.315 . S
O189 C178 1.252 . S
O190 Co160 2.122 . S
O190 C179 1.272 . S
O191 Co162 2.113 . S
O191 C179 1.245 . S
Co192 H195 2.400 . S
Co192 O196 2.009 . S
Co192 O204 2.115 . S
Co192 O205 2.315 . S
Co192 O216 2.053 . S
Co192 O219 2.094 . S
Co192 O222 2.122 . S
Co193 O196 2.126 . S
Co193 H197 2.388 . S
Co193 O198 2.053 . S
Co193 O201 2.047 . S
Co193 O207 2.113 . S
Co193 O218 2.063 . S
Co194 H195 2.388 . S
Co194 O196 2.053 . S
Co194 O198 2.126 . S
Co194 O203 2.063 . S
Co194 O217 2.047 . S
Co194 O223 2.113 . S
H195 Co192 2.400 . S
H195 Co194 2.388 . S
H195 O196 0.760 . S
O196 Co192 2.009 . S
O196 Co193 2.126 . S
O196 Co194 2.053 . S
O196 H195 0.760 . S
H197 Co193 2.388 . S
H197 O198 0.760 . S
H197 Co199 2.400 . S
O198 Co193 2.053 . S
O198 Co194 2.126 . S
O198 H197 0.760 . S
O198 Co199 2.009 . S
Co199 H197 2.400 . S
Co199 O198 2.009 . S
Co199 O200 2.053 . S
Co199 O202 2.094 . S
Co199 O206 2.122 . S
Co199 O220 2.115 . S
Co199 O221 2.315 . S
O200 Co199 2.053 . S
O200 C212 1.259 . S
O201 Co193 2.047 . S
O201 C212 1.257 . S
O202 Co199 2.094 . S
O202 C213 1.253 . S
O203 Co194 2.063 . S
O203 C213 1.268 . S
O204 Co192 2.115 . S
O204 C214 1.281 . S
O205 Co192 2.315 . S
O205 C214 1.252 . S
O206 Co199 2.122 . S
O206 C215 1.272 . S
O207 Co193 2.113 . S
O207 C215 1.245 . S
C208 O216 1.259 . S
C208 O217 1.257 . S
C209 O218 1.268 . S
C209 O219 1.253 . S
C210 O220 1.281 . S
C210 O221 1.252 . S
C211 O222 1.272 . S
C211 O223 1.245 . S
C212 O200 1.259 . S
C212 O201 1.257 . S
C213 O202 1.253 . S
C213 O203 1.268 . S
C214 O204 1.281 . S
C214 O205 1.252 . S
C215 O206 1.272 . S
C215 O207 1.245 . S
O216 Co192 2.053 . S
O216 C208 1.259 . S
O217 Co194 2.047 . S
O217 C208 1.257 . S
O218 Co193 2.063 . S
O218 C209 1.268 . S
O219 Co192 2.094 . S
O219 C209 1.253 . S
O220 Co199 2.115 . S
O220 C210 1.281 . S
O221 Co199 2.315 . S
O221 C210 1.252 . S
O222 Co192 2.122 . S
O222 C211 1.272 . S
O223 Co194 2.113 . S
O223 C211 1.245 . S
Co224 H227 2.400 . S
Co224 O228 2.009 . S
Co224 O236 2.115 . S
Co224 O237 2.315 . S
Co224 O248 2.053 . S
Co224 O251 2.094 . S
Co224 O254 2.122 . S
Co225 O228 2.126 . S
Co225 H229 2.388 . S
Co225 O230 2.053 . S
Co225 O233 2.047 . S
Co225 O239 2.113 . S
Co225 O250 2.063 . S
Co226 H227 2.388 . S
Co226 O228 2.053 . S
Co226 O230 2.126 . S
Co226 O235 2.063 . S
Co226 O249 2.047 . S
Co226 O255 2.113 . S
H227 Co224 2.400 . S
H227 Co226 2.388 . S
H227 O228 0.760 . S
O228 Co224 2.009 . S
O228 Co225 2.126 . S
O228 Co226 2.053 . S
O228 H227 0.760 . S
H229 Co225 2.388 . S
H229 O230 0.760 . S
H229 Co231 2.400 . S
O230 Co225 2.053 . S
O230 Co226 2.126 . S
O230 H229 0.760 . S
O230 Co231 2.009 . S
Co231 H229 2.400 . S
Co231 O230 2.009 . S
Co231 O232 2.053 . S
Co231 O234 2.094 . S
Co231 O238 2.122 . S
Co231 O252 2.115 . S
Co231 O253 2.315 . S
O232 Co231 2.053 . S
O232 C244 1.259 . S
O233 Co225 2.047 . S
O233 C244 1.257 . S
O234 Co231 2.094 . S
O234 C245 1.253 . S
O235 Co226 2.063 . S
O235 C245 1.268 . S
O236 Co224 2.115 . S
O236 C246 1.281 . S
O237 Co224 2.315 . S
O237 C246 1.252 . S
O238 Co231 2.122 . S
O238 C247 1.272 . S
O239 Co225 2.113 . S
O239 C247 1.245 . S
C240 O248 1.259 . S
C240 O249 1.257 . S
C241 O250 1.268 . S
C241 O251 1.253 . S
C242 O252 1.281 . S
C242 O253 1.252 . S
C243 O254 1.272 . S
C243 O255 1.245 . S
C244 O232 1.259 . S
C244 O233 1.257 . S
C245 O234 1.253 . S
C245 O235 1.268 . S
C246 O236 1.281 . S
C246 O237 1.252 . S
C247 O238 1.272 . S
C247 O239 1.245 . S
O248 Co224 2.053 . S
O248 C240 1.259 . S
O249 Co226 2.047 . S
O249 C240 1.257 . S
O250 Co225 2.063 . S
O250 C241 1.268 . S
O251 Co224 2.094 . S
O251 C241 1.253 . S
O252 Co231 2.115 . S
O252 C242 1.281 . S
O253 Co231 2.315 . S
O253 C242 1.252 . S
O254 Co224 2.122 . S
O254 C243 1.272 . S
O255 Co226 2.113 . S
O255 C243 1.245 . S
Co256 H259 2.400 . S
Co256 O260 2.009 . S
Co256 O268 2.115 . S
Co256 O269 2.315 . S
Co256 O280 2.053 . S
Co256 O283 2.094 . S
Co256 O286 2.122 . S
Co257 O260 2.126 . S
Co257 H261 2.388 . S
Co257 O262 2.053 . S
Co257 O265 2.047 . S
Co257 O271 2.113 . S
Co257 O282 2.063 . S
Co258 H259 2.388 . S
Co258 O260 2.053 . S
Co258 O262 2.126 . S
Co258 O267 2.063 . S
Co258 O281 2.047 . S
Co258 O287 2.113 . S
H259 Co256 2.400 . S
H259 Co258 2.388 . S
H259 O260 0.760 . S
O260 Co256 2.009 . S
O260 Co257 2.126 . S
O260 Co258 2.053 . S
O260 H259 0.760 . S
H261 Co257 2.388 . S
H261 O262 0.760 . S
H261 Co263 2.400 . S
O262 Co257 2.053 . S
O262 Co258 2.126 . S
O262 H261 0.760 . S
O262 Co263 2.009 . S
Co263 H261 2.400 . S
Co263 O262 2.009 . S
Co263 O264 2.053 . S
Co263 O266 2.094 . S
Co263 O270 2.122 . S
Co263 O284 2.115 . S
Co263 O285 2.315 . S
O264 Co263 2.053 . S
O264 C276 1.259 . S
O265 Co257 2.047 . S
O265 C276 1.257 . S
O266 Co263 2.094 . S
O266 C277 1.253 . S
O267 Co258 2.063 . S
O267 C277 1.268 . S
O268 Co256 2.115 . S
O268 C278 1.281 . S
O269 Co256 2.315 . S
O269 C278 1.252 . S
O270 Co263 2.122 . S
O270 C279 1.272 . S
O271 Co257 2.113 . S
O271 C279 1.245 . S
C272 O280 1.259 . S
C272 O281 1.257 . S
C273 O282 1.268 . S
C273 O283 1.253 . S
C274 O284 1.281 . S
C274 O285 1.252 . S
C275 O286 1.272 . S
C275 O287 1.245 . S
C276 O264 1.259 . S
C276 O265 1.257 . S
C277 O266 1.253 . S
C277 O267 1.268 . S
C278 O268 1.281 . S
C278 O269 1.252 . S
C279 O270 1.272 . S
C279 O271 1.245 . S
O280 Co256 2.053 . S
O280 C272 1.259 . S
O281 Co258 2.047 . S
O281 C272 1.257 . S
O282 Co257 2.063 . S
O282 C273 1.268 . S
O283 Co256 2.094 . S
O283 C273 1.253 . S
O284 Co263 2.115 . S
O284 C274 1.281 . S
O285 Co263 2.315 . S
O285 C274 1.252 . S
O286 Co256 2.122 . S
O286 C275 1.272 . S
O287 Co258 2.113 . S
O287 C275 1.245 . S
H288 C296 0.929 1_556 S
H289 C298 0.930 . S
H290 C300 0.930 . S
H291 C303 0.929 . S
H292 C306 0.930 . S
H293 C308 0.960 . S
H294 C308 0.960 . S
H295 C308 0.960 . S
C296 H288 0.929 1_554 S
C296 C297 1.377 . S
C296 C298 1.384 . S
C297 C296 1.377 . S
C297 C303 1.390 . S
C298 H289 0.930 . S
C298 C296 1.384 . S
C298 C299 1.372 . S
C299 C298 1.372 . S
C299 C300 1.400 . S
C299 C304 1.490 . S
C300 H290 0.930 . S
C300 C299 1.400 . S
C300 C303 1.386 . S
H301 C317 0.930 . S
H302 C318 0.931 . S
C303 H291 0.929 . S
C303 C297 1.390 . S
C303 C300 1.386 . S
C304 C299 1.490 . S
C304 C306 1.395 . S
C304 C307 1.403 . S
H305 C311 0.930 . S
C306 H292 0.930 . S
C306 C304 1.395 . S
C306 C309 1.403 . S
C307 C304 1.403 . S
C307 C308 1.524 . S
C307 C311 1.400 . S
C308 H293 0.960 . S
C308 H294 0.960 . S
C308 H295 0.960 . S
C308 C307 1.524 . S
C309 C306 1.403 . S
C309 C310 1.392 . S
C309 C313 1.495 . S
C310 C309 1.392 . S
C310 C311 1.385 . S
C310 C312 1.478 . S
C311 H305 0.930 . S
C311 C307 1.400 . S
C311 C310 1.385 . S
C312 C310 1.478 . S
C312 C314 1.381 . S
C312 C318 1.383 . S
C313 C309 1.495 . S
C313 H319 0.957 1_554 S
C313 H320 0.961 . S
C313 H321 0.960 . S
C314 C312 1.381 . S
C314 C315 1.394 . S
C314 H322 0.930 . S
C315 C314 1.394 . S
C315 C316 1.383 . S
C315 H323 0.929 . S
C316 C315 1.383 . S
C316 C317 1.377 . S
C317 H301 0.930 . S
C317 C316 1.377 . S
C317 C318 1.379 . S
C318 H302 0.931 . S
C318 C312 1.383 . S
C318 C317 1.379 . S
H319 C313 0.957 1_556 S
H320 C313 0.961 . S
H321 C313 0.960 . S
H322 C314 0.930 . S
H323 C315 0.929 . S
H324 C332 0.929 . S
H325 C334 0.930 . S
H326 C336 0.930 . S
H327 C339 0.929 . S
H328 C342 0.930 . S
H329 C344 0.960 . S
H330 C344 0.960 . S
H331 C344 0.960 . S
C332 H324 0.929 . S
C332 C333 1.377 . S
C332 C334 1.384 . S
C333 C332 1.377 . S
C333 C339 1.390 . S
C334 H325 0.930 . S
C334 C332 1.384 . S
C334 C335 1.372 . S
C335 C334 1.372 . S
C335 C336 1.400 . S
C335 C340 1.490 . S
C336 H326 0.930 . S
C336 C335 1.400 . S
C336 C339 1.386 . S
H337 C353 0.930 . S
H338 C354 0.931 . S
C339 H327 0.929 . S
C339 C333 1.390 . S
C339 C336 1.386 . S
C340 C335 1.490 . S
C340 C342 1.395 . S
C340 C343 1.403 . S
H341 C347 0.930 . S
C342 H328 0.930 . S
C342 C340 1.395 . S
C342 C345 1.403 . S
C343 C340 1.403 . S
C343 C344 1.524 . S
C343 C347 1.400 . S
C344 H329 0.960 . S
C344 H330 0.960 . S
C344 H331 0.960 . S
C344 C343 1.524 . S
C345 C342 1.403 . S
C345 C346 1.392 . S
C345 C349 1.495 . S
C346 C345 1.392 . S
C346 C347 1.385 . S
C346 C348 1.478 1_545 S
C347 H341 0.930 . S
C347 C343 1.400 . S
C347 C346 1.385 . S
C348 C346 1.478 1_565 S
C348 C350 1.396 1_565 S
C348 C354 1.383 . S
C349 C345 1.495 . S
C349 H355 0.959 . S
C349 H356 0.961 . S
C349 H357 0.960 . S
C350 C348 1.396 1_545 S
C350 C351 1.353 1_545 S
C350 H358 0.958 . S
C351 C350 1.353 1_565 S
C351 C352 1.383 . S
C351 H359 0.929 1_554 S
C352 C351 1.383 . S
C352 C353 1.377 . S
C353 H337 0.930 . S
C353 C352 1.377 . S
C353 C354 1.379 . S
C354 H338 0.931 . S
C354 C348 1.383 . S
C354 C353 1.379 . S
H355 C349 0.959 . S
H356 C349 0.961 . S
H357 C349 0.960 . S
H358 C350 0.958 . S
H359 C351 0.929 1_556 S
H360 C368 0.929 . S
H361 C370 0.930 . S
H362 C372 0.967 . S
H363 C375 0.929 1_556 S
H364 C378 0.930 . S
H365 C380 0.960 1_556 S
H366 C380 0.960 1_556 S
H367 C380 0.960 1_556 S
C368 H360 0.929 . S
C368 C369 1.377 . S
C368 C370 1.384 . S
C369 C368 1.377 . S
C369 C375 1.390 . S
C370 H361 0.930 . S
C370 C368 1.384 . S
C370 C371 1.372 . S
C371 C370 1.372 . S
C371 C372 1.381 1_455 S
C371 C376 1.490 1_455 S
C372 H362 0.967 . S
C372 C371 1.381 1_655 S
C372 C375 1.369 1_655 S
H373 C389 0.930 . S
H374 C390 0.931 . S
C375 H363 0.929 1_554 S
C375 C369 1.390 . S
C375 C372 1.369 1_455 S
C376 C371 1.490 1_655 S
C376 C378 1.395 . S
C376 C379 1.403 . S
H377 C383 0.930 . S
C378 H364 0.930 . S
C378 C376 1.395 . S
C378 C381 1.403 . S
C379 C376 1.403 . S
C379 C380 1.524 . S
C379 C383 1.400 . S
C380 H365 0.960 1_554 S
C380 H366 0.960 1_554 S
C380 H367 0.960 1_554 S
C380 C379 1.524 . S
C381 C378 1.403 . S
C381 C382 1.392 . S
C381 C385 1.495 . S
C382 C381 1.392 . S
C382 C383 1.385 . S
C382 C384 1.478 . S
C383 H377 0.930 . S
C383 C379 1.400 . S
C383 C382 1.385 . S
C384 C382 1.478 . S
C384 C386 1.381 . S
C384 C390 1.383 . S
C385 C381 1.495 . S
C385 H391 0.959 . S
C385 H392 0.961 . S
C385 H393 0.960 . S
C386 C384 1.381 . S
C386 C387 1.394 . S
C386 H394 0.930 . S
C387 C386 1.394 . S
C387 C388 1.383 . S
C387 H395 0.929 . S
C388 C387 1.383 . S
C388 C389 1.377 . S
C389 H373 0.930 . S
C389 C388 1.377 . S
C389 C390 1.379 . S
C390 H374 0.931 . S
C390 C384 1.383 . S
C390 C389 1.379 . S
H391 C385 0.959 . S
H392 C385 0.961 . S
H393 C385 0.960 . S
H394 C386 0.930 . S
H395 C387 0.929 . S
H396 C404 0.929 . S
H397 C406 0.930 . S
H398 C408 0.930 . S
H399 C411 0.929 . S
H400 C414 0.930 . S
H401 C416 0.960 . S
H402 C416 0.960 1_556 S
H403 C416 0.960 . S
C404 H396 0.929 . S
C404 C405 1.377 . S
C404 C406 1.384 . S
C405 C404 1.377 . S
C405 C411 1.390 . S
C406 H397 0.930 . S
C406 C404 1.384 . S
C406 C407 1.372 . S
C407 C406 1.372 . S
C407 C408 1.400 . S
C407 C412 1.490 . S
C408 H398 0.930 . S
C408 C407 1.400 . S
C408 C411 1.386 . S
H409 C425 0.930 . S
H410 C426 0.931 . S
C411 H399 0.929 . S
C411 C405 1.390 . S
C411 C408 1.386 . S
C412 C407 1.490 . S
C412 C414 1.395 . S
C412 C415 1.403 . S
H413 C419 0.930 . S
C414 H400 0.930 . S
C414 C412 1.395 . S
C414 C417 1.403 . S
C415 C412 1.403 . S
C415 C416 1.524 . S
C415 C419 1.400 . S
C416 H401 0.960 . S
C416 H402 0.960 1_554 S
C416 H403 0.960 . S
C416 C415 1.524 . S
C417 C414 1.403 . S
C417 C418 1.392 . S
C417 C421 1.495 . S
C418 C417 1.392 . S
C418 C419 1.385 . S
C418 C420 1.478 . S
C419 H413 0.930 . S
C419 C415 1.400 . S
C419 C418 1.385 . S
C420 C418 1.478 . S
C420 C422 1.381 . S
C420 C426 1.383 . S
C421 C417 1.495 . S
C421 H427 0.959 . S
C421 H428 0.961 . S
C421 H429 0.960 . S
C422 C420 1.381 . S
C422 C423 1.394 . S
C422 H430 0.930 . S
C423 C422 1.394 . S
C423 C424 1.383 . S
C423 H431 0.929 . S
C424 C423 1.383 . S
C424 C425 1.377 . S
C425 H409 0.930 . S
C425 C424 1.377 . S
C425 C426 1.379 . S
C426 H410 0.931 . S
C426 C420 1.383 . S
C426 C425 1.379 . S
H427 C421 0.959 . S
H428 C421 0.961 . S
H429 C421 0.960 . S
H430 C422 0.930 . S
H431 C423 0.929 . S
H432 C440 0.929 . S
H433 C442 0.930 . S
H434 C444 0.930 1_556 S
H435 C447 0.929 . S
H436 C450 0.930 . S
H437 C452 0.960 . S
H438 C452 0.960 . S
H439 C452 0.960 1_556 S
C440 H432 0.929 . S
C440 C441 1.377 . S
C440 C442 1.384 1_565 S
C441 C440 1.377 . S
C441 C447 1.390 1_554 S
C442 H433 0.930 . S
C442 C440 1.384 1_545 S
C442 C443 1.372 . S
C443 C442 1.372 . S
C443 C444 1.400 . S
C443 C448 1.490 . S
C444 H434 0.930 1_554 S
C444 C443 1.400 . S
C444 C447 1.386 1_544 S
H445 C461 0.930 . S
H446 C462 0.931 . S
C447 H435 0.929 . S
C447 C441 1.390 1_556 S
C447 C444 1.386 1_566 S
C448 C443 1.490 . S
C448 C450 1.395 . S
C448 C451 1.403 . S
H449 C455 0.930 . S
C450 H436 0.930 . S
C450 C448 1.395 . S
C450 C453 1.403 . S
C451 C448 1.403 . S
C451 C452 1.524 . S
C451 C455 1.400 . S
C452 H437 0.960 . S
C452 H438 0.960 . S
C452 H439 0.960 1_554 S
C452 C451 1.524 . S
C453 C450 1.403 . S
C453 C454 1.392 . S
C453 C457 1.495 . S
C454 C453 1.392 . S
C454 C455 1.385 . S
C454 C456 1.478 . S
C455 H449 0.930 . S
C455 C451 1.400 . S
C455 C454 1.385 . S
C456 C454 1.478 . S
C456 C458 1.381 . S
C456 C462 1.383 . S
C457 C453 1.495 . S
C457 H463 0.959 . S
C457 H464 0.961 . S
C457 H465 0.960 . S
C458 C456 1.381 . S
C458 C459 1.394 . S
C458 H466 0.930 . S
C459 C458 1.394 . S
C459 C460 1.383 . S
C459 H467 0.929 . S
C460 C459 1.383 . S
C460 C461 1.377 . S
C461 H445 0.930 . S
C461 C460 1.377 . S
C461 C462 1.379 . S
C462 H446 0.931 . S
C462 C456 1.383 . S
C462 C461 1.379 . S
H463 C457 0.959 . S
H464 C457 0.961 . S
H465 C457 0.960 . S
H466 C458 0.930 . S
H467 C459 0.929 . S
H468 C476 0.929 . S
H469 C478 0.931 . S
H470 C480 0.930 . S
H471 C483 0.930 . S
H472 C486 0.930 . S
H473 C488 0.960 . S
H474 C488 0.960 . S
H475 C488 0.960 . S
C476 H468 0.929 . S
C476 C477 1.377 . S
C476 C478 1.347 1_455 S
C477 C476 1.377 . S
C477 C483 1.387 1_455 S
C478 H469 0.931 . S
C478 C476 1.347 1_655 S
C478 C479 1.390 . S
C479 C478 1.390 . S
C479 C480 1.400 . S
C479 C484 1.490 . S
C480 H470 0.930 . S
C480 C479 1.400 . S
C480 C483 1.391 . S
H481 C497 0.930 . S
H482 C498 0.931 . S
C483 H471 0.930 . S
C483 C477 1.387 1_655 S
C483 C480 1.391 . S
C484 C479 1.490 . S
C484 C486 1.395 . S
C484 C487 1.403 . S
H485 C491 0.930 . S
C486 H472 0.930 . S
C486 C484 1.395 . S
C486 C489 1.403 . S
C487 C484 1.403 . S
C487 C488 1.524 . S
C487 C491 1.400 . S
C488 H473 0.960 . S
C488 H474 0.960 . S
C488 H475 0.960 . S
C488 C487 1.524 . S
C489 C486 1.403 . S
C489 C490 1.392 . S
C489 C493 1.495 . S
C490 C489 1.392 . S
C490 C491 1.385 . S
C490 C492 1.478 . S
C491 H485 0.930 . S
C491 C487 1.400 . S
C491 C490 1.385 . S
C492 C490 1.478 . S
C492 C494 1.381 . S
C492 C498 1.383 . S
C493 C489 1.495 . S
C493 H499 0.959 1_554 S
C493 H500 0.961 . S
C493 H501 0.960 . S
C494 C492 1.381 . S
C494 C495 1.394 . S
C494 H502 0.930 . S
C495 C494 1.394 . S
C495 C496 1.383 . S
C495 H503 0.929 . S
C496 C495 1.383 . S
C496 C497 1.377 . S
C497 H481 0.930 . S
C497 C496 1.377 . S
C497 C498 1.379 . S
C498 H482 0.931 . S
C498 C492 1.383 . S
C498 C497 1.379 . S
H499 C493 0.959 1_556 S
H500 C493 0.961 . S
H501 C493 0.960 . S
H502 C494 0.930 . S
H503 C495 0.929 . S
H504 C512 0.929 . S
H505 C514 0.930 . S
H506 C516 0.930 . S
H507 C519 0.929 . S
H508 C522 0.930 . S
H509 C524 0.960 . S
H510 C524 0.960 . S
H511 C524 0.960 . S
C512 H504 0.929 . S
C512 C513 1.377 . S
C512 C514 1.384 . S
C513 C512 1.377 . S
C513 C519 1.390 . S
C514 H505 0.930 . S
C514 C512 1.384 . S
C514 C515 1.372 . S
C515 C514 1.372 . S
C515 C516 1.400 . S
C515 C520 1.490 . S
C516 H506 0.930 . S
C516 C515 1.400 . S
C516 C519 1.386 . S
H517 C533 0.930 . S
H518 C534 0.931 . S
C519 H507 0.929 . S
C519 C513 1.390 . S
C519 C516 1.386 . S
C520 C515 1.490 . S
C520 C522 1.395 . S
C520 C523 1.403 . S
H521 C527 0.930 . S
C522 H508 0.930 . S
C522 C520 1.395 . S
C522 C525 1.403 . S
C523 C520 1.403 . S
C523 C524 1.524 . S
C523 C527 1.400 . S
C524 H509 0.960 . S
C524 H510 0.960 . S
C524 H511 0.960 . S
C524 C523 1.524 . S
C525 C522 1.403 . S
C525 C526 1.392 . S
C525 C529 1.495 . S
C526 C525 1.392 . S
C526 C527 1.385 . S
C526 C528 1.478 . S
C527 H521 0.930 . S
C527 C523 1.400 . S
C527 C526 1.385 . S
C528 C526 1.478 . S
C528 C530 1.381 . S
C528 C534 1.383 . S
C529 C525 1.495 . S
C529 H535 0.959 . S
C529 H536 0.961 . S
C529 H537 0.960 . S
C530 C528 1.381 . S
C530 C531 1.389 . S
C530 H538 0.930 . S
C531 C530 1.389 . S
C531 C532 1.385 1_655 S
C531 H539 0.933 1_655 S
C532 C531 1.385 1_455 S
C532 C533 1.377 . S
C533 H517 0.930 . S
C533 C532 1.377 . S
C533 C534 1.379 1_455 S
C534 H518 0.931 . S
C534 C528 1.383 . S
C534 C533 1.379 1_655 S
H535 C529 0.959 . S
H536 C529 0.961 . S
H537 C529 0.960 . S
H538 C530 0.930 . S
H539 C531 0.933 1_455 S
H540 C548 0.929 . S
H541 C550 0.930 . S
H542 C552 0.930 . S
H543 C555 0.929 . S
H544 C558 0.930 . S
H545 C560 0.960 . S
H546 C560 0.960 . S
H547 C560 0.960 . S
C548 H540 0.929 . S
C548 C549 1.377 . S
C548 C550 1.384 . S
C549 C548 1.377 . S
C549 C555 1.390 . S
C550 H541 0.930 . S
C550 C548 1.384 . S
C550 C551 1.372 . S
C551 C550 1.372 . S
C551 C552 1.400 . S
C551 C556 1.490 . S
C552 H542 0.930 . S
C552 C551 1.400 . S
C552 C555 1.386 . S
H553 C569 0.930 . S
H554 C570 0.931 . S
C555 H543 0.929 . S
C555 C549 1.390 . S
C555 C552 1.386 . S
C556 C551 1.490 . S
C556 C558 1.395 . S
C556 C559 1.403 . S
H557 C563 0.930 . S
C558 H544 0.930 . S
C558 C556 1.395 . S
C558 C561 1.403 . S
C559 C556 1.403 . S
C559 C560 1.524 . S
C559 C563 1.400 . S
C560 H545 0.960 . S
C560 H546 0.960 . S
C560 H547 0.960 . S
C560 C559 1.524 . S
C561 C558 1.403 . S
C561 C562 1.392 . S
C561 C565 1.495 . S
C562 C561 1.392 . S
C562 C563 1.385 . S
C562 C564 1.478 . S
C563 H557 0.930 . S
C563 C559 1.400 . S
C563 C562 1.385 . S
C564 C562 1.478 . S
C564 C566 1.381 . S
C564 C570 1.383 . S
C565 C561 1.495 . S
C565 H571 0.959 . S
C565 H572 0.961 . S
C565 H573 0.960 . S
C566 C564 1.381 . S
C566 C567 1.394 . S
C566 H574 0.930 . S
C567 C566 1.394 . S
C567 C568 1.383 . S
C567 H575 0.929 . S
C568 C567 1.383 . S
C568 C569 1.377 . S
C569 H553 0.930 . S
C569 C568 1.377 . S
C569 C570 1.379 . S
C570 H554 0.931 . S
C570 C564 1.383 . S
C570 C569 1.379 . S
H571 C565 0.959 . S
H572 C565 0.961 . S
H573 C565 0.960 . S
H574 C566 0.930 . S
H575 C567 0.929 . S
H576 C584 0.929 . S
H577 C586 0.930 . S
H578 C588 0.930 . S
H579 C591 0.929 . S
H580 C594 0.930 . S
H581 C596 0.960 . S
H582 C596 0.960 . S
H583 C596 0.960 . S
C584 H576 0.929 . S
C584 C585 1.377 1_545 S
C584 C586 1.384 . S
C585 C584 1.377 1_565 S
C585 C591 1.390 . S
C586 H577 0.930 . S
C586 C584 1.384 . S
C586 C587 1.372 . S
C587 C586 1.372 . S
C587 C588 1.400 . S
C587 C592 1.490 . S
C588 H578 0.930 . S
C588 C587 1.400 . S
C588 C591 1.386 1_545 S
H589 C605 0.930 . S
H590 C606 0.931 . S
C591 H579 0.929 . S
C591 C585 1.390 . S
C591 C588 1.386 1_565 S
C592 C587 1.490 . S
C592 C594 1.395 . S
C592 C595 1.403 . S
H593 C599 0.930 . S
C594 H580 0.930 . S
C594 C592 1.395 . S
C594 C597 1.403 . S
C595 C592 1.403 . S
C595 C596 1.524 . S
C595 C599 1.400 . S
C596 H581 0.960 . S
C596 H582 0.960 . S
C596 H583 0.960 . S
C596 C595 1.524 . S
C597 C594 1.403 . S
C597 C598 1.392 . S
C597 C601 1.495 . S
C598 C597 1.392 . S
C598 C599 1.385 . S
C598 C600 1.478 . S
C599 H593 0.930 . S
C599 C595 1.400 . S
C599 C598 1.385 . S
C600 C598 1.478 . S
C600 C602 1.381 . S
C600 C606 1.383 . S
C601 C597 1.495 . S
C601 H607 0.959 . S
C601 H608 0.961 . S
C601 H609 0.960 . S
C602 C600 1.381 . S
C602 C603 1.394 . S
C602 H610 0.930 . S
C603 C602 1.394 . S
C603 C604 1.383 . S
C603 H611 0.929 . S
C604 C603 1.383 . S
C604 C605 1.377 . S
C605 H589 0.930 . S
C605 C604 1.377 . S
C605 C606 1.379 . S
C606 H590 0.931 . S
C606 C600 1.383 . S
C606 C605 1.379 . S
H607 C601 0.959 . S
H608 C601 0.961 . S
H609 C601 0.960 . S
H610 C602 0.930 . S
H611 C603 0.929 . S
H612 C620 0.929 . S
H613 C622 0.930 . S
H614 C624 0.930 . S
H615 C627 0.929 . S
H616 C630 0.930 . S
H617 C632 0.960 . S
H618 C632 0.960 . S
H619 C632 0.960 . S
C620 H612 0.929 . S
C620 C621 1.377 . S
C620 C622 1.384 . S
C621 C620 1.377 . S
C621 C627 1.390 . S
C622 H613 0.930 . S
C622 C620 1.384 . S
C622 C623 1.372 . S
C623 C622 1.372 . S
C623 C624 1.400 . S
C623 C628 1.490 . S
C624 H614 0.930 . S
C624 C623 1.400 . S
C624 C627 1.386 . S
H625 C641 0.930 . S
H626 C642 0.931 . S
C627 H615 0.929 . S
C627 C621 1.390 . S
C627 C624 1.386 . S
C628 C623 1.490 . S
C628 C630 1.395 . S
C628 C631 1.403 . S
H629 C635 0.930 . S
C630 H616 0.930 . S
C630 C628 1.395 . S
C630 C633 1.403 . S
C631 C628 1.403 . S
C631 C632 1.524 . S
C631 C635 1.400 . S
C632 H617 0.960 . S
C632 H618 0.960 . S
C632 H619 0.960 . S
C632 C631 1.524 . S
C633 C630 1.403 . S
C633 C634 1.392 . S
C633 C637 1.495 . S
C634 C633 1.392 . S
C634 C635 1.385 . S
C634 C636 1.478 . S
C635 H629 0.930 . S
C635 C631 1.400 . S
C635 C634 1.385 . S
C636 C634 1.478 . S
C636 C638 1.381 . S
C636 C642 1.383 . S
C637 C633 1.495 . S
C637 H643 0.959 . S
C637 H644 0.961 . S
C637 H645 0.960 . S
C638 C636 1.381 . S
C638 C639 1.394 . S
C638 H646 0.930 . S
C639 C638 1.394 . S
C639 C640 1.383 1_545 S
C639 H647 0.940 . S
C640 C639 1.383 1_565 S
C640 C641 1.377 . S
C641 H625 0.930 . S
C641 C640 1.377 . S
C641 C642 1.379 1_565 S
C642 H626 0.931 . S
C642 C636 1.383 . S
C642 C641 1.379 1_545 S
H643 C637 0.959 . S
H644 C637 0.961 . S
H645 C637 0.960 . S
H646 C638 0.930 . S
H647 C639 0.940 . S
H648 C656 0.929 . S
H649 C658 0.959 . S
H650 C660 0.930 . S
H651 C663 0.929 . S
H652 C666 0.930 . S
H653 C668 0.960 . S
H654 C668 0.960 . S
H655 C668 0.960 . S
C656 H648 0.929 . S
C656 C657 1.377 . S
C656 C658 1.384 1_455 S
C657 C656 1.377 . S
C657 C663 1.390 1_455 S
C658 H649 0.959 . S
C658 C656 1.384 1_655 S
C658 C659 1.372 . S
C659 C658 1.372 . S
C659 C660 1.400 . S
C659 C664 1.490 . S
C660 H650 0.930 . S
C660 C659 1.400 . S
C660 C663 1.386 . S
H661 C677 0.930 . S
H662 C678 0.931 . S
C663 H651 0.929 . S
C663 C657 1.390 1_655 S
C663 C660 1.386 . S
C664 C659 1.490 . S
C664 C666 1.395 . S
C664 C667 1.403 . S
H665 C671 0.930 . S
C666 H652 0.930 . S
C666 C664 1.395 . S
C666 C669 1.403 . S
C667 C664 1.403 . S
C667 C668 1.524 . S
C667 C671 1.400 . S
C668 H653 0.960 . S
C668 H654 0.960 . S
C668 H655 0.960 . S
C668 C667 1.524 . S
C669 C666 1.403 . S
C669 C670 1.392 . S
C669 C673 1.495 . S
C670 C669 1.392 . S
C670 C671 1.385 . S
C670 C672 1.478 . S
C671 H665 0.930 . S
C671 C667 1.400 . S
C671 C670 1.385 . S
C672 C670 1.478 . S
C672 C674 1.381 . S
C672 C678 1.383 . S
C673 C669 1.495 . S
C673 H679 0.959 . S
C673 H680 0.961 . S
C673 H681 0.960 . S
C674 C672 1.381 . S
C674 C675 1.394 . S
C674 H682 0.930 . S
C675 C674 1.394 . S
C675 C676 1.383 . S
C675 H683 0.929 . S
C676 C675 1.383 . S
C676 C677 1.377 . S
C677 H661 0.930 . S
C677 C676 1.377 . S
C677 C678 1.379 . S
C678 H662 0.931 . S
C678 C672 1.383 . S
C678 C677 1.379 . S
H679 C673 0.959 . S
H680 C673 0.961 . S
H681 C673 0.960 . S
H682 C674 0.930 . S
H683 C675 0.929 . S
H684 C692 0.929 . S
H685 C694 0.930 . S
H686 C696 0.930 . S
H687 C699 0.929 . S
H688 C702 0.930 . S
H689 C704 0.960 . S
H690 C704 0.960 . S
H691 C704 0.960 . S
C692 H684 0.929 . S
C692 C693 1.377 . S
C692 C694 1.384 . S
C693 C692 1.377 . S
C693 C699 1.390 . S
C694 H685 0.930 . S
C694 C692 1.384 . S
C694 C695 1.372 . S
C695 C694 1.372 . S
C695 C696 1.400 . S
C695 C700 1.490 . S
C696 H686 0.930 . S
C696 C695 1.400 . S
C696 C699 1.386 . S
H697 C713 0.930 . S
H698 C714 0.931 . S
C699 H687 0.929 . S
C699 C693 1.390 . S
C699 C696 1.386 . S
C700 C695 1.490 . S
C700 C702 1.395 . S
C700 C703 1.403 . S
H701 C707 0.930 . S
C702 H688 0.930 . S
C702 C700 1.395 . S
C702 C705 1.403 . S
C703 C700 1.403 . S
C703 C704 1.524 . S
C703 C707 1.400 . S
C704 H689 0.960 . S
C704 H690 0.960 . S
C704 H691 0.960 . S
C704 C703 1.524 . S
C705 C702 1.403 . S
C705 C706 1.392 . S
C705 C709 1.495 . S
C706 C705 1.392 . S
C706 C707 1.385 . S
C706 C708 1.478 . S
C707 H701 0.930 . S
C707 C703 1.400 . S
C707 C706 1.385 . S
C708 C706 1.478 . S
C708 C710 1.381 . S
C708 C714 1.383 . S
C709 C705 1.495 . S
C709 H715 0.959 . S
C709 H716 0.961 . S
C709 H717 0.960 . S
C710 C708 1.381 . S
C710 C711 1.394 . S
C710 H718 0.930 . S
C711 C710 1.394 . S
C711 C712 1.383 . S
C711 H719 0.929 . S
C712 C711 1.383 . S
C712 C713 1.377 . S
C713 H697 0.930 . S
C713 C712 1.377 . S
C713 C714 1.379 . S
C714 H698 0.931 . S
C714 C708 1.383 . S
C714 C713 1.379 . S
H715 C709 0.959 . S
H716 C709 0.961 . S
H717 C709 0.960 . S
H718 C710 0.930 . S
H719 C711 0.929 . S
H720 C728 0.929 . S
H721 C730 0.930 . S
H722 C732 0.930 . S
H723 C735 0.929 . S
H724 C738 0.930 . S
H725 C740 0.960 . S
H726 C740 0.960 . S
H727 C740 0.960 . S
C728 H720 0.929 . S
C728 C729 1.377 . S
C728 C730 1.384 . S
C729 C728 1.377 . S
C729 C735 1.390 . S
C730 H721 0.930 . S
C730 C728 1.384 . S
C730 C731 1.372 . S
C731 C730 1.372 . S
C731 C732 1.400 . S
C731 C736 1.490 . S
C732 H722 0.930 . S
C732 C731 1.400 . S
C732 C735 1.386 . S
H733 C749 0.930 . S
H734 C750 0.931 . S
C735 H723 0.929 . S
C735 C729 1.390 . S
C735 C732 1.386 . S
C736 C731 1.490 . S
C736 C738 1.395 . S
C736 C739 1.403 . S
H737 C743 0.930 . S
C738 H724 0.930 . S
C738 C736 1.395 . S
C738 C741 1.403 . S
C739 C736 1.403 . S
C739 C740 1.524 . S
C739 C743 1.400 . S
C740 H725 0.960 . S
C740 H726 0.960 . S
C740 H727 0.960 . S
C740 C739 1.524 . S
C741 C738 1.403 . S
C741 C742 1.392 . S
C741 C745 1.495 . S
C742 C741 1.392 . S
C742 C743 1.385 . S
C742 C744 1.478 . S
C743 H737 0.930 . S
C743 C739 1.400 . S
C743 C742 1.385 . S
C744 C742 1.478 . S
C744 C746 1.381 . S
C744 C750 1.383 . S
C745 C741 1.495 . S
C745 H751 0.959 . S
C745 H752 0.961 . S
C745 H753 0.960 . S
C746 C744 1.381 . S
C746 C747 1.394 . S
C746 H754 0.930 . S
C747 C746 1.394 . S
C747 C748 1.383 . S
C747 H755 0.929 . S
C748 C747 1.383 . S
C748 C749 1.377 . S
C749 H733 0.930 . S
C749 C748 1.377 . S
C749 C750 1.379 . S
C750 H734 0.931 . S
C750 C744 1.383 . S
C750 C749 1.379 . S
H751 C745 0.959 . S
H752 C745 0.961 . S
H753 C745 0.960 . S
H754 C746 0.930 . S
H755 C747 0.929 . S
H756 C764 0.929 . S
H757 C766 0.930 . S
H758 C768 0.930 . S
H759 C771 0.929 . S
H760 C774 0.930 . S
H761 C776 0.960 . S
H762 C776 0.960 . S
H763 C776 0.960 . S
C764 H756 0.929 . S
C764 C765 1.377 . S
C764 C766 1.384 . S
C765 C764 1.377 . S
C765 C771 1.390 . S
C766 H757 0.930 . S
C766 C764 1.384 . S
C766 C767 1.372 . S
C767 C766 1.372 . S
C767 C768 1.400 . S
C767 C772 1.490 . S
C768 H758 0.930 . S
C768 C767 1.400 . S
C768 C771 1.386 . S
H769 C785 0.930 . S
H770 C786 0.931 . S
C771 H759 0.929 . S
C771 C765 1.390 . S
C771 C768 1.386 . S
C772 C767 1.490 . S
C772 C774 1.395 . S
C772 C775 1.403 . S
H773 C779 0.930 . S
C774 H760 0.930 . S
C774 C772 1.395 . S
C774 C777 1.403 . S
C775 C772 1.403 . S
C775 C776 1.524 . S
C775 C779 1.400 . S
C776 H761 0.960 . S
C776 H762 0.960 . S
C776 H763 0.960 . S
C776 C775 1.524 . S
C777 C774 1.403 . S
C777 C778 1.392 . S
C777 C781 1.495 . S
C778 C777 1.392 . S
C778 C779 1.385 . S
C778 C780 1.478 . S
C779 H773 0.930 . S
C779 C775 1.400 . S
C779 C778 1.385 . S
C780 C778 1.478 . S
C780 C782 1.381 . S
C780 C786 1.383 . S
C781 C777 1.495 . S
C781 H787 0.959 . S
C781 H788 0.961 . S
C781 H789 0.960 . S
C782 C780 1.381 . S
C782 C783 1.394 . S
C782 H790 0.930 . S
C783 C782 1.394 . S
C783 C784 1.383 . S
C783 H791 0.929 . S
C784 C783 1.383 . S
C784 C785 1.377 . S
C785 H769 0.930 . S
C785 C784 1.377 . S
C785 C786 1.379 . S
C786 H770 0.931 . S
C786 C780 1.383 . S
C786 C785 1.379 . S
H787 C781 0.959 . S
H788 C781 0.961 . S
H789 C781 0.960 . S
H790 C782 0.930 . S
H791 C783 0.929 . S
H792 C800 0.929 . S
H793 C802 0.930 . S
H794 C804 0.930 . S
H795 C807 0.929 . S
H796 C810 0.930 . S
H797 C812 0.960 . S
H798 C812 0.960 . S
H799 C812 0.960 . S
C800 H792 0.929 . S
C800 C801 1.377 . S
C800 C802 1.384 . S
C801 C800 1.377 . S
C801 C807 1.390 . S
C802 H793 0.930 . S
C802 C800 1.384 . S
C802 C803 1.372 . S
C803 C802 1.372 . S
C803 C804 1.400 . S
C803 C808 1.490 . S
C804 H794 0.930 . S
C804 C803 1.400 . S
C804 C807 1.386 . S
H805 C821 0.930 . S
H806 C822 0.931 . S
C807 H795 0.929 . S
C807 C801 1.390 . S
C807 C804 1.386 . S
C808 C803 1.490 . S
C808 C810 1.395 . S
C808 C811 1.403 . S
H809 C815 0.930 . S
C810 H796 0.930 . S
C810 C808 1.395 . S
C810 C813 1.403 . S
C811 C808 1.403 . S
C811 C812 1.524 . S
C811 C815 1.400 . S
C812 H797 0.960 . S
C812 H798 0.960 . S
C812 H799 0.960 . S
C812 C811 1.524 . S
C813 C810 1.403 . S
C813 C814 1.392 . S
C813 C817 1.495 . S
C814 C813 1.392 . S
C814 C815 1.385 . S
C814 C816 1.478 . S
C815 H809 0.930 . S
C815 C811 1.400 . S
C815 C814 1.385 . S
C816 C814 1.478 . S
C816 C818 1.381 . S
C816 C822 1.383 . S
C817 C813 1.495 . S
C817 H823 0.959 . S
C817 H824 0.961 . S
C817 H825 0.960 . S
C818 C816 1.381 . S
C818 C819 1.394 . S
C818 H826 0.930 . S
C819 C818 1.394 . S
C819 C820 1.383 . S
C819 H827 0.929 . S
C820 C819 1.383 . S
C820 C821 1.377 . S
C821 H805 0.930 . S
C821 C820 1.377 . S
C821 C822 1.379 . S
C822 H806 0.931 . S
C822 C816 1.383 . S
C822 C821 1.379 . S
H823 C817 0.959 . S
H824 C817 0.961 . S
H825 C817 0.960 . S
H826 C818 0.930 . S
H827 C819 0.929 . S
H828 C836 0.929 . S
H829 C838 0.930 . S
H830 C840 0.930 . S
H831 C843 0.929 . S
H832 C846 0.930 . S
H833 C848 0.960 . S
H834 C848 0.960 . S
H835 C848 0.960 . S
C836 H828 0.929 . S
C836 C837 1.377 . S
C836 C838 1.384 . S
C837 C836 1.377 . S
C837 C843 1.390 . S
C838 H829 0.930 . S
C838 C836 1.384 . S
C838 C839 1.372 . S
C839 C838 1.372 . S
C839 C840 1.400 . S
C839 C844 1.490 . S
C840 H830 0.930 . S
C840 C839 1.400 . S
C840 C843 1.386 . S
H841 C857 0.930 . S
H842 C858 0.931 . S
C843 H831 0.929 . S
C843 C837 1.390 . S
C843 C840 1.386 . S
C844 C839 1.490 . S
C844 C846 1.395 . S
C844 C847 1.403 . S
H845 C851 0.930 . S
C846 H832 0.930 . S
C846 C844 1.395 . S
C846 C849 1.403 . S
C847 C844 1.403 . S
C847 C848 1.524 . S
C847 C851 1.400 . S
C848 H833 0.960 . S
C848 H834 0.960 . S
C848 H835 0.960 . S
C848 C847 1.524 . S
C849 C846 1.403 . S
C849 C850 1.392 . S
C849 C853 1.495 . S
C850 C849 1.392 . S
C850 C851 1.385 . S
C850 C852 1.478 . S
C851 H845 0.930 . S
C851 C847 1.400 . S
C851 C850 1.385 . S
C852 C850 1.478 . S
C852 C854 1.381 . S
C852 C858 1.383 . S
C853 C849 1.495 . S
C853 H859 0.959 . S
C853 H860 0.961 . S
C853 H861 0.960 . S
C854 C852 1.381 . S
C854 C855 1.394 . S
C854 H862 0.930 . S
C855 C854 1.394 . S
C855 C856 1.383 . S
C855 H863 0.929 . S
C856 C855 1.383 . S
C856 C857 1.377 . S
C857 H841 0.930 . S
C857 C856 1.377 . S
C857 C858 1.379 . S
C858 H842 0.931 . S
C858 C852 1.383 . S
C858 C857 1.379 . S
H859 C853 0.959 . S
H860 C853 0.961 . S
H861 C853 0.960 . S
H862 C854 0.930 . S
H863 C855 0.929 . S
H864 C872 0.929 . S
H865 C874 0.930 . S
H866 C876 0.930 . S
H867 C879 0.929 . S
H868 C882 0.930 . S
H869 C884 0.960 . S
H870 C884 0.960 . S
H871 C884 0.960 . S
C872 H864 0.929 . S
C872 C873 1.377 . S
C872 C874 1.384 . S
C873 C872 1.377 . S
C873 C879 1.390 . S
C874 H865 0.930 . S
C874 C872 1.384 . S
C874 C875 1.372 . S
C875 C874 1.372 . S
C875 C876 1.400 . S
C875 C880 1.490 . S
C876 H866 0.930 . S
C876 C875 1.400 . S
C876 C879 1.386 . S
H877 C893 0.930 . S
H878 C894 0.931 . S
C879 H867 0.929 . S
C879 C873 1.390 . S
C879 C876 1.386 . S
C880 C875 1.490 . S
C880 C882 1.395 . S
C880 C883 1.403 . S
H881 C887 0.930 . S
C882 H868 0.930 . S
C882 C880 1.395 . S
C882 C885 1.403 . S
C883 C880 1.403 . S
C883 C884 1.524 . S
C883 C887 1.400 . S
C884 H869 0.960 . S
C884 H870 0.960 . S
C884 H871 0.960 . S
C884 C883 1.524 . S
C885 C882 1.403 . S
C885 C886 1.392 . S
C885 C889 1.495 . S
C886 C885 1.392 . S
C886 C887 1.385 . S
C886 C888 1.478 . S
C887 H881 0.930 . S
C887 C883 1.400 . S
C887 C886 1.385 . S
C888 C886 1.478 . S
C888 C890 1.381 . S
C888 C894 1.383 . S
C889 C885 1.495 . S
C889 H895 0.959 . S
C889 H896 0.961 . S
C889 H897 0.960 . S
C890 C888 1.381 . S
C890 C891 1.394 . S
C890 H898 0.930 . S
C891 C890 1.394 . S
C891 C892 1.383 . S
C891 H899 0.929 . S
C892 C891 1.383 . S
C892 C893 1.377 . S
C893 H877 0.930 . S
C893 C892 1.377 . S
C893 C894 1.379 . S
C894 H878 0.931 . S
C894 C888 1.383 . S
C894 C893 1.379 . S
H895 C889 0.959 . S
H896 C889 0.961 . S
H897 C889 0.960 . S
H898 C890 0.930 . S
H899 C891 0.929 . S
H900 C908 0.929 . S
H901 C910 0.930 . S
H902 C912 0.930 . S
H903 C915 0.929 . S
H904 C918 0.930 . S
H905 C920 0.960 . S
H906 C920 0.960 . S
H907 C920 0.960 . S
C908 H900 0.929 . S
C908 C909 1.377 . S
C908 C910 1.384 . S
C909 C908 1.377 . S
C909 C915 1.390 . S
C910 H901 0.930 . S
C910 C908 1.384 . S
C910 C911 1.372 . S
C911 C910 1.372 . S
C911 C912 1.400 . S
C911 C916 1.490 . S
C912 H902 0.930 . S
C912 C911 1.400 . S
C912 C915 1.386 . S
H913 C929 0.930 . S
H914 C930 0.931 . S
C915 H903 0.929 . S
C915 C909 1.390 . S
C915 C912 1.386 . S
C916 C911 1.490 . S
C916 C918 1.395 . S
C916 C919 1.403 . S
H917 C923 0.930 . S
C918 H904 0.930 . S
C918 C916 1.395 . S
C918 C921 1.403 . S
C919 C916 1.403 . S
C919 C920 1.524 . S
C919 C923 1.400 . S
C920 H905 0.960 . S
C920 H906 0.960 . S
C920 H907 0.960 . S
C920 C919 1.524 . S
C921 C918 1.403 . S
C921 C922 1.392 . S
C921 C925 1.495 . S
C922 C921 1.392 . S
C922 C923 1.385 . S
C922 C924 1.478 . S
C923 H917 0.930 . S
C923 C919 1.400 . S
C923 C922 1.385 . S
C924 C922 1.478 . S
C924 C926 1.381 . S
C924 C930 1.383 . S
C925 C921 1.495 . S
C925 H931 0.959 . S
C925 H932 0.961 . S
C925 H933 0.960 . S
C926 C924 1.381 . S
C926 C927 1.394 . S
C926 H934 0.930 . S
C927 C926 1.394 . S
C927 C928 1.383 . S
C927 H935 0.929 . S
C928 C927 1.383 . S
C928 C929 1.377 . S
C929 H913 0.930 . S
C929 C928 1.377 . S
C929 C930 1.379 . S
C930 H914 0.931 . S
C930 C924 1.383 . S
C930 C929 1.379 . S
H931 C925 0.959 . S
H932 C925 0.961 . S
H933 C925 0.960 . S
H934 C926 0.930 . S
H935 C927 0.929 . S
H936 C944 0.912 1_565 S
H937 C946 0.930 . S
H938 C948 0.930 1_556 S
H939 C951 0.929 1_556 S
H940 C954 0.930 . S
H941 C956 0.960 . S
H942 C956 0.960 . S
H943 C956 0.960 . S
C944 H936 0.912 1_545 S
C944 C945 1.361 1_545 S
C944 C946 1.418 . S
C945 C944 1.361 1_565 S
C945 C951 1.390 . S
C946 H937 0.930 . S
C946 C944 1.418 . S
C946 C947 1.372 . S
C947 C946 1.372 . S
C947 C948 1.400 . S
C947 C952 1.490 . S
C948 H938 0.930 1_554 S
C948 C947 1.400 . S
C948 C951 1.386 1_545 S
H949 C965 0.930 1_556 S
H950 C966 0.931 1_556 S
C951 H939 0.929 1_554 S
C951 C945 1.390 . S
C951 C948 1.386 1_565 S
C952 C947 1.490 . S
C952 C954 1.395 . S
C952 C955 1.403 . S
H953 C959 0.930 . S
C954 H940 0.930 . S
C954 C952 1.395 . S
C954 C957 1.403 . S
C955 C952 1.403 . S
C955 C956 1.524 . S
C955 C959 1.400 . S
C956 H941 0.960 . S
C956 H942 0.960 . S
C956 H943 0.960 . S
C956 C955 1.524 . S
C957 C954 1.403 . S
C957 C958 1.392 . S
C957 C961 1.495 . S
C958 C957 1.392 . S
C958 C959 1.385 . S
C958 C960 1.478 . S
C959 H953 0.930 . S
C959 C955 1.400 . S
C959 C958 1.385 . S
C960 C958 1.478 . S
C960 C962 1.381 . S
C960 C966 1.383 . S
C961 C957 1.495 . S
C961 H967 0.959 . S
C961 H968 0.961 . S
C961 H969 0.960 . S
C962 C960 1.381 . S
C962 C963 1.394 . S
C962 H970 0.930 . S
C963 C962 1.394 . S
C963 C964 1.383 . S
C963 H971 0.929 . S
C964 C963 1.383 . S
C964 C965 1.377 . S
C965 H949 0.930 1_554 S
C965 C964 1.377 . S
C965 C966 1.379 . S
C966 H950 0.931 1_554 S
C966 C960 1.383 . S
C966 C965 1.379 . S
H967 C961 0.959 . S
H968 C961 0.961 . S
H969 C961 0.960 . S
H970 C962 0.930 . S
H971 C963 0.929 . S
H972 C980 0.929 1_556 S
H973 C982 0.930 1_556 S
H974 C984 0.930 . S
H975 C987 0.923 . S
H976 C990 0.930 . S
H977 C992 0.960 . S
H978 C992 0.960 1_556 S
H979 C992 0.960 . S
C980 H972 0.929 1_554 S
C980 C981 1.377 . S
C980 C982 1.384 1_455 S
C981 C980 1.377 . S
C981 C987 1.390 1_455 S
C982 H973 0.930 1_554 S
C982 C980 1.384 1_655 S
C982 C983 1.372 . S
C983 C982 1.372 . S
C983 C984 1.400 . S
C983 C988 1.490 . S
C984 H974 0.930 . S
C984 C983 1.400 . S
C984 C987 1.386 . S
H985 C1001 0.930 . S
H986 C1002 0.931 1_545 S
C987 H975 0.923 . S
C987 C981 1.390 1_655 S
C987 C984 1.386 . S
C988 C983 1.490 . S
C988 C990 1.395 . S
C988 C991 1.403 . S
H989 C995 0.930 . S
C990 H976 0.930 . S
C990 C988 1.395 . S
C990 C993 1.403 . S
C991 C988 1.403 . S
C991 C992 1.524 . S
C991 C995 1.400 . S
C992 H977 0.960 . S
C992 H978 0.960 1_554 S
C992 H979 0.960 . S
C992 C991 1.524 . S
C993 C990 1.403 . S
C993 C994 1.392 . S
C993 C997 1.495 . S
C994 C993 1.392 . S
C994 C995 1.385 . S
C994 C996 1.478 . S
C995 H989 0.930 . S
C995 C991 1.400 . S
C995 C994 1.385 . S
C996 C994 1.478 . S
C996 C998 1.381 1_545 S
C996 C1002 1.383 1_545 S
C997 C993 1.495 . S
C997 H1003 0.959 . S
C997 H1004 0.970 . S
C997 H1005 0.960 1_545 S
C998 C996 1.381 1_565 S
C998 C999 1.394 . S
C998 H1006 0.930 1_554 S
C999 C998 1.394 . S
C999 C1000 1.383 . S
C999 H1007 0.929 1_554 S
C1000 C999 1.383 . S
C1000 C1001 1.377 . S
C1001 H985 0.930 . S
C1001 C1000 1.377 . S
C1001 C1002 1.379 . S
C1002 H986 0.931 1_565 S
C1002 C996 1.383 1_565 S
C1002 C1001 1.379 . S
H1003 C997 0.959 . S
H1004 C997 0.970 . S
H1005 C997 0.960 1_565 S
H1006 C998 0.930 1_556 S
H1007 C999 0.929 1_556 S
H1008 C1016 0.929 . S
H1009 C1018 0.930 . S
H1010 C1020 0.930 . S
H1011 C1023 0.929 . S
H1012 C1026 0.930 1_556 S
H1013 C1028 0.960 . S
H1014 C1028 0.960 . S
H1015 C1028 0.960 . S
C1016 H1008 0.929 . S
C1016 C1017 1.377 . S
C1016 C1018 1.384 . S
C1017 C1016 1.377 . S
C1017 C1023 1.390 . S
C1018 H1009 0.930 . S
C1018 C1016 1.384 . S
C1018 C1019 1.372 . S
C1019 C1018 1.372 . S
C1019 C1020 1.400 . S
C1019 C1024 1.490 . S
C1020 H1010 0.930 . S
C1020 C1019 1.400 . S
C1020 C1023 1.386 . S
H1021 C1037 0.930 . S
H1022 C1038 0.931 . S
C1023 H1011 0.929 . S
C1023 C1017 1.390 . S
C1023 C1020 1.386 . S
C1024 C1019 1.490 . S
C1024 C1026 1.395 . S
C1024 C1027 1.403 . S
H1025 C1031 0.930 . S
C1026 H1012 0.930 1_554 S
C1026 C1024 1.395 . S
C1026 C1029 1.403 . S
C1027 C1024 1.403 . S
C1027 C1028 1.524 . S
C1027 C1031 1.400 . S
C1028 H1013 0.960 . S
C1028 H1014 0.960 . S
C1028 H1015 0.960 . S
C1028 C1027 1.524 . S
C1029 C1026 1.403 . S
C1029 C1030 1.392 . S
C1029 C1033 1.495 1_554 S
C1030 C1029 1.392 . S
C1030 C1031 1.385 . S
C1030 C1032 1.478 . S
C1031 H1025 0.930 . S
C1031 C1027 1.400 . S
C1031 C1030 1.385 . S
C1032 C1030 1.478 . S
C1032 C1034 1.381 . S
C1032 C1038 1.383 1_655 S
C1033 C1029 1.495 1_556 S
C1033 H1039 0.959 . S
C1033 H1040 0.961 . S
C1033 H1041 0.960 . S
C1034 C1032 1.381 . S
C1034 C1035 1.394 1_655 S
C1034 H1042 0.930 . S
C1035 C1034 1.394 1_455 S
C1035 C1036 1.383 . S
C1035 H1043 0.929 . S
C1036 C1035 1.383 . S
C1036 C1037 1.377 . S
C1037 H1021 0.930 . S
C1037 C1036 1.377 . S
C1037 C1038 1.379 . S
C1038 H1022 0.931 . S
C1038 C1032 1.383 1_455 S
C1038 C1037 1.379 . S
H1039 C1033 0.959 . S
H1040 C1033 0.961 . S
H1041 C1033 0.960 . S
H1042 C1034 0.930 . S
H1043 C1035 0.929 . S
H1044 C1052 0.929 . S
H1045 C1054 0.930 . S
H1046 C1056 0.930 . S
H1047 C1059 0.929 . S
H1048 C1062 0.930 . S
H1049 C1064 0.960 . S
H1050 C1064 0.960 . S
H1051 C1064 0.960 . S
C1052 H1044 0.929 . S
C1052 C1053 1.377 . S
C1052 C1054 1.384 . S
C1053 C1052 1.377 . S
C1053 C1059 1.390 . S
C1054 H1045 0.930 . S
C1054 C1052 1.384 . S
C1054 C1055 1.372 . S
C1055 C1054 1.372 . S
C1055 C1056 1.400 . S
C1055 C1060 1.490 . S
C1056 H1046 0.930 . S
C1056 C1055 1.400 . S
C1056 C1059 1.386 . S
H1057 C1073 0.930 . S
H1058 C1074 0.931 . S
C1059 H1047 0.929 . S
C1059 C1053 1.390 . S
C1059 C1056 1.386 . S
C1060 C1055 1.490 . S
C1060 C1062 1.395 . S
C1060 C1063 1.403 . S
H1061 C1067 0.930 . S
C1062 H1048 0.930 . S
C1062 C1060 1.395 . S
C1062 C1065 1.403 . S
C1063 C1060 1.403 . S
C1063 C1064 1.524 . S
C1063 C1067 1.400 . S
C1064 H1049 0.960 . S
C1064 H1050 0.960 . S
C1064 H1051 0.960 . S
C1064 C1063 1.524 . S
C1065 C1062 1.403 . S
C1065 C1066 1.392 . S
C1065 C1069 1.495 . S
C1066 C1065 1.392 . S
C1066 C1067 1.385 . S
C1066 C1068 1.478 . S
C1067 H1061 0.930 . S
C1067 C1063 1.400 . S
C1067 C1066 1.385 . S
C1068 C1066 1.478 . S
C1068 C1070 1.381 . S
C1068 C1074 1.383 . S
C1069 C1065 1.495 . S
C1069 H1075 0.959 . S
C1069 H1076 0.961 . S
C1069 H1077 0.960 . S
C1070 C1068 1.381 . S
C1070 C1071 1.394 . S
C1070 H1078 0.930 . S
C1071 C1070 1.394 . S
C1071 C1072 1.383 . S
C1071 H1079 0.929 . S
C1072 C1071 1.383 . S
C1072 C1073 1.377 . S
C1073 H1057 0.930 . S
C1073 C1072 1.377 . S
C1073 C1074 1.379 . S
C1074 H1058 0.931 . S
C1074 C1068 1.383 . S
C1074 C1073 1.379 . S
H1075 C1069 0.959 . S
H1076 C1069 0.961 . S
H1077 C1069 0.960 . S
H1078 C1070 0.930 . S
H1079 C1071 0.929 . S
H1080 C1088 0.929 . S
H1081 C1090 0.930 . S
H1082 C1092 0.930 . S
H1083 C1095 0.929 . S
H1084 C1098 0.930 . S
H1085 C1100 0.960 . S
H1086 C1100 0.960 . S
H1087 C1100 0.960 . S
C1088 H1080 0.929 . S
C1088 C1089 1.377 . S
C1088 C1090 1.384 . S
C1089 C1088 1.377 . S
C1089 C1095 1.390 . S
C1090 H1081 0.930 . S
C1090 C1088 1.384 . S
C1090 C1091 1.372 . S
C1091 C1090 1.372 . S
C1091 C1092 1.400 . S
C1091 C1096 1.490 . S
C1092 H1082 0.930 . S
C1092 C1091 1.400 . S
C1092 C1095 1.386 . S
H1093 C1109 0.930 . S
H1094 C1110 0.931 . S
C1095 H1083 0.929 . S
C1095 C1089 1.390 . S
C1095 C1092 1.386 . S
C1096 C1091 1.490 . S
C1096 C1098 1.395 . S
C1096 C1099 1.403 . S
H1097 C1103 0.930 . S
C1098 H1084 0.930 . S
C1098 C1096 1.395 . S
C1098 C1101 1.403 . S
C1099 C1096 1.403 . S
C1099 C1100 1.524 . S
C1099 C1103 1.400 . S
C1100 H1085 0.960 . S
C1100 H1086 0.960 . S
C1100 H1087 0.960 . S
C1100 C1099 1.524 . S
C1101 C1098 1.403 . S
C1101 C1102 1.392 . S
C1101 C1105 1.495 . S
C1102 C1101 1.392 . S
C1102 C1103 1.385 . S
C1102 C1104 1.478 . S
C1103 H1097 0.930 . S
C1103 C1099 1.400 . S
C1103 C1102 1.385 . S
C1104 C1102 1.478 . S
C1104 C1106 1.381 . S
C1104 C1110 1.383 . S
C1105 C1101 1.495 . S
C1105 H1111 0.959 . S
C1105 H1112 0.961 . S
C1105 H1113 0.960 . S
C1106 C1104 1.381 . S
C1106 C1107 1.394 . S
C1106 H1114 0.930 . S
C1107 C1106 1.394 . S
C1107 C1108 1.383 . S
C1107 H1115 0.929 . S
C1108 C1107 1.383 . S
C1108 C1109 1.377 . S
C1109 H1093 0.930 . S
C1109 C1108 1.377 . S
C1109 C1110 1.379 . S
C1110 H1094 0.931 . S
C1110 C1104 1.383 . S
C1110 C1109 1.379 . S
H1111 C1105 0.959 . S
H1112 C1105 0.961 . S
H1113 C1105 0.960 . S
H1114 C1106 0.930 . S
H1115 C1107 0.929 . S
H1116 C1124 0.929 . S
H1117 C1126 0.930 . S
H1118 C1128 0.930 . S
H1119 C1131 0.929 . S
H1120 C1134 0.930 . S
H1121 C1136 0.960 . S
H1122 C1136 0.960 . S
H1123 C1136 0.960 . S
C1124 H1116 0.929 . S
C1124 C1125 1.377 . S
C1124 C1126 1.384 . S
C1125 C1124 1.377 . S
C1125 C1131 1.390 . S
C1126 H1117 0.930 . S
C1126 C1124 1.384 . S
C1126 C1127 1.372 . S
C1127 C1126 1.372 . S
C1127 C1128 1.400 . S
C1127 C1132 1.490 . S
C1128 H1118 0.930 . S
C1128 C1127 1.400 . S
C1128 C1131 1.386 . S
H1129 C1145 0.930 . S
H1130 C1146 0.931 . S
C1131 H1119 0.929 . S
C1131 C1125 1.390 . S
C1131 C1128 1.386 . S
C1132 C1127 1.490 . S
C1132 C1134 1.395 . S
C1132 C1135 1.403 . S
H1133 C1139 0.930 . S
C1134 H1120 0.930 . S
C1134 C1132 1.395 . S
C1134 C1137 1.403 . S
C1135 C1132 1.403 . S
C1135 C1136 1.524 . S
C1135 C1139 1.400 . S
C1136 H1121 0.960 . S
C1136 H1122 0.960 . S
C1136 H1123 0.960 . S
C1136 C1135 1.524 . S
C1137 C1134 1.403 . S
C1137 C1138 1.392 . S
C1137 C1141 1.495 . S
C1138 C1137 1.392 . S
C1138 C1139 1.385 . S
C1138 C1140 1.478 . S
C1139 H1133 0.930 . S
C1139 C1135 1.400 . S
C1139 C1138 1.385 . S
C1140 C1138 1.478 . S
C1140 C1142 1.381 . S
C1140 C1146 1.383 . S
C1141 C1137 1.495 . S
C1141 H1147 0.959 . S
C1141 H1148 0.961 . S
C1141 H1149 0.960 . S
C1142 C1140 1.381 . S
C1142 C1143 1.394 . S
C1142 H1150 0.930 . S
C1143 C1142 1.394 . S
C1143 C1144 1.383 . S
C1143 H1151 0.929 . S
C1144 C1143 1.383 . S
C1144 C1145 1.377 . S
C1145 H1129 0.930 . S
C1145 C1144 1.377 . S
C1145 C1146 1.379 . S
C1146 H1130 0.931 . S
C1146 C1140 1.383 . S
C1146 C1145 1.379 . S
H1147 C1141 0.959 . S
H1148 C1141 0.961 . S
H1149 C1141 0.960 . S
H1150 C1142 0.930 . S
H1151 C1143 0.929 . S
H1152 C1160 0.929 . S
H1153 C1162 0.930 . S
H1154 C1164 0.930 . S
H1155 C1167 0.929 . S
H1156 C1170 0.930 . S
H1157 C1172 0.960 . S
H1158 C1172 0.960 . S
H1159 C1172 0.960 . S
C1160 H1152 0.929 . S
C1160 C1161 1.377 . S
C1160 C1162 1.384 . S
C1161 C1160 1.377 . S
C1161 C1167 1.390 . S
C1162 H1153 0.930 . S
C1162 C1160 1.384 . S
C1162 C1163 1.372 . S
C1163 C1162 1.372 . S
C1163 C1164 1.400 . S
C1163 C1168 1.490 . S
C1164 H1154 0.930 . S
C1164 C1163 1.400 . S
C1164 C1167 1.386 . S
H1165 C1181 0.930 . S
H1166 C1182 0.931 . S
C1167 H1155 0.929 . S
C1167 C1161 1.390 . S
C1167 C1164 1.386 . S
C1168 C1163 1.490 . S
C1168 C1170 1.395 . S
C1168 C1171 1.403 . S
H1169 C1175 0.930 . S
C1170 H1156 0.930 . S
C1170 C1168 1.395 . S
C1170 C1173 1.403 . S
C1171 C1168 1.403 . S
C1171 C1172 1.524 . S
C1171 C1175 1.400 . S
C1172 H1157 0.960 . S
C1172 H1158 0.960 . S
C1172 H1159 0.960 . S
C1172 C1171 1.524 . S
C1173 C1170 1.403 . S
C1173 C1174 1.392 . S
C1173 C1177 1.495 . S
C1174 C1173 1.392 . S
C1174 C1175 1.385 . S
C1174 C1176 1.478 . S
C1175 H1169 0.930 . S
C1175 C1171 1.400 . S
C1175 C1174 1.385 . S
C1176 C1174 1.478 . S
C1176 C1178 1.381 . S
C1176 C1182 1.383 . S
C1177 C1173 1.495 . S
C1177 H1183 0.959 . S
C1177 H1184 0.961 . S
C1177 H1185 0.960 . S
C1178 C1176 1.381 . S
C1178 C1179 1.394 . S
C1178 H1186 0.930 . S
C1179 C1178 1.394 . S
C1179 C1180 1.383 . S
C1179 H1187 0.929 . S
C1180 C1179 1.383 . S
C1180 C1181 1.377 . S
C1181 H1165 0.930 . S
C1181 C1180 1.377 . S
C1181 C1182 1.379 . S
C1182 H1166 0.931 . S
C1182 C1176 1.383 . S
C1182 C1181 1.379 . S
H1183 C1177 0.959 . S
H1184 C1177 0.961 . S
H1185 C1177 0.960 . S
H1186 C1178 0.930 . S
H1187 C1179 0.929 . S
H1188 C1196 0.929 . S
H1189 C1198 0.930 . S
H1190 C1200 0.930 . S
H1191 C1203 0.929 . S
H1192 C1206 0.930 . S
H1193 C1208 0.960 . S
H1194 C1208 0.960 . S
H1195 C1208 0.960 . S
C1196 H1188 0.929 . S
C1196 C1197 1.377 . S
C1196 C1198 1.384 . S
C1197 C1196 1.377 . S
C1197 C1203 1.390 . S
C1198 H1189 0.930 . S
C1198 C1196 1.384 . S
C1198 C1199 1.372 . S
C1199 C1198 1.372 . S
C1199 C1200 1.400 . S
C1199 C1204 1.490 . S
C1200 H1190 0.930 . S
C1200 C1199 1.400 . S
C1200 C1203 1.386 . S
H1201 C1217 0.930 . S
H1202 C1218 0.931 . S
C1203 H1191 0.929 . S
C1203 C1197 1.390 . S
C1203 C1200 1.386 . S
C1204 C1199 1.490 . S
C1204 C1206 1.395 . S
C1204 C1207 1.403 . S
H1205 C1211 0.930 . S
C1206 H1192 0.930 . S
C1206 C1204 1.395 . S
C1206 C1209 1.403 . S
C1207 C1204 1.403 . S
C1207 C1208 1.524 . S
C1207 C1211 1.400 . S
C1208 H1193 0.960 . S
C1208 H1194 0.960 . S
C1208 H1195 0.960 . S
C1208 C1207 1.524 . S
C1209 C1206 1.403 . S
C1209 C1210 1.392 . S
C1209 C1213 1.495 . S
C1210 C1209 1.392 . S
C1210 C1211 1.385 . S
C1210 C1212 1.478 . S
C1211 H1205 0.930 . S
C1211 C1207 1.400 . S
C1211 C1210 1.385 . S
C1212 C1210 1.478 . S
C1212 C1214 1.381 . S
C1212 C1218 1.383 . S
C1213 C1209 1.495 . S
C1213 H1219 0.959 . S
C1213 H1220 0.961 . S
C1213 H1221 0.960 . S
C1214 C1212 1.381 . S
C1214 C1215 1.394 . S
C1214 H1222 0.930 . S
C1215 C1214 1.394 . S
C1215 C1216 1.383 . S
C1215 H1223 0.929 . S
C1216 C1215 1.383 . S
C1216 C1217 1.377 . S
C1217 H1201 0.930 . S
C1217 C1216 1.377 . S
C1217 C1218 1.379 . S
C1218 H1202 0.931 . S
C1218 C1212 1.383 . S
C1218 C1217 1.379 . S
H1219 C1213 0.959 . S
H1220 C1213 0.961 . S
H1221 C1213 0.960 . S
H1222 C1214 0.930 . S
H1223 C1215 0.929 . S
H1224 C1232 0.929 . S
H1225 C1234 0.930 . S
H1226 C1236 0.930 . S
H1227 C1239 0.929 . S
H1228 C1242 0.930 . S
H1229 C1244 0.960 . S
H1230 C1244 0.960 . S
H1231 C1244 0.960 . S
C1232 H1224 0.929 . S
C1232 C1233 1.377 . S
C1232 C1234 1.384 . S
C1233 C1232 1.377 . S
C1233 C1239 1.390 . S
C1234 H1225 0.930 . S
C1234 C1232 1.384 . S
C1234 C1235 1.372 . S
C1235 C1234 1.372 . S
C1235 C1236 1.400 . S
C1235 C1240 1.490 . S
C1236 H1226 0.930 . S
C1236 C1235 1.400 . S
C1236 C1239 1.386 . S
H1237 C1253 0.930 . S
H1238 C1254 0.931 . S
C1239 H1227 0.929 . S
C1239 C1233 1.390 . S
C1239 C1236 1.386 . S
C1240 C1235 1.490 . S
C1240 C1242 1.395 . S
C1240 C1243 1.403 . S
H1241 C1247 0.930 . S
C1242 H1228 0.930 . S
C1242 C1240 1.395 . S
C1242 C1245 1.403 . S
C1243 C1240 1.403 . S
C1243 C1244 1.524 . S
C1243 C1247 1.400 . S
C1244 H1229 0.960 . S
C1244 H1230 0.960 . S
C1244 H1231 0.960 . S
C1244 C1243 1.524 . S
C1245 C1242 1.403 . S
C1245 C1246 1.392 . S
C1245 C1249 1.495 . S
C1246 C1245 1.392 . S
C1246 C1247 1.385 . S
C1246 C1248 1.478 . S
C1247 H1241 0.930 . S
C1247 C1243 1.400 . S
C1247 C1246 1.385 . S
C1248 C1246 1.478 . S
C1248 C1250 1.381 . S
C1248 C1254 1.383 . S
C1249 C1245 1.495 . S
C1249 H1255 0.959 . S
C1249 H1256 0.961 . S
C1249 H1257 0.960 . S
C1250 C1248 1.381 . S
C1250 C1251 1.394 . S
C1250 H1258 0.930 . S
C1251 C1250 1.394 . S
C1251 C1252 1.383 . S
C1251 H1259 0.929 . S
C1252 C1251 1.383 . S
C1252 C1253 1.377 . S
C1253 H1237 0.930 . S
C1253 C1252 1.377 . S
C1253 C1254 1.379 . S
C1254 H1238 0.931 . S
C1254 C1248 1.383 . S
C1254 C1253 1.379 . S
H1255 C1249 0.959 . S
H1256 C1249 0.961 . S
H1257 C1249 0.960 . S
H1258 C1250 0.930 . S
H1259 C1251 0.929 . S
H1260 C1268 0.929 . S
H1261 C1270 0.930 . S
H1262 C1272 0.930 . S
H1263 C1275 0.929 . S
H1264 C1278 0.930 . S
H1265 C1280 0.960 . S
H1266 C1280 0.960 . S
H1267 C1280 0.960 . S
C1268 H1260 0.929 . S
C1268 C1269 1.377 . S
C1268 C1270 1.384 . S
C1269 C1268 1.377 . S
C1269 C1275 1.390 . S
C1270 H1261 0.930 . S
C1270 C1268 1.384 . S
C1270 C1271 1.372 . S
C1271 C1270 1.372 . S
C1271 C1272 1.400 . S
C1271 C1276 1.490 . S
C1272 H1262 0.930 . S
C1272 C1271 1.400 . S
C1272 C1275 1.386 . S
H1273 C1289 0.930 . S
H1274 C1290 0.931 . S
C1275 H1263 0.929 . S
C1275 C1269 1.390 . S
C1275 C1272 1.386 . S
C1276 C1271 1.490 . S
C1276 C1278 1.395 . S
C1276 C1279 1.403 . S
H1277 C1283 0.930 . S
C1278 H1264 0.930 . S
C1278 C1276 1.395 . S
C1278 C1281 1.403 . S
C1279 C1276 1.403 . S
C1279 C1280 1.524 . S
C1279 C1283 1.400 . S
C1280 H1265 0.960 . S
C1280 H1266 0.960 . S
C1280 H1267 0.960 . S
C1280 C1279 1.524 . S
C1281 C1278 1.403 . S
C1281 C1282 1.392 . S
C1281 C1285 1.495 . S
C1282 C1281 1.392 . S
C1282 C1283 1.385 . S
C1282 C1284 1.478 . S
C1283 H1277 0.930 . S
C1283 C1279 1.400 . S
C1283 C1282 1.385 . S
C1284 C1282 1.478 . S
C1284 C1286 1.381 . S
C1284 C1290 1.383 . S
C1285 C1281 1.495 . S
C1285 H1291 0.959 . S
C1285 H1292 0.961 . S
C1285 H1293 0.960 . S
C1286 C1284 1.381 . S
C1286 C1287 1.394 . S
C1286 H1294 0.930 . S
C1287 C1286 1.394 . S
C1287 C1288 1.383 . S
C1287 H1295 0.929 . S
C1288 C1287 1.383 . S
C1288 C1289 1.377 . S
C1289 H1273 0.930 . S
C1289 C1288 1.377 . S
C1289 C1290 1.379 . S
C1290 H1274 0.931 . S
C1290 C1284 1.383 . S
C1290 C1289 1.379 . S
H1291 C1285 0.959 . S
H1292 C1285 0.961 . S
H1293 C1285 0.960 . S
H1294 C1286 0.930 . S
H1295 C1287 0.929 . S
H1296 C1304 0.929 . S
H1297 C1306 0.930 . S
H1298 C1308 0.930 . S
H1299 C1311 0.929 . S
H1300 C1314 0.930 . S
H1301 C1316 0.960 . S
H1302 C1316 0.960 . S
H1303 C1316 0.960 . S
C1304 H1296 0.929 . S
C1304 C1305 1.377 . S
C1304 C1306 1.384 . S
C1305 C1304 1.377 . S
C1305 C1311 1.390 . S
C1306 H1297 0.930 . S
C1306 C1304 1.384 . S
C1306 C1307 1.372 . S
C1307 C1306 1.372 . S
C1307 C1308 1.400 . S
C1307 C1312 1.490 . S
C1308 H1298 0.930 . S
C1308 C1307 1.400 . S
C1308 C1311 1.386 . S
H1309 C1325 0.930 . S
H1310 C1326 0.931 . S
C1311 H1299 0.929 . S
C1311 C1305 1.390 . S
C1311 C1308 1.386 . S
C1312 C1307 1.490 . S
C1312 C1314 1.395 . S
C1312 C1315 1.403 . S
H1313 C1319 0.930 . S
C1314 H1300 0.930 . S
C1314 C1312 1.395 . S
C1314 C1317 1.403 . S
C1315 C1312 1.403 . S
C1315 C1316 1.524 . S
C1315 C1319 1.400 . S
C1316 H1301 0.960 . S
C1316 H1302 0.960 . S
C1316 H1303 0.960 . S
C1316 C1315 1.524 . S
C1317 C1314 1.403 . S
C1317 C1318 1.392 . S
C1317 C1321 1.495 . S
C1318 C1317 1.392 . S
C1318 C1319 1.385 . S
C1318 C1320 1.478 . S
C1319 H1313 0.930 . S
C1319 C1315 1.400 . S
C1319 C1318 1.385 . S
C1320 C1318 1.478 . S
C1320 C1322 1.381 . S
C1320 C1326 1.383 . S
C1321 C1317 1.495 . S
C1321 H1327 0.959 . S
C1321 H1328 0.961 . S
C1321 H1329 0.960 . S
C1322 C1320 1.381 . S
C1322 C1323 1.394 . S
C1322 H1330 0.930 . S
C1323 C1322 1.394 . S
C1323 C1324 1.383 . S
C1323 H1331 0.929 . S
C1324 C1323 1.383 . S
C1324 C1325 1.377 . S
C1325 H1309 0.930 . S
C1325 C1324 1.377 . S
C1325 C1326 1.379 . S
C1326 H1310 0.931 . S
C1326 C1320 1.383 . S
C1326 C1325 1.379 . S
H1327 C1321 0.959 . S
H1328 C1321 0.961 . S
H1329 C1321 0.960 . S
H1330 C1322 0.930 . S
H1331 C1323 0.929 . S
H1332 C1340 0.929 . S
H1333 C1342 0.930 . S
H1334 C1344 0.930 . S
H1335 C1347 0.929 . S
H1336 C1350 0.930 . S
H1337 C1352 0.960 . S
H1338 C1352 0.960 . S
H1339 C1352 0.960 . S
C1340 H1332 0.929 . S
C1340 C1341 1.377 . S
C1340 C1342 1.384 . S
C1341 C1340 1.377 . S
C1341 C1347 1.390 . S
C1342 H1333 0.930 . S
C1342 C1340 1.384 . S
C1342 C1343 1.372 . S
C1343 C1342 1.372 . S
C1343 C1344 1.400 . S
C1343 C1348 1.490 . S
C1344 H1334 0.930 . S
C1344 C1343 1.400 . S
C1344 C1347 1.386 . S
H1345 C1361 0.930 . S
H1346 C1362 0.931 . S
C1347 H1335 0.929 . S
C1347 C1341 1.390 . S
C1347 C1344 1.386 . S
C1348 C1343 1.490 . S
C1348 C1350 1.395 . S
C1348 C1351 1.403 . S
H1349 C1355 0.930 . S
C1350 H1336 0.930 . S
C1350 C1348 1.395 . S
C1350 C1353 1.403 . S
C1351 C1348 1.403 . S
C1351 C1352 1.524 . S
C1351 C1355 1.400 . S
C1352 H1337 0.960 . S
C1352 H1338 0.960 . S
C1352 H1339 0.960 . S
C1352 C1351 1.524 . S
C1353 C1350 1.403 . S
C1353 C1354 1.392 . S
C1353 C1357 1.495 . S
C1354 C1353 1.392 . S
C1354 C1355 1.385 . S
C1354 C1356 1.478 . S
C1355 H1349 0.930 . S
C1355 C1351 1.400 . S
C1355 C1354 1.385 . S
C1356 C1354 1.478 . S
C1356 C1358 1.381 . S
C1356 C1362 1.383 . S
C1357 C1353 1.495 . S
C1357 H1363 0.959 . S
C1357 H1364 0.961 . S
C1357 H1365 0.960 . S
C1358 C1356 1.381 . S
C1358 C1359 1.394 . S
C1358 H1366 0.930 . S
C1359 C1358 1.394 . S
C1359 C1360 1.383 . S
C1359 H1367 0.929 . S
C1360 C1359 1.383 . S
C1360 C1361 1.377 . S
C1361 H1345 0.930 . S
C1361 C1360 1.377 . S
C1361 C1362 1.379 . S
C1362 H1346 0.931 . S
C1362 C1356 1.383 . S
C1362 C1361 1.379 . S
H1363 C1357 0.959 . S
H1364 C1357 0.961 . S
H1365 C1357 0.960 . S
H1366 C1358 0.930 . S
H1367 C1359 0.929 . S
H1368 C1376 0.929 . S
H1369 C1378 0.930 . S
H1370 C1380 0.930 . S
H1371 C1383 0.929 . S
H1372 C1386 0.930 . S
H1373 C1388 0.960 . S
H1374 C1388 0.960 . S
H1375 C1388 0.960 . S
C1376 H1368 0.929 . S
C1376 C1377 1.377 . S
C1376 C1378 1.384 . S
C1377 C1376 1.377 . S
C1377 C1383 1.390 . S
C1378 H1369 0.930 . S
C1378 C1376 1.384 . S
C1378 C1379 1.372 . S
C1379 C1378 1.372 . S
C1379 C1380 1.400 . S
C1379 C1384 1.490 . S
C1380 H1370 0.930 . S
C1380 C1379 1.400 . S
C1380 C1383 1.386 . S
H1381 C1397 0.930 . S
H1382 C1398 0.931 1_556 S
C1383 H1371 0.929 . S
C1383 C1377 1.390 . S
C1383 C1380 1.386 . S
C1384 C1379 1.490 . S
C1384 C1386 1.395 . S
C1384 C1387 1.403 . S
H1385 C1391 0.930 . S
C1386 H1372 0.930 . S
C1386 C1384 1.395 . S
C1386 C1389 1.403 . S
C1387 C1384 1.403 . S
C1387 C1388 1.524 . S
C1387 C1391 1.400 . S
C1388 H1373 0.960 . S
C1388 H1374 0.960 . S
C1388 H1375 0.960 . S
C1388 C1387 1.524 . S
C1389 C1386 1.403 . S
C1389 C1390 1.392 . S
C1389 C1393 1.495 . S
C1390 C1389 1.392 . S
C1390 C1391 1.385 . S
C1390 C1392 1.478 . S
C1391 H1385 0.930 . S
C1391 C1387 1.400 . S
C1391 C1390 1.385 . S
C1392 C1390 1.478 . S
C1392 C1394 1.381 1_556 S
C1392 C1398 1.383 1_556 S
C1393 C1389 1.495 . S
C1393 H1399 0.959 . S
C1393 H1400 0.961 . S
C1393 H1401 0.960 . S
C1394 C1392 1.381 1_554 S
C1394 C1395 1.394 . S
C1394 H1402 0.930 . S
C1395 C1394 1.394 . S
C1395 C1396 1.383 . S
C1395 H1403 0.929 . S
C1396 C1395 1.383 . S
C1396 C1397 1.377 . S
C1397 H1381 0.930 . S
C1397 C1396 1.377 . S
C1397 C1398 1.379 . S
C1398 H1382 0.931 1_554 S
C1398 C1392 1.383 1_554 S
C1398 C1397 1.379 . S
H1399 C1393 0.959 . S
H1400 C1393 0.961 . S
H1401 C1393 0.960 . S
H1402 C1394 0.930 . S
H1403 C1395 0.929 . S
H1404 C1412 0.929 . S
H1405 C1414 0.930 . S
H1406 C1416 0.930 1_556 S
H1407 C1419 0.929 . S
H1408 C1422 0.930 . S
H1409 C1424 0.960 . S
H1410 C1424 0.960 . S
H1411 C1424 0.960 . S
C1412 H1404 0.929 . S
C1412 C1413 1.377 . S
C1412 C1414 1.384 . S
C1413 C1412 1.377 . S
C1413 C1419 1.390 . S
C1414 H1405 0.930 . S
C1414 C1412 1.384 . S
C1414 C1415 1.372 1_554 S
C1415 C1414 1.372 1_556 S
C1415 C1416 1.400 1_556 S
C1415 C1420 1.490 . S
C1416 H1406 0.930 1_554 S
C1416 C1415 1.400 1_554 S
C1416 C1419 1.386 . S
H1417 C1433 0.930 . S
H1418 C1434 0.931 . S
C1419 H1407 0.929 . S
C1419 C1413 1.390 . S
C1419 C1416 1.386 . S
C1420 C1415 1.490 . S
C1420 C1422 1.395 . S
C1420 C1423 1.403 . S
H1421 C1427 0.930 . S
C1422 H1408 0.930 . S
C1422 C1420 1.395 . S
C1422 C1425 1.403 . S
C1423 C1420 1.403 . S
C1423 C1424 1.524 . S
C1423 C1427 1.400 . S
C1424 H1409 0.960 . S
C1424 H1410 0.960 . S
C1424 H1411 0.960 . S
C1424 C1423 1.524 . S
C1425 C1422 1.403 . S
C1425 C1426 1.392 . S
C1425 C1429 1.495 . S
C1426 C1425 1.392 . S
C1426 C1427 1.385 . S
C1426 C1428 1.478 . S
C1427 H1421 0.930 . S
C1427 C1423 1.400 . S
C1427 C1426 1.385 . S
C1428 C1426 1.478 . S
C1428 C1430 1.381 . S
C1428 C1434 1.383 . S
C1429 C1425 1.495 . S
C1429 H1435 0.959 . S
C1429 H1436 0.961 . S
C1429 H1437 0.960 . S
C1430 C1428 1.381 . S
C1430 C1431 1.394 . S
C1430 H1438 0.930 . S
C1431 C1430 1.394 . S
C1431 C1432 1.383 . S
C1431 H1439 0.929 . S
C1432 C1431 1.383 . S
C1432 C1433 1.377 . S
C1433 H1417 0.930 . S
C1433 C1432 1.377 . S
C1433 C1434 1.379 . S
C1434 H1418 0.931 . S
C1434 C1428 1.383 . S
C1434 C1433 1.379 . S
H1435 C1429 0.959 . S
H1436 C1429 0.961 . S
H1437 C1429 0.960 . S
H1438 C1430 0.930 . S
H1439 C1431 0.929 . S
H1440 C1448 0.929 . S
H1441 C1450 0.930 . S
H1442 C1452 0.930 . S
H1443 C1455 0.929 . S
H1444 C1458 0.930 . S
H1445 C1460 0.960 . S
H1446 C1460 0.960 . S
H1447 C1460 0.960 . S
C1448 H1440 0.929 . S
C1448 C1449 1.377 . S
C1448 C1450 1.384 . S
C1449 C1448 1.377 . S
C1449 C1455 1.390 . S
C1450 H1441 0.930 . S
C1450 C1448 1.384 . S
C1450 C1451 1.372 . S
C1451 C1450 1.372 . S
C1451 C1452 1.400 . S
C1451 C1456 1.490 . S
C1452 H1442 0.930 . S
C1452 C1451 1.400 . S
C1452 C1455 1.386 . S
H1453 C1469 0.930 . S
H1454 C1470 0.931 . S
C1455 H1443 0.929 . S
C1455 C1449 1.390 . S
C1455 C1452 1.386 . S
C1456 C1451 1.490 . S
C1456 C1458 1.395 . S
C1456 C1459 1.403 . S
H1457 C1463 0.930 . S
C1458 H1444 0.930 . S
C1458 C1456 1.395 . S
C1458 C1461 1.403 . S
C1459 C1456 1.403 . S
C1459 C1460 1.524 . S
C1459 C1463 1.400 . S
C1460 H1445 0.960 . S
C1460 H1446 0.960 . S
C1460 H1447 0.960 . S
C1460 C1459 1.524 . S
C1461 C1458 1.403 . S
C1461 C1462 1.392 . S
C1461 C1465 1.495 . S
C1462 C1461 1.392 . S
C1462 C1463 1.385 . S
C1462 C1464 1.478 . S
C1463 H1457 0.930 . S
C1463 C1459 1.400 . S
C1463 C1462 1.385 . S
C1464 C1462 1.478 . S
C1464 C1466 1.381 1_556 S
C1464 C1470 1.383 1_556 S
C1465 C1461 1.495 . S
C1465 H1471 0.959 . S
C1465 H1472 0.961 . S
C1465 H1473 0.960 . S
C1466 C1464 1.381 1_554 S
C1466 C1467 1.394 . S
C1466 H1474 0.930 1_554 S
C1467 C1466 1.394 . S
C1467 C1468 1.383 . S
C1467 H1475 0.929 . S
C1468 C1467 1.383 . S
C1468 C1469 1.377 . S
C1469 H1453 0.930 . S
C1469 C1468 1.377 . S
C1469 C1470 1.379 . S
C1470 H1454 0.931 . S
C1470 C1464 1.383 1_554 S
C1470 C1469 1.379 . S
H1471 C1465 0.959 . S
H1472 C1465 0.961 . S
H1473 C1465 0.960 . S
H1474 C1466 0.930 1_556 S
H1475 C1467 0.929 . S
H1476 C1484 0.929 . S
H1477 C1486 0.930 . S
H1478 C1488 0.930 . S
H1479 C1491 0.929 . S
H1480 C1494 0.930 . S
H1481 C1496 0.960 . S
H1482 C1496 0.960 . S
H1483 C1496 0.960 . S
C1484 H1476 0.929 . S
C1484 C1485 1.377 . S
C1484 C1486 1.384 . S
C1485 C1484 1.377 . S
C1485 C1491 1.390 . S
C1486 H1477 0.930 . S
C1486 C1484 1.384 . S
C1486 C1487 1.372 . S
C1487 C1486 1.372 . S
C1487 C1488 1.400 . S
C1487 C1492 1.490 . S
C1488 H1478 0.930 . S
C1488 C1487 1.400 . S
C1488 C1491 1.386 . S
H1489 C1505 0.930 . S
H1490 C1506 0.931 1_554 S
C1491 H1479 0.929 . S
C1491 C1485 1.390 . S
C1491 C1488 1.386 . S
C1492 C1487 1.490 . S
C1492 C1494 1.395 . S
C1492 C1495 1.403 . S
H1493 C1499 0.930 . S
C1494 H1480 0.930 . S
C1494 C1492 1.395 . S
C1494 C1497 1.403 . S
C1495 C1492 1.403 . S
C1495 C1496 1.524 . S
C1495 C1499 1.400 . S
C1496 H1481 0.960 . S
C1496 H1482 0.960 . S
C1496 H1483 0.960 . S
C1496 C1495 1.524 . S
C1497 C1494 1.403 . S
C1497 C1498 1.392 . S
C1497 C1501 1.495 . S
C1498 C1497 1.392 . S
C1498 C1499 1.385 . S
C1498 C1500 1.478 . S
C1499 H1493 0.930 . S
C1499 C1495 1.400 . S
C1499 C1498 1.385 . S
C1500 C1498 1.478 . S
C1500 C1502 1.381 1_554 S
C1500 C1506 1.383 1_554 S
C1501 C1497 1.495 . S
C1501 H1507 0.959 . S
C1501 H1508 0.961 . S
C1501 H1509 0.960 . S
C1502 C1500 1.381 1_556 S
C1502 C1503 1.394 . S
C1502 H1510 0.930 . S
C1503 C1502 1.394 . S
C1503 C1504 1.383 . S
C1503 H1511 0.929 . S
C1504 C1503 1.383 . S
C1504 C1505 1.377 . S
C1505 H1489 0.930 . S
C1505 C1504 1.377 . S
C1505 C1506 1.379 . S
C1506 H1490 0.931 1_556 S
C1506 C1500 1.383 1_556 S
C1506 C1505 1.379 . S
H1507 C1501 0.959 . S
H1508 C1501 0.961 . S
H1509 C1501 0.960 . S
H1510 C1502 0.930 . S
H1511 C1503 0.929 . S
H1512 C1520 0.929 . S
H1513 C1522 0.930 . S
H1514 C1524 0.930 . S
H1515 C1527 0.929 . S
H1516 C1530 0.930 . S
H1517 C1532 0.960 . S
H1518 C1532 0.960 . S
H1519 C1532 0.960 . S
C1520 H1512 0.929 . S
C1520 C1521 1.377 . S
C1520 C1522 1.384 . S
C1521 C1520 1.377 . S
C1521 C1527 1.390 . S
C1522 H1513 0.930 . S
C1522 C1520 1.384 . S
C1522 C1523 1.372 . S
C1523 C1522 1.372 . S
C1523 C1524 1.400 . S
C1523 C1528 1.490 . S
C1524 H1514 0.930 . S
C1524 C1523 1.400 . S
C1524 C1527 1.386 . S
H1525 C1541 0.930 . S
H1526 C1542 0.931 1_554 S
C1527 H1515 0.929 . S
C1527 C1521 1.390 . S
C1527 C1524 1.386 . S
C1528 C1523 1.490 . S
C1528 C1530 1.395 . S
C1528 C1531 1.403 . S
H1529 C1535 0.930 . S
C1530 H1516 0.930 . S
C1530 C1528 1.395 . S
C1530 C1533 1.403 . S
C1531 C1528 1.403 . S
C1531 C1532 1.524 . S
C1531 C1535 1.400 . S
C1532 H1517 0.960 . S
C1532 H1518 0.960 . S
C1532 H1519 0.960 . S
C1532 C1531 1.524 . S
C1533 C1530 1.403 . S
C1533 C1534 1.392 . S
C1533 C1537 1.495 . S
C1534 C1533 1.392 . S
C1534 C1535 1.385 . S
C1534 C1536 1.478 . S
C1535 H1529 0.930 . S
C1535 C1531 1.400 . S
C1535 C1534 1.385 . S
C1536 C1534 1.478 . S
C1536 C1538 1.381 1_554 S
C1536 C1542 1.383 1_554 S
C1537 C1533 1.495 . S
C1537 H1543 0.959 . S
C1537 H1544 0.961 . S
C1537 H1545 0.960 . S
C1538 C1536 1.381 1_556 S
C1538 C1539 1.394 . S
C1538 H1546 0.930 1_556 S
C1539 C1538 1.394 . S
C1539 C1540 1.383 . S
C1539 H1547 0.929 . S
C1540 C1539 1.383 . S
C1540 C1541 1.377 . S
C1541 H1525 0.930 . S
C1541 C1540 1.377 . S
C1541 C1542 1.379 . S
C1542 H1526 0.931 1_556 S
C1542 C1536 1.383 1_556 S
C1542 C1541 1.379 . S
H1543 C1537 0.959 . S
H1544 C1537 0.961 . S
H1545 C1537 0.960 . S
H1546 C1538 0.930 1_554 S
H1547 C1539 0.929 . S
H1548 C1556 0.929 . S
H1549 C1558 0.930 . S
H1550 C1560 0.930 . S
H1551 C1563 0.929 . S
H1552 C1566 0.930 . S
H1553 C1568 0.960 . S
H1554 C1568 0.960 . S
H1555 C1568 0.960 . S
C1556 H1548 0.929 . S
C1556 C1557 1.377 . S
C1556 C1558 1.384 . S
C1557 C1556 1.377 . S
C1557 C1563 1.390 . S
C1558 H1549 0.930 . S
C1558 C1556 1.384 . S
C1558 C1559 1.372 . S
C1559 C1558 1.372 . S
C1559 C1560 1.400 . S
C1559 C1564 1.490 . S
C1560 H1550 0.930 . S
C1560 C1559 1.400 . S
C1560 C1563 1.386 . S
H1561 C1577 0.930 . S
H1562 C1578 0.931 1_554 S
C1563 H1551 0.929 . S
C1563 C1557 1.390 . S
C1563 C1560 1.386 . S
C1564 C1559 1.490 . S
C1564 C1566 1.395 . S
C1564 C1567 1.403 . S
H1565 C1571 0.930 . S
C1566 H1552 0.930 . S
C1566 C1564 1.395 . S
C1566 C1569 1.403 . S
C1567 C1564 1.403 . S
C1567 C1568 1.524 . S
C1567 C1571 1.400 . S
C1568 H1553 0.960 . S
C1568 H1554 0.960 . S
C1568 H1555 0.960 . S
C1568 C1567 1.524 . S
C1569 C1566 1.403 . S
C1569 C1570 1.392 . S
C1569 C1573 1.495 . S
C1570 C1569 1.392 . S
C1570 C1571 1.385 . S
C1570 C1572 1.478 . S
C1571 H1565 0.930 . S
C1571 C1567 1.400 . S
C1571 C1570 1.385 . S
C1572 C1570 1.478 . S
C1572 C1574 1.381 1_554 S
C1572 C1578 1.383 1_554 S
C1573 C1569 1.495 . S
C1573 H1579 0.959 . S
C1573 H1580 0.961 . S
C1573 H1581 0.960 . S
C1574 C1572 1.381 1_556 S
C1574 C1575 1.394 . S
C1574 H1582 0.930 1_556 S
C1575 C1574 1.394 . S
C1575 C1576 1.383 . S
C1575 H1583 0.929 . S
C1576 C1575 1.383 . S
C1576 C1577 1.377 . S
C1577 H1561 0.930 . S
C1577 C1576 1.377 . S
C1577 C1578 1.379 . S
C1578 H1562 0.931 1_556 S
C1578 C1572 1.383 1_556 S
C1578 C1577 1.379 . S
H1579 C1573 0.959 . S
H1580 C1573 0.961 . S
H1581 C1573 0.960 . S
H1582 C1574 0.930 1_554 S
H1583 C1575 0.929 . S
C297 C17 1.578 1_554 S
C316 C150 1.530 . S
C333 C182 1.550 . S
C352 C49 1.562 1_554 S
C369 C81 1.584 1_554 S
C388 C118 1.570 . S
C405 C53 2.447 . S
C424 C112 2.488 . S
C441 C85 2.444 . S
C460 C144 2.492 . S
C477 C21 2.442 . S
C496 C176 2.487 . S
C513 C113 1.579 . S
C532 C246 1.533 . S
C549 C278 1.554 . S
C568 C145 1.579 . S
C585 C214 1.549 . S
C604 C177 1.560 . S
C621 C149 2.447 . S
C640 C208 2.488 . S
C657 C240 2.493 . S
C676 C181 2.431 . S
C693 C272 2.493 . S
C712 C117 2.427 . S
C729 C209 1.578 . S
C748 C54 1.528 . S
C765 C241 1.578 . S
C784 C86 1.531 . S
C801 C22 1.549 . S
C820 C273 1.562 . S
C837 C16 2.493 . S
C856 C245 2.451 . S
C873 C48 2.492 . S
C892 C277 2.431 . S
C909 C213 2.446 . S
C928 C80 2.485 . S
C945 C82 1.391 . S
C964 C20 1.395 . S
C981 C18 1.394 . S
C1000 C52 1.396 . S
C1017 C50 1.395 . S
C1036 C84 1.380 . S
C1053 C178 1.397 . S
C1072 C116 1.377 . S
C1089 C114 1.394 . S
C1108 C148 1.383 . S
C1125 C146 1.394 . S
C1144 C180 1.397 . S
C1161 C212 1.394 . S
C1180 C274 1.408 . S
C1197 C244 1.394 . S
C1216 C210 1.409 . S
C1233 C276 1.400 . S
C1252 C242 1.378 . S
C1269 C19 0.949 . S
C1288 C23 0.945 . S
C1305 C55 0.956 . S
C1324 C51 0.936 . S
C1341 C83 0.960 . S
C1360 C87 0.967 . S
C1377 C119 0.950 . S
C1396 C115 0.955 . S
C1413 C147 0.949 . S
C1432 C151 0.941 . S
C1449 C183 0.959 . S
C1468 C179 0.972 . S
C1485 C211 0.956 . S
C1504 C215 0.978 . S
C1521 C243 0.957 . S
C1540 C247 0.938 . S
C1557 C275 0.956 . S
C1576 C279 0.937 . S
