# Generated by pormake.
# Topology ech, (8)-cn, num edge types: 1
# Building blocks:
#     Node 0, Type 0, BuildingBlock: TAGTUT_clean_sbu_1, # of connection points: 8
#     Node 1, Type 0, BuildingBlock: TAGTUT_clean_sbu_1, # of connection points: 8
#     Node 2, Type 0, BuildingBlock: TAGTUT_clean_sbu_1, # of connection points: 8
#     Node 3, Type 0, BuildingBlock: TAGTUT_clean_sbu_1, # of connection points: 8
#     Node 4, Type 0, BuildingBlock: TAGTUT_clean_sbu_1, # of connection points: 8
#     Node 5, Type 0, BuildingBlock: TAGTUT_clean_sbu_1, # of connection points: 8
#     Node 6, Type 0, BuildingBlock: TAGTUT_clean_sbu_1, # of connection points: 8
#     Node 7, Type 0, BuildingBlock: TAGTUT_clean_sbu_1, # of connection points: 8
#     Node 8, Type 0, BuildingBlock: TAGTUT_clean_sbu_1, # of connection points: 8
#     Node 9, Type 0, BuildingBlock: TAGTUT_clean_sbu_1, # of connection points: 8
#     Node 10, Type 0, BuildingBlock: TAGTUT_clean_sbu_1, # of connection points: 8
#     Node 11, Type 0, BuildingBlock: TAGTUT_clean_sbu_1, # of connection points: 8
#     Node 12, Type 0, BuildingBlock: TAGTUT_clean_sbu_1, # of connection points: 8
#     Node 13, Type 0, BuildingBlock: TAGTUT_clean_sbu_1, # of connection points: 8
#     Node 14, Type 0, BuildingBlock: TAGTUT_clean_sbu_1, # of connection points: 8
#     Node 15, Type 0, BuildingBlock: TAGTUT_clean_sbu_1, # of connection points: 8
#     Node 16, Type 0, BuildingBlock: TAGTUT_clean_sbu_1, # of connection points: 8
#     Node 17, Type 0, BuildingBlock: TAGTUT_clean_sbu_1, # of connection points: 8
#     Node 18, Type 0, BuildingBlock: TAGTUT_clean_sbu_1, # of connection points: 8
#     Node 19, Type 0, BuildingBlock: TAGTUT_clean_sbu_1, # of connection points: 8
#     Node 20, Type 0, BuildingBlock: TAGTUT_clean_sbu_1, # of connection points: 8
#     Node 21, Type 0, BuildingBlock: TAGTUT_clean_sbu_1, # of connection points: 8
#     Node 22, Type 0, BuildingBlock: TAGTUT_clean_sbu_1, # of connection points: 8
#     Node 23, Type 0, BuildingBlock: TAGTUT_clean_sbu_1, # of connection points: 8
#     Edge 24, Type (0, 0), BuildingBlock: AJUNOK_clean_linker_0, # of connection points: 2
#     Edge 25, Type (0, 0), BuildingBlock: AJUNOK_clean_linker_0, # of connection points: 2
#     Edge 26, Type (0, 0), BuildingBlock: AJUNOK_clean_linker_0, # of connection points: 2
#     Edge 27, Type (0, 0), BuildingBlock: AJUNOK_clean_linker_0, # of connection points: 2
#     Edge 28, Type (0, 0), BuildingBlock: AJUNOK_clean_linker_0, # of connection points: 2
#     Edge 29, Type (0, 0), BuildingBlock: AJUNOK_clean_linker_0, # of connection points: 2
#     Edge 30, Type (0, 0), BuildingBlock: AJUNOK_clean_linker_0, # of connection points: 2
#     Edge 31, Type (0, 0), BuildingBlock: AJUNOK_clean_linker_0, # of connection points: 2
#     Edge 32, Type (0, 0), BuildingBlock: AJUNOK_clean_linker_0, # of connection points: 2
#     Edge 33, Type (0, 0), BuildingBlock: AJUNOK_clean_linker_0, # of connection points: 2
#     Edge 34, Type (0, 0), BuildingBlock: AJUNOK_clean_linker_0, # of connection points: 2
#     Edge 35, Type (0, 0), BuildingBlock: AJUNOK_clean_linker_0, # of connection points: 2
#     Edge 36, Type (0, 0), BuildingBlock: AJUNOK_clean_linker_0, # of connection points: 2
#     Edge 37, Type (0, 0), BuildingBlock: AJUNOK_clean_linker_0, # of connection points: 2
#     Edge 38, Type (0, 0), BuildingBlock: AJUNOK_clean_linker_0, # of connection points: 2
#     Edge 39, Type (0, 0), BuildingBlock: AJUNOK_clean_linker_0, # of connection points: 2
#     Edge 40, Type (0, 0), BuildingBlock: AJUNOK_clean_linker_0, # of connection points: 2
#     Edge 41, Type (0, 0), BuildingBlock: AJUNOK_clean_linker_0, # of connection points: 2
#     Edge 42, Type (0, 0), BuildingBlock: AJUNOK_clean_linker_0, # of connection points: 2
#     Edge 43, Type (0, 0), BuildingBlock: AJUNOK_clean_linker_0, # of connection points: 2
#     Edge 44, Type (0, 0), BuildingBlock: AJUNOK_clean_linker_0, # of connection points: 2
#     Edge 45, Type (0, 0), BuildingBlock: AJUNOK_clean_linker_0, # of connection points: 2
#     Edge 46, Type (0, 0), BuildingBlock: AJUNOK_clean_linker_0, # of connection points: 2
#     Edge 47, Type (0, 0), BuildingBlock: AJUNOK_clean_linker_0, # of connection points: 2
#     Edge 48, Type (0, 0), BuildingBlock: AJUNOK_clean_linker_0, # of connection points: 2
#     Edge 49, Type (0, 0), BuildingBlock: AJUNOK_clean_linker_0, # of connection points: 2
#     Edge 50, Type (0, 0), BuildingBlock: AJUNOK_clean_linker_0, # of connection points: 2
#     Edge 51, Type (0, 0), BuildingBlock: AJUNOK_clean_linker_0, # of connection points: 2
#     Edge 52, Type (0, 0), BuildingBlock: AJUNOK_clean_linker_0, # of connection points: 2
#     Edge 53, Type (0, 0), BuildingBlock: AJUNOK_clean_linker_0, # of connection points: 2
#     Edge 54, Type (0, 0), BuildingBlock: AJUNOK_clean_linker_0, # of connection points: 2
#     Edge 55, Type (0, 0), BuildingBlock: AJUNOK_clean_linker_0, # of connection points: 2
#     Edge 56, Type (0, 0), BuildingBlock: AJUNOK_clean_linker_0, # of connection points: 2
#     Edge 57, Type (0, 0), BuildingBlock: AJUNOK_clean_linker_0, # of connection points: 2
#     Edge 58, Type (0, 0), BuildingBlock: AJUNOK_clean_linker_0, # of connection points: 2
#     Edge 59, Type (0, 0), BuildingBlock: AJUNOK_clean_linker_0, # of connection points: 2
#     Edge 60, Type (0, 0), BuildingBlock: AJUNOK_clean_linker_0, # of connection points: 2
#     Edge 61, Type (0, 0), BuildingBlock: AJUNOK_clean_linker_0, # of connection points: 2
#     Edge 62, Type (0, 0), BuildingBlock: AJUNOK_clean_linker_0, # of connection points: 2
#     Edge 63, Type (0, 0), BuildingBlock: AJUNOK_clean_linker_0, # of connection points: 2
#     Edge 64, Type (0, 0), BuildingBlock: AJUNOK_clean_linker_0, # of connection points: 2
#     Edge 65, Type (0, 0), BuildingBlock: AJUNOK_clean_linker_0, # of connection points: 2
#     Edge 66, Type (0, 0), BuildingBlock: AJUNOK_clean_linker_0, # of connection points: 2
#     Edge 67, Type (0, 0), BuildingBlock: AJUNOK_clean_linker_0, # of connection points: 2
#     Edge 68, Type (0, 0), BuildingBlock: AJUNOK_clean_linker_0, # of connection points: 2
#     Edge 69, Type (0, 0), BuildingBlock: AJUNOK_clean_linker_0, # of connection points: 2
#     Edge 70, Type (0, 0), BuildingBlock: AJUNOK_clean_linker_0, # of connection points: 2
#     Edge 71, Type (0, 0), BuildingBlock: AJUNOK_clean_linker_0, # of connection points: 2
#     Edge 72, Type (0, 0), BuildingBlock: AJUNOK_clean_linker_0, # of connection points: 2
#     Edge 73, Type (0, 0), BuildingBlock: AJUNOK_clean_linker_0, # of connection points: 2
#     Edge 74, Type (0, 0), BuildingBlock: AJUNOK_clean_linker_0, # of connection points: 2
#     Edge 75, Type (0, 0), BuildingBlock: AJUNOK_clean_linker_0, # of connection points: 2
#     Edge 76, Type (0, 0), BuildingBlock: AJUNOK_clean_linker_0, # of connection points: 2
#     Edge 77, Type (0, 0), BuildingBlock: AJUNOK_clean_linker_0, # of connection points: 2
#     Edge 78, Type (0, 0), BuildingBlock: AJUNOK_clean_linker_0, # of connection points: 2
#     Edge 79, Type (0, 0), BuildingBlock: AJUNOK_clean_linker_0, # of connection points: 2
#     Edge 80, Type (0, 0), BuildingBlock: AJUNOK_clean_linker_0, # of connection points: 2
#     Edge 81, Type (0, 0), BuildingBlock: AJUNOK_clean_linker_0, # of connection points: 2
#     Edge 82, Type (0, 0), BuildingBlock: AJUNOK_clean_linker_0, # of connection points: 2
#     Edge 83, Type (0, 0), BuildingBlock: AJUNOK_clean_linker_0, # of connection points: 2
#     Edge 84, Type (0, 0), BuildingBlock: AJUNOK_clean_linker_0, # of connection points: 2
#     Edge 85, Type (0, 0), BuildingBlock: AJUNOK_clean_linker_0, # of connection points: 2
#     Edge 86, Type (0, 0), BuildingBlock: AJUNOK_clean_linker_0, # of connection points: 2
#     Edge 87, Type (0, 0), BuildingBlock: AJUNOK_clean_linker_0, # of connection points: 2
#     Edge 88, Type (0, 0), BuildingBlock: AJUNOK_clean_linker_0, # of connection points: 2
#     Edge 89, Type (0, 0), BuildingBlock: AJUNOK_clean_linker_0, # of connection points: 2
#     Edge 90, Type (0, 0), BuildingBlock: AJUNOK_clean_linker_0, # of connection points: 2
#     Edge 91, Type (0, 0), BuildingBlock: AJUNOK_clean_linker_0, # of connection points: 2
#     Edge 92, Type (0, 0), BuildingBlock: AJUNOK_clean_linker_0, # of connection points: 2
#     Edge 93, Type (0, 0), BuildingBlock: AJUNOK_clean_linker_0, # of connection points: 2
#     Edge 94, Type (0, 0), BuildingBlock: AJUNOK_clean_linker_0, # of connection points: 2
#     Edge 95, Type (0, 0), BuildingBlock: AJUNOK_clean_linker_0, # of connection points: 2
#     Edge 96, Type (0, 0), BuildingBlock: AJUNOK_clean_linker_0, # of connection points: 2
#     Edge 97, Type (0, 0), BuildingBlock: AJUNOK_clean_linker_0, # of connection points: 2
#     Edge 98, Type (0, 0), BuildingBlock: AJUNOK_clean_linker_0, # of connection points: 2
#     Edge 99, Type (0, 0), BuildingBlock: AJUNOK_clean_linker_0, # of connection points: 2
#     Edge 100, Type (0, 0), BuildingBlock: AJUNOK_clean_linker_0, # of connection points: 2
#     Edge 101, Type (0, 0), BuildingBlock: AJUNOK_clean_linker_0, # of connection points: 2
#     Edge 102, Type (0, 0), BuildingBlock: AJUNOK_clean_linker_0, # of connection points: 2
#     Edge 103, Type (0, 0), BuildingBlock: AJUNOK_clean_linker_0, # of connection points: 2
#     Edge 104, Type (0, 0), BuildingBlock: AJUNOK_clean_linker_0, # of connection points: 2
#     Edge 105, Type (0, 0), BuildingBlock: AJUNOK_clean_linker_0, # of connection points: 2
#     Edge 106, Type (0, 0), BuildingBlock: AJUNOK_clean_linker_0, # of connection points: 2
#     Edge 107, Type (0, 0), BuildingBlock: AJUNOK_clean_linker_0, # of connection points: 2
#     Edge 108, Type (0, 0), BuildingBlock: AJUNOK_clean_linker_0, # of connection points: 2
#     Edge 109, Type (0, 0), BuildingBlock: AJUNOK_clean_linker_0, # of connection points: 2
#     Edge 110, Type (0, 0), BuildingBlock: AJUNOK_clean_linker_0, # of connection points: 2
#     Edge 111, Type (0, 0), BuildingBlock: AJUNOK_clean_linker_0, # of connection points: 2
#     Edge 112, Type (0, 0), BuildingBlock: AJUNOK_clean_linker_0, # of connection points: 2
#     Edge 113, Type (0, 0), BuildingBlock: AJUNOK_clean_linker_0, # of connection points: 2
#     Edge 114, Type (0, 0), BuildingBlock: AJUNOK_clean_linker_0, # of connection points: 2
#     Edge 115, Type (0, 0), BuildingBlock: AJUNOK_clean_linker_0, # of connection points: 2
#     Edge 116, Type (0, 0), BuildingBlock: AJUNOK_clean_linker_0, # of connection points: 2
#     Edge 117, Type (0, 0), BuildingBlock: AJUNOK_clean_linker_0, # of connection points: 2
#     Edge 118, Type (0, 0), BuildingBlock: AJUNOK_clean_linker_0, # of connection points: 2
#     Edge 119, Type (0, 0), BuildingBlock: AJUNOK_clean_linker_0, # of connection points: 2
# Relax obj value: 0.231
# Max RMSD: 0.222
# Mean RMSD: 0.222
data_MOF--net-ech--node1-TAGTUT_clean_sbu_1--edge1-AJUNOK_clean_linker_0
_symmetry_space_group_name_H-M    P1
_symmetry_Int_Tables_number       1
_symmetry_cell_setting            triclinic
loop_
_symmetry_equiv_pos_as_xyz
'x, y, z'
_cell_length_a     36.353874
_cell_length_b     36.399509
_cell_length_c     36.357715
_cell_angle_alpha  89.988062
_cell_angle_beta   89.979741
_cell_angle_gamma 90.029089
loop_
_atom_site_label
_atom_site_type_symbol
_atom_site_fract_x
_atom_site_fract_y
_atom_site_fract_z
_atom_type_partial_charge
C0 C 0.97718 0.32516 0.48853 0.0
C1 C 0.05017 0.27021 0.56385 0.0
C2 C 0.16723 0.31111 0.47885 0.0
Mg3 Mg 0.01993 0.2534 0.48665 0.0
O4 O 0.05298 0.28644 0.46492 0.0
Mg5 Mg 0.07224 0.32727 0.4951 0.0
Mg6 Mg 0.09639 0.26887 0.43801 0.0
O7 O 0.13967 0.24768 0.41248 0.0
Mg8 Mg 0.18281 0.27071 0.40127 0.0
Mg9 Mg 0.11489 0.21455 0.37687 0.0
C10 C 0.03652 0.2096 0.41242 0.0
C11 C 0.11167 0.18418 0.46112 0.0
O12 O 0.00766 0.34239 0.49577 0.0
O13 O 0.97564 0.29038 0.48444 0.0
O14 O 0.06693 0.29702 0.54895 0.0
O15 O 0.03267 0.24673 0.5444 0.0
O16 O 0.02022 0.21181 0.44374 0.0
O17 O 0.0599 0.23388 0.40143 0.0
C18 C 0.08074 0.35402 0.41187 0.0
O19 O 0.08882 0.32183 0.39966 0.0
O20 O 0.07523 0.35932 0.44569 0.0
O21 O 0.17109 0.19176 0.35773 0.0
O22 O 0.21606 0.22437 0.38457 0.0
O23 O 0.12046 0.2614 0.33165 0.0
C24 C 0.20509 0.19711 0.36514 0.0
O25 O 0.16469 0.29885 0.35365 0.0
O26 O 0.18881 0.30019 0.45305 0.0
C27 C 0.14087 0.29037 0.32922 0.0
O28 O 0.13229 0.30394 0.47799 0.0
O29 O 0.10423 0.21681 0.47252 0.0
O30 O 0.11487 0.17632 0.42674 0.0
C31 C 0.51857 0.6655 0.97334 0.0
C32 C 0.44924 0.71292 0.05751 0.0
C33 C 0.32898 0.68326 0.96833 0.0
Mg34 Mg 0.47777 0.73801 0.98156 0.0
O35 O 0.44292 0.70834 0.95797 0.0
Mg36 Mg 0.4235 0.66423 0.98331 0.0
Mg37 Mg 0.40005 0.72944 0.93309 0.0
O38 O 0.35715 0.75352 0.90946 0.0
Mg39 Mg 0.31445 0.73134 0.89527 0.0
Mg40 Mg 0.38311 0.78825 0.87619 0.0
C41 C 0.46182 0.78896 0.91207 0.0
C42 C 0.38595 0.81206 0.96283 0.0
O43 O 0.48804 0.64812 0.98024 0.0
O44 O 0.52069 0.70048 0.97306 0.0
O45 O 0.43127 0.68834 0.04028 0.0
O46 O 0.46734 0.73773 0.04034 0.0
O47 O 0.47834 0.78382 0.94293 0.0
O48 O 0.43744 0.76641 0.89976 0.0
C49 C 0.41349 0.64717 0.89784 0.0
O50 O 0.40708 0.68095 0.88984 0.0
O51 O 0.41812 0.63694 0.93068 0.0
O52 O 0.32733 0.81289 0.85791 0.0
O53 O 0.28153 0.77877 0.88133 0.0
O54 O 0.37798 0.74475 0.82744 0.0
C55 C 0.29313 0.80726 0.86414 0.0
O56 O 0.33313 0.70639 0.84632 0.0
O57 O 0.30772 0.69682 0.94352 0.0
C58 C 0.35747 0.71611 0.82294 0.0
O59 O 0.36374 0.69113 0.96972 0.0
O60 O 0.39277 0.77856 0.972 0.0
O61 O 0.38312 0.82241 0.92905 0.0
C62 C 0.47885 0.17172 0.51649 0.0
C63 C 0.55257 0.22211 0.43954 0.0
C64 C 0.66918 0.18626 0.5285 0.0
Mg65 Mg 0.52149 0.24357 0.51518 0.0
O66 O 0.55443 0.21173 0.53917 0.0
Mg67 Mg 0.57418 0.16941 0.51165 0.0
Mg68 Mg 0.5976 0.2309 0.56542 0.0
O69 O 0.64046 0.25392 0.59013 0.0
Mg70 Mg 0.68349 0.23185 0.60325 0.0
Mg71 Mg 0.61461 0.2879 0.62415 0.0
C72 C 0.53642 0.29057 0.58789 0.0
C73 C 0.61256 0.31445 0.53839 0.0
O74 O 0.5095 0.15419 0.51089 0.0
O75 O 0.47715 0.20666 0.5186 0.0
O76 O 0.56948 0.19682 0.4566 0.0
O77 O 0.53415 0.24651 0.45688 0.0
O78 O 0.52058 0.28712 0.55642 0.0
O79 O 0.56023 0.26715 0.59973 0.0
C80 C 0.58262 0.14717 0.5962 0.0
O81 O 0.59044 0.18002 0.60667 0.0
O82 O 0.57685 0.14007 0.56275 0.0
O83 O 0.67017 0.31181 0.6435 0.0
O84 O 0.71625 0.27884 0.6192 0.0
O85 O 0.61968 0.24268 0.67129 0.0
C86 C 0.70445 0.30647 0.63757 0.0
O87 O 0.66474 0.20515 0.65124 0.0
O88 O 0.69037 0.19935 0.55362 0.0
C89 C 0.6403 0.21398 0.67487 0.0
O90 O 0.63427 0.19373 0.52776 0.0
O91 O 0.60549 0.28126 0.52838 0.0
O92 O 0.61516 0.32392 0.57244 0.0
C93 C 0.01969 0.8324 0.02322 0.0
C94 C 0.94917 0.78415 0.94117 0.0
C95 C 0.82961 0.81502 0.02807 0.0
Mg96 Mg 0.97787 0.76 0.01702 0.0
O97 O 0.94409 0.79112 0.04075 0.0
Mg98 Mg 0.92467 0.83473 0.01466 0.0
Mg99 Mg 0.90089 0.77054 0.0653 0.0
O100 O 0.85764 0.74645 0.08853 0.0
Mg101 Mg 0.81461 0.76841 0.10199 0.0
Mg102 Mg 0.88375 0.71277 0.12249 0.0
C103 C 0.96301 0.71189 0.08863 0.0
C104 C 0.88677 0.68782 0.03631 0.0
O105 O 0.98927 0.85033 0.01752 0.0
O106 O 0.02128 0.79739 0.02344 0.0
O107 O 0.93258 0.80946 0.9586 0.0
O108 O 0.96663 0.75883 0.95823 0.0
O109 O 0.97941 0.71539 0.05742 0.0
O110 O 0.93799 0.73446 0.09928 0.0
C111 C 0.91433 0.85303 0.09974 0.0
O112 O 0.90759 0.81938 0.10799 0.0
O113 O 0.91919 0.86296 0.06683 0.0
O114 O 0.82859 0.68827 0.14163 0.0
O115 O 0.78203 0.72127 0.11837 0.0
O116 O 0.87841 0.75762 0.16974 0.0
C117 C 0.79424 0.69353 0.13633 0.0
O118 O 0.8336 0.79535 0.14967 0.0
O119 O 0.80803 0.80119 0.05248 0.0
C120 C 0.85807 0.78648 0.17322 0.0
O121 O 0.86466 0.80831 0.02804 0.0
O122 O 0.89431 0.72113 0.02709 0.0
O123 O 0.88381 0.67761 0.07015 0.0
C124 C 0.47947 0.97999 0.32958 0.0
C125 C 0.56016 0.05403 0.28255 0.0
C126 C 0.4729 0.16952 0.31495 0.0
Mg127 Mg 0.48496 0.02306 0.25795 0.0
O128 O 0.46036 0.05546 0.28981 0.0
Mg129 Mg 0.48647 0.0749 0.3335 0.0
Mg130 Mg 0.43475 0.09853 0.27034 0.0
O131 O 0.41094 0.14189 0.24753 0.0
Mg132 Mg 0.39809 0.18463 0.27049 0.0
Mg133 Mg 0.3772 0.11664 0.21307 0.0
C134 C 0.41228 0.03738 0.21048 0.0
C135 C 0.46288 0.11363 0.18711 0.0
O136 O 0.48504 0.01016 0.3479 0.0
O137 O 0.47931 0.97879 0.29452 0.0
O138 O 0.54225 0.06999 0.30787 0.0
O139 O 0.54364 0.03589 0.25729 0.0
O140 O 0.44398 0.02185 0.21369 0.0
O141 O 0.4009 0.06172 0.23353 0.0
C142 C 0.40173 0.0824 0.35327 0.0
O143 O 0.39264 0.08985 0.31992 0.0
O144 O 0.43491 0.07819 0.36238 0.0
O145 O 0.3586 0.1726 0.18947 0.0
O146 O 0.38234 0.2179 0.22387 0.0
O147 O 0.3301 0.12129 0.25823 0.0
C148 C 0.36457 0.20671 0.19557 0.0
O149 O 0.35035 0.16513 0.2971 0.0
O150 O 0.44831 0.19147 0.30227 0.0
C151 C 0.32681 0.14084 0.28768 0.0
O152 O 0.47162 0.13458 0.3083 0.0
O153 O 0.47257 0.1066 0.22045 0.0
O154 O 0.42895 0.11671 0.1774 0.0
C155 C 0.01192 0.02327 0.82302 0.0
C156 C 0.93838 0.94916 0.77395 0.0
C157 C 0.0265 0.83399 0.81329 0.0
Mg158 Mg 0.01412 0.98083 0.75212 0.0
O159 O 0.03717 0.94814 0.78485 0.0
Mg160 Mg 0.00816 0.92818 0.82583 0.0
Mg161 Mg 0.06402 0.90494 0.76784 0.0
O162 O 0.08921 0.86152 0.74668 0.0
Mg163 Mg 0.1018 0.81854 0.76946 0.0
Mg164 Mg 0.12251 0.88649 0.71151 0.0
C165 C 0.08753 0.96527 0.70701 0.0
C166 C 0.03705 0.88673 0.68522 0.0
O167 O 0.00256 0.9929 0.83942 0.0
O168 O 0.01864 0.02489 0.78863 0.0
O169 O 0.95587 0.92522 0.79233 0.0
O170 O 0.95519 0.97163 0.75278 0.0
O171 O 0.05592 0.98113 0.70898 0.0
O172 O 0.09817 0.94142 0.7309 0.0
C173 C 0.09232 0.92469 0.85142 0.0
O174 O 0.10342 0.91506 0.81918 0.0
O175 O 0.05853 0.9299 0.85819 0.0
O176 O 0.14201 0.83081 0.68876 0.0
O177 O 0.11799 0.78526 0.72264 0.0
O178 O 0.16912 0.88314 0.75714 0.0
C179 C 0.13614 0.79669 0.69462 0.0
O180 O 0.14931 0.83894 0.79594 0.0
O181 O 0.05143 0.81186 0.80152 0.0
C182 C 0.17243 0.86374 0.78669 0.0
O183 O 0.02743 0.86865 0.80531 0.0
O184 O 0.02746 0.89521 0.71813 0.0
O185 O 0.07097 0.88431 0.67533 0.0
C186 C 0.98128 0.51683 0.66454 0.0
C187 C 0.06087 0.4472 0.71655 0.0
C188 C 0.97057 0.32846 0.68592 0.0
Mg189 Mg 0.98513 0.47825 0.73886 0.0
O190 O 0.96175 0.44304 0.70945 0.0
Mg191 Mg 0.98779 0.42203 0.66637 0.0
Mg192 Mg 0.93556 0.40104 0.73057 0.0
O193 O 0.91072 0.3588 0.75472 0.0
Mg194 Mg 0.89575 0.31669 0.73189 0.0
Mg195 Mg 0.87743 0.38583 0.78868 0.0
C196 C 0.91461 0.46401 0.78916 0.0
C197 C 0.96337 0.38722 0.81412 0.0
O198 O 0.9882 0.48571 0.64845 0.0
O199 O 0.97896 0.51996 0.69944 0.0
O200 O 0.04379 0.42836 0.69254 0.0
O201 O 0.0436 0.46673 0.74017 0.0
O202 O 0.9456 0.48035 0.78412 0.0
O203 O 0.90252 0.43941 0.76677 0.0
C204 C 0.9024 0.41528 0.64717 0.0
O205 O 0.89357 0.4092 0.68089 0.0
O206 O 0.93565 0.41824 0.63752 0.0
O207 O 0.857 0.33049 0.8132 0.0
O208 O 0.87889 0.28421 0.7788 0.0
O209 O 0.83 0.38228 0.74421 0.0
C210 C 0.86169 0.29614 0.80716 0.0
O211 O 0.84861 0.3377 0.70545 0.0
O212 O 0.94496 0.30784 0.69899 0.0
C213 C 0.82583 0.36264 0.71497 0.0
O214 O 0.97201 0.36327 0.69335 0.0
O215 O 0.97319 0.39357 0.78066 0.0
O216 O 0.9294 0.38493 0.82395 0.0
C217 C 0.51981 0.47468 0.17404 0.0
C218 C 0.44166 0.55125 0.2203 0.0
C219 C 0.52908 0.6636 0.1843 0.0
Mg220 Mg 0.51575 0.5185 0.2453 0.0
O221 O 0.54161 0.55014 0.2134 0.0
Mg222 Mg 0.51585 0.56908 0.16943 0.0
Mg223 Mg 0.56684 0.5941 0.23204 0.0
O224 O 0.58991 0.63824 0.25409 0.0
Mg225 Mg 0.60286 0.68027 0.22974 0.0
Mg226 Mg 0.62326 0.61395 0.28974 0.0
C227 C 0.58741 0.53473 0.29419 0.0
C228 C 0.53705 0.61242 0.31392 0.0
O229 O 0.51407 0.50489 0.15596 0.0
O230 O 0.52084 0.47347 0.20913 0.0
O231 O 0.46055 0.56651 0.19534 0.0
O232 O 0.45723 0.53247 0.24567 0.0
O233 O 0.55604 0.51875 0.29011 0.0
O234 O 0.59973 0.55835 0.27078 0.0
C235 C 0.60128 0.57612 0.15013 0.0
O236 O 0.61001 0.58519 0.18318 0.0
O237 O 0.56822 0.57027 0.14123 0.0
O238 O 0.6419 0.67093 0.31139 0.0
O239 O 0.61863 0.71515 0.27525 0.0
O240 O 0.67075 0.61705 0.24501 0.0
C241 C 0.63627 0.70487 0.30398 0.0
O242 O 0.65082 0.65966 0.20458 0.0
O243 O 0.55319 0.68632 0.19662 0.0
C244 C 0.67435 0.63579 0.21505 0.0
O245 O 0.53071 0.62903 0.1924 0.0
O246 O 0.52817 0.60344 0.28084 0.0
O247 O 0.57076 0.61571 0.32439 0.0
C248 C 0.32545 0.4864 0.97399 0.0
C249 C 0.27118 0.56136 0.04816 0.0
C250 C 0.31505 0.47746 0.16416 0.0
Mg251 Mg 0.25429 0.48482 0.01838 0.0
O252 O 0.28812 0.46237 0.05031 0.0
Mg253 Mg 0.32958 0.49242 0.06886 0.0
Mg254 Mg 0.26997 0.43735 0.09459 0.0
O255 O 0.24823 0.41363 0.13883 0.0
Mg256 Mg 0.2727 0.40131 0.18093 0.0
Mg257 Mg 0.21417 0.37828 0.11464 0.0
C258 C 0.21069 0.41062 0.0342 0.0
C259 C 0.18589 0.46289 0.11048 0.0
O260 O 0.34367 0.4919 0.00421 0.0
O261 O 0.29043 0.48424 0.97302 0.0
O262 O 0.2996 0.54672 0.06229 0.0
O263 O 0.24625 0.54168 0.03316 0.0
O264 O 0.2129 0.44176 0.01765 0.0
O265 O 0.23397 0.40083 0.05902 0.0
C266 C 0.3548 0.40885 0.07944 0.0
O267 O 0.32208 0.39807 0.08777 0.0
O268 O 0.36162 0.44234 0.07324 0.0
O269 O 0.19201 0.36018 0.1716 0.0
O270 O 0.22735 0.38458 0.21584 0.0
O271 O 0.25987 0.33233 0.11914 0.0
C272 C 0.199 0.36629 0.20557 0.0
O273 O 0.2998 0.3538 0.16131 0.0
O274 O 0.30385 0.45217 0.18623 0.0
C275 C 0.28982 0.32957 0.13792 0.0
O276 O 0.30645 0.47699 0.12952 0.0
O277 O 0.21865 0.47308 0.1017 0.0
O278 O 0.17707 0.42887 0.1145 0.0
C279 C 0.82583 0.01495 0.02762 0.0
C280 C 0.77408 0.93945 0.95128 0.0
C281 C 0.81594 0.02652 0.83776 0.0
Mg282 Mg 0.7548 0.01473 0.98304 0.0
O283 O 0.78776 0.03894 0.95146 0.0
Mg284 Mg 0.83023 0.01062 0.93279 0.0
Mg285 Mg 0.76935 0.06427 0.90736 0.0
O286 O 0.74742 0.08832 0.86332 0.0
Mg287 Mg 0.77184 0.10199 0.82155 0.0
Mg288 Mg 0.71239 0.12235 0.88802 0.0
C289 C 0.70811 0.08685 0.96662 0.0
C290 C 0.68636 0.03659 0.89017 0.0
O291 O 0.84421 0.01032 0.99736 0.0
O292 O 0.79076 0.01626 0.02857 0.0
O293 O 0.80206 0.95539 0.9377 0.0
O294 O 0.74876 0.95788 0.96718 0.0
O295 O 0.71159 0.05579 0.98304 0.0
O296 O 0.73191 0.09864 0.94314 0.0
C297 C 0.85298 0.0949 0.92352 0.0
O298 O 0.82013 0.1051 0.91517 0.0
O299 O 0.86042 0.06154 0.92949 0.0
O300 O 0.6905 0.14161 0.83149 0.0
O301 O 0.72627 0.11878 0.78672 0.0
O302 O 0.75708 0.16979 0.88466 0.0
C303 C 0.69775 0.13657 0.79741 0.0
O304 O 0.79756 0.14993 0.84213 0.0
O305 O 0.80428 0.05179 0.81587 0.0
C306 C 0.78692 0.17361 0.86579 0.0
O307 O 0.80722 0.02643 0.87233 0.0
O308 O 0.71929 0.02711 0.89904 0.0
O309 O 0.67669 0.07045 0.88655 0.0
C310 C 0.67442 0.98272 0.52561 0.0
C311 C 0.72607 0.06166 0.45205 0.0
C312 C 0.68654 0.97769 0.33508 0.0
Mg313 Mg 0.74546 0.9851 0.48167 0.0
O314 O 0.71254 0.96247 0.44889 0.0
Mg315 Mg 0.67042 0.99135 0.43058 0.0
Mg316 Mg 0.73085 0.93734 0.40476 0.0
O317 O 0.75282 0.91364 0.36066 0.0
Mg318 Mg 0.72862 0.90129 0.31837 0.0
Mg319 Mg 0.78624 0.87828 0.38544 0.0
C320 C 0.78995 0.91167 0.46522 0.0
C321 C 0.81514 0.96284 0.39008 0.0
O322 O 0.65642 0.98959 0.49547 0.0
O323 O 0.70944 0.98115 0.52678 0.0
O324 O 0.69888 0.04592 0.43679 0.0
O325 O 0.75074 0.043 0.46877 0.0
O326 O 0.78771 0.94294 0.48155 0.0
O327 O 0.76648 0.90141 0.44074 0.0
C328 C 0.64658 0.90753 0.4197 0.0
O329 O 0.67926 0.89696 0.41125 0.0
O330 O 0.63984 0.94085 0.42647 0.0
O331 O 0.80876 0.85961 0.32915 0.0
O332 O 0.77435 0.88389 0.28412 0.0
O333 O 0.74029 0.83232 0.38021 0.0
C334 C 0.80228 0.86535 0.29505 0.0
O335 O 0.70101 0.85377 0.33743 0.0
O336 O 0.69789 0.95248 0.31303 0.0
C337 C 0.71071 0.82944 0.36082 0.0
O338 O 0.69418 0.97662 0.3699 0.0
O339 O 0.78222 0.97351 0.39767 0.0
O340 O 0.82358 0.92872 0.3861 0.0
C341 C 0.17504 0.51376 0.47262 0.0
C342 C 0.2211 0.43742 0.55262 0.0
C343 C 0.18347 0.52868 0.6621 0.0
Mg344 Mg 0.24517 0.51153 0.51813 0.0
O345 O 0.2118 0.5367 0.54842 0.0
Mg346 Mg 0.16811 0.51052 0.56784 0.0
Mg347 Mg 0.22822 0.56602 0.59038 0.0
O348 O 0.24824 0.59333 0.63301 0.0
Mg349 Mg 0.22634 0.60474 0.67667 0.0
Mg350 Mg 0.28447 0.62573 0.60888 0.0
C351 C 0.29102 0.58592 0.53173 0.0
C352 C 0.31145 0.54061 0.61161 0.0
O353 O 0.156 0.50823 0.5024 0.0
O354 O 0.21009 0.51528 0.47241 0.0
O355 O 0.19559 0.45563 0.56788 0.0
O356 O 0.24588 0.45341 0.53334 0.0
O357 O 0.28854 0.55349 0.51771 0.0
O358 O 0.26649 0.59882 0.55388 0.0
C359 C 0.14506 0.59424 0.56565 0.0
O360 O 0.1774 0.60566 0.5747 0.0
O361 O 0.13733 0.5606 0.56675 0.0
O362 O 0.30602 0.64681 0.66516 0.0
O363 O 0.27265 0.62134 0.71029 0.0
O364 O 0.23848 0.67214 0.61162 0.0
C365 C 0.30001 0.64065 0.69931 0.0
O366 O 0.20025 0.6524 0.65656 0.0
O367 O 0.19543 0.55385 0.68382 0.0
C368 C 0.20937 0.67567 0.63181 0.0
O369 O 0.19008 0.52982 0.62714 0.0
O370 O 0.27855 0.53041 0.60343 0.0
O371 O 0.32093 0.57466 0.61291 0.0
C372 C 0.79471 0.79955 0.63713 0.0
C373 C 0.86156 0.70672 0.67128 0.0
C374 C 0.96293 0.78946 0.58756 0.0
Mg375 Mg 0.81708 0.72608 0.60086 0.0
O376 O 0.86032 0.74854 0.58912 0.0
Mg377 Mg 0.88485 0.78303 0.62347 0.0
Mg378 Mg 0.90339 0.72847 0.5623 0.0
O379 O 0.94625 0.71315 0.53418 0.0
Mg380 Mg 0.97749 0.748 0.51244 0.0
Mg381 Mg 0.92699 0.67372 0.50292 0.0
C382 C 0.83193 0.6849 0.52366 0.0
C383 C 0.92369 0.64322 0.58552 0.0
O384 O 0.82879 0.80509 0.64388 0.0
O385 O 0.78358 0.77227 0.61785 0.0
O386 O 0.88127 0.73616 0.66875 0.0
O387 O 0.83684 0.69822 0.64779 0.0
O388 O 0.81067 0.69615 0.5496 0.0
O389 O 0.86677 0.69264 0.52354 0.0
C390 C 0.88542 0.8123 0.53903 0.0
O391 O 0.89371 0.77976 0.52833 0.0
O392 O 0.88275 0.82095 0.57325 0.0
O393 O 0.99243 0.6622 0.4971 0.0
O394 O 0.02241 0.71316 0.51584 0.0
O395 O 0.92427 0.70952 0.45204 0.0
C396 C 0.02224 0.67919 0.50742 0.0
O397 O 0.96955 0.75028 0.45353 0.0
O398 O 0.97768 0.78908 0.55541 0.0
C399 C 0.94791 0.72926 0.43563 0.0
O400 O 0.93998 0.76456 0.59815 0.0
O401 O 0.91395 0.6747 0.59864 0.0
O402 O 0.92887 0.63871 0.55138 0.0
C403 C 0.70483 0.19195 0.13958 0.0
C404 C 0.63981 0.28375 0.17656 0.0
C405 C 0.53713 0.20792 0.08821 0.0
Mg406 Mg 0.68371 0.26662 0.1054 0.0
O407 O 0.64114 0.24425 0.09135 0.0
Mg408 Mg 0.61489 0.21023 0.12507 0.0
Mg409 Mg 0.59841 0.26774 0.06674 0.0
O410 O 0.5558 0.28742 0.04044 0.0
Mg411 Mg 0.52211 0.25647 0.0169 0.0
Mg412 Mg 0.57504 0.33067 0.01402 0.0
C413 C 0.6698 0.3137 0.03154 0.0
C414 C 0.58311 0.35042 0.09919 0.0
O415 O 0.67048 0.1862 0.14489 0.0
O416 O 0.71665 0.21986 0.1216 0.0
O417 O 0.6194 0.25494 0.1727 0.0
O418 O 0.66438 0.29283 0.1532 0.0
O419 O 0.69072 0.30042 0.05678 0.0
O420 O 0.63514 0.30539 0.02945 0.0
C421 C 0.61257 0.18478 0.039 0.0
O422 O 0.60587 0.21809 0.02926 0.0
O423 O 0.61542 0.17494 0.07294 0.0
O424 O 0.51031 0.34594 0.01513 0.0
O425 O 0.47874 0.2933 0.02444 0.0
O426 O 0.56949 0.30539 0.95743 0.0
C427 C 0.4801 0.32824 0.02255 0.0
O428 O 0.53211 0.25696 0.95799 0.0
O429 O 0.5214 0.21165 0.05672 0.0
C430 C 0.55063 0.28126 0.94051 0.0
O431 O 0.56082 0.23131 0.10031 0.0
O432 O 0.59076 0.31738 0.10895 0.0
O433 O 0.57803 0.3585 0.06586 0.0
C434 C 0.29465 0.69838 0.36206 0.0
C435 C 0.36052 0.79098 0.32738 0.0
C436 C 0.46342 0.71104 0.40994 0.0
Mg437 Mg 0.31668 0.77218 0.39837 0.0
O438 O 0.35907 0.7482 0.4107 0.0
Mg439 Mg 0.38453 0.71504 0.37552 0.0
Mg440 Mg 0.40265 0.77023 0.43495 0.0
O441 O 0.44601 0.78899 0.46046 0.0
Mg442 Mg 0.47945 0.75666 0.4827 0.0
Mg443 Mg 0.42705 0.83149 0.4887 0.0
C444 C 0.33235 0.81411 0.475 0.0
C445 C 0.41764 0.8546 0.40461 0.0
O446 O 0.3288 0.69236 0.35627 0.0
O447 O 0.28328 0.72611 0.38063 0.0
O448 O 0.37985 0.76136 0.32989 0.0
O449 O 0.33648 0.80006 0.35134 0.0
O450 O 0.31036 0.80273 0.44972 0.0
O451 O 0.36715 0.80659 0.47395 0.0
C452 C 0.38736 0.68603 0.46018 0.0
O453 O 0.39481 0.71889 0.47105 0.0
O454 O 0.38431 0.67759 0.42592 0.0
O455 O 0.49154 0.84608 0.48667 0.0
O456 O 0.52338 0.79362 0.47706 0.0
O457 O 0.43382 0.80344 0.5435 0.0
C458 C 0.52169 0.82858 0.47875 0.0
O459 O 0.46742 0.75261 0.54093 0.0
O460 O 0.47965 0.71349 0.44128 0.0
C461 C 0.45009 0.77698 0.55944 0.0
O462 O 0.43931 0.7347 0.39942 0.0
O463 O 0.41039 0.82145 0.39469 0.0
O464 O 0.4224 0.86273 0.43802 0.0
C465 C 0.20188 0.3024 0.85751 0.0
C466 C 0.13272 0.2125 0.8205 0.0
C467 C 0.03584 0.29143 0.91296 0.0
Mg468 Mg 0.17952 0.22748 0.89042 0.0
O469 O 0.13774 0.25054 0.90541 0.0
Mg470 Mg 0.11212 0.2864 0.87332 0.0
Mg471 Mg 0.09544 0.22917 0.93242 0.0
O472 O 0.05349 0.21179 0.96116 0.0
Mg473 Mg 0.02193 0.24427 0.98553 0.0
Mg474 Mg 0.07243 0.16839 0.98742 0.0
C475 C 0.16678 0.18189 0.96545 0.0
C476 C 0.07476 0.14632 0.90237 0.0
O477 O 0.16774 0.30893 0.85204 0.0
O478 O 0.21307 0.27389 0.87489 0.0
O479 O 0.1134 0.24193 0.8252 0.0
O480 O 0.15793 0.20254 0.84281 0.0
O481 O 0.1871 0.1941 0.9392 0.0
O482 O 0.1324 0.19087 0.96845 0.0
C483 C 0.11505 0.31156 0.95942 0.0
O484 O 0.10691 0.2786 0.96917 0.0
O485 O 0.11646 0.32157 0.92546 0.0
O486 O 0.00744 0.1557 0.98967 0.0
O487 O 0.97718 0.20896 0.97956 0.0
O488 O 0.07129 0.19508 0.04365 0.0
C489 C 0.97765 0.17406 0.98229 0.0
O490 O 0.03341 0.24311 0.04413 0.0
O491 O 0.0214 0.28867 0.94517 0.0
C492 C 0.05256 0.21894 0.06107 0.0
O493 O 0.05809 0.26705 0.90012 0.0
O494 O 0.0834 0.17885 0.89148 0.0
O495 O 0.0713 0.13924 0.93612 0.0
C496 C 0.63374 0.7904 0.80473 0.0
C497 C 0.67365 0.85774 0.71472 0.0
C498 C 0.58894 0.96128 0.79376 0.0
Mg499 Mg 0.60135 0.81527 0.73053 0.0
O500 O 0.58882 0.85759 0.75417 0.0
Mg501 Mg 0.62292 0.88128 0.78943 0.0
Mg502 Mg 0.56523 0.90167 0.73246 0.0
O503 O 0.53991 0.94555 0.71443 0.0
Mg504 Mg 0.51733 0.97942 0.74611 0.0
Mg505 Mg 0.51326 0.92806 0.67055 0.0
C506 C 0.52763 0.83238 0.68464 0.0
C507 C 0.59832 0.92001 0.64999 0.0
O508 O 0.64072 0.82422 0.81153 0.0
O509 O 0.6157 0.7803 0.77622 0.0
O510 O 0.67039 0.87701 0.74437 0.0
O511 O 0.64977 0.83399 0.70485 0.0
O512 O 0.5522 0.81042 0.69735 0.0
O513 O 0.52734 0.86698 0.69331 0.0
C514 C 0.53711 0.88471 0.81538 0.0
O515 O 0.52746 0.89274 0.78226 0.0
O516 O 0.57101 0.88096 0.82497 0.0
O517 O 0.51473 0.99273 0.65726 0.0
O518 O 0.52596 0.02349 0.71005 0.0
O519 O 0.45751 0.93318 0.6971 0.0
C520 C 0.52352 0.02241 0.67509 0.0
O521 O 0.45799 0.97101 0.74516 0.0
O522 O 0.55784 0.97794 0.79055 0.0
C523 C 0.44058 0.9523 0.72095 0.0
O524 O 0.59982 0.9371 0.77025 0.0
O525 O 0.60757 0.91081 0.68286 0.0
O526 O 0.5651 0.92559 0.64162 0.0
C527 C 0.86629 0.20443 0.30803 0.0
C528 C 0.82656 0.13693 0.21804 0.0
C529 C 0.91491 0.03543 0.29519 0.0
Mg530 Mg 0.89831 0.18138 0.2326 0.0
O531 O 0.91169 0.13897 0.25598 0.0
Mg532 Mg 0.87881 0.11404 0.29169 0.0
Mg533 Mg 0.93477 0.09516 0.23323 0.0
O534 O 0.95949 0.05147 0.21371 0.0
Mg535 Mg 0.98549 0.01957 0.24513 0.0
Mg536 Mg 0.98401 0.07028 0.16886 0.0
C537 C 0.97166 0.16518 0.18563 0.0
C538 C 0.89812 0.07689 0.15259 0.0
O539 O 0.86025 0.1704 0.31455 0.0
O540 O 0.88359 0.21536 0.2793 0.0
O541 O 0.83066 0.11753 0.24752 0.0
O542 O 0.84984 0.16119 0.20784 0.0
O543 O 0.94763 0.18752 0.19881 0.0
O544 O 0.9703 0.1304 0.19303 0.0
C545 C 0.96542 0.11233 0.31489 0.0
O546 O 0.97425 0.10456 0.28147 0.0
O547 O 0.93175 0.11531 0.32561 0.0
O548 O 0.98373 0.00603 0.15511 0.0
O549 O 0.9802 0.97474 0.20874 0.0
O550 O 0.04015 0.06588 0.19365 0.0
C551 C 0.97954 0.97585 0.17364 0.0
O552 O 0.04362 0.0342 0.24555 0.0
O553 O 0.94611 0.0193 0.29071 0.0
C554 C 0.05913 0.05172 0.21925 0.0
O555 O 0.90252 0.05907 0.27192 0.0
O556 O 0.89076 0.08557 0.18601 0.0
O557 O 0.93079 0.07226 0.14172 0.0
C558 C 0.13456 0.70719 0.19311 0.0
C559 C 0.17361 0.64106 0.28432 0.0
C560 C 0.08867 0.53628 0.20883 0.0
Mg561 Mg 0.10194 0.68438 0.26806 0.0
O562 O 0.08939 0.64144 0.24536 0.0
Mg563 Mg 0.12281 0.61673 0.21034 0.0
Mg564 Mg 0.06636 0.59777 0.26851 0.0
O565 O 0.04149 0.5545 0.28883 0.0
Mg566 Mg 0.01795 0.51997 0.25887 0.0
Mg567 Mg 0.01631 0.57394 0.33326 0.0
C568 C 0.02867 0.66829 0.31425 0.0
C569 C 0.10253 0.57986 0.34968 0.0
O570 O 0.14115 0.67318 0.18695 0.0
O571 O 0.11674 0.71805 0.22149 0.0
O572 O 0.17017 0.62131 0.25503 0.0
O573 O 0.15 0.66522 0.29384 0.0
O574 O 0.05249 0.69071 0.30092 0.0
O575 O 0.03047 0.63338 0.30776 0.0
C576 C 0.03679 0.61423 0.18601 0.0
O577 O 0.02772 0.60621 0.21934 0.0
O578 O 0.07055 0.61715 0.17561 0.0
O579 O 0.0155 0.51027 0.34915 0.0
O580 O 0.02485 0.47725 0.29741 0.0
O581 O 0.95961 0.56915 0.30815 0.0
C582 C 0.02262 0.47961 0.33239 0.0
O583 O 0.95935 0.53214 0.25933 0.0
O584 O 0.05794 0.51921 0.21348 0.0
C585 C 0.94231 0.55112 0.28363 0.0
O586 O 0.09954 0.56156 0.23103 0.0
O587 O 0.10958 0.58836 0.31615 0.0
O588 O 0.06991 0.57589 0.36109 0.0
C589 C 0.36327 0.29466 0.69325 0.0
C590 C 0.32441 0.36102 0.78363 0.0
C591 C 0.4109 0.46424 0.70675 0.0
Mg592 Mg 0.39621 0.31723 0.7685 0.0
O593 O 0.40923 0.35994 0.74545 0.0
Mg594 Mg 0.37627 0.38474 0.70988 0.0
Mg595 Mg 0.4326 0.40379 0.76786 0.0
O596 O 0.45777 0.44748 0.78657 0.0
Mg597 Mg 0.48373 0.4786 0.75415 0.0
Mg598 Mg 0.48259 0.42902 0.83128 0.0
C599 C 0.46968 0.33383 0.81533 0.0
C600 C 0.39728 0.42268 0.84915 0.0
O601 O 0.35781 0.32877 0.68688 0.0
O602 O 0.3808 0.28346 0.72174 0.0
O603 O 0.32829 0.3805 0.75419 0.0
O604 O 0.34781 0.33685 0.79367 0.0
O605 O 0.44563 0.31147 0.80219 0.0
O606 O 0.4685 0.3686 0.80775 0.0
C607 C 0.46246 0.38671 0.68553 0.0
O608 O 0.47158 0.39428 0.71892 0.0
O609 O 0.42869 0.38389 0.67521 0.0
O610 O 0.482 0.49365 0.84387 0.0
O611 O 0.47871 0.524 0.78968 0.0
O612 O 0.53825 0.43292 0.80624 0.0
C613 C 0.47774 0.52348 0.82476 0.0
O614 O 0.54227 0.46426 0.75423 0.0
O615 O 0.44268 0.47971 0.70975 0.0
C616 C 0.55751 0.4468 0.78075 0.0
O617 O 0.39968 0.43987 0.72983 0.0
O618 O 0.38912 0.41367 0.81597 0.0
O619 O 0.43018 0.42741 0.85906 0.0
C620 C 0.80308 0.62926 0.79195 0.0
C621 C 0.71115 0.6671 0.85843 0.0
C622 C 0.79243 0.58758 0.9626 0.0
Mg623 Mg 0.72913 0.59482 0.81629 0.0
O624 O 0.75316 0.58356 0.85895 0.0
Mg625 Mg 0.78712 0.61936 0.88264 0.0
Mg626 Mg 0.7321 0.56006 0.90351 0.0
O627 O 0.71499 0.53528 0.94823 0.0
Mg628 Mg 0.74896 0.51393 0.98078 0.0
Mg629 Mg 0.67302 0.50536 0.93123 0.0
C630 C 0.686 0.51922 0.83518 0.0
C631 C 0.64711 0.58842 0.91919 0.0
O632 O 0.80904 0.63677 0.82579 0.0
O633 O 0.7752 0.61034 0.78151 0.0
O634 O 0.74084 0.6648 0.87771 0.0
O635 O 0.70196 0.64286 0.83474 0.0
O636 O 0.69733 0.5441 0.81268 0.0
O637 O 0.69523 0.51973 0.86968 0.0
C638 C 0.81652 0.53514 0.88737 0.0
O639 O 0.78381 0.52432 0.89569 0.0
O640 O 0.82473 0.56928 0.88325 0.0
O641 O 0.66029 0.50794 0.99622 0.0
O642 O 0.71368 0.51817 0.0264 0.0
O643 O 0.70244 0.45092 0.93795 0.0
C644 C 0.67869 0.51577 0.02587 0.0
O645 O 0.75464 0.45584 0.96923 0.0
O646 O 0.79089 0.55652 0.97941 0.0
C647 C 0.73003 0.43621 0.95353 0.0
O648 O 0.76826 0.5971 0.93851 0.0
O649 O 0.67955 0.59955 0.91027 0.0
O650 O 0.64112 0.5551 0.92669 0.0
C651 C 0.3032 0.86723 0.2052 0.0
C652 C 0.21174 0.82972 0.13795 0.0
C653 C 0.29146 0.91183 0.03504 0.0
Mg654 Mg 0.22902 0.90149 0.18131 0.0
O655 O 0.25332 0.91376 0.13905 0.0
Mg656 Mg 0.28743 0.87855 0.1146 0.0
Mg657 Mg 0.2316 0.93776 0.09509 0.0
O658 O 0.21307 0.96283 0.0512 0.0
Mg659 Mg 0.24552 0.98395 0.01723 0.0
Mg660 Mg 0.17136 0.99253 0.06992 0.0
C661 C 0.18614 0.97748 0.16464 0.0
C662 C 0.14671 0.90882 0.08055 0.0
O663 O 0.30962 0.86032 0.17129 0.0
O664 O 0.27499 0.88558 0.21569 0.0
O665 O 0.24156 0.83245 0.11888 0.0
O666 O 0.2022 0.85366 0.16181 0.0
O667 O 0.19727 0.9521 0.18665 0.0
O668 O 0.19531 0.97749 0.13017 0.0
C669 C 0.31552 0.96348 0.11144 0.0
O670 O 0.2828 0.97361 0.1025 0.0
O671 O 0.32446 0.92944 0.11509 0.0
O672 O 0.15602 0.9914 0.00585 0.0
O673 O 0.20786 0.98011 0.97342 0.0
O674 O 0.201 0.04721 0.06224 0.0
C675 C 0.17296 0.98342 0.97543 0.0
O676 O 0.25224 0.04152 0.02943 0.0
O677 O 0.28832 0.94236 0.01759 0.0
C678 C 0.22826 0.0615 0.04557 0.0
O679 O 0.26777 0.90152 0.05929 0.0
O680 O 0.1797 0.89832 0.08797 0.0
O681 O 0.13922 0.94228 0.07509 0.0
C682 C 0.19183 0.13685 0.69998 0.0
C683 C 0.28535 0.17397 0.63537 0.0
C684 C 0.20894 0.08541 0.53255 0.0
Mg685 Mg 0.26724 0.1031 0.67996 0.0
O686 O 0.246 0.09042 0.63628 0.0
Mg687 Mg 0.21145 0.12343 0.6102 0.0
Mg688 Mg 0.26931 0.06577 0.59363 0.0
O689 O 0.28901 0.03906 0.55113 0.0
Mg690 Mg 0.25721 0.01314 0.51976 0.0
Mg691 Mg 0.3323 0.0132 0.57156 0.0
C692 C 0.31405 0.0294 0.66581 0.0
C693 C 0.3521 0.09851 0.57672 0.0
O694 O 0.18712 0.14336 0.6657 0.0
O695 O 0.21939 0.11849 0.71202 0.0
O696 O 0.25681 0.17036 0.61448 0.0
O697 O 0.29352 0.15094 0.66059 0.0
O698 O 0.30048 0.05379 0.68749 0.0
O699 O 0.30722 0.02985 0.63083 0.0
C700 C 0.18628 0.03769 0.60967 0.0
O701 O 0.21961 0.02827 0.60227 0.0
O702 O 0.17607 0.07152 0.6117 0.0
O703 O 0.34703 0.01154 0.50722 0.0
O704 O 0.2939 0.01632 0.47525 0.0
O705 O 0.30649 0.9571 0.5686 0.0
C706 C 0.32897 0.01585 0.47671 0.0
O707 O 0.25552 0.95544 0.53507 0.0
O708 O 0.21279 0.05353 0.51773 0.0
C709 C 0.28076 0.93909 0.5533 0.0
O710 O 0.23227 0.09823 0.55596 0.0
O711 O 0.31891 0.10791 0.58453 0.0
O712 O 0.3609 0.06522 0.57264 0.0
C713 C 0.69904 0.36049 0.29805 0.0
C714 C 0.79035 0.32599 0.36597 0.0
C715 C 0.70942 0.41278 0.46607 0.0
Mg716 Mg 0.77303 0.39644 0.32062 0.0
O717 O 0.74915 0.40943 0.36294 0.0
Mg718 Mg 0.71465 0.37548 0.38828 0.0
Mg719 Mg 0.77074 0.43452 0.40634 0.0
O720 O 0.78896 0.46108 0.44949 0.0
Mg721 Mg 0.75613 0.48552 0.48105 0.0
Mg722 Mg 0.83224 0.48816 0.43029 0.0
C723 C 0.81659 0.47229 0.33577 0.0
C724 C 0.85441 0.40367 0.4247 0.0
O725 O 0.69259 0.35522 0.33224 0.0
O726 O 0.727 0.37885 0.28679 0.0
O727 O 0.76062 0.32915 0.38519 0.0
O728 O 0.7998 0.34933 0.34146 0.0
O729 O 0.80486 0.44706 0.31393 0.0
O730 O 0.80859 0.47182 0.37047 0.0
C731 C 0.68709 0.46071 0.3889 0.0
O732 O 0.7201 0.47117 0.3965 0.0
O733 O 0.67809 0.42658 0.38629 0.0
O734 O 0.84577 0.48831 0.49495 0.0
O735 O 0.79231 0.48229 0.52619 0.0
O736 O 0.80443 0.54314 0.43417 0.0
C737 C 0.82741 0.48295 0.52513 0.0
O738 O 0.75202 0.54291 0.46531 0.0
O739 O 0.71252 0.44439 0.48157 0.0
C740 C 0.77726 0.5602 0.44792 0.0
O741 O 0.73351 0.40071 0.44302 0.0
O742 O 0.82136 0.39374 0.4167 0.0
O743 O 0.86266 0.43715 0.42837 0.0
C744 C 0.03757 0.41215 0.33673 0.0
C745 C 0.03614 0.44729 0.35343 0.0
C746 C 0.05476 0.38209 0.35406 0.0
C747 C 0.0718 0.38626 0.38842 0.0
H748 H 0.025 0.40774 0.31008 0.0
H749 H 0.05336 0.35527 0.34121 0.0
S750 S 0.07806 0.47284 0.4428 0.0
N751 N 0.05436 0.48431 0.40591 0.0
N752 N 0.08837 0.4291 0.43736 0.0
C753 C 0.07203 0.42174 0.40449 0.0
C754 C 0.05359 0.45179 0.38749 0.0
C755 C 0.41204 0.58223 0.87938 0.0
C756 C 0.42252 0.61853 0.87058 0.0
C757 C 0.43134 0.55188 0.86583 0.0
C758 C 0.46145 0.55642 0.84211 0.0
H759 H 0.39027 0.57733 0.89918 0.0
H760 H 0.42241 0.52461 0.87384 0.0
S761 S 0.49764 0.64512 0.80714 0.0
N762 N 0.46372 0.65707 0.83495 0.0
N763 N 0.49879 0.59973 0.80743 0.0
C764 C 0.47062 0.59234 0.83085 0.0
C765 C 0.45135 0.62344 0.84539 0.0
C766 C 0.53864 0.08998 0.67142 0.0
C767 C 0.53911 0.05453 0.65533 0.0
C768 C 0.55584 0.12025 0.65428 0.0
C769 C 0.57517 0.11573 0.62116 0.0
H770 H 0.52386 0.09458 0.69688 0.0
H771 H 0.5523 0.14741 0.66591 0.0
S772 S 0.58944 0.02785 0.57093 0.0
N773 N 0.56319 0.01654 0.60611 0.0
N774 N 0.59762 0.07212 0.57551 0.0
C775 C 0.57838 0.07978 0.6067 0.0
C776 C 0.5597 0.04959 0.62318 0.0
C777 C 0.91402 0.91805 0.11794 0.0
C778 C 0.92386 0.88163 0.12684 0.0
C779 C 0.9337 0.94812 0.13161 0.0
C780 C 0.9636 0.94317 0.1555 0.0
H781 H 0.89238 0.92326 0.0981 0.0
H782 H 0.92508 0.97551 0.1237 0.0
S783 S 0.99827 0.85393 0.1906 0.0
N784 N 0.96431 0.84249 0.16264 0.0
N785 N 0.00015 0.8993 0.19027 0.0
C786 C 0.97227 0.90711 0.16667 0.0
C787 C 0.95256 0.8763 0.15208 0.0
C788 C 0.37242 0.0603 0.44899 0.0
C789 C 0.34768 0.03115 0.44399 0.0
C790 C 0.38576 0.08035 0.419 0.0
C791 C 0.37567 0.07168 0.38253 0.0
H792 H 0.38103 0.06826 0.4764 0.0
H793 H 0.406 0.1016 0.42426 0.0
S794 S 0.3095 -0.00046 0.35473 0.0
N795 N 0.31102 0.99647 0.40006 0.0
N796 N 0.33804 0.03302 0.34333 0.0
C797 C 0.34982 0.04359 0.37715 0.0
C798 C 0.33557 0.02349 0.40791 0.0
C799 C 0.16605 0.97267 0.90736 0.0
C800 C 0.15209 0.96906 0.9435 0.0
C801 C 0.14863 0.95565 0.87717 0.0
C802 C 0.11725 0.93372 0.88234 0.0
H803 H 0.19024 0.9893 0.90232 0.0
H804 H 0.15874 0.96104 0.84966 0.0
S805 S 0.07253 0.91196 0.97154 0.0
N806 N 0.10672 0.93959 0.98262 0.0
N807 N 0.07497 0.90675 0.92659 0.0
C808 C 0.10457 0.92817 0.91859 0.0
C809 C 0.12162 0.94608 0.94895 0.0
C810 C 0.87153 0.43838 0.55185 0.0
C811 C 0.84599 0.46672 0.55755 0.0
C812 C 0.88589 0.41837 0.58139 0.0
C813 C 0.876 0.42616 0.61813 0.0
H814 H 0.88022 0.43124 0.52424 0.0
H815 H 0.90672 0.39788 0.57552 0.0
S816 S 0.80767 0.49557 0.64769 0.0
N817 N 0.80867 0.49943 0.6024 0.0
N818 N 0.83737 0.46288 0.65826 0.0
C819 C 0.8492 0.45324 0.62418 0.0
C820 C 0.83397 0.47334 0.59386 0.0
C821 C 0.67284 0.52563 0.09434 0.0
C822 C 0.65973 0.53178 0.05823 0.0
C823 C 0.65663 0.54317 0.12499 0.0
C824 C 0.62791 0.56857 0.12024 0.0
H825 H 0.69485 0.50614 0.099 0.0
H826 H 0.66508 0.53518 0.15242 0.0
S827 S 0.58849 0.59926 0.0313 0.0
N828 N 0.61917 0.56801 0.01963 0.0
N829 N 0.59049 0.60236 0.07648 0.0
C830 C 0.61713 0.57725 0.08403 0.0
C831 C 0.63242 0.55847 0.05326 0.0
C832 C 0.42189 0.39882 0.07201 0.0
C833 C 0.38598 0.38381 0.07124 0.0
C834 C 0.4516 0.38157 0.05475 0.0
C835 C 0.44713 0.34794 0.03659 0.0
H836 H 0.42691 0.42523 0.08484 0.0
H837 H 0.47839 0.39456 0.05618 0.0
S838 S 0.35973 0.29494 0.02937 0.0
N839 N 0.34815 0.3323 0.05237 0.0
N840 N 0.40428 0.2986 0.02113 0.0
C841 C 0.41182 0.33134 0.03744 0.0
C842 C 0.38127 0.34943 0.05461 0.0
C843 C 0.9493 0.12205 0.94843 0.0
C844 C 0.94464 0.15491 0.96788 0.0
C845 C 0.9198 0.10549 0.93032 0.0
C846 C 0.88383 0.12024 0.93176 0.0
H847 H 0.97612 0.10919 0.94656 0.0
H848 H 0.92496 0.07962 0.91648 0.0
S849 S 0.85742 0.20783 0.97607 0.0
N850 N 0.90194 0.20395 0.98439 0.0
N851 N 0.84586 0.17111 0.95201 0.0
C852 C 0.87898 0.15407 0.94942 0.0
C853 C 0.90945 0.17165 0.96724 0.0
C854 C 0.61963 0.84962 0.44647 0.0
C855 C 0.61508 0.88258 0.42694 0.0
C856 C 0.58935 0.83254 0.46373 0.0
C857 C 0.55378 0.84842 0.46302 0.0
H858 H 0.64685 0.83812 0.4502 0.0
H859 H 0.59405 0.80726 0.47874 0.0
S860 S 0.52711 0.93248 0.41223 0.0
N861 N 0.57151 0.92807 0.40433 0.0
N862 N 0.5157 0.89734 0.43845 0.0
C863 C 0.54881 0.8804 0.44217 0.0
C864 C 0.5791 0.89693 0.4236 0.0
C865 C 0.08451 0.67547 0.53785 0.0
C866 C 0.05634 0.65846 0.51672 0.0
C867 C 0.11392 0.65531 0.55293 0.0
C868 C 0.11617 0.6173 0.54773 0.0
H869 H 0.0832 0.70451 0.54419 0.0
H870 H 0.13414 0.66932 0.56969 0.0
S871 S 0.05353 0.5609 0.48854 0.0
N872 N 0.03575 0.60249 0.48735 0.0
N873 N 0.09006 0.56424 0.51515 0.0
C874 C 0.08935 0.60045 0.52454 0.0
C875 C 0.0598 0.62107 0.50914 0.0
C876 C 0.96912 0.58467 0.65905 0.0
C877 C 0.96842 0.54917 0.64308 0.0
C878 C 0.95221 0.61501 0.64197 0.0
C879 C 0.93352 0.61091 0.60848 0.0
H880 H 0.98298 0.58909 0.68505 0.0
H881 H 0.95496 0.64194 0.65436 0.0
S882 S 0.92073 0.5236 0.55673 0.0
N883 N 0.94572 0.5118 0.59267 0.0
N884 N 0.91315 0.56803 0.56118 0.0
C885 C 0.93144 0.57529 0.593 0.0
C886 C 0.94922 0.54474 0.60996 0.0
C887 C 0.53118 0.40646 0.16939 0.0
C888 C 0.53537 0.44228 0.15483 0.0
C889 C 0.54994 0.37613 0.1541 0.0
C890 C 0.57454 0.38094 0.12468 0.0
H891 H 0.51269 0.40178 0.19229 0.0
H892 H 0.54363 0.34876 0.16398 0.0
S893 S 0.59838 0.46921 0.07945 0.0
N894 N 0.5676 0.48059 0.11069 0.0
N895 N 0.60463 0.42465 0.08404 0.0
C896 C 0.58089 0.41701 0.11195 0.0
C897 C 0.56069 0.44731 0.1262 0.0
C898 C 0.43707 0.9514 0.37513 0.0
C899 C 0.46427 0.94701 0.3481 0.0
C900 C 0.41875 0.92096 0.39002 0.0
C901 C 0.42706 0.88472 0.3789 0.0
H902 H 0.42959 0.9786 0.38468 0.0
H903 H 0.39911 0.92573 0.41194 0.0
S904 S 0.49468 0.85846 0.30745 0.0
N905 N 0.49698 0.90379 0.30888 0.0
N906 N 0.4634 0.84644 0.33816 0.0
C907 C 0.45306 0.87999 0.3508 0.0
C908 C 0.4715 0.91113 0.33521 0.0
C909 C 0.04159 0.12101 0.84677 0.0
C910 C 0.06369 0.11547 0.87797 0.0
C911 C 0.02312 0.09124 0.83001 0.0
C912 C 0.02505 0.05524 0.84465 0.0
H913 H 0.03757 0.14846 0.83602 0.0
H914 H 0.00711 0.09641 0.80543 0.0
S915 S 0.08094 0.02618 0.92458 0.0
N916 N 0.08873 0.0706 0.92088 0.0
N917 N 0.05216 0.01593 0.89112 0.0
C918 C 0.04735 0.04953 0.87549 0.0
C919 C 0.06724 0.07921 0.89148 0.0
C920 C 0.66816 0.9731 0.59414 0.0
C921 C 0.65528 0.96673 0.55797 0.0
C922 C 0.65248 0.95495 0.62473 0.0
C923 C 0.62442 0.92879 0.61994 0.0
H924 H 0.68981 0.99299 0.59886 0.0
H925 H 0.66088 0.9629 0.65218 0.0
S926 S 0.58489 0.8984 0.5311 0.0
N927 N 0.61503 0.93018 0.51941 0.0
N928 N 0.58724 0.89487 0.57619 0.0
C929 C 0.61354 0.92034 0.58374 0.0
C930 C 0.62836 0.93963 0.55301 0.0
C931 C 0.85171 0.03346 0.12744 0.0
C932 C 0.87024 0.06735 0.12486 0.0
C933 C 0.83821 0.01563 0.09572 0.0
C934 C 0.84428 0.03037 0.06038 0.0
H935 H 0.8497 0.01958 0.15372 0.0
H936 H 0.82376 0.98976 0.09873 0.0
S937 S 0.88751 0.12014 0.03969 0.0
N938 N 0.89062 0.11638 0.08477 0.0
N939 N 0.86659 0.08255 0.0253 0.0
C940 C 0.86129 0.06489 0.05781 0.0
C941 C 0.8738 0.08344 0.08998 0.0
C942 C 0.15348 0.51141 0.40691 0.0
C943 C 0.15753 0.53071 0.44013 0.0
C944 C 0.13963 0.52904 0.37529 0.0
C945 C 0.13073 0.56677 0.37554 0.0
H946 H 0.15988 0.48238 0.40571 0.0
H947 H 0.13359 0.51254 0.35123 0.0
S948 S 0.14456 0.63097 0.45313 0.0
N949 N 0.15785 0.59071 0.4694 0.0
N950 N 0.13075 0.62332 0.41055 0.0
C951 C 0.13737 0.58669 0.40779 0.0
C952 C 0.15126 0.56885 0.43984 0.0
C953 C 0.33559 0.48308 0.90557 0.0
C954 C 0.34424 0.47092 0.9414 0.0
C955 C 0.3491 0.46455 0.87423 0.0
C956 C 0.37031 0.43242 0.8778 0.0
H957 H 0.31893 0.50746 0.90181 0.0
H958 H 0.34478 0.4766 0.84733 0.0
S959 S 0.39539 0.3862 0.96494 0.0
N960 N 0.37214 0.42281 0.97818 0.0
N961 N 0.39626 0.38759 0.91964 0.0
C962 C 0.37669 0.41878 0.91339 0.0
C963 C 0.36412 0.43812 0.94505 0.0
C964 C 0.61807 0.64554 0.94536 0.0
C965 C 0.61486 0.61267 0.92547 0.0
C966 C 0.58682 0.66211 0.96129 0.0
C967 C 0.55144 0.64587 0.95884 0.0
H968 H 0.64493 0.65741 0.95033 0.0
H969 H 0.5906 0.68733 0.97663 0.0
S970 S 0.52814 0.56207 0.90598 0.0
N971 N 0.57292 0.5668 0.90061 0.0
N972 N 0.51509 0.59685 0.93194 0.0
C973 C 0.54784 0.61396 0.93761 0.0
C974 C 0.57924 0.59782 0.9205 0.0
C975 C 0.04906 0.88007 0.06276 0.0
C976 C 0.05294 0.85136 0.03733 0.0
C977 C 0.07986 0.89564 0.0799 0.0
C978 C 0.11596 0.88349 0.07214 0.0
H979 H 0.02201 0.89042 0.06978 0.0
H980 H 0.0755 0.91872 0.09822 0.0
S981 S 0.14097 0.80796 0.00876 0.0
N982 N 0.0956 0.80987 0.00665 0.0
N983 N 0.15355 0.84023 0.03812 0.0
C984 C 0.12018 0.85388 0.04788 0.0
C985 C 0.0887 0.83767 0.03061 0.0
C986 C 0.37873 0.14932 0.53851 0.0
C987 C 0.38218 0.12438 0.56785 0.0
C988 C 0.41019 0.16355 0.5207 0.0
C989 C 0.44601 0.15216 0.53065 0.0
H990 H 0.35174 0.15631 0.52802 0.0
H991 H 0.40651 0.18317 0.4986 0.0
S992 S 0.46941 0.08981 0.60754 0.0
N993 N 0.42412 0.09152 0.60793 0.0
N994 N 0.48271 0.11664 0.57348 0.0
C995 C 0.4496 0.12814 0.56054 0.0
C996 C 0.41789 0.11488 0.57943 0.0
C997 C 0.92087 0.39036 0.43098 0.0
C998 C 0.88425 0.37824 0.43596 0.0
C999 C 0.95027 0.37475 0.45024 0.0
C1000 C 0.94467 0.34563 0.47486 0.0
H1001 H 0.92674 0.41336 0.41296 0.0
H1002 H 0.97779 0.38496 0.44494 0.0
S1003 S 0.85487 0.30176 0.49635 0.0
N1004 N 0.84432 0.33462 0.46682 0.0
N1005 N 0.89998 0.30367 0.50179 0.0
C1006 C 0.90848 0.33205 0.47905 0.0
C1007 C 0.87826 0.34855 0.4598 0.0
C1008 C 0.17103 0.36731 0.26818 0.0
C1009 C 0.17498 0.34973 0.23405 0.0
C1010 C 0.15474 0.34927 0.29802 0.0
C1011 C 0.14254 0.3126 0.29515 0.0
H1012 H 0.18233 0.39453 0.27245 0.0
H1013 H 0.15463 0.36306 0.32444 0.0
S1014 S 0.1413 0.25642 0.21014 0.0
N1015 N 0.16064 0.29552 0.19753 0.0
N1016 N 0.13108 0.26114 0.25417 0.0
C1017 C 0.14289 0.29604 0.26025 0.0
C1018 C 0.15906 0.31468 0.22958 0.0
C1019 C 0.34788 0.65757 0.78992 0.0
C1020 C 0.3568 0.69522 0.78807 0.0
C1021 C 0.33146 0.63944 0.76021 0.0
C1022 C 0.32413 0.65802 0.72718 0.0
H1023 H 0.35049 0.64285 0.81572 0.0
H1024 H 0.32266 0.61122 0.76382 0.0
S1025 S 0.348 0.7549 0.70599 0.0
N1026 N 0.36121 0.74922 0.7491 0.0
N1027 N 0.33151 0.71478 0.69255 0.0
C1028 C 0.33672 0.69447 0.72348 0.0
C1029 C 0.35299 0.71315 0.75408 0.0
C1030 C 0.65095 0.15479 0.70647 0.0
C1031 C 0.64122 0.19219 0.70917 0.0
C1032 C 0.66741 0.13624 0.7359 0.0
C1033 C 0.67388 0.15409 0.76947 0.0
H1034 H 0.6489 0.14069 0.68028 0.0
H1035 H 0.67682 0.1083 0.73172 0.0
S1036 S 0.64829 0.25006 0.79269 0.0
N1037 N 0.63555 0.24517 0.74935 0.0
N1038 N 0.66524 0.20989 0.80534 0.0
C1039 C 0.66064 0.19023 0.7739 0.0
C1040 C 0.64438 0.20935 0.74361 0.0
C1041 C 0.84834 0.84611 0.20408 0.0
C1042 C 0.85789 0.80871 0.20717 0.0
C1043 C 0.83234 0.86507 0.23346 0.0
C1044 C 0.82618 0.84761 0.26731 0.0
H1045 H 0.85005 0.85985 0.17767 0.0
H1046 H 0.8229 0.89295 0.22901 0.0
S1047 S 0.85253 0.75209 0.29165 0.0
N1048 N 0.8645 0.75636 0.24802 0.0
N1049 N 0.8356 0.79238 0.30395 0.0
C1050 C 0.83961 0.81158 0.27213 0.0
C1051 C 0.85542 0.79205 0.24189 0.0
C1052 C 0.25874 0.14574 0.2923 0.0
C1053 C 0.29282 0.14058 0.30978 0.0
C1054 C 0.22904 0.16148 0.3114 0.0
C1055 C 0.23281 0.17269 0.34832 0.0
H1056 H 0.25615 0.14124 0.26295 0.0
H1057 H 0.20415 0.1678 0.29629 0.0
S1058 S 0.31339 0.15647 0.40845 0.0
N1059 N 0.3263 0.14136 0.36762 0.0
N1060 N 0.27071 0.17111 0.40327 0.0
C1061 C 0.26526 0.16366 0.36704 0.0
C1062 C 0.29517 0.14735 0.34782 0.0
C1063 C 0.24042 0.85979 0.79178 0.0
C1064 C 0.2062 0.8647 0.80905 0.0
C1065 C 0.27 0.84399 0.81097 0.0
C1066 C 0.26591 0.83246 0.84776 0.0
H1067 H 0.2432 0.86436 0.76245 0.0
H1068 H 0.29496 0.83769 0.79596 0.0
S1069 S 0.18497 0.84844 0.90753 0.0
N1070 N 0.17236 0.86387 0.86672 0.0
N1071 N 0.22765 0.83368 0.9025 0.0
C1072 C 0.23337 0.84142 0.86637 0.0
C1073 C 0.20361 0.85791 0.84707 0.0
C1074 C 0.76463 0.33908 0.63681 0.0
C1075 C 0.73148 0.33127 0.65499 0.0
C1076 C 0.794 0.35535 0.65556 0.0
C1077 C 0.79155 0.36348 0.69337 0.0
H1078 H 0.76868 0.33051 0.60856 0.0
H1079 H 0.82006 0.35809 0.64132 0.0
S1080 S 0.70873 0.35376 0.75192 0.0
N1081 N 0.69591 0.33783 0.71135 0.0
N1082 N 0.75185 0.36724 0.74695 0.0
C1083 C 0.75731 0.3596 0.71078 0.0
C1084 C 0.72709 0.34351 0.69149 0.0
C1085 C 0.70597 0.64271 0.15546 0.0
C1086 C 0.70866 0.63538 0.19344 0.0
C1087 C 0.73481 0.65954 0.13634 0.0
C1088 C 0.76773 0.66856 0.15428 0.0
H1089 H 0.67999 0.63894 0.1413 0.0
H1090 H 0.73051 0.66748 0.10794 0.0
S1091 S 0.79123 0.64862 0.25159 0.0
N1092 N 0.74851 0.63384 0.247 0.0
N1093 N 0.80354 0.6641 0.21067 0.0
C1094 C 0.77251 0.65716 0.19102 0.0
C1095 C 0.74278 0.64061 0.2107 0.0
C1096 C 0.3667 0.26781 0.16504 0.0
C1097 C 0.34834 0.23435 0.17063 0.0
C1098 C 0.34876 0.29759 0.14872 0.0
C1099 C 0.3115 0.29528 0.13833 0.0
H1100 H 0.3944 0.2717 0.17533 0.0
H1101 H 0.36311 0.32368 0.14752 0.0
S1102 S 0.25345 0.21159 0.14055 0.0
N1103 N 0.29296 0.19859 0.15885 0.0
N1104 N 0.25877 0.25524 0.12928 0.0
C1105 C 0.29421 0.2608 0.13975 0.0
C1106 C 0.31274 0.23015 0.1559 0.0
C1107 C 0.84556 0.20685 0.85715 0.0
C1108 C 0.80773 0.2085 0.86547 0.0
C1109 C 0.86362 0.23642 0.84043 0.0
C1110 C 0.84478 0.26908 0.83236 0.0
H1111 H 0.86043 0.18123 0.86023 0.0
H1112 H 0.89193 0.2329 0.8318 0.0
S1113 S 0.7475 0.28997 0.85505 0.0
N1114 N 0.75336 0.24715 0.86897 0.0
N1115 N 0.78775 0.30344 0.83875 0.0
C1116 C 0.80822 0.27277 0.84466 0.0
C1117 C 0.7896 0.24232 0.86118 0.0
C1118 C 0.6343 0.76684 0.3329 0.0
C1119 C 0.6527 0.73332 0.32796 0.0
C1120 C 0.65209 0.79694 0.34888 0.0
C1121 C 0.68927 0.79492 0.3597 0.0
H1122 H 0.60658 0.77044 0.32255 0.0
H1123 H 0.63762 0.82296 0.34976 0.0
S1124 S 0.74794 0.71169 0.35769 0.0
N1125 N 0.70844 0.6982 0.33972 0.0
N1126 N 0.74233 0.75536 0.36871 0.0
C1127 C 0.70679 0.76055 0.35836 0.0
C1128 C 0.68842 0.72961 0.34252 0.0
C1129 C 0.13344 0.73667 0.66191 0.0
C1130 C 0.15227 0.76953 0.66906 0.0
C1131 C 0.15078 0.70768 0.64359 0.0
C1132 C 0.18795 0.7101 0.63274 0.0
H1133 H 0.1058 0.73258 0.67229 0.0
H1134 H 0.13618 0.6818 0.6414 0.0
S1135 S 0.24726 0.79261 0.63944 0.0
N1136 N 0.20808 0.80511 0.65878 0.0
N1137 N 0.2412 0.74978 0.62567 0.0
C1138 C 0.20573 0.74417 0.63605 0.0
C1139 C 0.1878 0.77407 0.65419 0.0
C1140 C 0.83985 0.68224 0.76835 0.0
C1141 C 0.82755 0.64576 0.76401 0.0
C1142 C 0.85645 0.70124 0.73909 0.0
C1143 C 0.8615 0.68409 0.70486 0.0
H1144 H 0.83385 0.69719 0.79341 0.0
H1145 H 0.86171 0.73038 0.74214 0.0
S1146 S 0.84359 0.5862 0.683 0.0
N1147 N 0.82816 0.59128 0.72545 0.0
N1148 N 0.86001 0.6267 0.67075 0.0
C1149 C 0.85381 0.6463 0.70196 0.0
C1150 C 0.83642 0.62721 0.73141 0.0
C1151 C 0.65 0.34285 0.20823 0.0
C1152 C 0.64046 0.30539 0.21092 0.0
C1153 C 0.66721 0.3612 0.23735 0.0
C1154 C 0.67454 0.34308 0.27061 0.0
H1155 H 0.64743 0.35709 0.18216 0.0
H1156 H 0.67654 0.38916 0.23311 0.0
S1157 S 0.64888 0.24715 0.29404 0.0
N1158 N 0.63534 0.25226 0.25096 0.0
N1159 N 0.6663 0.2872 0.30649 0.0
C1160 C 0.66119 0.307 0.27521 0.0
C1161 C 0.64423 0.28806 0.24519 0.0
C1162 C 0.33973 0.81439 0.22956 0.0
C1163 C 0.32757 0.85097 0.2333 0.0
C1164 C 0.35573 0.79568 0.25934 0.0
C1165 C 0.36022 0.8132 0.29348 0.0
H1166 H 0.33402 0.7992 0.20458 0.0
H1167 H 0.36101 0.7665 0.25669 0.0
S1168 S 0.34216 0.91136 0.31392 0.0
N1169 N 0.32771 0.90586 0.27121 0.0
N1170 N 0.35807 0.87093 0.32695 0.0
C1171 C 0.35254 0.85101 0.29584 0.0
C1172 C 0.33592 0.86984 0.26583 0.0
C1173 C 0.139 0.20939 0.7526 0.0
C1174 C 0.13162 0.1913 0.78596 0.0
C1175 C 0.15588 0.19064 0.72328 0.0
C1176 C 0.16616 0.15347 0.72676 0.0
H1177 H 0.13556 0.23889 0.75056 0.0
H1178 H 0.16392 0.20616 0.69914 0.0
S1179 S 0.14423 0.09197 0.80492 0.0
N1180 N 0.12918 0.13275 0.81795 0.0
N1181 N 0.16137 0.0978 0.76323 0.0
C1182 C 0.1549 0.13423 0.75821 0.0
C1183 C 0.13726 0.15308 0.78764 0.0
C1184 C 0.77101 0.83468 0.69137 0.0
C1185 C 0.76719 0.82402 0.65429 0.0
C1186 C 0.74163 0.85103 0.7105 0.0
C1187 C 0.70784 0.85747 0.69287 0.0
H1188 H 0.79566 0.82756 0.70652 0.0
H1189 H 0.74416 0.85508 0.73991 0.0
S1190 S 0.6875 0.84331 0.59387 0.0
N1191 N 0.72966 0.82726 0.59917 0.0
N1192 N 0.67478 0.85837 0.63478 0.0
C1193 C 0.70556 0.85117 0.65473 0.0
C1194 C 0.7351 0.83413 0.63551 0.0
C1195 C 0.76536 0.16006 0.13947 0.0
C1196 C 0.73195 0.16741 0.15731 0.0
C1197 C 0.7948 0.14427 0.1585 0.0
C1198 C 0.79223 0.13621 0.19635 0.0
H1199 H 0.76954 0.1686 0.11122 0.0
H1200 H 0.82096 0.14178 0.14439 0.0
S1201 S 0.70868 0.14464 0.25407 0.0
N1202 N 0.69601 0.16036 0.21337 0.0
N1203 N 0.75208 0.13192 0.24957 0.0
C1204 C 0.75779 0.13966 0.21345 0.0
C1205 C 0.72746 0.15522 0.19383 0.0
C1206 C 0.20457 0.65076 0.34379 0.0
C1207 C 0.20761 0.64106 0.30639 0.0
C1208 C 0.23375 0.66731 0.36249 0.0
C1209 C 0.26735 0.67385 0.34472 0.0
H1210 H 0.17823 0.64904 0.3576 0.0
H1211 H 0.22926 0.67696 0.39032 0.0
S1212 S 0.29192 0.64638 0.24948 0.0
N1213 N 0.2484 0.63408 0.25397 0.0
N1214 N 0.30409 0.66403 0.28954 0.0
C1215 C 0.27232 0.65999 0.30885 0.0
C1216 C 0.24224 0.6436 0.28958 0.0
C1217 C 0.22636 0.33901 0.80467 0.0
C1218 C 0.22947 0.32744 0.84152 0.0
C1219 C 0.25629 0.35545 0.78647 0.0
C1220 C 0.28986 0.36097 0.80485 0.0
H1221 H 0.20192 0.33243 0.78894 0.0
H1222 H 0.25437 0.36017 0.7571 0.0
S1223 S 0.30826 0.34404 0.90379 0.0
N1224 N 0.26596 0.3288 0.89735 0.0
N1225 N 0.3219 0.36003 0.86352 0.0
C1226 C 0.29136 0.35384 0.84287 0.0
C1227 C 0.26127 0.33675 0.86112 0.0
C1228 C 0.68671 0.76546 0.8407 0.0
C1229 C 0.6501 0.76186 0.8285 0.0
C1230 C 0.7058 0.73525 0.85536 0.0
C1231 C 0.68862 0.70079 0.8584 0.0
H1232 H 0.70167 0.79078 0.83597 0.0
H1233 H 0.73497 0.73802 0.86082 0.0
S1234 S 0.59047 0.68006 0.8397 0.0
N1235 N 0.59553 0.72337 0.82708 0.0
N1236 N 0.63113 0.66682 0.85495 0.0
C1237 C 0.65077 0.69832 0.85067 0.0
C1238 C 0.63156 0.72879 0.83545 0.0
C1239 C 0.20689 0.76159 0.14193 0.0
C1240 C 0.18948 0.79581 0.13777 0.0
C1241 C 0.18783 0.73156 0.15707 0.0
C1242 C 0.151 0.73512 0.16866 0.0
H1243 H 0.23618 0.75901 0.13708 0.0
H1244 H 0.20293 0.70653 0.16273 0.0
S1245 S 0.09092 0.81607 0.15469 0.0
N1246 N 0.13168 0.82929 0.13963 0.0
N1247 N 0.09613 0.77311 0.16838 0.0
C1248 C 0.13231 0.7678 0.16056 0.0
C1249 C 0.15149 0.79807 0.14485 0.0
C1250 C 0.34513 0.20407 0.64638 0.0
C1251 C 0.30813 0.20755 0.63529 0.0
C1252 C 0.36375 0.23322 0.66315 0.0
C1253 C 0.34644 0.26724 0.66838 0.0
H1254 H 0.35858 0.1775 0.64552 0.0
H1255 H 0.3911 0.22842 0.67396 0.0
S1256 S 0.2529 0.293 0.63645 0.0
N1257 N 0.25692 0.24917 0.62535 0.0
N1258 N 0.29247 0.30475 0.65545 0.0
C1259 C 0.31124 0.27256 0.65295 0.0
C1260 C 0.29197 0.24252 0.63646 0.0
C1261 C 0.7946 0.25804 0.36097 0.0
C1262 C 0.81234 0.29195 0.36624 0.0
C1263 C 0.8133 0.22842 0.34465 0.0
C1264 C 0.85006 0.23211 0.33289 0.0
H1265 H 0.76528 0.25555 0.36576 0.0
H1266 H 0.79796 0.20369 0.33831 0.0
S1267 S 0.91096 0.31202 0.34929 0.0
N1268 N 0.87045 0.32498 0.36524 0.0
N1269 N 0.90525 0.26965 0.33404 0.0
C1270 C 0.8691 0.26433 0.34198 0.0
C1271 C 0.85033 0.29412 0.35904 0.0
C1272 C 0.16128 0.35623 0.53081 0.0
C1273 C 0.18369 0.33635 0.50661 0.0
C1274 C 0.17547 0.38611 0.55056 0.0
C1275 C 0.21235 0.39803 0.5459 0.0
H1276 H 0.13212 0.35043 0.53266 0.0
H1277 H 0.1561 0.40212 0.56655 0.0
S1278 S 0.28515 0.34751 0.496 0.0
N1279 N 0.2471 0.32428 0.48742 0.0
N1280 N 0.27271 0.38196 0.52274 0.0
C1281 C 0.23609 0.37522 0.52607 0.0
C1282 C 0.22196 0.34411 0.50673 0.0
C1283 C 0.26471 0.60765 0.99909 0.0
C1284 C 0.27643 0.59956 0.03499 0.0
C1285 C 0.28216 0.6347 0.97823 0.0
C1286 C 0.31172 0.6554 0.99243 0.0
H1287 H 0.24431 0.5907 0.9855 0.0
H1288 H 0.2733 0.63823 0.95 0.0
S1289 S 0.34476 0.6534 0.08861 0.0
N1290 N 0.31386 0.62007 0.08661 0.0
N1291 N 0.34649 0.67154 0.04699 0.0
C1292 C 0.321 0.65061 0.0295 0.0
C1293 C 0.30312 0.62286 0.05095 0.0
C1294 C 0.71953 0.14166 0.51544 0.0
C1295 C 0.68666 0.15881 0.50372 0.0
C1296 C 0.73592 0.11342 0.49526 0.0
C1297 C 0.72 0.10064 0.46254 0.0
H1298 H 0.73192 0.14857 0.54163 0.0
H1299 H 0.75917 0.09931 0.50741 0.0
S1300 S 0.64082 0.14343 0.41414 0.0
N1301 N 0.64361 0.16626 0.45332 0.0
N1302 N 0.67439 0.11291 0.415 0.0
C1303 C 0.68993 0.12064 0.44809 0.0
C1304 C 0.67302 0.14944 0.46892 0.0
C1305 C 0.7799 0.86013 0.01516 0.0
C1306 C 0.81238 0.84245 0.0033 0.0
C1307 C 0.76366 0.88822 0.99472 0.0
C1308 C 0.77951 0.9004 0.96169 0.0
H1309 H 0.76776 0.85373 0.04162 0.0
H1310 H 0.74074 0.90279 0.00695 0.0
S1311 S 0.85694 0.85518 0.91269 0.0
N1312 N 0.85444 0.83318 0.95236 0.0
N1313 N 0.82411 0.88655 0.91362 0.0
C1314 C 0.80906 0.87977 0.94715 0.0
C1315 C 0.82572 0.85099 0.96818 0.0
C1316 C 0.54575 0.17638 0.38895 0.0
C1317 C 0.5427 0.21332 0.40086 0.0
C1318 C 0.52479 0.16275 0.35974 0.0
C1319 C 0.50031 0.18556 0.34075 0.0
H1320 H 0.56156 0.15657 0.40446 0.0
H1321 H 0.52616 0.13366 0.35366 0.0
S1322 S 0.49038 0.28672 0.35379 0.0
N1323 N 0.51896 0.27386 0.38659 0.0
N1324 N 0.48044 0.24901 0.33062 0.0
C1325 C 0.50074 0.22365 0.3491 0.0
C1326 C 0.52178 0.23734 0.37931 0.0
C1327 C 0.95611 0.82961 0.89012 0.0
C1328 C 0.95878 0.79273 0.9023 0.0
C1329 C 0.97617 0.84242 0.85982 0.0
C1330 C 0.99934 0.81885 0.84002 0.0
H1331 H 0.9411 0.84984 0.90596 0.0
H1332 H 0.9752 0.87146 0.85348 0.0
S1333 S 0.0075 0.71768 0.85388 0.0
N1334 N 0.98064 0.73154 0.88774 0.0
N1335 N 0.01732 0.75491 0.82986 0.0
C1336 C 0.99842 0.78092 0.84892 0.0
C1337 C 0.97837 0.76804 0.88021 0.0
C1338 C 0.00502 0.26103 0.61424 0.0
C1339 C 0.03853 0.27632 0.6026 0.0
C1340 C 0.98407 0.27785 0.64171 0.0
C1341 C 0.99578 0.31049 0.6592 0.0
H1342 H 0.99299 0.23798 0.59974 0.0
H1343 H 0.9574 0.26603 0.64776 0.0
S1344 S 0.08672 0.35473 0.64709 0.0
N1345 N 0.08642 0.32111 0.6166 0.0
N1346 N 0.04668 0.35258 0.66849 0.0
C1347 C 0.03119 0.32344 0.65112 0.0
C1348 C 0.05279 0.30613 0.62312 0.0
C1349 C 0.47872 0.65429 0.13772 0.0
C1350 C 0.50175 0.67819 0.15739 0.0
C1351 C 0.45776 0.66699 0.10793 0.0
C1352 C 0.45954 0.70401 0.0961 0.0
H1353 H 0.47837 0.62521 0.14391 0.0
H1354 H 0.44262 0.64672 0.09221 0.0
S1355 S 0.50766 0.77963 0.14428 0.0
N1356 N 0.51866 0.74241 0.16775 0.0
N1357 N 0.48049 0.76549 0.1108 0.0
C1358 C 0.47911 0.72888 0.11803 0.0
C1359 C 0.49997 0.71615 0.1488 0.0
C1360 C 0.38139 0.52042 0.23249 0.0
C1361 C 0.40248 0.54405 0.21053 0.0
C1362 C 0.35142 0.50125 0.21771 0.0
C1363 C 0.3416 0.50433 0.18012 0.0
H1364 H 0.38983 0.51426 0.26039 0.0
H1365 H 0.33751 0.48191 0.23559 0.0
S1366 S 0.38304 0.56852 0.11289 0.0
N1367 N 0.40662 0.57515 0.15099 0.0
N1368 N 0.35176 0.53742 0.12323 0.0
C1369 C 0.35972 0.53098 0.1591 0.0
C1370 C 0.38962 0.55139 0.17437 0.0
C1371 C 0.84908 0.00084 0.78318 0.0
C1372 C 0.84263 -2e-05 0.82159 0.0
C1373 C 0.87832 0.98167 0.76708 0.0
C1374 C 0.90188 0.96008 0.78852 0.0
H1375 H 0.83263 0.01807 0.76533 0.0
H1376 H 0.88368 0.98539 0.738 0.0
S1377 S 0.8944 0.94446 0.88952 0.0
N1378 N 0.8603 0.97265 0.87977 0.0
N1379 N 0.91469 0.93591 0.8499 0.0
C1380 C 0.89376 0.95618 0.82643 0.0
C1381 C 0.86428 0.97626 0.84286 0.0
C1382 C 0.61105 0.0492 0.32849 0.0
C1383 C 0.59919 0.04562 0.2915 0.0
C1384 C 0.64087 0.02901 0.3422 0.0
C1385 C 0.66066 0.00523 0.31927 0.0
H1386 H 0.59519 0.06496 0.34817 0.0
H1387 H 0.6468 0.03033 0.37135 0.0
S1388 S 0.64888 0.99627 0.21773 0.0
N1389 N 0.61479 0.0232 0.23074 0.0
N1390 N 0.67215 0.98681 0.25554 0.0
C1391 C 0.65262 0.00591 0.28107 0.0
C1392 C 0.62167 0.02582 0.26739 0.0
C1393 C 0.13912 0.47624 0.65561 0.0
C1394 C 0.15844 0.50063 0.67833 0.0
C1395 C 0.11034 0.45484 0.66965 0.0
C1396 C 0.09924 0.45743 0.7069 0.0
H1397 H 0.14455 0.47529 0.62636 0.0
H1398 H 0.09451 0.43897 0.65006 0.0
S1399 S 0.14765 0.50907 0.77997 0.0
N1400 N 0.16992 0.51966 0.74184 0.0
N1401 N 0.1147 0.48049 0.76746 0.0
C1402 C 0.12117 0.47822 0.73071 0.0
C1403 C 0.15096 0.49962 0.71661 0.0
C1404 C 0.76389 0.61619 0.48457 0.0
C1405 C 0.78345 0.59984 0.45566 0.0
C1406 C 0.77916 0.6451 0.50473 0.0
C1407 C 0.81468 0.65905 0.49691 0.0
H1408 H 0.73834 0.6043 0.49427 0.0
H1409 H 0.76371 0.65469 0.52832 0.0
S1410 S 0.87102 0.63451 0.41565 0.0
N1411 N 0.83545 0.60639 0.41371 0.0
N1412 N 0.86452 0.66016 0.45254 0.0
C1413 C 0.83203 0.64656 0.46484 0.0
C1414 C 0.81612 0.61739 0.44378 0.0
C1415 C 0.73428 0.39008 0.00305 0.0
C1416 C 0.72387 0.39813 0.96676 0.0
C1417 C 0.71624 0.36292 0.02324 0.0
C1418 C 0.68735 0.34196 0.00802 0.0
H1419 H 0.75415 0.40707 0.01734 0.0
H1420 H 0.7242 0.3594 0.05175 0.0
S1421 S 0.65728 0.34435 0.91086 0.0
N1422 N 0.68798 0.37777 0.91396 0.0
N1423 N 0.65435 0.32598 0.95231 0.0
C1424 C 0.6792 0.34691 0.97069 0.0
C1425 C 0.69766 0.37485 0.94991 0.0
C1426 C 0.32607 0.88775 0.5485 0.0
C1427 C 0.28921 0.89995 0.54507 0.0
C1428 C 0.33959 0.85842 0.52751 0.0
C1429 C 0.3166 0.83947 0.50305 0.0
H1430 H 0.34581 0.90313 0.56466 0.0
H1431 H 0.3687 0.85225 0.52878 0.0
S1432 S 0.21517 0.85194 0.49436 0.0
N1433 N 0.22833 0.88514 0.52231 0.0
N1434 N 0.25287 0.82881 0.48422 0.0
C1435 C 0.27847 0.84764 0.50394 0.0
C1436 C 0.26495 0.87804 0.52477 0.0
C1437 C 0.23091 0.1056 0.99423 0.0
C1438 C 0.22186 0.09911 0.03123 0.0
C1439 C 0.21244 0.13215 0.97371 0.0
C1440 C 0.18456 0.15412 0.98927 0.0
H1441 H 0.24998 0.08786 0.97979 0.0
H1442 H 0.21929 0.13443 0.94479 0.0
S1443 S 0.1587 0.15624 0.08767 0.0
N1444 N 0.18861 0.12213 0.08462 0.0
N1445 N 0.15429 0.17296 0.04565 0.0
C1446 C 0.17789 0.15081 0.02709 0.0
C1447 C 0.19671 0.12338 0.04819 0.0
C1448 C 0.51288 0.78228 0.64026 0.0
C1449 C 0.50251 0.8159 0.6568 0.0
C1450 C 0.49239 0.76644 0.61193 0.0
C1451 C 0.46067 0.78365 0.59838 0.0
H1452 H 0.53827 0.76867 0.6478 0.0
H1453 H 0.50354 0.74235 0.59846 0.0
S1454 S 0.41562 0.86584 0.63913 0.0
N1455 N 0.45424 0.86149 0.66265 0.0
N1456 N 0.41525 0.83174 0.6092 0.0
C1457 C 0.44741 0.81473 0.61768 0.0
C1458 C 0.46861 0.83107 0.64659 0.0
C1459 C 0.02247 0.15766 0.1391 0.0
C1460 C 0.99893 0.18074 0.15913 0.0
C1461 C 0.04383 0.17147 0.11005 0.0
C1462 C 0.04197 0.20885 0.09931 0.0
H1463 H 0.02299 0.12841 0.14447 0.0
H1464 H 0.05939 0.15182 0.09398 0.0
S1465 S 0.99237 0.28251 0.14889 0.0
N1466 N 0.9813 0.24451 0.17105 0.0
N1467 N 0.02023 0.26962 0.11547 0.0
C1468 C 0.02179 0.23282 0.12163 0.0
C1469 C 0.00051 0.21898 0.15165 0.0
C1470 C 0.98354 0.6614 0.36592 0.0
C1471 C 0.0016 0.68402 0.34047 0.0
C1472 C 0.9635 0.67666 0.39503 0.0
C1473 C 0.96079 0.7151 0.39984 0.0
H1474 H 0.98669 0.63184 0.36478 0.0
H1475 H 0.95242 0.65805 0.41548 0.0
S1476 S 0.9967 0.78626 0.33687 0.0
N1477 N 0.01033 0.74701 0.31863 0.0
N1478 N 0.97373 0.77516 0.37445 0.0
C1479 C 0.97623 0.73794 0.37315 0.0
C1480 C 0.99623 0.72252 0.34312 0.0
C1481 C 0.5209 0.34138 0.86139 0.0
C1482 C 0.4967 0.31834 0.84211 0.0
C1483 C 0.54221 0.32782 0.89057 0.0
C1484 C 0.53963 0.29076 0.90223 0.0
H1485 H 0.52206 0.37047 0.85527 0.0
H1486 H 0.55839 0.34751 0.90598 0.0
S1487 S 0.48771 0.21703 0.85509 0.0
N1488 N 0.47736 0.25471 0.83208 0.0
N1489 N 0.51625 0.23012 0.88784 0.0
C1490 C 0.51866 0.2667 0.88073 0.0
C1491 C 0.49741 0.28027 0.85057 0.0
C1492 C 0.61805 0.4769 0.768 0.0
C1493 C 0.59679 0.45381 0.79035 0.0
C1494 C 0.64849 0.49567 0.78231 0.0
C1495 C 0.65871 0.49271 0.81981 0.0
H1496 H 0.60947 0.48294 0.74011 0.0
H1497 H 0.66255 0.51459 0.7641 0.0
S1498 S 0.61703 0.42956 0.88792 0.0
N1499 N 0.59277 0.42321 0.85016 0.0
N1500 N 0.64866 0.46016 0.87705 0.0
C1501 C 0.64032 0.46657 0.84125 0.0
C1502 C 0.60986 0.4466 0.82647 0.0
C1503 C 0.1187 0.02003 0.23216 0.0
C1504 C 0.09841 0.04431 0.21015 0.0
C1505 C 0.14863 0.0006 0.21769 0.0
C1506 C 0.15937 0.00426 0.18042 0.0
H1507 H 0.10958 0.01349 0.25978 0.0
H1508 H 0.16181 0.98073 0.2355 0.0
S1509 S 0.12068 0.07068 0.11372 0.0
N1510 N 0.0961 0.0767 0.15132 0.0
N1511 N 0.15122 0.03886 0.12409 0.0
C1512 C 0.14216 0.03163 0.15954 0.0
C1513 C 0.11215 0.05213 0.17449 0.0
C1514 C 0.39178 0.96048 0.67338 0.0
C1515 C 0.40246 0.9631 0.71076 0.0
C1516 C 0.36189 0.98023 0.65937 0.0
C1517 C 0.34108 0.00329 0.6821 0.0
H1518 H 0.40846 0.94564 0.65373 0.0
H1519 H 0.35655 0.97897 0.6301 0.0
S1520 S 0.35194 0.01293 0.78367 0.0
N1521 N 0.38617 0.9859 0.7712 0.0
N1522 N 0.32909 0.02223 0.74556 0.0
C1523 C 0.34891 0.00302 0.72035 0.0
C1524 C 0.37977 0.98316 0.73448 0.0
C1525 C 0.89145 0.54485 0.32948 0.0
C1526 C 0.90351 0.54159 0.29257 0.0
C1527 C 0.86192 0.52403 0.343 0.0
C1528 C 0.84274 0.49971 0.32003 0.0
H1529 H 0.90691 0.56097 0.34919 0.0
H1530 H 0.85566 0.52545 0.37208 0.0
S1531 S 0.85586 0.49024 0.21875 0.0
N1532 N 0.88902 0.5183 0.23184 0.0
N1533 N 0.83252 0.48036 0.25642 0.0
C1534 C 0.85124 0.50023 0.28196 0.0
C1535 C 0.88176 0.52097 0.26842 0.0
C1536 C 0.17558 0.14555 0.53155 0.0
C1537 C 0.17694 0.10823 0.52149 0.0
C1538 C 0.1505 0.1696 0.51506 0.0
C1539 C 0.12627 0.15727 0.48755 0.0
H1540 H 0.19574 0.15702 0.55022 0.0
H1541 H 0.15273 0.19863 0.52129 0.0
S1542 S 0.11222 0.06101 0.45788 0.0
N1543 N 0.14653 0.05893 0.48756 0.0
N1544 N 0.10036 0.10473 0.45578 0.0
C1545 C 0.12445 0.11952 0.48024 0.0
C1546 C 0.14961 0.09484 0.49737 0.0
C1547 C 0.32101 0.84973 0.03297 0.0
C1548 C 0.32287 0.88763 0.02553 0.0
C1549 C 0.34534 0.8251 0.016 0.0
C1550 C 0.37204 0.83764 0.99091 0.0
H1551 H 0.29883 0.83863 0.04949 0.0
H1552 H 0.34066 0.79592 0.01963 0.0
S1553 S 0.3949 0.9345 0.97008 0.0
N1554 N 0.35895 0.93691 0.99776 0.0
N1555 N 0.4037 0.89029 0.96511 0.0
C1556 C 0.37708 0.87556 0.98686 0.0
C1557 C 0.35269 0.90068 0.00437 0.0
C1558 C 0.65323 0.32741 0.48528 0.0
C1559 C 0.62731 0.34031 0.51095 0.0
C1560 C 0.67809 0.35153 0.46837 0.0
C1561 C 0.67756 0.38936 0.47632 0.0
H1562 H 0.65686 0.29817 0.48098 0.0
H1563 H 0.69957 0.33994 0.45129 0.0
S1564 S 0.60787 0.43748 0.53366 0.0
N1565 N 0.59779 0.39347 0.53813 0.0
N1566 N 0.64346 0.43925 0.50547 0.0
C1567 C 0.64852 0.40297 0.49822 0.0
C1568 C 0.62362 0.3783 0.51577 0.0
C1569 C 0.85107 0.60019 0.99604 0.0
C1570 C 0.8228 0.61297 0.97275 0.0
C1571 C 0.87496 0.62458 0.01373 0.0
C1572 C 0.87206 0.6626 0.00819 0.0
H1573 H 0.85328 0.57129 0.00282 0.0
H1574 H 0.89405 0.6138 0.03392 0.0
S1575 S 0.80752 0.70996 0.94489 0.0
N1576 N 0.79652 0.66608 0.94166 0.0
N1577 N 0.84245 0.71173 0.9738 0.0
C1578 C 0.84692 0.67548 0.98171 0.0
C1579 C 0.82198 0.65069 0.96425 0.0
C1580 C 0.51721 0.15244 0.17379 0.0
C1581 C 0.4907 0.12732 0.16109 0.0
C1582 C 0.53465 0.17669 0.14946 0.0
C1583 C 0.52639 0.17631 0.11163 0.0
H1584 H 0.52178 0.15605 0.20302 0.0
H1585 H 0.55237 0.1977 0.16093 0.0
S1586 S 0.46685 0.10828 0.06398 0.0
N1587 N 0.46241 0.09842 0.10809 0.0
N1588 N 0.496 0.14303 0.06194 0.0
C1589 C 0.50364 0.14792 0.09821 0.0
C1590 C 0.48559 0.12361 0.12308 0.0
C1591 C 0.99588 0.84854 0.59894 0.0
C1592 C 0.97372 0.81976 0.61265 0.0
C1593 C 0.01376 0.87297 0.62261 0.0
C1594 C 0.00938 0.87019 0.66078 0.0
H1595 H 0.00154 0.8509 0.56978 0.0
H1596 H 0.03298 0.89263 0.61109 0.0
S1597 S 0.95023 0.80364 0.71076 0.0
N1598 N 0.9457 0.79246 0.66702 0.0
N1599 N 0.97795 0.83954 0.71133 0.0
C1600 C 0.98432 0.84418 0.67475 0.0
C1601 C 0.96679 0.81863 0.65071 0.0
C1602 C 0.01698 0.34757 0.82751 0.0
C1603 C 0.99088 0.37308 0.8402 0.0
C1604 C 0.03379 0.32287 0.85178 0.0
C1605 C 0.0254 0.32321 0.88959 0.0
H1606 H 0.02165 0.34402 0.79829 0.0
H1607 H 0.05115 0.30164 0.84023 0.0
S1608 S 0.96656 0.39185 0.93727 0.0
N1609 N 0.96271 0.40211 0.89321 0.0
N1610 N 0.99511 0.35663 0.93929 0.0
C1611 C 0.00302 0.35188 0.90305 0.0
C1612 C 0.98559 0.37665 0.87821 0.0
C1613 C 0.51353 0.62652 0.37638 0.0
C1614 C 0.50881 0.62844 0.33814 0.0
C1615 C 0.49602 0.65155 0.39972 0.0
C1616 C 0.47376 0.67997 0.3856 0.0
H1617 H 0.53297 0.60724 0.38812 0.0
H1618 H 0.50209 0.65002 0.42884 0.0
S1619 S 0.44871 0.69344 0.28746 0.0
N1620 N 0.47653 0.65763 0.28735 0.0
N1621 N 0.44479 0.70571 0.33097 0.0
C1622 C 0.46617 0.68001 0.34762 0.0
C1623 C 0.48341 0.65392 0.32394 0.0
C1624 C 0.09889 0.50022 0.15114 0.0
C1625 C 0.11253 0.52509 0.17756 0.0
C1626 C 0.12242 0.48288 0.12608 0.0
C1627 C 0.16033 0.49028 0.12598 0.0
H1628 H 0.07021 0.49218 0.15126 0.0
H1629 H 0.11127 0.46161 0.10845 0.0
S1630 S 0.20941 0.557 0.18557 0.0
N1631 N 0.16626 0.55862 0.19949 0.0
N1632 N 0.20989 0.52746 0.15119 0.0
C1633 C 0.17373 0.51795 0.14944 0.0
C1634 C 0.14998 0.53496 0.17562 0.0
C1635 C 0.59955 0.99646 0.85182 0.0
C1636 C 0.6132 0.9722 0.82481 0.0
C1637 C 0.62321 0.0146 0.87614 0.0
C1638 C 0.66131 0.00857 0.87496 0.0
H1639 H 0.57064 0.00358 0.85265 0.0
H1640 H 0.6119 0.03541 0.89421 0.0
S1641 S 0.71062 0.94316 0.81414 0.0
N1642 N 0.66715 0.94007 0.8015 0.0
N1643 N 0.71126 0.97294 0.84833 0.0
C1644 C 0.6749 0.9813 0.85112 0.0
C1645 C 0.65092 0.96342 0.8257 0.0
C1646 C 0.8299 0.01765 0.35247 0.0
C1647 C 0.84202 0.98997 0.37658 0.0
C1648 C 0.85436 0.03465 0.32803 0.0
C1649 C 0.89182 0.0248 0.32717 0.0
H1650 H 0.80082 0.02356 0.34973 0.0
H1651 H 0.84314 0.05338 0.3078 0.0
S1652 S 0.93845 0.96138 0.39234 0.0
N1653 N 0.89446 0.95866 0.4033 0.0
N1654 N 0.94092 0.99134 0.35832 0.0
C1655 C 0.90492 0.00074 0.35463 0.0
C1656 C 0.87987 0.98315 0.37914 0.0
C1657 C 0.37511 0.52039 0.62667 0.0
C1658 C 0.3371 0.51354 0.62764 0.0
C1659 C 0.39919 0.50203 0.65043 0.0
C1660 C 0.3861 0.47663 0.67665 0.0
H1661 H 0.38607 0.54169 0.60893 0.0
H1662 H 0.428 0.50959 0.64966 0.0
S1663 S 0.289 0.44609 0.68724 0.0
N1664 N 0.2878 0.47666 0.65378 0.0
N1665 N 0.33257 0.44337 0.69955 0.0
C1666 C 0.34839 0.46754 0.67587 0.0
C1667 C 0.32402 0.48567 0.65104 0.0
C1668 C 0.87143 0.8758 0.51859 0.0
C1669 C 0.86978 0.83791 0.51196 0.0
C1670 C 0.84745 0.8999 0.50072 0.0
C1671 C 0.82028 0.88683 0.47628 0.0
H1672 H 0.88974 0.88661 0.53947 0.0
H1673 H 0.84873 0.9287 0.50811 0.0
S1674 S 0.80805 0.79002 0.44623 0.0
N1675 N 0.84237 0.78868 0.47585 0.0
N1676 N 0.79596 0.83362 0.44372 0.0
C1677 C 0.82051 0.84926 0.46714 0.0
C1678 C 0.84565 0.82487 0.48464 0.0
C1679 C 0.65187 0.17189 0.98506 0.0
C1680 C 0.62638 0.15902 0.01119 0.0
C1681 C 0.67651 0.14776 0.96802 0.0
C1682 C 0.6761 0.11003 0.97635 0.0
H1683 H 0.6555 0.20112 0.98063 0.0
H1684 H 0.69786 0.15929 0.95072 0.0
S1685 S 0.60693 0.06198 0.0344 0.0
N1686 N 0.59691 0.10599 0.03878 0.0
N1687 N 0.64224 0.06013 0.00587 0.0
C1688 C 0.64721 0.0964 0.99843 0.0
C1689 C 0.62253 0.12107 0.01608 0.0
C1690 C 0.32289 0.64702 0.5302 0.0
C1691 C 0.32269 0.60945 0.5209 0.0
C1692 C 0.34768 0.67147 0.51367 0.0
C1693 C 0.37282 0.65928 0.48692 0.0
H1694 H 0.30208 0.65828 0.54827 0.0
H1695 H 0.34458 0.70055 0.51923 0.0
S1696 S 0.38978 0.56287 0.4593 0.0
N1697 N 0.35501 0.56042 0.48843 0.0
N1698 N 0.40057 0.60685 0.45661 0.0
C1699 C 0.37568 0.62144 0.48038 0.0
C1700 C 0.35084 0.5964 0.49753 0.0
C1701 C 0.15294 0.39868 0.99913 0.0
C1702 C 0.18052 0.38551 0.02302 0.0
C1703 C 0.12896 0.37466 0.98113 0.0
C1704 C 0.1311 0.33663 0.98688 0.0
H1705 H 0.15124 0.42761 0.99233 0.0
H1706 H 0.1102 0.38573 0.96079 0.0
S1707 S 0.19403 0.28832 0.05111 0.0
N1708 N 0.20561 0.33204 0.05449 0.0
N1709 N 0.15955 0.28705 0.02164 0.0
C1710 C 0.15576 0.32335 0.01361 0.0
C1711 C 0.18076 0.34777 0.03146 0.0
C1712 C 0.48226 0.84625 0.82783 0.0
C1713 C 0.50913 0.8707 0.8411 0.0
C1714 C 0.46447 0.82168 0.8516 0.0
C1715 C 0.47279 0.82104 0.88941 0.0
H1716 H 0.47763 0.84341 0.79853 0.0
H1717 H 0.44646 0.80119 0.83968 0.0
S1718 S 0.53326 0.8871 0.93863 0.0
N1719 N 0.53782 0.89795 0.89477 0.0
N1720 N 0.50363 0.85272 0.93986 0.0
C1721 C 0.49592 0.8488 0.90348 0.0
C1722 C 0.5143 0.87344 0.87919 0.0
C1723 C 0.01713 0.15497 0.32626 0.0
C1724 C 0.99367 0.12725 0.3396 0.0
C1725 C 0.03371 0.18004 0.35036 0.0
C1726 C 0.02748 0.1779 0.3885 0.0
H1727 H 0.01963 0.15975 0.29694 0.0
H1728 H 0.04887 0.20289 0.33874 0.0
S1729 S 0.97697 0.10351 0.43711 0.0
N1730 N 0.97091 0.09453 0.39302 0.0
N1731 N 0.00305 0.14063 0.4387 0.0
C1732 C 0.00816 0.1472 0.40223 0.0
C1733 C 0.99097 0.12207 0.37764 0.0
C1734 C 0.01465 0.62841 0.12298 0.0
C1735 C 0.00882 0.62985 0.16115 0.0
C1736 C 0.99737 0.65335 0.09933 0.0
C1737 C 0.97405 0.68108 0.11304 0.0
H1738 H 0.03478 0.60962 0.11161 0.0
H1739 H 0.00425 0.65225 0.07036 0.0
S1740 S 0.9464 0.69348 0.21074 0.0
N1741 N 0.97474 0.65811 0.21127 0.0
N1742 N 0.94343 0.70596 0.16722 0.0
C1743 C 0.96559 0.68072 0.15088 0.0
C1744 C 0.98263 0.65477 0.17484 0.0
C1745 C 0.51572 0.34595 0.67348 0.0
C1746 C 0.49052 0.37211 0.66024 0.0
C1747 C 0.53303 0.32128 0.64945 0.0
C1748 C 0.52588 0.3222 0.61141 0.0
H1749 H 0.5193 0.34202 0.70281 0.0
H1750 H 0.54975 0.29962 0.66119 0.0
S1751 S 0.47005 0.3925 0.56262 0.0
N1752 N 0.4647 0.40222 0.60666 0.0
N1753 N 0.49804 0.35682 0.56115 0.0
C1754 C 0.50446 0.35142 0.59759 0.0
C1755 C 0.48657 0.37617 0.62212 0.0
C1756 C 0.83042 0.48135 0.84805 0.0
C1757 C 0.84307 0.5083 0.87271 0.0
C1758 C 0.85436 0.46499 0.82266 0.0
C1759 C 0.89184 0.47473 0.82137 0.0
H1760 H 0.80127 0.47555 0.84573 0.0
H1761 H 0.8427 0.44679 0.80218 0.0
S1762 S 0.93984 0.53661 0.88703 0.0
N1763 N 0.8961 0.53903 0.89899 0.0
N1764 N 0.94157 0.50751 0.85224 0.0
C1765 C 0.90549 0.49819 0.84907 0.0
C1766 C 0.88098 0.51513 0.87456 0.0
C1767 C 0.37875 0.98422 0.12736 0.0
C1768 C 0.34071 0.99084 0.12766 0.0
C1769 C 0.40213 0.00171 0.15247 0.0
C1770 C 0.38824 0.02588 0.17944 0.0
H1771 H 0.39019 0.96354 0.10922 0.0
H1772 H 0.43099 0.99435 0.15212 0.0
S1773 S 0.29075 0.05529 0.18901 0.0
N1774 N 0.29058 0.02632 0.15414 0.0
N1775 N 0.334 0.05773 0.20251 0.0
C1776 C 0.35055 0.03483 0.17808 0.0
C1777 C 0.32692 0.0177 0.15184 0.0
C1778 C 0.12308 0.01572 0.62327 0.0
C1779 C 0.1612 0.0101 0.62549 0.0
C1780 C 0.09909 0.9986 0.64802 0.0
C1781 C 0.11243 0.97581 0.6764 0.0
H1782 H 0.11196 0.03548 0.60395 0.0
H1783 H 0.07011 0.00528 0.64626 0.0
S1784 S 0.20999 0.94886 0.69087 0.0
N1785 N 0.21099 0.97667 0.65506 0.0
N1786 N 0.16629 0.94588 0.7027 0.0
C1787 C 0.15029 0.96757 0.67685 0.0
C1788 C 0.17459 0.98434 0.65102 0.0
C1789 C 0.64855 0.53255 0.32598 0.0
C1790 C 0.61084 0.52359 0.32578 0.0
C1791 C 0.67299 0.51506 0.35011 0.0
C1792 C 0.66058 0.48784 0.37463 0.0
H1793 H 0.65985 0.55104 0.30554 0.0
H1794 H 0.70216 0.52038 0.347 0.0
S1795 S 0.56376 0.46139 0.39193 0.0
N1796 N 0.5615 0.49122 0.35778 0.0
N1797 N 0.60782 0.45778 0.40225 0.0
C1798 C 0.62263 0.48179 0.37771 0.0
C1799 C 0.59764 0.49982 0.35348 0.0
loop_
_geom_bond_atom_site_label_1
_geom_bond_atom_site_label_2
_geom_bond_distance
_geom_bond_site_symmetry_2
_ccdc_geom_bond_type
C0 O12 1.241 1_655 S
C0 O13 1.280 . S
C1 O14 1.277 . S
C1 O15 1.245 . S
C2 O26 1.247 . S
C2 O28 1.289 . S
Mg3 O4 1.926 . S
Mg3 O13 1.984 1_455 S
Mg3 O15 1.988 . S
Mg3 O16 2.061 . S
O4 Mg3 1.926 . S
O4 Mg5 1.986 . S
O4 Mg6 1.917 . S
Mg5 O4 1.986 . S
Mg5 O12 2.042 . S
Mg5 O14 2.041 . S
Mg5 O20 2.038 . S
Mg5 O28 2.238 . S
Mg6 O4 1.917 . S
Mg6 O7 1.917 . S
Mg6 O17 2.106 . S
Mg6 O19 2.079 . S
Mg6 O28 2.106 . S
Mg6 O29 2.079 . S
O7 Mg6 1.917 . S
O7 Mg8 1.926 . S
O7 Mg9 1.986 . S
Mg8 O7 1.926 . S
Mg8 O22 1.984 . S
Mg8 O25 1.988 . S
Mg8 O26 2.061 . S
Mg9 O7 1.986 . S
Mg9 O17 2.238 . S
Mg9 O21 2.042 . S
Mg9 O23 2.041 . S
Mg9 O30 2.038 . S
C10 O16 1.247 . S
C10 O17 1.289 . S
C11 O29 1.245 . S
C11 O30 1.274 . S
O12 C0 1.241 1_455 S
O12 Mg5 2.042 . S
O13 C0 1.280 . S
O13 Mg3 1.984 1_655 S
O14 C1 1.277 . S
O14 Mg5 2.041 . S
O15 C1 1.245 . S
O15 Mg3 1.988 . S
O16 Mg3 2.061 . S
O16 C10 1.247 . S
O17 Mg6 2.106 . S
O17 Mg9 2.238 . S
O17 C10 1.289 . S
C18 O19 1.245 . S
C18 O20 1.274 . S
O19 Mg6 2.079 . S
O19 C18 1.245 . S
O20 Mg5 2.038 . S
O20 C18 1.274 . S
O21 Mg9 2.042 . S
O21 C24 1.241 . S
O22 Mg8 1.984 . S
O22 C24 1.280 . S
O23 Mg9 2.041 . S
O23 C27 1.277 . S
C24 O21 1.241 . S
C24 O22 1.280 . S
O25 Mg8 1.988 . S
O25 C27 1.245 . S
O26 C2 1.247 . S
O26 Mg8 2.061 . S
C27 O23 1.277 . S
C27 O25 1.245 . S
O28 C2 1.289 . S
O28 Mg5 2.238 . S
O28 Mg6 2.106 . S
O29 Mg6 2.079 . S
O29 C11 1.245 . S
O30 Mg9 2.038 . S
O30 C11 1.274 . S
C31 O43 1.241 . S
C31 O44 1.280 . S
C32 O45 1.277 . S
C32 O46 1.245 . S
C33 O57 1.247 . S
C33 O59 1.289 . S
Mg34 O35 1.926 . S
Mg34 O44 1.984 . S
Mg34 O46 1.988 1_556 S
Mg34 O47 2.061 . S
O35 Mg34 1.926 . S
O35 Mg36 1.986 . S
O35 Mg37 1.917 . S
Mg36 O35 1.986 . S
Mg36 O43 2.042 . S
Mg36 O45 2.041 1_556 S
Mg36 O51 2.038 . S
Mg36 O59 2.238 . S
Mg37 O35 1.917 . S
Mg37 O38 1.917 . S
Mg37 O48 2.106 . S
Mg37 O50 2.079 . S
Mg37 O59 2.106 . S
Mg37 O60 2.079 . S
O38 Mg37 1.917 . S
O38 Mg39 1.926 . S
O38 Mg40 1.986 . S
Mg39 O38 1.926 . S
Mg39 O53 1.984 . S
Mg39 O56 1.988 . S
Mg39 O57 2.061 . S
Mg40 O38 1.986 . S
Mg40 O48 2.238 . S
Mg40 O52 2.042 . S
Mg40 O54 2.041 . S
Mg40 O61 2.038 . S
C41 O47 1.247 . S
C41 O48 1.289 . S
C42 O60 1.245 . S
C42 O61 1.274 . S
O43 C31 1.241 . S
O43 Mg36 2.042 . S
O44 C31 1.280 . S
O44 Mg34 1.984 . S
O45 C32 1.277 . S
O45 Mg36 2.041 1_554 S
O46 C32 1.245 . S
O46 Mg34 1.988 1_554 S
O47 Mg34 2.061 . S
O47 C41 1.247 . S
O48 Mg37 2.106 . S
O48 Mg40 2.238 . S
O48 C41 1.289 . S
C49 O50 1.245 . S
C49 O51 1.274 . S
O50 Mg37 2.079 . S
O50 C49 1.245 . S
O51 Mg36 2.038 . S
O51 C49 1.274 . S
O52 Mg40 2.042 . S
O52 C55 1.241 . S
O53 Mg39 1.984 . S
O53 C55 1.280 . S
O54 Mg40 2.041 . S
O54 C58 1.277 . S
C55 O52 1.241 . S
C55 O53 1.280 . S
O56 Mg39 1.988 . S
O56 C58 1.245 . S
O57 C33 1.247 . S
O57 Mg39 2.061 . S
C58 O54 1.277 . S
C58 O56 1.245 . S
O59 C33 1.289 . S
O59 Mg36 2.238 . S
O59 Mg37 2.106 . S
O60 Mg37 2.079 . S
O60 C42 1.245 . S
O61 Mg40 2.038 . S
O61 C42 1.274 . S
C62 O74 1.241 . S
C62 O75 1.280 . S
C63 O76 1.277 . S
C63 O77 1.245 . S
C64 O88 1.247 . S
C64 O90 1.289 . S
Mg65 O66 1.926 . S
Mg65 O75 1.984 . S
Mg65 O77 1.988 . S
Mg65 O78 2.061 . S
O66 Mg65 1.926 . S
O66 Mg67 1.986 . S
O66 Mg68 1.917 . S
Mg67 O66 1.986 . S
Mg67 O74 2.042 . S
Mg67 O76 2.041 . S
Mg67 O82 2.038 . S
Mg67 O90 2.238 . S
Mg68 O66 1.917 . S
Mg68 O69 1.917 . S
Mg68 O79 2.106 . S
Mg68 O81 2.079 . S
Mg68 O90 2.106 . S
Mg68 O91 2.079 . S
O69 Mg68 1.917 . S
O69 Mg70 1.926 . S
O69 Mg71 1.986 . S
Mg70 O69 1.926 . S
Mg70 O84 1.984 . S
Mg70 O87 1.988 . S
Mg70 O88 2.061 . S
Mg71 O69 1.986 . S
Mg71 O79 2.238 . S
Mg71 O83 2.042 . S
Mg71 O85 2.041 . S
Mg71 O92 2.038 . S
C72 O78 1.247 . S
C72 O79 1.289 . S
C73 O91 1.245 . S
C73 O92 1.274 . S
O74 C62 1.241 . S
O74 Mg67 2.042 . S
O75 C62 1.280 . S
O75 Mg65 1.984 . S
O76 C63 1.277 . S
O76 Mg67 2.041 . S
O77 C63 1.245 . S
O77 Mg65 1.988 . S
O78 Mg65 2.061 . S
O78 C72 1.247 . S
O79 Mg68 2.106 . S
O79 Mg71 2.238 . S
O79 C72 1.289 . S
C80 O81 1.245 . S
C80 O82 1.274 . S
O81 Mg68 2.079 . S
O81 C80 1.245 . S
O82 Mg67 2.038 . S
O82 C80 1.274 . S
O83 Mg71 2.042 . S
O83 C86 1.241 . S
O84 Mg70 1.984 . S
O84 C86 1.280 . S
O85 Mg71 2.041 . S
O85 C89 1.277 . S
C86 O83 1.241 . S
C86 O84 1.280 . S
O87 Mg70 1.988 . S
O87 C89 1.245 . S
O88 C64 1.247 . S
O88 Mg70 2.061 . S
C89 O85 1.277 . S
C89 O87 1.245 . S
O90 C64 1.289 . S
O90 Mg67 2.238 . S
O90 Mg68 2.106 . S
O91 Mg68 2.079 . S
O91 C73 1.245 . S
O92 Mg71 2.038 . S
O92 C73 1.274 . S
C93 O105 1.241 1_455 S
C93 O106 1.280 . S
C94 O107 1.277 . S
C94 O108 1.245 . S
C95 O119 1.247 . S
C95 O121 1.289 . S
Mg96 O97 1.926 . S
Mg96 O106 1.984 1_655 S
Mg96 O108 1.988 1_554 S
Mg96 O109 2.061 . S
O97 Mg96 1.926 . S
O97 Mg98 1.986 . S
O97 Mg99 1.917 . S
Mg98 O97 1.986 . S
Mg98 O105 2.042 . S
Mg98 O107 2.041 1_554 S
Mg98 O113 2.038 . S
Mg98 O121 2.238 . S
Mg99 O97 1.917 . S
Mg99 O100 1.917 . S
Mg99 O110 2.106 . S
Mg99 O112 2.079 . S
Mg99 O121 2.106 . S
Mg99 O122 2.079 . S
O100 Mg99 1.917 . S
O100 Mg101 1.926 . S
O100 Mg102 1.986 . S
Mg101 O100 1.926 . S
Mg101 O115 1.984 . S
Mg101 O118 1.988 . S
Mg101 O119 2.061 . S
Mg102 O100 1.986 . S
Mg102 O110 2.238 . S
Mg102 O114 2.042 . S
Mg102 O116 2.041 . S
Mg102 O123 2.038 . S
C103 O109 1.247 . S
C103 O110 1.289 . S
C104 O122 1.245 . S
C104 O123 1.274 . S
O105 C93 1.241 1_655 S
O105 Mg98 2.042 . S
O106 C93 1.280 . S
O106 Mg96 1.984 1_455 S
O107 C94 1.277 . S
O107 Mg98 2.041 1_556 S
O108 C94 1.245 . S
O108 Mg96 1.988 1_556 S
O109 Mg96 2.061 . S
O109 C103 1.247 . S
O110 Mg99 2.106 . S
O110 Mg102 2.238 . S
O110 C103 1.289 . S
C111 O112 1.245 . S
C111 O113 1.274 . S
O112 Mg99 2.079 . S
O112 C111 1.245 . S
O113 Mg98 2.038 . S
O113 C111 1.274 . S
O114 Mg102 2.042 . S
O114 C117 1.241 . S
O115 Mg101 1.984 . S
O115 C117 1.280 . S
O116 Mg102 2.041 . S
O116 C120 1.277 . S
C117 O114 1.241 . S
C117 O115 1.280 . S
O118 Mg101 1.988 . S
O118 C120 1.245 . S
O119 C95 1.247 . S
O119 Mg101 2.061 . S
C120 O116 1.277 . S
C120 O118 1.245 . S
O121 C95 1.289 . S
O121 Mg98 2.238 . S
O121 Mg99 2.106 . S
O122 Mg99 2.079 . S
O122 C104 1.245 . S
O123 Mg102 2.038 . S
O123 C104 1.274 . S
C124 O136 1.241 1_565 S
C124 O137 1.280 . S
C125 O138 1.277 . S
C125 O139 1.245 . S
C126 O150 1.247 . S
C126 O152 1.289 . S
Mg127 O128 1.926 . S
Mg127 O137 1.984 1_545 S
Mg127 O139 1.988 . S
Mg127 O140 2.061 . S
O128 Mg127 1.926 . S
O128 Mg129 1.986 . S
O128 Mg130 1.917 . S
Mg129 O128 1.986 . S
Mg129 O136 2.042 . S
Mg129 O138 2.041 . S
Mg129 O144 2.038 . S
Mg129 O152 2.238 . S
Mg130 O128 1.917 . S
Mg130 O131 1.917 . S
Mg130 O141 2.106 . S
Mg130 O143 2.079 . S
Mg130 O152 2.106 . S
Mg130 O153 2.079 . S
O131 Mg130 1.917 . S
O131 Mg132 1.926 . S
O131 Mg133 1.986 . S
Mg132 O131 1.926 . S
Mg132 O146 1.984 . S
Mg132 O149 1.988 . S
Mg132 O150 2.061 . S
Mg133 O131 1.986 . S
Mg133 O141 2.238 . S
Mg133 O145 2.042 . S
Mg133 O147 2.041 . S
Mg133 O154 2.038 . S
C134 O140 1.247 . S
C134 O141 1.289 . S
C135 O153 1.245 . S
C135 O154 1.274 . S
O136 C124 1.241 1_545 S
O136 Mg129 2.042 . S
O137 C124 1.280 . S
O137 Mg127 1.984 1_565 S
O138 C125 1.277 . S
O138 Mg129 2.041 . S
O139 C125 1.245 . S
O139 Mg127 1.988 . S
O140 Mg127 2.061 . S
O140 C134 1.247 . S
O141 Mg130 2.106 . S
O141 Mg133 2.238 . S
O141 C134 1.289 . S
C142 O143 1.245 . S
C142 O144 1.274 . S
O143 Mg130 2.079 . S
O143 C142 1.245 . S
O144 Mg129 2.038 . S
O144 C142 1.274 . S
O145 Mg133 2.042 . S
O145 C148 1.241 . S
O146 Mg132 1.984 . S
O146 C148 1.280 . S
O147 Mg133 2.041 . S
O147 C151 1.277 . S
C148 O145 1.241 . S
C148 O146 1.280 . S
O149 Mg132 1.988 . S
O149 C151 1.245 . S
O150 C126 1.247 . S
O150 Mg132 2.061 . S
C151 O147 1.277 . S
C151 O149 1.245 . S
O152 C126 1.289 . S
O152 Mg129 2.238 . S
O152 Mg130 2.106 . S
O153 Mg130 2.079 . S
O153 C135 1.245 . S
O154 Mg133 2.038 . S
O154 C135 1.274 . S
C155 O167 1.241 1_545 S
C155 O168 1.280 . S
C156 O169 1.277 . S
C156 O170 1.245 . S
C157 O181 1.247 . S
C157 O183 1.289 . S
Mg158 O159 1.926 . S
Mg158 O168 1.984 1_565 S
Mg158 O170 1.988 1_455 S
Mg158 O171 2.061 . S
O159 Mg158 1.926 . S
O159 Mg160 1.986 . S
O159 Mg161 1.917 . S
Mg160 O159 1.986 . S
Mg160 O167 2.042 . S
Mg160 O169 2.041 1_455 S
Mg160 O175 2.038 . S
Mg160 O183 2.238 . S
Mg161 O159 1.917 . S
Mg161 O162 1.917 . S
Mg161 O172 2.106 . S
Mg161 O174 2.079 . S
Mg161 O183 2.106 . S
Mg161 O184 2.079 . S
O162 Mg161 1.917 . S
O162 Mg163 1.926 . S
O162 Mg164 1.986 . S
Mg163 O162 1.926 . S
Mg163 O177 1.984 . S
Mg163 O180 1.988 . S
Mg163 O181 2.061 . S
Mg164 O162 1.986 . S
Mg164 O172 2.238 . S
Mg164 O176 2.042 . S
Mg164 O178 2.041 . S
Mg164 O185 2.038 . S
C165 O171 1.247 . S
C165 O172 1.289 . S
C166 O184 1.245 . S
C166 O185 1.274 . S
O167 C155 1.241 1_565 S
O167 Mg160 2.042 . S
O168 C155 1.280 . S
O168 Mg158 1.984 1_545 S
O169 C156 1.277 . S
O169 Mg160 2.041 1_655 S
O170 C156 1.245 . S
O170 Mg158 1.988 1_655 S
O171 Mg158 2.061 . S
O171 C165 1.247 . S
O172 Mg161 2.106 . S
O172 Mg164 2.238 . S
O172 C165 1.289 . S
C173 O174 1.245 . S
C173 O175 1.274 . S
O174 Mg161 2.079 . S
O174 C173 1.245 . S
O175 Mg160 2.038 . S
O175 C173 1.274 . S
O176 Mg164 2.042 . S
O176 C179 1.241 . S
O177 Mg163 1.984 . S
O177 C179 1.280 . S
O178 Mg164 2.041 . S
O178 C182 1.277 . S
C179 O176 1.241 . S
C179 O177 1.280 . S
O180 Mg163 1.988 . S
O180 C182 1.245 . S
O181 C157 1.247 . S
O181 Mg163 2.061 . S
C182 O178 1.277 . S
C182 O180 1.245 . S
O183 C157 1.289 . S
O183 Mg160 2.238 . S
O183 Mg161 2.106 . S
O184 Mg161 2.079 . S
O184 C166 1.245 . S
O185 Mg164 2.038 . S
O185 C166 1.274 . S
C186 O198 1.241 . S
C186 O199 1.280 . S
C187 O200 1.277 . S
C187 O201 1.245 . S
C188 O212 1.247 . S
C188 O214 1.289 . S
Mg189 O190 1.926 . S
Mg189 O199 1.984 . S
Mg189 O201 1.988 1_655 S
Mg189 O202 2.061 . S
O190 Mg189 1.926 . S
O190 Mg191 1.986 . S
O190 Mg192 1.917 . S
Mg191 O190 1.986 . S
Mg191 O198 2.042 . S
Mg191 O200 2.041 1_655 S
Mg191 O206 2.038 . S
Mg191 O214 2.238 . S
Mg192 O190 1.917 . S
Mg192 O193 1.917 . S
Mg192 O203 2.106 . S
Mg192 O205 2.079 . S
Mg192 O214 2.106 . S
Mg192 O215 2.079 . S
O193 Mg192 1.917 . S
O193 Mg194 1.926 . S
O193 Mg195 1.986 . S
Mg194 O193 1.926 . S
Mg194 O208 1.984 . S
Mg194 O211 1.988 . S
Mg194 O212 2.061 . S
Mg195 O193 1.986 . S
Mg195 O203 2.238 . S
Mg195 O207 2.042 . S
Mg195 O209 2.041 . S
Mg195 O216 2.038 . S
C196 O202 1.247 . S
C196 O203 1.289 . S
C197 O215 1.245 . S
C197 O216 1.274 . S
O198 C186 1.241 . S
O198 Mg191 2.042 . S
O199 C186 1.280 . S
O199 Mg189 1.984 . S
O200 C187 1.277 . S
O200 Mg191 2.041 1_455 S
O201 C187 1.245 . S
O201 Mg189 1.988 1_455 S
O202 Mg189 2.061 . S
O202 C196 1.247 . S
O203 Mg192 2.106 . S
O203 Mg195 2.238 . S
O203 C196 1.289 . S
C204 O205 1.245 . S
C204 O206 1.274 . S
O205 Mg192 2.079 . S
O205 C204 1.245 . S
O206 Mg191 2.038 . S
O206 C204 1.274 . S
O207 Mg195 2.042 . S
O207 C210 1.241 . S
O208 Mg194 1.984 . S
O208 C210 1.280 . S
O209 Mg195 2.041 . S
O209 C213 1.277 . S
C210 O207 1.241 . S
C210 O208 1.280 . S
O211 Mg194 1.988 . S
O211 C213 1.245 . S
O212 C188 1.247 . S
O212 Mg194 2.061 . S
C213 O209 1.277 . S
C213 O211 1.245 . S
O214 C188 1.289 . S
O214 Mg191 2.238 . S
O214 Mg192 2.106 . S
O215 Mg192 2.079 . S
O215 C197 1.245 . S
O216 Mg195 2.038 . S
O216 C197 1.274 . S
C217 O229 1.241 . S
C217 O230 1.280 . S
C218 O231 1.277 . S
C218 O232 1.245 . S
C219 O243 1.247 . S
C219 O245 1.289 . S
Mg220 O221 1.926 . S
Mg220 O230 1.984 . S
Mg220 O232 1.988 . S
Mg220 O233 2.061 . S
O221 Mg220 1.926 . S
O221 Mg222 1.986 . S
O221 Mg223 1.917 . S
Mg222 O221 1.986 . S
Mg222 O229 2.042 . S
Mg222 O231 2.041 . S
Mg222 O237 2.038 . S
Mg222 O245 2.238 . S
Mg223 O221 1.917 . S
Mg223 O224 1.917 . S
Mg223 O234 2.106 . S
Mg223 O236 2.079 . S
Mg223 O245 2.106 . S
Mg223 O246 2.079 . S
O224 Mg223 1.917 . S
O224 Mg225 1.926 . S
O224 Mg226 1.986 . S
Mg225 O224 1.926 . S
Mg225 O239 1.984 . S
Mg225 O242 1.988 . S
Mg225 O243 2.061 . S
Mg226 O224 1.986 . S
Mg226 O234 2.238 . S
Mg226 O238 2.042 . S
Mg226 O240 2.041 . S
Mg226 O247 2.038 . S
C227 O233 1.247 . S
C227 O234 1.289 . S
C228 O246 1.245 . S
C228 O247 1.274 . S
O229 C217 1.241 . S
O229 Mg222 2.042 . S
O230 C217 1.280 . S
O230 Mg220 1.984 . S
O231 C218 1.277 . S
O231 Mg222 2.041 . S
O232 C218 1.245 . S
O232 Mg220 1.988 . S
O233 Mg220 2.061 . S
O233 C227 1.247 . S
O234 Mg223 2.106 . S
O234 Mg226 2.238 . S
O234 C227 1.289 . S
C235 O236 1.245 . S
C235 O237 1.274 . S
O236 Mg223 2.079 . S
O236 C235 1.245 . S
O237 Mg222 2.038 . S
O237 C235 1.274 . S
O238 Mg226 2.042 . S
O238 C241 1.241 . S
O239 Mg225 1.984 . S
O239 C241 1.280 . S
O240 Mg226 2.041 . S
O240 C244 1.277 . S
C241 O238 1.241 . S
C241 O239 1.280 . S
O242 Mg225 1.988 . S
O242 C244 1.245 . S
O243 C219 1.247 . S
O243 Mg225 2.061 . S
C244 O240 1.277 . S
C244 O242 1.245 . S
O245 C219 1.289 . S
O245 Mg222 2.238 . S
O245 Mg223 2.106 . S
O246 Mg223 2.079 . S
O246 C228 1.245 . S
O247 Mg226 2.038 . S
O247 C228 1.274 . S
C248 O260 1.241 1_556 S
C248 O261 1.280 . S
C249 O262 1.277 . S
C249 O263 1.245 . S
C250 O274 1.247 . S
C250 O276 1.289 . S
Mg251 O252 1.926 . S
Mg251 O261 1.984 1_554 S
Mg251 O263 1.988 . S
Mg251 O264 2.061 . S
O252 Mg251 1.926 . S
O252 Mg253 1.986 . S
O252 Mg254 1.917 . S
Mg253 O252 1.986 . S
Mg253 O260 2.042 . S
Mg253 O262 2.041 . S
Mg253 O268 2.038 . S
Mg253 O276 2.238 . S
Mg254 O252 1.917 . S
Mg254 O255 1.917 . S
Mg254 O265 2.106 . S
Mg254 O267 2.079 . S
Mg254 O276 2.106 . S
Mg254 O277 2.079 . S
O255 Mg254 1.917 . S
O255 Mg256 1.926 . S
O255 Mg257 1.986 . S
Mg256 O255 1.926 . S
Mg256 O270 1.984 . S
Mg256 O273 1.988 . S
Mg256 O274 2.061 . S
Mg257 O255 1.986 . S
Mg257 O265 2.238 . S
Mg257 O269 2.042 . S
Mg257 O271 2.041 . S
Mg257 O278 2.038 . S
C258 O264 1.247 . S
C258 O265 1.289 . S
C259 O277 1.245 . S
C259 O278 1.274 . S
O260 C248 1.241 1_554 S
O260 Mg253 2.042 . S
O261 C248 1.280 . S
O261 Mg251 1.984 1_556 S
O262 C249 1.277 . S
O262 Mg253 2.041 . S
O263 C249 1.245 . S
O263 Mg251 1.988 . S
O264 Mg251 2.061 . S
O264 C258 1.247 . S
O265 Mg254 2.106 . S
O265 Mg257 2.238 . S
O265 C258 1.289 . S
C266 O267 1.245 . S
C266 O268 1.274 . S
O267 Mg254 2.079 . S
O267 C266 1.245 . S
O268 Mg253 2.038 . S
O268 C266 1.274 . S
O269 Mg257 2.042 . S
O269 C272 1.241 . S
O270 Mg256 1.984 . S
O270 C272 1.280 . S
O271 Mg257 2.041 . S
O271 C275 1.277 . S
C272 O269 1.241 . S
C272 O270 1.280 . S
O273 Mg256 1.988 . S
O273 C275 1.245 . S
O274 C250 1.247 . S
O274 Mg256 2.061 . S
C275 O271 1.277 . S
C275 O273 1.245 . S
O276 C250 1.289 . S
O276 Mg253 2.238 . S
O276 Mg254 2.106 . S
O277 Mg254 2.079 . S
O277 C259 1.245 . S
O278 Mg257 2.038 . S
O278 C259 1.274 . S
C279 O291 1.241 1_554 S
C279 O292 1.280 . S
C280 O293 1.277 . S
C280 O294 1.245 . S
C281 O305 1.247 . S
C281 O307 1.289 . S
Mg282 O283 1.926 . S
Mg282 O292 1.984 1_556 S
Mg282 O294 1.988 1_545 S
Mg282 O295 2.061 . S
O283 Mg282 1.926 . S
O283 Mg284 1.986 . S
O283 Mg285 1.917 . S
Mg284 O283 1.986 . S
Mg284 O291 2.042 . S
Mg284 O293 2.041 1_545 S
Mg284 O299 2.038 . S
Mg284 O307 2.238 . S
Mg285 O283 1.917 . S
Mg285 O286 1.917 . S
Mg285 O296 2.106 . S
Mg285 O298 2.079 . S
Mg285 O307 2.106 . S
Mg285 O308 2.079 . S
O286 Mg285 1.917 . S
O286 Mg287 1.926 . S
O286 Mg288 1.986 . S
Mg287 O286 1.926 . S
Mg287 O301 1.984 . S
Mg287 O304 1.988 . S
Mg287 O305 2.061 . S
Mg288 O286 1.986 . S
Mg288 O296 2.238 . S
Mg288 O300 2.042 . S
Mg288 O302 2.041 . S
Mg288 O309 2.038 . S
C289 O295 1.247 . S
C289 O296 1.289 . S
C290 O308 1.245 . S
C290 O309 1.274 . S
O291 C279 1.241 1_556 S
O291 Mg284 2.042 . S
O292 C279 1.280 . S
O292 Mg282 1.984 1_554 S
O293 C280 1.277 . S
O293 Mg284 2.041 1_565 S
O294 C280 1.245 . S
O294 Mg282 1.988 1_565 S
O295 Mg282 2.061 . S
O295 C289 1.247 . S
O296 Mg285 2.106 . S
O296 Mg288 2.238 . S
O296 C289 1.289 . S
C297 O298 1.245 . S
C297 O299 1.274 . S
O298 Mg285 2.079 . S
O298 C297 1.245 . S
O299 Mg284 2.038 . S
O299 C297 1.274 . S
O300 Mg288 2.042 . S
O300 C303 1.241 . S
O301 Mg287 1.984 . S
O301 C303 1.280 . S
O302 Mg288 2.041 . S
O302 C306 1.277 . S
C303 O300 1.241 . S
C303 O301 1.280 . S
O304 Mg287 1.988 . S
O304 C306 1.245 . S
O305 C281 1.247 . S
O305 Mg287 2.061 . S
C306 O302 1.277 . S
C306 O304 1.245 . S
O307 C281 1.289 . S
O307 Mg284 2.238 . S
O307 Mg285 2.106 . S
O308 Mg285 2.079 . S
O308 C290 1.245 . S
O309 Mg288 2.038 . S
O309 C290 1.274 . S
C310 O322 1.241 . S
C310 O323 1.280 . S
C311 O324 1.277 . S
C311 O325 1.245 . S
C312 O336 1.247 . S
C312 O338 1.289 . S
Mg313 O314 1.926 . S
Mg313 O323 1.984 . S
Mg313 O325 1.988 1_565 S
Mg313 O326 2.061 . S
O314 Mg313 1.926 . S
O314 Mg315 1.986 . S
O314 Mg316 1.917 . S
Mg315 O314 1.986 . S
Mg315 O322 2.042 . S
Mg315 O324 2.041 1_565 S
Mg315 O330 2.038 . S
Mg315 O338 2.238 . S
Mg316 O314 1.917 . S
Mg316 O317 1.917 . S
Mg316 O327 2.106 . S
Mg316 O329 2.079 . S
Mg316 O338 2.106 . S
Mg316 O339 2.079 . S
O317 Mg316 1.917 . S
O317 Mg318 1.926 . S
O317 Mg319 1.986 . S
Mg318 O317 1.926 . S
Mg318 O332 1.984 . S
Mg318 O335 1.988 . S
Mg318 O336 2.061 . S
Mg319 O317 1.986 . S
Mg319 O327 2.238 . S
Mg319 O331 2.042 . S
Mg319 O333 2.041 . S
Mg319 O340 2.038 . S
C320 O326 1.247 . S
C320 O327 1.289 . S
C321 O339 1.245 . S
C321 O340 1.274 . S
O322 C310 1.241 . S
O322 Mg315 2.042 . S
O323 C310 1.280 . S
O323 Mg313 1.984 . S
O324 C311 1.277 . S
O324 Mg315 2.041 1_545 S
O325 C311 1.245 . S
O325 Mg313 1.988 1_545 S
O326 Mg313 2.061 . S
O326 C320 1.247 . S
O327 Mg316 2.106 . S
O327 Mg319 2.238 . S
O327 C320 1.289 . S
C328 O329 1.245 . S
C328 O330 1.274 . S
O329 Mg316 2.079 . S
O329 C328 1.245 . S
O330 Mg315 2.038 . S
O330 C328 1.274 . S
O331 Mg319 2.042 . S
O331 C334 1.241 . S
O332 Mg318 1.984 . S
O332 C334 1.280 . S
O333 Mg319 2.041 . S
O333 C337 1.277 . S
C334 O331 1.241 . S
C334 O332 1.280 . S
O335 Mg318 1.988 . S
O335 C337 1.245 . S
O336 C312 1.247 . S
O336 Mg318 2.061 . S
C337 O333 1.277 . S
C337 O335 1.245 . S
O338 C312 1.289 . S
O338 Mg315 2.238 . S
O338 Mg316 2.106 . S
O339 Mg316 2.079 . S
O339 C321 1.245 . S
O340 Mg319 2.038 . S
O340 C321 1.274 . S
C341 O353 1.241 . S
C341 O354 1.280 . S
C342 O355 1.277 . S
C342 O356 1.245 . S
C343 O367 1.247 . S
C343 O369 1.289 . S
Mg344 O345 1.926 . S
Mg344 O354 1.984 . S
Mg344 O356 1.988 . S
Mg344 O357 2.061 . S
O345 Mg344 1.926 . S
O345 Mg346 1.986 . S
O345 Mg347 1.917 . S
Mg346 O345 1.986 . S
Mg346 O353 2.042 . S
Mg346 O355 2.041 . S
Mg346 O361 2.038 . S
Mg346 O369 2.238 . S
Mg347 O345 1.917 . S
Mg347 O348 1.917 . S
Mg347 O358 2.106 . S
Mg347 O360 2.079 . S
Mg347 O369 2.106 . S
Mg347 O370 2.079 . S
O348 Mg347 1.917 . S
O348 Mg349 1.926 . S
O348 Mg350 1.986 . S
Mg349 O348 1.926 . S
Mg349 O363 1.984 . S
Mg349 O366 1.988 . S
Mg349 O367 2.061 . S
Mg350 O348 1.986 . S
Mg350 O358 2.238 . S
Mg350 O362 2.042 . S
Mg350 O364 2.041 . S
Mg350 O371 2.038 . S
C351 O357 1.247 . S
C351 O358 1.289 . S
C352 O370 1.245 . S
C352 O371 1.274 . S
O353 C341 1.241 . S
O353 Mg346 2.042 . S
O354 C341 1.280 . S
O354 Mg344 1.984 . S
O355 C342 1.277 . S
O355 Mg346 2.041 . S
O356 C342 1.245 . S
O356 Mg344 1.988 . S
O357 Mg344 2.061 . S
O357 C351 1.247 . S
O358 Mg347 2.106 . S
O358 Mg350 2.238 . S
O358 C351 1.289 . S
C359 O360 1.245 . S
C359 O361 1.274 . S
O360 Mg347 2.079 . S
O360 C359 1.245 . S
O361 Mg346 2.038 . S
O361 C359 1.274 . S
O362 Mg350 2.042 . S
O362 C365 1.241 . S
O363 Mg349 1.984 . S
O363 C365 1.280 . S
O364 Mg350 2.041 . S
O364 C368 1.277 . S
C365 O362 1.241 . S
C365 O363 1.280 . S
O366 Mg349 1.988 . S
O366 C368 1.245 . S
O367 C343 1.247 . S
O367 Mg349 2.061 . S
C368 O364 1.277 . S
C368 O366 1.245 . S
O369 C343 1.289 . S
O369 Mg346 2.238 . S
O369 Mg347 2.106 . S
O370 Mg347 2.079 . S
O370 C352 1.245 . S
O371 Mg350 2.038 . S
O371 C352 1.274 . S
C372 O384 1.241 . S
C372 O385 1.280 . S
C373 O386 1.277 . S
C373 O387 1.245 . S
C374 O398 1.247 . S
C374 O400 1.289 . S
Mg375 O376 1.926 . S
Mg375 O385 1.984 . S
Mg375 O387 1.988 . S
Mg375 O388 2.061 . S
O376 Mg375 1.926 . S
O376 Mg377 1.986 . S
O376 Mg378 1.917 . S
Mg377 O376 1.986 . S
Mg377 O384 2.042 . S
Mg377 O386 2.041 . S
Mg377 O392 2.038 . S
Mg377 O400 2.238 . S
Mg378 O376 1.917 . S
Mg378 O379 1.917 . S
Mg378 O389 2.106 . S
Mg378 O391 2.079 . S
Mg378 O400 2.106 . S
Mg378 O401 2.079 . S
O379 Mg378 1.917 . S
O379 Mg380 1.926 . S
O379 Mg381 1.986 . S
Mg380 O379 1.926 . S
Mg380 O394 1.984 1_655 S
Mg380 O397 1.988 . S
Mg380 O398 2.061 . S
Mg381 O379 1.986 . S
Mg381 O389 2.238 . S
Mg381 O393 2.042 . S
Mg381 O395 2.041 . S
Mg381 O402 2.038 . S
C382 O388 1.247 . S
C382 O389 1.289 . S
C383 O401 1.245 . S
C383 O402 1.274 . S
O384 C372 1.241 . S
O384 Mg377 2.042 . S
O385 C372 1.280 . S
O385 Mg375 1.984 . S
O386 C373 1.277 . S
O386 Mg377 2.041 . S
O387 C373 1.245 . S
O387 Mg375 1.988 . S
O388 Mg375 2.061 . S
O388 C382 1.247 . S
O389 Mg378 2.106 . S
O389 Mg381 2.238 . S
O389 C382 1.289 . S
C390 O391 1.245 . S
C390 O392 1.274 . S
O391 Mg378 2.079 . S
O391 C390 1.245 . S
O392 Mg377 2.038 . S
O392 C390 1.274 . S
O393 Mg381 2.042 . S
O393 C396 1.241 1_655 S
O394 Mg380 1.984 1_455 S
O394 C396 1.280 . S
O395 Mg381 2.041 . S
O395 C399 1.277 . S
C396 O393 1.241 1_455 S
C396 O394 1.280 . S
O397 Mg380 1.988 . S
O397 C399 1.245 . S
O398 C374 1.247 . S
O398 Mg380 2.061 . S
C399 O395 1.277 . S
C399 O397 1.245 . S
O400 C374 1.289 . S
O400 Mg377 2.238 . S
O400 Mg378 2.106 . S
O401 Mg378 2.079 . S
O401 C383 1.245 . S
O402 Mg381 2.038 . S
O402 C383 1.274 . S
C403 O415 1.241 . S
C403 O416 1.280 . S
C404 O417 1.277 . S
C404 O418 1.245 . S
C405 O429 1.247 . S
C405 O431 1.289 . S
Mg406 O407 1.926 . S
Mg406 O416 1.984 . S
Mg406 O418 1.988 . S
Mg406 O419 2.061 . S
O407 Mg406 1.926 . S
O407 Mg408 1.986 . S
O407 Mg409 1.917 . S
Mg408 O407 1.986 . S
Mg408 O415 2.042 . S
Mg408 O417 2.041 . S
Mg408 O423 2.038 . S
Mg408 O431 2.238 . S
Mg409 O407 1.917 . S
Mg409 O410 1.917 . S
Mg409 O420 2.106 . S
Mg409 O422 2.079 . S
Mg409 O431 2.106 . S
Mg409 O432 2.079 . S
O410 Mg409 1.917 . S
O410 Mg411 1.926 . S
O410 Mg412 1.986 . S
Mg411 O410 1.926 . S
Mg411 O425 1.984 . S
Mg411 O428 1.988 1_554 S
Mg411 O429 2.061 . S
Mg412 O410 1.986 . S
Mg412 O420 2.238 . S
Mg412 O424 2.042 . S
Mg412 O426 2.041 1_554 S
Mg412 O433 2.038 . S
C413 O419 1.247 . S
C413 O420 1.289 . S
C414 O432 1.245 . S
C414 O433 1.274 . S
O415 C403 1.241 . S
O415 Mg408 2.042 . S
O416 C403 1.280 . S
O416 Mg406 1.984 . S
O417 C404 1.277 . S
O417 Mg408 2.041 . S
O418 C404 1.245 . S
O418 Mg406 1.988 . S
O419 Mg406 2.061 . S
O419 C413 1.247 . S
O420 Mg409 2.106 . S
O420 Mg412 2.238 . S
O420 C413 1.289 . S
C421 O422 1.245 . S
C421 O423 1.274 . S
O422 Mg409 2.079 . S
O422 C421 1.245 . S
O423 Mg408 2.038 . S
O423 C421 1.274 . S
O424 Mg412 2.042 . S
O424 C427 1.241 . S
O425 Mg411 1.984 . S
O425 C427 1.280 . S
O426 Mg412 2.041 1_556 S
O426 C430 1.277 . S
C427 O424 1.241 . S
C427 O425 1.280 . S
O428 Mg411 1.988 1_556 S
O428 C430 1.245 . S
O429 C405 1.247 . S
O429 Mg411 2.061 . S
C430 O426 1.277 . S
C430 O428 1.245 . S
O431 C405 1.289 . S
O431 Mg408 2.238 . S
O431 Mg409 2.106 . S
O432 Mg409 2.079 . S
O432 C414 1.245 . S
O433 Mg412 2.038 . S
O433 C414 1.274 . S
C434 O446 1.241 . S
C434 O447 1.280 . S
C435 O448 1.277 . S
C435 O449 1.245 . S
C436 O460 1.247 . S
C436 O462 1.289 . S
Mg437 O438 1.926 . S
Mg437 O447 1.984 . S
Mg437 O449 1.988 . S
Mg437 O450 2.061 . S
O438 Mg437 1.926 . S
O438 Mg439 1.986 . S
O438 Mg440 1.917 . S
Mg439 O438 1.986 . S
Mg439 O446 2.042 . S
Mg439 O448 2.041 . S
Mg439 O454 2.038 . S
Mg439 O462 2.238 . S
Mg440 O438 1.917 . S
Mg440 O441 1.917 . S
Mg440 O451 2.106 . S
Mg440 O453 2.079 . S
Mg440 O462 2.106 . S
Mg440 O463 2.079 . S
O441 Mg440 1.917 . S
O441 Mg442 1.926 . S
O441 Mg443 1.986 . S
Mg442 O441 1.926 . S
Mg442 O456 1.984 . S
Mg442 O459 1.988 . S
Mg442 O460 2.061 . S
Mg443 O441 1.986 . S
Mg443 O451 2.238 . S
Mg443 O455 2.042 . S
Mg443 O457 2.041 . S
Mg443 O464 2.038 . S
C444 O450 1.247 . S
C444 O451 1.289 . S
C445 O463 1.245 . S
C445 O464 1.274 . S
O446 C434 1.241 . S
O446 Mg439 2.042 . S
O447 C434 1.280 . S
O447 Mg437 1.984 . S
O448 C435 1.277 . S
O448 Mg439 2.041 . S
O449 C435 1.245 . S
O449 Mg437 1.988 . S
O450 Mg437 2.061 . S
O450 C444 1.247 . S
O451 Mg440 2.106 . S
O451 Mg443 2.238 . S
O451 C444 1.289 . S
C452 O453 1.245 . S
C452 O454 1.274 . S
O453 Mg440 2.079 . S
O453 C452 1.245 . S
O454 Mg439 2.038 . S
O454 C452 1.274 . S
O455 Mg443 2.042 . S
O455 C458 1.241 . S
O456 Mg442 1.984 . S
O456 C458 1.280 . S
O457 Mg443 2.041 . S
O457 C461 1.277 . S
C458 O455 1.241 . S
C458 O456 1.280 . S
O459 Mg442 1.988 . S
O459 C461 1.245 . S
O460 C436 1.247 . S
O460 Mg442 2.061 . S
C461 O457 1.277 . S
C461 O459 1.245 . S
O462 C436 1.289 . S
O462 Mg439 2.238 . S
O462 Mg440 2.106 . S
O463 Mg440 2.079 . S
O463 C445 1.245 . S
O464 Mg443 2.038 . S
O464 C445 1.274 . S
C465 O477 1.241 . S
C465 O478 1.280 . S
C466 O479 1.277 . S
C466 O480 1.245 . S
C467 O491 1.247 . S
C467 O493 1.289 . S
Mg468 O469 1.926 . S
Mg468 O478 1.984 . S
Mg468 O480 1.988 . S
Mg468 O481 2.061 . S
O469 Mg468 1.926 . S
O469 Mg470 1.986 . S
O469 Mg471 1.917 . S
Mg470 O469 1.986 . S
Mg470 O477 2.042 . S
Mg470 O479 2.041 . S
Mg470 O485 2.038 . S
Mg470 O493 2.238 . S
Mg471 O469 1.917 . S
Mg471 O472 1.917 . S
Mg471 O482 2.106 . S
Mg471 O484 2.079 . S
Mg471 O493 2.106 . S
Mg471 O494 2.079 . S
O472 Mg471 1.917 . S
O472 Mg473 1.926 . S
O472 Mg474 1.986 . S
Mg473 O472 1.926 . S
Mg473 O487 1.984 1_455 S
Mg473 O490 1.988 1_556 S
Mg473 O491 2.061 . S
Mg474 O472 1.986 . S
Mg474 O482 2.238 . S
Mg474 O486 2.042 . S
Mg474 O488 2.041 1_556 S
Mg474 O495 2.038 . S
C475 O481 1.247 . S
C475 O482 1.289 . S
C476 O494 1.245 . S
C476 O495 1.274 . S
O477 C465 1.241 . S
O477 Mg470 2.042 . S
O478 C465 1.280 . S
O478 Mg468 1.984 . S
O479 C466 1.277 . S
O479 Mg470 2.041 . S
O480 C466 1.245 . S
O480 Mg468 1.988 . S
O481 Mg468 2.061 . S
O481 C475 1.247 . S
O482 Mg471 2.106 . S
O482 Mg474 2.238 . S
O482 C475 1.289 . S
C483 O484 1.245 . S
C483 O485 1.274 . S
O484 Mg471 2.079 . S
O484 C483 1.245 . S
O485 Mg470 2.038 . S
O485 C483 1.274 . S
O486 Mg474 2.042 . S
O486 C489 1.241 1_455 S
O487 Mg473 1.984 1_655 S
O487 C489 1.280 . S
O488 Mg474 2.041 1_554 S
O488 C492 1.277 . S
C489 O486 1.241 1_655 S
C489 O487 1.280 . S
O490 Mg473 1.988 1_554 S
O490 C492 1.245 . S
O491 C467 1.247 . S
O491 Mg473 2.061 . S
C492 O488 1.277 . S
C492 O490 1.245 . S
O493 C467 1.289 . S
O493 Mg470 2.238 . S
O493 Mg471 2.106 . S
O494 Mg471 2.079 . S
O494 C476 1.245 . S
O495 Mg474 2.038 . S
O495 C476 1.274 . S
C496 O508 1.241 . S
C496 O509 1.280 . S
C497 O510 1.277 . S
C497 O511 1.245 . S
C498 O522 1.247 . S
C498 O524 1.289 . S
Mg499 O500 1.926 . S
Mg499 O509 1.984 . S
Mg499 O511 1.988 . S
Mg499 O512 2.061 . S
O500 Mg499 1.926 . S
O500 Mg501 1.986 . S
O500 Mg502 1.917 . S
Mg501 O500 1.986 . S
Mg501 O508 2.042 . S
Mg501 O510 2.041 . S
Mg501 O516 2.038 . S
Mg501 O524 2.238 . S
Mg502 O500 1.917 . S
Mg502 O503 1.917 . S
Mg502 O513 2.106 . S
Mg502 O515 2.079 . S
Mg502 O524 2.106 . S
Mg502 O525 2.079 . S
O503 Mg502 1.917 . S
O503 Mg504 1.926 . S
O503 Mg505 1.986 . S
Mg504 O503 1.926 . S
Mg504 O518 1.984 1_565 S
Mg504 O521 1.988 . S
Mg504 O522 2.061 . S
Mg505 O503 1.986 . S
Mg505 O513 2.238 . S
Mg505 O517 2.042 . S
Mg505 O519 2.041 . S
Mg505 O526 2.038 . S
C506 O512 1.247 . S
C506 O513 1.289 . S
C507 O525 1.245 . S
C507 O526 1.274 . S
O508 C496 1.241 . S
O508 Mg501 2.042 . S
O509 C496 1.280 . S
O509 Mg499 1.984 . S
O510 C497 1.277 . S
O510 Mg501 2.041 . S
O511 C497 1.245 . S
O511 Mg499 1.988 . S
O512 Mg499 2.061 . S
O512 C506 1.247 . S
O513 Mg502 2.106 . S
O513 Mg505 2.238 . S
O513 C506 1.289 . S
C514 O515 1.245 . S
C514 O516 1.274 . S
O515 Mg502 2.079 . S
O515 C514 1.245 . S
O516 Mg501 2.038 . S
O516 C514 1.274 . S
O517 Mg505 2.042 . S
O517 C520 1.241 1_565 S
O518 Mg504 1.984 1_545 S
O518 C520 1.280 . S
O519 Mg505 2.041 . S
O519 C523 1.277 . S
C520 O517 1.241 1_545 S
C520 O518 1.280 . S
O521 Mg504 1.988 . S
O521 C523 1.245 . S
O522 C498 1.247 . S
O522 Mg504 2.061 . S
C523 O519 1.277 . S
C523 O521 1.245 . S
O524 C498 1.289 . S
O524 Mg501 2.238 . S
O524 Mg502 2.106 . S
O525 Mg502 2.079 . S
O525 C507 1.245 . S
O526 Mg505 2.038 . S
O526 C507 1.274 . S
C527 O539 1.241 . S
C527 O540 1.280 . S
C528 O541 1.277 . S
C528 O542 1.245 . S
C529 O553 1.247 . S
C529 O555 1.289 . S
Mg530 O531 1.926 . S
Mg530 O540 1.984 . S
Mg530 O542 1.988 . S
Mg530 O543 2.061 . S
O531 Mg530 1.926 . S
O531 Mg532 1.986 . S
O531 Mg533 1.917 . S
Mg532 O531 1.986 . S
Mg532 O539 2.042 . S
Mg532 O541 2.041 . S
Mg532 O547 2.038 . S
Mg532 O555 2.238 . S
Mg533 O531 1.917 . S
Mg533 O534 1.917 . S
Mg533 O544 2.106 . S
Mg533 O546 2.079 . S
Mg533 O555 2.106 . S
Mg533 O556 2.079 . S
O534 Mg533 1.917 . S
O534 Mg535 1.926 . S
O534 Mg536 1.986 . S
Mg535 O534 1.926 . S
Mg535 O549 1.984 1_545 S
Mg535 O552 1.988 1_655 S
Mg535 O553 2.061 . S
Mg536 O534 1.986 . S
Mg536 O544 2.238 . S
Mg536 O548 2.042 . S
Mg536 O550 2.041 1_655 S
Mg536 O557 2.038 . S
C537 O543 1.247 . S
C537 O544 1.289 . S
C538 O556 1.245 . S
C538 O557 1.274 . S
O539 C527 1.241 . S
O539 Mg532 2.042 . S
O540 C527 1.280 . S
O540 Mg530 1.984 . S
O541 C528 1.277 . S
O541 Mg532 2.041 . S
O542 C528 1.245 . S
O542 Mg530 1.988 . S
O543 Mg530 2.061 . S
O543 C537 1.247 . S
O544 Mg533 2.106 . S
O544 Mg536 2.238 . S
O544 C537 1.289 . S
C545 O546 1.245 . S
C545 O547 1.274 . S
O546 Mg533 2.079 . S
O546 C545 1.245 . S
O547 Mg532 2.038 . S
O547 C545 1.274 . S
O548 Mg536 2.042 . S
O548 C551 1.241 1_545 S
O549 Mg535 1.984 1_565 S
O549 C551 1.280 . S
O550 Mg536 2.041 1_455 S
O550 C554 1.277 . S
C551 O548 1.241 1_565 S
C551 O549 1.280 . S
O552 Mg535 1.988 1_455 S
O552 C554 1.245 . S
O553 C529 1.247 . S
O553 Mg535 2.061 . S
C554 O550 1.277 . S
C554 O552 1.245 . S
O555 C529 1.289 . S
O555 Mg532 2.238 . S
O555 Mg533 2.106 . S
O556 Mg533 2.079 . S
O556 C538 1.245 . S
O557 Mg536 2.038 . S
O557 C538 1.274 . S
C558 O570 1.241 . S
C558 O571 1.280 . S
C559 O572 1.277 . S
C559 O573 1.245 . S
C560 O584 1.247 . S
C560 O586 1.289 . S
Mg561 O562 1.926 . S
Mg561 O571 1.984 . S
Mg561 O573 1.988 . S
Mg561 O574 2.061 . S
O562 Mg561 1.926 . S
O562 Mg563 1.986 . S
O562 Mg564 1.917 . S
Mg563 O562 1.986 . S
Mg563 O570 2.042 . S
Mg563 O572 2.041 . S
Mg563 O578 2.038 . S
Mg563 O586 2.238 . S
Mg564 O562 1.917 . S
Mg564 O565 1.917 . S
Mg564 O575 2.106 . S
Mg564 O577 2.079 . S
Mg564 O586 2.106 . S
Mg564 O587 2.079 . S
O565 Mg564 1.917 . S
O565 Mg566 1.926 . S
O565 Mg567 1.986 . S
Mg566 O565 1.926 . S
Mg566 O580 1.984 . S
Mg566 O583 1.988 1_455 S
Mg566 O584 2.061 . S
Mg567 O565 1.986 . S
Mg567 O575 2.238 . S
Mg567 O579 2.042 . S
Mg567 O581 2.041 1_455 S
Mg567 O588 2.038 . S
C568 O574 1.247 . S
C568 O575 1.289 . S
C569 O587 1.245 . S
C569 O588 1.274 . S
O570 C558 1.241 . S
O570 Mg563 2.042 . S
O571 C558 1.280 . S
O571 Mg561 1.984 . S
O572 C559 1.277 . S
O572 Mg563 2.041 . S
O573 C559 1.245 . S
O573 Mg561 1.988 . S
O574 Mg561 2.061 . S
O574 C568 1.247 . S
O575 Mg564 2.106 . S
O575 Mg567 2.238 . S
O575 C568 1.289 . S
C576 O577 1.245 . S
C576 O578 1.274 . S
O577 Mg564 2.079 . S
O577 C576 1.245 . S
O578 Mg563 2.038 . S
O578 C576 1.274 . S
O579 Mg567 2.042 . S
O579 C582 1.241 . S
O580 Mg566 1.984 . S
O580 C582 1.280 . S
O581 Mg567 2.041 1_655 S
O581 C585 1.277 . S
C582 O579 1.241 . S
C582 O580 1.280 . S
O583 Mg566 1.988 1_655 S
O583 C585 1.245 . S
O584 C560 1.247 . S
O584 Mg566 2.061 . S
C585 O581 1.277 . S
C585 O583 1.245 . S
O586 C560 1.289 . S
O586 Mg563 2.238 . S
O586 Mg564 2.106 . S
O587 Mg564 2.079 . S
O587 C569 1.245 . S
O588 Mg567 2.038 . S
O588 C569 1.274 . S
C589 O601 1.241 . S
C589 O602 1.280 . S
C590 O603 1.277 . S
C590 O604 1.245 . S
C591 O615 1.247 . S
C591 O617 1.289 . S
Mg592 O593 1.926 . S
Mg592 O602 1.984 . S
Mg592 O604 1.988 . S
Mg592 O605 2.061 . S
O593 Mg592 1.926 . S
O593 Mg594 1.986 . S
O593 Mg595 1.917 . S
Mg594 O593 1.986 . S
Mg594 O601 2.042 . S
Mg594 O603 2.041 . S
Mg594 O609 2.038 . S
Mg594 O617 2.238 . S
Mg595 O593 1.917 . S
Mg595 O596 1.917 . S
Mg595 O606 2.106 . S
Mg595 O608 2.079 . S
Mg595 O617 2.106 . S
Mg595 O618 2.079 . S
O596 Mg595 1.917 . S
O596 Mg597 1.926 . S
O596 Mg598 1.986 . S
Mg597 O596 1.926 . S
Mg597 O611 1.984 . S
Mg597 O614 1.988 . S
Mg597 O615 2.061 . S
Mg598 O596 1.986 . S
Mg598 O606 2.238 . S
Mg598 O610 2.042 . S
Mg598 O612 2.041 . S
Mg598 O619 2.038 . S
C599 O605 1.247 . S
C599 O606 1.289 . S
C600 O618 1.245 . S
C600 O619 1.274 . S
O601 C589 1.241 . S
O601 Mg594 2.042 . S
O602 C589 1.280 . S
O602 Mg592 1.984 . S
O603 C590 1.277 . S
O603 Mg594 2.041 . S
O604 C590 1.245 . S
O604 Mg592 1.988 . S
O605 Mg592 2.061 . S
O605 C599 1.247 . S
O606 Mg595 2.106 . S
O606 Mg598 2.238 . S
O606 C599 1.289 . S
C607 O608 1.245 . S
C607 O609 1.274 . S
O608 Mg595 2.079 . S
O608 C607 1.245 . S
O609 Mg594 2.038 . S
O609 C607 1.274 . S
O610 Mg598 2.042 . S
O610 C613 1.241 . S
O611 Mg597 1.984 . S
O611 C613 1.280 . S
O612 Mg598 2.041 . S
O612 C616 1.277 . S
C613 O610 1.241 . S
C613 O611 1.280 . S
O614 Mg597 1.988 . S
O614 C616 1.245 . S
O615 C591 1.247 . S
O615 Mg597 2.061 . S
C616 O612 1.277 . S
C616 O614 1.245 . S
O617 C591 1.289 . S
O617 Mg594 2.238 . S
O617 Mg595 2.106 . S
O618 Mg595 2.079 . S
O618 C600 1.245 . S
O619 Mg598 2.038 . S
O619 C600 1.274 . S
C620 O632 1.241 . S
C620 O633 1.280 . S
C621 O634 1.277 . S
C621 O635 1.245 . S
C622 O646 1.247 . S
C622 O648 1.289 . S
Mg623 O624 1.926 . S
Mg623 O633 1.984 . S
Mg623 O635 1.988 . S
Mg623 O636 2.061 . S
O624 Mg623 1.926 . S
O624 Mg625 1.986 . S
O624 Mg626 1.917 . S
Mg625 O624 1.986 . S
Mg625 O632 2.042 . S
Mg625 O634 2.041 . S
Mg625 O640 2.038 . S
Mg625 O648 2.238 . S
Mg626 O624 1.917 . S
Mg626 O627 1.917 . S
Mg626 O637 2.106 . S
Mg626 O639 2.079 . S
Mg626 O648 2.106 . S
Mg626 O649 2.079 . S
O627 Mg626 1.917 . S
O627 Mg628 1.926 . S
O627 Mg629 1.986 . S
Mg628 O627 1.926 . S
Mg628 O642 1.984 1_556 S
Mg628 O645 1.988 . S
Mg628 O646 2.061 . S
Mg629 O627 1.986 . S
Mg629 O637 2.238 . S
Mg629 O641 2.042 . S
Mg629 O643 2.041 . S
Mg629 O650 2.038 . S
C630 O636 1.247 . S
C630 O637 1.289 . S
C631 O649 1.245 . S
C631 O650 1.274 . S
O632 C620 1.241 . S
O632 Mg625 2.042 . S
O633 C620 1.280 . S
O633 Mg623 1.984 . S
O634 C621 1.277 . S
O634 Mg625 2.041 . S
O635 C621 1.245 . S
O635 Mg623 1.988 . S
O636 Mg623 2.061 . S
O636 C630 1.247 . S
O637 Mg626 2.106 . S
O637 Mg629 2.238 . S
O637 C630 1.289 . S
C638 O639 1.245 . S
C638 O640 1.274 . S
O639 Mg626 2.079 . S
O639 C638 1.245 . S
O640 Mg625 2.038 . S
O640 C638 1.274 . S
O641 Mg629 2.042 . S
O641 C644 1.241 1_556 S
O642 Mg628 1.984 1_554 S
O642 C644 1.280 . S
O643 Mg629 2.041 . S
O643 C647 1.277 . S
C644 O641 1.241 1_554 S
C644 O642 1.280 . S
O645 Mg628 1.988 . S
O645 C647 1.245 . S
O646 C622 1.247 . S
O646 Mg628 2.061 . S
C647 O643 1.277 . S
C647 O645 1.245 . S
O648 C622 1.289 . S
O648 Mg625 2.238 . S
O648 Mg626 2.106 . S
O649 Mg626 2.079 . S
O649 C631 1.245 . S
O650 Mg629 2.038 . S
O650 C631 1.274 . S
C651 O663 1.241 . S
C651 O664 1.280 . S
C652 O665 1.277 . S
C652 O666 1.245 . S
C653 O677 1.247 . S
C653 O679 1.289 . S
Mg654 O655 1.926 . S
Mg654 O664 1.984 . S
Mg654 O666 1.988 . S
Mg654 O667 2.061 . S
O655 Mg654 1.926 . S
O655 Mg656 1.986 . S
O655 Mg657 1.917 . S
Mg656 O655 1.986 . S
Mg656 O663 2.042 . S
Mg656 O665 2.041 . S
Mg656 O671 2.038 . S
Mg656 O679 2.238 . S
Mg657 O655 1.917 . S
Mg657 O658 1.917 . S
Mg657 O668 2.106 . S
Mg657 O670 2.079 . S
Mg657 O679 2.106 . S
Mg657 O680 2.079 . S
O658 Mg657 1.917 . S
O658 Mg659 1.926 . S
O658 Mg660 1.986 . S
Mg659 O658 1.926 . S
Mg659 O673 1.984 1_554 S
Mg659 O676 1.988 1_565 S
Mg659 O677 2.061 . S
Mg660 O658 1.986 . S
Mg660 O668 2.238 . S
Mg660 O672 2.042 . S
Mg660 O674 2.041 1_565 S
Mg660 O681 2.038 . S
C661 O667 1.247 . S
C661 O668 1.289 . S
C662 O680 1.245 . S
C662 O681 1.274 . S
O663 C651 1.241 . S
O663 Mg656 2.042 . S
O664 C651 1.280 . S
O664 Mg654 1.984 . S
O665 C652 1.277 . S
O665 Mg656 2.041 . S
O666 C652 1.245 . S
O666 Mg654 1.988 . S
O667 Mg654 2.061 . S
O667 C661 1.247 . S
O668 Mg657 2.106 . S
O668 Mg660 2.238 . S
O668 C661 1.289 . S
C669 O670 1.245 . S
C669 O671 1.274 . S
O670 Mg657 2.079 . S
O670 C669 1.245 . S
O671 Mg656 2.038 . S
O671 C669 1.274 . S
O672 Mg660 2.042 . S
O672 C675 1.241 1_554 S
O673 Mg659 1.984 1_556 S
O673 C675 1.280 . S
O674 Mg660 2.041 1_545 S
O674 C678 1.277 . S
C675 O672 1.241 1_556 S
C675 O673 1.280 . S
O676 Mg659 1.988 1_545 S
O676 C678 1.245 . S
O677 C653 1.247 . S
O677 Mg659 2.061 . S
C678 O674 1.277 . S
C678 O676 1.245 . S
O679 C653 1.289 . S
O679 Mg656 2.238 . S
O679 Mg657 2.106 . S
O680 Mg657 2.079 . S
O680 C662 1.245 . S
O681 Mg660 2.038 . S
O681 C662 1.274 . S
C682 O694 1.241 . S
C682 O695 1.280 . S
C683 O696 1.277 . S
C683 O697 1.245 . S
C684 O708 1.247 . S
C684 O710 1.289 . S
Mg685 O686 1.926 . S
Mg685 O695 1.984 . S
Mg685 O697 1.988 . S
Mg685 O698 2.061 . S
O686 Mg685 1.926 . S
O686 Mg687 1.986 . S
O686 Mg688 1.917 . S
Mg687 O686 1.986 . S
Mg687 O694 2.042 . S
Mg687 O696 2.041 . S
Mg687 O702 2.038 . S
Mg687 O710 2.238 . S
Mg688 O686 1.917 . S
Mg688 O689 1.917 . S
Mg688 O699 2.106 . S
Mg688 O701 2.079 . S
Mg688 O710 2.106 . S
Mg688 O711 2.079 . S
O689 Mg688 1.917 . S
O689 Mg690 1.926 . S
O689 Mg691 1.986 . S
Mg690 O689 1.926 . S
Mg690 O704 1.984 . S
Mg690 O707 1.988 1_545 S
Mg690 O708 2.061 . S
Mg691 O689 1.986 . S
Mg691 O699 2.238 . S
Mg691 O703 2.042 . S
Mg691 O705 2.041 1_545 S
Mg691 O712 2.038 . S
C692 O698 1.247 . S
C692 O699 1.289 . S
C693 O711 1.245 . S
C693 O712 1.274 . S
O694 C682 1.241 . S
O694 Mg687 2.042 . S
O695 C682 1.280 . S
O695 Mg685 1.984 . S
O696 C683 1.277 . S
O696 Mg687 2.041 . S
O697 C683 1.245 . S
O697 Mg685 1.988 . S
O698 Mg685 2.061 . S
O698 C692 1.247 . S
O699 Mg688 2.106 . S
O699 Mg691 2.238 . S
O699 C692 1.289 . S
C700 O701 1.245 . S
C700 O702 1.274 . S
O701 Mg688 2.079 . S
O701 C700 1.245 . S
O702 Mg687 2.038 . S
O702 C700 1.274 . S
O703 Mg691 2.042 . S
O703 C706 1.241 . S
O704 Mg690 1.984 . S
O704 C706 1.280 . S
O705 Mg691 2.041 1_565 S
O705 C709 1.277 . S
C706 O703 1.241 . S
C706 O704 1.280 . S
O707 Mg690 1.988 1_565 S
O707 C709 1.245 . S
O708 C684 1.247 . S
O708 Mg690 2.061 . S
C709 O705 1.277 . S
C709 O707 1.245 . S
O710 C684 1.289 . S
O710 Mg687 2.238 . S
O710 Mg688 2.106 . S
O711 Mg688 2.079 . S
O711 C693 1.245 . S
O712 Mg691 2.038 . S
O712 C693 1.274 . S
C713 O725 1.241 . S
C713 O726 1.280 . S
C714 O727 1.277 . S
C714 O728 1.245 . S
C715 O739 1.247 . S
C715 O741 1.289 . S
Mg716 O717 1.926 . S
Mg716 O726 1.984 . S
Mg716 O728 1.988 . S
Mg716 O729 2.061 . S
O717 Mg716 1.926 . S
O717 Mg718 1.986 . S
O717 Mg719 1.917 . S
Mg718 O717 1.986 . S
Mg718 O725 2.042 . S
Mg718 O727 2.041 . S
Mg718 O733 2.038 . S
Mg718 O741 2.238 . S
Mg719 O717 1.917 . S
Mg719 O720 1.917 . S
Mg719 O730 2.106 . S
Mg719 O732 2.079 . S
Mg719 O741 2.106 . S
Mg719 O742 2.079 . S
O720 Mg719 1.917 . S
O720 Mg721 1.926 . S
O720 Mg722 1.986 . S
Mg721 O720 1.926 . S
Mg721 O735 1.984 . S
Mg721 O738 1.988 . S
Mg721 O739 2.061 . S
Mg722 O720 1.986 . S
Mg722 O730 2.238 . S
Mg722 O734 2.042 . S
Mg722 O736 2.041 . S
Mg722 O743 2.038 . S
C723 O729 1.247 . S
C723 O730 1.289 . S
C724 O742 1.245 . S
C724 O743 1.274 . S
O725 C713 1.241 . S
O725 Mg718 2.042 . S
O726 C713 1.280 . S
O726 Mg716 1.984 . S
O727 C714 1.277 . S
O727 Mg718 2.041 . S
O728 C714 1.245 . S
O728 Mg716 1.988 . S
O729 Mg716 2.061 . S
O729 C723 1.247 . S
O730 Mg719 2.106 . S
O730 Mg722 2.238 . S
O730 C723 1.289 . S
C731 O732 1.245 . S
C731 O733 1.274 . S
O732 Mg719 2.079 . S
O732 C731 1.245 . S
O733 Mg718 2.038 . S
O733 C731 1.274 . S
O734 Mg722 2.042 . S
O734 C737 1.241 . S
O735 Mg721 1.984 . S
O735 C737 1.280 . S
O736 Mg722 2.041 . S
O736 C740 1.277 . S
C737 O734 1.241 . S
C737 O735 1.280 . S
O738 Mg721 1.988 . S
O738 C740 1.245 . S
O739 C715 1.247 . S
O739 Mg721 2.061 . S
C740 O736 1.277 . S
C740 O738 1.245 . S
O741 C715 1.289 . S
O741 Mg718 2.238 . S
O741 Mg719 2.106 . S
O742 Mg719 2.079 . S
O742 C724 1.245 . S
O743 Mg722 2.038 . S
O743 C724 1.274 . S
C744 C745 1.369 . S
C744 C746 1.419 . S
C744 H748 0.930 . S
C745 C744 1.369 . S
C745 C754 1.429 . S
C746 C744 1.419 . S
C746 C747 1.363 . S
C746 H749 0.929 . S
C747 C746 1.363 . S
C747 C753 1.428 . S
H748 C744 0.930 . S
H749 C746 0.929 . S
S750 N751 1.613 . S
S750 N752 1.610 . S
N751 S750 1.613 . S
N751 C754 1.350 . S
N752 S750 1.610 . S
N752 C753 1.351 . S
C753 C747 1.428 . S
C753 N752 1.351 . S
C753 C754 1.434 . S
C754 C745 1.429 . S
C754 N751 1.350 . S
C754 C753 1.434 . S
C755 C756 1.369 . S
C755 C757 1.419 . S
C755 H759 0.930 . S
C756 C755 1.369 . S
C756 C765 1.429 . S
C757 C755 1.419 . S
C757 C758 1.363 . S
C757 H760 0.929 . S
C758 C757 1.363 . S
C758 C764 1.428 . S
H759 C755 0.930 . S
H760 C757 0.929 . S
S761 N762 1.613 . S
S761 N763 1.610 . S
N762 S761 1.613 . S
N762 C765 1.350 . S
N763 S761 1.610 . S
N763 C764 1.351 . S
C764 C758 1.428 . S
C764 N763 1.351 . S
C764 C765 1.434 . S
C765 C756 1.429 . S
C765 N762 1.350 . S
C765 C764 1.434 . S
C766 C767 1.369 . S
C766 C768 1.419 . S
C766 H770 0.930 . S
C767 C766 1.369 . S
C767 C776 1.429 . S
C768 C766 1.419 . S
C768 C769 1.363 . S
C768 H771 0.929 . S
C769 C768 1.363 . S
C769 C775 1.428 . S
H770 C766 0.930 . S
H771 C768 0.929 . S
S772 N773 1.613 . S
S772 N774 1.610 . S
N773 S772 1.613 . S
N773 C776 1.350 . S
N774 S772 1.610 . S
N774 C775 1.351 . S
C775 C769 1.428 . S
C775 N774 1.351 . S
C775 C776 1.434 . S
C776 C767 1.429 . S
C776 N773 1.350 . S
C776 C775 1.434 . S
C777 C778 1.369 . S
C777 C779 1.419 . S
C777 H781 0.930 . S
C778 C777 1.369 . S
C778 C787 1.429 . S
C779 C777 1.419 . S
C779 C780 1.363 . S
C779 H782 0.929 . S
C780 C779 1.363 . S
C780 C786 1.428 . S
H781 C777 0.930 . S
H782 C779 0.929 . S
S783 N784 1.613 1_455 S
S783 N785 1.610 1_455 S
N784 S783 1.613 1_655 S
N784 C787 1.350 . S
N785 S783 1.610 1_655 S
N785 C786 1.351 . S
C786 C780 1.428 . S
C786 N785 1.351 . S
C786 C787 1.434 . S
C787 C778 1.429 . S
C787 N784 1.350 . S
C787 C786 1.434 . S
C788 C789 1.369 . S
C788 C790 1.419 . S
C788 H792 0.930 . S
C789 C788 1.369 . S
C789 C798 1.429 . S
C790 C788 1.419 . S
C790 C791 1.363 . S
C790 H793 0.929 . S
C791 C790 1.363 . S
C791 C797 1.428 . S
H792 C788 0.930 . S
H793 C790 0.929 . S
S794 N795 1.613 1_565 S
S794 N796 1.610 1_565 S
N795 S794 1.613 1_545 S
N795 C798 1.350 . S
N796 S794 1.610 1_545 S
N796 C797 1.351 . S
C797 C791 1.428 . S
C797 N796 1.351 . S
C797 C798 1.434 . S
C798 C789 1.429 . S
C798 N795 1.350 . S
C798 C797 1.434 . S
C799 C800 1.369 . S
C799 C801 1.419 . S
C799 H803 0.930 . S
C800 C799 1.369 . S
C800 C809 1.429 . S
C801 C799 1.419 . S
C801 C802 1.363 . S
C801 H804 0.929 . S
C802 C801 1.363 . S
C802 C808 1.428 . S
H803 C799 0.930 . S
H804 C801 0.929 . S
S805 N806 1.613 . S
S805 N807 1.610 . S
N806 S805 1.613 . S
N806 C809 1.350 . S
N807 S805 1.610 . S
N807 C808 1.351 . S
C808 C802 1.428 . S
C808 N807 1.351 . S
C808 C809 1.434 . S
C809 C800 1.429 . S
C809 N806 1.350 . S
C809 C808 1.434 . S
C810 C811 1.369 . S
C810 C812 1.419 . S
C810 H814 0.930 . S
C811 C810 1.369 . S
C811 C820 1.429 . S
C812 C810 1.419 . S
C812 C813 1.363 . S
C812 H815 0.929 . S
C813 C812 1.363 . S
C813 C819 1.428 . S
H814 C810 0.930 . S
H815 C812 0.929 . S
S816 N817 1.613 . S
S816 N818 1.610 . S
N817 S816 1.613 . S
N817 C820 1.350 . S
N818 S816 1.610 . S
N818 C819 1.351 . S
C819 C813 1.428 . S
C819 N818 1.351 . S
C819 C820 1.434 . S
C820 C811 1.429 . S
C820 N817 1.350 . S
C820 C819 1.434 . S
C821 C822 1.369 . S
C821 C823 1.419 . S
C821 H825 0.930 . S
C822 C821 1.369 . S
C822 C831 1.429 . S
C823 C821 1.419 . S
C823 C824 1.363 . S
C823 H826 0.929 . S
C824 C823 1.363 . S
C824 C830 1.428 . S
H825 C821 0.930 . S
H826 C823 0.929 . S
S827 N828 1.613 . S
S827 N829 1.610 . S
N828 S827 1.613 . S
N828 C831 1.350 . S
N829 S827 1.610 . S
N829 C830 1.351 . S
C830 C824 1.428 . S
C830 N829 1.351 . S
C830 C831 1.434 . S
C831 C822 1.429 . S
C831 N828 1.350 . S
C831 C830 1.434 . S
C832 C833 1.369 . S
C832 C834 1.419 . S
C832 H836 0.930 . S
C833 C832 1.369 . S
C833 C842 1.429 . S
C834 C832 1.419 . S
C834 C835 1.363 . S
C834 H837 0.929 . S
C835 C834 1.363 . S
C835 C841 1.428 . S
H836 C832 0.930 . S
H837 C834 0.929 . S
S838 N839 1.613 1_556 S
S838 N840 1.610 . S
N839 S838 1.613 1_554 S
N839 C842 1.350 . S
N840 S838 1.610 . S
N840 C841 1.351 1_556 S
C841 C835 1.428 . S
C841 N840 1.351 1_554 S
C841 C842 1.434 . S
C842 C833 1.429 . S
C842 N839 1.350 . S
C842 C841 1.434 . S
C843 C844 1.369 . S
C843 C845 1.419 . S
C843 H847 0.930 . S
C844 C843 1.369 . S
C844 C853 1.429 . S
C845 C843 1.419 . S
C845 C846 1.363 . S
C845 H848 0.929 . S
C846 C845 1.363 . S
C846 C852 1.428 . S
H847 C843 0.930 . S
H848 C845 0.929 . S
S849 N850 1.613 1_554 S
S849 N851 1.610 1_554 S
N850 S849 1.613 1_556 S
N850 C853 1.350 . S
N851 S849 1.610 1_556 S
N851 C852 1.351 . S
C852 C846 1.428 . S
C852 N851 1.351 . S
C852 C853 1.434 . S
C853 C844 1.429 . S
C853 N850 1.350 . S
C853 C852 1.434 . S
C854 C855 1.369 . S
C854 C856 1.419 . S
C854 H858 0.930 . S
C855 C854 1.369 . S
C855 C864 1.429 . S
C856 C854 1.419 . S
C856 C857 1.363 . S
C856 H859 0.929 . S
C857 C856 1.363 . S
C857 C863 1.428 . S
H858 C854 0.930 . S
H859 C856 0.929 . S
S860 N861 1.613 . S
S860 N862 1.610 . S
N861 S860 1.613 . S
N861 C864 1.350 . S
N862 S860 1.610 . S
N862 C863 1.351 . S
C863 C857 1.428 . S
C863 N862 1.351 . S
C863 C864 1.434 . S
C864 C855 1.429 . S
C864 N861 1.350 . S
C864 C863 1.434 . S
C865 C866 1.369 . S
C865 C867 1.419 . S
C865 H869 0.930 . S
C866 C865 1.369 . S
C866 C875 1.429 . S
C867 C865 1.419 . S
C867 C868 1.363 . S
C867 H870 0.929 . S
C868 C867 1.363 . S
C868 C874 1.428 . S
H869 C865 0.930 . S
H870 C867 0.929 . S
S871 N872 1.613 . S
S871 N873 1.610 . S
N872 S871 1.613 . S
N872 C875 1.350 . S
N873 S871 1.610 . S
N873 C874 1.351 . S
C874 C868 1.428 . S
C874 N873 1.351 . S
C874 C875 1.434 . S
C875 C866 1.429 . S
C875 N872 1.350 . S
C875 C874 1.434 . S
C876 C877 1.369 . S
C876 C878 1.419 . S
C876 H880 0.930 . S
C877 C876 1.369 . S
C877 C886 1.429 . S
C878 C876 1.419 . S
C878 C879 1.363 . S
C878 H881 0.929 . S
C879 C878 1.363 . S
C879 C885 1.428 . S
H880 C876 0.930 . S
H881 C878 0.929 . S
S882 N883 1.613 . S
S882 N884 1.610 . S
N883 S882 1.613 . S
N883 C886 1.350 . S
N884 S882 1.610 . S
N884 C885 1.351 . S
C885 C879 1.428 . S
C885 N884 1.351 . S
C885 C886 1.434 . S
C886 C877 1.429 . S
C886 N883 1.350 . S
C886 C885 1.434 . S
C887 C888 1.369 . S
C887 C889 1.419 . S
C887 H891 0.930 . S
C888 C887 1.369 . S
C888 C897 1.429 . S
C889 C887 1.419 . S
C889 C890 1.363 . S
C889 H892 0.929 . S
C890 C889 1.363 . S
C890 C896 1.428 . S
H891 C887 0.930 . S
H892 C889 0.929 . S
S893 N894 1.613 . S
S893 N895 1.610 . S
N894 S893 1.613 . S
N894 C897 1.350 . S
N895 S893 1.610 . S
N895 C896 1.351 . S
C896 C890 1.428 . S
C896 N895 1.351 . S
C896 C897 1.434 . S
C897 C888 1.429 . S
C897 N894 1.350 . S
C897 C896 1.434 . S
C898 C899 1.369 . S
C898 C900 1.419 . S
C898 H902 0.930 . S
C899 C898 1.369 . S
C899 C908 1.429 . S
C900 C898 1.419 . S
C900 C901 1.363 . S
C900 H903 0.929 . S
C901 C900 1.363 . S
C901 C907 1.428 . S
H902 C898 0.930 . S
H903 C900 0.929 . S
S904 N905 1.613 . S
S904 N906 1.610 . S
N905 S904 1.613 . S
N905 C908 1.350 . S
N906 S904 1.610 . S
N906 C907 1.351 . S
C907 C901 1.428 . S
C907 N906 1.351 . S
C907 C908 1.434 . S
C908 C899 1.429 . S
C908 N905 1.350 . S
C908 C907 1.434 . S
C909 C910 1.369 . S
C909 C911 1.419 . S
C909 H913 0.930 . S
C910 C909 1.369 . S
C910 C919 1.429 . S
C911 C909 1.419 . S
C911 C912 1.363 . S
C911 H914 0.929 . S
C912 C911 1.363 . S
C912 C918 1.428 . S
H913 C909 0.930 . S
H914 C911 0.929 . S
S915 N916 1.613 . S
S915 N917 1.610 . S
N916 S915 1.613 . S
N916 C919 1.350 . S
N917 S915 1.610 . S
N917 C918 1.351 . S
C918 C912 1.428 . S
C918 N917 1.351 . S
C918 C919 1.434 . S
C919 C910 1.429 . S
C919 N916 1.350 . S
C919 C918 1.434 . S
C920 C921 1.369 . S
C920 C922 1.419 . S
C920 H924 0.930 . S
C921 C920 1.369 . S
C921 C930 1.429 . S
C922 C920 1.419 . S
C922 C923 1.363 . S
C922 H925 0.929 . S
C923 C922 1.363 . S
C923 C929 1.428 . S
H924 C920 0.930 . S
H925 C922 0.929 . S
S926 N927 1.613 . S
S926 N928 1.610 . S
N927 S926 1.613 . S
N927 C930 1.350 . S
N928 S926 1.610 . S
N928 C929 1.351 . S
C929 C923 1.428 . S
C929 N928 1.351 . S
C929 C930 1.434 . S
C930 C921 1.429 . S
C930 N927 1.350 . S
C930 C929 1.434 . S
C931 C932 1.369 . S
C931 C933 1.419 . S
C931 H935 0.930 . S
C932 C931 1.369 . S
C932 C941 1.429 . S
C933 C931 1.419 . S
C933 C934 1.363 . S
C933 H936 0.929 . S
C934 C933 1.363 . S
C934 C940 1.428 . S
H935 C931 0.930 . S
H936 C933 0.929 . S
S937 N938 1.613 . S
S937 N939 1.610 . S
N938 S937 1.613 . S
N938 C941 1.350 . S
N939 S937 1.610 . S
N939 C940 1.351 . S
C940 C934 1.428 . S
C940 N939 1.351 . S
C940 C941 1.434 . S
C941 C932 1.429 . S
C941 N938 1.350 . S
C941 C940 1.434 . S
C942 C943 1.369 . S
C942 C944 1.419 . S
C942 H946 0.930 . S
C943 C942 1.369 . S
C943 C952 1.429 . S
C944 C942 1.419 . S
C944 C945 1.363 . S
C944 H947 0.929 . S
C945 C944 1.363 . S
C945 C951 1.428 . S
H946 C942 0.930 . S
H947 C944 0.929 . S
S948 N949 1.613 . S
S948 N950 1.610 . S
N949 S948 1.613 . S
N949 C952 1.350 . S
N950 S948 1.610 . S
N950 C951 1.351 . S
C951 C945 1.428 . S
C951 N950 1.351 . S
C951 C952 1.434 . S
C952 C943 1.429 . S
C952 N949 1.350 . S
C952 C951 1.434 . S
C953 C954 1.369 . S
C953 C955 1.419 . S
C953 H957 0.930 . S
C954 C953 1.369 . S
C954 C963 1.429 . S
C955 C953 1.419 . S
C955 C956 1.363 . S
C955 H958 0.929 . S
C956 C955 1.363 . S
C956 C962 1.428 . S
H957 C953 0.930 . S
H958 C955 0.929 . S
S959 N960 1.613 . S
S959 N961 1.610 . S
N960 S959 1.613 . S
N960 C963 1.350 . S
N961 S959 1.610 . S
N961 C962 1.351 . S
C962 C956 1.428 . S
C962 N961 1.351 . S
C962 C963 1.434 . S
C963 C954 1.429 . S
C963 N960 1.350 . S
C963 C962 1.434 . S
C964 C965 1.369 . S
C964 C966 1.419 . S
C964 H968 0.930 . S
C965 C964 1.369 . S
C965 C974 1.429 . S
C966 C964 1.419 . S
C966 C967 1.363 . S
C966 H969 0.929 . S
C967 C966 1.363 . S
C967 C973 1.428 . S
H968 C964 0.930 . S
H969 C966 0.929 . S
S970 N971 1.613 . S
S970 N972 1.610 . S
N971 S970 1.613 . S
N971 C974 1.350 . S
N972 S970 1.610 . S
N972 C973 1.351 . S
C973 C967 1.428 . S
C973 N972 1.351 . S
C973 C974 1.434 . S
C974 C965 1.429 . S
C974 N971 1.350 . S
C974 C973 1.434 . S
C975 C976 1.369 . S
C975 C977 1.419 . S
C975 H979 0.930 . S
C976 C975 1.369 . S
C976 C985 1.429 . S
C977 C975 1.419 . S
C977 C978 1.363 . S
C977 H980 0.929 . S
C978 C977 1.363 . S
C978 C984 1.428 . S
H979 C975 0.930 . S
H980 C977 0.929 . S
S981 N982 1.613 . S
S981 N983 1.610 . S
N982 S981 1.613 . S
N982 C985 1.350 . S
N983 S981 1.610 . S
N983 C984 1.351 . S
C984 C978 1.428 . S
C984 N983 1.351 . S
C984 C985 1.434 . S
C985 C976 1.429 . S
C985 N982 1.350 . S
C985 C984 1.434 . S
C986 C987 1.369 . S
C986 C988 1.419 . S
C986 H990 0.930 . S
C987 C986 1.369 . S
C987 C996 1.429 . S
C988 C986 1.419 . S
C988 C989 1.363 . S
C988 H991 0.929 . S
C989 C988 1.363 . S
C989 C995 1.428 . S
H990 C986 0.930 . S
H991 C988 0.929 . S
S992 N993 1.613 . S
S992 N994 1.610 . S
N993 S992 1.613 . S
N993 C996 1.350 . S
N994 S992 1.610 . S
N994 C995 1.351 . S
C995 C989 1.428 . S
C995 N994 1.351 . S
C995 C996 1.434 . S
C996 C987 1.429 . S
C996 N993 1.350 . S
C996 C995 1.434 . S
C997 C998 1.369 . S
C997 C999 1.419 . S
C997 H1001 0.930 . S
C998 C997 1.369 . S
C998 C1007 1.429 . S
C999 C997 1.419 . S
C999 C1000 1.363 . S
C999 H1002 0.929 . S
C1000 C999 1.363 . S
C1000 C1006 1.428 . S
H1001 C997 0.930 . S
H1002 C999 0.929 . S
S1003 N1004 1.613 . S
S1003 N1005 1.610 . S
N1004 S1003 1.613 . S
N1004 C1007 1.350 . S
N1005 S1003 1.610 . S
N1005 C1006 1.351 . S
C1006 C1000 1.428 . S
C1006 N1005 1.351 . S
C1006 C1007 1.434 . S
C1007 C998 1.429 . S
C1007 N1004 1.350 . S
C1007 C1006 1.434 . S
C1008 C1009 1.369 . S
C1008 C1010 1.419 . S
C1008 H1012 0.930 . S
C1009 C1008 1.369 . S
C1009 C1018 1.429 . S
C1010 C1008 1.419 . S
C1010 C1011 1.363 . S
C1010 H1013 0.929 . S
C1011 C1010 1.363 . S
C1011 C1017 1.428 . S
H1012 C1008 0.930 . S
H1013 C1010 0.929 . S
S1014 N1015 1.613 . S
S1014 N1016 1.610 . S
N1015 S1014 1.613 . S
N1015 C1018 1.350 . S
N1016 S1014 1.610 . S
N1016 C1017 1.351 . S
C1017 C1011 1.428 . S
C1017 N1016 1.351 . S
C1017 C1018 1.434 . S
C1018 C1009 1.429 . S
C1018 N1015 1.350 . S
C1018 C1017 1.434 . S
C1019 C1020 1.369 . S
C1019 C1021 1.419 . S
C1019 H1023 0.930 . S
C1020 C1019 1.369 . S
C1020 C1029 1.429 . S
C1021 C1019 1.419 . S
C1021 C1022 1.363 . S
C1021 H1024 0.929 . S
C1022 C1021 1.363 . S
C1022 C1028 1.428 . S
H1023 C1019 0.930 . S
H1024 C1021 0.929 . S
S1025 N1026 1.613 . S
S1025 N1027 1.610 . S
N1026 S1025 1.613 . S
N1026 C1029 1.350 . S
N1027 S1025 1.610 . S
N1027 C1028 1.351 . S
C1028 C1022 1.428 . S
C1028 N1027 1.351 . S
C1028 C1029 1.434 . S
C1029 C1020 1.429 . S
C1029 N1026 1.350 . S
C1029 C1028 1.434 . S
C1030 C1031 1.369 . S
C1030 C1032 1.419 . S
C1030 H1034 0.930 . S
C1031 C1030 1.369 . S
C1031 C1040 1.429 . S
C1032 C1030 1.419 . S
C1032 C1033 1.363 . S
C1032 H1035 0.929 . S
C1033 C1032 1.363 . S
C1033 C1039 1.428 . S
H1034 C1030 0.930 . S
H1035 C1032 0.929 . S
S1036 N1037 1.613 . S
S1036 N1038 1.610 . S
N1037 S1036 1.613 . S
N1037 C1040 1.350 . S
N1038 S1036 1.610 . S
N1038 C1039 1.351 . S
C1039 C1033 1.428 . S
C1039 N1038 1.351 . S
C1039 C1040 1.434 . S
C1040 C1031 1.429 . S
C1040 N1037 1.350 . S
C1040 C1039 1.434 . S
C1041 C1042 1.369 . S
C1041 C1043 1.419 . S
C1041 H1045 0.930 . S
C1042 C1041 1.369 . S
C1042 C1051 1.429 . S
C1043 C1041 1.419 . S
C1043 C1044 1.363 . S
C1043 H1046 0.929 . S
C1044 C1043 1.363 . S
C1044 C1050 1.428 . S
H1045 C1041 0.930 . S
H1046 C1043 0.929 . S
S1047 N1048 1.613 . S
S1047 N1049 1.610 . S
N1048 S1047 1.613 . S
N1048 C1051 1.350 . S
N1049 S1047 1.610 . S
N1049 C1050 1.351 . S
C1050 C1044 1.428 . S
C1050 N1049 1.351 . S
C1050 C1051 1.434 . S
C1051 C1042 1.429 . S
C1051 N1048 1.350 . S
C1051 C1050 1.434 . S
C1052 C1053 1.369 . S
C1052 C1054 1.419 . S
C1052 H1056 0.930 . S
C1053 C1052 1.369 . S
C1053 C1062 1.429 . S
C1054 C1052 1.419 . S
C1054 C1055 1.363 . S
C1054 H1057 0.929 . S
C1055 C1054 1.363 . S
C1055 C1061 1.428 . S
H1056 C1052 0.930 . S
H1057 C1054 0.929 . S
S1058 N1059 1.613 . S
S1058 N1060 1.610 . S
N1059 S1058 1.613 . S
N1059 C1062 1.350 . S
N1060 S1058 1.610 . S
N1060 C1061 1.351 . S
C1061 C1055 1.428 . S
C1061 N1060 1.351 . S
C1061 C1062 1.434 . S
C1062 C1053 1.429 . S
C1062 N1059 1.350 . S
C1062 C1061 1.434 . S
C1063 C1064 1.369 . S
C1063 C1065 1.419 . S
C1063 H1067 0.930 . S
C1064 C1063 1.369 . S
C1064 C1073 1.429 . S
C1065 C1063 1.419 . S
C1065 C1066 1.363 . S
C1065 H1068 0.929 . S
C1066 C1065 1.363 . S
C1066 C1072 1.428 . S
H1067 C1063 0.930 . S
H1068 C1065 0.929 . S
S1069 N1070 1.613 . S
S1069 N1071 1.610 . S
N1070 S1069 1.613 . S
N1070 C1073 1.350 . S
N1071 S1069 1.610 . S
N1071 C1072 1.351 . S
C1072 C1066 1.428 . S
C1072 N1071 1.351 . S
C1072 C1073 1.434 . S
C1073 C1064 1.429 . S
C1073 N1070 1.350 . S
C1073 C1072 1.434 . S
C1074 C1075 1.369 . S
C1074 C1076 1.419 . S
C1074 H1078 0.930 . S
C1075 C1074 1.369 . S
C1075 C1084 1.429 . S
C1076 C1074 1.419 . S
C1076 C1077 1.363 . S
C1076 H1079 0.929 . S
C1077 C1076 1.363 . S
C1077 C1083 1.428 . S
H1078 C1074 0.930 . S
H1079 C1076 0.929 . S
S1080 N1081 1.613 . S
S1080 N1082 1.610 . S
N1081 S1080 1.613 . S
N1081 C1084 1.350 . S
N1082 S1080 1.610 . S
N1082 C1083 1.351 . S
C1083 C1077 1.428 . S
C1083 N1082 1.351 . S
C1083 C1084 1.434 . S
C1084 C1075 1.429 . S
C1084 N1081 1.350 . S
C1084 C1083 1.434 . S
C1085 C1086 1.369 . S
C1085 C1087 1.419 . S
C1085 H1089 0.930 . S
C1086 C1085 1.369 . S
C1086 C1095 1.429 . S
C1087 C1085 1.419 . S
C1087 C1088 1.363 . S
C1087 H1090 0.929 . S
C1088 C1087 1.363 . S
C1088 C1094 1.428 . S
H1089 C1085 0.930 . S
H1090 C1087 0.929 . S
S1091 N1092 1.613 . S
S1091 N1093 1.610 . S
N1092 S1091 1.613 . S
N1092 C1095 1.350 . S
N1093 S1091 1.610 . S
N1093 C1094 1.351 . S
C1094 C1088 1.428 . S
C1094 N1093 1.351 . S
C1094 C1095 1.434 . S
C1095 C1086 1.429 . S
C1095 N1092 1.350 . S
C1095 C1094 1.434 . S
C1096 C1097 1.369 . S
C1096 C1098 1.419 . S
C1096 H1100 0.930 . S
C1097 C1096 1.369 . S
C1097 C1106 1.429 . S
C1098 C1096 1.419 . S
C1098 C1099 1.363 . S
C1098 H1101 0.929 . S
C1099 C1098 1.363 . S
C1099 C1105 1.428 . S
H1100 C1096 0.930 . S
H1101 C1098 0.929 . S
S1102 N1103 1.613 . S
S1102 N1104 1.610 . S
N1103 S1102 1.613 . S
N1103 C1106 1.350 . S
N1104 S1102 1.610 . S
N1104 C1105 1.351 . S
C1105 C1099 1.428 . S
C1105 N1104 1.351 . S
C1105 C1106 1.434 . S
C1106 C1097 1.429 . S
C1106 N1103 1.350 . S
C1106 C1105 1.434 . S
C1107 C1108 1.369 . S
C1107 C1109 1.419 . S
C1107 H1111 0.930 . S
C1108 C1107 1.369 . S
C1108 C1117 1.429 . S
C1109 C1107 1.419 . S
C1109 C1110 1.363 . S
C1109 H1112 0.929 . S
C1110 C1109 1.363 . S
C1110 C1116 1.428 . S
H1111 C1107 0.930 . S
H1112 C1109 0.929 . S
S1113 N1114 1.613 . S
S1113 N1115 1.610 . S
N1114 S1113 1.613 . S
N1114 C1117 1.350 . S
N1115 S1113 1.610 . S
N1115 C1116 1.351 . S
C1116 C1110 1.428 . S
C1116 N1115 1.351 . S
C1116 C1117 1.434 . S
C1117 C1108 1.429 . S
C1117 N1114 1.350 . S
C1117 C1116 1.434 . S
C1118 C1119 1.369 . S
C1118 C1120 1.419 . S
C1118 H1122 0.930 . S
C1119 C1118 1.369 . S
C1119 C1128 1.429 . S
C1120 C1118 1.419 . S
C1120 C1121 1.363 . S
C1120 H1123 0.929 . S
C1121 C1120 1.363 . S
C1121 C1127 1.428 . S
H1122 C1118 0.930 . S
H1123 C1120 0.929 . S
S1124 N1125 1.613 . S
S1124 N1126 1.610 . S
N1125 S1124 1.613 . S
N1125 C1128 1.350 . S
N1126 S1124 1.610 . S
N1126 C1127 1.351 . S
C1127 C1121 1.428 . S
C1127 N1126 1.351 . S
C1127 C1128 1.434 . S
C1128 C1119 1.429 . S
C1128 N1125 1.350 . S
C1128 C1127 1.434 . S
C1129 C1130 1.369 . S
C1129 C1131 1.419 . S
C1129 H1133 0.930 . S
C1130 C1129 1.369 . S
C1130 C1139 1.429 . S
C1131 C1129 1.419 . S
C1131 C1132 1.363 . S
C1131 H1134 0.929 . S
C1132 C1131 1.363 . S
C1132 C1138 1.428 . S
H1133 C1129 0.930 . S
H1134 C1131 0.929 . S
S1135 N1136 1.613 . S
S1135 N1137 1.610 . S
N1136 S1135 1.613 . S
N1136 C1139 1.350 . S
N1137 S1135 1.610 . S
N1137 C1138 1.351 . S
C1138 C1132 1.428 . S
C1138 N1137 1.351 . S
C1138 C1139 1.434 . S
C1139 C1130 1.429 . S
C1139 N1136 1.350 . S
C1139 C1138 1.434 . S
C1140 C1141 1.369 . S
C1140 C1142 1.419 . S
C1140 H1144 0.930 . S
C1141 C1140 1.369 . S
C1141 C1150 1.429 . S
C1142 C1140 1.419 . S
C1142 C1143 1.363 . S
C1142 H1145 0.929 . S
C1143 C1142 1.363 . S
C1143 C1149 1.428 . S
H1144 C1140 0.930 . S
H1145 C1142 0.929 . S
S1146 N1147 1.613 . S
S1146 N1148 1.610 . S
N1147 S1146 1.613 . S
N1147 C1150 1.350 . S
N1148 S1146 1.610 . S
N1148 C1149 1.351 . S
C1149 C1143 1.428 . S
C1149 N1148 1.351 . S
C1149 C1150 1.434 . S
C1150 C1141 1.429 . S
C1150 N1147 1.350 . S
C1150 C1149 1.434 . S
C1151 C1152 1.369 . S
C1151 C1153 1.419 . S
C1151 H1155 0.930 . S
C1152 C1151 1.369 . S
C1152 C1161 1.429 . S
C1153 C1151 1.419 . S
C1153 C1154 1.363 . S
C1153 H1156 0.929 . S
C1154 C1153 1.363 . S
C1154 C1160 1.428 . S
H1155 C1151 0.930 . S
H1156 C1153 0.929 . S
S1157 N1158 1.613 . S
S1157 N1159 1.610 . S
N1158 S1157 1.613 . S
N1158 C1161 1.350 . S
N1159 S1157 1.610 . S
N1159 C1160 1.351 . S
C1160 C1154 1.428 . S
C1160 N1159 1.351 . S
C1160 C1161 1.434 . S
C1161 C1152 1.429 . S
C1161 N1158 1.350 . S
C1161 C1160 1.434 . S
C1162 C1163 1.369 . S
C1162 C1164 1.419 . S
C1162 H1166 0.930 . S
C1163 C1162 1.369 . S
C1163 C1172 1.429 . S
C1164 C1162 1.419 . S
C1164 C1165 1.363 . S
C1164 H1167 0.929 . S
C1165 C1164 1.363 . S
C1165 C1171 1.428 . S
H1166 C1162 0.930 . S
H1167 C1164 0.929 . S
S1168 N1169 1.613 . S
S1168 N1170 1.610 . S
N1169 S1168 1.613 . S
N1169 C1172 1.350 . S
N1170 S1168 1.610 . S
N1170 C1171 1.351 . S
C1171 C1165 1.428 . S
C1171 N1170 1.351 . S
C1171 C1172 1.434 . S
C1172 C1163 1.429 . S
C1172 N1169 1.350 . S
C1172 C1171 1.434 . S
C1173 C1174 1.369 . S
C1173 C1175 1.419 . S
C1173 H1177 0.930 . S
C1174 C1173 1.369 . S
C1174 C1183 1.429 . S
C1175 C1173 1.419 . S
C1175 C1176 1.363 . S
C1175 H1178 0.929 . S
C1176 C1175 1.363 . S
C1176 C1182 1.428 . S
H1177 C1173 0.930 . S
H1178 C1175 0.929 . S
S1179 N1180 1.613 . S
S1179 N1181 1.610 . S
N1180 S1179 1.613 . S
N1180 C1183 1.350 . S
N1181 S1179 1.610 . S
N1181 C1182 1.351 . S
C1182 C1176 1.428 . S
C1182 N1181 1.351 . S
C1182 C1183 1.434 . S
C1183 C1174 1.429 . S
C1183 N1180 1.350 . S
C1183 C1182 1.434 . S
C1184 C1185 1.369 . S
C1184 C1186 1.419 . S
C1184 H1188 0.930 . S
C1185 C1184 1.369 . S
C1185 C1194 1.429 . S
C1186 C1184 1.419 . S
C1186 C1187 1.363 . S
C1186 H1189 0.929 . S
C1187 C1186 1.363 . S
C1187 C1193 1.428 . S
H1188 C1184 0.930 . S
H1189 C1186 0.929 . S
S1190 N1191 1.613 . S
S1190 N1192 1.610 . S
N1191 S1190 1.613 . S
N1191 C1194 1.350 . S
N1192 S1190 1.610 . S
N1192 C1193 1.351 . S
C1193 C1187 1.428 . S
C1193 N1192 1.351 . S
C1193 C1194 1.434 . S
C1194 C1185 1.429 . S
C1194 N1191 1.350 . S
C1194 C1193 1.434 . S
C1195 C1196 1.369 . S
C1195 C1197 1.419 . S
C1195 H1199 0.930 . S
C1196 C1195 1.369 . S
C1196 C1205 1.429 . S
C1197 C1195 1.419 . S
C1197 C1198 1.363 . S
C1197 H1200 0.929 . S
C1198 C1197 1.363 . S
C1198 C1204 1.428 . S
H1199 C1195 0.930 . S
H1200 C1197 0.929 . S
S1201 N1202 1.613 . S
S1201 N1203 1.610 . S
N1202 S1201 1.613 . S
N1202 C1205 1.350 . S
N1203 S1201 1.610 . S
N1203 C1204 1.351 . S
C1204 C1198 1.428 . S
C1204 N1203 1.351 . S
C1204 C1205 1.434 . S
C1205 C1196 1.429 . S
C1205 N1202 1.350 . S
C1205 C1204 1.434 . S
C1206 C1207 1.369 . S
C1206 C1208 1.419 . S
C1206 H1210 0.930 . S
C1207 C1206 1.369 . S
C1207 C1216 1.429 . S
C1208 C1206 1.419 . S
C1208 C1209 1.363 . S
C1208 H1211 0.929 . S
C1209 C1208 1.363 . S
C1209 C1215 1.428 . S
H1210 C1206 0.930 . S
H1211 C1208 0.929 . S
S1212 N1213 1.613 . S
S1212 N1214 1.610 . S
N1213 S1212 1.613 . S
N1213 C1216 1.350 . S
N1214 S1212 1.610 . S
N1214 C1215 1.351 . S
C1215 C1209 1.428 . S
C1215 N1214 1.351 . S
C1215 C1216 1.434 . S
C1216 C1207 1.429 . S
C1216 N1213 1.350 . S
C1216 C1215 1.434 . S
C1217 C1218 1.369 . S
C1217 C1219 1.419 . S
C1217 H1221 0.930 . S
C1218 C1217 1.369 . S
C1218 C1227 1.429 . S
C1219 C1217 1.419 . S
C1219 C1220 1.363 . S
C1219 H1222 0.929 . S
C1220 C1219 1.363 . S
C1220 C1226 1.428 . S
H1221 C1217 0.930 . S
H1222 C1219 0.929 . S
S1223 N1224 1.613 . S
S1223 N1225 1.610 . S
N1224 S1223 1.613 . S
N1224 C1227 1.350 . S
N1225 S1223 1.610 . S
N1225 C1226 1.351 . S
C1226 C1220 1.428 . S
C1226 N1225 1.351 . S
C1226 C1227 1.434 . S
C1227 C1218 1.429 . S
C1227 N1224 1.350 . S
C1227 C1226 1.434 . S
C1228 C1229 1.369 . S
C1228 C1230 1.419 . S
C1228 H1232 0.930 . S
C1229 C1228 1.369 . S
C1229 C1238 1.429 . S
C1230 C1228 1.419 . S
C1230 C1231 1.363 . S
C1230 H1233 0.929 . S
C1231 C1230 1.363 . S
C1231 C1237 1.428 . S
H1232 C1228 0.930 . S
H1233 C1230 0.929 . S
S1234 N1235 1.613 . S
S1234 N1236 1.610 . S
N1235 S1234 1.613 . S
N1235 C1238 1.350 . S
N1236 S1234 1.610 . S
N1236 C1237 1.351 . S
C1237 C1231 1.428 . S
C1237 N1236 1.351 . S
C1237 C1238 1.434 . S
C1238 C1229 1.429 . S
C1238 N1235 1.350 . S
C1238 C1237 1.434 . S
C1239 C1240 1.369 . S
C1239 C1241 1.419 . S
C1239 H1243 0.930 . S
C1240 C1239 1.369 . S
C1240 C1249 1.429 . S
C1241 C1239 1.419 . S
C1241 C1242 1.363 . S
C1241 H1244 0.929 . S
C1242 C1241 1.363 . S
C1242 C1248 1.428 . S
H1243 C1239 0.930 . S
H1244 C1241 0.929 . S
S1245 N1246 1.613 . S
S1245 N1247 1.610 . S
N1246 S1245 1.613 . S
N1246 C1249 1.350 . S
N1247 S1245 1.610 . S
N1247 C1248 1.351 . S
C1248 C1242 1.428 . S
C1248 N1247 1.351 . S
C1248 C1249 1.434 . S
C1249 C1240 1.429 . S
C1249 N1246 1.350 . S
C1249 C1248 1.434 . S
C1250 C1251 1.369 . S
C1250 C1252 1.419 . S
C1250 H1254 0.930 . S
C1251 C1250 1.369 . S
C1251 C1260 1.429 . S
C1252 C1250 1.419 . S
C1252 C1253 1.363 . S
C1252 H1255 0.929 . S
C1253 C1252 1.363 . S
C1253 C1259 1.428 . S
H1254 C1250 0.930 . S
H1255 C1252 0.929 . S
S1256 N1257 1.613 . S
S1256 N1258 1.610 . S
N1257 S1256 1.613 . S
N1257 C1260 1.350 . S
N1258 S1256 1.610 . S
N1258 C1259 1.351 . S
C1259 C1253 1.428 . S
C1259 N1258 1.351 . S
C1259 C1260 1.434 . S
C1260 C1251 1.429 . S
C1260 N1257 1.350 . S
C1260 C1259 1.434 . S
C1261 C1262 1.369 . S
C1261 C1263 1.419 . S
C1261 H1265 0.930 . S
C1262 C1261 1.369 . S
C1262 C1271 1.429 . S
C1263 C1261 1.419 . S
C1263 C1264 1.363 . S
C1263 H1266 0.929 . S
C1264 C1263 1.363 . S
C1264 C1270 1.428 . S
H1265 C1261 0.930 . S
H1266 C1263 0.929 . S
S1267 N1268 1.613 . S
S1267 N1269 1.610 . S
N1268 S1267 1.613 . S
N1268 C1271 1.350 . S
N1269 S1267 1.610 . S
N1269 C1270 1.351 . S
C1270 C1264 1.428 . S
C1270 N1269 1.351 . S
C1270 C1271 1.434 . S
C1271 C1262 1.429 . S
C1271 N1268 1.350 . S
C1271 C1270 1.434 . S
C1272 C1273 1.369 . S
C1272 C1274 1.419 . S
C1272 H1276 0.930 . S
C1273 C1272 1.369 . S
C1273 C1282 1.429 . S
C1274 C1272 1.419 . S
C1274 C1275 1.363 . S
C1274 H1277 0.929 . S
C1275 C1274 1.363 . S
C1275 C1281 1.428 . S
H1276 C1272 0.930 . S
H1277 C1274 0.929 . S
S1278 N1279 1.613 . S
S1278 N1280 1.610 . S
N1279 S1278 1.613 . S
N1279 C1282 1.350 . S
N1280 S1278 1.610 . S
N1280 C1281 1.351 . S
C1281 C1275 1.428 . S
C1281 N1280 1.351 . S
C1281 C1282 1.434 . S
C1282 C1273 1.429 . S
C1282 N1279 1.350 . S
C1282 C1281 1.434 . S
C1283 C1284 1.369 . S
C1283 C1285 1.419 1_554 S
C1283 H1287 0.934 . S
C1284 C1283 1.369 . S
C1284 C1293 1.429 . S
C1285 C1283 1.419 1_556 S
C1285 C1286 1.363 1_556 S
C1285 H1288 0.929 . S
C1286 C1285 1.363 1_554 S
C1286 C1292 1.428 . S
H1287 C1283 0.934 . S
H1288 C1285 0.929 . S
S1289 N1290 1.613 . S
S1289 N1291 1.610 . S
N1290 S1289 1.613 . S
N1290 C1293 1.350 . S
N1291 S1289 1.610 . S
N1291 C1292 1.351 . S
C1292 C1286 1.428 . S
C1292 N1291 1.351 . S
C1292 C1293 1.434 . S
C1293 C1284 1.429 . S
C1293 N1290 1.350 . S
C1293 C1292 1.434 . S
C1294 C1295 1.369 . S
C1294 C1296 1.419 . S
C1294 H1298 0.930 . S
C1295 C1294 1.369 . S
C1295 C1304 1.429 . S
C1296 C1294 1.419 . S
C1296 C1297 1.363 . S
C1296 H1299 0.929 . S
C1297 C1296 1.363 . S
C1297 C1303 1.428 . S
H1298 C1294 0.930 . S
H1299 C1296 0.929 . S
S1300 N1301 1.613 . S
S1300 N1302 1.610 . S
N1301 S1300 1.613 . S
N1301 C1304 1.350 . S
N1302 S1300 1.610 . S
N1302 C1303 1.351 . S
C1303 C1297 1.428 . S
C1303 N1302 1.351 . S
C1303 C1304 1.434 . S
C1304 C1295 1.429 . S
C1304 N1301 1.350 . S
C1304 C1303 1.434 . S
C1305 C1306 1.369 1_554 S
C1305 C1307 1.419 1_554 S
C1305 H1309 0.930 . S
C1306 C1305 1.369 1_556 S
C1306 C1315 1.429 . S
C1307 C1305 1.419 1_556 S
C1307 C1308 1.363 . S
C1307 H1310 0.929 1_556 S
C1308 C1307 1.363 . S
C1308 C1314 1.428 . S
H1309 C1305 0.930 . S
H1310 C1307 0.929 1_554 S
S1311 N1312 1.613 . S
S1311 N1313 1.610 . S
N1312 S1311 1.613 . S
N1312 C1315 1.350 . S
N1313 S1311 1.610 . S
N1313 C1314 1.351 . S
C1314 C1308 1.428 . S
C1314 N1313 1.351 . S
C1314 C1315 1.434 . S
C1315 C1306 1.429 . S
C1315 N1312 1.350 . S
C1315 C1314 1.434 . S
C1316 C1317 1.369 . S
C1316 C1318 1.419 . S
C1316 H1320 0.930 . S
C1317 C1316 1.369 . S
C1317 C1326 1.429 . S
C1318 C1316 1.419 . S
C1318 C1319 1.363 . S
C1318 H1321 0.929 . S
C1319 C1318 1.363 . S
C1319 C1325 1.428 . S
H1320 C1316 0.930 . S
H1321 C1318 0.929 . S
S1322 N1323 1.613 . S
S1322 N1324 1.610 . S
N1323 S1322 1.613 . S
N1323 C1326 1.350 . S
N1324 S1322 1.610 . S
N1324 C1325 1.351 . S
C1325 C1319 1.428 . S
C1325 N1324 1.351 . S
C1325 C1326 1.434 . S
C1326 C1317 1.429 . S
C1326 N1323 1.350 . S
C1326 C1325 1.434 . S
C1327 C1328 1.369 . S
C1327 C1329 1.419 1_655 S
C1327 H1331 0.930 . S
C1328 C1327 1.369 . S
C1328 C1337 1.429 . S
C1329 C1327 1.419 1_455 S
C1329 C1330 1.363 1_455 S
C1329 H1332 0.929 . S
C1330 C1329 1.363 1_655 S
C1330 C1336 1.428 . S
H1331 C1327 0.930 . S
H1332 C1329 0.929 . S
S1333 N1334 1.613 . S
S1333 N1335 1.610 . S
N1334 S1333 1.613 . S
N1334 C1337 1.350 . S
N1335 S1333 1.610 . S
N1335 C1336 1.351 . S
C1336 C1330 1.428 . S
C1336 N1335 1.351 . S
C1336 C1337 1.434 . S
C1337 C1328 1.429 . S
C1337 N1334 1.350 . S
C1337 C1336 1.434 . S
C1338 C1339 1.369 . S
C1338 C1340 1.419 1_455 S
C1338 H1342 0.930 . S
C1339 C1338 1.369 . S
C1339 C1348 1.429 . S
C1340 C1338 1.419 1_655 S
C1340 C1341 1.363 1_655 S
C1340 H1343 0.929 . S
C1341 C1340 1.363 1_455 S
C1341 C1347 1.428 . S
H1342 C1338 0.930 . S
H1343 C1340 0.929 . S
S1344 N1345 1.613 . S
S1344 N1346 1.610 . S
N1345 S1344 1.613 . S
N1345 C1348 1.350 . S
N1346 S1344 1.610 . S
N1346 C1347 1.351 . S
C1347 C1341 1.428 . S
C1347 N1346 1.351 . S
C1347 C1348 1.434 . S
C1348 C1339 1.429 . S
C1348 N1345 1.350 . S
C1348 C1347 1.434 . S
C1349 C1350 1.369 . S
C1349 C1351 1.419 . S
C1349 H1353 0.930 . S
C1350 C1349 1.369 . S
C1350 C1359 1.429 . S
C1351 C1349 1.419 . S
C1351 C1352 1.363 . S
C1351 H1354 0.929 . S
C1352 C1351 1.363 . S
C1352 C1358 1.428 . S
H1353 C1349 0.930 . S
H1354 C1351 0.929 . S
S1355 N1356 1.613 . S
S1355 N1357 1.610 . S
N1356 S1355 1.613 . S
N1356 C1359 1.350 . S
N1357 S1355 1.610 . S
N1357 C1358 1.351 . S
C1358 C1352 1.428 . S
C1358 N1357 1.351 . S
C1358 C1359 1.434 . S
C1359 C1350 1.429 . S
C1359 N1356 1.350 . S
C1359 C1358 1.434 . S
C1360 C1361 1.369 . S
C1360 C1362 1.419 . S
C1360 H1364 0.930 . S
C1361 C1360 1.369 . S
C1361 C1370 1.429 . S
C1362 C1360 1.419 . S
C1362 C1363 1.363 . S
C1362 H1365 0.929 . S
C1363 C1362 1.363 . S
C1363 C1369 1.428 . S
H1364 C1360 0.930 . S
H1365 C1362 0.929 . S
S1366 N1367 1.613 . S
S1366 N1368 1.610 . S
N1367 S1366 1.613 . S
N1367 C1370 1.350 . S
N1368 S1366 1.610 . S
N1368 C1369 1.351 . S
C1369 C1363 1.428 . S
C1369 N1368 1.351 . S
C1369 C1370 1.434 . S
C1370 C1361 1.429 . S
C1370 N1367 1.350 . S
C1370 C1369 1.434 . S
C1371 C1372 1.369 . S
C1371 C1373 1.419 . S
C1371 H1375 0.930 . S
C1372 C1371 1.369 . S
C1372 C1381 1.429 1_565 S
C1373 C1371 1.419 . S
C1373 C1374 1.363 . S
C1373 H1376 0.929 . S
C1374 C1373 1.363 . S
C1374 C1380 1.428 . S
H1375 C1371 0.930 . S
H1376 C1373 0.929 . S
S1377 N1378 1.613 . S
S1377 N1379 1.606 1_545 S
N1378 S1377 1.613 . S
N1378 C1381 1.350 . S
N1379 S1377 1.606 1_565 S
N1379 C1380 1.353 . S
C1380 C1374 1.428 . S
C1380 N1379 1.353 . S
C1380 C1381 1.434 1_565 S
C1381 C1372 1.429 1_545 S
C1381 N1378 1.350 . S
C1381 C1380 1.434 1_545 S
C1382 C1383 1.369 . S
C1382 C1384 1.419 . S
C1382 H1386 0.930 . S
C1383 C1382 1.369 . S
C1383 C1392 1.429 . S
C1384 C1382 1.419 . S
C1384 C1385 1.363 . S
C1384 H1387 0.929 . S
C1385 C1384 1.363 . S
C1385 C1391 1.428 . S
H1386 C1382 0.930 . S
H1387 C1384 0.929 . S
S1388 N1389 1.613 . S
S1388 N1390 1.610 . S
N1389 S1388 1.613 . S
N1389 C1392 1.350 . S
N1390 S1388 1.610 . S
N1390 C1391 1.351 . S
C1391 C1385 1.428 . S
C1391 N1390 1.351 . S
C1391 C1392 1.434 . S
C1392 C1383 1.429 . S
C1392 N1389 1.350 . S
C1392 C1391 1.434 . S
C1393 C1394 1.369 . S
C1393 C1395 1.419 . S
C1393 H1397 0.930 . S
C1394 C1393 1.369 . S
C1394 C1403 1.429 . S
C1395 C1393 1.419 . S
C1395 C1396 1.363 . S
C1395 H1398 0.929 . S
C1396 C1395 1.363 . S
C1396 C1402 1.428 . S
H1397 C1393 0.930 . S
H1398 C1395 0.929 . S
S1399 N1400 1.613 . S
S1399 N1401 1.610 . S
N1400 S1399 1.613 . S
N1400 C1403 1.350 . S
N1401 S1399 1.610 . S
N1401 C1402 1.351 . S
C1402 C1396 1.428 . S
C1402 N1401 1.351 . S
C1402 C1403 1.434 . S
C1403 C1394 1.429 . S
C1403 N1400 1.350 . S
C1403 C1402 1.434 . S
C1404 C1405 1.369 . S
C1404 C1406 1.419 . S
C1404 H1408 0.930 . S
C1405 C1404 1.369 . S
C1405 C1414 1.429 . S
C1406 C1404 1.419 . S
C1406 C1407 1.363 . S
C1406 H1409 0.929 . S
C1407 C1406 1.363 . S
C1407 C1413 1.428 . S
H1408 C1404 0.930 . S
H1409 C1406 0.929 . S
S1410 N1411 1.613 . S
S1410 N1412 1.610 . S
N1411 S1410 1.613 . S
N1411 C1414 1.350 . S
N1412 S1410 1.610 . S
N1412 C1413 1.351 . S
C1413 C1407 1.428 . S
C1413 N1412 1.351 . S
C1413 C1414 1.434 . S
C1414 C1405 1.429 . S
C1414 N1411 1.350 . S
C1414 C1413 1.434 . S
C1415 C1416 1.369 . S
C1415 C1417 1.419 . S
C1415 H1419 0.930 . S
C1416 C1415 1.369 . S
C1416 C1425 1.429 . S
C1417 C1415 1.419 . S
C1417 C1418 1.363 . S
C1417 H1420 0.929 . S
C1418 C1417 1.363 . S
C1418 C1424 1.428 . S
H1419 C1415 0.930 . S
H1420 C1417 0.929 . S
S1421 N1422 1.613 . S
S1421 N1423 1.610 . S
N1422 S1421 1.613 . S
N1422 C1425 1.350 . S
N1423 S1421 1.610 . S
N1423 C1424 1.351 . S
C1424 C1418 1.428 . S
C1424 N1423 1.351 . S
C1424 C1425 1.434 . S
C1425 C1416 1.429 . S
C1425 N1422 1.350 . S
C1425 C1424 1.434 . S
C1426 C1427 1.369 . S
C1426 C1428 1.419 . S
C1426 H1430 0.930 . S
C1427 C1426 1.369 . S
C1427 C1436 1.429 . S
C1428 C1426 1.419 . S
C1428 C1429 1.363 . S
C1428 H1431 0.929 . S
C1429 C1428 1.363 . S
C1429 C1435 1.428 . S
H1430 C1426 0.930 . S
H1431 C1428 0.929 . S
S1432 N1433 1.613 . S
S1432 N1434 1.610 . S
N1433 S1432 1.613 . S
N1433 C1436 1.350 . S
N1434 S1432 1.610 . S
N1434 C1435 1.351 . S
C1435 C1429 1.428 . S
C1435 N1434 1.351 . S
C1435 C1436 1.434 . S
C1436 C1427 1.429 . S
C1436 N1433 1.350 . S
C1436 C1435 1.434 . S
C1437 C1438 1.369 . S
C1437 C1439 1.419 1_554 S
C1437 H1441 0.930 1_554 S
C1438 C1437 1.369 . S
C1438 C1447 1.429 . S
C1439 C1437 1.419 1_556 S
C1439 C1440 1.363 1_556 S
C1439 H1442 0.929 . S
C1440 C1439 1.363 1_554 S
C1440 C1446 1.428 . S
H1441 C1437 0.930 1_556 S
H1442 C1439 0.929 . S
S1443 N1444 1.613 . S
S1443 N1445 1.610 . S
N1444 S1443 1.613 . S
N1444 C1447 1.350 . S
N1445 S1443 1.610 . S
N1445 C1446 1.351 . S
C1446 C1440 1.428 . S
C1446 N1445 1.351 . S
C1446 C1447 1.434 . S
C1447 C1438 1.429 . S
C1447 N1444 1.350 . S
C1447 C1446 1.434 . S
C1448 C1449 1.369 . S
C1448 C1450 1.419 . S
C1448 H1452 0.930 . S
C1449 C1448 1.369 . S
C1449 C1458 1.429 . S
C1450 C1448 1.419 . S
C1450 C1451 1.363 . S
C1450 H1453 0.929 . S
C1451 C1450 1.363 . S
C1451 C1457 1.428 . S
H1452 C1448 0.930 . S
H1453 C1450 0.929 . S
S1454 N1455 1.613 . S
S1454 N1456 1.610 . S
N1455 S1454 1.613 . S
N1455 C1458 1.350 . S
N1456 S1454 1.610 . S
N1456 C1457 1.351 . S
C1457 C1451 1.428 . S
C1457 N1456 1.351 . S
C1457 C1458 1.434 . S
C1458 C1449 1.429 . S
C1458 N1455 1.350 . S
C1458 C1457 1.434 . S
C1459 C1460 1.369 . S
C1459 C1461 1.419 . S
C1459 H1463 0.930 . S
C1460 C1459 1.369 . S
C1460 C1469 1.429 . S
C1461 C1459 1.419 . S
C1461 C1462 1.363 . S
C1461 H1464 0.929 . S
C1462 C1461 1.363 . S
C1462 C1468 1.428 . S
H1463 C1459 0.930 . S
H1464 C1461 0.929 . S
S1465 N1466 1.613 . S
S1465 N1467 1.610 . S
N1466 S1465 1.613 . S
N1466 C1469 1.350 . S
N1467 S1465 1.610 . S
N1467 C1468 1.351 . S
C1468 C1462 1.428 . S
C1468 N1467 1.351 . S
C1468 C1469 1.434 . S
C1469 C1460 1.429 . S
C1469 N1466 1.350 . S
C1469 C1468 1.434 . S
C1470 C1471 1.369 . S
C1470 C1472 1.419 . S
C1470 H1474 0.930 1_655 S
C1471 C1470 1.369 . S
C1471 C1480 1.429 . S
C1472 C1470 1.419 . S
C1472 C1473 1.363 . S
C1472 H1475 0.929 . S
C1473 C1472 1.363 . S
C1473 C1479 1.428 . S
H1474 C1470 0.930 1_455 S
H1475 C1472 0.929 . S
S1476 N1477 1.613 . S
S1476 N1478 1.610 . S
N1477 S1476 1.613 . S
N1477 C1480 1.350 . S
N1478 S1476 1.610 . S
N1478 C1479 1.351 . S
C1479 C1473 1.428 . S
C1479 N1478 1.351 . S
C1479 C1480 1.434 . S
C1480 C1471 1.429 . S
C1480 N1477 1.350 . S
C1480 C1479 1.434 . S
C1481 C1482 1.369 . S
C1481 C1483 1.419 . S
C1481 H1485 0.930 . S
C1482 C1481 1.369 . S
C1482 C1491 1.429 . S
C1483 C1481 1.419 . S
C1483 C1484 1.363 . S
C1483 H1486 0.929 . S
C1484 C1483 1.363 . S
C1484 C1490 1.428 . S
H1485 C1481 0.930 . S
H1486 C1483 0.929 . S
S1487 N1488 1.613 . S
S1487 N1489 1.610 . S
N1488 S1487 1.613 . S
N1488 C1491 1.350 . S
N1489 S1487 1.610 . S
N1489 C1490 1.351 . S
C1490 C1484 1.428 . S
C1490 N1489 1.351 . S
C1490 C1491 1.434 . S
C1491 C1482 1.429 . S
C1491 N1488 1.350 . S
C1491 C1490 1.434 . S
C1492 C1493 1.369 . S
C1492 C1494 1.419 . S
C1492 H1496 0.930 . S
C1493 C1492 1.369 . S
C1493 C1502 1.429 . S
C1494 C1492 1.419 . S
C1494 C1495 1.363 . S
C1494 H1497 0.929 . S
C1495 C1494 1.363 . S
C1495 C1501 1.428 . S
H1496 C1492 0.930 . S
H1497 C1494 0.929 . S
S1498 N1499 1.613 . S
S1498 N1500 1.610 . S
N1499 S1498 1.613 . S
N1499 C1502 1.350 . S
N1500 S1498 1.610 . S
N1500 C1501 1.351 . S
C1501 C1495 1.428 . S
C1501 N1500 1.351 . S
C1501 C1502 1.434 . S
C1502 C1493 1.429 . S
C1502 N1499 1.350 . S
C1502 C1501 1.434 . S
C1503 C1504 1.369 . S
C1503 C1505 1.419 1_545 S
C1503 H1507 0.930 . S
C1504 C1503 1.369 . S
C1504 C1513 1.429 . S
C1505 C1503 1.419 1_565 S
C1505 C1506 1.363 1_565 S
C1505 H1508 0.929 . S
C1506 C1505 1.363 1_545 S
C1506 C1512 1.428 . S
H1507 C1503 0.930 . S
H1508 C1505 0.929 . S
S1509 N1510 1.613 . S
S1509 N1511 1.610 . S
N1510 S1509 1.613 . S
N1510 C1513 1.350 . S
N1511 S1509 1.610 . S
N1511 C1512 1.351 . S
C1512 C1506 1.428 . S
C1512 N1511 1.351 . S
C1512 C1513 1.434 . S
C1513 C1504 1.429 . S
C1513 N1510 1.350 . S
C1513 C1512 1.434 . S
C1514 C1515 1.369 . S
C1514 C1516 1.419 . S
C1514 H1518 0.930 . S
C1515 C1514 1.369 . S
C1515 C1524 1.429 . S
C1516 C1514 1.419 . S
C1516 C1517 1.363 . S
C1516 H1519 0.929 . S
C1517 C1516 1.363 . S
C1517 C1523 1.428 1_565 S
H1518 C1514 0.930 . S
H1519 C1516 0.929 . S
S1520 N1521 1.613 . S
S1520 N1522 1.610 . S
N1521 S1520 1.613 . S
N1521 C1524 1.350 1_545 S
N1522 S1520 1.610 . S
N1522 C1523 1.351 . S
C1523 C1517 1.428 1_545 S
C1523 N1522 1.351 . S
C1523 C1524 1.434 1_545 S
C1524 C1515 1.429 . S
C1524 N1521 1.350 1_565 S
C1524 C1523 1.434 1_565 S
C1525 C1526 1.369 . S
C1525 C1527 1.419 . S
C1525 H1529 0.930 . S
C1526 C1525 1.369 . S
C1526 C1535 1.429 . S
C1527 C1525 1.419 . S
C1527 C1528 1.363 . S
C1527 H1530 0.929 . S
C1528 C1527 1.363 . S
C1528 C1534 1.428 . S
H1529 C1525 0.930 . S
H1530 C1527 0.929 . S
S1531 N1532 1.613 . S
S1531 N1533 1.610 . S
N1532 S1531 1.613 . S
N1532 C1535 1.350 . S
N1533 S1531 1.610 . S
N1533 C1534 1.351 . S
C1534 C1528 1.428 . S
C1534 N1533 1.351 . S
C1534 C1535 1.434 . S
C1535 C1526 1.429 . S
C1535 N1532 1.350 . S
C1535 C1534 1.434 . S
C1536 C1537 1.369 . S
C1536 C1538 1.419 . S
C1536 H1540 0.930 . S
C1537 C1536 1.369 . S
C1537 C1546 1.429 . S
C1538 C1536 1.419 . S
C1538 C1539 1.363 . S
C1538 H1541 0.929 . S
C1539 C1538 1.363 . S
C1539 C1545 1.428 . S
H1540 C1536 0.930 . S
H1541 C1538 0.929 . S
S1542 N1543 1.613 . S
S1542 N1544 1.610 . S
N1543 S1542 1.613 . S
N1543 C1546 1.350 . S
N1544 S1542 1.610 . S
N1544 C1545 1.351 . S
C1545 C1539 1.428 . S
C1545 N1544 1.351 . S
C1545 C1546 1.434 . S
C1546 C1537 1.429 . S
C1546 N1543 1.350 . S
C1546 C1545 1.434 . S
C1547 C1548 1.369 . S
C1547 C1549 1.419 . S
C1547 H1551 0.930 . S
C1548 C1547 1.369 . S
C1548 C1557 1.429 . S
C1549 C1547 1.419 . S
C1549 C1550 1.363 . S
C1549 H1552 0.929 . S
C1550 C1549 1.363 . S
C1550 C1556 1.428 . S
H1551 C1547 0.930 . S
H1552 C1549 0.929 . S
S1553 N1554 1.613 1_556 S
S1553 N1555 1.610 . S
N1554 S1553 1.613 1_554 S
N1554 C1557 1.350 . S
N1555 S1553 1.610 . S
N1555 C1556 1.351 1_556 S
C1556 C1550 1.428 . S
C1556 N1555 1.351 1_554 S
C1556 C1557 1.434 . S
C1557 C1548 1.429 . S
C1557 N1554 1.350 . S
C1557 C1556 1.434 . S
C1558 C1559 1.369 . S
C1558 C1560 1.419 . S
C1558 H1562 0.930 . S
C1559 C1558 1.369 . S
C1559 C1568 1.429 . S
C1560 C1558 1.419 . S
C1560 C1561 1.363 . S
C1560 H1563 0.929 . S
C1561 C1560 1.363 . S
C1561 C1567 1.428 . S
H1562 C1558 0.930 . S
H1563 C1560 0.929 . S
S1564 N1565 1.613 . S
S1564 N1566 1.610 . S
N1565 S1564 1.613 . S
N1565 C1568 1.350 . S
N1566 S1564 1.610 . S
N1566 C1567 1.351 . S
C1567 C1561 1.428 . S
C1567 N1566 1.351 . S
C1567 C1568 1.434 . S
C1568 C1559 1.429 . S
C1568 N1565 1.350 . S
C1568 C1567 1.434 . S
C1569 C1570 1.369 . S
C1569 C1571 1.419 1_556 S
C1569 H1573 0.930 . S
C1570 C1569 1.369 . S
C1570 C1579 1.429 . S
C1571 C1569 1.419 1_554 S
C1571 C1572 1.363 1_554 S
C1571 H1574 0.929 . S
C1572 C1571 1.363 1_556 S
C1572 C1578 1.428 . S
H1573 C1569 0.930 . S
H1574 C1571 0.929 . S
S1575 N1576 1.613 . S
S1575 N1577 1.610 . S
N1576 S1575 1.613 . S
N1576 C1579 1.350 . S
N1577 S1575 1.610 . S
N1577 C1578 1.351 . S
C1578 C1572 1.428 . S
C1578 N1577 1.351 . S
C1578 C1579 1.434 . S
C1579 C1570 1.429 . S
C1579 N1576 1.350 . S
C1579 C1578 1.434 . S
C1580 C1581 1.369 . S
C1580 C1582 1.419 . S
C1580 H1584 0.930 . S
C1581 C1580 1.369 . S
C1581 C1590 1.429 . S
C1582 C1580 1.419 . S
C1582 C1583 1.363 . S
C1582 H1585 0.929 . S
C1583 C1582 1.363 . S
C1583 C1589 1.428 . S
H1584 C1580 0.930 . S
H1585 C1582 0.929 . S
S1586 N1587 1.613 . S
S1586 N1588 1.610 . S
N1587 S1586 1.613 . S
N1587 C1590 1.350 . S
N1588 S1586 1.610 . S
N1588 C1589 1.351 . S
C1589 C1583 1.428 . S
C1589 N1588 1.351 . S
C1589 C1590 1.434 . S
C1590 C1581 1.429 . S
C1590 N1587 1.350 . S
C1590 C1589 1.434 . S
C1591 C1592 1.369 . S
C1591 C1593 1.419 . S
C1591 H1595 0.930 . S
C1592 C1591 1.369 . S
C1592 C1601 1.429 . S
C1593 C1591 1.419 . S
C1593 C1594 1.363 . S
C1593 H1596 0.929 . S
C1594 C1593 1.363 . S
C1594 C1600 1.428 . S
H1595 C1591 0.930 . S
H1596 C1593 0.929 . S
S1597 N1598 1.613 . S
S1597 N1599 1.610 . S
N1598 S1597 1.613 . S
N1598 C1601 1.350 . S
N1599 S1597 1.610 . S
N1599 C1600 1.351 . S
C1600 C1594 1.428 . S
C1600 N1599 1.351 . S
C1600 C1601 1.434 . S
C1601 C1592 1.429 . S
C1601 N1598 1.350 . S
C1601 C1600 1.434 . S
C1602 C1603 1.369 . S
C1602 C1604 1.419 . S
C1602 H1606 0.930 . S
C1603 C1602 1.369 . S
C1603 C1612 1.429 1_455 S
C1604 C1602 1.419 . S
C1604 C1605 1.363 . S
C1604 H1607 0.929 . S
C1605 C1604 1.363 . S
C1605 C1611 1.428 . S
H1606 C1602 0.930 . S
H1607 C1604 0.929 . S
S1608 N1609 1.613 . S
S1608 N1610 1.610 . S
N1609 S1608 1.613 . S
N1609 C1612 1.350 . S
N1610 S1608 1.610 . S
N1610 C1611 1.351 1_655 S
C1611 C1605 1.428 . S
C1611 N1610 1.351 1_455 S
C1611 C1612 1.434 1_455 S
C1612 C1603 1.429 1_655 S
C1612 N1609 1.350 . S
C1612 C1611 1.434 1_655 S
C1613 C1614 1.369 . S
C1613 C1615 1.419 . S
C1613 H1617 0.930 . S
C1614 C1613 1.369 . S
C1614 C1623 1.429 . S
C1615 C1613 1.419 . S
C1615 C1616 1.363 . S
C1615 H1618 0.929 . S
C1616 C1615 1.363 . S
C1616 C1622 1.428 . S
H1617 C1613 0.930 . S
H1618 C1615 0.929 . S
S1619 N1620 1.613 . S
S1619 N1621 1.610 . S
N1620 S1619 1.613 . S
N1620 C1623 1.350 . S
N1621 S1619 1.610 . S
N1621 C1622 1.351 . S
C1622 C1616 1.428 . S
C1622 N1621 1.351 . S
C1622 C1623 1.434 . S
C1623 C1614 1.429 . S
C1623 N1620 1.350 . S
C1623 C1622 1.434 . S
C1624 C1625 1.369 . S
C1624 C1626 1.419 . S
C1624 H1628 0.930 . S
C1625 C1624 1.369 . S
C1625 C1634 1.429 . S
C1626 C1624 1.419 . S
C1626 C1627 1.363 . S
C1626 H1629 0.929 . S
C1627 C1626 1.363 . S
C1627 C1633 1.428 . S
H1628 C1624 0.930 . S
H1629 C1626 0.929 . S
S1630 N1631 1.613 . S
S1630 N1632 1.610 . S
N1631 S1630 1.613 . S
N1631 C1634 1.350 . S
N1632 S1630 1.610 . S
N1632 C1633 1.351 . S
C1633 C1627 1.428 . S
C1633 N1632 1.351 . S
C1633 C1634 1.434 . S
C1634 C1625 1.429 . S
C1634 N1631 1.350 . S
C1634 C1633 1.434 . S
C1635 C1636 1.369 . S
C1635 C1637 1.419 . S
C1635 H1639 0.930 . S
C1636 C1635 1.369 . S
C1636 C1645 1.429 . S
C1637 C1635 1.419 . S
C1637 C1638 1.363 . S
C1637 H1640 0.929 . S
C1638 C1637 1.363 . S
C1638 C1644 1.428 1_565 S
H1639 C1635 0.930 . S
H1640 C1637 0.929 . S
S1641 N1642 1.615 1_545 S
S1641 N1643 1.610 . S
N1642 S1641 1.615 1_565 S
N1642 C1645 1.349 . S
N1643 S1641 1.610 . S
N1643 C1644 1.351 . S
C1644 C1638 1.428 1_545 S
C1644 N1643 1.351 . S
C1644 C1645 1.434 1_545 S
C1645 C1636 1.429 . S
C1645 N1642 1.349 . S
C1645 C1644 1.434 1_565 S
C1646 C1647 1.369 . S
C1646 C1648 1.419 . S
C1646 H1650 0.930 . S
C1647 C1646 1.369 . S
C1647 C1656 1.429 1_545 S
C1648 C1646 1.419 . S
C1648 C1649 1.363 . S
C1648 H1651 0.929 . S
C1649 C1648 1.363 . S
C1649 C1655 1.428 . S
H1650 C1646 0.930 . S
H1651 C1648 0.929 . S
S1652 N1653 1.613 . S
S1652 N1654 1.610 . S
N1653 S1652 1.613 . S
N1653 C1656 1.350 . S
N1654 S1652 1.610 . S
N1654 C1655 1.351 1_565 S
C1655 C1649 1.428 . S
C1655 N1654 1.351 1_545 S
C1655 C1656 1.434 1_545 S
C1656 C1647 1.429 1_565 S
C1656 N1653 1.350 . S
C1656 C1655 1.434 1_565 S
C1657 C1658 1.369 . S
C1657 C1659 1.419 . S
C1657 H1661 0.930 . S
C1658 C1657 1.369 . S
C1658 C1667 1.429 . S
C1659 C1657 1.419 . S
C1659 C1660 1.363 . S
C1659 H1662 0.929 . S
C1660 C1659 1.363 . S
C1660 C1666 1.428 . S
H1661 C1657 0.930 . S
H1662 C1659 0.929 . S
S1663 N1664 1.613 . S
S1663 N1665 1.610 . S
N1664 S1663 1.613 . S
N1664 C1667 1.350 . S
N1665 S1663 1.610 . S
N1665 C1666 1.351 . S
C1666 C1660 1.428 . S
C1666 N1665 1.351 . S
C1666 C1667 1.434 . S
C1667 C1658 1.429 . S
C1667 N1664 1.350 . S
C1667 C1666 1.434 . S
C1668 C1669 1.369 . S
C1668 C1670 1.419 . S
C1668 H1672 0.930 . S
C1669 C1668 1.369 . S
C1669 C1678 1.429 . S
C1670 C1668 1.419 . S
C1670 C1671 1.363 . S
C1670 H1673 0.929 . S
C1671 C1670 1.363 . S
C1671 C1677 1.428 . S
H1672 C1668 0.930 . S
H1673 C1670 0.929 . S
S1674 N1675 1.613 . S
S1674 N1676 1.610 . S
N1675 S1674 1.613 . S
N1675 C1678 1.350 . S
N1676 S1674 1.610 . S
N1676 C1677 1.351 . S
C1677 C1671 1.428 . S
C1677 N1676 1.351 . S
C1677 C1678 1.434 . S
C1678 C1669 1.429 . S
C1678 N1675 1.350 . S
C1678 C1677 1.434 . S
C1679 C1680 1.369 . S
C1679 C1681 1.419 . S
C1679 H1683 0.930 . S
C1680 C1679 1.369 . S
C1680 C1689 1.429 1_556 S
C1681 C1679 1.419 . S
C1681 C1682 1.363 . S
C1681 H1684 0.929 . S
C1682 C1681 1.363 . S
C1682 C1688 1.428 . S
H1683 C1679 0.930 . S
H1684 C1681 0.929 . S
S1685 N1686 1.613 . S
S1685 N1687 1.610 1_554 S
N1686 S1685 1.613 . S
N1686 C1689 1.350 . S
N1687 S1685 1.610 1_556 S
N1687 C1688 1.351 . S
C1688 C1682 1.428 . S
C1688 N1687 1.351 . S
C1688 C1689 1.434 1_556 S
C1689 C1680 1.429 1_554 S
C1689 N1686 1.350 . S
C1689 C1688 1.434 1_554 S
C1690 C1691 1.369 . S
C1690 C1692 1.419 . S
C1690 H1694 0.930 . S
C1691 C1690 1.369 . S
C1691 C1700 1.429 . S
C1692 C1690 1.419 . S
C1692 C1693 1.363 . S
C1692 H1695 0.929 . S
C1693 C1692 1.363 . S
C1693 C1699 1.428 . S
H1694 C1690 0.930 . S
H1695 C1692 0.929 . S
S1696 N1697 1.613 . S
S1696 N1698 1.610 . S
N1697 S1696 1.613 . S
N1697 C1700 1.350 . S
N1698 S1696 1.610 . S
N1698 C1699 1.351 . S
C1699 C1693 1.428 . S
C1699 N1698 1.351 . S
C1699 C1700 1.434 . S
C1700 C1691 1.429 . S
C1700 N1697 1.350 . S
C1700 C1699 1.434 . S
C1701 C1702 1.369 . S
C1701 C1703 1.419 . S
C1701 H1705 0.930 . S
C1702 C1701 1.369 . S
C1702 C1711 1.429 . S
C1703 C1701 1.419 . S
C1703 C1704 1.363 . S
C1703 H1706 0.929 . S
C1704 C1703 1.363 . S
C1704 C1710 1.428 . S
H1705 C1701 0.930 . S
H1706 C1703 0.929 . S
S1707 N1708 1.613 1_556 S
S1707 N1709 1.610 . S
N1708 S1707 1.613 1_554 S
N1708 C1711 1.350 . S
N1709 S1707 1.610 . S
N1709 C1710 1.351 1_556 S
C1710 C1704 1.428 . S
C1710 N1709 1.351 1_554 S
C1710 C1711 1.434 . S
C1711 C1702 1.429 . S
C1711 N1708 1.350 . S
C1711 C1710 1.434 . S
C1712 C1713 1.369 . S
C1712 C1714 1.419 . S
C1712 H1716 0.930 . S
C1713 C1712 1.369 . S
C1713 C1722 1.429 . S
C1714 C1712 1.419 . S
C1714 C1715 1.363 . S
C1714 H1717 0.929 . S
C1715 C1714 1.363 . S
C1715 C1721 1.428 . S
H1716 C1712 0.930 . S
H1717 C1714 0.929 . S
S1718 N1719 1.613 . S
S1718 N1720 1.610 . S
N1719 S1718 1.613 . S
N1719 C1722 1.350 . S
N1720 S1718 1.610 . S
N1720 C1721 1.351 . S
C1721 C1715 1.428 . S
C1721 N1720 1.351 . S
C1721 C1722 1.434 . S
C1722 C1713 1.429 . S
C1722 N1719 1.350 . S
C1722 C1721 1.434 . S
C1723 C1724 1.369 . S
C1723 C1725 1.419 . S
C1723 H1727 0.930 . S
C1724 C1723 1.369 . S
C1724 C1733 1.428 1_455 S
C1725 C1723 1.419 . S
C1725 C1726 1.363 . S
C1725 H1728 0.929 . S
C1726 C1725 1.363 . S
C1726 C1732 1.428 . S
H1727 C1723 0.930 . S
H1728 C1725 0.929 . S
S1729 N1730 1.613 . S
S1729 N1731 1.610 1_655 S
N1730 S1729 1.613 . S
N1730 C1733 1.356 . S
N1731 S1729 1.610 1_455 S
N1731 C1732 1.351 . S
C1732 C1726 1.428 . S
C1732 N1731 1.351 . S
C1732 C1733 1.428 1_455 S
C1733 C1724 1.428 1_655 S
C1733 N1730 1.356 . S
C1733 C1732 1.428 1_655 S
C1734 C1735 1.369 1_455 S
C1734 C1736 1.419 1_455 S
C1734 H1738 0.930 . S
C1735 C1734 1.369 1_655 S
C1735 C1744 1.429 . S
C1736 C1734 1.419 1_655 S
C1736 C1737 1.363 . S
C1736 H1739 0.929 1_655 S
C1737 C1736 1.363 . S
C1737 C1743 1.428 . S
H1738 C1734 0.930 . S
H1739 C1736 0.929 1_455 S
S1740 N1741 1.613 . S
S1740 N1742 1.610 . S
N1741 S1740 1.613 . S
N1741 C1744 1.350 . S
N1742 S1740 1.610 . S
N1742 C1743 1.351 . S
C1743 C1737 1.428 . S
C1743 N1742 1.351 . S
C1743 C1744 1.434 . S
C1744 C1735 1.429 . S
C1744 N1741 1.350 . S
C1744 C1743 1.434 . S
C1745 C1746 1.369 . S
C1745 C1747 1.419 . S
C1745 H1749 0.930 . S
C1746 C1745 1.369 . S
C1746 C1755 1.429 . S
C1747 C1745 1.419 . S
C1747 C1748 1.363 . S
C1747 H1750 0.929 . S
C1748 C1747 1.363 . S
C1748 C1754 1.428 . S
H1749 C1745 0.930 . S
H1750 C1747 0.929 . S
S1751 N1752 1.613 . S
S1751 N1753 1.610 . S
N1752 S1751 1.613 . S
N1752 C1755 1.350 . S
N1753 S1751 1.610 . S
N1753 C1754 1.351 . S
C1754 C1748 1.428 . S
C1754 N1753 1.351 . S
C1754 C1755 1.434 . S
C1755 C1746 1.429 . S
C1755 N1752 1.350 . S
C1755 C1754 1.434 . S
C1756 C1757 1.369 . S
C1756 C1758 1.419 . S
C1756 H1760 0.930 . S
C1757 C1756 1.369 . S
C1757 C1766 1.429 . S
C1758 C1756 1.419 . S
C1758 C1759 1.363 . S
C1758 H1761 0.929 . S
C1759 C1758 1.363 . S
C1759 C1765 1.428 . S
H1760 C1756 0.930 . S
H1761 C1758 0.929 . S
S1762 N1763 1.613 . S
S1762 N1764 1.610 . S
N1763 S1762 1.613 . S
N1763 C1766 1.350 . S
N1764 S1762 1.610 . S
N1764 C1765 1.351 . S
C1765 C1759 1.428 . S
C1765 N1764 1.351 . S
C1765 C1766 1.434 . S
C1766 C1757 1.429 . S
C1766 N1763 1.350 . S
C1766 C1765 1.434 . S
C1767 C1768 1.369 1_565 S
C1767 C1769 1.419 1_565 S
C1767 H1771 0.930 . S
C1768 C1767 1.369 1_545 S
C1768 C1777 1.429 . S
C1769 C1767 1.419 1_545 S
C1769 C1770 1.363 . S
C1769 H1772 0.929 . S
C1770 C1769 1.363 . S
C1770 C1776 1.428 . S
H1771 C1767 0.930 . S
H1772 C1769 0.929 . S
S1773 N1774 1.613 . S
S1773 N1775 1.610 . S
N1774 S1773 1.613 . S
N1774 C1777 1.350 . S
N1775 S1773 1.610 . S
N1775 C1776 1.351 . S
C1776 C1770 1.428 . S
C1776 N1775 1.351 . S
C1776 C1777 1.434 . S
C1777 C1768 1.429 . S
C1777 N1774 1.350 . S
C1777 C1776 1.434 . S
C1778 C1779 1.369 1_545 S
C1778 C1780 1.419 1_545 S
C1778 H1782 0.930 . S
C1779 C1778 1.369 1_565 S
C1779 C1788 1.429 . S
C1780 C1778 1.419 1_565 S
C1780 C1781 1.363 . S
C1780 H1783 0.929 . S
C1781 C1780 1.363 . S
C1781 C1787 1.428 . S
H1782 C1778 0.930 . S
H1783 C1780 0.929 . S
S1784 N1785 1.613 . S
S1784 N1786 1.610 . S
N1785 S1784 1.613 . S
N1785 C1788 1.350 . S
N1786 S1784 1.610 . S
N1786 C1787 1.351 . S
C1787 C1781 1.428 . S
C1787 N1786 1.351 . S
C1787 C1788 1.434 . S
C1788 C1779 1.429 . S
C1788 N1785 1.350 . S
C1788 C1787 1.434 . S
C1789 C1790 1.369 . S
C1789 C1791 1.419 . S
C1789 H1793 0.930 . S
C1790 C1789 1.369 . S
C1790 C1799 1.429 . S
C1791 C1789 1.419 . S
C1791 C1792 1.363 . S
C1791 H1794 0.929 . S
C1792 C1791 1.363 . S
C1792 C1798 1.428 . S
H1793 C1789 0.930 . S
H1794 C1791 0.929 . S
S1795 N1796 1.613 . S
S1795 N1797 1.610 . S
N1796 S1795 1.613 . S
N1796 C1799 1.350 . S
N1797 S1795 1.610 . S
N1797 C1798 1.351 . S
C1798 C1792 1.428 . S
C1798 N1797 1.351 . S
C1798 C1799 1.434 . S
C1799 C1790 1.429 . S
C1799 N1796 1.350 . S
C1799 C1798 1.434 . S
C745 C582 1.208 . S
C747 C18 1.144 . S
C756 C49 1.156 . S
C758 C613 1.204 . S
C767 C520 1.206 . S
C769 C80 1.143 . S
C778 C111 1.154 . S
C780 C551 1.203 . S
C789 C706 1.203 . S
C791 C142 1.149 . S
C800 C675 1.207 . S
C802 C173 1.143 . S
C811 C737 1.202 . S
C813 C204 1.151 . S
C822 C644 1.208 . S
C824 C235 1.149 . S
C833 C266 1.149 . S
C835 C427 1.203 . S
C844 C489 1.203 . S
C846 C297 1.149 . S
C855 C328 1.146 . S
C857 C458 1.204 . S
C866 C396 1.207 . S
C868 C359 1.143 . S
C877 C186 1.206 . S
C879 C383 1.143 . S
C888 C217 1.207 . S
C890 C414 1.143 . S
C899 C124 1.207 . S
C901 C445 1.151 . S
C910 C476 1.153 . S
C912 C155 1.206 . S
C921 C310 1.207 . S
C923 C507 1.152 . S
C932 C538 1.151 . S
C934 C279 1.207 . S
C943 C341 1.208 . S
C945 C569 1.145 . S
C954 C248 1.207 . S
C956 C600 1.151 . S
C965 C631 1.148 . S
C967 C31 1.207 . S
C976 C93 1.203 . S
C978 C662 1.153 . S
C987 C693 1.142 . S
C989 C62 1.207 . S
C998 C724 1.155 . S
C1000 C0 1.205 . S
C1009 C272 1.520 . S
C1011 C27 1.737 . S
C1020 C58 1.726 . S
C1022 C365 1.530 . S
C1031 C89 1.726 . S
C1033 C303 1.528 . S
C1042 C120 1.731 . S
C1044 C334 1.521 . S
C1053 C151 1.730 . S
C1055 C24 1.531 . S
C1064 C182 1.735 . S
C1066 C55 1.528 . S
C1075 C86 1.521 . S
C1077 C213 1.737 . S
C1086 C244 1.733 . S
C1088 C117 1.520 . S
C1097 C148 1.517 . S
C1099 C275 1.737 . S
C1108 C306 1.739 . S
C1110 C210 1.519 . S
C1119 C241 1.526 . S
C1121 C337 1.735 . S
C1130 C179 1.517 . S
C1132 C368 1.737 . S
C1141 C620 1.524 . S
C1143 C373 1.736 . S
C1152 C404 1.739 . S
C1154 C713 1.520 . S
C1163 C651 1.531 . S
C1165 C435 1.727 . S
C1174 C466 1.726 . S
C1176 C682 1.528 . S
C1185 C372 1.532 . S
C1187 C497 1.727 . S
C1196 C403 1.529 . S
C1198 C528 1.728 . S
C1207 C559 1.738 . S
C1209 C434 1.518 . S
C1218 C465 1.521 . S
C1220 C590 1.737 . S
C1229 C496 1.519 . S
C1231 C621 1.737 . S
C1240 C652 1.726 . S
C1242 C558 1.531 . S
C1251 C683 1.738 . S
C1253 C589 1.518 . S
C1262 C714 1.728 . S
C1264 C527 1.531 . S
C1273 C2 1.411 . S
C1275 C342 1.396 . S
C1284 C249 1.392 . S
C1286 C33 1.413 1_554 S
C1295 C64 1.415 . S
C1297 C311 1.393 . S
C1306 C95 1.413 1_556 S
C1308 C280 1.390 . S
C1317 C63 1.384 . S
C1319 C126 1.405 . S
C1328 C94 1.397 . S
C1330 C157 1.411 1_655 S
C1339 C1 1.397 . S
C1341 C188 1.411 1_455 S
C1350 C219 1.406 . S
C1352 C32 1.392 . S
C1361 C218 1.384 . S
C1363 C250 1.407 . S
C1372 C281 1.403 1_565 S
C1374 C156 1.386 . S
C1383 C125 1.395 . S
C1385 C312 1.408 1_545 S
C1394 C343 1.406 . S
C1396 C187 1.393 . S
C1405 C740 1.390 . S
C1407 C382 1.413 . S
C1416 C647 1.384 . S
C1418 C413 1.407 1_556 S
C1427 C709 1.397 . S
C1429 C444 1.413 . S
C1438 C678 1.390 . S
C1440 C475 1.413 1_554 S
C1449 C506 1.409 . S
C1451 C461 1.386 . S
C1460 C537 1.407 1_455 S
C1462 C492 1.394 . S
C1471 C568 1.410 1_655 S
C1473 C399 1.395 . S
C1482 C599 1.404 . S
C1484 C430 1.385 . S
C1493 C616 1.384 . S
C1495 C630 1.405 . S
C1504 C554 1.386 . S
C1506 C661 1.410 1_545 S
C1515 C523 1.394 . S
C1517 C692 1.406 1_565 S
C1526 C585 1.396 . S
C1528 C723 1.413 . S
C1537 C684 1.869 . S
C1539 C11 1.883 . S
C1548 C653 1.869 . S
C1550 C42 1.880 1_554 S
C1559 C73 1.884 . S
C1561 C715 1.872 . S
C1570 C622 1.876 . S
C1572 C104 1.882 1_556 S
C1581 C135 1.883 . S
C1583 C405 1.870 . S
C1592 C374 1.877 . S
C1594 C166 1.880 1_655 S
C1603 C197 1.878 1_455 S
C1605 C467 1.870 . S
C1614 C228 1.877 . S
C1616 C436 1.874 . S
C1625 C560 1.876 . S
C1627 C259 1.878 . S
C1636 C498 1.875 . S
C1638 C290 1.878 1_565 S
C1647 C321 1.878 1_545 S
C1649 C529 1.871 . S
C1658 C352 1.877 . S
C1660 C591 1.873 . S
C1669 C390 1.882 . S
C1671 C320 1.876 . S
C1680 C421 1.878 1_556 S
C1682 C289 1.870 . S
C1691 C351 1.871 . S
C1693 C452 1.883 . S
C1702 C258 1.874 . S
C1704 C483 1.878 1_554 S
C1713 C514 1.880 . S
C1715 C41 1.870 . S
C1724 C545 1.879 1_455 S
C1726 C10 1.870 . S
C1735 C576 1.884 1_655 S
C1737 C103 1.873 . S
C1746 C607 1.882 . S
C1748 C72 1.870 . S
C1757 C638 1.883 . S
C1759 C196 1.871 . S
C1768 C669 1.883 1_545 S
C1770 C134 1.875 . S
C1779 C700 1.882 1_565 S
C1781 C165 1.876 . S
C1790 C227 1.869 . S
C1792 C731 1.879 . S
