# Generated by pormake.
# Topology noo, (5)-cn, num edge types: 1
# Building blocks:
#     Node 0, Type 0, BuildingBlock: XOMCOT_clean_sbu_1, # of connection points: 5
#     Node 1, Type 0, BuildingBlock: XOMCOT_clean_sbu_1, # of connection points: 5
#     Node 2, Type 0, BuildingBlock: XOMCOT_clean_sbu_1, # of connection points: 5
#     Node 3, Type 0, BuildingBlock: XOMCOT_clean_sbu_1, # of connection points: 5
#     Node 4, Type 0, BuildingBlock: XOMCOT_clean_sbu_1, # of connection points: 5
#     Node 5, Type 0, BuildingBlock: XOMCOT_clean_sbu_1, # of connection points: 5
#     Node 6, Type 0, BuildingBlock: XOMCOT_clean_sbu_1, # of connection points: 5
#     Node 7, Type 0, BuildingBlock: XOMCOT_clean_sbu_1, # of connection points: 5
#     Edge 8, Type (0, 0), BuildingBlock: TEMPAE_clean_linker_10, # of connection points: 2
#     Edge 9, Type (0, 0), BuildingBlock: TEMPAE_clean_linker_10, # of connection points: 2
#     Edge 10, Type (0, 0), BuildingBlock: TEMPAE_clean_linker_10, # of connection points: 2
#     Edge 11, Type (0, 0), BuildingBlock: TEMPAE_clean_linker_10, # of connection points: 2
#     Edge 12, Type (0, 0), BuildingBlock: TEMPAE_clean_linker_10, # of connection points: 2
#     Edge 13, Type (0, 0), BuildingBlock: TEMPAE_clean_linker_10, # of connection points: 2
#     Edge 14, Type (0, 0), BuildingBlock: TEMPAE_clean_linker_10, # of connection points: 2
#     Edge 15, Type (0, 0), BuildingBlock: TEMPAE_clean_linker_10, # of connection points: 2
#     Edge 16, Type (0, 0), BuildingBlock: TEMPAE_clean_linker_10, # of connection points: 2
#     Edge 17, Type (0, 0), BuildingBlock: TEMPAE_clean_linker_10, # of connection points: 2
#     Edge 18, Type (0, 0), BuildingBlock: TEMPAE_clean_linker_10, # of connection points: 2
#     Edge 19, Type (0, 0), BuildingBlock: TEMPAE_clean_linker_10, # of connection points: 2
#     Edge 20, Type (0, 0), BuildingBlock: TEMPAE_clean_linker_10, # of connection points: 2
#     Edge 21, Type (0, 0), BuildingBlock: TEMPAE_clean_linker_10, # of connection points: 2
#     Edge 22, Type (0, 0), BuildingBlock: TEMPAE_clean_linker_10, # of connection points: 2
#     Edge 23, Type (0, 0), BuildingBlock: TEMPAE_clean_linker_10, # of connection points: 2
#     Edge 24, Type (0, 0), BuildingBlock: TEMPAE_clean_linker_10, # of connection points: 2
#     Edge 25, Type (0, 0), BuildingBlock: TEMPAE_clean_linker_10, # of connection points: 2
#     Edge 26, Type (0, 0), BuildingBlock: TEMPAE_clean_linker_10, # of connection points: 2
#     Edge 27, Type (0, 0), BuildingBlock: TEMPAE_clean_linker_10, # of connection points: 2
# Relax obj value: 0.064
# Max RMSD: 0.100
# Mean RMSD: 0.100
data_MOF--net-noo--node1-XOMCOT_clean_sbu_1--edge1-TEMPAE_clean_linker_10
_symmetry_space_group_name_H-M    P1
_symmetry_Int_Tables_number       1
_symmetry_cell_setting            triclinic
loop_
_symmetry_equiv_pos_as_xyz
'x, y, z'
_cell_length_a     41.876746
_cell_length_b     41.835347
_cell_length_c     26.49756
_cell_angle_alpha  89.848686
_cell_angle_beta   90.031148
_cell_angle_gamma 89.785346
loop_
_atom_site_label
_atom_site_type_symbol
_atom_site_fract_x
_atom_site_fract_y
_atom_site_fract_z
_atom_type_partial_charge
C0 C 0.40205 0.25931 0.96927 0.0
C1 C 0.38612 0.28753 0.97736 0.0
N2 N 0.38214 0.29117 1.02741 0.0
N3 N 0.40809 0.24511 1.01401 0.0
C4 C 0.3955 0.26504 0.04895 0.0
H5 H 0.41009 0.25052 0.93313 0.0
Co6 Co 0.43468 0.20978 1.0209 0.0
C7 C 0.42138 0.18083 0.12282 0.0
O8 O 0.45096 0.17038 0.12495 0.0
N9 N 0.46226 0.17394 1.02615 0.0
C10 C 0.50544 0.14304 1.03233 0.0
C11 C 0.49447 0.1739 1.02998 0.0
C12 C 0.45438 0.14254 1.02498 0.0
N13 N 0.48023 0.12334 1.02928 0.0
O14 O 0.40578 0.18517 0.97918 0.0
H15 H 0.50951 0.19476 1.03081 0.0
H16 H 0.43013 0.13391 1.02195 0.0
O17 O 0.41203 0.19736 0.08457 0.0
C18 C 0.41857 0.18358 0.93533 0.0
O19 O 0.44683 0.19656 0.92896 0.0
N20 N 0.46454 0.2357 0.05355 0.0
C21 C 0.51968 0.27003 0.07448 0.0
C22 C 0.50114 0.25758 0.11407 0.0
C23 C 0.47319 0.24041 0.10273 0.0
C24 C 0.4808 0.25035 1.01553 0.0
C25 C 0.5085 0.26733 1.02504 0.0
H26 H 0.45943 0.23044 0.13321 0.0
H27 H 0.47324 0.24698 0.97691 0.0
H28 H 0.39777 0.26147 0.08927 0.0
H29 H 0.3787 0.30452 0.94873 0.0
H30 H 0.53018 0.1356 0.0349 0.0
H31 H 0.50884 0.25997 0.15289 0.0
H32 H 0.52179 0.27728 0.99366 0.0
C33 C 0.73984 0.44655 1.01587 0.0
C34 C 0.7112 0.43092 1.01198 0.0
N35 N 0.71506 0.40096 1.02975 0.0
N36 N 0.7617 0.42684 0.03686 0.0
C37 C 0.74618 0.39882 0.04309 0.0
H38 H 0.74416 0.47123 1.00583 0.0
Co39 Co 0.80324 0.43969 0.05331 0.0
C40 C 0.78908 0.39769 0.14928 0.0
O41 O 0.75777 0.39794 0.14757 0.0
N42 N 0.84469 0.45292 0.06958 0.0
C43 C 0.88407 0.47277 0.11588 0.0
C44 C 0.85399 0.46015 0.11699 0.0
C45 C 0.86974 0.46129 0.04012 0.0
N46 N 0.8939 0.47369 0.06758 0.0
O47 O 0.82018 0.40634 1.00994 0.0
H48 H 0.83921 0.45781 0.15024 0.0
H49 H 0.86971 0.45992 0.99936 0.0
O50 O 0.80528 0.41216 0.11508 0.0
C51 C 0.81911 0.41899 0.96581 0.0
O52 O 0.80834 0.44849 0.96231 0.0
N53 N 0.78649 0.47536 0.08805 0.0
C54 C 0.75169 0.53175 0.10136 0.0
C55 C 0.74445 0.50433 0.12981 0.0
C56 C 0.76226 0.47618 0.12255 0.0
C57 C 0.79534 0.50264 0.06356 0.0
C58 C 0.77867 0.53109 0.07025 0.0
H59 H 0.75439 0.45472 0.14085 0.0
H60 H 0.81364 0.50177 0.03487 0.0
H61 H 0.75729 0.37742 0.05809 0.0
H62 H 0.68886 0.44138 0.99952 0.0
H63 H 0.89751 0.48125 0.14806 0.0
H64 H 0.72365 0.50382 0.15407 0.0
H65 H 0.7854 0.55181 0.04811 0.0
C66 C 0.56474 0.73916 0.98632 0.0
C67 C 0.57669 0.7096 0.99922 0.0
N68 N 0.60248 0.71372 1.02899 0.0
N69 N 0.5828 0.76193 1.00789 0.0
C70 C 0.60573 0.74576 0.03336 0.0
H71 H 0.5441 0.74382 0.96283 0.0
Co72 Co 0.57565 0.80585 1.00281 0.0
C73 C 0.5916 0.83187 0.10248 0.0
O74 O 0.564 0.8468 0.09957 0.0
N75 N 0.56956 0.85099 0.997 0.0
C76 C 0.58524 0.90167 0.9891 0.0
C77 C 0.59511 0.87058 0.99318 0.0
C78 C 0.54419 0.87139 0.99626 0.0
N79 N 0.55322 0.90219 0.99097 0.0
O80 O 0.61275 0.80956 0.9595 0.0
H81 H 0.61977 0.86293 0.99465 0.0
H82 H 0.51957 0.8644 1.00028 0.0
O83 O 0.60018 0.81336 0.06629 0.0
C84 C 0.60125 0.80531 0.91522 0.0
O85 O 0.57093 0.79755 0.91179 0.0
N86 N 0.53681 0.79993 0.03697 0.0
C87 C 0.47835 0.76987 0.0556 0.0
C88 C 0.50362 0.76747 0.09054 0.0
C89 C 0.53282 0.78272 0.08047 0.0
C90 C 0.51212 0.80327 1.00393 0.0
C91 C 0.48248 0.78982 1.01355 0.0
H92 H 0.55304 0.7777 0.10464 0.0
H93 H 0.51618 0.81407 0.9674 0.0
H94 H 0.62425 0.75727 0.05513 0.0
H95 H 0.56739 0.68685 0.98673 0.0
H96 H 0.60049 0.92246 0.98677 0.0
H97 H 0.50186 0.75187 0.12307 0.0
H98 H 0.46373 0.79302 0.98583 0.0
C99 C 0.26491 0.57999 1.00122 0.0
C100 C 0.29379 0.59556 1.00011 0.0
N101 N 0.29189 0.62109 1.03085 0.0
N102 N 0.2451 0.59534 0.03321 0.0
C103 C 0.26198 0.62075 0.04981 0.0
H104 H 0.25916 0.55803 0.98186 0.0
Co105 Co 0.20481 0.58067 0.05251 0.0
C106 C 0.21411 0.60895 0.15818 0.0
O107 O 0.23126 0.58472 0.17402 0.0
N108 N 0.16368 0.56696 0.07172 0.0
C109 C 0.12385 0.5491 0.11936 0.0
C110 C 0.15406 0.56146 0.11965 0.0
C111 C 0.13851 0.55797 0.04292 0.0
N112 N 0.11414 0.5467 0.07114 0.0
O113 O 0.18586 0.61337 1.01001 0.0
H114 H 0.16858 0.56457 0.15289 0.0
H115 H 0.13852 0.55815 1.00212 0.0
O116 O 0.20374 0.6097 0.11256 0.0
C117 C 0.18421 0.60118 0.96581 0.0
O118 O 0.19429 0.57162 0.95993 0.0
N119 N 0.22438 0.54465 0.08721 0.0
C120 C 0.25647 0.48639 0.10589 0.0
C121 C 0.27162 0.51576 0.11421 0.0
C122 C 0.25531 0.54445 0.10448 0.0
C123 C 0.2094 0.51595 0.08017 0.0
C124 C 0.2244 0.48699 0.09107 0.0
H125 H 0.26857 0.56639 0.1081 0.0
H126 H 0.18641 0.51456 0.06214 0.0
H127 H 0.2532 0.6378 0.07714 0.0
H128 H 0.31475 0.58839 0.97903 0.0
H129 H 0.11022 0.5419 0.15216 0.0
H130 H 0.29658 0.51675 0.12471 0.0
H131 H 0.21136 0.46508 0.08454 0.0
C132 C 0.92014 0.24717 0.61441 0.0
C133 C 0.90333 0.21904 0.61245 0.0
N134 N 0.88511 0.21948 0.57058 0.0
N135 N 0.91239 0.26543 0.57419 0.0
C136 C 0.89077 0.24797 0.54831 0.0
H137 H 0.93795 0.2533 0.64225 0.0
Co138 Co 0.93191 0.30426 0.55848 0.0
C139 C 0.90909 0.30388 0.44786 0.0
O140 O 0.93539 0.29052 0.43131 0.0
N141 N 0.9514 0.34387 0.54248 0.0
C142 C 0.97868 0.38058 0.49976 0.0
C143 C 0.96448 0.35126 0.49732 0.0
C144 C 0.95795 0.36957 0.5718 0.0
N145 N 0.97475 0.39205 0.54667 0.0
O146 O 0.89977 0.32611 0.59853 0.0
H147 H 0.96522 0.33581 0.46497 0.0
H148 H 0.95165 0.37154 0.61118 0.0
O149 O 0.90547 0.30947 0.49527 0.0
C150 C 0.91096 0.32685 0.64356 0.0
O151 O 0.93976 0.3152 0.65124 0.0
N152 N 0.96637 0.28146 0.52801 0.0
C153 C 0.02203 0.24574 0.50902 0.0
C154 C 0.99229 0.2358 0.49025 0.0
C155 C 0.96466 0.25355 0.50122 0.0
C156 C 0.99502 0.29051 0.54796 0.0
C157 C 0.02296 0.27355 0.53822 0.0
H158 H 0.94192 0.24431 0.48901 0.0
H159 H 0.99624 0.31022 0.57413 0.0
H160 H 0.88029 0.25528 0.51279 0.0
H161 H 0.9056 0.19908 0.63831 0.0
H162 H 0.99118 0.3925 0.46934 0.0
H163 H 0.99019 0.21407 0.46842 0.0
H164 H 0.04487 0.28134 0.55603 0.0
C165 C 0.76572 0.9211 0.5703 0.0
C166 C 0.79331 0.9032 0.57101 0.0
N167 N 0.79185 0.8817 0.53329 0.0
N168 N 0.74695 0.91095 0.53233 0.0
C169 C 0.76335 0.88674 0.51069 0.0
H170 H 0.76007 0.94093 0.59487 0.0
Co171 Co 0.70812 0.92949 0.51484 0.0
C172 C 0.71368 0.9092 0.40366 0.0
O173 O 0.72816 0.93564 0.39048 0.0
N174 N 0.66834 0.94784 0.4971 0.0
C175 C 0.63135 0.97382 0.45271 0.0
C176 C 0.66098 0.96002 0.45124 0.0
C177 C 0.64242 0.95454 0.52587 0.0
N178 N 0.61974 0.9706 0.49972 0.0
O179 O 0.68681 0.89548 0.55072 0.0
H180 H 0.67662 0.96047 0.41905 0.0
H181 H 0.64057 0.949 0.5656 0.0
O182 O 0.70595 0.90462 0.45005 0.0
C183 C 0.68485 0.9046 0.59669 0.0
O184 O 0.69498 0.93339 0.60814 0.0
N185 N 0.73026 0.96562 0.48795 0.0
C186 C 0.76534 0.02238 0.47686 0.0
C187 C 0.7774 0.99316 0.45892 0.0
C188 C 0.75983 0.96499 0.46583 0.0
C189 C 0.71882 0.99387 0.50653 0.0
C190 C 0.73546 0.02234 0.50052 0.0
H191 H 0.77066 0.94256 0.455 0.0
H192 H 0.69754 0.9944 0.52948 0.0
H193 H 0.75486 0.87334 0.47857 0.0
H194 H 0.81341 0.90658 0.59612 0.0
H195 H 0.61938 0.98561 0.42155 0.0
H196 H 0.80069 0.99183 0.44131 0.0
H197 H 0.7258 0.04381 0.51752 0.0
C198 C 0.06054 0.76961 0.57661 0.0
C199 C 0.07507 0.79884 0.58024 0.0
N200 N 0.10661 0.79487 0.57224 0.0
N201 N 0.08261 0.7472 0.56527 0.0
C202 C 0.11062 0.76308 0.56519 0.0
H203 H 0.0352 0.76528 0.57988 0.0
Co204 Co 0.07358 0.70442 0.55064 0.0
C205 C 0.11873 0.72087 0.46065 0.0
O206 O 0.11617 0.75212 0.463 0.0
N207 N 0.06397 0.66191 0.5363 0.0
C208 C 0.0495 0.61973 0.49134 0.0
C209 C 0.06125 0.65015 0.48911 0.0
C210 C 0.05361 0.63811 0.56678 0.0
N211 N 0.04444 0.61224 0.54009 0.0
O212 O 0.10618 0.69098 0.59825 0.0
H213 H 0.06572 0.66347 0.45485 0.0
H214 H 0.05107 0.64033 0.60725 0.0
O215 O 0.10388 0.70326 0.49261 0.0
C216 C 0.09308 0.69232 0.64187 0.0
O217 O 0.0632 0.70197 0.64412 0.0
N218 N 0.03889 0.71725 0.51026 0.0
C219 C 0.98114 0.74335 0.47722 0.0
C220 C 0.00958 0.74927 0.45074 0.0
C221 C 0.03834 0.73582 0.46781 0.0
C222 C 0.01118 0.70976 0.5344 0.0
C223 C 0.9821 0.72234 0.51843 0.0
H224 H 0.05992 0.74198 0.44845 0.0
H225 H 0.01197 0.69566 0.56865 0.0
H226 H 0.13335 0.75168 0.55768 0.0
H227 H 0.06293 0.82149 0.58521 0.0
H228 H 0.04424 0.60454 0.4594 0.0
H229 H 0.00982 0.76526 0.41853 0.0
H230 H 0.96097 0.71752 0.54069 0.0
C231 C 0.25063 0.07768 0.58884 0.0
C232 C 0.22221 0.094 0.59301 0.0
N233 N 0.22104 0.11619 0.55617 0.0
N234 N 0.26743 0.08962 0.54972 0.0
C235 C 0.24883 0.11329 0.53074 0.0
H236 H 0.25803 0.05755 0.61175 0.0
Co237 Co 0.30679 0.07344 0.52774 0.0
C238 C 0.29694 0.09959 0.4208 0.0
O239 O 0.28015 0.07464 0.40754 0.0
N240 N 0.34695 0.05807 0.50563 0.0
C241 C 0.38455 0.03785 0.45571 0.0
C242 C 0.35436 0.05038 0.45751 0.0
C243 C 0.37338 0.04998 0.5324 0.0
N244 N 0.39645 0.03733 0.50286 0.0
O245 O 0.32773 0.10558 0.56831 0.0
H246 H 0.33841 0.05215 0.4257 0.0
H247 H 0.37532 0.05197 0.57292 0.0
O248 O 0.30698 0.10197 0.46649 0.0
C249 C 0.32951 0.09194 0.61162 0.0
O250 O 0.31989 0.06211 0.6149 0.0
N251 N 0.28533 0.03784 0.49676 0.0
C252 C 0.24989 0.98092 0.4928 0.0
C253 C 0.23591 0.01026 0.47939 0.0
C254 C 0.25394 0.03838 0.4818 0.0
C255 C 0.2993 0.00896 0.50756 0.0
C256 C 0.28249 0.98045 0.5041 0.0
H257 H 0.24167 0.06072 0.47526 0.0
H258 H 0.32279 0.00748 0.52393 0.0
H259 H 0.25501 0.12755 0.49811 0.0
H260 H 0.20323 0.08899 0.61957 0.0
H261 H 0.39667 0.0294 0.42219 0.0
H262 H 0.21066 0.01196 0.47096 0.0
H263 H 0.29454 0.95838 0.51416 0.0
C264 C 0.50763 0.93348 1.02384 0.0
C265 C 0.53368 0.93054 0.99096 0.0
C266 C 0.49207 0.96307 1.03012 0.0
C267 C 0.50288 0.99008 1.00274 0.0
C268 C 0.52756 0.98647 0.96667 0.0
C269 C 0.54265 0.95678 0.96135 0.0
C270 C 0.46565 0.96588 0.06855 0.0
C271 C 0.53967 0.01451 0.93625 0.0
C272 C 0.46232 0.07135 0.99584 0.0
C273 C 0.48165 0.089 1.02868 0.0
C274 C 0.46736 0.03834 0.98931 0.0
C275 C 0.49219 0.02288 1.01645 0.0
C276 C 0.51007 0.04027 0.05241 0.0
C277 C 0.50461 0.07309 0.05794 0.0
C278 C 0.44761 0.02059 0.95097 0.0
C279 C 0.53653 0.02473 0.08263 0.0
H280 H 0.5007 0.9132 0.04681 0.0
H281 H 0.56241 0.95428 0.93524 0.0
H282 H 0.475 0.97763 0.10299 0.0
H283 H 0.44582 0.98092 0.05387 0.0
H284 H 0.45605 0.94211 0.07941 0.0
H285 H 0.55656 0.007 0.90617 0.0
H286 H 0.51949 0.0276 0.91853 0.0
H287 H 0.55217 0.03144 0.96161 0.0
H288 H 0.44456 0.08366 0.97318 0.0
H289 H 0.51908 0.08668 0.08408 0.0
H290 H 0.44036 0.99689 0.96583 0.0
H291 H 0.46211 0.01641 0.91658 0.0
H292 H 0.42586 0.03424 0.93999 0.0
H293 H 0.52798 1.00236 0.10056 0.0
H294 H 0.54589 0.04073 0.11254 0.0
H295 H 0.55653 0.01827 0.0571 0.0
C296 C 0.94212 0.47141 1.01402 0.0
C297 C 0.92354 0.48706 0.05037 0.0
C298 C 0.9737 0.48117 1.00447 0.0
C299 C 0.98664 0.50712 1.03195 0.0
C300 C 0.96683 0.52468 0.0652 0.0
C301 C 0.93559 0.51438 0.074 0.0
C302 C 0.99384 0.4622 0.96802 0.0
C303 C 0.97938 0.55274 0.09489 0.0
C304 C 0.07096 0.50779 0.08151 0.0
C305 C 0.08438 0.53323 0.05452 0.0
C306 C 0.03992 0.49733 0.07152 0.0
C307 C 0.0217 0.51274 0.0335 0.0
C308 C 0.03602 0.53673 1.00326 0.0
C309 C 0.06735 0.54673 1.01415 0.0
C310 C 0.02585 0.47138 0.10438 0.0
C311 C 0.01761 0.55338 0.96185 0.0
H312 H 0.93268 0.45038 0.99554 0.0
H313 H 0.92087 0.52691 0.10122 0.0
H314 H 0.00947 0.47816 0.94553 0.0
H315 H 0.00949 0.44556 0.98946 0.0
H316 H 0.97888 0.44788 0.94191 0.0
H317 H 0.96002 0.56595 0.1146 0.0
H318 H 0.99672 0.54409 0.12359 0.0
H319 H 0.99215 0.56961 0.06972 0.0
H320 H 0.08448 0.49675 0.11181 0.0
H321 H 0.0778 0.56628 0.99304 0.0
H322 H 0.01427 0.45287 0.08082 0.0
H323 H 0.00721 0.48184 0.12918 0.0
H324 H 0.04413 0.45964 0.12859 0.0
H325 H 1.0028 0.53613 0.94048 0.0
H326 H 0.03375 0.56595 0.93516 0.0
H327 H 1.00126 0.57131 0.97877 0.0
C328 C 0.96835 0.44101 0.59777 0.0
C329 C 0.98655 0.42216 0.56481 0.0
C330 C 0.97707 0.47282 0.60782 0.0
C331 C 1.00444 0.48581 0.58408 0.0
C332 C 0.02441 0.4658 0.55472 0.0
C333 C 0.01523 0.43424 0.5456 0.0
C334 C 0.95565 0.49311 0.64049 0.0
C335 C 0.054 0.47845 0.52902 0.0
C336 C 0.00613 0.56873 0.5291 0.0
C337 C 0.03 0.58323 0.55799 0.0
C338 C 0.9956 0.53782 0.54004 0.0
C339 C 0.00923 0.52096 0.58118 0.0
C340 C 0.03119 0.53659 0.61342 0.0
C341 C 0.04142 0.5677 0.60135 0.0
C342 C 0.97188 0.52232 0.50485 0.0
C343 C 0.04564 0.51973 0.65837 0.0
H344 H 0.94629 0.4316 0.61306 0.0
H345 H 0.02981 0.41933 0.52138 0.0
H346 H 0.96983 0.50978 0.66398 0.0
H347 H 0.93968 0.50768 0.61609 0.0
H348 H 0.9405 0.47818 0.66557 0.0
H349 H 0.06868 0.45903 0.5122 0.0
H350 H 0.04695 0.49525 0.49845 0.0
H351 H 0.06899 0.49185 0.55614 0.0
H352 H 0.99664 0.58116 0.49642 0.0
H353 H 0.0597 0.57907 0.62394 0.0
H354 H 0.95226 0.5111 0.52658 0.0
H355 H 0.98397 0.50315 0.48307 0.0
H356 H 0.96132 0.53968 0.47771 0.0
H357 H 0.02768 0.50462 0.67776 0.0
H358 H 0.0557 0.53698 0.68589 0.0
H359 H 0.06526 0.50384 0.64548 0.0
C360 C 0.5766 0.01038 0.49549 0.0
C361 C 0.58945 0.98259 0.51718 0.0
C362 C 0.54505 0.01964 0.50483 0.0
C363 C 0.52587 1.00077 0.53712 0.0
C364 C 0.53959 0.97439 0.56296 0.0
C365 C 0.57134 0.96549 0.55252 0.0
C366 C 0.53155 0.04812 0.47672 0.0
C367 C 0.52016 0.9542 0.59873 0.0
C368 C 0.44426 0.03819 0.55781 0.0
C369 C 0.42714 0.02477 0.51762 0.0
C370 C 0.47595 0.02877 0.56766 0.0
C371 C 0.49071 0.00569 0.53626 0.0
C372 C 0.47266 0.99045 0.49815 0.0
C373 C 0.44111 1.00007 0.48955 0.0
C374 C 0.49415 0.04498 0.60947 0.0
C375 C 0.48732 0.96558 0.4639 0.0
H376 H 0.59092 0.02423 0.46943 0.0
H377 H 0.58131 0.94415 0.56972 0.0
H378 H 0.51408 0.03981 0.44814 0.0
H379 H 0.5187 0.06426 0.50295 0.0
H380 H 0.55039 0.06204 0.45707 0.0
H381 H 0.53566 0.93962 0.62395 0.0
H382 H 0.50424 0.96934 0.62218 0.0
H383 H 0.50486 0.93773 0.57672 0.0
H384 H 0.43348 0.05713 0.57988 0.0
H385 H 0.42762 0.98888 0.45958 0.0
H386 H 0.50974 0.06372 0.59313 0.0
H387 H 0.50971 0.02767 0.62973 0.0
H388 H 0.47783 0.05652 0.63706 0.0
H389 H 0.50577 0.97691 0.43977 0.0
H390 H 0.46933 0.95419 0.43897 0.0
H391 H 0.49927 0.94664 0.48645 0.0
C392 C 0.30016 0.45014 0.13956 0.0
C393 C 0.2748 0.45566 0.10584 0.0
C394 C 0.31925 0.42244 0.13587 0.0
C395 C 0.31268 0.39966 0.09783 0.0
C396 C 0.28634 0.40444 0.06519 0.0
C397 C 0.26806 0.43239 0.06921 0.0
C398 C 0.34723 0.41825 0.1712 0.0
C399 C 0.27835 0.38075 1.02414 0.0
C400 C 0.37538 0.34931 0.03308 0.0
C401 C 0.36855 0.31873 0.05169 0.0
C402 C 0.35908 0.37629 0.05095 0.0
C403 C 0.33493 0.37253 0.08785 0.0
C404 C 0.32936 0.34192 0.10915 0.0
C405 C 0.34648 0.31531 0.091 0.0
C406 C 0.36625 0.40849 1.02775 0.0
C407 C 0.30375 0.33687 0.14836 0.0
H408 H 0.30544 0.46769 0.16834 0.0
H409 H 0.24922 0.43651 0.04192 0.0
H410 H 0.34745 0.3938 0.1875 0.0
H411 H 0.36981 0.42123 0.14983 0.0
H412 H 0.34684 0.43589 0.20245 0.0
H413 H 0.2553 0.38637 1.00526 0.0
H414 H 0.29748 0.38082 0.99518 0.0
H415 H 0.27703 0.3562 0.03993 0.0
H416 H 0.39292 0.35194 1.00332 0.0
H417 H 0.34129 0.29161 0.10532 0.0
H418 H 0.3689 0.42689 0.05752 0.0
H419 H 0.34607 0.41593 1.00318 0.0
H420 H 0.38836 0.40803 1.0046 0.0
H421 H 0.30478 0.35572 0.17767 0.0
H422 H 0.30589 0.31311 0.16689 0.0
H423 H 0.27995 0.3385 0.13007 0.0
C424 C 0.57784 0.27134 0.0572 0.0
C425 C 0.55147 0.28443 0.08246 0.0
C426 C 0.60678 0.28792 0.054 0.0
C427 C 0.60935 0.31845 0.07644 0.0
C428 C 0.58351 0.33073 0.10521 0.0
C429 C 0.55475 0.31348 0.10793 0.0
C430 C 0.63369 0.2738 1.02327 0.0
C431 C 0.5854 0.3631 0.12997 0.0
C432 C 0.69112 0.35805 0.08176 0.0
C433 C 0.68984 0.37837 0.03953 0.0
C434 C 0.66511 0.33844 0.09455 0.0
C435 C 0.63728 0.33903 0.06418 0.0
C436 C 0.6362 0.35892 1.02086 0.0
C437 C 0.66243 0.3783 1.00915 0.0
C438 C 0.66717 0.31755 0.14097 0.0
C439 C 0.60717 0.35996 0.987 0.0
H440 H 0.57521 0.24877 0.0376 0.0
H441 H 0.53425 0.32364 0.12715 0.0
H442 H 0.63616 0.28738 0.98746 0.0
H443 H 0.65668 0.27572 0.04383 0.0
H444 H 0.62947 0.24829 1.01395 0.0
H445 H 0.56525 0.36726 0.15644 0.0
H446 H 0.60821 0.36561 0.15087 0.0
H447 H 0.58481 0.382 0.10051 0.0
H448 H 0.71202 0.35821 0.10578 0.0
H449 H 0.66146 0.39364 0.97618 0.0
H450 H 0.66305 0.29221 0.13072 0.0
H451 H 0.64821 0.32445 0.16811 0.0
H452 H 0.69071 0.31941 0.1601 0.0
H453 H 0.60229 0.33578 0.97182 0.0
H454 H 0.61015 0.37674 0.95479 0.0
H455 H 0.58589 0.36743 1.00902 0.0
C456 C 0.61093 0.65796 0.05736 0.0
C457 C 0.62279 0.68895 0.04979 0.0
C458 C 0.63104 0.63282 0.07268 0.0
C459 C 0.66388 0.63875 0.08094 0.0
C460 C 0.67567 0.67031 0.07627 0.0
C461 C 0.65502 0.695 0.06065 0.0
C462 C 0.61744 0.59955 0.07728 0.0
C463 C 0.7105 0.67769 0.08491 0.0
C464 C 0.71541 0.5732 0.14061 0.0
C465 C 0.72914 0.55923 0.0977 0.0
C466 C 0.69426 0.59935 0.13606 0.0
C467 C 0.68648 0.61142 0.0875 0.0
C468 C 0.70001 0.59705 0.04419 0.0
C469 C 0.72104 0.57122 0.04984 0.0
C470 C 0.68034 0.61414 0.18306 0.0
C471 C 0.69214 0.60883 0.99164 0.0
H472 H 0.58594 0.65315 0.05038 0.0
H473 H 0.66454 0.71875 0.05485 0.0
H474 H 0.62683 0.58443 0.04627 0.0
H475 H 0.62494 0.58832 0.11337 0.0
H476 H 0.59094 0.59952 0.07528 0.0
H477 H 0.71503 0.70382 0.08648 0.0
H478 H 0.71896 0.66659 0.12058 0.0
H479 H 0.72492 0.66742 0.05375 0.0
H480 H 0.72156 0.56397 0.17764 0.0
H481 H 0.73091 0.56003 1.01641 0.0
H482 H 0.65389 0.61292 0.18183 0.0
H483 H 0.68685 0.6398 0.18492 0.0
H484 H 0.68883 0.60207 0.21799 0.0
H485 H 0.66607 0.60696 0.98478 0.0
H486 H 0.70485 0.5951 0.96192 0.0
H487 H 0.69864 0.63441 0.98783 0.0
C488 C 0.34856 0.63103 0.04979 0.0
C489 C 0.31737 0.64265 0.04355 0.0
C490 C 0.37407 0.65185 0.05918 0.0
C491 C 0.36838 0.68522 0.06123 0.0
C492 C 0.3367 0.69698 0.05682 0.0
C493 C 0.3115 0.67547 0.04856 0.0
C494 C 0.40733 0.6382 0.06466 0.0
C495 C 0.32965 0.73237 0.05781 0.0
C496 C 0.43551 0.74042 0.10467 0.0
C497 C 0.44963 0.74877 0.05843 0.0
C498 C 0.4089 0.71986 0.10647 0.0
C499 C 0.39591 0.70773 0.06098 0.0
C500 C 0.40996 0.71622 1.01436 0.0
C501 C 0.43678 0.73606 1.01375 0.0
C502 C 0.39492 0.71079 0.15696 0.0
C503 C 0.3969 0.704 0.96485 0.0
H504 H 0.35299 0.60557 0.04694 0.0
H505 H 0.28737 0.68441 0.04371 0.0
H506 H 0.42168 0.64437 1.03085 0.0
H507 H 0.41948 0.64871 0.09789 0.0
H508 H 0.40716 0.61177 0.06884 0.0
H509 H 0.30361 0.73746 0.05923 0.0
H510 H 0.34126 0.7437 0.09083 0.0
H511 H 0.33964 0.74375 1.02342 0.0
H512 H 0.44516 0.74998 0.13942 0.0
H513 H 0.44804 0.74112 0.97783 0.0
H514 H 0.39625 0.68449 0.16211 0.0
H515 H 0.36932 0.7176 0.15842 0.0
H516 H 0.40755 0.72243 0.18885 0.0
H517 H 0.39943 0.67763 0.96319 0.0
H518 H 0.40935 0.71447 0.93172 0.0
H519 H 0.37106 0.70967 0.96176 0.0
C520 C 0.76989 0.08212 0.47069 0.0
C521 C 0.78477 0.0522 0.47683 0.0
C522 C 0.78635 0.11062 0.48032 0.0
C523 C 0.81872 0.10929 0.49555 0.0
C524 C 0.8346 0.07936 0.49794 0.0
C525 C 0.8174 0.05116 0.48891 0.0
C526 C 0.76848 0.14199 0.47741 0.0
C527 C 0.86929 0.07695 0.51308 0.0
C528 C 0.86738 0.18604 0.4993 0.0
C529 C 0.86689 0.19317 0.55099 0.0
C530 C 0.85179 0.15884 0.48047 0.0
C531 C 0.83491 0.13867 0.51409 0.0
C532 C 0.8337 0.14632 0.56613 0.0
C533 C 0.84995 0.17329 0.58395 0.0
C534 C 0.8541 0.15122 0.42495 0.0
C535 C 0.81547 0.12582 0.60315 0.0
H536 H 0.74487 0.08322 0.46029 0.0
H537 H 0.82916 0.02828 0.49414 0.0
H538 H 0.76555 0.15185 0.51599 0.0
H539 H 0.78217 0.15973 0.45512 0.0
H540 H 0.74444 0.13929 0.46022 0.0
H541 H 0.87921 0.05264 0.50662 0.0
H542 H 0.88381 0.0945 0.4917 0.0
H543 H 0.87176 0.0827 0.55375 0.0
H544 H 0.88091 0.20114 0.47389 0.0
H545 H 0.84943 0.17896 0.62382 0.0
H546 H 0.8299 0.14858 0.40849 0.0
H547 H 0.86669 0.12807 0.41984 0.0
H548 H 0.86711 0.16996 0.40353 0.0
H549 H 0.79024 0.12354 0.59087 0.0
H550 H 0.81587 0.13575 0.64198 0.0
H551 H 0.82588 0.1014 0.60418 0.0
C552 C 0.95324 0.79542 0.462 0.0
C553 C 0.95156 0.76211 0.46745 0.0
C554 C 0.92565 0.81446 0.465 0.0
C555 C 0.89571 0.79982 0.47376 0.0
C556 C 0.89354 0.76607 0.47491 0.0
C557 C 0.92151 0.74761 0.47166 0.0
C558 C 0.92896 0.85037 0.46308 0.0
C559 C 0.86206 0.7495 0.48365 0.0
C560 C 0.8379 0.84741 0.55433 0.0
C561 C 0.81668 0.85976 0.51828 0.0
C562 C 0.86334 0.82749 0.54026 0.0
C563 C 0.86778 0.81973 0.48873 0.0
C564 C 0.84611 0.83159 0.45214 0.0
C565 C 0.82076 0.85146 0.46737 0.0
C566 C 0.88576 0.81511 0.58058 0.0
C567 C 0.85014 0.82392 0.39688 0.0
H568 H 0.97636 0.80686 0.45913 0.0
H569 H 0.92004 0.72183 0.47511 0.0
H570 H 0.91025 0.86109 0.43863 0.0
H571 H 0.92574 0.86027 0.50156 0.0
H572 H 0.95275 0.8578 0.44883 0.0
H573 H 0.86361 0.72343 0.47609 0.0
H574 H 0.85464 0.7529 0.52348 0.0
H575 H 0.84313 0.76001 0.45939 0.0
H576 H 0.83457 0.85336 0.59374 0.0
H577 H 0.80469 0.86125 0.43923 0.0
H578 H 0.91032 0.82383 0.57324 0.0
H579 H 0.88659 0.78861 0.57968 0.0
H580 H 0.87853 0.82279 0.61904 0.0
H581 H 0.87277 0.83438 0.38283 0.0
H582 H 0.83012 0.83335 0.3736 0.0
H583 H 0.85178 0.79768 0.39141 0.0
C584 C 0.23674 0.9321 0.54351 0.0
C585 C 0.23018 0.95185 0.50171 0.0
C586 C 0.21791 0.90538 0.55446 0.0
C587 C 0.19137 0.8984 0.52351 0.0
C588 C 0.18457 0.918 0.48111 0.0
C589 C 0.20412 0.94447 0.47061 0.0
C590 C 0.22605 0.88504 0.59993 0.0
C591 C 0.15629 0.91136 0.44745 0.0
C592 C 0.15555 0.81514 0.53084 0.0
C593 C 0.12944 0.82005 0.5632 0.0
C594 C 0.17593 0.84038 0.51759 0.0
C595 C 0.17003 0.87133 0.53698 0.0
C596 C 0.14416 0.87635 0.5704 0.0
C597 C 0.12434 0.85064 0.58332 0.0
C598 C 0.20355 0.83403 0.48234 0.0
C599 C 0.13715 0.90899 0.59207 0.0
H600 H 0.2562 0.93797 0.56876 0.0
H601 H 0.19894 0.95943 0.43816 0.0
H602 H 0.20649 0.88652 0.62805 0.0
H603 H 0.22838 0.85959 0.58876 0.0
H604 H 0.24862 0.89258 0.61836 0.0
H605 H 0.15477 0.9283 0.41517 0.0
H606 H 0.15776 0.88665 0.43249 0.0
H607 H 0.1339 0.91311 0.46966 0.0
H608 H 0.15961 0.79179 0.51455 0.0
H609 H 0.1046 0.85461 0.60893 0.0
H610 H 0.22633 0.84083 0.50073 0.0
H611 H 0.20106 0.84893 0.44786 0.0
H612 H 0.20508 0.80853 0.47096 0.0
H613 H 0.15794 0.91749 0.61419 0.0
H614 H 0.11581 0.90899 0.61696 0.0
H615 H 0.13314 0.92644 0.56107 0.0
C616 C 0.08144 0.24097 0.4982 0.0
C617 C 0.05158 0.22607 0.50309 0.0
C618 C 0.10996 0.22339 0.50162 0.0
C619 C 0.1087 0.18992 0.50904 0.0
C620 C 0.07871 0.17438 0.51022 0.0
C621 C 0.0505 0.19265 0.50762 0.0
C622 C 0.14141 0.24094 0.5004 0.0
C623 C 0.07635 0.13864 0.51709 0.0
C624 C 0.18491 0.14088 0.49347 0.0
C625 C 0.19408 0.13617 0.54386 0.0
C626 C 0.15712 0.15826 0.48136 0.0
C627 C 0.13848 0.1717 0.52059 0.0
C628 C 0.14816 0.16763 0.57146 0.0
C629 C 0.17565 0.14965 0.58244 0.0
C630 C 0.14729 0.16156 0.42678 0.0
C631 C 0.12935 0.18209 0.61439 0.0
H632 H 0.08256 0.26669 0.4935 0.0
H633 H 0.02768 0.18082 0.51179 0.0
H634 H 0.1528 0.23961 0.53818 0.0
H635 H 0.158 0.22955 0.47319 0.0
H636 H 0.13844 0.26651 0.48996 0.0
H637 H 0.05171 0.12979 0.51064 0.0
H638 H 0.0928 0.12614 0.49085 0.0
H639 H 0.08362 0.13213 0.55607 0.0
H640 H 0.19892 0.13003 0.46367 0.0
H641 H 0.1829 0.14615 0.62133 0.0
H642 H 0.14461 0.18716 0.41659 0.0
H643 H 0.1237 0.15014 0.42101 0.0
H644 H 0.16481 0.15038 0.4007 0.0
H645 H 0.12693 0.20828 0.60877 0.0
H646 H 0.14074 0.17766 0.65165 0.0
H647 H 0.10491 0.17196 0.6151 0.0
C648 C 0.37477 0.19355 0.18045 0.0
C649 C 0.39983 0.1732 0.1659 0.0
C650 C 0.35609 0.18671 0.22362 0.0
C651 C 0.36211 0.15849 0.25209 0.0
C652 C 0.38712 0.13776 0.23684 0.0
C653 C 0.40574 0.14552 0.19453 0.0
C654 C 0.33017 0.2098 0.23909 0.0
C655 C 0.39405 0.10701 0.26492 0.0
C656 C 0.33554 0.14118 0.3875 0.0
C657 C 0.30985 0.12031 0.37952 0.0
C658 C 0.35135 0.15588 0.34647 0.0
C659 C 0.34158 0.14925 0.29623 0.0
C660 C 0.3144 0.12988 0.28834 0.0
C661 C 0.2988 0.11598 0.32986 0.0
C662 C 0.37973 0.17696 0.35681 0.0
C663 C 0.30319 0.12169 0.23576 0.0
H664 H 0.37029 0.21517 0.1589 0.0
H665 H 0.42493 0.12955 0.18345 0.0
H666 H 0.30662 0.19778 0.23807 0.0
H667 H 0.3342 0.2177 0.27852 0.0
H668 H 0.32918 0.2312 0.21421 0.0
H669 H 0.41417 0.09338 0.24803 0.0
H670 H 0.39998 0.11222 0.30485 0.0
H671 H 0.37253 0.0916 0.26491 0.0
H672 H 0.34429 0.14486 0.42553 0.0
H673 H 0.27879 0.10024 0.32296 0.0
H674 H 0.3788 0.19876 0.3329 0.0
H675 H 0.40201 0.1639 0.34724 0.0
H676 H 0.38098 0.1842 0.39707 0.0
H677 H 0.30102 0.14357 0.21227 0.0
H678 H 0.27981 0.10923 0.23594 0.0
H679 H 0.32107 0.1059 0.21742 0.0
C680 C 0.78769 0.36507 0.22929 0.0
C681 C 0.80536 0.38281 0.19388 0.0
C682 C 0.80215 0.3519 0.27269 0.0
C683 C 0.83513 0.35678 0.28165 0.0
C684 C 0.85311 0.37469 0.24615 0.0
C685 C 0.83813 0.38718 0.20262 0.0
C686 C 0.78214 0.33248 0.3088 0.0
C687 C 0.88826 0.3807 0.25414 0.0
C688 C 0.87019 0.345 0.4143 0.0
C689 C 0.8859 0.31551 0.40929 0.0
C690 C 0.85307 0.35854 0.37345 0.0
C691 C 0.85117 0.34196 0.32681 0.0
C692 C 0.86566 0.31144 0.32268 0.0
C693 C 0.88301 0.29881 0.36363 0.0
C694 C 0.83826 0.39123 0.37946 0.0
C695 C 0.86379 0.29249 0.27435 0.0
H696 H 0.7624 0.36133 0.22308 0.0
H697 H 0.85213 0.40067 0.17569 0.0
H698 H 0.7919 0.30785 0.31175 0.0
H699 H 0.7831 0.3431 0.34707 0.0
H700 H 0.75677 0.33107 0.29677 0.0
H701 H 0.89855 0.3964 0.22447 0.0
H702 H 0.89218 0.39199 0.29147 0.0
H703 H 0.90148 0.35767 0.25416 0.0
H704 H 0.87271 0.35826 0.44916 0.0
H705 H 0.89506 0.27598 0.35948 0.0
H706 H 0.81266 0.39064 0.36877 0.0
H707 H 0.85022 0.40836 0.35369 0.0
H708 H 0.8403 0.40028 0.4187 0.0
H709 H 0.83857 0.29017 0.26208 0.0
H710 H 0.87425 0.26818 0.27842 0.0
H711 H 0.87676 0.30526 0.24393 0.0
C712 C 0.71217 0.89327 0.31278 0.0
C713 C 0.70124 0.88843 0.36237 0.0
C714 C 0.69689 0.87922 0.27122 0.0
C715 C 0.67003 0.85937 0.27903 0.0
C716 C 0.66048 0.85219 0.32922 0.0
C717 C 0.67609 0.8669 0.37031 0.0
C718 C 0.70796 0.88785 0.21869 0.0
C719 C 0.63239 0.83068 0.33944 0.0
C720 C 0.60618 0.86494 0.17718 0.0
C721 C 0.61213 0.83779 0.14749 0.0
C722 C 0.62446 0.87171 0.2202 0.0
C723 C 0.64932 0.85063 0.23494 0.0
C724 C 0.65526 0.82283 0.20569 0.0
C725 C 0.6368 0.81688 0.16199 0.0
C726 C 0.6175 0.90196 0.24934 0.0
C727 C 0.68114 0.79946 0.22052 0.0
H728 H 0.73185 0.90949 0.30603 0.0
H729 H 0.66747 0.86283 0.40834 0.0
H730 H 0.7101 0.86618 0.19493 0.0
H731 H 0.69002 0.9038 0.20064 0.0
H732 H 0.73132 0.90034 0.21896 0.0
H733 H 0.63152 0.82287 0.37952 0.0
H734 H 0.60992 0.84369 0.33062 0.0
H735 H 0.63332 0.80923 0.31493 0.0
H736 H 0.58734 0.88142 0.16632 0.0
H737 H 0.6414 0.79571 0.1396 0.0
H738 H 0.63885 0.9176 0.24922 0.0
H739 H 0.61204 0.89612 0.28926 0.0
H740 H 0.59706 0.91564 0.23333 0.0
H741 H 0.70479 0.81122 0.21827 0.0
H742 H 0.68145 0.778 0.19591 0.0
H743 H 0.67775 0.7917 0.26023 0.0
C744 C 0.13417 0.67306 0.40806 0.0
C745 C 0.13493 0.70621 0.41611 0.0
C746 C 0.14709 0.65941 0.36399 0.0
C747 C 0.16173 0.67922 0.32723 0.0
C748 C 0.16326 0.71259 0.33565 0.0
C749 C 0.14978 0.72565 0.37972 0.0
C750 C 0.14487 0.62371 0.35663 0.0
C751 C 0.1791 0.73455 0.298 0.0
C752 C 0.22071 0.63702 0.2404 0.0
C753 C 0.20232 0.63176 0.19691 0.0
C754 C 0.20823 0.65355 0.28211 0.0
C755 C 0.17631 0.66479 0.28087 0.0
C756 C 0.15802 0.66075 0.23622 0.0
C757 C 0.17132 0.64446 0.1946 0.0
C758 C 0.22887 0.65778 0.32836 0.0
C759 C 0.12385 0.67218 0.23333 0.0
H760 H 0.12311 0.6577 0.43591 0.0
H761 H 0.15071 0.75127 0.38542 0.0
H762 H 0.13252 0.61842 0.32056 0.0
H763 H 0.16918 0.61321 0.3542 0.0
H764 H 0.13179 0.61174 0.38784 0.0
H765 H 0.17856 0.75993 0.31022 0.0
H766 H 0.20434 0.72722 0.29241 0.0
H767 H 0.16701 0.7327 0.26087 0.0
H768 H 0.24472 0.62731 0.24242 0.0
H769 H 0.15682 0.64011 0.16143 0.0
H770 H 0.21903 0.6435 0.36003 0.0
H771 H 0.22881 0.68317 0.34035 0.0
H772 H 0.25395 0.65014 0.32177 0.0
H773 H 0.10909 0.65852 0.2606 0.0
H774 H 0.11353 0.66919 0.195 0.0
H775 H 0.12224 0.69775 0.24402 0.0
C776 C 0.60371 0.80622 0.82129 0.0
C777 C 0.61875 0.81271 0.86763 0.0
C778 C 0.61606 0.81746 0.77541 0.0
C779 C 0.6447 0.83521 0.77519 0.0
C780 C 0.66135 0.83991 0.82134 0.0
C781 C 0.64805 0.82882 0.86717 0.0
C782 C 0.59709 0.81227 0.72761 0.0
C783 C 0.69237 0.85808 0.82262 0.0
C784 C 0.682 0.85324 0.6461 0.0
C785 C 0.67162 0.88471 0.6379 0.0
C786 C 0.67396 0.83685 0.691 0.0
C787 C 0.65465 0.85215 0.72787 0.0
C788 C 0.64333 0.88357 0.7186 0.0
C789 C 0.65225 0.89949 0.67417 0.0
C790 C 0.68691 0.8036 0.69975 0.0
C791 C 0.62196 0.90059 0.75587 0.0
H792 H 0.58123 0.79348 0.82084 0.0
H793 H 0.65992 0.83389 0.9026 0.0
H794 H 0.58733 0.83549 0.7142 0.0
H795 H 0.61263 0.80273 0.69727 0.0
H796 H 0.57687 0.79554 0.73333 0.0
H797 H 0.70476 0.85547 0.8595 0.0
H798 H 0.70854 0.84969 0.7922 0.0
H799 H 0.68759 0.88384 0.81591 0.0
H800 H 0.69763 0.84207 0.61867 0.0
H801 H 0.64441 0.92394 0.66803 0.0
H802 H 0.66706 0.78667 0.70663 0.0
H803 H 0.70217 0.8034 0.734 0.0
H804 H 0.70123 0.79485 0.66728 0.0
H805 H 0.60015 0.88628 0.76288 0.0
H806 H 0.61463 0.92471 0.74244 0.0
H807 H 0.63449 0.90322 0.79251 0.0
C808 C 0.1415 0.67321 0.69151 0.0
C809 C 0.1093 0.68253 0.6897 0.0
C810 C 0.15565 0.66305 0.73734 0.0
C811 C 0.1371 0.66186 0.78222 0.0
C812 C 0.10485 0.67195 0.7806 0.0
C813 C 0.09152 0.68222 0.73474 0.0
C814 C 0.1902 0.65278 0.73753 0.0
C815 C 0.08389 0.67062 0.82697 0.0
C816 C 0.15704 0.59969 0.88247 0.0
C817 C 0.17073 0.61804 0.92109 0.0
C818 C 0.14646 0.61364 0.83724 0.0
C819 C 0.14996 0.64693 0.82961 0.0
C820 C 0.16368 0.66576 0.86853 0.0
C821 C 0.17366 0.65113 0.91409 0.0
C822 C 0.13123 0.59263 0.7977 0.0
C823 C 0.16806 0.70128 0.86174 0.0
H824 H 0.15552 0.67353 0.65715 0.0
H825 H 0.06663 0.68939 0.73421 0.0
H826 H 0.20325 0.66483 0.76854 0.0
H827 H 0.19181 0.62666 0.74451 0.0
H828 H 0.20228 0.65822 0.70121 0.0
H829 H 0.05991 0.68127 0.82027 0.0
H830 H 0.08075 0.64538 0.83891 0.0
H831 H 0.09534 0.68343 0.85875 0.0
H832 H 0.15452 0.57411 0.88765 0.0
H833 H 0.1846 0.66536 0.94349 0.0
H834 H 0.14454 0.59454 0.76164 0.0
H835 H 0.10641 0.60076 0.79032 0.0
H836 H 0.13061 0.56709 0.80923 0.0
H837 H 0.18247 0.706 0.8274 0.0
H838 H 0.18007 0.71242 0.89465 0.0
H839 H 0.14454 0.71304 0.85616 0.0
C840 C 0.34829 0.14035 0.66102 0.0
C841 C 0.34131 0.10764 0.65845 0.0
C842 C 0.35856 0.15429 0.7068 0.0
C843 C 0.362 0.13503 0.75077 0.0
C844 C 0.3547 0.10214 0.74822 0.0
C845 C 0.34453 0.08898 0.70244 0.0
C846 C 0.36613 0.18949 0.70805 0.0
C847 C 0.35837 0.08051 0.79369 0.0
C848 C 0.42232 0.1574 0.85163 0.0
C849 C 0.40292 0.16906 0.89071 0.0
C850 C 0.40931 0.14686 0.80589 0.0
C851 C 0.37588 0.14819 0.79842 0.0
C852 C 0.35599 0.15967 0.8379 0.0
C853 C 0.36975 0.16981 0.88383 0.0
C854 C 0.43145 0.13409 0.76561 0.0
C855 C 0.32025 0.16147 0.83136 0.0
H856 H 0.34567 0.15501 0.62748 0.0
H857 H 0.33927 0.06365 0.70128 0.0
H858 H 0.35267 0.20125 0.73897 0.0
H859 H 0.39191 0.19286 0.71598 0.0
H860 H 0.36024 0.20162 0.67186 0.0
H861 H 0.35015 0.05576 0.78615 0.0
H862 H 0.38382 0.07951 0.8053 0.0
H863 H 0.3446 0.09015 0.82603 0.0
H864 H 0.44801 0.15666 0.85674 0.0
H865 H 0.3547 0.17925 0.91358 0.0
H866 H 0.42817 0.14775 0.73004 0.0
H867 H 0.42561 0.10878 0.75746 0.0
H868 H 0.45696 0.13543 0.77687 0.0
H869 H 0.3143 0.17612 0.79764 0.0
H870 H 0.30817 0.17199 0.86478 0.0
H871 H 0.31051 0.13721 0.82484 0.0
C872 C 0.86122 0.33784 0.69498 0.0
C873 C 0.89412 0.34138 0.68727 0.0
C874 C 0.84684 0.34791 0.7406 0.0
C875 C 0.86575 0.36228 0.77886 0.0
C876 C 0.89882 0.36654 0.77036 0.0
C877 C 0.91252 0.35588 0.72509 0.0
C878 C 0.81154 0.34276 0.74825 0.0
C879 C 0.91988 0.38249 0.8091 0.0
C880 C 0.82972 0.42038 0.87315 0.0
C881 C 0.82986 0.40279 0.91853 0.0
C882 C 0.84018 0.4071 0.8275 0.0
C883 C 0.85103 0.37508 0.82636 0.0
C884 C 0.85054 0.35674 0.87162 0.0
C885 C 0.84009 0.37083 0.91727 0.0
C886 C 0.8407 0.42786 0.78073 0.0
C887 C 0.86171 0.32243 0.87195 0.0
H888 H 0.84699 0.32618 0.66627 0.0
H889 H 0.93799 0.35876 0.71935 0.0
H890 H 0.80756 0.32816 0.78269 0.0
H891 H 0.79936 0.36604 0.75415 0.0
H892 H 0.80028 0.33056 0.71561 0.0
H893 H 0.94522 0.38372 0.7969 0.0
H894 H 0.91122 0.40716 0.81629 0.0
H895 H 0.91874 0.36929 0.84541 0.0
H896 H 0.82187 0.44509 0.87318 0.0
H897 H 0.84013 0.35694 0.95185 0.0
H898 H 0.82778 0.41601 0.74943 0.0
H899 H 0.86572 0.43137 0.7682 0.0
H900 H 0.82971 0.45171 0.78718 0.0
H901 H 0.84952 0.30882 0.84169 0.0
H902 H 0.85716 0.3105 0.90874 0.0
H903 H 0.88771 0.32143 0.86407 0.0
loop_
_geom_bond_atom_site_label_1
_geom_bond_atom_site_label_2
_geom_bond_distance
_geom_bond_site_symmetry_2
_ccdc_geom_bond_type
C0 C1 1.351 . S
C0 N3 1.368 . S
C0 H5 0.931 . S
C1 C0 1.351 . S
C1 N2 1.373 1_556 S
C1 H29 0.930 . S
N2 C1 1.373 1_554 S
N2 C4 1.340 . S
N3 C0 1.368 . S
N3 C4 1.321 1_556 S
N3 Co6 2.135 1_556 S
C4 N2 1.340 . S
C4 N3 1.321 1_554 S
C4 H28 0.930 . S
H5 C0 0.931 . S
Co6 N3 2.135 1_554 S
Co6 N9 2.121 . S
Co6 O14 2.055 1_554 S
Co6 O17 2.039 . S
Co6 N20 2.140 . S
C7 O8 1.227 . S
C7 O17 1.265 . S
O8 C7 1.227 . S
N9 Co6 2.121 . S
N9 C11 1.375 . S
N9 C12 1.313 1_554 S
C10 C11 1.338 . S
C10 N13 1.377 . S
C10 H30 0.930 . S
C11 N9 1.375 . S
C11 C10 1.338 . S
C11 H15 0.931 . S
C12 N9 1.313 1_556 S
C12 N13 1.344 1_556 S
C12 H16 0.930 . S
N13 C10 1.377 . S
N13 C12 1.344 1_554 S
O14 Co6 2.055 1_556 S
O14 C18 1.253 . S
H15 C11 0.931 . S
H16 C12 0.930 . S
O17 Co6 2.039 . S
O17 C7 1.265 . S
C18 O14 1.253 . S
C18 O19 1.227 . S
O19 C18 1.227 . S
N20 Co6 2.140 . S
N20 C23 1.346 . S
N20 C24 1.345 1_554 S
C21 C22 1.387 . S
C21 C25 1.391 1_554 S
C22 C21 1.387 . S
C22 C23 1.369 . S
C22 H31 0.929 . S
C23 N20 1.346 . S
C23 C22 1.369 . S
C23 H26 0.928 . S
C24 N20 1.345 1_556 S
C24 C25 1.371 . S
C24 H27 0.931 . S
C25 C21 1.391 1_556 S
C25 C24 1.371 . S
C25 H32 0.930 . S
H26 C23 0.928 . S
H27 C24 0.931 . S
H28 C4 0.930 . S
H29 C1 0.930 . S
H30 C10 0.930 . S
H31 C22 0.929 . S
H32 C25 0.930 . S
C33 C34 1.351 . S
C33 N36 1.368 . S
C33 H38 0.931 . S
C34 C33 1.351 . S
C34 N35 1.373 1_556 S
C34 H62 0.930 . S
N35 C34 1.373 1_554 S
N35 C37 1.340 . S
N36 C33 1.368 . S
N36 C37 1.321 1_556 S
N36 Co39 2.135 1_556 S
C37 N35 1.340 . S
C37 N36 1.321 1_554 S
C37 H61 0.930 . S
H38 C33 0.931 . S
Co39 N36 2.135 1_554 S
Co39 N42 2.121 . S
Co39 O47 2.055 1_554 S
Co39 O50 2.039 . S
Co39 N53 2.140 . S
C40 O41 1.227 . S
C40 O50 1.265 . S
O41 C40 1.227 . S
N42 Co39 2.121 . S
N42 C44 1.375 . S
N42 C45 1.313 1_554 S
C43 C44 1.338 . S
C43 N46 1.377 . S
C43 H63 0.930 . S
C44 N42 1.375 . S
C44 C43 1.338 . S
C44 H48 0.931 . S
C45 N42 1.313 1_556 S
C45 N46 1.344 1_556 S
C45 H49 0.930 . S
N46 C43 1.377 . S
N46 C45 1.344 1_554 S
O47 Co39 2.055 1_556 S
O47 C51 1.253 . S
H48 C44 0.931 . S
H49 C45 0.930 . S
O50 Co39 2.039 . S
O50 C40 1.265 . S
C51 O47 1.253 . S
C51 O52 1.227 . S
O52 C51 1.227 . S
N53 Co39 2.140 . S
N53 C56 1.346 . S
N53 C57 1.345 1_554 S
C54 C55 1.387 . S
C54 C58 1.391 1_554 S
C55 C54 1.387 . S
C55 C56 1.369 . S
C55 H64 0.929 . S
C56 N53 1.346 . S
C56 C55 1.369 . S
C56 H59 0.928 . S
C57 N53 1.345 1_556 S
C57 C58 1.371 . S
C57 H60 0.931 . S
C58 C54 1.391 1_556 S
C58 C57 1.371 . S
C58 H65 0.930 . S
H59 C56 0.928 . S
H60 C57 0.931 . S
H61 C37 0.930 . S
H62 C34 0.930 . S
H63 C43 0.930 . S
H64 C55 0.929 . S
H65 C58 0.930 . S
C66 C67 1.351 . S
C66 N69 1.368 . S
C66 H71 0.931 . S
C67 C66 1.351 . S
C67 N68 1.373 1_556 S
C67 H95 0.930 . S
N68 C67 1.373 1_554 S
N68 C70 1.340 . S
N69 C66 1.368 . S
N69 C70 1.321 1_556 S
N69 Co72 2.135 1_556 S
C70 N68 1.340 . S
C70 N69 1.321 1_554 S
C70 H94 0.930 . S
H71 C66 0.931 . S
Co72 N69 2.135 1_554 S
Co72 N75 2.121 . S
Co72 O80 2.055 1_554 S
Co72 O83 2.039 . S
Co72 N86 2.140 . S
C73 O74 1.227 . S
C73 O83 1.265 . S
O74 C73 1.227 . S
N75 Co72 2.121 . S
N75 C77 1.375 . S
N75 C78 1.313 1_554 S
C76 C77 1.338 . S
C76 N79 1.377 . S
C76 H96 0.930 . S
C77 N75 1.375 . S
C77 C76 1.338 . S
C77 H81 0.931 . S
C78 N75 1.313 1_556 S
C78 N79 1.344 1_556 S
C78 H82 0.930 . S
N79 C76 1.377 . S
N79 C78 1.344 1_554 S
O80 Co72 2.055 1_556 S
O80 C84 1.253 . S
H81 C77 0.931 . S
H82 C78 0.930 . S
O83 Co72 2.039 . S
O83 C73 1.265 . S
C84 O80 1.253 . S
C84 O85 1.227 . S
O85 C84 1.227 . S
N86 Co72 2.140 . S
N86 C89 1.346 . S
N86 C90 1.345 1_554 S
C87 C88 1.387 . S
C87 C91 1.391 1_554 S
C88 C87 1.387 . S
C88 C89 1.369 . S
C88 H97 0.929 . S
C89 N86 1.346 . S
C89 C88 1.369 . S
C89 H92 0.928 . S
C90 N86 1.345 1_556 S
C90 C91 1.371 . S
C90 H93 0.931 . S
C91 C87 1.391 1_556 S
C91 C90 1.371 . S
C91 H98 0.930 . S
H92 C89 0.928 . S
H93 C90 0.931 . S
H94 C70 0.930 . S
H95 C67 0.930 . S
H96 C76 0.930 . S
H97 C88 0.929 . S
H98 C91 0.930 . S
C99 C100 1.351 . S
C99 N102 1.368 . S
C99 H104 0.931 . S
C100 C99 1.351 . S
C100 N101 1.373 1_556 S
C100 H128 0.930 . S
N101 C100 1.373 1_554 S
N101 C103 1.340 . S
N102 C99 1.368 . S
N102 C103 1.321 1_556 S
N102 Co105 2.135 1_556 S
C103 N101 1.340 . S
C103 N102 1.321 1_554 S
C103 H127 0.930 . S
H104 C99 0.931 . S
Co105 N102 2.135 1_554 S
Co105 N108 2.121 . S
Co105 O113 2.055 1_554 S
Co105 O116 2.039 . S
Co105 N119 2.140 . S
C106 O107 1.227 . S
C106 O116 1.265 . S
O107 C106 1.227 . S
N108 Co105 2.121 . S
N108 C110 1.375 . S
N108 C111 1.313 1_554 S
C109 C110 1.338 . S
C109 N112 1.377 . S
C109 H129 0.930 . S
C110 N108 1.375 . S
C110 C109 1.338 . S
C110 H114 0.931 . S
C111 N108 1.313 1_556 S
C111 N112 1.344 1_556 S
C111 H115 0.930 . S
N112 C109 1.377 . S
N112 C111 1.344 1_554 S
O113 Co105 2.055 1_556 S
O113 C117 1.253 . S
H114 C110 0.931 . S
H115 C111 0.930 . S
O116 Co105 2.039 . S
O116 C106 1.265 . S
C117 O113 1.253 . S
C117 O118 1.227 . S
O118 C117 1.227 . S
N119 Co105 2.140 . S
N119 C122 1.346 . S
N119 C123 1.345 1_554 S
C120 C121 1.387 . S
C120 C124 1.391 1_554 S
C121 C120 1.387 . S
C121 C122 1.369 . S
C121 H130 0.929 . S
C122 N119 1.346 . S
C122 C121 1.369 . S
C122 H125 0.928 . S
C123 N119 1.345 1_556 S
C123 C124 1.371 . S
C123 H126 0.931 . S
C124 C120 1.391 1_556 S
C124 C123 1.371 . S
C124 H131 0.930 . S
H125 C122 0.928 . S
H126 C123 0.931 . S
H127 C103 0.930 . S
H128 C100 0.930 . S
H129 C109 0.930 . S
H130 C121 0.929 . S
H131 C124 0.930 . S
C132 C133 1.351 . S
C132 N135 1.368 . S
C132 H137 0.931 . S
C133 C132 1.351 . S
C133 N134 1.373 . S
C133 H161 0.930 . S
N134 C133 1.373 . S
N134 C136 1.340 . S
N135 C132 1.368 . S
N135 C136 1.321 . S
N135 Co138 2.135 . S
C136 N134 1.340 . S
C136 N135 1.321 . S
C136 H160 0.930 . S
H137 C132 0.931 . S
Co138 N135 2.135 . S
Co138 N141 2.121 . S
Co138 O146 2.055 . S
Co138 O149 2.039 . S
Co138 N152 2.140 . S
C139 O140 1.227 . S
C139 O149 1.265 . S
O140 C139 1.227 . S
N141 Co138 2.121 . S
N141 C143 1.375 . S
N141 C144 1.313 . S
C142 C143 1.338 . S
C142 N145 1.377 . S
C142 H162 0.930 . S
C143 N141 1.375 . S
C143 C142 1.338 . S
C143 H147 0.931 . S
C144 N141 1.313 . S
C144 N145 1.344 . S
C144 H148 0.930 . S
N145 C142 1.377 . S
N145 C144 1.344 . S
O146 Co138 2.055 . S
O146 C150 1.253 . S
H147 C143 0.931 . S
H148 C144 0.930 . S
O149 Co138 2.039 . S
O149 C139 1.265 . S
C150 O146 1.253 . S
C150 O151 1.227 . S
O151 C150 1.227 . S
N152 Co138 2.140 . S
N152 C155 1.346 . S
N152 C156 1.345 . S
C153 C154 1.387 1_455 S
C153 C157 1.391 . S
C154 C153 1.387 1_655 S
C154 C155 1.369 . S
C154 H163 0.929 . S
C155 N152 1.346 . S
C155 C154 1.369 . S
C155 H158 0.928 . S
C156 N152 1.345 . S
C156 C157 1.371 1_655 S
C156 H159 0.931 . S
C157 C153 1.391 . S
C157 C156 1.371 1_455 S
C157 H164 0.930 . S
H158 C155 0.928 . S
H159 C156 0.931 . S
H160 C136 0.930 . S
H161 C133 0.930 . S
H162 C142 0.930 . S
H163 C154 0.929 . S
H164 C157 0.930 . S
C165 C166 1.351 . S
C165 N168 1.368 . S
C165 H170 0.931 . S
C166 C165 1.351 . S
C166 N167 1.373 . S
C166 H194 0.930 . S
N167 C166 1.373 . S
N167 C169 1.340 . S
N168 C165 1.368 . S
N168 C169 1.321 . S
N168 Co171 2.135 . S
C169 N167 1.340 . S
C169 N168 1.321 . S
C169 H193 0.930 . S
H170 C165 0.931 . S
Co171 N168 2.135 . S
Co171 N174 2.121 . S
Co171 O179 2.055 . S
Co171 O182 2.039 . S
Co171 N185 2.140 . S
C172 O173 1.227 . S
C172 O182 1.265 . S
O173 C172 1.227 . S
N174 Co171 2.121 . S
N174 C176 1.375 . S
N174 C177 1.313 . S
C175 C176 1.338 . S
C175 N178 1.377 . S
C175 H195 0.930 . S
C176 N174 1.375 . S
C176 C175 1.338 . S
C176 H180 0.931 . S
C177 N174 1.313 . S
C177 N178 1.344 . S
C177 H181 0.930 . S
N178 C175 1.377 . S
N178 C177 1.344 . S
O179 Co171 2.055 . S
O179 C183 1.253 . S
H180 C176 0.931 . S
H181 C177 0.930 . S
O182 Co171 2.039 . S
O182 C172 1.265 . S
C183 O179 1.253 . S
C183 O184 1.227 . S
O184 C183 1.227 . S
N185 Co171 2.140 . S
N185 C188 1.346 . S
N185 C189 1.345 . S
C186 C187 1.387 1_545 S
C186 C190 1.391 . S
C187 C186 1.387 1_565 S
C187 C188 1.369 . S
C187 H196 0.929 . S
C188 N185 1.346 . S
C188 C187 1.369 . S
C188 H191 0.928 . S
C189 N185 1.345 . S
C189 C190 1.371 1_565 S
C189 H192 0.931 . S
C190 C186 1.391 . S
C190 C189 1.371 1_545 S
C190 H197 0.930 . S
H191 C188 0.928 . S
H192 C189 0.931 . S
H193 C169 0.930 . S
H194 C166 0.930 . S
H195 C175 0.930 . S
H196 C187 0.929 . S
H197 C190 0.930 . S
C198 C199 1.351 . S
C198 N201 1.368 . S
C198 H203 0.931 . S
C199 C198 1.351 . S
C199 N200 1.373 . S
C199 H227 0.930 . S
N200 C199 1.373 . S
N200 C202 1.340 . S
N201 C198 1.368 . S
N201 C202 1.321 . S
N201 Co204 2.135 . S
C202 N200 1.340 . S
C202 N201 1.321 . S
C202 H226 0.930 . S
H203 C198 0.931 . S
Co204 N201 2.135 . S
Co204 N207 2.121 . S
Co204 O212 2.055 . S
Co204 O215 2.039 . S
Co204 N218 2.140 . S
C205 O206 1.227 . S
C205 O215 1.265 . S
O206 C205 1.227 . S
N207 Co204 2.121 . S
N207 C209 1.375 . S
N207 C210 1.313 . S
C208 C209 1.338 . S
C208 N211 1.377 . S
C208 H228 0.930 . S
C209 N207 1.375 . S
C209 C208 1.338 . S
C209 H213 0.931 . S
C210 N207 1.313 . S
C210 N211 1.344 . S
C210 H214 0.930 . S
N211 C208 1.377 . S
N211 C210 1.344 . S
O212 Co204 2.055 . S
O212 C216 1.253 . S
H213 C209 0.931 . S
H214 C210 0.930 . S
O215 Co204 2.039 . S
O215 C205 1.265 . S
C216 O212 1.253 . S
C216 O217 1.227 . S
O217 C216 1.227 . S
N218 Co204 2.140 . S
N218 C221 1.346 . S
N218 C222 1.345 . S
C219 C220 1.387 1_655 S
C219 C223 1.391 . S
C220 C219 1.387 1_455 S
C220 C221 1.369 . S
C220 H229 0.929 . S
C221 N218 1.346 . S
C221 C220 1.369 . S
C221 H224 0.928 . S
C222 N218 1.345 . S
C222 C223 1.371 1_455 S
C222 H225 0.931 . S
C223 C219 1.391 . S
C223 C222 1.371 1_655 S
C223 H230 0.930 . S
H224 C221 0.928 . S
H225 C222 0.931 . S
H226 C202 0.930 . S
H227 C199 0.930 . S
H228 C208 0.930 . S
H229 C220 0.929 . S
H230 C223 0.930 . S
C231 C232 1.351 . S
C231 N234 1.368 . S
C231 H236 0.931 . S
C232 C231 1.351 . S
C232 N233 1.373 . S
C232 H260 0.930 . S
N233 C232 1.373 . S
N233 C235 1.340 . S
N234 C231 1.368 . S
N234 C235 1.321 . S
N234 Co237 2.135 . S
C235 N233 1.340 . S
C235 N234 1.321 . S
C235 H259 0.930 . S
H236 C231 0.931 . S
Co237 N234 2.135 . S
Co237 N240 2.121 . S
Co237 O245 2.055 . S
Co237 O248 2.039 . S
Co237 N251 2.140 . S
C238 O239 1.227 . S
C238 O248 1.265 . S
O239 C238 1.227 . S
N240 Co237 2.121 . S
N240 C242 1.375 . S
N240 C243 1.313 . S
C241 C242 1.338 . S
C241 N244 1.377 . S
C241 H261 0.930 . S
C242 N240 1.375 . S
C242 C241 1.338 . S
C242 H246 0.931 . S
C243 N240 1.313 . S
C243 N244 1.344 . S
C243 H247 0.930 . S
N244 C241 1.377 . S
N244 C243 1.344 . S
O245 Co237 2.055 . S
O245 C249 1.253 . S
H246 C242 0.931 . S
H247 C243 0.930 . S
O248 Co237 2.039 . S
O248 C238 1.265 . S
C249 O245 1.253 . S
C249 O250 1.227 . S
O250 C249 1.227 . S
N251 Co237 2.140 . S
N251 C254 1.346 . S
N251 C255 1.345 . S
C252 C253 1.387 1_565 S
C252 C256 1.391 . S
C253 C252 1.387 1_545 S
C253 C254 1.369 . S
C253 H262 0.929 . S
C254 N251 1.346 . S
C254 C253 1.369 . S
C254 H257 0.928 . S
C255 N251 1.345 . S
C255 C256 1.371 1_545 S
C255 H258 0.931 . S
C256 C252 1.391 . S
C256 C255 1.371 1_565 S
C256 H263 0.930 . S
H257 C254 0.928 . S
H258 C255 0.931 . S
H259 C235 0.930 . S
H260 C232 0.930 . S
H261 C241 0.930 . S
H262 C253 0.929 . S
H263 C256 0.930 . S
C264 C265 1.391 1_554 S
C264 C266 1.394 . S
C264 H280 0.931 . S
C265 C264 1.391 1_556 S
C265 C269 1.376 . S
C266 C264 1.394 . S
C266 C267 1.369 . S
C266 C270 1.531 . S
C267 C266 1.369 . S
C267 C268 1.410 1_554 S
C267 C275 1.503 1_564 S
C268 C267 1.410 1_556 S
C268 C269 1.392 . S
C268 C271 1.511 1_565 S
C269 C265 1.376 . S
C269 C268 1.392 . S
C269 H281 0.929 . S
C270 C266 1.531 . S
C270 H282 0.960 . S
C270 H283 0.962 1_554 S
C270 H284 0.960 . S
C271 C268 1.511 1_545 S
C271 H285 0.966 . S
C271 H286 0.961 . S
C271 H287 0.961 1_556 S
C272 C273 1.370 . S
C272 C274 1.363 . S
C272 H288 0.931 . S
C273 C272 1.370 . S
C273 C277 1.408 1_556 S
C274 C272 1.363 . S
C274 C275 1.370 . S
C274 C278 1.524 . S
C275 C267 1.503 1_546 S
C275 C274 1.370 . S
C275 C276 1.403 1_556 S
C276 C275 1.403 1_554 S
C276 C277 1.404 . S
C276 C279 1.539 . S
C277 C273 1.408 1_554 S
C277 C276 1.404 . S
C277 H289 0.930 . S
C278 C274 1.524 . S
C278 H290 0.956 1_545 S
C278 H291 0.961 . S
C278 H292 0.961 . S
C279 C276 1.539 . S
C279 H293 0.958 . S
C279 H294 0.961 . S
C279 H295 0.960 . S
H280 C264 0.931 . S
H281 C269 0.929 . S
H282 C270 0.960 . S
H283 C270 0.962 1_556 S
H284 C270 0.960 . S
H285 C271 0.966 . S
H286 C271 0.961 . S
H287 C271 0.961 1_554 S
H288 C272 0.931 . S
H289 C277 0.930 . S
H290 C278 0.956 1_565 S
H291 C278 0.961 . S
H292 C278 0.961 . S
H293 C279 0.958 . S
H294 C279 0.961 . S
H295 C279 0.960 . S
C296 C297 1.391 . S
C296 C298 1.394 . S
C296 H312 0.931 . S
C297 C296 1.391 . S
C297 C301 1.376 1_556 S
C298 C296 1.394 . S
C298 C299 1.369 . S
C298 C302 1.531 1_655 S
C299 C298 1.369 . S
C299 C300 1.402 1_556 S
C299 C307 1.503 1_655 S
C300 C299 1.402 1_554 S
C300 C301 1.393 . S
C300 C303 1.518 . S
C301 C297 1.376 1_554 S
C301 C300 1.393 . S
C301 H313 0.929 . S
C302 C298 1.531 1_455 S
C302 H314 0.960 . S
C302 H315 0.962 . S
C302 H316 0.960 1_455 S
C303 C300 1.518 . S
C303 H317 0.961 . S
C303 H318 0.961 . S
C303 H319 0.961 1_554 S
C304 C305 1.370 1_554 S
C304 C306 1.363 . S
C304 H320 0.931 . S
C305 C304 1.370 1_556 S
C305 C309 1.408 . S
C306 C304 1.363 . S
C306 C307 1.370 1_554 S
C306 C310 1.524 . S
C307 C299 1.503 1_455 S
C307 C306 1.370 1_556 S
C307 C308 1.403 . S
C308 C307 1.403 . S
C308 C309 1.404 . S
C308 C311 1.539 . S
C309 C305 1.408 . S
C309 C308 1.404 . S
C309 H321 0.930 . S
C310 C306 1.524 . S
C310 H322 0.956 . S
C310 H323 0.961 . S
C310 H324 0.961 . S
C311 C308 1.539 . S
C311 H325 0.958 . S
C311 H326 0.961 . S
C311 H327 0.960 1_455 S
H312 C296 0.931 . S
H313 C301 0.929 . S
H314 C302 0.960 . S
H315 C302 0.962 . S
H316 C302 0.960 1_655 S
H317 C303 0.961 . S
H318 C303 0.961 . S
H319 C303 0.961 1_556 S
H320 C304 0.931 . S
H321 C309 0.930 . S
H322 C310 0.956 . S
H323 C310 0.961 . S
H324 C310 0.961 . S
H325 C311 0.958 . S
H326 C311 0.961 . S
H327 C311 0.960 1_655 S
C328 C329 1.391 . S
C328 C330 1.394 . S
C328 H344 0.931 . S
C329 C328 1.391 . S
C329 C333 1.376 1_655 S
C330 C328 1.394 . S
C330 C331 1.369 . S
C330 C334 1.531 . S
C331 C330 1.369 . S
C331 C332 1.410 1_655 S
C331 C339 1.503 1_655 S
C332 C331 1.410 1_455 S
C332 C333 1.392 . S
C332 C335 1.511 . S
C333 C329 1.376 1_455 S
C333 C332 1.392 . S
C333 H345 0.929 . S
C334 C330 1.531 . S
C334 H346 0.960 . S
C334 H347 0.962 . S
C334 H348 0.960 . S
C335 C332 1.511 . S
C335 H349 0.961 . S
C335 H350 0.961 . S
C335 H351 0.961 . S
C336 C337 1.370 . S
C336 C338 1.363 . S
C336 H352 0.931 . S
C337 C336 1.370 . S
C337 C341 1.408 . S
C338 C336 1.363 . S
C338 C339 1.370 . S
C338 C342 1.524 1_455 S
C339 C331 1.503 1_455 S
C339 C338 1.370 . S
C339 C340 1.403 . S
C340 C339 1.403 . S
C340 C341 1.404 . S
C340 C343 1.539 . S
C341 C337 1.408 . S
C341 C340 1.404 . S
C341 H353 0.930 . S
C342 C338 1.524 1_655 S
C342 H354 0.956 . S
C342 H355 0.974 . S
C342 H356 0.961 . S
C343 C340 1.539 . S
C343 H357 0.958 . S
C343 H358 0.961 . S
C343 H359 0.960 . S
H344 C328 0.931 . S
H345 C333 0.929 . S
H346 C334 0.960 . S
H347 C334 0.962 . S
H348 C334 0.960 . S
H349 C335 0.961 . S
H350 C335 0.961 . S
H351 C335 0.961 . S
H352 C336 0.931 . S
H353 C341 0.930 . S
H354 C342 0.956 . S
H355 C342 0.974 . S
H356 C342 0.961 . S
H357 C343 0.958 . S
H358 C343 0.961 . S
H359 C343 0.960 . S
C360 C361 1.391 . S
C360 C362 1.394 1_565 S
C360 H376 0.931 1_565 S
C361 C360 1.391 . S
C361 C365 1.376 . S
C362 C360 1.394 1_545 S
C362 C363 1.369 1_545 S
C362 C366 1.531 . S
C363 C362 1.369 1_565 S
C363 C364 1.410 . S
C363 C371 1.503 1_565 S
C364 C363 1.410 . S
C364 C365 1.392 . S
C364 C367 1.511 . S
C365 C361 1.376 . S
C365 C364 1.392 . S
C365 H377 0.929 . S
C366 C362 1.531 . S
C366 H378 0.960 . S
C366 H379 0.962 . S
C366 H380 0.960 . S
C367 C364 1.511 . S
C367 H381 0.961 . S
C367 H382 0.961 . S
C367 H383 0.961 . S
C368 C369 1.370 . S
C368 C370 1.363 . S
C368 H384 0.931 . S
C369 C368 1.370 . S
C369 C373 1.408 . S
C370 C368 1.363 . S
C370 C371 1.370 . S
C370 C374 1.524 . S
C371 C363 1.503 1_545 S
C371 C370 1.370 . S
C371 C372 1.403 1_545 S
C372 C371 1.403 1_565 S
C372 C373 1.404 1_565 S
C372 C375 1.539 . S
C373 C369 1.408 . S
C373 C372 1.404 1_545 S
C373 H385 0.930 . S
C374 C370 1.524 . S
C374 H386 0.956 . S
C374 H387 0.961 . S
C374 H388 0.961 . S
C375 C372 1.539 . S
C375 H389 0.958 . S
C375 H390 0.961 . S
C375 H391 0.960 . S
H376 C360 0.931 1_545 S
H377 C365 0.929 . S
H378 C366 0.960 . S
H379 C366 0.962 . S
H380 C366 0.960 . S
H381 C367 0.961 . S
H382 C367 0.961 . S
H383 C367 0.961 . S
H384 C368 0.931 . S
H385 C373 0.930 . S
H386 C374 0.956 . S
H387 C374 0.961 . S
H388 C374 0.961 . S
H389 C375 0.958 . S
H390 C375 0.961 . S
H391 C375 0.960 . S
C392 C393 1.391 . S
C392 C394 1.394 . S
C392 H408 0.931 . S
C393 C392 1.391 . S
C393 C397 1.376 1_554 S
C394 C392 1.394 . S
C394 C395 1.369 . S
C394 C398 1.531 . S
C395 C394 1.369 . S
C395 C396 1.410 1_554 S
C395 C403 1.503 . S
C396 C395 1.410 1_556 S
C396 C397 1.392 . S
C396 C399 1.511 . S
C397 C393 1.376 1_556 S
C397 C396 1.392 . S
C397 H409 0.929 . S
C398 C394 1.531 . S
C398 H410 0.960 . S
C398 H411 0.962 . S
C398 H412 0.960 . S
C399 C396 1.511 . S
C399 H413 0.961 . S
C399 H414 0.961 . S
C399 H415 0.961 . S
C400 C401 1.367 1_556 S
C400 C402 1.363 . S
C400 H416 0.934 . S
C401 C400 1.367 1_554 S
C401 C405 1.408 . S
C402 C400 1.363 . S
C402 C403 1.367 1_556 S
C402 C406 1.528 . S
C403 C395 1.503 . S
C403 C402 1.367 1_554 S
C403 C404 1.403 . S
C404 C403 1.403 . S
C404 C405 1.404 . S
C404 C407 1.539 . S
C405 C401 1.408 . S
C405 C404 1.404 . S
C405 H417 0.930 . S
C406 C402 1.528 . S
C406 H418 0.956 1_556 S
C406 H419 0.961 . S
C406 H420 0.961 . S
C407 C404 1.539 . S
C407 H421 0.958 . S
C407 H422 0.961 . S
C407 H423 0.960 . S
H408 C392 0.931 . S
H409 C397 0.929 . S
H410 C398 0.960 . S
H411 C398 0.962 . S
H412 C398 0.960 . S
H413 C399 0.961 . S
H414 C399 0.961 . S
H415 C399 0.961 . S
H416 C400 0.934 . S
H417 C405 0.930 . S
H418 C406 0.956 1_554 S
H419 C406 0.961 . S
H420 C406 0.961 . S
H421 C407 0.958 . S
H422 C407 0.961 . S
H423 C407 0.960 . S
C424 C425 1.391 . S
C424 C426 1.394 . S
C424 H440 0.931 . S
C425 C424 1.391 . S
C425 C429 1.376 1_554 S
C426 C424 1.394 . S
C426 C427 1.369 . S
C426 C430 1.531 . S
C427 C426 1.369 . S
C427 C428 1.410 1_554 S
C427 C435 1.503 . S
C428 C427 1.410 1_556 S
C428 C429 1.392 . S
C428 C431 1.511 . S
C429 C425 1.376 1_556 S
C429 C428 1.392 . S
C429 H441 0.929 . S
C430 C426 1.531 . S
C430 H442 0.960 . S
C430 H443 0.962 . S
C430 H444 0.960 . S
C431 C428 1.511 . S
C431 H445 0.961 . S
C431 H446 0.961 . S
C431 H447 0.961 . S
C432 C433 1.370 . S
C432 C434 1.363 . S
C432 H448 0.931 . S
C433 C432 1.370 . S
C433 C437 1.408 1_554 S
C434 C432 1.363 . S
C434 C435 1.370 . S
C434 C438 1.524 . S
C435 C427 1.503 . S
C435 C434 1.370 . S
C435 C436 1.403 1_554 S
C436 C435 1.403 1_556 S
C436 C437 1.404 . S
C436 C439 1.539 . S
C437 C433 1.408 1_556 S
C437 C436 1.404 . S
C437 H449 0.930 . S
C438 C434 1.524 . S
C438 H450 0.956 . S
C438 H451 0.961 . S
C438 H452 0.961 . S
C439 C436 1.539 . S
C439 H453 0.958 . S
C439 H454 0.961 . S
C439 H455 0.960 . S
H440 C424 0.931 . S
H441 C429 0.929 . S
H442 C430 0.960 . S
H443 C430 0.962 . S
H444 C430 0.960 . S
H445 C431 0.961 . S
H446 C431 0.961 . S
H447 C431 0.961 . S
H448 C432 0.931 . S
H449 C437 0.930 . S
H450 C438 0.956 . S
H451 C438 0.961 . S
H452 C438 0.961 . S
H453 C439 0.958 . S
H454 C439 0.961 . S
H455 C439 0.960 . S
C456 C457 1.391 1_556 S
C456 C458 1.394 . S
C456 H472 0.931 . S
C457 C456 1.391 1_554 S
C457 C461 1.376 . S
C458 C456 1.394 . S
C458 C459 1.369 1_556 S
C458 C462 1.531 . S
C459 C458 1.369 1_554 S
C459 C460 1.410 . S
C459 C467 1.503 . S
C460 C459 1.410 . S
C460 C461 1.392 . S
C460 C463 1.511 . S
C461 C457 1.376 . S
C461 C460 1.392 . S
C461 H473 0.929 . S
C462 C458 1.531 . S
C462 H474 0.960 . S
C462 H475 0.962 . S
C462 H476 0.960 . S
C463 C460 1.511 . S
C463 H477 0.961 . S
C463 H478 0.961 . S
C463 H479 0.961 . S
C464 C465 1.370 . S
C464 C466 1.363 . S
C464 H480 0.931 . S
C465 C464 1.370 . S
C465 C469 1.408 1_554 S
C466 C464 1.363 . S
C466 C467 1.370 . S
C466 C470 1.524 . S
C467 C459 1.503 . S
C467 C466 1.370 . S
C467 C468 1.403 1_554 S
C468 C467 1.403 1_556 S
C468 C469 1.404 . S
C468 C471 1.539 . S
C469 C465 1.408 1_556 S
C469 C468 1.404 . S
C469 H481 0.930 . S
C470 C466 1.524 . S
C470 H482 0.956 . S
C470 H483 0.961 . S
C470 H484 0.961 . S
C471 C468 1.539 . S
C471 H485 0.958 . S
C471 H486 0.961 . S
C471 H487 0.960 . S
H472 C456 0.931 . S
H473 C461 0.929 . S
H474 C462 0.960 . S
H475 C462 0.962 . S
H476 C462 0.960 . S
H477 C463 0.961 . S
H478 C463 0.961 . S
H479 C463 0.961 . S
H480 C464 0.931 . S
H481 C469 0.930 . S
H482 C470 0.956 . S
H483 C470 0.961 . S
H484 C470 0.961 . S
H485 C471 0.958 . S
H486 C471 0.961 . S
H487 C471 0.960 . S
C488 C489 1.391 1_556 S
C488 C490 1.394 . S
C488 H504 0.931 . S
C489 C488 1.391 1_554 S
C489 C493 1.376 . S
C490 C488 1.394 . S
C490 C491 1.369 1_556 S
C490 C494 1.531 . S
C491 C490 1.369 1_554 S
C491 C492 1.410 . S
C491 C499 1.503 . S
C492 C491 1.410 . S
C492 C493 1.392 . S
C492 C495 1.511 . S
C493 C489 1.376 . S
C493 C492 1.392 . S
C493 H505 0.929 . S
C494 C490 1.531 . S
C494 H506 0.960 . S
C494 H507 0.962 . S
C494 H508 0.960 . S
C495 C492 1.511 . S
C495 H509 0.961 . S
C495 H510 0.961 . S
C495 H511 0.961 . S
C496 C497 1.370 . S
C496 C498 1.363 . S
C496 H512 0.931 . S
C497 C496 1.370 . S
C497 C501 1.408 1_554 S
C498 C496 1.363 . S
C498 C499 1.370 . S
C498 C502 1.524 . S
C499 C491 1.503 . S
C499 C498 1.370 . S
C499 C500 1.403 1_554 S
C500 C499 1.403 1_556 S
C500 C501 1.404 . S
C500 C503 1.539 . S
C501 C497 1.408 1_556 S
C501 C500 1.404 . S
C501 H513 0.930 . S
C502 C498 1.524 . S
C502 H514 0.956 . S
C502 H515 0.961 . S
C502 H516 0.961 . S
C503 C500 1.539 . S
C503 H517 0.958 . S
C503 H518 0.961 . S
C503 H519 0.960 . S
H504 C488 0.931 . S
H505 C493 0.929 . S
H506 C494 0.960 . S
H507 C494 0.962 . S
H508 C494 0.960 . S
H509 C495 0.961 . S
H510 C495 0.961 . S
H511 C495 0.961 . S
H512 C496 0.931 . S
H513 C501 0.930 . S
H514 C502 0.956 . S
H515 C502 0.961 . S
H516 C502 0.961 . S
H517 C503 0.958 . S
H518 C503 0.961 . S
H519 C503 0.960 . S
C520 C521 1.391 . S
C520 C522 1.394 . S
C520 H536 0.931 . S
C521 C520 1.391 . S
C521 C525 1.376 . S
C522 C520 1.394 . S
C522 C523 1.369 . S
C522 C526 1.531 . S
C523 C522 1.369 . S
C523 C524 1.410 . S
C523 C531 1.503 . S
C524 C523 1.410 . S
C524 C525 1.392 . S
C524 C527 1.511 . S
C525 C521 1.376 . S
C525 C524 1.392 . S
C525 H537 0.929 . S
C526 C522 1.531 . S
C526 H538 0.960 . S
C526 H539 0.962 . S
C526 H540 0.960 . S
C527 C524 1.511 . S
C527 H541 0.961 . S
C527 H542 0.961 . S
C527 H543 0.961 . S
C528 C529 1.370 . S
C528 C530 1.363 . S
C528 H544 0.931 . S
C529 C528 1.370 . S
C529 C533 1.408 . S
C530 C528 1.363 . S
C530 C531 1.370 . S
C530 C534 1.524 . S
C531 C523 1.503 . S
C531 C530 1.370 . S
C531 C532 1.403 . S
C532 C531 1.403 . S
C532 C533 1.404 . S
C532 C535 1.539 . S
C533 C529 1.408 . S
C533 C532 1.404 . S
C533 H545 0.930 . S
C534 C530 1.524 . S
C534 H546 0.956 . S
C534 H547 0.961 . S
C534 H548 0.961 . S
C535 C532 1.539 . S
C535 H549 0.958 . S
C535 H550 0.961 . S
C535 H551 0.960 . S
H536 C520 0.931 . S
H537 C525 0.929 . S
H538 C526 0.960 . S
H539 C526 0.962 . S
H540 C526 0.960 . S
H541 C527 0.961 . S
H542 C527 0.961 . S
H543 C527 0.961 . S
H544 C528 0.931 . S
H545 C533 0.930 . S
H546 C534 0.956 . S
H547 C534 0.961 . S
H548 C534 0.961 . S
H549 C535 0.958 . S
H550 C535 0.961 . S
H551 C535 0.960 . S
C552 C553 1.391 . S
C552 C554 1.394 . S
C552 H568 0.931 . S
C553 C552 1.391 . S
C553 C557 1.376 . S
C554 C552 1.394 . S
C554 C555 1.369 . S
C554 C558 1.531 . S
C555 C554 1.369 . S
C555 C556 1.410 . S
C555 C563 1.503 . S
C556 C555 1.410 . S
C556 C557 1.392 . S
C556 C559 1.511 . S
C557 C553 1.376 . S
C557 C556 1.392 . S
C557 H569 0.929 . S
C558 C554 1.531 . S
C558 H570 0.960 . S
C558 H571 0.962 . S
C558 H572 0.960 . S
C559 C556 1.511 . S
C559 H573 0.961 . S
C559 H574 0.961 . S
C559 H575 0.961 . S
C560 C561 1.370 . S
C560 C562 1.363 . S
C560 H576 0.931 . S
C561 C560 1.370 . S
C561 C565 1.408 . S
C562 C560 1.363 . S
C562 C563 1.370 . S
C562 C566 1.524 . S
C563 C555 1.503 . S
C563 C562 1.370 . S
C563 C564 1.403 . S
C564 C563 1.403 . S
C564 C565 1.404 . S
C564 C567 1.539 . S
C565 C561 1.408 . S
C565 C564 1.404 . S
C565 H577 0.930 . S
C566 C562 1.524 . S
C566 H578 0.956 . S
C566 H579 0.961 . S
C566 H580 0.961 . S
C567 C564 1.539 . S
C567 H581 0.958 . S
C567 H582 0.961 . S
C567 H583 0.960 . S
H568 C552 0.931 . S
H569 C557 0.929 . S
H570 C558 0.960 . S
H571 C558 0.962 . S
H572 C558 0.960 . S
H573 C559 0.961 . S
H574 C559 0.961 . S
H575 C559 0.961 . S
H576 C560 0.931 . S
H577 C565 0.930 . S
H578 C566 0.956 . S
H579 C566 0.961 . S
H580 C566 0.961 . S
H581 C567 0.958 . S
H582 C567 0.961 . S
H583 C567 0.960 . S
C584 C585 1.391 . S
C584 C586 1.394 . S
C584 H600 0.931 . S
C585 C584 1.391 . S
C585 C589 1.376 . S
C586 C584 1.394 . S
C586 C587 1.369 . S
C586 C590 1.531 . S
C587 C586 1.369 . S
C587 C588 1.410 . S
C587 C595 1.503 . S
C588 C587 1.410 . S
C588 C589 1.392 . S
C588 C591 1.511 . S
C589 C585 1.376 . S
C589 C588 1.392 . S
C589 H601 0.929 . S
C590 C586 1.531 . S
C590 H602 0.960 . S
C590 H603 0.962 . S
C590 H604 0.960 . S
C591 C588 1.511 . S
C591 H605 0.961 . S
C591 H606 0.961 . S
C591 H607 0.961 . S
C592 C593 1.370 . S
C592 C594 1.363 . S
C592 H608 0.931 . S
C593 C592 1.370 . S
C593 C597 1.408 . S
C594 C592 1.363 . S
C594 C595 1.370 . S
C594 C598 1.524 . S
C595 C587 1.503 . S
C595 C594 1.370 . S
C595 C596 1.403 . S
C596 C595 1.403 . S
C596 C597 1.404 . S
C596 C599 1.539 . S
C597 C593 1.408 . S
C597 C596 1.404 . S
C597 H609 0.930 . S
C598 C594 1.524 . S
C598 H610 0.956 . S
C598 H611 0.961 . S
C598 H612 0.961 . S
C599 C596 1.539 . S
C599 H613 0.958 . S
C599 H614 0.961 . S
C599 H615 0.960 . S
H600 C584 0.931 . S
H601 C589 0.929 . S
H602 C590 0.960 . S
H603 C590 0.962 . S
H604 C590 0.960 . S
H605 C591 0.961 . S
H606 C591 0.961 . S
H607 C591 0.961 . S
H608 C592 0.931 . S
H609 C597 0.930 . S
H610 C598 0.956 . S
H611 C598 0.961 . S
H612 C598 0.961 . S
H613 C599 0.958 . S
H614 C599 0.961 . S
H615 C599 0.960 . S
C616 C617 1.391 . S
C616 C618 1.394 . S
C616 H632 0.931 . S
C617 C616 1.391 . S
C617 C621 1.376 . S
C618 C616 1.394 . S
C618 C619 1.369 . S
C618 C622 1.531 . S
C619 C618 1.369 . S
C619 C620 1.410 . S
C619 C627 1.503 . S
C620 C619 1.410 . S
C620 C621 1.392 . S
C620 C623 1.511 . S
C621 C617 1.376 . S
C621 C620 1.392 . S
C621 H633 0.929 . S
C622 C618 1.531 . S
C622 H634 0.960 . S
C622 H635 0.962 . S
C622 H636 0.960 . S
C623 C620 1.511 . S
C623 H637 0.961 . S
C623 H638 0.961 . S
C623 H639 0.961 . S
C624 C625 1.370 . S
C624 C626 1.363 . S
C624 H640 0.931 . S
C625 C624 1.370 . S
C625 C629 1.408 . S
C626 C624 1.363 . S
C626 C627 1.370 . S
C626 C630 1.524 . S
C627 C619 1.503 . S
C627 C626 1.370 . S
C627 C628 1.403 . S
C628 C627 1.403 . S
C628 C629 1.404 . S
C628 C631 1.539 . S
C629 C625 1.408 . S
C629 C628 1.404 . S
C629 H641 0.930 . S
C630 C626 1.524 . S
C630 H642 0.956 . S
C630 H643 0.961 . S
C630 H644 0.961 . S
C631 C628 1.539 . S
C631 H645 0.958 . S
C631 H646 0.961 . S
C631 H647 0.960 . S
H632 C616 0.931 . S
H633 C621 0.929 . S
H634 C622 0.960 . S
H635 C622 0.962 . S
H636 C622 0.960 . S
H637 C623 0.961 . S
H638 C623 0.961 . S
H639 C623 0.961 . S
H640 C624 0.931 . S
H641 C629 0.930 . S
H642 C630 0.956 . S
H643 C630 0.961 . S
H644 C630 0.961 . S
H645 C631 0.958 . S
H646 C631 0.961 . S
H647 C631 0.960 . S
C648 C649 1.391 . S
C648 C650 1.394 . S
C648 H664 0.931 . S
C649 C648 1.391 . S
C649 C653 1.376 . S
C650 C648 1.394 . S
C650 C651 1.369 . S
C650 C654 1.531 . S
C651 C650 1.369 . S
C651 C652 1.410 . S
C651 C659 1.503 . S
C652 C651 1.410 . S
C652 C653 1.392 . S
C652 C655 1.511 . S
C653 C649 1.376 . S
C653 C652 1.392 . S
C653 H665 0.929 . S
C654 C650 1.531 . S
C654 H666 0.960 . S
C654 H667 0.962 . S
C654 H668 0.960 . S
C655 C652 1.511 . S
C655 H669 0.961 . S
C655 H670 0.961 . S
C655 H671 0.961 . S
C656 C657 1.370 . S
C656 C658 1.363 . S
C656 H672 0.931 . S
C657 C656 1.370 . S
C657 C661 1.408 . S
C658 C656 1.363 . S
C658 C659 1.370 . S
C658 C662 1.524 . S
C659 C651 1.503 . S
C659 C658 1.370 . S
C659 C660 1.403 . S
C660 C659 1.403 . S
C660 C661 1.404 . S
C660 C663 1.539 . S
C661 C657 1.408 . S
C661 C660 1.404 . S
C661 H673 0.930 . S
C662 C658 1.524 . S
C662 H674 0.956 . S
C662 H675 0.961 . S
C662 H676 0.961 . S
C663 C660 1.539 . S
C663 H677 0.958 . S
C663 H678 0.961 . S
C663 H679 0.960 . S
H664 C648 0.931 . S
H665 C653 0.929 . S
H666 C654 0.960 . S
H667 C654 0.962 . S
H668 C654 0.960 . S
H669 C655 0.961 . S
H670 C655 0.961 . S
H671 C655 0.961 . S
H672 C656 0.931 . S
H673 C661 0.930 . S
H674 C662 0.956 . S
H675 C662 0.961 . S
H676 C662 0.961 . S
H677 C663 0.958 . S
H678 C663 0.961 . S
H679 C663 0.960 . S
C680 C681 1.391 . S
C680 C682 1.394 . S
C680 H696 0.931 . S
C681 C680 1.391 . S
C681 C685 1.376 . S
C682 C680 1.394 . S
C682 C683 1.369 . S
C682 C686 1.531 . S
C683 C682 1.369 . S
C683 C684 1.410 . S
C683 C691 1.503 . S
C684 C683 1.410 . S
C684 C685 1.392 . S
C684 C687 1.511 . S
C685 C681 1.376 . S
C685 C684 1.392 . S
C685 H697 0.929 . S
C686 C682 1.531 . S
C686 H698 0.960 . S
C686 H699 0.962 . S
C686 H700 0.960 . S
C687 C684 1.511 . S
C687 H701 0.961 . S
C687 H702 0.961 . S
C687 H703 0.961 . S
C688 C689 1.370 . S
C688 C690 1.363 . S
C688 H704 0.931 . S
C689 C688 1.370 . S
C689 C693 1.408 . S
C690 C688 1.363 . S
C690 C691 1.370 . S
C690 C694 1.524 . S
C691 C683 1.503 . S
C691 C690 1.370 . S
C691 C692 1.403 . S
C692 C691 1.403 . S
C692 C693 1.404 . S
C692 C695 1.539 . S
C693 C689 1.408 . S
C693 C692 1.404 . S
C693 H705 0.930 . S
C694 C690 1.524 . S
C694 H706 0.956 . S
C694 H707 0.961 . S
C694 H708 0.961 . S
C695 C692 1.539 . S
C695 H709 0.958 . S
C695 H710 0.961 . S
C695 H711 0.960 . S
H696 C680 0.931 . S
H697 C685 0.929 . S
H698 C686 0.960 . S
H699 C686 0.962 . S
H700 C686 0.960 . S
H701 C687 0.961 . S
H702 C687 0.961 . S
H703 C687 0.961 . S
H704 C688 0.931 . S
H705 C693 0.930 . S
H706 C694 0.956 . S
H707 C694 0.961 . S
H708 C694 0.961 . S
H709 C695 0.958 . S
H710 C695 0.961 . S
H711 C695 0.960 . S
C712 C713 1.391 . S
C712 C714 1.394 . S
C712 H728 0.931 . S
C713 C712 1.391 . S
C713 C717 1.376 . S
C714 C712 1.394 . S
C714 C715 1.369 . S
C714 C718 1.531 . S
C715 C714 1.369 . S
C715 C716 1.410 . S
C715 C723 1.503 . S
C716 C715 1.410 . S
C716 C717 1.392 . S
C716 C719 1.511 . S
C717 C713 1.376 . S
C717 C716 1.392 . S
C717 H729 0.929 . S
C718 C714 1.531 . S
C718 H730 0.960 . S
C718 H731 0.962 . S
C718 H732 0.960 . S
C719 C716 1.511 . S
C719 H733 0.961 . S
C719 H734 0.961 . S
C719 H735 0.961 . S
C720 C721 1.370 . S
C720 C722 1.363 . S
C720 H736 0.931 . S
C721 C720 1.370 . S
C721 C725 1.408 . S
C722 C720 1.363 . S
C722 C723 1.370 . S
C722 C726 1.524 . S
C723 C715 1.503 . S
C723 C722 1.370 . S
C723 C724 1.403 . S
C724 C723 1.403 . S
C724 C725 1.404 . S
C724 C727 1.539 . S
C725 C721 1.408 . S
C725 C724 1.404 . S
C725 H737 0.930 . S
C726 C722 1.524 . S
C726 H738 0.956 . S
C726 H739 0.961 . S
C726 H740 0.961 . S
C727 C724 1.539 . S
C727 H741 0.958 . S
C727 H742 0.961 . S
C727 H743 0.960 . S
H728 C712 0.931 . S
H729 C717 0.929 . S
H730 C718 0.960 . S
H731 C718 0.962 . S
H732 C718 0.960 . S
H733 C719 0.961 . S
H734 C719 0.961 . S
H735 C719 0.961 . S
H736 C720 0.931 . S
H737 C725 0.930 . S
H738 C726 0.956 . S
H739 C726 0.961 . S
H740 C726 0.961 . S
H741 C727 0.958 . S
H742 C727 0.961 . S
H743 C727 0.960 . S
C744 C745 1.391 . S
C744 C746 1.394 . S
C744 H760 0.931 . S
C745 C744 1.391 . S
C745 C749 1.376 . S
C746 C744 1.394 . S
C746 C747 1.369 . S
C746 C750 1.531 . S
C747 C746 1.369 . S
C747 C748 1.410 . S
C747 C755 1.503 . S
C748 C747 1.410 . S
C748 C749 1.392 . S
C748 C751 1.511 . S
C749 C745 1.376 . S
C749 C748 1.392 . S
C749 H761 0.929 . S
C750 C746 1.531 . S
C750 H762 0.960 . S
C750 H763 0.962 . S
C750 H764 0.960 . S
C751 C748 1.511 . S
C751 H765 0.961 . S
C751 H766 0.961 . S
C751 H767 0.961 . S
C752 C753 1.370 . S
C752 C754 1.363 . S
C752 H768 0.931 . S
C753 C752 1.370 . S
C753 C757 1.408 . S
C754 C752 1.363 . S
C754 C755 1.370 . S
C754 C758 1.524 . S
C755 C747 1.503 . S
C755 C754 1.370 . S
C755 C756 1.403 . S
C756 C755 1.403 . S
C756 C757 1.404 . S
C756 C759 1.539 . S
C757 C753 1.408 . S
C757 C756 1.404 . S
C757 H769 0.930 . S
C758 C754 1.524 . S
C758 H770 0.956 . S
C758 H771 0.961 . S
C758 H772 0.961 . S
C759 C756 1.539 . S
C759 H773 0.958 . S
C759 H774 0.961 . S
C759 H775 0.960 . S
H760 C744 0.931 . S
H761 C749 0.929 . S
H762 C750 0.960 . S
H763 C750 0.962 . S
H764 C750 0.960 . S
H765 C751 0.961 . S
H766 C751 0.961 . S
H767 C751 0.961 . S
H768 C752 0.931 . S
H769 C757 0.930 . S
H770 C758 0.956 . S
H771 C758 0.961 . S
H772 C758 0.961 . S
H773 C759 0.958 . S
H774 C759 0.961 . S
H775 C759 0.960 . S
C776 C777 1.391 . S
C776 C778 1.394 . S
C776 H792 0.931 . S
C777 C776 1.391 . S
C777 C781 1.376 . S
C778 C776 1.394 . S
C778 C779 1.369 . S
C778 C782 1.531 . S
C779 C778 1.369 . S
C779 C780 1.410 . S
C779 C787 1.503 . S
C780 C779 1.410 . S
C780 C781 1.392 . S
C780 C783 1.511 . S
C781 C777 1.376 . S
C781 C780 1.392 . S
C781 H793 0.929 . S
C782 C778 1.531 . S
C782 H794 0.960 . S
C782 H795 0.962 . S
C782 H796 0.960 . S
C783 C780 1.511 . S
C783 H797 0.961 . S
C783 H798 0.961 . S
C783 H799 0.961 . S
C784 C785 1.370 . S
C784 C786 1.363 . S
C784 H800 0.931 . S
C785 C784 1.370 . S
C785 C789 1.408 . S
C786 C784 1.363 . S
C786 C787 1.370 . S
C786 C790 1.524 . S
C787 C779 1.503 . S
C787 C786 1.370 . S
C787 C788 1.403 . S
C788 C787 1.403 . S
C788 C789 1.404 . S
C788 C791 1.539 . S
C789 C785 1.408 . S
C789 C788 1.404 . S
C789 H801 0.930 . S
C790 C786 1.524 . S
C790 H802 0.956 . S
C790 H803 0.961 . S
C790 H804 0.961 . S
C791 C788 1.539 . S
C791 H805 0.958 . S
C791 H806 0.961 . S
C791 H807 0.960 . S
H792 C776 0.931 . S
H793 C781 0.929 . S
H794 C782 0.960 . S
H795 C782 0.962 . S
H796 C782 0.960 . S
H797 C783 0.961 . S
H798 C783 0.961 . S
H799 C783 0.961 . S
H800 C784 0.931 . S
H801 C789 0.930 . S
H802 C790 0.956 . S
H803 C790 0.961 . S
H804 C790 0.961 . S
H805 C791 0.958 . S
H806 C791 0.961 . S
H807 C791 0.960 . S
C808 C809 1.391 . S
C808 C810 1.394 . S
C808 H824 0.931 . S
C809 C808 1.391 . S
C809 C813 1.376 . S
C810 C808 1.394 . S
C810 C811 1.369 . S
C810 C814 1.531 . S
C811 C810 1.369 . S
C811 C812 1.410 . S
C811 C819 1.503 . S
C812 C811 1.410 . S
C812 C813 1.392 . S
C812 C815 1.511 . S
C813 C809 1.376 . S
C813 C812 1.392 . S
C813 H825 0.929 . S
C814 C810 1.531 . S
C814 H826 0.960 . S
C814 H827 0.962 . S
C814 H828 0.960 . S
C815 C812 1.511 . S
C815 H829 0.961 . S
C815 H830 0.961 . S
C815 H831 0.961 . S
C816 C817 1.370 . S
C816 C818 1.363 . S
C816 H832 0.931 . S
C817 C816 1.370 . S
C817 C821 1.408 . S
C818 C816 1.363 . S
C818 C819 1.370 . S
C818 C822 1.524 . S
C819 C811 1.503 . S
C819 C818 1.370 . S
C819 C820 1.403 . S
C820 C819 1.403 . S
C820 C821 1.404 . S
C820 C823 1.539 . S
C821 C817 1.408 . S
C821 C820 1.404 . S
C821 H833 0.930 . S
C822 C818 1.524 . S
C822 H834 0.956 . S
C822 H835 0.961 . S
C822 H836 0.961 . S
C823 C820 1.539 . S
C823 H837 0.958 . S
C823 H838 0.961 . S
C823 H839 0.960 . S
H824 C808 0.931 . S
H825 C813 0.929 . S
H826 C814 0.960 . S
H827 C814 0.962 . S
H828 C814 0.960 . S
H829 C815 0.961 . S
H830 C815 0.961 . S
H831 C815 0.961 . S
H832 C816 0.931 . S
H833 C821 0.930 . S
H834 C822 0.956 . S
H835 C822 0.961 . S
H836 C822 0.961 . S
H837 C823 0.958 . S
H838 C823 0.961 . S
H839 C823 0.960 . S
C840 C841 1.391 . S
C840 C842 1.394 . S
C840 H856 0.931 . S
C841 C840 1.391 . S
C841 C845 1.376 . S
C842 C840 1.394 . S
C842 C843 1.369 . S
C842 C846 1.531 . S
C843 C842 1.369 . S
C843 C844 1.410 . S
C843 C851 1.503 . S
C844 C843 1.410 . S
C844 C845 1.392 . S
C844 C847 1.511 . S
C845 C841 1.376 . S
C845 C844 1.392 . S
C845 H857 0.929 . S
C846 C842 1.531 . S
C846 H858 0.960 . S
C846 H859 0.962 . S
C846 H860 0.960 . S
C847 C844 1.511 . S
C847 H861 0.961 . S
C847 H862 0.961 . S
C847 H863 0.961 . S
C848 C849 1.370 . S
C848 C850 1.363 . S
C848 H864 0.931 . S
C849 C848 1.370 . S
C849 C853 1.408 . S
C850 C848 1.363 . S
C850 C851 1.370 . S
C850 C854 1.524 . S
C851 C843 1.503 . S
C851 C850 1.370 . S
C851 C852 1.403 . S
C852 C851 1.403 . S
C852 C853 1.404 . S
C852 C855 1.539 . S
C853 C849 1.408 . S
C853 C852 1.404 . S
C853 H865 0.930 . S
C854 C850 1.524 . S
C854 H866 0.956 . S
C854 H867 0.961 . S
C854 H868 0.961 . S
C855 C852 1.539 . S
C855 H869 0.958 . S
C855 H870 0.961 . S
C855 H871 0.960 . S
H856 C840 0.931 . S
H857 C845 0.929 . S
H858 C846 0.960 . S
H859 C846 0.962 . S
H860 C846 0.960 . S
H861 C847 0.961 . S
H862 C847 0.961 . S
H863 C847 0.961 . S
H864 C848 0.931 . S
H865 C853 0.930 . S
H866 C854 0.956 . S
H867 C854 0.961 . S
H868 C854 0.961 . S
H869 C855 0.958 . S
H870 C855 0.961 . S
H871 C855 0.960 . S
C872 C873 1.391 . S
C872 C874 1.394 . S
C872 H888 0.931 . S
C873 C872 1.391 . S
C873 C877 1.376 . S
C874 C872 1.394 . S
C874 C875 1.369 . S
C874 C878 1.531 . S
C875 C874 1.369 . S
C875 C876 1.410 . S
C875 C883 1.503 . S
C876 C875 1.410 . S
C876 C877 1.392 . S
C876 C879 1.511 . S
C877 C873 1.376 . S
C877 C876 1.392 . S
C877 H889 0.929 . S
C878 C874 1.531 . S
C878 H890 0.960 . S
C878 H891 0.962 . S
C878 H892 0.960 . S
C879 C876 1.511 . S
C879 H893 0.961 . S
C879 H894 0.961 . S
C879 H895 0.961 . S
C880 C881 1.370 . S
C880 C882 1.363 . S
C880 H896 0.931 . S
C881 C880 1.370 . S
C881 C885 1.408 . S
C882 C880 1.363 . S
C882 C883 1.370 . S
C882 C886 1.524 . S
C883 C875 1.503 . S
C883 C882 1.370 . S
C883 C884 1.403 . S
C884 C883 1.403 . S
C884 C885 1.404 . S
C884 C887 1.539 . S
C885 C881 1.408 . S
C885 C884 1.404 . S
C885 H897 0.930 . S
C886 C882 1.524 . S
C886 H898 0.956 . S
C886 H899 0.961 . S
C886 H900 0.961 . S
C887 C884 1.539 . S
C887 H901 0.958 . S
C887 H902 0.961 . S
C887 H903 0.960 . S
H888 C872 0.931 . S
H889 C877 0.929 . S
H890 C878 0.960 . S
H891 C878 0.962 . S
H892 C878 0.960 . S
H893 C879 0.961 . S
H894 C879 0.961 . S
H895 C879 0.961 . S
H896 C880 0.931 . S
H897 C885 0.930 . S
H898 C886 0.956 . S
H899 C886 0.961 . S
H900 C886 0.961 . S
H901 C887 0.958 . S
H902 C887 0.961 . S
H903 C887 0.960 . S
C265 N79 1.258 1_556 S
C273 N13 1.281 1_556 S
C297 N46 1.321 1_556 S
C305 N112 1.304 1_556 S
C329 N145 1.322 . S
C337 N211 1.305 . S
C361 N178 1.261 . S
C369 N244 1.285 . S
C393 C120 1.548 . S
C401 N2 1.505 . S
C425 C21 1.550 . S
C433 N35 1.490 . S
C457 N68 1.475 . S
C465 C54 1.554 . S
C489 N101 1.478 . S
C497 C87 1.554 . S
C521 C186 1.549 . S
C529 N134 1.491 . S
C553 C219 1.551 . S
C561 N167 1.514 . S
C585 C252 1.554 . S
C593 N200 1.500 . S
C617 C153 1.552 . S
C625 N233 1.494 . S
C649 C7 1.506 . S
C657 C238 1.507 . S
C681 C40 1.507 . S
C689 C139 1.507 . S
C713 C172 1.504 . S
C721 C73 1.511 . S
C745 C205 1.501 . S
C753 C106 1.510 . S
C777 C84 1.449 . S
C785 C183 1.446 . S
C809 C216 1.445 . S
C817 C117 1.453 . S
C841 C249 1.452 . S
C849 C18 1.452 . S
C873 C150 1.443 . S
C881 C51 1.453 . S
