# Generated by pormake.
# Topology hjm, (4)-cn, num edge types: 1
# Building blocks:
#     Node 0, Type 0, BuildingBlock: ICAMEG_clean_sbu_1, # of connection points: 4
#     Node 1, Type 0, BuildingBlock: ICAMEG_clean_sbu_1, # of connection points: 4
#     Node 2, Type 0, BuildingBlock: ICAMEG_clean_sbu_1, # of connection points: 4
#     Node 3, Type 0, BuildingBlock: ICAMEG_clean_sbu_1, # of connection points: 4
#     Node 4, Type 0, BuildingBlock: ICAMEG_clean_sbu_1, # of connection points: 4
#     Node 5, Type 0, BuildingBlock: ICAMEG_clean_sbu_1, # of connection points: 4
#     Node 6, Type 0, BuildingBlock: ICAMEG_clean_sbu_1, # of connection points: 4
#     Node 7, Type 0, BuildingBlock: ICAMEG_clean_sbu_1, # of connection points: 4
#     Edge 8, Type (0, 0), BuildingBlock: CIFDUS_clean_linker_0, # of connection points: 2
#     Edge 9, Type (0, 0), BuildingBlock: CIFDUS_clean_linker_0, # of connection points: 2
#     Edge 10, Type (0, 0), BuildingBlock: CIFDUS_clean_linker_0, # of connection points: 2
#     Edge 11, Type (0, 0), BuildingBlock: CIFDUS_clean_linker_0, # of connection points: 2
#     Edge 12, Type (0, 0), BuildingBlock: CIFDUS_clean_linker_0, # of connection points: 2
#     Edge 13, Type (0, 0), BuildingBlock: CIFDUS_clean_linker_0, # of connection points: 2
#     Edge 14, Type (0, 0), BuildingBlock: CIFDUS_clean_linker_0, # of connection points: 2
#     Edge 15, Type (0, 0), BuildingBlock: CIFDUS_clean_linker_0, # of connection points: 2
#     Edge 16, Type (0, 0), BuildingBlock: CIFDUS_clean_linker_0, # of connection points: 2
#     Edge 17, Type (0, 0), BuildingBlock: CIFDUS_clean_linker_0, # of connection points: 2
#     Edge 18, Type (0, 0), BuildingBlock: CIFDUS_clean_linker_0, # of connection points: 2
#     Edge 19, Type (0, 0), BuildingBlock: CIFDUS_clean_linker_0, # of connection points: 2
#     Edge 20, Type (0, 0), BuildingBlock: CIFDUS_clean_linker_0, # of connection points: 2
#     Edge 21, Type (0, 0), BuildingBlock: CIFDUS_clean_linker_0, # of connection points: 2
#     Edge 22, Type (0, 0), BuildingBlock: CIFDUS_clean_linker_0, # of connection points: 2
#     Edge 23, Type (0, 0), BuildingBlock: CIFDUS_clean_linker_0, # of connection points: 2
# Relax obj value: 0.162
# Max RMSD: 0.208
# Mean RMSD: 0.208
data_MOF--net-hjm--node1-ICAMEG_clean_sbu_1--edge1-CIFDUS_clean_linker_0
_symmetry_space_group_name_H-M    P1
_symmetry_Int_Tables_number       1
_symmetry_cell_setting            triclinic
loop_
_symmetry_equiv_pos_as_xyz
'x, y, z'
_cell_length_a     21.574207
_cell_length_b     24.127604
_cell_length_c     22.308502
_cell_angle_alpha  89.92227
_cell_angle_beta   67.492031
_cell_angle_gamma 89.601052
loop_
_atom_site_label
_atom_site_type_symbol
_atom_site_fract_x
_atom_site_fract_y
_atom_site_fract_z
_atom_type_partial_charge
Co0 Co 0.19112 0.30093 0.28846 0.0
Co1 Co 0.18051 0.16354 0.31999 0.0
O2 O 0.14701 0.23912 0.34699 0.0
C3 C 0.10466 0.35401 0.41296 0.0
O4 O 0.06381 0.3119 0.4229 0.0
C5 C 0.04715 0.13001 0.42121 0.0
O6 O 0.04106 0.1728 0.45917 0.0
O7 O 0.16249 0.1749 0.23967 0.0
O8 O 0.22081 0.25186 0.21206 0.0
H9 H 0.29775 0.03161 0.13971 0.0
H10 H 0.05018 0.24182 0.33315 0.0
O11 O 0.16066 0.35389 0.3644 0.0
H12 H 0.06633 0.43705 0.17227 0.0
H13 H 0.25299 0.49802 0.20548 0.0
H14 H 0.31919 0.30234 0.17283 0.0
H15 H 0.16234 0.38304 0.19089 0.0
H16 H 0.1886 0.42866 0.28683 0.0
O17 O 0.08701 0.13149 0.36167 0.0
H18 H 0.28305 0.12046 0.19754 0.0
H19 H 0.14554 0.04632 0.36899 0.0
H20 H 0.38595 0.37109 0.09545 0.0
H21 H 0.92677 0.26132 0.33263 0.0
H22 H 0.35203 0.47018 0.1108 0.0
H23 H 0.93725 0.39999 0.2212 0.0
O24 O 0.27312 0.28158 0.30497 0.0
H25 H 0.1613 0.20448 0.55015 0.0
H26 H 0.27606 0.09277 0.35452 0.0
H27 H 0.30102 0.07627 0.45158 0.0
H28 H 0.2418 0.1311 0.55125 0.0
H29 H 0.13959 0.22079 0.45223 0.0
H30 H 0.14968 0.95974 0.30998 0.0
H31 H 0.22694 0.95137 0.19461 0.0
O32 O 0.27577 0.19164 0.27894 0.0
C33 C 0.19019 0.21247 0.19861 0.0
C34 C 0.26354 0.03471 0.18992 0.0
C35 C 0.1803 -0.00557 0.28521 0.0
N36 N 0.21164 0.08952 0.28652 0.0
C37 C 0.25626 0.08468 0.22363 0.0
C38 C 0.17728 0.04401 0.31834 0.0
C39 C 0.22373 -0.01019 0.22053 0.0
C40 C 0.04591 0.27794 0.30698 0.0
N41 N 0.10802 0.31733 0.26934 0.0
C42 C 0.96734 0.29016 0.30754 0.0
C43 C 0.97345 0.37919 0.23615 0.0
C44 C 0.05331 0.40274 0.20599 0.0
C45 C 0.11418 0.36966 0.22327 0.0
C46 C 0.26842 0.45531 0.20024 0.0
C47 C 0.30259 0.34492 0.18067 0.0
C48 C 0.23198 0.41539 0.24549 0.0
N49 N 0.24536 0.3601 0.23219 0.0
C50 C 0.34201 0.384 0.1367 0.0
C51 C 0.32364 0.43949 0.14577 0.0
C52 C 0.30423 0.23527 0.28885 0.0
C53 C 0.18482 0.17821 0.50809 0.0
C54 C 0.24737 0.11495 0.39822 0.0
C55 C 0.26293 0.10622 0.45288 0.0
C56 C 0.23009 0.13719 0.50869 0.0
N57 N 0.19918 0.15242 0.39903 0.0
C58 C 0.17163 0.18641 0.45207 0.0
Co59 Co 0.81539 0.30042 0.22576 0.0
Co60 Co 0.8058 0.1625 0.20203 0.0
O61 O 0.85774 0.23213 0.17609 0.0
C62 C 0.91022 0.33957 0.0935 0.0
O63 O 0.9285 0.28837 0.07532 0.0
C64 C 0.93933 0.12008 0.11863 0.0
O65 O 0.94478 0.16461 0.08315 0.0
O66 O 0.81091 0.17201 0.2884 0.0
O67 O 0.76856 0.25636 0.30568 0.0
H68 H 0.59594 0.05134 0.261 0.0
H69 H 0.96528 0.26321 0.16367 0.0
O70 O 0.86307 0.35005 0.14836 0.0
H71 H 0.90294 0.40143 0.39512 0.0
H72 H 0.78868 0.48971 0.32552 0.0
H73 H 0.67565 0.31609 0.32024 0.0
H74 H 0.82024 0.35069 0.35067 0.0
H75 H 0.83938 0.42401 0.23487 0.0
O76 O 0.89063 0.11631 0.17371 0.0
H77 H 0.68296 0.11428 0.19045 0.0
H78 H 0.81181 0.0702 0.28698 0.0
H79 H 0.61855 0.38414 0.40377 0.0
H80 H 0.08366 0.29013 0.1745 0.0
H81 H 0.67596 0.47174 0.40896 0.0
H82 H 0.04062 0.3908 0.33484 0.0
O83 O 0.73932 0.2911 0.19703 0.0
H84 H 0.8333 0.22505 0.97795 0.0
H85 H 0.80771 0.06393 0.1199 0.0
H86 H 0.82061 0.04935 1.00697 0.0
H87 H 0.83597 0.13045 0.93413 0.0
H88 H 0.80985 0.23839 0.09352 0.0
H89 H 0.72632 0.00806 0.35896 0.0
H90 H 0.61575 -0.00021 0.34837 0.0
O91 O 0.71739 0.20399 0.22967 0.0
C92 C 0.7876 0.21302 0.32562 0.0
C93 C 0.6431 0.05534 0.26715 0.0
C94 C 0.71584 0.03126 0.32257 0.0
N95 N 0.75199 0.0969 0.23539 0.0
C96 C 0.69293 0.09044 0.22684 0.0
C97 C 0.76479 0.06601 0.28074 0.0
C98 C 0.65416 0.02661 0.31636 0.0
C99 C 0.96209 0.28849 0.20432 0.0
N100 N 0.89171 0.31036 0.25505 0.0
C101 C 0.03658 0.30616 0.21011 0.0
C102 C 1.00879 0.37009 0.31394 0.0
C103 C 0.92414 0.37769 0.35071 0.0
C104 C 0.87239 0.34649 0.31972 0.0
C105 C 0.762 0.45337 0.32207 0.0
C106 C 0.70056 0.35486 0.31924 0.0
C107 C 0.79168 0.4152 0.27196 0.0
N108 N 0.7646 0.36406 0.27533 0.0
C109 C 0.66732 0.39354 0.36727 0.0
C110 C 0.69935 0.44257 0.36988 0.0
C111 C 0.69907 0.25052 0.21441 0.0
C112 C 0.82426 0.18958 0.00972 0.0
C113 C 0.80851 0.09967 0.09057 0.0
C114 C 0.81751 0.09103 0.02586 0.0
C115 C 0.82629 0.13642 0.985 0.0
N116 N 0.80485 0.15214 0.11525 0.0
C117 C 0.81129 0.19681 0.07559 0.0
Co118 Co 0.81003 0.66703 0.73094 0.0
Co119 Co 0.79747 0.80437 0.70535 0.0
O120 O 0.85068 0.73459 0.67914 0.0
C121 C 0.90731 0.62175 0.60258 0.0
O122 O 0.94025 0.66853 0.58814 0.0
C123 C 0.9291 0.84819 0.6191 0.0
O124 O 0.93467 0.80438 0.5825 0.0
O125 O 0.80537 0.79643 0.79077 0.0
O126 O 0.76418 0.71235 0.8098 0.0
H127 H 0.58468 0.91469 0.76666 0.0
H128 H 0.9563 0.71615 0.67744 0.0
O129 O 0.85476 0.61683 0.65422 0.0
H130 H 0.90761 0.55467 0.88635 0.0
H131 H 0.78925 0.4758 0.82499 0.0
H132 H 0.67326 0.65187 0.83171 0.0
H133 H 0.8206 0.61022 0.85176 0.0
H134 H 0.83638 0.54315 0.7362 0.0
O135 O 0.88124 0.85116 0.67489 0.0
H136 H 0.67108 0.84989 0.69744 0.0
H137 H 0.80328 0.8982 0.78813 0.0
H138 H 0.62391 0.5847 0.9176 0.0
H139 H 0.0768 0.6895 0.68386 0.0
H140 H 0.68123 0.49481 0.91511 0.0
H141 H 0.04373 0.57292 0.82813 0.0
O142 O 0.73301 0.67534 0.70375 0.0
H143 H 0.82931 0.73924 0.48149 0.0
H144 H 0.79358 0.90158 0.6234 0.0
H145 H 0.80739 0.91483 0.51015 0.0
H146 H 0.82792 0.83312 0.43745 0.0
H147 H 0.80364 0.72678 0.59766 0.0
H148 H 0.71772 0.9615 0.8597 0.0
H149 H 0.60623 0.96911 0.85077 0.0
O150 O 0.70984 0.76255 0.73562 0.0
C151 C 0.78418 0.75556 0.82834 0.0
C152 C 0.63251 0.91132 0.77169 0.0
C153 C 0.70675 0.93732 0.82441 0.0
N154 N 0.74225 0.86983 0.73891 0.0
C155 C 0.68213 0.87529 0.73193 0.0
C156 C 0.75565 0.90185 0.78288 0.0
C157 C 0.64451 0.9416 0.81917 0.0
C158 C 0.95538 0.68593 0.7131 0.0
N159 N 0.88733 0.65785 0.75978 0.0
C160 C 0.03139 0.66882 0.71625 0.0
C161 C 1.01002 0.59448 0.80965 0.0
C162 C 0.92646 0.58214 0.84503 0.0
C163 C 0.87179 0.6157 0.81909 0.0
C164 C 0.76175 0.51271 0.82412 0.0
C165 C 0.699 0.61282 0.82842 0.0
C166 C 0.78871 0.55156 0.77442 0.0
N167 N 0.76126 0.60337 0.78114 0.0
C168 C 0.66946 0.5742 0.87723 0.0
C169 C 0.70183 0.52411 0.8758 0.0
C170 C 0.69185 0.71556 0.72197 0.0
C171 C 0.81752 0.77483 0.51342 0.0
C172 C 0.79596 0.86544 0.59428 0.0
C173 C 0.80573 0.87337 0.52929 0.0
C174 C 0.81746 0.82765 0.48848 0.0
N175 N 0.79431 0.81326 0.61926 0.0
C176 C 0.8033 0.76817 0.57962 0.0
Co177 Co 0.18316 0.66501 0.79855 0.0
Co178 Co 0.1785 0.80351 0.82132 0.0
O179 O 0.14066 0.73063 0.85122 0.0
C180 C 0.0871 0.62206 0.92662 0.0
O181 O 0.05959 0.67145 0.93949 0.0
C182 C 0.04369 0.84028 0.91437 0.0
O183 O 0.03481 0.79653 0.9515 0.0
O184 O 0.1664 0.78875 0.73893 0.0
O185 O 0.22243 0.70977 0.71856 0.0
H186 H 0.31507 0.92123 0.63458 0.0
H187 H 0.03898 0.71975 0.84902 0.0
O188 O 0.14165 0.61455 0.877 0.0
H189 H 0.07325 0.54307 0.65935 0.0
H190 H 0.22387 0.46711 0.71435 0.0
H191 H 0.31876 0.653 0.69692 0.0
H192 H 0.16516 0.59614 0.68725 0.0
H193 H 0.16381 0.53883 0.79559 0.0
O194 O 0.08636 0.83911 0.85595 0.0
H195 H 0.29171 0.83739 0.70186 0.0
H196 H 0.14371 0.92443 0.85674 0.0
H197 H 0.38323 0.58022 0.62295 0.0
H198 H 0.91814 0.69927 0.84468 0.0
H199 H 0.3349 0.48634 0.63027 0.0
H200 H 0.94002 0.57255 0.71409 0.0
O201 O 0.26272 0.6815 0.8207 0.0
H202 H 0.14585 0.77057 0.05688 0.0
H203 H 0.26642 0.87866 0.86084 0.0
H204 H 0.28156 0.90077 0.96157 0.0
H205 H 0.21973 0.84735 0.06148 0.0
H206 H 0.13224 0.75019 0.95613 0.0
H207 H 0.15788 0.00629 0.78726 0.0
H208 H 0.24417 0.00521 0.67538 0.0
O209 O 0.27185 0.77059 0.78872 0.0
C210 C 0.19656 0.7501 0.70016 0.0
C211 C 0.27687 0.92207 0.68321 0.0
C212 C 0.18845 0.96965 0.76866 0.0
N213 N 0.21479 0.87495 0.78322 0.0
C214 C 0.26455 0.87498 0.72248 0.0
C215 C 0.17995 0.92276 0.80767 0.0
C216 C 0.23705 0.9691 0.70592 0.0
C217 C 0.03829 0.68713 0.81683 0.0
N218 N 0.10366 0.6527 0.77381 0.0
C219 C 0.96125 0.67391 0.81527 0.0
C220 C 0.97515 0.59285 0.73109 0.0
C221 C 0.05719 0.57379 0.69761 0.0
C222 C 0.11499 0.60589 0.71985 0.0
C223 C 0.24609 0.50696 0.7134 0.0
C224 C 0.29727 0.61217 0.70235 0.0
C225 C 0.21204 0.54827 0.75827 0.0
N226 N 0.23473 0.60167 0.74845 0.0
C227 C 0.33471 0.57087 0.66007 0.0
C228 C 0.30798 0.5182 0.66464 0.0
C229 C 0.29605 0.72666 0.80439 0.0
C230 C 0.17053 0.79612 0.01462 0.0
C231 C 0.23589 0.85758 0.90438 0.0
C232 C 0.24624 0.86924 0.96125 0.0
C233 C 0.21208 0.83901 0.01714 0.0
N234 N 0.19121 0.81817 0.90297 0.0
C235 C 0.16209 0.78541 0.95669 0.0
Co236 Co 0.72394 0.79383 0.28742 0.0
Co237 Co 0.73244 0.65705 0.31458 0.0
O238 O 0.68114 0.72677 0.33893 0.0
C239 C 0.68914 0.87548 0.39659 0.0
O240 O 0.75364 0.88287 0.38134 0.0
C241 C 0.59918 0.61561 0.39855 0.0
O242 O 0.59368 0.66027 0.43384 0.0
O243 O 0.72799 0.66636 0.22781 0.0
O244 O 0.77387 0.74919 0.20863 0.0
H245 H 0.94751 0.55128 0.25198 0.0
H246 H 0.57858 0.74483 0.33703 0.0
O247 O 0.66956 0.84028 0.3651 0.0
H248 H 0.63435 0.91006 0.13129 0.0
H249 H 0.75192 -0.01123 0.19621 0.0
H250 H 0.8626 0.81072 0.19285 0.0
H251 H 0.71923 0.85031 0.16461 0.0
H252 H 0.69734 0.91955 0.28088 0.0
O253 O 0.64809 0.61105 0.34354 0.0
H254 H 0.85812 0.61206 0.32428 0.0
H255 H 0.72889 0.5644 0.22993 0.0
H256 H 0.92129 0.88124 0.11579 0.0
H257 H 0.46025 0.77301 0.32802 0.0
H258 H 0.86495 0.97146 0.11448 0.0
H259 H 0.4978 0.89406 0.18767 0.0
O260 O 0.7996 0.78529 0.31774 0.0
H261 H 0.69895 0.7211 0.53967 0.0
H262 H 0.73269 0.55973 0.3969 0.0
H263 H 0.71785 0.54547 0.51037 0.0
H264 H 0.69947 0.62678 0.58333 0.0
H265 H 0.72495 0.73415 0.42336 0.0
H266 H 0.81786 0.50598 0.15456 0.0
H267 H 0.92934 0.49997 0.16398 0.0
O268 O 0.81869 0.69781 0.28664 0.0
C269 C 0.75448 0.70591 0.18932 0.0
C270 C 0.89965 0.55385 0.2469 0.0
C271 C 0.8273 0.5287 0.19177 0.0
N272 N 0.78796 0.59184 0.28153 0.0
C273 C 0.84818 0.58732 0.28862 0.0
C274 C 0.77642 0.56124 0.23547 0.0
C275 C 0.88955 0.52542 0.19719 0.0
C276 C 0.58141 0.77361 0.29932 0.0
N277 N 0.65018 0.80133 0.25401 0.0
C278 C 0.5064 0.7932 0.29622 0.0
C279 C 0.53044 0.87068 0.20563 0.0
C280 C 0.61433 0.88125 0.17104 0.0
C281 C 0.66752 0.84472 0.19595 0.0
C282 C 0.77745 0.95093 0.19812 0.0
C283 C 0.83763 0.84998 0.19591 0.0
C284 C 0.74618 0.91078 0.2451 0.0
N285 N 0.77325 0.85874 0.23947 0.0
C286 C 0.87195 0.89033 0.15127 0.0
C287 C 0.8407 0.94068 0.15107 0.0
C288 C 0.83938 0.74412 0.29812 0.0
C289 C 0.71017 0.68562 0.50761 0.0
C290 C 0.73044 0.59545 0.42639 0.0
C291 C 0.7201 0.58707 0.49144 0.0
C292 C 0.70945 0.6326 0.53239 0.0
N293 N 0.73326 0.64773 0.40153 0.0
C294 C 0.72456 0.69263 0.44138 0.0
Co295 Co 0.355 0.81482 0.21463 0.0
Co296 Co 0.32162 0.67925 0.19564 0.0
O297 O 0.38257 0.74357 0.16655 0.0
C298 C 0.38848 0.88643 0.09704 0.0
O299 O 0.32421 0.89106 0.10897 0.0
C300 C 0.44459 0.62972 0.10091 0.0
O301 O 0.45368 0.67858 0.07296 0.0
O302 O 0.33295 0.6856 0.27997 0.0
O303 O 0.30639 0.77519 0.29729 0.0
H304 H 0.09911 0.58272 0.26628 0.0
H305 H 0.49457 0.75168 0.15912 0.0
O306 O 0.40855 0.85479 0.13199 0.0
H307 H 0.46903 0.91867 0.35724 0.0
H308 H 0.37531 0.01437 0.27426 0.0
H309 H 0.23128 0.84968 0.32541 0.0
H310 H 0.37582 0.86946 0.3295 0.0
H311 H 0.401 0.93726 0.19745 0.0
O312 O 0.39996 0.62476 0.15863 0.0
H313 H 0.1873 0.64476 0.19653 0.0
H314 H 0.32284 0.58351 0.27772 0.0
H315 H 0.20779 0.92399 0.40565 0.0
H316 H 0.61875 0.7644 0.16638 0.0
H317 H 0.28375 0.00396 0.38327 0.0
H318 H 0.59995 0.88622 0.30234 0.0
O319 O 0.27275 0.81489 0.19488 0.0
H320 H 0.3147 0.75341 0.98606 0.0
H321 H 0.3058 0.58552 0.11474 0.0
H322 H 0.29577 0.57715 0.00905 0.0
H323 H 0.29999 0.66157 0.94379 0.0
H324 H 0.3226 0.76036 0.09256 0.0
H325 H 0.23457 0.52338 0.35177 0.0
H326 H 0.12148 0.52293 0.34639 0.0
O327 O 0.24016 0.72903 0.22891 0.0
C328 C 0.31381 0.72736 0.31765 0.0
C329 C 0.14805 0.58265 0.26922 0.0
C330 C 0.22394 0.54956 0.31739 0.0
N331 N 0.26049 0.61796 0.23267 0.0
C332 C 0.1986 0.61725 0.22906 0.0
C333 C 0.27398 0.58332 0.27481 0.0
C334 C 0.16053 0.54935 0.31446 0.0
C335 C 0.49811 0.77998 0.19496 0.0
N336 N 0.43465 0.81518 0.23985 0.0
C337 C 0.57624 0.78967 0.19714 0.0
C338 C 0.56462 0.86782 0.28454 0.0
C339 C 0.4839 0.88846 0.31859 0.0
C340 C 0.42533 0.85958 0.29577 0.0
C341 C 0.34391 0.97795 0.28585 0.0
C342 C 0.26401 0.88502 0.3138 0.0
C343 C 0.35726 0.93416 0.24158 0.0
N344 N 0.32141 0.88589 0.25878 0.0
C345 C 0.25021 0.9271 0.35985 0.0
C346 C 0.29222 0.97271 0.34663 0.0
C347 C 0.22772 0.77805 0.21492 0.0
C348 C 0.3107 0.71656 0.01495 0.0
C349 C 0.30517 0.62282 0.08811 0.0
C350 C 0.30038 0.61766 0.02767 0.0
C351 C 0.30294 0.66495 0.99101 0.0
N352 N 0.3109 0.67382 0.11242 0.0
C353 C 0.31458 0.72023 0.07594 0.0
Co354 Co 0.35186 0.15606 0.71014 0.0
Co355 Co 0.31517 0.29215 0.69926 0.0
O356 O 0.3784 0.22922 0.66634 0.0
C357 C 0.38959 0.08531 0.59141 0.0
O358 O 0.32545 0.0794 0.60385 0.0
C359 C 0.43684 0.34841 0.6126 0.0
O360 O 0.44595 0.30488 0.5748 0.0
O361 O 0.32465 0.28205 0.78347 0.0
O362 O 0.30079 0.19211 0.79527 0.0
H363 H 0.08677 0.38018 0.77398 0.0
H364 H 0.49079 0.21784 0.65562 0.0
O365 O 0.4082 0.11845 0.62581 0.0
H366 H 0.4643 0.05149 0.85481 0.0
H367 H 0.37982 0.95709 0.76704 0.0
H368 H 0.22588 0.11718 0.8143 0.0
H369 H 0.37105 0.10059 0.82497 0.0
H370 H 0.40278 0.03394 0.69027 0.0
O371 O 0.39108 0.34744 0.6698 0.0
H372 H 0.17968 0.32293 0.70086 0.0
H373 H 0.31001 0.38593 0.78655 0.0
H374 H 0.20415 0.04287 0.89461 0.0
H375 H 0.61433 0.20445 0.66407 0.0
H376 H 0.28583 0.96603 0.87472 0.0
H377 H 0.59525 0.0829 0.80054 0.0
O378 O 0.26951 0.15736 0.68905 0.0
H379 H 0.3175 0.22936 0.48223 0.0
H380 H 0.29778 0.3898 0.62448 0.0
H381 H 0.29117 0.4041 0.51799 0.0
H382 H 0.30103 0.32339 0.44582 0.0
H383 H 0.32045 0.2163 0.59027 0.0
H384 H 0.21737 0.44225 0.86271 0.0
H385 H 0.10462 0.43927 0.85656 0.0
O386 O 0.2366 0.2417 0.72837 0.0
C387 C 0.30524 0.23917 0.81872 0.0
C388 C 0.13562 0.38184 0.777 0.0
C389 C 0.20885 0.41644 0.827 0.0
N390 N 0.25064 0.35123 0.73902 0.0
C391 C 0.18891 0.3502 0.73492 0.0
C392 C 0.26139 0.38509 0.7831 0.0
C393 C 0.14554 0.41458 0.82385 0.0
C394 C 0.49401 0.18976 0.69192 0.0
N395 N 0.4306 0.15502 0.73647 0.0
C396 C 0.57184 0.17955 0.69474 0.0
C397 C 0.56004 0.10159 0.7825 0.0
C398 C 0.47929 0.08159 0.8161 0.0
C399 C 0.42093 0.11081 0.79258 0.0
C400 C 0.34625 -0.00748 0.77792 0.0
C401 C 0.26084 0.0829 0.80383 0.0
C402 C 0.35834 0.03625 0.73379 0.0
N403 N 0.32 0.08366 0.75065 0.0
C404 C 0.24793 0.04079 0.84975 0.0
C405 C 0.29293 -0.00324 0.83781 0.0
C406 C 0.22353 0.19357 0.71375 0.0
C407 C 0.31089 0.26451 0.51416 0.0
C408 C 0.29947 0.3541 0.59477 0.0
C409 C 0.29662 0.36262 0.53394 0.0
C410 C 0.30228 0.3174 0.49346 0.0
N411 N 0.30622 0.30185 0.61573 0.0
C412 C 0.31226 0.25739 0.57584 0.0
Co413 Co 0.71846 0.17258 0.78652 0.0
Co414 Co 0.72974 0.30854 0.81593 0.0
O415 O 0.67717 0.23954 0.83914 0.0
C416 C 0.68347 0.09285 0.89665 0.0
O417 O 0.74789 0.08654 0.88333 0.0
C418 C 0.59665 0.34718 0.90509 0.0
O419 O 0.59045 0.29734 0.93029 0.0
O420 O 0.72308 0.3011 0.72944 0.0
O421 O 0.76935 0.2181 0.70925 0.0
H422 H 0.94577 0.412 0.74712 0.0
H423 H 0.5738 0.22461 0.83459 0.0
O424 O 0.66365 0.12623 0.86319 0.0
H425 H 0.63082 0.05866 0.6293 0.0
H426 H 0.74339 0.97728 0.69708 0.0
H427 H 0.85543 0.15439 0.6886 0.0
H428 H 0.71483 0.11788 0.66269 0.0
H429 H 0.69166 0.04725 0.78192 0.0
O430 O 0.64485 0.35651 0.8503 0.0
H431 H 0.85805 0.35196 0.82138 0.0
H432 H 0.72255 0.40282 0.73501 0.0
H433 H 0.91077 0.08383 0.60942 0.0
H434 H 0.45513 0.19722 0.82505 0.0
H435 H 0.85431 -0.00621 0.61121 0.0
H436 H 0.49463 0.07589 0.6846 0.0
O437 O 0.79218 0.17812 0.81836 0.0
H438 H 0.70015 0.24092 0.03909 0.0
H439 H 0.73613 0.40402 0.89836 0.0
H440 H 0.72612 0.41614 0.01071 0.0
H441 H 0.70704 0.33409 0.08259 0.0
H442 H 0.71981 0.22958 0.92405 0.0
H443 H 0.8097 0.46077 0.65748 0.0
H444 H 0.92321 0.4649 0.66202 0.0
O445 O 0.81716 0.26529 0.78701 0.0
C446 C 0.7488 0.26136 0.69049 0.0
C447 C 0.89695 0.41017 0.74405 0.0
C448 C 0.82085 0.43741 0.6935 0.0
N449 N 0.78506 0.37339 0.78254 0.0
C450 C 0.84661 0.37683 0.78677 0.0
C451 C 0.77116 0.40506 0.73834 0.0
C452 C 0.88436 0.43959 0.69611 0.0
C453 C 0.57642 0.19569 0.79708 0.0
N454 N 0.64535 0.16733 0.75211 0.0
C455 C 0.50151 0.17664 0.7936 0.0
C456 C 0.52664 0.09885 0.7031 0.0
C457 C 0.61046 0.08761 0.66901 0.0
C458 C 0.66312 0.12375 0.69412 0.0
C459 C 0.76937 0.01496 0.69747 0.0
C460 C 0.8302 0.11541 0.6924 0.0
C461 C 0.73968 0.05551 0.74474 0.0
N462 N 0.76692 0.10724 0.73796 0.0
C463 C 0.86276 0.0749 0.64681 0.0
C464 C 0.83127 0.02473 0.64823 0.0
C465 C 0.83226 0.21859 0.80492 0.0
C466 C 0.71143 0.27666 0.00747 0.0
C467 C 0.73309 0.36766 0.92725 0.0
C468 C 0.72559 0.37495 0.99174 0.0
C469 C 0.71445 0.32903 0.03213 0.0
N470 N 0.73263 0.3159 0.90231 0.0
C471 C 0.7226 0.2706 0.94181 0.0
H472 H 0.03997 0.09013 0.5374 0.0
H473 H 1.00256 0.04551 0.36729 0.0
H474 H 0.97165 0.9517 0.41009 0.0
H475 H 0.95169 0.8835 0.4975 0.0
H476 H 0.97769 0.93076 0.67263 0.0
H477 H 0.01894 0.02179 0.62556 0.0
C478 C 0.02393 0.06011 0.51023 0.0
C479 C 0.02148 0.07526 0.45015 0.0
C480 C 1.00605 0.00631 0.53535 0.0
C481 C 1.00301 0.0353 0.41443 0.0
C482 C 0.98601 0.98155 0.43862 0.0
C483 C 0.96721 0.91349 0.52506 0.0
C484 C 0.96241 0.90024 0.58824 0.0
C485 C 0.987 0.96669 0.49916 0.0
C486 C 0.98161 0.93984 0.62374 0.0
C487 C 1.00482 -0.00809 0.59692 0.0
H488 H 0.04022 0.87618 0.03056 0.0
H489 H 1.00209 0.92879 0.86306 0.0
H490 H 0.97634 0.02274 0.90786 0.0
H491 H 0.9612 0.08875 0.99612 0.0
H492 H 0.98738 0.03406 0.169 0.0
H493 H 0.0248 0.94271 0.11945 0.0
C494 C 0.025 0.90801 1.00451 0.0
C495 C 0.02092 0.89523 0.94455 0.0
C496 C 1.01037 0.96186 0.03064 0.0
C497 C 1.00375 0.93735 0.91009 0.0
C498 C 0.98978 -0.00888 0.93537 0.0
C499 C 0.97575 0.057 0.02274 0.0
C500 C 0.97196 0.06814 0.08603 0.0
C501 C 0.99261 0.00373 0.99573 0.0
C502 C 0.99041 0.02651 0.12009 0.0
C503 C 1.01127 0.97426 0.09191 0.0
H504 H 0.47767 0.37791 0.48603 0.0
H505 H 0.45885 0.44082 0.67316 0.0
H506 H 0.50269 0.53061 0.62399 0.0
H507 H 0.54892 0.59024 0.52713 0.0
H508 H 0.56767 0.52662 0.34027 0.0
H509 H 0.51839 0.43877 0.39058 0.0
C510 C 0.48376 0.41104 0.51609 0.0
C511 C 0.46643 0.40219 0.58308 0.0
C512 C 0.50747 0.4628 0.48772 0.0
C513 C 0.47285 0.4462 0.62142 0.0
C514 C 0.49757 0.49761 0.59332 0.0
C515 C 0.54133 0.55744 0.49749 0.0
C516 C 0.56155 0.56516 0.42991 0.0
C517 C 0.51512 0.50635 0.52648 0.0
C518 C 0.55224 0.52189 0.39226 0.0
C519 C 0.52445 0.47156 0.42102 0.0
H520 H 0.47121 0.5234 0.13234 0.0
H521 H 0.47162 0.62374 0.97202 0.0
H522 H 0.51321 0.54579 0.8982 0.0
H523 H 0.56023 0.45068 0.8757 0.0
H524 H 0.55625 0.34897 0.03626 0.0
H525 H 0.50866 0.42529 0.11137 0.0
C526 C 0.48105 0.52826 0.08118 0.0
C527 C 0.47014 0.58019 0.0579 0.0
C528 C 0.50618 0.48297 0.03798 0.0
C529 C 0.48132 0.58497 0.9915 0.0
C530 C 0.50466 0.54007 0.94896 0.0
C531 C 0.54825 0.4451 0.92716 0.0
C532 C 0.56211 0.39388 0.94974 0.0
C533 C 0.51946 0.48928 0.97102 0.0
C534 C 0.54593 0.38762 0.01698 0.0
C535 C 0.51893 0.43154 0.06033 0.0
H536 H 0.86969 0.44249 0.07499 0.0
H537 H 0.04566 0.33948 0.02733 0.0
H538 H 0.11708 0.41747 0.97321 0.0
H539 H 0.12964 0.5162 0.93889 0.0
H540 H 0.95234 0.6194 0.99212 0.0
H541 H 0.88207 0.54104 0.04331 0.0
C542 C 0.92367 0.43753 0.05302 0.0
C543 C 0.95224 0.38564 0.05554 0.0
C544 C 0.96448 0.4828 0.02252 0.0
C545 C 0.02226 0.37898 0.02548 0.0
C546 C 0.06324 0.42373 0.99491 0.0
C547 C 0.07573 0.52154 0.96243 0.0
C548 C 0.04673 0.57396 0.96206 0.0
C549 C 0.03499 0.47603 0.99317 0.0
C550 C 0.97654 0.57996 0.99245 0.0
C551 C 0.93594 0.53493 0.0216 0.0
H552 H 0.97532 0.38677 0.47106 0.0
H553 H 0.17735 0.43937 0.43378 0.0
H554 H 0.13446 0.5286 0.48654 0.0
H555 H 0.03867 0.59166 0.54331 0.0
H556 H 0.83779 0.5389 0.57595 0.0
H557 H 0.8812 0.45018 0.52318 0.0
C558 C 1.01004 0.41748 0.47503 0.0
C559 C 0.07939 0.40621 0.44928 0.0
C560 C 0.98522 0.46904 0.50341 0.0
C561 C 0.12371 0.44693 0.45372 0.0
C562 C 0.09921 0.498 0.48357 0.0
C563 C 1.00468 0.56097 0.53787 0.0
C564 C 0.93512 0.57157 0.56344 0.0
C565 C 0.03003 0.5097 0.50814 0.0
C566 C 0.89145 0.53138 0.55685 0.0
C567 C 0.91622 0.48067 0.5269 0.0
H568 H 0.54879 0.08616 0.92513 0.0
H569 H 0.70832 0.01198 0.97055 0.0
H570 H 0.6329 0.9388 0.03089 0.0
H571 H 0.52243 0.89494 0.06986 0.0
H572 H 0.3614 0.97071 0.02823 0.0
H573 H 0.43652 0.04436 0.96828 0.0
C574 C 0.56696 0.05443 0.94892 0.0
C575 C 0.63468 0.05413 0.94213 0.0
C576 C 0.52313 0.01247 0.98408 0.0
C577 C 0.65673 0.01313 0.97439 0.0
C578 C 0.61362 0.97105 0.00885 0.0
C579 C 0.50373 0.92725 0.04725 0.0
C580 C 0.4362 0.92699 0.05358 0.0
C581 C 0.547 0.96991 0.01338 0.0
C582 C 0.41318 0.96938 0.02378 0.0
C583 C 0.45613 0.01173 0.98956 0.0
H584 H 0.55372 0.88148 0.42644 0.0
H585 H 0.71268 0.95919 0.4677 0.0
H586 H 0.63627 0.03359 0.52554 0.0
H587 H 0.52444 0.07753 0.56409 0.0
H588 H 0.36436 -0.0022 0.52649 0.0
H589 H 0.44043 0.92297 0.46967 0.0
C590 C 0.5716 0.91424 0.4488 0.0
C591 C 0.63957 0.91509 0.44132 0.0
C592 C 0.52705 0.95687 0.4828 0.0
C593 C 0.66101 0.9575 0.47195 0.0
C594 C 0.61725 0.0003 0.50508 0.0
C595 C 0.50628 0.04422 0.54272 0.0
C596 C 0.43855 0.0439 0.54933 0.0
C597 C 0.55036 0.00084 0.51017 0.0
C598 C 0.41622 -0.00011 0.52159 0.0
C599 C 0.4598 0.95681 0.48904 0.0
H600 H 0.26511 0.80741 0.40841 0.0
H601 H 0.3165 0.63311 0.38635 0.0
H602 H 0.28159 0.62492 0.50414 0.0
H603 H 0.23887 0.668 0.61168 0.0
H604 H 0.18568 0.84195 0.63251 0.0
H605 H 0.21812 0.84932 0.51512 0.0
C606 C 0.26849 0.76736 0.42883 0.0
C607 C 0.29343 0.72088 0.38837 0.0
C608 C 0.24781 0.76297 0.49595 0.0
C609 C 0.2976 0.66953 0.4163 0.0
C610 C 0.27755 0.66485 0.48353 0.0
C611 C 0.23414 0.70756 0.59066 0.0
C612 C 0.21055 0.75457 0.63051 0.0
C613 C 0.25287 0.71141 0.52357 0.0
C614 C 0.2038 0.80529 0.60277 0.0
C615 C 0.22258 0.80952 0.5358 0.0
H616 H 0.73202 0.67737 0.91992 0.0
H617 H 0.83125 0.83601 0.88654 0.0
H618 H 0.83484 0.83221 0.99485 0.0
H619 H 0.81052 0.78337 0.09704 0.0
H620 H 0.71136 0.62461 0.12946 0.0
H621 H 0.7098 0.62791 0.02059 0.0
C622 C 0.75451 0.71128 0.93597 0.0
C623 C 0.78136 0.75695 0.89522 0.0
C624 C 0.75751 0.70825 0.99714 0.0
C625 C 0.80984 0.80061 0.91723 0.0
C626 C 0.81237 0.79822 0.97877 0.0
C627 C 0.78866 0.74929 0.08047 0.0
C628 C 0.76051 0.70397 0.12148 0.0
C629 C 0.78665 0.75205 0.01879 0.0
C630 C 0.73323 0.65994 0.09883 0.0
C631 C 0.73188 0.66201 0.03692 0.0
H632 H 0.7281 0.2898 0.4188 0.0
H633 H 0.83491 0.13338 0.38502 0.0
H634 H 0.8349 0.13664 0.49453 0.0
H635 H 0.80728 0.18482 0.59725 0.0
H636 H 0.70081 0.34137 0.63157 0.0
H637 H 0.70055 0.33819 0.52196 0.0
C638 C 0.75146 0.25631 0.43514 0.0
C639 C 0.78181 0.2115 0.39361 0.0
C640 C 0.75242 0.25904 0.49735 0.0
C641 C 0.81104 0.16821 0.41607 0.0
C642 C 0.81149 0.17027 0.47839 0.0
C643 C 0.78395 0.21843 0.58109 0.0
C644 C 0.75381 0.26323 0.62272 0.0
C645 C 0.78292 0.21576 0.519 0.0
C646 C 0.72448 0.30654 0.60044 0.0
C647 C 0.7239 0.30451 0.53807 0.0
H648 H 0.21675 0.29552 0.11371 0.0
H649 H 0.18094 0.11925 0.13132 0.0
H650 H 0.21194 0.11283 0.01355 0.0
H651 H 0.25813 0.15657 0.90665 0.0
H652 H 0.29667 0.33276 0.89064 0.0
H653 H 0.25634 0.3398 0.00843 0.0
C654 C 0.21542 0.25558 0.09196 0.0
C655 C 0.19781 0.2077 0.13064 0.0
C656 C 0.23453 0.25223 0.02508 0.0
C657 C 0.1946 0.15655 0.10225 0.0
C658 C 0.21278 0.15291 0.03512 0.0
C659 C 0.25748 0.19666 0.92865 0.0
C660 C 0.28077 0.24409 0.88975 0.0
C661 C 0.23441 0.20034 0.99613 0.0
C662 C 0.27941 0.29562 0.91933 0.0
C663 C 0.2562 0.2997 0.9866 0.0
H664 H 0.39903 0.31832 0.2558 0.0
H665 H 0.37352 0.14281 0.29485 0.0
H666 H 0.49101 0.13322 0.2777 0.0
H667 H 0.60024 0.17364 0.25274 0.0
H668 H 0.63341 0.34649 0.20268 0.0
H669 H 0.51391 0.35829 0.2233 0.0
C670 C 0.41925 0.27809 0.26077 0.0
C671 C 0.37672 0.23146 0.27775 0.0
C672 C 0.48838 0.2723 0.24848 0.0
C673 C 0.40427 0.17951 0.28277 0.0
C674 C 0.47182 0.17388 0.27269 0.0
C675 C 0.58238 0.21372 0.24472 0.0
C676 C 0.62688 0.25862 0.22472 0.0
C677 C 0.51428 0.21984 0.25542 0.0
C678 C 0.60095 0.31076 0.21714 0.0
C679 C 0.53239 0.3176 0.2292 0.0
H680 H 0.58917 0.78888 0.77322 0.0
H681 H 0.63003 0.6203 0.70472 0.0
H682 H 0.51034 0.60651 0.72891 0.0
H683 H 0.39336 0.64428 0.76677 0.0
H684 H 0.35917 0.8155 0.82668 0.0
H685 H 0.47635 0.82602 0.80928 0.0
C686 C 0.5726 0.74925 0.7625 0.0
C687 C 0.61936 0.70625 0.7357 0.0
C688 C 0.50417 0.74186 0.77586 0.0
C689 C 0.59563 0.65463 0.72435 0.0
C690 C 0.52698 0.64661 0.7385 0.0
C691 C 0.41159 0.68362 0.77657 0.0
C692 C 0.36698 0.72903 0.79848 0.0
C693 C 0.48062 0.69014 0.76398 0.0
C694 C 0.39179 0.77984 0.81023 0.0
C695 C 0.45917 0.78604 0.79994 0.0
H696 H 0.15298 0.72391 0.16338 0.0
H697 H 0.14582 0.86188 0.2874 0.0
H698 H 0.02329 0.86706 0.32269 0.0
H699 H 0.91628 0.8237 0.32732 0.0
H700 H 0.9296 0.6818 0.20458 0.0
H701 H 0.0503 0.68617 0.16108 0.0
C702 C 0.12445 0.75498 0.19825 0.0
C703 C 0.15776 0.79116 0.2244 0.0
C704 C 0.05452 0.75635 0.21951 0.0
C705 C 0.12102 0.83311 0.26714 0.0
C706 C 0.05084 0.83572 0.2877 0.0
C707 C 0.94573 0.7939 0.29117 0.0
C708 C 0.91334 0.75138 0.27131 0.0
C709 C 0.01664 0.79609 0.26598 0.0
C710 C 0.95255 0.71387 0.22294 0.0
C711 C 0.022 0.7165 0.1972 0.0
H712 H 0.11993 0.24625 0.80404 0.0
H713 H 0.16441 0.11171 0.66637 0.0
H714 H 0.04391 0.10257 0.68907 0.0
H715 H 0.92761 0.14 0.74068 0.0
H716 H 0.8889 0.27931 0.8711 0.0
H717 H 1.00605 0.27911 0.85928 0.0
C718 C 0.10371 0.21481 0.7786 0.0
C719 C 0.15142 0.18079 0.73197 0.0
C720 C 0.03542 0.21093 0.79066 0.0
C721 C 0.12889 0.13899 0.70163 0.0
C722 C 0.06004 0.13391 0.71459 0.0
C723 C 0.94477 0.17019 0.76646 0.0
C724 C 0.90022 0.21107 0.80494 0.0
C725 C 0.01304 0.17078 0.75772 0.0
C726 C 0.92286 0.24887 0.83952 0.0
C727 C 0.98966 0.24849 0.83306 0.0
loop_
_geom_bond_atom_site_label_1
_geom_bond_atom_site_label_2
_geom_bond_distance
_geom_bond_site_symmetry_2
_ccdc_geom_bond_type
Co0 O2 2.143 . S
Co0 O8 2.074 . S
Co0 O11 2.093 . S
Co0 O24 2.097 . S
Co0 N41 2.151 . S
Co0 N49 2.214 . S
Co1 O2 2.160 . S
Co1 O7 2.058 . S
Co1 O17 2.057 . S
Co1 O32 2.037 . S
Co1 N36 2.145 . S
Co1 N57 2.257 . S
O2 Co0 2.143 . S
O2 Co1 2.160 . S
C3 O4 1.278 . S
C3 O11 1.224 . S
O4 C3 1.278 . S
C5 O6 1.245 . S
C5 O17 1.232 . S
O6 C5 1.245 . S
O7 Co1 2.058 . S
O7 C33 1.269 . S
O8 Co0 2.074 . S
O8 C33 1.257 . S
H9 C34 0.930 . S
H10 C40 0.930 . S
O11 Co0 2.093 . S
O11 C3 1.224 . S
H12 C44 0.929 . S
H13 C46 0.930 . S
H14 C47 0.930 . S
H15 C45 0.929 . S
H16 C48 0.928 . S
O17 Co1 2.057 . S
O17 C5 1.232 . S
H18 C37 0.929 . S
H19 C38 0.929 . S
H20 C50 0.931 . S
H21 C42 0.929 . S
H22 C51 0.930 . S
H23 C43 0.931 . S
O24 Co0 2.097 . S
O24 C52 1.214 . S
H25 C53 0.929 . S
H26 C54 0.929 . S
H27 C55 0.930 . S
H28 C56 0.929 . S
H29 C58 0.930 . S
H30 C35 0.930 1_565 S
H31 C39 0.930 . S
O32 Co1 2.037 . S
O32 C52 1.234 . S
C33 O7 1.269 . S
C33 O8 1.257 . S
C34 H9 0.930 . S
C34 C37 1.388 . S
C34 C39 1.418 . S
C35 H30 0.930 1_545 S
C35 C38 1.404 . S
C35 C39 1.353 . S
N36 Co1 2.145 . S
N36 C37 1.397 . S
N36 C38 1.334 . S
C37 H18 0.929 . S
C37 C34 1.388 . S
C37 N36 1.397 . S
C38 H19 0.929 . S
C38 C35 1.404 . S
C38 N36 1.334 . S
C39 H31 0.930 . S
C39 C34 1.418 . S
C39 C35 1.353 . S
C40 H10 0.930 . S
C40 N41 1.330 . S
C40 C42 1.446 1_455 S
N41 Co0 2.151 . S
N41 C40 1.330 . S
N41 C45 1.418 . S
C42 H21 0.929 . S
C42 C40 1.446 1_655 S
C42 C43 1.332 . S
C43 H23 0.931 . S
C43 C42 1.332 . S
C43 C44 1.267 1_655 S
C44 H12 0.929 . S
C44 C43 1.267 1_455 S
C44 C45 1.251 . S
C45 H15 0.929 . S
C45 N41 1.418 . S
C45 C44 1.251 . S
C46 H13 0.930 . S
C46 C48 1.406 . S
C46 C51 1.261 . S
C47 H14 0.930 . S
C47 N49 1.325 . S
C47 C50 1.357 . S
C48 H16 0.928 . S
C48 C46 1.406 . S
C48 N49 1.261 . S
N49 Co0 2.214 . S
N49 C47 1.325 . S
N49 C48 1.261 . S
C50 H20 0.931 . S
C50 C47 1.357 . S
C50 C51 1.312 . S
C51 H22 0.930 . S
C51 C46 1.261 . S
C51 C50 1.312 . S
C52 O24 1.214 . S
C52 O32 1.234 . S
C53 H25 0.929 . S
C53 C56 1.391 . S
C53 C58 1.391 . S
C54 H26 0.929 . S
C54 C55 1.390 . S
C54 N57 1.391 . S
C55 H27 0.930 . S
C55 C54 1.390 . S
C55 C56 1.392 . S
C56 H28 0.929 . S
C56 C53 1.391 . S
C56 C55 1.392 . S
N57 Co1 2.257 . S
N57 C54 1.391 . S
N57 C58 1.388 . S
C58 H29 0.930 . S
C58 C53 1.391 . S
C58 N57 1.388 . S
Co59 O61 2.143 . S
Co59 O67 2.074 . S
Co59 O70 2.093 . S
Co59 O83 2.097 . S
Co59 N100 2.151 . S
Co59 N108 2.214 . S
Co60 O61 2.160 . S
Co60 O66 2.058 . S
Co60 O76 2.057 . S
Co60 O91 2.037 . S
Co60 N95 2.145 . S
Co60 N116 2.257 . S
O61 Co59 2.143 . S
O61 Co60 2.160 . S
C62 O63 1.278 . S
C62 O70 1.224 . S
O63 C62 1.278 . S
C64 O65 1.245 . S
C64 O76 1.232 . S
O65 C64 1.245 . S
O66 Co60 2.058 . S
O66 C92 1.269 . S
O67 Co59 2.074 . S
O67 C92 1.257 . S
H68 C93 0.930 . S
H69 C99 0.930 . S
O70 Co59 2.093 . S
O70 C62 1.224 . S
H71 C103 0.929 . S
H72 C105 0.930 . S
H73 C106 0.930 . S
H74 C104 0.929 . S
H75 C107 0.928 . S
O76 Co60 2.057 . S
O76 C64 1.232 . S
H77 C96 0.929 . S
H78 C97 0.929 . S
H79 C109 0.931 . S
H80 C101 0.929 . S
H81 C110 0.930 . S
H82 C102 0.931 . S
O83 Co59 2.097 . S
O83 C111 1.214 . S
H84 C112 0.929 . S
H85 C113 0.929 . S
H86 C114 0.930 . S
H87 C115 0.929 . S
H88 C117 0.930 . S
H89 C94 0.930 1_565 S
H90 C98 0.930 . S
O91 Co60 2.037 . S
O91 C111 1.234 . S
C92 O66 1.269 . S
C92 O67 1.257 . S
C93 H68 0.930 . S
C93 C96 1.388 . S
C93 C98 1.418 . S
C94 H89 0.930 1_545 S
C94 C97 1.404 . S
C94 C98 1.353 . S
N95 Co60 2.145 . S
N95 C96 1.397 . S
N95 C97 1.334 . S
C96 H77 0.929 . S
C96 C93 1.388 . S
C96 N95 1.397 . S
C97 H78 0.929 . S
C97 C94 1.404 . S
C97 N95 1.334 . S
C98 H90 0.930 . S
C98 C93 1.418 . S
C98 C94 1.353 . S
C99 H69 0.930 . S
C99 N100 1.330 . S
C99 C101 1.446 1_655 S
N100 Co59 2.151 . S
N100 C99 1.330 . S
N100 C104 1.418 . S
C101 H80 0.929 . S
C101 C99 1.446 1_455 S
C101 C102 1.332 . S
C102 H82 0.931 . S
C102 C101 1.332 . S
C102 C103 1.267 1_455 S
C103 H71 0.929 . S
C103 C102 1.267 1_655 S
C103 C104 1.251 . S
C104 H74 0.929 . S
C104 N100 1.418 . S
C104 C103 1.251 . S
C105 H72 0.930 . S
C105 C107 1.406 . S
C105 C110 1.261 . S
C106 H73 0.930 . S
C106 N108 1.325 . S
C106 C109 1.357 . S
C107 H75 0.928 . S
C107 C105 1.406 . S
C107 N108 1.261 . S
N108 Co59 2.214 . S
N108 C106 1.325 . S
N108 C107 1.261 . S
C109 H79 0.931 . S
C109 C106 1.357 . S
C109 C110 1.312 . S
C110 H81 0.930 . S
C110 C105 1.261 . S
C110 C109 1.312 . S
C111 O83 1.214 . S
C111 O91 1.234 . S
C112 H84 0.929 . S
C112 C115 1.391 . S
C112 C117 1.391 1_556 S
C113 H85 0.929 . S
C113 C114 1.390 . S
C113 N116 1.391 . S
C114 H86 0.930 . S
C114 C113 1.390 . S
C114 C115 1.392 1_554 S
C115 H87 0.929 . S
C115 C112 1.391 . S
C115 C114 1.392 1_556 S
N116 Co60 2.257 . S
N116 C113 1.391 . S
N116 C117 1.388 . S
C117 H88 0.930 . S
C117 C112 1.391 1_554 S
C117 N116 1.388 . S
Co118 O120 2.143 . S
Co118 O126 2.074 . S
Co118 O129 2.093 . S
Co118 O142 2.097 . S
Co118 N159 2.151 . S
Co118 N167 2.214 . S
Co119 O120 2.160 . S
Co119 O125 2.058 . S
Co119 O135 2.057 . S
Co119 O150 2.037 . S
Co119 N154 2.145 . S
Co119 N175 2.257 . S
O120 Co118 2.143 . S
O120 Co119 2.160 . S
C121 O122 1.278 . S
C121 O129 1.224 . S
O122 C121 1.278 . S
C123 O124 1.245 . S
C123 O135 1.232 . S
O124 C123 1.245 . S
O125 Co119 2.058 . S
O125 C151 1.269 . S
O126 Co118 2.074 . S
O126 C151 1.257 . S
H127 C152 0.930 . S
H128 C158 0.930 . S
O129 Co118 2.093 . S
O129 C121 1.224 . S
H130 C162 0.929 . S
H131 C164 0.930 . S
H132 C165 0.930 . S
H133 C163 0.929 . S
H134 C166 0.928 . S
O135 Co119 2.057 . S
O135 C123 1.232 . S
H136 C155 0.929 . S
H137 C156 0.929 . S
H138 C168 0.931 . S
H139 C160 0.929 . S
H140 C169 0.930 . S
H141 C161 0.931 . S
O142 Co118 2.097 . S
O142 C170 1.214 . S
H143 C171 0.929 . S
H144 C172 0.929 . S
H145 C173 0.930 . S
H146 C174 0.929 . S
H147 C176 0.930 . S
H148 C153 0.930 1_545 S
H149 C157 0.930 . S
O150 Co119 2.037 . S
O150 C170 1.234 . S
C151 O125 1.269 . S
C151 O126 1.257 . S
C152 H127 0.930 . S
C152 C155 1.388 . S
C152 C157 1.418 . S
C153 H148 0.930 1_565 S
C153 C156 1.404 . S
C153 C157 1.353 . S
N154 Co119 2.145 . S
N154 C155 1.397 . S
N154 C156 1.334 . S
C155 H136 0.929 . S
C155 C152 1.388 . S
C155 N154 1.397 . S
C156 H137 0.929 . S
C156 C153 1.404 . S
C156 N154 1.334 . S
C157 H149 0.930 . S
C157 C152 1.418 . S
C157 C153 1.353 . S
C158 H128 0.930 . S
C158 N159 1.330 . S
C158 C160 1.446 1_655 S
N159 Co118 2.151 . S
N159 C158 1.330 . S
N159 C163 1.418 . S
C160 H139 0.929 . S
C160 C158 1.446 1_455 S
C160 C161 1.332 . S
C161 H141 0.931 . S
C161 C160 1.332 . S
C161 C162 1.267 1_455 S
C162 H130 0.929 . S
C162 C161 1.267 1_655 S
C162 C163 1.251 . S
C163 H133 0.929 . S
C163 N159 1.418 . S
C163 C162 1.251 . S
C164 H131 0.930 . S
C164 C166 1.406 . S
C164 C169 1.261 . S
C165 H132 0.930 . S
C165 N167 1.325 . S
C165 C168 1.357 . S
C166 H134 0.928 . S
C166 C164 1.406 . S
C166 N167 1.261 . S
N167 Co118 2.214 . S
N167 C165 1.325 . S
N167 C166 1.261 . S
C168 H138 0.931 . S
C168 C165 1.357 . S
C168 C169 1.312 . S
C169 H140 0.930 . S
C169 C164 1.261 . S
C169 C168 1.312 . S
C170 O142 1.214 . S
C170 O150 1.234 . S
C171 H143 0.929 . S
C171 C174 1.391 . S
C171 C176 1.391 . S
C172 H144 0.929 . S
C172 C173 1.390 . S
C172 N175 1.391 . S
C173 H145 0.930 . S
C173 C172 1.390 . S
C173 C174 1.392 . S
C174 H146 0.929 . S
C174 C171 1.391 . S
C174 C173 1.392 . S
N175 Co119 2.257 . S
N175 C172 1.391 . S
N175 C176 1.388 . S
C176 H147 0.930 . S
C176 C171 1.391 . S
C176 N175 1.388 . S
Co177 O179 2.143 . S
Co177 O185 2.074 . S
Co177 O188 2.093 . S
Co177 O201 2.097 . S
Co177 N218 2.151 . S
Co177 N226 2.214 . S
Co178 O179 2.160 . S
Co178 O184 2.058 . S
Co178 O194 2.057 . S
Co178 O209 2.037 . S
Co178 N213 2.145 . S
Co178 N234 2.257 . S
O179 Co177 2.143 . S
O179 Co178 2.160 . S
C180 O181 1.278 . S
C180 O188 1.224 . S
O181 C180 1.278 . S
C182 O183 1.245 . S
C182 O194 1.232 . S
O183 C182 1.245 . S
O184 Co178 2.058 . S
O184 C210 1.269 . S
O185 Co177 2.074 . S
O185 C210 1.257 . S
H186 C211 0.930 . S
H187 C217 0.930 . S
O188 Co177 2.093 . S
O188 C180 1.224 . S
H189 C221 0.929 . S
H190 C223 0.930 . S
H191 C224 0.930 . S
H192 C222 0.929 . S
H193 C225 0.928 . S
O194 Co178 2.057 . S
O194 C182 1.232 . S
H195 C214 0.929 . S
H196 C215 0.929 . S
H197 C227 0.931 . S
H198 C219 0.929 . S
H199 C228 0.930 . S
H200 C220 0.931 . S
O201 Co177 2.097 . S
O201 C229 1.214 . S
H202 C230 0.929 . S
H203 C231 0.929 . S
H204 C232 0.930 . S
H205 C233 0.929 . S
H206 C235 0.930 . S
H207 C212 0.930 1_545 S
H208 C216 0.930 . S
O209 Co178 2.037 . S
O209 C229 1.234 . S
C210 O184 1.269 . S
C210 O185 1.257 . S
C211 H186 0.930 . S
C211 C214 1.388 . S
C211 C216 1.418 . S
C212 H207 0.930 1_565 S
C212 C215 1.404 . S
C212 C216 1.353 . S
N213 Co178 2.145 . S
N213 C214 1.397 . S
N213 C215 1.334 . S
C214 H195 0.929 . S
C214 C211 1.388 . S
C214 N213 1.397 . S
C215 H196 0.929 . S
C215 C212 1.404 . S
C215 N213 1.334 . S
C216 H208 0.930 . S
C216 C211 1.418 . S
C216 C212 1.353 . S
C217 H187 0.930 . S
C217 N218 1.330 . S
C217 C219 1.446 1_455 S
N218 Co177 2.151 . S
N218 C217 1.330 . S
N218 C222 1.418 . S
C219 H198 0.929 . S
C219 C217 1.446 1_655 S
C219 C220 1.332 . S
C220 H200 0.931 . S
C220 C219 1.332 . S
C220 C221 1.267 1_655 S
C221 H189 0.929 . S
C221 C220 1.267 1_455 S
C221 C222 1.251 . S
C222 H192 0.929 . S
C222 N218 1.418 . S
C222 C221 1.251 . S
C223 H190 0.930 . S
C223 C225 1.406 . S
C223 C228 1.261 . S
C224 H191 0.930 . S
C224 N226 1.325 . S
C224 C227 1.357 . S
C225 H193 0.928 . S
C225 C223 1.406 . S
C225 N226 1.261 . S
N226 Co177 2.214 . S
N226 C224 1.325 . S
N226 C225 1.261 . S
C227 H197 0.931 . S
C227 C224 1.357 . S
C227 C228 1.312 . S
C228 H199 0.930 . S
C228 C223 1.261 . S
C228 C227 1.312 . S
C229 O201 1.214 . S
C229 O209 1.234 . S
C230 H202 0.929 . S
C230 C233 1.391 . S
C230 C235 1.391 1_554 S
C231 H203 0.929 . S
C231 C232 1.390 . S
C231 N234 1.391 . S
C232 H204 0.930 . S
C232 C231 1.390 . S
C232 C233 1.392 1_556 S
C233 H205 0.929 . S
C233 C230 1.391 . S
C233 C232 1.392 1_554 S
N234 Co178 2.257 . S
N234 C231 1.391 . S
N234 C235 1.388 . S
C235 H206 0.930 . S
C235 C230 1.391 1_556 S
C235 N234 1.388 . S
Co236 O238 2.143 . S
Co236 O244 2.074 . S
Co236 O247 2.093 . S
Co236 O260 2.097 . S
Co236 N277 2.151 . S
Co236 N285 2.214 . S
Co237 O238 2.160 . S
Co237 O243 2.058 . S
Co237 O253 2.057 . S
Co237 O268 2.037 . S
Co237 N272 2.145 . S
Co237 N293 2.257 . S
O238 Co236 2.143 . S
O238 Co237 2.160 . S
C239 O240 1.278 . S
C239 O247 1.224 . S
O240 C239 1.278 . S
C241 O242 1.245 . S
C241 O253 1.232 . S
O242 C241 1.245 . S
O243 Co237 2.058 . S
O243 C269 1.269 . S
O244 Co236 2.074 . S
O244 C269 1.257 . S
H245 C270 0.930 . S
H246 C276 0.930 . S
O247 Co236 2.093 . S
O247 C239 1.224 . S
H248 C280 0.929 . S
H249 C282 0.930 . S
H250 C283 0.930 . S
H251 C281 0.929 . S
H252 C284 0.928 . S
O253 Co237 2.057 . S
O253 C241 1.232 . S
H254 C273 0.929 . S
H255 C274 0.929 . S
H256 C286 0.931 . S
H257 C278 0.929 . S
H258 C287 0.930 . S
H259 C279 0.931 . S
O260 Co236 2.097 . S
O260 C288 1.214 . S
H261 C289 0.929 . S
H262 C290 0.929 . S
H263 C291 0.930 . S
H264 C292 0.929 . S
H265 C294 0.930 . S
H266 C271 0.930 . S
H267 C275 0.930 . S
O268 Co237 2.037 . S
O268 C288 1.234 . S
C269 O243 1.269 . S
C269 O244 1.257 . S
C270 H245 0.930 . S
C270 C273 1.388 . S
C270 C275 1.418 . S
C271 H266 0.930 . S
C271 C274 1.404 . S
C271 C275 1.353 . S
N272 Co237 2.145 . S
N272 C273 1.397 . S
N272 C274 1.334 . S
C273 H254 0.929 . S
C273 C270 1.388 . S
C273 N272 1.397 . S
C274 H255 0.929 . S
C274 C271 1.404 . S
C274 N272 1.334 . S
C275 H267 0.930 . S
C275 C270 1.418 . S
C275 C271 1.353 . S
C276 H246 0.930 . S
C276 N277 1.330 . S
C276 C278 1.446 . S
N277 Co236 2.151 . S
N277 C276 1.330 . S
N277 C281 1.418 . S
C278 H257 0.929 . S
C278 C276 1.446 . S
C278 C279 1.332 . S
C279 H259 0.931 . S
C279 C278 1.332 . S
C279 C280 1.267 . S
C280 H248 0.929 . S
C280 C279 1.267 . S
C280 C281 1.251 . S
C281 H251 0.929 . S
C281 N277 1.418 . S
C281 C280 1.251 . S
C282 H249 0.930 . S
C282 C284 1.406 1_545 S
C282 C287 1.261 . S
C283 H250 0.930 . S
C283 N285 1.325 . S
C283 C286 1.357 . S
C284 H252 0.928 . S
C284 C282 1.406 1_565 S
C284 N285 1.261 . S
N285 Co236 2.214 . S
N285 C283 1.325 . S
N285 C284 1.261 . S
C286 H256 0.931 . S
C286 C283 1.357 . S
C286 C287 1.312 1_565 S
C287 H258 0.930 . S
C287 C282 1.261 . S
C287 C286 1.312 1_545 S
C288 O260 1.214 . S
C288 O268 1.234 . S
C289 H261 0.929 . S
C289 C292 1.391 . S
C289 C294 1.391 . S
C290 H262 0.929 . S
C290 C291 1.390 . S
C290 N293 1.391 . S
C291 H263 0.930 . S
C291 C290 1.390 . S
C291 C292 1.392 . S
C292 H264 0.929 . S
C292 C289 1.391 . S
C292 C291 1.392 . S
N293 Co237 2.257 . S
N293 C290 1.391 . S
N293 C294 1.388 . S
C294 H265 0.930 . S
C294 C289 1.391 . S
C294 N293 1.388 . S
Co295 O297 2.143 . S
Co295 O303 2.074 . S
Co295 O306 2.093 . S
Co295 O319 2.097 . S
Co295 N336 2.151 . S
Co295 N344 2.214 . S
Co296 O297 2.160 . S
Co296 O302 2.058 . S
Co296 O312 2.057 . S
Co296 O327 2.037 . S
Co296 N331 2.145 . S
Co296 N352 2.257 . S
O297 Co295 2.143 . S
O297 Co296 2.160 . S
C298 O299 1.278 . S
C298 O306 1.224 . S
O299 C298 1.278 . S
C300 O301 1.245 . S
C300 O312 1.232 . S
O301 C300 1.245 . S
O302 Co296 2.058 . S
O302 C328 1.269 . S
O303 Co295 2.074 . S
O303 C328 1.257 . S
H304 C329 0.930 . S
H305 C335 0.930 . S
O306 Co295 2.093 . S
O306 C298 1.224 . S
H307 C339 0.929 . S
H308 C341 0.930 . S
H309 C342 0.930 . S
H310 C340 0.929 . S
H311 C343 0.928 . S
O312 Co296 2.057 . S
O312 C300 1.232 . S
H313 C332 0.929 . S
H314 C333 0.929 . S
H315 C345 0.931 . S
H316 C337 0.929 . S
H317 C346 0.930 . S
H318 C338 0.931 . S
O319 Co295 2.097 . S
O319 C347 1.214 . S
H320 C348 0.929 . S
H321 C349 0.929 . S
H322 C350 0.930 . S
H323 C351 0.929 . S
H324 C353 0.930 . S
H325 C330 0.930 . S
H326 C334 0.930 . S
O327 Co296 2.037 . S
O327 C347 1.234 . S
C328 O302 1.269 . S
C328 O303 1.257 . S
C329 H304 0.930 . S
C329 C332 1.388 . S
C329 C334 1.418 . S
C330 H325 0.930 . S
C330 C333 1.404 . S
C330 C334 1.353 . S
N331 Co296 2.145 . S
N331 C332 1.397 . S
N331 C333 1.334 . S
C332 H313 0.929 . S
C332 C329 1.388 . S
C332 N331 1.397 . S
C333 H314 0.929 . S
C333 C330 1.404 . S
C333 N331 1.334 . S
C334 H326 0.930 . S
C334 C329 1.418 . S
C334 C330 1.353 . S
C335 H305 0.930 . S
C335 N336 1.330 . S
C335 C337 1.446 . S
N336 Co295 2.151 . S
N336 C335 1.330 . S
N336 C340 1.418 . S
C337 H316 0.929 . S
C337 C335 1.446 . S
C337 C338 1.332 . S
C338 H318 0.931 . S
C338 C337 1.332 . S
C338 C339 1.267 . S
C339 H307 0.929 . S
C339 C338 1.267 . S
C339 C340 1.251 . S
C340 H310 0.929 . S
C340 N336 1.418 . S
C340 C339 1.251 . S
C341 H308 0.930 . S
C341 C343 1.406 1_545 S
C341 C346 1.261 . S
C342 H309 0.930 . S
C342 N344 1.325 . S
C342 C345 1.357 . S
C343 H311 0.928 . S
C343 C341 1.406 1_565 S
C343 N344 1.261 . S
N344 Co295 2.214 . S
N344 C342 1.325 . S
N344 C343 1.261 . S
C345 H315 0.931 . S
C345 C342 1.357 . S
C345 C346 1.312 1_565 S
C346 H317 0.930 . S
C346 C341 1.261 . S
C346 C345 1.312 1_545 S
C347 O319 1.214 . S
C347 O327 1.234 . S
C348 H320 0.929 . S
C348 C351 1.391 . S
C348 C353 1.391 1_556 S
C349 H321 0.929 . S
C349 C350 1.390 . S
C349 N352 1.391 . S
C350 H322 0.930 . S
C350 C349 1.390 . S
C350 C351 1.392 1_554 S
C351 H323 0.929 . S
C351 C348 1.391 . S
C351 C350 1.392 1_556 S
N352 Co296 2.257 . S
N352 C349 1.391 . S
N352 C353 1.388 . S
C353 H324 0.930 . S
C353 C348 1.391 1_554 S
C353 N352 1.388 . S
Co354 O356 2.143 . S
Co354 O362 2.074 . S
Co354 O365 2.093 . S
Co354 O378 2.097 . S
Co354 N395 2.151 . S
Co354 N403 2.214 . S
Co355 O356 2.160 . S
Co355 O361 2.058 . S
Co355 O371 2.057 . S
Co355 O386 2.037 . S
Co355 N390 2.145 . S
Co355 N411 2.257 . S
O356 Co354 2.143 . S
O356 Co355 2.160 . S
C357 O358 1.278 . S
C357 O365 1.224 . S
O358 C357 1.278 . S
C359 O360 1.245 . S
C359 O371 1.232 . S
O360 C359 1.245 . S
O361 Co355 2.058 . S
O361 C387 1.269 . S
O362 Co354 2.074 . S
O362 C387 1.257 . S
H363 C388 0.930 . S
H364 C394 0.930 . S
O365 Co354 2.093 . S
O365 C357 1.224 . S
H366 C398 0.929 . S
H367 C400 0.930 . S
H368 C401 0.930 . S
H369 C399 0.929 . S
H370 C402 0.928 . S
O371 Co355 2.057 . S
O371 C359 1.232 . S
H372 C391 0.929 . S
H373 C392 0.929 . S
H374 C404 0.931 . S
H375 C396 0.929 . S
H376 C405 0.930 . S
H377 C397 0.931 . S
O378 Co354 2.097 . S
O378 C406 1.214 . S
H379 C407 0.929 . S
H380 C408 0.929 . S
H381 C409 0.930 . S
H382 C410 0.929 . S
H383 C412 0.930 . S
H384 C389 0.930 . S
H385 C393 0.930 . S
O386 Co355 2.037 . S
O386 C406 1.234 . S
C387 O361 1.269 . S
C387 O362 1.257 . S
C388 H363 0.930 . S
C388 C391 1.388 . S
C388 C393 1.418 . S
C389 H384 0.930 . S
C389 C392 1.404 . S
C389 C393 1.353 . S
N390 Co355 2.145 . S
N390 C391 1.397 . S
N390 C392 1.334 . S
C391 H372 0.929 . S
C391 C388 1.388 . S
C391 N390 1.397 . S
C392 H373 0.929 . S
C392 C389 1.404 . S
C392 N390 1.334 . S
C393 H385 0.930 . S
C393 C388 1.418 . S
C393 C389 1.353 . S
C394 H364 0.930 . S
C394 N395 1.330 . S
C394 C396 1.446 . S
N395 Co354 2.151 . S
N395 C394 1.330 . S
N395 C399 1.418 . S
C396 H375 0.929 . S
C396 C394 1.446 . S
C396 C397 1.332 . S
C397 H377 0.931 . S
C397 C396 1.332 . S
C397 C398 1.267 . S
C398 H366 0.929 . S
C398 C397 1.267 . S
C398 C399 1.251 . S
C399 H369 0.929 . S
C399 N395 1.418 . S
C399 C398 1.251 . S
C400 H367 0.930 . S
C400 C402 1.406 1_565 S
C400 C405 1.261 . S
C401 H368 0.930 . S
C401 N403 1.325 . S
C401 C404 1.357 . S
C402 H370 0.928 . S
C402 C400 1.406 1_545 S
C402 N403 1.261 . S
N403 Co354 2.214 . S
N403 C401 1.325 . S
N403 C402 1.261 . S
C404 H374 0.931 . S
C404 C401 1.357 . S
C404 C405 1.312 1_545 S
C405 H376 0.930 . S
C405 C400 1.261 . S
C405 C404 1.312 1_565 S
C406 O378 1.214 . S
C406 O386 1.234 . S
C407 H379 0.929 . S
C407 C410 1.391 . S
C407 C412 1.391 . S
C408 H380 0.929 . S
C408 C409 1.390 . S
C408 N411 1.391 . S
C409 H381 0.930 . S
C409 C408 1.390 . S
C409 C410 1.392 . S
C410 H382 0.929 . S
C410 C407 1.391 . S
C410 C409 1.392 . S
N411 Co355 2.257 . S
N411 C408 1.391 . S
N411 C412 1.388 . S
C412 H383 0.930 . S
C412 C407 1.391 . S
C412 N411 1.388 . S
Co413 O415 2.143 . S
Co413 O421 2.074 . S
Co413 O424 2.093 . S
Co413 O437 2.097 . S
Co413 N454 2.151 . S
Co413 N462 2.214 . S
Co414 O415 2.160 . S
Co414 O420 2.058 . S
Co414 O430 2.057 . S
Co414 O445 2.037 . S
Co414 N449 2.145 . S
Co414 N470 2.257 . S
O415 Co413 2.143 . S
O415 Co414 2.160 . S
C416 O417 1.278 . S
C416 O424 1.224 . S
O417 C416 1.278 . S
C418 O419 1.245 . S
C418 O430 1.232 . S
O419 C418 1.245 . S
O420 Co414 2.058 . S
O420 C446 1.269 . S
O421 Co413 2.074 . S
O421 C446 1.257 . S
H422 C447 0.930 . S
H423 C453 0.930 . S
O424 Co413 2.093 . S
O424 C416 1.224 . S
H425 C457 0.929 . S
H426 C459 0.930 . S
H427 C460 0.930 . S
H428 C458 0.929 . S
H429 C461 0.928 . S
O430 Co414 2.057 . S
O430 C418 1.232 . S
H431 C450 0.929 . S
H432 C451 0.929 . S
H433 C463 0.931 . S
H434 C455 0.929 . S
H435 C464 0.930 . S
H436 C456 0.931 . S
O437 Co413 2.097 . S
O437 C465 1.214 . S
H438 C466 0.929 . S
H439 C467 0.929 . S
H440 C468 0.930 . S
H441 C469 0.929 . S
H442 C471 0.930 . S
H443 C448 0.930 . S
H444 C452 0.930 . S
O445 Co414 2.037 . S
O445 C465 1.234 . S
C446 O420 1.269 . S
C446 O421 1.257 . S
C447 H422 0.930 . S
C447 C450 1.388 . S
C447 C452 1.418 . S
C448 H443 0.930 . S
C448 C451 1.404 . S
C448 C452 1.353 . S
N449 Co414 2.145 . S
N449 C450 1.397 . S
N449 C451 1.334 . S
C450 H431 0.929 . S
C450 C447 1.388 . S
C450 N449 1.397 . S
C451 H432 0.929 . S
C451 C448 1.404 . S
C451 N449 1.334 . S
C452 H444 0.930 . S
C452 C447 1.418 . S
C452 C448 1.353 . S
C453 H423 0.930 . S
C453 N454 1.330 . S
C453 C455 1.446 . S
N454 Co413 2.151 . S
N454 C453 1.330 . S
N454 C458 1.418 . S
C455 H434 0.929 . S
C455 C453 1.446 . S
C455 C456 1.332 . S
C456 H436 0.931 . S
C456 C455 1.332 . S
C456 C457 1.267 . S
C457 H425 0.929 . S
C457 C456 1.267 . S
C457 C458 1.251 . S
C458 H428 0.929 . S
C458 N454 1.418 . S
C458 C457 1.251 . S
C459 H426 0.930 . S
C459 C461 1.406 1_565 S
C459 C464 1.261 . S
C460 H427 0.930 . S
C460 N462 1.325 . S
C460 C463 1.357 . S
C461 H429 0.928 . S
C461 C459 1.406 1_545 S
C461 N462 1.261 . S
N462 Co413 2.214 . S
N462 C460 1.325 . S
N462 C461 1.261 . S
C463 H433 0.931 . S
C463 C460 1.357 . S
C463 C464 1.312 1_545 S
C464 H435 0.930 . S
C464 C459 1.261 . S
C464 C463 1.312 1_565 S
C465 O437 1.214 . S
C465 O445 1.234 . S
C466 H438 0.929 . S
C466 C469 1.391 . S
C466 C471 1.391 1_554 S
C467 H439 0.929 . S
C467 C468 1.390 . S
C467 N470 1.391 . S
C468 H440 0.930 . S
C468 C467 1.390 . S
C468 C469 1.392 1_556 S
C469 H441 0.929 . S
C469 C466 1.391 . S
C469 C468 1.392 1_554 S
N470 Co414 2.257 . S
N470 C467 1.391 . S
N470 C471 1.388 . S
C471 H442 0.930 . S
C471 C466 1.391 1_556 S
C471 N470 1.388 . S
H472 C478 0.930 . S
H473 C481 0.930 . S
H474 C482 0.930 . S
H475 C483 0.930 . S
H476 C486 0.930 . S
H477 C487 0.930 . S
C478 H472 0.930 . S
C478 C479 1.355 . S
C478 C480 1.415 . S
C479 C478 1.355 . S
C479 C481 1.419 1_455 S
C480 C478 1.415 . S
C480 C485 1.425 1_445 S
C480 C487 1.409 1_545 S
C481 H473 0.930 . S
C481 C479 1.419 1_655 S
C481 C482 1.362 . S
C482 H474 0.930 . S
C482 C481 1.362 . S
C482 C485 1.409 1_545 S
C483 H475 0.930 . S
C483 C484 1.355 . S
C483 C485 1.415 . S
C484 C483 1.355 . S
C484 C486 1.419 1_655 S
C485 C480 1.425 1_665 S
C485 C482 1.409 1_565 S
C485 C483 1.415 . S
C486 H476 0.930 . S
C486 C484 1.419 1_455 S
C486 C487 1.362 . S
C487 H477 0.930 . S
C487 C480 1.409 1_565 S
C487 C486 1.362 . S
H488 C494 0.930 1_554 S
H489 C497 0.930 . S
H490 C498 0.930 1_545 S
H491 C499 0.930 1_556 S
H492 C502 0.930 . S
H493 C503 0.930 1_565 S
C494 H488 0.930 1_556 S
C494 C495 1.355 . S
C494 C496 1.415 1_556 S
C495 C494 1.355 . S
C495 C497 1.419 1_455 S
C496 C494 1.415 1_554 S
C496 C501 1.425 1_464 S
C496 C503 1.409 1_565 S
C497 H489 0.930 . S
C497 C495 1.419 1_655 S
C497 C498 1.362 . S
C498 H490 0.930 1_565 S
C498 C497 1.362 . S
C498 C501 1.409 1_565 S
C499 H491 0.930 1_554 S
C499 C500 1.355 . S
C499 C501 1.415 1_554 S
C500 C499 1.355 . S
C500 C502 1.419 1_655 S
C501 C496 1.425 1_646 S
C501 C498 1.409 1_545 S
C501 C499 1.415 1_556 S
C502 H492 0.930 . S
C502 C500 1.419 1_455 S
C502 C503 1.362 . S
C503 H493 0.930 1_545 S
C503 C496 1.409 1_545 S
C503 C502 1.362 . S
H504 C510 0.930 . S
H505 C513 0.930 . S
H506 C514 0.930 . S
H507 C515 0.930 . S
H508 C518 0.930 . S
H509 C519 0.930 . S
C510 H504 0.930 . S
C510 C511 1.355 . S
C510 C512 1.415 . S
C511 C510 1.355 . S
C511 C513 1.419 . S
C512 C510 1.415 . S
C512 C517 1.425 . S
C512 C519 1.409 . S
C513 H505 0.930 . S
C513 C511 1.419 . S
C513 C514 1.362 . S
C514 H506 0.930 . S
C514 C513 1.362 . S
C514 C517 1.409 . S
C515 H507 0.930 . S
C515 C516 1.355 . S
C515 C517 1.415 . S
C516 C515 1.355 . S
C516 C518 1.419 . S
C517 C512 1.425 . S
C517 C514 1.409 . S
C517 C515 1.415 . S
C518 H508 0.930 . S
C518 C516 1.419 . S
C518 C519 1.362 . S
C519 H509 0.930 . S
C519 C512 1.409 . S
C519 C518 1.362 . S
H520 C526 0.930 . S
H521 C529 0.930 . S
H522 C530 0.930 . S
H523 C531 0.930 . S
H524 C534 0.930 . S
H525 C535 0.930 . S
C526 H520 0.930 . S
C526 C527 1.355 . S
C526 C528 1.415 . S
C527 C526 1.355 . S
C527 C529 1.419 . S
C528 C526 1.415 . S
C528 C533 1.425 1_554 S
C528 C535 1.409 . S
C529 H521 0.930 . S
C529 C527 1.419 . S
C529 C530 1.362 1_554 S
C530 H522 0.930 . S
C530 C529 1.362 1_556 S
C530 C533 1.409 . S
C531 H523 0.930 . S
C531 C532 1.355 . S
C531 C533 1.415 . S
C532 C531 1.355 . S
C532 C534 1.419 . S
C533 C528 1.425 1_556 S
C533 C530 1.409 . S
C533 C531 1.415 . S
C534 H524 0.930 . S
C534 C532 1.419 . S
C534 C535 1.362 1_556 S
C535 H525 0.930 . S
C535 C528 1.409 . S
C535 C534 1.362 1_554 S
H536 C542 0.930 . S
H537 C545 0.930 . S
H538 C546 0.930 . S
H539 C547 0.930 . S
H540 C550 0.930 . S
H541 C551 0.930 . S
C542 H536 0.930 . S
C542 C543 1.355 . S
C542 C544 1.415 . S
C543 C542 1.355 . S
C543 C545 1.419 1_554 S
C544 C542 1.415 . S
C544 C549 1.425 1_654 S
C544 C551 1.409 . S
C545 H537 0.930 . S
C545 C543 1.419 1_556 S
C545 C546 1.362 1_655 S
C546 H538 0.930 . S
C546 C545 1.362 1_455 S
C546 C549 1.409 . S
C547 H539 0.930 . S
C547 C548 1.355 . S
C547 C549 1.415 . S
C548 C547 1.355 . S
C548 C550 1.419 1_556 S
C549 C544 1.425 1_456 S
C549 C546 1.409 . S
C549 C547 1.415 . S
C550 H540 0.930 . S
C550 C548 1.419 1_554 S
C550 C551 1.362 1_455 S
C551 H541 0.930 . S
C551 C544 1.409 . S
C551 C550 1.362 1_655 S
H552 C558 0.930 . S
H553 C561 0.930 . S
H554 C562 0.930 . S
H555 C563 0.930 . S
H556 C566 0.930 . S
H557 C567 0.930 . S
C558 H552 0.930 . S
C558 C559 1.355 . S
C558 C560 1.420 . S
C559 C558 1.355 . S
C559 C561 1.419 . S
C560 C558 1.420 . S
C560 C565 1.420 1_455 S
C560 C567 1.406 1_455 S
C561 H553 0.930 . S
C561 C559 1.419 . S
C561 C562 1.362 . S
C562 H554 0.930 . S
C562 C561 1.362 . S
C562 C565 1.406 1_455 S
C563 H555 0.930 . S
C563 C564 1.355 . S
C563 C565 1.420 . S
C564 C563 1.355 . S
C564 C566 1.419 . S
C565 C560 1.420 1_655 S
C565 C562 1.406 1_655 S
C565 C563 1.420 . S
C566 H556 0.930 . S
C566 C564 1.419 . S
C566 C567 1.362 . S
C567 H557 0.930 . S
C567 C560 1.406 1_655 S
C567 C566 1.362 . S
H568 C574 0.930 . S
H569 C577 0.930 . S
H570 C578 0.930 . S
H571 C579 0.930 . S
H572 C582 0.930 . S
H573 C583 0.930 . S
C574 H568 0.930 . S
C574 C575 1.355 . S
C574 C576 1.415 1_556 S
C575 C574 1.355 . S
C575 C577 1.419 . S
C576 C574 1.415 1_554 S
C576 C581 1.425 1_544 S
C576 C583 1.409 . S
C577 H569 0.930 . S
C577 C575 1.419 . S
C577 C578 1.362 1_545 S
C578 H570 0.930 . S
C578 C577 1.362 1_565 S
C578 C581 1.409 . S
C579 H571 0.930 . S
C579 C580 1.355 . S
C579 C581 1.415 1_554 S
C580 C579 1.355 . S
C580 C582 1.419 . S
C581 C576 1.425 1_566 S
C581 C578 1.409 . S
C581 C579 1.415 1_556 S
C582 H572 0.930 . S
C582 C580 1.419 . S
C582 C583 1.362 1_565 S
C583 H573 0.930 . S
C583 C576 1.409 . S
C583 C582 1.362 1_545 S
H584 C590 0.930 . S
H585 C593 0.930 . S
H586 C594 0.930 . S
H587 C595 0.930 . S
H588 C598 0.930 . S
H589 C599 0.930 . S
C590 H584 0.930 . S
C590 C591 1.355 . S
C590 C592 1.415 . S
C591 C590 1.355 . S
C591 C593 1.419 . S
C592 C590 1.415 . S
C592 C597 1.425 1_565 S
C592 C599 1.409 . S
C593 H585 0.930 . S
C593 C591 1.419 . S
C593 C594 1.362 1_565 S
C594 H586 0.930 . S
C594 C593 1.362 1_545 S
C594 C597 1.409 . S
C595 H587 0.930 . S
C595 C596 1.355 . S
C595 C597 1.415 . S
C596 C595 1.355 . S
C596 C598 1.419 . S
C597 C592 1.425 1_545 S
C597 C594 1.409 . S
C597 C595 1.415 . S
C598 H588 0.930 . S
C598 C596 1.419 . S
C598 C599 1.362 1_545 S
C599 H589 0.930 . S
C599 C592 1.409 . S
C599 C598 1.362 1_565 S
H600 C606 0.930 . S
H601 C609 0.930 . S
H602 C610 0.930 . S
H603 C611 0.930 . S
H604 C614 0.930 . S
H605 C615 0.930 . S
C606 H600 0.930 . S
C606 C607 1.355 . S
C606 C608 1.415 . S
C607 C606 1.355 . S
C607 C609 1.419 . S
C608 C606 1.415 . S
C608 C613 1.425 . S
C608 C615 1.409 . S
C609 H601 0.930 . S
C609 C607 1.419 . S
C609 C610 1.362 . S
C610 H602 0.930 . S
C610 C609 1.362 . S
C610 C613 1.409 . S
C611 H603 0.930 . S
C611 C612 1.355 . S
C611 C613 1.415 . S
C612 C611 1.355 . S
C612 C614 1.419 . S
C613 C608 1.425 . S
C613 C610 1.409 . S
C613 C611 1.415 . S
C614 H604 0.930 . S
C614 C612 1.419 . S
C614 C615 1.362 . S
C615 H605 0.930 . S
C615 C608 1.409 . S
C615 C614 1.362 . S
H616 C622 0.930 . S
H617 C625 0.930 . S
H618 C626 0.930 1_554 S
H619 C627 0.930 . S
H620 C630 0.930 . S
H621 C631 0.930 1_556 S
C622 H616 0.930 . S
C622 C623 1.355 . S
C622 C624 1.415 . S
C623 C622 1.355 . S
C623 C625 1.419 . S
C624 C622 1.415 . S
C624 C629 1.425 1_556 S
C624 C631 1.409 1_556 S
C625 H617 0.930 . S
C625 C623 1.419 . S
C625 C626 1.362 . S
C626 H618 0.930 1_556 S
C626 C625 1.362 . S
C626 C629 1.409 1_556 S
C627 H619 0.930 . S
C627 C628 1.355 . S
C627 C629 1.415 . S
C628 C627 1.355 . S
C628 C630 1.419 . S
C629 C624 1.425 1_554 S
C629 C626 1.409 1_554 S
C629 C627 1.415 . S
C630 H620 0.930 . S
C630 C628 1.419 . S
C630 C631 1.362 . S
C631 H621 0.930 1_554 S
C631 C624 1.409 1_554 S
C631 C630 1.362 . S
H632 C638 0.930 . S
H633 C641 0.930 . S
H634 C642 0.930 . S
H635 C643 0.930 . S
H636 C646 0.930 . S
H637 C647 0.930 . S
C638 H632 0.930 . S
C638 C639 1.355 . S
C638 C640 1.415 . S
C639 C638 1.355 . S
C639 C641 1.419 . S
C640 C638 1.415 . S
C640 C645 1.425 . S
C640 C647 1.409 . S
C641 H633 0.930 . S
C641 C639 1.419 . S
C641 C642 1.362 . S
C642 H634 0.930 . S
C642 C641 1.362 . S
C642 C645 1.409 . S
C643 H635 0.930 . S
C643 C644 1.355 . S
C643 C645 1.415 . S
C644 C643 1.355 . S
C644 C646 1.419 . S
C645 C640 1.425 . S
C645 C642 1.409 . S
C645 C643 1.415 . S
C646 H636 0.930 . S
C646 C644 1.419 . S
C646 C647 1.362 . S
C647 H637 0.930 . S
C647 C640 1.409 . S
C647 C646 1.362 . S
H648 C654 0.930 . S
H649 C657 0.930 . S
H650 C658 0.930 . S
H651 C659 0.930 . S
H652 C662 0.930 . S
H653 C663 0.930 . S
C654 H648 0.930 . S
C654 C655 1.355 . S
C654 C656 1.415 . S
C655 C654 1.355 . S
C655 C657 1.419 . S
C656 C654 1.415 . S
C656 C661 1.425 1_554 S
C656 C663 1.409 1_554 S
C657 H649 0.930 . S
C657 C655 1.419 . S
C657 C658 1.362 . S
C658 H650 0.930 . S
C658 C657 1.362 . S
C658 C661 1.409 1_554 S
C659 H651 0.930 . S
C659 C660 1.355 . S
C659 C661 1.415 . S
C660 C659 1.355 . S
C660 C662 1.419 . S
C661 C656 1.425 1_556 S
C661 C658 1.409 1_556 S
C661 C659 1.415 . S
C662 H652 0.930 . S
C662 C660 1.419 . S
C662 C663 1.362 . S
C663 H653 0.930 . S
C663 C656 1.409 1_556 S
C663 C662 1.362 . S
H664 C670 0.930 . S
H665 C673 0.930 . S
H666 C674 0.930 . S
H667 C675 0.930 . S
H668 C678 0.930 . S
H669 C679 0.930 . S
C670 H664 0.930 . S
C670 C671 1.355 . S
C670 C672 1.415 . S
C671 C670 1.355 . S
C671 C673 1.419 . S
C672 C670 1.415 . S
C672 C677 1.425 . S
C672 C679 1.409 . S
C673 H665 0.930 . S
C673 C671 1.419 . S
C673 C674 1.362 . S
C674 H666 0.930 . S
C674 C673 1.362 . S
C674 C677 1.409 . S
C675 H667 0.930 . S
C675 C676 1.355 . S
C675 C677 1.415 . S
C676 C675 1.355 . S
C676 C678 1.419 . S
C677 C672 1.425 . S
C677 C674 1.409 . S
C677 C675 1.415 . S
C678 H668 0.930 . S
C678 C676 1.419 . S
C678 C679 1.362 . S
C679 H669 0.930 . S
C679 C672 1.409 . S
C679 C678 1.362 . S
H680 C686 0.930 . S
H681 C689 0.930 . S
H682 C690 0.930 . S
H683 C691 0.930 . S
H684 C694 0.930 . S
H685 C695 0.930 . S
C686 H680 0.930 . S
C686 C687 1.355 . S
C686 C688 1.415 . S
C687 C686 1.355 . S
C687 C689 1.419 . S
C688 C686 1.415 . S
C688 C693 1.425 . S
C688 C695 1.409 . S
C689 H681 0.930 . S
C689 C687 1.419 . S
C689 C690 1.362 . S
C690 H682 0.930 . S
C690 C689 1.362 . S
C690 C693 1.409 . S
C691 H683 0.930 . S
C691 C692 1.355 . S
C691 C693 1.415 . S
C692 C691 1.355 . S
C692 C694 1.419 . S
C693 C688 1.425 . S
C693 C690 1.409 . S
C693 C691 1.415 . S
C694 H684 0.930 . S
C694 C692 1.419 . S
C694 C695 1.362 . S
C695 H685 0.930 . S
C695 C688 1.409 . S
C695 C694 1.362 . S
H696 C702 0.930 . S
H697 C705 0.930 . S
H698 C706 0.928 1_655 S
H699 C707 0.930 . S
H700 C710 0.930 . S
H701 C711 0.928 1_455 S
C702 H696 0.930 . S
C702 C703 1.355 . S
C702 C704 1.415 . S
C703 C702 1.355 . S
C703 C705 1.419 . S
C704 C702 1.415 . S
C704 C709 1.425 1_455 S
C704 C711 1.409 1_455 S
C705 H697 0.930 . S
C705 C703 1.419 . S
C705 C706 1.362 . S
C706 H698 0.928 1_455 S
C706 C705 1.362 . S
C706 C709 1.409 1_455 S
C707 H699 0.930 . S
C707 C708 1.355 . S
C707 C709 1.415 . S
C708 C707 1.355 . S
C708 C710 1.419 . S
C709 C704 1.425 1_655 S
C709 C706 1.409 1_655 S
C709 C707 1.415 . S
C710 H700 0.930 . S
C710 C708 1.419 . S
C710 C711 1.362 . S
C711 H701 0.928 1_655 S
C711 C704 1.409 1_655 S
C711 C710 1.362 . S
H712 C718 0.930 . S
H713 C721 0.930 . S
H714 C722 0.930 . S
H715 C723 0.930 . S
H716 C726 0.930 . S
H717 C727 0.930 . S
C718 H712 0.930 . S
C718 C719 1.355 . S
C718 C720 1.415 . S
C719 C718 1.355 . S
C719 C721 1.419 . S
C720 C718 1.415 . S
C720 C725 1.425 1_455 S
C720 C727 1.409 1_455 S
C721 H713 0.930 . S
C721 C719 1.419 . S
C721 C722 1.362 . S
C722 H714 0.930 . S
C722 C721 1.362 . S
C722 C725 1.409 1_455 S
C723 H715 0.930 . S
C723 C724 1.355 . S
C723 C725 1.415 . S
C724 C723 1.355 . S
C724 C726 1.419 . S
C725 C720 1.425 1_655 S
C725 C722 1.409 1_655 S
C725 C723 1.415 . S
C726 H716 0.930 . S
C726 C724 1.419 . S
C726 C727 1.362 . S
C727 H717 0.930 . S
C727 C720 1.409 1_655 S
C727 C726 1.362 . S
C479 C5 2.064 . S
C484 C123 2.064 . S
C495 C182 2.063 . S
C500 C64 2.063 . S
C511 C359 2.063 . S
C516 C241 2.063 . S
C527 C300 2.059 . S
C532 C418 2.059 . S
C543 C62 1.262 . S
C548 C180 1.262 . S
C559 C3 1.207 . S
C564 C121 1.207 . S
C575 C416 1.245 . S
C580 C298 1.245 . S
C591 C239 1.240 . S
C596 C357 1.240 . S
C607 C328 1.564 . S
C612 C210 1.564 . S
C623 C151 1.589 . S
C628 C269 1.589 . S
C639 C92 1.571 . S
C644 C446 1.571 . S
C655 C33 1.579 . S
C660 C387 1.579 . S
C671 C52 1.618 . S
C676 C111 1.630 . S
C687 C170 1.633 . S
C692 C229 1.611 . S
C703 C347 1.631 . S
C708 C288 1.615 . S
C719 C406 1.625 . S
C724 C465 1.602 . S
