# Generated by pormake.
# Topology gis, (4)-cn, num edge types: 1
# Building blocks:
#     Node 0, Type 0, BuildingBlock: GALJAG_clean_sbu_0, # of connection points: 4
#     Node 1, Type 0, BuildingBlock: GALJAG_clean_sbu_0, # of connection points: 4
#     Node 2, Type 0, BuildingBlock: GALJAG_clean_sbu_0, # of connection points: 4
#     Node 3, Type 0, BuildingBlock: GALJAG_clean_sbu_0, # of connection points: 4
#     Node 4, Type 0, BuildingBlock: GALJAG_clean_sbu_0, # of connection points: 4
#     Node 5, Type 0, BuildingBlock: GALJAG_clean_sbu_0, # of connection points: 4
#     Node 6, Type 0, BuildingBlock: GALJAG_clean_sbu_0, # of connection points: 4
#     Node 7, Type 0, BuildingBlock: GALJAG_clean_sbu_0, # of connection points: 4
#     Node 8, Type 0, BuildingBlock: GALJAG_clean_sbu_0, # of connection points: 4
#     Node 9, Type 0, BuildingBlock: GALJAG_clean_sbu_0, # of connection points: 4
#     Node 10, Type 0, BuildingBlock: GALJAG_clean_sbu_0, # of connection points: 4
#     Node 11, Type 0, BuildingBlock: GALJAG_clean_sbu_0, # of connection points: 4
#     Node 12, Type 0, BuildingBlock: GALJAG_clean_sbu_0, # of connection points: 4
#     Node 13, Type 0, BuildingBlock: GALJAG_clean_sbu_0, # of connection points: 4
#     Node 14, Type 0, BuildingBlock: GALJAG_clean_sbu_0, # of connection points: 4
#     Node 15, Type 0, BuildingBlock: GALJAG_clean_sbu_0, # of connection points: 4
#     Edge 16, Type (0, 0), BuildingBlock: ZUJKAS_clean_linker_0, # of connection points: 2
#     Edge 17, Type (0, 0), BuildingBlock: ZUJKAS_clean_linker_0, # of connection points: 2
#     Edge 18, Type (0, 0), BuildingBlock: ZUJKAS_clean_linker_0, # of connection points: 2
#     Edge 19, Type (0, 0), BuildingBlock: ZUJKAS_clean_linker_0, # of connection points: 2
#     Edge 20, Type (0, 0), BuildingBlock: ZUJKAS_clean_linker_0, # of connection points: 2
#     Edge 21, Type (0, 0), BuildingBlock: ZUJKAS_clean_linker_0, # of connection points: 2
#     Edge 22, Type (0, 0), BuildingBlock: ZUJKAS_clean_linker_0, # of connection points: 2
#     Edge 23, Type (0, 0), BuildingBlock: ZUJKAS_clean_linker_0, # of connection points: 2
#     Edge 24, Type (0, 0), BuildingBlock: ZUJKAS_clean_linker_0, # of connection points: 2
#     Edge 25, Type (0, 0), BuildingBlock: ZUJKAS_clean_linker_0, # of connection points: 2
#     Edge 26, Type (0, 0), BuildingBlock: ZUJKAS_clean_linker_0, # of connection points: 2
#     Edge 27, Type (0, 0), BuildingBlock: ZUJKAS_clean_linker_0, # of connection points: 2
#     Edge 28, Type (0, 0), BuildingBlock: ZUJKAS_clean_linker_0, # of connection points: 2
#     Edge 29, Type (0, 0), BuildingBlock: ZUJKAS_clean_linker_0, # of connection points: 2
#     Edge 30, Type (0, 0), BuildingBlock: ZUJKAS_clean_linker_0, # of connection points: 2
#     Edge 31, Type (0, 0), BuildingBlock: ZUJKAS_clean_linker_0, # of connection points: 2
#     Edge 32, Type (0, 0), BuildingBlock: ZUJKAS_clean_linker_0, # of connection points: 2
#     Edge 33, Type (0, 0), BuildingBlock: ZUJKAS_clean_linker_0, # of connection points: 2
#     Edge 34, Type (0, 0), BuildingBlock: ZUJKAS_clean_linker_0, # of connection points: 2
#     Edge 35, Type (0, 0), BuildingBlock: ZUJKAS_clean_linker_0, # of connection points: 2
#     Edge 36, Type (0, 0), BuildingBlock: ZUJKAS_clean_linker_0, # of connection points: 2
#     Edge 37, Type (0, 0), BuildingBlock: ZUJKAS_clean_linker_0, # of connection points: 2
#     Edge 38, Type (0, 0), BuildingBlock: ZUJKAS_clean_linker_0, # of connection points: 2
#     Edge 39, Type (0, 0), BuildingBlock: ZUJKAS_clean_linker_0, # of connection points: 2
#     Edge 40, Type (0, 0), BuildingBlock: ZUJKAS_clean_linker_0, # of connection points: 2
#     Edge 41, Type (0, 0), BuildingBlock: ZUJKAS_clean_linker_0, # of connection points: 2
#     Edge 42, Type (0, 0), BuildingBlock: ZUJKAS_clean_linker_0, # of connection points: 2
#     Edge 43, Type (0, 0), BuildingBlock: ZUJKAS_clean_linker_0, # of connection points: 2
#     Edge 44, Type (0, 0), BuildingBlock: ZUJKAS_clean_linker_0, # of connection points: 2
#     Edge 45, Type (0, 0), BuildingBlock: ZUJKAS_clean_linker_0, # of connection points: 2
#     Edge 46, Type (0, 0), BuildingBlock: ZUJKAS_clean_linker_0, # of connection points: 2
#     Edge 47, Type (0, 0), BuildingBlock: ZUJKAS_clean_linker_0, # of connection points: 2
# Relax obj value: 0.052
# Max RMSD: 0.088
# Mean RMSD: 0.088
data_MOF--net-gis--node1-GALJAG_clean_sbu_0--edge1-ZUJKAS_clean_linker_0
_symmetry_space_group_name_H-M    P1
_symmetry_Int_Tables_number       1
_symmetry_cell_setting            triclinic
loop_
_symmetry_equiv_pos_as_xyz
'x, y, z'
_cell_length_a     69.763225
_cell_length_b     69.746514
_cell_length_c     48.259066
_cell_angle_alpha  90.128109
_cell_angle_beta   90.155591
_cell_angle_gamma 90.020357
loop_
_atom_site_label
_atom_site_type_symbol
_atom_site_fract_x
_atom_site_fract_y
_atom_site_fract_z
_atom_type_partial_charge
In0 In 0.13621 0.60579 0.12146 0.0
O1 O 0.14991 0.60083 0.16382 0.0
O2 O 0.16826 0.60672 0.12976 0.0
C3 C 0.09906 0.59967 0.13366 0.0
C4 C 0.13639 0.64357 0.1095 0.0
C5 C 0.14183 0.57578 0.0873 0.0
O6 O 0.11199 0.59954 0.15203 0.0
O7 O 0.10492 0.60291 0.10942 0.0
O8 O 0.14071 0.5928 0.07854 0.0
O9 O 0.14027 0.574 0.11321 0.0
C10 C 0.16685 0.60308 0.15525 0.0
O11 O 0.14185 0.63106 0.09231 0.0
O12 O 0.13095 0.63698 0.13247 0.0
In13 In 0.6369 0.88742 0.37364 0.0
O14 O 0.64152 0.86165 0.40225 0.0
O15 O 0.63931 0.85663 0.35891 0.0
C16 C 0.64022 0.91679 0.4095 0.0
C17 C 0.66706 0.89453 0.34066 0.0
C18 C 0.59918 0.88938 0.36177 0.0
O19 O 0.64334 0.89964 0.41656 0.0
O20 O 0.63546 0.91902 0.38448 0.0
O21 O 0.61186 0.89369 0.34422 0.0
O22 O 0.60559 0.88405 0.38495 0.0
C23 C 0.64157 0.84958 0.38272 0.0
O24 O 0.65011 0.89365 0.33145 0.0
O25 O 0.6687 0.89188 0.3664 0.0
In26 In 0.35546 0.3848 0.62057 0.0
O27 O 0.35087 0.39792 0.57776 0.0
O28 O 0.35586 0.41672 0.61183 0.0
C29 C 0.35034 0.34711 0.61064 0.0
C30 C 0.39321 0.38579 0.63256 0.0
C31 C 0.32506 0.39107 0.65346 0.0
O32 O 0.34937 0.35944 0.59154 0.0
O33 O 0.35387 0.35385 0.63437 0.0
O34 O 0.34204 0.3912 0.66262 0.0
O35 O 0.32352 0.38793 0.62779 0.0
C36 C 0.35269 0.41499 0.5862 0.0
O37 O 0.3806 0.38989 0.65035 0.0
O38 O 0.38672 0.3813 0.60902 0.0
In39 In 0.85863 0.10865 0.87507 0.0
O40 O 0.88312 0.10573 0.84412 0.0
O41 O 0.88888 0.09979 0.88665 0.0
C42 C 0.83092 0.10851 0.83597 0.0
C43 C 0.8506 0.07854 0.90793 0.0
C44 C 0.85918 0.1456 0.89246 0.0
O45 O 0.84827 0.10539 0.83018 0.0
O46 O 0.82771 0.11177 0.86121 0.0
O47 O 0.84615 0.13407 0.89939 0.0
O48 O 0.87194 0.13846 0.87726 0.0
C49 C 0.89529 0.10085 0.86225 0.0
O50 O 0.85448 0.09495 0.91756 0.0
O51 O 0.85077 0.07741 0.88186 0.0
In52 In 0.13274 0.38513 0.86764 0.0
O53 O 0.13925 0.35962 0.89593 0.0
O54 O 0.13249 0.35402 0.85374 0.0
C55 C 0.13726 0.41446 0.90342 0.0
C56 C 0.16231 0.39132 0.83308 0.0
C57 C 0.09486 0.38791 0.85704 0.0
O58 O 0.13884 0.39716 0.91076 0.0
O59 O 0.13342 0.41689 0.87811 0.0
O60 O 0.10736 0.39101 0.83871 0.0
O61 O 0.10151 0.38341 0.88046 0.0
C62 C 0.13694 0.34725 0.87708 0.0
O63 O 0.14508 0.39179 0.825 0.0
O64 O 0.16454 0.38781 0.85851 0.0
In65 In 0.85774 0.88811 0.12375 0.0
O66 O 0.85246 0.86173 0.0964 0.0
O67 O 0.86196 0.85736 0.13777 0.0
C68 C 0.8503 0.91674 0.08804 0.0
C69 C 0.82863 0.89279 0.15961 0.0
C70 C 0.89547 0.89389 0.13236 0.0
O71 O 0.84953 0.89932 0.08092 0.0
O72 O 0.85473 0.91961 0.11307 0.0
O73 O 0.88339 0.8948 0.15175 0.0
O74 O 0.88849 0.89008 0.10885 0.0
C75 C 0.85711 0.8499 0.11499 0.0
O76 O 0.84586 0.89587 0.16631 0.0
O77 O 0.82616 0.88729 0.13494 0.0
In78 In 0.35953 0.60789 0.37138 0.0
O79 O 0.35393 0.59497 0.41398 0.0
O80 O 0.35804 0.57593 0.38 0.0
C81 C 0.35547 0.64563 0.38206 0.0
C82 C 0.39738 0.60522 0.36097 0.0
C83 C 0.32988 0.60284 0.33638 0.0
O84 O 0.35303 0.63305 0.4005 0.0
O85 O 0.36002 0.63912 0.35859 0.0
O86 O 0.3471 0.60192 0.32848 0.0
O87 O 0.32769 0.60614 0.36189 0.0
C88 C 0.35484 0.57783 0.40557 0.0
O89 O 0.38489 0.60256 0.34238 0.0
O90 O 0.39075 0.60918 0.38456 0.0
In91 In 0.63717 0.11119 0.62198 0.0
O92 O 0.61338 0.10642 0.65388 0.0
O93 O 0.60557 0.10886 0.61142 0.0
C94 C 0.66881 0.10838 0.65369 0.0
C95 C 0.64195 0.08053 0.58887 0.0
C96 C 0.6382 0.14882 0.60945 0.0
O97 O 0.65216 0.10602 0.66334 0.0
O98 O 0.66943 0.11211 0.62814 0.0
O99 O 0.6414 0.13601 0.59152 0.0
O100 O 0.63443 0.14259 0.63331 0.0
C101 C 0.6001 0.10645 0.63605 0.0
O102 O 0.64089 0.0974 0.57946 0.0
O103 O 0.64065 0.07923 0.61487 0.0
In104 In 0.85491 0.38794 0.87652 0.0
O105 O 0.84616 0.39923 0.91921 0.0
O106 O 0.85442 0.41934 0.8884 0.0
C107 C 0.85272 0.35005 0.88656 0.0
C108 C 0.89234 0.39059 0.86312 0.0
C109 C 0.82454 0.39479 0.84369 0.0
O110 O 0.85509 0.36216 0.90576 0.0
O111 O 0.85151 0.35706 0.86255 0.0
O112 O 0.8412 0.40051 0.83762 0.0
O113 O 0.82332 0.38559 0.8661 0.0
C114 C 0.84877 0.4166 0.91286 0.0
O115 O 0.87935 0.39007 0.84486 0.0
O116 O 0.88639 0.38972 0.8877 0.0
In117 In 0.36068 0.10717 0.62724 0.0
O118 O 0.35431 0.13175 0.59732 0.0
O119 O 0.35832 0.1384 0.63999 0.0
C120 C 0.35897 0.07742 0.59165 0.0
C121 C 0.33 0.10105 0.65976 0.0
C122 C 0.39817 0.10639 0.64111 0.0
O123 O 0.35708 0.09458 0.58384 0.0
O124 O 0.36177 0.07534 0.61729 0.0
O125 O 0.38536 0.0996 0.65671 0.0
O126 O 0.39202 0.11349 0.61881 0.0
C127 C 0.35485 0.14452 0.61591 0.0
O128 O 0.34676 0.10265 0.66948 0.0
O129 O 0.32883 0.10244 0.63376 0.0
In130 In 0.63779 0.60826 0.37445 0.0
O131 O 0.61286 0.59832 0.34716 0.0
O132 O 0.60698 0.61788 0.37996 0.0
C133 C 0.66563 0.59836 0.33859 0.0
C134 C 0.64008 0.58073 0.41335 0.0
C135 C 0.64461 0.64564 0.38497 0.0
O136 O 0.64928 0.6038 0.33058 0.0
O137 O 0.66775 0.59771 0.36451 0.0
O138 O 0.64043 0.63394 0.40394 0.0
O139 O 0.6455 0.63841 0.36106 0.0
C140 C 0.60048 0.60808 0.36004 0.0
O141 O 0.65023 0.5957 0.41434 0.0
O142 O 0.62866 0.57986 0.39311 0.0
In143 In 0.13581 0.88453 0.12104 0.0
O144 O 0.11078 0.89154 0.14985 0.0
O145 O 0.10489 0.88718 0.10703 0.0
C146 C 0.16538 0.88656 0.15684 0.0
C147 C 0.14291 0.91466 0.08787 0.0
C148 C 0.13577 0.84675 0.10898 0.0
O149 O 0.14824 0.88921 0.16428 0.0
O150 O 0.16752 0.88281 0.13146 0.0
O151 O 0.14209 0.85912 0.09225 0.0
O152 O 0.12963 0.85348 0.13153 0.0
C153 C 0.09837 0.89097 0.13076 0.0
O154 O 0.14162 0.89774 0.07862 0.0
O155 O 0.14078 0.91625 0.11371 0.0
In156 In 0.85971 0.60787 0.12861 0.0
O157 O 0.84652 0.60068 0.17047 0.0
O158 O 0.82807 0.61067 0.1384 0.0
C159 C 0.89713 0.60166 0.13905 0.0
C160 C 0.85967 0.6458 0.11803 0.0
C161 C 0.85211 0.57811 0.09479 0.0
O162 O 0.88476 0.602 0.1581 0.0
O163 O 0.89058 0.60445 0.11502 0.0
O164 O 0.85365 0.59506 0.08584 0.0
O165 O 0.85443 0.57632 0.12057 0.0
C166 C 0.82965 0.60478 0.163 0.0
O167 O 0.85451 0.63358 0.10014 0.0
O168 O 0.86477 0.63883 0.14098 0.0
In169 In 0.13598 0.10573 0.87075 0.0
O170 O 0.11052 0.09746 0.84318 0.0
O171 O 0.1048 0.1105 0.88214 0.0
C172 C 0.16564 0.09952 0.83633 0.0
C173 C 0.14022 0.0768 0.9071 0.0
C174 C 0.14055 0.14367 0.87901 0.0
O175 O 0.14847 0.09953 0.82799 0.0
O176 O 0.16776 0.10254 0.86194 0.0
O177 O 0.14203 0.1317 0.89851 0.0
O178 O 0.13678 0.13646 0.85563 0.0
C179 C 0.09808 0.10344 0.86008 0.0
O180 O 0.14233 0.09414 0.91406 0.0
O181 O 0.13594 0.07417 0.88198 0.0
In182 In 0.63443 0.38842 0.62682 0.0
O183 O 0.60884 0.38996 0.65634 0.0
O184 O 0.60344 0.3863 0.61321 0.0
C185 C 0.66311 0.39449 0.66326 0.0
C186 C 0.64001 0.41847 0.59279 0.0
C187 C 0.63776 0.35108 0.61389 0.0
O188 O 0.64646 0.40099 0.66722 0.0
O189 O 0.66514 0.38499 0.64124 0.0
O190 O 0.63841 0.36404 0.59563 0.0
O191 O 0.63541 0.35704 0.63837 0.0
C192 C 0.59656 0.38796 0.63724 0.0
O193 O 0.64669 0.40204 0.58754 0.0
O194 O 0.63053 0.41958 0.61489 0.0
In195 In 0.35868 0.8862 0.37176 0.0
O196 O 0.35471 0.89914 0.41483 0.0
O197 O 0.35797 0.91815 0.38074 0.0
C198 C 0.35454 0.84852 0.38238 0.0
C199 C 0.39635 0.88868 0.36013 0.0
C200 C 0.32826 0.89117 0.33816 0.0
O201 O 0.3519 0.86116 0.40076 0.0
O202 O 0.35925 0.85495 0.35897 0.0
O203 O 0.34526 0.89107 0.32921 0.0
O204 O 0.3267 0.88894 0.36399 0.0
C205 C 0.35567 0.91627 0.40651 0.0
O206 O 0.38362 0.8928 0.34247 0.0
O207 O 0.39002 0.88331 0.38329 0.0
H208 H 0.15028 0.82807 0.06358 0.0
H209 H 0.14991 0.79337 0.05452 0.0
H210 H 0.1205 0.78415 0.13184 0.0
H211 H 0.12072 0.81855 0.14094 0.0
H212 H 0.16591 0.76406 0.08852 0.0
H213 H 0.08766 0.75453 0.0752 0.0
H214 H 0.09921 0.77765 0.07273 0.0
H215 H 0.09367 0.76762 0.10609 0.0
C216 C 0.14363 0.81861 0.07851 0.0
C217 C 0.13547 0.826 0.10292 0.0
C218 C 0.14344 0.79885 0.07332 0.0
C219 C 0.13488 0.78628 0.0923 0.0
C220 C 0.1268 0.79366 0.11666 0.0
H221 H 0.12345 0.67219 0.14281 0.0
H222 H 0.12352 0.70659 0.13362 0.0
C223 C 0.12706 0.81331 0.12191 0.0
C224 C 0.13508 0.76531 0.08768 0.0
H225 H 0.10567 0.72622 0.08698 0.0
C226 C 0.15278 0.75575 0.08755 0.0
C227 C 0.11791 0.75457 0.08629 0.0
C228 C 0.09854 0.76413 0.0848 0.0
C229 C 0.15371 0.73564 0.08803 0.0
C230 C 0.13649 0.72495 0.08834 0.0
C231 C 0.11883 0.73451 0.0869 0.0
C232 C 0.1364 0.70401 0.09306 0.0
C233 C 0.17301 0.72597 0.08986 0.0
C234 C 0.14351 0.69119 0.07314 0.0
C235 C 0.14347 0.67144 0.07833 0.0
C236 C 0.13633 0.66432 0.10351 0.0
C237 C 0.1291 0.67724 0.12325 0.0
C238 C 0.12908 0.69689 0.11802 0.0
H239 H 0.18486 0.73642 0.09295 0.0
H240 H 0.17321 0.71554 0.10721 0.0
H241 H 0.17574 0.71792 0.07041 0.0
H242 H 0.14902 0.69644 0.05362 0.0
H243 H 0.14908 0.66179 0.06272 0.0
H244 H 0.41408 0.89947 0.31192 0.0
H245 H 0.44874 0.90252 0.30387 0.0
H246 H 0.45979 0.88445 0.3878 0.0
H247 H 0.42545 0.88144 0.39602 0.0
H248 H 0.47901 0.91964 0.36942 0.0
H249 H 0.48881 0.85733 0.29818 0.0
H250 H 0.46994 0.87424 0.29097 0.0
H251 H 0.46835 0.85915 0.32089 0.0
C252 C 0.42394 0.89608 0.32857 0.0
C253 C 0.41709 0.89021 0.35459 0.0
C254 C 0.44368 0.89777 0.32391 0.0
C255 C 0.45674 0.8936 0.34522 0.0
C256 C 0.44989 0.88771 0.37112 0.0
H257 H 0.57015 0.88268 0.3978 0.0
H258 H 0.5358 0.88583 0.38946 0.0
C259 C 0.43027 0.88598 0.37575 0.0
C260 C 0.47762 0.89569 0.34126 0.0
H261 H 0.51663 0.87307 0.31388 0.0
C262 C 0.48724 0.90967 0.35691 0.0
C263 C 0.48822 0.88275 0.32474 0.0
C264 C 0.47843 0.86742 0.30775 0.0
C265 C 0.50729 0.91048 0.35754 0.0
C266 C 0.51793 0.89676 0.34248 0.0
C267 C 0.50835 0.88351 0.32547 0.0
C268 C 0.53879 0.89464 0.34673 0.0
C269 C 0.51696 0.92562 0.37504 0.0
C270 C 0.55179 0.89812 0.3252 0.0
C271 C 0.57153 0.89634 0.32992 0.0
C272 C 0.57843 0.89086 0.35615 0.0
C273 C 0.56529 0.88701 0.37741 0.0
C274 C 0.54566 0.88888 0.37273 0.0
H275 H 0.50736 0.93808 0.37873 0.0
H276 H 0.52078 0.9194 0.39547 0.0
H277 H 0.53034 0.93077 0.36509 0.0
H278 H 0.54669 0.90245 0.30494 0.0
H279 H 0.58136 0.89932 0.31313 0.0
H280 H 0.34616 0.32817 0.5611 0.0
H281 H 0.34282 0.29339 0.55405 0.0
H282 H 0.34562 0.28474 0.64242 0.0
H283 H 0.34889 0.31919 0.64962 0.0
H284 H 0.36931 0.26458 0.57196 0.0
H285 H 0.29767 0.25426 0.61861 0.0
H286 H 0.30624 0.27741 0.60731 0.0
H287 H 0.3135 0.26795 0.64037 0.0
C288 C 0.3459 0.31882 0.57899 0.0
C289 C 0.34774 0.32636 0.60591 0.0
C290 C 0.34399 0.29902 0.57493 0.0
C291 C 0.34365 0.28658 0.59775 0.0
C292 C 0.34544 0.29414 0.62458 0.0
H293 H 0.35405 0.17373 0.65324 0.0
H294 H 0.3498 0.20787 0.64405 0.0
C295 C 0.34744 0.31382 0.62863 0.0
C296 C 0.34253 0.26557 0.59395 0.0
H297 H 0.31789 0.2263 0.61626 0.0
C298 C 0.35787 0.25615 0.58104 0.0
C299 C 0.32753 0.2547 0.60575 0.0
C300 C 0.3102 0.2641 0.61855 0.0
C301 C 0.3593 0.23607 0.58141 0.0
C302 C 0.34487 0.22527 0.59475 0.0
C303 C 0.32898 0.23467 0.60621 0.0
C304 C 0.34698 0.20446 0.59965 0.0
C305 C 0.37676 0.2266 0.56908 0.0
C306 C 0.34663 0.19125 0.57769 0.0
C307 C 0.34907 0.17166 0.58289 0.0
C308 C 0.35187 0.16508 0.61013 0.0
C309 C 0.35198 0.17837 0.63204 0.0
C310 C 0.34951 0.19786 0.62684 0.0
H311 H 0.38782 0.23719 0.56284 0.0
H312 H 0.38323 0.21646 0.58416 0.0
H313 H 0.37247 0.21826 0.55047 0.0
H314 H 0.34448 0.19608 0.5566 0.0
H315 H 0.34886 0.16172 0.56563 0.0
H316 H 0.07971 0.08562 0.81691 0.0
H317 H 0.04497 0.08351 0.80895 0.0
H318 H 0.03498 0.11644 0.88324 0.0
H319 H 0.06948 0.11858 0.89136 0.0
H320 H 0.01668 0.06794 0.84731 0.0
H321 H 0.0037 0.1443 0.82151 0.0
H322 H 0.02715 0.13338 0.81951 0.0
H323 H 0.01767 0.14081 0.85243 0.0
C324 C 0.07008 0.09248 0.83144 0.0
C325 C 0.07728 0.1023 0.85472 0.0
C326 C 0.0503 0.09125 0.82688 0.0
C327 C 0.0375 0.10004 0.84532 0.0
C328 C 0.04467 0.10983 0.86854 0.0
H329 H 0.92301 0.08758 0.89702 0.0
H330 H 0.95737 0.08528 0.88805 0.0
C331 C 0.06437 0.11096 0.87321 0.0
C332 C 0.01656 0.09852 0.84117 0.0
H333 H 0.97626 0.1258 0.83452 0.0
C334 C 0.00782 0.08052 0.84405 0.0
C335 C 0.00511 0.11492 0.83656 0.0
C336 C 0.01386 0.13444 0.83205 0.0
C337 C 0.98779 0.07867 0.84405 0.0
C338 C 0.97632 0.09528 0.84133 0.0
C339 C 0.9851 0.1131 0.8368 0.0
C340 C 0.95533 0.09482 0.84549 0.0
C341 C 0.97905 0.05905 0.84754 0.0
C342 C 0.94281 0.10104 0.82456 0.0
C343 C 0.92313 0.10239 0.82965 0.0
C344 C 0.91574 0.09778 0.85587 0.0
C345 C 0.92828 0.0912 0.87659 0.0
C346 C 0.9479 0.08975 0.87144 0.0
H347 H 0.98914 0.04757 0.84109 0.0
H348 H 0.97556 0.0568 0.86972 0.0
H349 H 0.9656 0.05765 0.83533 0.0
H350 H 0.94833 0.10518 0.80448 0.0
H351 H 0.91379 0.10757 0.81333 0.0
H352 H 0.13398 0.31879 0.83877 0.0
H353 H 0.13775 0.28436 0.84598 0.0
H354 H 0.1492 0.29416 0.93272 0.0
H355 H 0.14535 0.32882 0.9257 0.0
H356 H 0.17107 0.26488 0.86843 0.0
H357 H 0.10487 0.25384 0.93084 0.0
H358 H 0.10837 0.2749 0.90976 0.0
H359 H 0.12119 0.27237 0.9418 0.0
C360 C 0.13727 0.31365 0.85941 0.0
C361 C 0.13931 0.32648 0.8817 0.0
C362 C 0.13945 0.29399 0.86346 0.0
C363 C 0.1436 0.28676 0.88989 0.0
C364 C 0.14577 0.29949 0.91223 0.0
H365 H 0.14668 0.16321 0.92757 0.0
H366 H 0.14983 0.19806 0.93359 0.0
C367 C 0.14363 0.31924 0.90817 0.0
C368 C 0.14566 0.26583 0.89361 0.0
H369 H 0.12263 0.22643 0.91892 0.0
C370 C 0.16063 0.25647 0.87975 0.0
C371 C 0.13209 0.25498 0.9086 0.0
C372 C 0.11562 0.26442 0.92353 0.0
C373 C 0.16201 0.23642 0.87965 0.0
C374 C 0.14783 0.2255 0.89332 0.0
C375 C 0.13342 0.23488 0.90839 0.0
C376 C 0.14666 0.20445 0.88996 0.0
C377 C 0.17844 0.22709 0.86448 0.0
C378 C 0.14361 0.19661 0.86353 0.0
C379 C 0.14176 0.17685 0.86006 0.0
C380 C 0.14285 0.16453 0.883 0.0
C381 C 0.14586 0.17238 0.90952 0.0
C382 C 0.14765 0.19223 0.91299 0.0
H383 H 0.19091 0.23693 0.86284 0.0
H384 H 0.18311 0.21373 0.875 0.0
H385 H 0.17376 0.22335 0.84314 0.0
H386 H 0.14237 0.20583 0.84558 0.0
H387 H 0.13936 0.17125 0.83939 0.0
H388 H 0.91459 0.89905 0.18144 0.0
H389 H 0.9493 0.90291 0.18809 0.0
H390 H 0.95764 0.89893 0.09974 0.0
H391 H 0.92318 0.89515 0.09294 0.0
H392 H 0.97801 0.87648 0.17123 0.0
H393 H 0.98804 0.94726 0.12166 0.0
H394 H 0.96491 0.93875 0.13308 0.0
H395 H 0.9746 0.93086 0.10048 0.0
C396 C 0.92385 0.89917 0.16345 0.0
C397 C 0.91621 0.89684 0.13666 0.0
C398 C 0.94362 0.90137 0.16729 0.0
C399 C 0.95595 0.90152 0.14437 0.0
C400 C 0.94831 0.89927 0.11765 0.0
H401 H 0.06993 0.89153 0.09222 0.0
H402 H 0.03563 0.8958 0.09992 0.0
C403 C 0.92863 0.89698 0.11381 0.0
C404 C 0.97695 0.90281 0.1481 0.0
H405 H 0.01616 0.92748 0.12572 0.0
C406 C 0.9864 0.88782 0.16183 0.0
C407 C 0.98776 0.91768 0.13589 0.0
C408 C 0.9783 0.93466 0.12218 0.0
C409 C 0.00649 0.88663 0.162 0.0
C410 C 0.01727 0.90096 0.14842 0.0
C411 C 0.00782 0.91648 0.136 0.0
C412 C 0.03818 0.89909 0.14436 0.0
C413 C 0.01599 0.8695 0.17526 0.0
C414 C 0.05097 0.89974 0.16684 0.0
C415 C 0.07064 0.89728 0.1625 0.0
C416 C 0.07774 0.89416 0.13562 0.0
C417 C 0.06488 0.89384 0.11317 0.0
C418 C 0.0453 0.89633 0.11751 0.0
H419 H 0.00547 0.8583 0.18124 0.0
H420 H 0.02662 0.86305 0.1609 0.0
H421 H 0.02377 0.87417 0.19419 0.0
H422 H 0.04573 0.9021 0.18767 0.0
H423 H 0.08025 0.89767 0.18015 0.0
H424 H 0.3481 0.66381 0.43134 0.0
H425 H 0.34409 0.69845 0.43897 0.0
H426 H 0.35347 0.70857 0.35193 0.0
H427 H 0.35745 0.67424 0.34415 0.0
H428 H 0.37133 0.72843 0.42583 0.0
H429 H 0.30274 0.737 0.36918 0.0
H430 H 0.3112 0.71404 0.38145 0.0
H431 H 0.32042 0.72399 0.3498 0.0
C432 C 0.34923 0.67346 0.41386 0.0
C433 C 0.35302 0.66635 0.38714 0.0
C434 C 0.34694 0.69318 0.41825 0.0
C435 C 0.34818 0.70596 0.39592 0.0
C436 C 0.35209 0.69888 0.36933 0.0
H437 H 0.35805 0.81965 0.34494 0.0
H438 H 0.35482 0.78528 0.35299 0.0
C439 C 0.35447 0.67927 0.36496 0.0
C440 C 0.34613 0.72686 0.4001 0.0
H441 H 0.32158 0.76557 0.37557 0.0
C442 C 0.36022 0.7366 0.41542 0.0
C443 C 0.33156 0.73737 0.38656 0.0
C444 C 0.3155 0.72756 0.37104 0.0
C445 C 0.36091 0.75673 0.41587 0.0
C446 C 0.34701 0.76721 0.40086 0.0
C447 C 0.33227 0.75744 0.38693 0.0
C448 C 0.3487 0.78813 0.39672 0.0
C449 C 0.37712 0.76664 0.43091 0.0
C450 C 0.3462 0.80109 0.41869 0.0
C451 C 0.34803 0.82083 0.41414 0.0
C452 C 0.35238 0.82779 0.38756 0.0
C453 C 0.35473 0.81472 0.36565 0.0
C454 C 0.35286 0.79509 0.37019 0.0
H455 H 0.38799 0.75634 0.43875 0.0
H456 H 0.38429 0.77705 0.41698 0.0
H457 H 0.3713 0.77476 0.44881 0.0
H458 H 0.34278 0.79595 0.43926 0.0
H459 H 0.34609 0.8306 0.43138 0.0
H460 H 0.57025 0.10209 0.60039 0.0
H461 H 0.5362 0.09988 0.61152 0.0
H462 H 0.54947 0.10368 0.69867 0.0
H463 H 0.58381 0.10585 0.68768 0.0
H464 H 0.51684 0.07194 0.64962 0.0
H465 H 0.51067 0.149 0.6795 0.0
H466 H 0.53016 0.14038 0.6583 0.0
H467 H 0.52957 0.13476 0.69451 0.0
C468 C 0.56597 0.10237 0.62195 0.0
C469 C 0.57966 0.10424 0.64318 0.0
C470 C 0.54653 0.10104 0.62826 0.0
C471 C 0.5404 0.10171 0.65586 0.0
C472 C 0.554 0.10323 0.67723 0.0
H473 H 0.41578 0.08807 0.68447 0.0
H474 H 0.4504 0.0862 0.69385 0.0
C475 C 0.57354 0.10444 0.67092 0.0
C476 C 0.51964 0.10152 0.66172 0.0
H477 H 0.4821 0.13148 0.67498 0.0
C478 C 0.50921 0.0848 0.65578 0.0
C479 C 0.50985 0.1184 0.66958 0.0
C480 C 0.52051 0.13675 0.67579 0.0
C481 C 0.4891 0.08477 0.65627 0.0
C482 C 0.4793 0.1019 0.66289 0.0
C483 C 0.48974 0.11837 0.67007 0.0
C484 C 0.45839 0.10367 0.65874 0.0
C485 C 0.47842 0.06681 0.64809 0.0
C486 C 0.45156 0.11433 0.63621 0.0
C487 C 0.43195 0.11535 0.63076 0.0
C488 C 0.4188 0.10583 0.64789 0.0
C489 C 0.42562 0.09552 0.67091 0.0
C490 C 0.44533 0.09441 0.67626 0.0
H491 H 0.48822 0.05516 0.64132 0.0
H492 H 0.46996 0.06159 0.66599 0.0
H493 H 0.46822 0.06996 0.63099 0.0
H494 H 0.46146 0.12156 0.62247 0.0
H495 H 0.42713 0.12346 0.61295 0.0
H496 H 0.82823 0.16718 0.90731 0.0
H497 H 0.82687 0.2022 0.91115 0.0
H498 H 0.88793 0.20529 0.89783 0.0
H499 H 0.88919 0.17043 0.89266 0.0
H500 H 0.84271 0.22975 0.9428 0.0
H501 H 0.86836 0.2371 0.83478 0.0
H502 H 0.86184 0.21428 0.8494 0.0
H503 H 0.88508 0.22451 0.85633 0.0
C504 C 0.84138 0.17535 0.90554 0.0
C505 C 0.85876 0.1662 0.89926 0.0
C506 C 0.84059 0.19533 0.90773 0.0
C507 C 0.85721 0.20639 0.90399 0.0
C508 C 0.87483 0.19709 0.89988 0.0
H509 H 0.86596 0.33013 0.93139 0.0
H510 H 0.86642 0.29524 0.93734 0.0
C511 C 0.87555 0.17719 0.89711 0.0
C512 C 0.85596 0.22759 0.90266 0.0
H513 H 0.86614 0.2657 0.86106 0.0
C514 C 0.84776 0.23765 0.92492 0.0
C515 C 0.86219 0.23783 0.87904 0.0
C516 C 0.86966 0.22787 0.85342 0.0
C517 C 0.84582 0.2577 0.92431 0.0
C518 C 0.8528 0.26798 0.90115 0.0
C519 C 0.86091 0.25786 0.87891 0.0
C520 C 0.85148 0.28916 0.89888 0.0
C521 C 0.83585 0.26756 0.94811 0.0
C522 C 0.8433 0.29738 0.87508 0.0
C523 C 0.84352 0.31719 0.87132 0.0
C524 C 0.85169 0.32923 0.89147 0.0
C525 C 0.85943 0.32113 0.91566 0.0
C526 C 0.85955 0.30122 0.91917 0.0
H527 H 0.82634 0.25752 0.95948 0.0
H528 H 0.84676 0.27297 0.96296 0.0
H529 H 0.82715 0.27989 0.94081 0.0
H530 H 0.83699 0.2884 0.85913 0.0
H531 H 0.83738 0.32308 0.85254 0.0
H532 H 0.6536 0.67272 0.34681 0.0
H533 H 0.6545 0.70743 0.35326 0.0
H534 H 0.64169 0.70045 0.44 0.0
H535 H 0.64076 0.66548 0.43375 0.0
H536 H 0.62011 0.72782 0.37709 0.0
H537 H 0.68871 0.74 0.43407 0.0
H538 H 0.68519 0.71927 0.41209 0.0
H539 H 0.6731 0.72078 0.44472 0.0
C540 C 0.65122 0.67851 0.36736 0.0
C541 C 0.64701 0.66641 0.38977 0.0
C542 C 0.65176 0.69833 0.37099 0.0
C543 C 0.64824 0.70641 0.39709 0.0
C544 C 0.64464 0.6944 0.41977 0.0
H545 H 0.64236 0.83014 0.432 0.0
H546 H 0.64356 0.79522 0.43847 0.0
C547 C 0.64406 0.67449 0.41614 0.0
C548 C 0.64675 0.72744 0.39967 0.0
H549 H 0.67096 0.76734 0.42113 0.0
C550 C 0.63112 0.73648 0.38694 0.0
C551 C 0.66104 0.73856 0.41282 0.0
C552 C 0.67805 0.72929 0.4267 0.0
C553 C 0.62966 0.75649 0.38627 0.0
C554 C 0.64448 0.76771 0.3981 0.0
C555 C 0.65972 0.75866 0.41192 0.0
C556 C 0.64487 0.78877 0.39465 0.0
C557 C 0.61235 0.76544 0.37265 0.0
C558 C 0.64572 0.79661 0.36795 0.0
C559 C 0.64493 0.8164 0.3642 0.0
C560 C 0.6435 0.82875 0.38713 0.0
C561 C 0.64338 0.82093 0.41396 0.0
C562 C 0.64408 0.80104 0.41769 0.0
H563 H 0.59997 0.75541 0.37231 0.0
H564 H 0.60799 0.7788 0.38349 0.0
H565 H 0.61587 0.76907 0.35088 0.0
H566 H 0.64676 0.78738 0.34993 0.0
H567 H 0.64527 0.82201 0.3433 0.0
H568 H 0.84783 0.66479 0.07135 0.0
H569 H 0.84795 0.69959 0.06352 0.0
H570 H 0.87153 0.70843 0.14526 0.0
H571 H 0.87158 0.67389 0.15315 0.0
H572 H 0.82912 0.72832 0.09552 0.0
H573 H 0.90778 0.73896 0.09479 0.0
H574 H 0.89681 0.71571 0.09015 0.0
H575 H 0.89964 0.72568 0.12433 0.0
C576 C 0.85313 0.67418 0.08755 0.0
C577 C 0.85977 0.66664 0.11282 0.0
C578 C 0.85318 0.69401 0.08306 0.0
C579 C 0.86005 0.7065 0.10364 0.0
C580 C 0.86655 0.69898 0.12889 0.0
H581 H 0.86772 0.82247 0.15187 0.0
H582 H 0.868 0.78778 0.14504 0.0
C583 C 0.86646 0.67925 0.13343 0.0
C584 C 0.85985 0.72751 0.09949 0.0
H585 H 0.88863 0.767 0.10284 0.0
C586 C 0.84212 0.73682 0.09657 0.0
C587 C 0.87687 0.73848 0.10077 0.0
C588 C 0.89637 0.7292 0.1024 0.0
C589 C 0.8409 0.75692 0.09663 0.0
C590 C 0.85787 0.76786 0.09933 0.0
C591 C 0.87564 0.75853 0.10093 0.0
C592 C 0.85742 0.78892 0.1029 0.0
C593 C 0.82144 0.76631 0.09526 0.0
C594 C 0.85145 0.80103 0.08136 0.0
C595 C 0.85128 0.82093 0.0852 0.0
C596 C 0.8571 0.82894 0.11063 0.0
C597 C 0.86311 0.81673 0.13207 0.0
C598 C 0.86332 0.79691 0.1282 0.0
H599 H 0.8096 0.75577 0.09746 0.0
H600 H 0.82005 0.77732 0.11179 0.0
H601 H 0.81978 0.77362 0.075 0.0
H602 H 0.84709 0.7951 0.06156 0.0
H603 H 0.84664 0.83001 0.06829 0.0
H604 H 0.63881 0.32161 0.6505 0.0
H605 H 0.64191 0.28749 0.64048 0.0
H606 H 0.64415 0.29956 0.55295 0.0
H607 H 0.64096 0.33401 0.56284 0.0
H608 H 0.61827 0.26931 0.56872 0.0
H609 H 0.69057 0.25932 0.61388 0.0
H610 H 0.67465 0.27186 0.63677 0.0
H611 H 0.68133 0.28259 0.60431 0.0
C612 C 0.64004 0.31707 0.6291 0.0
C613 C 0.63972 0.33048 0.60745 0.0
C614 C 0.64193 0.29757 0.62343 0.0
C615 C 0.6436 0.29108 0.59603 0.0
C616 C 0.64306 0.30436 0.57425 0.0
H617 H 0.64533 0.16634 0.55965 0.0
H618 H 0.64772 0.201 0.55086 0.0
C619 C 0.64124 0.32398 0.57993 0.0
C620 C 0.64519 0.27028 0.59059 0.0
H621 H 0.67087 0.23097 0.61025 0.0
C622 C 0.62998 0.2609 0.57713 0.0
C623 C 0.66058 0.25942 0.60144 0.0
C624 C 0.67781 0.26883 0.61466 0.0
C625 C 0.62907 0.24078 0.57617 0.0
C626 C 0.64377 0.22998 0.58887 0.0
C627 C 0.65957 0.23937 0.60069 0.0
C628 C 0.64189 0.20914 0.59328 0.0
C629 C 0.61186 0.23116 0.56326 0.0
C630 C 0.63786 0.20242 0.61997 0.0
C631 C 0.63645 0.18282 0.62501 0.0
C632 C 0.63918 0.16954 0.60346 0.0
C633 C 0.64315 0.17628 0.57663 0.0
C634 C 0.64448 0.196 0.57156 0.0
H635 H 0.60128 0.24167 0.55517 0.0
H636 H 0.61656 0.22181 0.54592 0.0
H637 H 0.60469 0.22189 0.57879 0.0
H638 H 0.63583 0.21241 0.63695 0.0
H639 H 0.63339 0.17808 0.6459 0.0
H640 H 0.06616 0.38455 0.89464 0.0
H641 H 0.03171 0.38752 0.88654 0.0
H642 H 0.04193 0.39794 0.7998 0.0
H643 H 0.07665 0.39506 0.80774 0.0
H644 H 0.0129 0.42244 0.8582 0.0
H645 H 0.00122 0.35142 0.80746 0.0
H646 H 0.02118 0.35536 0.83071 0.0
H647 H 0.02113 0.36625 0.79713 0.0
C648 C 0.06112 0.38744 0.87381 0.0
C649 C 0.07408 0.38956 0.8518 0.0
C650 C 0.04145 0.38915 0.86925 0.0
C651 C 0.03438 0.39286 0.84259 0.0
C652 C 0.0472 0.39496 0.82048 0.0
H653 H 0.90949 0.39143 0.81198 0.0
H654 H 0.94397 0.3941 0.80219 0.0
C655 C 0.06697 0.39335 0.82506 0.0
C656 C 0.0135 0.39474 0.83849 0.0
H657 H 0.97383 0.36911 0.81983 0.0
C658 C 0.00434 0.41096 0.84937 0.0
C659 C 0.00248 0.3798 0.82671 0.0
C660 C 0.01187 0.36214 0.81481 0.0
C661 C 0.9843 0.41223 0.84997 0.0
C662 C 0.97322 0.39667 0.84 0.0
C663 C 0.98239 0.38097 0.82755 0.0
C664 C 0.95239 0.3955 0.84533 0.0
C665 C 0.97516 0.42999 0.86197 0.0
C666 C 0.94584 0.39508 0.87276 0.0
C667 C 0.92633 0.39352 0.87837 0.0
C668 C 0.91294 0.39223 0.85664 0.0
C669 C 0.9195 0.39248 0.82911 0.0
C670 C 0.93913 0.394 0.82349 0.0
H671 H 0.98478 0.44262 0.86013 0.0
H672 H 0.96135 0.43327 0.85152 0.0
H673 H 0.97231 0.42766 0.88433 0.0
H674 H 0.95587 0.39577 0.8899 0.0
H675 H 0.92175 0.39326 0.89979 0.0
H676 H 0.57235 0.6305 0.38158 0.0
H677 H 0.53787 0.62813 0.37323 0.0
H678 H 0.54737 0.582 0.31526 0.0
H679 H 0.58206 0.58428 0.32347 0.0
H680 H 0.5162 0.62969 0.3201 0.0
H681 H 0.51052 0.56062 0.37748 0.0
H682 H 0.53087 0.57639 0.38149 0.0
H683 H 0.5282 0.56243 0.35049 0.0
C684 C 0.56714 0.61994 0.36689 0.0
C685 C 0.57986 0.60748 0.35331 0.0
C686 C 0.54746 0.61866 0.36208 0.0
C687 C 0.54015 0.60482 0.3438 0.0
C688 C 0.5528 0.59269 0.32958 0.0
H689 H 0.41555 0.59978 0.31131 0.0
H690 H 0.45027 0.59834 0.30313 0.0
C691 C 0.57256 0.59404 0.33425 0.0
C692 C 0.51918 0.60263 0.34098 0.0
H693 H 0.48183 0.57493 0.36272 0.0
C694 C 0.50864 0.61758 0.32894 0.0
C695 C 0.50948 0.58685 0.35279 0.0
C696 C 0.52024 0.57064 0.36646 0.0
C697 C 0.48852 0.61746 0.3292 0.0
C698 C 0.47884 0.60197 0.34178 0.0
C699 C 0.48938 0.58671 0.35298 0.0
C700 C 0.45791 0.60234 0.34623 0.0
C701 C 0.47773 0.6343 0.31731 0.0
C702 C 0.45085 0.60482 0.37316 0.0
C703 C 0.43117 0.60569 0.37786 0.0
C704 C 0.41817 0.60395 0.35571 0.0
C705 C 0.42526 0.60119 0.32874 0.0
C706 C 0.44503 0.60042 0.32403 0.0
H707 H 0.48746 0.64611 0.31098 0.0
H708 H 0.46946 0.62955 0.29886 0.0
H709 H 0.46736 0.63994 0.33273 0.0
H710 H 0.46062 0.60632 0.39053 0.0
H711 H 0.42614 0.60778 0.39887 0.0
H712 H 0.57757 0.39387 0.68622 0.0
H713 H 0.54275 0.39267 0.69386 0.0
H714 H 0.53397 0.37961 0.60738 0.0
H715 H 0.56848 0.3808 0.59957 0.0
H716 H 0.51323 0.41526 0.6643 0.0
H717 H 0.50484 0.33675 0.65069 0.0
H718 H 0.52756 0.34784 0.65902 0.0
H719 H 0.51872 0.34802 0.62399 0.0
C720 C 0.56818 0.3907 0.6689 0.0
C721 C 0.57572 0.38736 0.64232 0.0
C722 C 0.54835 0.39003 0.6733 0.0
C723 C 0.5359 0.38579 0.65125 0.0
C724 C 0.54341 0.3826 0.62473 0.0
H725 H 0.42214 0.37798 0.59676 0.0
H726 H 0.45651 0.37813 0.60613 0.0
C727 C 0.56312 0.38338 0.62029 0.0
C728 C 0.51494 0.38508 0.65533 0.0
H729 H 0.4764 0.35569 0.64582 0.0
C730 C 0.50511 0.4022 0.66086 0.0
C731 C 0.50451 0.36798 0.65089 0.0
C732 C 0.51443 0.34905 0.64607 0.0
C733 C 0.48499 0.40291 0.66019 0.0
C734 C 0.47458 0.38598 0.65424 0.0
C735 C 0.48444 0.36866 0.65024 0.0
C736 C 0.45366 0.38619 0.64924 0.0
C737 C 0.47505 0.42192 0.66421 0.0
C738 C 0.44067 0.39063 0.67046 0.0
C739 C 0.42093 0.39061 0.66513 0.0
C740 C 0.41396 0.38606 0.63854 0.0
C741 C 0.42705 0.38156 0.61745 0.0
C742 C 0.44669 0.3816 0.62277 0.0
H743 H 0.4853 0.43411 0.66431 0.0
H744 H 0.46429 0.4243 0.64757 0.0
H745 H 0.46737 0.42186 0.68431 0.0
H746 H 0.44578 0.39394 0.69114 0.0
H747 H 0.41114 0.39406 0.6818 0.0
H748 H 0.08199 0.59632 0.18451 0.0
H749 H 0.04765 0.59219 0.19404 0.0
H750 H 0.03587 0.59206 0.10626 0.0
H751 H 0.06992 0.59613 0.09661 0.0
H752 H 0.01779 0.6175 0.17669 0.0
H753 H 0.0072 0.54435 0.13474 0.0
H754 H 0.03055 0.55365 0.144 0.0
H755 H 0.01981 0.55972 0.11122 0.0
C756 C 0.07206 0.59523 0.16729 0.0
C757 C 0.0786 0.59651 0.13981 0.0
C758 C 0.0525 0.59287 0.17276 0.0
C759 C 0.03932 0.5915 0.15083 0.0
C760 C 0.04588 0.59268 0.12345 0.0
H761 H 0.92544 0.59917 0.10071 0.0
H762 H 0.95972 0.59497 0.10882 0.0
C763 C 0.06532 0.59514 0.11798 0.0
C764 C 0.01851 0.5901 0.15611 0.0
H765 H 0.97899 0.56424 0.13758 0.0
C766 C 0.00927 0.60567 0.16878 0.0
C767 C 0.00753 0.57459 0.14586 0.0
C768 C 0.0168 0.55703 0.13344 0.0
C769 C 0.98918 0.6068 0.16954 0.0
C770 C 0.97821 0.59185 0.15763 0.0
C771 C 0.98748 0.57573 0.14655 0.0
C772 C 0.95729 0.59367 0.15346 0.0
C773 C 0.97985 0.62451 0.18141 0.0
C774 C 0.94458 0.59412 0.17593 0.0
C775 C 0.92491 0.59655 0.17135 0.0
C776 C 0.91775 0.59853 0.14424 0.0
C777 C 0.93053 0.59775 0.12184 0.0
C778 C 0.9501 0.5953 0.12642 0.0
H779 H 0.99047 0.63587 0.18651 0.0
H780 H 0.96922 0.63043 0.16654 0.0
H781 H 0.9721 0.62069 0.20066 0.0
H782 H 0.94987 0.59266 0.19694 0.0
H783 H 0.91535 0.59702 0.18899 0.0
H784 H 0.14565 0.53829 0.10198 0.0
H785 H 0.14757 0.51044 0.07124 0.0
H786 H 0.14425 0.54765 0.0001 0.0
H787 H 0.14265 0.57562 0.03073 0.0
H788 H 0.12021 0.4992 0.03342 0.0
H789 H 0.18941 0.51309 0.98077 0.0
H790 H 0.18242 0.52538 0.01213 0.0
H791 H 0.17298 0.53287 0.97917 0.0
C792 C 0.14555 0.54056 0.07978 0.0
C793 C 0.14404 0.55912 0.06872 0.0
C794 C 0.14664 0.52464 0.06227 0.0
C795 C 0.14631 0.52701 0.03342 0.0
C796 C 0.14496 0.54554 0.02231 0.0
H797 H 0.13556 0.4526 0.89163 0.0
H798 H 0.13836 0.47946 0.92409 0.0
C799 C 0.14393 0.56149 0.03982 0.0
C800 C 0.14614 0.51001 0.01503 0.0
H801 H 0.1696 0.48867 0.96118 0.0
C802 C 0.1311 0.49679 0.01779 0.0
C803 C 0.16036 0.50696 0.99466 0.0
C804 C 0.17731 0.52022 0.99161 0.0
C805 C 0.12962 0.48081 0.00023 0.0
C806 C 0.14369 0.4779 0.97964 0.0
C807 C 0.15884 0.49101 0.97702 0.0
C808 C 0.14263 0.46158 0.96014 0.0
C809 C 0.11272 0.46747 0.00331 0.0
C810 C 0.14438 0.44268 0.96971 0.0
C811 C 0.14279 0.4273 0.95123 0.0
C812 C 0.13947 0.43063 0.92291 0.0
C813 C 0.13805 0.4496 0.91336 0.0
C814 C 0.13968 0.46495 0.93183 0.0
H815 H 0.10117 0.47389 0.01613 0.0
H816 H 0.10669 0.46361 0.98272 0.0
H817 H 0.11753 0.45406 0.01352 0.0
H818 H 0.14693 0.43984 0.99147 0.0
H819 H 0.14404 0.41283 0.95914 0.0
H820 H 0.70405 0.90037 0.35667 0.0
H821 H 0.73215 0.90382 0.32692 0.0
H822 H 0.6961 0.89859 0.25451 0.0
H823 H 0.66787 0.89561 0.28415 0.0
H824 H 0.74544 0.87737 0.29089 0.0
H825 H 0.72871 0.94445 0.23454 0.0
H826 H 0.71598 0.93727 0.26534 0.0
H827 H 0.70982 0.92705 0.23221 0.0
C828 C 0.70209 0.9002 0.3344 0.0
C829 C 0.6838 0.89773 0.32268 0.0
C830 C 0.71815 0.90219 0.31745 0.0
C831 C 0.71618 0.90174 0.28852 0.0
C832 C 0.69789 0.89947 0.27677 0.0
H833 H 0.79056 0.88845 0.14875 0.0
H834 H 0.76389 0.89176 0.18123 0.0
C835 C 0.68179 0.89762 0.29372 0.0
C836 C 0.73342 0.90214 0.27072 0.0
H837 H 0.75377 0.92497 0.21564 0.0
C838 C 0.74738 0.88792 0.27466 0.0
C839 C 0.73589 0.91593 0.24957 0.0
C840 C 0.72189 0.93215 0.24531 0.0
C841 C 0.76347 0.88672 0.25743 0.0
C842 C 0.76569 0.90021 0.23589 0.0
C843 C 0.75193 0.91463 0.23219 0.0
C844 C 0.78186 0.89905 0.2163 0.0
C845 C 0.77767 0.87067 0.26179 0.0
C846 C 0.80071 0.90232 0.2253 0.0
C847 C 0.81598 0.90044 0.20681 0.0
C848 C 0.81256 0.89528 0.17907 0.0
C849 C 0.79362 0.89235 0.17004 0.0
C850 C 0.77838 0.89429 0.18851 0.0
H851 H 0.77207 0.85948 0.27598 0.0
H852 H 0.78143 0.86384 0.24172 0.0
H853 H 0.79102 0.8766 0.27096 0.0
H854 H 0.8036 0.90622 0.24665 0.0
H855 H 0.83043 0.90286 0.21429 0.0
H856 H 0.34968 0.41505 0.52972 0.0
H857 H 0.349 0.44304 0.49908 0.0
H858 H 0.35181 0.4805 0.57022 0.0
H859 H 0.35292 0.45268 0.60086 0.0
H860 H 0.32338 0.47337 0.49619 0.0
H861 H 0.39632 0.49923 0.52327 0.0
H862 H 0.38787 0.47564 0.53251 0.0
H863 H 0.38097 0.4962 0.55272 0.0
C864 C 0.35017 0.42926 0.53879 0.0
C865 C 0.35153 0.43171 0.56763 0.0
C866 C 0.34976 0.44521 0.5213 0.0
C867 C 0.35072 0.46381 0.53239 0.0
C868 C 0.35153 0.46626 0.56122 0.0
H869 H 0.35104 0.57817 0.46187 0.0
H870 H 0.34883 0.55041 0.49276 0.0
C871 C 0.35206 0.45036 0.57869 0.0
C872 C 0.35082 0.48067 0.51385 0.0
H873 H 0.37708 0.52005 0.49605 0.0
C874 C 0.33514 0.48354 0.49604 0.0
C875 C 0.36622 0.49388 0.51373 0.0
C876 C 0.38388 0.49103 0.53138 0.0
C877 C 0.33432 0.49949 0.4784 0.0
C878 C 0.34965 0.51273 0.47847 0.0
C879 C 0.3653 0.50988 0.49625 0.0
C880 C 0.35 0.52943 0.45972 0.0
C881 C 0.31696 0.50222 0.46012 0.0
C882 C 0.35148 0.52674 0.43101 0.0
C883 C 0.35283 0.54251 0.41338 0.0
C884 C 0.35275 0.56124 0.4242 0.0
C885 C 0.3511 0.5639 0.45297 0.0
C886 C 0.34984 0.54809 0.47061 0.0
H887 H 0.30467 0.4933 0.46699 0.0
H888 H 0.31248 0.5175 0.45988 0.0
H889 H 0.3206 0.49801 0.43858 0.0
H890 H 0.35194 0.51242 0.4223 0.0
H891 H 0.35414 0.54003 0.3913 0.0
H892 H 0.70593 0.11051 0.6365 0.0
H893 H 0.7349 0.10871 0.66507 0.0
H894 H 0.70009 0.10214 0.73819 0.0
H895 H 0.67108 0.10351 0.70969 0.0
H896 H 0.74619 0.1324 0.707 0.0
H897 H 0.73779 0.05831 0.74627 0.0
H898 H 0.7239 0.06745 0.71759 0.0
H899 H 0.71711 0.07293 0.75268 0.0
C900 C 0.70447 0.10854 0.65865 0.0
C901 C 0.68627 0.10705 0.67089 0.0
C902 C 0.72102 0.10752 0.67492 0.0
C903 C 0.71965 0.10496 0.70367 0.0
C904 C 0.70148 0.10363 0.71595 0.0
H905 H 0.79265 0.11151 0.84535 0.0
H906 H 0.7667 0.11031 0.81128 0.0
C907 C 0.68492 0.10454 0.69968 0.0
C908 C 0.73719 0.10451 0.72098 0.0
H909 H 0.76071 0.07808 0.76985 0.0
C910 C 0.74951 0.12043 0.72048 0.0
C911 C 0.74152 0.08881 0.73842 0.0
C912 C 0.72949 0.07082 0.73861 0.0
C913 C 0.76567 0.12138 0.7378 0.0
C914 C 0.76957 0.10599 0.7559 0.0
C915 C 0.75755 0.08988 0.75595 0.0
C916 C 0.78547 0.10679 0.77606 0.0
C917 C 0.77812 0.13906 0.7374 0.0
C918 C 0.80458 0.10512 0.76739 0.0
C919 C 0.81947 0.10572 0.78684 0.0
C920 C 0.81541 0.10805 0.81516 0.0
C921 C 0.79623 0.10975 0.82367 0.0
C922 C 0.78139 0.10903 0.80428 0.0
H923 H 0.77188 0.15066 0.72446 0.0
H924 H 0.78026 0.14458 0.7588 0.0
H925 H 0.79243 0.13532 0.72898 0.0
H926 H 0.80792 0.10324 0.74565 0.0
H927 H 0.83412 0.10434 0.77974 0.0
H928 H 0.8521 0.4547 0.90221 0.0
H929 H 0.84924 0.48127 0.93501 0.0
H930 H 0.8362 0.44138 0.00047 0.0
H931 H 0.83916 0.41458 0.96772 0.0
H932 H 0.81744 0.49192 0.97045 0.0
H933 H 0.88366 0.47222 0.02844 0.0
H934 H 0.87831 0.46276 0.99444 0.0
H935 H 0.866 0.45365 0.02425 0.0
C936 C 0.84855 0.45156 0.92357 0.0
C937 C 0.846 0.43257 0.9325 0.0
C938 C 0.84686 0.46676 0.94222 0.0
C939 C 0.84271 0.46322 0.97013 0.0
C940 C 0.83965 0.44433 0.97903 0.0
H941 H 0.84535 0.54132 0.11054 0.0
H942 H 0.84082 0.51333 0.08071 0.0
C943 C 0.84129 0.42908 0.96032 0.0
C944 C 0.84223 0.47937 0.98993 0.0
H945 H 0.86676 0.49933 0.04396 0.0
C946 C 0.82814 0.49354 0.98665 0.0
C947 C 0.85624 0.48136 0.01094 0.0
C948 C 0.87203 0.4668 0.01475 0.0
C949 C 0.82768 0.50974 0.00393 0.0
C950 C 0.84195 0.51194 0.02457 0.0
C951 C 0.85584 0.49759 0.02811 0.0
C952 C 0.84313 0.52919 0.04238 0.0
C953 C 0.81185 0.52423 0.0001 0.0
C954 C 0.84589 0.5474 0.03068 0.0
C955 C 0.8484 0.56346 0.04769 0.0
C956 C 0.84841 0.56148 0.07664 0.0
C957 C 0.84544 0.54327 0.08828 0.0
C958 C 0.84284 0.52727 0.07129 0.0
H959 H 0.79923 0.51783 0.98945 0.0
H960 H 0.80716 0.53024 0.0203 0.0
H961 H 0.81718 0.53619 0.98709 0.0
H962 H 0.84662 0.54912 0.00841 0.0
H963 H 0.85076 0.57731 0.03819 0.0
H964 H 0.16496 0.09475 0.78012 0.0
H965 H 0.19253 0.09193 0.749 0.0
H966 H 0.23088 0.09584 0.81904 0.0
H967 H 0.20348 0.09849 0.85024 0.0
H968 H 0.22174 0.11942 0.7434 0.0
H969 H 0.2513 0.04919 0.77627 0.0
H970 H 0.2272 0.0567 0.78448 0.0
H971 H 0.24716 0.06565 0.80428 0.0
C972 C 0.17927 0.09479 0.78889 0.0
C973 C 0.18209 0.09682 0.81758 0.0
C974 C 0.19497 0.09318 0.77112 0.0
C975 C 0.2137 0.09341 0.7818 0.0
C976 C 0.21653 0.09523 0.81046 0.0
H977 H 0.32846 0.10006 0.71631 0.0
H978 H 0.29977 0.09749 0.74527 0.0
C979 C 0.20086 0.09687 0.82822 0.0
C980 C 0.23034 0.09305 0.7629 0.0
H981 H 0.27133 0.06852 0.74772 0.0
C982 C 0.23249 0.1082 0.7441 0.0
C983 C 0.24435 0.07844 0.76407 0.0
C984 C 0.24236 0.06147 0.78318 0.0
C985 C 0.24861 0.10943 0.72691 0.0
C986 C 0.26272 0.0949 0.72823 0.0
C987 C 0.26047 0.07963 0.74682 0.0
C988 C 0.28005 0.09549 0.71069 0.0
C989 C 0.25068 0.12657 0.7081 0.0
C990 C 0.27844 0.09481 0.68174 0.0
C991 C 0.29474 0.09634 0.6652 0.0
C992 C 0.31295 0.09843 0.67736 0.0
C993 C 0.3146 0.09853 0.70639 0.0
C994 C 0.29826 0.09704 0.72293 0.0
H995 H 0.24116 0.13856 0.71445 0.0
H996 H 0.26571 0.13181 0.70792 0.0
H997 H 0.24673 0.12236 0.68664 0.0
H998 H 0.26454 0.09324 0.67194 0.0
H999 H 0.29305 0.09607 0.64288 0.0
H1000 H 0.66979 0.57393 0.44894 0.0
H1001 H 0.67406 0.54599 0.47911 0.0
H1002 H 0.61881 0.52441 0.45338 0.0
H1003 H 0.61486 0.55178 0.42246 0.0
H1004 H 0.65496 0.53294 0.52212 0.0
H1005 H 0.65146 0.47839 0.43921 0.0
H1006 H 0.65352 0.50365 0.43189 0.0
H1007 H 0.63042 0.49311 0.43883 0.0
C1008 C 0.65858 0.5632 0.4498 0.0
C1009 C 0.64208 0.56487 0.43323 0.0
C1010 C 0.66104 0.54725 0.46695 0.0
C1011 C 0.64699 0.53284 0.4679 0.0
C1012 C 0.63015 0.53497 0.45222 0.0
H1013 H 0.62179 0.45279 0.5955 0.0
H1014 H 0.62614 0.48048 0.56544 0.0
C1015 C 0.62782 0.55071 0.43478 0.0
C1016 C 0.64961 0.51577 0.48573 0.0
H1017 H 0.64581 0.46701 0.48561 0.0
C1018 C 0.65323 0.51851 0.51408 0.0
C1019 C 0.6479 0.4969 0.47514 0.0
C1020 C 0.64584 0.49283 0.44454 0.0
C1021 C 0.65413 0.50293 0.53237 0.0
C1022 C 0.65067 0.48421 0.52213 0.0
C1023 C 0.64812 0.4814 0.49356 0.0
C1024 C 0.64857 0.46749 0.54077 0.0
C1025 C 0.65876 0.50675 0.56244 0.0
C1026 C 0.6592 0.45067 0.53625 0.0
C1027 C 0.6564 0.43461 0.55307 0.0
C1028 C 0.64299 0.43519 0.57471 0.0
C1029 C 0.63236 0.45201 0.57913 0.0
C1030 C 0.63498 0.46792 0.56214 0.0
H1031 H 0.66766 0.51988 0.56481 0.0
H1032 H 0.64524 0.50912 0.574 0.0
H1033 H 0.66652 0.49452 0.57198 0.0
H1034 H 0.66963 0.44996 0.51969 0.0
H1035 H 0.66479 0.42181 0.54923 0.0
H1036 H 0.32769 0.89239 0.28162 0.0
H1037 H 0.29949 0.89341 0.25138 0.0
H1038 H 0.2627 0.89517 0.32306 0.0
H1039 H 0.29079 0.89375 0.3534 0.0
H1040 H 0.2516 0.86812 0.28524 0.0
H1041 H 0.26399 0.93777 0.23298 0.0
H1042 H 0.28398 0.92167 0.23064 0.0
H1043 H 0.27677 0.93077 0.26392 0.0
C1044 C 0.3136 0.8932 0.29091 0.0
C1045 C 0.31142 0.89301 0.31984 0.0
C1046 C 0.29751 0.8939 0.27363 0.0
C1047 C 0.27903 0.89465 0.285 0.0
C1048 C 0.27685 0.89469 0.31389 0.0
H1049 H 0.16434 0.89276 0.21273 0.0
H1050 H 0.19167 0.89501 0.2446 0.0
C1051 C 0.29291 0.89389 0.33117 0.0
C1052 C 0.26191 0.89427 0.26683 0.0
H1053 H 0.2398 0.91761 0.2135 0.0
C1054 C 0.24892 0.87903 0.26971 0.0
C1055 C 0.25849 0.90852 0.24661 0.0
C1056 C 0.27144 0.92571 0.24348 0.0
C1057 C 0.23281 0.87741 0.25244 0.0
C1058 C 0.22955 0.8915 0.23199 0.0
C1059 C 0.24243 0.90682 0.22922 0.0
C1060 C 0.21303 0.89036 0.21287 0.0
C1061 C 0.21964 0.86039 0.25569 0.0
C1062 C 0.2161 0.88729 0.18452 0.0
C1063 C 0.20057 0.88599 0.16632 0.0
C1064 C 0.18173 0.88789 0.17619 0.0
C1065 C 0.17871 0.89117 0.20458 0.0
C1066 C 0.19427 0.8924 0.2228 0.0
H1067 H 0.22618 0.84895 0.26862 0.0
H1068 H 0.20618 0.8651 0.26583 0.0
H1069 H 0.21585 0.85425 0.23515 0.0
H1070 H 0.23052 0.88574 0.17652 0.0
H1071 H 0.20333 0.88352 0.14452 0.0
H1072 H 0.64729 0.04352 0.60496 0.0
H1073 H 0.64961 0.01512 0.57534 0.0
H1074 H 0.64297 0.05063 0.50286 0.0
H1075 H 0.64106 0.07916 0.53234 0.0
H1076 H 0.62246 0.00146 0.53977 0.0
H1077 H 0.68908 0.01823 0.48236 0.0
H1078 H 0.68215 0.03097 0.51336 0.0
H1079 H 0.67153 0.03699 0.48049 0.0
C1080 C 0.64652 0.04529 0.58269 0.0
C1081 C 0.64405 0.06354 0.57092 0.0
C1082 C 0.64784 0.02907 0.56582 0.0
C1083 C 0.64675 0.03081 0.53691 0.0
C1084 C 0.64431 0.04903 0.5251 0.0
H1085 H 0.63532 0.95465 0.39796 0.0
H1086 H 0.63755 0.98171 0.43011 0.0
C1087 C 0.6431 0.06529 0.54196 0.0
C1088 C 0.64705 0.01346 0.51923 0.0
H1089 H 0.66991 0.99265 0.46443 0.0
C1090 C 0.63295 -0.00058 0.52348 0.0
C1091 C 0.66078 0.01087 0.49804 0.0
C1092 C 0.67686 0.02497 0.49342 0.0
C1093 C 0.63184 0.9831 0.50653 0.0
C1094 C 0.64532 0.98073 0.48501 0.0
C1095 C 0.65959 0.9946 0.48097 0.0
C1096 C 0.64439 0.96426 0.46578 0.0
C1097 C 0.61592 0.96882 0.51121 0.0
C1098 C 0.64772 0.94554 0.47524 0.0
C1099 C 0.64646 0.93004 0.45693 0.0
C1100 C 0.64189 0.93307 0.4289 0.0
C1101 C 0.63881 0.95187 0.41947 0.0
C1102 C 0.64011 0.96733 0.43775 0.0
H1103 H 0.60461 0.9746 0.52507 0.0
H1104 H 0.60923 0.96457 0.49122 0.0
H1105 H 0.62194 0.95573 0.52095 0.0
H1106 H 0.65129 0.94295 0.49677 0.0
H1107 H 0.64899 0.91571 0.46472 0.0
H1108 H 0.32437 0.39472 0.70982 0.0
H1109 H 0.29605 0.39693 0.73959 0.0
H1110 H 0.25949 0.39587 0.66737 0.0
H1111 H 0.28765 0.3933 0.63756 0.0
H1112 H 0.26621 0.42388 0.74139 0.0
H1113 H 0.2393 0.35132 0.71382 0.0
H1114 H 0.26325 0.35921 0.70561 0.0
H1115 H 0.24329 0.36669 0.68462 0.0
C1116 C 0.31029 0.39502 0.70031 0.0
C1117 C 0.30818 0.39366 0.67142 0.0
C1118 C 0.29415 0.3963 0.71731 0.0
C1119 C 0.2757 0.39621 0.70566 0.0
C1120 C 0.2736 0.39553 0.67677 0.0
H1121 H 0.16134 0.39556 0.77685 0.0
H1122 H 0.18875 0.39845 0.74546 0.0
C1123 C 0.2897 0.39416 0.65978 0.0
C1124 C 0.25863 0.39651 0.72375 0.0
H1125 H 0.219 0.37064 0.74147 0.0
C1126 C 0.25588 0.41225 0.74147 0.0
C1127 C 0.24524 0.38127 0.72377 0.0
C1128 C 0.24795 0.36358 0.70614 0.0
C1129 C 0.23993 0.41324 0.75906 0.0
C1130 C 0.22657 0.398 0.75905 0.0
C1131 C 0.22925 0.38234 0.74123 0.0
C1132 C 0.21005 0.39762 0.77811 0.0
C1133 C 0.23735 0.43063 0.77731 0.0
C1134 C 0.21304 0.39615 0.80676 0.0
C1135 C 0.19746 0.39441 0.82468 0.0
C1136 C 0.17865 0.39408 0.81419 0.0
C1137 C 0.17568 0.39582 0.7855 0.0
C1138 C 0.19129 0.39747 0.76757 0.0
H1139 H 0.24614 0.44293 0.77011 0.0
H1140 H 0.22208 0.43507 0.77793 0.0
H1141 H 0.24188 0.42707 0.79875 0.0
H1142 H 0.22744 0.3959 0.81521 0.0
H1143 H 0.20018 0.39306 0.8467 0.0
H1144 H 0.84214 0.04214 0.89138 0.0
H1145 H 0.83788 0.01387 0.92063 0.0
H1146 H 0.84696 0.04859 0.99357 0.0
H1147 H 0.85101 0.07699 0.96447 0.0
H1148 H 0.86534 -0.00071 0.9564 0.0
H1149 H 0.79896 0.01781 0.01344 0.0
H1150 H 0.80614 0.03001 0.98216 0.0
H1151 H 0.81699 0.03617 0.01483 0.0
C1152 C 0.843 0.04379 0.91367 0.0
C1153 C 0.84691 0.06176 0.92568 0.0
C1154 C 0.84055 0.02764 0.93032 0.0
C1155 C 0.84185 0.0292 0.95924 0.0
C1156 C 0.84549 0.04717 0.97131 0.0
H1157 H 0.852 0.95498 0.09909 0.0
H1158 H 0.84843 0.98143 0.06637 0.0
C1159 C 0.84793 0.06335 0.95467 0.0
C1160 C 0.84088 0.01181 0.97666 0.0
H1161 H 0.81744 0.99177 0.03139 0.0
C1162 C 0.85473 -0.0025 0.97258 0.0
C1163 C 0.82702 0.00959 0.99772 0.0
C1164 C 0.81131 0.02412 0.00219 0.0
C1165 C 0.85555 0.98132 0.98972 0.0
C1166 C 0.84194 0.97929 0.01118 0.0
C1167 C 0.82784 0.9934 0.01489 0.0
C1168 C 0.84284 0.96317 0.03096 0.0
C1169 C 0.87144 0.96693 0.98544 0.0
C1170 C 0.8405 0.94417 0.02193 0.0
C1171 C 0.84261 0.929 0.04057 0.0
C1172 C 0.84698 0.93265 0.06853 0.0
C1173 C 0.84871 0.95172 0.07764 0.0
C1174 C 0.84663 0.96685 0.05901 0.0
H1175 H 0.883 0.97265 0.97199 0.0
H1176 H 0.87782 0.96261 0.00558 0.0
H1177 H 0.86548 0.95391 0.97534 0.0
H1178 H 0.83725 0.94108 0.00041 0.0
H1179 H 0.84107 0.91444 0.03303 0.0
H1180 H 0.20443 0.60444 0.14031 0.0
H1181 H 0.23251 0.60221 0.17057 0.0
H1182 H 0.19556 0.59668 0.24166 0.0
H1183 H 0.16739 0.59847 0.21142 0.0
H1184 H 0.24273 0.62615 0.21279 0.0
H1185 H 0.23241 0.55232 0.25256 0.0
H1186 H 0.2194 0.56145 0.22303 0.0
H1187 H 0.21197 0.56753 0.25762 0.0
C1188 C 0.20229 0.60262 0.16237 0.0
C1189 C 0.18374 0.60156 0.17353 0.0
C1190 C 0.21834 0.60134 0.17961 0.0
C1191 C 0.21611 0.59897 0.20828 0.0
C1192 C 0.19759 0.59804 0.21951 0.0
H1193 H 0.29192 0.60241 0.34944 0.0
H1194 H 0.26467 0.6008 0.31748 0.0
C1195 C 0.18153 0.5992 0.20225 0.0
C1196 C 0.23319 0.59838 0.22652 0.0
H1197 H 0.25611 0.57136 0.27533 0.0
C1198 C 0.24575 0.61411 0.2263 0.0
C1199 C 0.23706 0.58263 0.24409 0.0
C1200 C 0.22461 0.56494 0.24421 0.0
C1201 C 0.26188 0.6147 0.24366 0.0
C1202 C 0.26559 0.59908 0.26146 0.0
C1203 C 0.25314 0.5833 0.26161 0.0
C1204 C 0.28213 0.59913 0.28059 0.0
C1205 C 0.27459 0.63221 0.24335 0.0
C1206 C 0.30091 0.59838 0.27033 0.0
C1207 C 0.3165 0.59924 0.28852 0.0
C1208 C 0.31351 0.60089 0.31721 0.0
C1209 C 0.29466 0.60122 0.32742 0.0
C1210 C 0.27909 0.60027 0.30924 0.0
H1211 H 0.26777 0.64443 0.23236 0.0
H1212 H 0.27818 0.63678 0.2648 0.0
H1213 H 0.28819 0.6287 0.23261 0.0
H1214 H 0.30347 0.59728 0.24826 0.0
H1215 H 0.33087 0.5989 0.28009 0.0
H1216 H 0.35518 0.0783 0.53532 0.0
H1217 H 0.35348 0.05084 0.50359 0.0
H1218 H 0.35875 0.01216 0.57277 0.0
H1219 H 0.36042 0.03946 0.60461 0.0
H1220 H 0.38193 0.02072 0.49806 0.0
H1221 H 0.31046 0.99326 0.5297 0.0
H1222 H 0.31834 0.0174 0.53719 0.0
H1223 H 0.3271 -0.0023 0.55749 0.0
C1224 C 0.35591 0.06394 0.54376 0.0
C1225 C 0.35789 0.06099 0.57242 0.0
C1226 C 0.35494 0.04831 0.52564 0.0
C1227 C 0.35574 0.02954 0.53594 0.0
C1228 C 0.35779 0.02656 0.56452 0.0
H1229 H 0.35421 0.91594 0.46307 0.0
H1230 H 0.35427 0.94368 0.49431 0.0
C1231 C 0.35884 0.04216 0.58262 0.0
C1232 C 0.35504 0.01303 0.51675 0.0
H1233 H 0.32848 0.97376 0.49908 0.0
C1234 C 0.37022 0.01049 0.49812 0.0
C1235 C 0.33977 -0.00028 0.51712 0.0
C1236 C 0.32289 0.00215 0.53627 0.0
C1237 C 0.37072 0.9947 0.48009 0.0
C1238 C 0.35539 0.98141 0.48033 0.0
C1239 C 0.34019 0.98399 0.49896 0.0
C1240 C 0.35488 0.9647 0.4614 0.0
C1241 C 0.38789 0.99215 0.46148 0.0
C1242 C 0.35481 0.96738 0.4326 0.0
C1243 C 0.35488 0.9516 0.41476 0.0
C1244 C 0.35479 0.93287 0.42544 0.0
C1245 C 0.35432 0.93021 0.45428 0.0
C1246 C 0.35435 0.94602 0.47212 0.0
H1247 H 0.40048 0.00039 0.46911 0.0
H1248 H 0.39197 0.9768 0.4598 0.0
H1249 H 0.38431 -0.00257 0.44042 0.0
H1250 H 0.35475 0.98169 0.42391 0.0
H1251 H 0.35508 0.95408 0.39262 0.0
H1252 H 0.7924 0.61319 0.15122 0.0
H1253 H 0.76457 0.6092 0.18138 0.0
H1254 H 0.80113 0.58668 0.24576 0.0
H1255 H 0.82912 0.59087 0.21583 0.0
H1256 H 0.75055 0.57533 0.2068 0.0
H1257 H 0.77205 0.63071 0.28393 0.0
H1258 H 0.78295 0.62894 0.25014 0.0
H1259 H 0.78974 0.61259 0.27715 0.0
C1260 C 0.79453 0.60746 0.17184 0.0
C1261 C 0.81293 0.60247 0.18129 0.0
C1262 C 0.77862 0.60512 0.18897 0.0
C1263 C 0.78087 0.59784 0.21583 0.0
C1264 C 0.79918 0.59262 0.22522 0.0
H1265 H 0.70096 0.58448 0.35149 0.0
H1266 H 0.72867 0.58174 0.32086 0.0
C1267 C 0.81512 0.59497 0.20811 0.0
C1268 C 0.764 0.59586 0.23402 0.0
H1269 H 0.74437 0.61261 0.29397 0.0
C1270 C 0.74916 0.58345 0.22589 0.0
C1271 C 0.76231 0.60649 0.25885 0.0
C1272 C 0.77751 0.62057 0.26801 0.0
C1273 C 0.73265 0.58127 0.24213 0.0
C1274 C 0.7309 0.59204 0.26684 0.0
C1275 C 0.74582 0.60432 0.27505 0.0
C1276 C 0.71352 0.59135 0.28426 0.0
C1277 C 0.71736 0.56734 0.2329 0.0
C1278 C 0.69576 0.59738 0.27368 0.0
C1279 C 0.67987 0.59888 0.29111 0.0
C1280 C 0.6816 0.59457 0.31943 0.0
C1281 C 0.69923 0.58795 0.32975 0.0
C1282 C 0.71506 0.58637 0.31231 0.0
H1283 H 0.72314 0.55648 0.21824 0.0
H1284 H 0.71096 0.5598 0.25089 0.0
H1285 H 0.70579 0.57531 0.22211 0.0
H1286 H 0.69438 0.60167 0.25221 0.0
H1287 H 0.66647 0.60412 0.28265 0.0
H1288 H 0.14409 0.91552 0.03131 0.0
H1289 H 0.14656 0.94385 0.00168 0.0
H1290 H 0.15082 0.97997 0.07413 0.0
H1291 H 0.14799 0.95177 0.10386 0.0
H1292 H 0.12384 0.99247 0.03728 0.0
H1293 H 0.19217 0.97766 0.98288 0.0
H1294 H 0.17528 0.9583 0.98057 0.0
H1295 H 0.18506 0.96495 0.01375 0.0
C1296 C 0.14579 0.92948 0.04089 0.0
C1297 C 0.14584 0.93146 0.06987 0.0
C1298 C 0.14732 0.94563 0.02396 0.0
C1299 C 0.14914 0.96397 0.03573 0.0
C1300 C 0.14952 0.96593 0.06465 0.0
H1301 H 0.14804 0.07868 0.9626 0.0
H1302 H 0.15117 0.05179 0.99496 0.0
C1303 C 0.14791 0.94981 0.08159 0.0
C1304 C 0.14928 0.98124 0.01796 0.0
H1305 H 0.17253 0.00251 0.964 0.0
C1306 C 0.13461 0.99478 0.02146 0.0
C1307 C 0.16335 0.98418 0.99735 0.0
C1308 C 0.17996 0.9706 0.99354 0.0
C1309 C 0.13326 0.01093 0.00431 0.0
C1310 C 0.14711 0.01367 0.98338 0.0
C1311 C 0.16195 0.0003 0.9801 0.0
C1312 C 0.14593 0.02995 0.96392 0.0
C1313 C 0.11671 0.02461 0.00813 0.0
C1314 C 0.14235 0.02648 0.93576 0.0
C1315 C 0.14057 0.04175 0.9173 0.0
C1316 C 0.14247 0.06075 0.92669 0.0
C1317 C 0.14641 0.06418 0.95484 0.0
C1318 C 0.14814 0.04887 0.97332 0.0
H1319 H 0.10531 0.01846 0.02146 0.0
H1320 H 0.12199 0.03797 0.01808 0.0
H1321 H 0.11033 0.0285 0.9878 0.0
H1322 H 0.14064 0.01195 0.92815 0.0
H1323 H 0.13761 0.03866 0.8957 0.0
H1324 H 0.66663 0.42245 0.70279 0.0
H1325 H 0.69428 0.42827 0.73325 0.0
H1326 H 0.72272 0.37883 0.69852 0.0
H1327 H 0.69571 0.37361 0.66728 0.0
H1328 H 0.70971 0.4085 0.77275 0.0
H1329 H 0.76464 0.41687 0.69194 0.0
H1330 H 0.73939 0.41639 0.68385 0.0
H1331 H 0.75271 0.39435 0.68739 0.0
C1332 C 0.67888 0.41294 0.70163 0.0
C1333 C 0.67918 0.39771 0.68256 0.0
C1334 C 0.69465 0.41628 0.71896 0.0
C1335 C 0.71083 0.40431 0.71762 0.0
C1336 C 0.71077 0.38872 0.69919 0.0
H1337 H 0.79072 0.37559 0.84389 0.0
H1338 H 0.76301 0.38085 0.81398 0.0
C1339 C 0.69524 0.38562 0.68154 0.0
C1340 C 0.72747 0.40742 0.73629 0.0
H1341 H 0.77635 0.40731 0.73724 0.0
C1342 C 0.72428 0.40858 0.76495 0.0
C1343 C 0.7465 0.40815 0.72618 0.0
C1344 C 0.75097 0.40911 0.69563 0.0
C1345 C 0.7396 0.40922 0.78381 0.0
C1346 C 0.75861 0.40784 0.77376 0.0
C1347 C 0.7618 0.40793 0.74505 0.0
C1348 C 0.77529 0.40517 0.7925 0.0
C1349 C 0.73517 0.41132 0.81425 0.0
C1350 C 0.79182 0.41652 0.78961 0.0
C1351 C 0.80795 0.4131 0.80614 0.0
C1352 C 0.80771 0.39843 0.82601 0.0
C1353 C 0.79119 0.38715 0.82894 0.0
C1354 C 0.77525 0.39029 0.81206 0.0
H1355 H 0.72168 0.4195 0.81741 0.0
H1356 H 0.73309 0.3969 0.82343 0.0
H1357 H 0.74692 0.41873 0.82556 0.0
H1358 H 0.79227 0.42796 0.7745 0.0
H1359 H 0.82053 0.42202 0.80353 0.0
loop_
_geom_bond_atom_site_label_1
_geom_bond_atom_site_label_2
_geom_bond_distance
_geom_bond_site_symmetry_2
_ccdc_geom_bond_type
In0 O1 2.294 . S
In0 O2 2.326 . S
In0 O6 2.266 . S
In0 O7 2.326 . S
In0 O8 2.266 . S
In0 O9 2.326 . S
In0 O11 2.294 . S
In0 O12 2.326 . S
O1 In0 2.294 . S
O1 C10 1.240 . S
O2 In0 2.326 . S
O2 C10 1.252 . S
C3 O6 1.252 . S
C3 O7 1.260 . S
C4 O11 1.240 . S
C4 O12 1.252 . S
C5 O8 1.252 . S
C5 O9 1.260 . S
O6 In0 2.266 . S
O6 C3 1.252 . S
O7 In0 2.326 . S
O7 C3 1.260 . S
O8 In0 2.266 . S
O8 C5 1.252 . S
O9 In0 2.326 . S
O9 C5 1.260 . S
C10 O1 1.240 . S
C10 O2 1.252 . S
O11 In0 2.294 . S
O11 C4 1.240 . S
O12 In0 2.326 . S
O12 C4 1.252 . S
In13 O14 2.294 . S
In13 O15 2.326 . S
In13 O19 2.266 . S
In13 O20 2.326 . S
In13 O21 2.266 . S
In13 O22 2.326 . S
In13 O24 2.294 . S
In13 O25 2.326 . S
O14 In13 2.294 . S
O14 C23 1.240 . S
O15 In13 2.326 . S
O15 C23 1.252 . S
C16 O19 1.252 . S
C16 O20 1.260 . S
C17 O24 1.240 . S
C17 O25 1.252 . S
C18 O21 1.252 . S
C18 O22 1.260 . S
O19 In13 2.266 . S
O19 C16 1.252 . S
O20 In13 2.326 . S
O20 C16 1.260 . S
O21 In13 2.266 . S
O21 C18 1.252 . S
O22 In13 2.326 . S
O22 C18 1.260 . S
C23 O14 1.240 . S
C23 O15 1.252 . S
O24 In13 2.294 . S
O24 C17 1.240 . S
O25 In13 2.326 . S
O25 C17 1.252 . S
In26 O27 2.294 . S
In26 O28 2.326 . S
In26 O32 2.266 . S
In26 O33 2.326 . S
In26 O34 2.266 . S
In26 O35 2.326 . S
In26 O37 2.294 . S
In26 O38 2.326 . S
O27 In26 2.294 . S
O27 C36 1.240 . S
O28 In26 2.326 . S
O28 C36 1.252 . S
C29 O32 1.252 . S
C29 O33 1.260 . S
C30 O37 1.240 . S
C30 O38 1.252 . S
C31 O34 1.252 . S
C31 O35 1.260 . S
O32 In26 2.266 . S
O32 C29 1.252 . S
O33 In26 2.326 . S
O33 C29 1.260 . S
O34 In26 2.266 . S
O34 C31 1.252 . S
O35 In26 2.326 . S
O35 C31 1.260 . S
C36 O27 1.240 . S
C36 O28 1.252 . S
O37 In26 2.294 . S
O37 C30 1.240 . S
O38 In26 2.326 . S
O38 C30 1.252 . S
In39 O40 2.294 . S
In39 O41 2.326 . S
In39 O45 2.266 . S
In39 O46 2.326 . S
In39 O47 2.266 . S
In39 O48 2.326 . S
In39 O50 2.294 . S
In39 O51 2.326 . S
O40 In39 2.294 . S
O40 C49 1.240 . S
O41 In39 2.326 . S
O41 C49 1.252 . S
C42 O45 1.252 . S
C42 O46 1.260 . S
C43 O50 1.240 . S
C43 O51 1.252 . S
C44 O47 1.252 . S
C44 O48 1.260 . S
O45 In39 2.266 . S
O45 C42 1.252 . S
O46 In39 2.326 . S
O46 C42 1.260 . S
O47 In39 2.266 . S
O47 C44 1.252 . S
O48 In39 2.326 . S
O48 C44 1.260 . S
C49 O40 1.240 . S
C49 O41 1.252 . S
O50 In39 2.294 . S
O50 C43 1.240 . S
O51 In39 2.326 . S
O51 C43 1.252 . S
In52 O53 2.294 . S
In52 O54 2.326 . S
In52 O58 2.266 . S
In52 O59 2.326 . S
In52 O60 2.266 . S
In52 O61 2.326 . S
In52 O63 2.294 . S
In52 O64 2.326 . S
O53 In52 2.294 . S
O53 C62 1.240 . S
O54 In52 2.326 . S
O54 C62 1.252 . S
C55 O58 1.252 . S
C55 O59 1.260 . S
C56 O63 1.240 . S
C56 O64 1.252 . S
C57 O60 1.252 . S
C57 O61 1.260 . S
O58 In52 2.266 . S
O58 C55 1.252 . S
O59 In52 2.326 . S
O59 C55 1.260 . S
O60 In52 2.266 . S
O60 C57 1.252 . S
O61 In52 2.326 . S
O61 C57 1.260 . S
C62 O53 1.240 . S
C62 O54 1.252 . S
O63 In52 2.294 . S
O63 C56 1.240 . S
O64 In52 2.326 . S
O64 C56 1.252 . S
In65 O66 2.294 . S
In65 O67 2.326 . S
In65 O71 2.266 . S
In65 O72 2.326 . S
In65 O73 2.266 . S
In65 O74 2.326 . S
In65 O76 2.294 . S
In65 O77 2.326 . S
O66 In65 2.294 . S
O66 C75 1.240 . S
O67 In65 2.326 . S
O67 C75 1.252 . S
C68 O71 1.252 . S
C68 O72 1.260 . S
C69 O76 1.240 . S
C69 O77 1.252 . S
C70 O73 1.252 . S
C70 O74 1.260 . S
O71 In65 2.266 . S
O71 C68 1.252 . S
O72 In65 2.326 . S
O72 C68 1.260 . S
O73 In65 2.266 . S
O73 C70 1.252 . S
O74 In65 2.326 . S
O74 C70 1.260 . S
C75 O66 1.240 . S
C75 O67 1.252 . S
O76 In65 2.294 . S
O76 C69 1.240 . S
O77 In65 2.326 . S
O77 C69 1.252 . S
In78 O79 2.294 . S
In78 O80 2.326 . S
In78 O84 2.266 . S
In78 O85 2.326 . S
In78 O86 2.266 . S
In78 O87 2.326 . S
In78 O89 2.294 . S
In78 O90 2.326 . S
O79 In78 2.294 . S
O79 C88 1.240 . S
O80 In78 2.326 . S
O80 C88 1.252 . S
C81 O84 1.252 . S
C81 O85 1.260 . S
C82 O89 1.240 . S
C82 O90 1.252 . S
C83 O86 1.252 . S
C83 O87 1.260 . S
O84 In78 2.266 . S
O84 C81 1.252 . S
O85 In78 2.326 . S
O85 C81 1.260 . S
O86 In78 2.266 . S
O86 C83 1.252 . S
O87 In78 2.326 . S
O87 C83 1.260 . S
C88 O79 1.240 . S
C88 O80 1.252 . S
O89 In78 2.294 . S
O89 C82 1.240 . S
O90 In78 2.326 . S
O90 C82 1.252 . S
In91 O92 2.294 . S
In91 O93 2.326 . S
In91 O97 2.266 . S
In91 O98 2.326 . S
In91 O99 2.266 . S
In91 O100 2.326 . S
In91 O102 2.294 . S
In91 O103 2.326 . S
O92 In91 2.294 . S
O92 C101 1.240 . S
O93 In91 2.326 . S
O93 C101 1.252 . S
C94 O97 1.252 . S
C94 O98 1.260 . S
C95 O102 1.240 . S
C95 O103 1.252 . S
C96 O99 1.252 . S
C96 O100 1.260 . S
O97 In91 2.266 . S
O97 C94 1.252 . S
O98 In91 2.326 . S
O98 C94 1.260 . S
O99 In91 2.266 . S
O99 C96 1.252 . S
O100 In91 2.326 . S
O100 C96 1.260 . S
C101 O92 1.240 . S
C101 O93 1.252 . S
O102 In91 2.294 . S
O102 C95 1.240 . S
O103 In91 2.326 . S
O103 C95 1.252 . S
In104 O105 2.294 . S
In104 O106 2.326 . S
In104 O110 2.266 . S
In104 O111 2.326 . S
In104 O112 2.266 . S
In104 O113 2.326 . S
In104 O115 2.294 . S
In104 O116 2.326 . S
O105 In104 2.294 . S
O105 C114 1.240 . S
O106 In104 2.326 . S
O106 C114 1.252 . S
C107 O110 1.252 . S
C107 O111 1.260 . S
C108 O115 1.240 . S
C108 O116 1.252 . S
C109 O112 1.252 . S
C109 O113 1.260 . S
O110 In104 2.266 . S
O110 C107 1.252 . S
O111 In104 2.326 . S
O111 C107 1.260 . S
O112 In104 2.266 . S
O112 C109 1.252 . S
O113 In104 2.326 . S
O113 C109 1.260 . S
C114 O105 1.240 . S
C114 O106 1.252 . S
O115 In104 2.294 . S
O115 C108 1.240 . S
O116 In104 2.326 . S
O116 C108 1.252 . S
In117 O118 2.294 . S
In117 O119 2.326 . S
In117 O123 2.266 . S
In117 O124 2.326 . S
In117 O125 2.266 . S
In117 O126 2.326 . S
In117 O128 2.294 . S
In117 O129 2.326 . S
O118 In117 2.294 . S
O118 C127 1.240 . S
O119 In117 2.326 . S
O119 C127 1.252 . S
C120 O123 1.252 . S
C120 O124 1.260 . S
C121 O128 1.240 . S
C121 O129 1.252 . S
C122 O125 1.252 . S
C122 O126 1.260 . S
O123 In117 2.266 . S
O123 C120 1.252 . S
O124 In117 2.326 . S
O124 C120 1.260 . S
O125 In117 2.266 . S
O125 C122 1.252 . S
O126 In117 2.326 . S
O126 C122 1.260 . S
C127 O118 1.240 . S
C127 O119 1.252 . S
O128 In117 2.294 . S
O128 C121 1.240 . S
O129 In117 2.326 . S
O129 C121 1.252 . S
In130 O131 2.294 . S
In130 O132 2.326 . S
In130 O136 2.266 . S
In130 O137 2.326 . S
In130 O138 2.266 . S
In130 O139 2.326 . S
In130 O141 2.294 . S
In130 O142 2.326 . S
O131 In130 2.294 . S
O131 C140 1.240 . S
O132 In130 2.326 . S
O132 C140 1.252 . S
C133 O136 1.252 . S
C133 O137 1.260 . S
C134 O141 1.240 . S
C134 O142 1.252 . S
C135 O138 1.252 . S
C135 O139 1.260 . S
O136 In130 2.266 . S
O136 C133 1.252 . S
O137 In130 2.326 . S
O137 C133 1.260 . S
O138 In130 2.266 . S
O138 C135 1.252 . S
O139 In130 2.326 . S
O139 C135 1.260 . S
C140 O131 1.240 . S
C140 O132 1.252 . S
O141 In130 2.294 . S
O141 C134 1.240 . S
O142 In130 2.326 . S
O142 C134 1.252 . S
In143 O144 2.294 . S
In143 O145 2.326 . S
In143 O149 2.266 . S
In143 O150 2.326 . S
In143 O151 2.266 . S
In143 O152 2.326 . S
In143 O154 2.294 . S
In143 O155 2.326 . S
O144 In143 2.294 . S
O144 C153 1.240 . S
O145 In143 2.326 . S
O145 C153 1.252 . S
C146 O149 1.252 . S
C146 O150 1.260 . S
C147 O154 1.240 . S
C147 O155 1.252 . S
C148 O151 1.252 . S
C148 O152 1.260 . S
O149 In143 2.266 . S
O149 C146 1.252 . S
O150 In143 2.326 . S
O150 C146 1.260 . S
O151 In143 2.266 . S
O151 C148 1.252 . S
O152 In143 2.326 . S
O152 C148 1.260 . S
C153 O144 1.240 . S
C153 O145 1.252 . S
O154 In143 2.294 . S
O154 C147 1.240 . S
O155 In143 2.326 . S
O155 C147 1.252 . S
In156 O157 2.294 . S
In156 O158 2.326 . S
In156 O162 2.266 . S
In156 O163 2.326 . S
In156 O164 2.266 . S
In156 O165 2.326 . S
In156 O167 2.294 . S
In156 O168 2.326 . S
O157 In156 2.294 . S
O157 C166 1.240 . S
O158 In156 2.326 . S
O158 C166 1.252 . S
C159 O162 1.252 . S
C159 O163 1.260 . S
C160 O167 1.240 . S
C160 O168 1.252 . S
C161 O164 1.252 . S
C161 O165 1.260 . S
O162 In156 2.266 . S
O162 C159 1.252 . S
O163 In156 2.326 . S
O163 C159 1.260 . S
O164 In156 2.266 . S
O164 C161 1.252 . S
O165 In156 2.326 . S
O165 C161 1.260 . S
C166 O157 1.240 . S
C166 O158 1.252 . S
O167 In156 2.294 . S
O167 C160 1.240 . S
O168 In156 2.326 . S
O168 C160 1.252 . S
In169 O170 2.294 . S
In169 O171 2.326 . S
In169 O175 2.266 . S
In169 O176 2.326 . S
In169 O177 2.266 . S
In169 O178 2.326 . S
In169 O180 2.294 . S
In169 O181 2.326 . S
O170 In169 2.294 . S
O170 C179 1.240 . S
O171 In169 2.326 . S
O171 C179 1.252 . S
C172 O175 1.252 . S
C172 O176 1.260 . S
C173 O180 1.240 . S
C173 O181 1.252 . S
C174 O177 1.252 . S
C174 O178 1.260 . S
O175 In169 2.266 . S
O175 C172 1.252 . S
O176 In169 2.326 . S
O176 C172 1.260 . S
O177 In169 2.266 . S
O177 C174 1.252 . S
O178 In169 2.326 . S
O178 C174 1.260 . S
C179 O170 1.240 . S
C179 O171 1.252 . S
O180 In169 2.294 . S
O180 C173 1.240 . S
O181 In169 2.326 . S
O181 C173 1.252 . S
In182 O183 2.294 . S
In182 O184 2.326 . S
In182 O188 2.266 . S
In182 O189 2.326 . S
In182 O190 2.266 . S
In182 O191 2.326 . S
In182 O193 2.294 . S
In182 O194 2.326 . S
O183 In182 2.294 . S
O183 C192 1.240 . S
O184 In182 2.326 . S
O184 C192 1.252 . S
C185 O188 1.252 . S
C185 O189 1.260 . S
C186 O193 1.240 . S
C186 O194 1.252 . S
C187 O190 1.252 . S
C187 O191 1.260 . S
O188 In182 2.266 . S
O188 C185 1.252 . S
O189 In182 2.326 . S
O189 C185 1.260 . S
O190 In182 2.266 . S
O190 C187 1.252 . S
O191 In182 2.326 . S
O191 C187 1.260 . S
C192 O183 1.240 . S
C192 O184 1.252 . S
O193 In182 2.294 . S
O193 C186 1.240 . S
O194 In182 2.326 . S
O194 C186 1.252 . S
In195 O196 2.294 . S
In195 O197 2.326 . S
In195 O201 2.266 . S
In195 O202 2.326 . S
In195 O203 2.266 . S
In195 O204 2.326 . S
In195 O206 2.294 . S
In195 O207 2.326 . S
O196 In195 2.294 . S
O196 C205 1.240 . S
O197 In195 2.326 . S
O197 C205 1.252 . S
C198 O201 1.252 . S
C198 O202 1.260 . S
C199 O206 1.240 . S
C199 O207 1.252 . S
C200 O203 1.252 . S
C200 O204 1.260 . S
O201 In195 2.266 . S
O201 C198 1.252 . S
O202 In195 2.326 . S
O202 C198 1.260 . S
O203 In195 2.266 . S
O203 C200 1.252 . S
O204 In195 2.326 . S
O204 C200 1.260 . S
C205 O196 1.240 . S
C205 O197 1.252 . S
O206 In195 2.294 . S
O206 C199 1.240 . S
O207 In195 2.326 . S
O207 C199 1.252 . S
H208 C216 0.929 . S
H209 C218 0.930 . S
H210 C220 0.930 . S
H211 C223 0.929 . S
H212 C226 0.930 . S
H213 C228 0.960 . S
H214 C228 0.960 . S
H215 C228 0.960 . S
C216 H208 0.929 . S
C216 C217 1.377 . S
C216 C218 1.384 . S
C217 C216 1.377 . S
C217 C223 1.390 . S
C218 H209 0.930 . S
C218 C216 1.384 . S
C218 C219 1.372 . S
C219 C218 1.372 . S
C219 C220 1.400 . S
C219 C224 1.490 . S
C220 H210 0.930 . S
C220 C219 1.400 . S
C220 C223 1.386 . S
H221 C237 0.930 . S
H222 C238 0.931 . S
C223 H211 0.929 . S
C223 C217 1.390 . S
C223 C220 1.386 . S
C224 C219 1.490 . S
C224 C226 1.395 . S
C224 C227 1.403 . S
H225 C231 0.930 . S
C226 H212 0.930 . S
C226 C224 1.395 . S
C226 C229 1.403 . S
C227 C224 1.403 . S
C227 C228 1.524 . S
C227 C231 1.400 . S
C228 H213 0.960 . S
C228 H214 0.960 . S
C228 H215 0.960 . S
C228 C227 1.524 . S
C229 C226 1.403 . S
C229 C230 1.392 . S
C229 C233 1.495 . S
C230 C229 1.392 . S
C230 C231 1.385 . S
C230 C232 1.478 . S
C231 H225 0.930 . S
C231 C227 1.400 . S
C231 C230 1.385 . S
C232 C230 1.478 . S
C232 C234 1.381 . S
C232 C238 1.383 . S
C233 C229 1.495 . S
C233 H239 0.959 . S
C233 H240 0.961 . S
C233 H241 0.960 . S
C234 C232 1.381 . S
C234 C235 1.394 . S
C234 H242 0.930 . S
C235 C234 1.394 . S
C235 C236 1.383 . S
C235 H243 0.929 . S
C236 C235 1.383 . S
C236 C237 1.377 . S
C237 H221 0.930 . S
C237 C236 1.377 . S
C237 C238 1.379 . S
C238 H222 0.931 . S
C238 C232 1.383 . S
C238 C237 1.379 . S
H239 C233 0.959 . S
H240 C233 0.961 . S
H241 C233 0.960 . S
H242 C234 0.930 . S
H243 C235 0.929 . S
H244 C252 0.929 . S
H245 C254 0.930 . S
H246 C256 0.930 . S
H247 C259 0.929 . S
H248 C262 0.930 . S
H249 C264 0.960 . S
H250 C264 0.960 . S
H251 C264 0.960 . S
C252 H244 0.929 . S
C252 C253 1.377 . S
C252 C254 1.384 . S
C253 C252 1.377 . S
C253 C259 1.390 . S
C254 H245 0.930 . S
C254 C252 1.384 . S
C254 C255 1.372 . S
C255 C254 1.372 . S
C255 C256 1.400 . S
C255 C260 1.490 . S
C256 H246 0.930 . S
C256 C255 1.400 . S
C256 C259 1.386 . S
H257 C273 0.930 . S
H258 C274 0.931 . S
C259 H247 0.929 . S
C259 C253 1.390 . S
C259 C256 1.386 . S
C260 C255 1.490 . S
C260 C262 1.395 . S
C260 C263 1.403 . S
H261 C267 0.930 . S
C262 H248 0.930 . S
C262 C260 1.395 . S
C262 C265 1.403 . S
C263 C260 1.403 . S
C263 C264 1.524 . S
C263 C267 1.400 . S
C264 H249 0.960 . S
C264 H250 0.960 . S
C264 H251 0.960 . S
C264 C263 1.524 . S
C265 C262 1.403 . S
C265 C266 1.392 . S
C265 C269 1.495 . S
C266 C265 1.392 . S
C266 C267 1.385 . S
C266 C268 1.478 . S
C267 H261 0.930 . S
C267 C263 1.400 . S
C267 C266 1.385 . S
C268 C266 1.478 . S
C268 C270 1.381 . S
C268 C274 1.383 . S
C269 C265 1.495 . S
C269 H275 0.959 . S
C269 H276 0.961 . S
C269 H277 0.960 . S
C270 C268 1.381 . S
C270 C271 1.394 . S
C270 H278 0.930 . S
C271 C270 1.394 . S
C271 C272 1.383 . S
C271 H279 0.929 . S
C272 C271 1.383 . S
C272 C273 1.377 . S
C273 H257 0.930 . S
C273 C272 1.377 . S
C273 C274 1.379 . S
C274 H258 0.931 . S
C274 C268 1.383 . S
C274 C273 1.379 . S
H275 C269 0.959 . S
H276 C269 0.961 . S
H277 C269 0.960 . S
H278 C270 0.930 . S
H279 C271 0.929 . S
H280 C288 0.929 . S
H281 C290 0.930 . S
H282 C292 0.930 . S
H283 C295 0.929 . S
H284 C298 0.930 . S
H285 C300 0.960 . S
H286 C300 0.960 . S
H287 C300 0.960 . S
C288 H280 0.929 . S
C288 C289 1.377 . S
C288 C290 1.384 . S
C289 C288 1.377 . S
C289 C295 1.390 . S
C290 H281 0.930 . S
C290 C288 1.384 . S
C290 C291 1.372 . S
C291 C290 1.372 . S
C291 C292 1.400 . S
C291 C296 1.490 . S
C292 H282 0.930 . S
C292 C291 1.400 . S
C292 C295 1.386 . S
H293 C309 0.930 . S
H294 C310 0.931 . S
C295 H283 0.929 . S
C295 C289 1.390 . S
C295 C292 1.386 . S
C296 C291 1.490 . S
C296 C298 1.395 . S
C296 C299 1.403 . S
H297 C303 0.930 . S
C298 H284 0.930 . S
C298 C296 1.395 . S
C298 C301 1.403 . S
C299 C296 1.403 . S
C299 C300 1.524 . S
C299 C303 1.400 . S
C300 H285 0.960 . S
C300 H286 0.960 . S
C300 H287 0.960 . S
C300 C299 1.524 . S
C301 C298 1.403 . S
C301 C302 1.392 . S
C301 C305 1.495 . S
C302 C301 1.392 . S
C302 C303 1.385 . S
C302 C304 1.478 . S
C303 H297 0.930 . S
C303 C299 1.400 . S
C303 C302 1.385 . S
C304 C302 1.478 . S
C304 C306 1.381 . S
C304 C310 1.383 . S
C305 C301 1.495 . S
C305 H311 0.959 . S
C305 H312 0.961 . S
C305 H313 0.960 . S
C306 C304 1.381 . S
C306 C307 1.394 . S
C306 H314 0.930 . S
C307 C306 1.394 . S
C307 C308 1.383 . S
C307 H315 0.929 . S
C308 C307 1.383 . S
C308 C309 1.377 . S
C309 H293 0.930 . S
C309 C308 1.377 . S
C309 C310 1.379 . S
C310 H294 0.931 . S
C310 C304 1.383 . S
C310 C309 1.379 . S
H311 C305 0.959 . S
H312 C305 0.961 . S
H313 C305 0.960 . S
H314 C306 0.930 . S
H315 C307 0.929 . S
H316 C324 0.929 . S
H317 C326 0.930 . S
H318 C328 0.930 . S
H319 C331 0.929 . S
H320 C334 0.930 . S
H321 C336 0.960 . S
H322 C336 0.960 . S
H323 C336 0.960 . S
C324 H316 0.929 . S
C324 C325 1.377 . S
C324 C326 1.384 . S
C325 C324 1.377 . S
C325 C331 1.390 . S
C326 H317 0.930 . S
C326 C324 1.384 . S
C326 C327 1.372 . S
C327 C326 1.372 . S
C327 C328 1.400 . S
C327 C332 1.490 . S
C328 H318 0.930 . S
C328 C327 1.400 . S
C328 C331 1.386 . S
H329 C345 0.930 . S
H330 C346 0.931 . S
C331 H319 0.929 . S
C331 C325 1.390 . S
C331 C328 1.386 . S
C332 C327 1.490 . S
C332 C334 1.395 . S
C332 C335 1.403 . S
H333 C339 0.930 . S
C334 H320 0.930 . S
C334 C332 1.395 . S
C334 C337 1.403 1_455 S
C335 C332 1.403 . S
C335 C336 1.524 . S
C335 C339 1.400 1_455 S
C336 H321 0.960 . S
C336 H322 0.960 . S
C336 H323 0.960 . S
C336 C335 1.524 . S
C337 C334 1.403 1_655 S
C337 C338 1.392 . S
C337 C341 1.495 . S
C338 C337 1.392 . S
C338 C339 1.385 . S
C338 C340 1.478 . S
C339 H333 0.930 . S
C339 C335 1.400 1_655 S
C339 C338 1.385 . S
C340 C338 1.478 . S
C340 C342 1.381 . S
C340 C346 1.383 . S
C341 C337 1.495 . S
C341 H347 0.959 . S
C341 H348 0.961 . S
C341 H349 0.960 . S
C342 C340 1.381 . S
C342 C343 1.394 . S
C342 H350 0.930 . S
C343 C342 1.394 . S
C343 C344 1.383 . S
C343 H351 0.929 . S
C344 C343 1.383 . S
C344 C345 1.377 . S
C345 H329 0.930 . S
C345 C344 1.377 . S
C345 C346 1.379 . S
C346 H330 0.931 . S
C346 C340 1.383 . S
C346 C345 1.379 . S
H347 C341 0.959 . S
H348 C341 0.961 . S
H349 C341 0.960 . S
H350 C342 0.930 . S
H351 C343 0.929 . S
H352 C360 0.929 . S
H353 C362 0.930 . S
H354 C364 0.930 . S
H355 C367 0.929 . S
H356 C370 0.930 . S
H357 C372 0.960 . S
H358 C372 0.960 . S
H359 C372 0.960 . S
C360 H352 0.929 . S
C360 C361 1.377 . S
C360 C362 1.384 . S
C361 C360 1.377 . S
C361 C367 1.390 . S
C362 H353 0.930 . S
C362 C360 1.384 . S
C362 C363 1.372 . S
C363 C362 1.372 . S
C363 C364 1.400 . S
C363 C368 1.490 . S
C364 H354 0.930 . S
C364 C363 1.400 . S
C364 C367 1.386 . S
H365 C381 0.930 . S
H366 C382 0.931 . S
C367 H355 0.929 . S
C367 C361 1.390 . S
C367 C364 1.386 . S
C368 C363 1.490 . S
C368 C370 1.395 . S
C368 C371 1.403 . S
H369 C375 0.930 . S
C370 H356 0.930 . S
C370 C368 1.395 . S
C370 C373 1.403 . S
C371 C368 1.403 . S
C371 C372 1.524 . S
C371 C375 1.400 . S
C372 H357 0.960 . S
C372 H358 0.960 . S
C372 H359 0.960 . S
C372 C371 1.524 . S
C373 C370 1.403 . S
C373 C374 1.392 . S
C373 C377 1.495 . S
C374 C373 1.392 . S
C374 C375 1.385 . S
C374 C376 1.478 . S
C375 H369 0.930 . S
C375 C371 1.400 . S
C375 C374 1.385 . S
C376 C374 1.478 . S
C376 C378 1.381 . S
C376 C382 1.383 . S
C377 C373 1.495 . S
C377 H383 0.959 . S
C377 H384 0.961 . S
C377 H385 0.960 . S
C378 C376 1.381 . S
C378 C379 1.394 . S
C378 H386 0.930 . S
C379 C378 1.394 . S
C379 C380 1.383 . S
C379 H387 0.929 . S
C380 C379 1.383 . S
C380 C381 1.377 . S
C381 H365 0.930 . S
C381 C380 1.377 . S
C381 C382 1.379 . S
C382 H366 0.931 . S
C382 C376 1.383 . S
C382 C381 1.379 . S
H383 C377 0.959 . S
H384 C377 0.961 . S
H385 C377 0.960 . S
H386 C378 0.930 . S
H387 C379 0.929 . S
H388 C396 0.929 . S
H389 C398 0.930 . S
H390 C400 0.930 . S
H391 C403 0.929 . S
H392 C406 0.930 . S
H393 C408 0.960 . S
H394 C408 0.960 . S
H395 C408 0.960 . S
C396 H388 0.929 . S
C396 C397 1.377 . S
C396 C398 1.384 . S
C397 C396 1.377 . S
C397 C403 1.390 . S
C398 H389 0.930 . S
C398 C396 1.384 . S
C398 C399 1.372 . S
C399 C398 1.372 . S
C399 C400 1.400 . S
C399 C404 1.490 . S
C400 H390 0.930 . S
C400 C399 1.400 . S
C400 C403 1.386 . S
H401 C417 0.930 . S
H402 C418 0.931 . S
C403 H391 0.929 . S
C403 C397 1.390 . S
C403 C400 1.386 . S
C404 C399 1.490 . S
C404 C406 1.395 . S
C404 C407 1.403 . S
H405 C411 0.930 . S
C406 H392 0.930 . S
C406 C404 1.395 . S
C406 C409 1.403 1_655 S
C407 C404 1.403 . S
C407 C408 1.524 . S
C407 C411 1.400 1_655 S
C408 H393 0.960 . S
C408 H394 0.960 . S
C408 H395 0.960 . S
C408 C407 1.524 . S
C409 C406 1.403 1_455 S
C409 C410 1.392 . S
C409 C413 1.495 . S
C410 C409 1.392 . S
C410 C411 1.385 . S
C410 C412 1.478 . S
C411 H405 0.930 . S
C411 C407 1.400 1_455 S
C411 C410 1.385 . S
C412 C410 1.478 . S
C412 C414 1.381 . S
C412 C418 1.383 . S
C413 C409 1.495 . S
C413 H419 0.959 . S
C413 H420 0.961 . S
C413 H421 0.960 . S
C414 C412 1.381 . S
C414 C415 1.394 . S
C414 H422 0.930 . S
C415 C414 1.394 . S
C415 C416 1.383 . S
C415 H423 0.929 . S
C416 C415 1.383 . S
C416 C417 1.377 . S
C417 H401 0.930 . S
C417 C416 1.377 . S
C417 C418 1.379 . S
C418 H402 0.931 . S
C418 C412 1.383 . S
C418 C417 1.379 . S
H419 C413 0.959 . S
H420 C413 0.961 . S
H421 C413 0.960 . S
H422 C414 0.930 . S
H423 C415 0.929 . S
H424 C432 0.929 . S
H425 C434 0.930 . S
H426 C436 0.930 . S
H427 C439 0.929 . S
H428 C442 0.930 . S
H429 C444 0.960 . S
H430 C444 0.960 . S
H431 C444 0.960 . S
C432 H424 0.929 . S
C432 C433 1.377 . S
C432 C434 1.384 . S
C433 C432 1.377 . S
C433 C439 1.390 . S
C434 H425 0.930 . S
C434 C432 1.384 . S
C434 C435 1.372 . S
C435 C434 1.372 . S
C435 C436 1.400 . S
C435 C440 1.490 . S
C436 H426 0.930 . S
C436 C435 1.400 . S
C436 C439 1.386 . S
H437 C453 0.930 . S
H438 C454 0.931 . S
C439 H427 0.929 . S
C439 C433 1.390 . S
C439 C436 1.386 . S
C440 C435 1.490 . S
C440 C442 1.395 . S
C440 C443 1.403 . S
H441 C447 0.930 . S
C442 H428 0.930 . S
C442 C440 1.395 . S
C442 C445 1.403 . S
C443 C440 1.403 . S
C443 C444 1.524 . S
C443 C447 1.400 . S
C444 H429 0.960 . S
C444 H430 0.960 . S
C444 H431 0.960 . S
C444 C443 1.524 . S
C445 C442 1.403 . S
C445 C446 1.392 . S
C445 C449 1.495 . S
C446 C445 1.392 . S
C446 C447 1.385 . S
C446 C448 1.478 . S
C447 H441 0.930 . S
C447 C443 1.400 . S
C447 C446 1.385 . S
C448 C446 1.478 . S
C448 C450 1.381 . S
C448 C454 1.383 . S
C449 C445 1.495 . S
C449 H455 0.959 . S
C449 H456 0.961 . S
C449 H457 0.960 . S
C450 C448 1.381 . S
C450 C451 1.394 . S
C450 H458 0.930 . S
C451 C450 1.394 . S
C451 C452 1.383 . S
C451 H459 0.929 . S
C452 C451 1.383 . S
C452 C453 1.377 . S
C453 H437 0.930 . S
C453 C452 1.377 . S
C453 C454 1.379 . S
C454 H438 0.931 . S
C454 C448 1.383 . S
C454 C453 1.379 . S
H455 C449 0.959 . S
H456 C449 0.961 . S
H457 C449 0.960 . S
H458 C450 0.930 . S
H459 C451 0.929 . S
H460 C468 0.929 . S
H461 C470 0.930 . S
H462 C472 0.930 . S
H463 C475 0.929 . S
H464 C478 0.930 . S
H465 C480 0.960 . S
H466 C480 0.960 . S
H467 C480 0.960 . S
C468 H460 0.929 . S
C468 C469 1.377 . S
C468 C470 1.384 . S
C469 C468 1.377 . S
C469 C475 1.390 . S
C470 H461 0.930 . S
C470 C468 1.384 . S
C470 C471 1.372 . S
C471 C470 1.372 . S
C471 C472 1.400 . S
C471 C476 1.490 . S
C472 H462 0.930 . S
C472 C471 1.400 . S
C472 C475 1.386 . S
H473 C489 0.930 . S
H474 C490 0.931 . S
C475 H463 0.929 . S
C475 C469 1.390 . S
C475 C472 1.386 . S
C476 C471 1.490 . S
C476 C478 1.395 . S
C476 C479 1.403 . S
H477 C483 0.930 . S
C478 H464 0.930 . S
C478 C476 1.395 . S
C478 C481 1.403 . S
C479 C476 1.403 . S
C479 C480 1.524 . S
C479 C483 1.400 . S
C480 H465 0.960 . S
C480 H466 0.960 . S
C480 H467 0.960 . S
C480 C479 1.524 . S
C481 C478 1.403 . S
C481 C482 1.392 . S
C481 C485 1.495 . S
C482 C481 1.392 . S
C482 C483 1.385 . S
C482 C484 1.478 . S
C483 H477 0.930 . S
C483 C479 1.400 . S
C483 C482 1.385 . S
C484 C482 1.478 . S
C484 C486 1.381 . S
C484 C490 1.383 . S
C485 C481 1.495 . S
C485 H491 0.959 . S
C485 H492 0.961 . S
C485 H493 0.960 . S
C486 C484 1.381 . S
C486 C487 1.394 . S
C486 H494 0.930 . S
C487 C486 1.394 . S
C487 C488 1.383 . S
C487 H495 0.929 . S
C488 C487 1.383 . S
C488 C489 1.377 . S
C489 H473 0.930 . S
C489 C488 1.377 . S
C489 C490 1.379 . S
C490 H474 0.931 . S
C490 C484 1.383 . S
C490 C489 1.379 . S
H491 C485 0.959 . S
H492 C485 0.961 . S
H493 C485 0.960 . S
H494 C486 0.930 . S
H495 C487 0.929 . S
H496 C504 0.929 . S
H497 C506 0.930 . S
H498 C508 0.930 . S
H499 C511 0.929 . S
H500 C514 0.930 . S
H501 C516 0.960 . S
H502 C516 0.960 . S
H503 C516 0.960 . S
C504 H496 0.929 . S
C504 C505 1.377 . S
C504 C506 1.384 . S
C505 C504 1.377 . S
C505 C511 1.390 . S
C506 H497 0.930 . S
C506 C504 1.384 . S
C506 C507 1.372 . S
C507 C506 1.372 . S
C507 C508 1.400 . S
C507 C512 1.490 . S
C508 H498 0.930 . S
C508 C507 1.400 . S
C508 C511 1.386 . S
H509 C525 0.930 . S
H510 C526 0.931 . S
C511 H499 0.929 . S
C511 C505 1.390 . S
C511 C508 1.386 . S
C512 C507 1.490 . S
C512 C514 1.395 . S
C512 C515 1.403 . S
H513 C519 0.930 . S
C514 H500 0.930 . S
C514 C512 1.395 . S
C514 C517 1.403 . S
C515 C512 1.403 . S
C515 C516 1.524 . S
C515 C519 1.400 . S
C516 H501 0.960 . S
C516 H502 0.960 . S
C516 H503 0.960 . S
C516 C515 1.524 . S
C517 C514 1.403 . S
C517 C518 1.392 . S
C517 C521 1.495 . S
C518 C517 1.392 . S
C518 C519 1.385 . S
C518 C520 1.478 . S
C519 H513 0.930 . S
C519 C515 1.400 . S
C519 C518 1.385 . S
C520 C518 1.478 . S
C520 C522 1.381 . S
C520 C526 1.383 . S
C521 C517 1.495 . S
C521 H527 0.959 . S
C521 H528 0.961 . S
C521 H529 0.960 . S
C522 C520 1.381 . S
C522 C523 1.394 . S
C522 H530 0.930 . S
C523 C522 1.394 . S
C523 C524 1.383 . S
C523 H531 0.929 . S
C524 C523 1.383 . S
C524 C525 1.377 . S
C525 H509 0.930 . S
C525 C524 1.377 . S
C525 C526 1.379 . S
C526 H510 0.931 . S
C526 C520 1.383 . S
C526 C525 1.379 . S
H527 C521 0.959 . S
H528 C521 0.961 . S
H529 C521 0.960 . S
H530 C522 0.930 . S
H531 C523 0.929 . S
H532 C540 0.929 . S
H533 C542 0.930 . S
H534 C544 0.930 . S
H535 C547 0.929 . S
H536 C550 0.930 . S
H537 C552 0.960 . S
H538 C552 0.960 . S
H539 C552 0.960 . S
C540 H532 0.929 . S
C540 C541 1.377 . S
C540 C542 1.384 . S
C541 C540 1.377 . S
C541 C547 1.390 . S
C542 H533 0.930 . S
C542 C540 1.384 . S
C542 C543 1.372 . S
C543 C542 1.372 . S
C543 C544 1.400 . S
C543 C548 1.490 . S
C544 H534 0.930 . S
C544 C543 1.400 . S
C544 C547 1.386 . S
H545 C561 0.930 . S
H546 C562 0.931 . S
C547 H535 0.929 . S
C547 C541 1.390 . S
C547 C544 1.386 . S
C548 C543 1.490 . S
C548 C550 1.395 . S
C548 C551 1.403 . S
H549 C555 0.930 . S
C550 H536 0.930 . S
C550 C548 1.395 . S
C550 C553 1.403 . S
C551 C548 1.403 . S
C551 C552 1.524 . S
C551 C555 1.400 . S
C552 H537 0.960 . S
C552 H538 0.960 . S
C552 H539 0.960 . S
C552 C551 1.524 . S
C553 C550 1.403 . S
C553 C554 1.392 . S
C553 C557 1.495 . S
C554 C553 1.392 . S
C554 C555 1.385 . S
C554 C556 1.478 . S
C555 H549 0.930 . S
C555 C551 1.400 . S
C555 C554 1.385 . S
C556 C554 1.478 . S
C556 C558 1.381 . S
C556 C562 1.383 . S
C557 C553 1.495 . S
C557 H563 0.959 . S
C557 H564 0.961 . S
C557 H565 0.960 . S
C558 C556 1.381 . S
C558 C559 1.394 . S
C558 H566 0.930 . S
C559 C558 1.394 . S
C559 C560 1.383 . S
C559 H567 0.929 . S
C560 C559 1.383 . S
C560 C561 1.377 . S
C561 H545 0.930 . S
C561 C560 1.377 . S
C561 C562 1.379 . S
C562 H546 0.931 . S
C562 C556 1.383 . S
C562 C561 1.379 . S
H563 C557 0.959 . S
H564 C557 0.961 . S
H565 C557 0.960 . S
H566 C558 0.930 . S
H567 C559 0.929 . S
H568 C576 0.929 . S
H569 C578 0.930 . S
H570 C580 0.930 . S
H571 C583 0.929 . S
H572 C586 0.930 . S
H573 C588 0.960 . S
H574 C588 0.960 . S
H575 C588 0.960 . S
C576 H568 0.929 . S
C576 C577 1.377 . S
C576 C578 1.384 . S
C577 C576 1.377 . S
C577 C583 1.390 . S
C578 H569 0.930 . S
C578 C576 1.384 . S
C578 C579 1.372 . S
C579 C578 1.372 . S
C579 C580 1.400 . S
C579 C584 1.490 . S
C580 H570 0.930 . S
C580 C579 1.400 . S
C580 C583 1.386 . S
H581 C597 0.930 . S
H582 C598 0.931 . S
C583 H571 0.929 . S
C583 C577 1.390 . S
C583 C580 1.386 . S
C584 C579 1.490 . S
C584 C586 1.395 . S
C584 C587 1.403 . S
H585 C591 0.930 . S
C586 H572 0.930 . S
C586 C584 1.395 . S
C586 C589 1.403 . S
C587 C584 1.403 . S
C587 C588 1.524 . S
C587 C591 1.400 . S
C588 H573 0.960 . S
C588 H574 0.960 . S
C588 H575 0.960 . S
C588 C587 1.524 . S
C589 C586 1.403 . S
C589 C590 1.392 . S
C589 C593 1.495 . S
C590 C589 1.392 . S
C590 C591 1.385 . S
C590 C592 1.478 . S
C591 H585 0.930 . S
C591 C587 1.400 . S
C591 C590 1.385 . S
C592 C590 1.478 . S
C592 C594 1.381 . S
C592 C598 1.383 . S
C593 C589 1.495 . S
C593 H599 0.959 . S
C593 H600 0.961 . S
C593 H601 0.960 . S
C594 C592 1.381 . S
C594 C595 1.394 . S
C594 H602 0.930 . S
C595 C594 1.394 . S
C595 C596 1.383 . S
C595 H603 0.929 . S
C596 C595 1.383 . S
C596 C597 1.377 . S
C597 H581 0.930 . S
C597 C596 1.377 . S
C597 C598 1.379 . S
C598 H582 0.931 . S
C598 C592 1.383 . S
C598 C597 1.379 . S
H599 C593 0.959 . S
H600 C593 0.961 . S
H601 C593 0.960 . S
H602 C594 0.930 . S
H603 C595 0.929 . S
H604 C612 0.929 . S
H605 C614 0.930 . S
H606 C616 0.930 . S
H607 C619 0.929 . S
H608 C622 0.930 . S
H609 C624 0.960 . S
H610 C624 0.960 . S
H611 C624 0.960 . S
C612 H604 0.929 . S
C612 C613 1.377 . S
C612 C614 1.384 . S
C613 C612 1.377 . S
C613 C619 1.390 . S
C614 H605 0.930 . S
C614 C612 1.384 . S
C614 C615 1.372 . S
C615 C614 1.372 . S
C615 C616 1.400 . S
C615 C620 1.490 . S
C616 H606 0.930 . S
C616 C615 1.400 . S
C616 C619 1.386 . S
H617 C633 0.930 . S
H618 C634 0.931 . S
C619 H607 0.929 . S
C619 C613 1.390 . S
C619 C616 1.386 . S
C620 C615 1.490 . S
C620 C622 1.395 . S
C620 C623 1.403 . S
H621 C627 0.930 . S
C622 H608 0.930 . S
C622 C620 1.395 . S
C622 C625 1.403 . S
C623 C620 1.403 . S
C623 C624 1.524 . S
C623 C627 1.400 . S
C624 H609 0.960 . S
C624 H610 0.960 . S
C624 H611 0.960 . S
C624 C623 1.524 . S
C625 C622 1.403 . S
C625 C626 1.392 . S
C625 C629 1.495 . S
C626 C625 1.392 . S
C626 C627 1.385 . S
C626 C628 1.478 . S
C627 H621 0.930 . S
C627 C623 1.400 . S
C627 C626 1.385 . S
C628 C626 1.478 . S
C628 C630 1.381 . S
C628 C634 1.383 . S
C629 C625 1.495 . S
C629 H635 0.959 . S
C629 H636 0.961 . S
C629 H637 0.960 . S
C630 C628 1.381 . S
C630 C631 1.394 . S
C630 H638 0.930 . S
C631 C630 1.394 . S
C631 C632 1.383 . S
C631 H639 0.929 . S
C632 C631 1.383 . S
C632 C633 1.377 . S
C633 H617 0.930 . S
C633 C632 1.377 . S
C633 C634 1.379 . S
C634 H618 0.931 . S
C634 C628 1.383 . S
C634 C633 1.379 . S
H635 C629 0.959 . S
H636 C629 0.961 . S
H637 C629 0.960 . S
H638 C630 0.930 . S
H639 C631 0.929 . S
H640 C648 0.929 . S
H641 C650 0.930 . S
H642 C652 0.930 . S
H643 C655 0.929 . S
H644 C658 0.930 . S
H645 C660 0.960 . S
H646 C660 0.960 . S
H647 C660 0.960 . S
C648 H640 0.929 . S
C648 C649 1.377 . S
C648 C650 1.384 . S
C649 C648 1.377 . S
C649 C655 1.390 . S
C650 H641 0.930 . S
C650 C648 1.384 . S
C650 C651 1.372 . S
C651 C650 1.372 . S
C651 C652 1.400 . S
C651 C656 1.490 . S
C652 H642 0.930 . S
C652 C651 1.400 . S
C652 C655 1.386 . S
H653 C669 0.930 . S
H654 C670 0.931 . S
C655 H643 0.929 . S
C655 C649 1.390 . S
C655 C652 1.386 . S
C656 C651 1.490 . S
C656 C658 1.395 . S
C656 C659 1.403 . S
H657 C663 0.930 . S
C658 H644 0.930 . S
C658 C656 1.395 . S
C658 C661 1.403 1_455 S
C659 C656 1.403 . S
C659 C660 1.524 . S
C659 C663 1.400 1_455 S
C660 H645 0.960 . S
C660 H646 0.960 . S
C660 H647 0.960 . S
C660 C659 1.524 . S
C661 C658 1.403 1_655 S
C661 C662 1.392 . S
C661 C665 1.495 . S
C662 C661 1.392 . S
C662 C663 1.385 . S
C662 C664 1.478 . S
C663 H657 0.930 . S
C663 C659 1.400 1_655 S
C663 C662 1.385 . S
C664 C662 1.478 . S
C664 C666 1.381 . S
C664 C670 1.383 . S
C665 C661 1.495 . S
C665 H671 0.959 . S
C665 H672 0.961 . S
C665 H673 0.960 . S
C666 C664 1.381 . S
C666 C667 1.394 . S
C666 H674 0.930 . S
C667 C666 1.394 . S
C667 C668 1.383 . S
C667 H675 0.929 . S
C668 C667 1.383 . S
C668 C669 1.377 . S
C669 H653 0.930 . S
C669 C668 1.377 . S
C669 C670 1.379 . S
C670 H654 0.931 . S
C670 C664 1.383 . S
C670 C669 1.379 . S
H671 C665 0.959 . S
H672 C665 0.961 . S
H673 C665 0.960 . S
H674 C666 0.930 . S
H675 C667 0.929 . S
H676 C684 0.929 . S
H677 C686 0.930 . S
H678 C688 0.930 . S
H679 C691 0.929 . S
H680 C694 0.930 . S
H681 C696 0.960 . S
H682 C696 0.960 . S
H683 C696 0.960 . S
C684 H676 0.929 . S
C684 C685 1.377 . S
C684 C686 1.384 . S
C685 C684 1.377 . S
C685 C691 1.390 . S
C686 H677 0.930 . S
C686 C684 1.384 . S
C686 C687 1.372 . S
C687 C686 1.372 . S
C687 C688 1.400 . S
C687 C692 1.490 . S
C688 H678 0.930 . S
C688 C687 1.400 . S
C688 C691 1.386 . S
H689 C705 0.930 . S
H690 C706 0.931 . S
C691 H679 0.929 . S
C691 C685 1.390 . S
C691 C688 1.386 . S
C692 C687 1.490 . S
C692 C694 1.395 . S
C692 C695 1.403 . S
H693 C699 0.930 . S
C694 H680 0.930 . S
C694 C692 1.395 . S
C694 C697 1.403 . S
C695 C692 1.403 . S
C695 C696 1.524 . S
C695 C699 1.400 . S
C696 H681 0.960 . S
C696 H682 0.960 . S
C696 H683 0.960 . S
C696 C695 1.524 . S
C697 C694 1.403 . S
C697 C698 1.392 . S
C697 C701 1.495 . S
C698 C697 1.392 . S
C698 C699 1.385 . S
C698 C700 1.478 . S
C699 H693 0.930 . S
C699 C695 1.400 . S
C699 C698 1.385 . S
C700 C698 1.478 . S
C700 C702 1.381 . S
C700 C706 1.383 . S
C701 C697 1.495 . S
C701 H707 0.959 . S
C701 H708 0.961 . S
C701 H709 0.960 . S
C702 C700 1.381 . S
C702 C703 1.394 . S
C702 H710 0.930 . S
C703 C702 1.394 . S
C703 C704 1.383 . S
C703 H711 0.929 . S
C704 C703 1.383 . S
C704 C705 1.377 . S
C705 H689 0.930 . S
C705 C704 1.377 . S
C705 C706 1.379 . S
C706 H690 0.931 . S
C706 C700 1.383 . S
C706 C705 1.379 . S
H707 C701 0.959 . S
H708 C701 0.961 . S
H709 C701 0.960 . S
H710 C702 0.930 . S
H711 C703 0.929 . S
H712 C720 0.929 . S
H713 C722 0.930 . S
H714 C724 0.930 . S
H715 C727 0.929 . S
H716 C730 0.930 . S
H717 C732 0.960 . S
H718 C732 0.960 . S
H719 C732 0.960 . S
C720 H712 0.929 . S
C720 C721 1.377 . S
C720 C722 1.384 . S
C721 C720 1.377 . S
C721 C727 1.390 . S
C722 H713 0.930 . S
C722 C720 1.384 . S
C722 C723 1.372 . S
C723 C722 1.372 . S
C723 C724 1.400 . S
C723 C728 1.490 . S
C724 H714 0.930 . S
C724 C723 1.400 . S
C724 C727 1.386 . S
H725 C741 0.930 . S
H726 C742 0.931 . S
C727 H715 0.929 . S
C727 C721 1.390 . S
C727 C724 1.386 . S
C728 C723 1.490 . S
C728 C730 1.395 . S
C728 C731 1.403 . S
H729 C735 0.930 . S
C730 H716 0.930 . S
C730 C728 1.395 . S
C730 C733 1.403 . S
C731 C728 1.403 . S
C731 C732 1.524 . S
C731 C735 1.400 . S
C732 H717 0.960 . S
C732 H718 0.960 . S
C732 H719 0.960 . S
C732 C731 1.524 . S
C733 C730 1.403 . S
C733 C734 1.392 . S
C733 C737 1.495 . S
C734 C733 1.392 . S
C734 C735 1.385 . S
C734 C736 1.478 . S
C735 H729 0.930 . S
C735 C731 1.400 . S
C735 C734 1.385 . S
C736 C734 1.478 . S
C736 C738 1.381 . S
C736 C742 1.383 . S
C737 C733 1.495 . S
C737 H743 0.959 . S
C737 H744 0.961 . S
C737 H745 0.960 . S
C738 C736 1.381 . S
C738 C739 1.394 . S
C738 H746 0.930 . S
C739 C738 1.394 . S
C739 C740 1.383 . S
C739 H747 0.929 . S
C740 C739 1.383 . S
C740 C741 1.377 . S
C741 H725 0.930 . S
C741 C740 1.377 . S
C741 C742 1.379 . S
C742 H726 0.931 . S
C742 C736 1.383 . S
C742 C741 1.379 . S
H743 C737 0.959 . S
H744 C737 0.961 . S
H745 C737 0.960 . S
H746 C738 0.930 . S
H747 C739 0.929 . S
H748 C756 0.929 . S
H749 C758 0.930 . S
H750 C760 0.930 . S
H751 C763 0.929 . S
H752 C766 0.930 . S
H753 C768 0.960 . S
H754 C768 0.960 . S
H755 C768 0.960 . S
C756 H748 0.929 . S
C756 C757 1.377 . S
C756 C758 1.384 . S
C757 C756 1.377 . S
C757 C763 1.390 . S
C758 H749 0.930 . S
C758 C756 1.384 . S
C758 C759 1.372 . S
C759 C758 1.372 . S
C759 C760 1.400 . S
C759 C764 1.490 . S
C760 H750 0.930 . S
C760 C759 1.400 . S
C760 C763 1.386 . S
H761 C777 0.930 . S
H762 C778 0.931 . S
C763 H751 0.929 . S
C763 C757 1.390 . S
C763 C760 1.386 . S
C764 C759 1.490 . S
C764 C766 1.395 . S
C764 C767 1.403 . S
H765 C771 0.930 . S
C766 H752 0.930 . S
C766 C764 1.395 . S
C766 C769 1.403 1_455 S
C767 C764 1.403 . S
C767 C768 1.524 . S
C767 C771 1.400 1_455 S
C768 H753 0.960 . S
C768 H754 0.960 . S
C768 H755 0.960 . S
C768 C767 1.524 . S
C769 C766 1.403 1_655 S
C769 C770 1.392 . S
C769 C773 1.495 . S
C770 C769 1.392 . S
C770 C771 1.385 . S
C770 C772 1.478 . S
C771 H765 0.930 . S
C771 C767 1.400 1_655 S
C771 C770 1.385 . S
C772 C770 1.478 . S
C772 C774 1.381 . S
C772 C778 1.383 . S
C773 C769 1.495 . S
C773 H779 0.959 . S
C773 H780 0.961 . S
C773 H781 0.960 . S
C774 C772 1.381 . S
C774 C775 1.394 . S
C774 H782 0.930 . S
C775 C774 1.394 . S
C775 C776 1.383 . S
C775 H783 0.929 . S
C776 C775 1.383 . S
C776 C777 1.377 . S
C777 H761 0.930 . S
C777 C776 1.377 . S
C777 C778 1.379 . S
C778 H762 0.931 . S
C778 C772 1.383 . S
C778 C777 1.379 . S
H779 C773 0.959 . S
H780 C773 0.961 . S
H781 C773 0.960 . S
H782 C774 0.930 . S
H783 C775 0.929 . S
H784 C792 0.929 . S
H785 C794 0.930 . S
H786 C796 0.930 . S
H787 C799 0.929 . S
H788 C802 0.930 . S
H789 C804 0.960 . S
H790 C804 0.960 . S
H791 C804 0.960 . S
C792 H784 0.929 . S
C792 C793 1.377 . S
C792 C794 1.384 . S
C793 C792 1.377 . S
C793 C799 1.390 . S
C794 H785 0.930 . S
C794 C792 1.384 . S
C794 C795 1.372 . S
C795 C794 1.372 . S
C795 C796 1.400 . S
C795 C800 1.490 . S
C796 H786 0.930 . S
C796 C795 1.400 . S
C796 C799 1.386 . S
H797 C813 0.930 . S
H798 C814 0.931 . S
C799 H787 0.929 . S
C799 C793 1.390 . S
C799 C796 1.386 . S
C800 C795 1.490 . S
C800 C802 1.395 . S
C800 C803 1.403 1_554 S
H801 C807 0.930 . S
C802 H788 0.930 . S
C802 C800 1.395 . S
C802 C805 1.403 . S
C803 C800 1.403 1_556 S
C803 C804 1.524 . S
C803 C807 1.400 . S
C804 H789 0.960 . S
C804 H790 0.960 . S
C804 H791 0.960 . S
C804 C803 1.524 . S
C805 C802 1.403 . S
C805 C806 1.392 1_554 S
C805 C809 1.495 . S
C806 C805 1.392 1_556 S
C806 C807 1.385 . S
C806 C808 1.478 . S
C807 H801 0.930 . S
C807 C803 1.400 . S
C807 C806 1.385 . S
C808 C806 1.478 . S
C808 C810 1.381 . S
C808 C814 1.383 . S
C809 C805 1.495 . S
C809 H815 0.959 . S
C809 H816 0.961 . S
C809 H817 0.960 . S
C810 C808 1.381 . S
C810 C811 1.394 . S
C810 H818 0.930 . S
C811 C810 1.394 . S
C811 C812 1.383 . S
C811 H819 0.929 . S
C812 C811 1.383 . S
C812 C813 1.377 . S
C813 H797 0.930 . S
C813 C812 1.377 . S
C813 C814 1.379 . S
C814 H798 0.931 . S
C814 C808 1.383 . S
C814 C813 1.379 . S
H815 C809 0.959 . S
H816 C809 0.961 . S
H817 C809 0.960 . S
H818 C810 0.930 . S
H819 C811 0.929 . S
H820 C828 0.929 . S
H821 C830 0.930 . S
H822 C832 0.930 . S
H823 C835 0.929 . S
H824 C838 0.930 . S
H825 C840 0.960 . S
H826 C840 0.960 . S
H827 C840 0.960 . S
C828 H820 0.929 . S
C828 C829 1.377 . S
C828 C830 1.384 . S
C829 C828 1.377 . S
C829 C835 1.390 . S
C830 H821 0.930 . S
C830 C828 1.384 . S
C830 C831 1.372 . S
C831 C830 1.372 . S
C831 C832 1.400 . S
C831 C836 1.490 . S
C832 H822 0.930 . S
C832 C831 1.400 . S
C832 C835 1.386 . S
H833 C849 0.930 . S
H834 C850 0.931 . S
C835 H823 0.929 . S
C835 C829 1.390 . S
C835 C832 1.386 . S
C836 C831 1.490 . S
C836 C838 1.395 . S
C836 C839 1.403 . S
H837 C843 0.930 . S
C838 H824 0.930 . S
C838 C836 1.395 . S
C838 C841 1.403 . S
C839 C836 1.403 . S
C839 C840 1.524 . S
C839 C843 1.400 . S
C840 H825 0.960 . S
C840 H826 0.960 . S
C840 H827 0.960 . S
C840 C839 1.524 . S
C841 C838 1.403 . S
C841 C842 1.392 . S
C841 C845 1.495 . S
C842 C841 1.392 . S
C842 C843 1.385 . S
C842 C844 1.478 . S
C843 H837 0.930 . S
C843 C839 1.400 . S
C843 C842 1.385 . S
C844 C842 1.478 . S
C844 C846 1.381 . S
C844 C850 1.383 . S
C845 C841 1.495 . S
C845 H851 0.959 . S
C845 H852 0.961 . S
C845 H853 0.960 . S
C846 C844 1.381 . S
C846 C847 1.394 . S
C846 H854 0.930 . S
C847 C846 1.394 . S
C847 C848 1.383 . S
C847 H855 0.929 . S
C848 C847 1.383 . S
C848 C849 1.377 . S
C849 H833 0.930 . S
C849 C848 1.377 . S
C849 C850 1.379 . S
C850 H834 0.931 . S
C850 C844 1.383 . S
C850 C849 1.379 . S
H851 C845 0.959 . S
H852 C845 0.961 . S
H853 C845 0.960 . S
H854 C846 0.930 . S
H855 C847 0.929 . S
H856 C864 0.929 . S
H857 C866 0.930 . S
H858 C868 0.930 . S
H859 C871 0.929 . S
H860 C874 0.930 . S
H861 C876 0.960 . S
H862 C876 0.960 . S
H863 C876 0.960 . S
C864 H856 0.929 . S
C864 C865 1.377 . S
C864 C866 1.384 . S
C865 C864 1.377 . S
C865 C871 1.390 . S
C866 H857 0.930 . S
C866 C864 1.384 . S
C866 C867 1.372 . S
C867 C866 1.372 . S
C867 C868 1.400 . S
C867 C872 1.490 . S
C868 H858 0.930 . S
C868 C867 1.400 . S
C868 C871 1.386 . S
H869 C885 0.930 . S
H870 C886 0.931 . S
C871 H859 0.929 . S
C871 C865 1.390 . S
C871 C868 1.386 . S
C872 C867 1.490 . S
C872 C874 1.395 . S
C872 C875 1.403 . S
H873 C879 0.930 . S
C874 H860 0.930 . S
C874 C872 1.395 . S
C874 C877 1.403 . S
C875 C872 1.403 . S
C875 C876 1.524 . S
C875 C879 1.400 . S
C876 H861 0.960 . S
C876 H862 0.960 . S
C876 H863 0.960 . S
C876 C875 1.524 . S
C877 C874 1.403 . S
C877 C878 1.392 . S
C877 C881 1.495 . S
C878 C877 1.392 . S
C878 C879 1.385 . S
C878 C880 1.478 . S
C879 H873 0.930 . S
C879 C875 1.400 . S
C879 C878 1.385 . S
C880 C878 1.478 . S
C880 C882 1.381 . S
C880 C886 1.383 . S
C881 C877 1.495 . S
C881 H887 0.959 . S
C881 H888 0.961 . S
C881 H889 0.960 . S
C882 C880 1.381 . S
C882 C883 1.394 . S
C882 H890 0.930 . S
C883 C882 1.394 . S
C883 C884 1.383 . S
C883 H891 0.929 . S
C884 C883 1.383 . S
C884 C885 1.377 . S
C885 H869 0.930 . S
C885 C884 1.377 . S
C885 C886 1.379 . S
C886 H870 0.931 . S
C886 C880 1.383 . S
C886 C885 1.379 . S
H887 C881 0.959 . S
H888 C881 0.961 . S
H889 C881 0.960 . S
H890 C882 0.930 . S
H891 C883 0.929 . S
H892 C900 0.929 . S
H893 C902 0.930 . S
H894 C904 0.930 . S
H895 C907 0.929 . S
H896 C910 0.930 . S
H897 C912 0.960 . S
H898 C912 0.960 . S
H899 C912 0.960 . S
C900 H892 0.929 . S
C900 C901 1.377 . S
C900 C902 1.384 . S
C901 C900 1.377 . S
C901 C907 1.390 . S
C902 H893 0.930 . S
C902 C900 1.384 . S
C902 C903 1.372 . S
C903 C902 1.372 . S
C903 C904 1.400 . S
C903 C908 1.490 . S
C904 H894 0.930 . S
C904 C903 1.400 . S
C904 C907 1.386 . S
H905 C921 0.930 . S
H906 C922 0.931 . S
C907 H895 0.929 . S
C907 C901 1.390 . S
C907 C904 1.386 . S
C908 C903 1.490 . S
C908 C910 1.395 . S
C908 C911 1.403 . S
H909 C915 0.930 . S
C910 H896 0.930 . S
C910 C908 1.395 . S
C910 C913 1.403 . S
C911 C908 1.403 . S
C911 C912 1.524 . S
C911 C915 1.400 . S
C912 H897 0.960 . S
C912 H898 0.960 . S
C912 H899 0.960 . S
C912 C911 1.524 . S
C913 C910 1.403 . S
C913 C914 1.392 . S
C913 C917 1.495 . S
C914 C913 1.392 . S
C914 C915 1.385 . S
C914 C916 1.478 . S
C915 H909 0.930 . S
C915 C911 1.400 . S
C915 C914 1.385 . S
C916 C914 1.478 . S
C916 C918 1.381 . S
C916 C922 1.383 . S
C917 C913 1.495 . S
C917 H923 0.959 . S
C917 H924 0.961 . S
C917 H925 0.960 . S
C918 C916 1.381 . S
C918 C919 1.394 . S
C918 H926 0.930 . S
C919 C918 1.394 . S
C919 C920 1.383 . S
C919 H927 0.929 . S
C920 C919 1.383 . S
C920 C921 1.377 . S
C921 H905 0.930 . S
C921 C920 1.377 . S
C921 C922 1.379 . S
C922 H906 0.931 . S
C922 C916 1.383 . S
C922 C921 1.379 . S
H923 C917 0.959 . S
H924 C917 0.961 . S
H925 C917 0.960 . S
H926 C918 0.930 . S
H927 C919 0.929 . S
H928 C936 0.929 . S
H929 C938 0.930 . S
H930 C940 0.930 . S
H931 C943 0.929 . S
H932 C946 0.930 . S
H933 C948 0.960 . S
H934 C948 0.960 . S
H935 C948 0.960 . S
C936 H928 0.929 . S
C936 C937 1.377 . S
C936 C938 1.384 . S
C937 C936 1.377 . S
C937 C943 1.390 . S
C938 H929 0.930 . S
C938 C936 1.384 . S
C938 C939 1.372 . S
C939 C938 1.372 . S
C939 C940 1.400 . S
C939 C944 1.490 . S
C940 H930 0.930 . S
C940 C939 1.400 . S
C940 C943 1.386 . S
H941 C957 0.930 . S
H942 C958 0.931 . S
C943 H931 0.929 . S
C943 C937 1.390 . S
C943 C940 1.386 . S
C944 C939 1.490 . S
C944 C946 1.395 . S
C944 C947 1.403 1_556 S
H945 C951 0.930 . S
C946 H932 0.930 . S
C946 C944 1.395 . S
C946 C949 1.403 . S
C947 C944 1.403 1_554 S
C947 C948 1.524 . S
C947 C951 1.400 . S
C948 H933 0.960 . S
C948 H934 0.960 . S
C948 H935 0.960 . S
C948 C947 1.524 . S
C949 C946 1.403 . S
C949 C950 1.392 1_556 S
C949 C953 1.495 . S
C950 C949 1.392 1_554 S
C950 C951 1.385 . S
C950 C952 1.478 . S
C951 H945 0.930 . S
C951 C947 1.400 . S
C951 C950 1.385 . S
C952 C950 1.478 . S
C952 C954 1.381 . S
C952 C958 1.383 . S
C953 C949 1.495 . S
C953 H959 0.959 . S
C953 H960 0.961 . S
C953 H961 0.960 . S
C954 C952 1.381 . S
C954 C955 1.394 . S
C954 H962 0.930 . S
C955 C954 1.394 . S
C955 C956 1.383 . S
C955 H963 0.929 . S
C956 C955 1.383 . S
C956 C957 1.377 . S
C957 H941 0.930 . S
C957 C956 1.377 . S
C957 C958 1.379 . S
C958 H942 0.931 . S
C958 C952 1.383 . S
C958 C957 1.379 . S
H959 C953 0.959 . S
H960 C953 0.961 . S
H961 C953 0.960 . S
H962 C954 0.930 . S
H963 C955 0.929 . S
H964 C972 0.929 . S
H965 C974 0.930 . S
H966 C976 0.930 . S
H967 C979 0.929 . S
H968 C982 0.930 . S
H969 C984 0.960 . S
H970 C984 0.960 . S
H971 C984 0.960 . S
C972 H964 0.929 . S
C972 C973 1.377 . S
C972 C974 1.384 . S
C973 C972 1.377 . S
C973 C979 1.390 . S
C974 H965 0.930 . S
C974 C972 1.384 . S
C974 C975 1.372 . S
C975 C974 1.372 . S
C975 C976 1.400 . S
C975 C980 1.490 . S
C976 H966 0.930 . S
C976 C975 1.400 . S
C976 C979 1.386 . S
H977 C993 0.930 . S
H978 C994 0.931 . S
C979 H967 0.929 . S
C979 C973 1.390 . S
C979 C976 1.386 . S
C980 C975 1.490 . S
C980 C982 1.395 . S
C980 C983 1.403 . S
H981 C987 0.930 . S
C982 H968 0.930 . S
C982 C980 1.395 . S
C982 C985 1.403 . S
C983 C980 1.403 . S
C983 C984 1.524 . S
C983 C987 1.400 . S
C984 H969 0.960 . S
C984 H970 0.960 . S
C984 H971 0.960 . S
C984 C983 1.524 . S
C985 C982 1.403 . S
C985 C986 1.392 . S
C985 C989 1.495 . S
C986 C985 1.392 . S
C986 C987 1.385 . S
C986 C988 1.478 . S
C987 H981 0.930 . S
C987 C983 1.400 . S
C987 C986 1.385 . S
C988 C986 1.478 . S
C988 C990 1.381 . S
C988 C994 1.383 . S
C989 C985 1.495 . S
C989 H995 0.959 . S
C989 H996 0.961 . S
C989 H997 0.960 . S
C990 C988 1.381 . S
C990 C991 1.394 . S
C990 H998 0.930 . S
C991 C990 1.394 . S
C991 C992 1.383 . S
C991 H999 0.929 . S
C992 C991 1.383 . S
C992 C993 1.377 . S
C993 H977 0.930 . S
C993 C992 1.377 . S
C993 C994 1.379 . S
C994 H978 0.931 . S
C994 C988 1.383 . S
C994 C993 1.379 . S
H995 C989 0.959 . S
H996 C989 0.961 . S
H997 C989 0.960 . S
H998 C990 0.930 . S
H999 C991 0.929 . S
H1000 C1008 0.929 . S
H1001 C1010 0.930 . S
H1002 C1012 0.930 . S
H1003 C1015 0.929 . S
H1004 C1018 0.930 . S
H1005 C1020 0.960 . S
H1006 C1020 0.960 . S
H1007 C1020 0.960 . S
C1008 H1000 0.929 . S
C1008 C1009 1.377 . S
C1008 C1010 1.384 . S
C1009 C1008 1.377 . S
C1009 C1015 1.390 . S
C1010 H1001 0.930 . S
C1010 C1008 1.384 . S
C1010 C1011 1.372 . S
C1011 C1010 1.372 . S
C1011 C1012 1.400 . S
C1011 C1016 1.490 . S
C1012 H1002 0.930 . S
C1012 C1011 1.400 . S
C1012 C1015 1.386 . S
H1013 C1029 0.930 . S
H1014 C1030 0.931 . S
C1015 H1003 0.929 . S
C1015 C1009 1.390 . S
C1015 C1012 1.386 . S
C1016 C1011 1.490 . S
C1016 C1018 1.395 . S
C1016 C1019 1.403 . S
H1017 C1023 0.930 . S
C1018 H1004 0.930 . S
C1018 C1016 1.395 . S
C1018 C1021 1.403 . S
C1019 C1016 1.403 . S
C1019 C1020 1.524 . S
C1019 C1023 1.400 . S
C1020 H1005 0.960 . S
C1020 H1006 0.960 . S
C1020 H1007 0.960 . S
C1020 C1019 1.524 . S
C1021 C1018 1.403 . S
C1021 C1022 1.392 . S
C1021 C1025 1.495 . S
C1022 C1021 1.392 . S
C1022 C1023 1.385 . S
C1022 C1024 1.478 . S
C1023 H1017 0.930 . S
C1023 C1019 1.400 . S
C1023 C1022 1.385 . S
C1024 C1022 1.478 . S
C1024 C1026 1.381 . S
C1024 C1030 1.383 . S
C1025 C1021 1.495 . S
C1025 H1031 0.959 . S
C1025 H1032 0.961 . S
C1025 H1033 0.960 . S
C1026 C1024 1.381 . S
C1026 C1027 1.394 . S
C1026 H1034 0.930 . S
C1027 C1026 1.394 . S
C1027 C1028 1.383 . S
C1027 H1035 0.929 . S
C1028 C1027 1.383 . S
C1028 C1029 1.377 . S
C1029 H1013 0.930 . S
C1029 C1028 1.377 . S
C1029 C1030 1.379 . S
C1030 H1014 0.931 . S
C1030 C1024 1.383 . S
C1030 C1029 1.379 . S
H1031 C1025 0.959 . S
H1032 C1025 0.961 . S
H1033 C1025 0.960 . S
H1034 C1026 0.930 . S
H1035 C1027 0.929 . S
H1036 C1044 0.929 . S
H1037 C1046 0.930 . S
H1038 C1048 0.930 . S
H1039 C1051 0.929 . S
H1040 C1054 0.930 . S
H1041 C1056 0.960 . S
H1042 C1056 0.960 . S
H1043 C1056 0.960 . S
C1044 H1036 0.929 . S
C1044 C1045 1.377 . S
C1044 C1046 1.384 . S
C1045 C1044 1.377 . S
C1045 C1051 1.390 . S
C1046 H1037 0.930 . S
C1046 C1044 1.384 . S
C1046 C1047 1.372 . S
C1047 C1046 1.372 . S
C1047 C1048 1.400 . S
C1047 C1052 1.490 . S
C1048 H1038 0.930 . S
C1048 C1047 1.400 . S
C1048 C1051 1.386 . S
H1049 C1065 0.930 . S
H1050 C1066 0.931 . S
C1051 H1039 0.929 . S
C1051 C1045 1.390 . S
C1051 C1048 1.386 . S
C1052 C1047 1.490 . S
C1052 C1054 1.395 . S
C1052 C1055 1.403 . S
H1053 C1059 0.930 . S
C1054 H1040 0.930 . S
C1054 C1052 1.395 . S
C1054 C1057 1.403 . S
C1055 C1052 1.403 . S
C1055 C1056 1.524 . S
C1055 C1059 1.400 . S
C1056 H1041 0.960 . S
C1056 H1042 0.960 . S
C1056 H1043 0.960 . S
C1056 C1055 1.524 . S
C1057 C1054 1.403 . S
C1057 C1058 1.392 . S
C1057 C1061 1.495 . S
C1058 C1057 1.392 . S
C1058 C1059 1.385 . S
C1058 C1060 1.478 . S
C1059 H1053 0.930 . S
C1059 C1055 1.400 . S
C1059 C1058 1.385 . S
C1060 C1058 1.478 . S
C1060 C1062 1.381 . S
C1060 C1066 1.383 . S
C1061 C1057 1.495 . S
C1061 H1067 0.959 . S
C1061 H1068 0.961 . S
C1061 H1069 0.960 . S
C1062 C1060 1.381 . S
C1062 C1063 1.394 . S
C1062 H1070 0.930 . S
C1063 C1062 1.394 . S
C1063 C1064 1.383 . S
C1063 H1071 0.929 . S
C1064 C1063 1.383 . S
C1064 C1065 1.377 . S
C1065 H1049 0.930 . S
C1065 C1064 1.377 . S
C1065 C1066 1.379 . S
C1066 H1050 0.931 . S
C1066 C1060 1.383 . S
C1066 C1065 1.379 . S
H1067 C1061 0.959 . S
H1068 C1061 0.961 . S
H1069 C1061 0.960 . S
H1070 C1062 0.930 . S
H1071 C1063 0.929 . S
H1072 C1080 0.929 . S
H1073 C1082 0.930 . S
H1074 C1084 0.930 . S
H1075 C1087 0.929 . S
H1076 C1090 0.930 . S
H1077 C1092 0.960 . S
H1078 C1092 0.960 . S
H1079 C1092 0.960 . S
C1080 H1072 0.929 . S
C1080 C1081 1.377 . S
C1080 C1082 1.384 . S
C1081 C1080 1.377 . S
C1081 C1087 1.390 . S
C1082 H1073 0.930 . S
C1082 C1080 1.384 . S
C1082 C1083 1.372 . S
C1083 C1082 1.372 . S
C1083 C1084 1.400 . S
C1083 C1088 1.490 . S
C1084 H1074 0.930 . S
C1084 C1083 1.400 . S
C1084 C1087 1.386 . S
H1085 C1101 0.930 . S
H1086 C1102 0.931 . S
C1087 H1075 0.929 . S
C1087 C1081 1.390 . S
C1087 C1084 1.386 . S
C1088 C1083 1.490 . S
C1088 C1090 1.395 1_545 S
C1088 C1091 1.403 . S
H1089 C1095 0.929 1_545 S
C1090 H1076 0.930 . S
C1090 C1088 1.395 1_565 S
C1090 C1093 1.403 . S
C1091 C1088 1.403 . S
C1091 C1092 1.524 . S
C1091 C1095 1.366 1_545 S
C1092 H1077 0.960 . S
C1092 H1078 0.960 . S
C1092 H1079 0.960 . S
C1092 C1091 1.524 . S
C1093 C1090 1.403 . S
C1093 C1094 1.392 . S
C1093 C1097 1.495 . S
C1094 C1093 1.392 . S
C1094 C1095 1.421 . S
C1094 C1096 1.478 . S
C1095 H1089 0.929 1_565 S
C1095 C1091 1.366 1_565 S
C1095 C1094 1.421 . S
C1096 C1094 1.478 . S
C1096 C1098 1.381 . S
C1096 C1102 1.383 . S
C1097 C1093 1.495 . S
C1097 H1103 0.959 . S
C1097 H1104 0.961 . S
C1097 H1105 0.960 . S
C1098 C1096 1.381 . S
C1098 C1099 1.394 . S
C1098 H1106 0.930 . S
C1099 C1098 1.394 . S
C1099 C1100 1.383 . S
C1099 H1107 0.929 . S
C1100 C1099 1.383 . S
C1100 C1101 1.377 . S
C1101 H1085 0.930 . S
C1101 C1100 1.377 . S
C1101 C1102 1.379 . S
C1102 H1086 0.931 . S
C1102 C1096 1.383 . S
C1102 C1101 1.379 . S
H1103 C1097 0.959 . S
H1104 C1097 0.961 . S
H1105 C1097 0.960 . S
H1106 C1098 0.930 . S
H1107 C1099 0.929 . S
H1108 C1116 0.929 . S
H1109 C1118 0.930 . S
H1110 C1120 0.930 . S
H1111 C1123 0.929 . S
H1112 C1126 0.930 . S
H1113 C1128 0.960 . S
H1114 C1128 0.960 . S
H1115 C1128 0.960 . S
C1116 H1108 0.929 . S
C1116 C1117 1.377 . S
C1116 C1118 1.384 . S
C1117 C1116 1.377 . S
C1117 C1123 1.390 . S
C1118 H1109 0.930 . S
C1118 C1116 1.384 . S
C1118 C1119 1.372 . S
C1119 C1118 1.372 . S
C1119 C1120 1.400 . S
C1119 C1124 1.490 . S
C1120 H1110 0.930 . S
C1120 C1119 1.400 . S
C1120 C1123 1.386 . S
H1121 C1137 0.930 . S
H1122 C1138 0.931 . S
C1123 H1111 0.929 . S
C1123 C1117 1.390 . S
C1123 C1120 1.386 . S
C1124 C1119 1.490 . S
C1124 C1126 1.395 . S
C1124 C1127 1.403 . S
H1125 C1131 0.930 . S
C1126 H1112 0.930 . S
C1126 C1124 1.395 . S
C1126 C1129 1.403 . S
C1127 C1124 1.403 . S
C1127 C1128 1.524 . S
C1127 C1131 1.400 . S
C1128 H1113 0.960 . S
C1128 H1114 0.960 . S
C1128 H1115 0.960 . S
C1128 C1127 1.524 . S
C1129 C1126 1.403 . S
C1129 C1130 1.392 . S
C1129 C1133 1.495 . S
C1130 C1129 1.392 . S
C1130 C1131 1.385 . S
C1130 C1132 1.478 . S
C1131 H1125 0.930 . S
C1131 C1127 1.400 . S
C1131 C1130 1.385 . S
C1132 C1130 1.478 . S
C1132 C1134 1.381 . S
C1132 C1138 1.383 . S
C1133 C1129 1.495 . S
C1133 H1139 0.959 . S
C1133 H1140 0.961 . S
C1133 H1141 0.960 . S
C1134 C1132 1.381 . S
C1134 C1135 1.394 . S
C1134 H1142 0.930 . S
C1135 C1134 1.394 . S
C1135 C1136 1.383 . S
C1135 H1143 0.929 . S
C1136 C1135 1.383 . S
C1136 C1137 1.377 . S
C1137 H1121 0.930 . S
C1137 C1136 1.377 . S
C1137 C1138 1.379 . S
C1138 H1122 0.931 . S
C1138 C1132 1.383 . S
C1138 C1137 1.379 . S
H1139 C1133 0.959 . S
H1140 C1133 0.961 . S
H1141 C1133 0.960 . S
H1142 C1134 0.930 . S
H1143 C1135 0.929 . S
H1144 C1152 0.929 . S
H1145 C1154 0.930 . S
H1146 C1156 0.930 . S
H1147 C1159 0.929 . S
H1148 C1162 0.930 . S
H1149 C1164 0.960 . S
H1150 C1164 0.960 . S
H1151 C1164 0.960 . S
C1152 H1144 0.929 . S
C1152 C1153 1.377 . S
C1152 C1154 1.384 . S
C1153 C1152 1.377 . S
C1153 C1159 1.390 . S
C1154 H1145 0.930 . S
C1154 C1152 1.384 . S
C1154 C1155 1.372 . S
C1155 C1154 1.372 . S
C1155 C1156 1.400 . S
C1155 C1160 1.490 . S
C1156 H1146 0.930 . S
C1156 C1155 1.400 . S
C1156 C1159 1.386 . S
H1157 C1173 0.930 . S
H1158 C1174 0.931 . S
C1159 H1147 0.929 . S
C1159 C1153 1.390 . S
C1159 C1156 1.386 . S
C1160 C1155 1.490 . S
C1160 C1162 1.395 1_545 S
C1160 C1163 1.403 1_556 S
H1161 C1167 0.929 1_545 S
C1162 H1148 0.930 . S
C1162 C1160 1.395 1_565 S
C1162 C1165 1.403 . S
C1163 C1160 1.403 1_554 S
C1163 C1164 1.524 . S
C1163 C1167 1.381 1_545 S
C1164 H1149 0.960 . S
C1164 H1150 0.960 . S
C1164 H1151 0.960 . S
C1164 C1163 1.524 . S
C1165 C1162 1.403 . S
C1165 C1166 1.392 1_556 S
C1165 C1169 1.495 . S
C1166 C1165 1.392 1_554 S
C1166 C1167 1.405 . S
C1166 C1168 1.478 . S
C1167 H1161 0.929 1_565 S
C1167 C1163 1.381 1_565 S
C1167 C1166 1.405 . S
C1168 C1166 1.478 . S
C1168 C1170 1.381 . S
C1168 C1174 1.383 . S
C1169 C1165 1.495 . S
C1169 H1175 0.959 . S
C1169 H1176 0.961 . S
C1169 H1177 0.960 . S
C1170 C1168 1.381 . S
C1170 C1171 1.394 . S
C1170 H1178 0.930 . S
C1171 C1170 1.394 . S
C1171 C1172 1.383 . S
C1171 H1179 0.929 . S
C1172 C1171 1.383 . S
C1172 C1173 1.377 . S
C1173 H1157 0.930 . S
C1173 C1172 1.377 . S
C1173 C1174 1.379 . S
C1174 H1158 0.931 . S
C1174 C1168 1.383 . S
C1174 C1173 1.379 . S
H1175 C1169 0.959 . S
H1176 C1169 0.961 . S
H1177 C1169 0.960 . S
H1178 C1170 0.930 . S
H1179 C1171 0.929 . S
H1180 C1188 0.929 . S
H1181 C1190 0.930 . S
H1182 C1192 0.930 . S
H1183 C1195 0.929 . S
H1184 C1198 0.930 . S
H1185 C1200 0.960 . S
H1186 C1200 0.960 . S
H1187 C1200 0.960 . S
C1188 H1180 0.929 . S
C1188 C1189 1.377 . S
C1188 C1190 1.384 . S
C1189 C1188 1.377 . S
C1189 C1195 1.390 . S
C1190 H1181 0.930 . S
C1190 C1188 1.384 . S
C1190 C1191 1.372 . S
C1191 C1190 1.372 . S
C1191 C1192 1.400 . S
C1191 C1196 1.490 . S
C1192 H1182 0.930 . S
C1192 C1191 1.400 . S
C1192 C1195 1.386 . S
H1193 C1209 0.930 . S
H1194 C1210 0.931 . S
C1195 H1183 0.929 . S
C1195 C1189 1.390 . S
C1195 C1192 1.386 . S
C1196 C1191 1.490 . S
C1196 C1198 1.395 . S
C1196 C1199 1.403 . S
H1197 C1203 0.930 . S
C1198 H1184 0.930 . S
C1198 C1196 1.395 . S
C1198 C1201 1.403 . S
C1199 C1196 1.403 . S
C1199 C1200 1.524 . S
C1199 C1203 1.400 . S
C1200 H1185 0.960 . S
C1200 H1186 0.960 . S
C1200 H1187 0.960 . S
C1200 C1199 1.524 . S
C1201 C1198 1.403 . S
C1201 C1202 1.392 . S
C1201 C1205 1.495 . S
C1202 C1201 1.392 . S
C1202 C1203 1.385 . S
C1202 C1204 1.478 . S
C1203 H1197 0.930 . S
C1203 C1199 1.400 . S
C1203 C1202 1.385 . S
C1204 C1202 1.478 . S
C1204 C1206 1.381 . S
C1204 C1210 1.383 . S
C1205 C1201 1.495 . S
C1205 H1211 0.959 . S
C1205 H1212 0.961 . S
C1205 H1213 0.960 . S
C1206 C1204 1.381 . S
C1206 C1207 1.394 . S
C1206 H1214 0.930 . S
C1207 C1206 1.394 . S
C1207 C1208 1.383 . S
C1207 H1215 0.929 . S
C1208 C1207 1.383 . S
C1208 C1209 1.377 . S
C1209 H1193 0.930 . S
C1209 C1208 1.377 . S
C1209 C1210 1.379 . S
C1210 H1194 0.931 . S
C1210 C1204 1.383 . S
C1210 C1209 1.379 . S
H1211 C1205 0.959 . S
H1212 C1205 0.961 . S
H1213 C1205 0.960 . S
H1214 C1206 0.930 . S
H1215 C1207 0.929 . S
H1216 C1224 0.929 . S
H1217 C1226 0.930 . S
H1218 C1228 0.930 . S
H1219 C1231 0.929 . S
H1220 C1234 0.930 . S
H1221 C1236 0.960 . S
H1222 C1236 0.960 . S
H1223 C1236 0.960 . S
C1224 H1216 0.929 . S
C1224 C1225 1.377 . S
C1224 C1226 1.384 . S
C1225 C1224 1.377 . S
C1225 C1231 1.390 . S
C1226 H1217 0.930 . S
C1226 C1224 1.384 . S
C1226 C1227 1.372 . S
C1227 C1226 1.372 . S
C1227 C1228 1.400 . S
C1227 C1232 1.490 . S
C1228 H1218 0.930 . S
C1228 C1227 1.400 . S
C1228 C1231 1.386 . S
H1229 C1245 0.930 . S
H1230 C1246 0.931 . S
C1231 H1219 0.929 . S
C1231 C1225 1.390 . S
C1231 C1228 1.386 . S
C1232 C1227 1.490 . S
C1232 C1234 1.395 . S
C1232 C1235 1.403 1_545 S
H1233 C1239 0.930 . S
C1234 H1220 0.930 . S
C1234 C1232 1.395 . S
C1234 C1237 1.403 . S
C1235 C1232 1.403 1_565 S
C1235 C1236 1.524 . S
C1235 C1239 1.400 . S
C1236 H1221 0.960 . S
C1236 H1222 0.960 . S
C1236 H1223 0.960 . S
C1236 C1235 1.524 . S
C1237 C1234 1.403 . S
C1237 C1238 1.392 1_545 S
C1237 C1241 1.495 . S
C1238 C1237 1.392 1_565 S
C1238 C1239 1.385 . S
C1238 C1240 1.478 . S
C1239 H1233 0.930 . S
C1239 C1235 1.400 . S
C1239 C1238 1.385 . S
C1240 C1238 1.478 . S
C1240 C1242 1.381 . S
C1240 C1246 1.383 . S
C1241 C1237 1.495 . S
C1241 H1247 0.959 . S
C1241 H1248 0.961 . S
C1241 H1249 0.960 . S
C1242 C1240 1.381 . S
C1242 C1243 1.394 . S
C1242 H1250 0.930 . S
C1243 C1242 1.394 . S
C1243 C1244 1.383 . S
C1243 H1251 0.929 . S
C1244 C1243 1.383 . S
C1244 C1245 1.377 . S
C1245 H1229 0.930 . S
C1245 C1244 1.377 . S
C1245 C1246 1.379 . S
C1246 H1230 0.931 . S
C1246 C1240 1.383 . S
C1246 C1245 1.379 . S
H1247 C1241 0.959 . S
H1248 C1241 0.961 . S
H1249 C1241 0.960 . S
H1250 C1242 0.930 . S
H1251 C1243 0.929 . S
H1252 C1260 0.929 . S
H1253 C1262 0.930 . S
H1254 C1264 0.930 . S
H1255 C1267 0.929 . S
H1256 C1270 0.930 . S
H1257 C1272 0.960 . S
H1258 C1272 0.960 . S
H1259 C1272 0.960 . S
C1260 H1252 0.929 . S
C1260 C1261 1.377 . S
C1260 C1262 1.384 . S
C1261 C1260 1.377 . S
C1261 C1267 1.390 . S
C1262 H1253 0.930 . S
C1262 C1260 1.384 . S
C1262 C1263 1.372 . S
C1263 C1262 1.372 . S
C1263 C1264 1.400 . S
C1263 C1268 1.490 . S
C1264 H1254 0.930 . S
C1264 C1263 1.400 . S
C1264 C1267 1.386 . S
H1265 C1281 0.930 . S
H1266 C1282 0.931 . S
C1267 H1255 0.929 . S
C1267 C1261 1.390 . S
C1267 C1264 1.386 . S
C1268 C1263 1.490 . S
C1268 C1270 1.395 . S
C1268 C1271 1.403 . S
H1269 C1275 0.930 . S
C1270 H1256 0.930 . S
C1270 C1268 1.395 . S
C1270 C1273 1.403 . S
C1271 C1268 1.403 . S
C1271 C1272 1.524 . S
C1271 C1275 1.400 . S
C1272 H1257 0.960 . S
C1272 H1258 0.960 . S
C1272 H1259 0.960 . S
C1272 C1271 1.524 . S
C1273 C1270 1.403 . S
C1273 C1274 1.392 . S
C1273 C1277 1.495 . S
C1274 C1273 1.392 . S
C1274 C1275 1.385 . S
C1274 C1276 1.478 . S
C1275 H1269 0.930 . S
C1275 C1271 1.400 . S
C1275 C1274 1.385 . S
C1276 C1274 1.478 . S
C1276 C1278 1.381 . S
C1276 C1282 1.383 . S
C1277 C1273 1.495 . S
C1277 H1283 0.959 . S
C1277 H1284 0.961 . S
C1277 H1285 0.960 . S
C1278 C1276 1.381 . S
C1278 C1279 1.394 . S
C1278 H1286 0.930 . S
C1279 C1278 1.394 . S
C1279 C1280 1.383 . S
C1279 H1287 0.929 . S
C1280 C1279 1.383 . S
C1280 C1281 1.377 . S
C1281 H1265 0.930 . S
C1281 C1280 1.377 . S
C1281 C1282 1.379 . S
C1282 H1266 0.931 . S
C1282 C1276 1.383 . S
C1282 C1281 1.379 . S
H1283 C1277 0.959 . S
H1284 C1277 0.961 . S
H1285 C1277 0.960 . S
H1286 C1278 0.930 . S
H1287 C1279 0.929 . S
H1288 C1296 0.929 . S
H1289 C1298 0.930 . S
H1290 C1300 0.930 . S
H1291 C1303 0.929 . S
H1292 C1306 0.929 1_565 S
H1293 C1308 0.960 . S
H1294 C1308 0.960 . S
H1295 C1308 0.960 . S
C1296 H1288 0.929 . S
C1296 C1297 1.377 . S
C1296 C1298 1.384 . S
C1297 C1296 1.377 . S
C1297 C1303 1.390 . S
C1298 H1289 0.930 . S
C1298 C1296 1.384 . S
C1298 C1299 1.372 . S
C1299 C1298 1.372 . S
C1299 C1300 1.400 . S
C1299 C1304 1.490 . S
C1300 H1290 0.930 . S
C1300 C1299 1.400 . S
C1300 C1303 1.386 . S
H1301 C1317 0.930 . S
H1302 C1318 0.931 . S
C1303 H1291 0.929 . S
C1303 C1297 1.390 . S
C1303 C1300 1.386 . S
C1304 C1299 1.490 . S
C1304 C1306 1.396 1_565 S
C1304 C1307 1.403 1_554 S
H1305 C1311 0.930 . S
C1306 H1292 0.929 1_545 S
C1306 C1304 1.396 1_545 S
C1306 C1309 1.402 . S
C1307 C1304 1.403 1_556 S
C1307 C1308 1.524 . S
C1307 C1311 1.400 1_565 S
C1308 H1293 0.960 . S
C1308 H1294 0.960 . S
C1308 H1295 0.960 . S
C1308 C1307 1.524 . S
C1309 C1306 1.402 . S
C1309 C1310 1.392 1_554 S
C1309 C1313 1.495 . S
C1310 C1309 1.392 1_556 S
C1310 C1311 1.385 . S
C1310 C1312 1.478 . S
C1311 H1305 0.930 . S
C1311 C1307 1.400 1_545 S
C1311 C1310 1.385 . S
C1312 C1310 1.478 . S
C1312 C1314 1.381 . S
C1312 C1318 1.383 . S
C1313 C1309 1.495 . S
C1313 H1319 0.959 . S
C1313 H1320 0.961 . S
C1313 H1321 0.960 . S
C1314 C1312 1.381 . S
C1314 C1315 1.394 . S
C1314 H1322 0.930 . S
C1315 C1314 1.394 . S
C1315 C1316 1.383 . S
C1315 H1323 0.929 . S
C1316 C1315 1.383 . S
C1316 C1317 1.377 . S
C1317 H1301 0.930 . S
C1317 C1316 1.377 . S
C1317 C1318 1.379 . S
C1318 H1302 0.931 . S
C1318 C1312 1.383 . S
C1318 C1317 1.379 . S
H1319 C1313 0.959 . S
H1320 C1313 0.961 . S
H1321 C1313 0.960 . S
H1322 C1314 0.930 . S
H1323 C1315 0.929 . S
H1324 C1332 0.929 . S
H1325 C1334 0.930 . S
H1326 C1336 0.930 . S
H1327 C1339 0.929 . S
H1328 C1342 0.930 . S
H1329 C1344 0.960 . S
H1330 C1344 0.960 . S
H1331 C1344 0.960 . S
C1332 H1324 0.929 . S
C1332 C1333 1.377 . S
C1332 C1334 1.384 . S
C1333 C1332 1.377 . S
C1333 C1339 1.390 . S
C1334 H1325 0.930 . S
C1334 C1332 1.384 . S
C1334 C1335 1.372 . S
C1335 C1334 1.372 . S
C1335 C1336 1.400 . S
C1335 C1340 1.490 . S
C1336 H1326 0.930 . S
C1336 C1335 1.400 . S
C1336 C1339 1.386 . S
H1337 C1353 0.930 . S
H1338 C1354 0.931 . S
C1339 H1327 0.929 . S
C1339 C1333 1.390 . S
C1339 C1336 1.386 . S
C1340 C1335 1.490 . S
C1340 C1342 1.395 . S
C1340 C1343 1.403 . S
H1341 C1347 0.930 . S
C1342 H1328 0.930 . S
C1342 C1340 1.395 . S
C1342 C1345 1.403 . S
C1343 C1340 1.403 . S
C1343 C1344 1.524 . S
C1343 C1347 1.400 . S
C1344 H1329 0.960 . S
C1344 H1330 0.960 . S
C1344 H1331 0.960 . S
C1344 C1343 1.524 . S
C1345 C1342 1.403 . S
C1345 C1346 1.392 . S
C1345 C1349 1.495 . S
C1346 C1345 1.392 . S
C1346 C1347 1.385 . S
C1346 C1348 1.478 . S
C1347 H1341 0.930 . S
C1347 C1343 1.400 . S
C1347 C1346 1.385 . S
C1348 C1346 1.478 . S
C1348 C1350 1.381 . S
C1348 C1354 1.383 . S
C1349 C1345 1.495 . S
C1349 H1355 0.959 . S
C1349 H1356 0.961 . S
C1349 H1357 0.960 . S
C1350 C1348 1.381 . S
C1350 C1351 1.394 . S
C1350 H1358 0.930 . S
C1351 C1350 1.394 . S
C1351 C1352 1.383 . S
C1351 H1359 0.929 . S
C1352 C1351 1.383 . S
C1352 C1353 1.377 . S
C1353 H1337 0.930 . S
C1353 C1352 1.377 . S
C1353 C1354 1.379 . S
C1354 H1338 0.931 . S
C1354 C1348 1.383 . S
C1354 C1353 1.379 . S
H1355 C1349 0.959 . S
H1356 C1349 0.961 . S
H1357 C1349 0.960 . S
H1358 C1350 0.930 . S
H1359 C1351 0.929 . S
C217 C148 1.451 . S
C236 C4 1.454 . S
C253 C199 1.460 . S
C272 C18 1.450 . S
C289 C29 1.453 . S
C308 C127 1.447 . S
C325 C179 1.447 . S
C344 C49 1.451 . S
C361 C62 1.455 . S
C380 C174 1.440 . S
C397 C70 1.460 . S
C416 C153 1.456 . S
C433 C81 1.464 . S
C452 C198 1.463 . S
C469 C101 1.458 . S
C488 C122 1.463 . S
C505 C44 1.457 . S
C524 C107 1.463 . S
C541 C135 1.460 . S
C560 C23 1.453 . S
C577 C160 1.448 . S
C596 C75 1.450 . S
C613 C187 1.455 . S
C632 C96 1.458 . S
C649 C57 1.449 . S
C668 C108 1.453 . S
C685 C140 1.452 . S
C704 C82 1.454 . S
C721 C192 1.454 . S
C740 C30 1.458 . S
C757 C3 1.465 . S
C776 C159 1.462 . S
C793 C5 1.373 . S
C812 C55 1.373 . S
C829 C17 1.350 . S
C848 C69 1.346 . S
C865 C36 1.354 . S
C884 C88 1.350 . S
C901 C94 1.366 . S
C920 C42 1.360 . S
C937 C114 1.353 . S
C956 C161 1.356 . S
C973 C172 1.357 . S
C992 C121 1.350 . S
C1009 C134 1.360 . S
C1028 C186 1.358 . S
C1045 C200 1.372 . S
C1064 C146 1.367 . S
C1081 C95 1.362 . S
C1100 C16 1.362 . S
C1117 C31 1.361 . S
C1136 C56 1.363 . S
C1153 C43 1.368 . S
C1172 C68 1.367 . S
C1189 C10 1.355 . S
C1208 C83 1.354 . S
C1225 C120 1.366 . S
C1244 C205 1.360 . S
C1261 C166 1.364 . S
C1280 C133 1.368 . S
C1297 C147 1.349 . S
C1316 C173 1.344 . S
C1333 C185 1.361 . S
C1352 C109 1.357 . S
