# Generated by pormake.
# Topology hjm, (4)-cn, num edge types: 1
# Building blocks:
#     Node 0, Type 0, BuildingBlock: KUFVIS_clean_sbu_0, # of connection points: 4
#     Node 1, Type 0, BuildingBlock: KUFVIS_clean_sbu_0, # of connection points: 4
#     Node 2, Type 0, BuildingBlock: KUFVIS_clean_sbu_0, # of connection points: 4
#     Node 3, Type 0, BuildingBlock: KUFVIS_clean_sbu_0, # of connection points: 4
#     Node 4, Type 0, BuildingBlock: KUFVIS_clean_sbu_0, # of connection points: 4
#     Node 5, Type 0, BuildingBlock: KUFVIS_clean_sbu_0, # of connection points: 4
#     Node 6, Type 0, BuildingBlock: KUFVIS_clean_sbu_0, # of connection points: 4
#     Node 7, Type 0, BuildingBlock: KUFVIS_clean_sbu_0, # of connection points: 4
#     Edge 8, Type (0, 0), BuildingBlock: ZUJKAS_clean_linker_0, # of connection points: 2
#     Edge 9, Type (0, 0), BuildingBlock: ZUJKAS_clean_linker_0, # of connection points: 2
#     Edge 10, Type (0, 0), BuildingBlock: ZUJKAS_clean_linker_0, # of connection points: 2
#     Edge 11, Type (0, 0), BuildingBlock: ZUJKAS_clean_linker_0, # of connection points: 2
#     Edge 12, Type (0, 0), BuildingBlock: ZUJKAS_clean_linker_0, # of connection points: 2
#     Edge 13, Type (0, 0), BuildingBlock: ZUJKAS_clean_linker_0, # of connection points: 2
#     Edge 14, Type (0, 0), BuildingBlock: ZUJKAS_clean_linker_0, # of connection points: 2
#     Edge 15, Type (0, 0), BuildingBlock: ZUJKAS_clean_linker_0, # of connection points: 2
#     Edge 16, Type (0, 0), BuildingBlock: ZUJKAS_clean_linker_0, # of connection points: 2
#     Edge 17, Type (0, 0), BuildingBlock: ZUJKAS_clean_linker_0, # of connection points: 2
#     Edge 18, Type (0, 0), BuildingBlock: ZUJKAS_clean_linker_0, # of connection points: 2
#     Edge 19, Type (0, 0), BuildingBlock: ZUJKAS_clean_linker_0, # of connection points: 2
#     Edge 20, Type (0, 0), BuildingBlock: ZUJKAS_clean_linker_0, # of connection points: 2
#     Edge 21, Type (0, 0), BuildingBlock: ZUJKAS_clean_linker_0, # of connection points: 2
#     Edge 22, Type (0, 0), BuildingBlock: ZUJKAS_clean_linker_0, # of connection points: 2
#     Edge 23, Type (0, 0), BuildingBlock: ZUJKAS_clean_linker_0, # of connection points: 2
# Relax obj value: 0.063
# Max RMSD: 0.110
# Mean RMSD: 0.110
data_MOF--net-hjm--node1-KUFVIS_clean_sbu_0--edge1-ZUJKAS_clean_linker_0
_symmetry_space_group_name_H-M    P1
_symmetry_Int_Tables_number       1
_symmetry_cell_setting            triclinic
loop_
_symmetry_equiv_pos_as_xyz
'x, y, z'
_cell_length_a     34.634243
_cell_length_b     29.904577
_cell_length_c     33.464586
_cell_angle_alpha  90.01094
_cell_angle_beta   57.495987
_cell_angle_gamma 90.116453
loop_
_atom_site_label
_atom_site_type_symbol
_atom_site_fract_x
_atom_site_fract_y
_atom_site_fract_z
_atom_type_partial_charge
Mn0 Mn 0.19166 0.26136 0.33004 0.0
Mn1 Mn 0.22138 0.36256 0.27601 0.0
C2 C 0.15874 0.32636 0.37342 0.0
C3 C 0.14693 0.1962 0.35838 0.0
C4 C 0.28337 0.30859 0.29558 0.0
O5 O 0.21816 0.24547 0.26034 0.0
O6 O 0.23442 0.31522 0.22908 0.0
C7 C 0.15377 0.36991 0.24797 0.0
N8 N 0.17303 0.38673 0.27115 0.0
C9 C 0.1264 0.45288 0.29357 0.0
C10 C 0.10608 0.43628 0.26989 0.0
C11 C 0.11974 0.39456 0.24712 0.0
C12 C 0.16004 0.42677 0.2933 0.0
H13 H 0.16431 0.33793 0.2303 0.0
C14 C 0.23275 0.27271 0.22552 0.0
O15 O 0.18856 0.19771 0.34849 0.0
O16 O 0.13155 0.23225 0.3499 0.0
N17 N 0.21006 0.4114 0.31778 0.0
C18 C 0.23129 0.42142 0.34112 0.0
C19 C 0.22169 0.46213 0.36554 0.0
C20 C 0.1905 0.49209 0.36559 0.0
C21 C 0.16832 0.48062 0.34219 0.0
C22 C 0.17988 0.43995 0.31776 0.0
H23 H 0.25581 0.39878 0.34059 0.0
O24 O 0.16137 0.29072 0.39402 0.0
O25 O 0.177 0.3234 0.32801 0.0
O26 O 0.25562 0.27621 0.31617 0.0
O27 O 0.27394 0.34223 0.279 0.0
C28 C 0.13515 0.50787 0.34224 0.0
C29 C 0.11402 0.49389 0.31816 0.0
H30 H 0.07975 0.45514 0.26924 0.0
H31 H 0.10413 0.38149 0.22889 0.0
H32 H 0.23859 0.47058 0.38391 0.0
H33 H 0.18353 0.52366 0.3841 0.0
H34 H 0.12526 0.53937 0.36114 0.0
H35 H 0.08808 0.5148 0.31903 0.0
Mn36 Mn 0.82293 0.25544 0.18919 0.0
Mn37 Mn 0.79762 0.35546 0.24507 0.0
C38 C 0.85411 0.32104 0.14648 0.0
C39 C 0.86696 0.19049 0.15822 0.0
C40 C 0.7308 0.30336 0.23061 0.0
O41 O 0.79984 0.23796 0.25768 0.0
O42 O 0.78827 0.30707 0.28987 0.0
C43 C 0.87142 0.36081 0.26458 0.0
N44 N 0.84934 0.37849 0.24471 0.0
C45 C 0.89778 0.44369 0.21864 0.0
C46 C 0.92096 0.42621 0.23893 0.0
C47 C 0.90781 0.38451 0.26185 0.0
C48 C 0.86191 0.41845 0.22231 0.0
H49 H 0.86129 0.32891 0.28241 0.0
C50 C 0.78902 0.26437 0.29225 0.0
O51 O 0.82468 0.19219 0.17007 0.0
O52 O 0.88346 0.22622 0.16589 0.0
N53 N 0.8062 0.40513 0.205 0.0
C54 C 0.78209 0.41606 0.18496 0.0
C55 C 0.79172 0.45638 0.15978 0.0
C56 C 0.82566 0.48521 0.15587 0.0
C57 C 0.85 0.47326 0.17681 0.0
C58 C 0.83889 0.43267 0.20149 0.0
H59 H 0.75567 0.39423 0.18822 0.0
O60 O 0.85025 0.28594 0.12601 0.0
O61 O 0.83873 0.31696 0.19117 0.0
O62 O 0.75799 0.27142 0.20733 0.0
O63 O 0.74192 0.33591 0.24713 0.0
C64 C 0.88508 0.49985 0.1739 0.0
C65 C 0.90919 0.48492 0.19447 0.0
H66 H 0.94904 0.4444 0.2369 0.0
H67 H 0.92559 0.37074 0.2775 0.0
H68 H 0.77287 0.46532 0.1436 0.0
H69 H 0.83287 0.51633 0.13652 0.0
H70 H 0.89416 0.53162 0.15547 0.0
H71 H 0.93662 0.50529 0.19125 0.0
Mn72 Mn 0.80405 0.75637 0.69359 0.0
Mn73 Mn 0.90376 0.73434 0.68581 0.0
C74 C 0.81118 0.7687 0.75817 0.0
C75 C 0.73151 0.73741 0.70865 0.0
C76 C 0.89038 0.81552 0.64054 0.0
O77 O 0.83583 0.71338 0.63735 0.0
O78 O 0.90061 0.70118 0.63651 0.0
C79 C 0.88953 0.6382 0.71116 0.0
N80 N 0.89904 0.68042 0.71872 0.0
C81 C 0.91638 0.65403 0.77523 0.0
C82 C 0.90681 0.61023 0.76808 0.0
C83 C 0.89294 0.60234 0.73619 0.0
C84 C 0.91135 0.68849 0.75011 0.0
H85 H 0.87979 0.63191 0.68597 0.0
C86 C 0.87476 0.69476 0.62059 0.0
O87 O 0.75563 0.76993 0.68064 0.0
O88 O 0.74967 0.71516 0.7279 0.0
N89 N 0.9116 0.76358 0.73178 0.0
C90 C 0.91686 0.80801 0.73664 0.0
C91 C 0.92925 0.8218 0.76839 0.0
C92 C 0.93725 0.78974 0.79382 0.0
C93 C 0.93184 0.74419 0.78799 0.0
C94 C 0.91832 0.73254 0.75678 0.0
H95 H 0.91201 0.83265 0.71613 0.0
O96 O 0.78117 0.79054 0.75391 0.0
O97 O 0.8367 0.74093 0.72423 0.0
O98 O 0.84901 0.80691 0.65421 0.0
O99 O 0.91371 0.79063 0.65076 0.0
C100 C 0.93956 0.70983 0.8117 0.0
C101 C 0.93114 0.66485 0.80593 0.0
H102 H 0.91001 0.58242 0.78684 0.0
H103 H 0.88551 0.56863 0.73045 0.0
H104 H 0.9334 0.85701 0.77265 0.0
H105 H 0.94744 0.80046 0.81777 0.0
H106 H 0.9511 0.71771 0.83524 0.0
H107 H 0.9361 0.63886 0.82528 0.0
Mn108 Mn 0.20691 0.75566 0.81625 0.0
Mn109 Mn 0.11924 0.74971 0.79908 0.0
C110 C 0.21701 0.77771 0.74404 0.0
C111 C 0.27183 0.72791 0.81317 0.0
C112 C 0.1246 0.8191 0.86204 0.0
O113 O 0.16298 0.71062 0.86738 0.0
O114 O 0.11009 0.70641 0.84776 0.0
C115 C 0.13172 0.65834 0.76004 0.0
N116 N 0.12909 0.70329 0.75538 0.0
C117 C 0.12939 0.69344 0.68388 0.0
C118 C 0.13181 0.64701 0.68807 0.0
C119 C 0.13345 0.62943 0.72606 0.0
C120 C 0.12858 0.72061 0.71837 0.0
H121 H 0.13194 0.64465 0.78978 0.0
C122 C 0.1266 0.6938 0.87216 0.0
O123 O 0.24659 0.75916 0.84235 0.0
O124 O 0.25822 0.71094 0.78698 0.0
N125 N 0.12441 0.78994 0.75201 0.0
C126 C 0.12004 0.83531 0.75424 0.0
C127 C 0.11876 0.8582 0.71832 0.0
C128 C 0.12104 0.83417 0.68104 0.0
C129 C 0.12442 0.78742 0.68011 0.0
C130 C 0.12605 0.76647 0.7166 0.0
H131 H 0.1174 0.8539 0.78327 0.0
O132 O 0.24328 0.79347 0.75742 0.0
O133 O 0.18514 0.75079 0.77382 0.0
O134 O 0.16379 0.80761 0.85321 0.0
O135 O 0.10464 0.79899 0.84441 0.0
C136 C 0.12569 0.76076 0.6447 0.0
C137 C 0.12792 0.7138 0.64674 0.0
H138 H 0.13273 0.62458 0.66215 0.0
H139 H 0.13544 0.59365 0.72946 0.0
H140 H 0.11567 0.89425 0.71957 0.0
H141 H 0.11977 0.85192 0.65356 0.0
H142 H 0.12465 0.77602 0.61594 0.0
H143 H 0.12868 0.69364 0.61942 0.0
Mn144 Mn 0.68712 0.76344 0.32916 0.0
Mn145 Mn 0.70814 0.87049 0.29003 0.0
C146 C 0.6521 0.82277 0.3816 0.0
C147 C 0.64572 0.69616 0.3511 0.0
C148 C 0.7768 0.81358 0.29681 0.0
O149 O 0.71152 0.75645 0.25822 0.0
O150 O 0.72057 0.82959 0.23803 0.0
C151 C 0.63587 0.88249 0.26908 0.0
N152 N 0.6562 0.89561 0.29249 0.0
C153 C 0.60509 0.95825 0.32719 0.0
C154 C 0.5837 0.94548 0.30334 0.0
C155 C 0.59906 0.90735 0.27429 0.0
C156 C 0.64158 0.93216 0.32066 0.0
H157 H 0.64764 0.8533 0.2466 0.0
C158 C 0.72137 0.78803 0.22819 0.0
O159 O 0.6881 0.69794 0.33888 0.0
O160 O 0.62789 0.73318 0.34801 0.0
N161 N 0.6962 0.91321 0.33794 0.0
C162 C 0.71827 0.91902 0.36116 0.0
C163 C 0.70581 0.95475 0.39304 0.0
C164 C 0.6711 0.98431 0.40038 0.0
C165 C 0.6489 0.97767 0.37605 0.0
C166 C 0.66279 0.9415 0.34472 0.0
H167 H 0.74515 0.89654 0.35543 0.0
O168 O 0.65779 0.78482 0.39658 0.0
O169 O 0.66845 0.82521 0.33662 0.0
O170 O 0.75121 0.77924 0.31408 0.0
O171 O 0.76416 0.84921 0.28609 0.0
C172 C 0.61312 1.00516 0.38212 0.0
C173 C 0.59108 0.99533 0.35789 0.0
H174 H 0.55522 0.96448 0.30737 0.0
H175 H 0.58262 0.89719 0.2559 0.0
H176 H 0.72299 0.95956 0.41181 0.0
H177 H 0.66157 0.0118 0.42503 0.0
H178 H 0.60182 0.03356 0.40587 0.0
H179 H 0.56303 0.0162 0.36358 0.0
Mn180 Mn 0.31892 0.76848 0.1906 0.0
Mn181 Mn 0.28276 0.86091 0.25967 0.0
C182 C 0.34599 0.83913 0.15758 0.0
C183 C 0.36722 0.70704 0.15253 0.0
C184 C 0.22446 0.81242 0.23137 0.0
O185 O 0.29535 0.74247 0.25651 0.0
O186 O 0.2715 0.80675 0.29819 0.0
C187 C 0.34765 0.85967 0.2916 0.0
N188 N 0.32849 0.88143 0.27066 0.0
C189 C 0.36421 0.95076 0.26978 0.0
C190 C 0.38448 0.92913 0.29118 0.0
C191 C 0.37645 0.88328 0.30178 0.0
C192 C 0.33684 0.92522 0.25932 0.0
H193 H 0.34062 0.82473 0.3009 0.0
C194 C 0.2774 0.76441 0.29529 0.0
O195 O 0.32543 0.70813 0.16295 0.0
O196 O 0.38111 0.7415 0.16526 0.0
N197 N 0.29184 0.91639 0.22751 0.0
C198 C 0.27148 0.93157 0.20484 0.0
C199 C 0.27685 0.97659 0.19087 0.0
C200 C 0.30193 1.00572 0.20161 0.0
C201 C 0.32247 0.98926 0.22509 0.0
C202 C 0.31704 0.94385 0.23687 0.0
H203 H 0.25088 0.90959 0.19801 0.0
O204 O 0.34538 0.80657 0.13221 0.0
O205 O 0.32983 0.82987 0.20177 0.0
O206 O 0.25338 0.78168 0.20801 0.0
O207 O 0.23242 0.84406 0.25143 0.0
C208 C 0.34786 0.01615 0.23758 0.0
C209 C 0.3694 0.99679 0.25913 0.0
H210 H 0.4061 0.94741 0.29981 0.0
H211 H 0.39179 0.86637 0.3185 0.0
H212 H 0.26093 0.98904 0.17274 0.0
H213 H 0.30535 0.0406 0.1915 0.0
H214 H 0.35185 0.05164 0.22986 0.0
H215 H 0.38974 0.01764 0.26749 0.0
Mn216 Mn 0.30587 0.26202 0.69734 0.0
Mn217 Mn 0.40168 0.24468 0.6986 0.0
C218 C 0.30701 0.27708 0.76494 0.0
C219 C 0.2355 0.24017 0.70882 0.0
C220 C 0.39172 0.32126 0.64532 0.0
O221 O 0.34214 0.21774 0.64278 0.0
O222 O 0.4026 0.20579 0.65022 0.0
C223 C 0.38733 0.15088 0.73213 0.0
N224 N 0.3942 0.19469 0.73773 0.0
C225 C 0.39865 0.17748 0.80537 0.0
C226 C 0.3917 0.13216 0.80029 0.0
C227 C 0.38578 0.11885 0.76365 0.0
C228 C 0.39948 0.20791 0.77315 0.0
H229 H 0.38324 0.14044 0.70374 0.0
C230 C 0.37964 0.19813 0.6311 0.0
O231 O 0.25975 0.2724 0.68036 0.0
O232 O 0.25276 0.21935 0.72979 0.0
N233 N 0.40375 0.28008 0.74507 0.0
C234 C 0.40712 0.32534 0.74693 0.0
C235 C 0.41107 0.34436 0.78296 0.0
C236 C 0.41207 0.31665 0.81629 0.0
C237 C 0.40877 0.27015 0.81348 0.0
C238 C 0.40447 0.25314 0.77708 0.0
H239 H 0.40672 0.34675 0.72119 0.0
O240 O 0.27813 0.29752 0.75783 0.0
O241 O 0.33492 0.24991 0.73178 0.0
O242 O 0.35035 0.31293 0.65887 0.0
O243 O 0.41415 0.29732 0.65751 0.0
C244 C 0.40936 0.24003 0.84549 0.0
C245 C 0.40443 0.1937 0.84136 0.0
H246 H 0.39062 0.10734 0.82445 0.0
H247 H 0.38032 0.08395 0.75953 0.0
H248 H 0.41354 0.38028 0.78492 0.0
H249 H 0.41522 0.33143 0.84397 0.0
H250 H 0.41294 0.25216 0.87385 0.0
H251 H 0.40432 0.17092 0.86659 0.0
Mn252 Mn 0.70927 0.26591 0.82328 0.0
Mn253 Mn 0.62024 0.25556 0.80861 0.0
C254 C 0.71818 0.28177 0.75083 0.0
C255 C 0.7747 0.23998 0.82014 0.0
C256 C 0.62824 0.33136 0.86398 0.0
O257 O 0.66584 0.22369 0.87746 0.0
O258 O 0.6095 0.21831 0.86256 0.0
C259 C 0.63052 0.16034 0.78033 0.0
N260 N 0.62813 0.2042 0.77093 0.0
C261 C 0.63352 0.18544 0.69815 0.0
C262 C 0.63589 0.14005 0.70713 0.0
C263 C 0.6345 0.12748 0.74834 0.0
C264 C 0.62948 0.21668 0.73137 0.0
H265 H 0.62937 0.1505 0.812 0.0
C266 C 0.62757 0.20801 0.88617 0.0
O267 O 0.75061 0.27302 0.84709 0.0
O268 O 0.75958 0.22034 0.79651 0.0
N269 N 0.62731 0.28964 0.75666 0.0
C270 C 0.62784 0.33489 0.75167 0.0
C271 C 0.6308 0.35309 0.71142 0.0
C272 C 0.63285 0.32461 0.67694 0.0
C273 C 0.63214 0.27814 0.68291 0.0
C274 C 0.629 0.26194 0.72382 0.0
H275 H 0.62613 0.35691 0.77815 0.0
O276 O 0.74501 0.30029 0.7621 0.0
O277 O 0.68624 0.25619 0.78278 0.0
O278 O 0.66659 0.31925 0.85717 0.0
O279 O 0.60805 0.30983 0.84738 0.0
C280 C 0.63514 0.24727 0.64953 0.0
C281 C 0.63595 0.20096 0.65708 0.0
H282 H 0.63916 0.11461 0.68244 0.0
H283 H 0.63647 0.09253 0.75543 0.0
H284 H 0.63147 0.38898 0.70699 0.0
H285 H 0.63528 0.33878 0.64588 0.0
H286 H 0.63753 0.2588 0.61759 0.0
H287 H 0.63907 0.17759 0.63077 0.0
H288 H 0.05553 0.18438 0.39163 0.0
H289 H 1.00643 0.12118 0.43869 0.0
H290 H 0.12291 0.05547 0.42656 0.0
H291 H 0.17197 0.11791 0.37973 0.0
H292 H 0.01781 0.0216 0.41689 0.0
H293 H 0.02487 0.07031 0.57304 0.0
H294 H 0.038 0.10886 0.52577 0.0
H295 H 0.07928 0.06771 0.51776 0.0
C296 C 0.07076 0.15619 0.39848 0.0
C297 C 0.11765 0.15636 0.38212 0.0
C298 C 0.04266 0.12016 0.4254 0.0
C299 C 0.06095 0.08396 0.43664 0.0
C300 C 0.10799 0.08333 0.41881 0.0
H301 H 0.97822 0.84474 0.60411 0.0
H302 H 0.01588 0.91031 0.55488 0.0
C303 C 0.13602 0.11907 0.39187 0.0
C304 C 0.03111 0.04737 0.46836 0.0
H305 H 0.99374 0.99887 0.57565 0.0
C306 C 0.01201 0.0168 0.45183 0.0
C307 C 0.02371 0.04123 0.51388 0.0
C308 C 0.04217 0.0739 0.53402 0.0
C309 C 0.98724 0.97915 0.47893 0.0
C310 C 0.98068 0.97249 0.52413 0.0
C311 C 0.99884 1.00384 0.54101 0.0
C312 C 0.95705 0.93227 0.55367 0.0
C313 C 0.97001 0.94588 0.4581 0.0
C314 C 0.9111 0.92284 0.56996 0.0
C315 C 0.88931 0.88507 0.5982 0.0
C316 C 0.91293 0.85607 0.61102 0.0
C317 C 0.95882 0.86605 0.59499 0.0
C318 C 0.98051 0.90366 0.56678 0.0
H319 H 0.987 0.95022 0.4192 0.0
H320 H 0.97567 0.91107 0.46535 0.0
H321 H 0.93267 0.95067 0.47457 0.0
H322 H 0.89193 0.94491 0.56124 0.0
H323 H 0.85392 0.8787 0.61003 0.0
H324 H 0.15883 0.87882 0.89799 0.0
H325 H 0.11853 0.94094 0.95262 0.0
H326 H 0.99608 0.90795 0.95514 0.0
H327 H 0.03586 0.84606 0.90048 0.0
H328 H 0.07103 0.01557 0.93804 0.0
H329 H 0.95662 0.91345 0.09806 0.0
H330 H 0.00906 0.89185 0.04781 0.0
H331 H 0.95884 0.89702 0.04516 0.0
C332 C 0.1233 0.88466 0.91019 0.0
C333 C 0.10063 0.85723 0.89481 0.0
C334 C 0.10036 0.92022 0.9414 0.0
C335 C 0.0542 0.92866 0.95836 0.0
C336 C 0.03154 0.9016 0.94298 0.0
H337 H 0.84122 0.11388 0.13441 0.0
H338 H 0.8894 0.0511 0.08788 0.0
C339 C 0.05448 0.86634 0.91149 0.0
C340 C 0.02978 0.96645 0.99119 0.0
H341 H 0.93964 0.99087 0.10251 0.0
C342 C 0.04262 0.01032 0.9742 0.0
C343 C 0.99274 0.95937 0.03826 0.0
C344 C 0.97857 0.91292 0.05874 0.0
C345 C 0.01815 0.04735 1.0024 0.0
C346 C 0.98049 0.04028 0.04932 0.0
C347 C 0.96848 0.99633 0.06663 0.0
C348 C 0.9513 0.07774 0.07991 0.0
C349 C 0.03158 0.09352 0.98092 0.0
C350 C 0.96972 0.11328 0.09205 0.0
C351 C 0.94217 0.14952 0.1186 0.0
C352 C 0.89559 0.15065 0.13387 0.0
C353 C 0.87695 0.1142 0.12316 0.0
C354 C 0.90448 0.07819 0.09654 0.0
H355 H 0.05373 0.09233 0.94163 0.0
H356 H 1.00085 0.11387 0.99105 0.0
H357 H 0.05098 0.11068 0.99419 0.0
H358 H 1.0055 0.11322 0.08061 0.0
H359 H 0.95752 0.17695 0.12646 0.0
H360 H 0.48213 0.34546 0.60125 0.0
H361 H 0.52105 0.40848 0.5477 0.0
H362 H 0.39441 0.44845 0.56275 0.0
H363 H 0.35495 0.38543 0.61641 0.0
H364 H 0.52562 0.42785 0.45935 0.0
H365 H 0.44292 0.56335 0.59338 0.0
H366 H 0.44356 0.50589 0.60962 0.0
H367 H 0.40545 0.52278 0.5916 0.0
C368 C 0.46234 0.36765 0.59344 0.0
C369 C 0.41523 0.36023 0.61341 0.0
C370 C 0.48477 0.40365 0.56265 0.0
C371 C 0.4606 0.43336 0.5515 0.0
C372 C 0.41363 0.42622 0.57129 0.0
H373 H 0.55376 0.6836 0.38869 0.0
H374 H 0.50725 0.61836 0.43301 0.0
C375 C 0.39117 0.39004 0.60189 0.0
C376 C 0.48484 0.47144 0.5187 0.0
H377 H 0.49455 0.58532 0.51431 0.0
C378 C 0.51876 0.46231 0.47127 0.0
C379 C 0.47557 0.51637 0.53422 0.0
C380 C 0.44014 0.52798 0.58502 0.0
C381 C 0.54383 0.49689 0.43898 0.0
C382 C 0.53558 0.54185 0.45481 0.0
C383 C 0.50091 0.55096 0.50206 0.0
C384 C 0.5642 0.57969 0.42395 0.0
C385 C 0.57855 0.48483 0.38809 0.0
C386 C 0.61175 0.57969 0.4037 0.0
C387 C 0.63837 0.61672 0.37813 0.0
C388 C 0.61804 0.65495 0.37261 0.0
C389 C 0.57056 0.65461 0.39197 0.0
C390 C 0.5439 0.6174 0.41751 0.0
H391 H 0.56991 0.45251 0.3783 0.0
H392 H 0.58097 0.5111 0.3634 0.0
H393 H 0.61266 0.4811 0.38331 0.0
H394 H 0.6282 0.55164 0.40907 0.0
H395 H 0.67475 0.61591 0.3641 0.0
H396 H 0.45765 0.69391 0.12293 0.0
H397 H 0.50783 0.63232 0.07366 0.0
H398 H 0.39562 0.57297 0.07124 0.0
H399 H 0.34556 0.63372 0.12016 0.0
H400 H 0.49316 0.53276 0.09083 0.0
H401 H 0.50181 0.59054 0.9285 0.0
H402 H 0.48564 0.62698 0.97817 0.0
H403 H 0.44517 0.58747 0.98086 0.0
C404 C 0.44366 0.66758 0.11211 0.0
C405 C 0.39763 0.66893 0.12531 0.0
C406 C 0.47235 0.63245 0.08399 0.0
C407 C 0.45557 0.59842 0.06828 0.0
C408 C 0.40944 0.59919 0.08241 0.0
H409 H 0.5436 0.36466 0.89205 0.0
H410 H 0.50519 0.4298 0.94153 0.0
C411 C 0.38082 0.63397 0.11056 0.0
C412 C 0.4859 0.56215 0.03658 0.0
H413 H 0.52937 0.51745 0.92648 0.0
C414 C 0.50165 0.52959 0.05469 0.0
C415 C 0.49671 0.55805 0.98953 0.0
C416 C 0.48184 0.59276 0.9678 0.0
C417 C 0.52635 0.49203 0.02759 0.0
C418 C 0.53643 0.48748 0.98073 0.0
C419 C 0.52161 0.52077 0.96235 0.0
C420 C 0.5605 0.44765 0.95076 0.0
C421 C 0.53965 0.45665 0.05013 0.0
C422 C 0.60479 0.43608 0.93879 0.0
C423 C 0.62692 0.39851 0.91054 0.0
C424 C 0.60542 0.37191 0.8932 0.0
C425 C 0.56134 0.38414 0.90467 0.0
C426 C 0.53924 0.4215 0.93304 0.0
H427 H 0.51959 0.45947 0.08938 0.0
H428 H 0.53457 0.4226 0.04043 0.0
H429 H 0.5764 0.4606 0.03733 0.0
H430 H 0.62244 0.45628 0.951 0.0
H431 H 0.66093 0.39042 0.90224 0.0
H432 H 0.85487 0.37179 0.0781 0.0
H433 H 0.9071 0.43417 0.03361 0.0
H434 H 0.97722 0.41293 0.10649 0.0
H435 H 0.92592 0.35037 0.14989 0.0
H436 H 0.91668 0.51104 0.07273 0.0
H437 H 0.0837 0.42361 0.97009 0.0
H438 H 0.02966 0.39424 0.99862 0.0
H439 H 0.05271 0.41308 0.0327 0.0
C440 C 0.88181 0.38033 0.08403 0.0
C441 C 0.88586 0.35734 0.11807 0.0
C442 C 0.91156 0.41581 0.05875 0.0
C443 C 0.94636 0.42793 0.06641 0.0
C444 C 0.95129 0.40373 0.09927 0.0
H445 H 0.14304 0.65394 0.93678 0.0
H446 H 0.10045 0.59074 0.99015 0.0
C447 C 0.92157 0.36845 0.12451 0.0
C448 C 0.97536 0.4678 0.04259 0.0
H449 H 0.08568 0.50283 0.96711 0.0
C450 C 0.95363 0.50922 0.05022 0.0
C451 C 0.0237 0.4655 0.01316 0.0
C452 C 0.04889 0.42169 1.00274 0.0
C453 C 0.97869 0.5484 0.02926 0.0
C454 C 0.02678 0.54589 0.99804 0.0
C455 C 0.04885 0.50471 0.9913 0.0
C456 C 0.05321 0.58405 0.96691 0.0
C457 C 0.95319 0.59211 0.04037 0.0
C458 C 0.0413 0.60041 0.93583 0.0
C459 C 0.06495 0.63611 0.90602 0.0
C460 C 0.10189 0.65637 0.90575 0.0
C461 C 0.11459 0.63944 0.93634 0.0
C462 C 0.0904 0.60336 0.96671 0.0
H463 H 0.92124 0.59134 0.07616 0.0
H464 H 0.97462 0.62064 0.03864 0.0
H465 H 0.94335 0.59792 0.01424 0.0
H466 H 0.01364 0.58526 0.93436 0.0
H467 H 0.05421 0.64739 0.88271 0.0
H468 H 0.09735 0.36229 0.35683 0.0
H469 H 0.04456 0.42344 0.39822 0.0
H470 H 0.08149 0.42243 0.50269 0.0
H471 H 0.13936 0.36493 0.45678 0.0
H472 H 0.97381 0.43587 0.47341 0.0
H473 H 0.09726 0.54926 0.47937 0.0
H474 H 0.1141 0.49499 0.45267 0.0
H475 H 0.0857 0.50091 0.51581 0.0
C476 C 0.09566 0.37657 0.38745 0.0
C477 C 0.12487 0.36145 0.40154 0.0
C478 C 0.06453 0.41088 0.41195 0.0
C479 C 0.05993 0.42935 0.45289 0.0
C480 C 0.08596 0.41086 0.46983 0.0
H481 H 0.83767 0.61248 0.63538 0.0
H482 H 0.87929 0.5455 0.59174 0.0
C483 C 0.11871 0.37765 0.44393 0.0
C484 C 0.02793 0.46774 0.47691 0.0
H485 H 0.01992 0.57291 0.52058 0.0
C486 C 0.98431 0.46598 0.48317 0.0
C487 C 0.04091 0.50732 0.49026 0.0
C488 C 0.08718 0.51342 0.4838 0.0
C489 C 0.95425 0.50263 0.50081 0.0
C490 C 0.96726 0.54176 0.51441 0.0
C491 C 0.01014 0.54317 0.50949 0.0
C492 C 0.93715 0.58162 0.53491 0.0
C493 C 0.9095 0.49934 0.50336 0.0
C494 C 0.95496 0.62443 0.51701 0.0
C495 C 0.93153 0.66264 0.5425 0.0
C496 C 0.88939 0.65872 0.58567 0.0
C497 C 0.86945 0.61629 0.60133 0.0
C498 C 0.89339 0.57793 0.57642 0.0
H499 H 0.91152 0.4746 0.47753 0.0
H500 H 0.88231 0.48798 0.53932 0.0
H501 H 0.89928 0.53215 0.49638 0.0
H502 H 0.98861 0.6282 0.48508 0.0
H503 H 0.94799 0.69499 0.53044 0.0
H504 H 0.66408 0.14017 0.91107 0.0
H505 H 0.62247 0.07471 0.96057 0.0
H506 H 0.49507 0.13155 0.99099 0.0
H507 H 0.536 0.19639 0.94214 0.0
H508 H 0.49429 0.09477 0.0709 0.0
H509 H 0.56215 0.97791 0.91798 0.0
H510 H 0.60255 0.01062 0.92392 0.0
H511 H 0.56476 0.0379 0.91054 0.0
C512 C 0.62711 0.13905 0.92934 0.0
C513 C 0.60321 0.17331 0.92287 0.0
C514 C 0.60351 0.10146 0.95696 0.0
C515 C 0.55584 0.09805 0.97864 0.0
C516 C 0.53189 0.13339 0.97422 0.0
H517 H 0.35466 0.88717 0.08369 0.0
H518 H 0.40793 0.9493 0.04092 0.0
C519 C 0.5553 0.1705 0.94648 0.0
C520 C 0.52999 0.05784 1.00572 0.0
H521 H 0.50509 0.95012 0.9929 0.0
C522 C 0.49711 0.06288 0.05407 0.0
C523 C 0.53327 0.01666 0.9833 0.0
C524 C 0.56735 0.01013 0.93101 0.0
C525 C 0.46661 0.02824 0.08049 0.0
C526 C 0.46933 0.98706 0.05829 0.0
C527 C 0.50297 0.98165 0.00997 0.0
C528 C 0.43672 0.94981 0.08451 0.0
C529 C 0.43 0.0369 0.13132 0.0
C530 C 0.43529 0.92938 0.12305 0.0
C531 C 0.40481 0.89425 0.1475 0.0
C532 C 0.37487 0.87901 0.13421 0.0
C533 C 0.3767 0.89896 0.09525 0.0
C534 C 0.40726 0.93421 0.07071 0.0
H535 H 0.42725 0.07288 0.14079 0.0
H536 H 0.39657 0.02543 0.13807 0.0
H537 H 0.43789 0.01792 0.15453 0.0
H538 H 0.45841 0.94 0.13366 0.0
H539 H 0.40564 0.87809 0.17597 0.0
H540 H 0.64156 0.86112 0.46155 0.0
H541 H 0.58496 0.91825 0.51187 0.0
H542 H 0.5285 0.91301 0.42405 0.0
H543 H 0.5822 0.85431 0.37679 0.0
H544 H 0.57715 0.99677 0.49262 0.0
H545 H 0.41287 0.91909 0.54464 0.0
H546 H 0.46507 0.88714 0.51696 0.0
H547 H 0.44873 0.91724 0.48144 0.0
C548 C 0.61624 0.8717 0.45399 0.0
C549 C 0.6169 0.85457 0.41464 0.0
C550 C 0.58402 0.90435 0.48252 0.0
C551 C 0.55181 0.91989 0.47229 0.0
C552 C 0.55164 0.90099 0.434 0.0
H553 H 0.45076 0.1929 0.5392 0.0
H554 H 0.49009 0.12379 0.49789 0.0
C555 C 0.58313 0.86804 0.40622 0.0
C556 C 0.5216 0.95876 0.49806 0.0
H557 H 0.41433 1.00043 0.54161 0.0
C558 C 0.54139 0.99722 0.50389 0.0
C559 C 0.47451 0.95951 0.51394 0.0
C560 C 0.4491 0.91825 0.51438 0.0
C561 C 0.51623 0.03671 0.52313 0.0
C562 C 0.47027 0.03862 0.5351 0.0
C563 C 0.44991 0.99965 0.53106 0.0
C564 C 0.44201 0.07984 0.55465 0.0
C565 C 0.5392 0.07547 0.53131 0.0
C566 C 0.39945 0.07798 0.59785 0.0
C567 C 0.37586 0.11727 0.62009 0.0
C568 C 0.39464 0.15905 0.59982 0.0
C569 C 0.43534 0.16093 0.55505 0.0
C570 C 0.4583 0.12151 0.53207 0.0
H571 H 0.5678 0.06399 0.53472 0.0
H572 H 0.55387 0.09851 0.50052 0.0
H573 H 0.51461 0.09429 0.56383 0.0
H574 H 0.38583 0.04638 0.61594 0.0
H575 H 0.34501 0.11517 0.65516 0.0
H576 H 0.20386 0.77554 0.38404 0.0
H577 H 0.20331 0.76562 0.45685 0.0
H578 H 0.33413 0.69965 0.3779 0.0
H579 H 0.33474 0.7093 0.30456 0.0
H580 H 0.24595 0.67054 0.48899 0.0
H581 H 0.32145 0.84151 0.44876 0.0
H582 H 0.27726 0.82949 0.43726 0.0
H583 H 0.33174 0.80249 0.40279 0.0
C584 C 0.23146 0.75702 0.38256 0.0
C585 C 0.26919 0.74292 0.3388 0.0
C586 C 0.23131 0.75176 0.42405 0.0
C587 C 0.26895 0.7325 0.42243 0.0
C588 C 0.3048 0.7146 0.37964 0.0
H589 H 0.26374 0.70801 0.6883 0.0
H590 H 0.28876 0.69593 0.60557 0.0
C591 C 0.30484 0.7196 0.33795 0.0
C592 C 0.27268 0.7364 0.46427 0.0
H593 H 0.29599 0.81253 0.52435 0.0
C594 C 0.25711 0.70134 0.49694 0.0
C595 C 0.28783 0.77649 0.47378 0.0
C596 C 0.30581 0.81476 0.43885 0.0
C597 C 0.25381 0.70603 0.54049 0.0
C598 C 0.26687 0.74727 0.5515 0.0
C599 C 0.28488 0.78137 0.51706 0.0
C600 C 0.25931 0.75735 0.59911 0.0
C601 C 0.23522 0.66664 0.57388 0.0
C602 C 0.23974 0.79847 0.62168 0.0
C603 C 0.22888 0.80687 0.66783 0.0
C604 C 0.23489 0.77337 0.69313 0.0
C605 C 0.25721 0.7337 0.66983 0.0
C606 C 0.27079 0.72647 0.62276 0.0
H607 H 0.21197 0.64586 0.56815 0.0
H608 H 0.26418 0.6451 0.56717 0.0
H609 H 0.21628 0.67703 0.61131 0.0
H610 H 0.23134 0.82367 0.60433 0.0
H611 H 0.21368 0.83852 0.68445 0.0
H612 H 0.79571 0.83758 0.81861 0.0
H613 H 0.78076 0.8323 0.8991 0.0
H614 H 0.79838 0.68929 0.88374 0.0
H615 H 0.81281 0.69453 0.80387 0.0
H616 H 0.70933 0.78271 0.97508 0.0
H617 H 0.87906 0.7236 0.93447 0.0
H618 H 0.87167 0.75425 0.89262 0.0
H619 H 0.85571 0.69611 0.90419 0.0
C620 C 0.79717 0.80521 0.83226 0.0
C621 C 0.80697 0.76666 0.80451 0.0
C622 C 0.78853 0.80216 0.87818 0.0
C623 C 0.78922 0.76046 0.89722 0.0
C624 C 0.79888 0.72193 0.86947 0.0
H625 H 0.72904 0.70558 0.18632 0.0
H626 H 0.74189 0.69202 0.10735 0.0
C627 C 0.80743 0.725 0.82368 0.0
C628 C 0.77726 0.75705 0.94699 0.0
H629 H 0.82065 0.72956 0.01454 0.0
C630 C 0.73359 0.77083 0.98368 0.0
C631 C 0.80868 0.74115 0.95839 0.0
C632 C 0.8566 0.72808 0.92047 0.0
C633 C 0.72104 0.77008 0.03118 0.0
C634 C 0.75305 0.75545 0.04224 0.0
C635 C 0.79602 0.74015 1.00592 0.0
C636 C 0.74506 0.76217 0.08996 0.0
C637 C 0.67394 0.78584 0.06922 0.0
C638 C 0.74388 0.80584 0.10545 0.0
C639 C 0.73726 0.81363 0.14968 0.0
C640 C 0.73146 0.77788 0.17994 0.0
C641 C 0.73335 0.73385 0.16405 0.0
C642 C 0.74048 0.72606 0.11911 0.0
H643 H 0.64966 0.78444 0.05719 0.0
H644 H 0.66007 0.76536 0.10185 0.0
H645 H 0.67611 0.82105 0.07834 0.0
H646 H 0.74822 0.83411 0.08312 0.0
H647 H 0.73613 0.84809 0.16022 0.0
H648 H 0.70929 0.24462 0.375 0.0
H649 H 0.69989 0.23889 0.453 0.0
H650 H 0.84658 0.24688 0.38591 0.0
H651 H 0.8558 0.24894 0.3083 0.0
H652 H 0.81536 0.19844 0.45918 0.0
H653 H 0.70648 0.34961 0.5132 0.0
H654 H 0.68095 0.30337 0.50163 0.0
H655 H 0.73399 0.32701 0.45422 0.0
C656 C 0.7394 0.24306 0.37711 0.0
C657 C 0.78324 0.24671 0.33599 0.0
C658 C 0.73407 0.24084 0.42162 0.0
C659 C 0.77243 0.24434 0.42558 0.0
C660 C 0.81637 0.24455 0.38404 0.0
H661 H 0.74426 0.34853 0.68479 0.0
H662 H 0.76398 0.34007 0.6027 0.0
C663 C 0.82169 0.24546 0.33964 0.0
C664 C 0.76723 0.25077 0.47238 0.0
H665 H 0.71433 0.31528 0.57216 0.0
C666 C 0.79331 0.22409 0.48381 0.0
C667 C 0.73967 0.28523 0.50405 0.0
C668 C 0.71412 0.31824 0.49246 0.0
C669 C 0.79214 0.23037 0.52604 0.0
C670 C 0.7623 0.26286 0.55906 0.0
C671 C 0.73684 0.29004 0.54727 0.0
C672 C 0.75526 0.26801 0.60679 0.0
C673 C 0.82411 0.20294 0.5338 0.0
C674 C 0.74453 0.23053 0.6362 0.0
C675 C 0.73419 0.23539 0.68234 0.0
C676 C 0.7324 0.27795 0.70088 0.0
C677 C 0.74467 0.31548 0.67135 0.0
C678 C 0.75576 0.31057 0.62464 0.0
H679 H 0.8557 0.19409 0.49952 0.0
H680 H 0.83417 0.22097 0.55584 0.0
H681 H 0.80693 0.17116 0.55174 0.0
H682 H 0.74249 0.19753 0.62418 0.0
H683 H 0.72609 0.2058 0.70415 0.0
H684 H 0.18484 0.21484 0.20476 0.0
H685 H 0.19525 0.20484 0.12649 0.0
H686 H 0.31715 0.28627 0.06309 0.0
H687 H 0.3065 0.29689 0.14087 0.0
H688 H 0.20046 0.28675 0.0704 0.0
H689 H 0.3497 0.17278 0.97435 0.0
H690 H 0.31272 0.17347 0.03826 0.0
H691 H 0.35486 0.21659 1.00807 0.0
C692 C 0.21472 0.22913 0.17378 0.0
C693 C 0.24516 0.25625 0.17858 0.0
C694 C 0.22035 0.22384 0.1293 0.0
C695 C 0.25698 0.24483 0.08914 0.0
C696 C 0.28891 0.26952 0.09358 0.0
H697 H 0.29597 0.34394 0.82641 0.0
H698 H 0.2809 0.33481 0.9067 0.0
C699 C 0.28291 0.2754 0.13793 0.0
C700 C 0.25996 0.24494 0.04333 0.0
H701 H 0.32804 0.21253 0.92833 0.0
C702 C 0.22821 0.27035 0.03923 0.0
C703 C 0.29594 0.22329 1.00302 0.0
C704 C 0.33015 0.19465 1.00591 0.0
C705 C 0.23251 0.27594 0.99528 0.0
C706 C 0.26995 0.25606 0.95432 0.0
C707 C 0.3003 0.22895 0.95916 0.0
C708 C 0.27826 0.26238 0.90616 0.0
C709 C 0.19663 0.30264 0.99336 0.0
C710 C 0.28306 0.2249 0.87864 0.0
C711 C 0.29251 0.23016 0.83278 0.0
C712 C 0.29781 0.27297 0.81322 0.0
C713 C 0.29229 0.31063 0.84077 0.0
C714 C 0.28329 0.30536 0.88669 0.0
H715 H 0.16384 0.30348 0.02842 0.0
H716 H 0.20875 0.33762 0.98319 0.0
H717 H 0.18999 0.28867 0.96685 0.0
H718 H 0.27943 0.19144 0.89266 0.0
H719 H 0.29562 0.20061 0.81253 0.0
H720 H 0.35216 0.37105 0.25367 0.0
H721 H 0.42734 0.36836 0.2436 0.0
H722 H 0.39379 0.24083 0.31477 0.0
H723 H 0.31813 0.24321 0.32542 0.0
H724 H 0.43471 0.30152 0.34592 0.0
H725 H 0.5347 0.28833 0.14981 0.0
H726 H 0.49571 0.33466 0.17278 0.0
H727 H 0.47374 0.27847 0.18568 0.0
C728 C 0.36061 0.34229 0.26718 0.0
C729 C 0.32894 0.30719 0.29015 0.0
C730 C 0.40381 0.34076 0.26114 0.0
C731 C 0.41649 0.30408 0.27775 0.0
C732 C 0.38482 0.26935 0.30142 0.0
H733 H 0.69313 0.24013 0.20185 0.0
H734 H 0.61663 0.23957 0.21485 0.0
C735 C 0.34156 0.27077 0.30742 0.0
C736 C 0.46259 0.3023 0.27088 0.0
H737 H 0.57699 0.30163 0.1858 0.0
C738 C 0.46583 0.30138 0.31093 0.0
C739 C 0.50317 0.30159 0.2252 0.0
C740 C 0.50186 0.3004 0.18086 0.0
C741 C 0.50857 0.30069 0.30654 0.0
C742 C 0.54916 0.30147 0.26085 0.0
C743 C 0.54588 0.30147 0.22081 0.0
C744 C 0.59542 0.30184 0.25374 0.0
C745 C 0.50986 0.29851 0.35085 0.0
C746 C 0.6092 0.3373 0.27085 0.0
C747 C 0.65301 0.33778 0.26349 0.0
C748 C 0.68412 0.30285 0.23864 0.0
C749 C 0.67021 0.26755 0.22125 0.0
C750 C 0.62642 0.26716 0.2286 0.0
H751 H 0.47684 0.28651 0.38178 0.0
H752 H 0.53765 0.27608 0.34582 0.0
H753 H 0.51654 0.33247 0.35922 0.0
H754 H 0.58622 0.36491 0.2895 0.0
H755 H 0.66249 0.36569 0.27714 0.0
H756 H 0.66487 0.68253 0.77744 0.0
H757 H 0.58624 0.67215 0.7968 0.0
H758 H 0.61487 0.75954 0.68141 0.0
H759 H 0.69257 0.77087 0.6628 0.0
H760 H 0.53769 0.78294 0.76054 0.0
H761 H 0.53347 0.60026 0.73447 0.0
H762 H 0.5501 0.61492 0.77519 0.0
H763 H 0.58613 0.63046 0.71383 0.0
C764 C 0.65449 0.69907 0.7559 0.0
C765 C 0.685 0.72762 0.71866 0.0
C766 C 0.60958 0.6929 0.7668 0.0
C767 C 0.59458 0.71466 0.74025 0.0
C768 C 0.62547 0.74233 0.70245 0.0
H769 H 0.34465 0.68372 0.73894 0.0
H770 H 0.42233 0.67703 0.72318 0.0
C771 C 0.67001 0.74878 0.69183 0.0
C772 C 0.54609 0.71149 0.75336 0.0
H773 H 0.46247 0.63881 0.76906 0.0
C774 C 0.52135 0.75136 0.76233 0.0
C775 C 0.52473 0.67038 0.75525 0.0
C776 C 0.55004 0.62657 0.74375 0.0
C777 C 0.47616 0.7514 0.77314 0.0
C778 C 0.45428 0.71025 0.77641 0.0
C779 C 0.479 0.67029 0.76711 0.0
C780 C 0.40606 0.70864 0.78865 0.0
C781 C 0.45271 0.79577 0.77976 0.0
C782 C 0.3706 0.72685 0.83151 0.0
C783 C 0.32644 0.731 0.84038 0.0
C784 C 0.31646 0.71637 0.80692 0.0
C785 C 0.35119 0.69527 0.76545 0.0
C786 C 0.39563 0.6915 0.75637 0.0
H787 H 0.47776 0.82367 0.7635 0.0
H788 H 0.43152 0.79528 0.764 0.0
H789 H 0.42996 0.80283 0.8182 0.0
H790 H 0.37746 0.73929 0.8575 0.0
H791 H 0.3004 0.74701 0.87289 0.0
H792 H 0.15396 0.87222 0.27797 0.0
H793 H 0.07904 0.86992 0.28746 0.0
H794 H 0.11649 0.74858 0.20541 0.0
H795 H 0.19197 0.7506 0.19533 0.0
H796 H 0.07323 0.81277 0.17993 0.0
H797 H 0.97453 0.78319 0.37405 0.0
H798 H 0.01205 0.83079 0.35534 0.0
H799 H 0.03575 0.77564 0.33719 0.0
C800 C 0.14645 0.8449 0.26192 0.0
C801 C 0.17915 0.81139 0.23612 0.0
C802 C 0.10339 0.84358 0.26761 0.0
C803 C 0.09185 0.8087 0.24783 0.0
C804 C 0.12457 0.77567 0.22124 0.0
H805 H 0.816 0.74567 0.31835 0.0
H806 H 0.89278 0.74337 0.30468 0.0
C807 C 0.16773 0.77688 0.21557 0.0
C808 C 0.04572 0.80702 0.25468 0.0
H809 H 0.9315 0.80114 0.33985 0.0
C810 C 0.04224 0.81003 0.21485 0.0
C811 C 1.00531 0.80293 0.30024 0.0
C812 C 1.00691 0.79753 0.34416 0.0
C813 C 0.99939 0.81013 0.21947 0.0
C814 C 0.95894 0.80759 0.26517 0.0
C815 C 0.96249 0.80351 0.30488 0.0
C816 C 0.91256 0.809 0.27263 0.0
C817 C 0.99779 0.8125 0.17534 0.0
C818 C 0.89788 0.8469 0.25967 0.0
C819 C 0.85389 0.84844 0.26754 0.0
C820 C 0.82351 0.81208 0.28868 0.0
C821 C 0.83834 0.77426 0.30188 0.0
C822 C 0.88228 0.77286 0.29412 0.0
H823 H 0.03101 0.80285 0.14323 0.0
H824 H 0.97052 0.79037 0.17842 0.0
H825 H 0.99007 0.84731 0.17039 0.0
H826 H 0.92031 0.87555 0.24388 0.0
H827 H 0.84375 0.87822 0.25707 0.0
H828 H 0.18748 0.2877 0.68036 0.0
H829 H 0.10928 0.27541 0.70103 0.0
H830 H 0.1001 0.1569 0.77922 0.0
H831 H 0.17829 0.17012 0.76003 0.0
H832 H 0.06875 0.2109 0.68338 0.0
H833 H 0.98823 0.22215 0.87813 0.0
H834 H 0.04755 0.23595 0.83674 0.0
H835 H 0.02986 0.17843 0.85034 0.0
C836 C 0.16897 0.25891 0.7019 0.0
C837 C 0.18909 0.23006 0.71884 0.0
C838 C 0.12413 0.25188 0.71367 0.0
C839 C 0.09824 0.21567 0.74245 0.0
C840 C 0.11879 0.18578 0.75806 0.0
H841 H 0.8319 0.16988 0.77006 0.0
H842 H 0.90923 0.15651 0.75302 0.0
C843 C 0.16366 0.19314 0.74673 0.0
C844 C 0.04976 0.21021 0.75609 0.0
H845 H 0.93916 0.20792 0.85107 0.0
C846 C 0.04041 0.20996 0.72008 0.0
C847 C 0.01264 0.20935 0.80399 0.0
C848 C 0.01987 0.21189 0.84458 0.0
C849 C 0.9953 0.21037 0.73046 0.0
C850 C 0.95816 0.20948 0.77837 0.0
C851 C 0.96751 0.20829 0.81437 0.0
C852 C 0.90961 0.21414 0.79204 0.0
C853 C 0.98807 0.21417 0.68993 0.0
C854 C 0.88296 0.24945 0.82173 0.0
C855 C 0.83852 0.25653 0.83234 0.0
C856 C 0.81962 0.22861 0.81329 0.0
C857 C 0.84557 0.19218 0.78502 0.0
C858 C 0.88999 0.18477 0.77488 0.0
H859 H 0.0195 0.22575 0.65682 0.0
H860 H 0.97887 0.18085 0.68284 0.0
H861 H 0.9599 0.23776 0.69862 0.0
H862 H 0.89707 0.27253 0.83564 0.0
H863 H 0.81958 0.28491 0.85424 0.0
loop_
_geom_bond_atom_site_label_1
_geom_bond_atom_site_label_2
_geom_bond_distance
_geom_bond_site_symmetry_2
_ccdc_geom_bond_type
Mn0 O5 2.095 . S
Mn0 O15 2.162 . S
Mn0 O16 2.297 . S
Mn0 O24 2.385 . S
Mn0 O25 2.209 . S
Mn0 O26 2.094 . S
Mn1 O6 2.121 . S
Mn1 N8 2.257 . S
Mn1 N17 2.282 . S
Mn1 O25 2.215 . S
Mn1 O27 2.117 . S
C2 O24 1.234 . S
C2 O25 1.283 . S
C3 O15 1.281 . S
C3 O16 1.236 . S
C4 O26 1.240 . S
C4 O27 1.264 . S
O5 Mn0 2.095 . S
O5 C14 1.250 . S
O6 Mn1 2.121 . S
O6 C14 1.258 . S
C7 N8 1.326 . S
C7 C11 1.460 . S
C7 H13 0.929 . S
N8 Mn1 2.257 . S
N8 C7 1.326 . S
N8 C12 1.362 . S
C9 C10 1.258 . S
C9 C12 1.431 . S
C9 C29 1.449 . S
C10 C9 1.258 . S
C10 C11 1.477 . S
C10 H30 0.931 . S
C11 C7 1.460 . S
C11 C10 1.477 . S
C11 H31 0.930 . S
C12 N8 1.362 . S
C12 C9 1.431 . S
C12 C22 1.476 . S
H13 C7 0.929 . S
C14 O5 1.250 . S
C14 O6 1.258 . S
O15 Mn0 2.162 . S
O15 C3 1.281 . S
O16 Mn0 2.297 . S
O16 C3 1.236 . S
N17 Mn1 2.282 . S
N17 C18 1.328 . S
N17 C22 1.318 . S
C18 N17 1.328 . S
C18 C19 1.457 . S
C18 H23 0.929 . S
C19 C18 1.457 . S
C19 C20 1.291 . S
C19 H32 0.931 . S
C20 C19 1.291 . S
C20 C21 1.373 . S
C20 H33 0.929 . S
C21 C20 1.373 . S
C21 C22 1.396 . S
C21 C28 1.403 . S
C22 C12 1.476 . S
C22 N17 1.318 . S
C22 C21 1.396 . S
H23 C18 0.929 . S
O24 Mn0 2.385 . S
O24 C2 1.234 . S
O25 Mn0 2.209 . S
O25 Mn1 2.215 . S
O25 C2 1.283 . S
O26 Mn0 2.094 . S
O26 C4 1.240 . S
O27 Mn1 2.117 . S
O27 C4 1.264 . S
C28 C21 1.403 . S
C28 C29 1.399 . S
C28 H34 0.929 . S
C29 C9 1.449 . S
C29 C28 1.399 . S
C29 H35 0.930 . S
H30 C10 0.931 . S
H31 C11 0.930 . S
H32 C19 0.931 . S
H33 C20 0.929 . S
H34 C28 0.929 . S
H35 C29 0.930 . S
Mn36 O41 2.095 . S
Mn36 O51 2.162 . S
Mn36 O52 2.297 . S
Mn36 O60 2.385 . S
Mn36 O61 2.209 . S
Mn36 O62 2.094 . S
Mn37 O42 2.121 . S
Mn37 N44 2.257 . S
Mn37 N53 2.282 . S
Mn37 O61 2.215 . S
Mn37 O63 2.117 . S
C38 O60 1.234 . S
C38 O61 1.283 . S
C39 O51 1.281 . S
C39 O52 1.236 . S
C40 O62 1.240 . S
C40 O63 1.264 . S
O41 Mn36 2.095 . S
O41 C50 1.250 . S
O42 Mn37 2.121 . S
O42 C50 1.258 . S
C43 N44 1.326 . S
C43 C47 1.460 . S
C43 H49 0.929 . S
N44 Mn37 2.257 . S
N44 C43 1.326 . S
N44 C48 1.362 . S
C45 C46 1.258 . S
C45 C48 1.431 . S
C45 C65 1.449 . S
C46 C45 1.258 . S
C46 C47 1.477 . S
C46 H66 0.931 . S
C47 C43 1.460 . S
C47 C46 1.477 . S
C47 H67 0.930 . S
C48 N44 1.362 . S
C48 C45 1.431 . S
C48 C58 1.476 . S
H49 C43 0.929 . S
C50 O41 1.250 . S
C50 O42 1.258 . S
O51 Mn36 2.162 . S
O51 C39 1.281 . S
O52 Mn36 2.297 . S
O52 C39 1.236 . S
N53 Mn37 2.282 . S
N53 C54 1.328 . S
N53 C58 1.318 . S
C54 N53 1.328 . S
C54 C55 1.457 . S
C54 H59 0.929 . S
C55 C54 1.457 . S
C55 C56 1.291 . S
C55 H68 0.931 . S
C56 C55 1.291 . S
C56 C57 1.373 . S
C56 H69 0.929 . S
C57 C56 1.373 . S
C57 C58 1.396 . S
C57 C64 1.403 . S
C58 C48 1.476 . S
C58 N53 1.318 . S
C58 C57 1.396 . S
H59 C54 0.929 . S
O60 Mn36 2.385 . S
O60 C38 1.234 . S
O61 Mn36 2.209 . S
O61 Mn37 2.215 . S
O61 C38 1.283 . S
O62 Mn36 2.094 . S
O62 C40 1.240 . S
O63 Mn37 2.117 . S
O63 C40 1.264 . S
C64 C57 1.403 . S
C64 C65 1.399 . S
C64 H70 0.929 . S
C65 C45 1.449 . S
C65 C64 1.399 . S
C65 H71 0.930 . S
H66 C46 0.931 . S
H67 C47 0.930 . S
H68 C55 0.931 . S
H69 C56 0.929 . S
H70 C64 0.929 . S
H71 C65 0.930 . S
Mn72 O77 2.095 . S
Mn72 O87 2.162 . S
Mn72 O88 2.297 . S
Mn72 O96 2.385 . S
Mn72 O97 2.209 . S
Mn72 O98 2.094 . S
Mn73 O78 2.121 . S
Mn73 N80 2.257 . S
Mn73 N89 2.282 . S
Mn73 O97 2.215 . S
Mn73 O99 2.117 . S
C74 O96 1.234 . S
C74 O97 1.283 . S
C75 O87 1.281 . S
C75 O88 1.236 . S
C76 O98 1.240 . S
C76 O99 1.264 . S
O77 Mn72 2.095 . S
O77 C86 1.250 . S
O78 Mn73 2.121 . S
O78 C86 1.258 . S
C79 N80 1.326 . S
C79 C83 1.460 . S
C79 H85 0.929 . S
N80 Mn73 2.257 . S
N80 C79 1.326 . S
N80 C84 1.362 . S
C81 C82 1.258 . S
C81 C84 1.431 . S
C81 C101 1.449 . S
C82 C81 1.258 . S
C82 C83 1.477 . S
C82 H102 0.931 . S
C83 C79 1.460 . S
C83 C82 1.477 . S
C83 H103 0.930 . S
C84 N80 1.362 . S
C84 C81 1.431 . S
C84 C94 1.476 . S
H85 C79 0.929 . S
C86 O77 1.250 . S
C86 O78 1.258 . S
O87 Mn72 2.162 . S
O87 C75 1.281 . S
O88 Mn72 2.297 . S
O88 C75 1.236 . S
N89 Mn73 2.282 . S
N89 C90 1.328 . S
N89 C94 1.318 . S
C90 N89 1.328 . S
C90 C91 1.457 . S
C90 H95 0.929 . S
C91 C90 1.457 . S
C91 C92 1.291 . S
C91 H104 0.931 . S
C92 C91 1.291 . S
C92 C93 1.373 . S
C92 H105 0.929 . S
C93 C92 1.373 . S
C93 C94 1.396 . S
C93 C100 1.403 . S
C94 C84 1.476 . S
C94 N89 1.318 . S
C94 C93 1.396 . S
H95 C90 0.929 . S
O96 Mn72 2.385 . S
O96 C74 1.234 . S
O97 Mn72 2.209 . S
O97 Mn73 2.215 . S
O97 C74 1.283 . S
O98 Mn72 2.094 . S
O98 C76 1.240 . S
O99 Mn73 2.117 . S
O99 C76 1.264 . S
C100 C93 1.403 . S
C100 C101 1.399 . S
C100 H106 0.929 . S
C101 C81 1.449 . S
C101 C100 1.399 . S
C101 H107 0.930 . S
H102 C82 0.931 . S
H103 C83 0.930 . S
H104 C91 0.931 . S
H105 C92 0.929 . S
H106 C100 0.929 . S
H107 C101 0.930 . S
Mn108 O113 2.095 . S
Mn108 O123 2.162 . S
Mn108 O124 2.297 . S
Mn108 O132 2.385 . S
Mn108 O133 2.209 . S
Mn108 O134 2.094 . S
Mn109 O114 2.121 . S
Mn109 N116 2.257 . S
Mn109 N125 2.282 . S
Mn109 O133 2.215 . S
Mn109 O135 2.117 . S
C110 O132 1.234 . S
C110 O133 1.283 . S
C111 O123 1.281 . S
C111 O124 1.236 . S
C112 O134 1.240 . S
C112 O135 1.264 . S
O113 Mn108 2.095 . S
O113 C122 1.250 . S
O114 Mn109 2.121 . S
O114 C122 1.258 . S
C115 N116 1.326 . S
C115 C119 1.460 . S
C115 H121 0.929 . S
N116 Mn109 2.257 . S
N116 C115 1.326 . S
N116 C120 1.362 . S
C117 C118 1.258 . S
C117 C120 1.431 . S
C117 C137 1.449 . S
C118 C117 1.258 . S
C118 C119 1.477 . S
C118 H138 0.931 . S
C119 C115 1.460 . S
C119 C118 1.477 . S
C119 H139 0.930 . S
C120 N116 1.362 . S
C120 C117 1.431 . S
C120 C130 1.476 . S
H121 C115 0.929 . S
C122 O113 1.250 . S
C122 O114 1.258 . S
O123 Mn108 2.162 . S
O123 C111 1.281 . S
O124 Mn108 2.297 . S
O124 C111 1.236 . S
N125 Mn109 2.282 . S
N125 C126 1.328 . S
N125 C130 1.318 . S
C126 N125 1.328 . S
C126 C127 1.457 . S
C126 H131 0.929 . S
C127 C126 1.457 . S
C127 C128 1.291 . S
C127 H140 0.931 . S
C128 C127 1.291 . S
C128 C129 1.373 . S
C128 H141 0.929 . S
C129 C128 1.373 . S
C129 C130 1.396 . S
C129 C136 1.403 . S
C130 C120 1.476 . S
C130 N125 1.318 . S
C130 C129 1.396 . S
H131 C126 0.929 . S
O132 Mn108 2.385 . S
O132 C110 1.234 . S
O133 Mn108 2.209 . S
O133 Mn109 2.215 . S
O133 C110 1.283 . S
O134 Mn108 2.094 . S
O134 C112 1.240 . S
O135 Mn109 2.117 . S
O135 C112 1.264 . S
C136 C129 1.403 . S
C136 C137 1.399 . S
C136 H142 0.929 . S
C137 C117 1.449 . S
C137 C136 1.399 . S
C137 H143 0.930 . S
H138 C118 0.931 . S
H139 C119 0.930 . S
H140 C127 0.931 . S
H141 C128 0.929 . S
H142 C136 0.929 . S
H143 C137 0.930 . S
Mn144 O149 2.095 . S
Mn144 O159 2.162 . S
Mn144 O160 2.297 . S
Mn144 O168 2.385 . S
Mn144 O169 2.209 . S
Mn144 O170 2.094 . S
Mn145 O150 2.121 . S
Mn145 N152 2.257 . S
Mn145 N161 2.282 . S
Mn145 O169 2.215 . S
Mn145 O171 2.117 . S
C146 O168 1.234 . S
C146 O169 1.283 . S
C147 O159 1.281 . S
C147 O160 1.236 . S
C148 O170 1.240 . S
C148 O171 1.264 . S
O149 Mn144 2.095 . S
O149 C158 1.250 . S
O150 Mn145 2.121 . S
O150 C158 1.258 . S
C151 N152 1.326 . S
C151 C155 1.460 . S
C151 H157 0.929 . S
N152 Mn145 2.257 . S
N152 C151 1.326 . S
N152 C156 1.362 . S
C153 C154 1.258 . S
C153 C156 1.431 . S
C153 C173 1.449 1_565 S
C154 C153 1.258 . S
C154 C155 1.477 . S
C154 H174 0.931 1_565 S
C155 C151 1.460 . S
C155 C154 1.477 . S
C155 H175 0.930 . S
C156 N152 1.362 . S
C156 C153 1.431 . S
C156 C166 1.476 . S
H157 C151 0.929 . S
C158 O149 1.250 . S
C158 O150 1.258 . S
O159 Mn144 2.162 . S
O159 C147 1.281 . S
O160 Mn144 2.297 . S
O160 C147 1.236 . S
N161 Mn145 2.282 . S
N161 C162 1.328 . S
N161 C166 1.318 . S
C162 N161 1.328 . S
C162 C163 1.457 . S
C162 H167 0.929 . S
C163 C162 1.457 . S
C163 C164 1.291 . S
C163 H176 0.931 . S
C164 C163 1.291 . S
C164 C165 1.373 . S
C164 H177 0.929 1_565 S
C165 C164 1.373 . S
C165 C166 1.396 . S
C165 C172 1.403 1_565 S
C166 C156 1.476 . S
C166 N161 1.318 . S
C166 C165 1.396 . S
H167 C162 0.929 . S
O168 Mn144 2.385 . S
O168 C146 1.234 . S
O169 Mn144 2.209 . S
O169 Mn145 2.215 . S
O169 C146 1.283 . S
O170 Mn144 2.094 . S
O170 C148 1.240 . S
O171 Mn145 2.117 . S
O171 C148 1.264 . S
C172 C165 1.403 1_545 S
C172 C173 1.399 . S
C172 H178 0.929 . S
C173 C153 1.449 1_545 S
C173 C172 1.399 . S
C173 H179 0.930 . S
H174 C154 0.931 1_545 S
H175 C155 0.930 . S
H176 C163 0.931 . S
H177 C164 0.929 1_545 S
H178 C172 0.929 . S
H179 C173 0.930 . S
Mn180 O185 2.095 . S
Mn180 O195 2.162 . S
Mn180 O196 2.297 . S
Mn180 O204 2.385 . S
Mn180 O205 2.209 . S
Mn180 O206 2.094 . S
Mn181 O186 2.121 . S
Mn181 N188 2.257 . S
Mn181 N197 2.282 . S
Mn181 O205 2.215 . S
Mn181 O207 2.117 . S
C182 O204 1.234 . S
C182 O205 1.283 . S
C183 O195 1.281 . S
C183 O196 1.236 . S
C184 O206 1.240 . S
C184 O207 1.264 . S
O185 Mn180 2.095 . S
O185 C194 1.250 . S
O186 Mn181 2.121 . S
O186 C194 1.258 . S
C187 N188 1.326 . S
C187 C191 1.460 . S
C187 H193 0.929 . S
N188 Mn181 2.257 . S
N188 C187 1.326 . S
N188 C192 1.362 . S
C189 C190 1.258 . S
C189 C192 1.431 . S
C189 C209 1.449 1_565 S
C190 C189 1.258 . S
C190 C191 1.477 . S
C190 H210 0.931 1_565 S
C191 C187 1.460 . S
C191 C190 1.477 . S
C191 H211 0.930 . S
C192 N188 1.362 . S
C192 C189 1.431 . S
C192 C202 1.476 . S
H193 C187 0.929 . S
C194 O185 1.250 . S
C194 O186 1.258 . S
O195 Mn180 2.162 . S
O195 C183 1.281 . S
O196 Mn180 2.297 . S
O196 C183 1.236 . S
N197 Mn181 2.282 . S
N197 C198 1.328 . S
N197 C202 1.318 . S
C198 N197 1.328 . S
C198 C199 1.457 . S
C198 H203 0.929 . S
C199 C198 1.457 . S
C199 C200 1.291 . S
C199 H212 0.931 . S
C200 C199 1.291 . S
C200 C201 1.373 . S
C200 H213 0.929 1_565 S
C201 C200 1.373 . S
C201 C202 1.396 . S
C201 C208 1.403 1_565 S
C202 C192 1.476 . S
C202 N197 1.318 . S
C202 C201 1.396 . S
H203 C198 0.929 . S
O204 Mn180 2.385 . S
O204 C182 1.234 . S
O205 Mn180 2.209 . S
O205 Mn181 2.215 . S
O205 C182 1.283 . S
O206 Mn180 2.094 . S
O206 C184 1.240 . S
O207 Mn181 2.117 . S
O207 C184 1.264 . S
C208 C201 1.403 1_545 S
C208 C209 1.399 . S
C208 H214 0.929 . S
C209 C189 1.449 1_545 S
C209 C208 1.399 . S
C209 H215 0.930 . S
H210 C190 0.931 1_545 S
H211 C191 0.930 . S
H212 C199 0.931 . S
H213 C200 0.929 1_545 S
H214 C208 0.929 . S
H215 C209 0.930 . S
Mn216 O221 2.095 . S
Mn216 O231 2.162 . S
Mn216 O232 2.297 . S
Mn216 O240 2.385 . S
Mn216 O241 2.209 . S
Mn216 O242 2.094 . S
Mn217 O222 2.121 . S
Mn217 N224 2.257 . S
Mn217 N233 2.282 . S
Mn217 O241 2.215 . S
Mn217 O243 2.117 . S
C218 O240 1.234 . S
C218 O241 1.283 . S
C219 O231 1.281 . S
C219 O232 1.236 . S
C220 O242 1.240 . S
C220 O243 1.264 . S
O221 Mn216 2.095 . S
O221 C230 1.250 . S
O222 Mn217 2.121 . S
O222 C230 1.258 . S
C223 N224 1.326 . S
C223 C227 1.460 . S
C223 H229 0.929 . S
N224 Mn217 2.257 . S
N224 C223 1.326 . S
N224 C228 1.362 . S
C225 C226 1.258 . S
C225 C228 1.431 . S
C225 C245 1.449 . S
C226 C225 1.258 . S
C226 C227 1.477 . S
C226 H246 0.931 . S
C227 C223 1.460 . S
C227 C226 1.477 . S
C227 H247 0.930 . S
C228 N224 1.362 . S
C228 C225 1.431 . S
C228 C238 1.476 . S
H229 C223 0.929 . S
C230 O221 1.250 . S
C230 O222 1.258 . S
O231 Mn216 2.162 . S
O231 C219 1.281 . S
O232 Mn216 2.297 . S
O232 C219 1.236 . S
N233 Mn217 2.282 . S
N233 C234 1.328 . S
N233 C238 1.318 . S
C234 N233 1.328 . S
C234 C235 1.457 . S
C234 H239 0.929 . S
C235 C234 1.457 . S
C235 C236 1.291 . S
C235 H248 0.931 . S
C236 C235 1.291 . S
C236 C237 1.373 . S
C236 H249 0.929 . S
C237 C236 1.373 . S
C237 C238 1.396 . S
C237 C244 1.403 . S
C238 C228 1.476 . S
C238 N233 1.318 . S
C238 C237 1.396 . S
H239 C234 0.929 . S
O240 Mn216 2.385 . S
O240 C218 1.234 . S
O241 Mn216 2.209 . S
O241 Mn217 2.215 . S
O241 C218 1.283 . S
O242 Mn216 2.094 . S
O242 C220 1.240 . S
O243 Mn217 2.117 . S
O243 C220 1.264 . S
C244 C237 1.403 . S
C244 C245 1.399 . S
C244 H250 0.929 . S
C245 C225 1.449 . S
C245 C244 1.399 . S
C245 H251 0.930 . S
H246 C226 0.931 . S
H247 C227 0.930 . S
H248 C235 0.931 . S
H249 C236 0.929 . S
H250 C244 0.929 . S
H251 C245 0.930 . S
Mn252 O257 2.095 . S
Mn252 O267 2.162 . S
Mn252 O268 2.297 . S
Mn252 O276 2.385 . S
Mn252 O277 2.209 . S
Mn252 O278 2.094 . S
Mn253 O258 2.121 . S
Mn253 N260 2.257 . S
Mn253 N269 2.282 . S
Mn253 O277 2.215 . S
Mn253 O279 2.117 . S
C254 O276 1.234 . S
C254 O277 1.283 . S
C255 O267 1.281 . S
C255 O268 1.236 . S
C256 O278 1.240 . S
C256 O279 1.264 . S
O257 Mn252 2.095 . S
O257 C266 1.250 . S
O258 Mn253 2.121 . S
O258 C266 1.258 . S
C259 N260 1.326 . S
C259 C263 1.460 . S
C259 H265 0.929 . S
N260 Mn253 2.257 . S
N260 C259 1.326 . S
N260 C264 1.362 . S
C261 C262 1.258 . S
C261 C264 1.431 . S
C261 C281 1.449 . S
C262 C261 1.258 . S
C262 C263 1.477 . S
C262 H282 0.931 . S
C263 C259 1.460 . S
C263 C262 1.477 . S
C263 H283 0.930 . S
C264 N260 1.362 . S
C264 C261 1.431 . S
C264 C274 1.476 . S
H265 C259 0.929 . S
C266 O257 1.250 . S
C266 O258 1.258 . S
O267 Mn252 2.162 . S
O267 C255 1.281 . S
O268 Mn252 2.297 . S
O268 C255 1.236 . S
N269 Mn253 2.282 . S
N269 C270 1.328 . S
N269 C274 1.318 . S
C270 N269 1.328 . S
C270 C271 1.457 . S
C270 H275 0.929 . S
C271 C270 1.457 . S
C271 C272 1.291 . S
C271 H284 0.931 . S
C272 C271 1.291 . S
C272 C273 1.373 . S
C272 H285 0.929 . S
C273 C272 1.373 . S
C273 C274 1.396 . S
C273 C280 1.403 . S
C274 C264 1.476 . S
C274 N269 1.318 . S
C274 C273 1.396 . S
H275 C270 0.929 . S
O276 Mn252 2.385 . S
O276 C254 1.234 . S
O277 Mn252 2.209 . S
O277 Mn253 2.215 . S
O277 C254 1.283 . S
O278 Mn252 2.094 . S
O278 C256 1.240 . S
O279 Mn253 2.117 . S
O279 C256 1.264 . S
C280 C273 1.403 . S
C280 C281 1.399 . S
C280 H286 0.929 . S
C281 C261 1.449 . S
C281 C280 1.399 . S
C281 H287 0.930 . S
H282 C262 0.931 . S
H283 C263 0.930 . S
H284 C271 0.931 . S
H285 C272 0.929 . S
H286 C280 0.929 . S
H287 C281 0.930 . S
H288 C296 0.929 . S
H289 C298 0.930 1_655 S
H290 C300 0.930 . S
H291 C303 0.929 . S
H292 C306 0.930 . S
H293 C308 0.960 . S
H294 C308 0.960 . S
H295 C308 0.960 . S
C296 H288 0.929 . S
C296 C297 1.377 . S
C296 C298 1.384 . S
C297 C296 1.377 . S
C297 C303 1.390 . S
C298 H289 0.930 1_455 S
C298 C296 1.384 . S
C298 C299 1.372 . S
C299 C298 1.372 . S
C299 C300 1.400 . S
C299 C304 1.490 . S
C300 H290 0.930 . S
C300 C299 1.400 . S
C300 C303 1.386 . S
H301 C317 0.930 . S
H302 C318 0.931 1_455 S
C303 H291 0.929 . S
C303 C297 1.390 . S
C303 C300 1.386 . S
C304 C299 1.490 . S
C304 C306 1.395 1_455 S
C304 C307 1.403 . S
H305 C311 0.927 1_455 S
C306 H292 0.930 . S
C306 C304 1.395 1_655 S
C306 C309 1.403 1_545 S
C307 C304 1.403 . S
C307 C308 1.524 . S
C307 C311 1.398 1_445 S
C308 H293 0.960 . S
C308 H294 0.960 . S
C308 H295 0.960 . S
C308 C307 1.524 . S
C309 C306 1.403 1_565 S
C309 C310 1.392 . S
C309 C313 1.495 . S
C310 C309 1.392 . S
C310 C311 1.390 . S
C310 C312 1.478 . S
C311 H305 0.927 1_655 S
C311 C307 1.398 1_665 S
C311 C310 1.390 . S
C312 C310 1.478 . S
C312 C314 1.381 . S
C312 C318 1.383 . S
C313 C309 1.495 . S
C313 H319 0.959 . S
C313 H320 0.961 . S
C313 H321 0.960 . S
C314 C312 1.381 . S
C314 C315 1.394 . S
C314 H322 0.930 . S
C315 C314 1.394 . S
C315 C316 1.383 . S
C315 H323 0.929 . S
C316 C315 1.383 . S
C316 C317 1.377 . S
C317 H301 0.930 . S
C317 C316 1.377 . S
C317 C318 1.379 . S
C318 H302 0.931 1_655 S
C318 C312 1.383 . S
C318 C317 1.379 . S
H319 C313 0.959 . S
H320 C313 0.961 . S
H321 C313 0.960 . S
H322 C314 0.930 . S
H323 C315 0.929 . S
H324 C332 0.929 . S
H325 C334 0.930 . S
H326 C336 0.920 1_655 S
H327 C339 0.929 . S
H328 C342 0.930 . S
H329 C344 0.960 . S
H330 C344 0.960 . S
H331 C344 0.960 . S
C332 H324 0.929 . S
C332 C333 1.377 . S
C332 C334 1.384 . S
C333 C332 1.377 . S
C333 C339 1.390 . S
C334 H325 0.930 . S
C334 C332 1.384 . S
C334 C335 1.372 . S
C335 C334 1.372 . S
C335 C336 1.400 . S
C335 C340 1.490 . S
C336 H326 0.920 1_455 S
C336 C335 1.400 . S
C336 C339 1.386 . S
H337 C353 0.930 . S
H338 C354 0.931 . S
C339 H327 0.929 . S
C339 C333 1.390 . S
C339 C336 1.386 . S
C340 C335 1.490 . S
C340 C342 1.395 1_565 S
C340 C343 1.403 1_456 S
H341 C347 0.930 . S
C342 H328 0.930 . S
C342 C340 1.395 1_545 S
C342 C345 1.403 . S
C343 C340 1.403 1_654 S
C343 C344 1.524 . S
C343 C347 1.400 1_565 S
C344 H329 0.960 . S
C344 H330 0.960 . S
C344 H331 0.960 . S
C344 C343 1.524 . S
C345 C342 1.403 . S
C345 C346 1.392 1_456 S
C345 C349 1.495 . S
C346 C345 1.392 1_654 S
C346 C347 1.385 . S
C346 C348 1.478 . S
C347 H341 0.930 . S
C347 C343 1.400 1_545 S
C347 C346 1.385 . S
C348 C346 1.478 . S
C348 C350 1.381 . S
C348 C354 1.383 . S
C349 C345 1.495 . S
C349 H355 0.959 . S
C349 H356 0.961 . S
C349 H357 0.960 . S
C350 C348 1.381 . S
C350 C351 1.394 . S
C350 H358 0.913 1_655 S
C351 C350 1.394 . S
C351 C352 1.383 . S
C351 H359 0.929 . S
C352 C351 1.383 . S
C352 C353 1.377 . S
C353 H337 0.930 . S
C353 C352 1.377 . S
C353 C354 1.379 . S
C354 H338 0.931 . S
C354 C348 1.383 . S
C354 C353 1.379 . S
H355 C349 0.959 . S
H356 C349 0.961 . S
H357 C349 0.960 . S
H358 C350 0.913 1_455 S
H359 C351 0.929 . S
H360 C368 0.929 . S
H361 C370 0.930 . S
H362 C372 0.930 . S
H363 C375 0.929 . S
H364 C378 0.930 . S
H365 C380 0.960 . S
H366 C380 0.960 . S
H367 C380 0.960 . S
C368 H360 0.929 . S
C368 C369 1.377 . S
C368 C370 1.384 . S
C369 C368 1.377 . S
C369 C375 1.390 . S
C370 H361 0.930 . S
C370 C368 1.384 . S
C370 C371 1.372 . S
C371 C370 1.372 . S
C371 C372 1.400 . S
C371 C376 1.490 . S
C372 H362 0.930 . S
C372 C371 1.400 . S
C372 C375 1.386 . S
H373 C389 0.930 . S
H374 C390 0.931 . S
C375 H363 0.929 . S
C375 C369 1.390 . S
C375 C372 1.386 . S
C376 C371 1.490 . S
C376 C378 1.395 . S
C376 C379 1.403 . S
H377 C383 0.930 . S
C378 H364 0.930 . S
C378 C376 1.395 . S
C378 C381 1.403 . S
C379 C376 1.403 . S
C379 C380 1.524 . S
C379 C383 1.400 . S
C380 H365 0.960 . S
C380 H366 0.960 . S
C380 H367 0.960 . S
C380 C379 1.524 . S
C381 C378 1.403 . S
C381 C382 1.392 . S
C381 C385 1.495 . S
C382 C381 1.392 . S
C382 C383 1.385 . S
C382 C384 1.478 . S
C383 H377 0.930 . S
C383 C379 1.400 . S
C383 C382 1.385 . S
C384 C382 1.478 . S
C384 C386 1.381 . S
C384 C390 1.383 . S
C385 C381 1.495 . S
C385 H391 0.959 . S
C385 H392 0.961 . S
C385 H393 0.960 . S
C386 C384 1.381 . S
C386 C387 1.394 . S
C386 H394 0.930 . S
C387 C386 1.394 . S
C387 C388 1.383 . S
C387 H395 0.929 . S
C388 C387 1.383 . S
C388 C389 1.377 . S
C389 H373 0.930 . S
C389 C388 1.377 . S
C389 C390 1.379 . S
C390 H374 0.931 . S
C390 C384 1.383 . S
C390 C389 1.379 . S
H391 C385 0.959 . S
H392 C385 0.961 . S
H393 C385 0.960 . S
H394 C386 0.930 . S
H395 C387 0.929 . S
H396 C404 0.929 . S
H397 C406 0.930 . S
H398 C408 0.930 . S
H399 C411 0.929 . S
H400 C414 0.930 . S
H401 C416 0.960 1_556 S
H402 C416 0.960 1_556 S
H403 C416 0.960 . S
C404 H396 0.929 . S
C404 C405 1.377 . S
C404 C406 1.384 . S
C405 C404 1.377 . S
C405 C411 1.390 . S
C406 H397 0.930 . S
C406 C404 1.384 . S
C406 C407 1.372 . S
C407 C406 1.372 . S
C407 C408 1.400 . S
C407 C412 1.490 . S
C408 H398 0.930 . S
C408 C407 1.400 . S
C408 C411 1.386 . S
H409 C425 0.930 . S
H410 C426 0.931 . S
C411 H399 0.929 . S
C411 C405 1.390 . S
C411 C408 1.386 . S
C412 C407 1.490 . S
C412 C414 1.395 . S
C412 C415 1.403 . S
H413 C419 0.930 . S
C414 H400 0.930 . S
C414 C412 1.395 . S
C414 C417 1.403 . S
C415 C412 1.403 . S
C415 C416 1.524 . S
C415 C419 1.400 1_554 S
C416 H401 0.960 1_554 S
C416 H402 0.960 1_554 S
C416 H403 0.960 . S
C416 C415 1.524 . S
C417 C414 1.403 . S
C417 C418 1.392 1_554 S
C417 C421 1.481 . S
C418 C417 1.392 1_556 S
C418 C419 1.385 . S
C418 C420 1.478 . S
C419 H413 0.930 . S
C419 C415 1.400 1_556 S
C419 C418 1.385 . S
C420 C418 1.478 . S
C420 C422 1.381 . S
C420 C426 1.383 . S
C421 C417 1.481 . S
C421 H427 0.979 . S
C421 H428 0.974 . S
C421 H429 0.942 1_554 S
C422 C420 1.381 . S
C422 C423 1.394 . S
C422 H430 0.930 . S
C423 C422 1.394 . S
C423 C424 1.383 . S
C423 H431 0.929 . S
C424 C423 1.383 . S
C424 C425 1.377 . S
C425 H409 0.930 . S
C425 C424 1.377 . S
C425 C426 1.379 . S
C426 H410 0.931 . S
C426 C420 1.383 . S
C426 C425 1.379 . S
H427 C421 0.979 . S
H428 C421 0.974 . S
H429 C421 0.942 1_556 S
H430 C422 0.930 . S
H431 C423 0.929 . S
H432 C440 0.929 . S
H433 C442 0.930 . S
H434 C444 0.930 . S
H435 C447 0.929 . S
H436 C450 0.930 . S
H437 C452 0.960 . S
H438 C452 0.960 . S
H439 C452 0.960 1_554 S
C440 H432 0.929 . S
C440 C441 1.377 . S
C440 C442 1.384 . S
C441 C440 1.377 . S
C441 C447 1.390 . S
C442 H433 0.930 . S
C442 C440 1.384 . S
C442 C443 1.372 . S
C443 C442 1.372 . S
C443 C444 1.400 . S
C443 C448 1.490 . S
C444 H434 0.930 . S
C444 C443 1.400 . S
C444 C447 1.386 . S
H445 C461 0.930 . S
H446 C462 0.931 . S
C447 H435 0.929 . S
C447 C441 1.390 . S
C447 C444 1.386 . S
C448 C443 1.490 . S
C448 C450 1.395 . S
C448 C451 1.403 1_655 S
H449 C455 0.930 . S
C450 H436 0.930 . S
C450 C448 1.395 . S
C450 C453 1.403 . S
C451 C448 1.403 1_455 S
C451 C452 1.524 1_554 S
C451 C455 1.400 1_554 S
C452 H437 0.960 . S
C452 H438 0.960 . S
C452 H439 0.960 1_556 S
C452 C451 1.524 1_556 S
C453 C450 1.403 . S
C453 C454 1.392 1_654 S
C453 C457 1.495 . S
C454 C453 1.392 1_456 S
C454 C455 1.385 . S
C454 C456 1.478 . S
C455 H449 0.930 . S
C455 C451 1.400 1_556 S
C455 C454 1.385 . S
C456 C454 1.478 . S
C456 C458 1.381 . S
C456 C462 1.383 . S
C457 C453 1.495 . S
C457 H463 0.959 . S
C457 H464 0.961 . S
C457 H465 0.960 1_554 S
C458 C456 1.381 . S
C458 C459 1.394 . S
C458 H466 0.930 . S
C459 C458 1.394 . S
C459 C460 1.383 . S
C459 H467 0.929 . S
C460 C459 1.383 . S
C460 C461 1.377 . S
C461 H445 0.930 . S
C461 C460 1.377 . S
C461 C462 1.379 . S
C462 H446 0.931 . S
C462 C456 1.383 . S
C462 C461 1.379 . S
H463 C457 0.959 . S
H464 C457 0.961 . S
H465 C457 0.960 1_556 S
H466 C458 0.930 . S
H467 C459 0.929 . S
H468 C476 0.929 . S
H469 C478 0.930 . S
H470 C480 0.930 . S
H471 C483 0.929 . S
H472 C486 0.930 . S
H473 C488 0.960 . S
H474 C488 0.960 . S
H475 C488 0.960 . S
C476 H468 0.929 . S
C476 C477 1.377 . S
C476 C478 1.384 . S
C477 C476 1.377 . S
C477 C483 1.390 . S
C478 H469 0.930 . S
C478 C476 1.384 . S
C478 C479 1.372 . S
C479 C478 1.372 . S
C479 C480 1.400 . S
C479 C484 1.490 . S
C480 H470 0.930 . S
C480 C479 1.400 . S
C480 C483 1.386 . S
H481 C497 0.930 . S
H482 C498 0.931 . S
C483 H471 0.929 . S
C483 C477 1.390 . S
C483 C480 1.386 . S
C484 C479 1.490 . S
C484 C486 1.395 1_455 S
C484 C487 1.403 . S
H485 C491 0.930 . S
C486 H472 0.930 . S
C486 C484 1.395 1_655 S
C486 C489 1.403 . S
C487 C484 1.403 . S
C487 C488 1.524 . S
C487 C491 1.400 . S
C488 H473 0.960 . S
C488 H474 0.960 . S
C488 H475 0.960 . S
C488 C487 1.524 . S
C489 C486 1.403 . S
C489 C490 1.392 . S
C489 C493 1.495 . S
C490 C489 1.392 . S
C490 C491 1.385 1_655 S
C490 C492 1.478 . S
C491 H485 0.930 . S
C491 C487 1.400 . S
C491 C490 1.385 1_455 S
C492 C490 1.478 . S
C492 C494 1.381 . S
C492 C498 1.383 . S
C493 C489 1.495 . S
C493 H499 0.959 . S
C493 H500 0.961 . S
C493 H501 0.960 . S
C494 C492 1.381 . S
C494 C495 1.394 . S
C494 H502 0.930 . S
C495 C494 1.394 . S
C495 C496 1.383 . S
C495 H503 0.929 . S
C496 C495 1.383 . S
C496 C497 1.377 . S
C497 H481 0.930 . S
C497 C496 1.377 . S
C497 C498 1.379 . S
C498 H482 0.931 . S
C498 C492 1.383 . S
C498 C497 1.379 . S
H499 C493 0.959 . S
H500 C493 0.961 . S
H501 C493 0.960 . S
H502 C494 0.930 . S
H503 C495 0.929 . S
H504 C512 0.929 . S
H505 C514 0.930 . S
H506 C516 0.930 . S
H507 C519 0.929 . S
H508 C522 0.930 . S
H509 C524 0.960 . S
H510 C524 0.960 . S
H511 C524 0.960 . S
C512 H504 0.929 . S
C512 C513 1.377 . S
C512 C514 1.384 . S
C513 C512 1.377 . S
C513 C519 1.390 . S
C514 H505 0.930 . S
C514 C512 1.384 . S
C514 C515 1.372 . S
C515 C514 1.372 . S
C515 C516 1.400 . S
C515 C520 1.490 . S
C516 H506 0.930 . S
C516 C515 1.400 . S
C516 C519 1.386 . S
H517 C533 0.930 . S
H518 C534 0.931 . S
C519 H507 0.929 . S
C519 C513 1.390 . S
C519 C516 1.386 . S
C520 C515 1.490 . S
C520 C522 1.395 1_556 S
C520 C523 1.403 1_545 S
H521 C527 0.930 . S
C522 H508 0.930 . S
C522 C520 1.395 1_554 S
C522 C525 1.403 . S
C523 C520 1.403 1_565 S
C523 C524 1.524 . S
C523 C527 1.400 . S
C524 H509 0.960 . S
C524 H510 0.960 . S
C524 H511 0.960 . S
C524 C523 1.524 . S
C525 C522 1.403 . S
C525 C526 1.392 1_545 S
C525 C529 1.495 . S
C526 C525 1.392 1_565 S
C526 C527 1.385 1_554 S
C526 C528 1.478 . S
C527 H521 0.930 . S
C527 C523 1.400 . S
C527 C526 1.385 1_556 S
C528 C526 1.478 . S
C528 C530 1.381 . S
C528 C534 1.383 . S
C529 C525 1.495 . S
C529 H535 0.959 . S
C529 H536 0.961 . S
C529 H537 0.966 . S
C530 C528 1.381 . S
C530 C531 1.394 . S
C530 H538 0.930 . S
C531 C530 1.394 . S
C531 C532 1.383 . S
C531 H539 0.929 . S
C532 C531 1.383 . S
C532 C533 1.377 . S
C533 H517 0.930 . S
C533 C532 1.377 . S
C533 C534 1.379 . S
C534 H518 0.931 . S
C534 C528 1.383 . S
C534 C533 1.379 . S
H535 C529 0.959 . S
H536 C529 0.961 . S
H537 C529 0.966 . S
H538 C530 0.930 . S
H539 C531 0.929 . S
H540 C548 0.929 . S
H541 C550 0.930 . S
H542 C552 0.930 . S
H543 C555 0.929 . S
H544 C558 0.930 . S
H545 C560 0.960 . S
H546 C560 0.960 . S
H547 C560 0.960 . S
C548 H540 0.929 . S
C548 C549 1.377 . S
C548 C550 1.384 . S
C549 C548 1.377 . S
C549 C555 1.390 . S
C550 H541 0.930 . S
C550 C548 1.384 . S
C550 C551 1.372 . S
C551 C550 1.372 . S
C551 C552 1.400 . S
C551 C556 1.490 . S
C552 H542 0.930 . S
C552 C551 1.400 . S
C552 C555 1.386 . S
H553 C569 0.930 . S
H554 C570 0.931 . S
C555 H543 0.929 . S
C555 C549 1.390 . S
C555 C552 1.386 . S
C556 C551 1.490 . S
C556 C558 1.395 . S
C556 C559 1.403 . S
H557 C563 0.931 . S
C558 H544 0.930 . S
C558 C556 1.395 . S
C558 C561 1.403 1_565 S
C559 C556 1.403 . S
C559 C560 1.524 . S
C559 C563 1.381 1_565 S
C560 H545 0.960 . S
C560 H546 0.960 . S
C560 H547 0.960 . S
C560 C559 1.524 . S
C561 C558 1.403 1_545 S
C561 C562 1.392 . S
C561 C565 1.495 . S
C562 C561 1.392 . S
C562 C563 1.403 . S
C562 C564 1.478 . S
C563 H557 0.931 . S
C563 C559 1.381 1_545 S
C563 C562 1.403 . S
C564 C562 1.478 . S
C564 C566 1.381 . S
C564 C570 1.383 . S
C565 C561 1.495 . S
C565 H571 0.959 . S
C565 H572 0.961 . S
C565 H573 0.960 . S
C566 C564 1.381 . S
C566 C567 1.394 . S
C566 H574 0.930 . S
C567 C566 1.394 . S
C567 C568 1.383 . S
C567 H575 0.929 . S
C568 C567 1.383 . S
C568 C569 1.377 . S
C569 H553 0.930 . S
C569 C568 1.377 . S
C569 C570 1.379 . S
C570 H554 0.931 . S
C570 C564 1.383 . S
C570 C569 1.379 . S
H571 C565 0.959 . S
H572 C565 0.961 . S
H573 C565 0.960 . S
H574 C566 0.930 . S
H575 C567 0.929 . S
H576 C584 0.929 . S
H577 C586 0.930 . S
H578 C588 0.930 . S
H579 C591 0.929 . S
H580 C594 0.930 . S
H581 C596 0.960 . S
H582 C596 0.960 . S
H583 C596 0.960 . S
C584 H576 0.929 . S
C584 C585 1.377 . S
C584 C586 1.384 . S
C585 C584 1.377 . S
C585 C591 1.390 . S
C586 H577 0.930 . S
C586 C584 1.384 . S
C586 C587 1.372 . S
C587 C586 1.372 . S
C587 C588 1.400 . S
C587 C592 1.490 . S
C588 H578 0.930 . S
C588 C587 1.400 . S
C588 C591 1.386 . S
H589 C605 0.930 . S
H590 C606 0.931 . S
C591 H579 0.929 . S
C591 C585 1.390 . S
C591 C588 1.386 . S
C592 C587 1.490 . S
C592 C594 1.395 . S
C592 C595 1.403 . S
H593 C599 0.930 . S
C594 H580 0.930 . S
C594 C592 1.395 . S
C594 C597 1.403 . S
C595 C592 1.403 . S
C595 C596 1.524 . S
C595 C599 1.400 . S
C596 H581 0.960 . S
C596 H582 0.960 . S
C596 H583 0.960 . S
C596 C595 1.524 . S
C597 C594 1.403 . S
C597 C598 1.392 . S
C597 C601 1.495 . S
C598 C597 1.392 . S
C598 C599 1.385 . S
C598 C600 1.478 . S
C599 H593 0.930 . S
C599 C595 1.400 . S
C599 C598 1.385 . S
C600 C598 1.478 . S
C600 C602 1.381 . S
C600 C606 1.383 . S
C601 C597 1.495 . S
C601 H607 0.959 . S
C601 H608 0.961 . S
C601 H609 0.960 . S
C602 C600 1.381 . S
C602 C603 1.394 . S
C602 H610 0.930 . S
C603 C602 1.394 . S
C603 C604 1.383 . S
C603 H611 0.929 . S
C604 C603 1.383 . S
C604 C605 1.377 . S
C605 H589 0.930 . S
C605 C604 1.377 . S
C605 C606 1.379 . S
C606 H590 0.931 . S
C606 C600 1.383 . S
C606 C605 1.379 . S
H607 C601 0.959 . S
H608 C601 0.961 . S
H609 C601 0.960 . S
H610 C602 0.930 . S
H611 C603 0.929 . S
H612 C620 0.929 . S
H613 C622 0.930 . S
H614 C624 0.930 . S
H615 C627 0.929 . S
H616 C630 0.930 . S
H617 C632 0.960 . S
H618 C632 0.960 . S
H619 C632 0.960 . S
C620 H612 0.929 . S
C620 C621 1.377 . S
C620 C622 1.384 . S
C621 C620 1.377 . S
C621 C627 1.390 . S
C622 H613 0.930 . S
C622 C620 1.384 . S
C622 C623 1.372 . S
C623 C622 1.372 . S
C623 C624 1.400 . S
C623 C628 1.490 . S
C624 H614 0.930 . S
C624 C623 1.400 . S
C624 C627 1.386 . S
H625 C641 0.930 . S
H626 C642 0.931 . S
C627 H615 0.929 . S
C627 C621 1.390 . S
C627 C624 1.386 . S
C628 C623 1.490 . S
C628 C630 1.395 . S
C628 C631 1.403 . S
H629 C635 0.930 . S
C630 H616 0.930 . S
C630 C628 1.395 . S
C630 C633 1.403 1_556 S
C631 C628 1.403 . S
C631 C632 1.524 . S
C631 C635 1.400 1_556 S
C632 H617 0.960 . S
C632 H618 0.960 . S
C632 H619 0.960 . S
C632 C631 1.524 . S
C633 C630 1.403 1_554 S
C633 C634 1.392 . S
C633 C637 1.495 . S
C634 C633 1.392 . S
C634 C635 1.385 . S
C634 C636 1.478 . S
C635 H629 0.930 . S
C635 C631 1.400 1_554 S
C635 C634 1.385 . S
C636 C634 1.478 . S
C636 C638 1.381 . S
C636 C642 1.383 . S
C637 C633 1.495 . S
C637 H643 0.959 . S
C637 H644 0.961 . S
C637 H645 0.960 . S
C638 C636 1.381 . S
C638 C639 1.394 . S
C638 H646 0.930 . S
C639 C638 1.394 . S
C639 C640 1.383 . S
C639 H647 0.929 . S
C640 C639 1.383 . S
C640 C641 1.377 . S
C641 H625 0.930 . S
C641 C640 1.377 . S
C641 C642 1.379 . S
C642 H626 0.931 . S
C642 C636 1.383 . S
C642 C641 1.379 . S
H643 C637 0.959 . S
H644 C637 0.961 . S
H645 C637 0.960 . S
H646 C638 0.930 . S
H647 C639 0.929 . S
H648 C656 0.929 . S
H649 C658 0.930 . S
H650 C660 0.930 . S
H651 C663 0.929 . S
H652 C666 0.930 . S
H653 C668 0.960 . S
H654 C668 0.960 . S
H655 C668 0.960 . S
C656 H648 0.929 . S
C656 C657 1.377 . S
C656 C658 1.384 . S
C657 C656 1.377 . S
C657 C663 1.390 . S
C658 H649 0.930 . S
C658 C656 1.384 . S
C658 C659 1.372 . S
C659 C658 1.372 . S
C659 C660 1.400 . S
C659 C664 1.490 . S
C660 H650 0.930 . S
C660 C659 1.400 . S
C660 C663 1.386 . S
H661 C677 0.930 . S
H662 C678 0.931 . S
C663 H651 0.929 . S
C663 C657 1.390 . S
C663 C660 1.386 . S
C664 C659 1.490 . S
C664 C666 1.395 . S
C664 C667 1.403 . S
H665 C671 0.930 . S
C666 H652 0.930 . S
C666 C664 1.395 . S
C666 C669 1.403 . S
C667 C664 1.403 . S
C667 C668 1.524 . S
C667 C671 1.400 . S
C668 H653 0.960 . S
C668 H654 0.960 . S
C668 H655 0.960 . S
C668 C667 1.524 . S
C669 C666 1.403 . S
C669 C670 1.392 . S
C669 C673 1.495 . S
C670 C669 1.392 . S
C670 C671 1.385 . S
C670 C672 1.478 . S
C671 H665 0.930 . S
C671 C667 1.400 . S
C671 C670 1.385 . S
C672 C670 1.478 . S
C672 C674 1.381 . S
C672 C678 1.383 . S
C673 C669 1.495 . S
C673 H679 0.959 . S
C673 H680 0.961 . S
C673 H681 0.960 . S
C674 C672 1.381 . S
C674 C675 1.394 . S
C674 H682 0.930 . S
C675 C674 1.394 . S
C675 C676 1.383 . S
C675 H683 0.929 . S
C676 C675 1.383 . S
C676 C677 1.377 . S
C677 H661 0.930 . S
C677 C676 1.377 . S
C677 C678 1.379 . S
C678 H662 0.931 . S
C678 C672 1.383 . S
C678 C677 1.379 . S
H679 C673 0.959 . S
H680 C673 0.961 . S
H681 C673 0.960 . S
H682 C674 0.930 . S
H683 C675 0.929 . S
H684 C692 0.929 . S
H685 C694 0.930 . S
H686 C696 0.930 . S
H687 C699 0.929 . S
H688 C702 0.930 . S
H689 C704 0.960 1_556 S
H690 C704 0.960 . S
H691 C704 0.960 . S
C692 H684 0.929 . S
C692 C693 1.377 . S
C692 C694 1.384 . S
C693 C692 1.377 . S
C693 C699 1.390 . S
C694 H685 0.930 . S
C694 C692 1.384 . S
C694 C695 1.372 . S
C695 C694 1.372 . S
C695 C696 1.400 . S
C695 C700 1.490 . S
C696 H686 0.930 . S
C696 C695 1.400 . S
C696 C699 1.386 . S
H697 C713 0.930 . S
H698 C714 0.931 . S
C699 H687 0.929 . S
C699 C693 1.390 . S
C699 C696 1.386 . S
C700 C695 1.490 . S
C700 C702 1.395 . S
C700 C703 1.403 . S
H701 C707 0.930 . S
C702 H688 0.930 . S
C702 C700 1.395 . S
C702 C705 1.403 1_554 S
C703 C700 1.403 . S
C703 C704 1.524 . S
C703 C707 1.400 1_554 S
C704 H689 0.960 1_554 S
C704 H690 0.960 . S
C704 H691 0.960 . S
C704 C703 1.524 . S
C705 C702 1.403 1_556 S
C705 C706 1.392 . S
C705 C709 1.495 . S
C706 C705 1.392 . S
C706 C707 1.385 . S
C706 C708 1.478 . S
C707 H701 0.930 . S
C707 C703 1.400 1_556 S
C707 C706 1.385 . S
C708 C706 1.478 . S
C708 C710 1.381 . S
C708 C714 1.383 . S
C709 C705 1.495 . S
C709 H715 0.959 . S
C709 H716 0.961 . S
C709 H717 0.960 . S
C710 C708 1.381 . S
C710 C711 1.394 . S
C710 H718 0.930 . S
C711 C710 1.394 . S
C711 C712 1.383 . S
C711 H719 0.929 . S
C712 C711 1.383 . S
C712 C713 1.377 . S
C713 H697 0.930 . S
C713 C712 1.377 . S
C713 C714 1.379 . S
C714 H698 0.931 . S
C714 C708 1.383 . S
C714 C713 1.379 . S
H715 C709 0.959 . S
H716 C709 0.961 . S
H717 C709 0.960 . S
H718 C710 0.930 . S
H719 C711 0.929 . S
H720 C728 0.929 . S
H721 C730 0.930 . S
H722 C732 0.930 . S
H723 C735 0.929 . S
H724 C738 0.930 . S
H725 C740 0.960 . S
H726 C740 0.960 . S
H727 C740 0.960 . S
C728 H720 0.929 . S
C728 C729 1.377 . S
C728 C730 1.384 . S
C729 C728 1.377 . S
C729 C735 1.390 . S
C730 H721 0.930 . S
C730 C728 1.384 . S
C730 C731 1.372 . S
C731 C730 1.372 . S
C731 C732 1.400 . S
C731 C736 1.490 . S
C732 H722 0.930 . S
C732 C731 1.400 . S
C732 C735 1.386 . S
H733 C749 0.930 . S
H734 C750 0.931 . S
C735 H723 0.929 . S
C735 C729 1.390 . S
C735 C732 1.386 . S
C736 C731 1.490 . S
C736 C738 1.395 . S
C736 C739 1.403 . S
H737 C743 0.930 . S
C738 H724 0.930 . S
C738 C736 1.395 . S
C738 C741 1.403 . S
C739 C736 1.403 . S
C739 C740 1.524 . S
C739 C743 1.400 . S
C740 H725 0.960 . S
C740 H726 0.960 . S
C740 H727 0.960 . S
C740 C739 1.524 . S
C741 C738 1.403 . S
C741 C742 1.392 . S
C741 C745 1.495 . S
C742 C741 1.392 . S
C742 C743 1.385 . S
C742 C744 1.478 . S
C743 H737 0.930 . S
C743 C739 1.400 . S
C743 C742 1.385 . S
C744 C742 1.478 . S
C744 C746 1.381 . S
C744 C750 1.383 . S
C745 C741 1.495 . S
C745 H751 0.959 . S
C745 H752 0.961 . S
C745 H753 0.960 . S
C746 C744 1.381 . S
C746 C747 1.394 . S
C746 H754 0.930 . S
C747 C746 1.394 . S
C747 C748 1.383 . S
C747 H755 0.929 . S
C748 C747 1.383 . S
C748 C749 1.377 . S
C749 H733 0.930 . S
C749 C748 1.377 . S
C749 C750 1.379 . S
C750 H734 0.931 . S
C750 C744 1.383 . S
C750 C749 1.379 . S
H751 C745 0.959 . S
H752 C745 0.961 . S
H753 C745 0.960 . S
H754 C746 0.930 . S
H755 C747 0.929 . S
H756 C764 0.929 . S
H757 C766 0.930 . S
H758 C768 0.930 . S
H759 C771 0.929 . S
H760 C774 0.930 . S
H761 C776 0.960 . S
H762 C776 0.960 . S
H763 C776 0.960 . S
C764 H756 0.929 . S
C764 C765 1.377 . S
C764 C766 1.384 . S
C765 C764 1.377 . S
C765 C771 1.390 . S
C766 H757 0.930 . S
C766 C764 1.384 . S
C766 C767 1.372 . S
C767 C766 1.372 . S
C767 C768 1.400 . S
C767 C772 1.490 . S
C768 H758 0.930 . S
C768 C767 1.400 . S
C768 C771 1.386 . S
H769 C785 0.930 . S
H770 C786 0.931 . S
C771 H759 0.929 . S
C771 C765 1.390 . S
C771 C768 1.386 . S
C772 C767 1.490 . S
C772 C774 1.395 . S
C772 C775 1.403 . S
H773 C779 0.930 . S
C774 H760 0.930 . S
C774 C772 1.395 . S
C774 C777 1.403 . S
C775 C772 1.403 . S
C775 C776 1.524 . S
C775 C779 1.400 . S
C776 H761 0.960 . S
C776 H762 0.960 . S
C776 H763 0.960 . S
C776 C775 1.524 . S
C777 C774 1.403 . S
C777 C778 1.392 . S
C777 C781 1.495 . S
C778 C777 1.392 . S
C778 C779 1.385 . S
C778 C780 1.478 . S
C779 H773 0.930 . S
C779 C775 1.400 . S
C779 C778 1.385 . S
C780 C778 1.478 . S
C780 C782 1.381 . S
C780 C786 1.383 . S
C781 C777 1.495 . S
C781 H787 0.959 . S
C781 H788 0.961 . S
C781 H789 0.960 . S
C782 C780 1.381 . S
C782 C783 1.394 . S
C782 H790 0.930 . S
C783 C782 1.394 . S
C783 C784 1.383 . S
C783 H791 0.929 . S
C784 C783 1.383 . S
C784 C785 1.377 . S
C785 H769 0.930 . S
C785 C784 1.377 . S
C785 C786 1.379 . S
C786 H770 0.931 . S
C786 C780 1.383 . S
C786 C785 1.379 . S
H787 C781 0.959 . S
H788 C781 0.961 . S
H789 C781 0.960 . S
H790 C782 0.930 . S
H791 C783 0.929 . S
H792 C800 0.929 . S
H793 C802 0.930 . S
H794 C804 0.930 . S
H795 C807 0.929 . S
H796 C810 0.930 . S
H797 C812 0.960 1_655 S
H798 C812 0.960 . S
H799 C812 0.960 . S
C800 H792 0.929 . S
C800 C801 1.377 . S
C800 C802 1.384 . S
C801 C800 1.377 . S
C801 C807 1.390 . S
C802 H793 0.930 . S
C802 C800 1.384 . S
C802 C803 1.372 . S
C803 C802 1.372 . S
C803 C804 1.400 . S
C803 C808 1.490 . S
C804 H794 0.930 . S
C804 C803 1.400 . S
C804 C807 1.386 . S
H805 C821 0.930 . S
H806 C822 0.931 . S
C807 H795 0.929 . S
C807 C801 1.390 . S
C807 C804 1.386 . S
C808 C803 1.490 . S
C808 C810 1.395 . S
C808 C811 1.403 . S
H809 C815 0.930 . S
C810 H796 0.930 . S
C810 C808 1.395 . S
C810 C813 1.403 1_455 S
C811 C808 1.403 . S
C811 C812 1.524 . S
C811 C815 1.400 1_455 S
C812 H797 0.960 1_455 S
C812 H798 0.960 . S
C812 H799 0.960 . S
C812 C811 1.524 . S
C813 C810 1.403 1_655 S
C813 C814 1.392 . S
C813 C817 1.495 . S
C814 C813 1.392 . S
C814 C815 1.385 . S
C814 C816 1.478 . S
C815 H809 0.930 . S
C815 C811 1.400 1_655 S
C815 C814 1.385 . S
C816 C814 1.478 . S
C816 C818 1.381 . S
C816 C822 1.383 . S
C817 C813 1.495 . S
C817 H823 0.959 1_655 S
C817 H824 0.961 . S
C817 H825 0.960 . S
C818 C816 1.381 . S
C818 C819 1.394 . S
C818 H826 0.930 . S
C819 C818 1.394 . S
C819 C820 1.383 . S
C819 H827 0.929 . S
C820 C819 1.383 . S
C820 C821 1.377 . S
C821 H805 0.930 . S
C821 C820 1.377 . S
C821 C822 1.379 . S
C822 H806 0.931 . S
C822 C816 1.383 . S
C822 C821 1.379 . S
H823 C817 0.959 1_455 S
H824 C817 0.961 . S
H825 C817 0.960 . S
H826 C818 0.930 . S
H827 C819 0.929 . S
H828 C836 0.929 . S
H829 C838 0.930 . S
H830 C840 0.930 . S
H831 C843 0.929 . S
H832 C846 0.930 . S
H833 C848 0.960 1_655 S
H834 C848 0.960 . S
H835 C848 0.960 . S
C836 H828 0.929 . S
C836 C837 1.377 . S
C836 C838 1.384 . S
C837 C836 1.377 . S
C837 C843 1.390 . S
C838 H829 0.930 . S
C838 C836 1.384 . S
C838 C839 1.372 . S
C839 C838 1.372 . S
C839 C840 1.400 . S
C839 C844 1.490 . S
C840 H830 0.930 . S
C840 C839 1.400 . S
C840 C843 1.386 . S
H841 C857 0.930 . S
H842 C858 0.931 . S
C843 H831 0.929 . S
C843 C837 1.390 . S
C843 C840 1.386 . S
C844 C839 1.490 . S
C844 C846 1.395 . S
C844 C847 1.403 . S
H845 C851 0.930 . S
C846 H832 0.930 . S
C846 C844 1.395 . S
C846 C849 1.403 1_455 S
C847 C844 1.403 . S
C847 C848 1.524 . S
C847 C851 1.400 1_455 S
C848 H833 0.960 1_455 S
C848 H834 0.960 . S
C848 H835 0.960 . S
C848 C847 1.524 . S
C849 C846 1.403 1_655 S
C849 C850 1.392 . S
C849 C853 1.495 . S
C850 C849 1.392 . S
C850 C851 1.385 . S
C850 C852 1.478 . S
C851 H845 0.930 . S
C851 C847 1.400 1_655 S
C851 C850 1.385 . S
C852 C850 1.478 . S
C852 C854 1.381 . S
C852 C858 1.383 . S
C853 C849 1.495 . S
C853 H859 0.959 1_655 S
C853 H860 0.961 . S
C853 H861 0.960 . S
C854 C852 1.381 . S
C854 C855 1.394 . S
C854 H862 0.930 . S
C855 C854 1.394 . S
C855 C856 1.383 . S
C855 H863 0.929 . S
C856 C855 1.383 . S
C856 C857 1.377 . S
C857 H841 0.930 . S
C857 C856 1.377 . S
C857 C858 1.379 . S
C858 H842 0.931 . S
C858 C852 1.383 . S
C858 C857 1.379 . S
H859 C853 0.959 1_455 S
H860 C853 0.961 . S
H861 C853 0.960 . S
H862 C854 0.930 . S
H863 C855 0.929 . S
C297 C3 1.783 . S
C316 C76 1.791 . S
C333 C112 1.794 . S
C352 C39 1.784 . S
C369 C220 1.794 . S
C388 C147 1.779 . S
C405 C183 1.782 . S
C424 C256 1.791 . S
C441 C38 1.265 . S
C460 C122 1.168 . S
C477 C2 1.269 . S
C496 C86 1.236 . S
C513 C266 1.209 . S
C532 C182 1.274 . S
C549 C146 1.265 . S
C568 C230 1.159 . S
C585 C194 1.446 . S
C604 C110 1.509 . S
C621 C74 1.504 . S
C640 C158 1.464 . S
C657 C50 1.448 . S
C676 C254 1.505 . S
C693 C14 1.457 . S
C712 C218 1.493 . S
C729 C4 1.561 . S
C748 C40 1.557 . S
C765 C75 1.548 . S
C784 C111 1.535 . S
C801 C184 1.562 . S
C820 C148 1.557 . S
C837 C219 1.545 . S
C856 C255 1.546 . S
