# Generated by pormake.
# Topology bcs, (6)-cn, num edge types: 1
# Building blocks:
#     Node 0, Type 0, BuildingBlock: BETDIP_clean_sbu_0, # of connection points: 6
#     Node 1, Type 0, BuildingBlock: BETDIP_clean_sbu_0, # of connection points: 6
#     Node 2, Type 0, BuildingBlock: BETDIP_clean_sbu_0, # of connection points: 6
#     Node 3, Type 0, BuildingBlock: BETDIP_clean_sbu_0, # of connection points: 6
#     Node 4, Type 0, BuildingBlock: BETDIP_clean_sbu_0, # of connection points: 6
#     Node 5, Type 0, BuildingBlock: BETDIP_clean_sbu_0, # of connection points: 6
#     Node 6, Type 0, BuildingBlock: BETDIP_clean_sbu_0, # of connection points: 6
#     Node 7, Type 0, BuildingBlock: BETDIP_clean_sbu_0, # of connection points: 6
#     Node 8, Type 0, BuildingBlock: BETDIP_clean_sbu_0, # of connection points: 6
#     Node 9, Type 0, BuildingBlock: BETDIP_clean_sbu_0, # of connection points: 6
#     Node 10, Type 0, BuildingBlock: BETDIP_clean_sbu_0, # of connection points: 6
#     Node 11, Type 0, BuildingBlock: BETDIP_clean_sbu_0, # of connection points: 6
#     Node 12, Type 0, BuildingBlock: BETDIP_clean_sbu_0, # of connection points: 6
#     Node 13, Type 0, BuildingBlock: BETDIP_clean_sbu_0, # of connection points: 6
#     Node 14, Type 0, BuildingBlock: BETDIP_clean_sbu_0, # of connection points: 6
#     Node 15, Type 0, BuildingBlock: BETDIP_clean_sbu_0, # of connection points: 6
#     Edge 16, Type (0, 0), BuildingBlock: XIVTED_clean_linker_0, # of connection points: 2
#     Edge 17, Type (0, 0), BuildingBlock: XIVTED_clean_linker_0, # of connection points: 2
#     Edge 18, Type (0, 0), BuildingBlock: XIVTED_clean_linker_0, # of connection points: 2
#     Edge 19, Type (0, 0), BuildingBlock: XIVTED_clean_linker_0, # of connection points: 2
#     Edge 20, Type (0, 0), BuildingBlock: XIVTED_clean_linker_0, # of connection points: 2
#     Edge 21, Type (0, 0), BuildingBlock: XIVTED_clean_linker_0, # of connection points: 2
#     Edge 22, Type (0, 0), BuildingBlock: XIVTED_clean_linker_0, # of connection points: 2
#     Edge 23, Type (0, 0), BuildingBlock: XIVTED_clean_linker_0, # of connection points: 2
#     Edge 24, Type (0, 0), BuildingBlock: XIVTED_clean_linker_0, # of connection points: 2
#     Edge 25, Type (0, 0), BuildingBlock: XIVTED_clean_linker_0, # of connection points: 2
#     Edge 26, Type (0, 0), BuildingBlock: XIVTED_clean_linker_0, # of connection points: 2
#     Edge 27, Type (0, 0), BuildingBlock: XIVTED_clean_linker_0, # of connection points: 2
#     Edge 28, Type (0, 0), BuildingBlock: XIVTED_clean_linker_0, # of connection points: 2
#     Edge 29, Type (0, 0), BuildingBlock: XIVTED_clean_linker_0, # of connection points: 2
#     Edge 30, Type (0, 0), BuildingBlock: XIVTED_clean_linker_0, # of connection points: 2
#     Edge 31, Type (0, 0), BuildingBlock: XIVTED_clean_linker_0, # of connection points: 2
#     Edge 32, Type (0, 0), BuildingBlock: XIVTED_clean_linker_0, # of connection points: 2
#     Edge 33, Type (0, 0), BuildingBlock: XIVTED_clean_linker_0, # of connection points: 2
#     Edge 34, Type (0, 0), BuildingBlock: XIVTED_clean_linker_0, # of connection points: 2
#     Edge 35, Type (0, 0), BuildingBlock: XIVTED_clean_linker_0, # of connection points: 2
#     Edge 36, Type (0, 0), BuildingBlock: XIVTED_clean_linker_0, # of connection points: 2
#     Edge 37, Type (0, 0), BuildingBlock: XIVTED_clean_linker_0, # of connection points: 2
#     Edge 38, Type (0, 0), BuildingBlock: XIVTED_clean_linker_0, # of connection points: 2
#     Edge 39, Type (0, 0), BuildingBlock: XIVTED_clean_linker_0, # of connection points: 2
#     Edge 40, Type (0, 0), BuildingBlock: XIVTED_clean_linker_0, # of connection points: 2
#     Edge 41, Type (0, 0), BuildingBlock: XIVTED_clean_linker_0, # of connection points: 2
#     Edge 42, Type (0, 0), BuildingBlock: XIVTED_clean_linker_0, # of connection points: 2
#     Edge 43, Type (0, 0), BuildingBlock: XIVTED_clean_linker_0, # of connection points: 2
#     Edge 44, Type (0, 0), BuildingBlock: XIVTED_clean_linker_0, # of connection points: 2
#     Edge 45, Type (0, 0), BuildingBlock: XIVTED_clean_linker_0, # of connection points: 2
#     Edge 46, Type (0, 0), BuildingBlock: XIVTED_clean_linker_0, # of connection points: 2
#     Edge 47, Type (0, 0), BuildingBlock: XIVTED_clean_linker_0, # of connection points: 2
#     Edge 48, Type (0, 0), BuildingBlock: XIVTED_clean_linker_0, # of connection points: 2
#     Edge 49, Type (0, 0), BuildingBlock: XIVTED_clean_linker_0, # of connection points: 2
#     Edge 50, Type (0, 0), BuildingBlock: XIVTED_clean_linker_0, # of connection points: 2
#     Edge 51, Type (0, 0), BuildingBlock: XIVTED_clean_linker_0, # of connection points: 2
#     Edge 52, Type (0, 0), BuildingBlock: XIVTED_clean_linker_0, # of connection points: 2
#     Edge 53, Type (0, 0), BuildingBlock: XIVTED_clean_linker_0, # of connection points: 2
#     Edge 54, Type (0, 0), BuildingBlock: XIVTED_clean_linker_0, # of connection points: 2
#     Edge 55, Type (0, 0), BuildingBlock: XIVTED_clean_linker_0, # of connection points: 2
#     Edge 56, Type (0, 0), BuildingBlock: XIVTED_clean_linker_0, # of connection points: 2
#     Edge 57, Type (0, 0), BuildingBlock: XIVTED_clean_linker_0, # of connection points: 2
#     Edge 58, Type (0, 0), BuildingBlock: XIVTED_clean_linker_0, # of connection points: 2
#     Edge 59, Type (0, 0), BuildingBlock: XIVTED_clean_linker_0, # of connection points: 2
#     Edge 60, Type (0, 0), BuildingBlock: XIVTED_clean_linker_0, # of connection points: 2
#     Edge 61, Type (0, 0), BuildingBlock: XIVTED_clean_linker_0, # of connection points: 2
#     Edge 62, Type (0, 0), BuildingBlock: XIVTED_clean_linker_0, # of connection points: 2
#     Edge 63, Type (0, 0), BuildingBlock: XIVTED_clean_linker_0, # of connection points: 2
# Relax obj value: 0.206
# Max RMSD: 0.236
# Mean RMSD: 0.196
data_MOF--net-bcs--node1-BETDIP_clean_sbu_0--edge1-XIVTED_clean_linker_0
_symmetry_space_group_name_H-M    P1
_symmetry_Int_Tables_number       1
_symmetry_cell_setting            triclinic
loop_
_symmetry_equiv_pos_as_xyz
'x, y, z'
_cell_length_a     42.719233
_cell_length_b     43.296452
_cell_length_c     39.457442
_cell_angle_alpha  69.414009
_cell_angle_beta   121.89938
_cell_angle_gamma 115.1506
loop_
_atom_site_label
_atom_site_type_symbol
_atom_site_fract_x
_atom_site_fract_y
_atom_site_fract_z
_atom_type_partial_charge
Tb0 Tb 1.05669 1.01567 0.99415 0.0
Tb1 Tb 0.0965 0.06033 0.0443 0.0
C2 C 1.03433 0.97377 0.94837 0.0
C3 C 1.05282 0.96156 0.93482 0.0
C4 C 0.09265 0.97514 0.94622 0.0
C5 C 0.10993 0.96247 0.93422 0.0
C6 C 0.08773 0.93605 0.91029 0.0
C7 C 1.04767 0.92288 0.89855 0.0
C8 C 1.03048 0.93546 0.91077 0.0
C9 C 1.02359 0.995 0.04634 0.0
C10 C 0.13471 1.00629 0.06797 0.0
C11 C 0.1188 0.10263 0.08958 0.0
C12 C 0.10009 0.11481 0.10289 0.0
C13 C 1.06023 0.10114 0.09127 0.0
C14 C 1.04263 0.11387 0.10278 0.0
C15 C 1.06455 0.14037 0.12659 0.0
C16 C 0.10468 0.15358 0.13865 0.0
C17 C 0.12217 0.14099 0.12681 0.0
C18 C 0.129 0.08077 0.99158 0.0
C19 C 1.01894 0.07001 0.97127 0.0
O20 O 1.03501 1.00605 0.9357 0.0
O21 O 1.04274 0.9649 0.98663 0.0
O22 O 1.05988 1.0068 0.05497 0.0
O23 O 1.00605 0.99629 1.00745 0.0
O24 O 0.11289 1.0051 0.0291 0.0
O25 O 0.13007 1.0247 0.08418 0.0
O26 O 0.11842 0.07042 0.1026 0.0
O27 O 0.11026 0.11123 0.05128 0.0
O28 O 0.09286 0.06919 0.98331 0.0
O29 O 0.14682 0.07947 0.03048 0.0
O30 O 1.04036 0.07043 1.01022 0.0
O31 O 1.02358 0.05195 0.95461 0.0
H32 H 0.11048 0.99537 0.96465 0.0
H33 H 0.14087 0.97299 0.94442 0.0
H34 H 1.02943 0.90299 0.87963 0.0
H35 H 0.99966 0.9247 0.9015 0.0
H36 H 1.04259 0.0808 0.07302 0.0
H37 H 1.01165 0.10331 0.09229 0.0
H38 H 0.12273 0.17353 0.15747 0.0
H39 H 0.15302 0.15182 0.13626 0.0
Tb40 Tb 0.28556 0.76545 0.25965 0.0
Tb41 Tb 0.36647 0.81052 0.27059 0.0
C42 C 0.22138 0.72057 0.23463 0.0
C43 C 0.20796 0.68329 0.23493 0.0
C44 C 0.17476 0.66929 0.2017 0.0
C45 C 0.15571 0.63382 0.20575 0.0
C46 C 0.1688 0.61259 0.24366 0.0
C47 C 0.20622 0.62585 0.27383 0.0
C48 C 0.22555 0.66113 0.26958 0.0
C49 C 0.32775 0.79844 0.32168 0.0
C50 C 0.35511 0.73144 0.30311 0.0
C51 C 0.43197 0.8538 0.29739 0.0
C52 C 0.44688 0.89043 0.30041 0.0
C53 C 0.48536 0.90801 0.30813 0.0
C54 C 0.49713 0.94388 0.29852 0.0
C55 C 0.47017 0.96237 0.28018 0.0
C56 C 0.43375 0.94504 0.2799 0.0
C57 C 0.42195 0.90899 0.28959 0.0
C58 C 0.3238 0.77783 0.20814 0.0
C59 C 0.29629 0.84421 0.22629 0.0
O60 O 0.23901 0.73963 0.21202 0.0
O61 O 0.23826 0.73052 0.26978 0.0
O62 O 0.33885 0.78447 0.30856 0.0
O63 O 0.29044 0.79225 0.30112 0.0
O64 O 0.31757 0.72675 0.28842 0.0
O65 O 0.38021 0.76239 0.3014 0.0
O66 O 0.41436 0.83342 0.3197 0.0
O67 O 0.41342 0.84684 0.26047 0.0
O68 O 0.31316 0.79177 0.22174 0.0
O69 O 0.3611 0.78379 0.22854 0.0
O70 O 0.33412 0.84915 0.24217 0.0
O71 O 0.27119 0.81311 0.22712 0.0
H72 H 0.16175 0.68602 0.17394 0.0
H73 H 0.12807 0.62405 0.18118 0.0
H74 H 0.21833 0.61038 0.30314 0.0
H75 H 0.25224 0.67135 0.29494 0.0
H76 H 0.5052 0.89396 0.31743 0.0
H77 H 0.52541 0.95614 0.29941 0.0
H78 H 0.41265 0.95869 0.2668 0.0
H79 H 0.39239 0.89565 0.28491 0.0
Tb80 Tb 0.56089 1.02668 0.5462 0.0
Tb81 Tb 0.57575 0.04261 0.47479 0.0
C82 C 0.55534 1.0295 0.60522 0.0
C83 C 0.54776 0.05344 0.61689 0.0
C84 C 0.5758 0.06758 0.65225 0.0
C85 C 0.569 0.08941 0.66491 0.0
C86 C 0.53384 0.09726 0.64273 0.0
C87 C 0.50607 0.08366 0.60679 0.0
C88 C 0.513 0.06201 0.59391 0.0
C89 C 0.52082 0.9781 0.50032 0.0
C90 C 0.5198 0.0757 0.46645 0.0
C91 C 0.58057 0.04187 0.41434 0.0
C92 C 0.58842 1.02068 0.3994 0.0
C93 C 0.57548 0.98438 0.40713 0.0
C94 C 0.58147 0.9651 0.39027 0.0
C95 C 0.60052 0.98186 0.36552 0.0
C96 C 0.6139 1.01822 0.35854 0.0
C97 C 0.6078 0.0374 0.37523 0.0
C98 C 0.6154 0.09151 0.52034 0.0
C99 C 0.61688 0.99348 0.55503 0.0
O100 O 0.58806 0.04084 0.60315 0.0
O101 O 0.52667 1.01286 0.57554 0.0
O102 O 0.52864 1.01027 0.48844 0.0
O103 O 0.53347 0.97201 0.53924 0.0
O104 O 0.53267 0.06699 0.5062 0.0
O105 O 0.52964 0.0654 0.44663 0.0
O106 O 0.54834 1.02882 0.41774 0.0
O107 O 0.60967 0.05733 0.44473 0.0
O108 O 0.60775 0.05934 0.53228 0.0
O109 O 0.60294 0.0974 0.48149 0.0
O110 O 0.60442 1.00238 0.51523 0.0
O111 O 0.60676 1.00374 0.57459 0.0
H112 H 0.60293 0.06152 0.67033 0.0
H113 H 0.59123 0.1 0.69219 0.0
H114 H 0.4785 0.08889 0.58918 0.0
H115 H 0.4909 0.05163 0.56637 0.0
H116 H 0.56032 0.97097 0.42567 0.0
H117 H 0.57047 0.93715 0.39589 0.0
H118 H 0.62929 1.03194 0.34026 0.0
H119 H 0.61794 0.0654 0.36895 0.0
Tb120 Tb 0.34179 0.25936 0.77895 0.0
Tb121 Tb 0.30581 0.315 0.75344 0.0
C122 C 0.35927 0.2127 0.77487 0.0
C123 C 0.38399 0.2097 0.76129 0.0
C124 C 0.36676 0.19858 0.72418 0.0
C125 C 0.38902 0.19386 0.71143 0.0
C126 C 0.42901 0.1998 0.73567 0.0
C127 C 0.44641 0.21116 0.77271 0.0
C128 C 0.42411 0.21611 0.78541 0.0
C129 C 0.3821 0.30752 0.82419 0.0
C130 C 0.36461 0.33082 0.71624 0.0
C131 C 0.2879 0.3619 0.75621 0.0
C132 C 0.25957 0.36544 0.76383 0.0
C133 C 0.24574 0.34051 0.79093 0.0
C134 C 0.22202 0.34632 0.80088 0.0
C135 C 0.21169 0.37709 0.78379 0.0
C136 C 0.22434 0.40127 0.75538 0.0
C137 C 0.24812 0.39547 0.74556 0.0
C138 C 0.26587 0.2673 0.70777 0.0
C139 C 0.28296 0.24322 0.81634 0.0
O140 O 0.32965 0.22349 0.74632 0.0
O141 O 0.37626 0.22615 0.80768 0.0
O142 O 0.36237 0.31124 0.78651 0.0
O143 O 0.38287 0.27571 0.83825 0.0
O144 O 0.36403 0.29753 0.73282 0.0
O145 O 0.34585 0.34412 0.72352 0.0
O146 O 0.31391 0.34782 0.78731 0.0
O147 O 0.27445 0.35089 0.72265 0.0
O148 O 0.28514 0.26326 0.74553 0.0
O149 O 0.26552 0.29921 0.69388 0.0
O150 O 0.28078 0.2755 0.79689 0.0
O151 O 0.30462 0.2309 0.81216 0.0
H152 H 0.33584 0.19294 0.70523 0.0
H153 H 0.37462 0.18442 0.68313 0.0
H154 H 0.47721 0.21604 0.79195 0.0
H155 H 0.43824 0.2245 0.8143 0.0
H156 H 0.25413 0.31704 0.80527 0.0
H157 H 0.21236 0.32706 0.82252 0.0
H158 H 0.21732 0.42542 0.74208 0.0
H159 H 0.25859 0.415 0.72464 0.0
Tb160 Tb 1.04235 1.0135 0.52639 0.0
Tb161 Tb 0.10384 0.06377 0.50207 0.0
C162 C 0.99834 0.95883 0.54664 0.0
C163 C 1.00765 0.93548 0.58553 0.0
C164 C 0.97887 0.90636 0.59188 0.0
C165 C 0.98606 0.88799 0.63095 0.0
C166 C 1.02208 0.89853 0.6641 0.0
C167 C 1.05171 0.92628 0.65706 0.0
C168 C 1.04451 0.94468 0.61803 0.0
C169 C 0.08947 0.06332 0.56949 0.0
C170 C 0.12365 0.99946 0.56255 0.0
C171 C 0.14784 0.11825 0.48151 0.0
C172 C 0.13868 0.14197 0.44289 0.0
C173 C 0.16763 0.1711 0.43694 0.0
C174 C 0.16054 0.19008 0.39814 0.0
C175 C 0.12443 0.18017 0.36483 0.0
C176 C 0.09465 0.15232 0.37151 0.0
C177 C 0.10176 0.1333 0.4103 0.0
C178 C 1.05613 1.0139 0.45889 0.0
C179 C 1.02296 0.07822 0.46649 0.0
O180 O 1.01462 0.96024 0.52562 0.0
O181 O 1.00117 0.98953 0.54851 0.0
O182 O 0.09853 0.04747 0.55652 0.0
O183 O 1.0534 0.04963 0.56147 0.0
O184 O 0.08637 0.98684 0.55343 0.0
O185 O 0.13932 1.03244 0.55112 0.0
O186 O 0.13207 0.11695 0.50297 0.0
O187 O 0.14436 0.0875 0.4791 0.0
O188 O 1.04758 1.03008 0.47195 0.0
O189 O 0.09228 1.02712 0.46714 0.0
O190 O 1.06023 0.09071 0.47561 0.0
O191 O 1.0071 0.04518 0.47757 0.0
H192 H 0.95022 0.89913 0.56718 0.0
H193 H 0.96237 0.86744 0.6356 0.0
H194 H 0.07961 0.93506 0.68205 0.0
H195 H 1.06701 0.96738 0.61365 0.0
H196 H 0.19631 0.17794 0.46172 0.0
H197 H 0.18432 0.21067 0.39377 0.0
H198 H 1.06666 0.14402 0.3464 0.0
H199 H 0.07911 0.11062 0.41439 0.0
Tb200 Tb 0.31113 0.78171 0.79832 0.0
Tb201 Tb 0.33737 0.79628 0.73431 0.0
C202 C 0.29535 0.78877 0.84794 0.0
C203 C 0.27146 0.80555 0.84816 0.0
C204 C 0.28965 0.83171 0.87162 0.0
C205 C 0.26785 0.84662 0.8744 0.0
C206 C 0.22718 0.8356 0.85394 0.0
C207 C 0.20897 0.80965 0.83002 0.0
C208 C 0.23082 0.79484 0.8271 0.0
C209 C 0.27131 0.7374 0.74765 0.0
C210 C 0.28127 0.83453 0.71512 0.0
C211 C 0.35594 0.79145 0.68578 0.0
C212 C 0.37601 0.7715 0.68405 0.0
C213 C 0.35679 0.73784 0.67454 0.0
C214 C 0.3754 0.72054 0.6701 0.0
C215 C 0.41366 0.73645 0.67501 0.0
C216 C 0.43295 0.7699 0.68507 0.0
C217 C 0.41433 0.78722 0.68935 0.0
C218 C 0.37626 0.84093 0.78443 0.0
C219 C 0.3651 0.74235 0.81613 0.0
O220 O 0.32525 0.80936 0.84138 0.0
O221 O 0.27736 0.76194 0.82948 0.0
O222 O 0.28481 0.76962 0.73915 0.0
O223 O 0.27764 0.72909 0.78522 0.0
O224 O 0.28626 0.82242 0.75297 0.0
O225 O 0.29553 0.82506 0.69892 0.0
O226 O 0.32193 0.77497 0.68524 0.0
O227 O 0.37727 0.81359 0.71103 0.0
O228 O 0.36363 0.80862 0.79337 0.0
O229 O 0.36932 0.84907 0.74673 0.0
O230 O 0.35677 0.7519 0.77722 0.0
O231 O 0.35511 0.7553 0.83354 0.0
H232 H 0.32087 0.84031 0.88845 0.0
H233 H 0.28295 0.86616 0.89353 0.0
H234 H 0.17776 0.8008 0.81343 0.0
H235 H 0.2158 0.77477 0.80868 0.0
H236 H 0.32718 0.72498 0.66996 0.0
H237 H 0.35974 0.69468 0.66272 0.0
H238 H 0.46214 0.78324 0.68845 0.0
H239 H 0.4298 0.81331 0.69606 0.0
Tb240 Tb 0.58002 0.99401 0.04398 0.0
Tb241 Tb 0.57115 0.06689 1.00904 0.0
C242 C 0.58511 0.93603 0.0508 0.0
C243 C 0.5973 0.92286 0.03087 0.0
C244 C 0.5818 0.92746 0.98848 0.0
C245 C 0.59517 0.91592 0.97073 0.0
C246 C 0.62445 0.89958 0.9949 0.0
C247 C 0.63991 0.8953 0.03731 0.0
C248 C 0.62642 0.90663 0.05495 0.0
C249 C 0.63461 0.04263 0.08719 0.0
C250 C 0.60479 0.04304 0.97441 0.0
C251 C 0.56702 0.12531 1.0025 0.0
C252 C 0.55329 0.13759 0.02152 0.0
C253 C 0.56624 0.17271 0.02423 0.0
C254 C 0.55241 0.18458 0.04112 0.0
C255 C 0.52543 0.1615 0.05595 0.0
C256 C 0.51309 0.12618 0.05371 0.0
C257 C 0.52661 0.11445 0.03648 0.0
C258 C 0.51667 1.01886 0.96511 0.0
C259 C 0.54522 1.01708 0.07796 0.0
O260 O 0.55268 0.94399 0.02893 0.0
O261 O 0.61244 0.95897 0.07396 0.0
O262 O 0.61794 0.04593 0.04909 0.0
O263 O 0.62228 1.01068 0.10238 0.0
O264 O 0.59182 1.01166 0.99198 0.0
O265 O 0.6057 0.07128 0.98142 0.0
O266 O 0.59857 0.11615 0.02639 0.0
O267 O 0.5405 0.10328 0.97784 0.0
O268 O 0.53322 1.01507 1.00331 0.0
O269 O 0.52867 0.05106 0.95049 0.0
O270 O 0.55818 0.04851 0.06042 0.0
O271 O 0.54514 0.98901 0.07148 0.0
H272 H 0.55946 0.94009 0.96899 0.0
H273 H 0.58218 0.9195 0.93804 0.0
H274 H 0.66304 0.88366 0.05717 0.0
H275 H 0.63919 0.90308 0.08766 0.0
H276 H 0.58668 0.19108 1.01278 0.0
H277 H 0.5623 0.21201 0.04171 0.0
H278 H 0.49298 0.1074 0.06538 0.0
H279 H 0.51578 0.08726 0.0345 0.0
Tb280 Tb 0.33054 0.2938 0.22671 0.0
Tb281 Tb 0.31534 0.28197 0.2986 0.0
C282 C 0.35938 0.30231 0.18119 0.0
C283 C 0.38027 0.28621 0.17544 0.0
C284 C 0.40147 0.30636 0.15344 0.0
C285 C 0.4192 0.29154 0.14458 0.0
C286 C 0.4163 0.25618 0.15764 0.0
C287 C 0.39521 0.23597 0.18005 0.0
C288 C 0.37737 0.25087 0.1889 0.0
C289 C 0.26023 0.25717 0.21776 0.0
C290 C 0.35273 0.23267 0.30244 0.0
C291 C 0.286 0.27327 0.3437 0.0
C292 C 0.2659 0.29014 0.34956 0.0
C293 C 0.24384 0.27044 0.37073 0.0
C294 C 0.22685 0.28602 0.37966 0.0
C295 C 0.23139 0.32169 0.36746 0.0
C296 C 0.25327 0.34143 0.34581 0.0
C297 C 0.27035 0.32578 0.33689 0.0
C298 C 0.38571 0.31856 0.30766 0.0
C299 C 0.29361 0.34348 0.22306 0.0
O300 O 0.37803 0.3172 0.2132 0.0
O301 O 0.32345 0.28479 0.17397 0.0
O302 O 0.29124 0.25603 0.24941 0.0
O303 O 0.26785 0.27902 0.1888 0.0
O304 O 0.35786 0.25384 0.27076 0.0
O305 O 0.33154 0.23567 0.31563 0.0
O306 O 0.26719 0.25932 0.31096 0.0
O307 O 0.32233 0.28972 0.35195 0.0
O308 O 0.35468 0.31965 0.27601 0.0
O309 O 0.37801 0.29691 0.33667 0.0
O310 O 0.2887 0.3225 0.25494 0.0
O311 O 0.31432 0.34012 0.20952 0.0
H312 H 0.40347 0.3335 0.14222 0.0
H313 H 0.43433 0.30754 0.12641 0.0
H314 H 0.39244 0.20866 0.19065 0.0
H315 H 0.36077 0.23471 0.20557 0.0
H316 H 0.24051 0.24303 0.38121 0.0
H317 H 0.211 0.27034 0.39717 0.0
H318 H 0.25726 0.36897 0.33587 0.0
H319 H 0.28757 0.34157 0.3208 0.0
Tb320 Tb 0.53999 0.51132 0.02379 0.0
Tb321 Tb 0.60256 0.56331 1.00294 0.0
C322 C 0.49585 0.45616 0.04293 0.0
C323 C 0.5054 0.43337 0.0822 0.0
C324 C 0.47682 0.40448 0.08925 0.0
C325 C 0.48456 0.38652 0.12855 0.0
C326 C 0.52093 0.39714 0.16125 0.0
C327 C 0.55025 0.42484 0.15358 0.0
C328 C 0.54248 0.44288 0.11431 0.0
C329 C 0.58653 0.5591 0.07032 0.0
C330 C 0.62116 0.49743 0.05991 0.0
C331 C 0.64734 0.61888 0.98511 0.0
C332 C 0.63914 0.64343 0.94714 0.0
C333 C 0.66945 0.67035 0.94089 0.0
C334 C 0.66288 0.68921 0.90217 0.0
C335 C 0.62593 0.68154 0.86927 0.0
C336 C 0.59507 0.65597 0.8762 0.0
C337 C 0.60165 0.637 0.91493 0.0
C338 C 0.5563 0.51531 0.95662 0.0
C339 C 0.52104 0.57647 0.96653 0.0
O340 O 0.51326 0.45802 0.02288 0.0
O341 O 0.49726 0.48665 0.04382 0.0
O342 O 0.596 0.54419 0.05676 0.0
O343 O 0.54997 0.54609 0.06003 0.0
O344 O 0.58352 0.4846 0.04891 0.0
O345 O 0.63736 0.53089 0.05109 0.0
O346 O 0.63022 0.61631 1.00578 0.0
O347 O 0.64454 0.58868 0.98192 0.0
O348 O 0.5468 0.53022 0.97012 0.0
O349 O 0.59271 0.52894 0.96628 0.0
O350 O 0.55893 0.58987 0.97922 0.0
O351 O 0.50514 0.54275 0.97372 0.0
H352 H 0.44798 0.39707 0.06488 0.0
H353 H 0.46112 0.36613 0.13376 0.0
H354 H 0.5784 0.43373 0.17821 0.0
H355 H 0.56481 0.46547 0.10942 0.0
H356 H 0.69861 0.67525 0.96526 0.0
H357 H 0.68738 0.70767 0.89731 0.0
H358 H 0.56647 0.64925 0.85127 0.0
H359 H 0.57797 0.61586 0.91913 0.0
Tb360 Tb 0.81197 0.28239 0.29487 0.0
Tb361 Tb 0.83715 0.29711 0.23 0.0
C362 C 0.79518 0.28936 0.34367 0.0
C363 C 0.77158 0.30683 0.34323 0.0
C364 C 0.7894 0.33104 0.3691 0.0
C365 C 0.76749 0.34618 0.37133 0.0
C366 C 0.72707 0.33733 0.34791 0.0
C367 C 0.70931 0.31349 0.32148 0.0
C368 C 0.73128 0.29848 0.31908 0.0
C369 C 0.77603 0.23484 0.24903 0.0
C370 C 0.77733 0.33138 0.20952 0.0
C371 C 0.85456 0.29042 0.18156 0.0
C372 C 0.87799 0.27261 0.18219 0.0
C373 C 0.85999 0.24804 0.15672 0.0
C374 C 0.88175 0.23259 0.15467 0.0
C375 C 0.92221 0.24151 0.17786 0.0
C376 C 0.94014 0.26572 0.20388 0.0
C377 C 0.91833 0.28103 0.2061 0.0
C378 C 0.87329 0.34426 0.27656 0.0
C379 C 0.87156 0.24795 0.3151 0.0
O380 O 0.82617 0.30926 0.33879 0.0
O381 O 0.77671 0.26315 0.32416 0.0
O382 O 0.78608 0.2671 0.23738 0.0
O383 O 0.78343 0.22847 0.28677 0.0
O384 O 0.7836 0.32047 0.24782 0.0
O385 O 0.7922 0.32236 0.19363 0.0
O386 O 0.8231 0.27083 0.18562 0.0
O387 O 0.87317 0.3163 0.20159 0.0
O388 O 0.86306 0.31198 0.28761 0.0
O389 O 0.86577 0.35103 0.23874 0.0
O390 O 0.86501 0.25868 0.27672 0.0
O391 O 0.85703 0.25721 0.33116 0.0
H392 H 0.82034 0.33781 0.38822 0.0
H393 H 0.78216 0.36411 0.39235 0.0
H394 H 0.67836 0.3064 0.30259 0.0
H395 H 0.71656 0.28003 0.29868 0.0
H396 H 0.82902 0.2412 0.13776 0.0
H397 H 0.86694 0.21436 0.13397 0.0
H398 H 0.97113 0.27288 0.2226 0.0
H399 H 0.93321 0.29978 0.22619 0.0
Tb400 Tb 0.08206 0.50986 0.52473 0.0
Tb401 Tb 1.06532 0.57961 0.48998 0.0
C402 C 0.08986 0.45319 0.53142 0.0
C403 C 0.10253 0.44068 0.51138 0.0
C404 C 0.08082 0.43727 0.47017 0.0
C405 C 0.094 0.426 0.45203 0.0
C406 C 0.12931 0.41821 0.47453 0.0
C407 C 0.15082 0.42156 0.51569 0.0
C408 C 0.1375 0.43245 0.53389 0.0
C409 C 0.13368 0.55945 0.56714 0.0
C410 C 0.09963 0.56128 0.45085 0.0
C411 C 1.05551 0.63534 0.48292 0.0
C412 C 1.04455 0.64771 0.50474 0.0
C413 C 1.06515 0.64717 0.54689 0.0
C414 C 1.05258 0.65734 0.56666 0.0
C415 C 1.01889 0.66777 0.54483 0.0
C416 C 0.99863 0.66848 0.50271 0.0
C417 C 1.01141 0.65875 0.48296 0.0
C418 C 1.01359 0.52903 0.44871 0.0
C419 C 1.04766 0.52887 0.56308 0.0
O420 O 1.05671 0.4599 0.50988 0.0
O421 O 0.11653 0.47665 0.55412 0.0
O422 O 0.11578 0.56316 0.52887 0.0
O423 O 0.12492 0.5269 0.58227 0.0
O424 O 0.09337 0.52995 0.47216 0.0
O425 O 0.09569 0.58767 0.45632 0.0
O426 O 0.08963 0.6306 0.50181 0.0
O427 O 1.02848 0.61036 0.46274 0.0
O428 O 1.03186 0.52635 0.48676 0.0
O429 O 1.02222 0.56133 0.43268 0.0
O430 O 1.05701 0.56063 0.54415 0.0
O431 O 1.04905 0.50197 0.55576 0.0
H432 H 1.05379 0.44349 0.45182 0.0
H433 H 0.07685 0.42392 0.4202 0.0
H434 H 0.17783 0.41531 0.53407 0.0
H435 H 0.15474 0.4346 0.5657 0.0
H436 H 0.09062 0.63848 0.56468 0.0
H437 H 1.0687 0.65628 0.59917 0.0
H438 H 0.9729 0.67678 0.48489 0.0
H439 H 0.99498 0.65942 0.45051 0.0
Tb440 Tb 0.83982 0.76117 0.27795 0.0
Tb441 Tb 0.8005 0.81447 0.24843 0.0
C442 C 0.86148 0.71514 0.27929 0.0
C443 C 0.88969 0.7118 0.27118 0.0
C444 C 0.88875 0.72383 0.23271 0.0
C445 C 0.91131 0.71536 0.22368 0.0
C446 C 0.93542 0.69492 0.253 0.0
C447 C 0.9383 0.68505 0.2923 0.0
C448 C 0.91543 0.69322 0.30119 0.0
C449 C 0.87579 0.80921 0.32263 0.0
C450 C 0.86304 0.83226 0.21511 0.0
C451 C 0.77749 0.85997 0.24631 0.0
C452 C 0.74839 0.86218 0.25417 0.0
C453 C 0.75237 0.85456 0.29369 0.0
C454 C 0.72711 0.86056 0.30117 0.0
C455 C 0.69722 0.87416 0.26933 0.0
C456 C 0.69227 0.88029 0.22958 0.0
C457 C 0.71774 0.87454 0.22214 0.0
C458 C 0.76417 0.76575 0.20432 0.0
C459 C 0.77788 0.74339 0.31166 0.0
O460 O 0.83293 0.72592 0.24794 0.0
O461 O 0.87519 0.72856 0.31126 0.0
O462 O 0.85807 0.81316 0.28468 0.0
O463 O 0.8766 0.77747 0.33726 0.0
O464 O 0.86573 0.80023 0.2351 0.0
O465 O 0.83999 0.8439 0.21789 0.0
O466 O 0.80658 0.84999 0.27768 0.0
O467 O 0.76448 0.84645 0.21465 0.0
O468 O 0.78229 0.76249 0.24214 0.0
O469 O 0.76296 0.79734 0.18937 0.0
O470 O 0.77665 0.77607 0.29335 0.0
O471 O 0.79921 0.73119 0.30691 0.0
H472 H 0.86933 0.73843 0.20898 0.0
H473 H 0.90807 0.72319 0.19302 0.0
H474 H 0.95722 0.66993 0.31583 0.0
H475 H 0.91675 0.68384 0.33112 0.0
H476 H 0.77572 0.84504 0.31912 0.0
H477 H 0.73221 0.85599 0.33223 0.0
H478 H 0.6692 0.89024 0.20426 0.0
H479 H 0.71406 0.88063 0.19139 0.0
Tb480 Tb 0.7894 0.26341 0.77272 0.0
Tb481 Tb 0.85662 0.31139 0.75592 0.0
C482 C 0.72195 0.22411 0.75627 0.0
C483 C 0.70437 0.18709 0.75532 0.0
C484 C 0.66632 0.17146 0.74989 0.0
C485 C 0.65216 0.13555 0.75768 0.0
C486 C 0.67603 0.11493 0.77094 0.0
C487 C 0.71217 0.13077 0.77054 0.0
C488 C 0.72661 0.16673 0.76368 0.0
C489 C 0.84131 0.30506 0.82562 0.0
C490 C 0.86021 0.23574 0.81121 0.0
C491 C 0.92421 0.3504 0.77296 0.0
C492 C 0.94239 0.38708 0.77581 0.0
C493 C 0.98117 0.40217 0.78379 0.0
C494 C 0.99652 0.43804 0.7783 0.0
C495 C 0.97314 0.4592 0.76478 0.0
C496 C 0.93603 0.44363 0.76287 0.0
C497 C 0.9204 0.40772 0.76735 0.0
C498 C 0.80471 0.26959 0.70305 0.0
C499 C 0.78606 0.33925 0.7177 0.0
O500 O 0.73438 0.2418 0.72891 0.0
O501 O 0.74687 0.23255 0.79232 0.0
O502 O 0.82992 0.31185 0.788 0.0
O503 O 0.82031 0.27442 0.83492 0.0
O504 O 0.82379 0.22736 0.80396 0.0
O505 O 0.87759 0.26644 0.79559 0.0
O506 O 0.9119 0.33167 0.80021 0.0
O507 O 0.89902 0.34322 0.73641 0.0
O508 O 0.81616 0.26297 0.74067 0.0
O509 O 0.82586 0.30016 0.69378 0.0
O510 O 0.82255 0.34755 0.72528 0.0
O511 O 0.7684 0.30843 0.7329 0.0
H512 H 0.64869 0.18696 0.74296 0.0
H513 H 0.6243 0.12447 0.75796 0.0
H514 H 0.73106 0.11562 0.78028 0.0
H515 H 0.75617 0.17855 0.76813 0.0
H516 H 0.99861 0.38641 0.79094 0.0
H517 H 1.02508 0.44882 0.77977 0.0
H518 H 0.91746 0.45916 0.75291 0.0
H519 H 0.89031 0.39631 0.76104 0.0
Tb520 Tb 0.8294 0.79193 0.72952 0.0
Tb521 Tb 0.81386 0.78169 0.8009 0.0
C522 C 0.85915 0.80028 0.68491 0.0
C523 C 0.88047 0.78421 0.67969 0.0
C524 C 0.90466 0.80506 0.6611 0.0
C525 C 0.92232 0.7904 0.65191 0.0
C526 C 0.9163 0.7545 0.66119 0.0
C527 C 0.89256 0.73361 0.68058 0.0
C528 C 0.87489 0.74834 0.68986 0.0
C529 C 0.75995 0.75328 0.72196 0.0
C530 C 0.85437 0.73335 0.80778 0.0
C531 C 0.78524 0.77278 0.84686 0.0
C532 C 0.7642 0.78703 0.85483 0.0
C533 C 0.74858 0.7666 0.88194 0.0
C534 C 0.73226 0.78004 0.89417 0.0
C535 C 0.73101 0.81443 0.87965 0.0
C536 C 0.74574 0.83468 0.85136 0.0
C537 C 0.76233 0.82114 0.83921 0.0
C538 C 0.88342 0.82007 0.80839 0.0
C539 C 0.78878 0.84012 0.72225 0.0
O540 O 0.87737 0.81532 0.71674 0.0
O541 O 0.82311 0.78282 0.67724 0.0
O542 O 0.7913 0.75397 0.75368 0.0
O543 O 0.76682 0.7742 0.69217 0.0
O544 O 0.85841 0.75352 0.77517 0.0
O545 O 0.83296 0.73646 0.82064 0.0
O546 O 0.76647 0.75804 0.81471 0.0
O547 O 0.82073 0.79129 0.85322 0.0
O548 O 0.852 0.81953 0.77682 0.0
O549 O 0.87654 0.79911 0.83814 0.0
O550 O 0.78452 0.81994 0.75481 0.0
O551 O 0.81055 0.83714 0.7098 0.0
H552 H 0.90903 0.83269 0.65264 0.0
H553 H 0.93974 0.80705 0.63627 0.0
H554 H 0.88747 0.70588 0.68836 0.0
H555 H 0.85627 0.73166 0.70419 0.0
H556 H 0.74992 0.7403 0.89457 0.0
H557 H 0.72076 0.76337 0.91536 0.0
H558 H 0.74574 0.86135 0.83967 0.0
H559 H 0.77459 0.83756 0.81853 0.0
Tb560 Tb 0.55056 0.51163 0.48772 0.0
Tb561 Tb 0.58825 0.55901 0.53559 0.0
C562 C 0.53056 0.46873 0.44427 0.0
C563 C 0.54923 0.45821 0.42933 0.0
C564 C 0.58919 0.47172 0.44147 0.0
C565 C 0.60669 0.46011 0.42865 0.0
C566 C 0.58458 0.4349 0.4031 0.0
C567 C 0.54436 0.42201 0.3904 0.0
C568 C 0.52696 0.43349 0.40349 0.0
C569 C 0.51754 0.49131 0.54002 0.0
C570 C 0.62907 0.50618 0.56113 0.0
C571 C 0.60805 0.60205 0.5787 0.0
C572 C 0.58864 0.6126 0.59268 0.0
C573 C 0.5506 0.59405 0.58707 0.0
C574 C 0.53206 0.60541 0.59886 0.0
C575 C 0.55114 0.63562 0.61644 0.0
C576 C 0.5895 0.65377 0.62243 0.0
C577 C 0.60798 0.64238 0.61064 0.0
C578 C 0.62133 0.57912 0.48338 0.0
C579 C 0.50927 0.56398 0.46197 0.0
O580 O 0.52727 0.49985 0.4299 0.0
O581 O 0.54195 0.4614 0.48319 0.0
O582 O 0.55367 0.50526 0.54807 0.0
O583 O 0.50038 0.48894 0.50204 0.0
O584 O 0.60811 0.5047 0.52238 0.0
O585 O 0.62293 0.52405 0.57664 0.0
O586 O 0.61114 0.57086 0.59323 0.0
O587 O 0.59736 0.60946 0.53993 0.0
O588 O 0.58516 0.56551 0.47536 0.0
O589 O 0.63848 0.58131 0.52142 0.0
O590 O 0.53057 0.56606 0.50061 0.0
O591 O 0.51551 0.54603 0.44668 0.0
H592 H 0.60697 0.49092 0.46127 0.0
H593 H 0.63774 0.47039 0.43961 0.0
H594 H 0.52618 0.40309 0.37022 0.0
H595 H 0.49604 0.42282 0.39362 0.0
H596 H 0.53514 0.57094 0.5733 0.0
H597 H 0.50279 0.5904 0.59429 0.0
H598 H 0.60504 0.67735 0.63531 0.0
H599 H 0.63728 0.65716 0.61504 0.0
Tb600 Tb 1.07099 0.53355 0.05044 0.0
Tb601 Tb 0.08848 0.5523 0.98096 0.0
C602 C 1.06129 0.53272 0.10818 0.0
C603 C 1.04607 0.55175 0.11751 0.0
C604 C 1.06067 0.58786 0.11513 0.0
C605 C 1.04763 0.60486 0.12713 0.0
C606 C 1.0196 0.58611 0.14148 0.0
C607 C 1.00382 0.55015 0.14192 0.0
C608 C 1.01716 0.53315 0.13037 0.0
C609 C 1.03345 0.48579 1.00388 0.0
C610 C 1.02979 0.58303 0.97058 0.0
C611 C 0.09751 0.5513 0.9235 0.0
C612 C 0.10527 0.52705 0.91239 0.0
C613 C 0.07546 0.5085 0.88088 0.0
C614 C 0.08235 0.48616 0.86906 0.0
C615 C 0.1193 0.48226 0.88806 0.0
C616 C 0.149 0.5003 0.92011 0.0
C617 C 0.14207 0.52251 0.93219 0.0
C618 C 0.12693 0.5995 0.0286 0.0
C619 C 0.12902 0.50264 0.06041 0.0
O620 O 0.09376 0.54953 0.10533 0.0
O621 O 1.03597 0.51342 0.08012 0.0
O622 O 1.04047 0.51805 0.9923 0.0
O623 O 1.04576 0.47923 0.04273 0.0
O624 O 1.04082 0.57267 1.01 0.0
O625 O 1.04211 0.57491 0.95141 0.0
O626 O 1.06376 0.54097 0.92308 0.0
O627 O 0.12534 0.56658 0.95458 0.0
O628 O 0.11931 0.5672 0.03936 0.0
O629 O 0.11487 0.60653 0.98974 0.0
O630 O 0.11628 0.51156 0.02067 0.0
O631 O 0.11855 0.51245 0.08002 0.0
H632 H 0.08287 0.6029 0.10504 0.0
H633 H 1.06075 0.6325 0.12671 0.0
H634 H 0.98142 0.53495 0.15166 0.0
H635 H 1.00526 0.50531 0.13204 0.0
H636 H 1.04679 0.51142 0.86514 0.0
H637 H 1.05878 0.47203 0.84493 0.0
H638 H 0.17789 0.49804 0.9351 0.0
H639 H 0.16568 0.53642 0.9566 0.0
H640 H 0.21695 0.24711 0.81464 0.0
H641 H 0.20401 0.09255 1.00464 0.0
H642 H 0.29239 0.18335 0.87731 0.0
H643 H 0.10374 0.12416 0.91275 0.0
H644 H 0.23897 0.12957 0.96375 0.0
H645 H 0.17947 0.20895 0.85311 0.0
C646 C 0.2262 0.22535 0.83648 0.0
C647 C 0.25904 0.21958 0.84154 0.0
C648 C 0.20932 0.12864 0.95209 0.0
C649 C 0.21464 0.17414 0.88826 0.0
C650 C 0.18883 0.10705 0.97583 0.0
C651 C 0.14969 0.10378 0.96319 0.0
C652 C 0.19202 0.14926 0.91451 0.0
C653 C 0.13325 0.12452 0.92482 0.0
C654 C 0.20422 0.20308 0.85875 0.0
C655 C 0.26791 0.18994 0.87115 0.0
N656 N 0.15414 0.14601 0.9028 0.0
N657 N 0.24671 0.16932 0.89291 0.0
H658 H 0.16732 0.98615 0.15021 0.0
H659 H 0.30459 0.89656 0.16413 0.0
H660 H 0.16773 0.98146 0.04306 0.0
H661 H 0.25002 0.85809 0.24278 0.0
H662 H 0.26838 0.93941 0.12575 0.0
H663 H 0.21138 0.95062 0.19078 0.0
C664 C 0.17701 0.97802 0.13523 0.0
C665 C 0.1636 0.98674 0.09307 0.0
C666 C 0.26482 0.92185 0.15177 0.0
C667 C 0.21463 0.94638 0.13962 0.0
C668 C 0.28571 0.8977 0.17385 0.0
C669 C 0.28036 0.87392 0.20674 0.0
C670 C 0.2392 0.92268 0.16336 0.0
C671 C 0.25502 0.87605 0.21766 0.0
C672 C 0.20206 0.95763 0.15843 0.0
C673 C 0.17712 0.97522 0.07542 0.0
N674 N 0.23558 0.9 0.19623 0.0
N675 N 0.20197 0.95576 0.09875 0.0
H676 H 0.5093 0.90853 0.52075 0.0
H677 H 0.32205 0.86138 0.31409 0.0
H678 H 0.47018 0.98741 0.41972 0.0
H679 H 0.39419 0.79461 0.39029 0.0
H680 H 0.37013 0.90608 0.35685 0.0
H681 H 0.46182 0.8644 0.47747 0.0
C682 C 0.49074 0.91652 0.48941 0.0
C683 C 0.49361 0.9516 0.47376 0.0
C684 C 0.37527 0.88156 0.36429 0.0
C685 C 0.4388 0.9013 0.42434 0.0
C686 C 0.34773 0.856 0.34021 0.0
C687 C 0.35424 0.82433 0.34897 0.0
C688 C 0.40899 0.87496 0.39785 0.0
C689 C 0.38818 0.81873 0.38272 0.0
C690 C 0.46373 0.89138 0.46475 0.0
C691 C 0.46894 0.96061 0.43291 0.0
N692 N 0.41419 0.84369 0.4061 0.0
N693 N 0.44227 0.93559 0.40968 0.0
H694 H 0.42539 0.21545 0.66034 0.0
H695 H 0.55123 0.09444 0.72104 0.0
H696 H 0.4838 0.16586 0.78244 0.0
H697 H 0.49664 0.14709 0.59952 0.0
H698 H 0.5328 0.12549 0.74525 0.0
H699 H 0.45669 0.19559 0.63861 0.0
C700 C 0.44506 0.2006 0.68263 0.0
C701 C 0.45168 0.19197 0.72317 0.0
C702 C 0.52512 0.13051 0.71334 0.0
C703 C 0.48759 0.16912 0.69856 0.0
C704 C 0.53589 0.11294 0.69949 0.0
C705 C 0.52531 0.11802 0.6581 0.0
C706 C 0.5033 0.15314 0.68558 0.0
C707 C 0.5048 0.14188 0.63156 0.0
C708 C 0.46302 0.18936 0.67025 0.0
C709 C 0.47796 0.1732 0.75092 0.0
N710 N 0.4942 0.15835 0.64571 0.0
N711 N 0.49462 0.16207 0.73801 0.0
H712 H 0.10808 0.93714 0.60966 0.0
H713 H 0.28198 0.88311 0.64783 0.0
H714 H 0.19338 1.00758 0.56804 0.0
H715 H 0.22733 0.84085 0.72707 0.0
H716 H 0.24417 0.92441 0.61036 0.0
H717 H 0.1463 0.89685 0.64561 0.0
C718 C 0.13495 0.9442 0.6082 0.0
C719 C 0.14772 0.97586 0.58605 0.0
C720 C 0.24059 0.90601 0.63597 0.0
C721 C 0.19125 0.92954 0.62657 0.0
C722 C 0.26188 0.88236 0.65711 0.0
C723 C 0.2578 0.8586 0.69059 0.0
C724 C 0.21463 0.90529 0.64803 0.0
C725 C 0.23157 0.85885 0.70159 0.0
C726 C 0.15675 0.92119 0.62875 0.0
C727 C 0.18272 0.98357 0.58513 0.0
N728 N 0.21087 0.88167 0.68025 0.0
N729 N 0.2032 0.96042 0.60489 0.0
H730 H 0.39468 0.91059 0.76408 0.0
H731 H 0.48281 0.9495 0.98643 0.0
H732 H 0.40265 0.82883 0.86704 0.0
H733 H 0.49877 1.02561 0.88678 0.0
H734 H 0.4482 0.90454 0.94343 0.0
H735 H 0.42736 0.95305 0.8087 0.0
C736 C 0.40331 0.90159 0.79618 0.0
C737 C 0.39581 0.86621 0.81192 0.0
C738 C 0.45944 0.93111 0.93117 0.0
C739 C 0.43331 0.91474 0.8634 0.0
C740 C 0.47927 0.95664 0.95569 0.0
C741 C 0.49419 0.99112 0.9403 0.0
C742 C 0.45406 0.94046 0.89094 0.0
C743 C 0.48785 0.99932 0.89994 0.0
C744 C 0.42199 0.92585 0.8217 0.0
C745 C 0.40757 0.85595 0.85374 0.0
N746 N 0.46835 0.97423 0.87676 0.0
N747 N 0.42574 0.88016 0.87816 0.0
H748 H 0.45184 0.13806 0.04972 0.0
H749 H 0.4881 0.2825 0.15968 0.0
H750 H 0.56261 0.21413 0.10092 0.0
H751 H 0.38537 0.19471 0.12971 0.0
H752 H 0.51525 0.25884 0.13674 0.0
H753 H 0.42659 0.15915 0.07726 0.0
C754 C 0.47109 0.15898 0.06704 0.0
C755 C 0.50965 0.17417 0.07291 0.0
C756 C 0.48686 0.24462 0.13536 0.0
C757 C 0.48031 0.19902 0.10406 0.0
C758 C 0.47125 0.25819 0.14835 0.0
C759 C 0.43428 0.24065 0.14655 0.0
C760 C 0.46528 0.21336 0.11999 0.0
C761 C 0.41406 0.20901 0.13199 0.0
C762 C 0.45646 0.17116 0.0826 0.0
C763 C 0.53261 0.20181 0.09493 0.0
N764 N 0.42967 0.19656 0.11901 0.0
N765 N 0.5176 0.21335 0.10953 0.0
H766 H 0.1467 0.24802 0.33078 0.0
H767 H 0.22451 0.19166 0.24214 0.0
H768 H 0.0959 0.14395 0.30531 0.0
H769 H 0.21212 0.29408 0.19541 0.0
H770 H 0.17052 0.17303 0.25809 0.0
H771 H 0.16307 0.26733 0.27433 0.0
C772 C 0.13781 0.22951 0.31239 0.0
C773 C 0.12112 0.19423 0.32344 0.0
C774 C 0.17875 0.19935 0.24323 0.0
C775 C 0.13977 0.21587 0.25935 0.0
C776 C 0.2096 0.20991 0.23432 0.0
C777 C 0.22268 0.24436 0.21797 0.0
C778 C 0.16231 0.22391 0.23751 0.0
C779 C 0.20276 0.26728 0.20834 0.0
C780 C 0.14686 0.24053 0.28001 0.0
C781 C 0.10933 0.17133 0.29818 0.0
N782 N 0.17424 0.25695 0.21958 0.0
N783 N 0.12001 0.18234 0.26805 0.0
H784 H 0.99226 0.27397 0.17538 0.0
H785 H 1.00329 0.1054 0.14563 0.0
H786 H 0.90551 0.17442 0.17128 0.0
H787 H 0.08214 0.20758 0.1343 0.0
H788 H 0.97033 0.12936 0.16056 0.0
H789 H 1.02883 0.24912 0.16651 0.0
C790 C 0.98102 0.2468 0.173 0.0
C791 C 0.94557 0.22634 0.174 0.0
C792 C 0.99489 0.14654 0.15488 0.0
C793 C 0.98731 0.19771 0.1634 0.0
C794 C 1.01368 0.13289 0.14606 0.0
C795 C 1.04546 0.15443 0.13811 0.0
C796 C 1.00787 0.18207 0.15599 0.0
C797 C 1.05802 0.18975 0.1404 0.0
C798 C 1.00184 0.23268 0.16765 0.0
C799 C 0.93235 0.19138 0.17015 0.0
N800 N 1.03915 0.20243 0.14894 0.0
N801 N 0.95315 0.17824 0.16501 0.0
H802 H 0.08642 0.60978 0.38211 0.0
H803 H 0.09374 0.60812 0.21838 0.0
H804 H 0.1242 0.51838 0.44007 0.0
H805 H 0.17765 0.55285 0.30072 0.0
H806 H 1.06702 0.58795 0.26569 0.0
H807 H 0.08821 0.60932 0.32163 0.0
C808 C 0.09531 0.58976 0.38214 0.0
C809 C 0.10549 0.56434 0.41617 0.0
C810 C 0.09092 0.57982 0.27315 0.0
C811 C 0.10558 0.56231 0.34638 0.0
C812 C 0.10581 0.59057 0.24558 0.0
C813 C 0.14023 0.58447 0.25696 0.0
C814 C 0.11038 0.56274 0.31188 0.0
C815 C 0.15279 0.56021 0.29199 0.0
C816 C 0.09529 0.58886 0.34719 0.0
C817 C 0.11624 0.53861 0.41442 0.0
N818 N 0.139 0.55139 0.3193 0.0
N819 N 0.11635 0.53844 0.38018 0.0
H820 H 0.63944 0.96422 0.63451 0.0
H821 H 0.77977 0.87923 0.64741 0.0
H822 H 0.65371 0.97223 0.53092 0.0
H823 H 0.74609 0.85788 0.74101 0.0
H824 H 0.7385 0.91716 0.60581 0.0
H825 H 0.68271 0.92884 0.67499 0.0
C826 C 0.65168 0.95858 0.62015 0.0
C827 C 0.64283 0.97134 0.5791 0.0
C828 C 0.74033 0.90425 0.63553 0.0
C829 C 0.6929 0.93052 0.62582 0.0
C830 C 0.76406 0.88275 0.65944 0.0
C831 C 0.76656 0.86536 0.69792 0.0
C832 C 0.71914 0.90856 0.6503 0.0
C833 C 0.74524 0.87074 0.71167 0.0
C834 C 0.67645 0.93824 0.64342 0.0
C835 C 0.65964 0.96291 0.5624 0.0
N836 N 0.72251 0.89181 0.68792 0.0
N837 N 0.68399 0.94307 0.58588 0.0
H838 H 0.57807 0.46279 0.96084 0.0
H839 H 0.38316 0.3744 0.79493 0.0
H840 H 0.4784 0.49582 0.91427 0.0
H841 H 0.43977 0.30778 0.90238 0.0
H842 H 0.42511 0.42372 0.83044 0.0
H843 H 0.53489 0.40918 0.9321 0.0
C844 C 0.54715 0.45875 0.94435 0.0
C845 C 0.53148 0.48357 0.93931 0.0
C846 C 0.42804 0.39822 0.84627 0.0
C847 C 0.48282 0.42336 0.90666 0.0
C848 C 0.40404 0.37004 0.82623 0.0
C849 C 0.40738 0.33687 0.8462 0.0
C850 C 0.45653 0.3934 0.88602 0.0
C851 C 0.43603 0.33296 0.88624 0.0
C852 C 0.52272 0.42822 0.92849 0.0
C853 C 0.49137 0.47721 0.91843 0.0
N854 N 0.46002 0.36114 0.90491 0.0
N855 N 0.46832 0.44785 0.90221 0.0
H856 H 0.87798 0.87655 0.29401 0.0
H857 H 0.07474 0.96006 0.46134 0.0
H858 H 0.93199 0.80828 0.40116 0.0
H859 H 0.97824 0.99701 0.41674 0.0
H860 H 1.02929 0.90743 0.43134 0.0
H861 H 0.921 0.92541 0.33039 0.0
C862 C 0.89842 0.87176 0.32541 0.0
C863 C 0.90087 0.8383 0.34503 0.0
C864 C 1.01831 0.92712 0.42843 0.0
C865 C 0.9512 0.89412 0.38575 0.0
C866 C 1.04403 0.95707 0.44504 0.0
C867 C 1.02989 0.98268 0.44097 0.0
C868 C 0.97869 0.92364 0.40679 0.0
C869 C 0.99001 0.97772 0.42021 0.0
C870 C 0.92304 0.89963 0.34594 0.0
C871 C 0.92897 0.83371 0.38525 0.0
N872 N 0.96567 0.94889 0.40322 0.0
N873 N 0.9536 0.86155 0.40432 0.0
H874 H 0.5809 0.66673 0.68199 0.0
H875 H 0.38219 0.69747 0.61622 0.0
H876 H 0.47498 0.63473 0.57589 0.0
H877 H 0.48943 0.73569 0.71792 0.0
H878 H 0.41495 0.6713 0.60362 0.0
H879 H 0.54747 0.68979 0.69755 0.0
C880 C 0.55066 0.66455 0.66186 0.0
C881 C 0.53087 0.64868 0.62743 0.0
C882 C 0.43134 0.68531 0.62879 0.0
C883 C 0.49219 0.67483 0.64552 0.0
C884 C 0.41253 0.70009 0.63621 0.0
C885 C 0.43298 0.71894 0.66819 0.0
C886 C 0.471 0.68924 0.65353 0.0
C887 C 0.47251 0.72183 0.69258 0.0
C888 C 0.53153 0.6776 0.67095 0.0
C889 C 0.49146 0.64622 0.60304 0.0
N890 N 0.49017 0.70722 0.68473 0.0
N891 N 0.47354 0.65917 0.61249 0.0
H892 H 0.5677 1.00042 0.91982 0.0
H893 H 0.72875 0.09207 0.84426 0.0
H894 H 0.66795 0.08784 0.96295 0.0
H895 H 0.60759 0.06191 0.7603 0.0
H896 H 0.71244 0.06122 0.89992 0.0
H897 H 0.58824 0.99983 0.87267 0.0
C898 C 0.59409 1.01948 0.91929 0.0
C899 C 0.61599 0.04472 0.94453 0.0
C900 C 0.68961 0.06021 0.86919 0.0
C901 C 0.6402 0.04291 0.89258 0.0
C902 C 0.69881 0.07742 0.8371 0.0
C903 C 0.66911 0.08141 0.79757 0.0
C904 C 0.65074 0.04654 0.86131 0.0
C905 C 0.63114 0.06091 0.79057 0.0
C906 C 0.60585 1.01877 0.89284 0.0
C907 C 0.65001 0.06855 0.94325 0.0
N908 N 0.62267 0.04538 0.82243 0.0
N909 N 0.66117 0.06704 0.91757 0.0
H910 H 0.16326 0.48103 0.03383 0.0
H911 H 0.25544 0.36308 0.24594 0.0
H912 H 0.1547 0.47459 0.14055 0.0
H913 H 0.28439 0.38394 0.14885 0.0
H914 H 0.21731 0.40319 0.20663 0.0
H915 H 0.20621 0.44445 0.07405 0.0
C916 C 0.17039 0.47198 0.06564 0.0
C917 C 0.15525 0.48085 0.08379 0.0
C918 C 0.23223 0.39926 0.19397 0.0
C919 C 0.20424 0.43908 0.12984 0.0
C920 C 0.25412 0.37634 0.2165 0.0
C921 C 0.2733 0.37014 0.20078 0.0
C922 C 0.22901 0.41595 0.15514 0.0
C923 C 0.27026 0.38803 0.16227 0.0
C924 C 0.195 0.45122 0.08859 0.0
C925 C 0.16559 0.46847 0.12517 0.0
N926 N 0.24828 0.40996 0.14061 0.0
N927 N 0.18926 0.44816 0.14666 0.0
H928 H 0.6507 0.74876 0.83545 0.0
H929 H 0.72699 0.68878 0.75166 0.0
H930 H 0.59467 0.64449 0.80984 0.0
H931 H 0.70938 0.78897 0.6949 0.0
H932 H 0.67317 0.67114 0.76768 0.0
H933 H 0.66616 0.76622 0.77859 0.0
C934 C 0.64033 0.72991 0.81682 0.0
C935 C 0.62226 0.69504 0.82779 0.0
C936 C 0.68022 0.69664 0.75058 0.0
C937 C 0.64024 0.71452 0.76361 0.0
C938 C 0.71096 0.70667 0.74166 0.0
C939 C 0.72253 0.74032 0.72246 0.0
C940 C 0.66242 0.72109 0.74197 0.0
C941 C 0.70123 0.76282 0.71011 0.0
C942 C 0.64895 0.73987 0.78429 0.0
C943 C 0.60904 0.67159 0.80258 0.0
N944 N 0.67291 0.75323 0.72141 0.0
N945 N 0.61951 0.68148 0.77244 0.0
H946 H 0.77837 0.38047 0.1428 0.0
H947 H 0.60376 0.43381 0.10387 0.0
H948 H 0.72167 0.33591 0.22024 0.0
H949 H 0.69175 0.50603 0.06693 0.0
H950 H 0.64111 0.39287 0.13862 0.0
H951 H 0.74079 0.42194 0.10587 0.0
C952 C 0.75774 0.37917 0.15169 0.0
C953 C 0.75307 0.35476 0.18456 0.0
C954 C 0.65233 0.41773 0.12304 0.0
C955 C 0.71026 0.40175 0.14267 0.0
C956 C 0.63104 0.44112 0.10318 0.0
C957 C 0.64482 0.47347 0.0827 0.0
C958 C 0.68736 0.42639 0.12182 0.0
C959 C 0.68032 0.48148 0.08273 0.0
C960 C 0.73663 0.40296 0.1309 0.0
C961 C 0.72628 0.35438 0.19516 0.0
N962 N 0.70031 0.45794 0.10176 0.0
N963 N 0.70578 0.37739 0.17417 0.0
H964 H 0.98377 0.45962 0.4734 0.0
H965 H 0.88969 0.41372 0.25304 0.0
H966 H 0.99373 0.53386 0.37004 0.0
H967 H 0.90225 0.33506 0.35929 0.0
H968 H 0.92302 0.45801 0.29558 0.0
H969 H 0.94942 0.41326 0.43242 0.0
C970 C 0.97893 0.46607 0.44222 0.0
C971 C 0.99196 0.50046 0.42517 0.0
C972 C 0.91849 0.43109 0.30973 0.0
C973 C 0.95217 0.44809 0.3781 0.0
C974 C 0.89942 0.40578 0.28541 0.0
C975 C 0.89302 0.37072 0.30268 0.0
C976 C 0.93125 0.42134 0.35176 0.0
C977 C 0.90621 0.36186 0.34478 0.0
C978 C 0.95926 0.43972 0.41885 0.0
C979 C 0.98419 0.50767 0.38441 0.0
N980 N 0.92469 0.38705 0.36798 0.0
N981 N 0.96484 0.48176 0.36233 0.0
H982 H 0.65786 0.65128 0.47538 0.0
H983 H 0.7547 0.67035 0.33376 0.0
H984 H 0.63228 0.56543 0.42488 0.0
H985 H 0.74324 0.7588 0.3471 0.0
H986 H 0.71636 0.63233 0.37111 0.0
H987 H 0.69304 0.68966 0.43486 0.0
C988 C 0.65891 0.64015 0.45549 0.0
C989 C 0.64012 0.60413 0.45388 0.0
C990 C 0.72206 0.66001 0.36612 0.0
C991 C 0.68382 0.64971 0.40662 0.0
C992 C 0.74451 0.68227 0.34445 0.0
C993 C 0.75337 0.71903 0.33606 0.0
C994 C 0.70791 0.67349 0.38159 0.0
C995 C 0.73803 0.73124 0.35177 0.0
C996 C 0.6796 0.66253 0.43208 0.0
C997 C 0.6447 0.5926 0.42741 0.0
N998 N 0.71706 0.70913 0.37344 0.0
N999 N 0.66576 0.61468 0.40581 0.0
H1000 H 0.88271 0.29358 0.90848 0.0
H1001 H 0.9945 0.49581 0.92097 0.0
H1002 H 0.86331 0.37493 0.80511 0.0
H1003 H 1.01193 0.41559 0.02591 0.0
H1004 H 0.94846 0.45152 0.8778 0.0
H1005 H 0.93117 0.3374 0.95224 0.0
C1006 C 0.88874 0.32067 0.89504 0.0
C1007 C 0.8696 0.33072 0.85308 0.0
C1008 C 0.96239 0.44353 0.91027 0.0
C1009 C 0.92485 0.38092 0.90265 0.0
C1010 C 0.98883 0.46885 0.93489 0.0
C1011 C 1.00704 0.45936 0.97706 0.0
C1012 C 0.95393 0.40842 0.92793 0.0
C1013 C 0.99843 0.42403 0.99351 0.0
C1014 C 0.91646 0.34567 0.91993 0.0
C1015 C 0.87833 0.36611 0.83716 0.0
N1016 N 0.97243 0.39987 0.96896 0.0
N1017 N 0.90528 0.38989 0.86185 0.0
H1018 H 0.85219 0.89086 0.15313 0.0
H1019 H 1.04971 0.95352 0.12598 0.0
H1020 H 0.93167 0.83084 0.2192 0.0
H1021 H 0.94728 0.98074 0.03198 0.0
H1022 H 1.01289 0.91499 0.16531 0.0
H1023 H 0.88996 0.92832 0.11505 0.0
C1024 C 0.87755 0.8852 0.16014 0.0
C1025 C 0.88744 0.85636 0.19046 0.0
C1026 C 0.99825 0.92944 0.13617 0.0
C1027 C 0.93356 0.90188 0.14553 0.0
C1028 C 1.01972 0.95204 0.11334 0.0
C1029 C 1.00265 0.97166 0.07446 0.0
C1030 C 0.95863 0.92602 0.12155 0.0
C1031 C 0.96285 0.96698 0.06122 0.0
C1032 C 0.89952 0.90708 0.13786 0.0
C1033 C 0.92158 0.85194 0.19663 0.0
N1034 N 0.9431 0.94563 0.0842 0.0
N1035 N 0.94288 0.87404 0.17525 0.0
H1036 H 0.91625 0.22999 0.80169 0.0
H1037 H 0.98418 0.09158 0.99693 0.0
H1038 H 0.85232 0.18135 0.87198 0.0
H1039 H 0.99162 0.0966 0.89021 0.0
H1040 H 0.94271 0.12969 0.9571 0.0
H1041 H 0.95162 0.18714 0.83915 0.0
C1042 C 0.9097 0.21035 0.82511 0.0
C1043 C 0.88127 0.20934 0.83373 0.0
C1044 C 0.95316 0.12216 0.94239 0.0
C1045 C 0.92225 0.16044 0.87723 0.0
C1046 C 0.97688 0.10049 0.96507 0.0
C1047 C 0.9913 0.09074 0.94684 0.0
C1048 C 0.94469 0.13506 0.90144 0.0
C1049 C 0.98094 0.1032 0.90545 0.0
C1050 C 0.92978 0.18578 0.8463 0.0
C1051 C 0.87391 0.18305 0.86426 0.0
N1052 N 0.95879 0.12508 0.88433 0.0
N1053 N 0.89462 0.15992 0.88529 0.0
H1054 H 0.78305 0.19979 0.72422 0.0
H1055 H 0.63492 0.16173 0.49767 0.0
H1056 H 0.76434 0.28035 0.61996 0.0
H1057 H 0.65633 0.08216 0.60307 0.0
H1058 H 0.68063 0.2057 0.54149 0.0
H1059 H 0.7353 0.1566 0.68026 0.0
C1060 C 0.76841 0.20836 0.69201 0.0
C1061 C 0.77701 0.24366 0.67579 0.0
C1062 C 0.67524 0.17864 0.55508 0.0
C1063 C 0.72294 0.19429 0.62479 0.0
C1064 C 0.64912 0.15353 0.53009 0.0
C1065 C 0.64173 0.11824 0.54679 0.0
C1066 C 0.6942 0.16841 0.59716 0.0
C1067 C 0.6609 0.10906 0.58894 0.0
C1068 C 0.74141 0.18368 0.66682 0.0
C1069 C 0.7584 0.25334 0.63367 0.0
N1070 N 0.68626 0.13395 0.61262 0.0
N1071 N 0.73215 0.22879 0.60959 0.0
H1072 H 0.59405 0.99617 0.2891 0.0
H1073 H 0.66947 0.8414 0.32615 0.0
H1074 H 0.62025 0.92152 0.39926 0.0
H1075 H 0.67178 0.93137 0.23308 0.0
H1076 H 0.63888 0.86386 0.34612 0.0
H1077 H 0.60989 0.96588 0.26116 0.0
C1078 C 0.60321 0.97343 0.30747 0.0
C1079 C 0.60662 0.96179 0.34695 0.0
C1080 C 0.64574 0.87843 0.32105 0.0
C1081 C 0.62419 0.92669 0.31483 0.0
C1082 C 0.66333 0.86572 0.30971 0.0
C1083 C 0.67372 0.8847 0.27817 0.0
C1084 C 0.63829 0.91024 0.3006 0.0
C1085 C 0.66413 0.91564 0.25735 0.0
C1086 C 0.61197 0.95603 0.29136 0.0
C1087 C 0.61728 0.93147 0.36875 0.0
N1088 N 0.64727 0.92755 0.26916 0.0
N1089 N 0.62604 0.91513 0.35253 0.0
H1090 H 0.927 0.24368 0.30394 0.0
H1091 H 0.95305 0.07004 0.46068 0.0
H1092 H 0.87052 0.19855 0.38161 0.0
H1093 H 1.03947 0.14124 0.42095 0.0
H1094 H 0.91668 0.1123 0.42565 0.0
H1095 H 0.96342 0.20199 0.34093 0.0
C1096 C 0.92243 0.22507 0.329 0.0
C1097 C 0.8958 0.22459 0.33987 0.0
C1098 C 0.94362 0.11853 0.42469 0.0
C1099 C 0.93698 0.17641 0.38189 0.0
C1100 C 0.96417 0.09438 0.44431 0.0
C1101 C 0.99925 0.10212 0.44358 0.0
C1102 C 0.958 0.15027 0.40371 0.0
C1103 C 1.01257 0.13417 0.42231 0.0
C1104 C 0.94327 0.20132 0.3501 0.0
C1105 C 0.89105 0.19993 0.37256 0.0
N1106 N 0.99184 0.15696 0.40306 0.0
N1107 N 0.91122 0.17651 0.39226 0.0
H1108 H 0.748 0.24253 0.16654 0.0
H1109 H 0.65247 0.03921 0.16505 0.0
H1110 H 0.75972 0.16559 0.27415 0.0
H1111 H 0.66961 0.1106 0.06357 0.0
H1112 H 0.68805 0.08644 0.20387 0.0
H1113 H 0.71558 0.19596 0.12633 0.0
C1114 C 0.74409 0.21589 0.1817 0.0
C1115 C 0.75682 0.20783 0.22372 0.0
C1116 C 0.68417 0.09189 0.17315 0.0
C1117 C 0.71924 0.15469 0.17811 0.0
C1118 C 0.66389 0.0649 0.15098 0.0
C1119 C 0.65774 0.07116 0.11091 0.0
C1120 C 0.69839 0.12554 0.15514 0.0
C1121 C 0.67318 0.10492 0.09419 0.0
C1122 C 0.72552 0.18938 0.15878 0.0
C1123 C 0.75035 0.17294 0.24181 0.0
N1124 N 0.69261 0.13101 0.1163 0.0
N1125 N 0.73192 0.14771 0.21892 0.0
H1126 H 0.69012 0.86247 0.83932 0.0
H1127 H 0.64865 0.8418 0.02295 0.0
H1128 H 0.73661 0.79989 0.95615 0.0
H1129 H 0.63315 0.92782 0.92421 0.0
H1130 H 0.67476 0.82269 0.9947 0.0
H1131 H 0.66393 0.88391 0.86599 0.0
C1132 C 0.69505 0.85328 0.87053 0.0
C1133 C 0.71542 0.82886 0.89519 0.0
C1134 C 0.66573 0.8458 0.97919 0.0
C1135 C 0.68473 0.85298 0.92569 0.0
C1136 C 0.65093 0.85695 0.99548 0.0
C1137 C 0.63892 0.88688 0.97643 0.0
C1138 C 0.66834 0.8643 0.94309 0.0
C1139 C 0.64164 0.90448 0.94001 0.0
C1140 C 0.67986 0.86545 0.88566 0.0
C1141 C 0.72033 0.81785 0.93535 0.0
N1142 N 0.65602 0.89296 0.92458 0.0
N1143 N 0.705 0.82977 0.9491 0.0
H1144 H 1.04854 0.93657 0.72109 0.0
H1145 H 0.93384 0.7842 0.83541 0.0
H1146 H 1.0017 0.83116 0.70065 0.0
H1147 H 0.91671 0.88461 0.77895 0.0
H1148 H 0.98746 0.80273 0.81804 0.0
H1149 H 1.03187 0.9172 0.77717 0.0
C1150 C 1.03628 0.90912 0.72949 0.0
C1151 C 1.02533 0.88546 0.7055 0.0
C1152 C 0.9728 0.82097 0.81094 0.0
C1153 C 1.00606 0.8635 0.7691 0.0
C1154 C 0.94233 0.81049 0.82066 0.0
C1155 C 0.92081 0.83292 0.80783 0.0
C1156 C 0.98222 0.85435 0.78962 0.0
C1157 C 0.93259 0.86663 0.78886 0.0
C1158 C 1.02664 0.89819 0.76135 0.0
C1159 C 1.00946 0.85025 0.71774 0.0
N1160 N 0.96246 0.87633 0.78007 0.0
N1161 N 0.99935 0.84033 0.74822 0.0
H1162 H 0.15972 0.802 0.86192 0.0
H1163 H 0.14781 0.97118 0.88946 0.0
H1164 H 0.24173 0.90329 0.85665 0.0
H1165 H 1.07038 0.86874 0.90325 0.0
H1166 H 0.17992 0.94731 0.87322 0.0
H1167 H 0.12384 0.82657 0.87215 0.0
C1168 C 0.17004 0.82947 0.86251 0.0
C1169 C 0.20401 0.85051 0.85851 0.0
C1170 C 0.15584 0.93004 0.87971 0.0
C1171 C 0.16308 0.87885 0.87074 0.0
C1172 C 0.13756 0.94364 0.88927 0.0
C1173 C 0.10641 0.92201 0.89824 0.0
C1174 C 0.14304 0.89444 0.87897 0.0
C1175 C 0.09401 0.88662 0.89635 0.0
C1176 C 0.14962 0.84346 0.86864 0.0
C1177 C 0.21611 0.88588 0.86017 0.0
N1178 N 0.11241 0.87398 0.88713 0.0
N1179 N 0.19576 0.89886 0.86619 0.0
H1180 H 0.9877 0.47977 0.5772 0.0
H1181 H 1.04295 0.51115 0.77887 0.0
H1182 H 0.0824 0.57142 0.61723 0.0
H1183 H 0.92306 0.48459 0.69089 0.0
H1184 H 1.06109 0.53923 0.72355 0.0
H1185 H 0.96619 0.48001 0.62381 0.0
C1186 C 1.00413 0.49954 0.59623 0.0
C1187 C 1.03691 0.52528 0.59405 0.0
C1188 C 1.03072 0.52847 0.71653 0.0
C1189 C 1.01248 0.52629 0.64617 0.0
C1190 C 1.02031 0.51271 0.7481 0.0
C1191 C 0.98172 0.49316 0.73943 0.0
C1192 C 1.00207 0.52461 0.67681 0.0
C1193 C 0.95346 0.49761 0.69913 0.0
C1194 C 0.99153 0.5002 0.62203 0.0
C1195 C 1.05704 0.55096 0.61857 0.0
N1196 N 0.96427 0.51129 0.66901 0.0
N1197 N 1.04483 0.55058 0.64422 0.0
H1198 H 0.48562 0.09746 0.49299 0.0
H1199 H 0.39179 0.21376 0.28008 0.0
H1200 H 0.49422 0.10374 0.38634 0.0
H1201 H 0.36222 0.19244 0.37682 0.0
H1202 H 0.43084 0.17446 0.31989 0.0
H1203 H 0.44221 0.13361 0.45253 0.0
C1204 C 0.47844 0.1064 0.46115 0.0
C1205 C 0.49366 0.09756 0.44307 0.0
C1206 C 0.41559 0.17811 0.33237 0.0
C1207 C 0.44414 0.13883 0.39677 0.0
C1208 C 0.39315 0.20056 0.30955 0.0
C1209 C 0.37352 0.20637 0.32501 0.0
C1210 C 0.41889 0.16152 0.37125 0.0
C1211 C 0.37667 0.18859 0.36359 0.0
C1212 C 0.45355 0.12691 0.43807 0.0
C1213 C 0.48324 0.10981 0.40167 0.0
N1214 N 0.39919 0.16712 0.38554 0.0
N1215 N 0.4593 0.12986 0.38004 0.0
H1216 H 0.56659 0.61319 0.06514 0.0
H1217 H 0.76205 0.69855 0.23456 0.0
H1218 H 0.66395 0.57565 0.11598 0.0
H1219 H 0.70766 0.76545 0.12586 0.0
H1220 H 0.71925 0.64897 0.19944 0.0
H1221 H 0.61096 0.66607 0.09508 0.0
C1222 C 0.59723 0.61606 0.0829 0.0
C1223 C 0.61193 0.59023 0.0887 0.0
C1224 C 0.71702 0.67459 0.18328 0.0
C1225 C 0.66193 0.64959 0.12274 0.0
C1226 C 0.74153 0.70289 0.2031 0.0
C1227 C 0.73897 0.73618 0.18267 0.0
C1228 C 0.68887 0.6795 0.14331 0.0
C1229 C 0.71078 0.74016 0.14239 0.0
C1230 C 0.62236 0.64616 0.09946 0.0
C1231 C 0.65175 0.59509 0.11119 0.0
N1232 N 0.68632 0.71194 0.12397 0.0
N1233 N 0.67546 0.62408 0.12801 0.0
H1234 H 0.26022 0.19938 0.737 0.0
H1235 H 1.06919 0.11647 0.56583 0.0
H1236 H 0.21211 0.26917 0.62805 0.0
H1237 H 0.16743 0.08142 0.61218 0.0
H1238 H 0.11325 0.16919 0.59612 0.0
H1239 H 0.21825 0.15102 0.69973 0.0
C1240 C 0.24126 0.2046 0.70506 0.0
C1241 C 0.24037 0.23837 0.68515 0.0
C1242 C 0.12491 0.14993 0.59928 0.0
C1243 C 0.1911 0.1831 0.64334 0.0
C1244 C 0.09999 0.11992 0.58251 0.0
C1245 C 0.11501 0.09479 0.58708 0.0
C1246 C 0.1646 0.1539 0.62158 0.0
C1247 C 0.15499 0.10034 0.60833 0.0
C1248 C 0.21724 0.17701 0.68404 0.0
C1249 C 0.21395 0.24349 0.64421 0.0
N1250 N 0.17852 0.12917 0.62553 0.0
N1251 N 0.18983 0.21592 0.62454 0.0
H1252 H 0.65675 0.30444 0.34974 0.0
H1253 H 0.64652 0.47071 0.38528 0.0
H1254 H 0.74369 0.40402 0.35568 0.0
H1255 H 0.56607 0.36862 0.39208 0.0
H1256 H 0.67941 0.44774 0.36905 0.0
H1257 H 0.62003 0.32862 0.35921 0.0
C1258 C 0.66799 0.33148 0.35263 0.0
C1259 C 0.70355 0.35214 0.35199 0.0
C1260 C 0.6545 0.43037 0.37399 0.0
C1261 C 0.66164 0.37999 0.36333 0.0
C1262 C 0.63576 0.44344 0.38354 0.0
C1263 C 0.60356 0.42162 0.39063 0.0
C1264 C 0.64107 0.39513 0.37132 0.0
C1265 C 0.59052 0.38665 0.3867 0.0
C1266 C 0.64708 0.34522 0.35832 0.0
C1267 C 0.71677 0.38692 0.35653 0.0
N1268 N 0.60938 0.37453 0.37753 0.0
N1269 N 0.6959 0.39967 0.36203 0.0
H1270 H 0.48415 0.96843 0.09103 0.0
H1271 H 0.53468 1.01869 0.28468 0.0
H1272 H 0.57573 0.06252 0.12787 0.0
H1273 H 0.4162 0.97409 0.20239 0.0
H1274 H 0.55101 0.04087 0.22803 0.0
H1275 H 0.46001 0.97015 0.1345 0.0
C1276 C 0.49925 0.98917 0.10855 0.0
C1277 C 0.53197 1.01513 0.10634 0.0
C1278 C 0.52114 1.02736 0.2222 0.0
C1279 C 0.50458 1.01772 0.15515 0.0
C1280 C 0.5117 1.01511 0.25444 0.0
C1281 C 0.47458 0.99271 0.2487 0.0
C1282 C 0.49304 1.01715 0.18454 0.0
C1283 C 0.44566 0.98993 0.20871 0.0
C1284 C 0.48518 0.99059 0.13265 0.0
C1285 C 0.55035 0.04194 0.12901 0.0
N1286 N 0.45583 1.00048 0.17831 0.0
N1287 N 0.53671 0.04233 0.15298 0.0
H1288 H 1.00542 0.61206 0.89075 0.0
H1289 H 0.86563 0.6947 0.8834 0.0
H1290 H 0.99213 0.60209 0.99563 0.0
H1291 H 0.89432 0.71465 0.78635 0.0
H1292 H 0.90721 0.65688 0.92363 0.0
H1293 H 0.96068 0.64618 0.85112 0.0
C1294 C 0.99311 0.61701 0.90556 0.0
C1295 C 1.00272 0.60414 0.94674 0.0
C1296 C 0.90418 0.66944 0.89345 0.0
C1297 C 0.95098 0.64344 0.90107 0.0
C1298 C 0.88028 0.69087 0.87035 0.0
C1299 C 0.8764 0.70791 0.83137 0.0
C1300 C 0.92417 0.66491 0.87734 0.0
C1301 C 0.89636 0.70215 0.81621 0.0
C1302 C 0.96747 0.63659 0.88279 0.0
C1303 C 0.98567 0.61154 0.96403 0.0
N1304 N 0.91933 0.68123 0.8392 0.0
N1305 N 0.96058 0.6307 0.94109 0.0
H1306 H 0.54969 0.43469 0.21963 0.0
H1307 H 0.43432 0.28144 0.33248 0.0
H1308 H 0.50037 0.32966 0.19728 0.0
H1309 H 0.42123 0.38356 0.28149 0.0
H1310 H 0.48797 0.29988 0.31523 0.0
H1311 H 0.53478 0.41497 0.27703 0.0
C1312 C 0.53726 0.40725 0.22783 0.0
C1313 C 0.52511 0.38383 0.203 0.0
C1314 C 0.47424 0.31848 0.30936 0.0
C1315 C 0.50782 0.36147 0.26807 0.0
C1316 C 0.44374 0.30805 0.31902 0.0
C1317 C 0.42328 0.33104 0.30757 0.0
C1318 C 0.48468 0.35229 0.28941 0.0
C1319 C 0.43623 0.36515 0.29024 0.0
C1320 C 0.52864 0.39611 0.26046 0.0
C1321 C 0.5091 0.3486 0.21505 0.0
N1322 N 0.46605 0.37474 0.28137 0.0
N1323 N 0.49998 0.33851 0.24627 0.0
H1324 H 0.44555 0.5626 0.90891 0.0
H1325 H 0.41779 0.73703 0.89618 0.0
H1326 H 0.5412 0.64311 0.97454 0.0
H1327 H 0.3609 0.68941 0.79053 0.0
H1328 H 0.45549 0.69567 0.9339 0.0
H1329 H 0.40596 0.60231 0.87296 0.0
C1330 C 0.45811 0.58856 0.9158 0.0
C1331 C 0.49668 0.59977 0.94444 0.0
C1332 C 0.43458 0.69431 0.9025 0.0
C1333 C 0.45156 0.64469 0.90442 0.0
C1334 C 0.41298 0.71766 0.88112 0.0
C1335 C 0.38642 0.71663 0.84024 0.0
C1336 C 0.42867 0.66928 0.88307 0.0
C1337 C 0.38137 0.69119 0.82197 0.0
C1338 C 0.43562 0.61114 0.89529 0.0
C1339 C 0.51166 0.63365 0.95232 0.0
N1340 N 0.40212 0.66833 0.8436 0.0
N1341 N 0.48896 0.65487 0.93266 0.0
H1342 H 0.1532 0.55053 0.64622 0.0
H1343 H 0.24607 0.75119 0.66538 0.0
H1344 H 0.16205 0.63026 0.54585 0.0
H1345 H 0.25059 0.66736 0.76583 0.0
H1346 H 0.21317 0.70877 0.61977 0.0
H1347 H 0.18643 0.59421 0.68901 0.0
C1348 C 0.16223 0.57738 0.63313 0.0
C1349 C 0.15454 0.58684 0.59227 0.0
C1350 C 0.22151 0.69973 0.6518 0.0
C1351 C 0.1929 0.63739 0.64147 0.0
C1352 C 0.24037 0.72387 0.67782 0.0
C1353 C 0.2513 0.71266 0.71942 0.0
C1354 C 0.21332 0.66423 0.66762 0.0
C1355 C 0.24265 0.67708 0.73396 0.0
C1356 C 0.18122 0.60239 0.65766 0.0
C1357 C 0.16685 0.62202 0.57703 0.0
N1358 N 0.22418 0.65418 0.70811 0.0
N1359 N 0.18543 0.64616 0.60168 0.0
H1360 H 0.38693 0.31284 0.67084 0.0
H1361 H 0.52481 0.50251 0.61184 0.0
H1362 H 0.39847 0.40398 0.70209 0.0
H1363 H 0.4637 0.42447 0.53641 0.0
H1364 H 0.48923 0.46578 0.6528 0.0
H1365 H 0.42307 0.34996 0.63082 0.0
C1366 C 0.39697 0.34056 0.66979 0.0
C1367 C 0.38833 0.35421 0.69085 0.0
C1368 C 0.48365 0.45632 0.62753 0.0
C1369 C 0.43265 0.39872 0.64396 0.0
C1370 C 0.50456 0.47755 0.60387 0.0
C1371 C 0.49857 0.46744 0.56969 0.0
C1372 C 0.45629 0.42328 0.61872 0.0
C1373 C 0.47051 0.43431 0.56198 0.0
C1374 C 0.41796 0.36213 0.64642 0.0
C1375 C 0.4033 0.39113 0.68695 0.0
N1376 N 0.45147 0.41398 0.58588 0.0
N1377 N 0.42443 0.41134 0.66501 0.0
H1378 H 0.25833 0.7843 0.13969 0.0
H1379 H 0.17641 0.58792 0.10938 0.0
H1380 H 0.32689 0.71431 0.21319 0.0
H1381 H 0.14158 0.66952 1.01028 0.0
H1382 H 0.22571 0.63173 0.15287 0.0
H1383 H 0.20967 0.74061 0.0961 0.0
C1384 C 0.26327 0.75981 0.14626 0.0
C1385 C 0.29673 0.75292 0.17967 0.0
C1386 C 0.20725 0.63997 0.1216 0.0
C1387 C 0.24082 0.70253 0.1308 0.0
C1388 C 0.17897 0.61503 0.09688 0.0
C1389 C 0.15504 0.62519 0.05613 0.0
C1390 C 0.21107 0.67523 0.10564 0.0
C1391 C 0.15959 0.66063 0.04147 0.0
C1392 C 0.2355 0.7349 0.12154 0.0
C1393 C 0.30166 0.72071 0.18732 0.0
N1394 N 0.18692 0.68436 0.06622 0.0
N1395 N 0.27376 0.69649 0.16331 0.0
H1396 H 0.79682 0.39476 0.65941 0.0
H1397 H 0.65398 0.47898 0.642 0.0
H1398 H 0.72862 0.34492 0.7252 0.0
H1399 H 0.6669 0.48607 0.53803 0.0
H1400 H 0.6941 0.43966 0.68124 0.0
H1401 H 0.76144 0.43799 0.62234 0.0
C1402 C 0.77457 0.39299 0.66619 0.0
C1403 C 0.76547 0.36599 0.69524 0.0
C1404 C 0.6884 0.45014 0.64993 0.0
C1405 C 0.72568 0.41581 0.65373 0.0
C1406 C 0.6658 0.47278 0.62763 0.0
C1407 C 0.65706 0.48586 0.58666 0.0
C1408 C 0.70319 0.44115 0.63147 0.0
C1409 C 0.67283 0.47656 0.5695 0.0
C1410 C 0.75438 0.41759 0.64499 0.0
C1411 C 0.73634 0.36503 0.70279 0.0
N1412 N 0.69526 0.45495 0.59198 0.0
N1413 N 0.71775 0.38967 0.68245 0.0
H1414 H 0.94341 0.63012 0.27773 0.0
H1415 H 1.01233 0.65185 0.11602 0.0
H1416 H 0.96864 0.72713 0.20075 0.0
H1417 H 1.00211 0.56038 0.20557 0.0
H1418 H 0.99691 0.6803 0.14649 0.0
H1419 H 0.96678 0.60496 0.25264 0.0
C1420 C 0.95453 0.64641 0.25609 0.0
C1421 C 0.95393 0.68086 0.2413 0.0
C1422 C 0.99813 0.65401 0.15943 0.0
C1423 C 0.97966 0.65168 0.21135 0.0
C1424 C 1.00702 0.63774 0.14213 0.0
C1425 C 1.00851 0.60354 0.15813 0.0
C1426 C 0.99046 0.63592 0.19284 0.0
C1427 C 1.00053 0.58644 0.1915 0.0
C1428 C 0.96752 0.63184 0.24141 0.0
C1429 C 0.96795 0.70031 0.21253 0.0
N1430 N 0.99189 0.6028 0.20769 0.0
N1431 N 0.97995 0.68535 0.19822 0.0
H1432 H 0.9446 0.64828 0.5341 0.0
H1433 H 0.98992 0.77758 0.66824 0.0
H1434 H 1.06021 0.71002 0.60259 0.0
H1435 H 0.88182 0.69676 0.62544 0.0
H1436 H 1.01588 0.75471 0.64295 0.0
H1437 H 0.92069 0.66712 0.56545 0.0
C1438 C 0.96499 0.66583 0.55576 0.0
C1439 C 1.00449 0.67772 0.56552 0.0
C1440 C 0.98658 0.7418 0.63936 0.0
C1441 C 0.97719 0.69955 0.6016 0.0
C1442 C 0.97167 0.75493 0.65366 0.0
C1443 C 0.93353 0.73914 0.64892 0.0
C1444 C 0.96311 0.71287 0.61959 0.0
C1445 C 0.91143 0.70963 0.6301 0.0
C1446 C 0.95133 0.67644 0.57382 0.0
C1447 C 1.02958 0.70006 0.59426 0.0
N1448 N 0.92638 0.6977 0.61582 0.0
N1449 N 1.01549 0.71049 0.61097 0.0
H1450 H 0.48003 0.58581 0.37999 0.0
H1451 H 0.3404 0.67586 0.35976 0.0
H1452 H 0.47324 0.58696 0.48476 0.0
H1453 H 0.40597 0.71961 0.29149 0.0
H1454 H 0.374 0.63108 0.39756 0.0
H1455 H 0.43762 0.6229 0.33871 0.0
C1456 C 0.46912 0.59337 0.3942 0.0
C1457 C 0.48034 0.58333 0.43595 0.0
C1458 C 0.38058 0.6503 0.37394 0.0
C1459 C 0.43134 0.6254 0.38869 0.0
C1460 C 0.36127 0.67561 0.35223 0.0
C1461 C 0.37056 0.70146 0.32259 0.0
C1462 C 0.40843 0.65035 0.36501 0.0
C1463 C 0.39812 0.70022 0.31426 0.0
C1464 C 0.44509 0.61466 0.37066 0.0
C1465 C 0.46547 0.5942 0.45273 0.0
N1466 N 0.41591 0.67508 0.33516 0.0
N1467 N 0.44166 0.61455 0.42906 0.0
H1468 H 0.15309 0.40693 0.73839 0.0
H1469 H 0.16143 0.43635 0.93236 0.0
H1470 H 0.22296 0.367 0.86141 0.0
H1471 H 0.09597 0.48014 0.80956 0.0
H1472 H 0.17826 0.40489 0.90659 0.0
H1473 H 0.12526 0.42763 0.76347 0.0
C1474 C 0.16233 0.40227 0.77065 0.0
C1475 C 0.19065 0.38551 0.79787 0.0
C1476 C 0.15988 0.4211 0.88526 0.0
C1477 C 0.15901 0.40915 0.82682 0.0
C1478 C 0.15044 0.43917 0.89997 0.0
C1479 C 0.12735 0.46092 0.87305 0.0
C1480 C 0.14632 0.425 0.84334 0.0
C1481 C 0.11343 0.46329 0.83136 0.0
C1482 C 0.14638 0.41402 0.78496 0.0
C1483 C 0.20107 0.37963 0.83931 0.0
N1484 N 0.12336 0.44576 0.8178 0.0
N1485 N 0.18555 0.39177 0.85255 0.0
H1486 H 0.15897 0.29813 0.36337 0.0
H1487 H 0.20299 0.4388 0.48287 0.0
H1488 H 0.26511 0.38224 0.39788 0.0
H1489 H 0.08869 0.3706 0.42299 0.0
H1490 H 0.22688 0.41723 0.45403 0.0
H1491 H 0.13325 0.32304 0.38671 0.0
C1492 C 0.17685 0.32191 0.37575 0.0
C1493 C 0.21435 0.33805 0.37873 0.0
C1494 C 0.19653 0.4071 0.447 0.0
C1495 C 0.18505 0.3667 0.40578 0.0
C1496 C 0.18289 0.41926 0.46365 0.0
C1497 C 0.14376 0.40641 0.45552 0.0
C1498 C 0.17102 0.38151 0.42231 0.0
C1499 C 0.11901 0.38143 0.42991 0.0
C1500 C 0.16206 0.3362 0.38893 0.0
C1501 C 0.23598 0.36904 0.39468 0.0
N1502 N 0.13309 0.36961 0.41453 0.0
N1503 N 0.22117 0.38215 0.40791 0.0
loop_
_geom_bond_atom_site_label_1
_geom_bond_atom_site_label_2
_geom_bond_distance
_geom_bond_site_symmetry_2
_ccdc_geom_bond_type
Tb0 C2 2.817 . S
Tb0 O20 2.484 1_655 S
Tb0 O21 2.440 . S
Tb0 O22 2.658 1_556 S
Tb0 O23 2.409 . S
Tb0 O24 2.378 1_656 S
Tb0 O28 2.325 1_665 S
Tb0 O31 2.341 1_565 S
Tb1 C11 2.838 . S
Tb1 O22 2.325 1_445 S
Tb1 O25 2.341 1_545 S
Tb1 O26 2.484 1_455 S
Tb1 O27 2.440 . S
Tb1 O28 2.658 1_554 S
Tb1 O29 2.409 . S
Tb1 O30 2.378 1_454 S
C2 Tb0 2.817 . S
C2 C3 1.506 1_655 S
C2 O20 1.246 1_655 S
C2 O21 1.276 . S
C3 C2 1.506 1_455 S
C3 C4 1.359 . S
C3 C8 1.348 1_455 S
C4 C3 1.359 . S
C4 C5 1.380 . S
C4 H32 0.929 . S
C5 C4 1.380 . S
C5 C6 1.347 . S
C5 H33 0.931 . S
C6 C5 1.347 . S
C6 C7 1.369 . S
C7 C6 1.369 . S
C7 C8 1.408 1_455 S
C7 H34 0.930 1_455 S
C8 C3 1.348 1_655 S
C8 C7 1.408 1_655 S
C8 H35 0.930 . S
C9 O22 1.281 . S
C9 O23 1.254 1_554 S
C10 O24 1.236 . S
C10 O25 1.266 . S
C11 Tb1 2.838 . S
C11 C12 1.486 1_455 S
C11 O26 1.241 1_455 S
C11 O27 1.301 . S
C12 C11 1.486 1_655 S
C12 C13 1.359 . S
C12 C17 1.348 1_655 S
C13 C12 1.359 . S
C13 C14 1.380 . S
C13 H36 0.929 . S
C14 C13 1.380 . S
C14 C15 1.347 . S
C14 H37 0.931 . S
C15 C14 1.347 . S
C15 C16 1.405 . S
C16 C15 1.405 . S
C16 C17 1.380 1_655 S
C16 H38 0.924 1_655 S
C17 C12 1.348 1_455 S
C17 C16 1.380 1_455 S
C17 H39 0.930 . S
C18 O28 1.281 . S
C18 O29 1.254 1_556 S
C19 O30 1.236 . S
C19 O31 1.266 . S
O20 Tb0 2.484 1_455 S
O20 C2 1.246 1_455 S
O21 Tb0 2.440 . S
O21 C2 1.276 . S
O22 Tb0 2.658 1_554 S
O22 Tb1 2.325 1_665 S
O22 C9 1.281 . S
O23 Tb0 2.409 . S
O23 C9 1.254 1_556 S
O24 Tb0 2.378 1_454 S
O24 C10 1.236 . S
O25 Tb1 2.341 1_565 S
O25 C10 1.266 . S
O26 Tb1 2.484 1_655 S
O26 C11 1.241 1_655 S
O27 Tb1 2.440 . S
O27 C11 1.301 . S
O28 Tb0 2.325 1_445 S
O28 Tb1 2.658 1_556 S
O28 C18 1.281 . S
O29 Tb1 2.409 . S
O29 C18 1.254 1_554 S
O30 Tb1 2.378 1_656 S
O30 C19 1.236 . S
O31 Tb0 2.341 1_545 S
O31 C19 1.266 . S
H32 C4 0.929 . S
H33 C5 0.931 . S
H34 C7 0.930 1_655 S
H35 C8 0.930 . S
H36 C13 0.929 . S
H37 C14 0.931 . S
H38 C16 0.924 1_455 S
H39 C17 0.930 . S
Tb40 C42 2.809 . S
Tb40 O60 2.484 . S
Tb40 O61 2.440 . S
Tb40 O62 2.658 . S
Tb40 O63 2.409 . S
Tb40 O64 2.378 . S
Tb40 O68 2.325 . S
Tb40 O71 2.341 . S
Tb41 C51 2.809 . S
Tb41 O62 2.325 . S
Tb41 O65 2.341 . S
Tb41 O66 2.484 . S
Tb41 O67 2.440 . S
Tb41 O68 2.658 . S
Tb41 O69 2.409 . S
Tb41 O70 2.378 . S
C42 Tb40 2.809 . S
C42 C43 1.514 . S
C42 O60 1.248 . S
C42 O61 1.266 . S
C43 C42 1.514 . S
C43 C44 1.359 . S
C43 C48 1.348 . S
C44 C43 1.359 . S
C44 C45 1.380 . S
C44 H72 0.929 . S
C45 C44 1.380 . S
C45 C46 1.347 . S
C45 H73 0.931 . S
C46 C45 1.347 . S
C46 C47 1.369 . S
C47 C46 1.369 . S
C47 C48 1.408 . S
C47 H74 0.930 . S
C48 C43 1.348 . S
C48 C47 1.408 . S
C48 H75 0.930 . S
C49 O62 1.281 . S
C49 O63 1.254 . S
C50 O64 1.236 . S
C50 O65 1.266 . S
C51 Tb41 2.809 . S
C51 C52 1.514 . S
C51 O66 1.248 . S
C51 O67 1.266 . S
C52 C51 1.514 . S
C52 C53 1.359 . S
C52 C57 1.348 . S
C53 C52 1.359 . S
C53 C54 1.380 . S
C53 H76 0.929 . S
C54 C53 1.380 . S
C54 C55 1.347 . S
C54 H77 0.931 . S
C55 C54 1.347 . S
C55 C56 1.369 . S
C56 C55 1.369 . S
C56 C57 1.408 . S
C56 H78 0.930 . S
C57 C52 1.348 . S
C57 C56 1.408 . S
C57 H79 0.930 . S
C58 O68 1.281 . S
C58 O69 1.254 . S
C59 O70 1.236 . S
C59 O71 1.266 . S
O60 Tb40 2.484 . S
O60 C42 1.248 . S
O61 Tb40 2.440 . S
O61 C42 1.266 . S
O62 Tb40 2.658 . S
O62 Tb41 2.325 . S
O62 C49 1.281 . S
O63 Tb40 2.409 . S
O63 C49 1.254 . S
O64 Tb40 2.378 . S
O64 C50 1.236 . S
O65 Tb41 2.341 . S
O65 C50 1.266 . S
O66 Tb41 2.484 . S
O66 C51 1.248 . S
O67 Tb41 2.440 . S
O67 C51 1.266 . S
O68 Tb40 2.325 . S
O68 Tb41 2.658 . S
O68 C58 1.281 . S
O69 Tb41 2.409 . S
O69 C58 1.254 . S
O70 Tb41 2.378 . S
O70 C59 1.236 . S
O71 Tb40 2.341 . S
O71 C59 1.266 . S
H72 C44 0.929 . S
H73 C45 0.931 . S
H74 C47 0.930 . S
H75 C48 0.930 . S
H76 C53 0.929 . S
H77 C54 0.931 . S
H78 C56 0.930 . S
H79 C57 0.930 . S
Tb80 C82 2.809 1_565 S
Tb80 O100 2.484 1_565 S
Tb80 O101 2.440 . S
Tb80 O102 2.658 . S
Tb80 O103 2.409 . S
Tb80 O104 2.378 1_565 S
Tb80 O108 2.325 1_565 S
Tb80 O111 2.341 . S
Tb81 C91 2.809 1_545 S
Tb81 O102 2.325 1_545 S
Tb81 O105 2.341 . S
Tb81 O106 2.484 1_545 S
Tb81 O107 2.440 . S
Tb81 O108 2.658 . S
Tb81 O109 2.409 . S
Tb81 O110 2.378 1_545 S
C82 Tb80 2.809 1_545 S
C82 C83 1.514 . S
C82 O100 1.248 . S
C82 O101 1.266 1_545 S
C83 C82 1.514 . S
C83 C84 1.359 . S
C83 C88 1.348 . S
C84 C83 1.359 . S
C84 C85 1.380 . S
C84 H112 0.929 . S
C85 C84 1.380 . S
C85 C86 1.347 . S
C85 H113 0.931 . S
C86 C85 1.347 . S
C86 C87 1.369 . S
C87 C86 1.369 . S
C87 C88 1.408 . S
C87 H114 0.930 . S
C88 C83 1.348 . S
C88 C87 1.408 . S
C88 H115 0.930 1_545 S
C89 O102 1.281 . S
C89 O103 1.254 . S
C90 O104 1.236 . S
C90 O105 1.266 . S
C91 Tb81 2.809 1_565 S
C91 C92 1.514 . S
C91 O106 1.248 . S
C91 O107 1.266 1_565 S
C92 C91 1.514 . S
C92 C93 1.359 . S
C92 C97 1.348 . S
C93 C92 1.359 . S
C93 C94 1.380 . S
C93 H116 0.929 . S
C94 C93 1.380 . S
C94 C95 1.347 . S
C94 H117 0.931 . S
C95 C94 1.347 . S
C95 C96 1.369 . S
C96 C95 1.369 . S
C96 C97 1.408 . S
C96 H118 0.930 . S
C97 C92 1.348 . S
C97 C96 1.408 . S
C97 H119 0.930 1_565 S
C98 O108 1.281 . S
C98 O109 1.254 . S
C99 O110 1.236 . S
C99 O111 1.266 . S
O100 Tb80 2.484 1_545 S
O100 C82 1.248 . S
O101 Tb80 2.440 . S
O101 C82 1.266 1_565 S
O102 Tb80 2.658 . S
O102 Tb81 2.325 1_565 S
O102 C89 1.281 . S
O103 Tb80 2.409 . S
O103 C89 1.254 . S
O104 Tb80 2.378 1_545 S
O104 C90 1.236 . S
O105 Tb81 2.341 . S
O105 C90 1.266 . S
O106 Tb81 2.484 1_565 S
O106 C91 1.248 . S
O107 Tb81 2.440 . S
O107 C91 1.266 1_545 S
O108 Tb80 2.325 1_545 S
O108 Tb81 2.658 . S
O108 C98 1.281 . S
O109 Tb81 2.409 . S
O109 C98 1.254 . S
O110 Tb81 2.378 1_565 S
O110 C99 1.236 . S
O111 Tb80 2.341 . S
O111 C99 1.266 . S
H112 C84 0.929 . S
H113 C85 0.931 . S
H114 C87 0.930 . S
H115 C88 0.930 1_565 S
H116 C93 0.929 . S
H117 C94 0.931 . S
H118 C96 0.930 . S
H119 C97 0.930 1_545 S
Tb120 C122 2.809 . S
Tb120 O140 2.484 . S
Tb120 O141 2.440 . S
Tb120 O142 2.658 . S
Tb120 O143 2.409 . S
Tb120 O144 2.378 . S
Tb120 O148 2.325 . S
Tb120 O151 2.341 . S
Tb121 C131 2.809 . S
Tb121 O142 2.325 . S
Tb121 O145 2.341 . S
Tb121 O146 2.484 . S
Tb121 O147 2.440 . S
Tb121 O148 2.658 . S
Tb121 O149 2.409 . S
Tb121 O150 2.378 . S
C122 Tb120 2.809 . S
C122 C123 1.514 . S
C122 O140 1.248 . S
C122 O141 1.266 . S
C123 C122 1.514 . S
C123 C124 1.359 . S
C123 C128 1.348 . S
C124 C123 1.359 . S
C124 C125 1.380 . S
C124 H152 0.929 . S
C125 C124 1.380 . S
C125 C126 1.347 . S
C125 H153 0.931 . S
C126 C125 1.347 . S
C126 C127 1.369 . S
C127 C126 1.369 . S
C127 C128 1.408 . S
C127 H154 0.930 . S
C128 C123 1.348 . S
C128 C127 1.408 . S
C128 H155 0.930 . S
C129 O142 1.281 . S
C129 O143 1.254 . S
C130 O144 1.236 . S
C130 O145 1.266 . S
C131 Tb121 2.809 . S
C131 C132 1.514 . S
C131 O146 1.248 . S
C131 O147 1.266 . S
C132 C131 1.514 . S
C132 C133 1.359 . S
C132 C137 1.348 . S
C133 C132 1.359 . S
C133 C134 1.380 . S
C133 H156 0.929 . S
C134 C133 1.380 . S
C134 C135 1.347 . S
C134 H157 0.931 . S
C135 C134 1.347 . S
C135 C136 1.369 . S
C136 C135 1.369 . S
C136 C137 1.408 . S
C136 H158 0.930 . S
C137 C132 1.348 . S
C137 C136 1.408 . S
C137 H159 0.930 . S
C138 O148 1.281 . S
C138 O149 1.254 . S
C139 O150 1.236 . S
C139 O151 1.266 . S
O140 Tb120 2.484 . S
O140 C122 1.248 . S
O141 Tb120 2.440 . S
O141 C122 1.266 . S
O142 Tb120 2.658 . S
O142 Tb121 2.325 . S
O142 C129 1.281 . S
O143 Tb120 2.409 . S
O143 C129 1.254 . S
O144 Tb120 2.378 . S
O144 C130 1.236 . S
O145 Tb121 2.341 . S
O145 C130 1.266 . S
O146 Tb121 2.484 . S
O146 C131 1.248 . S
O147 Tb121 2.440 . S
O147 C131 1.266 . S
O148 Tb120 2.325 . S
O148 Tb121 2.658 . S
O148 C138 1.281 . S
O149 Tb121 2.409 . S
O149 C138 1.254 . S
O150 Tb121 2.378 . S
O150 C139 1.236 . S
O151 Tb120 2.341 . S
O151 C139 1.266 . S
H152 C124 0.929 . S
H153 C125 0.931 . S
H154 C127 0.930 . S
H155 C128 0.930 . S
H156 C133 0.929 . S
H157 C134 0.931 . S
H158 C136 0.930 . S
H159 C137 0.930 . S
Tb160 C162 2.809 . S
Tb160 O180 2.484 . S
Tb160 O181 2.440 . S
Tb160 O182 2.658 1_665 S
Tb160 O183 2.409 1_665 S
Tb160 O184 2.378 1_655 S
Tb160 O188 2.325 . S
Tb160 O191 2.341 1_565 S
Tb161 C171 2.809 . S
Tb161 O182 2.325 . S
Tb161 O185 2.341 1_545 S
Tb161 O186 2.484 . S
Tb161 O187 2.440 . S
Tb161 O188 2.658 1_445 S
Tb161 O189 2.409 1_445 S
Tb161 O190 2.378 1_455 S
C162 Tb160 2.809 . S
C162 C163 1.514 . S
C162 O180 1.248 . S
C162 O181 1.266 . S
C163 C162 1.514 . S
C163 C164 1.359 . S
C163 C168 1.348 . S
C164 C163 1.359 . S
C164 C165 1.380 . S
C164 H192 0.929 . S
C165 C164 1.380 . S
C165 C166 1.347 . S
C165 H193 0.931 . S
C166 C165 1.347 . S
C166 C167 1.369 . S
C167 C166 1.369 . S
C167 C168 1.408 . S
C167 H194 0.930 . S
C168 C163 1.348 . S
C168 C167 1.408 . S
C168 H195 0.930 . S
C169 O182 1.281 . S
C169 O183 1.254 . S
C170 O184 1.236 . S
C170 O185 1.266 . S
C171 Tb161 2.809 . S
C171 C172 1.514 . S
C171 O186 1.248 . S
C171 O187 1.266 . S
C172 C171 1.514 . S
C172 C173 1.359 . S
C172 C177 1.348 . S
C173 C172 1.359 . S
C173 C174 1.380 . S
C173 H196 0.929 . S
C174 C173 1.380 . S
C174 C175 1.347 . S
C174 H197 0.931 . S
C175 C174 1.347 . S
C175 C176 1.369 . S
C176 C175 1.369 . S
C176 C177 1.408 . S
C176 H198 0.930 . S
C177 C172 1.348 . S
C177 C176 1.408 . S
C177 H199 0.930 . S
C178 O188 1.281 . S
C178 O189 1.254 . S
C179 O190 1.236 . S
C179 O191 1.266 . S
O180 Tb160 2.484 . S
O180 C162 1.248 . S
O181 Tb160 2.440 . S
O181 C162 1.266 . S
O182 Tb160 2.658 1_445 S
O182 Tb161 2.325 . S
O182 C169 1.281 . S
O183 Tb160 2.409 1_445 S
O183 C169 1.254 . S
O184 Tb160 2.378 1_455 S
O184 C170 1.236 . S
O185 Tb161 2.341 1_565 S
O185 C170 1.266 . S
O186 Tb161 2.484 . S
O186 C171 1.248 . S
O187 Tb161 2.440 . S
O187 C171 1.266 . S
O188 Tb160 2.325 . S
O188 Tb161 2.658 1_665 S
O188 C178 1.281 . S
O189 Tb161 2.409 1_665 S
O189 C178 1.254 . S
O190 Tb161 2.378 1_655 S
O190 C179 1.236 . S
O191 Tb160 2.341 1_545 S
O191 C179 1.266 . S
H192 C164 0.929 . S
H193 C165 0.931 . S
H194 C167 0.930 . S
H195 C168 0.930 . S
H196 C173 0.929 . S
H197 C174 0.931 . S
H198 C176 0.930 . S
H199 C177 0.930 . S
Tb200 C202 2.809 . S
Tb200 O220 2.484 . S
Tb200 O221 2.440 . S
Tb200 O222 2.658 . S
Tb200 O223 2.409 . S
Tb200 O224 2.378 . S
Tb200 O228 2.325 . S
Tb200 O231 2.341 . S
Tb201 C211 2.809 . S
Tb201 O222 2.325 . S
Tb201 O225 2.341 . S
Tb201 O226 2.484 . S
Tb201 O227 2.440 . S
Tb201 O228 2.658 . S
Tb201 O229 2.409 . S
Tb201 O230 2.378 . S
C202 Tb200 2.809 . S
C202 C203 1.514 . S
C202 O220 1.248 . S
C202 O221 1.266 . S
C203 C202 1.514 . S
C203 C204 1.359 . S
C203 C208 1.348 . S
C204 C203 1.359 . S
C204 C205 1.380 . S
C204 H232 0.929 . S
C205 C204 1.380 . S
C205 C206 1.347 . S
C205 H233 0.931 . S
C206 C205 1.347 . S
C206 C207 1.369 . S
C207 C206 1.369 . S
C207 C208 1.408 . S
C207 H234 0.930 . S
C208 C203 1.348 . S
C208 C207 1.408 . S
C208 H235 0.930 . S
C209 O222 1.281 . S
C209 O223 1.254 . S
C210 O224 1.236 . S
C210 O225 1.266 . S
C211 Tb201 2.809 . S
C211 C212 1.514 . S
C211 O226 1.248 . S
C211 O227 1.266 . S
C212 C211 1.514 . S
C212 C213 1.359 . S
C212 C217 1.348 . S
C213 C212 1.359 . S
C213 C214 1.380 . S
C213 H236 0.929 . S
C214 C213 1.380 . S
C214 C215 1.347 . S
C214 H237 0.931 . S
C215 C214 1.347 . S
C215 C216 1.369 . S
C216 C215 1.369 . S
C216 C217 1.408 . S
C216 H238 0.930 . S
C217 C212 1.348 . S
C217 C216 1.408 . S
C217 H239 0.930 . S
C218 O228 1.281 . S
C218 O229 1.254 . S
C219 O230 1.236 . S
C219 O231 1.266 . S
O220 Tb200 2.484 . S
O220 C202 1.248 . S
O221 Tb200 2.440 . S
O221 C202 1.266 . S
O222 Tb200 2.658 . S
O222 Tb201 2.325 . S
O222 C209 1.281 . S
O223 Tb200 2.409 . S
O223 C209 1.254 . S
O224 Tb200 2.378 . S
O224 C210 1.236 . S
O225 Tb201 2.341 . S
O225 C210 1.266 . S
O226 Tb201 2.484 . S
O226 C211 1.248 . S
O227 Tb201 2.440 . S
O227 C211 1.266 . S
O228 Tb200 2.325 . S
O228 Tb201 2.658 . S
O228 C218 1.281 . S
O229 Tb201 2.409 . S
O229 C218 1.254 . S
O230 Tb201 2.378 . S
O230 C219 1.236 . S
O231 Tb200 2.341 . S
O231 C219 1.266 . S
H232 C204 0.929 . S
H233 C205 0.931 . S
H234 C207 0.930 . S
H235 C208 0.930 . S
H236 C213 0.929 . S
H237 C214 0.931 . S
H238 C216 0.930 . S
H239 C217 0.930 . S
Tb240 C242 2.809 1_554 S
Tb240 O260 2.484 1_554 S
Tb240 O261 2.440 . S
Tb240 O262 2.658 1_565 S
Tb240 O263 2.409 1_565 S
Tb240 O264 2.378 1_564 S
Tb240 O268 2.325 1_554 S
Tb240 O271 2.341 . S
Tb241 C251 2.809 1_556 S
Tb241 O262 2.325 1_556 S
Tb241 O265 2.341 . S
Tb241 O266 2.484 1_556 S
Tb241 O267 2.440 . S
Tb241 O268 2.658 1_545 S
Tb241 O269 2.409 1_545 S
Tb241 O270 2.378 1_546 S
C242 Tb240 2.809 1_556 S
C242 C243 1.514 . S
C242 O260 1.248 . S
C242 O261 1.266 1_556 S
C243 C242 1.514 . S
C243 C244 1.359 . S
C243 C248 1.348 1_556 S
C244 C243 1.359 . S
C244 C245 1.380 . S
C244 H272 0.929 . S
C245 C244 1.380 . S
C245 C246 1.347 . S
C245 H273 0.931 . S
C246 C245 1.347 . S
C246 C247 1.369 . S
C247 C246 1.369 . S
C247 C248 1.408 1_556 S
C247 H274 0.930 1_556 S
C248 C243 1.348 1_554 S
C248 C247 1.408 1_554 S
C248 H275 0.930 . S
C249 O262 1.281 . S
C249 O263 1.254 . S
C250 O264 1.236 . S
C250 O265 1.266 . S
C251 Tb241 2.809 1_554 S
C251 C252 1.514 . S
C251 O266 1.248 . S
C251 O267 1.266 1_554 S
C252 C251 1.514 . S
C252 C253 1.359 . S
C252 C257 1.348 1_554 S
C253 C252 1.359 . S
C253 C254 1.380 . S
C253 H276 0.929 . S
C254 C253 1.380 . S
C254 C255 1.347 . S
C254 H277 0.931 . S
C255 C254 1.347 . S
C255 C256 1.369 . S
C256 C255 1.369 . S
C256 C257 1.408 1_554 S
C256 H278 0.930 1_554 S
C257 C252 1.348 1_556 S
C257 C256 1.408 1_556 S
C257 H279 0.930 . S
C258 O268 1.281 . S
C258 O269 1.254 . S
C259 O270 1.236 . S
C259 O271 1.266 . S
O260 Tb240 2.484 1_556 S
O260 C242 1.248 . S
O261 Tb240 2.440 . S
O261 C242 1.266 1_554 S
O262 Tb240 2.658 1_545 S
O262 Tb241 2.325 1_554 S
O262 C249 1.281 . S
O263 Tb240 2.409 1_545 S
O263 C249 1.254 . S
O264 Tb240 2.378 1_546 S
O264 C250 1.236 . S
O265 Tb241 2.341 . S
O265 C250 1.266 . S
O266 Tb241 2.484 1_554 S
O266 C251 1.248 . S
O267 Tb241 2.440 . S
O267 C251 1.266 1_556 S
O268 Tb240 2.325 1_556 S
O268 Tb241 2.658 1_565 S
O268 C258 1.281 . S
O269 Tb241 2.409 1_565 S
O269 C258 1.254 . S
O270 Tb241 2.378 1_564 S
O270 C259 1.236 . S
O271 Tb240 2.341 . S
O271 C259 1.266 . S
H272 C244 0.929 . S
H273 C245 0.931 . S
H274 C247 0.930 1_554 S
H275 C248 0.930 . S
H276 C253 0.929 . S
H277 C254 0.931 . S
H278 C256 0.930 1_556 S
H279 C257 0.930 . S
Tb280 C282 2.809 . S
Tb280 O300 2.484 . S
Tb280 O301 2.440 . S
Tb280 O302 2.658 . S
Tb280 O303 2.409 . S
Tb280 O304 2.378 . S
Tb280 O308 2.325 . S
Tb280 O311 2.341 . S
Tb281 C291 2.809 . S
Tb281 O302 2.325 . S
Tb281 O305 2.341 . S
Tb281 O306 2.484 . S
Tb281 O307 2.440 . S
Tb281 O308 2.658 . S
Tb281 O309 2.409 . S
Tb281 O310 2.378 . S
C282 Tb280 2.809 . S
C282 C283 1.514 . S
C282 O300 1.248 . S
C282 O301 1.266 . S
C283 C282 1.514 . S
C283 C284 1.359 . S
C283 C288 1.348 . S
C284 C283 1.359 . S
C284 C285 1.380 . S
C284 H312 0.929 . S
C285 C284 1.380 . S
C285 C286 1.347 . S
C285 H313 0.931 . S
C286 C285 1.347 . S
C286 C287 1.369 . S
C287 C286 1.369 . S
C287 C288 1.408 . S
C287 H314 0.930 . S
C288 C283 1.348 . S
C288 C287 1.408 . S
C288 H315 0.930 . S
C289 O302 1.281 . S
C289 O303 1.254 . S
C290 O304 1.236 . S
C290 O305 1.266 . S
C291 Tb281 2.809 . S
C291 C292 1.514 . S
C291 O306 1.248 . S
C291 O307 1.266 . S
C292 C291 1.514 . S
C292 C293 1.359 . S
C292 C297 1.348 . S
C293 C292 1.359 . S
C293 C294 1.380 . S
C293 H316 0.929 . S
C294 C293 1.380 . S
C294 C295 1.347 . S
C294 H317 0.931 . S
C295 C294 1.347 . S
C295 C296 1.369 . S
C296 C295 1.369 . S
C296 C297 1.408 . S
C296 H318 0.930 . S
C297 C292 1.348 . S
C297 C296 1.408 . S
C297 H319 0.930 . S
C298 O308 1.281 . S
C298 O309 1.254 . S
C299 O310 1.236 . S
C299 O311 1.266 . S
O300 Tb280 2.484 . S
O300 C282 1.248 . S
O301 Tb280 2.440 . S
O301 C282 1.266 . S
O302 Tb280 2.658 . S
O302 Tb281 2.325 . S
O302 C289 1.281 . S
O303 Tb280 2.409 . S
O303 C289 1.254 . S
O304 Tb280 2.378 . S
O304 C290 1.236 . S
O305 Tb281 2.341 . S
O305 C290 1.266 . S
O306 Tb281 2.484 . S
O306 C291 1.248 . S
O307 Tb281 2.440 . S
O307 C291 1.266 . S
O308 Tb280 2.325 . S
O308 Tb281 2.658 . S
O308 C298 1.281 . S
O309 Tb281 2.409 . S
O309 C298 1.254 . S
O310 Tb281 2.378 . S
O310 C299 1.236 . S
O311 Tb280 2.341 . S
O311 C299 1.266 . S
H312 C284 0.929 . S
H313 C285 0.931 . S
H314 C287 0.930 . S
H315 C288 0.930 . S
H316 C293 0.929 . S
H317 C294 0.931 . S
H318 C296 0.930 . S
H319 C297 0.930 . S
Tb320 C322 2.809 . S
Tb320 O340 2.484 . S
Tb320 O341 2.440 . S
Tb320 O342 2.658 . S
Tb320 O343 2.409 . S
Tb320 O344 2.378 . S
Tb320 O348 2.325 1_554 S
Tb320 O351 2.341 1_554 S
Tb321 C331 2.809 . S
Tb321 O342 2.325 1_556 S
Tb321 O345 2.341 1_556 S
Tb321 O346 2.484 . S
Tb321 O347 2.440 . S
Tb321 O348 2.658 . S
Tb321 O349 2.409 . S
Tb321 O350 2.378 . S
C322 Tb320 2.809 . S
C322 C323 1.514 . S
C322 O340 1.248 . S
C322 O341 1.266 . S
C323 C322 1.514 . S
C323 C324 1.359 . S
C323 C328 1.348 . S
C324 C323 1.359 . S
C324 C325 1.380 . S
C324 H352 0.929 . S
C325 C324 1.380 . S
C325 C326 1.347 . S
C325 H353 0.931 . S
C326 C325 1.347 . S
C326 C327 1.369 . S
C327 C326 1.369 . S
C327 C328 1.408 . S
C327 H354 0.930 . S
C328 C323 1.348 . S
C328 C327 1.408 . S
C328 H355 0.930 . S
C329 O342 1.281 . S
C329 O343 1.254 . S
C330 O344 1.236 . S
C330 O345 1.266 . S
C331 Tb321 2.809 . S
C331 C332 1.514 . S
C331 O346 1.248 . S
C331 O347 1.266 . S
C332 C331 1.514 . S
C332 C333 1.359 . S
C332 C337 1.348 . S
C333 C332 1.359 . S
C333 C334 1.380 . S
C333 H356 0.929 . S
C334 C333 1.380 . S
C334 C335 1.347 . S
C334 H357 0.931 . S
C335 C334 1.347 . S
C335 C336 1.369 . S
C336 C335 1.369 . S
C336 C337 1.408 . S
C336 H358 0.930 . S
C337 C332 1.348 . S
C337 C336 1.408 . S
C337 H359 0.930 . S
C338 O348 1.281 . S
C338 O349 1.254 . S
C339 O350 1.236 . S
C339 O351 1.266 . S
O340 Tb320 2.484 . S
O340 C322 1.248 . S
O341 Tb320 2.440 . S
O341 C322 1.266 . S
O342 Tb320 2.658 . S
O342 Tb321 2.325 1_554 S
O342 C329 1.281 . S
O343 Tb320 2.409 . S
O343 C329 1.254 . S
O344 Tb320 2.378 . S
O344 C330 1.236 . S
O345 Tb321 2.341 1_554 S
O345 C330 1.266 . S
O346 Tb321 2.484 . S
O346 C331 1.248 . S
O347 Tb321 2.440 . S
O347 C331 1.266 . S
O348 Tb320 2.325 1_556 S
O348 Tb321 2.658 . S
O348 C338 1.281 . S
O349 Tb321 2.409 . S
O349 C338 1.254 . S
O350 Tb321 2.378 . S
O350 C339 1.236 . S
O351 Tb320 2.341 1_556 S
O351 C339 1.266 . S
H352 C324 0.929 . S
H353 C325 0.931 . S
H354 C327 0.930 . S
H355 C328 0.930 . S
H356 C333 0.929 . S
H357 C334 0.931 . S
H358 C336 0.930 . S
H359 C337 0.930 . S
Tb360 C362 2.809 . S
Tb360 O380 2.484 . S
Tb360 O381 2.440 . S
Tb360 O382 2.658 . S
Tb360 O383 2.409 . S
Tb360 O384 2.378 . S
Tb360 O388 2.325 . S
Tb360 O391 2.341 . S
Tb361 C371 2.809 . S
Tb361 O382 2.325 . S
Tb361 O385 2.341 . S
Tb361 O386 2.484 . S
Tb361 O387 2.440 . S
Tb361 O388 2.658 . S
Tb361 O389 2.409 . S
Tb361 O390 2.378 . S
C362 Tb360 2.809 . S
C362 C363 1.514 . S
C362 O380 1.248 . S
C362 O381 1.266 . S
C363 C362 1.514 . S
C363 C364 1.359 . S
C363 C368 1.348 . S
C364 C363 1.359 . S
C364 C365 1.380 . S
C364 H392 0.929 . S
C365 C364 1.380 . S
C365 C366 1.347 . S
C365 H393 0.931 . S
C366 C365 1.347 . S
C366 C367 1.369 . S
C367 C366 1.369 . S
C367 C368 1.408 . S
C367 H394 0.930 . S
C368 C363 1.348 . S
C368 C367 1.408 . S
C368 H395 0.930 . S
C369 O382 1.281 . S
C369 O383 1.254 . S
C370 O384 1.236 . S
C370 O385 1.266 . S
C371 Tb361 2.809 . S
C371 C372 1.514 . S
C371 O386 1.248 . S
C371 O387 1.266 . S
C372 C371 1.514 . S
C372 C373 1.359 . S
C372 C377 1.348 . S
C373 C372 1.359 . S
C373 C374 1.380 . S
C373 H396 0.929 . S
C374 C373 1.380 . S
C374 C375 1.347 . S
C374 H397 0.931 . S
C375 C374 1.347 . S
C375 C376 1.369 . S
C376 C375 1.369 . S
C376 C377 1.408 . S
C376 H398 0.930 . S
C377 C372 1.348 . S
C377 C376 1.408 . S
C377 H399 0.930 . S
C378 O388 1.281 . S
C378 O389 1.254 . S
C379 O390 1.236 . S
C379 O391 1.266 . S
O380 Tb360 2.484 . S
O380 C362 1.248 . S
O381 Tb360 2.440 . S
O381 C362 1.266 . S
O382 Tb360 2.658 . S
O382 Tb361 2.325 . S
O382 C369 1.281 . S
O383 Tb360 2.409 . S
O383 C369 1.254 . S
O384 Tb360 2.378 . S
O384 C370 1.236 . S
O385 Tb361 2.341 . S
O385 C370 1.266 . S
O386 Tb361 2.484 . S
O386 C371 1.248 . S
O387 Tb361 2.440 . S
O387 C371 1.266 . S
O388 Tb360 2.325 . S
O388 Tb361 2.658 . S
O388 C378 1.281 . S
O389 Tb361 2.409 . S
O389 C378 1.254 . S
O390 Tb361 2.378 . S
O390 C379 1.236 . S
O391 Tb360 2.341 . S
O391 C379 1.266 . S
H392 C364 0.929 . S
H393 C365 0.931 . S
H394 C367 0.930 . S
H395 C368 0.930 . S
H396 C373 0.929 . S
H397 C374 0.931 . S
H398 C376 0.930 . S
H399 C377 0.930 . S
Tb400 C402 2.809 . S
Tb400 O420 2.484 . S
Tb400 O421 2.440 . S
Tb400 O422 2.658 . S
Tb400 O423 2.409 . S
Tb400 O424 2.378 . S
Tb400 O428 2.325 1_455 S
Tb400 O431 2.341 1_455 S
Tb401 C411 2.809 . S
Tb401 O422 2.325 1_655 S
Tb401 O425 2.341 1_655 S
Tb401 O426 2.484 . S
Tb401 O427 2.440 . S
Tb401 O428 2.658 . S
Tb401 O429 2.409 . S
Tb401 O430 2.378 . S
C402 Tb400 2.809 . S
C402 C403 1.514 . S
C402 O420 1.248 . S
C402 O421 1.266 . S
C403 C402 1.514 . S
C403 C404 1.359 . S
C403 C408 1.348 . S
C404 C403 1.359 . S
C404 C405 1.380 . S
C404 H432 0.929 . S
C405 C404 1.380 . S
C405 C406 1.347 . S
C405 H433 0.931 . S
C406 C405 1.347 . S
C406 C407 1.369 . S
C407 C406 1.369 . S
C407 C408 1.408 . S
C407 H434 0.930 . S
C408 C403 1.348 . S
C408 C407 1.408 . S
C408 H435 0.930 . S
C409 O422 1.281 . S
C409 O423 1.254 . S
C410 O424 1.236 . S
C410 O425 1.266 . S
C411 Tb401 2.809 . S
C411 C412 1.514 . S
C411 O426 1.248 . S
C411 O427 1.266 . S
C412 C411 1.514 . S
C412 C413 1.359 . S
C412 C417 1.348 . S
C413 C412 1.359 . S
C413 C414 1.380 . S
C413 H436 0.929 . S
C414 C413 1.380 . S
C414 C415 1.347 . S
C414 H437 0.931 . S
C415 C414 1.347 . S
C415 C416 1.369 . S
C416 C415 1.369 . S
C416 C417 1.408 . S
C416 H438 0.930 . S
C417 C412 1.348 . S
C417 C416 1.408 . S
C417 H439 0.930 . S
C418 O428 1.281 . S
C418 O429 1.254 . S
C419 O430 1.236 . S
C419 O431 1.266 . S
O420 Tb400 2.484 . S
O420 C402 1.248 . S
O421 Tb400 2.440 . S
O421 C402 1.266 . S
O422 Tb400 2.658 . S
O422 Tb401 2.325 1_455 S
O422 C409 1.281 . S
O423 Tb400 2.409 . S
O423 C409 1.254 . S
O424 Tb400 2.378 . S
O424 C410 1.236 . S
O425 Tb401 2.341 1_455 S
O425 C410 1.266 . S
O426 Tb401 2.484 . S
O426 C411 1.248 . S
O427 Tb401 2.440 . S
O427 C411 1.266 . S
O428 Tb400 2.325 1_655 S
O428 Tb401 2.658 . S
O428 C418 1.281 . S
O429 Tb401 2.409 . S
O429 C418 1.254 . S
O430 Tb401 2.378 . S
O430 C419 1.236 . S
O431 Tb400 2.341 1_655 S
O431 C419 1.266 . S
H432 C404 0.929 . S
H433 C405 0.931 . S
H434 C407 0.930 . S
H435 C408 0.930 . S
H436 C413 0.929 . S
H437 C414 0.931 . S
H438 C416 0.930 . S
H439 C417 0.930 . S
Tb440 C442 2.809 . S
Tb440 O460 2.484 . S
Tb440 O461 2.440 . S
Tb440 O462 2.658 . S
Tb440 O463 2.409 . S
Tb440 O464 2.378 . S
Tb440 O468 2.325 . S
Tb440 O471 2.341 . S
Tb441 C451 2.809 . S
Tb441 O462 2.325 . S
Tb441 O465 2.341 . S
Tb441 O466 2.484 . S
Tb441 O467 2.440 . S
Tb441 O468 2.658 . S
Tb441 O469 2.409 . S
Tb441 O470 2.378 . S
C442 Tb440 2.809 . S
C442 C443 1.514 . S
C442 O460 1.248 . S
C442 O461 1.266 . S
C443 C442 1.514 . S
C443 C444 1.359 . S
C443 C448 1.348 . S
C444 C443 1.359 . S
C444 C445 1.380 . S
C444 H472 0.929 . S
C445 C444 1.380 . S
C445 C446 1.347 . S
C445 H473 0.931 . S
C446 C445 1.347 . S
C446 C447 1.369 . S
C447 C446 1.369 . S
C447 C448 1.408 . S
C447 H474 0.930 . S
C448 C443 1.348 . S
C448 C447 1.408 . S
C448 H475 0.930 . S
C449 O462 1.281 . S
C449 O463 1.254 . S
C450 O464 1.236 . S
C450 O465 1.266 . S
C451 Tb441 2.809 . S
C451 C452 1.514 . S
C451 O466 1.248 . S
C451 O467 1.266 . S
C452 C451 1.514 . S
C452 C453 1.359 . S
C452 C457 1.348 . S
C453 C452 1.359 . S
C453 C454 1.380 . S
C453 H476 0.929 . S
C454 C453 1.380 . S
C454 C455 1.347 . S
C454 H477 0.931 . S
C455 C454 1.347 . S
C455 C456 1.369 . S
C456 C455 1.369 . S
C456 C457 1.408 . S
C456 H478 0.930 . S
C457 C452 1.348 . S
C457 C456 1.408 . S
C457 H479 0.930 . S
C458 O468 1.281 . S
C458 O469 1.254 . S
C459 O470 1.236 . S
C459 O471 1.266 . S
O460 Tb440 2.484 . S
O460 C442 1.248 . S
O461 Tb440 2.440 . S
O461 C442 1.266 . S
O462 Tb440 2.658 . S
O462 Tb441 2.325 . S
O462 C449 1.281 . S
O463 Tb440 2.409 . S
O463 C449 1.254 . S
O464 Tb440 2.378 . S
O464 C450 1.236 . S
O465 Tb441 2.341 . S
O465 C450 1.266 . S
O466 Tb441 2.484 . S
O466 C451 1.248 . S
O467 Tb441 2.440 . S
O467 C451 1.266 . S
O468 Tb440 2.325 . S
O468 Tb441 2.658 . S
O468 C458 1.281 . S
O469 Tb441 2.409 . S
O469 C458 1.254 . S
O470 Tb441 2.378 . S
O470 C459 1.236 . S
O471 Tb440 2.341 . S
O471 C459 1.266 . S
H472 C444 0.929 . S
H473 C445 0.931 . S
H474 C447 0.930 . S
H475 C448 0.930 . S
H476 C453 0.929 . S
H477 C454 0.931 . S
H478 C456 0.930 . S
H479 C457 0.930 . S
Tb480 C482 2.809 . S
Tb480 O500 2.484 . S
Tb480 O501 2.440 . S
Tb480 O502 2.658 . S
Tb480 O503 2.409 . S
Tb480 O504 2.378 . S
Tb480 O508 2.325 . S
Tb480 O511 2.341 . S
Tb481 C491 2.809 . S
Tb481 O502 2.325 . S
Tb481 O505 2.341 . S
Tb481 O506 2.484 . S
Tb481 O507 2.440 . S
Tb481 O508 2.658 . S
Tb481 O509 2.409 . S
Tb481 O510 2.378 . S
C482 Tb480 2.809 . S
C482 C483 1.514 . S
C482 O500 1.248 . S
C482 O501 1.266 . S
C483 C482 1.514 . S
C483 C484 1.359 . S
C483 C488 1.348 . S
C484 C483 1.359 . S
C484 C485 1.380 . S
C484 H512 0.929 . S
C485 C484 1.380 . S
C485 C486 1.347 . S
C485 H513 0.931 . S
C486 C485 1.347 . S
C486 C487 1.369 . S
C487 C486 1.369 . S
C487 C488 1.408 . S
C487 H514 0.930 . S
C488 C483 1.348 . S
C488 C487 1.408 . S
C488 H515 0.930 . S
C489 O502 1.281 . S
C489 O503 1.254 . S
C490 O504 1.236 . S
C490 O505 1.266 . S
C491 Tb481 2.809 . S
C491 C492 1.514 . S
C491 O506 1.248 . S
C491 O507 1.266 . S
C492 C491 1.514 . S
C492 C493 1.359 . S
C492 C497 1.348 . S
C493 C492 1.359 . S
C493 C494 1.380 . S
C493 H516 0.929 . S
C494 C493 1.380 . S
C494 C495 1.347 . S
C494 H517 0.931 . S
C495 C494 1.347 . S
C495 C496 1.369 . S
C496 C495 1.369 . S
C496 C497 1.408 . S
C496 H518 0.930 . S
C497 C492 1.348 . S
C497 C496 1.408 . S
C497 H519 0.930 . S
C498 O508 1.281 . S
C498 O509 1.254 . S
C499 O510 1.236 . S
C499 O511 1.266 . S
O500 Tb480 2.484 . S
O500 C482 1.248 . S
O501 Tb480 2.440 . S
O501 C482 1.266 . S
O502 Tb480 2.658 . S
O502 Tb481 2.325 . S
O502 C489 1.281 . S
O503 Tb480 2.409 . S
O503 C489 1.254 . S
O504 Tb480 2.378 . S
O504 C490 1.236 . S
O505 Tb481 2.341 . S
O505 C490 1.266 . S
O506 Tb481 2.484 . S
O506 C491 1.248 . S
O507 Tb481 2.440 . S
O507 C491 1.266 . S
O508 Tb480 2.325 . S
O508 Tb481 2.658 . S
O508 C498 1.281 . S
O509 Tb481 2.409 . S
O509 C498 1.254 . S
O510 Tb481 2.378 . S
O510 C499 1.236 . S
O511 Tb480 2.341 . S
O511 C499 1.266 . S
H512 C484 0.929 . S
H513 C485 0.931 . S
H514 C487 0.930 . S
H515 C488 0.930 . S
H516 C493 0.929 . S
H517 C494 0.931 . S
H518 C496 0.930 . S
H519 C497 0.930 . S
Tb520 C522 2.809 . S
Tb520 O540 2.484 . S
Tb520 O541 2.440 . S
Tb520 O542 2.658 . S
Tb520 O543 2.409 . S
Tb520 O544 2.378 . S
Tb520 O548 2.325 . S
Tb520 O551 2.341 . S
Tb521 C531 2.809 . S
Tb521 O542 2.325 . S
Tb521 O545 2.341 . S
Tb521 O546 2.484 . S
Tb521 O547 2.440 . S
Tb521 O548 2.658 . S
Tb521 O549 2.409 . S
Tb521 O550 2.378 . S
C522 Tb520 2.809 . S
C522 C523 1.514 . S
C522 O540 1.248 . S
C522 O541 1.266 . S
C523 C522 1.514 . S
C523 C524 1.359 . S
C523 C528 1.348 . S
C524 C523 1.359 . S
C524 C525 1.380 . S
C524 H552 0.929 . S
C525 C524 1.380 . S
C525 C526 1.347 . S
C525 H553 0.931 . S
C526 C525 1.347 . S
C526 C527 1.369 . S
C527 C526 1.369 . S
C527 C528 1.408 . S
C527 H554 0.930 . S
C528 C523 1.348 . S
C528 C527 1.408 . S
C528 H555 0.930 . S
C529 O542 1.281 . S
C529 O543 1.254 . S
C530 O544 1.236 . S
C530 O545 1.266 . S
C531 Tb521 2.809 . S
C531 C532 1.514 . S
C531 O546 1.248 . S
C531 O547 1.266 . S
C532 C531 1.514 . S
C532 C533 1.359 . S
C532 C537 1.348 . S
C533 C532 1.359 . S
C533 C534 1.380 . S
C533 H556 0.929 . S
C534 C533 1.380 . S
C534 C535 1.347 . S
C534 H557 0.931 . S
C535 C534 1.347 . S
C535 C536 1.369 . S
C536 C535 1.369 . S
C536 C537 1.408 . S
C536 H558 0.930 . S
C537 C532 1.348 . S
C537 C536 1.408 . S
C537 H559 0.930 . S
C538 O548 1.281 . S
C538 O549 1.254 . S
C539 O550 1.236 . S
C539 O551 1.266 . S
O540 Tb520 2.484 . S
O540 C522 1.248 . S
O541 Tb520 2.440 . S
O541 C522 1.266 . S
O542 Tb520 2.658 . S
O542 Tb521 2.325 . S
O542 C529 1.281 . S
O543 Tb520 2.409 . S
O543 C529 1.254 . S
O544 Tb520 2.378 . S
O544 C530 1.236 . S
O545 Tb521 2.341 . S
O545 C530 1.266 . S
O546 Tb521 2.484 . S
O546 C531 1.248 . S
O547 Tb521 2.440 . S
O547 C531 1.266 . S
O548 Tb520 2.325 . S
O548 Tb521 2.658 . S
O548 C538 1.281 . S
O549 Tb521 2.409 . S
O549 C538 1.254 . S
O550 Tb521 2.378 . S
O550 C539 1.236 . S
O551 Tb520 2.341 . S
O551 C539 1.266 . S
H552 C524 0.929 . S
H553 C525 0.931 . S
H554 C527 0.930 . S
H555 C528 0.930 . S
H556 C533 0.929 . S
H557 C534 0.931 . S
H558 C536 0.930 . S
H559 C537 0.930 . S
Tb560 C562 2.809 . S
Tb560 O580 2.484 . S
Tb560 O581 2.440 . S
Tb560 O582 2.658 . S
Tb560 O583 2.409 . S
Tb560 O584 2.378 . S
Tb560 O588 2.325 . S
Tb560 O591 2.341 . S
Tb561 C571 2.809 . S
Tb561 O582 2.325 . S
Tb561 O585 2.341 . S
Tb561 O586 2.484 . S
Tb561 O587 2.440 . S
Tb561 O588 2.658 . S
Tb561 O589 2.409 . S
Tb561 O590 2.378 . S
C562 Tb560 2.809 . S
C562 C563 1.514 . S
C562 O580 1.248 . S
C562 O581 1.266 . S
C563 C562 1.514 . S
C563 C564 1.359 . S
C563 C568 1.348 . S
C564 C563 1.359 . S
C564 C565 1.380 . S
C564 H592 0.929 . S
C565 C564 1.380 . S
C565 C566 1.347 . S
C565 H593 0.931 . S
C566 C565 1.347 . S
C566 C567 1.369 . S
C567 C566 1.369 . S
C567 C568 1.408 . S
C567 H594 0.930 . S
C568 C563 1.348 . S
C568 C567 1.408 . S
C568 H595 0.930 . S
C569 O582 1.281 . S
C569 O583 1.254 . S
C570 O584 1.236 . S
C570 O585 1.266 . S
C571 Tb561 2.809 . S
C571 C572 1.514 . S
C571 O586 1.248 . S
C571 O587 1.266 . S
C572 C571 1.514 . S
C572 C573 1.359 . S
C572 C577 1.348 . S
C573 C572 1.359 . S
C573 C574 1.380 . S
C573 H596 0.929 . S
C574 C573 1.380 . S
C574 C575 1.347 . S
C574 H597 0.931 . S
C575 C574 1.347 . S
C575 C576 1.369 . S
C576 C575 1.369 . S
C576 C577 1.408 . S
C576 H598 0.930 . S
C577 C572 1.348 . S
C577 C576 1.408 . S
C577 H599 0.930 . S
C578 O588 1.281 . S
C578 O589 1.254 . S
C579 O590 1.236 . S
C579 O591 1.266 . S
O580 Tb560 2.484 . S
O580 C562 1.248 . S
O581 Tb560 2.440 . S
O581 C562 1.266 . S
O582 Tb560 2.658 . S
O582 Tb561 2.325 . S
O582 C569 1.281 . S
O583 Tb560 2.409 . S
O583 C569 1.254 . S
O584 Tb560 2.378 . S
O584 C570 1.236 . S
O585 Tb561 2.341 . S
O585 C570 1.266 . S
O586 Tb561 2.484 . S
O586 C571 1.248 . S
O587 Tb561 2.440 . S
O587 C571 1.266 . S
O588 Tb560 2.325 . S
O588 Tb561 2.658 . S
O588 C578 1.281 . S
O589 Tb561 2.409 . S
O589 C578 1.254 . S
O590 Tb561 2.378 . S
O590 C579 1.236 . S
O591 Tb560 2.341 . S
O591 C579 1.266 . S
H592 C564 0.929 . S
H593 C565 0.931 . S
H594 C567 0.930 . S
H595 C568 0.930 . S
H596 C573 0.929 . S
H597 C574 0.931 . S
H598 C576 0.930 . S
H599 C577 0.930 . S
Tb600 C602 2.809 . S
Tb600 O620 2.484 . S
Tb600 O621 2.440 . S
Tb600 O622 2.658 1_554 S
Tb600 O623 2.409 1_554 S
Tb600 O624 2.378 1_554 S
Tb600 O628 2.325 1_655 S
Tb600 O631 2.341 1_655 S
Tb601 C611 2.809 . S
Tb601 O622 2.325 1_455 S
Tb601 O625 2.341 1_455 S
Tb601 O626 2.484 . S
Tb601 O627 2.440 . S
Tb601 O628 2.658 1_556 S
Tb601 O629 2.409 1_556 S
Tb601 O630 2.378 1_556 S
C602 Tb600 2.809 . S
C602 C603 1.514 . S
C602 O620 1.248 . S
C602 O621 1.266 . S
C603 C602 1.514 . S
C603 C604 1.359 . S
C603 C608 1.348 . S
C604 C603 1.359 . S
C604 C605 1.380 . S
C604 H632 0.929 . S
C605 C604 1.380 . S
C605 C606 1.347 . S
C605 H633 0.931 . S
C606 C605 1.347 . S
C606 C607 1.369 . S
C607 C606 1.369 . S
C607 C608 1.408 . S
C607 H634 0.930 . S
C608 C603 1.348 . S
C608 C607 1.408 . S
C608 H635 0.930 . S
C609 O622 1.281 . S
C609 O623 1.254 . S
C610 O624 1.236 . S
C610 O625 1.266 . S
C611 Tb601 2.809 . S
C611 C612 1.514 . S
C611 O626 1.248 . S
C611 O627 1.266 . S
C612 C611 1.514 . S
C612 C613 1.359 . S
C612 C617 1.348 . S
C613 C612 1.359 . S
C613 C614 1.380 . S
C613 H636 0.929 . S
C614 C613 1.380 . S
C614 C615 1.347 . S
C614 H637 0.931 . S
C615 C614 1.347 . S
C615 C616 1.369 . S
C616 C615 1.369 . S
C616 C617 1.408 . S
C616 H638 0.930 . S
C617 C612 1.348 . S
C617 C616 1.408 . S
C617 H639 0.930 . S
C618 O628 1.281 . S
C618 O629 1.254 . S
C619 O630 1.236 . S
C619 O631 1.266 . S
O620 Tb600 2.484 . S
O620 C602 1.248 . S
O621 Tb600 2.440 . S
O621 C602 1.266 . S
O622 Tb600 2.658 1_556 S
O622 Tb601 2.325 1_655 S
O622 C609 1.281 . S
O623 Tb600 2.409 1_556 S
O623 C609 1.254 . S
O624 Tb600 2.378 1_556 S
O624 C610 1.236 . S
O625 Tb601 2.341 1_655 S
O625 C610 1.266 . S
O626 Tb601 2.484 . S
O626 C611 1.248 . S
O627 Tb601 2.440 . S
O627 C611 1.266 . S
O628 Tb600 2.325 1_455 S
O628 Tb601 2.658 1_554 S
O628 C618 1.281 . S
O629 Tb601 2.409 1_554 S
O629 C618 1.254 . S
O630 Tb601 2.378 1_554 S
O630 C619 1.236 . S
O631 Tb600 2.341 1_455 S
O631 C619 1.266 . S
H632 C604 0.929 . S
H633 C605 0.931 . S
H634 C607 0.930 . S
H635 C608 0.930 . S
H636 C613 0.929 . S
H637 C614 0.931 . S
H638 C616 0.930 . S
H639 C617 0.930 . S
H640 C646 0.930 . S
H641 C650 0.930 . S
H642 C655 0.929 . S
H643 C653 0.929 . S
H644 C648 0.929 . S
H645 C654 0.929 . S
C646 H640 0.930 . S
C646 C647 1.367 . S
C646 C654 1.378 . S
C647 C646 1.367 . S
C647 C655 1.433 . S
C648 H644 0.929 . S
C648 C650 1.378 . S
C648 C652 1.350 . S
C649 C652 1.463 . S
C649 C654 1.350 . S
C649 N657 1.427 . S
C650 H641 0.930 . S
C650 C648 1.378 . S
C650 C651 1.367 . S
C651 C650 1.367 . S
C651 C653 1.433 . S
C652 C648 1.350 . S
C652 C649 1.463 . S
C652 N656 1.427 . S
C653 H643 0.929 . S
C653 C651 1.433 . S
C653 N656 1.384 . S
C654 H645 0.929 . S
C654 C646 1.378 . S
C654 C649 1.350 . S
C655 H642 0.929 . S
C655 C647 1.433 . S
C655 N657 1.384 . S
N656 C652 1.427 . S
N656 C653 1.384 . S
N657 C649 1.427 . S
N657 C655 1.384 . S
H658 C664 0.930 . S
H659 C668 0.930 . S
H660 C673 0.929 . S
H661 C671 0.929 . S
H662 C666 0.929 . S
H663 C672 0.929 . S
C664 H658 0.930 . S
C664 C665 1.367 . S
C664 C672 1.378 . S
C665 C664 1.367 . S
C665 C673 1.433 . S
C666 H662 0.929 . S
C666 C668 1.378 . S
C666 C670 1.350 . S
C667 C670 1.463 . S
C667 C672 1.350 . S
C667 N675 1.427 . S
C668 H659 0.930 . S
C668 C666 1.378 . S
C668 C669 1.367 . S
C669 C668 1.367 . S
C669 C671 1.433 . S
C670 C666 1.350 . S
C670 C667 1.463 . S
C670 N674 1.427 . S
C671 H661 0.929 . S
C671 C669 1.433 . S
C671 N674 1.384 . S
C672 H663 0.929 . S
C672 C664 1.378 . S
C672 C667 1.350 . S
C673 H660 0.929 . S
C673 C665 1.433 . S
C673 N675 1.384 . S
N674 C670 1.427 . S
N674 C671 1.384 . S
N675 C667 1.427 . S
N675 C673 1.384 . S
H676 C682 0.930 . S
H677 C686 0.930 . S
H678 C691 0.929 . S
H679 C689 0.929 . S
H680 C684 0.929 . S
H681 C690 0.929 . S
C682 H676 0.930 . S
C682 C683 1.367 . S
C682 C690 1.378 . S
C683 C682 1.367 . S
C683 C691 1.433 . S
C684 H680 0.929 . S
C684 C686 1.378 . S
C684 C688 1.350 . S
C685 C688 1.463 . S
C685 C690 1.350 . S
C685 N693 1.427 . S
C686 H677 0.930 . S
C686 C684 1.378 . S
C686 C687 1.367 . S
C687 C686 1.367 . S
C687 C689 1.433 . S
C688 C684 1.350 . S
C688 C685 1.463 . S
C688 N692 1.427 . S
C689 H679 0.929 . S
C689 C687 1.433 . S
C689 N692 1.384 . S
C690 H681 0.929 . S
C690 C682 1.378 . S
C690 C685 1.350 . S
C691 H678 0.929 . S
C691 C683 1.433 . S
C691 N693 1.384 . S
N692 C688 1.427 . S
N692 C689 1.384 . S
N693 C685 1.427 . S
N693 C691 1.384 . S
H694 C700 0.930 . S
H695 C704 0.930 . S
H696 C709 0.929 . S
H697 C707 0.929 . S
H698 C702 0.929 . S
H699 C708 0.929 . S
C700 H694 0.930 . S
C700 C701 1.367 . S
C700 C708 1.378 . S
C701 C700 1.367 . S
C701 C709 1.433 . S
C702 H698 0.929 . S
C702 C704 1.378 . S
C702 C706 1.350 . S
C703 C706 1.463 . S
C703 C708 1.350 . S
C703 N711 1.427 . S
C704 H695 0.930 . S
C704 C702 1.378 . S
C704 C705 1.367 . S
C705 C704 1.367 . S
C705 C707 1.433 . S
C706 C702 1.350 . S
C706 C703 1.463 . S
C706 N710 1.427 . S
C707 H697 0.929 . S
C707 C705 1.433 . S
C707 N710 1.384 . S
C708 H699 0.929 . S
C708 C700 1.378 . S
C708 C703 1.350 . S
C709 H696 0.929 . S
C709 C701 1.433 . S
C709 N711 1.384 . S
N710 C706 1.427 . S
N710 C707 1.384 . S
N711 C703 1.427 . S
N711 C709 1.384 . S
H712 C718 0.930 . S
H713 C722 0.930 . S
H714 C727 0.929 . S
H715 C725 0.929 . S
H716 C720 0.929 . S
H717 C726 0.929 . S
C718 H712 0.930 . S
C718 C719 1.367 . S
C718 C726 1.378 . S
C719 C718 1.367 . S
C719 C727 1.433 . S
C720 H716 0.929 . S
C720 C722 1.378 . S
C720 C724 1.350 . S
C721 C724 1.463 . S
C721 C726 1.350 . S
C721 N729 1.427 . S
C722 H713 0.930 . S
C722 C720 1.378 . S
C722 C723 1.367 . S
C723 C722 1.367 . S
C723 C725 1.433 . S
C724 C720 1.350 . S
C724 C721 1.463 . S
C724 N728 1.427 . S
C725 H715 0.929 . S
C725 C723 1.433 . S
C725 N728 1.384 . S
C726 H717 0.929 . S
C726 C718 1.378 . S
C726 C721 1.350 . S
C727 H714 0.929 . S
C727 C719 1.433 . S
C727 N729 1.384 . S
N728 C724 1.427 . S
N728 C725 1.384 . S
N729 C721 1.427 . S
N729 C727 1.384 . S
H730 C736 0.930 . S
H731 C740 0.930 . S
H732 C745 0.929 . S
H733 C743 0.929 . S
H734 C738 0.929 . S
H735 C744 0.929 . S
C736 H730 0.930 . S
C736 C737 1.367 . S
C736 C744 1.378 . S
C737 C736 1.367 . S
C737 C745 1.433 . S
C738 H734 0.929 . S
C738 C740 1.378 . S
C738 C742 1.350 . S
C739 C742 1.463 . S
C739 C744 1.350 . S
C739 N747 1.427 . S
C740 H731 0.930 . S
C740 C738 1.378 . S
C740 C741 1.367 . S
C741 C740 1.367 . S
C741 C743 1.433 . S
C742 C738 1.350 . S
C742 C739 1.463 . S
C742 N746 1.427 . S
C743 H733 0.929 . S
C743 C741 1.433 . S
C743 N746 1.384 . S
C744 H735 0.929 . S
C744 C736 1.378 . S
C744 C739 1.350 . S
C745 H732 0.929 . S
C745 C737 1.433 . S
C745 N747 1.384 . S
N746 C742 1.427 . S
N746 C743 1.384 . S
N747 C739 1.427 . S
N747 C745 1.384 . S
H748 C754 0.930 . S
H749 C758 0.930 . S
H750 C763 0.929 . S
H751 C761 0.929 . S
H752 C756 0.929 . S
H753 C762 0.929 . S
C754 H748 0.930 . S
C754 C755 1.367 . S
C754 C762 1.378 . S
C755 C754 1.367 . S
C755 C763 1.433 . S
C756 H752 0.929 . S
C756 C758 1.378 . S
C756 C760 1.350 . S
C757 C760 1.463 . S
C757 C762 1.350 . S
C757 N765 1.427 . S
C758 H749 0.930 . S
C758 C756 1.378 . S
C758 C759 1.367 . S
C759 C758 1.367 . S
C759 C761 1.433 . S
C760 C756 1.350 . S
C760 C757 1.463 . S
C760 N764 1.427 . S
C761 H751 0.929 . S
C761 C759 1.433 . S
C761 N764 1.384 . S
C762 H753 0.929 . S
C762 C754 1.378 . S
C762 C757 1.350 . S
C763 H750 0.929 . S
C763 C755 1.433 . S
C763 N765 1.384 . S
N764 C760 1.427 . S
N764 C761 1.384 . S
N765 C757 1.427 . S
N765 C763 1.384 . S
H766 C772 0.930 . S
H767 C776 0.930 . S
H768 C781 0.929 . S
H769 C779 0.929 . S
H770 C774 0.929 . S
H771 C780 0.929 . S
C772 H766 0.930 . S
C772 C773 1.367 . S
C772 C780 1.378 . S
C773 C772 1.367 . S
C773 C781 1.433 . S
C774 H770 0.929 . S
C774 C776 1.378 . S
C774 C778 1.350 . S
C775 C778 1.463 . S
C775 C780 1.350 . S
C775 N783 1.427 . S
C776 H767 0.930 . S
C776 C774 1.378 . S
C776 C777 1.367 . S
C777 C776 1.367 . S
C777 C779 1.433 . S
C778 C774 1.350 . S
C778 C775 1.463 . S
C778 N782 1.427 . S
C779 H769 0.929 . S
C779 C777 1.433 . S
C779 N782 1.384 . S
C780 H771 0.929 . S
C780 C772 1.378 . S
C780 C775 1.350 . S
C781 H768 0.929 . S
C781 C773 1.433 . S
C781 N783 1.384 . S
N782 C778 1.427 . S
N782 C779 1.384 . S
N783 C775 1.427 . S
N783 C781 1.384 . S
H784 C790 0.930 . S
H785 C794 0.930 . S
H786 C799 0.929 . S
H787 C797 0.929 . S
H788 C792 0.929 . S
H789 C798 0.929 . S
C790 H784 0.930 . S
C790 C791 1.367 . S
C790 C798 1.378 . S
C791 C790 1.367 . S
C791 C799 1.433 . S
C792 H788 0.929 . S
C792 C794 1.378 . S
C792 C796 1.350 . S
C793 C796 1.463 . S
C793 C798 1.350 . S
C793 N801 1.427 . S
C794 H785 0.930 . S
C794 C792 1.378 . S
C794 C795 1.367 . S
C795 C794 1.367 . S
C795 C797 1.433 . S
C796 C792 1.350 . S
C796 C793 1.463 . S
C796 N800 1.427 . S
C797 H787 0.929 . S
C797 C795 1.433 . S
C797 N800 1.384 . S
C798 H789 0.929 . S
C798 C790 1.378 . S
C798 C793 1.350 . S
C799 H786 0.929 . S
C799 C791 1.433 . S
C799 N801 1.384 . S
N800 C796 1.427 . S
N800 C797 1.384 . S
N801 C793 1.427 . S
N801 C799 1.384 . S
H802 C808 0.930 . S
H803 C812 0.930 . S
H804 C817 0.929 . S
H805 C815 0.929 . S
H806 C810 0.929 . S
H807 C816 0.929 . S
C808 H802 0.930 . S
C808 C809 1.367 . S
C808 C816 1.378 . S
C809 C808 1.367 . S
C809 C817 1.433 . S
C810 H806 0.929 . S
C810 C812 1.378 . S
C810 C814 1.350 . S
C811 C814 1.463 . S
C811 C816 1.350 . S
C811 N819 1.427 . S
C812 H803 0.930 . S
C812 C810 1.378 . S
C812 C813 1.367 . S
C813 C812 1.367 . S
C813 C815 1.433 . S
C814 C810 1.350 . S
C814 C811 1.463 . S
C814 N818 1.427 . S
C815 H805 0.929 . S
C815 C813 1.433 . S
C815 N818 1.384 . S
C816 H807 0.929 . S
C816 C808 1.378 . S
C816 C811 1.350 . S
C817 H804 0.929 . S
C817 C809 1.433 . S
C817 N819 1.384 . S
N818 C814 1.427 . S
N818 C815 1.384 . S
N819 C811 1.427 . S
N819 C817 1.384 . S
H820 C826 0.930 . S
H821 C830 0.930 . S
H822 C835 0.929 . S
H823 C833 0.929 . S
H824 C828 0.929 . S
H825 C834 0.929 . S
C826 H820 0.930 . S
C826 C827 1.367 . S
C826 C834 1.378 . S
C827 C826 1.367 . S
C827 C835 1.433 . S
C828 H824 0.929 . S
C828 C830 1.378 . S
C828 C832 1.350 . S
C829 C832 1.463 . S
C829 C834 1.350 . S
C829 N837 1.427 . S
C830 H821 0.930 . S
C830 C828 1.378 . S
C830 C831 1.367 . S
C831 C830 1.367 . S
C831 C833 1.433 . S
C832 C828 1.350 . S
C832 C829 1.463 . S
C832 N836 1.427 . S
C833 H823 0.929 . S
C833 C831 1.433 . S
C833 N836 1.384 . S
C834 H825 0.929 . S
C834 C826 1.378 . S
C834 C829 1.350 . S
C835 H822 0.929 . S
C835 C827 1.433 . S
C835 N837 1.384 . S
N836 C832 1.427 . S
N836 C833 1.384 . S
N837 C829 1.427 . S
N837 C835 1.384 . S
H838 C844 0.930 . S
H839 C848 0.930 . S
H840 C853 0.929 . S
H841 C851 0.929 . S
H842 C846 0.929 . S
H843 C852 0.929 . S
C844 H838 0.930 . S
C844 C845 1.367 . S
C844 C852 1.378 . S
C845 C844 1.367 . S
C845 C853 1.433 . S
C846 H842 0.929 . S
C846 C848 1.378 . S
C846 C850 1.350 . S
C847 C850 1.463 . S
C847 C852 1.350 . S
C847 N855 1.427 . S
C848 H839 0.930 . S
C848 C846 1.378 . S
C848 C849 1.367 . S
C849 C848 1.367 . S
C849 C851 1.433 . S
C850 C846 1.350 . S
C850 C847 1.463 . S
C850 N854 1.427 . S
C851 H841 0.929 . S
C851 C849 1.433 . S
C851 N854 1.384 . S
C852 H843 0.929 . S
C852 C844 1.378 . S
C852 C847 1.350 . S
C853 H840 0.929 . S
C853 C845 1.433 . S
C853 N855 1.384 . S
N854 C850 1.427 . S
N854 C851 1.384 . S
N855 C847 1.427 . S
N855 C853 1.384 . S
H856 C862 0.930 . S
H857 C866 0.930 . S
H858 C871 0.929 . S
H859 C869 0.929 . S
H860 C864 0.929 . S
H861 C870 0.929 . S
C862 H856 0.930 . S
C862 C863 1.367 . S
C862 C870 1.378 . S
C863 C862 1.367 . S
C863 C871 1.433 . S
C864 H860 0.929 . S
C864 C866 1.378 . S
C864 C868 1.350 . S
C865 C868 1.463 . S
C865 C870 1.350 . S
C865 N873 1.427 . S
C866 H857 0.930 . S
C866 C864 1.378 . S
C866 C867 1.367 . S
C867 C866 1.367 . S
C867 C869 1.433 . S
C868 C864 1.350 . S
C868 C865 1.463 . S
C868 N872 1.427 . S
C869 H859 0.929 . S
C869 C867 1.433 . S
C869 N872 1.384 . S
C870 H861 0.929 . S
C870 C862 1.378 . S
C870 C865 1.350 . S
C871 H858 0.929 . S
C871 C863 1.433 . S
C871 N873 1.384 . S
N872 C868 1.427 . S
N872 C869 1.384 . S
N873 C865 1.427 . S
N873 C871 1.384 . S
H874 C880 0.930 . S
H875 C884 0.930 . S
H876 C889 0.929 . S
H877 C887 0.929 . S
H878 C882 0.929 . S
H879 C888 0.929 . S
C880 H874 0.930 . S
C880 C881 1.367 . S
C880 C888 1.378 . S
C881 C880 1.367 . S
C881 C889 1.433 . S
C882 H878 0.929 . S
C882 C884 1.378 . S
C882 C886 1.350 . S
C883 C886 1.463 . S
C883 C888 1.350 . S
C883 N891 1.427 . S
C884 H875 0.930 . S
C884 C882 1.378 . S
C884 C885 1.367 . S
C885 C884 1.367 . S
C885 C887 1.433 . S
C886 C882 1.350 . S
C886 C883 1.463 . S
C886 N890 1.427 . S
C887 H877 0.929 . S
C887 C885 1.433 . S
C887 N890 1.384 . S
C888 H879 0.929 . S
C888 C880 1.378 . S
C888 C883 1.350 . S
C889 H876 0.929 . S
C889 C881 1.433 . S
C889 N891 1.384 . S
N890 C886 1.427 . S
N890 C887 1.384 . S
N891 C883 1.427 . S
N891 C889 1.384 . S
H892 C898 0.930 . S
H893 C902 0.930 . S
H894 C907 0.929 . S
H895 C905 0.929 . S
H896 C900 0.929 . S
H897 C906 0.929 . S
C898 H892 0.930 . S
C898 C899 1.367 . S
C898 C906 1.378 . S
C899 C898 1.367 . S
C899 C907 1.433 . S
C900 H896 0.929 . S
C900 C902 1.378 . S
C900 C904 1.350 . S
C901 C904 1.463 . S
C901 C906 1.350 . S
C901 N909 1.427 . S
C902 H893 0.930 . S
C902 C900 1.378 . S
C902 C903 1.367 . S
C903 C902 1.367 . S
C903 C905 1.433 . S
C904 C900 1.350 . S
C904 C901 1.463 . S
C904 N908 1.427 . S
C905 H895 0.929 . S
C905 C903 1.433 . S
C905 N908 1.384 . S
C906 H897 0.929 . S
C906 C898 1.378 . S
C906 C901 1.350 . S
C907 H894 0.929 . S
C907 C899 1.433 . S
C907 N909 1.384 . S
N908 C904 1.427 . S
N908 C905 1.384 . S
N909 C901 1.427 . S
N909 C907 1.384 . S
H910 C916 0.930 . S
H911 C920 0.930 . S
H912 C925 0.929 . S
H913 C923 0.929 . S
H914 C918 0.929 . S
H915 C924 0.929 . S
C916 H910 0.930 . S
C916 C917 1.367 . S
C916 C924 1.378 . S
C917 C916 1.367 . S
C917 C925 1.433 . S
C918 H914 0.929 . S
C918 C920 1.378 . S
C918 C922 1.350 . S
C919 C922 1.463 . S
C919 C924 1.350 . S
C919 N927 1.427 . S
C920 H911 0.930 . S
C920 C918 1.378 . S
C920 C921 1.367 . S
C921 C920 1.367 . S
C921 C923 1.433 . S
C922 C918 1.350 . S
C922 C919 1.463 . S
C922 N926 1.427 . S
C923 H913 0.929 . S
C923 C921 1.433 . S
C923 N926 1.384 . S
C924 H915 0.929 . S
C924 C916 1.378 . S
C924 C919 1.350 . S
C925 H912 0.929 . S
C925 C917 1.433 . S
C925 N927 1.384 . S
N926 C922 1.427 . S
N926 C923 1.384 . S
N927 C919 1.427 . S
N927 C925 1.384 . S
H928 C934 0.930 . S
H929 C938 0.930 . S
H930 C943 0.929 . S
H931 C941 0.929 . S
H932 C936 0.929 . S
H933 C942 0.929 . S
C934 H928 0.930 . S
C934 C935 1.367 . S
C934 C942 1.378 . S
C935 C934 1.367 . S
C935 C943 1.433 . S
C936 H932 0.929 . S
C936 C938 1.378 . S
C936 C940 1.350 . S
C937 C940 1.463 . S
C937 C942 1.350 . S
C937 N945 1.427 . S
C938 H929 0.930 . S
C938 C936 1.378 . S
C938 C939 1.367 . S
C939 C938 1.367 . S
C939 C941 1.433 . S
C940 C936 1.350 . S
C940 C937 1.463 . S
C940 N944 1.427 . S
C941 H931 0.929 . S
C941 C939 1.433 . S
C941 N944 1.384 . S
C942 H933 0.929 . S
C942 C934 1.378 . S
C942 C937 1.350 . S
C943 H930 0.929 . S
C943 C935 1.433 . S
C943 N945 1.384 . S
N944 C940 1.427 . S
N944 C941 1.384 . S
N945 C937 1.427 . S
N945 C943 1.384 . S
H946 C952 0.930 . S
H947 C956 0.930 . S
H948 C961 0.929 . S
H949 C959 0.929 . S
H950 C954 0.929 . S
H951 C960 0.929 . S
C952 H946 0.930 . S
C952 C953 1.367 . S
C952 C960 1.378 . S
C953 C952 1.367 . S
C953 C961 1.433 . S
C954 H950 0.929 . S
C954 C956 1.378 . S
C954 C958 1.350 . S
C955 C958 1.463 . S
C955 C960 1.350 . S
C955 N963 1.427 . S
C956 H947 0.930 . S
C956 C954 1.378 . S
C956 C957 1.367 . S
C957 C956 1.367 . S
C957 C959 1.433 . S
C958 C954 1.350 . S
C958 C955 1.463 . S
C958 N962 1.427 . S
C959 H949 0.929 . S
C959 C957 1.433 . S
C959 N962 1.384 . S
C960 H951 0.929 . S
C960 C952 1.378 . S
C960 C955 1.350 . S
C961 H948 0.929 . S
C961 C953 1.433 . S
C961 N963 1.384 . S
N962 C958 1.427 . S
N962 C959 1.384 . S
N963 C955 1.427 . S
N963 C961 1.384 . S
H964 C970 0.930 . S
H965 C974 0.930 . S
H966 C979 0.929 . S
H967 C977 0.929 . S
H968 C972 0.929 . S
H969 C978 0.929 . S
C970 H964 0.930 . S
C970 C971 1.367 . S
C970 C978 1.378 . S
C971 C970 1.367 . S
C971 C979 1.433 . S
C972 H968 0.929 . S
C972 C974 1.378 . S
C972 C976 1.350 . S
C973 C976 1.463 . S
C973 C978 1.350 . S
C973 N981 1.427 . S
C974 H965 0.930 . S
C974 C972 1.378 . S
C974 C975 1.367 . S
C975 C974 1.367 . S
C975 C977 1.433 . S
C976 C972 1.350 . S
C976 C973 1.463 . S
C976 N980 1.427 . S
C977 H967 0.929 . S
C977 C975 1.433 . S
C977 N980 1.384 . S
C978 H969 0.929 . S
C978 C970 1.378 . S
C978 C973 1.350 . S
C979 H966 0.929 . S
C979 C971 1.433 . S
C979 N981 1.384 . S
N980 C976 1.427 . S
N980 C977 1.384 . S
N981 C973 1.427 . S
N981 C979 1.384 . S
H982 C988 0.930 . S
H983 C992 0.930 . S
H984 C997 0.929 . S
H985 C995 0.929 . S
H986 C990 0.929 . S
H987 C996 0.929 . S
C988 H982 0.930 . S
C988 C989 1.367 . S
C988 C996 1.378 . S
C989 C988 1.367 . S
C989 C997 1.433 . S
C990 H986 0.929 . S
C990 C992 1.378 . S
C990 C994 1.350 . S
C991 C994 1.463 . S
C991 C996 1.350 . S
C991 N999 1.427 . S
C992 H983 0.930 . S
C992 C990 1.378 . S
C992 C993 1.367 . S
C993 C992 1.367 . S
C993 C995 1.433 . S
C994 C990 1.350 . S
C994 C991 1.463 . S
C994 N998 1.427 . S
C995 H985 0.929 . S
C995 C993 1.433 . S
C995 N998 1.384 . S
C996 H987 0.929 . S
C996 C988 1.378 . S
C996 C991 1.350 . S
C997 H984 0.929 . S
C997 C989 1.433 . S
C997 N999 1.384 . S
N998 C994 1.427 . S
N998 C995 1.384 . S
N999 C991 1.427 . S
N999 C997 1.384 . S
H1000 C1006 0.930 . S
H1001 C1010 0.930 . S
H1002 C1015 0.929 . S
H1003 C1013 0.929 . S
H1004 C1008 0.929 . S
H1005 C1014 0.929 . S
C1006 H1000 0.930 . S
C1006 C1007 1.367 . S
C1006 C1014 1.378 . S
C1007 C1006 1.367 . S
C1007 C1015 1.433 . S
C1008 H1004 0.929 . S
C1008 C1010 1.378 . S
C1008 C1012 1.350 . S
C1009 C1012 1.463 . S
C1009 C1014 1.350 . S
C1009 N1017 1.427 . S
C1010 H1001 0.930 . S
C1010 C1008 1.378 . S
C1010 C1011 1.367 . S
C1011 C1010 1.367 . S
C1011 C1013 1.433 . S
C1012 C1008 1.350 . S
C1012 C1009 1.463 . S
C1012 N1016 1.427 . S
C1013 H1003 0.929 . S
C1013 C1011 1.433 . S
C1013 N1016 1.384 . S
C1014 H1005 0.929 . S
C1014 C1006 1.378 . S
C1014 C1009 1.350 . S
C1015 H1002 0.929 . S
C1015 C1007 1.433 . S
C1015 N1017 1.384 . S
N1016 C1012 1.427 . S
N1016 C1013 1.384 . S
N1017 C1009 1.427 . S
N1017 C1015 1.384 . S
H1018 C1024 0.930 . S
H1019 C1028 0.930 . S
H1020 C1033 0.929 . S
H1021 C1031 0.929 . S
H1022 C1026 0.929 . S
H1023 C1032 0.929 . S
C1024 H1018 0.930 . S
C1024 C1025 1.367 . S
C1024 C1032 1.378 . S
C1025 C1024 1.367 . S
C1025 C1033 1.433 . S
C1026 H1022 0.929 . S
C1026 C1028 1.378 . S
C1026 C1030 1.350 . S
C1027 C1030 1.463 . S
C1027 C1032 1.350 . S
C1027 N1035 1.427 . S
C1028 H1019 0.930 . S
C1028 C1026 1.378 . S
C1028 C1029 1.367 . S
C1029 C1028 1.367 . S
C1029 C1031 1.433 . S
C1030 C1026 1.350 . S
C1030 C1027 1.463 . S
C1030 N1034 1.427 . S
C1031 H1021 0.929 . S
C1031 C1029 1.433 . S
C1031 N1034 1.384 . S
C1032 H1023 0.929 . S
C1032 C1024 1.378 . S
C1032 C1027 1.350 . S
C1033 H1020 0.929 . S
C1033 C1025 1.433 . S
C1033 N1035 1.384 . S
N1034 C1030 1.427 . S
N1034 C1031 1.384 . S
N1035 C1027 1.427 . S
N1035 C1033 1.384 . S
H1036 C1042 0.930 . S
H1037 C1046 0.930 . S
H1038 C1051 0.929 . S
H1039 C1049 0.929 . S
H1040 C1044 0.929 . S
H1041 C1050 0.929 . S
C1042 H1036 0.930 . S
C1042 C1043 1.367 . S
C1042 C1050 1.378 . S
C1043 C1042 1.367 . S
C1043 C1051 1.433 . S
C1044 H1040 0.929 . S
C1044 C1046 1.378 . S
C1044 C1048 1.350 . S
C1045 C1048 1.463 . S
C1045 C1050 1.350 . S
C1045 N1053 1.427 . S
C1046 H1037 0.930 . S
C1046 C1044 1.378 . S
C1046 C1047 1.367 . S
C1047 C1046 1.367 . S
C1047 C1049 1.433 . S
C1048 C1044 1.350 . S
C1048 C1045 1.463 . S
C1048 N1052 1.427 . S
C1049 H1039 0.929 . S
C1049 C1047 1.433 . S
C1049 N1052 1.384 . S
C1050 H1041 0.929 . S
C1050 C1042 1.378 . S
C1050 C1045 1.350 . S
C1051 H1038 0.929 . S
C1051 C1043 1.433 . S
C1051 N1053 1.384 . S
N1052 C1048 1.427 . S
N1052 C1049 1.384 . S
N1053 C1045 1.427 . S
N1053 C1051 1.384 . S
H1054 C1060 0.930 . S
H1055 C1064 0.930 . S
H1056 C1069 0.929 . S
H1057 C1067 0.929 . S
H1058 C1062 0.929 . S
H1059 C1068 0.929 . S
C1060 H1054 0.930 . S
C1060 C1061 1.367 . S
C1060 C1068 1.378 . S
C1061 C1060 1.367 . S
C1061 C1069 1.433 . S
C1062 H1058 0.929 . S
C1062 C1064 1.378 . S
C1062 C1066 1.350 . S
C1063 C1066 1.463 . S
C1063 C1068 1.350 . S
C1063 N1071 1.427 . S
C1064 H1055 0.930 . S
C1064 C1062 1.378 . S
C1064 C1065 1.367 . S
C1065 C1064 1.367 . S
C1065 C1067 1.433 . S
C1066 C1062 1.350 . S
C1066 C1063 1.463 . S
C1066 N1070 1.427 . S
C1067 H1057 0.929 . S
C1067 C1065 1.433 . S
C1067 N1070 1.384 . S
C1068 H1059 0.929 . S
C1068 C1060 1.378 . S
C1068 C1063 1.350 . S
C1069 H1056 0.929 . S
C1069 C1061 1.433 . S
C1069 N1071 1.384 . S
N1070 C1066 1.427 . S
N1070 C1067 1.384 . S
N1071 C1063 1.427 . S
N1071 C1069 1.384 . S
H1072 C1078 0.930 . S
H1073 C1082 0.930 . S
H1074 C1087 0.929 . S
H1075 C1085 0.929 . S
H1076 C1080 0.929 . S
H1077 C1086 0.929 . S
C1078 H1072 0.930 . S
C1078 C1079 1.367 . S
C1078 C1086 1.378 . S
C1079 C1078 1.367 . S
C1079 C1087 1.433 . S
C1080 H1076 0.929 . S
C1080 C1082 1.378 . S
C1080 C1084 1.350 . S
C1081 C1084 1.463 . S
C1081 C1086 1.350 . S
C1081 N1089 1.427 . S
C1082 H1073 0.930 . S
C1082 C1080 1.378 . S
C1082 C1083 1.367 . S
C1083 C1082 1.367 . S
C1083 C1085 1.433 . S
C1084 C1080 1.350 . S
C1084 C1081 1.463 . S
C1084 N1088 1.427 . S
C1085 H1075 0.929 . S
C1085 C1083 1.433 . S
C1085 N1088 1.384 . S
C1086 H1077 0.929 . S
C1086 C1078 1.378 . S
C1086 C1081 1.350 . S
C1087 H1074 0.929 . S
C1087 C1079 1.433 . S
C1087 N1089 1.384 . S
N1088 C1084 1.427 . S
N1088 C1085 1.384 . S
N1089 C1081 1.427 . S
N1089 C1087 1.384 . S
H1090 C1096 0.930 . S
H1091 C1100 0.930 . S
H1092 C1105 0.929 . S
H1093 C1103 0.929 . S
H1094 C1098 0.929 . S
H1095 C1104 0.929 . S
C1096 H1090 0.930 . S
C1096 C1097 1.367 . S
C1096 C1104 1.378 . S
C1097 C1096 1.367 . S
C1097 C1105 1.433 . S
C1098 H1094 0.929 . S
C1098 C1100 1.378 . S
C1098 C1102 1.350 . S
C1099 C1102 1.463 . S
C1099 C1104 1.350 . S
C1099 N1107 1.427 . S
C1100 H1091 0.930 . S
C1100 C1098 1.378 . S
C1100 C1101 1.367 . S
C1101 C1100 1.367 . S
C1101 C1103 1.433 . S
C1102 C1098 1.350 . S
C1102 C1099 1.463 . S
C1102 N1106 1.427 . S
C1103 H1093 0.929 . S
C1103 C1101 1.433 . S
C1103 N1106 1.384 . S
C1104 H1095 0.929 . S
C1104 C1096 1.378 . S
C1104 C1099 1.350 . S
C1105 H1092 0.929 . S
C1105 C1097 1.433 . S
C1105 N1107 1.384 . S
N1106 C1102 1.427 . S
N1106 C1103 1.384 . S
N1107 C1099 1.427 . S
N1107 C1105 1.384 . S
H1108 C1114 0.930 . S
H1109 C1118 0.930 . S
H1110 C1123 0.929 . S
H1111 C1121 0.929 . S
H1112 C1116 0.929 . S
H1113 C1122 0.929 . S
C1114 H1108 0.930 . S
C1114 C1115 1.367 . S
C1114 C1122 1.378 . S
C1115 C1114 1.367 . S
C1115 C1123 1.433 . S
C1116 H1112 0.929 . S
C1116 C1118 1.378 . S
C1116 C1120 1.350 . S
C1117 C1120 1.463 . S
C1117 C1122 1.350 . S
C1117 N1125 1.427 . S
C1118 H1109 0.930 . S
C1118 C1116 1.378 . S
C1118 C1119 1.367 . S
C1119 C1118 1.367 . S
C1119 C1121 1.433 . S
C1120 C1116 1.350 . S
C1120 C1117 1.463 . S
C1120 N1124 1.427 . S
C1121 H1111 0.929 . S
C1121 C1119 1.433 . S
C1121 N1124 1.384 . S
C1122 H1113 0.929 . S
C1122 C1114 1.378 . S
C1122 C1117 1.350 . S
C1123 H1110 0.929 . S
C1123 C1115 1.433 . S
C1123 N1125 1.384 . S
N1124 C1120 1.427 . S
N1124 C1121 1.384 . S
N1125 C1117 1.427 . S
N1125 C1123 1.384 . S
H1126 C1132 0.930 . S
H1127 C1136 0.930 . S
H1128 C1141 0.929 . S
H1129 C1139 0.929 . S
H1130 C1134 0.929 . S
H1131 C1140 0.929 . S
C1132 H1126 0.930 . S
C1132 C1133 1.367 . S
C1132 C1140 1.378 . S
C1133 C1132 1.367 . S
C1133 C1141 1.433 . S
C1134 H1130 0.929 . S
C1134 C1136 1.378 . S
C1134 C1138 1.350 . S
C1135 C1138 1.463 . S
C1135 C1140 1.350 . S
C1135 N1143 1.427 . S
C1136 H1127 0.930 . S
C1136 C1134 1.378 . S
C1136 C1137 1.367 . S
C1137 C1136 1.367 . S
C1137 C1139 1.433 . S
C1138 C1134 1.350 . S
C1138 C1135 1.463 . S
C1138 N1142 1.427 . S
C1139 H1129 0.929 . S
C1139 C1137 1.433 . S
C1139 N1142 1.384 . S
C1140 H1131 0.929 . S
C1140 C1132 1.378 . S
C1140 C1135 1.350 . S
C1141 H1128 0.929 . S
C1141 C1133 1.433 . S
C1141 N1143 1.384 . S
N1142 C1138 1.427 . S
N1142 C1139 1.384 . S
N1143 C1135 1.427 . S
N1143 C1141 1.384 . S
H1144 C1150 0.930 . S
H1145 C1154 0.930 . S
H1146 C1159 0.929 . S
H1147 C1157 0.929 . S
H1148 C1152 0.929 . S
H1149 C1158 0.929 . S
C1150 H1144 0.930 . S
C1150 C1151 1.367 . S
C1150 C1158 1.378 . S
C1151 C1150 1.367 . S
C1151 C1159 1.433 . S
C1152 H1148 0.929 . S
C1152 C1154 1.378 . S
C1152 C1156 1.350 . S
C1153 C1156 1.463 . S
C1153 C1158 1.350 . S
C1153 N1161 1.427 . S
C1154 H1145 0.930 . S
C1154 C1152 1.378 . S
C1154 C1155 1.367 . S
C1155 C1154 1.367 . S
C1155 C1157 1.433 . S
C1156 C1152 1.350 . S
C1156 C1153 1.463 . S
C1156 N1160 1.427 . S
C1157 H1147 0.929 . S
C1157 C1155 1.433 . S
C1157 N1160 1.384 . S
C1158 H1149 0.929 . S
C1158 C1150 1.378 . S
C1158 C1153 1.350 . S
C1159 H1146 0.929 . S
C1159 C1151 1.433 . S
C1159 N1161 1.384 . S
N1160 C1156 1.427 . S
N1160 C1157 1.384 . S
N1161 C1153 1.427 . S
N1161 C1159 1.384 . S
H1162 C1168 0.930 . S
H1163 C1172 0.930 . S
H1164 C1177 0.929 . S
H1165 C1175 0.929 . S
H1166 C1170 0.929 . S
H1167 C1176 0.929 . S
C1168 H1162 0.930 . S
C1168 C1169 1.367 . S
C1168 C1176 1.378 . S
C1169 C1168 1.367 . S
C1169 C1177 1.433 . S
C1170 H1166 0.929 . S
C1170 C1172 1.378 . S
C1170 C1174 1.350 . S
C1171 C1174 1.463 . S
C1171 C1176 1.350 . S
C1171 N1179 1.427 . S
C1172 H1163 0.930 . S
C1172 C1170 1.378 . S
C1172 C1173 1.367 . S
C1173 C1172 1.367 . S
C1173 C1175 1.433 . S
C1174 C1170 1.350 . S
C1174 C1171 1.463 . S
C1174 N1178 1.427 . S
C1175 H1165 0.929 . S
C1175 C1173 1.433 . S
C1175 N1178 1.384 . S
C1176 H1167 0.929 . S
C1176 C1168 1.378 . S
C1176 C1171 1.350 . S
C1177 H1164 0.929 . S
C1177 C1169 1.433 . S
C1177 N1179 1.384 . S
N1178 C1174 1.427 . S
N1178 C1175 1.384 . S
N1179 C1171 1.427 . S
N1179 C1177 1.384 . S
H1180 C1186 0.930 . S
H1181 C1190 0.930 . S
H1182 C1195 0.929 . S
H1183 C1193 0.929 . S
H1184 C1188 0.929 . S
H1185 C1194 0.929 . S
C1186 H1180 0.930 . S
C1186 C1187 1.367 . S
C1186 C1194 1.378 . S
C1187 C1186 1.367 . S
C1187 C1195 1.433 . S
C1188 H1184 0.929 . S
C1188 C1190 1.378 . S
C1188 C1192 1.350 . S
C1189 C1192 1.463 . S
C1189 C1194 1.350 . S
C1189 N1197 1.427 . S
C1190 H1181 0.930 . S
C1190 C1188 1.378 . S
C1190 C1191 1.367 . S
C1191 C1190 1.367 . S
C1191 C1193 1.433 . S
C1192 C1188 1.350 . S
C1192 C1189 1.463 . S
C1192 N1196 1.427 . S
C1193 H1183 0.929 . S
C1193 C1191 1.433 . S
C1193 N1196 1.384 . S
C1194 H1185 0.929 . S
C1194 C1186 1.378 . S
C1194 C1189 1.350 . S
C1195 H1182 0.929 . S
C1195 C1187 1.433 . S
C1195 N1197 1.384 . S
N1196 C1192 1.427 . S
N1196 C1193 1.384 . S
N1197 C1189 1.427 . S
N1197 C1195 1.384 . S
H1198 C1204 0.930 . S
H1199 C1208 0.930 . S
H1200 C1213 0.929 . S
H1201 C1211 0.929 . S
H1202 C1206 0.929 . S
H1203 C1212 0.929 . S
C1204 H1198 0.930 . S
C1204 C1205 1.367 . S
C1204 C1212 1.378 . S
C1205 C1204 1.367 . S
C1205 C1213 1.433 . S
C1206 H1202 0.929 . S
C1206 C1208 1.378 . S
C1206 C1210 1.350 . S
C1207 C1210 1.463 . S
C1207 C1212 1.350 . S
C1207 N1215 1.427 . S
C1208 H1199 0.930 . S
C1208 C1206 1.378 . S
C1208 C1209 1.367 . S
C1209 C1208 1.367 . S
C1209 C1211 1.433 . S
C1210 C1206 1.350 . S
C1210 C1207 1.463 . S
C1210 N1214 1.427 . S
C1211 H1201 0.929 . S
C1211 C1209 1.433 . S
C1211 N1214 1.384 . S
C1212 H1203 0.929 . S
C1212 C1204 1.378 . S
C1212 C1207 1.350 . S
C1213 H1200 0.929 . S
C1213 C1205 1.433 . S
C1213 N1215 1.384 . S
N1214 C1210 1.427 . S
N1214 C1211 1.384 . S
N1215 C1207 1.427 . S
N1215 C1213 1.384 . S
H1216 C1222 0.930 . S
H1217 C1226 0.930 . S
H1218 C1231 0.929 . S
H1219 C1229 0.929 . S
H1220 C1224 0.929 . S
H1221 C1230 0.929 . S
C1222 H1216 0.930 . S
C1222 C1223 1.367 . S
C1222 C1230 1.378 . S
C1223 C1222 1.367 . S
C1223 C1231 1.433 . S
C1224 H1220 0.929 . S
C1224 C1226 1.378 . S
C1224 C1228 1.350 . S
C1225 C1228 1.463 . S
C1225 C1230 1.350 . S
C1225 N1233 1.427 . S
C1226 H1217 0.930 . S
C1226 C1224 1.378 . S
C1226 C1227 1.367 . S
C1227 C1226 1.367 . S
C1227 C1229 1.433 . S
C1228 C1224 1.350 . S
C1228 C1225 1.463 . S
C1228 N1232 1.427 . S
C1229 H1219 0.929 . S
C1229 C1227 1.433 . S
C1229 N1232 1.384 . S
C1230 H1221 0.929 . S
C1230 C1222 1.378 . S
C1230 C1225 1.350 . S
C1231 H1218 0.929 . S
C1231 C1223 1.433 . S
C1231 N1233 1.384 . S
N1232 C1228 1.427 . S
N1232 C1229 1.384 . S
N1233 C1225 1.427 . S
N1233 C1231 1.384 . S
H1234 C1240 0.930 . S
H1235 C1244 0.930 . S
H1236 C1249 0.929 . S
H1237 C1247 0.929 . S
H1238 C1242 0.929 . S
H1239 C1248 0.929 . S
C1240 H1234 0.930 . S
C1240 C1241 1.367 . S
C1240 C1248 1.378 . S
C1241 C1240 1.367 . S
C1241 C1249 1.433 . S
C1242 H1238 0.929 . S
C1242 C1244 1.378 . S
C1242 C1246 1.350 . S
C1243 C1246 1.463 . S
C1243 C1248 1.350 . S
C1243 N1251 1.427 . S
C1244 H1235 0.930 . S
C1244 C1242 1.378 . S
C1244 C1245 1.367 . S
C1245 C1244 1.367 . S
C1245 C1247 1.433 . S
C1246 C1242 1.350 . S
C1246 C1243 1.463 . S
C1246 N1250 1.427 . S
C1247 H1237 0.929 . S
C1247 C1245 1.433 . S
C1247 N1250 1.384 . S
C1248 H1239 0.929 . S
C1248 C1240 1.378 . S
C1248 C1243 1.350 . S
C1249 H1236 0.929 . S
C1249 C1241 1.433 . S
C1249 N1251 1.384 . S
N1250 C1246 1.427 . S
N1250 C1247 1.384 . S
N1251 C1243 1.427 . S
N1251 C1249 1.384 . S
H1252 C1258 0.930 . S
H1253 C1262 0.930 . S
H1254 C1267 0.929 . S
H1255 C1265 0.929 . S
H1256 C1260 0.929 . S
H1257 C1266 0.929 . S
C1258 H1252 0.930 . S
C1258 C1259 1.367 . S
C1258 C1266 1.378 . S
C1259 C1258 1.367 . S
C1259 C1267 1.433 . S
C1260 H1256 0.929 . S
C1260 C1262 1.378 . S
C1260 C1264 1.350 . S
C1261 C1264 1.463 . S
C1261 C1266 1.350 . S
C1261 N1269 1.427 . S
C1262 H1253 0.930 . S
C1262 C1260 1.378 . S
C1262 C1263 1.367 . S
C1263 C1262 1.367 . S
C1263 C1265 1.433 . S
C1264 C1260 1.350 . S
C1264 C1261 1.463 . S
C1264 N1268 1.427 . S
C1265 H1255 0.929 . S
C1265 C1263 1.433 . S
C1265 N1268 1.384 . S
C1266 H1257 0.929 . S
C1266 C1258 1.378 . S
C1266 C1261 1.350 . S
C1267 H1254 0.929 . S
C1267 C1259 1.433 . S
C1267 N1269 1.384 . S
N1268 C1264 1.427 . S
N1268 C1265 1.384 . S
N1269 C1261 1.427 . S
N1269 C1267 1.384 . S
H1270 C1276 0.930 . S
H1271 C1280 0.930 . S
H1272 C1285 0.929 . S
H1273 C1283 0.929 . S
H1274 C1278 0.929 . S
H1275 C1284 0.929 . S
C1276 H1270 0.930 . S
C1276 C1277 1.367 . S
C1276 C1284 1.378 . S
C1277 C1276 1.367 . S
C1277 C1285 1.433 . S
C1278 H1274 0.929 . S
C1278 C1280 1.378 . S
C1278 C1282 1.350 . S
C1279 C1282 1.463 . S
C1279 C1284 1.350 . S
C1279 N1287 1.427 . S
C1280 H1271 0.930 . S
C1280 C1278 1.378 . S
C1280 C1281 1.367 . S
C1281 C1280 1.367 . S
C1281 C1283 1.433 . S
C1282 C1278 1.350 . S
C1282 C1279 1.463 . S
C1282 N1286 1.427 . S
C1283 H1273 0.929 . S
C1283 C1281 1.433 . S
C1283 N1286 1.384 . S
C1284 H1275 0.929 . S
C1284 C1276 1.378 . S
C1284 C1279 1.350 . S
C1285 H1272 0.929 . S
C1285 C1277 1.433 . S
C1285 N1287 1.384 . S
N1286 C1282 1.427 . S
N1286 C1283 1.384 . S
N1287 C1279 1.427 . S
N1287 C1285 1.384 . S
H1288 C1294 0.930 . S
H1289 C1298 0.930 . S
H1290 C1303 0.929 . S
H1291 C1301 0.929 . S
H1292 C1296 0.929 . S
H1293 C1302 0.929 . S
C1294 H1288 0.930 . S
C1294 C1295 1.367 . S
C1294 C1302 1.378 . S
C1295 C1294 1.367 . S
C1295 C1303 1.433 . S
C1296 H1292 0.929 . S
C1296 C1298 1.378 . S
C1296 C1300 1.350 . S
C1297 C1300 1.463 . S
C1297 C1302 1.350 . S
C1297 N1305 1.427 . S
C1298 H1289 0.930 . S
C1298 C1296 1.378 . S
C1298 C1299 1.367 . S
C1299 C1298 1.367 . S
C1299 C1301 1.433 . S
C1300 C1296 1.350 . S
C1300 C1297 1.463 . S
C1300 N1304 1.427 . S
C1301 H1291 0.929 . S
C1301 C1299 1.433 . S
C1301 N1304 1.384 . S
C1302 H1293 0.929 . S
C1302 C1294 1.378 . S
C1302 C1297 1.350 . S
C1303 H1290 0.929 . S
C1303 C1295 1.433 . S
C1303 N1305 1.384 . S
N1304 C1300 1.427 . S
N1304 C1301 1.384 . S
N1305 C1297 1.427 . S
N1305 C1303 1.384 . S
H1306 C1312 0.930 . S
H1307 C1316 0.930 . S
H1308 C1321 0.929 . S
H1309 C1319 0.929 . S
H1310 C1314 0.929 . S
H1311 C1320 0.929 . S
C1312 H1306 0.930 . S
C1312 C1313 1.367 . S
C1312 C1320 1.378 . S
C1313 C1312 1.367 . S
C1313 C1321 1.433 . S
C1314 H1310 0.929 . S
C1314 C1316 1.378 . S
C1314 C1318 1.350 . S
C1315 C1318 1.463 . S
C1315 C1320 1.350 . S
C1315 N1323 1.427 . S
C1316 H1307 0.930 . S
C1316 C1314 1.378 . S
C1316 C1317 1.367 . S
C1317 C1316 1.367 . S
C1317 C1319 1.433 . S
C1318 C1314 1.350 . S
C1318 C1315 1.463 . S
C1318 N1322 1.427 . S
C1319 H1309 0.929 . S
C1319 C1317 1.433 . S
C1319 N1322 1.384 . S
C1320 H1311 0.929 . S
C1320 C1312 1.378 . S
C1320 C1315 1.350 . S
C1321 H1308 0.929 . S
C1321 C1313 1.433 . S
C1321 N1323 1.384 . S
N1322 C1318 1.427 . S
N1322 C1319 1.384 . S
N1323 C1315 1.427 . S
N1323 C1321 1.384 . S
H1324 C1330 0.930 . S
H1325 C1334 0.930 . S
H1326 C1339 0.929 . S
H1327 C1337 0.929 . S
H1328 C1332 0.929 . S
H1329 C1338 0.929 . S
C1330 H1324 0.930 . S
C1330 C1331 1.367 . S
C1330 C1338 1.378 . S
C1331 C1330 1.367 . S
C1331 C1339 1.433 . S
C1332 H1328 0.929 . S
C1332 C1334 1.378 . S
C1332 C1336 1.350 . S
C1333 C1336 1.463 . S
C1333 C1338 1.350 . S
C1333 N1341 1.427 . S
C1334 H1325 0.930 . S
C1334 C1332 1.378 . S
C1334 C1335 1.367 . S
C1335 C1334 1.367 . S
C1335 C1337 1.433 . S
C1336 C1332 1.350 . S
C1336 C1333 1.463 . S
C1336 N1340 1.427 . S
C1337 H1327 0.929 . S
C1337 C1335 1.433 . S
C1337 N1340 1.384 . S
C1338 H1329 0.929 . S
C1338 C1330 1.378 . S
C1338 C1333 1.350 . S
C1339 H1326 0.929 . S
C1339 C1331 1.433 . S
C1339 N1341 1.384 . S
N1340 C1336 1.427 . S
N1340 C1337 1.384 . S
N1341 C1333 1.427 . S
N1341 C1339 1.384 . S
H1342 C1348 0.930 . S
H1343 C1352 0.930 . S
H1344 C1357 0.929 . S
H1345 C1355 0.929 . S
H1346 C1350 0.929 . S
H1347 C1356 0.929 . S
C1348 H1342 0.930 . S
C1348 C1349 1.367 . S
C1348 C1356 1.378 . S
C1349 C1348 1.367 . S
C1349 C1357 1.433 . S
C1350 H1346 0.929 . S
C1350 C1352 1.378 . S
C1350 C1354 1.350 . S
C1351 C1354 1.463 . S
C1351 C1356 1.350 . S
C1351 N1359 1.427 . S
C1352 H1343 0.930 . S
C1352 C1350 1.378 . S
C1352 C1353 1.367 . S
C1353 C1352 1.367 . S
C1353 C1355 1.433 . S
C1354 C1350 1.350 . S
C1354 C1351 1.463 . S
C1354 N1358 1.427 . S
C1355 H1345 0.929 . S
C1355 C1353 1.433 . S
C1355 N1358 1.384 . S
C1356 H1347 0.929 . S
C1356 C1348 1.378 . S
C1356 C1351 1.350 . S
C1357 H1344 0.929 . S
C1357 C1349 1.433 . S
C1357 N1359 1.384 . S
N1358 C1354 1.427 . S
N1358 C1355 1.384 . S
N1359 C1351 1.427 . S
N1359 C1357 1.384 . S
H1360 C1366 0.930 . S
H1361 C1370 0.930 . S
H1362 C1375 0.929 . S
H1363 C1373 0.929 . S
H1364 C1368 0.929 . S
H1365 C1374 0.929 . S
C1366 H1360 0.930 . S
C1366 C1367 1.367 . S
C1366 C1374 1.378 . S
C1367 C1366 1.367 . S
C1367 C1375 1.433 . S
C1368 H1364 0.929 . S
C1368 C1370 1.378 . S
C1368 C1372 1.350 . S
C1369 C1372 1.463 . S
C1369 C1374 1.350 . S
C1369 N1377 1.427 . S
C1370 H1361 0.930 . S
C1370 C1368 1.378 . S
C1370 C1371 1.367 . S
C1371 C1370 1.367 . S
C1371 C1373 1.433 . S
C1372 C1368 1.350 . S
C1372 C1369 1.463 . S
C1372 N1376 1.427 . S
C1373 H1363 0.929 . S
C1373 C1371 1.433 . S
C1373 N1376 1.384 . S
C1374 H1365 0.929 . S
C1374 C1366 1.378 . S
C1374 C1369 1.350 . S
C1375 H1362 0.929 . S
C1375 C1367 1.433 . S
C1375 N1377 1.384 . S
N1376 C1372 1.427 . S
N1376 C1373 1.384 . S
N1377 C1369 1.427 . S
N1377 C1375 1.384 . S
H1378 C1384 0.930 . S
H1379 C1388 0.930 . S
H1380 C1393 0.929 . S
H1381 C1391 0.929 . S
H1382 C1386 0.929 . S
H1383 C1392 0.929 . S
C1384 H1378 0.930 . S
C1384 C1385 1.367 . S
C1384 C1392 1.378 . S
C1385 C1384 1.367 . S
C1385 C1393 1.433 . S
C1386 H1382 0.929 . S
C1386 C1388 1.378 . S
C1386 C1390 1.350 . S
C1387 C1390 1.463 . S
C1387 C1392 1.350 . S
C1387 N1395 1.427 . S
C1388 H1379 0.930 . S
C1388 C1386 1.378 . S
C1388 C1389 1.367 . S
C1389 C1388 1.367 . S
C1389 C1391 1.433 . S
C1390 C1386 1.350 . S
C1390 C1387 1.463 . S
C1390 N1394 1.427 . S
C1391 H1381 0.929 . S
C1391 C1389 1.433 . S
C1391 N1394 1.384 . S
C1392 H1383 0.929 . S
C1392 C1384 1.378 . S
C1392 C1387 1.350 . S
C1393 H1380 0.929 . S
C1393 C1385 1.433 . S
C1393 N1395 1.384 . S
N1394 C1390 1.427 . S
N1394 C1391 1.384 . S
N1395 C1387 1.427 . S
N1395 C1393 1.384 . S
H1396 C1402 0.930 . S
H1397 C1406 0.930 . S
H1398 C1411 0.929 . S
H1399 C1409 0.929 . S
H1400 C1404 0.929 . S
H1401 C1410 0.929 . S
C1402 H1396 0.930 . S
C1402 C1403 1.367 . S
C1402 C1410 1.378 . S
C1403 C1402 1.367 . S
C1403 C1411 1.433 . S
C1404 H1400 0.929 . S
C1404 C1406 1.378 . S
C1404 C1408 1.350 . S
C1405 C1408 1.463 . S
C1405 C1410 1.350 . S
C1405 N1413 1.427 . S
C1406 H1397 0.930 . S
C1406 C1404 1.378 . S
C1406 C1407 1.367 . S
C1407 C1406 1.367 . S
C1407 C1409 1.433 . S
C1408 C1404 1.350 . S
C1408 C1405 1.463 . S
C1408 N1412 1.427 . S
C1409 H1399 0.929 . S
C1409 C1407 1.433 . S
C1409 N1412 1.384 . S
C1410 H1401 0.929 . S
C1410 C1402 1.378 . S
C1410 C1405 1.350 . S
C1411 H1398 0.929 . S
C1411 C1403 1.433 . S
C1411 N1413 1.384 . S
N1412 C1408 1.427 . S
N1412 C1409 1.384 . S
N1413 C1405 1.427 . S
N1413 C1411 1.384 . S
H1414 C1420 0.930 . S
H1415 C1424 0.930 . S
H1416 C1429 0.929 . S
H1417 C1427 0.929 . S
H1418 C1422 0.929 . S
H1419 C1428 0.929 . S
C1420 H1414 0.930 . S
C1420 C1421 1.367 . S
C1420 C1428 1.378 . S
C1421 C1420 1.367 . S
C1421 C1429 1.433 . S
C1422 H1418 0.929 . S
C1422 C1424 1.378 . S
C1422 C1426 1.350 . S
C1423 C1426 1.463 . S
C1423 C1428 1.350 . S
C1423 N1431 1.427 . S
C1424 H1415 0.930 . S
C1424 C1422 1.378 . S
C1424 C1425 1.367 . S
C1425 C1424 1.367 . S
C1425 C1427 1.433 . S
C1426 C1422 1.350 . S
C1426 C1423 1.463 . S
C1426 N1430 1.427 . S
C1427 H1417 0.929 . S
C1427 C1425 1.433 . S
C1427 N1430 1.384 . S
C1428 H1419 0.929 . S
C1428 C1420 1.378 . S
C1428 C1423 1.350 . S
C1429 H1416 0.929 . S
C1429 C1421 1.433 . S
C1429 N1431 1.384 . S
N1430 C1426 1.427 . S
N1430 C1427 1.384 . S
N1431 C1423 1.427 . S
N1431 C1429 1.384 . S
H1432 C1438 0.930 . S
H1433 C1442 0.930 . S
H1434 C1447 0.929 . S
H1435 C1445 0.929 . S
H1436 C1440 0.929 . S
H1437 C1446 0.929 . S
C1438 H1432 0.930 . S
C1438 C1439 1.367 . S
C1438 C1446 1.378 . S
C1439 C1438 1.367 . S
C1439 C1447 1.433 . S
C1440 H1436 0.929 . S
C1440 C1442 1.378 . S
C1440 C1444 1.350 . S
C1441 C1444 1.463 . S
C1441 C1446 1.350 . S
C1441 N1449 1.427 . S
C1442 H1433 0.930 . S
C1442 C1440 1.378 . S
C1442 C1443 1.367 . S
C1443 C1442 1.367 . S
C1443 C1445 1.433 . S
C1444 C1440 1.350 . S
C1444 C1441 1.463 . S
C1444 N1448 1.427 . S
C1445 H1435 0.929 . S
C1445 C1443 1.433 . S
C1445 N1448 1.384 . S
C1446 H1437 0.929 . S
C1446 C1438 1.378 . S
C1446 C1441 1.350 . S
C1447 H1434 0.929 . S
C1447 C1439 1.433 . S
C1447 N1449 1.384 . S
N1448 C1444 1.427 . S
N1448 C1445 1.384 . S
N1449 C1441 1.427 . S
N1449 C1447 1.384 . S
H1450 C1456 0.930 . S
H1451 C1460 0.930 . S
H1452 C1465 0.929 . S
H1453 C1463 0.929 . S
H1454 C1458 0.929 . S
H1455 C1464 0.929 . S
C1456 H1450 0.930 . S
C1456 C1457 1.367 . S
C1456 C1464 1.378 . S
C1457 C1456 1.367 . S
C1457 C1465 1.433 . S
C1458 H1454 0.929 . S
C1458 C1460 1.378 . S
C1458 C1462 1.350 . S
C1459 C1462 1.463 . S
C1459 C1464 1.350 . S
C1459 N1467 1.427 . S
C1460 H1451 0.930 . S
C1460 C1458 1.378 . S
C1460 C1461 1.367 . S
C1461 C1460 1.367 . S
C1461 C1463 1.433 . S
C1462 C1458 1.350 . S
C1462 C1459 1.463 . S
C1462 N1466 1.427 . S
C1463 H1453 0.929 . S
C1463 C1461 1.433 . S
C1463 N1466 1.384 . S
C1464 H1455 0.929 . S
C1464 C1456 1.378 . S
C1464 C1459 1.350 . S
C1465 H1452 0.929 . S
C1465 C1457 1.433 . S
C1465 N1467 1.384 . S
N1466 C1462 1.427 . S
N1466 C1463 1.384 . S
N1467 C1459 1.427 . S
N1467 C1465 1.384 . S
H1468 C1474 0.930 . S
H1469 C1478 0.930 . S
H1470 C1483 0.929 . S
H1471 C1481 0.929 . S
H1472 C1476 0.929 . S
H1473 C1482 0.929 . S
C1474 H1468 0.930 . S
C1474 C1475 1.367 . S
C1474 C1482 1.378 . S
C1475 C1474 1.367 . S
C1475 C1483 1.433 . S
C1476 H1472 0.929 . S
C1476 C1478 1.378 . S
C1476 C1480 1.350 . S
C1477 C1480 1.463 . S
C1477 C1482 1.350 . S
C1477 N1485 1.427 . S
C1478 H1469 0.930 . S
C1478 C1476 1.378 . S
C1478 C1479 1.367 . S
C1479 C1478 1.367 . S
C1479 C1481 1.433 . S
C1480 C1476 1.350 . S
C1480 C1477 1.463 . S
C1480 N1484 1.427 . S
C1481 H1471 0.929 . S
C1481 C1479 1.433 . S
C1481 N1484 1.384 . S
C1482 H1473 0.929 . S
C1482 C1474 1.378 . S
C1482 C1477 1.350 . S
C1483 H1470 0.929 . S
C1483 C1475 1.433 . S
C1483 N1485 1.384 . S
N1484 C1480 1.427 . S
N1484 C1481 1.384 . S
N1485 C1477 1.427 . S
N1485 C1483 1.384 . S
H1486 C1492 0.930 . S
H1487 C1496 0.930 . S
H1488 C1501 0.929 . S
H1489 C1499 0.929 . S
H1490 C1494 0.929 . S
H1491 C1500 0.929 . S
C1492 H1486 0.930 . S
C1492 C1493 1.367 . S
C1492 C1500 1.378 . S
C1493 C1492 1.367 . S
C1493 C1501 1.433 . S
C1494 H1490 0.929 . S
C1494 C1496 1.378 . S
C1494 C1498 1.350 . S
C1495 C1498 1.463 . S
C1495 C1500 1.350 . S
C1495 N1503 1.427 . S
C1496 H1487 0.930 . S
C1496 C1494 1.378 . S
C1496 C1497 1.367 . S
C1497 C1496 1.367 . S
C1497 C1499 1.433 . S
C1498 C1494 1.350 . S
C1498 C1495 1.463 . S
C1498 N1502 1.427 . S
C1499 H1489 0.929 . S
C1499 C1497 1.433 . S
C1499 N1502 1.384 . S
C1500 H1491 0.929 . S
C1500 C1492 1.378 . S
C1500 C1495 1.350 . S
C1501 H1488 0.929 . S
C1501 C1493 1.433 . S
C1501 N1503 1.384 . S
N1502 C1498 1.427 . S
N1502 C1499 1.384 . S
N1503 C1495 1.427 . S
N1503 C1501 1.384 . S
C647 C139 3.524 . S
C651 C18 3.550 . S
C665 C10 2.354 . S
C669 C59 2.361 . S
C683 C89 0.987 . S
C687 C49 0.973 . S
C701 C126 1.386 . S
C705 C86 1.399 . S
C719 C170 2.326 . S
C723 C210 2.358 . S
C737 C218 1.026 . S
C741 C258 1.049 . S
C755 C255 1.283 . S
C759 C286 1.259 . S
C773 C175 0.914 . S
C777 C289 0.939 . S
C791 C375 1.193 . S
C795 C15 1.165 . S
C809 C410 0.839 . S
C813 C46 0.846 . S
C827 C99 2.329 . S
C831 C539 2.285 . S
C845 C338 1.005 . S
C849 C129 1.020 . S
C863 C449 1.026 . S
C867 C178 0.994 . S
C881 C575 1.176 . S
C885 C215 1.193 . S
C899 C250 0.862 . S
C903 C486 0.850 . S
C917 C619 2.331 . S
C921 C299 2.289 . S
C935 C335 0.927 . S
C939 C529 0.937 . S
C953 C370 2.358 . S
C957 C330 2.325 . S
C971 C418 1.048 . S
C975 C378 1.022 . S
C989 C578 3.549 . S
C993 C459 3.523 . S
C1007 C489 0.988 . S
C1011 C609 0.993 . S
C1025 C450 3.525 . S
C1029 C9 3.551 . S
C1043 C490 2.357 . S
C1047 C19 2.357 . S
C1061 C498 0.967 . S
C1065 C98 0.997 . S
C1079 C95 1.406 . S
C1083 C455 1.394 . S
C1097 C379 2.360 . S
C1101 C179 2.324 . S
C1115 C369 1.038 . S
C1119 C249 1.043 . S
C1133 C535 1.264 . S
C1137 C246 1.281 . S
C1151 C166 0.906 . S
C1155 C538 0.933 . S
C1169 C206 1.191 . S
C1173 C6 1.167 . S
C1187 C419 0.853 . S
C1191 C495 0.862 . S
C1205 C90 2.329 . S
C1209 C290 2.292 . S
C1223 C329 0.995 . S
C1227 C458 1.025 . S
C1241 C138 1.021 . S
C1245 C169 1.003 . S
C1259 C366 1.191 . S
C1263 C566 1.169 . S
C1277 C259 0.861 . S
C1281 C55 0.867 . S
C1295 C610 2.330 . S
C1299 C530 2.285 . S
C1313 C326 0.905 . S
C1317 C298 0.931 . S
C1331 C339 2.323 . S
C1335 C219 2.357 . S
C1349 C409 1.041 . S
C1353 C209 1.035 . S
C1367 C130 3.526 . S
C1371 C569 3.551 . S
C1385 C58 0.985 . S
C1389 C618 0.996 . S
C1403 C499 2.359 . S
C1407 C570 2.356 . S
C1421 C446 1.387 . S
C1425 C606 1.402 . S
C1439 C415 1.281 . S
C1443 C526 1.253 . S
C1457 C579 2.355 . S
C1461 C50 2.360 . S
C1475 C135 1.401 . S
C1479 C615 1.414 . S
C1493 C295 1.251 . S
C1497 C406 1.280 . S
