# Generated by pormake.
# Topology vby, (6)-cn, num edge types: 1
# Building blocks:
#     Node 0, Type 0, BuildingBlock: BETFEN_clean_sbu_0, # of connection points: 6
#     Node 1, Type 0, BuildingBlock: BETFEN_clean_sbu_0, # of connection points: 6
#     Node 2, Type 0, BuildingBlock: BETFEN_clean_sbu_0, # of connection points: 6
#     Node 3, Type 0, BuildingBlock: BETFEN_clean_sbu_0, # of connection points: 6
#     Node 4, Type 0, BuildingBlock: BETFEN_clean_sbu_0, # of connection points: 6
#     Node 5, Type 0, BuildingBlock: BETFEN_clean_sbu_0, # of connection points: 6
#     Node 6, Type 0, BuildingBlock: BETFEN_clean_sbu_0, # of connection points: 6
#     Node 7, Type 0, BuildingBlock: BETFEN_clean_sbu_0, # of connection points: 6
#     Edge 8, Type (0, 0), BuildingBlock: OJICUG_clean_linker_0, # of connection points: 2
#     Edge 9, Type (0, 0), BuildingBlock: OJICUG_clean_linker_0, # of connection points: 2
#     Edge 10, Type (0, 0), BuildingBlock: OJICUG_clean_linker_0, # of connection points: 2
#     Edge 11, Type (0, 0), BuildingBlock: OJICUG_clean_linker_0, # of connection points: 2
#     Edge 12, Type (0, 0), BuildingBlock: OJICUG_clean_linker_0, # of connection points: 2
#     Edge 13, Type (0, 0), BuildingBlock: OJICUG_clean_linker_0, # of connection points: 2
#     Edge 14, Type (0, 0), BuildingBlock: OJICUG_clean_linker_0, # of connection points: 2
#     Edge 15, Type (0, 0), BuildingBlock: OJICUG_clean_linker_0, # of connection points: 2
#     Edge 16, Type (0, 0), BuildingBlock: OJICUG_clean_linker_0, # of connection points: 2
#     Edge 17, Type (0, 0), BuildingBlock: OJICUG_clean_linker_0, # of connection points: 2
#     Edge 18, Type (0, 0), BuildingBlock: OJICUG_clean_linker_0, # of connection points: 2
#     Edge 19, Type (0, 0), BuildingBlock: OJICUG_clean_linker_0, # of connection points: 2
#     Edge 20, Type (0, 0), BuildingBlock: OJICUG_clean_linker_0, # of connection points: 2
#     Edge 21, Type (0, 0), BuildingBlock: OJICUG_clean_linker_0, # of connection points: 2
#     Edge 22, Type (0, 0), BuildingBlock: OJICUG_clean_linker_0, # of connection points: 2
#     Edge 23, Type (0, 0), BuildingBlock: OJICUG_clean_linker_0, # of connection points: 2
#     Edge 24, Type (0, 0), BuildingBlock: OJICUG_clean_linker_0, # of connection points: 2
#     Edge 25, Type (0, 0), BuildingBlock: OJICUG_clean_linker_0, # of connection points: 2
#     Edge 26, Type (0, 0), BuildingBlock: OJICUG_clean_linker_0, # of connection points: 2
#     Edge 27, Type (0, 0), BuildingBlock: OJICUG_clean_linker_0, # of connection points: 2
#     Edge 28, Type (0, 0), BuildingBlock: OJICUG_clean_linker_0, # of connection points: 2
#     Edge 29, Type (0, 0), BuildingBlock: OJICUG_clean_linker_0, # of connection points: 2
#     Edge 30, Type (0, 0), BuildingBlock: OJICUG_clean_linker_0, # of connection points: 2
#     Edge 31, Type (0, 0), BuildingBlock: OJICUG_clean_linker_0, # of connection points: 2
# Relax obj value: 0.203
# Max RMSD: 0.222
# Mean RMSD: 0.222
data_MOF--net-vby--node1-BETFEN_clean_sbu_0--edge1-OJICUG_clean_linker_0
_symmetry_space_group_name_H-M    P1
_symmetry_Int_Tables_number       1
_symmetry_cell_setting            triclinic
loop_
_symmetry_equiv_pos_as_xyz
'x, y, z'
_cell_length_a     11.557403
_cell_length_b     88.703282
_cell_length_c     21.571418
_cell_angle_alpha  90.018524
_cell_angle_beta   94.309604
_cell_angle_gamma 90.035462
loop_
_atom_site_label
_atom_site_type_symbol
_atom_site_fract_x
_atom_site_fract_y
_atom_site_fract_z
_atom_type_partial_charge
Pr0 Pr 0.094 0.37319 0.00321 0.0
Pr1 Pr 0.09446 0.40753 0.01863 0.0
C2 C 0.10623 0.34473 0.9598 0.0
C3 C 0.15571 0.32962 0.97533 0.0
C4 C 0.13506 0.32212 0.03092 0.0
C5 C 0.17324 0.30724 0.04122 0.0
C6 C 0.23283 0.29951 0.99618 0.0
C7 C 0.25739 0.30733 0.9419 0.0
C8 C 0.21914 0.32215 0.93163 0.0
C9 C 0.10009 0.37832 0.13203 0.0
C10 C 0.34581 0.39151 0.01844 0.0
C11 C 0.04897 0.43673 0.04149 0.0
C12 C 0.05853 0.45319 0.03362 0.0
C13 C 0.07457 0.45993 0.97595 0.0
C14 C 0.07334 0.47571 0.97009 0.0
C15 C 0.05542 0.48498 0.02172 0.0
C16 C 1.03926 0.47805 0.07906 0.0
C17 C 1.0412 0.46238 0.08487 0.0
C18 C 0.10613 0.39754 0.89531 0.0
C19 C 0.84631 0.38945 0.01609 0.0
O20 O 0.17819 0.35539 0.94567 0.0
O21 O 1.02131 0.3496 0.99145 0.0
O22 O 0.09801 0.38874 0.09191 0.0
O23 O 0.10704 0.36528 0.10586 0.0
O24 O 0.29252 0.40318 0.04135 0.0
O25 O 0.28728 0.37998 0.99355 0.0
O26 O 0.13157 0.42927 0.07304 0.0
O27 O 0.9933 0.42889 0.99745 0.0
O28 O 1.04134 0.3921 0.93418 0.0
O29 O 0.16675 0.40862 0.92001 0.0
O30 O 0.89615 0.37842 0.987 0.0
O31 O 0.90848 0.40041 0.04286 0.0
H32 H 0.08702 0.3276 0.0658 0.0
H33 H 0.1524 0.30162 0.08354 0.0
H34 H 0.30543 0.30193 0.90684 0.0
H35 H 0.237 0.3277 0.88862 0.0
H36 H 0.08691 0.45304 0.93551 0.0
H37 H 0.08688 0.48064 0.92528 0.0
H38 H 1.02242 0.48472 0.11945 0.0
H39 H 1.02638 0.45739 0.12945 0.0
Pr40 Pr 0.99689 0.62792 0.00577 0.0
Pr41 Pr 0.99698 0.6623 0.02126 0.0
C42 C 1.04277 0.59874 0.98265 0.0
C43 C 1.03336 0.58228 0.99066 0.0
C44 C 1.01726 0.57556 0.04837 0.0
C45 C 1.01849 0.55978 0.05432 0.0
C46 C 1.03645 0.5505 0.00276 0.0
C47 C 0.05273 0.55741 0.94539 0.0
C48 C 0.0508 0.57307 0.93948 0.0
C49 C 0.98549 0.63782 0.12912 0.0
C50 C 0.24484 0.64605 0.0084 0.0
C51 C 0.98463 0.69078 0.06449 0.0
C52 C 0.93535 0.70589 0.04884 0.0
C53 C 0.95818 0.7135 0.99381 0.0
C54 C 0.92019 0.72839 0.98353 0.0
C55 C 0.85862 0.73602 0.02803 0.0
C56 C 0.83189 0.7281 0.08168 0.0
C57 C 0.86996 0.71327 0.09194 0.0
C58 C 0.99086 0.65713 0.89243 0.0
C59 C 0.74542 0.64391 0.00633 0.0
O60 O 0.9597 0.60617 0.95137 0.0
O61 O 0.09878 0.6066 0.02653 0.0
O62 O 0.04967 0.64338 0.09021 0.0
O63 O 0.92538 0.62669 0.10446 0.0
O64 O 0.19491 0.65705 0.03766 0.0
O65 O 0.1827 0.63511 0.98141 0.0
O66 O 0.91249 0.68012 0.07852 0.0
O67 O 0.0698 0.68589 0.03307 0.0
O68 O 0.99303 0.64673 0.93265 0.0
O69 O 0.98354 0.67017 0.91853 0.0
O70 O 0.79874 0.63228 0.98309 0.0
O71 O 0.80391 0.65543 0.03139 0.0
H72 H 1.00485 0.58247 0.08875 0.0
H73 H 1.00488 0.55487 0.09915 0.0
H74 H 0.06963 0.55072 0.90506 0.0
H75 H 0.06567 0.57805 0.89488 0.0
H76 H 1.00777 0.7081 0.95939 0.0
H77 H 0.94274 0.73409 0.94171 0.0
H78 H 0.78231 0.73343 0.11628 0.0
H79 H 0.85042 0.70764 0.1345 0.0
Pr80 Pr 0.09831 0.62869 0.51536 0.0
Pr81 Pr 0.09494 0.66227 0.50557 0.0
C82 C 0.07227 0.59874 0.52441 0.0
C83 C 0.05773 0.58222 0.52334 0.0
C84 C 1.02839 0.57479 0.46682 0.0
C85 C 1.02299 0.55907 0.4644 0.0
C86 C 0.04654 0.55043 0.51851 0.0
C87 C 0.07313 0.55792 0.57536 0.0
C88 C 0.07917 0.57368 0.57767 0.0
C89 C 0.11156 0.63963 0.39358 0.0
C90 C 0.84742 0.6456 0.51613 0.0
C91 C 0.10495 0.69086 0.46334 0.0
C92 C 0.15464 0.70599 0.47818 0.0
C93 C 0.13265 0.71372 0.53301 0.0
C94 C 0.17113 0.72861 0.54261 0.0
C95 C 0.2324 0.73611 0.49764 0.0
C96 C 0.25807 0.72808 0.44408 0.0
C97 C 0.21946 0.71324 0.43448 0.0
C98 C 0.10033 0.65687 0.63371 0.0
C99 C 0.34817 0.64472 0.52115 0.0
O100 O 0.14183 0.60613 0.56443 0.0
O101 O 1.01509 0.60702 0.48249 0.0
O102 O 1.04338 0.64437 0.43212 0.0
O103 O 0.17933 0.62939 0.41897 0.0
O104 O 0.89732 0.65715 0.49048 0.0
O105 O 0.90919 0.63416 0.53899 0.0
O106 O 0.17632 0.68026 0.44794 0.0
O107 O 1.02201 0.68589 0.49617 0.0
O108 O 0.09836 0.64626 0.59417 0.0
O109 O 0.10856 0.6699 0.60775 0.0
O110 O 0.29423 0.63295 0.54222 0.0
O111 O 0.28975 0.65627 0.49677 0.0
H112 H 1.012 0.58112 0.42411 0.0
H113 H 1.00064 0.55367 0.42006 0.0
H114 H 0.09253 0.5516 0.6178 0.0
H115 H 0.10218 0.57916 0.62175 0.0
H116 H 0.08338 0.70842 0.56782 0.0
H117 H 0.14926 0.7344 0.58435 0.0
H118 H 0.30728 0.73331 0.40909 0.0
H119 H 0.2382 0.70752 0.39199 0.0
Pr120 Pr 0.99665 0.37333 0.51924 0.0
Pr121 Pr 0.99352 0.40684 0.50871 0.0
C122 C 0.9861 0.34476 0.56172 0.0
C123 C 0.93667 0.32962 0.54681 0.0
C124 C 0.95885 0.3219 0.49197 0.0
C125 C 0.92052 0.30701 0.48228 0.0
C126 C 0.85921 0.29949 0.52719 0.0
C127 C 0.83334 0.3075 0.58076 0.0
C128 C 0.87179 0.32235 0.59043 0.0
C129 C 0.99156 0.37857 0.3909 0.0
C130 C 0.7436 0.3909 0.50388 0.0
C131 C 1.0205 0.43676 0.49897 0.0
C132 C 1.03466 0.45328 0.50055 0.0
C133 C 0.0636 0.46066 0.55724 0.0
C134 C 0.06923 0.47639 0.55985 0.0
C135 C 0.04622 0.48507 0.50581 0.0
C136 C 1.01987 0.47762 0.44884 0.0
C137 C 1.01372 0.46187 0.44632 0.0
C138 C 0.98051 0.39599 0.63078 0.0
C139 C 0.24417 0.38992 0.50842 0.0
O140 O 0.91434 0.35536 0.57661 0.0
O141 O 0.06964 0.34971 0.52927 0.0
O142 O 0.99336 0.3892 0.43028 0.0
O143 O 0.98371 0.36556 0.41711 0.0
O144 O 0.79751 0.40255 0.4817 0.0
O145 O 0.80217 0.37945 0.52897 0.0
O146 O 0.94921 0.42941 0.4597 0.0
O147 O 0.07839 0.42846 0.54055 0.0
O148 O 0.04891 0.39129 0.59231 0.0
O149 O 0.91271 0.40621 0.60528 0.0
O150 O 0.19426 0.37852 0.53508 0.0
O151 O 0.18216 0.40122 0.48439 0.0
H152 H 1.00814 0.32722 0.45721 0.0
H153 H 0.94252 0.30123 0.44055 0.0
H154 H 0.78407 0.30226 0.61568 0.0
H155 H 0.85287 0.32806 0.63291 0.0
H156 H 0.07969 0.4543 0.59986 0.0
H157 H 0.0914 0.48175 0.60429 0.0
H158 H 1.00082 0.48397 0.40645 0.0
H159 H 0.99104 0.45642 0.40212 0.0
Pr160 Pr 0.59461 0.87331 0.00361 0.0
Pr161 Pr 0.59484 0.90748 0.01877 0.0
C162 C 0.60758 0.84482 0.96046 0.0
C163 C 0.65683 0.82969 0.97603 0.0
C164 C 0.63404 0.82207 0.03103 0.0
C165 C 0.67205 0.80718 0.04123 0.0
C166 C 0.73361 0.79956 0.9967 0.0
C167 C 0.76025 0.80749 0.94306 0.0
C168 C 0.72217 0.82233 0.93288 0.0
C169 C 0.60002 0.87837 0.13263 0.0
C170 C 0.84634 0.8916 0.01869 0.0
C171 C 0.54927 0.93672 0.04116 0.0
C172 C 0.55834 0.95319 0.0333 0.0
C173 C 0.57431 0.95995 0.97565 0.0
C174 C 0.57293 0.97573 0.96985 0.0
C175 C 0.5549 0.98499 0.0215 0.0
C176 C 0.53872 0.97804 0.0788 0.0
C177 C 0.54082 0.96237 0.08456 0.0
C178 C 0.60696 0.89755 0.8952 0.0
C179 C 0.34675 0.88946 0.01624 0.0
O180 O 0.67977 0.85548 0.94663 0.0
O181 O 0.5222 0.84969 0.99175 0.0
O182 O 0.59799 0.88882 0.09264 0.0
O183 O 0.60718 0.86536 0.10627 0.0
O184 O 0.79289 0.90318 0.04217 0.0
O185 O 0.78782 0.88013 0.99332 0.0
O186 O 0.63195 0.92929 0.07278 0.0
O187 O 0.49366 0.92883 0.99724 0.0
O188 O 0.5417 0.89211 0.93389 0.0
O189 O 0.66827 0.9085 0.92043 0.0
O190 O 0.39667 0.8785 0.98674 0.0
O191 O 0.40901 0.90035 0.04343 0.0
H192 H 0.58448 0.82746 0.06548 0.0
H193 H 0.64956 0.80147 0.08305 0.0
H194 H 0.8098 0.80217 0.90843 0.0
H195 H 0.74167 0.82796 0.89033 0.0
H196 H 0.58681 0.95307 0.93521 0.0
H197 H 0.58651 0.98067 0.92506 0.0
H198 H 0.52177 0.9847 0.11921 0.0
H199 H 0.52606 0.95737 0.12912 0.0
Pr200 Pr 0.49712 0.12806 0.00594 0.0
Pr201 Pr 0.49774 0.16229 0.02084 0.0
C202 C 0.54231 0.09882 0.98333 0.0
C203 C 0.53296 0.08235 0.99113 0.0
C204 C 0.51664 0.07559 0.04873 0.0
C205 C 0.51788 0.05981 0.05452 0.0
C206 C 0.53608 0.05055 0.0029 0.0
C207 C 0.55257 0.0575 0.94563 0.0
C208 C 0.55063 0.07317 0.93989 0.0
C209 C 0.48522 0.13795 0.12943 0.0
C210 C 0.74542 0.14606 0.00832 0.0
C211 C 0.48525 0.19078 0.06399 0.0
C212 C 0.4358 0.2059 0.04859 0.0
C213 C 0.4564 0.21343 0.99305 0.0
C214 C 0.41824 0.22831 0.98287 0.0
C215 C 0.35872 0.23602 0.02798 0.0
C216 C 0.33428 0.22819 0.08224 0.0
C217 C 0.37251 0.21336 0.09239 0.0
C218 C 0.49184 0.15715 0.89189 0.0
C219 C 0.24581 0.14404 0.00573 0.0
O220 O 0.45974 0.10628 0.95176 0.0
O221 O 0.598 0.10668 0.02732 0.0
O222 O 0.55005 0.14349 0.09071 0.0
O223 O 0.42415 0.12697 0.10424 0.0
O224 O 0.69557 0.15713 0.03719 0.0
O225 O 0.68325 0.13509 0.98176 0.0
O226 O 0.41333 0.18012 0.07815 0.0
O227 O 0.57012 0.18591 0.03232 0.0
O228 O 0.49391 0.14671 0.93199 0.0
O229 O 0.48471 0.17017 0.91814 0.0
O230 O 0.29913 0.13236 0.98296 0.0
O231 O 0.30439 0.15557 0.03053 0.0
H232 H 0.50403 0.08247 0.08916 0.0
H233 H 0.50408 0.05487 0.09928 0.0
H234 H 0.56965 0.05084 0.90526 0.0
H235 H 0.56567 0.07817 0.89536 0.0
H236 H 0.50436 0.20796 0.95811 0.0
H237 H 0.43902 0.23394 0.94057 0.0
H238 H 0.28633 0.23358 0.11736 0.0
H239 H 0.35472 0.2078 0.13538 0.0
Pr240 Pr 0.59457 0.12803 0.51857 0.0
Pr241 Pr 0.59439 0.16223 0.50362 0.0
C242 C 0.54928 0.0988 0.54123 0.0
C243 C 0.55903 0.08234 0.53325 0.0
C244 C 0.57151 0.07559 0.47519 0.0
C245 C 0.57032 0.0598 0.46938 0.0
C246 C 0.55604 0.05054 0.52146 0.0
C247 C 0.54357 0.05748 0.57921 0.0
C248 C 0.54541 0.07315 0.58496 0.0
C249 C 0.60662 0.13787 0.39504 0.0
C250 C 0.34647 0.14602 0.51603 0.0
C251 C 0.6071 0.19071 0.46057 0.0
C252 C 0.65639 0.20584 0.47616 0.0
C253 C 0.63369 0.21346 0.53118 0.0
C254 C 0.67171 0.22836 0.54138 0.0
C255 C 0.73317 0.23597 0.49681 0.0
C256 C 0.7598 0.22804 0.44316 0.0
C257 C 0.7217 0.2132 0.43299 0.0
C258 C 0.60005 0.15713 0.6326 0.0
C259 C 0.84607 0.14397 0.51856 0.0
O260 O 0.63185 0.10627 0.57279 0.0
O261 O 0.49341 0.10665 0.49733 0.0
O262 O 0.54181 0.14342 0.43374 0.0
O263 O 0.66756 0.1269 0.42025 0.0
O264 O 0.3965 0.15704 0.48695 0.0
O265 O 0.40856 0.13509 0.54287 0.0
O266 O 0.67923 0.18006 0.44659 0.0
O267 O 0.52188 0.18582 0.49196 0.0
O268 O 0.5979 0.14668 0.59253 0.0
O269 O 0.60743 0.17014 0.60632 0.0
O270 O 0.79262 0.13234 0.54169 0.0
O271 O 0.78759 0.15547 0.49352 0.0
H272 H 0.58099 0.08248 0.43442 0.0
H273 H 0.58098 0.05487 0.42423 0.0
H274 H 0.52962 0.0508 0.62001 0.0
H275 H 0.53338 0.07814 0.62989 0.0
H276 H 0.58416 0.20807 0.56565 0.0
H277 H 0.64927 0.23407 0.5832 0.0
H278 H 0.8093 0.23336 0.40851 0.0
H279 H 0.74113 0.20756 0.39043 0.0
Pr280 Pr 0.49807 0.87334 0.52094 0.0
Pr281 Pr 0.4976 0.90748 0.50616 0.0
C282 C 0.48543 0.84485 0.56401 0.0
C283 C 0.43601 0.82973 0.54844 0.0
C284 C 0.4587 0.8221 0.49345 0.0
C285 C 0.42056 0.80721 0.48328 0.0
C286 C 0.359 0.79961 0.52785 0.0
C287 C 0.33239 0.80755 0.58147 0.0
C288 C 0.37061 0.82239 0.59162 0.0
C289 C 0.49235 0.8784 0.39198 0.0
C290 C 0.24619 0.89153 0.50584 0.0
C291 C 0.54253 0.93674 0.48384 0.0
C292 C 0.53276 0.9532 0.49166 0.0
C293 C 0.52048 0.95999 0.54968 0.0
C294 C 0.52179 0.97577 0.55535 0.0
C295 C 0.53602 0.98501 0.50319 0.0
C296 C 0.54823 0.97804 0.44546 0.0
C297 C 0.54625 0.96236 0.43985 0.0
C298 C 0.48541 0.89754 0.62964 0.0
C299 C 0.74587 0.88954 0.50856 0.0
O300 O 0.41343 0.85551 0.5781 0.0
O301 O 0.57052 0.84974 0.53252 0.0
O302 O 0.49446 0.88888 0.43196 0.0
O303 O 0.48534 0.8654 0.41832 0.0
O304 O 0.29963 0.90319 0.48299 0.0
O305 O 0.30471 0.88002 0.53073 0.0
O306 O 0.46043 0.92925 0.45198 0.0
O307 O 0.598 0.9289 0.5279 0.0
O308 O 0.55079 0.89212 0.59096 0.0
O309 O 0.42386 0.90846 0.6044 0.0
O310 O 0.6959 0.87849 0.53747 0.0
O311 O 0.68376 0.9005 0.48194 0.0
H312 H 0.5083 0.82748 0.45898 0.0
H313 H 0.44298 0.80149 0.44148 0.0
H314 H 0.28283 0.80225 0.61612 0.0
H315 H 0.3512 0.82803 0.63417 0.0
H316 H 0.51108 0.95312 0.59052 0.0
H317 H 0.51129 0.98072 0.60047 0.0
H318 H 0.56212 0.98469 0.4046 0.0
H319 H 0.55812 0.95735 0.39494 0.0
C320 C 0.52764 0.38062 0.98114 0.0
C321 C 0.47404 0.3912 0.0183 0.0
H322 H 0.68632 0.37178 0.95117 0.0
C323 C 0.54413 0.40118 0.05509 0.0
H324 H 0.47636 0.37283 0.95173 0.0
C325 C 0.66519 0.40052 0.05485 0.0
C326 C 0.7185 0.3899 0.01767 0.0
H327 H 0.50566 0.40941 0.08444 0.0
H328 H 0.7169 0.40833 0.08393 0.0
C329 C 0.64829 0.37998 0.98082 0.0
C330 C 0.44319 0.65493 0.04634 0.0
C331 C 0.3727 0.64559 0.00697 0.0
H332 H 0.61546 0.66157 0.0775 0.0
C333 C 0.42575 0.63548 0.96746 0.0
H334 H 0.4053 0.66269 0.07788 0.0
C335 C 0.54684 0.63477 0.96733 0.0
C336 C 0.6172 0.64419 0.00658 0.0
H337 H 0.37377 0.62814 0.93638 0.0
H338 H 0.58515 0.62699 0.93606 0.0
C339 C 0.56387 0.65425 0.04614 0.0
C340 C 0.65224 0.65707 0.49134 0.0
C341 C 0.72 0.64537 0.51854 0.0
H342 H 0.48257 0.66604 0.47088 0.0
C343 C 0.66465 0.63341 0.54741 0.0
H344 H 0.69192 0.66642 0.46852 0.0
C345 C 0.54382 0.63317 0.54878 0.0
C346 C 0.47619 0.6449 0.5214 0.0
H347 H 0.71448 0.6242 0.56884 0.0
H348 H 0.50359 0.6238 0.57114 0.0
C349 C 0.53189 0.65685 0.49277 0.0
C350 C 0.56121 0.38016 0.54063 0.0
C351 C 0.61564 0.39079 0.50416 0.0
H352 H 0.40197 0.3716 0.5708 0.0
C353 C 0.54678 0.4012 0.46897 0.0
H354 H 0.61168 0.37208 0.56891 0.0
C355 C 0.42583 0.4009 0.47006 0.0
C356 C 0.3717 0.39021 0.50647 0.0
H357 H 0.58612 0.4095 0.44033 0.0
H358 H 0.37486 0.40901 0.44219 0.0
C359 C 0.44076 0.37987 0.54177 0.0
C360 C 1.04515 0.9002 0.05973 0.0
C361 C 0.97451 0.89136 0.01826 0.0
H362 H 0.21854 0.90634 0.09237 0.0
C363 C 1.02746 0.88187 0.97637 0.0
H364 H 1.00703 0.90752 0.09285 0.0
C365 C 0.14815 0.88117 0.97608 0.0
C366 C 0.21893 0.88993 0.0177 0.0
H367 H 0.97554 0.87503 0.94325 0.0
H368 H 0.18585 0.87388 0.9427 0.0
C369 C 0.16624 0.89947 0.05951 0.0
C370 C 0.06394 0.1551 0.0423 0.0
C371 C 0.11759 0.14436 0.00587 0.0
H372 H 0.90524 0.16405 0.07176 0.0
C373 C 0.04758 0.13421 0.96989 0.0
H374 H 0.11514 0.16302 0.07107 0.0
C375 C 0.92655 0.13486 0.97021 0.0
C376 C 0.87319 0.14563 0.00667 0.0
H377 H 0.08609 0.12586 0.94114 0.0
H378 H 0.87489 0.12691 0.94178 0.0
C379 C 0.94332 0.15572 0.04271 0.0
C380 C 0.14835 0.15509 0.4789 0.0
C381 C 0.21868 0.14558 0.51756 0.0
H382 H 0.97624 0.16188 0.44843 0.0
C383 C 0.16552 0.13535 0.55652 0.0
H384 H 0.18634 0.16295 0.44781 0.0
C385 C 1.04446 0.13467 0.55679 0.0
C386 C 0.97426 0.14425 0.51825 0.0
H387 H 0.21739 0.12788 0.58704 0.0
H388 H 1.00605 0.12678 0.5876 0.0
C389 C 1.02769 0.15443 0.47925 0.0
C390 C 0.92702 0.90064 0.46998 0.0
C391 C 0.87362 0.88997 0.50692 0.0
H392 H 0.08662 0.90954 0.44047 0.0
C393 C 0.94368 0.87998 0.54342 0.0
H394 H 0.8754 0.9085 0.44118 0.0
C395 C 0.0643 0.8806 0.54297 0.0
C396 C 0.118 0.89123 0.50604 0.0
H397 H 0.90554 0.87174 0.57286 0.0
H398 H 0.11548 0.87276 0.5721 0.0
C399 C 0.04805 0.90128 0.46962 0.0
C400 C 0.99234 0.52455 0.95932 0.0
C401 C 1.03984 0.53371 0.0082 0.0
H402 H 0.95911 0.50217 0.92517 0.0
C403 C 0.09324 0.52667 0.06128 0.0
H404 H 0.94884 0.52953 0.91809 0.0
C405 C 0.09934 0.51093 0.06524 0.0
C406 C 0.05189 0.50177 0.01635 0.0
H407 H 0.13257 0.53331 0.09939 0.0
H408 H 0.14284 0.50595 0.10646 0.0
C409 C 0.99845 0.50881 0.96328 0.0
C410 C 0.09567 0.51044 0.46311 0.0
C411 C 0.04696 0.50182 0.50919 0.0
H412 H 0.13523 0.53249 0.43039 0.0
C413 C 0.99785 0.50931 0.55836 0.0
H414 H 0.13564 0.50503 0.42512 0.0
C415 C 0.99748 0.52505 0.56138 0.0
C416 C 0.04611 0.53368 0.51527 0.0
H417 H 0.95786 0.50301 0.59407 0.0
H418 H 0.95751 0.53048 0.59937 0.0
C419 C 0.09528 0.52619 0.46612 0.0
C420 C 0.59851 1.01094 0.06523 0.0
C421 C 0.55141 1.00179 0.0162 0.0
H422 H 0.63152 0.03331 0.09957 0.0
C423 C 0.49842 1.00886 0.96307 0.0
H424 H 0.6417 1.00595 0.10651 0.0
C425 C 0.4924 0.0246 0.95918 0.0
C426 C 0.5395 0.03375 0.00821 0.0
H427 H 0.45937 1.00223 0.92484 0.0
H428 H 0.44924 0.0296 0.91789 0.0
C429 C 0.59247 0.02668 0.06135 0.0
C430 C 0.49541 0.02667 0.46409 0.0
C431 C 0.55241 0.03375 0.51615 0.0
H432 H 0.4428 1.00592 0.41993 0.0
C433 C 0.60329 0.02462 0.56419 0.0
H434 H 0.45345 0.03329 0.42668 0.0
C435 C 0.59697 1.00888 0.56043 0.0
C436 C 0.53989 1.0018 0.50839 0.0
H437 H 0.64956 0.02963 0.60459 0.0
H438 H 0.63892 1.00226 0.59784 0.0
C439 C 0.48909 1.01093 0.46033 0.0
C440 C 0.2563 0.27324 0.95365 0.0
C441 C 0.26573 0.28326 0.00449 0.0
H442 H 0.27589 0.25062 0.92104 0.0
C443 C 0.30544 0.27755 0.0631 0.0
H444 H 0.22395 0.27711 0.908 0.0
C445 C 0.33509 0.2623 0.07058 0.0
C446 C 0.3257 0.25227 0.01973 0.0
H447 H 0.31548 0.28491 0.10319 0.0
H448 H 0.36742 0.25842 0.11623 0.0
C449 C 0.28594 0.25799 0.96113 0.0
C450 C 0.80373 0.77748 0.06364 0.0
C451 C 0.76643 0.7833 0.00484 0.0
H452 H 0.86357 0.75826 0.11684 0.0
C453 C 0.75925 0.77337 0.95368 0.0
H454 H 0.81205 0.78477 0.10401 0.0
C455 C 0.78865 0.7581 0.96104 0.0
C456 C 0.82591 0.75229 0.01985 0.0
H457 H 0.72881 0.77732 0.90784 0.0
H458 H 0.78033 0.75081 0.92068 0.0
C459 C 0.83313 0.76222 0.07101 0.0
C460 C 0.25871 0.76222 0.45405 0.0
C461 C 0.26601 0.75235 0.50537 0.0
H462 H 0.28004 0.78474 0.42073 0.0
C463 C 0.30403 0.7582 0.56401 0.0
H464 H 0.2278 0.75823 0.40833 0.0
C465 C 0.33377 0.77346 0.57112 0.0
C466 C 0.32623 0.78334 0.51986 0.0
H467 H 0.31255 0.75095 0.60446 0.0
H468 H 0.36464 0.77745 0.61686 0.0
C469 C 0.2885 0.77748 0.46116 0.0
C470 C 0.83312 0.27336 0.5707 0.0
C471 C 0.82578 0.28324 0.51941 0.0
H472 H 0.81196 0.25084 0.60397 0.0
C473 C 0.78787 0.27739 0.46074 0.0
H474 H 0.86395 0.27735 0.61644 0.0
C475 C 0.75826 0.26213 0.45359 0.0
C476 C 0.76582 0.25224 0.50484 0.0
H477 H 0.77933 0.28465 0.42031 0.0
H478 H 0.72745 0.25815 0.40784 0.0
C479 C 0.80347 0.2581 0.56355 0.0
C480 C 0.0605 0.36616 0.23106 0.0
C481 C 0.07571 0.37964 0.19869 0.0
H482 H 1.0194 0.35541 0.31428 0.0
C483 C 0.06041 0.39341 0.22989 0.0
H484 H 0.07064 0.35532 0.20901 0.0
C485 C 1.03155 0.39347 0.29265 0.0
C486 C 1.01566 0.37975 0.32416 0.0
H487 H 0.07067 0.40402 0.20603 0.0
H488 H 1.02186 0.40411 0.3163 0.0
C489 C 1.03008 0.36621 0.29203 0.0
C490 C 1.03285 0.65261 0.22762 0.0
C491 C 1.0147 0.63871 0.19699 0.0
H492 H 0.07493 0.66385 0.31516 0.0
C493 C 1.02904 0.62533 0.23145 0.0
H494 H 1.02247 0.66308 0.20192 0.0
C495 C 0.06295 0.62577 0.29493 0.0
C496 C 0.07985 0.6396 0.32591 0.0
H497 H 1.01658 0.61447 0.20896 0.0
H498 H 0.07422 0.61524 0.3201 0.0
C499 C 0.06296 0.65306 0.29205 0.0
C500 C 1.03309 0.66927 0.79381 0.0
C501 C 1.01604 0.65579 0.8259 0.0
H502 H 0.0757 0.68001 0.71087 0.0
C503 C 1.02996 0.64202 0.79449 0.0
H504 H 1.02419 0.68012 0.81604 0.0
C505 C 0.05896 0.64196 0.73174 0.0
C506 C 0.0764 0.65566 0.70048 0.0
H507 H 1.0183 0.63142 0.81814 0.0
H508 H 0.0674 0.63131 0.7079 0.0
C509 C 0.06366 0.6692 0.73288 0.0
C510 C 1.0273 0.40976 0.72984 0.0
C511 C 1.01171 0.39596 0.6985 0.0
H512 H 0.07267 0.42098 0.81612 0.0
C513 C 1.02965 0.38247 0.73203 0.0
H514 H 1.01521 0.42032 0.70494 0.0
C515 C 0.05965 0.38285 0.79648 0.0
C516 C 0.07665 0.39672 0.82745 0.0
H517 H 1.01869 0.3717 0.70864 0.0
H518 H 0.07094 0.37236 0.82191 0.0
C519 C 0.0611 0.41014 0.79335 0.0
C520 C 0.56107 0.89339 0.23095 0.0
C521 C 0.57551 0.87965 0.19938 0.0
H522 H 0.52358 0.90403 0.31771 0.0
C523 C 0.55959 0.86615 0.23153 0.0
H524 H 0.57188 0.90402 0.20732 0.0
C525 C 0.5295 0.86616 0.29261 0.0
C526 C 0.51606 0.87967 0.32512 0.0
H527 H 0.569 0.85532 0.20924 0.0
H528 H 0.51829 0.85534 0.31465 0.0
C529 C 0.53252 0.89341 0.29382 0.0
C530 C 0.53032 0.12483 0.23025 0.0
C531 C 0.51514 0.13843 0.19745 0.0
H532 H 0.5742 0.11409 0.31766 0.0
C533 C 0.53153 0.15211 0.22999 0.0
H534 H 0.51924 0.11412 0.20634 0.0
C535 C 0.56005 0.1521 0.29469 0.0
C536 C 0.57705 0.1384 0.327 0.0
H537 H 0.52056 0.16276 0.20564 0.0
H538 H 0.57046 0.16272 0.31925 0.0
C539 C 0.56263 0.12481 0.29394 0.0
C540 C 0.53183 0.14211 0.79371 0.0
C541 C 0.51597 0.15586 0.82508 0.0
H542 H 0.57071 0.13149 0.70715 0.0
C543 C 0.5302 0.16936 0.79266 0.0
H544 H 0.52226 0.13149 0.81753 0.0
C545 C 0.56037 0.16936 0.73161 0.0
C546 C 0.57556 0.15585 0.69936 0.0
H547 H 0.51951 0.18019 0.81475 0.0
H548 H 0.57036 0.18018 0.7094 0.0
C549 C 0.56044 0.14211 0.73085 0.0
C550 C 0.52824 0.91064 0.73077 0.0
C551 C 0.51501 0.89705 0.69768 0.0
H552 H 0.57079 0.92136 0.81841 0.0
C553 C 0.53329 0.88336 0.72994 0.0
H554 H 0.51568 0.92135 0.70709 0.0
C555 C 0.5619 0.88336 0.79462 0.0
C556 C 0.57708 0.89706 0.8272 0.0
H557 H 0.52383 0.87273 0.70536 0.0
H558 H 0.57386 0.87273 0.81895 0.0
C559 C 0.56063 0.91065 0.79446 0.0
loop_
_geom_bond_atom_site_label_1
_geom_bond_atom_site_label_2
_geom_bond_distance
_geom_bond_site_symmetry_2
_ccdc_geom_bond_type
Pr0 C2 2.880 . S
Pr0 O20 2.562 1_554 S
Pr0 O21 2.490 . S
Pr0 O22 2.695 . S
Pr0 O23 2.512 . S
Pr0 O25 2.437 . S
Pr0 O28 2.436 1_554 S
Pr0 O30 2.438 1_455 S
Pr1 C11 2.880 1_455 S
Pr1 O22 2.436 . S
Pr1 O24 2.438 . S
Pr1 O26 2.562 1_455 S
Pr1 O27 2.490 1_554 S
Pr1 O28 2.695 1_554 S
Pr1 O29 2.512 1_554 S
Pr1 O31 2.437 1_454 S
C2 Pr0 2.880 . S
C2 C3 1.491 . S
C2 O20 1.254 1_554 S
C2 O21 1.225 . S
C3 C2 1.491 . S
C3 C4 1.392 . S
C3 C8 1.356 1_554 S
C4 C3 1.392 . S
C4 C5 1.368 . S
C4 H32 0.929 . S
C5 C4 1.368 . S
C5 C6 1.386 . S
C5 H33 0.929 . S
C6 C5 1.386 . S
C6 C7 1.373 1_554 S
C7 C6 1.373 1_556 S
C7 C8 1.409 . S
C7 H34 0.931 . S
C8 C3 1.356 1_556 S
C8 C7 1.409 . S
C8 H35 0.930 . S
C9 O22 1.270 . S
C9 O23 1.248 . S
C10 O24 1.267 . S
C10 O25 1.278 . S
C11 Pr1 2.880 1_655 S
C11 C12 1.491 . S
C11 O26 1.254 . S
C11 O27 1.225 1_654 S
C12 C11 1.491 . S
C12 C13 1.392 1_554 S
C12 C17 1.356 . S
C13 C12 1.392 1_556 S
C13 C14 1.368 . S
C13 H36 0.929 . S
C14 C13 1.368 . S
C14 C15 1.386 1_556 S
C14 H37 0.929 . S
C15 C14 1.386 1_554 S
C15 C16 1.373 . S
C16 C15 1.373 . S
C16 C17 1.409 . S
C16 H38 0.931 . S
C17 C12 1.356 . S
C17 C16 1.409 . S
C17 H39 0.930 . S
C18 O28 1.270 . S
C18 O29 1.248 . S
C19 O30 1.267 . S
C19 O31 1.278 1_554 S
O20 Pr0 2.562 1_556 S
O20 C2 1.254 1_556 S
O21 Pr0 2.490 . S
O21 C2 1.225 . S
O22 Pr0 2.695 . S
O22 Pr1 2.436 . S
O22 C9 1.270 . S
O23 Pr0 2.512 . S
O23 C9 1.248 . S
O24 Pr1 2.438 . S
O24 C10 1.267 . S
O25 Pr0 2.437 . S
O25 C10 1.278 . S
O26 Pr1 2.562 1_655 S
O26 C11 1.254 . S
O27 Pr1 2.490 1_556 S
O27 C11 1.225 1_456 S
O28 Pr0 2.436 1_556 S
O28 Pr1 2.695 1_556 S
O28 C18 1.270 . S
O29 Pr1 2.512 1_556 S
O29 C18 1.248 . S
O30 Pr0 2.438 1_655 S
O30 C19 1.267 . S
O31 Pr1 2.437 1_656 S
O31 C19 1.278 1_556 S
H32 C4 0.929 . S
H33 C5 0.929 . S
H34 C7 0.931 . S
H35 C8 0.930 . S
H36 C13 0.929 . S
H37 C14 0.929 . S
H38 C16 0.931 . S
H39 C17 0.930 . S
Pr40 C42 2.880 1_655 S
Pr40 O60 2.562 1_654 S
Pr40 O61 2.490 . S
Pr40 O62 2.695 . S
Pr40 O63 2.512 . S
Pr40 O65 2.437 1_655 S
Pr40 O68 2.436 1_554 S
Pr40 O70 2.438 . S
Pr41 C51 2.880 . S
Pr41 O62 2.436 . S
Pr41 O64 2.438 1_655 S
Pr41 O66 2.562 . S
Pr41 O67 2.490 1_554 S
Pr41 O68 2.695 1_554 S
Pr41 O69 2.512 1_554 S
Pr41 O71 2.437 1_554 S
C42 Pr40 2.880 1_455 S
C42 C43 1.491 . S
C42 O60 1.254 1_554 S
C42 O61 1.225 1_455 S
C43 C42 1.491 . S
C43 C44 1.392 . S
C43 C48 1.356 1_554 S
C44 C43 1.392 . S
C44 C45 1.368 . S
C44 H72 0.929 . S
C45 C44 1.368 . S
C45 C46 1.385 . S
C45 H73 0.929 . S
C46 C45 1.385 . S
C46 C47 1.374 1_554 S
C47 C46 1.374 1_556 S
C47 C48 1.409 . S
C47 H74 0.931 . S
C48 C43 1.356 1_556 S
C48 C47 1.409 . S
C48 H75 0.930 . S
C49 O62 1.270 . S
C49 O63 1.248 . S
C50 O64 1.267 . S
C50 O65 1.278 . S
C51 Pr41 2.880 . S
C51 C52 1.491 . S
C51 O66 1.254 . S
C51 O67 1.225 1_554 S
C52 C51 1.491 . S
C52 C53 1.392 1_554 S
C52 C57 1.356 . S
C53 C52 1.392 1_556 S
C53 C54 1.368 . S
C53 H76 0.929 . S
C54 C53 1.368 . S
C54 C55 1.386 1_556 S
C54 H77 0.929 . S
C55 C54 1.386 1_554 S
C55 C56 1.373 . S
C56 C55 1.373 . S
C56 C57 1.409 . S
C56 H78 0.931 . S
C57 C52 1.356 . S
C57 C56 1.409 . S
C57 H79 0.930 . S
C58 O68 1.270 . S
C58 O69 1.248 . S
C59 O70 1.267 . S
C59 O71 1.278 1_554 S
O60 Pr40 2.562 1_456 S
O60 C42 1.254 1_556 S
O61 Pr40 2.490 . S
O61 C42 1.225 1_655 S
O62 Pr40 2.695 . S
O62 Pr41 2.436 . S
O62 C49 1.270 . S
O63 Pr40 2.512 . S
O63 C49 1.248 . S
O64 Pr41 2.438 1_455 S
O64 C50 1.267 . S
O65 Pr40 2.437 1_455 S
O65 C50 1.278 . S
O66 Pr41 2.562 . S
O66 C51 1.254 . S
O67 Pr41 2.490 1_556 S
O67 C51 1.225 1_556 S
O68 Pr40 2.436 1_556 S
O68 Pr41 2.695 1_556 S
O68 C58 1.270 . S
O69 Pr41 2.512 1_556 S
O69 C58 1.248 . S
O70 Pr40 2.438 . S
O70 C59 1.267 . S
O71 Pr41 2.437 1_556 S
O71 C59 1.278 1_556 S
H72 C44 0.929 . S
H73 C45 0.929 . S
H74 C47 0.931 . S
H75 C48 0.930 . S
H76 C53 0.929 . S
H77 C54 0.929 . S
H78 C56 0.931 . S
H79 C57 0.930 . S
Pr80 C82 2.880 1_455 S
Pr80 O100 2.562 1_455 S
Pr80 O101 2.490 . S
Pr80 O102 2.695 . S
Pr80 O103 2.512 . S
Pr80 O105 2.437 1_455 S
Pr80 O108 2.436 . S
Pr80 O110 2.438 . S
Pr81 C91 2.880 . S
Pr81 O102 2.436 . S
Pr81 O104 2.438 1_455 S
Pr81 O106 2.562 . S
Pr81 O107 2.490 . S
Pr81 O108 2.695 . S
Pr81 O109 2.512 . S
Pr81 O111 2.437 . S
C82 Pr80 2.880 1_655 S
C82 C83 1.491 . S
C82 O100 1.254 . S
C82 O101 1.225 1_655 S
C83 C82 1.491 . S
C83 C84 1.392 . S
C83 C88 1.356 . S
C84 C83 1.392 . S
C84 C85 1.368 . S
C84 H112 0.929 . S
C85 C84 1.368 . S
C85 C86 1.386 . S
C85 H113 0.929 . S
C86 C85 1.386 . S
C86 C87 1.373 . S
C87 C86 1.373 . S
C87 C88 1.409 . S
C87 H114 0.931 . S
C88 C83 1.356 . S
C88 C87 1.409 . S
C88 H115 0.930 . S
C89 O102 1.270 . S
C89 O103 1.248 . S
C90 O104 1.267 . S
C90 O105 1.278 . S
C91 Pr81 2.880 . S
C91 C92 1.491 . S
C91 O106 1.254 . S
C91 O107 1.225 . S
C92 C91 1.491 . S
C92 C93 1.392 . S
C92 C97 1.356 . S
C93 C92 1.392 . S
C93 C94 1.368 . S
C93 H116 0.929 . S
C94 C93 1.368 . S
C94 C95 1.386 . S
C94 H117 0.929 . S
C95 C94 1.386 . S
C95 C96 1.373 . S
C96 C95 1.373 . S
C96 C97 1.409 . S
C96 H118 0.931 . S
C97 C92 1.356 . S
C97 C96 1.409 . S
C97 H119 0.930 . S
C98 O108 1.270 . S
C98 O109 1.248 . S
C99 O110 1.267 . S
C99 O111 1.278 . S
O100 Pr80 2.562 1_655 S
O100 C82 1.254 . S
O101 Pr80 2.490 . S
O101 C82 1.225 1_455 S
O102 Pr80 2.695 . S
O102 Pr81 2.436 . S
O102 C89 1.270 . S
O103 Pr80 2.512 . S
O103 C89 1.248 . S
O104 Pr81 2.438 1_655 S
O104 C90 1.267 . S
O105 Pr80 2.437 1_655 S
O105 C90 1.278 . S
O106 Pr81 2.562 . S
O106 C91 1.254 . S
O107 Pr81 2.490 . S
O107 C91 1.225 . S
O108 Pr80 2.436 . S
O108 Pr81 2.695 . S
O108 C98 1.270 . S
O109 Pr81 2.512 . S
O109 C98 1.248 . S
O110 Pr80 2.438 . S
O110 C99 1.267 . S
O111 Pr81 2.437 . S
O111 C99 1.278 . S
H112 C84 0.929 . S
H113 C85 0.929 . S
H114 C87 0.931 . S
H115 C88 0.930 . S
H116 C93 0.929 . S
H117 C94 0.929 . S
H118 C96 0.931 . S
H119 C97 0.930 . S
Pr120 C122 2.880 . S
Pr120 O140 2.562 . S
Pr120 O141 2.490 . S
Pr120 O142 2.695 . S
Pr120 O143 2.512 . S
Pr120 O145 2.437 . S
Pr120 O148 2.436 . S
Pr120 O150 2.438 1_655 S
Pr121 C131 2.880 1_655 S
Pr121 O142 2.436 . S
Pr121 O144 2.438 . S
Pr121 O146 2.562 1_655 S
Pr121 O147 2.490 . S
Pr121 O148 2.695 . S
Pr121 O149 2.512 . S
Pr121 O151 2.437 1_655 S
C122 Pr120 2.880 . S
C122 C123 1.491 . S
C122 O140 1.254 . S
C122 O141 1.225 . S
C123 C122 1.491 . S
C123 C124 1.392 . S
C123 C128 1.356 . S
C124 C123 1.392 . S
C124 C125 1.368 . S
C124 H152 0.929 . S
C125 C124 1.368 . S
C125 C126 1.386 . S
C125 H153 0.929 . S
C126 C125 1.386 . S
C126 C127 1.373 . S
C127 C126 1.373 . S
C127 C128 1.409 . S
C127 H154 0.931 . S
C128 C123 1.356 . S
C128 C127 1.409 . S
C128 H155 0.930 . S
C129 O142 1.270 . S
C129 O143 1.248 . S
C130 O144 1.267 . S
C130 O145 1.278 . S
C131 Pr121 2.880 1_455 S
C131 C132 1.491 . S
C131 O146 1.254 . S
C131 O147 1.225 1_455 S
C132 C131 1.491 . S
C132 C133 1.392 . S
C132 C137 1.356 . S
C133 C132 1.392 . S
C133 C134 1.368 . S
C133 H156 0.929 . S
C134 C133 1.368 . S
C134 C135 1.386 . S
C134 H157 0.929 . S
C135 C134 1.386 . S
C135 C136 1.373 . S
C136 C135 1.373 . S
C136 C137 1.409 . S
C136 H158 0.931 . S
C137 C132 1.356 . S
C137 C136 1.409 . S
C137 H159 0.930 . S
C138 O148 1.270 . S
C138 O149 1.248 . S
C139 O150 1.267 . S
C139 O151 1.278 . S
O140 Pr120 2.562 . S
O140 C122 1.254 . S
O141 Pr120 2.490 . S
O141 C122 1.225 . S
O142 Pr120 2.695 . S
O142 Pr121 2.436 . S
O142 C129 1.270 . S
O143 Pr120 2.512 . S
O143 C129 1.248 . S
O144 Pr121 2.438 . S
O144 C130 1.267 . S
O145 Pr120 2.437 . S
O145 C130 1.278 . S
O146 Pr121 2.562 1_455 S
O146 C131 1.254 . S
O147 Pr121 2.490 . S
O147 C131 1.225 1_655 S
O148 Pr120 2.436 . S
O148 Pr121 2.695 . S
O148 C138 1.270 . S
O149 Pr121 2.512 . S
O149 C138 1.248 . S
O150 Pr120 2.438 1_455 S
O150 C139 1.267 . S
O151 Pr121 2.437 1_455 S
O151 C139 1.278 . S
H152 C124 0.929 . S
H153 C125 0.929 . S
H154 C127 0.931 . S
H155 C128 0.930 . S
H156 C133 0.929 . S
H157 C134 0.929 . S
H158 C136 0.931 . S
H159 C137 0.930 . S
Pr160 C162 2.880 . S
Pr160 O180 2.562 1_554 S
Pr160 O181 2.490 . S
Pr160 O182 2.695 . S
Pr160 O183 2.512 . S
Pr160 O185 2.437 . S
Pr160 O188 2.436 1_554 S
Pr160 O190 2.438 . S
Pr161 C171 2.880 . S
Pr161 O182 2.436 . S
Pr161 O184 2.438 . S
Pr161 O186 2.562 . S
Pr161 O187 2.490 1_554 S
Pr161 O188 2.695 1_554 S
Pr161 O189 2.512 1_554 S
Pr161 O191 2.437 1_554 S
C162 Pr160 2.880 . S
C162 C163 1.491 . S
C162 O180 1.254 1_554 S
C162 O181 1.225 . S
C163 C162 1.491 . S
C163 C164 1.392 . S
C163 C168 1.356 1_554 S
C164 C163 1.392 . S
C164 C165 1.368 . S
C164 H192 0.929 . S
C165 C164 1.368 . S
C165 C166 1.386 . S
C165 H193 0.929 . S
C166 C165 1.386 . S
C166 C167 1.373 1_554 S
C167 C166 1.373 1_556 S
C167 C168 1.409 . S
C167 H194 0.931 . S
C168 C163 1.356 1_556 S
C168 C167 1.409 . S
C168 H195 0.930 . S
C169 O182 1.270 . S
C169 O183 1.248 . S
C170 O184 1.267 . S
C170 O185 1.278 . S
C171 Pr161 2.880 . S
C171 C172 1.491 . S
C171 O186 1.254 . S
C171 O187 1.225 1_554 S
C172 C171 1.491 . S
C172 C173 1.392 1_554 S
C172 C177 1.356 . S
C173 C172 1.392 1_556 S
C173 C174 1.368 . S
C173 H196 0.929 . S
C174 C173 1.368 . S
C174 C175 1.386 1_556 S
C174 H197 0.929 . S
C175 C174 1.386 1_554 S
C175 C176 1.373 . S
C176 C175 1.373 . S
C176 C177 1.409 . S
C176 H198 0.931 . S
C177 C172 1.356 . S
C177 C176 1.409 . S
C177 H199 0.930 . S
C178 O188 1.270 . S
C178 O189 1.248 . S
C179 O190 1.267 . S
C179 O191 1.278 1_554 S
O180 Pr160 2.562 1_556 S
O180 C162 1.254 1_556 S
O181 Pr160 2.490 . S
O181 C162 1.225 . S
O182 Pr160 2.695 . S
O182 Pr161 2.436 . S
O182 C169 1.270 . S
O183 Pr160 2.512 . S
O183 C169 1.248 . S
O184 Pr161 2.438 . S
O184 C170 1.267 . S
O185 Pr160 2.437 . S
O185 C170 1.278 . S
O186 Pr161 2.562 . S
O186 C171 1.254 . S
O187 Pr161 2.490 1_556 S
O187 C171 1.225 1_556 S
O188 Pr160 2.436 1_556 S
O188 Pr161 2.695 1_556 S
O188 C178 1.270 . S
O189 Pr161 2.512 1_556 S
O189 C178 1.248 . S
O190 Pr160 2.438 . S
O190 C179 1.267 . S
O191 Pr161 2.437 1_556 S
O191 C179 1.278 1_556 S
H192 C164 0.929 . S
H193 C165 0.929 . S
H194 C167 0.931 . S
H195 C168 0.930 . S
H196 C173 0.929 . S
H197 C174 0.929 . S
H198 C176 0.931 . S
H199 C177 0.930 . S
Pr200 C202 2.880 . S
Pr200 O220 2.562 1_554 S
Pr200 O221 2.490 . S
Pr200 O222 2.695 . S
Pr200 O223 2.512 . S
Pr200 O225 2.437 . S
Pr200 O228 2.436 1_554 S
Pr200 O230 2.438 . S
Pr201 C211 2.880 . S
Pr201 O222 2.436 . S
Pr201 O224 2.438 . S
Pr201 O226 2.562 . S
Pr201 O227 2.490 1_554 S
Pr201 O228 2.695 1_554 S
Pr201 O229 2.512 1_554 S
Pr201 O231 2.437 1_554 S
C202 Pr200 2.880 . S
C202 C203 1.491 . S
C202 O220 1.254 1_554 S
C202 O221 1.225 . S
C203 C202 1.491 . S
C203 C204 1.392 . S
C203 C208 1.356 1_554 S
C204 C203 1.392 . S
C204 C205 1.368 . S
C204 H232 0.929 . S
C205 C204 1.368 . S
C205 C206 1.385 . S
C205 H233 0.929 . S
C206 C205 1.385 . S
C206 C207 1.373 1_554 S
C207 C206 1.373 1_556 S
C207 C208 1.409 . S
C207 H234 0.931 . S
C208 C203 1.356 1_556 S
C208 C207 1.409 . S
C208 H235 0.930 . S
C209 O222 1.270 . S
C209 O223 1.248 . S
C210 O224 1.267 . S
C210 O225 1.278 . S
C211 Pr201 2.880 . S
C211 C212 1.491 . S
C211 O226 1.254 . S
C211 O227 1.225 1_554 S
C212 C211 1.491 . S
C212 C213 1.392 1_554 S
C212 C217 1.356 . S
C213 C212 1.392 1_556 S
C213 C214 1.368 . S
C213 H236 0.929 . S
C214 C213 1.368 . S
C214 C215 1.386 1_556 S
C214 H237 0.929 . S
C215 C214 1.386 1_554 S
C215 C216 1.373 . S
C216 C215 1.373 . S
C216 C217 1.409 . S
C216 H238 0.931 . S
C217 C212 1.356 . S
C217 C216 1.409 . S
C217 H239 0.930 . S
C218 O228 1.270 . S
C218 O229 1.248 . S
C219 O230 1.267 . S
C219 O231 1.278 1_554 S
O220 Pr200 2.562 1_556 S
O220 C202 1.254 1_556 S
O221 Pr200 2.490 . S
O221 C202 1.225 . S
O222 Pr200 2.695 . S
O222 Pr201 2.436 . S
O222 C209 1.270 . S
O223 Pr200 2.512 . S
O223 C209 1.248 . S
O224 Pr201 2.438 . S
O224 C210 1.267 . S
O225 Pr200 2.437 . S
O225 C210 1.278 . S
O226 Pr201 2.562 . S
O226 C211 1.254 . S
O227 Pr201 2.490 1_556 S
O227 C211 1.225 1_556 S
O228 Pr200 2.436 1_556 S
O228 Pr201 2.695 1_556 S
O228 C218 1.270 . S
O229 Pr201 2.512 1_556 S
O229 C218 1.248 . S
O230 Pr200 2.438 . S
O230 C219 1.267 . S
O231 Pr201 2.437 1_556 S
O231 C219 1.278 1_556 S
H232 C204 0.929 . S
H233 C205 0.929 . S
H234 C207 0.931 . S
H235 C208 0.930 . S
H236 C213 0.929 . S
H237 C214 0.929 . S
H238 C216 0.931 . S
H239 C217 0.930 . S
Pr240 C242 2.880 . S
Pr240 O260 2.562 . S
Pr240 O261 2.490 . S
Pr240 O262 2.695 . S
Pr240 O263 2.512 . S
Pr240 O265 2.437 . S
Pr240 O268 2.436 . S
Pr240 O270 2.438 . S
Pr241 C251 2.880 . S
Pr241 O262 2.436 . S
Pr241 O264 2.438 . S
Pr241 O266 2.562 . S
Pr241 O267 2.490 . S
Pr241 O268 2.695 . S
Pr241 O269 2.512 . S
Pr241 O271 2.437 . S
C242 Pr240 2.880 . S
C242 C243 1.491 . S
C242 O260 1.254 . S
C242 O261 1.225 . S
C243 C242 1.491 . S
C243 C244 1.392 . S
C243 C248 1.356 . S
C244 C243 1.392 . S
C244 C245 1.368 . S
C244 H272 0.929 . S
C245 C244 1.368 . S
C245 C246 1.386 . S
C245 H273 0.929 . S
C246 C245 1.386 . S
C246 C247 1.373 . S
C247 C246 1.373 . S
C247 C248 1.409 . S
C247 H274 0.931 . S
C248 C243 1.356 . S
C248 C247 1.409 . S
C248 H275 0.930 . S
C249 O262 1.270 . S
C249 O263 1.248 . S
C250 O264 1.267 . S
C250 O265 1.278 . S
C251 Pr241 2.880 . S
C251 C252 1.491 . S
C251 O266 1.254 . S
C251 O267 1.225 . S
C252 C251 1.491 . S
C252 C253 1.392 . S
C252 C257 1.356 . S
C253 C252 1.392 . S
C253 C254 1.368 . S
C253 H276 0.929 . S
C254 C253 1.368 . S
C254 C255 1.386 . S
C254 H277 0.929 . S
C255 C254 1.386 . S
C255 C256 1.373 . S
C256 C255 1.373 . S
C256 C257 1.409 . S
C256 H278 0.931 . S
C257 C252 1.356 . S
C257 C256 1.409 . S
C257 H279 0.930 . S
C258 O268 1.270 . S
C258 O269 1.248 . S
C259 O270 1.267 . S
C259 O271 1.278 . S
O260 Pr240 2.562 . S
O260 C242 1.254 . S
O261 Pr240 2.490 . S
O261 C242 1.225 . S
O262 Pr240 2.695 . S
O262 Pr241 2.436 . S
O262 C249 1.270 . S
O263 Pr240 2.512 . S
O263 C249 1.248 . S
O264 Pr241 2.438 . S
O264 C250 1.267 . S
O265 Pr240 2.437 . S
O265 C250 1.278 . S
O266 Pr241 2.562 . S
O266 C251 1.254 . S
O267 Pr241 2.490 . S
O267 C251 1.225 . S
O268 Pr240 2.436 . S
O268 Pr241 2.695 . S
O268 C258 1.270 . S
O269 Pr241 2.512 . S
O269 C258 1.248 . S
O270 Pr240 2.438 . S
O270 C259 1.267 . S
O271 Pr241 2.437 . S
O271 C259 1.278 . S
H272 C244 0.929 . S
H273 C245 0.929 . S
H274 C247 0.931 . S
H275 C248 0.930 . S
H276 C253 0.929 . S
H277 C254 0.929 . S
H278 C256 0.931 . S
H279 C257 0.930 . S
Pr280 C282 2.880 . S
Pr280 O300 2.562 . S
Pr280 O301 2.490 . S
Pr280 O302 2.695 . S
Pr280 O303 2.512 . S
Pr280 O305 2.437 . S
Pr280 O308 2.436 . S
Pr280 O310 2.438 . S
Pr281 C291 2.880 . S
Pr281 O302 2.436 . S
Pr281 O304 2.438 . S
Pr281 O306 2.562 . S
Pr281 O307 2.490 . S
Pr281 O308 2.695 . S
Pr281 O309 2.512 . S
Pr281 O311 2.437 . S
C282 Pr280 2.880 . S
C282 C283 1.491 . S
C282 O300 1.254 . S
C282 O301 1.225 . S
C283 C282 1.491 . S
C283 C284 1.392 . S
C283 C288 1.356 . S
C284 C283 1.392 . S
C284 C285 1.368 . S
C284 H312 0.929 . S
C285 C284 1.368 . S
C285 C286 1.386 . S
C285 H313 0.929 . S
C286 C285 1.386 . S
C286 C287 1.373 . S
C287 C286 1.373 . S
C287 C288 1.409 . S
C287 H314 0.931 . S
C288 C283 1.356 . S
C288 C287 1.409 . S
C288 H315 0.930 . S
C289 O302 1.270 . S
C289 O303 1.248 . S
C290 O304 1.267 . S
C290 O305 1.278 . S
C291 Pr281 2.880 . S
C291 C292 1.491 . S
C291 O306 1.254 . S
C291 O307 1.225 . S
C292 C291 1.491 . S
C292 C293 1.392 . S
C292 C297 1.356 . S
C293 C292 1.392 . S
C293 C294 1.368 . S
C293 H316 0.929 . S
C294 C293 1.368 . S
C294 C295 1.386 . S
C294 H317 0.929 . S
C295 C294 1.386 . S
C295 C296 1.373 . S
C296 C295 1.373 . S
C296 C297 1.409 . S
C296 H318 0.931 . S
C297 C292 1.356 . S
C297 C296 1.409 . S
C297 H319 0.930 . S
C298 O308 1.270 . S
C298 O309 1.248 . S
C299 O310 1.267 . S
C299 O311 1.278 . S
O300 Pr280 2.562 . S
O300 C282 1.254 . S
O301 Pr280 2.490 . S
O301 C282 1.225 . S
O302 Pr280 2.695 . S
O302 Pr281 2.436 . S
O302 C289 1.270 . S
O303 Pr280 2.512 . S
O303 C289 1.248 . S
O304 Pr281 2.438 . S
O304 C290 1.267 . S
O305 Pr280 2.437 . S
O305 C290 1.278 . S
O306 Pr281 2.562 . S
O306 C291 1.254 . S
O307 Pr281 2.490 . S
O307 C291 1.225 . S
O308 Pr280 2.436 . S
O308 Pr281 2.695 . S
O308 C298 1.270 . S
O309 Pr281 2.512 . S
O309 C298 1.248 . S
O310 Pr280 2.438 . S
O310 C299 1.267 . S
O311 Pr281 2.437 . S
O311 C299 1.278 . S
H312 C284 0.929 . S
H313 C285 0.929 . S
H314 C287 0.931 . S
H315 C288 0.930 . S
H316 C293 0.929 . S
H317 C294 0.929 . S
H318 C296 0.931 . S
H319 C297 0.930 . S
C320 C321 1.387 1_556 S
C320 H324 0.950 . S
C320 C329 1.390 . S
C321 C320 1.387 1_554 S
C321 C323 1.387 . S
H322 C329 0.950 . S
C323 C321 1.387 . S
C323 C325 1.390 . S
C323 H327 0.950 . S
H324 C320 0.950 . S
C325 C323 1.390 . S
C325 C326 1.387 . S
C325 H328 0.950 . S
C326 C325 1.387 . S
C326 C329 1.387 1_554 S
H327 C323 0.950 . S
H328 C325 0.950 . S
C329 C320 1.390 . S
C329 H322 0.950 . S
C329 C326 1.387 1_556 S
C330 C331 1.387 . S
C330 H334 0.950 . S
C330 C339 1.390 . S
C331 C330 1.387 . S
C331 C333 1.387 1_554 S
H332 C339 0.950 . S
C333 C331 1.387 1_556 S
C333 C335 1.390 . S
C333 H337 0.950 . S
H334 C330 0.950 . S
C335 C333 1.390 . S
C335 C336 1.387 1_556 S
C335 H338 0.950 . S
C336 C335 1.387 1_554 S
C336 C339 1.387 . S
H337 C333 0.950 . S
H338 C335 0.950 . S
C339 C330 1.390 . S
C339 H332 0.950 . S
C339 C336 1.387 . S
C340 C341 1.387 . S
C340 H344 0.950 . S
C340 C349 1.390 . S
C341 C340 1.387 . S
C341 C343 1.387 . S
H342 C349 0.950 . S
C343 C341 1.387 . S
C343 C345 1.390 . S
C343 H347 0.950 . S
H344 C340 0.950 . S
C345 C343 1.390 . S
C345 C346 1.387 . S
C345 H348 0.950 . S
C346 C345 1.387 . S
C346 C349 1.387 . S
H347 C343 0.950 . S
H348 C345 0.950 . S
C349 C340 1.390 . S
C349 H342 0.950 . S
C349 C346 1.387 . S
C350 C351 1.387 . S
C350 H354 0.950 . S
C350 C359 1.390 . S
C351 C350 1.387 . S
C351 C353 1.387 . S
H352 C359 0.950 . S
C353 C351 1.387 . S
C353 C355 1.390 . S
C353 H357 0.950 . S
H354 C350 0.950 . S
C355 C353 1.390 . S
C355 C356 1.387 . S
C355 H358 0.950 . S
C356 C355 1.387 . S
C356 C359 1.387 . S
H357 C353 0.950 . S
H358 C355 0.950 . S
C359 C350 1.390 . S
C359 H352 0.950 . S
C359 C356 1.387 . S
C360 C361 1.387 1_455 S
C360 H364 0.950 1_455 S
C360 C369 1.390 . S
C361 C360 1.387 1_655 S
C361 C363 1.387 1_554 S
H362 C369 0.950 . S
C363 C361 1.387 1_556 S
C363 C365 1.390 1_655 S
C363 H367 0.950 . S
H364 C360 0.950 1_655 S
C365 C363 1.390 1_455 S
C365 C366 1.387 1_556 S
C365 H368 0.950 . S
C366 C365 1.387 1_554 S
C366 C369 1.387 . S
H367 C363 0.950 . S
H368 C365 0.950 . S
C369 C360 1.390 . S
C369 H362 0.950 . S
C369 C366 1.387 . S
C370 C371 1.387 1_655 S
C370 H374 0.950 1_655 S
C370 C379 1.390 . S
C371 C370 1.387 1_455 S
C371 C373 1.387 1_454 S
H372 C379 0.950 . S
C373 C371 1.387 1_656 S
C373 C375 1.390 . S
C373 H377 0.950 1_655 S
H374 C370 0.950 1_455 S
C375 C373 1.390 . S
C375 C376 1.387 1_556 S
C375 H378 0.950 . S
C376 C375 1.387 1_554 S
C376 C379 1.387 . S
H377 C373 0.950 1_455 S
H378 C375 0.950 . S
C379 C370 1.390 . S
C379 H372 0.950 . S
C379 C376 1.387 . S
C380 C381 1.387 . S
C380 H384 0.950 . S
C380 C389 1.390 . S
C381 C380 1.387 . S
C381 C383 1.387 . S
H382 C389 0.950 1_655 S
C383 C381 1.387 . S
C383 C385 1.390 . S
C383 H387 0.950 . S
H384 C380 0.950 . S
C385 C383 1.390 . S
C385 C386 1.387 1_455 S
C385 H388 0.950 1_455 S
C386 C385 1.387 1_655 S
C386 C389 1.387 1_655 S
H387 C383 0.950 . S
H388 C385 0.950 1_655 S
C389 C380 1.390 . S
C389 H382 0.950 1_455 S
C389 C386 1.387 1_455 S
C390 C391 1.387 . S
C390 H394 0.950 . S
C390 C399 1.390 . S
C391 C390 1.387 . S
C391 C393 1.387 . S
H392 C399 0.950 1_455 S
C393 C391 1.387 . S
C393 C395 1.390 . S
C393 H397 0.950 . S
H394 C390 0.950 . S
C395 C393 1.390 . S
C395 C396 1.387 1_655 S
C395 H398 0.950 1_655 S
C396 C395 1.387 1_455 S
C396 C399 1.387 1_455 S
H397 C393 0.950 . S
H398 C395 0.950 1_455 S
C399 C390 1.390 . S
C399 H392 0.950 1_655 S
C399 C396 1.387 1_655 S
C400 C401 1.387 1_556 S
C400 H404 0.950 . S
C400 C409 1.390 1_455 S
C401 C400 1.387 1_554 S
C401 C403 1.387 . S
H402 C409 0.950 . S
C403 C401 1.387 . S
C403 C405 1.390 1_455 S
C403 H407 0.950 . S
H404 C400 0.950 . S
C405 C403 1.390 1_655 S
C405 C406 1.387 . S
C405 H408 0.950 . S
C406 C405 1.387 . S
C406 C409 1.387 1_554 S
H407 C403 0.950 . S
H408 C405 0.950 . S
C409 C400 1.390 1_655 S
C409 H402 0.950 . S
C409 C406 1.387 1_556 S
C410 C411 1.387 . S
C410 H414 0.950 . S
C410 C419 1.390 1_455 S
C411 C410 1.387 . S
C411 C413 1.387 . S
H412 C419 0.950 . S
C413 C411 1.387 . S
C413 C415 1.390 1_455 S
C413 H417 0.950 . S
H414 C410 0.950 . S
C415 C413 1.390 1_655 S
C415 C416 1.387 . S
C415 H418 0.950 . S
C416 C415 1.387 . S
C416 C419 1.387 . S
H417 C413 0.950 . S
H418 C415 0.950 . S
C419 C410 1.390 1_655 S
C419 H412 0.950 . S
C419 C416 1.387 . S
C420 C421 1.387 . S
C420 H424 0.950 . S
C420 C429 1.390 1_565 S
C421 C420 1.387 . S
C421 C423 1.387 1_554 S
H422 C429 0.950 . S
C423 C421 1.387 1_556 S
C423 C425 1.390 1_565 S
C423 H427 0.950 . S
H424 C420 0.950 . S
C425 C423 1.390 1_545 S
C425 C426 1.387 1_556 S
C425 H428 0.950 . S
C426 C425 1.387 1_554 S
C426 C429 1.387 . S
H427 C423 0.950 . S
H428 C425 0.950 . S
C429 C420 1.390 1_545 S
C429 H422 0.950 . S
C429 C426 1.387 . S
C430 C431 1.387 . S
C430 H434 0.950 . S
C430 C439 1.390 1_545 S
C431 C430 1.387 . S
C431 C433 1.387 . S
H432 C439 0.950 . S
C433 C431 1.387 . S
C433 C435 1.390 1_545 S
C433 H437 0.950 . S
H434 C430 0.950 . S
C435 C433 1.390 1_565 S
C435 C436 1.387 . S
C435 H438 0.950 . S
C436 C435 1.387 . S
C436 C439 1.387 . S
H437 C433 0.950 . S
H438 C435 0.950 . S
C439 C430 1.390 1_565 S
C439 H432 0.950 . S
C439 C436 1.387 . S
C440 C441 1.387 1_556 S
C440 H444 0.950 . S
C440 C449 1.390 . S
C441 C440 1.387 1_554 S
C441 C443 1.387 . S
H442 C449 0.950 . S
C443 C441 1.387 . S
C443 C445 1.390 . S
C443 H447 0.950 . S
H444 C440 0.950 . S
C445 C443 1.390 . S
C445 C446 1.387 . S
C445 H448 0.950 . S
C446 C445 1.387 . S
C446 C449 1.387 1_554 S
H447 C443 0.950 . S
H448 C445 0.950 . S
C449 C440 1.390 . S
C449 H442 0.950 . S
C449 C446 1.387 1_556 S
C450 C451 1.387 . S
C450 H454 0.950 . S
C450 C459 1.390 . S
C451 C450 1.387 . S
C451 C453 1.387 1_554 S
H452 C459 0.950 . S
C453 C451 1.387 1_556 S
C453 C455 1.390 . S
C453 H457 0.950 . S
H454 C450 0.950 . S
C455 C453 1.390 . S
C455 C456 1.387 1_556 S
C455 H458 0.950 . S
C456 C455 1.387 1_554 S
C456 C459 1.387 . S
H457 C453 0.950 . S
H458 C455 0.950 . S
C459 C450 1.390 . S
C459 H452 0.950 . S
C459 C456 1.387 . S
C460 C461 1.387 . S
C460 H464 0.950 . S
C460 C469 1.390 . S
C461 C460 1.387 . S
C461 C463 1.387 . S
H462 C469 0.950 . S
C463 C461 1.387 . S
C463 C465 1.390 . S
C463 H467 0.950 . S
H464 C460 0.950 . S
C465 C463 1.390 . S
C465 C466 1.387 . S
C465 H468 0.950 . S
C466 C465 1.387 . S
C466 C469 1.387 . S
H467 C463 0.950 . S
H468 C465 0.950 . S
C469 C460 1.390 . S
C469 H462 0.950 . S
C469 C466 1.387 . S
C470 C471 1.387 . S
C470 H474 0.950 . S
C470 C479 1.390 . S
C471 C470 1.387 . S
C471 C473 1.387 . S
H472 C479 0.950 . S
C473 C471 1.387 . S
C473 C475 1.390 . S
C473 H477 0.950 . S
H474 C470 0.950 . S
C475 C473 1.390 . S
C475 C476 1.387 . S
C475 H478 0.950 . S
C476 C475 1.387 . S
C476 C479 1.387 . S
H477 C473 0.950 . S
H478 C475 0.950 . S
C479 C470 1.390 . S
C479 H472 0.950 . S
C479 C476 1.387 . S
C480 C481 1.387 . S
C480 H484 0.950 . S
C480 C489 1.390 1_455 S
C481 C480 1.387 . S
C481 C483 1.387 . S
H482 C489 0.950 . S
C483 C481 1.387 . S
C483 C485 1.390 1_455 S
C483 H487 0.950 . S
H484 C480 0.950 . S
C485 C483 1.390 1_655 S
C485 C486 1.387 . S
C485 H488 0.950 . S
C486 C485 1.387 . S
C486 C489 1.387 . S
H487 C483 0.950 . S
H488 C485 0.950 . S
C489 C480 1.390 1_655 S
C489 H482 0.950 . S
C489 C486 1.387 . S
C490 C491 1.387 . S
C490 H494 0.950 . S
C490 C499 1.390 1_655 S
C491 C490 1.387 . S
C491 C493 1.387 . S
H492 C499 0.950 . S
C493 C491 1.387 . S
C493 C495 1.390 1_655 S
C493 H497 0.950 . S
H494 C490 0.950 . S
C495 C493 1.390 1_455 S
C495 C496 1.387 . S
C495 H498 0.950 . S
C496 C495 1.387 . S
C496 C499 1.387 . S
H497 C493 0.950 . S
H498 C495 0.950 . S
C499 C490 1.390 1_455 S
C499 H492 0.950 . S
C499 C496 1.387 . S
C500 C501 1.387 . S
C500 H504 0.950 . S
C500 C509 1.390 1_655 S
C501 C500 1.387 . S
C501 C503 1.387 . S
H502 C509 0.950 . S
C503 C501 1.387 . S
C503 C505 1.390 1_655 S
C503 H507 0.950 . S
H504 C500 0.950 . S
C505 C503 1.390 1_455 S
C505 C506 1.387 . S
C505 H508 0.950 . S
C506 C505 1.387 . S
C506 C509 1.387 . S
H507 C503 0.950 . S
H508 C505 0.950 . S
C509 C500 1.390 1_455 S
C509 H502 0.950 . S
C509 C506 1.387 . S
C510 C511 1.387 . S
C510 H514 0.950 . S
C510 C519 1.390 1_655 S
C511 C510 1.387 . S
C511 C513 1.387 . S
H512 C519 0.950 . S
C513 C511 1.387 . S
C513 C515 1.390 1_655 S
C513 H517 0.950 . S
H514 C510 0.950 . S
C515 C513 1.390 1_455 S
C515 C516 1.387 . S
C515 H518 0.950 . S
C516 C515 1.387 . S
C516 C519 1.387 . S
H517 C513 0.950 . S
H518 C515 0.950 . S
C519 C510 1.390 1_455 S
C519 H512 0.950 . S
C519 C516 1.387 . S
C520 C521 1.387 . S
C520 H524 0.950 . S
C520 C529 1.390 . S
C521 C520 1.387 . S
C521 C523 1.387 . S
H522 C529 0.950 . S
C523 C521 1.387 . S
C523 C525 1.390 . S
C523 H527 0.950 . S
H524 C520 0.950 . S
C525 C523 1.390 . S
C525 C526 1.387 . S
C525 H528 0.950 . S
C526 C525 1.387 . S
C526 C529 1.387 . S
H527 C523 0.950 . S
H528 C525 0.950 . S
C529 C520 1.390 . S
C529 H522 0.950 . S
C529 C526 1.387 . S
C530 C531 1.387 . S
C530 H534 0.950 . S
C530 C539 1.390 . S
C531 C530 1.387 . S
C531 C533 1.387 . S
H532 C539 0.950 . S
C533 C531 1.387 . S
C533 C535 1.390 . S
C533 H537 0.950 . S
H534 C530 0.950 . S
C535 C533 1.390 . S
C535 C536 1.387 . S
C535 H538 0.950 . S
C536 C535 1.387 . S
C536 C539 1.387 . S
H537 C533 0.950 . S
H538 C535 0.950 . S
C539 C530 1.390 . S
C539 H532 0.950 . S
C539 C536 1.387 . S
C540 C541 1.387 . S
C540 H544 0.950 . S
C540 C549 1.390 . S
C541 C540 1.387 . S
C541 C543 1.387 . S
H542 C549 0.950 . S
C543 C541 1.387 . S
C543 C545 1.390 . S
C543 H547 0.950 . S
H544 C540 0.950 . S
C545 C543 1.390 . S
C545 C546 1.387 . S
C545 H548 0.950 . S
C546 C545 1.387 . S
C546 C549 1.387 . S
H547 C543 0.950 . S
H548 C545 0.950 . S
C549 C540 1.390 . S
C549 H542 0.950 . S
C549 C546 1.387 . S
C550 C551 1.387 . S
C550 H554 0.950 . S
C550 C559 1.390 . S
C551 C550 1.387 . S
C551 C553 1.387 . S
H552 C559 0.950 . S
C553 C551 1.387 . S
C553 C555 1.390 . S
C553 H557 0.950 . S
H554 C550 0.950 . S
C555 C553 1.390 . S
C555 C556 1.387 . S
C555 H558 0.950 . S
C556 C555 1.387 . S
C556 C559 1.387 . S
H557 C553 0.950 . S
H558 C555 0.950 . S
C559 C550 1.390 . S
C559 H552 0.950 . S
C559 C556 1.387 . S
C321 C10 2.269 . S
C326 C19 2.269 . S
C331 C50 2.267 . S
C336 C59 2.267 . S
C341 C90 2.267 . S
C346 C99 2.267 . S
C351 C130 2.269 . S
C356 C139 2.269 . S
C361 C170 2.267 . S
C366 C179 2.267 . S
C371 C219 2.267 . S
C376 C210 2.267 . S
C381 C250 2.267 . S
C386 C259 2.267 . S
C391 C299 2.267 . S
C396 C290 2.267 . S
C401 C46 2.921 . S
C406 C15 2.921 . S
C411 C135 2.922 . S
C416 C86 2.922 . S
C421 C175 2.922 . S
C426 C206 2.922 . S
C431 C246 2.925 . S
C436 C295 2.925 . S
C441 C6 2.033 . S
C446 C215 2.033 . S
C451 C166 2.037 . S
C456 C55 2.037 . S
C461 C95 2.036 . S
C466 C286 2.036 . S
C471 C126 2.033 . S
C476 C255 2.034 . S
C481 C9 1.571 . S
C486 C129 1.571 . S
C491 C49 1.498 . S
C496 C89 1.498 . S
C501 C58 1.573 . S
C506 C98 1.573 . S
C511 C138 1.498 . S
C516 C18 1.498 . S
C521 C169 1.573 . S
C526 C289 1.573 . S
C531 C209 1.499 . S
C536 C249 1.499 . S
C541 C218 1.571 . S
C546 C258 1.571 . S
C551 C298 1.498 . S
C556 C178 1.498 . S
