# Generated by pormake.
# Topology sod-e, (6)-cn, num edge types: 1
# Building blocks:
#     Node 0, Type 0, BuildingBlock: OJICUG_clean_sbu_0, # of connection points: 6
#     Node 1, Type 0, BuildingBlock: OJICUG_clean_sbu_0, # of connection points: 6
#     Node 2, Type 0, BuildingBlock: OJICUG_clean_sbu_0, # of connection points: 6
#     Node 3, Type 0, BuildingBlock: OJICUG_clean_sbu_0, # of connection points: 6
#     Node 4, Type 0, BuildingBlock: OJICUG_clean_sbu_0, # of connection points: 6
#     Node 5, Type 0, BuildingBlock: OJICUG_clean_sbu_0, # of connection points: 6
#     Node 6, Type 0, BuildingBlock: OJICUG_clean_sbu_0, # of connection points: 6
#     Node 7, Type 0, BuildingBlock: OJICUG_clean_sbu_0, # of connection points: 6
#     Node 8, Type 0, BuildingBlock: OJICUG_clean_sbu_0, # of connection points: 6
#     Node 9, Type 0, BuildingBlock: OJICUG_clean_sbu_0, # of connection points: 6
#     Node 10, Type 0, BuildingBlock: OJICUG_clean_sbu_0, # of connection points: 6
#     Node 11, Type 0, BuildingBlock: OJICUG_clean_sbu_0, # of connection points: 6
#     Node 12, Type 0, BuildingBlock: OJICUG_clean_sbu_0, # of connection points: 6
#     Node 13, Type 0, BuildingBlock: OJICUG_clean_sbu_0, # of connection points: 6
#     Node 14, Type 0, BuildingBlock: OJICUG_clean_sbu_0, # of connection points: 6
#     Node 15, Type 0, BuildingBlock: OJICUG_clean_sbu_0, # of connection points: 6
#     Node 16, Type 0, BuildingBlock: OJICUG_clean_sbu_0, # of connection points: 6
#     Node 17, Type 0, BuildingBlock: OJICUG_clean_sbu_0, # of connection points: 6
#     Node 18, Type 0, BuildingBlock: OJICUG_clean_sbu_0, # of connection points: 6
#     Node 19, Type 0, BuildingBlock: OJICUG_clean_sbu_0, # of connection points: 6
#     Node 20, Type 0, BuildingBlock: OJICUG_clean_sbu_0, # of connection points: 6
#     Node 21, Type 0, BuildingBlock: OJICUG_clean_sbu_0, # of connection points: 6
#     Node 22, Type 0, BuildingBlock: OJICUG_clean_sbu_0, # of connection points: 6
#     Node 23, Type 0, BuildingBlock: OJICUG_clean_sbu_0, # of connection points: 6
#     Edge 24, Type (0, 0), BuildingBlock: TEMPAE_clean_linker_10, # of connection points: 2
#     Edge 25, Type (0, 0), BuildingBlock: TEMPAE_clean_linker_10, # of connection points: 2
#     Edge 26, Type (0, 0), BuildingBlock: TEMPAE_clean_linker_10, # of connection points: 2
#     Edge 27, Type (0, 0), BuildingBlock: TEMPAE_clean_linker_10, # of connection points: 2
#     Edge 28, Type (0, 0), BuildingBlock: TEMPAE_clean_linker_10, # of connection points: 2
#     Edge 29, Type (0, 0), BuildingBlock: TEMPAE_clean_linker_10, # of connection points: 2
#     Edge 30, Type (0, 0), BuildingBlock: TEMPAE_clean_linker_10, # of connection points: 2
#     Edge 31, Type (0, 0), BuildingBlock: TEMPAE_clean_linker_10, # of connection points: 2
#     Edge 32, Type (0, 0), BuildingBlock: TEMPAE_clean_linker_10, # of connection points: 2
#     Edge 33, Type (0, 0), BuildingBlock: TEMPAE_clean_linker_10, # of connection points: 2
#     Edge 34, Type (0, 0), BuildingBlock: TEMPAE_clean_linker_10, # of connection points: 2
#     Edge 35, Type (0, 0), BuildingBlock: TEMPAE_clean_linker_10, # of connection points: 2
#     Edge 36, Type (0, 0), BuildingBlock: TEMPAE_clean_linker_10, # of connection points: 2
#     Edge 37, Type (0, 0), BuildingBlock: TEMPAE_clean_linker_10, # of connection points: 2
#     Edge 38, Type (0, 0), BuildingBlock: TEMPAE_clean_linker_10, # of connection points: 2
#     Edge 39, Type (0, 0), BuildingBlock: TEMPAE_clean_linker_10, # of connection points: 2
#     Edge 40, Type (0, 0), BuildingBlock: TEMPAE_clean_linker_10, # of connection points: 2
#     Edge 41, Type (0, 0), BuildingBlock: TEMPAE_clean_linker_10, # of connection points: 2
#     Edge 42, Type (0, 0), BuildingBlock: TEMPAE_clean_linker_10, # of connection points: 2
#     Edge 43, Type (0, 0), BuildingBlock: TEMPAE_clean_linker_10, # of connection points: 2
#     Edge 44, Type (0, 0), BuildingBlock: TEMPAE_clean_linker_10, # of connection points: 2
#     Edge 45, Type (0, 0), BuildingBlock: TEMPAE_clean_linker_10, # of connection points: 2
#     Edge 46, Type (0, 0), BuildingBlock: TEMPAE_clean_linker_10, # of connection points: 2
#     Edge 47, Type (0, 0), BuildingBlock: TEMPAE_clean_linker_10, # of connection points: 2
#     Edge 48, Type (0, 0), BuildingBlock: TEMPAE_clean_linker_10, # of connection points: 2
#     Edge 49, Type (0, 0), BuildingBlock: TEMPAE_clean_linker_10, # of connection points: 2
#     Edge 50, Type (0, 0), BuildingBlock: TEMPAE_clean_linker_10, # of connection points: 2
#     Edge 51, Type (0, 0), BuildingBlock: TEMPAE_clean_linker_10, # of connection points: 2
#     Edge 52, Type (0, 0), BuildingBlock: TEMPAE_clean_linker_10, # of connection points: 2
#     Edge 53, Type (0, 0), BuildingBlock: TEMPAE_clean_linker_10, # of connection points: 2
#     Edge 54, Type (0, 0), BuildingBlock: TEMPAE_clean_linker_10, # of connection points: 2
#     Edge 55, Type (0, 0), BuildingBlock: TEMPAE_clean_linker_10, # of connection points: 2
#     Edge 56, Type (0, 0), BuildingBlock: TEMPAE_clean_linker_10, # of connection points: 2
#     Edge 57, Type (0, 0), BuildingBlock: TEMPAE_clean_linker_10, # of connection points: 2
#     Edge 58, Type (0, 0), BuildingBlock: TEMPAE_clean_linker_10, # of connection points: 2
#     Edge 59, Type (0, 0), BuildingBlock: TEMPAE_clean_linker_10, # of connection points: 2
#     Edge 60, Type (0, 0), BuildingBlock: TEMPAE_clean_linker_10, # of connection points: 2
#     Edge 61, Type (0, 0), BuildingBlock: TEMPAE_clean_linker_10, # of connection points: 2
#     Edge 62, Type (0, 0), BuildingBlock: TEMPAE_clean_linker_10, # of connection points: 2
#     Edge 63, Type (0, 0), BuildingBlock: TEMPAE_clean_linker_10, # of connection points: 2
#     Edge 64, Type (0, 0), BuildingBlock: TEMPAE_clean_linker_10, # of connection points: 2
#     Edge 65, Type (0, 0), BuildingBlock: TEMPAE_clean_linker_10, # of connection points: 2
#     Edge 66, Type (0, 0), BuildingBlock: TEMPAE_clean_linker_10, # of connection points: 2
#     Edge 67, Type (0, 0), BuildingBlock: TEMPAE_clean_linker_10, # of connection points: 2
#     Edge 68, Type (0, 0), BuildingBlock: TEMPAE_clean_linker_10, # of connection points: 2
#     Edge 69, Type (0, 0), BuildingBlock: TEMPAE_clean_linker_10, # of connection points: 2
#     Edge 70, Type (0, 0), BuildingBlock: TEMPAE_clean_linker_10, # of connection points: 2
#     Edge 71, Type (0, 0), BuildingBlock: TEMPAE_clean_linker_10, # of connection points: 2
#     Edge 72, Type (0, 0), BuildingBlock: TEMPAE_clean_linker_10, # of connection points: 2
#     Edge 73, Type (0, 0), BuildingBlock: TEMPAE_clean_linker_10, # of connection points: 2
#     Edge 74, Type (0, 0), BuildingBlock: TEMPAE_clean_linker_10, # of connection points: 2
#     Edge 75, Type (0, 0), BuildingBlock: TEMPAE_clean_linker_10, # of connection points: 2
#     Edge 76, Type (0, 0), BuildingBlock: TEMPAE_clean_linker_10, # of connection points: 2
#     Edge 77, Type (0, 0), BuildingBlock: TEMPAE_clean_linker_10, # of connection points: 2
#     Edge 78, Type (0, 0), BuildingBlock: TEMPAE_clean_linker_10, # of connection points: 2
#     Edge 79, Type (0, 0), BuildingBlock: TEMPAE_clean_linker_10, # of connection points: 2
#     Edge 80, Type (0, 0), BuildingBlock: TEMPAE_clean_linker_10, # of connection points: 2
#     Edge 81, Type (0, 0), BuildingBlock: TEMPAE_clean_linker_10, # of connection points: 2
#     Edge 82, Type (0, 0), BuildingBlock: TEMPAE_clean_linker_10, # of connection points: 2
#     Edge 83, Type (0, 0), BuildingBlock: TEMPAE_clean_linker_10, # of connection points: 2
#     Edge 84, Type (0, 0), BuildingBlock: TEMPAE_clean_linker_10, # of connection points: 2
#     Edge 85, Type (0, 0), BuildingBlock: TEMPAE_clean_linker_10, # of connection points: 2
#     Edge 86, Type (0, 0), BuildingBlock: TEMPAE_clean_linker_10, # of connection points: 2
#     Edge 87, Type (0, 0), BuildingBlock: TEMPAE_clean_linker_10, # of connection points: 2
#     Edge 88, Type (0, 0), BuildingBlock: TEMPAE_clean_linker_10, # of connection points: 2
#     Edge 89, Type (0, 0), BuildingBlock: TEMPAE_clean_linker_10, # of connection points: 2
#     Edge 90, Type (0, 0), BuildingBlock: TEMPAE_clean_linker_10, # of connection points: 2
#     Edge 91, Type (0, 0), BuildingBlock: TEMPAE_clean_linker_10, # of connection points: 2
#     Edge 92, Type (0, 0), BuildingBlock: TEMPAE_clean_linker_10, # of connection points: 2
#     Edge 93, Type (0, 0), BuildingBlock: TEMPAE_clean_linker_10, # of connection points: 2
#     Edge 94, Type (0, 0), BuildingBlock: TEMPAE_clean_linker_10, # of connection points: 2
#     Edge 95, Type (0, 0), BuildingBlock: TEMPAE_clean_linker_10, # of connection points: 2
# Relax obj value: 0.275
# Max RMSD: 0.220
# Mean RMSD: 0.220
data_MOF--net-sod-e--node1-OJICUG_clean_sbu_0--edge1-TEMPAE_clean_linker_10
_symmetry_space_group_name_H-M    P1
_symmetry_Int_Tables_number       1
_symmetry_cell_setting            triclinic
loop_
_symmetry_equiv_pos_as_xyz
'x, y, z'
_cell_length_a     51.748643
_cell_length_b     51.580499
_cell_length_c     51.763341
_cell_angle_alpha  89.970907
_cell_angle_beta   90.053001
_cell_angle_gamma 90.020678
loop_
_atom_site_label
_atom_site_type_symbol
_atom_site_fract_x
_atom_site_fract_y
_atom_site_fract_z
_atom_type_partial_charge
Sc0 Sc 0.95832 0.30898 0.28869 0.0
Sc1 Sc 0.99536 0.31434 0.34357 0.0
Sc2 Sc 0.94106 0.35178 0.33638 0.0
O3 O 0.96564 0.32595 0.32277 0.0
C4 C 0.93684 0.36641 0.28085 0.0
C5 C 0.01559 0.32342 0.28558 0.0
C6 C -0.00419 0.37315 0.35592 0.0
C7 C 0.98724 0.26396 0.31822 0.0
C8 C 0.90719 0.3064 0.31785 0.0
C9 C 0.9509 0.31962 0.38613 0.0
O10 O 0.93605 0.34246 0.27456 0.0
O11 O 0.01894 0.3142 0.3084 0.0
O12 O 0.97122 0.37449 0.35457 0.0
O13 O 0.98145 0.27428 0.29669 0.0
O14 O 0.90922 0.33097 0.31886 0.0
O15 O 0.97421 0.31484 0.37971 0.0
O16 O 0.9244 0.29268 0.30664 0.0
O17 O 0.98177 0.27571 0.33879 0.0
O18 O 0.93491 0.33046 0.37101 0.0
O19 O 0.99332 0.32586 0.27508 0.0
O20 O 0.94641 0.37368 0.30217 0.0
O21 O 0.00856 0.35307 0.34974 0.0
Sc22 Sc 0.66156 0.99666 0.31925 0.0
Sc23 Sc 0.64321 0.94429 0.35662 0.0
Sc24 Sc 0.61031 0.00234 0.36254 0.0
O25 O 0.63795 0.98111 0.34594 0.0
C26 C 0.6597 0.0394 0.36209 0.0
C27 C 0.69953 0.95974 0.35057 0.0
C28 C 0.62802 0.96983 0.41013 0.0
C29 C 0.65254 0.94313 0.29568 0.0
C30 C 0.60801 0.0251 0.30729 0.0
C31 C 0.58325 0.947 0.35333 0.0
O32 O 0.67316 0.02539 0.34689 0.0
O33 O 0.68216 0.95308 0.36644 0.0
O34 O 0.62172 0.99158 0.40065 0.0
O35 O 0.65013 0.96741 0.29183 0.0
O36 O 0.59603 0.01486 0.326 0.0
O37 O 0.60377 0.93454 0.34789 0.0
O38 O 0.63229 0.02284 0.30412 0.0
O39 O 0.65422 0.93319 0.31813 0.0
O40 O 0.58332 0.97061 0.36068 0.0
O41 O 0.69442 0.97239 0.33008 0.0
O42 O 0.63568 0.03554 0.36617 0.0
O43 O 0.63366 0.95032 0.39639 0.0
Sc44 Sc 0.04083 0.64956 0.36116 0.0
Sc45 Sc 0.0092 0.60073 0.3965 0.0
Sc46 Sc 0.07661 0.60527 0.39913 0.0
O47 O 0.04216 0.61861 0.38553 0.0
C48 C 0.08699 0.6142 0.33922 0.0
C49 C -0.00421 0.61462 0.3378 0.0
C50 C 0.04601 0.55294 0.38813 0.0
C51 C 0.99354 0.66011 0.39978 0.0
C52 C 0.08508 0.66644 0.40079 0.0
C53 C 0.04197 0.60233 0.44885 0.0
O54 O 0.07093 0.63286 0.33679 0.0
O55 O 0.99218 0.60224 0.35868 0.0
O56 O 0.0663 0.56486 0.39514 0.0
O57 O 0.0098 0.66779 0.38288 0.0
O58 O 0.09169 0.64336 0.40596 0.0
O59 O 0.02157 0.59721 0.43614 0.0
O60 O 0.06723 0.6718 0.38479 0.0
O61 O 0.99164 0.63665 0.407 0.0
O62 O 0.06358 0.60703 0.43829 0.0
O63 O 0.0132 0.63184 0.33537 0.0
O64 O 0.09132 0.60288 0.36062 0.0
O65 O 0.02408 0.56368 0.38626 0.0
Sc66 Sc 0.3453 0.91117 0.36656 0.0
Sc67 Sc 0.36545 0.97145 0.34294 0.0
Sc68 Sc 0.30792 0.94372 0.31929 0.0
O69 O 0.33945 0.94213 0.34287 0.0
C70 C 0.32749 0.88527 0.31358 0.0
C71 C 0.4018 0.92217 0.34474 0.0
C72 C 0.34971 0.97208 0.28375 0.0
C73 C 0.36273 0.95714 0.40273 0.0
C74 C 0.28464 0.91658 0.36989 0.0
C75 C 0.31107 0.00068 0.3434 0.0
O76 O 0.33722 0.88492 0.33609 0.0
O77 O 0.39706 0.94537 0.33808 0.0
O78 O 0.328 0.961 0.28683 0.0
O79 O 0.35295 0.93485 0.39955 0.0
O80 O 0.28207 0.92821 0.3484 0.0
O81 O 0.33533 -0.00039 0.34735 0.0
O82 O 0.30627 0.90987 0.37907 0.0
O83 O 0.36942 0.9717 0.38418 0.0
O84 O 0.29813 0.98203 0.33353 0.0
O85 O 0.38569 0.908 0.35671 0.0
O86 O 0.31694 0.90538 0.30366 0.0
O87 O 0.36539 0.97596 0.30209 0.0
Sc88 Sc 0.98816 0.64323 0.68654 0.0
Sc89 Sc 0.93029 0.65597 0.6557 0.0
Sc90 Sc 0.94676 0.68941 0.71065 0.0
O91 O 0.95567 0.66308 0.68351 0.0
C92 C 0.98252 0.65253 0.7432 0.0
C93 C 0.94701 0.59936 0.67135 0.0
C94 C 0.8993 0.6543 0.70677 0.0
C95 C 0.98409 0.64882 0.62617 0.0
C96 C 0.00195 0.70397 0.69379 0.0
C97 C 0.92035 0.71311 0.6614 0.0
O98 O 0.9797 0.6354 0.72613 0.0
O99 O 0.92973 0.61516 0.66376 0.0
O100 O 0.91645 0.66309 0.7223 0.0
O101 O -0.0022 0.64797 0.64654 0.0
O102 O 0.97865 0.71194 0.69664 0.0
O103 O 0.93013 0.69629 0.64652 0.0
O104 O 0.00843 0.67989 0.69435 0.0
O105 O 0.95954 0.65051 0.62653 0.0
O106 O 0.9199 0.71001 0.68575 0.0
O107 O 0.96952 0.60656 0.67845 0.0
O108 O 0.97343 0.67502 0.73966 0.0
O109 O 0.89899 0.66096 0.68305 0.0
Sc110 Sc 0.37116 0.02146 0.6397 0.0
Sc111 Sc 0.37549 0.0845 0.61511 0.0
Sc112 Sc 0.33389 0.07121 0.66737 0.0
O113 O 0.36 0.05901 0.64063 0.0
C114 C 0.31014 0.01707 0.65005 0.0
C115 C 0.36859 0.03378 0.58032 0.0
C116 C 0.31719 0.10224 0.61614 0.0
C117 C 0.42454 0.05148 0.63072 0.0
C118 C 0.3686 0.0313 0.69965 0.0
C119 C 0.3751 0.11696 0.66763 0.0
O120 O 0.3322 0.00745 0.6449 0.0
O121 O 0.37323 0.0578 0.58313 0.0
O122 O 0.31374 0.09603 0.63974 0.0
O123 O 0.41125 0.03118 0.63495 0.0
O124 O 0.35051 0.04802 0.6986 0.0
O125 O 0.37999 0.11442 0.64371 0.0
O126 O 0.37857 0.0211 0.67984 0.0
O127 O 0.41443 0.07298 0.62428 0.0
O128 O 0.35957 0.10204 0.67964 0.0
O129 O 0.36577 0.01824 0.59906 0.0
O130 O 0.30695 0.04058 0.65698 0.0
O131 O 0.33805 0.09785 0.60407 0.0
Sc132 Sc 0.01794 0.33855 0.64319 0.0
Sc133 Sc 0.00379 0.38709 0.59755 0.0
Sc134 Sc 0.9529 0.3541 0.62858 0.0
O135 O 0.99156 0.35994 0.62321 0.0
C136 C 0.97534 0.2967 0.62757 0.0
C137 C 0.04467 0.34216 0.58754 0.0
C138 C 0.95643 0.36179 0.5677 0.0
C139 C 0.04311 0.39508 0.64407 0.0
C140 C 0.97442 0.34837 0.68586 0.0
C141 C 0.95591 0.41545 0.62435 0.0
O142 O -0.00167 0.30272 0.63386 0.0
O143 O 0.03247 0.36236 0.5807 0.0
O144 O 0.94465 0.3541 0.58779 0.0
O145 O 0.0403 0.37237 0.65331 0.0
O146 O 0.95655 0.35242 0.6696 0.0
O147 O 0.9766 0.41505 0.61121 0.0
O148 O -0.00233 0.34349 0.67957 0.0
O149 O 0.03119 0.40297 0.62412 0.0
O150 O 0.94492 0.39502 0.63262 0.0
O151 O 0.04142 0.33141 0.60942 0.0
O152 O 0.95714 0.31302 0.62536 0.0
O153 O 0.97782 0.37378 0.56847 0.0
Sc154 Sc 0.6693 0.01481 0.6442 0.0
Sc155 Sc 0.63748 0.95741 0.65733 0.0
Sc156 Sc 0.69658 0.97002 0.68606 0.0
O157 O 0.6675 0.98109 0.66279 0.0
C158 C 0.72686 -0.00029 0.64186 0.0
C159 C 0.64773 0.97619 0.60126 0.0
C160 C 0.68552 0.9206 0.65372 0.0
C161 C 0.61059 0.0133 0.65628 0.0
C162 C 0.68887 0.0275 0.70159 0.0
C163 C 0.64666 0.94852 0.71477 0.0
O164 O 0.70645 0.0054 0.6297 0.0
O165 O 0.64288 0.95754 0.61651 0.0
O166 O 0.70236 0.93705 0.66115 0.0
O167 O 0.63134 0.02639 0.65629 0.0
O168 O 0.69029 0.00405 0.70944 0.0
O169 O 0.631 0.95671 0.69782 0.0
O170 O 0.6851 0.03375 0.67801 0.0
O171 O 0.61001 0.98874 0.65431 0.0
O172 O 0.67101 0.9477 0.71121 0.0
O173 O 0.65433 -0.00131 0.60891 0.0
O174 O 0.72654 0.99069 0.66472 0.0
O175 O 0.66165 0.92313 0.65916 0.0
Sc176 Sc 0.3733 0.3594 0.90853 0.0
Sc177 Sc 0.36903 0.35799 0.97576 0.0
Sc178 Sc 0.32626 0.32052 0.93911 0.0
O179 O 0.35605 0.34599 0.94103 0.0
C180 C 0.3147 0.35911 0.89194 0.0
C181 C 0.36921 0.41002 0.94432 0.0
C182 C 0.30837 0.35381 0.98644 0.0
C183 C 0.42168 0.35448 0.94395 0.0
C184 C 0.36385 0.29975 0.89524 0.0
C185 C 0.36087 0.29856 0.98593 0.0
O186 O 0.33726 0.36867 0.89116 0.0
O187 O 0.36362 0.39783 0.96497 0.0
O188 O 0.30247 0.34292 0.96522 0.0
O189 O 0.41133 0.35064 0.92214 0.0
O190 O 0.34756 0.29554 0.91317 0.0
O191 O 0.37494 0.3187 0.9881 0.0
O192 O 0.37321 0.32203 0.89056 0.0
O193 O 0.40881 0.35966 0.96413 0.0
O194 O 0.34136 0.29737 0.97086 0.0
O195 O 0.3754 0.39872 0.92332 0.0
O196 O 0.30795 0.34118 0.90746 0.0
O197 O 0.3315 0.35822 0.99319 0.0
Sc198 Sc 0.3262 0.67748 0.00872 0.0
Sc199 Sc 0.38383 0.6591 0.97847 0.0
Sc200 Sc 0.36521 0.62921 0.03643 0.0
O201 O 0.35856 0.65536 0.00801 0.0
C202 C 0.34429 0.67918 0.06668 0.0
C203 C 0.36815 0.71722 0.98645 0.0
C204 C 0.42181 0.64916 0.02641 0.0
C205 C 0.32933 0.66218 0.95009 0.0
C206 C 0.30499 0.62388 0.03047 0.0
C207 C 0.38151 0.59812 0.98575 0.0
O208 O 0.33498 0.69059 0.04697 0.0
O209 O 0.38586 0.70055 0.98273 0.0
O210 O 0.40464 0.64079 0.04178 0.0
O211 O 0.31595 0.66538 0.97045 0.0
O212 O 0.32704 0.61382 0.03388 0.0
O213 O 0.38323 0.6179 0.97118 0.0
O214 O 0.3018 0.64727 0.02362 0.0
O215 O 0.35386 0.66241 0.95 0.0
O216 O 0.37688 0.59946 0.00982 0.0
O217 O 0.34558 0.71106 0.99384 0.0
O218 O 0.35404 0.65651 0.06597 0.0
O219 O 0.41705 0.65562 0.00319 0.0
Sc220 Sc 0.68173 0.32021 0.05414 0.0
Sc221 Sc 0.63369 0.36682 0.04585 0.0
Sc222 Sc 0.66415 0.34064 0.99286 0.0
O223 O 0.6599 0.34273 0.03142 0.0
C224 C 0.72057 0.3328 0.01064 0.0
C225 C 0.67894 0.37341 0.08637 0.0
C226 C 0.66497 0.39919 0.00219 0.0
C227 C 0.62618 0.31599 0.08019 0.0
C228 C 0.65956 0.2838 0.00887 0.0
C229 C 0.60503 0.35098 -0.00414 0.0
O230 O 0.71598 0.33441 0.03463 0.0
O231 O 0.65967 0.38206 0.07391 0.0
O232 O 0.67666 0.37993 0.99217 0.0
O233 O 0.64827 0.30637 0.07494 0.0
O234 O 0.65097 0.30223 0.99508 0.0
O235 O 0.60486 0.35239 0.0202 0.0
O236 O 0.67536 0.28694 0.02779 0.0
O237 O 0.61913 0.33839 0.07261 0.0
O238 O 0.62562 0.35301 0.98289 0.0
O239 O 0.68889 0.35114 0.08217 0.0
O240 O 0.70314 0.32644 0.99479 0.0
O241 O 0.647 0.39679 0.01912 0.0
Sc242 Sc 0.66177 0.62775 0.00245 0.0
Sc243 Sc 0.62914 0.62648 0.94424 0.0
Sc244 Sc 0.66709 0.67919 0.96094 0.0
O245 O 0.65191 0.64455 0.96962 0.0
C246 C 0.64749 0.68616 0.01649 0.0
C247 C 0.60308 0.61347 -0.00153 0.0
C248 C 0.61083 0.68203 0.9358 0.0
C249 C 0.66465 0.58102 0.96243 0.0
C250 C 0.71237 0.65508 0.99474 0.0
C251 C 0.67615 0.64505 0.91315 0.0
O252 O 0.65818 0.66458 0.02238 0.0
O253 O 0.60421 0.61071 0.97399 0.0
O254 O 0.63433 0.68969 0.93615 0.0
O255 O 0.66613 0.59022 0.98517 0.0
O256 O 0.70087 0.67512 0.9862 0.0
O257 O 0.65174 0.64219 0.91289 0.0
O258 O 0.70165 0.63314 0.9939 0.0
O259 O 0.65306 0.59248 0.94405 0.0
O260 O 0.68707 0.65952 0.92995 0.0
O261 O 0.62215 0.62121 0.01187 0.0
O262 O 0.64677 0.69503 0.99343 0.0
O263 O 0.60441 0.65943 0.94302 0.0
Sc264 Sc 0.46711 0.86921 0.85669 0.0
Sc265 Sc 0.51286 0.88085 0.90503 0.0
Sc266 Sc 0.45769 0.91981 0.9016 0.0
O267 O 0.47921 0.89012 0.88763 0.0
C268 C 0.44499 0.92562 0.8423 0.0
C269 C 0.52593 0.87711 0.84451 0.0
C270 C 0.51508 0.94222 0.90136 0.0
C271 C 0.49382 0.8252 0.89141 0.0
C272 C 0.41836 0.87293 0.89373 0.0
C273 C 0.47803 0.89455 0.95356 0.0
O274 O 0.44952 0.90199 0.83697 0.0
O275 O 0.53191 0.87591 0.86836 0.0
O276 O 0.49065 0.94548 0.9014 0.0
O277 O 0.48286 0.8325 0.87063 0.0
O278 O 0.42393 0.89543 0.90232 0.0
O279 O 0.4976 0.884 0.94331 0.0
O280 O 0.43196 0.86084 0.87707 0.0
O281 O 0.503 0.841 0.90767 0.0
O282 O 0.46258 0.90874 0.941 0.0
O283 O 0.50262 0.87702 0.83647 0.0
O284 O 0.4487 0.93497 0.86454 0.0
O285 O 0.52564 0.92014 0.90371 0.0
Sc286 Sc 0.18261 0.54 0.79235 0.0
Sc287 Sc 0.14103 0.49856 0.82543 0.0
Sc288 Sc 0.1556 0.55919 0.85039 0.0
O289 O 0.16 0.53205 0.82303 0.0
C290 C 0.21307 0.5646 0.83973 0.0
C291 C 0.19844 0.48346 0.80762 0.0
C292 C 0.15122 0.50766 0.88431 0.0
C293 C 0.13855 0.50697 0.76562 0.0
C294 C 0.15158 0.59026 0.79988 0.0
C295 C 0.09891 0.54136 0.83983 0.0
O296 O 0.20862 0.56357 0.81553 0.0
O297 O 0.17537 0.47763 0.81424 0.0
O298 O 0.151 0.53213 0.8817 0.0
O299 O 0.16051 0.51786 0.76453 0.0
O300 O 0.16036 0.5901 0.82276 0.0
O301 O 0.10601 0.51805 0.83585 0.0
O302 O 0.15766 0.57247 0.784 0.0
O303 O 0.12768 0.50132 0.78673 0.0
O304 O 0.11448 0.55997 0.84427 0.0
O305 O 0.20561 0.50629 0.80116 0.0
O306 O 0.19629 0.55848 0.85655 0.0
O307 O 0.15091 0.4922 0.86525 0.0
Sc308 Sc 0.55858 0.18753 0.81399 0.0
Sc309 Sc 0.52424 0.13071 0.81038 0.0
Sc310 Sc 0.58266 0.13181 0.84097 0.0
O311 O 0.55461 0.15026 0.82263 0.0
C312 C 0.61232 0.16546 0.80197 0.0
C313 C 0.52886 0.1649 0.76441 0.0
C314 C 0.56984 0.08918 0.80437 0.0
C315 C 0.50147 0.18532 0.82904 0.0
C316 C 0.58223 0.1818 0.87145 0.0
C317 C 0.53158 0.10835 0.86472 0.0
O318 O 0.5929 0.17732 0.79255 0.0
O319 O 0.53317 0.14191 0.77186 0.0
O320 O 0.58697 0.1061 0.80896 0.0
O321 O 0.52338 0.19551 0.83412 0.0
O322 O 0.57833 0.15756 0.87228 0.0
O323 O 0.51633 0.11987 0.84924 0.0
O324 O 0.5803 0.1948 0.85031 0.0
O325 O 0.49913 0.16427 0.81613 0.0
O326 O 0.55569 0.10584 0.86016 0.0
O327 O 0.53518 0.18425 0.77851 0.0
O328 O 0.61193 0.157 0.82498 0.0
O329 O 0.54589 0.09496 0.8054 0.0
Sc330 Sc 0.87708 0.46649 0.87521 0.0
Sc331 Sc 0.85361 0.52084 0.84358 0.0
Sc332 Sc 0.82458 0.46185 0.83224 0.0
O333 O 0.85175 0.48278 0.85077 0.0
C334 C 0.8761 0.42853 0.82636 0.0
C335 C 0.913 0.51031 0.85371 0.0
C336 C 0.84548 0.50081 0.78905 0.0
C337 C 0.8561 0.518 0.90359 0.0
C338 C 0.82729 0.43295 0.88709 0.0
C339 C 0.7932 0.51108 0.8424 0.0
O340 O 0.88584 0.43593 0.84782 0.0
O341 O 0.89426 0.52533 0.84922 0.0
O342 O 0.82795 0.48527 0.79692 0.0
O343 O 0.86912 0.49686 0.90319 0.0
O344 O 0.817 0.43655 0.86502 0.0
O345 O 0.8129 0.52423 0.83602 0.0
O346 O 0.84828 0.44362 0.89375 0.0
O347 O 0.84696 0.52882 0.88342 0.0
O348 O 0.79426 0.48681 0.84645 0.0
O349 O 0.90985 0.48693 0.8604 0.0
O350 O 0.85441 0.43662 0.81773 0.0
O351 O 0.86098 0.51207 0.80434 0.0
Sc352 Sc 0.50893 0.11145 0.10708 0.0
Sc353 Sc 0.44521 0.09211 0.09533 0.0
Sc354 Sc 0.45861 0.13927 0.14302 0.0
O355 O 0.47084 0.11441 0.11506 0.0
C356 C 0.50899 0.11626 0.16862 0.0
C357 C 0.48935 0.05299 0.11255 0.0
C358 C 0.41841 0.09297 0.15064 0.0
C359 C 0.48672 0.1012 0.05112 0.0
C360 C 0.50385 0.17162 0.11489 0.0
C361 C 0.42049 0.14862 0.09471 0.0
O362 O 0.51957 0.11318 0.14677 0.0
O363 O 0.46591 0.05748 0.10634 0.0
O364 O 0.43099 0.11219 0.15944 0.0
O365 O 0.50433 0.10914 0.06609 0.0
O366 O 0.48545 0.16956 0.13116 0.0
O367 O 0.42405 0.1264 0.08446 0.0
O368 O 0.51313 0.1524 0.10272 0.0
O369 O 0.46479 0.09399 0.05907 0.0
O370 O 0.43052 0.15543 0.11627 0.0
O371 O 0.50706 0.07014 0.11209 0.0
O372 O 0.48596 0.12453 0.17117 0.0
O373 O 0.42101 0.08512 0.1277 0.0
Sc374 Sc 0.82438 0.51573 0.13272 0.0
Sc375 Sc 0.85836 0.57316 0.13611 0.0
Sc376 Sc 0.81281 0.55786 0.18236 0.0
O377 O 0.83237 0.54873 0.15035 0.0
C378 C 0.77098 0.52507 0.1513 0.0
C379 C 0.83134 0.55496 0.08559 0.0
C380 C 0.80953 0.60652 0.14779 0.0
C381 C 0.88435 0.51753 0.12793 0.0
C382 C 0.83004 0.50191 0.19172 0.0
C383 C 0.86835 0.5804 0.19402 0.0
O384 O 0.78484 0.52671 0.13136 0.0
O385 O 0.8405 0.57352 0.09884 0.0
O386 O 0.79658 0.58969 0.16054 0.0
O387 O 0.86407 0.50468 0.13314 0.0
O388 O 0.83097 0.52512 0.20017 0.0
O389 O 0.87752 0.5735 0.17242 0.0
O390 O 0.82046 0.49598 0.16975 0.0
O391 O 0.88445 0.54212 0.12496 0.0
O392 O 0.84403 0.5821 0.19784 0.0
O393 O 0.82761 0.53237 0.09476 0.0
O394 O 0.77953 0.53292 0.17302 0.0
O395 O 0.83418 0.60581 0.14693 0.0
Sc396 Sc 0.50889 0.77965 0.20309 0.0
Sc397 Sc 0.52661 0.82743 0.16091 0.0
Sc398 Sc 0.46837 0.83164 0.19223 0.0
O399 O 0.5008 0.81285 0.1848 0.0
C400 C 0.45303 0.77179 0.18526 0.0
C401 C 0.53388 0.77135 0.14785 0.0
C402 C 0.47321 0.84383 0.13434 0.0
C403 C 0.55972 0.80887 0.20805 0.0
C404 C 0.47424 0.80853 0.24431 0.0
C405 C 0.50971 0.87783 0.18799 0.0
O406 O 0.4761 0.76303 0.18444 0.0
O407 O 0.52494 0.79245 0.13911 0.0
O408 O 0.45841 0.83548 0.15207 0.0
O409 O 0.54121 0.79894 0.22103 0.0
O410 O 0.47823 0.8294 0.23223 0.0
O411 O 0.5285 0.86317 0.18184 0.0
O412 O 0.48303 0.78732 0.2355 0.0
O413 O 0.5582 0.81229 0.18372 0.0
O414 O 0.4867 0.8694 0.19081 0.0
O415 O 0.53411 0.76626 0.17197 0.0
O416 O 0.44744 0.79488 0.19254 0.0
O417 O 0.49772 0.84401 0.13614 0.0
Sc418 Sc 0.1122 0.4985 0.1214 0.0
Sc419 Sc 0.11781 0.43071 0.11823 0.0
Sc420 Sc 0.16368 0.46743 0.15343 0.0
O421 O 0.13114 0.46552 0.1313 0.0
C422 C 0.17083 0.51498 0.11488 0.0
C423 C 0.11165 0.46616 0.0687 0.0
C424 C 0.17856 0.42349 0.11266 0.0
C425 C 0.06544 0.46048 0.13166 0.0
C426 C 0.12875 0.51111 0.17963 0.0
C427 C 0.13422 0.41777 0.17592 0.0
O428 O 0.147 0.51718 0.10964 0.0
O429 O 0.1156 0.44435 0.0793 0.0
O430 O 0.18464 0.44157 0.12818 0.0
O431 O 0.07564 0.48281 0.13196 0.0
O432 O 0.14707 0.49468 0.18043 0.0
O433 O 0.12061 0.41394 0.15582 0.0
O434 O 0.11453 0.51439 0.15986 0.0
O435 O 0.07772 0.43999 0.12574 0.0
O436 O 0.15052 0.43615 0.17818 0.0
O437 O 0.10813 0.48693 0.08145 0.0
O438 O 0.17976 0.49856 0.13088 0.0
O439 O 0.15541 0.41681 0.10833 0.0
Sc440 Sc 0.84978 0.84342 0.45695 0.0
Sc441 Sc 0.812 0.85969 0.5091 0.0
Sc442 Sc 0.8018 0.80183 0.47763 0.0
O443 O 0.82178 0.83489 0.48172 0.0
C444 C 0.80401 0.8249 0.42294 0.0
C445 C 0.82244 0.89687 0.46096 0.0
C446 C 0.75882 0.83952 0.50043 0.0
C447 C 0.87207 0.86425 0.5107 0.0
C448 C 0.85898 0.78548 0.46219 0.0
C449 C 0.81279 0.80396 0.53584 0.0
O450 O 0.82847 0.82517 0.42579 0.0
O451 O 0.81716 0.89315 0.4847 0.0
O452 O 0.76704 0.81655 0.49683 0.0
O453 O 0.87365 0.86167 0.48624 0.0
O454 O 0.83469 0.78144 0.46008 0.0
O455 O 0.80619 0.82786 0.53599 0.0
O456 O 0.86809 0.80787 0.46641 0.0
O457 O 0.85098 0.86174 0.52301 0.0
O458 O 0.81501 0.79063 0.51514 0.0
O459 O 0.83242 0.87956 0.44671 0.0
O460 O 0.78916 0.81651 0.44077 0.0
O461 O 0.77316 0.85865 0.49539 0.0
Sc462 Sc 0.83699 0.14125 0.43541 0.0
Sc463 Sc 0.87283 0.1196 0.48885 0.0
Sc464 Sc 0.82284 0.16505 0.4981 0.0
O465 O 0.84422 0.1421 0.47412 0.0
C466 C 0.82921 0.20085 0.44838 0.0
C467 C 0.89802 0.13831 0.43584 0.0
C468 C 0.87997 0.17144 0.52121 0.0
C469 C 0.84744 0.08188 0.44736 0.0
C470 C 0.78033 0.1437 0.45914 0.0
C471 C 0.82995 0.11398 0.53242 0.0
O472 O 0.83389 0.18211 0.43331 0.0
O473 O 0.89891 0.12926 0.45859 0.0
O474 O 0.85679 0.17911 0.51801 0.0
O475 O 0.83823 0.09972 0.43323 0.0
O476 O 0.78656 0.15313 0.48096 0.0
O477 O 0.85016 0.10669 0.52072 0.0
O478 O 0.79642 0.13834 0.44149 0.0
O479 O 0.8599 0.08625 0.46804 0.0
O480 O 0.81758 0.13441 0.52625 0.0
O481 O 0.87715 0.14468 0.42463 0.0
O482 O 0.82558 0.19836 0.47257 0.0
O483 O 0.88866 0.15061 0.51145 0.0
Sc484 Sc 0.15143 0.84735 0.56274 0.0
Sc485 Sc 0.10574 0.8883 0.59301 0.0
Sc486 Sc 0.09846 0.8709 0.52763 0.0
O487 O 0.11855 0.86881 0.56116 0.0
C488 C 0.15714 0.87564 0.50871 0.0
C489 C 0.16661 0.89459 0.60004 0.0
C490 C 0.09803 0.92938 0.54829 0.0
C491 C 0.12012 0.83196 0.61408 0.0
C492 C 0.11703 0.81268 0.5244 0.0
C493 C 0.05246 0.86951 0.56778 0.0
O494 O 0.16735 0.86633 0.52912 0.0
O495 O 0.14351 0.901 0.60493 0.0
O496 O 0.09453 0.9123 0.53092 0.0
O497 O 0.1364 0.82682 0.59623 0.0
O498 O 0.1002 0.83003 0.52026 0.0
O499 O 0.06532 0.8796 0.58613 0.0
O500 O 0.1368 0.81637 0.53853 0.0
O501 O 0.10822 0.85353 0.61586 0.0
O502 O 0.06222 0.86416 0.54601 0.0
O503 O 0.17223 0.87559 0.58555 0.0
O504 O 0.13285 0.8774 0.50537 0.0
O505 O 0.10308 0.92399 0.57173 0.0
Sc506 Sc 0.1233 0.16546 0.47674 0.0
Sc507 Sc 0.13778 0.13599 0.41829 0.0
Sc508 Sc 0.17332 0.18957 0.4383 0.0
O509 O 0.1449 0.16348 0.44488 0.0
C510 C 0.13231 0.22489 0.46763 0.0
C511 C 0.08208 0.15608 0.43126 0.0
C512 C 0.14502 0.18617 0.38548 0.0
C513 C 0.12496 0.10505 0.47015 0.0
C514 C 0.18216 0.17264 0.49616 0.0
C515 C 0.19687 0.13627 0.4174 0.0
O516 O 0.11774 0.20601 0.47299 0.0
O517 O 0.09834 0.14793 0.41474 0.0
O518 O 0.15316 0.20084 0.40352 0.0
O519 O 0.12518 0.12494 0.48444 0.0
O520 O 0.19169 0.17866 0.47416 0.0
O521 O 0.17655 0.12324 0.4215 0.0
O522 O 0.15793 0.16961 0.50017 0.0
O523 O 0.1276 0.10618 0.4458 0.0
O524 O 0.19728 0.16102 0.4179 0.0
O525 O 0.08802 0.16112 0.45469 0.0
O526 O 0.15458 0.22197 0.45774 0.0
O527 O 0.1476 0.16169 0.38671 0.0
C528 C 0.92083 0.32897 0.4224 0.0
C529 C 0.94319 0.3165 0.41337 0.0
C530 C 0.91651 0.33213 0.44884 0.0
C531 C 0.93519 0.32299 0.46648 0.0
C532 C 0.95593 0.30744 0.4577 0.0
C533 C 0.95976 0.30442 0.4311 0.0
C534 C 0.89338 0.34755 0.4577 0.0
C535 C 0.97561 0.29642 0.47624 0.0
C536 C 0.9557 0.36746 0.52023 0.0
C537 C 0.94657 0.35434 0.54206 0.0
C538 C 0.95105 0.35792 0.49546 0.0
C539 C 0.9367 0.33474 0.49245 0.0
C540 C 0.92565 0.32247 0.51422 0.0
C541 C 0.93085 0.33236 0.53895 0.0
C542 C 0.96276 0.37194 0.47261 0.0
C543 C 0.90956 0.29821 0.51178 0.0
H544 H 0.90745 0.33778 0.40887 0.0
H545 H 0.97671 0.29417 0.42426 0.0
H546 H 0.88498 0.33902 0.47549 0.0
H547 H 0.89953 0.36765 0.46228 0.0
H548 H 0.87816 0.34845 0.44257 0.0
H549 H 0.98805 0.28158 0.46691 0.0
H550 H 0.98818 0.31229 0.48347 0.0
H551 H 0.96586 0.28756 0.49317 0.0
H552 H 0.9675 0.38469 0.52254 0.0
H553 H 0.92372 0.3221 0.55578 0.0
H554 H 0.94759 0.37654 0.45816 0.0
H555 H 0.97722 0.35929 0.46306 0.0
H556 H 0.97245 0.3903 0.47829 0.0
H557 H 0.92215 0.28104 0.51464 0.0
H558 H 0.90019 0.29648 0.49258 0.0
H559 H 0.89431 0.2978 0.52683 0.0
C560 C 0.61466 0.98317 0.45417 0.0
C561 C 0.62964 0.96724 0.43826 0.0
C562 C 0.61704 0.98184 0.48101 0.0
C563 C 0.63522 0.96455 0.49197 0.0
C564 C 0.64992 0.94793 0.47603 0.0
C565 C 0.6468 0.94935 0.44925 0.0
C566 C 0.60071 -0.0005 0.49759 0.0
C567 C 0.66993 0.92974 0.48708 0.0
C568 C 0.6603 0.98702 0.55639 0.0
C569 C 0.64577 0.97173 0.57338 0.0
C570 C 0.65791 0.98397 0.52971 0.0
C571 C 0.6402 0.96552 0.51996 0.0
C572 C 0.62611 0.94941 0.53698 0.0
C573 C 0.62925 0.95256 0.56364 0.0
C574 C 0.67374 0.00102 0.512 0.0
C575 C 0.60704 0.92961 0.52705 0.0
H576 H 0.60116 0.99678 0.44561 0.0
H577 H 0.65853 0.93715 0.43688 0.0
H578 H 0.59081 0.98816 0.51289 0.0
H579 H 0.61326 0.01394 0.50736 0.0
H580 H 0.58591 0.01008 0.48615 0.0
H581 H 0.67676 0.91541 0.47259 0.0
H582 H 0.68681 0.94121 0.49373 0.0
H583 H 0.6622 0.91913 0.50403 0.0
H584 H 0.6735 0.00147 0.56397 0.0
H585 H 0.61813 0.94065 0.57684 0.0
H586 H 0.6608 0.01439 0.5013 0.0
H587 H 0.68402 0.98903 0.4975 0.0
H588 H 0.6882 0.01277 0.52272 0.0
H589 H 0.59096 0.93964 0.51696 0.0
H590 H 0.59882 0.91755 0.54282 0.0
H591 H 0.61645 0.91666 0.51278 0.0
C592 C 0.01994 0.63083 0.59957 0.0
C593 C -0.00307 0.64513 0.60103 0.0
C594 C 0.03039 0.62379 0.57562 0.0
C595 C 0.01778 0.63171 0.5527 0.0
C596 C 0.9954 0.64745 0.55405 0.0
C597 C 0.98507 0.65374 0.57825 0.0
C598 C 0.05404 0.60666 0.57488 0.0
C599 C 0.9818 0.65681 0.52993 0.0
C600 C 0.05162 0.62831 0.48798 0.0
C601 C 0.03925 0.60692 0.47672 0.0
C602 C 0.04527 0.63636 0.51302 0.0
C603 C 0.02679 0.62211 0.5273 0.0
C604 C 0.01551 0.59951 0.51658 0.0
C605 C 0.02158 0.59242 0.49119 0.0
C606 C 0.05718 0.66088 0.52361 0.0
C607 C -0.00386 0.58351 0.53149 0.0
H608 H 0.02907 0.62397 0.61714 0.0
H609 H 0.9674 0.66499 0.57934 0.0
H610 H 0.04868 0.58735 0.56709 0.0
H611 H 0.06886 0.61496 0.56181 0.0
H612 H 0.06275 0.60396 0.59432 0.0
H613 H 0.96619 0.67092 0.53431 0.0
H614 H -0.0042 0.66609 0.51659 0.0
H615 H 0.97316 0.64007 0.5196 0.0
H616 H 0.06501 0.63976 0.47659 0.0
H617 H 0.01204 0.57591 0.48239 0.0
H618 H 0.06744 0.65673 0.54197 0.0
H619 H 0.04181 0.67522 0.52798 0.0
H620 H 0.071 0.66982 0.50986 0.0
H621 H 0.00379 0.57878 0.55096 0.0
H622 H 0.99122 0.56515 0.52141 0.0
H623 H 0.97812 0.59483 0.53422 0.0
C624 C 0.38444 0.9846 0.43568 0.0
C625 C 0.36449 0.96754 0.42903 0.0
C626 C 0.38544 0.99575 0.46031 0.0
C627 C 0.36558 0.99019 0.47825 0.0
C628 C 0.34525 0.97313 0.47151 0.0
C629 C 0.34516 0.96168 0.44703 0.0
C630 C 0.40777 0.01332 0.46718 0.0
C631 C 0.32345 0.96726 0.49001 0.0
C632 C 0.37838 -0.00151 0.54954 0.0
C633 C 0.36771 0.02298 0.55416 0.0
C634 C 0.37822 0.98779 0.52475 0.0
C635 C 0.36641 0.00168 0.50436 0.0
C636 C 0.3553 0.02633 0.50897 0.0
C637 C 0.35646 0.03693 0.53387 0.0
C638 C 0.39081 0.96174 0.52035 0.0
C639 C 0.34195 0.0413 0.48773 0.0
H640 H 0.39937 0.98906 0.42167 0.0
H641 H 0.3295 0.94879 0.44165 0.0
H642 H 0.4005 0.03292 0.47211 0.0
H643 H 0.41793 0.00572 0.48449 0.0
H644 H 0.42193 0.01515 0.45116 0.0
H645 H 0.30861 0.95434 0.48135 0.0
H646 H 0.33115 0.95785 0.50768 0.0
H647 H 0.31398 0.98556 0.49611 0.0
H648 H 0.38734 0.98789 0.56528 0.0
H649 H 0.34808 0.05582 0.53763 0.0
H650 H 0.40576 0.96337 0.50508 0.0
H651 H 0.37622 0.94754 0.51352 0.0
H652 H 0.40001 0.95397 0.53814 0.0
H653 H 0.35579 0.04556 0.47194 0.0
H654 H 0.33368 0.05989 0.49473 0.0
H655 H 0.32615 0.02944 0.47932 0.0
C656 C 0.43994 0.89529 0.35714 0.0
C657 C 0.42796 0.91232 0.33976 0.0
C658 C 0.46675 0.89144 0.35614 0.0
C659 C 0.48147 0.90532 0.33774 0.0
C660 C 0.46884 0.91879 0.31758 0.0
C661 C 0.44212 0.92239 0.31899 0.0
C662 C 0.47963 0.87523 0.37667 0.0
C663 C 0.48383 0.93239 0.29658 0.0
C664 C 0.53653 0.94525 0.36327 0.0
C665 C 0.55794 0.93399 0.35119 0.0
C666 C 0.51179 0.93515 0.35994 0.0
C667 C 0.50827 0.91296 0.34419 0.0
C668 C 0.52994 0.90049 0.33307 0.0
C669 C 0.55466 0.91124 0.33667 0.0
C670 C 0.4893 0.94912 0.3724 0.0
C671 C 0.52737 0.87652 0.31659 0.0
H672 H 0.42886 0.88675 0.37274 0.0
H673 H 0.43261 0.93463 0.30483 0.0
H674 H 0.49665 0.86491 0.36864 0.0
H675 H 0.48651 0.88803 0.39247 0.0
H676 H 0.46602 0.86084 0.38503 0.0
H677 H 0.47121 0.93815 0.28017 0.0
H678 H 0.49294 0.95014 0.30463 0.0
H679 H 0.49947 0.9197 0.2892 0.0
H680 H 0.53897 0.96249 0.37501 0.0
H681 H 0.5712 0.90226 0.32745 0.0
H682 H 0.47588 0.95637 0.3573 0.0
H683 H 0.49558 0.96589 0.38432 0.0
H684 H 0.47835 0.93563 0.38498 0.0
H685 H 0.50809 0.86723 0.3181 0.0
H686 H 0.54231 0.86213 0.32222 0.0
H687 H 0.53093 0.88172 0.29609 0.0
C688 C 0.06104 0.50798 0.39747 0.0
C689 C 0.04748 0.52533 0.38169 0.0
C690 C 0.05831 0.48113 0.39394 0.0
C691 C 0.04202 0.47186 0.37398 0.0
C692 C 0.03037 0.48948 0.35654 0.0
C693 C 0.03304 0.51606 0.36081 0.0
C694 C 0.07109 0.46286 0.41279 0.0
C695 C 0.01332 0.48037 0.33463 0.0
C696 C 0.03417 0.40219 0.35302 0.0
C697 C 0.01003 0.39646 0.3639 0.0
C698 C 0.04602 0.42622 0.35753 0.0
C699 C 0.03349 0.44451 0.37356 0.0
C700 C 0.01017 0.43785 0.38624 0.0
C701 C -0.00143 0.41396 0.38102 0.0
C702 C 0.0708 0.4327 0.34357 0.0
C703 C -0.00355 0.45669 0.40387 0.0
H704 H 0.07229 0.51532 0.41356 0.0
H705 H 0.023 0.52965 0.34835 0.0
H706 H 0.05647 0.45576 0.42678 0.0
H707 H 0.07912 0.44571 0.40268 0.0
H708 H 0.08683 0.47254 0.42376 0.0
H709 H 0.00861 0.49629 0.32094 0.0
H710 H 0.02282 0.4645 0.32376 0.0
H711 H 0.99496 0.47263 0.34257 0.0
H712 H 0.04305 0.38857 0.33977 0.0
H713 H 0.98012 0.40927 0.38977 0.0
H714 H 0.08433 0.44331 0.3564 0.0
H715 H 0.0664 0.4455 0.3269 0.0
H716 H 0.08058 0.41503 0.33615 0.0
H717 H 0.0102 0.46526 0.41792 0.0
H718 H 0.98044 0.44733 0.41471 0.0
H719 H 0.98826 0.4728 0.39223 0.0
C720 C 0.46823 0.07236 0.63524 0.0
C721 C 0.45288 0.0499 0.63446 0.0
C722 C 0.49497 0.07076 0.63974 0.0
C723 C 0.50652 0.04618 0.64343 0.0
C724 C 0.49113 0.02351 0.64268 0.0
C725 C 0.46456 0.02565 0.63825 0.0
C726 C 0.51091 0.09528 0.64021 0.0
C727 C 0.50277 0.99686 0.64626 0.0
C728 C 0.57619 0.03097 0.62879 0.0
C729 C 0.58604 0.02701 0.65362 0.0
C730 C 0.55069 0.03922 0.62516 0.0
C731 C 0.53484 0.04357 0.647 0.0
C732 C 0.5454 0.04139 0.6722 0.0
C733 C 0.57099 0.03283 0.67524 0.0
C734 C 0.54016 0.04103 0.59799 0.0
C735 C 0.52916 0.04627 0.69591 0.0
H736 H 0.45936 0.0912 0.63255 0.0
H737 H 0.45294 0.00818 0.63768 0.0
H738 H 0.52301 0.09594 0.65791 0.0
H739 H 0.52425 0.09551 0.62346 0.0
H740 H 0.49874 0.11299 0.63941 0.0
H741 H 0.48805 0.98121 0.64526 0.0
H742 H 0.51751 0.99325 0.63112 0.0
H743 H 0.51266 0.99566 0.66524 0.0
H744 H 0.58803 0.02619 0.61217 0.0
H745 H 0.57881 0.02955 0.69441 0.0
H746 H 0.52878 0.05905 0.59541 0.0
H747 H 0.527 0.02444 0.59437 0.0
H748 H 0.55577 0.04061 0.58327 0.0
H749 H 0.54114 0.04776 0.71367 0.0
H750 H 0.51524 0.0301 0.69846 0.0
H751 H 0.51779 0.06436 0.69366 0.0
C752 C 0.95324 0.4629 0.61723 0.0
C753 C 0.94574 0.44117 0.63165 0.0
C754 C 0.9483 0.48798 0.62604 0.0
C755 C 0.93529 0.49149 0.64982 0.0
C756 C 0.92581 0.4697 0.66353 0.0
C757 C 0.93123 0.44465 0.65427 0.0
C758 C 0.95862 0.51068 0.61067 0.0
C759 C 0.91141 0.47272 0.68868 0.0
C760 C 0.95914 0.55329 0.68003 0.0
C761 C 0.94132 0.57126 0.67023 0.0
C762 C 0.95604 0.52669 0.67562 0.0
C763 C 0.93453 0.51787 0.66115 0.0
C764 C 0.91524 0.53562 0.65332 0.0
C765 C 0.91892 0.56218 0.65782 0.0
C766 C 0.97703 0.50835 0.68443 0.0
C767 C 0.89166 0.52674 0.63861 0.0
H768 H 0.96406 0.46031 0.59949 0.0
H769 H 0.92533 0.4279 0.66548 0.0
H770 H 0.94304 0.52496 0.60694 0.0
H771 H 0.97393 0.52067 0.62191 0.0
H772 H 0.96692 0.50462 0.59183 0.0
H773 H 0.90094 0.45471 0.69406 0.0
H774 H 0.92531 0.47732 0.70435 0.0
H775 H 0.89736 0.48892 0.68755 0.0
H776 H 0.97622 0.56005 0.69012 0.0
H777 H 0.9047 0.57586 0.65068 0.0
H778 H 0.98825 0.50167 0.66741 0.0
H779 H 0.96855 0.49096 0.69374 0.0
H780 H 0.9906 0.51766 0.69825 0.0
H781 H 0.89745 0.51965 0.61923 0.0
H782 H 0.8773 0.54254 0.63605 0.0
H783 H 0.88228 0.51034 0.64883 0.0
C784 C 0.38773 0.45256 0.93056 0.0
C785 C 0.36971 0.43862 0.94526 0.0
C786 C 0.39039 0.47949 0.93354 0.0
C787 C 0.37421 0.49273 0.95118 0.0
C788 C 0.35493 0.47892 0.96488 0.0
C789 C 0.35316 0.45196 0.96202 0.0
C790 C 0.41141 0.4935 0.91892 0.0
C791 C 0.33685 0.49245 0.98338 0.0
C792 C 0.39628 0.55245 0.98731 0.0
C793 C 0.38302 0.57212 0.97427 0.0
C794 C 0.39482 0.52669 0.97892 0.0
C795 C 0.37902 0.52042 0.95745 0.0
C796 C 0.36631 0.54041 0.94361 0.0
C797 C 0.36875 0.56618 0.95203 0.0
C798 C 0.40923 0.50605 0.9938 0.0
C799 C 0.34882 0.53447 0.92102 0.0
H800 H 0.40062 0.44226 0.91765 0.0
H801 H 0.33898 0.44124 0.97315 0.0
H802 H 0.40351 0.51092 0.90915 0.0
H803 H 0.42643 0.50023 0.93269 0.0
H804 H 0.42075 0.48091 0.90423 0.0
H805 H 0.32116 0.47947 0.99026 0.0
H806 H 0.34786 0.49943 0.00041 0.0
H807 H 0.32802 0.50965 0.97399 0.0
H808 H 0.40736 0.55718 0.00447 0.0
H809 H 0.35822 0.58145 0.94218 0.0
H810 H 0.42026 0.49345 0.98039 0.0
H811 H 0.39525 0.49355 0.00423 0.0
H812 H 0.42286 0.51446 0.00812 0.0
H813 H 0.35815 0.52064 0.90756 0.0
H814 H 0.34342 0.55225 0.91016 0.0
H815 H 0.33085 0.5252 0.92821 0.0
C816 C 0.46242 0.37016 0.96328 0.0
C817 C 0.44989 0.35336 0.94618 0.0
C818 C 0.48906 0.36856 0.96714 0.0
C819 C 0.50333 0.34925 0.95398 0.0
C820 C 0.49092 0.33272 0.93603 0.0
C821 C 0.4642 0.33515 0.93213 0.0
C822 C 0.50172 0.38692 0.98607 0.0
C823 C 0.50547 0.31163 0.92202 0.0
C824 C 0.57518 0.36026 0.95928 0.0
C825 C 0.58033 0.3474 0.98252 0.0
C826 C 0.55034 0.35958 0.94847 0.0
C827 C 0.53069 0.34528 0.96108 0.0
C828 C 0.53655 0.33041 0.98329 0.0
C829 C 0.5613 0.33193 0.99396 0.0
C830 C 0.54466 0.37574 0.92483 0.0
C831 C 0.51626 0.31437 -0.00312 0.0
H832 H 0.45129 0.38449 0.97382 0.0
H833 H 0.45436 0.32211 0.91895 0.0
H834 H 0.50861 0.37594 0.00318 0.0
H835 H 0.5188 0.39631 0.97711 0.0
H836 H 0.48829 0.40229 0.99279 0.0
H837 H 0.50931 0.29541 0.93558 0.0
H838 H 0.49431 0.30392 0.90536 0.0
H839 H 0.52442 0.31878 0.91499 0.0
H840 H 0.59008 0.37206 0.95041 0.0
H841 H 0.5656 0.32151 0.01166 0.0
H842 H 0.53321 0.39299 0.93055 0.0
H843 H 0.53295 0.36461 0.91072 0.0
H844 H 0.56263 0.3825 0.9152 0.0
H845 H 0.50249 0.32741 0.00692 0.0
H846 H 0.52485 0.30106 0.01143 0.0
H847 H 0.50507 0.30275 0.98274 0.0
C848 C 0.6585 0.44695 0.00304 0.0
C849 C 0.67155 0.42548 0.99293 0.0
C850 C 0.66304 0.47184 0.99349 0.0
C851 C 0.68123 0.47543 0.97336 0.0
C852 C 0.69526 0.45407 0.96364 0.0
C853 C 0.69016 0.42923 0.97349 0.0
C854 C 0.64791 0.49425 0.00474 0.0
C855 C 0.71492 0.45712 0.94233 0.0
C856 C 0.66212 0.53751 0.94194 0.0
C857 C 0.67493 0.55483 0.95833 0.0
C858 C 0.66681 0.51084 0.9439 0.0
C859 C 0.68459 0.50176 0.96262 0.0
C860 C 0.70055 0.51951 0.97595 0.0
C861 C 0.69535 0.54601 0.97381 0.0
C862 C 0.65034 0.49235 0.92845 0.0
C863 C 0.72075 0.51049 0.99497 0.0
H864 H 0.64431 0.44433 0.01821 0.0
H865 H 0.7005 0.41276 0.96565 0.0
H866 H 0.66135 0.50899 0.01269 0.0
H867 H 0.6363 0.50372 0.98938 0.0
H868 H 0.63462 0.48806 0.02041 0.0
H869 H 0.72972 0.4416 0.94314 0.0
H870 H 0.70499 0.4557 0.92338 0.0
H871 H 0.72485 0.47616 0.9432 0.0
H872 H 0.64678 0.54444 0.92944 0.0
H873 H 0.70595 0.55963 0.98575 0.0
H874 H 0.63473 0.48459 0.94096 0.0
H875 H 0.66201 0.47571 0.92156 0.0
H876 H 0.6413 0.50206 0.91155 0.0
H877 H 0.73456 0.52623 -0.00012 0.0
H878 H 0.73166 0.49374 0.98713 0.0
H879 H 0.71115 0.50406 0.01304 0.0
C880 C 0.55598 0.60329 -0.00295 0.0
C881 C 0.57749 0.61194 0.01107 0.0
C882 C 0.53089 0.60807 0.0059 0.0
C883 C 0.52729 0.62184 0.02928 0.0
C884 C 0.54881 0.62812 0.04486 0.0
C885 C 0.57374 0.62311 0.03556 0.0
C886 C 0.50829 0.60031 0.98908 0.0
C887 C 0.54588 0.64221 0.07021 0.0
C888 C 0.46766 0.66282 0.02254 0.0
C889 C 0.44911 0.64673 0.03394 0.0
C890 C 0.49388 0.65621 0.0233 0.0
C891 C 0.50143 0.63263 0.03513 0.0
C892 C 0.48313 0.61775 0.04895 0.0
C893 C 0.45708 0.62514 0.04839 0.0
C894 C 0.51313 0.67326 0.00942 0.0
C895 C 0.49058 0.59275 0.06214 0.0
H896 H 0.55869 0.59424 0.97835 0.0
H897 H 0.59021 0.62969 0.04675 0.0
H898 H 0.49307 0.59079 0.00082 0.0
H899 H 0.49967 0.61789 0.98021 0.0
H900 H 0.51413 0.5869 0.97334 0.0
H901 H 0.5617 0.63692 0.08371 0.0
H902 H 0.54696 0.66337 0.06662 0.0
H903 H 0.52712 0.63803 0.07967 0.0
H904 H 0.4615 0.67971 0.01167 0.0
H905 H 0.44274 0.61265 0.05725 0.0
H906 H 0.51942 0.66359 0.99133 0.0
H907 H 0.53054 0.67632 0.02157 0.0
H908 H 0.50482 0.69246 0.00435 0.0
H909 H 0.49339 0.57744 0.04735 0.0
H910 H 0.47545 0.58612 0.07584 0.0
H911 H 0.50909 0.59496 0.07276 0.0
C912 C 0.48712 0.87068 0.99439 0.0
C913 C 0.47166 0.88819 0.98062 0.0
C914 C 0.48091 0.86361 0.01968 0.0
C915 C 0.45876 0.87443 0.03157 0.0
C916 C 0.44253 0.89138 0.01757 0.0
C917 C 0.44921 0.89813 0.99221 0.0
C918 C 0.49875 0.84539 0.03404 0.0
C919 C 0.41866 0.90307 0.02957 0.0
C920 C 0.44628 0.8404 0.09468 0.0
C921 C 0.46236 0.855 0.11079 0.0
C922 C 0.44246 0.84799 0.0689 0.0
C923 C 0.45508 0.87052 0.05959 0.0
C924 C 0.46886 0.88674 0.07678 0.0
C925 C 0.47232 0.87872 0.10228 0.0
C926 C 0.42722 0.8306 0.05108 0.0
C927 C 0.48234 0.91106 0.06759 0.0
H928 H 0.50423 0.86254 0.98548 0.0
H929 H 0.43684 0.9113 0.98155 0.0
H930 H 0.50829 0.85591 0.05014 0.0
H931 H 0.4876 0.82915 0.0426 0.0
H932 H 0.51399 0.83716 0.02136 0.0
H933 H 0.40544 0.91128 0.01475 0.0
H934 H 0.40796 0.88844 0.04107 0.0
H935 H 0.42441 0.9189 0.04288 0.0
H936 H 0.43862 0.82206 0.1015 0.0
H937 H 0.48448 0.89005 0.11511 0.0
H938 H 0.4407 0.81969 0.03846 0.0
H939 H 0.41444 0.84224 0.03836 0.0
H940 H 0.41526 0.81642 0.06196 0.0
H941 H 0.4971 0.90608 0.05287 0.0
H942 H 0.49216 0.92155 0.08353 0.0
H943 H 0.4682 0.92429 0.05835 0.0
C944 C 0.13414 0.45269 0.02854 0.0
C945 C 0.1153 0.4681 0.04052 0.0
C946 C 0.14101 0.45674 0.00267 0.0
C947 C 0.12821 0.47621 0.9883 0.0
C948 C 0.10826 0.49096 -5e-05 0.0
C949 C 0.10235 0.48703 0.02611 0.0
C950 C 0.16292 0.44117 0.99124 0.0
C951 C 0.09369 0.51141 0.98498 0.0
C952 C 0.16009 0.50978 0.93155 0.0
C953 C 0.14856 0.49707 0.9106 0.0
C954 C 0.15462 0.50226 0.957 0.0
C955 C 0.13652 0.48216 0.9615 0.0
C956 C 0.12542 0.46875 0.94037 0.0
C957 C 0.13188 0.47615 0.91511 0.0
C958 C 0.16749 0.51645 0.97905 0.0
C959 C 0.10566 0.44759 0.94443 0.0
H960 H 0.14457 0.43835 0.03979 0.0
H961 H 0.08782 0.49895 0.03539 0.0
H962 H 0.15721 0.43278 0.97236 0.0
H963 H 0.17969 0.45411 0.9877 0.0
H964 H 0.16921 0.4252 0.0042 0.0
H965 H 0.07715 0.51939 -0.0039 0.0
H966 H 0.1069 0.52759 0.97998 0.0
H967 H 0.0863 0.50321 0.96658 0.0
H968 H 0.17304 0.52593 0.92801 0.0
H969 H 0.12268 0.46656 0.89889 0.0
H970 H 0.17593 0.50244 0.99298 0.0
H971 H 0.15291 0.52807 0.98964 0.0
H972 H 0.18302 0.52969 0.97229 0.0
H973 H 0.11333 0.43256 0.9577 0.0
H974 H 0.09989 0.43815 0.92602 0.0
H975 H 0.08815 0.4559 0.95362 0.0
C976 C 0.53713 0.08561 0.9069 0.0
C977 C 0.5218 0.10061 0.8903 0.0
C978 C 0.53013 0.08209 0.93277 0.0
C979 C 0.50783 0.09467 0.94232 0.0
C980 C 0.49153 0.10864 0.92537 0.0
C981 C 0.49854 0.11113 0.89941 0.0
C982 C 0.54745 0.06624 0.95015 0.0
C983 C 0.46779 0.12267 0.93499 0.0
C984 C 0.48067 0.07991 0.00848 0.0
C985 C 0.49221 0.09945 0.02336 0.0
C986 C 0.48618 0.07758 0.98211 0.0
C987 C 0.503 0.09568 0.97041 0.0
C988 C 0.51464 0.11551 0.98534 0.0
C989 C 0.50933 0.11695 0.0118 0.0
C990 C 0.47407 0.05579 0.96682 0.0
C991 C 0.53236 0.13545 0.97332 0.0
H992 H 0.55504 0.07727 0.89992 0.0
H993 H 0.48662 0.12282 0.88672 0.0
H994 H 0.55883 0.07941 0.96271 0.0
H995 H 0.53584 0.05347 0.9629 0.0
H996 H 0.56114 0.05408 0.93892 0.0
H997 H 0.45544 0.10946 0.94652 0.0
H998 H 0.47375 0.13881 0.94786 0.0
H999 H 0.45605 0.13082 0.91895 0.0
H1000 H 0.46771 0.06615 0.01757 0.0
H1001 H 0.51817 0.13208 0.02336 0.0
H1002 H 0.48931 0.04442 0.95687 0.0
H1003 H 0.46122 0.06383 0.95165 0.0
H1004 H 0.4626 0.04248 0.97918 0.0
H1005 H 0.53951 0.14982 0.98762 0.0
H1006 H 0.52203 0.14597 0.95771 0.0
H1007 H 0.54926 0.12574 0.96441 0.0
C1008 C 0.83116 0.54891 0.93122 0.0
C1009 C 0.85054 0.52998 0.92881 0.0
C1010 C 0.82444 0.55891 0.95546 0.0
C1011 C 0.83735 0.54958 0.97765 0.0
C1012 C 0.85756 0.53123 0.97521 0.0
C1013 C 0.86389 0.52166 0.95082 0.0
C1014 C 0.8028 0.57847 0.9571 0.0
C1015 C 0.87194 0.52091 -0.0015 0.0
C1016 C 0.84171 0.57725 0.04421 0.0
C1017 C 0.82726 0.55873 0.05777 0.0
C1018 C 0.84262 0.57673 0.0172 0.0
C1019 C 0.829 0.55712 0.00384 0.0
C1020 C 0.81168 0.54077 0.01726 0.0
C1021 C 0.81109 0.5417 0.04422 0.0
C1022 C 0.86015 0.59537 0.00318 0.0
C1023 C 0.79592 0.52044 0.00339 0.0
H1024 H 0.82066 0.55544 0.91428 0.0
H1025 H 0.87906 0.50728 0.94907 0.0
H1026 H 0.80414 0.59078 0.97462 0.0
H1027 H 0.80274 0.59124 0.93982 0.0
H1028 H 0.78404 0.56805 0.95755 0.0
H1029 H 0.8878 0.50745 0.99308 0.0
H1030 H 0.88034 0.53717 0.00975 0.0
H1031 H 0.85836 0.5104 0.01136 0.0
H1032 H 0.85375 0.59091 0.05465 0.0
H1033 H 0.79918 0.52798 0.05471 0.0
H1034 H 0.85092 0.6023 0.98509 0.0
H1035 H 0.87831 0.58527 -0.00217 0.0
H1036 H 0.86517 0.61237 0.01537 0.0
H1037 H 0.7862 0.52899 0.98628 0.0
H1038 H 0.78106 0.51163 0.01614 0.0
H1039 H 0.80889 0.5048 -0.00358 0.0
C1040 C 0.9599 0.50779 0.86368 0.0
C1041 C 0.93942 0.52068 0.85157 0.0
C1042 C 0.98519 0.51701 0.86151 0.0
C1043 C 0.99011 0.53949 0.84656 0.0
C1044 C 0.96944 0.55316 0.83502 0.0
C1045 C 0.94424 0.54357 0.83769 0.0
C1046 C 0.00677 0.50203 0.87435 0.0
C1047 C 0.97379 0.57702 0.81868 0.0
C1048 C 0.05866 0.56199 0.85647 0.0
C1049 C 0.07115 0.54638 0.83828 0.0
C1050 C 0.03158 0.56202 0.85799 0.0
C1051 C 0.0172 0.54629 0.84075 0.0
C1052 C 0.02981 0.53299 0.82052 0.0
C1053 C 0.05672 0.53302 0.81967 0.0
C1054 C 0.01855 0.577 0.87931 0.0
C1055 C 0.01504 0.51699 0.80103 0.0
H1056 H 0.95622 0.49035 0.87479 0.0
H1057 H 0.92843 0.55366 0.82831 0.0
H1058 H 0.01924 0.49308 0.85938 0.0
H1059 H 0.01905 0.51524 0.88599 0.0
H1060 H -0.00059 0.48639 0.88716 0.0
H1061 H 0.95666 0.58998 0.81908 0.0
H1062 H 0.99099 0.58818 0.82505 0.0
H1063 H 0.97689 0.57099 0.79835 0.0
H1064 H 0.06998 0.57261 0.87057 0.0
H1065 H 0.06656 0.52161 0.80508 0.0
H1066 H 0.01223 0.56335 0.89463 0.0
H1067 H 0.00108 0.58704 0.87191 0.0
H1068 H 0.03171 0.59156 0.8881 0.0
H1069 H -0.00168 0.52807 0.79342 0.0
H1070 H 0.00741 0.49928 0.81054 0.0
H1071 H 0.02738 0.51096 0.78453 0.0
C1072 C 0.55984 0.04229 0.80222 0.0
C1073 C 0.57598 0.06216 0.81106 0.0
C1074 C 0.5562 0.01987 0.81706 0.0
C1075 C 0.56833 0.01801 0.84155 0.0
C1076 C 0.58741 0.03627 0.84869 0.0
C1077 C 0.59164 0.05782 0.8328 0.0
C1078 C 0.53691 -6e-05 0.8079 0.0
C1079 C 0.60078 0.03494 0.87458 0.0
C1080 C 0.52116 0.98853 0.88883 0.0
C1081 C 0.53162 0.96377 0.89237 0.0
C1082 C 0.5339 0.00696 0.87362 0.0
C1083 C 0.55745 0.00025 0.86125 0.0
C1084 C 0.56914 0.97607 0.86649 0.0
C1085 C 0.5563 0.95831 0.88241 0.0
C1086 C 0.52091 0.03284 0.86943 0.0
C1087 C 0.59447 0.9679 0.85456 0.0
H1088 H 0.54802 0.04543 0.78519 0.0
H1089 H 0.60447 0.07301 0.83954 0.0
H1090 H 0.54116 0.98043 0.81589 0.0
H1091 H 0.51726 0.00569 0.81426 0.0
H1092 H 0.53672 -0.0012 0.78647 0.0
H1093 H 0.61507 0.0508 0.87722 0.0
H1094 H 0.58624 0.03619 0.8903 0.0
H1095 H 0.61094 0.01615 0.87665 0.0
H1096 H 0.50228 0.99308 0.89669 0.0
H1097 H 0.56483 0.93933 0.88527 0.0
H1098 H 0.50736 0.03129 0.85288 0.0
H1099 H 0.53501 0.0484 0.86507 0.0
H1100 H 0.50943 0.03855 0.88664 0.0
H1101 H 0.59991 0.97953 0.83739 0.0
H1102 H 0.59359 0.94719 0.84892 0.0
H1103 H 0.61 0.96968 0.86923 0.0
C1104 C 0.91214 0.48028 0.14103 0.0
C1105 C 0.90916 0.50352 0.12719 0.0
C1106 C 0.93633 0.46823 0.14298 0.0
C1107 C 0.95783 0.47949 0.13046 0.0
C1108 C 0.95465 0.50225 0.11544 0.0
C1109 C 0.93037 0.51413 0.11418 0.0
C1110 C 0.9391 0.44407 0.1592 0.0
C1111 C 0.97715 0.51466 0.10155 0.0
C1112 C 0.02627 0.47545 0.15445 0.0
C1113 C 0.03743 0.45935 0.13579 0.0
C1114 C -0.00031 0.48026 0.15439 0.0
C1115 C 0.98416 0.46914 0.13479 0.0
C1116 C 0.995 0.45109 0.11728 0.0
C1117 C 0.02166 0.4462 0.11815 0.0
C1118 C 0.98867 0.49901 0.1739 0.0
C1119 C 0.97906 0.43893 0.09609 0.0
H1120 H 0.8958 0.47208 0.15128 0.0
H1121 H 0.92807 0.53196 0.10332 0.0
H1122 H 0.94641 0.42787 0.14718 0.0
H1123 H 0.95343 0.44734 0.17483 0.0
H1124 H 0.9205 0.43814 0.16805 0.0
H1125 H 0.97098 0.53096 0.08893 0.0
H1126 H 0.99122 0.5222 0.11589 0.0
H1127 H 0.98734 0.50009 0.08954 0.0
H1128 H 0.03859 0.48543 0.1682 0.0
H1129 H 0.03043 0.43389 0.10361 0.0
H1130 H 0.97047 0.49132 0.18225 0.0
H1131 H 0.98401 0.51762 0.16419 0.0
H1132 H 0.00244 0.50304 0.18989 0.0
H1133 H 0.95992 0.43269 0.10343 0.0
H1134 H 0.98897 0.42195 0.08736 0.0
H1135 H 0.97565 0.45349 0.08067 0.0
C1136 C 0.5312 0.91523 0.16696 0.0
C1137 C 0.51318 0.90607 0.18502 0.0
C1138 C 0.5294 0.94041 0.15704 0.0
C1139 C 0.50972 0.95707 0.16616 0.0
C1140 C 0.49342 0.94893 0.18656 0.0
C1141 C 0.49508 0.92331 0.19552 0.0
C1142 C 0.54676 0.94811 0.13487 0.0
C1143 C 0.473 0.96659 0.19763 0.0
C1144 C 0.514 0.02711 0.14468 0.0
C1145 C 0.49561 0.02791 0.12473 0.0
C1146 C 0.51824 0.00439 0.15888 0.0
C1147 C 0.50446 0.98169 0.15234 0.0
C1148 C 0.48611 0.98224 0.13196 0.0
C1149 C 0.48159 0.00552 0.11867 0.0
C1150 C 0.53712 0.00483 0.18112 0.0
C1151 C 0.47073 0.9585 0.12452 0.0
H1152 H 0.54519 0.90201 0.15864 0.0
H1153 H 0.48126 0.91636 0.20965 0.0
H1154 H 0.53511 0.94927 0.11688 0.0
H1155 H 0.55531 0.96752 0.13824 0.0
H1156 H 0.56266 0.93399 0.13179 0.0
H1157 H 0.46578 0.9594 0.21653 0.0
H1158 H 0.48062 0.98654 0.20021 0.0
H1159 H 0.45641 0.96768 0.18408 0.0
H1160 H 0.52441 0.04459 0.14993 0.0
H1161 H 0.46708 0.00621 0.10356 0.0
H1162 H 0.55455 0.9934 0.17611 0.0
H1163 H 0.5284 0.99586 0.19856 0.0
H1164 H 0.54324 0.02485 0.18597 0.0
H1165 H 0.48285 0.94078 0.12513 0.0
H1166 H 0.4622 0.96036 0.1049 0.0
H1167 H 0.45471 0.95581 0.1385 0.0
C1168 C 0.83067 0.93031 0.42701 0.0
C1169 C 0.81878 0.92308 0.45028 0.0
C1170 C 0.83126 0.95632 0.41931 0.0
C1171 C 0.82008 0.97528 0.43551 0.0
C1172 C 0.80532 0.96769 0.45721 0.0
C1173 C 0.80487 0.94159 0.46438 0.0
C1174 C 0.84595 0.96384 0.39529 0.0
C1175 C 0.79241 0.98738 0.4745 0.0
C1176 C 0.85798 0.03525 0.45115 0.0
C1177 C 0.84249 0.05468 0.4404 0.0
C1178 C 0.85162 0.00917 0.4482 0.0
C1179 C 0.8292 0.00235 0.43403 0.0
C1180 C 0.81448 0.02173 0.42147 0.0
C1181 C 0.82131 0.04784 0.42486 0.0
C1182 C 0.86803 0.98905 0.46176 0.0
C1183 C 0.79067 0.01531 0.40588 0.0
H1184 H 0.84082 0.91595 0.41558 0.0
H1185 H 0.79483 0.93596 0.48188 0.0
H1186 H 0.83485 0.97834 0.38397 0.0
H1187 H 0.86459 0.97291 0.40082 0.0
H1188 H 0.8501 0.94682 0.38282 0.0
H1189 H 0.77877 0.97817 0.4883 0.0
H1190 H 0.80736 -0.00207 0.48574 0.0
H1191 H 0.7817 0.00185 0.4628 0.0
H1192 H 0.87467 0.04048 0.46273 0.0
H1193 H 0.8093 0.06284 0.4164 0.0
H1194 H 0.87428 0.9739 0.44792 0.0
H1195 H 0.8565 0.97938 0.47707 0.0
H1196 H 0.88552 -0.00241 0.47085 0.0
H1197 H 0.79148 0.9955 0.39758 0.0
H1198 H 0.78797 0.02949 0.38993 0.0
H1199 H 0.77343 0.01655 0.41855 0.0
C1200 C 0.00911 0.88627 0.58025 0.0
C1201 C 0.02434 0.86618 0.57029 0.0
C1202 C 0.9823 0.8866 0.57598 0.0
C1203 C 0.9707 0.86619 0.56181 0.0
C1204 C 0.98569 0.84449 0.55438 0.0
C1205 C 0.01243 0.84491 0.55844 0.0
C1206 C 0.96688 0.9099 0.58446 0.0
C1207 C 0.97391 0.82191 0.54 0.0
C1208 C 0.89848 0.85922 0.55091 0.0
C1209 C 0.8962 0.8683 0.52542 0.0
C1210 C 0.92241 0.85954 0.56372 0.0
C1211 C 0.94441 0.86934 0.55075 0.0
C1212 C 0.9418 0.87998 0.52563 0.0
C1213 C 0.91777 0.87916 0.51322 0.0
C1214 C 0.92435 0.8479 0.5904 0.0
C1215 C 0.96471 0.89102 0.51127 0.0
H1216 H 0.01838 0.90276 0.58937 0.0
H1217 H 0.02426 0.82924 0.55101 0.0
H1218 H 0.96273 0.92229 0.56742 0.0
H1219 H 0.94807 0.90388 0.5928 0.0
H1220 H 0.97749 0.92172 0.59894 0.0
H1221 H 0.98731 0.80513 0.53888 0.0
H1222 H 0.95577 0.81555 0.54949 0.0
H1223 H 0.96898 0.82801 0.52003 0.0
H1224 H 0.88187 0.85062 0.5604 0.0
H1225 H 0.91602 0.88643 0.49364 0.0
H1226 H 0.93819 0.85876 0.60267 0.0
H1227 H 0.93144 0.82767 0.58882 0.0
H1228 H 0.90526 0.84752 0.60017 0.0
H1229 H 0.97508 0.90528 0.52351 0.0
H1230 H 0.95896 0.9007 0.49296 0.0
H1231 H 0.97848 0.87522 0.50659 0.0
C1232 C 0.11785 0.9732 0.55026 0.0
C1233 C 0.09905 0.95661 0.53995 0.0
C1234 C 0.12195 -0.00213 0.53968 0.0
C1235 C 0.10634 0.00627 0.51882 0.0
C1236 C 0.08643 0.99008 0.50925 0.0
C1237 C 0.08328 0.96522 0.5197 0.0
C1238 C 0.14372 0.01442 0.55 0.0
C1239 C 0.06893 -0.00128 0.48753 0.0
C1240 C 0.10452 0.07817 0.50433 0.0
C1241 C 0.12045 0.07976 0.4825 0.0
C1242 C 0.09954 0.05431 0.51622 0.0
C1243 C 0.11136 0.03166 0.50642 0.0
C1244 C 0.12782 0.0332 0.4846 0.0
C1245 C 0.13187 0.05725 0.47263 0.0
C1246 C 0.08136 0.05329 0.53902 0.0
C1247 C 0.14124 0.00948 0.47403 0.0
H1248 H 0.1303 0.96635 0.56568 0.0
H1249 H 0.06872 0.95234 0.5118 0.0
H1250 H 0.15818 0.01777 0.53454 0.0
H1251 H 0.13631 0.03367 0.55599 0.0
H1252 H 0.1536 0.0053 0.56677 0.0
H1253 H 0.05307 0.98468 0.48383 0.0
H1254 H 0.06032 0.01788 0.49208 0.0
H1255 H 0.08032 0.00101 0.46953 0.0
H1256 H 0.09548 0.09558 0.5118 0.0
H1257 H 0.14434 0.05856 0.45586 0.0
H1258 H 0.09154 0.04546 0.55619 0.0
H1259 H 0.06505 0.03999 0.53474 0.0
H1260 H 0.07341 0.07266 0.54396 0.0
H1261 H 0.15279 5e-05 0.48948 0.0
H1262 H 0.15425 0.01418 0.45762 0.0
H1263 H 0.12671 0.99515 0.46736 0.0
C1264 C 0.03693 0.17016 0.44011 0.0
C1265 C 0.05482 0.15886 0.42325 0.0
C1266 C 0.01053 0.16997 0.43444 0.0
C1267 C 0.00185 0.15846 0.41114 0.0
C1268 C 0.01997 0.14934 0.39287 0.0
C1269 C 0.04632 0.14936 0.39927 0.0
C1270 C 0.99183 0.17983 0.4546 0.0
C1271 C 0.01143 0.13859 0.36713 0.0
C1272 C 0.94165 0.12203 0.4269 0.0
C1273 C 0.92283 0.14096 0.42243 0.0
C1274 C 0.96742 0.1265 0.4206 0.0
C1275 C 0.97444 0.15052 0.40939 0.0
C1276 C 0.95504 0.16835 0.40177 0.0
C1277 C 0.92919 0.16339 0.40854 0.0
C1278 C 0.98739 0.10664 0.42862 0.0
C1279 C 0.96185 0.1934 0.38836 0.0
H1280 H 0.04338 0.17812 0.45839 0.0
H1281 H 0.06013 0.14133 0.38573 0.0
H1282 H 0.97739 0.19298 0.44574 0.0
H1283 H 0.98118 0.16322 0.46314 0.0
H1284 H 0.00177 0.1904 0.47045 0.0
H1285 H 0.02791 0.13124 0.35552 0.0
H1286 H -0.00264 0.1226 0.36989 0.0
H1287 H 0.00151 0.15404 0.35597 0.0
H1288 H 0.93645 0.10436 0.43703 0.0
H1289 H 0.91443 0.17782 0.40473 0.0
H1290 H -0.00069 0.11453 0.44462 0.0
H1291 H 0.00052 0.1022 0.4123 0.0
H1292 H 0.97844 0.08822 0.43527 0.0
H1293 H 0.97574 0.1897 0.37247 0.0
H1294 H 0.97138 0.20676 0.4022 0.0
H1295 H 0.9445 0.20321 0.38035 0.0
C1296 C 0.11313 0.18003 0.34968 0.0
C1297 C 0.12769 0.19695 0.36526 0.0
C1298 C 0.09136 0.18882 0.33609 0.0
C1299 C 0.08424 0.21522 0.33773 0.0
C1300 C 0.10054 0.23291 0.3509 0.0
C1301 C 0.12203 0.22354 0.36464 0.0
C1302 C 0.0744 0.16935 0.32243 0.0
C1303 C 0.09396 0.26137 0.35254 0.0
C1304 C 0.02784 0.24444 0.3005 0.0
C1305 C 0.00882 0.24524 0.31983 0.0
C1306 C 0.05225 0.23351 0.30547 0.0
C1307 C 0.05764 0.22331 0.33031 0.0
C1308 C 0.0378 0.22237 0.34913 0.0
C1309 C 0.0136 0.23301 0.34352 0.0
C1310 C 0.07282 0.23496 0.28489 0.0
C1311 C 0.04269 0.21255 0.37617 0.0
H1312 H 0.11738 0.15946 0.34975 0.0
H1313 H 0.13329 0.23685 0.37631 0.0
H1314 H 0.05661 0.16618 0.33397 0.0
H1315 H 0.0684 0.17679 0.30323 0.0
H1316 H 0.08425 0.15039 0.31985 0.0
H1317 H 0.07749 0.26407 0.366 0.0
H1318 H 0.11051 0.27308 0.35968 0.0
H1319 H 0.08795 0.2689 0.33338 0.0
H1320 H 0.02444 0.25414 0.28223 0.0
H1321 H -0.00098 0.23365 0.35856 0.0
H1322 H 0.08471 0.21707 0.28457 0.0
H1323 H 0.0859 0.25147 0.28915 0.0
H1324 H 0.06433 0.23804 0.26541 0.0
H1325 H 0.05581 0.19563 0.37609 0.0
H1326 H 0.02443 0.20717 0.38608 0.0
H1327 H 0.05213 0.22808 0.38763 0.0
C1328 C 0.74191 0.14833 0.4318 0.0
C1329 C 0.75345 0.13719 0.45357 0.0
C1330 C 0.72139 0.13593 0.41929 0.0
C1331 C 0.71277 0.11166 0.42866 0.0
C1332 C 0.72229 0.10202 0.45248 0.0
C1333 C 0.74268 0.11504 0.46477 0.0
C1334 C 0.71146 0.14709 0.39421 0.0
C1335 C 0.71343 0.0763 0.46321 0.0
C1336 C 0.6588 0.07595 0.394 0.0
C1337 C 0.67291 0.05962 0.37749 0.0
C1338 C 0.67139 0.09326 0.4107 0.0
C1339 C 0.69868 0.09408 0.41095 0.0
C1340 C 0.71302 0.07803 0.39401 0.0
C1341 C 0.69995 0.06111 0.37742 0.0
C1342 C 0.65557 0.11017 0.42847 0.0
C1343 C 0.74225 0.07827 0.39375 0.0
H1344 H 0.75053 0.16545 0.42318 0.0
H1345 H 0.75195 0.10636 0.48147 0.0
H1346 H 0.72067 0.13678 0.37781 0.0
H1347 H 0.69026 0.14443 0.39246 0.0
H1348 H 0.71602 0.16807 0.39245 0.0
H1349 H 0.71843 0.07425 0.48399 0.0
H1350 H 0.69226 0.07387 0.46087 0.0
H1351 H 0.72302 0.06039 0.45243 0.0
H1352 H 0.63788 0.07492 0.39424 0.0
H1353 H 0.71106 0.0485 0.36489 0.0
H1354 H 0.66158 0.13073 0.42664 0.0
H1355 H 0.659 0.10433 0.44881 0.0
H1356 H 0.63453 0.10874 0.4244 0.0
H1357 H 0.75041 0.06488 0.37907 0.0
H1358 H 0.74978 0.07252 0.413 0.0
H1359 H 0.74943 0.09812 0.38966 0.0
C1360 C 0.969 0.70193 0.39829 0.0
C1361 C 0.9751 0.67881 0.41111 0.0
C1362 C 0.94978 0.71852 0.40789 0.0
C1363 C 0.93662 0.71191 0.43097 0.0
C1364 C 0.94327 0.68901 0.44442 0.0
C1365 C 0.96235 0.67269 0.43428 0.0
C1366 C 0.94324 0.74291 0.39311 0.0
C1367 C 0.93003 0.68157 0.46936 0.0
C1368 C 0.90335 0.76724 0.46544 0.0
C1369 C 0.87775 0.76459 0.45682 0.0
C1370 C 0.92254 0.74974 0.45784 0.0
C1371 C 0.91601 0.72912 0.44109 0.0
C1372 C 0.88999 0.7256 0.43324 0.0
C1373 C 0.87108 0.74337 0.44131 0.0
C1374 C 0.94998 0.75392 0.46696 0.0
C1375 C 0.88236 0.70369 0.41548 0.0
H1376 H 0.97871 0.70671 0.38036 0.0
H1377 H 0.96717 0.65497 0.44447 0.0
H1378 H 0.92263 0.74248 0.38718 0.0
H1379 H 0.94591 0.76012 0.40568 0.0
H1380 H 0.95537 0.74533 0.37558 0.0
H1381 H 0.93812 0.66354 0.47788 0.0
H1382 H 0.93194 0.69743 0.4837 0.0
H1383 H 0.90908 0.67865 0.46585 0.0
H1384 H 0.90857 0.78345 0.47773 0.0
H1385 H 0.85135 0.74127 0.43457 0.0
H1386 H 0.96246 0.75884 0.45024 0.0
H1387 H 0.95776 0.73587 0.47566 0.0
H1388 H 0.95147 0.76977 0.48141 0.0
H1389 H 0.89202 0.70616 0.3965 0.0
H1390 H 0.86114 0.70281 0.41228 0.0
H1391 H 0.88888 0.68488 0.42357 0.0
C1392 C 0.2592 0.88649 0.39685 0.0
C1393 C 0.26189 0.91111 0.38583 0.0
C1394 C 0.24037 0.8817 0.41562 0.0
C1395 C 0.22442 0.90229 0.42406 0.0
C1396 C 0.22653 0.92706 0.41239 0.0
C1397 C 0.24515 0.93111 0.39307 0.0
C1398 C 0.23827 0.85485 0.42711 0.0
C1399 C 0.21014 0.94956 0.42126 0.0
C1400 C 0.16488 0.88289 0.4618 0.0
C1401 C 0.174 0.88401 0.48731 0.0
C1402 C 0.18086 0.88948 0.441 0.0
C1403 C 0.2064 0.8979 0.44588 0.0
C1404 C 0.21541 0.90006 0.47166 0.0
C1405 C 0.19918 0.89275 0.4921 0.0
C1406 C 0.17078 0.8864 0.41378 0.0
C1407 C 0.24241 0.90948 0.4776 0.0
H1408 H 0.27232 0.87111 0.39118 0.0
H1409 H 0.24767 0.95026 0.38477 0.0
H1410 H 0.24421 0.85534 0.4477 0.0
H1411 H 0.21794 0.84804 0.42645 0.0
H1412 H 0.25059 0.84055 0.41684 0.0
H1413 H 0.21292 0.96705 0.40904 0.0
H1414 H 0.18938 0.9442 0.42103 0.0
H1415 H 0.21521 0.95454 0.4415 0.0
H1416 H 0.14544 0.876 0.45801 0.0
H1417 H 0.20616 0.89393 0.51182 0.0
H1418 H 0.18184 0.87098 0.40374 0.0
H1419 H 0.17356 0.90459 0.40269 0.0
H1420 H 0.14995 0.88118 0.41333 0.0
H1421 H 0.25673 0.89515 0.47054 0.0
H1422 H 0.24555 0.91242 0.49863 0.0
H1423 H 0.24624 0.92802 0.46742 0.0
C1424 C 0.10767 0.78587 0.62103 0.0
C1425 C 0.11121 0.81081 0.63118 0.0
C1426 C 0.09275 0.76738 0.63424 0.0
C1427 C 0.08172 0.77383 0.65845 0.0
C1428 C 0.08747 0.79807 0.66991 0.0
C1429 C 0.10182 0.81645 0.65595 0.0
C1430 C 0.08677 0.74194 0.62111 0.0
C1431 C 0.07685 0.80537 0.69606 0.0
C1432 C 0.01583 0.74478 0.67227 0.0
C1433 C 0.02216 0.72318 0.68741 0.0
C1434 C 0.03506 0.76152 0.66304 0.0
C1435 C 0.06124 0.75699 0.66973 0.0
C1436 C 0.06762 0.73593 0.68609 0.0
C1437 C 0.04802 0.71898 0.69441 0.0
C1438 C 0.02741 0.78347 0.64525 0.0
C1439 C 0.09515 0.73094 0.69433 0.0
H1440 H 0.11467 0.7815 0.60178 0.0
H1441 H 0.10465 0.83569 0.66391 0.0
H1442 H 0.08954 0.72551 0.63464 0.0
H1443 H 0.06621 0.74179 0.61496 0.0
H1444 H 0.09904 0.73871 0.6038 0.0
H1445 H 0.08686 0.82257 0.70425 0.0
H1446 H 0.05599 0.80999 0.69425 0.0
H1447 H 0.07871 0.78897 0.70982 0.0
H1448 H -0.00411 0.74792 0.66659 0.0
H1449 H 0.05293 0.70234 0.70626 0.0
H1450 H 0.03721 0.78121 0.62632 0.0
H1451 H 0.03369 0.80229 0.6535 0.0
H1452 H 0.00621 0.78427 0.64188 0.0
H1453 H 0.10663 0.72439 0.67748 0.0
H1454 H 0.09642 0.71589 0.70965 0.0
H1455 H 0.10416 0.74907 0.70158 0.0
C1456 C 0.29209 0.10628 0.57552 0.0
C1457 C 0.29578 0.11387 0.60125 0.0
C1458 C 0.27251 0.11724 0.56037 0.0
C1459 C 0.25664 0.13688 0.57097 0.0
C1460 C 0.26028 0.1447 0.59699 0.0
C1461 C 0.27961 0.13276 0.61201 0.0
C1462 C 0.26883 0.10774 0.533 0.0
C1463 C 0.24413 0.16601 0.60872 0.0
C1464 C 0.22469 0.17757 0.51886 0.0
C1465 C 0.20009 0.16627 0.51753 0.0
C1466 C 0.24275 0.16942 0.53746 0.0
C1467 C 0.2363 0.14896 0.55456 0.0
C1468 C 0.21118 0.1381 0.55385 0.0
C1469 C 0.19328 0.14713 0.53557 0.0
C1470 C 0.26911 0.18195 0.53805 0.0
C1471 C 0.20373 0.11576 0.57119 0.0
H1472 H 0.30443 0.09144 0.56727 0.0
H1473 H 0.2826 0.13874 0.63186 0.0
H1474 H 0.24863 0.1011 0.53015 0.0
H1475 H 0.27231 0.12382 0.51919 0.0
H1476 H 0.28207 0.09151 0.52811 0.0
H1477 H 0.2494 0.16987 0.62917 0.0
H1478 H 0.24664 0.18414 0.59744 0.0
H1479 H 0.22335 0.16081 0.60782 0.0
H1480 H 0.22996 0.19249 0.50508 0.0
H1481 H 0.17437 0.13814 0.53449 0.0
H1482 H 0.28374 0.16812 0.53063 0.0
H1483 H 0.2746 0.18691 0.55818 0.0
H1484 H 0.26987 0.19982 0.52609 0.0
H1485 H 0.21502 0.09832 0.56574 0.0
H1486 H 0.18284 0.111 0.5698 0.0
H1487 H 0.20843 0.12025 0.59161 0.0
C1488 C 0.92005 0.17585 0.54801 0.0
C1489 C 0.89744 0.18694 0.53778 0.0
C1490 C 0.93626 0.18998 0.56457 0.0
C1491 C 0.92991 0.2159 0.57068 0.0
C1492 C 0.90724 0.22725 0.5603 0.0
C1493 C 0.89122 0.2126 0.54408 0.0
C1494 C 0.9599 0.17708 0.57586 0.0
C1495 C 0.89976 0.25487 0.56649 0.0
C1496 C 0.95202 0.25479 0.62825 0.0
C1497 C 0.97028 0.27106 0.61672 0.0
C1498 C 0.94067 0.23456 0.61413 0.0
C1499 C 0.94691 0.23161 0.58765 0.0
C1500 C 0.96674 0.2469 0.57654 0.0
C1501 C 0.9785 0.26626 0.59144 0.0
C1502 C 0.92036 0.21796 0.62692 0.0
C1503 C 0.97347 0.24496 0.54822 0.0
H1504 H 0.92486 0.15591 0.54348 0.0
H1505 H 0.87383 0.22131 0.53626 0.0
H1506 H 0.97755 0.18794 0.57031 0.0
H1507 H 0.9588 0.17737 0.59727 0.0
H1508 H 0.962 0.15667 0.56936 0.0
H1509 H 0.88254 0.26132 0.5554 0.0
H1510 H 0.89532 0.25664 0.58736 0.0
H1511 H 0.91608 0.26818 0.56233 0.0
H1512 H 0.94551 0.25887 0.64774 0.0
H1513 H 0.99225 0.27936 0.58249 0.0
H1514 H 0.92215 0.19744 0.62075 0.0
H1515 H 0.90088 0.22483 0.62114 0.0
H1516 H 0.92173 0.21889 0.64833 0.0
H1517 H 0.95758 0.25352 0.5366 0.0
H1518 H 0.97555 0.22444 0.54222 0.0
H1519 H 0.99163 0.25547 0.54353 0.0
C1520 C 0.67383 0.88728 0.62056 0.0
C1521 C 0.69299 0.90027 0.63486 0.0
C1522 C 0.68017 0.87267 0.59859 0.0
C1523 C 0.70629 0.87081 0.59087 0.0
C1524 C 0.72588 0.88201 0.60645 0.0
C1525 C 0.71899 0.89667 0.62821 0.0
C1526 C 0.65869 0.86095 0.58266 0.0
C1527 C 0.75405 0.88025 0.59901 0.0
C1528 C 0.73338 0.82643 0.53926 0.0
C1529 C 0.73784 0.84425 0.51925 0.0
C1530 C 0.72111 0.8342 0.5622 0.0
C1531 C 0.71314 0.86029 0.56501 0.0
C1532 C 0.71499 0.87749 0.54376 0.0
C1533 C 0.72716 0.86918 0.52105 0.0
C1534 C 0.71898 0.81516 0.58423 0.0
C1535 C 0.70623 0.90536 0.54579 0.0
H1536 H 0.65364 0.88984 0.62546 0.0
H1537 H 0.73394 0.90645 0.63919 0.0
H1538 H 0.65463 0.87371 0.56588 0.0
H1539 H 0.66428 0.84165 0.57506 0.0
H1540 H 0.64059 0.85891 0.59401 0.0
H1541 H 0.76701 0.8877 0.61444 0.0
H1542 H 0.75941 0.85988 0.59473 0.0
H1543 H 0.75745 0.89176 0.5812 0.0
H1544 H 0.74158 0.80713 0.53808 0.0
H1545 H 0.73029 0.88291 0.50548 0.0
H1546 H 0.70012 0.81713 0.59421 0.0
H1547 H 0.73439 0.81923 0.59859 0.0
H1548 H 0.7212 0.79482 0.57753 0.0
H1549 H 0.68536 0.90612 0.5506 0.0
H1550 H 0.70953 0.91632 0.52764 0.0
H1551 H 0.71685 0.91531 0.56157 0.0
C1552 C 0.39163 0.05349 0.15876 0.0
C1553 C 0.40239 0.07673 0.16812 0.0
C1554 C 0.38023 0.03543 0.17543 0.0
C1555 C 0.37908 0.04085 0.20213 0.0
C1556 C 0.38826 0.06497 0.21156 0.0
C1557 C 0.39999 0.08259 0.19445 0.0
C1558 C 0.37096 0.00985 0.16463 0.0
C1559 C 0.38688 0.0716 0.23992 0.0
C1560 C 0.33715 0.0001 0.24671 0.0
C1561 C 0.35585 0.98487 0.25908 0.0
C1562 C 0.34426 0.01807 0.22758 0.0
C1563 C 0.37058 0.02037 0.22045 0.0
C1564 C 0.3892 0.00363 0.2316 0.0
C1565 C 0.38163 0.98626 0.25097 0.0
C1566 C 0.32392 0.0357 0.21626 0.0
C1567 C 0.41735 0.00494 0.22398 0.0
H1568 H 0.39318 0.04868 0.13844 0.0
H1569 H 0.40807 0.10048 0.20188 0.0
H1570 H 0.35129 0.00527 0.17179 0.0
H1571 H 0.37064 0.00976 0.14317 0.0
H1572 H 0.38397 0.9941 0.17129 0.0
H1573 H 0.39217 0.09213 0.24373 0.0
H1574 H 0.36712 0.06804 0.24743 0.0
H1575 H 0.40029 0.05893 0.2509 0.0
H1576 H 0.31728 -0.00063 0.25333 0.0
H1577 H 0.39609 0.97451 0.26064 0.0
H1578 H 0.32518 0.03595 0.19487 0.0
H1579 H 0.32728 0.05583 0.22306 0.0
H1580 H 0.30407 0.02979 0.22193 0.0
H1581 H 0.41934 0.00278 0.20275 0.0
H1582 H 0.42908 0.98968 0.23358 0.0
H1583 H 0.42545 0.02414 0.22926 0.0
C1584 C 0.91622 0.3822 0.23983 0.0
C1585 C 0.92188 0.38574 0.26605 0.0
C1586 C 0.90108 0.40033 0.22634 0.0
C1587 C 0.89088 0.42208 0.23969 0.0
C1588 C 0.89605 0.4253 0.26631 0.0
C1589 C 0.91181 0.40739 0.27901 0.0
C1590 C 0.89607 0.39553 0.19802 0.0
C1591 C 0.88449 0.4474 0.28161 0.0
C1592 C 0.87139 0.48543 0.20847 0.0
C1593 C 0.84479 0.48186 0.20519 0.0
C1594 C 0.8869 0.46552 0.2183 0.0
C1595 C 0.87521 0.44199 0.22619 0.0
C1596 C 0.84825 0.43835 0.2229 0.0
C1597 C 0.83339 0.45822 0.21183 0.0
C1598 C 0.91569 0.46998 0.22033 0.0
C1599 C 0.83516 0.41358 0.23124 0.0
H1600 H 0.92375 0.36538 0.22979 0.0
H1601 H 0.9156 0.40999 0.29945 0.0
H1602 H 0.88402 0.37784 0.19593 0.0
H1603 H 0.88614 0.4118 0.18816 0.0
H1604 H 0.91463 0.39165 0.18797 0.0
H1605 H 0.88802 0.44541 0.30269 0.0
H1606 H 0.89292 0.46605 0.27512 0.0
H1607 H 0.86331 0.4484 0.27828 0.0
H1608 H 0.88023 0.50353 0.20245 0.0
H1609 H 0.81286 0.45545 0.20863 0.0
H1610 H 0.92673 0.45176 0.21761 0.0
H1611 H 0.92033 0.47775 0.23976 0.0
H1612 H 0.92239 0.48438 0.20582 0.0
H1613 H 0.84284 0.3971 0.21983 0.0
H1614 H 0.81386 0.41438 0.2286 0.0
H1615 H 0.83943 0.40963 0.25189 0.0
C1616 C 0.62994 0.92756 0.25648 0.0
C1617 C 0.64989 0.92455 0.27444 0.0
C1618 C 0.62047 0.906 0.24298 0.0
C1619 C 0.63141 0.88124 0.24773 0.0
C1620 C 0.65373 0.8789 0.26325 0.0
C1621 C 0.66279 0.90072 0.27642 0.0
C1622 C 0.597 0.90927 0.22592 0.0
C1623 C 0.66619 0.85295 0.26846 0.0
C1624 C 0.57966 0.82984 0.24644 0.0
C1625 C 0.58204 0.82079 0.2211 0.0
C1626 C 0.59701 0.84829 0.25611 0.0
C1627 C 0.61701 0.85776 0.23994 0.0
C1628 C 0.62115 0.84657 0.21543 0.0
C1629 C 0.60365 0.82804 0.20634 0.0
C1630 C 0.59242 0.85935 0.28273 0.0
C1631 C 0.64246 0.85586 0.19779 0.0
H1632 H 0.62001 0.94601 0.25499 0.0
H1633 H 0.67849 0.89859 0.29018 0.0
H1634 H 0.5994 0.89838 0.2076 0.0
H1635 H 0.57977 0.9013 0.23592 0.0
H1636 H 0.59323 0.92996 0.22128 0.0
H1637 H 0.6861 0.85516 0.2762 0.0
H1638 H 0.65451 0.84227 0.28295 0.0
H1639 H 0.66692 0.84096 0.2507 0.0
H1640 H 0.56306 0.82424 0.25795 0.0
H1641 H 0.60582 0.82071 0.18682 0.0
H1642 H 0.58388 0.87901 0.28092 0.0
H1643 H 0.61086 0.86126 0.2935 0.0
H1644 H 0.57902 0.8471 0.29421 0.0
H1645 H 0.63651 0.8744 0.18867 0.0
H1646 H 0.64652 0.84165 0.18218 0.0
H1647 H 0.66054 0.85955 0.20869 0.0
C1648 C 0.09953 0.61515 0.29212 0.0
C1649 C 0.09766 0.60179 0.31565 0.0
C1650 C 0.10646 0.60207 0.26926 0.0
C1651 C 0.11069 0.5749 0.26984 0.0
C1652 C 0.10923 0.56147 0.29362 0.0
C1653 C 0.10316 0.57511 0.3162 0.0
C1654 C 0.10862 0.61717 0.24438 0.0
C1655 C 0.11282 0.53242 0.29508 0.0
C1656 C 0.09894 0.53462 0.20945 0.0
C1657 C 0.12417 0.52776 0.20241 0.0
C1658 C 0.09429 0.55028 0.23115 0.0
C1659 C 0.11543 0.56005 0.2456 0.0
C1660 C 0.14099 0.55388 0.23801 0.0
C1661 C 0.14504 0.53742 0.21676 0.0
C1662 C 0.06672 0.55567 0.23907 0.0
C1663 C 0.16404 0.56448 0.25245 0.0
H1664 H 0.09525 0.63571 0.29153 0.0
H1665 H 0.10136 0.56443 0.33415 0.0
H1666 H 0.1271 0.61258 0.23454 0.0
H1667 H 0.09274 0.61153 0.23113 0.0
H1668 H 0.10758 0.63844 0.24763 0.0
H1669 H 0.11121 0.52493 0.31514 0.0
H1670 H 0.09801 0.52265 0.28299 0.0
H1671 H 0.13201 0.52691 0.28732 0.0
H1672 H 0.08279 0.52712 0.19837 0.0
H1673 H 0.16458 0.53247 0.21108 0.0
H1674 H 0.06327 0.57686 0.23996 0.0
H1675 H 0.06319 0.54776 0.2587 0.0
H1676 H 0.05248 0.54694 0.22555 0.0
H1677 H 0.18257 0.55989 0.24264 0.0
H1678 H 0.16462 0.55622 0.27223 0.0
H1679 H 0.16237 0.58584 0.25444 0.0
C1680 C 0.43175 0.96981 0.82747 0.0
C1681 C 0.43393 0.94311 0.82241 0.0
C1682 C 0.42032 0.98669 0.80959 0.0
C1683 C 0.41081 0.97669 0.78604 0.0
C1684 C 0.41296 0.94982 0.78071 0.0
C1685 C 0.42456 0.93334 0.79895 0.0
C1686 C 0.41866 0.01525 0.81582 0.0
C1687 C 0.40315 0.93851 0.75564 0.0
C1688 C 0.3629 0.0138 0.74433 0.0
C1689 C 0.37912 0.02252 0.72455 0.0
C1690 C 0.37308 -0.00034 0.76524 0.0
C1691 C 0.39999 0.99448 0.76623 0.0
C1692 C 0.41655 0.00497 0.7472 0.0
C1693 C 0.40588 0.01877 0.72655 0.0
C1694 C 0.35491 0.9889 0.78534 0.0
C1695 C 0.44538 0.00027 0.74772 0.0
H1696 H 0.43902 0.97766 0.84549 0.0
H1697 H 0.42603 0.91278 0.79491 0.0
H1698 H 0.39831 0.0219 0.81455 0.0
H1699 H 0.42617 0.01979 0.83541 0.0
H1700 H 0.42989 0.02656 0.80146 0.0
H1701 H 0.40546 0.91712 0.75484 0.0
H1702 H 0.38241 0.94329 0.75305 0.0
H1703 H 0.41378 0.94719 0.73916 0.0
H1704 H 0.3422 0.01652 0.74258 0.0
H1705 H 0.4184 0.02567 0.71121 0.0
H1706 H 0.36214 0.99326 0.80505 0.0
H1707 H 0.35395 0.96749 0.78346 0.0
H1708 H 0.33506 0.99685 0.78332 0.0
H1709 H 0.45573 0.01177 0.73281 0.0
H1710 H 0.44933 0.97942 0.74426 0.0
H1711 H 0.45346 0.0052 0.76695 0.0
C1712 C 0.06276 0.43919 0.64853 0.0
C1713 C 0.06022 0.41361 0.65759 0.0
C1714 C 0.07719 0.45756 0.66228 0.0
C1715 C 0.08928 0.45016 0.68562 0.0
C1716 C 0.08774 0.42416 0.6943 0.0
C1717 C 0.07322 0.40619 0.68016 0.0
C1718 C 0.07849 0.4851 0.65246 0.0
C1719 C 0.10046 0.41558 0.71916 0.0
C1720 C 0.14033 0.48858 0.72112 0.0
C1721 C 0.12579 0.49801 0.74189 0.0
C1722 C 0.12838 0.47439 0.70132 0.0
C1723 C 0.10141 0.46986 0.70248 0.0
C1724 C 0.08641 0.48154 0.7221 0.0
C1725 C 0.09883 0.49544 0.74164 0.0
C1726 C 0.14487 0.46247 0.68043 0.0
C1727 C 0.05752 0.47754 0.72376 0.0
H1728 H 0.05292 0.44512 0.63101 0.0
H1729 H 0.07155 0.38647 0.68722 0.0
H1730 H 0.06643 0.49774 0.6649 0.0
H1731 H 0.09858 0.49256 0.65338 0.0
H1732 H 0.07139 0.48679 0.63227 0.0
H1733 H 0.09896 0.39431 0.72221 0.0
H1734 H 0.12119 0.42107 0.71918 0.0
H1735 H 0.09119 0.42551 0.73575 0.0
H1736 H 0.16118 0.49063 0.72131 0.0
H1737 H 0.08755 0.50316 0.75753 0.0
H1738 H 0.13553 0.46459 0.66125 0.0
H1739 H 0.14709 0.44142 0.68424 0.0
H1740 H 0.16441 0.47136 0.67968 0.0
H1741 H 0.04828 0.48108 0.70475 0.0
H1742 H 0.04841 0.49046 0.73831 0.0
H1743 H 0.05343 0.45714 0.72923 0.0
C1744 C 0.67196 0.04674 0.74206 0.0
C1745 C 0.68796 0.04881 0.72039 0.0
C1746 C 0.66459 0.06895 0.75582 0.0
C1747 C 0.67404 0.09355 0.74798 0.0
C1748 C 0.69232 0.09529 0.72778 0.0
C1749 C 0.6988 0.07288 0.71394 0.0
C1750 C 0.64486 0.06632 0.77718 0.0
C1751 C 0.70346 0.121 0.71943 0.0
C1752 C 0.62487 0.14617 0.75999 0.0
C1753 C 0.63208 0.15441 0.78473 0.0
C1754 C 0.63948 0.12747 0.7469 0.0
C1755 C 0.66209 0.11737 0.75865 0.0
C1756 C 0.67106 0.12797 0.78218 0.0
C1757 C 0.65579 0.14626 0.7951 0.0
C1758 C 0.62923 0.11665 0.72178 0.0
C1759 C 0.69551 0.11834 0.79488 0.0
H1760 H 0.6634 0.02816 0.74683 0.0
H1761 H 0.71127 0.07438 0.69718 0.0
H1762 H 0.6514 0.07673 0.79475 0.0
H1763 H 0.62636 0.07525 0.77096 0.0
H1764 H 0.64111 0.04574 0.78233 0.0
H1765 H 0.72099 0.11848 0.70731 0.0
H1766 H 0.68885 0.13175 0.70796 0.0
H1767 H 0.70848 0.1331 0.73643 0.0
H1768 H 0.60648 0.15229 0.75198 0.0
H1769 H 0.66147 0.15276 0.81421 0.0
H1770 H 0.62245 0.09647 0.7249 0.0
H1771 H 0.64472 0.11601 0.70701 0.0
H1772 H 0.61286 0.12824 0.71405 0.0
H1773 H 0.69169 0.09938 0.80426 0.0
H1774 H 0.70256 0.13203 0.80988 0.0
H1775 H 0.711 0.11536 0.78038 0.0
C1776 C 0.88208 0.62419 0.74053 0.0
C1777 C 0.88252 0.63246 0.71478 0.0
C1778 C 0.87068 0.60048 0.74733 0.0
C1779 C 0.85975 0.58456 0.72783 0.0
C1780 C 0.85877 0.59346 0.70206 0.0
C1781 C 0.86991 0.61745 0.69588 0.0
C1782 C 0.87188 0.59173 0.77517 0.0
C1783 C 0.84742 0.57693 0.68082 0.0
C1784 C 0.86705 0.51577 0.74984 0.0
C1785 C 0.84392 0.51265 0.76344 0.0
C1786 C 0.87147 0.53818 0.73527 0.0
C1787 C 0.85212 0.55759 0.73431 0.0
C1788 C 0.82726 0.55239 0.74445 0.0
C1789 C 0.82336 0.52967 0.75885 0.0
C1790 C 0.89815 0.54268 0.72443 0.0
C1791 C 0.80598 0.57236 0.74355 0.0
H1792 H 0.89165 0.63568 0.75523 0.0
H1793 H 0.87012 0.62361 0.67586 0.0
H1794 H 0.85252 0.58533 0.78181 0.0
H1795 H 0.88514 0.57491 0.77692 0.0
H1796 H 0.87886 0.60731 0.78825 0.0
H1797 H 0.84819 0.58666 0.66168 0.0
H1798 H 0.85809 0.55832 0.67953 0.0
H1799 H 0.82702 0.57216 0.68532 0.0
H1800 H 0.88293 0.50252 0.75352 0.0
H1801 H 0.80551 0.5273 0.76958 0.0
H1802 H 0.90949 0.55463 0.7382 0.0
H1803 H 0.89714 0.55335 0.70592 0.0
H1804 H 0.90867 0.52418 0.72134 0.0
H1805 H 0.80893 0.58653 0.75941 0.0
H1806 H 0.78669 0.56327 0.74617 0.0
H1807 H 0.80615 0.58319 0.72504 0.0
C1808 C 0.19542 0.38615 0.08724 0.0
C1809 C 0.19877 0.41144 0.09658 0.0
C1810 C 0.21269 0.37552 0.06929 0.0
C1811 C 0.23343 0.3908 0.06004 0.0
C1812 C 0.23704 0.41628 0.06959 0.0
C1813 C 0.21981 0.4262 0.08801 0.0
C1814 C 0.20861 0.34806 0.06004 0.0
C1815 C 0.25872 0.4333 0.05986 0.0
C1816 C 0.29256 0.35885 0.0313 0.0
C1817 C 0.28796 0.36143 0.00473 0.0
C1818 C 0.2746 0.36767 0.04946 0.0
C1819 C 0.25174 0.37993 0.04084 0.0
C1820 C 0.24676 0.38228 0.01399 0.0
C1821 C 0.26486 0.37264 -0.00384 0.0
C1822 C 0.28031 0.36423 0.07789 0.0
C1823 C 0.22276 0.39568 0.00413 0.0
H1824 H 0.1791 0.37474 0.09382 0.0
H1825 H 0.22216 0.44593 0.09484 0.0
H1826 H 0.20506 0.34796 0.03891 0.0
H1827 H 0.22627 0.33638 0.0636 0.0
H1828 H 0.19204 0.3385 0.0698 0.0
H1829 H 0.25852 0.45285 0.06884 0.0
H1830 H 0.27763 0.42406 0.06395 0.0
H1831 H 0.25719 0.43556 0.03859 0.0
H1832 H 0.31036 0.34994 0.0379 0.0
H1833 H 0.26145 0.3748 0.9756 0.0
H1834 H 0.26397 0.35422 0.08754 0.0
H1835 H 0.2825 0.38346 0.08722 0.0
H1836 H 0.29823 0.35288 0.08132 0.0
H1837 H 0.22157 0.39558 0.9827 0.0
H1838 H 0.22252 0.41609 0.01091 0.0
H1839 H 0.20526 0.38612 0.01201 0.0
C1840 C 0.28939 0.65739 0.92373 0.0
C1841 C 0.31609 0.65401 0.92628 0.0
C1842 C 0.27569 0.6445 0.90431 0.0
C1843 C 0.2891 0.62765 0.88739 0.0
C1844 C 0.31632 0.62612 0.88829 0.0
C1845 C 0.32958 0.6395 0.9077 0.0
C1846 C 0.24663 0.64704 0.90348 0.0
C1847 C 0.33121 0.60844 0.87046 0.0
C1848 C 0.24717 0.57016 0.87273 0.0
C1849 C 0.23665 0.57734 0.8489 0.0
C1850 C 0.26613 0.58539 0.88449 0.0
C1851 C 0.2742 0.60857 0.87224 0.0
C1852 C 0.2652 0.61477 0.8472 0.0
C1853 C 0.24653 0.59887 0.83566 0.0
C1854 C 0.27593 0.57773 0.91093 0.0
C1855 C 0.27349 0.63927 0.83356 0.0
H1856 H 0.27898 0.66895 0.93778 0.0
H1857 H 0.35029 0.6369 0.90946 0.0
H1858 H 0.23984 0.64974 0.88333 0.0
H1859 H 0.23769 0.62897 0.91098 0.0
H1860 H 0.23965 0.66355 0.91535 0.0
H1861 H 0.35218 0.61305 0.87038 0.0
H1862 H 0.3288 0.58808 0.87693 0.0
H1863 H 0.32373 0.60975 0.85041 0.0
H1864 H 0.23969 0.55325 0.88271 0.0
H1865 H 0.23832 0.60439 0.81718 0.0
H1866 H 0.26799 0.5912 0.92563 0.0
H1867 H 0.2973 0.57915 0.91177 0.0
H1868 H 0.27018 0.55767 0.91622 0.0
H1869 H 0.26277 0.65596 0.84177 0.0
H1870 H 0.26936 0.63838 0.81251 0.0
H1871 H 0.2944 0.64302 0.8364 0.0
C1872 C 0.45344 0.19162 0.82802 0.0
C1873 C 0.47778 0.19878 0.83773 0.0
C1874 C 0.43095 0.20468 0.83579 0.0
C1875 C 0.43291 0.22529 0.8537 0.0
C1876 C 0.45734 0.23225 0.86393 0.0
C1877 C 0.47946 0.21895 0.85578 0.0
C1878 C 0.40524 0.19681 0.82443 0.0
C1879 C 0.46026 0.25416 0.88311 0.0
C1880 C 0.38747 0.2821 0.85737 0.0
C1881 C 0.37549 0.27771 0.88127 0.0
C1882 C 0.40461 0.26395 0.84692 0.0
C1883 C 0.40991 0.24091 0.86076 0.0
C1884 C 0.39589 0.23519 0.88356 0.0
C1885 C 0.37871 0.25371 0.89356 0.0
C1886 C 0.41891 0.27068 0.82238 0.0
C1887 C 0.40084 0.21068 0.89871 0.0
H1888 H 0.45196 0.17608 0.814 0.0
H1889 H 0.49812 0.22446 0.86355 0.0
H1890 H 0.39113 0.19289 0.84008 0.0
H1891 H 0.39734 0.21292 0.81262 0.0
H1892 H 0.4068 0.17931 0.81203 0.0
H1893 H 0.48044 0.25623 0.89017 0.0
H1894 H 0.45435 0.27271 0.87399 0.0
H1895 H 0.44746 0.25093 0.89999 0.0
H1896 H 0.38472 0.30051 0.84762 0.0
H1897 H 0.36948 0.25021 0.91203 0.0
H1898 H 0.41975 0.25375 0.80921 0.0
H1899 H 0.43909 0.27614 0.82721 0.0
H1900 H 0.40978 0.28715 0.81197 0.0
H1901 H 0.40238 0.19372 0.88564 0.0
H1902 H 0.38537 0.20692 0.9131 0.0
H1903 H 0.41948 0.21249 0.90918 0.0
C1904 C 0.78797 0.41053 0.90462 0.0
C1905 C 0.81443 0.41604 0.90635 0.0
C1906 C 0.77553 0.39591 0.92384 0.0
C1907 C 0.79001 0.3862 0.94503 0.0
C1908 C 0.81682 0.39112 0.94651 0.0
C1909 C 0.82866 0.40612 0.92728 0.0
C1910 C 0.7469 0.39077 0.92133 0.0
C1911 C 0.833 0.38051 0.96839 0.0
C1912 C 0.75023 0.36975 0.00429 0.0
C1913 C 0.74424 0.34373 -0.00052 0.0
C1914 C 0.76626 0.38364 0.98736 0.0
C1915 C 0.77694 0.37091 0.96557 0.0
C1916 C 0.77291 0.34399 0.96216 0.0
C1917 C 0.75623 0.3308 0.97896 0.0
C1918 C 0.76967 0.41243 0.99141 0.0
C1919 C 0.78455 0.32953 0.93966 0.0
H1920 H 0.77686 0.41811 0.88854 0.0
H1921 H 0.8492 0.41004 0.92865 0.0
H1922 H 0.74383 0.37033 0.91543 0.0
H1923 H 0.73695 0.39358 0.94008 0.0
H1924 H 0.73768 0.40352 0.90667 0.0
H1925 H 0.8538 0.38541 0.96627 0.0
H1926 H 0.82604 0.38835 0.98708 0.0
H1927 H 0.83101 0.35911 0.96931 0.0
H1928 H 0.74039 0.37987 0.01979 0.0
H1929 H 0.75127 0.31073 0.97512 0.0
H1930 H 0.75899 0.42308 0.97615 0.0
H1931 H 0.79032 0.41792 0.98977 0.0
H1932 H 0.76233 0.41884 0.01053 0.0
H1933 H 0.77414 0.33479 0.92167 0.0
H1934 H 0.78323 0.30818 0.94225 0.0
H1935 H 0.80514 0.33493 0.93704 0.0
C1936 C 0.59569 0.72587 0.92148 0.0
C1937 C 0.59025 0.69973 0.92645 0.0
C1938 C 0.57608 0.74308 0.91402 0.0
C1939 C 0.55039 0.73392 0.91126 0.0
C1940 C 0.54486 0.70742 0.91548 0.0
C1941 C 0.56481 0.69066 0.92316 0.0
C1942 C 0.58275 0.77129 0.90984 0.0
C1943 C 0.51778 0.69689 0.91258 0.0
C1944 C 0.50321 0.7886 0.92094 0.0
C1945 C 0.50036 0.79769 0.89557 0.0
C1946 C 0.51758 0.76623 0.92623 0.0
C1947 C 0.52934 0.75269 0.90559 0.0
C1948 C 0.52393 0.76003 0.87976 0.0
C1949 C 0.50939 0.78255 0.87501 0.0
C1950 C 0.52246 0.75886 0.95406 0.0
C1951 C 0.53559 0.74568 0.85722 0.0
H1952 H 0.61522 0.73306 0.92397 0.0
H1953 H 0.56036 0.67046 0.92683 0.0
H1954 H 0.57661 0.77751 0.89026 0.0
H1955 H 0.57219 0.78346 0.92401 0.0
H1956 H 0.60378 0.77512 0.91195 0.0
H1957 H 0.51731 0.67536 0.9132 0.0
H1958 H 0.50545 0.70439 0.92842 0.0
H1959 H 0.5091 0.70348 0.8941 0.0
H1960 H 0.49591 0.80016 0.93685 0.0
H1961 H 0.50722 0.78954 0.85537 0.0
H1962 H 0.54246 0.76447 0.95947 0.0
H1963 H 0.52071 0.73762 0.9568 0.0
H1964 H 0.50885 0.76871 0.96744 0.0
H1965 H 0.55629 0.75101 0.85543 0.0
H1966 H 0.52575 0.75054 0.83876 0.0
H1967 H 0.53458 0.72441 0.86029 0.0
C1968 C 0.7697 0.62035 0.124 0.0
C1969 C 0.79604 0.62393 0.1293 0.0
C1970 C 0.75834 0.63124 0.10188 0.0
C1971 C 0.77365 0.64618 0.08472 0.0
C1972 C 0.79954 0.65195 0.09127 0.0
C1973 C 0.81043 0.64079 0.1135 0.0
C1974 C 0.73051 0.62488 0.09576 0.0
C1975 C 0.81646 0.66801 0.07372 0.0
C1976 C 0.75101 0.63651 0.01606 0.0
C1977 C 0.73422 0.65757 0.0129 0.0
C1978 C 0.76572 0.63373 0.03861 0.0
C1979 C 0.76346 0.65242 0.05853 0.0
C1980 C 0.74867 0.67512 0.05424 0.0
C1981 C 0.73422 0.67749 0.03134 0.0
C1982 C 0.78175 0.60952 0.04206 0.0
C1983 C 0.74612 0.6957 0.07477 0.0
H1984 H 0.75834 0.60751 0.13608 0.0
H1985 H 0.83075 0.64396 0.11749 0.0
H1986 H 0.7198 0.64267 0.09028 0.0
H1987 H 0.72975 0.61142 0.07905 0.0
H1988 H 0.72049 0.61558 0.11233 0.0
H1989 H 0.83381 0.67541 0.08399 0.0
H1990 H 0.82304 0.65586 0.05731 0.0
H1991 H 0.80562 0.68468 0.06559 0.0
H1992 H 0.75109 0.62114 0.00176 0.0
H1993 H 0.72109 0.69371 0.02909 0.0
H1994 H 0.77218 0.59646 0.05617 0.0
H1995 H 0.80106 0.61448 0.04989 0.0
H1996 H 0.78429 0.59878 0.02363 0.0
H1997 H 0.73259 0.68884 0.08993 0.0
H1998 H 0.73848 0.71415 0.06672 0.0
H1999 H 0.765 0.69956 0.08419 0.0
C2000 C 0.4375 0.73585 0.15752 0.0
C2001 C 0.43194 0.75543 0.17536 0.0
C2002 C 0.41767 0.72323 0.1442 0.0
C2003 C 0.39162 0.72983 0.14951 0.0
C2004 C 0.38582 0.74796 0.16913 0.0
C2005 C 0.40613 0.76098 0.18149 0.0
C2006 C 0.42475 0.7042 0.12314 0.0
C2007 C 0.35837 0.75482 0.17615 0.0
C2008 C 0.35387 0.72073 0.08857 0.0
C2009 C 0.34812 0.69427 0.09045 0.0
C2010 C 0.36574 0.7337 0.10911 0.0
C2011 C 0.37123 0.7199 0.13212 0.0
C2012 C 0.36182 0.6944 0.13542 0.0
C2013 C 0.35073 0.68161 0.11428 0.0
C2014 C 0.3753 0.76106 0.10494 0.0
C2015 C 0.36587 0.67976 0.16034 0.0
H2016 H 0.45742 0.73154 0.15267 0.0
H2017 H 0.40176 0.77606 0.19537 0.0
H2018 H 0.41524 0.68526 0.12663 0.0
H2019 H 0.41784 0.71153 0.10419 0.0
H2020 H 0.44593 0.70095 0.12183 0.0
H2021 H 0.35697 0.76058 0.19677 0.0
H2022 H 0.35199 0.77158 0.16432 0.0
H2023 H 0.34489 0.73846 0.1726 0.0
H2024 H 0.35162 0.73063 0.07022 0.0
H2025 H 0.34567 0.66127 0.11591 0.0
H2026 H 0.39668 0.76093 0.10314 0.0
H2027 H 0.3703 0.77346 0.12168 0.0
H2028 H 0.36705 0.76992 0.08718 0.0
H2029 H 0.38593 0.67222 0.16104 0.0
H2030 H 0.3524 0.66306 0.16199 0.0
H2031 H 0.36315 0.69272 0.17723 0.0
C2032 C 0.51917 0.21435 0.13194 0.0
C2033 C 0.51679 0.19691 0.1113 0.0
C2034 C 0.53524 0.23624 0.12995 0.0
C2035 C 0.54884 0.24087 0.10667 0.0
C2036 C 0.54517 0.22417 0.08527 0.0
C2037 C 0.52936 0.20229 0.08793 0.0
C2038 C 0.53874 0.25359 0.15316 0.0
C2039 C 0.55883 0.22877 0.05987 0.0
C2040 C 0.58003 0.30493 0.08927 0.0
C2041 C 0.60639 0.29899 0.09213 0.0
C2042 C 0.56086 0.28671 0.09535 0.0
C2043 C 0.56819 0.26209 0.10486 0.0
C2044 C 0.5946 0.25672 0.10974 0.0
C2045 C 0.61341 0.27517 0.10315 0.0
C2046 C 0.53296 0.29313 0.08963 0.0
C2047 C 0.60315 0.2308 0.12029 0.0
H2048 H 0.50961 0.21015 0.15009 0.0
H2049 H 0.52736 0.18896 0.07186 0.0
H2050 H 0.55868 0.25138 0.16077 0.0
H2051 H 0.53627 0.27422 0.14764 0.0
H2052 H 0.5249 0.2489 0.16888 0.0
H2053 H 0.55238 0.2151 0.04459 0.0
H2054 H 0.55536 0.24887 0.05306 0.0
H2055 H 0.57998 0.22647 0.06253 0.0
H2056 H 0.57432 0.32323 0.08069 0.0
H2057 H 0.63368 0.27048 0.10562 0.0
H2058 H 0.52024 0.28681 0.10567 0.0
H2059 H 0.52675 0.28258 0.072 0.0
H2060 H 0.53005 0.31421 0.08631 0.0
H2061 H 0.59132 0.22534 0.13731 0.0
H2062 H 0.62385 0.23085 0.12601 0.0
H2063 H 0.60027 0.21564 0.10536 0.0
C2064 C 0.87924 0.73762 0.65922 0.0
C2065 C 0.90411 0.73306 0.64956 0.0
C2066 C 0.86121 0.75169 0.6447 0.0
C2067 C 0.86862 0.76169 0.62038 0.0
C2068 C 0.89449 0.75924 0.6118 0.0
C2069 C 0.91188 0.74455 0.62638 0.0
C2070 C 0.83377 0.75375 0.65435 0.0
C2071 C 0.90334 0.77045 0.58632 0.0
C2072 C 0.8247 0.76569 0.56264 0.0
C2073 C 0.82147 0.79253 0.56041 0.0
C2074 C 0.83821 0.75513 0.58356 0.0
C2075 C 0.84905 0.77194 0.6023 0.0
C2076 C 0.8441 0.79883 0.60125 0.0
C2077 C 0.83004 0.80881 0.58041 0.0
C2078 C 0.84266 0.72621 0.58446 0.0
C2079 C 0.85526 0.8172 0.62105 0.0
H2080 H 0.87325 0.72848 0.67712 0.0
H2081 H 0.93123 0.74108 0.61913 0.0
H2082 H 0.82549 0.77312 0.65016 0.0
H2083 H 0.82166 0.73916 0.64426 0.0
H2084 H 0.8325 0.75005 0.67545 0.0
H2085 H 0.92472 0.77023 0.58442 0.0
H2086 H 0.89499 0.75895 0.57023 0.0
H2087 H 0.89648 0.79071 0.5841 0.0
H2088 H 0.81778 0.75303 0.54741 0.0
H2089 H 0.82747 0.82962 0.57888 0.0
H2090 H 0.83908 0.71862 0.60419 0.0
H2091 H 0.86309 0.72198 0.57953 0.0
H2092 H 0.83004 0.71564 0.57065 0.0
H2093 H 0.84797 0.81212 0.64054 0.0
H2094 H 0.85029 0.83775 0.61694 0.0
H2095 H 0.8766 0.8153 0.62161 0.0
C2096 C 0.28897 0.97376 0.65347 0.0
C2097 C 0.28738 1e-05 0.64663 0.0
C2098 C 0.26869 0.95651 0.64802 0.0
C2099 C 0.24659 0.96553 0.63459 0.0
C2100 C 0.24467 0.99217 0.62806 0.0
C2101 C 0.26495 0.00919 0.63452 0.0
C2102 C 0.27123 0.92847 0.65604 0.0
C2103 C 0.22175 0.00247 0.61318 0.0
C2104 C 0.20991 0.91545 0.59485 0.0
C2105 C 0.18772 0.9114 0.60985 0.0
C2106 C 0.229 0.93325 0.60252 0.0
C2107 C 0.22624 0.94679 0.62618 0.0
C2108 C 0.20419 0.94224 0.64176 0.0
C2109 C 0.185 0.92492 0.6332 0.0
C2110 C 0.25186 0.93795 0.58502 0.0
C2111 C 0.20088 0.95568 0.66744 0.0
H2112 H 0.30627 0.96665 0.66296 0.0
H2113 H 0.26382 0.02943 0.62894 0.0
H2114 H 0.2537 0.92216 0.66665 0.0
H2115 H 0.27293 0.91604 0.63864 0.0
H2116 H 0.2884 0.92511 0.66849 0.0
H2117 H 0.22274 0.0238 0.61035 0.0
H2118 H 0.22085 0.99301 0.59394 0.0
H2119 H 0.20353 -0.00229 0.6234 0.0
H2120 H 0.21192 0.90538 0.57658 0.0
H2121 H 0.16787 0.92185 0.64486 0.0
H2122 H 0.27003 0.93278 0.59516 0.0
H2123 H 0.25305 0.95884 0.57999 0.0
H2124 H 0.25069 0.92653 0.56686 0.0
H2125 H 0.21789 0.95184 0.67994 0.0
H2126 H 0.18318 0.94923 0.67773 0.0
H2127 H 0.19979 0.97695 0.66453 0.0
C2128 C 0.069 0.34294 0.54563 0.0
C2129 C 0.06231 0.32993 0.56855 0.0
C2130 C 0.08357 0.33062 0.52634 0.0
C2131 C 0.09134 0.30459 0.52993 0.0
C2132 C 0.08564 0.29176 0.55347 0.0
C2133 C 0.07132 0.30462 0.57252 0.0
C2134 C 0.08955 0.34505 0.50169 0.0
C2135 C 0.0935 0.26391 0.55802 0.0
C2136 C 0.09687 0.25575 0.47629 0.0
C2137 C 0.12344 0.25047 0.47664 0.0
C2138 C 0.08634 0.27514 0.49195 0.0
C2139 C 0.10285 0.28958 0.50832 0.0
C2140 C 0.13 0.28633 0.50653 0.0
C2141 C 0.14005 0.26669 0.4906 0.0
C2142 C 0.0573 0.27816 0.49294 0.0
C2143 C 0.14823 0.30179 0.52326 0.0
H2144 H 0.06237 0.36262 0.54246 0.0
H2145 H 0.06631 0.29441 0.59012 0.0
H2146 H 0.10989 0.3418 0.49576 0.0
H2147 H 0.077 0.3377 0.48593 0.0
H2148 H 0.08621 0.36623 0.50369 0.0
H2149 H 0.08909 0.25732 0.57797 0.0
H2150 H 0.08312 0.25112 0.54424 0.0
H2151 H 0.11449 0.26146 0.55451 0.0
H2152 H 0.08406 0.2433 0.46526 0.0
H2153 H 0.16059 0.26258 0.49094 0.0
H2154 H 0.05179 0.29892 0.49241 0.0
H2155 H 0.04994 0.26995 0.51134 0.0
H2156 H 0.04755 0.26803 0.47669 0.0
H2157 H 0.14213 0.32238 0.52433 0.0
H2158 H 0.16839 0.30089 0.51596 0.0
H2159 H 0.14796 0.29385 0.54319 0.0
C2160 C 0.83457 0.07555 0.56156 0.0
C2161 C 0.81994 0.09695 0.55318 0.0
C2162 C 0.82437 0.05748 0.579 0.0
C2163 C 0.79892 0.06084 0.58821 0.0
C2164 C 0.78457 0.0831 0.58097 0.0
C2165 C 0.79528 0.10093 0.56356 0.0
C2166 C 0.84031 0.03412 0.58644 0.0
C2167 C 0.75733 0.08738 0.59053 0.0
C2168 C 0.75383 0.00572 0.60316 0.0
C2169 C 0.75107 0.00836 0.62993 0.0
C2170 C 0.77124 0.02123 0.58949 0.0
C2171 C 0.78603 0.03991 0.60301 0.0
C2172 C 0.78534 0.04065 0.63036 0.0
C2173 C 0.7678 0.02469 0.64361 0.0
C2174 C 0.77173 0.01946 0.56035 0.0
C2175 C 0.80112 0.06005 0.64544 0.0
H2176 H 0.85382 0.07243 0.55392 0.0
H2177 H 0.7839 0.11743 0.55733 0.0
H2178 H 0.83909 0.03047 0.60752 0.0
H2179 H 0.83261 0.0167 0.57649 0.0
H2180 H 0.86095 0.03644 0.58101 0.0
H2181 H 0.7496 0.10663 0.58479 0.0
H2182 H 0.74444 0.07216 0.58254 0.0
H2183 H 0.75663 0.08581 0.61189 0.0
H2184 H 0.74084 0.99298 0.59268 0.0
H2185 H 0.76545 0.02686 0.66431 0.0
H2186 H 0.79189 0.01941 0.55311 0.0
H2187 H 0.7619 0.03667 0.552 0.0
H2188 H 0.76179 0.00177 0.55317 0.0
H2189 H 0.82095 0.06168 0.63746 0.0
H2190 H 0.8024 0.05476 0.66621 0.0
H2191 H 0.79194 0.07942 0.64393 0.0
C2192 C 0.81463 0.23006 0.41409 0.0
C2193 C 0.82965 0.22641 0.43631 0.0
C2194 C 0.82223 0.24773 0.39506 0.0
C2195 C 0.84544 0.26172 0.3985 0.0
C2196 C 0.85852 0.26072 0.42255 0.0
C2197 C 0.8504 0.24295 0.44137 0.0
C2198 C 0.80728 0.24888 0.37004 0.0
C2199 C 0.88256 0.27644 0.4273 0.0
C2200 C 0.89002 0.26759 0.3409 0.0
C2201 C 0.88783 0.29394 0.33479 0.0
C2202 C 0.87576 0.25682 0.36124 0.0
C2203 C 0.8587 0.27277 0.37563 0.0
C2204 C 0.85521 0.29898 0.36857 0.0
C2205 C 0.86984 0.30927 0.34823 0.0
C2206 C 0.88 0.22866 0.36817 0.0
C2207 C 0.83725 0.31666 0.3833 0.0
H2208 H 0.79853 0.2171 0.41034 0.0
H2209 H 0.86198 0.23997 0.45859 0.0
H2210 H 0.80583 0.26914 0.36296 0.0
H2211 H 0.81761 0.23744 0.35511 0.0
H2212 H 0.7875 0.2408 0.3722 0.0
H2213 H 0.88933 0.27507 0.44763 0.0
H2214 H 0.8983 0.26976 0.41436 0.0
H2215 H 0.87854 0.297 0.42268 0.0
H2216 H 0.90393 0.25564 0.33076 0.0
H2217 H 0.868 0.3297 0.34367 0.0
H2218 H 0.86129 0.21817 0.36849 0.0
H2219 H 0.88851 0.22726 0.38782 0.0
H2220 H 0.89313 0.2187 0.35441 0.0
H2221 H 0.81965 0.30628 0.38985 0.0
H2222 H 0.83132 0.3336 0.37144 0.0
H2223 H 0.8474 0.32407 0.40069 0.0
C2224 C 0.73231 0.92949 0.33353 0.0
C2225 C 0.72427 0.94626 0.35323 0.0
C2226 C 0.74916 0.90887 0.33895 0.0
C2227 C 0.75817 0.9054 0.36454 0.0
C2228 C 0.75242 0.92421 0.38366 0.0
C2229 C 0.73536 0.94436 0.37776 0.0
C2230 C 0.75473 0.88931 0.31803 0.0
C2231 C 0.76164 0.9216 0.4112 0.0
C2232 C 0.76592 0.84115 0.39812 0.0
C2233 C 0.79276 0.84031 0.40158 0.0
C2234 C 0.75445 0.86103 0.38364 0.0
C2235 C 0.77022 0.8806 0.37267 0.0
C2236 C 0.79739 0.87833 0.37379 0.0
C2237 C 0.80839 0.85798 0.388 0.0
C2238 C 0.72534 0.86245 0.38228 0.0
C2239 C 0.81471 0.89883 0.36224 0.0
H2240 H 0.72332 0.93077 0.31462 0.0
H2241 H 0.72892 0.95729 0.39298 0.0
H2242 H 0.7745 0.88123 0.31986 0.0
H2243 H 0.74084 0.873 0.31972 0.0
H2244 H 0.75248 0.89798 0.2985 0.0
H2245 H 0.76275 0.94079 0.42087 0.0
H2246 H 0.74774 0.9094 0.42211 0.0
H2247 H 0.78081 0.91218 0.41226 0.0
H2248 H 0.75374 0.82735 0.40818 0.0
H2249 H 0.8292 0.85738 0.3903 0.0
H2250 H 0.71892 0.86728 0.3624 0.0
H2251 H 0.71838 0.87805 0.3953 0.0
H2252 H 0.7161 0.84395 0.38824 0.0
H2253 H 0.81012 0.90149 0.34147 0.0
H2254 H 0.83552 0.89392 0.36419 0.0
H2255 H 0.81115 0.91767 0.37195 0.0
C2256 C 0.10532 0.68126 0.44205 0.0
C2257 C 0.09551 0.68742 0.41746 0.0
C2258 C 0.1107 0.70064 0.46027 0.0
C2259 C 0.1069 0.72695 0.45357 0.0
C2260 C 0.09852 0.73342 0.42829 0.0
C2261 C 0.0926 0.71357 0.41063 0.0
C2262 C 0.11943 0.69289 0.48704 0.0
C2263 C 0.09486 0.7613 0.42021 0.0
C2264 C 0.09105 0.77674 0.50526 0.0
C2265 C 0.1151 0.78855 0.50922 0.0
C2266 C 0.08837 0.75598 0.48793 0.0
C2267 C 0.11006 0.74756 0.47347 0.0
C2268 C 0.13449 0.75919 0.47775 0.0
C2269 C 0.13678 0.7793 0.4959 0.0
C2270 C 0.06222 0.74336 0.48473 0.0
C2271 C 0.1579 0.75128 0.46226 0.0
H2272 H 0.10745 0.66112 0.44767 0.0
H2273 H 0.08506 0.71851 0.39172 0.0
H2274 H 0.13936 0.69998 0.4905 0.0
H2275 H 0.10684 0.70195 0.50185 0.0
H2276 H 0.11918 0.67153 0.48988 0.0
H2277 H 0.09095 0.7632 0.39919 0.0
H2278 H 0.0784 0.76984 0.43096 0.0
H2279 H 0.11231 0.77285 0.42505 0.0
H2280 H 0.07429 0.78397 0.51554 0.0
H2281 H 0.15529 0.7888 0.4986 0.0
H2282 H 0.06386 0.72209 0.48764 0.0
H2283 H 0.05499 0.74655 0.4648 0.0
H2284 H 0.04774 0.7511 0.49855 0.0
H2285 H 0.16115 0.7301 0.46386 0.0
H2286 H 0.17569 0.76151 0.46864 0.0
H2287 H 0.15456 0.75566 0.44154 0.0
C2288 C 0.23401 0.12916 0.38753 0.0
C2289 C 0.2197 0.1215 0.40916 0.0
C2290 C 0.25163 0.11199 0.37599 0.0
C2291 C 0.25506 0.08692 0.38667 0.0
C2292 C 0.2421 0.08001 0.40972 0.0
C2293 C 0.22442 0.09734 0.42056 0.0
C2294 C 0.26517 0.11998 0.35144 0.0
C2295 C 0.24562 0.05367 0.42204 0.0
C2296 C 0.27135 0.0284 0.34569 0.0
C2297 C 0.29733 0.02428 0.35216 0.0
C2298 C 0.25774 0.04963 0.35573 0.0
C2299 C 0.27035 0.06696 0.37284 0.0
C2300 C 0.29679 0.0635 0.37867 0.0
C2301 C 0.30999 0.04226 0.36819 0.0
C2302 C 0.22954 0.05287 0.34892 0.0
C2303 C 0.3108 0.08138 0.39706 0.0
H2304 H 0.23012 0.14779 0.37861 0.0
H2305 H 0.21338 0.09154 0.43741 0.0
H2306 H 0.28605 0.11522 0.35246 0.0
H2307 H 0.25692 0.10904 0.33492 0.0
H2308 H 0.26302 0.14104 0.34748 0.0
H2309 H 0.2361 0.05236 0.44123 0.0
H2310 H 0.23727 0.03853 0.40931 0.0
H2311 H 0.26646 0.04924 0.42445 0.0
H2312 H 0.26148 0.01476 0.33318 0.0
H2313 H 0.33007 0.0393 0.37337 0.0
H2314 H 0.22571 0.073 0.34241 0.0
H2315 H 0.21751 0.04932 0.36631 0.0
H2316 H 0.22329 0.03927 0.33349 0.0
H2317 H 0.30716 0.10194 0.39193 0.0
H2318 H 0.33199 0.07793 0.39714 0.0
H2319 H 0.3034 0.07834 0.41695 0.0
C2320 C 0.54214 0.88245 0.79924 0.0
C2321 C 0.54716 0.88131 0.82583 0.0
C2322 C 0.5614 0.89022 0.78184 0.0
C2323 C 0.58606 0.89734 0.79135 0.0
C2324 C 0.59177 0.89463 0.81791 0.0
C2325 C 0.5723 0.88645 0.83481 0.0
C2326 C 0.55489 0.8922 0.75348 0.0
C2327 C 0.61801 0.90167 0.82866 0.0
C2328 C 0.63936 0.91029 0.74277 0.0
C2329 C 0.63532 0.93662 0.73773 0.0
C2330 C 0.62386 0.89714 0.76074 0.0
C2331 C 0.60446 0.91099 0.77419 0.0
C2332 C 0.6016 0.93803 0.77024 0.0
C2333 C 0.61682 0.95042 0.7517 0.0
C2334 C 0.62686 0.86818 0.76368 0.0
C2335 C 0.58134 0.95378 0.78416 0.0
H2336 H 0.52293 0.87816 0.79206 0.0
H2337 H 0.57654 0.88533 0.85529 0.0
H2338 H 0.55277 0.9129 0.74805 0.0
H2339 H 0.57068 0.88393 0.74156 0.0
H2340 H 0.53658 0.88201 0.74869 0.0
H2341 H 0.61848 0.90101 0.85011 0.0
H2342 H 0.63275 0.88801 0.82119 0.0
H2343 H 0.62372 0.92141 0.82228 0.0
H2344 H 0.65334 0.89962 0.73135 0.0
H2345 H 0.61362 0.97077 0.74741 0.0
H2346 H 0.61061 0.85836 0.75366 0.0
H2347 H 0.62609 0.86234 0.78427 0.0
H2348 H 0.64527 0.86112 0.7552 0.0
H2349 H 0.56289 0.95262 0.77329 0.0
H2350 H 0.58699 0.97454 0.78537 0.0
H2351 H 0.57778 0.94647 0.80396 0.0
C2352 C 0.01029 0.62394 0.76971 0.0
C2353 C 0.00423 0.64895 0.76119 0.0
C2354 C 0.03498 0.6182 0.77914 0.0
C2355 C 0.05397 0.63795 0.7799 0.0
C2356 C 0.04723 0.66375 0.77355 0.0
C2357 C 0.02226 0.66901 0.76442 0.0
C2358 C 0.04132 0.59058 0.78639 0.0
C2359 C 0.06696 0.6853 0.77401 0.0
C2360 C 0.1155 0.61874 0.81426 0.0
C2361 C 0.12972 0.60769 0.79391 0.0
C2362 C 0.09127 0.62999 0.80988 0.0
C2363 C 0.08133 0.63077 0.78448 0.0
C2364 C 0.09656 0.62176 0.76358 0.0
C2365 C 0.12051 0.61006 0.76858 0.0
C2366 C 0.07551 0.63905 0.83269 0.0
C2367 C 0.08675 0.62275 0.73611 0.0
H2368 H -0.0037 0.60848 0.76722 0.0
H2369 H 0.01773 0.68835 0.75753 0.0
H2370 H 0.05621 0.58272 0.77313 0.0
H2371 H 0.04942 0.59002 0.80619 0.0
H2372 H 0.02412 0.57774 0.78553 0.0
H2373 H 0.05774 0.70472 0.77292 0.0
H2374 H 0.07896 0.6843 0.79175 0.0
H2375 H 0.08009 0.68318 0.7572 0.0
H2376 H 0.12239 0.61697 0.83396 0.0
H2377 H 0.13145 0.60171 0.75279 0.0
H2378 H 0.06026 0.62453 0.83693 0.0
H2379 H 0.06575 0.65771 0.82838 0.0
H2380 H 0.08756 0.64147 0.8503 0.0
H2381 H 0.0706 0.60878 0.73377 0.0
H2382 H 0.10205 0.61782 0.72189 0.0
H2383 H 0.07914 0.64233 0.73155 0.0
C2384 C 0.48972 0.18723 0.74672 0.0
C2385 C 0.50864 0.16785 0.74435 0.0
C2386 C 0.46601 0.18524 0.73351 0.0
C2387 C 0.46118 0.16333 0.71773 0.0
C2388 C 0.48108 0.14492 0.71364 0.0
C2389 C 0.5046 0.14755 0.7268 0.0
C2390 C 0.44552 0.20548 0.73824 0.0
C2391 C 0.4768 0.1212 0.69703 0.0
C2392 C 0.39634 0.13073 0.70891 0.0
C2393 C 0.39198 0.1349 0.68248 0.0
C2394 C 0.41768 0.14199 0.72144 0.0
C2395 C 0.4349 0.15791 0.70722 0.0
C2396 C 0.42885 0.1646 0.68144 0.0
C2397 C 0.4075 0.15298 0.66934 0.0
C2398 C 0.42318 0.13472 0.74916 0.0
C2399 C 0.44623 0.18214 0.66587 0.0
H2400 H 0.49251 0.20283 0.76046 0.0
H2401 H 0.51916 0.13256 0.72486 0.0
H2402 H 0.43379 0.20903 0.72063 0.0
H2403 H 0.43233 0.1986 0.75368 0.0
H2404 H 0.45416 0.22411 0.74468 0.0
H2405 H 0.49456 0.1093 0.69509 0.0
H2406 H 0.46147 0.1089 0.70566 0.0
H2407 H 0.47016 0.12698 0.67749 0.0
H2408 H 0.38442 0.11697 0.71933 0.0
H2409 H 0.40404 0.15675 0.64902 0.0
H2410 H 0.42833 0.15215 0.7606 0.0
H2411 H 0.43994 0.12131 0.74984 0.0
H2412 H 0.40642 0.12501 0.75844 0.0
H2413 H 0.45263 0.19897 0.6776 0.0
H2414 H 0.43648 0.18938 0.64815 0.0
H2415 H 0.46376 0.17125 0.65999 0.0
C2416 C 0.88931 0.41434 0.78241 0.0
C2417 C 0.89202 0.41203 0.80926 0.0
C2418 C 0.90586 0.40118 0.76555 0.0
C2419 C 0.92525 0.3847 0.77574 0.0
C2420 C 0.92769 0.38167 0.80282 0.0
C2421 C 0.91123 0.39569 0.81931 0.0
C2422 C 0.9029 0.40541 0.73678 0.0
C2423 C 0.94777 0.36386 0.8143 0.0
C2424 C 0.94649 0.33884 0.72337 0.0
C2425 C 0.96759 0.35229 0.71308 0.0
C2426 C 0.93418 0.3476 0.74583 0.0
C2427 C 0.94271 0.37084 0.75761 0.0
C2428 C 0.96544 0.38319 0.74852 0.0
C2429 C 0.97781 0.37355 0.72637 0.0
C2430 C 0.91045 0.33347 0.75529 0.0
C2431 C 0.975 0.4082 0.76025 0.0
H2432 H 0.8748 0.42728 0.7745 0.0
H2433 H 0.91342 0.39389 0.84007 0.0
H2434 H 0.92121 0.41301 0.72859 0.0
H2435 H 0.8987 0.38673 0.72704 0.0
H2436 H 0.88715 0.41927 0.73208 0.0
H2437 H 0.94628 0.36262 0.83567 0.0
H2438 H 0.9457 0.34409 0.8061 0.0
H2439 H 0.96739 0.37084 0.80921 0.0
H2440 H 0.93858 0.32246 0.71288 0.0
H2441 H 0.99391 0.38414 0.71807 0.0
H2442 H 0.89291 0.3441 0.74895 0.0
H2443 H 0.91015 0.33258 0.7767 0.0
H2444 H 0.90941 0.31343 0.7475 0.0
H2445 H 0.96222 0.42432 0.75403 0.0
H2446 H 0.99505 0.41279 0.7541 0.0
H2447 H 0.97437 0.40734 0.78164 0.0
C2448 C 0.54568 0.09144 0.18724 0.0
C2449 C 0.52381 0.10707 0.19133 0.0
C2450 C 0.55898 0.08016 0.20781 0.0
C2451 C 0.55068 0.08504 0.23333 0.0
C2452 C 0.52935 0.10166 0.23784 0.0
C2453 C 0.51587 0.11224 0.21669 0.0
C2454 C 0.58153 0.06239 0.20208 0.0
C2455 C 0.52049 0.10788 0.26489 0.0
C2456 C 0.56895 0.03209 0.28041 0.0
C2457 C 0.59301 0.0409 0.2891 0.0
C2458 C 0.55439 0.04676 0.26289 0.0
C2459 C 0.56371 0.0713 0.25484 0.0
C2460 C 0.58737 0.08088 0.26476 0.0
C2461 C 0.60207 0.06526 0.28139 0.0
C2462 C 0.52947 0.03561 0.25246 0.0
C2463 C 0.59734 0.1074 0.25747 0.0
H2464 H 0.55205 0.08716 0.16776 0.0
H2465 H 0.49909 0.12435 0.22002 0.0
H2466 H 0.59973 0.07138 0.20899 0.0
H2467 H 0.57927 0.04366 0.2124 0.0
H2468 H 0.58359 0.05833 0.1811 0.0
H2469 H 0.50714 0.12474 0.26526 0.0
H2470 H 0.51022 0.09091 0.2731 0.0
H2471 H 0.53727 0.11208 0.27759 0.0
H2472 H 0.56192 0.01331 0.2867 0.0
H2473 H 0.62043 0.07226 0.28871 0.0
H2474 H 0.52894 0.037 0.23108 0.0
H2475 H 0.5129 0.0469 0.26001 0.0
H2476 H 0.52678 0.01498 0.25804 0.0
H2477 H 0.60403 0.10727 0.23713 0.0
H2478 H 0.61372 0.11357 0.26993 0.0
H2479 H 0.58166 0.122 0.25896 0.0
C2480 C 0.96254 0.58713 0.31585 0.0
C2481 C 0.97802 0.60949 0.31591 0.0
C2482 C 0.94451 0.58264 0.29611 0.0
C2483 C 0.94169 0.60107 0.27605 0.0
C2484 C 0.95736 0.62358 0.27585 0.0
C2485 C 0.97546 0.62745 0.29571 0.0
C2486 C 0.92848 0.55817 0.29673 0.0
C2487 C 0.95484 0.64368 0.25477 0.0
C2488 C 0.91268 0.5782 0.21283 0.0
C2489 C 0.88687 0.58637 0.21505 0.0
C2490 C 0.93067 0.58292 0.23249 0.0
C2491 C 0.9228 0.5964 0.25491 0.0
C2492 C 0.89686 0.6049 0.25729 0.0
C2493 C 0.87912 0.59963 0.23737 0.0
C2494 C 0.95804 0.5732 0.22936 0.0
C2495 C 0.88787 0.61947 0.28091 0.0
H2496 H 0.96449 0.57306 0.33129 0.0
H2497 H 0.9872 0.64486 0.29569 0.0
H2498 H 0.90764 0.56315 0.29744 0.0
H2499 H 0.93168 0.5468 0.27882 0.0
H2500 H 0.93315 0.54571 0.31361 0.0
H2501 H 0.96819 0.6603 0.25762 0.0
H2502 H 0.95894 0.63476 0.23572 0.0
H2503 H 0.93473 0.65111 0.25411 0.0
H2504 H 0.91883 0.56766 0.19579 0.0
H2505 H 0.85925 0.60601 0.23922 0.0
H2506 H 0.96287 0.55963 0.24528 0.0
H2507 H 0.97181 0.58964 0.23055 0.0
H2508 H 0.96104 0.56305 0.21068 0.0
H2509 H 0.89035 0.6072 0.29834 0.0
H2510 H 0.86726 0.62535 0.2795 0.0
H2511 H 0.89985 0.63709 0.2837 0.0
C2512 C 0.43025 0.79156 0.25307 0.0
C2513 C 0.45071 0.80798 0.2602 0.0
C2514 C 0.40471 0.79738 0.26017 0.0
C2515 C 0.39988 0.81953 0.27548 0.0
C2516 C 0.42092 0.83412 0.28539 0.0
C2517 C 0.44606 0.82843 0.27722 0.0
C2518 C 0.38289 0.7814 0.24917 0.0
C2519 C 0.41682 0.85714 0.30287 0.0
C2520 C 0.34526 0.86705 0.27305 0.0
C2521 C 0.33455 0.86277 0.29749 0.0
C2522 C 0.36451 0.8504 0.26356 0.0
C2523 C 0.37322 0.82953 0.27917 0.0
C2524 C 0.35921 0.82269 0.30156 0.0
C2525 C 0.3395 0.83916 0.31013 0.0
C2526 C 0.37803 0.85738 0.2387 0.0
C2527 C 0.36756 0.80065 0.31884 0.0
H2528 H 0.43379 0.77569 0.23982 0.0
H2529 H 0.46189 0.8411 0.28268 0.0
H2530 H 0.36749 0.77818 0.26369 0.0
H2531 H 0.37406 0.79206 0.23277 0.0
H2532 H 0.38975 0.76229 0.24203 0.0
H2533 H 0.43525 0.86366 0.31171 0.0
H2534 H 0.40862 0.87349 0.29158 0.0
H2535 H 0.40299 0.85236 0.31853 0.0
H2536 H 0.34125 0.88504 0.26297 0.0
H2537 H 0.33073 0.83551 0.32882 0.0
H2538 H 0.38324 0.8397 0.22767 0.0
H2539 H 0.39617 0.86796 0.24322 0.0
H2540 H 0.36582 0.87005 0.22634 0.0
H2541 H 0.37606 0.78443 0.3077 0.0
H2542 H 0.35108 0.79319 0.33042 0.0
H2543 H 0.38252 0.80784 0.33246 0.0
C2544 C 0.12178 0.41131 0.22172 0.0
C2545 C 0.12905 0.40071 0.19796 0.0
C2546 C 0.10847 0.39613 0.23987 0.0
C2547 C 0.10278 0.36992 0.23392 0.0
C2548 C 0.11341 0.35841 0.21154 0.0
C2549 C 0.12616 0.3741 0.19358 0.0
C2550 C 0.09769 0.40901 0.26371 0.0
C2551 C 0.10847 0.33035 0.2049 0.0
C2552 C 0.0635 0.32941 0.28103 0.0
C2553 C 0.03838 0.33323 0.27143 0.0
C2554 C 0.08491 0.34092 0.26894 0.0
C2555 C 0.08095 0.35683 0.24703 0.0
C2556 C 0.05571 0.36031 0.23701 0.0
C2557 C 0.03481 0.34835 0.24922 0.0
C2558 C 0.11156 0.33657 0.27998 0.0
C2559 C 0.05062 0.37709 0.21356 0.0
H2560 H 0.12408 0.43195 0.22501 0.0
H2561 H 0.13214 0.36595 0.17522 0.0
H2562 H 0.0769 0.41333 0.2606 0.0
H2563 H 0.09916 0.39601 0.28071 0.0
H2564 H 0.10781 0.42749 0.26809 0.0
H2565 H 0.12235 0.32312 0.19022 0.0
H2566 H 0.10977 0.31792 0.22235 0.0
H2567 H 0.08865 0.32835 0.19693 0.0
H2568 H 0.06645 0.31772 0.29819 0.0
H2569 H 0.01551 0.35153 0.24171 0.0
H2570 H 0.1181 0.35442 0.28997 0.0
H2571 H 0.12568 0.33239 0.26441 0.0
H2572 H 0.11187 0.32034 0.29411 0.0
H2573 H 0.05762 0.3971 0.21713 0.0
H2574 H 0.02977 0.37802 0.2085 0.0
H2575 H 0.0613 0.36941 0.19665 0.0
C2576 C 0.71826 0.62385 0.90237 0.0
C2577 C 0.69178 0.62686 0.89751 0.0
C2578 C 0.73214 0.60328 0.89139 0.0
C2579 C 0.71924 0.58535 0.87513 0.0
C2580 C 0.69278 0.58878 0.8694 0.0
C2581 C 0.67939 0.60955 0.88055 0.0
C2582 C 0.76047 0.60029 0.89778 0.0
C2583 C 0.6784 0.56999 0.85223 0.0
C2584 C 0.76475 0.54808 0.83219 0.0
C2585 C 0.76937 0.52586 0.84708 0.0
C2586 C 0.7471 0.5669 0.84027 0.0
C2587 C 0.73379 0.56334 0.86383 0.0
C2588 C 0.73663 0.53983 0.87778 0.0
C2589 C 0.75447 0.52122 0.86916 0.0
C2590 C 0.74439 0.59152 0.82468 0.0
C2591 C 0.7224 0.53522 0.90281 0.0
H2592 H 0.72795 0.63694 0.91559 0.0
H2593 H 0.6589 0.6116 0.87672 0.0
H2594 H 0.76381 0.58137 0.90744 0.0
H2595 H 0.77208 0.60038 0.87977 0.0
H2596 H 0.76765 0.61597 0.91062 0.0
H2597 H 0.65823 0.5763 0.84841 0.0
H2598 H 0.68854 0.56775 0.8335 0.0
H2599 H 0.67787 0.55061 0.86152 0.0
H2600 H 0.77622 0.55154 0.81498 0.0
H2601 H 0.7582 0.50411 0.88076 0.0
H2602 H 0.75361 0.60778 0.83526 0.0
H2603 H 0.72373 0.59653 0.82197 0.0
H2604 H 0.75365 0.5899 0.80538 0.0
H2605 H 0.73079 0.54764 0.91818 0.0
H2606 H 0.72365 0.51468 0.90917 0.0
H2607 H 0.70175 0.54058 0.90079 0.0
C2608 C 0.67482 0.40811 0.11938 0.0
C2609 C 0.69077 0.3913 0.10524 0.0
C2610 C 0.68513 0.42938 0.13272 0.0
C2611 C 0.71197 0.43428 0.1314 0.0
C2612 C 0.7284 0.41617 0.1189 0.0
C2613 C 0.71758 0.3947 0.1061 0.0
C2614 C 0.66703 0.44774 0.14642 0.0
C2615 C 0.75716 0.42067 0.11707 0.0
C2616 C 0.73656 0.50314 0.12633 0.0
C2617 C 0.74958 0.50618 0.14988 0.0
C2618 C 0.723 0.48033 0.1207 0.0
C2619 C 0.7223 0.46008 0.13919 0.0
C2620 C 0.73328 0.46403 0.16396 0.0
C2621 C 0.74687 0.48712 0.16904 0.0
C2622 C 0.71131 0.47712 0.09413 0.0
C2623 C 0.73255 0.44315 0.18436 0.0
H2624 H 0.65404 0.40533 0.11894 0.0
H2625 H 0.7299 0.38181 0.09508 0.0
H2626 H 0.67526 0.4539 0.16524 0.0
H2627 H 0.66432 0.4654 0.13449 0.0
H2628 H 0.64778 0.43883 0.14981 0.0
H2629 H 0.76753 0.40347 0.10939 0.0
H2630 H 0.76095 0.43736 0.10406 0.0
H2631 H 0.76525 0.42559 0.1363 0.0
H2632 H 0.73867 0.51785 0.1115 0.0
H2633 H 0.75718 0.48921 0.18717 0.0
H2634 H 0.69087 0.47082 0.09564 0.0
H2635 H 0.72193 0.46184 0.08341 0.0
H2636 H 0.71204 0.49532 0.08266 0.0
H2637 H 0.71336 0.43358 0.18491 0.0
H2638 H 0.737 0.451 0.20385 0.0
H2639 H 0.74712 0.4281 0.17971 0.0
C2640 C 0.57688 0.75507 0.1355 0.0
C2641 C 0.55036 0.7564 0.13047 0.0
C2642 C 0.59388 0.74484 0.11712 0.0
C2643 C 0.58385 0.73485 0.09371 0.0
C2644 C 0.55686 0.73546 0.08894 0.0
C2645 C 0.54047 0.74687 0.10722 0.0
C2646 C 0.6226 0.7457 0.1223 0.0
C2647 C 0.54514 0.72491 0.06435 0.0
C2648 C 0.62634 0.72586 0.03468 0.0
C2649 C 0.63328 0.69973 0.03714 0.0
C2650 C 0.61081 0.73786 0.05341 0.0
C2651 C 0.60157 0.72312 0.07457 0.0
C2652 C 0.60863 0.6968 0.07717 0.0
C2653 C 0.62468 0.68554 0.05863 0.0
C2654 C 0.6039 0.76611 0.05031 0.0
C2655 C 0.5987 0.68031 0.09918 0.0
H2656 H 0.58444 0.76327 0.15327 0.0
H2657 H 0.51995 0.7485 0.10327 0.0
H2658 H 0.63072 0.72582 0.12235 0.0
H2659 H 0.63245 0.7566 0.10664 0.0
H2660 H 0.62725 0.75504 0.14107 0.0
H2661 H 0.52505 0.71804 0.06766 0.0
H2662 H 0.54431 0.74064 0.04975 0.0
H2663 H 0.55657 0.70873 0.05614 0.0
H2664 H 0.63289 0.73686 0.01808 0.0
H2665 H 0.62962 0.6652 0.06049 0.0
H2666 H 0.6075 0.77674 0.0686 0.0
H2667 H 0.58302 0.76791 0.04581 0.0
H2668 H 0.61506 0.77555 0.03457 0.0
H2669 H 0.60727 0.68701 0.11764 0.0
H2670 H 0.60353 0.65949 0.09666 0.0
H2671 H 0.57743 0.6823 0.10093 0.0
C2672 C 0.26058 0.62011 0.04812 0.0
C2673 C 0.28227 0.60825 0.03713 0.0
C2674 C 0.2407 0.60514 0.05873 0.0
C2675 C 0.24247 0.57779 0.05771 0.0
C2676 C 0.26336 0.56578 0.04482 0.0
C2677 C 0.28325 0.5812 0.03492 0.0
C2678 C 0.21873 0.61853 0.07251 0.0
C2679 C 0.26541 0.53664 0.04272 0.0
C2680 C 0.21222 0.53924 0.11187 0.0
C2681 C 0.18898 0.5314 0.10054 0.0
C2682 C 0.22969 0.55468 0.09814 0.0
C2683 C 0.2239 0.5618 0.07234 0.0
C2684 C 0.20056 0.55368 0.06071 0.0
C2685 C 0.18321 0.53871 0.07508 0.0
C2686 C 0.25428 0.56345 0.11126 0.0
C2687 C 0.19416 0.5603 0.033 0.0
H2688 H 0.2599 0.64105 0.04987 0.0
H2689 H 0.29992 0.57209 0.02607 0.0
H2690 H 0.19987 0.61103 0.06555 0.0
H2691 H 0.21991 0.61435 0.09351 0.0
H2692 H 0.21914 0.63989 0.06974 0.0
H2693 H 0.28102 0.53058 0.0293 0.0
H2694 H 0.26952 0.52828 0.06205 0.0
H2695 H 0.24686 0.52825 0.03594 0.0
H2696 H 0.21657 0.53359 0.13158 0.0
H2697 H 0.16537 0.53221 0.06618 0.0
H2698 H 0.25559 0.58492 0.11083 0.0
H2699 H 0.27129 0.55578 0.10072 0.0
H2700 H 0.25542 0.55689 0.13168 0.0
H2701 H 0.19636 0.58141 0.02954 0.0
H2702 H 0.17417 0.5545 0.02769 0.0
H2703 H 0.20784 0.55021 0.01994 0.0
C2704 C 0.34844 0.25735 0.00839 0.0
C2705 C 0.36743 0.27562 0.00184 0.0
C2706 C 0.3544 0.23592 0.02407 0.0
C2707 C 0.38006 0.23245 0.03294 0.0
C2708 C 0.39936 0.25067 0.02611 0.0
C2709 C 0.39276 0.27215 0.01086 0.0
C2710 C 0.33324 0.21714 0.03133 0.0
C2711 C 0.42706 0.24739 0.03476 0.0
C2712 C 0.39727 0.19118 0.09122 0.0
C2713 C 0.4065 0.16851 0.07944 0.0
C2714 C 0.3873 0.21166 0.07636 0.0
C2715 C 0.38701 0.20962 0.04908 0.0
C2716 C 0.39533 0.1864 0.03715 0.0
C2717 C 0.40474 0.16605 0.05248 0.0
C2718 C 0.37809 0.23592 0.08981 0.0
C2719 C 0.39571 0.18359 0.0081 0.0
H2720 H 0.32879 0.26005 0.00165 0.0
H2721 H 0.40756 0.2861 0.00571 0.0
H2722 H 0.33805 0.19744 0.02422 0.0
H2723 H 0.33162 0.2159 0.05267 0.0
H2724 H 0.31417 0.22288 0.02328 0.0
H2725 H 0.4281 0.24732 0.05616 0.0
H2726 H 0.43465 0.22847 0.02796 0.0
H2727 H 0.43983 0.26304 0.02736 0.0
H2728 H 0.39841 0.19318 0.11203 0.0
H2729 H 0.41199 0.14871 0.04315 0.0
H2730 H 0.3588 0.24171 0.08241 0.0
H2731 H 0.39161 0.2521 0.08569 0.0
H2732 H 0.37686 0.23336 0.11108 0.0
H2733 H 0.37653 0.18845 -0.00016 0.0
H2734 H 0.40103 0.16367 0.00192 0.0
H2735 H 0.40989 0.1974 -0.00023 0.0
C2736 C 0.24123 0.46934 0.82372 0.0
C2737 C 0.21801 0.46321 0.81131 0.0
C2738 C 0.25705 0.4497 0.83368 0.0
C2739 C 0.24967 0.42344 0.83044 0.0
C2740 C 0.22745 0.41717 0.81582 0.0
C2741 C 0.21161 0.43721 0.80674 0.0
C2742 C 0.2805 0.45714 0.84943 0.0
C2743 C 0.21953 0.38939 0.81116 0.0
C2744 C 0.30235 0.37648 0.84913 0.0
C2745 C 0.2955 0.37076 0.87468 0.0
C2746 C 0.28654 0.39212 0.83369 0.0
C2747 C 0.26389 0.4029 0.84448 0.0
C2748 C 0.2562 0.396 0.86986 0.0
C2749 C 0.27202 0.37963 0.88461 0.0
C2750 C 0.29487 0.39833 0.80644 0.0
C2751 C 0.2323 0.40743 0.88213 0.0
H2752 H 0.24598 0.48947 0.82748 0.0
H2753 H 0.19363 0.43256 0.797 0.0
H2754 H 0.27756 0.4513 0.86986 0.0
H2755 H 0.29787 0.4468 0.8423 0.0
H2756 H 0.28436 0.47833 0.84885 0.0
H2757 H 0.20447 0.38781 0.79594 0.0
H2758 H 0.23645 0.37752 0.80543 0.0
H2759 H 0.2117 0.38101 0.82928 0.0
H2760 H 0.32056 0.36941 0.84154 0.0
H2761 H 0.26698 0.37534 0.90449 0.0
H2762 H 0.30225 0.4185 0.80558 0.0
H2763 H 0.27825 0.39698 0.79295 0.0
H2764 H 0.31039 0.38511 0.79964 0.0
H2765 H 0.23481 0.42868 0.88437 0.0
H2766 H 0.22826 0.39892 0.90143 0.0
H2767 H 0.21523 0.40429 0.86956 0.0
C2768 C 0.66566 0.24393 0.98367 0.0
C2769 C 0.65056 0.25814 0.00098 0.0
C2770 C 0.65395 0.22773 0.96528 0.0
C2771 C 0.62661 0.22621 0.96417 0.0
C2772 C 0.61159 0.23813 0.98365 0.0
C2773 C 0.62385 0.25381 0.00203 0.0
C2774 C 0.67066 0.2146 0.94532 0.0
C2775 C 0.58242 0.23703 0.9833 0.0
C2776 C 0.59843 0.22037 0.89654 0.0
C2777 C 0.59179 0.19407 0.8956 0.0
C2778 C 0.60926 0.23117 0.91901 0.0
C2779 C 0.61378 0.21522 0.94092 0.0
C2780 C 0.60649 0.18888 0.94034 0.0
C2781 C 0.59549 0.17868 0.91781 0.0
C2782 C 0.61624 0.2596 0.9192 0.0
C2783 C 0.61098 0.17125 0.96323 0.0
H2784 H 0.68626 0.24771 0.98259 0.0
H2785 H 0.6122 0.26523 0.01522 0.0
H2786 H 0.66398 0.19446 0.94183 0.0
H2787 H 0.66921 0.22528 0.92676 0.0
H2788 H 0.69129 0.21412 0.95127 0.0
H2789 H 0.57397 0.24356 0.00192 0.0
H2790 H 0.57506 0.24988 0.96774 0.0
H2791 H 0.57549 0.21712 0.97914 0.0
H2792 H 0.59552 0.23242 0.87963 0.0
H2793 H 0.5903 0.15832 0.91753 0.0
H2794 H 0.6374 0.26186 0.92181 0.0
H2795 H 0.60669 0.26944 0.93569 0.0
H2796 H 0.61048 0.26958 0.90105 0.0
H2797 H 0.60252 0.15167 0.96032 0.0
H2798 H 0.60253 0.17979 0.98098 0.0
H2799 H 0.63204 0.16914 0.96664 0.0
C2800 C 0.38902 0.83507 0.89773 0.0
C2801 C 0.3998 0.85738 0.90868 0.0
C2802 C 0.37984 0.815 0.91345 0.0
C2803 C 0.38195 0.81732 0.94064 0.0
C2804 C 0.39009 0.84097 0.95177 0.0
C2805 C 0.39863 0.86094 0.93557 0.0
C2806 C 0.37049 0.79029 0.9009 0.0
C2807 C 0.3928 0.84428 0.98063 0.0
C2808 C 0.35205 0.76206 0.97794 0.0
C2809 C 0.37283 0.74454 0.97917 0.0
C2810 C 0.35502 0.78659 0.96676 0.0
C2811 C 0.37936 0.7938 0.9568 0.0
C2812 C 0.4009 0.77713 0.95989 0.0
C2813 C 0.39735 0.75261 0.97096 0.0
C2814 C 0.33177 0.80408 0.96412 0.0
C2815 C 0.42741 0.78458 0.95013 0.0
H2816 H 0.38975 0.83239 0.87696 0.0
H2817 H 0.40705 0.87812 0.94423 0.0
H2818 H 0.38547 0.77505 0.90305 0.0
H2819 H 0.35267 0.78319 0.91046 0.0
H2820 H 0.36648 0.79297 0.87997 0.0
H2821 H 0.39203 0.86506 0.98623 0.0
H2822 H 0.37758 0.8336 0.9913 0.0
H2823 H 0.41183 0.83651 0.98682 0.0
H2824 H 0.33305 0.75617 0.9845 0.0
H2825 H 0.41359 0.73939 0.97221 0.0
H2826 H 0.32574 0.80488 0.94355 0.0
H2827 H 0.33662 0.82414 0.97014 0.0
H2828 H 0.31514 0.79715 0.97579 0.0
H2829 H 0.42719 0.78548 0.9287 0.0
H2830 H 0.44253 0.77054 0.95619 0.0
H2831 H 0.43283 0.80411 0.95732 0.0
loop_
_geom_bond_atom_site_label_1
_geom_bond_atom_site_label_2
_geom_bond_distance
_geom_bond_site_symmetry_2
_ccdc_geom_bond_type
Sc0 O3 2.025 . S
Sc0 O10 2.105 1_455 S
Sc0 O13 2.105 . S
Sc0 O16 2.105 1_455 S
Sc0 O19 2.105 . S
Sc1 O3 2.025 . S
Sc1 O11 2.105 . S
Sc1 O15 2.105 . S
Sc1 O17 2.105 . S
Sc1 O21 2.105 . S
Sc2 O3 2.025 1_655 S
Sc2 O12 2.105 . S
Sc2 O14 2.105 . S
Sc2 O18 2.105 . S
Sc2 O20 2.105 . S
O3 Sc0 2.025 . S
O3 Sc1 2.025 . S
O3 Sc2 2.025 1_455 S
C4 O10 1.268 . S
C4 O20 1.268 . S
C5 O11 1.268 . S
C5 O19 1.268 . S
C6 O12 1.268 1_455 S
C6 O21 1.268 . S
C7 O13 1.268 . S
C7 O17 1.268 . S
C8 O14 1.268 . S
C8 O16 1.268 . S
C9 O15 1.268 . S
C9 O18 1.268 1_455 S
O10 Sc0 2.105 1_655 S
O10 C4 1.268 . S
O11 Sc1 2.105 . S
O11 C5 1.268 . S
O12 Sc2 2.105 . S
O12 C6 1.268 1_655 S
O13 Sc0 2.105 . S
O13 C7 1.268 . S
O14 Sc2 2.105 . S
O14 C8 1.268 . S
O15 Sc1 2.105 . S
O15 C9 1.268 . S
O16 Sc0 2.105 1_655 S
O16 C8 1.268 . S
O17 Sc1 2.105 . S
O17 C7 1.268 . S
O18 Sc2 2.105 . S
O18 C9 1.268 1_655 S
O19 Sc0 2.105 . S
O19 C5 1.268 . S
O20 Sc2 2.105 . S
O20 C4 1.268 . S
O21 Sc1 2.105 . S
O21 C6 1.268 . S
Sc22 O25 2.025 . S
Sc22 O32 2.105 . S
Sc22 O35 2.105 1_545 S
Sc22 O38 2.105 . S
Sc22 O41 2.105 1_545 S
Sc23 O25 2.025 1_565 S
Sc23 O33 2.105 . S
Sc23 O37 2.105 . S
Sc23 O39 2.105 . S
Sc23 O43 2.105 . S
Sc24 O25 2.025 . S
Sc24 O34 2.105 . S
Sc24 O36 2.105 . S
Sc24 O40 2.105 . S
Sc24 O42 2.105 . S
O25 Sc22 2.025 . S
O25 Sc23 2.025 1_545 S
O25 Sc24 2.025 . S
C26 O32 1.268 . S
C26 O42 1.268 . S
C27 O33 1.268 . S
C27 O41 1.268 . S
C28 O34 1.268 . S
C28 O43 1.268 1_545 S
C29 O35 1.268 . S
C29 O39 1.268 . S
C30 O36 1.268 . S
C30 O38 1.268 . S
C31 O37 1.268 1_545 S
C31 O40 1.268 . S
O32 Sc22 2.105 . S
O32 C26 1.268 . S
O33 Sc23 2.105 . S
O33 C27 1.268 . S
O34 Sc24 2.105 . S
O34 C28 1.268 . S
O35 Sc22 2.105 1_565 S
O35 C29 1.268 . S
O36 Sc24 2.105 . S
O36 C30 1.268 . S
O37 Sc23 2.105 . S
O37 C31 1.268 1_565 S
O38 Sc22 2.105 . S
O38 C30 1.268 . S
O39 Sc23 2.105 . S
O39 C29 1.268 . S
O40 Sc24 2.105 . S
O40 C31 1.268 . S
O41 Sc22 2.105 1_565 S
O41 C27 1.268 . S
O42 Sc24 2.105 . S
O42 C26 1.268 . S
O43 Sc23 2.105 . S
O43 C28 1.268 1_565 S
Sc44 O47 2.025 . S
Sc44 O54 2.105 . S
Sc44 O57 2.105 1_455 S
Sc44 O60 2.105 . S
Sc44 O63 2.105 1_455 S
Sc45 O47 2.025 1_655 S
Sc45 O55 2.105 . S
Sc45 O59 2.105 . S
Sc45 O61 2.105 . S
Sc45 O65 2.105 . S
Sc46 O47 2.025 . S
Sc46 O56 2.105 . S
Sc46 O58 2.105 . S
Sc46 O62 2.105 . S
Sc46 O64 2.105 . S
O47 Sc44 2.025 . S
O47 Sc45 2.025 1_455 S
O47 Sc46 2.025 . S
C48 O54 1.268 . S
C48 O64 1.268 . S
C49 O55 1.268 . S
C49 O63 1.268 . S
C50 O56 1.268 . S
C50 O65 1.268 1_455 S
C51 O57 1.268 . S
C51 O61 1.268 . S
C52 O58 1.268 . S
C52 O60 1.268 . S
C53 O59 1.268 1_455 S
C53 O62 1.268 . S
O54 Sc44 2.105 . S
O54 C48 1.268 . S
O55 Sc45 2.105 . S
O55 C49 1.268 . S
O56 Sc46 2.105 . S
O56 C50 1.268 . S
O57 Sc44 2.105 1_655 S
O57 C51 1.268 . S
O58 Sc46 2.105 . S
O58 C52 1.268 . S
O59 Sc45 2.105 . S
O59 C53 1.268 1_655 S
O60 Sc44 2.105 . S
O60 C52 1.268 . S
O61 Sc45 2.105 . S
O61 C51 1.268 . S
O62 Sc46 2.105 . S
O62 C53 1.268 . S
O63 Sc44 2.105 1_655 S
O63 C49 1.268 . S
O64 Sc46 2.105 . S
O64 C48 1.268 . S
O65 Sc45 2.105 . S
O65 C50 1.268 1_655 S
Sc66 O69 2.025 1_565 S
Sc66 O76 2.105 . S
Sc66 O79 2.105 . S
Sc66 O82 2.105 . S
Sc66 O85 2.105 . S
Sc67 O69 2.025 . S
Sc67 O77 2.105 . S
Sc67 O81 2.105 . S
Sc67 O83 2.105 . S
Sc67 O87 2.105 . S
Sc68 O69 2.025 . S
Sc68 O78 2.105 . S
Sc68 O80 2.105 1_545 S
Sc68 O84 2.105 . S
Sc68 O86 2.105 1_545 S
O69 Sc66 2.025 1_545 S
O69 Sc67 2.025 . S
O69 Sc68 2.025 . S
C70 O76 1.268 . S
C70 O86 1.268 . S
C71 O77 1.268 . S
C71 O85 1.268 1_545 S
C72 O78 1.268 . S
C72 O87 1.268 . S
C73 O79 1.268 1_545 S
C73 O83 1.268 . S
C74 O80 1.268 . S
C74 O82 1.268 . S
C75 O81 1.268 . S
C75 O84 1.268 . S
O76 Sc66 2.105 . S
O76 C70 1.268 . S
O77 Sc67 2.105 . S
O77 C71 1.268 . S
O78 Sc68 2.105 . S
O78 C72 1.268 . S
O79 Sc66 2.105 . S
O79 C73 1.268 1_565 S
O80 Sc68 2.105 1_565 S
O80 C74 1.268 . S
O81 Sc67 2.105 . S
O81 C75 1.268 . S
O82 Sc66 2.105 . S
O82 C74 1.268 . S
O83 Sc67 2.105 . S
O83 C73 1.268 . S
O84 Sc68 2.105 . S
O84 C75 1.268 . S
O85 Sc66 2.105 . S
O85 C71 1.268 1_565 S
O86 Sc68 2.105 1_565 S
O86 C70 1.268 . S
O87 Sc67 2.105 . S
O87 C72 1.268 . S
Sc88 O91 2.025 . S
Sc88 O98 2.105 . S
Sc88 O101 2.105 . S
Sc88 O104 2.105 . S
Sc88 O107 2.105 . S
Sc89 O91 2.025 1_655 S
Sc89 O99 2.105 . S
Sc89 O103 2.105 . S
Sc89 O105 2.105 . S
Sc89 O109 2.105 . S
Sc90 O91 2.025 . S
Sc90 O100 2.105 1_455 S
Sc90 O102 2.105 . S
Sc90 O106 2.105 1_455 S
Sc90 O108 2.105 . S
O91 Sc88 2.025 . S
O91 Sc89 2.025 1_455 S
O91 Sc90 2.025 . S
C92 O98 1.268 . S
C92 O108 1.268 . S
C93 O99 1.268 1_455 S
C93 O107 1.268 . S
C94 O100 1.268 . S
C94 O109 1.268 . S
C95 O101 1.268 . S
C95 O105 1.268 1_455 S
C96 O102 1.268 . S
C96 O104 1.268 . S
C97 O103 1.268 . S
C97 O106 1.268 . S
O98 Sc88 2.105 . S
O98 C92 1.268 . S
O99 Sc89 2.105 . S
O99 C93 1.268 1_655 S
O100 Sc90 2.105 1_655 S
O100 C94 1.268 . S
O101 Sc88 2.105 . S
O101 C95 1.268 . S
O102 Sc90 2.105 . S
O102 C96 1.268 . S
O103 Sc89 2.105 . S
O103 C97 1.268 . S
O104 Sc88 2.105 . S
O104 C96 1.268 . S
O105 Sc89 2.105 . S
O105 C95 1.268 1_655 S
O106 Sc90 2.105 1_655 S
O106 C97 1.268 . S
O107 Sc88 2.105 . S
O107 C93 1.268 . S
O108 Sc90 2.105 . S
O108 C92 1.268 . S
O109 Sc89 2.105 . S
O109 C94 1.268 . S
Sc110 O113 2.025 1_565 S
Sc110 O120 2.105 . S
Sc110 O123 2.105 . S
Sc110 O126 2.105 . S
Sc110 O129 2.105 . S
Sc111 O113 2.025 . S
Sc111 O121 2.105 . S
Sc111 O125 2.105 . S
Sc111 O127 2.105 . S
Sc111 O131 2.105 . S
Sc112 O113 2.025 . S
Sc112 O122 2.105 . S
Sc112 O124 2.105 1_545 S
Sc112 O128 2.105 . S
Sc112 O130 2.105 1_545 S
O113 Sc110 2.025 1_545 S
O113 Sc111 2.025 . S
O113 Sc112 2.025 . S
C114 O120 1.268 . S
C114 O130 1.268 . S
C115 O121 1.268 . S
C115 O129 1.268 1_545 S
C116 O122 1.268 . S
C116 O131 1.268 . S
C117 O123 1.268 1_545 S
C117 O127 1.268 . S
C118 O124 1.268 . S
C118 O126 1.268 . S
C119 O125 1.268 . S
C119 O128 1.268 . S
O120 Sc110 2.105 . S
O120 C114 1.268 . S
O121 Sc111 2.105 . S
O121 C115 1.268 . S
O122 Sc112 2.105 . S
O122 C116 1.268 . S
O123 Sc110 2.105 . S
O123 C117 1.268 1_565 S
O124 Sc112 2.105 1_565 S
O124 C118 1.268 . S
O125 Sc111 2.105 . S
O125 C119 1.268 . S
O126 Sc110 2.105 . S
O126 C118 1.268 . S
O127 Sc111 2.105 . S
O127 C117 1.268 . S
O128 Sc112 2.105 . S
O128 C119 1.268 . S
O129 Sc110 2.105 . S
O129 C115 1.268 1_565 S
O130 Sc112 2.105 1_565 S
O130 C114 1.268 . S
O131 Sc111 2.105 . S
O131 C116 1.268 . S
Sc132 O135 2.025 . S
Sc132 O142 2.105 1_455 S
Sc132 O145 2.105 . S
Sc132 O148 2.105 1_455 S
Sc132 O151 2.105 . S
Sc133 O135 2.025 . S
Sc133 O143 2.105 . S
Sc133 O147 2.105 . S
Sc133 O149 2.105 . S
Sc133 O153 2.105 . S
Sc134 O135 2.025 1_655 S
Sc134 O144 2.105 . S
Sc134 O146 2.105 . S
Sc134 O150 2.105 . S
Sc134 O152 2.105 . S
O135 Sc132 2.025 . S
O135 Sc133 2.025 . S
O135 Sc134 2.025 1_455 S
C136 O142 1.268 . S
C136 O152 1.268 . S
C137 O143 1.268 . S
C137 O151 1.268 . S
C138 O144 1.268 1_455 S
C138 O153 1.268 . S
C139 O145 1.268 . S
C139 O149 1.268 . S
C140 O146 1.268 . S
C140 O148 1.268 . S
C141 O147 1.268 . S
C141 O150 1.268 1_455 S
O142 Sc132 2.105 1_655 S
O142 C136 1.268 . S
O143 Sc133 2.105 . S
O143 C137 1.268 . S
O144 Sc134 2.105 . S
O144 C138 1.268 1_655 S
O145 Sc132 2.105 . S
O145 C139 1.268 . S
O146 Sc134 2.105 . S
O146 C140 1.268 . S
O147 Sc133 2.105 . S
O147 C141 1.268 . S
O148 Sc132 2.105 1_655 S
O148 C140 1.268 . S
O149 Sc133 2.105 . S
O149 C139 1.268 . S
O150 Sc134 2.105 . S
O150 C141 1.268 1_655 S
O151 Sc132 2.105 . S
O151 C137 1.268 . S
O152 Sc134 2.105 . S
O152 C136 1.268 . S
O153 Sc133 2.105 . S
O153 C138 1.268 . S
Sc154 O157 2.025 . S
Sc154 O164 2.105 . S
Sc154 O167 2.105 . S
Sc154 O170 2.105 . S
Sc154 O173 2.105 . S
Sc155 O157 2.025 1_565 S
Sc155 O165 2.105 . S
Sc155 O169 2.105 . S
Sc155 O171 2.105 . S
Sc155 O175 2.105 . S
Sc156 O157 2.025 . S
Sc156 O166 2.105 1_545 S
Sc156 O168 2.105 . S
Sc156 O172 2.105 1_545 S
Sc156 O174 2.105 . S
O157 Sc154 2.025 . S
O157 Sc155 2.025 1_545 S
O157 Sc156 2.025 . S
C158 O164 1.268 . S
C158 O174 1.268 . S
C159 O165 1.268 1_545 S
C159 O173 1.268 . S
C160 O166 1.268 . S
C160 O175 1.268 . S
C161 O167 1.268 . S
C161 O171 1.268 1_545 S
C162 O168 1.268 . S
C162 O170 1.268 . S
C163 O169 1.268 . S
C163 O172 1.268 . S
O164 Sc154 2.105 . S
O164 C158 1.268 . S
O165 Sc155 2.105 . S
O165 C159 1.268 1_565 S
O166 Sc156 2.105 1_565 S
O166 C160 1.268 . S
O167 Sc154 2.105 . S
O167 C161 1.268 . S
O168 Sc156 2.105 . S
O168 C162 1.268 . S
O169 Sc155 2.105 . S
O169 C163 1.268 . S
O170 Sc154 2.105 . S
O170 C162 1.268 . S
O171 Sc155 2.105 . S
O171 C161 1.268 1_565 S
O172 Sc156 2.105 1_565 S
O172 C163 1.268 . S
O173 Sc154 2.105 . S
O173 C159 1.268 . S
O174 Sc156 2.105 . S
O174 C158 1.268 . S
O175 Sc155 2.105 . S
O175 C160 1.268 . S
Sc176 O179 2.025 1_556 S
Sc176 O186 2.105 . S
Sc176 O189 2.105 . S
Sc176 O192 2.105 . S
Sc176 O195 2.105 . S
Sc177 O179 2.025 . S
Sc177 O187 2.105 . S
Sc177 O191 2.105 . S
Sc177 O193 2.105 . S
Sc177 O197 2.105 . S
Sc178 O179 2.025 . S
Sc178 O188 2.105 . S
Sc178 O190 2.105 1_554 S
Sc178 O194 2.105 . S
Sc178 O196 2.105 1_554 S
O179 Sc176 2.025 1_554 S
O179 Sc177 2.025 . S
O179 Sc178 2.025 . S
C180 O186 1.268 . S
C180 O196 1.268 . S
C181 O187 1.268 . S
C181 O195 1.268 1_554 S
C182 O188 1.268 . S
C182 O197 1.268 . S
C183 O189 1.268 1_554 S
C183 O193 1.268 . S
C184 O190 1.268 . S
C184 O192 1.268 . S
C185 O191 1.268 . S
C185 O194 1.268 . S
O186 Sc176 2.105 . S
O186 C180 1.268 . S
O187 Sc177 2.105 . S
O187 C181 1.268 . S
O188 Sc178 2.105 . S
O188 C182 1.268 . S
O189 Sc176 2.105 . S
O189 C183 1.268 1_556 S
O190 Sc178 2.105 1_556 S
O190 C184 1.268 . S
O191 Sc177 2.105 . S
O191 C185 1.268 . S
O192 Sc176 2.105 . S
O192 C184 1.268 . S
O193 Sc177 2.105 . S
O193 C183 1.268 . S
O194 Sc178 2.105 . S
O194 C185 1.268 . S
O195 Sc176 2.105 . S
O195 C181 1.268 1_556 S
O196 Sc178 2.105 1_556 S
O196 C180 1.268 . S
O197 Sc177 2.105 . S
O197 C182 1.268 . S
Sc198 O201 2.025 . S
Sc198 O208 2.105 . S
Sc198 O211 2.105 1_554 S
Sc198 O214 2.105 . S
Sc198 O217 2.105 1_554 S
Sc199 O201 2.025 1_556 S
Sc199 O209 2.105 . S
Sc199 O213 2.105 . S
Sc199 O215 2.105 . S
Sc199 O219 2.105 . S
Sc200 O201 2.025 . S
Sc200 O210 2.105 . S
Sc200 O212 2.105 . S
Sc200 O216 2.105 . S
Sc200 O218 2.105 . S
O201 Sc198 2.025 . S
O201 Sc199 2.025 1_554 S
O201 Sc200 2.025 . S
C202 O208 1.268 . S
C202 O218 1.268 . S
C203 O209 1.268 . S
C203 O217 1.268 . S
C204 O210 1.268 . S
C204 O219 1.268 1_554 S
C205 O211 1.268 . S
C205 O215 1.268 . S
C206 O212 1.268 . S
C206 O214 1.268 . S
C207 O213 1.268 1_554 S
C207 O216 1.268 . S
O208 Sc198 2.105 . S
O208 C202 1.268 . S
O209 Sc199 2.105 . S
O209 C203 1.268 . S
O210 Sc200 2.105 . S
O210 C204 1.268 . S
O211 Sc198 2.105 1_556 S
O211 C205 1.268 . S
O212 Sc200 2.105 . S
O212 C206 1.268 . S
O213 Sc199 2.105 . S
O213 C207 1.268 1_556 S
O214 Sc198 2.105 . S
O214 C206 1.268 . S
O215 Sc199 2.105 . S
O215 C205 1.268 . S
O216 Sc200 2.105 . S
O216 C207 1.268 . S
O217 Sc198 2.105 1_556 S
O217 C203 1.268 . S
O218 Sc200 2.105 . S
O218 C202 1.268 . S
O219 Sc199 2.105 . S
O219 C204 1.268 1_556 S
Sc220 O223 2.025 . S
Sc220 O230 2.105 1_554 S
Sc220 O233 2.105 . S
Sc220 O236 2.105 1_554 S
Sc220 O239 2.105 . S
Sc221 O223 2.025 . S
Sc221 O231 2.105 . S
Sc221 O235 2.105 . S
Sc221 O237 2.105 . S
Sc221 O241 2.105 . S
Sc222 O223 2.025 1_556 S
Sc222 O232 2.105 . S
Sc222 O234 2.105 . S
Sc222 O238 2.105 . S
Sc222 O240 2.105 . S
O223 Sc220 2.025 . S
O223 Sc221 2.025 . S
O223 Sc222 2.025 1_554 S
C224 O230 1.268 . S
C224 O240 1.268 . S
C225 O231 1.268 . S
C225 O239 1.268 . S
C226 O232 1.268 1_554 S
C226 O241 1.268 . S
C227 O233 1.268 . S
C227 O237 1.268 . S
C228 O234 1.268 . S
C228 O236 1.268 . S
C229 O235 1.268 . S
C229 O238 1.268 1_554 S
O230 Sc220 2.105 1_556 S
O230 C224 1.268 . S
O231 Sc221 2.105 . S
O231 C225 1.268 . S
O232 Sc222 2.105 . S
O232 C226 1.268 1_556 S
O233 Sc220 2.105 . S
O233 C227 1.268 . S
O234 Sc222 2.105 . S
O234 C228 1.268 . S
O235 Sc221 2.105 . S
O235 C229 1.268 . S
O236 Sc220 2.105 1_556 S
O236 C228 1.268 . S
O237 Sc221 2.105 . S
O237 C227 1.268 . S
O238 Sc222 2.105 . S
O238 C229 1.268 1_556 S
O239 Sc220 2.105 . S
O239 C225 1.268 . S
O240 Sc222 2.105 . S
O240 C224 1.268 . S
O241 Sc221 2.105 . S
O241 C226 1.268 . S
Sc242 O245 2.025 . S
Sc242 O252 2.105 . S
Sc242 O255 2.105 . S
Sc242 O258 2.105 . S
Sc242 O261 2.105 . S
Sc243 O245 2.025 1_556 S
Sc243 O253 2.105 . S
Sc243 O257 2.105 . S
Sc243 O259 2.105 . S
Sc243 O263 2.105 . S
Sc244 O245 2.025 . S
Sc244 O254 2.105 1_554 S
Sc244 O256 2.105 . S
Sc244 O260 2.105 1_554 S
Sc244 O262 2.105 . S
O245 Sc242 2.025 . S
O245 Sc243 2.025 1_554 S
O245 Sc244 2.025 . S
C246 O252 1.268 . S
C246 O262 1.268 . S
C247 O253 1.268 1_554 S
C247 O261 1.268 . S
C248 O254 1.268 . S
C248 O263 1.268 . S
C249 O255 1.268 . S
C249 O259 1.268 1_554 S
C250 O256 1.268 . S
C250 O258 1.268 . S
C251 O257 1.268 . S
C251 O260 1.268 . S
O252 Sc242 2.105 . S
O252 C246 1.268 . S
O253 Sc243 2.105 . S
O253 C247 1.268 1_556 S
O254 Sc244 2.105 1_556 S
O254 C248 1.268 . S
O255 Sc242 2.105 . S
O255 C249 1.268 . S
O256 Sc244 2.105 . S
O256 C250 1.268 . S
O257 Sc243 2.105 . S
O257 C251 1.268 . S
O258 Sc242 2.105 . S
O258 C250 1.268 . S
O259 Sc243 2.105 . S
O259 C249 1.268 1_556 S
O260 Sc244 2.105 1_556 S
O260 C251 1.268 . S
O261 Sc242 2.105 . S
O261 C247 1.268 . S
O262 Sc244 2.105 . S
O262 C246 1.268 . S
O263 Sc243 2.105 . S
O263 C248 1.268 . S
Sc264 O267 2.025 . S
Sc264 O274 2.105 . S
Sc264 O277 2.105 . S
Sc264 O280 2.105 . S
Sc264 O283 2.105 . S
Sc265 O267 2.025 . S
Sc265 O275 2.105 . S
Sc265 O279 2.105 . S
Sc265 O281 2.105 . S
Sc265 O285 2.105 . S
Sc266 O267 2.025 . S
Sc266 O276 2.105 . S
Sc266 O278 2.105 . S
Sc266 O282 2.105 . S
Sc266 O284 2.105 . S
O267 Sc264 2.025 . S
O267 Sc265 2.025 . S
O267 Sc266 2.025 . S
C268 O274 1.268 . S
C268 O284 1.268 . S
C269 O275 1.268 . S
C269 O283 1.268 . S
C270 O276 1.268 . S
C270 O285 1.268 . S
C271 O277 1.268 . S
C271 O281 1.268 . S
C272 O278 1.268 . S
C272 O280 1.268 . S
C273 O279 1.268 . S
C273 O282 1.268 . S
O274 Sc264 2.105 . S
O274 C268 1.268 . S
O275 Sc265 2.105 . S
O275 C269 1.268 . S
O276 Sc266 2.105 . S
O276 C270 1.268 . S
O277 Sc264 2.105 . S
O277 C271 1.268 . S
O278 Sc266 2.105 . S
O278 C272 1.268 . S
O279 Sc265 2.105 . S
O279 C273 1.268 . S
O280 Sc264 2.105 . S
O280 C272 1.268 . S
O281 Sc265 2.105 . S
O281 C271 1.268 . S
O282 Sc266 2.105 . S
O282 C273 1.268 . S
O283 Sc264 2.105 . S
O283 C269 1.268 . S
O284 Sc266 2.105 . S
O284 C268 1.268 . S
O285 Sc265 2.105 . S
O285 C270 1.268 . S
Sc286 O289 2.025 . S
Sc286 O296 2.105 . S
Sc286 O299 2.105 . S
Sc286 O302 2.105 . S
Sc286 O305 2.105 . S
Sc287 O289 2.025 . S
Sc287 O297 2.105 . S
Sc287 O301 2.105 . S
Sc287 O303 2.105 . S
Sc287 O307 2.105 . S
Sc288 O289 2.025 . S
Sc288 O298 2.105 . S
Sc288 O300 2.105 . S
Sc288 O304 2.105 . S
Sc288 O306 2.105 . S
O289 Sc286 2.025 . S
O289 Sc287 2.025 . S
O289 Sc288 2.025 . S
C290 O296 1.268 . S
C290 O306 1.268 . S
C291 O297 1.268 . S
C291 O305 1.268 . S
C292 O298 1.268 . S
C292 O307 1.268 . S
C293 O299 1.268 . S
C293 O303 1.268 . S
C294 O300 1.268 . S
C294 O302 1.268 . S
C295 O301 1.268 . S
C295 O304 1.268 . S
O296 Sc286 2.105 . S
O296 C290 1.268 . S
O297 Sc287 2.105 . S
O297 C291 1.268 . S
O298 Sc288 2.105 . S
O298 C292 1.268 . S
O299 Sc286 2.105 . S
O299 C293 1.268 . S
O300 Sc288 2.105 . S
O300 C294 1.268 . S
O301 Sc287 2.105 . S
O301 C295 1.268 . S
O302 Sc286 2.105 . S
O302 C294 1.268 . S
O303 Sc287 2.105 . S
O303 C293 1.268 . S
O304 Sc288 2.105 . S
O304 C295 1.268 . S
O305 Sc286 2.105 . S
O305 C291 1.268 . S
O306 Sc288 2.105 . S
O306 C290 1.268 . S
O307 Sc287 2.105 . S
O307 C292 1.268 . S
Sc308 O311 2.025 . S
Sc308 O318 2.105 . S
Sc308 O321 2.105 . S
Sc308 O324 2.105 . S
Sc308 O327 2.105 . S
Sc309 O311 2.025 . S
Sc309 O319 2.105 . S
Sc309 O323 2.105 . S
Sc309 O325 2.105 . S
Sc309 O329 2.105 . S
Sc310 O311 2.025 . S
Sc310 O320 2.105 . S
Sc310 O322 2.105 . S
Sc310 O326 2.105 . S
Sc310 O328 2.105 . S
O311 Sc308 2.025 . S
O311 Sc309 2.025 . S
O311 Sc310 2.025 . S
C312 O318 1.268 . S
C312 O328 1.268 . S
C313 O319 1.268 . S
C313 O327 1.268 . S
C314 O320 1.268 . S
C314 O329 1.268 . S
C315 O321 1.268 . S
C315 O325 1.268 . S
C316 O322 1.268 . S
C316 O324 1.268 . S
C317 O323 1.268 . S
C317 O326 1.268 . S
O318 Sc308 2.105 . S
O318 C312 1.268 . S
O319 Sc309 2.105 . S
O319 C313 1.268 . S
O320 Sc310 2.105 . S
O320 C314 1.268 . S
O321 Sc308 2.105 . S
O321 C315 1.268 . S
O322 Sc310 2.105 . S
O322 C316 1.268 . S
O323 Sc309 2.105 . S
O323 C317 1.268 . S
O324 Sc308 2.105 . S
O324 C316 1.268 . S
O325 Sc309 2.105 . S
O325 C315 1.268 . S
O326 Sc310 2.105 . S
O326 C317 1.268 . S
O327 Sc308 2.105 . S
O327 C313 1.268 . S
O328 Sc310 2.105 . S
O328 C312 1.268 . S
O329 Sc309 2.105 . S
O329 C314 1.268 . S
Sc330 O333 2.025 . S
Sc330 O340 2.105 . S
Sc330 O343 2.105 . S
Sc330 O346 2.105 . S
Sc330 O349 2.105 . S
Sc331 O333 2.025 . S
Sc331 O341 2.105 . S
Sc331 O345 2.105 . S
Sc331 O347 2.105 . S
Sc331 O351 2.105 . S
Sc332 O333 2.025 . S
Sc332 O342 2.105 . S
Sc332 O344 2.105 . S
Sc332 O348 2.105 . S
Sc332 O350 2.105 . S
O333 Sc330 2.025 . S
O333 Sc331 2.025 . S
O333 Sc332 2.025 . S
C334 O340 1.268 . S
C334 O350 1.268 . S
C335 O341 1.268 . S
C335 O349 1.268 . S
C336 O342 1.268 . S
C336 O351 1.268 . S
C337 O343 1.268 . S
C337 O347 1.268 . S
C338 O344 1.268 . S
C338 O346 1.268 . S
C339 O345 1.268 . S
C339 O348 1.268 . S
O340 Sc330 2.105 . S
O340 C334 1.268 . S
O341 Sc331 2.105 . S
O341 C335 1.268 . S
O342 Sc332 2.105 . S
O342 C336 1.268 . S
O343 Sc330 2.105 . S
O343 C337 1.268 . S
O344 Sc332 2.105 . S
O344 C338 1.268 . S
O345 Sc331 2.105 . S
O345 C339 1.268 . S
O346 Sc330 2.105 . S
O346 C338 1.268 . S
O347 Sc331 2.105 . S
O347 C337 1.268 . S
O348 Sc332 2.105 . S
O348 C339 1.268 . S
O349 Sc330 2.105 . S
O349 C335 1.268 . S
O350 Sc332 2.105 . S
O350 C334 1.268 . S
O351 Sc331 2.105 . S
O351 C336 1.268 . S
Sc352 O355 2.025 . S
Sc352 O362 2.105 . S
Sc352 O365 2.105 . S
Sc352 O368 2.105 . S
Sc352 O371 2.105 . S
Sc353 O355 2.025 . S
Sc353 O363 2.105 . S
Sc353 O367 2.105 . S
Sc353 O369 2.105 . S
Sc353 O373 2.105 . S
Sc354 O355 2.025 . S
Sc354 O364 2.105 . S
Sc354 O366 2.105 . S
Sc354 O370 2.105 . S
Sc354 O372 2.105 . S
O355 Sc352 2.025 . S
O355 Sc353 2.025 . S
O355 Sc354 2.025 . S
C356 O362 1.268 . S
C356 O372 1.268 . S
C357 O363 1.268 . S
C357 O371 1.268 . S
C358 O364 1.268 . S
C358 O373 1.268 . S
C359 O365 1.268 . S
C359 O369 1.268 . S
C360 O366 1.268 . S
C360 O368 1.268 . S
C361 O367 1.268 . S
C361 O370 1.268 . S
O362 Sc352 2.105 . S
O362 C356 1.268 . S
O363 Sc353 2.105 . S
O363 C357 1.268 . S
O364 Sc354 2.105 . S
O364 C358 1.268 . S
O365 Sc352 2.105 . S
O365 C359 1.268 . S
O366 Sc354 2.105 . S
O366 C360 1.268 . S
O367 Sc353 2.105 . S
O367 C361 1.268 . S
O368 Sc352 2.105 . S
O368 C360 1.268 . S
O369 Sc353 2.105 . S
O369 C359 1.268 . S
O370 Sc354 2.105 . S
O370 C361 1.268 . S
O371 Sc352 2.105 . S
O371 C357 1.268 . S
O372 Sc354 2.105 . S
O372 C356 1.268 . S
O373 Sc353 2.105 . S
O373 C358 1.268 . S
Sc374 O377 2.025 . S
Sc374 O384 2.105 . S
Sc374 O387 2.105 . S
Sc374 O390 2.105 . S
Sc374 O393 2.105 . S
Sc375 O377 2.025 . S
Sc375 O385 2.105 . S
Sc375 O389 2.105 . S
Sc375 O391 2.105 . S
Sc375 O395 2.105 . S
Sc376 O377 2.025 . S
Sc376 O386 2.105 . S
Sc376 O388 2.105 . S
Sc376 O392 2.105 . S
Sc376 O394 2.105 . S
O377 Sc374 2.025 . S
O377 Sc375 2.025 . S
O377 Sc376 2.025 . S
C378 O384 1.268 . S
C378 O394 1.268 . S
C379 O385 1.268 . S
C379 O393 1.268 . S
C380 O386 1.268 . S
C380 O395 1.268 . S
C381 O387 1.268 . S
C381 O391 1.268 . S
C382 O388 1.268 . S
C382 O390 1.268 . S
C383 O389 1.268 . S
C383 O392 1.268 . S
O384 Sc374 2.105 . S
O384 C378 1.268 . S
O385 Sc375 2.105 . S
O385 C379 1.268 . S
O386 Sc376 2.105 . S
O386 C380 1.268 . S
O387 Sc374 2.105 . S
O387 C381 1.268 . S
O388 Sc376 2.105 . S
O388 C382 1.268 . S
O389 Sc375 2.105 . S
O389 C383 1.268 . S
O390 Sc374 2.105 . S
O390 C382 1.268 . S
O391 Sc375 2.105 . S
O391 C381 1.268 . S
O392 Sc376 2.105 . S
O392 C383 1.268 . S
O393 Sc374 2.105 . S
O393 C379 1.268 . S
O394 Sc376 2.105 . S
O394 C378 1.268 . S
O395 Sc375 2.105 . S
O395 C380 1.268 . S
Sc396 O399 2.025 . S
Sc396 O406 2.105 . S
Sc396 O409 2.105 . S
Sc396 O412 2.105 . S
Sc396 O415 2.105 . S
Sc397 O399 2.025 . S
Sc397 O407 2.105 . S
Sc397 O411 2.105 . S
Sc397 O413 2.105 . S
Sc397 O417 2.105 . S
Sc398 O399 2.025 . S
Sc398 O408 2.105 . S
Sc398 O410 2.105 . S
Sc398 O414 2.105 . S
Sc398 O416 2.105 . S
O399 Sc396 2.025 . S
O399 Sc397 2.025 . S
O399 Sc398 2.025 . S
C400 O406 1.268 . S
C400 O416 1.268 . S
C401 O407 1.268 . S
C401 O415 1.268 . S
C402 O408 1.268 . S
C402 O417 1.268 . S
C403 O409 1.268 . S
C403 O413 1.268 . S
C404 O410 1.268 . S
C404 O412 1.268 . S
C405 O411 1.268 . S
C405 O414 1.268 . S
O406 Sc396 2.105 . S
O406 C400 1.268 . S
O407 Sc397 2.105 . S
O407 C401 1.268 . S
O408 Sc398 2.105 . S
O408 C402 1.268 . S
O409 Sc396 2.105 . S
O409 C403 1.268 . S
O410 Sc398 2.105 . S
O410 C404 1.268 . S
O411 Sc397 2.105 . S
O411 C405 1.268 . S
O412 Sc396 2.105 . S
O412 C404 1.268 . S
O413 Sc397 2.105 . S
O413 C403 1.268 . S
O414 Sc398 2.105 . S
O414 C405 1.268 . S
O415 Sc396 2.105 . S
O415 C401 1.268 . S
O416 Sc398 2.105 . S
O416 C400 1.268 . S
O417 Sc397 2.105 . S
O417 C402 1.268 . S
Sc418 O421 2.025 . S
Sc418 O428 2.105 . S
Sc418 O431 2.105 . S
Sc418 O434 2.105 . S
Sc418 O437 2.105 . S
Sc419 O421 2.025 . S
Sc419 O429 2.105 . S
Sc419 O433 2.105 . S
Sc419 O435 2.105 . S
Sc419 O439 2.105 . S
Sc420 O421 2.025 . S
Sc420 O430 2.105 . S
Sc420 O432 2.105 . S
Sc420 O436 2.105 . S
Sc420 O438 2.105 . S
O421 Sc418 2.025 . S
O421 Sc419 2.025 . S
O421 Sc420 2.025 . S
C422 O428 1.268 . S
C422 O438 1.268 . S
C423 O429 1.268 . S
C423 O437 1.268 . S
C424 O430 1.268 . S
C424 O439 1.268 . S
C425 O431 1.268 . S
C425 O435 1.268 . S
C426 O432 1.268 . S
C426 O434 1.268 . S
C427 O433 1.268 . S
C427 O436 1.268 . S
O428 Sc418 2.105 . S
O428 C422 1.268 . S
O429 Sc419 2.105 . S
O429 C423 1.268 . S
O430 Sc420 2.105 . S
O430 C424 1.268 . S
O431 Sc418 2.105 . S
O431 C425 1.268 . S
O432 Sc420 2.105 . S
O432 C426 1.268 . S
O433 Sc419 2.105 . S
O433 C427 1.268 . S
O434 Sc418 2.105 . S
O434 C426 1.268 . S
O435 Sc419 2.105 . S
O435 C425 1.268 . S
O436 Sc420 2.105 . S
O436 C427 1.268 . S
O437 Sc418 2.105 . S
O437 C423 1.268 . S
O438 Sc420 2.105 . S
O438 C422 1.268 . S
O439 Sc419 2.105 . S
O439 C424 1.268 . S
Sc440 O443 2.025 . S
Sc440 O450 2.105 . S
Sc440 O453 2.105 . S
Sc440 O456 2.105 . S
Sc440 O459 2.105 . S
Sc441 O443 2.025 . S
Sc441 O451 2.105 . S
Sc441 O455 2.105 . S
Sc441 O457 2.105 . S
Sc441 O461 2.105 . S
Sc442 O443 2.025 . S
Sc442 O452 2.105 . S
Sc442 O454 2.105 . S
Sc442 O458 2.105 . S
Sc442 O460 2.105 . S
O443 Sc440 2.025 . S
O443 Sc441 2.025 . S
O443 Sc442 2.025 . S
C444 O450 1.268 . S
C444 O460 1.268 . S
C445 O451 1.268 . S
C445 O459 1.268 . S
C446 O452 1.268 . S
C446 O461 1.268 . S
C447 O453 1.268 . S
C447 O457 1.268 . S
C448 O454 1.268 . S
C448 O456 1.268 . S
C449 O455 1.268 . S
C449 O458 1.268 . S
O450 Sc440 2.105 . S
O450 C444 1.268 . S
O451 Sc441 2.105 . S
O451 C445 1.268 . S
O452 Sc442 2.105 . S
O452 C446 1.268 . S
O453 Sc440 2.105 . S
O453 C447 1.268 . S
O454 Sc442 2.105 . S
O454 C448 1.268 . S
O455 Sc441 2.105 . S
O455 C449 1.268 . S
O456 Sc440 2.105 . S
O456 C448 1.268 . S
O457 Sc441 2.105 . S
O457 C447 1.268 . S
O458 Sc442 2.105 . S
O458 C449 1.268 . S
O459 Sc440 2.105 . S
O459 C445 1.268 . S
O460 Sc442 2.105 . S
O460 C444 1.268 . S
O461 Sc441 2.105 . S
O461 C446 1.268 . S
Sc462 O465 2.025 . S
Sc462 O472 2.105 . S
Sc462 O475 2.105 . S
Sc462 O478 2.105 . S
Sc462 O481 2.105 . S
Sc463 O465 2.025 . S
Sc463 O473 2.105 . S
Sc463 O477 2.105 . S
Sc463 O479 2.105 . S
Sc463 O483 2.105 . S
Sc464 O465 2.025 . S
Sc464 O474 2.105 . S
Sc464 O476 2.105 . S
Sc464 O480 2.105 . S
Sc464 O482 2.105 . S
O465 Sc462 2.025 . S
O465 Sc463 2.025 . S
O465 Sc464 2.025 . S
C466 O472 1.268 . S
C466 O482 1.268 . S
C467 O473 1.268 . S
C467 O481 1.268 . S
C468 O474 1.268 . S
C468 O483 1.268 . S
C469 O475 1.268 . S
C469 O479 1.268 . S
C470 O476 1.268 . S
C470 O478 1.268 . S
C471 O477 1.268 . S
C471 O480 1.268 . S
O472 Sc462 2.105 . S
O472 C466 1.268 . S
O473 Sc463 2.105 . S
O473 C467 1.268 . S
O474 Sc464 2.105 . S
O474 C468 1.268 . S
O475 Sc462 2.105 . S
O475 C469 1.268 . S
O476 Sc464 2.105 . S
O476 C470 1.268 . S
O477 Sc463 2.105 . S
O477 C471 1.268 . S
O478 Sc462 2.105 . S
O478 C470 1.268 . S
O479 Sc463 2.105 . S
O479 C469 1.268 . S
O480 Sc464 2.105 . S
O480 C471 1.268 . S
O481 Sc462 2.105 . S
O481 C467 1.268 . S
O482 Sc464 2.105 . S
O482 C466 1.268 . S
O483 Sc463 2.105 . S
O483 C468 1.268 . S
Sc484 O487 2.025 . S
Sc484 O494 2.105 . S
Sc484 O497 2.105 . S
Sc484 O500 2.105 . S
Sc484 O503 2.105 . S
Sc485 O487 2.025 . S
Sc485 O495 2.105 . S
Sc485 O499 2.105 . S
Sc485 O501 2.105 . S
Sc485 O505 2.105 . S
Sc486 O487 2.025 . S
Sc486 O496 2.105 . S
Sc486 O498 2.105 . S
Sc486 O502 2.105 . S
Sc486 O504 2.105 . S
O487 Sc484 2.025 . S
O487 Sc485 2.025 . S
O487 Sc486 2.025 . S
C488 O494 1.268 . S
C488 O504 1.268 . S
C489 O495 1.268 . S
C489 O503 1.268 . S
C490 O496 1.268 . S
C490 O505 1.268 . S
C491 O497 1.268 . S
C491 O501 1.268 . S
C492 O498 1.268 . S
C492 O500 1.268 . S
C493 O499 1.268 . S
C493 O502 1.268 . S
O494 Sc484 2.105 . S
O494 C488 1.268 . S
O495 Sc485 2.105 . S
O495 C489 1.268 . S
O496 Sc486 2.105 . S
O496 C490 1.268 . S
O497 Sc484 2.105 . S
O497 C491 1.268 . S
O498 Sc486 2.105 . S
O498 C492 1.268 . S
O499 Sc485 2.105 . S
O499 C493 1.268 . S
O500 Sc484 2.105 . S
O500 C492 1.268 . S
O501 Sc485 2.105 . S
O501 C491 1.268 . S
O502 Sc486 2.105 . S
O502 C493 1.268 . S
O503 Sc484 2.105 . S
O503 C489 1.268 . S
O504 Sc486 2.105 . S
O504 C488 1.268 . S
O505 Sc485 2.105 . S
O505 C490 1.268 . S
Sc506 O509 2.025 . S
Sc506 O516 2.105 . S
Sc506 O519 2.105 . S
Sc506 O522 2.105 . S
Sc506 O525 2.105 . S
Sc507 O509 2.025 . S
Sc507 O517 2.105 . S
Sc507 O521 2.105 . S
Sc507 O523 2.105 . S
Sc507 O527 2.105 . S
Sc508 O509 2.025 . S
Sc508 O518 2.105 . S
Sc508 O520 2.105 . S
Sc508 O524 2.105 . S
Sc508 O526 2.105 . S
O509 Sc506 2.025 . S
O509 Sc507 2.025 . S
O509 Sc508 2.025 . S
C510 O516 1.268 . S
C510 O526 1.268 . S
C511 O517 1.268 . S
C511 O525 1.268 . S
C512 O518 1.268 . S
C512 O527 1.268 . S
C513 O519 1.268 . S
C513 O523 1.268 . S
C514 O520 1.268 . S
C514 O522 1.268 . S
C515 O521 1.268 . S
C515 O524 1.268 . S
O516 Sc506 2.105 . S
O516 C510 1.268 . S
O517 Sc507 2.105 . S
O517 C511 1.268 . S
O518 Sc508 2.105 . S
O518 C512 1.268 . S
O519 Sc506 2.105 . S
O519 C513 1.268 . S
O520 Sc508 2.105 . S
O520 C514 1.268 . S
O521 Sc507 2.105 . S
O521 C515 1.268 . S
O522 Sc506 2.105 . S
O522 C514 1.268 . S
O523 Sc507 2.105 . S
O523 C513 1.268 . S
O524 Sc508 2.105 . S
O524 C515 1.268 . S
O525 Sc506 2.105 . S
O525 C511 1.268 . S
O526 Sc508 2.105 . S
O526 C510 1.268 . S
O527 Sc507 2.105 . S
O527 C512 1.268 . S
C528 C529 1.391 . S
C528 C530 1.394 . S
C528 H544 0.931 . S
C529 C528 1.391 . S
C529 C533 1.376 1_655 S
C530 C528 1.394 . S
C530 C531 1.369 . S
C530 C534 1.531 . S
C531 C530 1.369 . S
C531 C532 1.410 1_655 S
C531 C539 1.503 . S
C532 C531 1.410 1_455 S
C532 C533 1.392 . S
C532 C535 1.511 . S
C533 C529 1.376 1_455 S
C533 C532 1.392 . S
C533 H545 0.929 . S
C534 C530 1.531 . S
C534 H546 0.960 . S
C534 H547 0.962 . S
C534 H548 0.960 . S
C535 C532 1.511 . S
C535 H549 0.961 . S
C535 H550 0.961 . S
C535 H551 0.961 1_455 S
C536 C537 1.345 1_455 S
C536 C538 1.363 . S
C536 H552 0.931 . S
C537 C536 1.345 1_655 S
C537 C541 1.437 . S
C538 C536 1.363 . S
C538 C539 1.370 1_455 S
C538 C542 1.524 . S
C539 C531 1.503 . S
C539 C538 1.370 1_655 S
C539 C540 1.403 . S
C540 C539 1.403 . S
C540 C541 1.404 . S
C540 C543 1.539 . S
C541 C537 1.437 . S
C541 C540 1.404 . S
C541 H553 0.930 . S
C542 C538 1.524 . S
C542 H554 0.956 . S
C542 H555 0.961 . S
C542 H556 0.961 . S
C543 C540 1.539 . S
C543 H557 0.958 . S
C543 H558 0.961 . S
C543 H559 0.960 . S
H544 C528 0.931 . S
H545 C533 0.929 . S
H546 C534 0.960 . S
H547 C534 0.962 . S
H548 C534 0.960 . S
H549 C535 0.961 . S
H550 C535 0.961 . S
H551 C535 0.961 1_655 S
H552 C536 0.931 . S
H553 C541 0.930 . S
H554 C542 0.956 . S
H555 C542 0.961 . S
H556 C542 0.961 . S
H557 C543 0.958 . S
H558 C543 0.961 . S
H559 C543 0.960 . S
C560 C561 1.391 1_545 S
C560 C562 1.394 . S
C560 H576 0.931 . S
C561 C560 1.391 1_565 S
C561 C565 1.376 . S
C562 C560 1.394 . S
C562 C563 1.369 1_545 S
C562 C566 1.531 . S
C563 C562 1.369 1_565 S
C563 C564 1.410 . S
C563 C571 1.503 . S
C564 C563 1.410 . S
C564 C565 1.392 . S
C564 C567 1.511 . S
C565 C561 1.376 . S
C565 C564 1.392 . S
C565 H577 0.929 . S
C566 C562 1.531 . S
C566 H578 0.960 . S
C566 H579 0.962 . S
C566 H580 0.960 . S
C567 C564 1.511 . S
C567 H581 0.961 . S
C567 H582 0.961 . S
C567 H583 0.961 . S
C568 C569 1.356 1_545 S
C568 C570 1.363 . S
C568 H584 0.931 . S
C569 C568 1.356 1_565 S
C569 C573 1.423 . S
C570 C568 1.363 . S
C570 C571 1.370 1_545 S
C570 C574 1.524 . S
C571 C563 1.503 . S
C571 C570 1.370 1_565 S
C571 C572 1.403 . S
C572 C571 1.403 . S
C572 C573 1.404 . S
C572 C575 1.539 . S
C573 C569 1.423 . S
C573 C572 1.404 . S
C573 H585 0.930 . S
C574 C570 1.524 . S
C574 H586 0.956 . S
C574 H587 0.961 . S
C574 H588 0.961 . S
C575 C572 1.539 . S
C575 H589 0.958 . S
C575 H590 0.961 . S
C575 H591 0.960 . S
H576 C560 0.931 . S
H577 C565 0.929 . S
H578 C566 0.960 . S
H579 C566 0.962 . S
H580 C566 0.960 . S
H581 C567 0.961 . S
H582 C567 0.961 . S
H583 C567 0.961 . S
H584 C568 0.931 . S
H585 C573 0.930 . S
H586 C574 0.956 . S
H587 C574 0.961 . S
H588 C574 0.961 . S
H589 C575 0.958 . S
H590 C575 0.961 . S
H591 C575 0.960 . S
C592 C593 1.391 1_455 S
C592 C594 1.394 . S
C592 H608 0.931 . S
C593 C592 1.391 1_655 S
C593 C597 1.376 . S
C594 C592 1.394 . S
C594 C595 1.369 1_455 S
C594 C598 1.531 . S
C595 C594 1.369 1_655 S
C595 C596 1.410 . S
C595 C603 1.503 . S
C596 C595 1.410 . S
C596 C597 1.392 . S
C596 C599 1.511 . S
C597 C593 1.376 . S
C597 C596 1.392 . S
C597 H609 0.929 . S
C598 C594 1.531 . S
C598 H610 0.960 . S
C598 H611 0.962 . S
C598 H612 0.960 . S
C599 C596 1.511 . S
C599 H613 0.961 . S
C599 H614 0.961 . S
C599 H615 0.961 . S
C600 C601 1.355 1_455 S
C600 C602 1.363 . S
C600 H616 0.931 . S
C601 C600 1.355 1_655 S
C601 C605 1.425 . S
C602 C600 1.363 . S
C602 C603 1.370 1_455 S
C602 C606 1.524 . S
C603 C595 1.503 . S
C603 C602 1.370 1_655 S
C603 C604 1.403 . S
C604 C603 1.403 . S
C604 C605 1.404 . S
C604 C607 1.539 . S
C605 C601 1.425 . S
C605 C604 1.404 . S
C605 H617 0.930 . S
C606 C602 1.524 . S
C606 H618 0.956 . S
C606 H619 0.961 . S
C606 H620 0.961 . S
C607 C604 1.539 . S
C607 H621 0.958 . S
C607 H622 0.961 . S
C607 H623 0.960 . S
H608 C592 0.931 . S
H609 C597 0.929 . S
H610 C598 0.960 . S
H611 C598 0.962 . S
H612 C598 0.960 . S
H613 C599 0.961 . S
H614 C599 0.961 . S
H615 C599 0.961 . S
H616 C600 0.931 . S
H617 C605 0.930 . S
H618 C606 0.956 . S
H619 C606 0.961 . S
H620 C606 0.961 . S
H621 C607 0.958 . S
H622 C607 0.961 . S
H623 C607 0.960 . S
C624 C625 1.391 . S
C624 C626 1.394 . S
C624 H640 0.931 . S
C625 C624 1.391 . S
C625 C629 1.376 1_545 S
C626 C624 1.394 . S
C626 C627 1.369 . S
C626 C630 1.531 . S
C627 C626 1.369 . S
C627 C628 1.410 1_545 S
C627 C635 1.503 . S
C628 C627 1.410 1_565 S
C628 C629 1.392 . S
C628 C631 1.511 . S
C629 C625 1.376 1_565 S
C629 C628 1.392 . S
C629 H641 0.929 . S
C630 C626 1.531 . S
C630 H642 0.960 . S
C630 H643 0.962 . S
C630 H644 0.960 . S
C631 C628 1.511 . S
C631 H645 0.961 . S
C631 H646 0.961 . S
C631 H647 0.961 . S
C632 C633 1.353 1_565 S
C632 C634 1.363 . S
C632 H648 0.931 . S
C633 C632 1.353 1_545 S
C633 C637 1.428 . S
C634 C632 1.363 . S
C634 C635 1.370 1_565 S
C634 C638 1.524 . S
C635 C627 1.503 . S
C635 C634 1.370 1_545 S
C635 C636 1.403 . S
C636 C635 1.403 . S
C636 C637 1.404 . S
C636 C639 1.539 . S
C637 C633 1.428 . S
C637 C636 1.404 . S
C637 H649 0.930 . S
C638 C634 1.524 . S
C638 H650 0.956 . S
C638 H651 0.961 . S
C638 H652 0.961 . S
C639 C636 1.539 . S
C639 H653 0.958 . S
C639 H654 0.961 . S
C639 H655 0.960 . S
H640 C624 0.931 . S
H641 C629 0.929 . S
H642 C630 0.960 . S
H643 C630 0.962 . S
H644 C630 0.960 . S
H645 C631 0.961 . S
H646 C631 0.961 . S
H647 C631 0.961 . S
H648 C632 0.931 . S
H649 C637 0.930 . S
H650 C638 0.956 . S
H651 C638 0.961 . S
H652 C638 0.961 . S
H653 C639 0.958 . S
H654 C639 0.961 . S
H655 C639 0.960 . S
C656 C657 1.391 . S
C656 C658 1.394 . S
C656 H672 0.931 . S
C657 C656 1.391 . S
C657 C661 1.376 . S
C658 C656 1.394 . S
C658 C659 1.369 . S
C658 C662 1.531 . S
C659 C658 1.369 . S
C659 C660 1.410 . S
C659 C667 1.503 . S
C660 C659 1.410 . S
C660 C661 1.392 . S
C660 C663 1.511 . S
C661 C657 1.376 . S
C661 C660 1.392 . S
C661 H673 0.929 . S
C662 C658 1.531 . S
C662 H674 0.960 . S
C662 H675 0.962 1_565 S
C662 H676 0.960 . S
C663 C660 1.511 . S
C663 H677 0.961 . S
C663 H678 0.961 . S
C663 H679 0.961 . S
C664 C665 1.338 1_545 S
C664 C666 1.363 . S
C664 H680 0.931 . S
C665 C664 1.338 1_565 S
C665 C669 1.444 . S
C666 C664 1.363 . S
C666 C667 1.370 1_545 S
C666 C670 1.524 . S
C667 C659 1.503 . S
C667 C666 1.370 1_565 S
C667 C668 1.403 . S
C668 C667 1.403 . S
C668 C669 1.404 . S
C668 C671 1.539 . S
C669 C665 1.444 . S
C669 C668 1.404 . S
C669 H681 0.930 . S
C670 C666 1.524 . S
C670 H682 0.956 . S
C670 H683 0.961 . S
C670 H684 0.961 . S
C671 C668 1.539 . S
C671 H685 0.958 . S
C671 H686 0.961 . S
C671 H687 0.960 . S
H672 C656 0.931 . S
H673 C661 0.929 . S
H674 C662 0.960 . S
H675 C662 0.962 1_545 S
H676 C662 0.960 . S
H677 C663 0.961 . S
H678 C663 0.961 . S
H679 C663 0.961 . S
H680 C664 0.931 . S
H681 C669 0.930 . S
H682 C670 0.956 . S
H683 C670 0.961 . S
H684 C670 0.961 . S
H685 C671 0.958 . S
H686 C671 0.961 . S
H687 C671 0.960 . S
C688 C689 1.391 . S
C688 C690 1.394 . S
C688 H704 0.931 . S
C689 C688 1.391 . S
C689 C693 1.376 1_455 S
C690 C688 1.394 . S
C690 C691 1.369 . S
C690 C694 1.531 . S
C691 C690 1.369 . S
C691 C692 1.410 1_455 S
C691 C699 1.503 . S
C692 C691 1.410 1_655 S
C692 C693 1.392 . S
C692 C695 1.511 . S
C693 C689 1.376 1_655 S
C693 C692 1.392 . S
C693 H705 0.929 . S
C694 C690 1.531 . S
C694 H706 0.960 . S
C694 H707 0.962 . S
C694 H708 0.960 . S
C695 C692 1.511 . S
C695 H709 0.961 . S
C695 H710 0.961 . S
C695 H711 0.961 . S
C696 C697 1.365 1_655 S
C696 C698 1.363 . S
C696 H712 0.931 . S
C697 C696 1.365 1_455 S
C697 C701 1.415 . S
C698 C696 1.363 . S
C698 C699 1.370 1_655 S
C698 C702 1.524 . S
C699 C691 1.503 . S
C699 C698 1.370 1_455 S
C699 C700 1.403 . S
C700 C699 1.403 . S
C700 C701 1.404 . S
C700 C703 1.539 . S
C701 C697 1.415 . S
C701 C700 1.404 . S
C701 H713 0.930 . S
C702 C698 1.524 . S
C702 H714 0.956 . S
C702 H715 0.961 . S
C702 H716 0.961 . S
C703 C700 1.539 . S
C703 H717 0.958 . S
C703 H718 0.961 . S
C703 H719 0.960 . S
H704 C688 0.931 . S
H705 C693 0.929 . S
H706 C694 0.960 . S
H707 C694 0.962 . S
H708 C694 0.960 . S
H709 C695 0.961 . S
H710 C695 0.961 . S
H711 C695 0.961 . S
H712 C696 0.931 . S
H713 C701 0.930 . S
H714 C702 0.956 . S
H715 C702 0.961 . S
H716 C702 0.961 . S
H717 C703 0.958 . S
H718 C703 0.961 . S
H719 C703 0.960 . S
C720 C721 1.415 . S
C720 C722 1.394 . S
C720 H736 0.931 . S
C721 C720 1.415 . S
C721 C725 1.353 1_545 S
C722 C720 1.394 . S
C722 C723 1.369 . S
C722 C726 1.531 . S
C723 C722 1.369 . S
C723 C724 1.410 1_545 S
C723 C731 1.503 . S
C724 C723 1.410 1_565 S
C724 C725 1.392 . S
C724 C727 1.511 . S
C725 C721 1.353 1_565 S
C725 C724 1.392 . S
C725 H737 0.929 . S
C726 C722 1.531 . S
C726 H738 0.960 . S
C726 H739 0.962 . S
C726 H740 0.960 . S
C727 C724 1.511 . S
C727 H741 0.961 . S
C727 H742 0.961 . S
C727 H743 0.961 . S
C728 C729 1.369 1_565 S
C728 C730 1.363 . S
C728 H744 0.931 . S
C729 C728 1.369 1_545 S
C729 C733 1.409 . S
C730 C728 1.363 . S
C730 C731 1.370 1_565 S
C730 C734 1.524 . S
C731 C723 1.503 . S
C731 C730 1.370 1_545 S
C731 C732 1.403 . S
C732 C731 1.403 . S
C732 C733 1.404 . S
C732 C735 1.539 . S
C733 C729 1.409 . S
C733 C732 1.404 . S
C733 H745 0.930 . S
C734 C730 1.524 . S
C734 H746 0.956 1_565 S
C734 H747 0.961 . S
C734 H748 0.961 . S
C735 C732 1.539 . S
C735 H749 0.958 . S
C735 H750 0.961 . S
C735 H751 0.960 . S
H736 C720 0.931 . S
H737 C725 0.929 . S
H738 C726 0.960 . S
H739 C726 0.962 . S
H740 C726 0.960 . S
H741 C727 0.961 . S
H742 C727 0.961 . S
H743 C727 0.961 . S
H744 C728 0.931 . S
H745 C733 0.930 . S
H746 C734 0.956 1_545 S
H747 C734 0.961 . S
H748 C734 0.961 . S
H749 C735 0.958 . S
H750 C735 0.961 . S
H751 C735 0.960 . S
C752 C753 1.365 1_455 S
C752 C754 1.394 . S
C752 H768 0.931 . S
C753 C752 1.365 1_655 S
C753 C757 1.403 . S
C754 C752 1.394 . S
C754 C755 1.369 1_455 S
C754 C758 1.531 . S
C755 C754 1.369 1_655 S
C755 C756 1.410 . S
C755 C763 1.503 . S
C756 C755 1.410 . S
C756 C757 1.392 . S
C756 C759 1.511 . S
C757 C753 1.403 . S
C757 C756 1.392 . S
C757 H769 0.929 . S
C758 C754 1.531 . S
C758 H770 0.960 . S
C758 H771 0.962 . S
C758 H772 0.960 . S
C759 C756 1.511 . S
C759 H773 0.961 . S
C759 H774 0.961 . S
C759 H775 0.961 . S
C760 C761 1.366 1_455 S
C760 C762 1.363 . S
C760 H776 0.931 . S
C761 C760 1.366 1_655 S
C761 C765 1.413 . S
C762 C760 1.363 . S
C762 C763 1.370 1_455 S
C762 C766 1.524 . S
C763 C755 1.503 . S
C763 C762 1.370 1_655 S
C763 C764 1.403 . S
C764 C763 1.403 . S
C764 C765 1.404 . S
C764 C767 1.539 . S
C765 C761 1.413 . S
C765 C764 1.404 . S
C765 H777 0.930 . S
C766 C762 1.524 . S
C766 H778 0.956 . S
C766 H779 0.961 . S
C766 H780 0.961 . S
C767 C764 1.539 . S
C767 H781 0.958 . S
C767 H782 0.961 . S
C767 H783 0.960 . S
H768 C752 0.931 . S
H769 C757 0.929 . S
H770 C758 0.960 . S
H771 C758 0.962 . S
H772 C758 0.960 . S
H773 C759 0.961 . S
H774 C759 0.961 . S
H775 C759 0.961 . S
H776 C760 0.931 . S
H777 C765 0.930 . S
H778 C766 0.956 . S
H779 C766 0.961 . S
H780 C766 0.961 . S
H781 C767 0.958 . S
H782 C767 0.961 . S
H783 C767 0.960 . S
C784 C785 1.391 . S
C784 C786 1.394 . S
C784 H800 0.931 . S
C785 C784 1.391 . S
C785 C789 1.376 1_556 S
C786 C784 1.394 . S
C786 C787 1.369 . S
C786 C790 1.531 . S
C787 C786 1.369 . S
C787 C788 1.410 1_556 S
C787 C795 1.503 . S
C788 C787 1.410 1_554 S
C788 C789 1.392 . S
C788 C791 1.511 . S
C789 C785 1.376 1_554 S
C789 C788 1.392 . S
C789 H801 0.929 . S
C790 C786 1.531 . S
C790 H802 0.960 . S
C790 H803 0.962 . S
C790 H804 0.960 . S
C791 C788 1.511 . S
C791 H805 0.961 . S
C791 H806 0.961 . S
C791 H807 0.957 1_554 S
C792 C793 1.348 1_554 S
C792 C794 1.363 . S
C792 H808 0.931 . S
C793 C792 1.348 1_556 S
C793 C797 1.434 . S
C794 C792 1.363 . S
C794 C795 1.370 1_554 S
C794 C798 1.524 . S
C795 C787 1.503 . S
C795 C794 1.370 1_556 S
C795 C796 1.403 . S
C796 C795 1.403 . S
C796 C797 1.404 . S
C796 C799 1.539 . S
C797 C793 1.434 . S
C797 C796 1.404 . S
C797 H809 0.930 . S
C798 C794 1.524 . S
C798 H810 0.956 . S
C798 H811 0.961 . S
C798 H812 0.961 . S
C799 C796 1.539 . S
C799 H813 0.958 . S
C799 H814 0.961 . S
C799 H815 0.960 . S
H800 C784 0.931 . S
H801 C789 0.929 . S
H802 C790 0.960 . S
H803 C790 0.962 . S
H804 C790 0.960 . S
H805 C791 0.961 . S
H806 C791 0.961 . S
H807 C791 0.957 1_556 S
H808 C792 0.931 . S
H809 C797 0.930 . S
H810 C798 0.956 . S
H811 C798 0.961 . S
H812 C798 0.961 . S
H813 C799 0.958 . S
H814 C799 0.961 . S
H815 C799 0.960 . S
C816 C817 1.391 . S
C816 C818 1.394 . S
C816 H832 0.931 . S
C817 C816 1.391 . S
C817 C821 1.376 1_554 S
C818 C816 1.394 . S
C818 C819 1.369 . S
C818 C822 1.531 . S
C819 C818 1.369 . S
C819 C820 1.410 1_554 S
C819 C827 1.503 . S
C820 C819 1.410 1_556 S
C820 C821 1.392 . S
C820 C823 1.511 . S
C821 C817 1.376 1_556 S
C821 C820 1.392 . S
C821 H833 0.929 . S
C822 C818 1.531 . S
C822 H834 0.960 . S
C822 H835 0.962 . S
C822 H836 0.960 . S
C823 C820 1.511 . S
C823 H837 0.961 . S
C823 H838 0.961 . S
C823 H839 0.961 . S
C824 C825 1.346 1_556 S
C824 C826 1.363 . S
C824 H840 0.931 . S
C825 C824 1.346 1_554 S
C825 C829 1.436 . S
C826 C824 1.363 . S
C826 C827 1.370 1_556 S
C826 C830 1.524 . S
C827 C819 1.503 . S
C827 C826 1.370 1_554 S
C827 C828 1.403 . S
C828 C827 1.403 . S
C828 C829 1.404 . S
C828 C831 1.539 . S
C829 C825 1.436 . S
C829 C828 1.404 . S
C829 H841 0.930 . S
C830 C826 1.524 . S
C830 H842 0.956 . S
C830 H843 0.961 . S
C830 H844 0.961 . S
C831 C828 1.539 . S
C831 H845 0.958 . S
C831 H846 0.961 . S
C831 H847 0.960 . S
H832 C816 0.931 . S
H833 C821 0.929 . S
H834 C822 0.960 . S
H835 C822 0.962 . S
H836 C822 0.960 . S
H837 C823 0.961 . S
H838 C823 0.961 . S
H839 C823 0.961 . S
H840 C824 0.931 . S
H841 C829 0.930 . S
H842 C830 0.956 . S
H843 C830 0.961 . S
H844 C830 0.961 . S
H845 C831 0.958 . S
H846 C831 0.961 . S
H847 C831 0.960 . S
C848 C849 1.391 . S
C848 C850 1.394 . S
C848 H864 0.931 . S
C849 C848 1.391 . S
C849 C853 1.376 . S
C850 C848 1.394 . S
C850 C851 1.369 . S
C850 C854 1.531 . S
C851 C850 1.369 . S
C851 C852 1.410 . S
C851 C859 1.503 . S
C852 C851 1.410 . S
C852 C853 1.392 . S
C852 C855 1.511 . S
C853 C849 1.376 . S
C853 C852 1.392 . S
C853 H865 0.929 1_556 S
C854 C850 1.531 . S
C854 H866 0.960 . S
C854 H867 0.962 1_556 S
C854 H868 0.960 . S
C855 C852 1.511 . S
C855 H869 0.961 1_556 S
C855 H870 0.961 1_556 S
C855 H871 0.961 . S
C856 C857 1.340 1_554 S
C856 C858 1.363 . S
C856 H872 0.931 . S
C857 C856 1.340 1_556 S
C857 C861 1.442 . S
C858 C856 1.363 . S
C858 C859 1.370 1_554 S
C858 C862 1.524 . S
C859 C851 1.503 . S
C859 C858 1.370 1_556 S
C859 C860 1.403 . S
C860 C859 1.403 . S
C860 C861 1.404 . S
C860 C863 1.539 . S
C861 C857 1.442 . S
C861 C860 1.404 . S
C861 H873 0.930 . S
C862 C858 1.524 . S
C862 H874 0.956 . S
C862 H875 0.961 . S
C862 H876 0.961 . S
C863 C860 1.539 . S
C863 H877 0.958 . S
C863 H878 0.961 . S
C863 H879 0.960 . S
H864 C848 0.931 . S
H865 C853 0.929 1_554 S
H866 C854 0.960 . S
H867 C854 0.962 1_554 S
H868 C854 0.960 . S
H869 C855 0.961 1_554 S
H870 C855 0.961 1_554 S
H871 C855 0.961 . S
H872 C856 0.931 . S
H873 C861 0.930 . S
H874 C862 0.956 . S
H875 C862 0.961 . S
H876 C862 0.961 . S
H877 C863 0.958 . S
H878 C863 0.961 . S
H879 C863 0.960 . S
C880 C881 1.421 . S
C880 C882 1.394 . S
C880 H896 0.931 . S
C881 C880 1.421 . S
C881 C885 1.348 1_556 S
C882 C880 1.394 . S
C882 C883 1.369 . S
C882 C886 1.531 . S
C883 C882 1.369 . S
C883 C884 1.410 1_556 S
C883 C891 1.503 . S
C884 C883 1.410 1_554 S
C884 C885 1.392 . S
C884 C887 1.511 . S
C885 C881 1.348 1_554 S
C885 C884 1.392 . S
C885 H897 0.929 . S
C886 C882 1.531 . S
C886 H898 0.960 . S
C886 H899 0.962 . S
C886 H900 0.960 . S
C887 C884 1.511 . S
C887 H901 0.961 . S
C887 H902 0.961 . S
C887 H903 0.961 . S
C888 C889 1.370 1_554 S
C888 C890 1.363 . S
C888 H904 0.931 . S
C889 C888 1.370 1_556 S
C889 C893 1.409 . S
C890 C888 1.363 . S
C890 C891 1.370 1_554 S
C890 C894 1.524 . S
C891 C883 1.503 . S
C891 C890 1.370 1_556 S
C891 C892 1.403 . S
C892 C891 1.403 . S
C892 C893 1.404 . S
C892 C895 1.539 . S
C893 C889 1.409 . S
C893 C892 1.404 . S
C893 H905 0.930 . S
C894 C890 1.524 . S
C894 H906 0.956 . S
C894 H907 0.961 . S
C894 H908 0.961 . S
C895 C892 1.539 . S
C895 H909 0.958 . S
C895 H910 0.961 . S
C895 H911 0.960 . S
H896 C880 0.931 . S
H897 C885 0.929 . S
H898 C886 0.960 . S
H899 C886 0.962 . S
H900 C886 0.960 . S
H901 C887 0.961 . S
H902 C887 0.961 . S
H903 C887 0.961 . S
H904 C888 0.931 . S
H905 C893 0.930 . S
H906 C894 0.956 . S
H907 C894 0.961 . S
H908 C894 0.961 . S
H909 C895 0.958 . S
H910 C895 0.961 . S
H911 C895 0.960 . S
C912 C913 1.391 . S
C912 C914 1.394 . S
C912 H928 0.931 . S
C913 C912 1.391 . S
C913 C917 1.376 . S
C914 C912 1.394 . S
C914 C915 1.369 . S
C914 C918 1.531 . S
C915 C914 1.369 . S
C915 C916 1.410 . S
C915 C923 1.503 1_556 S
C916 C915 1.410 . S
C916 C917 1.392 . S
C916 C919 1.511 . S
C917 C913 1.376 . S
C917 C916 1.392 . S
C917 H929 0.929 . S
C918 C914 1.531 . S
C918 H930 0.960 1_556 S
C918 H931 0.962 . S
C918 H932 0.960 . S
C919 C916 1.511 . S
C919 H933 0.961 . S
C919 H934 0.961 1_556 S
C919 H935 0.961 . S
C920 C921 1.370 . S
C920 C922 1.363 . S
C920 H936 0.931 . S
C921 C920 1.370 . S
C921 C925 1.408 . S
C922 C920 1.363 . S
C922 C923 1.370 . S
C922 C926 1.524 . S
C923 C915 1.503 1_554 S
C923 C922 1.370 . S
C923 C924 1.403 . S
C924 C923 1.403 . S
C924 C925 1.404 . S
C924 C927 1.539 . S
C925 C921 1.408 . S
C925 C924 1.404 . S
C925 H937 0.930 . S
C926 C922 1.524 . S
C926 H938 0.956 . S
C926 H939 0.961 1_554 S
C926 H940 0.961 . S
C927 C924 1.539 . S
C927 H941 0.958 . S
C927 H942 0.961 . S
C927 H943 0.971 . S
H928 C912 0.931 . S
H929 C917 0.929 . S
H930 C918 0.960 1_554 S
H931 C918 0.962 . S
H932 C918 0.960 . S
H933 C919 0.961 . S
H934 C919 0.961 1_554 S
H935 C919 0.961 . S
H936 C920 0.931 . S
H937 C925 0.930 . S
H938 C926 0.956 . S
H939 C926 0.961 1_556 S
H940 C926 0.961 . S
H941 C927 0.958 . S
H942 C927 0.961 . S
H943 C927 0.971 . S
C944 C945 1.391 . S
C944 C946 1.394 . S
C944 H960 0.931 . S
C945 C944 1.391 . S
C945 C949 1.376 . S
C946 C944 1.394 . S
C946 C947 1.369 . S
C946 C950 1.531 . S
C947 C946 1.369 . S
C947 C948 1.410 . S
C947 C955 1.503 1_554 S
C948 C947 1.410 . S
C948 C949 1.392 . S
C948 C951 1.511 . S
C949 C945 1.376 . S
C949 C948 1.392 . S
C949 H961 0.929 . S
C950 C946 1.531 . S
C950 H962 0.960 1_554 S
C950 H963 0.962 . S
C950 H964 0.960 . S
C951 C948 1.511 . S
C951 H965 0.961 . S
C951 H966 0.961 1_554 S
C951 H967 0.961 . S
C952 C953 1.370 . S
C952 C954 1.363 . S
C952 H968 0.931 . S
C953 C952 1.370 . S
C953 C957 1.408 . S
C954 C952 1.363 . S
C954 C955 1.370 . S
C954 C958 1.524 . S
C955 C947 1.503 1_556 S
C955 C954 1.370 . S
C955 C956 1.403 . S
C956 C955 1.403 . S
C956 C957 1.404 . S
C956 C959 1.539 . S
C957 C953 1.408 . S
C957 C956 1.404 . S
C957 H969 0.930 . S
C958 C954 1.524 . S
C958 H970 0.956 . S
C958 H971 0.961 1_556 S
C958 H972 0.961 . S
C959 C956 1.539 . S
C959 H973 0.958 . S
C959 H974 0.961 . S
C959 H975 0.971 . S
H960 C944 0.931 . S
H961 C949 0.929 . S
H962 C950 0.960 1_556 S
H963 C950 0.962 . S
H964 C950 0.960 . S
H965 C951 0.961 . S
H966 C951 0.961 1_556 S
H967 C951 0.961 . S
H968 C952 0.931 . S
H969 C957 0.930 . S
H970 C958 0.956 . S
H971 C958 0.961 1_554 S
H972 C958 0.961 . S
H973 C959 0.958 . S
H974 C959 0.961 . S
H975 C959 0.971 . S
C976 C977 1.391 . S
C976 C978 1.394 . S
C976 H992 0.931 . S
C977 C976 1.391 . S
C977 C981 1.376 . S
C978 C976 1.394 . S
C978 C979 1.369 . S
C978 C982 1.531 . S
C979 C978 1.369 . S
C979 C980 1.410 . S
C979 C987 1.503 1_556 S
C980 C979 1.410 . S
C980 C981 1.392 . S
C980 C983 1.511 . S
C981 C977 1.376 . S
C981 C980 1.392 . S
C981 H993 0.929 . S
C982 C978 1.531 . S
C982 H994 0.960 1_556 S
C982 H995 0.962 . S
C982 H996 0.960 . S
C983 C980 1.511 . S
C983 H997 0.961 . S
C983 H998 0.961 1_556 S
C983 H999 0.961 . S
C984 C985 1.370 . S
C984 C986 1.363 . S
C984 H1000 0.931 . S
C985 C984 1.370 . S
C985 C989 1.408 . S
C986 C984 1.363 . S
C986 C987 1.370 . S
C986 C990 1.524 . S
C987 C979 1.503 1_554 S
C987 C986 1.370 . S
C987 C988 1.403 . S
C988 C987 1.403 . S
C988 C989 1.404 . S
C988 C991 1.539 . S
C989 C985 1.408 . S
C989 C988 1.404 . S
C989 H1001 0.930 . S
C990 C986 1.524 . S
C990 H1002 0.956 . S
C990 H1003 0.961 1_554 S
C990 H1004 0.961 . S
C991 C988 1.539 . S
C991 H1005 0.958 . S
C991 H1006 0.961 . S
C991 H1007 0.971 . S
H992 C976 0.931 . S
H993 C981 0.929 . S
H994 C982 0.960 1_554 S
H995 C982 0.962 . S
H996 C982 0.960 . S
H997 C983 0.961 . S
H998 C983 0.961 1_554 S
H999 C983 0.961 . S
H1000 C984 0.931 . S
H1001 C989 0.930 . S
H1002 C990 0.956 . S
H1003 C990 0.961 1_556 S
H1004 C990 0.961 . S
H1005 C991 0.958 . S
H1006 C991 0.961 . S
H1007 C991 0.971 . S
C1008 C1009 1.391 . S
C1008 C1010 1.394 . S
C1008 H1024 0.931 . S
C1009 C1008 1.391 . S
C1009 C1013 1.376 . S
C1010 C1008 1.394 . S
C1010 C1011 1.369 . S
C1010 C1014 1.531 . S
C1011 C1010 1.369 . S
C1011 C1012 1.410 . S
C1011 C1019 1.503 1_556 S
C1012 C1011 1.410 . S
C1012 C1013 1.392 . S
C1012 C1015 1.511 . S
C1013 C1009 1.376 . S
C1013 C1012 1.392 . S
C1013 H1025 0.929 . S
C1014 C1010 1.531 . S
C1014 H1026 0.960 1_556 S
C1014 H1027 0.962 . S
C1014 H1028 0.960 . S
C1015 C1012 1.511 . S
C1015 H1029 0.961 . S
C1015 H1030 0.961 1_556 S
C1015 H1031 0.961 . S
C1016 C1017 1.370 . S
C1016 C1018 1.363 . S
C1016 H1032 0.931 . S
C1017 C1016 1.370 . S
C1017 C1021 1.408 . S
C1018 C1016 1.363 . S
C1018 C1019 1.370 . S
C1018 C1022 1.524 . S
C1019 C1011 1.503 1_554 S
C1019 C1018 1.370 . S
C1019 C1020 1.403 . S
C1020 C1019 1.403 . S
C1020 C1021 1.404 . S
C1020 C1023 1.539 . S
C1021 C1017 1.408 . S
C1021 C1020 1.404 . S
C1021 H1033 0.930 . S
C1022 C1018 1.524 . S
C1022 H1034 0.956 . S
C1022 H1035 0.961 1_554 S
C1022 H1036 0.961 . S
C1023 C1020 1.539 . S
C1023 H1037 0.958 . S
C1023 H1038 0.961 . S
C1023 H1039 0.971 . S
H1024 C1008 0.931 . S
H1025 C1013 0.929 . S
H1026 C1014 0.960 1_554 S
H1027 C1014 0.962 . S
H1028 C1014 0.960 . S
H1029 C1015 0.961 . S
H1030 C1015 0.961 1_554 S
H1031 C1015 0.961 . S
H1032 C1016 0.931 . S
H1033 C1021 0.930 . S
H1034 C1022 0.956 . S
H1035 C1022 0.961 1_556 S
H1036 C1022 0.961 . S
H1037 C1023 0.958 . S
H1038 C1023 0.961 . S
H1039 C1023 0.971 . S
C1040 C1041 1.391 . S
C1040 C1042 1.394 . S
C1040 H1056 0.931 . S
C1041 C1040 1.391 . S
C1041 C1045 1.376 . S
C1042 C1040 1.394 . S
C1042 C1043 1.369 . S
C1042 C1046 1.531 . S
C1043 C1042 1.369 . S
C1043 C1044 1.410 . S
C1043 C1051 1.503 1_655 S
C1044 C1043 1.410 . S
C1044 C1045 1.392 . S
C1044 C1047 1.511 . S
C1045 C1041 1.376 . S
C1045 C1044 1.392 . S
C1045 H1057 0.929 . S
C1046 C1042 1.531 . S
C1046 H1058 0.960 1_655 S
C1046 H1059 0.962 . S
C1046 H1060 0.960 . S
C1047 C1044 1.511 . S
C1047 H1061 0.961 . S
C1047 H1062 0.961 1_655 S
C1047 H1063 0.961 . S
C1048 C1049 1.370 . S
C1048 C1050 1.363 . S
C1048 H1064 0.931 . S
C1049 C1048 1.370 . S
C1049 C1053 1.408 . S
C1050 C1048 1.363 . S
C1050 C1051 1.370 . S
C1050 C1054 1.524 . S
C1051 C1043 1.503 1_455 S
C1051 C1050 1.370 . S
C1051 C1052 1.403 . S
C1052 C1051 1.403 . S
C1052 C1053 1.404 . S
C1052 C1055 1.539 . S
C1053 C1049 1.408 . S
C1053 C1052 1.404 . S
C1053 H1065 0.930 . S
C1054 C1050 1.524 . S
C1054 H1066 0.956 . S
C1054 H1067 0.961 1_455 S
C1054 H1068 0.961 . S
C1055 C1052 1.539 . S
C1055 H1069 0.958 . S
C1055 H1070 0.961 . S
C1055 H1071 0.971 . S
H1056 C1040 0.931 . S
H1057 C1045 0.929 . S
H1058 C1046 0.960 1_455 S
H1059 C1046 0.962 . S
H1060 C1046 0.960 . S
H1061 C1047 0.961 . S
H1062 C1047 0.961 1_455 S
H1063 C1047 0.961 . S
H1064 C1048 0.931 . S
H1065 C1053 0.930 . S
H1066 C1054 0.956 . S
H1067 C1054 0.961 1_655 S
H1068 C1054 0.961 . S
H1069 C1055 0.958 . S
H1070 C1055 0.961 . S
H1071 C1055 0.971 . S
C1072 C1073 1.391 . S
C1072 C1074 1.394 . S
C1072 H1088 0.931 . S
C1073 C1072 1.391 . S
C1073 C1077 1.376 . S
C1074 C1072 1.394 . S
C1074 C1075 1.369 . S
C1074 C1078 1.531 . S
C1075 C1074 1.369 . S
C1075 C1076 1.410 . S
C1075 C1083 1.503 1_545 S
C1076 C1075 1.410 . S
C1076 C1077 1.392 . S
C1076 C1079 1.511 . S
C1077 C1073 1.376 . S
C1077 C1076 1.392 . S
C1077 H1089 0.929 . S
C1078 C1074 1.531 . S
C1078 H1090 0.960 1_545 S
C1078 H1091 0.962 . S
C1078 H1092 0.960 . S
C1079 C1076 1.511 . S
C1079 H1093 0.961 . S
C1079 H1094 0.961 1_545 S
C1079 H1095 0.961 . S
C1080 C1081 1.370 . S
C1080 C1082 1.363 . S
C1080 H1096 0.931 . S
C1081 C1080 1.370 . S
C1081 C1085 1.408 . S
C1082 C1080 1.363 . S
C1082 C1083 1.370 . S
C1082 C1086 1.524 . S
C1083 C1075 1.503 1_565 S
C1083 C1082 1.370 . S
C1083 C1084 1.403 . S
C1084 C1083 1.403 . S
C1084 C1085 1.404 . S
C1084 C1087 1.539 . S
C1085 C1081 1.408 . S
C1085 C1084 1.404 . S
C1085 H1097 0.930 . S
C1086 C1082 1.524 . S
C1086 H1098 0.956 . S
C1086 H1099 0.961 1_565 S
C1086 H1100 0.961 . S
C1087 C1084 1.539 . S
C1087 H1101 0.958 . S
C1087 H1102 0.961 . S
C1087 H1103 0.971 . S
H1088 C1072 0.931 . S
H1089 C1077 0.929 . S
H1090 C1078 0.960 1_565 S
H1091 C1078 0.962 . S
H1092 C1078 0.960 . S
H1093 C1079 0.961 . S
H1094 C1079 0.961 1_565 S
H1095 C1079 0.961 . S
H1096 C1080 0.931 . S
H1097 C1085 0.930 . S
H1098 C1086 0.956 . S
H1099 C1086 0.961 1_545 S
H1100 C1086 0.961 . S
H1101 C1087 0.958 . S
H1102 C1087 0.961 . S
H1103 C1087 0.971 . S
C1104 C1105 1.391 . S
C1104 C1106 1.394 . S
C1104 H1120 0.931 . S
C1105 C1104 1.391 . S
C1105 C1109 1.376 . S
C1106 C1104 1.394 . S
C1106 C1107 1.369 . S
C1106 C1110 1.531 . S
C1107 C1106 1.369 . S
C1107 C1108 1.410 . S
C1107 C1115 1.503 1_655 S
C1108 C1107 1.410 . S
C1108 C1109 1.392 . S
C1108 C1111 1.511 . S
C1109 C1105 1.376 . S
C1109 C1108 1.392 . S
C1109 H1121 0.929 . S
C1110 C1106 1.531 . S
C1110 H1122 0.960 1_655 S
C1110 H1123 0.962 . S
C1110 H1124 0.960 . S
C1111 C1108 1.511 . S
C1111 H1125 0.961 . S
C1111 H1126 0.961 1_655 S
C1111 H1127 0.961 . S
C1112 C1113 1.370 . S
C1112 C1114 1.363 . S
C1112 H1128 0.931 . S
C1113 C1112 1.370 . S
C1113 C1117 1.408 . S
C1114 C1112 1.363 . S
C1114 C1115 1.370 . S
C1114 C1118 1.524 . S
C1115 C1107 1.503 1_455 S
C1115 C1114 1.370 . S
C1115 C1116 1.403 . S
C1116 C1115 1.403 . S
C1116 C1117 1.404 . S
C1116 C1119 1.539 . S
C1117 C1113 1.408 . S
C1117 C1116 1.404 . S
C1117 H1129 0.930 . S
C1118 C1114 1.524 . S
C1118 H1130 0.956 . S
C1118 H1131 0.961 1_455 S
C1118 H1132 0.961 . S
C1119 C1116 1.539 . S
C1119 H1133 0.958 . S
C1119 H1134 0.961 . S
C1119 H1135 0.971 . S
H1120 C1104 0.931 . S
H1121 C1109 0.929 . S
H1122 C1110 0.960 1_455 S
H1123 C1110 0.962 . S
H1124 C1110 0.960 . S
H1125 C1111 0.961 . S
H1126 C1111 0.961 1_455 S
H1127 C1111 0.961 . S
H1128 C1112 0.931 . S
H1129 C1117 0.930 . S
H1130 C1118 0.956 . S
H1131 C1118 0.961 1_655 S
H1132 C1118 0.961 . S
H1133 C1119 0.958 . S
H1134 C1119 0.961 . S
H1135 C1119 0.971 . S
C1136 C1137 1.391 . S
C1136 C1138 1.394 . S
C1136 H1152 0.931 . S
C1137 C1136 1.391 . S
C1137 C1141 1.376 . S
C1138 C1136 1.394 . S
C1138 C1139 1.369 . S
C1138 C1142 1.531 . S
C1139 C1138 1.369 . S
C1139 C1140 1.410 . S
C1139 C1147 1.503 1_565 S
C1140 C1139 1.410 . S
C1140 C1141 1.392 . S
C1140 C1143 1.511 . S
C1141 C1137 1.376 . S
C1141 C1140 1.392 . S
C1141 H1153 0.929 . S
C1142 C1138 1.531 . S
C1142 H1154 0.960 1_565 S
C1142 H1155 0.962 . S
C1142 H1156 0.960 . S
C1143 C1140 1.511 . S
C1143 H1157 0.961 . S
C1143 H1158 0.961 1_565 S
C1143 H1159 0.961 . S
C1144 C1145 1.370 . S
C1144 C1146 1.363 . S
C1144 H1160 0.931 . S
C1145 C1144 1.370 . S
C1145 C1149 1.408 . S
C1146 C1144 1.363 . S
C1146 C1147 1.370 . S
C1146 C1150 1.524 . S
C1147 C1139 1.503 1_545 S
C1147 C1146 1.370 . S
C1147 C1148 1.403 . S
C1148 C1147 1.403 . S
C1148 C1149 1.404 . S
C1148 C1151 1.539 . S
C1149 C1145 1.408 . S
C1149 C1148 1.404 . S
C1149 H1161 0.930 . S
C1150 C1146 1.524 . S
C1150 H1162 0.956 . S
C1150 H1163 0.961 1_545 S
C1150 H1164 0.961 . S
C1151 C1148 1.539 . S
C1151 H1165 0.958 . S
C1151 H1166 0.961 . S
C1151 H1167 0.971 . S
H1152 C1136 0.931 . S
H1153 C1141 0.929 . S
H1154 C1142 0.960 1_545 S
H1155 C1142 0.962 . S
H1156 C1142 0.960 . S
H1157 C1143 0.961 . S
H1158 C1143 0.961 1_545 S
H1159 C1143 0.961 . S
H1160 C1144 0.931 . S
H1161 C1149 0.930 . S
H1162 C1150 0.956 . S
H1163 C1150 0.961 1_565 S
H1164 C1150 0.961 . S
H1165 C1151 0.958 . S
H1166 C1151 0.961 . S
H1167 C1151 0.971 . S
C1168 C1169 1.391 . S
C1168 C1170 1.394 . S
C1168 H1184 0.931 . S
C1169 C1168 1.391 . S
C1169 C1173 1.376 . S
C1170 C1168 1.394 . S
C1170 C1171 1.369 . S
C1170 C1174 1.531 . S
C1171 C1170 1.369 . S
C1171 C1172 1.410 . S
C1171 C1179 1.503 1_565 S
C1172 C1171 1.410 . S
C1172 C1173 1.392 . S
C1172 C1175 1.511 . S
C1173 C1169 1.376 . S
C1173 C1172 1.392 . S
C1173 H1185 0.929 . S
C1174 C1170 1.531 . S
C1174 H1186 0.960 1_565 S
C1174 H1187 0.962 . S
C1174 H1188 0.960 . S
C1175 C1172 1.511 . S
C1175 H1189 0.961 . S
C1175 H1190 0.961 1_565 S
C1175 H1191 0.961 . S
C1176 C1177 1.370 . S
C1176 C1178 1.363 . S
C1176 H1192 0.931 . S
C1177 C1176 1.370 . S
C1177 C1181 1.408 . S
C1178 C1176 1.363 . S
C1178 C1179 1.370 . S
C1178 C1182 1.524 . S
C1179 C1171 1.503 1_545 S
C1179 C1178 1.370 . S
C1179 C1180 1.403 . S
C1180 C1179 1.403 . S
C1180 C1181 1.404 . S
C1180 C1183 1.539 . S
C1181 C1177 1.408 . S
C1181 C1180 1.404 . S
C1181 H1193 0.930 . S
C1182 C1178 1.524 . S
C1182 H1194 0.956 . S
C1182 H1195 0.961 1_545 S
C1182 H1196 0.961 . S
C1183 C1180 1.539 . S
C1183 H1197 0.958 . S
C1183 H1198 0.961 . S
C1183 H1199 0.971 . S
H1184 C1168 0.931 . S
H1185 C1173 0.929 . S
H1186 C1174 0.960 1_545 S
H1187 C1174 0.962 . S
H1188 C1174 0.960 . S
H1189 C1175 0.961 . S
H1190 C1175 0.961 1_545 S
H1191 C1175 0.961 . S
H1192 C1176 0.931 . S
H1193 C1181 0.930 . S
H1194 C1182 0.956 . S
H1195 C1182 0.961 1_565 S
H1196 C1182 0.961 . S
H1197 C1183 0.958 . S
H1198 C1183 0.961 . S
H1199 C1183 0.971 . S
C1200 C1201 1.391 . S
C1200 C1202 1.394 . S
C1200 H1216 0.931 . S
C1201 C1200 1.391 . S
C1201 C1205 1.376 . S
C1202 C1200 1.394 . S
C1202 C1203 1.369 . S
C1202 C1206 1.531 . S
C1203 C1202 1.369 . S
C1203 C1204 1.410 . S
C1203 C1211 1.503 1_455 S
C1204 C1203 1.410 . S
C1204 C1205 1.392 . S
C1204 C1207 1.511 . S
C1205 C1201 1.376 . S
C1205 C1204 1.392 . S
C1205 H1217 0.929 . S
C1206 C1202 1.531 . S
C1206 H1218 0.960 1_455 S
C1206 H1219 0.962 . S
C1206 H1220 0.960 . S
C1207 C1204 1.511 . S
C1207 H1221 0.961 . S
C1207 H1222 0.961 1_455 S
C1207 H1223 0.961 . S
C1208 C1209 1.370 . S
C1208 C1210 1.363 . S
C1208 H1224 0.931 . S
C1209 C1208 1.370 . S
C1209 C1213 1.408 . S
C1210 C1208 1.363 . S
C1210 C1211 1.370 . S
C1210 C1214 1.524 . S
C1211 C1203 1.503 1_655 S
C1211 C1210 1.370 . S
C1211 C1212 1.403 . S
C1212 C1211 1.403 . S
C1212 C1213 1.404 . S
C1212 C1215 1.539 . S
C1213 C1209 1.408 . S
C1213 C1212 1.404 . S
C1213 H1225 0.930 . S
C1214 C1210 1.524 . S
C1214 H1226 0.956 . S
C1214 H1227 0.961 1_655 S
C1214 H1228 0.961 . S
C1215 C1212 1.539 . S
C1215 H1229 0.958 . S
C1215 H1230 0.961 . S
C1215 H1231 0.971 . S
H1216 C1200 0.931 . S
H1217 C1205 0.929 . S
H1218 C1206 0.960 1_655 S
H1219 C1206 0.962 . S
H1220 C1206 0.960 . S
H1221 C1207 0.961 . S
H1222 C1207 0.961 1_655 S
H1223 C1207 0.961 . S
H1224 C1208 0.931 . S
H1225 C1213 0.930 . S
H1226 C1214 0.956 . S
H1227 C1214 0.961 1_455 S
H1228 C1214 0.961 . S
H1229 C1215 0.958 . S
H1230 C1215 0.961 . S
H1231 C1215 0.971 . S
C1232 C1233 1.391 . S
C1232 C1234 1.394 . S
C1232 H1248 0.931 . S
C1233 C1232 1.391 . S
C1233 C1237 1.376 . S
C1234 C1232 1.394 . S
C1234 C1235 1.369 . S
C1234 C1238 1.531 . S
C1235 C1234 1.369 . S
C1235 C1236 1.410 . S
C1235 C1243 1.503 1_565 S
C1236 C1235 1.410 . S
C1236 C1237 1.392 . S
C1236 C1239 1.511 . S
C1237 C1233 1.376 . S
C1237 C1236 1.392 . S
C1237 H1249 0.929 . S
C1238 C1234 1.531 . S
C1238 H1250 0.960 1_565 S
C1238 H1251 0.962 . S
C1238 H1252 0.960 . S
C1239 C1236 1.511 . S
C1239 H1253 0.961 . S
C1239 H1254 0.961 1_565 S
C1239 H1255 0.961 . S
C1240 C1241 1.370 . S
C1240 C1242 1.363 . S
C1240 H1256 0.931 . S
C1241 C1240 1.370 . S
C1241 C1245 1.408 . S
C1242 C1240 1.363 . S
C1242 C1243 1.370 . S
C1242 C1246 1.524 . S
C1243 C1235 1.503 1_545 S
C1243 C1242 1.370 . S
C1243 C1244 1.403 . S
C1244 C1243 1.403 . S
C1244 C1245 1.404 . S
C1244 C1247 1.539 . S
C1245 C1241 1.408 . S
C1245 C1244 1.404 . S
C1245 H1257 0.930 . S
C1246 C1242 1.524 . S
C1246 H1258 0.956 . S
C1246 H1259 0.961 1_545 S
C1246 H1260 0.961 . S
C1247 C1244 1.539 . S
C1247 H1261 0.958 . S
C1247 H1262 0.961 . S
C1247 H1263 0.971 . S
H1248 C1232 0.931 . S
H1249 C1237 0.929 . S
H1250 C1238 0.960 1_545 S
H1251 C1238 0.962 . S
H1252 C1238 0.960 . S
H1253 C1239 0.961 . S
H1254 C1239 0.961 1_545 S
H1255 C1239 0.961 . S
H1256 C1240 0.931 . S
H1257 C1245 0.930 . S
H1258 C1246 0.956 . S
H1259 C1246 0.961 1_565 S
H1260 C1246 0.961 . S
H1261 C1247 0.958 . S
H1262 C1247 0.961 . S
H1263 C1247 0.971 . S
C1264 C1265 1.391 . S
C1264 C1266 1.394 . S
C1264 H1280 0.931 . S
C1265 C1264 1.391 . S
C1265 C1269 1.376 . S
C1266 C1264 1.394 . S
C1266 C1267 1.369 . S
C1266 C1270 1.531 . S
C1267 C1266 1.369 . S
C1267 C1268 1.410 . S
C1267 C1275 1.503 1_455 S
C1268 C1267 1.410 . S
C1268 C1269 1.392 . S
C1268 C1271 1.511 . S
C1269 C1265 1.376 . S
C1269 C1268 1.392 . S
C1269 H1281 0.929 . S
C1270 C1266 1.531 . S
C1270 H1282 0.960 1_455 S
C1270 H1283 0.962 . S
C1270 H1284 0.960 . S
C1271 C1268 1.511 . S
C1271 H1285 0.961 . S
C1271 H1286 0.961 1_455 S
C1271 H1287 0.961 . S
C1272 C1273 1.370 . S
C1272 C1274 1.363 . S
C1272 H1288 0.931 . S
C1273 C1272 1.370 . S
C1273 C1277 1.408 . S
C1274 C1272 1.363 . S
C1274 C1275 1.370 . S
C1274 C1278 1.524 . S
C1275 C1267 1.503 1_655 S
C1275 C1274 1.370 . S
C1275 C1276 1.403 . S
C1276 C1275 1.403 . S
C1276 C1277 1.404 . S
C1276 C1279 1.539 . S
C1277 C1273 1.408 . S
C1277 C1276 1.404 . S
C1277 H1289 0.930 . S
C1278 C1274 1.524 . S
C1278 H1290 0.956 . S
C1278 H1291 0.961 1_655 S
C1278 H1292 0.961 . S
C1279 C1276 1.539 . S
C1279 H1293 0.958 . S
C1279 H1294 0.961 . S
C1279 H1295 0.971 . S
H1280 C1264 0.931 . S
H1281 C1269 0.929 . S
H1282 C1270 0.960 1_655 S
H1283 C1270 0.962 . S
H1284 C1270 0.960 . S
H1285 C1271 0.961 . S
H1286 C1271 0.961 1_655 S
H1287 C1271 0.961 . S
H1288 C1272 0.931 . S
H1289 C1277 0.930 . S
H1290 C1278 0.956 . S
H1291 C1278 0.961 1_455 S
H1292 C1278 0.961 . S
H1293 C1279 0.958 . S
H1294 C1279 0.961 . S
H1295 C1279 0.971 . S
C1296 C1297 1.391 . S
C1296 C1298 1.394 . S
C1296 H1312 0.931 . S
C1297 C1296 1.391 . S
C1297 C1301 1.376 . S
C1298 C1296 1.394 . S
C1298 C1299 1.369 . S
C1298 C1302 1.531 . S
C1299 C1298 1.369 . S
C1299 C1300 1.410 . S
C1299 C1307 1.503 . S
C1300 C1299 1.410 . S
C1300 C1301 1.392 . S
C1300 C1303 1.511 . S
C1301 C1297 1.376 . S
C1301 C1300 1.392 . S
C1301 H1313 0.929 . S
C1302 C1298 1.531 . S
C1302 H1314 0.960 . S
C1302 H1315 0.962 . S
C1302 H1316 0.960 . S
C1303 C1300 1.511 . S
C1303 H1317 0.961 . S
C1303 H1318 0.961 . S
C1303 H1319 0.961 . S
C1304 C1305 1.370 . S
C1304 C1306 1.363 . S
C1304 H1320 0.931 . S
C1305 C1304 1.370 . S
C1305 C1309 1.408 . S
C1306 C1304 1.363 . S
C1306 C1307 1.370 . S
C1306 C1310 1.524 . S
C1307 C1299 1.503 . S
C1307 C1306 1.370 . S
C1307 C1308 1.403 . S
C1308 C1307 1.403 . S
C1308 C1309 1.404 . S
C1308 C1311 1.539 . S
C1309 C1305 1.408 . S
C1309 C1308 1.404 . S
C1309 H1321 0.930 . S
C1310 C1306 1.524 . S
C1310 H1322 0.956 . S
C1310 H1323 0.961 . S
C1310 H1324 0.961 . S
C1311 C1308 1.539 . S
C1311 H1325 0.958 . S
C1311 H1326 0.961 . S
C1311 H1327 0.960 . S
H1312 C1296 0.931 . S
H1313 C1301 0.929 . S
H1314 C1302 0.960 . S
H1315 C1302 0.962 . S
H1316 C1302 0.960 . S
H1317 C1303 0.961 . S
H1318 C1303 0.961 . S
H1319 C1303 0.961 . S
H1320 C1304 0.931 . S
H1321 C1309 0.930 . S
H1322 C1310 0.956 . S
H1323 C1310 0.961 . S
H1324 C1310 0.961 . S
H1325 C1311 0.958 . S
H1326 C1311 0.961 . S
H1327 C1311 0.960 . S
C1328 C1329 1.391 . S
C1328 C1330 1.394 . S
C1328 H1344 0.931 . S
C1329 C1328 1.391 . S
C1329 C1333 1.376 . S
C1330 C1328 1.394 . S
C1330 C1331 1.369 . S
C1330 C1334 1.531 . S
C1331 C1330 1.369 . S
C1331 C1332 1.410 . S
C1331 C1339 1.503 . S
C1332 C1331 1.410 . S
C1332 C1333 1.392 . S
C1332 C1335 1.511 . S
C1333 C1329 1.376 . S
C1333 C1332 1.392 . S
C1333 H1345 0.929 . S
C1334 C1330 1.531 . S
C1334 H1346 0.960 . S
C1334 H1347 0.962 . S
C1334 H1348 0.960 . S
C1335 C1332 1.511 . S
C1335 H1349 0.961 . S
C1335 H1350 0.961 . S
C1335 H1351 0.961 . S
C1336 C1337 1.370 . S
C1336 C1338 1.363 . S
C1336 H1352 0.931 . S
C1337 C1336 1.370 . S
C1337 C1341 1.408 . S
C1338 C1336 1.363 . S
C1338 C1339 1.370 . S
C1338 C1342 1.524 . S
C1339 C1331 1.503 . S
C1339 C1338 1.370 . S
C1339 C1340 1.403 . S
C1340 C1339 1.403 . S
C1340 C1341 1.404 . S
C1340 C1343 1.539 . S
C1341 C1337 1.408 . S
C1341 C1340 1.404 . S
C1341 H1353 0.930 . S
C1342 C1338 1.524 . S
C1342 H1354 0.956 . S
C1342 H1355 0.961 . S
C1342 H1356 0.961 . S
C1343 C1340 1.539 . S
C1343 H1357 0.958 . S
C1343 H1358 0.961 . S
C1343 H1359 0.960 . S
H1344 C1328 0.931 . S
H1345 C1333 0.929 . S
H1346 C1334 0.960 . S
H1347 C1334 0.962 . S
H1348 C1334 0.960 . S
H1349 C1335 0.961 . S
H1350 C1335 0.961 . S
H1351 C1335 0.961 . S
H1352 C1336 0.931 . S
H1353 C1341 0.930 . S
H1354 C1342 0.956 . S
H1355 C1342 0.961 . S
H1356 C1342 0.961 . S
H1357 C1343 0.958 . S
H1358 C1343 0.961 . S
H1359 C1343 0.960 . S
C1360 C1361 1.391 . S
C1360 C1362 1.394 . S
C1360 H1376 0.931 . S
C1361 C1360 1.391 . S
C1361 C1365 1.376 . S
C1362 C1360 1.394 . S
C1362 C1363 1.369 . S
C1362 C1366 1.531 . S
C1363 C1362 1.369 . S
C1363 C1364 1.410 . S
C1363 C1371 1.503 . S
C1364 C1363 1.410 . S
C1364 C1365 1.392 . S
C1364 C1367 1.511 . S
C1365 C1361 1.376 . S
C1365 C1364 1.392 . S
C1365 H1377 0.929 . S
C1366 C1362 1.531 . S
C1366 H1378 0.960 . S
C1366 H1379 0.962 . S
C1366 H1380 0.960 . S
C1367 C1364 1.511 . S
C1367 H1381 0.961 . S
C1367 H1382 0.961 . S
C1367 H1383 0.961 . S
C1368 C1369 1.370 . S
C1368 C1370 1.363 . S
C1368 H1384 0.931 . S
C1369 C1368 1.370 . S
C1369 C1373 1.408 . S
C1370 C1368 1.363 . S
C1370 C1371 1.370 . S
C1370 C1374 1.524 . S
C1371 C1363 1.503 . S
C1371 C1370 1.370 . S
C1371 C1372 1.403 . S
C1372 C1371 1.403 . S
C1372 C1373 1.404 . S
C1372 C1375 1.539 . S
C1373 C1369 1.408 . S
C1373 C1372 1.404 . S
C1373 H1385 0.930 . S
C1374 C1370 1.524 . S
C1374 H1386 0.956 . S
C1374 H1387 0.961 . S
C1374 H1388 0.961 . S
C1375 C1372 1.539 . S
C1375 H1389 0.958 . S
C1375 H1390 0.961 . S
C1375 H1391 0.960 . S
H1376 C1360 0.931 . S
H1377 C1365 0.929 . S
H1378 C1366 0.960 . S
H1379 C1366 0.962 . S
H1380 C1366 0.960 . S
H1381 C1367 0.961 . S
H1382 C1367 0.961 . S
H1383 C1367 0.961 . S
H1384 C1368 0.931 . S
H1385 C1373 0.930 . S
H1386 C1374 0.956 . S
H1387 C1374 0.961 . S
H1388 C1374 0.961 . S
H1389 C1375 0.958 . S
H1390 C1375 0.961 . S
H1391 C1375 0.960 . S
C1392 C1393 1.391 . S
C1392 C1394 1.394 . S
C1392 H1408 0.931 . S
C1393 C1392 1.391 . S
C1393 C1397 1.376 . S
C1394 C1392 1.394 . S
C1394 C1395 1.369 . S
C1394 C1398 1.531 . S
C1395 C1394 1.369 . S
C1395 C1396 1.410 . S
C1395 C1403 1.503 . S
C1396 C1395 1.410 . S
C1396 C1397 1.392 . S
C1396 C1399 1.511 . S
C1397 C1393 1.376 . S
C1397 C1396 1.392 . S
C1397 H1409 0.929 . S
C1398 C1394 1.531 . S
C1398 H1410 0.960 . S
C1398 H1411 0.962 . S
C1398 H1412 0.960 . S
C1399 C1396 1.511 . S
C1399 H1413 0.961 . S
C1399 H1414 0.961 . S
C1399 H1415 0.961 . S
C1400 C1401 1.370 . S
C1400 C1402 1.363 . S
C1400 H1416 0.931 . S
C1401 C1400 1.370 . S
C1401 C1405 1.408 . S
C1402 C1400 1.363 . S
C1402 C1403 1.370 . S
C1402 C1406 1.524 . S
C1403 C1395 1.503 . S
C1403 C1402 1.370 . S
C1403 C1404 1.403 . S
C1404 C1403 1.403 . S
C1404 C1405 1.404 . S
C1404 C1407 1.539 . S
C1405 C1401 1.408 . S
C1405 C1404 1.404 . S
C1405 H1417 0.930 . S
C1406 C1402 1.524 . S
C1406 H1418 0.956 . S
C1406 H1419 0.961 . S
C1406 H1420 0.961 . S
C1407 C1404 1.539 . S
C1407 H1421 0.958 . S
C1407 H1422 0.961 . S
C1407 H1423 0.960 . S
H1408 C1392 0.931 . S
H1409 C1397 0.929 . S
H1410 C1398 0.960 . S
H1411 C1398 0.962 . S
H1412 C1398 0.960 . S
H1413 C1399 0.961 . S
H1414 C1399 0.961 . S
H1415 C1399 0.961 . S
H1416 C1400 0.931 . S
H1417 C1405 0.930 . S
H1418 C1406 0.956 . S
H1419 C1406 0.961 . S
H1420 C1406 0.961 . S
H1421 C1407 0.958 . S
H1422 C1407 0.961 . S
H1423 C1407 0.960 . S
C1424 C1425 1.391 . S
C1424 C1426 1.394 . S
C1424 H1440 0.931 . S
C1425 C1424 1.391 . S
C1425 C1429 1.376 . S
C1426 C1424 1.394 . S
C1426 C1427 1.369 . S
C1426 C1430 1.531 . S
C1427 C1426 1.369 . S
C1427 C1428 1.410 . S
C1427 C1435 1.503 . S
C1428 C1427 1.410 . S
C1428 C1429 1.392 . S
C1428 C1431 1.511 . S
C1429 C1425 1.376 . S
C1429 C1428 1.392 . S
C1429 H1441 0.929 . S
C1430 C1426 1.531 . S
C1430 H1442 0.960 . S
C1430 H1443 0.962 . S
C1430 H1444 0.960 . S
C1431 C1428 1.511 . S
C1431 H1445 0.961 . S
C1431 H1446 0.961 . S
C1431 H1447 0.961 . S
C1432 C1433 1.370 . S
C1432 C1434 1.363 . S
C1432 H1448 0.931 . S
C1433 C1432 1.370 . S
C1433 C1437 1.408 . S
C1434 C1432 1.363 . S
C1434 C1435 1.370 . S
C1434 C1438 1.524 . S
C1435 C1427 1.503 . S
C1435 C1434 1.370 . S
C1435 C1436 1.403 . S
C1436 C1435 1.403 . S
C1436 C1437 1.404 . S
C1436 C1439 1.539 . S
C1437 C1433 1.408 . S
C1437 C1436 1.404 . S
C1437 H1449 0.930 . S
C1438 C1434 1.524 . S
C1438 H1450 0.956 . S
C1438 H1451 0.961 . S
C1438 H1452 0.961 . S
C1439 C1436 1.539 . S
C1439 H1453 0.958 . S
C1439 H1454 0.961 . S
C1439 H1455 0.960 . S
H1440 C1424 0.931 . S
H1441 C1429 0.929 . S
H1442 C1430 0.960 . S
H1443 C1430 0.962 . S
H1444 C1430 0.960 . S
H1445 C1431 0.961 . S
H1446 C1431 0.961 . S
H1447 C1431 0.961 . S
H1448 C1432 0.931 . S
H1449 C1437 0.930 . S
H1450 C1438 0.956 . S
H1451 C1438 0.961 . S
H1452 C1438 0.961 . S
H1453 C1439 0.958 . S
H1454 C1439 0.961 . S
H1455 C1439 0.960 . S
C1456 C1457 1.391 . S
C1456 C1458 1.394 . S
C1456 H1472 0.931 . S
C1457 C1456 1.391 . S
C1457 C1461 1.376 . S
C1458 C1456 1.394 . S
C1458 C1459 1.369 . S
C1458 C1462 1.531 . S
C1459 C1458 1.369 . S
C1459 C1460 1.410 . S
C1459 C1467 1.503 . S
C1460 C1459 1.410 . S
C1460 C1461 1.392 . S
C1460 C1463 1.511 . S
C1461 C1457 1.376 . S
C1461 C1460 1.392 . S
C1461 H1473 0.929 . S
C1462 C1458 1.531 . S
C1462 H1474 0.960 . S
C1462 H1475 0.962 . S
C1462 H1476 0.960 . S
C1463 C1460 1.511 . S
C1463 H1477 0.961 . S
C1463 H1478 0.961 . S
C1463 H1479 0.961 . S
C1464 C1465 1.370 . S
C1464 C1466 1.363 . S
C1464 H1480 0.931 . S
C1465 C1464 1.370 . S
C1465 C1469 1.408 . S
C1466 C1464 1.363 . S
C1466 C1467 1.370 . S
C1466 C1470 1.524 . S
C1467 C1459 1.503 . S
C1467 C1466 1.370 . S
C1467 C1468 1.403 . S
C1468 C1467 1.403 . S
C1468 C1469 1.404 . S
C1468 C1471 1.539 . S
C1469 C1465 1.408 . S
C1469 C1468 1.404 . S
C1469 H1481 0.930 . S
C1470 C1466 1.524 . S
C1470 H1482 0.956 . S
C1470 H1483 0.961 . S
C1470 H1484 0.961 . S
C1471 C1468 1.539 . S
C1471 H1485 0.958 . S
C1471 H1486 0.961 . S
C1471 H1487 0.960 . S
H1472 C1456 0.931 . S
H1473 C1461 0.929 . S
H1474 C1462 0.960 . S
H1475 C1462 0.962 . S
H1476 C1462 0.960 . S
H1477 C1463 0.961 . S
H1478 C1463 0.961 . S
H1479 C1463 0.961 . S
H1480 C1464 0.931 . S
H1481 C1469 0.930 . S
H1482 C1470 0.956 . S
H1483 C1470 0.961 . S
H1484 C1470 0.961 . S
H1485 C1471 0.958 . S
H1486 C1471 0.961 . S
H1487 C1471 0.960 . S
C1488 C1489 1.391 . S
C1488 C1490 1.394 . S
C1488 H1504 0.931 . S
C1489 C1488 1.391 . S
C1489 C1493 1.376 . S
C1490 C1488 1.394 . S
C1490 C1491 1.369 . S
C1490 C1494 1.531 . S
C1491 C1490 1.369 . S
C1491 C1492 1.410 . S
C1491 C1499 1.503 . S
C1492 C1491 1.410 . S
C1492 C1493 1.392 . S
C1492 C1495 1.511 . S
C1493 C1489 1.376 . S
C1493 C1492 1.392 . S
C1493 H1505 0.929 . S
C1494 C1490 1.531 . S
C1494 H1506 0.960 . S
C1494 H1507 0.962 . S
C1494 H1508 0.960 . S
C1495 C1492 1.511 . S
C1495 H1509 0.961 . S
C1495 H1510 0.961 . S
C1495 H1511 0.961 . S
C1496 C1497 1.370 . S
C1496 C1498 1.363 . S
C1496 H1512 0.931 . S
C1497 C1496 1.370 . S
C1497 C1501 1.408 . S
C1498 C1496 1.363 . S
C1498 C1499 1.370 . S
C1498 C1502 1.524 . S
C1499 C1491 1.503 . S
C1499 C1498 1.370 . S
C1499 C1500 1.403 . S
C1500 C1499 1.403 . S
C1500 C1501 1.404 . S
C1500 C1503 1.539 . S
C1501 C1497 1.408 . S
C1501 C1500 1.404 . S
C1501 H1513 0.930 . S
C1502 C1498 1.524 . S
C1502 H1514 0.956 . S
C1502 H1515 0.961 . S
C1502 H1516 0.961 . S
C1503 C1500 1.539 . S
C1503 H1517 0.958 . S
C1503 H1518 0.961 . S
C1503 H1519 0.960 . S
H1504 C1488 0.931 . S
H1505 C1493 0.929 . S
H1506 C1494 0.960 . S
H1507 C1494 0.962 . S
H1508 C1494 0.960 . S
H1509 C1495 0.961 . S
H1510 C1495 0.961 . S
H1511 C1495 0.961 . S
H1512 C1496 0.931 . S
H1513 C1501 0.930 . S
H1514 C1502 0.956 . S
H1515 C1502 0.961 . S
H1516 C1502 0.961 . S
H1517 C1503 0.958 . S
H1518 C1503 0.961 . S
H1519 C1503 0.960 . S
C1520 C1521 1.391 . S
C1520 C1522 1.394 . S
C1520 H1536 0.931 . S
C1521 C1520 1.391 . S
C1521 C1525 1.376 . S
C1522 C1520 1.394 . S
C1522 C1523 1.369 . S
C1522 C1526 1.531 . S
C1523 C1522 1.369 . S
C1523 C1524 1.410 . S
C1523 C1531 1.503 . S
C1524 C1523 1.410 . S
C1524 C1525 1.392 . S
C1524 C1527 1.511 . S
C1525 C1521 1.376 . S
C1525 C1524 1.392 . S
C1525 H1537 0.929 . S
C1526 C1522 1.531 . S
C1526 H1538 0.960 . S
C1526 H1539 0.962 . S
C1526 H1540 0.960 . S
C1527 C1524 1.511 . S
C1527 H1541 0.961 . S
C1527 H1542 0.961 . S
C1527 H1543 0.961 . S
C1528 C1529 1.370 . S
C1528 C1530 1.363 . S
C1528 H1544 0.931 . S
C1529 C1528 1.370 . S
C1529 C1533 1.408 . S
C1530 C1528 1.363 . S
C1530 C1531 1.370 . S
C1530 C1534 1.524 . S
C1531 C1523 1.503 . S
C1531 C1530 1.370 . S
C1531 C1532 1.403 . S
C1532 C1531 1.403 . S
C1532 C1533 1.404 . S
C1532 C1535 1.539 . S
C1533 C1529 1.408 . S
C1533 C1532 1.404 . S
C1533 H1545 0.930 . S
C1534 C1530 1.524 . S
C1534 H1546 0.956 . S
C1534 H1547 0.961 . S
C1534 H1548 0.961 . S
C1535 C1532 1.539 . S
C1535 H1549 0.958 . S
C1535 H1550 0.961 . S
C1535 H1551 0.960 . S
H1536 C1520 0.931 . S
H1537 C1525 0.929 . S
H1538 C1526 0.960 . S
H1539 C1526 0.962 . S
H1540 C1526 0.960 . S
H1541 C1527 0.961 . S
H1542 C1527 0.961 . S
H1543 C1527 0.961 . S
H1544 C1528 0.931 . S
H1545 C1533 0.930 . S
H1546 C1534 0.956 . S
H1547 C1534 0.961 . S
H1548 C1534 0.961 . S
H1549 C1535 0.958 . S
H1550 C1535 0.961 . S
H1551 C1535 0.960 . S
C1552 C1553 1.391 . S
C1552 C1554 1.394 . S
C1552 H1568 0.931 . S
C1553 C1552 1.391 . S
C1553 C1557 1.376 . S
C1554 C1552 1.394 . S
C1554 C1555 1.369 . S
C1554 C1558 1.531 . S
C1555 C1554 1.369 . S
C1555 C1556 1.410 . S
C1555 C1563 1.503 . S
C1556 C1555 1.410 . S
C1556 C1557 1.392 . S
C1556 C1559 1.511 . S
C1557 C1553 1.376 . S
C1557 C1556 1.392 . S
C1557 H1569 0.929 . S
C1558 C1554 1.531 . S
C1558 H1570 0.960 . S
C1558 H1571 0.962 . S
C1558 H1572 0.960 . S
C1559 C1556 1.511 . S
C1559 H1573 0.961 . S
C1559 H1574 0.961 . S
C1559 H1575 0.961 . S
C1560 C1561 1.370 . S
C1560 C1562 1.363 . S
C1560 H1576 0.931 . S
C1561 C1560 1.370 . S
C1561 C1565 1.408 . S
C1562 C1560 1.363 . S
C1562 C1563 1.370 . S
C1562 C1566 1.524 . S
C1563 C1555 1.503 . S
C1563 C1562 1.370 . S
C1563 C1564 1.403 . S
C1564 C1563 1.403 . S
C1564 C1565 1.404 . S
C1564 C1567 1.539 . S
C1565 C1561 1.408 . S
C1565 C1564 1.404 . S
C1565 H1577 0.930 . S
C1566 C1562 1.524 . S
C1566 H1578 0.956 . S
C1566 H1579 0.961 . S
C1566 H1580 0.961 . S
C1567 C1564 1.539 . S
C1567 H1581 0.958 . S
C1567 H1582 0.961 . S
C1567 H1583 0.960 . S
H1568 C1552 0.931 . S
H1569 C1557 0.929 . S
H1570 C1558 0.960 . S
H1571 C1558 0.962 . S
H1572 C1558 0.960 . S
H1573 C1559 0.961 . S
H1574 C1559 0.961 . S
H1575 C1559 0.961 . S
H1576 C1560 0.931 . S
H1577 C1565 0.930 . S
H1578 C1566 0.956 . S
H1579 C1566 0.961 . S
H1580 C1566 0.961 . S
H1581 C1567 0.958 . S
H1582 C1567 0.961 . S
H1583 C1567 0.960 . S
C1584 C1585 1.391 . S
C1584 C1586 1.394 . S
C1584 H1600 0.931 . S
C1585 C1584 1.391 . S
C1585 C1589 1.376 . S
C1586 C1584 1.394 . S
C1586 C1587 1.369 . S
C1586 C1590 1.531 . S
C1587 C1586 1.369 . S
C1587 C1588 1.410 . S
C1587 C1595 1.503 . S
C1588 C1587 1.410 . S
C1588 C1589 1.392 . S
C1588 C1591 1.511 . S
C1589 C1585 1.376 . S
C1589 C1588 1.392 . S
C1589 H1601 0.929 . S
C1590 C1586 1.531 . S
C1590 H1602 0.960 . S
C1590 H1603 0.962 . S
C1590 H1604 0.960 . S
C1591 C1588 1.511 . S
C1591 H1605 0.961 . S
C1591 H1606 0.961 . S
C1591 H1607 0.961 . S
C1592 C1593 1.370 . S
C1592 C1594 1.363 . S
C1592 H1608 0.931 . S
C1593 C1592 1.370 . S
C1593 C1597 1.408 . S
C1594 C1592 1.363 . S
C1594 C1595 1.370 . S
C1594 C1598 1.524 . S
C1595 C1587 1.503 . S
C1595 C1594 1.370 . S
C1595 C1596 1.403 . S
C1596 C1595 1.403 . S
C1596 C1597 1.404 . S
C1596 C1599 1.539 . S
C1597 C1593 1.408 . S
C1597 C1596 1.404 . S
C1597 H1609 0.930 . S
C1598 C1594 1.524 . S
C1598 H1610 0.956 . S
C1598 H1611 0.961 . S
C1598 H1612 0.961 . S
C1599 C1596 1.539 . S
C1599 H1613 0.958 . S
C1599 H1614 0.961 . S
C1599 H1615 0.960 . S
H1600 C1584 0.931 . S
H1601 C1589 0.929 . S
H1602 C1590 0.960 . S
H1603 C1590 0.962 . S
H1604 C1590 0.960 . S
H1605 C1591 0.961 . S
H1606 C1591 0.961 . S
H1607 C1591 0.961 . S
H1608 C1592 0.931 . S
H1609 C1597 0.930 . S
H1610 C1598 0.956 . S
H1611 C1598 0.961 . S
H1612 C1598 0.961 . S
H1613 C1599 0.958 . S
H1614 C1599 0.961 . S
H1615 C1599 0.960 . S
C1616 C1617 1.391 . S
C1616 C1618 1.394 . S
C1616 H1632 0.931 . S
C1617 C1616 1.391 . S
C1617 C1621 1.376 . S
C1618 C1616 1.394 . S
C1618 C1619 1.369 . S
C1618 C1622 1.531 . S
C1619 C1618 1.369 . S
C1619 C1620 1.410 . S
C1619 C1627 1.503 . S
C1620 C1619 1.410 . S
C1620 C1621 1.392 . S
C1620 C1623 1.511 . S
C1621 C1617 1.376 . S
C1621 C1620 1.392 . S
C1621 H1633 0.929 . S
C1622 C1618 1.531 . S
C1622 H1634 0.960 . S
C1622 H1635 0.962 . S
C1622 H1636 0.960 . S
C1623 C1620 1.511 . S
C1623 H1637 0.961 . S
C1623 H1638 0.961 . S
C1623 H1639 0.961 . S
C1624 C1625 1.370 . S
C1624 C1626 1.363 . S
C1624 H1640 0.931 . S
C1625 C1624 1.370 . S
C1625 C1629 1.408 . S
C1626 C1624 1.363 . S
C1626 C1627 1.370 . S
C1626 C1630 1.524 . S
C1627 C1619 1.503 . S
C1627 C1626 1.370 . S
C1627 C1628 1.403 . S
C1628 C1627 1.403 . S
C1628 C1629 1.404 . S
C1628 C1631 1.539 . S
C1629 C1625 1.408 . S
C1629 C1628 1.404 . S
C1629 H1641 0.930 . S
C1630 C1626 1.524 . S
C1630 H1642 0.956 . S
C1630 H1643 0.961 . S
C1630 H1644 0.961 . S
C1631 C1628 1.539 . S
C1631 H1645 0.958 . S
C1631 H1646 0.961 . S
C1631 H1647 0.960 . S
H1632 C1616 0.931 . S
H1633 C1621 0.929 . S
H1634 C1622 0.960 . S
H1635 C1622 0.962 . S
H1636 C1622 0.960 . S
H1637 C1623 0.961 . S
H1638 C1623 0.961 . S
H1639 C1623 0.961 . S
H1640 C1624 0.931 . S
H1641 C1629 0.930 . S
H1642 C1630 0.956 . S
H1643 C1630 0.961 . S
H1644 C1630 0.961 . S
H1645 C1631 0.958 . S
H1646 C1631 0.961 . S
H1647 C1631 0.960 . S
C1648 C1649 1.391 . S
C1648 C1650 1.394 . S
C1648 H1664 0.931 . S
C1649 C1648 1.391 . S
C1649 C1653 1.376 . S
C1650 C1648 1.394 . S
C1650 C1651 1.369 . S
C1650 C1654 1.531 . S
C1651 C1650 1.369 . S
C1651 C1652 1.410 . S
C1651 C1659 1.503 . S
C1652 C1651 1.410 . S
C1652 C1653 1.392 . S
C1652 C1655 1.511 . S
C1653 C1649 1.376 . S
C1653 C1652 1.392 . S
C1653 H1665 0.929 . S
C1654 C1650 1.531 . S
C1654 H1666 0.960 . S
C1654 H1667 0.962 . S
C1654 H1668 0.960 . S
C1655 C1652 1.511 . S
C1655 H1669 0.961 . S
C1655 H1670 0.961 . S
C1655 H1671 0.961 . S
C1656 C1657 1.370 . S
C1656 C1658 1.363 . S
C1656 H1672 0.931 . S
C1657 C1656 1.370 . S
C1657 C1661 1.408 . S
C1658 C1656 1.363 . S
C1658 C1659 1.370 . S
C1658 C1662 1.524 . S
C1659 C1651 1.503 . S
C1659 C1658 1.370 . S
C1659 C1660 1.403 . S
C1660 C1659 1.403 . S
C1660 C1661 1.404 . S
C1660 C1663 1.539 . S
C1661 C1657 1.408 . S
C1661 C1660 1.404 . S
C1661 H1673 0.930 . S
C1662 C1658 1.524 . S
C1662 H1674 0.956 . S
C1662 H1675 0.961 . S
C1662 H1676 0.961 . S
C1663 C1660 1.539 . S
C1663 H1677 0.958 . S
C1663 H1678 0.961 . S
C1663 H1679 0.960 . S
H1664 C1648 0.931 . S
H1665 C1653 0.929 . S
H1666 C1654 0.960 . S
H1667 C1654 0.962 . S
H1668 C1654 0.960 . S
H1669 C1655 0.961 . S
H1670 C1655 0.961 . S
H1671 C1655 0.961 . S
H1672 C1656 0.931 . S
H1673 C1661 0.930 . S
H1674 C1662 0.956 . S
H1675 C1662 0.961 . S
H1676 C1662 0.961 . S
H1677 C1663 0.958 . S
H1678 C1663 0.961 . S
H1679 C1663 0.960 . S
C1680 C1681 1.391 . S
C1680 C1682 1.394 . S
C1680 H1696 0.931 . S
C1681 C1680 1.391 . S
C1681 C1685 1.376 . S
C1682 C1680 1.394 . S
C1682 C1683 1.369 . S
C1682 C1686 1.531 . S
C1683 C1682 1.369 . S
C1683 C1684 1.410 . S
C1683 C1691 1.503 . S
C1684 C1683 1.410 . S
C1684 C1685 1.392 . S
C1684 C1687 1.511 . S
C1685 C1681 1.376 . S
C1685 C1684 1.392 . S
C1685 H1697 0.929 . S
C1686 C1682 1.531 . S
C1686 H1698 0.960 . S
C1686 H1699 0.962 . S
C1686 H1700 0.960 . S
C1687 C1684 1.511 . S
C1687 H1701 0.961 . S
C1687 H1702 0.961 . S
C1687 H1703 0.961 . S
C1688 C1689 1.370 . S
C1688 C1690 1.363 . S
C1688 H1704 0.931 . S
C1689 C1688 1.370 . S
C1689 C1693 1.408 . S
C1690 C1688 1.363 . S
C1690 C1691 1.370 . S
C1690 C1694 1.524 . S
C1691 C1683 1.503 . S
C1691 C1690 1.370 . S
C1691 C1692 1.403 . S
C1692 C1691 1.403 . S
C1692 C1693 1.404 . S
C1692 C1695 1.539 . S
C1693 C1689 1.408 . S
C1693 C1692 1.404 . S
C1693 H1705 0.930 . S
C1694 C1690 1.524 . S
C1694 H1706 0.956 . S
C1694 H1707 0.961 . S
C1694 H1708 0.961 . S
C1695 C1692 1.539 . S
C1695 H1709 0.958 . S
C1695 H1710 0.961 . S
C1695 H1711 0.960 . S
H1696 C1680 0.931 . S
H1697 C1685 0.929 . S
H1698 C1686 0.960 . S
H1699 C1686 0.962 . S
H1700 C1686 0.960 . S
H1701 C1687 0.961 . S
H1702 C1687 0.961 . S
H1703 C1687 0.961 . S
H1704 C1688 0.931 . S
H1705 C1693 0.930 . S
H1706 C1694 0.956 . S
H1707 C1694 0.961 . S
H1708 C1694 0.961 . S
H1709 C1695 0.958 . S
H1710 C1695 0.961 . S
H1711 C1695 0.960 . S
C1712 C1713 1.391 . S
C1712 C1714 1.394 . S
C1712 H1728 0.931 . S
C1713 C1712 1.391 . S
C1713 C1717 1.376 . S
C1714 C1712 1.394 . S
C1714 C1715 1.369 . S
C1714 C1718 1.531 . S
C1715 C1714 1.369 . S
C1715 C1716 1.410 . S
C1715 C1723 1.503 . S
C1716 C1715 1.410 . S
C1716 C1717 1.392 . S
C1716 C1719 1.511 . S
C1717 C1713 1.376 . S
C1717 C1716 1.392 . S
C1717 H1729 0.929 . S
C1718 C1714 1.531 . S
C1718 H1730 0.960 . S
C1718 H1731 0.962 . S
C1718 H1732 0.960 . S
C1719 C1716 1.511 . S
C1719 H1733 0.961 . S
C1719 H1734 0.961 . S
C1719 H1735 0.961 . S
C1720 C1721 1.370 . S
C1720 C1722 1.363 . S
C1720 H1736 0.931 . S
C1721 C1720 1.370 . S
C1721 C1725 1.408 . S
C1722 C1720 1.363 . S
C1722 C1723 1.370 . S
C1722 C1726 1.524 . S
C1723 C1715 1.503 . S
C1723 C1722 1.370 . S
C1723 C1724 1.403 . S
C1724 C1723 1.403 . S
C1724 C1725 1.404 . S
C1724 C1727 1.539 . S
C1725 C1721 1.408 . S
C1725 C1724 1.404 . S
C1725 H1737 0.930 . S
C1726 C1722 1.524 . S
C1726 H1738 0.956 . S
C1726 H1739 0.961 . S
C1726 H1740 0.961 . S
C1727 C1724 1.539 . S
C1727 H1741 0.958 . S
C1727 H1742 0.961 . S
C1727 H1743 0.960 . S
H1728 C1712 0.931 . S
H1729 C1717 0.929 . S
H1730 C1718 0.960 . S
H1731 C1718 0.962 . S
H1732 C1718 0.960 . S
H1733 C1719 0.961 . S
H1734 C1719 0.961 . S
H1735 C1719 0.961 . S
H1736 C1720 0.931 . S
H1737 C1725 0.930 . S
H1738 C1726 0.956 . S
H1739 C1726 0.961 . S
H1740 C1726 0.961 . S
H1741 C1727 0.958 . S
H1742 C1727 0.961 . S
H1743 C1727 0.960 . S
C1744 C1745 1.391 . S
C1744 C1746 1.394 . S
C1744 H1760 0.931 . S
C1745 C1744 1.391 . S
C1745 C1749 1.376 . S
C1746 C1744 1.394 . S
C1746 C1747 1.369 . S
C1746 C1750 1.531 . S
C1747 C1746 1.369 . S
C1747 C1748 1.410 . S
C1747 C1755 1.503 . S
C1748 C1747 1.410 . S
C1748 C1749 1.392 . S
C1748 C1751 1.511 . S
C1749 C1745 1.376 . S
C1749 C1748 1.392 . S
C1749 H1761 0.929 . S
C1750 C1746 1.531 . S
C1750 H1762 0.960 . S
C1750 H1763 0.962 . S
C1750 H1764 0.960 . S
C1751 C1748 1.511 . S
C1751 H1765 0.961 . S
C1751 H1766 0.961 . S
C1751 H1767 0.961 . S
C1752 C1753 1.370 . S
C1752 C1754 1.363 . S
C1752 H1768 0.931 . S
C1753 C1752 1.370 . S
C1753 C1757 1.408 . S
C1754 C1752 1.363 . S
C1754 C1755 1.370 . S
C1754 C1758 1.524 . S
C1755 C1747 1.503 . S
C1755 C1754 1.370 . S
C1755 C1756 1.403 . S
C1756 C1755 1.403 . S
C1756 C1757 1.404 . S
C1756 C1759 1.539 . S
C1757 C1753 1.408 . S
C1757 C1756 1.404 . S
C1757 H1769 0.930 . S
C1758 C1754 1.524 . S
C1758 H1770 0.956 . S
C1758 H1771 0.961 . S
C1758 H1772 0.961 . S
C1759 C1756 1.539 . S
C1759 H1773 0.958 . S
C1759 H1774 0.961 . S
C1759 H1775 0.960 . S
H1760 C1744 0.931 . S
H1761 C1749 0.929 . S
H1762 C1750 0.960 . S
H1763 C1750 0.962 . S
H1764 C1750 0.960 . S
H1765 C1751 0.961 . S
H1766 C1751 0.961 . S
H1767 C1751 0.961 . S
H1768 C1752 0.931 . S
H1769 C1757 0.930 . S
H1770 C1758 0.956 . S
H1771 C1758 0.961 . S
H1772 C1758 0.961 . S
H1773 C1759 0.958 . S
H1774 C1759 0.961 . S
H1775 C1759 0.960 . S
C1776 C1777 1.391 . S
C1776 C1778 1.394 . S
C1776 H1792 0.931 . S
C1777 C1776 1.391 . S
C1777 C1781 1.376 . S
C1778 C1776 1.394 . S
C1778 C1779 1.369 . S
C1778 C1782 1.531 . S
C1779 C1778 1.369 . S
C1779 C1780 1.410 . S
C1779 C1787 1.503 . S
C1780 C1779 1.410 . S
C1780 C1781 1.392 . S
C1780 C1783 1.511 . S
C1781 C1777 1.376 . S
C1781 C1780 1.392 . S
C1781 H1793 0.929 . S
C1782 C1778 1.531 . S
C1782 H1794 0.960 . S
C1782 H1795 0.962 . S
C1782 H1796 0.960 . S
C1783 C1780 1.511 . S
C1783 H1797 0.961 . S
C1783 H1798 0.961 . S
C1783 H1799 0.961 . S
C1784 C1785 1.370 . S
C1784 C1786 1.363 . S
C1784 H1800 0.931 . S
C1785 C1784 1.370 . S
C1785 C1789 1.408 . S
C1786 C1784 1.363 . S
C1786 C1787 1.370 . S
C1786 C1790 1.524 . S
C1787 C1779 1.503 . S
C1787 C1786 1.370 . S
C1787 C1788 1.403 . S
C1788 C1787 1.403 . S
C1788 C1789 1.404 . S
C1788 C1791 1.539 . S
C1789 C1785 1.408 . S
C1789 C1788 1.404 . S
C1789 H1801 0.930 . S
C1790 C1786 1.524 . S
C1790 H1802 0.956 . S
C1790 H1803 0.961 . S
C1790 H1804 0.961 . S
C1791 C1788 1.539 . S
C1791 H1805 0.958 . S
C1791 H1806 0.961 . S
C1791 H1807 0.960 . S
H1792 C1776 0.931 . S
H1793 C1781 0.929 . S
H1794 C1782 0.960 . S
H1795 C1782 0.962 . S
H1796 C1782 0.960 . S
H1797 C1783 0.961 . S
H1798 C1783 0.961 . S
H1799 C1783 0.961 . S
H1800 C1784 0.931 . S
H1801 C1789 0.930 . S
H1802 C1790 0.956 . S
H1803 C1790 0.961 . S
H1804 C1790 0.961 . S
H1805 C1791 0.958 . S
H1806 C1791 0.961 . S
H1807 C1791 0.960 . S
C1808 C1809 1.391 . S
C1808 C1810 1.394 . S
C1808 H1824 0.931 . S
C1809 C1808 1.391 . S
C1809 C1813 1.376 . S
C1810 C1808 1.394 . S
C1810 C1811 1.369 . S
C1810 C1814 1.531 . S
C1811 C1810 1.369 . S
C1811 C1812 1.410 . S
C1811 C1819 1.503 . S
C1812 C1811 1.410 . S
C1812 C1813 1.392 . S
C1812 C1815 1.511 . S
C1813 C1809 1.376 . S
C1813 C1812 1.392 . S
C1813 H1825 0.929 . S
C1814 C1810 1.531 . S
C1814 H1826 0.960 . S
C1814 H1827 0.962 . S
C1814 H1828 0.960 . S
C1815 C1812 1.511 . S
C1815 H1829 0.961 . S
C1815 H1830 0.961 . S
C1815 H1831 0.961 . S
C1816 C1817 1.370 . S
C1816 C1818 1.363 . S
C1816 H1832 0.931 . S
C1817 C1816 1.370 . S
C1817 C1821 1.408 . S
C1818 C1816 1.363 . S
C1818 C1819 1.370 . S
C1818 C1822 1.524 . S
C1819 C1811 1.503 . S
C1819 C1818 1.370 . S
C1819 C1820 1.403 . S
C1820 C1819 1.403 . S
C1820 C1821 1.404 . S
C1820 C1823 1.539 . S
C1821 C1817 1.408 . S
C1821 C1820 1.404 . S
C1821 H1833 0.930 . S
C1822 C1818 1.524 . S
C1822 H1834 0.956 . S
C1822 H1835 0.961 . S
C1822 H1836 0.961 . S
C1823 C1820 1.539 . S
C1823 H1837 0.958 . S
C1823 H1838 0.961 . S
C1823 H1839 0.960 . S
H1824 C1808 0.931 . S
H1825 C1813 0.929 . S
H1826 C1814 0.960 . S
H1827 C1814 0.962 . S
H1828 C1814 0.960 . S
H1829 C1815 0.961 . S
H1830 C1815 0.961 . S
H1831 C1815 0.961 . S
H1832 C1816 0.931 . S
H1833 C1821 0.930 . S
H1834 C1822 0.956 . S
H1835 C1822 0.961 . S
H1836 C1822 0.961 . S
H1837 C1823 0.958 . S
H1838 C1823 0.961 . S
H1839 C1823 0.960 . S
C1840 C1841 1.391 . S
C1840 C1842 1.394 . S
C1840 H1856 0.931 . S
C1841 C1840 1.391 . S
C1841 C1845 1.376 . S
C1842 C1840 1.394 . S
C1842 C1843 1.369 . S
C1842 C1846 1.531 . S
C1843 C1842 1.369 . S
C1843 C1844 1.410 . S
C1843 C1851 1.503 . S
C1844 C1843 1.410 . S
C1844 C1845 1.392 . S
C1844 C1847 1.511 . S
C1845 C1841 1.376 . S
C1845 C1844 1.392 . S
C1845 H1857 0.929 . S
C1846 C1842 1.531 . S
C1846 H1858 0.960 . S
C1846 H1859 0.962 . S
C1846 H1860 0.960 . S
C1847 C1844 1.511 . S
C1847 H1861 0.961 . S
C1847 H1862 0.961 . S
C1847 H1863 0.961 . S
C1848 C1849 1.370 . S
C1848 C1850 1.363 . S
C1848 H1864 0.931 . S
C1849 C1848 1.370 . S
C1849 C1853 1.408 . S
C1850 C1848 1.363 . S
C1850 C1851 1.370 . S
C1850 C1854 1.524 . S
C1851 C1843 1.503 . S
C1851 C1850 1.370 . S
C1851 C1852 1.403 . S
C1852 C1851 1.403 . S
C1852 C1853 1.404 . S
C1852 C1855 1.539 . S
C1853 C1849 1.408 . S
C1853 C1852 1.404 . S
C1853 H1865 0.930 . S
C1854 C1850 1.524 . S
C1854 H1866 0.956 . S
C1854 H1867 0.961 . S
C1854 H1868 0.961 . S
C1855 C1852 1.539 . S
C1855 H1869 0.958 . S
C1855 H1870 0.961 . S
C1855 H1871 0.960 . S
H1856 C1840 0.931 . S
H1857 C1845 0.929 . S
H1858 C1846 0.960 . S
H1859 C1846 0.962 . S
H1860 C1846 0.960 . S
H1861 C1847 0.961 . S
H1862 C1847 0.961 . S
H1863 C1847 0.961 . S
H1864 C1848 0.931 . S
H1865 C1853 0.930 . S
H1866 C1854 0.956 . S
H1867 C1854 0.961 . S
H1868 C1854 0.961 . S
H1869 C1855 0.958 . S
H1870 C1855 0.961 . S
H1871 C1855 0.960 . S
C1872 C1873 1.391 . S
C1872 C1874 1.394 . S
C1872 H1888 0.931 . S
C1873 C1872 1.391 . S
C1873 C1877 1.376 . S
C1874 C1872 1.394 . S
C1874 C1875 1.369 . S
C1874 C1878 1.531 . S
C1875 C1874 1.369 . S
C1875 C1876 1.410 . S
C1875 C1883 1.503 . S
C1876 C1875 1.410 . S
C1876 C1877 1.392 . S
C1876 C1879 1.511 . S
C1877 C1873 1.376 . S
C1877 C1876 1.392 . S
C1877 H1889 0.929 . S
C1878 C1874 1.531 . S
C1878 H1890 0.960 . S
C1878 H1891 0.962 . S
C1878 H1892 0.960 . S
C1879 C1876 1.511 . S
C1879 H1893 0.961 . S
C1879 H1894 0.961 . S
C1879 H1895 0.961 . S
C1880 C1881 1.370 . S
C1880 C1882 1.363 . S
C1880 H1896 0.931 . S
C1881 C1880 1.370 . S
C1881 C1885 1.408 . S
C1882 C1880 1.363 . S
C1882 C1883 1.370 . S
C1882 C1886 1.524 . S
C1883 C1875 1.503 . S
C1883 C1882 1.370 . S
C1883 C1884 1.403 . S
C1884 C1883 1.403 . S
C1884 C1885 1.404 . S
C1884 C1887 1.539 . S
C1885 C1881 1.408 . S
C1885 C1884 1.404 . S
C1885 H1897 0.930 . S
C1886 C1882 1.524 . S
C1886 H1898 0.956 . S
C1886 H1899 0.961 . S
C1886 H1900 0.961 . S
C1887 C1884 1.539 . S
C1887 H1901 0.958 . S
C1887 H1902 0.961 . S
C1887 H1903 0.960 . S
H1888 C1872 0.931 . S
H1889 C1877 0.929 . S
H1890 C1878 0.960 . S
H1891 C1878 0.962 . S
H1892 C1878 0.960 . S
H1893 C1879 0.961 . S
H1894 C1879 0.961 . S
H1895 C1879 0.961 . S
H1896 C1880 0.931 . S
H1897 C1885 0.930 . S
H1898 C1886 0.956 . S
H1899 C1886 0.961 . S
H1900 C1886 0.961 . S
H1901 C1887 0.958 . S
H1902 C1887 0.961 . S
H1903 C1887 0.960 . S
C1904 C1905 1.391 . S
C1904 C1906 1.394 . S
C1904 H1920 0.931 . S
C1905 C1904 1.391 . S
C1905 C1909 1.376 . S
C1906 C1904 1.394 . S
C1906 C1907 1.369 . S
C1906 C1910 1.531 . S
C1907 C1906 1.369 . S
C1907 C1908 1.410 . S
C1907 C1915 1.503 . S
C1908 C1907 1.410 . S
C1908 C1909 1.392 . S
C1908 C1911 1.511 . S
C1909 C1905 1.376 . S
C1909 C1908 1.392 . S
C1909 H1921 0.929 . S
C1910 C1906 1.531 . S
C1910 H1922 0.960 . S
C1910 H1923 0.962 . S
C1910 H1924 0.960 . S
C1911 C1908 1.511 . S
C1911 H1925 0.961 . S
C1911 H1926 0.961 . S
C1911 H1927 0.961 . S
C1912 C1913 1.370 . S
C1912 C1914 1.363 . S
C1912 H1928 0.931 . S
C1913 C1912 1.370 . S
C1913 C1917 1.408 . S
C1914 C1912 1.363 . S
C1914 C1915 1.370 . S
C1914 C1918 1.524 . S
C1915 C1907 1.503 . S
C1915 C1914 1.370 . S
C1915 C1916 1.403 . S
C1916 C1915 1.403 . S
C1916 C1917 1.404 . S
C1916 C1919 1.539 . S
C1917 C1913 1.408 . S
C1917 C1916 1.404 . S
C1917 H1929 0.930 . S
C1918 C1914 1.524 . S
C1918 H1930 0.956 . S
C1918 H1931 0.961 . S
C1918 H1932 0.961 . S
C1919 C1916 1.539 . S
C1919 H1933 0.958 . S
C1919 H1934 0.961 . S
C1919 H1935 0.960 . S
H1920 C1904 0.931 . S
H1921 C1909 0.929 . S
H1922 C1910 0.960 . S
H1923 C1910 0.962 . S
H1924 C1910 0.960 . S
H1925 C1911 0.961 . S
H1926 C1911 0.961 . S
H1927 C1911 0.961 . S
H1928 C1912 0.931 . S
H1929 C1917 0.930 . S
H1930 C1918 0.956 . S
H1931 C1918 0.961 . S
H1932 C1918 0.961 . S
H1933 C1919 0.958 . S
H1934 C1919 0.961 . S
H1935 C1919 0.960 . S
C1936 C1937 1.391 . S
C1936 C1938 1.394 . S
C1936 H1952 0.931 . S
C1937 C1936 1.391 . S
C1937 C1941 1.376 . S
C1938 C1936 1.394 . S
C1938 C1939 1.369 . S
C1938 C1942 1.531 . S
C1939 C1938 1.369 . S
C1939 C1940 1.410 . S
C1939 C1947 1.503 . S
C1940 C1939 1.410 . S
C1940 C1941 1.392 . S
C1940 C1943 1.511 . S
C1941 C1937 1.376 . S
C1941 C1940 1.392 . S
C1941 H1953 0.929 . S
C1942 C1938 1.531 . S
C1942 H1954 0.960 . S
C1942 H1955 0.962 . S
C1942 H1956 0.960 . S
C1943 C1940 1.511 . S
C1943 H1957 0.961 . S
C1943 H1958 0.961 . S
C1943 H1959 0.961 . S
C1944 C1945 1.370 . S
C1944 C1946 1.363 . S
C1944 H1960 0.931 . S
C1945 C1944 1.370 . S
C1945 C1949 1.408 . S
C1946 C1944 1.363 . S
C1946 C1947 1.370 . S
C1946 C1950 1.524 . S
C1947 C1939 1.503 . S
C1947 C1946 1.370 . S
C1947 C1948 1.403 . S
C1948 C1947 1.403 . S
C1948 C1949 1.404 . S
C1948 C1951 1.539 . S
C1949 C1945 1.408 . S
C1949 C1948 1.404 . S
C1949 H1961 0.930 . S
C1950 C1946 1.524 . S
C1950 H1962 0.956 . S
C1950 H1963 0.961 . S
C1950 H1964 0.961 . S
C1951 C1948 1.539 . S
C1951 H1965 0.958 . S
C1951 H1966 0.961 . S
C1951 H1967 0.960 . S
H1952 C1936 0.931 . S
H1953 C1941 0.929 . S
H1954 C1942 0.960 . S
H1955 C1942 0.962 . S
H1956 C1942 0.960 . S
H1957 C1943 0.961 . S
H1958 C1943 0.961 . S
H1959 C1943 0.961 . S
H1960 C1944 0.931 . S
H1961 C1949 0.930 . S
H1962 C1950 0.956 . S
H1963 C1950 0.961 . S
H1964 C1950 0.961 . S
H1965 C1951 0.958 . S
H1966 C1951 0.961 . S
H1967 C1951 0.960 . S
C1968 C1969 1.391 . S
C1968 C1970 1.394 . S
C1968 H1984 0.931 . S
C1969 C1968 1.391 . S
C1969 C1973 1.376 . S
C1970 C1968 1.394 . S
C1970 C1971 1.369 . S
C1970 C1974 1.531 . S
C1971 C1970 1.369 . S
C1971 C1972 1.410 . S
C1971 C1979 1.503 . S
C1972 C1971 1.410 . S
C1972 C1973 1.392 . S
C1972 C1975 1.511 . S
C1973 C1969 1.376 . S
C1973 C1972 1.392 . S
C1973 H1985 0.929 . S
C1974 C1970 1.531 . S
C1974 H1986 0.960 . S
C1974 H1987 0.962 . S
C1974 H1988 0.960 . S
C1975 C1972 1.511 . S
C1975 H1989 0.961 . S
C1975 H1990 0.961 . S
C1975 H1991 0.961 . S
C1976 C1977 1.370 . S
C1976 C1978 1.363 . S
C1976 H1992 0.931 . S
C1977 C1976 1.370 . S
C1977 C1981 1.408 . S
C1978 C1976 1.363 . S
C1978 C1979 1.370 . S
C1978 C1982 1.524 . S
C1979 C1971 1.503 . S
C1979 C1978 1.370 . S
C1979 C1980 1.403 . S
C1980 C1979 1.403 . S
C1980 C1981 1.404 . S
C1980 C1983 1.539 . S
C1981 C1977 1.408 . S
C1981 C1980 1.404 . S
C1981 H1993 0.930 . S
C1982 C1978 1.524 . S
C1982 H1994 0.956 . S
C1982 H1995 0.961 . S
C1982 H1996 0.961 . S
C1983 C1980 1.539 . S
C1983 H1997 0.958 . S
C1983 H1998 0.961 . S
C1983 H1999 0.960 . S
H1984 C1968 0.931 . S
H1985 C1973 0.929 . S
H1986 C1974 0.960 . S
H1987 C1974 0.962 . S
H1988 C1974 0.960 . S
H1989 C1975 0.961 . S
H1990 C1975 0.961 . S
H1991 C1975 0.961 . S
H1992 C1976 0.931 . S
H1993 C1981 0.930 . S
H1994 C1982 0.956 . S
H1995 C1982 0.961 . S
H1996 C1982 0.961 . S
H1997 C1983 0.958 . S
H1998 C1983 0.961 . S
H1999 C1983 0.960 . S
C2000 C2001 1.391 . S
C2000 C2002 1.394 . S
C2000 H2016 0.931 . S
C2001 C2000 1.391 . S
C2001 C2005 1.376 . S
C2002 C2000 1.394 . S
C2002 C2003 1.369 . S
C2002 C2006 1.531 . S
C2003 C2002 1.369 . S
C2003 C2004 1.410 . S
C2003 C2011 1.503 . S
C2004 C2003 1.410 . S
C2004 C2005 1.392 . S
C2004 C2007 1.511 . S
C2005 C2001 1.376 . S
C2005 C2004 1.392 . S
C2005 H2017 0.929 . S
C2006 C2002 1.531 . S
C2006 H2018 0.960 . S
C2006 H2019 0.962 . S
C2006 H2020 0.960 . S
C2007 C2004 1.511 . S
C2007 H2021 0.961 . S
C2007 H2022 0.961 . S
C2007 H2023 0.961 . S
C2008 C2009 1.370 . S
C2008 C2010 1.363 . S
C2008 H2024 0.931 . S
C2009 C2008 1.370 . S
C2009 C2013 1.408 . S
C2010 C2008 1.363 . S
C2010 C2011 1.370 . S
C2010 C2014 1.524 . S
C2011 C2003 1.503 . S
C2011 C2010 1.370 . S
C2011 C2012 1.403 . S
C2012 C2011 1.403 . S
C2012 C2013 1.404 . S
C2012 C2015 1.539 . S
C2013 C2009 1.408 . S
C2013 C2012 1.404 . S
C2013 H2025 0.930 . S
C2014 C2010 1.524 . S
C2014 H2026 0.956 . S
C2014 H2027 0.961 . S
C2014 H2028 0.961 . S
C2015 C2012 1.539 . S
C2015 H2029 0.958 . S
C2015 H2030 0.961 . S
C2015 H2031 0.960 . S
H2016 C2000 0.931 . S
H2017 C2005 0.929 . S
H2018 C2006 0.960 . S
H2019 C2006 0.962 . S
H2020 C2006 0.960 . S
H2021 C2007 0.961 . S
H2022 C2007 0.961 . S
H2023 C2007 0.961 . S
H2024 C2008 0.931 . S
H2025 C2013 0.930 . S
H2026 C2014 0.956 . S
H2027 C2014 0.961 . S
H2028 C2014 0.961 . S
H2029 C2015 0.958 . S
H2030 C2015 0.961 . S
H2031 C2015 0.960 . S
C2032 C2033 1.391 . S
C2032 C2034 1.394 . S
C2032 H2048 0.931 . S
C2033 C2032 1.391 . S
C2033 C2037 1.376 . S
C2034 C2032 1.394 . S
C2034 C2035 1.369 . S
C2034 C2038 1.531 . S
C2035 C2034 1.369 . S
C2035 C2036 1.410 . S
C2035 C2043 1.503 . S
C2036 C2035 1.410 . S
C2036 C2037 1.392 . S
C2036 C2039 1.511 . S
C2037 C2033 1.376 . S
C2037 C2036 1.392 . S
C2037 H2049 0.929 . S
C2038 C2034 1.531 . S
C2038 H2050 0.960 . S
C2038 H2051 0.962 . S
C2038 H2052 0.960 . S
C2039 C2036 1.511 . S
C2039 H2053 0.961 . S
C2039 H2054 0.961 . S
C2039 H2055 0.961 . S
C2040 C2041 1.370 . S
C2040 C2042 1.363 . S
C2040 H2056 0.931 . S
C2041 C2040 1.370 . S
C2041 C2045 1.408 . S
C2042 C2040 1.363 . S
C2042 C2043 1.370 . S
C2042 C2046 1.524 . S
C2043 C2035 1.503 . S
C2043 C2042 1.370 . S
C2043 C2044 1.403 . S
C2044 C2043 1.403 . S
C2044 C2045 1.404 . S
C2044 C2047 1.539 . S
C2045 C2041 1.408 . S
C2045 C2044 1.404 . S
C2045 H2057 0.930 . S
C2046 C2042 1.524 . S
C2046 H2058 0.956 . S
C2046 H2059 0.961 . S
C2046 H2060 0.961 . S
C2047 C2044 1.539 . S
C2047 H2061 0.958 . S
C2047 H2062 0.961 . S
C2047 H2063 0.960 . S
H2048 C2032 0.931 . S
H2049 C2037 0.929 . S
H2050 C2038 0.960 . S
H2051 C2038 0.962 . S
H2052 C2038 0.960 . S
H2053 C2039 0.961 . S
H2054 C2039 0.961 . S
H2055 C2039 0.961 . S
H2056 C2040 0.931 . S
H2057 C2045 0.930 . S
H2058 C2046 0.956 . S
H2059 C2046 0.961 . S
H2060 C2046 0.961 . S
H2061 C2047 0.958 . S
H2062 C2047 0.961 . S
H2063 C2047 0.960 . S
C2064 C2065 1.391 . S
C2064 C2066 1.394 . S
C2064 H2080 0.931 . S
C2065 C2064 1.391 . S
C2065 C2069 1.376 . S
C2066 C2064 1.394 . S
C2066 C2067 1.369 . S
C2066 C2070 1.531 . S
C2067 C2066 1.369 . S
C2067 C2068 1.410 . S
C2067 C2075 1.503 . S
C2068 C2067 1.410 . S
C2068 C2069 1.392 . S
C2068 C2071 1.511 . S
C2069 C2065 1.376 . S
C2069 C2068 1.392 . S
C2069 H2081 0.929 . S
C2070 C2066 1.531 . S
C2070 H2082 0.960 . S
C2070 H2083 0.962 . S
C2070 H2084 0.960 . S
C2071 C2068 1.511 . S
C2071 H2085 0.961 . S
C2071 H2086 0.961 . S
C2071 H2087 0.961 . S
C2072 C2073 1.370 . S
C2072 C2074 1.363 . S
C2072 H2088 0.931 . S
C2073 C2072 1.370 . S
C2073 C2077 1.408 . S
C2074 C2072 1.363 . S
C2074 C2075 1.370 . S
C2074 C2078 1.524 . S
C2075 C2067 1.503 . S
C2075 C2074 1.370 . S
C2075 C2076 1.403 . S
C2076 C2075 1.403 . S
C2076 C2077 1.404 . S
C2076 C2079 1.539 . S
C2077 C2073 1.408 . S
C2077 C2076 1.404 . S
C2077 H2089 0.930 . S
C2078 C2074 1.524 . S
C2078 H2090 0.956 . S
C2078 H2091 0.961 . S
C2078 H2092 0.961 . S
C2079 C2076 1.539 . S
C2079 H2093 0.958 . S
C2079 H2094 0.961 . S
C2079 H2095 0.960 . S
H2080 C2064 0.931 . S
H2081 C2069 0.929 . S
H2082 C2070 0.960 . S
H2083 C2070 0.962 . S
H2084 C2070 0.960 . S
H2085 C2071 0.961 . S
H2086 C2071 0.961 . S
H2087 C2071 0.961 . S
H2088 C2072 0.931 . S
H2089 C2077 0.930 . S
H2090 C2078 0.956 . S
H2091 C2078 0.961 . S
H2092 C2078 0.961 . S
H2093 C2079 0.958 . S
H2094 C2079 0.961 . S
H2095 C2079 0.960 . S
C2096 C2097 1.391 . S
C2096 C2098 1.394 . S
C2096 H2112 0.931 . S
C2097 C2096 1.391 . S
C2097 C2101 1.376 . S
C2098 C2096 1.394 . S
C2098 C2099 1.369 . S
C2098 C2102 1.531 . S
C2099 C2098 1.369 . S
C2099 C2100 1.410 . S
C2099 C2107 1.503 . S
C2100 C2099 1.410 . S
C2100 C2101 1.392 . S
C2100 C2103 1.511 . S
C2101 C2097 1.376 . S
C2101 C2100 1.392 . S
C2101 H2113 0.929 . S
C2102 C2098 1.531 . S
C2102 H2114 0.960 . S
C2102 H2115 0.962 . S
C2102 H2116 0.960 . S
C2103 C2100 1.511 . S
C2103 H2117 0.961 . S
C2103 H2118 0.961 . S
C2103 H2119 0.961 . S
C2104 C2105 1.370 . S
C2104 C2106 1.363 . S
C2104 H2120 0.931 . S
C2105 C2104 1.370 . S
C2105 C2109 1.408 . S
C2106 C2104 1.363 . S
C2106 C2107 1.370 . S
C2106 C2110 1.524 . S
C2107 C2099 1.503 . S
C2107 C2106 1.370 . S
C2107 C2108 1.403 . S
C2108 C2107 1.403 . S
C2108 C2109 1.404 . S
C2108 C2111 1.539 . S
C2109 C2105 1.408 . S
C2109 C2108 1.404 . S
C2109 H2121 0.930 . S
C2110 C2106 1.524 . S
C2110 H2122 0.956 . S
C2110 H2123 0.961 . S
C2110 H2124 0.961 . S
C2111 C2108 1.539 . S
C2111 H2125 0.958 . S
C2111 H2126 0.961 . S
C2111 H2127 0.960 . S
H2112 C2096 0.931 . S
H2113 C2101 0.929 . S
H2114 C2102 0.960 . S
H2115 C2102 0.962 . S
H2116 C2102 0.960 . S
H2117 C2103 0.961 . S
H2118 C2103 0.961 . S
H2119 C2103 0.961 . S
H2120 C2104 0.931 . S
H2121 C2109 0.930 . S
H2122 C2110 0.956 . S
H2123 C2110 0.961 . S
H2124 C2110 0.961 . S
H2125 C2111 0.958 . S
H2126 C2111 0.961 . S
H2127 C2111 0.960 . S
C2128 C2129 1.391 . S
C2128 C2130 1.394 . S
C2128 H2144 0.931 . S
C2129 C2128 1.391 . S
C2129 C2133 1.376 . S
C2130 C2128 1.394 . S
C2130 C2131 1.369 . S
C2130 C2134 1.531 . S
C2131 C2130 1.369 . S
C2131 C2132 1.410 . S
C2131 C2139 1.503 . S
C2132 C2131 1.410 . S
C2132 C2133 1.392 . S
C2132 C2135 1.511 . S
C2133 C2129 1.376 . S
C2133 C2132 1.392 . S
C2133 H2145 0.929 . S
C2134 C2130 1.531 . S
C2134 H2146 0.960 . S
C2134 H2147 0.962 . S
C2134 H2148 0.960 . S
C2135 C2132 1.511 . S
C2135 H2149 0.961 . S
C2135 H2150 0.961 . S
C2135 H2151 0.961 . S
C2136 C2137 1.370 . S
C2136 C2138 1.363 . S
C2136 H2152 0.931 . S
C2137 C2136 1.370 . S
C2137 C2141 1.408 . S
C2138 C2136 1.363 . S
C2138 C2139 1.370 . S
C2138 C2142 1.524 . S
C2139 C2131 1.503 . S
C2139 C2138 1.370 . S
C2139 C2140 1.403 . S
C2140 C2139 1.403 . S
C2140 C2141 1.404 . S
C2140 C2143 1.539 . S
C2141 C2137 1.408 . S
C2141 C2140 1.404 . S
C2141 H2153 0.930 . S
C2142 C2138 1.524 . S
C2142 H2154 0.956 . S
C2142 H2155 0.961 . S
C2142 H2156 0.961 . S
C2143 C2140 1.539 . S
C2143 H2157 0.958 . S
C2143 H2158 0.961 . S
C2143 H2159 0.960 . S
H2144 C2128 0.931 . S
H2145 C2133 0.929 . S
H2146 C2134 0.960 . S
H2147 C2134 0.962 . S
H2148 C2134 0.960 . S
H2149 C2135 0.961 . S
H2150 C2135 0.961 . S
H2151 C2135 0.961 . S
H2152 C2136 0.931 . S
H2153 C2141 0.930 . S
H2154 C2142 0.956 . S
H2155 C2142 0.961 . S
H2156 C2142 0.961 . S
H2157 C2143 0.958 . S
H2158 C2143 0.961 . S
H2159 C2143 0.960 . S
C2160 C2161 1.391 . S
C2160 C2162 1.394 . S
C2160 H2176 0.931 . S
C2161 C2160 1.391 . S
C2161 C2165 1.376 . S
C2162 C2160 1.394 . S
C2162 C2163 1.369 . S
C2162 C2166 1.531 . S
C2163 C2162 1.369 . S
C2163 C2164 1.410 . S
C2163 C2171 1.503 . S
C2164 C2163 1.410 . S
C2164 C2165 1.392 . S
C2164 C2167 1.511 . S
C2165 C2161 1.376 . S
C2165 C2164 1.392 . S
C2165 H2177 0.929 . S
C2166 C2162 1.531 . S
C2166 H2178 0.960 . S
C2166 H2179 0.962 . S
C2166 H2180 0.960 . S
C2167 C2164 1.511 . S
C2167 H2181 0.961 . S
C2167 H2182 0.961 . S
C2167 H2183 0.961 . S
C2168 C2169 1.370 . S
C2168 C2170 1.363 . S
C2168 H2184 0.931 . S
C2169 C2168 1.370 . S
C2169 C2173 1.408 . S
C2170 C2168 1.363 . S
C2170 C2171 1.370 . S
C2170 C2174 1.524 . S
C2171 C2163 1.503 . S
C2171 C2170 1.370 . S
C2171 C2172 1.403 . S
C2172 C2171 1.403 . S
C2172 C2173 1.404 . S
C2172 C2175 1.539 . S
C2173 C2169 1.408 . S
C2173 C2172 1.404 . S
C2173 H2185 0.930 . S
C2174 C2170 1.524 . S
C2174 H2186 0.956 . S
C2174 H2187 0.961 . S
C2174 H2188 0.961 . S
C2175 C2172 1.539 . S
C2175 H2189 0.958 . S
C2175 H2190 0.961 . S
C2175 H2191 0.960 . S
H2176 C2160 0.931 . S
H2177 C2165 0.929 . S
H2178 C2166 0.960 . S
H2179 C2166 0.962 . S
H2180 C2166 0.960 . S
H2181 C2167 0.961 . S
H2182 C2167 0.961 . S
H2183 C2167 0.961 . S
H2184 C2168 0.931 . S
H2185 C2173 0.930 . S
H2186 C2174 0.956 . S
H2187 C2174 0.961 . S
H2188 C2174 0.961 . S
H2189 C2175 0.958 . S
H2190 C2175 0.961 . S
H2191 C2175 0.960 . S
C2192 C2193 1.391 . S
C2192 C2194 1.394 . S
C2192 H2208 0.931 . S
C2193 C2192 1.391 . S
C2193 C2197 1.376 . S
C2194 C2192 1.394 . S
C2194 C2195 1.369 . S
C2194 C2198 1.531 . S
C2195 C2194 1.369 . S
C2195 C2196 1.410 . S
C2195 C2203 1.503 . S
C2196 C2195 1.410 . S
C2196 C2197 1.392 . S
C2196 C2199 1.511 . S
C2197 C2193 1.376 . S
C2197 C2196 1.392 . S
C2197 H2209 0.929 . S
C2198 C2194 1.531 . S
C2198 H2210 0.960 . S
C2198 H2211 0.962 . S
C2198 H2212 0.960 . S
C2199 C2196 1.511 . S
C2199 H2213 0.961 . S
C2199 H2214 0.961 . S
C2199 H2215 0.961 . S
C2200 C2201 1.370 . S
C2200 C2202 1.363 . S
C2200 H2216 0.931 . S
C2201 C2200 1.370 . S
C2201 C2205 1.408 . S
C2202 C2200 1.363 . S
C2202 C2203 1.370 . S
C2202 C2206 1.524 . S
C2203 C2195 1.503 . S
C2203 C2202 1.370 . S
C2203 C2204 1.403 . S
C2204 C2203 1.403 . S
C2204 C2205 1.404 . S
C2204 C2207 1.539 . S
C2205 C2201 1.408 . S
C2205 C2204 1.404 . S
C2205 H2217 0.930 . S
C2206 C2202 1.524 . S
C2206 H2218 0.956 . S
C2206 H2219 0.961 . S
C2206 H2220 0.961 . S
C2207 C2204 1.539 . S
C2207 H2221 0.958 . S
C2207 H2222 0.961 . S
C2207 H2223 0.960 . S
H2208 C2192 0.931 . S
H2209 C2197 0.929 . S
H2210 C2198 0.960 . S
H2211 C2198 0.962 . S
H2212 C2198 0.960 . S
H2213 C2199 0.961 . S
H2214 C2199 0.961 . S
H2215 C2199 0.961 . S
H2216 C2200 0.931 . S
H2217 C2205 0.930 . S
H2218 C2206 0.956 . S
H2219 C2206 0.961 . S
H2220 C2206 0.961 . S
H2221 C2207 0.958 . S
H2222 C2207 0.961 . S
H2223 C2207 0.960 . S
C2224 C2225 1.391 . S
C2224 C2226 1.394 . S
C2224 H2240 0.931 . S
C2225 C2224 1.391 . S
C2225 C2229 1.376 . S
C2226 C2224 1.394 . S
C2226 C2227 1.369 . S
C2226 C2230 1.531 . S
C2227 C2226 1.369 . S
C2227 C2228 1.410 . S
C2227 C2235 1.503 . S
C2228 C2227 1.410 . S
C2228 C2229 1.392 . S
C2228 C2231 1.511 . S
C2229 C2225 1.376 . S
C2229 C2228 1.392 . S
C2229 H2241 0.929 . S
C2230 C2226 1.531 . S
C2230 H2242 0.960 . S
C2230 H2243 0.962 . S
C2230 H2244 0.960 . S
C2231 C2228 1.511 . S
C2231 H2245 0.961 . S
C2231 H2246 0.961 . S
C2231 H2247 0.961 . S
C2232 C2233 1.370 . S
C2232 C2234 1.363 . S
C2232 H2248 0.931 . S
C2233 C2232 1.370 . S
C2233 C2237 1.408 . S
C2234 C2232 1.363 . S
C2234 C2235 1.370 . S
C2234 C2238 1.524 . S
C2235 C2227 1.503 . S
C2235 C2234 1.370 . S
C2235 C2236 1.403 . S
C2236 C2235 1.403 . S
C2236 C2237 1.404 . S
C2236 C2239 1.539 . S
C2237 C2233 1.408 . S
C2237 C2236 1.404 . S
C2237 H2249 0.930 . S
C2238 C2234 1.524 . S
C2238 H2250 0.956 . S
C2238 H2251 0.961 . S
C2238 H2252 0.961 . S
C2239 C2236 1.539 . S
C2239 H2253 0.958 . S
C2239 H2254 0.961 . S
C2239 H2255 0.960 . S
H2240 C2224 0.931 . S
H2241 C2229 0.929 . S
H2242 C2230 0.960 . S
H2243 C2230 0.962 . S
H2244 C2230 0.960 . S
H2245 C2231 0.961 . S
H2246 C2231 0.961 . S
H2247 C2231 0.961 . S
H2248 C2232 0.931 . S
H2249 C2237 0.930 . S
H2250 C2238 0.956 . S
H2251 C2238 0.961 . S
H2252 C2238 0.961 . S
H2253 C2239 0.958 . S
H2254 C2239 0.961 . S
H2255 C2239 0.960 . S
C2256 C2257 1.391 . S
C2256 C2258 1.394 . S
C2256 H2272 0.931 . S
C2257 C2256 1.391 . S
C2257 C2261 1.376 . S
C2258 C2256 1.394 . S
C2258 C2259 1.369 . S
C2258 C2262 1.531 . S
C2259 C2258 1.369 . S
C2259 C2260 1.410 . S
C2259 C2267 1.503 . S
C2260 C2259 1.410 . S
C2260 C2261 1.392 . S
C2260 C2263 1.511 . S
C2261 C2257 1.376 . S
C2261 C2260 1.392 . S
C2261 H2273 0.929 . S
C2262 C2258 1.531 . S
C2262 H2274 0.960 . S
C2262 H2275 0.962 . S
C2262 H2276 0.960 . S
C2263 C2260 1.511 . S
C2263 H2277 0.961 . S
C2263 H2278 0.961 . S
C2263 H2279 0.961 . S
C2264 C2265 1.370 . S
C2264 C2266 1.363 . S
C2264 H2280 0.931 . S
C2265 C2264 1.370 . S
C2265 C2269 1.408 . S
C2266 C2264 1.363 . S
C2266 C2267 1.370 . S
C2266 C2270 1.524 . S
C2267 C2259 1.503 . S
C2267 C2266 1.370 . S
C2267 C2268 1.403 . S
C2268 C2267 1.403 . S
C2268 C2269 1.404 . S
C2268 C2271 1.539 . S
C2269 C2265 1.408 . S
C2269 C2268 1.404 . S
C2269 H2281 0.930 . S
C2270 C2266 1.524 . S
C2270 H2282 0.956 . S
C2270 H2283 0.961 . S
C2270 H2284 0.961 . S
C2271 C2268 1.539 . S
C2271 H2285 0.958 . S
C2271 H2286 0.961 . S
C2271 H2287 0.960 . S
H2272 C2256 0.931 . S
H2273 C2261 0.929 . S
H2274 C2262 0.960 . S
H2275 C2262 0.962 . S
H2276 C2262 0.960 . S
H2277 C2263 0.961 . S
H2278 C2263 0.961 . S
H2279 C2263 0.961 . S
H2280 C2264 0.931 . S
H2281 C2269 0.930 . S
H2282 C2270 0.956 . S
H2283 C2270 0.961 . S
H2284 C2270 0.961 . S
H2285 C2271 0.958 . S
H2286 C2271 0.961 . S
H2287 C2271 0.960 . S
C2288 C2289 1.391 . S
C2288 C2290 1.394 . S
C2288 H2304 0.931 . S
C2289 C2288 1.391 . S
C2289 C2293 1.376 . S
C2290 C2288 1.394 . S
C2290 C2291 1.369 . S
C2290 C2294 1.531 . S
C2291 C2290 1.369 . S
C2291 C2292 1.410 . S
C2291 C2299 1.503 . S
C2292 C2291 1.410 . S
C2292 C2293 1.392 . S
C2292 C2295 1.511 . S
C2293 C2289 1.376 . S
C2293 C2292 1.392 . S
C2293 H2305 0.929 . S
C2294 C2290 1.531 . S
C2294 H2306 0.960 . S
C2294 H2307 0.962 . S
C2294 H2308 0.960 . S
C2295 C2292 1.511 . S
C2295 H2309 0.961 . S
C2295 H2310 0.961 . S
C2295 H2311 0.961 . S
C2296 C2297 1.370 . S
C2296 C2298 1.363 . S
C2296 H2312 0.931 . S
C2297 C2296 1.370 . S
C2297 C2301 1.408 . S
C2298 C2296 1.363 . S
C2298 C2299 1.370 . S
C2298 C2302 1.524 . S
C2299 C2291 1.503 . S
C2299 C2298 1.370 . S
C2299 C2300 1.403 . S
C2300 C2299 1.403 . S
C2300 C2301 1.404 . S
C2300 C2303 1.539 . S
C2301 C2297 1.408 . S
C2301 C2300 1.404 . S
C2301 H2313 0.930 . S
C2302 C2298 1.524 . S
C2302 H2314 0.956 . S
C2302 H2315 0.961 . S
C2302 H2316 0.961 . S
C2303 C2300 1.539 . S
C2303 H2317 0.958 . S
C2303 H2318 0.961 . S
C2303 H2319 0.960 . S
H2304 C2288 0.931 . S
H2305 C2293 0.929 . S
H2306 C2294 0.960 . S
H2307 C2294 0.962 . S
H2308 C2294 0.960 . S
H2309 C2295 0.961 . S
H2310 C2295 0.961 . S
H2311 C2295 0.961 . S
H2312 C2296 0.931 . S
H2313 C2301 0.930 . S
H2314 C2302 0.956 . S
H2315 C2302 0.961 . S
H2316 C2302 0.961 . S
H2317 C2303 0.958 . S
H2318 C2303 0.961 . S
H2319 C2303 0.960 . S
C2320 C2321 1.391 . S
C2320 C2322 1.394 . S
C2320 H2336 0.931 . S
C2321 C2320 1.391 . S
C2321 C2325 1.376 . S
C2322 C2320 1.394 . S
C2322 C2323 1.369 . S
C2322 C2326 1.531 . S
C2323 C2322 1.369 . S
C2323 C2324 1.410 . S
C2323 C2331 1.503 . S
C2324 C2323 1.410 . S
C2324 C2325 1.392 . S
C2324 C2327 1.511 . S
C2325 C2321 1.376 . S
C2325 C2324 1.392 . S
C2325 H2337 0.929 . S
C2326 C2322 1.531 . S
C2326 H2338 0.960 . S
C2326 H2339 0.962 . S
C2326 H2340 0.960 . S
C2327 C2324 1.511 . S
C2327 H2341 0.961 . S
C2327 H2342 0.961 . S
C2327 H2343 0.961 . S
C2328 C2329 1.370 . S
C2328 C2330 1.363 . S
C2328 H2344 0.931 . S
C2329 C2328 1.370 . S
C2329 C2333 1.408 . S
C2330 C2328 1.363 . S
C2330 C2331 1.370 . S
C2330 C2334 1.524 . S
C2331 C2323 1.503 . S
C2331 C2330 1.370 . S
C2331 C2332 1.403 . S
C2332 C2331 1.403 . S
C2332 C2333 1.404 . S
C2332 C2335 1.539 . S
C2333 C2329 1.408 . S
C2333 C2332 1.404 . S
C2333 H2345 0.930 . S
C2334 C2330 1.524 . S
C2334 H2346 0.956 . S
C2334 H2347 0.961 . S
C2334 H2348 0.961 . S
C2335 C2332 1.539 . S
C2335 H2349 0.958 . S
C2335 H2350 0.961 . S
C2335 H2351 0.960 . S
H2336 C2320 0.931 . S
H2337 C2325 0.929 . S
H2338 C2326 0.960 . S
H2339 C2326 0.962 . S
H2340 C2326 0.960 . S
H2341 C2327 0.961 . S
H2342 C2327 0.961 . S
H2343 C2327 0.961 . S
H2344 C2328 0.931 . S
H2345 C2333 0.930 . S
H2346 C2334 0.956 . S
H2347 C2334 0.961 . S
H2348 C2334 0.961 . S
H2349 C2335 0.958 . S
H2350 C2335 0.961 . S
H2351 C2335 0.960 . S
C2352 C2353 1.391 . S
C2352 C2354 1.394 . S
C2352 H2368 0.931 . S
C2353 C2352 1.391 . S
C2353 C2357 1.376 . S
C2354 C2352 1.394 . S
C2354 C2355 1.369 . S
C2354 C2358 1.531 . S
C2355 C2354 1.369 . S
C2355 C2356 1.410 . S
C2355 C2363 1.503 . S
C2356 C2355 1.410 . S
C2356 C2357 1.392 . S
C2356 C2359 1.511 . S
C2357 C2353 1.376 . S
C2357 C2356 1.392 . S
C2357 H2369 0.929 . S
C2358 C2354 1.531 . S
C2358 H2370 0.960 . S
C2358 H2371 0.962 . S
C2358 H2372 0.960 . S
C2359 C2356 1.511 . S
C2359 H2373 0.961 . S
C2359 H2374 0.961 . S
C2359 H2375 0.961 . S
C2360 C2361 1.370 . S
C2360 C2362 1.363 . S
C2360 H2376 0.931 . S
C2361 C2360 1.370 . S
C2361 C2365 1.408 . S
C2362 C2360 1.363 . S
C2362 C2363 1.370 . S
C2362 C2366 1.524 . S
C2363 C2355 1.503 . S
C2363 C2362 1.370 . S
C2363 C2364 1.403 . S
C2364 C2363 1.403 . S
C2364 C2365 1.404 . S
C2364 C2367 1.539 . S
C2365 C2361 1.408 . S
C2365 C2364 1.404 . S
C2365 H2377 0.930 . S
C2366 C2362 1.524 . S
C2366 H2378 0.956 . S
C2366 H2379 0.961 . S
C2366 H2380 0.961 . S
C2367 C2364 1.539 . S
C2367 H2381 0.958 . S
C2367 H2382 0.961 . S
C2367 H2383 0.960 . S
H2368 C2352 0.931 . S
H2369 C2357 0.929 . S
H2370 C2358 0.960 . S
H2371 C2358 0.962 . S
H2372 C2358 0.960 . S
H2373 C2359 0.961 . S
H2374 C2359 0.961 . S
H2375 C2359 0.961 . S
H2376 C2360 0.931 . S
H2377 C2365 0.930 . S
H2378 C2366 0.956 . S
H2379 C2366 0.961 . S
H2380 C2366 0.961 . S
H2381 C2367 0.958 . S
H2382 C2367 0.961 . S
H2383 C2367 0.960 . S
C2384 C2385 1.391 . S
C2384 C2386 1.394 . S
C2384 H2400 0.931 . S
C2385 C2384 1.391 . S
C2385 C2389 1.376 . S
C2386 C2384 1.394 . S
C2386 C2387 1.369 . S
C2386 C2390 1.531 . S
C2387 C2386 1.369 . S
C2387 C2388 1.410 . S
C2387 C2395 1.503 . S
C2388 C2387 1.410 . S
C2388 C2389 1.392 . S
C2388 C2391 1.511 . S
C2389 C2385 1.376 . S
C2389 C2388 1.392 . S
C2389 H2401 0.929 . S
C2390 C2386 1.531 . S
C2390 H2402 0.960 . S
C2390 H2403 0.962 . S
C2390 H2404 0.960 . S
C2391 C2388 1.511 . S
C2391 H2405 0.961 . S
C2391 H2406 0.961 . S
C2391 H2407 0.961 . S
C2392 C2393 1.370 . S
C2392 C2394 1.363 . S
C2392 H2408 0.931 . S
C2393 C2392 1.370 . S
C2393 C2397 1.408 . S
C2394 C2392 1.363 . S
C2394 C2395 1.370 . S
C2394 C2398 1.524 . S
C2395 C2387 1.503 . S
C2395 C2394 1.370 . S
C2395 C2396 1.403 . S
C2396 C2395 1.403 . S
C2396 C2397 1.404 . S
C2396 C2399 1.539 . S
C2397 C2393 1.408 . S
C2397 C2396 1.404 . S
C2397 H2409 0.930 . S
C2398 C2394 1.524 . S
C2398 H2410 0.956 . S
C2398 H2411 0.961 . S
C2398 H2412 0.961 . S
C2399 C2396 1.539 . S
C2399 H2413 0.958 . S
C2399 H2414 0.961 . S
C2399 H2415 0.960 . S
H2400 C2384 0.931 . S
H2401 C2389 0.929 . S
H2402 C2390 0.960 . S
H2403 C2390 0.962 . S
H2404 C2390 0.960 . S
H2405 C2391 0.961 . S
H2406 C2391 0.961 . S
H2407 C2391 0.961 . S
H2408 C2392 0.931 . S
H2409 C2397 0.930 . S
H2410 C2398 0.956 . S
H2411 C2398 0.961 . S
H2412 C2398 0.961 . S
H2413 C2399 0.958 . S
H2414 C2399 0.961 . S
H2415 C2399 0.960 . S
C2416 C2417 1.391 . S
C2416 C2418 1.394 . S
C2416 H2432 0.931 . S
C2417 C2416 1.391 . S
C2417 C2421 1.376 . S
C2418 C2416 1.394 . S
C2418 C2419 1.369 . S
C2418 C2422 1.531 . S
C2419 C2418 1.369 . S
C2419 C2420 1.410 . S
C2419 C2427 1.503 . S
C2420 C2419 1.410 . S
C2420 C2421 1.392 . S
C2420 C2423 1.511 . S
C2421 C2417 1.376 . S
C2421 C2420 1.392 . S
C2421 H2433 0.929 . S
C2422 C2418 1.531 . S
C2422 H2434 0.960 . S
C2422 H2435 0.962 . S
C2422 H2436 0.960 . S
C2423 C2420 1.511 . S
C2423 H2437 0.961 . S
C2423 H2438 0.961 . S
C2423 H2439 0.961 . S
C2424 C2425 1.370 . S
C2424 C2426 1.363 . S
C2424 H2440 0.931 . S
C2425 C2424 1.370 . S
C2425 C2429 1.408 . S
C2426 C2424 1.363 . S
C2426 C2427 1.370 . S
C2426 C2430 1.524 . S
C2427 C2419 1.503 . S
C2427 C2426 1.370 . S
C2427 C2428 1.403 . S
C2428 C2427 1.403 . S
C2428 C2429 1.404 . S
C2428 C2431 1.539 . S
C2429 C2425 1.408 . S
C2429 C2428 1.404 . S
C2429 H2441 0.930 . S
C2430 C2426 1.524 . S
C2430 H2442 0.956 . S
C2430 H2443 0.961 . S
C2430 H2444 0.961 . S
C2431 C2428 1.539 . S
C2431 H2445 0.958 . S
C2431 H2446 0.961 . S
C2431 H2447 0.960 . S
H2432 C2416 0.931 . S
H2433 C2421 0.929 . S
H2434 C2422 0.960 . S
H2435 C2422 0.962 . S
H2436 C2422 0.960 . S
H2437 C2423 0.961 . S
H2438 C2423 0.961 . S
H2439 C2423 0.961 . S
H2440 C2424 0.931 . S
H2441 C2429 0.930 . S
H2442 C2430 0.956 . S
H2443 C2430 0.961 . S
H2444 C2430 0.961 . S
H2445 C2431 0.958 . S
H2446 C2431 0.961 . S
H2447 C2431 0.960 . S
C2448 C2449 1.391 . S
C2448 C2450 1.394 . S
C2448 H2464 0.931 . S
C2449 C2448 1.391 . S
C2449 C2453 1.376 . S
C2450 C2448 1.394 . S
C2450 C2451 1.369 . S
C2450 C2454 1.531 . S
C2451 C2450 1.369 . S
C2451 C2452 1.410 . S
C2451 C2459 1.503 . S
C2452 C2451 1.410 . S
C2452 C2453 1.392 . S
C2452 C2455 1.511 . S
C2453 C2449 1.376 . S
C2453 C2452 1.392 . S
C2453 H2465 0.929 . S
C2454 C2450 1.531 . S
C2454 H2466 0.960 . S
C2454 H2467 0.962 . S
C2454 H2468 0.960 . S
C2455 C2452 1.511 . S
C2455 H2469 0.961 . S
C2455 H2470 0.961 . S
C2455 H2471 0.961 . S
C2456 C2457 1.370 . S
C2456 C2458 1.363 . S
C2456 H2472 0.931 . S
C2457 C2456 1.370 . S
C2457 C2461 1.408 . S
C2458 C2456 1.363 . S
C2458 C2459 1.370 . S
C2458 C2462 1.524 . S
C2459 C2451 1.503 . S
C2459 C2458 1.370 . S
C2459 C2460 1.403 . S
C2460 C2459 1.403 . S
C2460 C2461 1.404 . S
C2460 C2463 1.539 . S
C2461 C2457 1.408 . S
C2461 C2460 1.404 . S
C2461 H2473 0.930 . S
C2462 C2458 1.524 . S
C2462 H2474 0.956 . S
C2462 H2475 0.961 . S
C2462 H2476 0.961 . S
C2463 C2460 1.539 . S
C2463 H2477 0.958 . S
C2463 H2478 0.961 . S
C2463 H2479 0.960 . S
H2464 C2448 0.931 . S
H2465 C2453 0.929 . S
H2466 C2454 0.960 . S
H2467 C2454 0.962 . S
H2468 C2454 0.960 . S
H2469 C2455 0.961 . S
H2470 C2455 0.961 . S
H2471 C2455 0.961 . S
H2472 C2456 0.931 . S
H2473 C2461 0.930 . S
H2474 C2462 0.956 . S
H2475 C2462 0.961 . S
H2476 C2462 0.961 . S
H2477 C2463 0.958 . S
H2478 C2463 0.961 . S
H2479 C2463 0.960 . S
C2480 C2481 1.391 . S
C2480 C2482 1.394 . S
C2480 H2496 0.931 . S
C2481 C2480 1.391 . S
C2481 C2485 1.376 . S
C2482 C2480 1.394 . S
C2482 C2483 1.369 . S
C2482 C2486 1.531 . S
C2483 C2482 1.369 . S
C2483 C2484 1.410 . S
C2483 C2491 1.503 . S
C2484 C2483 1.410 . S
C2484 C2485 1.392 . S
C2484 C2487 1.511 . S
C2485 C2481 1.376 . S
C2485 C2484 1.392 . S
C2485 H2497 0.929 . S
C2486 C2482 1.531 . S
C2486 H2498 0.960 . S
C2486 H2499 0.962 . S
C2486 H2500 0.960 . S
C2487 C2484 1.511 . S
C2487 H2501 0.961 . S
C2487 H2502 0.961 . S
C2487 H2503 0.961 . S
C2488 C2489 1.370 . S
C2488 C2490 1.363 . S
C2488 H2504 0.931 . S
C2489 C2488 1.370 . S
C2489 C2493 1.408 . S
C2490 C2488 1.363 . S
C2490 C2491 1.370 . S
C2490 C2494 1.524 . S
C2491 C2483 1.503 . S
C2491 C2490 1.370 . S
C2491 C2492 1.403 . S
C2492 C2491 1.403 . S
C2492 C2493 1.404 . S
C2492 C2495 1.539 . S
C2493 C2489 1.408 . S
C2493 C2492 1.404 . S
C2493 H2505 0.930 . S
C2494 C2490 1.524 . S
C2494 H2506 0.956 . S
C2494 H2507 0.961 . S
C2494 H2508 0.961 . S
C2495 C2492 1.539 . S
C2495 H2509 0.958 . S
C2495 H2510 0.961 . S
C2495 H2511 0.960 . S
H2496 C2480 0.931 . S
H2497 C2485 0.929 . S
H2498 C2486 0.960 . S
H2499 C2486 0.962 . S
H2500 C2486 0.960 . S
H2501 C2487 0.961 . S
H2502 C2487 0.961 . S
H2503 C2487 0.961 . S
H2504 C2488 0.931 . S
H2505 C2493 0.930 . S
H2506 C2494 0.956 . S
H2507 C2494 0.961 . S
H2508 C2494 0.961 . S
H2509 C2495 0.958 . S
H2510 C2495 0.961 . S
H2511 C2495 0.960 . S
C2512 C2513 1.391 . S
C2512 C2514 1.394 . S
C2512 H2528 0.931 . S
C2513 C2512 1.391 . S
C2513 C2517 1.376 . S
C2514 C2512 1.394 . S
C2514 C2515 1.369 . S
C2514 C2518 1.531 . S
C2515 C2514 1.369 . S
C2515 C2516 1.410 . S
C2515 C2523 1.503 . S
C2516 C2515 1.410 . S
C2516 C2517 1.392 . S
C2516 C2519 1.511 . S
C2517 C2513 1.376 . S
C2517 C2516 1.392 . S
C2517 H2529 0.929 . S
C2518 C2514 1.531 . S
C2518 H2530 0.960 . S
C2518 H2531 0.962 . S
C2518 H2532 0.960 . S
C2519 C2516 1.511 . S
C2519 H2533 0.961 . S
C2519 H2534 0.961 . S
C2519 H2535 0.961 . S
C2520 C2521 1.370 . S
C2520 C2522 1.363 . S
C2520 H2536 0.931 . S
C2521 C2520 1.370 . S
C2521 C2525 1.408 . S
C2522 C2520 1.363 . S
C2522 C2523 1.370 . S
C2522 C2526 1.524 . S
C2523 C2515 1.503 . S
C2523 C2522 1.370 . S
C2523 C2524 1.403 . S
C2524 C2523 1.403 . S
C2524 C2525 1.404 . S
C2524 C2527 1.539 . S
C2525 C2521 1.408 . S
C2525 C2524 1.404 . S
C2525 H2537 0.930 . S
C2526 C2522 1.524 . S
C2526 H2538 0.956 . S
C2526 H2539 0.961 . S
C2526 H2540 0.961 . S
C2527 C2524 1.539 . S
C2527 H2541 0.958 . S
C2527 H2542 0.961 . S
C2527 H2543 0.960 . S
H2528 C2512 0.931 . S
H2529 C2517 0.929 . S
H2530 C2518 0.960 . S
H2531 C2518 0.962 . S
H2532 C2518 0.960 . S
H2533 C2519 0.961 . S
H2534 C2519 0.961 . S
H2535 C2519 0.961 . S
H2536 C2520 0.931 . S
H2537 C2525 0.930 . S
H2538 C2526 0.956 . S
H2539 C2526 0.961 . S
H2540 C2526 0.961 . S
H2541 C2527 0.958 . S
H2542 C2527 0.961 . S
H2543 C2527 0.960 . S
C2544 C2545 1.391 . S
C2544 C2546 1.394 . S
C2544 H2560 0.931 . S
C2545 C2544 1.391 . S
C2545 C2549 1.376 . S
C2546 C2544 1.394 . S
C2546 C2547 1.369 . S
C2546 C2550 1.531 . S
C2547 C2546 1.369 . S
C2547 C2548 1.410 . S
C2547 C2555 1.503 . S
C2548 C2547 1.410 . S
C2548 C2549 1.392 . S
C2548 C2551 1.511 . S
C2549 C2545 1.376 . S
C2549 C2548 1.392 . S
C2549 H2561 0.929 . S
C2550 C2546 1.531 . S
C2550 H2562 0.960 . S
C2550 H2563 0.962 . S
C2550 H2564 0.960 . S
C2551 C2548 1.511 . S
C2551 H2565 0.961 . S
C2551 H2566 0.961 . S
C2551 H2567 0.961 . S
C2552 C2553 1.370 . S
C2552 C2554 1.363 . S
C2552 H2568 0.931 . S
C2553 C2552 1.370 . S
C2553 C2557 1.408 . S
C2554 C2552 1.363 . S
C2554 C2555 1.370 . S
C2554 C2558 1.524 . S
C2555 C2547 1.503 . S
C2555 C2554 1.370 . S
C2555 C2556 1.403 . S
C2556 C2555 1.403 . S
C2556 C2557 1.404 . S
C2556 C2559 1.539 . S
C2557 C2553 1.408 . S
C2557 C2556 1.404 . S
C2557 H2569 0.930 . S
C2558 C2554 1.524 . S
C2558 H2570 0.956 . S
C2558 H2571 0.961 . S
C2558 H2572 0.961 . S
C2559 C2556 1.539 . S
C2559 H2573 0.958 . S
C2559 H2574 0.961 . S
C2559 H2575 0.960 . S
H2560 C2544 0.931 . S
H2561 C2549 0.929 . S
H2562 C2550 0.960 . S
H2563 C2550 0.962 . S
H2564 C2550 0.960 . S
H2565 C2551 0.961 . S
H2566 C2551 0.961 . S
H2567 C2551 0.961 . S
H2568 C2552 0.931 . S
H2569 C2557 0.930 . S
H2570 C2558 0.956 . S
H2571 C2558 0.961 . S
H2572 C2558 0.961 . S
H2573 C2559 0.958 . S
H2574 C2559 0.961 . S
H2575 C2559 0.960 . S
C2576 C2577 1.391 . S
C2576 C2578 1.394 . S
C2576 H2592 0.931 . S
C2577 C2576 1.391 . S
C2577 C2581 1.376 . S
C2578 C2576 1.394 . S
C2578 C2579 1.369 . S
C2578 C2582 1.531 . S
C2579 C2578 1.369 . S
C2579 C2580 1.410 . S
C2579 C2587 1.503 . S
C2580 C2579 1.410 . S
C2580 C2581 1.392 . S
C2580 C2583 1.511 . S
C2581 C2577 1.376 . S
C2581 C2580 1.392 . S
C2581 H2593 0.929 . S
C2582 C2578 1.531 . S
C2582 H2594 0.960 . S
C2582 H2595 0.962 . S
C2582 H2596 0.960 . S
C2583 C2580 1.511 . S
C2583 H2597 0.961 . S
C2583 H2598 0.961 . S
C2583 H2599 0.961 . S
C2584 C2585 1.370 . S
C2584 C2586 1.363 . S
C2584 H2600 0.931 . S
C2585 C2584 1.370 . S
C2585 C2589 1.408 . S
C2586 C2584 1.363 . S
C2586 C2587 1.370 . S
C2586 C2590 1.524 . S
C2587 C2579 1.503 . S
C2587 C2586 1.370 . S
C2587 C2588 1.403 . S
C2588 C2587 1.403 . S
C2588 C2589 1.404 . S
C2588 C2591 1.539 . S
C2589 C2585 1.408 . S
C2589 C2588 1.404 . S
C2589 H2601 0.930 . S
C2590 C2586 1.524 . S
C2590 H2602 0.956 . S
C2590 H2603 0.961 . S
C2590 H2604 0.961 . S
C2591 C2588 1.539 . S
C2591 H2605 0.958 . S
C2591 H2606 0.961 . S
C2591 H2607 0.960 . S
H2592 C2576 0.931 . S
H2593 C2581 0.929 . S
H2594 C2582 0.960 . S
H2595 C2582 0.962 . S
H2596 C2582 0.960 . S
H2597 C2583 0.961 . S
H2598 C2583 0.961 . S
H2599 C2583 0.961 . S
H2600 C2584 0.931 . S
H2601 C2589 0.930 . S
H2602 C2590 0.956 . S
H2603 C2590 0.961 . S
H2604 C2590 0.961 . S
H2605 C2591 0.958 . S
H2606 C2591 0.961 . S
H2607 C2591 0.960 . S
C2608 C2609 1.391 . S
C2608 C2610 1.394 . S
C2608 H2624 0.931 . S
C2609 C2608 1.391 . S
C2609 C2613 1.376 . S
C2610 C2608 1.394 . S
C2610 C2611 1.369 . S
C2610 C2614 1.531 . S
C2611 C2610 1.369 . S
C2611 C2612 1.410 . S
C2611 C2619 1.503 . S
C2612 C2611 1.410 . S
C2612 C2613 1.392 . S
C2612 C2615 1.511 . S
C2613 C2609 1.376 . S
C2613 C2612 1.392 . S
C2613 H2625 0.929 . S
C2614 C2610 1.531 . S
C2614 H2626 0.960 . S
C2614 H2627 0.962 . S
C2614 H2628 0.960 . S
C2615 C2612 1.511 . S
C2615 H2629 0.961 . S
C2615 H2630 0.961 . S
C2615 H2631 0.961 . S
C2616 C2617 1.370 . S
C2616 C2618 1.363 . S
C2616 H2632 0.931 . S
C2617 C2616 1.370 . S
C2617 C2621 1.408 . S
C2618 C2616 1.363 . S
C2618 C2619 1.370 . S
C2618 C2622 1.524 . S
C2619 C2611 1.503 . S
C2619 C2618 1.370 . S
C2619 C2620 1.403 . S
C2620 C2619 1.403 . S
C2620 C2621 1.404 . S
C2620 C2623 1.539 . S
C2621 C2617 1.408 . S
C2621 C2620 1.404 . S
C2621 H2633 0.930 . S
C2622 C2618 1.524 . S
C2622 H2634 0.956 . S
C2622 H2635 0.961 . S
C2622 H2636 0.961 . S
C2623 C2620 1.539 . S
C2623 H2637 0.958 . S
C2623 H2638 0.961 . S
C2623 H2639 0.960 . S
H2624 C2608 0.931 . S
H2625 C2613 0.929 . S
H2626 C2614 0.960 . S
H2627 C2614 0.962 . S
H2628 C2614 0.960 . S
H2629 C2615 0.961 . S
H2630 C2615 0.961 . S
H2631 C2615 0.961 . S
H2632 C2616 0.931 . S
H2633 C2621 0.930 . S
H2634 C2622 0.956 . S
H2635 C2622 0.961 . S
H2636 C2622 0.961 . S
H2637 C2623 0.958 . S
H2638 C2623 0.961 . S
H2639 C2623 0.960 . S
C2640 C2641 1.391 . S
C2640 C2642 1.394 . S
C2640 H2656 0.931 . S
C2641 C2640 1.391 . S
C2641 C2645 1.376 . S
C2642 C2640 1.394 . S
C2642 C2643 1.369 . S
C2642 C2646 1.531 . S
C2643 C2642 1.369 . S
C2643 C2644 1.410 . S
C2643 C2651 1.503 . S
C2644 C2643 1.410 . S
C2644 C2645 1.392 . S
C2644 C2647 1.511 . S
C2645 C2641 1.376 . S
C2645 C2644 1.392 . S
C2645 H2657 0.929 . S
C2646 C2642 1.531 . S
C2646 H2658 0.960 . S
C2646 H2659 0.962 . S
C2646 H2660 0.960 . S
C2647 C2644 1.511 . S
C2647 H2661 0.961 . S
C2647 H2662 0.961 . S
C2647 H2663 0.961 . S
C2648 C2649 1.370 . S
C2648 C2650 1.363 . S
C2648 H2664 0.931 . S
C2649 C2648 1.370 . S
C2649 C2653 1.408 . S
C2650 C2648 1.363 . S
C2650 C2651 1.370 . S
C2650 C2654 1.524 . S
C2651 C2643 1.503 . S
C2651 C2650 1.370 . S
C2651 C2652 1.403 . S
C2652 C2651 1.403 . S
C2652 C2653 1.404 . S
C2652 C2655 1.539 . S
C2653 C2649 1.408 . S
C2653 C2652 1.404 . S
C2653 H2665 0.930 . S
C2654 C2650 1.524 . S
C2654 H2666 0.956 . S
C2654 H2667 0.961 . S
C2654 H2668 0.961 . S
C2655 C2652 1.539 . S
C2655 H2669 0.958 . S
C2655 H2670 0.961 . S
C2655 H2671 0.960 . S
H2656 C2640 0.931 . S
H2657 C2645 0.929 . S
H2658 C2646 0.960 . S
H2659 C2646 0.962 . S
H2660 C2646 0.960 . S
H2661 C2647 0.961 . S
H2662 C2647 0.961 . S
H2663 C2647 0.961 . S
H2664 C2648 0.931 . S
H2665 C2653 0.930 . S
H2666 C2654 0.956 . S
H2667 C2654 0.961 . S
H2668 C2654 0.961 . S
H2669 C2655 0.958 . S
H2670 C2655 0.961 . S
H2671 C2655 0.960 . S
C2672 C2673 1.391 . S
C2672 C2674 1.394 . S
C2672 H2688 0.931 . S
C2673 C2672 1.391 . S
C2673 C2677 1.376 . S
C2674 C2672 1.394 . S
C2674 C2675 1.369 . S
C2674 C2678 1.531 . S
C2675 C2674 1.369 . S
C2675 C2676 1.410 . S
C2675 C2683 1.503 . S
C2676 C2675 1.410 . S
C2676 C2677 1.392 . S
C2676 C2679 1.511 . S
C2677 C2673 1.376 . S
C2677 C2676 1.392 . S
C2677 H2689 0.929 . S
C2678 C2674 1.531 . S
C2678 H2690 0.960 . S
C2678 H2691 0.962 . S
C2678 H2692 0.960 . S
C2679 C2676 1.511 . S
C2679 H2693 0.961 . S
C2679 H2694 0.961 . S
C2679 H2695 0.961 . S
C2680 C2681 1.370 . S
C2680 C2682 1.363 . S
C2680 H2696 0.931 . S
C2681 C2680 1.370 . S
C2681 C2685 1.408 . S
C2682 C2680 1.363 . S
C2682 C2683 1.370 . S
C2682 C2686 1.524 . S
C2683 C2675 1.503 . S
C2683 C2682 1.370 . S
C2683 C2684 1.403 . S
C2684 C2683 1.403 . S
C2684 C2685 1.404 . S
C2684 C2687 1.539 . S
C2685 C2681 1.408 . S
C2685 C2684 1.404 . S
C2685 H2697 0.930 . S
C2686 C2682 1.524 . S
C2686 H2698 0.956 . S
C2686 H2699 0.961 . S
C2686 H2700 0.961 . S
C2687 C2684 1.539 . S
C2687 H2701 0.958 . S
C2687 H2702 0.961 . S
C2687 H2703 0.960 . S
H2688 C2672 0.931 . S
H2689 C2677 0.929 . S
H2690 C2678 0.960 . S
H2691 C2678 0.962 . S
H2692 C2678 0.960 . S
H2693 C2679 0.961 . S
H2694 C2679 0.961 . S
H2695 C2679 0.961 . S
H2696 C2680 0.931 . S
H2697 C2685 0.930 . S
H2698 C2686 0.956 . S
H2699 C2686 0.961 . S
H2700 C2686 0.961 . S
H2701 C2687 0.958 . S
H2702 C2687 0.961 . S
H2703 C2687 0.960 . S
C2704 C2705 1.391 . S
C2704 C2706 1.394 . S
C2704 H2720 0.931 . S
C2705 C2704 1.391 . S
C2705 C2709 1.376 . S
C2706 C2704 1.394 . S
C2706 C2707 1.369 . S
C2706 C2710 1.531 . S
C2707 C2706 1.369 . S
C2707 C2708 1.410 . S
C2707 C2715 1.503 . S
C2708 C2707 1.410 . S
C2708 C2709 1.392 . S
C2708 C2711 1.511 . S
C2709 C2705 1.376 . S
C2709 C2708 1.392 . S
C2709 H2721 0.929 . S
C2710 C2706 1.531 . S
C2710 H2722 0.960 . S
C2710 H2723 0.962 . S
C2710 H2724 0.960 . S
C2711 C2708 1.511 . S
C2711 H2725 0.961 . S
C2711 H2726 0.961 . S
C2711 H2727 0.961 . S
C2712 C2713 1.370 . S
C2712 C2714 1.363 . S
C2712 H2728 0.931 . S
C2713 C2712 1.370 . S
C2713 C2717 1.408 . S
C2714 C2712 1.363 . S
C2714 C2715 1.370 . S
C2714 C2718 1.524 . S
C2715 C2707 1.503 . S
C2715 C2714 1.370 . S
C2715 C2716 1.403 . S
C2716 C2715 1.403 . S
C2716 C2717 1.404 . S
C2716 C2719 1.539 . S
C2717 C2713 1.408 . S
C2717 C2716 1.404 . S
C2717 H2729 0.930 . S
C2718 C2714 1.524 . S
C2718 H2730 0.956 . S
C2718 H2731 0.961 . S
C2718 H2732 0.961 . S
C2719 C2716 1.539 . S
C2719 H2733 0.958 . S
C2719 H2734 0.961 . S
C2719 H2735 0.960 . S
H2720 C2704 0.931 . S
H2721 C2709 0.929 . S
H2722 C2710 0.960 . S
H2723 C2710 0.962 . S
H2724 C2710 0.960 . S
H2725 C2711 0.961 . S
H2726 C2711 0.961 . S
H2727 C2711 0.961 . S
H2728 C2712 0.931 . S
H2729 C2717 0.930 . S
H2730 C2718 0.956 . S
H2731 C2718 0.961 . S
H2732 C2718 0.961 . S
H2733 C2719 0.958 . S
H2734 C2719 0.961 . S
H2735 C2719 0.960 . S
C2736 C2737 1.391 . S
C2736 C2738 1.394 . S
C2736 H2752 0.931 . S
C2737 C2736 1.391 . S
C2737 C2741 1.376 . S
C2738 C2736 1.394 . S
C2738 C2739 1.369 . S
C2738 C2742 1.531 . S
C2739 C2738 1.369 . S
C2739 C2740 1.410 . S
C2739 C2747 1.503 . S
C2740 C2739 1.410 . S
C2740 C2741 1.392 . S
C2740 C2743 1.511 . S
C2741 C2737 1.376 . S
C2741 C2740 1.392 . S
C2741 H2753 0.929 . S
C2742 C2738 1.531 . S
C2742 H2754 0.960 . S
C2742 H2755 0.962 . S
C2742 H2756 0.960 . S
C2743 C2740 1.511 . S
C2743 H2757 0.961 . S
C2743 H2758 0.961 . S
C2743 H2759 0.961 . S
C2744 C2745 1.370 . S
C2744 C2746 1.363 . S
C2744 H2760 0.931 . S
C2745 C2744 1.370 . S
C2745 C2749 1.408 . S
C2746 C2744 1.363 . S
C2746 C2747 1.370 . S
C2746 C2750 1.524 . S
C2747 C2739 1.503 . S
C2747 C2746 1.370 . S
C2747 C2748 1.403 . S
C2748 C2747 1.403 . S
C2748 C2749 1.404 . S
C2748 C2751 1.539 . S
C2749 C2745 1.408 . S
C2749 C2748 1.404 . S
C2749 H2761 0.930 . S
C2750 C2746 1.524 . S
C2750 H2762 0.956 . S
C2750 H2763 0.961 . S
C2750 H2764 0.961 . S
C2751 C2748 1.539 . S
C2751 H2765 0.958 . S
C2751 H2766 0.961 . S
C2751 H2767 0.960 . S
H2752 C2736 0.931 . S
H2753 C2741 0.929 . S
H2754 C2742 0.960 . S
H2755 C2742 0.962 . S
H2756 C2742 0.960 . S
H2757 C2743 0.961 . S
H2758 C2743 0.961 . S
H2759 C2743 0.961 . S
H2760 C2744 0.931 . S
H2761 C2749 0.930 . S
H2762 C2750 0.956 . S
H2763 C2750 0.961 . S
H2764 C2750 0.961 . S
H2765 C2751 0.958 . S
H2766 C2751 0.961 . S
H2767 C2751 0.960 . S
C2768 C2769 1.391 . S
C2768 C2770 1.394 . S
C2768 H2784 0.931 . S
C2769 C2768 1.391 . S
C2769 C2773 1.376 . S
C2770 C2768 1.394 . S
C2770 C2771 1.369 . S
C2770 C2774 1.531 . S
C2771 C2770 1.369 . S
C2771 C2772 1.410 . S
C2771 C2779 1.503 . S
C2772 C2771 1.410 . S
C2772 C2773 1.392 . S
C2772 C2775 1.511 . S
C2773 C2769 1.376 . S
C2773 C2772 1.392 . S
C2773 H2785 0.929 . S
C2774 C2770 1.531 . S
C2774 H2786 0.960 . S
C2774 H2787 0.962 . S
C2774 H2788 0.960 . S
C2775 C2772 1.511 . S
C2775 H2789 0.961 . S
C2775 H2790 0.961 . S
C2775 H2791 0.961 . S
C2776 C2777 1.370 . S
C2776 C2778 1.363 . S
C2776 H2792 0.931 . S
C2777 C2776 1.370 . S
C2777 C2781 1.408 . S
C2778 C2776 1.363 . S
C2778 C2779 1.370 . S
C2778 C2782 1.524 . S
C2779 C2771 1.503 . S
C2779 C2778 1.370 . S
C2779 C2780 1.403 . S
C2780 C2779 1.403 . S
C2780 C2781 1.404 . S
C2780 C2783 1.539 . S
C2781 C2777 1.408 . S
C2781 C2780 1.404 . S
C2781 H2793 0.930 . S
C2782 C2778 1.524 . S
C2782 H2794 0.956 . S
C2782 H2795 0.961 . S
C2782 H2796 0.961 . S
C2783 C2780 1.539 . S
C2783 H2797 0.958 . S
C2783 H2798 0.961 . S
C2783 H2799 0.960 . S
H2784 C2768 0.931 . S
H2785 C2773 0.929 . S
H2786 C2774 0.960 . S
H2787 C2774 0.962 . S
H2788 C2774 0.960 . S
H2789 C2775 0.961 . S
H2790 C2775 0.961 . S
H2791 C2775 0.961 . S
H2792 C2776 0.931 . S
H2793 C2781 0.930 . S
H2794 C2782 0.956 . S
H2795 C2782 0.961 . S
H2796 C2782 0.961 . S
H2797 C2783 0.958 . S
H2798 C2783 0.961 . S
H2799 C2783 0.960 . S
C2800 C2801 1.391 . S
C2800 C2802 1.394 . S
C2800 H2816 0.931 . S
C2801 C2800 1.391 . S
C2801 C2805 1.376 . S
C2802 C2800 1.394 . S
C2802 C2803 1.369 . S
C2802 C2806 1.531 . S
C2803 C2802 1.369 . S
C2803 C2804 1.410 . S
C2803 C2811 1.503 . S
C2804 C2803 1.410 . S
C2804 C2805 1.392 . S
C2804 C2807 1.511 . S
C2805 C2801 1.376 . S
C2805 C2804 1.392 . S
C2805 H2817 0.929 . S
C2806 C2802 1.531 . S
C2806 H2818 0.960 . S
C2806 H2819 0.962 . S
C2806 H2820 0.960 . S
C2807 C2804 1.511 . S
C2807 H2821 0.961 . S
C2807 H2822 0.961 . S
C2807 H2823 0.961 . S
C2808 C2809 1.370 . S
C2808 C2810 1.363 . S
C2808 H2824 0.931 . S
C2809 C2808 1.370 . S
C2809 C2813 1.408 . S
C2810 C2808 1.363 . S
C2810 C2811 1.370 . S
C2810 C2814 1.524 . S
C2811 C2803 1.503 . S
C2811 C2810 1.370 . S
C2811 C2812 1.403 . S
C2812 C2811 1.403 . S
C2812 C2813 1.404 . S
C2812 C2815 1.539 . S
C2813 C2809 1.408 . S
C2813 C2812 1.404 . S
C2813 H2825 0.930 . S
C2814 C2810 1.524 . S
C2814 H2826 0.956 . S
C2814 H2827 0.961 . S
C2814 H2828 0.961 . S
C2815 C2812 1.539 . S
C2815 H2829 0.958 . S
C2815 H2830 0.961 . S
C2815 H2831 0.960 . S
H2816 C2800 0.931 . S
H2817 C2805 0.929 . S
H2818 C2806 0.960 . S
H2819 C2806 0.962 . S
H2820 C2806 0.960 . S
H2821 C2807 0.961 . S
H2822 C2807 0.961 . S
H2823 C2807 0.961 . S
H2824 C2808 0.931 . S
H2825 C2813 0.930 . S
H2826 C2814 0.956 . S
H2827 C2814 0.961 . S
H2828 C2814 0.961 . S
H2829 C2815 0.958 . S
H2830 C2815 0.961 . S
H2831 C2815 0.960 . S
C529 C9 1.143 1_655 S
C537 C138 1.142 1_655 S
C561 C28 1.120 1_565 S
C569 C159 1.132 1_565 S
C593 C95 1.121 1_655 S
C601 C53 1.133 1_655 S
C625 C73 1.150 . S
C633 C115 1.145 . S
C657 C71 1.135 1_565 S
C665 C31 1.139 1_565 S
C689 C50 1.118 . S
C697 C6 1.131 . S
C721 C117 1.156 . S
C729 C161 1.147 . S
C753 C141 1.116 1_655 S
C761 C93 1.131 1_655 S
C785 C181 1.145 1_556 S
C793 C207 1.143 1_556 S
C817 C183 1.148 . S
C825 C229 1.144 . S
C849 C226 1.134 1_556 S
C857 C249 1.135 1_556 S
C881 C247 1.116 1_556 S
C889 C204 1.130 1_556 S
C913 C273 1.118 . S
C921 C402 1.132 . S
C945 C423 1.126 . S
C953 C292 1.133 . S
C977 C317 1.155 . S
C985 C359 1.146 . S
C1009 C337 1.154 . S
C1017 C379 1.146 . S
C1041 C335 1.139 . S
C1049 C295 1.141 . S
C1073 C314 1.147 . S
C1081 C270 1.142 . S
C1105 C381 1.127 . S
C1113 C425 1.134 . S
C1137 C405 1.117 . S
C1145 C357 1.131 . S
C1169 C445 1.142 . S
C1177 C469 1.142 . S
C1201 C493 1.150 . S
C1209 C447 1.146 . S
C1233 C490 1.153 . S
C1241 C513 1.147 . S
C1265 C511 1.138 . S
C1273 C467 1.138 . S
C1297 C512 0.934 . S
C1305 C7 0.974 . S
C1329 C470 0.953 . S
C1337 C26 0.964 . S
C1361 C51 0.959 . S
C1369 C448 0.969 . S
C1393 C74 0.930 . S
C1401 C488 0.980 . S
C1425 C491 0.994 . S
C1433 C96 0.948 . S
C1457 C116 0.984 . S
C1465 C514 0.951 . S
C1489 C468 0.953 . S
C1497 C136 0.968 . S
C1521 C160 0.937 . S
C1529 C446 0.976 . S
C1553 C358 0.989 . S
C1561 C72 0.949 . S
C1585 C4 0.966 . S
C1593 C382 0.966 . S
C1617 C29 0.964 . S
C1625 C403 0.967 . S
C1649 C48 0.954 . S
C1657 C426 0.963 . S
C1681 C268 0.989 . S
C1689 C118 0.954 . S
C1713 C139 0.940 . S
C1721 C293 0.969 . S
C1745 C162 0.994 . S
C1753 C312 0.948 . S
C1777 C94 0.966 . S
C1785 C336 0.967 . S
C1809 C424 0.940 . S
C1817 C182 0.969 . S
C1841 C205 0.986 . S
C1849 C290 0.958 . S
C1873 C315 0.950 . S
C1881 C184 0.970 . S
C1905 C338 0.992 . S
C1913 C224 0.954 . S
C1937 C248 0.950 . S
C1945 C271 0.973 . S
C1969 C380 0.994 . S
C1977 C250 0.948 . S
C2001 C400 0.993 . S
C2009 C202 0.949 . S
C2033 C360 0.935 . S
C2041 C227 0.974 . S
C2065 C97 0.991 . S
C2073 C449 0.956 . S
C2097 C114 0.973 . S
C2105 C489 0.960 . S
C2129 C137 0.994 . S
C2137 C510 0.948 . S
C2161 C471 0.938 . S
C2169 C158 0.969 . S
C2193 C466 0.990 . S
C2201 C8 0.954 . S
C2225 C27 0.984 . S
C2233 C444 0.955 . S
C2257 C52 0.954 . S
C2265 C492 0.962 . S
C2289 C515 0.967 . S
C2297 C75 0.957 . S
C2321 C269 0.958 . S
C2329 C163 0.970 . S
C2353 C92 0.931 . S
C2361 C294 0.975 . S
C2385 C313 0.982 . S
C2393 C119 0.951 . S
C2417 C334 0.937 . S
C2425 C140 0.975 . S
C2449 C356 0.933 . S
C2457 C30 0.972 . S
C2481 C49 0.992 . S
C2489 C383 0.953 . S
C2513 C404 0.994 . S
C2521 C70 0.953 . S
C2545 C427 0.930 . S
C2553 C5 0.974 . S
C2577 C251 0.960 . S
C2585 C339 0.970 . S
C2609 C225 0.978 . S
C2617 C378 0.953 . S
C2641 C401 0.994 . S
C2649 C246 0.949 . S
C2673 C206 0.988 . S
C2681 C422 0.952 . S
C2705 C185 0.993 . S
C2713 C361 0.949 . S
C2737 C291 0.940 . S
C2745 C180 0.974 . S
C2769 C228 0.963 . S
C2777 C316 0.969 . S
C2801 C272 0.976 . S
C2809 C203 0.963 . S
