# Generated by pormake.
# Topology sne, (6)-cn, num edge types: 1
# Building blocks:
#     Node 0, Type 0, BuildingBlock: OJICUG_clean_sbu_0, # of connection points: 6
#     Node 1, Type 0, BuildingBlock: OJICUG_clean_sbu_0, # of connection points: 6
#     Node 2, Type 0, BuildingBlock: OJICUG_clean_sbu_0, # of connection points: 6
#     Node 3, Type 0, BuildingBlock: OJICUG_clean_sbu_0, # of connection points: 6
#     Node 4, Type 0, BuildingBlock: OJICUG_clean_sbu_0, # of connection points: 6
#     Node 5, Type 0, BuildingBlock: OJICUG_clean_sbu_0, # of connection points: 6
#     Node 6, Type 0, BuildingBlock: OJICUG_clean_sbu_0, # of connection points: 6
#     Node 7, Type 0, BuildingBlock: OJICUG_clean_sbu_0, # of connection points: 6
#     Edge 8, Type (0, 0), BuildingBlock: MIFKUJ_clean_linker_0, # of connection points: 2
#     Edge 9, Type (0, 0), BuildingBlock: MIFKUJ_clean_linker_0, # of connection points: 2
#     Edge 10, Type (0, 0), BuildingBlock: MIFKUJ_clean_linker_0, # of connection points: 2
#     Edge 11, Type (0, 0), BuildingBlock: MIFKUJ_clean_linker_0, # of connection points: 2
#     Edge 12, Type (0, 0), BuildingBlock: MIFKUJ_clean_linker_0, # of connection points: 2
#     Edge 13, Type (0, 0), BuildingBlock: MIFKUJ_clean_linker_0, # of connection points: 2
#     Edge 14, Type (0, 0), BuildingBlock: MIFKUJ_clean_linker_0, # of connection points: 2
#     Edge 15, Type (0, 0), BuildingBlock: MIFKUJ_clean_linker_0, # of connection points: 2
#     Edge 16, Type (0, 0), BuildingBlock: MIFKUJ_clean_linker_0, # of connection points: 2
#     Edge 17, Type (0, 0), BuildingBlock: MIFKUJ_clean_linker_0, # of connection points: 2
#     Edge 18, Type (0, 0), BuildingBlock: MIFKUJ_clean_linker_0, # of connection points: 2
#     Edge 19, Type (0, 0), BuildingBlock: MIFKUJ_clean_linker_0, # of connection points: 2
#     Edge 20, Type (0, 0), BuildingBlock: MIFKUJ_clean_linker_0, # of connection points: 2
#     Edge 21, Type (0, 0), BuildingBlock: MIFKUJ_clean_linker_0, # of connection points: 2
#     Edge 22, Type (0, 0), BuildingBlock: MIFKUJ_clean_linker_0, # of connection points: 2
#     Edge 23, Type (0, 0), BuildingBlock: MIFKUJ_clean_linker_0, # of connection points: 2
#     Edge 24, Type (0, 0), BuildingBlock: MIFKUJ_clean_linker_0, # of connection points: 2
#     Edge 25, Type (0, 0), BuildingBlock: MIFKUJ_clean_linker_0, # of connection points: 2
#     Edge 26, Type (0, 0), BuildingBlock: MIFKUJ_clean_linker_0, # of connection points: 2
#     Edge 27, Type (0, 0), BuildingBlock: MIFKUJ_clean_linker_0, # of connection points: 2
#     Edge 28, Type (0, 0), BuildingBlock: MIFKUJ_clean_linker_0, # of connection points: 2
#     Edge 29, Type (0, 0), BuildingBlock: MIFKUJ_clean_linker_0, # of connection points: 2
#     Edge 30, Type (0, 0), BuildingBlock: MIFKUJ_clean_linker_0, # of connection points: 2
#     Edge 31, Type (0, 0), BuildingBlock: MIFKUJ_clean_linker_0, # of connection points: 2
# Relax obj value: 0.189
# Max RMSD: 0.224
# Mean RMSD: 0.224
data_MOF--net-sne--node1-OJICUG_clean_sbu_0--edge1-MIFKUJ_clean_linker_0
_symmetry_space_group_name_H-M    P1
_symmetry_Int_Tables_number       1
_symmetry_cell_setting            triclinic
loop_
_symmetry_equiv_pos_as_xyz
'x, y, z'
_cell_length_a     44.231228
_cell_length_b     44.084398
_cell_length_c     36.164204
_cell_angle_alpha  90.060246
_cell_angle_beta   89.841416
_cell_angle_gamma 89.965043
loop_
_atom_site_label
_atom_site_type_symbol
_atom_site_fract_x
_atom_site_fract_y
_atom_site_fract_z
_atom_type_partial_charge
Sc0 Sc 0.28143 0.10949 0.4082 0.0
Sc1 Sc 0.21225 0.12342 0.36329 0.0
Sc2 Sc 0.25987 0.18393 0.38703 0.0
O3 O 0.25128 0.13884 0.38598 0.0
C4 C 0.28588 0.16385 0.46522 0.0
C5 C 0.21793 0.08283 0.43532 0.0
C6 C 0.19071 0.18267 0.40642 0.0
C7 C 0.25914 0.07214 0.33853 0.0
C8 C 0.32336 0.15631 0.36435 0.0
C9 C 0.22826 0.17588 0.30798 0.0
O10 O 0.28588 0.13554 0.45861 0.0
O11 O 0.20171 0.09698 0.41198 0.0
O12 O 0.21684 0.19329 0.41307 0.0
O13 O 0.27989 0.07977 0.36092 0.0
O14 O 0.30356 0.17721 0.36178 0.0
O15 O 0.21877 0.14894 0.31296 0.0
O16 O 0.31906 0.13186 0.38225 0.0
O17 O 0.2335 0.08506 0.33756 0.0
O18 O 0.24138 0.19103 0.33311 0.0
O19 O 0.24664 0.08421 0.43558 0.0
O20 O 0.27919 0.18341 0.44097 0.0
O21 O 0.18601 0.15955 0.38636 0.0
Sc22 Sc 0.10484 0.78221 0.67639 0.0
Sc23 Sc 0.13114 0.72482 0.61655 0.0
Sc24 Sc 0.18293 0.77299 0.66094 0.0
O25 O 0.13958 0.75993 0.65137 0.0
C26 C 0.14918 0.83615 0.65271 0.0
C27 C 0.07967 0.77176 0.59465 0.0
C28 C 0.18668 0.75559 0.57575 0.0
C29 C 0.08119 0.71393 0.67856 0.0
C30 C 0.15312 0.78192 0.7405 0.0
C31 C 0.18748 0.70113 0.66341 0.0
O32 O 0.12417 0.82596 0.66489 0.0
O33 O 0.09673 0.74921 0.58831 0.0
O34 O 0.19746 0.76721 0.6049 0.0
O35 O 0.08163 0.74116 0.68997 0.0
O36 O 0.17517 0.7812 0.71815 0.0
O37 O 0.16532 0.69738 0.64158 0.0
O38 O 0.1257 0.78007 0.7304 0.0
O39 O 0.09792 0.7043 0.65246 0.0
O40 O 0.19615 0.72705 0.67491 0.0
O41 O 0.07978 0.7863 0.62513 0.0
O42 O 0.17244 0.81952 0.64794 0.0
O43 O 0.16215 0.74076 0.57534 0.0
Sc44 Sc 0.78105 0.81643 0.31177 0.0
Sc45 Sc 0.82491 0.87953 0.28457 0.0
Sc46 Sc 0.76274 0.88872 0.34467 0.0
O47 O 0.78947 0.86157 0.31345 0.0
C48 C 0.71512 0.84587 0.30534 0.0
C49 C 0.80156 0.82862 0.22905 0.0
C50 C 0.776 0.93039 0.27318 0.0
C51 C 0.85276 0.82031 0.32166 0.0
C52 C 0.76391 0.8294 0.39532 0.0
C53 C 0.82689 0.91619 0.36095 0.0
O54 O 0.73347 0.82375 0.30153 0.0
O55 O 0.81734 0.85202 0.23578 0.0
O56 O 0.76305 0.92436 0.30378 0.0
O57 O 0.8278 0.80596 0.32324 0.0
O58 O 0.75846 0.85738 0.39036 0.0
O59 O 0.83741 0.90991 0.32907 0.0
O60 O 0.77331 0.8123 0.36966 0.0
O61 O 0.85523 0.84676 0.30793 0.0
O62 O 0.80094 0.90779 0.37197 0.0
O63 O 0.78704 0.81425 0.25354 0.0
O64 O 0.72261 0.87116 0.31957 0.0
O65 O 0.79748 0.91442 0.26011 0.0
Sc66 Sc 0.87651 0.1887 0.64334 0.0
Sc67 Sc 0.86355 0.24807 0.58174 0.0
Sc68 Sc 0.80411 0.21556 0.62898 0.0
O69 O 0.84851 0.21789 0.61821 0.0
C70 C 0.82361 0.14982 0.61361 0.0
C71 C 0.90342 0.18911 0.56304 0.0
C72 C 0.80226 0.23524 0.54506 0.0
C73 C 0.91568 0.24942 0.64038 0.0
C74 C 0.83195 0.20084 0.70666 0.0
C75 C 0.81547 0.28445 0.63202 0.0
O76 O 0.84332 0.15264 0.63898 0.0
O77 O 0.89458 0.2162 0.55714 0.0
O78 O 0.78987 0.23271 0.57648 0.0
O79 O 0.91184 0.2218 0.64942 0.0
O80 O 0.81048 0.19771 0.68379 0.0
O81 O 0.83363 0.28209 0.60459 0.0
O82 O 0.8593 0.20277 0.69635 0.0
O83 O 0.89798 0.26362 0.61886 0.0
O84 O 0.80477 0.26155 0.64938 0.0
O85 O 0.89628 0.17415 0.59188 0.0
O86 O 0.80563 0.17125 0.60528 0.0
O87 O 0.83074 0.23522 0.54104 0.0
Sc88 Sc 0.21885 0.30559 0.8931 0.0
Sc89 Sc 0.26811 0.36362 0.86656 0.0
Sc90 Sc 0.19879 0.38144 0.90905 0.0
O91 O 0.22852 0.35037 0.88956 0.0
C92 C 0.15762 0.33426 0.86506 0.0
C93 C 0.25194 0.30944 0.81453 0.0
C94 C 0.22404 0.41629 0.83888 0.0
C95 C 0.28701 0.30532 0.91361 0.0
C96 C 0.19014 0.32959 0.96834 0.0
C97 C 0.26258 0.40701 0.93632 0.0
O98 O 0.17698 0.31287 0.86484 0.0
O99 O 0.26047 0.33688 0.81748 0.0
O100 O 0.20262 0.41004 0.86107 0.0
O101 O 0.26048 0.29649 0.92174 0.0
O102 O 0.192 0.35754 0.9604 0.0
O103 O 0.27886 0.39155 0.91406 0.0
O104 O 0.19686 0.30876 0.94564 0.0
O105 O 0.29259 0.32698 0.89151 0.0
O106 O 0.23383 0.40626 0.93621 0.0
O107 O 0.2395 0.29506 0.84088 0.0
O108 O 0.16143 0.35914 0.88235 0.0
O109 O 0.24895 0.40199 0.83872 0.0
Sc110 Sc 0.3897 0.70678 0.17663 0.0
Sc111 Sc 0.38094 0.76503 0.11063 0.0
Sc112 Sc 0.31715 0.72641 0.14498 0.0
O113 O 0.36266 0.7327 0.14397 0.0
C114 C 0.34162 0.65861 0.14737 0.0
C115 C 0.42766 0.71057 0.10203 0.0
C116 C 0.32838 0.73943 0.05945 0.0
C117 C 0.42187 0.77123 0.18255 0.0
C118 C 0.33408 0.71926 0.23001 0.0
C119 C 0.32296 0.79857 0.1434 0.0
O120 O 0.36643 0.66579 0.16258 0.0
O121 O 0.41555 0.73512 0.09123 0.0
O122 O 0.31297 0.72932 0.08633 0.0
O123 O 0.41645 0.7446 0.19407 0.0
O124 O 0.31554 0.72275 0.20371 0.0
O125 O 0.34865 0.79829 0.12768 0.0
O126 O 0.36207 0.71422 0.22495 0.0
O127 O 0.41048 0.78188 0.15309 0.0
O128 O 0.30864 0.77447 0.1518 0.0
O129 O 0.42043 0.69695 0.13173 0.0
O130 O 0.32162 0.67802 0.13849 0.0
O131 O 0.35369 0.75263 0.06355 0.0
Sc132 Sc 0.75049 0.61677 0.83917 0.0
Sc133 Sc 0.68498 0.61994 0.78434 0.0
Sc134 Sc 0.71832 0.68693 0.81702 0.0
O135 O 0.71799 0.64114 0.81343 0.0
C136 C 0.74033 0.66829 0.89802 0.0
C137 C 0.69119 0.57777 0.85479 0.0
C138 C 0.64929 0.67155 0.82798 0.0
C139 C 0.7429 0.57937 0.7652 0.0
C140 C 0.7873 0.67191 0.8041 0.0
C141 C 0.69688 0.67667 0.7337 0.0
O142 O 0.74588 0.64076 0.89047 0.0
O143 O 0.67472 0.58991 0.83007 0.0
O144 O 0.67254 0.68685 0.83693 0.0
O145 O 0.75915 0.5896 0.79123 0.0
O146 O 0.76463 0.68887 0.79736 0.0
O147 O 0.69221 0.64829 0.73639 0.0
O148 O 0.7853 0.64685 0.82121 0.0
O149 O 0.71559 0.5874 0.76038 0.0
O150 O 0.7038 0.69317 0.76115 0.0
O151 O 0.71885 0.58429 0.85946 0.0
O152 O 0.73231 0.68748 0.87384 0.0
O153 O 0.65026 0.64937 0.80553 0.0
Sc154 Sc 0.6078 0.3059 0.14603 0.0
Sc155 Sc 0.62234 0.24619 0.08353 0.0
Sc156 Sc 0.68269 0.28716 0.12274 0.0
O157 O 0.63758 0.27964 0.11741 0.0
C158 C 0.65659 0.35444 0.12002 0.0
C159 C 0.57569 0.29983 0.06786 0.0
C160 C 0.67824 0.27173 0.03713 0.0
C161 C 0.57512 0.24164 0.14976 0.0
C162 C 0.65888 0.29538 0.20561 0.0
C163 C 0.67895 0.21478 0.12267 0.0
O164 O 0.63128 0.34698 0.13375 0.0
O165 O 0.58904 0.2753 0.05899 0.0
O166 O 0.69153 0.28296 0.06494 0.0
O167 O 0.57995 0.2685 0.16075 0.0
O168 O 0.67945 0.29195 0.18143 0.0
O169 O 0.65401 0.21397 0.10527 0.0
O170 O 0.63136 0.29988 0.19739 0.0
O171 O 0.5894 0.22954 0.123 0.0
O172 O 0.6921 0.23947 0.13143 0.0
O173 O 0.58064 0.31386 0.09797 0.0
O174 O 0.67749 0.3353 0.11353 0.0
O175 O 0.65294 0.2582 0.03941 0.0
H176 H 0.31301 0.0497 0.31286 0.0
H177 H 0.3206 0.00431 0.27444 0.0
H178 H 0.22433 0.98935 0.27213 0.0
H179 H 0.21639 0.03488 0.30956 0.0
H180 H 0.274 0.93761 0.29717 0.0
H181 H 0.23874 0.00924 0.20061 0.0
H182 H 0.24331 0.05861 0.16898 0.0
H183 H 0.33629 0.03957 0.1435 0.0
H184 H 0.33231 0.9902 0.17534 0.0
H185 H 0.26988 0.8108 0.18036 0.0
H186 H 0.25483 0.85918 0.20802 0.0
H187 H 0.33469 0.90158 0.16283 0.0
H188 H 0.34928 0.85401 0.13414 0.0
H189 H 0.29195 0.94063 0.16165 0.0
H190 H 0.33317 0.87441 0.25085 0.0
H191 H 0.33981 0.82753 0.28699 0.0
H192 H 0.25065 0.8378 0.33259 0.0
H193 H 0.24321 0.88451 0.29605 0.0
C194 C 0.29349 0.03683 0.30393 0.0
C195 C 0.26412 0.04583 0.31408 0.0
C196 C 0.29785 0.01103 0.28208 0.0
C197 C 0.27297 0.99373 0.27071 0.0
C198 C 0.24371 0.0026 0.28074 0.0
C199 C 0.23927 0.02865 0.30191 0.0
C200 C 0.27745 0.96591 0.24893 0.0
C201 C 0.27736 0.93803 0.26744 0.0
C202 C 0.28321 0.96698 0.2106 0.0
C203 C 0.28528 0.99619 0.19055 0.0
C204 C 0.26019 0.01568 0.18843 0.0
C205 C 0.26266 0.04362 0.17042 0.0
C206 C 0.29009 0.05224 0.15428 0.0
C207 C 0.31506 0.03285 0.15597 0.0
C208 C 0.31269 0.00488 0.17394 0.0
C209 C 0.28391 0.83056 0.1757 0.0
C210 C 0.31102 0.82835 0.15548 0.0
C211 C 0.27536 0.85816 0.19167 0.0
C212 C 0.294 0.88382 0.18815 0.0
C213 C 0.32 0.8821 0.16604 0.0
C214 C 0.32837 0.85472 0.14978 0.0
C215 C 0.28787 0.91178 0.20965 0.0
C216 C 0.28799 0.93985 0.19126 0.0
C217 C 0.28338 0.91096 0.24846 0.0
C218 C 0.28748 0.88274 0.2703 0.0
C219 C 0.31483 0.8665 0.26825 0.0
C220 C 0.31876 0.83999 0.28883 0.0
C221 C 0.29564 0.82965 0.31196 0.0
C222 C 0.2685 0.8458 0.31455 0.0
C223 C 0.2644 0.8723 0.29388 0.0
H224 H 0.29893 0.80923 0.32798 0.0
H225 H 0.29198 0.07391 0.14044 0.0
H226 H 0.04936 0.67122 0.64026 0.0
H227 H -0.00216 0.6549 0.65539 0.0
H228 H 0.00494 0.69817 0.76197 0.0
H229 H 0.05611 0.71471 0.74705 0.0
H230 H 0.96124 0.62759 0.71953 0.0
H231 H 0.95495 0.75529 0.75487 0.0
H232 H 0.98174 0.80224 0.73717 0.0
H233 H 0.00271 0.76377 0.63098 0.0
H234 H 0.97556 0.71707 0.64772 0.0
H235 H 0.84121 0.65754 0.83413 0.0
H236 H 0.89038 0.65879 0.80387 0.0
H237 H 0.85083 0.7029 0.70916 0.0
H238 H 0.80101 0.70175 0.73963 0.0
H239 H 0.90647 0.72596 0.72684 0.0
H240 H 0.8645 0.6306 0.70194 0.0
H241 H 0.83756 0.58274 0.71438 0.0
H242 H 0.90919 0.5541 0.78618 0.0
H243 H 0.9363 0.60208 0.77487 0.0
C244 C 0.04048 0.67592 0.66762 0.0
C245 C 0.0564 0.69471 0.69228 0.0
C246 C 0.01104 0.66659 0.67617 0.0
C247 C -0.00241 0.6759 0.70944 0.0
C248 C 0.01499 0.69105 0.73601 0.0
C249 C 0.04418 0.70051 0.72745 0.0
C250 C 0.96443 0.67601 0.71362 0.0
C251 C 0.94907 0.64892 0.7209 0.0
C252 C 0.94849 0.70384 0.71353 0.0
C253 C 0.96345 0.73262 0.70269 0.0
C254 C 0.96505 0.75702 0.72763 0.0
C255 C 0.98034 0.78359 0.71776 0.0
C256 C 0.99401 0.78601 0.68299 0.0
C257 C 0.99221 0.76196 0.65791 0.0
C258 C 0.97687 0.73543 0.66758 0.0
C259 C 0.84302 0.66797 0.80709 0.0
C260 C 0.81732 0.67931 0.78902 0.0
C261 C 0.87105 0.66842 0.78974 0.0
C262 C 0.87394 0.68003 0.75388 0.0
C263 C 0.84883 0.69344 0.73669 0.0
C264 C 0.82054 0.69305 0.7542 0.0
C265 C 0.90341 0.67765 0.73487 0.0
C266 C 0.91822 0.70442 0.72472 0.0
C267 C 0.91838 0.64933 0.731 0.0
C268 C 0.90239 0.62014 0.73771 0.0
C269 C 0.87443 0.61424 0.72064 0.0
C270 C 0.8591 0.58708 0.7275 0.0
C271 C 0.8716 0.56546 0.75117 0.0
C272 C 0.89951 0.57091 0.76791 0.0
C273 C 0.91489 0.59809 0.76125 0.0
H274 H 0.85972 0.54442 0.75638 0.0
H275 H 0.00595 0.80653 0.67545 0.0
H276 H 0.73044 0.96954 0.29164 0.0
H277 H 0.71753 0.01741 0.26205 0.0
H278 H 0.78777 0.00312 0.1809 0.0
H279 H 0.80079 0.95485 0.21015 0.0
H280 H 0.75138 0.06745 0.25358 0.0
H281 H 0.76421 0.03637 0.0994 0.0
H282 H 0.76002 0.9916 0.05871 0.0
H283 H 0.69679 0.951 0.13414 0.0
H284 H 0.7003 0.99568 0.17499 0.0
H285 H 0.73561 0.20436 0.15119 0.0
H286 H 0.7567 0.15577 0.17148 0.0
H287 H 0.67404 0.1107 0.14024 0.0
H288 H 0.65319 0.15865 0.11913 0.0
H289 H 0.72073 0.07659 0.1222 0.0
H290 H 0.68883 0.13508 0.22831 0.0
H291 H 0.6896 0.1802 0.26842 0.0
H292 H 0.78308 0.16425 0.29338 0.0
H293 H 0.7833 0.11975 0.25192 0.0
C294 C 0.74308 0.97636 0.26733 0.0
C295 C 0.76672 0.95827 0.25333 0.0
C296 C 0.73573 0.00385 0.25058 0.0
C297 C 0.75171 0.01384 0.21936 0.0
C298 C 0.77501 0.99571 0.20485 0.0
C299 C 0.7824 0.96812 0.22161 0.0
C300 C 0.74403 0.04345 0.20246 0.0
C301 C 0.74484 0.0695 0.2248 0.0
C302 C 0.73539 0.04605 0.16498 0.0
C303 C 0.73282 0.01921 0.14044 0.0
C304 C 0.74936 0.01792 0.10723 0.0
C305 C 0.7471 0.99256 0.08415 0.0
C306 C 0.72824 0.96842 0.09391 0.0
C307 C 0.71149 0.96965 0.12669 0.0
C308 C 0.71364 0.99497 0.14984 0.0
C309 C 0.72202 0.18406 0.14842 0.0
C310 C 0.69261 0.18549 0.13378 0.0
C311 C 0.73411 0.15631 0.16 0.0
C312 C 0.71682 0.12965 0.1577 0.0
C313 C 0.68785 0.13093 0.14215 0.0
C314 C 0.6759 0.15849 0.13028 0.0
C315 C 0.7278 0.10061 0.1734 0.0
C316 C 0.7277 0.07465 0.15085 0.0
C317 C 0.73653 0.09799 0.21092 0.0
C318 C 0.73618 0.12428 0.23662 0.0
C319 C 0.70963 0.1413 0.2421 0.0
C320 C 0.70988 0.16678 0.26511 0.0
C321 C 0.73631 0.17505 0.28361 0.0
C322 C 0.76261 0.15786 0.27902 0.0
C323 C 0.7626 0.13257 0.25562 0.0
H324 H 0.73643 0.19477 0.30146 0.0
H325 H 0.72654 0.9488 0.07602 0.0
H326 H 0.1182 0.37884 0.84401 0.0
H327 H 0.07771 0.37474 0.79847 0.0
H328 H 0.09608 0.27905 0.78669 0.0
H329 H 0.13683 0.28295 0.83157 0.0
H330 H 0.09253 0.30692 0.72067 0.0
H331 H 0.03522 0.30559 0.83605 0.0
H332 H 0.01805 0.32691 0.89561 0.0
H333 H 0.98368 0.40559 0.83979 0.0
H334 H 0.001 0.38486 0.77991 0.0
H335 H 0.96672 0.22407 0.66824 0.0
H336 H 0.00954 0.24991 0.69616 0.0
H337 H 0.96788 0.33657 0.67436 0.0
H338 H 0.92459 0.31074 0.64609 0.0
H339 H 0.98458 0.32869 0.7471 0.0
H340 H 0.03049 0.31936 0.62927 0.0
H341 H 0.04674 0.29482 0.57121 0.0
H342 H 0.10255 0.23307 0.63233 0.0
H343 H 0.08619 0.25666 0.69077 0.0
C344 C 0.11334 0.35682 0.83212 0.0
C345 C 0.13076 0.33119 0.84134 0.0
C346 C 0.09027 0.35459 0.80604 0.0
C347 C 0.08409 0.32665 0.7892 0.0
C348 C 0.10079 0.30089 0.79919 0.0
C349 C 0.12393 0.30312 0.825 0.0
C350 C 0.06056 0.32385 0.76066 0.0
C351 C 0.06886 0.31156 0.72633 0.0
C352 C 0.03003 0.33141 0.76765 0.0
C353 C 0.01977 0.34389 0.80362 0.0
C354 C 0.02425 0.32757 0.83654 0.0
C355 C 0.01444 0.33951 0.87033 0.0
C356 C -0.00011 0.36764 0.8715 0.0
C357 C 0.99503 0.38384 0.83885 0.0
C358 C 0.00483 0.37201 0.80499 0.0
C359 C 0.9667 0.24864 0.66909 0.0
C360 C 0.94219 0.2654 0.65533 0.0
C361 C 0.99136 0.26337 0.68464 0.0
C362 C 0.99196 0.29511 0.68681 0.0
C363 C 0.96784 0.31204 0.67251 0.0
C364 C 0.94319 0.29727 0.65651 0.0
C365 C 0.01629 0.30983 0.70795 0.0
C366 C 0.00827 0.32473 0.74084 0.0
C367 C 0.04707 0.30421 0.69981 0.0
C368 C 0.0569 0.28976 0.66456 0.0
C369 C 0.04599 0.30036 0.63041 0.0
C370 C 0.05526 0.28662 0.59739 0.0
C371 C 0.07557 0.26236 0.59813 0.0
C372 C 0.08677 0.25184 0.63182 0.0
C373 C 0.07751 0.26541 0.66491 0.0
H374 H 0.08264 0.25167 0.57264 0.0
H375 H 0.99229 0.37684 0.89768 0.0
H376 H 0.38413 0.61366 0.14538 0.0
H377 H 0.37856 0.56274 0.11972 0.0
H378 H 0.28411 0.57998 0.09931 0.0
H379 H 0.28937 0.63113 0.12468 0.0
H380 H 0.29886 0.51932 0.12723 0.0
H381 H 0.32934 0.59322 0.03169 0.0
H382 H 0.36456 0.6326 0.00929 0.0
H383 H 0.43828 0.56945 0.01576 0.0
H384 H 0.40349 0.52976 0.03852 0.0
H385 H 0.23494 0.44949 0.97899 0.0
H386 H 0.25753 0.4835 0.02346 0.0
H387 H 0.34559 0.44556 0.00073 0.0
H388 H 0.32297 0.41117 0.95489 0.0
H389 H 0.34673 0.50744 0.00365 0.0
H390 H 0.31243 0.42936 0.08209 0.0
H391 H 0.27743 0.39033 0.10555 0.0
H392 H 0.21292 0.45929 0.13431 0.0
H393 H 0.24728 0.49873 0.11046 0.0
C394 C 0.36199 0.60649 0.13612 0.0
C395 C 0.3372 0.62657 0.13674 0.0
C396 C 0.35893 0.57738 0.12149 0.0
C397 C 0.33101 0.56784 0.10756 0.0
C398 C 0.30582 0.58706 0.11011 0.0
C399 C 0.30891 0.6163 0.12438 0.0
C400 C 0.32853 0.5392 0.08678 0.0
C401 C 0.30937 0.5165 0.1003 0.0
C402 C 0.34333 0.53526 0.05239 0.0
C403 C 0.36391 0.55865 0.03711 0.0
C404 C 0.35307 0.58777 0.02839 0.0
C405 C 0.37294 0.61013 0.01565 0.0
C406 C 0.40365 0.60355 0.0113 0.0
C407 C 0.4145 0.57451 0.01925 0.0
C408 C 0.39471 0.55206 0.03201 0.0
C409 C 0.25911 0.44802 0.98341 0.0
C410 C 0.27712 0.42737 0.96348 0.0
C411 C 0.27198 0.46747 0.0091 0.0
C412 C 0.3031 0.46654 0.01605 0.0
C413 C 0.32143 0.44633 -0.00401 0.0
C414 C 0.3085 0.42677 0.96986 0.0
C415 C 0.31587 0.48795 0.04333 0.0
C416 C 0.33699 0.50947 0.03111 0.0
C417 C 0.30311 0.49061 0.07916 0.0
C418 C 0.2825 0.46705 0.09441 0.0
C419 C 0.29074 0.43622 0.09329 0.0
C420 C 0.271 0.41401 0.10665 0.0
C421 C 0.24297 0.42233 0.1214 0.0
C422 C 0.23466 0.45289 0.12292 0.0
C423 C 0.25431 0.4752 0.10955 0.0
H424 H 0.22769 0.40509 0.13166 0.0
H425 H 0.41903 0.62095 0.0018 0.0
H426 H 0.63582 0.71735 0.87645 0.0
H427 H 0.59534 0.71716 0.92239 0.0
H428 H 0.55936 0.63492 0.87516 0.0
H429 H 0.59915 0.63528 0.82846 0.0
H430 H 0.51455 0.67107 0.90157 0.0
H431 H 0.60528 0.62703 0.94764 0.0
H432 H 0.66039 0.62448 0.95707 0.0
H433 H 0.65739 0.70756 0.01909 0.0
H434 H 0.60215 0.71046 0.01027 0.0
H435 H 0.43371 0.65361 0.0731 0.0
H436 H 0.4717 0.63757 0.02698 0.0
H437 H 0.51469 0.72517 0.03503 0.0
H438 H 0.47668 0.74135 0.08002 0.0
H439 H 0.55562 0.67351 0.02927 0.0
H440 H 0.46335 0.71755 0.97495 0.0
H441 H 0.40832 0.71735 0.96414 0.0
H442 H 0.41468 0.62863 0.91563 0.0
H443 H 0.4697 0.62802 0.927 0.0
C444 C 0.61885 0.69969 0.87514 0.0
C445 C 0.62109 0.67604 0.84922 0.0
C446 C 0.59585 0.69949 0.90155 0.0
C447 C 0.57505 0.67546 0.90275 0.0
C448 C 0.57545 0.65344 0.87487 0.0
C449 C 0.59825 0.65376 0.84818 0.0
C450 C 0.55482 0.67202 0.93497 0.0
C451 C 0.52349 0.67099 0.92948 0.0
C452 C 0.56661 0.6713 0.9713 0.0
C453 C 0.5996 0.66897 0.97829 0.0
C454 C 0.61637 0.64468 0.96344 0.0
C455 C 0.64762 0.64314 0.96877 0.0
C456 C 0.66237 0.66573 0.98896 0.0
C457 C 0.64588 0.6899 0.00385 0.0
C458 C 0.61458 0.69144 -0.00116 0.0
C459 C 0.45176 0.66902 0.06548 0.0
C460 C 0.45246 0.69868 0.07957 0.0
C461 C 0.47328 0.65992 0.0393 0.0
C462 C 0.49577 0.68032 0.02774 0.0
C463 C 0.49755 0.70915 0.04385 0.0
C464 C 0.47582 0.71841 0.06926 0.0
C465 C 0.51538 0.67366 -0.00415 0.0
C466 C 0.54671 0.67274 0.00136 0.0
C467 C 0.50353 0.67191 0.95961 0.0
C468 C 0.47055 0.67256 0.95231 0.0
C469 C 0.45297 0.69788 0.96233 0.0
C470 C 0.42179 0.69792 0.95607 0.0
C471 C 0.40799 0.67295 0.93932 0.0
C472 C 0.42539 0.64795 0.92863 0.0
C473 C 0.45656 0.6477 0.93506 0.0
H474 H 0.38384 0.673 0.93455 0.0
H475 H 0.68656 0.66454 -0.00695 0.0
H476 H 0.6153 0.40046 0.12545 0.0
H477 H 0.61419 0.44675 0.08877 0.0
H478 H 0.70263 0.42599 0.04515 0.0
H479 H 0.70397 0.3793 0.08141 0.0
H480 H 0.69186 0.48919 0.05817 0.0
H481 H 0.6442 0.40063 0.00105 0.0
H482 H 0.60679 0.35917 -0.00134 0.0
H483 H 0.53448 0.42393 0.00578 0.0
H484 H 0.5715 0.46576 0.00887 0.0
H485 H 0.71806 0.5272 0.87976 0.0
H486 H 0.70295 0.49676 0.9328 0.0
H487 H 0.62079 0.5489 0.94332 0.0
H488 H 0.63596 0.57979 0.88952 0.0
H489 H 0.61778 0.48024 0.95573 0.0
H490 H 0.66671 0.56967 -0.00141 0.0
H491 H 0.70527 0.61006 -0.00241 0.0
H492 H 0.77499 0.54424 0.01642 0.0
H493 H 0.73703 0.50329 0.01679 0.0
C494 C 0.63493 0.406 0.10881 0.0
C495 C 0.65953 0.38577 0.1058 0.0
C496 C 0.63416 0.43251 0.08787 0.0
C497 C 0.65806 0.43937 0.06387 0.0
C498 C 0.68391 0.42089 0.0635 0.0
C499 C 0.68463 0.3942 0.08422 0.0
C500 C 0.65481 0.46346 0.03589 0.0
C501 C 0.67553 0.48746 0.03595 0.0
C502 C 0.63282 0.4615 0.00755 0.0
C503 C 0.61062 0.4363 0.00573 0.0
C504 C 0.62033 0.40601 0.0025 0.0
C505 C 0.5992 0.38245 0.00095 0.0
C506 C 0.56828 0.38891 0.00215 0.0
C507 C 0.55844 0.41896 0.00493 0.0
C508 C 0.57947 0.4426 0.0066 0.0
C509 C 0.69643 0.53174 0.89281 0.0
C510 C 0.6782 0.55582 0.88083 0.0
C511 C 0.68789 0.51444 0.9231 0.0
C512 C 0.6611 0.52105 0.94218 0.0
C513 C 0.64162 0.54365 0.92883 0.0
C514 C 0.65017 0.56107 0.89812 0.0
C515 C 0.65544 0.50539 0.97749 0.0
C516 C 0.63325 0.48278 0.97876 0.0
C517 C 0.67599 0.50869 0.00716 0.0
C518 C 0.69896 0.53333 0.00758 0.0
C519 C 0.69028 0.56373 0.00225 0.0
C520 C 0.71203 0.58674 0.00176 0.0
C521 C 0.74251 0.57973 0.00688 0.0
C522 C 0.75134 0.54965 0.01249 0.0
C523 C 0.72972 0.52652 0.01288 0.0
H524 H 0.75927 0.59761 0.00656 0.0
H525 H 0.55195 0.37067 0.00076 0.0
H526 H 0.56196 0.28259 -0.00276 0.0
H527 H 0.51208 0.28561 0.96864 0.0
H528 H 0.47992 0.34003 0.05977 0.0
H529 H 0.52967 0.33748 0.08847 0.0
H530 H 0.4497 0.28314 0.04913 0.0
H531 H 0.48038 0.37123 0.98109 0.0
H532 H 0.51382 0.40081 0.94016 0.0
H533 H 0.49965 0.33662 0.85255 0.0
H534 H 0.46644 0.30637 0.89313 0.0
H535 H 0.29956 0.31016 0.98628 0.0
H536 H 0.35026 0.30717 0.01275 0.0
H537 H 0.38428 0.27092 0.90969 0.0
H538 H 0.33379 0.2754 0.88282 0.0
H539 H 0.41427 0.31886 0.92677 0.0
H540 H 0.38448 0.23011 -0.00668 0.0
H541 H 0.35297 0.19831 0.0341 0.0
H542 H 0.36735 0.26043 0.12387 0.0
H543 H 0.39839 0.2929 0.08348 0.0
C544 C 0.54456 0.29602 0.01062 0.0
C545 C 0.54953 0.30922 0.04549 0.0
C546 C 0.51613 0.29773 -0.00577 0.0
C547 C 0.49241 0.3126 0.01255 0.0
C548 C 0.49804 0.32824 0.04553 0.0
C549 C 0.52654 0.32686 0.06173 0.0
C550 C 0.46112 0.30824 -2e-05 0.0
C551 C 0.44163 0.29133 0.02264 0.0
C552 C 0.45138 0.318 0.96489 0.0
C553 C 0.4711 0.33636 0.94029 0.0
C554 C 0.48457 0.36326 0.9532 0.0
C555 C 0.50346 0.38018 0.93005 0.0
C556 C 0.50893 0.37056 0.89382 0.0
C557 C 0.49542 0.34404 0.88064 0.0
C558 C 0.47653 0.32701 0.90369 0.0
C559 C 0.31765 0.30022 0.97002 0.0
C560 C 0.31306 0.2927 0.93282 0.0
C561 C 0.34664 0.29864 0.98502 0.0
C562 C 0.37112 0.28894 0.9631 0.0
C563 C 0.36577 0.27866 0.92697 0.0
C564 C 0.33695 0.28083 0.91179 0.0
C565 C 0.40253 0.29353 0.97587 0.0
C566 C 0.42214 0.31053 0.95327 0.0
C567 C 0.4125 0.28353 0.01091 0.0
C568 C 0.39356 0.26411 0.03522 0.0
C569 C 0.38066 0.23716 0.02165 0.0
C570 C 0.36289 0.21899 0.04472 0.0
C571 C 0.35803 0.22738 0.08152 0.0
C572 C 0.37099 0.25396 0.09534 0.0
C573 C 0.3887 0.27226 0.07237 0.0
H574 H 0.34433 0.21322 0.09933 0.0
H575 H 0.52357 0.38368 0.87595 0.0
H576 H 0.79488 0.54721 0.77654 0.0
H577 H 0.80888 0.49933 0.74782 0.0
H578 H 0.73283 0.5065 0.67379 0.0
H579 H 0.71798 0.55407 0.70327 0.0
H580 H 0.73205 0.45404 0.70674 0.0
H581 H 0.80751 0.51219 0.64343 0.0
H582 H 0.84958 0.54865 0.63835 0.0
H583 H 0.90495 0.49145 0.70627 0.0
H584 H 0.86308 0.45482 0.71221 0.0
H585 H 0.82169 0.33594 0.5916 0.0
H586 H 0.8104 0.38766 0.61015 0.0
H587 H 0.77934 0.35573 0.71642 0.0
H588 H 0.79025 0.3033 0.69776 0.0
H589 H 0.83349 0.42134 0.66354 0.0
H590 H 0.72335 0.40259 0.74621 0.0
H591 H 0.68021 0.36713 0.74796 0.0
H592 H 0.69218 0.34812 0.63235 0.0
H593 H 0.73517 0.38368 0.62985 0.0
C594 C 0.78143 0.539 0.75365 0.0
C595 C 0.75499 0.55421 0.7426 0.0
C596 C 0.78957 0.5116 0.73714 0.0
C597 C 0.77181 0.49929 0.70877 0.0
C598 C 0.74666 0.51551 0.69591 0.0
C599 C 0.73828 0.54274 0.71269 0.0
C600 C 0.77776 0.46825 0.69507 0.0
C601 C 0.7542 0.44697 0.69704 0.0
C602 C 0.80664 0.45905 0.68245 0.0
C603 C 0.83207 0.48081 0.67841 0.0
C604 C 0.82861 0.50743 0.65742 0.0
C605 C 0.85244 0.52811 0.65433 0.0
C606 C 0.87994 0.52233 0.67189 0.0
C607 C 0.88367 0.49585 0.69258 0.0
C608 C 0.8599 0.4751 0.69578 0.0
C609 C 0.8124 0.33976 0.61897 0.0
C610 C 0.80692 0.31548 0.64331 0.0
C611 C 0.80606 0.36942 0.62951 0.0
C612 C 0.7941 0.37552 0.66459 0.0
C613 C 0.78834 0.3514 0.68902 0.0
C614 C 0.79453 0.32151 0.67836 0.0
C615 C 0.78777 0.40726 0.67524 0.0
C616 C 0.81132 0.42856 0.67299 0.0
C617 C 0.75874 0.41666 0.68691 0.0
C618 C 0.73263 0.39557 0.68796 0.0
C619 C 0.71669 0.39092 0.72115 0.0
C620 C 0.69229 0.37078 0.72227 0.0
C621 C 0.68352 0.35532 0.69031 0.0
C622 C 0.69907 0.36003 0.65712 0.0
C623 C 0.72347 0.38013 0.65585 0.0
H624 H 0.66464 0.33972 0.69124 0.0
H625 H 0.89831 0.53843 0.6696 0.0
H626 H 0.52634 0.26648 0.18271 0.0
H627 H 0.48699 0.24117 0.21775 0.0
H628 H 0.52731 0.15427 0.19339 0.0
H629 H 0.56728 0.17979 0.15722 0.0
H630 H 0.4598 0.1574 0.19252 0.0
H631 H 0.54385 0.18056 0.26808 0.0
H632 H 0.58517 0.21371 0.28866 0.0
H633 H 0.52092 0.27597 0.33536 0.0
H634 H 0.47899 0.24442 0.31244 0.0
H635 H 0.36226 0.11146 0.34316 0.0
H636 H 0.40891 0.11675 0.30727 0.0
H637 H 0.39652 0.21375 0.3044 0.0
H638 H 0.34958 0.20874 0.33989 0.0
H639 H 0.45703 0.19278 0.32295 0.0
H640 H 0.37623 0.17728 0.23338 0.0
H641 H 0.33366 0.14814 0.20754 0.0
H642 H 0.39222 0.07191 0.18897 0.0
H643 H 0.43507 0.1004 0.21554 0.0
C644 C 0.52693 0.24195 0.18456 0.0
C645 C 0.55031 0.22511 0.16802 0.0
C646 C 0.50426 0.22754 0.20438 0.0
C647 C 0.50466 0.196 0.20863 0.0
C648 C 0.52685 0.17871 0.19043 0.0
C649 C 0.54965 0.19326 0.17005 0.0
C650 C 0.48317 0.1823 0.23498 0.0
C651 C 0.45959 0.16432 0.22132 0.0
C652 C 0.48298 0.19173 0.27246 0.0
C653 C 0.50814 0.21006 0.28828 0.0
C654 C 0.53843 0.20143 0.28245 0.0
C655 C 0.56201 0.22001 0.29448 0.0
C656 C 0.55574 0.24677 0.31371 0.0
C657 C 0.52578 0.25517 0.32057 0.0
C658 C 0.50205 0.23703 0.3078 0.0
C659 C 0.36959 0.13397 0.33519 0.0
C660 C 0.35227 0.15974 0.34433 0.0
C661 C 0.39617 0.13688 0.31464 0.0
C662 C 0.40598 0.16559 0.30331 0.0
C663 C 0.38921 0.19141 0.31311 0.0
C664 C 0.36239 0.18851 0.33319 0.0
C665 C 0.4332 0.16891 0.28009 0.0
C666 C 0.4578 0.18498 0.2945 0.0
C667 C 0.43435 0.1577 0.24344 0.0
C668 C 0.40875 0.1408 0.2269 0.0
C669 C 0.37998 0.15421 0.2241 0.0
C670 C 0.35581 0.13784 0.20925 0.0
C671 C 0.36022 0.10819 0.19666 0.0
C672 C 0.38884 0.09487 0.1988 0.0
C673 C 0.41307 0.1111 0.21378 0.0
H674 H 0.34148 0.09557 0.18519 0.0
H675 H 0.57408 0.26102 0.32318 0.0
H676 H 0.20961 0.69047 0.73279 0.0
H677 H 0.22242 0.64069 0.75873 0.0
H678 H 0.21044 0.59976 0.65127 0.0
H679 H 0.19695 0.64906 0.62565 0.0
H680 H 0.17662 0.57238 0.69998 0.0
H681 H 0.28004 0.60301 0.69283 0.0
H682 H 0.32399 0.63634 0.70292 0.0
H683 H 0.31294 0.62778 0.82038 0.0
H684 H 0.26851 0.59482 0.81108 0.0
H685 H 0.26421 0.43622 0.78664 0.0
H686 H 0.26262 0.48386 0.75243 0.0
H687 H 0.17689 0.50564 0.80304 0.0
H688 H 0.178 0.45788 0.83709 0.0
H689 H 0.2625 0.54095 0.77909 0.0
H690 H 0.13514 0.5466 0.74291 0.0
H691 H 0.09309 0.51175 0.72875 0.0
H692 H 0.15622 0.44509 0.6892 0.0
H693 H 0.19859 0.47969 0.70263 0.0
C694 C 0.21062 0.67095 0.7146 0.0
C695 C 0.20204 0.67342 0.67737 0.0
C696 C 0.21789 0.64254 0.7294 0.0
C697 C 0.21713 0.6165 0.70693 0.0
C698 C 0.21084 0.6195 0.66915 0.0
C699 C 0.20324 0.64766 0.65454 0.0
C700 C 0.21945 0.5858 0.72324 0.0
C701 C 0.1955 0.5655 0.71714 0.0
C702 C 0.24413 0.57676 0.7454 0.0
C703 C 0.27077 0.59664 0.75123 0.0
C704 C 0.28679 0.60845 0.72084 0.0
C705 C 0.3118 0.62726 0.72642 0.0
C706 C 0.32116 0.63426 0.76229 0.0
C707 C 0.30556 0.62241 0.79265 0.0
C708 C 0.28048 0.60364 0.78723 0.0
C709 C 0.24478 0.45091 0.79019 0.0
C710 C 0.22123 0.4432 0.8147 0.0
C711 C 0.24405 0.47822 0.77077 0.0
C712 C 0.21971 0.49825 0.77528 0.0
C713 C 0.19578 0.49034 0.79894 0.0
C714 C 0.19644 0.46299 0.81834 0.0
C715 C 0.21962 0.52776 0.75587 0.0
C716 C 0.24379 0.54786 0.76167 0.0
C717 C 0.19541 0.53649 0.73281 0.0
C718 C 0.17005 0.51565 0.72412 0.0
C719 C 0.14003 0.52456 0.73104 0.0
C720 C 0.11615 0.50484 0.72317 0.0
C721 C 0.12199 0.47619 0.7082 0.0
C722 C 0.15173 0.46724 0.70093 0.0
C723 C 0.17569 0.48689 0.70872 0.0
H724 H 0.10347 0.46095 0.70216 0.0
H725 H 0.34055 0.6488 0.76657 0.0
H726 H 0.67007 0.88843 0.30569 0.0
H727 H 0.61752 0.88176 0.28727 0.0
H728 H 0.63555 0.7882 0.25987 0.0
H729 H 0.68834 0.79467 0.2777 0.0
H730 H 0.60255 0.81478 0.20761 0.0
H731 H 0.60019 0.80679 0.33994 0.0
H732 H 0.60952 0.82333 0.40406 0.0
H733 H 0.5545 0.9023 0.3867 0.0
H734 H 0.54519 0.88643 0.32227 0.0
H735 H 0.44642 0.75978 0.25031 0.0
H736 H 0.49309 0.781 0.27485 0.0
H737 H 0.49731 0.84383 0.18364 0.0
H738 H 0.45072 0.82253 0.1585 0.0
H739 H 0.51838 0.83558 0.29519 0.0
H740 H 0.56925 0.83801 0.14859 0.0
H741 H 0.56026 0.81548 0.08706 0.0
H742 H 0.51921 0.73764 0.13778 0.0
H743 H 0.52838 0.7595 0.19956 0.0
C744 C 0.66295 0.8664 0.29571 0.0
C745 C 0.68344 0.84201 0.29333 0.0
C746 C 0.63285 0.86265 0.28532 0.0
C747 C 0.62264 0.83443 0.27263 0.0
C748 C 0.64306 0.81018 0.26965 0.0
C749 C 0.6732 0.8139 0.27993 0.0
C750 C 0.59065 0.8301 0.26235 0.0
C751 C 0.58416 0.81953 0.22669 0.0
C752 C 0.56672 0.83602 0.28744 0.0
C753 C 0.57228 0.8456 0.32616 0.0
C754 C 0.5903 0.82782 0.3497 0.0
C755 C 0.59554 0.83704 0.38611 0.0
C756 C 0.58268 0.86389 0.39941 0.0
C757 C 0.56449 0.88153 0.37634 0.0
C758 C 0.55921 0.87243 0.33988 0.0
C759 C 0.45684 0.7786 0.23587 0.0
C760 C 0.44531 0.78894 0.20193 0.0
C761 C 0.4834 0.79084 0.25012 0.0
C762 C 0.49884 0.8135 0.2306 0.0
C763 C 0.4858 0.82604 0.19877 0.0
C764 C 0.45917 0.81384 0.1845 0.0
C765 C 0.53041 0.82049 0.24045 0.0
C766 C 0.53681 0.83144 0.27598 0.0
C767 C 0.55438 0.81418 0.21561 0.0
C768 C 0.54915 0.80059 0.17862 0.0
C769 C 0.55838 0.81606 0.14657 0.0
C770 C 0.55326 0.8034 0.11168 0.0
C771 C 0.53907 0.7752 0.10852 0.0
C772 C 0.53009 0.75953 0.14026 0.0
C773 C 0.53522 0.77205 0.17521 0.0
H774 H 0.53512 0.76548 0.08148 0.0
H775 H 0.58676 0.87099 0.42762 0.0
H776 H 0.8194 0.15461 0.53966 0.0
H777 H 0.83305 0.1169 0.49353 0.0
H778 H 0.85126 0.05197 0.58001 0.0
H779 H 0.83957 0.0908 0.62675 0.0
H780 H 0.89222 0.04648 0.52842 0.0
H781 H 0.78321 0.05266 0.52773 0.0
H782 H 0.73372 0.07824 0.52351 0.0
H783 H 0.75594 0.11001 0.41457 0.0
H784 H 0.80572 0.08489 0.41832 0.0
H785 H 0.82637 0.91701 0.43576 0.0
H786 H 0.84333 0.95829 0.47544 0.0
H787 H 0.87905 0.00532 0.38047 0.0
H788 H 0.86372 0.96299 0.34058 0.0
H789 H 0.81891 0.02455 0.42836 0.0
H790 H 0.92588 0.01098 0.4275 0.0
H791 H 0.97366 0.98252 0.43268 0.0
H792 H 0.95247 0.96002 0.54527 0.0
H793 H 0.90444 0.98827 0.54072 0.0
C794 C 0.82576 0.13212 0.54888 0.0
C795 C 0.82759 0.12521 0.58671 0.0
C796 C 0.83375 0.11064 0.52246 0.0
C797 C 0.84254 0.0814 0.53325 0.0
C798 C 0.84444 0.0744 0.57109 0.0
C799 C 0.83736 0.09632 0.5977 0.0
C800 C 0.8489 0.05802 0.5049 0.0
C801 C 0.8761 0.04153 0.50669 0.0
C802 C 0.8283 0.05221 0.47583 0.0
C803 C 0.7983 0.06719 0.47348 0.0
C804 C 0.77761 0.06527 0.50298 0.0
C805 C 0.7495 0.07966 0.50066 0.0
C806 C 0.74173 0.09582 0.46884 0.0
C807 C 0.76201 0.09753 0.43923 0.0
C808 C 0.79016 0.08321 0.44142 0.0
C809 C 0.83903 0.93551 0.42353 0.0
C810 C 0.84365 0.93695 0.38517 0.0
C811 C 0.84894 0.9589 0.44626 0.0
C812 C 0.86257 0.98458 0.43078 0.0
C813 C 0.8691 0.98529 0.39284 0.0
C814 C 0.86018 0.96123 0.37016 0.0
C815 C 0.86174 0.01272 0.45243 0.0
C816 C 0.83533 0.03004 0.44961 0.0
C817 C 0.88273 0.01877 0.48072 0.0
C818 C 0.91142 0.00151 0.48364 0.0
C819 C 0.93125 -0.00028 0.45326 0.0
C820 C 0.95845 0.98373 0.45613 0.0
C821 C 0.96605 0.96937 0.48924 0.0
C822 C 0.94653 0.97112 0.51962 0.0
C823 C 0.91936 0.9872 0.51695 0.0
H824 H 0.98709 0.95696 0.49137 0.0
H825 H 0.71996 0.10695 0.46711 0.0
H826 H 0.14249 0.21103 0.37682 0.0
H827 H 0.09188 0.21258 0.40451 0.0
H828 H 0.12797 0.17719 0.50644 0.0
H829 H 0.1788 0.1765 0.47904 0.0
H830 H 0.08145 0.14095 0.46994 0.0
H831 H 0.10203 0.2419 0.51019 0.0
H832 H 0.11667 0.29561 0.50522 0.0
H833 H 0.04309 0.31173 0.43059 0.0
H834 H 0.02809 0.25799 0.43487 0.0
H835 H 0.94803 0.14923 0.58129 0.0
H836 H 0.99673 0.14497 0.5501 0.0
H837 H 0.96284 0.19856 0.45939 0.0
H838 H 0.91428 0.20365 0.49103 0.0
H839 H 0.0091 0.22526 0.49024 0.0
H840 H 0.98793 0.12488 0.44887 0.0
H841 H 0.97261 0.07124 0.45314 0.0
H842 H 0.04679 0.05324 0.52622 0.0
H843 H 0.06219 0.10692 0.52313 0.0
C844 C 0.13976 0.20517 0.40573 0.0
C845 C 0.16433 0.19425 0.42619 0.0
C846 C 0.11091 0.20571 0.42136 0.0
C847 C 0.10635 0.19473 0.45731 0.0
C848 C 0.13122 0.18574 0.47864 0.0
C849 C 0.16019 0.18579 0.46323 0.0
C850 C 0.07534 0.18942 0.47077 0.0
C851 C 0.0656 0.1593 0.475 0.0
C852 C 0.05473 0.21348 0.47585 0.0
C853 C 0.06405 0.24576 0.47266 0.0
C854 C 0.0891 0.25679 0.49244 0.0
C855 C 0.09743 0.28729 0.48983 0.0
C856 C 0.08087 0.30707 0.46753 0.0
C857 C 0.05591 0.29638 0.44784 0.0
C858 C 0.04745 0.2659 0.45041 0.0
C859 C 0.9505 0.15902 0.55399 0.0
C860 C 0.92761 0.17731 0.5389 0.0
C861 C 0.97843 0.15658 0.53616 0.0
C862 C 0.98354 0.17185 0.50268 0.0
C863 C 0.95945 0.18694 0.48547 0.0
C864 C 0.93169 0.18972 0.50348 0.0
C865 C 0.01479 0.17663 0.48917 0.0
C866 C 0.02471 0.20674 0.48502 0.0
C867 C 0.03544 0.15249 0.48386 0.0
C868 C 0.02602 0.12014 0.48609 0.0
C869 C 0.00078 0.10961 0.46624 0.0
C870 C 0.99211 0.07916 0.46839 0.0
C871 C 0.00865 0.05888 0.49004 0.0
C872 C 0.03394 0.069 0.50954 0.0
C873 C 0.04265 0.09945 0.5076 0.0
H874 H 0.00191 0.03531 0.49163 0.0
H875 H 0.08734 0.33068 0.46556 0.0
H876 H 0.19857 0.86814 0.62916 0.0
H877 H 0.19961 0.91963 0.6049 0.0
H878 H 0.10403 0.92892 0.62617 0.0
H879 H 0.10263 0.87718 0.65029 0.0
H880 H 0.11807 0.94551 0.5567 0.0
H881 H 0.15208 0.97161 0.67568 0.0
H882 H 0.18127 0.96732 0.7334 0.0
H883 H 0.26389 0.98059 0.67299 0.0
H884 H 0.23529 0.98449 0.6148 0.0
H885 H 0.15865 0.08375 0.45917 0.0
H886 H 0.13602 0.0521 0.50788 0.0
H887 H 0.22177 0.00706 0.52319 0.0
H888 H 0.24438 0.03858 0.47585 0.0
H889 H 0.19715 0.02085 0.58818 0.0
H890 H 0.16103 0.97734 0.46909 0.0
H891 H 0.13126 0.98044 0.41157 0.0
H892 H 0.05134 0.0009 0.47457 0.0
H893 H 0.08077 0.99826 0.53241 0.0
C894 C 0.17782 0.88119 0.6292 0.0
C895 C 0.15052 0.86842 0.64157 0.0
C896 C 0.17848 0.91074 0.61554 0.0
C897 C 0.15193 0.92819 0.61413 0.0
C898 C 0.12477 0.91586 0.62722 0.0
C899 C 0.12408 0.88629 0.64105 0.0
C900 C 0.15253 0.95819 0.59585 0.0
C901 C 0.13479 0.96244 0.56414 0.0
C902 C 0.17403 0.98042 0.60583 0.0
C903 C 0.19147 0.97831 0.6408 0.0
C904 C 0.17648 0.97345 0.67465 0.0
C905 C 0.19294 0.9711 0.70747 0.0
C906 C 0.22441 0.97368 0.70686 0.0
C907 C 0.2395 0.97864 0.67343 0.0
C908 C 0.22316 0.981 0.64051 0.0
C909 C 0.17256 0.06704 0.47299 0.0
C910 C 0.20331 0.06367 0.46368 0.0
C911 C 0.15964 0.04906 0.50081 0.0
C912 C 0.17725 0.02729 0.51922 0.0
C913 C 0.20783 0.02398 0.50973 0.0
C914 C 0.22071 0.04197 0.48245 0.0
C915 C 0.16452 0.00672 0.54757 0.0
C916 C 0.17972 0.00445 0.58149 0.0
C917 C 0.14066 0.98639 0.53968 0.0
C918 C 0.12313 0.98796 0.50493 0.0
C919 C 0.13715 0.9827 0.4706 0.0
C920 C 0.12034 0.98436 0.43797 0.0
C921 C 0.08945 0.99099 0.43941 0.0
C922 C 0.07528 0.99589 0.47349 0.0
C923 C 0.09201 0.99431 0.50618 0.0
H924 H 0.07647 0.99225 0.41413 0.0
H925 H 0.23711 0.97184 0.73231 0.0
H926 H 0.02906 0.80787 0.60001 0.0
H927 H 0.99005 0.81478 0.55266 0.0
H928 H 0.0432 0.76216 0.4756 0.0
H929 H 0.08157 0.75449 0.52255 0.0
H930 H 0.98781 0.83881 0.48535 0.0
H931 H -0.00197 0.71576 0.42655 0.0
H932 H 0.0112 0.66472 0.44934 0.0
H933 H 0.98614 0.6909 0.55966 0.0
H934 H 0.97234 0.74189 0.53746 0.0
H935 H 0.91179 0.83848 0.31736 0.0
H936 H 0.95142 0.82823 0.36248 0.0
H937 H 0.89203 0.76655 0.42002 0.0
H938 H 0.85255 0.77606 0.37458 0.0
H939 H 0.94687 0.74643 0.42483 0.0
H940 H 0.89876 0.84002 0.45024 0.0
H941 H 0.8786 0.89112 0.44001 0.0
H942 H 0.96738 0.92338 0.41202 0.0
H943 H 0.98818 0.8721 0.42239 0.0
C944 C 0.03247 0.79798 0.5729 0.0
C945 C 0.05802 0.78003 0.56533 0.0
C946 C 0.01023 0.80196 0.5459 0.0
C947 C 0.01346 0.78828 0.511 0.0
C948 C 0.0399 0.77216 0.5027 0.0
C949 C 0.06186 0.76791 0.52961 0.0
C950 C 0.98906 0.79005 0.48326 0.0
C951 C 0.97892 0.81864 0.47203 0.0
C952 C 0.97672 0.76363 0.46688 0.0
C953 C 0.98443 0.73276 0.48034 0.0
C954 C 0.99517 0.71058 0.45562 0.0
C955 C 0.00277 0.68165 0.46845 0.0
C956 C -0.00041 0.6746 0.50593 0.0
C957 C 0.98869 0.69641 0.53065 0.0
C958 C 0.981 0.72534 0.51795 0.0
C959 C 0.90741 0.82212 0.33905 0.0
C960 C 0.87886 0.80837 0.3426 0.0
C961 C 0.93001 0.81649 0.36501 0.0
C962 C 0.92435 0.79733 0.39521 0.0
C963 C 0.89681 0.78162 0.39709 0.0
C964 C 0.87427 0.787 0.37094 0.0
C965 C 0.94628 0.79529 0.42602 0.0
C966 C 0.95592 0.76661 0.43792 0.0
C967 C 0.95722 0.82158 0.44417 0.0
C968 C 0.94491 0.85218 0.43659 0.0
C969 C 0.91393 0.85793 0.4415 0.0
C970 C 0.90241 0.88702 0.43579 0.0
C971 C 0.92161 0.91062 0.42511 0.0
C972 C 0.95248 0.90511 0.42022 0.0
C973 C 0.96418 0.87603 0.42611 0.0
H974 H 0.91264 0.93317 0.42079 0.0
H975 H 0.00553 0.65221 0.5158 0.0
H976 H 0.16065 0.2788 0.99019 0.0
H977 H 0.16082 0.25666 0.05202 0.0
H978 H 0.20628 0.33599 0.09421 0.0
H979 H 0.20591 0.35848 0.03218 0.0
H980 H 0.23771 0.28157 0.10456 0.0
H981 H 0.1384 0.32065 0.12592 0.0
H982 H 0.08479 0.33054 0.11192 0.0
H983 H 0.06702 0.2348 0.11034 0.0
H984 H 0.12065 0.2243 0.12381 0.0
H985 H 0.24775 0.23201 0.28771 0.0
H986 H 0.23622 0.25967 0.23163 0.0
H987 H 0.18511 0.18343 0.19077 0.0
H988 H 0.19603 0.15538 0.24781 0.0
H989 H 0.15531 0.23749 0.18083 0.0
H990 H 0.25365 0.19767 0.15445 0.0
H991 H 0.307 0.18612 0.16804 0.0
H992 H 0.3264 0.28124 0.17711 0.0
H993 H 0.27306 0.29338 0.1637 0.0
C994 C 0.1698 0.29193 0.0129 0.0
C995 C 0.18343 0.32023 0.0065 0.0
C996 C 0.16981 0.2793 0.04818 0.0
C997 C 0.18364 0.29468 0.07754 0.0
C998 C 0.19545 0.32387 0.07179 0.0
C999 C 0.19505 0.33674 0.03649 0.0
C1000 C 0.1895 0.27836 0.11242 0.0
C1001 C 0.2197 0.27246 0.12169 0.0
C1002 C 0.16594 0.26547 0.1337 0.0
C1003 C 0.13364 0.27169 0.12557 0.0
C1004 C 0.12314 0.30169 0.12226 0.0
C1005 C 0.09272 0.30741 0.11449 0.0
C1006 C 0.07253 0.28331 0.11016 0.0
C1007 C 0.0827 0.25345 0.11368 0.0
C1008 C 0.1131 0.2476 0.12143 0.0
C1009 C 0.23416 0.22086 0.26687 0.0
C1010 C 0.22284 0.19135 0.27232 0.0
C1011 C 0.22766 0.23678 0.23471 0.0
C1012 C 0.21006 0.2235 0.20696 0.0
C1013 C 0.19877 0.19402 0.21197 0.0
C1014 C 0.2052 0.17798 0.24441 0.0
C1015 C 0.20349 0.24084 0.17296 0.0
C1016 C 0.17326 0.24678 0.16376 0.0
C1017 C 0.22701 0.25353 0.15139 0.0
C1018 C 0.2593 0.24641 0.15846 0.0
C1019 C 0.26926 0.21612 0.15954 0.0
C1020 C 0.29949 0.20947 0.16723 0.0
C1021 C 0.32002 0.23291 0.17381 0.0
C1022 C 0.31043 0.26309 0.17222 0.0
C1023 C 0.28022 0.26988 0.16444 0.0
H1024 H 0.3434 0.22769 0.17986 0.0
H1025 H 0.04899 0.28779 0.10415 0.0
H1026 H 0.28462 0.70078 0.03561 0.0
H1027 H 0.25311 0.70669 0.98086 0.0
H1028 H 0.30764 0.78254 0.94573 0.0
H1029 H 0.33933 0.77686 0.00069 0.0
H1030 H 0.2471 0.79641 0.95257 0.0
H1031 H 0.308 0.71911 0.8968 0.0
H1032 H 0.33325 0.66937 0.89256 0.0
H1033 H 0.24718 0.62457 0.89713 0.0
H1034 H 0.22139 0.67404 0.90211 0.0
H1035 H 0.19244 0.8201 0.77247 0.0
H1036 H 0.21793 0.81238 0.83131 0.0
H1037 H 0.15906 0.73674 0.85499 0.0
H1038 H 0.1334 0.74451 0.79547 0.0
H1039 H 0.21862 0.72119 0.85675 0.0
H1040 H 0.15762 0.79897 0.91016 0.0
H1041 H 0.13275 0.84893 0.91422 0.0
H1042 H 0.21932 0.89292 0.91339 0.0
H1043 H 0.24474 0.84326 0.90879 0.0
C1044 C 0.29035 0.71829 0.0158 0.0
C1045 C 0.31419 0.73863 0.02263 0.0
C1046 C 0.27238 0.72155 0.98448 0.0
C1047 C 0.27796 0.74517 0.9595 0.0
C1048 C 0.30297 0.76424 0.9649 0.0
C1049 C 0.32116 0.76084 -0.00387 0.0
C1050 C 0.25579 0.75193 0.93021 0.0
C1051 C 0.24114 0.78016 0.93125 0.0
C1052 C 0.24729 0.73015 0.90348 0.0
C1053 C 0.26276 0.70033 0.90034 0.0
C1054 C 0.29445 0.69866 0.89733 0.0
C1055 C 0.30887 0.6705 0.89474 0.0
C1056 C 0.29184 0.64383 0.89485 0.0
C1057 C 0.26034 0.64526 0.89725 0.0
C1058 C 0.24581 0.67336 0.89994 0.0
C1059 C 0.18417 0.80261 0.79094 0.0
C1060 C 0.161 0.78295 0.77977 0.0
C1061 C 0.19873 0.79818 0.82452 0.0
C1062 C 0.19039 0.77397 0.84747 0.0
C1063 C 0.16574 0.75559 0.8376 0.0
C1064 C 0.1509 0.76021 0.80393 0.0
C1065 C 0.2101 0.76583 0.87887 0.0
C1066 C 0.22434 0.73734 0.87827 0.0
C1067 C 0.21829 0.78738 0.90602 0.0
C1068 C 0.20308 0.81735 0.9089 0.0
C1069 C 0.17136 0.8193 0.91056 0.0
C1070 C 0.15716 0.84757 0.91302 0.0
C1071 C 0.17444 0.87408 0.914 0.0
C1072 C 0.20597 0.87237 0.91262 0.0
C1073 C 0.22028 0.84415 0.91015 0.0
H1074 H 0.1634 0.89595 0.9159 0.0
H1075 H 0.30304 0.62205 0.89287 0.0
H1076 H 0.84562 0.80375 0.18608 0.0
H1077 H 0.83751 0.77353 0.12988 0.0
H1078 H 0.74269 0.79702 0.13223 0.0
H1079 H 0.75068 0.82596 0.18905 0.0
H1080 H 0.74799 0.73904 0.12548 0.0
H1081 H 0.79369 0.82511 0.06574 0.0
H1082 H 0.83303 0.86368 0.05461 0.0
H1083 H 0.8976 0.79355 0.03059 0.0
H1084 H 0.85871 0.75453 0.04204 0.0
H1085 H 0.71001 0.71344 0.93335 0.0
H1086 H 0.72242 0.73617 -0.00679 0.0
H1087 H 0.79486 0.67174 0.00715 0.0
H1088 H 0.78187 0.64806 0.9478 0.0
H1089 H 0.80488 0.74472 0.00734 0.0
H1090 H 0.75494 0.65885 0.06256 0.0
H1091 H 0.71322 0.62258 0.07159 0.0
H1092 H 0.65369 0.69554 0.10155 0.0
H1093 H 0.69494 0.73238 0.09213 0.0
C1094 C 0.82333 0.8031 0.17375 0.0
C1095 C 0.7988 0.81729 0.19123 0.0
C1096 C 0.81864 0.78578 0.14184 0.0
C1097 C 0.78945 0.78298 0.12686 0.0
C1098 C 0.76533 0.79866 0.14342 0.0
C1099 C 0.76993 0.81544 0.17554 0.0
C1100 C 0.78338 0.76221 0.09551 0.0
C1101 C 0.76031 0.7405 0.09956 0.0
C1102 C 0.79998 0.76349 0.06205 0.0
C1103 C 0.82339 0.7869 0.05517 0.0
C1104 C 0.81634 0.81791 0.05839 0.0
C1105 C 0.83854 0.83986 0.05196 0.0
C1106 C 0.86782 0.83107 0.04202 0.0
C1107 C 0.87493 0.80032 0.03837 0.0
C1108 C 0.85281 0.77828 0.0448 0.0
C1109 C 0.72825 0.70381 0.94948 0.0
C1110 C 0.74516 0.6792 0.93597 0.0
C1111 C 0.73522 0.71672 0.98359 0.0
C1112 C 0.75956 0.70559 0.00422 0.0
C1113 C 0.77594 0.68045 0.99144 0.0
C1114 C 0.76845 0.66697 0.95772 0.0
C1115 C 0.76931 0.72221 0.03735 0.0
C1116 C 0.79295 0.74314 0.03354 0.0
C1117 C 0.75296 0.72054 0.07079 0.0
C1118 C 0.72798 0.69846 0.07614 0.0
C1119 C 0.73286 0.66725 0.07054 0.0
C1120 C 0.70931 0.64656 0.07584 0.0
C1121 C 0.68078 0.65676 0.08691 0.0
C1122 C 0.6758 0.68767 0.09296 0.0
C1123 C 0.69926 0.70847 0.08762 0.0
H1124 H 0.66256 0.64071 0.0909 0.0
H1125 H 0.88497 0.84809 0.03704 0.0
H1126 H 0.86156 0.23413 0.75924 0.0
H1127 H 0.84023 0.25094 0.81863 0.0
H1128 H 0.76199 0.19452 0.80042 0.0
H1129 H 0.78292 0.17785 0.74146 0.0
H1130 H 0.74842 0.25563 0.81059 0.0
H1131 H 0.8106 0.17686 0.86629 0.0
H1132 H 0.85902 0.15162 0.8802 0.0
H1133 H 0.89186 0.23318 0.93115 0.0
H1134 H 0.84374 0.25903 0.91709 0.0
H1135 H 0.66209 0.24369 0.97257 0.0
H1136 H 0.69266 0.23855 0.91674 0.0
H1137 H 0.76151 0.29557 0.96459 0.0
H1138 H 0.73128 0.30064 0.02077 0.0
H1139 H 0.7852 0.24394 0.93918 0.0
H1140 H 0.72151 0.32082 0.89172 0.0
H1141 H 0.674 0.3476 0.87752 0.0
H1142 H 0.64515 0.27279 0.81022 0.0
H1143 H 0.69227 0.24533 0.82446 0.0
C1144 C 0.84029 0.22462 0.76858 0.0
C1145 C 0.82367 0.205 0.74571 0.0
C1146 C 0.82809 0.23434 0.80231 0.0
C1147 C 0.79938 0.22425 0.81342 0.0
C1148 C 0.78401 0.20281 0.79197 0.0
C1149 C 0.79604 0.19324 0.75841 0.0
C1150 C 0.7837 0.23786 0.84537 0.0
C1151 C 0.75629 0.25294 0.83879 0.0
C1152 C 0.79487 0.23556 0.88176 0.0
C1153 C 0.82373 0.21998 0.89023 0.0
C1154 C 0.82826 0.1895 0.88014 0.0
C1155 C 0.85562 0.17506 0.88813 0.0
C1156 C 0.87855 0.19082 0.90643 0.0
C1157 C 0.87411 0.22102 0.9169 0.0
C1158 C 0.8468 0.23557 0.90895 0.0
C1159 C 0.68345 0.25561 0.97103 0.0
C1160 C 0.69435 0.2723 0.0013 0.0
C1161 C 0.70087 0.25274 0.93903 0.0
C1162 C 0.72931 0.26674 0.9366 0.0
C1163 C 0.73966 0.28453 0.96605 0.0
C1164 C 0.72229 0.2874 -0.00192 0.0
C1165 C 0.74914 0.26054 0.90456 0.0
C1166 C 0.77745 0.24709 0.91101 0.0
C1167 C 0.73892 0.26456 0.86792 0.0
C1168 C 0.7104 0.28091 0.85938 0.0
C1169 C 0.70493 0.30995 0.87414 0.0
C1170 C 0.67808 0.32528 0.86603 0.0
C1171 C 0.65655 0.31189 0.84303 0.0
C1172 C 0.66184 0.28314 0.82805 0.0
C1173 C 0.68864 0.26769 0.83609 0.0
H1174 H 0.63579 0.32381 0.83676 0.0
H1175 H 0.89971 0.1796 0.9126 0.0
H1176 H 0.74149 0.85654 0.45824 0.0
H1177 H 0.7269 0.83149 0.51606 0.0
H1178 H 0.75626 0.74545 0.47186 0.0
H1179 H 0.7709 0.76997 0.41436 0.0
H1180 H 0.69919 0.74281 0.50299 0.0
H1181 H 0.79867 0.77998 0.53339 0.0
H1182 H 0.83809 0.81912 0.54008 0.0
H1183 H 0.78209 0.86763 0.61725 0.0
H1184 H 0.74214 0.82897 0.6106 0.0
H1185 H 0.70739 0.65119 0.66566 0.0
H1186 H 0.71458 0.67832 0.60717 0.0
H1187 H 0.69224 0.76276 0.66126 0.0
H1188 H 0.68568 0.73601 0.71963 0.0
H1189 H 0.7434 0.76812 0.62506 0.0
H1190 H 0.64472 0.73017 0.59746 0.0
H1191 H 0.60484 0.69151 0.59074 0.0
H1192 H 0.658 0.64525 0.50869 0.0
H1193 H 0.6984 0.68341 0.51528 0.0
C1194 C 0.74509 0.83235 0.46095 0.0
C1195 C 0.75728 0.8153 0.43157 0.0
C1196 C 0.73672 0.81809 0.49396 0.0
C1197 C 0.74043 0.78664 0.49803 0.0
C1198 C 0.75303 0.76971 0.46908 0.0
C1199 C 0.76152 0.78388 0.43628 0.0
C1200 C 0.7309 0.77104 0.53224 0.0
C1201 C 0.70899 0.74811 0.5297 0.0
C1202 C 0.74323 0.77857 0.56703 0.0
C1203 C 0.76728 0.80176 0.57116 0.0
C1204 C 0.79465 0.79913 0.55153 0.0
C1205 C 0.81711 0.8212 0.55537 0.0
C1206 C 0.81256 0.84589 0.57899 0.0
C1207 C 0.78556 0.84852 0.59891 0.0
C1208 C 0.76301 0.82653 0.59513 0.0
C1209 C 0.70339 0.67542 0.66481 0.0
C1210 C 0.69625 0.69153 0.6972 0.0
C1211 C 0.70749 0.69091 0.63143 0.0
C1212 C 0.704 0.7226 0.62992 0.0
C1213 C 0.69529 0.73838 0.66187 0.0
C1214 C 0.6915 0.72303 0.69517 0.0
C1215 C 0.71165 0.7397 0.59596 0.0
C1216 C 0.73331 0.76291 0.59848 0.0
C1217 C 0.69898 0.73249 0.5612 0.0
C1218 C 0.67471 0.70951 0.55712 0.0
C1219 C 0.64802 0.71162 0.5782 0.0
C1220 C 0.6253 0.68982 0.57437 0.0
C1221 C 0.62892 0.6659 0.54937 0.0
C1222 C 0.65524 0.66377 0.52808 0.0
C1223 C 0.67805 0.6855 0.53182 0.0
H1224 H 0.6113 0.64905 0.54645 0.0
H1225 H 0.82998 0.86296 0.58192 0.0
H1226 H 0.81918 0.24291 0.47277 0.0
H1227 H 0.78672 0.25757 0.42127 0.0
H1228 H 0.70892 0.25675 0.49352 0.0
H1229 H 0.74092 0.24149 0.54494 0.0
H1230 H 0.69582 0.2317 0.42892 0.0
H1231 H 0.7395 0.32354 0.46965 0.0
H1232 H 0.77993 0.35825 0.48974 0.0
H1233 H 0.82246 0.35083 0.38324 0.0
H1234 H 0.78255 0.31567 0.36267 0.0
H1235 H 0.62217 0.29696 0.26731 0.0
H1236 H 0.63787 0.29092 0.33196 0.0
H1237 H 0.73056 0.28077 0.29642 0.0
H1238 H 0.7155 0.28723 0.23266 0.0
H1239 H 0.72516 0.32051 0.35282 0.0
H1240 H 0.68402 0.21968 0.31944 0.0
H1241 H 0.64392 0.18256 0.30459 0.0
H1242 H 0.59439 0.20945 0.40136 0.0
H1243 H 0.63399 0.24678 0.41666 0.0
C1244 C 0.79513 0.2456 0.47766 0.0
C1245 C 0.78269 0.24129 0.513 0.0
C1246 C 0.77669 0.25419 0.44831 0.0
C1247 C 0.74561 0.2589 0.45396 0.0
C1248 C 0.73292 0.25348 0.48879 0.0
C1249 C 0.75128 0.24475 0.5181 0.0
C1250 C 0.72647 0.26938 0.42325 0.0
C1251 C 0.70181 0.25147 0.41262 0.0
C1252 C 0.73406 0.29546 0.40258 0.0
C1253 C 0.75806 0.31683 0.41467 0.0
C1254 C 0.75757 0.32915 0.45057 0.0
C1255 C 0.78039 0.34893 0.46205 0.0
C1256 C 0.80376 0.35672 0.4378 0.0
C1257 C 0.80433 0.34478 0.40199 0.0
C1258 C 0.78158 0.32496 0.39039 0.0
C1259 C 0.64592 0.29367 0.27339 0.0
C1260 C 0.66762 0.29277 0.24482 0.0
C1261 C 0.65476 0.29007 0.31025 0.0
C1262 C 0.68534 0.28545 0.31879 0.0
C1263 C 0.70686 0.28456 0.29035 0.0
C1264 C 0.69816 0.28822 0.25382 0.0
C1265 C 0.69587 0.28162 0.35709 0.0
C1266 C 0.71873 0.30113 0.36957 0.0
C1267 C 0.68633 0.25725 0.37965 0.0
C1268 C 0.66177 0.23621 0.36893 0.0
C1269 C 0.6644 0.21789 0.33726 0.0
C1270 C 0.6419 0.1967 0.32892 0.0
C1271 C 0.61681 0.19353 0.35216 0.0
C1272 C 0.61392 0.21182 0.3835 0.0
C1273 C 0.63635 0.233 0.392 0.0
H1274 H 0.59951 0.177 0.34573 0.0
H1275 H 0.82142 0.37203 0.44673 0.0
H1276 H 0.26169 0.33297 0.74531 0.0
H1277 H 0.2688 0.30456 0.68757 0.0
H1278 H 0.26075 0.22029 0.74728 0.0
H1279 H 0.25343 0.24829 0.80479 0.0
H1280 H 0.30913 0.22055 0.69892 0.0
H1281 H 0.20388 0.23966 0.69859 0.0
H1282 H 0.15604 0.26825 0.70243 0.0
H1283 H 0.18229 0.32151 0.60836 0.0
H1284 H 0.2305 0.29348 0.60422 0.0
H1285 H 0.28349 0.13179 0.53045 0.0
H1286 H 0.28115 0.15338 0.59304 0.0
H1287 H 0.29527 0.24285 0.54817 0.0
H1288 H 0.29806 0.22175 0.48612 0.0
H1289 H 0.24139 0.2355 0.59138 0.0
H1290 H 0.34913 0.21358 0.59544 0.0
H1291 H 0.3935 0.1798 0.59197 0.0
H1292 H 0.35785 0.12601 0.68087 0.0
H1293 H 0.31304 0.15927 0.68452 0.0
C1294 C 0.2615 0.30841 0.7461 0.0
C1295 C 0.25689 0.29289 0.77953 0.0
C1296 C 0.26541 0.29224 0.71316 0.0
C1297 C 0.2651 0.26038 0.71331 0.0
C1298 C 0.26101 0.24487 0.74668 0.0
C1299 C 0.25671 0.26095 0.77945 0.0
C1300 C 0.26928 0.2432 0.67862 0.0
C1301 C 0.29414 0.22352 0.67551 0.0
C1302 C 0.24955 0.24702 0.64832 0.0
C1303 C 0.22102 0.2647 0.65139 0.0
C1304 C 0.19966 0.25774 0.67902 0.0
C1305 C 0.17241 0.27377 0.68117 0.0
C1306 C 0.16617 0.29673 0.65572 0.0
C1307 C 0.18718 0.30374 0.6281 0.0
C1308 C 0.21447 0.28778 0.62582 0.0
C1309 C 0.28691 0.15594 0.53406 0.0
C1310 C 0.29054 0.1751 0.50329 0.0
C1311 C 0.28545 0.16822 0.56975 0.0
C1312 C 0.28767 0.1997 0.57493 0.0
C1313 C 0.29321 0.21853 0.54456 0.0
C1314 C 0.29482 0.20637 0.50913 0.0
C1315 C 0.28176 0.21367 0.61132 0.0
C1316 C 0.25637 0.23257 0.61482 0.0
C1317 C 0.30062 0.20862 0.64213 0.0
C1318 C 0.32758 0.1887 0.63996 0.0
C1319 C 0.35061 0.19438 0.614 0.0
C1320 C 0.37588 0.17537 0.61206 0.0
C1321 C 0.37845 0.15071 0.6361 0.0
C1322 C 0.3558 0.14508 0.66222 0.0
C1323 C 0.33048 0.16402 0.66425 0.0
H1324 H 0.39803 0.13603 0.63456 0.0
H1325 H 0.14501 0.30902 0.65735 0.0
H1326 H 0.36601 0.73089 0.29336 0.0
H1327 H 0.34512 0.74209 0.35471 0.0
H1328 H 0.25494 0.72749 0.31308 0.0
H1329 H 0.27539 0.71675 0.252 0.0
H1330 H 0.25789 0.77873 0.35147 0.0
H1331 H 0.28952 0.675 0.36662 0.0
H1332 H 0.32567 0.6324 0.36586 0.0
H1333 H 0.38069 0.67802 0.4462 0.0
H1334 H 0.34502 0.7211 0.44706 0.0
H1335 H 0.16658 0.7462 0.50542 0.0
H1336 H 0.19645 0.74703 0.44858 0.0
H1337 H 0.27579 0.77182 0.51076 0.0
H1338 H 0.2461 0.77118 0.5679 0.0
H1339 H 0.28405 0.72166 0.46506 0.0
H1340 H 0.24787 0.82274 0.45605 0.0
H1341 H 0.21086 0.86455 0.45654 0.0
H1342 H 0.16446 0.82438 0.3646 0.0
H1343 H 0.20089 0.78202 0.36393 0.0
C1344 C 0.34178 0.72969 0.29747 0.0
C1345 C 0.32234 0.72299 0.26789 0.0
C1346 C 0.3299 0.73616 0.33243 0.0
C1347 C 0.29852 0.73562 0.33827 0.0
C1348 C 0.27921 0.72825 0.30899 0.0
C1349 C 0.29098 0.72201 0.27415 0.0
C1350 C 0.28537 0.74317 0.37462 0.0
C1351 C 0.26368 0.76636 0.37636 0.0
C1352 C 0.29335 0.72727 0.40707 0.0
C1353 C 0.31483 0.70144 0.40654 0.0
C1354 C 0.30948 0.67607 0.38386 0.0
C1355 C 0.32984 0.65182 0.38347 0.0
C1356 C 0.35552 0.65255 0.40587 0.0
C1357 C 0.36083 0.67751 0.4288 0.0
C1358 C 0.34055 0.70185 0.42926 0.0
C1359 C 0.19031 0.75212 0.50699 0.0
C1360 C 0.20404 0.75844 0.54112 0.0
C1361 C 0.20727 0.75279 0.47451 0.0
C1362 C 0.2382 0.75966 0.47566 0.0
C1363 C 0.25189 0.7666 0.50949 0.0
C1364 C 0.23487 0.76625 0.542 0.0
C1365 C 0.2565 0.75712 0.44175 0.0
C1366 C 0.27901 0.73472 0.44041 0.0
C1367 C 0.24928 0.77377 0.40964 0.0
C1368 C 0.22701 0.79902 0.41018 0.0
C1369 C 0.2296 0.82262 0.43618 0.0
C1370 C 0.20875 0.84647 0.43644 0.0
C1371 C 0.18528 0.84708 0.41067 0.0
C1372 C 0.18263 0.82386 0.38457 0.0
C1373 C 0.20339 0.79993 0.38423 0.0
H1374 H 0.16919 0.86559 0.41089 0.0
H1375 H 0.37126 0.63374 0.40554 0.0
loop_
_geom_bond_atom_site_label_1
_geom_bond_atom_site_label_2
_geom_bond_distance
_geom_bond_site_symmetry_2
_ccdc_geom_bond_type
Sc0 O3 2.025 . S
Sc0 O10 2.105 . S
Sc0 O13 2.105 . S
Sc0 O16 2.105 . S
Sc0 O19 2.105 . S
Sc1 O3 2.025 . S
Sc1 O11 2.105 . S
Sc1 O15 2.105 . S
Sc1 O17 2.105 . S
Sc1 O21 2.105 . S
Sc2 O3 2.025 . S
Sc2 O12 2.105 . S
Sc2 O14 2.105 . S
Sc2 O18 2.105 . S
Sc2 O20 2.105 . S
O3 Sc0 2.025 . S
O3 Sc1 2.025 . S
O3 Sc2 2.025 . S
C4 O10 1.268 . S
C4 O20 1.268 . S
C5 O11 1.268 . S
C5 O19 1.268 . S
C6 O12 1.268 . S
C6 O21 1.268 . S
C7 O13 1.268 . S
C7 O17 1.268 . S
C8 O14 1.268 . S
C8 O16 1.268 . S
C9 O15 1.268 . S
C9 O18 1.268 . S
O10 Sc0 2.105 . S
O10 C4 1.268 . S
O11 Sc1 2.105 . S
O11 C5 1.268 . S
O12 Sc2 2.105 . S
O12 C6 1.268 . S
O13 Sc0 2.105 . S
O13 C7 1.268 . S
O14 Sc2 2.105 . S
O14 C8 1.268 . S
O15 Sc1 2.105 . S
O15 C9 1.268 . S
O16 Sc0 2.105 . S
O16 C8 1.268 . S
O17 Sc1 2.105 . S
O17 C7 1.268 . S
O18 Sc2 2.105 . S
O18 C9 1.268 . S
O19 Sc0 2.105 . S
O19 C5 1.268 . S
O20 Sc2 2.105 . S
O20 C4 1.268 . S
O21 Sc1 2.105 . S
O21 C6 1.268 . S
Sc22 O25 2.025 . S
Sc22 O32 2.105 . S
Sc22 O35 2.105 . S
Sc22 O38 2.105 . S
Sc22 O41 2.105 . S
Sc23 O25 2.025 . S
Sc23 O33 2.105 . S
Sc23 O37 2.105 . S
Sc23 O39 2.105 . S
Sc23 O43 2.105 . S
Sc24 O25 2.025 . S
Sc24 O34 2.105 . S
Sc24 O36 2.105 . S
Sc24 O40 2.105 . S
Sc24 O42 2.105 . S
O25 Sc22 2.025 . S
O25 Sc23 2.025 . S
O25 Sc24 2.025 . S
C26 O32 1.268 . S
C26 O42 1.268 . S
C27 O33 1.268 . S
C27 O41 1.268 . S
C28 O34 1.268 . S
C28 O43 1.268 . S
C29 O35 1.268 . S
C29 O39 1.268 . S
C30 O36 1.268 . S
C30 O38 1.268 . S
C31 O37 1.268 . S
C31 O40 1.268 . S
O32 Sc22 2.105 . S
O32 C26 1.268 . S
O33 Sc23 2.105 . S
O33 C27 1.268 . S
O34 Sc24 2.105 . S
O34 C28 1.268 . S
O35 Sc22 2.105 . S
O35 C29 1.268 . S
O36 Sc24 2.105 . S
O36 C30 1.268 . S
O37 Sc23 2.105 . S
O37 C31 1.268 . S
O38 Sc22 2.105 . S
O38 C30 1.268 . S
O39 Sc23 2.105 . S
O39 C29 1.268 . S
O40 Sc24 2.105 . S
O40 C31 1.268 . S
O41 Sc22 2.105 . S
O41 C27 1.268 . S
O42 Sc24 2.105 . S
O42 C26 1.268 . S
O43 Sc23 2.105 . S
O43 C28 1.268 . S
Sc44 O47 2.025 . S
Sc44 O54 2.105 . S
Sc44 O57 2.105 . S
Sc44 O60 2.105 . S
Sc44 O63 2.105 . S
Sc45 O47 2.025 . S
Sc45 O55 2.105 . S
Sc45 O59 2.105 . S
Sc45 O61 2.105 . S
Sc45 O65 2.105 . S
Sc46 O47 2.025 . S
Sc46 O56 2.105 . S
Sc46 O58 2.105 . S
Sc46 O62 2.105 . S
Sc46 O64 2.105 . S
O47 Sc44 2.025 . S
O47 Sc45 2.025 . S
O47 Sc46 2.025 . S
C48 O54 1.268 . S
C48 O64 1.268 . S
C49 O55 1.268 . S
C49 O63 1.268 . S
C50 O56 1.268 . S
C50 O65 1.268 . S
C51 O57 1.268 . S
C51 O61 1.268 . S
C52 O58 1.268 . S
C52 O60 1.268 . S
C53 O59 1.268 . S
C53 O62 1.268 . S
O54 Sc44 2.105 . S
O54 C48 1.268 . S
O55 Sc45 2.105 . S
O55 C49 1.268 . S
O56 Sc46 2.105 . S
O56 C50 1.268 . S
O57 Sc44 2.105 . S
O57 C51 1.268 . S
O58 Sc46 2.105 . S
O58 C52 1.268 . S
O59 Sc45 2.105 . S
O59 C53 1.268 . S
O60 Sc44 2.105 . S
O60 C52 1.268 . S
O61 Sc45 2.105 . S
O61 C51 1.268 . S
O62 Sc46 2.105 . S
O62 C53 1.268 . S
O63 Sc44 2.105 . S
O63 C49 1.268 . S
O64 Sc46 2.105 . S
O64 C48 1.268 . S
O65 Sc45 2.105 . S
O65 C50 1.268 . S
Sc66 O69 2.025 . S
Sc66 O76 2.105 . S
Sc66 O79 2.105 . S
Sc66 O82 2.105 . S
Sc66 O85 2.105 . S
Sc67 O69 2.025 . S
Sc67 O77 2.105 . S
Sc67 O81 2.105 . S
Sc67 O83 2.105 . S
Sc67 O87 2.105 . S
Sc68 O69 2.025 . S
Sc68 O78 2.105 . S
Sc68 O80 2.105 . S
Sc68 O84 2.105 . S
Sc68 O86 2.105 . S
O69 Sc66 2.025 . S
O69 Sc67 2.025 . S
O69 Sc68 2.025 . S
C70 O76 1.268 . S
C70 O86 1.268 . S
C71 O77 1.268 . S
C71 O85 1.268 . S
C72 O78 1.268 . S
C72 O87 1.268 . S
C73 O79 1.268 . S
C73 O83 1.268 . S
C74 O80 1.268 . S
C74 O82 1.268 . S
C75 O81 1.268 . S
C75 O84 1.268 . S
O76 Sc66 2.105 . S
O76 C70 1.268 . S
O77 Sc67 2.105 . S
O77 C71 1.268 . S
O78 Sc68 2.105 . S
O78 C72 1.268 . S
O79 Sc66 2.105 . S
O79 C73 1.268 . S
O80 Sc68 2.105 . S
O80 C74 1.268 . S
O81 Sc67 2.105 . S
O81 C75 1.268 . S
O82 Sc66 2.105 . S
O82 C74 1.268 . S
O83 Sc67 2.105 . S
O83 C73 1.268 . S
O84 Sc68 2.105 . S
O84 C75 1.268 . S
O85 Sc66 2.105 . S
O85 C71 1.268 . S
O86 Sc68 2.105 . S
O86 C70 1.268 . S
O87 Sc67 2.105 . S
O87 C72 1.268 . S
Sc88 O91 2.025 . S
Sc88 O98 2.105 . S
Sc88 O101 2.105 . S
Sc88 O104 2.105 . S
Sc88 O107 2.105 . S
Sc89 O91 2.025 . S
Sc89 O99 2.105 . S
Sc89 O103 2.105 . S
Sc89 O105 2.105 . S
Sc89 O109 2.105 . S
Sc90 O91 2.025 . S
Sc90 O100 2.105 . S
Sc90 O102 2.105 . S
Sc90 O106 2.105 . S
Sc90 O108 2.105 . S
O91 Sc88 2.025 . S
O91 Sc89 2.025 . S
O91 Sc90 2.025 . S
C92 O98 1.268 . S
C92 O108 1.268 . S
C93 O99 1.268 . S
C93 O107 1.268 . S
C94 O100 1.268 . S
C94 O109 1.268 . S
C95 O101 1.268 . S
C95 O105 1.268 . S
C96 O102 1.268 . S
C96 O104 1.268 . S
C97 O103 1.268 . S
C97 O106 1.268 . S
O98 Sc88 2.105 . S
O98 C92 1.268 . S
O99 Sc89 2.105 . S
O99 C93 1.268 . S
O100 Sc90 2.105 . S
O100 C94 1.268 . S
O101 Sc88 2.105 . S
O101 C95 1.268 . S
O102 Sc90 2.105 . S
O102 C96 1.268 . S
O103 Sc89 2.105 . S
O103 C97 1.268 . S
O104 Sc88 2.105 . S
O104 C96 1.268 . S
O105 Sc89 2.105 . S
O105 C95 1.268 . S
O106 Sc90 2.105 . S
O106 C97 1.268 . S
O107 Sc88 2.105 . S
O107 C93 1.268 . S
O108 Sc90 2.105 . S
O108 C92 1.268 . S
O109 Sc89 2.105 . S
O109 C94 1.268 . S
Sc110 O113 2.025 . S
Sc110 O120 2.105 . S
Sc110 O123 2.105 . S
Sc110 O126 2.105 . S
Sc110 O129 2.105 . S
Sc111 O113 2.025 . S
Sc111 O121 2.105 . S
Sc111 O125 2.105 . S
Sc111 O127 2.105 . S
Sc111 O131 2.105 . S
Sc112 O113 2.025 . S
Sc112 O122 2.105 . S
Sc112 O124 2.105 . S
Sc112 O128 2.105 . S
Sc112 O130 2.105 . S
O113 Sc110 2.025 . S
O113 Sc111 2.025 . S
O113 Sc112 2.025 . S
C114 O120 1.268 . S
C114 O130 1.268 . S
C115 O121 1.268 . S
C115 O129 1.268 . S
C116 O122 1.268 . S
C116 O131 1.268 . S
C117 O123 1.268 . S
C117 O127 1.268 . S
C118 O124 1.268 . S
C118 O126 1.268 . S
C119 O125 1.268 . S
C119 O128 1.268 . S
O120 Sc110 2.105 . S
O120 C114 1.268 . S
O121 Sc111 2.105 . S
O121 C115 1.268 . S
O122 Sc112 2.105 . S
O122 C116 1.268 . S
O123 Sc110 2.105 . S
O123 C117 1.268 . S
O124 Sc112 2.105 . S
O124 C118 1.268 . S
O125 Sc111 2.105 . S
O125 C119 1.268 . S
O126 Sc110 2.105 . S
O126 C118 1.268 . S
O127 Sc111 2.105 . S
O127 C117 1.268 . S
O128 Sc112 2.105 . S
O128 C119 1.268 . S
O129 Sc110 2.105 . S
O129 C115 1.268 . S
O130 Sc112 2.105 . S
O130 C114 1.268 . S
O131 Sc111 2.105 . S
O131 C116 1.268 . S
Sc132 O135 2.025 . S
Sc132 O142 2.105 . S
Sc132 O145 2.105 . S
Sc132 O148 2.105 . S
Sc132 O151 2.105 . S
Sc133 O135 2.025 . S
Sc133 O143 2.105 . S
Sc133 O147 2.105 . S
Sc133 O149 2.105 . S
Sc133 O153 2.105 . S
Sc134 O135 2.025 . S
Sc134 O144 2.105 . S
Sc134 O146 2.105 . S
Sc134 O150 2.105 . S
Sc134 O152 2.105 . S
O135 Sc132 2.025 . S
O135 Sc133 2.025 . S
O135 Sc134 2.025 . S
C136 O142 1.268 . S
C136 O152 1.268 . S
C137 O143 1.268 . S
C137 O151 1.268 . S
C138 O144 1.268 . S
C138 O153 1.268 . S
C139 O145 1.268 . S
C139 O149 1.268 . S
C140 O146 1.268 . S
C140 O148 1.268 . S
C141 O147 1.268 . S
C141 O150 1.268 . S
O142 Sc132 2.105 . S
O142 C136 1.268 . S
O143 Sc133 2.105 . S
O143 C137 1.268 . S
O144 Sc134 2.105 . S
O144 C138 1.268 . S
O145 Sc132 2.105 . S
O145 C139 1.268 . S
O146 Sc134 2.105 . S
O146 C140 1.268 . S
O147 Sc133 2.105 . S
O147 C141 1.268 . S
O148 Sc132 2.105 . S
O148 C140 1.268 . S
O149 Sc133 2.105 . S
O149 C139 1.268 . S
O150 Sc134 2.105 . S
O150 C141 1.268 . S
O151 Sc132 2.105 . S
O151 C137 1.268 . S
O152 Sc134 2.105 . S
O152 C136 1.268 . S
O153 Sc133 2.105 . S
O153 C138 1.268 . S
Sc154 O157 2.025 . S
Sc154 O164 2.105 . S
Sc154 O167 2.105 . S
Sc154 O170 2.105 . S
Sc154 O173 2.105 . S
Sc155 O157 2.025 . S
Sc155 O165 2.105 . S
Sc155 O169 2.105 . S
Sc155 O171 2.105 . S
Sc155 O175 2.105 . S
Sc156 O157 2.025 . S
Sc156 O166 2.105 . S
Sc156 O168 2.105 . S
Sc156 O172 2.105 . S
Sc156 O174 2.105 . S
O157 Sc154 2.025 . S
O157 Sc155 2.025 . S
O157 Sc156 2.025 . S
C158 O164 1.268 . S
C158 O174 1.268 . S
C159 O165 1.268 . S
C159 O173 1.268 . S
C160 O166 1.268 . S
C160 O175 1.268 . S
C161 O167 1.268 . S
C161 O171 1.268 . S
C162 O168 1.268 . S
C162 O170 1.268 . S
C163 O169 1.268 . S
C163 O172 1.268 . S
O164 Sc154 2.105 . S
O164 C158 1.268 . S
O165 Sc155 2.105 . S
O165 C159 1.268 . S
O166 Sc156 2.105 . S
O166 C160 1.268 . S
O167 Sc154 2.105 . S
O167 C161 1.268 . S
O168 Sc156 2.105 . S
O168 C162 1.268 . S
O169 Sc155 2.105 . S
O169 C163 1.268 . S
O170 Sc154 2.105 . S
O170 C162 1.268 . S
O171 Sc155 2.105 . S
O171 C161 1.268 . S
O172 Sc156 2.105 . S
O172 C163 1.268 . S
O173 Sc154 2.105 . S
O173 C159 1.268 . S
O174 Sc156 2.105 . S
O174 C158 1.268 . S
O175 Sc155 2.105 . S
O175 C160 1.268 . S
H176 C194 0.951 . S
H177 C196 0.951 . S
H178 C198 0.950 . S
H179 C199 0.950 . S
H180 C201 0.950 . S
H181 C204 0.950 . S
H182 C205 0.950 . S
H183 C207 0.950 . S
H184 C208 0.950 . S
H185 C209 0.951 . S
H186 C211 0.951 . S
H187 C213 0.950 . S
H188 C214 0.950 . S
H189 C216 0.950 . S
H190 C219 0.950 . S
H191 C220 0.950 . S
H192 C222 0.950 . S
H193 C223 0.950 . S
C194 H176 0.951 . S
C194 C195 1.366 . S
C194 C196 1.388 . S
C195 C194 1.366 . S
C195 C199 1.385 . S
C196 H177 0.951 . S
C196 C194 1.388 . S
C196 C197 1.366 . S
C197 C196 1.366 . S
C197 C198 1.414 . S
C197 C200 1.499 1_545 S
C198 H178 0.950 . S
C198 C197 1.414 . S
C198 C199 1.374 . S
C199 H179 0.950 . S
C199 C195 1.385 . S
C199 C198 1.374 . S
C200 C197 1.499 1_565 S
C200 C201 1.373 . S
C200 C202 1.389 . S
C201 H180 0.950 . S
C201 C200 1.373 . S
C201 C217 1.377 . S
C202 C200 1.389 . S
C202 C203 1.510 1_565 S
C202 C216 1.377 . S
C203 C202 1.510 1_545 S
C203 C204 1.411 . S
C203 C208 1.361 1_545 S
C204 H181 0.950 . S
C204 C203 1.411 . S
C204 C205 1.334 . S
C205 H182 0.950 . S
C205 C204 1.334 . S
C205 C206 1.287 . S
C206 C205 1.287 . S
C206 C207 1.524 . S
C206 H225 0.913 . S
C207 H183 0.950 . S
C207 C206 1.524 . S
C207 C208 1.415 1_545 S
C208 H184 0.950 . S
C208 C203 1.361 1_565 S
C208 C207 1.415 1_565 S
C209 H185 0.951 . S
C209 C210 1.366 . S
C209 C211 1.388 . S
C210 C209 1.366 . S
C210 C214 1.385 . S
C211 H186 0.951 . S
C211 C209 1.388 . S
C211 C212 1.366 . S
C212 C211 1.366 . S
C212 C213 1.414 . S
C212 C215 1.499 . S
C213 H187 0.950 . S
C213 C212 1.414 . S
C213 C214 1.374 . S
C214 H188 0.950 . S
C214 C210 1.385 . S
C214 C213 1.374 . S
C215 C212 1.499 . S
C215 C216 1.373 . S
C215 C217 1.389 . S
C216 H189 0.950 . S
C216 C202 1.377 . S
C216 C215 1.373 . S
C217 C201 1.377 . S
C217 C215 1.389 . S
C217 C218 1.524 . S
C218 C217 1.524 . S
C218 C219 1.397 . S
C218 C223 1.363 . S
C219 H190 0.950 . S
C219 C218 1.397 . S
C219 C220 1.334 . S
C220 H191 0.950 . S
C220 C219 1.334 . S
C220 C221 1.287 . S
C221 C220 1.287 . S
C221 C222 1.524 . S
C221 H224 0.999 . S
C222 H192 0.950 . S
C222 C221 1.524 . S
C222 C223 1.415 . S
C223 H193 0.950 . S
C223 C218 1.363 . S
C223 C222 1.415 . S
H224 C221 0.999 . S
H225 C206 0.913 . S
H226 C244 0.951 . S
H227 C246 0.951 1_655 S
H228 C248 0.950 . S
H229 C249 0.950 . S
H230 C251 0.950 . S
H231 C254 0.950 . S
H232 C255 0.950 . S
H233 C257 0.950 . S
H234 C258 0.950 . S
H235 C259 0.951 . S
H236 C261 0.951 . S
H237 C263 0.950 . S
H238 C264 0.950 . S
H239 C266 0.950 . S
H240 C269 0.950 . S
H241 C270 0.950 . S
H242 C272 0.950 . S
H243 C273 0.950 . S
C244 H226 0.951 . S
C244 C245 1.366 . S
C244 C246 1.388 . S
C245 C244 1.366 . S
C245 C249 1.385 . S
C246 H227 0.951 1_455 S
C246 C244 1.388 . S
C246 C247 1.366 . S
C247 C246 1.366 . S
C247 C248 1.414 . S
C247 C250 1.499 1_455 S
C248 H228 0.950 . S
C248 C247 1.414 . S
C248 C249 1.374 . S
C249 H229 0.950 . S
C249 C245 1.385 . S
C249 C248 1.374 . S
C250 C247 1.499 1_655 S
C250 C251 1.373 . S
C250 C252 1.389 . S
C251 H230 0.950 . S
C251 C250 1.373 . S
C251 C267 1.377 . S
C252 C250 1.389 . S
C252 C253 1.524 . S
C252 C266 1.377 . S
C253 C252 1.524 . S
C253 C254 1.397 . S
C253 C258 1.363 . S
C254 H231 0.950 . S
C254 C253 1.397 . S
C254 C255 1.334 . S
C255 H232 0.950 . S
C255 C254 1.334 . S
C255 C256 1.287 . S
C256 C255 1.287 . S
C256 C257 1.524 . S
C256 H275 0.913 . S
C257 H233 0.950 . S
C257 C256 1.524 . S
C257 C258 1.415 . S
C258 H234 0.950 . S
C258 C253 1.363 . S
C258 C257 1.415 . S
C259 H235 0.951 . S
C259 C260 1.366 . S
C259 C261 1.388 . S
C260 C259 1.366 . S
C260 C264 1.385 . S
C261 H236 0.951 . S
C261 C259 1.388 . S
C261 C262 1.366 . S
C262 C261 1.366 . S
C262 C263 1.414 . S
C262 C265 1.499 . S
C263 H237 0.950 . S
C263 C262 1.414 . S
C263 C264 1.374 . S
C264 H238 0.950 . S
C264 C260 1.385 . S
C264 C263 1.374 . S
C265 C262 1.499 . S
C265 C266 1.373 . S
C265 C267 1.389 . S
C266 H239 0.950 . S
C266 C252 1.377 . S
C266 C265 1.373 . S
C267 C251 1.377 . S
C267 C265 1.389 . S
C267 C268 1.524 . S
C268 C267 1.524 . S
C268 C269 1.397 . S
C268 C273 1.363 . S
C269 H240 0.950 . S
C269 C268 1.397 . S
C269 C270 1.334 . S
C270 H241 0.950 . S
C270 C269 1.334 . S
C270 C271 1.287 . S
C271 C270 1.287 . S
C271 C272 1.524 . S
C271 H274 0.999 . S
C272 H242 0.950 . S
C272 C271 1.524 . S
C272 C273 1.415 . S
C273 H243 0.950 . S
C273 C268 1.363 . S
C273 C272 1.415 . S
H274 C271 0.999 . S
H275 C256 0.913 . S
H276 C294 0.951 . S
H277 C296 0.951 . S
H278 C298 0.950 . S
H279 C299 0.950 . S
H280 C301 0.950 . S
H281 C304 0.950 . S
H282 C305 0.950 . S
H283 C307 0.950 . S
H284 C308 0.950 . S
H285 C309 0.951 . S
H286 C311 0.951 . S
H287 C313 0.950 . S
H288 C314 0.950 . S
H289 C316 0.950 . S
H290 C319 0.950 . S
H291 C320 0.950 . S
H292 C322 0.950 . S
H293 C323 0.950 . S
C294 H276 0.951 . S
C294 C295 1.366 . S
C294 C296 1.388 . S
C295 C294 1.366 . S
C295 C299 1.385 . S
C296 H277 0.951 . S
C296 C294 1.388 . S
C296 C297 1.366 . S
C297 C296 1.366 . S
C297 C298 1.414 . S
C297 C300 1.499 1_565 S
C298 H278 0.950 . S
C298 C297 1.414 . S
C298 C299 1.374 . S
C299 H279 0.950 . S
C299 C295 1.385 . S
C299 C298 1.374 . S
C300 C297 1.499 1_545 S
C300 C301 1.373 . S
C300 C302 1.389 . S
C301 H280 0.950 . S
C301 C300 1.373 . S
C301 C317 1.377 . S
C302 C300 1.389 . S
C302 C303 1.524 . S
C302 C316 1.377 . S
C303 C302 1.524 . S
C303 C304 1.397 1_545 S
C303 C308 1.363 . S
C304 H281 0.950 . S
C304 C303 1.397 1_565 S
C304 C305 1.334 . S
C305 H282 0.950 . S
C305 C304 1.334 . S
C305 C306 1.287 . S
C306 C305 1.287 . S
C306 C307 1.524 . S
C306 H325 0.913 . S
C307 H283 0.950 . S
C307 C306 1.524 . S
C307 C308 1.415 1_565 S
C308 H284 0.950 . S
C308 C303 1.363 . S
C308 C307 1.415 1_545 S
C309 H285 0.951 . S
C309 C310 1.366 . S
C309 C311 1.388 . S
C310 C309 1.366 . S
C310 C314 1.385 . S
C311 H286 0.951 . S
C311 C309 1.388 . S
C311 C312 1.366 . S
C312 C311 1.366 . S
C312 C313 1.414 . S
C312 C315 1.499 . S
C313 H287 0.950 . S
C313 C312 1.414 . S
C313 C314 1.374 . S
C314 H288 0.950 . S
C314 C310 1.385 . S
C314 C313 1.374 . S
C315 C312 1.499 . S
C315 C316 1.373 . S
C315 C317 1.389 . S
C316 H289 0.950 . S
C316 C302 1.377 . S
C316 C315 1.373 . S
C317 C301 1.377 . S
C317 C315 1.389 . S
C317 C318 1.524 . S
C318 C317 1.524 . S
C318 C319 1.397 . S
C318 C323 1.363 . S
C319 H290 0.950 . S
C319 C318 1.397 . S
C319 C320 1.334 . S
C320 H291 0.950 . S
C320 C319 1.334 . S
C320 C321 1.287 . S
C321 C320 1.287 . S
C321 C322 1.524 . S
C321 H324 0.999 . S
C322 H292 0.950 . S
C322 C321 1.524 . S
C322 C323 1.415 . S
C323 H293 0.950 . S
C323 C318 1.363 . S
C323 C322 1.415 . S
H324 C321 0.999 . S
H325 C306 0.913 . S
H326 C344 0.951 . S
H327 C346 0.951 . S
H328 C348 0.950 . S
H329 C349 0.950 . S
H330 C351 0.950 . S
H331 C354 0.950 . S
H332 C355 0.950 . S
H333 C357 0.950 . S
H334 C358 0.950 . S
H335 C359 0.951 . S
H336 C361 0.951 1_455 S
H337 C363 0.950 . S
H338 C364 0.950 . S
H339 C366 0.950 . S
H340 C369 0.950 . S
H341 C370 0.950 . S
H342 C372 0.950 . S
H343 C373 0.950 . S
C344 H326 0.951 . S
C344 C345 1.366 . S
C344 C346 1.388 . S
C345 C344 1.366 . S
C345 C349 1.385 . S
C346 H327 0.951 . S
C346 C344 1.388 . S
C346 C347 1.366 . S
C347 C346 1.366 . S
C347 C348 1.414 . S
C347 C350 1.499 . S
C348 H328 0.950 . S
C348 C347 1.414 . S
C348 C349 1.374 . S
C349 H329 0.950 . S
C349 C345 1.385 . S
C349 C348 1.374 . S
C350 C347 1.499 . S
C350 C351 1.373 . S
C350 C352 1.389 . S
C351 H330 0.950 . S
C351 C350 1.373 . S
C351 C367 1.377 . S
C352 C350 1.389 . S
C352 C353 1.524 . S
C352 C366 1.377 . S
C353 C352 1.524 . S
C353 C354 1.397 . S
C353 C358 1.363 . S
C354 H331 0.950 . S
C354 C353 1.397 . S
C354 C355 1.334 . S
C355 H332 0.950 . S
C355 C354 1.334 . S
C355 C356 1.287 . S
C356 C355 1.287 . S
C356 C357 1.524 . S
C356 H375 0.913 . S
C357 H333 0.950 . S
C357 C356 1.524 . S
C357 C358 1.415 . S
C358 H334 0.950 . S
C358 C353 1.363 . S
C358 C357 1.415 . S
C359 H335 0.951 . S
C359 C360 1.366 . S
C359 C361 1.388 . S
C360 C359 1.366 . S
C360 C364 1.385 . S
C361 H336 0.951 1_655 S
C361 C359 1.388 . S
C361 C362 1.366 . S
C362 C361 1.366 . S
C362 C363 1.414 . S
C362 C365 1.499 1_655 S
C363 H337 0.950 . S
C363 C362 1.414 . S
C363 C364 1.374 . S
C364 H338 0.950 . S
C364 C360 1.385 . S
C364 C363 1.374 . S
C365 C362 1.499 1_455 S
C365 C366 1.373 . S
C365 C367 1.389 . S
C366 H339 0.950 . S
C366 C352 1.377 . S
C366 C365 1.373 . S
C367 C351 1.377 . S
C367 C365 1.389 . S
C367 C368 1.524 . S
C368 C367 1.524 . S
C368 C369 1.397 . S
C368 C373 1.363 . S
C369 H340 0.950 . S
C369 C368 1.397 . S
C369 C370 1.334 . S
C370 H341 0.950 . S
C370 C369 1.334 . S
C370 C371 1.287 . S
C371 C370 1.287 . S
C371 C372 1.524 . S
C371 H374 0.999 . S
C372 H342 0.950 . S
C372 C371 1.524 . S
C372 C373 1.415 . S
C373 H343 0.950 . S
C373 C368 1.363 . S
C373 C372 1.415 . S
H374 C371 0.999 . S
H375 C356 0.913 . S
H376 C394 0.951 . S
H377 C396 0.951 . S
H378 C398 0.950 . S
H379 C399 0.950 . S
H380 C401 0.950 . S
H381 C404 0.950 . S
H382 C405 0.950 . S
H383 C407 0.950 . S
H384 C408 0.950 . S
H385 C409 0.951 . S
H386 C411 0.951 . S
H387 C413 0.950 1_554 S
H388 C414 0.950 . S
H389 C416 0.953 . S
H390 C419 0.950 . S
H391 C420 0.950 . S
H392 C422 0.950 . S
H393 C423 0.950 . S
C394 H376 0.951 . S
C394 C395 1.366 . S
C394 C396 1.388 . S
C395 C394 1.366 . S
C395 C399 1.385 . S
C396 H377 0.951 . S
C396 C394 1.388 . S
C396 C397 1.366 . S
C397 C396 1.366 . S
C397 C398 1.414 . S
C397 C400 1.499 . S
C398 H378 0.950 . S
C398 C397 1.414 . S
C398 C399 1.374 . S
C399 H379 0.950 . S
C399 C395 1.385 . S
C399 C398 1.374 . S
C400 C397 1.499 . S
C400 C401 1.373 . S
C400 C402 1.389 . S
C401 H380 0.950 . S
C401 C400 1.373 . S
C401 C417 1.377 . S
C402 C400 1.389 . S
C402 C403 1.524 . S
C402 C416 1.374 1_554 S
C403 C402 1.524 . S
C403 C404 1.397 1_554 S
C403 C408 1.363 . S
C404 H381 0.950 . S
C404 C403 1.397 1_556 S
C404 C405 1.334 . S
C405 H382 0.950 . S
C405 C404 1.334 . S
C405 C406 1.287 . S
C406 C405 1.287 . S
C406 C407 1.524 1_556 S
C406 H425 0.913 . S
C407 H383 0.950 . S
C407 C406 1.524 1_554 S
C407 C408 1.415 . S
C408 H384 0.950 . S
C408 C403 1.363 . S
C408 C407 1.415 . S
C409 H385 0.951 . S
C409 C410 1.366 . S
C409 C411 1.388 . S
C410 C409 1.366 . S
C410 C414 1.385 . S
C411 H386 0.951 . S
C411 C409 1.388 . S
C411 C412 1.366 . S
C412 C411 1.366 . S
C412 C413 1.414 . S
C412 C415 1.499 1_556 S
C413 H387 0.950 1_556 S
C413 C412 1.414 . S
C413 C414 1.374 . S
C414 H388 0.950 . S
C414 C410 1.385 . S
C414 C413 1.374 . S
C415 C412 1.499 1_554 S
C415 C416 1.373 1_554 S
C415 C417 1.389 . S
C416 H389 0.953 . S
C416 C402 1.374 1_556 S
C416 C415 1.373 1_556 S
C417 C401 1.377 . S
C417 C415 1.389 . S
C417 C418 1.524 . S
C418 C417 1.524 . S
C418 C419 1.397 . S
C418 C423 1.363 . S
C419 H390 0.950 . S
C419 C418 1.397 . S
C419 C420 1.334 . S
C420 H391 0.950 . S
C420 C419 1.334 . S
C420 C421 1.287 . S
C421 C420 1.287 . S
C421 C422 1.524 . S
C421 H424 0.999 . S
C422 H392 0.950 . S
C422 C421 1.524 . S
C422 C423 1.415 . S
C423 H393 0.950 . S
C423 C418 1.363 . S
C423 C422 1.415 . S
H424 C421 0.999 . S
H425 C406 0.913 . S
H426 C444 0.951 . S
H427 C446 0.951 . S
H428 C448 0.950 . S
H429 C449 0.950 . S
H430 C451 0.950 . S
H431 C454 0.950 1_556 S
H432 C455 0.950 . S
H433 C457 0.950 . S
H434 C458 0.950 . S
H435 C459 0.951 . S
H436 C461 0.951 1_556 S
H437 C463 0.950 . S
H438 C464 0.950 . S
H439 C466 0.950 . S
H440 C469 0.950 . S
H441 C470 0.950 . S
H442 C472 0.950 . S
H443 C473 0.950 . S
C444 H426 0.951 . S
C444 C445 1.366 . S
C444 C446 1.388 . S
C445 C444 1.366 . S
C445 C449 1.385 . S
C446 H427 0.951 . S
C446 C444 1.388 . S
C446 C447 1.366 . S
C447 C446 1.366 . S
C447 C448 1.414 . S
C447 C450 1.499 . S
C448 H428 0.950 . S
C448 C447 1.414 . S
C448 C449 1.374 . S
C449 H429 0.950 . S
C449 C445 1.385 . S
C449 C448 1.374 . S
C450 C447 1.499 . S
C450 C451 1.373 . S
C450 C452 1.389 1_556 S
C451 H430 0.950 . S
C451 C450 1.373 . S
C451 C467 1.377 . S
C452 C450 1.389 1_554 S
C452 C453 1.524 . S
C452 C466 1.377 . S
C453 C452 1.524 . S
C453 C454 1.397 . S
C453 C458 1.363 . S
C454 H431 0.950 1_554 S
C454 C453 1.397 . S
C454 C455 1.334 . S
C455 H432 0.950 . S
C455 C454 1.334 . S
C455 C456 1.287 . S
C456 C455 1.287 . S
C456 C457 1.524 . S
C456 H475 0.913 . S
C457 H433 0.950 . S
C457 C456 1.524 . S
C457 C458 1.415 . S
C458 H434 0.950 . S
C458 C453 1.363 . S
C458 C457 1.415 . S
C459 H435 0.951 . S
C459 C460 1.366 . S
C459 C461 1.388 . S
C460 C459 1.366 . S
C460 C464 1.385 . S
C461 H436 0.951 1_554 S
C461 C459 1.388 . S
C461 C462 1.366 . S
C462 C461 1.366 . S
C462 C463 1.414 . S
C462 C465 1.492 1_554 S
C463 H437 0.950 . S
C463 C462 1.414 . S
C463 C464 1.374 . S
C464 H438 0.950 . S
C464 C460 1.385 . S
C464 C463 1.374 . S
C465 C462 1.492 1_556 S
C465 C466 1.366 1_556 S
C465 C467 1.404 . S
C466 H439 0.950 . S
C466 C452 1.377 . S
C466 C465 1.366 1_554 S
C467 C451 1.377 . S
C467 C465 1.404 . S
C467 C468 1.524 . S
C468 C467 1.524 . S
C468 C469 1.397 . S
C468 C473 1.363 . S
C469 H440 0.950 . S
C469 C468 1.397 . S
C469 C470 1.334 . S
C470 H441 0.950 . S
C470 C469 1.334 . S
C470 C471 1.287 . S
C471 C470 1.287 . S
C471 C472 1.524 . S
C471 H474 0.999 . S
C472 H442 0.950 . S
C472 C471 1.524 . S
C472 C473 1.415 . S
C473 H443 0.950 . S
C473 C468 1.363 . S
C473 C472 1.415 . S
H474 C471 0.999 . S
H475 C456 0.913 . S
H476 C494 0.951 . S
H477 C496 0.951 . S
H478 C498 0.950 . S
H479 C499 0.950 . S
H480 C501 0.950 . S
H481 C504 0.950 . S
H482 C505 0.950 . S
H483 C507 0.950 . S
H484 C508 0.950 . S
H485 C509 0.951 . S
H486 C511 0.951 . S
H487 C513 0.950 1_554 S
H488 C514 0.950 . S
H489 C516 0.950 . S
H490 C519 0.950 . S
H491 C520 0.950 1_554 S
H492 C522 0.950 . S
H493 C523 0.950 . S
C494 H476 0.951 . S
C494 C495 1.366 . S
C494 C496 1.388 . S
C495 C494 1.366 . S
C495 C499 1.385 . S
C496 H477 0.951 . S
C496 C494 1.388 . S
C496 C497 1.366 . S
C497 C496 1.366 . S
C497 C498 1.414 . S
C497 C500 1.499 . S
C498 H478 0.950 . S
C498 C497 1.414 . S
C498 C499 1.374 . S
C499 H479 0.950 . S
C499 C495 1.385 . S
C499 C498 1.374 . S
C500 C497 1.499 . S
C500 C501 1.373 . S
C500 C502 1.389 . S
C501 H480 0.950 . S
C501 C500 1.373 . S
C501 C517 1.377 . S
C502 C500 1.389 . S
C502 C503 1.524 . S
C502 C516 1.377 . S
C503 C502 1.524 . S
C503 C504 1.397 . S
C503 C508 1.363 . S
C504 H481 0.950 . S
C504 C503 1.397 . S
C504 C505 1.334 . S
C505 H482 0.950 . S
C505 C504 1.334 . S
C505 C506 1.287 . S
C506 C505 1.287 . S
C506 C507 1.524 . S
C506 H525 0.913 . S
C507 H483 0.950 . S
C507 C506 1.524 . S
C507 C508 1.415 . S
C508 H484 0.950 . S
C508 C503 1.363 . S
C508 C507 1.415 . S
C509 H485 0.951 . S
C509 C510 1.366 . S
C509 C511 1.388 . S
C510 C509 1.366 . S
C510 C514 1.385 . S
C511 H486 0.951 . S
C511 C509 1.388 . S
C511 C512 1.366 . S
C512 C511 1.366 . S
C512 C513 1.414 . S
C512 C515 1.499 1_556 S
C513 H487 0.950 1_556 S
C513 C512 1.414 . S
C513 C514 1.374 . S
C514 H488 0.950 . S
C514 C510 1.385 . S
C514 C513 1.374 . S
C515 C512 1.499 1_554 S
C515 C516 1.373 . S
C515 C517 1.389 . S
C516 H489 0.950 . S
C516 C502 1.377 . S
C516 C515 1.373 . S
C517 C501 1.377 . S
C517 C515 1.389 . S
C517 C518 1.524 1_554 S
C518 C517 1.524 1_556 S
C518 C519 1.397 1_556 S
C518 C523 1.363 . S
C519 H490 0.950 . S
C519 C518 1.397 1_554 S
C519 C520 1.334 1_554 S
C520 H491 0.950 1_556 S
C520 C519 1.334 1_556 S
C520 C521 1.287 . S
C521 C520 1.287 . S
C521 C522 1.524 . S
C521 H524 0.999 . S
C522 H492 0.950 . S
C522 C521 1.524 . S
C522 C523 1.415 . S
C523 H493 0.950 . S
C523 C518 1.363 . S
C523 C522 1.415 . S
H524 C521 0.999 . S
H525 C506 0.913 . S
H526 C544 0.951 . S
H527 C546 0.951 1_556 S
H528 C548 0.950 . S
H529 C549 0.950 . S
H530 C551 0.950 . S
H531 C554 0.950 . S
H532 C555 0.950 . S
H533 C557 0.950 . S
H534 C558 0.950 . S
H535 C559 0.951 . S
H536 C561 0.951 . S
H537 C563 0.950 . S
H538 C564 0.950 . S
H539 C566 0.950 . S
H540 C569 0.950 . S
H541 C570 0.950 . S
H542 C572 0.950 . S
H543 C573 0.950 . S
C544 H526 0.951 . S
C544 C545 1.366 . S
C544 C546 1.388 . S
C545 C544 1.366 . S
C545 C549 1.385 . S
C546 H527 0.951 1_554 S
C546 C544 1.388 . S
C546 C547 1.366 . S
C547 C546 1.366 . S
C547 C548 1.414 . S
C547 C550 1.499 . S
C548 H528 0.950 . S
C548 C547 1.414 . S
C548 C549 1.374 . S
C549 H529 0.950 . S
C549 C545 1.385 . S
C549 C548 1.374 . S
C550 C547 1.499 . S
C550 C551 1.373 . S
C550 C552 1.389 1_554 S
C551 H530 0.950 . S
C551 C550 1.373 . S
C551 C567 1.377 1_554 S
C552 C550 1.389 1_556 S
C552 C553 1.524 . S
C552 C566 1.377 . S
C553 C552 1.524 . S
C553 C554 1.397 1_556 S
C553 C558 1.363 . S
C554 H531 0.950 . S
C554 C553 1.397 1_554 S
C554 C555 1.334 . S
C555 H532 0.950 . S
C555 C554 1.334 . S
C555 C556 1.287 1_554 S
C556 C555 1.287 1_556 S
C556 C557 1.524 . S
C556 H575 0.913 . S
C557 H533 0.950 . S
C557 C556 1.524 . S
C557 C558 1.415 . S
C558 H534 0.950 . S
C558 C553 1.363 . S
C558 C557 1.415 . S
C559 H535 0.951 . S
C559 C560 1.366 . S
C559 C561 1.388 . S
C560 C559 1.366 . S
C560 C564 1.385 . S
C561 H536 0.951 . S
C561 C559 1.388 . S
C561 C562 1.366 . S
C562 C561 1.366 . S
C562 C563 1.414 . S
C562 C565 1.499 . S
C563 H537 0.950 . S
C563 C562 1.414 . S
C563 C564 1.374 . S
C564 H538 0.950 . S
C564 C560 1.385 . S
C564 C563 1.374 . S
C565 C562 1.499 . S
C565 C566 1.373 . S
C565 C567 1.389 . S
C566 H539 0.950 . S
C566 C552 1.377 . S
C566 C565 1.373 . S
C567 C551 1.377 1_556 S
C567 C565 1.389 . S
C567 C568 1.524 . S
C568 C567 1.524 . S
C568 C569 1.397 . S
C568 C573 1.363 1_556 S
C569 H540 0.950 . S
C569 C568 1.397 . S
C569 C570 1.334 . S
C570 H541 0.950 . S
C570 C569 1.334 . S
C570 C571 1.287 . S
C571 C570 1.287 . S
C571 C572 1.524 1_556 S
C571 H574 0.999 . S
C572 H542 0.950 . S
C572 C571 1.524 1_554 S
C572 C573 1.415 . S
C573 H543 0.950 . S
C573 C568 1.363 1_554 S
C573 C572 1.415 . S
H574 C571 0.999 . S
H575 C556 0.913 . S
H576 C594 0.951 . S
H577 C596 0.951 . S
H578 C598 0.950 . S
H579 C599 0.950 . S
H580 C601 0.950 . S
H581 C604 0.950 . S
H582 C605 0.950 . S
H583 C607 0.950 . S
H584 C608 0.950 . S
H585 C609 0.951 . S
H586 C611 0.951 . S
H587 C613 0.950 . S
H588 C614 0.950 . S
H589 C616 0.950 . S
H590 C619 0.950 . S
H591 C620 0.950 . S
H592 C622 0.950 . S
H593 C623 0.950 . S
C594 H576 0.951 . S
C594 C595 1.366 . S
C594 C596 1.388 . S
C595 C594 1.366 . S
C595 C599 1.385 . S
C596 H577 0.951 . S
C596 C594 1.388 . S
C596 C597 1.366 . S
C597 C596 1.366 . S
C597 C598 1.414 . S
C597 C600 1.499 . S
C598 H578 0.950 . S
C598 C597 1.414 . S
C598 C599 1.374 . S
C599 H579 0.950 . S
C599 C595 1.385 . S
C599 C598 1.374 . S
C600 C597 1.499 . S
C600 C601 1.373 . S
C600 C602 1.389 . S
C601 H580 0.950 . S
C601 C600 1.373 . S
C601 C617 1.377 . S
C602 C600 1.389 . S
C602 C603 1.524 . S
C602 C616 1.377 . S
C603 C602 1.524 . S
C603 C604 1.397 . S
C603 C608 1.363 . S
C604 H581 0.950 . S
C604 C603 1.397 . S
C604 C605 1.334 . S
C605 H582 0.950 . S
C605 C604 1.334 . S
C605 C606 1.287 . S
C606 C605 1.287 . S
C606 C607 1.524 . S
C606 H625 0.913 . S
C607 H583 0.950 . S
C607 C606 1.524 . S
C607 C608 1.415 . S
C608 H584 0.950 . S
C608 C603 1.363 . S
C608 C607 1.415 . S
C609 H585 0.951 . S
C609 C610 1.366 . S
C609 C611 1.388 . S
C610 C609 1.366 . S
C610 C614 1.385 . S
C611 H586 0.951 . S
C611 C609 1.388 . S
C611 C612 1.366 . S
C612 C611 1.366 . S
C612 C613 1.414 . S
C612 C615 1.499 . S
C613 H587 0.950 . S
C613 C612 1.414 . S
C613 C614 1.374 . S
C614 H588 0.950 . S
C614 C610 1.385 . S
C614 C613 1.374 . S
C615 C612 1.499 . S
C615 C616 1.373 . S
C615 C617 1.389 . S
C616 H589 0.950 . S
C616 C602 1.377 . S
C616 C615 1.373 . S
C617 C601 1.377 . S
C617 C615 1.389 . S
C617 C618 1.524 . S
C618 C617 1.524 . S
C618 C619 1.397 . S
C618 C623 1.363 . S
C619 H590 0.950 . S
C619 C618 1.397 . S
C619 C620 1.334 . S
C620 H591 0.950 . S
C620 C619 1.334 . S
C620 C621 1.287 . S
C621 C620 1.287 . S
C621 C622 1.524 . S
C621 H624 0.999 . S
C622 H592 0.950 . S
C622 C621 1.524 . S
C622 C623 1.415 . S
C623 H593 0.950 . S
C623 C618 1.363 . S
C623 C622 1.415 . S
H624 C621 0.999 . S
H625 C606 0.913 . S
H626 C644 0.951 . S
H627 C646 0.951 . S
H628 C648 0.950 . S
H629 C649 0.950 . S
H630 C651 0.950 . S
H631 C654 0.950 . S
H632 C655 0.950 . S
H633 C657 0.950 . S
H634 C658 0.950 . S
H635 C659 0.951 . S
H636 C661 0.951 . S
H637 C663 0.950 . S
H638 C664 0.950 . S
H639 C666 0.950 . S
H640 C669 0.950 . S
H641 C670 0.950 . S
H642 C672 0.950 . S
H643 C673 0.950 . S
C644 H626 0.951 . S
C644 C645 1.366 . S
C644 C646 1.388 . S
C645 C644 1.366 . S
C645 C649 1.385 . S
C646 H627 0.951 . S
C646 C644 1.388 . S
C646 C647 1.366 . S
C647 C646 1.366 . S
C647 C648 1.414 . S
C647 C650 1.499 . S
C648 H628 0.950 . S
C648 C647 1.414 . S
C648 C649 1.374 . S
C649 H629 0.950 . S
C649 C645 1.385 . S
C649 C648 1.374 . S
C650 C647 1.499 . S
C650 C651 1.373 . S
C650 C652 1.389 . S
C651 H630 0.950 . S
C651 C650 1.373 . S
C651 C667 1.377 . S
C652 C650 1.389 . S
C652 C653 1.524 . S
C652 C666 1.377 . S
C653 C652 1.524 . S
C653 C654 1.397 . S
C653 C658 1.363 . S
C654 H631 0.950 . S
C654 C653 1.397 . S
C654 C655 1.334 . S
C655 H632 0.950 . S
C655 C654 1.334 . S
C655 C656 1.287 . S
C656 C655 1.287 . S
C656 C657 1.524 . S
C656 H675 0.913 . S
C657 H633 0.950 . S
C657 C656 1.524 . S
C657 C658 1.415 . S
C658 H634 0.950 . S
C658 C653 1.363 . S
C658 C657 1.415 . S
C659 H635 0.951 . S
C659 C660 1.366 . S
C659 C661 1.388 . S
C660 C659 1.366 . S
C660 C664 1.385 . S
C661 H636 0.951 . S
C661 C659 1.388 . S
C661 C662 1.366 . S
C662 C661 1.366 . S
C662 C663 1.414 . S
C662 C665 1.499 . S
C663 H637 0.950 . S
C663 C662 1.414 . S
C663 C664 1.374 . S
C664 H638 0.950 . S
C664 C660 1.385 . S
C664 C663 1.374 . S
C665 C662 1.499 . S
C665 C666 1.373 . S
C665 C667 1.389 . S
C666 H639 0.950 . S
C666 C652 1.377 . S
C666 C665 1.373 . S
C667 C651 1.377 . S
C667 C665 1.389 . S
C667 C668 1.524 . S
C668 C667 1.524 . S
C668 C669 1.397 . S
C668 C673 1.363 . S
C669 H640 0.950 . S
C669 C668 1.397 . S
C669 C670 1.334 . S
C670 H641 0.950 . S
C670 C669 1.334 . S
C670 C671 1.287 . S
C671 C670 1.287 . S
C671 C672 1.524 . S
C671 H674 0.999 . S
C672 H642 0.950 . S
C672 C671 1.524 . S
C672 C673 1.415 . S
C673 H643 0.950 . S
C673 C668 1.363 . S
C673 C672 1.415 . S
H674 C671 0.999 . S
H675 C656 0.913 . S
H676 C694 0.951 . S
H677 C696 0.951 . S
H678 C698 0.950 . S
H679 C699 0.950 . S
H680 C701 0.950 . S
H681 C704 0.950 . S
H682 C705 0.950 . S
H683 C707 0.950 . S
H684 C708 0.950 . S
H685 C709 0.951 . S
H686 C711 0.951 . S
H687 C713 0.950 . S
H688 C714 0.950 . S
H689 C716 0.950 . S
H690 C719 0.950 . S
H691 C720 0.950 . S
H692 C722 0.950 . S
H693 C723 0.950 . S
C694 H676 0.951 . S
C694 C695 1.366 . S
C694 C696 1.388 . S
C695 C694 1.366 . S
C695 C699 1.385 . S
C696 H677 0.951 . S
C696 C694 1.388 . S
C696 C697 1.366 . S
C697 C696 1.366 . S
C697 C698 1.414 . S
C697 C700 1.499 . S
C698 H678 0.950 . S
C698 C697 1.414 . S
C698 C699 1.374 . S
C699 H679 0.950 . S
C699 C695 1.385 . S
C699 C698 1.374 . S
C700 C697 1.499 . S
C700 C701 1.373 . S
C700 C702 1.389 . S
C701 H680 0.950 . S
C701 C700 1.373 . S
C701 C717 1.377 . S
C702 C700 1.389 . S
C702 C703 1.524 . S
C702 C716 1.377 . S
C703 C702 1.524 . S
C703 C704 1.397 . S
C703 C708 1.363 . S
C704 H681 0.950 . S
C704 C703 1.397 . S
C704 C705 1.334 . S
C705 H682 0.950 . S
C705 C704 1.334 . S
C705 C706 1.287 . S
C706 C705 1.287 . S
C706 C707 1.524 . S
C706 H725 0.913 . S
C707 H683 0.950 . S
C707 C706 1.524 . S
C707 C708 1.415 . S
C708 H684 0.950 . S
C708 C703 1.363 . S
C708 C707 1.415 . S
C709 H685 0.951 . S
C709 C710 1.366 . S
C709 C711 1.388 . S
C710 C709 1.366 . S
C710 C714 1.385 . S
C711 H686 0.951 . S
C711 C709 1.388 . S
C711 C712 1.366 . S
C712 C711 1.366 . S
C712 C713 1.414 . S
C712 C715 1.499 . S
C713 H687 0.950 . S
C713 C712 1.414 . S
C713 C714 1.374 . S
C714 H688 0.950 . S
C714 C710 1.385 . S
C714 C713 1.374 . S
C715 C712 1.499 . S
C715 C716 1.373 . S
C715 C717 1.389 . S
C716 H689 0.950 . S
C716 C702 1.377 . S
C716 C715 1.373 . S
C717 C701 1.377 . S
C717 C715 1.389 . S
C717 C718 1.524 . S
C718 C717 1.524 . S
C718 C719 1.397 . S
C718 C723 1.363 . S
C719 H690 0.950 . S
C719 C718 1.397 . S
C719 C720 1.334 . S
C720 H691 0.950 . S
C720 C719 1.334 . S
C720 C721 1.287 . S
C721 C720 1.287 . S
C721 C722 1.524 . S
C721 H724 0.999 . S
C722 H692 0.950 . S
C722 C721 1.524 . S
C722 C723 1.415 . S
C723 H693 0.950 . S
C723 C718 1.363 . S
C723 C722 1.415 . S
H724 C721 0.999 . S
H725 C706 0.913 . S
H726 C744 0.951 . S
H727 C746 0.951 . S
H728 C748 0.950 . S
H729 C749 0.950 . S
H730 C751 0.950 . S
H731 C754 0.950 . S
H732 C755 0.950 . S
H733 C757 0.950 . S
H734 C758 0.950 . S
H735 C759 0.951 . S
H736 C761 0.951 . S
H737 C763 0.950 . S
H738 C764 0.950 . S
H739 C766 0.950 . S
H740 C769 0.950 . S
H741 C770 0.950 . S
H742 C772 0.950 . S
H743 C773 0.950 . S
C744 H726 0.951 . S
C744 C745 1.366 . S
C744 C746 1.388 . S
C745 C744 1.366 . S
C745 C749 1.385 . S
C746 H727 0.951 . S
C746 C744 1.388 . S
C746 C747 1.366 . S
C747 C746 1.366 . S
C747 C748 1.414 . S
C747 C750 1.499 . S
C748 H728 0.950 . S
C748 C747 1.414 . S
C748 C749 1.374 . S
C749 H729 0.950 . S
C749 C745 1.385 . S
C749 C748 1.374 . S
C750 C747 1.499 . S
C750 C751 1.373 . S
C750 C752 1.389 . S
C751 H730 0.950 . S
C751 C750 1.373 . S
C751 C767 1.377 . S
C752 C750 1.389 . S
C752 C753 1.524 . S
C752 C766 1.377 . S
C753 C752 1.524 . S
C753 C754 1.397 . S
C753 C758 1.363 . S
C754 H731 0.950 . S
C754 C753 1.397 . S
C754 C755 1.334 . S
C755 H732 0.950 . S
C755 C754 1.334 . S
C755 C756 1.287 . S
C756 C755 1.287 . S
C756 C757 1.524 . S
C756 H775 0.913 . S
C757 H733 0.950 . S
C757 C756 1.524 . S
C757 C758 1.415 . S
C758 H734 0.950 . S
C758 C753 1.363 . S
C758 C757 1.415 . S
C759 H735 0.951 . S
C759 C760 1.366 . S
C759 C761 1.388 . S
C760 C759 1.366 . S
C760 C764 1.385 . S
C761 H736 0.951 . S
C761 C759 1.388 . S
C761 C762 1.366 . S
C762 C761 1.366 . S
C762 C763 1.414 . S
C762 C765 1.499 . S
C763 H737 0.950 . S
C763 C762 1.414 . S
C763 C764 1.374 . S
C764 H738 0.950 . S
C764 C760 1.385 . S
C764 C763 1.374 . S
C765 C762 1.499 . S
C765 C766 1.373 . S
C765 C767 1.389 . S
C766 H739 0.950 . S
C766 C752 1.377 . S
C766 C765 1.373 . S
C767 C751 1.377 . S
C767 C765 1.389 . S
C767 C768 1.524 . S
C768 C767 1.524 . S
C768 C769 1.397 . S
C768 C773 1.363 . S
C769 H740 0.950 . S
C769 C768 1.397 . S
C769 C770 1.334 . S
C770 H741 0.950 . S
C770 C769 1.334 . S
C770 C771 1.287 . S
C771 C770 1.287 . S
C771 C772 1.524 . S
C771 H774 0.999 . S
C772 H742 0.950 . S
C772 C771 1.524 . S
C772 C773 1.415 . S
C773 H743 0.950 . S
C773 C768 1.363 . S
C773 C772 1.415 . S
H774 C771 0.999 . S
H775 C756 0.913 . S
H776 C794 0.951 . S
H777 C796 0.951 . S
H778 C798 0.950 . S
H779 C799 0.950 . S
H780 C801 0.950 . S
H781 C804 0.950 . S
H782 C805 0.950 . S
H783 C807 0.950 . S
H784 C808 0.950 . S
H785 C809 0.951 . S
H786 C811 0.951 . S
H787 C813 0.950 1_545 S
H788 C814 0.950 . S
H789 C816 0.950 . S
H790 C819 0.950 1_545 S
H791 C820 0.950 . S
H792 C822 0.950 . S
H793 C823 0.950 1_545 S
C794 H776 0.951 . S
C794 C795 1.366 . S
C794 C796 1.388 . S
C795 C794 1.366 . S
C795 C799 1.385 . S
C796 H777 0.951 . S
C796 C794 1.388 . S
C796 C797 1.366 . S
C797 C796 1.366 . S
C797 C798 1.414 . S
C797 C800 1.499 . S
C798 H778 0.950 . S
C798 C797 1.414 . S
C798 C799 1.374 . S
C799 H779 0.950 . S
C799 C795 1.385 . S
C799 C798 1.374 . S
C800 C797 1.499 . S
C800 C801 1.373 . S
C800 C802 1.389 . S
C801 H780 0.950 . S
C801 C800 1.373 . S
C801 C817 1.377 . S
C802 C800 1.389 . S
C802 C803 1.524 . S
C802 C816 1.377 . S
C803 C802 1.524 . S
C803 C804 1.397 . S
C803 C808 1.363 . S
C804 H781 0.950 . S
C804 C803 1.397 . S
C804 C805 1.334 . S
C805 H782 0.950 . S
C805 C804 1.334 . S
C805 C806 1.287 . S
C806 C805 1.287 . S
C806 C807 1.524 . S
C806 H825 0.913 . S
C807 H783 0.950 . S
C807 C806 1.524 . S
C807 C808 1.415 . S
C808 H784 0.950 . S
C808 C803 1.363 . S
C808 C807 1.415 . S
C809 H785 0.951 . S
C809 C810 1.366 . S
C809 C811 1.388 . S
C810 C809 1.366 . S
C810 C814 1.385 . S
C811 H786 0.951 . S
C811 C809 1.388 . S
C811 C812 1.366 . S
C812 C811 1.366 . S
C812 C813 1.414 . S
C812 C815 1.499 1_565 S
C813 H787 0.950 1_565 S
C813 C812 1.414 . S
C813 C814 1.374 . S
C814 H788 0.950 . S
C814 C810 1.385 . S
C814 C813 1.374 . S
C815 C812 1.499 1_545 S
C815 C816 1.373 . S
C815 C817 1.389 . S
C816 H789 0.950 . S
C816 C802 1.377 . S
C816 C815 1.373 . S
C817 C801 1.377 . S
C817 C815 1.389 . S
C817 C818 1.524 . S
C818 C817 1.524 . S
C818 C819 1.397 1_545 S
C818 C823 1.363 1_545 S
C819 H790 0.950 1_565 S
C819 C818 1.397 1_565 S
C819 C820 1.334 . S
C820 H791 0.950 . S
C820 C819 1.334 . S
C820 C821 1.287 . S
C821 C820 1.287 . S
C821 C822 1.524 . S
C821 H824 0.999 . S
C822 H792 0.950 . S
C822 C821 1.524 . S
C822 C823 1.415 . S
C823 H793 0.950 1_565 S
C823 C818 1.363 1_565 S
C823 C822 1.415 . S
H824 C821 0.999 . S
H825 C806 0.913 . S
H826 C844 0.951 . S
H827 C846 0.951 . S
H828 C848 0.950 . S
H829 C849 0.950 . S
H830 C851 0.950 . S
H831 C854 0.950 . S
H832 C855 0.950 . S
H833 C857 0.950 . S
H834 C858 0.950 . S
H835 C859 0.951 . S
H836 C861 0.951 1_455 S
H837 C863 0.950 . S
H838 C864 0.950 . S
H839 C866 0.950 . S
H840 C869 0.950 . S
H841 C870 0.950 . S
H842 C872 0.950 . S
H843 C873 0.950 . S
C844 H826 0.951 . S
C844 C845 1.366 . S
C844 C846 1.388 . S
C845 C844 1.366 . S
C845 C849 1.385 . S
C846 H827 0.951 . S
C846 C844 1.388 . S
C846 C847 1.366 . S
C847 C846 1.366 . S
C847 C848 1.414 . S
C847 C850 1.499 . S
C848 H828 0.950 . S
C848 C847 1.414 . S
C848 C849 1.374 . S
C849 H829 0.950 . S
C849 C845 1.385 . S
C849 C848 1.374 . S
C850 C847 1.499 . S
C850 C851 1.373 . S
C850 C852 1.389 . S
C851 H830 0.950 . S
C851 C850 1.373 . S
C851 C867 1.377 . S
C852 C850 1.389 . S
C852 C853 1.524 . S
C852 C866 1.377 . S
C853 C852 1.524 . S
C853 C854 1.397 . S
C853 C858 1.363 . S
C854 H831 0.950 . S
C854 C853 1.397 . S
C854 C855 1.334 . S
C855 H832 0.950 . S
C855 C854 1.334 . S
C855 C856 1.287 . S
C856 C855 1.287 . S
C856 C857 1.524 . S
C856 H875 0.913 . S
C857 H833 0.950 . S
C857 C856 1.524 . S
C857 C858 1.415 . S
C858 H834 0.950 . S
C858 C853 1.363 . S
C858 C857 1.415 . S
C859 H835 0.951 . S
C859 C860 1.366 . S
C859 C861 1.388 . S
C860 C859 1.366 . S
C860 C864 1.385 . S
C861 H836 0.951 1_655 S
C861 C859 1.388 . S
C861 C862 1.366 . S
C862 C861 1.366 . S
C862 C863 1.414 . S
C862 C865 1.499 1_655 S
C863 H837 0.950 . S
C863 C862 1.414 . S
C863 C864 1.374 . S
C864 H838 0.950 . S
C864 C860 1.385 . S
C864 C863 1.374 . S
C865 C862 1.499 1_455 S
C865 C866 1.373 . S
C865 C867 1.389 . S
C866 H839 0.950 . S
C866 C852 1.377 . S
C866 C865 1.373 . S
C867 C851 1.377 . S
C867 C865 1.389 . S
C867 C868 1.524 . S
C868 C867 1.524 . S
C868 C869 1.397 1_455 S
C868 C873 1.363 . S
C869 H840 0.950 . S
C869 C868 1.397 1_655 S
C869 C870 1.334 . S
C870 H841 0.950 . S
C870 C869 1.334 . S
C870 C871 1.287 . S
C871 C870 1.287 . S
C871 C872 1.524 1_655 S
C871 H874 0.999 . S
C872 H842 0.950 . S
C872 C871 1.524 1_455 S
C872 C873 1.415 . S
C873 H843 0.950 . S
C873 C868 1.363 . S
C873 C872 1.415 . S
H874 C871 0.999 . S
H875 C856 0.913 . S
H876 C894 0.951 . S
H877 C896 0.951 . S
H878 C898 0.950 . S
H879 C899 0.950 . S
H880 C901 0.950 . S
H881 C904 0.950 . S
H882 C905 0.950 . S
H883 C907 0.950 . S
H884 C908 0.950 . S
H885 C909 0.951 . S
H886 C911 0.951 . S
H887 C913 0.940 1_565 S
H888 C914 0.950 . S
H889 C916 0.950 . S
H890 C919 0.950 . S
H891 C920 0.950 . S
H892 C922 0.950 . S
H893 C923 0.950 . S
C894 H876 0.951 . S
C894 C895 1.366 . S
C894 C896 1.388 . S
C895 C894 1.366 . S
C895 C899 1.385 . S
C896 H877 0.951 . S
C896 C894 1.388 . S
C896 C897 1.366 . S
C897 C896 1.366 . S
C897 C898 1.414 . S
C897 C900 1.499 . S
C898 H878 0.950 . S
C898 C897 1.414 . S
C898 C899 1.374 . S
C899 H879 0.950 . S
C899 C895 1.385 . S
C899 C898 1.374 . S
C900 C897 1.499 . S
C900 C901 1.373 . S
C900 C902 1.389 . S
C901 H880 0.950 . S
C901 C900 1.373 . S
C901 C917 1.377 . S
C902 C900 1.389 . S
C902 C903 1.524 . S
C902 C916 1.377 . S
C903 C902 1.524 . S
C903 C904 1.397 . S
C903 C908 1.363 . S
C904 H881 0.950 . S
C904 C903 1.397 . S
C904 C905 1.334 . S
C905 H882 0.950 . S
C905 C904 1.334 . S
C905 C906 1.287 . S
C906 C905 1.287 . S
C906 C907 1.524 . S
C906 H925 0.913 . S
C907 H883 0.950 . S
C907 C906 1.524 . S
C907 C908 1.415 . S
C908 H884 0.950 . S
C908 C903 1.363 . S
C908 C907 1.415 . S
C909 H885 0.951 . S
C909 C910 1.366 . S
C909 C911 1.388 . S
C910 C909 1.366 . S
C910 C914 1.385 . S
C911 H886 0.951 . S
C911 C909 1.388 . S
C911 C912 1.366 . S
C912 C911 1.366 . S
C912 C913 1.414 . S
C912 C915 1.499 1_545 S
C913 H887 0.940 1_545 S
C913 C912 1.414 . S
C913 C914 1.374 . S
C914 H888 0.950 . S
C914 C910 1.385 . S
C914 C913 1.374 . S
C915 C912 1.499 1_565 S
C915 C916 1.373 . S
C915 C917 1.389 . S
C916 H889 0.950 . S
C916 C902 1.377 . S
C916 C915 1.373 . S
C917 C901 1.377 . S
C917 C915 1.389 . S
C917 C918 1.524 . S
C918 C917 1.524 . S
C918 C919 1.397 . S
C918 C923 1.363 . S
C919 H890 0.950 . S
C919 C918 1.397 . S
C919 C920 1.334 . S
C920 H891 0.950 . S
C920 C919 1.334 . S
C920 C921 1.287 . S
C921 C920 1.287 . S
C921 C922 1.524 . S
C921 H924 0.999 . S
C922 H892 0.950 . S
C922 C921 1.524 . S
C922 C923 1.415 . S
C923 H893 0.950 . S
C923 C918 1.363 . S
C923 C922 1.415 . S
H924 C921 0.999 . S
H925 C906 0.913 . S
H926 C944 0.951 . S
H927 C946 0.951 1_655 S
H928 C948 0.950 . S
H929 C949 0.950 . S
H930 C951 0.950 . S
H931 C954 0.950 . S
H932 C955 0.950 . S
H933 C957 0.950 . S
H934 C958 0.950 . S
H935 C959 0.951 . S
H936 C961 0.951 . S
H937 C963 0.950 . S
H938 C964 0.950 . S
H939 C966 0.950 . S
H940 C969 0.950 . S
H941 C970 0.950 . S
H942 C972 0.950 . S
H943 C973 0.950 . S
C944 H926 0.951 . S
C944 C945 1.366 . S
C944 C946 1.388 . S
C945 C944 1.366 . S
C945 C949 1.385 . S
C946 H927 0.951 1_455 S
C946 C944 1.388 . S
C946 C947 1.366 . S
C947 C946 1.366 . S
C947 C948 1.414 . S
C947 C950 1.499 1_455 S
C948 H928 0.950 . S
C948 C947 1.414 . S
C948 C949 1.374 . S
C949 H929 0.950 . S
C949 C945 1.385 . S
C949 C948 1.374 . S
C950 C947 1.499 1_655 S
C950 C951 1.373 . S
C950 C952 1.389 . S
C951 H930 0.950 . S
C951 C950 1.373 . S
C951 C967 1.377 . S
C952 C950 1.389 . S
C952 C953 1.524 . S
C952 C966 1.377 . S
C953 C952 1.524 . S
C953 C954 1.397 . S
C953 C958 1.363 . S
C954 H931 0.950 . S
C954 C953 1.397 . S
C954 C955 1.334 . S
C955 H932 0.950 . S
C955 C954 1.334 . S
C955 C956 1.287 . S
C956 C955 1.287 . S
C956 C957 1.524 . S
C956 H975 0.913 . S
C957 H933 0.950 . S
C957 C956 1.524 . S
C957 C958 1.415 . S
C958 H934 0.950 . S
C958 C953 1.363 . S
C958 C957 1.415 . S
C959 H935 0.951 . S
C959 C960 1.366 . S
C959 C961 1.388 . S
C960 C959 1.366 . S
C960 C964 1.385 . S
C961 H936 0.951 . S
C961 C959 1.388 . S
C961 C962 1.366 . S
C962 C961 1.366 . S
C962 C963 1.414 . S
C962 C965 1.499 . S
C963 H937 0.950 . S
C963 C962 1.414 . S
C963 C964 1.374 . S
C964 H938 0.950 . S
C964 C960 1.385 . S
C964 C963 1.374 . S
C965 C962 1.499 . S
C965 C966 1.373 . S
C965 C967 1.389 . S
C966 H939 0.950 . S
C966 C952 1.377 . S
C966 C965 1.373 . S
C967 C951 1.377 . S
C967 C965 1.389 . S
C967 C968 1.524 . S
C968 C967 1.524 . S
C968 C969 1.397 . S
C968 C973 1.363 . S
C969 H940 0.950 . S
C969 C968 1.397 . S
C969 C970 1.334 . S
C970 H941 0.950 . S
C970 C969 1.334 . S
C970 C971 1.287 . S
C971 C970 1.287 . S
C971 C972 1.524 . S
C971 H974 0.999 . S
C972 H942 0.950 . S
C972 C971 1.524 . S
C972 C973 1.415 . S
C973 H943 0.950 . S
C973 C968 1.363 . S
C973 C972 1.415 . S
H974 C971 0.999 . S
H975 C956 0.913 . S
H976 C994 0.951 . S
H977 C996 0.951 . S
H978 C998 0.950 . S
H979 C999 0.950 . S
H980 C1001 0.950 . S
H981 C1004 0.950 . S
H982 C1005 0.950 . S
H983 C1007 0.950 . S
H984 C1008 0.950 . S
H985 C1009 0.951 . S
H986 C1011 0.951 . S
H987 C1013 0.950 . S
H988 C1014 0.950 . S
H989 C1016 0.950 . S
H990 C1019 0.950 . S
H991 C1020 0.950 . S
H992 C1022 0.950 . S
H993 C1023 0.950 . S
C994 H976 0.951 . S
C994 C995 1.366 . S
C994 C996 1.388 1_556 S
C995 C994 1.366 . S
C995 C999 1.385 1_556 S
C996 H977 0.951 . S
C996 C994 1.388 1_554 S
C996 C997 1.366 . S
C997 C996 1.366 . S
C997 C998 1.414 . S
C997 C1000 1.499 . S
C998 H978 0.950 . S
C998 C997 1.414 . S
C998 C999 1.374 . S
C999 H979 0.950 . S
C999 C995 1.385 1_554 S
C999 C998 1.374 . S
C1000 C997 1.499 . S
C1000 C1001 1.373 . S
C1000 C1002 1.389 . S
C1001 H980 0.950 . S
C1001 C1000 1.373 . S
C1001 C1017 1.377 . S
C1002 C1000 1.389 . S
C1002 C1003 1.524 . S
C1002 C1016 1.377 . S
C1003 C1002 1.524 . S
C1003 C1004 1.397 . S
C1003 C1008 1.363 . S
C1004 H981 0.950 . S
C1004 C1003 1.397 . S
C1004 C1005 1.334 . S
C1005 H982 0.950 . S
C1005 C1004 1.334 . S
C1005 C1006 1.287 . S
C1006 C1005 1.287 . S
C1006 C1007 1.524 . S
C1006 H1025 0.913 . S
C1007 H983 0.950 . S
C1007 C1006 1.524 . S
C1007 C1008 1.415 . S
C1008 H984 0.950 . S
C1008 C1003 1.363 . S
C1008 C1007 1.415 . S
C1009 H985 0.951 . S
C1009 C1010 1.366 . S
C1009 C1011 1.388 . S
C1010 C1009 1.366 . S
C1010 C1014 1.385 . S
C1011 H986 0.951 . S
C1011 C1009 1.388 . S
C1011 C1012 1.366 . S
C1012 C1011 1.366 . S
C1012 C1013 1.414 . S
C1012 C1015 1.499 . S
C1013 H987 0.950 . S
C1013 C1012 1.414 . S
C1013 C1014 1.374 . S
C1014 H988 0.950 . S
C1014 C1010 1.385 . S
C1014 C1013 1.374 . S
C1015 C1012 1.499 . S
C1015 C1016 1.373 . S
C1015 C1017 1.389 . S
C1016 H989 0.950 . S
C1016 C1002 1.377 . S
C1016 C1015 1.373 . S
C1017 C1001 1.377 . S
C1017 C1015 1.389 . S
C1017 C1018 1.524 . S
C1018 C1017 1.524 . S
C1018 C1019 1.397 . S
C1018 C1023 1.363 . S
C1019 H990 0.950 . S
C1019 C1018 1.397 . S
C1019 C1020 1.334 . S
C1020 H991 0.950 . S
C1020 C1019 1.334 . S
C1020 C1021 1.287 . S
C1021 C1020 1.287 . S
C1021 C1022 1.524 . S
C1021 H1024 0.999 . S
C1022 H992 0.950 . S
C1022 C1021 1.524 . S
C1022 C1023 1.415 . S
C1023 H993 0.950 . S
C1023 C1018 1.363 . S
C1023 C1022 1.415 . S
H1024 C1021 0.999 . S
H1025 C1006 0.913 . S
H1026 C1044 0.951 . S
H1027 C1046 0.951 . S
H1028 C1048 0.950 . S
H1029 C1049 0.950 . S
H1030 C1051 0.950 . S
H1031 C1054 0.950 . S
H1032 C1055 0.950 . S
H1033 C1057 0.950 . S
H1034 C1058 0.950 . S
H1035 C1059 0.951 . S
H1036 C1061 0.951 . S
H1037 C1063 0.950 . S
H1038 C1064 0.950 . S
H1039 C1066 0.950 . S
H1040 C1069 0.950 . S
H1041 C1070 0.950 . S
H1042 C1072 0.950 . S
H1043 C1073 0.950 . S
C1044 H1026 0.951 . S
C1044 C1045 1.366 . S
C1044 C1046 1.388 1_554 S
C1045 C1044 1.366 . S
C1045 C1049 1.385 1_554 S
C1046 H1027 0.951 . S
C1046 C1044 1.388 1_556 S
C1046 C1047 1.366 . S
C1047 C1046 1.366 . S
C1047 C1048 1.414 . S
C1047 C1050 1.499 . S
C1048 H1028 0.950 . S
C1048 C1047 1.414 . S
C1048 C1049 1.374 . S
C1049 H1029 0.950 . S
C1049 C1045 1.385 1_556 S
C1049 C1048 1.374 . S
C1050 C1047 1.499 . S
C1050 C1051 1.373 . S
C1050 C1052 1.389 . S
C1051 H1030 0.950 . S
C1051 C1050 1.373 . S
C1051 C1067 1.377 . S
C1052 C1050 1.389 . S
C1052 C1053 1.524 . S
C1052 C1066 1.377 . S
C1053 C1052 1.524 . S
C1053 C1054 1.397 . S
C1053 C1058 1.363 . S
C1054 H1031 0.950 . S
C1054 C1053 1.397 . S
C1054 C1055 1.334 . S
C1055 H1032 0.950 . S
C1055 C1054 1.334 . S
C1055 C1056 1.287 . S
C1056 C1055 1.287 . S
C1056 C1057 1.524 . S
C1056 H1075 0.913 . S
C1057 H1033 0.950 . S
C1057 C1056 1.524 . S
C1057 C1058 1.415 . S
C1058 H1034 0.950 . S
C1058 C1053 1.363 . S
C1058 C1057 1.415 . S
C1059 H1035 0.951 . S
C1059 C1060 1.366 . S
C1059 C1061 1.388 . S
C1060 C1059 1.366 . S
C1060 C1064 1.385 . S
C1061 H1036 0.951 . S
C1061 C1059 1.388 . S
C1061 C1062 1.366 . S
C1062 C1061 1.366 . S
C1062 C1063 1.414 . S
C1062 C1065 1.499 . S
C1063 H1037 0.950 . S
C1063 C1062 1.414 . S
C1063 C1064 1.374 . S
C1064 H1038 0.950 . S
C1064 C1060 1.385 . S
C1064 C1063 1.374 . S
C1065 C1062 1.499 . S
C1065 C1066 1.373 . S
C1065 C1067 1.389 . S
C1066 H1039 0.950 . S
C1066 C1052 1.377 . S
C1066 C1065 1.373 . S
C1067 C1051 1.377 . S
C1067 C1065 1.389 . S
C1067 C1068 1.524 . S
C1068 C1067 1.524 . S
C1068 C1069 1.397 . S
C1068 C1073 1.363 . S
C1069 H1040 0.950 . S
C1069 C1068 1.397 . S
C1069 C1070 1.334 . S
C1070 H1041 0.950 . S
C1070 C1069 1.334 . S
C1070 C1071 1.287 . S
C1071 C1070 1.287 . S
C1071 C1072 1.524 . S
C1071 H1074 0.999 . S
C1072 H1042 0.950 . S
C1072 C1071 1.524 . S
C1072 C1073 1.415 . S
C1073 H1043 0.950 . S
C1073 C1068 1.363 . S
C1073 C1072 1.415 . S
H1074 C1071 0.999 . S
H1075 C1056 0.913 . S
H1076 C1094 0.951 . S
H1077 C1096 0.951 . S
H1078 C1098 0.950 . S
H1079 C1099 0.950 . S
H1080 C1101 0.950 . S
H1081 C1104 0.950 . S
H1082 C1105 0.950 . S
H1083 C1107 0.950 . S
H1084 C1108 0.950 . S
H1085 C1109 0.957 . S
H1086 C1111 0.951 . S
H1087 C1113 0.950 . S
H1088 C1114 0.950 . S
H1089 C1116 0.950 . S
H1090 C1119 0.950 . S
H1091 C1120 0.950 . S
H1092 C1122 0.950 . S
H1093 C1123 0.950 . S
C1094 H1076 0.951 . S
C1094 C1095 1.366 . S
C1094 C1096 1.388 . S
C1095 C1094 1.366 . S
C1095 C1099 1.385 . S
C1096 H1077 0.951 . S
C1096 C1094 1.388 . S
C1096 C1097 1.366 . S
C1097 C1096 1.366 . S
C1097 C1098 1.414 . S
C1097 C1100 1.499 . S
C1098 H1078 0.950 . S
C1098 C1097 1.414 . S
C1098 C1099 1.374 . S
C1099 H1079 0.950 . S
C1099 C1095 1.385 . S
C1099 C1098 1.374 . S
C1100 C1097 1.499 . S
C1100 C1101 1.373 . S
C1100 C1102 1.389 . S
C1101 H1080 0.950 . S
C1101 C1100 1.373 . S
C1101 C1117 1.377 . S
C1102 C1100 1.389 . S
C1102 C1103 1.524 . S
C1102 C1116 1.377 . S
C1103 C1102 1.524 . S
C1103 C1104 1.397 . S
C1103 C1108 1.363 . S
C1104 H1081 0.950 . S
C1104 C1103 1.397 . S
C1104 C1105 1.334 . S
C1105 H1082 0.950 . S
C1105 C1104 1.334 . S
C1105 C1106 1.287 . S
C1106 C1105 1.287 . S
C1106 C1107 1.524 . S
C1106 H1125 0.913 . S
C1107 H1083 0.950 . S
C1107 C1106 1.524 . S
C1107 C1108 1.415 . S
C1108 H1084 0.950 . S
C1108 C1103 1.363 . S
C1108 C1107 1.415 . S
C1109 H1085 0.957 . S
C1109 C1110 1.368 . S
C1109 C1111 1.379 1_556 S
C1110 C1109 1.368 . S
C1110 C1114 1.385 1_556 S
C1111 H1086 0.951 . S
C1111 C1109 1.379 1_554 S
C1111 C1112 1.366 . S
C1112 C1111 1.366 . S
C1112 C1113 1.414 . S
C1112 C1115 1.499 . S
C1113 H1087 0.950 . S
C1113 C1112 1.414 . S
C1113 C1114 1.374 . S
C1114 H1088 0.950 . S
C1114 C1110 1.385 1_554 S
C1114 C1113 1.374 . S
C1115 C1112 1.499 . S
C1115 C1116 1.373 . S
C1115 C1117 1.389 . S
C1116 H1089 0.950 . S
C1116 C1102 1.377 . S
C1116 C1115 1.373 . S
C1117 C1101 1.377 . S
C1117 C1115 1.389 . S
C1117 C1118 1.524 . S
C1118 C1117 1.524 . S
C1118 C1119 1.397 . S
C1118 C1123 1.363 . S
C1119 H1090 0.950 . S
C1119 C1118 1.397 . S
C1119 C1120 1.334 . S
C1120 H1091 0.950 . S
C1120 C1119 1.334 . S
C1120 C1121 1.287 . S
C1121 C1120 1.287 . S
C1121 C1122 1.524 . S
C1121 H1124 0.999 . S
C1122 H1092 0.950 . S
C1122 C1121 1.524 . S
C1122 C1123 1.415 . S
C1123 H1093 0.950 . S
C1123 C1118 1.363 . S
C1123 C1122 1.415 . S
H1124 C1121 0.999 . S
H1125 C1106 0.913 . S
H1126 C1144 0.951 . S
H1127 C1146 0.951 . S
H1128 C1148 0.950 . S
H1129 C1149 0.950 . S
H1130 C1151 0.950 . S
H1131 C1154 0.950 . S
H1132 C1155 0.950 . S
H1133 C1157 0.950 . S
H1134 C1158 0.950 . S
H1135 C1159 0.951 . S
H1136 C1161 0.951 . S
H1137 C1163 0.950 . S
H1138 C1164 0.950 . S
H1139 C1166 0.950 . S
H1140 C1169 0.950 . S
H1141 C1170 0.950 . S
H1142 C1172 0.950 . S
H1143 C1173 0.950 . S
C1144 H1126 0.951 . S
C1144 C1145 1.366 . S
C1144 C1146 1.388 . S
C1145 C1144 1.366 . S
C1145 C1149 1.385 . S
C1146 H1127 0.951 . S
C1146 C1144 1.388 . S
C1146 C1147 1.366 . S
C1147 C1146 1.366 . S
C1147 C1148 1.414 . S
C1147 C1150 1.499 . S
C1148 H1128 0.950 . S
C1148 C1147 1.414 . S
C1148 C1149 1.374 . S
C1149 H1129 0.950 . S
C1149 C1145 1.385 . S
C1149 C1148 1.374 . S
C1150 C1147 1.499 . S
C1150 C1151 1.373 . S
C1150 C1152 1.389 . S
C1151 H1130 0.950 . S
C1151 C1150 1.373 . S
C1151 C1167 1.377 . S
C1152 C1150 1.389 . S
C1152 C1153 1.524 . S
C1152 C1166 1.377 . S
C1153 C1152 1.524 . S
C1153 C1154 1.397 . S
C1153 C1158 1.363 . S
C1154 H1131 0.950 . S
C1154 C1153 1.397 . S
C1154 C1155 1.334 . S
C1155 H1132 0.950 . S
C1155 C1154 1.334 . S
C1155 C1156 1.287 . S
C1156 C1155 1.287 . S
C1156 C1157 1.524 . S
C1156 H1175 0.913 . S
C1157 H1133 0.950 . S
C1157 C1156 1.524 . S
C1157 C1158 1.415 . S
C1158 H1134 0.950 . S
C1158 C1153 1.363 . S
C1158 C1157 1.415 . S
C1159 H1135 0.951 . S
C1159 C1160 1.366 1_556 S
C1159 C1161 1.388 . S
C1160 C1159 1.366 1_554 S
C1160 C1164 1.385 . S
C1161 H1136 0.951 . S
C1161 C1159 1.388 . S
C1161 C1162 1.366 . S
C1162 C1161 1.366 . S
C1162 C1163 1.414 . S
C1162 C1165 1.499 . S
C1163 H1137 0.950 . S
C1163 C1162 1.414 . S
C1163 C1164 1.374 1_556 S
C1164 H1138 0.950 . S
C1164 C1160 1.385 . S
C1164 C1163 1.374 1_554 S
C1165 C1162 1.499 . S
C1165 C1166 1.373 . S
C1165 C1167 1.389 . S
C1166 H1139 0.950 . S
C1166 C1152 1.377 . S
C1166 C1165 1.373 . S
C1167 C1151 1.377 . S
C1167 C1165 1.389 . S
C1167 C1168 1.524 . S
C1168 C1167 1.524 . S
C1168 C1169 1.397 . S
C1168 C1173 1.363 . S
C1169 H1140 0.950 . S
C1169 C1168 1.397 . S
C1169 C1170 1.334 . S
C1170 H1141 0.950 . S
C1170 C1169 1.334 . S
C1170 C1171 1.287 . S
C1171 C1170 1.287 . S
C1171 C1172 1.524 . S
C1171 H1174 0.999 . S
C1172 H1142 0.950 . S
C1172 C1171 1.524 . S
C1172 C1173 1.415 . S
C1173 H1143 0.950 . S
C1173 C1168 1.363 . S
C1173 C1172 1.415 . S
H1174 C1171 0.999 . S
H1175 C1156 0.913 . S
H1176 C1194 0.951 . S
H1177 C1196 0.951 . S
H1178 C1198 0.950 . S
H1179 C1199 0.950 . S
H1180 C1201 0.950 . S
H1181 C1204 0.950 . S
H1182 C1205 0.950 . S
H1183 C1207 0.950 . S
H1184 C1208 0.950 . S
H1185 C1209 0.951 . S
H1186 C1211 0.951 . S
H1187 C1213 0.950 . S
H1188 C1214 0.950 . S
H1189 C1216 0.950 . S
H1190 C1219 0.950 . S
H1191 C1220 0.950 . S
H1192 C1222 0.950 . S
H1193 C1223 0.950 . S
C1194 H1176 0.951 . S
C1194 C1195 1.366 . S
C1194 C1196 1.388 . S
C1195 C1194 1.366 . S
C1195 C1199 1.385 . S
C1196 H1177 0.951 . S
C1196 C1194 1.388 . S
C1196 C1197 1.366 . S
C1197 C1196 1.366 . S
C1197 C1198 1.414 . S
C1197 C1200 1.499 . S
C1198 H1178 0.950 . S
C1198 C1197 1.414 . S
C1198 C1199 1.374 . S
C1199 H1179 0.950 . S
C1199 C1195 1.385 . S
C1199 C1198 1.374 . S
C1200 C1197 1.499 . S
C1200 C1201 1.373 . S
C1200 C1202 1.389 . S
C1201 H1180 0.950 . S
C1201 C1200 1.373 . S
C1201 C1217 1.377 . S
C1202 C1200 1.389 . S
C1202 C1203 1.524 . S
C1202 C1216 1.377 . S
C1203 C1202 1.524 . S
C1203 C1204 1.397 . S
C1203 C1208 1.363 . S
C1204 H1181 0.950 . S
C1204 C1203 1.397 . S
C1204 C1205 1.334 . S
C1205 H1182 0.950 . S
C1205 C1204 1.334 . S
C1205 C1206 1.287 . S
C1206 C1205 1.287 . S
C1206 C1207 1.524 . S
C1206 H1225 0.913 . S
C1207 H1183 0.950 . S
C1207 C1206 1.524 . S
C1207 C1208 1.415 . S
C1208 H1184 0.950 . S
C1208 C1203 1.363 . S
C1208 C1207 1.415 . S
C1209 H1185 0.951 . S
C1209 C1210 1.366 . S
C1209 C1211 1.388 . S
C1210 C1209 1.366 . S
C1210 C1214 1.385 . S
C1211 H1186 0.951 . S
C1211 C1209 1.388 . S
C1211 C1212 1.366 . S
C1212 C1211 1.366 . S
C1212 C1213 1.414 . S
C1212 C1215 1.499 . S
C1213 H1187 0.950 . S
C1213 C1212 1.414 . S
C1213 C1214 1.374 . S
C1214 H1188 0.950 . S
C1214 C1210 1.385 . S
C1214 C1213 1.374 . S
C1215 C1212 1.499 . S
C1215 C1216 1.373 . S
C1215 C1217 1.389 . S
C1216 H1189 0.950 . S
C1216 C1202 1.377 . S
C1216 C1215 1.373 . S
C1217 C1201 1.377 . S
C1217 C1215 1.389 . S
C1217 C1218 1.524 . S
C1218 C1217 1.524 . S
C1218 C1219 1.397 . S
C1218 C1223 1.363 . S
C1219 H1190 0.950 . S
C1219 C1218 1.397 . S
C1219 C1220 1.334 . S
C1220 H1191 0.950 . S
C1220 C1219 1.334 . S
C1220 C1221 1.287 . S
C1221 C1220 1.287 . S
C1221 C1222 1.524 . S
C1221 H1224 0.999 . S
C1222 H1192 0.950 . S
C1222 C1221 1.524 . S
C1222 C1223 1.415 . S
C1223 H1193 0.950 . S
C1223 C1218 1.363 . S
C1223 C1222 1.415 . S
H1224 C1221 0.999 . S
H1225 C1206 0.913 . S
H1226 C1244 0.951 . S
H1227 C1246 0.951 . S
H1228 C1248 0.950 . S
H1229 C1249 0.950 . S
H1230 C1251 0.950 . S
H1231 C1254 0.950 . S
H1232 C1255 0.950 . S
H1233 C1257 0.950 . S
H1234 C1258 0.950 . S
H1235 C1259 0.951 . S
H1236 C1261 0.951 . S
H1237 C1263 0.950 . S
H1238 C1264 0.950 . S
H1239 C1266 0.950 . S
H1240 C1269 0.950 . S
H1241 C1270 0.950 . S
H1242 C1272 0.950 . S
H1243 C1273 0.950 . S
C1244 H1226 0.951 . S
C1244 C1245 1.366 . S
C1244 C1246 1.388 . S
C1245 C1244 1.366 . S
C1245 C1249 1.385 . S
C1246 H1227 0.951 . S
C1246 C1244 1.388 . S
C1246 C1247 1.366 . S
C1247 C1246 1.366 . S
C1247 C1248 1.414 . S
C1247 C1250 1.499 . S
C1248 H1228 0.950 . S
C1248 C1247 1.414 . S
C1248 C1249 1.374 . S
C1249 H1229 0.950 . S
C1249 C1245 1.385 . S
C1249 C1248 1.374 . S
C1250 C1247 1.499 . S
C1250 C1251 1.373 . S
C1250 C1252 1.389 . S
C1251 H1230 0.950 . S
C1251 C1250 1.373 . S
C1251 C1267 1.377 . S
C1252 C1250 1.389 . S
C1252 C1253 1.524 . S
C1252 C1266 1.377 . S
C1253 C1252 1.524 . S
C1253 C1254 1.397 . S
C1253 C1258 1.363 . S
C1254 H1231 0.950 . S
C1254 C1253 1.397 . S
C1254 C1255 1.334 . S
C1255 H1232 0.950 . S
C1255 C1254 1.334 . S
C1255 C1256 1.287 . S
C1256 C1255 1.287 . S
C1256 C1257 1.524 . S
C1256 H1275 0.913 . S
C1257 H1233 0.950 . S
C1257 C1256 1.524 . S
C1257 C1258 1.415 . S
C1258 H1234 0.950 . S
C1258 C1253 1.363 . S
C1258 C1257 1.415 . S
C1259 H1235 0.951 . S
C1259 C1260 1.366 . S
C1259 C1261 1.388 . S
C1260 C1259 1.366 . S
C1260 C1264 1.385 . S
C1261 H1236 0.951 . S
C1261 C1259 1.388 . S
C1261 C1262 1.366 . S
C1262 C1261 1.366 . S
C1262 C1263 1.414 . S
C1262 C1265 1.499 . S
C1263 H1237 0.950 . S
C1263 C1262 1.414 . S
C1263 C1264 1.374 . S
C1264 H1238 0.950 . S
C1264 C1260 1.385 . S
C1264 C1263 1.374 . S
C1265 C1262 1.499 . S
C1265 C1266 1.373 . S
C1265 C1267 1.389 . S
C1266 H1239 0.950 . S
C1266 C1252 1.377 . S
C1266 C1265 1.373 . S
C1267 C1251 1.377 . S
C1267 C1265 1.389 . S
C1267 C1268 1.524 . S
C1268 C1267 1.524 . S
C1268 C1269 1.397 . S
C1268 C1273 1.363 . S
C1269 H1240 0.950 . S
C1269 C1268 1.397 . S
C1269 C1270 1.334 . S
C1270 H1241 0.950 . S
C1270 C1269 1.334 . S
C1270 C1271 1.287 . S
C1271 C1270 1.287 . S
C1271 C1272 1.524 . S
C1271 H1274 0.999 . S
C1272 H1242 0.950 . S
C1272 C1271 1.524 . S
C1272 C1273 1.415 . S
C1273 H1243 0.950 . S
C1273 C1268 1.363 . S
C1273 C1272 1.415 . S
H1274 C1271 0.999 . S
H1275 C1256 0.913 . S
H1276 C1294 0.951 . S
H1277 C1296 0.951 . S
H1278 C1298 0.950 . S
H1279 C1299 0.950 . S
H1280 C1301 0.950 . S
H1281 C1304 0.950 . S
H1282 C1305 0.950 . S
H1283 C1307 0.950 . S
H1284 C1308 0.950 . S
H1285 C1309 0.951 . S
H1286 C1311 0.951 . S
H1287 C1313 0.950 . S
H1288 C1314 0.950 . S
H1289 C1316 0.950 . S
H1290 C1319 0.950 . S
H1291 C1320 0.950 . S
H1292 C1322 0.950 . S
H1293 C1323 0.950 . S
C1294 H1276 0.951 . S
C1294 C1295 1.366 . S
C1294 C1296 1.388 . S
C1295 C1294 1.366 . S
C1295 C1299 1.385 . S
C1296 H1277 0.951 . S
C1296 C1294 1.388 . S
C1296 C1297 1.366 . S
C1297 C1296 1.366 . S
C1297 C1298 1.414 . S
C1297 C1300 1.499 . S
C1298 H1278 0.950 . S
C1298 C1297 1.414 . S
C1298 C1299 1.374 . S
C1299 H1279 0.950 . S
C1299 C1295 1.385 . S
C1299 C1298 1.374 . S
C1300 C1297 1.499 . S
C1300 C1301 1.373 . S
C1300 C1302 1.389 . S
C1301 H1280 0.950 . S
C1301 C1300 1.373 . S
C1301 C1317 1.377 . S
C1302 C1300 1.389 . S
C1302 C1303 1.524 . S
C1302 C1316 1.377 . S
C1303 C1302 1.524 . S
C1303 C1304 1.397 . S
C1303 C1308 1.363 . S
C1304 H1281 0.950 . S
C1304 C1303 1.397 . S
C1304 C1305 1.334 . S
C1305 H1282 0.950 . S
C1305 C1304 1.334 . S
C1305 C1306 1.287 . S
C1306 C1305 1.287 . S
C1306 C1307 1.524 . S
C1306 H1325 0.913 . S
C1307 H1283 0.950 . S
C1307 C1306 1.524 . S
C1307 C1308 1.415 . S
C1308 H1284 0.950 . S
C1308 C1303 1.363 . S
C1308 C1307 1.415 . S
C1309 H1285 0.951 . S
C1309 C1310 1.366 . S
C1309 C1311 1.388 . S
C1310 C1309 1.366 . S
C1310 C1314 1.385 . S
C1311 H1286 0.951 . S
C1311 C1309 1.388 . S
C1311 C1312 1.366 . S
C1312 C1311 1.366 . S
C1312 C1313 1.414 . S
C1312 C1315 1.499 . S
C1313 H1287 0.950 . S
C1313 C1312 1.414 . S
C1313 C1314 1.374 . S
C1314 H1288 0.950 . S
C1314 C1310 1.385 . S
C1314 C1313 1.374 . S
C1315 C1312 1.499 . S
C1315 C1316 1.373 . S
C1315 C1317 1.389 . S
C1316 H1289 0.950 . S
C1316 C1302 1.377 . S
C1316 C1315 1.373 . S
C1317 C1301 1.377 . S
C1317 C1315 1.389 . S
C1317 C1318 1.524 . S
C1318 C1317 1.524 . S
C1318 C1319 1.397 . S
C1318 C1323 1.363 . S
C1319 H1290 0.950 . S
C1319 C1318 1.397 . S
C1319 C1320 1.334 . S
C1320 H1291 0.950 . S
C1320 C1319 1.334 . S
C1320 C1321 1.287 . S
C1321 C1320 1.287 . S
C1321 C1322 1.524 . S
C1321 H1324 0.999 . S
C1322 H1292 0.950 . S
C1322 C1321 1.524 . S
C1322 C1323 1.415 . S
C1323 H1293 0.950 . S
C1323 C1318 1.363 . S
C1323 C1322 1.415 . S
H1324 C1321 0.999 . S
H1325 C1306 0.913 . S
H1326 C1344 0.951 . S
H1327 C1346 0.951 . S
H1328 C1348 0.950 . S
H1329 C1349 0.950 . S
H1330 C1351 0.950 . S
H1331 C1354 0.950 . S
H1332 C1355 0.950 . S
H1333 C1357 0.950 . S
H1334 C1358 0.950 . S
H1335 C1359 0.951 . S
H1336 C1361 0.951 . S
H1337 C1363 0.950 . S
H1338 C1364 0.950 . S
H1339 C1366 0.950 . S
H1340 C1369 0.950 . S
H1341 C1370 0.950 . S
H1342 C1372 0.950 . S
H1343 C1373 0.950 . S
C1344 H1326 0.951 . S
C1344 C1345 1.366 . S
C1344 C1346 1.388 . S
C1345 C1344 1.366 . S
C1345 C1349 1.385 . S
C1346 H1327 0.951 . S
C1346 C1344 1.388 . S
C1346 C1347 1.366 . S
C1347 C1346 1.366 . S
C1347 C1348 1.414 . S
C1347 C1350 1.499 . S
C1348 H1328 0.950 . S
C1348 C1347 1.414 . S
C1348 C1349 1.374 . S
C1349 H1329 0.950 . S
C1349 C1345 1.385 . S
C1349 C1348 1.374 . S
C1350 C1347 1.499 . S
C1350 C1351 1.373 . S
C1350 C1352 1.389 . S
C1351 H1330 0.950 . S
C1351 C1350 1.373 . S
C1351 C1367 1.377 . S
C1352 C1350 1.389 . S
C1352 C1353 1.524 . S
C1352 C1366 1.377 . S
C1353 C1352 1.524 . S
C1353 C1354 1.397 . S
C1353 C1358 1.363 . S
C1354 H1331 0.950 . S
C1354 C1353 1.397 . S
C1354 C1355 1.334 . S
C1355 H1332 0.950 . S
C1355 C1354 1.334 . S
C1355 C1356 1.287 . S
C1356 C1355 1.287 . S
C1356 C1357 1.524 . S
C1356 H1375 0.913 . S
C1357 H1333 0.950 . S
C1357 C1356 1.524 . S
C1357 C1358 1.415 . S
C1358 H1334 0.950 . S
C1358 C1353 1.363 . S
C1358 C1357 1.415 . S
C1359 H1335 0.951 . S
C1359 C1360 1.366 . S
C1359 C1361 1.388 . S
C1360 C1359 1.366 . S
C1360 C1364 1.385 . S
C1361 H1336 0.951 . S
C1361 C1359 1.388 . S
C1361 C1362 1.366 . S
C1362 C1361 1.366 . S
C1362 C1363 1.414 . S
C1362 C1365 1.499 . S
C1363 H1337 0.950 . S
C1363 C1362 1.414 . S
C1363 C1364 1.374 . S
C1364 H1338 0.950 . S
C1364 C1360 1.385 . S
C1364 C1363 1.374 . S
C1365 C1362 1.499 . S
C1365 C1366 1.373 . S
C1365 C1367 1.389 . S
C1366 H1339 0.950 . S
C1366 C1352 1.377 . S
C1366 C1365 1.373 . S
C1367 C1351 1.377 . S
C1367 C1365 1.389 . S
C1367 C1368 1.524 . S
C1368 C1367 1.524 . S
C1368 C1369 1.397 . S
C1368 C1373 1.363 . S
C1369 H1340 0.950 . S
C1369 C1368 1.397 . S
C1369 C1370 1.334 . S
C1370 H1341 0.950 . S
C1370 C1369 1.334 . S
C1370 C1371 1.287 . S
C1371 C1370 1.287 . S
C1371 C1372 1.524 . S
C1371 H1374 0.999 . S
C1372 H1342 0.950 . S
C1372 C1371 1.524 . S
C1372 C1373 1.415 . S
C1373 H1343 0.950 . S
C1373 C1368 1.363 . S
C1373 C1372 1.415 . S
H1374 C1371 0.999 . S
H1375 C1356 0.913 . S
C195 C7 1.034 . S
C210 C119 1.066 . S
C245 C29 1.036 . S
C260 C140 1.066 . S
C295 C50 1.034 . S
C310 C163 1.066 . S
C345 C92 1.066 . S
C360 C73 1.036 . S
C395 C114 1.066 . S
C410 C97 1.035 . S
C445 C138 1.066 . S
C460 C115 1.035 . S
C495 C158 1.066 . S
C510 C137 1.036 . S
C545 C159 1.035 . S
C560 C95 1.066 . S
C595 C139 1.035 . S
C610 C75 1.066 . S
C645 C161 1.035 . S
C660 C8 1.066 . S
C695 C31 1.066 . S
C710 C94 1.035 . S
C745 C48 1.066 . S
C760 C117 1.035 . S
C795 C70 1.066 . S
C810 C53 1.035 . S
C845 C6 1.066 . S
C860 C71 1.035 . S
C895 C26 1.066 . S
C910 C5 1.036 . S
C945 C27 1.036 . S
C960 C51 1.066 . S
C995 C96 1.384 . S
C1010 C9 1.384 . S
C1045 C116 1.384 . S
C1060 C30 1.385 . S
C1095 C49 1.384 . S
C1110 C136 1.384 . S
C1145 C74 1.384 . S
C1160 C160 1.384 . S
C1195 C52 1.384 . S
C1210 C141 1.384 . S
C1245 C72 1.384 . S
C1260 C162 1.384 . S
C1295 C93 1.384 . S
C1310 C4 1.384 . S
C1345 C118 1.384 . S
C1360 C28 1.384 . S
