# Generated by pormake.
# Topology lcy-e, (6)-cn, num edge types: 1
# Building blocks:
#     Node 0, Type 0, BuildingBlock: KUMJIN_clean_sbu_1, # of connection points: 6
#     Node 1, Type 0, BuildingBlock: KUMJIN_clean_sbu_1, # of connection points: 6
#     Node 2, Type 0, BuildingBlock: KUMJIN_clean_sbu_1, # of connection points: 6
#     Node 3, Type 0, BuildingBlock: KUMJIN_clean_sbu_1, # of connection points: 6
#     Node 4, Type 0, BuildingBlock: KUMJIN_clean_sbu_1, # of connection points: 6
#     Node 5, Type 0, BuildingBlock: KUMJIN_clean_sbu_1, # of connection points: 6
#     Node 6, Type 0, BuildingBlock: KUMJIN_clean_sbu_1, # of connection points: 6
#     Node 7, Type 0, BuildingBlock: KUMJIN_clean_sbu_1, # of connection points: 6
#     Node 8, Type 0, BuildingBlock: KUMJIN_clean_sbu_1, # of connection points: 6
#     Node 9, Type 0, BuildingBlock: KUMJIN_clean_sbu_1, # of connection points: 6
#     Node 10, Type 0, BuildingBlock: KUMJIN_clean_sbu_1, # of connection points: 6
#     Node 11, Type 0, BuildingBlock: KUMJIN_clean_sbu_1, # of connection points: 6
#     Edge 12, Type (0, 0), BuildingBlock: ZUJKAS_clean_linker_0, # of connection points: 2
#     Edge 13, Type (0, 0), BuildingBlock: ZUJKAS_clean_linker_0, # of connection points: 2
#     Edge 14, Type (0, 0), BuildingBlock: ZUJKAS_clean_linker_0, # of connection points: 2
#     Edge 15, Type (0, 0), BuildingBlock: ZUJKAS_clean_linker_0, # of connection points: 2
#     Edge 16, Type (0, 0), BuildingBlock: ZUJKAS_clean_linker_0, # of connection points: 2
#     Edge 17, Type (0, 0), BuildingBlock: ZUJKAS_clean_linker_0, # of connection points: 2
#     Edge 18, Type (0, 0), BuildingBlock: ZUJKAS_clean_linker_0, # of connection points: 2
#     Edge 19, Type (0, 0), BuildingBlock: ZUJKAS_clean_linker_0, # of connection points: 2
#     Edge 20, Type (0, 0), BuildingBlock: ZUJKAS_clean_linker_0, # of connection points: 2
#     Edge 21, Type (0, 0), BuildingBlock: ZUJKAS_clean_linker_0, # of connection points: 2
#     Edge 22, Type (0, 0), BuildingBlock: ZUJKAS_clean_linker_0, # of connection points: 2
#     Edge 23, Type (0, 0), BuildingBlock: ZUJKAS_clean_linker_0, # of connection points: 2
#     Edge 24, Type (0, 0), BuildingBlock: ZUJKAS_clean_linker_0, # of connection points: 2
#     Edge 25, Type (0, 0), BuildingBlock: ZUJKAS_clean_linker_0, # of connection points: 2
#     Edge 26, Type (0, 0), BuildingBlock: ZUJKAS_clean_linker_0, # of connection points: 2
#     Edge 27, Type (0, 0), BuildingBlock: ZUJKAS_clean_linker_0, # of connection points: 2
#     Edge 28, Type (0, 0), BuildingBlock: ZUJKAS_clean_linker_0, # of connection points: 2
#     Edge 29, Type (0, 0), BuildingBlock: ZUJKAS_clean_linker_0, # of connection points: 2
#     Edge 30, Type (0, 0), BuildingBlock: ZUJKAS_clean_linker_0, # of connection points: 2
#     Edge 31, Type (0, 0), BuildingBlock: ZUJKAS_clean_linker_0, # of connection points: 2
#     Edge 32, Type (0, 0), BuildingBlock: ZUJKAS_clean_linker_0, # of connection points: 2
#     Edge 33, Type (0, 0), BuildingBlock: ZUJKAS_clean_linker_0, # of connection points: 2
#     Edge 34, Type (0, 0), BuildingBlock: ZUJKAS_clean_linker_0, # of connection points: 2
#     Edge 35, Type (0, 0), BuildingBlock: ZUJKAS_clean_linker_0, # of connection points: 2
#     Edge 36, Type (0, 0), BuildingBlock: ZUJKAS_clean_linker_0, # of connection points: 2
#     Edge 37, Type (0, 0), BuildingBlock: ZUJKAS_clean_linker_0, # of connection points: 2
#     Edge 38, Type (0, 0), BuildingBlock: ZUJKAS_clean_linker_0, # of connection points: 2
#     Edge 39, Type (0, 0), BuildingBlock: ZUJKAS_clean_linker_0, # of connection points: 2
#     Edge 40, Type (0, 0), BuildingBlock: ZUJKAS_clean_linker_0, # of connection points: 2
#     Edge 41, Type (0, 0), BuildingBlock: ZUJKAS_clean_linker_0, # of connection points: 2
#     Edge 42, Type (0, 0), BuildingBlock: ZUJKAS_clean_linker_0, # of connection points: 2
#     Edge 43, Type (0, 0), BuildingBlock: ZUJKAS_clean_linker_0, # of connection points: 2
#     Edge 44, Type (0, 0), BuildingBlock: ZUJKAS_clean_linker_0, # of connection points: 2
#     Edge 45, Type (0, 0), BuildingBlock: ZUJKAS_clean_linker_0, # of connection points: 2
#     Edge 46, Type (0, 0), BuildingBlock: ZUJKAS_clean_linker_0, # of connection points: 2
#     Edge 47, Type (0, 0), BuildingBlock: ZUJKAS_clean_linker_0, # of connection points: 2
# Relax obj value: 0.094
# Max RMSD: 0.234
# Mean RMSD: 0.233
data_MOF--net-lcy-e--node1-KUMJIN_clean_sbu_1--edge1-ZUJKAS_clean_linker_0
_symmetry_space_group_name_H-M    P1
_symmetry_Int_Tables_number       1
_symmetry_cell_setting            triclinic
loop_
_symmetry_equiv_pos_as_xyz
'x, y, z'
_cell_length_a     54.719328
_cell_length_b     54.484326
_cell_length_c     54.697615
_cell_angle_alpha  89.906368
_cell_angle_beta   89.965831
_cell_angle_gamma 89.768747
loop_
_atom_site_label
_atom_site_type_symbol
_atom_site_fract_x
_atom_site_fract_y
_atom_site_fract_z
_atom_type_partial_charge
Eu0 Eu 0.14241 0.20648 0.51019 0.0
C1 C 0.06585 0.27923 0.45481 0.0
N2 N 0.08007 0.26019 0.44722 0.0
C3 C 0.0466 0.24406 0.42405 0.0
C4 C 0.0409 0.28053 0.44847 0.0
C5 C 0.0712 0.2435 0.43092 0.0
C6 C 0.03123 0.2623 0.43334 0.0
C7 C 0.06264 0.3189 0.47478 0.0
C8 C 0.07663 0.29837 0.46755 0.0
C9 C 0.03748 0.31952 0.46979 0.0
C10 C 0.02665 0.30041 0.4566 0.0
Eu11 Eu 0.12098 0.26061 0.46127 0.0
N12 N 0.10101 0.29737 0.47201 0.0
C13 C 0.0745 0.33847 0.48628 0.0
C14 C 0.1129 0.31686 0.48201 0.0
C15 C 0.09981 0.3376 0.48955 0.0
H16 H 0.08306 0.22969 0.42307 0.0
H17 H 0.10924 0.35288 0.49787 0.0
H18 H 0.19024 0.23356 0.54012 0.0
H19 H 0.14115 0.12276 0.45655 0.0
H20 H 0.1325 0.31643 0.4841 0.0
H21 H 0.06439 0.35456 0.49213 0.0
H22 H 0.12329 0.15829 0.47874 0.0
H23 H 0.03953 0.23043 0.41158 0.0
H24 H 0.02638 0.33502 0.47543 0.0
H25 H 0.00738 0.30153 0.45218 0.0
H26 H 0.2349 0.23098 0.54017 0.0
H27 H 0.01217 0.26269 0.42799 0.0
H28 H 0.18609 0.11788 0.45432 0.0
N29 N 0.18563 0.2063 0.51252 0.0
C30 C 0.19673 0.18773 0.49995 0.0
C31 C 0.22443 0.21902 0.52841 0.0
C32 C 0.22236 0.18478 0.50057 0.0
C33 C 0.19898 0.22092 0.52773 0.0
C34 C 0.23621 0.20113 0.51448 0.0
N35 N 0.15772 0.17369 0.48714 0.0
C36 C 0.14286 0.15638 0.47714 0.0
C37 C 0.19339 0.15068 0.47535 0.0
C38 C 0.18242 0.17073 0.48743 0.0
C39 C 0.17832 0.13353 0.46377 0.0
C40 C 0.15293 0.13626 0.4649 0.0
H41 H 0.25593 0.19947 0.51536 0.0
H42 H 0.25298 0.16264 0.48836 0.0
H43 H 0.22768 0.13298 0.46613 0.0
O44 O 0.1214 0.17733 0.52856 0.0
O45 O 0.15072 0.20581 0.46954 0.0
O46 O 0.15912 0.24585 0.46563 0.0
O47 O 0.15592 0.18922 0.54335 0.0
O48 O 0.10365 0.20409 0.4966 0.0
O49 O 0.10827 0.22098 0.4585 0.0
O50 O 0.13305 0.29128 0.43837 0.0
O51 O 0.10046 0.26266 0.49755 0.0
O52 O 0.11782 0.2355 0.52638 0.0
O53 O 0.13062 0.25483 0.42297 0.0
O54 O 0.14879 0.27341 0.48888 0.0
O55 O 0.15377 0.24536 0.52147 0.0
C56 C 0.16363 0.22324 0.45953 0.0
C57 C 0.12896 0.16939 0.57101 0.0
C58 C 0.11203 0.13966 0.60024 0.0
C59 C 0.12058 0.15471 0.61939 0.0
C60 C 0.13635 0.1843 0.59051 0.0
C61 C 0.13217 0.17693 0.61452 0.0
C62 C 0.11632 0.14743 0.57592 0.0
C63 C 0.09485 0.20987 0.47508 0.0
C64 C 0.13742 0.17454 0.54591 0.0
C65 C 0.23333 0.16514 0.48804 0.0
C66 C 0.21892 0.14819 0.47544 0.0
C67 C 0.10243 0.25303 0.5197 0.0
C68 C 0.12639 0.28861 0.39572 0.0
C69 C 0.13211 0.31665 0.36125 0.0
C70 C 0.10995 0.30834 0.35129 0.0
C71 C 0.10437 0.28066 0.38536 0.0
C72 C 0.14034 0.30657 0.38353 0.0
C73 C 0.09625 0.29048 0.36328 0.0
C74 C 0.15674 0.26705 0.5108 0.0
C75 C 0.13539 0.27793 0.4188 0.0
H76 H 0.11896 0.14922 0.63832 0.0
H77 H 0.14616 0.20123 0.58726 0.0
H78 H 0.13857 0.18818 0.62948 0.0
H79 H 0.11042 0.13628 0.56068 0.0
H80 H 0.10341 0.31533 0.33393 0.0
H81 H 0.09356 0.26668 0.39413 0.0
H82 H 0.15744 0.31271 0.3914 0.0
H83 H 0.07934 0.28408 0.3553 0.0
Eu84 Eu 0.0492 0.89127 0.76684 0.0
C85 C 0.98057 0.81829 0.70808 0.0
N86 N 0.99967 0.83167 0.69962 0.0
C87 C 0.01403 0.79698 0.67672 0.0
C88 C 0.97805 0.79328 0.70202 0.0
C89 C 0.01544 0.82181 0.68297 0.0
C90 C 0.99549 0.78251 0.68664 0.0
C91 C 0.94136 0.81744 0.72876 0.0
C92 C 0.9623 0.83022 0.72093 0.0
C93 C 0.93944 0.79221 0.72401 0.0
C94 C 0.9577 0.78016 0.71057 0.0
Eu95 Eu 1.0011 0.87346 0.7115 0.0
N96 N 0.96446 0.85471 0.72468 0.0
C97 C 0.92269 0.8306 0.74045 0.0
C98 C 0.94554 0.86795 0.73435 0.0
C99 C 0.92466 0.85604 0.74298 0.0
H100 H 0.0289 0.83323 0.67417 0.0
H101 H 0.91008 0.86647 0.75144 0.0
H102 H 0.02555 0.93846 0.79804 0.0
H103 H 0.12732 0.88745 0.70403 0.0
H104 H 0.947 0.88758 0.73602 0.0
H105 H 0.90639 0.82142 0.74694 0.0
H106 H 0.09242 0.87063 0.72664 0.0
H107 H 0.02698 0.78913 0.66393 0.0
H108 H 0.92355 0.78201 0.73 0.0
H109 H 0.95556 0.76089 0.70628 0.0
H110 H 0.03495 0.98224 0.80536 0.0
H111 H 0.9942 0.76337 0.68149 0.0
H112 H 0.13904 0.93086 0.70947 0.0
N113 N 0.05573 0.93306 0.7742 0.0
C114 C 0.07587 0.94286 0.7634 0.0
C115 C 0.04653 0.97138 0.79348 0.0
C116 C 0.08183 0.96775 0.76702 0.0
C117 C 0.04117 0.94669 0.78921 0.0
C118 C 0.06693 0.98196 0.78234 0.0
N119 N 0.08325 0.90443 0.74376 0.0
C120 C 0.09671 0.88971 0.72873 0.0
C121 C 0.11002 0.93851 0.7353 0.0
C122 C 0.08983 0.92828 0.74763 0.0
C123 C 0.12344 0.92365 0.71931 0.0
C124 C 0.11681 0.89915 0.7161 0.0
H125 H 0.07094 1.00114 0.78558 0.0
H126 H 0.10696 0.99686 0.75752 0.0
H127 H 0.13159 0.97134 0.72979 0.0
O128 O 0.08245 0.87982 0.7862 0.0
O129 O 0.03974 0.91919 0.73748 0.0
O130 O 0.03646 0.89384 0.7049 0.0
O131 O 0.05089 0.89386 0.80672 0.0
O132 O 0.05488 0.85454 0.74849 0.0
O133 O 0.04038 0.85991 0.70937 0.0
O134 O 0.97579 0.89846 0.69232 0.0
O135 O 0.99167 0.8598 0.75009 0.0
O136 O 0.02815 0.85563 0.77112 0.0
O137 O 0.99761 0.87293 0.67189 0.0
O138 O 0.99445 0.90763 0.73454 0.0
O139 O 0.00932 0.90156 0.77404 0.0
C140 C 0.03983 0.91583 0.71379 0.0
C141 C 0.08663 0.88132 0.83064 0.0
C142 C 0.12288 0.8681 0.85346 0.0
C143 C 0.1108 0.87398 0.87533 0.0
C144 C 0.07508 0.88707 0.85284 0.0
C145 C 0.08707 0.88332 0.87499 0.0
C146 C 0.11067 0.87159 0.83101 0.0
C147 C 0.05173 0.84673 0.72602 0.0
C148 C 0.07307 0.88492 0.8075 0.0
C149 C 0.10211 0.97778 0.75494 0.0
C150 C 0.11612 0.96324 0.73912 0.0
C151 C 1.00475 0.85103 0.76836 0.0
C152 C 0.95896 0.88179 0.65594 0.0
C153 C 0.92968 0.89029 0.62332 0.0
C154 C 0.9205 0.86637 0.62591 0.0
C155 C 0.94942 0.858 0.65816 0.0
C156 C 0.9492 0.89791 0.63827 0.0
C157 C 0.93037 0.85035 0.64316 0.0
C158 C 0.99249 0.90975 0.75853 0.0
C159 C 0.98011 0.88901 0.67091 0.0
H160 H 0.1198 0.87131 0.89278 0.0
H161 H 0.05664 0.89437 0.85314 0.0
H162 H 0.07795 0.88772 0.892 0.0
H163 H 0.11991 0.86704 0.81407 0.0
H164 H 0.90581 0.85996 0.61431 0.0
H165 H 0.95698 0.84515 0.67118 0.0
H166 H 0.95665 0.9162 0.63622 0.0
H167 H 0.92333 0.83188 0.64483 0.0
Eu168 Eu 0.39316 0.74817 0.95725 0.0
C169 C 0.3147 0.79868 0.02808 0.0
N170 N 0.32838 0.80886 0.00998 0.0
C171 C 0.29429 0.83335 0.99711 0.0
C172 C 0.28978 0.80482 0.03069 0.0
C173 C 0.31893 0.82677 0.99532 0.0
C174 C 0.27955 0.8221 0.01467 0.0
C175 C 0.31203 0.77193 0.06358 0.0
C176 C 0.32581 0.78269 0.04462 0.0
C177 C 0.28706 0.77753 0.06579 0.0
C178 C 0.27599 0.79399 0.04946 0.0
Eu179 Eu 0.36965 0.79674 0.00885 0.0
N180 N 0.35004 0.77759 0.04212 0.0
C181 C 0.3238 0.75592 0.07984 0.0
C182 C 0.36174 0.76252 0.05826 0.0
C183 C 0.34878 0.75127 0.07721 0.0
H184 H 0.33054 0.83647 0.98267 0.0
H185 H 0.35807 0.73906 0.08979 0.0
H186 H 0.43984 0.71518 0.98271 0.0
H187 H 0.39093 0.79839 0.87152 0.0
H188 H 0.38095 0.75893 0.05644 0.0
H189 H 0.31382 0.7472 0.09458 0.0
H190 H 0.37375 0.77997 0.90924 0.0
H191 H 0.28677 0.84734 0.98519 0.0
H192 H 0.27619 0.76941 0.08024 0.0
H193 H 0.2568 0.79842 0.05166 0.0
H194 H 0.48414 0.71084 0.97765 0.0
H195 H 0.26049 0.82735 0.01613 0.0
H196 H 0.43544 0.79608 0.8637 0.0
N197 N 0.43589 0.74185 0.95437 0.0
C198 C 0.44689 0.75287 0.93492 0.0
C199 C 0.47397 0.72305 0.96576 0.0
C200 C 0.47215 0.74984 0.93061 0.0
C201 C 0.44881 0.72611 0.96899 0.0
C202 C 0.48576 0.73522 0.94669 0.0
N203 N 0.40837 0.76877 0.92286 0.0
C204 C 0.39323 0.77938 0.90602 0.0
C205 C 0.44321 0.77611 0.89711 0.0
C206 C 0.43265 0.76606 0.91839 0.0
C207 C 0.42801 0.78816 0.88028 0.0
C208 C 0.40288 0.78959 0.88466 0.0
H209 H 0.5052 0.73246 0.94399 0.0
H210 H 0.50228 0.75864 0.90646 0.0
H211 H 0.47693 0.78152 0.87708 0.0
O212 O 0.36695 0.73064 0.9324 0.0
O213 O 0.40257 0.78872 0.95444 0.0
O214 O 0.40821 0.79747 0.99443 0.0
O215 O 0.4025 0.71426 0.93825 0.0
O216 O 0.35498 0.76417 0.95586 0.0
O217 O 0.35937 0.80382 0.96914 0.0
O218 O 0.37897 0.81622 0.04246 0.0
O219 O 0.34861 0.76048 1.00442 0.0
O220 O 0.37652 0.73131 0.99075 0.0
O221 O 0.3734 0.83671 0.00893 0.0
O222 O 0.40343 0.77539 0.01922 0.0
O223 O 0.40709 0.73941 0.99629 0.0
C224 C 0.41405 0.80079 0.97158 0.0
C225 C 0.37204 0.68866 0.92077 0.0
C226 C 0.35479 0.66051 0.89041 0.0
C227 C 0.35774 0.64123 0.90738 0.0
C228 C 0.37443 0.66921 0.93738 0.0
C229 C 0.36729 0.64562 0.93065 0.0
C230 C 0.36202 0.68432 0.89743 0.0
C231 C 0.34864 0.78742 0.95517 0.0
C232 C 0.38195 0.71308 0.92636 0.0
C233 C 0.48289 0.76071 0.90996 0.0
C234 C 0.46845 0.77369 0.89319 0.0
C235 C 0.35682 0.73767 1.00302 0.0
C236 C 0.36938 0.85849 0.04644 0.0
C237 C 0.37696 0.8951 0.07102 0.0
C238 C 0.35165 0.89924 0.07228 0.0
C239 C 0.34417 0.86273 0.04827 0.0
C240 C 0.38578 0.87453 0.05818 0.0
C241 C 0.3354 0.88304 0.06114 0.0
C242 C 0.41205 0.75304 0.01582 0.0
C243 C 0.37903 0.83777 0.03212 0.0
H244 H 0.35319 0.62253 0.90258 0.0
H245 H 0.38228 0.67217 0.95531 0.0
H246 H 0.36955 0.63056 0.94338 0.0
H247 H 0.36017 0.6995 0.88472 0.0
H248 H 0.34446 0.91496 0.08209 0.0
H249 H 0.3313 0.85046 0.03972 0.0
H250 H 0.40531 0.8713 0.0569 0.0
H251 H 0.31591 0.88631 0.06239 0.0
Eu252 Eu 0.45996 0.11629 0.26447 0.0
C253 C 0.52987 0.19465 0.21661 0.0
N254 N 0.50964 0.1837 0.20727 0.0
C255 C 0.49551 0.22236 0.19163 0.0
C256 C 0.53315 0.22023 0.21464 0.0
C257 C 0.49311 0.19695 0.19401 0.0
C258 C 0.51547 0.23412 0.20227 0.0
C259 C 0.56889 0.1909 0.2374 0.0
C260 C 0.54757 0.18011 0.22784 0.0
C261 C 0.57189 0.21646 0.23607 0.0
C262 C 0.55409 0.23107 0.22469 0.0
Eu263 Eu 0.50702 0.14073 0.21255 0.0
N264 N 0.54408 0.1554 0.2291 0.0
C265 C 0.58681 0.17561 0.24759 0.0
C266 C 0.56227 0.14036 0.23725 0.0
C267 C 0.58365 0.1502 0.24715 0.0
H268 H 0.47854 0.18779 0.18455 0.0
H269 H 0.59783 0.13815 0.25407 0.0
H270 H 0.48356 0.06922 0.2955 0.0
H271 H 0.38254 0.11982 0.20085 0.0
H272 H 0.56071 0.12075 0.23561 0.0
H273 H 0.60345 0.18318 0.25513 0.0
H274 H 0.41542 0.137 0.22583 0.0
H275 H 0.48216 0.23279 0.1813 0.0
H276 H 0.5881 0.22506 0.24344 0.0
H277 H 0.55685 0.25072 0.22346 0.0
H278 H 0.47609 0.02474 0.30075 0.0
H279 H 0.51737 0.25381 0.20028 0.0
H280 H 0.37367 0.0754 0.20269 0.0
N281 N 0.45407 0.07418 0.27074 0.0
C282 C 0.4353 0.06377 0.25832 0.0
C283 C 0.46451 0.0355 0.28877 0.0
C284 C 0.43053 0.03847 0.2606 0.0
C285 C 0.46872 0.0606 0.28575 0.0
C286 C 0.44533 0.02438 0.27616 0.0
N287 N 0.42708 0.10255 0.23998 0.0
C288 C 0.41278 0.11753 0.22598 0.0
C289 C 0.40236 0.06773 0.22887 0.0
C290 C 0.42152 0.07828 0.24244 0.0
C291 C 0.38856 0.08281 0.21339 0.0
C292 C 0.39363 0.10786 0.21217 0.0
H293 H 0.44221 1.00488 0.27841 0.0
H294 H 0.40759 0.00854 0.24851 0.0
H295 H 0.38286 0.03414 0.22086 0.0
O296 O 0.42929 0.13487 0.28329 0.0
O297 O 0.47185 0.08998 0.23485 0.0
O298 O 0.47553 0.11566 0.20214 0.0
O299 O 0.45257 0.10864 0.30284 0.0
O300 O 0.45407 0.15407 0.24779 0.0
O301 O 0.46677 0.14913 0.20824 0.0
O302 O 0.53367 0.12142 0.18794 0.0
O303 O 0.50443 0.16356 0.24809 0.0
O304 O 0.49215 0.1369 0.27869 0.0
O305 O 0.51065 0.15152 0.17498 0.0
O306 O 0.51845 0.10597 0.23326 0.0
O307 O 0.49994 0.10699 0.27186 0.0
C308 C 0.47251 0.09358 0.21122 0.0
C309 C 0.42028 0.12762 0.32675 0.0
C310 C 0.38527 0.14392 0.34937 0.0
C311 C 0.39641 0.13661 0.37131 0.0
C312 C 0.4309 0.12032 0.349 0.0
C313 C 0.41902 0.12482 0.37109 0.0
C314 C 0.39721 0.1394 0.32697 0.0
C315 C 0.45442 0.16126 0.22489 0.0
C316 C 0.43415 0.12377 0.30386 0.0
C317 C 0.41151 0.02797 0.24702 0.0
C318 C 0.39747 0.04254 0.23122 0.0
C319 C 0.50343 0.15673 0.27124 0.0
C320 C 0.53778 0.13503 0.14456 0.0
C321 C 0.56562 0.11948 0.11313 0.0
C322 C 0.55635 0.137 0.09671 0.0
C323 C 0.52893 0.15234 0.12753 0.0
C324 C 0.55622 0.1183 0.13719 0.0
C325 C 0.53812 0.15324 0.10386 0.0
C326 C 0.51772 0.10037 0.25679 0.0
C327 C 0.52758 0.13569 0.16971 0.0
H328 H 0.38747 0.13995 0.38868 0.0
H329 H 0.44863 0.11142 0.34941 0.0
H330 H 0.42745 0.11924 0.38812 0.0
H331 H 0.38876 0.14521 0.30999 0.0
H332 H 0.56328 0.13805 0.07816 0.0
H333 H 0.51485 0.16546 0.13246 0.0
H334 H 0.56336 0.10486 0.14997 0.0
H335 H 0.53112 0.16667 0.09102 0.0
Eu336 Eu 0.6412 0.302 0.49947 0.0
C337 C 0.56569 0.22847 0.55124 0.0
N338 N 0.57821 0.24824 0.55965 0.0
C339 C 0.54263 0.26243 0.58104 0.0
C340 C 0.54066 0.22556 0.55663 0.0
C341 C 0.56742 0.2645 0.57529 0.0
C342 C 0.52909 0.24308 0.57139 0.0
C343 C 0.56563 0.18973 0.52925 0.0
C344 C 0.57809 0.21059 0.53787 0.0
C345 C 0.54053 0.18722 0.53394 0.0
C346 C 0.5281 0.20505 0.54762 0.0
Eu347 Eu 0.61979 0.24985 0.54846 0.0
N348 N 0.60237 0.21351 0.53342 0.0
C349 C 0.57885 0.17185 0.51641 0.0
C350 C 0.61552 0.19585 0.52161 0.0
C351 C 0.60395 0.1748 0.51282 0.0
H352 H 0.57793 0.27887 0.58379 0.0
H353 H 0.61438 0.16091 0.50322 0.0
H354 H 0.68814 0.27283 0.46956 0.0
H355 H 0.64159 0.38718 0.55079 0.0
H356 H 0.63491 0.19789 0.51905 0.0
H357 H 0.56992 0.15557 0.50949 0.0
H358 H 0.62306 0.35065 0.53122 0.0
H359 H 0.53407 0.27557 0.59317 0.0
H360 H 0.53063 0.17138 0.52735 0.0
H361 H 0.50883 0.20262 0.55145 0.0
H362 H 0.73271 0.27538 0.46759 0.0
H363 H 0.50991 0.24144 0.576 0.0
H364 H 0.68651 0.39239 0.55033 0.0
N365 N 0.68429 0.30188 0.49552 0.0
C366 C 0.69578 0.32086 0.5069 0.0
C367 C 0.72259 0.28802 0.47905 0.0
C368 C 0.72136 0.32358 0.50529 0.0
C369 C 0.69719 0.28626 0.48077 0.0
C370 C 0.73477 0.30656 0.4916 0.0
N371 N 0.65727 0.33535 0.52097 0.0
C372 C 0.64269 0.35284 0.53132 0.0
C373 C 0.69319 0.35881 0.53023 0.0
C374 C 0.68188 0.33833 0.51939 0.0
C375 C 0.67848 0.37638 0.54185 0.0
C376 C 0.65311 0.37348 0.54223 0.0
H377 H 0.75444 0.30806 0.48991 0.0
H378 H 0.75237 0.34584 0.51573 0.0
H379 H 0.72772 0.37668 0.53745 0.0
O380 O 0.61833 0.33005 0.48179 0.0
O381 O 0.65076 0.30374 0.53991 0.0
O382 O 0.65833 0.26366 0.54636 0.0
O383 O 0.65297 0.31961 0.46577 0.0
O384 O 0.60282 0.30437 0.51451 0.0
O385 O 0.60847 0.28977 0.55355 0.0
O386 O 0.63078 0.21843 0.57093 0.0
O387 O 0.59775 0.25059 0.51262 0.0
O388 O 0.62012 0.27121 0.48235 0.0
O389 O 0.6245 0.25379 0.58792 0.0
O390 O 0.65275 0.2403 0.52535 0.0
O391 O 0.65158 0.26255 0.48888 0.0
C392 C 0.66364 0.2865 0.55047 0.0
C393 C 0.62369 0.33765 0.43929 0.0
C394 C 0.60631 0.36668 0.40978 0.0
C395 C 0.6101 0.34911 0.39125 0.0
C396 C 0.6268 0.32031 0.42063 0.0
C397 C 0.61999 0.32608 0.39673 0.0
C398 C 0.61306 0.36054 0.4339 0.0
C399 C 0.5958 0.30229 0.53731 0.0
C400 C 0.63363 0.33345 0.4639 0.0
C401 C 0.73273 0.34356 0.51674 0.0
C402 C 0.71869 0.36117 0.52906 0.0
C403 C 0.6019 0.25731 0.48971 0.0
C404 C 0.62137 0.21827 0.61321 0.0
C405 C 0.62839 0.19028 0.64755 0.0
C406 C 0.60427 0.19457 0.65537 0.0
C407 C 0.59739 0.2222 0.62137 0.0
C408 C 0.63693 0.20239 0.62645 0.0
C409 C 0.58897 0.21047 0.64241 0.0
C410 C 0.65779 0.24299 0.50194 0.0
C411 C 0.63067 0.23083 0.59126 0.0
H412 H 0.60596 0.35326 0.37234 0.0
H413 H 0.63503 0.30259 0.4244 0.0
H414 H 0.62287 0.31283 0.38228 0.0
H415 H 0.61047 0.37366 0.44856 0.0
H416 H 0.59735 0.18586 0.67177 0.0
H417 H 0.58522 0.23442 0.61163 0.0
H418 H 0.65552 0.19933 0.62025 0.0
H419 H 0.5705 0.21374 0.64874 0.0
Eu420 Eu 0.01206 0.36583 0.80071 0.0
C421 C 0.96372 0.44366 0.73115 0.0
N422 N 0.95328 0.43051 0.74959 0.0
C423 C 0.93235 0.46653 0.76373 0.0
C424 C 0.95953 0.46914 0.72901 0.0
C425 C 0.93655 0.44123 0.76476 0.0
C426 C 0.94422 0.48062 0.74605 0.0
C427 C 0.98631 0.44421 0.6928 0.0
C428 C 0.977 0.43135 0.71314 0.0
C429 C 0.98311 0.46973 0.6913 0.0
C430 C 0.96981 0.48216 0.70937 0.0
Eu431 Eu 0.96219 0.38805 0.74938 0.0
N432 N 0.97997 0.40663 0.71496 0.0
C433 C 0.99806 0.43091 0.67425 0.0
C434 C 0.98972 0.39336 0.69615 0.0
C435 C 0.99945 0.40534 0.67578 0.0
H436 H 0.92623 0.43032 0.77761 0.0
H437 H 0.00778 0.39486 0.66117 0.0
H438 H 0.04275 0.31887 0.77534 0.0
H439 H 0.94571 0.36732 0.87573 0.0
H440 H 0.99018 0.37357 0.69711 0.0
H441 H 1.00545 0.44015 0.65835 0.0
H442 H 0.97012 0.38533 0.84253 0.0
H443 H 0.91962 0.47506 0.7763 0.0
H444 H 0.99032 0.47995 0.67591 0.0
H445 H 0.9669 0.50176 0.70756 0.0
H446 H 0.0488 0.27463 0.78303 0.0
H447 H 0.9406 0.50016 0.74504 0.0
H448 H 0.94988 0.32321 0.88563 0.0
N449 N 0.01715 0.32334 0.80428 0.0
C450 C 1.00545 0.31287 0.82359 0.0
C451 C 0.03642 0.28512 0.79442 0.0
C452 C 0.00854 0.28767 0.82869 0.0
C453 C 0.03272 0.31011 0.78993 0.0
C454 C 0.02428 0.27384 0.81386 0.0
N455 N 0.98673 0.35153 0.83246 0.0
C456 C 0.97153 0.36597 0.84601 0.0
C457 C 0.97649 0.31632 0.85714 0.0
C458 C 0.98966 0.32721 0.83783 0.0
C459 C 0.96038 0.33093 0.87071 0.0
C460 C 0.95791 0.35584 0.86512 0.0
H461 H 0.0272 0.25446 0.81728 0.0
H462 H 0.99795 0.2577 0.85243 0.0
H463 H 0.96982 0.28265 0.87717 0.0
O464 O 0.02975 0.3726 0.83601 0.0
O465 O 0.98092 0.34142 0.788 0.0
O466 O 0.94848 0.36747 0.78267 0.0
O467 O 0.05125 0.36005 0.80525 0.0
O468 O 0.9944 0.403 0.80692 0.0
O469 O 0.95634 0.39961 0.78892 0.0
O470 O 0.93984 0.36021 0.73054 0.0
O471 O 1.00199 0.39906 0.74385 0.0
O472 O 0.0194 0.40222 0.78215 0.0
O473 O 0.93072 0.39851 0.72763 0.0
O474 O 0.9843 0.35329 0.74265 0.0
O475 O 0.02242 0.35702 0.76132 0.0
C476 C 0.95726 0.34568 0.78819 0.0
C477 C 0.07207 0.38288 0.83618 0.0
C478 C 0.09575 0.40173 0.86916 0.0
C479 C 0.11265 0.41015 0.85182 0.0
C480 C 0.08937 0.39151 0.81925 0.0
C481 C 0.1095 0.40499 0.82707 0.0
C482 C 0.07547 0.38793 0.86132 0.0
C483 C 0.9723 0.41145 0.80243 0.0
C484 C 0.05155 0.36719 0.82803 0.0
C485 C 0.99574 0.27702 0.84821 0.0
C486 C 0.97971 0.29125 0.86231 0.0
C487 C 0.01886 0.40742 0.75872 0.0
C488 C 0.89837 0.37128 0.72204 0.0
C489 C 0.86156 0.3589 0.70033 0.0
C490 C 0.84731 0.36821 0.71955 0.0
C491 C 0.88384 0.38024 0.74126 0.0
C492 C 0.88715 0.36046 0.70158 0.0
C493 C 0.85842 0.37874 0.73992 0.0
C494 C 0.00814 0.34955 0.74329 0.0
C495 C 0.92472 0.37637 0.72155 0.0
H496 H 0.12848 0.42058 0.85751 0.0
H497 H 0.08761 0.38759 0.79995 0.0
H498 H 0.12279 0.41138 0.81388 0.0
H499 H 0.0625 0.38114 0.87468 0.0
H500 H 0.82755 0.36738 0.71871 0.0
H501 H 0.89213 0.38905 0.75692 0.0
H502 H 0.89821 0.35388 0.68647 0.0
H503 H 0.84728 0.38607 0.75457 0.0
Eu504 Eu 0.86521 0.70579 0.99909 0.0
C505 C 0.94034 0.78037 0.04806 0.0
N506 N 0.92781 0.76149 0.05828 0.0
C507 C 0.96326 0.74932 0.08101 0.0
C508 C 0.96535 0.78378 0.05321 0.0
C509 C 0.93849 0.74676 0.07538 0.0
C510 C 0.97686 0.7677 0.0696 0.0
C511 C 0.94052 0.81662 0.02217 0.0
C512 C 0.92798 0.7968 0.03293 0.0
C513 C 0.96559 0.81964 0.02672 0.0
C514 C 0.97795 0.80331 0.04224 0.0
Eu515 Eu 0.88648 0.75818 0.04698 0.0
N516 N 0.9037 0.79339 0.02875 0.0
C517 C 0.92745 0.83292 0.00726 0.0
C518 C 0.89073 0.80965 0.01489 0.0
C519 C 0.90242 0.82952 1.00377 0.0
H520 H 0.92774 0.73346 0.08521 0.0
H521 H 0.89211 0.84224 0.99255 0.0
H522 H 0.81768 0.73185 0.96762 0.0
H523 H 0.86705 0.62229 0.05362 0.0
H524 H 0.87141 0.80745 0.01238 0.0
H525 H 0.93645 0.84835 0.99861 0.0
H526 H 0.88464 0.65821 0.03202 0.0
H527 H 0.97174 0.73734 0.09436 0.0
H528 H 0.97553 0.83472 0.01853 0.0
H529 H 0.9972 0.80612 0.04586 0.0
H530 H 0.77312 0.72821 0.96595 0.0
H531 H 0.99603 0.76973 0.07407 0.0
H532 H 0.82225 0.61619 0.054 0.0
N533 N 0.82217 0.70405 0.99486 0.0
C534 C 0.81116 0.68534 0.00715 0.0
C535 C 0.78355 0.71628 0.9779 0.0
C536 C 0.78567 0.68187 1.00568 0.0
C537 C 0.80891 0.71868 0.97942 0.0
C538 C 0.77183 0.698 0.99132 0.0
N539 N 0.85002 0.67246 0.02159 0.0
C540 C 0.86507 0.65564 0.03246 0.0
C541 C 0.81471 0.6486 0.03226 0.0
C542 C 0.82549 0.66883 0.02038 0.0
C543 C 0.82987 0.63194 0.04464 0.0
C544 C 0.85518 0.63535 0.04453 0.0
H545 H 0.7522 0.69598 0.98981 0.0
H546 H 0.7553 0.65906 0.01687 0.0
H547 H 0.78066 0.63014 0.04037 0.0
O548 O 0.89022 0.67997 0.98091 0.0
O549 O 0.85646 0.70434 0.03973 0.0
O550 O 0.8478 0.74404 0.04711 0.0
O551 O 0.85409 0.6862 0.96628 0.0
O552 O 0.9036 0.70383 0.01433 0.0
O553 O 0.89884 0.7187 0.05338 0.0
O554 O 0.87693 0.79057 0.0686 0.0
O555 O 0.90914 0.7539 0.01174 0.0
O556 O 0.88288 0.73896 0.98186 0.0
O557 O 0.88184 0.75526 0.0865 0.0
O558 O 0.8528 0.76764 0.02493 0.0
O559 O 0.85236 0.74477 0.98888 0.0
C560 C 0.84255 0.72094 0.04993 0.0
C561 C 0.88373 0.67011 0.93901 0.0
C562 C 0.90037 0.64145 0.90872 0.0
C563 C 0.89668 0.6595 0.89059 0.0
C564 C 0.88059 0.68785 0.9207 0.0
C565 C 0.88705 0.6825 0.89661 0.0
C566 C 0.89386 0.64709 0.93304 0.0
C567 C 0.91091 0.70556 0.03713 0.0
C568 C 0.87459 0.67426 0.96396 0.0
C569 C 0.77484 0.66203 0.01793 0.0
C570 C 0.7893 0.64549 0.03123 0.0
C571 C 0.90212 0.7516 0.98877 0.0
C572 C 0.88466 0.79106 0.11131 0.0
C573 C 0.87596 0.81901 0.14506 0.0
C574 C 0.89958 0.81466 0.1542 0.0
C575 C 0.90811 0.78692 0.12077 0.0
C576 C 0.86849 0.80699 0.12363 0.0
C577 C 0.91548 0.79865 0.14216 0.0
C578 C 0.8457 0.764 1.0022 0.0
C579 C 0.87623 0.77845 0.08916 0.0
H580 H 0.90073 0.65573 0.87159 0.0
H581 H 0.87267 0.7056 0.92493 0.0
H582 H 0.8842 0.6961 0.88244 0.0
H583 H 0.89634 0.63353 0.94735 0.0
H584 H 0.90561 0.82342 0.1709 0.0
H585 H 0.92067 0.77455 0.11182 0.0
H586 H 0.85024 0.8101 0.11651 0.0
H587 H 0.93354 0.79526 0.1495 0.0
Eu588 Eu 0.49948 0.64233 0.30129 0.0
C589 C 0.54079 0.56022 0.23136 0.0
N590 N 0.55181 0.57209 0.2502 0.0
C591 C 0.56949 0.53425 0.26418 0.0
C592 C 0.54298 0.53453 0.22886 0.0
C593 C 0.56678 0.55969 0.26594 0.0
C594 C 0.55732 0.52157 0.24572 0.0
C595 C 0.5157 0.56185 0.19474 0.0
C596 C 0.5276 0.5738 0.21421 0.0
C597 C 0.51746 0.53623 0.19254 0.0
C598 C 0.53116 0.52264 0.20947 0.0
Eu599 Eu 0.54722 0.61512 0.25053 0.0
N600 N 0.52619 0.59864 0.21671 0.0
C601 C 0.50242 0.57601 0.17797 0.0
C602 C 0.51401 0.61257 0.19994 0.0
C603 C 0.50168 0.60149 0.18053 0.0
H604 H 0.57702 0.56939 0.27972 0.0
H605 H 0.49179 0.61263 0.16743 0.0
H606 H 0.46707 0.68829 0.27419 0.0
H607 H 0.54886 0.64262 0.38731 0.0
H608 H 0.51393 0.63217 0.20131 0.0
H609 H 0.49293 0.56749 0.16284 0.0
H610 H 0.53026 0.6242 0.35036 0.0
H611 H 0.58112 0.52449 0.27693 0.0
H612 H 0.50847 0.52676 0.17767 0.0
H613 H 0.53261 0.50292 0.20731 0.0
H614 H 0.46269 0.73301 0.27783 0.0
H615 H 0.55953 0.50185 0.24434 0.0
H616 H 0.54752 0.68766 0.39313 0.0
N617 N 0.49353 0.68531 0.30267 0.0
C618 C 0.50473 0.69698 0.32155 0.0
C619 C 0.47487 0.72316 0.29 0.0
C620 C 0.50178 0.72248 0.32498 0.0
C621 C 0.47788 0.6978 0.28764 0.0
C622 C 0.48709 0.73562 0.30857 0.0
N623 N 0.52012 0.65859 0.33509 0.0
C624 C 0.53017 0.64389 0.35267 0.0
C625 C 0.52799 0.69447 0.35933 0.0
C626 C 0.51789 0.68319 0.3385 0.0
C627 C 0.53962 0.67968 0.37683 0.0
C628 C 0.54048 0.65425 0.3736 0.0
H629 H 0.48437 0.75522 0.31061 0.0
H630 H 0.51074 0.75351 0.34799 0.0
H631 H 0.53354 0.72896 0.37812 0.0
O632 O 0.48058 0.61642 0.32572 0.0
O633 O 0.54015 0.65068 0.30404 0.0
O634 O 0.55329 0.65385 0.26452 0.0
O635 O 0.46631 0.65306 0.32066 0.0
O636 O 0.51471 0.60385 0.30393 0.0
O637 O 0.55428 0.60747 0.2907 0.0
O638 O 0.56969 0.62385 0.21812 0.0
O639 O 0.51001 0.59608 0.25635 0.0
O640 O 0.48216 0.62618 0.26764 0.0
O641 O 0.58591 0.60622 0.24947 0.0
O642 O 0.52947 0.65127 0.24023 0.0
O643 O 0.4928 0.6555 0.26185 0.0
C644 C 0.55302 0.66181 0.28713 0.0
C645 C 0.4389 0.62362 0.33709 0.0
C646 C 0.40883 0.60795 0.36658 0.0
C647 C 0.39043 0.61215 0.34901 0.0
C648 C 0.42024 0.62717 0.31991 0.0
C649 C 0.39615 0.62147 0.32591 0.0
C650 C 0.43319 0.61384 0.36033 0.0
C651 C 0.53783 0.59777 0.3053 0.0
C652 C 0.46391 0.63226 0.3321 0.0
C653 C 0.51276 0.73393 0.34514 0.0
C654 C 0.52573 0.71995 0.36233 0.0
C655 C 0.48767 0.60544 0.25661 0.0
C656 C 0.61157 0.63281 0.22705 0.0
C657 C 0.64421 0.65314 0.20394 0.0
C658 C 0.65438 0.6611 0.22613 0.0
C659 C 0.62202 0.64161 0.24884 0.0
C660 C 0.62287 0.63858 0.20445 0.0
C661 C 0.64336 0.65538 0.24832 0.0
C662 C 0.50732 0.66053 0.24304 0.0
C663 C 0.58995 0.61646 0.22834 0.0
H664 H 0.37142 0.60871 0.35322 0.0
H665 H 0.42422 0.63487 0.30208 0.0
H666 H 0.38174 0.62468 0.31273 0.0
H667 H 0.44771 0.61111 0.37353 0.0
H668 H 0.6711 0.67169 0.22631 0.0
H669 H 0.61393 0.63754 0.26645 0.0
H670 H 0.6151 0.63191 0.18751 0.0
H671 H 0.65146 0.66162 0.26525 0.0
Eu672 Eu 0.2596 0.45864 0.11673 0.0
C673 C 0.21575 0.53494 0.19257 0.0
N674 N 0.20573 0.5147 0.18223 0.0
C675 C 0.18842 0.50294 0.2207 0.0
C676 C 0.21352 0.53925 0.21788 0.0
C677 C 0.19112 0.49953 0.19553 0.0
C678 C 0.20002 0.52267 0.23203 0.0
C679 C 0.23767 0.57327 0.18778 0.0
C680 C 0.22747 0.55187 0.17761 0.0
C681 C 0.23632 0.57714 0.21313 0.0
C682 C 0.22421 0.56022 0.22813 0.0
Eu683 Eu 0.21118 0.51034 0.13983 0.0
N684 N 0.22833 0.54773 0.15308 0.0
C685 C 0.24848 0.5904 0.17209 0.0
C686 C 0.23771 0.56492 0.13764 0.0
C687 C 0.24821 0.58634 0.14688 0.0
H688 H 0.18103 0.48515 0.18665 0.0
H689 H 0.25595 0.59979 0.13454 0.0
H690 H 0.29074 0.48692 0.07049 0.0
H691 H 0.20963 0.37284 0.11597 0.0
H692 H 0.23671 0.56244 0.11821 0.0
H693 H 0.25655 0.60705 0.17919 0.0
H694 H 0.22816 0.40989 0.13452 0.0
H695 H 0.17709 0.4906 0.23125 0.0
H696 H 0.24415 0.59343 0.22127 0.0
H697 H 0.22282 0.56375 0.24757 0.0
H698 H 0.29392 0.48395 0.02591 0.0
H699 H 0.19777 0.52539 0.25152 0.0
H700 H 0.21101 0.36711 0.0711 0.0
N701 N 0.26475 0.45797 0.07377 0.0
C702 C 0.25361 0.43899 0.06211 0.0
C703 C 0.28221 0.47143 0.03581 0.0
C704 C 0.25592 0.43596 0.03659 0.0
C705 C 0.27985 0.47341 0.06117 0.0
C706 C 0.26996 0.45282 0.02342 0.0
N707 N 0.23872 0.42502 0.10034 0.0
C708 C 0.22844 0.4075 0.11489 0.0
C709 C 0.23062 0.40094 0.06449 0.0
C710 C 0.24086 0.42172 0.07583 0.0
C711 C 0.21904 0.38335 0.07913 0.0
C712 C 0.21814 0.38654 0.10447 0.0
H713 H 0.27216 0.45112 1.00381 0.0
H714 H 0.24639 0.4133 1.00553 0.0
H715 H 0.2244 0.38258 0.02997 0.0
O716 O 0.27659 0.43117 0.14072 0.0
O717 O 0.21891 0.4566 0.10767 0.0
O718 O 0.20947 0.4966 0.10095 0.0
O719 O 0.2939 0.44077 0.10651 0.0
O720 O 0.24509 0.456 0.15521 0.0
O721 O 0.20588 0.47047 0.15105 0.0
O722 O 0.1851 0.54105 0.13337 0.0
O723 O 0.24669 0.50588 0.16203 0.0
O724 O 0.2767 0.49111 0.13556 0.0
O725 O 0.17227 0.50369 0.14103 0.0
O726 O 0.23129 0.51923 0.10469 0.0
O727 O 0.26851 0.49823 0.10542 0.0
C728 C 0.20709 0.47347 0.09523 0.0
C729 C 0.3188 0.42143 0.1366 0.0
C730 C 0.34774 0.39071 0.1517 0.0
C731 C 0.36591 0.40881 0.15247 0.0
C732 C 0.33705 0.43936 0.13788 0.0
C733 C 0.3605 0.43302 0.14585 0.0
C734 C 0.32409 0.39718 0.14395 0.0
C735 C 0.22234 0.45716 0.16257 0.0
C736 C 0.29473 0.42693 0.12593 0.0
C737 C 0.24487 0.41582 0.02512 0.0
C738 C 0.23239 0.39828 0.03903 0.0
C739 C 0.26975 0.5029 0.15537 0.0
C740 C 0.1405 0.53421 0.13546 0.0
C741 C 0.10761 0.56243 0.1236 0.0
C742 C 0.09081 0.54713 0.13558 0.0
C743 C 0.12315 0.51936 0.14724 0.0
C744 C 0.13264 0.55586 0.12339 0.0
C745 C 0.09853 0.52579 0.14724 0.0
C746 C 0.2545 0.51691 0.09856 0.0
C747 C 0.16646 0.52647 0.13633 0.0
H748 H 0.3843 0.40418 0.15825 0.0
H749 H 0.33329 0.45809 0.13231 0.0
H750 H 0.37463 0.44684 0.14656 0.0
H751 H 0.31009 0.38319 0.1428 0.0
H752 H 0.0715 0.55168 0.13578 0.0
H753 H 0.12861 0.50273 0.15668 0.0
H754 H 0.14575 0.5675 0.11415 0.0
H755 H 0.08536 0.51418 0.15637 0.0
Eu756 Eu 0.75928 0.05317 0.89402 0.0
C757 C 0.71295 0.97771 0.81808 0.0
N758 N 0.70269 0.99686 0.83023 0.0
C759 C 0.68315 0.01052 0.79344 0.0
C760 C 0.70974 0.975 0.79266 0.0
C761 C 0.68684 0.01233 0.81866 0.0
C762 C 0.69505 0.99205 0.78028 0.0
C763 C 0.73586 0.93952 0.81943 0.0
C764 C 0.72572 0.96011 0.83133 0.0
C765 C 0.73374 0.93738 0.79392 0.0
C766 C 0.72068 0.95506 0.78058 0.0
Eu767 Eu 0.7122 0.99986 0.87217 0.0
N768 N 0.72751 0.96271 0.85598 0.0
C769 C 0.74735 0.92144 0.83359 0.0
C770 C 0.73733 0.94448 0.86999 0.0
C771 C 0.74771 0.92374 0.85902 0.0
H772 H 0.67675 0.02588 0.8289 0.0
H773 H 0.75587 0.90949 0.87019 0.0
H774 H 0.78982 0.02631 0.94192 0.0
H775 H 0.70461 0.13651 0.89205 0.0
H776 H 0.73699 0.94572 0.88965 0.0
H777 H 0.75536 0.90533 0.82514 0.0
H778 H 0.72589 0.10029 0.87453 0.0
H779 H 0.67097 0.0232 0.78423 0.0
H780 H 0.74164 0.92182 0.78443 0.0
H781 H 0.71867 0.95284 0.761 0.0
H782 H 0.79102 0.0299 0.98646 0.0
H783 H 0.69209 0.9906 0.76075 0.0
H784 H 0.70432 0.14285 0.93685 0.0
N785 N 0.76288 0.05445 0.93715 0.0
C786 C 0.75057 0.07323 0.94812 0.0
C787 C 0.77928 0.04196 0.97594 0.0
C788 C 0.75174 0.07661 0.97367 0.0
C789 C 0.77802 0.0396 0.95055 0.0
C790 C 0.76587 0.06034 0.9876 0.0
N791 N 0.73633 0.08617 0.90919 0.0
C792 C 0.72544 0.10292 0.89411 0.0
C793 C 0.7257 0.11019 0.94448 0.0
C794 C 0.7375 0.08985 0.93374 0.0
C795 C 0.71353 0.12696 0.92927 0.0
C796 C 0.71358 0.12341 0.90396 0.0
H797 H 0.76718 0.06232 0.00726 0.0
H798 H 0.74008 0.09925 1.00408 0.0
H799 H 0.7174 0.12867 0.97854 0.0
O800 O 0.77664 0.08053 0.87021 0.0
O801 O 0.71879 0.05358 0.90321 0.0
O802 O 0.71436 0.01336 0.9109 0.0
O803 O 0.79231 0.07207 0.90549 0.0
O804 O 0.74467 0.0549 0.85554 0.0
O805 O 0.70588 0.03958 0.86022 0.0
O806 O 0.68839 0.96911 0.88174 0.0
O807 O 0.74715 1.00425 0.84918 0.0
O808 O 0.77667 0.02114 0.87475 0.0
O809 O 0.6731 0.00569 0.87785 0.0
O810 O 0.73679 0.98827 0.9036 0.0
O811 O 0.77079 0.01433 0.90588 0.0
C812 C 0.70918 0.03602 0.91626 0.0
C813 C 0.81872 0.08996 0.87605 0.0
C814 C 0.8476 0.11959 0.85875 0.0
C815 C 0.86658 0.10252 0.86299 0.0
C816 C 0.83786 0.07318 0.87964 0.0
C817 C 0.86166 0.07949 0.87308 0.0
C818 C 0.82357 0.11289 0.86524 0.0
C819 C 0.72195 0.05295 0.84824 0.0
C820 C 0.79407 0.08516 0.88566 0.0
C821 C 0.73939 0.09646 0.98448 0.0
C822 C 0.72651 0.11325 0.96993 0.0
C823 C 0.77008 0.00749 0.85602 0.0
C824 C 0.64572 0.97192 0.87443 0.0
C825 C 0.61112 0.94471 0.88188 0.0
C826 C 0.60114 0.95187 0.8593 0.0
C827 C 0.6354 0.97888 0.852 0.0
C828 C 0.6334 0.95496 0.88948 0.0
C829 C 0.61316 0.96892 0.84455 0.0
C830 C 0.75912 0.99363 0.91093 0.0
C831 C 0.66879 0.98268 0.88299 0.0
H832 H 0.88542 0.10707 0.85907 0.0
H833 H 0.83452 0.05548 0.88803 0.0
H834 H 0.87647 0.06666 0.87632 0.0
H835 H 0.80855 0.12558 0.86231 0.0
H836 H 0.58383 0.94448 0.85323 0.0
H837 H 0.64437 0.99212 0.84033 0.0
H838 H 0.64117 0.94965 0.90695 0.0
H839 H 0.60517 0.97448 0.82731 0.0
Eu840 Eu 0.74445 0.95772 0.39268 0.0
C841 C 0.79925 0.03305 0.31967 0.0
N842 N 0.80947 0.01404 0.33207 0.0
C843 C 0.83332 1.00349 0.2968 0.0
C844 C 0.80455 0.03713 0.29476 0.0
C845 C 0.8277 1.00056 0.32157 0.0
C846 C 0.8212 0.02146 0.28313 0.0
C847 C 0.77641 0.07121 0.32109 0.0
C848 C 0.78564 0.04997 0.33262 0.0
C849 C 0.7801 0.07447 0.29588 0.0
C850 C 0.79418 0.05745 0.28273 0.0
Eu851 Eu 0.79735 0.00891 0.37342 0.0
N852 N 0.78267 0.04632 0.35696 0.0
C853 C 0.7645 0.08886 0.33542 0.0
C854 C 0.77241 0.06407 0.37127 0.0
C855 C 0.76285 0.08545 0.36071 0.0
H856 H 0.83823 0.9879 0.3325 0.0
H857 H 0.75424 0.09926 0.37206 0.0
H858 H 0.71521 0.9828 0.43989 0.0
H859 H 0.80861 0.87982 0.38956 0.0
H860 H 0.77148 0.06163 0.39082 0.0
H861 H 0.75715 0.10545 0.32727 0.0
H862 H 0.78351 0.91264 0.37206 0.0
H863 H 0.84732 0.99222 0.2884 0.0
H864 H 0.77289 0.09051 0.28658 0.0
H865 H 0.79774 0.0607 0.26351 0.0
H866 H 0.71135 0.97627 0.48449 0.0
H867 H 0.82583 0.02397 0.26404 0.0
H868 H 0.80747 0.87152 0.43396 0.0
N869 N 0.74031 0.95337 0.4351 0.0
C870 C 0.7524 0.93412 0.44545 0.0
C871 C 0.72306 0.96441 0.47374 0.0
C872 C 0.75088 0.92987 0.47082 0.0
C873 C 0.72538 0.96816 0.44857 0.0
C874 C 0.73594 0.94526 0.48494 0.0
N875 N 0.76917 0.92453 0.40633 0.0
C876 C 0.78323 0.91009 0.39152 0.0
C877 C 0.78136 0.90049 0.44145 0.0
C878 C 0.76751 0.91959 0.43078 0.0
C879 C 0.79651 0.88632 0.42643 0.0
C880 C 0.7973 0.89103 0.40137 0.0
H881 H 0.73427 0.94254 0.50449 0.0
H882 H 0.76369 0.90727 0.50083 0.0
H883 H 0.79037 0.88161 0.47519 0.0
O884 O 0.72446 0.92345 0.38722 0.0
O885 O 0.77249 0.9708 0.4199 0.0
O886 O 0.80409 0.97337 0.39368 0.0
O887 O 0.70455 0.95689 0.39476 0.0
O888 O 0.76487 0.94954 0.35741 0.0
O889 O 0.8014 0.97182 0.35444 0.0
O890 O 0.81552 0.03601 0.39712 0.0
O891 O 0.75874 0.01516 0.35887 0.0
O892 O 0.74329 0.97611 0.35542 0.0
O893 O 0.83702 0.01096 0.37592 0.0
O894 O 0.77293 0.01515 0.40684 0.0
O895 O 0.73462 0.99762 0.40024 0.0
C896 C 0.79599 0.97097 0.41598 0.0
C897 C 0.6833 0.92513 0.37312 0.0
C898 C 0.66013 0.89153 0.35454 0.0
C899 C 0.64333 0.90871 0.34536 0.0
C900 C 0.66617 0.94192 0.36365 0.0
C901 C 0.64637 0.93371 0.34987 0.0
C902 C 0.68013 0.89977 0.36849 0.0
C903 C 0.78632 0.95431 0.34728 0.0
C904 C 0.70303 0.93354 0.38968 0.0
C905 C 0.76457 0.91078 0.48134 0.0
C906 C 0.7798 0.89618 0.46673 0.0
C907 C 0.74201 0.99977 0.35096 0.0
C908 C 0.85372 0.05004 0.38189 0.0
C909 C 0.88598 0.0799 0.39002 0.0
C910 C 0.88648 0.08571 0.36497 0.0
C911 C 0.85443 0.05654 0.35704 0.0
C912 C 0.86969 0.0617 0.39843 0.0
C913 C 0.87083 0.0741 0.34866 0.0
C914 C 0.74879 0.01556 0.40815 0.0
C915 C 0.83742 0.03008 0.38999 0.0
H916 H 0.62768 0.90271 0.33486 0.0
H917 H 0.66779 0.9614 0.36718 0.0
H918 H 0.63317 0.94679 0.34286 0.0
H919 H 0.69286 0.8865 0.37604 0.0
H920 H 0.89923 0.09914 0.35792 0.0
H921 H 0.84261 0.04776 0.34397 0.0
H922 H 0.86938 0.05672 0.41762 0.0
H923 H 0.87149 0.07865 0.3294 0.0
Eu924 Eu 0.29868 0.49751 0.64206 0.0
C925 C 0.23124 0.55024 0.56149 0.0
N926 N 0.25027 0.55916 0.57476 0.0
C927 C 0.26513 0.58099 0.53976 0.0
C928 C 0.22867 0.55626 0.53654 0.0
C929 C 0.26668 0.57494 0.56455 0.0
C930 C 0.24612 0.57151 0.52566 0.0
C931 C 0.19365 0.52662 0.55976 0.0
C932 C 0.21394 0.53541 0.57296 0.0
C933 C 0.19116 0.53252 0.5349 0.0
C934 C 0.20866 0.5472 0.52331 0.0
Eu935 Eu 0.25045 0.54815 0.61641 0.0
N936 N 0.21717 0.52923 0.59688 0.0
C937 C 0.17655 0.51193 0.57191 0.0
C938 C 0.20026 0.51548 0.60895 0.0
C939 C 0.17985 0.5064 0.59663 0.0
H940 H 0.28065 0.58333 0.57563 0.0
H941 H 0.1666 0.49528 0.60625 0.0
H942 H 0.27498 0.46763 0.68981 0.0
H943 H 0.37653 0.56027 0.63712 0.0
H944 H 0.20227 0.51169 0.62806 0.0
H945 H 0.16074 0.5048 0.5624 0.0
H946 H 0.34276 0.53585 0.62071 0.0
H947 H 0.27837 0.59326 0.53164 0.0
H948 H 0.17577 0.5258 0.52446 0.0
H949 H 0.20642 0.55163 0.50412 0.0
H950 H 0.28284 0.46298 0.73407 0.0
H951 H 0.24481 0.57647 0.50651 0.0
H952 H 0.38648 0.55822 0.68116 0.0
N953 N 0.30452 0.49219 0.68423 0.0
C954 C 0.32359 0.50444 0.69426 0.0
C955 C 0.29439 0.47472 0.7231 0.0
C956 C 0.32884 0.50217 0.71939 0.0
C957 C 0.2899 0.4775 0.6981 0.0
C958 C 0.31396 0.48709 0.7338 0.0
N959 N 0.33171 0.52199 0.6553 0.0
C960 C 0.3459 0.5357 0.64006 0.0
C961 C 0.35735 0.53277 0.68948 0.0
C962 C 0.33754 0.51975 0.67943 0.0
C963 C 0.37116 0.54787 0.67412 0.0
C964 C 0.36551 0.54919 0.64927 0.0
H965 H 0.31742 0.48489 0.75319 0.0
H966 H 0.353 0.51345 0.7486 0.0
H967 H 0.37812 0.53999 0.72239 0.0
O968 O 0.32837 0.47752 0.62263 0.0
O969 O 0.2873 0.529 0.66643 0.0
O970 O 0.28195 0.56152 0.64022 0.0
O971 O 0.30697 0.45964 0.65126 0.0
O972 O 0.30435 0.51415 0.60421 0.0
O973 O 0.29064 0.55364 0.60904 0.0
O974 O 0.2242 0.56766 0.63998 0.0
O975 O 0.25314 0.51179 0.59467 0.0
O976 O 0.2659 0.48321 0.62291 0.0
O977 O 0.23623 0.58407 0.60621 0.0
O978 O 0.23958 0.52793 0.65113 0.0
O979 O 0.25891 0.48974 0.6523 0.0
C980 C 0.2864 0.55268 0.6622 0.0
C981 C 0.33786 0.43413 0.63214 0.0
C982 C 0.3711 0.4092 0.61497 0.0
C983 C 0.36069 0.38831 0.62581 0.0
C984 C 0.32806 0.41281 0.64276 0.0
C985 C 0.33942 0.39015 0.63962 0.0
C986 C 0.35968 0.43231 0.61832 0.0
C987 C 0.30303 0.53707 0.59681 0.0
C988 C 0.32441 0.4576 0.63524 0.0
C989 C 0.34863 0.51503 0.72934 0.0
C990 C 0.3629 0.53019 0.71441 0.0
C991 C 0.2582 0.48892 0.60108 0.0
C992 C 0.22382 0.61127 0.63712 0.0
C993 C 0.20264 0.64703 0.65381 0.0
C994 C 0.22507 0.65936 0.65521 0.0
C995 C 0.24608 0.62386 0.63888 0.0
C996 C 0.20202 0.62294 0.6446 0.0
C997 C 0.24662 0.64784 0.64775 0.0
C998 C 0.24097 0.50494 0.65858 0.0
C999 C 0.22298 0.58683 0.62572 0.0
H1000 H 0.36926 0.37045 0.62385 0.0
H1001 H 0.31136 0.41355 0.65338 0.0
H1002 H 0.33167 0.3739 0.64792 0.0
H1003 H 0.36752 0.44854 0.61001 0.0
H1004 H 0.22584 0.67802 0.66198 0.0
H1005 H 0.26299 0.61529 0.63297 0.0
H1006 H 0.18471 0.61343 0.64312 0.0
H1007 H 0.26379 0.65757 0.64875 0.0
H1008 H 0.20481 0.27308 0.52328 0.0
H1009 H 0.22342 0.31062 0.53936 0.0
H1010 H 0.1523 0.34533 0.54052 0.0
H1011 H 0.13372 0.30699 0.52777 0.0
H1012 H 0.22784 0.35177 0.51965 0.0
H1013 H 0.17393 0.36994 0.60297 0.0
H1014 H 0.17177 0.34119 0.58694 0.0
H1015 H 0.15376 0.36739 0.57742 0.0
C1016 C 0.19313 0.28833 0.52833 0.0
C1017 C 0.16781 0.28713 0.52475 0.0
C1018 C 0.20378 0.30997 0.53703 0.0
C1019 C 0.18929 0.33091 0.54163 0.0
C1020 C 0.16392 0.32939 0.53816 0.0
H1021 H 0.22214 0.48578 0.56582 0.0
H1022 H 0.20596 0.44783 0.54806 0.0
C1023 C 0.15328 0.30755 0.53046 0.0
C1024 C 0.20073 0.35478 0.54821 0.0
H1025 H 0.19502 0.40449 0.5859 0.0
C1026 C 0.22075 0.3631 0.53432 0.0
C1027 C 0.19164 0.36978 0.56739 0.0
C1028 C 0.17178 0.36143 0.58464 0.0
C1029 C 0.23161 0.38594 0.53892 0.0
C1030 C 0.22186 0.4011 0.55739 0.0
C1031 C 0.20197 0.39297 0.57128 0.0
C1032 C 0.2335 0.42443 0.56444 0.0
C1033 C 0.25352 0.39379 0.52417 0.0
C1034 C 0.25453 0.42379 0.57893 0.0
C1035 C 0.26337 0.44527 0.58939 0.0
C1036 C 0.25137 0.46786 0.58553 0.0
C1037 C 0.23144 0.46874 0.56945 0.0
C1038 C 0.22227 0.44706 0.55925 0.0
H1039 H 0.25671 0.38168 0.50815 0.0
H1040 H 0.25117 0.41299 0.51771 0.0
H1041 H 0.27001 0.3932 0.53597 0.0
H1042 H 0.26338 0.40647 0.58319 0.0
H1043 H 0.27904 0.44399 0.60144 0.0
H1044 H 0.81372 0.99454 0.8752 0.0
H1045 H 0.8488 0.97667 0.85461 0.0
H1046 H 0.8084 0.97427 0.78705 0.0
H1047 H 0.77231 0.99188 0.80794 0.0
H1048 H 0.84701 0.92801 0.81841 0.0
H1049 H 0.87918 0.01896 0.78467 0.0
H1050 H 0.86097 0.01674 0.81212 0.0
H1051 H 0.84726 0.01077 0.78302 0.0
C1052 C 0.81205 0.9901 0.85598 0.0
C1053 C 0.79023 0.99478 0.84313 0.0
C1054 C 0.83217 0.97981 0.8443 0.0
C1055 C 0.83118 0.97434 0.81938 0.0
C1056 C 0.80937 0.97842 0.80638 0.0
H1057 H 0.95966 0.93753 0.73301 0.0
H1058 H 0.92024 0.95297 0.74701 0.0
C1059 C 0.78885 0.9884 0.81828 0.0
C1060 C 0.85363 0.96528 0.80736 0.0
H1061 H 0.90636 0.9856 0.78103 0.0
C1062 C 0.85988 0.94044 0.80985 0.0
C1063 C 0.87035 0.98169 0.79652 0.0
C1064 C 0.86431 0.00859 0.79382 0.0
C1065 C 0.88268 0.93156 0.80194 0.0
C1066 C 0.89989 0.94817 0.79197 0.0
C1067 C 0.89329 0.97293 0.78891 0.0
C1068 C 0.92463 0.94009 0.78419 0.0
C1069 C 0.88802 0.90446 0.8042 0.0
C1070 C 0.94065 0.92844 0.80066 0.0
C1071 C 0.96323 0.91932 0.79264 0.0
C1072 C 0.97025 0.92199 0.76808 0.0
C1073 C 0.95474 0.93493 0.75202 0.0
C1074 C 0.93216 0.94381 0.75998 0.0
H1075 H 0.87094 0.89357 0.80544 0.0
H1076 H 0.89887 0.89773 0.7884 0.0
H1077 H 0.89869 0.90109 0.82113 0.0
H1078 H 0.93552 0.92601 0.81962 0.0
H1079 H 0.97478 0.90954 0.80548 0.0
H1080 H 0.30767 0.73326 0.01289 0.0
H1081 H 0.28704 0.69679 0.02984 0.0
H1082 H 0.35687 0.66098 0.03892 0.0
H1083 H 0.37735 0.69677 0.02198 0.0
H1084 H 0.29612 0.64475 0.00769 0.0
H1085 H 0.31819 0.65432 0.10634 0.0
H1086 H 0.3166 0.68028 0.08575 0.0
H1087 H 0.34279 0.66034 0.08534 0.0
C1088 C 0.31852 0.7177 0.01885 0.0
C1089 C 0.34403 0.71767 0.01588 0.0
C1090 C 0.30678 0.69693 0.0284 0.0
C1091 C 0.32052 0.67629 0.03558 0.0
C1092 C 0.346 0.67676 0.03355 0.0
H1093 H 0.3023 0.53169 0.09726 0.0
H1094 H 0.31798 0.57004 0.07982 0.0
C1095 C 0.35763 0.6972 0.02378 0.0
C1096 C 0.30866 0.65344 0.0439 0.0
H1097 H 0.30432 0.61527 0.09317 0.0
C1098 C 0.29752 0.63837 0.02643 0.0
C1099 C 0.31099 0.64513 0.06824 0.0
C1100 C 0.32263 0.66088 0.08762 0.0
C1101 C 0.28935 0.61473 0.03253 0.0
C1102 C 0.2919 0.60624 0.0569 0.0
C1103 C 0.30258 0.62164 0.07445 0.0
C1104 C 0.28317 0.58171 0.06484 0.0
C1105 C 0.27897 0.59878 0.01256 0.0
C1106 C 0.2586 0.57526 0.06172 0.0
C1107 C 0.24981 0.5532 0.07115 0.0
C1108 C 0.26523 0.53741 0.08452 0.0
C1109 C 0.29005 0.54337 0.08687 0.0
C1110 C 0.29894 0.56539 0.07714 0.0
H1111 H 0.28547 0.60464 0.99422 0.0
H1112 H 0.28395 0.5792 0.0153 0.0
H1113 H 0.25875 0.6004 0.01268 0.0
H1114 H 0.24592 0.58771 0.05286 0.0
H1115 H 0.23056 0.54913 0.06905 0.0
H1116 H 0.54994 0.12002 0.28836 0.0
H1117 H 0.58834 0.10221 0.30273 0.0
H1118 H 0.57179 0.03504 0.2644 0.0
H1119 H 0.53417 0.05387 0.24845 0.0
H1120 H 0.6002 0.0672 0.33017 0.0
H1121 H 0.63805 0.04412 0.23917 0.0
H1122 H 0.61039 0.06181 0.24265 0.0
H1123 H 0.6097 0.02875 0.24456 0.0
C1124 C 0.55447 0.10138 0.28324 0.0
C1125 C 0.53928 0.08824 0.26738 0.0
C1126 C 0.57649 0.09122 0.29132 0.0
C1127 C 0.58344 0.0674 0.28423 0.0
C1128 C 0.56747 0.05377 0.26936 0.0
H1129 H 0.70333 0.97402 0.33234 0.0
H1130 H 0.66521 0.99058 0.3156 0.0
C1131 C 0.54581 0.06434 0.26054 0.0
C1132 C 0.60723 0.05699 0.29272 0.0
H1133 H 0.65942 0.02797 0.27359 0.0
C1134 C 0.61314 0.05879 0.31768 0.0
C1135 C 0.6244 0.04614 0.2765 0.0
C1136 C 0.62043 0.04533 0.24921 0.0
C1137 C 0.63544 0.04987 0.32684 0.0
C1138 C 0.65214 0.03848 0.31073 0.0
C1139 C 0.64637 0.03654 0.28587 0.0
C1140 C 0.67579 0.02857 0.3195 0.0
C1141 C 0.64099 0.05252 0.35372 0.0
C1142 C 0.69448 0.04448 0.32676 0.0
C1143 C 0.71631 0.0351 0.33623 0.0
C1144 C 0.71986 0.00963 0.3387 0.0
C1145 C 0.70128 0.99374 0.33074 0.0
C1146 C 0.67946 1.00314 0.32116 0.0
H1147 H 0.62468 0.05831 0.36438 0.0
H1148 H 0.64802 0.03495 0.36131 0.0
H1149 H 0.65543 0.06657 0.35617 0.0
H1150 H 0.69201 0.06418 0.32544 0.0
H1151 H 0.73007 0.04787 0.34225 0.0
H1152 H 0.6873 0.20976 0.52436 0.0
H1153 H 0.70368 0.17187 0.50733 0.0
H1154 H 0.67475 0.19127 0.43654 0.0
H1155 H 0.6577 0.22937 0.45369 0.0
H1156 H 0.66142 0.14326 0.45535 0.0
H1157 H 0.76154 0.159 0.46109 0.0
H1158 H 0.74448 0.16541 0.48842 0.0
H1159 H 0.7396 0.18388 0.46162 0.0
C1160 C 0.68477 0.20625 0.50503 0.0
C1161 C 0.67119 0.22253 0.49031 0.0
C1162 C 0.69427 0.1846 0.49533 0.0
C1163 C 0.69063 0.1789 0.47066 0.0
C1164 C 0.67785 0.19549 0.45563 0.0
H1165 H 0.71296 0.04365 0.38858 0.0
H1166 H 0.69852 0.08345 0.40337 0.0
C1167 C 0.6683 0.21729 0.46536 0.0
C1168 C 0.69852 0.15471 0.46124 0.0
H1169 H 0.74871 0.11873 0.45172 0.0
C1170 C 0.6805 0.13788 0.4543 0.0
C1171 C 0.72337 0.14764 0.46059 0.0
C1172 C 0.74343 0.16495 0.46816 0.0
C1173 C 0.68663 0.11394 0.44704 0.0
C1174 C 0.71159 0.10699 0.44568 0.0
C1175 C 0.72959 0.12395 0.45265 0.0
C1176 C 0.71958 0.08238 0.43695 0.0
C1177 C 0.66616 0.09619 0.44189 0.0
C1178 C 0.73693 0.06879 0.45033 0.0
C1179 C 0.74598 0.04659 0.44128 0.0
C1180 C 0.73729 0.03726 0.41908 0.0
C1181 C 0.71945 0.05032 0.40603 0.0
C1182 C 0.71109 0.07299 0.41459 0.0
H1183 H 0.6493 0.1013 0.45203 0.0
H1184 H 0.66173 0.09674 0.4221 0.0
H1185 H 0.67126 0.07712 0.44697 0.0
H1186 H 0.74384 0.07559 0.46759 0.0
H1187 H 0.75992 0.03679 0.45149 0.0
H1188 H 0.06507 0.39025 0.76172 0.0
H1189 H 0.10205 0.40787 0.74347 0.0
H1190 H 0.05898 0.46659 0.71245 0.0
H1191 H 0.02196 0.44908 0.73107 0.0
H1192 H 0.10692 0.42457 0.68623 0.0
H1193 H 0.11873 0.49463 0.7594 0.0
H1194 H 0.10289 0.46619 0.76533 0.0
H1195 H 0.08892 0.4892 0.74647 0.0
C1196 C 0.0636 0.40703 0.75119 0.0
C1197 C 0.04083 0.41846 0.74786 0.0
C1198 C 0.08461 0.4169 0.74058 0.0
C1199 C 0.08317 0.43847 0.72665 0.0
C1200 C 0.06038 0.44986 0.7231 0.0
H1201 H 0.20159 0.53072 0.67566 0.0
H1202 H 0.16341 0.51449 0.69139 0.0
C1203 C 0.03929 0.43983 0.73359 0.0
C1204 C 0.1058 0.4494 0.71672 0.0
H1205 H 0.14961 0.49172 0.72975 0.0
C1206 C 0.11628 0.43933 0.6956 0.0
C1207 C 0.11765 0.46882 0.72886 0.0
C1208 C 0.10664 0.48047 0.75133 0.0
C1209 C 0.13854 0.44817 0.68631 0.0
C1210 C 0.15114 0.46684 0.69917 0.0
C1211 C 0.14025 0.47718 0.72007 0.0
C1212 C 0.17517 0.47651 0.69087 0.0
C1213 C 0.14791 0.43782 0.66249 0.0
C1214 C 0.19503 0.46073 0.68616 0.0
C1215 C 0.21692 0.46995 0.67661 0.0
C1216 C 0.21954 0.49522 0.67211 0.0
C1217 C 0.20022 0.51111 0.67858 0.0
C1218 C 0.17827 0.50184 0.68762 0.0
H1219 H 0.13286 0.42996 0.65138 0.0
H1220 H 0.15727 0.45208 0.65142 0.0
H1221 H 0.16112 0.42281 0.66638 0.0
H1222 H 0.19348 0.4412 0.68943 0.0
H1223 H 0.23146 0.45719 0.6721 0.0
H1224 H 0.78499 0.95932 0.88708 0.0
H1225 H 0.79889 0.91992 0.9031 0.0
H1226 H 0.77752 0.94225 0.97578 0.0
H1227 H 0.7621 0.98136 0.95918 0.0
H1228 H 0.83126 0.9046 0.93433 0.0
H1229 H 0.73968 0.88057 0.97074 0.0
H1230 H 0.74462 0.90746 0.95218 0.0
H1231 H 0.75242 0.90762 0.98417 0.0
C1232 C 0.78386 0.95603 0.90655 0.0
C1233 C 0.77274 0.97326 0.92198 0.0
C1234 C 0.79161 0.93342 0.9157 0.0
C1235 C 0.78869 0.92777 0.94057 0.0
C1236 C 0.7792 0.94582 0.95639 0.0
H1237 H 0.81979 0.79916 0.026 0.0
H1238 H 0.8052 0.8379 0.00952 0.0
C1239 C 0.77085 0.9683 0.94705 0.0
C1240 C 0.79495 0.9027 0.9494 0.0
H1241 H 0.7716 0.85228 0.9782 0.0
C1242 C 0.81818 0.89314 0.94387 0.0
C1243 C 0.77784 0.88767 0.96175 0.0
C1244 C 0.75217 0.89624 0.96737 0.0
C1245 C 0.82495 0.8692 0.95066 0.0
C1246 C 0.80783 0.85418 0.96297 0.0
C1247 C 0.78462 0.86373 0.96855 0.0
C1248 C 0.81425 0.82926 0.97198 0.0
C1249 C 0.85062 0.86056 0.94518 0.0
C1250 C 0.82316 0.81089 0.95622 0.0
C1251 C 0.83189 0.78859 0.9657 0.0
C1252 C 0.83161 0.78436 0.99103 0.0
C1253 C 0.82065 0.80195 0.0064 0.0
C1254 C 0.81226 0.82419 0.99701 0.0
H1255 H 0.8631 0.87616 0.94144 0.0
H1256 H 0.85819 0.84969 0.96061 0.0
H1257 H 0.85036 0.84873 0.9287 0.0
H1258 H 0.82412 0.8141 0.93671 0.0
H1259 H 0.84006 0.77534 0.95339 0.0
H1260 H 0.48012 0.55567 0.25335 0.0
H1261 H 0.44343 0.53504 0.23724 0.0
H1262 H 0.4131 0.60523 0.21669 0.0
H1263 H 0.44913 0.6258 0.23312 0.0
H1264 H 0.38835 0.55288 0.25345 0.0
H1265 H 0.41239 0.55336 0.15461 0.0
H1266 H 0.43528 0.55268 0.17843 0.0
H1267 H 0.4191 0.58062 0.17197 0.0
C1268 C 0.4657 0.56658 0.24515 0.0
C1269 C 0.46733 0.59232 0.24463 0.0
C1270 C 0.44476 0.55484 0.2361 0.0
C1271 C 0.42555 0.56868 0.22591 0.0
C1272 C 0.42766 0.59426 0.22458 0.0
H1273 H 0.28623 0.54972 0.15512 0.0
H1274 H 0.32375 0.56513 0.17422 0.0
C1275 C 0.44825 0.60596 0.23397 0.0
C1276 C 0.40284 0.55685 0.21709 0.0
H1277 H 0.37152 0.54343 0.16484 0.0
C1278 C 0.38474 0.55044 0.23411 0.0
C1279 C 0.39815 0.55402 0.19188 0.0
C1280 C 0.41724 0.56036 0.17304 0.0
C1281 C 0.36176 0.5418 0.22646 0.0
C1282 C 0.35691 0.53934 0.20118 0.0
C1283 C 0.37521 0.54541 0.18421 0.0
C1284 C 0.33291 0.53071 0.19185 0.0
C1285 C 0.34251 0.53618 0.24536 0.0
C1286 C 0.32542 0.50637 0.19566 0.0
C1287 C 0.30391 0.49768 0.18489 0.0
C1288 C 0.28942 0.51326 0.17042 0.0
C1289 C 0.29662 0.5377 0.16699 0.0
C1290 C 0.31819 0.54637 0.17763 0.0
H1291 H 0.34756 0.54318 0.26373 0.0
H1292 H 0.32468 0.54434 0.23995 0.0
H1293 H 0.3401 0.516 0.24667 0.0
H1294 H 0.33671 0.49383 0.20615 0.0
H1295 H 0.29904 0.47854 0.18712 0.0
H1296 H 0.51922 0.13867 0.31442 0.0
H1297 H 0.53576 0.16064 0.34902 0.0
H1298 H 0.53245 0.22839 0.30837 0.0
H1299 H 0.51594 0.2061 0.27265 0.0
H1300 H 0.58116 0.20227 0.34597 0.0
H1301 H 0.48805 0.22457 0.38117 0.0
H1302 H 0.49309 0.1969 0.36376 0.0
H1303 H 0.49499 0.22615 0.34888 0.0
C1304 C 0.52225 0.15821 0.31245 0.0
C1305 C 0.51613 0.17066 0.29068 0.0
C1306 C 0.53173 0.17071 0.33238 0.0
C1307 C 0.53511 0.19605 0.33129 0.0
C1308 C 0.52987 0.20872 0.30946 0.0
H1309 H 0.57476 0.28398 0.45833 0.0
H1310 H 0.55711 0.27003 0.41957 0.0
C1311 C 0.52055 0.19602 0.28911 0.0
C1312 C 0.54316 0.20872 0.35376 0.0
H1313 H 0.52118 0.23065 0.40803 0.0
C1314 C 0.56814 0.20895 0.35938 0.0
C1315 C 0.52603 0.21687 0.37134 0.0
C1316 C 0.49897 0.21623 0.36618 0.0
C1317 C 0.57643 0.21682 0.38237 0.0
C1318 C 0.55923 0.22428 0.40024 0.0
C1319 C 0.53429 0.22474 0.39435 0.0
C1320 C 0.56698 0.23195 0.42503 0.0
C1321 C 0.60351 0.21692 0.3875 0.0
C1322 C 0.5775 0.21497 0.44134 0.0
C1323 C 0.5872 0.22287 0.46366 0.0
C1324 C 0.58645 0.2478 0.46994 0.0
C1325 C 0.57503 0.26456 0.45406 0.0
C1326 C 0.56513 0.25666 0.4319 0.0
H1327 H 0.61446 0.21541 0.37045 0.0
H1328 H 0.60881 0.23396 0.39723 0.0
H1329 H 0.60817 0.20109 0.39943 0.0
H1330 H 0.57904 0.19579 0.43637 0.0
H1331 H 0.59669 0.20981 0.47516 0.0
H1332 H 0.08838 0.30096 0.52663 0.0
H1333 H 0.07116 0.31854 0.5642 0.0
H1334 H 0.06544 0.24591 0.59516 0.0
H1335 H 0.08347 0.22849 0.55823 0.0
H1336 H 0.02882 0.31219 0.59125 0.0
H1337 H 0.10941 0.27985 0.64381 0.0
H1338 H 0.10847 0.2793 0.61085 0.0
H1339 H 0.09379 0.25553 0.62836 0.0
C1340 C 0.0831 0.28879 0.5413 0.0
C1341 C 0.08766 0.26346 0.53972 0.0
C1342 C 0.07333 0.29882 0.56277 0.0
C1343 C 0.06776 0.28356 0.58272 0.0
C1344 C 0.07038 0.25808 0.58029 0.0
H1345 H 0.98746 0.31501 0.71452 0.0
H1346 H 1.00246 0.29994 0.67519 0.0
C1347 C 0.08051 0.24815 0.55912 0.0
C1348 C 0.06038 0.29413 0.60654 0.0
H1349 H 0.07589 0.29515 0.66701 0.0
C1350 C 0.03916 0.30862 0.60779 0.0
C1351 C 0.07415 0.28973 0.62805 0.0
C1352 C 0.09785 0.27546 0.62772 0.0
C1353 C 0.03094 0.3182 0.63016 0.0
C1354 C 0.04419 0.31288 0.65176 0.0
C1355 C 0.06572 0.299 0.6504 0.0
C1356 C 0.03577 0.3212 0.67605 0.0
C1357 C 0.00828 0.33406 0.63054 0.0
C1358 C 0.05015 0.33719 0.69005 0.0
C1359 C 0.04183 0.34547 0.71277 0.0
C1360 C 0.01901 0.33787 0.72166 0.0
C1361 C 1.0051 0.32119 0.70799 0.0
C1362 C 0.0135 0.31278 0.68544 0.0
H1363 H 1.0036 0.34106 0.61203 0.0
H1364 H 0.99262 0.32307 0.63727 0.0
H1365 H 0.01067 0.3499 0.64304 0.0
H1366 H 0.06749 0.34372 0.6831 0.0
H1367 H 0.05268 0.35862 0.72282 0.0
H1368 H 0.95919 0.85897 0.78776 0.0
H1369 H 0.94219 0.84065 0.8251 0.0
H1370 H 1.00525 0.79326 0.83082 0.0
H1371 H 0.02265 0.81213 0.79409 0.0
H1372 H 0.93005 0.79395 0.84041 0.0
H1373 H 0.00787 0.82813 0.89566 0.0
H1374 H 1.00265 0.83799 0.86459 0.0
H1375 H 0.01664 0.80867 0.87072 0.0
C1376 C 0.96921 0.84435 0.79676 0.0
C1377 C 0.9924 0.83717 0.78819 0.0
C1378 C 0.95954 0.83396 0.81819 0.0
C1379 C 0.9728 0.81609 0.83129 0.0
C1380 C 0.99508 0.80763 0.82162 0.0
H1381 H 0.94819 0.74235 0.97191 0.0
H1382 H 0.96619 0.75813 0.93373 0.0
C1383 C 1.00492 0.81828 0.8005 0.0
C1384 C 0.96389 0.80703 0.85548 0.0
H1385 H 0.97924 0.80299 0.91605 0.0
C1386 C 0.94079 0.796 0.85694 0.0
C1387 C 0.97794 0.80951 0.87712 0.0
C1388 C 1.00256 0.8219 0.87708 0.0
C1389 C 0.9315 0.78719 0.87928 0.0
C1390 C 0.94535 0.79012 0.90098 0.0
C1391 C 0.96857 0.80085 0.89949 0.0
C1392 C 0.93586 0.78241 0.92537 0.0
C1393 C 0.90713 0.77429 0.87928 0.0
C1394 C 0.91345 0.79164 0.934 0.0
C1395 C 0.9032 0.78251 0.95555 0.0
C1396 C 0.91544 0.76451 0.96927 0.0
C1397 C 0.9386 0.75645 0.96169 0.0
C1398 C 0.94876 0.76535 0.93985 0.0
H1399 H 0.90262 0.76694 0.8609 0.0
H1400 H 0.90689 0.75891 0.89262 0.0
H1401 H 0.89258 0.78757 0.8844 0.0
H1402 H 0.90351 0.8054 0.92367 0.0
H1403 H 0.88534 0.78902 0.96116 0.0
H1404 H 0.5332 0.68008 0.20534 0.0
H1405 H 0.51758 0.69501 0.1667 0.0
H1406 H 0.44374 0.68883 0.19371 0.0
H1407 H 0.45934 0.67174 0.23215 0.0
H1408 H 0.44505 0.67176 0.15006 0.0
H1409 H 0.49408 0.75966 0.14684 0.0
H1410 H 0.51582 0.73527 0.15004 0.0
H1411 H 0.49373 0.7409 0.17396 0.0
C1412 C 0.51361 0.68219 0.20334 0.0
C1413 C 0.49754 0.67462 0.22195 0.0
C1414 C 0.50468 0.69097 0.18115 0.0
C1415 C 0.47947 0.69357 0.17729 0.0
C1416 C 0.4633 0.68707 0.19623 0.0
H1417 H 0.42753 0.77783 0.05586 0.0
H1418 H 0.4426 0.76149 0.09369 0.0
C1419 C 0.47225 0.67761 0.21836 0.0
C1420 C 0.47023 0.7019 0.15304 0.0
H1421 H 0.48018 0.7442 0.10823 0.0
C1422 C 0.45238 0.68787 0.14104 0.0
C1423 C 0.47959 0.72301 0.14127 0.0
C1424 C 0.49663 0.74067 0.15387 0.0
C1425 C 0.44368 0.69436 0.11769 0.0
C1426 C 0.45416 0.71467 0.10531 0.0
C1427 C 0.4722 0.72846 0.11735 0.0
C1428 C 0.44515 0.72384 0.08117 0.0
C1429 C 0.42278 0.67985 0.10711 0.0
C1430 C 0.44161 0.70835 0.06084 0.0
C1431 C 0.4316 0.71765 0.039 0.0
C1432 C 0.42594 0.74275 0.03685 0.0
C1433 C 0.43131 0.75832 0.05666 0.0
C1434 C 0.44016 0.74896 0.07854 0.0
H1435 H 0.41243 0.67001 0.12157 0.0
H1436 H 0.40985 0.69189 0.09701 0.0
H1437 H 0.43014 0.66585 0.09433 0.0
H1438 H 0.44619 0.68906 0.06189 0.0
H1439 H 0.42772 0.7051 0.0242 0.0
H1440 H 0.11554 0.35909 0.34075 0.0
H1441 H 0.13677 0.38518 0.31135 0.0
H1442 H 0.20268 0.34271 0.32152 0.0
H1443 H 0.18121 0.316 0.35062 0.0
H1444 H 0.17858 0.41402 0.31032 0.0
H1445 H 0.18706 0.33287 0.24909 0.0
H1446 H 0.1687 0.3324 0.27647 0.0
H1447 H 0.2014 0.32994 0.27849 0.0
C1448 C 0.13464 0.35547 0.33694 0.0
C1449 C 0.14656 0.33519 0.34757 0.0
C1450 C 0.1468 0.37049 0.32025 0.0
C1451 C 0.17112 0.36553 0.3138 0.0
C1452 C 0.18374 0.34653 0.32587 0.0
H1453 H 0.25252 0.44354 0.19977 0.0
H1454 H 0.24169 0.42193 0.23753 0.0
C1455 C 0.17153 0.33143 0.34265 0.0
C1456 C 0.1821 0.3788 0.29278 0.0
H1457 H 0.20043 0.37071 0.23355 0.0
C1458 C 0.18367 0.40453 0.29365 0.0
C1459 C 0.18838 0.3664 0.27089 0.0
C1460 C 0.18616 0.33891 0.26846 0.0
C1461 C 0.19108 0.41814 0.27311 0.0
C1462 C 0.19692 0.40571 0.25125 0.0
C1463 C 0.19589 0.38006 0.25046 0.0
C1464 C 0.20333 0.4191 0.22867 0.0
C1465 C 0.19195 0.44575 0.27448 0.0
C1466 C 0.1853 0.42433 0.21118 0.0
C1467 C 0.19142 0.43652 0.18951 0.0
C1468 C 0.21565 0.44373 0.1851 0.0
C1469 C 0.23368 0.43819 0.20262 0.0
C1470 C 0.22755 0.426 0.22425 0.0
H1471 H 0.18751 0.4527 0.29305 0.0
H1472 H 0.21042 0.45229 0.26925 0.0
H1473 H 0.17873 0.4537 0.26123 0.0
H1474 H 0.16652 0.41893 0.2143 0.0
H1475 H 0.17722 0.4403 0.17622 0.0
H1476 H 0.88189 0.90242 0.61859 0.0
H1477 H 0.86213 0.92195 0.58343 0.0
H1478 H 0.93253 0.93354 0.55004 0.0
H1479 H 0.95252 0.91405 0.58549 0.0
H1480 H 0.89251 0.97441 0.54538 0.0
H1481 H 0.8651 0.88014 0.51774 0.0
H1482 H 0.85898 0.88867 0.5489 0.0
H1483 H 0.89001 0.88574 0.53863 0.0
C1484 C 0.89318 0.90965 0.604 0.0
C1485 C 0.91867 0.90659 0.6046 0.0
C1486 C 0.88189 0.92077 0.58397 0.0
C1487 C 0.89587 0.92886 0.56407 0.0
C1488 C 0.92147 0.92739 0.56528 0.0
H1489 H 0.8443 0.95734 0.41531 0.0
H1490 H 0.87053 0.94882 0.45086 0.0
C1491 C 0.93285 0.91634 0.5855 0.0
C1492 C 0.88346 0.93624 0.54115 0.0
H1493 H 0.84878 0.91308 0.49473 0.0
C1494 C 0.88314 0.96103 0.53416 0.0
C1495 C 0.87125 0.91868 0.52661 0.0
C1496 C 0.87139 0.89176 0.53315 0.0
C1497 C 0.87031 0.96874 0.5132 0.0
C1498 C 0.85784 0.9512 0.49896 0.0
C1499 C 0.85854 0.92641 0.5057 0.0
C1500 C 0.84292 0.95827 0.47756 0.0
C1501 C 0.86976 0.99556 0.50645 0.0
C1502 C 0.81885 0.96636 0.481 0.0
C1503 C 0.80388 0.97105 0.46088 0.0
C1504 C 0.81272 0.96773 0.43694 0.0
C1505 C 0.83706 0.96017 0.43353 0.0
C1506 C 0.85202 0.95529 0.45375 0.0
H1507 H 0.88202 0.00667 0.5182 0.0
H1508 H 0.87526 0.99794 0.48704 0.0
H1509 H 0.85081 1.00268 0.50833 0.0
H1510 H 0.81149 0.96854 0.49927 0.0
H1511 H 0.78524 0.977 0.46412 0.0
H1512 H 0.30502 0.5999 0.6631 0.0
H1513 H 0.31661 0.6235 0.69977 0.0
H1514 H 0.28862 0.56559 0.74562 0.0
H1515 H 0.27791 0.54195 0.70964 0.0
H1516 H 0.29224 0.6417 0.7405 0.0
H1517 H 0.3576 0.56982 0.76973 0.0
H1518 H 0.34432 0.57064 0.73958 0.0
H1519 H 0.32768 0.55749 0.76484 0.0
C1520 C 0.30122 0.5924 0.68104 0.0
C1521 C 0.2909 0.56893 0.68346 0.0
C1522 C 0.30787 0.60584 0.70197 0.0
C1523 C 0.30414 0.59602 0.72552 0.0
C1524 C 0.29247 0.57326 0.72775 0.0
H1525 H 0.3192 0.62765 0.87735 0.0
H1526 H 0.30703 0.61525 0.83633 0.0
C1527 C 0.2862 0.5598 0.70707 0.0
C1528 C 0.31287 0.60879 0.74797 0.0
H1529 H 0.34554 0.59875 0.80035 0.0
C1530 C 0.30419 0.63248 0.75343 0.0
C1531 C 0.32866 0.59691 0.76483 0.0
C1532 C 0.34032 0.57241 0.75937 0.0
C1533 C 0.30993 0.64398 0.77579 0.0
C1534 C 0.32466 0.63145 0.79304 0.0
C1535 C 0.33398 0.6082 0.78722 0.0
C1536 C 0.33004 0.64146 0.81771 0.0
C1537 C 0.29964 0.66906 0.78128 0.0
C1538 C 0.34691 0.66052 0.82092 0.0
C1539 C 0.35437 0.66739 0.84449 0.0
C1540 C 0.34506 0.65531 0.86533 0.0
C1541 C 0.32729 0.637 0.86188 0.0
C1542 C 0.32007 0.63003 0.83839 0.0
H1543 H 0.28632 0.67521 0.7672 0.0
H1544 H 0.29052 0.66903 0.79942 0.0
H1545 H 0.31478 0.68252 0.78205 0.0
H1546 H 0.35505 0.6694 0.80518 0.0
H1547 H 0.36821 0.68141 0.84626 0.0
H1548 H 0.61276 0.13123 0.10454 0.0
H1549 H 0.63944 0.11107 0.07475 0.0
H1550 H 0.58819 0.05143 0.06892 0.0
H1551 H 0.56116 0.07199 0.09842 0.0
H1552 H 0.66269 0.06683 0.06618 0.0
H1553 H 0.58624 0.08213 1.00097 0.0
H1554 H 0.58611 0.09462 0.03147 0.0
H1555 H 0.57885 0.06285 0.02655 0.0
C1556 C 0.60777 0.11327 0.09773 0.0
C1557 C 0.58504 0.10304 0.10385 0.0
C1558 C 0.62291 0.10185 0.08054 0.0
C1559 C 0.6155 0.08008 0.0691 0.0
C1560 C 0.59402 0.0685 0.07715 0.0
H1561 H 0.70068 0.00602 0.95528 0.0
H1562 H 0.67797 0.01568 0.99263 0.0
C1563 C 0.57878 0.08 0.09431 0.0
C1564 C 0.62869 0.07144 0.04691 0.0
H1565 H 0.62195 0.06391 0.98521 0.0
C1566 C 0.65374 0.06594 0.04852 0.0
C1567 C 0.61714 0.07094 0.02371 0.0
C1568 C 0.59067 0.07816 0.0204 0.0
C1569 C 0.66747 0.05984 0.02763 0.0
C1570 C 0.65577 0.05892 1.0046 0.0
C1571 C 0.63078 0.06443 1.00295 0.0
C1572 C 0.66927 0.05293 0.98186 0.0
C1573 C 0.69456 0.05524 0.03014 0.0
C1574 C 0.6712 0.07039 0.96307 0.0
C1575 C 0.68383 0.06479 0.94155 0.0
C1576 C 0.69497 0.04172 0.93855 0.0
C1577 C 0.69251 0.02407 0.95716 0.0
C1578 C 0.67974 0.02961 0.9786 0.0
H1579 H 0.70163 0.06128 0.04818 0.0
H1580 H 0.6983 0.03531 0.02823 0.0
H1581 H 0.70477 0.06495 0.0155 0.0
H1582 H 0.66303 0.08842 0.96511 0.0
H1583 H 0.68483 0.07849 0.92724 0.0
H1584 H 0.67419 0.19914 0.66586 0.0
H1585 H 0.6966 0.1741 0.69592 0.0
H1586 H 0.64029 0.11906 0.69246 0.0
H1587 H 0.61804 0.14387 0.66254 0.0
H1588 H 0.67629 0.16271 0.74115 0.0
H1589 H 0.70257 0.07733 0.69299 0.0
H1590 H 0.6946 0.10527 0.67698 0.0
H1591 H 0.67105 0.0854 0.68849 0.0
C1592 C 0.667 0.18138 0.67103 0.0
C1593 C 0.64429 0.17351 0.66203 0.0
C1594 C 0.67975 0.16714 0.68825 0.0
C1595 C 0.6702 0.14462 0.69636 0.0
C1596 C 0.64824 0.13614 0.68624 0.0
H1597 H 0.67665 0.07072 0.8355 0.0
H1598 H 0.66557 0.09292 0.79797 0.0
C1599 C 0.63543 0.15043 0.66928 0.0
C1600 C 0.68118 0.13147 0.71754 0.0
H1601 H 0.70113 0.07513 0.7369 0.0
C1602 C 0.68203 0.14366 0.74013 0.0
C1603 C 0.68879 0.10664 0.71623 0.0
C1604 C 0.68946 0.09294 0.69231 0.0
C1605 C 0.68926 0.13141 0.76157 0.0
C1606 C 0.69562 0.10628 0.76046 0.0
C1607 C 0.69583 0.09432 0.73775 0.0
C1608 C 0.70209 0.09221 0.78278 0.0
C1609 C 0.68993 0.14536 0.78534 0.0
C1610 C 0.72618 0.08421 0.78647 0.0
C1611 C 0.7325 0.07151 0.8078 0.0
C1612 C 0.71479 0.06631 0.82572 0.0
C1613 C 0.69062 0.07422 0.82191 0.0
C1614 C 0.68431 0.08701 0.80057 0.0
H1615 H 0.68868 0.16552 0.78244 0.0
H1616 H 0.67431 0.13963 0.79694 0.0
H1617 H 0.70703 0.14115 0.79548 0.0
H1618 H 0.74015 0.08805 0.77297 0.0
H1619 H 0.75128 0.06561 0.81017 0.0
H1620 H 0.18983 0.42799 0.08295 0.0
H1621 H 0.1693 0.41599 0.0453 0.0
H1622 H 0.16388 0.49221 0.02431 0.0
H1623 H 0.18754 0.50377 0.06026 0.0
H1624 H 0.12791 0.42208 0.02719 0.0
H1625 H 0.1905 0.46863 0.96269 0.0
H1626 H 0.19717 0.46636 0.99484 0.0
H1627 H 0.17686 0.48995 0.9835 0.0
C1628 C 0.18527 0.44204 0.06976 0.0
C1629 C 0.19174 0.46658 0.07392 0.0
C1630 C 0.17297 0.43525 0.04842 0.0
C1631 C 0.16577 0.45304 0.0312 0.0
C1632 C 0.17033 0.47789 0.03644 0.0
H1633 H 0.09064 0.44602 0.89104 0.0
H1634 H 0.10507 0.45797 0.93177 0.0
C1635 C 0.18356 0.48454 0.05731 0.0
C1636 C 0.15323 0.44552 0.0081 0.0
H1637 H 0.15374 0.45306 0.94598 0.0
C1638 C 0.13374 0.42878 0.00946 0.0
C1639 C 0.16071 0.4541 0.98475 0.0
C1640 C 0.18261 0.47053 0.98132 0.0
C1641 C 0.12149 0.42063 0.98836 0.0
C1642 C 0.12874 0.42955 0.9652 0.0
C1643 C 0.14804 0.44639 0.96378 0.0
C1644 C 0.11699 0.42146 0.94202 0.0
C1645 C 0.10072 0.40273 0.99109 0.0
C1646 C 0.11839 0.39685 0.93437 0.0
C1647 C 0.10987 0.38998 0.91119 0.0
C1648 C 0.09998 0.40764 0.89525 0.0
C1649 C 0.09789 0.43205 0.90318 0.0
C1650 C 0.10626 0.43889 0.92636 0.0
H1651 H 0.09346 0.40242 0.01006 0.0
H1652 H 0.08558 0.40729 0.97834 0.0
H1653 H 0.10741 0.38401 0.98665 0.0
H1654 H 0.1271 0.38318 0.94586 0.0
H1655 H 0.11218 0.37117 0.90522 0.0
H1656 H 0.75659 0.92516 0.31949 0.0
H1657 H 0.7673 0.90204 0.28281 0.0
H1658 H 0.84118 0.92904 0.28744 0.0
H1659 H 0.8315 0.94889 0.32591 0.0
H1660 H 0.78086 0.91334 0.23958 0.0
H1661 H 0.85686 0.85998 0.27977 0.0
H1662 H 0.83713 0.87877 0.29835 0.0
H1663 H 0.86292 0.89206 0.28257 0.0
C1664 C 0.77528 0.92578 0.313 0.0
C1665 C 0.79309 0.93954 0.32547 0.0
C1666 C 0.7813 0.91274 0.2918 0.0
C1667 C 0.80517 0.91342 0.28239 0.0
C1668 C 0.8228 0.92753 0.29457 0.0
H1669 H 0.88446 0.86632 0.15747 0.0
H1670 H 0.86218 0.89077 0.18771 0.0
C1671 C 0.81704 0.93967 0.31628 0.0
C1672 C 0.81173 0.89939 0.25996 0.0
H1673 H 0.85542 0.86145 0.23607 0.0
C1674 C 0.79701 0.90176 0.23894 0.0
C1675 C 0.83259 0.88389 0.25906 0.0
C1676 C 0.84806 0.87833 0.28126 0.0
C1677 C 0.80318 0.88984 0.21695 0.0
C1678 C 0.82475 0.87563 0.21591 0.0
C1679 C 0.83905 0.87274 0.23694 0.0
C1680 C 0.83369 0.86394 0.19321 0.0
C1681 C 0.78704 0.89278 0.19483 0.0
C1682 C 0.82447 0.84117 0.18567 0.0
C1683 C 0.83719 0.82716 0.16829 0.0
C1684 C 0.85939 0.83572 0.1586 0.0
C1685 C 0.86748 0.85931 0.16484 0.0
C1686 C 0.85473 0.8733 0.18199 0.0
H1687 H 0.77138 0.90535 0.1983 0.0
H1688 H 0.79789 0.89996 0.17924 0.0
H1689 H 0.77983 0.87457 0.18939 0.0
H1690 H 0.80843 0.83352 0.19441 0.0
H1691 H 0.83068 0.80896 0.16384 0.0
H1692 H 0.30234 0.51359 0.55316 0.0
H1693 H 0.32338 0.52542 0.51522 0.0
H1694 H 0.35449 0.58793 0.55182 0.0
H1695 H 0.33301 0.57642 0.58972 0.0
H1696 H 0.32321 0.5884 0.49725 0.0
H1697 H 0.40725 0.53162 0.50976 0.0
H1698 H 0.378 0.52099 0.52074 0.0
H1699 H 0.39261 0.54623 0.53559 0.0
C1700 C 0.31385 0.52973 0.55311 0.0
C1701 C 0.31621 0.54408 0.57428 0.0
C1702 C 0.32577 0.53649 0.53148 0.0
C1703 C 0.34062 0.55742 0.53082 0.0
C1704 C 0.34313 0.5717 0.55201 0.0
H1705 H 0.42855 0.61974 0.4117 0.0
H1706 H 0.41403 0.60685 0.45218 0.0
C1707 C 0.33088 0.56516 0.57357 0.0
C1708 C 0.35291 0.5647 0.50775 0.0
H1709 H 0.40411 0.55458 0.4732 0.0
C1710 C 0.34093 0.58112 0.49202 0.0
C1711 C 0.37602 0.55516 0.50105 0.0
C1712 C 0.38941 0.53749 0.51755 0.0
C1713 C 0.35138 0.58806 0.46957 0.0
C1714 C 0.37432 0.5782 0.46259 0.0
C1715 C 0.38653 0.5621 0.47856 0.0
C1716 C 0.38515 0.5838 0.43826 0.0
C1717 C 0.33779 0.60589 0.45336 0.0
C1718 C 0.37432 0.57444 0.41705 0.0
C1719 C 0.38274 0.58146 0.39394 0.0
C1720 C 0.40208 0.59828 0.39138 0.0
C1721 C 0.41369 0.60674 0.41279 0.0
C1722 C 0.40533 0.59949 0.436 0.0
H1723 H 0.32287 0.61548 0.46334 0.0
H1724 H 0.35048 0.6198 0.44573 0.0
H1725 H 0.32961 0.59575 0.43783 0.0
H1726 H 0.35893 0.56205 0.41838 0.0
H1727 H 0.37374 0.57392 0.37802 0.0
H1728 H 0.17182 0.18132 0.43347 0.0
H1729 H 0.20873 0.17004 0.41064 0.0
H1730 H 0.24004 0.24065 0.42698 0.0
H1731 H 0.2036 0.25164 0.45058 0.0
H1732 H 0.23139 0.19261 0.37008 0.0
H1733 H 0.29166 0.19201 0.45155 0.0
H1734 H 0.25884 0.19421 0.45382 0.0
H1735 H 0.27653 0.22088 0.44646 0.0
C1736 C 0.18668 0.19433 0.43234 0.0
C1737 C 0.18507 0.21713 0.44422 0.0
C1738 C 0.20765 0.18796 0.41913 0.0
C1739 C 0.22728 0.20437 0.41741 0.0
C1740 C 0.22529 0.22754 0.42846 0.0
H1741 H 0.37577 0.19043 0.36402 0.0
H1742 H 0.33613 0.20704 0.37686 0.0
C1743 C 0.20439 0.23385 0.44178 0.0
C1744 C 0.25 0.1971 0.40443 0.0
H1745 H 0.31102 0.18734 0.41304 0.0
C1746 C 0.24883 0.19143 0.37942 0.0
C1747 C 0.27272 0.19562 0.41666 0.0
C1748 C 0.27507 0.20078 0.44365 0.0
C1749 C 0.26989 0.18472 0.36621 0.0
C1750 C 0.29262 0.18308 0.37848 0.0
C1751 C 0.29368 0.18874 0.40352 0.0
C1752 C 0.31555 0.17493 0.3662 0.0
C1753 C 0.26764 0.17999 0.33915 0.0
C1754 C 0.31713 0.15171 0.35509 0.0
C1755 C 0.33976 0.14243 0.34732 0.0
C1756 C 0.36114 0.15611 0.35081 0.0
C1757 C 0.35942 0.17977 0.36077 0.0
C1758 C 0.33682 0.18914 0.36828 0.0
H1759 H 0.25141 0.18946 0.3313 0.0
H1760 H 0.28418 0.18615 0.32916 0.0
H1761 H 0.26538 0.16 0.33609 0.0
H1762 H 0.30117 0.14011 0.3538 0.0
H1763 H 0.34079 0.1239 0.34023 0.0
H1764 H 0.08506 0.12734 0.64108 0.0
H1765 H 0.07057 0.08739 0.6533 0.0
H1766 H 0.0923 0.05763 0.58355 0.0
H1767 H 0.11014 0.09688 0.57236 0.0
H1768 H 0.03771 0.05862 0.64001 0.0
H1769 H 0.12471 0.00812 0.6236 0.0
H1770 H 0.1228 0.04101 0.62103 0.0
H1771 H 0.1117 0.0217 0.59674 0.0
C1772 C 0.08763 0.1123 0.62846 0.0
C1773 C 0.09985 0.11563 0.606 0.0
C1774 C 0.07878 0.08933 0.63537 0.0
C1775 C 0.08098 0.06902 0.61976 0.0
C1776 C 0.09131 0.0726 0.59649 0.0
H1777 H 0.04484 0.91664 0.66365 0.0
H1778 H 0.05244 0.95263 0.63756 0.0
C1779 C 0.10107 0.09545 0.58987 0.0
C1780 C 0.07268 0.04438 0.62846 0.0
H1781 H 0.0921 0.98562 0.63978 0.0
C1782 C 0.04966 0.04269 0.63979 0.0
C1783 C 0.08799 0.02326 0.62799 0.0
C1784 C 0.11324 0.02359 0.61688 0.0
C1785 C 0.04208 0.02114 0.65162 0.0
C1786 C 0.05782 1.0005 0.65206 0.0
C1787 C 0.08012 1.00153 0.63947 0.0
C1788 C 0.05251 0.97862 0.66742 0.0
C1789 C 0.01745 0.02087 0.66402 0.0
C1790 C 0.05031 0.98126 0.69282 0.0
C1791 C 0.04587 0.9609 0.70764 0.0
C1792 C 0.04395 0.93726 0.69752 0.0
C1793 C 0.04625 0.93457 0.67204 0.0
C1794 C 0.05061 0.95509 0.65712 0.0
H1795 H 1.00478 0.03452 0.65573 0.0
H1796 H 0.00895 1.00243 0.66304 0.0
H1797 H 0.01978 0.02577 0.68357 0.0
H1798 H 0.05224 0.99911 0.70127 0.0
H1799 H 0.04397 0.96381 0.72712 0.0
H1800 H 0.14069 0.82223 0.84246 0.0
H1801 H 0.18072 0.80533 0.85492 0.0
H1802 H 0.20182 0.87658 0.88157 0.0
H1803 H 0.16206 0.89331 0.86942 0.0
H1804 H 0.23408 0.8222 0.84654 0.0
H1805 H 0.20045 0.82775 0.94224 0.0
H1806 H 0.18018 0.82745 0.91619 0.0
H1807 H 0.19598 0.85509 0.9243 0.0
C1808 C 0.15424 0.83436 0.85026 0.0
C1809 C 0.14842 0.85907 0.85499 0.0
C1810 C 0.17699 0.8247 0.85746 0.0
C1811 C 0.19406 0.83968 0.86945 0.0
C1812 C 0.18882 0.86469 0.87254 0.0
H1813 H 0.33436 0.8334 0.93987 0.0
H1814 H 0.29669 0.84448 0.91809 0.0
C1815 C 0.1662 0.87426 0.86549 0.0
C1816 C 0.21632 0.82915 0.88097 0.0
H1817 H 0.24292 0.82043 0.93688 0.0
C1818 C 0.23596 0.82154 0.86626 0.0
C1819 C 0.21863 0.82809 0.90674 0.0
C1820 C 0.19765 0.83481 0.92337 0.0
C1821 C 0.25822 0.81388 0.87677 0.0
C1822 C 0.26079 0.81394 0.90247 0.0
C1823 C 0.24093 0.82075 0.91715 0.0
C1824 C 0.28404 0.80711 0.91457 0.0
C1825 C 0.27913 0.80621 0.86052 0.0
C1826 C 0.28927 0.78248 0.91976 0.0
C1827 C 0.31047 0.77615 0.93259 0.0
C1828 C 0.32683 0.79437 0.94054 0.0
C1829 C 0.32184 0.81901 0.93463 0.0
C1830 C 0.30048 0.82534 0.92198 0.0
H1831 H 0.27449 0.80771 0.84081 0.0
H1832 H 0.29533 0.81781 0.86434 0.0
H1833 H 0.28431 0.78691 0.86464 0.0
H1834 H 0.27674 0.76818 0.91423 0.0
H1835 H 0.31376 0.75696 0.93669 0.0
H1836 H 0.47496 0.04529 0.2236 0.0
H1837 H 0.46437 0.00982 0.19885 0.0
H1838 H 0.44712 0.05759 0.13823 0.0
H1839 H 0.45815 0.0934 0.16297 0.0
H1840 H 0.42208 0.99775 0.17995 0.0
H1841 H 0.48865 0.00711 0.10442 0.0
H1842 H 0.4908 0.02477 0.1322 0.0
H1843 H 0.47032 0.03421 0.10817 0.0
C1844 C 0.46906 0.04833 0.20493 0.0
C1845 C 0.46736 0.07224 0.19526 0.0
C1846 C 0.46305 0.02795 0.19077 0.0
C1847 C 0.45528 0.03088 0.1665 0.0
C1848 C 0.45369 0.05474 0.15669 0.0
H1849 H 0.38322 0.94307 0.05953 0.0
H1850 H 0.4057 0.97407 0.08276 0.0
C1851 C 0.45986 0.07524 0.17087 0.0
C1852 C 0.44756 0.00903 0.15212 0.0
H1853 H 0.45549 0.97926 0.09767 0.0
C1854 C 0.42962 0.99356 0.16207 0.0
C1855 C 0.45753 1.00335 0.1289 0.0
C1856 C 0.47807 0.01808 0.1179 0.0
C1857 C 0.42066 0.97327 0.14908 0.0
C1858 C 0.42997 0.96815 0.12547 0.0
C1859 C 0.44833 0.98322 0.11574 0.0
C1860 C 0.41933 0.94854 0.1099 0.0
C1861 C 0.40066 0.95801 0.16039 0.0
C1862 C 0.4203 0.92369 0.11687 0.0
C1863 C 0.40762 0.90589 0.10342 0.0
C1864 C 0.39371 0.91276 0.08291 0.0
C1865 C 0.39377 0.93739 0.07532 0.0
C1866 C 0.40661 0.95506 0.08857 0.0
H1867 H 0.39222 0.96721 0.17644 0.0
H1868 H 0.38613 0.95405 0.14682 0.0
H1869 H 0.40848 0.94024 0.16662 0.0
H1870 H 0.43026 0.91818 0.1331 0.0
H1871 H 0.40775 0.88701 0.10966 0.0
H1872 H 0.8466 0.31192 0.69564 0.0
H1873 H 0.8175 0.29606 0.66551 0.0
H1874 H 0.81761 0.36611 0.62858 0.0
H1875 H 0.84703 0.38177 0.65855 0.0
H1876 H 0.77244 0.31595 0.66242 0.0
H1877 H 0.81618 0.31879 0.57114 0.0
H1878 H 0.83353 0.32066 0.59916 0.0
H1879 H 0.81833 0.34743 0.58715 0.0
C1880 C 0.84106 0.32354 0.68051 0.0
C1881 C 0.84908 0.3479 0.67915 0.0
C1882 C 0.82439 0.31456 0.6634 0.0
C1883 C 0.81544 0.32984 0.6447 0.0
C1884 C 0.82459 0.35381 0.64252 0.0
H1885 H 0.67503 0.32997 0.57256 0.0
H1886 H 0.71278 0.34015 0.59442 0.0
C1887 C 0.84133 0.36278 0.65965 0.0
C1888 C 0.79403 0.322 0.63 0.0
H1889 H 0.7724 0.31568 0.57172 0.0
C1890 C 0.77257 0.31566 0.64259 0.0
C1891 C 0.79415 0.32165 0.60412 0.0
C1892 C 0.81686 0.32727 0.58959 0.0
C1893 C 0.75112 0.30953 0.63004 0.0
C1894 C 0.75109 0.30986 0.60427 0.0
C1895 C 0.77256 0.31569 0.59156 0.0
C1896 C 0.72878 0.30402 0.59034 0.0
C1897 C 0.72853 0.30275 0.6443 0.0
C1898 C 0.72543 0.28039 0.58092 0.0
C1899 C 0.70411 0.27467 0.56814 0.0
C1900 C 0.68584 0.29256 0.56454 0.0
C1901 C 0.68909 0.31608 0.57444 0.0
C1902 C 0.71051 0.32185 0.58705 0.0
H1903 H 0.73188 0.3023 0.66433 0.0
H1904 H 0.71378 0.31625 0.64046 0.0
H1905 H 0.72194 0.28445 0.63839 0.0
H1906 H 0.73927 0.26636 0.58356 0.0
H1907 H 0.70206 0.2563 0.56091 0.0
H1908 H 0.99406 0.45565 0.79956 0.0
H1909 H 0.98245 0.4936 0.82064 0.0
H1910 H 0.92286 0.4557 0.8558 0.0
H1911 H 0.93381 0.41797 0.8336 0.0
H1912 H 0.90885 0.49995 0.83885 0.0
H1913 H 0.99509 0.51151 0.89065 0.0
H1914 H 0.99974 0.50796 0.85839 0.0
H1915 H 0.98706 0.48305 0.87587 0.0
C1916 C 0.97857 0.45549 0.81192 0.0
C1917 C 0.96489 0.43403 0.81522 0.0
C1918 C 0.97206 0.47708 0.82409 0.0
C1919 C 0.95221 0.47737 0.8404 0.0
C1920 C 0.93837 0.45588 0.84348 0.0
H1921 H 0.88751 0.59624 0.92748 0.0
H1922 H 0.90103 0.55572 0.91354 0.0
C1923 C 0.94456 0.43439 0.83084 0.0
C1924 C 0.94537 0.50034 0.85345 0.0
H1925 H 0.96796 0.54592 0.8899 0.0
C1926 C 0.92168 0.5098 0.85028 0.0
C1927 C 0.96212 0.51324 0.86839 0.0
C1928 C 0.98734 0.50333 0.87377 0.0
C1929 C 0.91455 0.53215 0.86097 0.0
C1930 C 0.93148 0.54534 0.87529 0.0
C1931 C 0.95504 0.53575 0.87885 0.0
C1932 C 0.92525 0.56973 0.88562 0.0
C1933 C 0.8892 0.54202 0.8562 0.0
C1934 C 0.93502 0.59099 0.87508 0.0
C1935 C 0.92755 0.61419 0.88312 0.0
C1936 C 0.91005 0.61667 0.90188 0.0
C1937 C 0.90107 0.5952 0.9131 0.0
C1938 C 0.90863 0.57197 0.90504 0.0
H1939 H 0.87901 0.5307 0.84279 0.0
H1940 H 0.87872 0.54242 0.87357 0.0
H1941 H 0.89026 0.56114 0.84922 0.0
H1942 H 0.94796 0.58964 0.86014 0.0
H1943 H 0.93531 0.63021 0.87439 0.0
H1944 H 0.8344 0.67894 0.07584 0.0
H1945 H 0.79693 0.66693 0.09729 0.0
H1946 H 0.763 0.7354 0.07643 0.0
H1947 H 0.80026 0.74722 0.05448 0.0
H1948 H 0.77419 0.69326 0.13626 0.0
H1949 H 0.71196 0.68285 0.05673 0.0
H1950 H 0.74481 0.68374 0.05369 0.0
H1951 H 0.72797 0.71157 0.05859 0.0
C1952 C 0.81882 0.69126 0.07557 0.0
C1953 C 0.8201 0.71383 0.06323 0.0
C1954 C 0.79748 0.68445 0.08791 0.0
C1955 C 0.77701 0.70009 0.08815 0.0
C1956 C 0.77837 0.72281 0.07608 0.0
H1957 H 0.65626 0.69907 0.18929 0.0
H1958 H 0.68636 0.71038 0.15823 0.0
C1959 C 0.79974 0.72964 0.06376 0.0
C1960 C 0.75476 0.69309 0.10209 0.0
H1961 H 0.69399 0.67951 0.09626 0.0
C1962 C 0.7567 0.69015 0.12749 0.0
C1963 C 0.73191 0.68915 0.09063 0.0
C1964 C 0.72891 0.69179 0.06337 0.0
C1965 C 0.73641 0.68357 0.14175 0.0
C1966 C 0.71355 0.67967 0.13035 0.0
C1967 C 0.71156 0.68243 0.10492 0.0
C1968 C 0.69165 0.67336 0.14508 0.0
C1969 C 0.73944 0.68096 0.16905 0.0
C1970 C 0.68376 0.64892 0.14715 0.0
C1971 C 0.66642 0.64237 0.16496 0.0
C1972 C 0.65688 0.66022 0.18091 0.0
C1973 C 0.66338 0.68493 0.17731 0.0
C1974 C 0.68059 0.69142 0.1596 0.0
H1975 H 0.75896 0.68105 0.17462 0.0
H1976 H 0.73003 0.69647 0.17829 0.0
H1977 H 0.73092 0.66368 0.17555 0.0
H1978 H 0.69213 0.63472 0.13609 0.0
H1979 H 0.66188 0.62319 0.16744 0.0
H1980 H 0.61769 0.41126 0.43079 0.0
H1981 H 0.6032 0.45192 0.41883 0.0
H1982 H 0.55969 0.41968 0.36168 0.0
H1983 H 0.57249 0.3789 0.3746 0.0
H1984 H 0.61134 0.47352 0.37567 0.0
H1985 H 0.5114 0.46732 0.38938 0.0
H1986 H 0.53238 0.44498 0.40197 0.0
H1987 H 0.52292 0.44305 0.37049 0.0
C1988 C 0.60445 0.41262 0.41616 0.0
C1989 C 0.59638 0.39155 0.40366 0.0
C1990 C 0.59635 0.436 0.4092 0.0
C1991 C 0.5801 0.43889 0.38955 0.0
C1992 C 0.57175 0.41795 0.37728 0.0
H1993 H 0.51986 0.55227 0.29871 0.0
H1994 H 0.53128 0.51476 0.32056 0.0
C1995 C 0.57952 0.39458 0.38443 0.0
C1996 C 0.57358 0.46376 0.38045 0.0
H1997 H 0.52539 0.50002 0.36382 0.0
C1998 C 0.59255 0.47948 0.37331 0.0
C1999 C 0.54906 0.47147 0.37733 0.0
C2000 C 0.5278 0.45589 0.38543 0.0
C2001 C 0.58776 0.50212 0.36195 0.0
C2002 C 0.56319 0.50968 0.35835 0.0
C2003 C 0.54422 0.49427 0.36635 0.0
C2004 C 0.55658 0.53272 0.3452 0.0
C2005 C 0.60918 0.51695 0.35287 0.0
C2006 C 0.56681 0.55546 0.3517 0.0
C2007 C 0.56114 0.57668 0.33839 0.0
C2008 C 0.54423 0.57567 0.31922 0.0
C2009 C 0.53303 0.55333 0.31347 0.0
C2010 C 0.5395 0.53196 0.32601 0.0
H2011 H 0.62577 0.50537 0.35045 0.0
H2012 H 0.60502 0.52601 0.33515 0.0
H2013 H 0.61364 0.53128 0.36653 0.0
H2014 H 0.57915 0.55687 0.36707 0.0
H2015 H 0.56953 0.59395 0.34336 0.0
H2016 H 0.33182 0.36365 0.19072 0.0
H2017 H 0.34666 0.3229 0.20362 0.0
H2018 H 0.39213 0.31915 0.13927 0.0
H2019 H 0.37807 0.36011 0.12697 0.0
H2020 H 0.34722 0.27631 0.18326 0.0
H2021 H 0.44182 0.31089 0.19328 0.0
H2022 H 0.41598 0.33112 0.18911 0.0
H2023 H 0.42956 0.31584 0.16327 0.0
C2024 C 0.34482 0.35393 0.17931 0.0
C2025 C 0.35408 0.365 0.15803 0.0
C2026 C 0.35328 0.3307 0.18665 0.0
C2027 C 0.37099 0.31819 0.17273 0.0
C2028 C 0.37904 0.32872 0.15069 0.0
H2029 H 0.43433 0.17201 0.18013 0.0
H2030 H 0.41218 0.20951 0.16831 0.0
C2031 C 0.3709 0.35202 0.14358 0.0
C2032 C 0.38195 0.29474 0.18162 0.0
H2033 H 0.43669 0.26765 0.1957 0.0
C2034 C 0.36676 0.27445 0.18604 0.0
C2035 C 0.40744 0.29236 0.18567 0.0
C2036 C 0.42463 0.31377 0.18284 0.0
C2037 C 0.37653 0.25172 0.19362 0.0
C2038 C 0.40204 0.24925 0.19678 0.0
C2039 C 0.41714 0.26959 0.19295 0.0
C2040 C 0.41353 0.22575 0.20432 0.0
C2041 C 0.35969 0.23044 0.19842 0.0
C2042 C 0.42149 0.2225 0.22847 0.0
C2043 C 0.43416 0.2012 0.23524 0.0
C2044 C 0.43941 0.1829 0.21788 0.0
C2045 C 0.43078 0.1859 0.19383 0.0
C2046 C 0.41805 0.20723 0.18709 0.0
H2047 H 0.34013 0.23567 0.19659 0.0
H2048 H 0.36379 0.21542 0.18534 0.0
H2049 H 0.36287 0.22316 0.21714 0.0
H2050 H 0.41822 0.23664 0.242 0.0
H2051 H 0.44051 0.1994 0.25392 0.0
H2052 H 0.96974 0.29736 0.79045 0.0
H2053 H 0.94416 0.26258 0.80089 0.0
H2054 H 0.88139 0.31029 0.80603 0.0
H2055 H 0.90733 0.34592 0.79624 0.0
H2056 H 0.89925 0.2699 0.84938 0.0
H2057 H 0.88224 0.23652 0.75477 0.0
H2058 H 0.91148 0.24989 0.76187 0.0
H2059 H 0.88465 0.26885 0.76181 0.0
C2060 C 0.9506 0.30073 0.79409 0.0
C2061 C 0.94075 0.32463 0.79306 0.0
C2062 C 0.93594 0.28068 0.79981 0.0
C2063 C 0.91096 0.28388 0.80422 0.0
C2064 C 0.90072 0.30754 0.80272 0.0
H2065 H 0.82473 0.16384 0.86877 0.0
H2066 H 0.83575 0.20457 0.85403 0.0
C2067 C 0.91553 0.32782 0.7971 0.0
C2068 C 0.89615 0.26222 0.811 0.0
H2069 H 0.87238 0.20959 0.78717 0.0
C2070 C 0.89283 0.2569 0.83585 0.0
C2071 C 0.88834 0.24519 0.79325 0.0
C2072 C 0.89169 0.25025 0.76636 0.0
C2073 C 0.88275 0.23445 0.84349 0.0
C2074 C 0.87531 0.21709 0.82571 0.0
C2075 C 0.87795 0.22287 0.8008 0.0
C2076 C 0.86666 0.19214 0.83262 0.0
C2077 C 0.88154 0.22897 0.87051 0.0
C2078 C 0.87944 0.17135 0.8244 0.0
C2079 C 0.87273 0.14786 0.83218 0.0
C2080 C 0.8532 0.14453 0.84865 0.0
C2081 C 0.8398 0.16541 0.85606 0.0
C2082 C 0.84632 0.18889 0.84794 0.0
H2083 H 0.89304 0.24172 0.88134 0.0
H2084 H 0.8624 0.23099 0.87689 0.0
H2085 H 0.8876 0.20987 0.87435 0.0
H2086 H 0.89505 0.17332 0.81237 0.0
H2087 H 0.8831 0.13234 0.82541 0.0
H2088 H 0.08424 0.60034 0.14537 0.0
H2089 H 0.05657 0.62951 0.12574 0.0
H2090 H 0.08033 0.60412 0.05489 0.0
H2091 H 0.10753 0.57407 0.07476 0.0
H2092 H 0.05587 0.66652 0.09443 0.0
H2093 H 0.00954 0.58642 0.05219 0.0
H2094 H 0.03404 0.58285 0.0739 0.0
H2095 H 0.04059 0.59067 0.04258 0.0
C2096 C 0.08409 0.6015 0.1256 0.0
C2097 C 0.09784 0.58485 0.11158 0.0
C2098 C 0.06819 0.61815 0.11435 0.0
C2099 C 0.06567 0.61851 0.08881 0.0
C2100 C 0.08135 0.60367 0.07465 0.0
H2101 H 0.94837 0.69244 0.00695 0.0
H2102 H 0.98715 0.67277 0.01794 0.0
C2103 C 0.09722 0.58679 0.08598 0.0
C2104 C 0.04492 0.63249 0.07772 0.0
H2105 H 0.99152 0.62503 0.04604 0.0
C2106 C 0.04195 0.65745 0.08366 0.0
C2107 C 0.02649 0.62069 0.06383 0.0
C2108 C 0.02762 0.59365 0.0579 0.0
C2109 C 0.02098 0.67068 0.07652 0.0
C2110 C 1.00252 0.65869 0.0631 0.0
C2111 C 0.00578 0.6341 0.05638 0.0
C2112 C 0.9792 0.67107 0.05661 0.0
C2113 C 0.01847 0.6973 0.08362 0.0
C2114 C 0.96167 0.67615 0.07469 0.0
C2115 C 0.93925 0.68694 0.06841 0.0
C2116 C 0.93417 0.69327 0.04401 0.0
C2117 C 0.95171 0.68787 0.02594 0.0
C2118 C 0.97395 0.67678 0.03218 0.0
H2119 H 0.03608 0.70513 0.08994 0.0
H2120 H 0.0116 0.70835 0.06796 0.0
H2121 H 1.00496 0.69896 0.09868 0.0
H2122 H 0.96521 0.67143 0.09361 0.0
H2123 H 0.92587 0.6902 0.08264 0.0
H2124 H 0.67402 0.86475 0.31487 0.0
H2125 H 0.65953 0.82364 0.3034 0.0
H2126 H 0.62054 0.81846 0.37174 0.0
H2127 H 0.63495 0.85955 0.3831 0.0
H2128 H 0.66133 0.77547 0.326 0.0
H2129 H 0.56697 0.81255 0.31859 0.0
H2130 H 0.5935 0.83206 0.32039 0.0
H2131 H 0.5814 0.81802 0.34756 0.0
C2132 C 0.66287 0.85449 0.32764 0.0
C2133 C 0.65572 0.86512 0.34992 0.0
C2134 C 0.65453 0.83109 0.32107 0.0
C2135 C 0.63863 0.81811 0.33653 0.0
C2136 C 0.63253 0.82825 0.35937 0.0
H2137 H 0.57026 0.67511 0.33222 0.0
H2138 H 0.59161 0.71291 0.34332 0.0
C2139 C 0.64092 0.85159 0.36596 0.0
C2140 C 0.62704 0.79487 0.32816 0.0
H2141 H 0.57152 0.7694 0.31492 0.0
C2142 C 0.64172 0.77416 0.32354 0.0
C2143 C 0.60145 0.79323 0.32452 0.0
C2144 C 0.58487 0.81518 0.32778 0.0
C2145 C 0.63135 0.75172 0.31613 0.0
C2146 C 0.60576 0.75 0.31325 0.0
C2147 C 0.59115 0.77077 0.31734 0.0
C2148 C 0.59371 0.72667 0.30629 0.0
C2149 C 0.64764 0.72987 0.31143 0.0
C2150 C 0.58783 0.72187 0.2818 0.0
C2151 C 0.57509 0.70051 0.27549 0.0
C2152 C 0.5679 0.68363 0.29361 0.0
C2153 C 0.57464 0.68815 0.31799 0.0
C2154 C 0.58717 0.70958 0.32431 0.0
H2155 H 0.66729 0.73424 0.31395 0.0
H2156 H 0.64265 0.71471 0.32405 0.0
H2157 H 0.64479 0.72317 0.29248 0.0
H2158 H 0.59279 0.73482 0.26761 0.0
H2159 H 0.57041 0.6975 0.2565 0.0
H2160 H 0.59076 0.33676 0.57296 0.0
H2161 H 0.5535 0.35966 0.5838 0.0
H2162 H 0.51315 0.31942 0.52936 0.0
H2163 H 0.55065 0.29729 0.51787 0.0
H2164 H 0.50357 0.37019 0.52848 0.0
H2165 H 0.49577 0.33299 0.62287 0.0
H2166 H 0.52526 0.34492 0.61483 0.0
H2167 H 0.51381 0.31825 0.59943 0.0
C2168 C 0.57385 0.33278 0.5635 0.0
C2169 C 0.57337 0.31531 0.54472 0.0
C2170 C 0.5526 0.34578 0.56969 0.0
C2171 C 0.53043 0.34105 0.5576 0.0
C2172 C 0.53002 0.32345 0.53887 0.0
H2173 H 0.37954 0.37772 0.5774 0.0
H2174 H 0.41926 0.36485 0.56117 0.0
C2175 C 0.55136 0.31081 0.53236 0.0
C2176 C 0.5077 0.35447 0.56441 0.0
H2177 H 0.4679 0.36409 0.61166 0.0
C2178 C 0.4958 0.36891 0.54668 0.0
C2179 C 0.49747 0.35268 0.58812 0.0
C2180 C 0.50854 0.33624 0.60741 0.0
C2181 C 0.47405 0.38167 0.55212 0.0
C2182 C 0.46398 0.37996 0.57584 0.0
C2183 C 0.47593 0.36569 0.59359 0.0
C2184 C 0.43999 0.39107 0.58221 0.0
C2185 C 0.4619 0.39694 0.53258 0.0
C2186 C 0.43841 0.41058 0.59892 0.0
C2187 C 0.41562 0.41817 0.60807 0.0
C2188 C 0.39418 0.40601 0.60095 0.0
C2189 C 0.39577 0.38745 0.58314 0.0
C2190 C 0.41844 0.38008 0.57385 0.0
H2191 H 0.47372 0.39922 0.51622 0.0
H2192 H 0.44467 0.38795 0.52685 0.0
H2193 H 0.4571 0.41535 0.5399 0.0
H2194 H 0.45488 0.4192 0.60568 0.0
H2195 H 0.41494 0.43232 0.62194 0.0
H2196 H 0.18919 0.65648 0.70043 0.0
H2197 H 0.15797 0.68572 0.71417 0.0
H2198 H 0.13636 0.69797 0.63925 0.0
H2199 H 0.16714 0.66806 0.62566 0.0
H2200 H 0.1606 0.73251 0.70306 0.0
H2201 H 0.07061 0.69876 0.67207 0.0
H2202 H 0.09743 0.67935 0.67279 0.0
H2203 H 0.09232 0.69999 0.64753 0.0
C2204 C 0.17711 0.66477 0.68705 0.0
C2205 C 0.18032 0.65996 0.66207 0.0
C2206 C 0.15937 0.68155 0.69485 0.0
C2207 C 0.14468 0.69405 0.6778 0.0
C2208 C 0.14704 0.68824 0.65285 0.0
H2209 H 0.07135 0.83494 0.68133 0.0
H2210 H 0.09249 0.79678 0.67006 0.0
C2211 C 0.16466 0.67121 0.64506 0.0
C2212 C 0.12961 0.71541 0.68581 0.0
H2213 H 0.07276 0.74159 0.68245 0.0
C2214 C 0.14132 0.73427 0.69878 0.0
C2215 C 0.10444 0.71786 0.68022 0.0
C2216 C 0.09041 0.69778 0.66761 0.0
C2217 C 0.12876 0.75563 0.70579 0.0
C2218 C 0.10388 0.75831 0.69961 0.0
C2219 C 0.09196 0.73947 0.68694 0.0
C2220 C 0.09009 0.78075 0.70616 0.0
C2221 C 0.14222 0.77547 0.71941 0.0
C2222 C 0.08184 0.78425 0.73017 0.0
C2223 C 0.0694 0.80576 0.73651 0.0
C2224 C 0.06505 0.82416 0.71895 0.0
C2225 C 0.07376 0.82077 0.69502 0.0
C2226 C 0.08594 0.79909 0.68861 0.0
H2227 H 0.16213 0.77163 0.72074 0.0
H2228 H 0.13951 0.79344 0.71018 0.0
H2229 H 0.13468 0.77706 0.73818 0.0
H2230 H 0.08506 0.77034 0.74398 0.0
H2231 H 0.06301 0.80792 0.75515 0.0
H2232 H 0.42964 0.81558 0.92643 0.0
H2233 H 0.46759 0.83607 0.91609 0.0
H2234 H 0.48209 0.847 0.9929 0.0
H2235 H 0.44612 0.82275 1.00314 0.0
H2236 H 0.4809 0.87819 0.92038 0.0
H2237 H 0.54786 0.82633 0.97645 0.0
H2238 H 0.51673 0.81628 0.97299 0.0
H2239 H 0.52433 0.83988 0.99479 0.0
C2240 C 0.44161 0.82107 0.94107 0.0
C2241 C 0.4356 0.81605 0.96547 0.0
C2242 C 0.46311 0.83344 0.93521 0.0
C2243 C 0.47848 0.84251 0.95369 0.0
C2244 C 0.47149 0.83913 0.97821 0.0
H2245 H 0.59322 0.95118 0.92819 0.0
H2246 H 0.56338 0.92483 0.94926 0.0
C2247 C 0.45057 0.82561 0.98405 0.0
C2248 C 0.50081 0.85669 0.94694 0.0
H2249 H 0.56222 0.86301 0.95761 0.0
C2250 C 0.49863 0.8746 0.92852 0.0
C2251 C 0.52416 0.85233 0.95753 0.0
C2252 C 0.52848 0.83249 0.97634 0.0
C2253 C 0.51888 0.88781 0.92016 0.0
C2254 C 0.54198 0.88363 0.93086 0.0
C2255 C 0.54435 0.86625 0.94963 0.0
C2256 C 0.5638 0.89659 0.92151 0.0
C2257 C 0.51561 0.90592 0.89949 0.0
C2258 C 0.5744 0.88897 0.89944 0.0
C2259 C 0.5911 0.90403 0.88734 0.0
C2260 C 0.59767 0.92684 0.89722 0.0
C2261 C 0.58853 0.93359 0.92029 0.0
C2262 C 0.57155 0.91859 0.93232 0.0
H2263 H 0.49607 0.90897 0.89488 0.0
H2264 H 0.52399 0.92379 0.90431 0.0
H2265 H 0.52508 0.89889 0.88295 0.0
H2266 H 0.56857 0.87209 0.89082 0.0
H2267 H 0.598 0.89841 0.86963 0.0
H2268 H 0.89241 0.12908 0.39378 0.0
H2269 H 0.9261 0.1505 0.41378 0.0
H2270 H 0.95252 0.08186 0.44299 0.0
H2271 H 0.91864 0.06014 0.42286 0.0
H2272 H 0.95057 0.13908 0.4731 0.0
H2273 H 1.00103 0.12349 0.38592 0.0
H2274 H 0.9685 0.12903 0.38519 0.0
H2275 H 0.98006 0.10099 0.39794 0.0
C2276 C 0.90505 0.11861 0.40497 0.0
C2277 C 0.90305 0.09293 0.40661 0.0
C2278 C 0.92421 0.13088 0.41643 0.0
C2279 C 0.94177 0.11774 0.42975 0.0
C2280 C 0.93901 0.09229 0.43285 0.0
H2281 H 0.09093 0.16586 0.45234 0.0
H2282 H 0.05359 0.14294 0.44401 0.0
C2283 C 0.91966 0.07994 0.42143 0.0
C2284 C 0.96445 0.13028 0.43742 0.0
H2285 H 0.01956 0.14867 0.41505 0.0
C2286 C 0.96585 0.14103 0.46062 0.0
C2287 C 0.98423 0.13269 0.42105 0.0
C2288 C 0.98364 0.12096 0.39609 0.0
C2289 C 0.98672 0.15417 0.46794 0.0
C2290 C 0.00634 0.15735 0.45119 0.0
C2291 C 1.00472 0.14638 0.42799 0.0
C2292 C 0.029 0.17131 0.45723 0.0
C2293 C 0.98759 0.16389 0.49374 0.0
C2294 C 0.02794 0.19506 0.4673 0.0
C2295 C 0.04944 0.20763 0.47314 0.0
C2296 C 0.07231 0.19727 0.46776 0.0
C2297 C 0.07348 0.1741 0.4568 0.0
C2298 C 0.05208 0.1611 0.4519 0.0
H2299 H 0.97559 0.15313 0.50612 0.0
H2300 H 0.00645 0.16345 0.50119 0.0
H2301 H 0.98086 0.18313 0.49388 0.0
H2302 H 0.01056 0.20397 0.47061 0.0
H2303 H 0.04822 0.22559 0.48155 0.0
loop_
_geom_bond_atom_site_label_1
_geom_bond_atom_site_label_2
_geom_bond_distance
_geom_bond_site_symmetry_2
_ccdc_geom_bond_type
Eu0 N29 2.600 . S
Eu0 N35 2.562 . S
Eu0 O44 2.462 . S
Eu0 O45 2.373 . S
Eu0 O47 2.432 . S
Eu0 O48 2.291 . S
Eu0 O52 2.335 . S
Eu0 O55 2.372 . S
Eu0 C64 2.787 . S
C1 N2 1.365 . S
C1 C4 1.405 . S
C1 C8 1.448 . S
N2 C1 1.365 . S
N2 C5 1.319 . S
N2 Eu11 2.600 . S
C3 C5 1.397 . S
C3 C6 1.367 . S
C3 H23 0.931 . S
C4 C1 1.405 . S
C4 C6 1.403 . S
C4 C10 1.439 . S
C5 N2 1.319 . S
C5 C3 1.397 . S
C5 H16 0.930 . S
C6 C3 1.367 . S
C6 C4 1.403 . S
C6 H27 0.929 1_455 S
C7 C8 1.430 . S
C7 C9 1.387 . S
C7 C13 1.404 . S
C8 C1 1.448 . S
C8 C7 1.430 . S
C8 N12 1.351 . S
C9 C7 1.387 . S
C9 C10 1.374 . S
C9 H24 0.931 . S
C10 C4 1.439 . S
C10 C9 1.374 . S
C10 H25 0.931 1_455 S
Eu11 N2 2.600 . S
Eu11 N12 2.562 . S
Eu11 O46 2.335 . S
Eu11 O49 2.372 . S
Eu11 O50 2.462 . S
Eu11 O51 2.373 . S
Eu11 O53 2.432 . S
Eu11 O54 2.291 . S
Eu11 C75 2.787 . S
N12 C8 1.351 . S
N12 Eu11 2.562 . S
N12 C14 1.325 . S
C13 C7 1.404 . S
C13 C15 1.366 . S
C13 H21 0.930 . S
C14 N12 1.325 . S
C14 C15 1.416 . S
C14 H20 0.929 . S
C15 C13 1.366 . S
C15 C14 1.416 . S
C15 H17 0.930 . S
H16 C5 0.930 . S
H17 C15 0.930 . S
H18 C33 0.930 . S
H19 C40 0.930 . S
H20 C14 0.929 . S
H21 C13 0.930 . S
H22 C36 0.929 . S
H23 C3 0.931 . S
H24 C9 0.931 . S
H25 C10 0.931 1_655 S
H26 C31 0.931 . S
H27 C6 0.929 1_655 S
H28 C39 0.930 . S
N29 Eu0 2.600 . S
N29 C30 1.365 . S
N29 C33 1.319 . S
C30 N29 1.365 . S
C30 C32 1.405 . S
C30 C38 1.448 . S
C31 H26 0.931 . S
C31 C33 1.397 . S
C31 C34 1.367 . S
C32 C30 1.405 . S
C32 C34 1.403 . S
C32 C65 1.439 . S
C33 H18 0.930 . S
C33 N29 1.319 . S
C33 C31 1.397 . S
C34 C31 1.367 . S
C34 C32 1.403 . S
C34 H41 0.929 . S
N35 Eu0 2.562 . S
N35 C36 1.325 . S
N35 C38 1.351 . S
C36 H22 0.929 . S
C36 N35 1.325 . S
C36 C40 1.416 . S
C37 C38 1.430 . S
C37 C39 1.404 . S
C37 C66 1.387 . S
C38 C30 1.448 . S
C38 N35 1.351 . S
C38 C37 1.430 . S
C39 H28 0.930 . S
C39 C37 1.404 . S
C39 C40 1.366 . S
C40 H19 0.930 . S
C40 C36 1.416 . S
C40 C39 1.366 . S
H41 C34 0.929 . S
H42 C65 0.931 . S
H43 C66 0.931 . S
O44 Eu0 2.462 . S
O44 C64 1.252 . S
O45 Eu0 2.373 . S
O45 C56 1.249 . S
O46 Eu11 2.335 . S
O46 C56 1.264 . S
O47 Eu0 2.432 . S
O47 C64 1.268 . S
O48 Eu0 2.291 . S
O48 C63 1.255 . S
O49 Eu11 2.372 . S
O49 C63 1.257 . S
O50 Eu11 2.462 . S
O50 C75 1.252 . S
O51 Eu11 2.373 . S
O51 C67 1.249 . S
O52 Eu0 2.335 . S
O52 C67 1.264 . S
O53 Eu11 2.432 . S
O53 C75 1.268 . S
O54 Eu11 2.291 . S
O54 C74 1.255 . S
O55 Eu0 2.372 . S
O55 C74 1.257 . S
C56 O45 1.249 . S
C56 O46 1.264 . S
C57 C60 1.382 . S
C57 C62 1.390 . S
C57 C64 1.506 . S
C58 C59 1.398 . S
C58 C62 1.392 . S
C59 C58 1.398 . S
C59 C61 1.372 . S
C59 H76 0.931 . S
C60 C57 1.382 . S
C60 C61 1.390 . S
C60 H77 0.931 . S
C61 C59 1.372 . S
C61 C60 1.390 . S
C61 H78 0.929 . S
C62 C57 1.390 . S
C62 C58 1.392 . S
C62 H79 0.930 . S
C63 O48 1.255 . S
C63 O49 1.257 . S
C64 Eu0 2.787 . S
C64 O44 1.252 . S
C64 O47 1.268 . S
C64 C57 1.506 . S
C65 C32 1.439 . S
C65 H42 0.931 . S
C65 C66 1.374 . S
C66 C37 1.387 . S
C66 H43 0.931 . S
C66 C65 1.374 . S
C67 O51 1.249 . S
C67 O52 1.264 . S
C68 C71 1.382 . S
C68 C72 1.390 . S
C68 C75 1.506 . S
C69 C70 1.398 . S
C69 C72 1.392 . S
C70 C69 1.398 . S
C70 C73 1.372 . S
C70 H80 0.931 . S
C71 C68 1.382 . S
C71 C73 1.390 . S
C71 H81 0.931 . S
C72 C68 1.390 . S
C72 C69 1.392 . S
C72 H82 0.930 . S
C73 C70 1.372 . S
C73 C71 1.390 . S
C73 H83 0.929 . S
C74 O54 1.255 . S
C74 O55 1.257 . S
C75 Eu11 2.787 . S
C75 O50 1.252 . S
C75 O53 1.268 . S
C75 C68 1.506 . S
H76 C59 0.931 . S
H77 C60 0.931 . S
H78 C61 0.929 . S
H79 C62 0.930 . S
H80 C70 0.931 . S
H81 C71 0.931 . S
H82 C72 0.930 . S
H83 C73 0.929 . S
Eu84 N113 2.600 . S
Eu84 N119 2.562 . S
Eu84 O128 2.462 . S
Eu84 O129 2.373 . S
Eu84 O131 2.432 . S
Eu84 O132 2.291 . S
Eu84 O136 2.335 . S
Eu84 O139 2.372 . S
Eu84 C148 2.787 . S
C85 N86 1.365 . S
C85 C88 1.405 . S
C85 C92 1.448 . S
N86 C85 1.365 . S
N86 C89 1.319 1_655 S
N86 Eu95 2.600 . S
C87 C89 1.397 . S
C87 C90 1.367 1_455 S
C87 H107 0.931 . S
C88 C85 1.405 . S
C88 C90 1.403 . S
C88 C94 1.439 . S
C89 N86 1.319 1_455 S
C89 C87 1.397 . S
C89 H100 0.930 . S
C90 C87 1.367 1_655 S
C90 C88 1.403 . S
C90 H111 0.929 . S
C91 C92 1.430 . S
C91 C93 1.387 . S
C91 C97 1.404 . S
C92 C85 1.448 . S
C92 C91 1.430 . S
C92 N96 1.351 . S
C93 C91 1.387 . S
C93 C94 1.374 . S
C93 H108 0.931 . S
C94 C88 1.439 . S
C94 C93 1.374 . S
C94 H109 0.931 . S
Eu95 N86 2.600 . S
Eu95 N96 2.562 . S
Eu95 O130 2.335 1_655 S
Eu95 O133 2.372 1_655 S
Eu95 O134 2.462 . S
Eu95 O135 2.372 1_655 S
Eu95 O137 2.432 . S
Eu95 O138 2.291 . S
Eu95 C159 2.787 . S
N96 C92 1.351 . S
N96 Eu95 2.562 . S
N96 C98 1.325 . S
C97 C91 1.404 . S
C97 C99 1.366 . S
C97 H105 0.930 . S
C98 N96 1.325 . S
C98 C99 1.416 . S
C98 H104 0.929 . S
C99 C97 1.366 . S
C99 C98 1.416 . S
C99 H101 0.930 . S
H100 C89 0.930 . S
H101 C99 0.930 . S
H102 C117 0.930 . S
H103 C124 0.930 . S
H104 C98 0.929 . S
H105 C97 0.930 . S
H106 C120 0.929 . S
H107 C87 0.931 . S
H108 C93 0.931 . S
H109 C94 0.931 . S
H110 C115 0.931 . S
H111 C90 0.929 . S
H112 C123 0.930 . S
N113 Eu84 2.600 . S
N113 C114 1.365 . S
N113 C117 1.319 . S
C114 N113 1.365 . S
C114 C116 1.405 . S
C114 C122 1.448 . S
C115 H110 0.931 . S
C115 C117 1.397 . S
C115 C118 1.367 . S
C116 C114 1.405 . S
C116 C118 1.403 . S
C116 C149 1.439 . S
C117 H102 0.930 . S
C117 N113 1.319 . S
C117 C115 1.397 . S
C118 C115 1.367 . S
C118 C116 1.403 . S
C118 H125 0.929 1_565 S
N119 Eu84 2.562 . S
N119 C120 1.325 . S
N119 C122 1.351 . S
C120 H106 0.929 . S
C120 N119 1.325 . S
C120 C124 1.416 . S
C121 C122 1.430 . S
C121 C123 1.404 . S
C121 C150 1.387 . S
C122 C114 1.448 . S
C122 N119 1.351 . S
C122 C121 1.430 . S
C123 H112 0.930 . S
C123 C121 1.404 . S
C123 C124 1.366 . S
C124 H103 0.930 . S
C124 C120 1.416 . S
C124 C123 1.366 . S
H125 C118 0.929 1_545 S
H126 C149 0.904 1_545 S
H127 C150 0.931 . S
O128 Eu84 2.462 . S
O128 C148 1.252 . S
O129 Eu84 2.373 . S
O129 C140 1.249 . S
O130 Eu95 2.335 1_455 S
O130 C140 1.264 . S
O131 Eu84 2.432 . S
O131 C148 1.268 . S
O132 Eu84 2.291 . S
O132 C147 1.255 . S
O133 Eu95 2.372 1_455 S
O133 C147 1.257 . S
O134 Eu95 2.462 . S
O134 C159 1.252 . S
O135 Eu95 2.372 1_455 S
O135 C151 1.251 . S
O136 Eu84 2.335 . S
O136 C151 1.264 . S
O137 Eu95 2.432 . S
O137 C159 1.268 . S
O138 Eu95 2.291 . S
O138 C158 1.255 . S
O139 Eu84 2.372 . S
O139 C158 1.257 1_455 S
C140 O129 1.249 . S
C140 O130 1.264 . S
C141 C144 1.382 . S
C141 C146 1.390 . S
C141 C148 1.506 . S
C142 C143 1.398 . S
C142 C146 1.392 . S
C143 C142 1.398 . S
C143 C145 1.372 . S
C143 H160 0.931 . S
C144 C141 1.382 . S
C144 C145 1.390 . S
C144 H161 0.931 . S
C145 C143 1.372 . S
C145 C144 1.390 . S
C145 H162 0.929 . S
C146 C141 1.390 . S
C146 C142 1.392 . S
C146 H163 0.930 . S
C147 O132 1.255 . S
C147 O133 1.257 . S
C148 Eu84 2.787 . S
C148 O128 1.252 . S
C148 O131 1.268 . S
C148 C141 1.506 . S
C149 C116 1.439 . S
C149 H126 0.904 1_565 S
C149 C150 1.374 . S
C150 C121 1.387 . S
C150 H127 0.931 . S
C150 C149 1.374 . S
C151 O135 1.251 . S
C151 O136 1.264 . S
C152 C155 1.382 . S
C152 C156 1.390 . S
C152 C159 1.506 . S
C153 C154 1.398 . S
C153 C156 1.392 . S
C154 C153 1.398 . S
C154 C157 1.372 . S
C154 H164 0.931 . S
C155 C152 1.382 . S
C155 C157 1.390 . S
C155 H165 0.931 . S
C156 C152 1.390 . S
C156 C153 1.392 . S
C156 H166 0.930 . S
C157 C154 1.372 . S
C157 C155 1.390 . S
C157 H167 0.929 . S
C158 O138 1.255 . S
C158 O139 1.257 1_655 S
C159 Eu95 2.787 . S
C159 O134 1.252 . S
C159 O137 1.268 . S
C159 C152 1.506 . S
H160 C143 0.931 . S
H161 C144 0.931 . S
H162 C145 0.929 . S
H163 C146 0.930 . S
H164 C154 0.931 . S
H165 C155 0.931 . S
H166 C156 0.930 . S
H167 C157 0.929 . S
Eu168 N197 2.600 . S
Eu168 N203 2.562 . S
Eu168 O212 2.462 . S
Eu168 O213 2.373 . S
Eu168 O215 2.432 . S
Eu168 O216 2.291 . S
Eu168 O220 2.335 . S
Eu168 O223 2.372 . S
Eu168 C232 2.787 . S
C169 N170 1.365 . S
C169 C172 1.405 . S
C169 C176 1.448 . S
N170 C169 1.365 . S
N170 C173 1.319 1_554 S
N170 Eu179 2.600 . S
C171 C173 1.397 . S
C171 C174 1.367 1_556 S
C171 H191 0.931 . S
C172 C169 1.405 . S
C172 C174 1.403 . S
C172 C178 1.439 . S
C173 N170 1.319 1_556 S
C173 C171 1.397 . S
C173 H184 0.930 . S
C174 C171 1.367 1_554 S
C174 C172 1.403 . S
C174 H195 0.929 . S
C175 C176 1.430 . S
C175 C177 1.387 . S
C175 C181 1.404 . S
C176 C169 1.448 . S
C176 C175 1.430 . S
C176 N180 1.351 . S
C177 C175 1.387 . S
C177 C178 1.374 . S
C177 H192 0.931 . S
C178 C172 1.439 . S
C178 C177 1.374 . S
C178 H193 0.931 . S
Eu179 N170 2.600 . S
Eu179 N180 2.562 . S
Eu179 O214 2.335 1_554 S
Eu179 O217 2.372 1_554 S
Eu179 O218 2.462 . S
Eu179 O219 2.370 1_554 S
Eu179 O221 2.432 . S
Eu179 O222 2.291 . S
Eu179 C243 2.787 . S
N180 C176 1.351 . S
N180 Eu179 2.562 . S
N180 C182 1.325 . S
C181 C175 1.404 . S
C181 C183 1.366 . S
C181 H189 0.930 . S
C182 N180 1.325 . S
C182 C183 1.416 . S
C182 H188 0.929 . S
C183 C181 1.366 . S
C183 C182 1.416 . S
C183 H185 0.930 . S
H184 C173 0.930 . S
H185 C183 0.930 . S
H186 C201 0.930 . S
H187 C208 0.930 . S
H188 C182 0.929 . S
H189 C181 0.930 . S
H190 C204 0.929 . S
H191 C171 0.931 . S
H192 C177 0.931 . S
H193 C178 0.931 . S
H194 C199 0.931 . S
H195 C174 0.929 . S
H196 C207 0.930 . S
N197 Eu168 2.600 . S
N197 C198 1.365 . S
N197 C201 1.319 . S
C198 N197 1.365 . S
C198 C200 1.405 . S
C198 C206 1.448 . S
C199 H194 0.931 . S
C199 C201 1.397 . S
C199 C202 1.367 . S
C200 C198 1.405 . S
C200 C202 1.403 . S
C200 C233 1.439 . S
C201 H186 0.930 . S
C201 N197 1.319 . S
C201 C199 1.397 . S
C202 C199 1.367 . S
C202 C200 1.403 . S
C202 H209 0.929 . S
N203 Eu168 2.562 . S
N203 C204 1.325 . S
N203 C206 1.351 . S
C204 H190 0.929 . S
C204 N203 1.325 . S
C204 C208 1.416 . S
C205 C206 1.430 . S
C205 C207 1.404 . S
C205 C234 1.387 . S
C206 C198 1.448 . S
C206 N203 1.351 . S
C206 C205 1.430 . S
C207 H196 0.930 . S
C207 C205 1.404 . S
C207 C208 1.366 . S
C208 H187 0.930 . S
C208 C204 1.416 . S
C208 C207 1.366 . S
H209 C202 0.929 . S
H210 C233 0.931 . S
H211 C234 0.931 . S
O212 Eu168 2.462 . S
O212 C232 1.252 . S
O213 Eu168 2.373 . S
O213 C224 1.249 . S
O214 Eu179 2.335 1_556 S
O214 C224 1.264 . S
O215 Eu168 2.432 . S
O215 C232 1.268 . S
O216 Eu168 2.291 . S
O216 C231 1.255 . S
O217 Eu179 2.372 1_556 S
O217 C231 1.257 . S
O218 Eu179 2.462 . S
O218 C243 1.252 . S
O219 Eu179 2.370 1_556 S
O219 C235 1.257 . S
O220 Eu168 2.335 . S
O220 C235 1.264 . S
O221 Eu179 2.432 . S
O221 C243 1.268 . S
O222 Eu179 2.291 . S
O222 C242 1.255 . S
O223 Eu168 2.372 . S
O223 C242 1.257 1_556 S
C224 O213 1.249 . S
C224 O214 1.264 . S
C225 C228 1.382 . S
C225 C230 1.390 . S
C225 C232 1.506 . S
C226 C227 1.398 . S
C226 C230 1.392 . S
C227 C226 1.398 . S
C227 C229 1.372 . S
C227 H244 0.931 . S
C228 C225 1.382 . S
C228 C229 1.390 . S
C228 H245 0.931 . S
C229 C227 1.372 . S
C229 C228 1.390 . S
C229 H246 0.929 . S
C230 C225 1.390 . S
C230 C226 1.392 . S
C230 H247 0.930 . S
C231 O216 1.255 . S
C231 O217 1.257 . S
C232 Eu168 2.787 . S
C232 O212 1.252 . S
C232 O215 1.268 . S
C232 C225 1.506 . S
C233 C200 1.439 . S
C233 H210 0.931 . S
C233 C234 1.374 . S
C234 C205 1.387 . S
C234 H211 0.931 . S
C234 C233 1.374 . S
C235 O219 1.257 . S
C235 O220 1.264 . S
C236 C239 1.382 . S
C236 C240 1.390 . S
C236 C243 1.506 . S
C237 C238 1.398 . S
C237 C240 1.392 . S
C238 C237 1.398 . S
C238 C241 1.372 . S
C238 H248 0.931 . S
C239 C236 1.382 . S
C239 C241 1.390 . S
C239 H249 0.931 . S
C240 C236 1.390 . S
C240 C237 1.392 . S
C240 H250 0.930 . S
C241 C238 1.372 . S
C241 C239 1.390 . S
C241 H251 0.929 . S
C242 O222 1.255 . S
C242 O223 1.257 1_554 S
C243 Eu179 2.787 . S
C243 O218 1.252 . S
C243 O221 1.268 . S
C243 C236 1.506 . S
H244 C227 0.931 . S
H245 C228 0.931 . S
H246 C229 0.929 . S
H247 C230 0.930 . S
H248 C238 0.931 . S
H249 C239 0.931 . S
H250 C240 0.930 . S
H251 C241 0.929 . S
Eu252 N281 2.600 . S
Eu252 N287 2.562 . S
Eu252 O296 2.462 . S
Eu252 O297 2.373 . S
Eu252 O299 2.432 . S
Eu252 O300 2.291 . S
Eu252 O304 2.335 . S
Eu252 O307 2.372 . S
Eu252 C316 2.787 . S
C253 N254 1.365 . S
C253 C256 1.405 . S
C253 C260 1.448 . S
N254 C253 1.365 . S
N254 C257 1.319 . S
N254 Eu263 2.600 . S
C255 C257 1.397 . S
C255 C258 1.367 . S
C255 H275 0.931 . S
C256 C253 1.405 . S
C256 C258 1.403 . S
C256 C262 1.439 . S
C257 N254 1.319 . S
C257 C255 1.397 . S
C257 H268 0.930 . S
C258 C255 1.367 . S
C258 C256 1.403 . S
C258 H279 0.929 . S
C259 C260 1.430 . S
C259 C261 1.387 . S
C259 C265 1.404 . S
C260 C253 1.448 . S
C260 C259 1.430 . S
C260 N264 1.351 . S
C261 C259 1.387 . S
C261 C262 1.374 . S
C261 H276 0.931 . S
C262 C256 1.439 . S
C262 C261 1.374 . S
C262 H277 0.931 . S
Eu263 N254 2.600 . S
Eu263 N264 2.562 . S
Eu263 O298 2.335 . S
Eu263 O301 2.372 . S
Eu263 O302 2.462 . S
Eu263 O303 2.373 . S
Eu263 O305 2.432 . S
Eu263 O306 2.291 . S
Eu263 C327 2.787 . S
N264 C260 1.351 . S
N264 Eu263 2.562 . S
N264 C266 1.325 . S
C265 C259 1.404 . S
C265 C267 1.366 . S
C265 H273 0.930 . S
C266 N264 1.325 . S
C266 C267 1.416 . S
C266 H272 0.929 . S
C267 C265 1.366 . S
C267 C266 1.416 . S
C267 H269 0.930 . S
H268 C257 0.930 . S
H269 C267 0.930 . S
H270 C285 0.930 . S
H271 C292 0.930 . S
H272 C266 0.929 . S
H273 C265 0.930 . S
H274 C288 0.929 . S
H275 C255 0.931 . S
H276 C261 0.931 . S
H277 C262 0.931 . S
H278 C283 0.931 . S
H279 C258 0.929 . S
H280 C291 0.930 . S
N281 Eu252 2.600 . S
N281 C282 1.365 . S
N281 C285 1.319 . S
C282 N281 1.365 . S
C282 C284 1.405 . S
C282 C290 1.448 . S
C283 H278 0.931 . S
C283 C285 1.397 . S
C283 C286 1.367 . S
C284 C282 1.405 . S
C284 C286 1.403 . S
C284 C317 1.439 . S
C285 H270 0.930 . S
C285 N281 1.319 . S
C285 C283 1.397 . S
C286 C283 1.367 . S
C286 C284 1.403 . S
C286 H293 0.929 1_545 S
N287 Eu252 2.562 . S
N287 C288 1.325 . S
N287 C290 1.351 . S
C288 H274 0.929 . S
C288 N287 1.325 . S
C288 C292 1.416 . S
C289 C290 1.430 . S
C289 C291 1.404 . S
C289 C318 1.387 . S
C290 C282 1.448 . S
C290 N287 1.351 . S
C290 C289 1.430 . S
C291 H280 0.930 . S
C291 C289 1.404 . S
C291 C292 1.366 . S
C292 H271 0.930 . S
C292 C288 1.416 . S
C292 C291 1.366 . S
H293 C286 0.929 1_565 S
H294 C317 0.931 . S
H295 C318 0.931 . S
O296 Eu252 2.462 . S
O296 C316 1.252 . S
O297 Eu252 2.373 . S
O297 C308 1.249 . S
O298 Eu263 2.335 . S
O298 C308 1.264 . S
O299 Eu252 2.432 . S
O299 C316 1.268 . S
O300 Eu252 2.291 . S
O300 C315 1.255 . S
O301 Eu263 2.372 . S
O301 C315 1.257 . S
O302 Eu263 2.462 . S
O302 C327 1.252 . S
O303 Eu263 2.373 . S
O303 C319 1.249 . S
O304 Eu252 2.335 . S
O304 C319 1.264 . S
O305 Eu263 2.432 . S
O305 C327 1.268 . S
O306 Eu263 2.291 . S
O306 C326 1.255 . S
O307 Eu252 2.372 . S
O307 C326 1.257 . S
C308 O297 1.249 . S
C308 O298 1.264 . S
C309 C312 1.382 . S
C309 C314 1.390 . S
C309 C316 1.506 . S
C310 C311 1.398 . S
C310 C314 1.392 . S
C311 C310 1.398 . S
C311 C313 1.372 . S
C311 H328 0.931 . S
C312 C309 1.382 . S
C312 C313 1.390 . S
C312 H329 0.931 . S
C313 C311 1.372 . S
C313 C312 1.390 . S
C313 H330 0.929 . S
C314 C309 1.390 . S
C314 C310 1.392 . S
C314 H331 0.930 . S
C315 O300 1.255 . S
C315 O301 1.257 . S
C316 Eu252 2.787 . S
C316 O296 1.252 . S
C316 O299 1.268 . S
C316 C309 1.506 . S
C317 C284 1.439 . S
C317 H294 0.931 . S
C317 C318 1.374 . S
C318 C289 1.387 . S
C318 H295 0.931 . S
C318 C317 1.374 . S
C319 O303 1.249 . S
C319 O304 1.264 . S
C320 C323 1.382 . S
C320 C324 1.390 . S
C320 C327 1.506 . S
C321 C322 1.398 . S
C321 C324 1.392 . S
C322 C321 1.398 . S
C322 C325 1.372 . S
C322 H332 0.931 . S
C323 C320 1.382 . S
C323 C325 1.390 . S
C323 H333 0.931 . S
C324 C320 1.390 . S
C324 C321 1.392 . S
C324 H334 0.930 . S
C325 C322 1.372 . S
C325 C323 1.390 . S
C325 H335 0.929 . S
C326 O306 1.255 . S
C326 O307 1.257 . S
C327 Eu263 2.787 . S
C327 O302 1.252 . S
C327 O305 1.268 . S
C327 C320 1.506 . S
H328 C311 0.931 . S
H329 C312 0.931 . S
H330 C313 0.929 . S
H331 C314 0.930 . S
H332 C322 0.931 . S
H333 C323 0.931 . S
H334 C324 0.930 . S
H335 C325 0.929 . S
Eu336 N365 2.600 . S
Eu336 N371 2.562 . S
Eu336 O380 2.462 . S
Eu336 O381 2.373 . S
Eu336 O383 2.432 . S
Eu336 O384 2.291 . S
Eu336 O388 2.335 . S
Eu336 O391 2.372 . S
Eu336 C400 2.787 . S
C337 N338 1.365 . S
C337 C340 1.405 . S
C337 C344 1.448 . S
N338 C337 1.365 . S
N338 C341 1.319 . S
N338 Eu347 2.600 . S
C339 C341 1.397 . S
C339 C342 1.367 . S
C339 H359 0.931 . S
C340 C337 1.405 . S
C340 C342 1.403 . S
C340 C346 1.439 . S
C341 N338 1.319 . S
C341 C339 1.397 . S
C341 H352 0.930 . S
C342 C339 1.367 . S
C342 C340 1.403 . S
C342 H363 0.929 . S
C343 C344 1.430 . S
C343 C345 1.387 . S
C343 C349 1.404 . S
C344 C337 1.448 . S
C344 C343 1.430 . S
C344 N348 1.351 . S
C345 C343 1.387 . S
C345 C346 1.374 . S
C345 H360 0.931 . S
C346 C340 1.439 . S
C346 C345 1.374 . S
C346 H361 0.931 . S
Eu347 N338 2.600 . S
Eu347 N348 2.562 . S
Eu347 O382 2.335 . S
Eu347 O385 2.372 . S
Eu347 O386 2.462 . S
Eu347 O387 2.373 . S
Eu347 O389 2.432 . S
Eu347 O390 2.291 . S
Eu347 C411 2.787 . S
N348 C344 1.351 . S
N348 Eu347 2.562 . S
N348 C350 1.325 . S
C349 C343 1.404 . S
C349 C351 1.366 . S
C349 H357 0.930 . S
C350 N348 1.325 . S
C350 C351 1.416 . S
C350 H356 0.929 . S
C351 C349 1.366 . S
C351 C350 1.416 . S
C351 H353 0.930 . S
H352 C341 0.930 . S
H353 C351 0.930 . S
H354 C369 0.930 . S
H355 C376 0.930 . S
H356 C350 0.929 . S
H357 C349 0.930 . S
H358 C372 0.929 . S
H359 C339 0.931 . S
H360 C345 0.931 . S
H361 C346 0.931 . S
H362 C367 0.931 . S
H363 C342 0.929 . S
H364 C375 0.930 . S
N365 Eu336 2.600 . S
N365 C366 1.365 . S
N365 C369 1.319 . S
C366 N365 1.365 . S
C366 C368 1.405 . S
C366 C374 1.448 . S
C367 H362 0.931 . S
C367 C369 1.397 . S
C367 C370 1.367 . S
C368 C366 1.405 . S
C368 C370 1.403 . S
C368 C401 1.439 . S
C369 H354 0.930 . S
C369 N365 1.319 . S
C369 C367 1.397 . S
C370 C367 1.367 . S
C370 C368 1.403 . S
C370 H377 0.929 . S
N371 Eu336 2.562 . S
N371 C372 1.325 . S
N371 C374 1.351 . S
C372 H358 0.929 . S
C372 N371 1.325 . S
C372 C376 1.416 . S
C373 C374 1.430 . S
C373 C375 1.404 . S
C373 C402 1.387 . S
C374 C366 1.448 . S
C374 N371 1.351 . S
C374 C373 1.430 . S
C375 H364 0.930 . S
C375 C373 1.404 . S
C375 C376 1.366 . S
C376 H355 0.930 . S
C376 C372 1.416 . S
C376 C375 1.366 . S
H377 C370 0.929 . S
H378 C401 0.931 . S
H379 C402 0.931 . S
O380 Eu336 2.462 . S
O380 C400 1.252 . S
O381 Eu336 2.373 . S
O381 C392 1.249 . S
O382 Eu347 2.335 . S
O382 C392 1.264 . S
O383 Eu336 2.432 . S
O383 C400 1.268 . S
O384 Eu336 2.291 . S
O384 C399 1.255 . S
O385 Eu347 2.372 . S
O385 C399 1.257 . S
O386 Eu347 2.462 . S
O386 C411 1.252 . S
O387 Eu347 2.373 . S
O387 C403 1.249 . S
O388 Eu336 2.335 . S
O388 C403 1.264 . S
O389 Eu347 2.432 . S
O389 C411 1.268 . S
O390 Eu347 2.291 . S
O390 C410 1.255 . S
O391 Eu336 2.372 . S
O391 C410 1.257 . S
C392 O381 1.249 . S
C392 O382 1.264 . S
C393 C396 1.382 . S
C393 C398 1.390 . S
C393 C400 1.506 . S
C394 C395 1.398 . S
C394 C398 1.392 . S
C395 C394 1.398 . S
C395 C397 1.372 . S
C395 H412 0.931 . S
C396 C393 1.382 . S
C396 C397 1.390 . S
C396 H413 0.931 . S
C397 C395 1.372 . S
C397 C396 1.390 . S
C397 H414 0.929 . S
C398 C393 1.390 . S
C398 C394 1.392 . S
C398 H415 0.930 . S
C399 O384 1.255 . S
C399 O385 1.257 . S
C400 Eu336 2.787 . S
C400 O380 1.252 . S
C400 O383 1.268 . S
C400 C393 1.506 . S
C401 C368 1.439 . S
C401 H378 0.931 . S
C401 C402 1.374 . S
C402 C373 1.387 . S
C402 H379 0.931 . S
C402 C401 1.374 . S
C403 O387 1.249 . S
C403 O388 1.264 . S
C404 C407 1.382 . S
C404 C408 1.390 . S
C404 C411 1.506 . S
C405 C406 1.398 . S
C405 C408 1.392 . S
C406 C405 1.398 . S
C406 C409 1.372 . S
C406 H416 0.931 . S
C407 C404 1.382 . S
C407 C409 1.390 . S
C407 H417 0.931 . S
C408 C404 1.390 . S
C408 C405 1.392 . S
C408 H418 0.930 . S
C409 C406 1.372 . S
C409 C407 1.390 . S
C409 H419 0.929 . S
C410 O390 1.255 . S
C410 O391 1.257 . S
C411 Eu347 2.787 . S
C411 O386 1.252 . S
C411 O389 1.268 . S
C411 C404 1.506 . S
H412 C395 0.931 . S
H413 C396 0.931 . S
H414 C397 0.929 . S
H415 C398 0.930 . S
H416 C406 0.931 . S
H417 C407 0.931 . S
H418 C408 0.930 . S
H419 C409 0.929 . S
Eu420 N449 2.600 . S
Eu420 N455 2.562 1_455 S
Eu420 O464 2.462 . S
Eu420 O465 2.373 1_455 S
Eu420 O467 2.432 . S
Eu420 O468 2.291 1_455 S
Eu420 O472 2.335 . S
Eu420 O475 2.372 . S
Eu420 C484 2.787 . S
C421 N422 1.365 . S
C421 C424 1.405 . S
C421 C428 1.448 . S
N422 C421 1.365 . S
N422 C425 1.319 . S
N422 Eu431 2.600 . S
C423 C425 1.397 . S
C423 C426 1.367 . S
C423 H443 0.931 . S
C424 C421 1.405 . S
C424 C426 1.403 . S
C424 C430 1.439 . S
C425 N422 1.319 . S
C425 C423 1.397 . S
C425 H436 0.930 . S
C426 C423 1.367 . S
C426 C424 1.403 . S
C426 H447 0.929 . S
C427 C428 1.430 . S
C427 C429 1.387 . S
C427 C433 1.404 . S
C428 C421 1.448 . S
C428 C427 1.430 . S
C428 N432 1.351 . S
C429 C427 1.387 . S
C429 C430 1.374 . S
C429 H444 0.931 . S
C430 C424 1.439 . S
C430 C429 1.374 . S
C430 H445 0.931 . S
Eu431 N422 2.600 . S
Eu431 N432 2.562 . S
Eu431 O466 2.335 . S
Eu431 O469 2.372 . S
Eu431 O470 2.462 . S
Eu431 O471 2.373 . S
Eu431 O473 2.432 . S
Eu431 O474 2.291 . S
Eu431 C495 2.787 . S
N432 C428 1.351 . S
N432 Eu431 2.562 . S
N432 C434 1.325 . S
C433 C427 1.404 . S
C433 C435 1.366 . S
C433 H441 0.930 . S
C434 N432 1.325 . S
C434 C435 1.416 . S
C434 H440 0.929 . S
C435 C433 1.366 . S
C435 C434 1.416 . S
C435 H437 0.930 . S
H436 C425 0.930 . S
H437 C435 0.930 . S
H438 C453 0.930 . S
H439 C460 0.930 . S
H440 C434 0.929 . S
H441 C433 0.930 . S
H442 C456 0.929 . S
H443 C423 0.931 . S
H444 C429 0.931 . S
H445 C430 0.931 . S
H446 C451 0.931 . S
H447 C426 0.929 . S
H448 C459 0.930 . S
N449 Eu420 2.600 . S
N449 C450 1.365 . S
N449 C453 1.319 . S
C450 N449 1.365 . S
C450 C452 1.405 . S
C450 C458 1.448 1_455 S
C451 H446 0.931 . S
C451 C453 1.397 . S
C451 C454 1.367 . S
C452 C450 1.405 . S
C452 C454 1.403 . S
C452 C485 1.439 1_455 S
C453 H438 0.930 . S
C453 N449 1.319 . S
C453 C451 1.397 . S
C454 C451 1.367 . S
C454 C452 1.403 . S
C454 H461 0.929 . S
N455 Eu420 2.562 1_655 S
N455 C456 1.325 . S
N455 C458 1.351 . S
C456 H442 0.929 . S
C456 N455 1.325 . S
C456 C460 1.416 . S
C457 C458 1.430 . S
C457 C459 1.404 . S
C457 C486 1.387 . S
C458 C450 1.448 1_655 S
C458 N455 1.351 . S
C458 C457 1.430 . S
C459 H448 0.930 . S
C459 C457 1.404 . S
C459 C460 1.366 . S
C460 H439 0.930 . S
C460 C456 1.416 . S
C460 C459 1.366 . S
H461 C454 0.929 . S
H462 C485 0.930 1_455 S
H463 C486 0.931 . S
O464 Eu420 2.462 . S
O464 C484 1.252 . S
O465 Eu420 2.373 1_655 S
O465 C476 1.249 . S
O466 Eu431 2.335 . S
O466 C476 1.264 . S
O467 Eu420 2.432 . S
O467 C484 1.268 . S
O468 Eu420 2.291 1_655 S
O468 C483 1.255 . S
O469 Eu431 2.372 . S
O469 C483 1.257 . S
O470 Eu431 2.462 . S
O470 C495 1.252 . S
O471 Eu431 2.373 . S
O471 C487 1.249 1_655 S
O472 Eu420 2.335 . S
O472 C487 1.264 . S
O473 Eu431 2.432 . S
O473 C495 1.268 . S
O474 Eu431 2.291 . S
O474 C494 1.255 . S
O475 Eu420 2.372 . S
O475 C494 1.257 1_455 S
C476 O465 1.249 . S
C476 O466 1.264 . S
C477 C480 1.382 . S
C477 C482 1.390 . S
C477 C484 1.506 . S
C478 C479 1.398 . S
C478 C482 1.392 . S
C479 C478 1.398 . S
C479 C481 1.372 . S
C479 H496 0.931 . S
C480 C477 1.382 . S
C480 C481 1.390 . S
C480 H497 0.931 . S
C481 C479 1.372 . S
C481 C480 1.390 . S
C481 H498 0.929 . S
C482 C477 1.390 . S
C482 C478 1.392 . S
C482 H499 0.930 . S
C483 O468 1.255 . S
C483 O469 1.257 . S
C484 Eu420 2.787 . S
C484 O464 1.252 . S
C484 O467 1.268 . S
C484 C477 1.506 . S
C485 C452 1.439 1_655 S
C485 H462 0.930 1_655 S
C485 C486 1.374 . S
C486 C457 1.387 . S
C486 H463 0.931 . S
C486 C485 1.374 . S
C487 O471 1.249 1_455 S
C487 O472 1.264 . S
C488 C491 1.382 . S
C488 C492 1.390 . S
C488 C495 1.506 . S
C489 C490 1.398 . S
C489 C492 1.392 . S
C490 C489 1.398 . S
C490 C493 1.372 . S
C490 H500 0.931 . S
C491 C488 1.382 . S
C491 C493 1.390 . S
C491 H501 0.931 . S
C492 C488 1.390 . S
C492 C489 1.392 . S
C492 H502 0.930 . S
C493 C490 1.372 . S
C493 C491 1.390 . S
C493 H503 0.929 . S
C494 O474 1.255 . S
C494 O475 1.257 1_655 S
C495 Eu431 2.787 . S
C495 O470 1.252 . S
C495 O473 1.268 . S
C495 C488 1.506 . S
H496 C479 0.931 . S
H497 C480 0.931 . S
H498 C481 0.929 . S
H499 C482 0.930 . S
H500 C490 0.931 . S
H501 C491 0.931 . S
H502 C492 0.930 . S
H503 C493 0.929 . S
Eu504 N533 2.600 . S
Eu504 N539 2.562 1_556 S
Eu504 O548 2.462 . S
Eu504 O549 2.373 1_556 S
Eu504 O551 2.432 . S
Eu504 O552 2.291 1_556 S
Eu504 O556 2.335 . S
Eu504 O559 2.372 . S
Eu504 C568 2.787 . S
C505 N506 1.365 . S
C505 C508 1.405 . S
C505 C512 1.448 . S
N506 C505 1.365 . S
N506 C509 1.319 . S
N506 Eu515 2.600 . S
C507 C509 1.397 . S
C507 C510 1.367 . S
C507 H527 0.931 . S
C508 C505 1.405 . S
C508 C510 1.403 . S
C508 C514 1.439 . S
C509 N506 1.319 . S
C509 C507 1.397 . S
C509 H520 0.930 . S
C510 C507 1.367 . S
C510 C508 1.403 . S
C510 H531 0.929 1_655 S
C511 C512 1.430 . S
C511 C513 1.387 . S
C511 C517 1.404 . S
C512 C505 1.448 . S
C512 C511 1.430 . S
C512 N516 1.351 . S
C513 C511 1.387 . S
C513 C514 1.374 . S
C513 H528 0.931 . S
C514 C508 1.439 . S
C514 C513 1.374 . S
C514 H529 0.931 . S
Eu515 N506 2.600 . S
Eu515 N516 2.562 . S
Eu515 O550 2.335 . S
Eu515 O553 2.372 . S
Eu515 O554 2.462 . S
Eu515 O555 2.373 . S
Eu515 O557 2.432 . S
Eu515 O558 2.291 . S
Eu515 C579 2.787 . S
N516 C512 1.351 . S
N516 Eu515 2.562 . S
N516 C518 1.325 . S
C517 C511 1.404 . S
C517 C519 1.366 . S
C517 H525 0.930 . S
C518 N516 1.325 . S
C518 C519 1.416 . S
C518 H524 0.929 . S
C519 C517 1.366 . S
C519 C518 1.416 . S
C519 H521 0.934 . S
H520 C509 0.930 . S
H521 C519 0.934 . S
H522 C537 0.930 . S
H523 C544 0.930 . S
H524 C518 0.929 . S
H525 C517 0.930 . S
H526 C540 0.929 . S
H527 C507 0.931 . S
H528 C513 0.931 . S
H529 C514 0.931 . S
H530 C535 0.931 . S
H531 C510 0.929 1_455 S
H532 C543 0.930 . S
N533 Eu504 2.600 . S
N533 C534 1.365 . S
N533 C537 1.319 . S
C534 N533 1.365 . S
C534 C536 1.405 . S
C534 C542 1.448 1_556 S
C535 H530 0.931 . S
C535 C537 1.397 . S
C535 C538 1.367 . S
C536 C534 1.405 . S
C536 C538 1.403 . S
C536 C569 1.444 . S
C537 H522 0.930 . S
C537 N533 1.319 . S
C537 C535 1.397 . S
C538 C535 1.367 . S
C538 C536 1.403 . S
C538 H545 0.929 . S
N539 Eu504 2.562 1_554 S
N539 C540 1.325 . S
N539 C542 1.351 . S
C540 H526 0.929 . S
C540 N539 1.325 . S
C540 C544 1.416 . S
C541 C542 1.430 . S
C541 C543 1.404 . S
C541 C570 1.387 . S
C542 C534 1.448 1_554 S
C542 N539 1.351 . S
C542 C541 1.430 . S
C543 H532 0.930 . S
C543 C541 1.404 . S
C543 C544 1.366 . S
C544 H523 0.930 . S
C544 C540 1.416 . S
C544 C543 1.366 . S
H545 C538 0.929 . S
H546 C569 0.932 . S
H547 C570 0.931 . S
O548 Eu504 2.462 . S
O548 C568 1.252 . S
O549 Eu504 2.373 1_554 S
O549 C560 1.249 . S
O550 Eu515 2.335 . S
O550 C560 1.264 . S
O551 Eu504 2.432 . S
O551 C568 1.268 . S
O552 Eu504 2.291 1_554 S
O552 C567 1.255 . S
O553 Eu515 2.372 . S
O553 C567 1.257 . S
O554 Eu515 2.462 . S
O554 C579 1.252 . S
O555 Eu515 2.373 . S
O555 C571 1.249 1_554 S
O556 Eu504 2.335 . S
O556 C571 1.264 . S
O557 Eu515 2.432 . S
O557 C579 1.268 . S
O558 Eu515 2.291 . S
O558 C578 1.284 . S
O559 Eu504 2.372 . S
O559 C578 1.230 1_556 S
C560 O549 1.249 . S
C560 O550 1.264 . S
C561 C564 1.382 . S
C561 C566 1.390 . S
C561 C568 1.506 . S
C562 C563 1.398 . S
C562 C566 1.392 . S
C563 C562 1.398 . S
C563 C565 1.372 . S
C563 H580 0.931 . S
C564 C561 1.382 . S
C564 C565 1.390 . S
C564 H581 0.931 . S
C565 C563 1.372 . S
C565 C564 1.390 . S
C565 H582 0.929 . S
C566 C561 1.390 . S
C566 C562 1.392 . S
C566 H583 0.930 . S
C567 O552 1.255 . S
C567 O553 1.257 . S
C568 Eu504 2.787 . S
C568 O548 1.252 . S
C568 O551 1.268 . S
C568 C561 1.506 . S
C569 C536 1.444 . S
C569 H546 0.932 . S
C569 C570 1.369 1_556 S
C570 C541 1.387 . S
C570 H547 0.931 . S
C570 C569 1.369 1_554 S
C571 O555 1.249 1_556 S
C571 O556 1.264 . S
C572 C575 1.382 . S
C572 C576 1.390 . S
C572 C579 1.506 . S
C573 C574 1.398 . S
C573 C576 1.392 . S
C574 C573 1.398 . S
C574 C577 1.372 . S
C574 H584 0.931 . S
C575 C572 1.382 . S
C575 C577 1.390 . S
C575 H585 0.931 . S
C576 C572 1.390 . S
C576 C573 1.392 . S
C576 H586 0.930 . S
C577 C574 1.372 . S
C577 C575 1.390 . S
C577 H587 0.929 . S
C578 O558 1.284 . S
C578 O559 1.230 1_554 S
C579 Eu515 2.787 . S
C579 O554 1.252 . S
C579 O557 1.268 . S
C579 C572 1.506 . S
H580 C563 0.931 . S
H581 C564 0.931 . S
H582 C565 0.929 . S
H583 C566 0.930 . S
H584 C574 0.931 . S
H585 C575 0.931 . S
H586 C576 0.930 . S
H587 C577 0.929 . S
Eu588 N617 2.600 . S
Eu588 N623 2.562 . S
Eu588 O632 2.462 . S
Eu588 O633 2.373 . S
Eu588 O635 2.432 . S
Eu588 O636 2.291 . S
Eu588 O640 2.335 . S
Eu588 O643 2.372 . S
Eu588 C652 2.787 . S
C589 N590 1.365 . S
C589 C592 1.405 . S
C589 C596 1.448 . S
N590 C589 1.365 . S
N590 C593 1.319 . S
N590 Eu599 2.600 . S
C591 C593 1.397 . S
C591 C594 1.367 . S
C591 H611 0.931 . S
C592 C589 1.405 . S
C592 C594 1.403 . S
C592 C598 1.439 . S
C593 N590 1.319 . S
C593 C591 1.397 . S
C593 H604 0.930 . S
C594 C591 1.367 . S
C594 C592 1.403 . S
C594 H615 0.929 . S
C595 C596 1.430 . S
C595 C597 1.387 . S
C595 C601 1.404 . S
C596 C589 1.448 . S
C596 C595 1.430 . S
C596 N600 1.351 . S
C597 C595 1.387 . S
C597 C598 1.374 . S
C597 H612 0.931 . S
C598 C592 1.439 . S
C598 C597 1.374 . S
C598 H613 0.931 . S
Eu599 N590 2.600 . S
Eu599 N600 2.562 . S
Eu599 O634 2.335 . S
Eu599 O637 2.372 . S
Eu599 O638 2.462 . S
Eu599 O639 2.373 . S
Eu599 O641 2.432 . S
Eu599 O642 2.291 . S
Eu599 C663 2.787 . S
N600 C596 1.351 . S
N600 Eu599 2.562 . S
N600 C602 1.325 . S
C601 C595 1.404 . S
C601 C603 1.366 . S
C601 H609 0.930 . S
C602 N600 1.325 . S
C602 C603 1.416 . S
C602 H608 0.929 . S
C603 C601 1.366 . S
C603 C602 1.416 . S
C603 H605 0.930 . S
H604 C593 0.930 . S
H605 C603 0.930 . S
H606 C621 0.930 . S
H607 C628 0.930 . S
H608 C602 0.929 . S
H609 C601 0.930 . S
H610 C624 0.929 . S
H611 C591 0.931 . S
H612 C597 0.931 . S
H613 C598 0.931 . S
H614 C619 0.931 . S
H615 C594 0.929 . S
H616 C627 0.930 . S
N617 Eu588 2.600 . S
N617 C618 1.365 . S
N617 C621 1.319 . S
C618 N617 1.365 . S
C618 C620 1.405 . S
C618 C626 1.448 . S
C619 H614 0.931 . S
C619 C621 1.397 . S
C619 C622 1.367 . S
C620 C618 1.405 . S
C620 C622 1.403 . S
C620 C653 1.439 . S
C621 H606 0.930 . S
C621 N617 1.319 . S
C621 C619 1.397 . S
C622 C619 1.367 . S
C622 C620 1.403 . S
C622 H629 0.929 . S
N623 Eu588 2.562 . S
N623 C624 1.325 . S
N623 C626 1.351 . S
C624 H610 0.929 . S
C624 N623 1.325 . S
C624 C628 1.416 . S
C625 C626 1.430 . S
C625 C627 1.404 . S
C625 C654 1.387 . S
C626 C618 1.448 . S
C626 N623 1.351 . S
C626 C625 1.430 . S
C627 H616 0.930 . S
C627 C625 1.404 . S
C627 C628 1.366 . S
C628 H607 0.930 . S
C628 C624 1.416 . S
C628 C627 1.366 . S
H629 C622 0.929 . S
H630 C653 0.931 . S
H631 C654 0.931 . S
O632 Eu588 2.462 . S
O632 C652 1.252 . S
O633 Eu588 2.373 . S
O633 C644 1.249 . S
O634 Eu599 2.335 . S
O634 C644 1.264 . S
O635 Eu588 2.432 . S
O635 C652 1.268 . S
O636 Eu588 2.291 . S
O636 C651 1.255 . S
O637 Eu599 2.372 . S
O637 C651 1.257 . S
O638 Eu599 2.462 . S
O638 C663 1.252 . S
O639 Eu599 2.373 . S
O639 C655 1.249 . S
O640 Eu588 2.335 . S
O640 C655 1.264 . S
O641 Eu599 2.432 . S
O641 C663 1.268 . S
O642 Eu599 2.291 . S
O642 C662 1.255 . S
O643 Eu588 2.372 . S
O643 C662 1.257 . S
C644 O633 1.249 . S
C644 O634 1.264 . S
C645 C648 1.382 . S
C645 C650 1.390 . S
C645 C652 1.506 . S
C646 C647 1.398 . S
C646 C650 1.392 . S
C647 C646 1.398 . S
C647 C649 1.372 . S
C647 H664 0.931 . S
C648 C645 1.382 . S
C648 C649 1.390 . S
C648 H665 0.931 . S
C649 C647 1.372 . S
C649 C648 1.390 . S
C649 H666 0.929 . S
C650 C645 1.390 . S
C650 C646 1.392 . S
C650 H667 0.930 . S
C651 O636 1.255 . S
C651 O637 1.257 . S
C652 Eu588 2.787 . S
C652 O632 1.252 . S
C652 O635 1.268 . S
C652 C645 1.506 . S
C653 C620 1.439 . S
C653 H630 0.931 . S
C653 C654 1.374 . S
C654 C625 1.387 . S
C654 H631 0.931 . S
C654 C653 1.374 . S
C655 O639 1.249 . S
C655 O640 1.264 . S
C656 C659 1.382 . S
C656 C660 1.390 . S
C656 C663 1.506 . S
C657 C658 1.398 . S
C657 C660 1.392 . S
C658 C657 1.398 . S
C658 C661 1.372 . S
C658 H668 0.931 . S
C659 C656 1.382 . S
C659 C661 1.390 . S
C659 H669 0.931 . S
C660 C656 1.390 . S
C660 C657 1.392 . S
C660 H670 0.930 . S
C661 C658 1.372 . S
C661 C659 1.390 . S
C661 H671 0.929 . S
C662 O642 1.255 . S
C662 O643 1.257 . S
C663 Eu599 2.787 . S
C663 O638 1.252 . S
C663 O641 1.268 . S
C663 C656 1.506 . S
H664 C647 0.931 . S
H665 C648 0.931 . S
H666 C649 0.929 . S
H667 C650 0.930 . S
H668 C658 0.931 . S
H669 C659 0.931 . S
H670 C660 0.930 . S
H671 C661 0.929 . S
Eu672 N701 2.600 . S
Eu672 N707 2.562 . S
Eu672 O716 2.462 . S
Eu672 O717 2.373 . S
Eu672 O719 2.432 . S
Eu672 O720 2.291 . S
Eu672 O724 2.335 . S
Eu672 O727 2.372 . S
Eu672 C736 2.787 . S
C673 N674 1.365 . S
C673 C676 1.405 . S
C673 C680 1.448 . S
N674 C673 1.365 . S
N674 C677 1.319 . S
N674 Eu683 2.600 . S
C675 C677 1.397 . S
C675 C678 1.367 . S
C675 H695 0.931 . S
C676 C673 1.405 . S
C676 C678 1.403 . S
C676 C682 1.439 . S
C677 N674 1.319 . S
C677 C675 1.397 . S
C677 H688 0.930 . S
C678 C675 1.367 . S
C678 C676 1.403 . S
C678 H699 0.929 . S
C679 C680 1.430 . S
C679 C681 1.387 . S
C679 C685 1.404 . S
C680 C673 1.448 . S
C680 C679 1.430 . S
C680 N684 1.351 . S
C681 C679 1.387 . S
C681 C682 1.374 . S
C681 H696 0.931 . S
C682 C676 1.439 . S
C682 C681 1.374 . S
C682 H697 0.931 . S
Eu683 N674 2.600 . S
Eu683 N684 2.562 . S
Eu683 O718 2.335 . S
Eu683 O721 2.372 . S
Eu683 O722 2.462 . S
Eu683 O723 2.373 . S
Eu683 O725 2.432 . S
Eu683 O726 2.291 . S
Eu683 C747 2.787 . S
N684 C680 1.351 . S
N684 Eu683 2.562 . S
N684 C686 1.325 . S
C685 C679 1.404 . S
C685 C687 1.366 . S
C685 H693 0.930 . S
C686 N684 1.325 . S
C686 C687 1.416 . S
C686 H692 0.929 . S
C687 C685 1.366 . S
C687 C686 1.416 . S
C687 H689 0.930 . S
H688 C677 0.930 . S
H689 C687 0.930 . S
H690 C705 0.930 . S
H691 C712 0.930 . S
H692 C686 0.929 . S
H693 C685 0.930 . S
H694 C708 0.929 . S
H695 C675 0.931 . S
H696 C681 0.931 . S
H697 C682 0.931 . S
H698 C703 0.931 . S
H699 C678 0.929 . S
H700 C711 0.930 . S
N701 Eu672 2.600 . S
N701 C702 1.365 . S
N701 C705 1.319 . S
C702 N701 1.365 . S
C702 C704 1.405 . S
C702 C710 1.448 . S
C703 H698 0.931 . S
C703 C705 1.397 . S
C703 C706 1.367 . S
C704 C702 1.405 . S
C704 C706 1.403 . S
C704 C737 1.439 . S
C705 H690 0.930 . S
C705 N701 1.319 . S
C705 C703 1.397 . S
C706 C703 1.367 . S
C706 C704 1.403 . S
C706 H713 0.929 1_554 S
N707 Eu672 2.562 . S
N707 C708 1.325 . S
N707 C710 1.351 . S
C708 H694 0.929 . S
C708 N707 1.325 . S
C708 C712 1.416 . S
C709 C710 1.430 . S
C709 C711 1.404 . S
C709 C738 1.387 . S
C710 C702 1.448 . S
C710 N707 1.351 . S
C710 C709 1.430 . S
C711 H700 0.930 . S
C711 C709 1.404 . S
C711 C712 1.366 . S
C712 H691 0.930 . S
C712 C708 1.416 . S
C712 C711 1.366 . S
H713 C706 0.929 1_556 S
H714 C737 0.903 1_556 S
H715 C738 0.931 . S
O716 Eu672 2.462 . S
O716 C736 1.252 . S
O717 Eu672 2.373 . S
O717 C728 1.249 . S
O718 Eu683 2.335 . S
O718 C728 1.264 . S
O719 Eu672 2.432 . S
O719 C736 1.268 . S
O720 Eu672 2.291 . S
O720 C735 1.255 . S
O721 Eu683 2.372 . S
O721 C735 1.257 . S
O722 Eu683 2.462 . S
O722 C747 1.252 . S
O723 Eu683 2.373 . S
O723 C739 1.249 . S
O724 Eu672 2.335 . S
O724 C739 1.264 . S
O725 Eu683 2.432 . S
O725 C747 1.268 . S
O726 Eu683 2.291 . S
O726 C746 1.255 . S
O727 Eu672 2.372 . S
O727 C746 1.257 . S
C728 O717 1.249 . S
C728 O718 1.264 . S
C729 C732 1.382 . S
C729 C734 1.390 . S
C729 C736 1.506 . S
C730 C731 1.398 . S
C730 C734 1.392 . S
C731 C730 1.398 . S
C731 C733 1.372 . S
C731 H748 0.931 . S
C732 C729 1.382 . S
C732 C733 1.390 . S
C732 H749 0.931 . S
C733 C731 1.372 . S
C733 C732 1.390 . S
C733 H750 0.929 . S
C734 C729 1.390 . S
C734 C730 1.392 . S
C734 H751 0.930 . S
C735 O720 1.255 . S
C735 O721 1.257 . S
C736 Eu672 2.787 . S
C736 O716 1.252 . S
C736 O719 1.268 . S
C736 C729 1.506 . S
C737 C704 1.439 . S
C737 H714 0.903 1_554 S
C737 C738 1.374 . S
C738 C709 1.387 . S
C738 H715 0.931 . S
C738 C737 1.374 . S
C739 O723 1.249 . S
C739 O724 1.264 . S
C740 C743 1.382 . S
C740 C744 1.390 . S
C740 C747 1.506 . S
C741 C742 1.398 . S
C741 C744 1.392 . S
C742 C741 1.398 . S
C742 C745 1.372 . S
C742 H752 0.931 . S
C743 C740 1.382 . S
C743 C745 1.390 . S
C743 H753 0.931 . S
C744 C740 1.390 . S
C744 C741 1.392 . S
C744 H754 0.930 . S
C745 C742 1.372 . S
C745 C743 1.390 . S
C745 H755 0.929 . S
C746 O726 1.255 . S
C746 O727 1.257 . S
C747 Eu683 2.787 . S
C747 O722 1.252 . S
C747 O725 1.268 . S
C747 C740 1.506 . S
H748 C731 0.931 . S
H749 C732 0.931 . S
H750 C733 0.929 . S
H751 C734 0.930 . S
H752 C742 0.931 . S
H753 C743 0.931 . S
H754 C744 0.930 . S
H755 C745 0.929 . S
Eu756 N785 2.600 . S
Eu756 N791 2.562 . S
Eu756 O800 2.462 . S
Eu756 O801 2.373 . S
Eu756 O803 2.432 . S
Eu756 O804 2.291 . S
Eu756 O808 2.335 . S
Eu756 O811 2.372 . S
Eu756 C820 2.787 . S
C757 N758 1.365 . S
C757 C760 1.405 . S
C757 C764 1.448 . S
N758 C757 1.365 . S
N758 C761 1.319 1_565 S
N758 Eu767 2.600 . S
C759 C761 1.397 . S
C759 C762 1.371 1_545 S
C759 H779 0.928 . S
C760 C757 1.405 . S
C760 C762 1.403 . S
C760 C766 1.439 . S
C761 N758 1.319 1_545 S
C761 C759 1.397 . S
C761 H772 0.930 . S
C762 C759 1.371 1_565 S
C762 C760 1.403 . S
C762 H783 0.929 . S
C763 C764 1.430 . S
C763 C765 1.387 . S
C763 C769 1.404 . S
C764 C757 1.448 . S
C764 C763 1.430 . S
C764 N768 1.351 . S
C765 C763 1.387 . S
C765 C766 1.374 . S
C765 H780 0.931 . S
C766 C760 1.439 . S
C766 C765 1.374 . S
C766 H781 0.931 . S
Eu767 N758 2.600 . S
Eu767 N768 2.562 . S
Eu767 O802 2.335 1_565 S
Eu767 O805 2.372 1_565 S
Eu767 O806 2.462 . S
Eu767 O807 2.377 . S
Eu767 O809 2.432 . S
Eu767 O810 2.291 . S
Eu767 C831 2.787 . S
N768 C764 1.351 . S
N768 Eu767 2.562 . S
N768 C770 1.325 . S
C769 C763 1.404 . S
C769 C771 1.366 . S
C769 H777 0.930 . S
C770 N768 1.325 . S
C770 C771 1.416 . S
C770 H776 0.929 . S
C771 C769 1.366 . S
C771 C770 1.416 . S
C771 H773 0.930 . S
H772 C761 0.930 . S
H773 C771 0.930 . S
H774 C789 0.930 . S
H775 C796 0.930 . S
H776 C770 0.929 . S
H777 C769 0.930 . S
H778 C792 0.929 . S
H779 C759 0.928 . S
H780 C765 0.931 . S
H781 C766 0.931 . S
H782 C787 0.931 . S
H783 C762 0.929 . S
H784 C795 0.930 . S
N785 Eu756 2.600 . S
N785 C786 1.365 . S
N785 C789 1.319 . S
C786 N785 1.365 . S
C786 C788 1.405 . S
C786 C794 1.448 . S
C787 H782 0.931 . S
C787 C789 1.397 . S
C787 C790 1.367 . S
C788 C786 1.405 . S
C788 C790 1.403 . S
C788 C821 1.439 . S
C789 H774 0.930 . S
C789 N785 1.319 . S
C789 C787 1.397 . S
C790 C787 1.367 . S
C790 C788 1.403 . S
C790 H797 0.929 1_556 S
N791 Eu756 2.562 . S
N791 C792 1.325 . S
N791 C794 1.351 . S
C792 H778 0.929 . S
C792 N791 1.325 . S
C792 C796 1.416 . S
C793 C794 1.430 . S
C793 C795 1.404 . S
C793 C822 1.387 . S
C794 C786 1.448 . S
C794 N791 1.351 . S
C794 C793 1.430 . S
C795 H784 0.930 . S
C795 C793 1.404 . S
C795 C796 1.366 . S
C796 H775 0.930 . S
C796 C792 1.416 . S
C796 C795 1.366 . S
H797 C790 0.929 1_554 S
H798 C821 0.931 . S
H799 C822 0.931 . S
O800 Eu756 2.462 . S
O800 C820 1.252 . S
O801 Eu756 2.373 . S
O801 C812 1.249 . S
O802 Eu767 2.335 1_545 S
O802 C812 1.264 . S
O803 Eu756 2.432 . S
O803 C820 1.268 . S
O804 Eu756 2.291 . S
O804 C819 1.255 . S
O805 Eu767 2.372 1_545 S
O805 C819 1.257 . S
O806 Eu767 2.462 . S
O806 C831 1.252 . S
O807 Eu767 2.377 . S
O807 C823 1.240 1_565 S
O808 Eu756 2.335 . S
O808 C823 1.264 . S
O809 Eu767 2.432 . S
O809 C831 1.268 . S
O810 Eu767 2.291 . S
O810 C830 1.255 . S
O811 Eu756 2.372 . S
O811 C830 1.257 1_545 S
C812 O801 1.249 . S
C812 O802 1.264 . S
C813 C816 1.382 . S
C813 C818 1.390 . S
C813 C820 1.506 . S
C814 C815 1.398 . S
C814 C818 1.392 . S
C815 C814 1.398 . S
C815 C817 1.372 . S
C815 H832 0.931 . S
C816 C813 1.382 . S
C816 C817 1.390 . S
C816 H833 0.931 . S
C817 C815 1.372 . S
C817 C816 1.390 . S
C817 H834 0.929 . S
C818 C813 1.390 . S
C818 C814 1.392 . S
C818 H835 0.930 . S
C819 O804 1.255 . S
C819 O805 1.257 . S
C820 Eu756 2.787 . S
C820 O800 1.252 . S
C820 O803 1.268 . S
C820 C813 1.506 . S
C821 C788 1.439 . S
C821 H798 0.931 . S
C821 C822 1.374 . S
C822 C793 1.387 . S
C822 H799 0.931 . S
C822 C821 1.374 . S
C823 O807 1.240 1_545 S
C823 O808 1.264 . S
C824 C827 1.382 . S
C824 C828 1.390 . S
C824 C831 1.506 . S
C825 C826 1.398 . S
C825 C828 1.392 . S
C826 C825 1.398 . S
C826 C829 1.372 . S
C826 H836 0.931 . S
C827 C824 1.382 . S
C827 C829 1.390 . S
C827 H837 0.931 . S
C828 C824 1.390 . S
C828 C825 1.392 . S
C828 H838 0.930 . S
C829 C826 1.372 . S
C829 C827 1.390 . S
C829 H839 0.929 . S
C830 O810 1.255 . S
C830 O811 1.257 1_565 S
C831 Eu767 2.787 . S
C831 O806 1.252 . S
C831 O809 1.268 . S
C831 C824 1.506 . S
H832 C815 0.931 . S
H833 C816 0.931 . S
H834 C817 0.929 . S
H835 C818 0.930 . S
H836 C826 0.931 . S
H837 C827 0.931 . S
H838 C828 0.930 . S
H839 C829 0.929 . S
Eu840 N869 2.600 . S
Eu840 N875 2.562 . S
Eu840 O884 2.462 . S
Eu840 O885 2.373 . S
Eu840 O887 2.432 . S
Eu840 O888 2.291 . S
Eu840 O892 2.335 . S
Eu840 O895 2.372 . S
Eu840 C904 2.787 . S
C841 N842 1.365 . S
C841 C844 1.405 . S
C841 C848 1.448 . S
N842 C841 1.365 . S
N842 C845 1.319 1_545 S
N842 Eu851 2.600 . S
C843 C845 1.399 . S
C843 C846 1.353 1_565 S
C843 H863 0.943 . S
C844 C841 1.405 . S
C844 C846 1.403 . S
C844 C850 1.439 . S
C845 N842 1.319 1_565 S
C845 C843 1.399 . S
C845 H856 0.930 . S
C846 C843 1.353 1_545 S
C846 C844 1.403 . S
C846 H867 0.929 . S
C847 C848 1.430 . S
C847 C849 1.387 . S
C847 C853 1.404 . S
C848 C841 1.448 . S
C848 C847 1.430 . S
C848 N852 1.351 . S
C849 C847 1.387 . S
C849 C850 1.374 . S
C849 H864 0.931 . S
C850 C844 1.439 . S
C850 C849 1.374 . S
C850 H865 0.931 . S
Eu851 N842 2.600 . S
Eu851 N852 2.562 . S
Eu851 O886 2.335 1_545 S
Eu851 O889 2.372 1_545 S
Eu851 O890 2.462 . S
Eu851 O891 2.374 . S
Eu851 O893 2.432 . S
Eu851 O894 2.291 . S
Eu851 C915 2.787 . S
N852 C848 1.351 . S
N852 Eu851 2.562 . S
N852 C854 1.325 . S
C853 C847 1.404 . S
C853 C855 1.366 . S
C853 H861 0.930 . S
C854 N852 1.325 . S
C854 C855 1.416 . S
C854 H860 0.929 . S
C855 C853 1.366 . S
C855 C854 1.416 . S
C855 H857 0.930 . S
H856 C845 0.930 . S
H857 C855 0.930 . S
H858 C873 0.930 . S
H859 C880 0.930 . S
H860 C854 0.929 . S
H861 C853 0.930 . S
H862 C876 0.929 . S
H863 C843 0.943 . S
H864 C849 0.931 . S
H865 C850 0.931 . S
H866 C871 0.931 . S
H867 C846 0.929 . S
H868 C879 0.930 . S
N869 Eu840 2.600 . S
N869 C870 1.365 . S
N869 C873 1.319 . S
C870 N869 1.365 . S
C870 C872 1.405 . S
C870 C878 1.448 . S
C871 H866 0.931 . S
C871 C873 1.397 . S
C871 C874 1.367 . S
C872 C870 1.405 . S
C872 C874 1.403 . S
C872 C905 1.439 . S
C873 H858 0.930 . S
C873 N869 1.319 . S
C873 C871 1.397 . S
C874 C871 1.367 . S
C874 C872 1.403 . S
C874 H881 0.929 . S
N875 Eu840 2.562 . S
N875 C876 1.325 . S
N875 C878 1.351 . S
C876 H862 0.929 . S
C876 N875 1.325 . S
C876 C880 1.416 . S
C877 C878 1.430 . S
C877 C879 1.404 . S
C877 C906 1.387 . S
C878 C870 1.448 . S
C878 N875 1.351 . S
C878 C877 1.430 . S
C879 H868 0.930 . S
C879 C877 1.404 . S
C879 C880 1.366 . S
C880 H859 0.930 . S
C880 C876 1.416 . S
C880 C879 1.366 . S
H881 C874 0.929 . S
H882 C905 0.931 . S
H883 C906 0.931 . S
O884 Eu840 2.462 . S
O884 C904 1.252 . S
O885 Eu840 2.373 . S
O885 C896 1.249 . S
O886 Eu851 2.335 1_565 S
O886 C896 1.264 . S
O887 Eu840 2.432 . S
O887 C904 1.268 . S
O888 Eu840 2.291 . S
O888 C903 1.255 . S
O889 Eu851 2.372 1_565 S
O889 C903 1.257 . S
O890 Eu851 2.462 . S
O890 C915 1.252 . S
O891 Eu851 2.374 . S
O891 C907 1.245 1_545 S
O892 Eu840 2.335 . S
O892 C907 1.264 . S
O893 Eu851 2.432 . S
O893 C915 1.268 . S
O894 Eu851 2.291 . S
O894 C914 1.255 . S
O895 Eu840 2.372 . S
O895 C914 1.257 1_565 S
C896 O885 1.249 . S
C896 O886 1.264 . S
C897 C900 1.382 . S
C897 C902 1.390 . S
C897 C904 1.506 . S
C898 C899 1.398 . S
C898 C902 1.392 . S
C899 C898 1.398 . S
C899 C901 1.372 . S
C899 H916 0.931 . S
C900 C897 1.382 . S
C900 C901 1.390 . S
C900 H917 0.931 . S
C901 C899 1.372 . S
C901 C900 1.390 . S
C901 H918 0.929 . S
C902 C897 1.390 . S
C902 C898 1.392 . S
C902 H919 0.930 . S
C903 O888 1.255 . S
C903 O889 1.257 . S
C904 Eu840 2.787 . S
C904 O884 1.252 . S
C904 O887 1.268 . S
C904 C897 1.506 . S
C905 C872 1.439 . S
C905 H882 0.931 . S
C905 C906 1.374 . S
C906 C877 1.387 . S
C906 H883 0.931 . S
C906 C905 1.374 . S
C907 O891 1.245 1_565 S
C907 O892 1.264 . S
C908 C911 1.382 . S
C908 C912 1.390 . S
C908 C915 1.506 . S
C909 C910 1.398 . S
C909 C912 1.392 . S
C910 C909 1.398 . S
C910 C913 1.372 . S
C910 H920 0.931 . S
C911 C908 1.382 . S
C911 C913 1.390 . S
C911 H921 0.931 . S
C912 C908 1.390 . S
C912 C909 1.392 . S
C912 H922 0.930 . S
C913 C910 1.372 . S
C913 C911 1.390 . S
C913 H923 0.929 . S
C914 O894 1.255 . S
C914 O895 1.257 1_545 S
C915 Eu851 2.787 . S
C915 O890 1.252 . S
C915 O893 1.268 . S
C915 C908 1.506 . S
H916 C899 0.931 . S
H917 C900 0.931 . S
H918 C901 0.929 . S
H919 C902 0.930 . S
H920 C910 0.931 . S
H921 C911 0.931 . S
H922 C912 0.930 . S
H923 C913 0.929 . S
Eu924 N953 2.600 . S
Eu924 N959 2.562 . S
Eu924 O968 2.462 . S
Eu924 O969 2.373 . S
Eu924 O971 2.432 . S
Eu924 O972 2.291 . S
Eu924 O976 2.335 . S
Eu924 O979 2.372 . S
Eu924 C988 2.787 . S
C925 N926 1.365 . S
C925 C928 1.405 . S
C925 C932 1.448 . S
N926 C925 1.365 . S
N926 C929 1.319 . S
N926 Eu935 2.600 . S
C927 C929 1.397 . S
C927 C930 1.367 . S
C927 H947 0.931 . S
C928 C925 1.405 . S
C928 C930 1.403 . S
C928 C934 1.439 . S
C929 N926 1.319 . S
C929 C927 1.397 . S
C929 H940 0.930 . S
C930 C927 1.367 . S
C930 C928 1.403 . S
C930 H951 0.929 . S
C931 C932 1.430 . S
C931 C933 1.387 . S
C931 C937 1.404 . S
C932 C925 1.448 . S
C932 C931 1.430 . S
C932 N936 1.351 . S
C933 C931 1.387 . S
C933 C934 1.374 . S
C933 H948 0.931 . S
C934 C928 1.439 . S
C934 C933 1.374 . S
C934 H949 0.931 . S
Eu935 N926 2.600 . S
Eu935 N936 2.562 . S
Eu935 O970 2.335 . S
Eu935 O973 2.372 . S
Eu935 O974 2.462 . S
Eu935 O975 2.373 . S
Eu935 O977 2.432 . S
Eu935 O978 2.291 . S
Eu935 C999 2.787 . S
N936 C932 1.351 . S
N936 Eu935 2.562 . S
N936 C938 1.325 . S
C937 C931 1.404 . S
C937 C939 1.366 . S
C937 H945 0.930 . S
C938 N936 1.325 . S
C938 C939 1.416 . S
C938 H944 0.929 . S
C939 C937 1.366 . S
C939 C938 1.416 . S
C939 H941 0.930 . S
H940 C929 0.930 . S
H941 C939 0.930 . S
H942 C957 0.930 . S
H943 C964 0.930 . S
H944 C938 0.929 . S
H945 C937 0.930 . S
H946 C960 0.929 . S
H947 C927 0.931 . S
H948 C933 0.931 . S
H949 C934 0.931 . S
H950 C955 0.931 . S
H951 C930 0.929 . S
H952 C963 0.930 . S
N953 Eu924 2.600 . S
N953 C954 1.365 . S
N953 C957 1.319 . S
C954 N953 1.365 . S
C954 C956 1.405 . S
C954 C962 1.448 . S
C955 H950 0.931 . S
C955 C957 1.397 . S
C955 C958 1.367 . S
C956 C954 1.405 . S
C956 C958 1.403 . S
C956 C989 1.439 . S
C957 H942 0.930 . S
C957 N953 1.319 . S
C957 C955 1.397 . S
C958 C955 1.367 . S
C958 C956 1.403 . S
C958 H965 0.929 . S
N959 Eu924 2.562 . S
N959 C960 1.325 . S
N959 C962 1.351 . S
C960 H946 0.929 . S
C960 N959 1.325 . S
C960 C964 1.416 . S
C961 C962 1.430 . S
C961 C963 1.404 . S
C961 C990 1.387 . S
C962 C954 1.448 . S
C962 N959 1.351 . S
C962 C961 1.430 . S
C963 H952 0.930 . S
C963 C961 1.404 . S
C963 C964 1.366 . S
C964 H943 0.930 . S
C964 C960 1.416 . S
C964 C963 1.366 . S
H965 C958 0.929 . S
H966 C989 0.931 . S
H967 C990 0.931 . S
O968 Eu924 2.462 . S
O968 C988 1.252 . S
O969 Eu924 2.373 . S
O969 C980 1.249 . S
O970 Eu935 2.335 . S
O970 C980 1.264 . S
O971 Eu924 2.432 . S
O971 C988 1.268 . S
O972 Eu924 2.291 . S
O972 C987 1.255 . S
O973 Eu935 2.372 . S
O973 C987 1.257 . S
O974 Eu935 2.462 . S
O974 C999 1.252 . S
O975 Eu935 2.373 . S
O975 C991 1.249 . S
O976 Eu924 2.335 . S
O976 C991 1.264 . S
O977 Eu935 2.432 . S
O977 C999 1.268 . S
O978 Eu935 2.291 . S
O978 C998 1.255 . S
O979 Eu924 2.372 . S
O979 C998 1.257 . S
C980 O969 1.249 . S
C980 O970 1.264 . S
C981 C984 1.382 . S
C981 C986 1.390 . S
C981 C988 1.506 . S
C982 C983 1.398 . S
C982 C986 1.392 . S
C983 C982 1.398 . S
C983 C985 1.372 . S
C983 H1000 0.931 . S
C984 C981 1.382 . S
C984 C985 1.390 . S
C984 H1001 0.931 . S
C985 C983 1.372 . S
C985 C984 1.390 . S
C985 H1002 0.929 . S
C986 C981 1.390 . S
C986 C982 1.392 . S
C986 H1003 0.930 . S
C987 O972 1.255 . S
C987 O973 1.257 . S
C988 Eu924 2.787 . S
C988 O968 1.252 . S
C988 O971 1.268 . S
C988 C981 1.506 . S
C989 C956 1.439 . S
C989 H966 0.931 . S
C989 C990 1.374 . S
C990 C961 1.387 . S
C990 H967 0.931 . S
C990 C989 1.374 . S
C991 O975 1.249 . S
C991 O976 1.264 . S
C992 C995 1.382 . S
C992 C996 1.390 . S
C992 C999 1.506 . S
C993 C994 1.398 . S
C993 C996 1.392 . S
C994 C993 1.398 . S
C994 C997 1.372 . S
C994 H1004 0.931 . S
C995 C992 1.382 . S
C995 C997 1.390 . S
C995 H1005 0.931 . S
C996 C992 1.390 . S
C996 C993 1.392 . S
C996 H1006 0.930 . S
C997 C994 1.372 . S
C997 C995 1.390 . S
C997 H1007 0.929 . S
C998 O978 1.255 . S
C998 O979 1.257 . S
C999 Eu935 2.787 . S
C999 O974 1.252 . S
C999 O977 1.268 . S
C999 C992 1.506 . S
H1000 C983 0.931 . S
H1001 C984 0.931 . S
H1002 C985 0.929 . S
H1003 C986 0.930 . S
H1004 C994 0.931 . S
H1005 C995 0.931 . S
H1006 C996 0.930 . S
H1007 C997 0.929 . S
H1008 C1016 0.929 . S
H1009 C1018 0.930 . S
H1010 C1020 0.930 . S
H1011 C1023 0.929 . S
H1012 C1026 0.930 . S
H1013 C1028 0.960 . S
H1014 C1028 0.960 . S
H1015 C1028 0.960 . S
C1016 H1008 0.929 . S
C1016 C1017 1.377 . S
C1016 C1018 1.384 . S
C1017 C1016 1.377 . S
C1017 C1023 1.390 . S
C1018 H1009 0.930 . S
C1018 C1016 1.384 . S
C1018 C1019 1.372 . S
C1019 C1018 1.372 . S
C1019 C1020 1.400 . S
C1019 C1024 1.490 . S
C1020 H1010 0.930 . S
C1020 C1019 1.400 . S
C1020 C1023 1.386 . S
H1021 C1037 0.930 . S
H1022 C1038 0.931 . S
C1023 H1011 0.929 . S
C1023 C1017 1.390 . S
C1023 C1020 1.386 . S
C1024 C1019 1.490 . S
C1024 C1026 1.395 . S
C1024 C1027 1.403 . S
H1025 C1031 0.930 . S
C1026 H1012 0.930 . S
C1026 C1024 1.395 . S
C1026 C1029 1.403 . S
C1027 C1024 1.403 . S
C1027 C1028 1.524 . S
C1027 C1031 1.400 . S
C1028 H1013 0.960 . S
C1028 H1014 0.960 . S
C1028 H1015 0.960 . S
C1028 C1027 1.524 . S
C1029 C1026 1.403 . S
C1029 C1030 1.392 . S
C1029 C1033 1.495 . S
C1030 C1029 1.392 . S
C1030 C1031 1.385 . S
C1030 C1032 1.478 . S
C1031 H1025 0.930 . S
C1031 C1027 1.400 . S
C1031 C1030 1.385 . S
C1032 C1030 1.478 . S
C1032 C1034 1.381 . S
C1032 C1038 1.383 . S
C1033 C1029 1.495 . S
C1033 H1039 0.959 . S
C1033 H1040 0.961 . S
C1033 H1041 0.960 . S
C1034 C1032 1.381 . S
C1034 C1035 1.394 . S
C1034 H1042 0.930 . S
C1035 C1034 1.394 . S
C1035 C1036 1.383 . S
C1035 H1043 0.929 . S
C1036 C1035 1.383 . S
C1036 C1037 1.377 . S
C1037 H1021 0.930 . S
C1037 C1036 1.377 . S
C1037 C1038 1.379 . S
C1038 H1022 0.931 . S
C1038 C1032 1.383 . S
C1038 C1037 1.379 . S
H1039 C1033 0.959 . S
H1040 C1033 0.961 . S
H1041 C1033 0.960 . S
H1042 C1034 0.930 . S
H1043 C1035 0.929 . S
H1044 C1052 0.929 . S
H1045 C1054 0.930 . S
H1046 C1056 0.930 . S
H1047 C1059 0.929 1_545 S
H1048 C1062 0.930 . S
H1049 C1064 0.960 . S
H1050 C1064 0.960 . S
H1051 C1064 0.960 . S
C1052 H1044 0.929 . S
C1052 C1053 1.377 . S
C1052 C1054 1.384 . S
C1053 C1052 1.377 . S
C1053 C1059 1.390 . S
C1054 H1045 0.930 . S
C1054 C1052 1.384 . S
C1054 C1055 1.372 . S
C1055 C1054 1.372 . S
C1055 C1056 1.400 . S
C1055 C1060 1.490 . S
C1056 H1046 0.930 . S
C1056 C1055 1.400 . S
C1056 C1059 1.386 . S
H1057 C1073 0.930 . S
H1058 C1074 0.931 . S
C1059 H1047 0.929 1_565 S
C1059 C1053 1.390 . S
C1059 C1056 1.386 . S
C1060 C1055 1.490 . S
C1060 C1062 1.395 . S
C1060 C1063 1.403 . S
H1061 C1067 0.930 . S
C1062 H1048 0.930 . S
C1062 C1060 1.395 . S
C1062 C1065 1.403 . S
C1063 C1060 1.403 . S
C1063 C1064 1.524 1_565 S
C1063 C1067 1.400 . S
C1064 H1049 0.960 . S
C1064 H1050 0.960 . S
C1064 H1051 0.960 . S
C1064 C1063 1.524 1_545 S
C1065 C1062 1.403 . S
C1065 C1066 1.392 . S
C1065 C1069 1.495 . S
C1066 C1065 1.392 . S
C1066 C1067 1.385 . S
C1066 C1068 1.478 . S
C1067 H1061 0.930 . S
C1067 C1063 1.400 . S
C1067 C1066 1.385 . S
C1068 C1066 1.478 . S
C1068 C1070 1.381 . S
C1068 C1074 1.383 . S
C1069 C1065 1.495 . S
C1069 H1075 0.959 . S
C1069 H1076 0.961 . S
C1069 H1077 0.960 . S
C1070 C1068 1.381 . S
C1070 C1071 1.394 . S
C1070 H1078 0.930 . S
C1071 C1070 1.394 . S
C1071 C1072 1.383 . S
C1071 H1079 0.929 . S
C1072 C1071 1.383 . S
C1072 C1073 1.377 . S
C1073 H1057 0.930 . S
C1073 C1072 1.377 . S
C1073 C1074 1.379 . S
C1074 H1058 0.931 . S
C1074 C1068 1.383 . S
C1074 C1073 1.379 . S
H1075 C1069 0.959 . S
H1076 C1069 0.961 . S
H1077 C1069 0.960 . S
H1078 C1070 0.930 . S
H1079 C1071 0.929 . S
H1080 C1088 0.929 1_556 S
H1081 C1090 0.930 . S
H1082 C1092 0.930 . S
H1083 C1095 0.929 . S
H1084 C1098 0.887 1_556 S
H1085 C1100 0.960 . S
H1086 C1100 0.960 . S
H1087 C1100 0.960 . S
C1088 H1080 0.929 1_554 S
C1088 C1089 1.377 . S
C1088 C1090 1.384 . S
C1089 C1088 1.377 . S
C1089 C1095 1.390 . S
C1090 H1081 0.930 . S
C1090 C1088 1.384 . S
C1090 C1091 1.372 . S
C1091 C1090 1.372 . S
C1091 C1092 1.400 . S
C1091 C1096 1.490 . S
C1092 H1082 0.930 . S
C1092 C1091 1.400 . S
C1092 C1095 1.386 . S
H1093 C1109 0.930 . S
H1094 C1110 0.931 . S
C1095 H1083 0.929 . S
C1095 C1089 1.390 . S
C1095 C1092 1.386 . S
C1096 C1091 1.490 . S
C1096 C1098 1.395 . S
C1096 C1099 1.403 . S
H1097 C1103 0.930 . S
C1098 H1084 0.887 1_554 S
C1098 C1096 1.395 . S
C1098 C1101 1.403 . S
C1099 C1096 1.403 . S
C1099 C1100 1.524 . S
C1099 C1103 1.400 . S
C1100 H1085 0.960 . S
C1100 H1086 0.960 . S
C1100 H1087 0.960 . S
C1100 C1099 1.524 . S
C1101 C1098 1.403 . S
C1101 C1102 1.392 . S
C1101 C1105 1.495 . S
C1102 C1101 1.392 . S
C1102 C1103 1.385 . S
C1102 C1104 1.478 . S
C1103 H1097 0.930 . S
C1103 C1099 1.400 . S
C1103 C1102 1.385 . S
C1104 C1102 1.478 . S
C1104 C1106 1.381 . S
C1104 C1110 1.383 . S
C1105 C1101 1.495 . S
C1105 H1111 0.959 1_554 S
C1105 H1112 0.961 . S
C1105 H1113 0.960 . S
C1106 C1104 1.381 . S
C1106 C1107 1.394 . S
C1106 H1114 0.930 . S
C1107 C1106 1.394 . S
C1107 C1108 1.383 . S
C1107 H1115 0.929 . S
C1108 C1107 1.383 . S
C1108 C1109 1.377 . S
C1109 H1093 0.930 . S
C1109 C1108 1.377 . S
C1109 C1110 1.379 . S
C1110 H1094 0.931 . S
C1110 C1104 1.383 . S
C1110 C1109 1.379 . S
H1111 C1105 0.959 1_556 S
H1112 C1105 0.961 . S
H1113 C1105 0.960 . S
H1114 C1106 0.930 . S
H1115 C1107 0.929 . S
H1116 C1124 0.929 . S
H1117 C1126 0.930 . S
H1118 C1128 0.930 . S
H1119 C1131 0.929 . S
H1120 C1134 0.930 . S
H1121 C1136 0.960 . S
H1122 C1136 0.960 . S
H1123 C1136 0.960 . S
C1124 H1116 0.929 . S
C1124 C1125 1.377 . S
C1124 C1126 1.384 . S
C1125 C1124 1.377 . S
C1125 C1131 1.390 . S
C1126 H1117 0.930 . S
C1126 C1124 1.384 . S
C1126 C1127 1.372 . S
C1127 C1126 1.372 . S
C1127 C1128 1.400 . S
C1127 C1132 1.490 . S
C1128 H1118 0.930 . S
C1128 C1127 1.400 . S
C1128 C1131 1.386 . S
H1129 C1145 0.930 . S
H1130 C1146 0.917 1_565 S
C1131 H1119 0.929 . S
C1131 C1125 1.390 . S
C1131 C1128 1.386 . S
C1132 C1127 1.490 . S
C1132 C1134 1.395 . S
C1132 C1135 1.403 . S
H1133 C1139 0.930 . S
C1134 H1120 0.930 . S
C1134 C1132 1.395 . S
C1134 C1137 1.403 . S
C1135 C1132 1.403 . S
C1135 C1136 1.524 . S
C1135 C1139 1.400 . S
C1136 H1121 0.960 . S
C1136 H1122 0.960 . S
C1136 H1123 0.960 . S
C1136 C1135 1.524 . S
C1137 C1134 1.403 . S
C1137 C1138 1.392 . S
C1137 C1141 1.495 . S
C1138 C1137 1.392 . S
C1138 C1139 1.385 . S
C1138 C1140 1.478 . S
C1139 H1133 0.930 . S
C1139 C1135 1.400 . S
C1139 C1138 1.385 . S
C1140 C1138 1.478 . S
C1140 C1142 1.381 . S
C1140 C1146 1.405 . S
C1141 C1137 1.495 . S
C1141 H1147 0.959 . S
C1141 H1148 0.961 . S
C1141 H1149 0.960 . S
C1142 C1140 1.381 . S
C1142 C1143 1.394 . S
C1142 H1150 0.930 . S
C1143 C1142 1.394 . S
C1143 C1144 1.383 . S
C1143 H1151 0.929 . S
C1144 C1143 1.383 . S
C1144 C1145 1.377 1_545 S
C1145 H1129 0.930 . S
C1145 C1144 1.377 1_565 S
C1145 C1146 1.371 1_565 S
C1146 H1130 0.917 1_545 S
C1146 C1140 1.405 . S
C1146 C1145 1.371 1_545 S
H1147 C1141 0.959 . S
H1148 C1141 0.961 . S
H1149 C1141 0.960 . S
H1150 C1142 0.930 . S
H1151 C1143 0.929 . S
H1152 C1160 0.929 . S
H1153 C1162 0.930 . S
H1154 C1164 0.930 . S
H1155 C1167 0.929 . S
H1156 C1170 0.930 . S
H1157 C1172 0.960 . S
H1158 C1172 0.960 . S
H1159 C1172 0.960 . S
C1160 H1152 0.929 . S
C1160 C1161 1.377 . S
C1160 C1162 1.384 . S
C1161 C1160 1.377 . S
C1161 C1167 1.390 . S
C1162 H1153 0.930 . S
C1162 C1160 1.384 . S
C1162 C1163 1.372 . S
C1163 C1162 1.372 . S
C1163 C1164 1.400 . S
C1163 C1168 1.490 . S
C1164 H1154 0.930 . S
C1164 C1163 1.400 . S
C1164 C1167 1.386 . S
H1165 C1181 0.930 . S
H1166 C1182 0.931 . S
C1167 H1155 0.929 . S
C1167 C1161 1.390 . S
C1167 C1164 1.386 . S
C1168 C1163 1.490 . S
C1168 C1170 1.395 . S
C1168 C1171 1.403 . S
H1169 C1175 0.930 . S
C1170 H1156 0.930 . S
C1170 C1168 1.395 . S
C1170 C1173 1.403 . S
C1171 C1168 1.403 . S
C1171 C1172 1.524 . S
C1171 C1175 1.400 . S
C1172 H1157 0.960 . S
C1172 H1158 0.960 . S
C1172 H1159 0.960 . S
C1172 C1171 1.524 . S
C1173 C1170 1.403 . S
C1173 C1174 1.392 . S
C1173 C1177 1.495 . S
C1174 C1173 1.392 . S
C1174 C1175 1.385 . S
C1174 C1176 1.478 . S
C1175 H1169 0.930 . S
C1175 C1171 1.400 . S
C1175 C1174 1.385 . S
C1176 C1174 1.478 . S
C1176 C1178 1.381 . S
C1176 C1182 1.383 . S
C1177 C1173 1.495 . S
C1177 H1183 0.959 . S
C1177 H1184 0.961 . S
C1177 H1185 0.960 . S
C1178 C1176 1.381 . S
C1178 C1179 1.394 . S
C1178 H1186 0.930 . S
C1179 C1178 1.394 . S
C1179 C1180 1.383 . S
C1179 H1187 0.929 . S
C1180 C1179 1.383 . S
C1180 C1181 1.377 . S
C1181 H1165 0.930 . S
C1181 C1180 1.377 . S
C1181 C1182 1.379 . S
C1182 H1166 0.931 . S
C1182 C1176 1.383 . S
C1182 C1181 1.379 . S
H1183 C1177 0.959 . S
H1184 C1177 0.961 . S
H1185 C1177 0.960 . S
H1186 C1178 0.930 . S
H1187 C1179 0.929 . S
H1188 C1196 0.929 . S
H1189 C1198 0.930 . S
H1190 C1200 0.930 . S
H1191 C1203 0.929 . S
H1192 C1206 0.930 . S
H1193 C1208 0.960 . S
H1194 C1208 0.960 . S
H1195 C1208 0.960 . S
C1196 H1188 0.929 . S
C1196 C1197 1.377 . S
C1196 C1198 1.384 . S
C1197 C1196 1.377 . S
C1197 C1203 1.390 . S
C1198 H1189 0.930 . S
C1198 C1196 1.384 . S
C1198 C1199 1.372 . S
C1199 C1198 1.372 . S
C1199 C1200 1.400 . S
C1199 C1204 1.490 . S
C1200 H1190 0.930 . S
C1200 C1199 1.400 . S
C1200 C1203 1.386 . S
H1201 C1217 0.930 . S
H1202 C1218 0.931 . S
C1203 H1191 0.929 . S
C1203 C1197 1.390 . S
C1203 C1200 1.386 . S
C1204 C1199 1.490 . S
C1204 C1206 1.395 . S
C1204 C1207 1.403 . S
H1205 C1211 0.930 . S
C1206 H1192 0.930 . S
C1206 C1204 1.395 . S
C1206 C1209 1.403 . S
C1207 C1204 1.403 . S
C1207 C1208 1.524 . S
C1207 C1211 1.400 . S
C1208 H1193 0.960 . S
C1208 H1194 0.960 . S
C1208 H1195 0.960 . S
C1208 C1207 1.524 . S
C1209 C1206 1.403 . S
C1209 C1210 1.392 . S
C1209 C1213 1.495 . S
C1210 C1209 1.392 . S
C1210 C1211 1.385 . S
C1210 C1212 1.478 . S
C1211 H1205 0.930 . S
C1211 C1207 1.400 . S
C1211 C1210 1.385 . S
C1212 C1210 1.478 . S
C1212 C1214 1.381 . S
C1212 C1218 1.383 . S
C1213 C1209 1.495 . S
C1213 H1219 0.959 . S
C1213 H1220 0.961 . S
C1213 H1221 0.960 . S
C1214 C1212 1.381 . S
C1214 C1215 1.394 . S
C1214 H1222 0.930 . S
C1215 C1214 1.394 . S
C1215 C1216 1.383 . S
C1215 H1223 0.929 . S
C1216 C1215 1.383 . S
C1216 C1217 1.377 . S
C1217 H1201 0.930 . S
C1217 C1216 1.377 . S
C1217 C1218 1.379 . S
C1218 H1202 0.931 . S
C1218 C1212 1.383 . S
C1218 C1217 1.379 . S
H1219 C1213 0.959 . S
H1220 C1213 0.961 . S
H1221 C1213 0.960 . S
H1222 C1214 0.930 . S
H1223 C1215 0.929 . S
H1224 C1232 0.929 . S
H1225 C1234 0.930 . S
H1226 C1236 0.930 . S
H1227 C1239 0.929 . S
H1228 C1242 0.930 . S
H1229 C1244 0.960 . S
H1230 C1244 0.960 . S
H1231 C1244 0.960 . S
C1232 H1224 0.929 . S
C1232 C1233 1.377 . S
C1232 C1234 1.384 . S
C1233 C1232 1.377 . S
C1233 C1239 1.390 . S
C1234 H1225 0.930 . S
C1234 C1232 1.384 . S
C1234 C1235 1.372 . S
C1235 C1234 1.372 . S
C1235 C1236 1.400 . S
C1235 C1240 1.490 . S
C1236 H1226 0.930 . S
C1236 C1235 1.400 . S
C1236 C1239 1.386 . S
H1237 C1253 0.930 . S
H1238 C1254 0.931 1_554 S
C1239 H1227 0.929 . S
C1239 C1233 1.390 . S
C1239 C1236 1.386 . S
C1240 C1235 1.490 . S
C1240 C1242 1.395 . S
C1240 C1243 1.403 . S
H1241 C1247 0.930 . S
C1242 H1228 0.930 . S
C1242 C1240 1.395 . S
C1242 C1245 1.403 . S
C1243 C1240 1.403 . S
C1243 C1244 1.524 . S
C1243 C1247 1.400 . S
C1244 H1229 0.960 . S
C1244 H1230 0.960 . S
C1244 H1231 0.960 . S
C1244 C1243 1.524 . S
C1245 C1242 1.403 . S
C1245 C1246 1.392 . S
C1245 C1249 1.495 . S
C1246 C1245 1.392 . S
C1246 C1247 1.385 . S
C1246 C1248 1.478 . S
C1247 H1241 0.930 . S
C1247 C1243 1.400 . S
C1247 C1246 1.385 . S
C1248 C1246 1.478 . S
C1248 C1250 1.381 . S
C1248 C1254 1.383 . S
C1249 C1245 1.495 . S
C1249 H1255 0.959 . S
C1249 H1256 0.961 . S
C1249 H1257 0.960 . S
C1250 C1248 1.381 . S
C1250 C1251 1.394 . S
C1250 H1258 0.930 . S
C1251 C1250 1.394 . S
C1251 C1252 1.383 . S
C1251 H1259 0.929 . S
C1252 C1251 1.383 . S
C1252 C1253 1.377 1_556 S
C1253 H1237 0.930 . S
C1253 C1252 1.377 1_554 S
C1253 C1254 1.379 1_554 S
C1254 H1238 0.931 1_556 S
C1254 C1248 1.383 . S
C1254 C1253 1.379 1_556 S
H1255 C1249 0.959 . S
H1256 C1249 0.961 . S
H1257 C1249 0.960 . S
H1258 C1250 0.930 . S
H1259 C1251 0.929 . S
H1260 C1268 0.929 . S
H1261 C1270 0.930 . S
H1262 C1272 0.930 . S
H1263 C1275 0.929 . S
H1264 C1278 0.930 . S
H1265 C1280 0.960 . S
H1266 C1280 0.960 . S
H1267 C1280 0.960 . S
C1268 H1260 0.929 . S
C1268 C1269 1.377 . S
C1268 C1270 1.384 . S
C1269 C1268 1.377 . S
C1269 C1275 1.390 . S
C1270 H1261 0.930 . S
C1270 C1268 1.384 . S
C1270 C1271 1.372 . S
C1271 C1270 1.372 . S
C1271 C1272 1.400 . S
C1271 C1276 1.490 . S
C1272 H1262 0.930 . S
C1272 C1271 1.400 . S
C1272 C1275 1.386 . S
H1273 C1289 0.930 . S
H1274 C1290 0.931 . S
C1275 H1263 0.929 . S
C1275 C1269 1.390 . S
C1275 C1272 1.386 . S
C1276 C1271 1.490 . S
C1276 C1278 1.395 . S
C1276 C1279 1.403 . S
H1277 C1283 0.930 . S
C1278 H1264 0.930 . S
C1278 C1276 1.395 . S
C1278 C1281 1.403 . S
C1279 C1276 1.403 . S
C1279 C1280 1.524 . S
C1279 C1283 1.400 . S
C1280 H1265 0.960 . S
C1280 H1266 0.960 . S
C1280 H1267 0.960 . S
C1280 C1279 1.524 . S
C1281 C1278 1.403 . S
C1281 C1282 1.392 . S
C1281 C1285 1.495 . S
C1282 C1281 1.392 . S
C1282 C1283 1.385 . S
C1282 C1284 1.478 . S
C1283 H1277 0.930 . S
C1283 C1279 1.400 . S
C1283 C1282 1.385 . S
C1284 C1282 1.478 . S
C1284 C1286 1.381 . S
C1284 C1290 1.383 . S
C1285 C1281 1.495 . S
C1285 H1291 0.959 . S
C1285 H1292 0.961 . S
C1285 H1293 0.960 . S
C1286 C1284 1.381 . S
C1286 C1287 1.394 . S
C1286 H1294 0.930 . S
C1287 C1286 1.394 . S
C1287 C1288 1.383 . S
C1287 H1295 0.929 . S
C1288 C1287 1.383 . S
C1288 C1289 1.377 . S
C1289 H1273 0.930 . S
C1289 C1288 1.377 . S
C1289 C1290 1.379 . S
C1290 H1274 0.931 . S
C1290 C1284 1.383 . S
C1290 C1289 1.379 . S
H1291 C1285 0.959 . S
H1292 C1285 0.961 . S
H1293 C1285 0.960 . S
H1294 C1286 0.930 . S
H1295 C1287 0.929 . S
H1296 C1304 0.929 . S
H1297 C1306 0.930 . S
H1298 C1308 0.930 . S
H1299 C1311 0.929 . S
H1300 C1314 0.930 . S
H1301 C1316 0.960 . S
H1302 C1316 0.960 . S
H1303 C1316 0.960 . S
C1304 H1296 0.929 . S
C1304 C1305 1.377 . S
C1304 C1306 1.384 . S
C1305 C1304 1.377 . S
C1305 C1311 1.390 . S
C1306 H1297 0.930 . S
C1306 C1304 1.384 . S
C1306 C1307 1.372 . S
C1307 C1306 1.372 . S
C1307 C1308 1.400 . S
C1307 C1312 1.490 . S
C1308 H1298 0.930 . S
C1308 C1307 1.400 . S
C1308 C1311 1.386 . S
H1309 C1325 0.930 . S
H1310 C1326 0.931 . S
C1311 H1299 0.929 . S
C1311 C1305 1.390 . S
C1311 C1308 1.386 . S
C1312 C1307 1.490 . S
C1312 C1314 1.395 . S
C1312 C1315 1.403 . S
H1313 C1319 0.930 . S
C1314 H1300 0.930 . S
C1314 C1312 1.395 . S
C1314 C1317 1.403 . S
C1315 C1312 1.403 . S
C1315 C1316 1.524 . S
C1315 C1319 1.400 . S
C1316 H1301 0.960 . S
C1316 H1302 0.960 . S
C1316 H1303 0.960 . S
C1316 C1315 1.524 . S
C1317 C1314 1.403 . S
C1317 C1318 1.392 . S
C1317 C1321 1.495 . S
C1318 C1317 1.392 . S
C1318 C1319 1.385 . S
C1318 C1320 1.478 . S
C1319 H1313 0.930 . S
C1319 C1315 1.400 . S
C1319 C1318 1.385 . S
C1320 C1318 1.478 . S
C1320 C1322 1.381 . S
C1320 C1326 1.383 . S
C1321 C1317 1.495 . S
C1321 H1327 0.959 . S
C1321 H1328 0.961 . S
C1321 H1329 0.960 . S
C1322 C1320 1.381 . S
C1322 C1323 1.394 . S
C1322 H1330 0.930 . S
C1323 C1322 1.394 . S
C1323 C1324 1.383 . S
C1323 H1331 0.929 . S
C1324 C1323 1.383 . S
C1324 C1325 1.377 . S
C1325 H1309 0.930 . S
C1325 C1324 1.377 . S
C1325 C1326 1.379 . S
C1326 H1310 0.931 . S
C1326 C1320 1.383 . S
C1326 C1325 1.379 . S
H1327 C1321 0.959 . S
H1328 C1321 0.961 . S
H1329 C1321 0.960 . S
H1330 C1322 0.930 . S
H1331 C1323 0.929 . S
H1332 C1340 0.929 . S
H1333 C1342 0.930 . S
H1334 C1344 0.930 . S
H1335 C1347 0.929 . S
H1336 C1350 0.930 . S
H1337 C1352 0.960 . S
H1338 C1352 0.960 . S
H1339 C1352 0.960 . S
C1340 H1332 0.929 . S
C1340 C1341 1.377 . S
C1340 C1342 1.384 . S
C1341 C1340 1.377 . S
C1341 C1347 1.390 . S
C1342 H1333 0.930 . S
C1342 C1340 1.384 . S
C1342 C1343 1.372 . S
C1343 C1342 1.372 . S
C1343 C1344 1.400 . S
C1343 C1348 1.490 . S
C1344 H1334 0.930 . S
C1344 C1343 1.400 . S
C1344 C1347 1.386 . S
H1345 C1361 0.926 1_655 S
H1346 C1362 0.931 . S
C1347 H1335 0.929 . S
C1347 C1341 1.390 . S
C1347 C1344 1.386 . S
C1348 C1343 1.490 . S
C1348 C1350 1.395 . S
C1348 C1351 1.403 . S
H1349 C1355 0.930 . S
C1350 H1336 0.930 . S
C1350 C1348 1.395 . S
C1350 C1353 1.403 . S
C1351 C1348 1.403 . S
C1351 C1352 1.524 . S
C1351 C1355 1.400 . S
C1352 H1337 0.960 . S
C1352 H1338 0.960 . S
C1352 H1339 0.960 . S
C1352 C1351 1.524 . S
C1353 C1350 1.403 . S
C1353 C1354 1.392 . S
C1353 C1357 1.495 1_455 S
C1354 C1353 1.392 . S
C1354 C1355 1.385 . S
C1354 C1356 1.478 . S
C1355 H1349 0.930 . S
C1355 C1351 1.400 . S
C1355 C1354 1.385 . S
C1356 C1354 1.478 . S
C1356 C1358 1.381 . S
C1356 C1362 1.383 . S
C1357 C1353 1.495 1_655 S
C1357 H1363 0.959 . S
C1357 H1364 0.961 . S
C1357 H1365 0.960 . S
C1358 C1356 1.381 . S
C1358 C1359 1.394 . S
C1358 H1366 0.930 . S
C1359 C1358 1.394 . S
C1359 C1360 1.383 . S
C1359 H1367 0.929 . S
C1360 C1359 1.383 . S
C1360 C1361 1.377 . S
C1361 H1345 0.926 1_455 S
C1361 C1360 1.377 . S
C1361 C1362 1.383 . S
C1362 H1346 0.931 . S
C1362 C1356 1.383 . S
C1362 C1361 1.383 . S
H1363 C1357 0.959 . S
H1364 C1357 0.961 . S
H1365 C1357 0.960 . S
H1366 C1358 0.930 . S
H1367 C1359 0.929 . S
H1368 C1376 0.929 . S
H1369 C1378 0.930 . S
H1370 C1380 0.930 1_455 S
H1371 C1383 0.929 . S
H1372 C1386 0.930 . S
H1373 C1388 0.960 . S
H1374 C1388 0.960 . S
H1375 C1388 0.960 . S
C1376 H1368 0.929 . S
C1376 C1377 1.377 . S
C1376 C1378 1.384 . S
C1377 C1376 1.377 . S
C1377 C1383 1.390 1_655 S
C1378 H1369 0.930 . S
C1378 C1376 1.384 . S
C1378 C1379 1.372 . S
C1379 C1378 1.372 . S
C1379 C1380 1.400 . S
C1379 C1384 1.490 . S
C1380 H1370 0.930 1_655 S
C1380 C1379 1.400 . S
C1380 C1383 1.386 1_655 S
H1381 C1397 0.930 . S
H1382 C1398 0.931 . S
C1383 H1371 0.929 . S
C1383 C1377 1.390 1_455 S
C1383 C1380 1.386 1_455 S
C1384 C1379 1.490 . S
C1384 C1386 1.395 . S
C1384 C1387 1.403 . S
H1385 C1391 0.930 . S
C1386 H1372 0.930 . S
C1386 C1384 1.395 . S
C1386 C1389 1.403 . S
C1387 C1384 1.403 . S
C1387 C1388 1.524 1_655 S
C1387 C1391 1.400 . S
C1388 H1373 0.960 . S
C1388 H1374 0.960 . S
C1388 H1375 0.960 . S
C1388 C1387 1.524 1_455 S
C1389 C1386 1.403 . S
C1389 C1390 1.392 . S
C1389 C1393 1.495 . S
C1390 C1389 1.392 . S
C1390 C1391 1.385 . S
C1390 C1392 1.478 . S
C1391 H1385 0.930 . S
C1391 C1387 1.400 . S
C1391 C1390 1.385 . S
C1392 C1390 1.478 . S
C1392 C1394 1.381 . S
C1392 C1398 1.383 . S
C1393 C1389 1.495 . S
C1393 H1399 0.959 . S
C1393 H1400 0.961 . S
C1393 H1401 0.960 . S
C1394 C1392 1.381 . S
C1394 C1395 1.394 . S
C1394 H1402 0.930 . S
C1395 C1394 1.394 . S
C1395 C1396 1.383 . S
C1395 H1403 0.929 . S
C1396 C1395 1.383 . S
C1396 C1397 1.377 . S
C1397 H1381 0.930 . S
C1397 C1396 1.377 . S
C1397 C1398 1.379 . S
C1398 H1382 0.931 . S
C1398 C1392 1.383 . S
C1398 C1397 1.379 . S
H1399 C1393 0.959 . S
H1400 C1393 0.961 . S
H1401 C1393 0.960 . S
H1402 C1394 0.930 . S
H1403 C1395 0.929 . S
H1404 C1412 0.929 . S
H1405 C1414 0.930 . S
H1406 C1416 0.930 . S
H1407 C1419 0.929 . S
H1408 C1422 0.930 . S
H1409 C1424 0.960 . S
H1410 C1424 0.960 . S
H1411 C1424 0.960 . S
C1412 H1404 0.929 . S
C1412 C1413 1.377 . S
C1412 C1414 1.384 . S
C1413 C1412 1.377 . S
C1413 C1419 1.390 . S
C1414 H1405 0.930 . S
C1414 C1412 1.384 . S
C1414 C1415 1.372 . S
C1415 C1414 1.372 . S
C1415 C1416 1.400 . S
C1415 C1420 1.490 . S
C1416 H1406 0.930 . S
C1416 C1415 1.400 . S
C1416 C1419 1.386 . S
H1417 C1433 0.930 . S
H1418 C1434 0.931 . S
C1419 H1407 0.929 . S
C1419 C1413 1.390 . S
C1419 C1416 1.386 . S
C1420 C1415 1.490 . S
C1420 C1422 1.395 . S
C1420 C1423 1.403 . S
H1421 C1427 0.930 . S
C1422 H1408 0.930 . S
C1422 C1420 1.395 . S
C1422 C1425 1.403 . S
C1423 C1420 1.403 . S
C1423 C1424 1.524 . S
C1423 C1427 1.400 . S
C1424 H1409 0.960 . S
C1424 H1410 0.960 . S
C1424 H1411 0.960 . S
C1424 C1423 1.524 . S
C1425 C1422 1.403 . S
C1425 C1426 1.392 . S
C1425 C1429 1.495 . S
C1426 C1425 1.392 . S
C1426 C1427 1.385 . S
C1426 C1428 1.478 . S
C1427 H1421 0.930 . S
C1427 C1423 1.400 . S
C1427 C1426 1.385 . S
C1428 C1426 1.478 . S
C1428 C1430 1.381 . S
C1428 C1434 1.383 . S
C1429 C1425 1.495 . S
C1429 H1435 0.959 . S
C1429 H1436 0.961 . S
C1429 H1437 0.960 . S
C1430 C1428 1.381 . S
C1430 C1431 1.394 . S
C1430 H1438 0.930 . S
C1431 C1430 1.394 . S
C1431 C1432 1.383 . S
C1431 H1439 0.929 . S
C1432 C1431 1.383 . S
C1432 C1433 1.377 . S
C1433 H1417 0.930 . S
C1433 C1432 1.377 . S
C1433 C1434 1.379 . S
C1434 H1418 0.931 . S
C1434 C1428 1.383 . S
C1434 C1433 1.379 . S
H1435 C1429 0.959 . S
H1436 C1429 0.961 . S
H1437 C1429 0.960 . S
H1438 C1430 0.930 . S
H1439 C1431 0.929 . S
H1440 C1448 0.929 . S
H1441 C1450 0.930 . S
H1442 C1452 0.930 . S
H1443 C1455 0.929 . S
H1444 C1458 0.930 . S
H1445 C1460 0.960 . S
H1446 C1460 0.960 . S
H1447 C1460 0.960 . S
C1448 H1440 0.929 . S
C1448 C1449 1.377 . S
C1448 C1450 1.384 . S
C1449 C1448 1.377 . S
C1449 C1455 1.390 . S
C1450 H1441 0.930 . S
C1450 C1448 1.384 . S
C1450 C1451 1.372 . S
C1451 C1450 1.372 . S
C1451 C1452 1.400 . S
C1451 C1456 1.490 . S
C1452 H1442 0.930 . S
C1452 C1451 1.400 . S
C1452 C1455 1.386 . S
H1453 C1469 0.930 . S
H1454 C1470 0.931 . S
C1455 H1443 0.929 . S
C1455 C1449 1.390 . S
C1455 C1452 1.386 . S
C1456 C1451 1.490 . S
C1456 C1458 1.395 . S
C1456 C1459 1.403 . S
H1457 C1463 0.930 . S
C1458 H1444 0.930 . S
C1458 C1456 1.395 . S
C1458 C1461 1.403 . S
C1459 C1456 1.403 . S
C1459 C1460 1.524 . S
C1459 C1463 1.400 . S
C1460 H1445 0.960 . S
C1460 H1446 0.960 . S
C1460 H1447 0.960 . S
C1460 C1459 1.524 . S
C1461 C1458 1.403 . S
C1461 C1462 1.392 . S
C1461 C1465 1.495 . S
C1462 C1461 1.392 . S
C1462 C1463 1.385 . S
C1462 C1464 1.478 . S
C1463 H1457 0.930 . S
C1463 C1459 1.400 . S
C1463 C1462 1.385 . S
C1464 C1462 1.478 . S
C1464 C1466 1.381 . S
C1464 C1470 1.383 . S
C1465 C1461 1.495 . S
C1465 H1471 0.959 . S
C1465 H1472 0.961 . S
C1465 H1473 0.960 . S
C1466 C1464 1.381 . S
C1466 C1467 1.394 . S
C1466 H1474 0.930 . S
C1467 C1466 1.394 . S
C1467 C1468 1.383 . S
C1467 H1475 0.929 . S
C1468 C1467 1.383 . S
C1468 C1469 1.377 . S
C1469 H1453 0.930 . S
C1469 C1468 1.377 . S
C1469 C1470 1.379 . S
C1470 H1454 0.931 . S
C1470 C1464 1.383 . S
C1470 C1469 1.379 . S
H1471 C1465 0.959 . S
H1472 C1465 0.961 . S
H1473 C1465 0.960 . S
H1474 C1466 0.930 . S
H1475 C1467 0.929 . S
H1476 C1484 0.929 . S
H1477 C1486 0.930 . S
H1478 C1488 0.930 . S
H1479 C1491 0.929 . S
H1480 C1494 0.930 . S
H1481 C1496 0.960 . S
H1482 C1496 0.960 . S
H1483 C1496 0.960 . S
C1484 H1476 0.929 . S
C1484 C1485 1.377 . S
C1484 C1486 1.384 . S
C1485 C1484 1.377 . S
C1485 C1491 1.390 . S
C1486 H1477 0.930 . S
C1486 C1484 1.384 . S
C1486 C1487 1.372 . S
C1487 C1486 1.372 . S
C1487 C1488 1.400 . S
C1487 C1492 1.490 . S
C1488 H1478 0.930 . S
C1488 C1487 1.400 . S
C1488 C1491 1.386 . S
H1489 C1505 0.930 . S
H1490 C1506 0.931 . S
C1491 H1479 0.929 . S
C1491 C1485 1.390 . S
C1491 C1488 1.386 . S
C1492 C1487 1.490 . S
C1492 C1494 1.395 . S
C1492 C1495 1.403 . S
H1493 C1499 0.930 . S
C1494 H1480 0.930 . S
C1494 C1492 1.395 . S
C1494 C1497 1.403 . S
C1495 C1492 1.403 . S
C1495 C1496 1.524 . S
C1495 C1499 1.400 . S
C1496 H1481 0.960 . S
C1496 H1482 0.960 . S
C1496 H1483 0.960 . S
C1496 C1495 1.524 . S
C1497 C1494 1.403 . S
C1497 C1498 1.392 . S
C1497 C1501 1.495 . S
C1498 C1497 1.392 . S
C1498 C1499 1.385 . S
C1498 C1500 1.478 . S
C1499 H1493 0.930 . S
C1499 C1495 1.400 . S
C1499 C1498 1.385 . S
C1500 C1498 1.478 . S
C1500 C1502 1.381 . S
C1500 C1506 1.383 . S
C1501 C1497 1.495 . S
C1501 H1507 0.959 1_565 S
C1501 H1508 0.961 . S
C1501 H1509 0.960 . S
C1502 C1500 1.381 . S
C1502 C1503 1.394 . S
C1502 H1510 0.930 . S
C1503 C1502 1.394 . S
C1503 C1504 1.383 . S
C1503 H1511 0.929 . S
C1504 C1503 1.383 . S
C1504 C1505 1.377 . S
C1505 H1489 0.930 . S
C1505 C1504 1.377 . S
C1505 C1506 1.379 . S
C1506 H1490 0.931 . S
C1506 C1500 1.383 . S
C1506 C1505 1.379 . S
H1507 C1501 0.959 1_545 S
H1508 C1501 0.961 . S
H1509 C1501 0.960 . S
H1510 C1502 0.930 . S
H1511 C1503 0.929 . S
H1512 C1520 0.929 . S
H1513 C1522 0.930 . S
H1514 C1524 0.930 . S
H1515 C1527 0.929 . S
H1516 C1530 0.930 . S
H1517 C1532 0.960 . S
H1518 C1532 0.960 . S
H1519 C1532 0.960 . S
C1520 H1512 0.929 . S
C1520 C1521 1.377 . S
C1520 C1522 1.384 . S
C1521 C1520 1.377 . S
C1521 C1527 1.390 . S
C1522 H1513 0.930 . S
C1522 C1520 1.384 . S
C1522 C1523 1.372 . S
C1523 C1522 1.372 . S
C1523 C1524 1.400 . S
C1523 C1528 1.490 . S
C1524 H1514 0.930 . S
C1524 C1523 1.400 . S
C1524 C1527 1.386 . S
H1525 C1541 0.930 . S
H1526 C1542 0.931 . S
C1527 H1515 0.929 . S
C1527 C1521 1.390 . S
C1527 C1524 1.386 . S
C1528 C1523 1.490 . S
C1528 C1530 1.395 . S
C1528 C1531 1.403 . S
H1529 C1535 0.930 . S
C1530 H1516 0.930 . S
C1530 C1528 1.395 . S
C1530 C1533 1.403 . S
C1531 C1528 1.403 . S
C1531 C1532 1.524 . S
C1531 C1535 1.400 . S
C1532 H1517 0.960 . S
C1532 H1518 0.960 . S
C1532 H1519 0.960 . S
C1532 C1531 1.524 . S
C1533 C1530 1.403 . S
C1533 C1534 1.392 . S
C1533 C1537 1.495 . S
C1534 C1533 1.392 . S
C1534 C1535 1.385 . S
C1534 C1536 1.478 . S
C1535 H1529 0.930 . S
C1535 C1531 1.400 . S
C1535 C1534 1.385 . S
C1536 C1534 1.478 . S
C1536 C1538 1.381 . S
C1536 C1542 1.383 . S
C1537 C1533 1.495 . S
C1537 H1543 0.959 . S
C1537 H1544 0.961 . S
C1537 H1545 0.960 . S
C1538 C1536 1.381 . S
C1538 C1539 1.394 . S
C1538 H1546 0.930 . S
C1539 C1538 1.394 . S
C1539 C1540 1.383 . S
C1539 H1547 0.929 . S
C1540 C1539 1.383 . S
C1540 C1541 1.377 . S
C1541 H1525 0.930 . S
C1541 C1540 1.377 . S
C1541 C1542 1.379 . S
C1542 H1526 0.931 . S
C1542 C1536 1.383 . S
C1542 C1541 1.379 . S
H1543 C1537 0.959 . S
H1544 C1537 0.961 . S
H1545 C1537 0.960 . S
H1546 C1538 0.930 . S
H1547 C1539 0.929 . S
H1548 C1556 0.929 . S
H1549 C1558 0.930 . S
H1550 C1560 0.930 . S
H1551 C1563 0.929 . S
H1552 C1566 0.930 . S
H1553 C1568 0.947 1_556 S
H1554 C1568 0.960 . S
H1555 C1568 0.960 . S
C1556 H1548 0.929 . S
C1556 C1557 1.377 . S
C1556 C1558 1.384 . S
C1557 C1556 1.377 . S
C1557 C1563 1.390 . S
C1558 H1549 0.930 . S
C1558 C1556 1.384 . S
C1558 C1559 1.372 . S
C1559 C1558 1.372 . S
C1559 C1560 1.400 . S
C1559 C1564 1.490 . S
C1560 H1550 0.930 . S
C1560 C1559 1.400 . S
C1560 C1563 1.386 . S
H1561 C1577 0.930 . S
H1562 C1578 0.931 . S
C1563 H1551 0.929 . S
C1563 C1557 1.390 . S
C1563 C1560 1.386 . S
C1564 C1559 1.490 . S
C1564 C1566 1.395 . S
C1564 C1567 1.403 . S
H1565 C1571 0.930 . S
C1566 H1552 0.930 . S
C1566 C1564 1.395 . S
C1566 C1569 1.403 . S
C1567 C1564 1.403 . S
C1567 C1568 1.524 . S
C1567 C1571 1.400 1_554 S
C1568 H1553 0.947 1_554 S
C1568 H1554 0.960 . S
C1568 H1555 0.960 . S
C1568 C1567 1.524 . S
C1569 C1566 1.403 . S
C1569 C1570 1.392 1_554 S
C1569 C1573 1.495 . S
C1570 C1569 1.392 1_556 S
C1570 C1571 1.385 . S
C1570 C1572 1.478 . S
C1571 H1565 0.930 . S
C1571 C1567 1.400 1_556 S
C1571 C1570 1.385 . S
C1572 C1570 1.478 . S
C1572 C1574 1.381 . S
C1572 C1578 1.383 . S
C1573 C1569 1.495 . S
C1573 H1579 0.959 . S
C1573 H1580 0.961 . S
C1573 H1581 0.960 . S
C1574 C1572 1.381 . S
C1574 C1575 1.394 . S
C1574 H1582 0.930 . S
C1575 C1574 1.394 . S
C1575 C1576 1.383 . S
C1575 H1583 0.929 . S
C1576 C1575 1.383 . S
C1576 C1577 1.377 . S
C1577 H1561 0.930 . S
C1577 C1576 1.377 . S
C1577 C1578 1.379 . S
C1578 H1562 0.931 . S
C1578 C1572 1.383 . S
C1578 C1577 1.379 . S
H1579 C1573 0.959 . S
H1580 C1573 0.961 . S
H1581 C1573 0.960 . S
H1582 C1574 0.930 . S
H1583 C1575 0.929 . S
H1584 C1592 0.929 . S
H1585 C1594 0.930 . S
H1586 C1596 0.930 . S
H1587 C1599 0.929 . S
H1588 C1602 0.930 . S
H1589 C1604 0.960 . S
H1590 C1604 0.960 . S
H1591 C1604 0.960 . S
C1592 H1584 0.929 . S
C1592 C1593 1.377 . S
C1592 C1594 1.384 . S
C1593 C1592 1.377 . S
C1593 C1599 1.390 . S
C1594 H1585 0.930 . S
C1594 C1592 1.384 . S
C1594 C1595 1.372 . S
C1595 C1594 1.372 . S
C1595 C1596 1.400 . S
C1595 C1600 1.490 . S
C1596 H1586 0.930 . S
C1596 C1595 1.400 . S
C1596 C1599 1.386 . S
H1597 C1613 0.930 . S
H1598 C1614 0.931 . S
C1599 H1587 0.929 . S
C1599 C1593 1.390 . S
C1599 C1596 1.386 . S
C1600 C1595 1.490 . S
C1600 C1602 1.395 . S
C1600 C1603 1.403 . S
H1601 C1607 0.930 . S
C1602 H1588 0.930 . S
C1602 C1600 1.395 . S
C1602 C1605 1.403 . S
C1603 C1600 1.403 . S
C1603 C1604 1.524 . S
C1603 C1607 1.400 . S
C1604 H1589 0.960 . S
C1604 H1590 0.960 . S
C1604 H1591 0.960 . S
C1604 C1603 1.524 . S
C1605 C1602 1.403 . S
C1605 C1606 1.392 . S
C1605 C1609 1.495 . S
C1606 C1605 1.392 . S
C1606 C1607 1.385 . S
C1606 C1608 1.478 . S
C1607 H1601 0.930 . S
C1607 C1603 1.400 . S
C1607 C1606 1.385 . S
C1608 C1606 1.478 . S
C1608 C1610 1.381 . S
C1608 C1614 1.383 . S
C1609 C1605 1.495 . S
C1609 H1615 0.959 . S
C1609 H1616 0.961 . S
C1609 H1617 0.960 . S
C1610 C1608 1.381 . S
C1610 C1611 1.394 . S
C1610 H1618 0.930 . S
C1611 C1610 1.394 . S
C1611 C1612 1.383 . S
C1611 H1619 0.929 . S
C1612 C1611 1.383 . S
C1612 C1613 1.377 . S
C1613 H1597 0.930 . S
C1613 C1612 1.377 . S
C1613 C1614 1.379 . S
C1614 H1598 0.931 . S
C1614 C1608 1.383 . S
C1614 C1613 1.379 . S
H1615 C1609 0.959 . S
H1616 C1609 0.961 . S
H1617 C1609 0.960 . S
H1618 C1610 0.930 . S
H1619 C1611 0.929 . S
H1620 C1628 0.929 . S
H1621 C1630 0.930 . S
H1622 C1632 0.930 . S
H1623 C1635 0.929 . S
H1624 C1638 0.945 . S
H1625 C1640 0.960 . S
H1626 C1640 0.960 . S
H1627 C1640 0.960 . S
C1628 H1620 0.929 . S
C1628 C1629 1.377 . S
C1628 C1630 1.384 . S
C1629 C1628 1.377 . S
C1629 C1635 1.390 . S
C1630 H1621 0.930 . S
C1630 C1628 1.384 . S
C1630 C1631 1.372 . S
C1631 C1630 1.372 . S
C1631 C1632 1.400 . S
C1631 C1636 1.525 . S
C1632 H1622 0.930 . S
C1632 C1631 1.400 . S
C1632 C1635 1.386 . S
H1633 C1649 0.930 . S
H1634 C1650 0.931 . S
C1635 H1623 0.929 . S
C1635 C1629 1.390 . S
C1635 C1632 1.386 . S
C1636 C1631 1.525 . S
C1636 C1638 1.394 . S
C1636 C1639 1.369 1_554 S
H1637 C1643 0.930 . S
C1638 H1624 0.945 . S
C1638 C1636 1.394 . S
C1638 C1641 1.389 1_554 S
C1639 C1636 1.369 1_556 S
C1639 C1640 1.524 . S
C1639 C1643 1.400 . S
C1640 H1625 0.960 . S
C1640 H1626 0.960 . S
C1640 H1627 0.960 . S
C1640 C1639 1.524 . S
C1641 C1638 1.389 1_556 S
C1641 C1642 1.392 . S
C1641 C1645 1.495 . S
C1642 C1641 1.392 . S
C1642 C1643 1.385 . S
C1642 C1644 1.478 . S
C1643 H1637 0.930 . S
C1643 C1639 1.400 . S
C1643 C1642 1.385 . S
C1644 C1642 1.478 . S
C1644 C1646 1.381 . S
C1644 C1650 1.383 . S
C1645 C1641 1.495 . S
C1645 H1651 0.959 . S
C1645 H1652 0.961 . S
C1645 H1653 0.960 . S
C1646 C1644 1.381 . S
C1646 C1647 1.394 . S
C1646 H1654 0.930 . S
C1647 C1646 1.394 . S
C1647 C1648 1.383 . S
C1647 H1655 0.929 . S
C1648 C1647 1.383 . S
C1648 C1649 1.377 . S
C1649 H1633 0.930 . S
C1649 C1648 1.377 . S
C1649 C1650 1.379 . S
C1650 H1634 0.931 . S
C1650 C1644 1.383 . S
C1650 C1649 1.379 . S
H1651 C1645 0.959 . S
H1652 C1645 0.961 . S
H1653 C1645 0.960 . S
H1654 C1646 0.930 . S
H1655 C1647 0.929 . S
H1656 C1664 0.929 . S
H1657 C1666 0.930 . S
H1658 C1668 0.930 . S
H1659 C1671 0.929 . S
H1660 C1674 0.930 . S
H1661 C1676 0.960 . S
H1662 C1676 0.960 . S
H1663 C1676 0.960 . S
C1664 H1656 0.929 . S
C1664 C1665 1.377 . S
C1664 C1666 1.384 . S
C1665 C1664 1.377 . S
C1665 C1671 1.390 . S
C1666 H1657 0.930 . S
C1666 C1664 1.384 . S
C1666 C1667 1.372 . S
C1667 C1666 1.372 . S
C1667 C1668 1.400 . S
C1667 C1672 1.490 . S
C1668 H1658 0.930 . S
C1668 C1667 1.400 . S
C1668 C1671 1.386 . S
H1669 C1685 0.930 . S
H1670 C1686 0.931 . S
C1671 H1659 0.929 . S
C1671 C1665 1.390 . S
C1671 C1668 1.386 . S
C1672 C1667 1.490 . S
C1672 C1674 1.395 . S
C1672 C1675 1.403 . S
H1673 C1679 0.930 . S
C1674 H1660 0.930 . S
C1674 C1672 1.395 . S
C1674 C1677 1.403 . S
C1675 C1672 1.403 . S
C1675 C1676 1.524 . S
C1675 C1679 1.400 . S
C1676 H1661 0.960 . S
C1676 H1662 0.960 . S
C1676 H1663 0.960 . S
C1676 C1675 1.524 . S
C1677 C1674 1.403 . S
C1677 C1678 1.392 . S
C1677 C1681 1.495 . S
C1678 C1677 1.392 . S
C1678 C1679 1.385 . S
C1678 C1680 1.478 . S
C1679 H1673 0.930 . S
C1679 C1675 1.400 . S
C1679 C1678 1.385 . S
C1680 C1678 1.478 . S
C1680 C1682 1.381 . S
C1680 C1686 1.383 . S
C1681 C1677 1.495 . S
C1681 H1687 0.959 . S
C1681 H1688 0.961 . S
C1681 H1689 0.960 . S
C1682 C1680 1.381 . S
C1682 C1683 1.394 . S
C1682 H1690 0.930 . S
C1683 C1682 1.394 . S
C1683 C1684 1.383 . S
C1683 H1691 0.929 . S
C1684 C1683 1.383 . S
C1684 C1685 1.377 . S
C1685 H1669 0.930 . S
C1685 C1684 1.377 . S
C1685 C1686 1.379 . S
C1686 H1670 0.931 . S
C1686 C1680 1.383 . S
C1686 C1685 1.379 . S
H1687 C1681 0.959 . S
H1688 C1681 0.961 . S
H1689 C1681 0.960 . S
H1690 C1682 0.930 . S
H1691 C1683 0.929 . S
H1692 C1700 0.929 . S
H1693 C1702 0.930 . S
H1694 C1704 0.930 . S
H1695 C1707 0.929 . S
H1696 C1710 0.930 . S
H1697 C1712 0.960 . S
H1698 C1712 0.960 . S
H1699 C1712 0.960 . S
C1700 H1692 0.929 . S
C1700 C1701 1.377 . S
C1700 C1702 1.384 . S
C1701 C1700 1.377 . S
C1701 C1707 1.390 . S
C1702 H1693 0.930 . S
C1702 C1700 1.384 . S
C1702 C1703 1.372 . S
C1703 C1702 1.372 . S
C1703 C1704 1.400 . S
C1703 C1708 1.490 . S
C1704 H1694 0.930 . S
C1704 C1703 1.400 . S
C1704 C1707 1.386 . S
H1705 C1721 0.930 . S
H1706 C1722 0.931 . S
C1707 H1695 0.929 . S
C1707 C1701 1.390 . S
C1707 C1704 1.386 . S
C1708 C1703 1.490 . S
C1708 C1710 1.395 . S
C1708 C1711 1.403 . S
H1709 C1715 0.930 . S
C1710 H1696 0.930 . S
C1710 C1708 1.395 . S
C1710 C1713 1.403 . S
C1711 C1708 1.403 . S
C1711 C1712 1.524 . S
C1711 C1715 1.400 . S
C1712 H1697 0.960 . S
C1712 H1698 0.960 . S
C1712 H1699 0.960 . S
C1712 C1711 1.524 . S
C1713 C1710 1.403 . S
C1713 C1714 1.392 . S
C1713 C1717 1.495 . S
C1714 C1713 1.392 . S
C1714 C1715 1.385 . S
C1714 C1716 1.478 . S
C1715 H1709 0.930 . S
C1715 C1711 1.400 . S
C1715 C1714 1.385 . S
C1716 C1714 1.478 . S
C1716 C1718 1.381 . S
C1716 C1722 1.383 . S
C1717 C1713 1.495 . S
C1717 H1723 0.959 . S
C1717 H1724 0.961 . S
C1717 H1725 0.960 . S
C1718 C1716 1.381 . S
C1718 C1719 1.394 . S
C1718 H1726 0.930 . S
C1719 C1718 1.394 . S
C1719 C1720 1.383 . S
C1719 H1727 0.929 . S
C1720 C1719 1.383 . S
C1720 C1721 1.377 . S
C1721 H1705 0.930 . S
C1721 C1720 1.377 . S
C1721 C1722 1.379 . S
C1722 H1706 0.931 . S
C1722 C1716 1.383 . S
C1722 C1721 1.379 . S
H1723 C1717 0.959 . S
H1724 C1717 0.961 . S
H1725 C1717 0.960 . S
H1726 C1718 0.930 . S
H1727 C1719 0.929 . S
H1728 C1736 0.929 . S
H1729 C1738 0.930 . S
H1730 C1740 0.930 . S
H1731 C1743 0.929 . S
H1732 C1746 0.930 . S
H1733 C1748 0.960 . S
H1734 C1748 0.960 . S
H1735 C1748 0.960 . S
C1736 H1728 0.929 . S
C1736 C1737 1.377 . S
C1736 C1738 1.384 . S
C1737 C1736 1.377 . S
C1737 C1743 1.390 . S
C1738 H1729 0.930 . S
C1738 C1736 1.384 . S
C1738 C1739 1.372 . S
C1739 C1738 1.372 . S
C1739 C1740 1.400 . S
C1739 C1744 1.490 . S
C1740 H1730 0.930 . S
C1740 C1739 1.400 . S
C1740 C1743 1.386 . S
H1741 C1757 0.930 . S
H1742 C1758 0.931 . S
C1743 H1731 0.929 . S
C1743 C1737 1.390 . S
C1743 C1740 1.386 . S
C1744 C1739 1.490 . S
C1744 C1746 1.395 . S
C1744 C1747 1.403 . S
H1745 C1751 0.930 . S
C1746 H1732 0.930 . S
C1746 C1744 1.395 . S
C1746 C1749 1.403 . S
C1747 C1744 1.403 . S
C1747 C1748 1.524 . S
C1747 C1751 1.400 . S
C1748 H1733 0.960 . S
C1748 H1734 0.960 . S
C1748 H1735 0.960 . S
C1748 C1747 1.524 . S
C1749 C1746 1.403 . S
C1749 C1750 1.392 . S
C1749 C1753 1.495 . S
C1750 C1749 1.392 . S
C1750 C1751 1.385 . S
C1750 C1752 1.478 . S
C1751 H1745 0.930 . S
C1751 C1747 1.400 . S
C1751 C1750 1.385 . S
C1752 C1750 1.478 . S
C1752 C1754 1.381 . S
C1752 C1758 1.383 . S
C1753 C1749 1.495 . S
C1753 H1759 0.959 . S
C1753 H1760 0.961 . S
C1753 H1761 0.960 . S
C1754 C1752 1.381 . S
C1754 C1755 1.394 . S
C1754 H1762 0.930 . S
C1755 C1754 1.394 . S
C1755 C1756 1.383 . S
C1755 H1763 0.929 . S
C1756 C1755 1.383 . S
C1756 C1757 1.377 . S
C1757 H1741 0.930 . S
C1757 C1756 1.377 . S
C1757 C1758 1.379 . S
C1758 H1742 0.931 . S
C1758 C1752 1.383 . S
C1758 C1757 1.379 . S
H1759 C1753 0.959 . S
H1760 C1753 0.961 . S
H1761 C1753 0.960 . S
H1762 C1754 0.930 . S
H1763 C1755 0.929 . S
H1764 C1772 0.929 . S
H1765 C1774 0.930 . S
H1766 C1776 0.930 . S
H1767 C1779 0.929 . S
H1768 C1782 0.930 . S
H1769 C1784 0.960 . S
H1770 C1784 0.960 . S
H1771 C1784 0.960 . S
C1772 H1764 0.929 . S
C1772 C1773 1.377 . S
C1772 C1774 1.384 . S
C1773 C1772 1.377 . S
C1773 C1779 1.390 . S
C1774 H1765 0.930 . S
C1774 C1772 1.384 . S
C1774 C1775 1.372 . S
C1775 C1774 1.372 . S
C1775 C1776 1.400 . S
C1775 C1780 1.490 . S
C1776 H1766 0.930 . S
C1776 C1775 1.400 . S
C1776 C1779 1.386 . S
H1777 C1793 0.930 . S
H1778 C1794 0.931 . S
C1779 H1767 0.929 . S
C1779 C1773 1.390 . S
C1779 C1776 1.386 . S
C1780 C1775 1.490 . S
C1780 C1782 1.395 . S
C1780 C1783 1.403 . S
H1781 C1787 0.898 1_565 S
C1782 H1768 0.930 . S
C1782 C1780 1.395 . S
C1782 C1785 1.403 . S
C1783 C1780 1.403 . S
C1783 C1784 1.524 . S
C1783 C1787 1.432 . S
C1784 H1769 0.960 . S
C1784 H1770 0.960 . S
C1784 H1771 0.960 . S
C1784 C1783 1.524 . S
C1785 C1782 1.403 . S
C1785 C1786 1.396 1_545 S
C1785 C1789 1.495 . S
C1786 C1785 1.396 1_565 S
C1786 C1787 1.384 1_565 S
C1786 C1788 1.474 . S
C1787 H1781 0.898 1_545 S
C1787 C1783 1.432 . S
C1787 C1786 1.384 1_545 S
C1788 C1786 1.474 . S
C1788 C1790 1.381 . S
C1788 C1794 1.383 . S
C1789 C1785 1.495 . S
C1789 H1795 0.959 . S
C1789 H1796 0.961 . S
C1789 H1797 0.960 . S
C1790 C1788 1.381 . S
C1790 C1791 1.394 . S
C1790 H1798 0.930 . S
C1791 C1790 1.394 . S
C1791 C1792 1.383 . S
C1791 H1799 0.929 . S
C1792 C1791 1.383 . S
C1792 C1793 1.377 . S
C1793 H1777 0.930 . S
C1793 C1792 1.377 . S
C1793 C1794 1.379 . S
C1794 H1778 0.931 . S
C1794 C1788 1.383 . S
C1794 C1793 1.379 . S
H1795 C1789 0.959 . S
H1796 C1789 0.961 . S
H1797 C1789 0.960 . S
H1798 C1790 0.930 . S
H1799 C1791 0.929 . S
H1800 C1808 0.929 . S
H1801 C1810 0.930 . S
H1802 C1812 0.930 . S
H1803 C1815 0.929 . S
H1804 C1818 0.930 . S
H1805 C1820 0.960 . S
H1806 C1820 0.960 . S
H1807 C1820 0.960 . S
C1808 H1800 0.929 . S
C1808 C1809 1.377 . S
C1808 C1810 1.384 . S
C1809 C1808 1.377 . S
C1809 C1815 1.390 . S
C1810 H1801 0.930 . S
C1810 C1808 1.384 . S
C1810 C1811 1.372 . S
C1811 C1810 1.372 . S
C1811 C1812 1.400 . S
C1811 C1816 1.490 . S
C1812 H1802 0.930 . S
C1812 C1811 1.400 . S
C1812 C1815 1.386 . S
H1813 C1829 0.930 . S
H1814 C1830 0.931 . S
C1815 H1803 0.929 . S
C1815 C1809 1.390 . S
C1815 C1812 1.386 . S
C1816 C1811 1.490 . S
C1816 C1818 1.395 . S
C1816 C1819 1.403 . S
H1817 C1823 0.930 . S
C1818 H1804 0.930 . S
C1818 C1816 1.395 . S
C1818 C1821 1.403 . S
C1819 C1816 1.403 . S
C1819 C1820 1.524 . S
C1819 C1823 1.400 . S
C1820 H1805 0.960 . S
C1820 H1806 0.960 . S
C1820 H1807 0.960 . S
C1820 C1819 1.524 . S
C1821 C1818 1.403 . S
C1821 C1822 1.392 . S
C1821 C1825 1.495 . S
C1822 C1821 1.392 . S
C1822 C1823 1.385 . S
C1822 C1824 1.478 . S
C1823 H1817 0.930 . S
C1823 C1819 1.400 . S
C1823 C1822 1.385 . S
C1824 C1822 1.478 . S
C1824 C1826 1.381 . S
C1824 C1830 1.383 . S
C1825 C1821 1.495 . S
C1825 H1831 0.959 . S
C1825 H1832 0.961 . S
C1825 H1833 0.960 . S
C1826 C1824 1.381 . S
C1826 C1827 1.394 . S
C1826 H1834 0.930 . S
C1827 C1826 1.394 . S
C1827 C1828 1.383 . S
C1827 H1835 0.929 . S
C1828 C1827 1.383 . S
C1828 C1829 1.377 . S
C1829 H1813 0.930 . S
C1829 C1828 1.377 . S
C1829 C1830 1.379 . S
C1830 H1814 0.931 . S
C1830 C1824 1.383 . S
C1830 C1829 1.379 . S
H1831 C1825 0.959 . S
H1832 C1825 0.961 . S
H1833 C1825 0.960 . S
H1834 C1826 0.930 . S
H1835 C1827 0.929 . S
H1836 C1844 0.929 . S
H1837 C1846 0.930 . S
H1838 C1848 0.930 . S
H1839 C1851 0.929 . S
H1840 C1854 0.930 . S
H1841 C1856 0.960 . S
H1842 C1856 0.960 . S
H1843 C1856 0.960 . S
C1844 H1836 0.929 . S
C1844 C1845 1.377 . S
C1844 C1846 1.384 . S
C1845 C1844 1.377 . S
C1845 C1851 1.390 . S
C1846 H1837 0.930 . S
C1846 C1844 1.384 . S
C1846 C1847 1.372 . S
C1847 C1846 1.372 . S
C1847 C1848 1.400 . S
C1847 C1852 1.490 . S
C1848 H1838 0.930 . S
C1848 C1847 1.400 . S
C1848 C1851 1.386 . S
H1849 C1865 0.930 . S
H1850 C1866 0.931 . S
C1851 H1839 0.929 . S
C1851 C1845 1.390 . S
C1851 C1848 1.386 . S
C1852 C1847 1.490 . S
C1852 C1854 1.395 1_545 S
C1852 C1855 1.403 1_545 S
H1853 C1859 0.930 . S
C1854 H1840 0.930 . S
C1854 C1852 1.395 1_565 S
C1854 C1857 1.403 . S
C1855 C1852 1.403 1_565 S
C1855 C1856 1.524 1_565 S
C1855 C1859 1.400 . S
C1856 H1841 0.960 . S
C1856 H1842 0.960 . S
C1856 H1843 0.960 . S
C1856 C1855 1.524 1_545 S
C1857 C1854 1.403 . S
C1857 C1858 1.392 . S
C1857 C1861 1.495 . S
C1858 C1857 1.392 . S
C1858 C1859 1.385 . S
C1858 C1860 1.478 . S
C1859 H1853 0.930 . S
C1859 C1855 1.400 . S
C1859 C1858 1.385 . S
C1860 C1858 1.478 . S
C1860 C1862 1.381 . S
C1860 C1866 1.383 . S
C1861 C1857 1.495 . S
C1861 H1867 0.959 . S
C1861 H1868 0.961 . S
C1861 H1869 0.960 . S
C1862 C1860 1.381 . S
C1862 C1863 1.394 . S
C1862 H1870 0.930 . S
C1863 C1862 1.394 . S
C1863 C1864 1.383 . S
C1863 H1871 0.929 . S
C1864 C1863 1.383 . S
C1864 C1865 1.377 . S
C1865 H1849 0.930 . S
C1865 C1864 1.377 . S
C1865 C1866 1.379 . S
C1866 H1850 0.931 . S
C1866 C1860 1.383 . S
C1866 C1865 1.379 . S
H1867 C1861 0.959 . S
H1868 C1861 0.961 . S
H1869 C1861 0.960 . S
H1870 C1862 0.930 . S
H1871 C1863 0.929 . S
H1872 C1880 0.929 . S
H1873 C1882 0.930 . S
H1874 C1884 0.930 . S
H1875 C1887 0.929 . S
H1876 C1890 0.930 . S
H1877 C1892 0.960 . S
H1878 C1892 0.960 . S
H1879 C1892 0.960 . S
C1880 H1872 0.929 . S
C1880 C1881 1.377 . S
C1880 C1882 1.384 . S
C1881 C1880 1.377 . S
C1881 C1887 1.390 . S
C1882 H1873 0.930 . S
C1882 C1880 1.384 . S
C1882 C1883 1.372 . S
C1883 C1882 1.372 . S
C1883 C1884 1.400 . S
C1883 C1888 1.490 . S
C1884 H1874 0.930 . S
C1884 C1883 1.400 . S
C1884 C1887 1.386 . S
H1885 C1901 0.930 . S
H1886 C1902 0.931 . S
C1887 H1875 0.929 . S
C1887 C1881 1.390 . S
C1887 C1884 1.386 . S
C1888 C1883 1.490 . S
C1888 C1890 1.395 . S
C1888 C1891 1.403 . S
H1889 C1895 0.930 . S
C1890 H1876 0.930 . S
C1890 C1888 1.395 . S
C1890 C1893 1.403 . S
C1891 C1888 1.403 . S
C1891 C1892 1.524 . S
C1891 C1895 1.400 . S
C1892 H1877 0.960 . S
C1892 H1878 0.960 . S
C1892 H1879 0.960 . S
C1892 C1891 1.524 . S
C1893 C1890 1.403 . S
C1893 C1894 1.392 . S
C1893 C1897 1.495 . S
C1894 C1893 1.392 . S
C1894 C1895 1.385 . S
C1894 C1896 1.478 . S
C1895 H1889 0.930 . S
C1895 C1891 1.400 . S
C1895 C1894 1.385 . S
C1896 C1894 1.478 . S
C1896 C1898 1.381 . S
C1896 C1902 1.383 . S
C1897 C1893 1.495 . S
C1897 H1903 0.959 . S
C1897 H1904 0.961 . S
C1897 H1905 0.960 . S
C1898 C1896 1.381 . S
C1898 C1899 1.394 . S
C1898 H1906 0.930 . S
C1899 C1898 1.394 . S
C1899 C1900 1.383 . S
C1899 H1907 0.929 . S
C1900 C1899 1.383 . S
C1900 C1901 1.377 . S
C1901 H1885 0.930 . S
C1901 C1900 1.377 . S
C1901 C1902 1.379 . S
C1902 H1886 0.931 . S
C1902 C1896 1.383 . S
C1902 C1901 1.379 . S
H1903 C1897 0.959 . S
H1904 C1897 0.961 . S
H1905 C1897 0.960 . S
H1906 C1898 0.930 . S
H1907 C1899 0.929 . S
H1908 C1916 0.929 . S
H1909 C1918 0.930 . S
H1910 C1920 0.930 . S
H1911 C1923 0.929 . S
H1912 C1926 0.930 . S
H1913 C1928 0.960 . S
H1914 C1928 0.960 . S
H1915 C1928 0.960 . S
C1916 H1908 0.929 . S
C1916 C1917 1.377 . S
C1916 C1918 1.384 . S
C1917 C1916 1.377 . S
C1917 C1923 1.390 . S
C1918 H1909 0.930 . S
C1918 C1916 1.384 . S
C1918 C1919 1.372 . S
C1919 C1918 1.372 . S
C1919 C1920 1.400 . S
C1919 C1924 1.490 . S
C1920 H1910 0.930 . S
C1920 C1919 1.400 . S
C1920 C1923 1.386 . S
H1921 C1937 0.930 . S
H1922 C1938 0.931 . S
C1923 H1911 0.929 . S
C1923 C1917 1.390 . S
C1923 C1920 1.386 . S
C1924 C1919 1.490 . S
C1924 C1926 1.395 . S
C1924 C1927 1.403 . S
H1925 C1931 0.930 . S
C1926 H1912 0.930 . S
C1926 C1924 1.395 . S
C1926 C1929 1.403 . S
C1927 C1924 1.403 . S
C1927 C1928 1.524 . S
C1927 C1931 1.400 . S
C1928 H1913 0.960 . S
C1928 H1914 0.960 . S
C1928 H1915 0.960 . S
C1928 C1927 1.524 . S
C1929 C1926 1.403 . S
C1929 C1930 1.392 . S
C1929 C1933 1.495 . S
C1930 C1929 1.392 . S
C1930 C1931 1.385 . S
C1930 C1932 1.478 . S
C1931 H1925 0.930 . S
C1931 C1927 1.400 . S
C1931 C1930 1.385 . S
C1932 C1930 1.478 . S
C1932 C1934 1.381 . S
C1932 C1938 1.383 . S
C1933 C1929 1.495 . S
C1933 H1939 0.959 . S
C1933 H1940 0.961 . S
C1933 H1941 0.960 . S
C1934 C1932 1.381 . S
C1934 C1935 1.394 . S
C1934 H1942 0.930 . S
C1935 C1934 1.394 . S
C1935 C1936 1.383 . S
C1935 H1943 0.929 . S
C1936 C1935 1.383 . S
C1936 C1937 1.377 . S
C1937 H1921 0.930 . S
C1937 C1936 1.377 . S
C1937 C1938 1.379 . S
C1938 H1922 0.931 . S
C1938 C1932 1.383 . S
C1938 C1937 1.379 . S
H1939 C1933 0.959 . S
H1940 C1933 0.961 . S
H1941 C1933 0.960 . S
H1942 C1934 0.930 . S
H1943 C1935 0.929 . S
H1944 C1952 0.929 . S
H1945 C1954 0.930 . S
H1946 C1956 0.930 . S
H1947 C1959 0.929 . S
H1948 C1962 0.930 . S
H1949 C1964 0.960 . S
H1950 C1964 0.960 . S
H1951 C1964 0.960 . S
C1952 H1944 0.929 . S
C1952 C1953 1.377 . S
C1952 C1954 1.384 . S
C1953 C1952 1.377 . S
C1953 C1959 1.390 . S
C1954 H1945 0.930 . S
C1954 C1952 1.384 . S
C1954 C1955 1.372 . S
C1955 C1954 1.372 . S
C1955 C1956 1.400 . S
C1955 C1960 1.490 . S
C1956 H1946 0.930 . S
C1956 C1955 1.400 . S
C1956 C1959 1.386 . S
H1957 C1973 0.930 . S
H1958 C1974 0.931 . S
C1959 H1947 0.929 . S
C1959 C1953 1.390 . S
C1959 C1956 1.386 . S
C1960 C1955 1.490 . S
C1960 C1962 1.395 . S
C1960 C1963 1.403 . S
H1961 C1967 0.930 . S
C1962 H1948 0.930 . S
C1962 C1960 1.395 . S
C1962 C1965 1.403 . S
C1963 C1960 1.403 . S
C1963 C1964 1.524 . S
C1963 C1967 1.400 . S
C1964 H1949 0.960 . S
C1964 H1950 0.960 . S
C1964 H1951 0.960 . S
C1964 C1963 1.524 . S
C1965 C1962 1.403 . S
C1965 C1966 1.392 . S
C1965 C1969 1.495 . S
C1966 C1965 1.392 . S
C1966 C1967 1.385 . S
C1966 C1968 1.478 . S
C1967 H1961 0.930 . S
C1967 C1963 1.400 . S
C1967 C1966 1.385 . S
C1968 C1966 1.478 . S
C1968 C1970 1.381 . S
C1968 C1974 1.383 . S
C1969 C1965 1.495 . S
C1969 H1975 0.959 . S
C1969 H1976 0.961 . S
C1969 H1977 0.960 . S
C1970 C1968 1.381 . S
C1970 C1971 1.394 . S
C1970 H1978 0.930 . S
C1971 C1970 1.394 . S
C1971 C1972 1.383 . S
C1971 H1979 0.929 . S
C1972 C1971 1.383 . S
C1972 C1973 1.377 . S
C1973 H1957 0.930 . S
C1973 C1972 1.377 . S
C1973 C1974 1.379 . S
C1974 H1958 0.931 . S
C1974 C1968 1.383 . S
C1974 C1973 1.379 . S
H1975 C1969 0.959 . S
H1976 C1969 0.961 . S
H1977 C1969 0.960 . S
H1978 C1970 0.930 . S
H1979 C1971 0.929 . S
H1980 C1988 0.929 . S
H1981 C1990 0.930 . S
H1982 C1992 0.930 . S
H1983 C1995 0.929 . S
H1984 C1998 0.930 . S
H1985 C2000 0.960 . S
H1986 C2000 0.960 . S
H1987 C2000 0.960 . S
C1988 H1980 0.929 . S
C1988 C1989 1.377 . S
C1988 C1990 1.384 . S
C1989 C1988 1.377 . S
C1989 C1995 1.390 . S
C1990 H1981 0.930 . S
C1990 C1988 1.384 . S
C1990 C1991 1.372 . S
C1991 C1990 1.372 . S
C1991 C1992 1.400 . S
C1991 C1996 1.490 . S
C1992 H1982 0.930 . S
C1992 C1991 1.400 . S
C1992 C1995 1.386 . S
H1993 C2009 0.930 . S
H1994 C2010 0.931 . S
C1995 H1983 0.929 . S
C1995 C1989 1.390 . S
C1995 C1992 1.386 . S
C1996 C1991 1.490 . S
C1996 C1998 1.395 . S
C1996 C1999 1.403 . S
H1997 C2003 0.930 . S
C1998 H1984 0.930 . S
C1998 C1996 1.395 . S
C1998 C2001 1.403 . S
C1999 C1996 1.403 . S
C1999 C2000 1.524 . S
C1999 C2003 1.400 . S
C2000 H1985 0.960 . S
C2000 H1986 0.960 . S
C2000 H1987 0.960 . S
C2000 C1999 1.524 . S
C2001 C1998 1.403 . S
C2001 C2002 1.392 . S
C2001 C2005 1.495 . S
C2002 C2001 1.392 . S
C2002 C2003 1.385 . S
C2002 C2004 1.478 . S
C2003 H1997 0.930 . S
C2003 C1999 1.400 . S
C2003 C2002 1.385 . S
C2004 C2002 1.478 . S
C2004 C2006 1.381 . S
C2004 C2010 1.383 . S
C2005 C2001 1.495 . S
C2005 H2011 0.959 . S
C2005 H2012 0.961 . S
C2005 H2013 0.960 . S
C2006 C2004 1.381 . S
C2006 C2007 1.394 . S
C2006 H2014 0.930 . S
C2007 C2006 1.394 . S
C2007 C2008 1.383 . S
C2007 H2015 0.929 . S
C2008 C2007 1.383 . S
C2008 C2009 1.377 . S
C2009 H1993 0.930 . S
C2009 C2008 1.377 . S
C2009 C2010 1.379 . S
C2010 H1994 0.931 . S
C2010 C2004 1.383 . S
C2010 C2009 1.379 . S
H2011 C2005 0.959 . S
H2012 C2005 0.961 . S
H2013 C2005 0.960 . S
H2014 C2006 0.930 . S
H2015 C2007 0.929 . S
H2016 C2024 0.929 . S
H2017 C2026 0.930 . S
H2018 C2028 0.930 . S
H2019 C2031 0.929 . S
H2020 C2034 0.930 . S
H2021 C2036 0.960 . S
H2022 C2036 0.960 . S
H2023 C2036 0.960 . S
C2024 H2016 0.929 . S
C2024 C2025 1.377 . S
C2024 C2026 1.384 . S
C2025 C2024 1.377 . S
C2025 C2031 1.390 . S
C2026 H2017 0.930 . S
C2026 C2024 1.384 . S
C2026 C2027 1.372 . S
C2027 C2026 1.372 . S
C2027 C2028 1.400 . S
C2027 C2032 1.490 . S
C2028 H2018 0.930 . S
C2028 C2027 1.400 . S
C2028 C2031 1.386 . S
H2029 C2045 0.930 . S
H2030 C2046 0.931 . S
C2031 H2019 0.929 . S
C2031 C2025 1.390 . S
C2031 C2028 1.386 . S
C2032 C2027 1.490 . S
C2032 C2034 1.395 . S
C2032 C2035 1.403 . S
H2033 C2039 0.930 . S
C2034 H2020 0.930 . S
C2034 C2032 1.395 . S
C2034 C2037 1.403 . S
C2035 C2032 1.403 . S
C2035 C2036 1.524 . S
C2035 C2039 1.400 . S
C2036 H2021 0.960 . S
C2036 H2022 0.960 . S
C2036 H2023 0.960 . S
C2036 C2035 1.524 . S
C2037 C2034 1.403 . S
C2037 C2038 1.392 . S
C2037 C2041 1.495 . S
C2038 C2037 1.392 . S
C2038 C2039 1.385 . S
C2038 C2040 1.478 . S
C2039 H2033 0.930 . S
C2039 C2035 1.400 . S
C2039 C2038 1.385 . S
C2040 C2038 1.478 . S
C2040 C2042 1.381 . S
C2040 C2046 1.383 . S
C2041 C2037 1.495 . S
C2041 H2047 0.959 . S
C2041 H2048 0.961 . S
C2041 H2049 0.960 . S
C2042 C2040 1.381 . S
C2042 C2043 1.394 . S
C2042 H2050 0.930 . S
C2043 C2042 1.394 . S
C2043 C2044 1.383 . S
C2043 H2051 0.929 . S
C2044 C2043 1.383 . S
C2044 C2045 1.377 . S
C2045 H2029 0.930 . S
C2045 C2044 1.377 . S
C2045 C2046 1.379 . S
C2046 H2030 0.931 . S
C2046 C2040 1.383 . S
C2046 C2045 1.379 . S
H2047 C2041 0.959 . S
H2048 C2041 0.961 . S
H2049 C2041 0.960 . S
H2050 C2042 0.930 . S
H2051 C2043 0.929 . S
H2052 C2060 0.929 . S
H2053 C2062 0.930 . S
H2054 C2064 0.930 . S
H2055 C2067 0.929 . S
H2056 C2070 0.930 . S
H2057 C2072 0.960 . S
H2058 C2072 0.960 . S
H2059 C2072 0.960 . S
C2060 H2052 0.929 . S
C2060 C2061 1.377 . S
C2060 C2062 1.384 . S
C2061 C2060 1.377 . S
C2061 C2067 1.390 . S
C2062 H2053 0.930 . S
C2062 C2060 1.384 . S
C2062 C2063 1.372 . S
C2063 C2062 1.372 . S
C2063 C2064 1.400 . S
C2063 C2068 1.490 . S
C2064 H2054 0.930 . S
C2064 C2063 1.400 . S
C2064 C2067 1.386 . S
H2065 C2081 0.930 . S
H2066 C2082 0.931 . S
C2067 H2055 0.929 . S
C2067 C2061 1.390 . S
C2067 C2064 1.386 . S
C2068 C2063 1.490 . S
C2068 C2070 1.395 . S
C2068 C2071 1.403 . S
H2069 C2075 0.930 . S
C2070 H2056 0.930 . S
C2070 C2068 1.395 . S
C2070 C2073 1.403 . S
C2071 C2068 1.403 . S
C2071 C2072 1.524 . S
C2071 C2075 1.400 . S
C2072 H2057 0.960 . S
C2072 H2058 0.960 . S
C2072 H2059 0.960 . S
C2072 C2071 1.524 . S
C2073 C2070 1.403 . S
C2073 C2074 1.392 . S
C2073 C2077 1.495 . S
C2074 C2073 1.392 . S
C2074 C2075 1.385 . S
C2074 C2076 1.478 . S
C2075 H2069 0.930 . S
C2075 C2071 1.400 . S
C2075 C2074 1.385 . S
C2076 C2074 1.478 . S
C2076 C2078 1.381 . S
C2076 C2082 1.383 . S
C2077 C2073 1.495 . S
C2077 H2083 0.959 . S
C2077 H2084 0.961 . S
C2077 H2085 0.960 . S
C2078 C2076 1.381 . S
C2078 C2079 1.394 . S
C2078 H2086 0.930 . S
C2079 C2078 1.394 . S
C2079 C2080 1.383 . S
C2079 H2087 0.929 . S
C2080 C2079 1.383 . S
C2080 C2081 1.377 . S
C2081 H2065 0.930 . S
C2081 C2080 1.377 . S
C2081 C2082 1.379 . S
C2082 H2066 0.931 . S
C2082 C2076 1.383 . S
C2082 C2081 1.379 . S
H2083 C2077 0.959 . S
H2084 C2077 0.961 . S
H2085 C2077 0.960 . S
H2086 C2078 0.930 . S
H2087 C2079 0.929 . S
H2088 C2096 0.929 . S
H2089 C2098 0.930 . S
H2090 C2100 0.930 . S
H2091 C2103 0.929 . S
H2092 C2106 0.930 . S
H2093 C2108 0.960 . S
H2094 C2108 0.960 . S
H2095 C2108 0.960 . S
C2096 H2088 0.929 . S
C2096 C2097 1.377 . S
C2096 C2098 1.384 . S
C2097 C2096 1.377 . S
C2097 C2103 1.390 . S
C2098 H2089 0.930 . S
C2098 C2096 1.384 . S
C2098 C2099 1.372 . S
C2099 C2098 1.372 . S
C2099 C2100 1.400 . S
C2099 C2104 1.490 . S
C2100 H2090 0.930 . S
C2100 C2099 1.400 . S
C2100 C2103 1.386 . S
H2101 C2117 0.930 . S
H2102 C2118 0.931 . S
C2103 H2091 0.929 . S
C2103 C2097 1.390 . S
C2103 C2100 1.386 . S
C2104 C2099 1.490 . S
C2104 C2106 1.395 . S
C2104 C2107 1.403 . S
H2105 C2111 0.944 . S
C2106 H2092 0.930 . S
C2106 C2104 1.395 . S
C2106 C2109 1.403 . S
C2107 C2104 1.403 . S
C2107 C2108 1.524 . S
C2107 C2111 1.384 1_455 S
C2108 H2093 0.960 . S
C2108 H2094 0.960 . S
C2108 H2095 0.960 . S
C2108 C2107 1.524 . S
C2109 C2106 1.403 . S
C2109 C2110 1.392 1_455 S
C2109 C2113 1.495 . S
C2110 C2109 1.392 1_655 S
C2110 C2111 1.388 . S
C2110 C2112 1.478 . S
C2111 H2105 0.944 . S
C2111 C2107 1.384 1_655 S
C2111 C2110 1.388 . S
C2112 C2110 1.478 . S
C2112 C2114 1.381 . S
C2112 C2118 1.383 . S
C2113 C2109 1.495 . S
C2113 H2119 0.959 . S
C2113 H2120 0.961 . S
C2113 H2121 0.960 1_455 S
C2114 C2112 1.381 . S
C2114 C2115 1.394 . S
C2114 H2122 0.930 . S
C2115 C2114 1.394 . S
C2115 C2116 1.383 . S
C2115 H2123 0.929 . S
C2116 C2115 1.383 . S
C2116 C2117 1.377 . S
C2117 H2101 0.930 . S
C2117 C2116 1.377 . S
C2117 C2118 1.379 . S
C2118 H2102 0.931 . S
C2118 C2112 1.383 . S
C2118 C2117 1.379 . S
H2119 C2113 0.959 . S
H2120 C2113 0.961 . S
H2121 C2113 0.960 1_655 S
H2122 C2114 0.930 . S
H2123 C2115 0.929 . S
H2124 C2132 0.929 . S
H2125 C2134 0.930 . S
H2126 C2136 0.930 . S
H2127 C2139 0.929 . S
H2128 C2142 0.930 . S
H2129 C2144 0.960 . S
H2130 C2144 0.960 . S
H2131 C2144 0.960 . S
C2132 H2124 0.929 . S
C2132 C2133 1.377 . S
C2132 C2134 1.384 . S
C2133 C2132 1.377 . S
C2133 C2139 1.390 . S
C2134 H2125 0.930 . S
C2134 C2132 1.384 . S
C2134 C2135 1.372 . S
C2135 C2134 1.372 . S
C2135 C2136 1.400 . S
C2135 C2140 1.490 . S
C2136 H2126 0.930 . S
C2136 C2135 1.400 . S
C2136 C2139 1.386 . S
H2137 C2153 0.930 . S
H2138 C2154 0.931 . S
C2139 H2127 0.929 . S
C2139 C2133 1.390 . S
C2139 C2136 1.386 . S
C2140 C2135 1.490 . S
C2140 C2142 1.395 . S
C2140 C2143 1.403 . S
H2141 C2147 0.930 . S
C2142 H2128 0.930 . S
C2142 C2140 1.395 . S
C2142 C2145 1.403 . S
C2143 C2140 1.403 . S
C2143 C2144 1.524 . S
C2143 C2147 1.400 . S
C2144 H2129 0.960 . S
C2144 H2130 0.960 . S
C2144 H2131 0.960 . S
C2144 C2143 1.524 . S
C2145 C2142 1.403 . S
C2145 C2146 1.392 . S
C2145 C2149 1.495 . S
C2146 C2145 1.392 . S
C2146 C2147 1.385 . S
C2146 C2148 1.478 . S
C2147 H2141 0.930 . S
C2147 C2143 1.400 . S
C2147 C2146 1.385 . S
C2148 C2146 1.478 . S
C2148 C2150 1.381 . S
C2148 C2154 1.383 . S
C2149 C2145 1.495 . S
C2149 H2155 0.959 . S
C2149 H2156 0.961 . S
C2149 H2157 0.960 . S
C2150 C2148 1.381 . S
C2150 C2151 1.394 . S
C2150 H2158 0.930 . S
C2151 C2150 1.394 . S
C2151 C2152 1.383 . S
C2151 H2159 0.929 . S
C2152 C2151 1.383 . S
C2152 C2153 1.377 . S
C2153 H2137 0.930 . S
C2153 C2152 1.377 . S
C2153 C2154 1.379 . S
C2154 H2138 0.931 . S
C2154 C2148 1.383 . S
C2154 C2153 1.379 . S
H2155 C2149 0.959 . S
H2156 C2149 0.961 . S
H2157 C2149 0.960 . S
H2158 C2150 0.930 . S
H2159 C2151 0.929 . S
H2160 C2168 0.929 . S
H2161 C2170 0.930 . S
H2162 C2172 0.930 . S
H2163 C2175 0.929 . S
H2164 C2178 0.930 . S
H2165 C2180 0.960 . S
H2166 C2180 0.960 . S
H2167 C2180 0.960 . S
C2168 H2160 0.929 . S
C2168 C2169 1.377 . S
C2168 C2170 1.384 . S
C2169 C2168 1.377 . S
C2169 C2175 1.390 . S
C2170 H2161 0.930 . S
C2170 C2168 1.384 . S
C2170 C2171 1.372 . S
C2171 C2170 1.372 . S
C2171 C2172 1.400 . S
C2171 C2176 1.490 . S
C2172 H2162 0.930 . S
C2172 C2171 1.400 . S
C2172 C2175 1.386 . S
H2173 C2189 0.930 . S
H2174 C2190 0.931 . S
C2175 H2163 0.929 . S
C2175 C2169 1.390 . S
C2175 C2172 1.386 . S
C2176 C2171 1.490 . S
C2176 C2178 1.395 . S
C2176 C2179 1.403 . S
H2177 C2183 0.930 . S
C2178 H2164 0.930 . S
C2178 C2176 1.395 . S
C2178 C2181 1.403 . S
C2179 C2176 1.403 . S
C2179 C2180 1.524 . S
C2179 C2183 1.400 . S
C2180 H2165 0.960 . S
C2180 H2166 0.960 . S
C2180 H2167 0.960 . S
C2180 C2179 1.524 . S
C2181 C2178 1.403 . S
C2181 C2182 1.392 . S
C2181 C2185 1.495 . S
C2182 C2181 1.392 . S
C2182 C2183 1.385 . S
C2182 C2184 1.478 . S
C2183 H2177 0.930 . S
C2183 C2179 1.400 . S
C2183 C2182 1.385 . S
C2184 C2182 1.478 . S
C2184 C2186 1.381 . S
C2184 C2190 1.383 . S
C2185 C2181 1.495 . S
C2185 H2191 0.959 . S
C2185 H2192 0.961 . S
C2185 H2193 0.960 . S
C2186 C2184 1.381 . S
C2186 C2187 1.394 . S
C2186 H2194 0.930 . S
C2187 C2186 1.394 . S
C2187 C2188 1.383 . S
C2187 H2195 0.929 . S
C2188 C2187 1.383 . S
C2188 C2189 1.377 . S
C2189 H2173 0.930 . S
C2189 C2188 1.377 . S
C2189 C2190 1.379 . S
C2190 H2174 0.931 . S
C2190 C2184 1.383 . S
C2190 C2189 1.379 . S
H2191 C2185 0.959 . S
H2192 C2185 0.961 . S
H2193 C2185 0.960 . S
H2194 C2186 0.930 . S
H2195 C2187 0.929 . S
H2196 C2204 0.929 . S
H2197 C2206 0.930 . S
H2198 C2208 0.930 . S
H2199 C2211 0.929 . S
H2200 C2214 0.930 . S
H2201 C2216 0.960 . S
H2202 C2216 0.960 . S
H2203 C2216 0.960 . S
C2204 H2196 0.929 . S
C2204 C2205 1.377 . S
C2204 C2206 1.384 . S
C2205 C2204 1.377 . S
C2205 C2211 1.390 . S
C2206 H2197 0.930 . S
C2206 C2204 1.384 . S
C2206 C2207 1.372 . S
C2207 C2206 1.372 . S
C2207 C2208 1.400 . S
C2207 C2212 1.490 . S
C2208 H2198 0.930 . S
C2208 C2207 1.400 . S
C2208 C2211 1.386 . S
H2209 C2225 0.930 . S
H2210 C2226 0.931 . S
C2211 H2199 0.929 . S
C2211 C2205 1.390 . S
C2211 C2208 1.386 . S
C2212 C2207 1.490 . S
C2212 C2214 1.395 . S
C2212 C2215 1.403 . S
H2213 C2219 0.930 . S
C2214 H2200 0.930 . S
C2214 C2212 1.395 . S
C2214 C2217 1.403 . S
C2215 C2212 1.403 . S
C2215 C2216 1.524 . S
C2215 C2219 1.400 . S
C2216 H2201 0.960 . S
C2216 H2202 0.960 . S
C2216 H2203 0.960 . S
C2216 C2215 1.524 . S
C2217 C2214 1.403 . S
C2217 C2218 1.392 . S
C2217 C2221 1.495 . S
C2218 C2217 1.392 . S
C2218 C2219 1.385 . S
C2218 C2220 1.478 . S
C2219 H2213 0.930 . S
C2219 C2215 1.400 . S
C2219 C2218 1.385 . S
C2220 C2218 1.478 . S
C2220 C2222 1.381 . S
C2220 C2226 1.383 . S
C2221 C2217 1.495 . S
C2221 H2227 0.959 . S
C2221 H2228 0.961 . S
C2221 H2229 0.960 . S
C2222 C2220 1.381 . S
C2222 C2223 1.394 . S
C2222 H2230 0.930 . S
C2223 C2222 1.394 . S
C2223 C2224 1.383 . S
C2223 H2231 0.929 . S
C2224 C2223 1.383 . S
C2224 C2225 1.377 . S
C2225 H2209 0.930 . S
C2225 C2224 1.377 . S
C2225 C2226 1.379 . S
C2226 H2210 0.931 . S
C2226 C2220 1.383 . S
C2226 C2225 1.379 . S
H2227 C2221 0.959 . S
H2228 C2221 0.961 . S
H2229 C2221 0.960 . S
H2230 C2222 0.930 . S
H2231 C2223 0.929 . S
H2232 C2240 0.929 . S
H2233 C2242 0.930 . S
H2234 C2244 0.930 . S
H2235 C2247 0.929 . S
H2236 C2250 0.930 . S
H2237 C2252 0.960 . S
H2238 C2252 0.960 . S
H2239 C2252 0.960 . S
C2240 H2232 0.929 . S
C2240 C2241 1.377 . S
C2240 C2242 1.384 . S
C2241 C2240 1.377 . S
C2241 C2247 1.390 . S
C2242 H2233 0.930 . S
C2242 C2240 1.384 . S
C2242 C2243 1.372 . S
C2243 C2242 1.372 . S
C2243 C2244 1.400 . S
C2243 C2248 1.490 . S
C2244 H2234 0.930 . S
C2244 C2243 1.400 . S
C2244 C2247 1.386 . S
H2245 C2261 0.930 . S
H2246 C2262 0.931 . S
C2247 H2235 0.929 . S
C2247 C2241 1.390 . S
C2247 C2244 1.386 . S
C2248 C2243 1.490 . S
C2248 C2250 1.395 . S
C2248 C2251 1.403 . S
H2249 C2255 0.930 . S
C2250 H2236 0.930 . S
C2250 C2248 1.395 . S
C2250 C2253 1.403 . S
C2251 C2248 1.403 . S
C2251 C2252 1.524 . S
C2251 C2255 1.400 . S
C2252 H2237 0.960 . S
C2252 H2238 0.960 . S
C2252 H2239 0.960 . S
C2252 C2251 1.524 . S
C2253 C2250 1.403 . S
C2253 C2254 1.392 . S
C2253 C2257 1.495 . S
C2254 C2253 1.392 . S
C2254 C2255 1.385 . S
C2254 C2256 1.478 . S
C2255 H2249 0.930 . S
C2255 C2251 1.400 . S
C2255 C2254 1.385 . S
C2256 C2254 1.478 . S
C2256 C2258 1.381 . S
C2256 C2262 1.383 . S
C2257 C2253 1.495 . S
C2257 H2263 0.959 . S
C2257 H2264 0.961 . S
C2257 H2265 0.960 . S
C2258 C2256 1.381 . S
C2258 C2259 1.394 . S
C2258 H2266 0.930 . S
C2259 C2258 1.394 . S
C2259 C2260 1.383 . S
C2259 H2267 0.929 . S
C2260 C2259 1.383 . S
C2260 C2261 1.377 . S
C2261 H2245 0.930 . S
C2261 C2260 1.377 . S
C2261 C2262 1.379 . S
C2262 H2246 0.931 . S
C2262 C2256 1.383 . S
C2262 C2261 1.379 . S
H2263 C2257 0.959 . S
H2264 C2257 0.961 . S
H2265 C2257 0.960 . S
H2266 C2258 0.930 . S
H2267 C2259 0.929 . S
H2268 C2276 0.929 . S
H2269 C2278 0.930 . S
H2270 C2280 0.930 . S
H2271 C2283 0.929 . S
H2272 C2286 0.930 . S
H2273 C2288 0.960 . S
H2274 C2288 0.960 . S
H2275 C2288 0.960 . S
C2276 H2268 0.929 . S
C2276 C2277 1.377 . S
C2276 C2278 1.384 . S
C2277 C2276 1.377 . S
C2277 C2283 1.390 . S
C2278 H2269 0.930 . S
C2278 C2276 1.384 . S
C2278 C2279 1.372 . S
C2279 C2278 1.372 . S
C2279 C2280 1.400 . S
C2279 C2284 1.490 . S
C2280 H2270 0.930 . S
C2280 C2279 1.400 . S
C2280 C2283 1.386 . S
H2281 C2297 0.930 . S
H2282 C2298 0.931 . S
C2283 H2271 0.929 . S
C2283 C2277 1.390 . S
C2283 C2280 1.386 . S
C2284 C2279 1.490 . S
C2284 C2286 1.395 . S
C2284 C2287 1.403 . S
H2285 C2291 0.930 1_455 S
C2286 H2272 0.930 . S
C2286 C2284 1.395 . S
C2286 C2289 1.403 . S
C2287 C2284 1.403 . S
C2287 C2288 1.524 . S
C2287 C2291 1.400 . S
C2288 H2273 0.960 . S
C2288 H2274 0.960 . S
C2288 H2275 0.960 . S
C2288 C2287 1.524 . S
C2289 C2286 1.403 . S
C2289 C2290 1.395 1_655 S
C2289 C2293 1.495 . S
C2290 C2289 1.395 1_455 S
C2290 C2291 1.385 1_455 S
C2290 C2292 1.475 . S
C2291 H2285 0.930 1_655 S
C2291 C2287 1.400 . S
C2291 C2290 1.385 1_655 S
C2292 C2290 1.475 . S
C2292 C2294 1.381 . S
C2292 C2298 1.383 . S
C2293 C2289 1.495 . S
C2293 H2299 0.959 . S
C2293 H2300 0.961 . S
C2293 H2301 0.960 . S
C2294 C2292 1.381 . S
C2294 C2295 1.394 . S
C2294 H2302 0.930 . S
C2295 C2294 1.394 . S
C2295 C2296 1.383 . S
C2295 H2303 0.929 . S
C2296 C2295 1.383 . S
C2296 C2297 1.377 . S
C2297 H2281 0.930 . S
C2297 C2296 1.377 . S
C2297 C2298 1.379 . S
C2298 H2282 0.931 . S
C2298 C2292 1.383 . S
C2298 C2297 1.379 . S
H2299 C2293 0.959 . S
H2300 C2293 0.961 . S
H2301 C2293 0.960 . S
H2302 C2294 0.930 . S
H2303 C2295 0.929 . S
C1017 C74 1.575 . S
C1036 C991 1.624 . S
C1053 C823 1.649 1_565 S
C1072 C158 1.581 . S
C1089 C235 1.629 1_554 S
C1108 C746 1.599 . S
C1125 C326 1.609 . S
C1144 C907 1.644 1_545 S
C1161 C410 1.620 . S
C1180 C914 1.594 . S
C1197 C487 1.639 . S
C1216 C998 1.568 . S
C1233 C830 1.622 . S
C1252 C578 1.582 1_556 S
C1269 C655 1.619 . S
C1288 C739 1.623 . S
C1305 C319 1.613 . S
C1324 C403 1.602 . S
C1341 C67 1.648 . S
C1360 C494 1.605 1_455 S
C1377 C151 1.622 1_655 S
C1396 C571 1.610 . S
C1413 C662 1.632 . S
C1432 C242 1.606 . S
C1449 C69 1.386 . S
C1468 C735 1.586 . S
C1485 C153 1.419 . S
C1504 C896 1.602 . S
C1521 C980 1.605 . S
C1540 C226 1.581 . S
C1557 C321 1.369 . S
C1576 C812 1.543 . S
C1593 C405 1.400 . S
C1612 C819 1.612 . S
C1629 C728 1.587 . S
C1648 C478 1.536 . S
C1665 C903 1.607 . S
C1684 C573 1.436 . S
C1701 C987 1.651 . S
C1720 C646 1.555 . S
C1737 C56 1.587 . S
C1756 C310 1.553 . S
C1773 C58 1.493 . S
C1792 C140 1.524 . S
C1809 C142 1.547 . S
C1828 C231 1.619 . S
C1845 C308 1.558 . S
C1864 C237 1.373 . S
C1881 C489 1.427 . S
C1900 C392 1.629 . S
C1917 C483 1.626 . S
C1936 C562 1.527 . S
C1953 C560 1.613 . S
C1972 C657 1.381 . S
C1989 C394 1.560 . S
C2008 C651 1.609 . S
C2025 C730 1.508 . S
C2044 C315 1.580 . S
C2061 C476 1.571 . S
C2080 C814 1.498 . S
C2097 C741 1.367 . S
C2116 C567 1.564 . S
C2133 C898 1.561 . S
C2152 C644 1.625 . S
C2169 C399 1.604 . S
C2188 C982 1.569 . S
C2205 C993 1.403 . S
C2224 C147 1.619 . S
C2241 C224 1.597 . S
C2260 C825 1.354 . S
C2277 C909 1.410 . S
C2296 C63 1.621 . S
