# Generated by pormake.
# Topology zfe, (5)-cn, num edge types: 1
# Building blocks:
#     Node 0, Type 0, BuildingBlock: XOMCOT_clean_sbu_1, # of connection points: 5
#     Node 1, Type 0, BuildingBlock: XOMCOT_clean_sbu_1, # of connection points: 5
#     Node 2, Type 0, BuildingBlock: XOMCOT_clean_sbu_1, # of connection points: 5
#     Node 3, Type 0, BuildingBlock: XOMCOT_clean_sbu_1, # of connection points: 5
#     Node 4, Type 0, BuildingBlock: XOMCOT_clean_sbu_1, # of connection points: 5
#     Node 5, Type 0, BuildingBlock: XOMCOT_clean_sbu_1, # of connection points: 5
#     Node 6, Type 0, BuildingBlock: XOMCOT_clean_sbu_1, # of connection points: 5
#     Node 7, Type 0, BuildingBlock: XOMCOT_clean_sbu_1, # of connection points: 5
#     Node 8, Type 0, BuildingBlock: XOMCOT_clean_sbu_1, # of connection points: 5
#     Node 9, Type 0, BuildingBlock: XOMCOT_clean_sbu_1, # of connection points: 5
#     Node 10, Type 0, BuildingBlock: XOMCOT_clean_sbu_1, # of connection points: 5
#     Node 11, Type 0, BuildingBlock: XOMCOT_clean_sbu_1, # of connection points: 5
#     Node 12, Type 0, BuildingBlock: XOMCOT_clean_sbu_1, # of connection points: 5
#     Node 13, Type 0, BuildingBlock: XOMCOT_clean_sbu_1, # of connection points: 5
#     Node 14, Type 0, BuildingBlock: XOMCOT_clean_sbu_1, # of connection points: 5
#     Node 15, Type 0, BuildingBlock: XOMCOT_clean_sbu_1, # of connection points: 5
#     Edge 16, Type (0, 0), BuildingBlock: TEMPAE_clean_linker_10, # of connection points: 2
#     Edge 17, Type (0, 0), BuildingBlock: TEMPAE_clean_linker_10, # of connection points: 2
#     Edge 18, Type (0, 0), BuildingBlock: TEMPAE_clean_linker_10, # of connection points: 2
#     Edge 19, Type (0, 0), BuildingBlock: TEMPAE_clean_linker_10, # of connection points: 2
#     Edge 20, Type (0, 0), BuildingBlock: TEMPAE_clean_linker_10, # of connection points: 2
#     Edge 21, Type (0, 0), BuildingBlock: TEMPAE_clean_linker_10, # of connection points: 2
#     Edge 22, Type (0, 0), BuildingBlock: TEMPAE_clean_linker_10, # of connection points: 2
#     Edge 23, Type (0, 0), BuildingBlock: TEMPAE_clean_linker_10, # of connection points: 2
#     Edge 24, Type (0, 0), BuildingBlock: TEMPAE_clean_linker_10, # of connection points: 2
#     Edge 25, Type (0, 0), BuildingBlock: TEMPAE_clean_linker_10, # of connection points: 2
#     Edge 26, Type (0, 0), BuildingBlock: TEMPAE_clean_linker_10, # of connection points: 2
#     Edge 27, Type (0, 0), BuildingBlock: TEMPAE_clean_linker_10, # of connection points: 2
#     Edge 28, Type (0, 0), BuildingBlock: TEMPAE_clean_linker_10, # of connection points: 2
#     Edge 29, Type (0, 0), BuildingBlock: TEMPAE_clean_linker_10, # of connection points: 2
#     Edge 30, Type (0, 0), BuildingBlock: TEMPAE_clean_linker_10, # of connection points: 2
#     Edge 31, Type (0, 0), BuildingBlock: TEMPAE_clean_linker_10, # of connection points: 2
#     Edge 32, Type (0, 0), BuildingBlock: TEMPAE_clean_linker_10, # of connection points: 2
#     Edge 33, Type (0, 0), BuildingBlock: TEMPAE_clean_linker_10, # of connection points: 2
#     Edge 34, Type (0, 0), BuildingBlock: TEMPAE_clean_linker_10, # of connection points: 2
#     Edge 35, Type (0, 0), BuildingBlock: TEMPAE_clean_linker_10, # of connection points: 2
#     Edge 36, Type (0, 0), BuildingBlock: TEMPAE_clean_linker_10, # of connection points: 2
#     Edge 37, Type (0, 0), BuildingBlock: TEMPAE_clean_linker_10, # of connection points: 2
#     Edge 38, Type (0, 0), BuildingBlock: TEMPAE_clean_linker_10, # of connection points: 2
#     Edge 39, Type (0, 0), BuildingBlock: TEMPAE_clean_linker_10, # of connection points: 2
#     Edge 40, Type (0, 0), BuildingBlock: TEMPAE_clean_linker_10, # of connection points: 2
#     Edge 41, Type (0, 0), BuildingBlock: TEMPAE_clean_linker_10, # of connection points: 2
#     Edge 42, Type (0, 0), BuildingBlock: TEMPAE_clean_linker_10, # of connection points: 2
#     Edge 43, Type (0, 0), BuildingBlock: TEMPAE_clean_linker_10, # of connection points: 2
#     Edge 44, Type (0, 0), BuildingBlock: TEMPAE_clean_linker_10, # of connection points: 2
#     Edge 45, Type (0, 0), BuildingBlock: TEMPAE_clean_linker_10, # of connection points: 2
#     Edge 46, Type (0, 0), BuildingBlock: TEMPAE_clean_linker_10, # of connection points: 2
#     Edge 47, Type (0, 0), BuildingBlock: TEMPAE_clean_linker_10, # of connection points: 2
#     Edge 48, Type (0, 0), BuildingBlock: TEMPAE_clean_linker_10, # of connection points: 2
#     Edge 49, Type (0, 0), BuildingBlock: TEMPAE_clean_linker_10, # of connection points: 2
#     Edge 50, Type (0, 0), BuildingBlock: TEMPAE_clean_linker_10, # of connection points: 2
#     Edge 51, Type (0, 0), BuildingBlock: TEMPAE_clean_linker_10, # of connection points: 2
#     Edge 52, Type (0, 0), BuildingBlock: TEMPAE_clean_linker_10, # of connection points: 2
#     Edge 53, Type (0, 0), BuildingBlock: TEMPAE_clean_linker_10, # of connection points: 2
#     Edge 54, Type (0, 0), BuildingBlock: TEMPAE_clean_linker_10, # of connection points: 2
#     Edge 55, Type (0, 0), BuildingBlock: TEMPAE_clean_linker_10, # of connection points: 2
# Relax obj value: 0.183
# Max RMSD: 0.152
# Mean RMSD: 0.152
data_MOF--net-zfe--node1-XOMCOT_clean_sbu_1--edge1-TEMPAE_clean_linker_10
_symmetry_space_group_name_H-M    P1
_symmetry_Int_Tables_number       1
_symmetry_cell_setting            triclinic
loop_
_symmetry_equiv_pos_as_xyz
'x, y, z'
_cell_length_a     55.044546
_cell_length_b     55.049384
_cell_length_c     28.122981
_cell_angle_alpha  90.033003
_cell_angle_beta   90.081791
_cell_angle_gamma 90.006922
loop_
_atom_site_label
_atom_site_type_symbol
_atom_site_fract_x
_atom_site_fract_y
_atom_site_fract_z
_atom_type_partial_charge
C0 C 0.08622 0.24657 0.98521 0.0
C1 C 0.10312 0.26471 0.97942 0.0
N2 N 0.09494 0.28487 1.00134 0.0
N3 N 0.06749 0.25502 1.01124 0.0
C4 C 0.07303 0.27863 0.01946 0.0
H5 H 0.0877 0.22817 0.97206 0.0
Co6 Co 0.0404 0.23617 0.02817 0.0
C7 C 0.04513 0.26562 0.12405 0.0
O8 O 0.06752 0.27367 0.12074 0.0
N9 N 0.01309 0.21729 0.04584 0.0
C10 C 0.98909 0.19601 0.09409 0.0
C11 C 0.01128 0.20693 0.08931 0.0
C12 C 0.9917 0.21183 0.02428 0.0
N13 N 0.97682 0.19908 0.0533 0.0
O14 O 0.01993 0.25894 0.99431 0.0
H15 H 0.02516 0.20769 0.11654 0.0
H16 H 0.98681 0.21752 0.98874 0.0
O17 O 0.03606 0.25272 0.09046 0.0
C18 C 0.02052 0.25076 0.95161 0.0
O19 O 0.03194 0.23021 0.94362 0.0
N20 N 0.06115 0.21224 0.05333 0.0
C21 C 0.09542 0.17502 0.06266 0.0
C22 C 0.09716 0.19627 0.0904 0.0
C23 C 0.0798 0.21483 0.08501 0.0
C24 C 0.05885 0.1914 0.02754 0.0
C25 C 0.07542 0.17253 0.0322 0.0
H26 H 0.08229 0.23165 0.10391 0.0
H27 H 0.04456 0.18983 1.0013 0.0
H28 H 0.06126 0.29106 0.03832 0.0
H29 H 0.12057 0.26288 0.96206 0.0
H30 H 0.98239 0.18651 0.12513 0.0
H31 H 0.11241 0.19905 0.11415 0.0
H32 H 0.0729 0.15634 1.01085 0.0
C33 C 0.74242 0.07766 0.95127 0.0
C34 C 0.72331 0.09342 0.95434 0.0
N35 N 0.71264 0.09065 0.99707 0.0
N36 N 0.74421 0.06478 0.99178 0.0
C37 C 0.72585 0.07318 0.0195 0.0
H38 H 0.75448 0.07579 0.92121 0.0
Co39 Co 0.7688 0.0415 0.99558 0.0
C40 C 0.77203 0.0242 0.09538 0.0
O41 O 0.79569 0.02635 0.09052 0.0
N42 N 0.79397 0.01766 0.99624 0.0
C43 C 0.82868 0.9981 0.98239 0.0
C44 C 0.8164 0.01961 0.97705 0.0
C45 C 0.79296 0.9943 1.01177 0.0
N46 N 0.81402 0.98223 1.00455 0.0
O47 O 0.74778 0.01858 0.96321 0.0
H48 H 0.82357 0.03537 0.95927 0.0
H49 H 0.77708 0.98629 0.02814 0.0
O50 O 0.75802 0.03062 0.06083 0.0
C51 C 0.75461 0.01892 0.91967 0.0
O52 O 0.77367 0.03199 0.90821 0.0
N53 N 0.78986 0.06577 0.01934 0.0
C54 C 0.82352 0.10308 0.03344 0.0
C55 C 0.80957 0.0943 0.07155 0.0
C56 C 0.79206 0.07617 0.06335 0.0
C57 C 0.80195 0.0756 0.98173 0.0
C58 C 0.819 0.09396 0.98793 0.0
H59 H 0.78038 0.07079 0.09224 0.0
H60 H 0.79855 0.06879 0.9463 0.0
H61 H 0.7221 0.06652 0.05494 0.0
H62 H 0.71804 0.10639 0.9273 0.0
H63 H 0.84719 0.99451 0.97142 0.0
H64 H 0.81194 0.10163 0.107 0.0
H65 H 0.82902 0.10054 0.9574 0.0
C66 C 0.91526 0.76255 0.9933 0.0
C67 C 0.89869 0.74415 0.98685 0.0
N68 N 0.90678 0.72423 1.00975 0.0
N69 N 0.93371 0.75451 0.02063 0.0
C70 C 0.92831 0.73089 0.02917 0.0
H71 H 0.91369 0.7809 0.97992 0.0
Co72 Co 0.95985 0.77415 0.03969 0.0
C73 C 0.9569 0.74337 0.13476 0.0
O74 O 0.93481 0.73443 0.1326 0.0
N75 N 0.98631 0.79372 0.06028 0.0
C76 C 0.00802 0.81499 0.11261 0.0
C77 C 0.98604 0.80453 0.10351 0.0
C78 C 0.00905 0.79808 0.04365 0.0
N79 N 0.02262 0.81082 0.0753 0.0
O80 O 0.98151 0.75313 1.00375 0.0
H81 H 0.97105 0.80398 0.12828 0.0
H82 H 0.01592 0.79123 1.01023 0.0
O83 O 0.96482 0.75677 0.10088 0.0
C84 C 0.98132 0.76267 0.96205 0.0
O85 O 0.96966 0.78327 0.95614 0.0
N86 N 0.93778 0.79658 0.0664 0.0
C87 C 0.90407 0.83345 0.08409 0.0
C88 C 0.90179 0.8107 0.10635 0.0
C89 C 0.91904 0.79241 0.09718 0.0
C90 C 0.93977 0.81845 0.04399 0.0
C91 C 0.92352 0.83719 0.05303 0.0
H92 H 0.91662 0.77473 0.11282 0.0
H93 H 0.95385 0.82119 1.01776 0.0
H94 H 0.93994 0.71876 0.04908 0.0
H95 H 0.88149 0.74566 0.96839 0.0
H96 H 0.01303 0.82465 0.14471 0.0
H97 H 0.88665 0.80701 0.12982 0.0
H98 H 0.92554 0.85421 0.03408 0.0
C99 C 0.24474 0.91842 1.00437 0.0
C100 C 0.26171 0.90057 0.99678 0.0
N101 N 0.28222 0.90646 0.02047 0.0
N102 N 0.25419 0.93555 0.03316 0.0
C103 C 0.27732 0.9282 0.04107 0.0
H104 H 0.22645 0.91876 0.99027 0.0
Co105 Co 0.23657 0.9629 0.05332 0.0
C106 C 0.2659 0.95494 0.14858 0.0
O107 O 0.27347 0.93245 0.14383 0.0
N108 N 0.2188 0.99042 0.07406 0.0
C109 C 0.19566 0.0126 0.12238 0.0
C110 C 0.20871 0.99157 0.11786 0.0
C111 C 0.21171 0.01135 0.05266 0.0
N112 N 0.19759 0.02502 0.08154 0.0
O113 O 0.25999 0.98319 0.02157 0.0
H114 H 0.21019 0.97757 0.14468 0.0
H115 H 0.21599 0.01612 1.01632 0.0
O116 O 0.25332 0.96484 0.1155 0.0
C117 C 0.25149 0.98385 0.97915 0.0
O118 O 0.23035 0.9736 0.97078 0.0
N119 N 0.212 0.94249 0.07682 0.0
C120 C 0.17353 0.90984 0.08625 0.0
C121 C 0.19549 0.90598 0.11066 0.0
C122 C 0.2146 0.92269 0.10561 0.0
C123 C 0.19072 0.94639 0.05315 0.0
C124 C 0.17119 0.93059 0.05797 0.0
H125 H 0.23177 0.91886 0.12232 0.0
H126 H 0.18922 0.96137 0.02847 0.0
H127 H 0.29019 0.93844 0.06208 0.0
H128 H 0.25895 0.88444 0.9755 0.0
H129 H 0.18518 0.01821 0.15303 0.0
H130 H 0.19801 0.88997 0.13246 0.0
H131 H 0.15478 0.93395 0.03769 0.0
C132 C 0.08905 0.76103 0.59505 0.0
C133 C 0.10606 0.74301 0.59978 0.0
N134 N 0.09908 0.72376 0.57339 0.0
N135 N 0.07126 0.75357 0.56553 0.0
C136 C 0.07742 0.73042 0.55427 0.0
H137 H 0.08978 0.77872 0.61171 0.0
Co138 Co 0.0455 0.77433 0.54864 0.0
C139 C 0.04735 0.74534 0.45171 0.0
O140 O 0.06975 0.73715 0.45285 0.0
N141 N 0.01981 0.79537 0.53108 0.0
C142 C 0.99944 0.82129 0.48512 0.0
C143 C 0.02009 0.80774 0.4895 0.0
C144 C 0.99819 0.80144 0.551 0.0
N145 N 0.98566 0.81735 0.52363 0.0
O146 O 0.02334 0.75337 0.58373 0.0
H147 H 0.03426 0.80666 0.46305 0.0
H148 H 0.99173 0.7945 0.58466 0.0
O149 O 0.03919 0.75808 0.48642 0.0
C150 C 0.0246 0.76132 0.62664 0.0
O151 O 0.0377 0.78081 0.63493 0.0
N152 N 0.06805 0.79655 0.52306 0.0
C153 C 0.10229 0.83318 0.50868 0.0
C154 C 0.10032 0.81383 0.47633 0.0
C155 C 0.08312 0.79535 0.48452 0.0
C156 C 0.06955 0.81562 0.55383 0.0
C157 C 0.08651 0.83401 0.54745 0.0
H158 H 0.08229 0.78022 0.46042 0.0
H159 H 0.05773 0.81624 0.58447 0.0
H160 H 0.06643 0.71878 0.53204 0.0
H161 H 0.12244 0.74423 0.62091 0.0
H162 H 0.99457 0.83278 0.45534 0.0
H163 H 0.11233 0.8127 0.44594 0.0
H164 H 0.08745 0.84873 0.573 0.0
C165 C 0.26808 0.07409 0.62077 0.0
C166 C 0.28791 0.08895 0.61773 0.0
N167 N 0.29537 0.08968 0.57211 0.0
N168 N 0.26268 0.0652 0.57746 0.0
C169 C 0.27953 0.07515 0.54813 0.0
H170 H 0.25777 0.07043 0.65266 0.0
Co171 Co 0.23552 0.04513 0.57113 0.0
C172 C 0.23374 0.02557 0.47221 0.0
O173 O 0.21006 0.02841 0.47411 0.0
N174 N 0.20765 0.02468 0.5675 0.0
C175 C 0.16968 0.01083 0.56863 0.0
C176 C 0.18418 0.03089 0.5745 0.0
C177 C 0.20686 1.00044 0.55865 0.0
N178 N 0.18389 0.99163 0.55843 0.0
O179 O 0.25273 0.02003 0.60595 0.0
H180 H 0.17764 0.0488 0.58311 0.0
H181 H 0.22286 0.98956 0.55187 0.0
O182 O 0.24698 0.03256 0.50749 0.0
C183 C 0.2441 0.01967 0.64823 0.0
O184 O 0.22524 0.03342 0.65795 0.0
N185 N 0.21824 0.07149 0.54505 0.0
C186 C 0.18596 0.10965 0.52907 0.0
C187 C 0.19766 0.09817 0.49077 0.0
C188 C 0.21452 0.07955 0.49965 0.0
C189 C 0.20874 0.08407 0.58243 0.0
C190 C 0.1925 0.10308 0.57533 0.0
H191 H 0.22404 0.07163 0.47003 0.0
H192 H 0.21271 0.07823 0.61831 0.0
H193 H 0.28002 0.07199 0.51017 0.0
H194 H 0.29562 0.09918 0.64694 0.0
H195 H 0.15005 0.01061 0.57069 0.0
H196 H 0.19362 0.10339 0.45449 0.0
H197 H 0.18406 0.11161 0.60586 0.0
C198 C 0.92019 0.24729 0.58578 0.0
C199 C 0.90338 0.2655 0.59172 0.0
N200 N 0.91148 0.28554 0.56928 0.0
N201 N 0.93876 0.25556 0.55914 0.0
C202 C 0.93324 0.27915 0.5507 0.0
H203 H 0.91872 0.22893 0.59917 0.0
Co204 Co 0.96562 0.23656 0.54146 0.0
C205 C 0.96067 0.26601 0.44563 0.0
O206 O 0.93835 0.27422 0.44899 0.0
N207 N 0.99274 0.21756 0.52287 0.0
C208 C 0.0162 0.19637 0.47346 0.0
C209 C 0.99386 0.20677 0.47969 0.0
C210 C 0.01474 0.21294 0.54274 0.0
N211 N 0.02932 0.20025 0.51298 0.0
O212 O 0.98641 0.25917 0.57501 0.0
H213 H 0.97951 0.20711 0.4534 0.0
H214 H 0.02036 0.21938 0.57738 0.0
O215 O 0.96969 0.25309 0.4792 0.0
C216 C 0.98617 0.25071 0.6175 0.0
O217 O 0.97492 0.23004 0.62525 0.0
N218 N 0.94451 0.21278 0.51671 0.0
C219 C 0.90986 0.17584 0.50804 0.0
C220 C 0.90804 0.19718 0.48067 0.0
C221 C 0.92559 0.2156 0.48572 0.0
C222 C 0.94686 0.19186 0.54216 0.0
C223 C 0.9301 0.17312 0.5378 0.0
H224 H 0.92306 0.23251 0.46716 0.0
H225 H 0.96137 0.1901 0.56788 0.0
H226 H 0.94493 0.29145 0.53136 0.0
H227 H 0.88604 0.2638 0.60951 0.0
H228 H 0.02247 0.18682 0.44212 0.0
H229 H 0.89261 0.20016 0.45748 0.0
H230 H 0.9327 0.15684 0.55882 0.0
C231 C 0.75865 0.92056 0.57015 0.0
C232 C 0.74157 0.90276 0.57724 0.0
N233 N 0.72173 0.90805 0.55102 0.0
N234 N 0.74995 0.93705 0.53915 0.0
C235 C 0.7271 0.92938 0.52931 0.0
H236 H 0.77651 0.9213 0.58617 0.0
Co237 Co 0.76804 0.96407 0.51896 0.0
C238 C 0.74109 0.95455 0.42159 0.0
O239 O 0.73404 0.9319 0.42642 0.0
N240 N 0.78633 0.99124 0.49806 0.0
C241 C 0.81058 0.01243 0.45018 0.0
C242 C 0.79733 0.99156 0.45506 0.0
C243 C 0.79308 0.01253 0.51858 0.0
N244 N 0.80792 0.02561 0.48999 0.0
O245 O 0.74396 0.98483 0.54763 0.0
H246 H 0.79631 0.9771 0.42908 0.0
H247 H 0.78808 0.01799 0.55419 0.0
O248 O 0.75265 0.96507 0.45537 0.0
C249 C 0.75194 0.9863 0.59038 0.0
O250 O 0.77309 0.97645 0.60031 0.0
N251 N 0.79315 0.94329 0.49918 0.0
C252 C 0.83078 0.9093 0.50152 0.0
C253 C 0.81058 0.9058 0.47159 0.0
C254 C 0.79172 0.92305 0.47119 0.0
C255 C 0.8132 0.94736 0.52651 0.0
C256 C 0.83225 0.93086 0.52776 0.0
H257 H 0.77548 0.91923 0.45121 0.0
H258 H 0.81384 0.96294 0.5499 0.0
H259 H 0.71478 0.93906 0.50615 0.0
H260 H 0.74377 0.88706 0.59996 0.0
H261 H 0.82169 0.01744 0.41999 0.0
H262 H 0.80873 0.88931 0.45089 0.0
H263 H 0.84766 0.93458 0.55063 0.0
C264 C 0.58132 0.74732 0.47655 0.0
C265 C 0.59814 0.76532 0.46868 0.0
N266 N 0.59144 0.78519 0.49337 0.0
N267 N 0.56414 0.75556 0.50661 0.0
C268 C 0.57047 0.77892 0.5153 0.0
H269 H 0.58185 0.72911 0.46214 0.0
Co270 Co 0.53808 0.73647 0.52769 0.0
C271 C 0.54436 0.76648 0.62327 0.0
O272 O 0.56654 0.77503 0.61933 0.0
N273 N 0.51175 0.71726 0.54998 0.0
C274 C 0.4911 0.69519 0.60253 0.0
C275 C 0.51282 0.70605 0.59272 0.0
C276 C 0.48886 0.71264 0.53426 0.0
N277 N 0.47591 0.6994 0.56603 0.0
O278 O 0.51629 0.75856 0.49534 0.0
H279 H 0.52831 0.70635 0.61641 0.0
H280 H 0.48153 0.71939 0.5011 0.0
O281 O 0.53537 0.75339 0.58989 0.0
C282 C 0.51492 0.74913 0.45367 0.0
O283 O 0.52482 0.7277 0.44683 0.0
N284 N 0.56022 0.71325 0.55068 0.0
C285 C 0.59606 0.67734 0.55498 0.0
C286 C 0.59814 0.69868 0.58232 0.0
C287 C 0.57997 0.71663 0.57939 0.0
C288 C 0.55762 0.69224 0.52554 0.0
C289 C 0.57502 0.67402 0.5277 0.0
H290 H 0.58261 0.73365 0.59755 0.0
H291 H 0.54239 0.69006 0.50161 0.0
H292 H 0.55988 0.79118 0.53699 0.0
H293 H 0.61459 0.76353 0.44793 0.0
H294 H 0.48679 0.68495 0.63427 0.0
H295 H 0.61418 0.70203 0.60367 0.0
H296 H 0.57231 0.6577 0.5068 0.0
C297 C 0.25594 0.5837 0.48145 0.0
C298 C 0.23764 0.60034 0.47489 0.0
N299 N 0.21782 0.5926 0.4985 0.0
N300 N 0.24797 0.56559 0.50963 0.0
C301 C 0.22443 0.57119 0.5184 0.0
H302 H 0.2742 0.58503 0.46753 0.0
Co303 Co 0.26777 0.53952 0.52857 0.0
C304 C 0.23806 0.54409 0.62424 0.0
O305 O 0.22922 0.56615 0.62056 0.0
N306 N 0.28776 0.51327 0.54839 0.0
C307 C 0.31288 0.49303 0.5963 0.0
C308 C 0.29917 0.51354 0.59105 0.0
C309 C 0.29468 0.49186 0.52854 0.0
N310 N 0.31008 0.47939 0.55714 0.0
O311 O 0.24601 0.51774 0.49532 0.0
H312 H 0.29773 0.52796 0.61703 0.0
H313 H 0.28906 0.48573 0.49367 0.0
O314 O 0.25123 0.53533 0.5908 0.0
C315 C 0.25478 0.51771 0.45308 0.0
O316 O 0.27536 0.52917 0.44557 0.0
N317 N 0.2907 0.56165 0.55292 0.0
C318 C 0.32758 0.59585 0.56594 0.0
C319 C 0.30555 0.59788 0.5909 0.0
C320 C 0.28723 0.58042 0.58395 0.0
C321 C 0.3119 0.55976 0.52818 0.0
C322 C 0.33064 0.57633 0.53469 0.0
H323 H 0.27005 0.58271 0.60162 0.0
H324 H 0.31402 0.54556 0.50192 0.0
H325 H 0.21233 0.55984 0.5389 0.0
H326 H 0.23918 0.61739 0.45598 0.0
H327 H 0.32409 0.48839 0.62665 0.0
H328 H 0.30244 0.61293 0.61493 0.0
H329 H 0.34708 0.57441 0.5139 0.0
C330 C 0.42254 0.26059 0.47921 0.0
C331 C 0.40457 0.24368 0.47204 0.0
N332 N 0.41143 0.22278 0.49283 0.0
N333 N 0.44048 0.25073 0.50564 0.0
C334 C 0.43353 0.22733 0.51208 0.0
H335 H 0.42217 0.27926 0.46727 0.0
Co336 Co 0.46741 0.26879 0.52703 0.0
C337 C 0.46124 0.23762 0.62135 0.0
O338 O 0.43922 0.22872 0.61677 0.0
N339 N 0.49443 0.287 0.5494 0.0
C340 C 0.51596 0.3082 0.60211 0.0
C341 C 0.49407 0.29758 0.59281 0.0
C342 C 0.51707 0.29182 0.53269 0.0
N343 N 0.53056 0.30453 0.56456 0.0
O344 O 0.48835 0.24635 0.49352 0.0
H345 H 0.47887 0.29713 0.61713 0.0
H346 H 0.52378 0.28573 0.49858 0.0
O347 O 0.47 0.25121 0.58859 0.0
C348 C 0.48968 0.2559 0.45199 0.0
O349 O 0.47995 0.27744 0.4455 0.0
N350 N 0.44618 0.29242 0.55164 0.0
C351 C 0.4109 0.32879 0.55714 0.0
C352 C 0.40859 0.30731 0.58394 0.0
C353 C 0.42651 0.28915 0.58049 0.0
C354 C 0.44914 0.31363 0.5274 0.0
C355 C 0.43201 0.33209 0.53019 0.0
H356 H 0.42366 0.27197 0.59805 0.0
H357 H 0.46432 0.31574 0.5034 0.0
H358 H 0.444 0.21411 0.53181 0.0
H359 H 0.38744 0.24666 0.45398 0.0
H360 H 0.52075 0.31804 0.63413 0.0
H361 H 0.39251 0.30401 0.60509 0.0
H362 H 0.4349 0.34851 0.50975 0.0
C363 C 0.74776 0.4222 0.47806 0.0
C364 C 0.76484 0.40435 0.47172 0.0
N365 N 0.78482 0.41008 0.49724 0.0
N366 N 0.75658 0.43925 0.50776 0.0
C367 C 0.77954 0.43184 0.51746 0.0
H368 H 0.72973 0.42251 0.46277 0.0
Co369 Co 0.73768 0.46581 0.52744 0.0
C370 C 0.76781 0.46076 0.62323 0.0
O371 O 0.77605 0.43844 0.62022 0.0
N372 N 0.71847 0.49252 0.54777 0.0
C373 C 0.69386 0.51322 0.59586 0.0
C374 C 0.70723 0.49248 0.59054 0.0
C375 C 0.71177 0.51399 0.52789 0.0
N376 N 0.69671 0.52674 0.55661 0.0
O377 O 0.75975 0.48707 0.49375 0.0
H378 H 0.70847 0.47803 0.61646 0.0
H379 H 0.71722 0.51993 0.49284 0.0
O380 O 0.75475 0.46957 0.58957 0.0
C381 C 0.75064 0.48753 0.45173 0.0
O382 O 0.72961 0.47683 0.44464 0.0
N383 N 0.71444 0.44418 0.55223 0.0
C384 C 0.67759 0.40991 0.56461 0.0
C385 C 0.69987 0.40746 0.58863 0.0
C386 C 0.71816 0.42495 0.58203 0.0
C387 C 0.69292 0.44657 0.52859 0.0
C388 C 0.67418 0.42997 0.53488 0.0
H389 H 0.73557 0.42224 0.59864 0.0
H390 H 0.69058 0.46109 0.50311 0.0
H391 H 0.79199 0.44205 0.53939 0.0
H392 H 0.76241 0.38823 0.45025 0.0
H393 H 0.68278 0.51804 0.62623 0.0
H394 H 0.70324 0.39199 0.61147 0.0
H395 H 0.65751 0.43224 0.51483 0.0
C396 C 0.58482 0.26092 0.08655 0.0
C397 C 0.60267 0.24397 0.09443 0.0
N398 N 0.59585 0.22294 0.07391 0.0
N399 N 0.56694 0.25094 0.06017 0.0
C400 C 0.57381 0.22748 0.05433 0.0
H401 H 0.58517 0.27964 0.09819 0.0
Co402 Co 0.54 0.26895 0.0389 0.0
C403 C 0.54522 0.23693 0.94528 0.0
O404 O 0.56707 0.22762 0.94969 0.0
N405 N 0.5129 0.28713 1.01672 0.0
C406 C 0.49109 0.30803 0.96403 0.0
C407 C 0.513 0.29737 0.97301 0.0
C408 C 0.49041 0.29217 0.0339 0.0
N409 N 0.47674 0.3047 1.00207 0.0
O410 O 0.51915 0.24688 0.07355 0.0
H411 H 0.528 0.29666 0.94827 0.0
H412 H 0.48391 0.28636 0.06834 0.0
O413 O 0.5369 0.25093 0.97786 0.0
C414 C 0.51797 0.25668 0.11487 0.0
O415 O 0.52771 0.27827 0.12075 0.0
N416 N 0.56118 0.29223 1.01282 0.0
C417 C 0.59518 0.32921 0.99901 0.0
C418 C 0.59788 0.30663 0.97615 0.0
C419 C 0.58049 0.28828 0.98337 0.0
C420 C 0.5584 0.31408 0.03501 0.0
C421 C 0.57489 0.33286 0.02802 0.0
H422 H 0.58333 0.27063 0.96772 0.0
H423 H 0.54373 0.31663 0.06005 0.0
H424 H 0.56326 0.21415 0.03505 0.0
H425 H 0.61963 0.247 0.11306 0.0
H426 H 0.48613 0.31764 0.93189 0.0
H427 H 0.6135 0.30307 0.95382 0.0
H428 H 0.57238 0.34977 0.04715 0.0
C429 C 0.74603 0.58203 0.0924 0.0
C430 C 0.76253 0.60035 0.09994 0.0
N431 N 0.7827 0.59568 0.07429 0.0
N432 N 0.75543 0.56576 0.0618 0.0
C433 C 0.77812 0.57409 0.05269 0.0
H434 H 0.72798 0.58092 0.10736 0.0
Co435 Co 0.73744 0.53903 0.03965 0.0
C436 C 0.76866 0.54537 0.94528 0.0
O437 O 0.77644 0.56788 0.94819 0.0
N438 N 0.71923 0.51209 1.01643 0.0
C439 C 0.69838 0.49085 0.96269 0.0
C440 C 0.70925 0.51257 0.97246 0.0
C441 C 0.7138 0.48953 0.03295 0.0
N442 N 0.70128 0.47622 1.00048 0.0
O443 O 0.75954 0.51792 0.07367 0.0
H444 H 0.71022 0.52776 0.94816 0.0
H445 H 0.71929 0.48276 0.06742 0.0
O446 O 0.75546 0.53652 0.97858 0.0
C447 C 0.74956 0.51616 0.11472 0.0
O448 O 0.72779 0.5255 0.12046 0.0
N449 N 0.71413 0.56044 1.01447 0.0
C450 C 0.67702 0.59445 1.00202 0.0
C451 C 0.69962 0.59757 0.97957 0.0
C452 C 0.71804 0.58022 0.98621 0.0
C453 C 0.69228 0.55729 0.03638 0.0
C454 C 0.67343 0.57378 0.03007 0.0
H455 H 0.73568 0.58347 0.97106 0.0
H456 H 0.68976 0.54229 0.06068 0.0
H457 H 0.79089 0.5647 0.03018 0.0
H458 H 0.75957 0.61606 0.12228 0.0
H459 H 0.68887 0.48622 0.9302 0.0
H460 H 0.70315 0.61347 0.95803 0.0
H461 H 0.65653 0.57095 0.04897 0.0
C462 C 0.42413 0.74711 0.09359 0.0
C463 C 0.40721 0.76502 0.10142 0.0
N464 N 0.41378 0.78488 0.07659 0.0
N465 N 0.44123 0.75539 0.06343 0.0
C466 C 0.43476 0.77869 0.05462 0.0
H467 H 0.4237 0.72892 0.10808 0.0
Co468 Co 0.46736 0.73639 0.04236 0.0
C469 C 0.46106 0.76641 0.94682 0.0
O470 O 0.43881 0.77476 0.95059 0.0
N471 N 0.49375 0.71729 0.02009 0.0
C472 C 0.51455 0.69541 0.96745 0.0
C473 C 0.49285 0.70634 0.97705 0.0
C474 C 0.5165 0.71239 0.03624 0.0
N475 N 0.52954 0.69927 1.00442 0.0
O476 O 0.48906 0.75853 0.07491 0.0
H477 H 0.47747 0.70683 0.95311 0.0
H478 H 0.52366 0.71883 0.06979 0.0
O479 O 0.47009 0.75339 0.98024 0.0
C480 C 0.49039 0.7491 0.11656 0.0
O481 O 0.4805 0.72766 0.12331 0.0
N482 N 0.44532 0.71312 0.01914 0.0
C483 C 0.40963 0.67707 1.01456 0.0
C484 C 0.40744 0.69846 0.98746 0.0
C485 C 0.42554 0.71647 0.99052 0.0
C486 C 0.44802 0.69207 0.04406 0.0
C487 C 0.4307 0.67378 0.04174 0.0
H488 H 0.42281 0.73353 0.97256 0.0
H489 H 0.46326 0.68991 0.06797 0.0
H490 H 0.44526 0.79098 0.03283 0.0
H491 H 0.39078 0.7632 0.12223 0.0
H492 H 0.51899 0.68532 0.93555 0.0
H493 H 0.39137 0.70179 0.9662 0.0
H494 H 0.43349 0.65743 0.06247 0.0
C495 C 0.25899 0.4214 0.09141 0.0
C496 C 0.24192 0.40355 0.09791 0.0
N497 N 0.22188 0.40926 0.07253 0.0
N498 N 0.25011 0.4384 0.06174 0.0
C499 C 0.22715 0.43098 0.0522 0.0
H500 H 0.27706 0.42174 0.10659 0.0
Co501 Co 0.26879 0.46506 0.04188 0.0
C502 C 0.23866 0.45964 0.94627 0.0
O503 O 0.23063 0.43723 0.94918 0.0
N504 N 0.28774 0.49189 0.02128 0.0
C505 C 0.31192 0.51279 0.97273 0.0
C506 C 0.29868 0.49198 0.97821 0.0
C507 C 0.29448 0.51334 0.04119 0.0
N508 N 0.30929 0.52622 1.01219 0.0
O509 O 0.24658 0.48618 0.07544 0.0
H510 H 0.29732 0.47756 0.9522 0.0
H511 H 0.28927 0.51918 0.07645 0.0
O512 O 0.25164 0.46853 0.97996 0.0
C513 C 0.25572 0.48683 0.11741 0.0
O514 O 0.27685 0.47635 0.12452 0.0
N515 N 0.29218 0.44359 1.01708 0.0
C516 C 0.32929 0.40962 1.00449 0.0
C517 C 0.30695 0.40691 0.98078 0.0
C518 C 0.28853 0.42425 0.98748 0.0
C519 C 0.31376 0.44625 0.04041 0.0
C520 C 0.33262 0.4298 0.03401 0.0
H521 H 0.27109 0.42133 0.97114 0.0
H522 H 0.31606 0.46086 0.06574 0.0
H523 H 0.21467 0.44116 0.03028 0.0
H524 H 0.24438 0.38746 0.11943 0.0
H525 H 0.32278 0.51771 0.94213 0.0
H526 H 0.30363 0.39135 0.95812 0.0
H527 H 0.34934 0.43226 0.05383 0.0
C528 C 0.10695 0.31964 0.05213 0.0
C529 C 0.1086 0.30698 1.00893 0.0
C530 C 0.12302 0.3388 0.06288 0.0
C531 C 0.14105 0.34561 0.02948 0.0
C532 C 0.1417 0.33392 0.9846 0.0
C533 C 0.12557 0.31474 0.97499 0.0
C534 C 0.12169 0.35067 0.11119 0.0
C535 C 0.16037 0.34073 0.94764 0.0
C536 C 0.17915 0.40322 0.04535 0.0
C537 C 0.20085 0.39384 0.0644 0.0
C538 C 0.1593 0.38792 0.03465 0.0
C539 C 0.16106 0.36263 0.04334 0.0
C540 C 0.18262 0.35315 0.06354 0.0
C541 C 0.20215 0.36874 0.07352 0.0
C542 C 0.13663 0.39875 1.01313 0.0
C543 C 0.18537 0.32632 0.0735 0.0
H544 H 0.09402 0.31369 0.07865 0.0
H545 H 0.12667 0.30529 0.94126 0.0
H546 H 0.13756 0.34495 0.13283 0.0
H547 H 0.12247 0.37073 0.10782 0.0
H548 H 0.10485 0.34564 0.13058 0.0
H549 H 0.15671 0.33195 0.91277 0.0
H550 H 0.16081 0.3607 0.94257 0.0
H551 H 0.17867 0.33506 0.95995 0.0
H552 H 0.17764 0.42249 0.03849 0.0
H553 H 0.21873 0.36093 0.08731 0.0
H554 H 0.12049 0.39362 0.03446 0.0
H555 H 0.13387 0.39135 0.97682 0.0
H556 H 0.13756 0.41888 1.01087 0.0
H557 H 0.17021 0.31986 0.09618 0.0
H558 H 0.2028 0.32198 0.09157 0.0
H559 H 0.18454 0.31598 0.03966 0.0
C560 C 0.68935 0.11072 0.06195 0.0
C561 C 0.69207 0.10468 1.01376 0.0
C562 C 0.67153 0.12757 0.07664 0.0
C563 C 0.65632 0.13884 0.04229 0.0
C564 C 0.65803 0.13158 0.99415 0.0
C565 C 0.67559 0.11446 0.98071 0.0
C566 C 0.66986 0.13429 0.12853 0.0
C567 C 0.64245 0.14312 0.95608 0.0
C568 C 0.6009 0.17816 0.07074 0.0
C569 C 0.61084 0.20158 0.06839 0.0
C570 C 0.61565 0.15741 0.06485 0.0
C571 C 0.64078 0.1602 0.055 0.0
C572 C 0.65083 0.18387 0.05294 0.0
C573 C 0.63583 0.20416 0.06009 0.0
C574 C 0.60431 0.13253 0.06849 0.0
C575 C 0.67732 0.18787 0.04134 0.0
H576 H 0.70187 0.10321 0.0878 0.0
H577 H 0.67698 0.10935 0.94363 0.0
H578 H 0.67774 0.15262 0.13404 0.0
H579 H 0.6506 0.13501 0.14006 0.0
H580 H 0.67982 0.12122 0.15148 0.0
H581 H 0.6448 0.13426 0.92088 0.0
H582 H 0.62299 0.14224 0.966 0.0
H583 H 0.64732 0.16261 0.95255 0.0
H584 H 0.58164 0.17613 0.07759 0.0
H585 H 0.64354 0.22221 0.05761 0.0
H586 H 0.61509 0.12091 0.09288 0.0
H587 H 0.60439 0.12362 0.03311 0.0
H588 H 0.58528 0.13334 0.08148 0.0
H589 H 0.68898 0.1778 0.06677 0.0
H590 H 0.68247 0.20738 0.04246 0.0
H591 H 0.68129 0.18074 1.00525 0.0
C592 C 0.82532 0.60343 0.04831 0.0
C593 C 0.80321 0.6119 0.06706 0.0
C594 C 0.8447 0.61949 0.03869 0.0
C595 C 0.84203 0.64464 0.04812 0.0
C596 C 0.82001 0.65321 0.06791 0.0
C597 C 0.80097 0.63686 0.07687 0.0
C598 C 0.86787 0.6096 1.01759 0.0
C599 C 0.81626 0.67985 0.07857 0.0
C600 C 0.89489 0.68912 0.0598 0.0
C601 C 0.89334 0.70191 1.01672 0.0
C602 C 0.87918 0.66954 0.06963 0.0
C603 C 0.86158 0.66244 0.03547 0.0
C604 C 0.86097 0.67435 0.99083 0.0
C605 C 0.87677 0.69392 0.98211 0.0
C606 C 0.88047 0.65744 0.11769 0.0
C607 C 0.84275 0.66729 0.95311 0.0
H608 H 0.82753 0.58427 0.04092 0.0
H609 H 0.78404 0.64397 0.09042 0.0
H610 H 0.87069 0.61744 0.98169 0.0
H611 H 0.88366 0.61503 0.03973 0.0
H612 H 0.86761 0.58948 1.01451 0.0
H613 H 0.79855 0.68346 0.0961 0.0
H614 H 0.83101 0.68664 0.10201 0.0
H615 H 0.81702 0.69047 0.04508 0.0
H616 H 0.9075 0.69523 0.08688 0.0
H617 H 0.87573 0.70342 0.94845 0.0
H618 H 0.88043 0.63739 0.11377 0.0
H619 H 0.8642 0.66244 0.13879 0.0
H620 H 0.89693 0.66292 0.13794 0.0
H621 H 0.843 0.64736 0.9473 0.0
H622 H 0.84629 0.6765 0.91867 0.0
H623 H 0.8242 0.67222 0.96512 0.0
C624 C 0.30218 0.86612 0.01892 0.0
C625 C 0.30362 0.89133 0.02641 0.0
C626 C 0.32225 0.85087 0.02644 0.0
C627 C 0.34451 0.86086 0.04236 0.0
C628 C 0.34634 0.88629 0.04945 0.0
C629 C 0.32592 0.90121 0.04134 0.0
C630 C 0.3194 0.82387 0.01838 0.0
C631 C 0.36975 0.89766 0.06639 0.0
C632 C 0.38385 0.81457 0.10661 0.0
C633 C 0.39933 0.80657 0.07022 0.0
C634 C 0.36695 0.83329 0.09886 0.0
C635 C 0.36531 0.84429 0.05344 0.0
C636 C 0.38183 0.83727 1.01733 0.0
C637 C 0.39869 0.81856 0.0262 0.0
C638 C 0.34993 0.84034 0.1386 0.0
C639 C 0.38071 0.84843 0.96838 0.0
H640 H 0.28512 0.858 1.00834 0.0
H641 H 0.32747 0.92061 0.04683 0.0
H642 H 0.33349 0.81727 0.99336 0.0
H643 H 0.32198 0.81403 0.05244 0.0
H644 H 0.30124 0.81909 1.00381 0.0
H645 H 0.36861 0.91779 0.0681 0.0
H646 H 0.37434 0.89068 0.1023 0.0
H647 H 0.38488 0.89254 0.04238 0.0
H648 H 0.38452 0.80567 0.14093 0.0
H649 H 0.41045 0.81242 0.99779 0.0
H650 H 0.33123 0.83428 0.12978 0.0
H651 H 0.34943 0.86037 0.1428 0.0
H652 H 0.35527 0.83208 0.1731 0.0
H653 H 0.36397 0.84221 0.95 0.0
H654 H 0.39663 0.84332 0.94628 0.0
H655 H 0.3798 0.86852 0.97083 0.0
C656 C 0.13874 0.70257 0.57017 0.0
C657 C 0.11341 0.70218 0.56363 0.0
C658 C 0.15327 0.68237 0.55945 0.0
C659 C 0.14243 0.66101 0.54114 0.0
C660 C 0.11689 0.66024 0.5347 0.0
C661 C 0.10268 0.6808 0.54602 0.0
C662 C 0.18042 0.68413 0.56683 0.0
C663 C 0.10463 0.63782 0.51522 0.0
C664 C 0.18777 0.623 0.47169 0.0
C665 C 0.19589 0.60653 0.50631 0.0
C666 C 0.16911 0.63969 0.48146 0.0
C667 C 0.1583 0.64011 0.52714 0.0
C668 C 0.1653 0.62246 0.56122 0.0
C669 C 0.18394 0.60583 0.55035 0.0
C670 C 0.16211 0.65794 0.4438 0.0
C671 C 0.15432 0.6222 0.61035 0.0
H672 H 0.14753 0.71896 0.5826 0.0
H673 H 0.0832 0.68008 0.54105 0.0
H674 H 0.18678 0.66912 0.59002 0.0
H675 H 0.18988 0.68226 0.53221 0.0
H676 H 0.18593 0.70166 0.58323 0.0
H677 H 0.08454 0.63968 0.51414 0.0
H678 H 0.11125 0.63415 0.47867 0.0
H679 H 0.10937 0.62179 0.53724 0.0
H680 H 0.19662 0.62336 0.43732 0.0
H681 H 0.19015 0.59328 0.57739 0.0
H682 H 0.16884 0.67619 0.45419 0.0
H683 H 0.14206 0.65915 0.44052 0.0
H684 H 0.16983 0.65329 0.40847 0.0
H685 H 0.1611 0.63808 0.63077 0.0
H686 H 0.15906 0.60542 0.63024 0.0
H687 H 0.13426 0.62376 0.60834 0.0
C688 C 0.37204 0.2047 0.51372 0.0
C689 C 0.39626 0.20171 0.4996 0.0
C690 C 0.35682 0.18463 0.52135 0.0
C691 C 0.36578 0.16084 0.51346 0.0
C692 C 0.39011 0.15772 0.4979 0.0
C693 C 0.40521 0.17821 0.49193 0.0
C694 C 0.33132 0.18891 0.53933 0.0
C695 C 0.40018 0.13276 0.48778 0.0
C696 C 0.33358 0.11228 0.5855 0.0
C697 C 0.31511 0.10457 0.55435 0.0
C698 C 0.35075 0.12978 0.57197 0.0
C699 C 0.35012 0.13945 0.5254 0.0
C700 C 0.3328 0.13039 0.49243 0.0
C701 C 0.31535 0.11321 0.50738 0.0
C702 C 0.3686 0.13902 0.60865 0.0
C703 C 0.33195 0.13967 0.442 0.0
H704 H 0.36522 0.22287 0.52008 0.0
H705 H 0.42387 0.17596 0.48056 0.0
H706 H 0.31792 0.18065 0.51468 0.0
H707 H 0.32899 0.18002 0.57445 0.0
H708 H 0.32706 0.20853 0.54317 0.0
H709 H 0.4186 0.13354 0.47176 0.0
H710 H 0.40123 0.12213 0.52121 0.0
H711 H 0.38789 0.12279 0.46328 0.0
H712 H 0.33422 0.10517 0.62134 0.0
H713 H 0.30135 0.10736 0.48284 0.0
H714 H 0.36476 0.15841 0.61644 0.0
H715 H 0.38742 0.13797 0.59483 0.0
H716 H 0.36766 0.12865 0.64247 0.0
H717 H 0.32464 0.15844 0.4417 0.0
H718 H 0.32025 0.12818 0.41891 0.0
H719 H 0.3505 0.14033 0.42664 0.0
C720 C 0.82752 0.404 0.52462 0.0
C721 C 0.80579 0.39462 0.50567 0.0
C722 C 0.84732 0.38867 0.5355 0.0
C723 C 0.84546 0.36335 0.52712 0.0
C724 C 0.82385 0.35387 0.50711 0.0
C725 C 0.80438 0.36949 0.49693 0.0
C726 C 0.87004 0.3995 0.55683 0.0
C727 C 0.82099 0.327 0.4975 0.0
C728 C 0.89941 0.32018 0.51827 0.0
C729 C 0.89783 0.30765 0.5616 0.0
C730 C 0.88338 0.33936 0.5075 0.0
C731 C 0.86545 0.34632 0.54099 0.0
C732 C 0.86486 0.33476 0.58598 0.0
C733 C 0.88096 0.31556 0.59562 0.0
C734 C 0.88464 0.35109 0.45908 0.0
C735 C 0.8463 0.34172 0.62303 0.0
H736 H 0.8291 0.4233 0.53122 0.0
H737 H 0.78776 0.36168 0.48327 0.0
H738 H 0.87286 0.39216 0.59315 0.0
H739 H 0.88613 0.39433 0.53539 0.0
H740 H 0.86914 0.41963 0.55903 0.0
H741 H 0.8035 0.32265 0.47964 0.0
H742 H 0.83607 0.32042 0.47476 0.0
H743 H 0.82187 0.31679 0.53146 0.0
H744 H 0.91226 0.31413 0.49167 0.0
H745 H 0.87991 0.30623 0.62945 0.0
H746 H 0.88395 0.37116 0.46228 0.0
H747 H 0.86869 0.34538 0.43763 0.0
H748 H 0.90141 0.34594 0.43956 0.0
H749 H 0.84591 0.36171 0.6279 0.0
H750 H 0.85001 0.33304 0.65795 0.0
H751 H 0.82795 0.33605 0.61093 0.0
C752 C 0.62142 0.81485 0.46337 0.0
C753 C 0.60575 0.80701 0.49957 0.0
C754 C 0.63817 0.83372 0.47107 0.0
C755 C 0.63944 0.84507 0.51623 0.0
C756 C 0.6227 0.83823 0.55207 0.0
C757 C 0.60602 0.81934 0.54328 0.0
C758 C 0.65546 0.84054 0.43163 0.0
C759 C 0.62338 0.8498 0.60071 0.0
C760 C 0.7021 0.86759 0.55239 0.0
C761 C 0.70056 0.89273 0.54419 0.0
C762 C 0.68222 0.85214 0.54444 0.0
C763 C 0.66005 0.86186 0.52743 0.0
C764 C 0.65815 0.88722 0.5195 0.0
C765 C 0.6784 0.90234 0.52796 0.0
C766 C 0.68517 0.82522 0.55331 0.0
C767 C 0.63483 0.89831 0.50144 0.0
H768 H 0.62103 0.80571 0.42926 0.0
H769 H 0.5941 0.81335 0.57155 0.0
H770 H 0.65588 0.86053 0.42685 0.0
H771 H 0.67412 0.83468 0.44119 0.0
H772 H 0.65044 0.83195 0.39723 0.0
H773 H 0.60733 0.84476 0.62251 0.0
H774 H 0.64002 0.84386 0.61974 0.0
H775 H 0.62417 0.86987 0.59768 0.0
H776 H 0.71911 0.85971 0.56395 0.0
H777 H 0.67683 0.92169 0.52189 0.0
H778 H 0.68283 0.8151 0.51948 0.0
H779 H 0.67096 0.81874 0.5782 0.0
H780 H 0.70326 0.82066 0.56842 0.0
H781 H 0.63051 0.89091 0.46571 0.0
H782 H 0.63591 0.91842 0.49896 0.0
H783 H 0.61955 0.8934 0.52525 0.0
C784 C 0.19765 0.06859 0.06161 0.0
C785 C 0.18489 0.04717 0.07115 0.0
C786 C 0.18544 0.09106 0.05909 0.0
C787 C 0.15988 0.09185 0.06545 0.0
C788 C 0.14693 0.06998 0.07323 0.0
C789 C 0.15965 0.04799 0.07656 0.0
C790 C 0.19994 0.11398 0.05144 0.0
C791 C 0.11965 0.06983 0.07902 0.0
C792 C 0.12505 0.1479 0.10608 0.0
C793 C 0.11448 0.15572 0.06334 0.0
C794 C 0.14103 0.12793 0.10697 0.0
C795 C 0.1464 0.11537 0.06419 0.0
C796 C 0.13678 0.12396 0.02071 0.0
C797 C 0.12118 0.14412 0.02077 0.0
C798 C 0.15127 0.11957 0.15399 0.0
C799 C 0.14187 0.1111 0.97432 0.0
H800 H 0.21725 0.06785 0.05832 0.0
H801 H 0.14995 0.0313 0.08419 0.0
H802 H 0.19255 0.12434 0.02086 0.0
H803 H 0.1984 0.1258 0.08327 0.0
H804 H 0.21947 0.11017 0.04487 0.0
H805 H 0.11225 0.05115 0.08269 0.0
H806 H 0.11451 0.08044 0.11101 0.0
H807 H 0.1109 0.07863 0.04791 0.0
H808 H 0.12007 0.15674 0.13911 0.0
H809 H 0.11374 0.15046 0.98731 0.0
H810 H 0.17115 0.11658 0.15109 0.0
H811 H 0.1429 0.10196 0.164 0.0
H812 H 0.14779 0.13286 0.18294 0.0
H813 H 0.16169 0.10844 0.96954 0.0
H814 H 0.13468 0.12123 0.94318 0.0
H815 H 0.13336 0.09283 0.97488 0.0
C816 C 0.93391 0.19663 0.07557 0.0
C817 C 0.95272 0.19023 0.04454 0.0
C818 C 0.91126 0.18496 0.07344 0.0
C819 C 0.90764 0.16589 0.04038 0.0
C820 C 0.9264 0.15994 1.0078 0.0
C821 C 0.94869 0.17242 1.00997 0.0
C822 C 0.89159 0.19235 0.10789 0.0
C823 C 0.92345 0.13949 0.97251 0.0
C824 C 0.86252 0.11593 0.07136 0.0
C825 C 0.84334 0.12102 0.04019 0.0
C826 C 0.88342 0.13062 0.07227 0.0
C827 C 0.88492 0.15113 0.0419 0.0
C828 C 0.86502 0.157 1.01211 0.0
C829 C 0.84458 0.14172 1.01123 0.0
C830 C 0.90432 0.12357 0.10424 0.0
C831 C 0.86561 0.17903 0.98018 0.0
H832 H 0.93728 0.21034 0.10246 0.0
H833 H 0.96349 0.16729 0.98667 0.0
H834 H 0.87417 0.1952 0.08881 0.0
H835 H 0.88865 0.17763 0.13416 0.0
H836 H 0.8963 0.20925 0.12745 0.0
H837 H 0.93924 0.13794 0.94816 0.0
H838 H 0.92133 0.12205 0.99187 0.0
H839 H 0.90678 0.14219 0.95096 0.0
H840 H 0.8617 0.09976 0.09329 0.0
H841 H 0.8297 0.14568 0.98716 0.0
H842 H 0.9091 0.13888 0.12813 0.0
H843 H 0.92059 0.11951 0.08237 0.0
H844 H 0.90009 0.1074 0.12637 0.0
H845 H 0.87043 0.19546 1.00104 0.0
H846 H 0.84791 0.1822 0.96219 0.0
H847 H 0.87979 0.17666 0.95259 0.0
C848 C 0.8933 0.87669 0.09993 0.0
C849 C 0.88568 0.85302 0.08912 0.0
C850 C 0.87786 0.89666 0.0929 0.0
C851 C 0.85426 0.89293 0.07405 0.0
C852 C 0.84576 0.86887 0.06699 0.0
C853 C 0.86159 0.84915 0.07472 0.0
C854 C 0.88764 0.9219 0.10165 0.0
C855 C 0.82072 0.86404 0.04731 0.0
C856 C 0.81454 0.94967 0.06519 0.0
C857 C 0.82073 0.95814 0.01975 0.0
C858 C 0.82439 0.92784 0.08297 0.0
C859 C 0.84055 0.91411 0.05434 0.0
C860 C 0.84559 0.92196 1.00737 0.0
C861 C 0.83574 0.94388 0.99087 0.0
C862 C 0.81857 0.92025 0.13322 0.0
C863 C 0.86242 0.90783 0.97522 0.0
H864 H 0.9119 0.87969 0.11123 0.0
H865 H 0.85571 0.83088 0.066 0.0
H866 H 0.8913 0.93086 0.06705 0.0
H867 H 0.87411 0.93313 0.12086 0.0
H868 H 0.90479 0.92161 0.12253 0.0
H869 H 0.81524 0.84477 0.05214 0.0
H870 H 0.80705 0.87591 0.06459 0.0
H871 H 0.82053 0.86819 1.0087 0.0
H872 H 0.80306 0.96077 0.08769 0.0
H873 H 0.84029 0.95029 0.95556 0.0
H874 H 0.83466 0.92344 0.15619 0.0
H875 H 0.81432 0.90057 0.13479 0.0
H876 H 0.80302 0.93064 0.14808 0.0
H877 H 0.88113 0.90823 0.98996 0.0
H878 H 0.8629 0.91533 0.93857 0.0
H879 H 0.8567 0.88853 0.97331 0.0
C880 C 0.15757 0.86745 0.07601 0.0
C881 C 0.15339 0.89193 0.08722 0.0
C882 C 0.1381 0.85105 0.07108 0.0
C883 C 0.11399 0.85933 0.07807 0.0
C884 C 0.10981 0.88391 0.09053 0.0
C885 C 0.12953 0.8999 0.09472 0.0
C886 C 0.14326 0.82504 0.05748 0.0
C887 C 0.08445 0.89343 0.09914 0.0
C888 C 0.05698 0.82856 0.03075 0.0
C889 C 0.04762 0.81841 0.07251 0.0
C890 C 0.07958 0.84058 0.03105 0.0
C891 C 0.09295 0.84238 0.07411 0.0
C892 C 0.08439 0.83041 0.11527 0.0
C893 C 0.0619 0.81854 0.11387 0.0
C894 C 0.08827 0.85282 0.98621 0.0
C895 C 0.09802 0.8317 0.16186 0.0
H896 H 0.17599 0.86135 0.06946 0.0
H897 H 0.12629 0.91881 0.10348 0.0
H898 H 0.13551 0.81251 0.08436 0.0
H899 H 0.13436 0.82081 0.02303 0.0
H900 H 0.16303 0.82136 0.05419 0.0
H901 H 0.08434 0.91301 0.10874 0.0
H902 H 0.07318 0.89088 0.06679 0.0
H903 H 0.07572 0.88305 0.12829 0.0
H904 H 0.04597 0.82845 0.99878 0.0
H905 H 0.05488 0.81023 0.14596 0.0
H906 H 0.10784 0.84909 0.98032 0.0
H907 H 0.08613 0.87277 0.98983 0.0
H908 H 0.07787 0.84675 0.95446 0.0
H909 H 0.11751 0.82742 0.15658 0.0
H910 H 0.09047 0.81903 0.18881 0.0
H911 H 0.09692 0.85045 0.17622 0.0
C912 C 0.1888 0.9521 0.51687 0.0
C913 C 0.17567 0.96727 0.54773 0.0
C914 C 0.18007 0.92884 0.50456 0.0
C915 C 0.15769 0.92059 0.52351 0.0
C916 C 0.14452 0.93579 0.5549 0.0
C917 C 0.1537 0.95878 0.5667 0.0
C918 C 0.19469 0.91317 0.47116 0.0
C919 C 0.12061 0.9278 0.57611 0.0
C920 C 0.11753 0.87126 0.47076 0.0
C921 C 0.1207 0.85263 0.50402 0.0
C922 C 0.13094 0.89298 0.47428 0.0
C923 C 0.14791 0.89597 0.51189 0.0
C924 C 0.15253 0.87629 0.54305 0.0
C925 C 0.13871 0.85494 0.53897 0.0
C926 C 0.12539 0.91345 0.44033 0.0
C927 C 0.17058 0.87849 0.58329 0.0
H928 H 0.20563 0.9586 0.50156 0.0
H929 H 0.14362 0.97015 0.59114 0.0
H930 H 0.19953 0.89583 0.48891 0.0
H931 H 0.18365 0.90852 0.43939 0.0
H932 H 0.21165 0.92225 0.45927 0.0
H933 H 0.11237 0.94199 0.5991 0.0
H934 H 0.10754 0.92326 0.54737 0.0
H935 H 0.1233 0.91116 0.5977 0.0
H936 H 0.10336 0.86956 0.44413 0.0
H937 H 0.141 0.84054 0.56489 0.0
H938 H 0.14238 0.92217 0.42779 0.0
H939 H 0.1146 0.92754 0.45904 0.0
H940 H 0.11484 0.90712 0.40897 0.0
H941 H 0.18771 0.88691 0.57071 0.0
H942 H 0.17483 0.86058 0.59944 0.0
H943 H 0.16298 0.89045 0.61135 0.0
C944 C 0.06023 0.17766 0.55818 0.0
C945 C 0.054 0.19251 0.51973 0.0
C946 C 0.08303 0.16611 0.55997 0.0
C947 C 0.10007 0.17004 0.52292 0.0
C948 C 0.09432 0.18635 0.48568 0.0
C949 C 0.07122 0.1971 0.48423 0.0
C950 C 0.08829 0.1486 0.59994 0.0
C951 C 0.11212 0.1916 0.44622 0.0
C952 C 0.16504 0.14918 0.54561 0.0
C953 C 0.16548 0.12676 0.52189 0.0
C954 C 0.14416 0.16389 0.54497 0.0
C955 C 0.12304 0.15567 0.52109 0.0
C956 C 0.12363 0.13329 0.49611 0.0
C957 C 0.14494 0.11924 0.4964 0.0
C958 C 0.14452 0.18792 0.57084 0.0
C959 C 0.10143 0.12369 0.47068 0.0
H960 H 0.04671 0.17394 0.58519 0.0
H961 H 0.06626 0.20866 0.45457 0.0
H962 H 0.0899 0.12992 0.58541 0.0
H963 H 0.10586 0.15311 0.61714 0.0
H964 H 0.07382 0.14871 0.62744 0.0
H965 H 0.10601 0.20684 0.42323 0.0
H966 H 0.13023 0.19614 0.46116 0.0
H967 H 0.11435 0.1752 0.42371 0.0
H968 H 0.18093 0.15497 0.56543 0.0
H969 H 0.14513 0.10173 0.47873 0.0
H970 H 0.13185 0.18727 0.60145 0.0
H971 H 0.13818 0.20266 0.54694 0.0
H972 H 0.16292 0.1926 0.58426 0.0
H973 H 0.08642 0.12114 0.4965 0.0
H974 H 0.10495 0.10608 0.45261 0.0
H975 H 0.09512 0.13699 0.44377 0.0
C976 C 0.84569 0.04899 0.49344 0.0
C977 C 0.82051 0.04791 0.49986 0.0
C978 C 0.85827 0.07106 0.49675 0.0
C979 C 0.84524 0.09278 0.50562 0.0
C980 C 0.81977 0.09174 0.51302 0.0
C981 C 0.80769 0.06918 0.5105 0.0
C982 C 0.88548 0.07116 0.48988 0.0
C983 C 0.80519 0.1145 0.52186 0.0
C984 C 0.88433 0.14482 0.55018 0.0
C985 C 0.89067 0.15664 0.50765 0.0
C986 C 0.86868 0.1247 0.55034 0.0
C987 C 0.85861 0.11638 0.50703 0.0
C988 C 0.86356 0.1292 0.46438 0.0
C989 C 0.87962 0.14912 0.46514 0.0
C990 C 0.86406 0.11155 0.59658 0.0
C991 C 0.85282 0.12115 0.41755 0.0
H992 H 0.85546 0.03243 0.48517 0.0
H993 H 0.78815 0.06826 0.51469 0.0
H994 H 0.89022 0.08205 0.45803 0.0
H995 H 0.89449 0.07978 0.52091 0.0
H996 H 0.89298 0.05256 0.48532 0.0
H997 H 0.78577 0.1105 0.52913 0.0
H998 H 0.81283 0.12473 0.5524 0.0
H999 H 0.80631 0.12653 0.49029 0.0
H1000 H 0.89213 0.15094 0.5835 0.0
H1001 H 0.8843 0.15812 0.43214 0.0
H1002 H 0.87269 0.09334 0.5953 0.0
H1003 H 0.84431 0.10872 0.60196 0.0
H1004 H 0.87146 0.12156 0.62772 0.0
H1005 H 0.86117 0.10368 0.40661 0.0
H1006 H 0.8559 0.13469 0.3889 0.0
H1007 H 0.83299 0.11802 0.42123 0.0
C1008 C 0.95953 0.85318 0.52482 0.0
C1009 C 0.96223 0.82812 0.53115 0.0
C1010 C 0.9365 0.86392 0.52281 0.0
C1011 C 0.91553 0.84914 0.52648 0.0
C1012 C 0.91814 0.82384 0.53469 0.0
C1013 C 0.94158 0.81361 0.5372 0.0
C1014 C 0.93466 0.89102 0.51505 0.0
C1015 C 0.89625 0.80748 0.53852 0.0
C1016 C 0.8588 0.8854 0.55369 0.0
C1017 C 0.84997 0.89052 0.50787 0.0
C1018 C 0.87924 0.87063 0.56057 0.0
C1019 C 0.89111 0.86048 0.52068 0.0
C1020 C 0.88122 0.86406 0.47458 0.0
C1021 C 0.86073 0.87908 0.46869 0.0
C1022 C 0.88908 0.86728 0.61029 0.0
C1023 C 0.89317 0.85328 0.43117 0.0
H1024 H 0.97562 0.86425 0.51997 0.0
H1025 H 0.94378 0.79416 0.54122 0.0
H1026 H 0.92575 0.89471 0.48039 0.0
H1027 H 0.92325 0.89938 0.54313 0.0
H1028 H 0.95272 0.90003 0.51527 0.0
H1029 H 0.90127 0.78873 0.54935 0.0
H1030 H 0.88308 0.81489 0.56458 0.0
H1031 H 0.88688 0.80662 0.50361 0.0
H1032 H 0.85015 0.89368 0.58429 0.0
H1033 H 0.85395 0.88286 0.43326 0.0
H1034 H 0.90627 0.87764 0.61415 0.0
H1035 H 0.89332 0.84789 0.61709 0.0
H1036 H 0.87613 0.87371 0.63783 0.0
H1037 H 0.91065 0.86273 0.42445 0.0
H1038 H 0.8816 0.85502 0.39895 0.0
H1039 H 0.89733 0.8338 0.43704 0.0
C1040 C 0.69774 0.57061 0.53876 0.0
C1041 C 0.68454 0.5494 0.54802 0.0
C1042 C 0.68614 0.59344 0.53841 0.0
C1043 C 0.66076 0.59486 0.54678 0.0
C1044 C 0.64732 0.57325 0.55418 0.0
C1045 C 0.65943 0.55087 0.55516 0.0
C1046 C 0.70113 0.61606 0.53095 0.0
C1047 C 0.62019 0.57377 0.56213 0.0
C1048 C 0.62745 0.65047 0.59379 0.0
C1049 C 0.61573 0.65876 0.5526 0.0
C1050 C 0.64355 0.6306 0.59197 0.0
C1051 C 0.64789 0.61871 0.548 0.0
C1052 C 0.63731 0.62803 0.50595 0.0
C1053 C 0.62155 0.648 0.50873 0.0
C1054 C 0.65479 0.62145 0.63752 0.0
C1055 C 0.64134 0.61597 0.45836 0.0
H1056 H 0.71724 0.56938 0.53408 0.0
H1057 H 0.64936 0.53437 0.56244 0.0
H1058 H 0.69325 0.62727 0.50203 0.0
H1059 H 0.70085 0.62724 0.56379 0.0
H1060 H 0.72031 0.6118 0.52201 0.0
H1061 H 0.61233 0.55526 0.56542 0.0
H1062 H 0.61601 0.58406 0.59505 0.0
H1063 H 0.61106 0.58324 0.53221 0.0
H1064 H 0.62315 0.65872 0.62775 0.0
H1065 H 0.61312 0.65473 0.47648 0.0
H1066 H 0.6745 0.61806 0.63256 0.0
H1067 H 0.64627 0.60392 0.64754 0.0
H1068 H 0.65234 0.63445 0.66735 0.0
H1069 H 0.66098 0.61276 0.45222 0.0
H1070 H 0.63403 0.62695 0.42846 0.0
H1071 H 0.63221 0.59799 0.45803 0.0
C1072 C 0.34243 0.63896 0.56242 0.0
C1073 C 0.34721 0.61424 0.56997 0.0
C1074 C 0.36151 0.65598 0.55998 0.0
C1075 C 0.38583 0.64804 0.56571 0.0
C1076 C 0.3906 0.62318 0.57473 0.0
C1077 C 0.37127 0.60662 0.57656 0.0
C1078 C 0.35571 0.68228 0.55011 0.0
C1079 C 0.41619 0.61396 0.5819 0.0
C1080 C 0.44167 0.68167 0.52074 0.0
C1081 C 0.4512 0.69081 0.56334 0.0
C1082 C 0.41943 0.66901 0.52026 0.0
C1083 C 0.40652 0.66552 0.56339 0.0
C1084 C 0.41523 0.67636 0.6057 0.0
C1085 C 0.43739 0.6889 0.60509 0.0
C1086 C 0.41059 0.65798 0.47426 0.0
C1087 C 0.40209 0.67326 0.65242 0.0
H1088 H 0.32386 0.64484 0.55665 0.0
H1089 H 0.37498 0.58752 0.58257 0.0
H1090 H 0.36359 0.69403 0.57825 0.0
H1091 H 0.36408 0.68783 0.51593 0.0
H1092 H 0.33584 0.68568 0.54814 0.0
H1093 H 0.41677 0.59413 0.58912 0.0
H1094 H 0.42724 0.61773 0.54976 0.0
H1095 H 0.42487 0.62361 0.61212 0.0
H1096 H 0.45229 0.68312 0.48846 0.0
H1097 H 0.44447 0.69643 0.6379 0.0
H1098 H 0.39094 0.66161 0.46919 0.0
H1099 H 0.41301 0.63798 0.47556 0.0
H1100 H 0.42068 0.6651 0.44305 0.0
H1101 H 0.38246 0.67726 0.64822 0.0
H1102 H 0.40962 0.6852 0.68069 0.0
H1103 H 0.40371 0.65411 0.66433 0.0
C1104 C 0.34742 0.45533 0.5565 0.0
C1105 C 0.32233 0.45675 0.54882 0.0
C1106 C 0.35958 0.43298 0.55585 0.0
C1107 C 0.34622 0.41133 0.54824 0.0
C1108 C 0.32087 0.41268 0.53933 0.0
C1109 C 0.30922 0.43549 0.53936 0.0
C1110 C 0.38668 0.43254 0.56437 0.0
C1111 C 0.30597 0.39002 0.5316 0.0
C1112 C 0.38563 0.35826 0.5107 0.0
C1113 C 0.39131 0.34746 0.55461 0.0
C1114 C 0.36988 0.37822 0.50773 0.0
C1115 C 0.35916 0.38751 0.54963 0.0
C1116 C 0.36338 0.37561 0.59362 0.0
C1117 C 0.37947 0.35573 0.59564 0.0
C1118 C 0.36599 0.39031 0.46012 0.0
C1119 C 0.35198 0.38472 0.63901 0.0
H1120 H 0.35743 0.47187 0.56392 0.0
H1121 H 0.28974 0.43666 0.53427 0.0
H1122 H 0.39075 0.42225 0.59734 0.0
H1123 H 0.39595 0.4231 0.53461 0.0
H1124 H 0.39448 0.45107 0.56788 0.0
H1125 H 0.28679 0.39422 0.52239 0.0
H1126 H 0.31395 0.37884 0.50276 0.0
H1127 H 0.30621 0.37883 0.5644 0.0
H1128 H 0.39416 0.35154 0.47856 0.0
H1129 H 0.38365 0.34744 0.62962 0.0
H1130 H 0.37504 0.40832 0.46007 0.0
H1131 H 0.34637 0.39343 0.4536 0.0
H1132 H 0.37346 0.37938 0.43032 0.0
H1133 H 0.36042 0.40228 0.64921 0.0
H1134 H 0.35439 0.37172 0.66885 0.0
H1135 H 0.33228 0.38805 0.63374 0.0
C1136 C 0.5696 0.31482 0.60198 0.0
C1137 C 0.55514 0.31339 0.56093 0.0
C1138 C 0.59155 0.32771 0.6022 0.0
C1139 C 0.59941 0.33938 0.56016 0.0
C1140 C 0.58588 0.33636 0.51755 0.0
C1141 C 0.56383 0.32336 0.51843 0.0
C1142 C 0.60536 0.33031 0.64838 0.0
C1143 C 0.59382 0.34824 0.47181 0.0
C1144 C 0.63408 0.39851 0.57562 0.0
C1145 C 0.65814 0.39128 0.56774 0.0
C1146 C 0.61492 0.38175 0.57338 0.0
C1147 C 0.61987 0.35712 0.5625 0.0
C1148 C 0.64421 0.34959 0.55523 0.0
C1149 C 0.66311 0.36677 0.55821 0.0
C1150 C 0.58931 0.39051 0.58226 0.0
C1151 C 0.65019 0.32355 0.54327 0.0
H1152 H 0.56316 0.30666 0.63467 0.0
H1153 H 0.55271 0.32228 0.48669 0.0
H1154 H 0.62496 0.32664 0.64293 0.0
H1155 H 0.60367 0.34925 0.6615 0.0
H1156 H 0.59842 0.31786 0.67632 0.0
H1157 H 0.58339 0.3414 0.4407 0.0
H1158 H 0.59105 0.36817 0.47444 0.0
H1159 H 0.61345 0.34507 0.46553 0.0
H1160 H 0.63022 0.41745 0.58312 0.0
H1161 H 0.68168 0.36122 0.55139 0.0
H1162 H 0.58118 0.38028 0.61226 0.0
H1163 H 0.57789 0.38708 0.55042 0.0
H1164 H 0.58859 0.41021 0.59072 0.0
H1165 H 0.64303 0.31124 0.57115 0.0
H1166 H 0.67006 0.32049 0.53976 0.0
H1167 H 0.64126 0.31841 0.50933 0.0
C1168 C 0.69061 0.43735 0.96267 0.0
C1169 C 0.69193 0.45179 1.00376 0.0
C1170 C 0.67752 0.4155 0.96208 0.0
C1171 C 0.6655 0.4077 1.00379 0.0
C1172 C 0.66828 0.42125 0.04643 0.0
C1173 C 0.6815 0.44318 0.04592 0.0
C1174 C 0.67519 0.40168 0.91589 0.0
C1175 C 0.65602 0.4134 0.09183 0.0
C1176 C 0.60656 0.37272 0.98716 0.0
C1177 C 0.6138 0.3487 0.99567 0.0
C1178 C 0.62325 0.39195 0.98952 0.0
C1179 C 0.64784 0.38715 1.00111 0.0
C1180 C 0.65539 0.36285 1.0089 0.0
C1181 C 0.63829 0.34387 1.00583 0.0
C1182 C 0.61445 0.4175 0.9801 0.0
C1183 C 0.68139 0.357 0.02156 0.0
H1184 H 0.6991 0.44369 0.93023 0.0
H1185 H 0.68247 0.45428 0.0777 0.0
H1186 H 0.67891 0.38209 0.92148 0.0
H1187 H 0.65631 0.40328 0.90237 0.0
H1188 H 0.68776 0.40865 0.88817 0.0
H1189 H 0.66252 0.42394 0.12306 0.0
H1190 H 0.63611 0.41603 0.08843 0.0
H1191 H 0.65924 0.39379 0.09847 0.0
H1192 H 0.58766 0.37649 0.97916 0.0
H1193 H 0.64386 0.32536 1.01315 0.0
H1194 H 0.62487 0.4256 0.95031 0.0
H1195 H 0.61761 0.42901 1.01191 0.0
H1196 H 0.59481 0.41812 0.97105 0.0
H1197 H 0.69384 0.36418 0.99395 0.0
H1198 H 0.68451 0.33715 0.02527 0.0
H1199 H 0.68627 0.36599 0.05557 0.0
C1200 C 0.56313 0.68048 0.04981 0.0
C1201 C 0.55413 0.69042 1.00749 0.0
C1202 C 0.5852 0.66753 0.05026 0.0
C1203 C 0.59849 0.6646 1.00742 0.0
C1204 C 0.59033 0.67625 0.96553 0.0
C1205 C 0.56831 0.68902 0.96614 0.0
C1206 C 0.59342 0.6556 0.09581 0.0
C1207 C 0.60391 0.67381 0.91915 0.0
C1208 C 0.66232 0.63752 1.00895 0.0
C1209 C 0.65746 0.613 0.99918 0.0
C1210 C 0.64335 0.65461 1.012 0.0
C1211 C 0.61904 0.64699 1.00473 0.0
C1212 C 0.61418 0.62236 0.99363 0.0
C1213 C 0.63341 0.6057 0.99112 0.0
C1214 C 0.64925 0.68068 0.02401 0.0
C1215 C 0.58858 0.61349 0.98486 0.0
H1216 H 0.5522 0.68153 0.08176 0.0
H1217 H 0.5616 0.69714 0.93358 0.0
H1218 H 0.59082 0.63566 0.093 0.0
H1219 H 0.61306 0.65892 0.10191 0.0
H1220 H 0.58308 0.66228 0.12709 0.0
H1221 H 0.59679 0.68629 0.89141 0.0
H1222 H 0.62353 0.67755 0.92438 0.0
H1223 H 0.60224 0.65489 0.9059 0.0
H1224 H 0.68086 0.64316 1.01586 0.0
H1225 H 0.62961 0.58679 0.98329 0.0
H1226 H 0.64044 0.68573 0.05807 0.0
H1227 H 0.6419 0.69297 0.99626 0.0
H1228 H 0.66911 0.68384 0.02729 0.0
H1229 H 0.57722 0.61688 1.01673 0.0
H1230 H 0.58791 0.59378 0.97641 0.0
H1231 H 0.58033 0.62368 0.95488 0.0
C1232 C 0.34652 0.55043 1.01328 0.0
C1233 C 0.32144 0.54889 0.02074 0.0
C1234 C 0.35859 0.57282 1.01436 0.0
C1235 C 0.34514 0.59439 0.02215 0.0
C1236 C 0.31979 0.59291 0.03078 0.0
C1237 C 0.30823 0.57005 0.03035 0.0
C1238 C 0.38571 0.57341 1.00613 0.0
C1239 C 0.30478 0.61548 0.03863 0.0
C1240 C 0.38431 0.64751 0.06059 0.0
C1241 C 0.39002 0.65841 1.01683 0.0
C1242 C 0.36861 0.62749 0.06322 0.0
C1243 C 0.35797 0.61827 0.02113 0.0
C1244 C 0.3622 0.63029 0.97729 0.0
C1245 C 0.37824 0.6502 0.97561 0.0
C1246 C 0.36471 0.61528 0.11068 0.0
C1247 C 0.35088 0.62125 0.9317 0.0
H1248 H 0.3566 0.53396 1.00571 0.0
H1249 H 0.28875 0.56877 0.03527 0.0
H1250 H 0.38977 0.5838 0.9733 0.0
H1251 H 0.3949 0.58281 0.03607 0.0
H1252 H 0.39358 0.55492 1.00252 0.0
H1253 H 0.28562 0.61117 0.0476 0.0
H1254 H 0.31268 0.62661 0.06767 0.0
H1255 H 0.30501 0.62677 1.00596 0.0
H1256 H 0.39278 0.65419 0.09288 0.0
H1257 H 0.38245 0.65856 0.94173 0.0
H1258 H 0.37385 0.59731 0.11067 0.0
H1259 H 0.34509 0.61203 0.11696 0.0
H1260 H 0.37208 0.62618 0.14067 0.0
H1261 H 0.35941 0.60377 0.92137 0.0
H1262 H 0.35324 0.63435 0.90203 0.0
H1263 H 0.33119 0.6178 0.93678 0.0
C1264 C 0.44376 0.32369 0.04881 0.0
C1265 C 0.45222 0.31366 1.00615 0.0
C1266 C 0.42171 0.33667 0.05014 0.0
C1267 C 0.40794 0.33961 1.00782 0.0
C1268 C 0.41558 0.32793 0.96562 0.0
C1269 C 0.43753 0.31505 0.96541 0.0
C1270 C 0.41399 0.34856 0.09604 0.0
C1271 C 0.40151 0.33046 0.91974 0.0
C1272 C 0.34409 0.36661 1.01096 0.0
C1273 C 0.34886 0.39114 1.00127 0.0
C1274 C 0.36312 0.34956 1.01366 0.0
C1275 C 0.38737 0.35723 1.00594 0.0
C1276 C 0.39212 0.38189 0.99495 0.0
C1277 C 0.37285 0.39852 0.993 0.0
C1278 C 0.35735 0.32349 0.02579 0.0
C1279 C 0.41763 0.3908 0.98558 0.0
H1280 H 0.45505 0.32265 0.08033 0.0
H1281 H 0.44377 0.30683 0.93261 0.0
H1282 H 0.41665 0.36849 0.09332 0.0
H1283 H 0.39441 0.3453 0.10276 0.0
H1284 H 0.42463 0.34179 0.12692 0.0
H1285 H 0.40838 0.31808 0.89159 0.0
H1286 H 0.38196 0.32666 0.92557 0.0
H1287 H 0.403 0.34943 0.90668 0.0
H1288 H 0.32559 0.36094 1.01808 0.0
H1289 H 0.37654 0.41747 0.98538 0.0
H1290 H 0.36657 0.31841 0.05945 0.0
H1291 H 0.36435 0.31121 0.99768 0.0
H1292 H 0.33753 0.32033 0.02987 0.0
H1293 H 0.42924 0.38744 1.01717 0.0
H1294 H 0.4182 0.4105 0.97713 0.0
H1295 H 0.42566 0.38061 0.95539 0.0
C1296 C 0.96548 0.28459 0.36409 0.0
C1297 C 0.97421 0.26899 0.39979 0.0
C1298 C 0.97694 0.28614 0.31934 0.0
C1299 C 0.99729 0.27121 0.30919 0.0
C1300 C 0.00644 0.25575 0.34535 0.0
C1301 C 0.99513 0.25522 0.39026 0.0
C1302 C 0.96706 0.30355 0.28266 0.0
C1303 C 0.02775 0.23913 0.33617 0.0
C1304 C 0.01058 0.25512 0.17941 0.0
C1305 C 0.0316 0.26873 0.16986 0.0
C1306 C 0.9993 0.25574 0.22435 0.0
C1307 C 0.00857 0.27115 0.2605 0.0
C1308 C 0.02901 0.28595 0.25033 0.0
C1309 C 0.04045 0.2843 0.20557 0.0
C1310 C 0.9779 0.23926 0.23356 0.0
C1311 C 0.03901 0.30332 0.28699 0.0
H1312 H 0.94953 0.29558 0.37098 0.0
H1313 H 1.0024 0.24345 0.4175 0.0
H1314 H 0.98188 0.31517 0.26866 0.0
H1315 H 0.95945 0.29324 0.25219 0.0
H1316 H 0.95257 0.31542 0.29733 0.0
H1317 H 0.03253 0.228 0.36778 0.0
H1318 H 0.02345 0.22674 0.30617 0.0
H1319 H 0.04389 0.24991 0.32569 0.0
H1320 H 0.0032 0.24341 0.15216 0.0
H1321 H 0.05648 0.29517 0.19867 0.0
H1322 H 0.96181 0.25015 0.24392 0.0
H1323 H 0.9821 0.2269 0.26365 0.0
H1324 H 0.97307 0.22809 0.202 0.0
H1325 H 0.02427 0.31505 0.301 0.0
H1326 H 0.05358 0.31509 0.27231 0.0
H1327 H 0.04655 0.29299 0.31747 0.0
C1328 C 0.73119 0.95355 0.33394 0.0
C1329 C 0.73956 0.96651 0.37383 0.0
C1330 C 0.73271 0.96337 0.28772 0.0
C1331 C 0.7429 0.98676 0.28083 0.0
C1332 C 0.75011 1.00046 0.3212 0.0
C1333 C 0.74827 0.99025 0.36702 0.0
C1334 C 0.72472 0.94806 0.24599 0.0
C1335 C 0.76108 0.02543 0.31585 0.0
C1336 C 0.77866 0.99877 0.16747 0.0
C1337 C 0.76289 0.0135 0.14073 0.0
C1338 C 0.77209 0.98966 0.21223 0.0
C1339 C 0.7491 0.99546 0.23164 0.0
C1340 C 0.73273 0.00983 0.20443 0.0
C1341 C 0.73975 0.01858 0.15911 0.0
C1342 C 0.79011 0.97415 0.23916 0.0
C1343 C 0.70804 0.01642 0.2237 0.0
H1344 H 0.72426 0.93528 0.3385 0.0
H1345 H 0.75444 1.00066 0.39742 0.0
H1346 H 0.71334 0.95889 0.22126 0.0
H1347 H 0.74092 0.94189 0.22591 0.0
H1348 H 0.71428 0.9318 0.25735 0.0
H1349 H 0.76331 0.03478 0.3506 0.0
H1350 H 0.7792 0.02387 0.29887 0.0
H1351 H 0.7496 0.03686 0.29238 0.0
H1352 H 0.79648 0.99441 0.15347 0.0
H1353 H 0.72748 0.02998 0.13883 0.0
H1354 H 0.78176 0.95644 0.24853 0.0
H1355 H 0.79523 0.98327 0.27291 0.0
H1356 H 0.80691 0.97061 0.21842 0.0
H1357 H 0.6981 0.99978 0.23446 0.0
H1358 H 0.69689 0.02651 0.19735 0.0
H1359 H 0.71018 0.02783 0.25597 0.0
C1360 C 0.99257 0.75455 0.18732 0.0
C1361 C 0.97116 0.74112 0.18012 0.0
C1362 C 0.00466 0.75466 0.23162 0.0
C1363 C 0.99569 0.74036 0.26971 0.0
C1364 C 0.97469 0.72592 0.26208 0.0
C1365 C 0.9626 0.72667 0.21778 0.0
C1366 C 0.02675 0.77061 0.23794 0.0
C1367 C 0.9648 0.70986 0.30097 0.0
C1368 C 0.04006 0.72627 0.3713 0.0
C1369 C 0.03287 0.74278 0.40676 0.0
C1370 C 0.02781 0.72487 0.32724 0.0
C1371 C 0.00812 0.74072 0.31753 0.0
C1372 C 1.00058 0.75723 0.35339 0.0
C1373 C 0.01278 0.75782 0.39758 0.0
C1374 C 0.03616 0.70654 0.29082 0.0
C1375 C 0.97998 0.77478 0.34465 0.0
H1376 H 0.99971 0.76546 0.15861 0.0
H1377 H 0.94623 0.71601 0.21286 0.0
H1378 H 0.02362 0.78367 0.26738 0.0
H1379 H 0.04269 0.75939 0.24784 0.0
H1380 H 0.0312 0.78099 0.20522 0.0
H1381 H 0.94922 0.69865 0.28869 0.0
H1382 H 0.97926 0.69759 0.31435 0.0
H1383 H 0.95874 0.72117 0.33137 0.0
H1384 H 0.05542 0.71442 0.37787 0.0
H1385 H 0.00694 0.77061 0.42446 0.0
H1386 H 0.04311 0.71606 0.25887 0.0
H1387 H 0.02064 0.6951 0.27923 0.0
H1388 H 0.05073 0.69452 0.30474 0.0
H1389 H 0.98431 0.78648 0.31367 0.0
H1390 H 0.97639 0.78659 0.3759 0.0
H1391 H 0.96314 0.76466 0.33587 0.0
C1392 C 0.22888 0.99828 0.40242 0.0
C1393 C 0.24382 0.01419 0.42837 0.0
C1394 C 0.23586 0.98913 0.35793 0.0
C1395 C 0.25847 0.99602 0.33816 0.0
C1396 C 0.27415 0.01138 0.36488 0.0
C1397 C 0.26669 0.02024 0.40985 0.0
C1398 C 0.21857 0.97262 0.33143 0.0
C1399 C 0.29844 0.01907 0.34527 0.0
C1400 C 0.27725 0.95474 0.23555 0.0
C1401 C 0.26786 0.96721 0.19597 0.0
C1402 C 0.27592 0.96465 0.28172 0.0
C1403 C 0.26482 0.9876 0.28887 0.0
C1404 C 0.25669 1.00091 0.24872 0.0
C1405 C 0.25845 0.99067 0.20292 0.0
C1406 C 0.28504 0.94984 0.3232 0.0
C1407 C 0.2447 0.0254 0.25434 0.0
H1408 H 0.21131 0.9932 0.41669 0.0
H1409 H 0.27828 0.03259 0.42954 0.0
H1410 H 0.21279 0.9814 0.29775 0.0
H1411 H 0.22779 0.95537 0.32196 0.0
H1412 H 0.20208 0.96824 0.35252 0.0
H1413 H 0.30942 0.02922 0.37186 0.0
H1414 H 0.3089 1.00296 0.33332 0.0
H1415 H 0.29564 0.03085 0.31374 0.0
H1416 H 0.2848 0.93672 0.23085 0.0
H1417 H 0.25158 1.00076 0.17271 0.0
H1418 H 0.26934 0.94269 0.34357 0.0
H1419 H 0.2959 0.9613 0.34776 0.0
H1420 H 0.29635 0.93423 0.3115 0.0
H1421 H 0.2268 0.02309 0.27189 0.0
H1422 H 0.24178 0.0346 0.21964 0.0
H1423 H 0.25586 0.03736 0.27742 0.0
C1424 C 0.98066 0.73282 0.89485 0.0
C1425 C 0.99251 0.75174 0.91904 0.0
C1426 C 0.9851 0.72837 0.84603 0.0
C1427 C 1.00164 0.74331 0.82062 0.0
C1428 C 0.01489 0.76124 0.84603 0.0
C1429 C 0.01004 0.76531 0.89456 0.0
C1430 C 0.97066 0.70893 0.8209 0.0
C1431 C 0.03285 0.77758 0.82111 0.0
C1432 C 0.02642 0.73269 0.69506 0.0
C1433 C 0.01309 0.74969 0.66853 0.0
C1434 C 0.02163 0.7288 0.74387 0.0
C1435 C 0.00325 0.74248 0.76703 0.0
C1436 C 0.9885 0.7582 0.73927 0.0
C1437 C 0.99371 0.76171 0.69066 0.0
C1438 C 0.0377 0.71166 0.77145 0.0
C1439 C 0.9686 0.77312 0.76181 0.0
H1440 H 0.96648 0.72279 0.91303 0.0
H1441 H 0.01876 0.78038 0.91266 0.0
H1442 H 0.95614 0.71757 0.79937 0.0
H1443 H 0.98239 0.69845 0.79625 0.0
H1444 H 0.96203 0.69618 0.84641 0.0
H1445 H 0.04339 0.78892 0.84651 0.0
H1446 H 0.04575 0.76665 0.79967 0.0
H1447 H 0.02301 0.78982 0.79635 0.0
H1448 H 0.04197 0.72395 0.67871 0.0
H1449 H 0.98384 0.77544 0.67085 0.0
H1450 H 0.02686 0.70074 0.79688 0.0
H1451 H 0.05108 0.72232 0.79239 0.0
H1452 H 0.04783 0.69917 0.74758 0.0
H1453 H 0.95703 0.76157 0.78482 0.0
H1454 H 0.9569 0.7821 0.73483 0.0
H1455 H 0.97682 0.78737 0.78468 0.0
C1456 C 0.2417 0.99247 0.71762 0.0
C1457 C 0.25599 0.00753 0.68891 0.0
C1458 C 0.24785 0.98807 0.76534 0.0
C1459 C 0.26869 0.99931 0.78531 0.0
C1460 C 0.28437 0.01281 0.75525 0.0
C1461 C 0.27779 0.01681 0.7073 0.0
C1462 C 0.23066 0.97325 0.79549 0.0
C1463 C 0.3069 0.02488 0.77458 0.0
C1464 C 0.25561 0.01376 0.91456 0.0
C1465 C 0.26481 0.99315 0.93748 0.0
C1466 C 0.259 0.01731 0.86548 0.0
C1467 C 0.27165 0.99962 0.83841 0.0
C1468 C 0.28315 0.9801 0.86241 0.0
C1469 C 0.27948 0.97703 0.91169 0.0
C1470 C 0.24662 0.0386 0.84186 0.0
C1471 C 0.29712 0.961 0.83544 0.0
H1472 H 0.2246 0.98569 0.70373 0.0
H1473 H 0.28856 0.02902 0.68561 0.0
H1474 H 0.24083 0.95964 0.81667 0.0
H1475 H 0.22109 0.98539 0.82081 0.0
H1476 H 0.21683 0.96362 0.77369 0.0
H1477 H 0.31972 0.02986 0.74569 0.0
H1478 H 0.30169 0.04172 0.7937 0.0
H1479 H 0.31638 0.01288 0.80029 0.0
H1480 H 0.24373 0.02589 0.93411 0.0
H1481 H 0.28604 0.96068 0.92897 0.0
H1482 H 0.23048 0.03207 0.82191 0.0
H1483 H 0.25899 0.04745 0.81602 0.0
H1484 H 0.24054 0.0524 0.86812 0.0
H1485 H 0.28415 0.94818 0.81857 0.0
H1486 H 0.30927 0.95045 0.85931 0.0
H1487 H 0.30815 0.96931 0.80674 0.0
C1488 C 0.99182 0.25134 0.88421 0.0
C1489 C 0.01012 0.26328 0.90975 0.0
C1490 C 0.98807 0.25588 0.83553 0.0
C1491 C 0.00321 0.27267 0.81134 0.0
C1492 C 0.02024 0.28645 0.83804 0.0
C1493 C 0.02361 0.28147 0.88692 0.0
C1494 C 0.96954 0.24081 0.80907 0.0
C1495 C 0.0365 0.30481 0.81426 0.0
C1496 C 0.01465 0.25071 0.68525 0.0
C1497 C 0.99672 0.26307 0.65945 0.0
C1498 C 0.01842 0.25529 0.73392 0.0
C1499 C 0.00369 0.27255 0.75783 0.0
C1500 C 0.98708 0.28669 0.73088 0.0
C1501 C 0.98368 0.28167 0.68201 0.0
C1502 C 0.0365 0.23981 0.76064 0.0
C1503 C 0.97128 0.30555 0.75439 0.0
H1504 H 0.98179 0.23683 0.9014 0.0
H1505 H 0.0383 0.29025 0.9061 0.0
H1506 H 0.95827 0.25247 0.78564 0.0
H1507 H 0.97903 0.22744 0.78611 0.0
H1508 H 0.95734 0.23075 0.83359 0.0
H1509 H 0.04469 0.31752 0.84047 0.0
H1510 H 0.05144 0.2952 0.79565 0.0
H1511 H 0.02631 0.31543 0.78729 0.0
H1512 H 0.02433 0.23591 0.66825 0.0
H1513 H 0.96928 0.29079 0.66263 0.0
H1514 H 0.02662 0.22683 0.7838 0.0
H1515 H 0.04809 0.25126 0.78389 0.0
H1516 H 0.04841 0.22929 0.7363 0.0
H1517 H 0.95606 0.2964 0.77299 0.0
H1518 H 0.96348 0.31839 0.728 0.0
H1519 H 0.98171 0.31599 0.78131 0.0
C1520 C 0.7486 0.0152 0.65669 0.0
C1521 C 0.73808 0.99611 0.63098 0.0
C1522 C 0.74405 0.01821 0.70551 0.0
C1523 C 0.72864 1.00158 0.7295 0.0
C1524 C 0.71588 0.98392 0.70251 0.0
C1525 C 0.72089 0.98127 0.65353 0.0
C1526 C 0.75798 0.03749 0.73232 0.0
C1527 C 0.69884 0.96619 0.72605 0.0
C1528 C 0.75402 0.99014 0.8528 0.0
C1529 C 0.74139 0.00724 0.88008 0.0
C1530 C 0.74839 0.98638 0.80458 0.0
C1531 C 0.7297 1.00022 0.78282 0.0
C1532 C 0.71518 0.01562 0.81159 0.0
C1533 C 0.72132 0.01909 0.85991 0.0
C1534 C 0.76433 0.96957 0.77583 0.0
C1535 C 0.69471 0.03029 0.79048 0.0
H1536 H 0.76233 0.02632 0.63964 0.0
H1537 H 0.71321 0.96605 0.63415 0.0
H1538 H 0.74577 0.04759 0.75663 0.0
H1539 H 0.77225 0.02874 0.75437 0.0
H1540 H 0.76688 0.05067 0.70802 0.0
H1541 H 0.68612 0.95794 0.69993 0.0
H1542 H 0.70955 0.95137 0.74263 0.0
H1543 H 0.68818 0.97517 0.75455 0.0
H1544 H 0.7699 0.98139 0.868 0.0
H1545 H 0.7119 0.03284 0.88048 0.0
H1546 H 0.77616 0.98048 0.75207 0.0
H1547 H 0.75311 0.95753 0.75305 0.0
H1548 H 0.7761 0.9581 0.79878 0.0
H1549 H 0.70228 0.04663 0.77281 0.0
H1550 H 0.68174 0.0364 0.81825 0.0
H1551 H 0.6847 0.01964 0.76325 0.0
C1552 C 0.49538 0.75553 0.89098 0.0
C1553 C 0.4744 0.76921 0.90063 0.0
C1554 C 0.50651 0.75592 0.84585 0.0
C1555 C 0.49716 0.77117 0.80953 0.0
C1556 C 0.47673 0.78598 0.81975 0.0
C1557 C 0.46544 0.78458 0.86472 0.0
C1558 C 0.52791 0.73942 0.83667 0.0
C1559 C 0.46659 0.80316 0.78293 0.0
C1560 C 0.53987 0.7848 0.70525 0.0
C1561 C 0.53108 0.7692 0.66954 0.0
C1562 C 0.52861 0.7862 0.75026 0.0
C1563 C 0.50839 0.77114 0.7607 0.0
C1564 C 0.49922 0.75563 0.7246 0.0
C1565 C 0.51032 0.75524 0.67943 0.0
C1566 C 0.53854 0.80365 0.78685 0.0
C1567 C 0.47806 0.73887 0.73403 0.0
H1568 H 0.50286 0.74398 0.91835 0.0
H1569 H 0.44944 0.79549 0.87163 0.0
H1570 H 0.52369 0.727 0.80666 0.0
H1571 H 0.54399 0.75029 0.82621 0.0
H1572 H 0.53275 0.72831 0.86828 0.0
H1573 H 0.45194 0.81487 0.79749 0.0
H1574 H 0.48125 0.81496 0.76882 0.0
H1575 H 0.45913 0.79269 0.75254 0.0
H1576 H 0.5557 0.79592 0.69815 0.0
H1577 H 0.50299 0.74347 0.65223 0.0
H1578 H 0.54611 0.7934 0.81739 0.0
H1579 H 0.52373 0.81533 0.80078 0.0
H1580 H 0.55305 0.81548 0.77213 0.0
H1581 H 0.48245 0.72664 0.76421 0.0
H1582 H 0.47336 0.72756 0.70258 0.0
H1583 H 0.46183 0.74956 0.74435 0.0
C1584 C 0.24909 0.49449 0.89145 0.0
C1585 C 0.23569 0.47327 0.90049 0.0
C1586 C 0.24859 0.50586 0.84654 0.0
C1587 C 0.23362 0.49641 0.80985 0.0
C1588 C 0.2191 0.47571 0.81946 0.0
C1589 C 0.22053 0.46426 0.86425 0.0
C1590 C 0.26472 0.52761 0.83796 0.0
C1591 C 0.20228 0.4654 0.78212 0.0
C1592 C 0.21949 0.53899 0.70567 0.0
C1593 C 0.23549 0.53066 0.67031 0.0
C1594 C 0.21818 0.52765 0.75059 0.0
C1595 C 0.23367 0.50779 0.7612 0.0
C1596 C 0.2496 0.49908 0.72545 0.0
C1597 C 0.24999 0.5103 0.6804 0.0
C1598 C 0.20037 0.53711 0.7869 0.0
C1599 C 0.26677 0.47827 0.73515 0.0
H1600 H 0.26053 0.50196 0.91909 0.0
H1601 H 0.20985 0.44806 0.87071 0.0
H1602 H 0.2774 0.52371 0.80826 0.0
H1603 H 0.25358 0.54348 0.82732 0.0
H1604 H 0.27554 0.53258 0.8699 0.0
H1605 H 0.1908 0.45045 0.7962 0.0
H1606 H 0.19026 0.47988 0.76798 0.0
H1607 H 0.21304 0.4583 0.75184 0.0
H1608 H 0.208 0.55453 0.69838 0.0
H1609 H 0.26219 0.50341 0.65349 0.0
H1610 H 0.21034 0.54468 0.81783 0.0
H1611 H 0.18885 0.52205 0.80027 0.0
H1612 H 0.1884 0.55151 0.77214 0.0
H1613 H 0.27875 0.48286 0.76563 0.0
H1614 H 0.27832 0.47389 0.70393 0.0
H1615 H 0.25636 0.4618 0.74513 0.0
C1616 C 0.5405 0.21868 0.86308 0.0
C1617 C 0.53172 0.23411 0.89907 0.0
C1618 C 0.52908 0.2173 0.81811 0.0
C1619 C 0.50871 0.23222 0.80791 0.0
C1620 C 0.49951 0.2475 0.84432 0.0
C1621 C 0.51073 0.24781 0.88947 0.0
C1622 C 0.53903 0.20002 0.78128 0.0
C1623 C 0.4782 0.26414 0.83523 0.0
C1624 C 0.49555 0.24831 0.67772 0.0
C1625 C 0.47456 0.23468 0.66772 0.0
C1626 C 0.50669 0.24778 0.72292 0.0
C1627 C 0.4974 0.23237 0.75899 0.0
C1628 C 0.47699 0.21757 0.74841 0.0
C1629 C 0.46565 0.21916 0.7034 0.0
C1630 C 0.52804 0.26432 0.73243 0.0
C1631 C 0.46694 0.20016 0.78486 0.0
H1632 H 0.55648 0.20772 0.86988 0.0
H1633 H 0.50326 0.25928 0.91693 0.0
H1634 H 0.52423 0.18844 0.76693 0.0
H1635 H 0.54667 0.21043 0.75105 0.0
H1636 H 0.5535 0.18811 0.79593 0.0
H1637 H 0.47352 0.2753 0.86686 0.0
H1638 H 0.48243 0.2765 0.80519 0.0
H1639 H 0.46202 0.25336 0.82486 0.0
H1640 H 0.50308 0.2599 0.65052 0.0
H1641 H 0.44966 0.20826 0.69627 0.0
H1642 H 0.5442 0.25344 0.74251 0.0
H1643 H 0.52386 0.27651 0.7628 0.0
H1644 H 0.53275 0.27566 0.7011 0.0
H1645 H 0.48167 0.18841 0.7989 0.0
H1646 H 0.45238 0.18841 0.76996 0.0
H1647 H 0.45938 0.21044 0.81534 0.0
C1648 C 0.78734 0.46633 0.70381 0.0
C1649 C 0.77083 0.4744 0.66903 0.0
C1650 C 0.78902 0.47774 0.74866 0.0
C1651 C 0.77332 0.49733 0.75993 0.0
C1652 C 0.75689 0.5058 0.72475 0.0
C1653 C 0.75622 0.49461 0.67965 0.0
C1654 C 0.80745 0.46863 0.78419 0.0
C1655 C 0.73941 0.52626 0.73519 0.0
C1656 C 0.75909 0.51001 0.8909 0.0
C1657 C 0.77181 0.53171 0.89951 0.0
C1658 C 0.75937 0.49871 0.84589 0.0
C1659 C 0.77364 0.50864 0.80869 0.0
C1660 C 0.78768 0.52972 0.81794 0.0
C1661 C 0.78633 0.54115 0.8628 0.0
C1662 C 0.7437 0.47658 0.83776 0.0
C1663 C 0.80389 0.54047 0.78015 0.0
H1664 H 0.79896 0.45093 0.69609 0.0
H1665 H 0.74368 0.50134 0.65318 0.0
H1666 H 0.81866 0.48395 0.79754 0.0
H1667 H 0.79802 0.4606 0.81525 0.0
H1668 H 0.81969 0.45466 0.76872 0.0
H1669 H 0.72741 0.5304 0.70445 0.0
H1670 H 0.72789 0.52142 0.76613 0.0
H1671 H 0.74959 0.54294 0.74479 0.0
H1672 H 0.74836 0.50207 0.919 0.0
H1673 H 0.79654 0.5577 0.8689 0.0
H1674 H 0.75512 0.46097 0.82677 0.0
H1675 H 0.73066 0.48015 0.80845 0.0
H1676 H 0.7333 0.47134 0.87001 0.0
H1677 H 0.81595 0.52624 0.7652 0.0
H1678 H 0.81531 0.55552 0.79412 0.0
H1679 H 0.79266 0.54758 0.7505 0.0
C1680 C 0.4912 0.25701 0.18526 0.0
C1681 C 0.50845 0.24453 0.15801 0.0
C1682 C 0.48825 0.25225 0.23405 0.0
C1683 C 0.50318 0.23472 0.25672 0.0
C1684 C 0.51915 0.22053 0.22842 0.0
C1685 C 0.52167 0.22566 0.17938 0.0
C1686 C 0.47078 0.26777 0.26216 0.0
C1687 C 0.53519 0.20143 0.25058 0.0
C1688 C 0.51718 0.2554 0.38275 0.0
C1689 C 0.49922 0.24347 0.40918 0.0
C1690 C 0.52016 0.25096 0.33382 0.0
C1691 C 0.50455 0.23434 0.31022 0.0
C1692 C 0.48786 0.22058 0.3377 0.0
C1693 C 0.48532 0.22538 0.38687 0.0
C1694 C 0.53839 0.26597 0.30659 0.0
C1695 C 0.47108 0.20243 0.31455 0.0
H1696 H 0.48133 0.27195 0.16913 0.0
H1697 H 0.53554 0.21641 0.15887 0.0
H1698 H 0.45949 0.25632 0.28588 0.0
H1699 H 0.48117 0.28056 0.28495 0.0
H1700 H 0.45855 0.27851 0.23876 0.0
H1701 H 0.54242 0.18865 0.22349 0.0
H1702 H 0.55079 0.21038 0.26843 0.0
H1703 H 0.52514 0.19096 0.27793 0.0
H1704 H 0.52757 0.26979 0.39957 0.0
H1705 H 0.47092 0.2166 0.40674 0.0
H1706 H 0.52866 0.27957 0.28452 0.0
H1707 H 0.54912 0.25432 0.28225 0.0
H1708 H 0.5511 0.27577 0.3306 0.0
H1709 H 0.45593 0.21223 0.29693 0.0
H1710 H 0.46322 0.18969 0.341 0.0
H1711 H 0.48075 0.19183 0.28685 0.0
C1712 C 0.78116 0.48362 0.38675 0.0
C1713 C 0.76303 0.49738 0.40918 0.0
C1714 C 0.78591 0.4863 0.33762 0.0
C1715 C 0.77203 0.50296 0.31025 0.0
C1716 C 0.75537 0.51844 0.33397 0.0
C1717 C 0.75099 0.51534 0.38289 0.0
C1718 C 0.80411 0.46966 0.31435 0.0
C1719 C 0.74022 0.53664 0.30685 0.0
C1720 C 0.78056 0.5201 0.17935 0.0
C1721 C 0.76177 0.50675 0.15795 0.0
C1722 C 0.78569 0.51767 0.22844 0.0
C1723 C 0.77158 0.50164 0.25675 0.0
C1724 C 0.75413 0.48659 0.23408 0.0
C1725 C 0.74938 0.48946 0.18524 0.0
C1726 C 0.8047 0.53383 0.2506 0.0
C1727 C 0.7387 0.46906 0.26221 0.0
H1728 H 0.79002 0.4692 0.4065 0.0
H1729 H 0.73655 0.52559 0.39978 0.0
H1730 H 0.79436 0.4545 0.29664 0.0
H1731 H 0.81464 0.47944 0.28673 0.0
H1732 H 0.81692 0.4618 0.34075 0.0
H1733 H 0.73043 0.54929 0.33093 0.0
H1734 H 0.75178 0.54744 0.28247 0.0
H1735 H 0.72662 0.52687 0.28482 0.0
H1736 H 0.78974 0.53401 0.15881 0.0
H1737 H 0.7345 0.47948 0.1691 0.0
H1738 H 0.81523 0.52386 0.27803 0.0
H1739 H 0.79567 0.54939 0.26836 0.0
H1740 H 0.81744 0.54112 0.22353 0.0
H1741 H 0.75022 0.45781 0.28591 0.0
H1742 H 0.72796 0.45681 0.23883 0.0
H1743 H 0.72591 0.4794 0.28503 0.0
C1744 C 0.5195 0.7803 0.38989 0.0
C1745 C 0.50565 0.76179 0.41086 0.0
C1746 C 0.51757 0.78539 0.34072 0.0
C1747 C 0.50157 0.77148 0.31185 0.0
C1748 C 0.48595 0.75442 0.33405 0.0
C1749 C 0.48829 0.74974 0.38303 0.0
C1750 C 0.53429 0.80403 0.31911 0.0
C1751 C 0.46843 0.73921 0.30532 0.0
C1752 C 0.48581 0.78027 0.1804 0.0
C1753 C 0.49965 0.76175 0.15943 0.0
C1754 C 0.48773 0.78537 0.22958 0.0
C1755 C 0.50371 0.77147 0.25844 0.0
C1756 C 0.51933 0.75439 0.23624 0.0
C1757 C 0.51699 0.74969 0.18726 0.0
C1758 C 0.47103 0.80404 0.2512 0.0
C1759 C 0.53682 0.73918 0.26497 0.0
H1760 H 0.53346 0.7892 0.41084 0.0
H1761 H 0.47794 0.73504 0.39882 0.0
H1762 H 0.54997 0.79468 0.30244 0.0
H1763 H 0.52485 0.81453 0.29092 0.0
H1764 H 0.54138 0.81684 0.34635 0.0
H1765 H 0.45564 0.72893 0.32827 0.0
H1766 H 0.45775 0.75081 0.28076 0.0
H1767 H 0.47877 0.72603 0.28337 0.0
H1768 H 0.47186 0.78918 0.15945 0.0
H1769 H 0.52733 0.73499 0.17146 0.0
H1770 H 0.48047 0.81454 0.27939 0.0
H1771 H 0.45533 0.7947 0.26786 0.0
H1772 H 0.46394 0.81683 0.22397 0.0
H1773 H 0.54751 0.75078 0.28954 0.0
H1774 H 0.5496 0.72887 0.24202 0.0
H1775 H 0.52647 0.72602 0.28692 0.0
C1776 C 0.2554 0.51442 0.18659 0.0
C1777 C 0.24326 0.49667 0.15988 0.0
C1778 C 0.2507 0.51758 0.23536 0.0
C1779 C 0.23359 0.50238 0.25851 0.0
C1780 C 0.21969 0.4859 0.23072 0.0
C1781 C 0.22477 0.48316 0.18173 0.0
C1782 C 0.26589 0.53558 0.26296 0.0
C1783 C 0.20103 0.46957 0.2534 0.0
C1784 C 0.25476 0.48961 0.38472 0.0
C1785 C 0.24246 0.50744 0.41081 0.0
C1786 C 0.25035 0.48626 0.33585 0.0
C1787 C 0.23336 0.50135 0.31201 0.0
C1788 C 0.21925 0.51787 0.33919 0.0
C1789 C 0.22406 0.52081 0.38826 0.0
C1790 C 0.26576 0.46823 0.3089 0.0
C1791 C 0.2007 0.53409 0.31577 0.0
H1792 H 0.2701 0.52448 0.17013 0.0
H1793 H 0.21583 0.4689 0.16164 0.0
H1794 H 0.25426 0.54674 0.28659 0.0
H1795 H 0.27899 0.52563 0.28582 0.0
H1796 H 0.27627 0.54791 0.23921 0.0
H1797 H 0.18835 0.46186 0.22658 0.0
H1798 H 0.21038 0.45431 0.27151 0.0
H1799 H 0.19039 0.47955 0.28061 0.0
H1800 H 0.26942 0.47968 0.40169 0.0
H1801 H 0.21499 0.53515 0.40786 0.0
H1802 H 0.27908 0.47815 0.28657 0.0
H1803 H 0.25433 0.45707 0.28482 0.0
H1804 H 0.2759 0.4559 0.3331 0.0
H1805 H 0.21014 0.54934 0.2978 0.0
H1806 H 0.18783 0.54184 0.34212 0.0
H1807 H 0.19027 0.52402 0.28833 0.0
loop_
_geom_bond_atom_site_label_1
_geom_bond_atom_site_label_2
_geom_bond_distance
_geom_bond_site_symmetry_2
_ccdc_geom_bond_type
C0 C1 1.351 . S
C0 N3 1.368 . S
C0 H5 0.931 . S
C1 C0 1.351 . S
C1 N2 1.373 1_556 S
C1 H29 0.930 . S
N2 C1 1.373 1_554 S
N2 C4 1.340 . S
N3 C0 1.368 . S
N3 C4 1.321 1_556 S
N3 Co6 2.135 1_556 S
C4 N2 1.340 . S
C4 N3 1.321 1_554 S
C4 H28 0.930 . S
H5 C0 0.931 . S
Co6 N3 2.135 1_554 S
Co6 N9 2.121 1_455 S
Co6 O14 2.055 1_554 S
Co6 O17 2.039 . S
Co6 N20 2.140 . S
C7 O8 1.227 . S
C7 O17 1.265 . S
O8 C7 1.227 . S
N9 Co6 2.121 1_655 S
N9 C11 1.375 . S
N9 C12 1.313 1_554 S
C10 C11 1.338 . S
C10 N13 1.377 . S
C10 H30 0.930 . S
C11 N9 1.375 . S
C11 C10 1.338 . S
C11 H15 0.931 1_655 S
C12 N9 1.313 1_556 S
C12 N13 1.344 1_556 S
C12 H16 0.930 . S
N13 C10 1.377 . S
N13 C12 1.344 1_554 S
O14 Co6 2.055 1_556 S
O14 C18 1.253 . S
H15 C11 0.931 1_455 S
H16 C12 0.930 . S
O17 Co6 2.039 . S
O17 C7 1.265 . S
C18 O14 1.253 . S
C18 O19 1.227 . S
O19 C18 1.227 . S
N20 Co6 2.140 . S
N20 C23 1.346 . S
N20 C24 1.345 1_554 S
C21 C22 1.387 . S
C21 C25 1.391 1_554 S
C22 C21 1.387 . S
C22 C23 1.369 . S
C22 H31 0.929 . S
C23 N20 1.346 . S
C23 C22 1.369 . S
C23 H26 0.928 . S
C24 N20 1.345 1_556 S
C24 C25 1.371 . S
C24 H27 0.931 . S
C25 C21 1.391 1_556 S
C25 C24 1.371 . S
C25 H32 0.930 . S
H26 C23 0.928 . S
H27 C24 0.931 . S
H28 C4 0.930 . S
H29 C1 0.930 . S
H30 C10 0.930 . S
H31 C22 0.929 . S
H32 C25 0.930 . S
C33 C34 1.351 . S
C33 N36 1.368 . S
C33 H38 0.931 . S
C34 C33 1.351 . S
C34 N35 1.373 1_556 S
C34 H62 0.930 . S
N35 C34 1.373 1_554 S
N35 C37 1.340 . S
N36 C33 1.368 . S
N36 C37 1.321 1_556 S
N36 Co39 2.135 1_556 S
C37 N35 1.340 . S
C37 N36 1.321 1_554 S
C37 H61 0.930 . S
H38 C33 0.931 . S
Co39 N36 2.135 1_554 S
Co39 N42 2.121 1_545 S
Co39 O47 2.055 1_554 S
Co39 O50 2.039 . S
Co39 N53 2.140 . S
C40 O41 1.227 . S
C40 O50 1.265 . S
O41 C40 1.227 . S
N42 Co39 2.121 1_565 S
N42 C44 1.375 . S
N42 C45 1.313 1_554 S
C43 C44 1.338 . S
C43 N46 1.377 . S
C43 H63 0.930 . S
C44 N42 1.375 . S
C44 C43 1.338 . S
C44 H48 0.931 1_565 S
C45 N42 1.313 1_556 S
C45 N46 1.344 1_556 S
C45 H49 0.930 . S
N46 C43 1.377 . S
N46 C45 1.344 1_554 S
O47 Co39 2.055 1_556 S
O47 C51 1.253 . S
H48 C44 0.931 1_545 S
H49 C45 0.930 . S
O50 Co39 2.039 . S
O50 C40 1.265 . S
C51 O47 1.253 . S
C51 O52 1.227 . S
O52 C51 1.227 . S
N53 Co39 2.140 . S
N53 C56 1.346 . S
N53 C57 1.345 1_554 S
C54 C55 1.387 . S
C54 C58 1.391 1_554 S
C55 C54 1.387 . S
C55 C56 1.369 . S
C55 H64 0.929 . S
C56 N53 1.346 . S
C56 C55 1.369 . S
C56 H59 0.928 . S
C57 N53 1.345 1_556 S
C57 C58 1.371 . S
C57 H60 0.931 . S
C58 C54 1.391 1_556 S
C58 C57 1.371 . S
C58 H65 0.930 . S
H59 C56 0.928 . S
H60 C57 0.931 . S
H61 C37 0.930 . S
H62 C34 0.930 . S
H63 C43 0.930 . S
H64 C55 0.929 . S
H65 C58 0.930 . S
C66 C67 1.351 . S
C66 N69 1.368 . S
C66 H71 0.931 . S
C67 C66 1.351 . S
C67 N68 1.373 1_556 S
C67 H95 0.930 . S
N68 C67 1.373 1_554 S
N68 C70 1.340 . S
N69 C66 1.368 . S
N69 C70 1.321 1_556 S
N69 Co72 2.135 1_556 S
C70 N68 1.340 . S
C70 N69 1.321 1_554 S
C70 H94 0.930 . S
H71 C66 0.931 . S
Co72 N69 2.135 1_554 S
Co72 N75 2.121 1_655 S
Co72 O80 2.055 1_554 S
Co72 O83 2.039 . S
Co72 N86 2.140 . S
C73 O74 1.227 . S
C73 O83 1.265 . S
O74 C73 1.227 . S
N75 Co72 2.121 1_455 S
N75 C77 1.375 . S
N75 C78 1.313 1_554 S
C76 C77 1.338 . S
C76 N79 1.377 . S
C76 H96 0.930 . S
C77 N75 1.375 . S
C77 C76 1.338 . S
C77 H81 0.931 1_455 S
C78 N75 1.313 1_556 S
C78 N79 1.344 1_556 S
C78 H82 0.930 . S
N79 C76 1.377 . S
N79 C78 1.344 1_554 S
O80 Co72 2.055 1_556 S
O80 C84 1.253 . S
H81 C77 0.931 1_655 S
H82 C78 0.930 . S
O83 Co72 2.039 . S
O83 C73 1.265 . S
C84 O80 1.253 . S
C84 O85 1.227 . S
O85 C84 1.227 . S
N86 Co72 2.140 . S
N86 C89 1.346 . S
N86 C90 1.345 1_554 S
C87 C88 1.387 . S
C87 C91 1.391 1_554 S
C88 C87 1.387 . S
C88 C89 1.369 . S
C88 H97 0.929 . S
C89 N86 1.346 . S
C89 C88 1.369 . S
C89 H92 0.928 . S
C90 N86 1.345 1_556 S
C90 C91 1.371 . S
C90 H93 0.931 . S
C91 C87 1.391 1_556 S
C91 C90 1.371 . S
C91 H98 0.930 . S
H92 C89 0.928 . S
H93 C90 0.931 . S
H94 C70 0.930 . S
H95 C67 0.930 . S
H96 C76 0.930 . S
H97 C88 0.929 . S
H98 C91 0.930 . S
C99 C100 1.351 . S
C99 N102 1.368 . S
C99 H104 0.931 . S
C100 C99 1.351 . S
C100 N101 1.373 1_556 S
C100 H128 0.930 . S
N101 C100 1.373 1_554 S
N101 C103 1.340 . S
N102 C99 1.368 . S
N102 C103 1.321 1_556 S
N102 Co105 2.135 1_556 S
C103 N101 1.340 . S
C103 N102 1.321 1_554 S
C103 H127 0.930 . S
H104 C99 0.931 . S
Co105 N102 2.135 1_554 S
Co105 N108 2.121 1_565 S
Co105 O113 2.055 1_554 S
Co105 O116 2.039 . S
Co105 N119 2.140 . S
C106 O107 1.227 . S
C106 O116 1.265 . S
O107 C106 1.227 . S
N108 Co105 2.121 1_545 S
N108 C110 1.375 . S
N108 C111 1.313 1_554 S
C109 C110 1.338 . S
C109 N112 1.377 . S
C109 H129 0.930 . S
C110 N108 1.375 . S
C110 C109 1.338 . S
C110 H114 0.931 1_545 S
C111 N108 1.313 1_556 S
C111 N112 1.344 1_556 S
C111 H115 0.930 . S
N112 C109 1.377 . S
N112 C111 1.344 1_554 S
O113 Co105 2.055 1_556 S
O113 C117 1.253 . S
H114 C110 0.931 1_565 S
H115 C111 0.930 . S
O116 Co105 2.039 . S
O116 C106 1.265 . S
C117 O113 1.253 . S
C117 O118 1.227 . S
O118 C117 1.227 . S
N119 Co105 2.140 . S
N119 C122 1.346 . S
N119 C123 1.345 1_554 S
C120 C121 1.387 . S
C120 C124 1.391 1_554 S
C121 C120 1.387 . S
C121 C122 1.369 . S
C121 H130 0.929 . S
C122 N119 1.346 . S
C122 C121 1.369 . S
C122 H125 0.928 . S
C123 N119 1.345 1_556 S
C123 C124 1.371 . S
C123 H126 0.931 . S
C124 C120 1.391 1_556 S
C124 C123 1.371 . S
C124 H131 0.930 . S
H125 C122 0.928 . S
H126 C123 0.931 . S
H127 C103 0.930 . S
H128 C100 0.930 . S
H129 C109 0.930 . S
H130 C121 0.929 . S
H131 C124 0.930 . S
C132 C133 1.351 . S
C132 N135 1.368 . S
C132 H137 0.931 . S
C133 C132 1.351 . S
C133 N134 1.373 . S
C133 H161 0.930 . S
N134 C133 1.373 . S
N134 C136 1.340 . S
N135 C132 1.368 . S
N135 C136 1.321 . S
N135 Co138 2.135 . S
C136 N134 1.340 . S
C136 N135 1.321 . S
C136 H160 0.930 . S
H137 C132 0.931 . S
Co138 N135 2.135 . S
Co138 N141 2.121 1_455 S
Co138 O146 2.055 . S
Co138 O149 2.039 . S
Co138 N152 2.140 . S
C139 O140 1.227 . S
C139 O149 1.265 . S
O140 C139 1.227 . S
N141 Co138 2.121 1_655 S
N141 C143 1.375 . S
N141 C144 1.313 . S
C142 C143 1.338 . S
C142 N145 1.377 . S
C142 H162 0.930 . S
C143 N141 1.375 . S
C143 C142 1.338 . S
C143 H147 0.931 1_655 S
C144 N141 1.313 . S
C144 N145 1.344 . S
C144 H148 0.930 . S
N145 C142 1.377 . S
N145 C144 1.344 . S
O146 Co138 2.055 . S
O146 C150 1.253 . S
H147 C143 0.931 1_455 S
H148 C144 0.930 . S
O149 Co138 2.039 . S
O149 C139 1.265 . S
C150 O146 1.253 . S
C150 O151 1.227 . S
O151 C150 1.227 . S
N152 Co138 2.140 . S
N152 C155 1.346 . S
N152 C156 1.345 . S
C153 C154 1.387 . S
C153 C157 1.391 . S
C154 C153 1.387 . S
C154 C155 1.369 . S
C154 H163 0.929 . S
C155 N152 1.346 . S
C155 C154 1.369 . S
C155 H158 0.928 . S
C156 N152 1.345 . S
C156 C157 1.371 . S
C156 H159 0.931 . S
C157 C153 1.391 . S
C157 C156 1.371 . S
C157 H164 0.930 . S
H158 C155 0.928 . S
H159 C156 0.931 . S
H160 C136 0.930 . S
H161 C133 0.930 . S
H162 C142 0.930 . S
H163 C154 0.929 . S
H164 C157 0.930 . S
C165 C166 1.351 . S
C165 N168 1.368 . S
C165 H170 0.931 . S
C166 C165 1.351 . S
C166 N167 1.373 . S
C166 H194 0.930 . S
N167 C166 1.373 . S
N167 C169 1.340 . S
N168 C165 1.368 . S
N168 C169 1.321 . S
N168 Co171 2.135 . S
C169 N167 1.340 . S
C169 N168 1.321 . S
C169 H193 0.930 . S
H170 C165 0.931 . S
Co171 N168 2.135 . S
Co171 N174 2.121 1_545 S
Co171 O179 2.055 . S
Co171 O182 2.039 . S
Co171 N185 2.140 . S
C172 O173 1.227 . S
C172 O182 1.265 . S
O173 C172 1.227 . S
N174 Co171 2.121 1_565 S
N174 C176 1.375 . S
N174 C177 1.313 . S
C175 C176 1.338 . S
C175 N178 1.377 . S
C175 H195 0.930 . S
C176 N174 1.375 . S
C176 C175 1.338 . S
C176 H180 0.931 1_565 S
C177 N174 1.313 . S
C177 N178 1.344 . S
C177 H181 0.930 . S
N178 C175 1.377 . S
N178 C177 1.344 . S
O179 Co171 2.055 . S
O179 C183 1.253 . S
H180 C176 0.931 1_545 S
H181 C177 0.930 . S
O182 Co171 2.039 . S
O182 C172 1.265 . S
C183 O179 1.253 . S
C183 O184 1.227 . S
O184 C183 1.227 . S
N185 Co171 2.140 . S
N185 C188 1.346 . S
N185 C189 1.345 . S
C186 C187 1.387 . S
C186 C190 1.391 . S
C187 C186 1.387 . S
C187 C188 1.369 . S
C187 H196 0.929 . S
C188 N185 1.346 . S
C188 C187 1.369 . S
C188 H191 0.928 . S
C189 N185 1.345 . S
C189 C190 1.371 . S
C189 H192 0.931 . S
C190 C186 1.391 . S
C190 C189 1.371 . S
C190 H197 0.930 . S
H191 C188 0.928 . S
H192 C189 0.931 . S
H193 C169 0.930 . S
H194 C166 0.930 . S
H195 C175 0.930 . S
H196 C187 0.929 . S
H197 C190 0.930 . S
C198 C199 1.351 . S
C198 N201 1.368 . S
C198 H203 0.931 . S
C199 C198 1.351 . S
C199 N200 1.373 . S
C199 H227 0.930 . S
N200 C199 1.373 . S
N200 C202 1.340 . S
N201 C198 1.368 . S
N201 C202 1.321 . S
N201 Co204 2.135 . S
C202 N200 1.340 . S
C202 N201 1.321 . S
C202 H226 0.930 . S
H203 C198 0.931 . S
Co204 N201 2.135 . S
Co204 N207 2.121 1_655 S
Co204 O212 2.055 . S
Co204 O215 2.039 . S
Co204 N218 2.140 . S
C205 O206 1.227 . S
C205 O215 1.265 . S
O206 C205 1.227 . S
N207 Co204 2.121 1_455 S
N207 C209 1.375 . S
N207 C210 1.313 . S
C208 C209 1.338 . S
C208 N211 1.377 . S
C208 H228 0.930 . S
C209 N207 1.375 . S
C209 C208 1.338 . S
C209 H213 0.931 1_455 S
C210 N207 1.313 . S
C210 N211 1.344 . S
C210 H214 0.930 . S
N211 C208 1.377 . S
N211 C210 1.344 . S
O212 Co204 2.055 . S
O212 C216 1.253 . S
H213 C209 0.931 1_655 S
H214 C210 0.930 . S
O215 Co204 2.039 . S
O215 C205 1.265 . S
C216 O212 1.253 . S
C216 O217 1.227 . S
O217 C216 1.227 . S
N218 Co204 2.140 . S
N218 C221 1.346 . S
N218 C222 1.345 . S
C219 C220 1.387 . S
C219 C223 1.391 . S
C220 C219 1.387 . S
C220 C221 1.369 . S
C220 H229 0.929 . S
C221 N218 1.346 . S
C221 C220 1.369 . S
C221 H224 0.928 . S
C222 N218 1.345 . S
C222 C223 1.371 . S
C222 H225 0.931 . S
C223 C219 1.391 . S
C223 C222 1.371 . S
C223 H230 0.930 . S
H224 C221 0.928 . S
H225 C222 0.931 . S
H226 C202 0.930 . S
H227 C199 0.930 . S
H228 C208 0.930 . S
H229 C220 0.929 . S
H230 C223 0.930 . S
C231 C232 1.351 . S
C231 N234 1.368 . S
C231 H236 0.931 . S
C232 C231 1.351 . S
C232 N233 1.373 . S
C232 H260 0.930 . S
N233 C232 1.373 . S
N233 C235 1.340 . S
N234 C231 1.368 . S
N234 C235 1.321 . S
N234 Co237 2.135 . S
C235 N233 1.340 . S
C235 N234 1.321 . S
C235 H259 0.930 . S
H236 C231 0.931 . S
Co237 N234 2.135 . S
Co237 N240 2.121 1_565 S
Co237 O245 2.055 . S
Co237 O248 2.039 . S
Co237 N251 2.140 . S
C238 O239 1.227 . S
C238 O248 1.265 . S
O239 C238 1.227 . S
N240 Co237 2.121 1_545 S
N240 C242 1.375 . S
N240 C243 1.313 . S
C241 C242 1.338 . S
C241 N244 1.377 . S
C241 H261 0.930 . S
C242 N240 1.375 . S
C242 C241 1.338 . S
C242 H246 0.931 1_545 S
C243 N240 1.313 . S
C243 N244 1.344 . S
C243 H247 0.930 . S
N244 C241 1.377 . S
N244 C243 1.344 . S
O245 Co237 2.055 . S
O245 C249 1.253 . S
H246 C242 0.931 1_565 S
H247 C243 0.930 . S
O248 Co237 2.039 . S
O248 C238 1.265 . S
C249 O245 1.253 . S
C249 O250 1.227 . S
O250 C249 1.227 . S
N251 Co237 2.140 . S
N251 C254 1.346 . S
N251 C255 1.345 . S
C252 C253 1.387 . S
C252 C256 1.391 . S
C253 C252 1.387 . S
C253 C254 1.369 . S
C253 H262 0.929 . S
C254 N251 1.346 . S
C254 C253 1.369 . S
C254 H257 0.928 . S
C255 N251 1.345 . S
C255 C256 1.371 . S
C255 H258 0.931 . S
C256 C252 1.391 . S
C256 C255 1.371 . S
C256 H263 0.930 . S
H257 C254 0.928 . S
H258 C255 0.931 . S
H259 C235 0.930 . S
H260 C232 0.930 . S
H261 C241 0.930 . S
H262 C253 0.929 . S
H263 C256 0.930 . S
C264 C265 1.351 . S
C264 N267 1.368 . S
C264 H269 0.931 . S
C265 C264 1.351 . S
C265 N266 1.373 . S
C265 H293 0.930 . S
N266 C265 1.373 . S
N266 C268 1.340 . S
N267 C264 1.368 . S
N267 C268 1.321 . S
N267 Co270 2.135 . S
C268 N266 1.340 . S
C268 N267 1.321 . S
C268 H292 0.930 . S
H269 C264 0.931 . S
Co270 N267 2.135 . S
Co270 N273 2.121 . S
Co270 O278 2.055 . S
Co270 O281 2.039 . S
Co270 N284 2.140 . S
C271 O272 1.227 . S
C271 O281 1.265 . S
O272 C271 1.227 . S
N273 Co270 2.121 . S
N273 C275 1.375 . S
N273 C276 1.313 . S
C274 C275 1.338 . S
C274 N277 1.377 . S
C274 H294 0.930 . S
C275 N273 1.375 . S
C275 C274 1.338 . S
C275 H279 0.931 . S
C276 N273 1.313 . S
C276 N277 1.344 . S
C276 H280 0.930 . S
N277 C274 1.377 . S
N277 C276 1.344 . S
O278 Co270 2.055 . S
O278 C282 1.253 . S
H279 C275 0.931 . S
H280 C276 0.930 . S
O281 Co270 2.039 . S
O281 C271 1.265 . S
C282 O278 1.253 . S
C282 O283 1.227 . S
O283 C282 1.227 . S
N284 Co270 2.140 . S
N284 C287 1.346 . S
N284 C288 1.345 . S
C285 C286 1.387 . S
C285 C289 1.391 . S
C286 C285 1.387 . S
C286 C287 1.369 . S
C286 H295 0.929 . S
C287 N284 1.346 . S
C287 C286 1.369 . S
C287 H290 0.928 . S
C288 N284 1.345 . S
C288 C289 1.371 . S
C288 H291 0.931 . S
C289 C285 1.391 . S
C289 C288 1.371 . S
C289 H296 0.930 . S
H290 C287 0.928 . S
H291 C288 0.931 . S
H292 C268 0.930 . S
H293 C265 0.930 . S
H294 C274 0.930 . S
H295 C286 0.929 . S
H296 C289 0.930 . S
C297 C298 1.351 . S
C297 N300 1.368 . S
C297 H302 0.931 . S
C298 C297 1.351 . S
C298 N299 1.373 . S
C298 H326 0.930 . S
N299 C298 1.373 . S
N299 C301 1.340 . S
N300 C297 1.368 . S
N300 C301 1.321 . S
N300 Co303 2.135 . S
C301 N299 1.340 . S
C301 N300 1.321 . S
C301 H325 0.930 . S
H302 C297 0.931 . S
Co303 N300 2.135 . S
Co303 N306 2.121 . S
Co303 O311 2.055 . S
Co303 O314 2.039 . S
Co303 N317 2.140 . S
C304 O305 1.227 . S
C304 O314 1.265 . S
O305 C304 1.227 . S
N306 Co303 2.121 . S
N306 C308 1.375 . S
N306 C309 1.313 . S
C307 C308 1.338 . S
C307 N310 1.377 . S
C307 H327 0.930 . S
C308 N306 1.375 . S
C308 C307 1.338 . S
C308 H312 0.931 . S
C309 N306 1.313 . S
C309 N310 1.344 . S
C309 H313 0.930 . S
N310 C307 1.377 . S
N310 C309 1.344 . S
O311 Co303 2.055 . S
O311 C315 1.253 . S
H312 C308 0.931 . S
H313 C309 0.930 . S
O314 Co303 2.039 . S
O314 C304 1.265 . S
C315 O311 1.253 . S
C315 O316 1.227 . S
O316 C315 1.227 . S
N317 Co303 2.140 . S
N317 C320 1.346 . S
N317 C321 1.345 . S
C318 C319 1.387 . S
C318 C322 1.391 . S
C319 C318 1.387 . S
C319 C320 1.369 . S
C319 H328 0.929 . S
C320 N317 1.346 . S
C320 C319 1.369 . S
C320 H323 0.928 . S
C321 N317 1.345 . S
C321 C322 1.371 . S
C321 H324 0.931 . S
C322 C318 1.391 . S
C322 C321 1.371 . S
C322 H329 0.930 . S
H323 C320 0.928 . S
H324 C321 0.931 . S
H325 C301 0.930 . S
H326 C298 0.930 . S
H327 C307 0.930 . S
H328 C319 0.929 . S
H329 C322 0.930 . S
C330 C331 1.351 . S
C330 N333 1.368 . S
C330 H335 0.931 . S
C331 C330 1.351 . S
C331 N332 1.373 . S
C331 H359 0.930 . S
N332 C331 1.373 . S
N332 C334 1.340 . S
N333 C330 1.368 . S
N333 C334 1.321 . S
N333 Co336 2.135 . S
C334 N332 1.340 . S
C334 N333 1.321 . S
C334 H358 0.930 . S
H335 C330 0.931 . S
Co336 N333 2.135 . S
Co336 N339 2.121 . S
Co336 O344 2.055 . S
Co336 O347 2.039 . S
Co336 N350 2.140 . S
C337 O338 1.227 . S
C337 O347 1.265 . S
O338 C337 1.227 . S
N339 Co336 2.121 . S
N339 C341 1.375 . S
N339 C342 1.313 . S
C340 C341 1.338 . S
C340 N343 1.377 . S
C340 H360 0.930 . S
C341 N339 1.375 . S
C341 C340 1.338 . S
C341 H345 0.931 . S
C342 N339 1.313 . S
C342 N343 1.344 . S
C342 H346 0.930 . S
N343 C340 1.377 . S
N343 C342 1.344 . S
O344 Co336 2.055 . S
O344 C348 1.253 . S
H345 C341 0.931 . S
H346 C342 0.930 . S
O347 Co336 2.039 . S
O347 C337 1.265 . S
C348 O344 1.253 . S
C348 O349 1.227 . S
O349 C348 1.227 . S
N350 Co336 2.140 . S
N350 C353 1.346 . S
N350 C354 1.345 . S
C351 C352 1.387 . S
C351 C355 1.391 . S
C352 C351 1.387 . S
C352 C353 1.369 . S
C352 H361 0.929 . S
C353 N350 1.346 . S
C353 C352 1.369 . S
C353 H356 0.928 . S
C354 N350 1.345 . S
C354 C355 1.371 . S
C354 H357 0.931 . S
C355 C351 1.391 . S
C355 C354 1.371 . S
C355 H362 0.930 . S
H356 C353 0.928 . S
H357 C354 0.931 . S
H358 C334 0.930 . S
H359 C331 0.930 . S
H360 C340 0.930 . S
H361 C352 0.929 . S
H362 C355 0.930 . S
C363 C364 1.351 . S
C363 N366 1.368 . S
C363 H368 0.931 . S
C364 C363 1.351 . S
C364 N365 1.373 . S
C364 H392 0.930 . S
N365 C364 1.373 . S
N365 C367 1.340 . S
N366 C363 1.368 . S
N366 C367 1.321 . S
N366 Co369 2.135 . S
C367 N365 1.340 . S
C367 N366 1.321 . S
C367 H391 0.930 . S
H368 C363 0.931 . S
Co369 N366 2.135 . S
Co369 N372 2.121 . S
Co369 O377 2.055 . S
Co369 O380 2.039 . S
Co369 N383 2.140 . S
C370 O371 1.227 . S
C370 O380 1.265 . S
O371 C370 1.227 . S
N372 Co369 2.121 . S
N372 C374 1.375 . S
N372 C375 1.313 . S
C373 C374 1.338 . S
C373 N376 1.377 . S
C373 H393 0.930 . S
C374 N372 1.375 . S
C374 C373 1.338 . S
C374 H378 0.931 . S
C375 N372 1.313 . S
C375 N376 1.344 . S
C375 H379 0.930 . S
N376 C373 1.377 . S
N376 C375 1.344 . S
O377 Co369 2.055 . S
O377 C381 1.253 . S
H378 C374 0.931 . S
H379 C375 0.930 . S
O380 Co369 2.039 . S
O380 C370 1.265 . S
C381 O377 1.253 . S
C381 O382 1.227 . S
O382 C381 1.227 . S
N383 Co369 2.140 . S
N383 C386 1.346 . S
N383 C387 1.345 . S
C384 C385 1.387 . S
C384 C388 1.391 . S
C385 C384 1.387 . S
C385 C386 1.369 . S
C385 H394 0.929 . S
C386 N383 1.346 . S
C386 C385 1.369 . S
C386 H389 0.928 . S
C387 N383 1.345 . S
C387 C388 1.371 . S
C387 H390 0.931 . S
C388 C384 1.391 . S
C388 C387 1.371 . S
C388 H395 0.930 . S
H389 C386 0.928 . S
H390 C387 0.931 . S
H391 C367 0.930 . S
H392 C364 0.930 . S
H393 C373 0.930 . S
H394 C385 0.929 . S
H395 C388 0.930 . S
C396 C397 1.351 . S
C396 N399 1.368 . S
C396 H401 0.931 . S
C397 C396 1.351 . S
C397 N398 1.373 . S
C397 H425 0.930 . S
N398 C397 1.373 . S
N398 C400 1.340 . S
N399 C396 1.368 . S
N399 C400 1.321 . S
N399 Co402 2.135 . S
C400 N398 1.340 . S
C400 N399 1.321 . S
C400 H424 0.930 1_554 S
H401 C396 0.931 . S
Co402 N399 2.135 . S
Co402 N405 2.121 . S
Co402 O410 2.055 . S
Co402 O413 2.039 1_554 S
Co402 N416 2.140 . S
C403 O404 1.227 . S
C403 O413 1.265 . S
O404 C403 1.227 . S
N405 Co402 2.121 . S
N405 C407 1.375 1_554 S
N405 C408 1.313 . S
C406 C407 1.338 . S
C406 N409 1.377 1_556 S
C406 H426 0.930 . S
C407 N405 1.375 1_556 S
C407 C406 1.338 . S
C407 H411 0.931 . S
C408 N405 1.313 . S
C408 N409 1.344 . S
C408 H412 0.930 . S
N409 C406 1.377 1_554 S
N409 C408 1.344 . S
O410 Co402 2.055 . S
O410 C414 1.253 . S
H411 C407 0.931 . S
H412 C408 0.930 . S
O413 Co402 2.039 1_556 S
O413 C403 1.265 . S
C414 O410 1.253 . S
C414 O415 1.227 . S
O415 C414 1.227 . S
N416 Co402 2.140 . S
N416 C419 1.346 . S
N416 C420 1.345 . S
C417 C418 1.387 . S
C417 C421 1.391 . S
C418 C417 1.387 . S
C418 C419 1.369 . S
C418 H427 0.929 1_554 S
C419 N416 1.346 . S
C419 C418 1.369 . S
C419 H422 0.928 1_554 S
C420 N416 1.345 . S
C420 C421 1.371 . S
C420 H423 0.931 . S
C421 C417 1.391 . S
C421 C420 1.371 . S
C421 H428 0.930 . S
H422 C419 0.928 1_556 S
H423 C420 0.931 . S
H424 C400 0.930 1_556 S
H425 C397 0.930 . S
H426 C406 0.930 . S
H427 C418 0.929 1_556 S
H428 C421 0.930 . S
C429 C430 1.351 . S
C429 N432 1.368 . S
C429 H434 0.931 . S
C430 C429 1.351 . S
C430 N431 1.373 . S
C430 H458 0.930 . S
N431 C430 1.373 . S
N431 C433 1.340 . S
N432 C429 1.368 . S
N432 C433 1.321 . S
N432 Co435 2.135 . S
C433 N431 1.340 . S
C433 N432 1.321 . S
C433 H457 0.930 1_554 S
H434 C429 0.931 . S
Co435 N432 2.135 . S
Co435 N438 2.121 . S
Co435 O443 2.055 . S
Co435 O446 2.039 1_554 S
Co435 N449 2.140 . S
C436 O437 1.227 . S
C436 O446 1.265 . S
O437 C436 1.227 . S
N438 Co435 2.121 . S
N438 C440 1.375 1_554 S
N438 C441 1.313 . S
C439 C440 1.338 . S
C439 N442 1.377 1_556 S
C439 H459 0.930 . S
C440 N438 1.375 1_556 S
C440 C439 1.338 . S
C440 H444 0.931 . S
C441 N438 1.313 . S
C441 N442 1.344 . S
C441 H445 0.930 . S
N442 C439 1.377 1_554 S
N442 C441 1.344 . S
O443 Co435 2.055 . S
O443 C447 1.253 . S
H444 C440 0.931 . S
H445 C441 0.930 . S
O446 Co435 2.039 1_556 S
O446 C436 1.265 . S
C447 O443 1.253 . S
C447 O448 1.227 . S
O448 C447 1.227 . S
N449 Co435 2.140 . S
N449 C452 1.346 . S
N449 C453 1.345 . S
C450 C451 1.387 . S
C450 C454 1.391 . S
C451 C450 1.387 . S
C451 C452 1.369 . S
C451 H460 0.929 1_554 S
C452 N449 1.346 . S
C452 C451 1.369 . S
C452 H455 0.928 1_554 S
C453 N449 1.345 . S
C453 C454 1.371 . S
C453 H456 0.931 . S
C454 C450 1.391 . S
C454 C453 1.371 . S
C454 H461 0.930 . S
H455 C452 0.928 1_556 S
H456 C453 0.931 . S
H457 C433 0.930 1_556 S
H458 C430 0.930 . S
H459 C439 0.930 . S
H460 C451 0.929 1_556 S
H461 C454 0.930 . S
C462 C463 1.351 . S
C462 N465 1.368 . S
C462 H467 0.931 . S
C463 C462 1.351 . S
C463 N464 1.373 . S
C463 H491 0.930 . S
N464 C463 1.373 . S
N464 C466 1.340 . S
N465 C462 1.368 . S
N465 C466 1.321 . S
N465 Co468 2.135 . S
C466 N464 1.340 . S
C466 N465 1.321 . S
C466 H490 0.930 1_554 S
H467 C462 0.931 . S
Co468 N465 2.135 . S
Co468 N471 2.121 . S
Co468 O476 2.055 . S
Co468 O479 2.039 1_554 S
Co468 N482 2.140 . S
C469 O470 1.227 . S
C469 O479 1.265 . S
O470 C469 1.227 . S
N471 Co468 2.121 . S
N471 C473 1.375 1_554 S
N471 C474 1.313 . S
C472 C473 1.338 . S
C472 N475 1.377 1_556 S
C472 H492 0.930 . S
C473 N471 1.375 1_556 S
C473 C472 1.338 . S
C473 H477 0.931 . S
C474 N471 1.313 . S
C474 N475 1.344 . S
C474 H478 0.930 . S
N475 C472 1.377 1_554 S
N475 C474 1.344 . S
O476 Co468 2.055 . S
O476 C480 1.253 . S
H477 C473 0.931 . S
H478 C474 0.930 . S
O479 Co468 2.039 1_556 S
O479 C469 1.265 . S
C480 O476 1.253 . S
C480 O481 1.227 . S
O481 C480 1.227 . S
N482 Co468 2.140 . S
N482 C485 1.346 . S
N482 C486 1.345 . S
C483 C484 1.387 . S
C483 C487 1.391 . S
C484 C483 1.387 . S
C484 C485 1.369 . S
C484 H493 0.929 1_554 S
C485 N482 1.346 . S
C485 C484 1.369 . S
C485 H488 0.928 1_554 S
C486 N482 1.345 . S
C486 C487 1.371 . S
C486 H489 0.931 . S
C487 C483 1.391 . S
C487 C486 1.371 . S
C487 H494 0.930 . S
H488 C485 0.928 1_556 S
H489 C486 0.931 . S
H490 C466 0.930 1_556 S
H491 C463 0.930 . S
H492 C472 0.930 . S
H493 C484 0.929 1_556 S
H494 C487 0.930 . S
C495 C496 1.351 . S
C495 N498 1.368 . S
C495 H500 0.931 . S
C496 C495 1.351 . S
C496 N497 1.373 . S
C496 H524 0.930 . S
N497 C496 1.373 . S
N497 C499 1.340 . S
N498 C495 1.368 . S
N498 C499 1.321 . S
N498 Co501 2.135 . S
C499 N497 1.340 . S
C499 N498 1.321 . S
C499 H523 0.930 1_554 S
H500 C495 0.931 . S
Co501 N498 2.135 . S
Co501 N504 2.121 . S
Co501 O509 2.055 . S
Co501 O512 2.039 1_554 S
Co501 N515 2.140 . S
C502 O503 1.227 . S
C502 O512 1.265 . S
O503 C502 1.227 . S
N504 Co501 2.121 . S
N504 C506 1.375 1_554 S
N504 C507 1.313 . S
C505 C506 1.338 . S
C505 N508 1.377 1_556 S
C505 H525 0.930 . S
C506 N504 1.375 1_556 S
C506 C505 1.338 . S
C506 H510 0.931 . S
C507 N504 1.313 . S
C507 N508 1.344 . S
C507 H511 0.930 . S
N508 C505 1.377 1_554 S
N508 C507 1.344 . S
O509 Co501 2.055 . S
O509 C513 1.253 . S
H510 C506 0.931 . S
H511 C507 0.930 . S
O512 Co501 2.039 1_556 S
O512 C502 1.265 . S
C513 O509 1.253 . S
C513 O514 1.227 . S
O514 C513 1.227 . S
N515 Co501 2.140 . S
N515 C518 1.346 . S
N515 C519 1.345 . S
C516 C517 1.387 . S
C516 C520 1.391 . S
C517 C516 1.387 . S
C517 C518 1.369 . S
C517 H526 0.929 1_554 S
C518 N515 1.346 . S
C518 C517 1.369 . S
C518 H521 0.928 1_554 S
C519 N515 1.345 . S
C519 C520 1.371 . S
C519 H522 0.931 . S
C520 C516 1.391 . S
C520 C519 1.371 . S
C520 H527 0.930 . S
H521 C518 0.928 1_556 S
H522 C519 0.931 . S
H523 C499 0.930 1_556 S
H524 C496 0.930 . S
H525 C505 0.930 . S
H526 C517 0.929 1_556 S
H527 C520 0.930 . S
C528 C529 1.391 . S
C528 C530 1.394 . S
C528 H544 0.931 . S
C529 C528 1.391 . S
C529 C533 1.376 1_554 S
C530 C528 1.394 . S
C530 C531 1.369 . S
C530 C534 1.531 . S
C531 C530 1.369 . S
C531 C532 1.410 1_554 S
C531 C539 1.503 . S
C532 C531 1.410 1_556 S
C532 C533 1.392 . S
C532 C535 1.511 . S
C533 C529 1.376 1_556 S
C533 C532 1.392 . S
C533 H545 0.929 . S
C534 C530 1.531 . S
C534 H546 0.960 . S
C534 H547 0.962 . S
C534 H548 0.960 . S
C535 C532 1.511 . S
C535 H549 0.961 . S
C535 H550 0.961 . S
C535 H551 0.961 . S
C536 C537 1.370 1_556 S
C536 C538 1.363 . S
C536 H552 0.931 . S
C537 C536 1.370 1_554 S
C537 C541 1.408 . S
C538 C536 1.363 . S
C538 C539 1.370 1_556 S
C538 C542 1.524 . S
C539 C531 1.503 . S
C539 C538 1.370 1_554 S
C539 C540 1.403 . S
C540 C539 1.403 . S
C540 C541 1.404 . S
C540 C543 1.539 . S
C541 C537 1.408 . S
C541 C540 1.404 . S
C541 H553 0.930 . S
C542 C538 1.524 . S
C542 H554 0.956 . S
C542 H555 0.961 . S
C542 H556 0.961 . S
C543 C540 1.539 . S
C543 H557 0.958 . S
C543 H558 0.961 . S
C543 H559 0.960 . S
H544 C528 0.931 . S
H545 C533 0.929 . S
H546 C534 0.960 . S
H547 C534 0.962 . S
H548 C534 0.960 . S
H549 C535 0.961 . S
H550 C535 0.961 . S
H551 C535 0.961 . S
H552 C536 0.931 . S
H553 C541 0.930 . S
H554 C542 0.956 . S
H555 C542 0.961 . S
H556 C542 0.961 . S
H557 C543 0.958 . S
H558 C543 0.961 . S
H559 C543 0.960 . S
C560 C561 1.391 . S
C560 C562 1.394 . S
C560 H576 0.931 . S
C561 C560 1.391 . S
C561 C565 1.376 1_554 S
C562 C560 1.394 . S
C562 C563 1.369 . S
C562 C566 1.531 . S
C563 C562 1.369 . S
C563 C564 1.410 1_554 S
C563 C571 1.503 . S
C564 C563 1.410 1_556 S
C564 C565 1.392 . S
C564 C567 1.511 . S
C565 C561 1.376 1_556 S
C565 C564 1.392 . S
C565 H577 0.929 . S
C566 C562 1.531 . S
C566 H578 0.960 . S
C566 H579 0.962 . S
C566 H580 0.960 . S
C567 C564 1.511 . S
C567 H581 0.961 . S
C567 H582 0.961 . S
C567 H583 0.961 . S
C568 C569 1.370 . S
C568 C570 1.363 . S
C568 H584 0.931 . S
C569 C568 1.370 . S
C569 C573 1.408 1_554 S
C570 C568 1.363 . S
C570 C571 1.370 . S
C570 C574 1.524 . S
C571 C563 1.503 . S
C571 C570 1.370 . S
C571 C572 1.404 . S
C572 C571 1.404 . S
C572 C573 1.404 1_554 S
C572 C575 1.538 1_554 S
C573 C569 1.408 1_556 S
C573 C572 1.404 1_556 S
C573 H585 0.930 . S
C574 C570 1.524 . S
C574 H586 0.956 . S
C574 H587 0.961 . S
C574 H588 0.961 . S
C575 C572 1.538 1_556 S
C575 H589 0.958 1_556 S
C575 H590 0.961 . S
C575 H591 0.960 . S
H576 C560 0.931 . S
H577 C565 0.929 . S
H578 C566 0.960 . S
H579 C566 0.962 . S
H580 C566 0.960 . S
H581 C567 0.961 . S
H582 C567 0.961 . S
H583 C567 0.961 . S
H584 C568 0.931 . S
H585 C573 0.930 . S
H586 C574 0.956 . S
H587 C574 0.961 . S
H588 C574 0.961 . S
H589 C575 0.958 1_554 S
H590 C575 0.961 . S
H591 C575 0.960 . S
C592 C593 1.391 1_556 S
C592 C594 1.394 . S
C592 H608 0.931 . S
C593 C592 1.391 1_554 S
C593 C597 1.376 . S
C594 C592 1.394 . S
C594 C595 1.369 1_556 S
C594 C598 1.531 . S
C595 C594 1.369 1_554 S
C595 C596 1.410 . S
C595 C603 1.503 . S
C596 C595 1.410 . S
C596 C597 1.392 . S
C596 C599 1.511 . S
C597 C593 1.376 . S
C597 C596 1.392 . S
C597 H609 0.929 . S
C598 C594 1.531 . S
C598 H610 0.960 . S
C598 H611 0.962 . S
C598 H612 0.960 . S
C599 C596 1.511 . S
C599 H613 0.961 . S
C599 H614 0.961 . S
C599 H615 0.961 . S
C600 C601 1.370 . S
C600 C602 1.363 . S
C600 H616 0.931 . S
C601 C600 1.370 . S
C601 C605 1.408 1_554 S
C602 C600 1.363 . S
C602 C603 1.370 . S
C602 C606 1.524 . S
C603 C595 1.503 . S
C603 C602 1.370 . S
C603 C604 1.403 1_554 S
C604 C603 1.403 1_556 S
C604 C605 1.404 . S
C604 C607 1.539 . S
C605 C601 1.408 1_556 S
C605 C604 1.404 . S
C605 H617 0.930 . S
C606 C602 1.524 . S
C606 H618 0.956 . S
C606 H619 0.961 . S
C606 H620 0.961 . S
C607 C604 1.539 . S
C607 H621 0.958 . S
C607 H622 0.961 . S
C607 H623 0.960 . S
H608 C592 0.931 . S
H609 C597 0.929 . S
H610 C598 0.960 . S
H611 C598 0.962 . S
H612 C598 0.960 . S
H613 C599 0.961 . S
H614 C599 0.961 . S
H615 C599 0.961 . S
H616 C600 0.931 . S
H617 C605 0.930 . S
H618 C606 0.956 . S
H619 C606 0.961 . S
H620 C606 0.961 . S
H621 C607 0.958 . S
H622 C607 0.961 . S
H623 C607 0.960 . S
C624 C625 1.392 1_556 S
C624 C626 1.393 . S
C624 H640 0.930 . S
C625 C624 1.392 1_554 S
C625 C629 1.376 . S
C626 C624 1.393 . S
C626 C627 1.369 1_556 S
C626 C630 1.531 . S
C627 C626 1.369 1_554 S
C627 C628 1.410 . S
C627 C635 1.503 . S
C628 C627 1.410 . S
C628 C629 1.392 . S
C628 C631 1.511 . S
C629 C625 1.376 . S
C629 C628 1.392 . S
C629 H641 0.929 . S
C630 C626 1.531 . S
C630 H642 0.960 . S
C630 H643 0.962 1_556 S
C630 H644 0.960 . S
C631 C628 1.511 . S
C631 H645 0.961 . S
C631 H646 0.961 . S
C631 H647 0.961 . S
C632 C633 1.370 . S
C632 C634 1.363 . S
C632 H648 0.931 . S
C633 C632 1.370 . S
C633 C637 1.408 1_554 S
C634 C632 1.363 . S
C634 C635 1.370 . S
C634 C638 1.524 . S
C635 C627 1.503 . S
C635 C634 1.370 . S
C635 C636 1.403 1_554 S
C636 C635 1.403 1_556 S
C636 C637 1.404 . S
C636 C639 1.539 . S
C637 C633 1.408 1_556 S
C637 C636 1.404 . S
C637 H649 0.930 . S
C638 C634 1.524 . S
C638 H650 0.956 . S
C638 H651 0.961 . S
C638 H652 0.961 . S
C639 C636 1.539 . S
C639 H653 0.958 . S
C639 H654 0.961 . S
C639 H655 0.960 . S
H640 C624 0.930 . S
H641 C629 0.929 . S
H642 C630 0.960 . S
H643 C630 0.962 1_554 S
H644 C630 0.960 . S
H645 C631 0.961 . S
H646 C631 0.961 . S
H647 C631 0.961 . S
H648 C632 0.931 . S
H649 C637 0.930 . S
H650 C638 0.956 . S
H651 C638 0.961 . S
H652 C638 0.961 . S
H653 C639 0.958 . S
H654 C639 0.961 . S
H655 C639 0.960 . S
C656 C657 1.391 . S
C656 C658 1.394 . S
C656 H672 0.931 . S
C657 C656 1.391 . S
C657 C661 1.376 . S
C658 C656 1.394 . S
C658 C659 1.369 . S
C658 C662 1.531 . S
C659 C658 1.369 . S
C659 C660 1.410 . S
C659 C667 1.503 . S
C660 C659 1.410 . S
C660 C661 1.392 . S
C660 C663 1.511 . S
C661 C657 1.376 . S
C661 C660 1.392 . S
C661 H673 0.929 . S
C662 C658 1.531 . S
C662 H674 0.960 . S
C662 H675 0.962 . S
C662 H676 0.960 . S
C663 C660 1.511 . S
C663 H677 0.961 . S
C663 H678 0.961 . S
C663 H679 0.961 . S
C664 C665 1.370 . S
C664 C666 1.363 . S
C664 H680 0.931 . S
C665 C664 1.370 . S
C665 C669 1.408 . S
C666 C664 1.363 . S
C666 C667 1.370 . S
C666 C670 1.524 . S
C667 C659 1.503 . S
C667 C666 1.370 . S
C667 C668 1.403 . S
C668 C667 1.403 . S
C668 C669 1.404 . S
C668 C671 1.539 . S
C669 C665 1.408 . S
C669 C668 1.404 . S
C669 H681 0.930 . S
C670 C666 1.524 . S
C670 H682 0.956 . S
C670 H683 0.961 . S
C670 H684 0.961 . S
C671 C668 1.539 . S
C671 H685 0.958 . S
C671 H686 0.961 . S
C671 H687 0.960 . S
H672 C656 0.931 . S
H673 C661 0.929 . S
H674 C662 0.960 . S
H675 C662 0.962 . S
H676 C662 0.960 . S
H677 C663 0.961 . S
H678 C663 0.961 . S
H679 C663 0.961 . S
H680 C664 0.931 . S
H681 C669 0.930 . S
H682 C670 0.956 . S
H683 C670 0.961 . S
H684 C670 0.961 . S
H685 C671 0.958 . S
H686 C671 0.961 . S
H687 C671 0.960 . S
C688 C689 1.391 . S
C688 C690 1.394 . S
C688 H704 0.931 . S
C689 C688 1.391 . S
C689 C693 1.376 . S
C690 C688 1.394 . S
C690 C691 1.369 . S
C690 C694 1.531 . S
C691 C690 1.369 . S
C691 C692 1.410 . S
C691 C699 1.503 . S
C692 C691 1.410 . S
C692 C693 1.392 . S
C692 C695 1.511 . S
C693 C689 1.376 . S
C693 C692 1.392 . S
C693 H705 0.929 . S
C694 C690 1.531 . S
C694 H706 0.960 . S
C694 H707 0.962 . S
C694 H708 0.960 . S
C695 C692 1.511 . S
C695 H709 0.961 . S
C695 H710 0.961 . S
C695 H711 0.961 . S
C696 C697 1.370 . S
C696 C698 1.363 . S
C696 H712 0.931 . S
C697 C696 1.370 . S
C697 C701 1.408 . S
C698 C696 1.363 . S
C698 C699 1.370 . S
C698 C702 1.524 . S
C699 C691 1.503 . S
C699 C698 1.370 . S
C699 C700 1.403 . S
C700 C699 1.403 . S
C700 C701 1.404 . S
C700 C703 1.539 . S
C701 C697 1.408 . S
C701 C700 1.404 . S
C701 H713 0.930 . S
C702 C698 1.524 . S
C702 H714 0.956 . S
C702 H715 0.961 . S
C702 H716 0.961 . S
C703 C700 1.539 . S
C703 H717 0.958 . S
C703 H718 0.961 . S
C703 H719 0.960 . S
H704 C688 0.931 . S
H705 C693 0.929 . S
H706 C694 0.960 . S
H707 C694 0.962 . S
H708 C694 0.960 . S
H709 C695 0.961 . S
H710 C695 0.961 . S
H711 C695 0.961 . S
H712 C696 0.931 . S
H713 C701 0.930 . S
H714 C702 0.956 . S
H715 C702 0.961 . S
H716 C702 0.961 . S
H717 C703 0.958 . S
H718 C703 0.961 . S
H719 C703 0.960 . S
C720 C721 1.391 . S
C720 C722 1.394 . S
C720 H736 0.931 . S
C721 C720 1.391 . S
C721 C725 1.376 . S
C722 C720 1.394 . S
C722 C723 1.369 . S
C722 C726 1.531 . S
C723 C722 1.369 . S
C723 C724 1.410 . S
C723 C731 1.503 . S
C724 C723 1.410 . S
C724 C725 1.392 . S
C724 C727 1.511 . S
C725 C721 1.376 . S
C725 C724 1.392 . S
C725 H737 0.929 . S
C726 C722 1.531 . S
C726 H738 0.960 . S
C726 H739 0.962 . S
C726 H740 0.960 . S
C727 C724 1.511 . S
C727 H741 0.961 . S
C727 H742 0.961 . S
C727 H743 0.961 . S
C728 C729 1.370 . S
C728 C730 1.363 . S
C728 H744 0.931 . S
C729 C728 1.370 . S
C729 C733 1.408 . S
C730 C728 1.363 . S
C730 C731 1.370 . S
C730 C734 1.524 . S
C731 C723 1.503 . S
C731 C730 1.370 . S
C731 C732 1.403 . S
C732 C731 1.403 . S
C732 C733 1.404 . S
C732 C735 1.539 . S
C733 C729 1.408 . S
C733 C732 1.404 . S
C733 H745 0.930 . S
C734 C730 1.524 . S
C734 H746 0.956 . S
C734 H747 0.961 . S
C734 H748 0.961 . S
C735 C732 1.539 . S
C735 H749 0.958 . S
C735 H750 0.961 . S
C735 H751 0.960 . S
H736 C720 0.931 . S
H737 C725 0.929 . S
H738 C726 0.960 . S
H739 C726 0.962 . S
H740 C726 0.960 . S
H741 C727 0.961 . S
H742 C727 0.961 . S
H743 C727 0.961 . S
H744 C728 0.931 . S
H745 C733 0.930 . S
H746 C734 0.956 . S
H747 C734 0.961 . S
H748 C734 0.961 . S
H749 C735 0.958 . S
H750 C735 0.961 . S
H751 C735 0.960 . S
C752 C753 1.391 . S
C752 C754 1.394 . S
C752 H768 0.931 . S
C753 C752 1.391 . S
C753 C757 1.376 . S
C754 C752 1.394 . S
C754 C755 1.369 . S
C754 C758 1.531 . S
C755 C754 1.369 . S
C755 C756 1.410 . S
C755 C763 1.503 . S
C756 C755 1.410 . S
C756 C757 1.392 . S
C756 C759 1.511 . S
C757 C753 1.376 . S
C757 C756 1.392 . S
C757 H769 0.929 . S
C758 C754 1.531 . S
C758 H770 0.960 . S
C758 H771 0.962 . S
C758 H772 0.960 . S
C759 C756 1.511 . S
C759 H773 0.961 . S
C759 H774 0.961 . S
C759 H775 0.961 . S
C760 C761 1.370 . S
C760 C762 1.363 . S
C760 H776 0.931 . S
C761 C760 1.370 . S
C761 C765 1.408 . S
C762 C760 1.363 . S
C762 C763 1.370 . S
C762 C766 1.524 . S
C763 C755 1.503 . S
C763 C762 1.370 . S
C763 C764 1.403 . S
C764 C763 1.403 . S
C764 C765 1.404 . S
C764 C767 1.539 . S
C765 C761 1.408 . S
C765 C764 1.404 . S
C765 H777 0.930 . S
C766 C762 1.524 . S
C766 H778 0.956 . S
C766 H779 0.961 . S
C766 H780 0.961 . S
C767 C764 1.539 . S
C767 H781 0.958 . S
C767 H782 0.961 . S
C767 H783 0.960 . S
H768 C752 0.931 . S
H769 C757 0.929 . S
H770 C758 0.960 . S
H771 C758 0.962 . S
H772 C758 0.960 . S
H773 C759 0.961 . S
H774 C759 0.961 . S
H775 C759 0.961 . S
H776 C760 0.931 . S
H777 C765 0.930 . S
H778 C766 0.956 . S
H779 C766 0.961 . S
H780 C766 0.961 . S
H781 C767 0.958 . S
H782 C767 0.961 . S
H783 C767 0.960 . S
C784 C785 1.391 . S
C784 C786 1.394 . S
C784 H800 0.931 . S
C785 C784 1.391 . S
C785 C789 1.376 1_556 S
C786 C784 1.394 . S
C786 C787 1.369 . S
C786 C790 1.531 . S
C787 C786 1.369 . S
C787 C788 1.410 1_556 S
C787 C795 1.503 . S
C788 C787 1.410 1_554 S
C788 C789 1.392 . S
C788 C791 1.511 . S
C789 C785 1.376 1_554 S
C789 C788 1.392 . S
C789 H801 0.929 . S
C790 C786 1.531 . S
C790 H802 0.960 . S
C790 H803 0.962 . S
C790 H804 0.960 . S
C791 C788 1.511 . S
C791 H805 0.961 . S
C791 H806 0.961 . S
C791 H807 0.961 . S
C792 C793 1.370 . S
C792 C794 1.363 . S
C792 H808 0.931 . S
C793 C792 1.370 . S
C793 C797 1.408 1_554 S
C794 C792 1.363 . S
C794 C795 1.370 1_554 S
C794 C798 1.524 . S
C795 C787 1.503 . S
C795 C794 1.370 1_556 S
C795 C796 1.403 . S
C796 C795 1.403 . S
C796 C797 1.404 . S
C796 C799 1.539 . S
C797 C793 1.408 1_556 S
C797 C796 1.404 . S
C797 H809 0.930 . S
C798 C794 1.524 . S
C798 H810 0.956 . S
C798 H811 0.961 . S
C798 H812 0.961 . S
C799 C796 1.539 . S
C799 H813 0.958 . S
C799 H814 0.961 . S
C799 H815 0.960 . S
H800 C784 0.931 . S
H801 C789 0.929 . S
H802 C790 0.960 . S
H803 C790 0.962 . S
H804 C790 0.960 . S
H805 C791 0.961 . S
H806 C791 0.961 . S
H807 C791 0.961 . S
H808 C792 0.931 . S
H809 C797 0.930 . S
H810 C798 0.956 . S
H811 C798 0.961 . S
H812 C798 0.961 . S
H813 C799 0.958 . S
H814 C799 0.961 . S
H815 C799 0.960 . S
C816 C817 1.391 . S
C816 C818 1.394 . S
C816 H832 0.931 . S
C817 C816 1.391 . S
C817 C821 1.376 1_556 S
C818 C816 1.394 . S
C818 C819 1.369 . S
C818 C822 1.531 . S
C819 C818 1.369 . S
C819 C820 1.410 1_556 S
C819 C827 1.503 . S
C820 C819 1.410 1_554 S
C820 C821 1.392 . S
C820 C823 1.511 . S
C821 C817 1.376 1_554 S
C821 C820 1.392 . S
C821 H833 0.929 . S
C822 C818 1.531 . S
C822 H834 0.960 . S
C822 H835 0.962 . S
C822 H836 0.960 . S
C823 C820 1.511 . S
C823 H837 0.961 . S
C823 H838 0.961 . S
C823 H839 0.961 1_554 S
C824 C825 1.370 . S
C824 C826 1.363 . S
C824 H840 0.931 . S
C825 C824 1.370 . S
C825 C829 1.408 1_554 S
C826 C824 1.363 . S
C826 C827 1.370 1_554 S
C826 C830 1.524 . S
C827 C819 1.503 . S
C827 C826 1.370 1_556 S
C827 C828 1.403 . S
C828 C827 1.403 . S
C828 C829 1.404 . S
C828 C831 1.539 . S
C829 C825 1.408 1_556 S
C829 C828 1.404 . S
C829 H841 0.930 . S
C830 C826 1.524 . S
C830 H842 0.956 . S
C830 H843 0.961 . S
C830 H844 0.961 . S
C831 C828 1.539 . S
C831 H845 0.958 . S
C831 H846 0.961 . S
C831 H847 0.960 . S
H832 C816 0.931 . S
H833 C821 0.929 . S
H834 C822 0.960 . S
H835 C822 0.962 . S
H836 C822 0.960 . S
H837 C823 0.961 . S
H838 C823 0.961 . S
H839 C823 0.961 1_556 S
H840 C824 0.931 . S
H841 C829 0.930 . S
H842 C830 0.956 . S
H843 C830 0.961 . S
H844 C830 0.961 . S
H845 C831 0.958 . S
H846 C831 0.961 . S
H847 C831 0.960 . S
C848 C849 1.391 1_556 S
C848 C850 1.394 . S
C848 H864 0.931 . S
C849 C848 1.391 1_554 S
C849 C853 1.376 . S
C850 C848 1.394 . S
C850 C851 1.369 . S
C850 C854 1.531 . S
C851 C850 1.369 . S
C851 C852 1.405 1_556 S
C851 C859 1.503 . S
C852 C851 1.405 1_554 S
C852 C853 1.396 . S
C852 C855 1.513 . S
C853 C849 1.376 . S
C853 C852 1.396 . S
C853 H865 0.929 . S
C854 C850 1.531 . S
C854 H866 0.960 . S
C854 H867 0.962 1_556 S
C854 H868 0.960 . S
C855 C852 1.513 . S
C855 H869 0.961 . S
C855 H870 0.961 . S
C855 H871 0.961 1_554 S
C856 C857 1.370 1_554 S
C856 C858 1.363 . S
C856 H872 0.931 . S
C857 C856 1.370 1_556 S
C857 C861 1.408 . S
C858 C856 1.363 . S
C858 C859 1.370 1_554 S
C858 C862 1.524 . S
C859 C851 1.503 . S
C859 C858 1.370 1_556 S
C859 C860 1.403 . S
C860 C859 1.403 . S
C860 C861 1.404 . S
C860 C863 1.539 . S
C861 C857 1.408 . S
C861 C860 1.404 . S
C861 H873 0.930 . S
C862 C858 1.524 . S
C862 H874 0.956 . S
C862 H875 0.961 . S
C862 H876 0.961 . S
C863 C860 1.539 . S
C863 H877 0.958 . S
C863 H878 0.961 . S
C863 H879 0.960 . S
H864 C848 0.931 . S
H865 C853 0.929 . S
H866 C854 0.960 . S
H867 C854 0.962 1_554 S
H868 C854 0.960 . S
H869 C855 0.961 . S
H870 C855 0.961 . S
H871 C855 0.961 1_556 S
H872 C856 0.931 . S
H873 C861 0.930 . S
H874 C862 0.956 . S
H875 C862 0.961 . S
H876 C862 0.961 . S
H877 C863 0.958 . S
H878 C863 0.961 . S
H879 C863 0.960 . S
C880 C881 1.391 . S
C880 C882 1.394 . S
C880 H896 0.931 . S
C881 C880 1.391 . S
C881 C885 1.376 . S
C882 C880 1.394 . S
C882 C883 1.369 . S
C882 C886 1.531 . S
C883 C882 1.369 . S
C883 C884 1.410 . S
C883 C891 1.503 . S
C884 C883 1.410 . S
C884 C885 1.392 . S
C884 C887 1.511 . S
C885 C881 1.376 . S
C885 C884 1.392 . S
C885 H897 0.929 . S
C886 C882 1.531 . S
C886 H898 0.960 . S
C886 H899 0.962 1_554 S
C886 H900 0.960 . S
C887 C884 1.511 . S
C887 H901 0.961 . S
C887 H902 0.961 . S
C887 H903 0.961 . S
C888 C889 1.370 . S
C888 C890 1.363 . S
C888 H904 0.931 . S
C889 C888 1.370 . S
C889 C893 1.408 1_556 S
C890 C888 1.363 . S
C890 C891 1.370 1_556 S
C890 C894 1.524 . S
C891 C883 1.503 . S
C891 C890 1.370 1_554 S
C891 C892 1.403 . S
C892 C891 1.403 . S
C892 C893 1.404 . S
C892 C895 1.539 . S
C893 C889 1.408 1_554 S
C893 C892 1.404 . S
C893 H905 0.930 . S
C894 C890 1.524 . S
C894 H906 0.956 . S
C894 H907 0.961 . S
C894 H908 0.961 . S
C895 C892 1.539 . S
C895 H909 0.958 . S
C895 H910 0.961 . S
C895 H911 0.960 . S
H896 C880 0.931 . S
H897 C885 0.929 . S
H898 C886 0.960 . S
H899 C886 0.962 1_556 S
H900 C886 0.960 . S
H901 C887 0.961 . S
H902 C887 0.961 . S
H903 C887 0.961 . S
H904 C888 0.931 . S
H905 C893 0.930 . S
H906 C894 0.956 . S
H907 C894 0.961 . S
H908 C894 0.961 . S
H909 C895 0.958 . S
H910 C895 0.961 . S
H911 C895 0.960 . S
C912 C913 1.391 . S
C912 C914 1.394 . S
C912 H928 0.931 . S
C913 C912 1.391 . S
C913 C917 1.376 . S
C914 C912 1.394 . S
C914 C915 1.369 . S
C914 C918 1.531 . S
C915 C914 1.369 . S
C915 C916 1.410 . S
C915 C923 1.503 . S
C916 C915 1.410 . S
C916 C917 1.392 . S
C916 C919 1.511 . S
C917 C913 1.376 . S
C917 C916 1.392 . S
C917 H929 0.929 . S
C918 C914 1.531 . S
C918 H930 0.960 . S
C918 H931 0.962 . S
C918 H932 0.960 . S
C919 C916 1.511 . S
C919 H933 0.961 . S
C919 H934 0.961 . S
C919 H935 0.961 . S
C920 C921 1.370 . S
C920 C922 1.363 . S
C920 H936 0.931 . S
C921 C920 1.370 . S
C921 C925 1.408 . S
C922 C920 1.363 . S
C922 C923 1.370 . S
C922 C926 1.524 . S
C923 C915 1.503 . S
C923 C922 1.370 . S
C923 C924 1.403 . S
C924 C923 1.403 . S
C924 C925 1.404 . S
C924 C927 1.539 . S
C925 C921 1.408 . S
C925 C924 1.404 . S
C925 H937 0.930 . S
C926 C922 1.524 . S
C926 H938 0.956 . S
C926 H939 0.961 . S
C926 H940 0.961 . S
C927 C924 1.539 . S
C927 H941 0.958 . S
C927 H942 0.961 . S
C927 H943 0.960 . S
H928 C912 0.931 . S
H929 C917 0.929 . S
H930 C918 0.960 . S
H931 C918 0.962 . S
H932 C918 0.960 . S
H933 C919 0.961 . S
H934 C919 0.961 . S
H935 C919 0.961 . S
H936 C920 0.931 . S
H937 C925 0.930 . S
H938 C926 0.956 . S
H939 C926 0.961 . S
H940 C926 0.961 . S
H941 C927 0.958 . S
H942 C927 0.961 . S
H943 C927 0.960 . S
C944 C945 1.391 . S
C944 C946 1.394 . S
C944 H960 0.931 . S
C945 C944 1.391 . S
C945 C949 1.376 . S
C946 C944 1.394 . S
C946 C947 1.369 . S
C946 C950 1.531 . S
C947 C946 1.369 . S
C947 C948 1.410 . S
C947 C955 1.503 . S
C948 C947 1.410 . S
C948 C949 1.392 . S
C948 C951 1.511 . S
C949 C945 1.376 . S
C949 C948 1.392 . S
C949 H961 0.929 . S
C950 C946 1.531 . S
C950 H962 0.960 . S
C950 H963 0.962 . S
C950 H964 0.960 . S
C951 C948 1.511 . S
C951 H965 0.961 . S
C951 H966 0.961 . S
C951 H967 0.961 . S
C952 C953 1.370 . S
C952 C954 1.363 . S
C952 H968 0.931 . S
C953 C952 1.370 . S
C953 C957 1.408 . S
C954 C952 1.363 . S
C954 C955 1.370 . S
C954 C958 1.524 . S
C955 C947 1.503 . S
C955 C954 1.370 . S
C955 C956 1.403 . S
C956 C955 1.403 . S
C956 C957 1.404 . S
C956 C959 1.539 . S
C957 C953 1.408 . S
C957 C956 1.404 . S
C957 H969 0.930 . S
C958 C954 1.524 . S
C958 H970 0.956 . S
C958 H971 0.961 . S
C958 H972 0.961 . S
C959 C956 1.539 . S
C959 H973 0.958 . S
C959 H974 0.961 . S
C959 H975 0.960 . S
H960 C944 0.931 . S
H961 C949 0.929 . S
H962 C950 0.960 . S
H963 C950 0.962 . S
H964 C950 0.960 . S
H965 C951 0.961 . S
H966 C951 0.961 . S
H967 C951 0.961 . S
H968 C952 0.931 . S
H969 C957 0.930 . S
H970 C958 0.956 . S
H971 C958 0.961 . S
H972 C958 0.961 . S
H973 C959 0.958 . S
H974 C959 0.961 . S
H975 C959 0.960 . S
C976 C977 1.391 . S
C976 C978 1.394 . S
C976 H992 0.931 . S
C977 C976 1.391 . S
C977 C981 1.376 . S
C978 C976 1.394 . S
C978 C979 1.369 . S
C978 C982 1.531 . S
C979 C978 1.369 . S
C979 C980 1.410 . S
C979 C987 1.503 . S
C980 C979 1.410 . S
C980 C981 1.392 . S
C980 C983 1.511 . S
C981 C977 1.376 . S
C981 C980 1.392 . S
C981 H993 0.929 . S
C982 C978 1.531 . S
C982 H994 0.960 . S
C982 H995 0.962 . S
C982 H996 0.960 . S
C983 C980 1.511 . S
C983 H997 0.961 . S
C983 H998 0.961 . S
C983 H999 0.961 . S
C984 C985 1.370 . S
C984 C986 1.363 . S
C984 H1000 0.931 . S
C985 C984 1.370 . S
C985 C989 1.408 . S
C986 C984 1.363 . S
C986 C987 1.370 . S
C986 C990 1.524 . S
C987 C979 1.503 . S
C987 C986 1.370 . S
C987 C988 1.403 . S
C988 C987 1.403 . S
C988 C989 1.404 . S
C988 C991 1.539 . S
C989 C985 1.408 . S
C989 C988 1.404 . S
C989 H1001 0.930 . S
C990 C986 1.524 . S
C990 H1002 0.956 . S
C990 H1003 0.961 . S
C990 H1004 0.961 . S
C991 C988 1.539 . S
C991 H1005 0.958 . S
C991 H1006 0.961 . S
C991 H1007 0.960 . S
H992 C976 0.931 . S
H993 C981 0.929 . S
H994 C982 0.960 . S
H995 C982 0.962 . S
H996 C982 0.960 . S
H997 C983 0.961 . S
H998 C983 0.961 . S
H999 C983 0.961 . S
H1000 C984 0.931 . S
H1001 C989 0.930 . S
H1002 C990 0.956 . S
H1003 C990 0.961 . S
H1004 C990 0.961 . S
H1005 C991 0.958 . S
H1006 C991 0.961 . S
H1007 C991 0.960 . S
C1008 C1009 1.391 . S
C1008 C1010 1.394 . S
C1008 H1024 0.931 . S
C1009 C1008 1.391 . S
C1009 C1013 1.376 . S
C1010 C1008 1.394 . S
C1010 C1011 1.369 . S
C1010 C1014 1.531 . S
C1011 C1010 1.369 . S
C1011 C1012 1.410 . S
C1011 C1019 1.503 . S
C1012 C1011 1.410 . S
C1012 C1013 1.392 . S
C1012 C1015 1.511 . S
C1013 C1009 1.376 . S
C1013 C1012 1.392 . S
C1013 H1025 0.929 . S
C1014 C1010 1.531 . S
C1014 H1026 0.960 . S
C1014 H1027 0.962 . S
C1014 H1028 0.960 . S
C1015 C1012 1.511 . S
C1015 H1029 0.961 . S
C1015 H1030 0.961 . S
C1015 H1031 0.961 . S
C1016 C1017 1.370 . S
C1016 C1018 1.363 . S
C1016 H1032 0.931 . S
C1017 C1016 1.370 . S
C1017 C1021 1.408 . S
C1018 C1016 1.363 . S
C1018 C1019 1.370 . S
C1018 C1022 1.524 . S
C1019 C1011 1.503 . S
C1019 C1018 1.370 . S
C1019 C1020 1.403 . S
C1020 C1019 1.403 . S
C1020 C1021 1.404 . S
C1020 C1023 1.539 . S
C1021 C1017 1.408 . S
C1021 C1020 1.404 . S
C1021 H1033 0.930 . S
C1022 C1018 1.524 . S
C1022 H1034 0.956 . S
C1022 H1035 0.961 . S
C1022 H1036 0.961 . S
C1023 C1020 1.539 . S
C1023 H1037 0.958 . S
C1023 H1038 0.961 . S
C1023 H1039 0.960 . S
H1024 C1008 0.931 . S
H1025 C1013 0.929 . S
H1026 C1014 0.960 . S
H1027 C1014 0.962 . S
H1028 C1014 0.960 . S
H1029 C1015 0.961 . S
H1030 C1015 0.961 . S
H1031 C1015 0.961 . S
H1032 C1016 0.931 . S
H1033 C1021 0.930 . S
H1034 C1022 0.956 . S
H1035 C1022 0.961 . S
H1036 C1022 0.961 . S
H1037 C1023 0.958 . S
H1038 C1023 0.961 . S
H1039 C1023 0.960 . S
C1040 C1041 1.391 . S
C1040 C1042 1.394 . S
C1040 H1056 0.931 . S
C1041 C1040 1.391 . S
C1041 C1045 1.376 . S
C1042 C1040 1.394 . S
C1042 C1043 1.369 . S
C1042 C1046 1.531 . S
C1043 C1042 1.369 . S
C1043 C1044 1.410 . S
C1043 C1051 1.503 . S
C1044 C1043 1.410 . S
C1044 C1045 1.392 . S
C1044 C1047 1.511 . S
C1045 C1041 1.376 . S
C1045 C1044 1.392 . S
C1045 H1057 0.929 . S
C1046 C1042 1.531 . S
C1046 H1058 0.960 . S
C1046 H1059 0.962 . S
C1046 H1060 0.960 . S
C1047 C1044 1.511 . S
C1047 H1061 0.961 . S
C1047 H1062 0.961 . S
C1047 H1063 0.961 . S
C1048 C1049 1.370 . S
C1048 C1050 1.363 . S
C1048 H1064 0.931 . S
C1049 C1048 1.370 . S
C1049 C1053 1.408 . S
C1050 C1048 1.363 . S
C1050 C1051 1.370 . S
C1050 C1054 1.524 . S
C1051 C1043 1.503 . S
C1051 C1050 1.370 . S
C1051 C1052 1.403 . S
C1052 C1051 1.403 . S
C1052 C1053 1.404 . S
C1052 C1055 1.539 . S
C1053 C1049 1.408 . S
C1053 C1052 1.404 . S
C1053 H1065 0.930 . S
C1054 C1050 1.524 . S
C1054 H1066 0.956 . S
C1054 H1067 0.961 . S
C1054 H1068 0.961 . S
C1055 C1052 1.539 . S
C1055 H1069 0.958 . S
C1055 H1070 0.961 . S
C1055 H1071 0.960 . S
H1056 C1040 0.931 . S
H1057 C1045 0.929 . S
H1058 C1046 0.960 . S
H1059 C1046 0.962 . S
H1060 C1046 0.960 . S
H1061 C1047 0.961 . S
H1062 C1047 0.961 . S
H1063 C1047 0.961 . S
H1064 C1048 0.931 . S
H1065 C1053 0.930 . S
H1066 C1054 0.956 . S
H1067 C1054 0.961 . S
H1068 C1054 0.961 . S
H1069 C1055 0.958 . S
H1070 C1055 0.961 . S
H1071 C1055 0.960 . S
C1072 C1073 1.391 . S
C1072 C1074 1.394 . S
C1072 H1088 0.931 . S
C1073 C1072 1.391 . S
C1073 C1077 1.376 . S
C1074 C1072 1.394 . S
C1074 C1075 1.369 . S
C1074 C1078 1.531 . S
C1075 C1074 1.369 . S
C1075 C1076 1.410 . S
C1075 C1083 1.503 . S
C1076 C1075 1.410 . S
C1076 C1077 1.392 . S
C1076 C1079 1.511 . S
C1077 C1073 1.376 . S
C1077 C1076 1.392 . S
C1077 H1089 0.929 . S
C1078 C1074 1.531 . S
C1078 H1090 0.960 . S
C1078 H1091 0.962 . S
C1078 H1092 0.960 . S
C1079 C1076 1.511 . S
C1079 H1093 0.961 . S
C1079 H1094 0.961 . S
C1079 H1095 0.961 . S
C1080 C1081 1.370 . S
C1080 C1082 1.363 . S
C1080 H1096 0.931 . S
C1081 C1080 1.370 . S
C1081 C1085 1.408 . S
C1082 C1080 1.363 . S
C1082 C1083 1.370 . S
C1082 C1086 1.524 . S
C1083 C1075 1.503 . S
C1083 C1082 1.370 . S
C1083 C1084 1.403 . S
C1084 C1083 1.403 . S
C1084 C1085 1.404 . S
C1084 C1087 1.539 . S
C1085 C1081 1.408 . S
C1085 C1084 1.404 . S
C1085 H1097 0.930 . S
C1086 C1082 1.524 . S
C1086 H1098 0.956 . S
C1086 H1099 0.961 . S
C1086 H1100 0.961 . S
C1087 C1084 1.539 . S
C1087 H1101 0.958 . S
C1087 H1102 0.961 . S
C1087 H1103 0.960 . S
H1088 C1072 0.931 . S
H1089 C1077 0.929 . S
H1090 C1078 0.960 . S
H1091 C1078 0.962 . S
H1092 C1078 0.960 . S
H1093 C1079 0.961 . S
H1094 C1079 0.961 . S
H1095 C1079 0.961 . S
H1096 C1080 0.931 . S
H1097 C1085 0.930 . S
H1098 C1086 0.956 . S
H1099 C1086 0.961 . S
H1100 C1086 0.961 . S
H1101 C1087 0.958 . S
H1102 C1087 0.961 . S
H1103 C1087 0.960 . S
C1104 C1105 1.391 . S
C1104 C1106 1.394 . S
C1104 H1120 0.931 . S
C1105 C1104 1.391 . S
C1105 C1109 1.376 . S
C1106 C1104 1.394 . S
C1106 C1107 1.369 . S
C1106 C1110 1.531 . S
C1107 C1106 1.369 . S
C1107 C1108 1.410 . S
C1107 C1115 1.503 . S
C1108 C1107 1.410 . S
C1108 C1109 1.392 . S
C1108 C1111 1.511 . S
C1109 C1105 1.376 . S
C1109 C1108 1.392 . S
C1109 H1121 0.929 . S
C1110 C1106 1.531 . S
C1110 H1122 0.960 . S
C1110 H1123 0.962 . S
C1110 H1124 0.960 . S
C1111 C1108 1.511 . S
C1111 H1125 0.961 . S
C1111 H1126 0.961 . S
C1111 H1127 0.961 . S
C1112 C1113 1.370 . S
C1112 C1114 1.363 . S
C1112 H1128 0.931 . S
C1113 C1112 1.370 . S
C1113 C1117 1.408 . S
C1114 C1112 1.363 . S
C1114 C1115 1.370 . S
C1114 C1118 1.524 . S
C1115 C1107 1.503 . S
C1115 C1114 1.370 . S
C1115 C1116 1.403 . S
C1116 C1115 1.403 . S
C1116 C1117 1.404 . S
C1116 C1119 1.539 . S
C1117 C1113 1.408 . S
C1117 C1116 1.404 . S
C1117 H1129 0.930 . S
C1118 C1114 1.524 . S
C1118 H1130 0.956 . S
C1118 H1131 0.961 . S
C1118 H1132 0.961 . S
C1119 C1116 1.539 . S
C1119 H1133 0.958 . S
C1119 H1134 0.961 . S
C1119 H1135 0.960 . S
H1120 C1104 0.931 . S
H1121 C1109 0.929 . S
H1122 C1110 0.960 . S
H1123 C1110 0.962 . S
H1124 C1110 0.960 . S
H1125 C1111 0.961 . S
H1126 C1111 0.961 . S
H1127 C1111 0.961 . S
H1128 C1112 0.931 . S
H1129 C1117 0.930 . S
H1130 C1118 0.956 . S
H1131 C1118 0.961 . S
H1132 C1118 0.961 . S
H1133 C1119 0.958 . S
H1134 C1119 0.961 . S
H1135 C1119 0.960 . S
C1136 C1137 1.391 . S
C1136 C1138 1.394 . S
C1136 H1152 0.931 . S
C1137 C1136 1.391 . S
C1137 C1141 1.376 . S
C1138 C1136 1.394 . S
C1138 C1139 1.369 . S
C1138 C1142 1.531 . S
C1139 C1138 1.369 . S
C1139 C1140 1.410 . S
C1139 C1147 1.503 . S
C1140 C1139 1.410 . S
C1140 C1141 1.392 . S
C1140 C1143 1.511 . S
C1141 C1137 1.376 . S
C1141 C1140 1.392 . S
C1141 H1153 0.929 . S
C1142 C1138 1.531 . S
C1142 H1154 0.960 . S
C1142 H1155 0.962 . S
C1142 H1156 0.960 . S
C1143 C1140 1.511 . S
C1143 H1157 0.961 . S
C1143 H1158 0.961 . S
C1143 H1159 0.961 . S
C1144 C1145 1.370 . S
C1144 C1146 1.363 . S
C1144 H1160 0.931 . S
C1145 C1144 1.370 . S
C1145 C1149 1.408 . S
C1146 C1144 1.363 . S
C1146 C1147 1.370 . S
C1146 C1150 1.524 . S
C1147 C1139 1.503 . S
C1147 C1146 1.370 . S
C1147 C1148 1.403 . S
C1148 C1147 1.403 . S
C1148 C1149 1.404 . S
C1148 C1151 1.539 . S
C1149 C1145 1.408 . S
C1149 C1148 1.404 . S
C1149 H1161 0.930 . S
C1150 C1146 1.524 . S
C1150 H1162 0.956 . S
C1150 H1163 0.961 . S
C1150 H1164 0.961 . S
C1151 C1148 1.539 . S
C1151 H1165 0.958 . S
C1151 H1166 0.961 . S
C1151 H1167 0.960 . S
H1152 C1136 0.931 . S
H1153 C1141 0.929 . S
H1154 C1142 0.960 . S
H1155 C1142 0.962 . S
H1156 C1142 0.960 . S
H1157 C1143 0.961 . S
H1158 C1143 0.961 . S
H1159 C1143 0.961 . S
H1160 C1144 0.931 . S
H1161 C1149 0.930 . S
H1162 C1150 0.956 . S
H1163 C1150 0.961 . S
H1164 C1150 0.961 . S
H1165 C1151 0.958 . S
H1166 C1151 0.961 . S
H1167 C1151 0.960 . S
C1168 C1169 1.391 . S
C1168 C1170 1.394 . S
C1168 H1184 0.931 1_554 S
C1169 C1168 1.391 . S
C1169 C1173 1.376 . S
C1170 C1168 1.394 . S
C1170 C1171 1.369 . S
C1170 C1174 1.531 1_554 S
C1171 C1170 1.369 . S
C1171 C1172 1.410 . S
C1171 C1179 1.503 . S
C1172 C1171 1.410 . S
C1172 C1173 1.392 . S
C1172 C1175 1.511 . S
C1173 C1169 1.376 . S
C1173 C1172 1.392 . S
C1173 H1185 0.929 . S
C1174 C1170 1.531 1_556 S
C1174 H1186 0.960 . S
C1174 H1187 0.962 . S
C1174 H1188 0.960 . S
C1175 C1172 1.511 . S
C1175 H1189 0.961 . S
C1175 H1190 0.961 . S
C1175 H1191 0.961 . S
C1176 C1177 1.370 . S
C1176 C1178 1.363 . S
C1176 H1192 0.931 . S
C1177 C1176 1.370 . S
C1177 C1181 1.408 . S
C1178 C1176 1.363 . S
C1178 C1179 1.370 . S
C1178 C1182 1.524 . S
C1179 C1171 1.503 . S
C1179 C1178 1.370 . S
C1179 C1180 1.403 . S
C1180 C1179 1.403 . S
C1180 C1181 1.404 . S
C1180 C1183 1.539 . S
C1181 C1177 1.408 . S
C1181 C1180 1.404 . S
C1181 H1193 0.930 . S
C1182 C1178 1.524 . S
C1182 H1194 0.956 1_554 S
C1182 H1195 0.961 . S
C1182 H1196 0.961 . S
C1183 C1180 1.539 . S
C1183 H1197 0.958 . S
C1183 H1198 0.961 . S
C1183 H1199 0.960 . S
H1184 C1168 0.931 1_556 S
H1185 C1173 0.929 . S
H1186 C1174 0.960 . S
H1187 C1174 0.962 . S
H1188 C1174 0.960 . S
H1189 C1175 0.961 . S
H1190 C1175 0.961 . S
H1191 C1175 0.961 . S
H1192 C1176 0.931 . S
H1193 C1181 0.930 . S
H1194 C1182 0.956 1_556 S
H1195 C1182 0.961 . S
H1196 C1182 0.961 . S
H1197 C1183 0.958 . S
H1198 C1183 0.961 . S
H1199 C1183 0.960 . S
C1200 C1201 1.391 . S
C1200 C1202 1.394 . S
C1200 H1216 0.931 . S
C1201 C1200 1.391 . S
C1201 C1205 1.376 . S
C1202 C1200 1.394 . S
C1202 C1203 1.369 . S
C1202 C1206 1.531 . S
C1203 C1202 1.369 . S
C1203 C1204 1.410 . S
C1203 C1211 1.503 . S
C1204 C1203 1.410 . S
C1204 C1205 1.392 . S
C1204 C1207 1.511 1_554 S
C1205 C1201 1.376 . S
C1205 C1204 1.392 . S
C1205 H1217 0.929 1_554 S
C1206 C1202 1.531 . S
C1206 H1218 0.960 . S
C1206 H1219 0.962 . S
C1206 H1220 0.960 . S
C1207 C1204 1.511 1_556 S
C1207 H1221 0.961 . S
C1207 H1222 0.961 . S
C1207 H1223 0.961 . S
C1208 C1209 1.370 . S
C1208 C1210 1.363 . S
C1208 H1224 0.931 . S
C1209 C1208 1.370 . S
C1209 C1213 1.408 . S
C1210 C1208 1.363 . S
C1210 C1211 1.370 . S
C1210 C1214 1.524 . S
C1211 C1203 1.503 . S
C1211 C1210 1.370 . S
C1211 C1212 1.403 . S
C1212 C1211 1.403 . S
C1212 C1213 1.404 . S
C1212 C1215 1.539 . S
C1213 C1209 1.408 . S
C1213 C1212 1.404 . S
C1213 H1225 0.930 . S
C1214 C1210 1.524 . S
C1214 H1226 0.956 . S
C1214 H1227 0.961 1_554 S
C1214 H1228 0.961 1_554 S
C1215 C1212 1.539 . S
C1215 H1229 0.958 . S
C1215 H1230 0.961 . S
C1215 H1231 0.960 . S
H1216 C1200 0.931 . S
H1217 C1205 0.929 1_556 S
H1218 C1206 0.960 . S
H1219 C1206 0.962 . S
H1220 C1206 0.960 . S
H1221 C1207 0.961 . S
H1222 C1207 0.961 . S
H1223 C1207 0.961 . S
H1224 C1208 0.931 . S
H1225 C1213 0.930 . S
H1226 C1214 0.956 . S
H1227 C1214 0.961 1_556 S
H1228 C1214 0.961 1_556 S
H1229 C1215 0.958 . S
H1230 C1215 0.961 . S
H1231 C1215 0.960 . S
C1232 C1233 1.391 . S
C1232 C1234 1.392 1_554 S
C1232 H1248 0.931 1_554 S
C1233 C1232 1.391 . S
C1233 C1237 1.376 . S
C1234 C1232 1.392 1_556 S
C1234 C1235 1.354 1_556 S
C1234 C1238 1.548 . S
C1235 C1234 1.354 1_554 S
C1235 C1236 1.410 . S
C1235 C1243 1.503 . S
C1236 C1235 1.410 . S
C1236 C1237 1.392 . S
C1236 C1239 1.511 . S
C1237 C1233 1.376 . S
C1237 C1236 1.392 . S
C1237 H1249 0.929 . S
C1238 C1234 1.548 . S
C1238 H1250 0.960 . S
C1238 H1251 0.962 . S
C1238 H1252 0.960 . S
C1239 C1236 1.511 . S
C1239 H1253 0.961 . S
C1239 H1254 0.961 . S
C1239 H1255 0.961 . S
C1240 C1241 1.370 . S
C1240 C1242 1.363 . S
C1240 H1256 0.931 . S
C1241 C1240 1.370 . S
C1241 C1245 1.408 . S
C1242 C1240 1.363 . S
C1242 C1243 1.370 . S
C1242 C1246 1.524 . S
C1243 C1235 1.503 . S
C1243 C1242 1.370 . S
C1243 C1244 1.403 . S
C1244 C1243 1.403 . S
C1244 C1245 1.404 . S
C1244 C1247 1.539 1_554 S
C1245 C1241 1.408 . S
C1245 C1244 1.404 . S
C1245 H1257 0.930 1_554 S
C1246 C1242 1.524 . S
C1246 H1258 0.956 . S
C1246 H1259 0.961 . S
C1246 H1260 0.961 . S
C1247 C1244 1.539 1_556 S
C1247 H1261 0.958 . S
C1247 H1262 0.961 . S
C1247 H1263 0.960 1_556 S
H1248 C1232 0.931 1_556 S
H1249 C1237 0.929 . S
H1250 C1238 0.960 . S
H1251 C1238 0.962 . S
H1252 C1238 0.960 . S
H1253 C1239 0.961 . S
H1254 C1239 0.961 . S
H1255 C1239 0.961 . S
H1256 C1240 0.931 . S
H1257 C1245 0.930 1_556 S
H1258 C1246 0.956 . S
H1259 C1246 0.961 . S
H1260 C1246 0.961 . S
H1261 C1247 0.958 . S
H1262 C1247 0.961 . S
H1263 C1247 0.960 1_554 S
C1264 C1265 1.391 . S
C1264 C1266 1.394 . S
C1264 H1280 0.931 . S
C1265 C1264 1.391 . S
C1265 C1269 1.376 . S
C1266 C1264 1.394 . S
C1266 C1267 1.369 . S
C1266 C1270 1.531 . S
C1267 C1266 1.369 . S
C1267 C1268 1.410 . S
C1267 C1275 1.503 . S
C1268 C1267 1.410 . S
C1268 C1269 1.392 . S
C1268 C1271 1.511 1_554 S
C1269 C1265 1.376 . S
C1269 C1268 1.392 . S
C1269 H1281 0.929 . S
C1270 C1266 1.531 . S
C1270 H1282 0.960 . S
C1270 H1283 0.962 . S
C1270 H1284 0.960 . S
C1271 C1268 1.511 1_556 S
C1271 H1285 0.961 . S
C1271 H1286 0.961 . S
C1271 H1287 0.961 . S
C1272 C1273 1.370 . S
C1272 C1274 1.363 . S
C1272 H1288 0.931 . S
C1273 C1272 1.370 . S
C1273 C1277 1.408 1_554 S
C1274 C1272 1.363 . S
C1274 C1275 1.370 . S
C1274 C1278 1.524 . S
C1275 C1267 1.503 . S
C1275 C1274 1.370 . S
C1275 C1276 1.403 1_554 S
C1276 C1275 1.403 1_556 S
C1276 C1277 1.404 . S
C1276 C1279 1.539 . S
C1277 C1273 1.408 1_556 S
C1277 C1276 1.404 . S
C1277 H1289 0.930 . S
C1278 C1274 1.524 . S
C1278 H1290 0.956 . S
C1278 H1291 0.961 . S
C1278 H1292 0.961 . S
C1279 C1276 1.539 . S
C1279 H1293 0.958 . S
C1279 H1294 0.961 . S
C1279 H1295 0.960 . S
H1280 C1264 0.931 . S
H1281 C1269 0.929 . S
H1282 C1270 0.960 . S
H1283 C1270 0.962 . S
H1284 C1270 0.960 . S
H1285 C1271 0.961 . S
H1286 C1271 0.961 . S
H1287 C1271 0.961 . S
H1288 C1272 0.931 . S
H1289 C1277 0.930 . S
H1290 C1278 0.956 . S
H1291 C1278 0.961 . S
H1292 C1278 0.961 . S
H1293 C1279 0.958 . S
H1294 C1279 0.961 . S
H1295 C1279 0.960 . S
C1296 C1297 1.391 . S
C1296 C1298 1.394 . S
C1296 H1312 0.931 . S
C1297 C1296 1.391 . S
C1297 C1301 1.376 1_655 S
C1298 C1296 1.394 . S
C1298 C1299 1.365 1_655 S
C1298 C1302 1.531 . S
C1299 C1298 1.365 1_455 S
C1299 C1300 1.412 . S
C1299 C1307 1.504 . S
C1300 C1299 1.412 . S
C1300 C1301 1.392 . S
C1300 C1303 1.511 . S
C1301 C1297 1.376 1_455 S
C1301 C1300 1.392 . S
C1301 H1313 0.929 . S
C1302 C1298 1.531 . S
C1302 H1314 0.960 . S
C1302 H1315 0.962 . S
C1302 H1316 0.960 . S
C1303 C1300 1.511 . S
C1303 H1317 0.961 . S
C1303 H1318 0.961 . S
C1303 H1319 0.961 . S
C1304 C1305 1.370 1_655 S
C1304 C1306 1.363 . S
C1304 H1320 0.931 . S
C1305 C1304 1.370 1_455 S
C1305 C1309 1.408 . S
C1306 C1304 1.363 . S
C1306 C1307 1.370 1_655 S
C1306 C1310 1.524 . S
C1307 C1299 1.504 . S
C1307 C1306 1.370 1_455 S
C1307 C1308 1.403 . S
C1308 C1307 1.403 . S
C1308 C1309 1.404 . S
C1308 C1311 1.539 . S
C1309 C1305 1.408 . S
C1309 C1308 1.404 . S
C1309 H1321 0.930 . S
C1310 C1306 1.524 . S
C1310 H1322 0.956 . S
C1310 H1323 0.961 . S
C1310 H1324 0.961 . S
C1311 C1308 1.539 . S
C1311 H1325 0.958 . S
C1311 H1326 0.961 . S
C1311 H1327 0.960 . S
H1312 C1296 0.931 . S
H1313 C1301 0.929 . S
H1314 C1302 0.960 . S
H1315 C1302 0.962 . S
H1316 C1302 0.960 . S
H1317 C1303 0.961 . S
H1318 C1303 0.961 . S
H1319 C1303 0.961 . S
H1320 C1304 0.931 . S
H1321 C1309 0.930 . S
H1322 C1310 0.956 . S
H1323 C1310 0.961 . S
H1324 C1310 0.961 . S
H1325 C1311 0.958 . S
H1326 C1311 0.961 . S
H1327 C1311 0.960 . S
C1328 C1329 1.391 . S
C1328 C1330 1.394 . S
C1328 H1344 0.931 . S
C1329 C1328 1.391 . S
C1329 C1333 1.376 1_565 S
C1330 C1328 1.394 . S
C1330 C1331 1.369 . S
C1330 C1334 1.531 . S
C1331 C1330 1.369 . S
C1331 C1332 1.410 1_565 S
C1331 C1339 1.506 . S
C1332 C1331 1.410 1_545 S
C1332 C1333 1.392 . S
C1332 C1335 1.511 . S
C1333 C1329 1.376 1_545 S
C1333 C1332 1.392 . S
C1333 H1345 0.929 . S
C1334 C1330 1.531 . S
C1334 H1346 0.960 . S
C1334 H1347 0.962 . S
C1334 H1348 0.960 . S
C1335 C1332 1.511 . S
C1335 H1349 0.961 . S
C1335 H1350 0.961 . S
C1335 H1351 0.961 . S
C1336 C1337 1.370 . S
C1336 C1338 1.363 . S
C1336 H1352 0.931 . S
C1337 C1336 1.370 . S
C1337 C1341 1.408 1_545 S
C1338 C1336 1.363 . S
C1338 C1339 1.362 1_545 S
C1338 C1342 1.524 . S
C1339 C1331 1.506 . S
C1339 C1338 1.362 1_565 S
C1339 C1340 1.408 . S
C1340 C1339 1.408 . S
C1340 C1341 1.404 . S
C1340 C1343 1.539 . S
C1341 C1337 1.408 1_565 S
C1341 C1340 1.404 . S
C1341 H1353 0.930 . S
C1342 C1338 1.524 . S
C1342 H1354 0.956 . S
C1342 H1355 0.961 . S
C1342 H1356 0.961 . S
C1343 C1340 1.539 . S
C1343 H1357 0.958 . S
C1343 H1358 0.961 . S
C1343 H1359 0.960 . S
H1344 C1328 0.931 . S
H1345 C1333 0.929 . S
H1346 C1334 0.960 . S
H1347 C1334 0.962 . S
H1348 C1334 0.960 . S
H1349 C1335 0.961 . S
H1350 C1335 0.961 . S
H1351 C1335 0.961 . S
H1352 C1336 0.931 . S
H1353 C1341 0.930 . S
H1354 C1342 0.956 . S
H1355 C1342 0.961 . S
H1356 C1342 0.961 . S
H1357 C1343 0.958 . S
H1358 C1343 0.961 . S
H1359 C1343 0.960 . S
C1360 C1361 1.391 1_455 S
C1360 C1362 1.394 . S
C1360 H1376 0.931 . S
C1361 C1360 1.391 1_655 S
C1361 C1365 1.376 . S
C1362 C1360 1.394 . S
C1362 C1363 1.369 1_455 S
C1362 C1366 1.531 . S
C1363 C1362 1.369 1_655 S
C1363 C1364 1.410 . S
C1363 C1371 1.503 1_655 S
C1364 C1363 1.410 . S
C1364 C1365 1.392 . S
C1364 C1367 1.511 . S
C1365 C1361 1.376 . S
C1365 C1364 1.392 . S
C1365 H1377 0.929 . S
C1366 C1362 1.531 . S
C1366 H1378 0.960 . S
C1366 H1379 0.962 . S
C1366 H1380 0.960 . S
C1367 C1364 1.511 . S
C1367 H1381 0.961 . S
C1367 H1382 0.961 . S
C1367 H1383 0.961 . S
C1368 C1369 1.370 . S
C1368 C1370 1.363 . S
C1368 H1384 0.931 . S
C1369 C1368 1.370 . S
C1369 C1373 1.408 . S
C1370 C1368 1.363 . S
C1370 C1371 1.370 . S
C1370 C1374 1.524 . S
C1371 C1363 1.503 1_455 S
C1371 C1370 1.370 . S
C1371 C1372 1.402 . S
C1372 C1371 1.402 . S
C1372 C1373 1.403 . S
C1372 C1375 1.541 1_455 S
C1373 C1369 1.408 . S
C1373 C1372 1.403 . S
C1373 H1385 0.930 . S
C1374 C1370 1.524 . S
C1374 H1386 0.956 . S
C1374 H1387 0.961 1_455 S
C1374 H1388 0.961 . S
C1375 C1372 1.541 1_655 S
C1375 H1389 0.958 1_655 S
C1375 H1390 0.961 . S
C1375 H1391 0.960 . S
H1376 C1360 0.931 . S
H1377 C1365 0.929 . S
H1378 C1366 0.960 . S
H1379 C1366 0.962 . S
H1380 C1366 0.960 . S
H1381 C1367 0.961 . S
H1382 C1367 0.961 . S
H1383 C1367 0.961 . S
H1384 C1368 0.931 . S
H1385 C1373 0.930 . S
H1386 C1374 0.956 . S
H1387 C1374 0.961 1_655 S
H1388 C1374 0.961 . S
H1389 C1375 0.958 1_455 S
H1390 C1375 0.961 . S
H1391 C1375 0.960 . S
C1392 C1393 1.391 . S
C1392 C1394 1.394 . S
C1392 H1408 0.931 . S
C1393 C1392 1.391 . S
C1393 C1397 1.376 . S
C1394 C1392 1.394 . S
C1394 C1395 1.369 . S
C1394 C1398 1.531 . S
C1395 C1394 1.369 . S
C1395 C1396 1.410 1_545 S
C1395 C1403 1.511 . S
C1396 C1395 1.410 1_565 S
C1396 C1397 1.392 1_565 S
C1396 C1399 1.511 . S
C1397 C1393 1.376 . S
C1397 C1396 1.392 1_545 S
C1397 H1409 0.929 1_545 S
C1398 C1394 1.531 . S
C1398 H1410 0.960 . S
C1398 H1411 0.962 . S
C1398 H1412 0.960 . S
C1399 C1396 1.511 . S
C1399 H1413 0.961 . S
C1399 H1414 0.961 . S
C1399 H1415 0.961 . S
C1400 C1401 1.370 . S
C1400 C1402 1.363 . S
C1400 H1416 0.931 . S
C1401 C1400 1.370 . S
C1401 C1405 1.408 1_565 S
C1402 C1400 1.363 . S
C1402 C1403 1.346 1_565 S
C1402 C1406 1.524 . S
C1403 C1395 1.511 . S
C1403 C1402 1.346 1_545 S
C1403 C1404 1.420 . S
C1404 C1403 1.420 . S
C1404 C1405 1.404 . S
C1404 C1407 1.539 . S
C1405 C1401 1.408 1_545 S
C1405 C1404 1.404 . S
C1405 H1417 0.930 . S
C1406 C1402 1.524 . S
C1406 H1418 0.956 . S
C1406 H1419 0.961 . S
C1406 H1420 0.961 . S
C1407 C1404 1.539 . S
C1407 H1421 0.958 . S
C1407 H1422 0.961 . S
C1407 H1423 0.960 . S
H1408 C1392 0.931 . S
H1409 C1397 0.929 1_565 S
H1410 C1398 0.960 . S
H1411 C1398 0.962 . S
H1412 C1398 0.960 . S
H1413 C1399 0.961 . S
H1414 C1399 0.961 . S
H1415 C1399 0.961 . S
H1416 C1400 0.931 . S
H1417 C1405 0.930 . S
H1418 C1406 0.956 . S
H1419 C1406 0.961 . S
H1420 C1406 0.961 . S
H1421 C1407 0.958 . S
H1422 C1407 0.961 . S
H1423 C1407 0.960 . S
C1424 C1425 1.391 . S
C1424 C1426 1.394 . S
C1424 H1440 0.931 . S
C1425 C1424 1.391 . S
C1425 C1429 1.376 1_655 S
C1426 C1424 1.394 . S
C1426 C1427 1.369 1_655 S
C1426 C1430 1.531 . S
C1427 C1426 1.369 1_455 S
C1427 C1428 1.410 . S
C1427 C1435 1.503 . S
C1428 C1427 1.410 . S
C1428 C1429 1.392 . S
C1428 C1431 1.511 . S
C1429 C1425 1.376 1_455 S
C1429 C1428 1.392 . S
C1429 H1441 0.929 . S
C1430 C1426 1.531 . S
C1430 H1442 0.960 . S
C1430 H1443 0.962 . S
C1430 H1444 0.960 . S
C1431 C1428 1.511 . S
C1431 H1445 0.961 . S
C1431 H1446 0.961 . S
C1431 H1447 0.961 . S
C1432 C1433 1.370 1_655 S
C1432 C1434 1.363 . S
C1432 H1448 0.931 . S
C1433 C1432 1.370 1_455 S
C1433 C1437 1.408 . S
C1434 C1432 1.363 . S
C1434 C1435 1.370 1_655 S
C1434 C1438 1.524 . S
C1435 C1427 1.503 . S
C1435 C1434 1.370 1_455 S
C1435 C1436 1.403 . S
C1436 C1435 1.403 . S
C1436 C1437 1.404 . S
C1436 C1439 1.539 . S
C1437 C1433 1.408 . S
C1437 C1436 1.404 . S
C1437 H1449 0.930 . S
C1438 C1434 1.524 . S
C1438 H1450 0.956 . S
C1438 H1451 0.961 . S
C1438 H1452 0.961 . S
C1439 C1436 1.539 . S
C1439 H1453 0.958 . S
C1439 H1454 0.961 . S
C1439 H1455 0.960 . S
H1440 C1424 0.931 . S
H1441 C1429 0.929 . S
H1442 C1430 0.960 . S
H1443 C1430 0.962 . S
H1444 C1430 0.960 . S
H1445 C1431 0.961 . S
H1446 C1431 0.961 . S
H1447 C1431 0.961 . S
H1448 C1432 0.931 . S
H1449 C1437 0.930 . S
H1450 C1438 0.956 . S
H1451 C1438 0.961 . S
H1452 C1438 0.961 . S
H1453 C1439 0.958 . S
H1454 C1439 0.961 . S
H1455 C1439 0.960 . S
C1456 C1457 1.391 1_565 S
C1456 C1458 1.394 . S
C1456 H1472 0.931 . S
C1457 C1456 1.391 1_545 S
C1457 C1461 1.376 . S
C1458 C1456 1.394 . S
C1458 C1459 1.369 . S
C1458 C1462 1.531 . S
C1459 C1458 1.369 . S
C1459 C1460 1.410 1_565 S
C1459 C1467 1.503 . S
C1460 C1459 1.410 1_545 S
C1460 C1461 1.392 . S
C1460 C1463 1.511 . S
C1461 C1457 1.376 . S
C1461 C1460 1.392 . S
C1461 H1473 0.929 . S
C1462 C1458 1.531 . S
C1462 H1474 0.960 . S
C1462 H1475 0.962 . S
C1462 H1476 0.960 . S
C1463 C1460 1.511 . S
C1463 H1477 0.961 . S
C1463 H1478 0.961 . S
C1463 H1479 0.961 1_545 S
C1464 C1465 1.370 1_545 S
C1464 C1466 1.363 . S
C1464 H1480 0.931 . S
C1465 C1464 1.370 1_565 S
C1465 C1469 1.408 . S
C1466 C1464 1.363 . S
C1466 C1467 1.370 1_545 S
C1466 C1470 1.524 . S
C1467 C1459 1.503 . S
C1467 C1466 1.370 1_565 S
C1467 C1468 1.403 . S
C1468 C1467 1.403 . S
C1468 C1469 1.404 . S
C1468 C1471 1.539 . S
C1469 C1465 1.408 . S
C1469 C1468 1.404 . S
C1469 H1481 0.930 . S
C1470 C1466 1.524 . S
C1470 H1482 0.956 . S
C1470 H1483 0.961 . S
C1470 H1484 0.961 . S
C1471 C1468 1.539 . S
C1471 H1485 0.958 . S
C1471 H1486 0.961 . S
C1471 H1487 0.960 . S
H1472 C1456 0.931 . S
H1473 C1461 0.929 . S
H1474 C1462 0.960 . S
H1475 C1462 0.962 . S
H1476 C1462 0.960 . S
H1477 C1463 0.961 . S
H1478 C1463 0.961 . S
H1479 C1463 0.961 1_565 S
H1480 C1464 0.931 . S
H1481 C1469 0.930 . S
H1482 C1470 0.956 . S
H1483 C1470 0.961 . S
H1484 C1470 0.961 . S
H1485 C1471 0.958 . S
H1486 C1471 0.961 . S
H1487 C1471 0.960 . S
C1488 C1489 1.391 . S
C1488 C1490 1.390 1_455 S
C1488 H1504 0.931 . S
C1489 C1488 1.391 . S
C1489 C1493 1.376 1_455 S
C1490 C1488 1.390 1_655 S
C1490 C1491 1.374 . S
C1490 C1494 1.531 . S
C1491 C1490 1.374 . S
C1491 C1492 1.410 . S
C1491 C1499 1.503 . S
C1492 C1491 1.410 . S
C1492 C1493 1.392 . S
C1492 C1495 1.511 . S
C1493 C1489 1.376 1_655 S
C1493 C1492 1.392 . S
C1493 H1505 0.929 . S
C1494 C1490 1.531 . S
C1494 H1506 0.969 . S
C1494 H1507 0.948 1_655 S
C1494 H1508 0.965 . S
C1495 C1492 1.511 . S
C1495 H1509 0.961 . S
C1495 H1510 0.961 . S
C1495 H1511 0.961 . S
C1496 C1497 1.370 1_455 S
C1496 C1498 1.363 . S
C1496 H1512 0.931 . S
C1497 C1496 1.370 1_655 S
C1497 C1501 1.408 . S
C1498 C1496 1.363 . S
C1498 C1499 1.370 1_455 S
C1498 C1502 1.524 . S
C1499 C1491 1.503 . S
C1499 C1498 1.370 1_655 S
C1499 C1500 1.403 . S
C1500 C1499 1.403 . S
C1500 C1501 1.404 . S
C1500 C1503 1.539 . S
C1501 C1497 1.408 . S
C1501 C1500 1.404 . S
C1501 H1513 0.930 . S
C1502 C1498 1.524 . S
C1502 H1514 0.956 . S
C1502 H1515 0.961 . S
C1502 H1516 0.961 . S
C1503 C1500 1.539 . S
C1503 H1517 0.958 . S
C1503 H1518 0.961 . S
C1503 H1519 0.960 . S
H1504 C1488 0.931 . S
H1505 C1493 0.929 . S
H1506 C1494 0.969 . S
H1507 C1494 0.948 1_455 S
H1508 C1494 0.965 . S
H1509 C1495 0.961 . S
H1510 C1495 0.961 . S
H1511 C1495 0.961 . S
H1512 C1496 0.931 . S
H1513 C1501 0.930 . S
H1514 C1502 0.956 . S
H1515 C1502 0.961 . S
H1516 C1502 0.961 . S
H1517 C1503 0.958 . S
H1518 C1503 0.961 . S
H1519 C1503 0.960 . S
C1520 C1521 1.391 . S
C1520 C1522 1.394 1_565 S
C1520 H1536 0.931 . S
C1521 C1520 1.391 . S
C1521 C1525 1.373 1_565 S
C1522 C1520 1.394 1_545 S
C1522 C1523 1.369 . S
C1522 C1526 1.531 . S
C1523 C1522 1.369 . S
C1523 C1524 1.410 . S
C1523 C1531 1.503 . S
C1524 C1523 1.410 . S
C1524 C1525 1.396 . S
C1524 C1527 1.511 . S
C1525 C1521 1.373 1_545 S
C1525 C1524 1.396 . S
C1525 H1537 0.929 . S
C1526 C1522 1.531 . S
C1526 H1538 0.960 . S
C1526 H1539 0.962 1_545 S
C1526 H1540 0.960 . S
C1527 C1524 1.511 . S
C1527 H1541 0.962 . S
C1527 H1542 0.961 . S
C1527 H1543 0.961 . S
C1528 C1529 1.370 1_565 S
C1528 C1530 1.363 . S
C1528 H1544 0.931 . S
C1529 C1528 1.370 1_545 S
C1529 C1533 1.408 . S
C1530 C1528 1.363 . S
C1530 C1531 1.370 1_565 S
C1530 C1534 1.524 . S
C1531 C1523 1.503 . S
C1531 C1530 1.370 1_545 S
C1531 C1532 1.403 . S
C1532 C1531 1.403 . S
C1532 C1533 1.404 . S
C1532 C1535 1.539 . S
C1533 C1529 1.408 . S
C1533 C1532 1.404 . S
C1533 H1545 0.930 . S
C1534 C1530 1.524 . S
C1534 H1546 0.956 . S
C1534 H1547 0.961 . S
C1534 H1548 0.961 . S
C1535 C1532 1.539 . S
C1535 H1549 0.958 . S
C1535 H1550 0.961 . S
C1535 H1551 0.960 . S
H1536 C1520 0.931 . S
H1537 C1525 0.929 . S
H1538 C1526 0.960 . S
H1539 C1526 0.962 1_565 S
H1540 C1526 0.960 . S
H1541 C1527 0.962 . S
H1542 C1527 0.961 . S
H1543 C1527 0.961 . S
H1544 C1528 0.931 . S
H1545 C1533 0.930 . S
H1546 C1534 0.956 . S
H1547 C1534 0.961 . S
H1548 C1534 0.961 . S
H1549 C1535 0.958 . S
H1550 C1535 0.961 . S
H1551 C1535 0.960 . S
C1552 C1553 1.391 . S
C1552 C1554 1.394 . S
C1552 H1568 0.931 . S
C1553 C1552 1.391 . S
C1553 C1557 1.376 . S
C1554 C1552 1.394 . S
C1554 C1555 1.369 . S
C1554 C1558 1.531 . S
C1555 C1554 1.369 . S
C1555 C1556 1.410 . S
C1555 C1563 1.503 . S
C1556 C1555 1.410 . S
C1556 C1557 1.392 . S
C1556 C1559 1.511 . S
C1557 C1553 1.376 . S
C1557 C1556 1.392 . S
C1557 H1569 0.929 . S
C1558 C1554 1.531 . S
C1558 H1570 0.960 . S
C1558 H1571 0.962 . S
C1558 H1572 0.960 . S
C1559 C1556 1.511 . S
C1559 H1573 0.961 . S
C1559 H1574 0.961 . S
C1559 H1575 0.961 . S
C1560 C1561 1.370 . S
C1560 C1562 1.363 . S
C1560 H1576 0.931 . S
C1561 C1560 1.370 . S
C1561 C1565 1.408 . S
C1562 C1560 1.363 . S
C1562 C1563 1.370 . S
C1562 C1566 1.524 . S
C1563 C1555 1.503 . S
C1563 C1562 1.370 . S
C1563 C1564 1.403 . S
C1564 C1563 1.403 . S
C1564 C1565 1.404 . S
C1564 C1567 1.539 . S
C1565 C1561 1.408 . S
C1565 C1564 1.404 . S
C1565 H1577 0.930 . S
C1566 C1562 1.524 . S
C1566 H1578 0.956 . S
C1566 H1579 0.961 . S
C1566 H1580 0.961 . S
C1567 C1564 1.539 . S
C1567 H1581 0.958 . S
C1567 H1582 0.961 . S
C1567 H1583 0.960 . S
H1568 C1552 0.931 . S
H1569 C1557 0.929 . S
H1570 C1558 0.960 . S
H1571 C1558 0.962 . S
H1572 C1558 0.960 . S
H1573 C1559 0.961 . S
H1574 C1559 0.961 . S
H1575 C1559 0.961 . S
H1576 C1560 0.931 . S
H1577 C1565 0.930 . S
H1578 C1566 0.956 . S
H1579 C1566 0.961 . S
H1580 C1566 0.961 . S
H1581 C1567 0.958 . S
H1582 C1567 0.961 . S
H1583 C1567 0.960 . S
C1584 C1585 1.391 . S
C1584 C1586 1.394 . S
C1584 H1600 0.931 . S
C1585 C1584 1.391 . S
C1585 C1589 1.376 . S
C1586 C1584 1.394 . S
C1586 C1587 1.369 . S
C1586 C1590 1.531 . S
C1587 C1586 1.369 . S
C1587 C1588 1.410 . S
C1587 C1595 1.503 . S
C1588 C1587 1.410 . S
C1588 C1589 1.392 . S
C1588 C1591 1.511 . S
C1589 C1585 1.376 . S
C1589 C1588 1.392 . S
C1589 H1601 0.929 . S
C1590 C1586 1.531 . S
C1590 H1602 0.960 . S
C1590 H1603 0.962 . S
C1590 H1604 0.960 . S
C1591 C1588 1.511 . S
C1591 H1605 0.961 . S
C1591 H1606 0.961 . S
C1591 H1607 0.961 . S
C1592 C1593 1.370 . S
C1592 C1594 1.363 . S
C1592 H1608 0.931 . S
C1593 C1592 1.370 . S
C1593 C1597 1.408 . S
C1594 C1592 1.363 . S
C1594 C1595 1.370 . S
C1594 C1598 1.524 . S
C1595 C1587 1.503 . S
C1595 C1594 1.370 . S
C1595 C1596 1.403 . S
C1596 C1595 1.403 . S
C1596 C1597 1.404 . S
C1596 C1599 1.539 . S
C1597 C1593 1.408 . S
C1597 C1596 1.404 . S
C1597 H1609 0.930 . S
C1598 C1594 1.524 . S
C1598 H1610 0.956 . S
C1598 H1611 0.961 . S
C1598 H1612 0.961 . S
C1599 C1596 1.539 . S
C1599 H1613 0.958 . S
C1599 H1614 0.961 . S
C1599 H1615 0.960 . S
H1600 C1584 0.931 . S
H1601 C1589 0.929 . S
H1602 C1590 0.960 . S
H1603 C1590 0.962 . S
H1604 C1590 0.960 . S
H1605 C1591 0.961 . S
H1606 C1591 0.961 . S
H1607 C1591 0.961 . S
H1608 C1592 0.931 . S
H1609 C1597 0.930 . S
H1610 C1598 0.956 . S
H1611 C1598 0.961 . S
H1612 C1598 0.961 . S
H1613 C1599 0.958 . S
H1614 C1599 0.961 . S
H1615 C1599 0.960 . S
C1616 C1617 1.391 . S
C1616 C1618 1.394 . S
C1616 H1632 0.931 . S
C1617 C1616 1.391 . S
C1617 C1621 1.376 . S
C1618 C1616 1.394 . S
C1618 C1619 1.369 . S
C1618 C1622 1.531 . S
C1619 C1618 1.369 . S
C1619 C1620 1.410 . S
C1619 C1627 1.503 . S
C1620 C1619 1.410 . S
C1620 C1621 1.392 . S
C1620 C1623 1.511 . S
C1621 C1617 1.376 . S
C1621 C1620 1.392 . S
C1621 H1633 0.929 . S
C1622 C1618 1.531 . S
C1622 H1634 0.960 . S
C1622 H1635 0.962 . S
C1622 H1636 0.960 . S
C1623 C1620 1.511 . S
C1623 H1637 0.961 . S
C1623 H1638 0.961 . S
C1623 H1639 0.961 . S
C1624 C1625 1.370 . S
C1624 C1626 1.363 . S
C1624 H1640 0.931 . S
C1625 C1624 1.370 . S
C1625 C1629 1.408 . S
C1626 C1624 1.363 . S
C1626 C1627 1.370 . S
C1626 C1630 1.524 . S
C1627 C1619 1.503 . S
C1627 C1626 1.370 . S
C1627 C1628 1.403 . S
C1628 C1627 1.403 . S
C1628 C1629 1.404 . S
C1628 C1631 1.539 . S
C1629 C1625 1.408 . S
C1629 C1628 1.404 . S
C1629 H1641 0.930 . S
C1630 C1626 1.524 . S
C1630 H1642 0.956 . S
C1630 H1643 0.961 . S
C1630 H1644 0.961 . S
C1631 C1628 1.539 . S
C1631 H1645 0.958 . S
C1631 H1646 0.961 . S
C1631 H1647 0.960 . S
H1632 C1616 0.931 . S
H1633 C1621 0.929 . S
H1634 C1622 0.960 . S
H1635 C1622 0.962 . S
H1636 C1622 0.960 . S
H1637 C1623 0.961 . S
H1638 C1623 0.961 . S
H1639 C1623 0.961 . S
H1640 C1624 0.931 . S
H1641 C1629 0.930 . S
H1642 C1630 0.956 . S
H1643 C1630 0.961 . S
H1644 C1630 0.961 . S
H1645 C1631 0.958 . S
H1646 C1631 0.961 . S
H1647 C1631 0.960 . S
C1648 C1649 1.391 . S
C1648 C1650 1.394 . S
C1648 H1664 0.931 . S
C1649 C1648 1.391 . S
C1649 C1653 1.376 . S
C1650 C1648 1.394 . S
C1650 C1651 1.369 . S
C1650 C1654 1.531 . S
C1651 C1650 1.369 . S
C1651 C1652 1.410 . S
C1651 C1659 1.503 . S
C1652 C1651 1.410 . S
C1652 C1653 1.392 . S
C1652 C1655 1.511 . S
C1653 C1649 1.376 . S
C1653 C1652 1.392 . S
C1653 H1665 0.929 . S
C1654 C1650 1.531 . S
C1654 H1666 0.960 . S
C1654 H1667 0.962 . S
C1654 H1668 0.960 . S
C1655 C1652 1.511 . S
C1655 H1669 0.961 . S
C1655 H1670 0.961 . S
C1655 H1671 0.961 . S
C1656 C1657 1.370 . S
C1656 C1658 1.363 . S
C1656 H1672 0.931 . S
C1657 C1656 1.370 . S
C1657 C1661 1.408 . S
C1658 C1656 1.363 . S
C1658 C1659 1.370 . S
C1658 C1662 1.524 . S
C1659 C1651 1.503 . S
C1659 C1658 1.370 . S
C1659 C1660 1.403 . S
C1660 C1659 1.403 . S
C1660 C1661 1.404 . S
C1660 C1663 1.539 . S
C1661 C1657 1.408 . S
C1661 C1660 1.404 . S
C1661 H1673 0.930 . S
C1662 C1658 1.524 . S
C1662 H1674 0.956 . S
C1662 H1675 0.961 . S
C1662 H1676 0.961 . S
C1663 C1660 1.539 . S
C1663 H1677 0.958 . S
C1663 H1678 0.961 . S
C1663 H1679 0.960 . S
H1664 C1648 0.931 . S
H1665 C1653 0.929 . S
H1666 C1654 0.960 . S
H1667 C1654 0.962 . S
H1668 C1654 0.960 . S
H1669 C1655 0.961 . S
H1670 C1655 0.961 . S
H1671 C1655 0.961 . S
H1672 C1656 0.931 . S
H1673 C1661 0.930 . S
H1674 C1662 0.956 . S
H1675 C1662 0.961 . S
H1676 C1662 0.961 . S
H1677 C1663 0.958 . S
H1678 C1663 0.961 . S
H1679 C1663 0.960 . S
C1680 C1681 1.391 . S
C1680 C1682 1.394 . S
C1680 H1696 0.931 . S
C1681 C1680 1.391 . S
C1681 C1685 1.376 . S
C1682 C1680 1.394 . S
C1682 C1683 1.369 . S
C1682 C1686 1.531 . S
C1683 C1682 1.369 . S
C1683 C1684 1.410 . S
C1683 C1691 1.503 . S
C1684 C1683 1.410 . S
C1684 C1685 1.392 . S
C1684 C1687 1.511 . S
C1685 C1681 1.376 . S
C1685 C1684 1.392 . S
C1685 H1697 0.929 . S
C1686 C1682 1.531 . S
C1686 H1698 0.960 . S
C1686 H1699 0.962 . S
C1686 H1700 0.960 . S
C1687 C1684 1.511 . S
C1687 H1701 0.961 . S
C1687 H1702 0.961 . S
C1687 H1703 0.961 . S
C1688 C1689 1.370 . S
C1688 C1690 1.363 . S
C1688 H1704 0.931 . S
C1689 C1688 1.370 . S
C1689 C1693 1.408 . S
C1690 C1688 1.363 . S
C1690 C1691 1.370 . S
C1690 C1694 1.524 . S
C1691 C1683 1.503 . S
C1691 C1690 1.370 . S
C1691 C1692 1.403 . S
C1692 C1691 1.403 . S
C1692 C1693 1.404 . S
C1692 C1695 1.539 . S
C1693 C1689 1.408 . S
C1693 C1692 1.404 . S
C1693 H1705 0.930 . S
C1694 C1690 1.524 . S
C1694 H1706 0.956 . S
C1694 H1707 0.961 . S
C1694 H1708 0.961 . S
C1695 C1692 1.539 . S
C1695 H1709 0.958 . S
C1695 H1710 0.961 . S
C1695 H1711 0.960 . S
H1696 C1680 0.931 . S
H1697 C1685 0.929 . S
H1698 C1686 0.960 . S
H1699 C1686 0.962 . S
H1700 C1686 0.960 . S
H1701 C1687 0.961 . S
H1702 C1687 0.961 . S
H1703 C1687 0.961 . S
H1704 C1688 0.931 . S
H1705 C1693 0.930 . S
H1706 C1694 0.956 . S
H1707 C1694 0.961 . S
H1708 C1694 0.961 . S
H1709 C1695 0.958 . S
H1710 C1695 0.961 . S
H1711 C1695 0.960 . S
C1712 C1713 1.391 . S
C1712 C1714 1.394 . S
C1712 H1728 0.931 . S
C1713 C1712 1.391 . S
C1713 C1717 1.376 . S
C1714 C1712 1.394 . S
C1714 C1715 1.369 . S
C1714 C1718 1.531 . S
C1715 C1714 1.369 . S
C1715 C1716 1.410 . S
C1715 C1723 1.503 . S
C1716 C1715 1.410 . S
C1716 C1717 1.392 . S
C1716 C1719 1.511 . S
C1717 C1713 1.376 . S
C1717 C1716 1.392 . S
C1717 H1729 0.929 . S
C1718 C1714 1.531 . S
C1718 H1730 0.960 . S
C1718 H1731 0.962 . S
C1718 H1732 0.960 . S
C1719 C1716 1.511 . S
C1719 H1733 0.961 . S
C1719 H1734 0.961 . S
C1719 H1735 0.961 . S
C1720 C1721 1.370 . S
C1720 C1722 1.363 . S
C1720 H1736 0.931 . S
C1721 C1720 1.370 . S
C1721 C1725 1.408 . S
C1722 C1720 1.363 . S
C1722 C1723 1.370 . S
C1722 C1726 1.524 . S
C1723 C1715 1.503 . S
C1723 C1722 1.370 . S
C1723 C1724 1.403 . S
C1724 C1723 1.403 . S
C1724 C1725 1.404 . S
C1724 C1727 1.539 . S
C1725 C1721 1.408 . S
C1725 C1724 1.404 . S
C1725 H1737 0.930 . S
C1726 C1722 1.524 . S
C1726 H1738 0.956 . S
C1726 H1739 0.961 . S
C1726 H1740 0.961 . S
C1727 C1724 1.539 . S
C1727 H1741 0.958 . S
C1727 H1742 0.961 . S
C1727 H1743 0.960 . S
H1728 C1712 0.931 . S
H1729 C1717 0.929 . S
H1730 C1718 0.960 . S
H1731 C1718 0.962 . S
H1732 C1718 0.960 . S
H1733 C1719 0.961 . S
H1734 C1719 0.961 . S
H1735 C1719 0.961 . S
H1736 C1720 0.931 . S
H1737 C1725 0.930 . S
H1738 C1726 0.956 . S
H1739 C1726 0.961 . S
H1740 C1726 0.961 . S
H1741 C1727 0.958 . S
H1742 C1727 0.961 . S
H1743 C1727 0.960 . S
C1744 C1745 1.391 . S
C1744 C1746 1.394 . S
C1744 H1760 0.931 . S
C1745 C1744 1.391 . S
C1745 C1749 1.376 . S
C1746 C1744 1.394 . S
C1746 C1747 1.369 . S
C1746 C1750 1.531 . S
C1747 C1746 1.369 . S
C1747 C1748 1.410 . S
C1747 C1755 1.503 . S
C1748 C1747 1.410 . S
C1748 C1749 1.392 . S
C1748 C1751 1.511 . S
C1749 C1745 1.376 . S
C1749 C1748 1.392 . S
C1749 H1761 0.929 . S
C1750 C1746 1.531 . S
C1750 H1762 0.960 . S
C1750 H1763 0.962 . S
C1750 H1764 0.960 . S
C1751 C1748 1.511 . S
C1751 H1765 0.961 . S
C1751 H1766 0.961 . S
C1751 H1767 0.961 . S
C1752 C1753 1.370 . S
C1752 C1754 1.363 . S
C1752 H1768 0.931 . S
C1753 C1752 1.370 . S
C1753 C1757 1.408 . S
C1754 C1752 1.363 . S
C1754 C1755 1.370 . S
C1754 C1758 1.524 . S
C1755 C1747 1.503 . S
C1755 C1754 1.370 . S
C1755 C1756 1.403 . S
C1756 C1755 1.403 . S
C1756 C1757 1.404 . S
C1756 C1759 1.539 . S
C1757 C1753 1.408 . S
C1757 C1756 1.404 . S
C1757 H1769 0.930 . S
C1758 C1754 1.524 . S
C1758 H1770 0.956 . S
C1758 H1771 0.961 . S
C1758 H1772 0.961 . S
C1759 C1756 1.539 . S
C1759 H1773 0.958 . S
C1759 H1774 0.961 . S
C1759 H1775 0.960 . S
H1760 C1744 0.931 . S
H1761 C1749 0.929 . S
H1762 C1750 0.960 . S
H1763 C1750 0.962 . S
H1764 C1750 0.960 . S
H1765 C1751 0.961 . S
H1766 C1751 0.961 . S
H1767 C1751 0.961 . S
H1768 C1752 0.931 . S
H1769 C1757 0.930 . S
H1770 C1758 0.956 . S
H1771 C1758 0.961 . S
H1772 C1758 0.961 . S
H1773 C1759 0.958 . S
H1774 C1759 0.961 . S
H1775 C1759 0.960 . S
C1776 C1777 1.391 . S
C1776 C1778 1.394 . S
C1776 H1792 0.931 . S
C1777 C1776 1.391 . S
C1777 C1781 1.376 . S
C1778 C1776 1.394 . S
C1778 C1779 1.369 . S
C1778 C1782 1.531 . S
C1779 C1778 1.369 . S
C1779 C1780 1.410 . S
C1779 C1787 1.503 . S
C1780 C1779 1.410 . S
C1780 C1781 1.392 . S
C1780 C1783 1.511 . S
C1781 C1777 1.376 . S
C1781 C1780 1.392 . S
C1781 H1793 0.929 . S
C1782 C1778 1.531 . S
C1782 H1794 0.960 . S
C1782 H1795 0.962 . S
C1782 H1796 0.960 . S
C1783 C1780 1.511 . S
C1783 H1797 0.961 . S
C1783 H1798 0.961 . S
C1783 H1799 0.961 . S
C1784 C1785 1.370 . S
C1784 C1786 1.363 . S
C1784 H1800 0.931 . S
C1785 C1784 1.370 . S
C1785 C1789 1.408 . S
C1786 C1784 1.363 . S
C1786 C1787 1.370 . S
C1786 C1790 1.524 . S
C1787 C1779 1.503 . S
C1787 C1786 1.370 . S
C1787 C1788 1.403 . S
C1788 C1787 1.403 . S
C1788 C1789 1.404 . S
C1788 C1791 1.539 . S
C1789 C1785 1.408 . S
C1789 C1788 1.404 . S
C1789 H1801 0.930 . S
C1790 C1786 1.524 . S
C1790 H1802 0.956 . S
C1790 H1803 0.961 . S
C1790 H1804 0.961 . S
C1791 C1788 1.539 . S
C1791 H1805 0.958 . S
C1791 H1806 0.961 . S
C1791 H1807 0.960 . S
H1792 C1776 0.931 . S
H1793 C1781 0.929 . S
H1794 C1782 0.960 . S
H1795 C1782 0.962 . S
H1796 C1782 0.960 . S
H1797 C1783 0.961 . S
H1798 C1783 0.961 . S
H1799 C1783 0.961 . S
H1800 C1784 0.931 . S
H1801 C1789 0.930 . S
H1802 C1790 0.956 . S
H1803 C1790 0.961 . S
H1804 C1790 0.961 . S
H1805 C1791 0.958 . S
H1806 C1791 0.961 . S
H1807 C1791 0.960 . S
C529 N2 1.331 . S
C537 N497 1.304 . S
C561 N35 1.299 . S
C569 N398 1.318 . S
C593 N431 1.339 . S
C601 N68 1.298 . S
C625 N101 1.268 . S
C633 N464 1.318 . S
C657 N134 1.269 . S
C665 N299 1.317 . S
C689 N332 1.268 . S
C697 N167 1.320 . S
C721 N365 1.336 . S
C729 N200 1.293 . S
C753 N266 1.286 . S
C761 N233 1.306 . S
C785 N112 1.553 1_556 S
C793 C21 1.589 . S
C817 N13 1.558 1_556 S
C825 C54 1.589 . S
C849 C87 1.585 . S
C857 N46 1.545 1_556 S
C881 C120 1.594 . S
C889 N79 1.519 1_556 S
C913 N178 1.549 . S
C921 C153 1.589 . S
C945 N211 1.501 . S
C953 C186 1.593 . S
C977 N244 1.502 . S
C985 C219 1.596 . S
C1009 N145 1.497 . S
C1017 C252 1.595 . S
C1041 N376 1.558 . S
C1049 C285 1.589 . S
C1073 C318 1.597 . S
C1081 N277 1.522 . S
C1105 N310 1.503 . S
C1113 C351 1.596 . S
C1137 N343 1.535 . S
C1145 C384 1.594 . S
C1169 N442 1.537 . S
C1177 C417 1.594 . S
C1201 N475 1.541 . S
C1209 C450 1.589 . S
C1233 N508 1.512 . S
C1241 C483 1.596 . S
C1265 N409 1.502 . S
C1273 C516 1.593 . S
C1297 C205 1.614 . S
C1305 C7 1.597 . S
C1329 C238 1.595 . S
C1337 C40 1.605 . S
C1361 C73 1.571 . S
C1369 C139 1.591 . S
C1393 C172 1.592 . S
C1401 C106 1.605 . S
C1425 C84 0.941 . S
C1433 C150 0.937 . S
C1457 C183 0.991 . S
C1465 C117 0.952 . S
C1489 C18 0.978 . S
C1497 C216 0.944 . S
C1521 C249 0.980 . S
C1529 C51 0.945 . S
C1553 C469 1.571 . S
C1561 C271 1.592 . S
C1585 C502 1.572 . S
C1593 C304 1.590 . S
C1617 C403 1.614 . S
C1625 C337 1.598 . S
C1649 C370 1.594 . S
C1657 C436 1.587 . S
C1681 C414 0.970 . S
C1689 C348 0.973 . S
C1713 C381 0.912 . S
C1721 C447 0.944 . S
C1745 C282 0.928 . S
C1753 C480 0.938 . S
C1777 C513 0.984 . S
C1785 C315 0.971 . S
