# Generated by pormake.
# Topology neb, (4)-cn, num edge types: 1
# Building blocks:
#     Node 0, Type 0, BuildingBlock: TATPOV_clean_sbu_0, # of connection points: 4
#     Node 1, Type 0, BuildingBlock: TATPOV_clean_sbu_0, # of connection points: 4
#     Node 2, Type 0, BuildingBlock: TATPOV_clean_sbu_0, # of connection points: 4
#     Node 3, Type 0, BuildingBlock: TATPOV_clean_sbu_0, # of connection points: 4
#     Node 4, Type 0, BuildingBlock: TATPOV_clean_sbu_0, # of connection points: 4
#     Node 5, Type 0, BuildingBlock: TATPOV_clean_sbu_0, # of connection points: 4
#     Node 6, Type 0, BuildingBlock: TATPOV_clean_sbu_0, # of connection points: 4
#     Node 7, Type 0, BuildingBlock: TATPOV_clean_sbu_0, # of connection points: 4
#     Node 8, Type 0, BuildingBlock: TATPOV_clean_sbu_0, # of connection points: 4
#     Node 9, Type 0, BuildingBlock: TATPOV_clean_sbu_0, # of connection points: 4
#     Node 10, Type 0, BuildingBlock: TATPOV_clean_sbu_0, # of connection points: 4
#     Node 11, Type 0, BuildingBlock: TATPOV_clean_sbu_0, # of connection points: 4
#     Node 12, Type 0, BuildingBlock: TATPOV_clean_sbu_0, # of connection points: 4
#     Node 13, Type 0, BuildingBlock: TATPOV_clean_sbu_0, # of connection points: 4
#     Node 14, Type 0, BuildingBlock: TATPOV_clean_sbu_0, # of connection points: 4
#     Node 15, Type 0, BuildingBlock: TATPOV_clean_sbu_0, # of connection points: 4
#     Edge 16, Type (0, 0), BuildingBlock: ZUJKAS_clean_linker_0, # of connection points: 2
#     Edge 17, Type (0, 0), BuildingBlock: ZUJKAS_clean_linker_0, # of connection points: 2
#     Edge 18, Type (0, 0), BuildingBlock: ZUJKAS_clean_linker_0, # of connection points: 2
#     Edge 19, Type (0, 0), BuildingBlock: ZUJKAS_clean_linker_0, # of connection points: 2
#     Edge 20, Type (0, 0), BuildingBlock: ZUJKAS_clean_linker_0, # of connection points: 2
#     Edge 21, Type (0, 0), BuildingBlock: ZUJKAS_clean_linker_0, # of connection points: 2
#     Edge 22, Type (0, 0), BuildingBlock: ZUJKAS_clean_linker_0, # of connection points: 2
#     Edge 23, Type (0, 0), BuildingBlock: ZUJKAS_clean_linker_0, # of connection points: 2
#     Edge 24, Type (0, 0), BuildingBlock: ZUJKAS_clean_linker_0, # of connection points: 2
#     Edge 25, Type (0, 0), BuildingBlock: ZUJKAS_clean_linker_0, # of connection points: 2
#     Edge 26, Type (0, 0), BuildingBlock: ZUJKAS_clean_linker_0, # of connection points: 2
#     Edge 27, Type (0, 0), BuildingBlock: ZUJKAS_clean_linker_0, # of connection points: 2
#     Edge 28, Type (0, 0), BuildingBlock: ZUJKAS_clean_linker_0, # of connection points: 2
#     Edge 29, Type (0, 0), BuildingBlock: ZUJKAS_clean_linker_0, # of connection points: 2
#     Edge 30, Type (0, 0), BuildingBlock: ZUJKAS_clean_linker_0, # of connection points: 2
#     Edge 31, Type (0, 0), BuildingBlock: ZUJKAS_clean_linker_0, # of connection points: 2
#     Edge 32, Type (0, 0), BuildingBlock: ZUJKAS_clean_linker_0, # of connection points: 2
#     Edge 33, Type (0, 0), BuildingBlock: ZUJKAS_clean_linker_0, # of connection points: 2
#     Edge 34, Type (0, 0), BuildingBlock: ZUJKAS_clean_linker_0, # of connection points: 2
#     Edge 35, Type (0, 0), BuildingBlock: ZUJKAS_clean_linker_0, # of connection points: 2
#     Edge 36, Type (0, 0), BuildingBlock: ZUJKAS_clean_linker_0, # of connection points: 2
#     Edge 37, Type (0, 0), BuildingBlock: ZUJKAS_clean_linker_0, # of connection points: 2
#     Edge 38, Type (0, 0), BuildingBlock: ZUJKAS_clean_linker_0, # of connection points: 2
#     Edge 39, Type (0, 0), BuildingBlock: ZUJKAS_clean_linker_0, # of connection points: 2
#     Edge 40, Type (0, 0), BuildingBlock: ZUJKAS_clean_linker_0, # of connection points: 2
#     Edge 41, Type (0, 0), BuildingBlock: ZUJKAS_clean_linker_0, # of connection points: 2
#     Edge 42, Type (0, 0), BuildingBlock: ZUJKAS_clean_linker_0, # of connection points: 2
#     Edge 43, Type (0, 0), BuildingBlock: ZUJKAS_clean_linker_0, # of connection points: 2
#     Edge 44, Type (0, 0), BuildingBlock: ZUJKAS_clean_linker_0, # of connection points: 2
#     Edge 45, Type (0, 0), BuildingBlock: ZUJKAS_clean_linker_0, # of connection points: 2
#     Edge 46, Type (0, 0), BuildingBlock: ZUJKAS_clean_linker_0, # of connection points: 2
#     Edge 47, Type (0, 0), BuildingBlock: ZUJKAS_clean_linker_0, # of connection points: 2
# Relax obj value: 0.062
# Max RMSD: 0.119
# Mean RMSD: 0.119
data_MOF--net-neb--node1-TATPOV_clean_sbu_0--edge1-ZUJKAS_clean_linker_0
_symmetry_space_group_name_H-M    P1
_symmetry_Int_Tables_number       1
_symmetry_cell_setting            triclinic
loop_
_symmetry_equiv_pos_as_xyz
'x, y, z'
_cell_length_a     59.239229
_cell_length_b     28.284586
_cell_length_c     91.679587
_cell_angle_alpha  90.033018
_cell_angle_beta   94.181613
_cell_angle_gamma 89.940828
loop_
_atom_site_label
_atom_site_type_symbol
_atom_site_fract_x
_atom_site_fract_y
_atom_site_fract_z
_atom_type_partial_charge
Zn0 Zn 0.18382 0.01683 0.43636 0.0
Zn1 Zn 0.14454 0.03377 0.44704 0.0
O2 O 0.16868 0.06551 0.46178 0.0
O3 O 0.20125 0.04962 0.45272 0.0
O4 O 0.11474 0.03861 0.45689 0.0
O5 O 0.18067 0.9467 0.43638 0.0
O6 O 0.14591 0.96205 0.44192 0.0
C7 C 0.19026 0.06904 0.46241 0.0
C8 C 0.15326 0.0756 0.41764 0.0
O9 O 0.14026 0.07266 0.42811 0.0
O10 O 0.17215 0.05429 0.41848 0.0
C11 C 0.11162 0.0115 0.46766 0.0
O12 O 0.12799 0.9826 0.47228 0.0
C13 C 0.16088 0.93262 0.43831 0.0
Zn14 Zn 0.07896 0.01596 0.82155 0.0
Zn15 Zn 0.11857 0.02653 0.81001 0.0
O16 O 0.0949 0.06054 0.79551 0.0
O17 O 0.06219 0.04841 0.80484 0.0
O18 O 0.14817 0.02933 0.79992 0.0
O19 O 0.08122 0.94553 0.82202 0.0
O20 O 0.11544 0.95494 0.81458 0.0
C21 C 0.07343 0.06605 0.79498 0.0
C22 C 0.11174 0.07158 0.83946 0.0
O23 O 0.1245 0.06419 0.82906 0.0
O24 O 0.09186 0.05475 0.83881 0.0
C25 C 0.15085 0.00298 0.78891 0.0
O26 O 0.13414 0.97524 0.78411 0.0
C27 C 0.09997 0.92819 0.81896 0.0
Zn28 Zn 0.82798 0.97137 0.56842 0.0
Zn29 Zn 0.86643 0.96038 0.55615 0.0
O30 O 0.84208 0.92807 0.54168 0.0
O31 O 0.81011 0.93996 0.55196 0.0
O32 O 0.89579 0.95783 0.54573 0.0
O33 O 0.83022 0.04136 0.56958 0.0
O34 O 0.86383 0.03202 0.5613 0.0
C35 C 0.82063 0.92286 0.54166 0.0
C36 C 0.86052 0.91425 0.58564 0.0
O37 O 0.87271 0.92065 0.57489 0.0
O38 O 0.84098 0.93261 0.58548 0.0
C39 C 0.89868 0.98583 0.53515 0.0
O40 O 0.88224 0.015 0.53086 0.0
C41 C 0.84886 0.05875 0.56636 0.0
Zn42 Zn 0.94049 0.97545 0.18598 0.0
Zn43 Zn 0.9018 0.97604 0.19849 0.0
O44 O 0.92428 0.93963 0.21328 0.0
O45 O 0.95661 0.94305 0.20289 0.0
O46 O 0.87256 0.9837 0.2088 0.0
O47 O 0.9421 0.04529 0.18397 0.0
O48 O 0.90866 0.04583 0.1929 0.0
C49 C 0.94538 0.92986 0.21337 0.0
C50 C 0.90469 0.92457 0.1695 0.0
O51 O 0.89297 0.93632 0.18007 0.0
O52 O 0.92523 0.93705 0.16955 0.0
C53 C 0.86483 0.95437 0.21772 0.0
O54 O 0.87606 0.91507 0.22073 0.0
C55 C 0.92486 0.06784 0.18743 0.0
Zn56 Zn 0.18326 0.51944 0.93626 0.0
Zn57 Zn 0.1471 0.52628 0.95094 0.0
O58 O 0.17187 0.56331 0.96377 0.0
O59 O 0.2015 0.55912 0.95065 0.0
O60 O 0.11988 0.52266 0.96338 0.0
O61 O 0.18531 0.44949 0.93721 0.0
O62 O 0.152 0.45483 0.94617 0.0
C63 C 0.19245 0.5738 0.96188 0.0
C64 C 0.1461 0.56736 0.92035 0.0
O65 O 0.13665 0.56394 0.93237 0.0
O66 O 0.16545 0.54943 0.91906 0.0
C67 C 0.10304 0.55081 0.96271 0.0
O68 O 0.1028 0.58677 0.95364 0.0
C69 C 0.16771 0.42973 0.94125 0.0
Zn70 Zn 0.08296 0.51616 0.31714 0.0
Zn71 Zn 0.11943 0.53116 0.3033 0.0
O72 O 0.09336 0.56381 0.29035 0.0
O73 O 0.06316 0.55199 0.3025 0.0
O74 O 0.14688 0.53447 0.29106 0.0
O75 O 0.08461 0.44607 0.31633 0.0
O76 O 0.11808 0.45917 0.30829 0.0
C77 C 0.07221 0.56976 0.2917 0.0
C78 C 0.11714 0.57207 0.33359 0.0
O79 O 0.1274 0.57063 0.32184 0.0
O80 O 0.09865 0.55014 0.33449 0.0
C81 C 0.16565 0.51591 0.29572 0.0
O82 O 0.16727 0.49658 0.30878 0.0
C83 C 0.10351 0.43059 0.3129 0.0
Zn84 Zn 0.82649 0.47396 0.06954 0.0
Zn85 Zn 0.86486 0.47459 0.05666 0.0
O86 O 0.84174 0.4385 0.04225 0.0
O87 O 0.80951 0.44298 0.05269 0.0
O88 O 0.89304 0.48204 0.04525 0.0
O89 O 0.8254 0.54375 0.07202 0.0
O90 O 0.85847 0.54427 0.06259 0.0
C91 C 0.8206 0.42938 0.0422 0.0
C92 C 0.86274 0.4219 0.0854 0.0
O93 O 0.8744 0.43466 0.07492 0.0
O94 O 0.84213 0.43396 0.08545 0.0
C95 C 0.9099 0.45394 0.04577 0.0
O96 O 0.90964 0.41618 0.05409 0.0
C97 C 0.84255 0.56621 0.06841 0.0
Zn98 Zn 0.94036 0.47277 0.68789 0.0
Zn99 Zn 0.90137 0.4594 0.69932 0.0
O100 O 0.92599 0.427 0.71357 0.0
O101 O 0.9585 0.44266 0.70445 0.0
O102 O 0.8726 0.45572 0.71031 0.0
O103 O 0.93718 0.54273 0.68664 0.0
O104 O 0.90334 0.5311 0.69433 0.0
C105 C 0.94756 0.42348 0.71419 0.0
C106 C 0.90857 0.41396 0.67013 0.0
O107 O 0.89547 0.42049 0.68041 0.0
O108 O 0.92812 0.4324 0.6709 0.0
C109 C 0.85472 0.47826 0.70598 0.0
O110 O 0.85455 0.5026 0.69377 0.0
C111 C 0.91814 0.55884 0.68959 0.0
Zn112 Zn 0.69102 0.01976 0.93271 0.0
Zn113 Zn 0.65286 0.03189 0.94528 0.0
O114 O 0.67772 0.0657 0.95892 0.0
O115 O 0.70945 0.05404 0.94836 0.0
O116 O 0.62468 0.03458 0.95688 0.0
O117 O 0.68933 0.94952 0.93264 0.0
O118 O 0.65552 0.96006 0.94052 0.0
C119 C 0.69907 0.07176 0.95862 0.0
C120 C 0.65722 0.07476 0.91536 0.0
O121 O 0.64547 0.07017 0.92641 0.0
O122 O 0.67665 0.05592 0.91541 0.0
C123 C 0.60678 0.01179 0.95279 0.0
O124 O 0.60624 0.98773 0.94051 0.0
C125 C 0.6706 0.93268 0.93589 0.0
Zn126 Zn 0.57993 0.02107 0.31597 0.0
Zn127 Zn 0.62005 0.02718 0.3051 0.0
O128 O 0.59747 0.06067 0.28969 0.0
O129 O 0.5642 0.0516 0.29857 0.0
O130 O 0.65008 0.02254 0.29554 0.0
O131 O 0.58049 0.9508 0.31791 0.0
O132 O 0.61526 0.95729 0.3112 0.0
C133 C 0.57605 0.06724 0.28872 0.0
C134 C 0.61306 0.07771 0.3335 0.0
O135 O 0.6262 0.06805 0.32348 0.0
O136 O 0.59298 0.06188 0.33272 0.0
C137 C 0.6574 0.05145 0.28634 0.0
O138 O 0.64525 0.08897 0.28257 0.0
C139 C 0.59933 0.93212 0.31574 0.0
Zn140 Zn 0.33697 0.97886 0.06645 0.0
Zn141 Zn 0.37363 0.96123 0.05307 0.0
O142 O 0.34742 0.93034 0.03983 0.0
O143 O 0.31719 0.94286 0.05188 0.0
O144 O 0.40126 0.95643 0.041 0.0
O145 O 0.33912 0.04901 0.06519 0.0
O146 O 0.37311 0.03298 0.05838 0.0
C147 C 0.32622 0.92497 0.04108 0.0
C148 C 0.37026 0.92122 0.08328 0.0
O149 O 0.38062 0.9212 0.07156 0.0
O150 O 0.35221 0.94493 0.08405 0.0
C151 C 0.4196 0.9777 0.04507 0.0
O152 O 0.4208 0.00091 0.05752 0.0
C153 C 0.35861 0.06279 0.0624 0.0
Zn154 Zn 0.43259 0.97874 0.68597 0.0
Zn155 Zn 0.39409 0.96387 0.69797 0.0
O156 O 0.4187 0.93148 0.71215 0.0
O157 O 0.45061 0.94556 0.70206 0.0
O158 O 0.36486 0.95904 0.70839 0.0
O159 O 0.4296 0.04886 0.68585 0.0
O160 O 0.39573 0.03586 0.69332 0.0
C161 C 0.44018 0.92696 0.71215 0.0
C162 C 0.4006 0.92141 0.66816 0.0
O163 O 0.38841 0.92537 0.67901 0.0
O164 O 0.41973 0.94155 0.66842 0.0
C165 C 0.36211 0.98545 0.71938 0.0
O166 O 0.37856 0.01417 0.72395 0.0
C167 C 0.41048 0.06434 0.68888 0.0
Zn168 Zn 0.68198 0.52016 0.43479 0.0
Zn169 Zn 0.64573 0.52388 0.44946 0.0
O170 O 0.67023 0.55966 0.46291 0.0
O171 O 0.70002 0.55756 0.44988 0.0
O172 O 0.61824 0.51713 0.46155 0.0
O173 O 0.68442 0.45032 0.43459 0.0
O174 O 0.65108 0.45341 0.44359 0.0
C175 C 0.69084 0.57053 0.46125 0.0
C176 C 0.64472 0.56993 0.41959 0.0
O177 O 0.63522 0.5644 0.43151 0.0
O178 O 0.66412 0.55262 0.41805 0.0
C179 C 0.60236 0.54721 0.46231 0.0
O180 O 0.60348 0.58738 0.4552 0.0
C181 C 0.66689 0.42951 0.43832 0.0
Zn182 Zn 0.58054 0.51872 0.81628 0.0
Zn183 Zn 0.61818 0.53136 0.80314 0.0
O184 O 0.5929 0.56544 0.78986 0.0
O185 O 0.56162 0.55271 0.80081 0.0
O186 O 0.64615 0.53436 0.79135 0.0
O187 O 0.58249 0.44851 0.81634 0.0
O188 O 0.61577 0.45939 0.80774 0.0
C189 C 0.57156 0.57098 0.79046 0.0
C190 C 0.61461 0.57394 0.83324 0.0
O191 O 0.62603 0.56921 0.82204 0.0
O192 O 0.5952 0.55519 0.83343 0.0
C193 C 0.66414 0.5119 0.79551 0.0
O194 O 0.66474 0.48825 0.80786 0.0
C195 C 0.60103 0.43184 0.81264 0.0
Zn196 Zn 0.32508 0.4773 0.56689 0.0
Zn197 Zn 0.36445 0.46467 0.55553 0.0
O198 O 0.34089 0.43147 0.54076 0.0
O199 O 0.3083 0.44475 0.55016 0.0
O200 O 0.39452 0.46539 0.54587 0.0
O201 O 0.327 0.54751 0.56769 0.0
O202 O 0.36115 0.53609 0.5605 0.0
C203 C 0.31938 0.42666 0.54028 0.0
C204 C 0.35718 0.42011 0.58489 0.0
O205 O 0.36992 0.42531 0.57436 0.0
O206 O 0.33778 0.43928 0.5843 0.0
C207 C 0.39966 0.44132 0.53485 0.0
O208 O 0.38498 0.41078 0.52896 0.0
C209 C 0.34605 0.56383 0.56491 0.0
Zn210 Zn 0.43773 0.47847 0.18444 0.0
Zn211 Zn 0.40082 0.4609 0.19758 0.0
O212 O 0.42692 0.42945 0.21082 0.0
O213 O 0.45747 0.44285 0.19917 0.0
O214 O 0.37312 0.45663 0.20957 0.0
O215 O 0.43544 0.54862 0.18559 0.0
O216 O 0.40136 0.53261 0.19222 0.0
C217 C 0.44819 0.42443 0.20978 0.0
C218 C 0.40449 0.42083 0.16745 0.0
O219 O 0.3939 0.42103 0.17908 0.0
O220 O 0.42265 0.44422 0.16683 0.0
C221 C 0.35428 0.47473 0.20483 0.0
O222 O 0.3527 0.49414 0.19177 0.0
C223 C 0.41588 0.56239 0.18824 0.0
H224 H 0.33666 0.35559 0.52393 0.0
H225 H 0.31491 0.29488 0.50984 0.0
H226 H 0.25278 0.36531 0.5187 0.0
H227 H 0.27421 0.4259 0.53256 0.0
H228 H 0.28303 0.23633 0.52239 0.0
H229 H 0.24276 0.33522 0.47518 0.0
H230 H 0.26699 0.35754 0.48617 0.0
H231 H 0.23906 0.36267 0.49251 0.0
C232 C 0.31842 0.35885 0.52249 0.0
C233 C 0.30717 0.3955 0.52938 0.0
C234 C 0.30601 0.32399 0.51454 0.0
C235 C 0.28223 0.32573 0.51316 0.0
C236 C 0.2711 0.36361 0.51941 0.0
H237 H 0.17339 0.141 0.4786 0.0
H238 H 0.19545 0.20161 0.49251 0.0
C239 C 0.28341 0.39815 0.5274 0.0
C240 C 0.26883 0.286 0.50645 0.0
H241 H 0.22737 0.25935 0.47988 0.0
C242 C 0.27101 0.24122 0.513 0.0
C243 C 0.25294 0.29262 0.49434 0.0
C244 C 0.2504 0.3395 0.48654 0.0
C245 C 0.25746 0.20304 0.50793 0.0
C246 C 0.24155 0.20968 0.49583 0.0
C247 C 0.2394 0.25445 0.48926 0.0
C248 C 0.22799 0.17005 0.48919 0.0
C249 C 0.25999 0.15619 0.51574 0.0
C250 C 0.23892 0.13179 0.48301 0.0
C251 C 0.22642 0.09725 0.47514 0.0
C252 C 0.20268 0.10031 0.47319 0.0
C253 C 0.19162 0.13741 0.48 0.0
C254 C 0.20421 0.17222 0.48785 0.0
H255 H 0.26766 0.16049 0.52709 0.0
H256 H 0.24338 0.13824 0.51615 0.0
H257 H 0.27127 0.13294 0.50977 0.0
H258 H 0.25723 0.12975 0.48369 0.0
H259 H 0.23549 0.06918 0.47003 0.0
H260 H 0.90953 0.04105 0.5122 0.0
H261 H 0.94539 0.04459 0.50066 0.0
H262 H 0.9733 0.93811 0.53041 0.0
H263 H 0.9373 0.9338 0.54192 0.0
H264 H 0.98774 0.06839 0.51278 0.0
H265 H 0.98841 0.88546 0.49095 0.0
H266 H 0.9634 0.91206 0.49757 0.0
H267 H 0.9852 0.88873 0.51024 0.0
C268 C 0.92321 0.01807 0.51626 0.0
C269 C 0.92043 0.98693 0.52797 0.0
C270 C 0.94376 0.02025 0.50964 0.0
C271 C 0.962 0.9912 0.51451 0.0
C272 C 0.95935 0.96018 0.52624 0.0
H273 H 0.10031 0.95743 0.49072 0.0
H274 H 0.06423 0.95441 0.50197 0.0
C275 C 0.93876 0.95793 0.53287 0.0
C276 C 0.98393 0.99449 0.50754 0.0
H277 H 0.02198 0.93028 0.48935 0.0
C278 C 0.99518 0.03823 0.5076 0.0
C279 C 0.99366 0.95518 0.50076 0.0
C280 C 0.98198 0.90779 0.49972 0.0
C281 C 0.01604 0.04351 0.50134 0.0
C282 C 0.02579 0.00417 0.4946 0.0
C283 C 0.01453 0.96045 0.49452 0.0
C284 C 0.04786 0.00727 0.4878 0.0
C285 C 0.02772 0.0909 0.50235 0.0
C286 C 0.05075 0.03786 0.476 0.0
C287 C 0.07148 0.03979 0.46952 0.0
C288 C 0.08972 0.01091 0.47466 0.0
C289 C 0.08671 0.98028 0.48647 0.0
C290 C 0.06603 0.97841 0.49292 0.0
H291 H 0.02109 0.11356 0.51098 0.0
H292 H 0.04626 0.0866 0.5047 0.0
H293 H 0.02478 0.1096 0.49175 0.0
H294 H 0.03686 0.05982 0.47165 0.0
H295 H 0.07312 0.06354 0.4604 0.0
H296 H 0.35149 0.03766 0.74304 0.0
H297 H 0.31583 0.03931 0.75484 0.0
H298 H 0.28779 0.93602 0.72403 0.0
H299 H 0.3236 0.93363 0.71225 0.0
H300 H 0.27322 0.06389 0.74302 0.0
H301 H 0.27347 0.87886 0.76313 0.0
H302 H 0.29831 0.9066 0.7567 0.0
H303 H 0.27651 0.8843 0.74385 0.0
C304 C 0.33782 0.01498 0.73881 0.0
C305 C 0.3405 0.98533 0.72671 0.0
C306 C 0.31739 0.01607 0.74557 0.0
C307 C 0.29917 0.98737 0.74047 0.0
C308 C 0.30173 0.95778 0.72837 0.0
H309 H 0.16149 0.95034 0.76533 0.0
H310 H 0.19724 0.94814 0.75364 0.0
C311 C 0.3222 0.95664 0.72159 0.0
C312 C 0.27736 0.98961 0.74758 0.0
H313 H 0.23993 0.92319 0.76551 0.0
C314 C 0.26599 0.03316 0.74799 0.0
C315 C 0.2679 0.94953 0.75407 0.0
C316 C 0.27974 0.90224 0.75457 0.0
C317 C 0.24527 0.03755 0.75446 0.0
C318 C 0.2358 -0.00252 0.76095 0.0
C319 C 0.24717 0.95392 0.76054 0.0
C320 C 0.21399 -0.00023 0.76807 0.0
C321 C 0.23342 0.08484 0.75397 0.0
C322 C 0.21148 0.0293 0.78019 0.0
C323 C 0.19097 0.03075 0.78691 0.0
C324 C 0.17258 0.00244 0.78171 0.0
C325 C 0.17523 0.97274 0.76962 0.0
C326 C 0.19571 0.97134 0.76292 0.0
H327 H 0.23972 0.10827 0.74543 0.0
H328 H 0.21485 0.08049 0.75181 0.0
H329 H 0.23662 0.10274 0.76469 0.0
H330 H 0.22548 0.05087 0.78456 0.0
H331 H 0.1896 0.05379 0.79625 0.0
H332 H 0.0282 0.06935 0.7875 0.0
H333 H 1.00743 0.13014 0.77324 0.0
H334 H 0.07036 0.19642 0.76404 0.0
H335 H 0.09142 0.13506 0.77822 0.0
H336 H 0.00931 0.22507 0.78069 0.0
H337 H 0.03447 0.19726 0.72412 0.0
H338 H 0.03865 0.15284 0.7382 0.0
H339 H 0.05765 0.20224 0.7378 0.0
C340 C 0.0377 0.09626 0.78219 0.0
C341 C 0.06149 0.09747 0.78404 0.0
C342 C 0.02577 0.13107 0.77408 0.0
C343 C 0.03731 0.16782 0.76759 0.0
C344 C 0.06111 0.168 0.76879 0.0
H345 H 0.99298 0.42146 0.72125 0.0
H346 H 0.01443 0.36149 0.73546 0.0
C347 C 0.07313 0.13289 0.77689 0.0
C348 C 0.02427 0.20767 0.76063 0.0
H349 H 0.01332 0.26642 0.7284 0.0
C350 C 0.01012 0.23405 0.76923 0.0
C351 C 0.02542 0.21937 0.74573 0.0
C352 C 0.0397 0.19126 0.73586 0.0
C353 C 0.99725 0.27217 0.76337 0.0
C354 C 0.99833 0.28376 0.74844 0.0
C355 C 0.01255 0.25749 0.73985 0.0
C356 C 0.98495 0.32306 0.74144 0.0
C357 C 0.98299 0.30027 0.77325 0.0
C358 C 0.96116 0.32214 0.74041 0.0
C359 C 0.94875 0.35674 0.73234 0.0
C360 C 0.95999 0.39243 0.72504 0.0
C361 C 0.98378 0.39436 0.72669 0.0
C362 C 0.9961 0.36001 0.73477 0.0
H363 H 0.98849 0.29482 0.78498 0.0
H364 H 0.98373 0.33864 0.77076 0.0
H365 H 0.96511 0.28871 0.7715 0.0
H366 H 0.9522 0.29354 0.74529 0.0
H367 H 0.93048 0.354 0.73117 0.0
H368 H 0.83731 0.85727 0.52304 0.0
H369 H 0.81536 0.79804 0.50845 0.0
H370 H 0.7534 0.85914 0.52179 0.0
H371 H 0.77497 0.91844 0.53606 0.0
H372 H 0.78694 0.73259 0.52026 0.0
H373 H 0.73851 0.84045 0.47835 0.0
H374 H 0.76305 0.86286 0.48898 0.0
H375 H 0.73591 0.86159 0.49661 0.0
C376 C 0.819 0.85885 0.52252 0.0
C377 C 0.80791 0.89254 0.53073 0.0
C378 C 0.80649 0.82482 0.51426 0.0
C379 C 0.78272 0.82437 0.51395 0.0
C380 C 0.77166 0.85925 0.52163 0.0
H381 H 0.67495 0.63355 0.48095 0.0
H382 H 0.69721 0.69343 0.49514 0.0
C383 C 0.78408 0.89304 0.52987 0.0
C384 C 0.76944 0.78525 0.50674 0.0
H385 H 0.72528 0.76172 0.48173 0.0
C386 C 0.7736 0.7389 0.51173 0.0
C387 C 0.75187 0.79359 0.49574 0.0
C388 C 0.74718 0.84226 0.4895 0.0
C389 C 0.76044 0.70077 0.50618 0.0
C390 C 0.7428 0.70917 0.49525 0.0
C391 C 0.73864 0.75547 0.49024 0.0
C392 C 0.72949 0.67007 0.48812 0.0
C393 C 0.76526 0.6519 0.51223 0.0
C394 C 0.74031 0.63684 0.47969 0.0
C395 C 0.72772 0.60292 0.47161 0.0
C396 C 0.70399 0.60148 0.47177 0.0
C397 C 0.69321 0.63352 0.48071 0.0
C398 C 0.70587 0.66787 0.48874 0.0
H399 H 0.77491 0.65318 0.52308 0.0
H400 H 0.74931 0.63201 0.5133 0.0
H401 H 0.77555 0.63213 0.50462 0.0
H402 H 0.75845 0.63829 0.47888 0.0
H403 H 0.73656 0.57875 0.46483 0.0
H404 H 0.67796 0.10567 0.26635 0.0
H405 H 0.71308 0.08892 0.25479 0.0
H406 H 0.7213 0.95975 0.27955 0.0
H407 H 0.68611 0.9759 0.29106 0.0
H408 H 0.75714 0.07571 0.26745 0.0
H409 H 0.72667 0.91476 0.2375 0.0
H410 H 0.70772 0.95562 0.24556 0.0
H411 H 0.72341 0.91314 0.25681 0.0
C412 C 0.6872 0.07364 0.26934 0.0
C413 C 0.67908 0.04202 0.27959 0.0
C414 C 0.7073 0.06414 0.26272 0.0
C415 C 0.71967 0.02269 0.26611 0.0
C416 C 0.71183 0.99146 0.27652 0.0
H417 H 0.84407 0.90031 0.23764 0.0
H418 H 0.80929 0.91792 0.24946 0.0
C419 C 0.69174 0.00093 0.28316 0.0
C420 C 0.74089 0.01249 0.2589 0.0
H421 H 0.76577 0.9322 0.23722 0.0
C422 C 0.759 0.04445 0.26078 0.0
C423 C 0.74334 0.97164 0.25021 0.0
C424 C 0.7242 0.93698 0.24726 0.0
C425 C 0.77961 0.03624 0.25447 0.0
C426 C 0.78206 0.99539 0.24578 0.0
C427 C 0.76393 0.96346 0.24389 0.0
C428 C 0.80328 0.98506 0.23856 0.0
C429 C 0.79876 0.07083 0.25748 0.0
C430 C 0.81139 0.01659 0.22833 0.0
C431 C 0.83132 0.00667 0.22155 0.0
C432 C 0.84352 0.96477 0.22479 0.0
C433 C 0.83518 0.93296 0.2349 0.0
C434 C 0.81526 0.94295 0.24167 0.0
H435 H 0.79639 0.0926 0.26734 0.0
H436 H 0.81527 0.05221 0.25903 0.0
H437 H 0.79943 0.09512 0.24802 0.0
H438 H 0.8022 0.0488 0.22548 0.0
H439 H 0.83712 0.03185 0.21376 0.0
H440 H 0.92625 0.86605 0.23145 0.0
H441 H 0.94631 0.80508 0.24649 0.0
H442 H 0.01025 0.86167 0.23505 0.0
H443 H 0.99054 0.92249 0.22032 0.0
H444 H 0.97458 0.7378 0.23516 0.0
H445 H 0.02209 0.84053 0.27863 0.0
H446 H 0.99843 0.86498 0.26759 0.0
H447 H 0.02611 0.86289 0.2607 0.0
C448 C 0.94458 0.86628 0.23252 0.0
C449 C 0.9568 0.89903 0.22469 0.0
C450 C 0.95601 0.83127 0.24102 0.0
C451 C 0.97979 0.82904 0.24198 0.0
C452 C 0.99194 0.86315 0.23472 0.0
H453 H 0.08682 0.63659 0.27281 0.0
H454 H 0.06368 0.69742 0.25976 0.0
C455 C 0.9806 0.8978 0.22622 0.0
C456 C 0.99207 0.78879 0.24929 0.0
H457 H 0.03555 0.76201 0.27447 0.0
C458 C 0.9877 0.74297 0.24389 0.0
C459 C 0.00933 0.79565 0.26059 0.0
C460 C 0.01413 0.84363 0.26732 0.0
C461 C 1.00058 0.70405 0.24919 0.0
C462 C 0.01813 0.71113 0.26027 0.0
C463 C 0.02227 0.75679 0.26583 0.0
C464 C 0.03184 0.67141 0.2667 0.0
C465 C 0.99573 0.65589 0.24261 0.0
C466 C 0.02155 0.63627 0.27469 0.0
C467 C 0.03466 0.60165 0.28212 0.0
C468 C 0.05838 0.60147 0.28175 0.0
C469 C 0.0686 0.63552 0.27322 0.0
C470 C 0.05543 0.67044 0.26584 0.0
H471 H 0.9858 0.65829 0.23188 0.0
H472 H 0.01169 0.63641 0.24113 0.0
H473 H 0.98574 0.63502 0.25011 0.0
H474 H 1.00344 0.63672 0.27567 0.0
H475 H 0.02623 0.57597 0.2886 0.0
H476 H 0.28033 0.91564 0.03914 0.0
H477 H 0.25766 0.85608 0.02563 0.0
H478 H 0.31737 0.80388 0.00667 0.0
H479 H 0.34044 0.86322 0.02042 0.0
H480 H 0.25023 0.83481 0.99609 0.0
H481 H 0.29309 0.68678 0.02683 0.0
H482 H 0.29642 0.74768 0.03247 0.0
H483 H 0.31166 0.72513 0.0177 0.0
C484 C 0.2887 0.89187 0.03199 0.0
C485 C 0.31229 0.89388 0.03099 0.0
C486 C 0.27566 0.85782 0.02426 0.0
C487 C 0.28589 0.8249 0.01541 0.0
C488 C 0.30922 0.82835 0.01372 0.0
H489 H 0.23797 0.58765 0.96363 0.0
H490 H 0.25957 0.64796 0.9775 0.0
C491 C 0.32234 0.86256 0.02146 0.0
C492 C 0.2721 0.78619 0.00842 0.0
H493 H 0.26596 0.66611 0.00767 0.0
C494 C 0.25361 0.79792 0.99863 0.0
C495 C 0.27643 0.73812 0.01189 0.0
C496 C 0.29534 0.72349 0.02289 0.0
C497 C 0.23967 0.76279 0.99193 0.0
C498 C 0.24413 0.71472 0.99531 0.0
C499 C 0.26252 0.70302 0.00517 0.0
C500 C 0.23086 0.67593 0.98797 0.0
C501 C 0.22068 0.77729 0.98098 0.0
C502 C 0.20759 0.67057 0.98962 0.0
C503 C 0.19508 0.63579 0.98169 0.0
C504 C 0.20569 0.60601 0.97198 0.0
C505 C 0.22919 0.61023 0.97092 0.0
C506 C 0.24162 0.64468 0.97885 0.0
H507 H 0.22237 0.81458 0.97742 0.0
H508 H 0.22015 0.7541 0.97118 0.0
H509 H 0.2043 0.7737 0.98602 0.0
H510 H 0.19905 0.69384 0.99683 0.0
H511 H 0.17702 0.63343 0.98275 0.0
H512 H 0.09728 0.47809 0.9819 0.0
H513 H 0.06444 0.46238 0.9959 0.0
H514 H 0.03178 0.58799 0.978 0.0
H515 H 0.06437 0.60364 0.96382 0.0
H516 H 0.04498 0.51672 0.01691 0.0
H517 H 0.98354 0.48726 0.96915 0.0
H518 H 0.01373 0.48864 0.96758 0.0
H519 H 0.9981 0.54284 0.96884 0.0
C520 C 0.08311 0.5024 0.98092 0.0
C521 C 0.08346 0.54201 0.97164 0.0
C522 C 0.06434 0.49336 0.98894 0.0
C523 C 0.04544 0.52351 0.98782 0.0
C524 C 0.04592 0.56358 0.97881 0.0
H525 H 0.91602 0.52862 0.02735 0.0
H526 H 0.94906 0.54564 0.01367 0.0
C527 C 0.06467 0.57266 0.97077 0.0
C528 C 0.02538 0.51333 0.99622 0.0
H529 H 0.96849 0.49133 0.99241 0.0
C530 C 0.02827 0.51096 0.01155 0.0
C531 C 1.00355 0.50587 0.98924 0.0
C532 C 0.99949 0.50582 0.97279 0.0
C533 C 0.00991 0.50217 0.02007 0.0
C534 C 0.98809 0.49472 0.01309 0.0
C535 C 0.98519 0.49714 0.99776 0.0
C536 C 0.96806 0.48418 0.02147 0.0
C537 C 0.01396 0.50201 0.03651 0.0
C538 C 0.96756 0.44359 0.03025 0.0
C539 C 0.94869 0.43373 0.0381 0.0
C540 C 0.92981 0.46414 0.03727 0.0
C541 C 0.93025 0.50448 0.0283 0.0
C542 C 0.94913 0.51427 0.02045 0.0
H543 H 0.02994 0.52043 0.04018 0.0
H544 H 0.99974 0.5192 0.04174 0.0
H545 H 0.01529 0.46492 0.04043 0.0
H546 H 0.98173 0.41928 0.03098 0.0
H547 H 0.94892 0.40222 0.04481 0.0
H548 H 0.31175 0.50896 0.1975 0.0
H549 H 0.28009 0.51587 0.21304 0.0
H550 H 0.32048 0.45162 0.24872 0.0
H551 H 0.35239 0.44494 0.23327 0.0
H552 H 0.25684 0.44644 0.22761 0.0
H553 H 0.29838 0.57411 0.26696 0.0
H554 H 0.30925 0.56119 0.2495 0.0
H555 H 0.31421 0.52083 0.26453 0.0
C556 C 0.31396 0.49622 0.20865 0.0
C557 C 0.33473 0.47661 0.21414 0.0
C558 C 0.29579 0.50019 0.21752 0.0
C559 C 0.29798 0.48502 0.23213 0.0
C560 C 0.31851 0.46448 0.23758 0.0
H561 H 0.2081 0.48109 0.30294 0.0
H562 H 0.23967 0.47395 0.28734 0.0
C563 C 0.33671 0.46038 0.22869 0.0
C564 C 0.2787 0.49051 0.24158 0.0
H565 H 0.2629 0.54361 0.27279 0.0
C566 C 0.25813 0.46783 0.23746 0.0
C567 C 0.28037 0.51847 0.25443 0.0
C568 C 0.30165 0.54543 0.2591 0.0
C569 C 0.23937 0.47159 0.24596 0.0
C570 C 0.24104 0.49953 0.25882 0.0
C571 C 0.26161 0.52223 0.26294 0.0
C572 C 0.22178 0.50499 0.26828 0.0
C573 C 0.21807 0.44467 0.2413 0.0
C574 C 0.20126 0.52567 0.26287 0.0
C575 C 0.18311 0.52991 0.2718 0.0
C576 C 0.18513 0.51367 0.28634 0.0
C577 C 0.20587 0.49385 0.29179 0.0
C578 C 0.22399 0.48974 0.28288 0.0
H579 H 0.22132 0.41606 0.23341 0.0
H580 H 0.2105 0.42883 0.25089 0.0
H581 H 0.20551 0.46932 0.2359 0.0
H582 H 0.19928 0.53857 0.25173 0.0
H583 H 0.16744 0.54551 0.26725 0.0
H584 H 0.74481 0.08011 0.96337 0.0
H585 H 0.76585 0.1402 0.97776 0.0
H586 H 0.70331 0.19695 0.99164 0.0
H587 H 0.68202 0.13628 0.97737 0.0
H588 H 0.76179 0.23612 0.97307 0.0
H589 H 0.74311 0.19088 0.02984 0.0
H590 H 0.73803 0.15025 0.01477 0.0
H591 H 0.71841 0.19746 0.01744 0.0
C592 C 0.73549 0.1048 0.96969 0.0
C593 C 0.71169 0.10342 0.9692 0.0
C594 C 0.74758 0.13923 0.97788 0.0
C595 C 0.73619 0.17298 0.9858 0.0
C596 C 0.71248 0.17077 0.98579 0.0
H597 H 0.7753 0.42121 0.03568 0.0
H598 H 0.75559 0.36073 0.02072 0.0
C599 C 0.70033 0.13608 0.97763 0.0
C600 C 0.7491 0.21217 0.99323 0.0
H601 H 0.76123 0.26448 0.02641 0.0
C602 C 0.76178 0.24221 0.98475 0.0
C603 C 0.74908 0.21999 0.00845 0.0
C604 C 0.73661 0.18772 0.0182 0.0
C605 C 0.77405 0.28049 0.99105 0.0
C606 C 0.77385 0.28853 0.00625 0.0
C607 C 0.7613 0.2583 0.01474 0.0
C608 C 0.78608 0.32862 0.01364 0.0
C609 C 0.78665 0.31269 0.98136 0.0
C610 C 0.80982 0.33155 0.01429 0.0
C611 C 0.82123 0.3665 0.0228 0.0
C612 C 0.80903 0.39861 0.03092 0.0
C613 C 0.78523 0.39686 0.02963 0.0
C614 C 0.7739 0.36223 0.02111 0.0
H615 H 0.78091 0.30826 0.96963 0.0
H616 H 0.78445 0.35028 0.98446 0.0
H617 H 0.80498 0.30426 0.98268 0.0
H618 H 0.81957 0.30555 0.00875 0.0
H619 H 0.83957 0.36666 0.02368 0.0
H620 H 0.70451 0.46622 0.80135 0.0
H621 H 0.73652 0.46146 0.78604 0.0
H622 H 0.70048 0.54802 0.75339 0.0
H623 H 0.6684 0.55351 0.76873 0.0
H624 H 0.73769 0.42481 0.7581 0.0
H625 H 0.76161 0.61449 0.75877 0.0
H626 H 0.74279 0.58982 0.77139 0.0
H627 H 0.7325 0.60345 0.75294 0.0
C628 C 0.7034 0.48461 0.79096 0.0
C629 C 0.68385 0.51046 0.78632 0.0
C630 C 0.72174 0.48173 0.7822 0.0
C631 C 0.72109 0.50484 0.76863 0.0
C632 C 0.70161 0.53066 0.76394 0.0
H633 H 0.81438 0.52385 0.69978 0.0
H634 H 0.78199 0.52839 0.71479 0.0
C635 C 0.68321 0.53358 0.77271 0.0
C636 C 0.74054 0.50061 0.75926 0.0
H637 H 0.78029 0.56477 0.74265 0.0
C638 C 0.74706 0.4554 0.75477 0.0
C639 C 0.75277 0.54051 0.75488 0.0
C640 C 0.74725 0.5898 0.75983 0.0
C641 C 0.76518 0.44907 0.74585 0.0
C642 C 0.77744 0.48896 0.74149 0.0
C643 C 0.7709 0.53418 0.74596 0.0
C644 C 0.79705 0.4847 0.73225 0.0
C645 C 0.77069 0.39978 0.7409 0.0
C646 C 0.81642 0.45874 0.73707 0.0
C647 C 0.83502 0.45593 0.72847 0.0
C648 C 0.8347 0.47933 0.71491 0.0
C649 C 0.81525 0.50525 0.71013 0.0
C650 C 0.79669 0.508 0.71872 0.0
H651 H 0.75623 0.37523 0.74183 0.0
H652 H 0.77535 0.39979 0.72938 0.0
H653 H 0.78528 0.38592 0.74789 0.0
H654 H 0.81733 0.44124 0.7476 0.0
H655 H 0.84975 0.43595 0.73255 0.0
H656 H 0.56635 0.96631 0.94704 0.0
H657 H 0.53453 0.96141 0.9625 0.0
H658 H 0.57093 0.04747 0.99513 0.0
H659 H 0.60277 0.05315 0.97963 0.0
H660 H 0.53353 0.92429 0.99022 0.0
H661 H 0.50993 0.1141 0.99045 0.0
H662 H 0.52864 0.08981 0.97768 0.0
H663 H 0.53909 0.10299 0.99614 0.0
C664 C 0.56757 0.98457 0.95745 0.0
C665 C 0.58714 0.01034 0.96203 0.0
C666 C 0.54933 0.98163 0.9663 0.0
C667 C 0.55014 0.00455 0.97992 0.0
C668 C 0.56966 0.03028 0.98455 0.0
H669 H 0.46046 0.02157 0.05058 0.0
H670 H 0.49188 0.02612 0.0348 0.0
C671 C 0.58793 0.03331 0.97569 0.0
C672 C 0.53086 0.00018 0.98942 0.0
H673 H 0.49194 0.06423 0.0069 0.0
C674 C 0.52436 0.95488 0.9938 0.0
C675 C 0.51887 0.04006 0.99411 0.0
C676 C 0.5243 0.08947 0.98926 0.0
C677 C 0.50655 0.94845 0.00296 0.0
C678 C 0.49463 0.98835 0.0077 0.0
C679 C 0.50109 0.03363 0.00329 0.0
C680 C 0.47557 0.98406 0.01737 0.0
C681 C 0.50105 0.89906 0.00779 0.0
C682 C 0.4558 0.95898 0.01284 0.0
C683 C 0.43774 0.9562 0.02189 0.0
C684 C 0.43901 0.97869 0.03562 0.0
C685 C 0.45886 0.00368 0.04011 0.0
C686 C 0.47687 0.00644 0.03108 0.0
H687 H 0.51521 0.87412 0.00634 0.0
H688 H 0.49711 0.89863 0.01944 0.0
H689 H 0.48596 0.88604 1.00109 0.0
H690 H 0.45419 0.94217 0.00221 0.0
H691 H 0.42268 0.93694 0.01803 0.0
H692 H 0.4335 0.35577 0.22801 0.0
H693 H 0.45679 0.29542 0.24117 0.0
H694 H 0.51713 0.36038 0.22683 0.0
H695 H 0.49416 0.42063 0.21377 0.0
H696 H 0.48677 0.23349 0.22653 0.0
H697 H 0.53261 0.33684 0.27093 0.0
H698 H 0.50675 0.35752 0.26134 0.0
H699 H 0.53311 0.36168 0.25291 0.0
C700 C 0.45175 0.35787 0.22798 0.0
C701 C 0.46197 0.39298 0.21983 0.0
C702 C 0.46502 0.32322 0.23541 0.0
C703 C 0.48868 0.32358 0.23502 0.0
C704 C 0.49894 0.35977 0.22744 0.0
H705 H 0.59526 0.13414 0.27173 0.0
H706 H 0.57508 0.19467 0.2566 0.0
C707 C 0.48574 0.39412 0.21994 0.0
C708 C 0.50259 0.28423 0.2415 0.0
H709 H 0.54504 0.2583 0.26747 0.0
C710 C 0.49946 0.23882 0.23552 0.0
C711 C 0.51937 0.2915 0.25305 0.0
C712 C 0.52313 0.33941 0.26005 0.0
C713 C 0.51268 0.20039 0.24079 0.0
C714 C 0.52916 0.20739 0.25256 0.0
C715 C 0.53251 0.25301 0.25839 0.0
C716 C 0.54168 0.16737 0.25984 0.0
C717 C 0.50902 0.15276 0.23359 0.0
C718 C 0.52966 0.13147 0.2664 0.0
C719 C 0.54108 0.09699 0.27493 0.0
C720 C 0.56482 0.09778 0.27723 0.0
C721 C 0.57699 0.13234 0.27007 0.0
C722 C 0.56547 0.16711 0.26152 0.0
H723 H 0.5018 0.1564 0.22211 0.0
H724 H 0.52508 0.13244 0.23362 0.0
H725 H 0.49683 0.13214 0.23966 0.0
H726 H 0.51133 0.13139 0.26552 0.0
H727 H 0.53118 0.07091 0.2803 0.0
H728 H 0.48591 0.92158 0.71747 0.0
H729 H 0.5075 0.86073 0.73115 0.0
H730 H 0.44555 0.79966 0.7444 0.0
H731 H 0.42361 0.86037 0.73045 0.0
H732 H 0.51048 0.83201 0.76024 0.0
H733 H 0.47521 0.69016 0.7233 0.0
H734 H 0.47172 0.75214 0.71903 0.0
H735 H 0.45456 0.72471 0.73201 0.0
C736 C 0.47681 0.89563 0.72344 0.0
C737 C 0.45299 0.89553 0.72272 0.0
C738 C 0.48922 0.86083 0.73126 0.0
C739 C 0.47813 0.82505 0.7385 0.0
C740 C 0.45441 0.82642 0.7386 0.0
H741 H 0.52571 0.57722 0.78603 0.0
H742 H 0.50377 0.63821 0.77262 0.0
C743 C 0.44192 0.86141 0.73076 0.0
C744 C 0.49152 0.78551 0.74536 0.0
H745 H 0.50039 0.66641 0.74312 0.0
C746 C 0.50829 0.79579 0.75651 0.0
C747 C 0.48875 0.73836 0.74036 0.0
C748 C 0.47174 0.72552 0.72793 0.0
C749 C 0.52212 0.76007 0.76299 0.0
C750 C 0.51935 0.71294 0.75799 0.0
C751 C 0.50256 0.70263 0.74686 0.0
C752 C 0.53288 0.67348 0.76476 0.0
C753 C 0.53922 0.77288 0.77537 0.0
C754 C 0.55654 0.67194 0.7643 0.0
C755 C 0.56923 0.63684 0.77196 0.0
C756 C 0.55842 0.60285 0.78019 0.0
C757 C 0.53462 0.60307 0.77989 0.0
C758 C 0.52201 0.63793 0.77223 0.0
H759 H 0.53587 0.80834 0.77997 0.0
H760 H 0.5392 0.74636 0.7843 0.0
H761 H 0.55638 0.77336 0.77126 0.0
H762 H 0.56522 0.69859 0.75835 0.0
H763 H 0.58751 0.63765 0.77196 0.0
H764 H 0.41638 0.3951 0.51163 0.0
H765 H 0.45163 0.41081 0.50016 0.0
H766 H 0.46738 0.52289 0.53113 0.0
H767 H 0.43239 0.50687 0.54283 0.0
H768 H 0.46477 0.49076 0.48676 0.0
H769 H 0.52624 0.44932 0.53348 0.0
H770 H 0.49676 0.43306 0.53322 0.0
H771 H 0.50551 0.49246 0.5378 0.0
C772 C 0.42743 0.42281 0.51611 0.0
C773 C 0.42154 0.44955 0.52822 0.0
C774 C 0.44759 0.43182 0.50951 0.0
C775 C 0.46239 0.46762 0.51488 0.0
C776 C 0.45656 0.49436 0.52697 0.0
H777 H 0.56562 0.60359 0.46629 0.0
H778 H 0.53203 0.58424 0.47909 0.0
C779 C 0.43643 0.4853 0.53361 0.0
C780 C 0.48339 0.47821 0.50745 0.0
H781 H 0.54092 0.48792 0.51311 0.0
C782 C 0.48142 0.48995 0.49252 0.0
C783 C 0.5052 0.47661 0.51489 0.0
C784 C 0.50865 0.46173 0.53069 0.0
C785 C 0.50052 0.50089 0.48491 0.0
C786 C 0.52224 0.50101 0.49248 0.0
C787 C 0.52427 0.48841 0.50734 0.0
C788 C 0.54305 0.51346 0.4851 0.0
C789 C 0.49727 0.51139 0.46876 0.0
C790 C 0.56086 0.48079 0.48461 0.0
C791 C 0.58022 0.4919 0.47739 0.0
C792 C 0.58226 0.53608 0.47053 0.0
C793 C 0.5646 0.56912 0.47133 0.0
C794 C 0.54528 0.558 0.47858 0.0
H795 H 0.48092 0.4973 0.46388 0.0
H796 H 0.49721 0.55025 0.4671 0.0
H797 H 0.51121 0.49608 0.4628 0.0
H798 H 0.55962 0.44631 0.48963 0.0
H799 H 0.59347 0.4656 0.47704 0.0
H800 H 0.11657 0.55067 0.36239 0.0
H801 H 0.1262 0.60265 0.38324 0.0
H802 H 0.14471 0.71258 0.35373 0.0
H803 H 0.13655 0.6593 0.33293 0.0
H804 H 0.17191 0.71518 0.37674 0.0
H805 H 0.08531 0.70297 0.39544 0.0
H806 H 0.09917 0.64664 0.39562 0.0
H807 H 0.0928 0.67699 0.37852 0.0
C808 C 0.12304 0.58574 0.36042 0.0
C809 C 0.12571 0.60125 0.3461 0.0
C810 C 0.12826 0.61561 0.37231 0.0
C811 C 0.13538 0.66221 0.37006 0.0
C812 C 0.13904 0.67695 0.35577 0.0
H813 H 0.12125 0.90585 0.42398 0.0
H814 H 0.11524 0.83495 0.40903 0.0
C815 C 0.13445 0.64653 0.34388 0.0
C816 C 0.13855 0.69598 0.38249 0.0
H817 H 0.11221 0.74462 0.41087 0.0
C818 C 0.15883 0.72163 0.38419 0.0
C819 C 0.12136 0.70496 0.39212 0.0
C820 C 0.09837 0.68181 0.39026 0.0
C821 C 0.16228 0.75654 0.39501 0.0
C822 C 0.14541 0.76438 0.40496 0.0
C823 C 0.12529 0.73812 0.40343 0.0
C824 C 0.14741 0.80273 0.4161 0.0
C825 C 0.18349 0.78617 0.39508 0.0
C826 C 0.16679 0.80695 0.42579 0.0
C827 C 0.17048 0.84807 0.43409 0.0
C828 C 0.15441 0.88471 0.43326 0.0
C829 C 0.13386 0.87802 0.4249 0.0
C830 C 0.13048 0.83755 0.41627 0.0
H831 H 0.19125 0.78456 0.38441 0.0
H832 H 0.17992 0.82378 0.39752 0.0
H833 H 0.19616 0.77259 0.40357 0.0
H834 H 0.17966 0.77968 0.42634 0.0
H835 H 0.1864 0.85229 0.44055 0.0
H836 H 0.11767 0.13751 0.41336 0.0
H837 H 0.10898 0.18892 0.39217 0.0
H838 H 0.16577 0.13119 0.37126 0.0
H839 H 0.17457 0.07976 0.39227 0.0
H840 H 0.14033 0.25666 0.38209 0.0
H841 H 0.11279 0.12674 0.3389 0.0
H842 H 0.11291 0.11351 0.35819 0.0
H843 H 0.13892 0.11317 0.34929 0.0
C844 C 0.12814 0.13534 0.40418 0.0
C845 C 0.14685 0.10464 0.40454 0.0
C846 C 0.12316 0.1647 0.39209 0.0
C847 C 0.1366 0.1634 0.3801 0.0
C848 C 0.15497 0.13214 0.38029 0.0
H849 H 0.14614 0.39411 0.31822 0.0
H850 H 0.1559 0.32299 0.33258 0.0
C851 C 0.16005 0.10303 0.39238 0.0
C852 C 0.13257 0.19735 0.36791 0.0
H853 H 0.11816 0.20588 0.33122 0.0
C854 C 0.13549 0.2456 0.37097 0.0
C855 C 0.12626 0.18264 0.35344 0.0
C856 C 0.12234 0.13123 0.3497 0.0
C857 C 0.1323 0.27969 0.35993 0.0
C858 C 0.12626 0.26503 0.34541 0.0
C859 C 0.12318 0.21679 0.34233 0.0
C860 C 0.12122 0.30021 0.3337 0.0
C861 C 0.13491 0.33129 0.36393 0.0
C862 C 0.09865 0.30902 0.32882 0.0
C863 C 0.09302 0.3495 0.32065 0.0
C864 C 0.10992 0.38171 0.31719 0.0
C865 C 0.13274 0.37004 0.32072 0.0
C866 C 0.13835 0.32958 0.32899 0.0
H867 H 0.13604 0.33695 0.37595 0.0
H868 H 0.15061 0.3452 0.3596 0.0
H869 H 0.12044 0.35215 0.35896 0.0
H870 H 0.08523 0.2866 0.3323 0.0
H871 H 0.0753 0.35734 0.31797 0.0
H872 H 0.0864 0.1078 0.86048 0.0
H873 H 0.09889 0.15857 0.881 0.0
H874 H 0.16757 0.15026 0.86847 0.0
H875 H 0.15506 0.10053 0.84754 0.0
H876 H 0.12853 0.14756 0.90468 0.0
H877 H 0.15731 0.29098 0.86909 0.0
H878 H 0.14111 0.2412 0.8619 0.0
H879 H 0.17103 0.23534 0.86651 0.0
C880 C 0.10419 0.11668 0.86207 0.0
C881 C 0.11971 0.10059 0.85226 0.0
C882 C 0.11131 0.14559 0.87385 0.0
C883 C 0.13409 0.15885 0.87614 0.0
C884 C 0.1498 0.14139 0.86671 0.0
H885 H 0.19936 0.36488 0.93454 0.0
H886 H 0.19221 0.29098 0.9213 0.0
C887 C 0.14265 0.11287 0.85478 0.0
C888 C 0.14104 0.19241 0.88806 0.0
H889 H 0.16385 0.3018 0.89451 0.0
C890 C 0.13634 0.18122 0.90248 0.0
C891 C 0.15103 0.23651 0.88515 0.0
C892 C 0.15523 0.25204 0.86982 0.0
C893 C 0.1414 0.21302 0.91405 0.0
C894 C 0.15139 0.2569 0.91108 0.0
C895 C 0.15638 0.26778 0.89674 0.0
C896 C 0.15591 0.29367 0.92239 0.0
C897 C 0.13607 0.19967 0.92934 0.0
C898 C 0.1379 0.31844 0.928 0.0
C899 C 0.14191 0.36091 0.9356 0.0
C900 C 0.16398 0.37928 0.93753 0.0
C901 C 0.18213 0.35192 0.93312 0.0
C902 C 0.17811 0.30962 0.92555 0.0
H903 H 0.13278 0.16119 0.93033 0.0
H904 H 0.15022 0.20972 0.93735 0.0
H905 H 0.12074 0.21914 0.93223 0.0
H906 H 0.12061 0.30695 0.92552 0.0
H907 H 0.12757 0.38117 0.93882 0.0
H908 H 0.12466 0.65247 0.92096 0.0
H909 H 0.11343 0.70266 0.89994 0.0
H910 H 0.13178 0.59154 0.8707 0.0
H911 H 0.14456 0.54291 0.89175 0.0
H912 H 0.1489 0.66617 0.86221 0.0
H913 H 0.06084 0.71193 0.87164 0.0
H914 H 0.07869 0.72812 0.88744 0.0
H915 H 0.07607 0.66673 0.88216 0.0
C916 C 0.12578 0.63854 0.91002 0.0
C917 C 0.13539 0.59397 0.90791 0.0
C918 C 0.11923 0.66708 0.89799 0.0
C919 C 0.12137 0.65077 0.88364 0.0
C920 C 0.12995 0.6051 0.8816 0.0
H921 H 0.07102 0.85337 0.81718 0.0
H922 H 0.07647 0.77734 0.82966 0.0
C923 C 0.13714 0.57723 0.89362 0.0
C924 C 0.11691 0.68285 0.87088 0.0
H925 H 0.08046 0.76721 0.85677 0.0
C926 C 0.13368 0.68754 0.86087 0.0
C927 C 0.09688 0.71009 0.86878 0.0
C928 C 0.07703 0.70347 0.878 0.0
C929 C 0.1315 0.72024 0.84935 0.0
C930 C 0.11254 0.75084 0.84818 0.0
C931 C 0.09523 0.74443 0.85771 0.0
C932 C 0.11093 0.79187 0.83799 0.0
C933 C 0.14958 0.72128 0.83858 0.0
C934 C 0.12879 0.8246 0.83788 0.0
C935 C 0.12594 0.86727 0.8303 0.0
C936 C 0.10492 0.87875 0.82313 0.0
C937 C 0.08743 0.84519 0.82259 0.0
C938 C 0.09049 0.80192 0.82981 0.0
H939 H 0.15678 0.68542 0.83715 0.0
H940 H 0.14293 0.73459 0.82771 0.0
H941 H 0.16363 0.74448 0.84287 0.0
H942 H 0.14448 0.81872 0.84444 0.0
H943 H 0.13955 0.89292 0.83113 0.0
H944 H 0.93439 0.38713 0.64815 0.0
H945 H 0.92375 0.33632 0.62731 0.0
H946 H 0.85648 0.32251 0.6418 0.0
H947 H 0.86697 0.37355 0.66291 0.0
H948 H 0.90578 0.2395 0.63098 0.0
H949 H 0.84905 0.35782 0.59641 0.0
H950 H 0.87019 0.38029 0.60986 0.0
H951 H 0.84462 0.35474 0.61562 0.0
C952 C 0.91724 0.37369 0.64691 0.0
C953 C 0.90152 0.38435 0.65725 0.0
C954 C 0.91122 0.34472 0.63495 0.0
C955 C 0.88932 0.32618 0.63297 0.0
C956 C 0.87341 0.33713 0.64309 0.0
H957 H 0.82061 0.12355 0.57747 0.0
H958 H 0.83173 0.19357 0.59163 0.0
C959 C 0.87946 0.36599 0.65517 0.0
C960 C 0.88381 0.29253 0.62089 0.0
H961 H 0.85224 0.27851 0.58853 0.0
C962 C 0.8942 0.248 0.62163 0.0
C963 C 0.86869 0.30401 0.60879 0.0
C964 C 0.85753 0.35189 0.60747 0.0
C965 C 0.88935 0.21385 0.61077 0.0
C966 C 0.87422 0.22519 0.59858 0.0
C967 C 0.86404 0.27011 0.59777 0.0
C968 C 0.86713 0.18912 0.58742 0.0
C969 C 0.89971 0.16527 0.61283 0.0
C970 C 0.88309 0.16507 0.57954 0.0
C971 C 0.87682 0.12444 0.57151 0.0
C972 C 0.85444 0.10769 0.57113 0.0
C973 C 0.83808 0.135 0.5777 0.0
C974 C 0.84439 0.17522 0.58581 0.0
H975 H 0.90658 0.15931 0.62429 0.0
H976 H 0.88707 0.13727 0.60989 0.0
H977 H 0.91388 0.16148 0.60565 0.0
H978 H 0.90063 0.17611 0.5803 0.0
H979 H 0.88979 0.10455 0.56645 0.0
H980 H 0.87569 0.59602 0.68409 0.0
H981 H 0.86611 0.66654 0.66942 0.0
H982 H 0.93691 0.70088 0.66895 0.0
H983 H 0.9467 0.63062 0.68357 0.0
H984 H 0.90351 0.78257 0.67058 0.0
H985 H 0.88589 0.65211 0.62566 0.0
H986 H 0.87185 0.64278 0.64218 0.0
H987 H 0.90205 0.63714 0.64248 0.0
C988 C 0.88918 0.61945 0.68132 0.0
C989 C 0.91197 0.60736 0.68478 0.0
C990 C 0.88367 0.65959 0.67288 0.0
C991 C 0.90086 0.68827 0.66794 0.0
C992 C 0.92345 0.67898 0.67263 0.0
H993 H 0.89767 0.85581 0.58832 0.0
H994 H 0.90919 0.80394 0.60901 0.0
C995 C 0.92899 0.63878 0.68097 0.0
C996 C 0.89569 0.72355 0.65629 0.0
H997 H 0.88038 0.73245 0.61978 0.0
C998 C 0.89836 0.77179 0.65948 0.0
C999 C 0.88948 0.70907 0.64178 0.0
C1000 C 0.88727 0.65748 0.6377 0.0
C1001 C 0.89449 0.80616 0.64851 0.0
C1002 C 0.8878 0.79166 0.63407 0.0
C1003 C 0.88552 0.74337 0.63087 0.0
C1004 C 0.88217 0.8259 0.62217 0.0
C1005 C 0.89781 0.85764 0.65239 0.0
C1006 C 0.86319 0.85521 0.62276 0.0
C1007 C 0.8565 0.88446 0.61098 0.0
C1008 C 0.86866 0.88498 0.59834 0.0
C1009 C 0.88799 0.85628 0.5979 0.0
C1010 C 0.89458 0.82669 0.60969 0.0
H1011 H 0.90811 0.86222 0.66291 0.0
H1012 H 0.90618 0.87662 0.64366 0.0
H1013 H 0.88105 0.87432 0.65347 0.0
H1014 H 0.85316 0.85448 0.63217 0.0
H1015 H 0.84156 0.90618 0.61172 0.0
H1016 H 0.88156 0.61861 0.07087 0.0
H1017 H 0.88762 0.6916 0.08501 0.0
H1018 H 0.81639 0.69834 0.09157 0.0
H1019 H 0.81012 0.62556 0.07753 0.0
H1020 H 0.86496 0.7892 0.08489 0.0
H1021 H 0.85165 0.6745 0.13291 0.0
H1022 H 0.85784 0.65051 0.11539 0.0
H1023 H 0.83014 0.67323 0.11802 0.0
C1024 C 0.86707 0.63642 0.07491 0.0
C1025 C 0.84543 0.61586 0.0733 0.0
C1026 C 0.87058 0.67807 0.08301 0.0
C1027 C 0.85249 0.69968 0.08952 0.0
C1028 C 0.83057 0.68176 0.08675 0.0
H1029 H 0.86117 0.89091 0.16495 0.0
H1030 H 0.84574 0.84171 0.14455 0.0
C1031 C 0.82705 0.64018 0.07872 0.0
C1032 C 0.85696 0.7368 0.1007 0.0
H1033 H 0.86026 0.75415 0.13763 0.0
C1034 C 0.8638 0.78179 0.09642 0.0
C1035 C 0.85529 0.72689 0.11571 0.0
C1036 C 0.84848 0.67864 0.12088 0.0
C1037 C 0.86926 0.81722 0.10683 0.0
C1038 C 0.86833 0.80679 0.12189 0.0
C1039 C 0.86088 0.76213 0.12609 0.0
C1040 C 0.87684 0.83998 0.13354 0.0
C1041 C 0.87594 0.86543 0.1016 0.0
C1042 C 0.89944 0.8549 0.13417 0.0
C1043 C 0.90826 0.88283 0.14575 0.0
C1044 C 0.89474 0.8961 0.15708 0.0
C1045 C 0.87203 0.88134 0.15641 0.0
C1046 C 0.86318 0.85336 0.14475 0.0
H1047 H 0.86848 0.87253 0.09034 0.0
H1048 H 0.87051 0.89377 0.10897 0.0
H1049 H 0.89462 0.867 0.10136 0.0
H1050 H 0.9105 0.84388 0.1259 0.0
H1051 H 0.92585 0.89333 0.14591 0.0
H1052 H 0.95763 0.12659 0.17854 0.0
H1053 H 0.95181 0.19983 0.16474 0.0
H1054 H 0.88047 0.19456 0.17113 0.0
H1055 H 0.88612 0.12125 0.18505 0.0
H1056 H 0.92383 0.1954 0.13893 0.0
H1057 H 0.89532 0.3365 0.17537 0.0
H1058 H 0.91052 0.28469 0.18221 0.0
H1059 H 0.88074 0.28128 0.17694 0.0
C1060 C 0.94078 0.14173 0.17742 0.0
C1061 C 0.92226 0.11774 0.18273 0.0
C1062 C 0.93752 0.18363 0.16952 0.0
C1063 C 0.91574 0.20258 0.1669 0.0
C1064 C 0.89749 0.1809 0.17321 0.0
H1065 H 0.84069 0.38017 0.107 0.0
H1066 H 0.8565 0.33096 0.12696 0.0
C1067 C 0.90073 0.13889 0.18115 0.0
C1068 C 0.91157 0.23991 0.1557 0.0
H1069 H 0.88782 0.34866 0.14961 0.0
C1070 C 0.91631 0.2293 0.14128 0.0
C1071 C 0.90167 0.28384 0.15882 0.0
C1072 C 0.89693 0.29757 0.1742 0.0
C1073 C 0.91038 0.26045 0.12974 0.0
C1074 C 0.89991 0.30398 0.13278 0.0
C1075 C 0.8959 0.31532 0.1473 0.0
C1076 C 0.89103 0.33604 0.12092 0.0
C1077 C 0.91423 0.24525 0.11432 0.0
C1078 C 0.90525 0.3557 0.1109 0.0
C1079 C 0.89619 0.38359 0.09927 0.0
C1080 C 0.8728 0.39274 0.09762 0.0
C1081 C 0.85877 0.37384 0.1079 0.0
C1082 C 0.86779 0.3458 0.11939 0.0
H1083 H 0.91775 0.20676 0.11361 0.0
H1084 H 0.89928 0.25366 0.10675 0.0
H1085 H 0.92903 0.26449 0.11054 0.0
H1086 H 0.92332 0.34934 0.11204 0.0
H1087 H 0.90746 0.39801 0.09163 0.0
H1088 H 0.65108 0.63414 0.83533 0.0
H1089 H 0.66291 0.68599 0.85595 0.0
H1090 H 0.60942 0.63034 0.8804 0.0
H1091 H 0.59755 0.57858 0.86001 0.0
H1092 H 0.63371 0.75473 0.86721 0.0
H1093 H 0.66532 0.62792 0.9102 0.0
H1094 H 0.66264 0.61284 0.891 0.0
H1095 H 0.63808 0.61368 0.90139 0.0
C1096 C 0.64207 0.63244 0.84518 0.0
C1097 C 0.62331 0.60241 0.84599 0.0
C1098 C 0.64884 0.66204 0.85694 0.0
C1099 C 0.63719 0.66153 0.86974 0.0
C1100 C 0.6189 0.63065 0.87073 0.0
H1101 H 0.62861 0.89292 0.93098 0.0
H1102 H 0.61977 0.82118 0.91673 0.0
C1103 C 0.61203 0.60137 0.85899 0.0
C1104 C 0.64264 0.69633 0.88153 0.0
H1105 H 0.65922 0.70721 0.91788 0.0
C1106 C 0.63939 0.74437 0.87827 0.0
C1107 C 0.65002 0.68259 0.89594 0.0
C1108 C 0.65443 0.63148 0.89987 0.0
C1109 C 0.64304 0.77913 0.88908 0.0
C1110 C 0.64991 0.76538 0.90356 0.0
C1111 C 0.65356 0.71741 0.90681 0.0
C1112 C 0.65475 0.80123 0.91509 0.0
C1113 C 0.63981 0.83045 0.8849 0.0
C1114 C 0.67726 0.81189 0.91961 0.0
C1115 C 0.68238 0.85276 0.92772 0.0
C1116 C 0.66502 0.88351 0.93148 0.0
C1117 C 0.64236 0.87003 0.92825 0.0
C1118 C 0.63727 0.82921 0.92004 0.0
H1119 H 0.63818 0.8355 0.87285 0.0
H1120 H 0.62417 0.84401 0.88942 0.0
H1121 H 0.65424 0.85203 0.88956 0.0
H1122 H 0.69095 0.79055 0.91593 0.0
H1123 H 0.7 0.86197 0.93016 0.0
H1124 H 0.67393 0.076 0.88847 0.0
H1125 H 0.66306 0.12816 0.86795 0.0
H1126 H 0.6112 0.19047 0.89245 0.0
H1127 H 0.62192 0.13808 0.91317 0.0
H1128 H 0.61776 0.14575 0.85182 0.0
H1129 H 0.65661 0.29981 0.88199 0.0
H1130 H 0.66327 0.23947 0.88711 0.0
H1131 H 0.63685 0.26503 0.89144 0.0
C1132 C 0.66006 0.10047 0.8895 0.0
C1133 C 0.64893 0.10327 0.90253 0.0
C1134 C 0.65382 0.13006 0.87771 0.0
C1135 C 0.63649 0.16327 0.87877 0.0
C1136 C 0.62473 0.1651 0.89151 0.0
H1137 H 0.57214 0.36094 0.8189 0.0
H1138 H 0.582 0.28904 0.8326 0.0
C1139 C 0.63084 0.13515 0.9033 0.0
C1140 C 0.63192 0.19809 0.8669 0.0
H1141 H 0.63826 0.31471 0.85878 0.0
C1142 C 0.6222 0.18273 0.8533 0.0
C1143 C 0.63819 0.24597 0.86883 0.0
C1144 C 0.64947 0.26378 0.88307 0.0
C1145 C 0.61806 0.21453 0.84163 0.0
C1146 C 0.62382 0.26268 0.84369 0.0
C1147 C 0.63397 0.27769 0.85721 0.0
C1148 C 0.61816 0.29916 0.83244 0.0
C1149 C 0.60768 0.19647 0.82718 0.0
C1150 C 0.63525 0.32785 0.82734 0.0
C1151 C 0.62967 0.36908 0.81946 0.0
C1152 C 0.60689 0.38255 0.81678 0.0
C1153 C 0.58985 0.35161 0.82083 0.0
C1154 C 0.59544 0.31032 0.82862 0.0
H1155 H 0.60987 0.15763 0.82613 0.0
H1156 H 0.58927 0.20427 0.82637 0.0
H1157 H 0.61527 0.2142 0.81791 0.0
H1158 H 0.6529 0.31984 0.83023 0.0
H1159 H 0.64319 0.39219 0.81654 0.0
H1160 H 0.58731 0.11674 0.35382 0.0
H1161 H 0.59967 0.16671 0.37453 0.0
H1162 H 0.66882 0.15452 0.36314 0.0
H1163 H 0.65646 0.10537 0.34202 0.0
H1164 H 0.62837 0.15165 0.39855 0.0
H1165 H 0.66057 0.29603 0.36463 0.0
H1166 H 0.64384 0.24786 0.35682 0.0
H1167 H 0.67349 0.23962 0.3619 0.0
C1168 C 0.60517 0.12468 0.35567 0.0
C1169 C 0.62089 0.10744 0.34617 0.0
C1170 C 0.61221 0.15313 0.36757 0.0
C1171 C 0.63511 0.16487 0.37028 0.0
C1172 C 0.65098 0.14674 0.36106 0.0
H1173 H 0.69897 0.36639 0.43108 0.0
H1174 H 0.69243 0.2939 0.41699 0.0
C1175 C 0.64391 0.11858 0.34902 0.0
C1176 C 0.64206 0.19716 0.38254 0.0
H1177 H 0.66563 0.30516 0.39018 0.0
C1178 C 0.63662 0.18514 0.39675 0.0
C1179 C 0.65268 0.24096 0.38014 0.0
C1180 C 0.65781 0.25722 0.36505 0.0
C1181 C 0.64147 0.21589 0.40861 0.0
C1182 C 0.65194 0.25966 0.40615 0.0
C1183 C 0.65776 0.27127 0.39202 0.0
C1184 C 0.65606 0.29563 0.41776 0.0
C1185 C 0.63534 0.20153 0.42365 0.0
C1186 C 0.6378 0.31935 0.42345 0.0
C1187 C 0.64147 0.36096 0.43155 0.0
C1188 C 0.66344 0.37956 0.43391 0.0
C1189 C 0.68182 0.35322 0.42934 0.0
C1190 C 0.67814 0.31175 0.42128 0.0
H1191 H 0.63235 0.16286 0.42438 0.0
H1192 H 0.64892 0.2117 0.43206 0.0
H1193 H 0.6196 0.22009 0.42622 0.0
H1194 H 0.62059 0.30778 0.42069 0.0
H1195 H 0.62697 0.38049 0.43487 0.0
H1196 H 0.63963 0.54661 0.3909 0.0
H1197 H 0.62776 0.59861 0.37043 0.0
H1198 H 0.61651 0.7114 0.40083 0.0
H1199 H 0.62672 0.65807 0.42133 0.0
H1200 H 0.58684 0.71778 0.37925 0.0
H1201 H 0.66958 0.69251 0.35581 0.0
H1202 H 0.65404 0.63837 0.35645 0.0
H1203 H 0.66355 0.66795 0.37321 0.0
C1204 C 0.63412 0.58225 0.39315 0.0
C1205 C 0.63412 0.59862 0.40761 0.0
C1206 C 0.62765 0.61213 0.38147 0.0
C1207 C 0.6221 0.65955 0.38402 0.0
C1208 C 0.62094 0.67511 0.39854 0.0
H1209 H 0.63871 0.89859 0.3288 0.0
H1210 H 0.64328 0.82777 0.34391 0.0
C1211 C 0.6267 0.6447 0.41025 0.0
C1212 C 0.61839 0.69349 0.37168 0.0
H1213 H 0.64245 0.73801 0.34184 0.0
C1214 C 0.59901 0.72223 0.37107 0.0
C1215 C 0.63445 0.69986 0.36111 0.0
C1216 C 0.65666 0.6734 0.36175 0.0
C1217 C 0.59546 0.75772 0.36045 0.0
C1218 C 0.61115 0.76304 0.34959 0.0
C1219 C 0.63026 0.73356 0.35001 0.0
C1220 C 0.60924 0.80182 0.33861 0.0
C1221 C 0.57555 0.79062 0.36155 0.0
C1222 C 0.58906 0.80963 0.32991 0.0
C1223 C 0.58625 0.85083 0.32155 0.0
C1224 C 0.6039 0.88387 0.32128 0.0
C1225 C 0.62486 0.87357 0.32874 0.0
C1226 C 0.62744 0.83313 0.33744 0.0
H1227 H 0.56922 0.79016 0.37267 0.0
H1228 H 0.58008 0.82757 0.35894 0.0
H1229 H 0.56146 0.77912 0.35372 0.0
H1230 H 0.5751 0.78503 0.3301 0.0
H1231 H 0.56996 0.85784 0.31579 0.0
H1232 H 0.38519 0.33343 0.16767 0.0
H1233 H 0.37725 0.28086 0.14669 0.0
H1234 H 0.3969 0.39118 0.11766 0.0
H1235 H 0.40634 0.44243 0.13872 0.0
H1236 H 0.35015 0.28004 0.12382 0.0
H1237 H 0.43661 0.28998 0.10481 0.0
H1238 H 0.42948 0.31577 0.12184 0.0
H1239 H 0.4232 0.34675 0.10484 0.0
C1240 C 0.38767 0.3464 0.15679 0.0
C1241 C 0.3966 0.39164 0.15478 0.0
C1242 C 0.38319 0.31639 0.1448 0.0
C1243 C 0.38713 0.33147 0.13058 0.0
C1244 C 0.39461 0.37792 0.12853 0.0
H1245 H 0.33369 0.14392 0.06012 0.0
H1246 H 0.3413 0.21663 0.07414 0.0
C1247 C 0.39974 0.40739 0.14054 0.0
C1248 C 0.38359 0.2983 0.11802 0.0
H1249 H 0.40923 0.24973 0.08933 0.0
C1250 C 0.36309 0.27339 0.1163 0.0
C1251 C 0.4006 0.28909 0.10827 0.0
C1252 C 0.42377 0.31143 0.11011 0.0
C1253 C 0.35928 0.23889 0.1054 0.0
C1254 C 0.37597 0.23081 0.09533 0.0
C1255 C 0.39629 0.25642 0.09686 0.0
C1256 C 0.37358 0.19272 0.08412 0.0
C1257 C 0.33787 0.20987 0.10537 0.0
C1258 C 0.39027 0.15743 0.0838 0.0
C1259 C 0.38641 0.11694 0.07524 0.0
C1260 C 0.36561 0.1107 0.06712 0.0
C1261 C 0.34981 0.14783 0.06639 0.0
C1262 C 0.35399 0.18899 0.07459 0.0
H1263 H 0.33027 0.21147 0.11609 0.0
H1264 H 0.3252 0.22399 0.09698 0.0
H1265 H 0.34116 0.17221 0.10283 0.0
H1266 H 0.40566 0.15962 0.09091 0.0
H1267 H 0.39882 0.08871 0.07608 0.0
H1268 H 0.37571 0.58814 0.17443 0.0
H1269 H 0.36889 0.65886 0.1595 0.0
H1270 H 0.43314 0.71598 0.17633 0.0
H1271 H 0.44072 0.64351 0.19046 0.0
H1272 H 0.36527 0.74912 0.16105 0.0
H1273 H 0.44426 0.71027 0.13437 0.0
H1274 H 0.43334 0.67117 0.14763 0.0
H1275 H 0.44933 0.72287 0.15348 0.0
C1276 C 0.3881 0.61636 0.17525 0.0
C1277 C 0.40886 0.61023 0.18343 0.0
C1278 C 0.38425 0.65674 0.16664 0.0
C1279 C 0.40092 0.692 0.16631 0.0
C1280 C 0.42047 0.68837 0.17589 0.0
H1281 H 0.36864 0.94243 0.11207 0.0
H1282 H 0.37799 0.8907 0.133 0.0
C1283 C 0.42464 0.64734 0.18415 0.0
C1284 C 0.39854 0.73 0.15508 0.0
H1285 H 0.42448 0.7791 0.12665 0.0
C1286 C 0.37824 0.75574 0.15355 0.0
C1287 C 0.41526 0.73796 0.14504 0.0
C1288 C 0.43665 0.70879 0.14509 0.0
C1289 C 0.374 0.78852 0.14217 0.0
C1290 C 0.39105 0.79766 0.13245 0.0
C1291 C 0.41151 0.77252 0.13416 0.0
C1292 C 0.38761 0.83109 0.11996 0.0
C1293 C 0.35086 0.81109 0.14032 0.0
C1294 C 0.39151 0.8162 0.1057 0.0
C1295 C 0.38706 0.84648 0.09377 0.0
C1296 C 0.37823 0.89179 0.09588 0.0
C1297 C 0.37517 0.90735 0.11016 0.0
C1298 C 0.38024 0.8776 0.12211 0.0
H1299 H 0.33797 0.78969 0.14556 0.0
H1300 H 0.35146 0.84634 0.14564 0.0
H1301 H 0.3452 0.81562 0.12859 0.0
H1302 H 0.39736 0.78063 0.10373 0.0
H1303 H 0.38947 0.83364 0.08286 0.0
H1304 H 0.3655 0.85795 0.66548 0.0
H1305 H 0.35553 0.80535 0.64471 0.0
H1306 H 0.40856 0.86659 0.62107 0.0
H1307 H 0.41873 0.919 0.64168 0.0
H1308 H 0.36272 0.84958 0.60451 0.0
H1309 H 0.40182 0.69567 0.63467 0.0
H1310 H 0.38219 0.73092 0.64413 0.0
H1311 H 0.40862 0.75604 0.63967 0.0
C1312 C 0.37487 0.86057 0.6558 0.0
C1313 C 0.39304 0.89231 0.65529 0.0
C1314 C 0.36917 0.83053 0.64397 0.0
C1315 C 0.38143 0.83208 0.63145 0.0
C1316 C 0.39893 0.86497 0.63066 0.0
H1317 H 0.38818 0.60341 0.56904 0.0
H1318 H 0.39785 0.67553 0.58284 0.0
C1319 C 0.40476 0.89469 0.64249 0.0
C1320 C 0.37708 0.79734 0.61954 0.0
H1321 H 0.38347 0.68067 0.61147 0.0
C1322 C 0.36724 0.81263 0.60597 0.0
C1323 C 0.38342 0.74949 0.62148 0.0
C1324 C 0.39475 0.73182 0.63572 0.0
C1325 C 0.36302 0.78072 0.59433 0.0
C1326 C 0.36882 0.73258 0.5964 0.0
C1327 C 0.37913 0.71768 0.60989 0.0
C1328 C 0.36311 0.69602 0.58519 0.0
C1329 C 0.35249 0.79865 0.57991 0.0
C1330 C 0.34039 0.68478 0.58145 0.0
C1331 C 0.3348 0.6436 0.5736 0.0
C1332 C 0.35187 0.61283 0.56942 0.0
C1333 C 0.37463 0.62633 0.57208 0.0
C1334 C 0.3802 0.66745 0.58002 0.0
H1335 H 0.35458 0.83749 0.57883 0.0
H1336 H 0.36003 0.78088 0.57061 0.0
H1337 H 0.33409 0.79076 0.57917 0.0
H1338 H 0.32694 0.70599 0.5855 0.0
H1339 H 0.3171 0.6343 0.57168 0.0
H1340 H 0.39275 0.35763 0.5881 0.0
H1341 H 0.40225 0.30504 0.60896 0.0
H1342 H 0.34754 0.36413 0.63161 0.0
H1343 H 0.33785 0.41649 0.61094 0.0
H1344 H 0.39211 0.34922 0.64907 0.0
H1345 H 0.35738 0.19294 0.61805 0.0
H1346 H 0.3773 0.22904 0.60918 0.0
H1347 H 0.35017 0.25287 0.61274 0.0
C1348 C 0.3829 0.35975 0.59758 0.0
C1349 C 0.36441 0.39089 0.5978 0.0
C1350 C 0.38833 0.32969 0.60945 0.0
C1351 C 0.37547 0.33064 0.62173 0.0
C1352 C 0.35762 0.36293 0.62222 0.0
H1353 H 0.36794 0.10139 0.68383 0.0
H1354 H 0.35805 0.17302 0.66981 0.0
C1355 C 0.35207 0.39263 0.61035 0.0
C1356 C 0.37964 0.29609 0.63371 0.0
H1357 H 0.37444 0.17908 0.64169 0.0
C1358 C 0.38827 0.31199 0.64751 0.0
C1359 C 0.37417 0.24785 0.63165 0.0
C1360 C 0.36408 0.22942 0.61715 0.0
C1361 C 0.39213 0.2804 0.65927 0.0
C1362 C 0.3872 0.23192 0.65708 0.0
C1363 C 0.37811 0.21635 0.64335 0.0
C1364 C 0.39269 0.19577 0.66846 0.0
C1365 C 0.40135 0.29903 0.67392 0.0
C1366 C 0.41537 0.186 0.67286 0.0
C1367 C 0.42107 0.14512 0.68083 0.0
C1368 C 0.40418 0.1132 0.68449 0.0
C1369 C 0.38134 0.12528 0.68121 0.0
C1370 C 0.37566 0.16609 0.67315 0.0
H1371 H 0.39856 0.33772 0.67489 0.0
H1372 H 0.39339 0.28082 0.68297 0.0
H1373 H 0.41985 0.29233 0.67523 0.0
H1374 H 0.42879 0.20807 0.66921 0.0
H1375 H 0.43882 0.13689 0.68323 0.0
loop_
_geom_bond_atom_site_label_1
_geom_bond_atom_site_label_2
_geom_bond_distance
_geom_bond_site_symmetry_2
_ccdc_geom_bond_type
Zn0 O3 2.031 . S
Zn0 O5 2.049 . S
Zn0 O10 2.067 . S
Zn1 O2 1.962 . S
Zn1 O4 1.986 . S
Zn1 O6 1.996 . S
Zn1 O9 1.943 . S
O2 Zn1 1.962 . S
O2 C7 1.254 . S
O3 Zn0 2.031 . S
O3 C7 1.269 . S
O4 Zn1 1.986 . S
O4 C11 1.262 . S
O5 Zn0 2.049 . S
O5 C13 1.260 . S
O6 Zn1 1.996 . S
O6 C13 1.257 . S
C7 O2 1.254 . S
C7 O3 1.269 . S
C8 O9 1.249 . S
C8 O10 1.270 . S
O9 Zn1 1.943 . S
O9 C8 1.249 . S
O10 Zn0 2.067 . S
O10 C8 1.270 . S
C11 O4 1.262 . S
C11 O12 1.232 . S
O12 C11 1.232 . S
C13 O5 1.260 . S
C13 O6 1.257 . S
Zn14 O17 2.031 . S
Zn14 O19 2.049 . S
Zn14 O24 2.067 . S
Zn15 O16 1.962 . S
Zn15 O18 1.986 . S
Zn15 O20 1.996 . S
Zn15 O23 1.943 . S
O16 Zn15 1.962 . S
O16 C21 1.254 . S
O17 Zn14 2.031 . S
O17 C21 1.269 . S
O18 Zn15 1.986 . S
O18 C25 1.262 . S
O19 Zn14 2.049 . S
O19 C27 1.260 . S
O20 Zn15 1.996 . S
O20 C27 1.257 . S
C21 O16 1.254 . S
C21 O17 1.269 . S
C22 O23 1.249 . S
C22 O24 1.270 . S
O23 Zn15 1.943 . S
O23 C22 1.249 . S
O24 Zn14 2.067 . S
O24 C22 1.270 . S
C25 O18 1.262 . S
C25 O26 1.232 . S
O26 C25 1.232 . S
C27 O19 1.260 . S
C27 O20 1.257 . S
Zn28 O31 2.031 . S
Zn28 O33 2.049 . S
Zn28 O38 2.067 . S
Zn29 O30 1.962 . S
Zn29 O32 1.986 . S
Zn29 O34 1.996 . S
Zn29 O37 1.943 . S
O30 Zn29 1.962 . S
O30 C35 1.254 . S
O31 Zn28 2.031 . S
O31 C35 1.269 . S
O32 Zn29 1.986 . S
O32 C39 1.262 . S
O33 Zn28 2.049 . S
O33 C41 1.260 . S
O34 Zn29 1.996 . S
O34 C41 1.257 . S
C35 O30 1.254 . S
C35 O31 1.269 . S
C36 O37 1.249 . S
C36 O38 1.270 . S
O37 Zn29 1.943 . S
O37 C36 1.249 . S
O38 Zn28 2.067 . S
O38 C36 1.270 . S
C39 O32 1.262 . S
C39 O40 1.232 . S
O40 C39 1.232 . S
C41 O33 1.260 . S
C41 O34 1.257 . S
Zn42 O45 2.031 . S
Zn42 O47 2.049 . S
Zn42 O52 2.067 . S
Zn43 O44 1.962 . S
Zn43 O46 1.986 . S
Zn43 O48 1.996 . S
Zn43 O51 1.943 . S
O44 Zn43 1.962 . S
O44 C49 1.254 . S
O45 Zn42 2.031 . S
O45 C49 1.269 . S
O46 Zn43 1.986 . S
O46 C53 1.262 . S
O47 Zn42 2.049 . S
O47 C55 1.260 . S
O48 Zn43 1.996 . S
O48 C55 1.257 . S
C49 O44 1.254 . S
C49 O45 1.269 . S
C50 O51 1.249 . S
C50 O52 1.270 . S
O51 Zn43 1.943 . S
O51 C50 1.249 . S
O52 Zn42 2.067 . S
O52 C50 1.270 . S
C53 O46 1.262 . S
C53 O54 1.232 . S
O54 C53 1.232 . S
C55 O47 1.260 . S
C55 O48 1.257 . S
Zn56 O59 2.031 . S
Zn56 O61 2.049 . S
Zn56 O66 2.067 . S
Zn57 O58 1.962 . S
Zn57 O60 1.986 . S
Zn57 O62 1.996 . S
Zn57 O65 1.943 . S
O58 Zn57 1.962 . S
O58 C63 1.254 . S
O59 Zn56 2.031 . S
O59 C63 1.269 . S
O60 Zn57 1.986 . S
O60 C67 1.262 . S
O61 Zn56 2.049 . S
O61 C69 1.260 . S
O62 Zn57 1.996 . S
O62 C69 1.257 . S
C63 O58 1.254 . S
C63 O59 1.269 . S
C64 O65 1.249 . S
C64 O66 1.270 . S
O65 Zn57 1.943 . S
O65 C64 1.249 . S
O66 Zn56 2.067 . S
O66 C64 1.270 . S
C67 O60 1.262 . S
C67 O68 1.232 . S
O68 C67 1.232 . S
C69 O61 1.260 . S
C69 O62 1.257 . S
Zn70 O73 2.031 . S
Zn70 O75 2.049 . S
Zn70 O80 2.067 . S
Zn71 O72 1.962 . S
Zn71 O74 1.986 . S
Zn71 O76 1.996 . S
Zn71 O79 1.943 . S
O72 Zn71 1.962 . S
O72 C77 1.254 . S
O73 Zn70 2.031 . S
O73 C77 1.269 . S
O74 Zn71 1.986 . S
O74 C81 1.262 . S
O75 Zn70 2.049 . S
O75 C83 1.260 . S
O76 Zn71 1.996 . S
O76 C83 1.257 . S
C77 O72 1.254 . S
C77 O73 1.269 . S
C78 O79 1.249 . S
C78 O80 1.270 . S
O79 Zn71 1.943 . S
O79 C78 1.249 . S
O80 Zn70 2.067 . S
O80 C78 1.270 . S
C81 O74 1.262 . S
C81 O82 1.232 . S
O82 C81 1.232 . S
C83 O75 1.260 . S
C83 O76 1.257 . S
Zn84 O87 2.031 . S
Zn84 O89 2.049 . S
Zn84 O94 2.067 . S
Zn85 O86 1.962 . S
Zn85 O88 1.986 . S
Zn85 O90 1.996 . S
Zn85 O93 1.943 . S
O86 Zn85 1.962 . S
O86 C91 1.254 . S
O87 Zn84 2.031 . S
O87 C91 1.269 . S
O88 Zn85 1.986 . S
O88 C95 1.262 . S
O89 Zn84 2.049 . S
O89 C97 1.260 . S
O90 Zn85 1.996 . S
O90 C97 1.257 . S
C91 O86 1.254 . S
C91 O87 1.269 . S
C92 O93 1.249 . S
C92 O94 1.270 . S
O93 Zn85 1.943 . S
O93 C92 1.249 . S
O94 Zn84 2.067 . S
O94 C92 1.270 . S
C95 O88 1.262 . S
C95 O96 1.232 . S
O96 C95 1.232 . S
C97 O89 1.260 . S
C97 O90 1.257 . S
Zn98 O101 2.031 . S
Zn98 O103 2.049 . S
Zn98 O108 2.067 . S
Zn99 O100 1.962 . S
Zn99 O102 1.986 . S
Zn99 O104 1.996 . S
Zn99 O107 1.943 . S
O100 Zn99 1.962 . S
O100 C105 1.254 . S
O101 Zn98 2.031 . S
O101 C105 1.269 . S
O102 Zn99 1.986 . S
O102 C109 1.262 . S
O103 Zn98 2.049 . S
O103 C111 1.260 . S
O104 Zn99 1.996 . S
O104 C111 1.257 . S
C105 O100 1.254 . S
C105 O101 1.269 . S
C106 O107 1.249 . S
C106 O108 1.270 . S
O107 Zn99 1.943 . S
O107 C106 1.249 . S
O108 Zn98 2.067 . S
O108 C106 1.270 . S
C109 O102 1.262 . S
C109 O110 1.232 . S
O110 C109 1.232 . S
C111 O103 1.260 . S
C111 O104 1.257 . S
Zn112 O115 2.031 . S
Zn112 O117 2.049 . S
Zn112 O122 2.067 . S
Zn113 O114 1.962 . S
Zn113 O116 1.986 . S
Zn113 O118 1.996 . S
Zn113 O121 1.943 . S
O114 Zn113 1.962 . S
O114 C119 1.254 . S
O115 Zn112 2.031 . S
O115 C119 1.269 . S
O116 Zn113 1.986 . S
O116 C123 1.262 . S
O117 Zn112 2.049 . S
O117 C125 1.260 . S
O118 Zn113 1.996 . S
O118 C125 1.257 . S
C119 O114 1.254 . S
C119 O115 1.269 . S
C120 O121 1.249 . S
C120 O122 1.270 . S
O121 Zn113 1.943 . S
O121 C120 1.249 . S
O122 Zn112 2.067 . S
O122 C120 1.270 . S
C123 O116 1.262 . S
C123 O124 1.232 . S
O124 C123 1.232 . S
C125 O117 1.260 . S
C125 O118 1.257 . S
Zn126 O129 2.031 . S
Zn126 O131 2.049 . S
Zn126 O136 2.067 . S
Zn127 O128 1.962 . S
Zn127 O130 1.986 . S
Zn127 O132 1.996 . S
Zn127 O135 1.943 . S
O128 Zn127 1.962 . S
O128 C133 1.254 . S
O129 Zn126 2.031 . S
O129 C133 1.269 . S
O130 Zn127 1.986 . S
O130 C137 1.262 . S
O131 Zn126 2.049 . S
O131 C139 1.260 . S
O132 Zn127 1.996 . S
O132 C139 1.257 . S
C133 O128 1.254 . S
C133 O129 1.269 . S
C134 O135 1.249 . S
C134 O136 1.270 . S
O135 Zn127 1.943 . S
O135 C134 1.249 . S
O136 Zn126 2.067 . S
O136 C134 1.270 . S
C137 O130 1.262 . S
C137 O138 1.232 . S
O138 C137 1.232 . S
C139 O131 1.260 . S
C139 O132 1.257 . S
Zn140 O143 2.031 . S
Zn140 O145 2.049 . S
Zn140 O150 2.067 . S
Zn141 O142 1.962 . S
Zn141 O144 1.986 . S
Zn141 O146 1.996 . S
Zn141 O149 1.943 . S
O142 Zn141 1.962 . S
O142 C147 1.254 . S
O143 Zn140 2.031 . S
O143 C147 1.269 . S
O144 Zn141 1.986 . S
O144 C151 1.262 . S
O145 Zn140 2.049 . S
O145 C153 1.260 . S
O146 Zn141 1.996 . S
O146 C153 1.257 . S
C147 O142 1.254 . S
C147 O143 1.269 . S
C148 O149 1.249 . S
C148 O150 1.270 . S
O149 Zn141 1.943 . S
O149 C148 1.249 . S
O150 Zn140 2.067 . S
O150 C148 1.270 . S
C151 O144 1.262 . S
C151 O152 1.232 . S
O152 C151 1.232 . S
C153 O145 1.260 . S
C153 O146 1.257 . S
Zn154 O157 2.031 . S
Zn154 O159 2.049 . S
Zn154 O164 2.067 . S
Zn155 O156 1.962 . S
Zn155 O158 1.986 . S
Zn155 O160 1.996 . S
Zn155 O163 1.943 . S
O156 Zn155 1.962 . S
O156 C161 1.254 . S
O157 Zn154 2.031 . S
O157 C161 1.269 . S
O158 Zn155 1.986 . S
O158 C165 1.262 . S
O159 Zn154 2.049 . S
O159 C167 1.260 . S
O160 Zn155 1.996 . S
O160 C167 1.257 . S
C161 O156 1.254 . S
C161 O157 1.269 . S
C162 O163 1.249 . S
C162 O164 1.270 . S
O163 Zn155 1.943 . S
O163 C162 1.249 . S
O164 Zn154 2.067 . S
O164 C162 1.270 . S
C165 O158 1.262 . S
C165 O166 1.232 . S
O166 C165 1.232 . S
C167 O159 1.260 . S
C167 O160 1.257 . S
Zn168 O171 2.031 . S
Zn168 O173 2.049 . S
Zn168 O178 2.067 . S
Zn169 O170 1.962 . S
Zn169 O172 1.986 . S
Zn169 O174 1.996 . S
Zn169 O177 1.943 . S
O170 Zn169 1.962 . S
O170 C175 1.254 . S
O171 Zn168 2.031 . S
O171 C175 1.269 . S
O172 Zn169 1.986 . S
O172 C179 1.262 . S
O173 Zn168 2.049 . S
O173 C181 1.260 . S
O174 Zn169 1.996 . S
O174 C181 1.257 . S
C175 O170 1.254 . S
C175 O171 1.269 . S
C176 O177 1.249 . S
C176 O178 1.270 . S
O177 Zn169 1.943 . S
O177 C176 1.249 . S
O178 Zn168 2.067 . S
O178 C176 1.270 . S
C179 O172 1.262 . S
C179 O180 1.232 . S
O180 C179 1.232 . S
C181 O173 1.260 . S
C181 O174 1.257 . S
Zn182 O185 2.031 . S
Zn182 O187 2.049 . S
Zn182 O192 2.067 . S
Zn183 O184 1.962 . S
Zn183 O186 1.986 . S
Zn183 O188 1.996 . S
Zn183 O191 1.943 . S
O184 Zn183 1.962 . S
O184 C189 1.254 . S
O185 Zn182 2.031 . S
O185 C189 1.269 . S
O186 Zn183 1.986 . S
O186 C193 1.262 . S
O187 Zn182 2.049 . S
O187 C195 1.260 . S
O188 Zn183 1.996 . S
O188 C195 1.257 . S
C189 O184 1.254 . S
C189 O185 1.269 . S
C190 O191 1.249 . S
C190 O192 1.270 . S
O191 Zn183 1.943 . S
O191 C190 1.249 . S
O192 Zn182 2.067 . S
O192 C190 1.270 . S
C193 O186 1.262 . S
C193 O194 1.232 . S
O194 C193 1.232 . S
C195 O187 1.260 . S
C195 O188 1.257 . S
Zn196 O199 2.031 . S
Zn196 O201 2.049 . S
Zn196 O206 2.067 . S
Zn197 O198 1.962 . S
Zn197 O200 1.986 . S
Zn197 O202 1.996 . S
Zn197 O205 1.943 . S
O198 Zn197 1.962 . S
O198 C203 1.254 . S
O199 Zn196 2.031 . S
O199 C203 1.269 . S
O200 Zn197 1.986 . S
O200 C207 1.262 . S
O201 Zn196 2.049 . S
O201 C209 1.260 . S
O202 Zn197 1.996 . S
O202 C209 1.257 . S
C203 O198 1.254 . S
C203 O199 1.269 . S
C204 O205 1.249 . S
C204 O206 1.270 . S
O205 Zn197 1.943 . S
O205 C204 1.249 . S
O206 Zn196 2.067 . S
O206 C204 1.270 . S
C207 O200 1.262 . S
C207 O208 1.232 . S
O208 C207 1.232 . S
C209 O201 1.260 . S
C209 O202 1.257 . S
Zn210 O213 2.031 . S
Zn210 O215 2.049 . S
Zn210 O220 2.067 . S
Zn211 O212 1.962 . S
Zn211 O214 1.986 . S
Zn211 O216 1.996 . S
Zn211 O219 1.943 . S
O212 Zn211 1.962 . S
O212 C217 1.254 . S
O213 Zn210 2.031 . S
O213 C217 1.269 . S
O214 Zn211 1.986 . S
O214 C221 1.262 . S
O215 Zn210 2.049 . S
O215 C223 1.260 . S
O216 Zn211 1.996 . S
O216 C223 1.257 . S
C217 O212 1.254 . S
C217 O213 1.269 . S
C218 O219 1.249 . S
C218 O220 1.270 . S
O219 Zn211 1.943 . S
O219 C218 1.249 . S
O220 Zn210 2.067 . S
O220 C218 1.270 . S
C221 O214 1.262 . S
C221 O222 1.232 . S
O222 C221 1.232 . S
C223 O215 1.260 . S
C223 O216 1.257 . S
H224 C232 0.929 . S
H225 C234 0.930 . S
H226 C236 0.930 . S
H227 C239 0.929 . S
H228 C242 0.930 . S
H229 C244 0.960 . S
H230 C244 0.960 . S
H231 C244 0.960 . S
C232 H224 0.929 . S
C232 C233 1.377 . S
C232 C234 1.384 . S
C233 C232 1.377 . S
C233 C239 1.390 . S
C234 H225 0.930 . S
C234 C232 1.384 . S
C234 C235 1.372 . S
C235 C234 1.372 . S
C235 C236 1.400 . S
C235 C240 1.490 . S
C236 H226 0.930 . S
C236 C235 1.400 . S
C236 C239 1.386 . S
H237 C253 0.930 . S
H238 C254 0.931 . S
C239 H227 0.929 . S
C239 C233 1.390 . S
C239 C236 1.386 . S
C240 C235 1.490 . S
C240 C242 1.395 . S
C240 C243 1.403 . S
H241 C247 0.930 . S
C242 H228 0.930 . S
C242 C240 1.395 . S
C242 C245 1.403 . S
C243 C240 1.403 . S
C243 C244 1.524 . S
C243 C247 1.400 . S
C244 H229 0.960 . S
C244 H230 0.960 . S
C244 H231 0.960 . S
C244 C243 1.524 . S
C245 C242 1.403 . S
C245 C246 1.392 . S
C245 C249 1.495 . S
C246 C245 1.392 . S
C246 C247 1.385 . S
C246 C248 1.478 . S
C247 H241 0.930 . S
C247 C243 1.400 . S
C247 C246 1.385 . S
C248 C246 1.478 . S
C248 C250 1.381 . S
C248 C254 1.383 . S
C249 C245 1.495 . S
C249 H255 0.959 . S
C249 H256 0.961 . S
C249 H257 0.960 . S
C250 C248 1.381 . S
C250 C251 1.394 . S
C250 H258 0.930 . S
C251 C250 1.394 . S
C251 C252 1.383 . S
C251 H259 0.929 . S
C252 C251 1.383 . S
C252 C253 1.377 . S
C253 H237 0.930 . S
C253 C252 1.377 . S
C253 C254 1.379 . S
C254 H238 0.931 . S
C254 C248 1.383 . S
C254 C253 1.379 . S
H255 C249 0.959 . S
H256 C249 0.961 . S
H257 C249 0.960 . S
H258 C250 0.930 . S
H259 C251 0.929 . S
H260 C268 0.929 . S
H261 C270 0.930 . S
H262 C272 0.930 . S
H263 C275 0.929 . S
H264 C278 0.930 . S
H265 C280 0.960 . S
H266 C280 0.960 . S
H267 C280 0.960 . S
C268 H260 0.929 . S
C268 C269 1.377 . S
C268 C270 1.384 . S
C269 C268 1.377 . S
C269 C275 1.390 . S
C270 H261 0.930 . S
C270 C268 1.384 . S
C270 C271 1.372 . S
C271 C270 1.372 . S
C271 C272 1.400 . S
C271 C276 1.490 . S
C272 H262 0.930 . S
C272 C271 1.400 . S
C272 C275 1.386 . S
H273 C289 0.930 . S
H274 C290 0.931 . S
C275 H263 0.929 . S
C275 C269 1.390 . S
C275 C272 1.386 . S
C276 C271 1.490 . S
C276 C278 1.395 1_565 S
C276 C279 1.403 1_655 S
H277 C283 0.930 . S
C278 H264 0.930 . S
C278 C276 1.395 1_545 S
C278 C281 1.403 . S
C279 C276 1.403 1_455 S
C279 C280 1.524 . S
C279 C283 1.400 . S
C280 H265 0.960 . S
C280 H266 0.960 . S
C280 H267 0.960 . S
C280 C279 1.524 . S
C281 C278 1.403 . S
C281 C282 1.392 1_655 S
C281 C285 1.495 . S
C282 C281 1.392 1_455 S
C282 C283 1.385 1_545 S
C282 C284 1.478 . S
C283 H277 0.930 . S
C283 C279 1.400 . S
C283 C282 1.385 1_565 S
C284 C282 1.478 . S
C284 C286 1.381 . S
C284 C290 1.383 . S
C285 C281 1.495 . S
C285 H291 0.959 . S
C285 H292 0.961 . S
C285 H293 0.960 . S
C286 C284 1.381 . S
C286 C287 1.394 . S
C286 H294 0.930 . S
C287 C286 1.394 . S
C287 C288 1.383 . S
C287 H295 0.929 . S
C288 C287 1.383 . S
C288 C289 1.377 . S
C289 H273 0.930 . S
C289 C288 1.377 . S
C289 C290 1.379 . S
C290 H274 0.931 . S
C290 C284 1.383 . S
C290 C289 1.379 . S
H291 C285 0.959 . S
H292 C285 0.961 . S
H293 C285 0.960 . S
H294 C286 0.930 . S
H295 C287 0.929 . S
H296 C304 0.929 . S
H297 C306 0.930 . S
H298 C308 0.930 . S
H299 C311 0.929 . S
H300 C314 0.930 . S
H301 C316 0.960 . S
H302 C316 0.960 . S
H303 C316 0.960 . S
C304 H296 0.929 . S
C304 C305 1.377 . S
C304 C306 1.384 . S
C305 C304 1.377 . S
C305 C311 1.390 . S
C306 H297 0.930 . S
C306 C304 1.384 . S
C306 C307 1.372 . S
C307 C306 1.372 . S
C307 C308 1.400 . S
C307 C312 1.490 . S
C308 H298 0.930 . S
C308 C307 1.400 . S
C308 C311 1.386 . S
H309 C325 0.930 . S
H310 C326 0.931 . S
C311 H299 0.929 . S
C311 C305 1.390 . S
C311 C308 1.386 . S
C312 C307 1.490 . S
C312 C314 1.395 1_565 S
C312 C315 1.403 . S
H313 C319 0.930 . S
C314 H300 0.930 . S
C314 C312 1.395 1_545 S
C314 C317 1.403 . S
C315 C312 1.403 . S
C315 C316 1.524 . S
C315 C319 1.400 . S
C316 H301 0.960 . S
C316 H302 0.960 . S
C316 H303 0.960 . S
C316 C315 1.524 . S
C317 C314 1.403 . S
C317 C318 1.392 . S
C317 C321 1.495 . S
C318 C317 1.392 . S
C318 C319 1.385 1_545 S
C318 C320 1.478 . S
C319 H313 0.930 . S
C319 C315 1.400 . S
C319 C318 1.385 1_565 S
C320 C318 1.478 . S
C320 C322 1.381 . S
C320 C326 1.383 . S
C321 C317 1.495 . S
C321 H327 0.959 . S
C321 H328 0.961 . S
C321 H329 0.960 . S
C322 C320 1.381 . S
C322 C323 1.394 . S
C322 H330 0.930 . S
C323 C322 1.394 . S
C323 C324 1.383 . S
C323 H331 0.929 . S
C324 C323 1.383 . S
C324 C325 1.377 . S
C325 H309 0.930 . S
C325 C324 1.377 . S
C325 C326 1.379 . S
C326 H310 0.931 . S
C326 C320 1.383 . S
C326 C325 1.379 . S
H327 C321 0.959 . S
H328 C321 0.961 . S
H329 C321 0.960 . S
H330 C322 0.930 . S
H331 C323 0.929 . S
H332 C340 0.929 . S
H333 C342 0.930 . S
H334 C344 0.930 . S
H335 C347 0.929 . S
H336 C350 0.930 . S
H337 C352 0.960 . S
H338 C352 0.960 . S
H339 C352 0.960 . S
C340 H332 0.929 . S
C340 C341 1.377 . S
C340 C342 1.384 . S
C341 C340 1.377 . S
C341 C347 1.390 . S
C342 H333 0.930 . S
C342 C340 1.384 . S
C342 C343 1.372 . S
C343 C342 1.372 . S
C343 C344 1.400 . S
C343 C348 1.490 . S
C344 H334 0.930 . S
C344 C343 1.400 . S
C344 C347 1.386 . S
H345 C361 0.930 . S
H346 C362 0.931 . S
C347 H335 0.929 . S
C347 C341 1.390 . S
C347 C344 1.386 . S
C348 C343 1.490 . S
C348 C350 1.395 1_455 S
C348 C351 1.403 . S
H349 C355 0.932 . S
C350 H336 0.930 . S
C350 C348 1.395 1_655 S
C350 C353 1.403 . S
C351 C348 1.403 . S
C351 C352 1.524 . S
C351 C355 1.410 . S
C352 H337 0.960 . S
C352 H338 0.960 . S
C352 H339 0.960 . S
C352 C351 1.524 . S
C353 C350 1.403 . S
C353 C354 1.392 . S
C353 C357 1.495 . S
C354 C353 1.392 . S
C354 C355 1.373 1_655 S
C354 C356 1.478 . S
C355 H349 0.932 . S
C355 C351 1.410 . S
C355 C354 1.373 1_455 S
C356 C354 1.478 . S
C356 C358 1.381 . S
C356 C362 1.383 . S
C357 C353 1.495 . S
C357 H363 0.959 . S
C357 H364 0.961 . S
C357 H365 0.960 . S
C358 C356 1.381 . S
C358 C359 1.394 . S
C358 H366 0.930 . S
C359 C358 1.394 . S
C359 C360 1.383 . S
C359 H367 0.929 . S
C360 C359 1.383 . S
C360 C361 1.377 . S
C361 H345 0.930 . S
C361 C360 1.377 . S
C361 C362 1.379 . S
C362 H346 0.931 . S
C362 C356 1.383 . S
C362 C361 1.379 . S
H363 C357 0.959 . S
H364 C357 0.961 . S
H365 C357 0.960 . S
H366 C358 0.930 . S
H367 C359 0.929 . S
H368 C376 0.929 . S
H369 C378 0.930 . S
H370 C380 0.930 . S
H371 C383 0.929 . S
H372 C386 0.930 . S
H373 C388 0.960 . S
H374 C388 0.960 . S
H375 C388 0.960 . S
C376 H368 0.929 . S
C376 C377 1.377 . S
C376 C378 1.384 . S
C377 C376 1.377 . S
C377 C383 1.390 . S
C378 H369 0.930 . S
C378 C376 1.384 . S
C378 C379 1.372 . S
C379 C378 1.372 . S
C379 C380 1.400 . S
C379 C384 1.490 . S
C380 H370 0.930 . S
C380 C379 1.400 . S
C380 C383 1.386 . S
H381 C397 0.930 . S
H382 C398 0.931 . S
C383 H371 0.929 . S
C383 C377 1.390 . S
C383 C380 1.386 . S
C384 C379 1.490 . S
C384 C386 1.395 . S
C384 C387 1.403 . S
H385 C391 0.930 . S
C386 H372 0.930 . S
C386 C384 1.395 . S
C386 C389 1.403 . S
C387 C384 1.403 . S
C387 C388 1.524 . S
C387 C391 1.400 . S
C388 H373 0.960 . S
C388 H374 0.960 . S
C388 H375 0.960 . S
C388 C387 1.524 . S
C389 C386 1.403 . S
C389 C390 1.392 . S
C389 C393 1.495 . S
C390 C389 1.392 . S
C390 C391 1.385 . S
C390 C392 1.478 . S
C391 H385 0.930 . S
C391 C387 1.400 . S
C391 C390 1.385 . S
C392 C390 1.478 . S
C392 C394 1.381 . S
C392 C398 1.383 . S
C393 C389 1.495 . S
C393 H399 0.959 . S
C393 H400 0.961 . S
C393 H401 0.960 . S
C394 C392 1.381 . S
C394 C395 1.394 . S
C394 H402 0.930 . S
C395 C394 1.394 . S
C395 C396 1.383 . S
C395 H403 0.929 . S
C396 C395 1.383 . S
C396 C397 1.377 . S
C397 H381 0.930 . S
C397 C396 1.377 . S
C397 C398 1.379 . S
C398 H382 0.931 . S
C398 C392 1.383 . S
C398 C397 1.379 . S
H399 C393 0.959 . S
H400 C393 0.961 . S
H401 C393 0.960 . S
H402 C394 0.930 . S
H403 C395 0.929 . S
H404 C412 0.929 . S
H405 C414 0.930 . S
H406 C416 0.930 . S
H407 C419 0.929 . S
H408 C422 0.930 . S
H409 C424 0.960 . S
H410 C424 0.960 . S
H411 C424 0.960 . S
C412 H404 0.929 . S
C412 C413 1.377 . S
C412 C414 1.384 . S
C413 C412 1.377 . S
C413 C419 1.390 . S
C414 H405 0.930 . S
C414 C412 1.384 . S
C414 C415 1.372 . S
C415 C414 1.372 . S
C415 C416 1.400 . S
C415 C420 1.490 . S
C416 H406 0.930 . S
C416 C415 1.400 . S
C416 C419 1.386 . S
H417 C433 0.930 . S
H418 C434 0.931 . S
C419 H407 0.929 . S
C419 C413 1.390 . S
C419 C416 1.386 . S
C420 C415 1.490 . S
C420 C422 1.395 . S
C420 C423 1.403 1_545 S
H421 C427 0.930 . S
C422 H408 0.930 . S
C422 C420 1.395 . S
C422 C425 1.403 . S
C423 C420 1.403 1_565 S
C423 C424 1.524 . S
C423 C427 1.400 . S
C424 H409 0.960 . S
C424 H410 0.960 . S
C424 H411 0.960 . S
C424 C423 1.524 . S
C425 C422 1.403 . S
C425 C426 1.392 1_545 S
C425 C429 1.495 . S
C426 C425 1.392 1_565 S
C426 C427 1.385 . S
C426 C428 1.478 . S
C427 H421 0.930 . S
C427 C423 1.400 . S
C427 C426 1.385 . S
C428 C426 1.478 . S
C428 C430 1.381 . S
C428 C434 1.383 . S
C429 C425 1.495 . S
C429 H435 0.959 . S
C429 H436 0.961 . S
C429 H437 0.960 . S
C430 C428 1.381 . S
C430 C431 1.394 . S
C430 H438 0.930 . S
C431 C430 1.394 . S
C431 C432 1.383 . S
C431 H439 0.929 . S
C432 C431 1.383 . S
C432 C433 1.377 . S
C433 H417 0.930 . S
C433 C432 1.377 . S
C433 C434 1.379 . S
C434 H418 0.931 . S
C434 C428 1.383 . S
C434 C433 1.379 . S
H435 C429 0.959 . S
H436 C429 0.961 . S
H437 C429 0.960 . S
H438 C430 0.930 . S
H439 C431 0.929 . S
H440 C448 0.929 . S
H441 C450 0.930 . S
H442 C452 0.930 . S
H443 C455 0.929 . S
H444 C458 0.930 . S
H445 C460 0.960 . S
H446 C460 0.960 . S
H447 C460 0.960 1_655 S
C448 H440 0.929 . S
C448 C449 1.377 . S
C448 C450 1.384 . S
C449 C448 1.377 . S
C449 C455 1.390 . S
C450 H441 0.930 . S
C450 C448 1.384 . S
C450 C451 1.372 . S
C451 C450 1.372 . S
C451 C452 1.400 . S
C451 C456 1.490 . S
C452 H442 0.930 . S
C452 C451 1.400 . S
C452 C455 1.386 . S
H453 C469 0.930 . S
H454 C470 0.931 . S
C455 H443 0.929 . S
C455 C449 1.390 . S
C455 C452 1.386 . S
C456 C451 1.490 . S
C456 C458 1.395 . S
C456 C459 1.407 1_655 S
H457 C463 0.930 . S
C458 H444 0.930 . S
C458 C456 1.395 . S
C458 C461 1.415 . S
C459 C456 1.407 1_455 S
C459 C460 1.523 . S
C459 C463 1.397 . S
C460 H445 0.960 . S
C460 H446 0.960 . S
C460 H447 0.960 1_455 S
C460 C459 1.523 . S
C461 C458 1.415 . S
C461 C462 1.379 1_655 S
C461 C465 1.498 . S
C462 C461 1.379 1_455 S
C462 C463 1.385 . S
C462 C464 1.478 . S
C463 H457 0.930 . S
C463 C459 1.397 . S
C463 C462 1.385 . S
C464 C462 1.478 . S
C464 C466 1.381 . S
C464 C470 1.383 . S
C465 C461 1.498 . S
C465 H471 0.959 . S
C465 H472 0.961 . S
C465 H473 0.960 1_655 S
C466 C464 1.381 . S
C466 C467 1.394 . S
C466 H474 0.930 . S
C467 C466 1.394 . S
C467 C468 1.383 . S
C467 H475 0.929 . S
C468 C467 1.383 . S
C468 C469 1.377 . S
C469 H453 0.930 . S
C469 C468 1.377 . S
C469 C470 1.379 . S
C470 H454 0.931 . S
C470 C464 1.383 . S
C470 C469 1.379 . S
H471 C465 0.959 . S
H472 C465 0.961 . S
H473 C465 0.960 1_455 S
H474 C466 0.930 . S
H475 C467 0.929 . S
H476 C484 0.929 . S
H477 C486 0.930 . S
H478 C488 0.987 . S
H479 C491 0.929 . S
H480 C494 0.930 . S
H481 C496 0.972 . S
H482 C496 0.943 1_554 S
H483 C496 0.968 . S
C484 H476 0.929 . S
C484 C485 1.377 . S
C484 C486 1.384 . S
C485 C484 1.377 . S
C485 C491 1.390 . S
C486 H477 0.930 . S
C486 C484 1.384 . S
C486 C487 1.372 . S
C487 C486 1.372 . S
C487 C488 1.400 . S
C487 C492 1.490 . S
C488 H478 0.987 . S
C488 C487 1.400 . S
C488 C491 1.386 . S
H489 C505 0.930 . S
H490 C506 0.931 . S
C491 H479 0.929 . S
C491 C485 1.390 . S
C491 C488 1.386 . S
C492 C487 1.490 . S
C492 C494 1.395 . S
C492 C495 1.419 . S
H493 C499 0.930 . S
C494 H480 0.930 . S
C494 C492 1.395 . S
C494 C497 1.403 . S
C495 C492 1.419 . S
C495 C496 1.518 1_554 S
C495 C499 1.388 1_554 S
C496 H481 0.972 . S
C496 H482 0.943 1_556 S
C496 H483 0.968 . S
C496 C495 1.518 1_556 S
C497 C494 1.403 . S
C497 C498 1.392 1_554 S
C497 C501 1.495 . S
C498 C497 1.392 1_556 S
C498 C499 1.385 . S
C498 C500 1.478 . S
C499 H493 0.930 . S
C499 C495 1.388 1_556 S
C499 C498 1.385 . S
C500 C498 1.478 . S
C500 C502 1.381 . S
C500 C506 1.383 . S
C501 C497 1.495 . S
C501 H507 0.959 . S
C501 H508 0.961 1_554 S
C501 H509 0.960 . S
C502 C500 1.381 . S
C502 C503 1.394 . S
C502 H510 0.913 1_556 S
C503 C502 1.394 . S
C503 C504 1.383 . S
C503 H511 0.929 . S
C504 C503 1.383 . S
C504 C505 1.377 . S
C505 H489 0.930 . S
C505 C504 1.377 . S
C505 C506 1.379 . S
C506 H490 0.931 . S
C506 C500 1.383 . S
C506 C505 1.379 . S
H507 C501 0.959 . S
H508 C501 0.961 1_556 S
H509 C501 0.960 . S
H510 C502 0.913 1_554 S
H511 C503 0.929 . S
H512 C520 0.929 . S
H513 C522 0.930 . S
H514 C524 0.930 . S
H515 C527 0.929 . S
H516 C530 0.930 . S
H517 C532 0.960 . S
H518 C532 0.960 . S
H519 C532 0.960 . S
C520 H512 0.929 . S
C520 C521 1.377 . S
C520 C522 1.384 . S
C521 C520 1.377 . S
C521 C527 1.390 . S
C522 H513 0.930 . S
C522 C520 1.384 . S
C522 C523 1.372 . S
C523 C522 1.372 . S
C523 C524 1.400 . S
C523 C528 1.490 . S
C524 H514 0.930 . S
C524 C523 1.400 . S
C524 C527 1.386 . S
H525 C541 0.930 . S
H526 C542 0.931 . S
C527 H515 0.929 . S
C527 C521 1.390 . S
C527 C524 1.386 . S
C528 C523 1.490 . S
C528 C530 1.395 1_556 S
C528 C531 1.403 1_455 S
H529 C535 0.930 . S
C530 H516 0.930 . S
C530 C528 1.395 1_554 S
C530 C533 1.403 . S
C531 C528 1.403 1_655 S
C531 C532 1.524 . S
C531 C535 1.400 . S
C532 H517 0.960 . S
C532 H518 0.960 . S
C532 H519 0.960 . S
C532 C531 1.524 . S
C533 C530 1.403 . S
C533 C534 1.392 1_455 S
C533 C537 1.495 . S
C534 C533 1.392 1_655 S
C534 C535 1.385 1_554 S
C534 C536 1.478 . S
C535 H529 0.930 . S
C535 C531 1.400 . S
C535 C534 1.385 1_556 S
C536 C534 1.478 . S
C536 C538 1.381 . S
C536 C542 1.383 . S
C537 C533 1.495 . S
C537 H543 0.959 . S
C537 H544 0.961 . S
C537 H545 0.960 . S
C538 C536 1.381 . S
C538 C539 1.394 . S
C538 H546 0.930 . S
C539 C538 1.394 . S
C539 C540 1.383 . S
C539 H547 0.929 . S
C540 C539 1.383 . S
C540 C541 1.377 . S
C541 H525 0.930 . S
C541 C540 1.377 . S
C541 C542 1.379 . S
C542 H526 0.931 . S
C542 C536 1.383 . S
C542 C541 1.379 . S
H543 C537 0.959 . S
H544 C537 0.961 . S
H545 C537 0.960 . S
H546 C538 0.930 . S
H547 C539 0.929 . S
H548 C556 0.929 . S
H549 C558 0.930 . S
H550 C560 0.930 . S
H551 C563 0.929 . S
H552 C566 0.930 . S
H553 C568 0.960 . S
H554 C568 0.960 . S
H555 C568 0.960 . S
C556 H548 0.929 . S
C556 C557 1.377 . S
C556 C558 1.384 . S
C557 C556 1.377 . S
C557 C563 1.390 . S
C558 H549 0.930 . S
C558 C556 1.384 . S
C558 C559 1.372 . S
C559 C558 1.372 . S
C559 C560 1.400 . S
C559 C564 1.490 . S
C560 H550 0.930 . S
C560 C559 1.400 . S
C560 C563 1.386 . S
H561 C577 0.930 . S
H562 C578 0.931 . S
C563 H551 0.929 . S
C563 C557 1.390 . S
C563 C560 1.386 . S
C564 C559 1.490 . S
C564 C566 1.395 . S
C564 C567 1.403 . S
H565 C571 0.930 . S
C566 H552 0.930 . S
C566 C564 1.395 . S
C566 C569 1.403 . S
C567 C564 1.403 . S
C567 C568 1.524 . S
C567 C571 1.400 . S
C568 H553 0.960 . S
C568 H554 0.960 . S
C568 H555 0.960 . S
C568 C567 1.524 . S
C569 C566 1.403 . S
C569 C570 1.392 . S
C569 C573 1.495 . S
C570 C569 1.392 . S
C570 C571 1.385 . S
C570 C572 1.478 . S
C571 H565 0.930 . S
C571 C567 1.400 . S
C571 C570 1.385 . S
C572 C570 1.478 . S
C572 C574 1.381 . S
C572 C578 1.383 . S
C573 C569 1.495 . S
C573 H579 0.959 . S
C573 H580 0.961 . S
C573 H581 0.960 . S
C574 C572 1.381 . S
C574 C575 1.394 . S
C574 H582 0.930 . S
C575 C574 1.394 . S
C575 C576 1.383 . S
C575 H583 0.929 . S
C576 C575 1.383 . S
C576 C577 1.377 . S
C577 H561 0.930 . S
C577 C576 1.377 . S
C577 C578 1.379 . S
C578 H562 0.931 . S
C578 C572 1.383 . S
C578 C577 1.379 . S
H579 C573 0.959 . S
H580 C573 0.961 . S
H581 C573 0.960 . S
H582 C574 0.930 . S
H583 C575 0.929 . S
H584 C592 0.929 . S
H585 C594 0.930 . S
H586 C596 0.930 . S
H587 C599 0.929 . S
H588 C602 0.930 . S
H589 C604 0.960 . S
H590 C604 0.960 . S
H591 C604 0.960 1_556 S
C592 H584 0.929 . S
C592 C593 1.377 . S
C592 C594 1.384 . S
C593 C592 1.377 . S
C593 C599 1.390 . S
C594 H585 0.930 . S
C594 C592 1.384 . S
C594 C595 1.372 . S
C595 C594 1.372 . S
C595 C596 1.400 . S
C595 C600 1.490 . S
C596 H586 0.930 . S
C596 C595 1.400 . S
C596 C599 1.386 . S
H597 C613 0.930 . S
H598 C614 0.931 . S
C599 H587 0.929 . S
C599 C593 1.390 . S
C599 C596 1.386 . S
C600 C595 1.490 . S
C600 C602 1.395 . S
C600 C603 1.390 1_556 S
H601 C607 0.930 . S
C602 H588 0.930 . S
C602 C600 1.395 . S
C602 C605 1.407 1_556 S
C603 C600 1.390 1_554 S
C603 C604 1.528 . S
C603 C607 1.410 . S
C604 H589 0.960 . S
C604 H590 0.960 . S
C604 H591 0.960 1_554 S
C604 C603 1.528 . S
C605 C602 1.407 1_554 S
C605 C606 1.388 . S
C605 C609 1.491 1_554 S
C606 C605 1.388 . S
C606 C607 1.385 . S
C606 C608 1.478 . S
C607 H601 0.930 . S
C607 C603 1.410 . S
C607 C606 1.385 . S
C608 C606 1.478 . S
C608 C610 1.381 . S
C608 C614 1.383 . S
C609 C605 1.491 1_556 S
C609 H615 0.986 . S
C609 H616 0.983 . S
C609 H617 0.918 1_556 S
C610 C608 1.381 . S
C610 C611 1.394 . S
C610 H618 0.930 . S
C611 C610 1.394 . S
C611 C612 1.383 . S
C611 H619 0.929 . S
C612 C611 1.383 . S
C612 C613 1.377 . S
C613 H597 0.930 . S
C613 C612 1.377 . S
C613 C614 1.379 . S
C614 H598 0.931 . S
C614 C608 1.383 . S
C614 C613 1.379 . S
H615 C609 0.986 . S
H616 C609 0.983 . S
H617 C609 0.918 1_554 S
H618 C610 0.930 . S
H619 C611 0.929 . S
H620 C628 0.929 . S
H621 C630 0.930 . S
H622 C632 0.930 . S
H623 C635 0.929 . S
H624 C638 0.930 . S
H625 C640 0.960 . S
H626 C640 0.960 . S
H627 C640 0.960 . S
C628 H620 0.929 . S
C628 C629 1.377 . S
C628 C630 1.384 . S
C629 C628 1.377 . S
C629 C635 1.390 . S
C630 H621 0.930 . S
C630 C628 1.384 . S
C630 C631 1.372 . S
C631 C630 1.372 . S
C631 C632 1.400 . S
C631 C636 1.490 . S
C632 H622 0.930 . S
C632 C631 1.400 . S
C632 C635 1.386 . S
H633 C649 0.930 . S
H634 C650 0.931 . S
C635 H623 0.929 . S
C635 C629 1.390 . S
C635 C632 1.386 . S
C636 C631 1.490 . S
C636 C638 1.395 . S
C636 C639 1.403 . S
H637 C643 0.930 . S
C638 H624 0.930 . S
C638 C636 1.395 . S
C638 C641 1.403 . S
C639 C636 1.403 . S
C639 C640 1.524 . S
C639 C643 1.400 . S
C640 H625 0.960 . S
C640 H626 0.960 . S
C640 H627 0.960 . S
C640 C639 1.524 . S
C641 C638 1.403 . S
C641 C642 1.392 . S
C641 C645 1.495 . S
C642 C641 1.392 . S
C642 C643 1.385 . S
C642 C644 1.478 . S
C643 H637 0.930 . S
C643 C639 1.400 . S
C643 C642 1.385 . S
C644 C642 1.478 . S
C644 C646 1.381 . S
C644 C650 1.383 . S
C645 C641 1.495 . S
C645 H651 0.959 . S
C645 H652 0.961 . S
C645 H653 0.960 . S
C646 C644 1.381 . S
C646 C647 1.394 . S
C646 H654 0.930 . S
C647 C646 1.394 . S
C647 C648 1.383 . S
C647 H655 0.929 . S
C648 C647 1.383 . S
C648 C649 1.377 . S
C649 H633 0.930 . S
C649 C648 1.377 . S
C649 C650 1.379 . S
C650 H634 0.931 . S
C650 C644 1.383 . S
C650 C649 1.379 . S
H651 C645 0.959 . S
H652 C645 0.961 . S
H653 C645 0.960 . S
H654 C646 0.930 . S
H655 C647 0.929 . S
H656 C664 0.929 . S
H657 C666 0.930 . S
H658 C668 0.930 . S
H659 C671 0.929 . S
H660 C674 0.930 . S
H661 C676 0.960 . S
H662 C676 0.960 . S
H663 C676 0.960 . S
C664 H656 0.929 . S
C664 C665 1.377 . S
C664 C666 1.384 . S
C665 C664 1.377 . S
C665 C671 1.390 . S
C666 H657 0.930 . S
C666 C664 1.384 . S
C666 C667 1.372 . S
C667 C666 1.372 . S
C667 C668 1.400 . S
C667 C672 1.490 . S
C668 H658 0.930 . S
C668 C667 1.400 . S
C668 C671 1.386 . S
H669 C685 0.930 . S
H670 C686 0.931 . S
C671 H659 0.929 . S
C671 C665 1.390 . S
C671 C668 1.386 . S
C672 C667 1.490 . S
C672 C674 1.395 1_545 S
C672 C675 1.403 1_556 S
H673 C679 0.930 . S
C674 H660 0.930 . S
C674 C672 1.395 1_565 S
C674 C677 1.403 . S
C675 C672 1.403 1_554 S
C675 C676 1.524 . S
C675 C679 1.400 . S
C676 H661 0.960 . S
C676 H662 0.960 . S
C676 H663 0.960 . S
C676 C675 1.524 . S
C677 C674 1.403 . S
C677 C678 1.392 1_556 S
C677 C681 1.495 . S
C678 C677 1.392 1_554 S
C678 C679 1.385 1_565 S
C678 C680 1.478 . S
C679 H673 0.930 . S
C679 C675 1.400 . S
C679 C678 1.385 1_545 S
C680 C678 1.478 . S
C680 C682 1.381 . S
C680 C686 1.383 . S
C681 C677 1.495 . S
C681 H687 0.959 . S
C681 H688 0.961 . S
C681 H689 0.960 . S
C682 C680 1.381 . S
C682 C683 1.394 . S
C682 H690 0.942 . S
C683 C682 1.394 . S
C683 C684 1.383 . S
C683 H691 0.929 . S
C684 C683 1.383 . S
C684 C685 1.377 . S
C685 H669 0.930 . S
C685 C684 1.377 . S
C685 C686 1.379 . S
C686 H670 0.931 . S
C686 C680 1.383 . S
C686 C685 1.379 . S
H687 C681 0.959 . S
H688 C681 0.961 . S
H689 C681 0.960 . S
H690 C682 0.942 . S
H691 C683 0.929 . S
H692 C700 0.929 . S
H693 C702 0.930 . S
H694 C704 0.930 . S
H695 C707 0.929 . S
H696 C710 0.930 . S
H697 C712 0.960 . S
H698 C712 0.960 . S
H699 C712 0.960 . S
C700 H692 0.929 . S
C700 C701 1.377 . S
C700 C702 1.384 . S
C701 C700 1.377 . S
C701 C707 1.390 . S
C702 H693 0.930 . S
C702 C700 1.384 . S
C702 C703 1.372 . S
C703 C702 1.372 . S
C703 C704 1.400 . S
C703 C708 1.490 . S
C704 H694 0.930 . S
C704 C703 1.400 . S
C704 C707 1.386 . S
H705 C721 0.930 . S
H706 C722 0.931 . S
C707 H695 0.929 . S
C707 C701 1.390 . S
C707 C704 1.386 . S
C708 C703 1.490 . S
C708 C710 1.395 . S
C708 C711 1.403 . S
H709 C715 0.930 . S
C710 H696 0.930 . S
C710 C708 1.395 . S
C710 C713 1.403 . S
C711 C708 1.403 . S
C711 C712 1.524 . S
C711 C715 1.400 . S
C712 H697 0.960 . S
C712 H698 0.960 . S
C712 H699 0.960 . S
C712 C711 1.524 . S
C713 C710 1.403 . S
C713 C714 1.392 . S
C713 C717 1.495 . S
C714 C713 1.392 . S
C714 C715 1.385 . S
C714 C716 1.478 . S
C715 H709 0.930 . S
C715 C711 1.400 . S
C715 C714 1.385 . S
C716 C714 1.478 . S
C716 C718 1.381 . S
C716 C722 1.383 . S
C717 C713 1.495 . S
C717 H723 0.959 . S
C717 H724 0.961 . S
C717 H725 0.960 . S
C718 C716 1.381 . S
C718 C719 1.394 . S
C718 H726 0.930 . S
C719 C718 1.394 . S
C719 C720 1.383 . S
C719 H727 0.929 . S
C720 C719 1.383 . S
C720 C721 1.377 . S
C721 H705 0.930 . S
C721 C720 1.377 . S
C721 C722 1.379 . S
C722 H706 0.931 . S
C722 C716 1.383 . S
C722 C721 1.379 . S
H723 C717 0.959 . S
H724 C717 0.961 . S
H725 C717 0.960 . S
H726 C718 0.930 . S
H727 C719 0.929 . S
H728 C736 0.929 . S
H729 C738 0.930 . S
H730 C740 0.930 . S
H731 C743 0.929 . S
H732 C746 0.930 . S
H733 C748 0.960 . S
H734 C748 0.960 . S
H735 C748 0.960 . S
C736 H728 0.929 . S
C736 C737 1.377 . S
C736 C738 1.384 . S
C737 C736 1.377 . S
C737 C743 1.390 . S
C738 H729 0.930 . S
C738 C736 1.384 . S
C738 C739 1.372 . S
C739 C738 1.372 . S
C739 C740 1.400 . S
C739 C744 1.490 . S
C740 H730 0.930 . S
C740 C739 1.400 . S
C740 C743 1.386 . S
H741 C757 0.930 . S
H742 C758 0.931 . S
C743 H731 0.929 . S
C743 C737 1.390 . S
C743 C740 1.386 . S
C744 C739 1.490 . S
C744 C746 1.395 . S
C744 C747 1.403 . S
H745 C751 0.930 . S
C746 H732 0.930 . S
C746 C744 1.395 . S
C746 C749 1.403 . S
C747 C744 1.403 . S
C747 C748 1.524 . S
C747 C751 1.400 . S
C748 H733 0.960 . S
C748 H734 0.960 . S
C748 H735 0.960 . S
C748 C747 1.524 . S
C749 C746 1.403 . S
C749 C750 1.392 . S
C749 C753 1.495 . S
C750 C749 1.392 . S
C750 C751 1.385 . S
C750 C752 1.478 . S
C751 H745 0.930 . S
C751 C747 1.400 . S
C751 C750 1.385 . S
C752 C750 1.478 . S
C752 C754 1.381 . S
C752 C758 1.383 . S
C753 C749 1.495 . S
C753 H759 0.959 . S
C753 H760 0.961 . S
C753 H761 0.960 . S
C754 C752 1.381 . S
C754 C755 1.394 . S
C754 H762 0.930 . S
C755 C754 1.394 . S
C755 C756 1.383 . S
C755 H763 0.929 . S
C756 C755 1.383 . S
C756 C757 1.377 . S
C757 H741 0.930 . S
C757 C756 1.377 . S
C757 C758 1.379 . S
C758 H742 0.931 . S
C758 C752 1.383 . S
C758 C757 1.379 . S
H759 C753 0.959 . S
H760 C753 0.961 . S
H761 C753 0.960 . S
H762 C754 0.930 . S
H763 C755 0.929 . S
H764 C772 0.929 . S
H765 C774 0.930 . S
H766 C776 0.930 . S
H767 C779 0.929 . S
H768 C782 0.930 . S
H769 C784 0.960 . S
H770 C784 0.960 . S
H771 C784 0.960 . S
C772 H764 0.929 . S
C772 C773 1.377 . S
C772 C774 1.384 . S
C773 C772 1.377 . S
C773 C779 1.390 . S
C774 H765 0.930 . S
C774 C772 1.384 . S
C774 C775 1.372 . S
C775 C774 1.372 . S
C775 C776 1.400 . S
C775 C780 1.490 . S
C776 H766 0.930 . S
C776 C775 1.400 . S
C776 C779 1.386 . S
H777 C793 0.930 . S
H778 C794 0.931 . S
C779 H767 0.929 . S
C779 C773 1.390 . S
C779 C776 1.386 . S
C780 C775 1.490 . S
C780 C782 1.395 . S
C780 C783 1.403 . S
H781 C787 0.930 . S
C782 H768 0.930 . S
C782 C780 1.395 . S
C782 C785 1.403 . S
C783 C780 1.403 . S
C783 C784 1.524 . S
C783 C787 1.400 . S
C784 H769 0.960 . S
C784 H770 0.960 . S
C784 H771 0.960 . S
C784 C783 1.524 . S
C785 C782 1.403 . S
C785 C786 1.392 . S
C785 C789 1.495 . S
C786 C785 1.392 . S
C786 C787 1.385 . S
C786 C788 1.478 . S
C787 H781 0.930 . S
C787 C783 1.400 . S
C787 C786 1.385 . S
C788 C786 1.478 . S
C788 C790 1.381 . S
C788 C794 1.383 . S
C789 C785 1.495 . S
C789 H795 0.959 . S
C789 H796 0.961 . S
C789 H797 0.960 . S
C790 C788 1.381 . S
C790 C791 1.394 . S
C790 H798 0.930 . S
C791 C790 1.394 . S
C791 C792 1.383 . S
C791 H799 0.929 . S
C792 C791 1.383 . S
C792 C793 1.377 . S
C793 H777 0.930 . S
C793 C792 1.377 . S
C793 C794 1.379 . S
C794 H778 0.931 . S
C794 C788 1.383 . S
C794 C793 1.379 . S
H795 C789 0.959 . S
H796 C789 0.961 . S
H797 C789 0.960 . S
H798 C790 0.930 . S
H799 C791 0.929 . S
H800 C808 0.929 . S
H801 C810 0.930 . S
H802 C812 0.930 . S
H803 C815 0.929 . S
H804 C818 0.930 . S
H805 C820 0.960 . S
H806 C820 0.960 . S
H807 C820 0.960 . S
C808 H800 0.929 . S
C808 C809 1.377 . S
C808 C810 1.384 . S
C809 C808 1.377 . S
C809 C815 1.390 . S
C810 H801 0.930 . S
C810 C808 1.384 . S
C810 C811 1.372 . S
C811 C810 1.372 . S
C811 C812 1.400 . S
C811 C816 1.490 . S
C812 H802 0.930 . S
C812 C811 1.400 . S
C812 C815 1.386 . S
H813 C829 0.930 1_545 S
H814 C830 0.931 . S
C815 H803 0.929 . S
C815 C809 1.390 . S
C815 C812 1.386 . S
C816 C811 1.490 . S
C816 C818 1.395 . S
C816 C819 1.403 . S
H817 C823 0.930 . S
C818 H804 0.930 . S
C818 C816 1.395 . S
C818 C821 1.403 . S
C819 C816 1.403 . S
C819 C820 1.524 . S
C819 C823 1.400 . S
C820 H805 0.960 . S
C820 H806 0.960 . S
C820 H807 0.960 . S
C820 C819 1.524 . S
C821 C818 1.403 . S
C821 C822 1.392 . S
C821 C825 1.495 . S
C822 C821 1.392 . S
C822 C823 1.385 . S
C822 C824 1.478 . S
C823 H817 0.930 . S
C823 C819 1.400 . S
C823 C822 1.385 . S
C824 C822 1.478 . S
C824 C826 1.381 . S
C824 C830 1.383 . S
C825 C821 1.495 . S
C825 H831 0.959 . S
C825 H832 0.961 . S
C825 H833 0.960 . S
C826 C824 1.381 . S
C826 C827 1.394 . S
C826 H834 0.930 . S
C827 C826 1.394 . S
C827 C828 1.383 . S
C827 H835 0.929 . S
C828 C827 1.383 . S
C828 C829 1.377 . S
C829 H813 0.930 1_565 S
C829 C828 1.377 . S
C829 C830 1.379 . S
C830 H814 0.931 . S
C830 C824 1.383 . S
C830 C829 1.379 . S
H831 C825 0.959 . S
H832 C825 0.961 . S
H833 C825 0.960 . S
H834 C826 0.930 . S
H835 C827 0.929 . S
H836 C844 0.929 . S
H837 C846 0.930 . S
H838 C848 0.930 . S
H839 C851 0.929 . S
H840 C854 0.930 . S
H841 C856 0.960 . S
H842 C856 0.960 . S
H843 C856 0.960 . S
C844 H836 0.929 . S
C844 C845 1.377 . S
C844 C846 1.384 . S
C845 C844 1.377 . S
C845 C851 1.390 . S
C846 H837 0.930 . S
C846 C844 1.384 . S
C846 C847 1.372 . S
C847 C846 1.372 . S
C847 C848 1.400 . S
C847 C852 1.490 . S
C848 H838 0.930 . S
C848 C847 1.400 . S
C848 C851 1.386 . S
H849 C865 0.930 . S
H850 C866 0.931 . S
C851 H839 0.929 . S
C851 C845 1.390 . S
C851 C848 1.386 . S
C852 C847 1.490 . S
C852 C854 1.395 . S
C852 C855 1.403 . S
H853 C859 0.930 . S
C854 H840 0.930 . S
C854 C852 1.395 . S
C854 C857 1.403 . S
C855 C852 1.403 . S
C855 C856 1.524 . S
C855 C859 1.400 . S
C856 H841 0.960 . S
C856 H842 0.960 . S
C856 H843 0.960 . S
C856 C855 1.524 . S
C857 C854 1.403 . S
C857 C858 1.392 . S
C857 C861 1.495 . S
C858 C857 1.392 . S
C858 C859 1.385 . S
C858 C860 1.478 . S
C859 H853 0.930 . S
C859 C855 1.400 . S
C859 C858 1.385 . S
C860 C858 1.478 . S
C860 C862 1.381 . S
C860 C866 1.383 . S
C861 C857 1.495 . S
C861 H867 0.959 . S
C861 H868 0.961 . S
C861 H869 0.960 . S
C862 C860 1.381 . S
C862 C863 1.394 . S
C862 H870 0.930 . S
C863 C862 1.394 . S
C863 C864 1.383 . S
C863 H871 0.929 . S
C864 C863 1.383 . S
C864 C865 1.377 . S
C865 H849 0.930 . S
C865 C864 1.377 . S
C865 C866 1.379 . S
C866 H850 0.931 . S
C866 C860 1.383 . S
C866 C865 1.379 . S
H867 C861 0.959 . S
H868 C861 0.961 . S
H869 C861 0.960 . S
H870 C862 0.930 . S
H871 C863 0.929 . S
H872 C880 0.929 . S
H873 C882 0.930 . S
H874 C884 0.930 . S
H875 C887 0.929 . S
H876 C890 0.930 . S
H877 C892 0.960 . S
H878 C892 0.960 . S
H879 C892 0.960 . S
C880 H872 0.929 . S
C880 C881 1.377 . S
C880 C882 1.384 . S
C881 C880 1.377 . S
C881 C887 1.390 . S
C882 H873 0.930 . S
C882 C880 1.384 . S
C882 C883 1.372 . S
C883 C882 1.372 . S
C883 C884 1.400 . S
C883 C888 1.490 . S
C884 H874 0.930 . S
C884 C883 1.400 . S
C884 C887 1.386 . S
H885 C901 0.930 . S
H886 C902 0.931 . S
C887 H875 0.929 . S
C887 C881 1.390 . S
C887 C884 1.386 . S
C888 C883 1.490 . S
C888 C890 1.395 . S
C888 C891 1.403 . S
H889 C895 0.930 . S
C890 H876 0.930 . S
C890 C888 1.395 . S
C890 C893 1.403 . S
C891 C888 1.403 . S
C891 C892 1.524 . S
C891 C895 1.400 . S
C892 H877 0.960 . S
C892 H878 0.960 . S
C892 H879 0.960 . S
C892 C891 1.524 . S
C893 C890 1.403 . S
C893 C894 1.392 . S
C893 C897 1.495 . S
C894 C893 1.392 . S
C894 C895 1.385 . S
C894 C896 1.478 . S
C895 H889 0.930 . S
C895 C891 1.400 . S
C895 C894 1.385 . S
C896 C894 1.478 . S
C896 C898 1.381 . S
C896 C902 1.383 . S
C897 C893 1.495 . S
C897 H903 0.959 . S
C897 H904 0.961 . S
C897 H905 0.960 . S
C898 C896 1.381 . S
C898 C899 1.394 . S
C898 H906 0.930 . S
C899 C898 1.394 . S
C899 C900 1.383 . S
C899 H907 0.929 . S
C900 C899 1.383 . S
C900 C901 1.377 . S
C901 H885 0.930 . S
C901 C900 1.377 . S
C901 C902 1.379 . S
C902 H886 0.931 . S
C902 C896 1.383 . S
C902 C901 1.379 . S
H903 C897 0.959 . S
H904 C897 0.961 . S
H905 C897 0.960 . S
H906 C898 0.930 . S
H907 C899 0.929 . S
H908 C916 0.929 . S
H909 C918 0.930 . S
H910 C920 0.930 . S
H911 C923 0.929 . S
H912 C926 0.930 . S
H913 C928 0.960 . S
H914 C928 0.960 . S
H915 C928 0.960 . S
C916 H908 0.929 . S
C916 C917 1.377 . S
C916 C918 1.384 . S
C917 C916 1.377 . S
C917 C923 1.390 . S
C918 H909 0.930 . S
C918 C916 1.384 . S
C918 C919 1.372 . S
C919 C918 1.372 . S
C919 C920 1.400 . S
C919 C924 1.490 . S
C920 H910 0.930 . S
C920 C919 1.400 . S
C920 C923 1.386 . S
H921 C937 0.930 . S
H922 C938 0.931 . S
C923 H911 0.929 . S
C923 C917 1.390 . S
C923 C920 1.386 . S
C924 C919 1.490 . S
C924 C926 1.395 . S
C924 C927 1.403 . S
H925 C931 0.930 . S
C926 H912 0.930 . S
C926 C924 1.395 . S
C926 C929 1.403 . S
C927 C924 1.403 . S
C927 C928 1.524 . S
C927 C931 1.400 . S
C928 H913 0.960 . S
C928 H914 0.960 . S
C928 H915 0.960 . S
C928 C927 1.524 . S
C929 C926 1.403 . S
C929 C930 1.392 . S
C929 C933 1.495 . S
C930 C929 1.392 . S
C930 C931 1.385 . S
C930 C932 1.478 . S
C931 H925 0.930 . S
C931 C927 1.400 . S
C931 C930 1.385 . S
C932 C930 1.478 . S
C932 C934 1.381 . S
C932 C938 1.383 . S
C933 C929 1.495 . S
C933 H939 0.959 . S
C933 H940 0.961 . S
C933 H941 0.960 . S
C934 C932 1.381 . S
C934 C935 1.394 1_565 S
C934 H942 0.930 . S
C935 C934 1.394 1_545 S
C935 C936 1.383 1_545 S
C935 H943 0.929 . S
C936 C935 1.383 1_565 S
C936 C937 1.377 . S
C937 H921 0.930 . S
C937 C936 1.377 . S
C937 C938 1.379 . S
C938 H922 0.931 . S
C938 C932 1.383 . S
C938 C937 1.379 . S
H939 C933 0.959 . S
H940 C933 0.961 . S
H941 C933 0.960 . S
H942 C934 0.930 . S
H943 C935 0.929 . S
H944 C952 0.929 . S
H945 C954 0.930 . S
H946 C956 0.930 . S
H947 C959 0.929 . S
H948 C962 0.930 . S
H949 C964 0.960 . S
H950 C964 0.960 . S
H951 C964 0.960 . S
C952 H944 0.929 . S
C952 C953 1.377 . S
C952 C954 1.384 . S
C953 C952 1.377 . S
C953 C959 1.390 . S
C954 H945 0.930 . S
C954 C952 1.384 . S
C954 C955 1.372 . S
C955 C954 1.372 . S
C955 C956 1.400 . S
C955 C960 1.490 . S
C956 H946 0.930 . S
C956 C955 1.400 . S
C956 C959 1.386 . S
H957 C973 0.930 . S
H958 C974 0.931 . S
C959 H947 0.929 . S
C959 C953 1.390 . S
C959 C956 1.386 . S
C960 C955 1.490 . S
C960 C962 1.395 . S
C960 C963 1.403 . S
H961 C967 0.930 . S
C962 H948 0.930 . S
C962 C960 1.395 . S
C962 C965 1.403 . S
C963 C960 1.403 . S
C963 C964 1.524 . S
C963 C967 1.400 . S
C964 H949 0.960 . S
C964 H950 0.960 . S
C964 H951 0.960 . S
C964 C963 1.524 . S
C965 C962 1.403 . S
C965 C966 1.392 . S
C965 C969 1.495 . S
C966 C965 1.392 . S
C966 C967 1.385 . S
C966 C968 1.478 . S
C967 H961 0.930 . S
C967 C963 1.400 . S
C967 C966 1.385 . S
C968 C966 1.478 . S
C968 C970 1.381 . S
C968 C974 1.383 . S
C969 C965 1.495 . S
C969 H975 0.959 . S
C969 H976 0.961 . S
C969 H977 0.960 . S
C970 C968 1.381 . S
C970 C971 1.394 . S
C970 H978 0.930 . S
C971 C970 1.394 . S
C971 C972 1.383 . S
C971 H979 0.929 . S
C972 C971 1.383 . S
C972 C973 1.377 1_545 S
C973 H957 0.930 . S
C973 C972 1.377 1_565 S
C973 C974 1.379 1_565 S
C974 H958 0.931 . S
C974 C968 1.383 . S
C974 C973 1.379 1_545 S
H975 C969 0.959 . S
H976 C969 0.961 . S
H977 C969 0.960 . S
H978 C970 0.930 . S
H979 C971 0.929 . S
H980 C988 0.929 . S
H981 C990 0.930 . S
H982 C992 0.930 . S
H983 C995 0.929 . S
H984 C998 0.930 . S
H985 C1000 0.960 . S
H986 C1000 0.960 . S
H987 C1000 0.960 . S
C988 H980 0.929 . S
C988 C989 1.377 . S
C988 C990 1.384 . S
C989 C988 1.377 . S
C989 C995 1.390 . S
C990 H981 0.930 . S
C990 C988 1.384 . S
C990 C991 1.372 . S
C991 C990 1.372 . S
C991 C992 1.400 . S
C991 C996 1.490 . S
C992 H982 0.930 . S
C992 C991 1.400 . S
C992 C995 1.386 . S
H993 C1009 0.930 . S
H994 C1010 0.931 . S
C995 H983 0.929 . S
C995 C989 1.390 . S
C995 C992 1.386 . S
C996 C991 1.490 . S
C996 C998 1.395 . S
C996 C999 1.403 . S
H997 C1003 0.930 . S
C998 H984 0.930 . S
C998 C996 1.395 . S
C998 C1001 1.403 . S
C999 C996 1.403 . S
C999 C1000 1.524 . S
C999 C1003 1.400 . S
C1000 H985 0.960 . S
C1000 H986 0.960 . S
C1000 H987 0.960 . S
C1000 C999 1.524 . S
C1001 C998 1.403 . S
C1001 C1002 1.392 . S
C1001 C1005 1.495 . S
C1002 C1001 1.392 . S
C1002 C1003 1.385 . S
C1002 C1004 1.478 . S
C1003 H997 0.930 . S
C1003 C999 1.400 . S
C1003 C1002 1.385 . S
C1004 C1002 1.478 . S
C1004 C1006 1.381 . S
C1004 C1010 1.383 . S
C1005 C1001 1.495 . S
C1005 H1011 0.959 . S
C1005 H1012 0.961 . S
C1005 H1013 0.960 . S
C1006 C1004 1.381 . S
C1006 C1007 1.394 . S
C1006 H1014 0.930 . S
C1007 C1006 1.394 . S
C1007 C1008 1.383 . S
C1007 H1015 0.929 . S
C1008 C1007 1.383 . S
C1008 C1009 1.377 . S
C1009 H993 0.930 . S
C1009 C1008 1.377 . S
C1009 C1010 1.379 . S
C1010 H994 0.931 . S
C1010 C1004 1.383 . S
C1010 C1009 1.379 . S
H1011 C1005 0.959 . S
H1012 C1005 0.961 . S
H1013 C1005 0.960 . S
H1014 C1006 0.930 . S
H1015 C1007 0.929 . S
H1016 C1024 0.929 . S
H1017 C1026 0.930 . S
H1018 C1028 0.930 . S
H1019 C1031 0.929 . S
H1020 C1034 0.930 . S
H1021 C1036 0.960 . S
H1022 C1036 0.960 . S
H1023 C1036 0.960 . S
C1024 H1016 0.929 . S
C1024 C1025 1.377 . S
C1024 C1026 1.384 . S
C1025 C1024 1.377 . S
C1025 C1031 1.390 . S
C1026 H1017 0.930 . S
C1026 C1024 1.384 . S
C1026 C1027 1.372 . S
C1027 C1026 1.372 . S
C1027 C1028 1.400 . S
C1027 C1032 1.490 . S
C1028 H1018 0.930 . S
C1028 C1027 1.400 . S
C1028 C1031 1.386 . S
H1029 C1045 0.930 . S
H1030 C1046 0.931 . S
C1031 H1019 0.929 . S
C1031 C1025 1.390 . S
C1031 C1028 1.386 . S
C1032 C1027 1.490 . S
C1032 C1034 1.395 . S
C1032 C1035 1.403 . S
H1033 C1039 0.930 . S
C1034 H1020 0.930 . S
C1034 C1032 1.395 . S
C1034 C1037 1.403 . S
C1035 C1032 1.403 . S
C1035 C1036 1.524 . S
C1035 C1039 1.400 . S
C1036 H1021 0.960 . S
C1036 H1022 0.960 . S
C1036 H1023 0.960 . S
C1036 C1035 1.524 . S
C1037 C1034 1.403 . S
C1037 C1038 1.392 . S
C1037 C1041 1.495 . S
C1038 C1037 1.392 . S
C1038 C1039 1.385 . S
C1038 C1040 1.478 . S
C1039 H1033 0.930 . S
C1039 C1035 1.400 . S
C1039 C1038 1.385 . S
C1040 C1038 1.478 . S
C1040 C1042 1.381 . S
C1040 C1046 1.383 . S
C1041 C1037 1.495 . S
C1041 H1047 0.959 . S
C1041 H1048 0.961 . S
C1041 H1049 0.960 . S
C1042 C1040 1.381 . S
C1042 C1043 1.394 . S
C1042 H1050 0.930 . S
C1043 C1042 1.394 . S
C1043 C1044 1.383 . S
C1043 H1051 0.929 . S
C1044 C1043 1.383 . S
C1044 C1045 1.377 . S
C1045 H1029 0.930 . S
C1045 C1044 1.377 . S
C1045 C1046 1.379 . S
C1046 H1030 0.931 . S
C1046 C1040 1.383 . S
C1046 C1045 1.379 . S
H1047 C1041 0.959 . S
H1048 C1041 0.961 . S
H1049 C1041 0.960 . S
H1050 C1042 0.930 . S
H1051 C1043 0.929 . S
H1052 C1060 0.929 1_565 S
H1053 C1062 0.930 . S
H1054 C1064 0.930 . S
H1055 C1067 0.929 . S
H1056 C1070 0.930 . S
H1057 C1072 0.960 . S
H1058 C1072 0.960 . S
H1059 C1072 0.960 . S
C1060 H1052 0.929 1_545 S
C1060 C1061 1.377 . S
C1060 C1062 1.384 . S
C1061 C1060 1.377 . S
C1061 C1067 1.390 . S
C1062 H1053 0.930 . S
C1062 C1060 1.384 . S
C1062 C1063 1.372 . S
C1063 C1062 1.372 . S
C1063 C1064 1.400 . S
C1063 C1068 1.490 . S
C1064 H1054 0.930 . S
C1064 C1063 1.400 . S
C1064 C1067 1.386 . S
H1065 C1081 0.930 . S
H1066 C1082 0.931 . S
C1067 H1055 0.929 . S
C1067 C1061 1.390 . S
C1067 C1064 1.386 . S
C1068 C1063 1.490 . S
C1068 C1070 1.395 . S
C1068 C1071 1.403 . S
H1069 C1075 0.930 . S
C1070 H1056 0.930 . S
C1070 C1068 1.395 . S
C1070 C1073 1.403 . S
C1071 C1068 1.403 . S
C1071 C1072 1.524 . S
C1071 C1075 1.400 . S
C1072 H1057 0.960 . S
C1072 H1058 0.960 . S
C1072 H1059 0.960 . S
C1072 C1071 1.524 . S
C1073 C1070 1.403 . S
C1073 C1074 1.392 . S
C1073 C1077 1.495 . S
C1074 C1073 1.392 . S
C1074 C1075 1.385 . S
C1074 C1076 1.478 . S
C1075 H1069 0.930 . S
C1075 C1071 1.400 . S
C1075 C1074 1.385 . S
C1076 C1074 1.478 . S
C1076 C1078 1.381 . S
C1076 C1082 1.383 . S
C1077 C1073 1.495 . S
C1077 H1083 0.959 . S
C1077 H1084 0.961 . S
C1077 H1085 0.960 . S
C1078 C1076 1.381 . S
C1078 C1079 1.394 . S
C1078 H1086 0.930 . S
C1079 C1078 1.394 . S
C1079 C1080 1.383 . S
C1079 H1087 0.929 . S
C1080 C1079 1.383 . S
C1080 C1081 1.377 . S
C1081 H1065 0.930 . S
C1081 C1080 1.377 . S
C1081 C1082 1.379 . S
C1082 H1066 0.931 . S
C1082 C1076 1.383 . S
C1082 C1081 1.379 . S
H1083 C1077 0.959 . S
H1084 C1077 0.961 . S
H1085 C1077 0.960 . S
H1086 C1078 0.930 . S
H1087 C1079 0.929 . S
H1088 C1096 0.929 . S
H1089 C1098 0.930 . S
H1090 C1100 0.930 . S
H1091 C1103 0.929 . S
H1092 C1106 0.930 . S
H1093 C1108 0.960 . S
H1094 C1108 0.960 . S
H1095 C1108 0.960 . S
C1096 H1088 0.929 . S
C1096 C1097 1.377 . S
C1096 C1098 1.384 . S
C1097 C1096 1.377 . S
C1097 C1103 1.390 . S
C1098 H1089 0.930 . S
C1098 C1096 1.384 . S
C1098 C1099 1.372 . S
C1099 C1098 1.372 . S
C1099 C1100 1.400 . S
C1099 C1104 1.490 . S
C1100 H1090 0.930 . S
C1100 C1099 1.400 . S
C1100 C1103 1.386 . S
H1101 C1117 0.930 . S
H1102 C1118 0.931 . S
C1103 H1091 0.929 . S
C1103 C1097 1.390 . S
C1103 C1100 1.386 . S
C1104 C1099 1.490 . S
C1104 C1106 1.395 . S
C1104 C1107 1.403 . S
H1105 C1111 0.930 . S
C1106 H1092 0.930 . S
C1106 C1104 1.395 . S
C1106 C1109 1.403 . S
C1107 C1104 1.403 . S
C1107 C1108 1.524 . S
C1107 C1111 1.400 . S
C1108 H1093 0.960 . S
C1108 H1094 0.960 . S
C1108 H1095 0.960 . S
C1108 C1107 1.524 . S
C1109 C1106 1.403 . S
C1109 C1110 1.392 . S
C1109 C1113 1.495 . S
C1110 C1109 1.392 . S
C1110 C1111 1.385 . S
C1110 C1112 1.478 . S
C1111 H1105 0.930 . S
C1111 C1107 1.400 . S
C1111 C1110 1.385 . S
C1112 C1110 1.478 . S
C1112 C1114 1.381 . S
C1112 C1118 1.383 . S
C1113 C1109 1.495 . S
C1113 H1119 0.959 . S
C1113 H1120 0.961 . S
C1113 H1121 0.960 . S
C1114 C1112 1.381 . S
C1114 C1115 1.394 1_565 S
C1114 H1122 0.930 . S
C1115 C1114 1.394 1_545 S
C1115 C1116 1.383 1_545 S
C1115 H1123 0.929 . S
C1116 C1115 1.383 1_565 S
C1116 C1117 1.377 . S
C1117 H1101 0.930 . S
C1117 C1116 1.377 . S
C1117 C1118 1.379 . S
C1118 H1102 0.931 . S
C1118 C1112 1.383 . S
C1118 C1117 1.379 . S
H1119 C1113 0.959 . S
H1120 C1113 0.961 . S
H1121 C1113 0.960 . S
H1122 C1114 0.930 . S
H1123 C1115 0.929 . S
H1124 C1132 0.929 . S
H1125 C1134 0.930 . S
H1126 C1136 0.930 . S
H1127 C1139 0.929 . S
H1128 C1142 0.930 . S
H1129 C1144 0.960 . S
H1130 C1144 0.960 . S
H1131 C1144 0.960 . S
C1132 H1124 0.929 . S
C1132 C1133 1.377 . S
C1132 C1134 1.384 . S
C1133 C1132 1.377 . S
C1133 C1139 1.390 . S
C1134 H1125 0.930 . S
C1134 C1132 1.384 . S
C1134 C1135 1.372 . S
C1135 C1134 1.372 . S
C1135 C1136 1.400 . S
C1135 C1140 1.490 . S
C1136 H1126 0.930 . S
C1136 C1135 1.400 . S
C1136 C1139 1.386 . S
H1137 C1153 0.930 . S
H1138 C1154 0.931 . S
C1139 H1127 0.929 . S
C1139 C1133 1.390 . S
C1139 C1136 1.386 . S
C1140 C1135 1.490 . S
C1140 C1142 1.395 . S
C1140 C1143 1.403 . S
H1141 C1147 0.930 . S
C1142 H1128 0.930 . S
C1142 C1140 1.395 . S
C1142 C1145 1.403 . S
C1143 C1140 1.403 . S
C1143 C1144 1.524 . S
C1143 C1147 1.400 . S
C1144 H1129 0.960 . S
C1144 H1130 0.960 . S
C1144 H1131 0.960 . S
C1144 C1143 1.524 . S
C1145 C1142 1.403 . S
C1145 C1146 1.392 . S
C1145 C1149 1.495 . S
C1146 C1145 1.392 . S
C1146 C1147 1.385 . S
C1146 C1148 1.478 . S
C1147 H1141 0.930 . S
C1147 C1143 1.400 . S
C1147 C1146 1.385 . S
C1148 C1146 1.478 . S
C1148 C1150 1.381 . S
C1148 C1154 1.383 . S
C1149 C1145 1.495 . S
C1149 H1155 0.959 . S
C1149 H1156 0.961 . S
C1149 H1157 0.960 . S
C1150 C1148 1.381 . S
C1150 C1151 1.394 . S
C1150 H1158 0.930 . S
C1151 C1150 1.394 . S
C1151 C1152 1.383 . S
C1151 H1159 0.929 . S
C1152 C1151 1.383 . S
C1152 C1153 1.377 . S
C1153 H1137 0.930 . S
C1153 C1152 1.377 . S
C1153 C1154 1.379 . S
C1154 H1138 0.931 . S
C1154 C1148 1.383 . S
C1154 C1153 1.379 . S
H1155 C1149 0.959 . S
H1156 C1149 0.961 . S
H1157 C1149 0.960 . S
H1158 C1150 0.930 . S
H1159 C1151 0.929 . S
H1160 C1168 0.929 . S
H1161 C1170 0.930 . S
H1162 C1172 0.930 . S
H1163 C1175 0.929 . S
H1164 C1178 0.930 . S
H1165 C1180 0.960 . S
H1166 C1180 0.960 . S
H1167 C1180 0.960 . S
C1168 H1160 0.929 . S
C1168 C1169 1.377 . S
C1168 C1170 1.384 . S
C1169 C1168 1.377 . S
C1169 C1175 1.390 . S
C1170 H1161 0.930 . S
C1170 C1168 1.384 . S
C1170 C1171 1.372 . S
C1171 C1170 1.372 . S
C1171 C1172 1.400 . S
C1171 C1176 1.490 . S
C1172 H1162 0.930 . S
C1172 C1171 1.400 . S
C1172 C1175 1.386 . S
H1173 C1189 0.930 . S
H1174 C1190 0.931 . S
C1175 H1163 0.929 . S
C1175 C1169 1.390 . S
C1175 C1172 1.386 . S
C1176 C1171 1.490 . S
C1176 C1178 1.395 . S
C1176 C1179 1.403 . S
H1177 C1183 0.930 . S
C1178 H1164 0.930 . S
C1178 C1176 1.395 . S
C1178 C1181 1.403 . S
C1179 C1176 1.403 . S
C1179 C1180 1.524 . S
C1179 C1183 1.400 . S
C1180 H1165 0.960 . S
C1180 H1166 0.960 . S
C1180 H1167 0.960 . S
C1180 C1179 1.524 . S
C1181 C1178 1.403 . S
C1181 C1182 1.392 . S
C1181 C1185 1.495 . S
C1182 C1181 1.392 . S
C1182 C1183 1.385 . S
C1182 C1184 1.478 . S
C1183 H1177 0.930 . S
C1183 C1179 1.400 . S
C1183 C1182 1.385 . S
C1184 C1182 1.478 . S
C1184 C1186 1.381 . S
C1184 C1190 1.383 . S
C1185 C1181 1.495 . S
C1185 H1191 0.959 . S
C1185 H1192 0.961 . S
C1185 H1193 0.960 . S
C1186 C1184 1.381 . S
C1186 C1187 1.394 . S
C1186 H1194 0.930 . S
C1187 C1186 1.394 . S
C1187 C1188 1.383 . S
C1187 H1195 0.929 . S
C1188 C1187 1.383 . S
C1188 C1189 1.377 . S
C1189 H1173 0.930 . S
C1189 C1188 1.377 . S
C1189 C1190 1.379 . S
C1190 H1174 0.931 . S
C1190 C1184 1.383 . S
C1190 C1189 1.379 . S
H1191 C1185 0.959 . S
H1192 C1185 0.961 . S
H1193 C1185 0.960 . S
H1194 C1186 0.930 . S
H1195 C1187 0.929 . S
H1196 C1204 0.929 . S
H1197 C1206 0.930 . S
H1198 C1208 0.930 . S
H1199 C1211 0.929 . S
H1200 C1214 0.930 . S
H1201 C1216 0.960 . S
H1202 C1216 0.960 . S
H1203 C1216 0.960 . S
C1204 H1196 0.929 . S
C1204 C1205 1.377 . S
C1204 C1206 1.384 . S
C1205 C1204 1.377 . S
C1205 C1211 1.390 . S
C1206 H1197 0.930 . S
C1206 C1204 1.384 . S
C1206 C1207 1.372 . S
C1207 C1206 1.372 . S
C1207 C1208 1.400 . S
C1207 C1212 1.490 . S
C1208 H1198 0.930 . S
C1208 C1207 1.400 . S
C1208 C1211 1.386 . S
H1209 C1225 0.930 . S
H1210 C1226 0.931 . S
C1211 H1199 0.929 . S
C1211 C1205 1.390 . S
C1211 C1208 1.386 . S
C1212 C1207 1.490 . S
C1212 C1214 1.395 . S
C1212 C1215 1.403 . S
H1213 C1219 0.930 . S
C1214 H1200 0.930 . S
C1214 C1212 1.395 . S
C1214 C1217 1.403 . S
C1215 C1212 1.403 . S
C1215 C1216 1.524 . S
C1215 C1219 1.400 . S
C1216 H1201 0.960 . S
C1216 H1202 0.960 . S
C1216 H1203 0.960 . S
C1216 C1215 1.524 . S
C1217 C1214 1.403 . S
C1217 C1218 1.392 . S
C1217 C1221 1.495 . S
C1218 C1217 1.392 . S
C1218 C1219 1.385 . S
C1218 C1220 1.478 . S
C1219 H1213 0.930 . S
C1219 C1215 1.400 . S
C1219 C1218 1.385 . S
C1220 C1218 1.478 . S
C1220 C1222 1.381 . S
C1220 C1226 1.383 . S
C1221 C1217 1.495 . S
C1221 H1227 0.959 . S
C1221 H1228 0.961 . S
C1221 H1229 0.960 . S
C1222 C1220 1.381 . S
C1222 C1223 1.394 . S
C1222 H1230 0.930 . S
C1223 C1222 1.394 . S
C1223 C1224 1.383 . S
C1223 H1231 0.929 . S
C1224 C1223 1.383 . S
C1224 C1225 1.377 . S
C1225 H1209 0.930 . S
C1225 C1224 1.377 . S
C1225 C1226 1.379 . S
C1226 H1210 0.931 . S
C1226 C1220 1.383 . S
C1226 C1225 1.379 . S
H1227 C1221 0.959 . S
H1228 C1221 0.961 . S
H1229 C1221 0.960 . S
H1230 C1222 0.930 . S
H1231 C1223 0.929 . S
H1232 C1240 0.929 . S
H1233 C1242 0.930 . S
H1234 C1244 0.930 . S
H1235 C1247 0.929 . S
H1236 C1250 0.930 . S
H1237 C1252 0.960 . S
H1238 C1252 0.960 . S
H1239 C1252 0.960 . S
C1240 H1232 0.929 . S
C1240 C1241 1.377 . S
C1240 C1242 1.384 . S
C1241 C1240 1.377 . S
C1241 C1247 1.390 . S
C1242 H1233 0.930 . S
C1242 C1240 1.384 . S
C1242 C1243 1.372 . S
C1243 C1242 1.372 . S
C1243 C1244 1.400 . S
C1243 C1248 1.490 . S
C1244 H1234 0.930 . S
C1244 C1243 1.400 . S
C1244 C1247 1.386 . S
H1245 C1261 0.930 . S
H1246 C1262 0.931 . S
C1247 H1235 0.929 . S
C1247 C1241 1.390 . S
C1247 C1244 1.386 . S
C1248 C1243 1.490 . S
C1248 C1250 1.395 . S
C1248 C1251 1.403 . S
H1249 C1255 0.930 . S
C1250 H1236 0.930 . S
C1250 C1248 1.395 . S
C1250 C1253 1.403 . S
C1251 C1248 1.403 . S
C1251 C1252 1.524 . S
C1251 C1255 1.400 . S
C1252 H1237 0.960 . S
C1252 H1238 0.960 . S
C1252 H1239 0.960 . S
C1252 C1251 1.524 . S
C1253 C1250 1.403 . S
C1253 C1254 1.392 . S
C1253 C1257 1.495 . S
C1254 C1253 1.392 . S
C1254 C1255 1.385 . S
C1254 C1256 1.478 . S
C1255 H1249 0.930 . S
C1255 C1251 1.400 . S
C1255 C1254 1.385 . S
C1256 C1254 1.478 . S
C1256 C1258 1.381 . S
C1256 C1262 1.383 . S
C1257 C1253 1.495 . S
C1257 H1263 0.959 . S
C1257 H1264 0.961 . S
C1257 H1265 0.960 . S
C1258 C1256 1.381 . S
C1258 C1259 1.394 1_545 S
C1258 H1266 0.930 . S
C1259 C1258 1.394 1_565 S
C1259 C1260 1.383 1_565 S
C1259 H1267 0.929 . S
C1260 C1259 1.383 1_545 S
C1260 C1261 1.377 . S
C1261 H1245 0.930 . S
C1261 C1260 1.377 . S
C1261 C1262 1.379 . S
C1262 H1246 0.931 . S
C1262 C1256 1.383 . S
C1262 C1261 1.379 . S
H1263 C1257 0.959 . S
H1264 C1257 0.961 . S
H1265 C1257 0.960 . S
H1266 C1258 0.930 . S
H1267 C1259 0.929 . S
H1268 C1276 0.929 . S
H1269 C1278 0.930 . S
H1270 C1280 0.930 . S
H1271 C1283 0.929 . S
H1272 C1286 0.930 . S
H1273 C1288 0.960 . S
H1274 C1288 0.960 . S
H1275 C1288 0.960 . S
C1276 H1268 0.929 . S
C1276 C1277 1.377 . S
C1276 C1278 1.384 . S
C1277 C1276 1.377 . S
C1277 C1283 1.390 . S
C1278 H1269 0.930 . S
C1278 C1276 1.384 . S
C1278 C1279 1.372 . S
C1279 C1278 1.372 . S
C1279 C1280 1.400 . S
C1279 C1284 1.490 . S
C1280 H1270 0.930 . S
C1280 C1279 1.400 . S
C1280 C1283 1.386 . S
H1281 C1297 0.930 . S
H1282 C1298 0.931 . S
C1283 H1271 0.929 . S
C1283 C1277 1.390 . S
C1283 C1280 1.386 . S
C1284 C1279 1.490 . S
C1284 C1286 1.395 . S
C1284 C1287 1.403 . S
H1285 C1291 0.930 . S
C1286 H1272 0.930 . S
C1286 C1284 1.395 . S
C1286 C1289 1.403 . S
C1287 C1284 1.403 . S
C1287 C1288 1.524 . S
C1287 C1291 1.400 . S
C1288 H1273 0.960 . S
C1288 H1274 0.960 . S
C1288 H1275 0.960 . S
C1288 C1287 1.524 . S
C1289 C1286 1.403 . S
C1289 C1290 1.392 . S
C1289 C1293 1.495 . S
C1290 C1289 1.392 . S
C1290 C1291 1.385 . S
C1290 C1292 1.478 . S
C1291 H1285 0.930 . S
C1291 C1287 1.400 . S
C1291 C1290 1.385 . S
C1292 C1290 1.478 . S
C1292 C1294 1.381 . S
C1292 C1298 1.383 . S
C1293 C1289 1.495 . S
C1293 H1299 0.959 . S
C1293 H1300 0.961 . S
C1293 H1301 0.960 . S
C1294 C1292 1.381 . S
C1294 C1295 1.394 . S
C1294 H1302 0.930 . S
C1295 C1294 1.394 . S
C1295 C1296 1.383 . S
C1295 H1303 0.929 . S
C1296 C1295 1.383 . S
C1296 C1297 1.377 . S
C1297 H1281 0.930 . S
C1297 C1296 1.377 . S
C1297 C1298 1.379 . S
C1298 H1282 0.931 . S
C1298 C1292 1.383 . S
C1298 C1297 1.379 . S
H1299 C1293 0.959 . S
H1300 C1293 0.961 . S
H1301 C1293 0.960 . S
H1302 C1294 0.930 . S
H1303 C1295 0.929 . S
H1304 C1312 0.929 . S
H1305 C1314 0.930 . S
H1306 C1316 0.930 . S
H1307 C1319 0.929 . S
H1308 C1322 0.930 . S
H1309 C1324 0.960 . S
H1310 C1324 0.960 . S
H1311 C1324 0.960 . S
C1312 H1304 0.929 . S
C1312 C1313 1.377 . S
C1312 C1314 1.384 . S
C1313 C1312 1.377 . S
C1313 C1319 1.390 . S
C1314 H1305 0.930 . S
C1314 C1312 1.384 . S
C1314 C1315 1.372 . S
C1315 C1314 1.372 . S
C1315 C1316 1.400 . S
C1315 C1320 1.490 . S
C1316 H1306 0.930 . S
C1316 C1315 1.400 . S
C1316 C1319 1.386 . S
H1317 C1333 0.930 . S
H1318 C1334 0.931 . S
C1319 H1307 0.929 . S
C1319 C1313 1.390 . S
C1319 C1316 1.386 . S
C1320 C1315 1.490 . S
C1320 C1322 1.395 . S
C1320 C1323 1.403 . S
H1321 C1327 0.930 . S
C1322 H1308 0.930 . S
C1322 C1320 1.395 . S
C1322 C1325 1.403 . S
C1323 C1320 1.403 . S
C1323 C1324 1.524 . S
C1323 C1327 1.400 . S
C1324 H1309 0.960 . S
C1324 H1310 0.960 . S
C1324 H1311 0.960 . S
C1324 C1323 1.524 . S
C1325 C1322 1.403 . S
C1325 C1326 1.392 . S
C1325 C1329 1.495 . S
C1326 C1325 1.392 . S
C1326 C1327 1.385 . S
C1326 C1328 1.478 . S
C1327 H1321 0.930 . S
C1327 C1323 1.400 . S
C1327 C1326 1.385 . S
C1328 C1326 1.478 . S
C1328 C1330 1.381 . S
C1328 C1334 1.383 . S
C1329 C1325 1.495 . S
C1329 H1335 0.959 . S
C1329 H1336 0.961 . S
C1329 H1337 0.960 . S
C1330 C1328 1.381 . S
C1330 C1331 1.394 . S
C1330 H1338 0.930 . S
C1331 C1330 1.394 . S
C1331 C1332 1.383 . S
C1331 H1339 0.929 . S
C1332 C1331 1.383 . S
C1332 C1333 1.377 . S
C1333 H1317 0.930 . S
C1333 C1332 1.377 . S
C1333 C1334 1.379 . S
C1334 H1318 0.931 . S
C1334 C1328 1.383 . S
C1334 C1333 1.379 . S
H1335 C1329 0.959 . S
H1336 C1329 0.961 . S
H1337 C1329 0.960 . S
H1338 C1330 0.930 . S
H1339 C1331 0.929 . S
H1340 C1348 0.929 . S
H1341 C1350 0.930 . S
H1342 C1352 0.930 . S
H1343 C1355 0.929 . S
H1344 C1358 0.930 . S
H1345 C1360 0.960 . S
H1346 C1360 0.960 . S
H1347 C1360 0.960 . S
C1348 H1340 0.929 . S
C1348 C1349 1.377 . S
C1348 C1350 1.384 . S
C1349 C1348 1.377 . S
C1349 C1355 1.390 . S
C1350 H1341 0.930 . S
C1350 C1348 1.384 . S
C1350 C1351 1.372 . S
C1351 C1350 1.372 . S
C1351 C1352 1.400 . S
C1351 C1356 1.490 . S
C1352 H1342 0.930 . S
C1352 C1351 1.400 . S
C1352 C1355 1.386 . S
H1353 C1369 0.930 . S
H1354 C1370 0.931 . S
C1355 H1343 0.929 . S
C1355 C1349 1.390 . S
C1355 C1352 1.386 . S
C1356 C1351 1.490 . S
C1356 C1358 1.395 . S
C1356 C1359 1.403 . S
H1357 C1363 0.930 . S
C1358 H1344 0.930 . S
C1358 C1356 1.395 . S
C1358 C1361 1.403 . S
C1359 C1356 1.403 . S
C1359 C1360 1.524 . S
C1359 C1363 1.400 . S
C1360 H1345 0.960 . S
C1360 H1346 0.960 . S
C1360 H1347 0.960 . S
C1360 C1359 1.524 . S
C1361 C1358 1.403 . S
C1361 C1362 1.392 . S
C1361 C1365 1.495 . S
C1362 C1361 1.392 . S
C1362 C1363 1.385 . S
C1362 C1364 1.478 . S
C1363 H1357 0.930 . S
C1363 C1359 1.400 . S
C1363 C1362 1.385 . S
C1364 C1362 1.478 . S
C1364 C1366 1.381 . S
C1364 C1370 1.383 . S
C1365 C1361 1.495 . S
C1365 H1371 0.959 . S
C1365 H1372 0.961 . S
C1365 H1373 0.960 . S
C1366 C1364 1.381 . S
C1366 C1367 1.394 1_545 S
C1366 H1374 0.930 . S
C1367 C1366 1.394 1_565 S
C1367 C1368 1.383 1_565 S
C1367 H1375 0.929 . S
C1368 C1367 1.383 1_545 S
C1368 C1369 1.377 . S
C1369 H1353 0.930 . S
C1369 C1368 1.377 . S
C1369 C1370 1.379 . S
C1370 H1354 0.931 . S
C1370 C1364 1.383 . S
C1370 C1369 1.379 . S
H1371 C1365 0.959 . S
H1372 C1365 0.961 . S
H1373 C1365 0.960 . S
H1374 C1366 0.930 . S
H1375 C1367 0.929 . S
C233 C203 1.502 . S
C252 C7 1.508 . S
C269 C39 1.496 . S
C288 C11 1.503 . S
C305 C165 1.497 . S
C324 C25 1.504 . S
C341 C21 1.503 . S
C360 C105 1.498 . S
C377 C35 1.503 . S
C396 C175 1.495 . S
C413 C137 1.494 . S
C432 C53 1.489 . S
C449 C49 1.501 . S
C468 C77 1.487 . S
C485 C147 1.499 . S
C504 C63 1.499 . S
C521 C67 1.497 . S
C540 C95 1.503 . S
C557 C221 1.497 . S
C576 C81 1.504 . S
C593 C119 1.503 . S
C612 C91 1.500 . S
C629 C193 1.495 . S
C648 C109 1.482 . S
C665 C123 1.497 . S
C684 C151 1.488 . S
C701 C217 1.503 . S
C720 C133 1.502 . S
C737 C161 1.500 . S
C756 C189 1.503 . S
C773 C207 1.498 . S
C792 C179 1.503 . S
C809 C78 1.081 . S
C828 C13 1.026 1_565 S
C845 C8 1.081 . S
C864 C83 1.026 . S
C881 C22 1.086 . S
C900 C69 1.096 . S
C917 C64 1.095 . S
C936 C27 1.109 1_565 S
C953 C106 1.082 . S
C972 C41 1.100 1_545 S
C989 C111 1.076 . S
C1008 C36 1.120 . S
C1025 C97 1.081 . S
C1044 C50 1.094 . S
C1061 C55 1.069 1_545 S
C1080 C92 1.118 . S
C1097 C190 1.095 . S
C1116 C125 1.105 1_565 S
C1133 C120 1.079 . S
C1152 C195 1.042 . S
C1169 C134 1.092 . S
C1188 C181 1.113 . S
C1205 C176 1.085 . S
C1224 C139 1.032 1_565 S
C1241 C218 1.090 . S
C1260 C153 1.031 1_545 S
C1277 C223 1.073 . S
C1296 C148 1.049 . S
C1313 C162 1.094 . S
C1332 C209 1.061 . S
C1349 C204 1.088 . S
C1368 C167 1.028 1_545 S
