# Generated by pormake.
# Topology wnm, (7)-cn, num edge types: 1
# Building blocks:
#     Node 0, Type 0, BuildingBlock: OLANEW_clean_sbu_0, # of connection points: 7
#     Node 1, Type 0, BuildingBlock: OLANEW_clean_sbu_0, # of connection points: 7
#     Node 2, Type 0, BuildingBlock: OLANEW_clean_sbu_0, # of connection points: 7
#     Node 3, Type 0, BuildingBlock: OLANEW_clean_sbu_0, # of connection points: 7
#     Node 4, Type 0, BuildingBlock: OLANEW_clean_sbu_0, # of connection points: 7
#     Node 5, Type 0, BuildingBlock: OLANEW_clean_sbu_0, # of connection points: 7
#     Node 6, Type 0, BuildingBlock: OLANEW_clean_sbu_0, # of connection points: 7
#     Node 7, Type 0, BuildingBlock: OLANEW_clean_sbu_0, # of connection points: 7
#     Node 8, Type 0, BuildingBlock: OLANEW_clean_sbu_0, # of connection points: 7
#     Node 9, Type 0, BuildingBlock: OLANEW_clean_sbu_0, # of connection points: 7
#     Node 10, Type 0, BuildingBlock: OLANEW_clean_sbu_0, # of connection points: 7
#     Node 11, Type 0, BuildingBlock: OLANEW_clean_sbu_0, # of connection points: 7
#     Node 12, Type 0, BuildingBlock: OLANEW_clean_sbu_0, # of connection points: 7
#     Node 13, Type 0, BuildingBlock: OLANEW_clean_sbu_0, # of connection points: 7
#     Node 14, Type 0, BuildingBlock: OLANEW_clean_sbu_0, # of connection points: 7
#     Node 15, Type 0, BuildingBlock: OLANEW_clean_sbu_0, # of connection points: 7
#     Node 16, Type 0, BuildingBlock: OLANEW_clean_sbu_0, # of connection points: 7
#     Node 17, Type 0, BuildingBlock: OLANEW_clean_sbu_0, # of connection points: 7
#     Edge 18, Type (0, 0), BuildingBlock: XIVTED_clean_linker_0, # of connection points: 2
#     Edge 19, Type (0, 0), BuildingBlock: XIVTED_clean_linker_0, # of connection points: 2
#     Edge 20, Type (0, 0), BuildingBlock: XIVTED_clean_linker_0, # of connection points: 2
#     Edge 21, Type (0, 0), BuildingBlock: XIVTED_clean_linker_0, # of connection points: 2
#     Edge 22, Type (0, 0), BuildingBlock: XIVTED_clean_linker_0, # of connection points: 2
#     Edge 23, Type (0, 0), BuildingBlock: XIVTED_clean_linker_0, # of connection points: 2
#     Edge 24, Type (0, 0), BuildingBlock: XIVTED_clean_linker_0, # of connection points: 2
#     Edge 25, Type (0, 0), BuildingBlock: XIVTED_clean_linker_0, # of connection points: 2
#     Edge 26, Type (0, 0), BuildingBlock: XIVTED_clean_linker_0, # of connection points: 2
#     Edge 27, Type (0, 0), BuildingBlock: XIVTED_clean_linker_0, # of connection points: 2
#     Edge 28, Type (0, 0), BuildingBlock: XIVTED_clean_linker_0, # of connection points: 2
#     Edge 29, Type (0, 0), BuildingBlock: XIVTED_clean_linker_0, # of connection points: 2
#     Edge 30, Type (0, 0), BuildingBlock: XIVTED_clean_linker_0, # of connection points: 2
#     Edge 31, Type (0, 0), BuildingBlock: XIVTED_clean_linker_0, # of connection points: 2
#     Edge 32, Type (0, 0), BuildingBlock: XIVTED_clean_linker_0, # of connection points: 2
#     Edge 33, Type (0, 0), BuildingBlock: XIVTED_clean_linker_0, # of connection points: 2
#     Edge 34, Type (0, 0), BuildingBlock: XIVTED_clean_linker_0, # of connection points: 2
#     Edge 35, Type (0, 0), BuildingBlock: XIVTED_clean_linker_0, # of connection points: 2
#     Edge 36, Type (0, 0), BuildingBlock: XIVTED_clean_linker_0, # of connection points: 2
#     Edge 37, Type (0, 0), BuildingBlock: XIVTED_clean_linker_0, # of connection points: 2
#     Edge 38, Type (0, 0), BuildingBlock: XIVTED_clean_linker_0, # of connection points: 2
#     Edge 39, Type (0, 0), BuildingBlock: XIVTED_clean_linker_0, # of connection points: 2
#     Edge 40, Type (0, 0), BuildingBlock: XIVTED_clean_linker_0, # of connection points: 2
#     Edge 41, Type (0, 0), BuildingBlock: XIVTED_clean_linker_0, # of connection points: 2
#     Edge 42, Type (0, 0), BuildingBlock: XIVTED_clean_linker_0, # of connection points: 2
#     Edge 43, Type (0, 0), BuildingBlock: XIVTED_clean_linker_0, # of connection points: 2
#     Edge 44, Type (0, 0), BuildingBlock: XIVTED_clean_linker_0, # of connection points: 2
#     Edge 45, Type (0, 0), BuildingBlock: XIVTED_clean_linker_0, # of connection points: 2
#     Edge 46, Type (0, 0), BuildingBlock: XIVTED_clean_linker_0, # of connection points: 2
#     Edge 47, Type (0, 0), BuildingBlock: XIVTED_clean_linker_0, # of connection points: 2
#     Edge 48, Type (0, 0), BuildingBlock: XIVTED_clean_linker_0, # of connection points: 2
#     Edge 49, Type (0, 0), BuildingBlock: XIVTED_clean_linker_0, # of connection points: 2
#     Edge 50, Type (0, 0), BuildingBlock: XIVTED_clean_linker_0, # of connection points: 2
#     Edge 51, Type (0, 0), BuildingBlock: XIVTED_clean_linker_0, # of connection points: 2
#     Edge 52, Type (0, 0), BuildingBlock: XIVTED_clean_linker_0, # of connection points: 2
#     Edge 53, Type (0, 0), BuildingBlock: XIVTED_clean_linker_0, # of connection points: 2
#     Edge 54, Type (0, 0), BuildingBlock: XIVTED_clean_linker_0, # of connection points: 2
#     Edge 55, Type (0, 0), BuildingBlock: XIVTED_clean_linker_0, # of connection points: 2
#     Edge 56, Type (0, 0), BuildingBlock: XIVTED_clean_linker_0, # of connection points: 2
#     Edge 57, Type (0, 0), BuildingBlock: XIVTED_clean_linker_0, # of connection points: 2
#     Edge 58, Type (0, 0), BuildingBlock: XIVTED_clean_linker_0, # of connection points: 2
#     Edge 59, Type (0, 0), BuildingBlock: XIVTED_clean_linker_0, # of connection points: 2
#     Edge 60, Type (0, 0), BuildingBlock: XIVTED_clean_linker_0, # of connection points: 2
#     Edge 61, Type (0, 0), BuildingBlock: XIVTED_clean_linker_0, # of connection points: 2
#     Edge 62, Type (0, 0), BuildingBlock: XIVTED_clean_linker_0, # of connection points: 2
#     Edge 63, Type (0, 0), BuildingBlock: XIVTED_clean_linker_0, # of connection points: 2
#     Edge 64, Type (0, 0), BuildingBlock: XIVTED_clean_linker_0, # of connection points: 2
#     Edge 65, Type (0, 0), BuildingBlock: XIVTED_clean_linker_0, # of connection points: 2
#     Edge 66, Type (0, 0), BuildingBlock: XIVTED_clean_linker_0, # of connection points: 2
#     Edge 67, Type (0, 0), BuildingBlock: XIVTED_clean_linker_0, # of connection points: 2
#     Edge 68, Type (0, 0), BuildingBlock: XIVTED_clean_linker_0, # of connection points: 2
#     Edge 69, Type (0, 0), BuildingBlock: XIVTED_clean_linker_0, # of connection points: 2
#     Edge 70, Type (0, 0), BuildingBlock: XIVTED_clean_linker_0, # of connection points: 2
#     Edge 71, Type (0, 0), BuildingBlock: XIVTED_clean_linker_0, # of connection points: 2
#     Edge 72, Type (0, 0), BuildingBlock: XIVTED_clean_linker_0, # of connection points: 2
#     Edge 73, Type (0, 0), BuildingBlock: XIVTED_clean_linker_0, # of connection points: 2
#     Edge 74, Type (0, 0), BuildingBlock: XIVTED_clean_linker_0, # of connection points: 2
#     Edge 75, Type (0, 0), BuildingBlock: XIVTED_clean_linker_0, # of connection points: 2
#     Edge 76, Type (0, 0), BuildingBlock: XIVTED_clean_linker_0, # of connection points: 2
#     Edge 77, Type (0, 0), BuildingBlock: XIVTED_clean_linker_0, # of connection points: 2
#     Edge 78, Type (0, 0), BuildingBlock: XIVTED_clean_linker_0, # of connection points: 2
#     Edge 79, Type (0, 0), BuildingBlock: XIVTED_clean_linker_0, # of connection points: 2
#     Edge 80, Type (0, 0), BuildingBlock: XIVTED_clean_linker_0, # of connection points: 2
# Relax obj value: 0.258
# Max RMSD: 0.297
# Mean RMSD: 0.297
data_MOF--net-wnm--node1-OLANEW_clean_sbu_0--edge1-XIVTED_clean_linker_0
_symmetry_space_group_name_H-M    P1
_symmetry_Int_Tables_number       1
_symmetry_cell_setting            triclinic
loop_
_symmetry_equiv_pos_as_xyz
'x, y, z'
_cell_length_a     98.186967
_cell_length_b     98.23269
_cell_length_c     19.161096
_cell_angle_alpha  89.967733
_cell_angle_beta   90.03281
_cell_angle_gamma 119.98887
loop_
_atom_site_label
_atom_site_type_symbol
_atom_site_fract_x
_atom_site_fract_y
_atom_site_fract_z
_atom_type_partial_charge
Cd0 Cd 0.14235 0.39907 0.23411 0.0
C1 C 0.17697 0.41821 0.23081 0.0
C2 C 0.09781 0.44458 0.28444 0.0
O3 O 0.09538 0.45058 0.34121 0.0
Cd4 Cd 0.17183 0.40167 0.07252 0.0
C5 C 0.08474 0.43244 0.24344 0.0
C6 C 0.06419 0.40949 0.14994 0.0
C7 C 0.08053 0.41676 0.14242 0.0
N8 N 0.08963 0.4276 0.18909 0.0
C9 C 0.06854 0.42566 0.25462 0.0
C10 C 0.05823 0.41405 0.20702 0.0
Co11 Co 0.111 0.43734 0.17518 0.0
C12 C 0.08969 0.41514 0.08561 0.0
O13 O 0.08303 0.40508 0.03417 0.0
C14 C 0.11624 0.42333 0.04322 0.0
C15 C 0.12372 0.41504 0.06259 0.0
C16 C 0.13378 0.41329 0.01643 0.0
C17 C 0.1356 0.41924 0.9482 0.0
C18 C 0.1276 0.42711 0.92657 0.0
C19 C 0.11801 0.42921 0.97508 0.0
C20 C 0.14321 0.40641 0.04246 0.0
C21 C 0.1262 0.45712 0.30622 0.0
C22 C 0.12562 0.4523 0.37602 0.0
C23 C 0.1394 0.47097 0.28351 0.0
C24 C 0.15196 0.47958 0.32894 0.0
C25 C 0.1514 0.47464 0.39783 0.0
C26 C 0.13805 0.46105 0.42278 0.0
N27 N 0.11266 0.44875 0.26161 0.0
N28 N 0.10567 0.42444 0.09121 0.0
N29 N 0.11356 0.42176 0.22848 0.0
C30 C 0.1012 0.40768 0.25936 0.0
C31 C 0.09847 0.40693 0.33124 0.0
C32 C 0.09166 0.39467 0.21753 0.0
C33 C 0.08577 0.39354 0.36134 0.0
H34 H 0.10623 0.41681 0.3634 0.0
C35 C 0.07587 0.38082 0.31817 0.0
C36 C 0.07871 0.38128 0.24608 0.0
C37 C 0.08272 0.39289 0.43752 0.0
H38 H 0.0943 0.39503 0.1626 0.0
H39 H 0.06595 0.37052 0.34072 0.0
C40 C 0.06802 0.36791 0.20067 0.0
O41 O 0.07033 0.38008 0.46581 0.0
O42 O 0.09136 0.40392 0.47514 0.0
O43 O 0.07043 0.36838 0.13787 0.0
O44 O 0.05546 0.35517 0.22836 0.0
H45 H 0.0681 0.37942 0.51529 0.0
H46 H 0.04831 0.34636 0.19966 0.0
N47 N 0.13231 0.44684 0.16088 0.0
C48 C 0.13861 0.45918 0.11807 0.0
C49 C 0.15477 0.46655 0.10461 0.0
C50 C 0.16347 0.46031 0.13652 0.0
C51 C 0.156 0.44701 0.18072 0.0
C52 C 0.13984 0.44036 0.19207 0.0
N53 N 0.11212 0.45469 0.11944 0.0
C54 C 0.12714 0.46366 0.09426 0.0
O55 O 0.13126 0.47602 0.05438 0.0
C56 C 0.12924 0.42618 0.2323 0.0
O57 O 0.11604 0.37713 0.21597 0.0
O58 O 0.12408 0.38208 0.32336 0.0
C59 C 0.10065 0.45977 0.11538 0.0
C60 C 0.08557 0.44968 0.08899 0.0
C61 C 0.07388 0.45387 0.0916 0.0
C62 C 0.07789 0.46909 0.11214 0.0
C63 C 0.09342 0.48008 0.12982 0.0
C64 C 0.10467 0.47525 0.13407 0.0
O65 O 0.16939 0.41694 0.28634 0.0
O66 O 0.16873 0.41243 0.17693 0.0
O67 O 0.14331 0.40374 0.10728 0.0
O68 O 0.15256 0.40463 0.00275 0.0
O69 O 0.13478 0.41861 0.27209 0.0
C70 C 0.1599 0.37359 0.19967 0.0
O71 O 0.16564 0.37778 0.13828 0.0
O72 O 0.15318 0.38023 0.23087 0.0
C73 C 0.11334 0.37348 0.28012 0.0
H74 H 0.05633 0.40084 0.11271 0.0
H75 H 0.064 0.42922 0.2981 0.0
H76 H 0.04565 0.40871 0.21398 0.0
H77 H 0.12158 0.40983 0.11393 0.0
H78 H 0.14315 0.41766 0.9119 0.0
H79 H 0.11188 0.43538 0.96025 0.0
H80 H 0.11526 0.44186 0.39423 0.0
H81 H 0.1398 0.47551 0.23184 0.0
H82 H 0.16118 0.48181 0.43199 0.0
H83 H 0.16048 0.47677 0.07112 0.0
H84 H 0.17597 0.46574 0.1269 0.0
H85 H 0.1626 0.44209 0.20439 0.0
H86 H 0.0829 0.43867 0.06566 0.0
H87 H 0.06909 0.47269 0.11036 0.0
H88 H 0.11653 0.48357 0.15072 0.0
Cd89 Cd 0.60399 0.74295 0.2323 0.0
C90 C 0.58507 0.75874 0.22444 0.0
C91 C 0.55859 0.65268 0.28297 0.0
O92 O 0.55234 0.64414 0.3393 0.0
Cd93 Cd 0.60207 0.76961 0.06549 0.0
C94 C 0.57088 0.6518 0.24303 0.0
C95 C 0.59405 0.65418 0.15098 0.0
C96 C 0.5869 0.66335 0.14297 0.0
N97 N 0.57599 0.66166 0.18912 0.0
C98 C 0.57751 0.64226 0.25462 0.0
C99 C 0.58926 0.64357 0.20781 0.0
Co100 Co 0.56628 0.67328 0.17412 0.0
C101 C 0.58865 0.6741 0.08582 0.0
O102 O 0.5988 0.67746 0.03485 0.0
C103 C 0.58065 0.69253 0.0423 0.0
C104 C 0.58902 0.7083 0.06155 0.0
C105 C 0.59125 0.72014 0.01447 0.0
C106 C 0.5858 0.71602 0.94555 0.0
C107 C 0.57783 0.70018 0.92429 0.0
C108 C 0.57508 0.68843 0.9736 0.0
C109 C 0.59795 0.73645 0.0398 0.0
C110 C 0.54663 0.66901 0.30514 0.0
C111 C 0.55165 0.67317 0.37476 0.0
C112 C 0.53292 0.66879 0.28313 0.0
C113 C 0.52461 0.67298 0.32927 0.0
C114 C 0.52975 0.67723 0.39807 0.0
C115 C 0.54329 0.67724 0.42183 0.0
N116 N 0.55462 0.6635 0.26004 0.0
N117 N 0.57938 0.68084 0.09072 0.0
N118 N 0.58172 0.69142 0.22791 0.0
C119 C 0.59566 0.69309 0.26016 0.0
C120 C 0.59625 0.69143 0.3324 0.0
C121 C 0.60867 0.69609 0.21928 0.0
C122 C 0.60938 0.69181 0.36377 0.0
H123 H 0.58643 0.68979 0.36383 0.0
C124 C 0.62205 0.69404 0.3215 0.0
C125 C 0.62179 0.69619 0.24909 0.0
C126 C 0.60982 0.68964 0.4403 0.0
H127 H 0.60851 0.69826 0.1641 0.0
H128 H 0.63213 0.69413 0.34502 0.0
C129 C 0.63507 0.69823 0.20461 0.0
O130 O 0.62237 0.68975 0.46982 0.0
O131 O 0.59882 0.68771 0.47709 0.0
O132 O 0.63467 0.69975 0.14142 0.0
O133 O 0.64764 0.69828 0.23359 0.0
H134 H 0.62288 0.68833 0.51955 0.0
H135 H 0.65638 0.69952 0.20553 0.0
N136 N 0.55681 0.68508 0.15872 0.0
C137 C 0.54459 0.67905 0.11518 0.0
C138 C 0.53724 0.68782 0.10084 0.0
C139 C 0.54337 0.70275 0.13276 0.0
C140 C 0.55654 0.70857 0.17778 0.0
C141 C 0.56319 0.69908 0.18995 0.0
N142 N 0.54909 0.65707 0.11765 0.0
C143 C 0.54021 0.66313 0.09148 0.0
O144 O 0.528 0.65494 0.05074 0.0
C145 C 0.57726 0.70267 0.23114 0.0
O146 O 0.62538 0.7374 0.22353 0.0
O147 O 0.62253 0.74583 0.32401 0.0
C148 C 0.54384 0.64046 0.11482 0.0
C149 C 0.55393 0.63521 0.09099 0.0
C150 C 0.54957 0.61931 0.09575 0.0
C151 C 0.53415 0.60831 0.11495 0.0
C152 C 0.52324 0.61309 0.13001 0.0
C153 C 0.52823 0.6292 0.13278 0.0
O154 O 0.58594 0.75226 0.28023 0.0
O155 O 0.591 0.75626 0.17112 0.0
O156 O 0.60022 0.73937 0.10474 0.0
O157 O 0.5998 0.74744 0.99893 0.0
O158 O 0.58471 0.71576 0.27105 0.0
C159 C 0.62986 0.78566 0.19043 0.0
O160 O 0.62635 0.78721 0.12777 0.0
O161 O 0.62273 0.77243 0.22236 0.0
C162 C 0.63037 0.74167 0.28539 0.0
H163 H 0.60276 0.65493 0.11417 0.0
H164 H 0.57374 0.63406 0.29776 0.0
H165 H 0.59449 0.63624 0.21506 0.0
H166 H 0.59392 0.71137 0.11344 0.0
H167 H 0.58743 0.7251 0.90877 0.0
H168 H 0.56908 0.67616 0.95836 0.0
H169 H 0.5617 0.67252 0.39329 0.0
H170 H 0.52826 0.66481 0.23144 0.0
H171 H 0.52306 0.68041 0.43263 0.0
H172 H 0.52713 0.68333 0.0667 0.0
H173 H 0.53796 0.70981 0.12248 0.0
H174 H 0.56138 0.72007 0.20146 0.0
H175 H 0.56508 0.64338 0.06832 0.0
H176 H 0.5304 0.59587 0.11465 0.0
H177 H 0.51995 0.63291 0.14773 0.0
Cd178 Cd 0.26012 0.86095 0.23149 0.0
C179 C 0.24424 0.8263 0.22022 0.0
C180 C 0.34977 0.9063 0.28923 0.0
O181 O 0.35797 0.90865 0.34676 0.0
Cd182 Cd 0.23289 0.83409 0.06663 0.0
C183 C 0.35044 0.91943 0.24969 0.0
C184 C 0.34601 0.93983 0.16336 0.0
C185 C 0.33914 0.9238 0.14844 0.0
N186 N 0.34158 0.91471 0.19248 0.0
C187 C 0.35794 0.93537 0.26745 0.0
C188 C 0.35555 0.9456 0.2237 0.0
Co189 Co 0.32995 0.8934 0.17782 0.0
C190 C 0.32864 0.91482 0.09054 0.0
O191 O 0.32482 0.92154 0.04088 0.0
C192 C 0.31092 0.88839 0.04513 0.0
C193 C 0.29508 0.88084 0.06338 0.0
C194 C 0.28344 0.8709 0.01626 0.0
C195 C 0.28782 0.8692 0.94847 0.0
C196 C 0.30375 0.87712 0.92811 0.0
C197 C 0.31529 0.88669 0.97733 0.0
C198 C 0.26702 0.86151 0.04063 0.0
C199 C 0.33419 0.87781 0.30841 0.0
C200 C 0.33006 0.8783 0.37846 0.0
C201 C 0.3344 0.86445 0.28464 0.0
C202 C 0.33009 0.85167 0.32922 0.0
C203 C 0.32584 0.85218 0.39839 0.0
C204 C 0.32612 0.8657 0.4244 0.0
N205 N 0.33952 0.8915 0.26451 0.0
N206 N 0.32243 0.89888 0.09402 0.0
N207 N 0.31173 0.89077 0.23084 0.0
C208 C 0.31003 0.90308 0.26237 0.0
C209 C 0.31275 0.90614 0.33377 0.0
C210 C 0.30606 0.91238 0.22143 0.0
C211 C 0.31233 0.91895 0.36418 0.0
H212 H 0.31526 0.89857 0.36529 0.0
C213 C 0.30907 0.92865 0.32175 0.0
C214 C 0.30593 0.92547 0.2502 0.0
C215 C 0.31551 0.92234 0.43984 0.0
H216 H 0.30333 0.90954 0.16687 0.0
H217 H 0.30895 0.93869 0.34446 0.0
C218 C 0.30289 0.93602 0.20542 0.0
O219 O 0.31537 0.93483 0.46842 0.0
O220 O 0.3183 0.91386 0.47678 0.0
O221 O 0.30025 0.93329 0.1431 0.0
O222 O 0.30322 0.94883 0.23308 0.0
H223 H 0.31742 0.93727 0.51757 0.0
H224 H 0.30141 0.95593 0.20472 0.0
N225 N 0.3181 0.87215 0.16261 0.0
C226 C 0.32405 0.86601 0.11845 0.0
C227 C 0.31514 0.84997 0.10301 0.0
C228 C 0.30013 0.84121 0.13433 0.0
C229 C 0.29437 0.84853 0.17979 0.0
C230 C 0.30401 0.86458 0.19311 0.0
N231 N 0.34619 0.89242 0.1222 0.0
C232 C 0.34003 0.87754 0.09518 0.0
O233 O 0.34822 0.87351 0.05451 0.0
C234 C 0.30042 0.8751 0.23392 0.0
O235 O 0.26187 0.88537 0.20042 0.0
O236 O 0.26194 0.88113 0.31182 0.0
C237 C 0.36288 0.90355 0.12025 0.0
C238 C 0.36858 0.91871 0.09237 0.0
C239 C 0.38487 0.92923 0.08658 0.0
C240 C 0.39536 0.92423 0.10752 0.0
C241 C 0.38992 0.90892 0.13109 0.0
C242 C 0.37372 0.8987 0.13893 0.0
O243 O 0.25076 0.83309 0.27689 0.0
O244 O 0.24634 0.83531 0.16971 0.0
O245 O 0.26402 0.8609 0.10529 0.0
O246 O 0.25585 0.85302 0.99924 0.0
O247 O 0.28725 0.86952 0.27334 0.0
C248 C 0.21736 0.84451 0.20428 0.0
O249 O 0.21597 0.83998 0.14065 0.0
O250 O 0.23056 0.85041 0.2367 0.0
C251 C 0.26205 0.88993 0.26261 0.0
H252 H 0.34415 0.94763 0.12984 0.0
H253 H 0.36506 0.93973 0.31409 0.0
H254 H 0.36107 0.95796 0.2365 0.0
H255 H 0.29182 0.88284 0.11456 0.0
H256 H 0.27879 0.86174 0.91155 0.0
H257 H 0.32763 0.89281 0.96338 0.0
H258 H 0.33026 0.88872 0.39773 0.0
H259 H 0.33845 0.86406 0.23278 0.0
H260 H 0.32294 0.84223 0.43194 0.0
H261 H 0.31956 0.84438 0.06834 0.0
H262 H 0.29294 0.8288 0.1231 0.0
H263 H 0.28277 0.84192 0.20269 0.0
H264 H 0.36044 0.92204 0.07184 0.0
H265 H 0.40794 0.93213 0.10355 0.0
H266 H 0.36954 0.88685 0.15766 0.0
Cd267 Cd 0.86269 0.60325 0.76522 0.0
C268 C 0.82682 0.58133 0.75925 0.0
C269 C 0.90711 0.5577 0.71438 0.0
O270 O 0.90949 0.55128 0.6589 0.0
Cd271 Cd 0.82985 0.59485 0.91091 0.0
C272 C 0.92024 0.57014 0.75409 0.0
C273 C 0.94092 0.59369 0.84508 0.0
C274 C 0.92459 0.58656 0.85259 0.0
N275 N 0.91543 0.57546 0.80701 0.0
C276 C 0.93642 0.57675 0.74304 0.0
C277 C 0.9468 0.58868 0.7893 0.0
Co278 Co 0.8941 0.56572 0.82169 0.0
C279 C 0.91552 0.5885 0.90896 0.0
O280 O 0.92227 0.59873 0.9597 0.0
C281 C 0.88896 0.58 0.95328 0.0
C282 C 0.88033 0.58712 0.93342 0.0
C283 C 0.86974 0.58804 0.97964 0.0
C284 C 0.86857 0.58247 0.04831 0.0
C285 C 0.87788 0.57609 0.07025 0.0
C286 C 0.888 0.57477 0.02231 0.0
C287 C 0.8592 0.59362 0.95339 0.0
C288 C 0.87883 0.54594 0.69078 0.0
C289 C 0.87985 0.55072 0.62051 0.0
C290 C 0.86496 0.53282 0.71382 0.0
C291 C 0.85207 0.5252 0.66913 0.0
C292 C 0.85298 0.53029 0.60032 0.0
C293 C 0.86703 0.54293 0.57431 0.0
N294 N 0.89229 0.55381 0.73647 0.0
N295 N 0.89953 0.57911 0.90424 0.0
N296 N 0.89135 0.5809 0.76644 0.0
C297 C 0.90367 0.59497 0.73539 0.0
C298 C 0.90692 0.59541 0.66415 0.0
C299 C 0.91284 0.60819 0.77677 0.0
C300 C 0.91975 0.60872 0.63431 0.0
H301 H 0.89948 0.58532 0.63235 0.0
C302 C 0.9293 0.62166 0.67718 0.0
C303 C 0.92595 0.62149 0.74859 0.0
C304 C 0.92336 0.60907 0.55885 0.0
H305 H 0.90984 0.60801 0.83116 0.0
H306 H 0.93935 0.63188 0.65491 0.0
C307 C 0.93635 0.63504 0.7938 0.0
O308 O 0.93582 0.62185 0.53083 0.0
O309 O 0.91512 0.59781 0.52156 0.0
O310 O 0.9335 0.63484 0.85604 0.0
O311 O 0.94915 0.64762 0.76663 0.0
H312 H 0.9384 0.62232 0.48181 0.0
H313 H 0.95615 0.65651 0.79527 0.0
N314 N 0.87284 0.55621 0.83682 0.0
C315 C 0.86667 0.54404 0.8806 0.0
C316 C 0.85048 0.53647 0.89357 0.0
C317 C 0.8416 0.54229 0.85975 0.0
C318 C 0.84892 0.55536 0.81421 0.0
C319 C 0.86514 0.5623 0.80382 0.0
N320 N 0.89323 0.54876 0.87947 0.0
C321 C 0.87826 0.53977 0.90506 0.0
O322 O 0.87426 0.52752 0.94551 0.0
C323 C 0.87563 0.57632 0.76228 0.0
O324 O 0.88655 0.6268 0.79899 0.0
O325 O 0.8838 0.62143 0.68825 0.0
C326 C 0.90484 0.54386 0.88422 0.0
C327 C 0.91991 0.55418 0.91013 0.0
C328 C 0.93178 0.55028 0.90667 0.0
C329 C 0.92795 0.53507 0.88697 0.0
C330 C 0.9125 0.52382 0.86873 0.0
C331 C 0.90106 0.52846 0.86501 0.0
O332 O 0.83614 0.58891 0.7097 0.0
O333 O 0.83304 0.58083 0.81614 0.0
O334 O 0.85951 0.59714 0.88947 0.0
O335 O 0.8487 0.59371 0.99167 0.0
O336 O 0.87003 0.58387 0.72281 0.0
C337 C 0.84234 0.62532 0.78862 0.0
O338 O 0.83512 0.619 0.8456 0.0
O339 O 0.85086 0.62064 0.75818 0.0
C340 C 0.89188 0.63069 0.73736 0.0
H341 H 0.94883 0.60253 0.88153 0.0
H342 H 0.94091 0.57282 0.70072 0.0
H343 H 0.95937 0.59388 0.78248 0.0
H344 H 0.88189 0.59197 0.88155 0.0
H345 H 0.86048 0.58312 0.0848 0.0
H346 H 0.89509 0.56969 0.03843 0.0
H347 H 0.89087 0.56019 0.60127 0.0
H348 H 0.86416 0.52813 0.76549 0.0
H349 H 0.84268 0.52416 0.56756 0.0
H350 H 0.84486 0.52636 0.92774 0.0
H351 H 0.82906 0.53666 0.86865 0.0
H352 H 0.84216 0.55982 0.78839 0.0
H353 H 0.92249 0.56522 0.93283 0.0
H354 H 0.937 0.53184 0.88918 0.0
H355 H 0.88928 0.52012 0.8476 0.0
Cd356 Cd 0.39987 0.25924 0.76908 0.0
C357 C 0.41733 0.24199 0.78679 0.0
C358 C 0.44621 0.34938 0.71425 0.0
O359 O 0.45237 0.35778 0.65749 0.0
Cd360 Cd 0.39622 0.23123 0.93899 0.0
C361 C 0.43402 0.35042 0.75427 0.0
C362 C 0.41083 0.34814 0.84591 0.0
C363 C 0.41818 0.3392 0.85509 0.0
N364 N 0.42909 0.34082 0.80907 0.0
C365 C 0.42716 0.35971 0.74142 0.0
C366 C 0.4154 0.35844 0.788 0.0
Co367 Co 0.4387 0.32912 0.82439 0.0
C368 C 0.41643 0.32851 0.91255 0.0
O369 O 0.40623 0.32517 0.96333 0.0
C370 C 0.42428 0.31002 0.95625 0.0
C371 C 0.41514 0.29425 0.93788 0.0
C372 C 0.41256 0.28234 0.98511 0.0
C373 C 0.41882 0.28641 0.05282 0.0
C374 C 0.42781 0.3023 0.07301 0.0
C375 C 0.43051 0.31408 0.0239 0.0
C376 C 0.40446 0.26587 0.96102 0.0
C377 C 0.45825 0.33307 0.69307 0.0
C378 C 0.45346 0.32913 0.62308 0.0
C379 C 0.4718 0.33308 0.71578 0.0
C380 C 0.48009 0.32875 0.67022 0.0
C381 C 0.47515 0.32466 0.60112 0.0
C382 C 0.46193 0.32515 0.57616 0.0
N383 N 0.45021 0.33861 0.73775 0.0
N384 N 0.42575 0.32183 0.90819 0.0
N385 N 0.42306 0.31087 0.77185 0.0
C386 C 0.40909 0.30921 0.73986 0.0
C387 C 0.40853 0.31106 0.66776 0.0
C388 C 0.39601 0.30595 0.78082 0.0
C389 C 0.39529 0.3105 0.63656 0.0
H390 H 0.41844 0.31299 0.63629 0.0
C391 C 0.38249 0.30786 0.67883 0.0
C392 C 0.38274 0.30557 0.75111 0.0
C393 C 0.39487 0.31286 0.5602 0.0
H394 H 0.39622 0.3038 0.83598 0.0
H395 H 0.3723 0.30756 0.6554 0.0
C396 C 0.36929 0.30305 0.79555 0.0
O397 O 0.3822 0.31255 0.53084 0.0
O398 O 0.40599 0.31516 0.52339 0.0
O399 O 0.36957 0.30115 0.85851 0.0
O400 O 0.35668 0.30297 0.7668 0.0
H401 H 0.38169 0.3141 0.48123 0.0
H402 H 0.34783 0.30144 0.79486 0.0
N403 N 0.44808 0.31725 0.84029 0.0
C404 C 0.46045 0.32339 0.88298 0.0
C405 C 0.46773 0.31457 0.89771 0.0
C406 C 0.46136 0.29948 0.86718 0.0
C407 C 0.44803 0.29355 0.82312 0.0
C408 C 0.44146 0.30309 0.81047 0.0
N409 N 0.45605 0.3454 0.87967 0.0
C410 C 0.46505 0.33945 0.90534 0.0
O411 O 0.4775 0.34783 0.94455 0.0
C412 C 0.42731 0.29946 0.76982 0.0
O413 O 0.3782 0.26432 0.77753 0.0
O414 O 0.38393 0.26 0.67343 0.0
C415 C 0.46098 0.3619 0.88368 0.0
C416 C 0.45088 0.36676 0.9113 0.0
C417 C 0.45488 0.38255 0.90821 0.0
C418 C 0.46985 0.39384 0.88526 0.0
C419 C 0.48088 0.38948 0.86574 0.0
C420 C 0.47627 0.37344 0.86284 0.0
O421 O 0.41842 0.24945 0.73105 0.0
O422 O 0.40954 0.24358 0.83507 0.0
O423 O 0.40259 0.26287 0.89614 0.0
O424 O 0.40073 0.25457 0.00324 0.0
O425 O 0.41972 0.28625 0.73073 0.0
C426 C 0.37142 0.21667 0.80076 0.0
O427 O 0.37341 0.21497 0.86553 0.0
O428 O 0.37973 0.22987 0.76946 0.0
C429 C 0.37506 0.2627 0.71264 0.0
H430 H 0.40206 0.34738 0.88237 0.0
H431 H 0.43073 0.36764 0.69732 0.0
H432 H 0.40996 0.36555 0.77964 0.0
H433 H 0.40983 0.29125 0.8867 0.0
H434 H 0.41667 0.2772 0.08981 0.0
H435 H 0.43739 0.32639 0.03791 0.0
H436 H 0.44327 0.32955 0.6047 0.0
H437 H 0.47641 0.33704 0.76751 0.0
H438 H 0.48207 0.32175 0.56681 0.0
H439 H 0.47797 0.31914 0.93113 0.0
H440 H 0.46671 0.29238 0.87779 0.0
H441 H 0.443 0.28193 0.80049 0.0
H442 H 0.43997 0.35838 0.93542 0.0
H443 H 0.47315 0.40616 0.88587 0.0
H444 H 0.48455 0.36997 0.84485 0.0
Cd445 Cd 0.74412 0.1411 0.76155 0.0
C446 C 0.75907 0.17566 0.76219 0.0
C447 C 0.65485 0.09583 0.70863 0.0
O448 O 0.64683 0.09316 0.6503 0.0
Cd449 Cd 0.77012 0.17204 0.92128 0.0
C450 C 0.65419 0.08296 0.75027 0.0
C451 C 0.65775 0.06296 0.84291 0.0
C452 C 0.66541 0.07922 0.85337 0.0
N453 N 0.66317 0.08806 0.80704 0.0
C454 C 0.6462 0.06683 0.73602 0.0
C455 C 0.64811 0.0568 0.78312 0.0
Co456 Co 0.67436 0.10944 0.82043 0.0
C457 C 0.67589 0.08858 0.9107 0.0
O458 O 0.67974 0.08218 0.96171 0.0
C459 C 0.69365 0.11523 0.95308 0.0
C460 C 0.70941 0.12264 0.93369 0.0
C461 C 0.72126 0.13279 0.97953 0.0
C462 C 0.71718 0.13469 0.04768 0.0
C463 C 0.70134 0.12669 0.06948 0.0
C464 C 0.68959 0.11706 0.02119 0.0
C465 C 0.73751 0.14232 0.95299 0.0
C466 C 0.66961 0.12435 0.68872 0.0
C467 C 0.67439 0.12423 0.61951 0.0
C468 C 0.66798 0.13701 0.71108 0.0
C469 C 0.67152 0.14953 0.66596 0.0
C470 C 0.67642 0.14941 0.59758 0.0
C471 C 0.67756 0.13654 0.57291 0.0
N472 N 0.66482 0.11077 0.73267 0.0
N473 N 0.68192 0.10448 0.90563 0.0
N474 N 0.69282 0.1123 0.76899 0.0
C475 C 0.69491 0.1001 0.73877 0.0
C476 C 0.69286 0.09715 0.66706 0.0
C477 C 0.69876 0.09089 0.78109 0.0
C478 C 0.69384 0.08456 0.63764 0.0
H479 H 0.69044 0.10464 0.6345 0.0
C480 C 0.697 0.07496 0.68134 0.0
C481 C 0.69946 0.07803 0.75326 0.0
C482 C 0.69137 0.08128 0.56164 0.0
H483 H 0.70105 0.09368 0.8359 0.0
H484 H 0.69758 0.06511 0.65933 0.0
C485 C 0.70245 0.06763 0.79929 0.0
O486 O 0.69205 0.06898 0.53401 0.0
O487 O 0.68868 0.08965 0.52356 0.0
O488 O 0.70451 0.07026 0.86191 0.0
O489 O 0.70275 0.05507 0.77238 0.0
H490 H 0.69045 0.06661 0.48465 0.0
H491 H 0.70456 0.04808 0.80152 0.0
N492 N 0.68574 0.13077 0.83421 0.0
C493 C 0.67921 0.13696 0.87477 0.0
C494 C 0.68758 0.15317 0.88706 0.0
C495 C 0.70263 0.16207 0.85624 0.0
C496 C 0.70894 0.15473 0.8141 0.0
C497 C 0.69984 0.1385 0.80383 0.0
N498 N 0.6577 0.11024 0.87377 0.0
C499 C 0.6632 0.12528 0.89733 0.0
O500 O 0.65452 0.12921 0.93505 0.0
C501 C 0.70385 0.12804 0.76491 0.0
O502 O 0.74085 0.11502 0.77676 0.0
O503 O 0.74311 0.12336 0.67028 0.0
C504 C 0.64145 0.09809 0.88127 0.0
C505 C 0.63772 0.0839 0.91406 0.0
C506 C 0.62215 0.0718 0.91896 0.0
C507 C 0.61003 0.07432 0.89735 0.0
C508 C 0.61323 0.08883 0.8693 0.0
C509 C 0.62908 0.10065 0.86 0.0
O510 O 0.75365 0.16783 0.70644 0.0
O511 O 0.75555 0.16775 0.81767 0.0
O512 O 0.74017 0.1422 0.88815 0.0
O513 O 0.74854 0.15217 0.99182 0.0
O514 O 0.71698 0.13373 0.72527 0.0
C515 C 0.78724 0.16036 0.79834 0.0
O516 O 0.78884 0.16691 0.8578 0.0
O517 O 0.77376 0.15282 0.76855 0.0
C518 C 0.7416 0.11262 0.7121 0.0
H519 H 0.65916 0.05531 0.87922 0.0
H520 H 0.6389 0.06213 0.69007 0.0
H521 H 0.64208 0.04427 0.77346 0.0
H522 H 0.71247 0.12041 0.88256 0.0
H523 H 0.72633 0.1423 0.08382 0.0
H524 H 0.67732 0.11092 0.03629 0.0
H525 H 0.67521 0.11426 0.6014 0.0
H526 H 0.66333 0.137 0.76206 0.0
H527 H 0.67866 0.1591 0.56348 0.0
H528 H 0.68268 0.1588 0.91873 0.0
H529 H 0.70938 0.17462 0.86496 0.0
H530 H 0.7205 0.16148 0.79101 0.0
H531 H 0.64679 0.08228 0.93727 0.0
H532 H 0.59799 0.06497 0.90478 0.0
H533 H 0.63181 0.11179 0.8368 0.0
Cd534 Cd 0.80914 0.73255 0.5667 0.0
C535 C 0.84586 0.75482 0.57006 0.0
C536 C 0.76397 0.77628 0.62422 0.0
O537 O 0.76117 0.78176 0.68176 0.0
Cd538 Cd 0.84092 0.73935 0.42244 0.0
C539 C 0.75121 0.76374 0.58342 0.0
C540 C 0.73159 0.73907 0.49458 0.0
C541 C 0.74772 0.74843 0.48185 0.0
N542 N 0.75639 0.75996 0.52665 0.0
C543 C 0.73519 0.75491 0.59967 0.0
C544 C 0.72537 0.74238 0.55466 0.0
Co545 Co 0.77781 0.7701 0.51426 0.0
C546 C 0.75717 0.74725 0.42518 0.0
O547 O 0.75089 0.73679 0.37497 0.0
C548 C 0.78395 0.75672 0.38203 0.0
C549 C 0.79219 0.74915 0.40115 0.0
C550 C 0.80241 0.74782 0.35422 0.0
C551 C 0.80354 0.75335 0.28563 0.0
C552 C 0.7948 0.76045 0.26435 0.0
C553 C 0.78518 0.76232 0.31349 0.0
C554 C 0.81264 0.74178 0.37936 0.0
C555 C 0.79245 0.79008 0.64519 0.0
C556 C 0.79211 0.78529 0.71485 0.0
C557 C 0.80534 0.80422 0.62261 0.0
C558 C 0.81775 0.81319 0.6683 0.0
C559 C 0.81736 0.8083 0.73721 0.0
C560 C 0.80442 0.79431 0.76149 0.0
N561 N 0.77897 0.78134 0.60061 0.0
N562 N 0.77306 0.75722 0.43037 0.0
N563 N 0.78059 0.75475 0.5684 0.0
C564 C 0.76833 0.74058 0.59904 0.0
C565 C 0.76497 0.74006 0.67017 0.0
C566 C 0.75942 0.7273 0.5576 0.0
C567 C 0.7522 0.72667 0.69973 0.0
H568 H 0.77228 0.75014 0.70215 0.0
C569 C 0.74285 0.71369 0.65675 0.0
C570 C 0.74638 0.71389 0.58552 0.0
C571 C 0.74848 0.72629 0.77509 0.0
H572 H 0.76256 0.72753 0.50336 0.0
H573 H 0.73285 0.70338 0.67882 0.0
C574 C 0.73628 0.70022 0.54028 0.0
O575 O 0.73591 0.71356 0.80271 0.0
O576 O 0.75675 0.7375 0.81263 0.0
O577 O 0.73934 0.70042 0.47831 0.0
O578 O 0.72355 0.68753 0.56718 0.0
H579 H 0.73326 0.71308 0.85164 0.0
H580 H 0.71676 0.67854 0.53854 0.0
N581 N 0.79918 0.77997 0.50152 0.0
C582 C 0.80535 0.79211 0.45771 0.0
C583 C 0.82152 0.79967 0.4446 0.0
C584 C 0.83041 0.79382 0.4781 0.0
C585 C 0.82307 0.78068 0.52317 0.0
C586 C 0.80686 0.77376 0.53372 0.0
N587 N 0.77868 0.78721 0.45785 0.0
C588 C 0.79369 0.79613 0.43211 0.0
O589 O 0.79764 0.80808 0.38974 0.0
C590 C 0.79633 0.75948 0.57349 0.0
O591 O 0.78568 0.70931 0.52814 0.0
O592 O 0.78723 0.71422 0.63935 0.0
C593 C 0.76731 0.79244 0.45243 0.0
C594 C 0.75229 0.78262 0.42396 0.0
C595 C 0.74199 0.78838 0.41083 0.0
C596 C 0.74716 0.80429 0.42261 0.0
C597 C 0.76225 0.81443 0.44819 0.0
C598 C 0.77202 0.80835 0.46615 0.0
O599 O 0.83614 0.74649 0.61717 0.0
O600 O 0.84016 0.75596 0.5127 0.0
O601 O 0.81251 0.73827 0.44311 0.0
O602 O 0.82268 0.7411 0.34006 0.0
O603 O 0.8019 0.75177 0.61206 0.0
C604 C 0.82802 0.70937 0.54939 0.0
O605 O 0.83498 0.71539 0.49157 0.0
O606 O 0.81995 0.71447 0.58071 0.0
C607 C 0.77969 0.70519 0.58862 0.0
H608 H 0.72411 0.7295 0.46009 0.0
H609 H 0.73048 0.75734 0.64602 0.0
H610 H 0.71296 0.73528 0.56618 0.0
H611 H 0.79052 0.74416 0.4528 0.0
H612 H 0.81142 0.75238 0.24899 0.0
H613 H 0.77828 0.76766 0.29822 0.0
H614 H 0.78185 0.77487 0.73387 0.0
H615 H 0.80558 0.80866 0.57084 0.0
H616 H 0.82713 0.81551 0.77143 0.0
H617 H 0.82712 0.80975 0.41024 0.0
H618 H 0.84294 0.79943 0.46894 0.0
H619 H 0.8298 0.77607 0.54818 0.0
H620 H 0.74888 0.77084 0.40791 0.0
H621 H 0.7394 0.80891 0.41135 0.0
H622 H 0.78368 0.81619 0.48653 0.0
Cd623 Cd 0.27105 0.0765 0.56872 0.0
C624 C 0.25219 0.09235 0.56278 0.0
C625 C 0.2266 0.98734 0.62713 0.0
O626 O 0.22119 0.97943 0.68567 0.0
Cd627 Cd 0.26862 0.10306 0.40363 0.0
C628 C 0.23889 0.98664 0.58641 0.0
C629 C 0.26306 0.99063 0.49671 0.0
C630 C 0.25401 0.99773 0.48366 0.0
N631 N 0.24269 0.99534 0.52879 0.0
C632 C 0.24743 0.97916 0.60309 0.0
C633 C 0.2597 0.98131 0.55756 0.0
Co634 Co 0.23263 0.00664 0.51442 0.0
C635 C 0.25524 0.00814 0.42583 0.0
O636 O 0.2657 0.01206 0.37575 0.0
C637 C 0.2463 0.02569 0.38121 0.0
C638 C 0.2549 0.0415 0.39981 0.0
C639 C 0.25718 0.05333 0.35254 0.0
C640 C 0.25155 0.04917 0.28403 0.0
C641 C 0.24339 0.0333 0.26327 0.0
C642 C 0.24057 0.02155 0.31275 0.0
C643 C 0.26419 0.0697 0.37742 0.0
C644 C 0.21307 0.00236 0.64581 0.0
C645 C 0.21805 0.00723 0.71486 0.0
C646 C 0.19884 1.00094 0.62334 0.0
C647 C 0.19003 0.00474 0.66828 0.0
C648 C 0.19514 0.00971 0.73652 0.0
C649 C 0.20915 0.0108 0.76093 0.0
N650 N 0.22167 0.99728 0.60221 0.0
N651 N 0.24523 0.01403 0.42938 0.0
N652 N 0.24828 0.02513 0.56554 0.0
C653 C 0.26251 0.02716 0.59628 0.0
C654 C 0.26319 0.02475 0.66779 0.0
C655 C 0.27572 0.03128 0.55463 0.0
C656 C 0.2767 0.02567 0.69769 0.0
H657 H 0.25315 0.02211 0.69983 0.0
C658 C 0.28966 0.02919 0.65469 0.0
C659 C 0.28927 0.03201 0.58299 0.0
C660 C 0.27724 0.02277 0.77345 0.0
H661 H 0.27537 0.03377 0.49994 0.0
H662 H 0.30006 0.02976 0.67709 0.0
C663 C 0.3029 0.03545 0.53775 0.0
O664 O 0.29012 0.02327 0.80145 0.0
O665 O 0.26604 0.01987 0.81098 0.0
O666 O 0.3025 0.03776 0.47525 0.0
O667 O 0.31582 0.03596 0.56527 0.0
H668 H 0.29071 0.02138 0.85064 0.0
H669 H 0.32482 0.03814 0.53671 0.0
N670 N 0.2228 0.01811 0.49965 0.0
C671 C 0.21012 0.01159 0.4588 0.0
C672 C 0.20244 0.02008 0.44522 0.0
C673 C 0.20871 0.03522 0.47514 0.0
C674 C 0.22231 0.04151 0.51765 0.0
C675 C 0.22928 0.0323 0.5292 0.0
N676 N 0.21517 0.98998 0.46123 0.0
C677 C 0.20571 0.99554 0.43696 0.0
O678 O 0.19319 0.98691 0.39858 0.0
C679 C 0.2437 0.03627 0.56851 0.0
O680 O 0.29319 0.0722 0.55387 0.0
O681 O 0.28827 0.07623 0.65981 0.0
C682 C 0.21116 0.9738 0.45257 0.0
C683 C 0.22152 0.97022 0.41769 0.0
C684 C 0.21757 0.95462 0.40673 0.0
C685 C 0.20284 0.94247 0.42702 0.0
C686 C 0.1919 0.94559 0.45954 0.0
C687 C 0.19618 0.96137 0.47286 0.0
O688 O 0.25343 0.08617 0.6188 0.0
O689 O 0.25778 0.08958 0.50909 0.0
O690 O 0.26673 0.07266 0.44215 0.0
O691 O 0.26605 0.08072 0.33668 0.0
O692 O 0.25126 0.04953 0.60726 0.0
C693 C 0.29635 0.11944 0.53025 0.0
O694 O 0.29243 0.12108 0.46844 0.0
O695 O 0.28958 0.10605 0.56105 0.0
C696 C 0.29693 0.07382 0.61806 0.0
H697 H 0.27242 0.99228 0.46176 0.0
H698 H 0.24496 0.97218 0.65003 0.0
H699 H 0.26655 0.97574 0.5693 0.0
H700 H 0.26001 0.04463 0.45126 0.0
H701 H 0.25323 0.05824 0.24709 0.0
H702 H 0.23445 0.00927 0.29771 0.0
H703 H 0.22849 0.00742 0.73401 0.0
H704 H 0.19415 0.99626 0.57245 0.0
H705 H 0.18804 0.01251 0.77025 0.0
H706 H 0.19197 0.01521 0.41314 0.0
H707 H 0.20304 0.04207 0.46538 0.0
H708 H 0.22722 0.05315 0.53998 0.0
H709 H 0.23233 0.97943 0.39608 0.0
H710 H 0.19982 0.93046 0.41571 0.0
H711 H 0.18791 0.96401 0.49812 0.0
Cd712 Cd 0.9269 0.19488 0.56796 0.0
C713 C 0.91117 0.16033 0.5551 0.0
C714 C 0.01692 0.23895 0.62284 0.0
O715 O 0.02531 0.24118 0.67967 0.0
Cd716 Cd 0.89969 0.16792 0.40028 0.0
C717 C 0.01773 0.25218 0.58356 0.0
C718 C 0.01459 0.27304 0.4947 0.0
C719 C 0.00605 0.25677 0.48421 0.0
N720 N 0.00815 0.24752 0.52867 0.0
C721 C 0.02661 0.26829 0.59774 0.0
C722 C 0.02495 0.27876 0.55247 0.0
Co723 Co 0.99671 0.22625 0.51251 0.0
C724 C 0.99543 0.24787 0.42641 0.0
O725 O 0.99179 0.25473 0.37665 0.0
C726 C 0.97754 0.22159 0.38036 0.0
C727 C 0.96172 0.21456 0.39881 0.0
C728 C 0.94984 0.20545 0.35094 0.0
C729 C 0.95399 0.20419 0.28206 0.0
C730 C 0.96989 0.21152 0.26195 0.0
C731 C 0.98167 0.22005 0.3118 0.0
C732 C 0.93341 0.19629 0.37561 0.0
C733 C 1.00057 0.21058 0.64376 0.0
C734 C 0.9965 0.21135 0.7137 0.0
C735 C 1.00035 0.19694 0.62083 0.0
C736 C 0.99562 0.18417 0.66588 0.0
C737 C 0.99136 0.18493 0.73474 0.0
C738 C 0.99197 0.19867 0.75995 0.0
N739 N 0.00626 0.22419 0.59902 0.0
N740 N 0.98925 0.23192 0.42904 0.0
N741 N 0.97838 0.22334 0.56527 0.0
C742 C 0.97648 0.23552 0.59694 0.0
C743 C 0.97892 0.23841 0.66856 0.0
C744 C 0.97254 0.24485 0.55597 0.0
C745 C 0.97822 0.25105 0.69919 0.0
H746 H 0.98142 0.23083 0.70007 0.0
C747 C 0.97492 0.26074 0.65681 0.0
C748 C 0.97209 0.25775 0.58501 0.0
C749 C 0.98117 0.25432 0.77503 0.0
H750 H 0.97001 0.24216 0.50122 0.0
H751 H 0.97454 0.27062 0.67974 0.0
C752 C 0.96896 0.26824 0.54032 0.0
O753 O 0.98075 0.26666 0.80377 0.0
O754 O 0.98404 0.2459 0.81196 0.0
O755 O 0.96665 0.26571 0.47773 0.0
O756 O 0.96873 0.28073 0.56847 0.0
H757 H 0.98268 0.26903 0.85303 0.0
H758 H 0.96674 0.28774 0.54028 0.0
N759 N 0.98504 0.20504 0.49594 0.0
C760 C 0.99127 0.19903 0.45257 0.0
C761 C 0.98252 0.183 0.43661 0.0
C762 C 0.9674 0.1741 0.46681 0.0
C763 C 0.96138 0.18127 0.51172 0.0
C764 C 0.97085 0.19732 0.52552 0.0
N765 N 0.01319 0.22553 0.45682 0.0
C766 C 0.00729 0.21065 0.4303 0.0
O767 O 0.01553 0.20687 0.38869 0.0
C768 C 0.96709 0.20765 0.56681 0.0
O769 O 0.93244 0.22178 0.55936 0.0
O770 O 0.92706 0.21139 0.66287 0.0
C771 C 0.02957 0.23745 0.44982 0.0
C772 C 0.03375 0.25238 0.42385 0.0
C773 C 0.04948 0.26428 0.42148 0.0
C774 C 0.06131 0.26071 0.435 0.0
C775 C 0.05751 0.24536 0.45192 0.0
C776 C 0.04167 0.2339 0.46309 0.0
O777 O 0.91784 0.16714 0.61154 0.0
O778 O 0.91305 0.16928 0.50454 0.0
O779 O 0.9305 0.19536 0.44057 0.0
O780 O 0.92226 0.18775 0.3342 0.0
O781 O 0.95386 0.20187 0.60584 0.0
C782 C 0.88399 0.17874 0.53285 0.0
O783 O 0.88223 0.17358 0.47027 0.0
O784 O 0.89737 0.18485 0.56378 0.0
C785 C 0.9303 0.22312 0.62382 0.0
H786 H 0.01349 0.28103 0.45936 0.0
H787 H 0.0345 0.27265 0.64201 0.0
H788 H 0.03174 0.29129 0.56187 0.0
H789 H 0.95865 0.21636 0.45069 0.0
H790 H 0.94491 0.19724 0.2443 0.0
H791 H 0.99396 0.22593 0.2969 0.0
H792 H 0.99754 0.22216 0.73305 0.0
H793 H 0.00437 0.19631 0.56922 0.0
H794 H 0.98773 0.17482 0.76823 0.0
H795 H 0.98715 0.17752 0.40243 0.0
H796 H 0.96035 0.16169 0.45523 0.0
H797 H 0.94974 0.17454 0.53401 0.0
H798 H 0.02496 0.25474 0.40358 0.0
H799 H 0.07354 0.26975 0.42884 0.0
H800 H 0.03874 0.22216 0.47884 0.0
Cd801 Cd 0.52842 0.93643 0.0994 0.0
C802 C 0.49379 0.91785 0.11183 0.0
C803 C 0.57422 0.8919 0.04521 0.0
O804 O 0.57676 0.88591 0.98867 0.0
Cd805 Cd 0.50222 0.93793 0.26471 0.0
C806 C 0.58721 0.90424 0.0858 0.0
C807 C 0.60754 0.92776 0.17775 0.0
C808 C 0.5912 0.92011 0.18593 0.0
N809 N 0.58221 0.90898 0.1401 0.0
C810 C 0.60341 0.9114 0.07395 0.0
C811 C 0.61362 0.92328 0.1208 0.0
Co812 Co 0.56084 0.89895 0.15426 0.0
C813 C 0.58196 0.92157 0.24288 0.0
O814 O 0.58852 0.93176 0.29391 0.0
C815 C 0.55535 0.91276 0.28624 0.0
C816 C 0.54797 0.92121 0.26777 0.0
C817 C 0.5381 0.92305 0.31474 0.0
C818 C 0.53619 0.91683 0.38237 0.0
C819 C 0.54389 0.90861 0.40279 0.0
C820 C 0.55347 0.90659 0.35391 0.0
C821 C 0.52904 0.93044 0.29054 0.0
C822 C 0.54582 0.87915 0.02315 0.0
C823 C 0.54652 0.88386 0.95315 0.0
C824 C 0.53253 0.86538 0.04594 0.0
C825 C 0.51999 0.85679 0.00035 0.0
C826 C 0.52068 0.86164 0.93121 0.0
C827 C 0.53415 0.8751 0.90625 0.0
N828 N 0.55932 0.88756 0.06795 0.0
N829 N 0.56602 0.91186 0.23808 0.0
N830 N 0.558 0.91438 0.10109 0.0
C831 C 0.57025 0.9285 0.06998 0.0
C832 C 0.57324 0.92906 0.99842 0.0
C833 C 0.57956 0.94167 0.11143 0.0
C834 C 0.58598 0.94241 0.96832 0.0
H835 H 0.56566 0.91905 0.96653 0.0
C836 C 0.59567 0.95529 0.01119 0.0
C837 C 0.59255 0.95502 0.08292 0.0
C838 C 0.58933 0.94284 0.89252 0.0
H839 H 0.57676 0.94142 0.1661 0.0
H840 H 0.60563 0.96555 0.98868 0.0
C841 C 0.60304 0.96854 0.12811 0.0
O842 O 0.60179 0.95559 0.8643 0.0
O843 O 0.58086 0.93168 0.85516 0.0
O844 O 0.60036 0.96826 0.19057 0.0
O845 O 0.61574 0.98118 0.10063 0.0
H846 H 0.60421 0.95611 0.81507 0.0
H847 H 0.62279 0.99006 0.12922 0.0
N848 N 0.53952 0.88921 0.16874 0.0
C849 C 0.5334 0.87694 0.21197 0.0
C850 C 0.51729 0.86952 0.22639 0.0
C851 C 0.50842 0.87565 0.19504 0.0
C852 C 0.51571 0.88891 0.15056 0.0
C853 C 0.53184 0.89563 0.13824 0.0
N854 N 0.56 0.88169 0.21 0.0
C855 C 0.54503 0.87264 0.2356 0.0
O856 O 0.54111 0.86051 0.27669 0.0
C857 C 0.54229 0.90988 0.098 0.0
O858 O 0.55393 0.95855 0.1248 0.0
O859 O 0.54778 0.95411 0.01487 0.0
C860 C 0.57171 0.8769 0.21526 0.0
C861 C 0.58683 0.88743 0.24 0.0
C862 C 0.59864 0.88345 0.23938 0.0
C863 C 0.59473 0.86797 0.22465 0.0
C864 C 0.5792 0.85661 0.2093 0.0
C865 C 0.56785 0.86124 0.20072 0.0
O866 O 0.50052 0.91759 0.05577 0.0
O867 O 0.50286 0.92558 0.16097 0.0
O868 O 0.52833 0.93278 0.22587 0.0
O869 O 0.5208 0.93342 0.33216 0.0
O870 O 0.53659 0.91742 0.05893 0.0
C871 C 0.51292 0.96365 0.12757 0.0
O872 O 0.509 0.96112 0.19208 0.0
O873 O 0.5182 0.95582 0.09492 0.0
C874 C 0.5576 0.96266 0.06159 0.0
H875 H 0.61533 0.93663 0.21437 0.0
H876 H 0.60804 0.90795 0.03043 0.0
H877 H 0.62621 0.92892 0.11331 0.0
H878 H 0.55011 0.92655 0.21669 0.0
H879 H 0.52874 0.91845 0.41917 0.0
H880 H 0.55949 0.90027 0.3681 0.0
H881 H 0.55694 0.89422 0.93481 0.0
H882 H 0.53203 0.86088 0.09777 0.0
H883 H 0.51092 0.8545 0.8969 0.0
H884 H 0.51172 0.85935 0.26027 0.0
H885 H 0.49595 0.87018 0.20545 0.0
H886 H 0.50901 0.89378 0.12752 0.0
H887 H 0.58942 0.89859 0.26114 0.0
H888 H 0.60364 0.86456 0.22899 0.0
H889 H 0.55598 0.85257 0.18579 0.0
Cd890 Cd 0.06648 0.59234 0.10146 0.0
C891 C 0.08467 0.57585 0.11384 0.0
C892 C 0.11249 0.68232 0.04563 0.0
O893 O 0.11853 0.69059 0.98845 0.0
Cd894 Cd 0.06592 0.56527 0.2703 0.0
C895 C 0.1003 0.68335 0.08567 0.0
C896 C 0.07695 0.6809 0.17682 0.0
C897 C 0.08455 0.67221 0.18677 0.0
N898 N 0.09554 0.67392 0.14104 0.0
C899 C 0.09319 0.69238 0.072 0.0
C900 C 0.08136 0.69103 0.11835 0.0
Co901 Co 0.10518 0.66224 0.15637 0.0
C902 C 0.08284 0.66157 0.24438 0.0
O903 O 0.07262 0.6582 0.2951 0.0
C904 C 0.09095 0.64333 0.28881 0.0
C905 C 0.08218 0.62754 0.27055 0.0
C906 C 0.07998 0.61576 0.31779 0.0
C907 C 0.08611 0.61997 0.38565 0.0
C908 C 0.09464 0.63589 0.4059 0.0
C909 C 0.09707 0.64755 0.35657 0.0
C910 C 0.07245 0.59932 0.29349 0.0
C911 C 0.12486 0.66627 0.02555 0.0
C912 C 0.1201 0.6621 0.95568 0.0
C913 C 0.13855 0.6666 0.04873 0.0
C914 C 0.147 0.66237 0.00374 0.0
C915 C 0.1421 0.65806 0.93476 0.0
C916 C 0.12874 0.6582 0.90934 0.0
N917 N 0.11664 0.6717 0.06964 0.0
N918 N 0.09224 0.65498 0.24024 0.0
N919 N 0.08954 0.64398 0.10393 0.0
C920 C 0.0755 0.64225 0.07242 0.0
C921 C 0.0749 0.64429 0.0005 0.0
C922 C 0.06241 0.63879 0.11373 0.0
C923 C 0.06158 0.64365 0.96982 0.0
H924 H 0.08484 0.64643 0.96877 0.0
C925 C 0.04876 0.64081 0.01245 0.0
C926 C 0.04908 0.63837 0.08458 0.0
C927 C 0.06109 0.64616 0.89363 0.0
H928 H 0.06268 0.63653 0.16874 0.0
H929 H 0.03851 0.64046 0.98944 0.0
C930 C 0.03562 0.63566 0.12943 0.0
O931 O 0.04834 0.64579 0.86478 0.0
O932 O 0.07222 0.64862 0.8565 0.0
O933 O 0.03596 0.63367 0.19227 0.0
O934 O 0.02293 0.63552 0.1012 0.0
H935 H 0.04779 0.64742 0.81529 0.0
H936 H 0.01407 0.63385 0.12953 0.0
N937 N 0.11457 0.65038 0.17222 0.0
C938 C 0.12693 0.65651 0.21496 0.0
C939 C 0.13423 0.6477 0.22964 0.0
C940 C 0.12788 0.63263 0.19897 0.0
C941 C 0.11457 0.62671 0.15484 0.0
C942 C 0.10799 0.63624 0.14226 0.0
N943 N 0.12252 0.67852 0.21156 0.0
C944 C 0.1315 0.67255 0.23746 0.0
O945 O 0.14386 0.68086 0.27724 0.0
C946 C 0.09382 0.63259 0.10173 0.0
O947 O 0.0449 0.59764 0.11028 0.0
O948 O 0.0502 0.59277 0.00642 0.0
C949 C 0.12744 0.69501 0.2162 0.0
C950 C 0.11736 0.69983 0.24436 0.0
C951 C 0.12169 0.71571 0.24499 0.0
C952 C 0.13683 0.72706 0.22429 0.0
C953 C 0.14772 0.72262 0.20346 0.0
C954 C 0.14287 0.70657 0.19727 0.0
O955 O 0.08467 0.58263 0.05748 0.0
O956 O 0.07766 0.57783 0.16435 0.0
O957 O 0.07018 0.59631 0.22865 0.0
O958 O 0.06972 0.5882 0.33524 0.0
O959 O 0.08622 0.61937 0.06281 0.0
C960 C 0.03886 0.54994 0.14108 0.0
O961 O 0.04193 0.54858 0.20475 0.0
O962 O 0.04659 0.56297 0.10779 0.0
C963 C 0.04157 0.59579 0.04561 0.0
H964 H 0.06809 0.68003 0.21295 0.0
H965 H 0.0966 0.70015 0.02734 0.0
H966 H 0.07571 0.69792 0.1093 0.0
H967 H 0.0769 0.62441 0.21935 0.0
H968 H 0.08419 0.61085 0.42272 0.0
H969 H 0.10366 0.65989 0.37046 0.0
H970 H 0.10981 0.66226 0.93694 0.0
H971 H 0.14311 0.67073 0.10037 0.0
H972 H 0.14915 0.65522 0.90087 0.0
H973 H 0.14446 0.65228 0.26312 0.0
H974 H 0.13325 0.62554 0.20953 0.0
H975 H 0.10956 0.6151 0.13214 0.0
H976 H 0.10632 0.69138 0.26724 0.0
H977 H 0.14038 0.73942 0.22783 0.0
H978 H 0.15114 0.7031 0.17898 0.0
Cd979 Cd 0.41102 0.47459 0.0992 0.0
C980 C 0.42684 0.50925 0.10873 0.0
C981 C 0.32115 0.43025 0.04352 0.0
O982 O 0.31281 0.4279 0.98643 0.0
Cd983 Cd 0.43819 0.50215 0.26501 0.0
C984 C 0.32024 0.41711 0.08391 0.0
C985 C 0.32316 0.39644 0.17479 0.0
C986 C 0.33173 0.41274 0.18448 0.0
N987 N 0.32974 0.4219 0.13907 0.0
C988 C 0.31134 0.40097 0.07048 0.0
C989 C 0.3129 0.39059 0.11676 0.0
Co990 Co 0.34139 0.44323 0.15363 0.0
C991 C 0.34246 0.42177 0.24167 0.0
O992 O 0.34601 0.41502 0.29219 0.0
C993 C 0.36048 0.44816 0.28629 0.0
C994 C 0.37629 0.45544 0.26763 0.0
C995 C 0.38811 0.46476 0.31532 0.0
C996 C 0.38394 0.466 0.38411 0.0
C997 C 0.36805 0.45829 0.40479 0.0
C998 C 0.35631 0.44954 0.35501 0.0
C999 C 0.40451 0.47405 0.29077 0.0
C1000 C 0.33709 0.45864 0.02252 0.0
C1001 C 0.34133 0.45805 0.95276 0.0
C1002 C 0.3365 0.47189 0.04512 0.0
C1003 C 0.34047 0.48444 -0.00043 0.0
C1004 C 0.3448 0.48383 0.93065 0.0
C1005 C 0.34508 0.47049 0.90611 0.0
N1006 N 0.33176 0.44506 0.06699 0.0
N1007 N 0.34885 0.43774 0.23763 0.0
N1008 N 0.35956 0.44578 0.10074 0.0
C1009 C 0.36129 0.43345 0.06959 0.0
C1010 C 0.35891 0.43054 0.99796 0.0
C1011 C 0.36517 0.42414 0.11093 0.0
C1012 C 0.35963 0.41788 0.96762 0.0
H1013 H 0.35647 0.43813 0.96617 0.0
C1014 C 0.36289 0.40821 0.01032 0.0
C1015 C 0.36568 0.41125 0.08213 0.0
C1016 C 0.3568 0.41463 0.89171 0.0
H1017 H 0.36768 0.42688 0.16567 0.0
H1018 H 0.36329 0.39832 0.98758 0.0
C1019 C 0.36885 0.40081 0.12703 0.0
O1020 O 0.35714 0.40222 0.86328 0.0
O1021 O 0.35412 0.42313 0.85445 0.0
O1022 O 0.37121 0.40342 0.18956 0.0
O1023 O 0.36902 0.38826 0.0992 0.0
H1024 H 0.3553 0.39987 0.81397 0.0
H1025 H 0.37098 0.38127 0.12758 0.0
N1026 N 0.35323 0.4645 0.16849 0.0
C1027 C 0.34715 0.47079 0.21107 0.0
C1028 C 0.35596 0.48692 0.225 0.0
C1029 C 0.37097 0.49561 0.19366 0.0
C1030 C 0.37683 0.48816 0.14959 0.0
C1031 C 0.3673 0.47203 0.13779 0.0
N1032 N 0.32515 0.44434 0.20906 0.0
C1033 C 0.33117 0.45934 0.23437 0.0
O1034 O 0.323 0.4634 0.27497 0.0
C1035 C 0.37089 0.46144 0.09754 0.0
O1036 O 0.40704 0.44843 0.11708 0.0
O1037 O 0.41058 0.45672 0.00995 0.0
C1038 C 0.30871 0.43266 0.21592 0.0
C1039 C 0.30425 0.41789 0.24469 0.0
C1040 C 0.28839 0.40637 0.24941 0.0
C1041 C 0.2768 0.41015 0.23339 0.0
C1042 C 0.28098 0.42534 0.21169 0.0
C1043 C 0.2969 0.43641 0.19999 0.0
O1044 O 0.42018 0.50217 0.05272 0.0
O1045 O 0.42483 0.50053 0.16041 0.0
O1046 O 0.4075 0.47474 0.22601 0.0
O1047 O 0.41563 0.48272 0.33209 0.0
O1048 O 0.38408 0.46697 0.0585 0.0
C1049 C 0.45393 0.49149 0.13272 0.0
O1050 O 0.45554 0.49608 0.19623 0.0
O1051 O 0.4406 0.48545 0.10148 0.0
C1052 C 0.40848 0.44597 0.05313 0.0
H1053 H 0.32422 0.38853 0.21077 0.0
H1054 H 0.30352 0.39651 0.02598 0.0
H1055 H 0.30611 0.37805 0.10789 0.0
H1056 H 0.3794 0.45363 0.21582 0.0
H1057 H 0.39302 0.47321 0.42139 0.0
H1058 H 0.34402 0.44336 0.37001 0.0
H1059 H 0.34094 0.44751 0.93374 0.0
H1060 H 0.33236 0.47232 0.09673 0.0
H1061 H 0.34777 0.49372 0.89657 0.0
H1062 H 0.35143 0.49262 0.2584 0.0
H1063 H 0.37806 0.50809 0.20364 0.0
H1064 H 0.38839 0.49474 0.12634 0.0
H1065 H 0.31293 0.4154 0.26556 0.0
H1066 H 0.2645 0.40143 0.24072 0.0
H1067 H 0.3001 0.44804 0.18132 0.0
Cd1068 Cd 0.47642 0.06687 0.9027 0.0
C1069 C 0.51162 0.08734 0.9008 0.0
C1070 C 0.43122 0.11167 0.94837 0.0
O1071 O 0.42869 0.11779 0.0045 0.0
Cd1072 Cd 0.50777 0.07252 0.74542 0.0
C1073 C 0.41822 0.09931 0.90791 0.0
C1074 C 0.39781 0.07612 0.815 0.0
C1075 C 0.41415 0.08346 0.80767 0.0
N1076 N 0.42319 0.09435 0.85429 0.0
C1077 C 0.40201 0.09248 0.91882 0.0
C1078 C 0.39176 0.08072 0.87163 0.0
Co1079 Co 0.44457 0.10427 0.84035 0.0
C1080 C 0.42338 0.08184 0.75115 0.0
O1081 O 0.41678 0.0717 0.69995 0.0
C1082 C 0.44998 0.09005 0.70938 0.0
C1083 C 0.45767 0.08201 0.72961 0.0
C1084 C 0.46787 0.08036 0.6839 0.0
C1085 C 0.46958 0.08611 0.61533 0.0
C1086 C 0.46141 0.09374 0.59291 0.0
C1087 C 0.45167 0.09575 0.64088 0.0
C1088 C 0.47775 0.07406 0.71076 0.0
C1089 C 0.45951 0.12403 0.9717 0.0
C1090 C 0.45859 0.11909 0.04153 0.0
C1091 C 0.47293 0.13777 0.94981 0.0
C1092 C 0.48536 0.14617 0.99614 0.0
C1093 C 0.48446 0.14111 0.06506 0.0
C1094 C 0.4709 0.1276 0.08915 0.0
N1095 N 0.44611 0.11585 0.92611 0.0
N1096 N 0.43935 0.09118 0.75701 0.0
N1097 N 0.4474 0.08899 0.89481 0.0
C1098 C 0.43514 0.0749 0.92612 0.0
C1099 C 0.43258 0.07415 0.99814 0.0
C1100 C 0.42543 0.06192 0.88445 0.0
C1101 C 0.4198 0.06086 0.02845 0.0
H1102 H 0.44052 0.08395 0.03024 0.0
C1103 C 0.40966 0.04823 0.98535 0.0
C1104 C 0.41238 0.04866 0.91316 0.0
C1105 C 0.41687 0.06025 0.10474 0.0
H1106 H 0.428 0.06222 0.8295 0.0
H1107 H 0.39965 0.03804 0.00803 0.0
C1108 C 0.40142 0.03544 0.86774 0.0
O1109 O 0.40442 0.04754 0.13324 0.0
O1110 O 0.42568 0.07123 0.14225 0.0
O1111 O 0.40364 0.03597 0.80476 0.0
O1112 O 0.38882 0.02276 0.89563 0.0
H1113 H 0.40227 0.0469 0.18279 0.0
H1114 H 0.3815 0.01405 0.86693 0.0
N1115 N 0.46589 0.11397 0.82595 0.0
C1116 C 0.47206 0.12626 0.78286 0.0
C1117 C 0.48825 0.13389 0.77 0.0
C1118 C 0.49714 0.12798 0.80294 0.0
C1119 C 0.48982 0.11475 0.84758 0.0
C1120 C 0.4736 0.1078 0.85819 0.0
N1121 N 0.44543 0.12134 0.78354 0.0
C1122 C 0.46042 0.13047 0.75848 0.0
O1123 O 0.46442 0.14284 0.71882 0.0
C1124 C 0.46315 0.09369 0.89918 0.0
O1125 O 0.44991 0.04478 0.8891 0.0
O1126 O 0.45975 0.04896 0.99347 0.0
C1127 C 0.43387 0.12632 0.78019 0.0
C1128 C 0.41874 0.11616 0.7543 0.0
C1129 C 0.40691 0.12008 0.75975 0.0
C1130 C 0.41076 0.13513 0.78237 0.0
C1131 C 0.42627 0.14621 0.79978 0.0
C1132 C 0.43773 0.14164 0.80102 0.0
O1133 O 0.50331 0.08283 0.95574 0.0
O1134 O 0.50426 0.08514 0.84419 0.0
O1135 O 0.47785 0.07142 0.77567 0.0
O1136 O 0.48777 0.07317 0.67194 0.0
O1137 O 0.46887 0.08643 0.93992 0.0
C1138 C 0.49505 0.0428 0.86567 0.0
O1139 O 0.50184 0.04806 0.8069 0.0
O1140 O 0.48763 0.04876 0.89605 0.0
C1141 C 0.44841 0.0405 0.95257 0.0
H1142 H 0.39 0.06739 0.77791 0.0
H1143 H 0.3974 0.09612 0.96175 0.0
H1144 H 0.37918 0.07532 0.8784 0.0
H1145 H 0.45566 0.077 0.78134 0.0
H1146 H 0.47725 0.08462 0.57942 0.0
H1147 H 0.44542 0.10175 0.62545 0.0
H1148 H 0.44806 0.10874 0.05904 0.0
H1149 H 0.47362 0.1424 0.89806 0.0
H1150 H 0.49417 0.14812 0.09985 0.0
H1151 H 0.49387 0.14409 0.73635 0.0
H1152 H 0.50968 0.13363 0.79389 0.0
H1153 H 0.49656 0.11012 0.87229 0.0
H1154 H 0.41609 0.10522 0.73021 0.0
H1155 H 0.40174 0.13844 0.78337 0.0
H1156 H 0.44957 0.14995 0.81794 0.0
Cd1157 Cd 0.93859 0.40946 0.89071 0.0
C1158 C 0.91489 0.42516 0.87358 0.0
C1159 C 0.89211 0.31979 0.95307 0.0
O1160 O 0.88595 0.31149 0.01006 0.0
Cd1161 Cd 0.93893 0.43296 0.74593 0.0
C1162 C 0.90442 0.31882 0.91378 0.0
C1163 C 0.9279 0.32128 0.82356 0.0
C1164 C 0.92043 0.33008 0.81349 0.0
N1165 N 0.90932 0.32832 0.85863 0.0
C1166 C 0.91139 0.30968 0.92753 0.0
C1167 C 0.92327 0.311 0.88157 0.0
Co1168 Co 0.89948 0.33977 0.84191 0.0
C1169 C 0.92201 0.34047 0.75501 0.0
O1170 O 0.93229 0.3438 0.7046 0.0
C1171 C 0.91378 0.35842 0.70857 0.0
C1172 C 0.92274 0.37419 0.72655 0.0
C1173 C 0.92571 0.38602 0.67827 0.0
C1174 C 0.92016 0.38189 0.6097 0.0
C1175 C 0.91149 0.36599 0.58957 0.0
C1176 C 0.90814 0.35424 0.63989 0.0
C1177 C 0.93345 0.40243 0.70235 0.0
C1178 C 0.87971 0.33582 0.97247 0.0
C1179 C 0.8845 0.34009 0.04223 0.0
C1180 C 0.86582 0.33509 0.94961 0.0
C1181 C 0.85705 0.33881 0.99522 0.0
C1182 C 0.8619 0.34307 0.06433 0.0
C1183 C 0.87564 0.34359 0.08886 0.0
N1184 N 0.88799 0.33041 0.92869 0.0
N1185 N 0.9124 0.34684 0.75781 0.0
N1186 N 0.91499 0.35824 0.89395 0.0
C1187 C 0.92904 0.36017 0.92617 0.0
C1188 C 0.92962 0.35841 0.99834 0.0
C1189 C 0.94221 0.36363 0.88543 0.0
C1190 C 0.94298 0.35931 0.02987 0.0
H1191 H 0.91962 0.35631 0.02962 0.0
C1192 C 0.95588 0.36215 0.98784 0.0
C1193 C 0.9556 0.36434 0.91547 0.0
C1194 C 0.94343 0.3571 0.10634 0.0
H1195 H 0.94197 0.36568 0.83018 0.0
H1196 H 0.96617 0.36271 0.01153 0.0
C1197 C 0.96918 0.36708 0.87131 0.0
O1198 O 0.95618 0.35763 0.13596 0.0
O1199 O 0.93227 0.35474 0.14301 0.0
O1200 O 0.9689 0.36892 0.8083 0.0
O1201 O 0.98189 0.36743 0.90037 0.0
H1202 H 0.95671 0.35618 0.18565 0.0
H1203 H 0.99081 0.36911 0.87249 0.0
N1204 N 0.88994 0.35146 0.82495 0.0
C1205 C 0.87765 0.34518 0.78188 0.0
C1206 C 0.87028 0.35387 0.76611 0.0
C1207 C 0.87648 0.36899 0.79615 0.0
C1208 C 0.88974 0.37508 0.84069 0.0
C1209 C 0.89641 0.36567 0.8543 0.0
N1210 N 0.88217 0.32323 0.787 0.0
C1211 C 0.87324 0.32915 0.75994 0.0
O1212 O 0.86113 0.32085 0.71881 0.0
C1213 C 0.91057 0.36953 0.89541 0.0
O1214 O 0.96292 0.40927 0.87261 0.0
O1215 O 0.95388 0.40517 0.97871 0.0
C1216 C 0.87723 0.30669 0.78348 0.0
C1217 C 0.88767 0.30182 0.76056 0.0
C1218 C 0.88351 0.28598 0.76357 0.0
C1219 C 0.86797 0.27465 0.77863 0.0
C1220 C 0.85674 0.27908 0.79201 0.0
C1221 C 0.86151 0.29511 0.79825 0.0
O1222 O 0.92409 0.42373 0.91619 0.0
O1223 O 0.91429 0.42092 0.81061 0.0
O1224 O 0.93546 0.40544 0.76701 0.0
O1225 O 0.93703 0.41375 0.66092 0.0
O1226 O 0.91817 0.38296 0.93329 0.0
C1227 C 0.96344 0.45068 0.88526 0.0
O1228 O 0.96076 0.4513 0.82056 0.0
O1229 O 0.95608 0.43781 0.91923 0.0
C1230 C 0.96462 0.40683 0.93646 0.0
H1231 H 0.93675 0.32207 0.78753 0.0
H1232 H 0.90781 0.30179 0.97182 0.0
H1233 H 0.92877 0.30396 0.89051 0.0
H1234 H 0.92766 0.37727 0.7784 0.0
H1235 H 0.92233 0.39103 0.57226 0.0
H1236 H 0.90172 0.34193 0.62541 0.0
H1237 H 0.89473 0.33984 0.06133 0.0
H1238 H 0.86133 0.33099 0.89783 0.0
H1239 H 0.85483 0.34581 0.09855 0.0
H1240 H 0.8601 0.34918 0.73226 0.0
H1241 H 0.87105 0.37599 0.78478 0.0
H1242 H 0.89463 0.38672 0.86294 0.0
H1243 H 0.89889 0.31016 0.73922 0.0
H1244 H 0.86442 0.26227 0.77617 0.0
H1245 H 0.85292 0.29851 0.81182 0.0
Cd1246 Cd 0.59415 0.52857 0.89885 0.0
C1247 C 0.57678 0.494 0.87739 0.0
C1248 C 0.68356 0.57232 0.96353 0.0
O1249 O 0.69145 0.57451 0.02191 0.0
Cd1250 Cd 0.5666 0.50524 0.72591 0.0
C1251 C 0.68449 0.58555 0.92388 0.0
C1252 C 0.68094 0.60627 0.83591 0.0
C1253 C 0.67363 0.59017 0.82177 0.0
N1254 N 0.67578 0.58096 0.86624 0.0
C1255 C 0.6922 0.60151 0.94154 0.0
C1256 C 0.69027 0.6119 0.89686 0.0
Co1257 Co 0.66434 0.55969 0.85004 0.0
C1258 C 0.66328 0.58131 0.76327 0.0
O1259 O 0.65957 0.58814 0.71371 0.0
C1260 C 0.64559 0.55511 0.71654 0.0
C1261 C 0.62974 0.54857 0.7339 0.0
C1262 C 0.61792 0.54009 0.68485 0.0
C1263 C 0.62216 0.53878 0.61632 0.0
C1264 C 0.63807 0.54551 0.59747 0.0
C1265 C 0.6498 0.55352 0.64818 0.0
C1266 C 0.60133 0.53169 0.70747 0.0
C1267 C 0.6678 0.54378 0.98133 0.0
C1268 C 0.66317 0.54406 0.05067 0.0
C1269 C 0.66838 0.53056 0.95816 0.0
C1270 C 0.66384 0.51768 0.00238 0.0
C1271 C 0.65903 0.51797 0.07076 0.0
C1272 C 0.65893 0.53133 0.09625 0.0
N1273 N 0.67339 0.55757 0.93793 0.0
N1274 N 0.65729 0.56538 0.76534 0.0
N1275 N 0.64574 0.55679 0.90045 0.0
C1276 C 0.64375 0.56896 0.93171 0.0
C1277 C 0.64616 0.57192 0.0033 0.0
C1278 C 0.63977 0.57822 0.89041 0.0
C1279 C 0.64533 0.58452 0.03363 0.0
H1280 H 0.64875 0.56444 0.03503 0.0
C1281 C 0.64192 0.59409 0.99098 0.0
C1282 C 0.63914 0.59104 0.91919 0.0
C1283 C 0.64823 0.58784 0.10944 0.0
H1284 H 0.63738 0.57556 0.83559 0.0
H1285 H 0.64142 0.60393 0.0137 0.0
C1286 C 0.63588 0.60141 0.87423 0.0
O1287 O 0.64773 0.60017 0.13787 0.0
O1288 O 0.65113 0.57949 0.14664 0.0
O1289 O 0.63356 0.5988 0.81169 0.0
O1290 O 0.63555 0.61387 0.90207 0.0
H1291 H 0.64962 0.60258 0.18711 0.0
H1292 H 0.6335 0.62081 0.87367 0.0
N1293 N 0.65275 0.53849 0.83328 0.0
C1294 C 0.65931 0.53244 0.79206 0.0
C1295 C 0.65072 0.51637 0.77665 0.0
C1296 C 0.63543 0.50748 0.80514 0.0
C1297 C 0.62908 0.51468 0.84798 0.0
C1298 C 0.63841 0.53077 0.86138 0.0
N1299 N 0.68108 0.55899 0.79714 0.0
C1300 C 0.6755 0.54408 0.77173 0.0
O1301 O 0.68416 0.54029 0.73301 0.0
C1302 C 0.63441 0.54111 0.90134 0.0
O1303 O 0.59935 0.5554 0.89279 0.0
O1304 O 0.5942 0.54467 0.99565 0.0
C1305 C 0.69722 0.57124 0.78792 0.0
C1306 C 0.70065 0.58502 0.75189 0.0
C1307 C 0.71621 0.59663 0.73941 0.0
C1308 C 0.72845 0.59419 0.75975 0.0
C1309 C 0.72547 0.5803 0.79354 0.0
C1310 C 0.70974 0.56884 0.80811 0.0
O1311 O 0.58402 0.50004 0.93393 0.0
O1312 O 0.57858 0.50364 0.82997 0.0
O1313 O 0.59805 0.53015 0.77206 0.0
O1314 O 0.59021 0.52444 0.6641 0.0
O1315 O 0.62097 0.53533 0.93891 0.0
C1316 C 0.55176 0.51494 0.86428 0.0
O1317 O 0.55022 0.51171 0.79904 0.0
O1318 O 0.56485 0.51949 0.8961 0.0
C1319 C 0.59717 0.55646 0.95749 0.0
H1320 H 0.67948 0.6142 0.80156 0.0
H1321 H 0.6992 0.60577 0.98854 0.0
H1322 H 0.69603 0.62429 0.90935 0.0
H1323 H 0.62658 0.55039 0.78554 0.0
H1324 H 0.61312 0.53228 0.57777 0.0
H1325 H 0.66211 0.55906 0.63405 0.0
H1326 H 0.66365 0.55459 0.07032 0.0
H1327 H 0.67293 0.53037 0.90724 0.0
H1328 H 0.65564 0.50782 0.10377 0.0
H1329 H 0.65561 0.51086 0.74423 0.0
H1330 H 0.6285 0.49504 0.79396 0.0
H1331 H 0.61733 0.50794 0.86915 0.0
H1332 H 0.69134 0.58647 0.73024 0.0
H1333 H 0.74042 0.60313 0.74732 0.0
H1334 H 0.7072 0.55802 0.83408 0.0
Cd1335 Cd 0.19597 0.26995 0.43095 0.0
C1336 C 0.16123 0.25056 0.4324 0.0
C1337 C 0.24025 0.22398 0.38101 0.0
O1338 O 0.24246 0.21757 0.32504 0.0
Cd1339 Cd 0.16552 0.26561 0.59007 0.0
C1340 C 0.25351 0.23637 0.42031 0.0
C1341 C 0.27447 0.25995 0.51045 0.0
C1342 C 0.25817 0.25281 0.51902 0.0
N1343 N 0.24887 0.24168 0.47384 0.0
C1344 C 0.26966 0.24299 0.40815 0.0
C1345 C 0.28018 0.25493 0.45402 0.0
Co1346 Co 0.22758 0.23205 0.48943 0.0
C1347 C 0.24926 0.25476 0.57612 0.0
O1348 O 0.25615 0.26504 0.62654 0.0
C1349 C 0.22285 0.24654 0.62112 0.0
C1350 C 0.21501 0.25451 0.60187 0.0
C1351 C 0.20484 0.25604 0.64831 0.0
C1352 C 0.20335 0.25029 0.71676 0.0
C1353 C 0.21174 0.24285 0.73785 0.0
C1354 C 0.22138 0.24085 0.68958 0.0
C1355 C 0.19492 0.26236 0.6222 0.0
C1356 C 0.21198 0.21253 0.35838 0.0
C1357 C 0.21303 0.21746 0.28839 0.0
C1358 C 0.19804 0.19944 0.38117 0.0
C1359 C 0.1852 0.1919 0.33614 0.0
C1360 C 0.18618 0.19708 0.26741 0.0
C1361 C 0.20024 0.20981 0.24207 0.0
N1362 N 0.2255 0.22018 0.40383 0.0
N1363 N 0.23327 0.24537 0.57223 0.0
N1364 N 0.22486 0.2474 0.43513 0.0
C1365 C 0.23715 0.26147 0.40381 0.0
C1366 C 0.24009 0.262 0.33219 0.0
C1367 C 0.24643 0.27469 0.44505 0.0
C1368 C 0.25271 0.27541 0.30178 0.0
H1369 H 0.23254 0.25195 0.30049 0.0
C1370 C 0.26234 0.28836 0.34441 0.0
C1371 C 0.2593 0.2881 0.41621 0.0
C1372 C 0.25599 0.27586 0.2259 0.0
H1373 H 0.24367 0.27445 0.49977 0.0
H1374 H 0.27221 0.29866 0.32165 0.0
C1375 C 0.26974 0.3017 0.46108 0.0
O1376 O 0.26821 0.28876 0.19728 0.0
O1377 O 0.24769 0.26458 0.18881 0.0
O1378 O 0.26715 0.30143 0.52363 0.0
O1379 O 0.28229 0.31442 0.43321 0.0
H1380 H 0.27057 0.2893 0.14798 0.0
H1381 H 0.28931 0.32336 0.46158 0.0
N1382 N 0.20635 0.22269 0.50547 0.0
C1383 C 0.20023 0.21061 0.54975 0.0
C1384 C 0.18416 0.20344 0.56503 0.0
C1385 C 0.17536 0.20958 0.5332 0.0
C1386 C 0.18264 0.22259 0.48734 0.0
C1387 C 0.19872 0.22908 0.4743 0.0
N1388 N 0.22666 0.21497 0.54655 0.0
C1389 C 0.21176 0.20619 0.57324 0.0
O1390 O 0.2078 0.19411 0.61474 0.0
C1391 C 0.20918 0.24303 0.43244 0.0
O1392 O 0.22126 0.29295 0.45397 0.0
O1393 O 0.21521 0.28723 0.34485 0.0
C1394 C 0.23814 0.20987 0.55088 0.0
C1395 C 0.2534 0.22013 0.57516 0.0
C1396 C 0.265 0.21584 0.57283 0.0
C1397 C 0.26075 0.20036 0.55586 0.0
C1398 C 0.24513 0.18931 0.54038 0.0
C1399 C 0.23395 0.19421 0.53479 0.0
O1400 O 0.16905 0.25315 0.37646 0.0
O1401 O 0.16915 0.25444 0.48791 0.0
O1402 O 0.19483 0.26511 0.55747 0.0
O1403 O 0.18519 0.2636 0.66159 0.0
O1404 O 0.20352 0.25046 0.39252 0.0
C1405 C 0.17702 0.29398 0.46294 0.0
O1406 O 0.17097 0.28935 0.52358 0.0
O1407 O 0.18433 0.28793 0.43219 0.0
C1408 C 0.22492 0.29642 0.39027 0.0
H1409 H 0.2825 0.26881 0.54653 0.0
H1410 H 0.27401 0.23908 0.36523 0.0
H1411 H 0.29273 0.26016 0.44632 0.0
H1412 H 0.21687 0.25953 0.55024 0.0
H1413 H 0.19558 0.25142 0.75349 0.0
H1414 H 0.22784 0.23506 0.70519 0.0
H1415 H 0.22407 0.22694 0.26933 0.0
H1416 H 0.19718 0.19472 0.43283 0.0
H1417 H 0.17595 0.19101 0.23421 0.0
H1418 H 0.17859 0.19344 0.59984 0.0
H1419 H 0.16293 0.20431 0.54421 0.0
H1420 H 0.17598 0.22746 0.46377 0.0
H1421 H 0.25627 0.23136 0.59658 0.0
H1422 H 0.26949 0.19669 0.55819 0.0
H1423 H 0.222 0.18579 0.51981 0.0
Cd1424 Cd 0.73185 0.92545 0.44857 0.0
C1425 C 0.75193 0.90596 0.48467 0.0
C1426 C 0.77995 0.01565 0.37991 0.0
O1427 O 0.78628 0.02372 0.32255 0.0
Cd1428 Cd 0.72181 0.90219 0.58971 0.0
C1429 C 0.768 0.01728 0.41908 0.0
C1430 C 0.7453 0.0163 0.51016 0.0
C1431 C 0.75216 0.00692 0.52047 0.0
N1432 N 0.76288 0.00796 0.47476 0.0
C1433 C 0.76166 0.02697 0.40507 0.0
C1434 C 0.75015 0.02638 0.45143 0.0
Co1435 Co 0.77217 0.99603 0.4926 0.0
C1436 C 0.75031 0.9966 0.57963 0.0
O1437 O 0.74026 0.99383 0.6305 0.0
C1438 C 0.75778 0.97812 0.62665 0.0
C1439 C 0.74805 0.96243 0.60987 0.0
C1440 C 0.74488 0.95059 0.65817 0.0
C1441 C 0.75129 0.95461 0.72543 0.0
C1442 C 0.76105 0.97051 0.74404 0.0
C1443 C 0.76422 0.98228 0.69392 0.0
C1444 C 0.73563 0.93421 0.63482 0.0
C1445 C 0.7916 0.99889 0.36222 0.0
C1446 C 0.78689 0.9947 0.2924 0.0
C1447 C 0.80517 0.99906 0.38587 0.0
C1448 C 0.81358 0.99469 0.34123 0.0
C1449 C 0.80877 0.99046 0.27209 0.0
C1450 C 0.79555 0.99082 0.24631 0.0
N1451 N 0.7836 0.00476 0.40515 0.0
N1452 N 0.75948 0.98975 0.57719 0.0
N1453 N 0.75616 0.97749 0.44235 0.0
C1454 C 0.74228 0.97592 0.40983 0.0
C1455 C 0.74171 0.9774 0.33747 0.0
C1456 C 0.72927 0.97307 0.45046 0.0
C1457 C 0.72849 0.97674 0.30552 0.0
H1458 H 0.7516 0.9791 0.30637 0.0
C1459 C 0.71572 0.97438 0.34731 0.0
C1460 C 0.716 0.97252 0.41992 0.0
C1461 C 0.72806 0.9787 0.22884 0.0
H1462 H 0.72952 0.97135 0.506 0.0
H1463 H 0.70553 0.97397 0.32326 0.0
C1464 C 0.70254 0.97023 0.46378 0.0
O1465 O 0.71542 0.9783 0.19876 0.0
O1466 O 0.73915 0.98072 0.19242 0.0
O1467 O 0.70287 0.96875 0.52704 0.0
O1468 O 0.68987 0.96986 0.43413 0.0
H1469 H 0.71491 0.9796 0.14892 0.0
H1470 H 0.68101 0.96844 0.46179 0.0
N1471 N 0.78118 0.9839 0.51085 0.0
C1472 C 0.79365 0.99014 0.55296 0.0
C1473 C 0.80073 0.98121 0.5692 0.0
C1474 C 0.79406 0.96589 0.54074 0.0
C1475 C 0.78063 0.95986 0.49722 0.0
C1476 C 0.77427 0.96952 0.48295 0.0
N1477 N 0.7898 0.01249 0.54594 0.0
C1478 C 0.79861 0.00644 0.57298 0.0
O1479 O 0.8111 0.01484 0.61191 0.0
C1480 C 0.76008 0.96581 0.4423 0.0
O1481 O 0.70792 0.92634 0.46302 0.0
O1482 O 0.71738 0.9299 0.35751 0.0
C1483 C 0.79493 0.02905 0.54859 0.0
C1484 C 0.78493 0.03419 0.57458 0.0
C1485 C 0.78907 0.05002 0.56976 0.0
C1486 C 0.80424 0.0611 0.54784 0.0
C1487 C 0.81518 0.05645 0.53083 0.0
C1488 C 0.81036 0.04037 0.5286 0.0
O1489 O 0.74909 0.91354 0.43799 0.0
O1490 O 0.74436 0.902 0.5419 0.0
O1491 O 0.73438 0.93128 0.57015 0.0
O1492 O 0.72906 0.92278 0.67669 0.0
O1493 O 0.75214 0.95224 0.40536 0.0
C1494 C 0.7023 0.88584 0.44676 0.0
O1495 O 0.69995 0.88685 0.51147 0.0
O1496 O 0.7142 0.89701 0.41593 0.0
C1497 C 0.70666 0.92878 0.39864 0.0
H1498 H 0.73678 0.01609 0.54658 0.0
H1499 H 0.76545 0.03475 0.36037 0.0
H1500 H 0.74515 0.03385 0.44232 0.0
H1501 H 0.7426 0.95945 0.55899 0.0
H1502 H 0.74867 0.94539 0.76309 0.0
H1503 H 0.77159 0.99459 0.70687 0.0
H1504 H 0.77667 0.99499 0.27334 0.0
H1505 H 0.80974 0.00322 0.43745 0.0
H1506 H 0.81579 0.98757 0.23833 0.0
H1507 H 0.81104 0.98586 0.60217 0.0
H1508 H 0.79926 0.95871 0.55251 0.0
H1509 H 0.7754 0.94808 0.47616 0.0
H1510 H 0.77402 0.02601 0.59902 0.0
H1511 H 0.80783 0.07349 0.54791 0.0
H1512 H 0.81861 0.03672 0.51241 0.0
Cd1513 Cd 0.07786 0.80836 0.42998 0.0
C1514 C 0.09192 0.84404 0.42592 0.0
C1515 C 0.98881 0.76368 0.3722 0.0
O1516 O 0.98061 0.76105 0.31445 0.0
Cd1517 Cd 0.10217 0.84112 0.57934 0.0
C1518 C 0.98834 0.75079 0.41295 0.0
C1519 C 0.99242 0.73076 0.5034 0.0
C1520 C 0.99988 0.74698 0.51485 0.0
N1521 N 0.99744 0.75583 0.46936 0.0
C1522 C 0.98053 0.7347 0.39779 0.0
C1523 C 0.98273 0.72466 0.44368 0.0
Co1524 Co 0.00862 0.77719 0.48318 0.0
C1525 C 0.01047 0.75629 0.572 0.0
O1526 O 0.01441 0.74986 0.62248 0.0
C1527 C 0.02792 0.78294 0.61587 0.0
C1528 C 0.04377 0.79081 0.59703 0.0
C1529 C 0.05542 0.80087 0.64403 0.0
C1530 C 0.0511 0.80202 0.71267 0.0
C1531 C 0.03524 0.79368 0.73334 0.0
C1532 C 0.02363 0.78436 0.68422 0.0
C1533 C 0.07164 0.81114 0.6186 0.0
C1534 C 0.004 0.79218 0.3517 0.0
C1535 C 0.00861 0.79182 0.28239 0.0
C1536 C 0.00318 0.8053 0.37427 0.0
C1537 C 0.0075 0.81805 0.32953 0.0
C1538 C 0.01235 0.81773 0.26129 0.0
C1539 C 0.01271 0.80445 0.23643 0.0
N1540 N 0.99888 0.77861 0.39614 0.0
N1541 N 0.01641 0.77219 0.56756 0.0
N1542 N 0.02699 0.78016 0.43073 0.0
C1543 C 0.02906 0.76798 0.40024 0.0
C1544 C 0.02634 0.76465 0.32903 0.0
C1545 C 0.03328 0.759 0.44209 0.0
C1546 C 0.027 0.75187 0.29972 0.0
H1547 H 0.02361 0.77196 0.29682 0.0
C1548 C 0.03055 0.7425 0.34303 0.0
C1549 C 0.0337 0.74597 0.41439 0.0
C1550 C 0.02374 0.74815 0.22433 0.0
H1551 H 0.036 0.76204 0.4965 0.0
H1552 H 0.03088 0.7325 0.32115 0.0
C1553 C 0.03708 0.73579 0.46005 0.0
O1554 O 0.02393 0.73557 0.19701 0.0
O1555 O 0.02084 0.75641 0.18651 0.0
O1556 O 0.03977 0.73878 0.52217 0.0
O1557 O 0.03704 0.72303 0.4334 0.0
H1558 H 0.02181 0.7329 0.14807 0.0
H1559 H 0.0391 0.71618 0.46232 0.0
N1560 N 0.01997 0.7985 0.49753 0.0
C1561 C 0.0135 0.80456 0.53918 0.0
C1562 C 0.02186 0.82075 0.55216 0.0
C1563 C 0.03682 0.82974 0.52069 0.0
C1564 C 0.04306 0.82252 0.47736 0.0
C1565 C 0.03401 0.8063 0.46671 0.0
N1566 N 0.99205 0.77782 0.53768 0.0
C1567 C 0.99755 0.79281 0.56203 0.0
O1568 O 0.98891 0.79662 0.60074 0.0
C1569 C 0.03799 0.79592 0.42699 0.0
O1570 O 0.07612 0.78338 0.4569 0.0
O1571 O 0.0757 0.78858 0.34713 0.0
C1572 C 0.97582 0.76566 0.54526 0.0
C1573 C 0.97208 0.75154 0.57898 0.0
C1574 C 0.95642 0.73978 0.58754 0.0
C1575 C 0.94436 0.74247 0.5667 0.0
C1576 C 0.94765 0.75677 0.536 0.0
C1577 C 0.9635 0.76831 0.52442 0.0
O1578 O 0.08996 0.83496 0.37505 0.0
O1579 O 0.0853 0.83756 0.48257 0.0
O1580 O 0.07486 0.81104 0.55456 0.0
O1581 O 0.08217 0.82158 0.6574 0.0
O1582 O 0.05127 0.80165 0.38843 0.0
C1583 C 0.12037 0.8287 0.46001 0.0
O1584 O 0.12137 0.83608 0.51652 0.0
O1585 O 0.10713 0.82022 0.42974 0.0
C1586 C 0.07565 0.77929 0.39364 0.0
H1587 H 0.99404 0.7231 0.53882 0.0
H1588 H 0.97318 0.73005 0.35194 0.0
H1589 H 0.97687 0.71217 0.43321 0.0
H1590 H 0.04704 0.78906 0.54547 0.0
H1591 H 0.05999 0.80964 0.74983 0.0
H1592 H 0.01136 0.77784 0.69949 0.0
H1593 H 0.00829 0.78133 0.26319 0.0
H1594 H 0.99866 0.80552 0.42526 0.0
H1595 H 0.01563 0.8278 0.22794 0.0
H1596 H 0.01702 0.82628 0.58477 0.0
H1597 H 0.04356 0.84228 0.52979 0.0
H1598 H 0.05452 0.82936 0.45355 0.0
H1599 H 0.98119 0.74984 0.60114 0.0
H1600 H 0.93231 0.73342 0.57673 0.0
H1601 H 0.96628 0.77937 0.50018 0.0
H1602 H 0.97321 0.40578 0.07135 0.0
H1603 H 0.06309 0.43711 0.97012 0.0
H1604 H 0.98965 0.41039 0.85906 0.0
H1605 H 0.04756 0.44506 0.16843 0.0
H1606 H 0.03548 0.4208 0.93432 0.0
H1607 H 0.99957 0.41315 0.11269 0.0
C1608 C 0.98228 0.40807 0.0334 0.0
C1609 C 0.97935 0.40789 0.96165 0.0
C1610 C 0.03814 0.42595 0.98599 0.0
C1611 C 0.0095 0.41636 0.00863 0.0
C1612 C 0.05384 0.43519 0.00638 0.0
C1613 C 0.05749 0.44258 0.07175 0.0
C1614 C 0.0261 0.42397 0.03177 0.0
C1615 C 0.04515 0.43976 0.11707 0.0
C1616 C 0.99734 0.41233 0.05706 0.0
C1617 C 0.99149 0.41072 0.91488 0.0
N1618 N 0.03 0.43076 0.09609 0.0
N1619 N 0.00612 0.41507 0.93917 0.0
H1620 H 0.59243 0.56203 0.09266 0.0
H1621 H 0.56874 0.62587 0.98131 0.0
H1622 H 0.59901 0.58137 0.88498 0.0
H1623 H 0.55621 0.60069 0.17659 0.0
H1624 H 0.58516 0.61423 0.9533 0.0
H1625 H 0.58494 0.58099 0.1325 0.0
C1626 C 0.59256 0.57045 0.05568 0.0
C1627 C 0.59601 0.56989 0.9851 0.0
C1628 C 0.57896 0.61141 0.00264 0.0
C1629 C 0.58725 0.59149 0.03009 0.0
C1630 C 0.56964 0.61807 0.01862 0.0
C1631 C 0.56091 0.61395 0.08067 0.0
C1632 C 0.5796 0.6007 0.04941 0.0
C1633 C 0.5625 0.60385 0.12745 0.0
C1634 C 0.58823 0.58124 0.07838 0.0
C1635 C 0.59621 0.58123 0.9397 0.0
N1636 N 0.57154 0.59748 0.11064 0.0
N1637 N 0.59162 0.5914 0.96271 0.0
H1638 H 0.41029 0.94544 -0.00023 0.0
H1639 H 0.42184 0.02053 0.87924 0.0
H1640 H 0.37424 0.94997 0.1075 0.0
H1641 H 0.44517 0.02543 0.07646 0.0
H1642 H 0.40316 0.99294 0.90838 0.0
H1643 H 0.42292 0.97326 0.96824 0.0
C1644 C 0.40491 0.9522 0.01652 0.0
C1645 C 0.39125 0.94538 0.05789 0.0
C1646 C 0.41218 1.00027 0.94559 0.0
C1647 C 0.40547 0.97698 0.01998 0.0
C1648 C 0.42281 0.01595 0.92927 0.0
C1649 C 0.43518 0.02522 0.97524 0.0
C1650 C 0.41404 0.99397 0.00797 0.0
C1651 C 0.43587 0.01869 0.03941 0.0
C1652 C 0.41208 0.96799 0.99792 0.0
C1653 C 0.38467 0.95472 0.07598 0.0
N1654 N 0.42562 0.00332 0.05333 0.0
N1655 N 0.39195 0.97017 0.05777 0.0
H1656 H 0.94412 0.56861 0.02381 0.0
H1657 H 0.03142 0.59225 0.91041 0.0
H1658 H 0.95702 0.55833 0.82397 0.0
H1659 H 0.0188 0.59781 0.11986 0.0
H1660 H 0.00525 0.5858 0.87086 0.0
H1661 H 0.97218 0.58486 0.05288 0.0
C1662 C 0.95288 0.57002 0.98573 0.0
C1663 C 0.94836 0.56193 0.92209 0.0
C1664 C 0.00825 0.58863 0.92535 0.0
C1665 C 0.98026 0.58036 0.95449 0.0
C1666 C 0.02323 0.59236 0.94791 0.0
C1667 C 0.02716 0.59518 0.01881 0.0
C1668 C 0.99708 0.58759 0.97412 0.0
C1669 C 0.01615 0.59542 0.06488 0.0
C1670 C 0.96885 0.57923 0.00228 0.0
C1671 C 0.96009 0.56413 0.87425 0.0
N1672 N 1.0015 0.59138 0.04198 0.0
N1673 N 0.97548 0.57301 0.89167 0.0
H1674 H 0.44162 0.39449 0.82264 0.0
H1675 H 0.40989 0.42403 0.1363 0.0
H1676 H 0.44268 0.38201 0.03725 0.0
H1677 H 0.40988 0.43656 0.92041 0.0
H1678 H 0.41717 0.40466 0.09999 0.0
H1679 H 0.42545 0.40592 0.85599 0.0
C1680 C 0.43824 0.39404 0.87679 0.0
C1681 C 0.44349 0.38748 0.92751 0.0
C1682 C 0.41533 0.41146 0.06049 0.0
C1683 C 0.42534 0.40079 0.96657 0.0
C1684 C 0.41113 0.4225 0.08113 0.0
C1685 C 0.40963 0.43217 0.0313 0.0
C1686 C 0.41803 0.4101 0.98954 0.0
C1687 C 0.41121 0.42957 0.96064 0.0
C1688 C 0.42904 0.40055 0.89591 0.0
C1689 C 0.4388 0.38702 0.99688 0.0
N1690 N 0.41554 0.41894 0.94195 0.0
N1691 N 0.43017 0.39384 0.0147 0.0
H1692 H 0.61762 0.04721 0.84016 0.0
H1693 H 0.57679 0.98611 0.15107 0.0
H1694 H 0.61653 0.06079 0.05268 0.0
H1695 H 0.57054 0.97363 0.93277 0.0
H1696 H 0.59688 0.01283 0.11978 0.0
H1697 H 0.60616 0.01982 0.87755 0.0
C1698 C 0.61538 0.04439 0.8951 0.0
C1699 C 0.61817 0.0561 0.94377 0.0
C1700 C 0.5913 0.00418 0.07883 0.0
C1701 C 0.60452 0.02491 0.98667 0.0
C1702 C 0.57985 0.9889 0.09659 0.0
C1703 C 0.57175 0.97773 0.0442 0.0
C1704 C 0.59471 0.00828 0.00823 0.0
C1705 C 0.5763 0.98197 0.97465 0.0
C1706 C 0.6087 0.02879 0.91638 0.0
C1707 C 0.61466 0.05198 0.01405 0.0
N1708 N 0.58736 0.99697 0.9586 0.0
N1709 N 0.60783 0.03663 0.03345 0.0
H1710 H 0.64946 0.73356 0.21446 0.0
H1711 H 0.72742 0.79399 0.30203 0.0
H1712 H 0.64647 0.75504 0.40609 0.0
H1713 H 0.71962 0.75992 0.46148 0.0
H1714 H 0.69939 0.77889 0.27165 0.0
H1715 H 0.67702 0.74202 0.2417 0.0
C1716 C 0.65445 0.73972 0.26294 0.0
C1717 C 0.6457 0.74375 0.30779 0.0
C1718 C 0.70398 0.77458 0.31216 0.0
C1719 C 0.67696 0.75325 0.33872 0.0
C1720 C 0.71987 0.78315 0.32967 0.0
C1721 C 0.72581 0.77808 0.38427 0.0
C1722 C 0.69399 0.76098 0.34987 0.0
C1723 C 0.71551 0.764 0.41854 0.0
C1724 C 0.67013 0.74452 0.27814 0.0
C1725 C 0.65278 0.75171 0.37001 0.0
N1726 N 0.69996 0.75602 0.40172 0.0
N1727 N 0.66811 0.75641 0.38325 0.0
H1728 H 0.24317 0.95639 0.46806 0.0
H1729 H 0.25294 0.90505 0.17108 0.0
H1730 H 0.21625 0.94235 0.27799 0.0
H1731 H 0.26727 0.90629 0.38506 0.0
H1732 H 0.24585 0.92497 0.1985 0.0
H1733 H 0.25847 0.94453 0.42622 0.0
C1734 C 0.24096 0.95134 0.41637 0.0
C1735 C 0.22877 0.95057 0.37567 0.0
C1736 C 0.25079 0.92107 0.23916 0.0
C1737 C 0.24563 0.93651 0.32854 0.0
C1738 C 0.25491 0.90975 0.22357 0.0
C1739 C 0.26046 0.90384 0.27629 0.0
C1740 C 0.2524 0.92664 0.30774 0.0
C1741 C 0.26278 0.91036 0.34326 0.0
C1742 C 0.24948 0.94438 0.39293 0.0
C1743 C 0.22575 0.9433 0.31025 0.0
N1744 N 0.2586 0.92135 0.35729 0.0
N1745 N 0.23407 0.93642 0.2888 0.0
H1746 H 0.09067 0.35066 0.19759 0.0
H1747 H 0.06122 0.2891 0.50916 0.0
H1748 H 0.10383 0.3629 0.41316 0.0
H1749 H 0.04799 0.27618 0.29468 0.0
H1750 H 0.07247 0.3168 0.47761 0.0
H1751 H 0.07068 0.3243 0.23424 0.0
C1752 C 0.08917 0.34789 0.25278 0.0
C1753 C 0.0992 0.35885 0.30235 0.0
C1754 C 0.06691 0.30795 0.43741 0.0
C1755 C 0.07644 0.3287 0.34452 0.0
C1756 C 0.06051 0.29219 0.45551 0.0
C1757 C 0.05385 0.28055 0.40416 0.0
C1758 C 0.06694 0.31207 0.36714 0.0
C1759 C 0.05309 0.28495 0.33546 0.0
C1760 C 0.07776 0.33282 0.27364 0.0
C1761 C 0.09658 0.35471 0.37309 0.0
N1762 N 0.05981 0.30044 0.3186 0.0
N1763 N 0.08562 0.33988 0.39198 0.0
H1764 H 0.68291 0.92865 0.47376 0.0
H1765 H 0.62423 0.89225 0.15787 0.0
H1766 H 0.69789 0.92814 0.26258 0.0
H1767 H 0.61022 0.90108 0.35804 0.0
H1768 H 0.6518 0.90879 0.19109 0.0
H1769 H 0.65709 0.92245 0.42966 0.0
C1770 C 0.68084 0.92748 0.41798 0.0
C1771 C 0.6924 0.92846 0.37188 0.0
C1772 C 0.64275 0.90734 0.22754 0.0
C1773 C 0.66285 0.92119 0.32117 0.0
C1774 C 0.62705 0.89786 0.20865 0.0
C1775 C 0.61508 0.89516 0.2559 0.0
C1776 C 0.64649 0.91389 0.29481 0.0
C1777 C 0.6192 0.90283 0.32054 0.0
C1778 C 0.6661 0.92396 0.39281 0.0
C1779 C 0.68921 0.92717 0.30009 0.0
N1780 N 0.6346 0.91163 0.33873 0.0
N1781 N 0.67462 0.92327 0.27703 0.0
H1782 H 0.10517 0.72463 0.16279 0.0
H1783 H 0.08103 0.76037 0.48065 0.0
H1784 H 0.11353 0.71848 0.37801 0.0
H1785 H 0.07338 0.76667 0.2641 0.0
H1786 H 0.08842 0.74099 0.44597 0.0
H1787 H 0.0892 0.73605 0.20023 0.0
C1788 C 0.10338 0.72551 0.21803 0.0
C1789 C 0.11056 0.72069 0.26761 0.0
C1790 C 0.08489 0.74643 0.4061 0.0
C1791 C 0.09274 0.73404 0.31108 0.0
C1792 C 0.08063 0.75747 0.42587 0.0
C1793 C 0.07695 0.76541 0.37495 0.0
C1794 C 0.08548 0.74334 0.33494 0.0
C1795 C 0.07645 0.76106 0.30493 0.0
C1796 C 0.09433 0.73204 0.23947 0.0
C1797 C 0.10808 0.72208 0.33852 0.0
N1798 N 0.0809 0.75048 0.2869 0.0
N1799 N 0.09952 0.72884 0.3583 0.0
H1800 H 0.28683 0.39568 0.38202 0.0
H1801 H 0.23733 0.30629 0.25979 0.0
H1802 H 0.27887 0.38083 0.16726 0.0
H1803 H 0.24415 0.32088 0.47546 0.0
H1804 H 0.25691 0.33305 0.22594 0.0
H1805 H 0.27528 0.3681 0.41833 0.0
C1806 C 0.28292 0.38656 0.3427 0.0
C1807 C 0.28369 0.39031 0.27186 0.0
C1808 C 0.25427 0.33036 0.28077 0.0
C1809 C 0.27043 0.35896 0.31224 0.0
C1810 C 0.24311 0.31508 0.30008 0.0
C1811 C 0.23884 0.31147 0.37031 0.0
C1812 C 0.26107 0.34214 0.33204 0.0
C1813 C 0.24691 0.32322 0.42053 0.0
C1814 C 0.27631 0.37087 0.3632 0.0
C1815 C 0.27839 0.37824 0.22245 0.0
N1816 N 0.25743 0.3381 0.40032 0.0
N1817 N 0.27186 0.36306 0.24357 0.0
H1818 H 0.31979 0.07324 0.53822 0.0
H1819 H 0.3819 0.10993 0.84594 0.0
H1820 H 0.30787 0.07678 0.7516 0.0
H1821 H 0.3945 0.10428 0.637 0.0
H1822 H 0.35416 0.09372 0.81574 0.0
H1823 H 0.34627 0.08018 0.57607 0.0
C1824 C 0.32265 0.0752 0.59324 0.0
C1825 C 0.31172 0.07479 0.64169 0.0
C1826 C 0.36293 0.09582 0.77647 0.0
C1827 C 0.34203 0.08288 0.68516 0.0
C1828 C 0.37874 0.10511 0.79373 0.0
C1829 C 0.39037 0.10858 0.74346 0.0
C1830 C 0.35868 0.0902 0.70793 0.0
C1831 C 0.38579 0.10189 0.67694 0.0
C1832 C 0.33779 0.07919 0.61477 0.0
C1833 C 0.31601 0.07726 0.71229 0.0
N1834 N 0.37024 0.09322 0.66061 0.0
N1835 N 0.33089 0.08143 0.73172 0.0
H1836 H 0.89146 0.2693 0.84996 0.0
H1837 H 0.93315 0.24824 0.54955 0.0
H1838 H 0.90193 0.29143 0.64771 0.0
H1839 H 0.92554 0.22919 0.75808 0.0
H1840 H 0.92638 0.2677 0.58981 0.0
H1841 H 0.90809 0.25803 0.82314 0.0
C1842 C 0.89742 0.27186 0.80002 0.0
C1843 C 0.89517 0.28101 0.75037 0.0
C1844 C 0.92645 0.25944 0.62706 0.0
C1845 C 0.91405 0.26807 0.71874 0.0
C1846 C 0.93037 0.24834 0.60416 0.0
C1847 C 0.92958 0.23686 0.65027 0.0
C1848 C 0.92157 0.25892 0.69636 0.0
C1849 C 0.92603 0.23764 0.72047 0.0
C1850 C 0.90695 0.2655 0.78475 0.0
C1851 C 0.90332 0.28429 0.68699 0.0
N1852 N 0.92189 0.2483 0.7411 0.0
N1853 N 0.91221 0.27757 0.67237 0.0
H1854 H 0.71318 0.62033 0.79445 0.0
H1855 H 0.76629 0.68053 0.49799 0.0
H1856 H 0.72921 0.60718 0.61134 0.0
H1857 H 0.76134 0.69441 0.70581 0.0
H1858 H 0.74647 0.65345 0.52545 0.0
H1859 H 0.72443 0.64711 0.74866 0.0
C1860 C 0.71855 0.623 0.74338 0.0
C1861 C 0.72007 0.61162 0.70591 0.0
C1862 C 0.74953 0.66247 0.56463 0.0
C1863 C 0.73342 0.64216 0.65426 0.0
C1864 C 0.76079 0.67794 0.54896 0.0
C1865 C 0.76567 0.68965 0.60028 0.0
C1866 C 0.74302 0.65873 0.63185 0.0
C1867 C 0.75811 0.68566 0.66526 0.0
C1868 C 0.72516 0.63829 0.71767 0.0
C1869 C 0.72772 0.61569 0.64123 0.0
N1870 N 0.74726 0.67047 0.67951 0.0
N1871 N 0.73424 0.6307 0.61759 0.0
H1872 H 0.36506 0.25923 0.57719 0.0
H1873 H 0.27729 0.23438 0.68902 0.0
H1874 H 0.35193 0.26407 0.78671 0.0
H1875 H 0.29034 0.22325 0.4915 0.0
H1876 H 0.3053 0.2508 0.7182 0.0
H1877 H 0.33871 0.25214 0.53738 0.0
C1878 C 0.35672 0.25906 0.61464 0.0
C1879 C 0.36056 0.26186 0.68563 0.0
C1880 C 0.30202 0.24494 0.66808 0.0
C1881 C 0.33031 0.25353 0.64065 0.0
C1882 C 0.28608 0.23563 0.65147 0.0
C1883 C 0.28162 0.22729 0.58841 0.0
C1884 C 0.31348 0.24597 0.62088 0.0
C1885 C 0.29338 0.22927 0.54129 0.0
C1886 C 0.34164 0.25495 0.59194 0.0
C1887 C 0.34936 0.26172 0.73164 0.0
N1888 N 0.30876 0.2383 0.55869 0.0
N1889 N 0.33463 0.25733 0.70859 0.0
H1890 H 0.74293 0.10423 0.57742 0.0
H1891 H 0.77176 0.04434 0.68975 0.0
H1892 H 0.7428 0.08988 0.79047 0.0
H1893 H 0.78062 0.06735 0.48975 0.0
H1894 H 0.75527 0.0557 0.72155 0.0
H1895 H 0.75025 0.08508 0.5388 0.0
C1896 C 0.74421 0.09688 0.61602 0.0
C1897 C 0.74268 0.09894 0.68738 0.0
C1898 C 0.76067 0.05808 0.6704 0.0
C1899 C 0.75122 0.07713 0.64363 0.0
C1900 C 0.77003 0.0516 0.6523 0.0
C1901 C 0.77774 0.0552 0.58764 0.0
C1902 C 0.75893 0.06806 0.62307 0.0
C1903 C 0.77511 0.06459 0.54071 0.0
C1904 C 0.74843 0.08598 0.59396 0.0
C1905 C 0.74417 0.08889 0.73498 0.0
N1906 N 0.76602 0.07078 0.55951 0.0
N1907 N 0.74864 0.07858 0.71236 0.0
H1908 H 0.95553 0.71518 0.52063 0.0
H1909 H 0.90709 0.65539 0.8271 0.0
H1910 H 0.94647 0.72934 0.71956 0.0
H1911 H 0.90823 0.64132 0.61483 0.0
H1912 H 0.92686 0.68231 0.79708 0.0
H1913 H 0.94375 0.68809 0.56317 0.0
C1914 C 0.95156 0.7126 0.57415 0.0
C1915 C 0.95224 0.72439 0.61735 0.0
C1916 C 0.92296 0.6733 0.75733 0.0
C1917 C 0.93818 0.69352 0.66559 0.0
C1918 C 0.91172 0.6579 0.77445 0.0
C1919 C 0.9058 0.64617 0.72296 0.0
C1920 C 0.92839 0.67696 0.68834 0.0
C1921 C 0.91228 0.65008 0.65577 0.0
C1922 C 0.94464 0.69716 0.59817 0.0
C1923 C 0.94632 0.7205 0.68532 0.0
N1924 N 0.92312 0.6652 0.64017 0.0
N1925 N 0.9394 0.70533 0.70729 0.0
H1926 H 0.26418 0.42608 0.09905 0.0
H1927 H 0.19682 0.42322 0.34185 0.0
H1928 H 0.26909 0.43317 0.32139 0.0
H1929 H 0.19586 0.42499 0.11705 0.0
H1930 H 0.2241 0.42878 0.33568 0.0
H1931 H 0.23998 0.42765 0.10336 0.0
C1932 C 0.26035 0.42841 0.14836 0.0
C1933 C 0.2686 0.42967 0.20984 0.0
C1934 C 0.21794 0.42807 0.28771 0.0
C1935 C 0.24082 0.43098 0.21594 0.0
C1936 C 0.20238 0.4249 0.29131 0.0
C1937 C 0.19394 0.42328 0.22986 0.0
C1938 C 0.22506 0.42955 0.2222 0.0
C1939 C 0.20176 0.42569 0.16573 0.0
C1940 C 0.24651 0.4292 0.15108 0.0
C1941 C 0.26304 0.43231 0.27287 0.0
N1942 N 0.21678 0.42852 0.16353 0.0
N1943 N 0.24941 0.4327 0.27448 0.0
H1944 H 0.57704 0.83988 0.32432 0.0
H1945 H 0.5782 0.77079 0.11038 0.0
H1946 H 0.5729 0.83597 0.10058 0.0
H1947 H 0.58106 0.77435 0.33484 0.0
H1948 H 0.5733 0.79281 0.10624 0.0
H1949 H 0.57532 0.8142 0.32983 0.0
C1950 C 0.57538 0.83336 0.27644 0.0
C1951 C 0.57498 0.83991 0.21198 0.0
C1952 C 0.57487 0.78873 0.15648 0.0
C1953 C 0.57342 0.81068 0.21745 0.0
C1954 C 0.57773 0.77617 0.15893 0.0
C1955 C 0.5803 0.77087 0.22306 0.0
C1956 C 0.57462 0.79615 0.21864 0.0
C1957 C 0.57923 0.7781 0.28427 0.0
C1958 C 0.5745 0.81876 0.2795 0.0
C1959 C 0.57309 0.8312 0.15127 0.0
N1960 N 0.57664 0.79047 0.28049 0.0
N1961 N 0.57254 0.81707 0.15541 0.0
H1962 H 0.17212 0.7287 0.2894 0.0
H1963 H 0.23117 0.80963 0.10169 0.0
H1964 H 0.16051 0.74521 0.10281 0.0
H1965 H 0.23098 0.80401 0.32508 0.0
H1966 H 0.20948 0.78275 0.09159 0.0
H1967 H 0.19796 0.75293 0.29186 0.0
C1968 C 0.17526 0.73722 0.24777 0.0
C1969 C 0.16433 0.735 0.19545 0.0
C1970 C 0.21425 0.78736 0.14277 0.0
C1971 C 0.19356 0.76258 0.19833 0.0
C1972 C 0.22657 0.80276 0.1488 0.0
C1973 C 0.23258 0.8093 0.21466 0.0
C1974 C 0.20799 0.77821 0.20288 0.0
C1975 C 0.22654 0.79953 0.27342 0.0
C1976 C 0.18986 0.75106 0.24968 0.0
C1977 C 0.16872 0.74648 0.14353 0.0
N1978 N 0.21446 0.78446 0.26624 0.0
N1979 N 0.183 0.75981 0.14633 0.0
H1980 H 0.80121 0.55724 0.82092 0.0
H1981 H 0.75418 0.60146 0.84735 0.0
H1982 H 0.81604 0.6001 0.7056 0.0
H1983 H 0.728 0.5539 0.77014 0.0
H1984 H 0.7784 0.60028 0.83815 0.0
H1985 H 0.77523 0.5549 0.83841 0.0
C1986 C 0.7989 0.56602 0.79855 0.0
C1987 C 0.81069 0.57881 0.7612 0.0
C1988 C 0.76729 0.59004 0.82431 0.0
C1989 C 0.7815 0.57653 0.78366 0.0
C1990 C 0.75346 0.59065 0.82971 0.0
C1991 C 0.73906 0.5779 0.80761 0.0
C1992 C 0.76672 0.57645 0.79861 0.0
C1993 C 0.73883 0.56403 0.78724 0.0
C1994 C 0.78417 0.56468 0.80875 0.0
C1995 C 0.80723 0.58999 0.73401 0.0
N1996 N 0.75253 0.56369 0.78259 0.0
N1997 N 0.79303 0.58874 0.7469 0.0
H1998 H 0.43229 0.23331 0.68882 0.0
H1999 H 0.41552 0.15728 0.90344 0.0
H2000 H 0.41446 0.22385 0.89953 0.0
H2001 H 0.44467 0.17191 0.71974 0.0
H2002 H 0.4165 0.18263 0.90551 0.0
H2003 H 0.43835 0.21192 0.69968 0.0
C2004 C 0.4297 0.22682 0.73733 0.0
C2005 C 0.42251 0.23019 0.79277 0.0
C2006 C 0.42299 0.1805 0.86546 0.0
C2007 C 0.42932 0.20574 0.80546 0.0
C2008 C 0.42251 0.16607 0.86473 0.0
C2009 C 0.43014 0.16263 0.81178 0.0
C2010 C 0.43084 0.19145 0.81176 0.0
C2011 C 0.4388 0.17426 0.7619 0.0
C2012 C 0.4332 0.21465 0.7436 0.0
C2013 C 0.41963 0.22152 0.85475 0.0
N2014 N 0.4387 0.18809 0.76233 0.0
N2015 N 0.42285 0.20963 0.85904 0.0
H2016 H 0.77662 0.1943 0.65233 0.0
H2017 H 0.83703 0.26341 0.90128 0.0
H2018 H 0.76951 0.19537 0.87397 0.0
H2019 H 0.83919 0.26619 0.67696 0.0
H2020 H 0.81129 0.23924 0.89271 0.0
H2021 H 0.79871 0.22134 0.65933 0.0
C2022 C 0.77962 0.20026 0.70229 0.0
C2023 C 0.77141 0.19246 0.76284 0.0
C2024 C 0.81724 0.2453 0.84532 0.0
C2025 C 0.79668 0.22332 0.77149 0.0
C2026 C 0.83183 0.25912 0.85039 0.0
C2027 C 0.84001 0.26677 0.78974 0.0
C2028 C 0.81102 0.23903 0.77908 0.0
C2029 C 0.83306 0.26064 0.72483 0.0
C2030 C 0.79223 0.21568 0.70637 0.0
C2031 C 0.77577 0.20078 0.82622 0.0
N2032 N 0.81905 0.24704 0.72113 0.0
N2033 N 0.78818 0.21566 0.82903 0.0
H2034 H 0.85557 0.7348 0.61814 0.0
H2035 H 0.94558 0.7833 0.56279 0.0
H2036 H 0.87235 0.77961 0.51695 0.0
H2037 H 0.91895 0.73631 0.47951 0.0
H2038 H 0.92112 0.78451 0.5684 0.0
H2039 H 0.88125 0.73696 0.59758 0.0
C2040 C 0.86476 0.74523 0.59298 0.0
C2041 C 0.8619 0.75706 0.56926 0.0
C2042 C 0.92079 0.77407 0.548 0.0
C2043 C 0.89121 0.75968 0.54662 0.0
C2044 C 0.93472 0.77341 0.54411 0.0
C2045 C 0.93427 0.75952 0.52226 0.0
C2046 C 0.90642 0.76066 0.53134 0.0
C2047 C 0.91981 0.74706 0.49887 0.0
C2048 C 0.87931 0.74639 0.58074 0.0
C2049 C 0.87419 0.77028 0.53614 0.0
N2050 N 0.90642 0.74776 0.5058 0.0
N2051 N 0.88842 0.77133 0.52618 0.0
H2052 H 0.24716 0.10739 0.6729 0.0
H2053 H 0.246 0.17247 0.42871 0.0
H2054 H 0.24599 0.10473 0.4481 0.0
H2055 H 0.23572 0.16894 0.64849 0.0
H2056 H 0.24464 0.14683 0.43363 0.0
H2057 H 0.24173 0.12919 0.66556 0.0
C2058 C 0.24565 0.1113 0.6221 0.0
C2059 C 0.24737 0.10444 0.56102 0.0
C2060 C 0.24234 0.15147 0.48057 0.0
C2061 C 0.24125 0.12939 0.55207 0.0
C2062 C 0.24299 0.16602 0.47746 0.0
C2063 C 0.24071 0.17258 0.53803 0.0
C2064 C 0.23976 0.14368 0.54509 0.0
C2065 C 0.23729 0.16406 0.60054 0.0
C2066 C 0.24256 0.12374 0.61786 0.0
C2067 C 0.2452 0.10993 0.49654 0.0
N2068 N 0.2371 0.15013 0.60271 0.0
N2069 N 0.24244 0.12216 0.49374 0.0
H2070 H 0.89833 0.13835 0.66088 0.0
H2071 H 0.82837 0.07775 0.42548 0.0
H2072 H 0.89793 0.14337 0.43732 0.0
H2073 H 0.83909 0.06377 0.62152 0.0
H2074 H 0.85409 0.10186 0.42827 0.0
H2075 H 0.87692 0.11096 0.64934 0.0
C2076 C 0.89385 0.13368 0.60945 0.0
C2077 C 0.89965 0.1433 0.55017 0.0
C2078 C 0.851 0.09337 0.46996 0.0
C2079 C 0.8752 0.11215 0.53665 0.0
C2080 C 0.8364 0.0796 0.468 0.0
C2081 C 0.83181 0.06876 0.52282 0.0
C2082 C 0.86086 0.09652 0.52825 0.0
C2083 C 0.84239 0.0718 0.57781 0.0
C2084 C 0.88167 0.11806 0.60285 0.0
C2085 C 0.8935 0.13658 0.48471 0.0
N2086 N 0.85634 0.08555 0.57984 0.0
N2087 N 0.88149 0.12155 0.47981 0.0
H2088 H 0.39682 0.89257 0.03768 0.0
H2089 H 0.47729 0.91414 0.23084 0.0
H2090 H 0.41025 0.91488 0.23895 0.0
H2091 H 0.47116 0.90761 0.00805 0.0
H2092 H 0.45 0.90762 0.24199 0.0
H2093 H 0.42101 0.89096 0.035 0.0
C2094 C 0.4046 0.89657 0.08244 0.0
C2095 C 0.40153 0.90366 0.13907 0.0
C2096 C 0.45456 0.90749 0.19069 0.0
C2097 C 0.42926 0.90225 0.1357 0.0
C2098 C 0.4702 0.9113 0.1841 0.0
C2099 C 0.47667 0.91184 0.11811 0.0
C2100 C 0.44518 0.90406 0.13092 0.0
C2101 C 0.46671 0.90752 0.0598 0.0
C2102 C 0.41847 0.89584 0.08048 0.0
C2103 C 0.41214 0.90911 0.19494 0.0
N2104 N 0.45146 0.90396 0.06747 0.0
N2105 N 0.42559 0.90838 0.19168 0.0
H2106 H 0.1091 0.50344 0.03562 0.0
H2107 H 0.08807 0.56241 0.23176 0.0
H2108 H 0.08617 0.49392 0.23568 0.0
H2109 H 0.094 0.56301 0.0085 0.0
H2110 H 0.09382 0.54108 0.24085 0.0
H2111 H 0.11023 0.52903 0.03297 0.0
C2112 C 0.10479 0.50701 0.07999 0.0
C2113 C 0.0977 0.49674 0.13637 0.0
C2114 C 0.09395 0.54591 0.18987 0.0
C2115 C 0.0987 0.52569 0.13323 0.0
C2116 C 0.09058 0.55807 0.18447 0.0
C2117 C 0.09011 0.56425 0.11898 0.0
C2118 C 0.09707 0.53992 0.12944 0.0
C2119 C 0.09403 0.55847 0.05992 0.0
C2120 C 0.10527 0.52148 0.07808 0.0
C2121 C 0.09189 0.50164 0.19178 0.0
N2122 N 0.09723 0.54651 0.06646 0.0
N2123 N 0.09247 0.51575 0.18874 0.0
H2124 H 0.43998 0.53061 0.0008 0.0
H2125 H 0.50863 0.59335 0.23933 0.0
H2126 H 0.44016 0.52678 0.22505 0.0
H2127 H 0.50059 0.60443 0.03138 0.0
H2128 H 0.48288 0.56927 0.23632 0.0
H2129 H 0.46149 0.55798 0.01005 0.0
C2130 C 0.44444 0.53554 0.0519 0.0
C2131 C 0.43852 0.52627 0.11209 0.0
C2132 C 0.48655 0.57712 0.19183 0.0
C2133 C 0.46311 0.55743 0.1231 0.0
C2134 C 0.50118 0.59089 0.19392 0.0
C2135 C 0.50652 0.60089 0.13598 0.0
C2136 C 0.47744 0.57313 0.13055 0.0
C2137 C 0.49668 0.59706 0.07745 0.0
C2138 C 0.4567 0.55115 0.05721 0.0
C2139 C 0.44465 0.53331 0.17705 0.0
N2140 N 0.4827 0.58334 0.07571 0.0
N2141 N 0.45671 0.54835 0.18075 0.0
H2142 H 0.53776 0.1125 0.84794 0.0
H2143 H 0.58506 0.06849 0.80795 0.0
H2144 H 0.52166 0.06747 0.94553 0.0
H2145 H 0.61031 0.11474 0.89979 0.0
H2146 H 0.56073 0.0695 0.81597 0.0
H2147 H 0.56387 0.11502 0.83109 0.0
C2148 C 0.53983 0.10327 0.8666 0.0
C2149 C 0.52772 0.08987 0.89917 0.0
C2150 C 0.57167 0.0795 0.8333 0.0
C2151 C 0.55697 0.09232 0.87686 0.0
C2152 C 0.58556 0.07899 0.8287 0.0
C2153 C 0.59972 0.09137 0.85519 0.0
C2154 C 0.57193 0.09266 0.86264 0.0
C2155 C 0.59968 0.10488 0.87926 0.0
C2156 C 0.55462 0.1047 0.8567 0.0
C2157 C 0.53078 0.07807 0.92118 0.0
N2158 N 0.58592 0.10514 0.88306 0.0
N2159 N 0.54505 0.07944 0.90857 0.0
H2160 H 0.88938 0.42555 0.81885 0.0
H2161 H 0.92929 0.51308 0.79658 0.0
H2162 H 0.92914 0.45139 0.95537 0.0
H2163 H 0.88723 0.49681 0.92025 0.0
H2164 H 0.92666 0.48703 0.80657 0.0
H2165 H 0.88535 0.44836 0.81581 0.0
C2166 C 0.89692 0.43581 0.85001 0.0
C2167 C 0.90957 0.43657 0.88772 0.0
C2168 C 0.9179 0.48917 0.83041 0.0
C2169 C 0.90527 0.46258 0.88261 0.0
C2170 C 0.91934 0.50396 0.82474 0.0
C2171 C 0.90863 0.50723 0.85882 0.0
C2172 C 0.90552 0.47745 0.86918 0.0
C2173 C 0.89576 0.4948 0.89329 0.0
C2174 C 0.89463 0.44876 0.84795 0.0
C2175 C 0.91914 0.45022 0.92636 0.0
N2176 N 0.89462 0.48041 0.89834 0.0
N2177 N 0.91704 0.46285 0.92133 0.0
H2178 H 0.5601 0.47913 0.76076 0.0
H2179 H 0.50678 0.39551 0.94172 0.0
H2180 H 0.56659 0.47012 0.97511 0.0
H2181 H 0.49192 0.41255 0.76712 0.0
H2182 H 0.53234 0.42005 0.94054 0.0
H2183 H 0.53871 0.45219 0.74981 0.0
C2184 C 0.55707 0.4715 0.80569 0.0
C2185 C 0.56495 0.47708 0.86958 0.0
C2186 C 0.52359 0.41826 0.90168 0.0
C2187 C 0.5405 0.4459 0.85664 0.0
C2188 C 0.50912 0.40422 0.90177 0.0
C2189 C 0.49733 0.40205 0.85417 0.0
C2190 C 0.52627 0.43006 0.85314 0.0
C2191 C 0.50076 0.41378 0.80436 0.0
C2192 C 0.54486 0.45605 0.79916 0.0
C2193 C 0.56071 0.46639 0.92518 0.0
N2194 N 0.51488 0.42731 0.80533 0.0
N2195 N 0.54868 0.45131 0.9176 0.0
H2196 H 0.14147 0.24134 0.54424 0.0
H2197 H 0.07222 0.24397 0.33596 0.0
H2198 H 0.14288 0.25056 0.32345 0.0
H2199 H 0.07209 0.23883 0.55918 0.0
H2200 H 0.09637 0.24263 0.32885 0.0
H2201 H 0.11476 0.23706 0.54914 0.0
C2202 C 0.13615 0.24247 0.49666 0.0
C2203 C 0.14455 0.24659 0.43348 0.0
C2204 C 0.091 0.24156 0.3794 0.0
C2205 C 0.1138 0.24149 0.43869 0.0
C2206 C 0.07716 0.2422 0.38337 0.0
C2207 C 0.07018 0.24141 0.44817 0.0
C2208 C 0.09805 0.24025 0.44084 0.0
C2209 C 0.07708 0.23933 0.50824 0.0
C2210 C 0.12085 0.23994 0.49954 0.0
C2211 C 0.1369 0.24749 0.37331 0.0
N2212 N 0.09075 0.23897 0.50322 0.0
N2213 N 0.12201 0.24508 0.37752 0.0
H2214 H 0.77254 0.83441 0.56092 0.0
H2215 H 0.75684 0.89565 0.35927 0.0
H2216 H 0.76416 0.83293 0.33959 0.0
H2217 H 0.76888 0.89953 0.5776 0.0
H2218 H 0.76541 0.87629 0.34557 0.0
H2219 H 0.77664 0.86123 0.56415 0.0
C2220 C 0.77196 0.83991 0.51284 0.0
C2221 C 0.76782 0.83148 0.45011 0.0
C2222 C 0.76657 0.88167 0.39617 0.0
C2223 C 0.7723 0.86192 0.45309 0.0
C2224 C 0.76184 0.89287 0.40372 0.0
C2225 C 0.76188 0.89896 0.4699 0.0
C2226 C 0.77126 0.87651 0.45532 0.0
C2227 C 0.76838 0.89486 0.52588 0.0
C2228 C 0.77425 0.85517 0.51456 0.0
C2229 C 0.76713 0.83903 0.38917 0.0
N2230 N 0.77249 0.88365 0.5177 0.0
N2231 N 0.76912 0.85372 0.3923 0.0
H2232 H 0.09322 0.86955 0.48741 0.0
H2233 H 0.18437 0.91717 0.51658 0.0
H2234 H 0.12158 0.85489 0.37375 0.0
H2235 H 0.16297 0.94289 0.43362 0.0
H2236 H 0.15903 0.89288 0.50792 0.0
H2237 H 0.11673 0.89562 0.50485 0.0
C2238 C 0.10436 0.87191 0.46543 0.0
C2239 C 0.10549 0.86017 0.42842 0.0
C2240 C 0.15988 0.90391 0.49276 0.0
C2241 C 0.13225 0.88945 0.45084 0.0
C2242 C 0.17427 0.91778 0.49784 0.0
C2243 C 0.17591 0.93206 0.47396 0.0
C2244 C 0.14687 0.90432 0.46559 0.0
C2245 C 0.16228 0.93215 0.45213 0.0
C2246 C 0.11768 0.8867 0.47557 0.0
C2247 C 0.12018 0.86368 0.40178 0.0
N2248 N 0.14827 0.91841 0.4478 0.0
N2249 N 0.13307 0.87794 0.41461 0.0
H2250 H 0.17362 0.35686 0.15165 0.0
H2251 H 0.16266 0.31016 0.51066 0.0
H2252 H 0.1507 0.36217 0.33331 0.0
H2253 H 0.18642 0.30573 0.3301 0.0
H2254 H 0.15817 0.32915 0.44685 0.0
H2255 H 0.17801 0.33787 0.21559 0.0
C2256 C 0.16941 0.35399 0.20484 0.0
C2257 C 0.16174 0.36121 0.23683 0.0
C2258 C 0.1644 0.32405 0.4212 0.0
C2259 C 0.16689 0.33938 0.31101 0.0
C2260 C 0.16701 0.31321 0.45775 0.0
C2261 C 0.17497 0.30626 0.42602 0.0
C2262 C 0.1697 0.32804 0.35204 0.0
C2263 C 0.18027 0.31074 0.35706 0.0
C2264 C 0.17199 0.34314 0.24149 0.0
C2265 C 0.15663 0.35695 0.30616 0.0
N2266 N 0.17752 0.32127 0.32253 0.0
N2267 N 0.15933 0.34638 0.34079 0.0
H2268 H 0.67527 0.86022 0.49444 0.0
H2269 H 0.65534 0.81191 0.13645 0.0
H2270 H 0.70498 0.87748 0.31225 0.0
H2271 H 0.63148 0.79178 0.33048 0.0
H2272 H 0.67344 0.83613 0.19866 0.0
H2273 H 0.65855 0.83552 0.43354 0.0
C2274 C 0.67828 0.85887 0.44153 0.0
C2275 C 0.69159 0.87106 0.40853 0.0
C2276 C 0.66429 0.8264 0.22772 0.0
C2277 C 0.67241 0.84258 0.33831 0.0
C2278 C 0.65396 0.81257 0.19222 0.0
C2279 C 0.64187 0.7998 0.22827 0.0
C2280 C 0.66233 0.82765 0.29966 0.0
C2281 C 0.6407 0.80128 0.30064 0.0
C2282 C 0.66873 0.84469 0.40685 0.0
C2283 C 0.69482 0.86851 0.33979 0.0
N2284 N 0.65066 0.81498 0.33373 0.0
N2285 N 0.68531 0.85459 0.30704 0.0
H2286 H 0.18652 0.82771 0.16268 0.0
H2287 H 0.15128 0.84748 0.50081 0.0
H2288 H 0.21556 0.85628 0.33276 0.0
H2289 H 0.12284 0.81445 0.34112 0.0
H2290 H 0.17495 0.85142 0.44001 0.0
H2291 H 0.16322 0.82354 0.22633 0.0
C2292 C 0.18805 0.83321 0.21325 0.0
C2293 C 0.20313 0.84242 0.24205 0.0
C2294 C 0.16353 0.84326 0.4185 0.0
C2295 C 0.17626 0.83761 0.31588 0.0
C2296 C 0.14997 0.84096 0.45332 0.0
C2297 C 0.13494 0.83059 0.42631 0.0
C2298 C 0.16213 0.83519 0.35588 0.0
C2299 C 0.1341 0.82258 0.36418 0.0
C2300 C 0.17467 0.83075 0.24983 0.0
C2301 C 0.20422 0.84909 0.3083 0.0
N2302 N 0.14744 0.82508 0.33118 0.0
N2303 N 0.191 0.84659 0.34278 0.0
H2304 H 0.84546 0.69614 0.50396 0.0
H2305 H 0.82433 0.63804 0.83286 0.0
H2306 H 0.81491 0.69344 0.67179 0.0
H2307 H 0.85561 0.64148 0.66693 0.0
H2308 H 0.82062 0.65815 0.77455 0.0
H2309 H 0.84899 0.67591 0.56195 0.0
C2310 C 0.83943 0.69128 0.55282 0.0
C2311 C 0.82985 0.69659 0.58272 0.0
C2312 C 0.82832 0.65453 0.75094 0.0
C2313 C 0.83394 0.67333 0.65002 0.0
C2314 C 0.83049 0.64304 0.78438 0.0
C2315 C 0.84035 0.638 0.75516 0.0
C2316 C 0.83604 0.66109 0.68748 0.0
C2317 C 0.84792 0.64494 0.69181 0.0
C2318 C 0.84149 0.67972 0.58608 0.0
C2319 C 0.82241 0.68979 0.64646 0.0
N2320 N 0.84559 0.65607 0.66027 0.0
N2321 N 0.82462 0.67858 0.67782 0.0
H2322 H 0.30667 0.12126 0.66527 0.0
H2323 H 0.36319 0.21502 0.662 0.0
H2324 H 0.31324 0.15006 0.4841 0.0
H2325 H 0.35326 0.18622 0.84616 0.0
H2326 H 0.34551 0.19146 0.59507 0.0
H2327 H 0.32464 0.14488 0.73054 0.0
C2328 C 0.31196 0.13251 0.6389 0.0
C2329 C 0.30834 0.13358 0.56883 0.0
C2330 C 0.34716 0.19031 0.65019 0.0
C2331 C 0.32896 0.16085 0.64397 0.0
C2332 C 0.35724 0.20379 0.6886 0.0
C2333 C 0.35978 0.2027 0.76013 0.0
C2334 C 0.33957 0.17555 0.68324 0.0
C2335 C 0.3517 0.18774 0.79134 0.0
C2336 C 0.3222 0.14604 0.67644 0.0
C2337 C 0.31562 0.14859 0.5379 0.0
N2338 N 0.34205 0.17482 0.75278 0.0
N2339 N 0.32552 0.16159 0.57561 0.0
H2340 H 0.88303 0.19274 0.6561 0.0
H2341 H 0.78862 0.14526 0.67981 0.0
H2342 H 0.85282 0.16004 0.49929 0.0
H2343 H 0.81841 0.18007 0.83086 0.0
H2344 H 0.81207 0.14991 0.61541 0.0
H2345 H 0.85966 0.18806 0.72185 0.0
C2346 C 0.87151 0.18461 0.63532 0.0
C2347 C 0.86996 0.17682 0.57176 0.0
C2348 C 0.8135 0.15653 0.66268 0.0
C2349 C 0.84306 0.17122 0.64753 0.0
C2350 C 0.80007 0.15385 0.69969 0.0
C2351 C 0.80145 0.16226 0.76112 0.0
C2352 C 0.82851 0.16779 0.68679 0.0
C2353 C 0.8167 0.17321 0.78411 0.0
C2354 C 0.85814 0.18192 0.67301 0.0
C2355 C 0.85466 0.16643 0.54762 0.0
N2356 N 0.82957 0.17569 0.74693 0.0
N2357 N 0.84187 0.1639 0.58555 0.0
H2358 H 0.50388 0.02249 0.81022 0.0
H2359 H 0.50584 0.98535 0.18111 0.0
H2360 H 0.49017 0.03452 0.00411 0.0
H2361 H 0.51481 0.96936 0.98588 0.0
H2362 H 0.50092 0.00397 0.11705 0.0
H2363 H 0.50821 0.0032 0.87289 0.0
C2364 C 0.50173 0.02106 0.8659 0.0
C2365 C 0.49666 0.0302 0.90177 0.0
C2366 C 0.50395 0.99639 0.08811 0.0
C2367 C 0.50184 0.00824 0.97428 0.0
C2368 C 0.50682 0.98574 0.12476 0.0
C2369 C 0.51078 0.97569 0.0891 0.0
C2370 C 0.50498 0.99707 0.01489 0.0
C2371 C 0.51189 0.97689 0.01587 0.0
C2372 C 0.50423 0.01004 0.90171 0.0
C2373 C 0.494 0.02772 0.97399 0.0
N2374 N 0.50899 0.98732 0.98132 0.0
N2375 N 0.49673 0.0171 0.00776 0.0
H2376 H 0.01614 0.52208 0.19762 0.0
H2377 H 0.98502 0.47905 0.82815 0.0
H2378 H 0.0338 0.54524 -0.00035 0.0
H2379 H 0.96769 0.456 0.02659 0.0
H2380 H 0.00274 0.50341 0.88967 0.0
H2381 H 0.99776 0.49808 0.13569 0.0
C2382 C 0.01612 0.52217 0.14109 0.0
C2383 C 0.02661 0.53576 0.10395 0.0
C2384 C 0.99506 0.49304 0.9198 0.0
C2385 C 0.00562 0.50811 0.03239 0.0
C2386 C 0.98493 0.47908 0.88468 0.0
C2387 C 0.97481 0.46538 0.92212 0.0
C2388 C 0.99505 0.49341 0.99312 0.0
C2389 C 0.97532 0.4662 0.99539 0.0
C2390 C 0.00562 0.50841 0.10571 0.0
C2391 C 0.02591 0.53511 0.03063 0.0
N2392 N 0.98521 0.47995 0.02836 0.0
N2393 N 0.0157 0.52151 0.99736 0.0
H2394 H 0.45679 0.48863 0.99155 0.0
H2395 H 0.54884 0.51661 0.00648 0.0
H2396 H 0.4835 0.50036 0.18298 0.0
H2397 H 0.52251 0.50742 0.81485 0.0
H2398 H 0.52508 0.51049 0.07212 0.0
H2399 H 0.48059 0.49477 0.92651 0.0
C2400 C 0.46761 0.49235 0.02012 0.0
C2401 C 0.46806 0.49397 0.09311 0.0
C2402 C 0.52452 0.50989 0.01569 0.0
C2403 C 0.49553 0.50115 0.01844 0.0
C2404 C 0.53812 0.51345 0.97803 0.0
C2405 C 0.53776 0.51255 0.90476 0.0
C2406 C 0.51036 0.50537 0.98006 0.0
C2407 C 0.52343 0.50827 0.87116 0.0
C2408 C 0.48125 0.49594 0.98278 0.0
C2409 C 0.48253 0.49897 0.12686 0.0
N2410 N 0.51035 0.50482 0.90897 0.0
N2411 N 0.49564 0.50237 0.08934 0.0
H2412 H 0.10451 0.42584 0.84102 0.0
H2413 H 0.16123 0.46263 0.50927 0.0
H2414 H 0.15413 0.44146 0.84466 0.0
H2415 H 0.11199 0.44873 0.50803 0.0
H2416 H 0.1589 0.45512 0.63219 0.0
H2417 H 0.10707 0.43443 0.71954 0.0
C2418 C 0.11598 0.4312 0.81655 0.0
C2419 C 0.12911 0.43286 0.85332 0.0
C2420 C 0.1486 0.4537 0.60499 0.0
C2421 C 0.1321 0.44258 0.71351 0.0
C2422 C 0.14994 0.45806 0.53474 0.0
C2423 C 0.1368 0.4563 0.49769 0.0
C2424 C 0.134 0.4475 0.63889 0.0
C2425 C 0.12241 0.45008 0.5337 0.0
C2426 C 0.11741 0.43601 0.74693 0.0
C2427 C 0.14362 0.4397 0.81826 0.0
N2428 N 0.12141 0.44592 0.60205 0.0
N2429 N 0.14471 0.44427 0.75047 0.0
H2430 H 0.5492 0.67704 0.8752 0.0
H2431 H 0.5732 0.69578 0.47194 0.0
H2432 H 0.59447 0.71403 0.80551 0.0
H2433 H 0.52524 0.66689 0.54058 0.0
H2434 H 0.58166 0.70085 0.59393 0.0
H2435 H 0.54066 0.67127 0.75299 0.0
C2436 C 0.55737 0.68387 0.83417 0.0
C2437 C 0.57254 0.69609 0.85057 0.0
C2438 C 0.56927 0.69344 0.58239 0.0
C2439 C 0.56288 0.68958 0.71077 0.0
C2440 C 0.56445 0.69049 0.51272 0.0
C2441 C 0.54848 0.68091 0.49593 0.0
C2442 C 0.55809 0.68666 0.63603 0.0
C2443 C 0.53764 0.67449 0.55106 0.0
C2444 C 0.55246 0.68065 0.7645 0.0
C2445 C 0.5826 0.70465 0.79531 0.0
N2446 N 0.54264 0.67741 0.61856 0.0
N2447 N 0.57761 0.70121 0.72805 0.0
H2448 H 0.32606 0.8999 0.84282 0.0
H2449 H 0.30396 0.84299 0.5106 0.0
H2450 H 0.29144 0.85048 0.84719 0.0
H2451 H 0.34119 0.89146 0.51036 0.0
H2452 H 0.29919 0.84554 0.63389 0.0
H2453 H 0.33195 0.89706 0.72142 0.0
C2454 C 0.31979 0.88842 0.81857 0.0
C2455 C 0.30815 0.87544 0.85542 0.0
C2456 C 0.30842 0.85562 0.60685 0.0
C2457 C 0.3147 0.87214 0.71578 0.0
C2458 C 0.31119 0.85415 0.53642 0.0
C2459 C 0.32296 0.86703 0.49961 0.0
C2460 C 0.31748 0.87009 0.64109 0.0
C2461 C 0.3318 0.88126 0.53596 0.0
C2462 C 0.32309 0.88682 0.749 0.0
C2463 C 0.30029 0.8609 0.82068 0.0
N2464 N 0.32887 0.8824 0.60445 0.0
N2465 N 0.30367 0.85966 0.75295 0.0
H2466 H 0.85343 0.52402 0.45922 0.0
H2467 H 0.8988 0.5913 0.17512 0.0
H2468 H 0.88411 0.57259 0.51617 0.0
H2469 H 0.85485 0.54935 0.13108 0.0
H2470 H 0.89635 0.58329 0.29835 0.0
H2471 H 0.8562 0.53187 0.33683 0.0
C2472 C 0.86066 0.53636 0.44645 0.0
C2473 C 0.86851 0.54763 0.49899 0.0
C2474 C 0.88726 0.57582 0.2617 0.0
C2475 C 0.87209 0.5566 0.35772 0.0
C2476 C 0.88871 0.58034 0.19158 0.0
C2477 C 0.877 0.57092 0.14346 0.0
C2478 C 0.87413 0.56167 0.28342 0.0
C2479 C 0.8641 0.55688 0.16694 0.0
C2480 C 0.86231 0.54079 0.37624 0.0
C2481 C 0.87804 0.56338 0.47801 0.0
N2482 N 0.86303 0.55262 0.23525 0.0
N2483 N 0.87962 0.56737 0.40919 0.0
H2484 H 0.45124 0.34057 0.49232 0.0
H2485 H 0.44113 0.28876 0.15264 0.0
H2486 H 0.46223 0.30316 0.48783 0.0
H2487 H 0.42878 0.32518 0.15897 0.0
H2488 H 0.44976 0.29449 0.27401 0.0
H2489 H 0.44359 0.33554 0.36978 0.0
C2490 C 0.45195 0.3312 0.46584 0.0
C2491 C 0.45731 0.3222 0.50102 0.0
C2492 C 0.4452 0.30127 0.24888 0.0
C2493 C 0.44878 0.31657 0.35954 0.0
C2494 C 0.4402 0.29796 0.17956 0.0
C2495 C 0.43408 0.30641 0.1455 0.0
C2496 C 0.4441 0.31313 0.28483 0.0
C2497 C 0.4335 0.31842 0.1828 0.0
C2498 C 0.44768 0.32843 0.39552 0.0
C2499 C 0.4583 0.3105 0.46301 0.0
N2500 N 0.43836 0.32136 0.25044 0.0
N2501 N 0.45406 0.30801 0.39453 0.0
H2502 H 0.67994 0.10348 0.1554 0.0
H2503 H 0.6986 0.16015 0.48638 0.0
H2504 H 0.71331 0.15324 0.15105 0.0
H2505 H 0.66471 0.11049 0.48814 0.0
H2506 H 0.70399 0.15799 0.36344 0.0
H2507 H 0.67397 0.10596 0.27694 0.0
C2508 C 0.68592 0.11497 0.17977 0.0
C2509 C 0.69717 0.12817 0.14278 0.0
C2510 C 0.69539 0.14756 0.39083 0.0
C2511 C 0.69051 0.13107 0.28264 0.0
C2512 C 0.69225 0.1488 0.46104 0.0
C2513 C 0.68123 0.13548 0.49817 0.0
C2514 C 0.68745 0.1329 0.35718 0.0
C2515 C 0.67352 0.12105 0.46239 0.0
C2516 C 0.68258 0.11636 0.24942 0.0
C2517 C 0.70471 0.1427 0.17767 0.0
N2518 N 0.67678 0.12016 0.39414 0.0
N2519 N 0.70126 0.14375 0.24552 0.0
H2520 H 0.79476 0.76476 0.81217 0.0
H2521 H 0.79823 0.78832 0.21504 0.0
H2522 H 0.81127 0.81236 0.87998 0.0
H2523 H 0.79324 0.74429 0.1457 0.0
H2524 H 0.80055 0.79673 0.09273 0.0
H2525 H 0.79183 0.75648 0.93424 0.0
C2526 C 0.79778 0.77348 0.85277 0.0
C2527 C 0.80332 0.7893 0.83571 0.0
C2528 C 0.79895 0.78524 0.10437 0.0
C2529 C 0.79994 0.77987 0.97597 0.0
C2530 C 0.79753 0.7804 0.17409 0.0
C2531 C 0.79565 0.76562 0.19062 0.0
C2532 C 0.79828 0.77514 0.05075 0.0
C2533 C 0.79491 0.75586 0.13543 0.0
C2534 C 0.79615 0.76875 0.92251 0.0
C2535 C 0.80715 0.80009 0.89067 0.0
N2536 N 0.79619 0.76077 0.06816 0.0
N2537 N 0.80531 0.79517 0.95827 0.0
H2538 H 0.23887 0.03018 0.81153 0.0
H2539 H 0.21457 0.01057 0.21413 0.0
H2540 H 0.19098 1.00026 0.87925 0.0
H2541 H 0.26025 0.04684 0.14491 0.0
H2542 H 0.206 0.00512 0.09183 0.0
H2543 H 0.24719 0.03516 0.93352 0.0
C2544 C 0.23009 0.02468 0.85209 0.0
C2545 C 0.21418 0.0148 0.83501 0.0
C2546 C 0.2179 0.01427 0.10347 0.0
C2547 C 0.22365 0.02043 0.97519 0.0
C2548 C 0.22281 0.0173 0.17316 0.0
C2549 C 0.23811 0.02924 0.18966 0.0
C2550 C 0.22842 0.02312 0.04991 0.0
C2551 C 0.24829 0.03768 0.13458 0.0
C2552 C 0.23484 0.02756 0.9218 0.0
C2553 C 0.20332 0.00811 0.88992 0.0
N2554 N 0.24328 0.03445 0.06734 0.0
N2555 N 0.20826 0.01098 0.95748 0.0
H2556 H 0.96092 0.22096 0.14585 0.0
H2557 H 1.00023 0.1881 0.87678 0.0
H2558 H 0.98787 0.19954 0.21128 0.0
H2559 H 0.97603 0.21266 0.81416 0.0
H2560 H 0.99536 0.19151 0.999 0.0
H2561 H 0.96639 0.21795 0.0239 0.0
C2562 C 0.96801 0.21562 0.13426 0.0
C2563 C 0.97395 0.21047 0.18838 0.0
C2564 C 0.99113 0.19617 0.95852 0.0
C2565 C 0.9801 0.20675 0.04896 0.0
C2566 C 0.99379 0.1941 0.88857 0.0
C2567 C 0.98856 0.20011 0.83472 0.0
C2568 C 0.98314 0.20426 0.97511 0.0
C2569 C 0.98049 0.20801 0.85364 0.0
C2570 C 0.97113 0.21389 0.06473 0.0
C2571 C 0.98316 0.20374 0.17086 0.0
N2572 N 0.97804 0.20984 0.92203 0.0
N2573 N 0.98587 0.20196 0.1026 0.0
H2574 H 0.56035 0.88671 0.82248 0.0
H2575 H 0.51703 0.89403 0.48197 0.0
H2576 H 0.5114 0.87388 0.81791 0.0
H2577 H 0.56653 0.90918 0.48934 0.0
H2578 H 0.51455 0.88564 0.60354 0.0
H2579 H 0.56268 0.8943 0.69996 0.0
C2580 C 0.55009 0.88558 0.79601 0.0
C2581 C 0.53565 0.8797 0.83114 0.0
C2582 C 0.52595 0.89076 0.57861 0.0
C2583 C 0.53821 0.88815 0.68967 0.0
C2584 C 0.5274 0.89562 0.50917 0.0
C2585 C 0.54204 0.90245 0.47534 0.0
C2586 C 0.53924 0.89271 0.6149 0.0
C2587 C 0.55498 0.90388 0.51298 0.0
C2588 C 0.55142 0.88982 0.72569 0.0
C2589 C 0.52272 0.87819 0.79312 0.0
N2590 N 0.55329 0.89913 0.58074 0.0
N2591 N 0.52432 0.88241 0.72463 0.0
H2592 H 0.12941 0.63614 0.82298 0.0
H2593 H 0.09487 0.6586 0.49053 0.0
H2594 H 0.11768 0.67303 0.82381 0.0
H2595 H 0.10821 0.62288 0.48757 0.0
H2596 H 0.10366 0.66444 0.61185 0.0
H2597 H 0.12201 0.63133 0.69977 0.0
C2598 C 0.12535 0.64328 0.79732 0.0
C2599 C 0.12413 0.65497 0.83427 0.0
C2600 C 0.1047 0.65534 0.58463 0.0
C2601 C 0.1155 0.64944 0.69288 0.0
C2602 C 0.09978 0.65207 0.5151 0.0
C2603 C 0.10071 0.64016 0.47865 0.0
C2604 C 0.11062 0.64665 0.61823 0.0
C2605 C 0.107 0.63197 0.51378 0.0
C2606 C 0.12105 0.64048 0.72694 0.0
C2607 C 0.11857 0.6637 0.79811 0.0
N2608 N 0.11166 0.63534 0.58148 0.0
N2609 N 0.11447 0.66076 0.72965 0.0
H2610 H 0.38114 0.45386 0.52198 0.0
H2611 H 0.33464 0.47869 0.78897 0.0
H2612 H 0.34583 0.46495 0.45573 0.0
H2613 H 0.36328 0.45894 0.85306 0.0
H2614 H 0.33967 0.47529 0.66678 0.0
H2615 H 0.37554 0.45683 0.64348 0.0
C2616 C 0.3722 0.45694 0.53314 0.0
C2617 C 0.364 0.45925 0.47869 0.0
C2618 C 0.34484 0.4717 0.70759 0.0
C2619 C 0.35754 0.46274 0.618 0.0
C2620 C 0.3421 0.47377 0.7774 0.0
C2621 C 0.34857 0.46913 0.83153 0.0
C2622 C 0.35424 0.46506 0.69158 0.0
C2623 C 0.35793 0.46258 0.81321 0.0
C2624 C 0.36897 0.45859 0.60254 0.0
C2625 C 0.35238 0.46301 0.49617 0.0
N2626 N 0.36051 0.46078 0.74496 0.0
N2627 N 0.34957 0.46476 0.56431 0.0
H2628 H 0.4882 0.10845 0.51305 0.0
H2629 H 0.44448 0.11516 0.17239 0.0
H2630 H 0.43848 0.09227 0.50531 0.0
H2631 H 0.49367 0.1289 0.17768 0.0
H2632 H 0.44213 0.10718 0.29441 0.0
H2633 H 0.49052 0.1167 0.39133 0.0
C2634 C 0.47774 0.10657 0.48574 0.0
C2635 C 0.46309 0.09953 0.51963 0.0
C2636 C 0.45344 0.11195 0.26892 0.0
C2637 C 0.46571 0.10914 0.37977 0.0
C2638 C 0.45479 0.11641 0.19883 0.0
C2639 C 0.46931 0.12269 0.16399 0.0
C2640 C 0.46671 0.1138 0.30507 0.0
C2641 C 0.48228 0.12431 0.20214 0.0
C2642 C 0.47909 0.11136 0.41618 0.0
C2643 C 0.45004 0.09774 0.48169 0.0
N2644 N 0.48066 0.1199 0.27038 0.0
N2645 N 0.45164 0.10245 0.41386 0.0
H2646 H 0.92871 0.37927 0.47181 0.0
H2647 H 0.85714 0.33231 0.20603 0.0
H2648 H 0.88255 0.34363 0.53905 0.0
H2649 H 0.90522 0.3625 0.14164 0.0
H2650 H 0.86568 0.33715 0.32826 0.0
H2651 H 0.91989 0.37389 0.35078 0.0
C2652 C 0.91668 0.3703 0.46104 0.0
C2653 C 0.90632 0.36196 0.51572 0.0
C2654 C 0.87435 0.34272 0.28736 0.0
C2655 C 0.89608 0.35569 0.37666 0.0
C2656 C 0.86946 0.34008 0.2176 0.0
C2657 C 0.88047 0.34704 0.16343 0.0
C2658 C 0.89035 0.3525 0.30321 0.0
C2659 C 0.89633 0.35679 0.18158 0.0
C2660 C 0.91166 0.36719 0.39181 0.0
C2661 C 0.89094 0.35029 0.4985 0.0
N2662 N 0.90077 0.35925 0.24975 0.0
N2663 N 0.88625 0.34757 0.43048 0.0
H2664 H 0.66759 0.52109 0.21287 0.0
H2665 H 0.62952 0.55528 0.48139 0.0
H2666 H 0.64226 0.54454 0.15038 0.0
H2667 H 0.65563 0.533 0.54728 0.0
H2668 H 0.63448 0.55169 0.35962 0.0
H2669 H 0.66305 0.52482 0.33514 0.0
C2670 C 0.66093 0.52688 0.2247 0.0
C2671 C 0.65534 0.53253 0.17091 0.0
C2672 C 0.63916 0.54757 0.40049 0.0
C2673 C 0.65037 0.53711 0.31119 0.0
C2674 C 0.63634 0.54966 0.46992 0.0
C2675 C 0.64217 0.54441 0.52411 0.0
C2676 C 0.64772 0.54 0.3849 0.0
C2677 C 0.65104 0.53729 0.50677 0.0
C2678 C 0.65848 0.52914 0.29464 0.0
C2679 C 0.64701 0.54017 0.18981 0.0
N2680 N 0.65346 0.53518 0.43856 0.0
N2681 N 0.64482 0.54224 0.25817 0.0
H2682 H 0.21654 0.23977 0.18762 0.0
H2683 H 0.19073 0.21416 0.79126 0.0
H2684 H 0.18751 0.19134 0.12504 0.0
H2685 H 0.22957 0.2593 0.84913 0.0
H2686 H 0.18779 0.20588 0.91419 0.0
H2687 H 0.21996 0.24754 0.06496 0.0
C2688 C 0.21096 0.23073 0.14828 0.0
C2689 C 0.20181 0.21482 0.1673 0.0
C2690 C 0.19703 0.21756 0.9 0.0
C2691 C 0.20539 0.22376 0.02605 0.0
C2692 C 0.1987 0.22224 0.83004 0.0
C2693 C 0.21044 0.23736 0.81065 0.0
C2694 C 0.2071 0.22816 0.95081 0.0
C2695 C 0.22041 0.24752 0.86244 0.0
C2696 C 0.21285 0.23521 0.07809 0.0
C2697 C 0.19451 0.20375 0.11346 0.0
N2698 N 0.21848 0.24277 0.93024 0.0
N2699 N 0.19643 0.20843 0.04551 0.0
H2700 H 0.76319 0.9941 0.82835 0.0
H2701 H 0.79591 0.96884 0.15831 0.0
H2702 H 0.77355 0.95628 0.82406 0.0
H2703 H 0.78544 0.00661 0.16201 0.0
H2704 H 0.78865 0.96463 0.03474 0.0
H2705 H 0.77234 0.99957 0.94929 0.0
C2706 C 0.76754 0.98705 0.85258 0.0
C2707 C 0.76751 0.97465 0.81604 0.0
C2708 C 0.78794 0.97383 0.06265 0.0
C2709 C 0.77785 0.98072 0.95493 0.0
C2710 C 0.79215 0.97629 0.13319 0.0
C2711 C 0.7912 0.98802 0.171 0.0
C2712 C 0.78277 0.98321 0.02943 0.0
C2713 C 0.78609 0.99721 0.13557 0.0
C2714 C 0.77267 0.99011 0.92184 0.0
C2715 C 0.77311 0.96579 0.85052 0.0
N2716 N 0.78206 0.9946 0.06701 0.0
N2717 N 0.778 0.96896 0.91797 0.0
H2718 H 0.01577 0.80399 0.78223 0.0
H2719 H 0.03015 0.79189 0.18451 0.0
H2720 H 0.04542 0.7858 0.85036 0.0
H2721 H 0.00401 0.81424 0.11862 0.0
H2722 H 0.03501 0.7887 0.06232 0.0
H2723 H 0.01038 0.80694 0.90493 0.0
C2724 C 0.02099 0.80047 0.82321 0.0
C2725 C 0.03104 0.79467 0.80662 0.0
C2726 C 0.02826 0.79436 0.07451 0.0
C2727 C 0.02497 0.79794 0.94655 0.0
C2728 C 0.02542 0.79613 0.1444 0.0
C2729 C 0.01662 0.80334 0.16217 0.0
C2730 C 0.02226 0.79979 0.02154 0.0
C2731 C 0.01101 0.8088 0.10764 0.0
C2732 C 0.018 0.80223 0.89309 0.0
C2733 C 0.03767 0.79042 0.8613 0.0
N2734 N 0.01388 0.80687 0.03992 0.0
N2735 N 0.03449 0.7921 0.92876 0.0
loop_
_geom_bond_atom_site_label_1
_geom_bond_atom_site_label_2
_geom_bond_distance
_geom_bond_site_symmetry_2
_ccdc_geom_bond_type
Cd0 O57 2.350 . S
Cd0 O58 2.277 . S
Cd0 O65 2.173 . S
Cd0 O67 2.263 . S
Cd0 O69 2.366 . S
Cd0 O72 2.329 . S
C1 O65 1.277 . S
C1 O66 1.230 . S
C2 O3 1.246 . S
C2 C5 1.481 . S
C2 N27 1.329 . S
O3 C2 1.246 . S
Cd4 O66 2.250 . S
Cd4 O68 2.308 . S
Cd4 O71 2.352 . S
C5 C2 1.481 . S
C5 N8 1.327 . S
C5 C9 1.407 . S
C6 C7 1.346 . S
C6 C10 1.390 . S
C6 H74 0.930 . S
C7 C6 1.346 . S
C7 N8 1.342 . S
C7 C12 1.516 . S
N8 C5 1.327 . S
N8 C7 1.342 . S
N8 Co11 1.864 . S
C9 C5 1.407 . S
C9 C10 1.364 . S
C9 H75 0.930 . S
C10 C6 1.390 . S
C10 C9 1.364 . S
C10 H76 0.931 . S
Co11 N8 1.864 . S
Co11 N27 1.955 . S
Co11 N28 1.958 . S
Co11 N29 1.953 . S
Co11 N47 1.869 . S
Co11 N53 1.974 . S
C12 C7 1.516 . S
C12 O13 1.238 . S
C12 N28 1.324 . S
O13 C12 1.238 . S
C14 C15 1.394 . S
C14 C19 1.395 1_554 S
C14 N28 1.427 . S
C15 C14 1.394 . S
C15 C16 1.380 . S
C15 H77 0.929 . S
C16 C15 1.380 . S
C16 C17 1.384 1_554 S
C16 C20 1.495 . S
C17 C16 1.384 1_556 S
C17 C18 1.382 . S
C17 H78 0.930 . S
C18 C17 1.382 . S
C18 C19 1.398 . S
C19 C14 1.395 1_556 S
C19 C18 1.398 . S
C19 H79 0.930 . S
C20 C16 1.495 . S
C20 O67 1.258 . S
C20 O68 1.274 . S
C21 C22 1.385 . S
C21 C23 1.381 . S
C21 N27 1.432 . S
C22 C21 1.385 . S
C22 C26 1.388 . S
C22 H80 0.929 . S
C23 C21 1.381 . S
C23 C24 1.371 . S
C23 H81 0.932 . S
C24 C23 1.371 . S
C24 C25 1.400 . S
C25 C24 1.400 . S
C25 C26 1.351 . S
C25 H82 0.930 . S
C26 C22 1.388 . S
C26 C25 1.351 . S
N27 C2 1.329 . S
N27 Co11 1.955 . S
N27 C21 1.432 . S
N28 Co11 1.958 . S
N28 C12 1.324 . S
N28 C14 1.427 . S
N29 Co11 1.953 . S
N29 C30 1.436 . S
N29 C56 1.316 . S
C30 N29 1.436 . S
C30 C31 1.421 . S
C30 C32 1.360 . S
C31 C30 1.421 . S
C31 C33 1.379 . S
C31 H34 0.929 . S
C32 C30 1.360 . S
C32 C36 1.393 . S
C32 H38 0.931 . S
C33 C31 1.379 . S
C33 C35 1.417 . S
C33 C37 1.505 . S
H34 C31 0.929 . S
C35 C33 1.417 . S
C35 C36 1.352 . S
C35 H39 0.929 . S
C36 C32 1.393 . S
C36 C35 1.352 . S
C36 C40 1.482 . S
C37 C33 1.505 . S
C37 O41 1.259 . S
C37 O42 1.229 . S
H38 C32 0.931 . S
H39 C35 0.929 . S
C40 C36 1.482 . S
C40 O43 1.207 . S
C40 O44 1.289 . S
O41 C37 1.259 . S
O41 H45 0.822 . S
O42 C37 1.229 . S
O43 C40 1.207 . S
O44 C40 1.289 . S
O44 H46 0.819 . S
H45 O41 0.822 . S
H46 O44 0.819 . S
N47 Co11 1.869 . S
N47 C48 1.330 . S
N47 C52 1.325 . S
C48 N47 1.330 . S
C48 C49 1.359 . S
C48 C54 1.504 . S
C49 C48 1.359 . S
C49 C50 1.366 . S
C49 H83 0.929 . S
C50 C49 1.366 . S
C50 C51 1.415 . S
C50 H84 0.932 . S
C51 C50 1.415 . S
C51 C52 1.366 . S
C51 H85 0.931 . S
C52 N47 1.325 . S
C52 C51 1.366 . S
C52 C56 1.516 . S
N53 Co11 1.974 . S
N53 C54 1.309 . S
N53 C59 1.423 . S
C54 C48 1.504 . S
C54 N53 1.309 . S
C54 O55 1.258 . S
O55 C54 1.258 . S
C56 N29 1.316 . S
C56 C52 1.516 . S
C56 O69 1.263 . S
O57 Cd0 2.350 . S
O57 C73 1.270 . S
O58 Cd0 2.277 . S
O58 C73 1.248 . S
C59 N53 1.423 . S
C59 C60 1.370 . S
C59 C64 1.403 . S
C60 C59 1.370 . S
C60 C61 1.389 . S
C60 H86 0.931 . S
C61 C60 1.389 . S
C61 C62 1.389 . S
C62 C61 1.389 . S
C62 C63 1.379 . S
C62 H87 0.929 . S
C63 C62 1.379 . S
C63 C64 1.405 . S
C64 C59 1.403 . S
C64 C63 1.405 . S
C64 H88 0.932 . S
O65 Cd0 2.173 . S
O65 C1 1.277 . S
O66 C1 1.230 . S
O66 Cd4 2.250 . S
O67 Cd0 2.263 . S
O67 C20 1.258 . S
O68 Cd4 2.308 . S
O68 C20 1.274 . S
O69 Cd0 2.366 . S
O69 C56 1.263 . S
C70 O71 1.235 . S
C70 O72 1.270 . S
O71 Cd4 2.352 . S
O71 C70 1.235 . S
O72 Cd0 2.329 . S
O72 C70 1.270 . S
C73 O57 1.270 . S
C73 O58 1.248 . S
H74 C6 0.930 . S
H75 C9 0.930 . S
H76 C10 0.931 . S
H77 C15 0.929 . S
H78 C17 0.930 . S
H79 C19 0.930 . S
H80 C22 0.929 . S
H81 C23 0.932 . S
H82 C25 0.930 . S
H83 C49 0.929 . S
H84 C50 0.932 . S
H85 C51 0.931 . S
H86 C60 0.931 . S
H87 C62 0.929 . S
H88 C64 0.932 . S
Cd89 O146 2.350 . S
Cd89 O147 2.277 . S
Cd89 O154 2.173 . S
Cd89 O156 2.263 . S
Cd89 O158 2.366 . S
Cd89 O161 2.329 . S
C90 O154 1.277 . S
C90 O155 1.230 . S
C91 O92 1.246 . S
C91 C94 1.481 . S
C91 N116 1.329 . S
O92 C91 1.246 . S
Cd93 O155 2.250 . S
Cd93 O157 2.308 . S
Cd93 O160 2.352 . S
C94 C91 1.481 . S
C94 N97 1.327 . S
C94 C98 1.407 . S
C95 C96 1.346 . S
C95 C99 1.390 . S
C95 H163 0.930 . S
C96 C95 1.346 . S
C96 N97 1.342 . S
C96 C101 1.516 . S
N97 C94 1.327 . S
N97 C96 1.342 . S
N97 Co100 1.864 . S
C98 C94 1.407 . S
C98 C99 1.364 . S
C98 H164 0.930 . S
C99 C95 1.390 . S
C99 C98 1.364 . S
C99 H165 0.931 . S
Co100 N97 1.864 . S
Co100 N116 1.955 . S
Co100 N117 1.958 . S
Co100 N118 1.953 . S
Co100 N136 1.869 . S
Co100 N142 1.974 . S
C101 C96 1.516 . S
C101 O102 1.238 . S
C101 N117 1.324 . S
O102 C101 1.238 . S
C103 C104 1.394 . S
C103 C108 1.395 1_554 S
C103 N117 1.427 . S
C104 C103 1.394 . S
C104 C105 1.380 . S
C104 H166 0.929 . S
C105 C104 1.380 . S
C105 C106 1.384 1_554 S
C105 C109 1.495 . S
C106 C105 1.384 1_556 S
C106 C107 1.382 . S
C106 H167 0.930 . S
C107 C106 1.382 . S
C107 C108 1.398 . S
C108 C103 1.395 1_556 S
C108 C107 1.398 . S
C108 H168 0.930 . S
C109 C105 1.495 . S
C109 O156 1.258 . S
C109 O157 1.274 . S
C110 C111 1.385 . S
C110 C112 1.381 . S
C110 N116 1.432 . S
C111 C110 1.385 . S
C111 C115 1.388 . S
C111 H169 0.929 . S
C112 C110 1.381 . S
C112 C113 1.371 . S
C112 H170 0.932 . S
C113 C112 1.371 . S
C113 C114 1.400 . S
C114 C113 1.400 . S
C114 C115 1.351 . S
C114 H171 0.930 . S
C115 C111 1.388 . S
C115 C114 1.351 . S
N116 C91 1.329 . S
N116 Co100 1.955 . S
N116 C110 1.432 . S
N117 Co100 1.958 . S
N117 C101 1.324 . S
N117 C103 1.427 . S
N118 Co100 1.953 . S
N118 C119 1.436 . S
N118 C145 1.316 . S
C119 N118 1.436 . S
C119 C120 1.421 . S
C119 C121 1.360 . S
C120 C119 1.421 . S
C120 C122 1.379 . S
C120 H123 0.929 . S
C121 C119 1.360 . S
C121 C125 1.393 . S
C121 H127 0.931 . S
C122 C120 1.379 . S
C122 C124 1.417 . S
C122 C126 1.505 . S
H123 C120 0.929 . S
C124 C122 1.417 . S
C124 C125 1.352 . S
C124 H128 0.929 . S
C125 C121 1.393 . S
C125 C124 1.352 . S
C125 C129 1.482 . S
C126 C122 1.505 . S
C126 O130 1.259 . S
C126 O131 1.229 . S
H127 C121 0.931 . S
H128 C124 0.929 . S
C129 C125 1.482 . S
C129 O132 1.207 . S
C129 O133 1.289 . S
O130 C126 1.259 . S
O130 H134 0.822 . S
O131 C126 1.229 . S
O132 C129 1.207 . S
O133 C129 1.289 . S
O133 H135 0.819 . S
H134 O130 0.822 . S
H135 O133 0.819 . S
N136 Co100 1.869 . S
N136 C137 1.330 . S
N136 C141 1.325 . S
C137 N136 1.330 . S
C137 C138 1.359 . S
C137 C143 1.504 . S
C138 C137 1.359 . S
C138 C139 1.366 . S
C138 H172 0.929 . S
C139 C138 1.366 . S
C139 C140 1.415 . S
C139 H173 0.932 . S
C140 C139 1.415 . S
C140 C141 1.366 . S
C140 H174 0.931 . S
C141 N136 1.325 . S
C141 C140 1.366 . S
C141 C145 1.516 . S
N142 Co100 1.974 . S
N142 C143 1.309 . S
N142 C148 1.423 . S
C143 C137 1.504 . S
C143 N142 1.309 . S
C143 O144 1.258 . S
O144 C143 1.258 . S
C145 N118 1.316 . S
C145 C141 1.516 . S
C145 O158 1.263 . S
O146 Cd89 2.350 . S
O146 C162 1.270 . S
O147 Cd89 2.277 . S
O147 C162 1.248 . S
C148 N142 1.423 . S
C148 C149 1.370 . S
C148 C153 1.403 . S
C149 C148 1.370 . S
C149 C150 1.389 . S
C149 H175 0.931 . S
C150 C149 1.389 . S
C150 C151 1.389 . S
C151 C150 1.389 . S
C151 C152 1.379 . S
C151 H176 0.929 . S
C152 C151 1.379 . S
C152 C153 1.405 . S
C153 C148 1.403 . S
C153 C152 1.405 . S
C153 H177 0.932 . S
O154 Cd89 2.173 . S
O154 C90 1.277 . S
O155 C90 1.230 . S
O155 Cd93 2.250 . S
O156 Cd89 2.263 . S
O156 C109 1.258 . S
O157 Cd93 2.308 . S
O157 C109 1.274 . S
O158 Cd89 2.366 . S
O158 C145 1.263 . S
C159 O160 1.235 . S
C159 O161 1.270 . S
O160 Cd93 2.352 . S
O160 C159 1.235 . S
O161 Cd89 2.329 . S
O161 C159 1.270 . S
C162 O146 1.270 . S
C162 O147 1.248 . S
H163 C95 0.930 . S
H164 C98 0.930 . S
H165 C99 0.931 . S
H166 C104 0.929 . S
H167 C106 0.930 . S
H168 C108 0.930 . S
H169 C111 0.929 . S
H170 C112 0.932 . S
H171 C114 0.930 . S
H172 C138 0.929 . S
H173 C139 0.932 . S
H174 C140 0.931 . S
H175 C149 0.931 . S
H176 C151 0.929 . S
H177 C153 0.932 . S
Cd178 O235 2.350 . S
Cd178 O236 2.277 . S
Cd178 O243 2.173 . S
Cd178 O245 2.263 . S
Cd178 O247 2.366 . S
Cd178 O250 2.329 . S
C179 O243 1.277 . S
C179 O244 1.230 . S
C180 O181 1.246 . S
C180 C183 1.481 . S
C180 N205 1.329 . S
O181 C180 1.246 . S
Cd182 O244 2.250 . S
Cd182 O246 2.308 . S
Cd182 O249 2.352 . S
C183 C180 1.481 . S
C183 N186 1.327 . S
C183 C187 1.407 . S
C184 C185 1.346 . S
C184 C188 1.390 . S
C184 H252 0.930 . S
C185 C184 1.346 . S
C185 N186 1.342 . S
C185 C190 1.516 . S
N186 C183 1.327 . S
N186 C185 1.342 . S
N186 Co189 1.864 . S
C187 C183 1.407 . S
C187 C188 1.364 . S
C187 H253 0.930 . S
C188 C184 1.390 . S
C188 C187 1.364 . S
C188 H254 0.931 . S
Co189 N186 1.864 . S
Co189 N205 1.955 . S
Co189 N206 1.958 . S
Co189 N207 1.953 . S
Co189 N225 1.869 . S
Co189 N231 1.974 . S
C190 C185 1.516 . S
C190 O191 1.238 . S
C190 N206 1.324 . S
O191 C190 1.238 . S
C192 C193 1.394 . S
C192 C197 1.395 1_554 S
C192 N206 1.427 . S
C193 C192 1.394 . S
C193 C194 1.380 . S
C193 H255 0.929 . S
C194 C193 1.380 . S
C194 C195 1.384 1_554 S
C194 C198 1.495 . S
C195 C194 1.384 1_556 S
C195 C196 1.382 . S
C195 H256 0.930 . S
C196 C195 1.382 . S
C196 C197 1.398 . S
C197 C192 1.395 1_556 S
C197 C196 1.398 . S
C197 H257 0.930 . S
C198 C194 1.495 . S
C198 O245 1.258 . S
C198 O246 1.274 . S
C199 C200 1.385 . S
C199 C201 1.381 . S
C199 N205 1.432 . S
C200 C199 1.385 . S
C200 C204 1.388 . S
C200 H258 0.929 . S
C201 C199 1.381 . S
C201 C202 1.371 . S
C201 H259 0.932 . S
C202 C201 1.371 . S
C202 C203 1.400 . S
C203 C202 1.400 . S
C203 C204 1.351 . S
C203 H260 0.930 . S
C204 C200 1.388 . S
C204 C203 1.351 . S
N205 C180 1.329 . S
N205 Co189 1.955 . S
N205 C199 1.432 . S
N206 Co189 1.958 . S
N206 C190 1.324 . S
N206 C192 1.427 . S
N207 Co189 1.953 . S
N207 C208 1.436 . S
N207 C234 1.316 . S
C208 N207 1.436 . S
C208 C209 1.421 . S
C208 C210 1.360 . S
C209 C208 1.421 . S
C209 C211 1.379 . S
C209 H212 0.929 . S
C210 C208 1.360 . S
C210 C214 1.393 . S
C210 H216 0.931 . S
C211 C209 1.379 . S
C211 C213 1.417 . S
C211 C215 1.505 . S
H212 C209 0.929 . S
C213 C211 1.417 . S
C213 C214 1.352 . S
C213 H217 0.929 . S
C214 C210 1.393 . S
C214 C213 1.352 . S
C214 C218 1.482 . S
C215 C211 1.505 . S
C215 O219 1.259 . S
C215 O220 1.229 . S
H216 C210 0.931 . S
H217 C213 0.929 . S
C218 C214 1.482 . S
C218 O221 1.207 . S
C218 O222 1.289 . S
O219 C215 1.259 . S
O219 H223 0.822 . S
O220 C215 1.229 . S
O221 C218 1.207 . S
O222 C218 1.289 . S
O222 H224 0.819 . S
H223 O219 0.822 . S
H224 O222 0.819 . S
N225 Co189 1.869 . S
N225 C226 1.330 . S
N225 C230 1.325 . S
C226 N225 1.330 . S
C226 C227 1.359 . S
C226 C232 1.504 . S
C227 C226 1.359 . S
C227 C228 1.366 . S
C227 H261 0.929 . S
C228 C227 1.366 . S
C228 C229 1.415 . S
C228 H262 0.932 . S
C229 C228 1.415 . S
C229 C230 1.366 . S
C229 H263 0.931 . S
C230 N225 1.325 . S
C230 C229 1.366 . S
C230 C234 1.516 . S
N231 Co189 1.974 . S
N231 C232 1.309 . S
N231 C237 1.423 . S
C232 C226 1.504 . S
C232 N231 1.309 . S
C232 O233 1.258 . S
O233 C232 1.258 . S
C234 N207 1.316 . S
C234 C230 1.516 . S
C234 O247 1.263 . S
O235 Cd178 2.350 . S
O235 C251 1.270 . S
O236 Cd178 2.277 . S
O236 C251 1.248 . S
C237 N231 1.423 . S
C237 C238 1.370 . S
C237 C242 1.403 . S
C238 C237 1.370 . S
C238 C239 1.389 . S
C238 H264 0.931 . S
C239 C238 1.389 . S
C239 C240 1.389 . S
C240 C239 1.389 . S
C240 C241 1.379 . S
C240 H265 0.929 . S
C241 C240 1.379 . S
C241 C242 1.405 . S
C242 C237 1.403 . S
C242 C241 1.405 . S
C242 H266 0.932 . S
O243 Cd178 2.173 . S
O243 C179 1.277 . S
O244 C179 1.230 . S
O244 Cd182 2.250 . S
O245 Cd178 2.263 . S
O245 C198 1.258 . S
O246 Cd182 2.308 . S
O246 C198 1.274 . S
O247 Cd178 2.366 . S
O247 C234 1.263 . S
C248 O249 1.235 . S
C248 O250 1.270 . S
O249 Cd182 2.352 . S
O249 C248 1.235 . S
O250 Cd178 2.329 . S
O250 C248 1.270 . S
C251 O235 1.270 . S
C251 O236 1.248 . S
H252 C184 0.930 . S
H253 C187 0.930 . S
H254 C188 0.931 . S
H255 C193 0.929 . S
H256 C195 0.930 . S
H257 C197 0.930 . S
H258 C200 0.929 . S
H259 C201 0.932 . S
H260 C203 0.930 . S
H261 C227 0.929 . S
H262 C228 0.932 . S
H263 C229 0.931 . S
H264 C238 0.931 . S
H265 C240 0.929 . S
H266 C242 0.932 . S
Cd267 O324 2.350 . S
Cd267 O325 2.277 . S
Cd267 O332 2.173 . S
Cd267 O334 2.263 . S
Cd267 O336 2.366 . S
Cd267 O339 2.329 . S
C268 O332 1.277 . S
C268 O333 1.230 . S
C269 O270 1.246 . S
C269 C272 1.481 . S
C269 N294 1.329 . S
O270 C269 1.246 . S
Cd271 O333 2.250 . S
Cd271 O335 2.308 . S
Cd271 O338 2.352 . S
C272 C269 1.481 . S
C272 N275 1.327 . S
C272 C276 1.407 . S
C273 C274 1.346 . S
C273 C277 1.390 . S
C273 H341 0.930 . S
C274 C273 1.346 . S
C274 N275 1.342 . S
C274 C279 1.516 . S
N275 C272 1.327 . S
N275 C274 1.342 . S
N275 Co278 1.864 . S
C276 C272 1.407 . S
C276 C277 1.364 . S
C276 H342 0.930 . S
C277 C273 1.390 . S
C277 C276 1.364 . S
C277 H343 0.931 . S
Co278 N275 1.864 . S
Co278 N294 1.955 . S
Co278 N295 1.958 . S
Co278 N296 1.953 . S
Co278 N314 1.869 . S
Co278 N320 1.974 . S
C279 C274 1.516 . S
C279 O280 1.238 . S
C279 N295 1.324 . S
O280 C279 1.238 . S
C281 C282 1.394 . S
C281 C286 1.395 1_556 S
C281 N295 1.427 . S
C282 C281 1.394 . S
C282 C283 1.380 . S
C282 H344 0.929 . S
C283 C282 1.380 . S
C283 C284 1.384 1_556 S
C283 C287 1.495 . S
C284 C283 1.384 1_554 S
C284 C285 1.382 . S
C284 H345 0.930 . S
C285 C284 1.382 . S
C285 C286 1.398 . S
C286 C281 1.395 1_554 S
C286 C285 1.398 . S
C286 H346 0.930 . S
C287 C283 1.495 . S
C287 O334 1.258 . S
C287 O335 1.274 . S
C288 C289 1.385 . S
C288 C290 1.381 . S
C288 N294 1.432 . S
C289 C288 1.385 . S
C289 C293 1.388 . S
C289 H347 0.929 . S
C290 C288 1.381 . S
C290 C291 1.371 . S
C290 H348 0.932 . S
C291 C290 1.371 . S
C291 C292 1.400 . S
C292 C291 1.400 . S
C292 C293 1.351 . S
C292 H349 0.930 . S
C293 C289 1.388 . S
C293 C292 1.351 . S
N294 C269 1.329 . S
N294 Co278 1.955 . S
N294 C288 1.432 . S
N295 Co278 1.958 . S
N295 C279 1.324 . S
N295 C281 1.427 . S
N296 Co278 1.953 . S
N296 C297 1.436 . S
N296 C323 1.316 . S
C297 N296 1.436 . S
C297 C298 1.421 . S
C297 C299 1.360 . S
C298 C297 1.421 . S
C298 C300 1.379 . S
C298 H301 0.929 . S
C299 C297 1.360 . S
C299 C303 1.393 . S
C299 H305 0.931 . S
C300 C298 1.379 . S
C300 C302 1.417 . S
C300 C304 1.505 . S
H301 C298 0.929 . S
C302 C300 1.417 . S
C302 C303 1.352 . S
C302 H306 0.929 . S
C303 C299 1.393 . S
C303 C302 1.352 . S
C303 C307 1.482 . S
C304 C300 1.505 . S
C304 O308 1.259 . S
C304 O309 1.229 . S
H305 C299 0.931 . S
H306 C302 0.929 . S
C307 C303 1.482 . S
C307 O310 1.207 . S
C307 O311 1.289 . S
O308 C304 1.259 . S
O308 H312 0.822 . S
O309 C304 1.229 . S
O310 C307 1.207 . S
O311 C307 1.289 . S
O311 H313 0.819 . S
H312 O308 0.822 . S
H313 O311 0.819 . S
N314 Co278 1.869 . S
N314 C315 1.330 . S
N314 C319 1.325 . S
C315 N314 1.330 . S
C315 C316 1.359 . S
C315 C321 1.504 . S
C316 C315 1.359 . S
C316 C317 1.366 . S
C316 H350 0.929 . S
C317 C316 1.366 . S
C317 C318 1.415 . S
C317 H351 0.932 . S
C318 C317 1.415 . S
C318 C319 1.366 . S
C318 H352 0.931 . S
C319 N314 1.325 . S
C319 C318 1.366 . S
C319 C323 1.516 . S
N320 Co278 1.974 . S
N320 C321 1.309 . S
N320 C326 1.423 . S
C321 C315 1.504 . S
C321 N320 1.309 . S
C321 O322 1.258 . S
O322 C321 1.258 . S
C323 N296 1.316 . S
C323 C319 1.516 . S
C323 O336 1.263 . S
O324 Cd267 2.350 . S
O324 C340 1.270 . S
O325 Cd267 2.277 . S
O325 C340 1.248 . S
C326 N320 1.423 . S
C326 C327 1.370 . S
C326 C331 1.403 . S
C327 C326 1.370 . S
C327 C328 1.389 . S
C327 H353 0.931 . S
C328 C327 1.389 . S
C328 C329 1.389 . S
C329 C328 1.389 . S
C329 C330 1.379 . S
C329 H354 0.929 . S
C330 C329 1.379 . S
C330 C331 1.405 . S
C331 C326 1.403 . S
C331 C330 1.405 . S
C331 H355 0.932 . S
O332 Cd267 2.173 . S
O332 C268 1.277 . S
O333 C268 1.230 . S
O333 Cd271 2.250 . S
O334 Cd267 2.263 . S
O334 C287 1.258 . S
O335 Cd271 2.308 . S
O335 C287 1.274 . S
O336 Cd267 2.366 . S
O336 C323 1.263 . S
C337 O338 1.235 . S
C337 O339 1.270 . S
O338 Cd271 2.352 . S
O338 C337 1.235 . S
O339 Cd267 2.329 . S
O339 C337 1.270 . S
C340 O324 1.270 . S
C340 O325 1.248 . S
H341 C273 0.930 . S
H342 C276 0.930 . S
H343 C277 0.931 . S
H344 C282 0.929 . S
H345 C284 0.930 . S
H346 C286 0.930 . S
H347 C289 0.929 . S
H348 C290 0.932 . S
H349 C292 0.930 . S
H350 C316 0.929 . S
H351 C317 0.932 . S
H352 C318 0.931 . S
H353 C327 0.931 . S
H354 C329 0.929 . S
H355 C331 0.932 . S
Cd356 O413 2.350 . S
Cd356 O414 2.277 . S
Cd356 O421 2.173 . S
Cd356 O423 2.263 . S
Cd356 O425 2.366 . S
Cd356 O428 2.329 . S
C357 O421 1.277 . S
C357 O422 1.230 . S
C358 O359 1.246 . S
C358 C361 1.481 . S
C358 N383 1.329 . S
O359 C358 1.246 . S
Cd360 O422 2.250 . S
Cd360 O424 2.308 . S
Cd360 O427 2.352 . S
C361 C358 1.481 . S
C361 N364 1.327 . S
C361 C365 1.407 . S
C362 C363 1.346 . S
C362 C366 1.390 . S
C362 H430 0.930 . S
C363 C362 1.346 . S
C363 N364 1.342 . S
C363 C368 1.516 . S
N364 C361 1.327 . S
N364 C363 1.342 . S
N364 Co367 1.864 . S
C365 C361 1.407 . S
C365 C366 1.364 . S
C365 H431 0.930 . S
C366 C362 1.390 . S
C366 C365 1.364 . S
C366 H432 0.931 . S
Co367 N364 1.864 . S
Co367 N383 1.955 . S
Co367 N384 1.958 . S
Co367 N385 1.953 . S
Co367 N403 1.869 . S
Co367 N409 1.974 . S
C368 C363 1.516 . S
C368 O369 1.238 . S
C368 N384 1.324 . S
O369 C368 1.238 . S
C370 C371 1.394 . S
C370 C375 1.395 1_556 S
C370 N384 1.427 . S
C371 C370 1.394 . S
C371 C372 1.380 . S
C371 H433 0.929 . S
C372 C371 1.380 . S
C372 C373 1.384 1_556 S
C372 C376 1.495 . S
C373 C372 1.384 1_554 S
C373 C374 1.382 . S
C373 H434 0.930 . S
C374 C373 1.382 . S
C374 C375 1.398 . S
C375 C370 1.395 1_554 S
C375 C374 1.398 . S
C375 H435 0.930 . S
C376 C372 1.495 . S
C376 O423 1.258 . S
C376 O424 1.274 . S
C377 C378 1.385 . S
C377 C379 1.381 . S
C377 N383 1.432 . S
C378 C377 1.385 . S
C378 C382 1.388 . S
C378 H436 0.929 . S
C379 C377 1.381 . S
C379 C380 1.371 . S
C379 H437 0.932 . S
C380 C379 1.371 . S
C380 C381 1.400 . S
C381 C380 1.400 . S
C381 C382 1.351 . S
C381 H438 0.930 . S
C382 C378 1.388 . S
C382 C381 1.351 . S
N383 C358 1.329 . S
N383 Co367 1.955 . S
N383 C377 1.432 . S
N384 Co367 1.958 . S
N384 C368 1.324 . S
N384 C370 1.427 . S
N385 Co367 1.953 . S
N385 C386 1.436 . S
N385 C412 1.316 . S
C386 N385 1.436 . S
C386 C387 1.421 . S
C386 C388 1.360 . S
C387 C386 1.421 . S
C387 C389 1.379 . S
C387 H390 0.929 . S
C388 C386 1.360 . S
C388 C392 1.393 . S
C388 H394 0.931 . S
C389 C387 1.379 . S
C389 C391 1.417 . S
C389 C393 1.505 . S
H390 C387 0.929 . S
C391 C389 1.417 . S
C391 C392 1.352 . S
C391 H395 0.929 . S
C392 C388 1.393 . S
C392 C391 1.352 . S
C392 C396 1.482 . S
C393 C389 1.505 . S
C393 O397 1.259 . S
C393 O398 1.229 . S
H394 C388 0.931 . S
H395 C391 0.929 . S
C396 C392 1.482 . S
C396 O399 1.207 . S
C396 O400 1.289 . S
O397 C393 1.259 . S
O397 H401 0.822 . S
O398 C393 1.229 . S
O399 C396 1.207 . S
O400 C396 1.289 . S
O400 H402 0.819 . S
H401 O397 0.822 . S
H402 O400 0.819 . S
N403 Co367 1.869 . S
N403 C404 1.330 . S
N403 C408 1.325 . S
C404 N403 1.330 . S
C404 C405 1.359 . S
C404 C410 1.504 . S
C405 C404 1.359 . S
C405 C406 1.366 . S
C405 H439 0.929 . S
C406 C405 1.366 . S
C406 C407 1.415 . S
C406 H440 0.932 . S
C407 C406 1.415 . S
C407 C408 1.366 . S
C407 H441 0.931 . S
C408 N403 1.325 . S
C408 C407 1.366 . S
C408 C412 1.516 . S
N409 Co367 1.974 . S
N409 C410 1.309 . S
N409 C415 1.423 . S
C410 C404 1.504 . S
C410 N409 1.309 . S
C410 O411 1.258 . S
O411 C410 1.258 . S
C412 N385 1.316 . S
C412 C408 1.516 . S
C412 O425 1.263 . S
O413 Cd356 2.350 . S
O413 C429 1.270 . S
O414 Cd356 2.277 . S
O414 C429 1.248 . S
C415 N409 1.423 . S
C415 C416 1.370 . S
C415 C420 1.403 . S
C416 C415 1.370 . S
C416 C417 1.389 . S
C416 H442 0.931 . S
C417 C416 1.389 . S
C417 C418 1.389 . S
C418 C417 1.389 . S
C418 C419 1.379 . S
C418 H443 0.929 . S
C419 C418 1.379 . S
C419 C420 1.405 . S
C420 C415 1.403 . S
C420 C419 1.405 . S
C420 H444 0.932 . S
O421 Cd356 2.173 . S
O421 C357 1.277 . S
O422 C357 1.230 . S
O422 Cd360 2.250 . S
O423 Cd356 2.263 . S
O423 C376 1.258 . S
O424 Cd360 2.308 . S
O424 C376 1.274 . S
O425 Cd356 2.366 . S
O425 C412 1.263 . S
C426 O427 1.235 . S
C426 O428 1.270 . S
O427 Cd360 2.352 . S
O427 C426 1.235 . S
O428 Cd356 2.329 . S
O428 C426 1.270 . S
C429 O413 1.270 . S
C429 O414 1.248 . S
H430 C362 0.930 . S
H431 C365 0.930 . S
H432 C366 0.931 . S
H433 C371 0.929 . S
H434 C373 0.930 . S
H435 C375 0.930 . S
H436 C378 0.929 . S
H437 C379 0.932 . S
H438 C381 0.930 . S
H439 C405 0.929 . S
H440 C406 0.932 . S
H441 C407 0.931 . S
H442 C416 0.931 . S
H443 C418 0.929 . S
H444 C420 0.932 . S
Cd445 O502 2.350 . S
Cd445 O503 2.277 . S
Cd445 O510 2.173 . S
Cd445 O512 2.263 . S
Cd445 O514 2.366 . S
Cd445 O517 2.329 . S
C446 O510 1.277 . S
C446 O511 1.230 . S
C447 O448 1.246 . S
C447 C450 1.481 . S
C447 N472 1.329 . S
O448 C447 1.246 . S
Cd449 O511 2.250 . S
Cd449 O513 2.308 . S
Cd449 O516 2.352 . S
C450 C447 1.481 . S
C450 N453 1.327 . S
C450 C454 1.407 . S
C451 C452 1.346 . S
C451 C455 1.390 . S
C451 H519 0.930 . S
C452 C451 1.346 . S
C452 N453 1.342 . S
C452 C457 1.516 . S
N453 C450 1.327 . S
N453 C452 1.342 . S
N453 Co456 1.864 . S
C454 C450 1.407 . S
C454 C455 1.364 . S
C454 H520 0.930 . S
C455 C451 1.390 . S
C455 C454 1.364 . S
C455 H521 0.931 . S
Co456 N453 1.864 . S
Co456 N472 1.955 . S
Co456 N473 1.958 . S
Co456 N474 1.953 . S
Co456 N492 1.869 . S
Co456 N498 1.974 . S
C457 C452 1.516 . S
C457 O458 1.238 . S
C457 N473 1.324 . S
O458 C457 1.238 . S
C459 C460 1.394 . S
C459 C464 1.395 1_556 S
C459 N473 1.427 . S
C460 C459 1.394 . S
C460 C461 1.380 . S
C460 H522 0.929 . S
C461 C460 1.380 . S
C461 C462 1.384 1_556 S
C461 C465 1.495 . S
C462 C461 1.384 1_554 S
C462 C463 1.382 . S
C462 H523 0.930 . S
C463 C462 1.382 . S
C463 C464 1.398 . S
C464 C459 1.395 1_554 S
C464 C463 1.398 . S
C464 H524 0.930 . S
C465 C461 1.495 . S
C465 O512 1.258 . S
C465 O513 1.274 . S
C466 C467 1.385 . S
C466 C468 1.381 . S
C466 N472 1.432 . S
C467 C466 1.385 . S
C467 C471 1.388 . S
C467 H525 0.929 . S
C468 C466 1.381 . S
C468 C469 1.371 . S
C468 H526 0.932 . S
C469 C468 1.371 . S
C469 C470 1.400 . S
C470 C469 1.400 . S
C470 C471 1.351 . S
C470 H527 0.930 . S
C471 C467 1.388 . S
C471 C470 1.351 . S
N472 C447 1.329 . S
N472 Co456 1.955 . S
N472 C466 1.432 . S
N473 Co456 1.958 . S
N473 C457 1.324 . S
N473 C459 1.427 . S
N474 Co456 1.953 . S
N474 C475 1.436 . S
N474 C501 1.316 . S
C475 N474 1.436 . S
C475 C476 1.421 . S
C475 C477 1.360 . S
C476 C475 1.421 . S
C476 C478 1.379 . S
C476 H479 0.929 . S
C477 C475 1.360 . S
C477 C481 1.393 . S
C477 H483 0.931 . S
C478 C476 1.379 . S
C478 C480 1.417 . S
C478 C482 1.505 . S
H479 C476 0.929 . S
C480 C478 1.417 . S
C480 C481 1.352 . S
C480 H484 0.929 . S
C481 C477 1.393 . S
C481 C480 1.352 . S
C481 C485 1.482 . S
C482 C478 1.505 . S
C482 O486 1.259 . S
C482 O487 1.229 . S
H483 C477 0.931 . S
H484 C480 0.929 . S
C485 C481 1.482 . S
C485 O488 1.207 . S
C485 O489 1.289 . S
O486 C482 1.259 . S
O486 H490 0.822 . S
O487 C482 1.229 . S
O488 C485 1.207 . S
O489 C485 1.289 . S
O489 H491 0.819 . S
H490 O486 0.822 . S
H491 O489 0.819 . S
N492 Co456 1.869 . S
N492 C493 1.330 . S
N492 C497 1.325 . S
C493 N492 1.330 . S
C493 C494 1.359 . S
C493 C499 1.504 . S
C494 C493 1.359 . S
C494 C495 1.366 . S
C494 H528 0.929 . S
C495 C494 1.366 . S
C495 C496 1.415 . S
C495 H529 0.932 . S
C496 C495 1.415 . S
C496 C497 1.366 . S
C496 H530 0.931 . S
C497 N492 1.325 . S
C497 C496 1.366 . S
C497 C501 1.516 . S
N498 Co456 1.974 . S
N498 C499 1.309 . S
N498 C504 1.423 . S
C499 C493 1.504 . S
C499 N498 1.309 . S
C499 O500 1.258 . S
O500 C499 1.258 . S
C501 N474 1.316 . S
C501 C497 1.516 . S
C501 O514 1.263 . S
O502 Cd445 2.350 . S
O502 C518 1.270 . S
O503 Cd445 2.277 . S
O503 C518 1.248 . S
C504 N498 1.423 . S
C504 C505 1.370 . S
C504 C509 1.403 . S
C505 C504 1.370 . S
C505 C506 1.389 . S
C505 H531 0.931 . S
C506 C505 1.389 . S
C506 C507 1.389 . S
C507 C506 1.389 . S
C507 C508 1.379 . S
C507 H532 0.929 . S
C508 C507 1.379 . S
C508 C509 1.405 . S
C509 C504 1.403 . S
C509 C508 1.405 . S
C509 H533 0.932 . S
O510 Cd445 2.173 . S
O510 C446 1.277 . S
O511 C446 1.230 . S
O511 Cd449 2.250 . S
O512 Cd445 2.263 . S
O512 C465 1.258 . S
O513 Cd449 2.308 . S
O513 C465 1.274 . S
O514 Cd445 2.366 . S
O514 C501 1.263 . S
C515 O516 1.235 . S
C515 O517 1.270 . S
O516 Cd449 2.352 . S
O516 C515 1.235 . S
O517 Cd445 2.329 . S
O517 C515 1.270 . S
C518 O502 1.270 . S
C518 O503 1.248 . S
H519 C451 0.930 . S
H520 C454 0.930 . S
H521 C455 0.931 . S
H522 C460 0.929 . S
H523 C462 0.930 . S
H524 C464 0.930 . S
H525 C467 0.929 . S
H526 C468 0.932 . S
H527 C470 0.930 . S
H528 C494 0.929 . S
H529 C495 0.932 . S
H530 C496 0.931 . S
H531 C505 0.931 . S
H532 C507 0.929 . S
H533 C509 0.932 . S
Cd534 O591 2.350 . S
Cd534 O592 2.277 . S
Cd534 O599 2.173 . S
Cd534 O601 2.263 . S
Cd534 O603 2.366 . S
Cd534 O606 2.329 . S
C535 O599 1.277 . S
C535 O600 1.230 . S
C536 O537 1.246 . S
C536 C539 1.481 . S
C536 N561 1.329 . S
O537 C536 1.246 . S
Cd538 O600 2.250 . S
Cd538 O602 2.308 . S
Cd538 O605 2.352 . S
C539 C536 1.481 . S
C539 N542 1.327 . S
C539 C543 1.407 . S
C540 C541 1.346 . S
C540 C544 1.390 . S
C540 H608 0.930 . S
C541 C540 1.346 . S
C541 N542 1.342 . S
C541 C546 1.516 . S
N542 C539 1.327 . S
N542 C541 1.342 . S
N542 Co545 1.864 . S
C543 C539 1.407 . S
C543 C544 1.364 . S
C543 H609 0.930 . S
C544 C540 1.390 . S
C544 C543 1.364 . S
C544 H610 0.931 . S
Co545 N542 1.864 . S
Co545 N561 1.955 . S
Co545 N562 1.958 . S
Co545 N563 1.953 . S
Co545 N581 1.869 . S
Co545 N587 1.974 . S
C546 C541 1.516 . S
C546 O547 1.238 . S
C546 N562 1.324 . S
O547 C546 1.238 . S
C548 C549 1.394 . S
C548 C553 1.395 . S
C548 N562 1.427 . S
C549 C548 1.394 . S
C549 C550 1.380 . S
C549 H611 0.929 . S
C550 C549 1.380 . S
C550 C551 1.384 . S
C550 C554 1.495 . S
C551 C550 1.384 . S
C551 C552 1.382 . S
C551 H612 0.930 . S
C552 C551 1.382 . S
C552 C553 1.398 . S
C553 C548 1.395 . S
C553 C552 1.398 . S
C553 H613 0.930 . S
C554 C550 1.495 . S
C554 O601 1.258 . S
C554 O602 1.274 . S
C555 C556 1.385 . S
C555 C557 1.381 . S
C555 N561 1.432 . S
C556 C555 1.385 . S
C556 C560 1.388 . S
C556 H614 0.929 . S
C557 C555 1.381 . S
C557 C558 1.371 . S
C557 H615 0.932 . S
C558 C557 1.371 . S
C558 C559 1.400 . S
C559 C558 1.400 . S
C559 C560 1.351 . S
C559 H616 0.930 . S
C560 C556 1.388 . S
C560 C559 1.351 . S
N561 C536 1.329 . S
N561 Co545 1.955 . S
N561 C555 1.432 . S
N562 Co545 1.958 . S
N562 C546 1.324 . S
N562 C548 1.427 . S
N563 Co545 1.953 . S
N563 C564 1.436 . S
N563 C590 1.316 . S
C564 N563 1.436 . S
C564 C565 1.421 . S
C564 C566 1.360 . S
C565 C564 1.421 . S
C565 C567 1.379 . S
C565 H568 0.929 . S
C566 C564 1.360 . S
C566 C570 1.393 . S
C566 H572 0.931 . S
C567 C565 1.379 . S
C567 C569 1.417 . S
C567 C571 1.505 . S
H568 C565 0.929 . S
C569 C567 1.417 . S
C569 C570 1.352 . S
C569 H573 0.929 . S
C570 C566 1.393 . S
C570 C569 1.352 . S
C570 C574 1.482 . S
C571 C567 1.505 . S
C571 O575 1.259 . S
C571 O576 1.229 . S
H572 C566 0.931 . S
H573 C569 0.929 . S
C574 C570 1.482 . S
C574 O577 1.207 . S
C574 O578 1.289 . S
O575 C571 1.259 . S
O575 H579 0.822 . S
O576 C571 1.229 . S
O577 C574 1.207 . S
O578 C574 1.289 . S
O578 H580 0.819 . S
H579 O575 0.822 . S
H580 O578 0.819 . S
N581 Co545 1.869 . S
N581 C582 1.330 . S
N581 C586 1.325 . S
C582 N581 1.330 . S
C582 C583 1.359 . S
C582 C588 1.504 . S
C583 C582 1.359 . S
C583 C584 1.366 . S
C583 H617 0.929 . S
C584 C583 1.366 . S
C584 C585 1.415 . S
C584 H618 0.932 . S
C585 C584 1.415 . S
C585 C586 1.366 . S
C585 H619 0.931 . S
C586 N581 1.325 . S
C586 C585 1.366 . S
C586 C590 1.516 . S
N587 Co545 1.974 . S
N587 C588 1.309 . S
N587 C593 1.423 . S
C588 C582 1.504 . S
C588 N587 1.309 . S
C588 O589 1.258 . S
O589 C588 1.258 . S
C590 N563 1.316 . S
C590 C586 1.516 . S
C590 O603 1.263 . S
O591 Cd534 2.350 . S
O591 C607 1.270 . S
O592 Cd534 2.277 . S
O592 C607 1.248 . S
C593 N587 1.423 . S
C593 C594 1.370 . S
C593 C598 1.403 . S
C594 C593 1.370 . S
C594 C595 1.389 . S
C594 H620 0.931 . S
C595 C594 1.389 . S
C595 C596 1.389 . S
C596 C595 1.389 . S
C596 C597 1.379 . S
C596 H621 0.929 . S
C597 C596 1.379 . S
C597 C598 1.405 . S
C598 C593 1.403 . S
C598 C597 1.405 . S
C598 H622 0.932 . S
O599 Cd534 2.173 . S
O599 C535 1.277 . S
O600 C535 1.230 . S
O600 Cd538 2.250 . S
O601 Cd534 2.263 . S
O601 C554 1.258 . S
O602 Cd538 2.308 . S
O602 C554 1.274 . S
O603 Cd534 2.366 . S
O603 C590 1.263 . S
C604 O605 1.235 . S
C604 O606 1.270 . S
O605 Cd538 2.352 . S
O605 C604 1.235 . S
O606 Cd534 2.329 . S
O606 C604 1.270 . S
C607 O591 1.270 . S
C607 O592 1.248 . S
H608 C540 0.930 . S
H609 C543 0.930 . S
H610 C544 0.931 . S
H611 C549 0.929 . S
H612 C551 0.930 . S
H613 C553 0.930 . S
H614 C556 0.929 . S
H615 C557 0.932 . S
H616 C559 0.930 . S
H617 C583 0.929 . S
H618 C584 0.932 . S
H619 C585 0.931 . S
H620 C594 0.931 . S
H621 C596 0.929 . S
H622 C598 0.932 . S
Cd623 O680 2.350 . S
Cd623 O681 2.277 . S
Cd623 O688 2.173 . S
Cd623 O690 2.263 . S
Cd623 O692 2.366 . S
Cd623 O695 2.329 . S
C624 O688 1.277 . S
C624 O689 1.230 . S
C625 O626 1.246 . S
C625 C628 1.481 . S
C625 N650 1.329 . S
O626 C625 1.246 . S
Cd627 O689 2.250 . S
Cd627 O691 2.308 . S
Cd627 O694 2.352 . S
C628 C625 1.481 . S
C628 N631 1.327 . S
C628 C632 1.407 . S
C629 C630 1.346 . S
C629 C633 1.390 . S
C629 H697 0.930 . S
C630 C629 1.346 . S
C630 N631 1.342 . S
C630 C635 1.516 1_565 S
N631 C628 1.327 . S
N631 C630 1.342 . S
N631 Co634 1.864 1_565 S
C632 C628 1.407 . S
C632 C633 1.364 . S
C632 H698 0.930 . S
C633 C629 1.390 . S
C633 C632 1.364 . S
C633 H699 0.931 . S
Co634 N631 1.864 1_545 S
Co634 N650 1.955 1_545 S
Co634 N651 1.958 . S
Co634 N652 1.953 . S
Co634 N670 1.869 . S
Co634 N676 1.974 1_545 S
C635 C630 1.516 1_545 S
C635 O636 1.238 . S
C635 N651 1.324 . S
O636 C635 1.238 . S
C637 C638 1.394 . S
C637 C642 1.395 . S
C637 N651 1.427 . S
C638 C637 1.394 . S
C638 C639 1.380 . S
C638 H700 0.929 . S
C639 C638 1.380 . S
C639 C640 1.384 . S
C639 C643 1.495 . S
C640 C639 1.384 . S
C640 C641 1.382 . S
C640 H701 0.930 . S
C641 C640 1.382 . S
C641 C642 1.398 . S
C642 C637 1.395 . S
C642 C641 1.398 . S
C642 H702 0.930 . S
C643 C639 1.495 . S
C643 O690 1.258 . S
C643 O691 1.274 . S
C644 C645 1.385 1_565 S
C644 C646 1.381 . S
C644 N650 1.432 . S
C645 C644 1.385 1_545 S
C645 C649 1.388 . S
C645 H703 0.929 . S
C646 C644 1.381 . S
C646 C647 1.371 1_565 S
C646 H704 0.932 . S
C647 C646 1.371 1_545 S
C647 C648 1.400 . S
C648 C647 1.400 . S
C648 C649 1.351 . S
C648 H705 0.930 . S
C649 C645 1.388 . S
C649 C648 1.351 . S
N650 C625 1.329 . S
N650 Co634 1.955 1_565 S
N650 C644 1.432 . S
N651 Co634 1.958 . S
N651 C635 1.324 . S
N651 C637 1.427 . S
N652 Co634 1.953 . S
N652 C653 1.436 . S
N652 C679 1.316 . S
C653 N652 1.436 . S
C653 C654 1.421 . S
C653 C655 1.360 . S
C654 C653 1.421 . S
C654 C656 1.379 . S
C654 H657 0.929 . S
C655 C653 1.360 . S
C655 C659 1.393 . S
C655 H661 0.931 . S
C656 C654 1.379 . S
C656 C658 1.417 . S
C656 C660 1.505 . S
H657 C654 0.929 . S
C658 C656 1.417 . S
C658 C659 1.352 . S
C658 H662 0.929 . S
C659 C655 1.393 . S
C659 C658 1.352 . S
C659 C663 1.482 . S
C660 C656 1.505 . S
C660 O664 1.259 . S
C660 O665 1.229 . S
H661 C655 0.931 . S
H662 C658 0.929 . S
C663 C659 1.482 . S
C663 O666 1.207 . S
C663 O667 1.289 . S
O664 C660 1.259 . S
O664 H668 0.822 . S
O665 C660 1.229 . S
O666 C663 1.207 . S
O667 C663 1.289 . S
O667 H669 0.819 . S
H668 O664 0.822 . S
H669 O667 0.819 . S
N670 Co634 1.869 . S
N670 C671 1.330 . S
N670 C675 1.325 . S
C671 N670 1.330 . S
C671 C672 1.359 . S
C671 C677 1.504 1_545 S
C672 C671 1.359 . S
C672 C673 1.366 . S
C672 H706 0.929 . S
C673 C672 1.366 . S
C673 C674 1.415 . S
C673 H707 0.932 . S
C674 C673 1.415 . S
C674 C675 1.366 . S
C674 H708 0.931 . S
C675 N670 1.325 . S
C675 C674 1.366 . S
C675 C679 1.516 . S
N676 Co634 1.974 1_565 S
N676 C677 1.309 . S
N676 C682 1.423 . S
C677 C671 1.504 1_565 S
C677 N676 1.309 . S
C677 O678 1.258 . S
O678 C677 1.258 . S
C679 N652 1.316 . S
C679 C675 1.516 . S
C679 O692 1.263 . S
O680 Cd623 2.350 . S
O680 C696 1.270 . S
O681 Cd623 2.277 . S
O681 C696 1.248 . S
C682 N676 1.423 . S
C682 C683 1.370 . S
C682 C687 1.403 . S
C683 C682 1.370 . S
C683 C684 1.389 . S
C683 H709 0.931 . S
C684 C683 1.389 . S
C684 C685 1.389 . S
C685 C684 1.389 . S
C685 C686 1.379 . S
C685 H710 0.929 . S
C686 C685 1.379 . S
C686 C687 1.405 . S
C687 C682 1.403 . S
C687 C686 1.405 . S
C687 H711 0.932 . S
O688 Cd623 2.173 . S
O688 C624 1.277 . S
O689 C624 1.230 . S
O689 Cd627 2.250 . S
O690 Cd623 2.263 . S
O690 C643 1.258 . S
O691 Cd627 2.308 . S
O691 C643 1.274 . S
O692 Cd623 2.366 . S
O692 C679 1.263 . S
C693 O694 1.235 . S
C693 O695 1.270 . S
O694 Cd627 2.352 . S
O694 C693 1.235 . S
O695 Cd623 2.329 . S
O695 C693 1.270 . S
C696 O680 1.270 . S
C696 O681 1.248 . S
H697 C629 0.930 . S
H698 C632 0.930 . S
H699 C633 0.931 . S
H700 C638 0.929 . S
H701 C640 0.930 . S
H702 C642 0.930 . S
H703 C645 0.929 . S
H704 C646 0.932 . S
H705 C648 0.930 . S
H706 C672 0.929 . S
H707 C673 0.932 . S
H708 C674 0.931 . S
H709 C683 0.931 . S
H710 C685 0.929 . S
H711 C687 0.932 . S
Cd712 O769 2.350 . S
Cd712 O770 2.277 . S
Cd712 O777 2.173 . S
Cd712 O779 2.263 . S
Cd712 O781 2.366 . S
Cd712 O784 2.329 . S
C713 O777 1.277 . S
C713 O778 1.230 . S
C714 O715 1.246 . S
C714 C717 1.481 . S
C714 N739 1.329 . S
O715 C714 1.246 . S
Cd716 O778 2.250 . S
Cd716 O780 2.308 . S
Cd716 O783 2.352 . S
C717 C714 1.481 . S
C717 N720 1.327 . S
C717 C721 1.407 . S
C718 C719 1.346 . S
C718 C722 1.390 . S
C718 H786 0.930 . S
C719 C718 1.346 . S
C719 N720 1.342 . S
C719 C724 1.516 1_455 S
N720 C717 1.327 . S
N720 C719 1.342 . S
N720 Co723 1.864 1_455 S
C721 C717 1.407 . S
C721 C722 1.364 . S
C721 H787 0.930 . S
C722 C718 1.390 . S
C722 C721 1.364 . S
C722 H788 0.931 . S
Co723 N720 1.864 1_655 S
Co723 N739 1.955 1_655 S
Co723 N740 1.958 . S
Co723 N741 1.953 . S
Co723 N759 1.869 . S
Co723 N765 1.974 1_655 S
C724 C719 1.516 1_655 S
C724 O725 1.238 . S
C724 N740 1.324 . S
O725 C724 1.238 . S
C726 C727 1.394 . S
C726 C731 1.395 . S
C726 N740 1.427 . S
C727 C726 1.394 . S
C727 C728 1.380 . S
C727 H789 0.929 . S
C728 C727 1.380 . S
C728 C729 1.384 . S
C728 C732 1.495 . S
C729 C728 1.384 . S
C729 C730 1.382 . S
C729 H790 0.930 . S
C730 C729 1.382 . S
C730 C731 1.398 . S
C731 C726 1.395 . S
C731 C730 1.398 . S
C731 H791 0.930 . S
C732 C728 1.495 . S
C732 O779 1.258 . S
C732 O780 1.274 . S
C733 C734 1.385 1_455 S
C733 C735 1.381 . S
C733 N739 1.432 . S
C734 C733 1.385 1_655 S
C734 C738 1.388 . S
C734 H792 0.929 . S
C735 C733 1.381 . S
C735 C736 1.371 1_455 S
C735 H793 0.932 . S
C736 C735 1.371 1_655 S
C736 C737 1.400 . S
C737 C736 1.400 . S
C737 C738 1.351 . S
C737 H794 0.930 . S
C738 C734 1.388 . S
C738 C737 1.351 . S
N739 C714 1.329 . S
N739 Co723 1.955 1_455 S
N739 C733 1.432 . S
N740 Co723 1.958 . S
N740 C724 1.324 . S
N740 C726 1.427 . S
N741 Co723 1.953 . S
N741 C742 1.436 . S
N741 C768 1.316 . S
C742 N741 1.436 . S
C742 C743 1.421 . S
C742 C744 1.360 . S
C743 C742 1.421 . S
C743 C745 1.379 . S
C743 H746 0.929 . S
C744 C742 1.360 . S
C744 C748 1.393 . S
C744 H750 0.931 . S
C745 C743 1.379 . S
C745 C747 1.417 . S
C745 C749 1.505 . S
H746 C743 0.929 . S
C747 C745 1.417 . S
C747 C748 1.352 . S
C747 H751 0.929 . S
C748 C744 1.393 . S
C748 C747 1.352 . S
C748 C752 1.482 . S
C749 C745 1.505 . S
C749 O753 1.259 . S
C749 O754 1.229 . S
H750 C744 0.931 . S
H751 C747 0.929 . S
C752 C748 1.482 . S
C752 O755 1.207 . S
C752 O756 1.289 . S
O753 C749 1.259 . S
O753 H757 0.822 . S
O754 C749 1.229 . S
O755 C752 1.207 . S
O756 C752 1.289 . S
O756 H758 0.819 . S
H757 O753 0.822 . S
H758 O756 0.819 . S
N759 Co723 1.869 . S
N759 C760 1.330 . S
N759 C764 1.325 . S
C760 N759 1.330 . S
C760 C761 1.359 . S
C760 C766 1.504 1_655 S
C761 C760 1.359 . S
C761 C762 1.366 . S
C761 H795 0.929 . S
C762 C761 1.366 . S
C762 C763 1.415 . S
C762 H796 0.932 . S
C763 C762 1.415 . S
C763 C764 1.366 . S
C763 H797 0.931 . S
C764 N759 1.325 . S
C764 C763 1.366 . S
C764 C768 1.516 . S
N765 Co723 1.974 1_455 S
N765 C766 1.309 . S
N765 C771 1.423 . S
C766 C760 1.504 1_455 S
C766 N765 1.309 . S
C766 O767 1.258 . S
O767 C766 1.258 . S
C768 N741 1.316 . S
C768 C764 1.516 . S
C768 O781 1.263 . S
O769 Cd712 2.350 . S
O769 C785 1.270 . S
O770 Cd712 2.277 . S
O770 C785 1.248 . S
C771 N765 1.423 . S
C771 C772 1.370 . S
C771 C776 1.403 . S
C772 C771 1.370 . S
C772 C773 1.389 . S
C772 H798 0.931 . S
C773 C772 1.389 . S
C773 C774 1.389 . S
C774 C773 1.389 . S
C774 C775 1.379 . S
C774 H799 0.929 . S
C775 C774 1.379 . S
C775 C776 1.405 . S
C776 C771 1.403 . S
C776 C775 1.405 . S
C776 H800 0.932 . S
O777 Cd712 2.173 . S
O777 C713 1.277 . S
O778 C713 1.230 . S
O778 Cd716 2.250 . S
O779 Cd712 2.263 . S
O779 C732 1.258 . S
O780 Cd716 2.308 . S
O780 C732 1.274 . S
O781 Cd712 2.366 . S
O781 C768 1.263 . S
C782 O783 1.235 . S
C782 O784 1.270 . S
O783 Cd716 2.352 . S
O783 C782 1.235 . S
O784 Cd712 2.329 . S
O784 C782 1.270 . S
C785 O769 1.270 . S
C785 O770 1.248 . S
H786 C718 0.930 . S
H787 C721 0.930 . S
H788 C722 0.931 . S
H789 C727 0.929 . S
H790 C729 0.930 . S
H791 C731 0.930 . S
H792 C734 0.929 . S
H793 C735 0.932 . S
H794 C737 0.930 . S
H795 C761 0.929 . S
H796 C762 0.932 . S
H797 C763 0.931 . S
H798 C772 0.931 . S
H799 C774 0.929 . S
H800 C776 0.932 . S
Cd801 O858 2.350 . S
Cd801 O859 2.277 . S
Cd801 O866 2.173 . S
Cd801 O868 2.263 . S
Cd801 O870 2.366 . S
Cd801 O873 2.329 . S
C802 O866 1.277 . S
C802 O867 1.230 . S
C803 O804 1.246 1_554 S
C803 C806 1.481 . S
C803 N828 1.329 . S
O804 C803 1.246 1_556 S
Cd805 O867 2.250 . S
Cd805 O869 2.308 . S
Cd805 O872 2.352 . S
C806 C803 1.481 . S
C806 N809 1.327 . S
C806 C810 1.407 . S
C807 C808 1.346 . S
C807 C811 1.390 . S
C807 H875 0.930 . S
C808 C807 1.346 . S
C808 N809 1.342 . S
C808 C813 1.516 . S
N809 C806 1.327 . S
N809 C808 1.342 . S
N809 Co812 1.864 . S
C810 C806 1.407 . S
C810 C811 1.364 . S
C810 H876 0.930 . S
C811 C807 1.390 . S
C811 C810 1.364 . S
C811 H877 0.931 . S
Co812 N809 1.864 . S
Co812 N828 1.955 . S
Co812 N829 1.958 . S
Co812 N830 1.953 . S
Co812 N848 1.869 . S
Co812 N854 1.974 . S
C813 C808 1.516 . S
C813 O814 1.238 . S
C813 N829 1.324 . S
O814 C813 1.238 . S
C815 C816 1.394 . S
C815 C820 1.395 . S
C815 N829 1.427 . S
C816 C815 1.394 . S
C816 C817 1.380 . S
C816 H878 0.929 . S
C817 C816 1.380 . S
C817 C818 1.384 . S
C817 C821 1.495 . S
C818 C817 1.384 . S
C818 C819 1.382 . S
C818 H879 0.930 . S
C819 C818 1.382 . S
C819 C820 1.398 . S
C820 C815 1.395 . S
C820 C819 1.398 . S
C820 H880 0.930 . S
C821 C817 1.495 . S
C821 O868 1.258 . S
C821 O869 1.274 . S
C822 C823 1.385 1_554 S
C822 C824 1.381 . S
C822 N828 1.432 . S
C823 C822 1.385 1_556 S
C823 C827 1.388 . S
C823 H881 0.929 . S
C824 C822 1.381 . S
C824 C825 1.371 1_554 S
C824 H882 0.932 . S
C825 C824 1.371 1_556 S
C825 C826 1.400 . S
C826 C825 1.400 . S
C826 C827 1.351 . S
C826 H883 0.930 . S
C827 C823 1.388 . S
C827 C826 1.351 . S
N828 C803 1.329 . S
N828 Co812 1.955 . S
N828 C822 1.432 . S
N829 Co812 1.958 . S
N829 C813 1.324 . S
N829 C815 1.427 . S
N830 Co812 1.953 . S
N830 C831 1.436 . S
N830 C857 1.316 . S
C831 N830 1.436 . S
C831 C832 1.421 . S
C831 C833 1.360 . S
C832 C831 1.421 . S
C832 C834 1.379 1_554 S
C832 H835 0.929 1_554 S
C833 C831 1.360 . S
C833 C837 1.393 . S
C833 H839 0.931 . S
C834 C832 1.379 1_556 S
C834 C836 1.417 1_556 S
C834 C838 1.505 . S
H835 C832 0.929 1_556 S
C836 C834 1.417 1_554 S
C836 C837 1.352 . S
C836 H840 0.929 . S
C837 C833 1.393 . S
C837 C836 1.352 . S
C837 C841 1.482 . S
C838 C834 1.505 . S
C838 O842 1.259 . S
C838 O843 1.229 . S
H839 C833 0.931 . S
H840 C836 0.929 . S
C841 C837 1.482 . S
C841 O844 1.207 . S
C841 O845 1.289 . S
O842 C838 1.259 . S
O842 H846 0.822 . S
O843 C838 1.229 . S
O844 C841 1.207 . S
O845 C841 1.289 . S
O845 H847 0.819 . S
H846 O842 0.822 . S
H847 O845 0.819 . S
N848 Co812 1.869 . S
N848 C849 1.330 . S
N848 C853 1.325 . S
C849 N848 1.330 . S
C849 C850 1.359 . S
C849 C855 1.504 . S
C850 C849 1.359 . S
C850 C851 1.366 . S
C850 H884 0.929 . S
C851 C850 1.366 . S
C851 C852 1.415 . S
C851 H885 0.932 . S
C852 C851 1.415 . S
C852 C853 1.366 . S
C852 H886 0.931 . S
C853 N848 1.325 . S
C853 C852 1.366 . S
C853 C857 1.516 . S
N854 Co812 1.974 . S
N854 C855 1.309 . S
N854 C860 1.423 . S
C855 C849 1.504 . S
C855 N854 1.309 . S
C855 O856 1.258 . S
O856 C855 1.258 . S
C857 N830 1.316 . S
C857 C853 1.516 . S
C857 O870 1.263 . S
O858 Cd801 2.350 . S
O858 C874 1.270 . S
O859 Cd801 2.277 . S
O859 C874 1.248 . S
C860 N854 1.423 . S
C860 C861 1.370 . S
C860 C865 1.403 . S
C861 C860 1.370 . S
C861 C862 1.389 . S
C861 H887 0.931 . S
C862 C861 1.389 . S
C862 C863 1.389 . S
C863 C862 1.389 . S
C863 C864 1.379 . S
C863 H888 0.929 . S
C864 C863 1.379 . S
C864 C865 1.405 . S
C865 C860 1.403 . S
C865 C864 1.405 . S
C865 H889 0.932 . S
O866 Cd801 2.173 . S
O866 C802 1.277 . S
O867 C802 1.230 . S
O867 Cd805 2.250 . S
O868 Cd801 2.263 . S
O868 C821 1.258 . S
O869 Cd805 2.308 . S
O869 C821 1.274 . S
O870 Cd801 2.366 . S
O870 C857 1.263 . S
C871 O872 1.235 . S
C871 O873 1.270 . S
O872 Cd805 2.352 . S
O872 C871 1.235 . S
O873 Cd801 2.329 . S
O873 C871 1.270 . S
C874 O858 1.270 . S
C874 O859 1.248 . S
H875 C807 0.930 . S
H876 C810 0.930 . S
H877 C811 0.931 . S
H878 C816 0.929 . S
H879 C818 0.930 . S
H880 C820 0.930 . S
H881 C823 0.929 . S
H882 C824 0.932 . S
H883 C826 0.930 . S
H884 C850 0.929 . S
H885 C851 0.932 . S
H886 C852 0.931 . S
H887 C861 0.931 . S
H888 C863 0.929 . S
H889 C865 0.932 . S
Cd890 O947 2.350 . S
Cd890 O948 2.277 . S
Cd890 O955 2.173 . S
Cd890 O957 2.263 . S
Cd890 O959 2.366 . S
Cd890 O962 2.329 . S
C891 O955 1.277 . S
C891 O956 1.230 . S
C892 O893 1.246 1_554 S
C892 C895 1.481 . S
C892 N917 1.329 . S
O893 C892 1.246 1_556 S
Cd894 O956 2.250 . S
Cd894 O958 2.308 . S
Cd894 O961 2.352 . S
C895 C892 1.481 . S
C895 N898 1.327 . S
C895 C899 1.407 . S
C896 C897 1.346 . S
C896 C900 1.390 . S
C896 H964 0.930 . S
C897 C896 1.346 . S
C897 N898 1.342 . S
C897 C902 1.516 . S
N898 C895 1.327 . S
N898 C897 1.342 . S
N898 Co901 1.864 . S
C899 C895 1.407 . S
C899 C900 1.364 . S
C899 H965 0.930 . S
C900 C896 1.390 . S
C900 C899 1.364 . S
C900 H966 0.931 . S
Co901 N898 1.864 . S
Co901 N917 1.955 . S
Co901 N918 1.958 . S
Co901 N919 1.953 . S
Co901 N937 1.869 . S
Co901 N943 1.974 . S
C902 C897 1.516 . S
C902 O903 1.238 . S
C902 N918 1.324 . S
O903 C902 1.238 . S
C904 C905 1.394 . S
C904 C909 1.395 . S
C904 N918 1.427 . S
C905 C904 1.394 . S
C905 C906 1.380 . S
C905 H967 0.929 . S
C906 C905 1.380 . S
C906 C907 1.384 . S
C906 C910 1.495 . S
C907 C906 1.384 . S
C907 C908 1.382 . S
C907 H968 0.930 . S
C908 C907 1.382 . S
C908 C909 1.398 . S
C909 C904 1.395 . S
C909 C908 1.398 . S
C909 H969 0.930 . S
C910 C906 1.495 . S
C910 O957 1.258 . S
C910 O958 1.274 . S
C911 C912 1.385 1_554 S
C911 C913 1.381 . S
C911 N917 1.432 . S
C912 C911 1.385 1_556 S
C912 C916 1.388 . S
C912 H970 0.929 . S
C913 C911 1.381 . S
C913 C914 1.371 1_554 S
C913 H971 0.932 . S
C914 C913 1.371 1_556 S
C914 C915 1.400 . S
C915 C914 1.400 . S
C915 C916 1.351 . S
C915 H972 0.930 . S
C916 C912 1.388 . S
C916 C915 1.351 . S
N917 C892 1.329 . S
N917 Co901 1.955 . S
N917 C911 1.432 . S
N918 Co901 1.958 . S
N918 C902 1.324 . S
N918 C904 1.427 . S
N919 Co901 1.953 . S
N919 C920 1.436 . S
N919 C946 1.316 . S
C920 N919 1.436 . S
C920 C921 1.421 . S
C920 C922 1.360 . S
C921 C920 1.421 . S
C921 C923 1.379 1_554 S
C921 H924 0.929 1_554 S
C922 C920 1.360 . S
C922 C926 1.393 . S
C922 H928 0.931 . S
C923 C921 1.379 1_556 S
C923 C925 1.417 1_556 S
C923 C927 1.505 . S
H924 C921 0.929 1_556 S
C925 C923 1.417 1_554 S
C925 C926 1.352 . S
C925 H929 0.929 . S
C926 C922 1.393 . S
C926 C925 1.352 . S
C926 C930 1.482 . S
C927 C923 1.505 . S
C927 O931 1.259 . S
C927 O932 1.229 . S
H928 C922 0.931 . S
H929 C925 0.929 . S
C930 C926 1.482 . S
C930 O933 1.207 . S
C930 O934 1.289 . S
O931 C927 1.259 . S
O931 H935 0.822 . S
O932 C927 1.229 . S
O933 C930 1.207 . S
O934 C930 1.289 . S
O934 H936 0.819 . S
H935 O931 0.822 . S
H936 O934 0.819 . S
N937 Co901 1.869 . S
N937 C938 1.330 . S
N937 C942 1.325 . S
C938 N937 1.330 . S
C938 C939 1.359 . S
C938 C944 1.504 . S
C939 C938 1.359 . S
C939 C940 1.366 . S
C939 H973 0.929 . S
C940 C939 1.366 . S
C940 C941 1.415 . S
C940 H974 0.932 . S
C941 C940 1.415 . S
C941 C942 1.366 . S
C941 H975 0.931 . S
C942 N937 1.325 . S
C942 C941 1.366 . S
C942 C946 1.516 . S
N943 Co901 1.974 . S
N943 C944 1.309 . S
N943 C949 1.423 . S
C944 C938 1.504 . S
C944 N943 1.309 . S
C944 O945 1.258 . S
O945 C944 1.258 . S
C946 N919 1.316 . S
C946 C942 1.516 . S
C946 O959 1.263 . S
O947 Cd890 2.350 . S
O947 C963 1.270 . S
O948 Cd890 2.277 . S
O948 C963 1.248 . S
C949 N943 1.423 . S
C949 C950 1.370 . S
C949 C954 1.403 . S
C950 C949 1.370 . S
C950 C951 1.389 . S
C950 H976 0.931 . S
C951 C950 1.389 . S
C951 C952 1.389 . S
C952 C951 1.389 . S
C952 C953 1.379 . S
C952 H977 0.929 . S
C953 C952 1.379 . S
C953 C954 1.405 . S
C954 C949 1.403 . S
C954 C953 1.405 . S
C954 H978 0.932 . S
O955 Cd890 2.173 . S
O955 C891 1.277 . S
O956 C891 1.230 . S
O956 Cd894 2.250 . S
O957 Cd890 2.263 . S
O957 C910 1.258 . S
O958 Cd894 2.308 . S
O958 C910 1.274 . S
O959 Cd890 2.366 . S
O959 C946 1.263 . S
C960 O961 1.235 . S
C960 O962 1.270 . S
O961 Cd894 2.352 . S
O961 C960 1.235 . S
O962 Cd890 2.329 . S
O962 C960 1.270 . S
C963 O947 1.270 . S
C963 O948 1.248 . S
H964 C896 0.930 . S
H965 C899 0.930 . S
H966 C900 0.931 . S
H967 C905 0.929 . S
H968 C907 0.930 . S
H969 C909 0.930 . S
H970 C912 0.929 . S
H971 C913 0.932 . S
H972 C915 0.930 . S
H973 C939 0.929 . S
H974 C940 0.932 . S
H975 C941 0.931 . S
H976 C950 0.931 . S
H977 C952 0.929 . S
H978 C954 0.932 . S
Cd979 O1036 2.350 . S
Cd979 O1037 2.277 . S
Cd979 O1044 2.173 . S
Cd979 O1046 2.263 . S
Cd979 O1048 2.366 . S
Cd979 O1051 2.329 . S
C980 O1044 1.277 . S
C980 O1045 1.230 . S
C981 O982 1.246 1_554 S
C981 C984 1.481 . S
C981 N1006 1.329 . S
O982 C981 1.246 1_556 S
Cd983 O1045 2.250 . S
Cd983 O1047 2.308 . S
Cd983 O1050 2.352 . S
C984 C981 1.481 . S
C984 N987 1.327 . S
C984 C988 1.407 . S
C985 C986 1.346 . S
C985 C989 1.390 . S
C985 H1053 0.930 . S
C986 C985 1.346 . S
C986 N987 1.342 . S
C986 C991 1.516 . S
N987 C984 1.327 . S
N987 C986 1.342 . S
N987 Co990 1.864 . S
C988 C984 1.407 . S
C988 C989 1.364 . S
C988 H1054 0.930 . S
C989 C985 1.390 . S
C989 C988 1.364 . S
C989 H1055 0.931 . S
Co990 N987 1.864 . S
Co990 N1006 1.955 . S
Co990 N1007 1.958 . S
Co990 N1008 1.953 . S
Co990 N1026 1.869 . S
Co990 N1032 1.974 . S
C991 C986 1.516 . S
C991 O992 1.238 . S
C991 N1007 1.324 . S
O992 C991 1.238 . S
C993 C994 1.394 . S
C993 C998 1.395 . S
C993 N1007 1.427 . S
C994 C993 1.394 . S
C994 C995 1.380 . S
C994 H1056 0.929 . S
C995 C994 1.380 . S
C995 C996 1.384 . S
C995 C999 1.495 . S
C996 C995 1.384 . S
C996 C997 1.382 . S
C996 H1057 0.930 . S
C997 C996 1.382 . S
C997 C998 1.398 . S
C998 C993 1.395 . S
C998 C997 1.398 . S
C998 H1058 0.930 . S
C999 C995 1.495 . S
C999 O1046 1.258 . S
C999 O1047 1.274 . S
C1000 C1001 1.385 1_554 S
C1000 C1002 1.381 . S
C1000 N1006 1.432 . S
C1001 C1000 1.385 1_556 S
C1001 C1005 1.388 . S
C1001 H1059 0.929 . S
C1002 C1000 1.381 . S
C1002 C1003 1.371 1_554 S
C1002 H1060 0.932 . S
C1003 C1002 1.371 1_556 S
C1003 C1004 1.400 . S
C1004 C1003 1.400 . S
C1004 C1005 1.351 . S
C1004 H1061 0.930 . S
C1005 C1001 1.388 . S
C1005 C1004 1.351 . S
N1006 C981 1.329 . S
N1006 Co990 1.955 . S
N1006 C1000 1.432 . S
N1007 Co990 1.958 . S
N1007 C991 1.324 . S
N1007 C993 1.427 . S
N1008 Co990 1.953 . S
N1008 C1009 1.436 . S
N1008 C1035 1.316 . S
C1009 N1008 1.436 . S
C1009 C1010 1.421 . S
C1009 C1011 1.360 . S
C1010 C1009 1.421 . S
C1010 C1012 1.379 1_554 S
C1010 H1013 0.929 1_554 S
C1011 C1009 1.360 . S
C1011 C1015 1.393 . S
C1011 H1017 0.931 . S
C1012 C1010 1.379 1_556 S
C1012 C1014 1.417 1_556 S
C1012 C1016 1.505 . S
H1013 C1010 0.929 1_556 S
C1014 C1012 1.417 1_554 S
C1014 C1015 1.352 . S
C1014 H1018 0.929 . S
C1015 C1011 1.393 . S
C1015 C1014 1.352 . S
C1015 C1019 1.482 . S
C1016 C1012 1.505 . S
C1016 O1020 1.259 . S
C1016 O1021 1.229 . S
H1017 C1011 0.931 . S
H1018 C1014 0.929 . S
C1019 C1015 1.482 . S
C1019 O1022 1.207 . S
C1019 O1023 1.289 . S
O1020 C1016 1.259 . S
O1020 H1024 0.822 . S
O1021 C1016 1.229 . S
O1022 C1019 1.207 . S
O1023 C1019 1.289 . S
O1023 H1025 0.819 . S
H1024 O1020 0.822 . S
H1025 O1023 0.819 . S
N1026 Co990 1.869 . S
N1026 C1027 1.330 . S
N1026 C1031 1.325 . S
C1027 N1026 1.330 . S
C1027 C1028 1.359 . S
C1027 C1033 1.504 . S
C1028 C1027 1.359 . S
C1028 C1029 1.366 . S
C1028 H1062 0.929 . S
C1029 C1028 1.366 . S
C1029 C1030 1.415 . S
C1029 H1063 0.932 . S
C1030 C1029 1.415 . S
C1030 C1031 1.366 . S
C1030 H1064 0.931 . S
C1031 N1026 1.325 . S
C1031 C1030 1.366 . S
C1031 C1035 1.516 . S
N1032 Co990 1.974 . S
N1032 C1033 1.309 . S
N1032 C1038 1.423 . S
C1033 C1027 1.504 . S
C1033 N1032 1.309 . S
C1033 O1034 1.258 . S
O1034 C1033 1.258 . S
C1035 N1008 1.316 . S
C1035 C1031 1.516 . S
C1035 O1048 1.263 . S
O1036 Cd979 2.350 . S
O1036 C1052 1.270 . S
O1037 Cd979 2.277 . S
O1037 C1052 1.248 . S
C1038 N1032 1.423 . S
C1038 C1039 1.370 . S
C1038 C1043 1.403 . S
C1039 C1038 1.370 . S
C1039 C1040 1.389 . S
C1039 H1065 0.931 . S
C1040 C1039 1.389 . S
C1040 C1041 1.389 . S
C1041 C1040 1.389 . S
C1041 C1042 1.379 . S
C1041 H1066 0.929 . S
C1042 C1041 1.379 . S
C1042 C1043 1.405 . S
C1043 C1038 1.403 . S
C1043 C1042 1.405 . S
C1043 H1067 0.932 . S
O1044 Cd979 2.173 . S
O1044 C980 1.277 . S
O1045 C980 1.230 . S
O1045 Cd983 2.250 . S
O1046 Cd979 2.263 . S
O1046 C999 1.258 . S
O1047 Cd983 2.308 . S
O1047 C999 1.274 . S
O1048 Cd979 2.366 . S
O1048 C1035 1.263 . S
C1049 O1050 1.235 . S
C1049 O1051 1.270 . S
O1050 Cd983 2.352 . S
O1050 C1049 1.235 . S
O1051 Cd979 2.329 . S
O1051 C1049 1.270 . S
C1052 O1036 1.270 . S
C1052 O1037 1.248 . S
H1053 C985 0.930 . S
H1054 C988 0.930 . S
H1055 C989 0.931 . S
H1056 C994 0.929 . S
H1057 C996 0.930 . S
H1058 C998 0.930 . S
H1059 C1001 0.929 . S
H1060 C1002 0.932 . S
H1061 C1004 0.930 . S
H1062 C1028 0.929 . S
H1063 C1029 0.932 . S
H1064 C1030 0.931 . S
H1065 C1039 0.931 . S
H1066 C1041 0.929 . S
H1067 C1043 0.932 . S
Cd1068 O1125 2.350 . S
Cd1068 O1126 2.277 . S
Cd1068 O1133 2.173 . S
Cd1068 O1135 2.263 . S
Cd1068 O1137 2.366 . S
Cd1068 O1140 2.329 . S
C1069 O1133 1.277 . S
C1069 O1134 1.230 . S
C1070 O1071 1.246 1_556 S
C1070 C1073 1.481 . S
C1070 N1095 1.329 . S
O1071 C1070 1.246 1_554 S
Cd1072 O1134 2.250 . S
Cd1072 O1136 2.308 . S
Cd1072 O1139 2.352 . S
C1073 C1070 1.481 . S
C1073 N1076 1.327 . S
C1073 C1077 1.407 . S
C1074 C1075 1.346 . S
C1074 C1078 1.390 . S
C1074 H1142 0.930 . S
C1075 C1074 1.346 . S
C1075 N1076 1.342 . S
C1075 C1080 1.516 . S
N1076 C1073 1.327 . S
N1076 C1075 1.342 . S
N1076 Co1079 1.864 . S
C1077 C1073 1.407 . S
C1077 C1078 1.364 . S
C1077 H1143 0.930 . S
C1078 C1074 1.390 . S
C1078 C1077 1.364 . S
C1078 H1144 0.931 . S
Co1079 N1076 1.864 . S
Co1079 N1095 1.955 . S
Co1079 N1096 1.958 . S
Co1079 N1097 1.953 . S
Co1079 N1115 1.869 . S
Co1079 N1121 1.974 . S
C1080 C1075 1.516 . S
C1080 O1081 1.238 . S
C1080 N1096 1.324 . S
O1081 C1080 1.238 . S
C1082 C1083 1.394 . S
C1082 C1087 1.395 . S
C1082 N1096 1.427 . S
C1083 C1082 1.394 . S
C1083 C1084 1.380 . S
C1083 H1145 0.929 . S
C1084 C1083 1.380 . S
C1084 C1085 1.384 . S
C1084 C1088 1.495 . S
C1085 C1084 1.384 . S
C1085 C1086 1.382 . S
C1085 H1146 0.930 . S
C1086 C1085 1.382 . S
C1086 C1087 1.398 . S
C1087 C1082 1.395 . S
C1087 C1086 1.398 . S
C1087 H1147 0.930 . S
C1088 C1084 1.495 . S
C1088 O1135 1.258 . S
C1088 O1136 1.274 . S
C1089 C1090 1.385 1_556 S
C1089 C1091 1.381 . S
C1089 N1095 1.432 . S
C1090 C1089 1.385 1_554 S
C1090 C1094 1.388 . S
C1090 H1148 0.929 . S
C1091 C1089 1.381 . S
C1091 C1092 1.371 1_556 S
C1091 H1149 0.932 . S
C1092 C1091 1.371 1_554 S
C1092 C1093 1.400 . S
C1093 C1092 1.400 . S
C1093 C1094 1.351 . S
C1093 H1150 0.930 . S
C1094 C1090 1.388 . S
C1094 C1093 1.351 . S
N1095 C1070 1.329 . S
N1095 Co1079 1.955 . S
N1095 C1089 1.432 . S
N1096 Co1079 1.958 . S
N1096 C1080 1.324 . S
N1096 C1082 1.427 . S
N1097 Co1079 1.953 . S
N1097 C1098 1.436 . S
N1097 C1124 1.316 . S
C1098 N1097 1.436 . S
C1098 C1099 1.421 . S
C1098 C1100 1.360 . S
C1099 C1098 1.421 . S
C1099 C1101 1.379 1_556 S
C1099 H1102 0.929 1_556 S
C1100 C1098 1.360 . S
C1100 C1104 1.393 . S
C1100 H1106 0.931 . S
C1101 C1099 1.379 1_554 S
C1101 C1103 1.417 1_554 S
C1101 C1105 1.505 . S
H1102 C1099 0.929 1_554 S
C1103 C1101 1.417 1_556 S
C1103 C1104 1.352 . S
C1103 H1107 0.929 . S
C1104 C1100 1.393 . S
C1104 C1103 1.352 . S
C1104 C1108 1.482 . S
C1105 C1101 1.505 . S
C1105 O1109 1.259 . S
C1105 O1110 1.229 . S
H1106 C1100 0.931 . S
H1107 C1103 0.929 . S
C1108 C1104 1.482 . S
C1108 O1111 1.207 . S
C1108 O1112 1.289 . S
O1109 C1105 1.259 . S
O1109 H1113 0.822 . S
O1110 C1105 1.229 . S
O1111 C1108 1.207 . S
O1112 C1108 1.289 . S
O1112 H1114 0.819 . S
H1113 O1109 0.822 . S
H1114 O1112 0.819 . S
N1115 Co1079 1.869 . S
N1115 C1116 1.330 . S
N1115 C1120 1.325 . S
C1116 N1115 1.330 . S
C1116 C1117 1.359 . S
C1116 C1122 1.504 . S
C1117 C1116 1.359 . S
C1117 C1118 1.366 . S
C1117 H1151 0.929 . S
C1118 C1117 1.366 . S
C1118 C1119 1.415 . S
C1118 H1152 0.932 . S
C1119 C1118 1.415 . S
C1119 C1120 1.366 . S
C1119 H1153 0.931 . S
C1120 N1115 1.325 . S
C1120 C1119 1.366 . S
C1120 C1124 1.516 . S
N1121 Co1079 1.974 . S
N1121 C1122 1.309 . S
N1121 C1127 1.423 . S
C1122 C1116 1.504 . S
C1122 N1121 1.309 . S
C1122 O1123 1.258 . S
O1123 C1122 1.258 . S
C1124 N1097 1.316 . S
C1124 C1120 1.516 . S
C1124 O1137 1.263 . S
O1125 Cd1068 2.350 . S
O1125 C1141 1.270 . S
O1126 Cd1068 2.277 . S
O1126 C1141 1.248 . S
C1127 N1121 1.423 . S
C1127 C1128 1.370 . S
C1127 C1132 1.403 . S
C1128 C1127 1.370 . S
C1128 C1129 1.389 . S
C1128 H1154 0.931 . S
C1129 C1128 1.389 . S
C1129 C1130 1.389 . S
C1130 C1129 1.389 . S
C1130 C1131 1.379 . S
C1130 H1155 0.929 . S
C1131 C1130 1.379 . S
C1131 C1132 1.405 . S
C1132 C1127 1.403 . S
C1132 C1131 1.405 . S
C1132 H1156 0.932 . S
O1133 Cd1068 2.173 . S
O1133 C1069 1.277 . S
O1134 C1069 1.230 . S
O1134 Cd1072 2.250 . S
O1135 Cd1068 2.263 . S
O1135 C1088 1.258 . S
O1136 Cd1072 2.308 . S
O1136 C1088 1.274 . S
O1137 Cd1068 2.366 . S
O1137 C1124 1.263 . S
C1138 O1139 1.235 . S
C1138 O1140 1.270 . S
O1139 Cd1072 2.352 . S
O1139 C1138 1.235 . S
O1140 Cd1068 2.329 . S
O1140 C1138 1.270 . S
C1141 O1125 1.270 . S
C1141 O1126 1.248 . S
H1142 C1074 0.930 . S
H1143 C1077 0.930 . S
H1144 C1078 0.931 . S
H1145 C1083 0.929 . S
H1146 C1085 0.930 . S
H1147 C1087 0.930 . S
H1148 C1090 0.929 . S
H1149 C1091 0.932 . S
H1150 C1093 0.930 . S
H1151 C1117 0.929 . S
H1152 C1118 0.932 . S
H1153 C1119 0.931 . S
H1154 C1128 0.931 . S
H1155 C1130 0.929 . S
H1156 C1132 0.932 . S
Cd1157 O1214 2.350 . S
Cd1157 O1215 2.277 . S
Cd1157 O1222 2.173 . S
Cd1157 O1224 2.263 . S
Cd1157 O1226 2.366 . S
Cd1157 O1229 2.329 . S
C1158 O1222 1.277 . S
C1158 O1223 1.230 . S
C1159 O1160 1.246 1_556 S
C1159 C1162 1.481 . S
C1159 N1184 1.329 . S
O1160 C1159 1.246 1_554 S
Cd1161 O1223 2.250 . S
Cd1161 O1225 2.308 . S
Cd1161 O1228 2.352 . S
C1162 C1159 1.481 . S
C1162 N1165 1.327 . S
C1162 C1166 1.407 . S
C1163 C1164 1.346 . S
C1163 C1167 1.390 . S
C1163 H1231 0.930 . S
C1164 C1163 1.346 . S
C1164 N1165 1.342 . S
C1164 C1169 1.516 . S
N1165 C1162 1.327 . S
N1165 C1164 1.342 . S
N1165 Co1168 1.864 . S
C1166 C1162 1.407 . S
C1166 C1167 1.364 . S
C1166 H1232 0.930 . S
C1167 C1163 1.390 . S
C1167 C1166 1.364 . S
C1167 H1233 0.931 . S
Co1168 N1165 1.864 . S
Co1168 N1184 1.955 . S
Co1168 N1185 1.958 . S
Co1168 N1186 1.953 . S
Co1168 N1204 1.869 . S
Co1168 N1210 1.974 . S
C1169 C1164 1.516 . S
C1169 O1170 1.238 . S
C1169 N1185 1.324 . S
O1170 C1169 1.238 . S
C1171 C1172 1.394 . S
C1171 C1176 1.395 . S
C1171 N1185 1.427 . S
C1172 C1171 1.394 . S
C1172 C1173 1.380 . S
C1172 H1234 0.929 . S
C1173 C1172 1.380 . S
C1173 C1174 1.384 . S
C1173 C1177 1.495 . S
C1174 C1173 1.384 . S
C1174 C1175 1.382 . S
C1174 H1235 0.930 . S
C1175 C1174 1.382 . S
C1175 C1176 1.398 . S
C1176 C1171 1.395 . S
C1176 C1175 1.398 . S
C1176 H1236 0.930 . S
C1177 C1173 1.495 . S
C1177 O1224 1.258 . S
C1177 O1225 1.274 . S
C1178 C1179 1.385 1_556 S
C1178 C1180 1.381 . S
C1178 N1184 1.432 . S
C1179 C1178 1.385 1_554 S
C1179 C1183 1.388 . S
C1179 H1237 0.929 . S
C1180 C1178 1.381 . S
C1180 C1181 1.371 1_556 S
C1180 H1238 0.932 . S
C1181 C1180 1.371 1_554 S
C1181 C1182 1.400 . S
C1182 C1181 1.400 . S
C1182 C1183 1.351 . S
C1182 H1239 0.930 . S
C1183 C1179 1.388 . S
C1183 C1182 1.351 . S
N1184 C1159 1.329 . S
N1184 Co1168 1.955 . S
N1184 C1178 1.432 . S
N1185 Co1168 1.958 . S
N1185 C1169 1.324 . S
N1185 C1171 1.427 . S
N1186 Co1168 1.953 . S
N1186 C1187 1.436 . S
N1186 C1213 1.316 . S
C1187 N1186 1.436 . S
C1187 C1188 1.421 . S
C1187 C1189 1.360 . S
C1188 C1187 1.421 . S
C1188 C1190 1.379 1_556 S
C1188 H1191 0.929 1_556 S
C1189 C1187 1.360 . S
C1189 C1193 1.393 . S
C1189 H1195 0.931 . S
C1190 C1188 1.379 1_554 S
C1190 C1192 1.417 1_554 S
C1190 C1194 1.505 . S
H1191 C1188 0.929 1_554 S
C1192 C1190 1.417 1_556 S
C1192 C1193 1.352 . S
C1192 H1196 0.929 . S
C1193 C1189 1.393 . S
C1193 C1192 1.352 . S
C1193 C1197 1.482 . S
C1194 C1190 1.505 . S
C1194 O1198 1.259 . S
C1194 O1199 1.229 . S
H1195 C1189 0.931 . S
H1196 C1192 0.929 . S
C1197 C1193 1.482 . S
C1197 O1200 1.207 . S
C1197 O1201 1.289 . S
O1198 C1194 1.259 . S
O1198 H1202 0.822 . S
O1199 C1194 1.229 . S
O1200 C1197 1.207 . S
O1201 C1197 1.289 . S
O1201 H1203 0.819 . S
H1202 O1198 0.822 . S
H1203 O1201 0.819 . S
N1204 Co1168 1.869 . S
N1204 C1205 1.330 . S
N1204 C1209 1.325 . S
C1205 N1204 1.330 . S
C1205 C1206 1.359 . S
C1205 C1211 1.504 . S
C1206 C1205 1.359 . S
C1206 C1207 1.366 . S
C1206 H1240 0.929 . S
C1207 C1206 1.366 . S
C1207 C1208 1.415 . S
C1207 H1241 0.932 . S
C1208 C1207 1.415 . S
C1208 C1209 1.366 . S
C1208 H1242 0.931 . S
C1209 N1204 1.325 . S
C1209 C1208 1.366 . S
C1209 C1213 1.516 . S
N1210 Co1168 1.974 . S
N1210 C1211 1.309 . S
N1210 C1216 1.423 . S
C1211 C1205 1.504 . S
C1211 N1210 1.309 . S
C1211 O1212 1.258 . S
O1212 C1211 1.258 . S
C1213 N1186 1.316 . S
C1213 C1209 1.516 . S
C1213 O1226 1.263 . S
O1214 Cd1157 2.350 . S
O1214 C1230 1.270 . S
O1215 Cd1157 2.277 . S
O1215 C1230 1.248 . S
C1216 N1210 1.423 . S
C1216 C1217 1.370 . S
C1216 C1221 1.403 . S
C1217 C1216 1.370 . S
C1217 C1218 1.389 . S
C1217 H1243 0.931 . S
C1218 C1217 1.389 . S
C1218 C1219 1.389 . S
C1219 C1218 1.389 . S
C1219 C1220 1.379 . S
C1219 H1244 0.929 . S
C1220 C1219 1.379 . S
C1220 C1221 1.405 . S
C1221 C1216 1.403 . S
C1221 C1220 1.405 . S
C1221 H1245 0.932 . S
O1222 Cd1157 2.173 . S
O1222 C1158 1.277 . S
O1223 C1158 1.230 . S
O1223 Cd1161 2.250 . S
O1224 Cd1157 2.263 . S
O1224 C1177 1.258 . S
O1225 Cd1161 2.308 . S
O1225 C1177 1.274 . S
O1226 Cd1157 2.366 . S
O1226 C1213 1.263 . S
C1227 O1228 1.235 . S
C1227 O1229 1.270 . S
O1228 Cd1161 2.352 . S
O1228 C1227 1.235 . S
O1229 Cd1157 2.329 . S
O1229 C1227 1.270 . S
C1230 O1214 1.270 . S
C1230 O1215 1.248 . S
H1231 C1163 0.930 . S
H1232 C1166 0.930 . S
H1233 C1167 0.931 . S
H1234 C1172 0.929 . S
H1235 C1174 0.930 . S
H1236 C1176 0.930 . S
H1237 C1179 0.929 . S
H1238 C1180 0.932 . S
H1239 C1182 0.930 . S
H1240 C1206 0.929 . S
H1241 C1207 0.932 . S
H1242 C1208 0.931 . S
H1243 C1217 0.931 . S
H1244 C1219 0.929 . S
H1245 C1221 0.932 . S
Cd1246 O1303 2.350 . S
Cd1246 O1304 2.277 . S
Cd1246 O1311 2.173 . S
Cd1246 O1313 2.263 . S
Cd1246 O1315 2.366 . S
Cd1246 O1318 2.329 . S
C1247 O1311 1.277 . S
C1247 O1312 1.230 . S
C1248 O1249 1.246 1_556 S
C1248 C1251 1.481 . S
C1248 N1273 1.329 . S
O1249 C1248 1.246 1_554 S
Cd1250 O1312 2.250 . S
Cd1250 O1314 2.308 . S
Cd1250 O1317 2.352 . S
C1251 C1248 1.481 . S
C1251 N1254 1.327 . S
C1251 C1255 1.407 . S
C1252 C1253 1.346 . S
C1252 C1256 1.390 . S
C1252 H1320 0.930 . S
C1253 C1252 1.346 . S
C1253 N1254 1.342 . S
C1253 C1258 1.516 . S
N1254 C1251 1.327 . S
N1254 C1253 1.342 . S
N1254 Co1257 1.864 . S
C1255 C1251 1.407 . S
C1255 C1256 1.364 . S
C1255 H1321 0.930 . S
C1256 C1252 1.390 . S
C1256 C1255 1.364 . S
C1256 H1322 0.931 . S
Co1257 N1254 1.864 . S
Co1257 N1273 1.955 . S
Co1257 N1274 1.958 . S
Co1257 N1275 1.953 . S
Co1257 N1293 1.869 . S
Co1257 N1299 1.974 . S
C1258 C1253 1.516 . S
C1258 O1259 1.238 . S
C1258 N1274 1.324 . S
O1259 C1258 1.238 . S
C1260 C1261 1.394 . S
C1260 C1265 1.395 . S
C1260 N1274 1.427 . S
C1261 C1260 1.394 . S
C1261 C1262 1.380 . S
C1261 H1323 0.929 . S
C1262 C1261 1.380 . S
C1262 C1263 1.384 . S
C1262 C1266 1.495 . S
C1263 C1262 1.384 . S
C1263 C1264 1.382 . S
C1263 H1324 0.930 . S
C1264 C1263 1.382 . S
C1264 C1265 1.398 . S
C1265 C1260 1.395 . S
C1265 C1264 1.398 . S
C1265 H1325 0.930 . S
C1266 C1262 1.495 . S
C1266 O1313 1.258 . S
C1266 O1314 1.274 . S
C1267 C1268 1.385 1_556 S
C1267 C1269 1.381 . S
C1267 N1273 1.432 . S
C1268 C1267 1.385 1_554 S
C1268 C1272 1.388 . S
C1268 H1326 0.929 . S
C1269 C1267 1.381 . S
C1269 C1270 1.371 1_556 S
C1269 H1327 0.932 . S
C1270 C1269 1.371 1_554 S
C1270 C1271 1.400 . S
C1271 C1270 1.400 . S
C1271 C1272 1.351 . S
C1271 H1328 0.930 . S
C1272 C1268 1.388 . S
C1272 C1271 1.351 . S
N1273 C1248 1.329 . S
N1273 Co1257 1.955 . S
N1273 C1267 1.432 . S
N1274 Co1257 1.958 . S
N1274 C1258 1.324 . S
N1274 C1260 1.427 . S
N1275 Co1257 1.953 . S
N1275 C1276 1.436 . S
N1275 C1302 1.316 . S
C1276 N1275 1.436 . S
C1276 C1277 1.421 . S
C1276 C1278 1.360 . S
C1277 C1276 1.421 . S
C1277 C1279 1.379 1_556 S
C1277 H1280 0.929 1_556 S
C1278 C1276 1.360 . S
C1278 C1282 1.393 . S
C1278 H1284 0.931 . S
C1279 C1277 1.379 1_554 S
C1279 C1281 1.417 1_554 S
C1279 C1283 1.505 . S
H1280 C1277 0.929 1_554 S
C1281 C1279 1.417 1_556 S
C1281 C1282 1.352 . S
C1281 H1285 0.929 . S
C1282 C1278 1.393 . S
C1282 C1281 1.352 . S
C1282 C1286 1.482 . S
C1283 C1279 1.505 . S
C1283 O1287 1.259 . S
C1283 O1288 1.229 . S
H1284 C1278 0.931 . S
H1285 C1281 0.929 . S
C1286 C1282 1.482 . S
C1286 O1289 1.207 . S
C1286 O1290 1.289 . S
O1287 C1283 1.259 . S
O1287 H1291 0.822 . S
O1288 C1283 1.229 . S
O1289 C1286 1.207 . S
O1290 C1286 1.289 . S
O1290 H1292 0.819 . S
H1291 O1287 0.822 . S
H1292 O1290 0.819 . S
N1293 Co1257 1.869 . S
N1293 C1294 1.330 . S
N1293 C1298 1.325 . S
C1294 N1293 1.330 . S
C1294 C1295 1.359 . S
C1294 C1300 1.504 . S
C1295 C1294 1.359 . S
C1295 C1296 1.366 . S
C1295 H1329 0.929 . S
C1296 C1295 1.366 . S
C1296 C1297 1.415 . S
C1296 H1330 0.932 . S
C1297 C1296 1.415 . S
C1297 C1298 1.366 . S
C1297 H1331 0.931 . S
C1298 N1293 1.325 . S
C1298 C1297 1.366 . S
C1298 C1302 1.516 . S
N1299 Co1257 1.974 . S
N1299 C1300 1.309 . S
N1299 C1305 1.423 . S
C1300 C1294 1.504 . S
C1300 N1299 1.309 . S
C1300 O1301 1.258 . S
O1301 C1300 1.258 . S
C1302 N1275 1.316 . S
C1302 C1298 1.516 . S
C1302 O1315 1.263 . S
O1303 Cd1246 2.350 . S
O1303 C1319 1.270 . S
O1304 Cd1246 2.277 . S
O1304 C1319 1.248 . S
C1305 N1299 1.423 . S
C1305 C1306 1.370 . S
C1305 C1310 1.403 . S
C1306 C1305 1.370 . S
C1306 C1307 1.389 . S
C1306 H1332 0.931 . S
C1307 C1306 1.389 . S
C1307 C1308 1.389 . S
C1308 C1307 1.389 . S
C1308 C1309 1.379 . S
C1308 H1333 0.929 . S
C1309 C1308 1.379 . S
C1309 C1310 1.405 . S
C1310 C1305 1.403 . S
C1310 C1309 1.405 . S
C1310 H1334 0.932 . S
O1311 Cd1246 2.173 . S
O1311 C1247 1.277 . S
O1312 C1247 1.230 . S
O1312 Cd1250 2.250 . S
O1313 Cd1246 2.263 . S
O1313 C1266 1.258 . S
O1314 Cd1250 2.308 . S
O1314 C1266 1.274 . S
O1315 Cd1246 2.366 . S
O1315 C1302 1.263 . S
C1316 O1317 1.235 . S
C1316 O1318 1.270 . S
O1317 Cd1250 2.352 . S
O1317 C1316 1.235 . S
O1318 Cd1246 2.329 . S
O1318 C1316 1.270 . S
C1319 O1303 1.270 . S
C1319 O1304 1.248 . S
H1320 C1252 0.930 . S
H1321 C1255 0.930 . S
H1322 C1256 0.931 . S
H1323 C1261 0.929 . S
H1324 C1263 0.930 . S
H1325 C1265 0.930 . S
H1326 C1268 0.929 . S
H1327 C1269 0.932 . S
H1328 C1271 0.930 . S
H1329 C1295 0.929 . S
H1330 C1296 0.932 . S
H1331 C1297 0.931 . S
H1332 C1306 0.931 . S
H1333 C1308 0.929 . S
H1334 C1310 0.932 . S
Cd1335 O1392 2.350 . S
Cd1335 O1393 2.277 . S
Cd1335 O1400 2.173 . S
Cd1335 O1402 2.263 . S
Cd1335 O1404 2.366 . S
Cd1335 O1407 2.329 . S
C1336 O1400 1.277 . S
C1336 O1401 1.230 . S
C1337 O1338 1.246 . S
C1337 C1340 1.481 . S
C1337 N1362 1.329 . S
O1338 C1337 1.246 . S
Cd1339 O1401 2.250 . S
Cd1339 O1403 2.308 . S
Cd1339 O1406 2.352 . S
C1340 C1337 1.481 . S
C1340 N1343 1.327 . S
C1340 C1344 1.407 . S
C1341 C1342 1.346 . S
C1341 C1345 1.390 . S
C1341 H1409 0.930 . S
C1342 C1341 1.346 . S
C1342 N1343 1.342 . S
C1342 C1347 1.516 . S
N1343 C1340 1.327 . S
N1343 C1342 1.342 . S
N1343 Co1346 1.864 . S
C1344 C1340 1.407 . S
C1344 C1345 1.364 . S
C1344 H1410 0.930 . S
C1345 C1341 1.390 . S
C1345 C1344 1.364 . S
C1345 H1411 0.931 . S
Co1346 N1343 1.864 . S
Co1346 N1362 1.955 . S
Co1346 N1363 1.958 . S
Co1346 N1364 1.953 . S
Co1346 N1382 1.869 . S
Co1346 N1388 1.974 . S
C1347 C1342 1.516 . S
C1347 O1348 1.238 . S
C1347 N1363 1.324 . S
O1348 C1347 1.238 . S
C1349 C1350 1.394 . S
C1349 C1354 1.395 . S
C1349 N1363 1.427 . S
C1350 C1349 1.394 . S
C1350 C1351 1.380 . S
C1350 H1412 0.929 . S
C1351 C1350 1.380 . S
C1351 C1352 1.384 . S
C1351 C1355 1.495 . S
C1352 C1351 1.384 . S
C1352 C1353 1.382 . S
C1352 H1413 0.930 . S
C1353 C1352 1.382 . S
C1353 C1354 1.398 . S
C1354 C1349 1.395 . S
C1354 C1353 1.398 . S
C1354 H1414 0.930 . S
C1355 C1351 1.495 . S
C1355 O1402 1.258 . S
C1355 O1403 1.274 . S
C1356 C1357 1.385 . S
C1356 C1358 1.381 . S
C1356 N1362 1.432 . S
C1357 C1356 1.385 . S
C1357 C1361 1.388 . S
C1357 H1415 0.929 . S
C1358 C1356 1.381 . S
C1358 C1359 1.371 . S
C1358 H1416 0.932 . S
C1359 C1358 1.371 . S
C1359 C1360 1.400 . S
C1360 C1359 1.400 . S
C1360 C1361 1.351 . S
C1360 H1417 0.930 . S
C1361 C1357 1.388 . S
C1361 C1360 1.351 . S
N1362 C1337 1.329 . S
N1362 Co1346 1.955 . S
N1362 C1356 1.432 . S
N1363 Co1346 1.958 . S
N1363 C1347 1.324 . S
N1363 C1349 1.427 . S
N1364 Co1346 1.953 . S
N1364 C1365 1.436 . S
N1364 C1391 1.316 . S
C1365 N1364 1.436 . S
C1365 C1366 1.421 . S
C1365 C1367 1.360 . S
C1366 C1365 1.421 . S
C1366 C1368 1.379 . S
C1366 H1369 0.929 . S
C1367 C1365 1.360 . S
C1367 C1371 1.393 . S
C1367 H1373 0.931 . S
C1368 C1366 1.379 . S
C1368 C1370 1.417 . S
C1368 C1372 1.505 . S
H1369 C1366 0.929 . S
C1370 C1368 1.417 . S
C1370 C1371 1.352 . S
C1370 H1374 0.929 . S
C1371 C1367 1.393 . S
C1371 C1370 1.352 . S
C1371 C1375 1.482 . S
C1372 C1368 1.505 . S
C1372 O1376 1.259 . S
C1372 O1377 1.229 . S
H1373 C1367 0.931 . S
H1374 C1370 0.929 . S
C1375 C1371 1.482 . S
C1375 O1378 1.207 . S
C1375 O1379 1.289 . S
O1376 C1372 1.259 . S
O1376 H1380 0.822 . S
O1377 C1372 1.229 . S
O1378 C1375 1.207 . S
O1379 C1375 1.289 . S
O1379 H1381 0.819 . S
H1380 O1376 0.822 . S
H1381 O1379 0.819 . S
N1382 Co1346 1.869 . S
N1382 C1383 1.330 . S
N1382 C1387 1.325 . S
C1383 N1382 1.330 . S
C1383 C1384 1.359 . S
C1383 C1389 1.504 . S
C1384 C1383 1.359 . S
C1384 C1385 1.366 . S
C1384 H1418 0.929 . S
C1385 C1384 1.366 . S
C1385 C1386 1.415 . S
C1385 H1419 0.932 . S
C1386 C1385 1.415 . S
C1386 C1387 1.366 . S
C1386 H1420 0.931 . S
C1387 N1382 1.325 . S
C1387 C1386 1.366 . S
C1387 C1391 1.516 . S
N1388 Co1346 1.974 . S
N1388 C1389 1.309 . S
N1388 C1394 1.423 . S
C1389 C1383 1.504 . S
C1389 N1388 1.309 . S
C1389 O1390 1.258 . S
O1390 C1389 1.258 . S
C1391 N1364 1.316 . S
C1391 C1387 1.516 . S
C1391 O1404 1.263 . S
O1392 Cd1335 2.350 . S
O1392 C1408 1.270 . S
O1393 Cd1335 2.277 . S
O1393 C1408 1.248 . S
C1394 N1388 1.423 . S
C1394 C1395 1.370 . S
C1394 C1399 1.403 . S
C1395 C1394 1.370 . S
C1395 C1396 1.389 . S
C1395 H1421 0.931 . S
C1396 C1395 1.389 . S
C1396 C1397 1.389 . S
C1397 C1396 1.389 . S
C1397 C1398 1.379 . S
C1397 H1422 0.929 . S
C1398 C1397 1.379 . S
C1398 C1399 1.405 . S
C1399 C1394 1.403 . S
C1399 C1398 1.405 . S
C1399 H1423 0.932 . S
O1400 Cd1335 2.173 . S
O1400 C1336 1.277 . S
O1401 C1336 1.230 . S
O1401 Cd1339 2.250 . S
O1402 Cd1335 2.263 . S
O1402 C1355 1.258 . S
O1403 Cd1339 2.308 . S
O1403 C1355 1.274 . S
O1404 Cd1335 2.366 . S
O1404 C1391 1.263 . S
C1405 O1406 1.235 . S
C1405 O1407 1.270 . S
O1406 Cd1339 2.352 . S
O1406 C1405 1.235 . S
O1407 Cd1335 2.329 . S
O1407 C1405 1.270 . S
C1408 O1392 1.270 . S
C1408 O1393 1.248 . S
H1409 C1341 0.930 . S
H1410 C1344 0.930 . S
H1411 C1345 0.931 . S
H1412 C1350 0.929 . S
H1413 C1352 0.930 . S
H1414 C1354 0.930 . S
H1415 C1357 0.929 . S
H1416 C1358 0.932 . S
H1417 C1360 0.930 . S
H1418 C1384 0.929 . S
H1419 C1385 0.932 . S
H1420 C1386 0.931 . S
H1421 C1395 0.931 . S
H1422 C1397 0.929 . S
H1423 C1399 0.932 . S
Cd1424 O1481 2.350 . S
Cd1424 O1482 2.277 . S
Cd1424 O1489 2.173 . S
Cd1424 O1491 2.263 . S
Cd1424 O1493 2.366 . S
Cd1424 O1496 2.329 . S
C1425 O1489 1.277 . S
C1425 O1490 1.230 . S
C1426 O1427 1.246 . S
C1426 C1429 1.481 . S
C1426 N1451 1.329 . S
O1427 C1426 1.246 . S
Cd1428 O1490 2.250 . S
Cd1428 O1492 2.308 . S
Cd1428 O1495 2.352 . S
C1429 C1426 1.481 . S
C1429 N1432 1.327 . S
C1429 C1433 1.407 . S
C1430 C1431 1.346 . S
C1430 C1434 1.390 . S
C1430 H1498 0.930 . S
C1431 C1430 1.346 . S
C1431 N1432 1.342 . S
C1431 C1436 1.516 1_545 S
N1432 C1429 1.327 . S
N1432 C1431 1.342 . S
N1432 Co1435 1.864 1_545 S
C1433 C1429 1.407 . S
C1433 C1434 1.364 . S
C1433 H1499 0.930 . S
C1434 C1430 1.390 . S
C1434 C1433 1.364 . S
C1434 H1500 0.931 . S
Co1435 N1432 1.864 1_565 S
Co1435 N1451 1.955 1_565 S
Co1435 N1452 1.958 . S
Co1435 N1453 1.953 . S
Co1435 N1471 1.869 . S
Co1435 N1477 1.974 1_565 S
C1436 C1431 1.516 1_565 S
C1436 O1437 1.238 . S
C1436 N1452 1.324 . S
O1437 C1436 1.238 . S
C1438 C1439 1.394 . S
C1438 C1443 1.395 . S
C1438 N1452 1.427 . S
C1439 C1438 1.394 . S
C1439 C1440 1.380 . S
C1439 H1501 0.929 . S
C1440 C1439 1.380 . S
C1440 C1441 1.384 . S
C1440 C1444 1.495 . S
C1441 C1440 1.384 . S
C1441 C1442 1.382 . S
C1441 H1502 0.930 . S
C1442 C1441 1.382 . S
C1442 C1443 1.398 . S
C1443 C1438 1.395 . S
C1443 C1442 1.398 . S
C1443 H1503 0.930 . S
C1444 C1440 1.495 . S
C1444 O1491 1.258 . S
C1444 O1492 1.274 . S
C1445 C1446 1.385 1_545 S
C1445 C1447 1.381 . S
C1445 N1451 1.432 . S
C1446 C1445 1.385 1_565 S
C1446 C1450 1.388 . S
C1446 H1504 0.929 . S
C1447 C1445 1.381 . S
C1447 C1448 1.371 1_545 S
C1447 H1505 0.932 . S
C1448 C1447 1.371 1_565 S
C1448 C1449 1.400 . S
C1449 C1448 1.400 . S
C1449 C1450 1.351 . S
C1449 H1506 0.930 . S
C1450 C1446 1.388 . S
C1450 C1449 1.351 . S
N1451 C1426 1.329 . S
N1451 Co1435 1.955 1_545 S
N1451 C1445 1.432 . S
N1452 Co1435 1.958 . S
N1452 C1436 1.324 . S
N1452 C1438 1.427 . S
N1453 Co1435 1.953 . S
N1453 C1454 1.436 . S
N1453 C1480 1.316 . S
C1454 N1453 1.436 . S
C1454 C1455 1.421 . S
C1454 C1456 1.360 . S
C1455 C1454 1.421 . S
C1455 C1457 1.379 . S
C1455 H1458 0.929 . S
C1456 C1454 1.360 . S
C1456 C1460 1.393 . S
C1456 H1462 0.931 . S
C1457 C1455 1.379 . S
C1457 C1459 1.417 . S
C1457 C1461 1.505 . S
H1458 C1455 0.929 . S
C1459 C1457 1.417 . S
C1459 C1460 1.352 . S
C1459 H1463 0.929 . S
C1460 C1456 1.393 . S
C1460 C1459 1.352 . S
C1460 C1464 1.482 . S
C1461 C1457 1.505 . S
C1461 O1465 1.259 . S
C1461 O1466 1.229 . S
H1462 C1456 0.931 . S
H1463 C1459 0.929 . S
C1464 C1460 1.482 . S
C1464 O1467 1.207 . S
C1464 O1468 1.289 . S
O1465 C1461 1.259 . S
O1465 H1469 0.822 . S
O1466 C1461 1.229 . S
O1467 C1464 1.207 . S
O1468 C1464 1.289 . S
O1468 H1470 0.819 . S
H1469 O1465 0.822 . S
H1470 O1468 0.819 . S
N1471 Co1435 1.869 . S
N1471 C1472 1.330 . S
N1471 C1476 1.325 . S
C1472 N1471 1.330 . S
C1472 C1473 1.359 . S
C1472 C1478 1.504 1_565 S
C1473 C1472 1.359 . S
C1473 C1474 1.366 . S
C1473 H1507 0.929 . S
C1474 C1473 1.366 . S
C1474 C1475 1.415 . S
C1474 H1508 0.932 . S
C1475 C1474 1.415 . S
C1475 C1476 1.366 . S
C1475 H1509 0.931 . S
C1476 N1471 1.325 . S
C1476 C1475 1.366 . S
C1476 C1480 1.516 . S
N1477 Co1435 1.974 1_545 S
N1477 C1478 1.309 . S
N1477 C1483 1.423 . S
C1478 C1472 1.504 1_545 S
C1478 N1477 1.309 . S
C1478 O1479 1.258 . S
O1479 C1478 1.258 . S
C1480 N1453 1.316 . S
C1480 C1476 1.516 . S
C1480 O1493 1.263 . S
O1481 Cd1424 2.350 . S
O1481 C1497 1.270 . S
O1482 Cd1424 2.277 . S
O1482 C1497 1.248 . S
C1483 N1477 1.423 . S
C1483 C1484 1.370 . S
C1483 C1488 1.403 . S
C1484 C1483 1.370 . S
C1484 C1485 1.389 . S
C1484 H1510 0.931 . S
C1485 C1484 1.389 . S
C1485 C1486 1.389 . S
C1486 C1485 1.389 . S
C1486 C1487 1.379 . S
C1486 H1511 0.929 . S
C1487 C1486 1.379 . S
C1487 C1488 1.405 . S
C1488 C1483 1.403 . S
C1488 C1487 1.405 . S
C1488 H1512 0.932 . S
O1489 Cd1424 2.173 . S
O1489 C1425 1.277 . S
O1490 C1425 1.230 . S
O1490 Cd1428 2.250 . S
O1491 Cd1424 2.263 . S
O1491 C1444 1.258 . S
O1492 Cd1428 2.308 . S
O1492 C1444 1.274 . S
O1493 Cd1424 2.366 . S
O1493 C1480 1.263 . S
C1494 O1495 1.235 . S
C1494 O1496 1.270 . S
O1495 Cd1428 2.352 . S
O1495 C1494 1.235 . S
O1496 Cd1424 2.329 . S
O1496 C1494 1.270 . S
C1497 O1481 1.270 . S
C1497 O1482 1.248 . S
H1498 C1430 0.930 . S
H1499 C1433 0.930 . S
H1500 C1434 0.931 . S
H1501 C1439 0.929 . S
H1502 C1441 0.930 . S
H1503 C1443 0.930 . S
H1504 C1446 0.929 . S
H1505 C1447 0.932 . S
H1506 C1449 0.930 . S
H1507 C1473 0.929 . S
H1508 C1474 0.932 . S
H1509 C1475 0.931 . S
H1510 C1484 0.931 . S
H1511 C1486 0.929 . S
H1512 C1488 0.932 . S
Cd1513 O1570 2.350 . S
Cd1513 O1571 2.277 . S
Cd1513 O1578 2.173 . S
Cd1513 O1580 2.263 . S
Cd1513 O1582 2.366 . S
Cd1513 O1585 2.329 . S
C1514 O1578 1.277 . S
C1514 O1579 1.230 . S
C1515 O1516 1.246 . S
C1515 C1518 1.481 . S
C1515 N1540 1.329 . S
O1516 C1515 1.246 . S
Cd1517 O1579 2.250 . S
Cd1517 O1581 2.308 . S
Cd1517 O1584 2.352 . S
C1518 C1515 1.481 . S
C1518 N1521 1.327 . S
C1518 C1522 1.407 . S
C1519 C1520 1.346 . S
C1519 C1523 1.390 . S
C1519 H1587 0.930 . S
C1520 C1519 1.346 . S
C1520 N1521 1.342 . S
C1520 C1525 1.516 1_655 S
N1521 C1518 1.327 . S
N1521 C1520 1.342 . S
N1521 Co1524 1.864 1_655 S
C1522 C1518 1.407 . S
C1522 C1523 1.364 . S
C1522 H1588 0.930 . S
C1523 C1519 1.390 . S
C1523 C1522 1.364 . S
C1523 H1589 0.931 . S
Co1524 N1521 1.864 1_455 S
Co1524 N1540 1.955 1_455 S
Co1524 N1541 1.958 . S
Co1524 N1542 1.953 . S
Co1524 N1560 1.869 . S
Co1524 N1566 1.974 1_455 S
C1525 C1520 1.516 1_455 S
C1525 O1526 1.238 . S
C1525 N1541 1.324 . S
O1526 C1525 1.238 . S
C1527 C1528 1.394 . S
C1527 C1532 1.395 . S
C1527 N1541 1.427 . S
C1528 C1527 1.394 . S
C1528 C1529 1.380 . S
C1528 H1590 0.929 . S
C1529 C1528 1.380 . S
C1529 C1530 1.384 . S
C1529 C1533 1.495 . S
C1530 C1529 1.384 . S
C1530 C1531 1.382 . S
C1530 H1591 0.930 . S
C1531 C1530 1.382 . S
C1531 C1532 1.398 . S
C1532 C1527 1.395 . S
C1532 C1531 1.398 . S
C1532 H1592 0.930 . S
C1533 C1529 1.495 . S
C1533 O1580 1.258 . S
C1533 O1581 1.274 . S
C1534 C1535 1.385 1_655 S
C1534 C1536 1.381 . S
C1534 N1540 1.432 . S
C1535 C1534 1.385 1_455 S
C1535 C1539 1.388 . S
C1535 H1593 0.929 . S
C1536 C1534 1.381 . S
C1536 C1537 1.371 1_655 S
C1536 H1594 0.932 . S
C1537 C1536 1.371 1_455 S
C1537 C1538 1.400 . S
C1538 C1537 1.400 . S
C1538 C1539 1.351 . S
C1538 H1595 0.930 . S
C1539 C1535 1.388 . S
C1539 C1538 1.351 . S
N1540 C1515 1.329 . S
N1540 Co1524 1.955 1_655 S
N1540 C1534 1.432 . S
N1541 Co1524 1.958 . S
N1541 C1525 1.324 . S
N1541 C1527 1.427 . S
N1542 Co1524 1.953 . S
N1542 C1543 1.436 . S
N1542 C1569 1.316 . S
C1543 N1542 1.436 . S
C1543 C1544 1.421 . S
C1543 C1545 1.360 . S
C1544 C1543 1.421 . S
C1544 C1546 1.379 . S
C1544 H1547 0.929 . S
C1545 C1543 1.360 . S
C1545 C1549 1.393 . S
C1545 H1551 0.931 . S
C1546 C1544 1.379 . S
C1546 C1548 1.417 . S
C1546 C1550 1.505 . S
H1547 C1544 0.929 . S
C1548 C1546 1.417 . S
C1548 C1549 1.352 . S
C1548 H1552 0.929 . S
C1549 C1545 1.393 . S
C1549 C1548 1.352 . S
C1549 C1553 1.482 . S
C1550 C1546 1.505 . S
C1550 O1554 1.259 . S
C1550 O1555 1.229 . S
H1551 C1545 0.931 . S
H1552 C1548 0.929 . S
C1553 C1549 1.482 . S
C1553 O1556 1.207 . S
C1553 O1557 1.289 . S
O1554 C1550 1.259 . S
O1554 H1558 0.822 . S
O1555 C1550 1.229 . S
O1556 C1553 1.207 . S
O1557 C1553 1.289 . S
O1557 H1559 0.819 . S
H1558 O1554 0.822 . S
H1559 O1557 0.819 . S
N1560 Co1524 1.869 . S
N1560 C1561 1.330 . S
N1560 C1565 1.325 . S
C1561 N1560 1.330 . S
C1561 C1562 1.359 . S
C1561 C1567 1.504 1_455 S
C1562 C1561 1.359 . S
C1562 C1563 1.366 . S
C1562 H1596 0.929 . S
C1563 C1562 1.366 . S
C1563 C1564 1.415 . S
C1563 H1597 0.932 . S
C1564 C1563 1.415 . S
C1564 C1565 1.366 . S
C1564 H1598 0.931 . S
C1565 N1560 1.325 . S
C1565 C1564 1.366 . S
C1565 C1569 1.516 . S
N1566 Co1524 1.974 1_655 S
N1566 C1567 1.309 . S
N1566 C1572 1.423 . S
C1567 C1561 1.504 1_655 S
C1567 N1566 1.309 . S
C1567 O1568 1.258 . S
O1568 C1567 1.258 . S
C1569 N1542 1.316 . S
C1569 C1565 1.516 . S
C1569 O1582 1.263 . S
O1570 Cd1513 2.350 . S
O1570 C1586 1.270 . S
O1571 Cd1513 2.277 . S
O1571 C1586 1.248 . S
C1572 N1566 1.423 . S
C1572 C1573 1.370 . S
C1572 C1577 1.403 . S
C1573 C1572 1.370 . S
C1573 C1574 1.389 . S
C1573 H1599 0.931 . S
C1574 C1573 1.389 . S
C1574 C1575 1.389 . S
C1575 C1574 1.389 . S
C1575 C1576 1.379 . S
C1575 H1600 0.929 . S
C1576 C1575 1.379 . S
C1576 C1577 1.405 . S
C1577 C1572 1.403 . S
C1577 C1576 1.405 . S
C1577 H1601 0.932 . S
O1578 Cd1513 2.173 . S
O1578 C1514 1.277 . S
O1579 C1514 1.230 . S
O1579 Cd1517 2.250 . S
O1580 Cd1513 2.263 . S
O1580 C1533 1.258 . S
O1581 Cd1517 2.308 . S
O1581 C1533 1.274 . S
O1582 Cd1513 2.366 . S
O1582 C1569 1.263 . S
C1583 O1584 1.235 . S
C1583 O1585 1.270 . S
O1584 Cd1517 2.352 . S
O1584 C1583 1.235 . S
O1585 Cd1513 2.329 . S
O1585 C1583 1.270 . S
C1586 O1570 1.270 . S
C1586 O1571 1.248 . S
H1587 C1519 0.930 . S
H1588 C1522 0.930 . S
H1589 C1523 0.931 . S
H1590 C1528 0.929 . S
H1591 C1530 0.930 . S
H1592 C1532 0.930 . S
H1593 C1535 0.929 . S
H1594 C1536 0.932 . S
H1595 C1538 0.930 . S
H1596 C1562 0.929 . S
H1597 C1563 0.932 . S
H1598 C1564 0.931 . S
H1599 C1573 0.931 . S
H1600 C1575 0.929 . S
H1601 C1577 0.932 . S
H1602 C1608 0.930 . S
H1603 C1612 0.930 . S
H1604 C1617 0.929 . S
H1605 C1615 0.929 . S
H1606 C1610 0.929 . S
H1607 C1616 0.914 1_455 S
C1608 H1602 0.930 . S
C1608 C1609 1.367 1_554 S
C1608 C1616 1.436 . S
C1609 C1608 1.367 1_556 S
C1609 C1617 1.433 . S
C1610 H1606 0.929 . S
C1610 C1612 1.378 . S
C1610 C1614 1.350 1_556 S
C1611 C1614 1.463 . S
C1611 C1616 1.311 1_455 S
C1611 N1619 1.427 1_554 S
C1612 H1603 0.930 . S
C1612 C1610 1.378 . S
C1612 C1613 1.367 1_556 S
C1613 C1612 1.367 1_554 S
C1613 C1615 1.433 . S
C1614 C1610 1.350 1_554 S
C1614 C1611 1.463 . S
C1614 N1618 1.427 . S
C1615 H1605 0.929 . S
C1615 C1613 1.433 . S
C1615 N1618 1.384 . S
C1616 H1607 0.914 1_655 S
C1616 C1608 1.436 . S
C1616 C1611 1.311 1_655 S
C1617 H1604 0.929 . S
C1617 C1609 1.433 . S
C1617 N1619 1.384 1_655 S
N1618 C1614 1.427 . S
N1618 C1615 1.384 . S
N1619 C1611 1.427 1_556 S
N1619 C1617 1.384 1_455 S
H1620 C1626 0.930 . S
H1621 C1630 0.930 . S
H1622 C1635 0.929 . S
H1623 C1633 0.929 . S
H1624 C1628 0.929 . S
H1625 C1634 0.929 . S
C1626 H1620 0.930 . S
C1626 C1627 1.367 1_554 S
C1626 C1634 1.378 . S
C1627 C1626 1.367 1_556 S
C1627 C1635 1.433 . S
C1628 H1624 0.929 . S
C1628 C1630 1.378 . S
C1628 C1632 1.350 1_556 S
C1629 C1632 1.463 . S
C1629 C1634 1.350 . S
C1629 N1637 1.427 1_554 S
C1630 H1621 0.930 . S
C1630 C1628 1.378 . S
C1630 C1631 1.367 1_556 S
C1631 C1630 1.367 1_554 S
C1631 C1633 1.433 . S
C1632 C1628 1.350 1_554 S
C1632 C1629 1.463 . S
C1632 N1636 1.427 . S
C1633 H1623 0.929 . S
C1633 C1631 1.433 . S
C1633 N1636 1.384 . S
C1634 H1625 0.929 . S
C1634 C1626 1.378 . S
C1634 C1629 1.350 . S
C1635 H1622 0.929 . S
C1635 C1627 1.433 . S
C1635 N1637 1.384 . S
N1636 C1632 1.427 . S
N1636 C1633 1.384 . S
N1637 C1629 1.427 1_556 S
N1637 C1635 1.384 . S
H1638 C1644 0.930 . S
H1639 C1648 0.930 . S
H1640 C1653 0.929 1_556 S
H1641 C1651 0.929 . S
H1642 C1646 0.929 . S
H1643 C1652 0.929 . S
C1644 H1638 0.930 . S
C1644 C1645 1.367 . S
C1644 C1652 1.378 . S
C1645 C1644 1.367 . S
C1645 C1653 1.433 . S
C1646 H1642 0.929 . S
C1646 C1648 1.378 1_565 S
C1646 C1650 1.350 1_556 S
C1647 C1650 1.463 . S
C1647 C1652 1.350 . S
C1647 N1655 1.427 1_554 S
C1648 H1639 0.930 . S
C1648 C1646 1.378 1_545 S
C1648 C1649 1.367 . S
C1649 C1648 1.367 . S
C1649 C1651 1.433 1_556 S
C1650 C1646 1.350 1_554 S
C1650 C1647 1.463 . S
C1650 N1654 1.428 . S
C1651 H1641 0.929 . S
C1651 C1649 1.433 1_554 S
C1651 N1654 1.369 1_545 S
C1652 H1643 0.929 . S
C1652 C1644 1.378 . S
C1652 C1647 1.350 . S
C1653 H1640 0.929 1_554 S
C1653 C1645 1.433 . S
C1653 N1655 1.384 1_554 S
N1654 C1650 1.428 . S
N1654 C1651 1.369 1_565 S
N1655 C1647 1.427 1_556 S
N1655 C1653 1.384 1_556 S
H1656 C1662 0.931 . S
H1657 C1666 0.930 . S
H1658 C1671 0.929 . S
H1659 C1669 0.929 . S
H1660 C1664 0.929 . S
H1661 C1670 0.929 . S
C1662 H1656 0.931 . S
C1662 C1663 1.366 1_554 S
C1662 C1670 1.378 . S
C1663 C1662 1.366 1_556 S
C1663 C1671 1.433 . S
C1664 H1660 0.929 . S
C1664 C1666 1.375 1_655 S
C1664 C1668 1.353 . S
C1665 C1668 1.463 . S
C1665 C1670 1.350 1_556 S
C1665 N1673 1.427 . S
C1666 H1657 0.930 . S
C1666 C1664 1.375 1_455 S
C1666 C1667 1.367 1_556 S
C1667 C1666 1.367 1_554 S
C1667 C1669 1.433 . S
C1668 C1664 1.353 . S
C1668 C1665 1.463 . S
C1668 N1672 1.427 1_556 S
C1669 H1659 0.929 . S
C1669 C1667 1.433 . S
C1669 N1672 1.384 1_455 S
C1670 H1661 0.929 . S
C1670 C1662 1.378 . S
C1670 C1665 1.350 1_554 S
C1671 H1658 0.929 . S
C1671 C1663 1.433 . S
C1671 N1673 1.384 . S
N1672 C1668 1.427 1_554 S
N1672 C1669 1.384 1_655 S
N1673 C1665 1.427 . S
N1673 C1671 1.384 . S
H1674 C1680 0.930 . S
H1675 C1684 0.930 . S
H1676 C1689 0.929 . S
H1677 C1687 0.929 . S
H1678 C1682 0.929 . S
H1679 C1688 0.929 . S
C1680 H1674 0.930 . S
C1680 C1681 1.367 . S
C1680 C1688 1.378 . S
C1681 C1680 1.367 . S
C1681 C1689 1.433 1_556 S
C1682 H1678 0.929 . S
C1682 C1684 1.378 . S
C1682 C1686 1.350 1_554 S
C1683 C1686 1.463 . S
C1683 C1688 1.350 . S
C1683 N1691 1.427 1_556 S
C1684 H1675 0.930 . S
C1684 C1682 1.378 . S
C1684 C1685 1.367 . S
C1685 C1684 1.367 . S
C1685 C1687 1.433 1_554 S
C1686 C1682 1.350 1_556 S
C1686 C1683 1.463 . S
C1686 N1690 1.427 . S
C1687 H1677 0.929 . S
C1687 C1685 1.433 1_556 S
C1687 N1690 1.384 . S
C1688 H1679 0.929 . S
C1688 C1680 1.378 . S
C1688 C1683 1.350 . S
C1689 H1676 0.929 . S
C1689 C1681 1.433 1_554 S
C1689 N1691 1.384 . S
N1690 C1686 1.427 . S
N1690 C1687 1.384 . S
N1691 C1683 1.427 1_554 S
N1691 C1689 1.384 . S
H1692 C1698 0.930 . S
H1693 C1702 0.930 . S
H1694 C1707 0.929 . S
H1695 C1705 0.929 . S
H1696 C1700 0.929 . S
H1697 C1706 0.929 . S
C1698 H1692 0.930 . S
C1698 C1699 1.367 . S
C1698 C1706 1.378 . S
C1699 C1698 1.367 . S
C1699 C1707 1.433 1_556 S
C1700 H1696 0.929 . S
C1700 C1702 1.378 1_545 S
C1700 C1704 1.350 1_554 S
C1701 C1704 1.463 . S
C1701 C1706 1.350 . S
C1701 N1709 1.427 1_556 S
C1702 H1693 0.930 . S
C1702 C1700 1.378 1_565 S
C1702 C1703 1.367 . S
C1703 C1702 1.367 . S
C1703 C1705 1.433 1_554 S
C1704 C1700 1.350 1_556 S
C1704 C1701 1.463 . S
C1704 N1708 1.403 1_545 S
C1705 H1695 0.929 . S
C1705 C1703 1.433 1_556 S
C1705 N1708 1.413 . S
C1706 H1697 0.929 . S
C1706 C1698 1.378 . S
C1706 C1701 1.350 . S
C1707 H1694 0.929 . S
C1707 C1699 1.433 1_554 S
C1707 N1709 1.384 . S
N1708 C1704 1.403 1_565 S
N1708 C1705 1.413 . S
N1709 C1701 1.427 1_554 S
N1709 C1707 1.384 . S
H1710 C1716 0.930 . S
H1711 C1720 0.930 . S
H1712 C1725 0.929 . S
H1713 C1723 0.929 . S
H1714 C1718 0.929 . S
H1715 C1724 0.929 . S
C1716 H1710 0.930 . S
C1716 C1717 1.367 . S
C1716 C1724 1.378 . S
C1717 C1716 1.367 . S
C1717 C1725 1.433 . S
C1718 H1714 0.929 . S
C1718 C1720 1.378 . S
C1718 C1722 1.350 . S
C1719 C1722 1.463 . S
C1719 C1724 1.350 . S
C1719 N1727 1.427 . S
C1720 H1711 0.930 . S
C1720 C1718 1.378 . S
C1720 C1721 1.367 . S
C1721 C1720 1.367 . S
C1721 C1723 1.433 . S
C1722 C1718 1.350 . S
C1722 C1719 1.463 . S
C1722 N1726 1.427 . S
C1723 H1713 0.929 . S
C1723 C1721 1.433 . S
C1723 N1726 1.384 . S
C1724 H1715 0.929 . S
C1724 C1716 1.378 . S
C1724 C1719 1.350 . S
C1725 H1712 0.929 . S
C1725 C1717 1.433 . S
C1725 N1727 1.384 . S
N1726 C1722 1.427 . S
N1726 C1723 1.384 . S
N1727 C1719 1.427 . S
N1727 C1725 1.384 . S
H1728 C1734 0.930 . S
H1729 C1738 0.930 . S
H1730 C1743 0.929 . S
H1731 C1741 0.929 . S
H1732 C1736 0.929 . S
H1733 C1742 0.929 . S
C1734 H1728 0.930 . S
C1734 C1735 1.367 . S
C1734 C1742 1.378 . S
C1735 C1734 1.367 . S
C1735 C1743 1.433 . S
C1736 H1732 0.929 . S
C1736 C1738 1.378 . S
C1736 C1740 1.350 . S
C1737 C1740 1.463 . S
C1737 C1742 1.350 . S
C1737 N1745 1.427 . S
C1738 H1729 0.930 . S
C1738 C1736 1.378 . S
C1738 C1739 1.367 . S
C1739 C1738 1.367 . S
C1739 C1741 1.433 . S
C1740 C1736 1.350 . S
C1740 C1737 1.463 . S
C1740 N1744 1.427 . S
C1741 H1731 0.929 . S
C1741 C1739 1.433 . S
C1741 N1744 1.384 . S
C1742 H1733 0.929 . S
C1742 C1734 1.378 . S
C1742 C1737 1.350 . S
C1743 H1730 0.929 . S
C1743 C1735 1.433 . S
C1743 N1745 1.384 . S
N1744 C1740 1.427 . S
N1744 C1741 1.384 . S
N1745 C1737 1.427 . S
N1745 C1743 1.384 . S
H1746 C1752 0.930 . S
H1747 C1756 0.930 . S
H1748 C1761 0.929 . S
H1749 C1759 0.929 . S
H1750 C1754 0.929 . S
H1751 C1760 0.929 . S
C1752 H1746 0.930 . S
C1752 C1753 1.367 . S
C1752 C1760 1.378 . S
C1753 C1752 1.367 . S
C1753 C1761 1.433 . S
C1754 H1750 0.929 . S
C1754 C1756 1.378 . S
C1754 C1758 1.350 . S
C1755 C1758 1.463 . S
C1755 C1760 1.350 . S
C1755 N1763 1.427 . S
C1756 H1747 0.930 . S
C1756 C1754 1.378 . S
C1756 C1757 1.367 . S
C1757 C1756 1.367 . S
C1757 C1759 1.433 . S
C1758 C1754 1.350 . S
C1758 C1755 1.463 . S
C1758 N1762 1.427 . S
C1759 H1749 0.929 . S
C1759 C1757 1.433 . S
C1759 N1762 1.384 . S
C1760 H1751 0.929 . S
C1760 C1752 1.378 . S
C1760 C1755 1.350 . S
C1761 H1748 0.929 . S
C1761 C1753 1.433 . S
C1761 N1763 1.384 . S
N1762 C1758 1.427 . S
N1762 C1759 1.384 . S
N1763 C1755 1.427 . S
N1763 C1761 1.384 . S
H1764 C1770 0.930 . S
H1765 C1774 0.930 . S
H1766 C1779 0.929 . S
H1767 C1777 0.929 . S
H1768 C1772 0.929 . S
H1769 C1778 0.929 . S
C1770 H1764 0.930 . S
C1770 C1771 1.367 . S
C1770 C1778 1.378 . S
C1771 C1770 1.367 . S
C1771 C1779 1.433 . S
C1772 H1768 0.929 . S
C1772 C1774 1.378 . S
C1772 C1776 1.350 . S
C1773 C1776 1.463 . S
C1773 C1778 1.350 . S
C1773 N1781 1.427 . S
C1774 H1765 0.930 . S
C1774 C1772 1.378 . S
C1774 C1775 1.367 . S
C1775 C1774 1.367 . S
C1775 C1777 1.433 . S
C1776 C1772 1.350 . S
C1776 C1773 1.463 . S
C1776 N1780 1.427 . S
C1777 H1767 0.929 . S
C1777 C1775 1.433 . S
C1777 N1780 1.384 . S
C1778 H1769 0.929 . S
C1778 C1770 1.378 . S
C1778 C1773 1.350 . S
C1779 H1766 0.929 . S
C1779 C1771 1.433 . S
C1779 N1781 1.384 . S
N1780 C1776 1.427 . S
N1780 C1777 1.384 . S
N1781 C1773 1.427 . S
N1781 C1779 1.384 . S
H1782 C1788 0.930 . S
H1783 C1792 0.930 . S
H1784 C1797 0.929 . S
H1785 C1795 0.929 . S
H1786 C1790 0.929 . S
H1787 C1796 0.929 . S
C1788 H1782 0.930 . S
C1788 C1789 1.367 . S
C1788 C1796 1.378 . S
C1789 C1788 1.367 . S
C1789 C1797 1.433 . S
C1790 H1786 0.929 . S
C1790 C1792 1.378 . S
C1790 C1794 1.350 . S
C1791 C1794 1.463 . S
C1791 C1796 1.350 . S
C1791 N1799 1.427 . S
C1792 H1783 0.930 . S
C1792 C1790 1.378 . S
C1792 C1793 1.367 . S
C1793 C1792 1.367 . S
C1793 C1795 1.433 . S
C1794 C1790 1.350 . S
C1794 C1791 1.463 . S
C1794 N1798 1.427 . S
C1795 H1785 0.929 . S
C1795 C1793 1.433 . S
C1795 N1798 1.384 . S
C1796 H1787 0.929 . S
C1796 C1788 1.378 . S
C1796 C1791 1.350 . S
C1797 H1784 0.929 . S
C1797 C1789 1.433 . S
C1797 N1799 1.384 . S
N1798 C1794 1.427 . S
N1798 C1795 1.384 . S
N1799 C1791 1.427 . S
N1799 C1797 1.384 . S
H1800 C1806 0.930 . S
H1801 C1810 0.930 . S
H1802 C1815 0.929 . S
H1803 C1813 0.929 . S
H1804 C1808 0.929 . S
H1805 C1814 0.929 . S
C1806 H1800 0.930 . S
C1806 C1807 1.367 . S
C1806 C1814 1.378 . S
C1807 C1806 1.367 . S
C1807 C1815 1.433 . S
C1808 H1804 0.929 . S
C1808 C1810 1.378 . S
C1808 C1812 1.350 . S
C1809 C1812 1.463 . S
C1809 C1814 1.350 . S
C1809 N1817 1.427 . S
C1810 H1801 0.930 . S
C1810 C1808 1.378 . S
C1810 C1811 1.367 . S
C1811 C1810 1.367 . S
C1811 C1813 1.433 . S
C1812 C1808 1.350 . S
C1812 C1809 1.463 . S
C1812 N1816 1.427 . S
C1813 H1803 0.929 . S
C1813 C1811 1.433 . S
C1813 N1816 1.384 . S
C1814 H1805 0.929 . S
C1814 C1806 1.378 . S
C1814 C1809 1.350 . S
C1815 H1802 0.929 . S
C1815 C1807 1.433 . S
C1815 N1817 1.384 . S
N1816 C1812 1.427 . S
N1816 C1813 1.384 . S
N1817 C1809 1.427 . S
N1817 C1815 1.384 . S
H1818 C1824 0.930 . S
H1819 C1828 0.930 . S
H1820 C1833 0.929 . S
H1821 C1831 0.929 . S
H1822 C1826 0.929 . S
H1823 C1832 0.929 . S
C1824 H1818 0.930 . S
C1824 C1825 1.367 . S
C1824 C1832 1.378 . S
C1825 C1824 1.367 . S
C1825 C1833 1.433 . S
C1826 H1822 0.929 . S
C1826 C1828 1.378 . S
C1826 C1830 1.350 . S
C1827 C1830 1.463 . S
C1827 C1832 1.350 . S
C1827 N1835 1.427 . S
C1828 H1819 0.930 . S
C1828 C1826 1.378 . S
C1828 C1829 1.367 . S
C1829 C1828 1.367 . S
C1829 C1831 1.433 . S
C1830 C1826 1.350 . S
C1830 C1827 1.463 . S
C1830 N1834 1.427 . S
C1831 H1821 0.929 . S
C1831 C1829 1.433 . S
C1831 N1834 1.384 . S
C1832 H1823 0.929 . S
C1832 C1824 1.378 . S
C1832 C1827 1.350 . S
C1833 H1820 0.929 . S
C1833 C1825 1.433 . S
C1833 N1835 1.384 . S
N1834 C1830 1.427 . S
N1834 C1831 1.384 . S
N1835 C1827 1.427 . S
N1835 C1833 1.384 . S
H1836 C1842 0.930 . S
H1837 C1846 0.930 . S
H1838 C1851 0.929 . S
H1839 C1849 0.929 . S
H1840 C1844 0.929 . S
H1841 C1850 0.929 . S
C1842 H1836 0.930 . S
C1842 C1843 1.367 . S
C1842 C1850 1.378 . S
C1843 C1842 1.367 . S
C1843 C1851 1.433 . S
C1844 H1840 0.929 . S
C1844 C1846 1.378 . S
C1844 C1848 1.350 . S
C1845 C1848 1.463 . S
C1845 C1850 1.350 . S
C1845 N1853 1.427 . S
C1846 H1837 0.930 . S
C1846 C1844 1.378 . S
C1846 C1847 1.367 . S
C1847 C1846 1.367 . S
C1847 C1849 1.433 . S
C1848 C1844 1.350 . S
C1848 C1845 1.463 . S
C1848 N1852 1.427 . S
C1849 H1839 0.929 . S
C1849 C1847 1.433 . S
C1849 N1852 1.384 . S
C1850 H1841 0.929 . S
C1850 C1842 1.378 . S
C1850 C1845 1.350 . S
C1851 H1838 0.929 . S
C1851 C1843 1.433 . S
C1851 N1853 1.384 . S
N1852 C1848 1.427 . S
N1852 C1849 1.384 . S
N1853 C1845 1.427 . S
N1853 C1851 1.384 . S
H1854 C1860 0.930 . S
H1855 C1864 0.930 . S
H1856 C1869 0.929 . S
H1857 C1867 0.929 . S
H1858 C1862 0.929 . S
H1859 C1868 0.929 . S
C1860 H1854 0.930 . S
C1860 C1861 1.367 . S
C1860 C1868 1.378 . S
C1861 C1860 1.367 . S
C1861 C1869 1.433 . S
C1862 H1858 0.929 . S
C1862 C1864 1.378 . S
C1862 C1866 1.350 . S
C1863 C1866 1.463 . S
C1863 C1868 1.350 . S
C1863 N1871 1.427 . S
C1864 H1855 0.930 . S
C1864 C1862 1.378 . S
C1864 C1865 1.367 . S
C1865 C1864 1.367 . S
C1865 C1867 1.433 . S
C1866 C1862 1.350 . S
C1866 C1863 1.463 . S
C1866 N1870 1.427 . S
C1867 H1857 0.929 . S
C1867 C1865 1.433 . S
C1867 N1870 1.384 . S
C1868 H1859 0.929 . S
C1868 C1860 1.378 . S
C1868 C1863 1.350 . S
C1869 H1856 0.929 . S
C1869 C1861 1.433 . S
C1869 N1871 1.384 . S
N1870 C1866 1.427 . S
N1870 C1867 1.384 . S
N1871 C1863 1.427 . S
N1871 C1869 1.384 . S
H1872 C1878 0.930 . S
H1873 C1882 0.930 . S
H1874 C1887 0.929 . S
H1875 C1885 0.929 . S
H1876 C1880 0.929 . S
H1877 C1886 0.929 . S
C1878 H1872 0.930 . S
C1878 C1879 1.367 . S
C1878 C1886 1.378 . S
C1879 C1878 1.367 . S
C1879 C1887 1.433 . S
C1880 H1876 0.929 . S
C1880 C1882 1.378 . S
C1880 C1884 1.350 . S
C1881 C1884 1.463 . S
C1881 C1886 1.350 . S
C1881 N1889 1.427 . S
C1882 H1873 0.930 . S
C1882 C1880 1.378 . S
C1882 C1883 1.367 . S
C1883 C1882 1.367 . S
C1883 C1885 1.433 . S
C1884 C1880 1.350 . S
C1884 C1881 1.463 . S
C1884 N1888 1.427 . S
C1885 H1875 0.929 . S
C1885 C1883 1.433 . S
C1885 N1888 1.384 . S
C1886 H1877 0.929 . S
C1886 C1878 1.378 . S
C1886 C1881 1.350 . S
C1887 H1874 0.929 . S
C1887 C1879 1.433 . S
C1887 N1889 1.384 . S
N1888 C1884 1.427 . S
N1888 C1885 1.384 . S
N1889 C1881 1.427 . S
N1889 C1887 1.384 . S
H1890 C1896 0.930 . S
H1891 C1900 0.930 . S
H1892 C1905 0.929 . S
H1893 C1903 0.929 . S
H1894 C1898 0.929 . S
H1895 C1904 0.929 . S
C1896 H1890 0.930 . S
C1896 C1897 1.367 . S
C1896 C1904 1.378 . S
C1897 C1896 1.367 . S
C1897 C1905 1.433 . S
C1898 H1894 0.929 . S
C1898 C1900 1.378 . S
C1898 C1902 1.350 . S
C1899 C1902 1.463 . S
C1899 C1904 1.350 . S
C1899 N1907 1.427 . S
C1900 H1891 0.930 . S
C1900 C1898 1.378 . S
C1900 C1901 1.367 . S
C1901 C1900 1.367 . S
C1901 C1903 1.433 . S
C1902 C1898 1.350 . S
C1902 C1899 1.463 . S
C1902 N1906 1.427 . S
C1903 H1893 0.929 . S
C1903 C1901 1.433 . S
C1903 N1906 1.384 . S
C1904 H1895 0.929 . S
C1904 C1896 1.378 . S
C1904 C1899 1.350 . S
C1905 H1892 0.929 . S
C1905 C1897 1.433 . S
C1905 N1907 1.384 . S
N1906 C1902 1.427 . S
N1906 C1903 1.384 . S
N1907 C1899 1.427 . S
N1907 C1905 1.384 . S
H1908 C1914 0.930 . S
H1909 C1918 0.930 . S
H1910 C1923 0.929 . S
H1911 C1921 0.929 . S
H1912 C1916 0.929 . S
H1913 C1922 0.929 . S
C1914 H1908 0.930 . S
C1914 C1915 1.367 . S
C1914 C1922 1.378 . S
C1915 C1914 1.367 . S
C1915 C1923 1.433 . S
C1916 H1912 0.929 . S
C1916 C1918 1.378 . S
C1916 C1920 1.350 . S
C1917 C1920 1.463 . S
C1917 C1922 1.350 . S
C1917 N1925 1.427 . S
C1918 H1909 0.930 . S
C1918 C1916 1.378 . S
C1918 C1919 1.367 . S
C1919 C1918 1.367 . S
C1919 C1921 1.433 . S
C1920 C1916 1.350 . S
C1920 C1917 1.463 . S
C1920 N1924 1.427 . S
C1921 H1911 0.929 . S
C1921 C1919 1.433 . S
C1921 N1924 1.384 . S
C1922 H1913 0.929 . S
C1922 C1914 1.378 . S
C1922 C1917 1.350 . S
C1923 H1910 0.929 . S
C1923 C1915 1.433 . S
C1923 N1925 1.384 . S
N1924 C1920 1.427 . S
N1924 C1921 1.384 . S
N1925 C1917 1.427 . S
N1925 C1923 1.384 . S
H1926 C1932 0.930 . S
H1927 C1936 0.930 . S
H1928 C1941 0.929 . S
H1929 C1939 0.929 . S
H1930 C1934 0.929 . S
H1931 C1940 0.929 . S
C1932 H1926 0.930 . S
C1932 C1933 1.367 . S
C1932 C1940 1.378 . S
C1933 C1932 1.367 . S
C1933 C1941 1.433 . S
C1934 H1930 0.929 . S
C1934 C1936 1.378 . S
C1934 C1938 1.350 . S
C1935 C1938 1.463 . S
C1935 C1940 1.350 . S
C1935 N1943 1.427 . S
C1936 H1927 0.930 . S
C1936 C1934 1.378 . S
C1936 C1937 1.367 . S
C1937 C1936 1.367 . S
C1937 C1939 1.433 . S
C1938 C1934 1.350 . S
C1938 C1935 1.463 . S
C1938 N1942 1.427 . S
C1939 H1929 0.929 . S
C1939 C1937 1.433 . S
C1939 N1942 1.384 . S
C1940 H1931 0.929 . S
C1940 C1932 1.378 . S
C1940 C1935 1.350 . S
C1941 H1928 0.929 . S
C1941 C1933 1.433 . S
C1941 N1943 1.384 . S
N1942 C1938 1.427 . S
N1942 C1939 1.384 . S
N1943 C1935 1.427 . S
N1943 C1941 1.384 . S
H1944 C1950 0.930 . S
H1945 C1954 0.930 . S
H1946 C1959 0.929 . S
H1947 C1957 0.929 . S
H1948 C1952 0.929 . S
H1949 C1958 0.929 . S
C1950 H1944 0.930 . S
C1950 C1951 1.367 . S
C1950 C1958 1.378 . S
C1951 C1950 1.367 . S
C1951 C1959 1.433 . S
C1952 H1948 0.929 . S
C1952 C1954 1.378 . S
C1952 C1956 1.350 . S
C1953 C1956 1.463 . S
C1953 C1958 1.350 . S
C1953 N1961 1.427 . S
C1954 H1945 0.930 . S
C1954 C1952 1.378 . S
C1954 C1955 1.367 . S
C1955 C1954 1.367 . S
C1955 C1957 1.433 . S
C1956 C1952 1.350 . S
C1956 C1953 1.463 . S
C1956 N1960 1.427 . S
C1957 H1947 0.929 . S
C1957 C1955 1.433 . S
C1957 N1960 1.384 . S
C1958 H1949 0.929 . S
C1958 C1950 1.378 . S
C1958 C1953 1.350 . S
C1959 H1946 0.929 . S
C1959 C1951 1.433 . S
C1959 N1961 1.384 . S
N1960 C1956 1.427 . S
N1960 C1957 1.384 . S
N1961 C1953 1.427 . S
N1961 C1959 1.384 . S
H1962 C1968 0.930 . S
H1963 C1972 0.930 . S
H1964 C1977 0.929 . S
H1965 C1975 0.929 . S
H1966 C1970 0.929 . S
H1967 C1976 0.929 . S
C1968 H1962 0.930 . S
C1968 C1969 1.367 . S
C1968 C1976 1.378 . S
C1969 C1968 1.367 . S
C1969 C1977 1.433 . S
C1970 H1966 0.929 . S
C1970 C1972 1.378 . S
C1970 C1974 1.350 . S
C1971 C1974 1.463 . S
C1971 C1976 1.350 . S
C1971 N1979 1.427 . S
C1972 H1963 0.930 . S
C1972 C1970 1.378 . S
C1972 C1973 1.367 . S
C1973 C1972 1.367 . S
C1973 C1975 1.433 . S
C1974 C1970 1.350 . S
C1974 C1971 1.463 . S
C1974 N1978 1.427 . S
C1975 H1965 0.929 . S
C1975 C1973 1.433 . S
C1975 N1978 1.384 . S
C1976 H1967 0.929 . S
C1976 C1968 1.378 . S
C1976 C1971 1.350 . S
C1977 H1964 0.929 . S
C1977 C1969 1.433 . S
C1977 N1979 1.384 . S
N1978 C1974 1.427 . S
N1978 C1975 1.384 . S
N1979 C1971 1.427 . S
N1979 C1977 1.384 . S
H1980 C1986 0.930 . S
H1981 C1990 0.930 . S
H1982 C1995 0.929 . S
H1983 C1993 0.929 . S
H1984 C1988 0.929 . S
H1985 C1994 0.929 . S
C1986 H1980 0.930 . S
C1986 C1987 1.367 . S
C1986 C1994 1.378 . S
C1987 C1986 1.367 . S
C1987 C1995 1.433 . S
C1988 H1984 0.929 . S
C1988 C1990 1.378 . S
C1988 C1992 1.350 . S
C1989 C1992 1.463 . S
C1989 C1994 1.350 . S
C1989 N1997 1.427 . S
C1990 H1981 0.930 . S
C1990 C1988 1.378 . S
C1990 C1991 1.367 . S
C1991 C1990 1.367 . S
C1991 C1993 1.433 . S
C1992 C1988 1.350 . S
C1992 C1989 1.463 . S
C1992 N1996 1.427 . S
C1993 H1983 0.929 . S
C1993 C1991 1.433 . S
C1993 N1996 1.384 . S
C1994 H1985 0.929 . S
C1994 C1986 1.378 . S
C1994 C1989 1.350 . S
C1995 H1982 0.929 . S
C1995 C1987 1.433 . S
C1995 N1997 1.384 . S
N1996 C1992 1.427 . S
N1996 C1993 1.384 . S
N1997 C1989 1.427 . S
N1997 C1995 1.384 . S
H1998 C2004 0.930 . S
H1999 C2008 0.930 . S
H2000 C2013 0.929 . S
H2001 C2011 0.929 . S
H2002 C2006 0.929 . S
H2003 C2012 0.929 . S
C2004 H1998 0.930 . S
C2004 C2005 1.367 . S
C2004 C2012 1.378 . S
C2005 C2004 1.367 . S
C2005 C2013 1.433 . S
C2006 H2002 0.929 . S
C2006 C2008 1.378 . S
C2006 C2010 1.350 . S
C2007 C2010 1.463 . S
C2007 C2012 1.350 . S
C2007 N2015 1.427 . S
C2008 H1999 0.930 . S
C2008 C2006 1.378 . S
C2008 C2009 1.367 . S
C2009 C2008 1.367 . S
C2009 C2011 1.433 . S
C2010 C2006 1.350 . S
C2010 C2007 1.463 . S
C2010 N2014 1.427 . S
C2011 H2001 0.929 . S
C2011 C2009 1.433 . S
C2011 N2014 1.384 . S
C2012 H2003 0.929 . S
C2012 C2004 1.378 . S
C2012 C2007 1.350 . S
C2013 H2000 0.929 . S
C2013 C2005 1.433 . S
C2013 N2015 1.384 . S
N2014 C2010 1.427 . S
N2014 C2011 1.384 . S
N2015 C2007 1.427 . S
N2015 C2013 1.384 . S
H2016 C2022 0.930 . S
H2017 C2026 0.930 . S
H2018 C2031 0.929 . S
H2019 C2029 0.929 . S
H2020 C2024 0.929 . S
H2021 C2030 0.929 . S
C2022 H2016 0.930 . S
C2022 C2023 1.367 . S
C2022 C2030 1.378 . S
C2023 C2022 1.367 . S
C2023 C2031 1.433 . S
C2024 H2020 0.929 . S
C2024 C2026 1.378 . S
C2024 C2028 1.350 . S
C2025 C2028 1.463 . S
C2025 C2030 1.350 . S
C2025 N2033 1.427 . S
C2026 H2017 0.930 . S
C2026 C2024 1.378 . S
C2026 C2027 1.367 . S
C2027 C2026 1.367 . S
C2027 C2029 1.433 . S
C2028 C2024 1.350 . S
C2028 C2025 1.463 . S
C2028 N2032 1.427 . S
C2029 H2019 0.929 . S
C2029 C2027 1.433 . S
C2029 N2032 1.384 . S
C2030 H2021 0.929 . S
C2030 C2022 1.378 . S
C2030 C2025 1.350 . S
C2031 H2018 0.929 . S
C2031 C2023 1.433 . S
C2031 N2033 1.384 . S
N2032 C2028 1.427 . S
N2032 C2029 1.384 . S
N2033 C2025 1.427 . S
N2033 C2031 1.384 . S
H2034 C2040 0.930 . S
H2035 C2044 0.930 . S
H2036 C2049 0.929 . S
H2037 C2047 0.929 . S
H2038 C2042 0.929 . S
H2039 C2048 0.929 . S
C2040 H2034 0.930 . S
C2040 C2041 1.367 . S
C2040 C2048 1.378 . S
C2041 C2040 1.367 . S
C2041 C2049 1.433 . S
C2042 H2038 0.929 . S
C2042 C2044 1.378 . S
C2042 C2046 1.350 . S
C2043 C2046 1.463 . S
C2043 C2048 1.350 . S
C2043 N2051 1.427 . S
C2044 H2035 0.930 . S
C2044 C2042 1.378 . S
C2044 C2045 1.367 . S
C2045 C2044 1.367 . S
C2045 C2047 1.433 . S
C2046 C2042 1.350 . S
C2046 C2043 1.463 . S
C2046 N2050 1.427 . S
C2047 H2037 0.929 . S
C2047 C2045 1.433 . S
C2047 N2050 1.384 . S
C2048 H2039 0.929 . S
C2048 C2040 1.378 . S
C2048 C2043 1.350 . S
C2049 H2036 0.929 . S
C2049 C2041 1.433 . S
C2049 N2051 1.384 . S
N2050 C2046 1.427 . S
N2050 C2047 1.384 . S
N2051 C2043 1.427 . S
N2051 C2049 1.384 . S
H2052 C2058 0.930 . S
H2053 C2062 0.930 . S
H2054 C2067 0.929 . S
H2055 C2065 0.929 . S
H2056 C2060 0.929 . S
H2057 C2066 0.929 . S
C2058 H2052 0.930 . S
C2058 C2059 1.367 . S
C2058 C2066 1.378 . S
C2059 C2058 1.367 . S
C2059 C2067 1.433 . S
C2060 H2056 0.929 . S
C2060 C2062 1.378 . S
C2060 C2064 1.350 . S
C2061 C2064 1.463 . S
C2061 C2066 1.350 . S
C2061 N2069 1.427 . S
C2062 H2053 0.930 . S
C2062 C2060 1.378 . S
C2062 C2063 1.367 . S
C2063 C2062 1.367 . S
C2063 C2065 1.433 . S
C2064 C2060 1.350 . S
C2064 C2061 1.463 . S
C2064 N2068 1.427 . S
C2065 H2055 0.929 . S
C2065 C2063 1.433 . S
C2065 N2068 1.384 . S
C2066 H2057 0.929 . S
C2066 C2058 1.378 . S
C2066 C2061 1.350 . S
C2067 H2054 0.929 . S
C2067 C2059 1.433 . S
C2067 N2069 1.384 . S
N2068 C2064 1.427 . S
N2068 C2065 1.384 . S
N2069 C2061 1.427 . S
N2069 C2067 1.384 . S
H2070 C2076 0.930 . S
H2071 C2080 0.930 . S
H2072 C2085 0.929 . S
H2073 C2083 0.929 . S
H2074 C2078 0.929 . S
H2075 C2084 0.929 . S
C2076 H2070 0.930 . S
C2076 C2077 1.367 . S
C2076 C2084 1.378 . S
C2077 C2076 1.367 . S
C2077 C2085 1.433 . S
C2078 H2074 0.929 . S
C2078 C2080 1.378 . S
C2078 C2082 1.350 . S
C2079 C2082 1.463 . S
C2079 C2084 1.350 . S
C2079 N2087 1.427 . S
C2080 H2071 0.930 . S
C2080 C2078 1.378 . S
C2080 C2081 1.367 . S
C2081 C2080 1.367 . S
C2081 C2083 1.433 . S
C2082 C2078 1.350 . S
C2082 C2079 1.463 . S
C2082 N2086 1.427 . S
C2083 H2073 0.929 . S
C2083 C2081 1.433 . S
C2083 N2086 1.384 . S
C2084 H2075 0.929 . S
C2084 C2076 1.378 . S
C2084 C2079 1.350 . S
C2085 H2072 0.929 . S
C2085 C2077 1.433 . S
C2085 N2087 1.384 . S
N2086 C2082 1.427 . S
N2086 C2083 1.384 . S
N2087 C2079 1.427 . S
N2087 C2085 1.384 . S
H2088 C2094 0.930 . S
H2089 C2098 0.930 . S
H2090 C2103 0.929 . S
H2091 C2101 0.929 . S
H2092 C2096 0.929 . S
H2093 C2102 0.929 . S
C2094 H2088 0.930 . S
C2094 C2095 1.367 . S
C2094 C2102 1.378 . S
C2095 C2094 1.367 . S
C2095 C2103 1.433 . S
C2096 H2092 0.929 . S
C2096 C2098 1.378 . S
C2096 C2100 1.350 . S
C2097 C2100 1.463 . S
C2097 C2102 1.350 . S
C2097 N2105 1.427 . S
C2098 H2089 0.930 . S
C2098 C2096 1.378 . S
C2098 C2099 1.367 . S
C2099 C2098 1.367 . S
C2099 C2101 1.433 . S
C2100 C2096 1.350 . S
C2100 C2097 1.463 . S
C2100 N2104 1.427 . S
C2101 H2091 0.929 . S
C2101 C2099 1.433 . S
C2101 N2104 1.384 . S
C2102 H2093 0.929 . S
C2102 C2094 1.378 . S
C2102 C2097 1.350 . S
C2103 H2090 0.929 . S
C2103 C2095 1.433 . S
C2103 N2105 1.384 . S
N2104 C2100 1.427 . S
N2104 C2101 1.384 . S
N2105 C2097 1.427 . S
N2105 C2103 1.384 . S
H2106 C2112 0.930 . S
H2107 C2116 0.930 . S
H2108 C2121 0.929 . S
H2109 C2119 0.929 . S
H2110 C2114 0.929 . S
H2111 C2120 0.929 . S
C2112 H2106 0.930 . S
C2112 C2113 1.367 . S
C2112 C2120 1.378 . S
C2113 C2112 1.367 . S
C2113 C2121 1.433 . S
C2114 H2110 0.929 . S
C2114 C2116 1.378 . S
C2114 C2118 1.350 . S
C2115 C2118 1.463 . S
C2115 C2120 1.350 . S
C2115 N2123 1.427 . S
C2116 H2107 0.930 . S
C2116 C2114 1.378 . S
C2116 C2117 1.367 . S
C2117 C2116 1.367 . S
C2117 C2119 1.433 . S
C2118 C2114 1.350 . S
C2118 C2115 1.463 . S
C2118 N2122 1.427 . S
C2119 H2109 0.929 . S
C2119 C2117 1.433 . S
C2119 N2122 1.384 . S
C2120 H2111 0.929 . S
C2120 C2112 1.378 . S
C2120 C2115 1.350 . S
C2121 H2108 0.929 . S
C2121 C2113 1.433 . S
C2121 N2123 1.384 . S
N2122 C2118 1.427 . S
N2122 C2119 1.384 . S
N2123 C2115 1.427 . S
N2123 C2121 1.384 . S
H2124 C2130 0.930 . S
H2125 C2134 0.930 . S
H2126 C2139 0.929 . S
H2127 C2137 0.929 . S
H2128 C2132 0.929 . S
H2129 C2138 0.929 . S
C2130 H2124 0.930 . S
C2130 C2131 1.367 . S
C2130 C2138 1.378 . S
C2131 C2130 1.367 . S
C2131 C2139 1.433 . S
C2132 H2128 0.929 . S
C2132 C2134 1.378 . S
C2132 C2136 1.350 . S
C2133 C2136 1.463 . S
C2133 C2138 1.350 . S
C2133 N2141 1.427 . S
C2134 H2125 0.930 . S
C2134 C2132 1.378 . S
C2134 C2135 1.367 . S
C2135 C2134 1.367 . S
C2135 C2137 1.433 . S
C2136 C2132 1.350 . S
C2136 C2133 1.463 . S
C2136 N2140 1.427 . S
C2137 H2127 0.929 . S
C2137 C2135 1.433 . S
C2137 N2140 1.384 . S
C2138 H2129 0.929 . S
C2138 C2130 1.378 . S
C2138 C2133 1.350 . S
C2139 H2126 0.929 . S
C2139 C2131 1.433 . S
C2139 N2141 1.384 . S
N2140 C2136 1.427 . S
N2140 C2137 1.384 . S
N2141 C2133 1.427 . S
N2141 C2139 1.384 . S
H2142 C2148 0.930 . S
H2143 C2152 0.930 . S
H2144 C2157 0.929 . S
H2145 C2155 0.929 . S
H2146 C2150 0.929 . S
H2147 C2156 0.929 . S
C2148 H2142 0.930 . S
C2148 C2149 1.367 . S
C2148 C2156 1.378 . S
C2149 C2148 1.367 . S
C2149 C2157 1.433 . S
C2150 H2146 0.929 . S
C2150 C2152 1.378 . S
C2150 C2154 1.350 . S
C2151 C2154 1.463 . S
C2151 C2156 1.350 . S
C2151 N2159 1.427 . S
C2152 H2143 0.930 . S
C2152 C2150 1.378 . S
C2152 C2153 1.367 . S
C2153 C2152 1.367 . S
C2153 C2155 1.433 . S
C2154 C2150 1.350 . S
C2154 C2151 1.463 . S
C2154 N2158 1.427 . S
C2155 H2145 0.929 . S
C2155 C2153 1.433 . S
C2155 N2158 1.384 . S
C2156 H2147 0.929 . S
C2156 C2148 1.378 . S
C2156 C2151 1.350 . S
C2157 H2144 0.929 . S
C2157 C2149 1.433 . S
C2157 N2159 1.384 . S
N2158 C2154 1.427 . S
N2158 C2155 1.384 . S
N2159 C2151 1.427 . S
N2159 C2157 1.384 . S
H2160 C2166 0.930 . S
H2161 C2170 0.930 . S
H2162 C2175 0.929 . S
H2163 C2173 0.929 . S
H2164 C2168 0.929 . S
H2165 C2174 0.929 . S
C2166 H2160 0.930 . S
C2166 C2167 1.367 . S
C2166 C2174 1.378 . S
C2167 C2166 1.367 . S
C2167 C2175 1.433 . S
C2168 H2164 0.929 . S
C2168 C2170 1.378 . S
C2168 C2172 1.350 . S
C2169 C2172 1.463 . S
C2169 C2174 1.350 . S
C2169 N2177 1.427 . S
C2170 H2161 0.930 . S
C2170 C2168 1.378 . S
C2170 C2171 1.367 . S
C2171 C2170 1.367 . S
C2171 C2173 1.433 . S
C2172 C2168 1.350 . S
C2172 C2169 1.463 . S
C2172 N2176 1.427 . S
C2173 H2163 0.929 . S
C2173 C2171 1.433 . S
C2173 N2176 1.384 . S
C2174 H2165 0.929 . S
C2174 C2166 1.378 . S
C2174 C2169 1.350 . S
C2175 H2162 0.929 . S
C2175 C2167 1.433 . S
C2175 N2177 1.384 . S
N2176 C2172 1.427 . S
N2176 C2173 1.384 . S
N2177 C2169 1.427 . S
N2177 C2175 1.384 . S
H2178 C2184 0.930 . S
H2179 C2188 0.930 . S
H2180 C2193 0.929 . S
H2181 C2191 0.929 . S
H2182 C2186 0.929 . S
H2183 C2192 0.929 . S
C2184 H2178 0.930 . S
C2184 C2185 1.367 . S
C2184 C2192 1.378 . S
C2185 C2184 1.367 . S
C2185 C2193 1.433 . S
C2186 H2182 0.929 . S
C2186 C2188 1.378 . S
C2186 C2190 1.350 . S
C2187 C2190 1.463 . S
C2187 C2192 1.350 . S
C2187 N2195 1.427 . S
C2188 H2179 0.930 . S
C2188 C2186 1.378 . S
C2188 C2189 1.367 . S
C2189 C2188 1.367 . S
C2189 C2191 1.433 . S
C2190 C2186 1.350 . S
C2190 C2187 1.463 . S
C2190 N2194 1.427 . S
C2191 H2181 0.929 . S
C2191 C2189 1.433 . S
C2191 N2194 1.384 . S
C2192 H2183 0.929 . S
C2192 C2184 1.378 . S
C2192 C2187 1.350 . S
C2193 H2180 0.929 . S
C2193 C2185 1.433 . S
C2193 N2195 1.384 . S
N2194 C2190 1.427 . S
N2194 C2191 1.384 . S
N2195 C2187 1.427 . S
N2195 C2193 1.384 . S
H2196 C2202 0.930 . S
H2197 C2206 0.930 . S
H2198 C2211 0.929 . S
H2199 C2209 0.929 . S
H2200 C2204 0.929 . S
H2201 C2210 0.929 . S
C2202 H2196 0.930 . S
C2202 C2203 1.367 . S
C2202 C2210 1.378 . S
C2203 C2202 1.367 . S
C2203 C2211 1.433 . S
C2204 H2200 0.929 . S
C2204 C2206 1.378 . S
C2204 C2208 1.350 . S
C2205 C2208 1.463 . S
C2205 C2210 1.350 . S
C2205 N2213 1.427 . S
C2206 H2197 0.930 . S
C2206 C2204 1.378 . S
C2206 C2207 1.367 . S
C2207 C2206 1.367 . S
C2207 C2209 1.433 . S
C2208 C2204 1.350 . S
C2208 C2205 1.463 . S
C2208 N2212 1.427 . S
C2209 H2199 0.929 . S
C2209 C2207 1.433 . S
C2209 N2212 1.384 . S
C2210 H2201 0.929 . S
C2210 C2202 1.378 . S
C2210 C2205 1.350 . S
C2211 H2198 0.929 . S
C2211 C2203 1.433 . S
C2211 N2213 1.384 . S
N2212 C2208 1.427 . S
N2212 C2209 1.384 . S
N2213 C2205 1.427 . S
N2213 C2211 1.384 . S
H2214 C2220 0.930 . S
H2215 C2224 0.930 . S
H2216 C2229 0.929 . S
H2217 C2227 0.929 . S
H2218 C2222 0.929 . S
H2219 C2228 0.929 . S
C2220 H2214 0.930 . S
C2220 C2221 1.367 . S
C2220 C2228 1.378 . S
C2221 C2220 1.367 . S
C2221 C2229 1.433 . S
C2222 H2218 0.929 . S
C2222 C2224 1.378 . S
C2222 C2226 1.350 . S
C2223 C2226 1.463 . S
C2223 C2228 1.350 . S
C2223 N2231 1.427 . S
C2224 H2215 0.930 . S
C2224 C2222 1.378 . S
C2224 C2225 1.367 . S
C2225 C2224 1.367 . S
C2225 C2227 1.433 . S
C2226 C2222 1.350 . S
C2226 C2223 1.463 . S
C2226 N2230 1.427 . S
C2227 H2217 0.929 . S
C2227 C2225 1.433 . S
C2227 N2230 1.384 . S
C2228 H2219 0.929 . S
C2228 C2220 1.378 . S
C2228 C2223 1.350 . S
C2229 H2216 0.929 . S
C2229 C2221 1.433 . S
C2229 N2231 1.384 . S
N2230 C2226 1.427 . S
N2230 C2227 1.384 . S
N2231 C2223 1.427 . S
N2231 C2229 1.384 . S
H2232 C2238 0.930 . S
H2233 C2242 0.930 . S
H2234 C2247 0.929 . S
H2235 C2245 0.929 . S
H2236 C2240 0.929 . S
H2237 C2246 0.929 . S
C2238 H2232 0.930 . S
C2238 C2239 1.367 . S
C2238 C2246 1.378 . S
C2239 C2238 1.367 . S
C2239 C2247 1.433 . S
C2240 H2236 0.929 . S
C2240 C2242 1.378 . S
C2240 C2244 1.350 . S
C2241 C2244 1.463 . S
C2241 C2246 1.350 . S
C2241 N2249 1.427 . S
C2242 H2233 0.930 . S
C2242 C2240 1.378 . S
C2242 C2243 1.367 . S
C2243 C2242 1.367 . S
C2243 C2245 1.433 . S
C2244 C2240 1.350 . S
C2244 C2241 1.463 . S
C2244 N2248 1.427 . S
C2245 H2235 0.929 . S
C2245 C2243 1.433 . S
C2245 N2248 1.384 . S
C2246 H2237 0.929 . S
C2246 C2238 1.378 . S
C2246 C2241 1.350 . S
C2247 H2234 0.929 . S
C2247 C2239 1.433 . S
C2247 N2249 1.384 . S
N2248 C2244 1.427 . S
N2248 C2245 1.384 . S
N2249 C2241 1.427 . S
N2249 C2247 1.384 . S
H2250 C2256 0.930 . S
H2251 C2260 0.930 . S
H2252 C2265 0.929 . S
H2253 C2263 0.929 . S
H2254 C2258 0.929 . S
H2255 C2264 0.929 . S
C2256 H2250 0.930 . S
C2256 C2257 1.367 . S
C2256 C2264 1.378 . S
C2257 C2256 1.367 . S
C2257 C2265 1.433 . S
C2258 H2254 0.929 . S
C2258 C2260 1.378 . S
C2258 C2262 1.350 . S
C2259 C2262 1.463 . S
C2259 C2264 1.350 . S
C2259 N2267 1.427 . S
C2260 H2251 0.930 . S
C2260 C2258 1.378 . S
C2260 C2261 1.367 . S
C2261 C2260 1.367 . S
C2261 C2263 1.433 . S
C2262 C2258 1.350 . S
C2262 C2259 1.463 . S
C2262 N2266 1.427 . S
C2263 H2253 0.929 . S
C2263 C2261 1.433 . S
C2263 N2266 1.384 . S
C2264 H2255 0.929 . S
C2264 C2256 1.378 . S
C2264 C2259 1.350 . S
C2265 H2252 0.929 . S
C2265 C2257 1.433 . S
C2265 N2267 1.384 . S
N2266 C2262 1.427 . S
N2266 C2263 1.384 . S
N2267 C2259 1.427 . S
N2267 C2265 1.384 . S
H2268 C2274 0.930 . S
H2269 C2278 0.930 . S
H2270 C2283 0.929 . S
H2271 C2281 0.929 . S
H2272 C2276 0.929 . S
H2273 C2282 0.929 . S
C2274 H2268 0.930 . S
C2274 C2275 1.367 . S
C2274 C2282 1.378 . S
C2275 C2274 1.367 . S
C2275 C2283 1.433 . S
C2276 H2272 0.929 . S
C2276 C2278 1.378 . S
C2276 C2280 1.350 . S
C2277 C2280 1.463 . S
C2277 C2282 1.350 . S
C2277 N2285 1.427 . S
C2278 H2269 0.930 . S
C2278 C2276 1.378 . S
C2278 C2279 1.367 . S
C2279 C2278 1.367 . S
C2279 C2281 1.433 . S
C2280 C2276 1.350 . S
C2280 C2277 1.463 . S
C2280 N2284 1.427 . S
C2281 H2271 0.929 . S
C2281 C2279 1.433 . S
C2281 N2284 1.384 . S
C2282 H2273 0.929 . S
C2282 C2274 1.378 . S
C2282 C2277 1.350 . S
C2283 H2270 0.929 . S
C2283 C2275 1.433 . S
C2283 N2285 1.384 . S
N2284 C2280 1.427 . S
N2284 C2281 1.384 . S
N2285 C2277 1.427 . S
N2285 C2283 1.384 . S
H2286 C2292 0.930 . S
H2287 C2296 0.930 . S
H2288 C2301 0.929 . S
H2289 C2299 0.929 . S
H2290 C2294 0.929 . S
H2291 C2300 0.929 . S
C2292 H2286 0.930 . S
C2292 C2293 1.367 . S
C2292 C2300 1.378 . S
C2293 C2292 1.367 . S
C2293 C2301 1.433 . S
C2294 H2290 0.929 . S
C2294 C2296 1.378 . S
C2294 C2298 1.350 . S
C2295 C2298 1.463 . S
C2295 C2300 1.350 . S
C2295 N2303 1.427 . S
C2296 H2287 0.930 . S
C2296 C2294 1.378 . S
C2296 C2297 1.367 . S
C2297 C2296 1.367 . S
C2297 C2299 1.433 . S
C2298 C2294 1.350 . S
C2298 C2295 1.463 . S
C2298 N2302 1.427 . S
C2299 H2289 0.929 . S
C2299 C2297 1.433 . S
C2299 N2302 1.384 . S
C2300 H2291 0.929 . S
C2300 C2292 1.378 . S
C2300 C2295 1.350 . S
C2301 H2288 0.929 . S
C2301 C2293 1.433 . S
C2301 N2303 1.384 . S
N2302 C2298 1.427 . S
N2302 C2299 1.384 . S
N2303 C2295 1.427 . S
N2303 C2301 1.384 . S
H2304 C2310 0.930 . S
H2305 C2314 0.930 . S
H2306 C2319 0.929 . S
H2307 C2317 0.929 . S
H2308 C2312 0.929 . S
H2309 C2318 0.929 . S
C2310 H2304 0.930 . S
C2310 C2311 1.367 . S
C2310 C2318 1.378 . S
C2311 C2310 1.367 . S
C2311 C2319 1.433 . S
C2312 H2308 0.929 . S
C2312 C2314 1.378 . S
C2312 C2316 1.350 . S
C2313 C2316 1.463 . S
C2313 C2318 1.350 . S
C2313 N2321 1.427 . S
C2314 H2305 0.930 . S
C2314 C2312 1.378 . S
C2314 C2315 1.367 . S
C2315 C2314 1.367 . S
C2315 C2317 1.433 . S
C2316 C2312 1.350 . S
C2316 C2313 1.463 . S
C2316 N2320 1.427 . S
C2317 H2307 0.929 . S
C2317 C2315 1.433 . S
C2317 N2320 1.384 . S
C2318 H2309 0.929 . S
C2318 C2310 1.378 . S
C2318 C2313 1.350 . S
C2319 H2306 0.929 . S
C2319 C2311 1.433 . S
C2319 N2321 1.384 . S
N2320 C2316 1.427 . S
N2320 C2317 1.384 . S
N2321 C2313 1.427 . S
N2321 C2319 1.384 . S
H2322 C2328 0.930 . S
H2323 C2332 0.930 . S
H2324 C2337 0.929 . S
H2325 C2335 0.929 . S
H2326 C2330 0.929 . S
H2327 C2336 0.929 . S
C2328 H2322 0.930 . S
C2328 C2329 1.367 . S
C2328 C2336 1.378 . S
C2329 C2328 1.367 . S
C2329 C2337 1.433 . S
C2330 H2326 0.929 . S
C2330 C2332 1.378 . S
C2330 C2334 1.350 . S
C2331 C2334 1.463 . S
C2331 C2336 1.350 . S
C2331 N2339 1.427 . S
C2332 H2323 0.930 . S
C2332 C2330 1.378 . S
C2332 C2333 1.367 . S
C2333 C2332 1.367 . S
C2333 C2335 1.433 . S
C2334 C2330 1.350 . S
C2334 C2331 1.463 . S
C2334 N2338 1.427 . S
C2335 H2325 0.929 . S
C2335 C2333 1.433 . S
C2335 N2338 1.384 . S
C2336 H2327 0.929 . S
C2336 C2328 1.378 . S
C2336 C2331 1.350 . S
C2337 H2324 0.929 . S
C2337 C2329 1.433 . S
C2337 N2339 1.384 . S
N2338 C2334 1.427 . S
N2338 C2335 1.384 . S
N2339 C2331 1.427 . S
N2339 C2337 1.384 . S
H2340 C2346 0.930 . S
H2341 C2350 0.930 . S
H2342 C2355 0.929 . S
H2343 C2353 0.929 . S
H2344 C2348 0.929 . S
H2345 C2354 0.929 . S
C2346 H2340 0.930 . S
C2346 C2347 1.367 . S
C2346 C2354 1.378 . S
C2347 C2346 1.367 . S
C2347 C2355 1.433 . S
C2348 H2344 0.929 . S
C2348 C2350 1.378 . S
C2348 C2352 1.350 . S
C2349 C2352 1.463 . S
C2349 C2354 1.350 . S
C2349 N2357 1.427 . S
C2350 H2341 0.930 . S
C2350 C2348 1.378 . S
C2350 C2351 1.367 . S
C2351 C2350 1.367 . S
C2351 C2353 1.433 . S
C2352 C2348 1.350 . S
C2352 C2349 1.463 . S
C2352 N2356 1.427 . S
C2353 H2343 0.929 . S
C2353 C2351 1.433 . S
C2353 N2356 1.384 . S
C2354 H2345 0.929 . S
C2354 C2346 1.378 . S
C2354 C2349 1.350 . S
C2355 H2342 0.929 . S
C2355 C2347 1.433 . S
C2355 N2357 1.384 . S
N2356 C2352 1.427 . S
N2356 C2353 1.384 . S
N2357 C2349 1.427 . S
N2357 C2355 1.384 . S
H2358 C2364 0.930 . S
H2359 C2368 0.930 . S
H2360 C2373 0.930 . S
H2361 C2371 0.930 . S
H2362 C2366 0.893 1_545 S
H2363 C2372 0.893 1_565 S
C2364 H2358 0.930 . S
C2364 C2365 1.367 . S
C2364 C2372 1.416 . S
C2365 C2364 1.367 . S
C2365 C2373 1.433 . S
C2366 H2362 0.893 1_565 S
C2366 C2368 1.416 . S
C2366 C2370 1.349 . S
C2367 C2370 1.463 1_546 S
C2367 C2372 1.349 . S
C2367 N2375 1.427 1_556 S
C2368 H2359 0.930 . S
C2368 C2366 1.416 . S
C2368 C2369 1.367 . S
C2369 C2368 1.367 . S
C2369 C2371 1.433 . S
C2370 C2366 1.349 . S
C2370 C2367 1.463 1_564 S
C2370 N2374 1.427 1_554 S
C2371 H2361 0.930 . S
C2371 C2369 1.433 . S
C2371 N2374 1.384 1_554 S
C2372 H2363 0.893 1_545 S
C2372 C2364 1.416 . S
C2372 C2367 1.349 . S
C2373 H2360 0.930 . S
C2373 C2365 1.433 . S
C2373 N2375 1.384 1_556 S
N2374 C2370 1.427 1_556 S
N2374 C2371 1.384 1_556 S
N2375 C2367 1.427 1_554 S
N2375 C2373 1.384 1_554 S
H2376 C2382 0.930 . S
H2377 C2386 0.930 . S
H2378 C2391 0.929 . S
H2379 C2389 0.929 . S
H2380 C2384 0.920 1_455 S
H2381 C2390 0.920 1_655 S
C2382 H2376 0.930 . S
C2382 C2383 1.367 . S
C2382 C2390 1.380 . S
C2383 C2382 1.367 . S
C2383 C2391 1.433 . S
C2384 H2380 0.920 1_655 S
C2384 C2386 1.380 . S
C2384 C2388 1.356 . S
C2385 C2388 1.463 1_454 S
C2385 C2390 1.356 . S
C2385 N2393 1.427 1_554 S
C2386 H2377 0.930 . S
C2386 C2384 1.380 . S
C2386 C2387 1.367 . S
C2387 C2386 1.367 . S
C2387 C2389 1.433 . S
C2388 C2384 1.356 . S
C2388 C2385 1.463 1_656 S
C2388 N2392 1.427 1_556 S
C2389 H2379 0.929 . S
C2389 C2387 1.433 . S
C2389 N2392 1.384 1_556 S
C2390 H2381 0.920 1_455 S
C2390 C2382 1.380 . S
C2390 C2385 1.356 . S
C2391 H2378 0.929 . S
C2391 C2383 1.433 . S
C2391 N2393 1.384 1_554 S
N2392 C2388 1.427 1_554 S
N2392 C2389 1.384 1_554 S
N2393 C2385 1.427 1_556 S
N2393 C2391 1.384 1_556 S
H2394 C2400 0.930 1_556 S
H2395 C2404 0.930 1_554 S
H2396 C2409 0.929 . S
H2397 C2407 0.929 . S
H2398 C2402 0.929 . S
H2399 C2408 0.929 . S
C2400 H2394 0.930 1_554 S
C2400 C2401 1.367 . S
C2400 C2408 1.378 1_554 S
C2401 C2400 1.367 . S
C2401 C2409 1.433 . S
C2402 H2398 0.929 . S
C2402 C2404 1.378 1_554 S
C2402 C2406 1.350 1_554 S
C2403 C2406 1.463 1_554 S
C2403 C2408 1.350 1_554 S
C2403 N2411 1.427 . S
C2404 H2395 0.930 1_556 S
C2404 C2402 1.378 1_556 S
C2404 C2405 1.367 . S
C2405 C2404 1.367 . S
C2405 C2407 1.433 . S
C2406 C2402 1.350 1_556 S
C2406 C2403 1.463 1_556 S
C2406 N2410 1.427 . S
C2407 H2397 0.929 . S
C2407 C2405 1.433 . S
C2407 N2410 1.384 . S
C2408 H2399 0.929 . S
C2408 C2400 1.378 1_556 S
C2408 C2403 1.350 1_556 S
C2409 H2396 0.929 . S
C2409 C2401 1.433 . S
C2409 N2411 1.384 . S
N2410 C2406 1.427 . S
N2410 C2407 1.384 . S
N2411 C2403 1.427 . S
N2411 C2409 1.384 . S
H2412 C2418 0.930 . S
H2413 C2422 0.930 . S
H2414 C2427 0.929 . S
H2415 C2425 0.929 . S
H2416 C2420 0.929 . S
H2417 C2426 0.929 . S
C2418 H2412 0.930 . S
C2418 C2419 1.367 . S
C2418 C2426 1.378 . S
C2419 C2418 1.367 . S
C2419 C2427 1.433 . S
C2420 H2416 0.929 . S
C2420 C2422 1.378 . S
C2420 C2424 1.350 . S
C2421 C2424 1.463 . S
C2421 C2426 1.350 . S
C2421 N2429 1.427 . S
C2422 H2413 0.930 . S
C2422 C2420 1.378 . S
C2422 C2423 1.367 . S
C2423 C2422 1.367 . S
C2423 C2425 1.433 . S
C2424 C2420 1.350 . S
C2424 C2421 1.463 . S
C2424 N2428 1.427 . S
C2425 H2415 0.929 . S
C2425 C2423 1.433 . S
C2425 N2428 1.384 . S
C2426 H2417 0.929 . S
C2426 C2418 1.378 . S
C2426 C2421 1.350 . S
C2427 H2414 0.929 . S
C2427 C2419 1.433 . S
C2427 N2429 1.384 . S
N2428 C2424 1.427 . S
N2428 C2425 1.384 . S
N2429 C2421 1.427 . S
N2429 C2427 1.384 . S
H2430 C2436 0.930 . S
H2431 C2440 0.930 . S
H2432 C2445 0.929 . S
H2433 C2443 0.929 . S
H2434 C2438 0.929 . S
H2435 C2444 0.929 . S
C2436 H2430 0.930 . S
C2436 C2437 1.367 . S
C2436 C2444 1.378 . S
C2437 C2436 1.367 . S
C2437 C2445 1.433 . S
C2438 H2434 0.929 . S
C2438 C2440 1.378 . S
C2438 C2442 1.350 . S
C2439 C2442 1.463 . S
C2439 C2444 1.350 . S
C2439 N2447 1.427 . S
C2440 H2431 0.930 . S
C2440 C2438 1.378 . S
C2440 C2441 1.367 . S
C2441 C2440 1.367 . S
C2441 C2443 1.433 . S
C2442 C2438 1.350 . S
C2442 C2439 1.463 . S
C2442 N2446 1.427 . S
C2443 H2433 0.929 . S
C2443 C2441 1.433 . S
C2443 N2446 1.384 . S
C2444 H2435 0.929 . S
C2444 C2436 1.378 . S
C2444 C2439 1.350 . S
C2445 H2432 0.929 . S
C2445 C2437 1.433 . S
C2445 N2447 1.384 . S
N2446 C2442 1.427 . S
N2446 C2443 1.384 . S
N2447 C2439 1.427 . S
N2447 C2445 1.384 . S
H2448 C2454 0.930 . S
H2449 C2458 0.930 . S
H2450 C2463 0.929 . S
H2451 C2461 0.929 . S
H2452 C2456 0.929 . S
H2453 C2462 0.929 . S
C2454 H2448 0.930 . S
C2454 C2455 1.367 . S
C2454 C2462 1.378 . S
C2455 C2454 1.367 . S
C2455 C2463 1.433 . S
C2456 H2452 0.929 . S
C2456 C2458 1.378 . S
C2456 C2460 1.350 . S
C2457 C2460 1.463 . S
C2457 C2462 1.350 . S
C2457 N2465 1.427 . S
C2458 H2449 0.930 . S
C2458 C2456 1.378 . S
C2458 C2459 1.367 . S
C2459 C2458 1.367 . S
C2459 C2461 1.433 . S
C2460 C2456 1.350 . S
C2460 C2457 1.463 . S
C2460 N2464 1.427 . S
C2461 H2451 0.929 . S
C2461 C2459 1.433 . S
C2461 N2464 1.384 . S
C2462 H2453 0.929 . S
C2462 C2454 1.378 . S
C2462 C2457 1.350 . S
C2463 H2450 0.929 . S
C2463 C2455 1.433 . S
C2463 N2465 1.384 . S
N2464 C2460 1.427 . S
N2464 C2461 1.384 . S
N2465 C2457 1.427 . S
N2465 C2463 1.384 . S
H2466 C2472 0.930 . S
H2467 C2476 0.930 . S
H2468 C2481 0.929 . S
H2469 C2479 0.929 . S
H2470 C2474 0.929 . S
H2471 C2480 0.929 . S
C2472 H2466 0.930 . S
C2472 C2473 1.367 . S
C2472 C2480 1.378 . S
C2473 C2472 1.367 . S
C2473 C2481 1.433 . S
C2474 H2470 0.929 . S
C2474 C2476 1.378 . S
C2474 C2478 1.350 . S
C2475 C2478 1.463 . S
C2475 C2480 1.350 . S
C2475 N2483 1.427 . S
C2476 H2467 0.930 . S
C2476 C2474 1.378 . S
C2476 C2477 1.367 . S
C2477 C2476 1.367 . S
C2477 C2479 1.433 . S
C2478 C2474 1.350 . S
C2478 C2475 1.463 . S
C2478 N2482 1.427 . S
C2479 H2469 0.929 . S
C2479 C2477 1.433 . S
C2479 N2482 1.384 . S
C2480 H2471 0.929 . S
C2480 C2472 1.378 . S
C2480 C2475 1.350 . S
C2481 H2468 0.929 . S
C2481 C2473 1.433 . S
C2481 N2483 1.384 . S
N2482 C2478 1.427 . S
N2482 C2479 1.384 . S
N2483 C2475 1.427 . S
N2483 C2481 1.384 . S
H2484 C2490 0.930 . S
H2485 C2494 0.930 . S
H2486 C2499 0.929 . S
H2487 C2497 0.929 . S
H2488 C2492 0.929 . S
H2489 C2498 0.929 . S
C2490 H2484 0.930 . S
C2490 C2491 1.367 . S
C2490 C2498 1.378 . S
C2491 C2490 1.367 . S
C2491 C2499 1.433 . S
C2492 H2488 0.929 . S
C2492 C2494 1.378 . S
C2492 C2496 1.350 . S
C2493 C2496 1.463 . S
C2493 C2498 1.350 . S
C2493 N2501 1.427 . S
C2494 H2485 0.930 . S
C2494 C2492 1.378 . S
C2494 C2495 1.367 . S
C2495 C2494 1.367 . S
C2495 C2497 1.433 . S
C2496 C2492 1.350 . S
C2496 C2493 1.463 . S
C2496 N2500 1.427 . S
C2497 H2487 0.929 . S
C2497 C2495 1.433 . S
C2497 N2500 1.384 . S
C2498 H2489 0.929 . S
C2498 C2490 1.378 . S
C2498 C2493 1.350 . S
C2499 H2486 0.929 . S
C2499 C2491 1.433 . S
C2499 N2501 1.384 . S
N2500 C2496 1.427 . S
N2500 C2497 1.384 . S
N2501 C2493 1.427 . S
N2501 C2499 1.384 . S
H2502 C2508 0.930 . S
H2503 C2512 0.930 . S
H2504 C2517 0.929 . S
H2505 C2515 0.929 . S
H2506 C2510 0.929 . S
H2507 C2516 0.929 . S
C2508 H2502 0.930 . S
C2508 C2509 1.367 . S
C2508 C2516 1.378 . S
C2509 C2508 1.367 . S
C2509 C2517 1.433 . S
C2510 H2506 0.929 . S
C2510 C2512 1.378 . S
C2510 C2514 1.350 . S
C2511 C2514 1.463 . S
C2511 C2516 1.350 . S
C2511 N2519 1.427 . S
C2512 H2503 0.930 . S
C2512 C2510 1.378 . S
C2512 C2513 1.367 . S
C2513 C2512 1.367 . S
C2513 C2515 1.433 . S
C2514 C2510 1.350 . S
C2514 C2511 1.463 . S
C2514 N2518 1.427 . S
C2515 H2505 0.929 . S
C2515 C2513 1.433 . S
C2515 N2518 1.384 . S
C2516 H2507 0.929 . S
C2516 C2508 1.378 . S
C2516 C2511 1.350 . S
C2517 H2504 0.929 . S
C2517 C2509 1.433 . S
C2517 N2519 1.384 . S
N2518 C2514 1.427 . S
N2518 C2515 1.384 . S
N2519 C2511 1.427 . S
N2519 C2517 1.384 . S
H2520 C2526 0.930 . S
H2521 C2530 0.930 . S
H2522 C2535 0.929 . S
H2523 C2533 0.929 . S
H2524 C2528 0.929 . S
H2525 C2534 0.929 . S
C2526 H2520 0.930 . S
C2526 C2527 1.367 . S
C2526 C2534 1.378 . S
C2527 C2526 1.367 . S
C2527 C2535 1.433 . S
C2528 H2524 0.929 . S
C2528 C2530 1.378 . S
C2528 C2532 1.350 . S
C2529 C2532 1.463 1_556 S
C2529 C2534 1.350 . S
C2529 N2537 1.427 . S
C2530 H2521 0.930 . S
C2530 C2528 1.378 . S
C2530 C2531 1.367 . S
C2531 C2530 1.367 . S
C2531 C2533 1.433 . S
C2532 C2528 1.350 . S
C2532 C2529 1.463 1_554 S
C2532 N2536 1.427 . S
C2533 H2523 0.929 . S
C2533 C2531 1.433 . S
C2533 N2536 1.384 . S
C2534 H2525 0.929 . S
C2534 C2526 1.378 . S
C2534 C2529 1.350 . S
C2535 H2522 0.929 . S
C2535 C2527 1.433 . S
C2535 N2537 1.384 . S
N2536 C2532 1.427 . S
N2536 C2533 1.384 . S
N2537 C2529 1.427 . S
N2537 C2535 1.384 . S
H2538 C2544 0.930 . S
H2539 C2548 0.930 . S
H2540 C2553 0.929 . S
H2541 C2551 0.929 . S
H2542 C2546 0.929 . S
H2543 C2552 0.929 . S
C2544 H2538 0.930 . S
C2544 C2545 1.367 . S
C2544 C2552 1.378 . S
C2545 C2544 1.367 . S
C2545 C2553 1.433 . S
C2546 H2542 0.929 . S
C2546 C2548 1.378 . S
C2546 C2550 1.350 . S
C2547 C2550 1.463 1_556 S
C2547 C2552 1.350 . S
C2547 N2555 1.427 . S
C2548 H2539 0.930 . S
C2548 C2546 1.378 . S
C2548 C2549 1.367 . S
C2549 C2548 1.367 . S
C2549 C2551 1.433 . S
C2550 C2546 1.350 . S
C2550 C2547 1.463 1_554 S
C2550 N2554 1.427 . S
C2551 H2541 0.929 . S
C2551 C2549 1.433 . S
C2551 N2554 1.384 . S
C2552 H2543 0.929 . S
C2552 C2544 1.378 . S
C2552 C2547 1.350 . S
C2553 H2540 0.929 . S
C2553 C2545 1.433 . S
C2553 N2555 1.384 . S
N2554 C2550 1.427 . S
N2554 C2551 1.384 . S
N2555 C2547 1.427 . S
N2555 C2553 1.384 . S
H2556 C2562 0.930 . S
H2557 C2566 0.930 . S
H2558 C2571 0.929 . S
H2559 C2569 0.929 . S
H2560 C2564 0.929 . S
H2561 C2570 0.929 . S
C2562 H2556 0.930 . S
C2562 C2563 1.367 . S
C2562 C2570 1.378 . S
C2563 C2562 1.367 . S
C2563 C2571 1.433 . S
C2564 H2560 0.929 . S
C2564 C2566 1.378 . S
C2564 C2568 1.350 . S
C2565 C2568 1.463 1_554 S
C2565 C2570 1.350 . S
C2565 N2573 1.427 . S
C2566 H2557 0.930 . S
C2566 C2564 1.378 . S
C2566 C2567 1.367 . S
C2567 C2566 1.367 . S
C2567 C2569 1.433 . S
C2568 C2564 1.350 . S
C2568 C2565 1.463 1_556 S
C2568 N2572 1.427 . S
C2569 H2559 0.929 . S
C2569 C2567 1.433 . S
C2569 N2572 1.384 . S
C2570 H2561 0.929 . S
C2570 C2562 1.378 . S
C2570 C2565 1.350 . S
C2571 H2558 0.929 . S
C2571 C2563 1.433 . S
C2571 N2573 1.384 . S
N2572 C2568 1.427 . S
N2572 C2569 1.384 . S
N2573 C2565 1.427 . S
N2573 C2571 1.384 . S
H2574 C2580 0.930 . S
H2575 C2584 0.930 . S
H2576 C2589 0.929 . S
H2577 C2587 0.929 . S
H2578 C2582 0.929 . S
H2579 C2588 0.929 . S
C2580 H2574 0.930 . S
C2580 C2581 1.367 . S
C2580 C2588 1.378 . S
C2581 C2580 1.367 . S
C2581 C2589 1.433 . S
C2582 H2578 0.929 . S
C2582 C2584 1.378 . S
C2582 C2586 1.350 . S
C2583 C2586 1.463 . S
C2583 C2588 1.350 . S
C2583 N2591 1.427 . S
C2584 H2575 0.930 . S
C2584 C2582 1.378 . S
C2584 C2585 1.367 . S
C2585 C2584 1.367 . S
C2585 C2587 1.433 . S
C2586 C2582 1.350 . S
C2586 C2583 1.463 . S
C2586 N2590 1.427 . S
C2587 H2577 0.929 . S
C2587 C2585 1.433 . S
C2587 N2590 1.384 . S
C2588 H2579 0.929 . S
C2588 C2580 1.378 . S
C2588 C2583 1.350 . S
C2589 H2576 0.929 . S
C2589 C2581 1.433 . S
C2589 N2591 1.384 . S
N2590 C2586 1.427 . S
N2590 C2587 1.384 . S
N2591 C2583 1.427 . S
N2591 C2589 1.384 . S
H2592 C2598 0.930 . S
H2593 C2602 0.930 . S
H2594 C2607 0.929 . S
H2595 C2605 0.929 . S
H2596 C2600 0.929 . S
H2597 C2606 0.929 . S
C2598 H2592 0.930 . S
C2598 C2599 1.367 . S
C2598 C2606 1.378 . S
C2599 C2598 1.367 . S
C2599 C2607 1.433 . S
C2600 H2596 0.929 . S
C2600 C2602 1.378 . S
C2600 C2604 1.350 . S
C2601 C2604 1.463 . S
C2601 C2606 1.350 . S
C2601 N2609 1.427 . S
C2602 H2593 0.930 . S
C2602 C2600 1.378 . S
C2602 C2603 1.367 . S
C2603 C2602 1.367 . S
C2603 C2605 1.433 . S
C2604 C2600 1.350 . S
C2604 C2601 1.463 . S
C2604 N2608 1.427 . S
C2605 H2595 0.929 . S
C2605 C2603 1.433 . S
C2605 N2608 1.384 . S
C2606 H2597 0.929 . S
C2606 C2598 1.378 . S
C2606 C2601 1.350 . S
C2607 H2594 0.929 . S
C2607 C2599 1.433 . S
C2607 N2609 1.384 . S
N2608 C2604 1.427 . S
N2608 C2605 1.384 . S
N2609 C2601 1.427 . S
N2609 C2607 1.384 . S
H2610 C2616 0.930 . S
H2611 C2620 0.930 . S
H2612 C2625 0.929 . S
H2613 C2623 0.929 . S
H2614 C2618 0.929 . S
H2615 C2624 0.929 . S
C2616 H2610 0.930 . S
C2616 C2617 1.367 . S
C2616 C2624 1.378 . S
C2617 C2616 1.367 . S
C2617 C2625 1.433 . S
C2618 H2614 0.929 . S
C2618 C2620 1.378 . S
C2618 C2622 1.350 . S
C2619 C2622 1.463 . S
C2619 C2624 1.350 . S
C2619 N2627 1.427 . S
C2620 H2611 0.930 . S
C2620 C2618 1.378 . S
C2620 C2621 1.367 . S
C2621 C2620 1.367 . S
C2621 C2623 1.433 . S
C2622 C2618 1.350 . S
C2622 C2619 1.463 . S
C2622 N2626 1.427 . S
C2623 H2613 0.929 . S
C2623 C2621 1.433 . S
C2623 N2626 1.384 . S
C2624 H2615 0.929 . S
C2624 C2616 1.378 . S
C2624 C2619 1.350 . S
C2625 H2612 0.929 . S
C2625 C2617 1.433 . S
C2625 N2627 1.384 . S
N2626 C2622 1.427 . S
N2626 C2623 1.384 . S
N2627 C2619 1.427 . S
N2627 C2625 1.384 . S
H2628 C2634 0.930 . S
H2629 C2638 0.930 . S
H2630 C2643 0.929 . S
H2631 C2641 0.929 . S
H2632 C2636 0.929 . S
H2633 C2642 0.929 . S
C2634 H2628 0.930 . S
C2634 C2635 1.367 . S
C2634 C2642 1.378 . S
C2635 C2634 1.367 . S
C2635 C2643 1.433 . S
C2636 H2632 0.929 . S
C2636 C2638 1.378 . S
C2636 C2640 1.350 . S
C2637 C2640 1.463 . S
C2637 C2642 1.350 . S
C2637 N2645 1.427 . S
C2638 H2629 0.930 . S
C2638 C2636 1.378 . S
C2638 C2639 1.367 . S
C2639 C2638 1.367 . S
C2639 C2641 1.433 . S
C2640 C2636 1.350 . S
C2640 C2637 1.463 . S
C2640 N2644 1.427 . S
C2641 H2631 0.929 . S
C2641 C2639 1.433 . S
C2641 N2644 1.384 . S
C2642 H2633 0.929 . S
C2642 C2634 1.378 . S
C2642 C2637 1.350 . S
C2643 H2630 0.929 . S
C2643 C2635 1.433 . S
C2643 N2645 1.384 . S
N2644 C2640 1.427 . S
N2644 C2641 1.384 . S
N2645 C2637 1.427 . S
N2645 C2643 1.384 . S
H2646 C2652 0.930 . S
H2647 C2656 0.930 . S
H2648 C2661 0.929 . S
H2649 C2659 0.929 . S
H2650 C2654 0.929 . S
H2651 C2660 0.929 . S
C2652 H2646 0.930 . S
C2652 C2653 1.367 . S
C2652 C2660 1.378 . S
C2653 C2652 1.367 . S
C2653 C2661 1.433 . S
C2654 H2650 0.929 . S
C2654 C2656 1.378 . S
C2654 C2658 1.350 . S
C2655 C2658 1.463 . S
C2655 C2660 1.350 . S
C2655 N2663 1.427 . S
C2656 H2647 0.930 . S
C2656 C2654 1.378 . S
C2656 C2657 1.367 . S
C2657 C2656 1.367 . S
C2657 C2659 1.433 . S
C2658 C2654 1.350 . S
C2658 C2655 1.463 . S
C2658 N2662 1.427 . S
C2659 H2649 0.929 . S
C2659 C2657 1.433 . S
C2659 N2662 1.384 . S
C2660 H2651 0.929 . S
C2660 C2652 1.378 . S
C2660 C2655 1.350 . S
C2661 H2648 0.929 . S
C2661 C2653 1.433 . S
C2661 N2663 1.384 . S
N2662 C2658 1.427 . S
N2662 C2659 1.384 . S
N2663 C2655 1.427 . S
N2663 C2661 1.384 . S
H2664 C2670 0.930 . S
H2665 C2674 0.930 . S
H2666 C2679 0.929 . S
H2667 C2677 0.929 . S
H2668 C2672 0.929 . S
H2669 C2678 0.929 . S
C2670 H2664 0.930 . S
C2670 C2671 1.367 . S
C2670 C2678 1.378 . S
C2671 C2670 1.367 . S
C2671 C2679 1.433 . S
C2672 H2668 0.929 . S
C2672 C2674 1.378 . S
C2672 C2676 1.350 . S
C2673 C2676 1.463 . S
C2673 C2678 1.350 . S
C2673 N2681 1.427 . S
C2674 H2665 0.930 . S
C2674 C2672 1.378 . S
C2674 C2675 1.367 . S
C2675 C2674 1.367 . S
C2675 C2677 1.433 . S
C2676 C2672 1.350 . S
C2676 C2673 1.463 . S
C2676 N2680 1.427 . S
C2677 H2667 0.929 . S
C2677 C2675 1.433 . S
C2677 N2680 1.384 . S
C2678 H2669 0.929 . S
C2678 C2670 1.378 . S
C2678 C2673 1.350 . S
C2679 H2666 0.929 . S
C2679 C2671 1.433 . S
C2679 N2681 1.384 . S
N2680 C2676 1.427 . S
N2680 C2677 1.384 . S
N2681 C2673 1.427 . S
N2681 C2679 1.384 . S
H2682 C2688 0.930 . S
H2683 C2692 0.930 . S
H2684 C2697 0.929 . S
H2685 C2695 0.929 . S
H2686 C2690 0.929 . S
H2687 C2696 0.929 . S
C2688 H2682 0.930 . S
C2688 C2689 1.367 . S
C2688 C2696 1.378 . S
C2689 C2688 1.367 . S
C2689 C2697 1.433 . S
C2690 H2686 0.929 . S
C2690 C2692 1.378 . S
C2690 C2694 1.350 . S
C2691 C2694 1.463 1_554 S
C2691 C2696 1.350 . S
C2691 N2699 1.427 . S
C2692 H2683 0.930 . S
C2692 C2690 1.378 . S
C2692 C2693 1.367 . S
C2693 C2692 1.367 . S
C2693 C2695 1.433 . S
C2694 C2690 1.350 . S
C2694 C2691 1.463 1_556 S
C2694 N2698 1.427 . S
C2695 H2685 0.929 . S
C2695 C2693 1.433 . S
C2695 N2698 1.384 . S
C2696 H2687 0.929 . S
C2696 C2688 1.378 . S
C2696 C2691 1.350 . S
C2697 H2684 0.929 . S
C2697 C2689 1.433 . S
C2697 N2699 1.384 . S
N2698 C2694 1.427 . S
N2698 C2695 1.384 . S
N2699 C2691 1.427 . S
N2699 C2697 1.384 . S
H2700 C2706 0.930 . S
H2701 C2710 0.930 . S
H2702 C2715 0.929 . S
H2703 C2713 0.929 . S
H2704 C2708 0.929 . S
H2705 C2714 0.929 . S
C2706 H2700 0.930 . S
C2706 C2707 1.367 . S
C2706 C2714 1.378 . S
C2707 C2706 1.367 . S
C2707 C2715 1.433 . S
C2708 H2704 0.929 . S
C2708 C2710 1.378 . S
C2708 C2712 1.350 . S
C2709 C2712 1.463 1_556 S
C2709 C2714 1.350 . S
C2709 N2717 1.427 . S
C2710 H2701 0.930 . S
C2710 C2708 1.378 . S
C2710 C2711 1.367 . S
C2711 C2710 1.367 . S
C2711 C2713 1.433 . S
C2712 C2708 1.350 . S
C2712 C2709 1.463 1_554 S
C2712 N2716 1.427 . S
C2713 H2703 0.929 . S
C2713 C2711 1.433 . S
C2713 N2716 1.384 . S
C2714 H2705 0.929 . S
C2714 C2706 1.378 . S
C2714 C2709 1.350 . S
C2715 H2702 0.929 . S
C2715 C2707 1.433 . S
C2715 N2717 1.384 . S
N2716 C2712 1.427 . S
N2716 C2713 1.384 . S
N2717 C2709 1.427 . S
N2717 C2715 1.384 . S
H2718 C2724 0.930 . S
H2719 C2728 0.930 . S
H2720 C2733 0.929 . S
H2721 C2731 0.929 . S
H2722 C2726 0.929 . S
H2723 C2732 0.929 . S
C2724 H2718 0.930 . S
C2724 C2725 1.367 . S
C2724 C2732 1.378 . S
C2725 C2724 1.367 . S
C2725 C2733 1.433 . S
C2726 H2722 0.929 . S
C2726 C2728 1.378 . S
C2726 C2730 1.350 . S
C2727 C2730 1.463 1_556 S
C2727 C2732 1.350 . S
C2727 N2735 1.427 . S
C2728 H2719 0.930 . S
C2728 C2726 1.378 . S
C2728 C2729 1.367 . S
C2729 C2728 1.367 . S
C2729 C2731 1.433 . S
C2730 C2726 1.350 . S
C2730 C2727 1.463 1_554 S
C2730 N2734 1.427 . S
C2731 H2721 0.929 . S
C2731 C2729 1.433 . S
C2731 N2734 1.384 . S
C2732 H2723 0.929 . S
C2732 C2724 1.378 . S
C2732 C2727 1.350 . S
C2733 H2720 0.929 . S
C2733 C2725 1.433 . S
C2733 N2735 1.384 . S
N2734 C2730 1.427 . S
N2734 C2731 1.384 . S
N2735 C2727 1.427 . S
N2735 C2733 1.384 . S
C1609 C1230 1.678 . S
C1613 C61 1.754 . S
C1627 C1319 1.676 . S
C1631 C150 1.754 . S
C1645 C239 1.742 . S
C1649 C1141 1.679 . S
C1663 C328 1.752 . S
C1667 C963 1.670 . S
C1681 C417 1.741 . S
C1685 C1052 1.666 . S
C1699 C506 1.741 . S
C1703 C874 1.665 . S
C1717 C162 1.682 . S
C1721 C595 1.745 . S
C1735 C684 1.744 . S
C1739 C251 1.664 . S
C1753 C73 1.666 . S
C1757 C773 1.740 . S
C1771 C1497 1.673 . S
C1775 C862 1.740 . S
C1789 C951 1.741 . S
C1793 C1586 1.665 . S
C1807 C1040 1.752 . S
C1811 C1408 1.682 . S
C1825 C696 1.669 . S
C1829 C1129 1.739 . S
C1843 C1218 1.740 . S
C1847 C785 1.672 . S
C1861 C1307 1.744 . S
C1865 C607 1.664 . S
C1879 C429 1.679 . S
C1883 C1396 1.754 . S
C1897 C518 1.676 . S
C1901 C1485 1.754 . S
C1915 C1574 1.742 . S
C1919 C340 1.664 . S
C1933 C1042 2.148 . S
C1937 C1 1.931 . S
C1951 C864 2.137 . S
C1955 C90 1.934 . S
C1969 C953 2.137 . S
C1973 C179 1.921 . S
C1987 C268 1.938 . S
C1991 C1309 2.140 . S
C2005 C357 1.939 . S
C2009 C1131 2.145 . S
C2023 C446 1.928 . S
C2027 C1220 2.147 . S
C2041 C535 1.921 . S
C2045 C1576 2.142 . S
C2059 C624 1.931 . S
C2063 C1398 2.148 . S
C2077 C713 1.936 . S
C2081 C1487 2.146 . S
C2095 C241 2.137 . S
C2099 C802 1.928 . S
C2113 C63 2.137 . S
C2117 C891 1.927 . S
C2131 C980 1.933 . S
C2135 C152 2.148 . S
C2149 C1069 1.940 . S
C2153 C508 2.142 . S
C2167 C1158 1.937 . S
C2171 C330 2.139 . S
C2185 C1247 1.920 . S
C2189 C419 2.138 . S
C2203 C1336 1.934 . S
C2207 C775 2.138 . S
C2221 C597 2.147 . S
C2225 C1425 1.927 . S
C2239 C1514 1.937 . S
C2243 C686 2.139 . S
C2257 C70 2.020 . S
C2261 C1405 2.020 . S
C2275 C1494 2.023 . S
C2279 C159 2.023 . S
C2293 C248 2.022 . S
C2297 C1583 2.022 . S
C2311 C604 2.021 . S
C2315 C337 2.021 . S
C2329 C693 2.030 . S
C2333 C426 2.030 . S
C2347 C782 2.026 . S
C2351 C515 2.026 . S
C2365 C1138 2.023 . S
C2369 C871 2.023 . S
C2383 C960 2.022 . S
C2387 C1227 2.022 . S
C2401 C1049 2.030 . S
C2405 C1316 2.030 . S
C2419 C18 1.584 . S
C2423 C26 1.608 . S
C2437 C107 1.594 . S
C2441 C115 1.613 . S
C2455 C196 1.588 . S
C2459 C204 1.612 . S
C2473 C293 1.607 . S
C2477 C285 1.583 . S
C2491 C382 1.607 . S
C2495 C374 1.589 . S
C2509 C463 1.584 . S
C2513 C471 1.607 . S
C2527 C560 1.614 . S
C2531 C552 1.594 . S
C2545 C649 1.613 . S
C2549 C641 1.595 . S
C2563 C730 1.583 . S
C2567 C738 1.607 . S
C2581 C827 1.609 . S
C2585 C819 1.592 . S
C2599 C916 1.611 . S
C2603 C908 1.587 . S
C2617 C997 1.583 . S
C2621 C1005 1.606 . S
C2635 C1086 1.594 . S
C2639 C1094 1.611 . S
C2653 C1175 1.584 . S
C2657 C1183 1.605 . S
C2671 C1272 1.607 . S
C2675 C1264 1.583 . S
C2689 C1361 1.611 . S
C2693 C1353 1.594 . S
C2707 C1442 1.586 . S
C2711 C1450 1.610 . S
C2725 C1531 1.595 . S
C2729 C1539 1.612 . S
