# Generated by pormake.
# Topology zfl, (5)-cn, num edge types: 1
# Building blocks:
#     Node 0, Type 0, BuildingBlock: BEQFEK_clean_sbu_0, # of connection points: 5
#     Node 1, Type 0, BuildingBlock: BEQFEK_clean_sbu_0, # of connection points: 5
#     Node 2, Type 0, BuildingBlock: BEQFEK_clean_sbu_0, # of connection points: 5
#     Node 3, Type 0, BuildingBlock: BEQFEK_clean_sbu_0, # of connection points: 5
#     Node 4, Type 0, BuildingBlock: BEQFEK_clean_sbu_0, # of connection points: 5
#     Node 5, Type 0, BuildingBlock: BEQFEK_clean_sbu_0, # of connection points: 5
#     Node 6, Type 0, BuildingBlock: BEQFEK_clean_sbu_0, # of connection points: 5
#     Node 7, Type 0, BuildingBlock: BEQFEK_clean_sbu_0, # of connection points: 5
#     Node 8, Type 0, BuildingBlock: BEQFEK_clean_sbu_0, # of connection points: 5
#     Node 9, Type 0, BuildingBlock: BEQFEK_clean_sbu_0, # of connection points: 5
#     Node 10, Type 0, BuildingBlock: BEQFEK_clean_sbu_0, # of connection points: 5
#     Node 11, Type 0, BuildingBlock: BEQFEK_clean_sbu_0, # of connection points: 5
#     Node 12, Type 0, BuildingBlock: BEQFEK_clean_sbu_0, # of connection points: 5
#     Node 13, Type 0, BuildingBlock: BEQFEK_clean_sbu_0, # of connection points: 5
#     Node 14, Type 0, BuildingBlock: BEQFEK_clean_sbu_0, # of connection points: 5
#     Node 15, Type 0, BuildingBlock: BEQFEK_clean_sbu_0, # of connection points: 5
#     Edge 16, Type (0, 0), BuildingBlock: XUDNAN_clean_linker_2, # of connection points: 2
#     Edge 17, Type (0, 0), BuildingBlock: XUDNAN_clean_linker_2, # of connection points: 2
#     Edge 18, Type (0, 0), BuildingBlock: XUDNAN_clean_linker_2, # of connection points: 2
#     Edge 19, Type (0, 0), BuildingBlock: XUDNAN_clean_linker_2, # of connection points: 2
#     Edge 20, Type (0, 0), BuildingBlock: XUDNAN_clean_linker_2, # of connection points: 2
#     Edge 21, Type (0, 0), BuildingBlock: XUDNAN_clean_linker_2, # of connection points: 2
#     Edge 22, Type (0, 0), BuildingBlock: XUDNAN_clean_linker_2, # of connection points: 2
#     Edge 23, Type (0, 0), BuildingBlock: XUDNAN_clean_linker_2, # of connection points: 2
#     Edge 24, Type (0, 0), BuildingBlock: XUDNAN_clean_linker_2, # of connection points: 2
#     Edge 25, Type (0, 0), BuildingBlock: XUDNAN_clean_linker_2, # of connection points: 2
#     Edge 26, Type (0, 0), BuildingBlock: XUDNAN_clean_linker_2, # of connection points: 2
#     Edge 27, Type (0, 0), BuildingBlock: XUDNAN_clean_linker_2, # of connection points: 2
#     Edge 28, Type (0, 0), BuildingBlock: XUDNAN_clean_linker_2, # of connection points: 2
#     Edge 29, Type (0, 0), BuildingBlock: XUDNAN_clean_linker_2, # of connection points: 2
#     Edge 30, Type (0, 0), BuildingBlock: XUDNAN_clean_linker_2, # of connection points: 2
#     Edge 31, Type (0, 0), BuildingBlock: XUDNAN_clean_linker_2, # of connection points: 2
#     Edge 32, Type (0, 0), BuildingBlock: XUDNAN_clean_linker_2, # of connection points: 2
#     Edge 33, Type (0, 0), BuildingBlock: XUDNAN_clean_linker_2, # of connection points: 2
#     Edge 34, Type (0, 0), BuildingBlock: XUDNAN_clean_linker_2, # of connection points: 2
#     Edge 35, Type (0, 0), BuildingBlock: XUDNAN_clean_linker_2, # of connection points: 2
#     Edge 36, Type (0, 0), BuildingBlock: XUDNAN_clean_linker_2, # of connection points: 2
#     Edge 37, Type (0, 0), BuildingBlock: XUDNAN_clean_linker_2, # of connection points: 2
#     Edge 38, Type (0, 0), BuildingBlock: XUDNAN_clean_linker_2, # of connection points: 2
#     Edge 39, Type (0, 0), BuildingBlock: XUDNAN_clean_linker_2, # of connection points: 2
#     Edge 40, Type (0, 0), BuildingBlock: XUDNAN_clean_linker_2, # of connection points: 2
#     Edge 41, Type (0, 0), BuildingBlock: XUDNAN_clean_linker_2, # of connection points: 2
#     Edge 42, Type (0, 0), BuildingBlock: XUDNAN_clean_linker_2, # of connection points: 2
#     Edge 43, Type (0, 0), BuildingBlock: XUDNAN_clean_linker_2, # of connection points: 2
#     Edge 44, Type (0, 0), BuildingBlock: XUDNAN_clean_linker_2, # of connection points: 2
#     Edge 45, Type (0, 0), BuildingBlock: XUDNAN_clean_linker_2, # of connection points: 2
#     Edge 46, Type (0, 0), BuildingBlock: XUDNAN_clean_linker_2, # of connection points: 2
#     Edge 47, Type (0, 0), BuildingBlock: XUDNAN_clean_linker_2, # of connection points: 2
#     Edge 48, Type (0, 0), BuildingBlock: XUDNAN_clean_linker_2, # of connection points: 2
#     Edge 49, Type (0, 0), BuildingBlock: XUDNAN_clean_linker_2, # of connection points: 2
#     Edge 50, Type (0, 0), BuildingBlock: XUDNAN_clean_linker_2, # of connection points: 2
#     Edge 51, Type (0, 0), BuildingBlock: XUDNAN_clean_linker_2, # of connection points: 2
#     Edge 52, Type (0, 0), BuildingBlock: XUDNAN_clean_linker_2, # of connection points: 2
#     Edge 53, Type (0, 0), BuildingBlock: XUDNAN_clean_linker_2, # of connection points: 2
#     Edge 54, Type (0, 0), BuildingBlock: XUDNAN_clean_linker_2, # of connection points: 2
#     Edge 55, Type (0, 0), BuildingBlock: XUDNAN_clean_linker_2, # of connection points: 2
# Relax obj value: 0.190
# Max RMSD: 0.233
# Mean RMSD: 0.219
data_MOF--net-zfl--node1-BEQFEK_clean_sbu_0--edge1-XUDNAN_clean_linker_2
_symmetry_space_group_name_H-M    P1
_symmetry_Int_Tables_number       1
_symmetry_cell_setting            triclinic
loop_
_symmetry_equiv_pos_as_xyz
'x, y, z'
_cell_length_a     27.345234
_cell_length_b     27.34526
_cell_length_c     75.73711
_cell_angle_alpha  90.048807
_cell_angle_beta   89.959297
_cell_angle_gamma 89.899472
loop_
_atom_site_label
_atom_site_type_symbol
_atom_site_fract_x
_atom_site_fract_y
_atom_site_fract_z
_atom_type_partial_charge
Co0 Co 0.56771 0.03817 0.16607 0.0
Co1 Co 0.56971 0.0307 0.12406 0.0
C2 C 0.48531 0.0743 0.14216 0.0
O3 O 0.5049 0.06919 0.15735 0.0
O4 O 0.50555 0.05757 0.12835 0.0
C5 C 0.52337 0.00019 0.19666 0.0
O6 O 0.49653 0.98069 0.18412 0.0
C7 C 0.54319 0.0184 0.08642 0.0
C8 C 0.61427 3e-05 0.07422 0.0
C9 C 0.56502 0.00588 0.07045 0.0
N10 N 0.57776 0.01882 0.09909 0.0
N11 N 0.62022 0.00821 0.09165 0.0
C12 C 0.49124 0.03362 0.08946 0.0
H13 H 0.47318 0.00697 0.09836 0.0
H14 H 0.47024 0.03709 0.07703 0.0
H15 H 0.49083 0.06981 0.09597 0.0
C16 C 0.59581 0.93231 0.16093 0.0
N17 N 0.58276 0.97677 0.15469 0.0
N18 N 0.57971 0.97397 0.13737 0.0
C19 C 0.58818 0.92779 0.13213 0.0
C20 C 0.59991 0.89984 0.14681 0.0
C21 C 0.60657 0.92164 0.17991 0.0
H22 H 0.62049 0.95489 0.18661 0.0
H23 H 0.57247 0.9098 0.18658 0.0
H24 H 0.63386 0.89171 0.18107 0.0
O25 O 0.61977 0.08761 0.16066 0.0
O26 O 0.61599 0.08216 0.13132 0.0
H27 H 0.61317 0.91404 0.10581 0.0
H28 H 0.56841 0.87079 0.11361 0.0
C29 C 0.57927 0.90984 0.11371 0.0
H30 H 0.54958 0.93128 0.10746 0.0
H31 H 0.65323 0.00603 0.09851 0.0
O32 O 0.55866 0.028 0.19225 0.0
C33 C 0.63285 0.10197 0.14531 0.0
Co34 Co 0.45115 0.58279 0.66855 0.0
Co35 Co 0.46231 0.58295 0.62681 0.0
C36 C 0.40876 0.50386 0.64502 0.0
O37 O 0.41714 0.52176 0.66027 0.0
O38 O 0.4249 0.52402 0.63111 0.0
C39 C 0.48922 0.5406 0.69908 0.0
O40 O 0.50934 0.51375 0.68664 0.0
C41 C 0.47729 0.55138 0.58967 0.0
C42 C 0.50465 0.61898 0.5772 0.0
C43 C 0.49405 0.57038 0.57373 0.0
N44 N 0.47871 0.58694 0.60201 0.0
N45 N 0.4949 0.62729 0.5944 0.0
C46 C 0.45694 0.50141 0.59297 0.0
H47 H 0.41945 0.50493 0.59839 0.0
H48 H 0.47979 0.48239 0.60294 0.0
H49 H 0.45482 0.47915 0.58077 0.0
C50 C 0.55676 0.60601 0.66475 0.0
N51 N 0.51346 0.59264 0.65785 0.0
N52 N 0.51902 0.58427 0.64092 0.0
C53 C 0.56673 0.58707 0.63674 0.0
C54 C 0.59289 0.60208 0.6517 0.0
C55 C 0.56127 0.62857 0.68271 0.0
H56 H 0.52574 0.64456 0.68686 0.0
H57 H 0.57165 0.60017 0.69245 0.0
H58 H 0.58951 0.65768 0.68274 0.0
O59 O 0.4083 0.63856 0.66257 0.0
O60 O 0.41873 0.63935 0.63333 0.0
H61 H 0.59039 0.60235 0.61035 0.0
H62 H 0.6221 0.55188 0.62081 0.0
C63 C 0.58625 0.57041 0.61925 0.0
H64 H 0.56059 0.54421 0.61305 0.0
H65 H 0.49967 0.66046 0.601 0.0
O66 O 0.46032 0.57499 0.69463 0.0
C67 C 0.39948 0.65684 0.6474 0.0
Co68 Co 0.92571 0.44623 0.16537 0.0
Co69 Co 0.9148 0.45431 0.12383 0.0
C70 C 0.00396 0.41043 0.14162 0.0
O71 O 0.9893 0.41661 0.15745 0.0
O72 O 0.97778 0.42362 0.12862 0.0
C73 C 0.96335 0.4617 0.20124 0.0
O74 O 0.00546 0.46994 0.19344 0.0
C75 C 0.94794 0.48958 0.08917 0.0
C76 C 0.89134 0.46038 0.07128 0.0
C77 C 0.93499 0.48609 0.07146 0.0
N78 N 0.91344 0.46722 0.09893 0.0
N79 N 0.87959 0.45005 0.08815 0.0
C80 C 0.9941 0.51039 0.09668 0.0
H81 H -0.00038 0.49821 0.11048 0.0
H82 H 0.99172 0.55087 0.09676 0.0
H83 H 0.02593 0.49961 0.08844 0.0
C84 C 0.91056 0.55529 0.16096 0.0
N85 N 0.9144 0.50928 0.15454 0.0
N86 N 0.90623 0.51065 0.13742 0.0
C87 C 0.89449 0.55631 0.13255 0.0
C88 C 0.89789 0.58672 0.14715 0.0
C89 C 0.92263 0.56887 0.17959 0.0
H90 H 0.95801 0.55201 0.18329 0.0
H91 H 0.92545 0.60896 0.18141 0.0
H92 H 0.8941 0.55409 0.18853 0.0
O93 O 0.87094 0.39901 0.15894 0.0
O94 O 0.86397 0.40799 0.12985 0.0
H95 H 0.85341 0.60308 0.11494 0.0
H96 H 0.90812 0.57667 0.1057 0.0
C97 C 0.87652 0.56969 0.11449 0.0
H98 H 0.85481 0.53923 0.10886 0.0
H99 H 0.84915 0.43011 0.09226 0.0
O100 O 0.92595 0.45193 0.19185 0.0
C101 C 0.85042 0.38835 0.14425 0.0
Co102 Co 0.04315 0.9404 0.667 0.0
Co103 Co 0.03367 0.91788 0.62569 0.0
C104 C 0.06745 0.01478 0.63862 0.0
O105 O 0.06689 0.00144 0.65478 0.0
O106 O 0.05217 0.98662 0.62645 0.0
C107 C 0.03182 0.99821 0.69862 0.0
O108 O 0.03436 0.03324 0.6868 0.0
C109 C 0.00433 0.92708 0.58804 0.0
C110 C 0.02266 0.85353 0.57798 0.0
C111 C 0.0041 0.89853 0.5728 0.0
N112 N 0.02221 0.90006 0.60147 0.0
N113 N 0.03336 0.85626 0.59528 0.0
C114 C 0.98525 0.97803 0.59015 0.0
H115 H 0.97447 0.98481 0.60407 0.0
H116 H 0.95347 0.98428 0.58132 0.0
H117 H 0.01447 0.00428 0.58653 0.0
C118 C 0.93627 0.91631 0.66388 0.0
N119 N 0.98193 0.91879 0.6571 0.0
N120 N 0.98018 0.90561 0.64039 0.0
C121 C 0.93449 0.89211 0.63623 0.0
C122 C 0.90452 0.89952 0.65077 0.0
C123 C 0.92293 0.93587 0.68171 0.0
H124 H 0.93944 0.91222 0.69201 0.0
H125 H 0.93842 0.97307 0.68328 0.0
H126 H 0.88284 0.93771 0.68371 0.0
O127 O 0.09772 0.89075 0.66294 0.0
O128 O 0.09055 0.88188 0.63383 0.0
H129 H 0.94757 0.84661 0.61367 0.0
H130 H 0.88383 0.85432 0.61901 0.0
C131 C 0.91979 0.87301 0.61846 0.0
H132 H 0.91766 0.90375 0.60895 0.0
H133 H 0.04813 0.82813 0.60291 0.0
O134 O 0.03477 0.95399 0.69336 0.0
C135 C 0.11289 0.87333 0.64822 0.0
Co136 Co 0.56117 0.4588 0.86175 0.0
Co137 Co 0.57481 0.44165 0.90284 0.0
C138 C 0.48474 0.4092 0.88195 0.0
O139 O 0.49958 0.42605 0.86726 0.0
O140 O 0.50998 0.41362 0.89601 0.0
C141 C 0.52442 0.48588 0.82682 0.0
O142 O 0.48094 0.4845 0.83419 0.0
C143 C 0.54291 0.47285 0.93804 0.0
C144 C 0.59169 0.43256 0.95611 0.0
C145 C 0.55314 0.46566 0.95588 0.0
N146 N 0.57421 0.44591 0.92831 0.0
N147 N 0.60322 0.4218 0.93921 0.0
C148 C 0.50235 0.5026 0.93021 0.0
H149 H 0.49324 0.48924 0.91679 0.0
H150 H 0.51424 0.54121 0.92902 0.0
H151 H 0.46939 0.50129 0.93876 0.0
C152 C 0.57514 0.56159 0.87359 0.0
N153 N 0.57206 0.51328 0.87675 0.0
N154 N 0.58539 0.50462 0.89308 0.0
C155 C 0.60211 0.54619 0.90037 0.0
C156 C 0.59524 0.58478 0.88845 0.0
C157 C 0.55398 0.58449 0.85735 0.0
H158 H 0.58336 0.59023 0.84745 0.0
H159 H 0.52601 0.56016 0.85153 0.0
H160 H 0.53621 0.61994 0.86049 0.0
O161 O 0.61419 0.40858 0.86495 0.0
O162 O 0.625 0.39562 0.89373 0.0
H163 H 0.64689 0.51031 0.91978 0.0
H164 H 0.65924 0.57474 0.91712 0.0
C165 C 0.63001 0.54664 0.9174 0.0
H166 H 0.60484 0.55454 0.92853 0.0
H167 H 0.63074 0.39775 0.93513 0.0
O168 O 0.56216 0.47755 0.83621 0.0
C169 C 0.63558 0.38637 0.87764 0.0
Co170 Co 0.03674 0.54859 0.36012 0.0
Co171 Co 0.03185 0.56874 0.40135 0.0
C172 C 0.0826 0.48122 0.38726 0.0
O173 O 0.0717 0.49129 0.37128 0.0
O174 O 0.06869 0.50827 0.39993 0.0
C175 C 0.99704 0.49849 0.33032 0.0
O176 O 0.97556 0.47386 0.34303 0.0
C177 C 0.01873 0.55192 0.4397 0.0
C178 C 0.00812 0.62708 0.44969 0.0
C179 C 0.01135 0.57876 0.45507 0.0
N180 N 0.01945 0.583 0.42588 0.0
N181 N 0.01274 0.62781 0.43198 0.0
C182 C 0.02925 0.49833 0.43817 0.0
H183 H 0.06875 0.49322 0.43534 0.0
H184 H 0.00836 0.48269 0.42696 0.0
H185 H 0.02036 0.4783 0.45046 0.0
C186 C 0.93239 0.57555 0.36406 0.0
N187 N 0.97609 0.56401 0.37103 0.0
N188 N 0.97269 0.5642 0.38829 0.0
C189 C 0.92549 0.56998 0.39293 0.0
C190 C 0.89754 0.5785 0.37765 0.0
C191 C 0.92727 0.59155 0.34522 0.0
H192 H 0.96301 0.60435 0.34006 0.0
H193 H 0.91518 0.5603 0.33698 0.0
H194 H 0.9004 0.62183 0.34404 0.0
O195 O 0.07932 0.60566 0.36244 0.0
O196 O 0.07587 0.62133 0.39133 0.0
H197 H 0.90404 0.59809 0.41819 0.0
H198 H 0.87286 0.54235 0.41165 0.0
C199 C 0.90817 0.56224 0.41147 0.0
H200 H 0.93499 0.54001 0.4189 0.0
H201 H 0.01231 0.65904 0.42407 0.0
O202 O 0.02615 0.53294 0.33444 0.0
C203 C 0.09182 0.63101 0.37582 0.0
Co204 Co 0.92742 0.02425 0.85978 0.0
Co205 Co 0.89753 0.0353 0.90026 0.0
C206 C 0.99525 0.06863 0.88546 0.0
O207 O 0.98739 0.05412 0.86975 0.0
O208 O 0.96353 0.06268 0.89755 0.0
C209 C 0.956 0.04795 0.82552 0.0
O210 O 0.95904 0.08936 0.83427 0.0
C211 C 0.91767 0.01428 0.93766 0.0
C212 C 0.85738 0.05274 0.95118 0.0
C213 C 0.90019 0.02689 0.95426 0.0
N214 N 0.8866 0.03167 0.92535 0.0
N215 N 0.85023 0.05402 0.93358 0.0
C216 C 0.96592 0.99125 0.93347 0.0
H217 H 0.96803 0.9813 0.91928 0.0
H218 H 0.97136 0.95813 0.94169 0.0
H219 H 0.99563 0.0174 0.93667 0.0
C220 C 0.91116 0.91865 0.87002 0.0
N221 N 0.90989 0.96723 0.87321 0.0
N222 N 0.89168 0.97428 0.88907 0.0
C223 C 0.87668 0.93167 0.89585 0.0
C224 C 0.89009 0.89387 0.88441 0.0
C225 C 0.93673 0.89718 0.85435 0.0
H226 H 0.96059 0.92482 0.84801 0.0
H227 H 0.95938 0.86535 0.85835 0.0
H228 H 0.90917 0.88492 0.84456 0.0
O229 O 0.87388 0.07641 0.86114 0.0
O230 O 0.85286 0.08195 0.8895 0.0
H231 H 0.82269 0.96245 0.91323 0.0
H232 H 0.8213 0.89658 0.91183 0.0
C233 C 0.84559 0.92903 0.91214 0.0
H234 H 0.86931 0.92735 0.924 0.0
H235 H 0.82187 0.07236 0.92715 0.0
O236 O 0.9413 0.01029 0.83387 0.0
C237 C 0.84829 0.09568 0.87353 0.0
Co238 Co 0.44237 0.93209 0.36061 0.0
Co239 Co 0.44001 0.90303 0.40123 0.0
C240 C 0.40725 0.00252 0.38668 0.0
O241 O 0.41726 0.9953 0.37044 0.0
O242 O 0.4146 0.9694 0.39813 0.0
C243 C 0.46594 0.97301 0.3251 0.0
O244 O 0.47464 0.01489 0.333 0.0
C245 C 0.47787 0.92704 0.4362 0.0
C246 C 0.44097 0.87412 0.45368 0.0
C247 C 0.47277 0.9136 0.45379 0.0
N248 N 0.4508 0.89674 0.42618 0.0
N249 N 0.42892 0.86506 0.43671 0.0
C250 C 0.50457 0.97061 0.42909 0.0
H251 H 0.49714 0.00317 0.43744 0.0
H252 H 0.49397 0.97809 0.41524 0.0
H253 H 0.54449 0.96358 0.42931 0.0
C254 C 0.54767 0.90653 0.36652 0.0
N255 N 0.501 0.91076 0.37211 0.0
N256 N 0.49827 0.89458 0.38845 0.0
C257 C 0.54228 0.87778 0.39351 0.0
C258 C 0.57543 0.88542 0.37994 0.0
C259 C 0.56561 0.92645 0.34931 0.0
H260 H 0.5494 0.96309 0.34709 0.0
H261 H 0.60599 0.9297 0.34896 0.0
H262 H 0.55345 0.90209 0.33845 0.0
O263 O 0.38946 0.8819 0.36434 0.0
O264 O 0.38926 0.85829 0.3925 0.0
H265 H 0.58261 0.82608 0.40933 0.0
H266 H 0.56205 0.87968 0.42087 0.0
C267 C 0.5519 0.85244 0.41069 0.0
H268 H 0.51868 0.8328 0.41517 0.0
H269 H 0.40479 0.83808 0.43238 0.0
O270 O 0.45281 0.93623 0.33428 0.0
C271 C 0.3721 0.85578 0.37687 0.0
Co272 Co 0.42531 0.95613 0.91236 0.0
Co273 Co 0.41312 0.94232 0.87118 0.0
C274 C 0.50431 0.91118 0.89071 0.0
O275 O 0.48759 0.92779 0.90517 0.0
O276 O 0.47971 0.91458 0.87645 0.0
C277 C 0.47011 0.98038 0.94559 0.0
O278 O 0.50946 0.98546 0.9358 0.0
C279 C 0.44012 0.96444 0.83473 0.0
C280 C 0.37355 0.94505 0.81981 0.0
C281 C 0.4202 0.9641 0.81786 0.0
N282 N 0.40685 0.94651 0.84606 0.0
N283 N 0.36726 0.93456 0.83705 0.0
C284 C 0.48815 0.98536 0.84038 0.0
H285 H 0.48633 0.99726 0.85438 0.0
H286 H 0.49851 0.01672 0.83188 0.0
H287 H 0.51677 0.95672 0.83922 0.0
C288 C 0.40107 0.05807 0.90305 0.0
N289 N 0.40936 0.01115 0.89862 0.0
N290 N 0.40175 0.00529 0.88159 0.0
C291 C 0.38645 0.04825 0.87476 0.0
C292 C 0.38564 0.08327 0.88811 0.0
C293 C 0.41182 0.07862 0.92096 0.0
H294 H 0.44518 0.06128 0.92636 0.0
H295 H 0.41783 0.11867 0.92055 0.0
H296 H 0.38086 0.07042 0.92996 0.0
O297 O 0.3755 0.9044 0.90927 0.0
O298 O 0.36511 0.89423 0.88038 0.0
H299 H 0.34714 0.08827 0.8546 0.0
H300 H 0.4021 0.05759 0.84732 0.0
C301 C 0.36975 0.05481 0.8561 0.0
H302 H 0.34775 0.02284 0.85196 0.0
H303 H 0.33555 0.92031 0.84272 0.0
O304 O 0.42957 0.97028 0.93818 0.0
C305 C 0.35515 0.88277 0.8963 0.0
Co306 Co 0.54644 0.41752 0.41657 0.0
Co307 Co 0.5325 0.407 0.37516 0.0
C308 C 0.57285 0.4979 0.3904 0.0
O309 O 0.57149 0.4807 0.40608 0.0
O310 O 0.55622 0.47362 0.3774 0.0
C311 C 0.52537 0.46526 0.44971 0.0
O312 O 0.50945 0.50029 0.43932 0.0
C313 C 0.50771 0.41729 0.33671 0.0
C314 C 0.51655 0.34044 0.32827 0.0
C315 C 0.5059 0.38679 0.32201 0.0
N316 N 0.51884 0.38997 0.351 0.0
N317 N 0.52364 0.34407 0.34579 0.0
C318 C 0.50114 0.47163 0.33696 0.0
H319 H 0.51576 0.48776 0.34922 0.0
H320 H 0.46154 0.48032 0.33632 0.0
H321 H 0.51928 0.48843 0.32534 0.0
C322 C 0.44087 0.38649 0.41475 0.0
N323 N 0.48402 0.39823 0.40716 0.0
N324 N 0.47877 0.39596 0.38991 0.0
C325 C 0.4324 0.38427 0.38593 0.0
C326 C 0.40676 0.37681 0.40152 0.0
C327 C 0.43282 0.3839 0.43426 0.0
H328 H 0.46556 0.36821 0.44079 0.0
H329 H 0.4271 0.42143 0.43946 0.0
H330 H 0.40029 0.36137 0.43747 0.0
O331 O 0.5975 0.36707 0.41113 0.0
O332 O 0.58742 0.36486 0.38206 0.0
H333 H 0.42105 0.35174 0.36056 0.0
H334 H 0.37201 0.39188 0.36748 0.0
C335 C 0.41216 0.3863 0.36756 0.0
H336 H 0.42904 0.41706 0.3603 0.0
H337 H 0.5329 0.31526 0.35418 0.0
O338 O 0.54238 0.42629 0.4428 0.0
C339 C 0.6101 0.35149 0.39591 0.0
Co340 Co 0.07825 0.52328 0.91785 0.0
Co341 Co 0.08558 0.52739 0.87613 0.0
C342 C -0.00038 0.56848 0.89525 0.0
O343 O 0.01722 0.55467 0.90998 0.0
O344 O 0.02216 0.56019 0.88086 0.0
C345 C 0.07415 0.54903 0.95395 0.0
O346 O 0.0864 0.59145 0.94713 0.0
C347 C 0.05421 0.51068 0.83958 0.0
C348 C 0.12425 0.50381 0.82525 0.0
C349 C 0.07399 0.50163 0.82299 0.0
N350 N 0.09102 0.51791 0.85107 0.0
N351 N 0.1328 0.51414 0.84238 0.0
C352 C 0.00164 0.50678 0.84495 0.0
H353 H 0.99883 0.49248 0.85861 0.0
H354 H 0.98115 0.48229 0.83592 0.0
H355 H 0.98473 0.54368 0.8446 0.0
C356 C 0.10153 0.41997 0.91122 0.0
N357 N 0.09132 0.46532 0.90546 0.0
N358 N 0.09163 0.4659 0.8881 0.0
C359 C 0.10012 0.42008 0.88222 0.0
C360 C 0.10742 0.38943 0.89669 0.0
C361 C 0.10815 0.40735 0.9303 0.0
H362 H 0.12706 0.43769 0.93721 0.0
H363 H 0.07171 0.40255 0.93652 0.0
H364 H 0.12975 0.37326 0.93192 0.0
O365 O 0.13128 0.56977 0.91355 0.0
O366 O 0.13771 0.57411 0.88427 0.0
H367 H 0.13086 0.41596 0.85628 0.0
H368 H 0.09067 0.36561 0.86159 0.0
C369 C 0.09671 0.40541 0.8632 0.0
H370 H 0.06564 0.42453 0.85692 0.0
H371 H 0.16718 0.51741 0.84824 0.0
O372 O 0.06986 0.51231 0.94374 0.0
C373 C 0.15102 0.58745 0.89972 0.0
Co374 Co 0.94693 0.06301 0.42018 0.0
Co375 Co 0.96209 0.05975 0.3786 0.0
C376 C 0.90573 0.98326 0.39553 0.0
O377 O 0.91047 0.00573 0.41018 0.0
O378 O 0.9269 0.99833 0.38165 0.0
C379 C 0.96224 0.00586 0.44992 0.0
O380 O 0.97276 0.97608 0.43683 0.0
C381 C 0.9856 0.03331 0.3416 0.0
C382 C 0.00055 0.10559 0.32978 0.0
C383 C -0.00101 0.0561 0.32591 0.0
N384 N 0.98005 0.06776 0.35417 0.0
N385 N 0.98884 0.11088 0.34696 0.0
C386 C 0.97461 0.98028 0.34444 0.0
H387 H 0.93555 0.97648 0.34811 0.0
H388 H 0.9968 0.96619 0.35559 0.0
H389 H 0.98129 0.95798 0.33246 0.0
C390 C 0.05326 0.08332 0.41783 0.0
N391 N 0.01053 0.07031 0.4104 0.0
N392 N 0.01733 0.06301 0.39344 0.0
C393 C 0.06513 0.0676 0.38967 0.0
C394 C 0.08997 0.0821 0.40494 0.0
C395 C 0.05684 0.1012 0.43647 0.0
H396 H 0.02114 0.11628 0.44086 0.0
H397 H 0.06626 0.07007 0.44524 0.0
H398 H 0.08526 0.1299 0.43773 0.0
O399 O 0.90683 0.12057 0.41404 0.0
O400 O 0.91596 0.11401 0.38487 0.0
H401 H 0.08674 0.08595 0.3633 0.0
H402 H 0.12386 0.03888 0.37353 0.0
C403 C 0.08623 0.05356 0.37211 0.0
H404 H 0.06339 0.02496 0.36588 0.0
H405 H 0.98698 0.14397 0.35381 0.0
O406 O 0.95085 0.04994 0.44634 0.0
C407 C 0.89716 0.13489 0.39839 0.0
Co408 Co 0.41088 0.53757 0.10923 0.0
Co409 Co 0.4032 0.53177 0.15107 0.0
C410 C 0.48787 0.57916 0.13376 0.0
O411 O 0.4719 0.5703 0.11826 0.0
O412 O 0.46486 0.56504 0.14737 0.0
C413 C 0.4237 0.56295 0.07256 0.0
O414 O 0.41585 0.6072 0.07873 0.0
C415 C 0.43049 0.51087 0.18784 0.0
C416 C 0.35866 0.50175 0.20076 0.0
C417 C 0.40853 0.49862 0.20377 0.0
N418 N 0.39522 0.51955 0.17586 0.0
N419 N 0.35236 0.51484 0.18376 0.0
C420 C 0.48403 0.51551 0.18399 0.0
H421 H 0.49426 0.49015 0.17314 0.0
H422 H 0.50692 0.50836 0.19577 0.0
H423 H 0.49171 0.55325 0.17944 0.0
C424 C 0.38759 0.43139 0.11408 0.0
N425 N 0.39852 0.47608 0.12054 0.0
N426 N 0.39896 0.47375 0.13789 0.0
C427 C 0.39009 0.42756 0.14303 0.0
C428 C 0.38132 0.39917 0.12816 0.0
C429 C 0.38088 0.42072 0.09486 0.0
H430 H 0.36231 0.45196 0.08834 0.0
H431 H 0.41731 0.41602 0.08861 0.0
H432 H 0.35911 0.38697 0.09282 0.0
O433 O 0.35501 0.5838 0.11402 0.0
O434 O 0.35143 0.57675 0.14332 0.0
H435 H 0.36063 0.41924 0.16904 0.0
H436 H 0.40153 0.37045 0.16253 0.0
C437 C 0.39466 0.41033 0.16173 0.0
H438 H 0.42576 0.42894 0.16817 0.0
H439 H 0.31878 0.51913 0.1774 0.0
O440 O 0.42176 0.52698 0.08319 0.0
C441 C 0.33591 0.59514 0.1289 0.0
Co442 Co 0.95011 0.43272 0.61253 0.0
Co443 Co 0.9436 0.40534 0.65329 0.0
C444 C 0.91095 0.50292 0.63972 0.0
O445 O 0.92182 0.49274 0.62377 0.0
O446 O 0.91804 0.47224 0.65206 0.0
C447 C 0.95003 0.44187 0.57332 0.0
O448 O 0.91321 0.41109 0.57291 0.0
C449 C 0.95349 0.41715 0.69186 0.0
C450 C 0.96022 0.34119 0.70132 0.0
C451 C 0.95965 0.38937 0.70697 0.0
N452 N 0.94991 0.38706 0.67784 0.0
N453 N 0.95383 0.34158 0.68364 0.0
C454 C 0.95614 0.47164 0.69068 0.0
H455 H 0.97255 0.48299 0.67796 0.0
H456 H 0.9783 0.487 0.70163 0.0
H457 H 0.91856 0.48655 0.69176 0.0
C458 C 0.05222 0.40069 0.61877 0.0
N459 N 0.0064 0.40899 0.62456 0.0
N460 N 0.00474 0.40135 0.64168 0.0
C461 C 0.05006 0.39088 0.64755 0.0
C462 C 0.0819 0.38931 0.63317 0.0
C463 C 0.06629 0.40182 0.59967 0.0
H464 H 0.03647 0.38602 0.59156 0.0
H465 H 0.07164 0.44033 0.59549 0.0
H466 H 0.1004 0.38081 0.59724 0.0
O467 O 0.8983 0.38241 0.61289 0.0
O468 O 0.89386 0.3626 0.64143 0.0
H469 H 0.05606 0.35216 0.67199 0.0
H470 H 0.10215 0.39878 0.669 0.0
C471 C 0.06329 0.38931 0.66674 0.0
H472 H 0.04084 0.41598 0.67415 0.0
H473 H 0.95299 0.31081 0.67548 0.0
O474 O 0.96897 0.4534 0.58809 0.0
C475 C 0.87913 0.35799 0.62548 0.0
Co476 Co 0.07069 0.95643 0.10775 0.0
Co477 Co 0.06687 0.96419 0.1494 0.0
C478 C 0.98507 0.92169 0.13182 0.0
O479 O 0.00921 0.92589 0.11742 0.0
O480 O 0.00059 0.94025 0.14616 0.0
C481 C 0.04197 0.94425 0.07008 0.0
O482 O 0.03372 0.89796 0.0736 0.0
C483 C 0.05417 0.97569 0.18832 0.0
C484 C 0.13136 0.98294 0.19654 0.0
C485 C 0.08411 0.98077 0.20304 0.0
N486 N 0.08267 0.97498 0.17379 0.0
N487 N 0.12866 0.97976 0.17884 0.0
C488 C 0.00013 0.96736 0.188 0.0
H489 H 0.99273 0.93031 0.18266 0.0
H490 H 0.98274 0.99415 0.17896 0.0
H491 H 0.9837 0.97044 0.20135 0.0
C492 C 0.10318 0.05877 0.11288 0.0
N493 N 0.08701 0.01591 0.11929 0.0
N494 N 0.0782 0.02075 0.13619 0.0
C495 C 0.08446 0.06762 0.14096 0.0
C496 C 0.10162 0.09404 0.12635 0.0
C497 C 0.1232 0.06355 0.09456 0.0
H498 H 0.13735 0.0277 0.08991 0.0
H499 H 0.09349 0.07494 0.08548 0.0
H500 H 0.15321 0.09079 0.09411 0.0
O501 O 0.1218 0.90658 0.11208 0.0
O502 O 0.1108 0.91031 0.14116 0.0
H503 H 0.10037 0.0888 0.16758 0.0
H504 H 0.05094 0.12289 0.1574 0.0
C505 C 0.06835 0.08638 0.15863 0.0
H506 H 0.04142 0.06105 0.16461 0.0
H507 H 0.15838 0.9797 0.17019 0.0
O508 O 0.05871 0.97201 0.08216 0.0
C509 C 0.13041 0.89056 0.12759 0.0
Co510 Co 0.52859 0.07346 0.60504 0.0
Co511 Co 0.52302 0.08745 0.6465 0.0
C512 C 0.57344 0.00216 0.63119 0.0
O513 O 0.56454 0.01697 0.61556 0.0
O514 O 0.55803 0.02537 0.64459 0.0
C515 C 0.55695 0.05542 0.56944 0.0
O516 O 0.6001 0.06601 0.57603 0.0
C517 C 0.51369 0.06845 0.6847 0.0
C518 C 0.48371 0.13812 0.69478 0.0
C519 C 0.49821 0.09178 0.69999 0.0
N520 N 0.50908 0.09967 0.67106 0.0
N521 N 0.49124 0.14132 0.67721 0.0
C522 C 0.52838 0.01594 0.68283 0.0
H523 H 0.50872 -0.00063 0.67151 0.0
H524 H 0.51993 0.99456 0.69488 0.0
H525 H 0.56823 0.01387 0.68016 0.0
C526 C 0.42395 0.09615 0.60877 0.0
N527 N 0.46783 0.0863 0.61587 0.0
N528 N 0.46413 0.0857 0.63312 0.0
C529 C 0.41665 0.09012 0.63761 0.0
C530 C 0.38891 0.09814 0.62227 0.0
C531 C 0.41825 0.1093 0.58968 0.0
H532 H 0.45297 0.12458 0.58449 0.0
H533 H 0.40962 0.07591 0.58195 0.0
H534 H 0.38889 0.13689 0.58782 0.0
O535 O 0.57043 0.13031 0.60814 0.0
O536 O 0.56945 0.13976 0.6374 0.0
H537 H 0.39466 0.11621 0.66309 0.0
H538 H 0.36307 0.06158 0.65583 0.0
C539 C 0.3987 0.0809 0.656 0.0
H540 H 0.42518 0.05784 0.6633 0.0
H541 H 0.48356 0.17174 0.66937 0.0
O542 O 0.51973 0.05747 0.57949 0.0
C543 C 0.58469 0.15227 0.62205 0.0
H544 H 0.54604 0.05258 0.22693 0.0
H545 H 0.47763 0.91869 0.20868 0.0
H546 H 0.45771 0.89666 0.23939 0.0
H547 H 0.59696 0.00363 0.26778 0.0
H548 H 0.5841 0.05802 0.28043 0.0
H549 H 0.59548 0.06245 0.25705 0.0
H550 H 0.51254 0.1068 0.25288 0.0
H551 H 0.50086 0.10241 0.27623 0.0
H552 H 0.45724 0.07822 0.26069 0.0
H553 H 0.44455 0.88877 0.2719 0.0
H554 H 0.43604 0.8972 0.30418 0.0
H555 H 0.50935 0.0378 0.30187 0.0
C556 C 0.52733 0.01843 0.22946 0.0
C557 C 0.51356 0.98726 0.21538 0.0
C558 C 0.48843 0.94324 0.21921 0.0
C559 C 0.47706 0.93029 0.23664 0.0
C560 C 0.49059 0.96192 0.25019 0.0
C561 C 0.51493 0.00522 0.24685 0.0
C562 C 0.52328 0.03347 0.26388 0.0
C563 C 0.57823 0.03975 0.2675 0.0
C564 C 0.4969 0.08317 0.26339 0.0
C565 C 0.49983 -0.00075 0.27723 0.0
C566 C 0.4816 0.95804 0.26901 0.0
C567 C 0.45862 0.92093 0.27849 0.0
C568 C 0.454 0.92606 0.29685 0.0
C569 C 0.47182 0.96821 0.30563 0.0
C570 C 0.49507 0.00524 0.29559 0.0
H571 H 0.45521 0.5226 0.80394 0.0
H572 H 0.60496 0.46989 0.80621 0.0
H573 H 0.61254 0.48087 0.77401 0.0
H574 H 0.42287 0.46675 0.76326 0.0
H575 H 0.38655 0.51734 0.75543 0.0
H576 H 0.39306 0.50699 0.77879 0.0
H577 H 0.42541 0.59525 0.78286 0.0
H578 H 0.41886 0.60595 0.7595 0.0
H579 H 0.47715 0.6155 0.77005 0.0
H580 H 0.60217 0.49133 0.7415 0.0
H581 H 0.57653 0.50639 0.71076 0.0
H582 H 0.43511 0.55723 0.72928 0.0
C583 C 0.4897 0.51367 0.79768 0.0
C584 C 0.52948 0.49521 0.80762 0.0
C585 C 0.57403 0.48418 0.79892 0.0
C586 C 0.57868 0.49022 0.78061 0.0
C587 C 0.53868 0.50798 0.77119 0.0
C588 C 0.49522 0.52014 0.77941 0.0
C589 C 0.45788 0.53844 0.76612 0.0
C590 C 0.41241 0.5054 0.76589 0.0
C591 C 0.44402 0.59197 0.76986 0.0
C592 C 0.48689 0.53379 0.74912 0.0
C593 C 0.53333 0.51589 0.75239 0.0
C594 C 0.56614 0.50591 0.73879 0.0
C595 C 0.55115 0.51437 0.72137 0.0
C596 C 0.50399 0.53322 0.71767 0.0
C597 C 0.47162 0.54347 0.73177 0.0
H598 H 0.02856 0.50153 0.22493 0.0
H599 H 0.88924 0.42617 0.22184 0.0
H600 H 0.88326 0.42723 0.25437 0.0
H601 H 0.07338 0.44189 0.26395 0.0
H602 H 0.10145 0.49606 0.27293 0.0
H603 H 0.09514 0.48921 0.24938 0.0
H604 H 0.04857 0.57167 0.24781 0.0
H605 H 0.05483 0.57883 0.27135 0.0
H606 H 0.99507 0.58081 0.26135 0.0
H607 H 0.89368 0.43368 0.28722 0.0
H608 H 0.91698 0.44979 0.31813 0.0
H609 H 0.0477 0.52469 0.30019 0.0
C610 C 0.9968 0.48521 0.2311 0.0
C611 C 0.95944 0.46353 0.2208 0.0
C612 C 0.91829 0.44302 0.22941 0.0
C613 C 0.91462 0.44334 0.2479 0.0
C614 C 0.95213 0.46479 0.25764 0.0
C615 C 0.99223 0.48579 0.24956 0.0
C616 C 0.02693 0.50732 0.26314 0.0
C617 C 0.07719 0.4821 0.2623 0.0
C618 C 0.03161 0.56296 0.26077 0.0
C619 C 0.00024 0.49483 0.28012 0.0
C620 C 0.95735 0.46996 0.27661 0.0
C621 C 0.92702 0.45337 0.29011 0.0
C622 C 0.9407 0.46257 0.30765 0.0
C623 C 0.98411 0.4886 0.31162 0.0
C624 C 0.01414 0.505 0.2976 0.0
H625 H 0.00049 0.94026 0.72692 0.0
H626 H 0.04822 0.08695 0.71334 0.0
H627 H 0.0352 0.11321 0.74396 0.0
H628 H 0.90509 0.97796 0.7569 0.0
H629 H 0.91493 0.92936 0.77257 0.0
H630 H 0.92977 0.92017 0.74962 0.0
H631 H 0.01832 0.89652 0.75816 0.0
H632 H 0.0037 0.90551 0.78115 0.0
H633 H 0.05419 0.938 0.77136 0.0
H634 H 0.0158 0.1256 0.77524 0.0
H635 H 0.99108 0.12384 0.80631 0.0
H636 H 0.95416 0.96985 0.80143 0.0
C637 C 0.00865 0.97771 0.73048 0.0
C638 C 0.02552 0.01149 0.7176 0.0
C639 C 0.03516 0.06033 0.72281 0.0
C640 C 0.02796 0.07569 0.74024 0.0
C641 C 0.01087 0.04198 0.75251 0.0
C642 C 0.00129 0.994 0.748 0.0
C643 C 0.98192 0.9661 0.76398 0.0
C644 C 0.92983 0.94729 0.76056 0.0
C645 C 0.01661 0.92403 0.76896 0.0
C646 C 0.9821 0.00608 0.77804 0.0
C647 C -0.00087 0.04938 0.77097 0.0
C648 C 0.00251 0.0919 0.78097 0.0
C649 C 0.98821 0.09043 0.79869 0.0
C650 C 0.97053 0.04675 0.80649 0.0
C651 C 0.96752 0.00384 0.79594 0.0
H652 H 0.37532 0.01597 0.79166 0.0
H653 H 0.51405 0.95029 0.80613 0.0
H654 H 0.5499 0.97817 0.77792 0.0
H655 H 0.37968 0.98609 0.74578 0.0
H656 H 0.35242 0.04274 0.7386 0.0
H657 H 0.33812 0.01859 0.7601 0.0
H658 H 0.36582 0.09989 0.77454 0.0
H659 H 0.38024 0.12431 0.75307 0.0
H660 H 0.42629 0.123 0.77008 0.0
H661 H 0.56943 0.00989 0.74753 0.0
H662 H 0.57201 0.04573 0.71754 0.0
H663 H 0.42151 0.0932 0.72318 0.0
C664 C 0.4133 0.00765 0.78888 0.0
C665 C 0.44217 0.98157 0.80115 0.0
C666 C 0.49164 0.97122 0.79709 0.0
C667 C 0.5122 0.98661 0.78105 0.0
C668 C 0.48283 0.01254 0.76927 0.0
C669 C 0.43453 0.02326 0.77303 0.0
C670 C 0.41089 0.05162 0.7581 0.0
C671 C 0.36773 0.02304 0.75018 0.0
C672 C 0.39488 0.10274 0.76432 0.0
C673 C 0.45326 0.05462 0.74525 0.0
C674 C 0.49437 0.03168 0.75193 0.0
C675 C 0.53756 0.02816 0.74222 0.0
C676 C 0.53865 0.04839 0.7252 0.0
C677 C 0.49693 0.07192 0.71812 0.0
C678 C 0.45397 0.07563 0.72838 0.0
H679 H 0.44232 0.45449 0.30733 0.0
H680 H 0.5524 0.34609 0.29395 0.0
H681 H 0.54105 0.36454 0.26233 0.0
H682 H 0.3628 0.43006 0.27136 0.0
H683 H 0.34582 0.49304 0.26788 0.0
H684 H 0.36363 0.47265 0.28954 0.0
H685 H 0.43065 0.53943 0.29072 0.0
H686 H 0.41292 0.56018 0.26907 0.0
H687 H 0.47543 0.54274 0.27328 0.0
H688 H 0.51656 0.39281 0.2323 0.0
H689 H 0.47968 0.42879 0.20557 0.0
H690 H 0.38675 0.52046 0.23819 0.0
C691 C 0.46491 0.43548 0.29782 0.0
C692 C 0.49901 0.3995 0.30315 0.0
C693 C 0.52621 0.37393 0.29016 0.0
C694 C 0.52017 0.38426 0.27218 0.0
C695 C 0.48656 0.42013 0.26738 0.0
C696 C 0.45929 0.44534 0.27978 0.0
C697 C 0.42458 0.48112 0.27099 0.0
C698 C 0.37104 0.46844 0.27519 0.0
C699 C 0.43663 0.534 0.27633 0.0
C700 C 0.43646 0.47185 0.25172 0.0
C701 C 0.47247 0.43665 0.24997 0.0
C702 C 0.4889 0.42098 0.2335 0.0
C703 C 0.46811 0.44197 0.2184 0.0
C704 C 0.43163 0.47855 0.21986 0.0
C705 C 0.41525 0.49319 0.23674 0.0
H706 H 0.10026 0.43402 0.79802 0.0
H707 H 0.99021 0.5434 0.81017 0.0
H708 H 0.9465 0.52288 0.78263 0.0
H709 H 0.10427 0.45572 0.75143 0.0
H710 H 0.1123 0.39225 0.74565 0.0
H711 H 0.134 0.4145 0.7666 0.0
H712 H 0.08266 0.34858 0.78269 0.0
H713 H 0.06057 0.32629 0.76177 0.0
H714 H 0.01782 0.34493 0.77862 0.0
H715 H 0.9164 0.49276 0.75337 0.0
H716 H 0.90248 0.45575 0.72402 0.0
H717 H 0.03112 0.36485 0.73077 0.0
C718 C 0.06689 0.45352 0.79487 0.0
C719 C 0.04805 0.48966 0.80638 0.0
C720 C 0.00452 0.51467 0.80179 0.0
C721 C 0.97961 0.50345 0.78612 0.0
C722 C 0.99872 0.4671 0.77519 0.0
C723 C 0.04136 0.44249 0.77933 0.0
C724 C 0.05446 0.4056 0.76511 0.0
C725 C 0.1042 0.41777 0.7567 0.0
C726 C 0.05383 0.35325 0.77249 0.0
C727 C 0.01286 0.41378 0.75222 0.0
C728 C 0.9811 0.4494 0.75833 0.0
C729 C 0.94088 0.46469 0.74849 0.0
C730 C 0.93333 0.44361 0.73184 0.0
C731 C 0.96578 0.40765 0.72521 0.0
C732 C 0.0055 0.39191 0.73567 0.0
H733 H 0.01851 0.03967 0.22061 0.0
H734 H 0.12324 0.92248 0.22821 0.0
H735 H 0.10862 0.9253 0.26041 0.0
H736 H 0.05447 0.10824 0.25782 0.0
H737 H 0.99389 0.12895 0.26357 0.0
H738 H 0.0083 0.1143 0.24098 0.0
H739 H 0.93652 0.05265 0.24004 0.0
H740 H 0.92169 0.06734 0.26263 0.0
H741 H 0.93328 0.00478 0.25635 0.0
H742 H 0.08674 0.944 0.29175 0.0
H743 H 0.06033 0.97873 0.32035 0.0
H744 H 0.97101 0.08534 0.29285 0.0
C745 C 0.03728 0.01384 0.22907 0.0
C746 C 0.07123 0.98012 0.222 0.0
C747 C 0.09666 0.94811 0.23344 0.0
C748 C 0.08854 0.94942 0.25171 0.0
C749 C 0.05522 0.98337 0.25835 0.0
C750 C 0.03003 0.01512 0.24742 0.0
C751 C -0.00103 0.05041 0.25812 0.0
C752 C 0.01488 0.10362 0.25493 0.0
C753 C 0.94437 0.04335 0.25404 0.0
C754 C 0.01118 0.03393 0.27673 0.0
C755 C 0.04326 0.99483 0.27654 0.0
C756 C 0.061 0.97409 0.29208 0.0
C757 C 0.04553 0.99378 0.30825 0.0
C758 C 0.01262 0.03375 0.30878 0.0
C759 C 0.99559 0.05424 0.29279 0.0
H760 H 0.69743 0.14608 0.16902 0.0
H761 H 0.6348 0.16006 0.11649 0.0
H762 H 0.67913 0.2366 0.11211 0.0
H763 H 0.69796 0.27618 0.17975 0.0
H764 H 0.75645 0.27474 0.1907 0.0
H765 H 0.71825 0.22108 0.19058 0.0
H766 H 0.78878 0.17045 0.17683 0.0
H767 H 0.82728 0.22383 0.17705 0.0
H768 H 0.81711 0.19123 0.15669 0.0
H769 H 0.72785 0.31036 0.11275 0.0
H770 H 0.78725 0.37598 0.11713 0.0
H771 H 0.82429 0.31673 0.16871 0.0
C772 C 0.6932 0.16537 0.15663 0.0
C773 C 0.66263 0.14678 0.14309 0.0
C774 C 0.65825 0.17299 0.12702 0.0
C775 C 0.68298 0.21689 0.12441 0.0
C776 C 0.71251 0.23429 0.13792 0.0
C777 C 0.71852 0.20938 0.15363 0.0
C778 C 0.75494 0.23587 0.16543 0.0
C779 C 0.73042 0.25298 0.18263 0.0
C780 C 0.79968 0.20341 0.16922 0.0
C781 C 0.76835 0.27911 0.15376 0.0
C782 C 0.74264 0.27737 0.13808 0.0
C783 C 0.74842 0.3122 0.12493 0.0
C784 C 0.78244 0.34938 0.12758 0.0
C785 C 0.81082 0.3515 0.14322 0.0
C786 C 0.80297 0.3163 0.15666 0.0
H787 H 0.16179 0.81478 0.67285 0.0
H788 H 0.17209 0.87445 0.61981 0.0
H789 H 0.24939 0.83121 0.61519 0.0
H790 H 0.29514 0.81624 0.68216 0.0
H791 H 0.29402 0.75877 0.69379 0.0
H792 H 0.24092 0.79794 0.69397 0.0
H793 H 0.18809 0.72693 0.68183 0.0
H794 H 0.24096 0.68762 0.68165 0.0
H795 H 0.20623 0.69669 0.6617 0.0
H796 H 0.32154 0.77856 0.61489 0.0
H797 H 0.38555 0.71631 0.61898 0.0
H798 H 0.33165 0.68822 0.672 0.0
C799 C 0.18079 0.81914 0.66041 0.0
C800 C 0.1606 0.84786 0.64669 0.0
C801 C 0.18634 0.85226 0.63048 0.0
C802 C 0.23062 0.82812 0.62772 0.0
C803 C 0.24916 0.79949 0.64127 0.0
C804 C 0.22537 0.79464 0.6573 0.0
C805 C 0.25257 0.7588 0.66909 0.0
C806 C 0.2718 0.78448 0.68574 0.0
C807 C 0.22002 0.71491 0.67384 0.0
C808 C 0.29433 0.74377 0.65695 0.0
C809 C 0.29171 0.76828 0.64106 0.0
C810 C 0.32444 0.75936 0.62734 0.0
C811 C 0.36063 0.72382 0.62977 0.0
C812 C 0.36386 0.69747 0.64581 0.0
C813 C 0.3306 0.70821 0.65967 0.0
H814 H 0.79448 0.14808 0.89746 0.0
H815 H 0.82858 0.13995 0.84151 0.0
H816 H 0.77882 0.21442 0.83641 0.0
H817 H 0.67017 0.19066 0.89308 0.0
H818 H 0.6742 0.23004 0.91212 0.0
H819 H 0.71081 0.17533 0.91098 0.0
H820 H 0.78897 0.227 0.91596 0.0
H821 H 0.75268 0.28196 0.91691 0.0
H822 H 0.8022 0.27715 0.90128 0.0
H823 H 0.72604 0.29128 0.83778 0.0
H824 H 0.6732 0.36171 0.84517 0.0
H825 H 0.67629 0.31941 0.90041 0.0
C826 C 0.79126 0.16144 0.88405 0.0
C827 C 0.8154 0.13782 0.86985 0.0
C828 C 0.81028 0.15712 0.85259 0.0
C829 C 0.78223 0.19952 0.84959 0.0
C830 C 0.75969 0.22224 0.86398 0.0
C831 C 0.76382 0.20365 0.88085 0.0
C832 C 0.73685 0.23507 0.89417 0.0
C833 C 0.69555 0.20604 0.9031 0.0
C834 C 0.7723 0.25656 0.90789 0.0
C835 C 0.71671 0.27445 0.88217 0.0
C836 C 0.73021 0.26646 0.86481 0.0
C837 C 0.71533 0.29781 0.85134 0.0
C838 C 0.68537 0.33783 0.8557 0.0
C839 C 0.67062 0.3464 0.87341 0.0
C840 C 0.68713 0.31433 0.88678 0.0
H841 H 0.15288 0.67305 0.4005 0.0
H842 H 0.11422 0.67677 0.34491 0.0
H843 H 0.1807 0.73542 0.33935 0.0
H844 H 0.18807 0.80241 0.4043 0.0
H845 H 0.23821 0.78939 0.41901 0.0
H846 H 0.18511 0.75047 0.41891 0.0
H847 H 0.24061 0.67533 0.41298 0.0
H848 H 0.29379 0.71405 0.41286 0.0
H849 H 0.28087 0.67551 0.39412 0.0
H850 H 0.25368 0.78985 0.33933 0.0
H851 H 0.32702 0.83956 0.34511 0.0
H852 H 0.3198 0.80017 0.40063 0.0
C853 C 0.15779 0.68699 0.38723 0.0
C854 C 0.12817 0.67043 0.37315 0.0
C855 C 0.13641 0.68887 0.35591 0.0
C856 C 0.17409 0.72223 0.35261 0.0
C857 C 0.20339 0.73683 0.36666 0.0
C858 C 0.1956 0.72014 0.38365 0.0
C859 C 0.23377 0.7403 0.39622 0.0
C860 C 0.20985 0.77257 0.41045 0.0
C861 C 0.26404 0.69882 0.40453 0.0
C862 C 0.26436 0.77048 0.38357 0.0
C863 C 0.24605 0.76804 0.36661 0.0
C864 C 0.26827 0.7923 0.35258 0.0
C865 C 0.31006 0.82035 0.35601 0.0
C866 C 0.32938 0.82386 0.37332 0.0
C867 C 0.30615 0.79825 0.38723 0.0
H868 H 0.19072 0.64806 0.87422 0.0
H869 H 0.19119 0.61875 0.93064 0.0
H870 H 0.24167 0.69159 0.93557 0.0
H871 H 0.31705 0.6936 0.8721 0.0
H872 H 0.30257 0.73968 0.85591 0.0
H873 H 0.2681 0.68362 0.85658 0.0
H874 H 0.18798 0.73368 0.85955 0.0
H875 H 0.22225 0.78986 0.85917 0.0
H876 H 0.18169 0.77705 0.87735 0.0
H877 H 0.28676 0.76955 0.93499 0.0
H878 H 0.33258 0.84463 0.92858 0.0
H879 H 0.3058 0.82419 0.87247 0.0
C880 C 0.20216 0.65649 0.88757 0.0
C881 C 0.18676 0.62759 0.90203 0.0
C882 C 0.20227 0.64021 0.91931 0.0
C883 C 0.23091 0.68166 0.92229 0.0
C884 C 0.24415 0.71009 0.90787 0.0
C885 C 0.23106 0.69785 0.89082 0.0
C886 C 0.25023 0.73527 0.87775 0.0
C887 C 0.28666 0.71163 0.86482 0.0
C888 C 0.20801 0.76045 0.86788 0.0
C889 C 0.27565 0.7705 0.8902 0.0
C890 C 0.27131 0.75524 0.90751 0.0
C891 C 0.29084 0.78177 0.92148 0.0
C892 C 0.31665 0.82458 0.91768 0.0
C893 C 0.32303 0.84042 0.9 0.0
C894 C 0.30163 0.81316 0.88612 0.0
H895 H 0.83489 0.17743 0.42279 0.0
H896 H 0.87495 0.17951 0.36723 0.0
H897 H 0.80727 0.23621 0.3612 0.0
H898 H 0.70752 0.17763 0.41656 0.0
H899 H 0.69337 0.2176 0.43481 0.0
H900 H 0.74754 0.18011 0.43545 0.0
H901 H 0.80107 0.25692 0.44048 0.0
H902 H 0.74697 0.29466 0.44008 0.0
H903 H 0.79692 0.3074 0.42525 0.0
H904 H 0.73224 0.28542 0.36035 0.0
H905 H 0.65683 0.33209 0.36502 0.0
H906 H 0.66426 0.30198 0.42133 0.0
C907 C 0.83004 0.1906 0.40942 0.0
C908 C 0.86032 0.17384 0.39548 0.0
C909 C 0.85232 0.19159 0.37814 0.0
C910 C 0.81391 0.22385 0.37456 0.0
C911 C 0.78395 0.23844 0.38845 0.0
C912 C 0.79177 0.22311 0.40558 0.0
C913 C 0.75289 0.2436 0.4179 0.0
C914 C 0.72361 0.20226 0.42669 0.0
C915 C 0.77584 0.27768 0.43174 0.0
C916 C 0.72161 0.27197 0.40489 0.0
C917 C 0.74041 0.26821 0.38801 0.0
C918 C 0.7174 0.28921 0.37353 0.0
C919 C 0.67427 0.31544 0.37636 0.0
C920 C 0.65444 0.3209 0.39358 0.0
C921 C 0.67856 0.29873 0.40804 0.0
H922 H 0.18939 0.84041 0.10363 0.0
H923 H 0.13561 0.83698 0.15768 0.0
H924 H 0.17696 0.7587 0.16243 0.0
H925 H 0.18105 0.70978 0.09529 0.0
H926 H 0.2373 0.70638 0.08292 0.0
H927 H 0.20209 0.76218 0.08303 0.0
H928 H 0.27756 0.81031 0.09414 0.0
H929 H 0.31311 0.7548 0.09386 0.0
H930 H 0.30861 0.79032 0.11386 0.0
H931 H 0.22164 0.6816 0.16183 0.0
H932 H 0.27729 0.61254 0.15712 0.0
H933 H 0.30752 0.66409 0.10393 0.0
C934 C 0.18649 0.82317 0.11646 0.0
C935 C 0.15905 0.84506 0.13025 0.0
C936 C 0.15642 0.82137 0.14688 0.0
C937 C 0.17951 0.77654 0.14972 0.0
C938 C 0.2056 0.75572 0.13588 0.0
C939 C 0.21005 0.7783 0.11965 0.0
C940 C 0.24267 0.74838 0.10745 0.0
C941 C 0.21406 0.73063 0.09121 0.0
C942 C 0.28819 0.7777 0.10202 0.0
C943 C 0.25599 0.70593 0.1195 0.0
C944 C 0.23333 0.7109 0.13571 0.0
C945 C 0.23982 0.67725 0.14923 0.0
C946 C 0.2716 0.63807 0.14638 0.0
C947 C 0.29711 0.63288 0.13018 0.0
C948 C 0.28831 0.6668 0.1164 0.0
H949 H 0.64824 0.18776 0.64737 0.0
H950 H 0.60972 0.20035 0.59192 0.0
H951 H 0.68095 0.25334 0.58699 0.0
H952 H 0.69387 0.31386 0.6525 0.0
H953 H 0.7427 0.29566 0.66707 0.0
H954 H 0.68658 0.26125 0.66658 0.0
H955 H 0.73595 0.1824 0.65994 0.0
H956 H 0.79213 0.21667 0.66011 0.0
H957 H 0.77604 0.18065 0.64104 0.0
H958 H 0.75867 0.29974 0.58731 0.0
H959 H 0.835 0.34398 0.59349 0.0
H960 H 0.8243 0.30288 0.64879 0.0
C961 C 0.65418 0.20259 0.6343 0.0
C962 C 0.62324 0.1899 0.62005 0.0
C963 C 0.63283 0.20944 0.60306 0.0
C964 C 0.67331 0.23954 0.60009 0.0
C965 C 0.70393 0.25001 0.61423 0.0
C966 C 0.69468 0.23278 0.63106 0.0
C967 C 0.73438 0.24887 0.64379 0.0
C968 C 0.71311 0.28188 0.65835 0.0
C969 C 0.7612 0.2045 0.65168 0.0
C970 C 0.76739 0.27741 0.63142 0.0
C971 C 0.7491 0.27736 0.61444 0.0
C972 C 0.77324 0.30044 0.60059 0.0
C973 C 0.81679 0.32531 0.60424 0.0
C974 C 0.83583 0.32712 0.62164 0.0
C975 C 0.81087 0.30225 0.63535 0.0
H976 H 0.49961 0.63859 0.16186 0.0
H977 H 0.56257 0.60353 0.11087 0.0
H978 H 0.6168 0.67565 0.11337 0.0
H979 H 0.48252 0.75478 0.15281 0.0
H980 H 0.49348 0.77883 0.17462 0.0
H981 H 0.4733 0.71698 0.17202 0.0
H982 H 0.54871 0.6861 0.18952 0.0
H983 H 0.56915 0.74834 0.19223 0.0
H984 H 0.6093 0.70336 0.18254 0.0
H985 H 0.65285 0.75824 0.11894 0.0
H986 H 0.65743 0.84718 0.1242 0.0
H987 H 0.56119 0.83216 0.16929 0.0
C988 C 0.52653 0.64457 0.1516 0.0
C989 C 0.52773 0.61486 0.13634 0.0
C990 C 0.56174 0.62535 0.1228 0.0
C991 C 0.59281 0.66609 0.1242 0.0
C992 C 0.58892 0.69609 0.13909 0.0
C993 C 0.55625 0.68582 0.15252 0.0
C994 C 0.55052 0.72861 0.16506 0.0
C995 C 0.49682 0.74579 0.16616 0.0
C996 C 0.57064 0.71583 0.18343 0.0
C997 C 0.58252 0.76589 0.15598 0.0
C998 C 0.60629 0.74573 0.14155 0.0
C999 C 0.63476 0.77415 0.13029 0.0
C1000 C 0.63686 0.82467 0.13331 0.0
C1001 C 0.60899 0.84643 0.14699 0.0
C1002 C 0.58349 0.8164 0.15894 0.0
H1003 H 0.85349 0.55695 0.61721 0.0
H1004 H 0.8992 0.54613 0.67179 0.0
H1005 H 0.8259 0.59081 0.68111 0.0
H1006 H 0.78576 0.68622 0.62468 0.0
H1007 H 0.7407 0.66861 0.60853 0.0
H1008 H 0.80377 0.65079 0.60567 0.0
H1009 H 0.77633 0.56068 0.60291 0.0
H1010 H 0.71372 0.5776 0.60635 0.0
H1011 H 0.74198 0.53316 0.62066 0.0
H1012 H 0.73767 0.59682 0.68448 0.0
H1013 H 0.64942 0.59144 0.68168 0.0
H1014 H 0.66115 0.62629 0.62589 0.0
C1015 C 0.84964 0.56688 0.63098 0.0
C1016 C 0.88101 0.54655 0.64388 0.0
C1017 C 0.8747 0.55984 0.66178 0.0
C1018 C 0.83331 0.58572 0.66719 0.0
C1019 C 0.79993 0.60042 0.6544 0.0
C1020 C 0.80896 0.59435 0.63654 0.0
C1021 C 0.76446 0.60897 0.62576 0.0
C1022 C 0.77426 0.65649 0.61556 0.0
C1023 C 0.74821 0.56762 0.61321 0.0
C1024 C 0.7275 0.61735 0.6404 0.0
C1025 C 0.74884 0.61225 0.65681 0.0
C1026 C 0.72072 0.60487 0.6719 0.0
C1027 C 0.66987 0.60226 0.67017 0.0
C1028 C 0.64684 0.60955 0.65361 0.0
C1029 C 0.67658 0.61962 0.63875 0.0
H1030 H 0.9397 0.64552 0.12277 0.0
H1031 H 0.85293 0.65012 0.17064 0.0
H1032 H 0.85329 0.74092 0.16942 0.0
H1033 H 0.01393 0.74302 0.13067 0.0
H1034 H 0.01494 0.76435 0.10817 0.0
H1035 H 0.0041 0.70091 0.1127 0.0
H1036 H 0.92299 0.70547 0.09498 0.0
H1037 H 0.93338 0.76943 0.09062 0.0
H1038 H 0.87728 0.75008 0.10097 0.0
H1039 H 0.87454 0.83092 0.16476 0.0
H1040 H 0.91482 0.9093 0.15748 0.0
H1041 H 0.97555 0.84374 0.11014 0.0
C1042 C 0.91938 0.6654 0.13273 0.0
C1043 C 0.89621 0.64086 0.14678 0.0
C1044 C 0.87156 0.66836 0.15989 0.0
C1045 C 0.87097 0.71981 0.15914 0.0
C1046 C 0.89393 0.7428 0.1449 0.0
C1047 C 0.91708 0.71617 0.13183 0.0
C1048 C 0.94137 0.74876 0.11838 0.0
C1049 C 0.99683 0.73867 0.11745 0.0
C1050 C 0.91729 0.74309 0.10016 0.0
C1051 C 0.93041 0.79824 0.12631 0.0
C1052 C 0.90281 0.79435 0.14157 0.0
C1053 C 0.8948 0.83459 0.15255 0.0
C1054 C 0.9176 0.87908 0.14827 0.0
C1055 C 0.94766 0.8829 0.13308 0.0
C1056 C 0.95155 0.84263 0.12152 0.0
H1057 H 0.6535 0.98862 0.61106 0.0
H1058 H 0.58253 0.93766 0.65874 0.0
H1059 H 0.6589 0.89564 0.66766 0.0
H1060 H 0.74245 0.88436 0.60452 0.0
H1061 H 0.78955 0.92656 0.59789 0.0
H1062 H 0.72638 0.93981 0.59303 0.0
H1063 H 0.73508 0.02334 0.60893 0.0
H1064 H 0.79768 0.01005 0.6142 0.0
H1065 H 0.75512 0.02481 0.6316 0.0
H1066 H 0.74732 0.86967 0.67327 0.0
H1067 H 0.83795 0.86314 0.67488 0.0
H1068 H 0.84934 0.94282 0.62562 0.0
C1069 C 0.65319 0.96635 0.62288 0.0
C1070 C 0.61197 0.96534 0.63402 0.0
C1071 C 0.61365 0.93801 0.64989 0.0
C1072 C 0.65688 0.91417 0.65505 0.0
C1073 C 0.69803 0.91855 0.64428 0.0
C1074 C 0.6963 0.94388 0.62845 0.0
C1075 C 0.74668 0.95082 0.62071 0.0
C1076 C 0.75154 0.92375 0.60299 0.0
C1077 C 0.75934 0.00547 0.61876 0.0
C1078 C 0.77719 0.92679 0.63483 0.0
C1079 C 0.74879 0.90717 0.64813 0.0
C1080 C 0.76982 0.88451 0.66282 0.0
C1081 C 0.82116 0.88145 0.66375 0.0
C1082 C 0.85048 0.90208 0.6503 0.0
C1083 C 0.82791 0.92539 0.63585 0.0
H1084 H 0.61041 0.6589 0.86371 0.0
H1085 H 0.59555 0.63487 0.92016 0.0
H1086 H 0.60368 0.72203 0.92526 0.0
H1087 H 0.67188 0.78238 0.86308 0.0
H1088 H 0.63003 0.80504 0.84662 0.0
H1089 H 0.64703 0.74126 0.8468 0.0
H1090 H 0.55566 0.71649 0.84843 0.0
H1091 H 0.53867 0.77984 0.84793 0.0
H1092 H 0.51785 0.74146 0.86576 0.0
H1093 H 0.60035 0.81109 0.92482 0.0
H1094 H 0.55708 0.88819 0.92006 0.0
H1095 H 0.54555 0.85531 0.86411 0.0
C1096 C 0.60864 0.67133 0.8772 0.0
C1097 C 0.60374 0.63829 0.89149 0.0
C1098 C 0.60266 0.65767 0.90887 0.0
C1099 C 0.60683 0.70792 0.91195 0.0
C1100 C 0.60935 0.73931 0.89753 0.0
C1101 C 0.60815 0.72178 0.88044 0.0
C1102 C 0.59525 0.76225 0.86751 0.0
C1103 C 0.63865 0.77339 0.85528 0.0
C1104 C 0.54911 0.74924 0.8568 0.0
C1105 C 0.58609 0.80429 0.8802 0.0
C1106 C 0.59836 0.791 0.89725 0.0
C1107 C 0.59058 0.82198 0.91154 0.0
C1108 C 0.56578 0.86589 0.90866 0.0
C1109 C 0.54663 0.87728 0.89175 0.0
C1110 C 0.55976 0.84764 0.87715 0.0
H1111 H 0.63348 0.54986 0.41278 0.0
H1112 H 0.58687 0.53952 0.35813 0.0
H1113 H 0.66279 0.57827 0.34866 0.0
H1114 H 0.7091 0.67434 0.40403 0.0
H1115 H 0.75303 0.65528 0.42038 0.0
H1116 H 0.689 0.64183 0.42341 0.0
H1117 H 0.71103 0.55049 0.42716 0.0
H1118 H 0.77457 0.56293 0.42347 0.0
H1119 H 0.74336 0.51919 0.4097 0.0
H1120 H 0.75123 0.57428 0.34549 0.0
H1121 H 0.83849 0.56319 0.34841 0.0
H1122 H 0.82957 0.60869 0.40334 0.0
C1123 C 0.63782 0.55877 0.39895 0.0
C1124 C 0.60489 0.54008 0.3862 0.0
C1125 C 0.61188 0.55233 0.36819 0.0
C1126 C 0.65505 0.57457 0.36261 0.0
C1127 C 0.68954 0.5872 0.37529 0.0
C1128 C 0.68018 0.58313 0.39318 0.0
C1129 C 0.72562 0.59582 0.40379 0.0
C1130 C 0.71878 0.64474 0.41347 0.0
C1131 C 0.73941 0.55463 0.41678 0.0
C1132 C 0.76302 0.60051 0.38906 0.0
C1133 C 0.74131 0.59494 0.37276 0.0
C1134 C 0.76877 0.58329 0.35788 0.0
C1135 C 0.81933 0.57762 0.35967 0.0
C1136 C 0.84333 0.58686 0.37594 0.0
C1137 C 0.81408 0.60042 0.39064 0.0
H1138 H 0.88939 0.81426 0.86108 0.0
H1139 H 0.89483 0.84976 0.91696 0.0
H1140 H 0.89336 0.76371 0.92422 0.0
H1141 H 0.83359 0.68838 0.8631 0.0
H1142 H 0.87778 0.66392 0.84778 0.0
H1143 H 0.85859 0.72689 0.84604 0.0
H1144 H 0.94882 0.75541 0.8481 0.0
H1145 H 0.96801 0.69271 0.84945 0.0
H1146 H 0.98573 0.73536 0.86644 0.0
H1147 H 0.90254 0.67601 0.92636 0.0
H1148 H 0.948 0.59913 0.924 0.0
H1149 H 0.95975 0.6193 0.86727 0.0
C1150 C 0.88978 0.80437 0.87486 0.0
C1151 C 0.88896 0.84023 0.88837 0.0
C1152 C 0.89065 0.82436 0.9062 0.0
C1153 C 0.89051 0.77483 0.91055 0.0
C1154 C 0.89167 0.7407 0.89699 0.0
C1155 C 0.89348 0.75476 0.87948 0.0
C1156 C 0.90899 0.7122 0.86784 0.0
C1157 C 0.86723 0.69695 0.85546 0.0
C1158 C 0.95566 0.72466 0.85736 0.0
C1159 C 0.9184 0.67324 0.88174 0.0
C1160 C 0.90492 0.68976 0.89828 0.0
C1161 C 0.91309 0.66242 0.91348 0.0
C1162 C 0.93908 0.61865 0.91198 0.0
C1163 C 0.95828 0.60354 0.89548 0.0
C1164 C 0.94531 0.62974 0.88004 0.0
H1165 H 0.63228 0.91811 0.40666 0.0
H1166 H 0.63949 0.84585 0.35582 0.0
H1167 H 0.73011 0.8482 0.35714 0.0
H1168 H 0.72177 -0.00055 0.39996 0.0
H1169 H 0.74633 0.99853 0.42204 0.0
H1170 H 0.68355 0.98268 0.41839 0.0
H1171 H 0.69755 0.89926 0.43384 0.0
H1172 H 0.76079 0.91487 0.4375 0.0
H1173 H 0.74535 0.85912 0.42609 0.0
H1174 H 0.81789 0.87192 0.36178 0.0
H1175 H 0.89386 0.91657 0.36875 0.0
H1176 H 0.82882 0.96818 0.41758 0.0
C1177 C 0.6529 0.9009 0.39615 0.0
C1178 C 0.6292 0.88145 0.38121 0.0
C1179 C 0.65728 0.86107 0.36735 0.0
C1180 C 0.7086 0.86178 0.3681 0.0
C1181 C 0.73096 0.88213 0.38295 0.0
C1182 C 0.70383 0.90083 0.39682 0.0
C1183 C 0.73588 0.92576 0.41034 0.0
C1184 C 0.72101 0.97977 0.4128 0.0
C1185 C 0.73483 0.89808 0.42799 0.0
C1186 C 0.78512 0.92087 0.40144 0.0
C1187 C 0.78182 0.89477 0.38582 0.0
C1188 C 0.82122 0.89126 0.37419 0.0
C1189 C 0.86424 0.91682 0.37825 0.0
C1190 C 0.86733 0.94563 0.39376 0.0
C1191 C 0.82806 0.94552 0.40585 0.0
H1192 H 0.4679 0.34159 0.85703 0.0
H1193 H 0.41602 0.39329 0.90771 0.0
H1194 H 0.36547 0.31881 0.91081 0.0
H1195 H 0.35779 0.26158 0.84397 0.0
H1196 H 0.39888 0.21555 0.83552 0.0
H1197 H 0.41486 0.27937 0.83395 0.0
H1198 H 0.49647 0.26148 0.85009 0.0
H1199 H 0.48067 0.19817 0.85189 0.0
H1200 H 0.49508 0.23266 0.8715 0.0
H1201 H 0.33457 0.23294 0.91119 0.0
H1202 H 0.33401 0.14257 0.91068 0.0
H1203 H 0.41793 0.14406 0.86216 0.0
C1204 C 0.44354 0.33851 0.86826 0.0
C1205 C 0.44449 0.3736 0.88189 0.0
C1206 C 0.41464 0.36722 0.89695 0.0
C1207 C 0.3858 0.32508 0.89876 0.0
C1208 C 0.38803 0.28947 0.88554 0.0
C1209 C 0.41641 0.29582 0.87056 0.0
C1210 C 0.42245 0.24842 0.86044 0.0
C1211 C 0.39695 0.25142 0.8424 0.0
C1212 C 0.47685 0.23439 0.85839 0.0
C1213 C 0.39588 0.21375 0.87263 0.0
C1214 C 0.37425 0.23837 0.88656 0.0
C1215 C 0.35091 0.21345 0.90022 0.0
C1216 C 0.35124 0.16216 0.89994 0.0
C1217 C 0.37645 0.13648 0.88648 0.0
C1218 C 0.39753 0.1627 0.8724 0.0
H1219 H 0.14637 0.48273 0.41436 0.0
H1220 H 0.10619 0.39827 0.36818 0.0
H1221 H 0.17948 0.34614 0.37249 0.0
H1222 H 0.26191 0.49555 0.40261 0.0
H1223 H 0.28807 0.49439 0.42446 0.0
H1224 H 0.22589 0.51337 0.42152 0.0
H1225 H 0.1972 0.44689 0.44359 0.0
H1226 H 0.25976 0.42763 0.44662 0.0
H1227 H 0.21406 0.38391 0.43998 0.0
H1228 H 0.26302 0.31249 0.37897 0.0
H1229 H 0.35251 0.31002 0.38327 0.0
H1230 H 0.34124 0.42477 0.42248 0.0
C1231 C 0.15159 0.45178 0.40563 0.0
C1232 C 0.12 0.44371 0.39117 0.0
C1233 C 0.12951 0.40444 0.37951 0.0
C1234 C 0.17087 0.37454 0.38196 0.0
C1235 C 0.20248 0.38489 0.39598 0.0
C1236 C 0.19334 0.423 0.40753 0.0
C1237 C 0.2373 0.43402 0.419 0.0
C1238 C 0.25427 0.48744 0.41673 0.0
C1239 C 0.22642 0.4224 0.43845 0.0
C1240 C 0.27382 0.39825 0.41139 0.0
C1241 C 0.25242 0.36856 0.39875 0.0
C1242 C 0.27989 0.33525 0.38894 0.0
C1243 C 0.33068 0.33424 0.39142 0.0
C1244 C 0.35357 0.3677 0.40304 0.0
C1245 C 0.32456 0.39829 0.41374 0.0
H1246 H 0.00451 0.1291 0.91353 0.0
H1247 H 0.07625 0.08687 0.86477 0.0
H1248 H 0.12989 0.1592 0.86709 0.0
H1249 H 0.98718 0.24171 0.90165 0.0
H1250 H 0.99437 0.27044 0.92292 0.0
H1251 H 0.97593 0.20778 0.92165 0.0
H1252 H 0.04926 0.18202 0.94122 0.0
H1253 H 0.06779 0.24515 0.94277 0.0
H1254 H 0.11042 0.19959 0.93502 0.0
H1255 H 0.16273 0.24406 0.87119 0.0
H1256 H 0.166 0.33385 0.87498 0.0
H1257 H 0.06206 0.32363 0.918 0.0
C1258 C 0.03315 0.13356 0.90379 0.0
C1259 C 0.03648 0.1021 0.88905 0.0
C1260 C 0.07342 0.1102 0.87629 0.0
C1261 C 0.10415 0.15118 0.87755 0.0
C1262 C 0.09723 0.18367 0.89158 0.0
C1263 C 0.06254 0.17506 0.90452 0.0
C1264 C 0.05384 0.21988 0.91583 0.0
C1265 C -0.00032 0.23586 0.91545 0.0
C1266 C 0.0714 0.21112 0.93483 0.0
C1267 C 0.0863 0.25613 0.90646 0.0
C1268 C 0.11288 0.23416 0.89308 0.0
C1269 C 0.14249 0.2614 0.88177 0.0
C1270 C 0.14363 0.31238 0.88387 0.0
C1271 C 0.11375 0.33562 0.89664 0.0
C1272 C 0.08607 0.30687 0.90838 0.0
H1273 H 0.34771 0.06186 0.3667 0.0
H1274 H 0.39824 0.0366 0.42015 0.0
H1275 H 0.32498 0.07679 0.43177 0.0
H1276 H 0.27537 0.18624 0.38005 0.0
H1277 H 0.22981 0.17156 0.36371 0.0
H1278 H 0.29337 0.15803 0.35953 0.0
H1279 H 0.27003 0.06808 0.35326 0.0
H1280 H 0.20706 0.08059 0.35795 0.0
H1281 H 0.2386 0.03337 0.37005 0.0
H1282 H 0.237 0.07838 0.43638 0.0
H1283 H 0.14852 0.06875 0.43422 0.0
H1284 H 0.1538 0.11819 0.37981 0.0
C1285 C 0.34494 0.06806 0.38078 0.0
C1286 C 0.37791 0.0451 0.3925 0.0
C1287 C 0.37296 0.05319 0.4109 0.0
C1288 C 0.33139 0.07617 0.41767 0.0
C1289 C 0.29637 0.09321 0.40587 0.0
C1290 C 0.30399 0.09254 0.38777 0.0
C1291 C 0.25791 0.10811 0.37809 0.0
C1292 C 0.26451 0.15902 0.36986 0.0
C1293 C 0.24255 0.07025 0.36404 0.0
C1294 C 0.22191 0.10999 0.39333 0.0
C1295 C 0.24496 0.1016 0.40926 0.0
C1296 C 0.21855 0.08859 0.42429 0.0
C1297 C 0.16774 0.08339 0.42296 0.0
C1298 C 0.14316 0.09314 0.40689 0.0
C1299 C 0.17088 0.10931 0.39224 0.0
H1300 H 0.48012 0.13648 0.11499 0.0
H1301 H 0.40873 0.10042 0.16432 0.0
H1302 H 0.35682 0.17462 0.16131 0.0
H1303 H 0.49811 0.25156 0.12509 0.0
H1304 H 0.49147 0.27638 0.10317 0.0
H1305 H 0.51004 0.21405 0.10596 0.0
H1306 H 0.43732 0.18508 0.08667 0.0
H1307 H 0.41856 0.24781 0.0837 0.0
H1308 H 0.37594 0.20359 0.09229 0.0
H1309 H 0.32194 0.25848 0.15488 0.0
H1310 H 0.31897 0.34746 0.14937 0.0
H1311 H 0.42349 0.33077 0.10681 0.0
C1312 C 0.45153 0.14234 0.12465 0.0
C1313 C 0.44697 0.11163 0.13952 0.0
C1314 C 0.41175 0.1228 0.15258 0.0
C1315 C 0.38206 0.1647 0.15089 0.0
C1316 C 0.38877 0.19512 0.13623 0.0
C1317 C 0.42318 0.18443 0.12342 0.0
C1318 C 0.43193 0.22722 0.11118 0.0
C1319 C 0.48603 0.24323 0.1114 0.0
C1320 C 0.4149 0.2152 0.09234 0.0
C1321 C 0.39913 0.26496 0.11964 0.0
C1322 C 0.37269 0.24519 0.13351 0.0
C1323 C 0.34235 0.27407 0.14401 0.0
C1324 C 0.34115 0.32458 0.14086 0.0
C1325 C 0.37186 0.34586 0.1279 0.0
C1326 C 0.39925 0.3154 0.11664 0.0
H1327 H 0.34221 0.50109 0.61914 0.0
H1328 H 0.38614 0.42621 0.66695 0.0
H1329 H 0.31186 0.37425 0.66501 0.0
H1330 H 0.22693 0.51718 0.63242 0.0
H1331 H 0.19917 0.51267 0.61089 0.0
H1332 H 0.2615 0.53204 0.61287 0.0
H1333 H 0.28884 0.46222 0.59182 0.0
H1334 H 0.22617 0.44257 0.58978 0.0
H1335 H 0.27252 0.3999 0.59683 0.0
H1336 H 0.22778 0.33685 0.65917 0.0
H1337 H 0.13886 0.32894 0.65385 0.0
H1338 H 0.14769 0.44196 0.61389 0.0
C1339 C 0.33751 0.47215 0.62875 0.0
C1340 C 0.37052 0.46645 0.64288 0.0
C1341 C 0.36168 0.43023 0.6558 0.0
C1342 C 0.31977 0.40052 0.65472 0.0
C1343 C 0.28692 0.40838 0.64086 0.0
C1344 C 0.29526 0.44396 0.62825 0.0
C1345 C 0.2506 0.45324 0.61701 0.0
C1346 C 0.23356 0.50691 0.61841 0.0
C1347 C 0.26012 0.43859 0.59772 0.0
C1348 C 0.21492 0.41881 0.62568 0.0
C1349 C 0.23692 0.39149 0.63883 0.0
C1350 C 0.21033 0.35827 0.64894 0.0
C1351 C 0.15978 0.35442 0.64596 0.0
C1352 C 0.13607 0.38548 0.63366 0.0
C1353 C 0.16449 0.41691 0.6231 0.0
H1354 H 0.05621 0.34986 0.16389 0.0
H1355 H 0.04829 0.40075 0.10972 0.0
H1356 H 0.09488 0.32935 0.09998 0.0
H1357 H 0.18725 0.28422 0.1563 0.0
H1358 H 0.16948 0.23735 0.17173 0.0
H1359 H 0.15094 0.29991 0.17536 0.0
H1360 H 0.06092 0.27149 0.17726 0.0
H1361 H 0.07873 0.20945 0.17316 0.0
H1362 H 0.03452 0.23849 0.15896 0.0
H1363 H 0.10139 0.24201 0.09543 0.0
H1364 H 0.09451 0.1538 0.09696 0.0
H1365 H 0.12735 0.15905 0.15304 0.0
C1366 C 0.06708 0.34748 0.15018 0.0
C1367 C 0.04744 0.38008 0.13754 0.0
C1368 C 0.06199 0.37571 0.11965 0.0
C1369 C 0.08882 0.33529 0.11394 0.0
C1370 C 0.1031 0.3008 0.12639 0.0
C1371 C 0.09561 0.3078 0.1443 0.0
C1372 C 0.11024 0.26232 0.15455 0.0
C1373 C 0.15729 0.2715 0.16511 0.0
C1374 C 0.06859 0.24443 0.16667 0.0
C1375 C 0.11962 0.22697 0.13945 0.0
C1376 C 0.11547 0.25011 0.12333 0.0
C1377 C 0.1087 0.22366 0.10781 0.0
C1378 C 0.10527 0.17272 0.10881 0.0
C1379 C 0.11126 0.14784 0.12508 0.0
C1380 C 0.12138 0.17589 0.14037 0.0
H1381 H 0.32182 0.13151 0.6474 0.0
H1382 H 0.33005 0.07684 0.5936 0.0
H1383 H 0.2422 0.08569 0.59078 0.0
H1384 H 0.2381 0.04389 0.65642 0.0
H1385 H 0.2051 0.07769 0.67308 0.0
H1386 H 0.26814 0.09132 0.66888 0.0
H1387 H 0.24459 0.1819 0.66322 0.0
H1388 H 0.181 0.16785 0.667 0.0
H1389 H 0.1996 0.19649 0.64665 0.0
H1390 H 0.15372 0.08796 0.59429 0.0
H1391 H 0.07894 0.0497 0.6052 0.0
H1392 H 0.12679 0.07342 0.65916 0.0
C1393 C 0.3058 0.12112 0.63497 0.0
C1394 C 0.33472 0.10524 0.62052 0.0
C1395 C 0.31062 0.09281 0.60456 0.0
C1396 C 0.25991 0.09732 0.60284 0.0
C1397 C 0.23265 0.11143 0.61751 0.0
C1398 C 0.25471 0.12081 0.63355 0.0
C1399 C 0.21776 0.11847 0.64851 0.0
C1400 C 0.23317 0.08056 0.66252 0.0
C1401 C 0.2103 0.16921 0.65683 0.0
C1402 C 0.17244 0.10258 0.63845 0.0
C1403 C 0.18111 0.10318 0.62046 0.0
C1404 C 0.14649 0.08717 0.60834 0.0
C1405 C 0.10394 0.06534 0.61473 0.0
C1406 C 0.09774 0.05701 0.63307 0.0
C1407 C 0.13054 0.07924 0.64509 0.0
H1408 H 0.546 0.01695 0.96524 0.0
H1409 H 0.40264 0.95024 0.96998 0.0
H1410 H 0.41123 0.94973 1.00244 0.0
H1411 H 0.60376 0.95181 0.99999 0.0
H1412 H 0.6392 0.00306 1.00771 0.0
H1413 H 0.62139 -0.00048 0.98486 0.0
H1414 H 0.58009 0.08465 0.98717 0.0
H1415 H 0.59809 0.08863 1.01 0.0
H1416 H 0.53466 0.09533 1.00401 0.0
H1417 H 0.43816 0.95066 0.03418 0.0
H1418 H 0.47797 0.9604 0.06321 0.0
H1419 H 0.60145 0.03134 0.03807 0.0
C1420 C 0.51625 0.00253 0.97311 0.0
C1421 C 0.47367 0.98349 0.96507 0.0
C1422 C 0.43551 0.96516 0.97584 0.0
C1423 C 0.44013 0.96455 0.99429 0.0
C1424 C 0.48287 0.98293 1.00177 0.0
C1425 C 0.51999 0.00219 0.99154 0.0
C1426 C 0.56202 0.01993 1.0029 0.0
C1427 C 0.60938 0.99189 0.9986 0.0
C1428 C 0.56911 0.07543 1.0009 0.0
C1429 C 0.54302 0.00703 0.0211 0.0
C1430 C 0.49741 0.9855 0.02013 0.0
C1431 C 0.4733 0.96861 0.03514 0.0
C1432 C 0.49597 0.97477 0.05159 0.0
C1433 C 0.54178 0.99856 0.05297 0.0
C1434 C 0.56593 0.01396 0.03745 0.0
H1435 H 0.47316 0.60535 0.54074 0.0
H1436 H 0.53461 0.47999 0.56788 0.0
H1437 H 0.54748 0.43853 0.53922 0.0
H1438 H 0.41057 0.53842 0.50637 0.0
H1439 H 0.42409 0.58274 0.48946 0.0
H1440 H 0.41859 0.60187 0.51214 0.0
H1441 H 0.50513 0.64014 0.51072 0.0
H1442 H 0.51088 0.62113 0.48804 0.0
H1443 H 0.55628 0.60284 0.50397 0.0
H1444 H 0.55424 0.41101 0.50743 0.0
H1445 H 0.55581 0.40021 0.47504 0.0
H1446 H 0.49133 0.54429 0.46858 0.0
C1447 C 0.48909 0.56905 0.54063 0.0
C1448 C 0.50148 0.54521 0.55656 0.0
C1449 C 0.52306 0.49812 0.55588 0.0
C1450 C 0.53095 0.4745 0.53965 0.0
C1451 C 0.51755 0.49866 0.52418 0.0
C1452 C 0.49721 0.54497 0.52453 0.0
C1453 C 0.4868 0.56324 0.50601 0.0
C1454 C 0.43174 0.57207 0.50335 0.0
C1455 C 0.51656 0.60958 0.50195 0.0
C1456 C 0.50458 0.52006 0.49519 0.0
C1457 C 0.52211 0.48314 0.50591 0.0
C1458 C 0.5406 0.4397 0.49891 0.0
C1459 C 0.54133 0.43389 0.48048 0.0
C1460 C 0.52375 0.47135 0.46921 0.0
C1461 C 0.50505 0.51489 0.47677 0.0
H1462 H 0.94342 0.43935 0.03967 0.0
H1463 H 0.98594 0.5719 0.06712 0.0
H1464 H 0.03057 0.59951 0.04067 0.0
H1465 H 0.05625 0.42301 0.01476 0.0
H1466 H 0.02537 0.40179 0.99519 0.0
H1467 H 0.99882 0.39114 0.01662 0.0
H1468 H 0.91897 0.43413 1.00666 0.0
H1469 H 0.9452 0.44479 0.9852 0.0
H1470 H 0.92183 0.49539 0.99795 0.0
H1471 H 0.06723 0.61461 1.01082 0.0
H1472 H 0.09277 0.61667 0.97959 0.0
H1473 H 0.02671 0.47424 0.97127 0.0
C1474 C 0.96242 0.47405 0.04014 0.0
C1475 C 0.96226 0.50288 0.05565 0.0
C1476 C 0.98705 0.54828 0.05568 0.0
C1477 C 0.01214 0.56452 0.04063 0.0
C1478 C 0.01203 0.53497 0.02562 0.0
C1479 C 0.98781 0.49069 0.02524 0.0
C1480 C 0.99217 0.46663 1.00726 0.0
C1481 C 0.0198 0.41774 1.00854 0.0
C1482 C 0.94153 0.45986 0.99877 0.0
C1483 C 0.02207 0.50464 0.9975 0.0
C1484 C 0.03322 0.54368 1.00837 0.0
C1485 C 0.05901 0.5841 1.00222 0.0
C1486 C 0.07333 0.58492 0.98444 0.0
C1487 C 0.06195 0.54555 0.97298 0.0
C1488 C 0.03646 0.50465 0.97973 0.0
H1489 H 0.98679 0.0497 0.48182 0.0
H1490 H 0.93096 0.91574 0.45871 0.0
H1491 H 0.92891 0.87739 0.48807 0.0
H1492 H 0.06701 0.99075 0.51187 0.0
H1493 H 0.05837 0.03362 0.52969 0.0
H1494 H 0.0504 0.05325 0.50719 0.0
H1495 H 0.96296 0.08344 0.51462 0.0
H1496 H 0.97066 0.06376 0.53716 0.0
H1497 H 0.91974 0.04165 0.52435 0.0
H1498 H 0.93766 0.85101 0.51896 0.0
H1499 H 0.95943 0.83679 0.55006 0.0
H1500 H 0.01284 0.98579 0.55409 0.0
C1501 C 0.97325 0.01267 0.48309 0.0
C1502 C 0.95864 0.98574 0.46802 0.0
C1503 C 0.94231 0.93698 0.47007 0.0
C1504 C 0.94077 0.91493 0.48671 0.0
C1505 C 0.95609 0.9419 0.50127 0.0
C1506 C 0.97224 0.9896 0.49972 0.0
C1507 C 0.9903 0.00855 0.51745 0.0
C1508 C 0.04475 0.02235 0.51649 0.0
C1509 C 0.95904 0.05193 0.52377 0.0
C1510 C 0.98233 0.96381 0.52903 0.0
C1511 C 0.96202 0.92611 0.51937 0.0
C1512 C 0.95312 0.88037 0.52674 0.0
C1513 C 0.96578 0.87261 0.54442 0.0
C1514 C 0.98715 0.91028 0.55465 0.0
C1515 C 0.99517 0.95668 0.54683 0.0
H1516 H 0.53614 0.42365 0.98827 0.0
H1517 H 0.51942 0.55991 0.95959 0.0
H1518 H 0.48107 0.59757 0.98571 0.0
H1519 H 0.4224 0.43128 0.01315 0.0
H1520 H 0.44848 0.40618 0.03303 0.0
H1521 H 0.47289 0.38894 1.01181 0.0
H1522 H 0.55913 0.41681 0.02167 0.0
H1523 H 0.53501 0.43404 0.04292 0.0
H1524 H 0.56762 0.47822 0.02978 0.0
H1525 H 0.44707 0.6217 0.01523 0.0
H1526 H 0.42042 0.63088 0.04616 0.0
H1527 H 0.45901 0.47937 0.05625 0.0
C1528 C 0.52408 0.46133 0.98747 0.0
C1529 C 0.52953 0.48832 0.97163 0.0
C1530 C 0.51392 0.53773 0.97123 0.0
C1531 C 0.49252 0.55969 0.98612 0.0
C1532 C 0.4871 0.53192 1.00141 0.0
C1533 C 0.50245 0.48382 1.00224 0.0
C1534 C 0.49334 0.46257 0.02048 0.0
C1535 C 0.45712 0.4197 0.01956 0.0
C1536 C 0.54166 0.44701 0.02923 0.0
C1537 C 0.47088 0.50638 0.02981 0.0
C1538 C 0.4676 0.54595 0.01853 0.0
C1539 C 0.44925 0.5909 0.02416 0.0
C1540 C 0.43421 0.59574 0.04179 0.0
C1541 C 0.4374 0.55588 0.0537 0.0
C1542 C 0.45567 0.51047 0.04749 0.0
H1543 H 0.95504 0.50616 0.46991 0.0
H1544 H 0.06513 0.61484 0.48216 0.0
H1545 H 0.06386 0.58923 0.51347 0.0
H1546 H 0.88544 0.52213 0.50933 0.0
H1547 H 0.87028 0.45835 0.51174 0.0
H1548 H 0.88176 0.48327 0.49013 0.0
H1549 H 0.94887 0.41791 0.48481 0.0
H1550 H 0.93752 0.39272 0.5064 0.0
H1551 H 0.99832 0.41191 0.50039 0.0
H1552 H 0.05017 0.55261 0.54336 0.0
H1553 H 0.02212 0.51057 0.57027 0.0
H1554 H 0.91909 0.42632 0.53902 0.0
C1555 C 0.97952 0.52379 0.47916 0.0
C1556 C 0.01102 0.56175 0.47362 0.0
C1557 C 0.04115 0.58537 0.48617 0.0
C1558 C 0.04076 0.57097 0.50394 0.0
C1559 C 0.00956 0.53323 0.509 0.0
C1560 C 0.97927 0.5101 0.49702 0.0
C1561 C 0.94763 0.47212 0.50612 0.0
C1562 C 0.89305 0.48474 0.50422 0.0
C1563 C 0.95877 0.42061 0.499 0.0
C1564 C 0.96467 0.47775 0.52508 0.0
C1565 C 0.00071 0.51293 0.52639 0.0
C1566 C 0.02198 0.52498 0.54251 0.0
C1567 C 0.00574 0.50083 0.55774 0.0
C1568 C 0.96824 0.46514 0.55685 0.0
C1569 C 0.94778 0.45336 0.5402 0.0
H1570 H 0.01361 0.89572 0.03968 0.0
H1571 H 0.03565 0.04108 0.06136 0.0
H1572 H 0.00481 0.07731 0.03376 0.0
H1573 H 0.04952 0.92718 0.99419 0.0
H1574 H 0.00445 0.88756 0.98438 0.0
H1575 H 0.03033 0.87262 1.00559 0.0
H1576 H 0.94338 0.86866 0.01908 0.0
H1577 H 0.91726 0.88373 0.99795 0.0
H1578 H 0.90319 0.92068 0.01702 0.0
H1579 H 0.96484 0.09808 1.00502 0.0
H1580 H 0.9244 0.10197 0.97586 0.0
H1581 H 0.93188 0.94408 0.97163 0.0
C1582 C 0.01248 0.93517 0.03855 0.0
C1583 C 0.02713 0.96548 0.05278 0.0
C1584 C 0.02494 0.01697 0.05071 0.0
C1585 C 0.00733 0.03798 0.03506 0.0
C1586 C 0.99254 0.00715 0.02142 0.0
C1587 C 0.99552 0.95687 0.02287 0.0
C1588 C 0.97671 0.9322 1.00622 0.0
C1589 C 0.0177 0.90317 0.99705 0.0
C1590 C 0.93251 0.89939 1.01032 0.0
C1591 C 0.96179 0.97645 0.99536 0.0
C1592 C 0.97113 0.01929 1.00445 0.0
C1593 C 0.95807 0.06484 0.99766 0.0
C1594 C 0.93498 0.06671 0.98114 0.0
C1595 C 0.92575 0.02345 0.97146 0.0
C1596 C 0.93954 0.97775 0.97863 0.0
H1597 H 0.4281 0.93162 0.48554 0.0
H1598 H 0.56657 0.94674 0.45815 0.0
H1599 H 0.60179 0.98737 0.48427 0.0
H1600 H 0.43221 0.04727 0.50874 0.0
H1601 H 0.40545 0.02338 0.5287 0.0
H1602 H 0.39061 0.99627 0.50769 0.0
H1603 H 0.41853 0.91153 0.51921 0.0
H1604 H 0.4333 0.93834 0.54027 0.0
H1605 H 0.47917 0.90464 0.52821 0.0
H1606 H 0.62263 0.02479 0.51354 0.0
H1607 H 0.62805 0.05576 0.54407 0.0
H1608 H 0.47608 0.01669 0.55278 0.0
C1609 C 0.46581 0.94358 0.48507 0.0
C1610 C 0.49425 0.93715 0.46963 0.0
C1611 C 0.54354 0.9529 0.46954 0.0
C1612 C 0.56403 0.97558 0.48441 0.0
C1613 C 0.53482 0.98213 0.49931 0.0
C1614 C 0.4868 0.96654 0.49979 0.0
C1615 C 0.46358 0.97758 0.51756 0.0
C1616 C 0.42041 0.01325 0.51554 0.0
C1617 C 0.44772 0.9302 0.52686 0.0
C1618 C 0.50617 0.00151 0.52702 0.0
C1619 C 0.54688 0.00374 0.51624 0.0
C1620 C 0.59094 0.02338 0.52209 0.0
C1621 C 0.59364 0.04089 0.53948 0.0
C1622 C 0.55251 0.03882 0.55085 0.0
C1623 C 0.50811 0.01913 0.54441 0.0
loop_
_geom_bond_atom_site_label_1
_geom_bond_atom_site_label_2
_geom_bond_distance
_geom_bond_site_symmetry_2
_ccdc_geom_bond_type
Co0 O3 1.970 . S
Co0 N17 1.989 . S
Co0 O25 1.967 . S
Co0 O32 1.920 . S
Co1 O4 1.966 . S
Co1 N10 2.022 . S
Co1 N18 1.993 . S
Co1 O26 1.941 . S
C2 O3 1.258 . S
C2 O4 1.263 . S
O3 Co0 1.970 . S
O3 C2 1.258 . S
O4 Co1 1.966 . S
O4 C2 1.263 . S
C5 O6 1.235 . S
C5 O32 1.289 . S
O6 C5 1.235 . S
C7 C9 1.400 . S
C7 N10 1.351 . S
C7 C12 1.501 . S
C8 C9 1.387 . S
C8 N11 1.341 . S
C9 C7 1.400 . S
C9 C8 1.387 . S
N10 Co1 2.022 . S
N10 C7 1.351 . S
N10 N11 1.365 . S
N11 C8 1.341 . S
N11 N10 1.365 . S
N11 H31 0.862 . S
C12 C7 1.501 . S
C12 H13 0.961 . S
C12 H14 0.961 . S
C12 H15 0.960 . S
H13 C12 0.961 . S
H14 C12 0.961 . S
H15 C12 0.960 . S
C16 N17 1.342 1_565 S
C16 C20 1.401 . S
C16 C21 1.499 . S
N17 Co0 1.989 . S
N17 C16 1.342 1_545 S
N17 N18 1.388 . S
N18 Co1 1.993 . S
N18 N17 1.388 . S
N18 C19 1.346 1_545 S
C19 N18 1.346 1_565 S
C19 C20 1.396 . S
C19 C29 1.510 . S
C20 C16 1.401 . S
C20 C19 1.396 . S
C21 C16 1.499 . S
C21 H22 0.959 . S
C21 H23 0.960 . S
C21 H24 0.961 . S
H22 C21 0.959 . S
H23 C21 0.960 . S
H24 C21 0.961 . S
O25 Co0 1.967 . S
O25 C33 1.258 . S
O26 Co1 1.941 . S
O26 C33 1.266 . S
H27 C29 0.959 . S
H28 C29 0.961 . S
C29 C19 1.510 . S
C29 H27 0.959 . S
C29 H28 0.961 . S
C29 H30 0.960 . S
H30 C29 0.960 . S
H31 N11 0.862 . S
O32 Co0 1.920 . S
O32 C5 1.289 . S
C33 O25 1.258 . S
C33 O26 1.266 . S
Co34 O37 1.970 . S
Co34 N51 1.989 . S
Co34 O59 1.967 . S
Co34 O66 1.920 . S
Co35 O38 1.966 . S
Co35 N44 2.022 . S
Co35 N52 1.993 . S
Co35 O60 1.941 . S
C36 O37 1.258 . S
C36 O38 1.263 . S
O37 Co34 1.970 . S
O37 C36 1.258 . S
O38 Co35 1.966 . S
O38 C36 1.263 . S
C39 O40 1.235 . S
C39 O66 1.289 . S
O40 C39 1.235 . S
C41 C43 1.400 . S
C41 N44 1.351 . S
C41 C46 1.501 . S
C42 C43 1.387 . S
C42 N45 1.341 . S
C43 C41 1.400 . S
C43 C42 1.387 . S
N44 Co35 2.022 . S
N44 C41 1.351 . S
N44 N45 1.365 . S
N45 C42 1.341 . S
N45 N44 1.365 . S
N45 H65 0.862 . S
C46 C41 1.501 . S
C46 H47 0.961 . S
C46 H48 0.961 . S
C46 H49 0.960 . S
H47 C46 0.961 . S
H48 C46 0.961 . S
H49 C46 0.960 . S
C50 N51 1.342 . S
C50 C54 1.401 . S
C50 C55 1.499 . S
N51 Co34 1.989 . S
N51 C50 1.342 . S
N51 N52 1.388 . S
N52 Co35 1.993 . S
N52 N51 1.388 . S
N52 C53 1.346 . S
C53 N52 1.346 . S
C53 C54 1.396 . S
C53 C63 1.510 . S
C54 C50 1.401 . S
C54 C53 1.396 . S
C55 C50 1.499 . S
C55 H56 0.959 . S
C55 H57 0.960 . S
C55 H58 0.961 . S
H56 C55 0.959 . S
H57 C55 0.960 . S
H58 C55 0.961 . S
O59 Co34 1.967 . S
O59 C67 1.258 . S
O60 Co35 1.941 . S
O60 C67 1.266 . S
H61 C63 0.959 . S
H62 C63 0.961 . S
C63 C53 1.510 . S
C63 H61 0.959 . S
C63 H62 0.961 . S
C63 H64 0.960 . S
H64 C63 0.960 . S
H65 N45 0.862 . S
O66 Co34 1.920 . S
O66 C39 1.289 . S
C67 O59 1.258 . S
C67 O60 1.266 . S
Co68 O71 1.970 1_655 S
Co68 N85 1.989 . S
Co68 O93 1.967 . S
Co68 O100 1.920 . S
Co69 O72 1.966 . S
Co69 N78 2.022 . S
Co69 N86 1.993 . S
Co69 O94 1.941 . S
C70 O71 1.258 . S
C70 O72 1.263 1_455 S
O71 Co68 1.970 1_455 S
O71 C70 1.258 . S
O72 Co69 1.966 . S
O72 C70 1.263 1_655 S
C73 O74 1.235 1_655 S
C73 O100 1.289 . S
O74 C73 1.235 1_455 S
C75 C77 1.400 . S
C75 N78 1.351 . S
C75 C80 1.501 1_655 S
C76 C77 1.387 . S
C76 N79 1.341 . S
C77 C75 1.400 . S
C77 C76 1.387 . S
N78 Co69 2.022 . S
N78 C75 1.351 . S
N78 N79 1.365 . S
N79 C76 1.341 . S
N79 N78 1.365 . S
N79 H99 0.862 . S
C80 C75 1.501 1_455 S
C80 H81 0.961 . S
C80 H82 0.961 . S
C80 H83 0.960 . S
H81 C80 0.961 . S
H82 C80 0.961 . S
H83 C80 0.960 . S
C84 N85 1.342 . S
C84 C88 1.401 . S
C84 C89 1.499 . S
N85 Co68 1.989 . S
N85 C84 1.342 . S
N85 N86 1.388 . S
N86 Co69 1.993 . S
N86 N85 1.388 . S
N86 C87 1.346 . S
C87 N86 1.346 . S
C87 C88 1.396 . S
C87 C97 1.510 . S
C88 C84 1.401 . S
C88 C87 1.396 . S
C89 C84 1.499 . S
C89 H90 0.959 . S
C89 H91 0.960 1_655 S
C89 H92 0.961 . S
H90 C89 0.959 . S
H91 C89 0.960 1_455 S
H92 C89 0.961 . S
O93 Co68 1.967 . S
O93 C101 1.258 . S
O94 Co69 1.941 . S
O94 C101 1.266 . S
H95 C97 0.959 . S
H96 C97 0.961 1_455 S
C97 C87 1.510 . S
C97 H95 0.959 . S
C97 H96 0.961 1_655 S
C97 H98 0.960 . S
H98 C97 0.960 . S
H99 N79 0.862 . S
O100 Co68 1.920 . S
O100 C73 1.289 . S
C101 O93 1.258 . S
C101 O94 1.266 . S
Co102 O105 1.970 1_565 S
Co102 N119 1.989 . S
Co102 O127 1.967 . S
Co102 O134 1.920 . S
Co103 O106 1.966 . S
Co103 N112 2.022 . S
Co103 N120 1.993 . S
Co103 O128 1.941 . S
C104 O105 1.258 . S
C104 O106 1.263 1_545 S
O105 Co102 1.970 1_545 S
O105 C104 1.258 . S
O106 Co103 1.966 . S
O106 C104 1.263 1_565 S
C107 O108 1.235 1_565 S
C107 O134 1.289 . S
O108 C107 1.235 1_545 S
C109 C111 1.400 . S
C109 N112 1.351 . S
C109 C114 1.501 1_565 S
C110 C111 1.387 . S
C110 N113 1.341 . S
C111 C109 1.400 . S
C111 C110 1.387 . S
N112 Co103 2.022 . S
N112 C109 1.351 . S
N112 N113 1.365 . S
N113 C110 1.341 . S
N113 N112 1.365 . S
N113 H133 0.862 . S
C114 C109 1.501 1_545 S
C114 H115 0.961 . S
C114 H116 0.961 . S
C114 H117 0.960 . S
H115 C114 0.961 . S
H116 C114 0.961 . S
H117 C114 0.960 . S
C118 N119 1.342 1_655 S
C118 C122 1.401 . S
C118 C123 1.499 . S
N119 Co102 1.989 . S
N119 C118 1.342 1_455 S
N119 N120 1.388 . S
N120 Co103 1.993 . S
N120 N119 1.388 . S
N120 C121 1.346 1_455 S
C121 N120 1.346 1_655 S
C121 C122 1.396 . S
C121 C131 1.510 . S
C122 C118 1.401 . S
C122 C121 1.396 . S
C123 C118 1.499 . S
C123 H124 0.959 . S
C123 H125 0.960 1_565 S
C123 H126 0.961 . S
H124 C123 0.959 . S
H125 C123 0.960 1_545 S
H126 C123 0.961 . S
O127 Co102 1.967 . S
O127 C135 1.258 . S
O128 Co103 1.941 . S
O128 C135 1.266 . S
H129 C131 0.959 . S
H130 C131 0.961 1_545 S
C131 C121 1.510 . S
C131 H129 0.959 . S
C131 H130 0.961 1_565 S
C131 H132 0.960 . S
H132 C131 0.960 . S
H133 N113 0.862 . S
O134 Co102 1.920 . S
O134 C107 1.289 . S
C135 O127 1.258 . S
C135 O128 1.266 . S
Co136 O139 1.970 . S
Co136 N153 1.989 . S
Co136 O161 1.967 . S
Co136 O168 1.920 . S
Co137 O140 1.966 . S
Co137 N146 2.022 . S
Co137 N154 1.993 . S
Co137 O162 1.941 . S
C138 O139 1.258 . S
C138 O140 1.263 . S
O139 Co136 1.970 . S
O139 C138 1.258 . S
O140 Co137 1.966 . S
O140 C138 1.263 . S
C141 O142 1.235 . S
C141 O168 1.289 . S
O142 C141 1.235 . S
C143 C145 1.400 . S
C143 N146 1.351 . S
C143 C148 1.501 . S
C144 C145 1.387 . S
C144 N147 1.341 . S
C145 C143 1.400 . S
C145 C144 1.387 . S
N146 Co137 2.022 . S
N146 C143 1.351 . S
N146 N147 1.365 . S
N147 C144 1.341 . S
N147 N146 1.365 . S
N147 H167 0.862 . S
C148 C143 1.501 . S
C148 H149 0.961 . S
C148 H150 0.961 . S
C148 H151 0.960 . S
H149 C148 0.961 . S
H150 C148 0.961 . S
H151 C148 0.960 . S
C152 N153 1.342 . S
C152 C156 1.401 . S
C152 C157 1.499 . S
N153 Co136 1.989 . S
N153 C152 1.342 . S
N153 N154 1.388 . S
N154 Co137 1.993 . S
N154 N153 1.388 . S
N154 C155 1.346 . S
C155 N154 1.346 . S
C155 C156 1.396 . S
C155 C165 1.510 . S
C156 C152 1.401 . S
C156 C155 1.396 . S
C157 C152 1.499 . S
C157 H158 0.959 . S
C157 H159 0.960 . S
C157 H160 0.961 . S
H158 C157 0.959 . S
H159 C157 0.960 . S
H160 C157 0.961 . S
O161 Co136 1.967 . S
O161 C169 1.258 . S
O162 Co137 1.941 . S
O162 C169 1.266 . S
H163 C165 0.959 . S
H164 C165 0.961 . S
C165 C155 1.510 . S
C165 H163 0.959 . S
C165 H164 0.961 . S
C165 H166 0.960 . S
H166 C165 0.960 . S
H167 N147 0.862 . S
O168 Co136 1.920 . S
O168 C141 1.289 . S
C169 O161 1.258 . S
C169 O162 1.266 . S
Co170 O173 1.970 . S
Co170 N187 1.989 . S
Co170 O195 1.967 . S
Co170 O202 1.920 . S
Co171 O174 1.966 . S
Co171 N180 2.022 . S
Co171 N188 1.993 . S
Co171 O196 1.941 . S
C172 O173 1.258 . S
C172 O174 1.263 . S
O173 Co170 1.970 . S
O173 C172 1.258 . S
O174 Co171 1.966 . S
O174 C172 1.263 . S
C175 O176 1.235 . S
C175 O202 1.289 . S
O176 C175 1.235 . S
C177 C179 1.400 . S
C177 N180 1.351 . S
C177 C182 1.501 . S
C178 C179 1.387 . S
C178 N181 1.341 . S
C179 C177 1.400 . S
C179 C178 1.387 . S
N180 Co171 2.022 . S
N180 C177 1.351 . S
N180 N181 1.365 . S
N181 C178 1.341 . S
N181 N180 1.365 . S
N181 H201 0.862 . S
C182 C177 1.501 . S
C182 H183 0.961 . S
C182 H184 0.961 . S
C182 H185 0.960 . S
H183 C182 0.961 . S
H184 C182 0.961 . S
H185 C182 0.960 . S
C186 N187 1.342 1_655 S
C186 C190 1.401 . S
C186 C191 1.499 . S
N187 Co170 1.989 . S
N187 C186 1.342 1_455 S
N187 N188 1.388 . S
N188 Co171 1.993 . S
N188 N187 1.388 . S
N188 C189 1.346 1_455 S
C189 N188 1.346 1_655 S
C189 C190 1.396 . S
C189 C199 1.510 . S
C190 C186 1.401 . S
C190 C189 1.396 . S
C191 C186 1.499 . S
C191 H192 0.959 . S
C191 H193 0.960 . S
C191 H194 0.961 . S
H192 C191 0.959 . S
H193 C191 0.960 . S
H194 C191 0.961 . S
O195 Co170 1.967 . S
O195 C203 1.258 . S
O196 Co171 1.941 . S
O196 C203 1.266 . S
H197 C199 0.959 . S
H198 C199 0.961 . S
C199 C189 1.510 . S
C199 H197 0.959 . S
C199 H198 0.961 . S
C199 H200 0.960 . S
H200 C199 0.960 . S
H201 N181 0.862 . S
O202 Co170 1.920 . S
O202 C175 1.289 . S
C203 O195 1.258 . S
C203 O196 1.266 . S
Co204 O207 1.970 1_655 S
Co204 N221 1.989 . S
Co204 O229 1.967 . S
Co204 O236 1.920 . S
Co205 O208 1.966 . S
Co205 N214 2.022 . S
Co205 N222 1.993 . S
Co205 O230 1.941 . S
C206 O207 1.258 . S
C206 O208 1.263 1_455 S
O207 Co204 1.970 1_455 S
O207 C206 1.258 . S
O208 Co205 1.966 . S
O208 C206 1.263 1_655 S
C209 O210 1.235 1_655 S
C209 O236 1.289 . S
O210 C209 1.235 1_455 S
C211 C213 1.400 . S
C211 N214 1.351 . S
C211 C216 1.501 1_655 S
C212 C213 1.387 . S
C212 N215 1.341 . S
C213 C211 1.400 . S
C213 C212 1.387 . S
N214 Co205 2.022 . S
N214 C211 1.351 . S
N214 N215 1.365 . S
N215 C212 1.341 . S
N215 N214 1.365 . S
N215 H235 0.862 . S
C216 C211 1.501 1_455 S
C216 H217 0.961 . S
C216 H218 0.961 . S
C216 H219 0.960 . S
H217 C216 0.961 . S
H218 C216 0.961 . S
H219 C216 0.960 . S
C220 N221 1.342 1_565 S
C220 C224 1.401 . S
C220 C225 1.499 . S
N221 Co204 1.989 . S
N221 C220 1.342 1_545 S
N221 N222 1.388 . S
N222 Co205 1.993 . S
N222 N221 1.388 . S
N222 C223 1.346 1_545 S
C223 N222 1.346 1_565 S
C223 C224 1.396 . S
C223 C233 1.510 . S
C224 C220 1.401 . S
C224 C223 1.396 . S
C225 C220 1.499 . S
C225 H226 0.959 . S
C225 H227 0.960 1_655 S
C225 H228 0.961 . S
H226 C225 0.959 . S
H227 C225 0.960 1_455 S
H228 C225 0.961 . S
O229 Co204 1.967 . S
O229 C237 1.258 . S
O230 Co205 1.941 . S
O230 C237 1.266 . S
H231 C233 0.959 . S
H232 C233 0.961 1_455 S
C233 C223 1.510 . S
C233 H231 0.959 . S
C233 H232 0.961 1_655 S
C233 H234 0.960 . S
H234 C233 0.960 . S
H235 N215 0.862 . S
O236 Co204 1.920 . S
O236 C209 1.289 . S
C237 O229 1.258 . S
C237 O230 1.266 . S
Co238 O241 1.970 1_565 S
Co238 N255 1.989 . S
Co238 O263 1.967 . S
Co238 O270 1.920 . S
Co239 O242 1.966 . S
Co239 N248 2.022 . S
Co239 N256 1.993 . S
Co239 O264 1.941 . S
C240 O241 1.258 . S
C240 O242 1.263 1_545 S
O241 Co238 1.970 1_545 S
O241 C240 1.258 . S
O242 Co239 1.966 . S
O242 C240 1.263 1_565 S
C243 O244 1.235 1_565 S
C243 O270 1.289 . S
O244 C243 1.235 1_545 S
C245 C247 1.400 . S
C245 N248 1.351 . S
C245 C250 1.501 1_565 S
C246 C247 1.387 . S
C246 N249 1.341 . S
C247 C245 1.400 . S
C247 C246 1.387 . S
N248 Co239 2.022 . S
N248 C245 1.351 . S
N248 N249 1.365 . S
N249 C246 1.341 . S
N249 N248 1.365 . S
N249 H269 0.862 . S
C250 C245 1.501 1_545 S
C250 H251 0.961 . S
C250 H252 0.961 . S
C250 H253 0.960 . S
H251 C250 0.961 . S
H252 C250 0.961 . S
H253 C250 0.960 . S
C254 N255 1.342 . S
C254 C258 1.401 . S
C254 C259 1.499 . S
N255 Co238 1.989 . S
N255 C254 1.342 . S
N255 N256 1.388 . S
N256 Co239 1.993 . S
N256 N255 1.388 . S
N256 C257 1.346 . S
C257 N256 1.346 . S
C257 C258 1.396 . S
C257 C267 1.510 . S
C258 C254 1.401 . S
C258 C257 1.396 . S
C259 C254 1.499 . S
C259 H260 0.959 . S
C259 H261 0.960 1_565 S
C259 H262 0.961 . S
H260 C259 0.959 . S
H261 C259 0.960 1_545 S
H262 C259 0.961 . S
O263 Co238 1.967 . S
O263 C271 1.258 . S
O264 Co239 1.941 . S
O264 C271 1.266 . S
H265 C267 0.959 . S
H266 C267 0.961 1_545 S
C267 C257 1.510 . S
C267 H265 0.959 . S
C267 H266 0.961 1_565 S
C267 H268 0.960 . S
H268 C267 0.960 . S
H269 N249 0.862 . S
O270 Co238 1.920 . S
O270 C243 1.289 . S
C271 O263 1.258 . S
C271 O264 1.266 . S
Co272 O275 1.970 . S
Co272 N289 1.989 . S
Co272 O297 1.967 . S
Co272 O304 1.920 . S
Co273 O276 1.966 . S
Co273 N282 2.022 . S
Co273 N290 1.993 . S
Co273 O298 1.941 . S
C274 O275 1.258 . S
C274 O276 1.263 . S
O275 Co272 1.970 . S
O275 C274 1.258 . S
O276 Co273 1.966 . S
O276 C274 1.263 . S
C277 O278 1.235 . S
C277 O304 1.289 . S
O278 C277 1.235 . S
C279 C281 1.400 . S
C279 N282 1.351 . S
C279 C284 1.501 . S
C280 C281 1.387 . S
C280 N283 1.341 . S
C281 C279 1.400 . S
C281 C280 1.387 . S
N282 Co273 2.022 . S
N282 C279 1.351 . S
N282 N283 1.365 . S
N283 C280 1.341 . S
N283 N282 1.365 . S
N283 H303 0.862 . S
C284 C279 1.501 . S
C284 H285 0.961 . S
C284 H286 0.961 . S
C284 H287 0.960 . S
H285 C284 0.961 . S
H286 C284 0.961 . S
H287 C284 0.960 . S
C288 N289 1.342 1_545 S
C288 C292 1.401 . S
C288 C293 1.499 . S
N289 Co272 1.989 . S
N289 C288 1.342 1_565 S
N289 N290 1.388 . S
N290 Co273 1.993 . S
N290 N289 1.388 . S
N290 C291 1.346 1_565 S
C291 N290 1.346 1_545 S
C291 C292 1.396 . S
C291 C301 1.510 . S
C292 C288 1.401 . S
C292 C291 1.396 . S
C293 C288 1.499 . S
C293 H294 0.959 . S
C293 H295 0.960 . S
C293 H296 0.961 . S
H294 C293 0.959 . S
H295 C293 0.960 . S
H296 C293 0.961 . S
O297 Co272 1.967 . S
O297 C305 1.258 . S
O298 Co273 1.941 . S
O298 C305 1.266 . S
H299 C301 0.959 . S
H300 C301 0.961 . S
C301 C291 1.510 . S
C301 H299 0.959 . S
C301 H300 0.961 . S
C301 H302 0.960 . S
H302 C301 0.960 . S
H303 N283 0.862 . S
O304 Co272 1.920 . S
O304 C277 1.289 . S
C305 O297 1.258 . S
C305 O298 1.266 . S
Co306 O309 1.970 . S
Co306 N323 1.989 . S
Co306 O331 1.967 . S
Co306 O338 1.920 . S
Co307 O310 1.966 . S
Co307 N316 2.022 . S
Co307 N324 1.993 . S
Co307 O332 1.941 . S
C308 O309 1.258 . S
C308 O310 1.263 . S
O309 Co306 1.970 . S
O309 C308 1.258 . S
O310 Co307 1.966 . S
O310 C308 1.263 . S
C311 O312 1.235 . S
C311 O338 1.289 . S
O312 C311 1.235 . S
C313 C315 1.400 . S
C313 N316 1.351 . S
C313 C318 1.501 . S
C314 C315 1.387 . S
C314 N317 1.341 . S
C315 C313 1.400 . S
C315 C314 1.387 . S
N316 Co307 2.022 . S
N316 C313 1.351 . S
N316 N317 1.365 . S
N317 C314 1.341 . S
N317 N316 1.365 . S
N317 H337 0.862 . S
C318 C313 1.501 . S
C318 H319 0.961 . S
C318 H320 0.961 . S
C318 H321 0.960 . S
H319 C318 0.961 . S
H320 C318 0.961 . S
H321 C318 0.960 . S
C322 N323 1.342 . S
C322 C326 1.401 . S
C322 C327 1.499 . S
N323 Co306 1.989 . S
N323 C322 1.342 . S
N323 N324 1.388 . S
N324 Co307 1.993 . S
N324 N323 1.388 . S
N324 C325 1.346 . S
C325 N324 1.346 . S
C325 C326 1.396 . S
C325 C335 1.510 . S
C326 C322 1.401 . S
C326 C325 1.396 . S
C327 C322 1.499 . S
C327 H328 0.959 . S
C327 H329 0.960 . S
C327 H330 0.961 . S
H328 C327 0.959 . S
H329 C327 0.960 . S
H330 C327 0.961 . S
O331 Co306 1.967 . S
O331 C339 1.258 . S
O332 Co307 1.941 . S
O332 C339 1.266 . S
H333 C335 0.959 . S
H334 C335 0.961 . S
C335 C325 1.510 . S
C335 H333 0.959 . S
C335 H334 0.961 . S
C335 H336 0.960 . S
H336 C335 0.960 . S
H337 N317 0.862 . S
O338 Co306 1.920 . S
O338 C311 1.289 . S
C339 O331 1.258 . S
C339 O332 1.266 . S
Co340 O343 1.970 . S
Co340 N357 1.989 . S
Co340 O365 1.967 . S
Co340 O372 1.920 . S
Co341 O344 1.966 . S
Co341 N350 2.022 . S
Co341 N358 1.993 . S
Co341 O366 1.941 . S
C342 O343 1.258 . S
C342 O344 1.263 . S
O343 Co340 1.970 . S
O343 C342 1.258 . S
O344 Co341 1.966 . S
O344 C342 1.263 . S
C345 O346 1.235 1_455 S
C345 O372 1.289 . S
O346 C345 1.235 1_655 S
C347 C349 1.400 . S
C347 N350 1.351 . S
C347 C352 1.501 1_455 S
C348 C349 1.387 . S
C348 N351 1.341 . S
C349 C347 1.400 . S
C349 C348 1.387 . S
N350 Co341 2.022 . S
N350 C347 1.351 . S
N350 N351 1.365 . S
N351 C348 1.341 . S
N351 N350 1.365 . S
N351 H371 0.862 . S
C352 C347 1.501 1_655 S
C352 H353 0.961 . S
C352 H354 0.961 . S
C352 H355 0.960 . S
H353 C352 0.961 . S
H354 C352 0.961 . S
H355 C352 0.960 . S
C356 N357 1.342 . S
C356 C360 1.401 . S
C356 C361 1.499 . S
N357 Co340 1.989 . S
N357 C356 1.342 . S
N357 N358 1.388 . S
N358 Co341 1.993 . S
N358 N357 1.388 . S
N358 C359 1.346 . S
C359 N358 1.346 . S
C359 C360 1.396 . S
C359 C369 1.510 . S
C360 C356 1.401 . S
C360 C359 1.396 . S
C361 C356 1.499 . S
C361 H362 0.959 . S
C361 H363 0.960 . S
C361 H364 0.961 . S
H362 C361 0.959 . S
H363 C361 0.960 . S
H364 C361 0.961 . S
O365 Co340 1.967 . S
O365 C373 1.258 . S
O366 Co341 1.941 . S
O366 C373 1.266 . S
H367 C369 0.959 . S
H368 C369 0.961 . S
C369 C359 1.510 . S
C369 H367 0.959 . S
C369 H368 0.961 . S
C369 H370 0.960 . S
H370 C369 0.960 . S
H371 N351 0.862 . S
O372 Co340 1.920 . S
O372 C345 1.289 . S
C373 O365 1.258 . S
C373 O366 1.266 . S
Co374 O377 1.970 . S
Co374 N391 1.989 . S
Co374 O399 1.967 . S
Co374 O406 1.920 . S
Co375 O378 1.966 . S
Co375 N384 2.022 . S
Co375 N392 1.993 . S
Co375 O400 1.941 . S
C376 O377 1.258 . S
C376 O378 1.263 . S
O377 Co374 1.970 . S
O377 C376 1.258 . S
O378 Co375 1.966 . S
O378 C376 1.263 . S
C379 O380 1.235 1_545 S
C379 O406 1.289 . S
O380 C379 1.235 1_565 S
C381 C383 1.400 . S
C381 N384 1.351 . S
C381 C386 1.501 1_545 S
C382 C383 1.387 . S
C382 N385 1.341 . S
C383 C381 1.400 . S
C383 C382 1.387 . S
N384 Co375 2.022 . S
N384 C381 1.351 . S
N384 N385 1.365 . S
N385 C382 1.341 . S
N385 N384 1.365 . S
N385 H405 0.862 . S
C386 C381 1.501 1_565 S
C386 H387 0.961 . S
C386 H388 0.961 . S
C386 H389 0.960 . S
H387 C386 0.961 . S
H388 C386 0.961 . S
H389 C386 0.960 . S
C390 N391 1.342 1_455 S
C390 C394 1.401 . S
C390 C395 1.499 . S
N391 Co374 1.989 . S
N391 C390 1.342 1_655 S
N391 N392 1.388 . S
N392 Co375 1.993 . S
N392 N391 1.388 . S
N392 C393 1.346 1_655 S
C393 N392 1.346 1_455 S
C393 C394 1.396 . S
C393 C403 1.510 . S
C394 C390 1.401 . S
C394 C393 1.396 . S
C395 C390 1.499 . S
C395 H396 0.959 . S
C395 H397 0.960 . S
C395 H398 0.961 . S
H396 C395 0.959 . S
H397 C395 0.960 . S
H398 C395 0.961 . S
O399 Co374 1.967 . S
O399 C407 1.258 . S
O400 Co375 1.941 . S
O400 C407 1.266 . S
H401 C403 0.959 . S
H402 C403 0.961 . S
C403 C393 1.510 . S
C403 H401 0.959 . S
C403 H402 0.961 . S
C403 H404 0.960 . S
H404 C403 0.960 . S
H405 N385 0.862 . S
O406 Co374 1.920 . S
O406 C379 1.289 . S
C407 O399 1.258 . S
C407 O400 1.266 . S
Co408 O411 1.970 . S
Co408 N425 1.989 . S
Co408 O433 1.967 . S
Co408 O440 1.920 . S
Co409 O412 1.966 . S
Co409 N418 2.022 . S
Co409 N426 1.993 . S
Co409 O434 1.941 . S
C410 O411 1.258 . S
C410 O412 1.263 . S
O411 Co408 1.970 . S
O411 C410 1.258 . S
O412 Co409 1.966 . S
O412 C410 1.263 . S
C413 O414 1.235 . S
C413 O440 1.289 . S
O414 C413 1.235 . S
C415 C417 1.400 . S
C415 N418 1.351 . S
C415 C420 1.501 . S
C416 C417 1.387 . S
C416 N419 1.341 . S
C417 C415 1.400 . S
C417 C416 1.387 . S
N418 Co409 2.022 . S
N418 C415 1.351 . S
N418 N419 1.365 . S
N419 C416 1.341 . S
N419 N418 1.365 . S
N419 H439 0.862 . S
C420 C415 1.501 . S
C420 H421 0.961 . S
C420 H422 0.961 . S
C420 H423 0.960 . S
H421 C420 0.961 . S
H422 C420 0.961 . S
H423 C420 0.960 . S
C424 N425 1.342 . S
C424 C428 1.401 . S
C424 C429 1.499 . S
N425 Co408 1.989 . S
N425 C424 1.342 . S
N425 N426 1.388 . S
N426 Co409 1.993 . S
N426 N425 1.388 . S
N426 C427 1.346 . S
C427 N426 1.346 . S
C427 C428 1.396 . S
C427 C437 1.510 . S
C428 C424 1.401 . S
C428 C427 1.396 . S
C429 C424 1.499 . S
C429 H430 0.959 . S
C429 H431 0.960 . S
C429 H432 0.961 . S
H430 C429 0.959 . S
H431 C429 0.960 . S
H432 C429 0.961 . S
O433 Co408 1.967 . S
O433 C441 1.258 . S
O434 Co409 1.941 . S
O434 C441 1.266 . S
H435 C437 0.959 . S
H436 C437 0.961 . S
C437 C427 1.510 . S
C437 H435 0.959 . S
C437 H436 0.961 . S
C437 H438 0.960 . S
H438 C437 0.960 . S
H439 N419 0.862 . S
O440 Co408 1.920 . S
O440 C413 1.289 . S
C441 O433 1.258 . S
C441 O434 1.266 . S
Co442 O445 1.970 . S
Co442 N459 1.989 . S
Co442 O467 1.967 . S
Co442 O474 1.920 . S
Co443 O446 1.966 . S
Co443 N452 2.022 . S
Co443 N460 1.993 . S
Co443 O468 1.941 . S
C444 O445 1.258 . S
C444 O446 1.263 . S
O445 Co442 1.970 . S
O445 C444 1.258 . S
O446 Co443 1.966 . S
O446 C444 1.263 . S
C447 O448 1.235 . S
C447 O474 1.289 . S
O448 C447 1.235 . S
C449 C451 1.400 . S
C449 N452 1.351 . S
C449 C454 1.501 . S
C450 C451 1.387 . S
C450 N453 1.341 . S
C451 C449 1.400 . S
C451 C450 1.387 . S
N452 Co443 2.022 . S
N452 C449 1.351 . S
N452 N453 1.365 . S
N453 C450 1.341 . S
N453 N452 1.365 . S
N453 H473 0.862 . S
C454 C449 1.501 . S
C454 H455 0.961 . S
C454 H456 0.961 . S
C454 H457 0.960 . S
H455 C454 0.961 . S
H456 C454 0.961 . S
H457 C454 0.960 . S
C458 N459 1.342 1_455 S
C458 C462 1.401 . S
C458 C463 1.499 . S
N459 Co442 1.989 . S
N459 C458 1.342 1_655 S
N459 N460 1.388 . S
N460 Co443 1.993 . S
N460 N459 1.388 . S
N460 C461 1.346 1_655 S
C461 N460 1.346 1_455 S
C461 C462 1.396 . S
C461 C471 1.510 . S
C462 C458 1.401 . S
C462 C461 1.396 . S
C463 C458 1.499 . S
C463 H464 0.959 . S
C463 H465 0.960 . S
C463 H466 0.961 . S
H464 C463 0.959 . S
H465 C463 0.960 . S
H466 C463 0.961 . S
O467 Co442 1.967 . S
O467 C475 1.258 . S
O468 Co443 1.941 . S
O468 C475 1.266 . S
H469 C471 0.959 . S
H470 C471 0.961 . S
C471 C461 1.510 . S
C471 H469 0.959 . S
C471 H470 0.961 . S
C471 H472 0.960 . S
H472 C471 0.960 . S
H473 N453 0.862 . S
O474 Co442 1.920 . S
O474 C447 1.289 . S
C475 O467 1.258 . S
C475 O468 1.266 . S
Co476 O479 1.970 . S
Co476 N493 1.989 . S
Co476 O501 1.967 . S
Co476 O508 1.920 . S
Co477 O480 1.966 . S
Co477 N486 2.022 . S
Co477 N494 1.993 . S
Co477 O502 1.941 . S
C478 O479 1.258 . S
C478 O480 1.263 . S
O479 Co476 1.970 . S
O479 C478 1.258 . S
O480 Co477 1.966 . S
O480 C478 1.263 . S
C481 O482 1.235 1_455 S
C481 O508 1.289 . S
O482 C481 1.235 1_655 S
C483 C485 1.400 . S
C483 N486 1.351 . S
C483 C488 1.501 1_455 S
C484 C485 1.387 . S
C484 N487 1.341 . S
C485 C483 1.400 . S
C485 C484 1.387 . S
N486 Co477 2.022 . S
N486 C483 1.351 . S
N486 N487 1.365 . S
N487 C484 1.341 . S
N487 N486 1.365 . S
N487 H507 0.862 . S
C488 C483 1.501 1_655 S
C488 H489 0.961 . S
C488 H490 0.961 . S
C488 H491 0.960 . S
H489 C488 0.961 . S
H490 C488 0.961 . S
H491 C488 0.960 . S
C492 N493 1.342 1_545 S
C492 C496 1.401 . S
C492 C497 1.499 . S
N493 Co476 1.989 . S
N493 C492 1.342 1_565 S
N493 N494 1.388 . S
N494 Co477 1.993 . S
N494 N493 1.388 . S
N494 C495 1.346 1_565 S
C495 N494 1.346 1_545 S
C495 C496 1.396 . S
C495 C505 1.510 . S
C496 C492 1.401 . S
C496 C495 1.396 . S
C497 C492 1.499 . S
C497 H498 0.959 . S
C497 H499 0.960 . S
C497 H500 0.961 . S
H498 C497 0.959 . S
H499 C497 0.960 . S
H500 C497 0.961 . S
O501 Co476 1.967 . S
O501 C509 1.258 . S
O502 Co477 1.941 . S
O502 C509 1.266 . S
H503 C505 0.959 . S
H504 C505 0.961 . S
C505 C495 1.510 . S
C505 H503 0.959 . S
C505 H504 0.961 . S
C505 H506 0.960 . S
H506 C505 0.960 . S
H507 N487 0.862 . S
O508 Co476 1.920 . S
O508 C481 1.289 . S
C509 O501 1.258 . S
C509 O502 1.266 . S
Co510 O513 1.970 . S
Co510 N527 1.989 . S
Co510 O535 1.967 . S
Co510 O542 1.920 . S
Co511 O514 1.966 . S
Co511 N520 2.022 . S
Co511 N528 1.993 . S
Co511 O536 1.941 . S
C512 O513 1.258 . S
C512 O514 1.263 . S
O513 Co510 1.970 . S
O513 C512 1.258 . S
O514 Co511 1.966 . S
O514 C512 1.263 . S
C515 O516 1.235 1_545 S
C515 O542 1.289 . S
O516 C515 1.235 1_565 S
C517 C519 1.400 . S
C517 N520 1.351 . S
C517 C522 1.501 1_545 S
C518 C519 1.387 . S
C518 N521 1.341 . S
C519 C517 1.400 . S
C519 C518 1.387 . S
N520 Co511 2.022 . S
N520 C517 1.351 . S
N520 N521 1.365 . S
N521 C518 1.341 . S
N521 N520 1.365 . S
N521 H541 0.862 . S
C522 C517 1.501 1_565 S
C522 H523 0.961 . S
C522 H524 0.961 . S
C522 H525 0.960 . S
H523 C522 0.961 . S
H524 C522 0.961 . S
H525 C522 0.960 . S
C526 N527 1.342 . S
C526 C530 1.401 . S
C526 C531 1.499 . S
N527 Co510 1.989 . S
N527 C526 1.342 . S
N527 N528 1.388 . S
N528 Co511 1.993 . S
N528 N527 1.388 . S
N528 C529 1.346 . S
C529 N528 1.346 . S
C529 C530 1.396 . S
C529 C539 1.510 . S
C530 C526 1.401 . S
C530 C529 1.396 . S
C531 C526 1.499 . S
C531 H532 0.959 . S
C531 H533 0.960 . S
C531 H534 0.961 . S
H532 C531 0.959 . S
H533 C531 0.960 . S
H534 C531 0.961 . S
O535 Co510 1.967 . S
O535 C543 1.258 . S
O536 Co511 1.941 . S
O536 C543 1.266 . S
H537 C539 0.959 . S
H538 C539 0.961 . S
C539 C529 1.510 . S
C539 H537 0.959 . S
C539 H538 0.961 . S
C539 H540 0.960 . S
H540 C539 0.960 . S
H541 N521 0.862 . S
O542 Co510 1.920 . S
O542 C515 1.289 . S
C543 O535 1.258 . S
C543 O536 1.266 . S
H544 C556 0.930 . S
H545 C558 0.930 . S
H546 C559 0.930 . S
H547 C563 0.959 . S
H548 C563 0.959 . S
H549 C563 0.961 . S
H550 C564 0.960 . S
H551 C564 0.961 . S
H552 C564 0.959 . S
H553 C567 0.929 . S
H554 C568 0.931 . S
H555 C570 0.930 . S
C556 H544 0.930 . S
C556 C557 1.399 . S
C556 C561 1.399 . S
C557 C556 1.399 . S
C557 C558 1.376 1_545 S
C558 H545 0.930 . S
C558 C557 1.376 1_565 S
C558 C559 1.388 . S
C559 H546 0.930 . S
C559 C558 1.388 . S
C559 C560 1.390 1_565 S
C560 C559 1.390 1_545 S
C560 C561 1.394 . S
C560 C566 1.465 1_545 S
C561 C556 1.399 . S
C561 C560 1.394 . S
C561 C562 1.516 . S
C562 C561 1.516 . S
C562 C563 1.502 . S
C562 C564 1.561 . S
C562 C565 1.526 . S
C563 H547 0.959 . S
C563 H548 0.959 . S
C563 H549 0.961 . S
C563 C562 1.502 . S
C564 H550 0.960 . S
C564 H551 0.961 . S
C564 H552 0.959 . S
C564 C562 1.561 . S
C565 C562 1.526 . S
C565 C566 1.396 1_545 S
C565 C570 1.390 . S
C566 C560 1.465 1_565 S
C566 C565 1.396 1_565 S
C566 C567 1.399 . S
C567 H553 0.929 . S
C567 C566 1.399 . S
C567 C568 1.385 . S
C568 H554 0.931 . S
C568 C567 1.385 . S
C568 C569 1.389 . S
C569 C568 1.389 . S
C569 C570 1.387 1_565 S
C570 H555 0.930 . S
C570 C565 1.390 . S
C570 C569 1.387 1_545 S
H571 C583 0.930 . S
H572 C585 0.930 . S
H573 C586 0.930 . S
H574 C590 0.959 . S
H575 C590 0.959 . S
H576 C590 0.961 . S
H577 C591 0.960 . S
H578 C591 0.961 . S
H579 C591 0.959 . S
H580 C594 0.929 . S
H581 C595 0.931 . S
H582 C597 0.930 . S
C583 H571 0.930 . S
C583 C584 1.399 . S
C583 C588 1.399 . S
C584 C583 1.399 . S
C584 C585 1.376 . S
C585 H572 0.930 . S
C585 C584 1.376 . S
C585 C586 1.388 . S
C586 H573 0.930 . S
C586 C585 1.388 . S
C586 C587 1.390 . S
C587 C586 1.390 . S
C587 C588 1.394 . S
C587 C593 1.465 . S
C588 C583 1.399 . S
C588 C587 1.394 . S
C588 C589 1.516 . S
C589 C588 1.516 . S
C589 C590 1.502 . S
C589 C591 1.561 . S
C589 C592 1.526 . S
C590 H574 0.959 . S
C590 H575 0.959 . S
C590 H576 0.961 . S
C590 C589 1.502 . S
C591 H577 0.960 . S
C591 H578 0.961 . S
C591 H579 0.959 . S
C591 C589 1.561 . S
C592 C589 1.526 . S
C592 C593 1.396 . S
C592 C597 1.390 . S
C593 C587 1.465 . S
C593 C592 1.396 . S
C593 C594 1.399 . S
C594 H580 0.929 . S
C594 C593 1.399 . S
C594 C595 1.385 . S
C595 H581 0.931 . S
C595 C594 1.385 . S
C595 C596 1.389 . S
C596 C595 1.389 . S
C596 C597 1.387 . S
C597 H582 0.930 . S
C597 C592 1.390 . S
C597 C596 1.387 . S
H598 C610 0.930 . S
H599 C612 0.930 . S
H600 C613 0.930 . S
H601 C617 0.959 . S
H602 C617 0.959 . S
H603 C617 0.961 . S
H604 C618 0.960 . S
H605 C618 0.961 . S
H606 C618 0.959 1_655 S
H607 C621 0.929 1_655 S
H608 C622 0.931 . S
H609 C624 0.930 . S
C610 H598 0.930 . S
C610 C611 1.399 1_455 S
C610 C615 1.399 . S
C611 C610 1.399 1_655 S
C611 C612 1.376 . S
C612 H599 0.930 . S
C612 C611 1.376 . S
C612 C613 1.388 . S
C613 H600 0.930 . S
C613 C612 1.388 . S
C613 C614 1.397 . S
C614 C613 1.397 . S
C614 C615 1.388 1_655 S
C614 C620 1.462 1_655 S
C615 C610 1.399 . S
C615 C614 1.388 1_455 S
C615 C616 1.516 . S
C616 C615 1.516 . S
C616 C617 1.502 . S
C616 C618 1.561 . S
C616 C619 1.526 . S
C617 H601 0.959 . S
C617 H602 0.959 . S
C617 H603 0.961 . S
C617 C616 1.502 . S
C618 H604 0.960 . S
C618 H605 0.961 . S
C618 H606 0.959 1_455 S
C618 C616 1.561 . S
C619 C616 1.526 . S
C619 C620 1.396 . S
C619 C624 1.390 . S
C620 C614 1.462 1_455 S
C620 C619 1.396 . S
C620 C621 1.399 . S
C621 H607 0.929 1_455 S
C621 C620 1.399 . S
C621 C622 1.385 . S
C622 H608 0.931 . S
C622 C621 1.385 . S
C622 C623 1.389 . S
C623 C622 1.389 . S
C623 C624 1.387 . S
C624 H609 0.930 . S
C624 C619 1.390 . S
C624 C623 1.387 . S
H625 C637 0.930 1_655 S
H626 C639 0.930 . S
H627 C640 0.930 . S
H628 C644 0.959 1_545 S
H629 C644 0.959 . S
H630 C644 0.961 . S
H631 C645 0.958 1_655 S
H632 C645 0.947 1_655 S
H633 C645 0.982 . S
H634 C648 0.929 . S
H635 C649 0.931 . S
H636 C651 0.930 1_565 S
C637 H625 0.930 1_455 S
C637 C638 1.399 . S
C637 C642 1.399 . S
C638 C637 1.399 . S
C638 C639 1.376 1_565 S
C639 H626 0.930 . S
C639 C638 1.376 1_545 S
C639 C640 1.388 . S
C640 H627 0.930 . S
C640 C639 1.388 . S
C640 C641 1.390 . S
C641 C640 1.390 . S
C641 C642 1.394 1_545 S
C641 C647 1.465 . S
C642 C637 1.399 . S
C642 C641 1.394 1_565 S
C642 C643 1.516 1_455 S
C643 C642 1.516 1_655 S
C643 C644 1.502 . S
C643 C645 1.555 1_655 S
C643 C646 1.526 1_565 S
C644 H628 0.959 1_565 S
C644 H629 0.959 . S
C644 H630 0.961 . S
C644 C643 1.502 . S
C645 H631 0.958 1_455 S
C645 H632 0.947 1_455 S
C645 H633 0.982 . S
C645 C643 1.555 1_455 S
C646 C643 1.526 1_545 S
C646 C647 1.396 1_655 S
C646 C651 1.390 . S
C647 C641 1.465 . S
C647 C646 1.396 1_455 S
C647 C648 1.399 . S
C648 H634 0.929 . S
C648 C647 1.399 . S
C648 C649 1.385 . S
C649 H635 0.931 . S
C649 C648 1.385 . S
C649 C650 1.389 1_455 S
C650 C649 1.389 1_655 S
C650 C651 1.387 . S
C651 H636 0.930 1_545 S
C651 C646 1.390 . S
C651 C650 1.387 . S
H652 C664 0.930 1_545 S
H653 C666 0.930 . S
H654 C667 0.930 . S
H655 C671 0.959 . S
H656 C671 0.959 . S
H657 C671 0.961 . S
H658 C672 0.960 . S
H659 C672 0.961 . S
H660 C672 0.959 . S
H661 C675 0.929 . S
H662 C676 0.931 . S
H663 C678 0.930 . S
C664 H652 0.930 1_565 S
C664 C665 1.399 . S
C664 C669 1.399 . S
C665 C664 1.399 . S
C665 C666 1.376 . S
C666 H653 0.930 . S
C666 C665 1.376 . S
C666 C667 1.388 . S
C667 H654 0.930 . S
C667 C666 1.388 . S
C667 C668 1.390 . S
C668 C667 1.390 . S
C668 C669 1.394 . S
C668 C674 1.465 . S
C669 C664 1.399 . S
C669 C668 1.394 . S
C669 C670 1.516 1_565 S
C670 C669 1.516 1_545 S
C670 C671 1.502 . S
C670 C672 1.561 . S
C670 C673 1.526 . S
C671 H655 0.959 . S
C671 H656 0.959 . S
C671 H657 0.961 . S
C671 C670 1.502 . S
C672 H658 0.960 . S
C672 H659 0.961 . S
C672 H660 0.959 . S
C672 C670 1.561 . S
C673 C670 1.526 . S
C673 C674 1.396 1_545 S
C673 C678 1.390 . S
C674 C668 1.465 . S
C674 C673 1.396 1_565 S
C674 C675 1.399 . S
C675 H661 0.929 . S
C675 C674 1.399 . S
C675 C676 1.385 . S
C676 H662 0.931 . S
C676 C675 1.385 . S
C676 C677 1.389 1_565 S
C677 C676 1.389 1_545 S
C677 C678 1.387 . S
C678 H663 0.930 . S
C678 C673 1.390 . S
C678 C677 1.387 . S
H679 C691 0.930 . S
H680 C693 0.930 . S
H681 C694 0.930 . S
H682 C698 0.959 . S
H683 C698 0.959 . S
H684 C698 0.961 . S
H685 C699 0.960 . S
H686 C699 0.961 . S
H687 C699 0.959 . S
H688 C702 0.929 . S
H689 C703 0.931 . S
H690 C705 0.930 . S
C691 H679 0.930 . S
C691 C692 1.399 . S
C691 C696 1.399 . S
C692 C691 1.399 . S
C692 C693 1.376 . S
C693 H680 0.930 . S
C693 C692 1.376 . S
C693 C694 1.388 . S
C694 H681 0.930 . S
C694 C693 1.388 . S
C694 C695 1.390 . S
C695 C694 1.390 . S
C695 C696 1.394 . S
C695 C701 1.465 . S
C696 C691 1.399 . S
C696 C695 1.394 . S
C696 C697 1.516 . S
C697 C696 1.516 . S
C697 C698 1.502 . S
C697 C699 1.561 . S
C697 C700 1.526 . S
C698 H682 0.959 . S
C698 H683 0.959 . S
C698 H684 0.961 . S
C698 C697 1.502 . S
C699 H685 0.960 . S
C699 H686 0.961 . S
C699 H687 0.959 . S
C699 C697 1.561 . S
C700 C697 1.526 . S
C700 C701 1.396 . S
C700 C705 1.390 . S
C701 C695 1.465 . S
C701 C700 1.396 . S
C701 C702 1.399 . S
C702 H688 0.929 . S
C702 C701 1.399 . S
C702 C703 1.385 . S
C703 H689 0.931 . S
C703 C702 1.385 . S
C703 C704 1.389 . S
C704 C703 1.389 . S
C704 C705 1.387 . S
C705 H690 0.930 . S
C705 C700 1.390 . S
C705 C704 1.387 . S
H706 C718 0.930 . S
H707 C720 0.930 . S
H708 C721 0.930 . S
H709 C725 0.959 . S
H710 C725 0.959 . S
H711 C725 0.961 . S
H712 C726 0.960 . S
H713 C726 0.961 . S
H714 C726 0.959 . S
H715 C729 0.929 . S
H716 C730 0.931 . S
H717 C732 0.930 . S
C718 H706 0.930 . S
C718 C719 1.399 . S
C718 C723 1.399 1_455 S
C719 C718 1.399 . S
C719 C720 1.376 1_455 S
C720 H707 0.930 . S
C720 C719 1.376 1_655 S
C720 C721 1.388 . S
C721 H708 0.930 . S
C721 C720 1.388 . S
C721 C722 1.390 . S
C722 C721 1.390 . S
C722 C723 1.394 . S
C722 C728 1.465 . S
C723 C718 1.399 1_655 S
C723 C722 1.394 . S
C723 C724 1.516 . S
C724 C723 1.516 . S
C724 C725 1.502 1_655 S
C724 C726 1.561 . S
C724 C727 1.526 . S
C725 H709 0.959 . S
C725 H710 0.959 . S
C725 H711 0.961 . S
C725 C724 1.502 1_455 S
C726 H712 0.960 . S
C726 H713 0.961 . S
C726 H714 0.959 . S
C726 C724 1.561 . S
C727 C724 1.526 . S
C727 C728 1.396 . S
C727 C732 1.390 . S
C728 C722 1.465 . S
C728 C727 1.396 . S
C728 C729 1.399 . S
C729 H715 0.929 . S
C729 C728 1.399 . S
C729 C730 1.385 . S
C730 H716 0.931 . S
C730 C729 1.385 . S
C730 C731 1.389 . S
C731 C730 1.389 . S
C731 C732 1.387 . S
C732 H717 0.930 . S
C732 C727 1.390 . S
C732 C731 1.387 . S
H733 C745 0.930 . S
H734 C747 0.930 . S
H735 C748 0.930 . S
H736 C752 0.959 . S
H737 C752 0.959 . S
H738 C752 0.961 1_565 S
H739 C753 0.960 . S
H740 C753 0.961 . S
H741 C753 0.959 . S
H742 C756 0.930 . S
H743 C757 0.931 . S
H744 C759 0.930 . S
C745 H733 0.930 . S
C745 C746 1.399 1_655 S
C745 C750 1.399 . S
C746 C745 1.399 1_455 S
C746 C747 1.376 . S
C747 H734 0.930 . S
C747 C746 1.376 . S
C747 C748 1.388 . S
C748 H735 0.930 . S
C748 C747 1.388 . S
C748 C749 1.390 . S
C749 C748 1.390 . S
C749 C750 1.394 1_455 S
C749 C755 1.465 . S
C750 C745 1.399 . S
C750 C749 1.394 1_655 S
C750 C751 1.516 . S
C751 C750 1.516 . S
C751 C752 1.502 1_565 S
C751 C753 1.561 . S
C751 C754 1.526 . S
C752 H736 0.959 . S
C752 H737 0.959 . S
C752 H738 0.961 1_545 S
C752 C751 1.502 1_545 S
C753 H739 0.960 . S
C753 H740 0.961 . S
C753 H741 0.959 . S
C753 C751 1.561 . S
C754 C751 1.526 . S
C754 C755 1.396 1_655 S
C754 C759 1.388 1_565 S
C755 C749 1.465 . S
C755 C754 1.396 1_455 S
C755 C756 1.403 . S
C756 H742 0.930 . S
C756 C755 1.403 . S
C756 C757 1.381 1_565 S
C757 H743 0.931 . S
C757 C756 1.381 1_545 S
C757 C758 1.389 1_455 S
C758 C757 1.389 1_655 S
C758 C759 1.388 . S
C759 H744 0.930 . S
C759 C754 1.388 1_545 S
C759 C758 1.388 . S
H760 C772 0.930 . S
H761 C774 0.930 . S
H762 C775 0.930 . S
H763 C779 0.959 . S
H764 C779 0.959 . S
H765 C779 0.961 . S
H766 C780 0.960 . S
H767 C780 0.961 . S
H768 C780 0.959 . S
H769 C783 0.929 . S
H770 C784 0.931 . S
H771 C786 0.930 . S
C772 H760 0.930 . S
C772 C773 1.399 . S
C772 C777 1.399 . S
C773 C772 1.399 . S
C773 C774 1.376 . S
C774 H761 0.930 . S
C774 C773 1.376 . S
C774 C775 1.388 . S
C775 H762 0.930 . S
C775 C774 1.388 . S
C775 C776 1.390 . S
C776 C775 1.390 . S
C776 C777 1.394 . S
C776 C782 1.465 . S
C777 C772 1.399 . S
C777 C776 1.394 . S
C777 C778 1.516 . S
C778 C777 1.516 . S
C778 C779 1.502 . S
C778 C780 1.561 . S
C778 C781 1.526 . S
C779 H763 0.959 . S
C779 H764 0.959 . S
C779 H765 0.961 . S
C779 C778 1.502 . S
C780 H766 0.960 . S
C780 H767 0.961 . S
C780 H768 0.959 . S
C780 C778 1.561 . S
C781 C778 1.526 . S
C781 C782 1.396 . S
C781 C786 1.390 . S
C782 C776 1.465 . S
C782 C781 1.396 . S
C782 C783 1.399 . S
C783 H769 0.929 . S
C783 C782 1.399 . S
C783 C784 1.385 . S
C784 H770 0.931 . S
C784 C783 1.385 . S
C784 C785 1.389 . S
C785 C784 1.389 . S
C785 C786 1.387 . S
C786 H771 0.930 . S
C786 C781 1.390 . S
C786 C785 1.387 . S
H787 C799 0.930 . S
H788 C801 0.930 . S
H789 C802 0.930 . S
H790 C806 0.959 . S
H791 C806 0.959 . S
H792 C806 0.961 . S
H793 C807 0.960 . S
H794 C807 0.961 . S
H795 C807 0.959 . S
H796 C810 0.929 . S
H797 C811 0.931 . S
H798 C813 0.930 . S
C799 H787 0.930 . S
C799 C800 1.399 . S
C799 C804 1.399 . S
C800 C799 1.399 . S
C800 C801 1.376 . S
C801 H788 0.930 . S
C801 C800 1.376 . S
C801 C802 1.388 . S
C802 H789 0.930 . S
C802 C801 1.388 . S
C802 C803 1.390 . S
C803 C802 1.390 . S
C803 C804 1.394 . S
C803 C809 1.465 . S
C804 C799 1.399 . S
C804 C803 1.394 . S
C804 C805 1.516 . S
C805 C804 1.516 . S
C805 C806 1.502 . S
C805 C807 1.561 . S
C805 C808 1.526 . S
C806 H790 0.959 . S
C806 H791 0.959 . S
C806 H792 0.961 . S
C806 C805 1.502 . S
C807 H793 0.960 . S
C807 H794 0.961 . S
C807 H795 0.959 . S
C807 C805 1.561 . S
C808 C805 1.526 . S
C808 C809 1.396 . S
C808 C813 1.390 . S
C809 C803 1.465 . S
C809 C808 1.396 . S
C809 C810 1.399 . S
C810 H796 0.929 . S
C810 C809 1.399 . S
C810 C811 1.385 . S
C811 H797 0.931 . S
C811 C810 1.385 . S
C811 C812 1.389 . S
C812 C811 1.389 . S
C812 C813 1.387 . S
C813 H798 0.930 . S
C813 C808 1.390 . S
C813 C812 1.387 . S
H814 C826 0.930 . S
H815 C828 0.930 . S
H816 C829 0.930 . S
H817 C833 0.959 . S
H818 C833 0.959 . S
H819 C833 0.961 . S
H820 C834 0.960 . S
H821 C834 0.961 . S
H822 C834 0.959 . S
H823 C837 0.929 . S
H824 C838 0.931 . S
H825 C840 0.930 . S
C826 H814 0.930 . S
C826 C827 1.399 . S
C826 C831 1.399 . S
C827 C826 1.399 . S
C827 C828 1.376 . S
C828 H815 0.930 . S
C828 C827 1.376 . S
C828 C829 1.388 . S
C829 H816 0.930 . S
C829 C828 1.388 . S
C829 C830 1.390 . S
C830 C829 1.390 . S
C830 C831 1.394 . S
C830 C836 1.465 . S
C831 C826 1.399 . S
C831 C830 1.394 . S
C831 C832 1.516 . S
C832 C831 1.516 . S
C832 C833 1.502 . S
C832 C834 1.561 . S
C832 C835 1.526 . S
C833 H817 0.959 . S
C833 H818 0.959 . S
C833 H819 0.961 . S
C833 C832 1.502 . S
C834 H820 0.960 . S
C834 H821 0.961 . S
C834 H822 0.959 . S
C834 C832 1.561 . S
C835 C832 1.526 . S
C835 C836 1.396 . S
C835 C840 1.390 . S
C836 C830 1.465 . S
C836 C835 1.396 . S
C836 C837 1.399 . S
C837 H823 0.929 . S
C837 C836 1.399 . S
C837 C838 1.385 . S
C838 H824 0.931 . S
C838 C837 1.385 . S
C838 C839 1.389 . S
C839 C838 1.389 . S
C839 C840 1.387 . S
C840 H825 0.930 . S
C840 C835 1.390 . S
C840 C839 1.387 . S
H841 C853 0.930 . S
H842 C855 0.930 . S
H843 C856 0.930 . S
H844 C860 0.959 . S
H845 C860 0.959 . S
H846 C860 0.961 . S
H847 C861 0.960 . S
H848 C861 0.961 . S
H849 C861 0.959 . S
H850 C864 0.929 . S
H851 C865 0.931 . S
H852 C867 0.930 . S
C853 H841 0.930 . S
C853 C854 1.399 . S
C853 C858 1.399 . S
C854 C853 1.399 . S
C854 C855 1.376 . S
C855 H842 0.930 . S
C855 C854 1.376 . S
C855 C856 1.388 . S
C856 H843 0.930 . S
C856 C855 1.388 . S
C856 C857 1.390 . S
C857 C856 1.390 . S
C857 C858 1.394 . S
C857 C863 1.465 . S
C858 C853 1.399 . S
C858 C857 1.394 . S
C858 C859 1.516 . S
C859 C858 1.516 . S
C859 C860 1.502 . S
C859 C861 1.561 . S
C859 C862 1.526 . S
C860 H844 0.959 . S
C860 H845 0.959 . S
C860 H846 0.961 . S
C860 C859 1.502 . S
C861 H847 0.960 . S
C861 H848 0.961 . S
C861 H849 0.959 . S
C861 C859 1.561 . S
C862 C859 1.526 . S
C862 C863 1.396 . S
C862 C867 1.390 . S
C863 C857 1.465 . S
C863 C862 1.396 . S
C863 C864 1.399 . S
C864 H850 0.929 . S
C864 C863 1.399 . S
C864 C865 1.385 . S
C865 H851 0.931 . S
C865 C864 1.385 . S
C865 C866 1.389 . S
C866 C865 1.389 . S
C866 C867 1.387 . S
C867 H852 0.930 . S
C867 C862 1.390 . S
C867 C866 1.387 . S
H868 C880 0.930 . S
H869 C882 0.930 . S
H870 C883 0.930 . S
H871 C887 0.959 . S
H872 C887 0.959 . S
H873 C887 0.961 . S
H874 C888 0.960 . S
H875 C888 0.961 . S
H876 C888 0.959 . S
H877 C891 0.929 . S
H878 C892 0.931 . S
H879 C894 0.930 . S
C880 H868 0.930 . S
C880 C881 1.399 . S
C880 C885 1.399 . S
C881 C880 1.399 . S
C881 C882 1.376 . S
C882 H869 0.930 . S
C882 C881 1.376 . S
C882 C883 1.388 . S
C883 H870 0.930 . S
C883 C882 1.388 . S
C883 C884 1.390 . S
C884 C883 1.390 . S
C884 C885 1.394 . S
C884 C890 1.465 . S
C885 C880 1.399 . S
C885 C884 1.394 . S
C885 C886 1.516 . S
C886 C885 1.516 . S
C886 C887 1.502 . S
C886 C888 1.561 . S
C886 C889 1.526 . S
C887 H871 0.959 . S
C887 H872 0.959 . S
C887 H873 0.961 . S
C887 C886 1.502 . S
C888 H874 0.960 . S
C888 H875 0.961 . S
C888 H876 0.959 . S
C888 C886 1.561 . S
C889 C886 1.526 . S
C889 C890 1.396 . S
C889 C894 1.390 . S
C890 C884 1.465 . S
C890 C889 1.396 . S
C890 C891 1.399 . S
C891 H877 0.929 . S
C891 C890 1.399 . S
C891 C892 1.385 . S
C892 H878 0.931 . S
C892 C891 1.385 . S
C892 C893 1.389 . S
C893 C892 1.389 . S
C893 C894 1.387 . S
C894 H879 0.930 . S
C894 C889 1.390 . S
C894 C893 1.387 . S
H895 C907 0.930 . S
H896 C909 0.930 . S
H897 C910 0.930 . S
H898 C914 0.959 . S
H899 C914 0.959 . S
H900 C914 0.961 . S
H901 C915 0.960 . S
H902 C915 0.961 . S
H903 C915 0.959 . S
H904 C918 0.929 . S
H905 C919 0.931 . S
H906 C921 0.930 . S
C907 H895 0.930 . S
C907 C908 1.399 . S
C907 C912 1.399 . S
C908 C907 1.399 . S
C908 C909 1.376 . S
C909 H896 0.930 . S
C909 C908 1.376 . S
C909 C910 1.388 . S
C910 H897 0.930 . S
C910 C909 1.388 . S
C910 C911 1.390 . S
C911 C910 1.390 . S
C911 C912 1.394 . S
C911 C917 1.465 . S
C912 C907 1.399 . S
C912 C911 1.394 . S
C912 C913 1.516 . S
C913 C912 1.516 . S
C913 C914 1.502 . S
C913 C915 1.561 . S
C913 C916 1.526 . S
C914 H898 0.959 . S
C914 H899 0.959 . S
C914 H900 0.961 . S
C914 C913 1.502 . S
C915 H901 0.960 . S
C915 H902 0.961 . S
C915 H903 0.959 . S
C915 C913 1.561 . S
C916 C913 1.526 . S
C916 C917 1.396 . S
C916 C921 1.390 . S
C917 C911 1.465 . S
C917 C916 1.396 . S
C917 C918 1.399 . S
C918 H904 0.929 . S
C918 C917 1.399 . S
C918 C919 1.385 . S
C919 H905 0.931 . S
C919 C918 1.385 . S
C919 C920 1.389 . S
C920 C919 1.389 . S
C920 C921 1.387 . S
C921 H906 0.930 . S
C921 C916 1.390 . S
C921 C920 1.387 . S
H922 C934 0.930 . S
H923 C936 0.930 . S
H924 C937 0.930 . S
H925 C941 0.959 . S
H926 C941 0.959 . S
H927 C941 0.961 . S
H928 C942 0.960 . S
H929 C942 0.961 . S
H930 C942 0.959 . S
H931 C945 0.929 . S
H932 C946 0.931 . S
H933 C948 0.930 . S
C934 H922 0.930 . S
C934 C935 1.399 . S
C934 C939 1.399 . S
C935 C934 1.399 . S
C935 C936 1.376 . S
C936 H923 0.930 . S
C936 C935 1.376 . S
C936 C937 1.388 . S
C937 H924 0.930 . S
C937 C936 1.388 . S
C937 C938 1.390 . S
C938 C937 1.390 . S
C938 C939 1.394 . S
C938 C944 1.465 . S
C939 C934 1.399 . S
C939 C938 1.394 . S
C939 C940 1.516 . S
C940 C939 1.516 . S
C940 C941 1.502 . S
C940 C942 1.561 . S
C940 C943 1.526 . S
C941 H925 0.959 . S
C941 H926 0.959 . S
C941 H927 0.961 . S
C941 C940 1.502 . S
C942 H928 0.960 . S
C942 H929 0.961 . S
C942 H930 0.959 . S
C942 C940 1.561 . S
C943 C940 1.526 . S
C943 C944 1.396 . S
C943 C948 1.390 . S
C944 C938 1.465 . S
C944 C943 1.396 . S
C944 C945 1.399 . S
C945 H931 0.929 . S
C945 C944 1.399 . S
C945 C946 1.385 . S
C946 H932 0.931 . S
C946 C945 1.385 . S
C946 C947 1.389 . S
C947 C946 1.389 . S
C947 C948 1.387 . S
C948 H933 0.930 . S
C948 C943 1.390 . S
C948 C947 1.387 . S
H949 C961 0.930 . S
H950 C963 0.930 . S
H951 C964 0.930 . S
H952 C968 0.959 . S
H953 C968 0.959 . S
H954 C968 0.961 . S
H955 C969 0.960 . S
H956 C969 0.961 . S
H957 C969 0.959 . S
H958 C972 0.929 . S
H959 C973 0.931 . S
H960 C975 0.930 . S
C961 H949 0.930 . S
C961 C962 1.399 . S
C961 C966 1.399 . S
C962 C961 1.399 . S
C962 C963 1.376 . S
C963 H950 0.930 . S
C963 C962 1.376 . S
C963 C964 1.388 . S
C964 H951 0.930 . S
C964 C963 1.388 . S
C964 C965 1.390 . S
C965 C964 1.390 . S
C965 C966 1.394 . S
C965 C971 1.465 . S
C966 C961 1.399 . S
C966 C965 1.394 . S
C966 C967 1.516 . S
C967 C966 1.516 . S
C967 C968 1.502 . S
C967 C969 1.561 . S
C967 C970 1.526 . S
C968 H952 0.959 . S
C968 H953 0.959 . S
C968 H954 0.961 . S
C968 C967 1.502 . S
C969 H955 0.960 . S
C969 H956 0.961 . S
C969 H957 0.959 . S
C969 C967 1.561 . S
C970 C967 1.526 . S
C970 C971 1.396 . S
C970 C975 1.390 . S
C971 C965 1.465 . S
C971 C970 1.396 . S
C971 C972 1.399 . S
C972 H958 0.929 . S
C972 C971 1.399 . S
C972 C973 1.385 . S
C973 H959 0.931 . S
C973 C972 1.385 . S
C973 C974 1.389 . S
C974 C973 1.389 . S
C974 C975 1.387 . S
C975 H960 0.930 . S
C975 C970 1.390 . S
C975 C974 1.387 . S
H976 C988 0.930 . S
H977 C990 0.930 . S
H978 C991 0.930 . S
H979 C995 0.959 . S
H980 C995 0.959 . S
H981 C995 0.961 . S
H982 C996 0.960 . S
H983 C996 0.961 . S
H984 C996 0.959 . S
H985 C999 0.929 . S
H986 C1000 0.931 . S
H987 C1002 0.930 . S
C988 H976 0.930 . S
C988 C989 1.399 . S
C988 C993 1.399 . S
C989 C988 1.399 . S
C989 C990 1.376 . S
C990 H977 0.930 . S
C990 C989 1.376 . S
C990 C991 1.388 . S
C991 H978 0.930 . S
C991 C990 1.388 . S
C991 C992 1.390 . S
C992 C991 1.390 . S
C992 C993 1.394 . S
C992 C998 1.465 . S
C993 C988 1.399 . S
C993 C992 1.394 . S
C993 C994 1.516 . S
C994 C993 1.516 . S
C994 C995 1.502 . S
C994 C996 1.561 . S
C994 C997 1.526 . S
C995 H979 0.959 . S
C995 H980 0.959 . S
C995 H981 0.961 . S
C995 C994 1.502 . S
C996 H982 0.960 . S
C996 H983 0.961 . S
C996 H984 0.959 . S
C996 C994 1.561 . S
C997 C994 1.526 . S
C997 C998 1.396 . S
C997 C1002 1.390 . S
C998 C992 1.465 . S
C998 C997 1.396 . S
C998 C999 1.399 . S
C999 H985 0.929 . S
C999 C998 1.399 . S
C999 C1000 1.385 . S
C1000 H986 0.931 . S
C1000 C999 1.385 . S
C1000 C1001 1.389 . S
C1001 C1000 1.389 . S
C1001 C1002 1.387 . S
C1002 H987 0.930 . S
C1002 C997 1.390 . S
C1002 C1001 1.387 . S
H1003 C1015 0.930 . S
H1004 C1017 0.930 . S
H1005 C1018 0.930 . S
H1006 C1022 0.959 . S
H1007 C1022 0.959 . S
H1008 C1022 0.961 . S
H1009 C1023 0.960 . S
H1010 C1023 0.961 . S
H1011 C1023 0.959 . S
H1012 C1026 0.929 . S
H1013 C1027 0.931 . S
H1014 C1029 0.930 . S
C1015 H1003 0.930 . S
C1015 C1016 1.399 . S
C1015 C1020 1.399 . S
C1016 C1015 1.399 . S
C1016 C1017 1.376 . S
C1017 H1004 0.930 . S
C1017 C1016 1.376 . S
C1017 C1018 1.388 . S
C1018 H1005 0.930 . S
C1018 C1017 1.388 . S
C1018 C1019 1.390 . S
C1019 C1018 1.390 . S
C1019 C1020 1.394 . S
C1019 C1025 1.465 . S
C1020 C1015 1.399 . S
C1020 C1019 1.394 . S
C1020 C1021 1.516 . S
C1021 C1020 1.516 . S
C1021 C1022 1.502 . S
C1021 C1023 1.561 . S
C1021 C1024 1.526 . S
C1022 H1006 0.959 . S
C1022 H1007 0.959 . S
C1022 H1008 0.961 . S
C1022 C1021 1.502 . S
C1023 H1009 0.960 . S
C1023 H1010 0.961 . S
C1023 H1011 0.959 . S
C1023 C1021 1.561 . S
C1024 C1021 1.526 . S
C1024 C1025 1.396 . S
C1024 C1029 1.390 . S
C1025 C1019 1.465 . S
C1025 C1024 1.396 . S
C1025 C1026 1.399 . S
C1026 H1012 0.929 . S
C1026 C1025 1.399 . S
C1026 C1027 1.385 . S
C1027 H1013 0.931 . S
C1027 C1026 1.385 . S
C1027 C1028 1.389 . S
C1028 C1027 1.389 . S
C1028 C1029 1.387 . S
C1029 H1014 0.930 . S
C1029 C1024 1.390 . S
C1029 C1028 1.387 . S
H1030 C1042 0.930 1_455 S
H1031 C1044 0.930 . S
H1032 C1045 0.930 . S
H1033 C1049 0.959 . S
H1034 C1049 0.959 . S
H1035 C1049 0.961 . S
H1036 C1050 0.960 . S
H1037 C1050 0.961 . S
H1038 C1050 0.959 . S
H1039 C1053 0.929 . S
H1040 C1054 0.931 . S
H1041 C1056 0.930 . S
C1042 H1030 0.930 1_655 S
C1042 C1043 1.399 . S
C1042 C1047 1.399 . S
C1043 C1042 1.399 . S
C1043 C1044 1.376 . S
C1044 H1031 0.930 . S
C1044 C1043 1.376 . S
C1044 C1045 1.388 . S
C1045 H1032 0.930 . S
C1045 C1044 1.388 . S
C1045 C1046 1.390 . S
C1046 C1045 1.390 . S
C1046 C1047 1.394 . S
C1046 C1052 1.465 . S
C1047 C1042 1.399 . S
C1047 C1046 1.394 . S
C1047 C1048 1.516 1_655 S
C1048 C1047 1.516 1_455 S
C1048 C1049 1.502 . S
C1048 C1050 1.561 1_455 S
C1048 C1051 1.526 1_455 S
C1049 H1033 0.959 . S
C1049 H1034 0.959 . S
C1049 H1035 0.961 . S
C1049 C1048 1.502 . S
C1050 H1036 0.960 . S
C1050 H1037 0.961 . S
C1050 H1038 0.959 . S
C1050 C1048 1.561 1_655 S
C1051 C1048 1.526 1_655 S
C1051 C1052 1.396 . S
C1051 C1056 1.390 1_655 S
C1052 C1046 1.465 . S
C1052 C1051 1.396 . S
C1052 C1053 1.399 . S
C1053 H1039 0.929 . S
C1053 C1052 1.399 . S
C1053 C1054 1.385 . S
C1054 H1040 0.931 . S
C1054 C1053 1.385 . S
C1054 C1055 1.389 . S
C1055 C1054 1.389 . S
C1055 C1056 1.387 1_655 S
C1056 H1041 0.930 . S
C1056 C1051 1.390 1_455 S
C1056 C1055 1.387 1_455 S
H1057 C1069 0.930 . S
H1058 C1071 0.930 . S
H1059 C1072 0.930 . S
H1060 C1076 0.959 . S
H1061 C1076 0.959 . S
H1062 C1076 0.961 . S
H1063 C1077 0.960 . S
H1064 C1077 0.961 . S
H1065 C1077 0.959 . S
H1066 C1080 0.929 . S
H1067 C1081 0.931 . S
H1068 C1083 0.930 . S
C1069 H1057 0.930 . S
C1069 C1070 1.399 1_545 S
C1069 C1074 1.399 . S
C1070 C1069 1.399 1_565 S
C1070 C1071 1.376 . S
C1071 H1058 0.930 . S
C1071 C1070 1.376 . S
C1071 C1072 1.388 . S
C1072 H1059 0.930 . S
C1072 C1071 1.388 . S
C1072 C1073 1.390 . S
C1073 C1072 1.390 . S
C1073 C1074 1.394 1_565 S
C1073 C1079 1.465 . S
C1074 C1069 1.399 . S
C1074 C1073 1.394 1_545 S
C1074 C1075 1.516 . S
C1075 C1074 1.516 . S
C1075 C1076 1.502 . S
C1075 C1077 1.561 . S
C1075 C1078 1.526 . S
C1076 H1060 0.959 . S
C1076 H1061 0.959 . S
C1076 H1062 0.961 . S
C1076 C1075 1.502 . S
C1077 H1063 0.960 . S
C1077 H1064 0.961 . S
C1077 H1065 0.959 . S
C1077 C1075 1.561 . S
C1078 C1075 1.526 . S
C1078 C1079 1.396 1_545 S
C1078 C1083 1.390 . S
C1079 C1073 1.465 . S
C1079 C1078 1.396 1_565 S
C1079 C1080 1.399 . S
C1080 H1066 0.929 . S
C1080 C1079 1.399 . S
C1080 C1081 1.385 . S
C1081 H1067 0.931 . S
C1081 C1080 1.385 . S
C1081 C1082 1.389 . S
C1082 C1081 1.389 . S
C1082 C1083 1.387 1_565 S
C1083 H1068 0.930 . S
C1083 C1078 1.390 . S
C1083 C1082 1.387 1_545 S
H1084 C1096 0.930 . S
H1085 C1098 0.930 . S
H1086 C1099 0.930 . S
H1087 C1103 0.959 . S
H1088 C1103 0.959 . S
H1089 C1103 0.961 . S
H1090 C1104 0.960 . S
H1091 C1104 0.961 . S
H1092 C1104 0.959 . S
H1093 C1107 0.929 . S
H1094 C1108 0.931 . S
H1095 C1110 0.930 . S
C1096 H1084 0.930 . S
C1096 C1097 1.399 . S
C1096 C1101 1.399 . S
C1097 C1096 1.399 . S
C1097 C1098 1.376 . S
C1098 H1085 0.930 . S
C1098 C1097 1.376 . S
C1098 C1099 1.388 . S
C1099 H1086 0.930 . S
C1099 C1098 1.388 . S
C1099 C1100 1.390 . S
C1100 C1099 1.390 . S
C1100 C1101 1.394 . S
C1100 C1106 1.465 . S
C1101 C1096 1.399 . S
C1101 C1100 1.394 . S
C1101 C1102 1.516 . S
C1102 C1101 1.516 . S
C1102 C1103 1.502 . S
C1102 C1104 1.561 . S
C1102 C1105 1.526 . S
C1103 H1087 0.959 . S
C1103 H1088 0.959 . S
C1103 H1089 0.961 . S
C1103 C1102 1.502 . S
C1104 H1090 0.960 . S
C1104 H1091 0.961 . S
C1104 H1092 0.959 . S
C1104 C1102 1.561 . S
C1105 C1102 1.526 . S
C1105 C1106 1.396 . S
C1105 C1110 1.390 . S
C1106 C1100 1.465 . S
C1106 C1105 1.396 . S
C1106 C1107 1.399 . S
C1107 H1093 0.929 . S
C1107 C1106 1.399 . S
C1107 C1108 1.385 . S
C1108 H1094 0.931 . S
C1108 C1107 1.385 . S
C1108 C1109 1.389 . S
C1109 C1108 1.389 . S
C1109 C1110 1.387 . S
C1110 H1095 0.930 . S
C1110 C1105 1.390 . S
C1110 C1109 1.387 . S
H1111 C1123 0.930 . S
H1112 C1125 0.930 . S
H1113 C1126 0.930 . S
H1114 C1130 0.959 . S
H1115 C1130 0.959 . S
H1116 C1130 0.961 . S
H1117 C1131 0.960 . S
H1118 C1131 0.961 . S
H1119 C1131 0.959 . S
H1120 C1134 0.929 . S
H1121 C1135 0.931 . S
H1122 C1137 0.930 . S
C1123 H1111 0.930 . S
C1123 C1124 1.399 . S
C1123 C1128 1.399 . S
C1124 C1123 1.399 . S
C1124 C1125 1.376 . S
C1125 H1112 0.930 . S
C1125 C1124 1.376 . S
C1125 C1126 1.388 . S
C1126 H1113 0.930 . S
C1126 C1125 1.388 . S
C1126 C1127 1.390 . S
C1127 C1126 1.390 . S
C1127 C1128 1.394 . S
C1127 C1133 1.465 . S
C1128 C1123 1.399 . S
C1128 C1127 1.394 . S
C1128 C1129 1.516 . S
C1129 C1128 1.516 . S
C1129 C1130 1.502 . S
C1129 C1131 1.561 . S
C1129 C1132 1.526 . S
C1130 H1114 0.959 . S
C1130 H1115 0.959 . S
C1130 H1116 0.961 . S
C1130 C1129 1.502 . S
C1131 H1117 0.960 . S
C1131 H1118 0.961 . S
C1131 H1119 0.959 . S
C1131 C1129 1.561 . S
C1132 C1129 1.526 . S
C1132 C1133 1.396 . S
C1132 C1137 1.390 . S
C1133 C1127 1.465 . S
C1133 C1132 1.396 . S
C1133 C1134 1.399 . S
C1134 H1120 0.929 . S
C1134 C1133 1.399 . S
C1134 C1135 1.385 . S
C1135 H1121 0.931 . S
C1135 C1134 1.385 . S
C1135 C1136 1.389 . S
C1136 C1135 1.389 . S
C1136 C1137 1.387 . S
C1137 H1122 0.930 . S
C1137 C1132 1.390 . S
C1137 C1136 1.387 . S
H1138 C1150 0.930 . S
H1139 C1152 0.930 . S
H1140 C1153 0.930 . S
H1141 C1157 0.959 . S
H1142 C1157 0.959 . S
H1143 C1157 0.961 . S
H1144 C1158 0.960 . S
H1145 C1158 0.961 . S
H1146 C1158 0.959 . S
H1147 C1161 0.929 . S
H1148 C1162 0.931 . S
H1149 C1164 0.930 . S
C1150 H1138 0.930 . S
C1150 C1151 1.399 . S
C1150 C1155 1.399 . S
C1151 C1150 1.399 . S
C1151 C1152 1.376 1_655 S
C1152 H1139 0.930 . S
C1152 C1151 1.376 1_455 S
C1152 C1153 1.388 . S
C1153 H1140 0.930 . S
C1153 C1152 1.388 . S
C1153 C1154 1.390 . S
C1154 C1153 1.390 . S
C1154 C1155 1.394 1_455 S
C1154 C1160 1.465 . S
C1155 C1150 1.399 . S
C1155 C1154 1.394 1_655 S
C1155 C1156 1.516 . S
C1156 C1155 1.516 . S
C1156 C1157 1.502 . S
C1156 C1158 1.561 1_655 S
C1156 C1159 1.526 . S
C1157 H1141 0.959 . S
C1157 H1142 0.959 . S
C1157 H1143 0.961 . S
C1157 C1156 1.502 . S
C1158 H1144 0.960 . S
C1158 H1145 0.961 . S
C1158 H1146 0.959 . S
C1158 C1156 1.561 1_455 S
C1159 C1156 1.526 . S
C1159 C1160 1.396 1_655 S
C1159 C1164 1.390 . S
C1160 C1154 1.465 . S
C1160 C1159 1.396 1_455 S
C1160 C1161 1.399 . S
C1161 H1147 0.929 . S
C1161 C1160 1.399 . S
C1161 C1162 1.385 . S
C1162 H1148 0.931 . S
C1162 C1161 1.385 . S
C1162 C1163 1.389 . S
C1163 C1162 1.389 . S
C1163 C1164 1.387 1_455 S
C1164 H1149 0.930 . S
C1164 C1159 1.390 . S
C1164 C1163 1.387 1_655 S
H1165 C1177 0.930 . S
H1166 C1179 0.930 . S
H1167 C1180 0.930 . S
H1168 C1184 0.959 . S
H1169 C1184 0.959 . S
H1170 C1184 0.961 . S
H1171 C1185 0.960 . S
H1172 C1185 0.961 . S
H1173 C1185 0.959 1_565 S
H1174 C1188 0.929 . S
H1175 C1189 0.931 . S
H1176 C1191 0.930 . S
C1177 H1165 0.930 . S
C1177 C1178 1.399 1_545 S
C1177 C1182 1.399 . S
C1178 C1177 1.399 1_565 S
C1178 C1179 1.376 . S
C1179 H1166 0.930 . S
C1179 C1178 1.376 . S
C1179 C1180 1.388 . S
C1180 H1167 0.930 . S
C1180 C1179 1.388 . S
C1180 C1181 1.390 . S
C1181 C1180 1.390 . S
C1181 C1182 1.394 1_565 S
C1181 C1187 1.465 . S
C1182 C1177 1.399 . S
C1182 C1181 1.394 1_545 S
C1182 C1183 1.516 . S
C1183 C1182 1.516 . S
C1183 C1184 1.502 . S
C1183 C1185 1.561 . S
C1183 C1186 1.526 . S
C1184 H1168 0.959 . S
C1184 H1169 0.959 . S
C1184 H1170 0.961 . S
C1184 C1183 1.502 . S
C1185 H1171 0.960 . S
C1185 H1172 0.961 . S
C1185 H1173 0.959 1_545 S
C1185 C1183 1.561 . S
C1186 C1183 1.526 . S
C1186 C1187 1.396 1_545 S
C1186 C1191 1.390 . S
C1187 C1181 1.465 . S
C1187 C1186 1.396 1_565 S
C1187 C1188 1.399 . S
C1188 H1174 0.929 . S
C1188 C1187 1.399 . S
C1188 C1189 1.385 . S
C1189 H1175 0.931 . S
C1189 C1188 1.385 . S
C1189 C1190 1.389 . S
C1190 C1189 1.389 . S
C1190 C1191 1.387 1_565 S
C1191 H1176 0.930 . S
C1191 C1186 1.390 . S
C1191 C1190 1.387 1_545 S
H1192 C1204 0.930 . S
H1193 C1206 0.930 . S
H1194 C1207 0.930 . S
H1195 C1211 0.959 . S
H1196 C1211 0.959 . S
H1197 C1211 0.961 . S
H1198 C1212 0.960 . S
H1199 C1212 0.961 . S
H1200 C1212 0.959 . S
H1201 C1215 0.929 . S
H1202 C1216 0.931 . S
H1203 C1218 0.930 . S
C1204 H1192 0.930 . S
C1204 C1205 1.399 . S
C1204 C1209 1.399 . S
C1205 C1204 1.399 . S
C1205 C1206 1.376 . S
C1206 H1193 0.930 . S
C1206 C1205 1.376 . S
C1206 C1207 1.388 . S
C1207 H1194 0.930 . S
C1207 C1206 1.388 . S
C1207 C1208 1.390 . S
C1208 C1207 1.390 . S
C1208 C1209 1.394 . S
C1208 C1214 1.465 . S
C1209 C1204 1.399 . S
C1209 C1208 1.394 . S
C1209 C1210 1.516 . S
C1210 C1209 1.516 . S
C1210 C1211 1.502 . S
C1210 C1212 1.561 . S
C1210 C1213 1.526 . S
C1211 H1195 0.959 . S
C1211 H1196 0.959 . S
C1211 H1197 0.961 . S
C1211 C1210 1.502 . S
C1212 H1198 0.960 . S
C1212 H1199 0.961 . S
C1212 H1200 0.959 . S
C1212 C1210 1.561 . S
C1213 C1210 1.526 . S
C1213 C1214 1.396 . S
C1213 C1218 1.390 . S
C1214 C1208 1.465 . S
C1214 C1213 1.396 . S
C1214 C1215 1.399 . S
C1215 H1201 0.929 . S
C1215 C1214 1.399 . S
C1215 C1216 1.385 . S
C1216 H1202 0.931 . S
C1216 C1215 1.385 . S
C1216 C1217 1.389 . S
C1217 C1216 1.389 . S
C1217 C1218 1.387 . S
C1218 H1203 0.930 . S
C1218 C1213 1.390 . S
C1218 C1217 1.387 . S
H1219 C1231 0.930 . S
H1220 C1233 0.930 . S
H1221 C1234 0.930 . S
H1222 C1238 0.959 . S
H1223 C1238 0.959 . S
H1224 C1238 0.961 . S
H1225 C1239 0.960 . S
H1226 C1239 0.961 . S
H1227 C1239 0.959 . S
H1228 C1242 0.929 . S
H1229 C1243 0.931 . S
H1230 C1245 0.930 . S
C1231 H1219 0.930 . S
C1231 C1232 1.399 . S
C1231 C1236 1.399 . S
C1232 C1231 1.399 . S
C1232 C1233 1.376 . S
C1233 H1220 0.930 . S
C1233 C1232 1.376 . S
C1233 C1234 1.388 . S
C1234 H1221 0.930 . S
C1234 C1233 1.388 . S
C1234 C1235 1.390 . S
C1235 C1234 1.390 . S
C1235 C1236 1.394 . S
C1235 C1241 1.465 . S
C1236 C1231 1.399 . S
C1236 C1235 1.394 . S
C1236 C1237 1.516 . S
C1237 C1236 1.516 . S
C1237 C1238 1.502 . S
C1237 C1239 1.561 . S
C1237 C1240 1.526 . S
C1238 H1222 0.959 . S
C1238 H1223 0.959 . S
C1238 H1224 0.961 . S
C1238 C1237 1.502 . S
C1239 H1225 0.960 . S
C1239 H1226 0.961 . S
C1239 H1227 0.959 . S
C1239 C1237 1.561 . S
C1240 C1237 1.526 . S
C1240 C1241 1.396 . S
C1240 C1245 1.390 . S
C1241 C1235 1.465 . S
C1241 C1240 1.396 . S
C1241 C1242 1.399 . S
C1242 H1228 0.929 . S
C1242 C1241 1.399 . S
C1242 C1243 1.385 . S
C1243 H1229 0.931 . S
C1243 C1242 1.385 . S
C1243 C1244 1.389 . S
C1244 C1243 1.389 . S
C1244 C1245 1.387 . S
C1245 H1230 0.930 . S
C1245 C1240 1.390 . S
C1245 C1244 1.387 . S
H1246 C1258 0.930 1_655 S
H1247 C1260 0.930 . S
H1248 C1261 0.930 . S
H1249 C1265 0.959 . S
H1250 C1265 0.959 . S
H1251 C1265 0.961 . S
H1252 C1266 0.960 . S
H1253 C1266 0.961 . S
H1254 C1266 0.959 . S
H1255 C1269 0.929 . S
H1256 C1270 0.931 . S
H1257 C1272 0.930 . S
C1258 H1246 0.930 1_455 S
C1258 C1259 1.399 . S
C1258 C1263 1.399 . S
C1259 C1258 1.399 . S
C1259 C1260 1.376 . S
C1260 H1247 0.930 . S
C1260 C1259 1.376 . S
C1260 C1261 1.388 . S
C1261 H1248 0.930 . S
C1261 C1260 1.388 . S
C1261 C1262 1.390 . S
C1262 C1261 1.390 . S
C1262 C1263 1.394 . S
C1262 C1268 1.465 . S
C1263 C1258 1.399 . S
C1263 C1262 1.394 . S
C1263 C1264 1.516 . S
C1264 C1263 1.516 . S
C1264 C1265 1.502 1_455 S
C1264 C1266 1.561 . S
C1264 C1267 1.526 . S
C1265 H1249 0.959 . S
C1265 H1250 0.959 . S
C1265 H1251 0.961 . S
C1265 C1264 1.502 1_655 S
C1266 H1252 0.960 . S
C1266 H1253 0.961 . S
C1266 H1254 0.959 . S
C1266 C1264 1.561 . S
C1267 C1264 1.526 . S
C1267 C1268 1.396 . S
C1267 C1272 1.390 . S
C1268 C1262 1.465 . S
C1268 C1267 1.396 . S
C1268 C1269 1.399 . S
C1269 H1255 0.929 . S
C1269 C1268 1.399 . S
C1269 C1270 1.385 . S
C1270 H1256 0.931 . S
C1270 C1269 1.385 . S
C1270 C1271 1.389 . S
C1271 C1270 1.389 . S
C1271 C1272 1.387 . S
C1272 H1257 0.930 . S
C1272 C1267 1.390 . S
C1272 C1271 1.387 . S
H1273 C1285 0.930 . S
H1274 C1287 0.930 . S
H1275 C1288 0.930 . S
H1276 C1292 0.959 . S
H1277 C1292 0.959 . S
H1278 C1292 0.961 . S
H1279 C1293 0.960 . S
H1280 C1293 0.961 . S
H1281 C1293 0.959 . S
H1282 C1296 0.929 . S
H1283 C1297 0.931 . S
H1284 C1299 0.930 . S
C1285 H1273 0.930 . S
C1285 C1286 1.399 . S
C1285 C1290 1.399 . S
C1286 C1285 1.399 . S
C1286 C1287 1.376 1_545 S
C1287 H1274 0.930 . S
C1287 C1286 1.376 1_565 S
C1287 C1288 1.388 . S
C1288 H1275 0.930 . S
C1288 C1287 1.388 . S
C1288 C1289 1.390 1_565 S
C1289 C1288 1.390 1_545 S
C1289 C1290 1.394 . S
C1289 C1295 1.465 . S
C1290 C1285 1.399 . S
C1290 C1289 1.394 . S
C1290 C1291 1.516 . S
C1291 C1290 1.516 . S
C1291 C1292 1.502 . S
C1291 C1293 1.561 . S
C1291 C1294 1.526 . S
C1292 H1276 0.959 . S
C1292 H1277 0.959 . S
C1292 H1278 0.961 . S
C1292 C1291 1.502 . S
C1293 H1279 0.960 . S
C1293 H1280 0.961 . S
C1293 H1281 0.959 . S
C1293 C1291 1.561 . S
C1294 C1291 1.526 . S
C1294 C1295 1.396 . S
C1294 C1299 1.390 . S
C1295 C1289 1.465 . S
C1295 C1294 1.396 . S
C1295 C1296 1.399 1_545 S
C1296 H1282 0.929 . S
C1296 C1295 1.399 1_565 S
C1296 C1297 1.385 . S
C1297 H1283 0.931 . S
C1297 C1296 1.385 . S
C1297 C1298 1.389 1_565 S
C1298 C1297 1.389 1_545 S
C1298 C1299 1.387 . S
C1299 H1284 0.930 . S
C1299 C1294 1.390 . S
C1299 C1298 1.387 . S
H1300 C1312 0.930 . S
H1301 C1314 0.930 . S
H1302 C1315 0.930 . S
H1303 C1319 0.959 . S
H1304 C1319 0.959 . S
H1305 C1319 0.961 . S
H1306 C1320 0.960 . S
H1307 C1320 0.961 . S
H1308 C1320 0.959 . S
H1309 C1323 0.929 . S
H1310 C1324 0.931 . S
H1311 C1326 0.930 . S
C1312 H1300 0.930 . S
C1312 C1313 1.399 . S
C1312 C1317 1.399 . S
C1313 C1312 1.399 . S
C1313 C1314 1.376 . S
C1314 H1301 0.930 . S
C1314 C1313 1.376 . S
C1314 C1315 1.388 . S
C1315 H1302 0.930 . S
C1315 C1314 1.388 . S
C1315 C1316 1.390 . S
C1316 C1315 1.390 . S
C1316 C1317 1.394 . S
C1316 C1322 1.465 . S
C1317 C1312 1.399 . S
C1317 C1316 1.394 . S
C1317 C1318 1.516 . S
C1318 C1317 1.516 . S
C1318 C1319 1.502 . S
C1318 C1320 1.561 . S
C1318 C1321 1.526 . S
C1319 H1303 0.959 . S
C1319 H1304 0.959 . S
C1319 H1305 0.961 . S
C1319 C1318 1.502 . S
C1320 H1306 0.960 . S
C1320 H1307 0.961 . S
C1320 H1308 0.959 . S
C1320 C1318 1.561 . S
C1321 C1318 1.526 . S
C1321 C1322 1.396 . S
C1321 C1326 1.390 . S
C1322 C1316 1.465 . S
C1322 C1321 1.396 . S
C1322 C1323 1.399 . S
C1323 H1309 0.929 . S
C1323 C1322 1.399 . S
C1323 C1324 1.385 . S
C1324 H1310 0.931 . S
C1324 C1323 1.385 . S
C1324 C1325 1.389 . S
C1325 C1324 1.389 . S
C1325 C1326 1.387 . S
C1326 H1311 0.930 . S
C1326 C1321 1.390 . S
C1326 C1325 1.387 . S
H1327 C1339 0.930 . S
H1328 C1341 0.930 . S
H1329 C1342 0.930 . S
H1330 C1346 0.959 . S
H1331 C1346 0.959 . S
H1332 C1346 0.961 . S
H1333 C1347 0.960 . S
H1334 C1347 0.961 . S
H1335 C1347 0.959 . S
H1336 C1350 0.929 . S
H1337 C1351 0.931 . S
H1338 C1353 0.930 . S
C1339 H1327 0.930 . S
C1339 C1340 1.399 . S
C1339 C1344 1.399 . S
C1340 C1339 1.399 . S
C1340 C1341 1.376 . S
C1341 H1328 0.930 . S
C1341 C1340 1.376 . S
C1341 C1342 1.388 . S
C1342 H1329 0.930 . S
C1342 C1341 1.388 . S
C1342 C1343 1.390 . S
C1343 C1342 1.390 . S
C1343 C1344 1.394 . S
C1343 C1349 1.465 . S
C1344 C1339 1.399 . S
C1344 C1343 1.394 . S
C1344 C1345 1.516 . S
C1345 C1344 1.516 . S
C1345 C1346 1.502 . S
C1345 C1347 1.561 . S
C1345 C1348 1.526 . S
C1346 H1330 0.959 . S
C1346 H1331 0.959 . S
C1346 H1332 0.961 . S
C1346 C1345 1.502 . S
C1347 H1333 0.960 . S
C1347 H1334 0.961 . S
C1347 H1335 0.959 . S
C1347 C1345 1.561 . S
C1348 C1345 1.526 . S
C1348 C1349 1.396 . S
C1348 C1353 1.390 . S
C1349 C1343 1.465 . S
C1349 C1348 1.396 . S
C1349 C1350 1.399 . S
C1350 H1336 0.929 . S
C1350 C1349 1.399 . S
C1350 C1351 1.385 . S
C1351 H1337 0.931 . S
C1351 C1350 1.385 . S
C1351 C1352 1.389 . S
C1352 C1351 1.389 . S
C1352 C1353 1.387 . S
C1353 H1338 0.930 . S
C1353 C1348 1.390 . S
C1353 C1352 1.387 . S
H1354 C1366 0.930 . S
H1355 C1368 0.930 . S
H1356 C1369 0.930 . S
H1357 C1373 0.959 . S
H1358 C1373 0.959 . S
H1359 C1373 0.961 . S
H1360 C1374 0.960 . S
H1361 C1374 0.961 . S
H1362 C1374 0.959 1_655 S
H1363 C1377 0.929 1_655 S
H1364 C1378 0.931 . S
H1365 C1380 0.930 . S
C1366 H1354 0.930 . S
C1366 C1367 1.399 . S
C1366 C1371 1.399 . S
C1367 C1366 1.399 . S
C1367 C1368 1.376 1_455 S
C1368 H1355 0.930 . S
C1368 C1367 1.376 1_655 S
C1368 C1369 1.388 . S
C1369 H1356 0.930 . S
C1369 C1368 1.388 . S
C1369 C1370 1.390 1_655 S
C1370 C1369 1.390 1_455 S
C1370 C1371 1.394 . S
C1370 C1376 1.465 . S
C1371 C1366 1.399 . S
C1371 C1370 1.394 . S
C1371 C1372 1.516 . S
C1372 C1371 1.516 . S
C1372 C1373 1.502 . S
C1372 C1374 1.561 . S
C1372 C1375 1.526 . S
C1373 H1357 0.959 . S
C1373 H1358 0.959 . S
C1373 H1359 0.961 . S
C1373 C1372 1.502 . S
C1374 H1360 0.960 . S
C1374 H1361 0.961 . S
C1374 H1362 0.959 1_455 S
C1374 C1372 1.561 . S
C1375 C1372 1.526 . S
C1375 C1376 1.396 . S
C1375 C1380 1.390 . S
C1376 C1370 1.465 . S
C1376 C1375 1.396 . S
C1376 C1377 1.399 . S
C1377 H1363 0.929 1_455 S
C1377 C1376 1.399 . S
C1377 C1378 1.385 . S
C1378 H1364 0.931 . S
C1378 C1377 1.385 . S
C1378 C1379 1.389 . S
C1379 C1378 1.389 . S
C1379 C1380 1.387 . S
C1380 H1365 0.930 . S
C1380 C1375 1.390 . S
C1380 C1379 1.387 . S
H1381 C1393 0.930 . S
H1382 C1395 0.930 . S
H1383 C1396 0.930 1_565 S
H1384 C1400 0.959 . S
H1385 C1400 0.959 . S
H1386 C1400 0.961 . S
H1387 C1401 0.960 . S
H1388 C1401 0.961 . S
H1389 C1401 0.959 . S
H1390 C1404 0.929 . S
H1391 C1405 0.931 . S
H1392 C1407 0.930 . S
C1393 H1381 0.930 . S
C1393 C1394 1.399 . S
C1393 C1398 1.399 . S
C1394 C1393 1.399 . S
C1394 C1395 1.376 . S
C1395 H1382 0.930 . S
C1395 C1394 1.376 . S
C1395 C1396 1.388 . S
C1396 H1383 0.930 1_545 S
C1396 C1395 1.388 . S
C1396 C1397 1.390 . S
C1397 C1396 1.390 . S
C1397 C1398 1.394 . S
C1397 C1403 1.465 . S
C1398 C1393 1.399 . S
C1398 C1397 1.394 . S
C1398 C1399 1.516 . S
C1399 C1398 1.516 . S
C1399 C1400 1.502 . S
C1399 C1401 1.561 . S
C1399 C1402 1.526 . S
C1400 H1384 0.959 . S
C1400 H1385 0.959 . S
C1400 H1386 0.961 . S
C1400 C1399 1.502 . S
C1401 H1387 0.960 . S
C1401 H1388 0.961 . S
C1401 H1389 0.959 . S
C1401 C1399 1.561 . S
C1402 C1399 1.526 . S
C1402 C1403 1.396 . S
C1402 C1407 1.390 . S
C1403 C1397 1.465 . S
C1403 C1402 1.396 . S
C1403 C1404 1.400 1_545 S
C1404 H1390 0.929 . S
C1404 C1403 1.400 1_565 S
C1404 C1405 1.385 . S
C1405 H1391 0.931 . S
C1405 C1404 1.385 . S
C1405 C1406 1.389 1_565 S
C1406 C1405 1.389 1_545 S
C1406 C1407 1.387 . S
C1407 H1392 0.930 . S
C1407 C1402 1.390 . S
C1407 C1406 1.387 . S
H1408 C1420 0.930 1_545 S
H1409 C1422 0.930 . S
H1410 C1423 0.930 . S
H1411 C1427 0.959 . S
H1412 C1427 0.959 . S
H1413 C1427 0.961 . S
H1414 C1428 0.960 . S
H1415 C1428 0.961 . S
H1416 C1428 0.959 . S
H1417 C1431 0.929 . S
H1418 C1432 0.931 . S
H1419 C1434 0.930 . S
C1420 H1408 0.930 1_565 S
C1420 C1421 1.399 . S
C1420 C1425 1.399 . S
C1421 C1420 1.399 . S
C1421 C1422 1.376 . S
C1422 H1409 0.930 . S
C1422 C1421 1.376 . S
C1422 C1423 1.388 . S
C1423 H1410 0.930 . S
C1423 C1422 1.388 . S
C1423 C1424 1.390 . S
C1424 C1423 1.390 . S
C1424 C1425 1.394 . S
C1424 C1430 1.465 1_556 S
C1425 C1420 1.399 . S
C1425 C1424 1.394 . S
C1425 C1426 1.516 1_565 S
C1426 C1425 1.516 1_545 S
C1426 C1427 1.502 . S
C1426 C1428 1.561 . S
C1426 C1429 1.526 1_556 S
C1427 H1411 0.959 . S
C1427 H1412 0.959 . S
C1427 H1413 0.961 . S
C1427 C1426 1.502 . S
C1428 H1414 0.960 . S
C1428 H1415 0.961 . S
C1428 H1416 0.959 . S
C1428 C1426 1.561 . S
C1429 C1426 1.526 1_554 S
C1429 C1430 1.396 1_545 S
C1429 C1434 1.390 . S
C1430 C1424 1.465 1_554 S
C1430 C1429 1.396 1_565 S
C1430 C1431 1.399 . S
C1431 H1417 0.929 . S
C1431 C1430 1.399 . S
C1431 C1432 1.385 . S
C1432 H1418 0.931 . S
C1432 C1431 1.385 . S
C1432 C1433 1.389 1_565 S
C1433 C1432 1.389 1_545 S
C1433 C1434 1.387 . S
C1434 H1419 0.930 . S
C1434 C1429 1.390 . S
C1434 C1433 1.387 . S
H1435 C1447 0.930 . S
H1436 C1449 0.930 . S
H1437 C1450 0.930 . S
H1438 C1454 0.959 . S
H1439 C1454 0.959 . S
H1440 C1454 0.961 . S
H1441 C1455 0.960 . S
H1442 C1455 0.961 . S
H1443 C1455 0.959 . S
H1444 C1458 0.929 . S
H1445 C1459 0.931 . S
H1446 C1461 0.930 . S
C1447 H1435 0.930 . S
C1447 C1448 1.399 . S
C1447 C1452 1.399 . S
C1448 C1447 1.399 . S
C1448 C1449 1.376 . S
C1449 H1436 0.930 . S
C1449 C1448 1.376 . S
C1449 C1450 1.388 . S
C1450 H1437 0.930 . S
C1450 C1449 1.388 . S
C1450 C1451 1.390 . S
C1451 C1450 1.390 . S
C1451 C1452 1.394 . S
C1451 C1457 1.465 . S
C1452 C1447 1.399 . S
C1452 C1451 1.394 . S
C1452 C1453 1.516 . S
C1453 C1452 1.516 . S
C1453 C1454 1.502 . S
C1453 C1455 1.561 . S
C1453 C1456 1.526 . S
C1454 H1438 0.959 . S
C1454 H1439 0.959 . S
C1454 H1440 0.961 . S
C1454 C1453 1.502 . S
C1455 H1441 0.960 . S
C1455 H1442 0.961 . S
C1455 H1443 0.959 . S
C1455 C1453 1.561 . S
C1456 C1453 1.526 . S
C1456 C1457 1.396 . S
C1456 C1461 1.390 . S
C1457 C1451 1.465 . S
C1457 C1456 1.396 . S
C1457 C1458 1.399 . S
C1458 H1444 0.929 . S
C1458 C1457 1.399 . S
C1458 C1459 1.385 . S
C1459 H1445 0.931 . S
C1459 C1458 1.385 . S
C1459 C1460 1.389 . S
C1460 C1459 1.389 . S
C1460 C1461 1.387 . S
C1461 H1446 0.930 . S
C1461 C1456 1.390 . S
C1461 C1460 1.387 . S
H1462 C1474 0.930 . S
H1463 C1476 0.930 . S
H1464 C1477 0.930 . S
H1465 C1481 0.959 . S
H1466 C1481 0.959 . S
H1467 C1481 0.961 . S
H1468 C1482 0.960 . S
H1469 C1482 0.961 . S
H1470 C1482 0.959 1_655 S
H1471 C1485 0.929 . S
H1472 C1486 0.931 . S
H1473 C1488 0.930 . S
C1474 H1462 0.930 . S
C1474 C1475 1.399 . S
C1474 C1479 1.399 . S
C1475 C1474 1.399 . S
C1475 C1476 1.376 1_455 S
C1476 H1463 0.930 . S
C1476 C1475 1.376 1_655 S
C1476 C1477 1.388 . S
C1477 H1464 0.930 . S
C1477 C1476 1.388 . S
C1477 C1478 1.390 1_655 S
C1478 C1477 1.390 1_455 S
C1478 C1479 1.394 . S
C1478 C1484 1.465 1_554 S
C1479 C1474 1.399 . S
C1479 C1478 1.394 . S
C1479 C1480 1.516 1_554 S
C1480 C1479 1.516 1_556 S
C1480 C1481 1.502 . S
C1480 C1482 1.561 . S
C1480 C1483 1.526 . S
C1481 H1465 0.959 . S
C1481 H1466 0.959 . S
C1481 H1467 0.961 . S
C1481 C1480 1.502 . S
C1482 H1468 0.960 . S
C1482 H1469 0.961 . S
C1482 H1470 0.959 1_455 S
C1482 C1480 1.561 . S
C1483 C1480 1.526 . S
C1483 C1484 1.396 . S
C1483 C1488 1.390 . S
C1484 C1478 1.465 1_556 S
C1484 C1483 1.396 . S
C1484 C1485 1.399 1_455 S
C1485 H1471 0.929 . S
C1485 C1484 1.399 1_655 S
C1485 C1486 1.385 1_655 S
C1486 H1472 0.931 . S
C1486 C1485 1.385 1_455 S
C1486 C1487 1.389 . S
C1487 C1486 1.389 . S
C1487 C1488 1.387 . S
C1488 H1473 0.930 . S
C1488 C1483 1.390 . S
C1488 C1487 1.387 . S
H1489 C1501 0.930 . S
H1490 C1503 0.930 . S
H1491 C1504 0.930 . S
H1492 C1508 0.959 . S
H1493 C1508 0.959 . S
H1494 C1508 0.961 . S
H1495 C1509 0.960 . S
H1496 C1509 0.961 . S
H1497 C1509 0.959 . S
H1498 C1512 0.929 . S
H1499 C1513 0.931 . S
H1500 C1515 0.930 . S
C1501 H1489 0.930 . S
C1501 C1502 1.399 . S
C1501 C1506 1.399 . S
C1502 C1501 1.399 . S
C1502 C1503 1.376 1_545 S
C1503 H1490 0.930 . S
C1503 C1502 1.376 1_565 S
C1503 C1504 1.388 . S
C1504 H1491 0.930 . S
C1504 C1503 1.388 . S
C1504 C1505 1.390 1_565 S
C1505 C1504 1.390 1_545 S
C1505 C1506 1.394 . S
C1505 C1511 1.465 1_545 S
C1506 C1501 1.399 . S
C1506 C1505 1.394 . S
C1506 C1507 1.516 1_655 S
C1507 C1506 1.516 1_455 S
C1507 C1508 1.502 . S
C1507 C1509 1.561 1_455 S
C1507 C1510 1.526 . S
C1508 H1492 0.959 . S
C1508 H1493 0.959 . S
C1508 H1494 0.961 . S
C1508 C1507 1.502 . S
C1509 H1495 0.960 . S
C1509 H1496 0.961 . S
C1509 H1497 0.959 . S
C1509 C1507 1.561 1_655 S
C1510 C1507 1.526 . S
C1510 C1511 1.396 1_445 S
C1510 C1515 1.390 . S
C1511 C1505 1.465 1_565 S
C1511 C1510 1.396 1_665 S
C1511 C1512 1.399 . S
C1512 H1498 0.929 . S
C1512 C1511 1.399 . S
C1512 C1513 1.385 . S
C1513 H1499 0.931 . S
C1513 C1512 1.385 . S
C1513 C1514 1.389 1_665 S
C1514 C1513 1.389 1_445 S
C1514 C1515 1.387 . S
C1515 H1500 0.930 . S
C1515 C1510 1.390 . S
C1515 C1514 1.387 . S
H1516 C1528 0.930 . S
H1517 C1530 0.930 . S
H1518 C1531 0.930 . S
H1519 C1535 0.959 . S
H1520 C1535 0.959 . S
H1521 C1535 0.961 1_556 S
H1522 C1536 0.960 . S
H1523 C1536 0.961 . S
H1524 C1536 0.959 . S
H1525 C1539 0.929 . S
H1526 C1540 0.931 . S
H1527 C1542 0.930 . S
C1528 H1516 0.930 . S
C1528 C1529 1.399 . S
C1528 C1533 1.399 . S
C1529 C1528 1.399 . S
C1529 C1530 1.376 . S
C1530 H1517 0.930 . S
C1530 C1529 1.376 . S
C1530 C1531 1.388 . S
C1531 H1518 0.930 . S
C1531 C1530 1.388 . S
C1531 C1532 1.390 . S
C1532 C1531 1.390 . S
C1532 C1533 1.394 . S
C1532 C1538 1.465 1_556 S
C1533 C1528 1.399 . S
C1533 C1532 1.394 . S
C1533 C1534 1.516 1_556 S
C1534 C1533 1.516 1_554 S
C1534 C1535 1.502 . S
C1534 C1536 1.561 . S
C1534 C1537 1.526 . S
C1535 H1519 0.959 . S
C1535 H1520 0.959 . S
C1535 H1521 0.961 1_554 S
C1535 C1534 1.502 . S
C1536 H1522 0.960 . S
C1536 H1523 0.961 . S
C1536 H1524 0.959 . S
C1536 C1534 1.561 . S
C1537 C1534 1.526 . S
C1537 C1538 1.396 . S
C1537 C1542 1.390 . S
C1538 C1532 1.465 1_554 S
C1538 C1537 1.396 . S
C1538 C1539 1.399 . S
C1539 H1525 0.929 . S
C1539 C1538 1.399 . S
C1539 C1540 1.385 . S
C1540 H1526 0.931 . S
C1540 C1539 1.385 . S
C1540 C1541 1.389 . S
C1541 C1540 1.389 . S
C1541 C1542 1.387 . S
C1542 H1527 0.930 . S
C1542 C1537 1.390 . S
C1542 C1541 1.387 . S
H1543 C1555 0.930 1_655 S
H1544 C1557 0.930 . S
H1545 C1558 0.930 . S
H1546 C1562 0.959 . S
H1547 C1562 0.959 . S
H1548 C1562 0.961 . S
H1549 C1563 0.960 . S
H1550 C1563 0.961 1_655 S
H1551 C1563 0.959 . S
H1552 C1566 0.929 1_455 S
H1553 C1567 0.931 . S
H1554 C1569 0.930 . S
C1555 H1543 0.930 1_455 S
C1555 C1556 1.399 . S
C1555 C1560 1.399 1_455 S
C1556 C1555 1.399 . S
C1556 C1557 1.376 . S
C1557 H1544 0.930 . S
C1557 C1556 1.376 . S
C1557 C1558 1.388 . S
C1558 H1545 0.930 . S
C1558 C1557 1.388 . S
C1558 C1559 1.390 . S
C1559 C1558 1.390 . S
C1559 C1560 1.394 1_455 S
C1559 C1565 1.465 1_455 S
C1560 C1555 1.399 1_655 S
C1560 C1559 1.394 1_655 S
C1560 C1561 1.516 . S
C1561 C1560 1.516 . S
C1561 C1562 1.502 . S
C1561 C1563 1.561 1_655 S
C1561 C1564 1.526 . S
C1562 H1546 0.959 . S
C1562 H1547 0.959 . S
C1562 H1548 0.961 . S
C1562 C1561 1.502 . S
C1563 H1549 0.960 . S
C1563 H1550 0.961 1_455 S
C1563 H1551 0.959 . S
C1563 C1561 1.561 1_455 S
C1564 C1561 1.526 . S
C1564 C1565 1.396 . S
C1564 C1569 1.390 . S
C1565 C1559 1.465 1_655 S
C1565 C1564 1.396 . S
C1565 C1566 1.399 . S
C1566 H1552 0.929 1_655 S
C1566 C1565 1.399 . S
C1566 C1567 1.385 . S
C1567 H1553 0.931 . S
C1567 C1566 1.385 . S
C1567 C1568 1.389 . S
C1568 C1567 1.389 . S
C1568 C1569 1.387 . S
C1569 H1554 0.930 . S
C1569 C1564 1.390 . S
C1569 C1568 1.387 . S
H1570 C1582 0.930 . S
H1571 C1584 0.930 1_545 S
H1572 C1585 0.931 . S
H1573 C1589 0.959 . S
H1574 C1589 0.959 . S
H1575 C1589 0.988 . S
H1576 C1590 0.927 1_454 S
H1577 C1590 0.959 1_455 S
H1578 C1590 0.959 . S
H1579 C1593 0.929 . S
H1580 C1594 0.931 . S
H1581 C1596 0.930 . S
C1582 H1570 0.930 . S
C1582 C1583 1.399 . S
C1582 C1587 1.399 . S
C1583 C1582 1.399 . S
C1583 C1584 1.376 . S
C1584 H1571 0.930 1_565 S
C1584 C1583 1.376 . S
C1584 C1585 1.388 1_465 S
C1585 H1572 0.931 . S
C1585 C1584 1.388 1_645 S
C1585 C1586 1.389 1_645 S
C1586 C1585 1.389 1_465 S
C1586 C1587 1.394 . S
C1586 C1592 1.465 1_564 S
C1587 C1582 1.399 . S
C1587 C1586 1.394 . S
C1587 C1588 1.516 1_554 S
C1588 C1587 1.516 1_556 S
C1588 C1589 1.502 . S
C1588 C1590 1.561 1_455 S
C1588 C1591 1.526 . S
C1589 H1573 0.959 . S
C1589 H1574 0.959 . S
C1589 H1575 0.988 . S
C1589 C1588 1.502 . S
C1590 H1576 0.927 1_656 S
C1590 H1577 0.959 1_655 S
C1590 H1578 0.959 . S
C1590 C1588 1.561 1_655 S
C1591 C1588 1.526 . S
C1591 C1592 1.396 1_565 S
C1591 C1596 1.390 . S
C1592 C1586 1.465 1_546 S
C1592 C1591 1.396 1_545 S
C1592 C1593 1.399 1_455 S
C1593 H1579 0.929 . S
C1593 C1592 1.399 1_655 S
C1593 C1594 1.385 . S
C1594 H1580 0.931 . S
C1594 C1593 1.385 . S
C1594 C1595 1.389 1_655 S
C1595 C1594 1.389 1_455 S
C1595 C1596 1.387 1_545 S
C1596 H1581 0.930 . S
C1596 C1591 1.390 . S
C1596 C1595 1.387 1_565 S
H1597 C1609 0.930 . S
H1598 C1611 0.930 . S
H1599 C1612 0.930 . S
H1600 C1616 0.959 . S
H1601 C1616 0.959 . S
H1602 C1616 0.961 . S
H1603 C1617 0.960 . S
H1604 C1617 0.961 . S
H1605 C1617 0.959 1_565 S
H1606 C1620 0.929 . S
H1607 C1621 0.931 1_565 S
H1608 C1623 0.930 . S
C1609 H1597 0.930 . S
C1609 C1610 1.399 . S
C1609 C1614 1.399 . S
C1610 C1609 1.399 . S
C1610 C1611 1.376 1_545 S
C1611 H1598 0.930 . S
C1611 C1610 1.376 1_565 S
C1611 C1612 1.388 . S
C1612 H1599 0.930 . S
C1612 C1611 1.388 . S
C1612 C1613 1.389 . S
C1613 C1612 1.389 . S
C1613 C1614 1.395 1_565 S
C1613 C1619 1.465 1_565 S
C1614 C1609 1.399 . S
C1614 C1613 1.395 1_545 S
C1614 C1615 1.516 . S
C1615 C1614 1.516 . S
C1615 C1616 1.502 . S
C1615 C1617 1.561 . S
C1615 C1618 1.526 . S
C1616 H1600 0.959 . S
C1616 H1601 0.959 . S
C1616 H1602 0.961 . S
C1616 C1615 1.502 . S
C1617 H1603 0.960 . S
C1617 H1604 0.961 . S
C1617 H1605 0.959 1_545 S
C1617 C1615 1.561 . S
C1618 C1615 1.526 . S
C1618 C1619 1.396 . S
C1618 C1623 1.390 . S
C1619 C1613 1.465 1_545 S
C1619 C1618 1.396 . S
C1619 C1620 1.399 1_545 S
C1620 H1606 0.929 . S
C1620 C1619 1.399 1_565 S
C1620 C1621 1.385 1_565 S
C1621 H1607 0.931 1_545 S
C1621 C1620 1.385 1_545 S
C1621 C1622 1.389 . S
C1622 C1621 1.389 . S
C1622 C1623 1.387 . S
C1623 H1608 0.930 . S
C1623 C1618 1.390 . S
C1623 C1622 1.387 . S
C557 C5 1.847 . S
C569 C243 1.896 . S
C584 C141 1.896 . S
C596 C39 1.847 . S
C611 C73 1.896 . S
C623 C175 1.847 . S
C638 C107 1.875 . S
C650 C209 1.863 . S
C665 C281 1.377 . S
C677 C519 1.374 . S
C692 C315 1.318 . S
C704 C417 1.336 . S
C719 C349 1.373 . S
C731 C451 1.376 . S
C746 C485 1.306 . S
C758 C383 1.322 . S
C773 C33 1.870 . S
C785 C101 1.920 . S
C800 C135 1.917 . S
C812 C67 1.874 . S
C827 C237 1.895 . S
C839 C169 1.903 . S
C854 C203 1.879 . S
C866 C271 1.918 . S
C881 C373 1.311 . S
C893 C305 1.370 . S
C908 C407 1.384 . S
C920 C339 1.295 . S
C935 C509 1.373 . S
C947 C441 1.306 . S
C962 C543 1.300 . S
C974 C475 1.379 . S
C989 C410 0.644 . S
C1001 C20 0.541 . S
C1016 C444 0.490 . S
C1028 C54 0.548 . S
C1043 C88 0.561 . S
C1055 C478 0.609 1_655 S
C1070 C512 0.655 1_565 S
C1082 C122 0.551 . S
C1097 C156 0.544 . S
C1109 C274 0.502 . S
C1124 C308 0.488 . S
C1136 C190 0.549 . S
C1151 C224 0.538 . S
C1163 C342 0.538 . S
C1178 C258 0.557 . S
C1190 C376 0.639 1_565 S
C1205 C138 0.622 . S
C1217 C292 0.592 . S
C1232 C172 0.670 . S
C1244 C326 0.587 . S
C1259 C206 0.658 . S
C1271 C360 0.582 . S
C1286 C240 0.523 . S
C1298 C394 0.571 . S
C1313 C2 0.649 . S
C1325 C428 0.580 . S
C1340 C36 0.668 . S
C1352 C462 0.585 . S
C1367 C70 0.540 . S
C1379 C496 0.581 . S
C1394 C530 0.589 . S
C1406 C104 0.579 . S
C1421 C277 1.671 . S
C1433 C9 1.606 . S
C1448 C43 1.611 . S
C1460 C311 1.670 . S
C1475 C77 1.556 1_455 S
C1487 C345 1.653 . S
C1502 C379 1.646 . S
C1514 C111 1.555 1_545 S
C1529 C145 1.553 . S
C1541 C413 1.646 . S
C1556 C179 1.584 . S
C1568 C447 1.616 . S
C1583 C481 1.614 . S
C1595 C213 1.594 1_455 S
C1610 C247 1.554 1_545 S
C1622 C515 1.649 . S
