# Generated by pormake.
# Topology sxc, (6)-cn, num edge types: 1
# Building blocks:
#     Node 0, Type 0, BuildingBlock: BETDEL_clean_sbu_0, # of connection points: 6
#     Node 1, Type 0, BuildingBlock: BETDEL_clean_sbu_0, # of connection points: 6
#     Node 2, Type 0, BuildingBlock: BETDEL_clean_sbu_0, # of connection points: 6
#     Edge 3, Type (0, 0), BuildingBlock: XUDNAN_clean_linker_2, # of connection points: 2
#     Edge 4, Type (0, 0), BuildingBlock: XUDNAN_clean_linker_2, # of connection points: 2
#     Edge 5, Type (0, 0), BuildingBlock: XUDNAN_clean_linker_2, # of connection points: 2
#     Edge 6, Type (0, 0), BuildingBlock: XUDNAN_clean_linker_2, # of connection points: 2
#     Edge 7, Type (0, 0), BuildingBlock: XUDNAN_clean_linker_2, # of connection points: 2
#     Edge 8, Type (0, 0), BuildingBlock: XUDNAN_clean_linker_2, # of connection points: 2
#     Edge 9, Type (0, 0), BuildingBlock: XUDNAN_clean_linker_2, # of connection points: 2
#     Edge 10, Type (0, 0), BuildingBlock: XUDNAN_clean_linker_2, # of connection points: 2
#     Edge 11, Type (0, 0), BuildingBlock: XUDNAN_clean_linker_2, # of connection points: 2
# Relax obj value: 0.046
# Max RMSD: 0.049
# Mean RMSD: 0.037
data_MOF--net-sxc--node1-BETDEL_clean_sbu_0--edge1-XUDNAN_clean_linker_2
_symmetry_space_group_name_H-M    P1
_symmetry_Int_Tables_number       1
_symmetry_cell_setting            triclinic
loop_
_symmetry_equiv_pos_as_xyz
'x, y, z'
_cell_length_a     15.997178
_cell_length_b     15.479979
_cell_length_c     43.850503
_cell_angle_alpha  90.532178
_cell_angle_beta   94.358347
_cell_angle_gamma 113.26503
loop_
_atom_site_label
_atom_site_type_symbol
_atom_site_fract_x
_atom_site_fract_y
_atom_site_fract_z
_atom_type_partial_charge
Dy0 Dy 0.17877 0.07999 0.02316 0.0
C1 C 0.78871 0.86686 0.02984 0.0
C2 C 0.34828 0.21407 0.01611 0.0
Dy3 Dy 0.96196 0.98339 0.01881 0.0
O4 O 0.31416 0.18902 0.04211 0.0
O5 O 0.29206 0.16033 0.99412 0.0
O6 O 0.18349 0.02688 0.07024 0.0
O7 O 0.07141 0.05916 0.05435 0.0
C8 C 0.10377 0.02412 0.07582 0.0
C9 C 1.02389 1.0026 0.96248 0.0
O10 O 0.9786 0.13551 0.02275 0.0
O11 O 0.13306 0.19706 0.01427 0.0
O12 O 0.80982 0.93259 0.01004 0.0
O13 O 0.86275 0.87009 0.04521 0.0
O14 O 0.93779 0.97038 0.96688 0.0
O15 O 0.06775 0.02203 0.98837 0.0
O16 O 0.1613 0.93404 0.0103 0.0
O17 O 1.00944 0.86288 0.02217 0.0
C18 C 0.05521 0.2069 0.01672 0.0
C19 C 0.08705 0.85816 0.0149 0.0
Dy20 Dy 0.92659 0.99518 0.34789 0.0
C21 C 0.28562 0.16836 0.32647 0.0
C22 C 0.7427 0.94181 0.34641 0.0
Dy23 Dy 0.11821 0.08422 0.34727 0.0
O24 O 0.78749 0.93564 0.32387 0.0
O25 O 0.79896 0.97338 0.37077 0.0
O26 O 0.92659 0.90521 0.30772 0.0
O27 O 1.01198 0.04845 0.30957 0.0
C28 C 0.98483 0.97247 0.29358 0.0
C29 C 0.07189 0.05186 0.40479 0.0
O30 O 0.09382 0.21769 0.34635 0.0
O31 O 0.93704 0.14299 0.34473 0.0
O32 O 0.26573 0.1831 0.35369 0.0
O33 O 0.21429 0.10633 0.31124 0.0
O34 O 0.14333 0.04408 0.39491 0.0
O35 O 1.03044 0.0797 0.38388 0.0
O36 O 0.9601 0.88367 0.36961 0.0
O37 O 0.0928 0.92821 0.34597 0.0
C38 C 1.01224 0.22074 0.34554 0.0
C39 C 1.02722 0.86406 0.36028 0.0
Dy40 Dy 0.03922 0.94264 0.68434 0.0
C41 C 0.25858 0.32037 0.67552 0.0
C42 C 0.90681 0.7632 0.68804 0.0
Dy43 Dy 0.1256 0.14783 0.6872 0.0
O44 O 0.96365 0.79132 0.66701 0.0
O45 O 0.92821 0.83121 0.70855 0.0
O46 O 0.08205 0.94007 0.63712 0.0
O47 O 0.04256 0.04791 0.65042 0.0
C48 C 0.07263 0.01616 0.629 0.0
C49 C 0.09113 0.07686 0.74252 0.0
O50 O 0.97752 0.14094 0.682 0.0
O51 O 0.9198 0.98269 0.69085 0.0
O52 O 0.2277 0.29518 0.70203 0.0
O53 O 0.20976 0.25468 0.65518 0.0
O54 O 0.0841 0.15432 0.73419 0.0
O55 O 0.12113 0.04295 0.7215 0.0
O56 O 0.18305 0.95005 0.69535 0.0
O57 O 0.24804 0.10551 0.6831 0.0
C58 C 0.90635 0.06137 0.68715 0.0
C59 C 0.2569 0.02548 0.68964 0.0
H60 H 0.95322 0.30309 0.03907 0.0
H61 H 0.16788 0.32988 0.98007 0.0
H62 H 0.19554 0.49496 0.97303 0.0
H63 H 0.86992 0.45998 0.99492 0.0
H64 H 0.84819 0.51643 0.02763 0.0
H65 H 0.83693 0.39588 0.02918 0.0
H66 H 0.9517 0.43421 0.07676 0.0
H67 H 0.96039 0.55384 0.0771 0.0
H68 H 0.06192 0.53016 0.07641 0.0
H69 H 0.2115 0.65929 0.97501 0.0
H70 H 0.20464 0.81399 0.9826 0.0
H71 H 0.97691 0.68859 0.03833 0.0
C72 C 1.00468 0.3434 0.02426 0.0
C73 C 0.05882 0.30287 0.01043 0.0
C74 C 0.12608 0.35876 0.99136 0.0
C75 C 0.1425 0.45311 0.98707 0.0
C76 C 0.09066 0.49187 1.00167 0.0
C77 C 1.0222 0.43916 0.01953 0.0
C78 C 0.97798 0.50072 0.03262 0.0
C79 C 0.87716 0.46598 0.02036 0.0
C80 C 0.98866 0.50497 0.06782 0.0
C81 C 1.03396 0.59572 0.01991 0.0
C82 C 0.09848 0.58832 1.00212 0.0
C83 C 0.16061 0.66602 0.98865 0.0
C84 C 0.1565 0.7539 0.99324 0.0
C85 C 0.09027 0.76389 0.01099 0.0
C86 C 1.02791 0.68326 0.02442 0.0
H87 H 0.43879 0.22642 0.36522 0.0
H88 H 0.33499 0.14024 0.27085 0.0
H89 H 0.45259 0.0779 0.26545 0.0
H90 H 0.69457 0.26362 0.35362 0.0
H91 H 0.70252 0.21968 0.39116 0.0
H92 H 0.63665 0.28978 0.38382 0.0
H93 H 0.49887 0.15596 0.40444 0.0
H94 H 0.56088 0.08185 0.40957 0.0
H95 H 0.45474 0.04051 0.38569 0.0
H96 H 0.53339 0.97522 0.27589 0.0
H97 H 0.62655 0.88991 0.2952 0.0
H98 H 0.68017 0.04237 0.38295 0.0
C99 C 0.44554 0.20096 0.34284 0.0
C100 C 0.37752 0.1855 0.31867 0.0
C101 C 0.38669 0.15143 0.28966 0.0
C102 C 0.45271 0.11509 0.28648 0.0
C103 C 0.50994 0.11726 0.31226 0.0
C104 C 0.51108 0.16413 0.33945 0.0
C105 C 0.57076 0.14515 0.36474 0.0
C106 C 0.65621 0.23487 0.37386 0.0
C107 C 0.51805 0.10339 0.39272 0.0
C108 C 0.59492 0.07334 0.3483 0.0
C109 C 0.55952 0.0587 0.31807 0.0
C110 C 0.5651 0.98904 0.29911 0.0
C111 C 0.61595 0.9393 0.31051 0.0
C112 C 0.66096 0.96073 0.34036 0.0
C113 C 0.64636 0.0248 0.36002 0.0
H114 H 0.76391 0.71022 0.72537 0.0
H115 H 0.84269 0.63671 0.63955 0.0
H116 H 0.68475 0.52156 0.62659 0.0
H117 H 0.60238 0.46812 0.73967 0.0
H118 H 0.52371 0.50818 0.75633 0.0
H119 H 0.64403 0.58181 0.75945 0.0
H120 H 0.60846 0.71648 0.73486 0.0
H121 H 0.48821 0.64261 0.73122 0.0
H122 H 0.54445 0.69535 0.69793 0.0
H123 H 0.51575 0.42544 0.62047 0.0
H124 H 0.35199 0.33398 0.62532 0.0
H125 H 0.38036 0.45951 0.71643 0.0
C126 C 0.74833 0.66821 0.7042 0.0
C127 C 0.81622 0.68236 0.68352 0.0
C128 C 0.79246 0.62685 0.65586 0.0
C129 C 0.70256 0.56165 0.64818 0.0
C130 C 0.6367 0.5516 0.6685 0.0
C131 C 0.65867 0.60158 0.69629 0.0
C132 C 0.57445 0.57613 0.71403 0.0
C133 C 0.58689 0.53086 0.74416 0.0
C134 C 0.55264 0.66282 0.71985 0.0
C135 C 0.50171 0.50504 0.69171 0.0
C136 C 0.53924 0.49313 0.66544 0.0
C137 C 0.48587 0.43353 0.64108 0.0
C138 C 0.39244 0.38241 0.64395 0.0
C139 C 0.35273 0.38959 0.67117 0.0
C140 C 0.40831 0.45289 0.69522 0.0
H141 H 0.81187 0.18678 0.67358 0.0
H142 H 0.76912 0.91025 0.70739 0.0
H143 H 0.60885 0.87671 0.7111 0.0
H144 H 0.64866 0.22649 0.7227 0.0
H145 H 0.60419 0.28328 0.69392 0.0
H146 H 0.71959 0.29098 0.69369 0.0
H147 H 0.68452 0.22346 0.63791 0.0
H148 H 0.56906 0.21555 0.63815 0.0
H149 H 0.58968 0.11251 0.62866 0.0
H150 H 0.44898 0.86373 0.71047 0.0
H151 H 0.30088 0.87808 0.7073 0.0
H152 H 0.43021 0.16129 0.67532 0.0
C153 C 0.7691 0.11943 0.68193 0.0
C154 C 0.80714 0.05162 0.68991 0.0
C155 C 0.74568 0.96459 0.70066 0.0
C156 C 0.65265 0.94397 0.70299 0.0
C157 C 0.61758 1.01032 0.69473 0.0
C158 C 0.67332 0.09686 0.68459 0.0
C159 C 0.6145 0.15412 0.67746 0.0
C160 C 0.64879 0.24408 0.69817 0.0
C161 C 0.61446 0.17783 0.64352 0.0
C162 C 0.51845 0.08573 0.68501 0.0
C163 C 0.52299 1.00326 0.69488 0.0
C164 C 0.44488 0.92838 0.70288 0.0
C165 C 0.36007 0.93721 0.70095 0.0
C166 C 0.35122 0.02053 0.69113 0.0
C167 C 0.43295 0.09618 0.68305 0.0
H168 H 0.73083 0.7201 0.0685 0.0
H169 H 0.65888 0.81729 0.98187 0.0
H170 H 0.54191 0.65831 0.96844 0.0
H171 H 0.70746 0.49691 0.04333 0.0
H172 H 0.65667 0.43726 0.07647 0.0
H173 H 0.73065 0.56048 0.07979 0.0
H174 H 0.59969 0.59542 0.1019 0.0
H175 H 0.52676 0.47189 0.09811 0.0
H176 H 0.48995 0.55673 0.08019 0.0
H177 H 0.45153 0.4849 0.96085 0.0
H178 H 0.36327 0.31442 0.96483 0.0
H179 H 0.48218 0.33049 0.05807 0.0
C180 C 0.68822 0.70848 0.04719 0.0
C181 C 0.70383 0.78087 0.02621 0.0
C182 C 0.64757 0.76307 0.99839 0.0
C183 C 0.58156 0.67271 0.99041 0.0
C184 C 0.57114 0.60161 0.01084 0.0
C185 C 0.62029 0.61902 0.03916 0.0
C186 C 0.59452 0.52986 0.05695 0.0
C187 C 0.67738 0.50479 0.06463 0.0
C188 C 0.55005 0.53902 0.08601 0.0
C189 C 0.52596 0.45927 0.03371 0.0
C190 C 0.51453 0.50206 0.00713 0.0
C191 C 0.45862 0.45079 0.98174 0.0
C192 C 0.40987 0.35376 0.98405 0.0
C193 C 0.41638 0.30944 0.0117 0.0
C194 C 0.47639 0.36269 0.03663 0.0
H195 H 0.13134 0.40053 0.33126 0.0
H196 H 0.87257 0.24737 0.3692 0.0
H197 H 0.85645 0.39579 0.37936 0.0
H198 H 0.20857 0.60786 0.38255 0.0
H199 H 0.25581 0.69061 0.35348 0.0
H200 H 0.25125 0.57271 0.34982 0.0
H201 H 0.16111 0.54917 0.29667 0.0
H202 H 0.1661 0.66722 0.30007 0.0
H203 H 0.05728 0.5693 0.29297 0.0
H204 H 0.86799 0.55624 0.38737 0.0
H205 H 0.89532 0.72292 0.38678 0.0
H206 H 0.14133 0.78063 0.34025 0.0
C207 C 0.07139 0.39861 0.34166 0.0
C208 C 1.0033 0.31199 0.34948 0.0
C209 C 0.92543 0.3123 0.3628 0.0
C210 C 0.9158 0.39646 0.3689 0.0
C211 C 0.98388 0.4803 0.36117 0.0
C212 C 0.05945 0.48263 0.34735 0.0
C213 C 0.11938 0.58331 0.34006 0.0
C214 C 0.21439 0.6155 0.35752 0.0
C215 C 0.12635 0.59279 0.30538 0.0
C216 C 0.0653 0.63642 0.35201 0.0
C217 C 0.98834 0.57492 0.3645 0.0
C218 C 0.92756 0.60521 0.37744 0.0
C219 C 0.9441 0.70068 0.37698 0.0
C220 C 1.02026 0.76573 0.36323 0.0
C221 C 0.08254 0.73304 0.35092 0.0
H222 H 0.0882 0.1099 0.25569 0.0
H223 H 0.90328 0.81594 0.25628 0.0
H224 H 0.90903 0.79971 0.20065 0.0
H225 H 0.9997 0.16022 0.18311 0.0
H226 H 0.10975 0.23508 0.17129 0.0
H227 H 0.09193 0.22489 0.21141 0.0
H228 H 0.2276 0.17444 0.22108 0.0
H229 H 0.24646 0.18534 0.18106 0.0
H230 H 0.22886 0.07606 0.19909 0.0
H231 H 0.93164 0.81446 0.14477 0.0
H232 H 0.97986 0.8577 0.09272 0.0
H233 H 0.15214 0.14041 0.1273 0.0
C234 C 0.04934 0.04216 0.24407 0.0
C235 C 0.99482 0.9643 0.26038 0.0
C236 C 0.94526 0.87672 0.24435 0.0
C237 C 0.94785 0.86674 0.21267 0.0
C238 C 1.00089 0.94484 0.19715 0.0
C239 C 0.05164 0.03067 0.21228 0.0
C240 C 0.10452 0.1026 0.19001 0.0
C241 C 0.07466 0.1856 0.1889 0.0
C242 C 0.20799 0.13659 0.1983 0.0
C243 C 0.0751 0.04382 0.16012 0.0
C244 C 1.01479 0.95311 0.1648 0.0
C245 C 0.97847 0.88539 0.14079 0.0
C246 C 1.00548 0.91059 0.1113 0.0
C247 C 0.06777 1.00257 0.10606 0.0
C248 C 0.10296 0.07001 0.13075 0.0
H249 H 0.14309 0.97926 0.45163 0.0
H250 H 0.97092 0.13282 0.43259 0.0
H251 H 0.957 0.14691 0.48816 0.0
H252 H 1.01807 0.84667 0.51278 0.0
H253 H 0.11906 0.84919 0.5347 0.0
H254 H 0.11613 0.85342 0.49363 0.0
H255 H 0.26221 1.0077 0.49868 0.0
H256 H 0.26505 1.00442 0.53978 0.0
H257 H 0.26357 0.10685 0.52093 0.0
H258 H 0.96736 0.14876 0.54679 0.0
H259 H 0.98708 0.1231 0.60218 0.0
H260 H 0.146 0.96174 0.5821 0.0
C261 C 0.10236 0.01574 0.45918 0.0
C262 C 0.05858 0.05553 0.43784 0.0
C263 C 1.00507 0.10184 0.44856 0.0
C264 C 0.99715 0.11054 0.48009 0.0
C265 C 0.04224 0.07154 0.50061 0.0
C266 C 0.09271 0.02385 0.49049 0.0
C267 C 0.13189 0.98539 0.51702 0.0
C268 C 0.094 0.87726 0.51437 0.0
C269 C 0.23691 0.0287 0.51922 0.0
C270 C 0.09615 0.01919 0.54372 0.0
C271 C 0.04538 0.06968 0.5339 0.0
C272 C 1.00657 0.10884 0.55464 0.0
C273 C 1.01846 0.09437 0.58607 0.0
C274 C 0.06776 0.04022 0.59641 0.0
C275 C 0.10768 1.00321 0.57486 0.0
H276 H 0.98951 0.10387 0.78552 0.0
H277 H 0.19956 0.99921 0.77325 0.0
H278 H 0.21384 0.97795 0.82924 0.0
H279 H 0.08133 0.22914 0.85711 0.0
H280 H 0.97196 0.19644 0.87234 0.0
H281 H 0.97998 0.20463 0.83164 0.0
H282 H 0.8611 0.0327 0.82281 0.0
H283 H 0.85153 0.02459 0.86342 0.0
H284 H 0.88011 0.94003 0.84285 0.0
H285 H 0.21014 0.9784 0.88828 0.0
H286 H 0.17013 0.97408 0.94219 0.0
H287 H 0.95412 0.06558 0.91374 0.0
C288 C 1.0381 0.07587 0.79463 0.0
C289 C 0.09373 0.05352 0.77518 0.0
C290 C 0.15601 0.01633 0.78781 0.0
C291 C 0.16504 1.00484 0.81959 0.0
C292 C 0.11019 0.02938 0.8383 0.0
C293 C 0.04645 0.06209 0.82605 0.0
C294 C 0.99231 0.07917 0.85055 0.0
C295 C 1.00733 0.18354 0.85305 0.0
C296 C 0.89023 0.01529 0.84455 0.0
C297 C 1.03537 0.05129 0.87861 0.0
C298 C 0.10462 0.02459 0.87137 0.0
C299 C 0.15552 0.99849 0.89405 0.0
C300 C 0.13307 0.99703 0.92462 0.0
C301 C 0.0593 0.01961 0.93196 0.0
C302 C 1.01089 0.04796 0.90867 0.0
loop_
_geom_bond_atom_site_label_1
_geom_bond_atom_site_label_2
_geom_bond_distance
_geom_bond_site_symmetry_2
_ccdc_geom_bond_type
Dy0 O4 2.398 . S
Dy0 O5 2.491 1_554 S
Dy0 O6 2.403 . S
Dy0 O7 2.664 1_545 S
Dy0 O11 2.326 . S
Dy0 O15 2.310 1_554 S
Dy0 O16 2.351 1_545 S
C1 O12 1.185 1_554 S
C1 O13 1.355 . S
C2 O4 1.185 . S
C2 O5 1.355 1_554 S
Dy3 O7 2.310 1_655 S
Dy3 O10 2.351 1_565 S
Dy3 O12 2.398 1_554 S
Dy3 O13 2.491 . S
Dy3 O14 2.403 1_554 S
Dy3 O15 2.664 1_664 S
Dy3 O17 2.326 1_554 S
O4 Dy0 2.398 . S
O4 C2 1.185 . S
O5 Dy0 2.491 1_556 S
O5 C2 1.355 1_556 S
O6 Dy0 2.403 . S
O6 C8 1.254 . S
O7 Dy0 2.664 1_565 S
O7 Dy3 2.310 1_455 S
O7 C8 1.268 1_565 S
C8 O6 1.254 . S
C8 O7 1.268 1_545 S
C9 O14 1.254 1_445 S
C9 O15 1.268 . S
O10 Dy3 2.351 1_545 S
O10 C18 1.249 1_655 S
O11 Dy0 2.326 . S
O11 C18 1.267 . S
O12 C1 1.185 1_556 S
O12 Dy3 2.398 1_556 S
O13 C1 1.355 . S
O13 Dy3 2.491 . S
O14 Dy3 2.403 1_556 S
O14 C9 1.254 1_665 S
O15 Dy0 2.310 1_556 S
O15 Dy3 2.664 1_446 S
O15 C9 1.268 . S
O16 Dy0 2.351 1_565 S
O16 C19 1.249 . S
O17 Dy3 2.326 1_556 S
O17 C19 1.267 1_656 S
C18 O10 1.249 1_455 S
C18 O11 1.267 . S
C19 O16 1.249 . S
C19 O17 1.267 1_454 S
Dy20 O24 2.398 . S
Dy20 O25 2.491 1_565 S
Dy20 O26 2.403 . S
Dy20 O27 2.664 1_665 S
Dy20 O31 2.326 1_565 S
Dy20 O35 2.310 1_565 S
Dy20 O36 2.351 . S
C21 O32 1.185 . S
C21 O33 1.355 . S
C22 O24 1.185 1_545 S
C22 O25 1.355 . S
Dy23 O27 2.310 . S
Dy23 O30 2.351 . S
Dy23 O32 2.398 . S
Dy23 O33 2.491 . S
Dy23 O34 2.403 . S
Dy23 O35 2.664 1_455 S
Dy23 O37 2.326 1_545 S
O24 Dy20 2.398 . S
O24 C22 1.185 1_565 S
O25 Dy20 2.491 1_545 S
O25 C22 1.355 . S
O26 Dy20 2.403 . S
O26 C28 1.255 . S
O27 Dy20 2.664 1_445 S
O27 Dy23 2.310 . S
O27 C28 1.268 1_445 S
C28 O26 1.255 . S
C28 O27 1.268 1_665 S
C29 O34 1.254 . S
C29 O35 1.268 1_455 S
O30 Dy23 2.351 . S
O30 C38 1.249 . S
O31 Dy20 2.326 1_545 S
O31 C38 1.267 1_655 S
O32 C21 1.185 . S
O32 Dy23 2.398 . S
O33 C21 1.355 . S
O33 Dy23 2.491 . S
O34 Dy23 2.403 . S
O34 C29 1.254 . S
O35 Dy20 2.310 1_545 S
O35 Dy23 2.664 1_655 S
O35 C29 1.268 1_655 S
O36 Dy20 2.351 . S
O36 C39 1.249 1_655 S
O37 Dy23 2.326 1_565 S
O37 C39 1.267 . S
C38 O30 1.249 . S
C38 O31 1.267 1_455 S
C39 O36 1.249 1_455 S
C39 O37 1.267 . S
Dy40 O44 2.398 . S
Dy40 O45 2.491 . S
Dy40 O46 2.403 . S
Dy40 O47 2.664 1_665 S
Dy40 O51 2.326 . S
Dy40 O55 2.310 1_565 S
Dy40 O56 2.351 1_655 S
C41 O52 1.185 . S
C41 O53 1.355 . S
C42 O44 1.185 . S
C42 O45 1.355 . S
Dy43 O47 2.310 . S
Dy43 O50 2.351 1_455 S
Dy43 O52 2.398 . S
Dy43 O53 2.491 . S
Dy43 O54 2.403 . S
Dy43 O55 2.664 1_455 S
Dy43 O57 2.326 . S
O44 Dy40 2.398 . S
O44 C42 1.185 . S
O45 Dy40 2.491 . S
O45 C42 1.355 . S
O46 Dy40 2.403 . S
O46 C48 1.254 1_665 S
O47 Dy40 2.664 1_445 S
O47 Dy43 2.310 . S
O47 C48 1.268 . S
C48 O46 1.254 1_445 S
C48 O47 1.268 . S
C49 O54 1.254 . S
C49 O55 1.268 1_455 S
O50 Dy43 2.351 1_655 S
O50 C58 1.249 . S
O51 Dy40 2.326 . S
O51 C58 1.267 1_565 S
O52 C41 1.185 . S
O52 Dy43 2.398 . S
O53 C41 1.355 . S
O53 Dy43 2.491 . S
O54 Dy43 2.403 . S
O54 C49 1.254 . S
O55 Dy40 2.310 1_545 S
O55 Dy43 2.664 1_655 S
O55 C49 1.268 1_655 S
O56 Dy40 2.351 1_455 S
O56 C59 1.249 1_565 S
O57 Dy43 2.326 . S
O57 C59 1.267 . S
C58 O50 1.249 . S
C58 O51 1.267 1_545 S
C59 O56 1.249 1_545 S
C59 O57 1.267 . S
H60 C72 0.930 1_655 S
H61 C74 0.930 . S
H62 C75 0.930 . S
H63 C79 0.959 . S
H64 C79 0.959 . S
H65 C79 0.961 . S
H66 C80 0.960 . S
H67 C80 0.961 . S
H68 C80 0.959 . S
H69 C83 0.929 . S
H70 C84 0.931 . S
H71 C86 0.930 1_655 S
C72 H60 0.930 1_455 S
C72 C73 1.399 . S
C72 C77 1.399 . S
C73 C72 1.399 . S
C73 C74 1.376 1_554 S
C74 H61 0.930 . S
C74 C73 1.376 1_556 S
C74 C75 1.388 . S
C75 H62 0.930 . S
C75 C74 1.388 . S
C75 C76 1.390 . S
C76 C75 1.390 . S
C76 C77 1.394 1_556 S
C76 C82 1.465 . S
C77 C72 1.399 . S
C77 C76 1.394 1_554 S
C77 C78 1.516 . S
C78 C77 1.516 . S
C78 C79 1.502 1_455 S
C78 C80 1.561 . S
C78 C81 1.526 . S
C79 H63 0.959 . S
C79 H64 0.959 . S
C79 H65 0.961 . S
C79 C78 1.502 1_655 S
C80 H66 0.960 . S
C80 H67 0.961 . S
C80 H68 0.959 . S
C80 C78 1.561 . S
C81 C78 1.526 . S
C81 C82 1.396 1_554 S
C81 C86 1.390 . S
C82 C76 1.465 . S
C82 C81 1.396 1_556 S
C82 C83 1.399 . S
C83 H69 0.929 . S
C83 C82 1.399 . S
C83 C84 1.385 . S
C84 H70 0.931 . S
C84 C83 1.385 . S
C84 C85 1.389 1_556 S
C85 C84 1.389 1_554 S
C85 C86 1.387 . S
C86 H71 0.930 1_455 S
C86 C81 1.390 . S
C86 C85 1.387 . S
H87 C99 0.930 . S
H88 C101 0.930 . S
H89 C102 0.930 . S
H90 C106 0.959 . S
H91 C106 0.959 . S
H92 C106 0.961 . S
H93 C107 0.960 . S
H94 C107 0.961 . S
H95 C107 0.959 . S
H96 C110 0.929 . S
H97 C111 0.931 . S
H98 C113 0.930 . S
C99 H87 0.930 . S
C99 C100 1.399 1_545 S
C99 C104 1.399 . S
C100 C99 1.399 1_565 S
C100 C101 1.376 . S
C101 H88 0.930 . S
C101 C100 1.376 . S
C101 C102 1.388 . S
C102 H89 0.930 . S
C102 C101 1.388 . S
C102 C103 1.390 . S
C103 C102 1.390 . S
C103 C104 1.394 1_565 S
C103 C109 1.465 . S
C104 C99 1.399 . S
C104 C103 1.394 1_545 S
C104 C105 1.516 . S
C105 C104 1.516 . S
C105 C106 1.502 . S
C105 C107 1.561 . S
C105 C108 1.526 . S
C106 H90 0.959 . S
C106 H91 0.959 . S
C106 H92 0.961 . S
C106 C105 1.502 . S
C107 H93 0.960 . S
C107 H94 0.961 . S
C107 H95 0.959 . S
C107 C105 1.561 . S
C108 C105 1.526 . S
C108 C109 1.396 1_545 S
C108 C113 1.390 . S
C109 C103 1.465 . S
C109 C108 1.396 1_565 S
C109 C110 1.399 . S
C110 H96 0.929 . S
C110 C109 1.399 . S
C110 C111 1.385 . S
C111 H97 0.931 . S
C111 C110 1.385 . S
C111 C112 1.389 1_565 S
C112 C111 1.389 1_545 S
C112 C113 1.387 . S
C113 H98 0.930 . S
C113 C108 1.390 . S
C113 C112 1.387 . S
H114 C126 0.930 . S
H115 C128 0.930 . S
H116 C129 0.930 . S
H117 C133 0.959 . S
H118 C133 0.959 . S
H119 C133 0.961 . S
H120 C134 0.960 . S
H121 C134 0.961 . S
H122 C134 0.959 . S
H123 C137 0.929 . S
H124 C138 0.931 . S
H125 C140 0.930 . S
C126 H114 0.930 . S
C126 C127 1.399 . S
C126 C131 1.399 . S
C127 C126 1.399 . S
C127 C128 1.376 . S
C128 H115 0.930 . S
C128 C127 1.376 . S
C128 C129 1.388 . S
C129 H116 0.930 . S
C129 C128 1.388 . S
C129 C130 1.390 . S
C130 C129 1.390 . S
C130 C131 1.394 . S
C130 C136 1.465 . S
C131 C126 1.399 . S
C131 C130 1.394 . S
C131 C132 1.516 . S
C132 C131 1.516 . S
C132 C133 1.502 . S
C132 C134 1.561 . S
C132 C135 1.526 . S
C133 H117 0.959 . S
C133 H118 0.959 . S
C133 H119 0.961 . S
C133 C132 1.502 . S
C134 H120 0.960 . S
C134 H121 0.961 . S
C134 H122 0.959 . S
C134 C132 1.561 . S
C135 C132 1.526 . S
C135 C136 1.396 . S
C135 C140 1.390 . S
C136 C130 1.465 . S
C136 C135 1.396 . S
C136 C137 1.399 . S
C137 H123 0.929 . S
C137 C136 1.399 . S
C137 C138 1.385 . S
C138 H124 0.931 . S
C138 C137 1.385 . S
C138 C139 1.389 . S
C139 C138 1.389 . S
C139 C140 1.387 . S
C140 H125 0.930 . S
C140 C135 1.390 . S
C140 C139 1.387 . S
H141 C153 0.930 . S
H142 C155 0.930 1_565 S
H143 C156 0.930 . S
H144 C160 0.959 . S
H145 C160 0.959 . S
H146 C160 0.961 . S
H147 C161 0.960 . S
H148 C161 0.961 . S
H149 C161 0.959 1_565 S
H150 C164 0.929 . S
H151 C165 0.931 . S
H152 C167 0.930 . S
C153 H141 0.930 . S
C153 C154 1.399 . S
C153 C158 1.399 . S
C154 C153 1.399 . S
C154 C155 1.376 . S
C155 H142 0.930 1_545 S
C155 C154 1.376 . S
C155 C156 1.388 1_545 S
C156 H143 0.930 . S
C156 C155 1.388 1_565 S
C156 C157 1.390 1_565 S
C157 C156 1.390 1_545 S
C157 C158 1.394 . S
C157 C163 1.465 . S
C158 C153 1.399 . S
C158 C157 1.394 . S
C158 C159 1.516 . S
C159 C158 1.516 . S
C159 C160 1.502 . S
C159 C161 1.561 . S
C159 C162 1.526 . S
C160 H144 0.959 . S
C160 H145 0.959 . S
C160 H146 0.961 . S
C160 C159 1.502 . S
C161 H147 0.960 . S
C161 H148 0.961 . S
C161 H149 0.959 1_545 S
C161 C159 1.561 . S
C162 C159 1.526 . S
C162 C163 1.396 . S
C162 C167 1.390 . S
C163 C157 1.465 . S
C163 C162 1.396 . S
C163 C164 1.399 1_545 S
C164 H150 0.929 . S
C164 C163 1.399 1_565 S
C164 C165 1.385 . S
C165 H151 0.931 . S
C165 C164 1.385 . S
C165 C166 1.389 1_565 S
C166 C165 1.389 1_545 S
C166 C167 1.387 . S
C167 H152 0.930 . S
C167 C162 1.390 . S
C167 C166 1.387 . S
H168 C180 0.930 . S
H169 C182 0.930 . S
H170 C183 0.930 . S
H171 C187 0.959 . S
H172 C187 0.959 . S
H173 C187 0.961 . S
H174 C188 0.960 . S
H175 C188 0.961 . S
H176 C188 0.959 . S
H177 C191 0.929 . S
H178 C192 0.931 . S
H179 C194 0.930 . S
C180 H168 0.930 . S
C180 C181 1.399 . S
C180 C185 1.399 . S
C181 C180 1.399 . S
C181 C182 1.376 1_554 S
C182 H169 0.930 . S
C182 C181 1.376 1_556 S
C182 C183 1.388 . S
C183 H170 0.930 . S
C183 C182 1.388 . S
C183 C184 1.390 . S
C184 C183 1.390 . S
C184 C185 1.394 1_556 S
C184 C190 1.465 . S
C185 C180 1.399 . S
C185 C184 1.394 1_554 S
C185 C186 1.516 . S
C186 C185 1.516 . S
C186 C187 1.502 . S
C186 C188 1.561 . S
C186 C189 1.526 . S
C187 H171 0.959 . S
C187 H172 0.959 . S
C187 H173 0.961 . S
C187 C186 1.502 . S
C188 H174 0.960 . S
C188 H175 0.961 . S
C188 H176 0.959 . S
C188 C186 1.561 . S
C189 C186 1.526 . S
C189 C190 1.396 1_554 S
C189 C194 1.390 . S
C190 C184 1.465 . S
C190 C189 1.396 1_556 S
C190 C191 1.399 . S
C191 H177 0.929 . S
C191 C190 1.399 . S
C191 C192 1.385 . S
C192 H178 0.931 . S
C192 C191 1.385 . S
C192 C193 1.389 1_556 S
C193 C192 1.389 1_554 S
C193 C194 1.387 . S
C194 H179 0.930 . S
C194 C189 1.390 . S
C194 C193 1.387 . S
H195 C207 0.930 . S
H196 C209 0.930 . S
H197 C210 0.930 . S
H198 C214 0.959 . S
H199 C214 0.959 . S
H200 C214 0.961 . S
H201 C215 0.960 . S
H202 C215 0.961 . S
H203 C215 0.959 . S
H204 C218 0.929 . S
H205 C219 0.931 . S
H206 C221 0.930 . S
C207 H195 0.930 . S
C207 C208 1.399 1_455 S
C207 C212 1.399 . S
C208 C207 1.399 1_655 S
C208 C209 1.376 . S
C209 H196 0.930 . S
C209 C208 1.376 . S
C209 C210 1.388 . S
C210 H197 0.930 . S
C210 C209 1.388 . S
C210 C211 1.390 . S
C211 C210 1.390 . S
C211 C212 1.394 1_655 S
C211 C217 1.465 . S
C212 C207 1.399 . S
C212 C211 1.394 1_455 S
C212 C213 1.516 . S
C213 C212 1.516 . S
C213 C214 1.502 . S
C213 C215 1.561 . S
C213 C216 1.526 . S
C214 H198 0.959 . S
C214 H199 0.959 . S
C214 H200 0.961 . S
C214 C213 1.502 . S
C215 H201 0.960 . S
C215 H202 0.961 . S
C215 H203 0.959 . S
C215 C213 1.561 . S
C216 C213 1.526 . S
C216 C217 1.396 1_455 S
C216 C221 1.390 . S
C217 C211 1.465 . S
C217 C216 1.396 1_655 S
C217 C218 1.399 . S
C218 H204 0.929 . S
C218 C217 1.399 . S
C218 C219 1.385 . S
C219 H205 0.931 . S
C219 C218 1.385 . S
C219 C220 1.389 1_655 S
C220 C219 1.389 1_455 S
C220 C221 1.387 . S
C221 H206 0.930 . S
C221 C216 1.390 . S
C221 C220 1.387 . S
H222 C234 0.930 . S
H223 C236 0.930 1_655 S
H224 C237 0.930 1_655 S
H225 C241 0.959 1_655 S
H226 C241 0.959 . S
H227 C241 0.961 . S
H228 C242 0.960 . S
H229 C242 0.961 . S
H230 C242 0.959 . S
H231 C245 0.929 1_655 S
H232 C246 0.931 1_655 S
H233 C248 0.930 . S
C234 H222 0.930 . S
C234 C235 1.399 . S
C234 C239 1.399 . S
C235 C234 1.399 . S
C235 C236 1.376 1_545 S
C236 H223 0.930 1_455 S
C236 C235 1.376 1_565 S
C236 C237 1.388 . S
C237 H224 0.930 1_455 S
C237 C236 1.388 . S
C237 C238 1.390 . S
C238 C237 1.390 . S
C238 C239 1.394 1_565 S
C238 C244 1.465 . S
C239 C234 1.399 . S
C239 C238 1.394 1_545 S
C239 C240 1.516 . S
C240 C239 1.516 . S
C240 C241 1.502 . S
C240 C242 1.561 . S
C240 C243 1.526 . S
C241 H225 0.959 1_455 S
C241 H226 0.959 . S
C241 H227 0.961 . S
C241 C240 1.502 . S
C242 H228 0.960 . S
C242 H229 0.961 . S
C242 H230 0.959 . S
C242 C240 1.561 . S
C243 C240 1.526 . S
C243 C244 1.396 1_545 S
C243 C248 1.390 . S
C244 C238 1.465 . S
C244 C243 1.396 1_565 S
C244 C245 1.399 . S
C245 H231 0.929 1_455 S
C245 C244 1.399 . S
C245 C246 1.385 . S
C246 H232 0.931 1_455 S
C246 C245 1.385 . S
C246 C247 1.389 1_565 S
C247 C246 1.389 1_545 S
C247 C248 1.387 . S
C248 H233 0.930 . S
C248 C243 1.390 . S
C248 C247 1.387 . S
H249 C261 0.930 . S
H250 C263 0.930 . S
H251 C264 0.930 . S
H252 C268 0.959 . S
H253 C268 0.959 . S
H254 C268 0.961 . S
H255 C269 0.960 . S
H256 C269 0.961 . S
H257 C269 0.959 1_455 S
H258 C272 0.929 . S
H259 C273 0.931 . S
H260 C275 0.930 . S
C261 H249 0.930 . S
C261 C262 1.399 1_665 S
C261 C266 1.399 . S
C262 C261 1.399 1_445 S
C262 C263 1.376 . S
C263 H250 0.930 . S
C263 C262 1.376 . S
C263 C264 1.388 . S
C264 H251 0.930 . S
C264 C263 1.388 . S
C264 C265 1.390 . S
C265 C264 1.390 . S
C265 C266 1.394 1_445 S
C265 C271 1.465 . S
C266 C261 1.399 . S
C266 C265 1.394 1_665 S
C266 C267 1.516 . S
C267 C266 1.516 . S
C267 C268 1.502 . S
C267 C269 1.561 . S
C267 C270 1.526 . S
C268 H252 0.959 . S
C268 H253 0.959 . S
C268 H254 0.961 . S
C268 C267 1.502 . S
C269 H255 0.960 . S
C269 H256 0.961 . S
C269 H257 0.959 1_655 S
C269 C267 1.561 . S
C270 C267 1.526 . S
C270 C271 1.396 1_665 S
C270 C275 1.390 . S
C271 C265 1.465 . S
C271 C270 1.396 1_445 S
C271 C272 1.399 . S
C272 H258 0.929 . S
C272 C271 1.399 . S
C272 C273 1.385 . S
C273 H259 0.931 . S
C273 C272 1.385 . S
C273 C274 1.389 . S
C274 C273 1.389 . S
C274 C275 1.387 1_445 S
C275 H260 0.930 . S
C275 C270 1.390 . S
C275 C274 1.387 1_665 S
H276 C288 0.930 . S
H277 C290 0.930 . S
H278 C291 0.930 . S
H279 C295 0.959 . S
H280 C295 0.959 . S
H281 C295 0.961 . S
H282 C296 0.960 . S
H283 C296 0.961 . S
H284 C296 0.959 1_655 S
H285 C299 0.929 . S
H286 C300 0.931 . S
H287 C302 0.930 . S
C288 H276 0.930 . S
C288 C289 1.399 . S
C288 C293 1.399 . S
C289 C288 1.399 . S
C289 C290 1.376 1_445 S
C290 H277 0.930 . S
C290 C289 1.376 1_665 S
C290 C291 1.388 . S
C291 H278 0.930 . S
C291 C290 1.388 . S
C291 C292 1.390 . S
C292 C291 1.390 . S
C292 C293 1.394 1_665 S
C292 C298 1.465 . S
C293 C288 1.399 . S
C293 C292 1.394 1_445 S
C293 C294 1.516 . S
C294 C293 1.516 . S
C294 C295 1.502 . S
C294 C296 1.561 . S
C294 C297 1.526 . S
C295 H279 0.959 . S
C295 H280 0.959 . S
C295 H281 0.961 . S
C295 C294 1.502 . S
C296 H282 0.960 . S
C296 H283 0.961 . S
C296 H284 0.959 1_455 S
C296 C294 1.561 . S
C297 C294 1.526 . S
C297 C298 1.396 1_445 S
C297 C302 1.390 . S
C298 C292 1.465 . S
C298 C297 1.396 1_665 S
C298 C299 1.399 . S
C299 H285 0.929 . S
C299 C298 1.399 . S
C299 C300 1.385 . S
C300 H286 0.931 . S
C300 C299 1.385 . S
C300 C301 1.389 1_665 S
C301 C300 1.389 1_445 S
C301 C302 1.387 . S
C302 H287 0.930 . S
C302 C297 1.390 . S
C302 C301 1.387 . S
C73 C18 1.867 . S
C85 C19 1.841 . S
C100 C21 0.740 1_565 S
C112 C22 0.603 . S
C127 C42 1.171 . S
C139 C41 1.166 . S
C154 C58 2.421 . S
C166 C59 2.408 . S
C181 C1 1.125 . S
C193 C2 1.153 . S
C208 C38 1.870 1_655 S
C220 C39 1.842 . S
C235 C28 1.463 1_445 S
C247 C8 1.463 . S
C262 C29 1.418 . S
C274 C48 1.475 . S
C289 C49 1.484 . S
C301 C9 1.428 . S
