# Generated by pormake.
# Topology bsn, (6)-cn, num edge types: 1
# Building blocks:
#     Node 0, Type 0, BuildingBlock: MIDCAF_clean_sbu_0, # of connection points: 6
#     Node 1, Type 0, BuildingBlock: MIDCAF_clean_sbu_0, # of connection points: 6
#     Node 2, Type 0, BuildingBlock: MIDCAF_clean_sbu_0, # of connection points: 6
#     Node 3, Type 0, BuildingBlock: MIDCAF_clean_sbu_0, # of connection points: 6
#     Edge 4, Type (0, 0), BuildingBlock: TEMPAE_clean_linker_10, # of connection points: 2
#     Edge 5, Type (0, 0), BuildingBlock: TEMPAE_clean_linker_10, # of connection points: 2
#     Edge 6, Type (0, 0), BuildingBlock: TEMPAE_clean_linker_10, # of connection points: 2
#     Edge 7, Type (0, 0), BuildingBlock: TEMPAE_clean_linker_10, # of connection points: 2
#     Edge 8, Type (0, 0), BuildingBlock: TEMPAE_clean_linker_10, # of connection points: 2
#     Edge 9, Type (0, 0), BuildingBlock: TEMPAE_clean_linker_10, # of connection points: 2
#     Edge 10, Type (0, 0), BuildingBlock: TEMPAE_clean_linker_10, # of connection points: 2
#     Edge 11, Type (0, 0), BuildingBlock: TEMPAE_clean_linker_10, # of connection points: 2
#     Edge 12, Type (0, 0), BuildingBlock: TEMPAE_clean_linker_10, # of connection points: 2
#     Edge 13, Type (0, 0), BuildingBlock: TEMPAE_clean_linker_10, # of connection points: 2
#     Edge 14, Type (0, 0), BuildingBlock: TEMPAE_clean_linker_10, # of connection points: 2
#     Edge 15, Type (0, 0), BuildingBlock: TEMPAE_clean_linker_10, # of connection points: 2
# Relax obj value: 0.106
# Max RMSD: 0.165
# Mean RMSD: 0.164
data_MOF--net-bsn--node1-MIDCAF_clean_sbu_0--edge1-TEMPAE_clean_linker_10
_symmetry_space_group_name_H-M    P1
_symmetry_Int_Tables_number       1
_symmetry_cell_setting            triclinic
loop_
_symmetry_equiv_pos_as_xyz
'x, y, z'
_cell_length_a     30.877786
_cell_length_b     30.907882
_cell_length_c     15.402411
_cell_angle_alpha  90.392283
_cell_angle_beta   95.560761
_cell_angle_gamma 90.055181
loop_
_atom_site_label
_atom_site_type_symbol
_atom_site_fract_x
_atom_site_fract_y
_atom_site_fract_z
_atom_type_partial_charge
Zn0 Zn 0.97074 0.19796 0.30237 0.0
Zn1 Zn 0.07443 0.30706 0.4602 0.0
Zn2 Zn 0.01966 0.25542 0.37863 0.0
C3 C -0.00113 0.35603 0.4215 0.0
C4 C 0.1155 0.28241 0.31982 0.0
O5 O 0.0164 0.19535 0.46429 0.0
O6 O 0.96876 0.15261 0.39029 0.0
C7 C 0.92037 0.2739 0.29868 0.0
O8 O 0.98518 0.3203 0.3839 0.0
O9 O 0.03631 0.35776 0.46218 0.0
O10 O 0.12089 0.30902 0.38228 0.0
O11 O 0.07999 0.26011 0.30802 0.0
O12 O 0.91937 0.23482 0.27424 0.0
O13 O 0.95508 0.28926 0.34197 0.0
O14 O 0.04789 0.23606 0.2567 0.0
O15 O 0.00463 0.18322 0.20388 0.0
C16 C 0.03734 0.20703 0.19779 0.0
O17 O 0.03699 0.23024 0.51306 0.0
O18 O 0.08788 0.27543 0.5699 0.0
C19 C 0.99561 0.15889 0.45619 0.0
C20 C 0.06467 0.24232 0.57695 0.0
Zn21 Zn 0.96243 0.8062 0.53855 0.0
Zn22 Zn 0.06594 0.70219 0.63708 0.0
Zn23 Zn 0.01111 0.75569 0.59678 0.0
C24 C 0.11557 0.77389 0.62542 0.0
C25 C 0.02229 0.65931 0.50507 0.0
O26 O 0.95202 0.75233 0.6726 0.0
O27 O 0.90824 0.77742 0.56317 0.0
C28 C 0.02239 0.85829 0.6147 0.0
O29 O 0.07697 0.79038 0.6244 0.0
O30 O 0.11962 0.73342 0.62001 0.0
O31 O 0.05226 0.6513 0.56407 0.0
O32 O 0.00525 0.69769 0.50079 0.0
O33 O 0.98139 0.85815 0.60784 0.0
O34 O 0.04271 0.82258 0.60143 0.0
O35 O 0.99248 0.73685 0.46122 0.0
O36 O 0.97604 0.80273 0.41559 0.0
C37 C 0.98336 0.76359 0.39842 0.0
O38 O 0.98948 0.73284 0.71856 0.0
O39 O 0.05011 0.69756 0.75843 0.0
C40 C 0.91314 0.75845 0.63551 0.0
C41 C 0.01348 0.71143 0.77604 0.0
Zn42 Zn 0.46748 0.68542 0.81209 0.0
Zn43 Zn 0.57663 0.79633 0.9586 0.0
Zn44 Zn 0.51877 0.74338 0.88168 0.0
C45 C 0.56372 0.73356 0.0798 0.0
C46 C 0.50107 0.84562 0.91285 0.0
O47 O 0.54442 0.72337 0.75919 0.0
O48 O 0.4951 0.67659 0.70252 0.0
C49 C 0.5004 0.64579 0.96126 0.0
O50 O 0.5371 0.72007 0.01552 0.0
O51 O 0.58638 0.76705 0.07246 0.0
O52 O 0.53949 0.84818 0.94879 0.0
O53 O 0.48555 0.80877 0.88393 0.0
O54 O 0.47454 0.63766 0.89475 0.0
O55 O 0.518 0.68383 0.97019 0.0
O56 O 0.45328 0.77706 0.85196 0.0
O57 O 0.41368 0.71975 0.80966 0.0
C58 C 0.41589 0.75968 0.82729 0.0
O59 O 0.57856 0.74528 0.80833 0.0
O60 O 0.62344 0.79149 0.88143 0.0
C61 C 0.52992 0.69738 0.69731 0.0
C62 C 0.61564 0.76499 0.81938 0.0
Zn63 Zn 0.5541 0.18661 0.16433 0.0
Zn64 Zn 0.47022 0.29821 0.00991 0.0
Zn65 Zn 0.51071 0.24637 0.09675 0.0
C66 C 0.49018 0.24336 0.88966 0.0
C67 C 0.53181 0.34865 0.0944 0.0
O68 O 0.47726 0.2302 0.21222 0.0
O69 O 0.51938 0.17655 0.26297 0.0
C70 C 0.52819 0.14723 0.01525 0.0
O71 O 0.49762 0.22231 0.9614 0.0
O72 O 0.48356 0.28354 0.89109 0.0
O73 O 0.49311 0.35262 0.06137 0.0
O74 O 0.54841 0.31034 0.10538 0.0
O75 O 0.55398 0.13877 0.08128 0.0
O76 O 0.51055 0.18531 0.0084 0.0
O77 O 0.57719 0.27662 0.14073 0.0
O78 O 0.60901 0.21718 0.1923 0.0
C79 C 0.61122 0.25716 0.17753 0.0
O80 O 0.44621 0.25202 0.15295 0.0
O81 O 0.41178 0.28023 0.03507 0.0
C82 C 0.48724 0.20101 0.27001 0.0
C83 C 0.41025 0.26237 0.10797 0.0
C84 C 0.97433 0.42257 0.4911 0.0
C85 C 0.97458 0.39752 0.41488 0.0
C86 C 0.97093 0.46786 0.48793 0.0
C87 C 0.96716 0.48902 0.40615 0.0
C88 C 0.96144 0.46346 0.32884 0.0
C89 C 0.96563 0.4179 0.334 0.0
C90 C 0.97683 0.49315 0.57253 0.0
C91 C 0.95513 0.48423 0.24029 0.0
C92 C 0.96115 0.61133 0.44107 0.0
C93 C 0.00556 0.62208 0.44978 0.0
C94 C 0.94713 0.56892 0.41703 0.0
C95 C 0.97831 0.53641 0.40346 0.0
C96 C 0.02261 0.54858 0.40348 0.0
C97 C 0.03552 0.5911 0.42616 0.0
C98 C 0.89936 0.55827 0.41357 0.0
C99 C 0.05732 0.51563 0.38887 0.0
H100 H 0.98145 0.40699 0.55377 0.0
H101 H 0.96615 0.39891 0.27466 0.0
H102 H 0.00908 0.50938 0.57839 0.0
H103 H 0.95168 0.51865 0.57364 0.0
H104 H 0.97501 0.47212 0.63028 0.0
H105 H 0.93821 0.46192 0.19126 0.0
H106 H 0.93617 0.51465 0.24237 0.0
H107 H 0.98733 0.49226 0.21838 0.0
H108 H 0.93773 0.6349 0.4598 0.0
H109 H 0.06987 0.5992 0.43268 0.0
H110 H 0.89191 0.54597 0.47796 0.0
H111 H 0.89012 0.53286 0.36392 0.0
H112 H 0.87907 0.58744 0.39856 0.0
H113 H 0.06054 0.4926 0.44412 0.0
H114 H 0.08955 0.53089 0.3836 0.0
H115 H 0.04817 0.49669 0.3285 0.0
C116 C 0.67529 0.71454 0.79398 0.0
C117 C 0.65255 0.7526 0.77079 0.0
C118 C 0.71832 0.7085 0.7734 0.0
C119 C 0.73868 0.74104 0.72724 0.0
C120 C 0.71443 0.77801 0.6979 0.0
C121 C 0.67191 0.78368 0.7214 0.0
C122 C 0.74294 0.66883 0.80656 0.0
C123 C 0.73426 0.8129 0.64613 0.0
C124 C 0.86112 0.76156 0.75049 0.0
C125 C 0.87305 0.74415 0.67218 0.0
C126 C 0.81789 0.75829 0.77207 0.0
C127 C 0.78584 0.73789 0.71305 0.0
C128 C 0.79845 0.71821 0.63627 0.0
C129 C 0.84184 0.72156 0.61697 0.0
C130 C 0.8059 0.77904 0.85538 0.0
C131 C 0.76554 0.69662 0.57095 0.0
H132 H 0.66069 0.69108 0.8344 0.0
H133 H 0.65459 0.81349 0.7051 0.0
H134 H 0.75968 0.65346 0.75379 0.0
H135 H 0.76839 0.67843 0.85903 0.0
H136 H 0.72131 0.64453 0.83314 0.0
H137 H 0.70988 0.83736 0.6212 0.0
H138 H 0.7605 0.82962 0.6879 0.0
H139 H 0.74917 0.79848 0.58999 0.0
H140 H 0.88474 0.78024 0.79185 0.0
H141 H 0.85087 0.70879 0.55546 0.0
H142 H 0.78894 0.75524 0.89381 0.0
H143 H 0.7831 0.80625 0.83987 0.0
H144 H 0.83481 0.79166 0.89634 0.0
H145 H 0.74466 0.67402 0.60397 0.0
H146 H 0.78128 0.67849 0.52001 0.0
H147 H 0.74391 0.72156 0.53845 0.0
C148 C 0.57105 0.41066 0.03959 0.0
C149 C 0.55622 0.3896 0.11141 0.0
C150 C 0.57194 0.45619 0.03507 0.0
C151 C 0.55798 0.48141 0.10449 0.0
C152 C 0.54943 0.46023 0.18242 0.0
C153 C 0.54798 0.41457 0.18449 0.0
C154 C 0.58215 0.47697 0.95109 0.0
C155 C 0.53678 0.48559 0.26 0.0
C156 C 0.55546 0.60384 0.06074 0.0
C157 C 0.51302 0.6087 0.0201 0.0
C158 C 0.5701 0.56338 0.09498 0.0
C159 C 0.54195 0.52684 0.0867 0.0
C160 C 0.49814 0.5328 0.05205 0.0
C161 C 0.48429 0.57347 0.02037 0.0
C162 C 0.61645 0.55949 0.1348 0.0
C163 C 0.4664 0.4954 0.04208 0.0
H164 H 0.57674 0.39167 0.98232 0.0
H165 H 0.53588 0.39866 0.23986 0.0
H166 H 0.55146 0.48818 0.91469 0.0
H167 H 0.60342 0.50563 0.96465 0.0
H168 H 0.59841 0.45409 0.90879 0.0
H169 H 0.54212 0.46649 0.32093 0.0
H170 H 0.55558 0.51622 0.26836 0.0
H171 H 0.50176 0.49404 0.24967 0.0
H172 H 0.57811 0.63064 0.06071 0.0
H173 H 0.45128 0.57694 -0.00984 0.0
H174 H 0.63749 0.55033 0.08322 0.0
H175 H 0.61982 0.53433 0.18606 0.0
H176 H 0.62852 0.59084 0.16358 0.0
H177 H 0.478 0.47084 -0.00319 0.0
H178 H 0.43319 0.5057 0.01626 0.0
H179 H 0.46424 0.4795 0.10582 0.0
C180 C 0.85855 0.32193 0.33698 0.0
C181 C 0.88019 0.29948 0.27462 0.0
C182 C 0.81363 0.33153 0.32088 0.0
C183 C 0.78992 0.31728 0.24203 0.0
C184 C 0.81332 0.3002 0.17497 0.0
C185 C 0.85799 0.29179 0.192 0.0
C186 C 0.79076 0.35316 0.39151 0.0
C187 C 0.79029 0.28537 0.08897 0.0
C188 C 0.68535 0.25488 0.25676 0.0
C189 C 0.65424 0.27853 0.20367 0.0
C190 C 0.72861 0.26852 0.27301 0.0
C191 C 0.74184 0.30817 0.23834 0.0
C192 C 0.70989 0.33441 0.19107 0.0
C193 C 0.66652 0.31905 0.17323 0.0
C194 C 0.7608 0.23854 0.32255 0.0
C195 C 0.72133 0.37792 0.1561 0.0
H196 H 0.87547 0.3285 0.40071 0.0
H197 H 0.87479 0.27514 0.14289 0.0
H198 H 0.76354 0.37365 0.363 0.0
H199 H 0.77702 0.32818 0.43238 0.0
H200 H 0.81365 0.37344 0.43454 0.0
H201 H 0.81345 0.27669 0.04081 0.0
H202 H 0.77003 0.25654 0.09959 0.0
H203 H 0.76835 0.31108 0.06079 0.0
H204 H 0.67643 0.22407 0.28315 0.0
H205 H 0.64293 0.33807 0.13328 0.0
H206 H 0.77661 0.25513 0.38129 0.0
H207 H 0.78673 0.22923 0.28093 0.0
H208 H 0.74528 0.20847 0.34383 0.0
H209 H 0.75136 0.39165 0.19124 0.0
H210 H 0.69415 0.40108 0.16098 0.0
H211 H 0.72622 0.3746 0.08596 0.0
C212 C 0.35944 0.25025 0.2249 0.0
C213 C 0.36644 0.25408 0.13689 0.0
C214 C 0.31685 0.24854 0.25056 0.0
C215 C 0.28058 0.2508 0.18649 0.0
C216 C 0.28764 0.25165 0.09728 0.0
C217 C 0.33031 0.25322 0.07374 0.0
C218 C 0.31071 0.24682 0.34646 0.0
C219 C 0.25016 0.25393 0.02663 0.0
C220 C 0.16541 0.232 0.24987 0.0
C221 C 0.15293 0.27433 0.269 0.0
C222 C 0.20679 0.22357 0.22216 0.0
C223 C 0.23584 0.25839 0.21238 0.0
C224 C 0.22206 0.30135 0.22642 0.0
C225 C 0.181 0.3087 0.25517 0.0
C226 C 0.22022 0.17734 0.20798 0.0
C227 C 0.25128 0.3396 0.21401 0.0
H228 H 0.38697 0.25074 0.27379 0.0
H229 H 0.33529 0.25526 0.00516 0.0
H230 H 0.29861 0.27856 0.36792 0.0
H231 H 0.28596 0.22211 0.35864 0.0
H232 H 0.34153 0.23929 0.3869 0.0
H233 H 0.26089 0.24907 0.96047 0.0
H234 H 0.22513 0.22926 0.03715 0.0
H235 H 0.23436 0.28611 0.02888 0.0
H236 H 0.14405 0.2053 0.26198 0.0
H237 H 0.17139 0.34146 0.27006 0.0
H238 H 0.24577 0.16809 0.26018 0.0
H239 H 0.2344 0.17376 0.14487 0.0
H240 H 0.19247 0.15449 0.20892 0.0
H241 H 0.28096 0.33769 0.26058 0.0
H242 H 0.23495 0.37099 0.22419 0.0
H243 H 0.2619 0.33905 0.14721 0.0
C244 C 0.33706 0.76185 0.84402 0.0
C245 C 0.37376 0.78361 0.81905 0.0
C246 C 0.29464 0.77465 0.8144 0.0
C247 C 0.28807 0.81093 0.75891 0.0
C248 C 0.32487 0.83612 0.74158 0.0
C249 C 0.36744 0.82194 0.77116 0.0
C250 C 0.25711 0.74643 0.83564 0.0
C251 C 0.31977 0.87632 0.68681 0.0
C252 C 0.19202 0.78529 0.5955 0.0
C253 C 0.15686 0.79907 0.64002 0.0
C254 C 0.23531 0.7933 0.62864 0.0
C255 C 0.24413 0.8164 0.70821 0.0
C256 C 0.20876 0.8357 0.74677 0.0
C257 C 0.16539 0.82641 0.71281 0.0
C258 C 0.27135 0.77224 0.58389 0.0
C259 C 0.21643 0.86287 0.82839 0.0
H260 H 0.34167 0.73245 0.88185 0.0
H261 H 0.39551 0.83908 0.75149 0.0
H262 H 0.23166 0.76628 0.86267 0.0
H263 H 0.24211 0.73059 0.77513 0.0
H264 H 0.26745 0.72083 0.8835 0.0
H265 H 0.34652 0.89965 0.70547 0.0
H266 H 0.32131 0.86751 0.61725 0.0
H267 H 0.28811 0.89242 0.6932 0.0
H268 H 0.18567 0.76434 0.53889 0.0
H269 H 0.13855 0.83725 0.74788 0.0
H270 H 0.28555 0.74533 0.62465 0.0
H271 H 0.29773 0.7958 0.576 0.0
H272 H 0.2596 0.75899 0.51859 0.0
H273 H 0.21863 0.84156 0.88629 0.0
H274 H 0.18919 0.88586 0.8341 0.0
H275 H 0.24734 0.88133 0.82945 0.0
C276 C 0.47551 0.90886 0.82245 0.0
C277 C 0.4772 0.88714 0.90242 0.0
C278 C 0.47354 0.95455 0.81901 0.0
C279 C 0.47384 0.97895 0.8975 0.0
C280 C 0.47005 0.95669 0.97667 0.0
C281 C 0.47188 0.91121 0.97808 0.0
C282 C 0.4759 0.97654 0.73256 0.0
C283 C 0.46952 0.98085 0.06207 0.0
C284 C 0.54543 0.07771 0.94476 0.0
C285 C 0.5149 0.11039 0.95567 0.0
C286 C 0.53245 0.03572 0.91808 0.0
C287 C 0.48756 0.02576 0.90139 0.0
C288 C 0.45681 0.05989 0.90251 0.0
C289 C 0.47083 0.10188 0.92987 0.0
C290 C 0.56682 0.00104 0.91646 0.0
C291 C 0.40881 0.05147 0.88227 0.0
H292 H 0.48034 0.8906 0.76381 0.0
H293 H 0.47383 0.89467 0.04022 0.0
H294 H 0.45699 0.0071 0.72913 0.0
H295 H 0.51029 0.98468 0.72457 0.0
H296 H 0.46354 0.95512 0.67741 0.0
H297 H 0.46064 0.9595 0.11533 0.0
H298 H 0.5023 0.99462 0.08125 0.0
H299 H 0.44616 0.00812 0.05529 0.0
H300 H 0.57957 0.08409 0.9641 0.0
H301 H 0.44691 0.12683 0.93837 0.0
H302 H 0.56209 0.9821 0.85488 0.0
H303 H 0.564 0.97831 0.97112 0.0
H304 H 0.60028 0.01471 0.92283 0.0
H305 H 0.40264 0.02629 0.83084 0.0
H306 H 0.3912 0.08148 0.86085 0.0
H307 H 0.39519 0.03977 0.94192 0.0
C308 C 0.03419 0.92888 0.69142 0.0
C309 C 0.04357 0.90142 0.6227 0.0
C310 C 0.03598 0.97426 0.68361 0.0
C311 C 0.04588 0.99273 0.60394 0.0
C312 C 0.0601 0.96511 0.53829 0.0
C313 C 0.05905 0.91978 0.54873 0.0
C314 C 0.0226 0.00219 0.75711 0.0
C315 C 0.07143 0.98309 0.45256 0.0
C316 C 0.97654 0.08666 0.51253 0.0
C317 C 0.00643 0.121 0.51404 0.0
C318 C 0.98873 0.04561 0.54469 0.0
C319 C 0.03195 0.03832 0.58154 0.0
C320 C 0.06135 0.07384 0.59065 0.0
C321 C 0.04841 0.11466 0.55592 0.0
C322 C 0.95579 0.00927 0.53392 0.0
C323 C 0.10721 0.06839 0.63233 0.0
H324 H 0.02172 0.91493 0.74845 0.0
H325 H 0.06555 0.89883 0.49475 0.0
H326 H 0.04258 0.03211 0.76427 0.0
H327 H 0.98811 0.01198 0.7426 0.0
H328 H 0.02573 0.98461 0.82008 0.0
H329 H 0.0877 0.95865 0.41368 0.0
H330 H 0.04121 0.99385 0.41383 0.0
H331 H 0.09306 0.01167 0.46355 0.0
H332 H 0.94391 0.09118 0.48109 0.0
H333 H 0.07203 0.14065 0.55684 0.0
H334 H 0.9521 0.99413 0.59785 0.0
H335 H 0.96728 0.98383 0.49043 0.0
H336 H 0.92328 0.02048 0.50574 0.0
H337 H 0.1086 0.04504 0.68693 0.0
H338 H 0.12116 0.09978 0.65721 0.0
H339 H 0.12791 0.05572 0.58298 0.0
C340 C 0.06061 0.16531 0.07167 0.0
C341 C 0.05868 0.20488 0.1163 0.0
C342 C 0.06915 0.16392 0.98385 0.0
C343 C 0.07421 0.20315 0.93919 0.0
C344 C 0.07592 0.24288 0.98611 0.0
C345 C 0.06883 0.24316 0.07478 0.0
C346 C 0.06968 0.12074 0.93754 0.0
C347 C 0.08118 0.28552 0.94099 0.0
C348 C 0.1077 0.2157 0.71057 0.0
C349 C 0.06714 0.22103 0.66245 0.0
C350 C 0.11063 0.206 0.79982 0.0
C351 C 0.07209 0.20349 0.84224 0.0
C352 C 0.03101 0.20593 0.79241 0.0
C353 C 0.02908 0.21391 0.70249 0.0
C354 C 0.155 0.20133 0.84938 0.0
C355 C 0.98907 0.20386 0.83516 0.0
H356 H 0.05321 0.13557 0.1042 0.0
H357 H 0.06722 0.27375 0.10923 0.0
H358 H 0.0382 0.11558 0.89765 0.0
H359 H 0.09574 0.11979 0.89274 0.0
H360 H 0.07463 0.09359 0.98436 0.0
H361 H 0.08427 0.31318 0.98762 0.0
H362 H 0.11035 0.28484 0.90438 0.0
H363 H 0.05252 0.29114 0.89313 0.0
H364 H 0.13718 0.22098 0.67914 0.0
H365 H -0.0022 0.21835 0.66517 0.0
H366 H 0.15483 0.17594 0.89997 0.0
H367 H 0.16445 0.23229 0.88283 0.0
H368 H 0.18018 0.19316 0.80509 0.0
H369 H 0.9879 0.17398 0.87423 0.0
H370 H 0.95994 0.20458 0.78681 0.0
H371 H 0.9874 0.23176 0.88049 0.0
C372 C 0.03365 0.69545 0.93231 0.0
C373 C 0.0013 0.70608 0.86559 0.0
C374 C 0.02539 0.69729 0.01977 0.0
C375 C 0.98356 0.70954 0.04088 0.0
C376 C 0.94955 0.71587 0.97369 0.0
C377 C 0.95898 0.71435 0.88642 0.0
C378 C 0.06265 0.69034 0.08942 0.0
C379 C 0.90409 0.72752 -0.00652 0.0
C380 C 0.97051 0.70671 0.28272 0.0
C381 C 0.98119 0.74946 0.3068 0.0
C382 C 0.96876 0.69337 0.19523 0.0
C383 C 0.9784 0.72359 0.13123 0.0
C384 C 0.98785 0.76714 0.15511 0.0
C385 C 0.98889 0.77956 0.24262 0.0
C386 C 0.95742 0.64697 0.17159 0.0
C387 C -0.00141 0.80034 0.08877 0.0
H388 H 0.06641 0.68833 0.9168 0.0
H389 H 0.93362 0.72092 0.8349 0.0
H390 H 0.07261 0.72193 0.11984 0.0
H391 H 0.05258 0.66917 0.14169 0.0
H392 H 0.09141 0.67566 0.0626 0.0
H393 H 0.87968 0.71783 0.93905 0.0
H394 H 0.8956 0.71201 0.05433 0.0
H395 H 0.90196 0.76309 0.00223 0.0
H396 H 0.96307 0.6839 0.33201 0.0
H397 H -0.00314 0.81275 0.26114 0.0
H398 H 0.98619 0.63037 0.14911 0.0
H399 H 0.93125 0.64576 0.1169 0.0
H400 H 0.94663 0.62875 0.22763 0.0
H401 H 0.02854 0.79059 0.05931 0.0
H402 H 0.00382 0.83314 0.11789 0.0
H403 H 0.97189 0.80215 0.03531 0.0
C404 C 0.52648 0.70691 0.20389 0.0
C405 C 0.56518 0.71297 0.16553 0.0
C406 C 0.52733 0.69842 0.29328 0.0
C407 C 0.56794 0.6941 0.34404 0.0
C408 C 0.60701 0.69558 0.30316 0.0
C409 C 0.6052 0.70617 0.21447 0.0
C410 C 0.48489 0.69777 0.3345 0.0
C411 C 0.65075 0.68854 0.35377 0.0
C412 C 0.56358 0.73265 0.57638 0.0
C413 C 0.55073 0.69471 0.61561 0.0
C414 C 0.57203 0.73249 0.48856 0.0
C415 C 0.5691 0.69308 0.44057 0.0
C416 C 0.56119 0.65391 0.48327 0.0
C417 C 0.55105 0.65532 0.57002 0.0
C418 C 0.57995 0.77509 0.44529 0.0
C419 C 0.56047 0.61096 0.43587 0.0
H420 H 0.49564 0.71245 0.16563 0.0
H421 H 0.63512 0.71056 0.18404 0.0
H422 H 0.48181 0.66738 0.3712 0.0
H423 H 0.48424 0.72501 0.38172 0.0
H424 H 0.4562 0.70063 0.28547 0.0
H425 H 0.67598 0.67988 0.30992 0.0
H426 H 0.66126 0.71866 0.38932 0.0
H427 H 0.649 0.66255 0.40271 0.0
H428 H 0.56322 0.76306 0.61187 0.0
H429 H 0.54162 0.62585 0.60112 0.0
H430 H 0.55216 0.7823 0.39627 0.0
H431 H 0.60961 0.7733 0.41029 0.0
H432 H 0.58373 0.80233 0.49287 0.0
H433 H 0.52906 0.60707 0.39512 0.0
H434 H 0.56408 0.58347 0.4821 0.0
H435 H 0.58685 0.60925 0.39184 0.0
C436 C 0.46664 0.16014 0.39749 0.0
C437 C 0.46668 0.19934 0.35209 0.0
C438 C 0.46221 0.15959 0.48709 0.0
C439 C 0.45787 0.19921 0.53164 0.0
C440 C 0.45251 0.23824 0.48397 0.0
C441 C 0.45724 0.23786 0.3944 0.0
C442 C 0.46708 0.11722 0.53522 0.0
C443 C 0.44673 0.28108 0.52899 0.0
C444 C 0.44188 0.21009 0.77125 0.0
C445 C 0.4841 0.22104 0.80567 0.0
C446 C 0.43292 0.19997 0.68245 0.0
C447 C 0.46714 0.20127 0.62781 0.0
C448 C 0.51045 0.20913 0.66426 0.0
C449 C 0.51835 0.21926 0.75314 0.0
C450 C 0.38651 0.19135 0.64633 0.0
C451 C 0.548 0.21006 0.60831 0.0
H452 H 0.4737 0.13024 0.36442 0.0
H453 H 0.45765 0.26821 0.35957 0.0
H454 H 0.50082 0.1145 0.56681 0.0
H455 H 0.44473 0.11554 0.58731 0.0
H456 H 0.4607 0.08912 0.49043 0.0
H457 H 0.4363 0.30697 0.48182 0.0
H458 H 0.42233 0.27832 0.57696 0.0
H459 H 0.47808 0.29094 0.56515 0.0
H460 H 0.41544 0.21217 0.81262 0.0
H461 H 0.55082 0.22834 0.78044 0.0
H462 H 0.38479 0.16493 0.597 0.0
H463 H 0.37287 0.22087 0.6135 0.0
H464 H 0.36573 0.18266 0.6986 0.0
H465 H 0.54813 0.18027 0.56774 0.0
H466 H 0.57993 0.2129 0.6479 0.0
H467 H 0.54429 0.23802 0.56338 0.0
loop_
_geom_bond_atom_site_label_1
_geom_bond_atom_site_label_2
_geom_bond_distance
_geom_bond_site_symmetry_2
_ccdc_geom_bond_type
Zn0 O6 1.920 . S
Zn0 O12 1.898 . S
Zn0 O15 1.905 1_655 S
Zn1 O9 1.905 . S
Zn1 O10 1.898 . S
Zn1 O18 1.920 . S
Zn2 O5 2.080 . S
Zn2 O8 2.114 . S
Zn2 O11 2.120 . S
Zn2 O13 2.120 1_455 S
Zn2 O14 2.114 . S
Zn2 O17 2.080 . S
C3 O8 1.166 . S
C3 O9 1.182 . S
C4 O10 1.167 . S
C4 O11 1.299 . S
O5 Zn2 2.080 . S
O5 C19 1.305 . S
O6 Zn0 1.920 . S
O6 C19 1.234 1_655 S
C7 O12 1.167 . S
C7 O13 1.299 . S
O8 Zn2 2.114 . S
O8 C3 1.166 . S
O9 Zn1 1.905 . S
O9 C3 1.182 . S
O10 Zn1 1.898 . S
O10 C4 1.167 . S
O11 Zn2 2.120 . S
O11 C4 1.299 . S
O12 Zn0 1.898 . S
O12 C7 1.167 . S
O13 Zn2 2.120 1_655 S
O13 C7 1.299 . S
O14 Zn2 2.114 . S
O14 C16 1.166 . S
O15 Zn0 1.905 1_455 S
O15 C16 1.182 . S
C16 O14 1.166 . S
C16 O15 1.182 . S
O17 Zn2 2.080 . S
O17 C20 1.305 . S
O18 Zn1 1.920 . S
O18 C20 1.234 . S
C19 O5 1.305 . S
C19 O6 1.234 1_455 S
C20 O17 1.305 . S
C20 O18 1.234 . S
Zn21 O27 1.920 . S
Zn21 O33 1.898 . S
Zn21 O36 1.905 . S
Zn22 O30 1.905 . S
Zn22 O31 1.898 . S
Zn22 O39 1.920 . S
Zn23 O26 2.080 1_455 S
Zn23 O29 2.114 . S
Zn23 O32 2.120 . S
Zn23 O34 2.120 . S
Zn23 O35 2.114 . S
Zn23 O38 2.080 . S
C24 O29 1.166 . S
C24 O30 1.182 . S
C25 O31 1.167 . S
C25 O32 1.299 . S
O26 Zn23 2.080 1_655 S
O26 C40 1.305 . S
O27 Zn21 1.920 . S
O27 C40 1.234 . S
C28 O33 1.167 1_455 S
C28 O34 1.299 . S
O29 Zn23 2.114 . S
O29 C24 1.166 . S
O30 Zn22 1.905 . S
O30 C24 1.182 . S
O31 Zn22 1.898 . S
O31 C25 1.167 . S
O32 Zn23 2.120 . S
O32 C25 1.299 . S
O33 Zn21 1.898 . S
O33 C28 1.167 1_655 S
O34 Zn23 2.120 . S
O34 C28 1.299 . S
O35 Zn23 2.114 . S
O35 C37 1.166 1_455 S
O36 Zn21 1.905 . S
O36 C37 1.182 . S
C37 O35 1.166 1_655 S
C37 O36 1.182 . S
O38 Zn23 2.080 . S
O38 C41 1.305 . S
O39 Zn22 1.920 . S
O39 C41 1.234 . S
C40 O26 1.305 . S
C40 O27 1.234 . S
C41 O38 1.305 . S
C41 O39 1.234 . S
Zn42 O48 1.920 . S
Zn42 O54 1.898 . S
Zn42 O57 1.905 . S
Zn43 O51 1.905 . S
Zn43 O52 1.898 1_554 S
Zn43 O60 1.920 1_554 S
Zn44 O47 2.080 . S
Zn44 O50 2.114 1_556 S
Zn44 O53 2.120 . S
Zn44 O55 2.120 . S
Zn44 O56 2.114 . S
Zn44 O59 2.080 . S
C45 O50 1.166 . S
C45 O51 1.182 . S
C46 O52 1.167 . S
C46 O53 1.299 . S
O47 Zn44 2.080 . S
O47 C61 1.305 . S
O48 Zn42 1.920 . S
O48 C61 1.234 . S
C49 O54 1.167 . S
C49 O55 1.299 . S
O50 Zn44 2.114 1_554 S
O50 C45 1.166 . S
O51 Zn43 1.905 . S
O51 C45 1.182 . S
O52 Zn43 1.898 1_556 S
O52 C46 1.167 . S
O53 Zn44 2.120 . S
O53 C46 1.299 . S
O54 Zn42 1.898 . S
O54 C49 1.167 . S
O55 Zn44 2.120 . S
O55 C49 1.299 . S
O56 Zn44 2.114 . S
O56 C58 1.166 . S
O57 Zn42 1.905 . S
O57 C58 1.182 . S
C58 O56 1.166 . S
C58 O57 1.182 . S
O59 Zn44 2.080 . S
O59 C62 1.305 . S
O60 Zn43 1.920 1_556 S
O60 C62 1.234 . S
C61 O47 1.305 . S
C61 O48 1.234 . S
C62 O59 1.305 . S
C62 O60 1.234 . S
Zn63 O69 1.920 . S
Zn63 O75 1.898 . S
Zn63 O78 1.905 . S
Zn64 O72 1.905 . S
Zn64 O73 1.898 1_556 S
Zn64 O81 1.920 1_556 S
Zn65 O68 2.080 . S
Zn65 O71 2.114 1_554 S
Zn65 O74 2.120 . S
Zn65 O76 2.120 . S
Zn65 O77 2.114 . S
Zn65 O80 2.080 . S
C66 O71 1.166 . S
C66 O72 1.182 . S
C67 O73 1.167 . S
C67 O74 1.299 . S
O68 Zn65 2.080 . S
O68 C82 1.305 . S
O69 Zn63 1.920 . S
O69 C82 1.234 . S
C70 O75 1.167 . S
C70 O76 1.299 . S
O71 Zn65 2.114 1_556 S
O71 C66 1.166 . S
O72 Zn64 1.905 . S
O72 C66 1.182 . S
O73 Zn64 1.898 1_554 S
O73 C67 1.167 . S
O74 Zn65 2.120 . S
O74 C67 1.299 . S
O75 Zn63 1.898 . S
O75 C70 1.167 . S
O76 Zn65 2.120 . S
O76 C70 1.299 . S
O77 Zn65 2.114 . S
O77 C79 1.166 . S
O78 Zn63 1.905 . S
O78 C79 1.182 . S
C79 O77 1.166 . S
C79 O78 1.182 . S
O80 Zn65 2.080 . S
O80 C83 1.305 . S
O81 Zn64 1.920 1_554 S
O81 C83 1.234 . S
C82 O68 1.305 . S
C82 O69 1.234 . S
C83 O80 1.305 . S
C83 O81 1.234 . S
C84 C85 1.391 . S
C84 C86 1.394 . S
C84 H100 0.931 . S
C85 C84 1.391 . S
C85 C89 1.376 1_455 S
C86 C84 1.394 . S
C86 C87 1.369 . S
C86 C90 1.531 . S
C87 C86 1.369 . S
C87 C88 1.410 1_455 S
C87 C95 1.503 . S
C88 C87 1.410 1_655 S
C88 C89 1.392 . S
C88 C91 1.511 . S
C89 C85 1.376 1_655 S
C89 C88 1.392 . S
C89 H101 0.929 . S
C90 C86 1.531 . S
C90 H102 0.960 . S
C90 H103 0.962 . S
C90 H104 0.960 . S
C91 C88 1.511 . S
C91 H105 0.961 . S
C91 H106 0.961 . S
C91 H107 0.961 . S
C92 C93 1.370 . S
C92 C94 1.363 . S
C92 H108 0.931 . S
C93 C92 1.370 . S
C93 C97 1.408 . S
C94 C92 1.363 . S
C94 C95 1.370 . S
C94 C98 1.524 . S
C95 C87 1.503 . S
C95 C94 1.370 . S
C95 C96 1.403 . S
C96 C95 1.403 . S
C96 C97 1.404 . S
C96 C99 1.539 . S
C97 C93 1.408 . S
C97 C96 1.404 . S
C97 H109 0.930 . S
C98 C94 1.524 . S
C98 H110 0.956 . S
C98 H111 0.961 1_455 S
C98 H112 0.961 . S
C99 C96 1.539 . S
C99 H113 0.958 . S
C99 H114 0.961 . S
C99 H115 0.960 . S
H100 C84 0.931 . S
H101 C89 0.929 . S
H102 C90 0.960 . S
H103 C90 0.962 . S
H104 C90 0.960 . S
H105 C91 0.961 . S
H106 C91 0.961 . S
H107 C91 0.961 . S
H108 C92 0.931 . S
H109 C97 0.930 . S
H110 C98 0.956 . S
H111 C98 0.961 1_655 S
H112 C98 0.961 . S
H113 C99 0.958 . S
H114 C99 0.961 . S
H115 C99 0.960 . S
C116 C117 1.391 . S
C116 C118 1.394 . S
C116 H132 0.931 . S
C117 C116 1.391 . S
C117 C121 1.376 . S
C118 C116 1.394 . S
C118 C119 1.369 . S
C118 C122 1.531 . S
C119 C118 1.369 . S
C119 C120 1.410 . S
C119 C127 1.503 . S
C120 C119 1.410 . S
C120 C121 1.392 . S
C120 C123 1.511 . S
C121 C117 1.376 . S
C121 C120 1.392 . S
C121 H133 0.929 . S
C122 C118 1.531 . S
C122 H134 0.960 . S
C122 H135 0.962 . S
C122 H136 0.960 . S
C123 C120 1.511 . S
C123 H137 0.961 . S
C123 H138 0.961 . S
C123 H139 0.961 . S
C124 C125 1.370 . S
C124 C126 1.363 . S
C124 H140 0.931 . S
C125 C124 1.370 . S
C125 C129 1.408 . S
C126 C124 1.363 . S
C126 C127 1.370 . S
C126 C130 1.524 . S
C127 C119 1.503 . S
C127 C126 1.370 . S
C127 C128 1.403 . S
C128 C127 1.403 . S
C128 C129 1.404 . S
C128 C131 1.539 . S
C129 C125 1.408 . S
C129 C128 1.404 . S
C129 H141 0.930 . S
C130 C126 1.524 . S
C130 H142 0.956 . S
C130 H143 0.961 . S
C130 H144 0.961 . S
C131 C128 1.539 . S
C131 H145 0.958 . S
C131 H146 0.961 . S
C131 H147 0.960 . S
H132 C116 0.931 . S
H133 C121 0.929 . S
H134 C122 0.960 . S
H135 C122 0.962 . S
H136 C122 0.960 . S
H137 C123 0.961 . S
H138 C123 0.961 . S
H139 C123 0.961 . S
H140 C124 0.931 . S
H141 C129 0.930 . S
H142 C130 0.956 . S
H143 C130 0.961 . S
H144 C130 0.961 . S
H145 C131 0.958 . S
H146 C131 0.961 . S
H147 C131 0.960 . S
C148 C149 1.391 . S
C148 C150 1.394 1_554 S
C148 H164 0.931 1_554 S
C149 C148 1.391 . S
C149 C153 1.376 . S
C150 C148 1.394 1_556 S
C150 C151 1.369 1_556 S
C150 C154 1.531 . S
C151 C150 1.369 1_554 S
C151 C152 1.410 . S
C151 C159 1.503 1_554 S
C152 C151 1.410 . S
C152 C153 1.392 . S
C152 C155 1.511 . S
C153 C149 1.376 . S
C153 C152 1.392 . S
C153 H165 0.929 . S
C154 C150 1.531 . S
C154 H166 0.960 . S
C154 H167 0.962 . S
C154 H168 0.960 . S
C155 C152 1.511 . S
C155 H169 0.961 . S
C155 H170 0.961 . S
C155 H171 0.961 . S
C156 C157 1.370 . S
C156 C158 1.363 1_556 S
C156 H172 0.931 1_556 S
C157 C156 1.370 . S
C157 C161 1.408 . S
C158 C156 1.363 1_554 S
C158 C159 1.370 1_554 S
C158 C162 1.524 . S
C159 C151 1.503 1_556 S
C159 C158 1.370 1_556 S
C159 C160 1.403 . S
C160 C159 1.403 . S
C160 C161 1.404 . S
C160 C163 1.539 . S
C161 C157 1.408 . S
C161 C160 1.404 . S
C161 H173 0.930 . S
C162 C158 1.524 . S
C162 H174 0.956 . S
C162 H175 0.961 . S
C162 H176 0.961 . S
C163 C160 1.539 . S
C163 H177 0.958 . S
C163 H178 0.961 . S
C163 H179 0.960 . S
H164 C148 0.931 1_556 S
H165 C153 0.929 . S
H166 C154 0.960 . S
H167 C154 0.962 . S
H168 C154 0.960 . S
H169 C155 0.961 . S
H170 C155 0.961 . S
H171 C155 0.961 . S
H172 C156 0.931 1_554 S
H173 C161 0.930 . S
H174 C162 0.956 . S
H175 C162 0.961 . S
H176 C162 0.961 . S
H177 C163 0.958 . S
H178 C163 0.961 . S
H179 C163 0.960 . S
C180 C181 1.391 . S
C180 C182 1.394 . S
C180 H196 0.931 . S
C181 C180 1.391 . S
C181 C185 1.376 . S
C182 C180 1.394 . S
C182 C183 1.369 . S
C182 C186 1.531 . S
C183 C182 1.369 . S
C183 C184 1.410 . S
C183 C191 1.503 . S
C184 C183 1.410 . S
C184 C185 1.392 . S
C184 C187 1.511 . S
C185 C181 1.376 . S
C185 C184 1.392 . S
C185 H197 0.929 . S
C186 C182 1.531 . S
C186 H198 0.960 . S
C186 H199 0.962 . S
C186 H200 0.960 . S
C187 C184 1.511 . S
C187 H201 0.961 . S
C187 H202 0.961 . S
C187 H203 0.961 . S
C188 C189 1.370 . S
C188 C190 1.363 . S
C188 H204 0.931 . S
C189 C188 1.370 . S
C189 C193 1.408 . S
C190 C188 1.363 . S
C190 C191 1.370 . S
C190 C194 1.524 . S
C191 C183 1.503 . S
C191 C190 1.370 . S
C191 C192 1.403 . S
C192 C191 1.403 . S
C192 C193 1.404 . S
C192 C195 1.539 . S
C193 C189 1.408 . S
C193 C192 1.404 . S
C193 H205 0.930 . S
C194 C190 1.524 . S
C194 H206 0.956 . S
C194 H207 0.961 . S
C194 H208 0.961 . S
C195 C192 1.539 . S
C195 H209 0.958 . S
C195 H210 0.961 . S
C195 H211 0.960 . S
H196 C180 0.931 . S
H197 C185 0.929 . S
H198 C186 0.960 . S
H199 C186 0.962 . S
H200 C186 0.960 . S
H201 C187 0.961 . S
H202 C187 0.961 . S
H203 C187 0.961 . S
H204 C188 0.931 . S
H205 C193 0.930 . S
H206 C194 0.956 . S
H207 C194 0.961 . S
H208 C194 0.961 . S
H209 C195 0.958 . S
H210 C195 0.961 . S
H211 C195 0.960 . S
C212 C213 1.391 . S
C212 C214 1.394 . S
C212 H228 0.931 . S
C213 C212 1.391 . S
C213 C217 1.376 . S
C214 C212 1.394 . S
C214 C215 1.369 . S
C214 C218 1.531 . S
C215 C214 1.369 . S
C215 C216 1.410 . S
C215 C223 1.503 . S
C216 C215 1.410 . S
C216 C217 1.392 . S
C216 C219 1.511 . S
C217 C213 1.376 . S
C217 C216 1.392 . S
C217 H229 0.929 . S
C218 C214 1.531 . S
C218 H230 0.960 . S
C218 H231 0.962 . S
C218 H232 0.960 . S
C219 C216 1.511 . S
C219 H233 0.961 . S
C219 H234 0.961 . S
C219 H235 0.961 . S
C220 C221 1.370 . S
C220 C222 1.363 . S
C220 H236 0.931 . S
C221 C220 1.370 . S
C221 C225 1.408 . S
C222 C220 1.363 . S
C222 C223 1.370 . S
C222 C226 1.524 . S
C223 C215 1.503 . S
C223 C222 1.370 . S
C223 C224 1.403 . S
C224 C223 1.403 . S
C224 C225 1.404 . S
C224 C227 1.539 . S
C225 C221 1.408 . S
C225 C224 1.404 . S
C225 H237 0.930 . S
C226 C222 1.524 . S
C226 H238 0.956 . S
C226 H239 0.961 . S
C226 H240 0.961 . S
C227 C224 1.539 . S
C227 H241 0.958 . S
C227 H242 0.961 . S
C227 H243 0.960 . S
H228 C212 0.931 . S
H229 C217 0.929 . S
H230 C218 0.960 . S
H231 C218 0.962 . S
H232 C218 0.960 . S
H233 C219 0.961 . S
H234 C219 0.961 . S
H235 C219 0.961 . S
H236 C220 0.931 . S
H237 C225 0.930 . S
H238 C226 0.956 . S
H239 C226 0.961 . S
H240 C226 0.961 . S
H241 C227 0.958 . S
H242 C227 0.961 . S
H243 C227 0.960 . S
C244 C245 1.391 . S
C244 C246 1.394 . S
C244 H260 0.931 . S
C245 C244 1.391 . S
C245 C249 1.376 . S
C246 C244 1.394 . S
C246 C247 1.369 . S
C246 C250 1.531 . S
C247 C246 1.369 . S
C247 C248 1.410 . S
C247 C255 1.503 . S
C248 C247 1.410 . S
C248 C249 1.392 . S
C248 C251 1.511 . S
C249 C245 1.376 . S
C249 C248 1.392 . S
C249 H261 0.929 . S
C250 C246 1.531 . S
C250 H262 0.960 . S
C250 H263 0.962 . S
C250 H264 0.960 . S
C251 C248 1.511 . S
C251 H265 0.961 . S
C251 H266 0.961 . S
C251 H267 0.961 . S
C252 C253 1.370 . S
C252 C254 1.363 . S
C252 H268 0.931 . S
C253 C252 1.370 . S
C253 C257 1.408 . S
C254 C252 1.363 . S
C254 C255 1.370 . S
C254 C258 1.524 . S
C255 C247 1.503 . S
C255 C254 1.370 . S
C255 C256 1.403 . S
C256 C255 1.403 . S
C256 C257 1.404 . S
C256 C259 1.539 . S
C257 C253 1.408 . S
C257 C256 1.404 . S
C257 H269 0.930 . S
C258 C254 1.524 . S
C258 H270 0.956 . S
C258 H271 0.961 . S
C258 H272 0.961 . S
C259 C256 1.539 . S
C259 H273 0.958 . S
C259 H274 0.961 . S
C259 H275 0.960 . S
H260 C244 0.931 . S
H261 C249 0.929 . S
H262 C250 0.960 . S
H263 C250 0.962 . S
H264 C250 0.960 . S
H265 C251 0.961 . S
H266 C251 0.961 . S
H267 C251 0.961 . S
H268 C252 0.931 . S
H269 C257 0.930 . S
H270 C258 0.956 . S
H271 C258 0.961 . S
H272 C258 0.961 . S
H273 C259 0.958 . S
H274 C259 0.961 . S
H275 C259 0.960 . S
C276 C277 1.391 . S
C276 C278 1.394 . S
C276 H292 0.931 . S
C277 C276 1.391 . S
C277 C281 1.376 1_556 S
C278 C276 1.394 . S
C278 C279 1.369 . S
C278 C282 1.531 1_565 S
C279 C278 1.369 . S
C279 C280 1.410 1_556 S
C279 C287 1.503 1_566 S
C280 C279 1.410 1_554 S
C280 C281 1.392 . S
C280 C283 1.511 . S
C281 C277 1.376 1_554 S
C281 C280 1.392 . S
C281 H293 0.929 . S
C282 C278 1.531 1_545 S
C282 H294 0.960 . S
C282 H295 0.962 . S
C282 H296 0.960 1_545 S
C283 C280 1.511 . S
C283 H297 0.961 . S
C283 H298 0.961 . S
C283 H299 0.961 . S
C284 C285 1.370 . S
C284 C286 1.363 . S
C284 H300 0.931 . S
C285 C284 1.370 . S
C285 C289 1.408 . S
C286 C284 1.363 . S
C286 C287 1.370 . S
C286 C290 1.524 1_554 S
C287 C279 1.503 1_544 S
C287 C286 1.370 . S
C287 C288 1.403 . S
C288 C287 1.403 . S
C288 C289 1.404 . S
C288 C291 1.539 . S
C289 C285 1.408 . S
C289 C288 1.404 . S
C289 H301 0.930 . S
C290 C286 1.524 1_556 S
C290 H302 0.956 . S
C290 H303 0.961 1_546 S
C290 H304 0.961 1_556 S
C291 C288 1.539 . S
C291 H305 0.958 1_554 S
C291 H306 0.961 . S
C291 H307 0.960 1_545 S
H292 C276 0.931 . S
H293 C281 0.929 . S
H294 C282 0.960 . S
H295 C282 0.962 . S
H296 C282 0.960 1_565 S
H297 C283 0.961 . S
H298 C283 0.961 . S
H299 C283 0.961 . S
H300 C284 0.931 . S
H301 C289 0.930 . S
H302 C290 0.956 . S
H303 C290 0.961 1_564 S
H304 C290 0.961 1_554 S
H305 C291 0.958 1_556 S
H306 C291 0.961 . S
H307 C291 0.960 1_565 S
C308 C309 1.391 1_655 S
C308 C310 1.394 . S
C308 H324 0.931 . S
C309 C308 1.391 1_455 S
C309 C313 1.376 . S
C310 C308 1.394 . S
C310 C311 1.369 1_655 S
C310 C314 1.531 . S
C311 C310 1.369 1_455 S
C311 C312 1.410 . S
C311 C319 1.503 1_565 S
C312 C311 1.410 . S
C312 C313 1.392 . S
C312 C315 1.511 . S
C313 C309 1.376 . S
C313 C312 1.392 . S
C313 H325 0.929 . S
C314 C310 1.531 . S
C314 H326 0.960 1_565 S
C314 H327 0.962 . S
C314 H328 0.960 . S
C315 C312 1.511 . S
C315 H329 0.961 . S
C315 H330 0.961 . S
C315 H331 0.961 . S
C316 C317 1.364 1_655 S
C316 C318 1.363 1_655 S
C316 H332 0.938 . S
C317 C316 1.364 1_455 S
C317 C321 1.408 . S
C318 C316 1.363 1_455 S
C318 C319 1.370 . S
C318 C322 1.524 1_445 S
C319 C311 1.503 1_545 S
C319 C318 1.370 . S
C319 C320 1.403 . S
C320 C319 1.403 . S
C320 C321 1.404 . S
C320 C323 1.539 . S
C321 C317 1.408 . S
C321 C320 1.404 . S
C321 H333 0.930 . S
C322 C318 1.524 1_665 S
C322 H334 0.956 . S
C322 H335 0.968 . S
C322 H336 0.961 1_565 S
C323 C320 1.539 . S
C323 H337 0.958 . S
C323 H338 0.961 . S
C323 H339 0.960 . S
H324 C308 0.931 . S
H325 C313 0.929 . S
H326 C314 0.960 1_545 S
H327 C314 0.962 . S
H328 C314 0.960 . S
H329 C315 0.961 . S
H330 C315 0.961 . S
H331 C315 0.961 . S
H332 C316 0.938 . S
H333 C321 0.930 . S
H334 C322 0.956 . S
H335 C322 0.968 . S
H336 C322 0.961 1_545 S
H337 C323 0.958 . S
H338 C323 0.961 . S
H339 C323 0.960 . S
C340 C341 1.391 . S
C340 C342 1.394 1_554 S
C340 H356 0.931 . S
C341 C340 1.391 . S
C341 C345 1.376 . S
C342 C340 1.394 1_556 S
C342 C343 1.369 . S
C342 C346 1.531 . S
C343 C342 1.369 . S
C343 C344 1.410 . S
C343 C351 1.503 . S
C344 C343 1.410 . S
C344 C345 1.392 1_556 S
C344 C347 1.511 1_455 S
C345 C341 1.376 . S
C345 C344 1.392 1_554 S
C345 H357 0.929 1_455 S
C346 C342 1.531 . S
C346 H358 0.960 . S
C346 H359 0.962 . S
C346 H360 0.960 . S
C347 C344 1.511 1_655 S
C347 H361 0.961 . S
C347 H362 0.961 . S
C347 H363 0.961 . S
C348 C349 1.370 . S
C348 C350 1.363 . S
C348 H364 0.931 . S
C349 C348 1.370 . S
C349 C353 1.408 . S
C350 C348 1.363 . S
C350 C351 1.370 . S
C350 C354 1.524 . S
C351 C343 1.503 . S
C351 C350 1.370 . S
C351 C352 1.403 . S
C352 C351 1.403 . S
C352 C353 1.404 . S
C352 C355 1.539 1_455 S
C353 C349 1.408 . S
C353 C352 1.404 . S
C353 H365 0.924 1_455 S
C354 C350 1.524 . S
C354 H366 0.956 . S
C354 H367 0.961 . S
C354 H368 0.961 . S
C355 C352 1.539 1_655 S
C355 H369 0.958 . S
C355 H370 0.961 . S
C355 H371 0.960 . S
H356 C340 0.931 . S
H357 C345 0.929 1_655 S
H358 C346 0.960 . S
H359 C346 0.962 . S
H360 C346 0.960 . S
H361 C347 0.961 . S
H362 C347 0.961 . S
H363 C347 0.961 . S
H364 C348 0.931 . S
H365 C353 0.924 1_655 S
H366 C354 0.956 . S
H367 C354 0.961 . S
H368 C354 0.961 . S
H369 C355 0.958 . S
H370 C355 0.961 . S
H371 C355 0.960 . S
C372 C373 1.391 1_455 S
C372 C374 1.394 1_556 S
C372 H388 0.931 . S
C373 C372 1.391 1_655 S
C373 C377 1.376 . S
C374 C372 1.394 1_554 S
C374 C375 1.369 1_455 S
C374 C378 1.531 . S
C375 C374 1.369 1_655 S
C375 C376 1.410 . S
C375 C383 1.503 . S
C376 C375 1.410 . S
C376 C377 1.392 1_554 S
C376 C379 1.511 . S
C377 C373 1.376 . S
C377 C376 1.392 1_556 S
C377 H389 0.929 . S
C378 C374 1.531 . S
C378 H390 0.960 . S
C378 H391 0.962 . S
C378 H392 0.960 . S
C379 C376 1.511 . S
C379 H393 0.961 . S
C379 H394 0.961 . S
C379 H395 0.961 . S
C380 C381 1.370 . S
C380 C382 1.363 . S
C380 H396 0.931 . S
C381 C380 1.370 . S
C381 C385 1.408 . S
C382 C380 1.363 . S
C382 C383 1.370 . S
C382 C386 1.524 . S
C383 C375 1.503 . S
C383 C382 1.370 . S
C383 C384 1.403 1_655 S
C384 C383 1.403 1_455 S
C384 C385 1.404 1_455 S
C384 C387 1.539 . S
C385 C381 1.408 . S
C385 C384 1.404 1_655 S
C385 H397 0.930 1_655 S
C386 C382 1.524 . S
C386 H398 0.956 . S
C386 H399 0.961 . S
C386 H400 0.961 . S
C387 C384 1.539 . S
C387 H401 0.958 . S
C387 H402 0.961 1_455 S
C387 H403 0.960 1_455 S
H388 C372 0.931 . S
H389 C377 0.929 . S
H390 C378 0.960 . S
H391 C378 0.962 . S
H392 C378 0.960 . S
H393 C379 0.961 . S
H394 C379 0.961 . S
H395 C379 0.961 . S
H396 C380 0.931 . S
H397 C385 0.930 1_455 S
H398 C386 0.956 . S
H399 C386 0.961 . S
H400 C386 0.961 . S
H401 C387 0.958 . S
H402 C387 0.961 1_655 S
H403 C387 0.960 1_655 S
C404 C405 1.391 . S
C404 C406 1.394 . S
C404 H420 0.931 . S
C405 C404 1.391 . S
C405 C409 1.376 . S
C406 C404 1.394 . S
C406 C407 1.369 . S
C406 C410 1.531 . S
C407 C406 1.369 . S
C407 C408 1.410 . S
C407 C415 1.503 . S
C408 C407 1.410 . S
C408 C409 1.392 . S
C408 C411 1.511 . S
C409 C405 1.376 . S
C409 C408 1.392 . S
C409 H421 0.929 . S
C410 C406 1.531 . S
C410 H422 0.960 . S
C410 H423 0.962 . S
C410 H424 0.960 . S
C411 C408 1.511 . S
C411 H425 0.961 . S
C411 H426 0.961 . S
C411 H427 0.961 . S
C412 C413 1.370 . S
C412 C414 1.363 . S
C412 H428 0.931 . S
C413 C412 1.370 . S
C413 C417 1.408 . S
C414 C412 1.363 . S
C414 C415 1.370 . S
C414 C418 1.524 . S
C415 C407 1.503 . S
C415 C414 1.370 . S
C415 C416 1.403 . S
C416 C415 1.403 . S
C416 C417 1.404 . S
C416 C419 1.539 . S
C417 C413 1.408 . S
C417 C416 1.404 . S
C417 H429 0.930 . S
C418 C414 1.524 . S
C418 H430 0.956 . S
C418 H431 0.961 . S
C418 H432 0.961 . S
C419 C416 1.539 . S
C419 H433 0.958 . S
C419 H434 0.961 . S
C419 H435 0.960 . S
H420 C404 0.931 . S
H421 C409 0.929 . S
H422 C410 0.960 . S
H423 C410 0.962 . S
H424 C410 0.960 . S
H425 C411 0.961 . S
H426 C411 0.961 . S
H427 C411 0.961 . S
H428 C412 0.931 . S
H429 C417 0.930 . S
H430 C418 0.956 . S
H431 C418 0.961 . S
H432 C418 0.961 . S
H433 C419 0.958 . S
H434 C419 0.961 . S
H435 C419 0.960 . S
C436 C437 1.391 . S
C436 C438 1.394 . S
C436 H452 0.931 . S
C437 C436 1.391 . S
C437 C441 1.376 . S
C438 C436 1.394 . S
C438 C439 1.369 . S
C438 C442 1.531 . S
C439 C438 1.369 . S
C439 C440 1.410 . S
C439 C447 1.503 . S
C440 C439 1.410 . S
C440 C441 1.392 . S
C440 C443 1.511 . S
C441 C437 1.376 . S
C441 C440 1.392 . S
C441 H453 0.929 . S
C442 C438 1.531 . S
C442 H454 0.960 . S
C442 H455 0.962 . S
C442 H456 0.960 . S
C443 C440 1.511 . S
C443 H457 0.961 . S
C443 H458 0.961 . S
C443 H459 0.961 . S
C444 C445 1.370 . S
C444 C446 1.363 . S
C444 H460 0.931 . S
C445 C444 1.370 . S
C445 C449 1.408 . S
C446 C444 1.363 . S
C446 C447 1.370 . S
C446 C450 1.524 . S
C447 C439 1.503 . S
C447 C446 1.370 . S
C447 C448 1.403 . S
C448 C447 1.403 . S
C448 C449 1.404 . S
C448 C451 1.539 . S
C449 C445 1.408 . S
C449 C448 1.404 . S
C449 H461 0.930 . S
C450 C446 1.524 . S
C450 H462 0.956 . S
C450 H463 0.961 . S
C450 H464 0.961 . S
C451 C448 1.539 . S
C451 H465 0.958 . S
C451 H466 0.961 . S
C451 H467 0.960 . S
H452 C436 0.931 . S
H453 C441 0.929 . S
H454 C442 0.960 . S
H455 C442 0.962 . S
H456 C442 0.960 . S
H457 C443 0.961 . S
H458 C443 0.961 . S
H459 C443 0.961 . S
H460 C444 0.931 . S
H461 C449 0.930 . S
H462 C450 0.956 . S
H463 C450 0.961 . S
H464 C450 0.961 . S
H465 C451 0.958 . S
H466 C451 0.961 . S
H467 C451 0.960 . S
C85 C3 1.414 . S
C93 C25 1.535 . S
C117 C62 1.290 . S
C125 C40 1.251 . S
C149 C67 1.295 . S
C157 C49 1.488 . S
C181 C7 1.679 . S
C189 C79 1.691 . S
C213 C83 1.218 . S
C221 C4 1.253 . S
C245 C58 1.714 . S
C253 C24 1.692 . S
C277 C46 1.412 . S
C285 C70 1.520 . S
C309 C28 1.407 . S
C317 C19 1.522 . S
C341 C16 1.076 . S
C349 C20 1.143 . S
C373 C41 1.140 1_655 S
C381 C37 1.100 . S
C405 C45 1.151 . S
C413 C61 1.140 . S
C437 C82 1.071 . S
C445 C66 1.132 . S
