# Generated by pormake.
# Topology mmt, (4)-cn, num edge types: 1
# Building blocks:
#     Node 0, Type 0, BuildingBlock: NAHDIM_clean_sbu_0, # of connection points: 4
#     Node 1, Type 0, BuildingBlock: NAHDIM_clean_sbu_0, # of connection points: 4
#     Node 2, Type 0, BuildingBlock: NAHDIM_clean_sbu_0, # of connection points: 4
#     Node 3, Type 0, BuildingBlock: NAHDIM_clean_sbu_0, # of connection points: 4
#     Node 4, Type 0, BuildingBlock: NAHDIM_clean_sbu_0, # of connection points: 4
#     Node 5, Type 0, BuildingBlock: NAHDIM_clean_sbu_0, # of connection points: 4
#     Node 6, Type 0, BuildingBlock: NAHDIM_clean_sbu_0, # of connection points: 4
#     Node 7, Type 0, BuildingBlock: NAHDIM_clean_sbu_0, # of connection points: 4
#     Edge 8, Type (0, 0), BuildingBlock: AJUNOK_clean_linker_0, # of connection points: 2
#     Edge 9, Type (0, 0), BuildingBlock: AJUNOK_clean_linker_0, # of connection points: 2
#     Edge 10, Type (0, 0), BuildingBlock: AJUNOK_clean_linker_0, # of connection points: 2
#     Edge 11, Type (0, 0), BuildingBlock: AJUNOK_clean_linker_0, # of connection points: 2
#     Edge 12, Type (0, 0), BuildingBlock: AJUNOK_clean_linker_0, # of connection points: 2
#     Edge 13, Type (0, 0), BuildingBlock: AJUNOK_clean_linker_0, # of connection points: 2
#     Edge 14, Type (0, 0), BuildingBlock: AJUNOK_clean_linker_0, # of connection points: 2
#     Edge 15, Type (0, 0), BuildingBlock: AJUNOK_clean_linker_0, # of connection points: 2
#     Edge 16, Type (0, 0), BuildingBlock: AJUNOK_clean_linker_0, # of connection points: 2
#     Edge 17, Type (0, 0), BuildingBlock: AJUNOK_clean_linker_0, # of connection points: 2
#     Edge 18, Type (0, 0), BuildingBlock: AJUNOK_clean_linker_0, # of connection points: 2
#     Edge 19, Type (0, 0), BuildingBlock: AJUNOK_clean_linker_0, # of connection points: 2
#     Edge 20, Type (0, 0), BuildingBlock: AJUNOK_clean_linker_0, # of connection points: 2
#     Edge 21, Type (0, 0), BuildingBlock: AJUNOK_clean_linker_0, # of connection points: 2
#     Edge 22, Type (0, 0), BuildingBlock: AJUNOK_clean_linker_0, # of connection points: 2
#     Edge 23, Type (0, 0), BuildingBlock: AJUNOK_clean_linker_0, # of connection points: 2
# Relax obj value: 0.077
# Max RMSD: 0.130
# Mean RMSD: 0.130
data_MOF--net-mmt--node1-NAHDIM_clean_sbu_0--edge1-AJUNOK_clean_linker_0
_symmetry_space_group_name_H-M    P1
_symmetry_Int_Tables_number       1
_symmetry_cell_setting            triclinic
loop_
_symmetry_equiv_pos_as_xyz
'x, y, z'
_cell_length_a     16.310288
_cell_length_b     27.788513
_cell_length_c     33.014299
_cell_angle_alpha  90.181092
_cell_angle_beta   89.773068
_cell_angle_gamma 89.912937
loop_
_atom_site_label
_atom_site_type_symbol
_atom_site_fract_x
_atom_site_fract_y
_atom_site_fract_z
_atom_type_partial_charge
C0 C 0.06959 0.53387 0.41949 0.0
O1 O 0.03047 0.56553 0.3973 0.0
O2 O 0.21442 0.615 0.36296 0.0
Zn3 Zn 0.17802 0.5465 0.35408 0.0
O4 O 0.08214 0.54219 0.31613 0.0
C5 C 0.31953 0.53274 0.30593 0.0
O6 O 0.30598 0.57897 0.30135 0.0
O7 O 0.13949 0.51909 0.40742 0.0
C8 C 0.08249 0.54841 0.278 0.0
O9 O 0.15066 0.56149 0.2599 0.0
C10 C 0.17048 0.65179 0.35603 0.0
O11 O 0.095 0.64588 0.34326 0.0
O12 O 0.27193 0.50892 0.32896 0.0
C13 C 0.42399 0.96125 0.42993 0.0
O14 O 0.46831 0.9301 0.4093 0.0
O15 O 0.28039 0.87936 0.36756 0.0
Zn16 Zn 0.32224 0.94707 0.36167 0.0
O17 O 0.42137 0.95132 0.32548 0.0
C18 C 0.19175 0.96527 0.30879 0.0
O19 O 0.20813 0.91986 0.30113 0.0
O20 O 0.35485 0.97399 0.41586 0.0
C21 C 0.43028 0.93484 0.28977 0.0
O22 O 0.37125 0.90932 0.27347 0.0
C23 C 0.32258 0.84121 0.36379 0.0
O24 O 0.402 0.84456 0.35765 0.0
O25 O 0.23295 0.9868 0.33593 0.0
C26 C 0.57535 0.45438 0.0701 0.0
O27 O 0.52627 0.43544 0.09732 0.0
O28 O 0.7189 0.37359 0.1382 0.0
Zn29 Zn 0.68603 0.44344 0.13579 0.0
O30 O 0.59585 0.46164 0.17494 0.0
C31 C 0.79932 0.4755 0.19128 0.0
O32 O 0.75126 0.44692 0.21226 0.0
O33 O 0.64997 0.46161 0.0794 0.0
C34 C 0.55998 0.43739 0.20232 0.0
O35 O 0.57726 0.39152 0.20664 0.0
C36 C 0.67319 0.3375 0.13152 0.0
O37 O 0.59569 0.34449 0.12266 0.0
O38 O 0.78482 0.48119 0.15378 0.0
C39 C 0.93445 0.02534 0.07868 0.0
O40 O 0.98037 0.04816 0.10504 0.0
O41 O 0.77908 0.10893 0.14036 0.0
Zn42 Zn 0.81939 0.04052 0.14216 0.0
O43 O 0.91168 0.02987 0.1813 0.0
C44 C 0.70677 0.01134 0.19923 0.0
O45 O 0.74857 0.04543 0.21745 0.0
O46 O 0.85926 0.01824 0.08726 0.0
C47 C 0.94091 0.05572 0.20955 0.0
O48 O 0.91013 0.09868 0.21647 0.0
C49 C 0.82186 0.14648 0.13498 0.0
O50 O 0.90159 0.14229 0.13034 0.0
O51 O 0.72521 0.0007 0.16284 0.0
C52 C 0.93413 0.46423 0.57234 0.0
O53 O 0.98252 0.43979 0.59648 0.0
O54 O 0.79074 0.38401 0.64071 0.0
Zn55 Zn 0.82823 0.45284 0.64033 0.0
O56 O 0.92178 0.46584 0.67768 0.0
C57 C 0.66147 0.4825 0.65798 0.0
O58 O 0.64208 0.44811 0.63235 0.0
O59 O 0.86169 0.47396 0.58427 0.0
C60 C 0.93567 0.44706 0.71199 0.0
O61 O 0.89089 0.41078 0.72456 0.0
C62 C 0.83591 0.34684 0.63866 0.0
O63 O 0.91578 0.35205 0.6362 0.0
O64 O 0.7365 0.49259 0.66331 0.0
C65 C 0.56266 0.0436 0.57721 0.0
O66 O 0.52585 0.07832 0.59735 0.0
O67 O 0.71263 0.12091 0.63577 0.0
Zn68 Zn 0.66606 0.05461 0.64425 0.0
O69 O 0.56575 0.05526 0.68009 0.0
C70 C 0.7953 0.03512 0.69739 0.0
O71 O 0.78517 0.08161 0.70263 0.0
O72 O 0.62964 0.02689 0.59096 0.0
C73 C 0.56307 0.05735 0.71853 0.0
O74 O 0.63146 0.06198 0.73898 0.0
C75 C 0.67574 0.15955 0.64543 0.0
O76 O 0.60058 0.15721 0.65973 0.0
O77 O 0.75192 0.01348 0.67116 0.0
C78 C 0.4489 0.52362 0.91585 0.0
O79 O 0.49267 0.55506 0.89548 0.0
O80 O 0.3068 0.61361 0.86733 0.0
Zn81 Zn 0.33662 0.54517 0.85257 0.0
O82 O 0.42496 0.54277 0.80945 0.0
C83 C 0.17943 0.53668 0.81558 0.0
O84 O 0.18497 0.58366 0.81841 0.0
O85 O 0.37816 0.51255 0.90279 0.0
C86 C 0.40774 0.54013 0.77195 0.0
O87 O 0.33058 0.54062 0.76078 0.0
C88 C 0.32576 0.64985 0.84591 0.0
O89 O 0.37139 0.64346 0.81345 0.0
O90 O 0.23641 0.51101 0.83045 0.0
C91 C 0.0661 0.95378 0.92532 0.0
O92 O 0.01519 0.93327 0.89984 0.0
O93 O 0.20224 0.87327 0.85041 0.0
Zn94 Zn 0.17021 0.94291 0.85673 0.0
O95 O 0.07272 0.95996 0.82289 0.0
C96 C 0.26974 0.98803 0.79834 0.0
O97 O 0.21405 0.96756 0.77548 0.0
O98 O 0.14008 0.96035 0.91428 0.0
C99 C 0.03783 0.93625 0.79493 0.0
O100 O 0.06636 0.89369 0.78461 0.0
C101 C 0.18913 0.84063 0.87649 0.0
O102 O 0.14941 0.85154 0.90995 0.0
O103 O 0.26522 0.98274 0.83654 0.0
C104 C 0.38631 0.45816 0.27776 0.0
C105 C 0.38479 0.50864 0.28182 0.0
C106 C 0.44383 0.43519 0.25246 0.0
C107 C 0.50166 0.46186 0.23017 0.0
H108 H 0.34162 0.43623 0.2935 0.0
H109 H 0.44174 0.39636 0.2497 0.0
S110 S 0.52945 0.59451 0.23357 0.0
N111 N 0.45065 0.5842 0.26377 0.0
N112 N 0.55792 0.54126 0.21634 0.0
C113 C 0.50251 0.51221 0.23504 0.0
C114 C 0.44436 0.53551 0.26083 0.0
C115 C 0.03319 0.98783 0.22782 0.0
C116 C 0.00627 0.03516 0.23546 0.0
C117 C 0.09263 0.96599 0.25184 0.0
C118 C 0.12851 0.99042 0.28461 0.0
H119 H 0.00791 0.96695 0.20309 0.0
H120 H 0.11055 0.92947 0.24436 0.0
S121 S 0.08098 0.1153 0.31757 0.0
N122 N 0.02073 0.10616 0.27821 0.0
N123 N 0.13343 0.06495 0.32347 0.0
C124 C 0.10297 0.03796 0.29263 0.0
C125 C 0.04172 0.06034 0.26806 0.0
C126 C 0.87119 0.50019 0.2542 0.0
C127 C 0.86946 0.49901 0.21163 0.0
C128 C 0.93892 0.51807 0.27509 0.0
C129 C 0.00847 0.53532 0.25439 0.0
H130 H 0.8202 0.48641 0.27178 0.0
H131 H 0.93726 0.51705 0.30789 0.0
S132 S 0.03247 0.54364 0.14268 0.0
N133 N 0.94101 0.5194 0.14925 0.0
N134 N 0.06924 0.55292 0.18858 0.0
C135 C 0.00638 0.53627 0.21172 0.0
C136 C 0.93671 0.51817 0.19034 0.0
C137 C 0.63196 0.99424 0.2633 0.0
C138 C 0.63904 0.98727 0.22123 0.0
C139 C 0.56596 0.9755 0.28516 0.0
C140 C 0.50364 0.94906 0.26595 0.0
H141 H 0.67721 0.01506 0.27967 0.0
H142 H 0.56313 0.98288 0.31738 0.0
S143 S 0.49575 0.91784 0.15653 0.0
N144 N 0.58038 0.94988 0.16128 0.0
N145 N 0.4555 0.91464 0.20242 0.0
C146 C 0.51134 0.94015 0.22405 0.0
C147 C 0.57917 0.95925 0.2017 0.0
C148 C 0.45323 0.50998 0.70411 0.0
C149 C 0.47309 0.53129 0.74153 0.0
C150 C 0.51444 0.49609 0.67655 0.0
C151 C 0.59791 0.50355 0.68504 0.0
H152 H 0.39003 0.50213 0.69662 0.0
H153 H 0.49612 0.47821 0.64882 0.0
S154 S 0.6818 0.56295 0.77703 0.0
N155 N 0.58164 0.56263 0.78437 0.0
N156 N 0.69679 0.5372 0.73249 0.0
C157 C 0.61838 0.52729 0.72144 0.0
C158 C 0.55598 0.54091 0.74972 0.0
C159 C 0.88946 0.96539 0.70989 0.0
C160 C 0.85301 0.00846 0.72342 0.0
C161 C 0.9476 0.94125 0.73366 0.0
C162 C 0.9707 0.95924 0.77186 0.0
H163 H 0.8747 0.95093 0.6803 0.0
H164 H 0.97611 0.90905 0.7215 0.0
S165 S 0.88399 0.06712 0.82336 0.0
N166 N 0.83819 0.06562 0.77892 0.0
N167 N 0.94617 0.02026 0.82368 0.0
C168 C 0.93152 0.00107 0.78645 0.0
C169 C 0.87306 0.02571 0.7622 0.0
C170 C 0.09891 0.46469 0.7925 0.0
C171 C 0.11391 0.51458 0.79073 0.0
C172 C 0.04013 0.44292 0.76743 0.0
C173 C 0.99577 0.47014 0.73916 0.0
H174 H 0.13302 0.44224 0.81326 0.0
H175 H 0.03068 0.40443 0.76958 0.0
S176 S 0.00881 0.60219 0.72365 0.0
N177 N 0.07664 0.59071 0.75927 0.0
N178 N 0.96773 0.54976 0.71209 0.0
C179 C 0.00924 0.52007 0.73751 0.0
C180 C 0.06787 0.5423 0.76333 0.0
C181 C 0.41452 0.01774 0.80058 0.0
C182 C 0.34055 0.01247 0.77928 0.0
C183 C 0.48547 0.03468 0.78123 0.0
C184 C 0.48495 0.04709 0.7399 0.0
H185 H 0.41877 0.00665 0.83193 0.0
H186 H 0.54185 0.036 0.79843 0.0
S187 S 0.30315 0.04759 0.67247 0.0
N188 N 0.26852 0.02656 0.71598 0.0
N189 N 0.40142 0.05853 0.67971 0.0
C190 C 0.40989 0.04514 0.71906 0.0
C191 C 0.33784 0.02777 0.73871 0.0
C192 C 0.07783 0.48525 0.48319 0.0
C193 C 0.03268 0.51595 0.45783 0.0
C194 C 0.04503 0.46847 0.51981 0.0
C195 C 0.96552 0.48149 0.53264 0.0
H196 H 0.13944 0.47429 0.47493 0.0
H197 H 0.08281 0.44521 0.53826 0.0
S198 S 0.8206 0.5601 0.47686 0.0
N199 N 0.90315 0.55802 0.44786 0.0
N200 N 0.84176 0.52642 0.51655 0.0
C201 C 0.91917 0.51171 0.50735 0.0
C202 C 0.95267 0.52894 0.47006 0.0
C203 C 0.53435 0.96837 0.48201 0.0
C204 C 0.45649 0.98241 0.46798 0.0
C205 C 0.56807 0.98837 0.51718 0.0
C206 C 0.52549 0.02337 0.53987 0.0
H207 H 0.57012 0.94175 0.46564 0.0
H208 H 0.62826 0.97629 0.52652 0.0
S209 S 0.3185 0.07208 0.51679 0.0
N210 N 0.33706 0.03319 0.48 0.0
N211 N 0.40025 0.07077 0.54605 0.0
C212 C 0.44725 0.03763 0.52637 0.0
C213 C 0.41282 0.01716 0.49051 0.0
C214 C 0.59063 0.49872 0.00454 0.0
C215 C 0.54308 0.4693 0.03003 0.0
C216 C 0.55999 0.51545 0.96754 0.0
C217 C 0.48065 0.50328 0.95433 0.0
H218 H 0.65161 0.50976 0.01348 0.0
H219 H 0.59882 0.53857 0.94941 0.0
S220 S 0.33291 0.42468 0.00868 0.0
N221 N 0.41366 0.4269 0.03858 0.0
N222 N 0.35626 0.45821 0.96914 0.0
C223 C 0.43312 0.47286 0.97905 0.0
C224 C 0.46424 0.45595 0.01684 0.0
C225 C 0.95188 0.9663 0.97502 0.0
C226 C 0.03558 0.97119 0.96521 0.0
C227 C 0.91994 0.9839 0.01163 0.0
C228 C 0.97025 0.00718 0.04008 0.0
H229 H 0.91008 0.94904 0.95414 0.0
H230 H 0.85504 0.97929 0.0175 0.0
S231 S 0.19442 0.0283 0.02965 0.0
N232 N 0.16866 0.00038 0.9874 0.0
N233 N 0.10887 0.03346 0.05617 0.0
C234 C 0.05435 0.012 0.03087 0.0
C235 C 0.08693 0.994 0.99351 0.0
C236 C 0.29229 0.70573 0.36324 0.0
C237 C 0.20667 0.70055 0.35985 0.0
C238 C 0.32898 0.75124 0.36497 0.0
C239 C 0.28161 0.79352 0.36378 0.0
H240 H 0.3318 0.67437 0.36381 0.0
H241 H 0.39516 0.75316 0.36702 0.0
S242 S 0.05438 0.79987 0.35659 0.0
N243 N 0.07521 0.74174 0.35644 0.0
N244 N 0.14383 0.82724 0.35993 0.0
C245 C 0.19567 0.78891 0.36121 0.0
C246 C 0.15834 0.74249 0.35915 0.0
C247 C 0.83028 0.23642 0.13392 0.0
C248 C 0.78192 0.19457 0.13424 0.0
C249 C 0.79445 0.28227 0.13334 0.0
C250 C 0.70868 0.28829 0.13272 0.0
H251 H 0.89655 0.23392 0.13427 0.0
H252 H 0.83468 0.31325 0.13304 0.0
S253 S 0.55404 0.1904 0.13366 0.0
N254 N 0.64313 0.16218 0.13423 0.0
N255 N 0.57612 0.24833 0.13293 0.0
C256 C 0.65942 0.24679 0.13307 0.0
C257 C 0.69591 0.20001 0.13391 0.0
C258 C 0.67346 0.24946 0.64672 0.0
C259 C 0.7184 0.20654 0.64244 0.0
C260 C 0.71207 0.29438 0.64519 0.0
C261 C 0.79749 0.2984 0.63957 0.0
H262 H 0.60768 0.24852 0.6513 0.0
H263 H 0.67429 0.32623 0.64872 0.0
S264 S 0.94373 0.19681 0.6271 0.0
N265 N 0.85346 0.17079 0.63242 0.0
N266 N 0.92599 0.25523 0.62968 0.0
C267 C 0.84335 0.25575 0.63516 0.0
C268 C 0.80387 0.20988 0.63653 0.0
C269 C 0.31531 0.73811 0.83223 0.0
C270 C 0.29125 0.69811 0.8554 0.0
C271 C 0.2816 0.78377 0.83919 0.0
C272 C 0.22252 0.79153 0.86974 0.0
H273 H 0.36049 0.73425 0.8083 0.0
H274 H 0.30262 0.8133 0.82051 0.0
S275 S 0.13653 0.69868 0.93839 0.0
N276 N 0.20322 0.66919 0.90991 0.0
N277 N 0.1402 0.75509 0.923 0.0
C278 C 0.19777 0.75192 0.89322 0.0
C279 C 0.23201 0.70527 0.88607 0.0
loop_
_geom_bond_atom_site_label_1
_geom_bond_atom_site_label_2
_geom_bond_distance
_geom_bond_site_symmetry_2
_ccdc_geom_bond_type
C0 O1 1.160 . S
C0 O7 1.185 . S
O1 C0 1.160 . S
O2 Zn3 1.899 . S
O2 C10 1.284 . S
Zn3 O2 1.899 . S
Zn3 O4 2.032 . S
Zn3 O7 2.086 . S
Zn3 O12 1.977 . S
O4 Zn3 2.032 . S
O4 C8 1.278 . S
C5 O6 1.203 . S
C5 O12 1.267 . S
O6 C5 1.203 . S
O7 C0 1.185 . S
O7 Zn3 2.086 . S
C8 O4 1.278 . S
C8 O9 1.211 . S
O9 C8 1.211 . S
C10 O2 1.284 . S
C10 O11 1.273 . S
O11 C10 1.273 . S
O12 Zn3 1.977 . S
O12 C5 1.267 . S
C13 O14 1.160 . S
C13 O20 1.185 . S
O14 C13 1.160 . S
O15 Zn16 1.899 . S
O15 C23 1.284 . S
Zn16 O15 1.899 . S
Zn16 O17 2.032 . S
Zn16 O20 2.086 . S
Zn16 O25 1.977 . S
O17 Zn16 2.032 . S
O17 C21 1.278 . S
C18 O19 1.203 . S
C18 O25 1.267 . S
O19 C18 1.203 . S
O20 C13 1.185 . S
O20 Zn16 2.086 . S
C21 O17 1.278 . S
C21 O22 1.211 . S
O22 C21 1.211 . S
C23 O15 1.284 . S
C23 O24 1.273 . S
O24 C23 1.273 . S
O25 Zn16 1.977 . S
O25 C18 1.267 . S
C26 O27 1.160 . S
C26 O33 1.185 . S
O27 C26 1.160 . S
O28 Zn29 1.899 . S
O28 C36 1.284 . S
Zn29 O28 1.899 . S
Zn29 O30 2.032 . S
Zn29 O33 2.086 . S
Zn29 O38 1.977 . S
O30 Zn29 2.032 . S
O30 C34 1.278 . S
C31 O32 1.203 . S
C31 O38 1.267 . S
O32 C31 1.203 . S
O33 C26 1.185 . S
O33 Zn29 2.086 . S
C34 O30 1.278 . S
C34 O35 1.211 . S
O35 C34 1.211 . S
C36 O28 1.284 . S
C36 O37 1.273 . S
O37 C36 1.273 . S
O38 Zn29 1.977 . S
O38 C31 1.267 . S
C39 O40 1.160 . S
C39 O46 1.185 . S
O40 C39 1.160 . S
O41 Zn42 1.899 . S
O41 C49 1.284 . S
Zn42 O41 1.899 . S
Zn42 O43 2.032 . S
Zn42 O46 2.086 . S
Zn42 O51 1.977 . S
O43 Zn42 2.032 . S
O43 C47 1.278 . S
C44 O45 1.203 . S
C44 O51 1.267 . S
O45 C44 1.203 . S
O46 C39 1.185 . S
O46 Zn42 2.086 . S
C47 O43 1.278 . S
C47 O48 1.211 . S
O48 C47 1.211 . S
C49 O41 1.284 . S
C49 O50 1.273 . S
O50 C49 1.273 . S
O51 Zn42 1.977 . S
O51 C44 1.267 . S
C52 O53 1.160 . S
C52 O59 1.185 . S
O53 C52 1.160 . S
O54 Zn55 1.899 . S
O54 C62 1.284 . S
Zn55 O54 1.899 . S
Zn55 O56 2.032 . S
Zn55 O59 2.086 . S
Zn55 O64 1.977 . S
O56 Zn55 2.032 . S
O56 C60 1.278 . S
C57 O58 1.203 . S
C57 O64 1.267 . S
O58 C57 1.203 . S
O59 C52 1.185 . S
O59 Zn55 2.086 . S
C60 O56 1.278 . S
C60 O61 1.211 . S
O61 C60 1.211 . S
C62 O54 1.284 . S
C62 O63 1.273 . S
O63 C62 1.273 . S
O64 Zn55 1.977 . S
O64 C57 1.267 . S
C65 O66 1.160 . S
C65 O72 1.185 . S
O66 C65 1.160 . S
O67 Zn68 1.899 . S
O67 C75 1.284 . S
Zn68 O67 1.899 . S
Zn68 O69 2.032 . S
Zn68 O72 2.086 . S
Zn68 O77 1.977 . S
O69 Zn68 2.032 . S
O69 C73 1.278 . S
C70 O71 1.203 . S
C70 O77 1.267 . S
O71 C70 1.203 . S
O72 C65 1.185 . S
O72 Zn68 2.086 . S
C73 O69 1.278 . S
C73 O74 1.211 . S
O74 C73 1.211 . S
C75 O67 1.284 . S
C75 O76 1.273 . S
O76 C75 1.273 . S
O77 Zn68 1.977 . S
O77 C70 1.267 . S
C78 O79 1.160 . S
C78 O85 1.185 . S
O79 C78 1.160 . S
O80 Zn81 1.899 . S
O80 C88 1.284 . S
Zn81 O80 1.899 . S
Zn81 O82 2.032 . S
Zn81 O85 2.086 . S
Zn81 O90 1.977 . S
O82 Zn81 2.032 . S
O82 C86 1.278 . S
C83 O84 1.203 . S
C83 O90 1.267 . S
O84 C83 1.203 . S
O85 C78 1.185 . S
O85 Zn81 2.086 . S
C86 O82 1.278 . S
C86 O87 1.211 . S
O87 C86 1.211 . S
C88 O80 1.284 . S
C88 O89 1.273 . S
O89 C88 1.273 . S
O90 Zn81 1.977 . S
O90 C83 1.267 . S
C91 O92 1.160 . S
C91 O98 1.185 . S
O92 C91 1.160 . S
O93 Zn94 1.899 . S
O93 C101 1.284 . S
Zn94 O93 1.899 . S
Zn94 O95 2.032 . S
Zn94 O98 2.086 . S
Zn94 O103 1.977 . S
O95 Zn94 2.032 . S
O95 C99 1.278 . S
C96 O97 1.203 . S
C96 O103 1.267 . S
O97 C96 1.203 . S
O98 C91 1.185 . S
O98 Zn94 2.086 . S
C99 O95 1.278 . S
C99 O100 1.211 . S
O100 C99 1.211 . S
C101 O93 1.284 . S
C101 O102 1.273 . S
O102 C101 1.273 . S
O103 Zn94 1.977 . S
O103 C96 1.267 . S
C104 C105 1.369 . S
C104 C106 1.419 . S
C104 H108 0.930 . S
C105 C104 1.369 . S
C105 C114 1.429 . S
C106 C104 1.419 . S
C106 C107 1.363 . S
C106 H109 0.929 . S
C107 C106 1.363 . S
C107 C113 1.428 . S
H108 C104 0.930 . S
H109 C106 0.929 . S
S110 N111 1.613 . S
S110 N112 1.610 . S
N111 S110 1.613 . S
N111 C114 1.350 . S
N112 S110 1.610 . S
N112 C113 1.351 . S
C113 C107 1.428 . S
C113 N112 1.351 . S
C113 C114 1.434 . S
C114 C105 1.429 . S
C114 N111 1.350 . S
C114 C113 1.434 . S
C115 C116 1.369 . S
C115 C117 1.419 1_545 S
C115 H119 0.930 . S
C116 C115 1.369 . S
C116 C125 1.429 . S
C117 C115 1.419 1_565 S
C117 C118 1.363 . S
C117 H120 0.929 . S
C118 C117 1.363 . S
C118 C124 1.428 1_565 S
H119 C115 0.930 . S
H120 C117 0.929 . S
S121 N122 1.613 . S
S121 N123 1.610 1_655 S
N122 S121 1.613 . S
N122 C125 1.350 1_655 S
N123 S121 1.610 1_455 S
N123 C124 1.351 . S
C124 C118 1.428 1_545 S
C124 N123 1.351 . S
C124 C125 1.434 . S
C125 C116 1.429 . S
C125 N122 1.350 1_455 S
C125 C124 1.434 . S
C126 C127 1.369 . S
C126 C128 1.419 . S
C126 H130 0.930 . S
C127 C126 1.369 . S
C127 C136 1.429 . S
C128 C126 1.419 . S
C128 C129 1.363 . S
C128 H131 0.929 . S
C129 C128 1.363 . S
C129 C135 1.428 . S
H130 C126 0.930 . S
H131 C128 0.929 . S
S132 N133 1.613 1_455 S
S132 N134 1.610 . S
N133 S132 1.613 1_655 S
N133 C136 1.350 . S
N134 S132 1.610 . S
N134 C135 1.351 1_455 S
C135 C129 1.428 . S
C135 N134 1.351 1_655 S
C135 C136 1.434 . S
C136 C127 1.429 . S
C136 N133 1.350 . S
C136 C135 1.434 . S
C137 C138 1.369 . S
C137 C139 1.419 1_545 S
C137 H141 0.930 . S
C138 C137 1.369 . S
C138 C147 1.429 1_545 S
C139 C137 1.419 1_565 S
C139 C140 1.363 . S
C139 H142 0.929 . S
C140 C139 1.363 . S
C140 C146 1.428 . S
H141 C137 0.930 . S
H142 C139 0.929 . S
S143 N144 1.613 . S
S143 N145 1.610 . S
N144 S143 1.613 . S
N144 C147 1.350 . S
N145 S143 1.610 . S
N145 C146 1.351 . S
C146 C140 1.428 . S
C146 N145 1.351 . S
C146 C147 1.434 . S
C147 C138 1.429 1_565 S
C147 N144 1.350 . S
C147 C146 1.434 . S
C148 C149 1.369 . S
C148 C150 1.419 . S
C148 H152 0.930 . S
C149 C148 1.369 . S
C149 C158 1.429 . S
C150 C148 1.419 . S
C150 C151 1.363 . S
C150 H153 0.929 . S
C151 C150 1.363 . S
C151 C157 1.428 . S
H152 C148 0.930 . S
H153 C150 0.929 . S
S154 N155 1.613 . S
S154 N156 1.610 . S
N155 S154 1.613 . S
N155 C158 1.350 . S
N156 S154 1.610 . S
N156 C157 1.351 . S
C157 C151 1.428 . S
C157 N156 1.351 . S
C157 C158 1.434 . S
C158 C149 1.429 . S
C158 N155 1.350 . S
C158 C157 1.434 . S
C159 C160 1.369 1_565 S
C159 C161 1.419 . S
C159 H163 0.930 . S
C160 C159 1.369 1_545 S
C160 C169 1.429 . S
C161 C159 1.419 . S
C161 C162 1.363 . S
C161 H164 0.929 . S
C162 C161 1.363 . S
C162 C168 1.428 1_565 S
H163 C159 0.930 . S
H164 C161 0.929 . S
S165 N166 1.613 . S
S165 N167 1.610 . S
N166 S165 1.613 . S
N166 C169 1.350 . S
N167 S165 1.610 . S
N167 C168 1.351 . S
C168 C162 1.428 1_545 S
C168 N167 1.351 . S
C168 C169 1.434 . S
C169 C160 1.429 . S
C169 N166 1.350 . S
C169 C168 1.434 . S
C170 C171 1.369 . S
C170 C172 1.419 . S
C170 H174 0.930 . S
C171 C170 1.369 . S
C171 C180 1.429 . S
C172 C170 1.419 . S
C172 C173 1.363 . S
C172 H175 0.929 . S
C173 C172 1.363 . S
C173 C179 1.428 . S
H174 C170 0.930 . S
H175 C172 0.929 . S
S176 N177 1.613 . S
S176 N178 1.610 . S
N177 S176 1.613 . S
N177 C180 1.350 . S
N178 S176 1.610 . S
N178 C179 1.351 . S
C179 C173 1.428 . S
C179 N178 1.351 . S
C179 C180 1.434 . S
C180 C171 1.429 . S
C180 N177 1.350 . S
C180 C179 1.434 . S
C181 C182 1.369 . S
C181 C183 1.419 1_565 S
C181 H185 0.930 . S
C182 C181 1.369 . S
C182 C191 1.429 1_565 S
C183 C181 1.419 1_545 S
C183 C184 1.363 . S
C183 H186 0.929 1_545 S
C184 C183 1.363 . S
C184 C190 1.428 . S
H185 C181 0.930 . S
H186 C183 0.929 1_565 S
S187 N188 1.613 . S
S187 N189 1.610 . S
N188 S187 1.613 . S
N188 C191 1.350 . S
N189 S187 1.610 . S
N189 C190 1.351 . S
C190 C184 1.428 . S
C190 N189 1.351 . S
C190 C191 1.434 . S
C191 C182 1.429 1_545 S
C191 N188 1.350 . S
C191 C190 1.434 . S
C192 C193 1.369 . S
C192 C194 1.419 . S
C192 H196 0.930 . S
C193 C192 1.369 . S
C193 C202 1.429 1_455 S
C194 C192 1.419 . S
C194 C195 1.363 1_455 S
C194 H197 0.929 . S
C195 C194 1.363 1_655 S
C195 C201 1.428 . S
H196 C192 0.930 . S
H197 C194 0.929 . S
S198 N199 1.613 . S
S198 N200 1.610 . S
N199 S198 1.613 . S
N199 C202 1.350 . S
N200 S198 1.610 . S
N200 C201 1.351 . S
C201 C195 1.428 . S
C201 N200 1.351 . S
C201 C202 1.434 . S
C202 C193 1.429 1_655 S
C202 N199 1.350 . S
C202 C201 1.434 . S
C203 C204 1.369 . S
C203 C205 1.419 . S
C203 H207 0.930 . S
C204 C203 1.369 . S
C204 C213 1.429 1_565 S
C205 C203 1.419 . S
C205 C206 1.363 1_565 S
C205 H208 0.929 . S
C206 C205 1.363 1_545 S
C206 C212 1.428 . S
H207 C203 0.930 . S
H208 C205 0.929 . S
S209 N210 1.613 . S
S209 N211 1.610 . S
N210 S209 1.613 . S
N210 C213 1.350 . S
N211 S209 1.610 . S
N211 C212 1.351 . S
C212 C206 1.428 . S
C212 N211 1.351 . S
C212 C213 1.434 . S
C213 C204 1.429 1_545 S
C213 N210 1.350 . S
C213 C212 1.434 . S
C214 C215 1.369 . S
C214 C216 1.419 1_554 S
C214 H218 0.930 . S
C215 C214 1.369 . S
C215 C224 1.429 . S
C216 C214 1.419 1_556 S
C216 C217 1.363 . S
C216 H219 0.929 . S
C217 C216 1.363 . S
C217 C223 1.428 . S
H218 C214 0.930 . S
H219 C216 0.929 . S
S220 N221 1.613 . S
S220 N222 1.610 1_554 S
N221 S220 1.613 . S
N221 C224 1.350 . S
N222 S220 1.610 1_556 S
N222 C223 1.351 . S
C223 C217 1.428 . S
C223 N222 1.351 . S
C223 C224 1.434 1_556 S
C224 C215 1.429 . S
C224 N221 1.350 . S
C224 C223 1.434 1_554 S
C225 C226 1.369 1_655 S
C225 C227 1.419 1_565 S
C225 H229 0.930 . S
C226 C225 1.369 1_455 S
C226 C235 1.429 1_556 S
C227 C225 1.419 1_545 S
C227 C228 1.363 1_556 S
C227 H230 0.929 . S
C228 C227 1.363 1_554 S
C228 C234 1.433 1_655 S
H229 C225 0.930 . S
H230 C227 0.929 . S
S231 N232 1.613 . S
S231 N233 1.610 . S
N232 S231 1.613 . S
N232 C235 1.350 . S
N233 S231 1.610 . S
N233 C234 1.350 1_565 S
C234 C228 1.433 1_455 S
C234 N233 1.350 1_545 S
C234 C235 1.430 1_545 S
C235 C226 1.429 1_554 S
C235 N232 1.350 . S
C235 C234 1.430 1_565 S
C236 C237 1.369 . S
C236 C238 1.419 . S
C236 H240 0.930 . S
C237 C236 1.369 . S
C237 C246 1.429 . S
C238 C236 1.419 . S
C238 C239 1.363 . S
C238 H241 0.929 . S
C239 C238 1.363 . S
C239 C245 1.428 . S
H240 C236 0.930 . S
H241 C238 0.929 . S
S242 N243 1.613 . S
S242 N244 1.610 . S
N243 S242 1.613 . S
N243 C246 1.350 . S
N244 S242 1.610 . S
N244 C245 1.351 . S
C245 C239 1.428 . S
C245 N244 1.351 . S
C245 C246 1.434 . S
C246 C237 1.429 . S
C246 N243 1.350 . S
C246 C245 1.434 . S
C247 C248 1.369 . S
C247 C249 1.419 . S
C247 H251 0.930 . S
C248 C247 1.369 . S
C248 C257 1.429 . S
C249 C247 1.419 . S
C249 C250 1.363 . S
C249 H252 0.929 . S
C250 C249 1.363 . S
C250 C256 1.428 . S
H251 C247 0.930 . S
H252 C249 0.929 . S
S253 N254 1.613 . S
S253 N255 1.610 . S
N254 S253 1.613 . S
N254 C257 1.350 . S
N255 S253 1.610 . S
N255 C256 1.351 . S
C256 C250 1.428 . S
C256 N255 1.351 . S
C256 C257 1.434 . S
C257 C248 1.429 . S
C257 N254 1.350 . S
C257 C256 1.434 . S
C258 C259 1.369 . S
C258 C260 1.419 . S
C258 H262 0.930 . S
C259 C258 1.369 . S
C259 C268 1.429 . S
C260 C258 1.419 . S
C260 C261 1.363 . S
C260 H263 0.929 . S
C261 C260 1.363 . S
C261 C267 1.428 . S
H262 C258 0.930 . S
H263 C260 0.929 . S
S264 N265 1.613 . S
S264 N266 1.610 . S
N265 S264 1.613 . S
N265 C268 1.350 . S
N266 S264 1.610 . S
N266 C267 1.351 . S
C267 C261 1.428 . S
C267 N266 1.351 . S
C267 C268 1.434 . S
C268 C259 1.429 . S
C268 N265 1.350 . S
C268 C267 1.434 . S
C269 C270 1.369 . S
C269 C271 1.419 . S
C269 H273 0.930 . S
C270 C269 1.369 . S
C270 C279 1.429 . S
C271 C269 1.419 . S
C271 C272 1.363 . S
C271 H274 0.929 . S
C272 C271 1.363 . S
C272 C278 1.428 . S
H273 C269 0.930 . S
H274 C271 0.929 . S
S275 N276 1.613 . S
S275 N277 1.610 . S
N276 S275 1.613 . S
N276 C279 1.350 . S
N277 S275 1.610 . S
N277 C278 1.351 . S
C278 C272 1.428 . S
C278 N277 1.351 . S
C278 C279 1.434 . S
C279 C270 1.429 . S
C279 N276 1.350 . S
C279 C278 1.434 . S
C105 C5 1.235 . S
C107 C34 1.235 . S
C116 C47 1.235 1_455 S
C118 C18 1.243 . S
C127 C31 1.240 . S
C129 C8 1.233 1_655 S
C138 C44 1.242 . S
C140 C21 1.234 . S
C149 C86 1.242 . S
C151 C57 1.241 . S
C160 C70 1.234 . S
C162 C99 1.237 1_655 S
C171 C83 1.237 . S
C173 C60 1.234 1_455 S
C182 C96 1.237 . S
C184 C73 1.242 . S
C193 C0 1.509 . S
C195 C52 1.516 . S
C204 C13 1.516 . S
C206 C65 1.510 . S
C215 C26 1.509 . S
C217 C78 1.516 . S
C226 C91 1.512 . S
C228 C39 1.513 . S
C237 C10 1.537 . S
C239 C23 1.536 . S
C248 C49 1.535 . S
C250 C36 1.537 . S
C259 C75 1.534 . S
C261 C62 1.536 . S
C270 C88 1.534 . S
C272 C101 1.536 . S
