# Generated by pormake.
# Topology reo, (8)-cn, num edge types: 1
# Building blocks:
#     Node 0, Type 0, BuildingBlock: VETTIZ_charged_sbu_0, # of connection points: 8
#     Node 1, Type 0, BuildingBlock: VETTIZ_charged_sbu_0, # of connection points: 8
#     Node 2, Type 0, BuildingBlock: VETTIZ_charged_sbu_0, # of connection points: 8
#     Edge 3, Type (0, 0), BuildingBlock: KIFKEQ_clean_linker_1, # of connection points: 2
#     Edge 4, Type (0, 0), BuildingBlock: KIFKEQ_clean_linker_1, # of connection points: 2
#     Edge 5, Type (0, 0), BuildingBlock: KIFKEQ_clean_linker_1, # of connection points: 2
#     Edge 6, Type (0, 0), BuildingBlock: KIFKEQ_clean_linker_1, # of connection points: 2
#     Edge 7, Type (0, 0), BuildingBlock: KIFKEQ_clean_linker_1, # of connection points: 2
#     Edge 8, Type (0, 0), BuildingBlock: KIFKEQ_clean_linker_1, # of connection points: 2
#     Edge 9, Type (0, 0), BuildingBlock: KIFKEQ_clean_linker_1, # of connection points: 2
#     Edge 10, Type (0, 0), BuildingBlock: KIFKEQ_clean_linker_1, # of connection points: 2
#     Edge 11, Type (0, 0), BuildingBlock: KIFKEQ_clean_linker_1, # of connection points: 2
#     Edge 12, Type (0, 0), BuildingBlock: KIFKEQ_clean_linker_1, # of connection points: 2
#     Edge 13, Type (0, 0), BuildingBlock: KIFKEQ_clean_linker_1, # of connection points: 2
#     Edge 14, Type (0, 0), BuildingBlock: KIFKEQ_clean_linker_1, # of connection points: 2
# Relax obj value: 0.145
# Max RMSD: 0.165
# Mean RMSD: 0.165
data_MOF--net-reo--node1-VETTIZ_charged_sbu_0--edge1-KIFKEQ_clean_linker_1
_symmetry_space_group_name_H-M    P1
_symmetry_Int_Tables_number       1
_symmetry_cell_setting            triclinic
loop_
_symmetry_equiv_pos_as_xyz
'x, y, z'
_cell_length_a     23.013059
_cell_length_b     25.075245
_cell_length_c     23.937583
_cell_angle_alpha  90.195919
_cell_angle_beta   89.668269
_cell_angle_gamma 88.93121
loop_
_atom_site_label
_atom_site_type_symbol
_atom_site_fract_x
_atom_site_fract_y
_atom_site_fract_z
_atom_type_partial_charge
Fe0 Fe 0.03033 -0.01081 0.43837 0.0
O1 O 1.01566 0.03306 0.50672 0.0
Fe2 Fe 0.09284 0.8725 0.49161 0.0
Fe3 Fe 0.95433 0.0885 0.5098 0.0
O4 O 0.03125 0.92757 0.49085 0.0
O5 O 0.02933 0.92648 0.4957 0.0
O6 O 1.01443 0.03215 0.51173 0.0
Fe7 Fe 1.01364 0.97039 0.56412 0.0
C8 C 0.03128 0.10847 0.40916 0.0
O9 O 0.94272 0.97925 0.42683 0.0
O10 O 0.91262 0.06333 0.43793 0.0
O11 O 1.01384 0.89886 0.60934 0.0
O12 O 0.03685 0.83355 0.54394 0.0
O13 O 0.05645 0.85325 0.41587 0.0
O14 O 0.0445 0.93545 0.37313 0.0
O15 O 0.89609 0.04691 0.55716 0.0
O16 O 0.9246 0.96147 0.55672 0.0
C17 C 0.04765 0.88369 0.37276 0.0
O18 O 0.10125 -0.02 0.57715 0.0
O19 O 0.13369 0.89701 0.56377 0.0
O20 O 0.02889 0.05931 0.39206 0.0
O21 O 1.01174 0.12602 0.45699 0.0
C22 C 0.90596 0.01668 0.41787 0.0
C23 C 0.88661 -0.00201 0.5671 0.0
C24 C 0.99815 0.07667 0.62913 0.0
O25 O 0.99102 0.10718 0.58569 0.0
O26 O 0.99954 0.02477 0.62911 0.0
C27 C 1.01563 0.84952 0.59173 0.0
O28 O 0.15064 0.91574 0.44463 0.0
O29 O 0.11845 7e-05 0.44518 0.0
C30 C 0.13873 0.94307 0.58546 0.0
C31 C 0.15792 0.9651 0.43522 0.0
Fe32 Fe 0.45504 -0.01961 0.00479 0.0
O33 O 0.51963 0.92605 0.00748 0.0
Fe34 Fe 0.52116 0.08672 0.93829 0.0
Fe35 Fe 0.52452 0.87002 0.06419 0.0
O36 O 0.52008 0.03153 0.99647 0.0
O37 O 0.52617 0.03119 0.99564 0.0
O38 O 0.52578 0.92578 0.0069 0.0
Fe39 Fe 0.59083 0.97695 0.99948 0.0
C40 C 0.44781 0.95359 0.12626 0.0
O41 O 0.39569 0.91734 0.01171 0.0
O42 O 0.45517 0.84235 0.01975 0.0
O43 O 0.59178 0.96598 0.91437 0.0
O44 O 0.58076 0.04982 0.88485 0.0
O45 O 0.45472 0.05445 0.89207 0.0
O46 O 0.44984 0.9701 0.91961 0.0
O47 O 0.58985 0.83905 0.01432 0.0
O48 O 0.64966 0.91139 0.00333 0.0
C49 C 0.43864 0.00668 0.8844 0.0
O50 O 0.65029 0.03977 0.99267 0.0
O51 O 0.59124 0.1146 0.98163 0.0
O52 O 0.45533 -0.00957 0.09058 0.0
O53 O 0.46347 0.90546 0.11641 0.0
C54 C 0.40587 0.86595 0.00871 0.0
C55 C 0.63876 0.86053 1.00072 0.0
C56 C 0.60563 0.95077 0.11982 0.0
O57 O 0.58988 0.90286 0.11185 0.0
O58 O 0.59467 -0.01261 0.08459 0.0
C59 C 0.59724 0.00152 0.87708 0.0
O60 O 0.45671 0.11853 0.98881 0.0
O61 O 0.39661 0.04653 1.00178 0.0
C62 C 0.64022 0.09118 0.99409 0.0
C63 C 0.40783 0.09745 0.0034 0.0
Fe64 Fe 0.03735 0.42057 0.01187 0.0
O65 O 1.01876 0.48386 0.05982 0.0
Fe66 Fe 0.08296 0.47554 0.88602 0.0
Fe67 Fe 0.96038 0.48304 0.1201 0.0
O68 O 0.02608 0.46982 0.94736 0.0
O69 O 0.02552 0.47426 0.94684 0.0
O70 O 1.01783 0.48817 0.05924 0.0
Fe71 Fe 1.00713 0.53744 0.99483 0.0
C72 C 0.91981 0.3884 0.04857 0.0
O73 O 0.04819 0.37702 0.08552 0.0
O74 O 0.02344 0.43569 0.15682 0.0
O75 O 0.09269 0.55772 0.99959 0.0
O76 O 0.11966 0.54634 0.91101 0.0
O77 O 0.14685 0.43141 0.92614 0.0
O78 O 0.12376 0.43804 0.01555 0.0
O79 O 0.992 0.55734 0.13906 0.0
O80 O 0.99008 0.5982 0.05247 0.0
C81 C 0.15828 0.42216 0.97724 0.0
O82 O 0.997 0.58164 0.92221 0.0
O83 O 1.01959 0.52383 0.84969 0.0
O84 O 0.95187 0.40014 0.00732 0.0
O85 O 0.92407 0.4119 0.09556 0.0
C86 C 0.04773 0.39201 0.13771 0.0
C87 C 0.99269 0.59895 0.10668 0.0
C88 C 0.88582 0.53569 0.02811 0.0
O89 O 0.89673 0.52676 0.07934 0.0
O90 O 0.92088 0.51988 0.9903 0.0
C91 C 0.1245 0.56952 0.95813 0.0
O92 O 0.05109 0.40126 0.86722 0.0
O93 O 0.05405 0.35987 0.9537 0.0
C94 C 0.99663 0.56772 0.86988 0.0
C95 C 0.05093 0.35944 0.89941 0.0
H96 H 0.03917 0.3997 0.25104 0.0
H97 H 0.10974 0.29897 0.11907 0.0
H98 H 0.05712 0.32994 0.31784 0.0
H99 H 0.13028 0.22922 0.1872 0.0
H100 H 0.03602 0.1022 0.2958 0.0
H101 H 0.06399 0.1717 0.23144 0.0
H102 H 0.11421 0.27089 0.37069 0.0
H103 H 0.08313 0.20199 0.43528 0.0
C104 C 0.06012 0.36318 0.23642 0.0
C105 C 0.07114 0.35424 0.17935 0.0
C106 C 0.07114 0.32313 0.27511 0.0
C107 C 0.09414 0.27345 0.25774 0.0
C108 C 0.11105 0.26659 0.20159 0.0
C109 C 0.09936 0.30658 0.16261 0.0
C110 C 0.05377 0.13858 0.3126 0.0
C111 C 0.05578 0.14751 0.37043 0.0
C112 C 0.0706 0.17826 0.27566 0.0
C113 C 0.09063 0.22728 0.29592 0.0
C114 C 0.09756 0.23411 0.35381 0.0
C115 C 0.07963 0.1948 0.39078 0.0
H116 H 0.87833 0.92335 0.36517 0.0
H117 H 0.82189 0.0879 0.38286 0.0
H118 H 0.80257 0.90908 0.29656 0.0
H119 H 0.74476 0.0731 0.31553 0.0
H120 H 0.66432 0.04272 0.14204 0.0
H121 H 0.73306 0.05862 0.217 0.0
H122 H 0.69986 0.90222 0.28386 0.0
H123 H 0.63221 0.88575 0.20816 0.0
C124 C 0.84949 0.95642 0.35483 0.0
C125 C 0.85677 0.00693 0.37929 0.0
C126 C 0.80557 0.9481 0.31573 0.0
C127 C 0.76743 -0.01004 0.30023 0.0
C128 C 0.77382 0.04014 0.32572 0.0
C129 C 0.81789 0.04852 0.36471 0.0
C130 C 0.67114 0.01188 0.17304 0.0
C131 C 0.64283 0.96279 0.16873 0.0
C132 C 0.71052 0.0211 0.21626 0.0
C133 C 0.72247 -0.01843 0.25644 0.0
C134 C 0.69266 0.9332 0.25313 0.0
C135 C 0.65347 0.9239 0.20984 0.0
H136 H 0.12352 0.81372 0.32621 0.0
H137 H 0.95794 0.89324 0.30035 0.0
H138 H 0.10651 0.75671 0.24501 0.0
H139 H 0.93961 0.83415 0.22035 0.0
H140 H 0.9372 0.63006 0.2014 0.0
H141 H 0.94748 0.71465 0.2511 0.0
H142 H 0.06468 0.76925 0.12302 0.0
H143 H 0.05247 0.68525 0.07163 0.0
C144 C 0.08414 0.81958 0.30219 0.0
C145 C 0.0416 0.85691 0.31918 0.0
C146 C 0.07472 0.78756 0.25576 0.0
C147 C 1.02207 0.79178 0.22692 0.0
C148 C 0.98079 0.83116 0.24193 0.0
C149 C 0.99105 0.8644 0.28754 0.0
C150 C 0.96428 0.66054 0.18344 0.0
C151 C 0.99498 0.65123 0.13355 0.0
C152 C 0.96947 0.70891 0.2113 0.0
C153 C 1.00631 0.74793 0.19014 0.0
C154 C 0.03541 0.73962 0.13923 0.0
C155 C 0.02887 0.69169 0.11042 0.0
H156 H 0.3964 0.04844 0.16226 0.0
H157 H 0.4238 0.88382 0.20979 0.0
H158 H 0.33515 0.06253 0.24521 0.0
H159 H 0.36151 0.89696 0.28999 0.0
H160 H 0.26798 0.92509 0.44519 0.0
H161 H 0.34721 0.93283 0.37799 0.0
H162 H 0.2418 0.04172 0.27999 0.0
H163 H 0.16417 0.03637 0.3495 0.0
C164 C 0.38987 0.01541 0.19051 0.0
C165 C 0.41506 0.96493 0.17899 0.0
C166 C 0.35435 0.02336 0.23794 0.0
C167 C 0.34309 -0.01901 0.27484 0.0
C168 C 0.36982 0.9311 0.26378 0.0
C169 C 0.40538 0.92333 0.21698 0.0
C170 C 0.2626 0.95193 0.41014 0.0
C171 C 0.20988 -0.02016 0.40241 0.0
C172 C 0.30771 0.95593 0.37109 0.0
C173 C 0.30058 -0.01339 0.32228 0.0
C174 C 0.2493 0.01776 0.31687 0.0
C175 C 0.20461 0.01472 0.35679 0.0
H176 H 0.94444 0.86093 0.68361 0.0
H177 H 0.0387 0.74312 0.58456 0.0
H178 H 0.91571 0.79115 0.74858 0.0
H179 H 1.01252 0.67472 0.64982 0.0
H180 H 0.96193 0.55149 0.76209 0.0
H181 H 0.94382 0.61988 0.69193 0.0
H182 H 0.96567 0.74217 0.8176 0.0
H183 H 0.98035 0.67424 0.88771 0.0
C184 C 0.95882 0.82023 0.67562 0.0
C185 C 0.99447 0.80767 0.62941 0.0
C186 C 0.94232 0.78027 0.71272 0.0
C187 C 0.96189 0.72727 0.70461 0.0
C188 C 0.99545 0.7147 0.65699 0.0
C189 C 1.01121 0.75429 0.61974 0.0
C190 C 0.96145 0.593 0.77481 0.0
C191 C 0.97429 0.60756 0.82995 0.0
C192 C 0.95121 0.63219 0.73468 0.0
C193 C 0.95506 0.68654 0.74877 0.0
C194 C 0.96225 0.70082 0.80507 0.0
C195 C 0.9713 0.66168 0.84534 0.0
H196 H 0.37896 0.91515 0.86244 0.0
H197 H 0.41235 0.07187 0.79628 0.0
H198 H 0.30987 0.89985 0.78752 0.0
H199 H 0.34426 0.05608 0.72085 0.0
H200 H 0.16542 0.03595 0.63964 0.0
H201 H 0.24084 0.04966 0.70889 0.0
H202 H 0.29925 0.886 0.68823 0.0
H203 H 0.2227 0.87179 0.6202 0.0
C204 C 0.3723 0.94605 0.83149 0.0
C205 C 0.40109 -0.00511 0.83572 0.0
C206 C 0.33273 0.9372 0.78834 0.0
C207 C 0.32106 0.9769 0.74825 0.0
C208 C 0.35128 0.02502 0.75153 0.0
C209 C 0.3907 0.03392 0.79468 0.0
C210 C 0.19432 0.00286 0.64978 0.0
C211 C 0.18747 0.95264 0.62459 0.0
C212 C 0.23799 0.01084 0.68924 0.0
C213 C 0.27618 0.96888 0.70438 0.0
C214 C 0.27013 0.91899 0.67826 0.0
C215 C 0.2264 0.91097 0.63888 0.0
H216 H 0.99143 0.27228 0.9331 0.0
H217 H 0.10693 0.32959 0.80461 0.0
H218 H 0.97922 0.18916 0.88003 0.0
H219 H 0.09667 0.2459 0.75328 0.0
H220 H 0.08552 0.0653 0.70413 0.0
H221 H 0.103 0.12399 0.7847 0.0
H222 H 0.93934 0.20551 0.75505 0.0
H223 H 0.92325 0.14888 0.67335 0.0
C224 C 1.01509 0.26648 0.89426 0.0
C225 C 0.04901 0.30735 0.87197 0.0
C226 C 1.00854 0.21905 0.86446 0.0
C227 C 0.03766 0.21162 0.8134 0.0
C228 C 0.0746 0.25097 0.79312 0.0
C229 C 0.07982 0.29882 0.82197 0.0
C230 C 0.05291 0.095 0.71591 0.0
C231 C 1.00359 0.10363 0.68278 0.0
C232 C 0.06266 0.12803 0.76185 0.0
C233 C 1.02205 0.16836 0.77571 0.0
C234 C 0.97057 0.17393 0.7452 0.0
C235 C 0.96169 0.1421 0.69849 0.0
H236 H 0.69212 0.93551 0.86466 0.0
H237 H 0.57468 0.03721 0.77195 0.0
H238 H 0.75425 0.92529 0.78239 0.0
H239 H 0.63377 0.02387 0.68821 0.0
H240 H 0.79322 0.06379 0.58474 0.0
H241 H 0.71793 0.05576 0.65393 0.0
H242 H 0.78046 0.89656 0.69338 0.0
H243 H 0.85928 0.90639 0.62533 0.0
C244 C 0.67876 0.95441 0.82605 0.0
C245 C 0.62911 -0.01214 0.82486 0.0
C246 C 0.71424 0.9483 0.77852 0.0
C247 C 0.70016 0.97455 0.72823 0.0
C248 C 0.64768 0.00454 0.72634 0.0
C249 C 0.61327 0.01189 0.77424 0.0
C250 C 0.79071 0.02659 0.60744 0.0
C251 C 0.83315 -0.01392 0.59981 0.0
C252 C 0.74667 0.02168 0.64722 0.0
C253 C 0.74261 0.9756 0.6803 0.0
C254 C 0.78262 0.93325 0.66984 0.0
C255 C 0.82749 0.9385 0.63016 0.0
H256 H 0.21947 0.36084 0.90222 0.0
H257 H 0.18807 0.38015 0.07964 0.0
H258 H 0.27051 0.27703 0.91963 0.0
H259 H 0.24077 0.29591 0.09675 0.0
H260 H 0.41328 0.17974 0.07629 0.0
H261 H 0.34946 0.25889 0.07815 0.0
H262 H 0.23628 0.18409 0.95931 0.0
H263 H 0.29977 0.10439 0.95828 0.0
C264 C 0.22426 0.34785 0.94509 0.0
C265 C 0.19941 0.37747 0.98952 0.0
C266 C 0.25284 0.29934 0.95488 0.0
C267 C 0.25825 0.27952 0.00934 0.0
C268 C 0.23651 0.3102 0.05428 0.0
C269 C 0.20689 0.35859 0.04445 0.0
C270 C 0.37346 0.1795 0.05236 0.0
C271 C 0.36114 0.13617 0.01723 0.0
C272 C 0.33712 0.22474 0.05336 0.0
C273 C 0.28859 0.22772 0.0183 0.0
C274 C 0.27382 0.18273 0.98641 0.0
C275 C 0.30965 0.13701 0.98625 0.0
H276 H 0.19289 0.61201 0.87652 0.0
H277 H 0.14428 0.63186 0.05025 0.0
H278 H 0.25383 0.69001 0.88282 0.0
H279 H 0.20577 0.70988 0.05642 0.0
H280 H 0.28989 0.87286 0.03669 0.0
H281 H 0.21706 0.80383 0.02121 0.0
H282 H 0.34491 0.70903 0.93031 0.0
H283 H 0.41651 0.77736 0.9453 0.0
C284 C 0.19537 0.63277 0.91617 0.0
C285 C 0.16396 0.61531 0.963 0.0
C286 C 0.23017 0.67762 0.91967 0.0
C287 C 0.23444 0.70618 0.97005 0.0
C288 C 0.20266 0.68917 0.01679 0.0
C289 C 0.16795 0.6441 0.01337 0.0
C290 C 0.30168 0.83774 0.01239 0.0
C291 C 0.35874 0.83016 0.99247 0.0
C292 C 0.26037 0.79809 0.00402 0.0
C293 C 0.27545 0.75089 0.97485 0.0
C294 C 0.33173 0.74501 0.95254 0.0
C295 C 0.37285 0.78406 0.9614 0.0
H296 H 0.62797 0.18006 0.05677 0.0
H297 H 0.75678 0.08444 0.96839 0.0
H298 H 0.69912 0.24854 0.07313 0.0
H299 H 0.82911 0.15368 0.98515 0.0
H300 H 0.90131 0.32593 0.95639 0.0
H301 H 0.84024 0.24774 0.94956 0.0
H302 H 0.78956 0.26779 0.12245 0.0
H303 H 0.85033 0.34595 0.12949 0.0
C304 C 0.67199 0.17339 0.04161 0.0
C305 C 0.68689 0.12721 0.01098 0.0
C306 C 0.71284 0.21251 0.05127 0.0
C307 C 0.7696 0.20665 0.03016 0.0
C308 C 0.78541 0.15939 1.00143 0.0
C309 C 0.74438 0.11964 0.99231 0.0
C310 C 0.87722 0.31368 0.99301 0.0
C311 C 0.88048 0.34254 0.0434 0.0
C312 C 0.84273 0.26852 0.9892 0.0
C313 C 0.81036 0.25149 0.03554 0.0
C314 C 0.81377 0.28016 0.08593 0.0
C315 C 0.84844 0.32511 0.08985 0.0
H316 H 0.8597 0.57889 0.92544 0.0
H317 H 0.82119 0.5953 0.10195 0.0
H318 H 0.80802 0.66351 0.90798 0.0
H319 H 0.77116 0.67955 0.0842 0.0
H320 H 0.74553 0.85279 0.04814 0.0
H321 H 0.80865 0.77286 0.04717 0.0
H322 H 0.6986 0.70074 0.92377 0.0
H323 H 0.63513 0.78011 0.92555 0.0
C324 C 0.8395 0.59987 0.96032 0.0
C325 C 0.84481 0.58018 0.01516 0.0
C326 C 0.81051 0.64849 0.95029 0.0
C327 C 0.7872 0.67849 0.99499 0.0
C328 C 0.79017 0.65775 0.04924 0.0
C329 C 0.81816 0.60901 0.05919 0.0
C330 C 0.73638 0.82075 0.01919 0.0
C331 C 0.68578 0.82229 0.98692 0.0
C332 C 0.77195 0.77492 0.01904 0.0
C333 C 0.75778 0.7306 0.98592 0.0
C334 C 0.7104 0.73441 0.94954 0.0
C335 C 0.6743 0.77976 0.95048 0.0
loop_
_geom_bond_atom_site_label_1
_geom_bond_atom_site_label_2
_geom_bond_distance
_geom_bond_site_symmetry_2
_ccdc_geom_bond_type
Fe0 O1 1.895 . S
Fe0 O4 1.706 1_645 S
Fe0 O9 2.077 1_545 S
Fe0 O14 1.918 1_545 S
Fe0 O20 2.094 1_655 S
Fe0 O29 1.938 1_655 S
O1 Fe0 1.895 . S
O1 Fe3 1.715 . S
Fe2 O4 1.886 . S
Fe2 O5 1.715 . S
Fe2 O12 1.935 . S
Fe2 O13 2.077 . S
Fe2 O19 1.935 . S
Fe2 O28 2.077 . S
Fe3 O1 1.715 . S
Fe3 O6 1.886 . S
Fe3 O10 1.935 . S
Fe3 O15 2.077 . S
Fe3 O21 1.935 . S
Fe3 O25 2.077 . S
O4 Fe0 1.706 1_465 S
O4 Fe2 1.886 . S
O5 Fe2 1.715 . S
O5 Fe7 1.892 . S
O6 Fe3 1.886 . S
O6 Fe7 1.708 1_645 S
Fe7 O5 1.892 . S
Fe7 O6 1.708 1_465 S
Fe7 O11 2.090 1_455 S
Fe7 O16 1.938 1_455 S
Fe7 O18 2.077 1_565 S
Fe7 O26 1.922 1_565 S
C8 O20 1.381 1_655 S
C8 O21 1.421 . S
O9 Fe0 2.077 1_565 S
O9 C22 1.381 1_565 S
O10 Fe3 1.935 . S
O10 C22 1.421 . S
O11 Fe7 2.090 1_655 S
O11 C27 1.381 1_655 S
O12 Fe2 1.935 . S
O12 C27 1.421 . S
O13 Fe2 2.077 . S
O13 C17 1.381 . S
O14 Fe0 1.918 1_565 S
O14 C17 1.421 1_655 S
O15 Fe3 2.077 . S
O15 C23 1.381 . S
O16 Fe7 1.938 1_655 S
O16 C23 1.421 1_565 S
C17 O13 1.381 . S
C17 O14 1.421 1_455 S
O18 Fe7 2.077 1_545 S
O18 C30 1.381 1_545 S
O19 Fe2 1.935 . S
O19 C30 1.421 . S
O20 Fe0 2.094 1_455 S
O20 C8 1.381 1_455 S
O21 Fe3 1.935 . S
O21 C8 1.421 . S
C22 O9 1.381 1_545 S
C22 O10 1.421 . S
C23 O15 1.381 . S
C23 O16 1.421 1_545 S
C24 O25 1.381 . S
C24 O26 1.421 1_655 S
O25 Fe3 2.077 . S
O25 C24 1.381 . S
O26 Fe7 1.922 1_545 S
O26 C24 1.421 1_455 S
C27 O11 1.381 1_455 S
C27 O12 1.421 . S
O28 Fe2 2.077 . S
O28 C31 1.381 . S
O29 Fe0 1.938 1_455 S
O29 C31 1.421 1_545 S
C30 O18 1.381 1_565 S
C30 O19 1.421 . S
C31 O28 1.381 . S
C31 O29 1.421 1_565 S
Fe32 O33 1.895 . S
Fe32 O36 1.706 1_564 S
Fe32 O41 2.077 1_554 S
Fe32 O46 1.918 1_554 S
Fe32 O52 2.094 1_565 S
Fe32 O61 1.938 1_565 S
O33 Fe32 1.895 . S
O33 Fe35 1.715 . S
Fe34 O36 1.886 . S
Fe34 O37 1.715 . S
Fe34 O44 1.935 . S
Fe34 O45 2.077 . S
Fe34 O51 1.935 . S
Fe34 O60 2.077 . S
Fe35 O33 1.715 . S
Fe35 O38 1.886 . S
Fe35 O42 1.935 . S
Fe35 O47 2.077 . S
Fe35 O53 1.935 . S
Fe35 O57 2.077 . S
O36 Fe32 1.706 1_546 S
O36 Fe34 1.886 . S
O37 Fe34 1.715 . S
O37 Fe39 1.892 . S
O38 Fe35 1.886 . S
O38 Fe39 1.708 1_564 S
Fe39 O37 1.892 . S
Fe39 O38 1.708 1_546 S
Fe39 O43 2.090 1_545 S
Fe39 O48 1.938 1_545 S
Fe39 O50 2.077 1_556 S
Fe39 O58 1.922 1_556 S
C40 O52 1.381 1_565 S
C40 O53 1.421 . S
O41 Fe32 2.077 1_556 S
O41 C54 1.381 1_556 S
O42 Fe35 1.935 . S
O42 C54 1.421 . S
O43 Fe39 2.090 1_565 S
O43 C59 1.381 1_565 S
O44 Fe34 1.935 . S
O44 C59 1.421 . S
O45 Fe34 2.077 . S
O45 C49 1.381 . S
O46 Fe32 1.918 1_556 S
O46 C49 1.421 1_565 S
O47 Fe35 2.077 . S
O47 C55 1.381 . S
O48 Fe39 1.938 1_565 S
O48 C55 1.421 1_556 S
C49 O45 1.381 . S
C49 O46 1.421 1_545 S
O50 Fe39 2.077 1_554 S
O50 C62 1.381 1_554 S
O51 Fe34 1.935 . S
O51 C62 1.421 . S
O52 Fe32 2.094 1_545 S
O52 C40 1.381 1_545 S
O53 Fe35 1.935 . S
O53 C40 1.421 . S
C54 O41 1.381 1_554 S
C54 O42 1.421 . S
C55 O47 1.381 . S
C55 O48 1.421 1_554 S
C56 O57 1.381 . S
C56 O58 1.421 1_565 S
O57 Fe35 2.077 . S
O57 C56 1.381 . S
O58 Fe39 1.922 1_554 S
O58 C56 1.421 1_545 S
C59 O43 1.381 1_545 S
C59 O44 1.421 . S
O60 Fe34 2.077 . S
O60 C63 1.381 . S
O61 Fe32 1.938 1_545 S
O61 C63 1.421 1_554 S
C62 O50 1.381 1_556 S
C62 O51 1.421 . S
C63 O60 1.381 . S
C63 O61 1.421 1_556 S
Fe64 O65 1.895 . S
Fe64 O68 1.706 1_654 S
Fe64 O73 2.094 1_655 S
Fe64 O78 1.938 1_655 S
Fe64 O84 2.077 1_554 S
Fe64 O93 1.918 1_554 S
O65 Fe64 1.895 . S
O65 Fe67 1.715 . S
Fe66 O68 1.886 . S
Fe66 O69 1.715 . S
Fe66 O76 1.935 . S
Fe66 O77 2.077 . S
Fe66 O83 1.935 . S
Fe66 O92 2.077 . S
Fe67 O65 1.715 . S
Fe67 O70 1.886 . S
Fe67 O74 1.935 . S
Fe67 O79 2.077 . S
Fe67 O85 1.935 . S
Fe67 O89 2.077 . S
O68 Fe64 1.706 1_456 S
O68 Fe66 1.886 . S
O69 Fe66 1.715 . S
O69 Fe71 1.892 . S
O70 Fe67 1.886 . S
O70 Fe71 1.708 1_654 S
Fe71 O69 1.892 . S
Fe71 O70 1.708 1_456 S
Fe71 O75 2.077 1_556 S
Fe71 O80 1.922 1_556 S
Fe71 O82 2.090 1_455 S
Fe71 O90 1.938 1_455 S
C72 O84 1.381 1_554 S
C72 O85 1.421 . S
O73 Fe64 2.094 1_455 S
O73 C86 1.381 1_455 S
O74 Fe67 1.935 . S
O74 C86 1.421 . S
O75 Fe71 2.077 1_554 S
O75 C91 1.381 1_554 S
O76 Fe66 1.935 . S
O76 C91 1.421 . S
O77 Fe66 2.077 . S
O77 C81 1.381 . S
O78 Fe64 1.938 1_455 S
O78 C81 1.421 1_554 S
O79 Fe67 2.077 . S
O79 C87 1.381 . S
O80 Fe71 1.922 1_554 S
O80 C87 1.421 1_455 S
C81 O77 1.381 . S
C81 O78 1.421 1_556 S
O82 Fe71 2.090 1_655 S
O82 C94 1.381 1_655 S
O83 Fe66 1.935 . S
O83 C94 1.421 . S
O84 Fe64 2.077 1_556 S
O84 C72 1.381 1_556 S
O85 Fe67 1.935 . S
O85 C72 1.421 . S
C86 O73 1.381 1_655 S
C86 O74 1.421 . S
C87 O79 1.381 . S
C87 O80 1.421 1_655 S
C88 O89 1.381 . S
C88 O90 1.421 1_554 S
O89 Fe67 2.077 . S
O89 C88 1.381 . S
O90 Fe71 1.938 1_655 S
O90 C88 1.421 1_556 S
C91 O75 1.381 1_556 S
C91 O76 1.421 . S
O92 Fe66 2.077 . S
O92 C95 1.381 . S
O93 Fe64 1.918 1_556 S
O93 C95 1.421 1_655 S
C94 O82 1.381 1_455 S
C94 O83 1.421 . S
C95 O92 1.381 . S
C95 O93 1.421 1_455 S
H96 C104 0.950 . S
H97 C109 0.950 . S
H98 C106 0.950 . S
H99 C108 0.950 . S
H100 C110 0.950 . S
H101 C112 0.950 . S
H102 C114 0.950 . S
H103 C115 0.950 . S
C104 H96 0.950 . S
C104 C105 1.386 . S
C104 C106 1.391 . S
C105 C104 1.386 . S
C105 C109 1.393 1_655 S
C106 H98 0.950 . S
C106 C104 1.391 . S
C106 C107 1.400 . S
C107 C106 1.400 . S
C107 C108 1.398 1_655 S
C107 C113 1.491 . S
C108 H99 0.950 . S
C108 C107 1.398 1_455 S
C108 C109 1.391 . S
C109 H97 0.950 . S
C109 C105 1.393 1_455 S
C109 C108 1.391 . S
C110 H100 0.950 . S
C110 C111 1.386 1_455 S
C110 C112 1.391 . S
C111 C110 1.386 1_655 S
C111 C115 1.393 . S
C112 H101 0.950 . S
C112 C110 1.391 . S
C112 C113 1.392 1_455 S
C113 C107 1.491 . S
C113 C112 1.392 1_655 S
C113 C114 1.406 . S
C114 H102 0.950 . S
C114 C113 1.406 . S
C114 C115 1.391 . S
C115 H103 0.950 . S
C115 C111 1.393 . S
C115 C114 1.391 . S
H116 C124 0.950 . S
H117 C129 0.950 . S
H118 C126 0.950 . S
H119 C128 0.950 . S
H120 C130 0.950 . S
H121 C132 0.950 . S
H122 C134 0.950 . S
H123 C135 0.950 . S
C124 H116 0.950 . S
C124 C125 1.386 1_565 S
C124 C126 1.391 . S
C125 C124 1.386 1_545 S
C125 C129 1.393 . S
C126 H118 0.950 . S
C126 C124 1.391 . S
C126 C127 1.390 1_565 S
C127 C126 1.390 1_545 S
C127 C128 1.409 . S
C127 C133 1.491 1_545 S
C128 H119 0.950 . S
C128 C127 1.409 . S
C128 C129 1.391 . S
C129 H117 0.950 . S
C129 C125 1.393 . S
C129 C128 1.391 . S
C130 H120 0.950 . S
C130 C131 1.386 1_545 S
C130 C132 1.391 . S
C131 C130 1.386 1_565 S
C131 C135 1.393 . S
C132 H121 0.950 . S
C132 C130 1.391 . S
C132 C133 1.394 1_545 S
C133 C127 1.491 1_565 S
C133 C132 1.394 1_565 S
C133 C134 1.405 . S
C134 H122 0.950 . S
C134 C133 1.405 . S
C134 C135 1.391 . S
C135 H123 0.950 . S
C135 C131 1.393 . S
C135 C134 1.391 . S
H136 C144 0.950 . S
H137 C149 0.950 . S
H138 C146 0.950 . S
H139 C148 0.950 . S
H140 C150 0.950 . S
H141 C152 0.950 . S
H142 C154 0.950 . S
H143 C155 0.950 . S
C144 H136 0.950 . S
C144 C145 1.386 . S
C144 C146 1.391 . S
C145 C144 1.386 . S
C145 C149 1.393 1_455 S
C146 H138 0.950 . S
C146 C144 1.391 . S
C146 C147 1.409 . S
C147 C146 1.409 . S
C147 C148 1.390 1_455 S
C147 C153 1.491 1_455 S
C148 H139 0.950 . S
C148 C147 1.390 1_655 S
C148 C149 1.391 . S
C149 H137 0.950 . S
C149 C145 1.393 1_655 S
C149 C148 1.391 . S
C150 H140 0.950 . S
C150 C151 1.386 . S
C150 C152 1.391 . S
C151 C150 1.386 . S
C151 C155 1.393 1_655 S
C152 H141 0.950 . S
C152 C150 1.391 . S
C152 C153 1.405 . S
C153 C147 1.491 1_655 S
C153 C152 1.405 . S
C153 C154 1.394 1_655 S
C154 H142 0.950 . S
C154 C153 1.394 1_455 S
C154 C155 1.391 . S
C155 H143 0.950 . S
C155 C151 1.393 1_455 S
C155 C154 1.391 . S
H156 C164 0.950 . S
H157 C169 0.950 . S
H158 C166 0.950 . S
H159 C168 0.950 . S
H160 C170 0.950 . S
H161 C172 0.950 . S
H162 C174 0.950 . S
H163 C175 0.950 . S
C164 H156 0.950 . S
C164 C165 1.386 1_545 S
C164 C166 1.391 . S
C165 C164 1.386 1_565 S
C165 C169 1.393 . S
C166 H158 0.950 . S
C166 C164 1.391 . S
C166 C167 1.400 1_545 S
C167 C166 1.400 1_565 S
C167 C168 1.398 . S
C167 C173 1.491 . S
C168 H159 0.950 . S
C168 C167 1.398 . S
C168 C169 1.391 . S
C169 H157 0.950 . S
C169 C165 1.393 . S
C169 C168 1.391 . S
C170 H160 0.950 . S
C170 C171 1.386 . S
C170 C172 1.391 . S
C171 C170 1.386 . S
C171 C175 1.393 1_565 S
C172 H161 0.950 . S
C172 C170 1.391 . S
C172 C173 1.400 . S
C173 C167 1.491 . S
C173 C172 1.400 . S
C173 C174 1.398 1_565 S
C174 H162 0.950 . S
C174 C173 1.398 1_545 S
C174 C175 1.391 . S
C175 H163 0.950 . S
C175 C171 1.393 1_545 S
C175 C174 1.391 . S
H176 C184 0.950 . S
H177 C189 0.950 . S
H178 C186 0.950 . S
H179 C188 0.950 . S
H180 C190 0.950 . S
H181 C192 0.950 . S
H182 C194 0.950 . S
H183 C195 0.950 . S
C184 H176 0.950 . S
C184 C185 1.387 . S
C184 C186 1.391 . S
C185 C184 1.387 . S
C185 C189 1.392 1_655 S
C186 H178 0.950 . S
C186 C184 1.391 . S
C186 C187 1.397 1_655 S
C187 C186 1.397 1_455 S
C187 C188 1.402 . S
C187 C193 1.491 . S
C188 H179 0.950 . S
C188 C187 1.402 . S
C188 C189 1.391 . S
C189 H177 0.950 . S
C189 C185 1.392 1_455 S
C189 C188 1.391 . S
C190 H180 0.950 . S
C190 C191 1.386 . S
C190 C192 1.391 . S
C191 C190 1.386 . S
C191 C195 1.393 1_455 S
C192 H181 0.950 . S
C192 C190 1.391 . S
C192 C193 1.400 . S
C193 C187 1.491 . S
C193 C192 1.400 . S
C193 C194 1.398 1_455 S
C194 H182 0.950 . S
C194 C193 1.398 1_655 S
C194 C195 1.391 . S
C195 H183 0.950 . S
C195 C191 1.393 1_655 S
C195 C194 1.391 . S
H196 C204 0.950 . S
H197 C209 0.950 . S
H198 C206 0.950 . S
H199 C208 0.950 . S
H200 C210 0.950 . S
H201 C212 0.950 . S
H202 C214 0.950 . S
H203 C215 0.950 . S
C204 H196 0.950 . S
C204 C205 1.386 1_565 S
C204 C206 1.391 . S
C205 C204 1.386 1_545 S
C205 C209 1.393 . S
C206 H198 0.950 . S
C206 C204 1.391 . S
C206 C207 1.394 1_565 S
C207 C206 1.394 1_545 S
C207 C208 1.404 . S
C207 C213 1.491 1_545 S
C208 H199 0.950 . S
C208 C207 1.404 . S
C208 C209 1.391 . S
C209 H197 0.950 . S
C209 C205 1.393 . S
C209 C208 1.391 . S
C210 H200 0.950 . S
C210 C211 1.386 1_545 S
C210 C212 1.391 . S
C211 C210 1.386 1_565 S
C211 C215 1.393 . S
C212 H201 0.950 . S
C212 C210 1.391 . S
C212 C213 1.398 1_545 S
C213 C207 1.491 1_565 S
C213 C212 1.398 1_565 S
C213 C214 1.400 . S
C214 H202 0.950 . S
C214 C213 1.400 . S
C214 C215 1.391 . S
C215 H203 0.950 . S
C215 C211 1.393 . S
C215 C214 1.391 . S
H216 C224 0.950 . S
H217 C229 0.950 . S
H218 C226 0.950 . S
H219 C228 0.950 . S
H220 C230 0.950 . S
H221 C232 0.950 . S
H222 C234 0.950 . S
H223 C235 0.950 . S
C224 H216 0.950 . S
C224 C225 1.386 . S
C224 C226 1.391 . S
C225 C224 1.386 . S
C225 C229 1.392 1_655 S
C226 H218 0.950 . S
C226 C224 1.391 . S
C226 C227 1.404 . S
C227 C226 1.404 . S
C227 C228 1.395 1_655 S
C227 C233 1.490 1_655 S
C228 H219 0.950 . S
C228 C227 1.395 1_455 S
C228 C229 1.391 . S
C229 H217 0.950 . S
C229 C225 1.392 1_455 S
C229 C228 1.391 . S
C230 H220 0.950 . S
C230 C231 1.389 . S
C230 C232 1.391 . S
C231 C230 1.389 . S
C231 C235 1.389 1_455 S
C232 H221 0.950 . S
C232 C230 1.391 . S
C232 C233 1.407 . S
C233 C227 1.490 1_455 S
C233 C232 1.407 . S
C233 C234 1.392 1_455 S
C234 H222 0.950 . S
C234 C233 1.392 1_655 S
C234 C235 1.391 . S
C235 H223 0.950 . S
C235 C231 1.389 1_655 S
C235 C234 1.391 . S
H236 C244 0.950 . S
H237 C249 0.950 . S
H238 C246 0.950 . S
H239 C248 0.950 . S
H240 C250 0.950 . S
H241 C252 0.950 . S
H242 C254 0.950 . S
H243 C255 0.950 . S
C244 H236 0.950 . S
C244 C245 1.386 1_565 S
C244 C246 1.391 . S
C245 C244 1.386 1_545 S
C245 C249 1.393 . S
C246 H238 0.950 . S
C246 C244 1.391 . S
C246 C247 1.400 1_565 S
C247 C246 1.400 1_545 S
C247 C248 1.398 . S
C247 C253 1.491 . S
C248 H239 0.950 . S
C248 C247 1.398 . S
C248 C249 1.391 . S
C249 H237 0.950 . S
C249 C245 1.393 . S
C249 C248 1.391 . S
C250 H240 0.950 . S
C250 C251 1.386 . S
C250 C252 1.391 . S
C251 C250 1.386 . S
C251 C255 1.393 1_545 S
C252 H241 0.950 . S
C252 C250 1.391 . S
C252 C253 1.400 . S
C253 C247 1.491 . S
C253 C252 1.400 . S
C253 C254 1.398 1_545 S
C254 H242 0.950 . S
C254 C253 1.398 1_565 S
C254 C255 1.391 . S
C255 H243 0.950 . S
C255 C251 1.393 1_565 S
C255 C254 1.391 . S
H256 C264 0.950 . S
H257 C269 0.950 . S
H258 C266 0.950 . S
H259 C268 0.950 . S
H260 C270 0.950 . S
H261 C272 0.950 . S
H262 C274 0.950 . S
H263 C275 0.950 . S
C264 H256 0.950 . S
C264 C265 1.386 1_556 S
C264 C266 1.391 . S
C265 C264 1.386 1_554 S
C265 C269 1.392 . S
C266 H258 0.950 . S
C266 C264 1.391 . S
C266 C267 1.409 . S
C267 C266 1.409 . S
C267 C268 1.389 1_556 S
C267 C273 1.491 . S
C268 H259 0.950 . S
C268 C267 1.389 1_554 S
C268 C269 1.391 . S
C269 H257 0.950 . S
C269 C265 1.392 . S
C269 C268 1.391 . S
C270 H260 0.950 . S
C270 C271 1.386 1_554 S
C270 C272 1.391 . S
C271 C270 1.386 1_556 S
C271 C275 1.393 . S
C272 H261 0.950 . S
C272 C270 1.391 . S
C272 C273 1.400 1_554 S
C273 C267 1.491 . S
C273 C272 1.400 1_556 S
C273 C274 1.398 . S
C274 H262 0.950 . S
C274 C273 1.398 . S
C274 C275 1.391 . S
C275 H263 0.950 . S
C275 C271 1.393 . S
C275 C274 1.391 . S
H276 C284 0.950 . S
H277 C289 0.950 . S
H278 C286 0.950 . S
H279 C288 0.950 . S
H280 C290 0.950 . S
H281 C292 0.950 . S
H282 C294 0.950 . S
H283 C295 0.950 . S
C284 H276 0.950 . S
C284 C285 1.386 . S
C284 C286 1.391 . S
C285 C284 1.386 . S
C285 C289 1.393 1_556 S
C286 H278 0.950 . S
C286 C284 1.391 . S
C286 C287 1.400 . S
C287 C286 1.400 . S
C287 C288 1.398 1_556 S
C287 C293 1.491 1_556 S
C288 H279 0.950 . S
C288 C287 1.398 1_554 S
C288 C289 1.391 . S
C289 H277 0.950 . S
C289 C285 1.393 1_554 S
C289 C288 1.391 . S
C290 H280 0.950 . S
C290 C291 1.386 . S
C290 C292 1.391 . S
C291 C290 1.386 . S
C291 C295 1.393 1_554 S
C292 H281 0.950 . S
C292 C290 1.391 . S
C292 C293 1.400 . S
C293 C287 1.491 1_554 S
C293 C292 1.400 . S
C293 C294 1.398 1_554 S
C294 H282 0.950 . S
C294 C293 1.398 1_556 S
C294 C295 1.391 . S
C295 H283 0.950 . S
C295 C291 1.393 1_556 S
C295 C294 1.391 . S
H296 C304 0.950 . S
H297 C309 0.950 . S
H298 C306 0.950 . S
H299 C308 0.950 . S
H300 C310 0.950 . S
H301 C312 0.950 . S
H302 C314 0.950 . S
H303 C315 0.950 . S
C304 H296 0.950 . S
C304 C305 1.386 1_556 S
C304 C306 1.391 . S
C305 C304 1.386 1_554 S
C305 C309 1.393 . S
C306 H298 0.950 . S
C306 C304 1.391 . S
C306 C307 1.395 1_556 S
C307 C306 1.395 1_554 S
C307 C308 1.405 . S
C307 C313 1.490 1_554 S
C308 H299 0.950 . S
C308 C307 1.405 . S
C308 C309 1.391 . S
C309 H297 0.950 . S
C309 C305 1.393 . S
C309 C308 1.391 . S
C310 H300 0.950 . S
C310 C311 1.380 1_554 S
C310 C312 1.391 . S
C311 C310 1.380 1_556 S
C311 C315 1.399 . S
C312 H301 0.950 . S
C312 C310 1.391 . S
C312 C313 1.396 1_554 S
C313 C307 1.490 1_556 S
C313 C312 1.396 1_556 S
C313 C314 1.403 . S
C314 H302 0.950 . S
C314 C313 1.403 . S
C314 C315 1.391 . S
C315 H303 0.950 . S
C315 C311 1.399 . S
C315 C314 1.391 . S
H316 C324 0.950 . S
H317 C329 0.950 . S
H318 C326 0.950 . S
H319 C328 0.950 . S
H320 C330 0.950 . S
H321 C332 0.950 . S
H322 C334 0.950 . S
H323 C335 0.950 . S
C324 H316 0.950 . S
C324 C325 1.374 1_556 S
C324 C326 1.391 . S
C325 C324 1.374 1_554 S
C325 C329 1.404 . S
C326 H318 0.950 . S
C326 C324 1.391 . S
C326 C327 1.400 1_556 S
C327 C326 1.400 1_554 S
C327 C328 1.398 . S
C327 C333 1.491 . S
C328 H319 0.950 . S
C328 C327 1.398 . S
C328 C329 1.391 . S
C329 H317 0.950 . S
C329 C325 1.404 . S
C329 C328 1.391 . S
C330 H320 0.950 . S
C330 C331 1.386 . S
C330 C332 1.391 . S
C331 C330 1.386 . S
C331 C335 1.393 1_554 S
C332 H321 0.950 . S
C332 C330 1.391 . S
C332 C333 1.400 . S
C333 C327 1.491 . S
C333 C332 1.400 . S
C333 C334 1.398 1_554 S
C334 H322 0.950 . S
C334 C333 1.398 1_556 S
C334 C335 1.391 . S
C335 H323 0.950 . S
C335 C331 1.393 1_556 S
C335 C334 1.391 . S
C105 C86 1.152 . S
C111 C8 1.182 . S
C125 C22 1.132 . S
C131 C56 1.101 . S
C145 C17 1.132 . S
C151 C87 1.102 . S
C165 C40 1.159 . S
C171 C31 1.172 . S
C185 C27 1.185 1_655 S
C191 C94 1.155 . S
C205 C49 1.103 . S
C211 C30 1.135 . S
C225 C95 1.139 1_655 S
C231 C24 1.112 1_455 S
C245 C59 1.176 . S
C251 C23 1.151 . S
C265 C81 1.179 1_554 S
C271 C63 1.139 . S
C285 C91 1.110 . S
C291 C54 1.117 . S
C305 C62 1.144 1_554 S
C311 C72 1.134 1_556 S
C325 C88 1.182 . S
C331 C55 1.145 . S
