# Generated by pormake.
# Topology wil, (6)-cn, num edge types: 1
# Building blocks:
#     Node 0, Type 0, BuildingBlock: IZENUY_clean_sbu_0, # of connection points: 6
#     Node 1, Type 0, BuildingBlock: IZENUY_clean_sbu_0, # of connection points: 6
#     Node 2, Type 0, BuildingBlock: IZENUY_clean_sbu_0, # of connection points: 6
#     Node 3, Type 0, BuildingBlock: IZENUY_clean_sbu_0, # of connection points: 6
#     Node 4, Type 0, BuildingBlock: IZENUY_clean_sbu_0, # of connection points: 6
#     Node 5, Type 0, BuildingBlock: IZENUY_clean_sbu_0, # of connection points: 6
#     Node 6, Type 0, BuildingBlock: IZENUY_clean_sbu_0, # of connection points: 6
#     Node 7, Type 0, BuildingBlock: IZENUY_clean_sbu_0, # of connection points: 6
#     Node 8, Type 0, BuildingBlock: IZENUY_clean_sbu_0, # of connection points: 6
#     Node 9, Type 0, BuildingBlock: IZENUY_clean_sbu_0, # of connection points: 6
#     Node 10, Type 0, BuildingBlock: IZENUY_clean_sbu_0, # of connection points: 6
#     Node 11, Type 0, BuildingBlock: IZENUY_clean_sbu_0, # of connection points: 6
#     Node 12, Type 0, BuildingBlock: IZENUY_clean_sbu_0, # of connection points: 6
#     Node 13, Type 0, BuildingBlock: IZENUY_clean_sbu_0, # of connection points: 6
#     Node 14, Type 0, BuildingBlock: IZENUY_clean_sbu_0, # of connection points: 6
#     Node 15, Type 0, BuildingBlock: IZENUY_clean_sbu_0, # of connection points: 6
#     Node 16, Type 0, BuildingBlock: IZENUY_clean_sbu_0, # of connection points: 6
#     Node 17, Type 0, BuildingBlock: IZENUY_clean_sbu_0, # of connection points: 6
#     Node 18, Type 0, BuildingBlock: IZENUY_clean_sbu_0, # of connection points: 6
#     Node 19, Type 0, BuildingBlock: IZENUY_clean_sbu_0, # of connection points: 6
#     Node 20, Type 0, BuildingBlock: IZENUY_clean_sbu_0, # of connection points: 6
#     Node 21, Type 0, BuildingBlock: IZENUY_clean_sbu_0, # of connection points: 6
#     Node 22, Type 0, BuildingBlock: IZENUY_clean_sbu_0, # of connection points: 6
#     Node 23, Type 0, BuildingBlock: IZENUY_clean_sbu_0, # of connection points: 6
#     Node 24, Type 0, BuildingBlock: IZENUY_clean_sbu_0, # of connection points: 6
#     Node 25, Type 0, BuildingBlock: IZENUY_clean_sbu_0, # of connection points: 6
#     Node 26, Type 0, BuildingBlock: IZENUY_clean_sbu_0, # of connection points: 6
#     Node 27, Type 0, BuildingBlock: IZENUY_clean_sbu_0, # of connection points: 6
#     Node 28, Type 0, BuildingBlock: IZENUY_clean_sbu_0, # of connection points: 6
#     Node 29, Type 0, BuildingBlock: IZENUY_clean_sbu_0, # of connection points: 6
#     Node 30, Type 0, BuildingBlock: IZENUY_clean_sbu_0, # of connection points: 6
#     Node 31, Type 0, BuildingBlock: IZENUY_clean_sbu_0, # of connection points: 6
#     Edge 32, Type (0, 0), BuildingBlock: XIVTED_clean_linker_0, # of connection points: 2
#     Edge 33, Type (0, 0), BuildingBlock: XIVTED_clean_linker_0, # of connection points: 2
#     Edge 34, Type (0, 0), BuildingBlock: XIVTED_clean_linker_0, # of connection points: 2
#     Edge 35, Type (0, 0), BuildingBlock: XIVTED_clean_linker_0, # of connection points: 2
#     Edge 36, Type (0, 0), BuildingBlock: XIVTED_clean_linker_0, # of connection points: 2
#     Edge 37, Type (0, 0), BuildingBlock: XIVTED_clean_linker_0, # of connection points: 2
#     Edge 38, Type (0, 0), BuildingBlock: XIVTED_clean_linker_0, # of connection points: 2
#     Edge 39, Type (0, 0), BuildingBlock: XIVTED_clean_linker_0, # of connection points: 2
#     Edge 40, Type (0, 0), BuildingBlock: XIVTED_clean_linker_0, # of connection points: 2
#     Edge 41, Type (0, 0), BuildingBlock: XIVTED_clean_linker_0, # of connection points: 2
#     Edge 42, Type (0, 0), BuildingBlock: XIVTED_clean_linker_0, # of connection points: 2
#     Edge 43, Type (0, 0), BuildingBlock: XIVTED_clean_linker_0, # of connection points: 2
#     Edge 44, Type (0, 0), BuildingBlock: XIVTED_clean_linker_0, # of connection points: 2
#     Edge 45, Type (0, 0), BuildingBlock: XIVTED_clean_linker_0, # of connection points: 2
#     Edge 46, Type (0, 0), BuildingBlock: XIVTED_clean_linker_0, # of connection points: 2
#     Edge 47, Type (0, 0), BuildingBlock: XIVTED_clean_linker_0, # of connection points: 2
#     Edge 48, Type (0, 0), BuildingBlock: XIVTED_clean_linker_0, # of connection points: 2
#     Edge 49, Type (0, 0), BuildingBlock: XIVTED_clean_linker_0, # of connection points: 2
#     Edge 50, Type (0, 0), BuildingBlock: XIVTED_clean_linker_0, # of connection points: 2
#     Edge 51, Type (0, 0), BuildingBlock: XIVTED_clean_linker_0, # of connection points: 2
#     Edge 52, Type (0, 0), BuildingBlock: XIVTED_clean_linker_0, # of connection points: 2
#     Edge 53, Type (0, 0), BuildingBlock: XIVTED_clean_linker_0, # of connection points: 2
#     Edge 54, Type (0, 0), BuildingBlock: XIVTED_clean_linker_0, # of connection points: 2
#     Edge 55, Type (0, 0), BuildingBlock: XIVTED_clean_linker_0, # of connection points: 2
#     Edge 56, Type (0, 0), BuildingBlock: XIVTED_clean_linker_0, # of connection points: 2
#     Edge 57, Type (0, 0), BuildingBlock: XIVTED_clean_linker_0, # of connection points: 2
#     Edge 58, Type (0, 0), BuildingBlock: XIVTED_clean_linker_0, # of connection points: 2
#     Edge 59, Type (0, 0), BuildingBlock: XIVTED_clean_linker_0, # of connection points: 2
#     Edge 60, Type (0, 0), BuildingBlock: XIVTED_clean_linker_0, # of connection points: 2
#     Edge 61, Type (0, 0), BuildingBlock: XIVTED_clean_linker_0, # of connection points: 2
#     Edge 62, Type (0, 0), BuildingBlock: XIVTED_clean_linker_0, # of connection points: 2
#     Edge 63, Type (0, 0), BuildingBlock: XIVTED_clean_linker_0, # of connection points: 2
#     Edge 64, Type (0, 0), BuildingBlock: XIVTED_clean_linker_0, # of connection points: 2
#     Edge 65, Type (0, 0), BuildingBlock: XIVTED_clean_linker_0, # of connection points: 2
#     Edge 66, Type (0, 0), BuildingBlock: XIVTED_clean_linker_0, # of connection points: 2
#     Edge 67, Type (0, 0), BuildingBlock: XIVTED_clean_linker_0, # of connection points: 2
#     Edge 68, Type (0, 0), BuildingBlock: XIVTED_clean_linker_0, # of connection points: 2
#     Edge 69, Type (0, 0), BuildingBlock: XIVTED_clean_linker_0, # of connection points: 2
#     Edge 70, Type (0, 0), BuildingBlock: XIVTED_clean_linker_0, # of connection points: 2
#     Edge 71, Type (0, 0), BuildingBlock: XIVTED_clean_linker_0, # of connection points: 2
#     Edge 72, Type (0, 0), BuildingBlock: XIVTED_clean_linker_0, # of connection points: 2
#     Edge 73, Type (0, 0), BuildingBlock: XIVTED_clean_linker_0, # of connection points: 2
#     Edge 74, Type (0, 0), BuildingBlock: XIVTED_clean_linker_0, # of connection points: 2
#     Edge 75, Type (0, 0), BuildingBlock: XIVTED_clean_linker_0, # of connection points: 2
#     Edge 76, Type (0, 0), BuildingBlock: XIVTED_clean_linker_0, # of connection points: 2
#     Edge 77, Type (0, 0), BuildingBlock: XIVTED_clean_linker_0, # of connection points: 2
#     Edge 78, Type (0, 0), BuildingBlock: XIVTED_clean_linker_0, # of connection points: 2
#     Edge 79, Type (0, 0), BuildingBlock: XIVTED_clean_linker_0, # of connection points: 2
#     Edge 80, Type (0, 0), BuildingBlock: XIVTED_clean_linker_0, # of connection points: 2
#     Edge 81, Type (0, 0), BuildingBlock: XIVTED_clean_linker_0, # of connection points: 2
#     Edge 82, Type (0, 0), BuildingBlock: XIVTED_clean_linker_0, # of connection points: 2
#     Edge 83, Type (0, 0), BuildingBlock: XIVTED_clean_linker_0, # of connection points: 2
#     Edge 84, Type (0, 0), BuildingBlock: XIVTED_clean_linker_0, # of connection points: 2
#     Edge 85, Type (0, 0), BuildingBlock: XIVTED_clean_linker_0, # of connection points: 2
#     Edge 86, Type (0, 0), BuildingBlock: XIVTED_clean_linker_0, # of connection points: 2
#     Edge 87, Type (0, 0), BuildingBlock: XIVTED_clean_linker_0, # of connection points: 2
#     Edge 88, Type (0, 0), BuildingBlock: XIVTED_clean_linker_0, # of connection points: 2
#     Edge 89, Type (0, 0), BuildingBlock: XIVTED_clean_linker_0, # of connection points: 2
#     Edge 90, Type (0, 0), BuildingBlock: XIVTED_clean_linker_0, # of connection points: 2
#     Edge 91, Type (0, 0), BuildingBlock: XIVTED_clean_linker_0, # of connection points: 2
#     Edge 92, Type (0, 0), BuildingBlock: XIVTED_clean_linker_0, # of connection points: 2
#     Edge 93, Type (0, 0), BuildingBlock: XIVTED_clean_linker_0, # of connection points: 2
#     Edge 94, Type (0, 0), BuildingBlock: XIVTED_clean_linker_0, # of connection points: 2
#     Edge 95, Type (0, 0), BuildingBlock: XIVTED_clean_linker_0, # of connection points: 2
#     Edge 96, Type (0, 0), BuildingBlock: XIVTED_clean_linker_0, # of connection points: 2
#     Edge 97, Type (0, 0), BuildingBlock: XIVTED_clean_linker_0, # of connection points: 2
#     Edge 98, Type (0, 0), BuildingBlock: XIVTED_clean_linker_0, # of connection points: 2
#     Edge 99, Type (0, 0), BuildingBlock: XIVTED_clean_linker_0, # of connection points: 2
#     Edge 100, Type (0, 0), BuildingBlock: XIVTED_clean_linker_0, # of connection points: 2
#     Edge 101, Type (0, 0), BuildingBlock: XIVTED_clean_linker_0, # of connection points: 2
#     Edge 102, Type (0, 0), BuildingBlock: XIVTED_clean_linker_0, # of connection points: 2
#     Edge 103, Type (0, 0), BuildingBlock: XIVTED_clean_linker_0, # of connection points: 2
#     Edge 104, Type (0, 0), BuildingBlock: XIVTED_clean_linker_0, # of connection points: 2
#     Edge 105, Type (0, 0), BuildingBlock: XIVTED_clean_linker_0, # of connection points: 2
#     Edge 106, Type (0, 0), BuildingBlock: XIVTED_clean_linker_0, # of connection points: 2
#     Edge 107, Type (0, 0), BuildingBlock: XIVTED_clean_linker_0, # of connection points: 2
#     Edge 108, Type (0, 0), BuildingBlock: XIVTED_clean_linker_0, # of connection points: 2
#     Edge 109, Type (0, 0), BuildingBlock: XIVTED_clean_linker_0, # of connection points: 2
#     Edge 110, Type (0, 0), BuildingBlock: XIVTED_clean_linker_0, # of connection points: 2
#     Edge 111, Type (0, 0), BuildingBlock: XIVTED_clean_linker_0, # of connection points: 2
#     Edge 112, Type (0, 0), BuildingBlock: XIVTED_clean_linker_0, # of connection points: 2
#     Edge 113, Type (0, 0), BuildingBlock: XIVTED_clean_linker_0, # of connection points: 2
#     Edge 114, Type (0, 0), BuildingBlock: XIVTED_clean_linker_0, # of connection points: 2
#     Edge 115, Type (0, 0), BuildingBlock: XIVTED_clean_linker_0, # of connection points: 2
#     Edge 116, Type (0, 0), BuildingBlock: XIVTED_clean_linker_0, # of connection points: 2
#     Edge 117, Type (0, 0), BuildingBlock: XIVTED_clean_linker_0, # of connection points: 2
#     Edge 118, Type (0, 0), BuildingBlock: XIVTED_clean_linker_0, # of connection points: 2
#     Edge 119, Type (0, 0), BuildingBlock: XIVTED_clean_linker_0, # of connection points: 2
#     Edge 120, Type (0, 0), BuildingBlock: XIVTED_clean_linker_0, # of connection points: 2
#     Edge 121, Type (0, 0), BuildingBlock: XIVTED_clean_linker_0, # of connection points: 2
#     Edge 122, Type (0, 0), BuildingBlock: XIVTED_clean_linker_0, # of connection points: 2
#     Edge 123, Type (0, 0), BuildingBlock: XIVTED_clean_linker_0, # of connection points: 2
#     Edge 124, Type (0, 0), BuildingBlock: XIVTED_clean_linker_0, # of connection points: 2
#     Edge 125, Type (0, 0), BuildingBlock: XIVTED_clean_linker_0, # of connection points: 2
#     Edge 126, Type (0, 0), BuildingBlock: XIVTED_clean_linker_0, # of connection points: 2
#     Edge 127, Type (0, 0), BuildingBlock: XIVTED_clean_linker_0, # of connection points: 2
# Relax obj value: 0.468
# Max RMSD: 0.260
# Mean RMSD: 0.260
data_MOF--net-wil--node1-IZENUY_clean_sbu_0--edge1-XIVTED_clean_linker_0
_symmetry_space_group_name_H-M    P1
_symmetry_Int_Tables_number       1
_symmetry_cell_setting            triclinic
loop_
_symmetry_equiv_pos_as_xyz
'x, y, z'
_cell_length_a     69.17177
_cell_length_b     69.183094
_cell_length_c     25.079267
_cell_angle_alpha  90.020456
_cell_angle_beta   90.03256
_cell_angle_gamma 90.001244
loop_
_atom_site_label
_atom_site_type_symbol
_atom_site_fract_x
_atom_site_fract_y
_atom_site_fract_z
_atom_type_partial_charge
Fe0 Fe 0.16395 0.21852 0.35927 0.0
Fe1 Fe 0.13464 0.19803 0.28835 0.0
O2 O 0.15152 0.19714 0.34138 0.0
Fe3 Fe 0.15534 0.17512 0.37712 0.0
O4 O 0.159 0.18691 0.44242 0.0
O5 O 0.15366 0.21765 0.42481 0.0
O6 O 0.14431 0.23485 0.34211 0.0
C7 C 0.12635 0.23254 0.33585 0.0
C8 C 0.19231 0.189 0.37893 0.0
O9 O 0.11964 0.21626 0.32198 0.0
C10 C 0.1525 0.1637 0.26751 0.0
O11 O 0.17468 0.22143 0.29325 0.0
O12 O 0.14732 0.21663 0.25162 0.0
O13 O 0.18141 0.17519 0.36485 0.0
O14 O 0.18579 0.20607 0.38162 0.0
C15 C 0.11587 0.17438 0.36245 0.0
O16 O 0.14851 0.1805 0.25149 0.0
O17 O 0.15216 0.15957 0.31705 0.0
C18 C 0.16386 0.2243 0.25335 0.0
O19 O 0.11855 0.17956 0.31491 0.0
O20 O 0.12982 0.17347 0.39465 0.0
C21 C 0.15462 0.20385 0.45724 0.0
Fe22 Fe 0.04587 0.91688 0.6218 0.0
Fe23 Fe 0.05975 0.88545 0.54451 0.0
O24 O 0.0642 0.90079 0.59954 0.0
Fe25 Fe 0.0869 0.90021 0.6326 0.0
O26 O 0.07526 0.89311 0.69517 0.0
O27 O 0.05323 0.91605 0.69156 0.0
O28 O 0.02963 0.89689 0.63643 0.0
C29 C 0.0245 0.88426 0.60292 0.0
C30 C 0.0766 0.9404 0.63608 0.0
O31 O 0.03408 0.88149 0.56054 0.0
C32 C 0.09802 0.89861 0.52742 0.0
O33 O 0.03446 0.92024 0.55613 0.0
O34 O 0.05446 0.90583 0.50212 0.0
O35 O 0.0863 0.92588 0.65175 0.0
O36 O 0.06115 0.93794 0.60978 0.0
C37 C 0.0805 0.86068 0.60686 0.0
O38 O 0.08442 0.88676 0.51902 0.0
O39 O 0.09985 0.90712 0.57189 0.0
C40 C 0.03994 0.9164 0.50921 0.0
O41 O 0.06491 0.86381 0.58241 0.0
O42 O 0.09154 0.87445 0.62013 0.0
C43 C 0.06219 0.90313 0.717 0.0
Fe44 Fe 0.36906 0.80659 0.78131 0.0
Fe45 Fe 0.35091 0.82825 0.8763 0.0
O46 O 0.35422 0.80659 0.83871 0.0
Fe47 Fe 0.34329 0.78467 0.85882 0.0
O48 O 0.3628 0.76905 0.83514 0.0
O49 O 0.38582 0.78903 0.81037 0.0
O50 O 0.38529 0.8258 0.80367 0.0
C51 C 0.3893 0.83206 0.84958 0.0
C52 C 0.33899 0.78057 0.75242 0.0
O53 O 0.37698 0.83109 0.88663 0.0
C54 C 0.31452 0.81294 0.8862 0.0
O55 O 0.35325 0.82372 0.74918 0.0
O56 O 0.35132 0.84414 0.81647 0.0
O57 O 0.33014 0.78189 0.79634 0.0
O58 O 0.35575 0.78757 0.74737 0.0
C59 C 0.35519 0.79903 0.95482 0.0
O60 O 0.32451 0.82724 0.87085 0.0
O61 O 0.32185 0.79617 0.8877 0.0
C62 C 0.34966 0.84041 0.76687 0.0
O63 O 0.34993 0.81593 0.94168 0.0
O64 O 0.35598 0.78557 0.92121 0.0
C65 C 0.38042 0.77258 0.82647 0.0
Fe66 Fe 0.41615 0.0968 0.13764 0.0
Fe67 Fe 0.4577 0.08174 0.1233 0.0
O68 O 0.43899 0.09795 0.10539 0.0
Fe69 Fe 0.44303 0.11534 0.0552 0.0
O70 O 0.43801 0.13509 0.10066 0.0
O71 O 0.41084 0.12287 0.1307 0.0
O72 O 0.42736 0.10218 0.20201 0.0
C73 C 0.44076 0.09192 0.22153 0.0
C74 C 0.40517 0.1021 0.03383 0.0
O75 O 0.45054 0.08046 0.19312 0.0
C76 C 0.46238 0.0854 0.01088 0.0
O77 O 0.41733 0.07053 0.15127 0.0
O78 O 0.44282 0.06094 0.10665 0.0
O79 O 0.41814 0.11492 0.03048 0.0
O80 O 0.40377 0.09144 0.07473 0.0
C81 C 0.47897 0.11472 0.11051 0.0
O82 O 0.46849 0.08044 0.05644 0.0
O83 O 0.44825 0.09676 0.00672 0.0
C84 C 0.42768 0.05694 0.13266 0.0
O85 O 0.47394 0.1014 0.14198 0.0
O86 O 0.46881 0.1188 0.07011 0.0
C87 C 0.42191 0.13726 0.12342 0.0
Fe88 Fe 0.15769 0.82933 0.12064 0.0
Fe89 Fe 0.16677 0.78664 0.14673 0.0
O90 O 0.15534 0.8087 0.16277 0.0
Fe91 Fe 0.14095 0.80986 0.2208 0.0
O92 O 0.12409 0.82802 0.19552 0.0
O93 O 0.13148 0.83087 0.11104 0.0
O94 O 0.15877 0.81521 0.05787 0.0
C95 C 0.15399 0.79782 0.04856 0.0
C96 C 0.15925 0.84443 0.22738 0.0
O97 O 0.15366 0.78541 0.08512 0.0
C98 C 0.17184 0.78536 0.25315 0.0
O99 O 0.18415 0.82935 0.12502 0.0
O100 O 0.18765 0.79794 0.11455 0.0
O101 O 0.15666 0.82809 0.2483 0.0
O102 O 0.1569 0.84685 0.17731 0.0
C103 C 0.13021 0.77445 0.18417 0.0
O104 O 0.1804 0.78603 0.20874 0.0
O105 O 0.15495 0.79209 0.25782 0.0
C106 C 0.19452 0.81491 0.11275 0.0
O107 O 0.14788 0.77125 0.17491 0.0
O108 O 0.12441 0.79124 0.1961 0.0
C109 C 0.1194 0.83251 0.14852 0.0
Fe110 Fe 0.44273 0.88512 0.47089 0.0
Fe111 Fe 0.42254 0.90138 0.37138 0.0
O112 O 0.44348 0.89919 0.4123 0.0
Fe113 Fe 0.46539 0.91048 0.39427 0.0
O114 O 0.48104 0.8918 0.42243 0.0
O115 O 0.46124 0.86849 0.4461 0.0
O116 O 0.42449 0.86813 0.44688 0.0
C117 C 0.41989 0.86321 0.40012 0.0
C118 C 0.46741 0.91624 0.50046 0.0
O119 O 0.42113 0.87517 0.36223 0.0
C120 C 0.43674 0.93798 0.36068 0.0
O121 O 0.42463 0.90092 0.49868 0.0
O122 O 0.40542 0.90062 0.42866 0.0
O123 O 0.46656 0.9245 0.4556 0.0
O124 O 0.4607 0.89939 0.50632 0.0
C125 C 0.45341 0.89792 0.29706 0.0
O126 O 0.42255 0.92779 0.37594 0.0
O127 O 0.45374 0.93115 0.36163 0.0
C128 C 0.40815 0.90341 0.47836 0.0
O129 O 0.43611 0.90258 0.30786 0.0
O130 O 0.46598 0.89691 0.33319 0.0
C131 C 0.4779 0.8742 0.43266 0.0
Fe132 Fe 0.36612 0.19674 0.69676 0.0
Fe133 Fe 0.34802 0.16977 0.61354 0.0
O134 O 0.34881 0.19251 0.64624 0.0
Fe135 Fe 0.33239 0.21101 0.62809 0.0
O136 O 0.35195 0.22735 0.60956 0.0
O137 O 0.36935 0.22253 0.68172 0.0
O138 O 0.38599 0.19206 0.65163 0.0
C139 C 0.38817 0.17653 0.62616 0.0
C140 C 0.33626 0.21607 0.74065 0.0
O141 O 0.37411 0.16499 0.61996 0.0
C142 C 0.30799 0.18075 0.618 0.0
O143 O 0.36594 0.1718 0.72128 0.0
O144 O 0.34281 0.15716 0.67604 0.0
O145 O 0.33103 0.22182 0.69494 0.0
O146 O 0.34743 0.20179 0.74503 0.0
C147 C 0.34305 0.19446 0.53003 0.0
O148 O 0.32176 0.17056 0.5998 0.0
O149 O 0.31173 0.19589 0.64442 0.0
C150 C 0.35332 0.15862 0.71722 0.0
O151 O 0.35338 0.18119 0.54967 0.0
O152 O 0.3312 0.20387 0.55813 0.0
C153 C 0.36531 0.23247 0.64084 0.0
Fe154 Fe 0.08789 0.10309 0.85493 0.0
Fe155 Fe 0.04718 0.08551 0.86479 0.0
O156 O 0.06498 0.10216 0.88678 0.0
Fe157 Fe 0.05997 0.11785 0.94048 0.0
O158 O 0.06449 0.13926 0.9002 0.0
O159 O 0.09211 0.12889 0.8682 0.0
O160 O 0.07642 0.10996 0.7919 0.0
C161 C 0.06359 0.09963 0.76985 0.0
C162 C 0.09827 0.10549 0.96016 0.0
O163 O 0.05458 0.0867 0.79522 0.0
C164 C 0.04228 0.0854 0.97712 0.0
O165 O 0.08793 0.07743 0.83507 0.0
O166 O 0.06311 0.06501 0.87713 0.0
O167 O 0.08469 0.11755 0.96608 0.0
O168 O 0.10047 0.09641 0.91661 0.0
C169 C 0.02426 0.11702 0.88379 0.0
O170 O 0.03629 0.08165 0.93065 0.0
O171 O 0.05539 0.09772 0.98441 0.0
C172 C 0.07847 0.06276 0.85056 0.0
O173 O 0.03 0.10475 0.85007 0.0
O174 O 0.03412 0.12064 0.92515 0.0
C175 C 0.08067 0.14265 0.87895 0.0
Fe176 Fe 0.83452 0.79543 0.62969 0.0
Fe177 Fe 0.85242 0.83581 0.61586 0.0
O178 O 0.85114 0.8135 0.6507 0.0
Fe179 Fe 0.86641 0.80918 0.70612 0.0
O180 O 0.86955 0.78328 0.69237 0.0
O181 O 0.85401 0.77834 0.61687 0.0
O182 O 0.83567 0.80196 0.55934 0.0
C183 C 0.84879 0.81039 0.53336 0.0
C184 C 0.83496 0.7905 0.74277 0.0
O185 O 0.85919 0.82333 0.55438 0.0
C186 C 0.85458 0.8481 0.71983 0.0
O187 O 0.81388 0.81145 0.64001 0.0
O188 O 0.82674 0.83583 0.59654 0.0
O189 O 0.84589 0.80483 0.74901 0.0
O190 O 0.83072 0.78494 0.69618 0.0
C191 C 0.89175 0.82846 0.64163 0.0
O192 O 0.84597 0.84965 0.67543 0.0
O193 O 0.86586 0.83415 0.72948 0.0
C194 C 0.81191 0.82668 0.61247 0.0
O195 O 0.87829 0.83979 0.62789 0.0
O196 O 0.88822 0.81331 0.66772 0.0
C197 C 0.86632 0.77316 0.65124 0.0
Fe198 Fe 0.96707 0.08704 0.39853 0.0
Fe199 Fe 0.92704 0.10146 0.36047 0.0
O200 O 0.94677 0.1024 0.40605 0.0
Fe201 Fe 0.94668 0.11917 0.45924 0.0
O202 O 0.96818 0.13134 0.43363 0.0
O203 O 0.98465 0.10436 0.4253 0.0
O204 O 0.97201 0.09724 0.33443 0.0
C205 C 0.96059 0.09803 0.29545 0.0
C206 C 0.96505 0.08631 0.50534 0.0
O207 O 0.94241 0.09648 0.30155 0.0
C208 C 0.9098 0.10529 0.46377 0.0
O209 O 0.95358 0.06697 0.36845 0.0
O210 O 0.92307 0.07574 0.37107 0.0
O211 O 0.96109 0.10414 0.5036 0.0
O212 O 0.96362 0.07612 0.46372 0.0
C213 C 0.92938 0.14072 0.37673 0.0
O214 O 0.90854 0.10629 0.41305 0.0
O215 O 0.92567 0.10782 0.48736 0.0
C216 C 0.93584 0.06297 0.36369 0.0
O217 O 0.92936 0.12695 0.34393 0.0
O218 O 0.93212 0.13758 0.42567 0.0
C219 C 0.98409 0.1226 0.42796 0.0
Fe220 Fe 0.66619 0.21046 0.12387 0.0
Fe221 Fe 0.6516 0.16861 0.11374 0.0
O222 O 0.65087 0.19151 0.14589 0.0
Fe223 Fe 0.63493 0.19551 0.1998 0.0
O224 O 0.63009 0.22092 0.18321 0.0
O225 O 0.64565 0.22582 0.1079 0.0
O226 O 0.6661 0.20276 0.05442 0.0
C227 C 0.65377 0.19309 0.02873 0.0
C228 C 0.66499 0.21658 0.23629 0.0
O229 O 0.64432 0.17958 0.05045 0.0
C230 C 0.64986 0.15815 0.21927 0.0
O231 O 0.68772 0.19624 0.13749 0.0
O232 O 0.67751 0.17025 0.09574 0.0
O233 O 0.65467 0.20187 0.2435 0.0
O234 O 0.66876 0.22213 0.18941 0.0
C235 C 0.61151 0.17326 0.13755 0.0
O236 O 0.65876 0.15637 0.1754 0.0
O237 O 0.63711 0.17103 0.22584 0.0
C238 C 0.69132 0.18085 0.11206 0.0
O239 O 0.62589 0.16279 0.12529 0.0
O240 O 0.61389 0.18928 0.16052 0.0
C241 C 0.63285 0.23067 0.14116 0.0
Fe242 Fe 0.55633 0.89195 0.95353 0.0
Fe243 Fe 0.5432 0.92478 0.87958 0.0
O244 O 0.56126 0.90829 0.90124 0.0
Fe245 Fe 0.58439 0.90814 0.87061 0.0
O246 O 0.58903 0.88233 0.88191 0.0
O247 O 0.56148 0.87106 0.91183 0.0
O248 O 0.53066 0.88866 0.93685 0.0
C249 C 0.52086 0.89251 0.89557 0.0
C250 C 0.59423 0.90487 0.97595 0.0
O251 O 0.52647 0.9053 0.86315 0.0
C252 C 0.5742 0.94826 0.86804 0.0
O253 O 0.55108 0.91156 0.9986 0.0
O254 O 0.5319 0.92777 0.94546 0.0
O255 O 0.5964 0.91447 0.93334 0.0
O256 O 0.5809 0.89245 0.98038 0.0
C257 C 0.56072 0.912 0.78421 0.0
O258 O 0.55861 0.94562 0.89339 0.0
O259 O 0.58408 0.93386 0.85288 0.0
C260 C 0.53748 0.92338 0.99196 0.0
O261 O 0.55094 0.92427 0.81004 0.0
O262 O 0.57357 0.90174 0.80642 0.0
C263 C 0.57777 0.86827 0.89063 0.0
Fe264 Fe 0.83492 0.2069 0.87013 0.0
Fe265 Fe 0.84922 0.16476 0.87706 0.0
O266 O 0.85011 0.18805 0.84707 0.0
Fe267 Fe 0.86601 0.19249 0.7934 0.0
O268 O 0.87048 0.21797 0.81045 0.0
O269 O 0.8555 0.22214 0.88675 0.0
O270 O 0.83513 0.19873 0.93908 0.0
C271 C 0.84667 0.18802 0.96449 0.0
C272 C 0.83519 0.21288 0.75803 0.0
O273 O 0.85613 0.17472 0.94181 0.0
C274 C 0.85146 0.15538 0.77084 0.0
O275 O 0.81336 0.19288 0.85591 0.0
O276 O 0.82325 0.16625 0.8949 0.0
O277 O 0.8461 0.19863 0.75012 0.0
O278 O 0.83216 0.21883 0.80497 0.0
C279 C 0.88944 0.17018 0.85498 0.0
O280 O 0.84219 0.15333 0.81399 0.0
O281 O 0.86442 0.16811 0.76623 0.0
C282 C 0.80958 0.17739 0.88049 0.0
O283 O 0.87513 0.15931 0.86565 0.0
O284 O 0.88696 0.18638 0.83298 0.0
C285 C 0.86802 0.2274 0.8532 0.0
Fe286 Fe 0.55668 0.11826 0.53091 0.0
Fe287 Fe 0.53746 0.08838 0.60224 0.0
O288 O 0.55785 0.10286 0.58698 0.0
Fe289 Fe 0.57894 0.10221 0.6279 0.0
O290 O 0.57822 0.12807 0.64031 0.0
O291 O 0.57232 0.13711 0.55803 0.0
O292 O 0.53612 0.13158 0.55829 0.0
C293 C 0.52027 0.12338 0.56897 0.0
C294 C 0.59324 0.10359 0.52093 0.0
O295 O 0.51957 0.1053 0.57563 0.0
C296 C 0.5689 0.06412 0.63315 0.0
O297 O 0.54095 0.10234 0.49269 0.0
O298 O 0.53863 0.07555 0.53906 0.0
O299 O 0.59589 0.1053 0.57099 0.0
O300 O 0.57675 0.1059 0.50048 0.0
C301 C 0.54743 0.10199 0.70064 0.0
O302 O 0.55126 0.06879 0.63342 0.0
O303 O 0.58172 0.07622 0.62041 0.0
C304 C 0.53688 0.08453 0.49546 0.0
O305 O 0.53478 0.1006 0.66479 0.0
O306 O 0.56524 0.09913 0.6909 0.0
C307 C 0.57739 0.141 0.6051 0.0
Fe308 Fe 0.63548 0.80943 0.30423 0.0
Fe309 Fe 0.66909 0.79687 0.37617 0.0
O310 O 0.65124 0.81408 0.35821 0.0
Fe311 Fe 0.64912 0.83593 0.3947 0.0
O312 O 0.62291 0.83851 0.38471 0.0
O313 O 0.61422 0.81142 0.34612 0.0
O314 O 0.63427 0.78322 0.31532 0.0
C315 C 0.63845 0.77297 0.35546 0.0
C316 C 0.64518 0.84887 0.29197 0.0
O317 O 0.65083 0.77851 0.38918 0.0
C318 C 0.69008 0.82899 0.39484 0.0
O319 O 0.65562 0.80706 0.25885 0.0
O320 O 0.67267 0.78751 0.30833 0.0
O321 O 0.65436 0.85048 0.33548 0.0
O322 O 0.634 0.83472 0.28343 0.0
C323 C 0.65483 0.80983 0.47457 0.0
O324 O 0.68856 0.8142 0.3654 0.0
O325 O 0.67495 0.83716 0.41259 0.0
C326 C 0.66755 0.79342 0.26271 0.0
O327 O 0.66829 0.80258 0.44715 0.0
O328 O 0.64359 0.82246 0.45545 0.0
C329 C 0.61012 0.82598 0.37406 0.0
Fe330 Fe 0.96396 0.92111 0.12104 0.0
Fe331 Fe 0.92278 0.90482 0.13201 0.0
O332 O 0.94571 0.90468 0.10024 0.0
Fe333 Fe 0.95026 0.88804 0.04833 0.0
O334 O 0.97588 0.88421 0.06537 0.0
O335 O 0.98044 0.90156 0.13783 0.0
O336 O 0.95639 0.92093 0.19081 0.0
C337 C 0.94716 0.90833 0.2169 0.0
C338 C 0.97024 0.91835 0.00859 0.0
O339 O 0.93406 0.89818 0.1954 0.0
C340 C 0.91237 0.90175 0.02714 0.0
O341 O 0.94868 0.94209 0.10704 0.0
O342 O 0.92356 0.93058 0.14971 0.0
O343 O 0.95598 0.90731 0.00262 0.0
O344 O 0.97534 0.92356 0.05492 0.0
C345 C 0.92844 0.86485 0.11174 0.0
O346 O 0.91051 0.91129 0.06999 0.0
O347 O 0.92561 0.88923 0.02172 0.0
C348 C 0.93333 0.94492 0.13348 0.0
O349 O 0.91752 0.87912 0.12084 0.0
O350 O 0.94472 0.86735 0.09033 0.0
C351 C 0.9858 0.88838 0.10629 0.0
Fe352 Fe 0.66534 0.7119 0.87998 0.0
Fe353 Fe 0.63038 0.69836 0.81367 0.0
O354 O 0.64783 0.69406 0.8639 0.0
Fe355 Fe 0.64765 0.67173 0.89867 0.0
O356 O 0.64266 0.68424 0.96141 0.0
O357 O 0.66589 0.70582 0.95077 0.0
O358 O 0.64688 0.72962 0.89631 0.0
C359 C 0.63296 0.73455 0.86672 0.0
C360 C 0.68806 0.68073 0.89477 0.0
O361 O 0.62789 0.72426 0.82744 0.0
C362 C 0.64222 0.65979 0.79564 0.0
O363 O 0.66725 0.72154 0.8121 0.0
O364 O 0.64884 0.70248 0.76411 0.0
O365 O 0.67364 0.67165 0.91316 0.0
O366 O 0.68535 0.69549 0.86598 0.0
C367 C 0.60794 0.67966 0.88635 0.0
O368 O 0.62983 0.67317 0.79083 0.0
O369 O 0.65258 0.65835 0.83715 0.0
C370 C 0.66109 0.71588 0.76719 0.0
O371 O 0.61055 0.6948 0.85964 0.0
O372 O 0.62153 0.66764 0.89232 0.0
C373 C 0.65347 0.69745 0.97962 0.0
Fe374 Fe 0.58458 0.40361 0.12938 0.0
Fe375 Fe 0.5435 0.4199 0.11628 0.0
O376 O 0.56212 0.40403 0.09502 0.0
Fe377 Fe 0.55812 0.3887 0.03975 0.0
O378 O 0.56298 0.36715 0.07812 0.0
O379 O 0.58929 0.37775 0.1178 0.0
O380 O 0.57253 0.39663 0.19136 0.0
C381 C 0.55931 0.40663 0.21243 0.0
C382 C 0.59662 0.40165 0.0252 0.0
O383 O 0.55046 0.41943 0.18633 0.0
C384 C 0.53832 0.41943 0.00343 0.0
O385 O 0.5838 0.42949 0.14757 0.0
O386 O 0.55859 0.44094 0.1044 0.0
O387 O 0.58299 0.38996 0.01584 0.0
O388 O 0.59803 0.41033 0.06946 0.0
C389 C 0.52251 0.38728 0.09622 0.0
O390 O 0.53247 0.42306 0.05011 0.0
O391 O 0.55307 0.40909 0.99702 0.0
C392 C 0.57395 0.44377 0.13081 0.0
O393 O 0.52742 0.39976 0.13041 0.0
O394 O 0.53235 0.38472 0.05421 0.0
C395 C 0.57833 0.36399 0.10367 0.0
Fe396 Fe 0.8467 0.32603 0.36853 0.0
Fe397 Fe 0.83792 0.28309 0.34629 0.0
O398 O 0.84933 0.30498 0.32837 0.0
Fe399 Fe 0.86391 0.30551 0.27073 0.0
O400 O 0.88079 0.3238 0.29535 0.0
O401 O 0.87271 0.3278 0.3791 0.0
O402 O 0.84538 0.3126 0.43235 0.0
C403 C 0.8504 0.29541 0.44342 0.0
C404 C 0.8457 0.3401 0.26091 0.0
O405 O 0.85119 0.28262 0.40782 0.0
C406 C 0.83275 0.28101 0.24007 0.0
O407 O 0.82037 0.3258 0.36256 0.0
O408 O 0.81714 0.29475 0.37827 0.0
O409 O 0.84849 0.32359 0.24115 0.0
O410 O 0.84772 0.34297 0.31083 0.0
C411 C 0.8744 0.27037 0.31015 0.0
O412 O 0.82423 0.28193 0.28453 0.0
O413 O 0.84975 0.28749 0.23496 0.0
C414 C 0.81023 0.31171 0.37842 0.0
O415 O 0.8567 0.26727 0.31897 0.0
O416 O 0.88024 0.28705 0.29733 0.0
C417 C 0.885 0.32905 0.34214 0.0
Fe418 Fe 0.95823 0.58359 0.6202 0.0
Fe419 Fe 0.94416 0.61813 0.55387 0.0
O420 O 0.94006 0.60079 0.60432 0.0
Fe421 Fe 0.91777 0.6005 0.63953 0.0
O422 O 0.93053 0.60551 0.70216 0.0
O423 O 0.95176 0.58217 0.69065 0.0
O424 O 0.97541 0.60232 0.63818 0.0
C425 C 0.98033 0.61619 0.60839 0.0
C426 C 0.92735 0.56023 0.63137 0.0
O427 O 0.96997 0.62124 0.56906 0.0
C428 C 0.90552 0.60592 0.53635 0.0
O429 O 0.96856 0.58227 0.55307 0.0
O430 O 0.94889 0.59963 0.50478 0.0
O431 O 0.91813 0.57417 0.65243 0.0
O432 O 0.94223 0.56366 0.60371 0.0
C433 C 0.92411 0.64076 0.62318 0.0
O434 O 0.91915 0.61792 0.53017 0.0
O435 O 0.90407 0.59578 0.57833 0.0
C436 C 0.96286 0.5881 0.50802 0.0
O437 O 0.93971 0.63814 0.59848 0.0
O438 O 0.91311 0.62665 0.63377 0.0
C439 C 0.9438 0.59466 0.71997 0.0
Fe440 Fe 0.65479 0.33407 0.61419 0.0
Fe441 Fe 0.67028 0.29273 0.62841 0.0
O442 O 0.65394 0.31132 0.64728 0.0
Fe443 Fe 0.637 0.30726 0.69878 0.0
O444 O 0.61674 0.3132 0.65651 0.0
O445 O 0.62889 0.33972 0.62248 0.0
O446 O 0.64867 0.3225 0.55089 0.0
C447 C 0.65887 0.30918 0.53088 0.0
C448 C 0.65114 0.34512 0.71873 0.0
O449 O 0.67113 0.30005 0.55843 0.0
C450 C 0.66649 0.28649 0.74033 0.0
O451 O 0.68094 0.3328 0.59895 0.0
O452 O 0.69094 0.30781 0.64484 0.0
O453 O 0.63869 0.33189 0.72502 0.0
O454 O 0.66076 0.34672 0.67597 0.0
C455 C 0.63693 0.27181 0.64049 0.0
O456 O 0.67189 0.28137 0.69436 0.0
O457 O 0.65574 0.30098 0.74582 0.0
C458 C 0.69472 0.32277 0.61787 0.0
O459 O 0.65081 0.27646 0.61041 0.0
O460 O 0.63252 0.28187 0.68096 0.0
C461 C 0.61449 0.32912 0.63324 0.0
Fe462 Fe 0.94386 0.38555 0.94742 0.0
Fe463 Fe 0.9166 0.40081 0.85991 0.0
O464 O 0.93944 0.40098 0.89252 0.0
Fe465 Fe 0.95793 0.41675 0.87011 0.0
O466 O 0.97409 0.39664 0.8556 0.0
O467 O 0.96958 0.3816 0.93189 0.0
O468 O 0.93857 0.36408 0.90882 0.0
C469 C 0.92288 0.36108 0.8846 0.0
C470 C 0.96361 0.41669 0.98252 0.0
O471 O 0.91184 0.37497 0.87191 0.0
C472 C 0.92759 0.44087 0.85691 0.0
O473 O 0.91918 0.38686 0.97283 0.0
O474 O 0.9039 0.40765 0.92104 0.0
O475 O 0.96917 0.42015 0.93553 0.0
O476 O 0.94934 0.4058 0.99036 0.0
C477 C 0.94104 0.40353 0.77502 0.0
O478 O 0.91734 0.42671 0.8412 0.0
O479 O 0.94301 0.43782 0.88262 0.0
C480 C 0.90566 0.39884 0.96503 0.0
O481 O 0.92784 0.39374 0.79692 0.0
O482 O 0.9505 0.41605 0.80054 0.0
C483 C 0.97947 0.38449 0.89013 0.0
Fe484 Fe 0.86727 0.6987 0.19692 0.0
Fe485 Fe 0.84966 0.67126 0.11451 0.0
O486 O 0.85017 0.69424 0.14611 0.0
Fe487 Fe 0.83373 0.7126 0.12603 0.0
O488 O 0.85316 0.72907 0.10848 0.0
O489 O 0.87141 0.72408 0.17907 0.0
O490 O 0.88743 0.69294 0.15362 0.0
C491 C 0.88967 0.67667 0.1322 0.0
C492 C 0.83725 0.7189 0.23823 0.0
O493 O 0.87532 0.66572 0.12461 0.0
C494 C 0.80972 0.68222 0.11404 0.0
O495 O 0.86599 0.67414 0.22397 0.0
O496 O 0.84343 0.65914 0.17709 0.0
O497 O 0.83167 0.72389 0.19218 0.0
O498 O 0.84856 0.70484 0.24394 0.0
C499 C 0.84608 0.69583 0.02979 0.0
O500 O 0.82388 0.67227 0.09761 0.0
O501 O 0.81281 0.69741 0.14087 0.0
C502 C 0.85331 0.66101 0.21945 0.0
O503 O 0.85608 0.68248 0.05074 0.0
O504 O 0.83357 0.70506 0.05625 0.0
C505 C 0.86706 0.73391 0.13823 0.0
Fe506 Fe 0.56095 0.61843 0.44265 0.0
Fe507 Fe 0.58807 0.59959 0.36126 0.0
O508 O 0.56527 0.60058 0.39375 0.0
Fe509 Fe 0.54699 0.58355 0.37767 0.0
O510 O 0.53001 0.6023 0.35819 0.0
O511 O 0.53519 0.62142 0.42684 0.0
O512 O 0.56572 0.63781 0.39628 0.0
C513 C 0.58173 0.64005 0.3733 0.0
C514 C 0.54266 0.58812 0.48955 0.0
O515 O 0.5929 0.62577 0.36595 0.0
C516 C 0.57757 0.5596 0.36894 0.0
O517 O 0.5858 0.61863 0.46748 0.0
O518 O 0.6006 0.59504 0.42459 0.0
O519 O 0.53649 0.58255 0.44469 0.0
O520 O 0.55604 0.60038 0.49268 0.0
C521 C 0.56336 0.59329 0.2782 0.0
O522 O 0.58751 0.57326 0.34936 0.0
O523 O 0.56258 0.56346 0.39558 0.0
C524 C 0.59893 0.60595 0.46497 0.0
O525 O 0.57655 0.60409 0.29673 0.0
O526 O 0.55396 0.58185 0.30767 0.0
C527 C 0.52498 0.6163 0.38737 0.0
Fe528 Fe 0.36784 0.30734 0.19888 0.0
Fe529 Fe 0.33482 0.29342 0.1265 0.0
O530 O 0.35131 0.31173 0.14646 0.0
Fe531 Fe 0.35111 0.33452 0.11359 0.0
O532 O 0.37699 0.33953 0.12314 0.0
O533 O 0.38849 0.31273 0.15739 0.0
O534 O 0.37177 0.28174 0.18202 0.0
C535 C 0.36753 0.27166 0.14142 0.0
C536 C 0.3544 0.34546 0.21825 0.0
O537 O 0.3542 0.27677 0.11 0.0
C538 C 0.31102 0.32402 0.11475 0.0
O539 O 0.34862 0.30165 0.2449 0.0
O540 O 0.33236 0.28236 0.19248 0.0
O541 O 0.34499 0.3472 0.17518 0.0
O542 O 0.36666 0.33206 0.22477 0.0
C543 C 0.34722 0.30976 0.02984 0.0
O544 O 0.3142 0.30878 0.14111 0.0
O545 O 0.32512 0.33384 0.09706 0.0
C546 C 0.33727 0.28765 0.23874 0.0
O547 O 0.33472 0.30069 0.05661 0.0
O548 O 0.3574 0.32298 0.05043 0.0
C549 C 0.39109 0.32852 0.13365 0.0
Fe550 Fe 0.46565 0.58897 0.90273 0.0
Fe551 Fe 0.42426 0.59969 0.86791 0.0
O552 O 0.44376 0.60131 0.91407 0.0
Fe553 Fe 0.44162 0.61594 0.9714 0.0
O554 O 0.46143 0.63161 0.95027 0.0
O555 O 0.48104 0.60735 0.93362 0.0
O556 O 0.46906 0.60181 0.84134 0.0
C557 C 0.45761 0.60171 0.80242 0.0
C558 C 0.46438 0.58437 0.009 0.0
O559 O 0.43988 0.59756 0.80841 0.0
C560 C 0.40638 0.59884 0.97084 0.0
O561 O 0.4543 0.56853 0.86845 0.0
O562 O 0.42289 0.57332 0.87335 0.0
O563 O 0.45787 0.60141 0.01225 0.0
O564 O 0.46395 0.57558 0.96488 0.0
C565 C 0.42333 0.63836 0.89334 0.0
O566 O 0.40533 0.60163 0.92062 0.0
O567 O 0.42216 0.60103 0.9952 0.0
C568 C 0.43714 0.5624 0.86298 0.0
O569 O 0.42458 0.6258 0.85703 0.0
O570 O 0.425 0.63345 0.94158 0.0
C571 C 0.47823 0.62516 0.94189 0.0
Fe572 Fe 0.13627 0.69219 0.69345 0.0
Fe573 Fe 0.16955 0.70692 0.62435 0.0
O574 O 0.15356 0.68812 0.64306 0.0
Fe575 Fe 0.15482 0.6652 0.61136 0.0
O576 O 0.12885 0.65969 0.61874 0.0
O577 O 0.11649 0.68684 0.64845 0.0
O578 O 0.13253 0.71781 0.67777 0.0
C579 C 0.13626 0.72765 0.63657 0.0
C580 C 0.15002 0.65466 0.7155 0.0
O581 O 0.14966 0.7227 0.60533 0.0
C582 C 0.19447 0.677 0.61605 0.0
O583 O 0.15488 0.69778 0.74152 0.0
O584 O 0.17086 0.71803 0.69095 0.0
O585 O 0.16049 0.65316 0.67436 0.0
O586 O 0.13698 0.66741 0.71877 0.0
C587 C 0.15942 0.68948 0.52665 0.0
O588 O 0.19054 0.69237 0.64111 0.0
O589 O 0.18094 0.66655 0.59775 0.0
C590 C 0.1662 0.71192 0.73677 0.0
O591 O 0.17081 0.69947 0.55473 0.0
O592 O 0.14927 0.67609 0.54664 0.0
C593 C 0.11442 0.6707 0.6259 0.0
Fe594 Fe 0.05083 0.38802 0.44837 0.0
Fe595 Fe 0.03909 0.42156 0.37514 0.0
O596 O 0.05621 0.4039 0.39523 0.0
Fe597 Fe 0.07875 0.40214 0.36199 0.0
O598 O 0.08148 0.37602 0.37219 0.0
O599 O 0.05393 0.36674 0.40701 0.0
O600 O 0.02487 0.38632 0.43329 0.0
C601 C 0.01532 0.39046 0.39174 0.0
C602 C 0.08986 0.39834 0.46622 0.0
O603 O 0.02129 0.40311 0.35942 0.0
C604 C 0.07126 0.44296 0.361 0.0
O605 O 0.0474 0.40812 0.49322 0.0
O606 O 0.02837 0.42492 0.44168 0.0
O607 O 0.09209 0.40754 0.42305 0.0
O608 O 0.07572 0.38698 0.47291 0.0
C609 C 0.05425 0.40766 0.27847 0.0
O610 O 0.05594 0.44129 0.38826 0.0
O611 O 0.07997 0.42794 0.34466 0.0
C612 C 0.03359 0.41976 0.48792 0.0
O613 O 0.04608 0.42084 0.30503 0.0
O614 O 0.06663 0.39655 0.29925 0.0
C615 C 0.06904 0.36298 0.38108 0.0
Fe616 Fe 0.33533 0.70691 0.37296 0.0
Fe617 Fe 0.3499 0.665 0.38113 0.0
O618 O 0.35123 0.68836 0.35191 0.0
Fe619 Fe 0.36834 0.69302 0.30144 0.0
O620 O 0.37251 0.71838 0.32032 0.0
O621 O 0.35521 0.72247 0.39291 0.0
O622 O 0.33436 0.69848 0.44189 0.0
C623 C 0.34582 0.68802 0.46851 0.0
C624 C 0.33843 0.71372 0.26134 0.0
O625 O 0.35592 0.67496 0.44663 0.0
C626 C 0.35368 0.65614 0.27533 0.0
O627 O 0.31433 0.6926 0.35497 0.0
O628 O 0.32384 0.66638 0.39622 0.0
O629 O 0.34961 0.69959 0.25478 0.0
O630 O 0.33378 0.71903 0.30785 0.0
C631 C 0.39033 0.67012 0.36517 0.0
O632 O 0.34373 0.65393 0.31722 0.0
O633 O 0.36696 0.6687 0.27293 0.0
C634 C 0.31031 0.67712 0.37925 0.0
O635 O 0.37576 0.65926 0.37191 0.0
O636 O 0.38834 0.68664 0.34476 0.0
C637 C 0.36848 0.72797 0.3619 0.0
Fe638 Fe 0.05766 0.62069 0.05542 0.0
Fe639 Fe 0.04429 0.58614 0.12362 0.0
O640 O 0.06205 0.60363 0.1066 0.0
Fe641 Fe 0.08433 0.60418 0.14176 0.0
O642 O 0.08851 0.63025 0.13397 0.0
O643 O 0.06148 0.64098 0.09991 0.0
O644 O 0.03187 0.62339 0.06988 0.0
C645 C 0.02166 0.61842 0.10939 0.0
C646 C 0.09631 0.60862 0.03865 0.0
O647 O 0.0266 0.60462 0.13931 0.0
C648 C 0.07556 0.56369 0.13937 0.0
O649 O 0.05317 0.60193 0.00677 0.0
O650 O 0.03437 0.58376 0.056 0.0
O651 O 0.09784 0.59881 0.08106 0.0
O652 O 0.0828 0.62078 0.03223 0.0
C653 C 0.05858 0.59888 0.22254 0.0
O654 O 0.06081 0.56613 0.11031 0.0
O655 O 0.08445 0.57828 0.1576 0.0
C656 C 0.03964 0.58985 0.01069 0.0
O657 O 0.05049 0.58606 0.19442 0.0
O658 O 0.07168 0.60968 0.20384 0.0
C659 C 0.07664 0.64386 0.12637 0.0
Fe660 Fe 0.13661 0.31067 0.80478 0.0
Fe661 Fe 0.17113 0.2973 0.87175 0.0
O662 O 0.15428 0.31556 0.85388 0.0
Fe663 Fe 0.15539 0.33876 0.88456 0.0
O664 O 0.12906 0.34346 0.88056 0.0
O665 O 0.11706 0.31627 0.8497 0.0
O666 O 0.13326 0.28526 0.82368 0.0
C667 C 0.13798 0.27574 0.86482 0.0
C668 C 0.14898 0.34859 0.78 0.0
O669 O 0.15208 0.28096 0.8935 0.0
C670 C 0.19535 0.32781 0.87622 0.0
O671 O 0.1548 0.30481 0.7558 0.0
O672 O 0.17184 0.28557 0.8063 0.0
O673 O 0.15953 0.35079 0.82074 0.0
O674 O 0.13673 0.33508 0.77712 0.0
C675 C 0.16292 0.31577 0.97005 0.0
O676 O 0.19131 0.31237 0.85165 0.0
O677 O 0.18184 0.33827 0.89473 0.0
C678 C 0.16644 0.29098 0.76061 0.0
O679 O 0.17336 0.30528 0.94062 0.0
O680 O 0.15152 0.32824 0.95057 0.0
C681 C 0.11474 0.33238 0.87207 0.0
Fe682 Fe 0.46118 0.41948 0.61813 0.0
Fe683 Fe 0.41954 0.40456 0.63089 0.0
O684 O 0.44226 0.40379 0.59776 0.0
Fe685 Fe 0.44612 0.38744 0.54458 0.0
O686 O 0.47169 0.38295 0.56043 0.0
O687 O 0.47693 0.39924 0.63447 0.0
O688 O 0.45393 0.41983 0.68796 0.0
C689 C 0.44448 0.40764 0.71471 0.0
C690 C 0.46684 0.41726 0.50557 0.0
O691 O 0.43094 0.39792 0.69407 0.0
C692 C 0.40828 0.40163 0.52618 0.0
O693 O 0.44661 0.44076 0.60397 0.0
O694 O 0.42099 0.43061 0.64734 0.0
O695 O 0.45211 0.40686 0.49943 0.0
O696 O 0.47243 0.42165 0.55203 0.0
C697 C 0.42447 0.36438 0.60949 0.0
O698 O 0.4068 0.411 0.56941 0.0
O699 O 0.42145 0.38919 0.51935 0.0
C700 C 0.43136 0.44441 0.62996 0.0
O701 O 0.41395 0.37876 0.62124 0.0
O702 O 0.44027 0.36665 0.58531 0.0
C703 C 0.48176 0.38628 0.60161 0.0
H704 H 0.19608 0.30879 0.02399 0.0
H705 H 0.13443 0.24562 0.21443 0.0
H706 H 0.13459 0.3149 0.04602 0.0
H707 H 0.19688 0.24464 0.22153 0.0
H708 H 0.13553 0.27504 0.16482 0.0
H709 H 0.19818 0.29113 0.10803 0.0
C710 C 0.1831 0.307 0.04771 0.0
C711 C 0.165 0.31275 0.02764 0.0
C712 C 0.1491 0.26859 0.177 0.0
C713 C 0.16729 0.29234 0.12288 0.0
C714 C 0.14856 0.25144 0.20501 0.0
C715 C 0.1657 0.24219 0.22135 0.0
C716 C 0.16692 0.27649 0.16256 0.0
C717 C 0.18335 0.25107 0.20899 0.0
C718 C 0.18433 0.29686 0.09554 0.0
C719 C 0.14874 0.31047 0.05987 0.0
N720 N 0.18354 0.26758 0.17909 0.0
N721 N 0.1502 0.29997 0.10542 0.0
H722 H 0.04315 0.90172 0.40837 0.0
H723 H 0.96481 0.87706 0.25917 0.0
H724 H 0.00379 0.9331 0.51045 0.0
H725 H 0.94516 0.93456 0.29665 0.0
H726 H 0.98724 0.87868 0.33483 0.0
H727 H 0.01695 0.89667 0.34508 0.0
C728 C 0.02908 0.90781 0.41727 0.0
C729 C 0.02566 0.91767 0.46532 0.0
C730 C 0.97768 0.89076 0.32717 0.0
C731 C 0.99545 0.91136 0.39346 0.0
C732 C 0.96457 0.88962 0.28501 0.0
C733 C 0.95313 0.90564 0.27229 0.0
C734 C 0.97927 0.90806 0.35631 0.0
C735 C 0.9537 0.92187 0.30584 0.0
C736 C 0.01404 0.90454 0.38155 0.0
C737 C 0.00708 0.92532 0.47412 0.0
N738 N 0.96679 0.92279 0.34616 0.0
N739 N 0.99263 0.92202 0.43841 0.0
H740 H 0.37583 0.70435 0.52005 0.0
H741 H 0.31988 0.74596 0.76777 0.0
H742 H 0.31756 0.68397 0.54232 0.0
H743 H 0.34779 0.78091 0.64788 0.0
H744 H 0.32245 0.71779 0.70759 0.0
H745 H 0.37175 0.72583 0.59697 0.0
C746 C 0.36261 0.70356 0.54314 0.0
C747 C 0.34706 0.69238 0.52543 0.0
C748 C 0.3277 0.73176 0.69462 0.0
C749 C 0.34208 0.71714 0.61158 0.0
C750 C 0.3259 0.74787 0.72828 0.0
C751 C 0.33371 0.76576 0.71274 0.0
C752 C 0.33773 0.73371 0.64632 0.0
C753 C 0.34171 0.76735 0.66153 0.0
C754 C 0.36014 0.71606 0.58619 0.0
C755 C 0.32992 0.69233 0.55551 0.0
N756 N 0.34391 0.75146 0.63069 0.0
N757 N 0.3277 0.70485 0.59685 0.0
H758 H 0.51958 0.12574 0.7361 0.0
H759 H 0.49944 0.07092 0.00822 0.0
H760 H 0.55735 0.07974 0.78703 0.0
H761 H 0.45549 0.09671 0.90846 0.0
H762 H 0.52322 0.07651 0.93734 0.0
H763 H 0.49939 0.12021 0.81416 0.0
C764 C 0.52393 0.11487 0.76483 0.0
C765 C 0.54003 0.10311 0.75527 0.0
C766 C 0.5083 0.08068 0.93103 0.0
C767 C 0.51667 0.09619 0.84334 0.0
C768 C 0.49466 0.07733 0.97108 0.0
C769 C 0.47544 0.08359 0.96457 0.0
C770 C 0.50265 0.09054 0.88477 0.0
C771 C 0.47014 0.09184 0.91564 0.0
C772 C 0.51226 0.11149 0.80879 0.0
C773 C 0.54507 0.08915 0.79337 0.0
N774 N 0.48373 0.09535 0.87803 0.0
N775 N 0.5332 0.08583 0.8357 0.0
H776 H 0.18598 0.68263 0.44961 0.0
H777 H 0.16561 0.78732 0.35905 0.0
H778 H 0.13193 0.71131 0.48107 0.0
H779 H 0.18815 0.74956 0.23709 0.0
H780 H 0.16102 0.75941 0.41708 0.0
H781 H 0.19226 0.70561 0.37681 0.0
C782 C 0.17493 0.69305 0.43902 0.0
C783 C 0.15825 0.69496 0.47053 0.0
C784 C 0.16731 0.7573 0.37793 0.0
C785 C 0.16596 0.72182 0.39083 0.0
C786 C 0.17031 0.77323 0.3453 0.0
C787 C 0.17716 0.77072 0.29316 0.0
C788 C 0.17147 0.73876 0.35871 0.0
C789 C 0.18295 0.75211 0.27719 0.0
C790 C 0.1787 0.70633 0.39833 0.0
C791 C 0.14474 0.70916 0.45693 0.0
N792 N 0.17977 0.73667 0.30979 0.0
N793 N 0.14915 0.72245 0.41906 0.0
H794 H 0.5424 0.88183 0.73904 0.0
H795 H 0.50204 0.93515 0.48487 0.0
H796 H 0.56515 0.9385 0.70568 0.0
H797 H 0.46639 0.9088 0.60587 0.0
H798 H 0.52997 0.93288 0.54582 0.0
H799 H 0.52034 0.88526 0.66314 0.0
C800 C 0.54352 0.8945 0.71379 0.0
C801 C 0.55561 0.90984 0.728 0.0
C802 C 0.51589 0.92793 0.55891 0.0
C803 C 0.53017 0.91415 0.64306 0.0
C804 C 0.49992 0.92957 0.52479 0.0
C805 C 0.4819 0.92208 0.54042 0.0
C806 C 0.5137 0.91838 0.60787 0.0
C807 C 0.48004 0.91464 0.59219 0.0
C808 C 0.53069 0.89664 0.67135 0.0
C809 C 0.5561 0.9263 0.69523 0.0
N810 N 0.49583 0.91257 0.62356 0.0
N811 N 0.54327 0.92821 0.65448 0.0
H812 H 0.32206 0.31482 0.94869 0.0
H813 H 0.3552 0.21398 0.83628 0.0
H814 H 0.37633 0.28832 0.99032 0.0
H815 H 0.31658 0.25049 0.74564 0.0
H816 H 0.36049 0.24048 0.89844 0.0
H817 H 0.31882 0.2922 0.87399 0.0
C818 C 0.33377 0.30486 0.94022 0.0
C819 C 0.34966 0.30355 0.97472 0.0
C820 C 0.35082 0.24266 0.86498 0.0
C821 C 0.34546 0.27697 0.89233 0.0
C822 C 0.3475 0.22743 0.82992 0.0
C823 C 0.33551 0.23002 0.78529 0.0
C824 C 0.34187 0.26055 0.856 0.0
C825 C 0.32599 0.24785 0.77937 0.0
C826 C 0.33175 0.29175 0.89834 0.0
C827 C 0.3641 0.28998 0.96371 0.0
N828 N 0.32941 0.26249 0.81429 0.0
N829 N 0.36145 0.27687 0.92408 0.0
H830 H 0.94709 0.08063 0.20354 0.0
H831 H 0.05313 0.08451 0.08115 0.0
H832 H 0.99504 0.11306 0.26801 0.0
H833 H 0.00378 0.076 0.97826 0.0
H834 H 0.03142 0.08653 0.15734 0.0
H835 H 0.96681 0.07329 0.12408 0.0
C836 C 0.96154 0.08655 0.20041 0.0
C837 C 0.96957 0.0973 0.24242 0.0
C838 C 0.02535 0.08395 0.11815 0.0
C839 C 0.99212 0.08842 0.15381 0.0
C840 C 0.03775 0.08257 0.07482 0.0
C841 C 0.0302 0.08042 0.02336 0.0
C842 C 0.00529 0.08325 0.10995 0.0
C843 C 0.01015 0.07777 0.01739 0.0
C844 C 0.97281 0.08216 0.15561 0.0
C845 C 0.98839 0.10451 0.23679 0.0
N846 N 0.99826 0.07961 0.06026 0.0
N847 N 0.99909 0.09973 0.19372 0.0
H848 H 0.81432 0.75657 0.74556 0.0
H849 H 0.87592 0.71657 0.99127 0.0
H850 H 0.85467 0.79072 0.83741 0.0
H851 H 0.82103 0.69184 0.94759 0.0
H852 H 0.87292 0.73949 0.91725 0.0
H853 H 0.81957 0.72954 0.8071 0.0
C854 C 0.82397 0.75855 0.77917 0.0
C855 C 0.83403 0.77602 0.78623 0.0
C856 C 0.86179 0.72866 0.9229 0.0
C857 C 0.84066 0.74492 0.85515 0.0
C858 C 0.86376 0.7153 0.96423 0.0
C859 C 0.84884 0.70218 0.97475 0.0
C860 C 0.84481 0.72878 0.89209 0.0
C861 C 0.83296 0.70158 0.93998 0.0
C862 C 0.82713 0.74303 0.81378 0.0
C863 C 0.8465 0.77763 0.8303 0.0
N864 N 0.83122 0.71489 0.90045 0.0
N865 N 0.84962 0.76222 0.86263 0.0
H866 H 0.99886 0.0661 0.49416 0.0
H867 H 0.0406 0.128 0.73385 0.0
H868 H 0.96411 0.09691 0.60888 0.0
H869 H 0.06991 0.07595 0.68566 0.0
H870 H 0.01587 0.12187 0.66626 0.0
H871 H 0.02742 0.07168 0.55039 0.0
C872 C 0.99705 0.07323 0.5323 0.0
C873 C 0.9791 0.08112 0.54695 0.0
C874 C 0.02806 0.1121 0.66936 0.0
C875 C 0.01169 0.08854 0.60899 0.0
C876 C 0.04246 0.11592 0.70677 0.0
C877 C 0.05727 0.1025 0.71495 0.0
C878 C 0.02871 0.09485 0.63986 0.0
C879 C 0.05872 0.0867 0.67999 0.0
C880 C 0.01342 0.07681 0.56359 0.0
C881 C 0.9777 0.09062 0.59619 0.0
N882 N 0.04435 0.08305 0.64441 0.0
N883 N 0.99385 0.09449 0.62481 0.0
H884 H 0.68507 0.31261 0.45146 0.0
H885 H 0.64818 0.21452 0.33468 0.0
H886 H 0.62897 0.28935 0.48899 0.0
H887 H 0.68429 0.25136 0.23755 0.0
H888 H 0.64447 0.24081 0.39829 0.0
H889 H 0.6871 0.29069 0.37467 0.0
C890 C 0.6728 0.30352 0.44182 0.0
C891 C 0.65666 0.30294 0.47559 0.0
C892 C 0.65324 0.24311 0.36308 0.0
C893 C 0.65941 0.27716 0.39076 0.0
C894 C 0.65566 0.228 0.3271 0.0
C895 C 0.66652 0.23072 0.28038 0.0
C896 C 0.66202 0.26099 0.35303 0.0
C897 C 0.67578 0.24861 0.27296 0.0
C898 C 0.67408 0.29085 0.39866 0.0
C899 C 0.64143 0.29046 0.46301 0.0
N900 N 0.67334 0.26312 0.309 0.0
N901 N 0.64335 0.2777 0.4222 0.0
H902 H 0.546 0.91979 0.0973 0.0
H903 H 0.44071 0.92132 0.21574 0.0
H904 H 0.49878 0.93248 0.9901 0.0
H905 H 0.48411 0.87896 0.25617 0.0
H906 H 0.46052 0.93122 0.13878 0.0
H907 H 0.52268 0.91335 0.16784 0.0
C908 C 0.53075 0.92176 0.08899 0.0
C909 C 0.52431 0.92629 0.0375 0.0
C910 C 0.46538 0.9195 0.16405 0.0
C911 C 0.49763 0.91862 0.1177 0.0
C912 C 0.45401 0.91362 0.20729 0.0
C913 C 0.46091 0.89937 0.24238 0.0
C914 C 0.48372 0.91122 0.15709 0.0
C915 C 0.47837 0.89011 0.2303 0.0
C916 C 0.51746 0.91783 0.12902 0.0
C917 C 0.50435 0.92887 0.0292 0.0
N918 N 0.48937 0.89646 0.18932 0.0
N919 N 0.49159 0.92469 0.06885 0.0
H920 H 0.83745 0.204 0.65262 0.0
H921 H 0.82825 0.30774 0.52791 0.0
H922 H 0.82577 0.25153 0.75965 0.0
H923 H 0.87166 0.26605 0.48267 0.0
H924 H 0.82144 0.2884 0.60837 0.0
H925 H 0.84146 0.227 0.58002 0.0
C926 C 0.83527 0.21924 0.66063 0.0
C927 C 0.83166 0.22588 0.71246 0.0
C928 C 0.83271 0.28383 0.58119 0.0
C929 C 0.83648 0.25222 0.62971 0.0
C930 C 0.83681 0.29494 0.53588 0.0
C931 C 0.85045 0.28833 0.49863 0.0
C932 C 0.84214 0.26605 0.58802 0.0
C933 C 0.86091 0.27151 0.5102 0.0
C934 C 0.83778 0.23235 0.61933 0.0
C935 C 0.82871 0.24582 0.72029 0.0
N936 N 0.85626 0.26075 0.55332 0.0
N937 N 0.83144 0.25842 0.67929 0.0
H938 H 0.53959 0.09039 0.38963 0.0
H939 H 0.43517 0.06538 0.29936 0.0
H940 H 0.50259 0.06536 0.50947 0.0
H941 H 0.46239 0.11995 0.26513 0.0
H942 H 0.45882 0.05984 0.37102 0.0
H943 H 0.51179 0.0933 0.33022 0.0
C944 C 0.52575 0.08471 0.40249 0.0
C945 C 0.52333 0.07772 0.45448 0.0
C946 C 0.45911 0.07332 0.34906 0.0
C947 C 0.49148 0.08158 0.38763 0.0
C948 C 0.44544 0.07668 0.30907 0.0
C949 C 0.44673 0.09331 0.27718 0.0
C950 C 0.47436 0.08643 0.35543 0.0
C951 C 0.46073 0.10716 0.28963 0.0
C952 C 0.50986 0.0868 0.36915 0.0
C953 C 0.50505 0.0707 0.46948 0.0
N954 N 0.47439 0.10317 0.32685 0.0
N955 N 0.48962 0.07305 0.43631 0.0
H956 H 0.6242 0.71831 0.02113 0.0
H957 H 0.6898 0.76068 0.25541 0.0
H958 H 0.68035 0.69486 0.05751 0.0
H959 H 0.6466 0.79355 0.1701 0.0
H960 H 0.68425 0.73356 0.19451 0.0
H961 H 0.62835 0.74191 0.09314 0.0
C962 C 0.63695 0.71751 0.0462 0.0
C963 C 0.65185 0.70456 0.03422 0.0
C964 C 0.67615 0.74681 0.18903 0.0
C965 C 0.65713 0.73188 0.11434 0.0
C966 C 0.67948 0.76238 0.22324 0.0
C967 C 0.66861 0.77944 0.21813 0.0
C968 C 0.6617 0.74824 0.14999 0.0
C969 C 0.65535 0.78074 0.17577 0.0
C970 C 0.63954 0.73124 0.08631 0.0
C971 C 0.66844 0.7045 0.06636 0.0
N972 N 0.65208 0.76525 0.14386 0.0
N973 N 0.67077 0.71815 0.10471 0.0
H974 H 0.07062 0.92584 0.80183 0.0
H975 H 0.96618 0.90424 0.90746 0.0
H976 H 0.0378 0.87595 0.75356 0.0
H977 H 0.00735 0.9329 0.01026 0.0
H978 H 0.99207 0.89747 0.84459 0.0
H979 H 0.04862 0.93038 0.87752 0.0
C980 C 0.05938 0.91525 0.80893 0.0
C981 C 0.05615 0.90029 0.77224 0.0
C982 C 0.99542 0.9053 0.88085 0.0
C983 C 0.03032 0.90613 0.8559 0.0
C984 C 0.98058 0.90947 0.91647 0.0
C985 C 0.98456 0.91903 0.96468 0.0
C986 C 0.01438 0.91099 0.8928 0.0
C987 C 0.00358 0.92548 0.9737 0.0
C988 C 0.04664 0.91805 0.85144 0.0
C989 C 0.04096 0.8874 0.78173 0.0
N990 N 0.01784 0.92129 0.93811 0.0
N991 N 0.0283 0.89088 0.82196 0.0
H992 H 0.68525 0.74709 0.75694 0.0
H993 H 0.62442 0.78968 0.51313 0.0
H994 H 0.64017 0.71576 0.67461 0.0
H995 H 0.68112 0.81076 0.55404 0.0
H996 H 0.62651 0.76645 0.58678 0.0
H997 H 0.6819 0.77332 0.69216 0.0
C998 C 0.67494 0.74553 0.72469 0.0
C999 C 0.66293 0.7292 0.72142 0.0
C1000 C 0.63829 0.7765 0.58044 0.0
C1001 C 0.65858 0.75941 0.64863 0.0
C1002 C 0.63689 0.79001 0.53932 0.0
C1003 C 0.65251 0.8022 0.52841 0.0
C1004 C 0.65541 0.77536 0.61055 0.0
C1005 C 0.6687 0.80168 0.56202 0.0
C1006 C 0.67288 0.7606 0.68818 0.0
C1007 C 0.64976 0.72803 0.67885 0.0
N1008 N 0.66983 0.78831 0.60143 0.0
N1009 N 0.64776 0.74306 0.64456 0.0
H1010 H 0.43848 0.43203 0.79732 0.0
H1011 H 0.54091 0.40254 0.90505 0.0
H1012 H 0.46686 0.37904 0.75288 0.0
H1013 H 0.50275 0.43717 0.00244 0.0
H1014 H 0.51442 0.39691 0.8431 0.0
H1015 H 0.46104 0.43554 0.87221 0.0
C1016 C 0.44883 0.42062 0.8052 0.0
C1017 C 0.45066 0.40502 0.76987 0.0
C1018 C 0.51187 0.40578 0.87798 0.0
C1019 C 0.47718 0.4096 0.85245 0.0
C1020 C 0.52709 0.40931 0.91298 0.0
C1021 C 0.52407 0.42027 0.9594 0.0
C1022 C 0.49354 0.41351 0.88878 0.0
C1023 C 0.50574 0.4286 0.96727 0.0
C1024 C 0.46191 0.42281 0.8472 0.0
C1025 C 0.46477 0.39102 0.78012 0.0
N1026 N 0.49112 0.42503 0.93232 0.0
N1027 N 0.47781 0.39386 0.81982 0.0
H1028 H 0.82121 0.17859 0.04209 0.0
H1029 H 0.83712 0.28336 0.13366 0.0
H1030 H 0.87413 0.2094 0.01162 0.0
H1031 H 0.81798 0.24478 0.25796 0.0
H1032 H 0.84239 0.25558 0.0755 0.0
H1033 H 0.81434 0.20067 0.11655 0.0
C1034 C 0.83196 0.18924 0.0533 0.0
C1035 C 0.84837 0.19215 0.0213 0.0
C1036 C 0.83666 0.25326 0.11519 0.0
C1037 C 0.83999 0.21793 0.103 0.0
C1038 C 0.83323 0.26909 0.14787 0.0
C1039 C 0.82721 0.26632 0.20063 0.0
C1040 C 0.83375 0.23458 0.13511 0.0
C1041 C 0.82252 0.24749 0.21733 0.0
C1042 C 0.82783 0.20202 0.09494 0.0
C1043 C 0.8615 0.20656 0.03592 0.0
N1044 N 0.82614 0.23215 0.18472 0.0
N1045 N 0.85672 0.21936 0.07469 0.0
H1046 H 0.96116 0.60792 0.41372 0.0
H1047 H 0.06236 0.57345 0.30355 0.0
H1048 H 0.99645 0.56718 0.50086 0.0
H1049 H 0.03615 0.62764 0.25993 0.0
H1050 H 0.03893 0.57007 0.37607 0.0
H1051 H 0.98774 0.61288 0.35161 0.0
C1052 C 0.97434 0.59969 0.41926 0.0
C1053 C 0.97659 0.5872 0.46296 0.0
C1054 C 0.03867 0.58299 0.35173 0.0
C1055 C 0.00723 0.5932 0.39245 0.0
C1056 C 0.05223 0.58508 0.31107 0.0
C1057 C 0.0513 0.60102 0.27673 0.0
C1058 C 0.02383 0.59669 0.35672 0.0
C1059 C 0.03753 0.61538 0.28653 0.0
C1060 C 0.98963 0.60281 0.38425 0.0
C1061 C 0.99407 0.57699 0.46789 0.0
N1062 N 0.02401 0.61269 0.32505 0.0
N1063 N 0.00878 0.58028 0.43317 0.0
H1064 H 0.68652 0.2522 0.74393 0.0
H1065 H 0.62402 0.21383 0.98975 0.0
H1066 H 0.64607 0.28693 0.83368 0.0
H1067 H 0.67837 0.18794 0.9463 0.0
H1068 H 0.62723 0.23631 0.91488 0.0
H1069 H 0.68067 0.22533 0.80555 0.0
C1070 C 0.6767 0.25432 0.77706 0.0
C1071 C 0.6668 0.27191 0.78355 0.0
C1072 C 0.63817 0.22532 0.92071 0.0
C1073 C 0.65951 0.24101 0.85257 0.0
C1074 C 0.63608 0.2122 0.96254 0.0
C1075 C 0.6508 0.1989 0.97337 0.0
C1076 C 0.6551 0.22503 0.88977 0.0
C1077 C 0.66657 0.19782 0.93836 0.0
C1078 C 0.67321 0.2389 0.81173 0.0
C1079 C 0.65411 0.27372 0.82702 0.0
N1080 N 0.66847 0.21094 0.8984 0.0
N1081 N 0.65069 0.25841 0.85944 0.0
H1082 H 0.99822 0.43587 0.9793 0.0
H1083 H 0.06057 0.43361 0.20033 0.0
H1084 H 0.96199 0.40178 0.08347 0.0
H1085 H 0.03268 0.37939 0.23458 0.0
H1086 H 0.0396 0.43777 0.123 0.0
H1087 H 0.02486 0.4321 0.04215 0.0
C1088 C 0.99568 0.42805 0.01607 0.0
C1089 C 0.9778 0.41911 0.026 0.0
C1090 C 0.03858 0.42454 0.14582 0.0
C1091 C 0.0083 0.4146 0.09777 0.0
C1092 C 0.0507 0.42208 0.18962 0.0
C1093 C 0.04852 0.40595 0.22281 0.0
C1094 C 0.02399 0.41089 0.13611 0.0
C1095 C 0.03504 0.39177 0.20895 0.0
C1096 C 0.01097 0.42582 0.05179 0.0
C1097 C 0.97546 0.40898 0.07406 0.0
N1098 N 0.02293 0.39478 0.16717 0.0
N1099 N 0.99063 0.40679 0.10778 0.0
H1100 H 0.81819 0.75384 0.24025 0.0
H1101 H 0.87798 0.78874 0.49469 0.0
H1102 H 0.85484 0.71688 0.33561 0.0
H1103 H 0.82406 0.81556 0.45112 0.0
H1104 H 0.87473 0.76681 0.41845 0.0
H1105 H 0.82343 0.77999 0.30479 0.0
C1106 C 0.82701 0.75107 0.27511 0.0
C1107 C 0.83614 0.7331 0.28227 0.0
C1108 C 0.86389 0.77788 0.42469 0.0
C1109 C 0.84278 0.76314 0.35454 0.0
C1110 C 0.86599 0.79064 0.46734 0.0
C1111 C 0.85141 0.80406 0.47832 0.0
C1112 C 0.84711 0.77867 0.3931 0.0
C1113 C 0.83573 0.80554 0.44309 0.0
C1114 C 0.83018 0.76608 0.31145 0.0
C1115 C 0.84753 0.73045 0.32813 0.0
N1116 N 0.83384 0.7928 0.40219 0.0
N1117 N 0.85072 0.74537 0.36205 0.0
H1118 H 0.55224 0.59571 0.59275 0.0
H1119 H 0.44692 0.58136 0.71312 0.0
H1120 H 0.50549 0.57437 0.49473 0.0
H1121 H 0.48939 0.62157 0.77313 0.0
H1122 H 0.46784 0.57521 0.63558 0.0
H1123 H 0.52973 0.59937 0.66654 0.0
C1124 C 0.53731 0.59143 0.58706 0.0
C1125 C 0.53066 0.58507 0.53728 0.0
C1126 C 0.47234 0.58559 0.66544 0.0
C1127 C 0.50475 0.58962 0.62118 0.0
C1128 C 0.46033 0.58932 0.70909 0.0
C1129 C 0.46657 0.60191 0.74945 0.0
C1130 C 0.49062 0.5944 0.66304 0.0
C1131 C 0.48417 0.61163 0.743 0.0
C1132 C 0.52442 0.59374 0.62898 0.0
C1133 C 0.51119 0.57948 0.5324 0.0
N1134 N 0.4957 0.60747 0.70103 0.0
N1135 N 0.49879 0.58212 0.57378 0.0
H1136 H 0.31347 0.25598 0.24437 0.0
H1137 H 0.3742 0.21097 0.48421 0.0
H1138 H 0.35795 0.28649 0.3314 0.0
H1139 H 0.31529 0.1939 0.45427 0.0
H1140 H 0.37237 0.23331 0.40849 0.0
H1141 H 0.31656 0.22898 0.30721 0.0
C1142 C 0.3236 0.25717 0.27716 0.0
C1143 C 0.33544 0.27355 0.28261 0.0
C1144 C 0.36004 0.22424 0.41758 0.0
C1145 C 0.33959 0.2425 0.35266 0.0
C1146 C 0.36125 0.21123 0.45988 0.0
C1147 C 0.34494 0.20056 0.47466 0.0
C1148 C 0.34245 0.22638 0.39015 0.0
C1149 C 0.32821 0.20181 0.44329 0.0
C1150 C 0.3255 0.24169 0.31247 0.0
C1151 C 0.34844 0.27424 0.32563 0.0
N1152 N 0.32728 0.21472 0.40265 0.0
N1153 N 0.35033 0.25882 0.35857 0.0
H1154 H 0.54524 0.62286 0.22944 0.0
H1155 H 0.49765 0.56284 0.99623 0.0
H1156 H 0.56507 0.5645 0.20517 0.0
H1157 H 0.46553 0.5961 0.11184 0.0
H1158 H 0.52659 0.56591 0.0529 0.0
H1159 H 0.52129 0.61816 0.15855 0.0
C1160 C 0.54529 0.60947 0.20702 0.0
C1161 C 0.55713 0.5941 0.22256 0.0
C1162 C 0.51306 0.57223 0.06585 0.0
C1163 C 0.52954 0.58838 0.14349 0.0
C1164 C 0.49647 0.57018 0.03424 0.0
C1165 C 0.47916 0.57937 0.04921 0.0
C1166 C 0.51224 0.58385 0.11164 0.0
C1167 C 0.4786 0.58894 0.09854 0.0
C1168 C 0.53137 0.60662 0.16757 0.0
C1169 C 0.55623 0.57673 0.19357 0.0
N1170 N 0.49499 0.59133 0.12733 0.0
N1171 N 0.54238 0.57418 0.15572 0.0
H1172 H 0.15748 0.70398 0.84045 0.0
H1173 H 0.17603 0.80788 0.96172 0.0
H1174 H 0.17975 0.74934 0.73925 0.0
H1175 H 0.13084 0.76924 0.0134 0.0
H1176 H 0.18112 0.78724 0.8828 0.0
H1177 H 0.1535 0.72743 0.91188 0.0
C1178 C 0.16188 0.7188 0.83349 0.0
C1179 C 0.16867 0.72474 0.78345 0.0
C1180 C 0.16984 0.7836 0.91098 0.0
C1181 C 0.16385 0.75173 0.865 0.0
C1182 C 0.16673 0.79549 0.95541 0.0
C1183 C 0.15305 0.79013 0.994 0.0
C1184 C 0.15935 0.76629 0.90618 0.0
C1185 C 0.14162 0.77376 0.98467 0.0
C1186 C 0.15938 0.73223 0.87411 0.0
C1187 C 0.17434 0.74415 0.77712 0.0
N1188 N 0.14526 0.76224 0.94224 0.0
N1189 N 0.17165 0.75706 0.8174 0.0
H1190 H 0.99829 0.43814 0.48866 0.0
H1191 H 0.96273 0.37471 0.73505 0.0
H1192 H 0.03525 0.40178 0.58486 0.0
H1193 H 0.93433 0.42796 0.69308 0.0
H1194 H 0.98502 0.37924 0.6603 0.0
H1195 H 0.97151 0.43134 0.54991 0.0
C1196 C 1.00093 0.42908 0.52313 0.0
C1197 C 0.01909 0.42043 0.5313 0.0
C1198 C 0.97351 0.38962 0.66642 0.0
C1199 C 0.98835 0.41201 0.59972 0.0
C1200 C 0.96051 0.38677 0.70814 0.0
C1201 C 0.94662 0.40086 0.71945 0.0
C1202 C 0.97246 0.40667 0.63609 0.0
C1203 C 0.94474 0.41665 0.68477 0.0
C1204 C 0.98556 0.42501 0.55752 0.0
C1205 C 0.02156 0.40873 0.5766 0.0
N1206 N 0.95776 0.41933 0.64491 0.0
N1207 N 0.0063 0.40465 0.60858 0.0
H1208 H 0.32374 0.75078 0.26296 0.0
H1209 H 0.38113 0.775 -0.00063 0.0
H1210 H 0.34929 0.7083 0.15804 0.0
H1211 H 0.32985 0.80803 0.03487 0.0
H1212 H 0.3753 0.7553 0.07835 0.0
H1213 H 0.32903 0.77554 0.19415 0.0
C1214 C 0.33003 0.74654 0.22518 0.0
C1215 C 0.33635 0.72745 0.21658 0.0
C1216 C 0.36555 0.76714 0.06951 0.0
C1217 C 0.34302 0.75571 0.13953 0.0
C1218 C 0.36904 0.77855 0.02509 0.0
C1219 C 0.35589 0.79301 0.01076 0.0
C1220 C 0.34877 0.7702 0.09967 0.0
C1221 C 0.34036 0.79703 0.04506 0.0
C1222 C 0.3332 0.76071 0.18638 0.0
C1223 C 0.34443 0.72283 0.16689 0.0
N1224 N 0.33698 0.78538 0.08784 0.0
N1225 N 0.34785 0.73692 0.13072 0.0
H1226 H 0.96203 0.62567 0.7627 0.0
H1227 H 0.00916 0.56467 0.00018 0.0
H1228 H 0.94531 0.56693 0.79579 0.0
H1229 H 0.03786 0.61194 0.92031 0.0
H1230 H 0.9825 0.56725 0.93612 0.0
H1231 H 0.98559 0.62398 0.83582 0.0
C1232 C 0.9627 0.61276 0.78708 0.0
C1233 C 0.95158 0.59653 0.77408 0.0
C1234 C 0.99474 0.57692 0.93252 0.0
C1235 C 0.97886 0.59417 0.85582 0.0
C1236 C 0.01006 0.57533 0.96865 0.0
C1237 C 0.02585 0.58806 0.96567 0.0
C1238 C 0.99507 0.59156 0.89377 0.0
C1239 C 0.0261 0.60171 0.92415 0.0
C1240 C 0.97641 0.61163 0.82791 0.0
C1241 C 0.95347 0.57983 0.80541 0.0
N1242 N 0.01084 0.60325 0.89029 0.0
N1243 N 0.96698 0.57901 0.84467 0.0
H1244 H 0.1873 0.25712 0.7563 0.0
H1245 H 0.12601 0.22264 0.50715 0.0
H1246 H 0.14963 0.29361 0.66256 0.0
H1247 H 0.18292 0.19889 0.53177 0.0
H1248 H 0.13029 0.24292 0.58589 0.0
H1249 H 0.18358 0.2315 0.68912 0.0
C1250 C 0.17857 0.2599 0.72126 0.0
C1251 C 0.16856 0.27749 0.7154 0.0
C1252 C 0.14167 0.23293 0.57484 0.0
C1253 C 0.16377 0.24815 0.64039 0.0
C1254 C 0.13909 0.22116 0.53065 0.0
C1255 C 0.15413 0.20919 0.51348 0.0
C1256 C 0.15948 0.23281 0.60157 0.0
C1257 C 0.17095 0.20787 0.5445 0.0
C1258 C 0.17634 0.24523 0.68343 0.0
C1259 C 0.15748 0.28029 0.66919 0.0
N1260 N 0.17338 0.21991 0.58693 0.0
N1261 N 0.15514 0.26566 0.63398 0.0
H1262 H 0.50111 0.43728 0.50192 0.0
H1263 H 0.53848 0.3768 0.25102 0.0
H1264 H 0.46588 0.39758 0.41102 0.0
H1265 H 0.56362 0.43152 0.29459 0.0
H1266 H 0.51631 0.37946 0.3269 0.0
H1267 H 0.52758 0.4321 0.43846 0.0
C1268 C 0.4988 0.42777 0.46819 0.0
C1269 C 0.48118 0.41791 0.46181 0.0
C1270 C 0.52708 0.39061 0.32078 0.0
C1271 C 0.51161 0.41137 0.39068 0.0
C1272 C 0.53999 0.38886 0.27832 0.0
C1273 C 0.55301 0.40381 0.26744 0.0
C1274 C 0.52731 0.40742 0.35226 0.0
C1275 C 0.55394 0.41956 0.30258 0.0
C1276 C 0.51397 0.42466 0.43246 0.0
C1277 C 0.47911 0.4056 0.41757 0.0
N1278 N 0.54107 0.42109 0.34324 0.0
N1279 N 0.4942 0.40253 0.3841 0.0
H1280 H 0.13737 0.11247 0.95606 0.0
H1281 H 0.16883 0.16591 0.16924 0.0
H1282 H 0.09113 0.09787 0.06365 0.0
H1283 H 0.13625 0.12751 0.27021 0.0
H1284 H 0.16152 0.14544 0.09292 0.0
H1285 H 0.15765 0.12103 0.03303 0.0
C1286 C 0.13176 0.11045 0.99599 0.0
C1287 C 0.11259 0.10453 0.00372 0.0
C1288 C 0.15657 0.14092 0.13185 0.0
C1289 C 0.13519 0.11516 0.0917 0.0
C1290 C 0.16071 0.15271 0.1756 0.0
C1291 C 0.15311 0.14843 0.22613 0.0
C1292 C 0.14438 0.12483 0.13837 0.0
C1293 C 0.14251 0.13128 0.23204 0.0
C1294 C 0.14317 0.1157 0.03995 0.0
C1295 C 0.10586 0.10243 0.05617 0.0
N1296 N 0.13803 0.12038 0.18842 0.0
N1297 N 0.11703 0.10796 0.09805 0.0
H1298 H 0.0918 0.911 0.42692 0.0
H1299 H 0.17758 0.84756 0.32302 0.0
H1300 H 0.13644 0.88895 0.52994 0.0
H1301 H 0.13841 0.87793 0.21895 0.0
H1302 H 0.16739 0.86819 0.39694 0.0
H1303 H 0.11247 0.90495 0.34972 0.0
C1304 C 0.1063 0.9055 0.43329 0.0
C1305 C 0.11253 0.90059 0.48473 0.0
C1306 C 0.16141 0.87079 0.35768 0.0
C1307 C 0.13601 0.89277 0.39634 0.0
C1308 C 0.16736 0.85911 0.3153 0.0
C1309 C 0.15877 0.86098 0.26481 0.0
C1310 C 0.14641 0.88419 0.34986 0.0
C1311 C 0.14549 0.87605 0.25712 0.0
C1312 C 0.11806 0.90192 0.38917 0.0
C1313 C 0.13124 0.89315 0.49091 0.0
N1314 N 0.13936 0.88675 0.29949 0.0
N1315 N 0.14218 0.88907 0.4471 0.0
H1316 H 0.40681 0.92067 0.57568 0.0
H1317 H 0.35751 0.87917 0.78051 0.0
H1318 H 0.37293 0.88554 0.46887 0.0
H1319 H 0.34011 0.83762 0.66151 0.0
H1320 H 0.36481 0.9022 0.70963 0.0
H1321 H 0.38571 0.91161 0.64864 0.0
C1322 C 0.39439 0.91162 0.56726 0.0
C1323 C 0.39176 0.90369 0.51625 0.0
C1324 C 0.35937 0.8881 0.69872 0.0
C1325 C 0.36739 0.89282 0.60032 0.0
C1326 C 0.35485 0.87502 0.7395 0.0
C1327 C 0.34873 0.85622 0.72694 0.0
C1328 C 0.358 0.88219 0.64503 0.0
C1329 C 0.3453 0.85179 0.67306 0.0
C1330 C 0.38223 0.90637 0.60922 0.0
C1331 C 0.3755 0.89199 0.50757 0.0
N1332 N 0.35034 0.86449 0.63421 0.0
N1333 N 0.36425 0.88651 0.54948 0.0
H1334 H 0.33653 0.16226 0.81404 0.0
H1335 H 0.40786 0.08469 0.93747 0.0
H1336 H 0.37064 0.12322 0.71922 0.0
H1337 H 0.3708 0.12115 0.03166 0.0
H1338 H 0.38954 0.09361 0.85754 0.0
H1339 H 0.34373 0.14288 0.89331 0.0
C1340 C 0.34496 0.14914 0.80974 0.0
C1341 C 0.35273 0.14408 0.76009 0.0
C1342 C 0.38497 0.09923 0.89581 0.0
C1343 C 0.36183 0.12227 0.85091 0.0
C1344 C 0.39529 0.09393 0.94152 0.0
C1345 C 0.39053 0.10188 0.99121 0.0
C1346 C 0.37006 0.11299 0.89967 0.0
C1347 C 0.37461 0.11438 0.99417 0.0
C1348 C 0.34924 0.13817 0.85505 0.0
C1349 C 0.36408 0.12734 0.75673 0.0
N1350 N 0.36513 0.11978 0.94893 0.0
N1351 N 0.36853 0.11719 0.80166 0.0
H1352 H 0.87427 0.89138 0.03083 0.0
H1353 H 0.87088 0.88383 0.71282 0.0
H1354 H 0.91834 0.91297 0.92533 0.0
H1355 H 0.83932 0.84652 0.81897 0.0
H1356 H 0.88032 0.90388 0.78944 0.0
H1357 H 0.85382 0.88421 0.95292 0.0
C1358 C 0.87927 0.89534 0.99139 0.0
C1359 C 0.89788 0.90289 0.98421 0.0
C1360 C 0.87078 0.89169 0.79573 0.0
C1361 C 0.87489 0.89448 0.89529 0.0
C1362 C 0.86519 0.88043 0.75194 0.0
C1363 C 0.85415 0.86369 0.75975 0.0
C1364 C 0.86529 0.88608 0.8475 0.0
C1365 C 0.84766 0.85948 0.81143 0.0
C1366 C 0.86772 0.89108 0.94696 0.0
C1367 C 0.90398 0.90727 0.93231 0.0
N1368 N 0.85351 0.87045 0.85347 0.0
N1369 N 0.89261 0.90285 0.88979 0.0
H1370 H 0.9041 0.08316 0.55126 0.0
H1371 H 0.83789 0.1642 0.67308 0.0
H1372 H 0.87734 0.12795 0.45764 0.0
H1373 H 0.86186 0.11732 0.76444 0.0
H1374 H 0.84502 0.14658 0.5909 0.0
H1375 H 0.88202 0.09035 0.62454 0.0
C1376 C 0.89304 0.09406 0.54551 0.0
C1377 C 0.89253 0.105 0.49841 0.0
C1378 C 0.84819 0.13979 0.62881 0.0
C1379 C 0.86767 0.11391 0.58307 0.0
C1380 C 0.84393 0.14978 0.67577 0.0
C1381 C 0.84912 0.14207 0.72546 0.0
C1382 C 0.85822 0.12216 0.63151 0.0
C1383 C 0.85737 0.12359 0.72688 0.0
C1384 C 0.88052 0.09828 0.58756 0.0
C1385 C 0.8781 0.11909 0.49315 0.0
N1386 N 0.86203 0.11443 0.68052 0.0
N1387 N 0.86653 0.12346 0.53549 0.0
H1388 H 0.64704 0.1185 0.21653 0.0
H1389 H 0.59507 0.08439 0.42677 0.0
H1390 H 0.65687 0.16658 0.32226 0.0
H1391 H 0.62797 0.12255 0.5278 0.0
H1392 H 0.6166 0.09172 0.35301 0.0
H1393 H 0.64045 0.09793 0.29424 0.0
C1394 C 0.64842 0.12452 0.25622 0.0
C1395 C 0.65226 0.14423 0.26324 0.0
C1396 C 0.61978 0.09794 0.39159 0.0
C1397 C 0.64383 0.12126 0.35196 0.0
C1398 C 0.60736 0.09376 0.43387 0.0
C1399 C 0.60967 0.10299 0.4833 0.0
C1400 C 0.63447 0.11176 0.39848 0.0
C1401 C 0.62572 0.11509 0.49035 0.0
C1402 C 0.64429 0.11291 0.30063 0.0
C1403 C 0.65375 0.15143 0.31536 0.0
N1404 N 0.63719 0.11955 0.44795 0.0
N1405 N 0.64925 0.14005 0.35761 0.0
H1406 H 0.63122 0.89116 0.97685 0.0
H1407 H 0.62887 0.88483 0.29526 0.0
H1408 H 0.58824 0.91841 0.07561 0.0
H1409 H 0.661 0.84627 0.19383 0.0
H1410 H 0.62141 0.905 0.21713 0.0
H1411 H 0.64964 0.88269 0.0574 0.0
C1412 C 0.62614 0.89611 0.01537 0.0
C1413 C 0.60838 0.90571 0.01979 0.0
C1414 C 0.63059 0.89245 0.21222 0.0
C1415 C 0.62892 0.8956 0.11197 0.0
C1416 C 0.63501 0.88109 0.25688 0.0
C1417 C 0.64574 0.86406 0.25082 0.0
C1418 C 0.63689 0.88662 0.16131 0.0
C1419 C 0.65287 0.85945 0.20004 0.0
C1420 C 0.63649 0.89107 0.06137 0.0
C1421 C 0.60204 0.91122 0.07069 0.0
N1422 N 0.64817 0.87054 0.15717 0.0
N1423 N 0.61217 0.90591 0.11482 0.0
H1424 H 0.59539 0.58621 0.55749 0.0
H1425 H 0.66302 0.66273 0.70472 0.0
H1426 H 0.63204 0.62681 0.47593 0.0
H1427 H 0.62244 0.62586 0.78565 0.0
H1428 H 0.65791 0.64421 0.62252 0.0
H1429 H 0.61118 0.59463 0.64189 0.0
C1430 C 0.60741 0.59625 0.55711 0.0
C1431 C 0.61277 0.6055 0.50964 0.0
C1432 C 0.65048 0.63979 0.6585 0.0
C1433 C 0.6303 0.61597 0.60633 0.0
C1434 C 0.65357 0.65024 0.70552 0.0
C1435 C 0.64339 0.64554 0.75205 0.0
C1436 C 0.63685 0.62471 0.65777 0.0
C1437 C 0.63081 0.62966 0.75074 0.0
C1438 C 0.61624 0.60129 0.6054 0.0
C1439 C 0.62785 0.61902 0.51154 0.0
N1440 N 0.62772 0.61995 0.70421 0.0
N1441 N 0.63592 0.62403 0.55916 0.0
H1442 H 0.66561 0.34029 0.81784 0.0
H1443 H 0.59456 0.41835 0.92802 0.0
H1444 H 0.63779 0.38221 0.7169 0.0
H1445 H 0.63236 0.38526 0.02928 0.0
H1446 H 0.6147 0.41005 0.85119 0.0
H1447 H 0.65861 0.36051 0.89549 0.0
C1448 C 0.65865 0.35416 0.81197 0.0
C1449 C 0.65244 0.35977 0.76111 0.0
C1450 C 0.61904 0.4051 0.89036 0.0
C1451 C 0.64352 0.38258 0.84987 0.0
C1452 C 0.60763 0.41 0.93428 0.0
C1453 C 0.61202 0.40268 0.98493 0.0
C1454 C 0.63458 0.39223 0.89696 0.0
C1455 C 0.62873 0.39144 0.9909 0.0
C1456 C 0.65452 0.36566 0.85631 0.0
C1457 C 0.64305 0.37758 0.75551 0.0
N1458 N 0.63919 0.38621 0.94722 0.0
N1459 N 0.63851 0.3882 0.79954 0.0
H1460 H 0.82893 0.34166 0.16273 0.0
H1461 H 0.91071 0.41113 0.06622 0.0
H1462 H 0.8642 0.37494 0.2707 0.0
H1463 H 0.8678 0.38763 0.96009 0.0
H1464 H 0.88999 0.40342 0.14217 0.0
H1465 H 0.83829 0.3632 0.09003 0.0
C1466 C 0.83814 0.35394 0.17147 0.0
C1467 C 0.8459 0.35643 0.22275 0.0
C1468 C 0.88474 0.40046 0.10231 0.0
C1469 C 0.85727 0.3808 0.13922 0.0
C1470 C 0.89654 0.405 0.05893 0.0
C1471 C 0.89083 0.40016 0.00698 0.0
C1472 C 0.86736 0.3904 0.09382 0.0
C1473 C 0.87256 0.39183 -0.00044 0.0
C1474 C 0.84358 0.36619 0.12983 0.0
C1475 C 0.85782 0.37251 0.23183 0.0
N1476 N 0.86164 0.38681 0.04263 0.0
N1477 N 0.86353 0.38379 0.19019 0.0
H1478 H 0.86595 0.62359 0.21958 0.0
H1479 H 0.87043 0.62376 0.53843 0.0
H1480 H 0.84026 0.66715 0.31956 0.0
H1481 H 0.90782 0.58983 0.43819 0.0
H1482 H 0.85135 0.63272 0.45956 0.0
H1483 H 0.87337 0.60438 0.29958 0.0
C1484 C 0.86114 0.62868 0.25822 0.0
C1485 C 0.85225 0.64679 0.26315 0.0
C1486 C 0.86336 0.62282 0.45498 0.0
C1487 C 0.86111 0.6253 0.35472 0.0
C1488 C 0.87406 0.61751 0.50011 0.0
C1489 C 0.89046 0.60579 0.49474 0.0
C1490 C 0.86924 0.61648 0.40416 0.0
C1491 C 0.89504 0.59864 0.44395 0.0
C1492 C 0.86558 0.61787 0.3039 0.0
C1493 C 0.8469 0.65311 0.3142 0.0
N1494 N 0.88463 0.60425 0.40054 0.0
N1495 N 0.85156 0.64248 0.358 0.0
H1496 H 0.33955 0.34065 0.31686 0.0
H1497 H 0.36955 0.39359 0.53229 0.0
H1498 H 0.36821 0.38237 0.21723 0.0
H1499 H 0.41434 0.41099 0.42325 0.0
H1500 H 0.34891 0.38519 0.45589 0.0
H1501 H 0.34638 0.36066 0.39474 0.0
C1502 C 0.34655 0.35452 0.31129 0.0
C1503 C 0.35307 0.36008 0.26071 0.0
C1504 C 0.36312 0.39115 0.44859 0.0
C1505 C 0.36146 0.38297 0.34982 0.0
C1506 C 0.37472 0.3963 0.49222 0.0
C1507 C 0.39361 0.40296 0.48379 0.0
C1508 C 0.37065 0.39254 0.3965 0.0
C1509 C 0.39982 0.40589 0.43121 0.0
C1510 C 0.35046 0.36601 0.35582 0.0
C1511 C 0.36265 0.37782 0.25556 0.0
N1512 N 0.38848 0.40046 0.38959 0.0
N1513 N 0.36696 0.38843 0.29978 0.0
H1514 H 0.34471 0.66668 0.17492 0.0
H1515 H 0.39978 0.57782 0.06039 0.0
H1516 H 0.35881 0.61688 0.27021 0.0
H1517 H 0.37458 0.62198 0.9613 0.0
H1518 H 0.37873 0.58771 0.13362 0.0
H1519 H 0.34931 0.64748 0.0942 0.0
C1520 C 0.34822 0.65147 0.17867 0.0
C1521 C 0.35137 0.64327 0.22901 0.0
C1522 C 0.37728 0.59487 0.09543 0.0
C1523 C 0.35743 0.62133 0.13683 0.0
C1524 C 0.38919 0.58908 0.05341 0.0
C1525 C 0.38899 0.59919 0.00488 0.0
C1526 C 0.36543 0.6112 0.08925 0.0
C1527 C 0.37515 0.61378 0.99802 0.0
C1528 C 0.35091 0.6405 0.13259 0.0
C1529 C 0.35612 0.62363 0.23198 0.0
N1530 N 0.36429 0.61971 0.04025 0.0
N1531 N 0.35943 0.6134 0.18641 0.0
H1532 H 0.09339 0.58872 0.94636 0.0
H1533 H 0.16914 0.65848 0.80889 0.0
H1534 H 0.13106 0.62704 0.03295 0.0
H1535 H 0.13117 0.62033 0.72274 0.0
H1536 H 0.16145 0.64125 0.89151 0.0
H1537 H 0.11267 0.59404 0.86583 0.0
C1538 C 0.10619 0.59772 0.94869 0.0
C1539 C 0.11087 0.60728 0.99618 0.0
C1540 C 0.15524 0.63619 0.85438 0.0
C1541 C 0.13254 0.61412 0.90395 0.0
C1542 C 0.15984 0.64589 0.80717 0.0
C1543 C 0.15102 0.64053 0.75909 0.0
C1544 C 0.14137 0.62134 0.85356 0.0
C1545 C 0.13853 0.6246 0.75901 0.0
C1546 C 0.11711 0.6009 0.90267 0.0
C1547 C 0.12723 0.61921 0.99709 0.0
N1548 N 0.13383 0.61575 0.80568 0.0
N1549 N 0.13732 0.62253 0.95141 0.0
H1550 H 0.13324 0.38462 0.78128 0.0
H1551 H 0.12749 0.3862 0.46258 0.0
H1552 H 0.16235 0.34382 0.67957 0.0
H1553 H 0.08465 0.41065 0.56727 0.0
H1554 H 0.14808 0.37943 0.54057 0.0
H1555 H 0.1235 0.4031 0.70199 0.0
C1556 C 0.13828 0.38007 0.74236 0.0
C1557 C 0.14877 0.36289 0.73666 0.0
C1558 C 0.13441 0.38679 0.54623 0.0
C1559 C 0.13732 0.38348 0.64609 0.0
C1560 C 0.12279 0.39079 0.50179 0.0
C1561 C 0.10448 0.39905 0.50884 0.0
C1562 C 0.12763 0.39122 0.59771 0.0
C1563 C 0.09876 0.40433 0.56043 0.0
C1564 C 0.13255 0.39045 0.69714 0.0
C1565 C 0.15445 0.35718 0.68537 0.0
N1566 N 0.11021 0.4002 0.60295 0.0
N1567 N 0.14849 0.36733 0.64195 0.0
H1568 H 0.27859 0.20738 0.61567 0.0
H1569 H 0.2087 0.15405 0.41058 0.0
H1570 H 0.29373 0.15066 0.55724 0.0
H1571 H 0.21845 0.2157 0.41332 0.0
H1572 H 0.23602 0.15002 0.47301 0.0
H1573 H 0.25103 0.20778 0.55496 0.0
C1574 C 0.27591 0.19477 0.59111 0.0
C1575 C 0.28871 0.17901 0.59157 0.0
C1576 C 0.23219 0.16436 0.4593 0.0
C1577 C 0.25707 0.17954 0.52108 0.0
C1578 C 0.21674 0.16667 0.42327 0.0
C1579 C 0.21109 0.18527 0.40656 0.0
C1580 C 0.24172 0.18077 0.47949 0.0
C1581 C 0.22203 0.20108 0.42508 0.0
C1582 C 0.26026 0.19514 0.55587 0.0
C1583 C 0.28434 0.16317 0.55821 0.0
N1584 N 0.23651 0.19848 0.46092 0.0
N1585 N 0.26895 0.16386 0.52412 0.0
H1586 H 0.09263 0.05829 0.74997 0.0
H1587 H 0.0916 0.94503 0.7355 0.0
H1588 H 0.06983 0.02549 0.88209 0.0
H1589 H 0.06769 0.97777 0.60466 0.0
H1590 H 0.09299 0.97453 0.78888 0.0
H1591 H 0.09286 0.02887 0.69573 0.0
C1592 C 0.08804 0.04483 0.76805 0.0
C1593 C 0.0813 0.04436 0.821 0.0
C1594 C 0.08762 0.97524 0.74833 0.0
C1595 C 0.08176 0.01066 0.75885 0.0
C1596 C 0.08697 0.95848 0.71748 0.0
C1597 C 0.0796 0.9589 0.66514 0.0
C1598 C 0.08143 0.99276 0.72641 0.0
C1599 C 0.07354 0.97679 0.6446 0.0
C1600 C 0.088 0.02814 0.73674 0.0
C1601 C 0.07524 0.0265 0.84169 0.0
N1602 N 0.07477 0.99309 0.67515 0.0
N1603 N 0.07579 0.0103 0.81071 0.0
H1604 H 0.22236 0.78759 0.1008 0.0
H1605 H 0.29645 0.84694 0.91957 0.0
H1606 H 0.2104 0.84719 0.06238 0.0
H1607 H 0.28915 0.78498 0.91681 0.0
H1608 H 0.26768 0.84939 0.97763 0.0
H1609 H 0.25069 0.78867 0.04386 0.0
C1610 C 0.22581 0.80105 0.08091 0.0
C1611 C 0.21376 0.81727 0.08635 0.0
C1612 C 0.27236 0.83533 0.96372 0.0
C1613 C 0.2465 0.81853 0.01967 0.0
C1614 C 0.28869 0.83391 0.93026 0.0
C1615 C 0.29542 0.8157 0.91322 0.0
C1616 C 0.26291 0.81841 0.98078 0.0
C1617 C 0.28478 0.79935 0.92897 0.0
C1618 C 0.24199 0.8016 0.0479 0.0
C1619 C 0.21926 0.83433 0.0596 0.0
N1620 N 0.26934 0.8011 0.96202 0.0
N1621 N 0.23518 0.8345 0.0271 0.0
H1622 H 0.45213 0.0259 0.12182 0.0
H1623 H 0.4028 0.95886 0.34413 0.0
H1624 H 0.39949 0.04326 0.20086 0.0
H1625 H 0.46348 0.95821 0.30363 0.0
H1626 H 0.39845 0.98667 0.28364 0.0
H1627 H 0.45293 0.99684 0.17678 0.0
C1628 C 0.4405 0.02347 0.1499 0.0
C1629 C 0.42581 0.03728 0.15679 0.0
C1630 C 0.41269 0.9804 0.28841 0.0
C1631 C 0.42682 0.00389 0.2208 0.0
C1632 C 0.41521 0.96461 0.32313 0.0
C1633 C 0.43356 0.95613 0.32953 0.0
C1634 C 0.42854 0.98747 0.25912 0.0
C1635 C 0.44905 0.96418 0.30065 0.0
C1636 C 0.44108 0.00691 0.18176 0.0
C1637 C 0.41116 0.03313 0.19417 0.0
N1638 N 0.44615 0.97917 0.26668 0.0
N1639 N 0.4121 0.01691 0.22503 0.0
H1640 H 0.80771 0.84193 0.51305 0.0
H1641 H 0.69394 0.84133 0.49751 0.0
H1642 H 0.77432 0.81814 0.64272 0.0
H1643 H 0.7278 0.82252 0.36262 0.0
H1644 H 0.72322 0.84173 0.5521 0.0
H1645 H 0.7784 0.84367 0.45895 0.0
C1646 C 0.79415 0.83741 0.5307 0.0
C1647 C 0.79351 0.82997 0.58295 0.0
C1648 C 0.72423 0.83773 0.51042 0.0
C1649 C 0.75983 0.83215 0.52072 0.0
C1650 C 0.70759 0.8377 0.47888 0.0
C1651 C 0.70838 0.83202 0.42497 0.0
C1652 C 0.74199 0.8326 0.48779 0.0
C1653 C 0.72651 0.8271 0.40374 0.0
C1654 C 0.77749 0.83826 0.4994 0.0
C1655 C 0.77549 0.82405 0.60289 0.0
N1656 N 0.74264 0.82766 0.4351 0.0
N1657 N 0.75931 0.82543 0.5719 0.0
H1658 H 0.94508 0.98197 0.10524 0.0
H1659 H 0.93919 0.025 0.39337 0.0
H1660 H 0.91598 0.9502 0.22976 0.0
H1661 H 0.92335 0.06155 0.26145 0.0
H1662 H 0.93651 0.99662 0.33429 0.0
H1663 H 0.94308 0.01131 0.16129 0.0
C1664 C 0.93809 0.98119 0.1438 0.0
C1665 C 0.93054 0.96358 0.16235 0.0
C1666 C 0.93338 0.01086 0.31858 0.0
C1667 C 0.92889 0.99673 0.22708 0.0
C1668 C 0.93475 0.02696 0.3523 0.0
C1669 C 0.93097 0.0455 0.33248 0.0
C1670 C 0.92905 0.01346 0.26424 0.0
C1671 C 0.92592 0.0474 0.27841 0.0
C1672 C 0.93697 0.99788 0.1757 0.0
C1673 C 0.92181 0.96342 0.21318 0.0
N1674 N 0.9254 0.03162 0.24589 0.0
N1675 N 0.92154 0.97958 0.24396 0.0
H1676 H 0.79345 0.14547 0.92923 0.0
H1677 H 0.71916 0.20854 0.09706 0.0
H1678 H 0.78298 0.20596 0.89865 0.0
H1679 H 0.7069 0.14853 0.06435 0.0
H1680 H 0.74725 0.20661 0.03828 0.0
H1681 H 0.76526 0.1451 0.98913 0.0
C1682 C 0.78507 0.15857 0.93427 0.0
C1683 C 0.7906 0.17573 0.90836 0.0
C1684 C 0.73852 0.19381 0.04442 0.0
C1685 C 0.75888 0.17555 0.97851 0.0
C1686 C 0.72259 0.19481 0.0786 0.0
C1687 C 0.71055 0.17866 0.08586 0.0
C1688 C 0.74276 0.17647 0.0178 0.0
C1689 C 0.71574 0.16134 0.06001 0.0
C1690 C 0.76908 0.15836 0.96872 0.0
C1691 C 0.77926 0.19232 0.91711 0.0
N1692 N 0.73145 0.16069 0.02716 0.0
N1693 N 0.76419 0.19187 0.95191 0.0
H1694 H 0.5657 0.02592 0.60595 0.0
H1695 H 0.56162 0.98512 0.89417 0.0
H1696 H 0.58289 0.06384 0.73371 0.0
H1697 H 0.59291 0.95336 0.77365 0.0
H1698 H 0.56325 0.01406 0.83669 0.0
H1699 H 0.56961 0.9981 0.66653 0.0
C1700 C 0.57066 0.02829 0.64641 0.0
C1701 C 0.57439 0.04703 0.66478 0.0
C1702 C 0.56995 1.00074 0.82355 0.0
C1703 C 0.57775 0.0157 0.73457 0.0
C1704 C 0.56906 0.98429 0.85625 0.0
C1705 C 0.57726 0.96679 0.83909 0.0
C1706 C 0.57845 0.99941 0.77277 0.0
C1707 C 0.58654 0.96652 0.78906 0.0
C1708 C 0.57275 0.01253 0.68093 0.0
C1709 C 0.5802 0.0495 0.71803 0.0
N1710 N 0.58655 0.98242 0.75734 0.0
N1711 N 0.5814 0.03405 0.75145 0.0
H1712 H 0.80533 0.66836 0.01335 0.0
H1713 H 0.69279 0.66718 0.99584 0.0
H1714 H 0.77236 0.69227 0.14377 0.0
H1715 H 0.7253 0.6906 0.86387 0.0
H1716 H 0.72194 0.66783 0.05054 0.0
H1717 H 0.77622 0.66806 0.95849 0.0
C1718 C 0.7919 0.67327 0.03094 0.0
C1719 C 0.79132 0.68024 0.08373 0.0
C1720 C 0.72268 0.67268 0.00952 0.0
C1721 C 0.75786 0.67966 0.02056 0.0
C1722 C 0.70613 0.67213 0.97782 0.0
C1723 C 0.70655 0.67874 0.92467 0.0
C1724 C 0.74005 0.67929 0.98775 0.0
C1725 C 0.7243 0.68527 0.90434 0.0
C1726 C 0.77537 0.67325 0.99918 0.0
C1727 C 0.77348 0.68668 0.10357 0.0
N1728 N 0.74043 0.68517 0.93577 0.0
N1729 N 0.75735 0.686 0.07214 0.0
H1730 H 0.60714 0.45877 0.17462 0.0
H1731 H 0.54931 0.53214 0.35811 0.0
H1732 H 0.54642 0.47092 0.15372 0.0
H1733 H 0.60879 0.54368 0.31704 0.0
H1734 H 0.54946 0.5047 0.29685 0.0
H1735 H 0.60938 0.48627 0.23656 0.0
C1736 C 0.59439 0.46744 0.18215 0.0
C1737 C 0.5766 0.46259 0.15849 0.0
C1738 C 0.56254 0.51311 0.30177 0.0
C1739 C 0.57893 0.49343 0.23097 0.0
C1740 C 0.56259 0.52863 0.3374 0.0
C1741 C 0.57909 0.54033 0.34289 0.0
C1742 C 0.57919 0.50895 0.27195 0.0
C1743 C 0.59576 0.53508 0.31414 0.0
C1744 C 0.59567 0.48301 0.21776 0.0
C1745 C 0.56049 0.4742 0.17034 0.0
N1746 N 0.59539 0.51979 0.27984 0.0
N1747 N 0.56198 0.48885 0.20632 0.0
H1748 H 0.72546 0.29779 0.6256 0.0
H1749 H 0.79039 0.34602 0.39739 0.0
H1750 H 0.70797 0.35084 0.54884 0.0
H1751 H 0.78952 0.28508 0.43464 0.0
H1752 H 0.76351 0.35084 0.46062 0.0
H1753 H 0.75361 0.29644 0.5672 0.0
C1754 C 0.7277 0.30941 0.59732 0.0
C1755 C 0.71409 0.32436 0.59202 0.0
C1756 C 0.76923 0.33644 0.4545 0.0
C1757 C 0.74638 0.3227 0.52412 0.0
C1758 C 0.78447 0.33365 0.41819 0.0
C1759 C 0.7923 0.3151 0.41025 0.0
C1760 C 0.76207 0.32065 0.48381 0.0
C1761 C 0.78407 0.29966 0.43892 0.0
C1762 C 0.74371 0.3085 0.56348 0.0
C1763 C 0.71796 0.33897 0.55429 0.0
N1764 N 0.76964 0.30282 0.47452 0.0
N1765 N 0.73365 0.33771 0.52152 0.0
H1766 H 0.95435 0.53137 0.63795 0.0
H1767 H 0.89482 0.45622 0.81064 0.0
H1768 H 0.8957 0.54498 0.68312 0.0
H1769 H 0.95527 0.46819 0.83763 0.0
H1770 H 0.89317 0.48467 0.75167 0.0
H1771 H 0.95312 0.50283 0.69513 0.0
C1772 C 0.94101 0.52813 0.65871 0.0
C1773 C 0.92509 0.5407 0.65561 0.0
C1774 C 0.90669 0.4811 0.77112 0.0
C1775 C 0.92373 0.50797 0.72167 0.0
C1776 C 0.90763 0.46498 0.80498 0.0
C1777 C 0.92517 0.45983 0.82959 0.0
C1778 C 0.92353 0.49175 0.76053 0.0
C1779 C 0.94138 0.47162 0.82018 0.0
C1780 C 0.94044 0.51195 0.69195 0.0
C1781 C 0.90831 0.53573 0.68427 0.0
N1782 N 0.94023 0.48679 0.78585 0.0
N1783 N 0.90805 0.51975 0.71616 0.0
H1784 H 0.21223 0.35994 0.92102 0.0
H1785 H 0.2829 0.29669 0.09916 0.0
H1786 H 0.22156 0.29898 0.89508 0.0
H1787 H 0.29639 0.35638 0.06565 0.0
H1788 H 0.25571 0.29866 0.03715 0.0
H1789 H 0.23985 0.36023 0.98279 0.0
C1790 C 0.22034 0.34674 0.92727 0.0
C1791 C 0.21458 0.32944 0.90239 0.0
C1792 C 0.26452 0.31138 0.04384 0.0
C1793 C 0.24556 0.32955 0.97475 0.0
C1794 C 0.27988 0.31038 0.07991 0.0
C1795 C 0.29202 0.32641 0.08778 0.0
C1796 C 0.26098 0.32862 0.01595 0.0
C1797 C 0.28743 0.34367 0.06085 0.0
C1798 C 0.23596 0.3469 0.96286 0.0
C1799 C 0.22551 0.31271 0.91269 0.0
N1800 N 0.27229 0.34432 0.02609 0.0
N1801 N 0.24021 0.31312 0.94868 0.0
H1802 H 0.40043 0.45878 0.68708 0.0
H1803 H 0.46533 0.53817 0.82699 0.0
H1804 H 0.45776 0.47402 0.63374 0.0
H1805 H 0.40323 0.54473 0.8272 0.0
H1806 H 0.46222 0.51118 0.76592 0.0
H1807 H 0.40027 0.48764 0.7444 0.0
C1808 C 0.41282 0.46835 0.68649 0.0
C1809 C 0.42917 0.46382 0.6554 0.0
C1810 C 0.44923 0.51845 0.77933 0.0
C1811 C 0.42923 0.49652 0.72224 0.0
C1812 C 0.45094 0.53385 0.81482 0.0
C1813 C 0.4345 0.54399 0.83249 0.0
C1814 C 0.43093 0.51268 0.76143 0.0
C1815 C 0.41632 0.53741 0.81486 0.0
C1816 C 0.41272 0.48477 0.71945 0.0
C1817 C 0.4448 0.47679 0.6567 0.0
N1818 N 0.415 0.52213 0.78034 0.0
N1819 N 0.44455 0.49229 0.69012 0.0
H1820 H 0.28305 0.70539 0.39377 0.0
H1821 H 0.21123 0.6444 0.57447 0.0
H1822 H 0.29448 0.64531 0.42808 0.0
H1823 H 0.22072 0.7056 0.59521 0.0
H1824 H 0.23885 0.6433 0.51302 0.0
H1825 H 0.25584 0.70447 0.45565 0.0
C1826 C 0.27958 0.69184 0.41319 0.0
C1827 C 0.29117 0.67539 0.40565 0.0
C1828 C 0.23502 0.65688 0.53173 0.0
C1829 C 0.26011 0.6744 0.47737 0.0
C1830 C 0.21939 0.6575 0.56712 0.0
C1831 C 0.21369 0.67509 0.59036 0.0
C1832 C 0.24469 0.67405 0.51847 0.0
C1833 C 0.22466 0.69167 0.57882 0.0
C1834 C 0.2642 0.69144 0.44919 0.0
C1835 C 0.28597 0.65834 0.43266 0.0
N1836 N 0.2394 0.69079 0.54306 0.0
N1837 N 0.27085 0.65828 0.46743 0.0
H1838 H 0.08725 0.44664 0.26226 0.0
H1839 H 0.08894 0.55941 0.24078 0.0
H1840 H 0.06246 0.48069 0.3893 0.0
H1841 H 0.06628 0.52622 0.10896 0.0
H1842 H 0.08847 0.53044 0.29609 0.0
H1843 H 0.08879 0.47554 0.20657 0.0
C1844 C 0.08247 0.46025 0.27903 0.0
C1845 C 0.07477 0.46119 0.33099 0.0
C1846 C 0.08378 0.5295 0.25494 0.0
C1847 C 0.07678 0.49437 0.26695 0.0
C1848 C 0.08421 0.54596 0.22292 0.0
C1849 C 0.07773 0.5453 0.16965 0.0
C1850 C 0.07742 0.51199 0.23341 0.0
C1851 C 0.07149 0.52741 0.14953 0.0
C1852 C 0.08319 0.47666 0.24679 0.0
C1853 C 0.06857 0.47928 0.34976 0.0
N1854 N 0.07168 0.51137 0.18131 0.0
N1855 N 0.06989 0.49523 0.31792 0.0
H1856 H 0.05204 0.32913 0.41647 0.0
H1857 H 0.13876 0.26744 0.30429 0.0
H1858 H 0.0964 0.35077 0.31122 0.0
H1859 H 0.0877 0.23871 0.36337 0.0
H1860 H 0.12203 0.29782 0.30641 0.0
H1861 H 0.06299 0.29595 0.39754 0.0
C1862 C 0.06389 0.32691 0.38893 0.0
C1863 C 0.07361 0.34278 0.36623 0.0
C1864 C 0.11422 0.28497 0.31841 0.0
C1865 C 0.08602 0.30507 0.34447 0.0
C1866 C 0.12383 0.26747 0.31717 0.0
C1867 C 0.11462 0.2504 0.33349 0.0
C1868 C 0.09524 0.28584 0.33761 0.0
C1869 C 0.09528 0.25154 0.35023 0.0
C1870 C 0.07006 0.308 0.3781 0.0
C1871 C 0.08873 0.33907 0.33056 0.0
N1872 N 0.08624 0.26911 0.35276 0.0
N1873 N 0.09453 0.32069 0.32126 0.0
H1874 H 0.90622 0.84946 0.55887 0.0
H1875 H 0.00559 0.87521 0.69575 0.0
H1876 H 0.92309 0.82183 0.70587 0.0
H1877 H 1.0004 0.87133 0.52459 0.0
H1878 H 0.97372 0.85974 0.70441 0.0
H1879 H 0.93928 0.86174 0.54886 0.0
C1880 C 0.91693 0.84589 0.58883 0.0
C1881 C 0.91198 0.83456 0.63312 0.0
C1882 C 0.97969 0.86218 0.66507 0.0
C1883 C 0.94956 0.84893 0.62262 0.0
C1884 C 0.99777 0.87105 0.6601 0.0
C1885 C 0.00565 0.87445 0.60941 0.0
C1886 C 0.96925 0.8572 0.61902 0.0
C1887 C 0.99493 0.86881 0.56444 0.0
C1888 C 0.93575 0.85286 0.58305 0.0
C1889 C 0.92639 0.83038 0.67089 0.0
N1890 N 0.97718 0.86067 0.57028 0.0
N1891 N 0.9445 0.8378 0.66519 0.0
H1892 H 0.38738 0.74644 0.74829 0.0
H1893 H 0.42332 0.66898 0.96193 0.0
H1894 H 0.40109 0.76012 0.91141 0.0
H1895 H 0.415 0.65501 0.79571 0.0
H1896 H 0.41745 0.70284 0.94181 0.0
H1897 H 0.40055 0.71383 0.76142 0.0
C1898 C 0.39395 0.74277 0.78621 0.0
C1899 C 0.3937 0.75604 0.82848 0.0
C1900 C 0.41695 0.69244 0.90957 0.0
C1901 C 0.40783 0.71859 0.84473 0.0
C1902 C 0.42018 0.673 0.92109 0.0
C1903 C 0.41944 0.65898 0.88056 0.0
C1904 C 0.41279 0.69811 0.85707 0.0
C1905 C 0.41556 0.66524 0.82832 0.0
C1906 C 0.40119 0.72409 0.79397 0.0
C1907 C 0.40153 0.75041 0.87753 0.0
N1908 N 0.41224 0.68432 0.81814 0.0
N1909 N 0.40811 0.73206 0.88448 0.0
H1910 H 0.58043 0.18048 0.2018 0.0
H1911 H 0.50326 0.12402 0.02946 0.0
H1912 H 0.59755 0.14763 0.06343 0.0
H1913 H 0.49912 0.12481 0.20106 0.0
H1914 H 0.53565 0.13817 0.03576 0.0
H1915 H 0.54818 0.1658 0.19669 0.0
C1916 C 0.57734 0.17034 0.16999 0.0
C1917 C 0.59168 0.16531 0.13278 0.0
C1918 C 0.52764 0.13526 0.07198 0.0
C1919 C 0.55482 0.14867 0.12664 0.0
C1920 C 0.50914 0.12732 0.06849 0.0
C1921 C 0.49848 0.12335 0.11488 0.0
C1922 C 0.53539 0.13975 0.12212 0.0
C1923 C 0.50689 0.12766 0.16441 0.0
C1924 C 0.55902 0.16187 0.16747 0.0
C1925 C 0.58693 0.1519 0.09286 0.0
N1926 N 0.5248 0.13587 0.16676 0.0
N1927 N 0.56884 0.14418 0.09049 0.0
H1928 H 0.10513 0.65469 0.19542 0.0
H1929 H 0.09467 0.76781 0.13815 0.0
H1930 H 0.05945 0.67826 0.09778 0.0
H1931 H 0.13782 0.74218 0.24002 0.0
H1932 H 0.07854 0.73611 0.13159 0.0
H1933 H 0.11466 0.68735 0.21999 0.0
C1934 C 0.09706 0.66675 0.17921 0.0
C1935 C 0.08163 0.6637 0.14391 0.0
C1936 C 0.09132 0.73755 0.15623 0.0
C1937 C 0.09254 0.70137 0.17182 0.0
C1938 C 0.10037 0.75564 0.16032 0.0
C1939 C 0.11757 0.75746 0.18943 0.0
C1940 C 0.09963 0.72136 0.18148 0.0
C1941 C 0.12462 0.74127 0.21684 0.0
C1942 C 0.10246 0.68546 0.19342 0.0
C1943 C 0.07154 0.67994 0.12482 0.0
N1944 N 0.11575 0.72391 0.21179 0.0
N1945 N 0.07731 0.6981 0.13852 0.0
H1946 H 0.50802 0.87995 0.49848 0.0
H1947 H 0.57715 0.80729 0.34006 0.0
H1948 H 0.48694 0.84125 0.37707 0.0
H1949 H 0.59673 0.85268 0.44519 0.0
H1950 H 0.54364 0.81508 0.36382 0.0
H1951 H 0.53985 0.86496 0.49218 0.0
C1952 C 0.51004 0.86787 0.47148 0.0
C1953 C 0.49493 0.86169 0.43842 0.0
C1954 C 0.5553 0.8232 0.38194 0.0
C1955 C 0.53151 0.84493 0.42936 0.0
C1956 C 0.57444 0.81879 0.36841 0.0
C1957 C 0.5898 0.82953 0.39014 0.0
C1958 C 0.55153 0.83834 0.41778 0.0
C1959 C 0.58539 0.84418 0.42687 0.0
C1960 C 0.52825 0.85944 0.46748 0.0
C1961 C 0.49825 0.8462 0.40361 0.0
N1962 N 0.56671 0.84818 0.43928 0.0
N1963 N 0.51633 0.83849 0.39936 0.0
H1964 H 0.37459 0.2517 0.5485 0.0
H1965 H 0.40016 0.35126 0.6875 0.0
H1966 H 0.37634 0.25703 0.71984 0.0
H1967 H 0.43062 0.33273 0.54642 0.0
H1968 H 0.38594 0.31881 0.69503 0.0
H1969 H 0.38984 0.28381 0.54118 0.0
C1970 C 0.37815 0.25965 0.58444 0.0
C1971 C 0.37437 0.2517 0.63481 0.0
C1972 C 0.39581 0.32189 0.66261 0.0
C1973 C 0.39129 0.28832 0.62676 0.0
C1974 C 0.4039 0.34034 0.65829 0.0
C1975 C 0.4167 0.34461 0.61656 0.0
C1976 C 0.40011 0.30781 0.62404 0.0
C1977 C 0.421 0.32996 0.57958 0.0
C1978 C 0.38689 0.27785 0.58027 0.0
C1979 C 0.37923 0.26256 0.68024 0.0
N1980 N 0.41254 0.31226 0.5838 0.0
N1981 N 0.38726 0.28039 0.67515 0.0
H1982 H 0.9205 0.17868 0.79221 0.0
H1983 H 0.99933 0.12484 0.96495 0.0
H1984 H 0.90387 0.14434 0.92821 0.0
H1985 H 0.00401 0.12701 0.79354 0.0
H1986 H 0.96626 0.1374 0.95836 0.0
H1987 H 0.95326 0.16536 0.79823 0.0
C1988 C 0.92378 0.16846 0.82366 0.0
C1989 C 0.90944 0.16265 0.85994 0.0
C1990 C 0.97455 0.13514 0.92228 0.0
C1991 C 0.94695 0.14757 0.86721 0.0
C1992 C 0.99344 0.12813 0.92594 0.0
C1993 C 0.00445 0.125 0.87967 0.0
C1994 C 0.96676 0.13954 0.87212 0.0
C1995 C 0.99601 0.12923 0.83013 0.0
C1996 C 0.94242 0.16078 0.82673 0.0
C1997 C 0.91448 0.14919 0.89945 0.0
N1998 N 0.97772 0.13652 0.82766 0.0
N1999 N 0.9329 0.14225 0.90243 0.0
H2000 H 0.87389 0.74857 0.73318 0.0
H2001 H 0.93324 0.67256 0.56395 0.0
H2002 H 0.87841 0.75358 0.56218 0.0
H2003 H 0.89828 0.65435 0.69727 0.0
H2004 H 0.91907 0.70491 0.57053 0.0
H2005 H 0.88836 0.71627 0.72801 0.0
C2006 C 0.87807 0.7429 0.69458 0.0
C2007 C 0.87506 0.75374 0.64797 0.0
C2008 C 0.91461 0.69383 0.59843 0.0
C2009 C 0.8918 0.71705 0.64208 0.0
C2010 C 0.92279 0.67543 0.59512 0.0
C2011 C 0.91695 0.66075 0.63029 0.0
C2012 C 0.90084 0.69772 0.63797 0.0
C2013 C 0.90316 0.66525 0.6694 0.0
C2014 C 0.88619 0.72447 0.69171 0.0
C2015 C 0.88048 0.74564 0.59894 0.0
N2016 N 0.89566 0.68341 0.67249 0.0
N2017 N 0.88882 0.72782 0.59729 0.0
H2018 H 0.08204 0.18503 0.31579 0.0
H2019 H 0.01753 0.11048 0.47335 0.0
H2020 H 0.10462 0.15147 0.44681 0.0
H2021 H 0.9929 0.15812 0.38572 0.0
H2022 H 0.04946 0.1252 0.46496 0.0
H2023 H 0.04939 0.17517 0.3402 0.0
C2024 C 0.08013 0.17555 0.34975 0.0
C2025 C 0.09611 0.16883 0.3789 0.0
C2026 C 0.03707 0.1326 0.4482 0.0
C2027 C 0.05867 0.15751 0.40707 0.0
C2028 C 0.01885 0.1242 0.45283 0.0
C2029 C 0.00263 0.13307 0.42974 0.0
C2030 C 0.03917 0.1498 0.41924 0.0
C2031 C 0.00508 0.15087 0.40406 0.0
C2032 C 0.06144 0.17008 0.36391 0.0
C2033 C 0.09272 0.15687 0.42306 0.0
N2034 N 0.02311 0.15852 0.39866 0.0
N2035 N 0.07436 0.15137 0.4354 0.0
H2036 H 0.57044 0.33301 0.03977 0.0
H2037 H 0.6219 0.25478 0.22135 0.0
H2038 H 0.60147 0.34921 0.18226 0.0
H2039 H 0.62279 0.25004 0.04977 0.0
H2040 H 0.60788 0.28714 0.21311 0.0
H2041 H 0.58311 0.30004 0.04849 0.0
C2042 C 0.57975 0.32957 0.07322 0.0
C2043 C 0.58493 0.34383 0.11045 0.0
C2044 C 0.61107 0.27895 0.17736 0.0
C2045 C 0.59921 0.30623 0.12073 0.0
C2046 C 0.61891 0.26046 0.18194 0.0
C2047 C 0.62343 0.24973 0.13609 0.0
C2048 C 0.60728 0.28657 0.12665 0.0
C2049 C 0.61953 0.25789 0.08603 0.0
C2050 C 0.58705 0.31084 0.07786 0.0
C2051 C 0.59719 0.33864 0.15266 0.0
N2052 N 0.6115 0.27582 0.0826 0.0
N2053 N 0.6038 0.32019 0.15694 0.0
H2054 H 0.41328 0.84627 0.7728 0.0
H2055 H 0.49983 0.87276 0.97038 0.0
H2056 H 0.40858 0.84031 0.94361 0.0
H2057 H 0.49742 0.89195 0.80674 0.0
H2058 H 0.46754 0.85885 0.96064 0.0
H2059 H 0.4449 0.86118 0.78405 0.0
C2060 C 0.41888 0.8481 0.81283 0.0
C2061 C 0.4082 0.84193 0.85739 0.0
C2062 C 0.47406 0.86611 0.92689 0.0
C2063 C 0.44473 0.85902 0.87043 0.0
C2064 C 0.49258 0.87397 0.93223 0.0
C2065 C 0.50146 0.88352 0.88919 0.0
C2066 C 0.46432 0.86757 0.87796 0.0
C2067 C 0.49119 0.88475 0.841 0.0
C2068 C 0.43697 0.8567 0.81916 0.0
C2069 C 0.41625 0.84487 0.90817 0.0
N2070 N 0.47324 0.8768 0.83664 0.0
N2071 N 0.4341 0.85308 0.91329 0.0
H2072 H 0.87809 0.24641 0.9453 0.0
H2073 H 0.89919 0.34681 0.80665 0.0
H2074 H 0.8788 0.25202 0.77396 0.0
H2075 H 0.93054 0.32977 0.94775 0.0
H2076 H 0.88666 0.31371 0.7988 0.0
H2077 H 0.89261 0.27882 0.95251 0.0
C2078 C 0.88136 0.25443 0.90932 0.0
C2079 C 0.8774 0.2465 0.85898 0.0
C2080 C 0.89636 0.31725 0.83128 0.0
C2081 C 0.89346 0.28351 0.86697 0.0
C2082 C 0.90347 0.33609 0.83583 0.0
C2083 C 0.916 0.34098 0.87769 0.0
C2084 C 0.90138 0.30338 0.86973 0.0
C2085 C 0.92106 0.32654 0.91455 0.0
C2086 C 0.88966 0.27283 0.91344 0.0
C2087 C 0.88184 0.25751 0.81354 0.0
N2088 N 0.91355 0.30843 0.91011 0.0
N2089 N 0.88943 0.27553 0.81861 0.0
H2090 H 0.51265 0.16127 0.59669 0.0
H2091 H 0.39836 0.14464 0.56836 0.0
H2092 H 0.4857 0.1093 0.53731 0.0
H2093 H 0.4228 0.19499 0.64469 0.0
H2094 H 0.43081 0.13386 0.54566 0.0
H2095 H 0.48041 0.1763 0.6035 0.0
C2096 C 0.50001 0.15318 0.58437 0.0
C2097 C 0.50176 0.13397 0.56713 0.0
C2098 C 0.42913 0.14732 0.5672 0.0
C2099 C 0.46512 0.15088 0.57472 0.0
C2100 C 0.41055 0.15349 0.58024 0.0
C2101 C 0.40782 0.17062 0.60912 0.0
C2102 C 0.44522 0.15829 0.5833 0.0
C2103 C 0.42423 0.18159 0.62279 0.0
C2104 C 0.48165 0.16167 0.5885 0.0
C2105 C 0.48497 0.12404 0.5517 0.0
N2106 N 0.44225 0.17515 0.61016 0.0
N2107 N 0.46742 0.13256 0.55612 0.0
H2108 H 0.62758 0.75291 0.4446 0.0
H2109 H 0.60825 0.65303 0.30041 0.0
H2110 H 0.63132 0.74831 0.27335 0.0
H2111 H 0.57284 0.67198 0.43204 0.0
H2112 H 0.62237 0.68564 0.29544 0.0
H2113 H 0.61317 0.72037 0.44746 0.0
C2114 C 0.62546 0.74499 0.40777 0.0
C2115 C 0.63045 0.75326 0.35868 0.0
C2116 C 0.61142 0.68259 0.32512 0.0
C2117 C 0.61446 0.71622 0.36171 0.0
C2118 C 0.60338 0.66407 0.32793 0.0
C2119 C 0.58925 0.65988 0.36634 0.0
C2120 C 0.60571 0.69674 0.36205 0.0
C2121 C 0.58352 0.67466 0.40137 0.0
C2122 C 0.61719 0.72656 0.40937 0.0
C2123 C 0.62743 0.74247 0.31195 0.0
N2124 N 0.59194 0.69237 0.39883 0.0
N2125 N 0.61977 0.72441 0.31462 0.0
H2126 H 0.09968 0.838 0.05369 0.0
H2127 H 0.00875 0.88849 0.19552 0.0
H2128 H 0.09475 0.84674 0.22359 0.0
H2129 H 0.00723 0.8683 0.03268 0.0
H2130 H 0.04137 0.87526 0.20451 0.0
H2131 H 0.06693 0.85134 0.04276 0.0
C2132 C 0.09179 0.84279 0.08857 0.0
C2133 C 0.1 0.84117 0.13961 0.0
C2134 C 0.03388 0.87365 0.16683 0.0
C2135 C 0.06262 0.85643 0.12747 0.0
C2136 C 0.01524 0.88122 0.1617 0.0
C2137 C 0.00517 0.87946 0.11335 0.0
C2138 C 0.04269 0.86442 0.12316 0.0
C2139 C 0.01436 0.86986 0.07087 0.0
C2140 C 0.07308 0.85031 0.08237 0.0
C2141 C 0.08904 0.84756 0.18345 0.0
N2142 N 0.03262 0.8628 0.07667 0.0
N2143 N 0.07102 0.8549 0.17634 0.0
H2144 H 0.61554 0.85713 0.88852 0.0
H2145 H 0.59712 0.74597 0.83327 0.0
H2146 H 0.55758 0.83406 0.8829 0.0
H2147 H 0.64776 0.76663 0.91621 0.0
H2148 H 0.58292 0.77836 0.83997 0.0
H2149 H 0.62833 0.82429 0.8858 0.0
C2150 C 0.60547 0.84516 0.88619 0.0
C2151 C 0.58542 0.84836 0.88577 0.0
C2152 C 0.59707 0.77572 0.85699 0.0
C2153 C 0.60008 0.81069 0.88265 0.0
C2154 C 0.60521 0.7573 0.85308 0.0
C2155 C 0.62368 0.75363 0.87411 0.0
C2156 C 0.60765 0.79067 0.88101 0.0
C2157 C 0.63348 0.7688 0.89959 0.0
C2158 C 0.61282 0.82642 0.88514 0.0
C2159 C 0.57312 0.83223 0.88334 0.0
N2160 N 0.62544 0.78672 0.90175 0.0
N2161 N 0.58066 0.81405 0.88147 0.0
H2162 H 0.42306 0.31996 0.19302 0.0
H2163 H 0.49793 0.37779 0.01569 0.0
H2164 H 0.40432 0.35358 0.05763 0.0
H2165 H 0.5039 0.37537 0.18684 0.0
H2166 H 0.46598 0.36271 0.02341 0.0
H2167 H 0.4555 0.33389 0.18397 0.0
C2168 C 0.42584 0.33008 0.16098 0.0
C2169 C 0.41102 0.33565 0.12593 0.0
C2170 C 0.47435 0.36544 0.05916 0.0
C2171 C 0.44799 0.3514 0.1153 0.0
C2172 C 0.49257 0.3739 0.05485 0.0
C2173 C 0.50353 0.37775 0.10078 0.0
C2174 C 0.46726 0.36035 0.10959 0.0
C2175 C 0.49584 0.37266 0.15057 0.0
C2176 C 0.44427 0.33811 0.15619 0.0
C2177 C 0.41535 0.34897 0.08551 0.0
N2178 N 0.4782 0.36403 0.15367 0.0
N2179 N 0.43351 0.35631 0.08101 0.0
H2180 H 0.90839 0.26441 0.36392 0.0
H2181 H 0.91216 0.15219 0.2831 0.0
H2182 H 0.86877 0.2376 0.25378 0.0
H2183 H 0.9358 0.17463 0.42991 0.0
H2184 H 0.90242 0.18505 0.25827 0.0
H2185 H 0.9251 0.23315 0.37411 0.0
C2186 C 0.90362 0.25207 0.34075 0.0
C2187 C 0.88728 0.25345 0.30796 0.0
C2188 C 0.90989 0.18276 0.29572 0.0
C2189 C 0.906 0.21788 0.31961 0.0
C2190 C 0.91546 0.16403 0.30988 0.0
C2191 C 0.92456 0.1606 0.35901 0.0
C2192 C 0.91366 0.19823 0.33056 0.0
C2193 C 0.92855 0.17655 0.39201 0.0
C2194 C 0.91297 0.23424 0.34694 0.0
C2195 C 0.88135 0.23703 0.27948 0.0
N2196 N 0.92303 0.19465 0.3773 0.0
N2197 N 0.89065 0.21991 0.2861 0.0
H2198 H 0.08101 0.69118 0.61079 0.0
H2199 H 0.012 0.60093 0.65881 0.0
H2200 H 0.10272 0.63296 0.62592 0.0
H2201 H 0.99301 0.65105 0.57069 0.0
H2202 H 0.04478 0.61431 0.66082 0.0
H2203 H 0.04797 0.67831 0.60747 0.0
C2204 C 0.07882 0.67569 0.61296 0.0
C2205 C 0.09462 0.66311 0.61837 0.0
C2206 C 0.0334 0.62237 0.64119 0.0
C2207 C 0.05696 0.6484 0.61598 0.0
C2208 C 0.01467 0.61485 0.64043 0.0
C2209 C 0.99976 0.62488 0.61443 0.0
C2210 C 0.03718 0.64021 0.61666 0.0
C2211 C 0.0041 0.6428 0.59096 0.0
C2212 C 0.06001 0.66838 0.61112 0.0
C2213 C 0.09098 0.64317 0.62119 0.0
N2214 N 0.0224 0.64994 0.5928 0.0
N2215 N 0.07252 0.63644 0.62056 0.0
H2216 H 0.56035 0.17521 0.58045 0.0
H2217 H 0.65381 0.23811 0.60896 0.0
H2218 H 0.6114 0.15094 0.65285 0.0
H2219 H 0.59913 0.26229 0.65778 0.0
H2220 H 0.6387 0.20601 0.60491 0.0
H2221 H 0.57437 0.20771 0.59059 0.0
C2222 C 0.57442 0.17681 0.59896 0.0
C2223 C 0.58472 0.16054 0.61637 0.0
C2224 C 0.63005 0.2184 0.61629 0.0
C2225 C 0.60098 0.19725 0.62605 0.0
C2226 C 0.63856 0.23668 0.61807 0.0
C2227 C 0.62762 0.25281 0.63348 0.0
C2228 C 0.61038 0.21638 0.62853 0.0
C2229 C 0.60801 0.25016 0.64568 0.0
C2230 C 0.58236 0.19525 0.60467 0.0
C2231 C 0.60296 0.16322 0.63964 0.0
N2232 N 0.59991 0.23228 0.64237 0.0
N2233 N 0.61069 0.18126 0.64304 0.0
H2234 H 0.10082 0.35914 0.94385 0.0
H2235 H 0.99949 0.37306 0.80116 0.0
H2236 H 0.0832 0.32263 0.81303 0.0
H2237 H 0.00442 0.37786 0.97213 0.0
H2238 H 0.03263 0.36009 0.79807 0.0
H2239 H 0.06753 0.37178 0.94905 0.0
C2240 C 0.08997 0.35376 0.91645 0.0
C2241 C 0.09473 0.3397 0.87834 0.0
C2242 C 0.02636 0.36396 0.83619 0.0
C2243 C 0.05704 0.35442 0.88298 0.0
C2244 C 0.00754 0.37135 0.83793 0.0
C2245 C 0.99917 0.37626 0.88698 0.0
C2246 C 0.03704 0.36206 0.88363 0.0
C2247 C 0.01026 0.37392 0.93356 0.0
C2248 C 0.07105 0.36094 0.91944 0.0
C2249 C 0.08013 0.33328 0.84351 0.0
N2250 N 0.02869 0.36716 0.93072 0.0
N2251 N 0.06203 0.34084 0.84626 0.0
H2252 H 0.948 0.8304 0.12234 0.0
H2253 H 0.85396 0.7654 0.08273 0.0
H2254 H 0.89052 0.85428 0.11049 0.0
H2255 H 0.90284 0.74494 0.17368 0.0
H2256 H 0.86959 0.79706 0.07532 0.0
H2257 H 0.93379 0.79779 0.12597 0.0
C2258 C 0.93244 0.82879 0.12065 0.0
C2259 C 0.92042 0.84507 0.11654 0.0
C2260 C 0.8769 0.78558 0.09667 0.0
C2261 C 0.90421 0.808 0.11926 0.0
C2262 C 0.86807 0.76749 0.10061 0.0
C2263 C 0.87706 0.75255 0.12918 0.0
C2264 C 0.89501 0.78867 0.12055 0.0
C2265 C 0.89533 0.75612 0.15169 0.0
C2266 C 0.92437 0.81023 0.12273 0.0
C2267 C 0.90033 0.84217 0.11429 0.0
N2268 N 0.90375 0.77381 0.1468 0.0
N2269 N 0.89288 0.82401 0.11522 0.0
H2270 H 0.51293 0.65192 0.42081 0.0
H2271 H 0.40137 0.63211 0.36641 0.0
H2272 H 0.49283 0.60075 0.33946 0.0
H2273 H 0.42438 0.68996 0.37736 0.0
H2274 H 0.43437 0.61932 0.36938 0.0
H2275 H 0.48017 0.66528 0.41626 0.0
C2276 C 0.50165 0.64355 0.40169 0.0
C2277 C 0.50564 0.6252 0.3804 0.0
C2278 C 0.43217 0.6348 0.37126 0.0
C2279 C 0.46806 0.64025 0.37613 0.0
C2280 C 0.41334 0.64212 0.37009 0.0
C2281 C 0.4101 0.66215 0.37171 0.0
C2282 C 0.44788 0.64757 0.37507 0.0
C2283 C 0.42621 0.67442 0.3759 0.0
C2284 C 0.48298 0.65119 0.39912 0.0
C2285 C 0.49045 0.615 0.35608 0.0
N2286 N 0.4444 0.66694 0.37771 0.0
N2287 N 0.47228 0.62257 0.35513 0.0
H2288 H 0.44249 0.17059 0.14006 0.0
H2289 H 0.35312 0.2403 0.08771 0.0
H2290 H 0.38425 0.14925 0.12182 0.0
H2291 H 0.40185 0.25862 0.18266 0.0
H2292 H 0.36648 0.20753 0.08563 0.0
H2293 H 0.42974 0.20371 0.14377 0.0
C2294 C 0.42702 0.17287 0.13727 0.0
C2295 C 0.4144 0.15713 0.13096 0.0
C2296 C 0.37426 0.21876 0.10675 0.0
C2297 C 0.39984 0.19492 0.13369 0.0
C2298 C 0.36674 0.23751 0.10757 0.0
C2299 C 0.37637 0.25225 0.13547 0.0
C2300 C 0.39172 0.21477 0.13311 0.0
C2301 C 0.39392 0.24769 0.16084 0.0
C2302 C 0.41979 0.19173 0.13935 0.0
C2303 C 0.39449 0.16092 0.12731 0.0
N2304 N 0.40108 0.22938 0.15885 0.0
N2305 N 0.38785 0.17942 0.12811 0.0
H2306 H 0.48441 0.66192 0.90393 0.0
H2307 H 0.59782 0.65113 0.9558 0.0
H2308 H 0.51116 0.61584 0.99313 0.0
H2309 H 0.5734 0.69708 0.86077 0.0
H2310 H 0.56538 0.64134 0.98156 0.0
H2311 H 0.5159 0.67852 0.89993 0.0
C2312 C 0.49681 0.6556 0.92375 0.0
C2313 C 0.49539 0.63746 0.94824 0.0
C2314 C 0.56705 0.65366 0.95532 0.0
C2315 C 0.53116 0.65602 0.94355 0.0
C2316 C 0.58561 0.65921 0.94046 0.0
C2317 C 0.58832 0.67472 0.90534 0.0
C2318 C 0.55097 0.66353 0.93451 0.0
C2319 C 0.57195 0.68489 0.8875 0.0
C2320 C 0.51476 0.66494 0.92118 0.0
C2321 C 0.51179 0.62971 0.97312 0.0
N2322 N 0.55392 0.67895 0.90174 0.0
N2323 N 0.529 0.63893 0.9697 0.0
H2324 H 0.12816 0.74743 0.54422 0.0
H2325 H 0.1031 0.8461 0.68637 0.0
H2326 H 0.12374 0.75143 0.71551 0.0
H2327 H 0.07392 0.82987 0.54104 0.0
H2328 H 0.11601 0.81314 0.69329 0.0
H2329 H 0.1133 0.77972 0.53703 0.0
C2330 C 0.12405 0.75509 0.58016 0.0
C2331 C 0.12703 0.74676 0.63048 0.0
C2332 C 0.10669 0.81682 0.66009 0.0
C2333 C 0.11058 0.78353 0.62261 0.0
C2334 C 0.09937 0.83556 0.6561 0.0
C2335 C 0.08735 0.84061 0.61331 0.0
C2336 C 0.10241 0.80324 0.62019 0.0
C2337 C 0.08297 0.82646 0.57498 0.0
C2338 C 0.11554 0.77339 0.57604 0.0
C2339 C 0.12149 0.75725 0.67592 0.0
N2340 N 0.09071 0.80843 0.57893 0.0
N2341 N 0.11373 0.77518 0.67094 0.0
H2342 H 0.90278 0.33734 0.4378 0.0
H2343 H 0.99336 0.38962 0.30075 0.0
H2344 H 0.91039 0.3423 0.26747 0.0
H2345 H 0.99318 0.37149 0.46547 0.0
H2346 H 0.96135 0.37515 0.28953 0.0
H2347 H 0.93446 0.35267 0.4506 0.0
C2348 C 0.91106 0.34168 0.40318 0.0
C2349 C 0.90394 0.33845 0.35153 0.0
C2350 C 0.96833 0.37431 0.32811 0.0
C2351 C 0.94004 0.35605 0.36582 0.0
C2352 C 0.98658 0.38262 0.33455 0.0
C2353 C 0.996 0.38169 0.38403 0.0
C2354 C 0.95933 0.36519 0.37159 0.0
C2355 C 0.98653 0.3724 0.42646 0.0
C2356 C 0.92914 0.35037 0.41047 0.0
C2357 C 0.91532 0.34435 0.30805 0.0
N2358 N 0.96869 0.36456 0.41932 0.0
N2359 N 0.93273 0.35289 0.3162 0.0
H2360 H 0.3674 0.75116 0.45065 0.0
H2361 H 0.41525 0.84284 0.3062 0.0
H2362 H 0.38875 0.74939 0.28897 0.0
H2363 H 0.40601 0.83877 0.47606 0.0
H2364 H 0.40316 0.80958 0.29664 0.0
H2365 H 0.37951 0.78424 0.45881 0.0
C2366 C 0.37474 0.75767 0.41698 0.0
C2367 C 0.3771 0.74742 0.36915 0.0
C2368 C 0.4038 0.81603 0.33594 0.0
C2369 C 0.39079 0.78544 0.37793 0.0
C2370 C 0.41058 0.83503 0.34134 0.0
C2371 C 0.41172 0.8436 0.39197 0.0
C2372 C 0.39793 0.80567 0.38144 0.0
C2373 C 0.40554 0.83276 0.43622 0.0
C2374 C 0.38163 0.77658 0.42162 0.0
C2375 C 0.38672 0.75666 0.32679 0.0
N2376 N 0.39891 0.81445 0.4299 0.0
N2377 N 0.3931 0.77516 0.33206 0.0
H2378 H 0.98998 0.6039 0.161 0.0
H2379 H 0.92365 0.69663 0.12082 0.0
H2380 H 0.01003 0.65388 0.07405 0.0
H2381 H 0.90049 0.63881 0.13134 0.0
H2382 H 0.95639 0.68293 0.11727 0.0
H2383 H 0.9578 0.61854 0.1662 0.0
C2384 C 0.98766 0.61802 0.14348 0.0
C2385 C 0.00263 0.62765 0.11675 0.0
C2386 C 0.94408 0.67331 0.12009 0.0
C2387 C 0.96601 0.64443 0.12278 0.0
C2388 C 0.92546 0.68108 0.12209 0.0
C2389 C 0.90937 0.66882 0.12608 0.0
C2390 C 0.94656 0.6532 0.12334 0.0
C2391 C 0.91248 0.64878 0.12774 0.0
C2392 C 0.9693 0.62628 0.14613 0.0
C2393 C 0.99882 0.64591 0.09462 0.0
N2394 N 0.93073 0.6416 0.12687 0.0
N2395 N 0.98086 0.65375 0.09824 0.0
H2396 H 0.06002 0.17668 0.87439 0.0
H2397 H 0.15271 0.24389 0.91585 0.0
H2398 H 0.11827 0.15443 0.88023 0.0
H2399 H 0.10184 0.26437 0.8338 0.0
H2400 H 0.13808 0.21165 0.921 0.0
H2401 H 0.0732 0.20974 0.87523 0.0
C2402 C 0.07554 0.17874 0.87568 0.0
C2403 C 0.08806 0.16277 0.87675 0.0
C2404 C 0.13009 0.22327 0.90223 0.0
C2405 C 0.10312 0.20038 0.87917 0.0
C2406 C 0.13836 0.24169 0.89967 0.0
C2407 C 0.12852 0.25682 0.87414 0.0
C2408 C 0.11172 0.22003 0.88 0.0
C2409 C 0.10998 0.25307 0.8535 0.0
C2410 C 0.08303 0.19756 0.8762 0.0
C2411 C 0.10807 0.16628 0.87869 0.0
N2412 N 0.10216 0.23507 0.85694 0.0
N2413 N 0.11495 0.18466 0.88026 0.0
H2414 H 0.50614 0.37706 0.52046 0.0
H2415 H 0.58299 0.32106 0.69459 0.0
H2416 H 0.50145 0.37553 0.69194 0.0
H2417 H 0.60087 0.35483 0.55866 0.0
H2418 H 0.55057 0.33507 0.68747 0.0
H2419 H 0.53864 0.36314 0.52718 0.0
C2420 C 0.51189 0.37359 0.5595 0.0
C2421 C 0.50108 0.3773 0.60579 0.0
C2422 C 0.5616 0.33934 0.65919 0.0
C2423 C 0.53807 0.36126 0.61347 0.0
C2424 C 0.58004 0.33127 0.66286 0.0
C2425 C 0.59463 0.33677 0.62698 0.0
C2426 C 0.55756 0.35263 0.61854 0.0
C2427 C 0.59004 0.35023 0.5871 0.0
C2428 C 0.53045 0.36582 0.56323 0.0
C2429 C 0.50933 0.37285 0.65538 0.0
N2430 N 0.57181 0.35758 0.58359 0.0
N2431 N 0.52729 0.36483 0.65793 0.0
loop_
_geom_bond_atom_site_label_1
_geom_bond_atom_site_label_2
_geom_bond_distance
_geom_bond_site_symmetry_2
_ccdc_geom_bond_type
Fe0 O2 1.918 . S
Fe0 O5 1.997 . S
Fe0 O6 2.002 . S
Fe0 O11 1.976 . S
Fe0 O14 1.996 . S
Fe1 O2 1.918 . S
Fe1 O9 1.997 . S
Fe1 O12 1.996 . S
Fe1 O16 1.976 . S
Fe1 O19 2.002 . S
O2 Fe0 1.918 . S
O2 Fe1 1.918 . S
O2 Fe3 1.918 . S
Fe3 O2 1.918 . S
Fe3 O4 2.002 . S
Fe3 O13 1.976 . S
Fe3 O17 1.996 . S
Fe3 O20 1.997 . S
O4 Fe3 2.002 . S
O4 C21 1.295 . S
O5 Fe0 1.997 . S
O5 C21 1.235 . S
O6 Fe0 2.002 . S
O6 C7 1.295 . S
C7 O6 1.295 . S
C7 O9 1.235 . S
C8 O13 1.287 . S
C8 O14 1.255 . S
O9 Fe1 1.997 . S
O9 C7 1.235 . S
C10 O16 1.287 . S
C10 O17 1.255 . S
O11 Fe0 1.976 . S
O11 C18 1.287 . S
O12 Fe1 1.996 . S
O12 C18 1.255 . S
O13 Fe3 1.976 . S
O13 C8 1.287 . S
O14 Fe0 1.996 . S
O14 C8 1.255 . S
C15 O19 1.295 . S
C15 O20 1.235 . S
O16 Fe1 1.976 . S
O16 C10 1.287 . S
O17 Fe3 1.996 . S
O17 C10 1.255 . S
C18 O11 1.287 . S
C18 O12 1.255 . S
O19 Fe1 2.002 . S
O19 C15 1.295 . S
O20 Fe3 1.997 . S
O20 C15 1.235 . S
C21 O4 1.295 . S
C21 O5 1.235 . S
Fe22 O24 1.918 . S
Fe22 O27 1.997 . S
Fe22 O28 2.002 . S
Fe22 O33 1.976 . S
Fe22 O36 1.996 . S
Fe23 O24 1.918 . S
Fe23 O31 1.997 . S
Fe23 O34 1.996 . S
Fe23 O38 1.976 . S
Fe23 O41 2.002 . S
O24 Fe22 1.918 . S
O24 Fe23 1.918 . S
O24 Fe25 1.918 . S
Fe25 O24 1.918 . S
Fe25 O26 2.002 . S
Fe25 O35 1.976 . S
Fe25 O39 1.996 . S
Fe25 O42 1.997 . S
O26 Fe25 2.002 . S
O26 C43 1.295 . S
O27 Fe22 1.997 . S
O27 C43 1.235 . S
O28 Fe22 2.002 . S
O28 C29 1.295 . S
C29 O28 1.295 . S
C29 O31 1.235 . S
C30 O35 1.287 . S
C30 O36 1.255 . S
O31 Fe23 1.997 . S
O31 C29 1.235 . S
C32 O38 1.287 . S
C32 O39 1.255 . S
O33 Fe22 1.976 . S
O33 C40 1.287 . S
O34 Fe23 1.996 . S
O34 C40 1.255 . S
O35 Fe25 1.976 . S
O35 C30 1.287 . S
O36 Fe22 1.996 . S
O36 C30 1.255 . S
C37 O41 1.295 . S
C37 O42 1.235 . S
O38 Fe23 1.976 . S
O38 C32 1.287 . S
O39 Fe25 1.996 . S
O39 C32 1.255 . S
C40 O33 1.287 . S
C40 O34 1.255 . S
O41 Fe23 2.002 . S
O41 C37 1.295 . S
O42 Fe25 1.997 . S
O42 C37 1.235 . S
C43 O26 1.295 . S
C43 O27 1.235 . S
Fe44 O46 1.918 . S
Fe44 O49 1.997 . S
Fe44 O50 2.002 . S
Fe44 O55 1.976 . S
Fe44 O58 1.996 . S
Fe45 O46 1.918 . S
Fe45 O53 1.997 . S
Fe45 O56 1.996 . S
Fe45 O60 1.976 . S
Fe45 O63 2.002 . S
O46 Fe44 1.918 . S
O46 Fe45 1.918 . S
O46 Fe47 1.918 . S
Fe47 O46 1.918 . S
Fe47 O48 2.002 . S
Fe47 O57 1.976 . S
Fe47 O61 1.996 . S
Fe47 O64 1.997 . S
O48 Fe47 2.002 . S
O48 C65 1.295 . S
O49 Fe44 1.997 . S
O49 C65 1.235 . S
O50 Fe44 2.002 . S
O50 C51 1.295 . S
C51 O50 1.295 . S
C51 O53 1.235 . S
C52 O57 1.287 . S
C52 O58 1.255 . S
O53 Fe45 1.997 . S
O53 C51 1.235 . S
C54 O60 1.287 . S
C54 O61 1.255 . S
O55 Fe44 1.976 . S
O55 C62 1.287 . S
O56 Fe45 1.996 . S
O56 C62 1.255 . S
O57 Fe47 1.976 . S
O57 C52 1.287 . S
O58 Fe44 1.996 . S
O58 C52 1.255 . S
C59 O63 1.295 . S
C59 O64 1.235 . S
O60 Fe45 1.976 . S
O60 C54 1.287 . S
O61 Fe47 1.996 . S
O61 C54 1.255 . S
C62 O55 1.287 . S
C62 O56 1.255 . S
O63 Fe45 2.002 . S
O63 C59 1.295 . S
O64 Fe47 1.997 . S
O64 C59 1.235 . S
C65 O48 1.295 . S
C65 O49 1.235 . S
Fe66 O68 1.918 . S
Fe66 O71 1.997 . S
Fe66 O72 2.002 . S
Fe66 O77 1.976 . S
Fe66 O80 1.996 . S
Fe67 O68 1.918 . S
Fe67 O75 1.997 . S
Fe67 O78 1.996 . S
Fe67 O82 1.976 . S
Fe67 O85 2.002 . S
O68 Fe66 1.918 . S
O68 Fe67 1.918 . S
O68 Fe69 1.918 . S
Fe69 O68 1.918 . S
Fe69 O70 2.002 . S
Fe69 O79 1.976 . S
Fe69 O83 1.996 1_554 S
Fe69 O86 1.997 . S
O70 Fe69 2.002 . S
O70 C87 1.295 . S
O71 Fe66 1.997 . S
O71 C87 1.235 . S
O72 Fe66 2.002 . S
O72 C73 1.295 . S
C73 O72 1.295 . S
C73 O75 1.235 . S
C74 O79 1.287 . S
C74 O80 1.255 . S
O75 Fe67 1.997 . S
O75 C73 1.235 . S
C76 O82 1.287 1_556 S
C76 O83 1.255 . S
O77 Fe66 1.976 . S
O77 C84 1.287 . S
O78 Fe67 1.996 . S
O78 C84 1.255 . S
O79 Fe69 1.976 . S
O79 C74 1.287 . S
O80 Fe66 1.996 . S
O80 C74 1.255 . S
C81 O85 1.295 . S
C81 O86 1.235 . S
O82 Fe67 1.976 . S
O82 C76 1.287 1_554 S
O83 Fe69 1.996 1_556 S
O83 C76 1.255 . S
C84 O77 1.287 . S
C84 O78 1.255 . S
O85 Fe67 2.002 . S
O85 C81 1.295 . S
O86 Fe69 1.997 . S
O86 C81 1.235 . S
C87 O70 1.295 . S
C87 O71 1.235 . S
Fe88 O90 1.918 . S
Fe88 O93 1.997 . S
Fe88 O94 2.002 . S
Fe88 O99 1.976 . S
Fe88 O102 1.996 . S
Fe89 O90 1.918 . S
Fe89 O97 1.997 . S
Fe89 O100 1.996 . S
Fe89 O104 1.976 . S
Fe89 O107 2.002 . S
O90 Fe88 1.918 . S
O90 Fe89 1.918 . S
O90 Fe91 1.918 . S
Fe91 O90 1.918 . S
Fe91 O92 2.002 . S
Fe91 O101 1.976 . S
Fe91 O105 1.996 . S
Fe91 O108 1.997 . S
O92 Fe91 2.002 . S
O92 C109 1.295 . S
O93 Fe88 1.997 . S
O93 C109 1.235 . S
O94 Fe88 2.002 . S
O94 C95 1.295 . S
C95 O94 1.295 . S
C95 O97 1.235 . S
C96 O101 1.287 . S
C96 O102 1.255 . S
O97 Fe89 1.997 . S
O97 C95 1.235 . S
C98 O104 1.287 . S
C98 O105 1.255 . S
O99 Fe88 1.976 . S
O99 C106 1.287 . S
O100 Fe89 1.996 . S
O100 C106 1.255 . S
O101 Fe91 1.976 . S
O101 C96 1.287 . S
O102 Fe88 1.996 . S
O102 C96 1.255 . S
C103 O107 1.295 . S
C103 O108 1.235 . S
O104 Fe89 1.976 . S
O104 C98 1.287 . S
O105 Fe91 1.996 . S
O105 C98 1.255 . S
C106 O99 1.287 . S
C106 O100 1.255 . S
O107 Fe89 2.002 . S
O107 C103 1.295 . S
O108 Fe91 1.997 . S
O108 C103 1.235 . S
C109 O92 1.295 . S
C109 O93 1.235 . S
Fe110 O112 1.918 . S
Fe110 O115 1.997 . S
Fe110 O116 2.002 . S
Fe110 O121 1.976 . S
Fe110 O124 1.996 . S
Fe111 O112 1.918 . S
Fe111 O119 1.997 . S
Fe111 O122 1.996 . S
Fe111 O126 1.976 . S
Fe111 O129 2.002 . S
O112 Fe110 1.918 . S
O112 Fe111 1.918 . S
O112 Fe113 1.918 . S
Fe113 O112 1.918 . S
Fe113 O114 2.002 . S
Fe113 O123 1.976 . S
Fe113 O127 1.996 . S
Fe113 O130 1.997 . S
O114 Fe113 2.002 . S
O114 C131 1.295 . S
O115 Fe110 1.997 . S
O115 C131 1.235 . S
O116 Fe110 2.002 . S
O116 C117 1.295 . S
C117 O116 1.295 . S
C117 O119 1.235 . S
C118 O123 1.287 . S
C118 O124 1.255 . S
O119 Fe111 1.997 . S
O119 C117 1.235 . S
C120 O126 1.287 . S
C120 O127 1.255 . S
O121 Fe110 1.976 . S
O121 C128 1.287 . S
O122 Fe111 1.996 . S
O122 C128 1.255 . S
O123 Fe113 1.976 . S
O123 C118 1.287 . S
O124 Fe110 1.996 . S
O124 C118 1.255 . S
C125 O129 1.295 . S
C125 O130 1.235 . S
O126 Fe111 1.976 . S
O126 C120 1.287 . S
O127 Fe113 1.996 . S
O127 C120 1.255 . S
C128 O121 1.287 . S
C128 O122 1.255 . S
O129 Fe111 2.002 . S
O129 C125 1.295 . S
O130 Fe113 1.997 . S
O130 C125 1.235 . S
C131 O114 1.295 . S
C131 O115 1.235 . S
Fe132 O134 1.918 . S
Fe132 O137 1.997 . S
Fe132 O138 2.002 . S
Fe132 O143 1.976 . S
Fe132 O146 1.996 . S
Fe133 O134 1.918 . S
Fe133 O141 1.997 . S
Fe133 O144 1.996 . S
Fe133 O148 1.976 . S
Fe133 O151 2.002 . S
O134 Fe132 1.918 . S
O134 Fe133 1.918 . S
O134 Fe135 1.918 . S
Fe135 O134 1.918 . S
Fe135 O136 2.002 . S
Fe135 O145 1.976 . S
Fe135 O149 1.996 . S
Fe135 O152 1.997 . S
O136 Fe135 2.002 . S
O136 C153 1.295 . S
O137 Fe132 1.997 . S
O137 C153 1.235 . S
O138 Fe132 2.002 . S
O138 C139 1.295 . S
C139 O138 1.295 . S
C139 O141 1.235 . S
C140 O145 1.287 . S
C140 O146 1.255 . S
O141 Fe133 1.997 . S
O141 C139 1.235 . S
C142 O148 1.287 . S
C142 O149 1.255 . S
O143 Fe132 1.976 . S
O143 C150 1.287 . S
O144 Fe133 1.996 . S
O144 C150 1.255 . S
O145 Fe135 1.976 . S
O145 C140 1.287 . S
O146 Fe132 1.996 . S
O146 C140 1.255 . S
C147 O151 1.295 . S
C147 O152 1.235 . S
O148 Fe133 1.976 . S
O148 C142 1.287 . S
O149 Fe135 1.996 . S
O149 C142 1.255 . S
C150 O143 1.287 . S
C150 O144 1.255 . S
O151 Fe133 2.002 . S
O151 C147 1.295 . S
O152 Fe135 1.997 . S
O152 C147 1.235 . S
C153 O136 1.295 . S
C153 O137 1.235 . S
Fe154 O156 1.918 . S
Fe154 O159 1.997 . S
Fe154 O160 2.002 . S
Fe154 O165 1.976 . S
Fe154 O168 1.996 . S
Fe155 O156 1.918 . S
Fe155 O163 1.997 . S
Fe155 O166 1.996 . S
Fe155 O170 1.976 . S
Fe155 O173 2.002 . S
O156 Fe154 1.918 . S
O156 Fe155 1.918 . S
O156 Fe157 1.918 . S
Fe157 O156 1.918 . S
Fe157 O158 2.002 . S
Fe157 O167 1.976 . S
Fe157 O171 1.996 1_556 S
Fe157 O174 1.997 . S
O158 Fe157 2.002 . S
O158 C175 1.295 . S
O159 Fe154 1.997 . S
O159 C175 1.235 . S
O160 Fe154 2.002 . S
O160 C161 1.295 . S
C161 O160 1.295 . S
C161 O163 1.235 . S
C162 O167 1.287 . S
C162 O168 1.255 . S
O163 Fe155 1.997 . S
O163 C161 1.235 . S
C164 O170 1.287 1_554 S
C164 O171 1.255 . S
O165 Fe154 1.976 . S
O165 C172 1.287 . S
O166 Fe155 1.996 . S
O166 C172 1.255 . S
O167 Fe157 1.976 . S
O167 C162 1.287 . S
O168 Fe154 1.996 . S
O168 C162 1.255 . S
C169 O173 1.295 . S
C169 O174 1.235 . S
O170 Fe155 1.976 . S
O170 C164 1.287 1_556 S
O171 Fe157 1.996 1_554 S
O171 C164 1.255 . S
C172 O165 1.287 . S
C172 O166 1.255 . S
O173 Fe155 2.002 . S
O173 C169 1.295 . S
O174 Fe157 1.997 . S
O174 C169 1.235 . S
C175 O158 1.295 . S
C175 O159 1.235 . S
Fe176 O178 1.918 . S
Fe176 O181 1.997 . S
Fe176 O182 2.002 . S
Fe176 O187 1.976 . S
Fe176 O190 1.996 . S
Fe177 O178 1.918 . S
Fe177 O185 1.997 . S
Fe177 O188 1.996 . S
Fe177 O192 1.976 . S
Fe177 O195 2.002 . S
O178 Fe176 1.918 . S
O178 Fe177 1.918 . S
O178 Fe179 1.918 . S
Fe179 O178 1.918 . S
Fe179 O180 2.002 . S
Fe179 O189 1.976 . S
Fe179 O193 1.996 . S
Fe179 O196 1.997 . S
O180 Fe179 2.002 . S
O180 C197 1.295 . S
O181 Fe176 1.997 . S
O181 C197 1.235 . S
O182 Fe176 2.002 . S
O182 C183 1.295 . S
C183 O182 1.295 . S
C183 O185 1.235 . S
C184 O189 1.287 . S
C184 O190 1.255 . S
O185 Fe177 1.997 . S
O185 C183 1.235 . S
C186 O192 1.287 . S
C186 O193 1.255 . S
O187 Fe176 1.976 . S
O187 C194 1.287 . S
O188 Fe177 1.996 . S
O188 C194 1.255 . S
O189 Fe179 1.976 . S
O189 C184 1.287 . S
O190 Fe176 1.996 . S
O190 C184 1.255 . S
C191 O195 1.295 . S
C191 O196 1.235 . S
O192 Fe177 1.976 . S
O192 C186 1.287 . S
O193 Fe179 1.996 . S
O193 C186 1.255 . S
C194 O187 1.287 . S
C194 O188 1.255 . S
O195 Fe177 2.002 . S
O195 C191 1.295 . S
O196 Fe179 1.997 . S
O196 C191 1.235 . S
C197 O180 1.295 . S
C197 O181 1.235 . S
Fe198 O200 1.918 . S
Fe198 O203 1.997 . S
Fe198 O204 2.002 . S
Fe198 O209 1.976 . S
Fe198 O212 1.996 . S
Fe199 O200 1.918 . S
Fe199 O207 1.997 . S
Fe199 O210 1.996 . S
Fe199 O214 1.976 . S
Fe199 O217 2.002 . S
O200 Fe198 1.918 . S
O200 Fe199 1.918 . S
O200 Fe201 1.918 . S
Fe201 O200 1.918 . S
Fe201 O202 2.002 . S
Fe201 O211 1.976 . S
Fe201 O215 1.996 . S
Fe201 O218 1.997 . S
O202 Fe201 2.002 . S
O202 C219 1.295 . S
O203 Fe198 1.997 . S
O203 C219 1.235 . S
O204 Fe198 2.002 . S
O204 C205 1.295 . S
C205 O204 1.295 . S
C205 O207 1.235 . S
C206 O211 1.287 . S
C206 O212 1.255 . S
O207 Fe199 1.997 . S
O207 C205 1.235 . S
C208 O214 1.287 . S
C208 O215 1.255 . S
O209 Fe198 1.976 . S
O209 C216 1.287 . S
O210 Fe199 1.996 . S
O210 C216 1.255 . S
O211 Fe201 1.976 . S
O211 C206 1.287 . S
O212 Fe198 1.996 . S
O212 C206 1.255 . S
C213 O217 1.295 . S
C213 O218 1.235 . S
O214 Fe199 1.976 . S
O214 C208 1.287 . S
O215 Fe201 1.996 . S
O215 C208 1.255 . S
C216 O209 1.287 . S
C216 O210 1.255 . S
O217 Fe199 2.002 . S
O217 C213 1.295 . S
O218 Fe201 1.997 . S
O218 C213 1.235 . S
C219 O202 1.295 . S
C219 O203 1.235 . S
Fe220 O222 1.918 . S
Fe220 O225 1.997 . S
Fe220 O226 2.002 . S
Fe220 O231 1.976 . S
Fe220 O234 1.996 . S
Fe221 O222 1.918 . S
Fe221 O229 1.997 . S
Fe221 O232 1.996 . S
Fe221 O236 1.976 . S
Fe221 O239 2.002 . S
O222 Fe220 1.918 . S
O222 Fe221 1.918 . S
O222 Fe223 1.918 . S
Fe223 O222 1.918 . S
Fe223 O224 2.002 . S
Fe223 O233 1.976 . S
Fe223 O237 1.996 . S
Fe223 O240 1.997 . S
O224 Fe223 2.002 . S
O224 C241 1.295 . S
O225 Fe220 1.997 . S
O225 C241 1.235 . S
O226 Fe220 2.002 . S
O226 C227 1.295 . S
C227 O226 1.295 . S
C227 O229 1.235 . S
C228 O233 1.287 . S
C228 O234 1.255 . S
O229 Fe221 1.997 . S
O229 C227 1.235 . S
C230 O236 1.287 . S
C230 O237 1.255 . S
O231 Fe220 1.976 . S
O231 C238 1.287 . S
O232 Fe221 1.996 . S
O232 C238 1.255 . S
O233 Fe223 1.976 . S
O233 C228 1.287 . S
O234 Fe220 1.996 . S
O234 C228 1.255 . S
C235 O239 1.295 . S
C235 O240 1.235 . S
O236 Fe221 1.976 . S
O236 C230 1.287 . S
O237 Fe223 1.996 . S
O237 C230 1.255 . S
C238 O231 1.287 . S
C238 O232 1.255 . S
O239 Fe221 2.002 . S
O239 C235 1.295 . S
O240 Fe223 1.997 . S
O240 C235 1.235 . S
C241 O224 1.295 . S
C241 O225 1.235 . S
Fe242 O244 1.918 . S
Fe242 O247 1.997 . S
Fe242 O248 2.002 . S
Fe242 O253 1.976 1_556 S
Fe242 O256 1.996 . S
Fe243 O244 1.918 . S
Fe243 O251 1.997 . S
Fe243 O254 1.996 . S
Fe243 O258 1.976 . S
Fe243 O261 2.002 . S
O244 Fe242 1.918 . S
O244 Fe243 1.918 . S
O244 Fe245 1.918 . S
Fe245 O244 1.918 . S
Fe245 O246 2.002 . S
Fe245 O255 1.976 . S
Fe245 O259 1.996 . S
Fe245 O262 1.997 . S
O246 Fe245 2.002 . S
O246 C263 1.295 . S
O247 Fe242 1.997 . S
O247 C263 1.235 . S
O248 Fe242 2.002 . S
O248 C249 1.295 . S
C249 O248 1.295 . S
C249 O251 1.235 . S
C250 O255 1.287 . S
C250 O256 1.255 . S
O251 Fe243 1.997 . S
O251 C249 1.235 . S
C252 O258 1.287 . S
C252 O259 1.255 . S
O253 Fe242 1.976 1_554 S
O253 C260 1.287 . S
O254 Fe243 1.996 . S
O254 C260 1.255 1_556 S
O255 Fe245 1.976 . S
O255 C250 1.287 . S
O256 Fe242 1.996 . S
O256 C250 1.255 . S
C257 O261 1.295 . S
C257 O262 1.235 . S
O258 Fe243 1.976 . S
O258 C252 1.287 . S
O259 Fe245 1.996 . S
O259 C252 1.255 . S
C260 O253 1.287 . S
C260 O254 1.255 1_554 S
O261 Fe243 2.002 . S
O261 C257 1.295 . S
O262 Fe245 1.997 . S
O262 C257 1.235 . S
C263 O246 1.295 . S
C263 O247 1.235 . S
Fe264 O266 1.918 . S
Fe264 O269 1.997 . S
Fe264 O270 2.002 . S
Fe264 O275 1.976 . S
Fe264 O278 1.996 . S
Fe265 O266 1.918 . S
Fe265 O273 1.997 . S
Fe265 O276 1.996 . S
Fe265 O280 1.976 . S
Fe265 O283 2.002 . S
O266 Fe264 1.918 . S
O266 Fe265 1.918 . S
O266 Fe267 1.918 . S
Fe267 O266 1.918 . S
Fe267 O268 2.002 . S
Fe267 O277 1.976 . S
Fe267 O281 1.996 . S
Fe267 O284 1.997 . S
O268 Fe267 2.002 . S
O268 C285 1.295 . S
O269 Fe264 1.997 . S
O269 C285 1.235 . S
O270 Fe264 2.002 . S
O270 C271 1.295 . S
C271 O270 1.295 . S
C271 O273 1.235 . S
C272 O277 1.287 . S
C272 O278 1.255 . S
O273 Fe265 1.997 . S
O273 C271 1.235 . S
C274 O280 1.287 . S
C274 O281 1.255 . S
O275 Fe264 1.976 . S
O275 C282 1.287 . S
O276 Fe265 1.996 . S
O276 C282 1.255 . S
O277 Fe267 1.976 . S
O277 C272 1.287 . S
O278 Fe264 1.996 . S
O278 C272 1.255 . S
C279 O283 1.295 . S
C279 O284 1.235 . S
O280 Fe265 1.976 . S
O280 C274 1.287 . S
O281 Fe267 1.996 . S
O281 C274 1.255 . S
C282 O275 1.287 . S
C282 O276 1.255 . S
O283 Fe265 2.002 . S
O283 C279 1.295 . S
O284 Fe267 1.997 . S
O284 C279 1.235 . S
C285 O268 1.295 . S
C285 O269 1.235 . S
Fe286 O288 1.918 . S
Fe286 O291 1.997 . S
Fe286 O292 2.002 . S
Fe286 O297 1.976 . S
Fe286 O300 1.996 . S
Fe287 O288 1.918 . S
Fe287 O295 1.997 . S
Fe287 O298 1.996 . S
Fe287 O302 1.976 . S
Fe287 O305 2.002 . S
O288 Fe286 1.918 . S
O288 Fe287 1.918 . S
O288 Fe289 1.918 . S
Fe289 O288 1.918 . S
Fe289 O290 2.002 . S
Fe289 O299 1.976 . S
Fe289 O303 1.996 . S
Fe289 O306 1.997 . S
O290 Fe289 2.002 . S
O290 C307 1.295 . S
O291 Fe286 1.997 . S
O291 C307 1.235 . S
O292 Fe286 2.002 . S
O292 C293 1.295 . S
C293 O292 1.295 . S
C293 O295 1.235 . S
C294 O299 1.287 . S
C294 O300 1.255 . S
O295 Fe287 1.997 . S
O295 C293 1.235 . S
C296 O302 1.287 . S
C296 O303 1.255 . S
O297 Fe286 1.976 . S
O297 C304 1.287 . S
O298 Fe287 1.996 . S
O298 C304 1.255 . S
O299 Fe289 1.976 . S
O299 C294 1.287 . S
O300 Fe286 1.996 . S
O300 C294 1.255 . S
C301 O305 1.295 . S
C301 O306 1.235 . S
O302 Fe287 1.976 . S
O302 C296 1.287 . S
O303 Fe289 1.996 . S
O303 C296 1.255 . S
C304 O297 1.287 . S
C304 O298 1.255 . S
O305 Fe287 2.002 . S
O305 C301 1.295 . S
O306 Fe289 1.997 . S
O306 C301 1.235 . S
C307 O290 1.295 . S
C307 O291 1.235 . S
Fe308 O310 1.918 . S
Fe308 O313 1.997 . S
Fe308 O314 2.002 . S
Fe308 O319 1.976 . S
Fe308 O322 1.996 . S
Fe309 O310 1.918 . S
Fe309 O317 1.997 . S
Fe309 O320 1.996 . S
Fe309 O324 1.976 . S
Fe309 O327 2.002 . S
O310 Fe308 1.918 . S
O310 Fe309 1.918 . S
O310 Fe311 1.918 . S
Fe311 O310 1.918 . S
Fe311 O312 2.002 . S
Fe311 O321 1.976 . S
Fe311 O325 1.996 . S
Fe311 O328 1.997 . S
O312 Fe311 2.002 . S
O312 C329 1.295 . S
O313 Fe308 1.997 . S
O313 C329 1.235 . S
O314 Fe308 2.002 . S
O314 C315 1.295 . S
C315 O314 1.295 . S
C315 O317 1.235 . S
C316 O321 1.287 . S
C316 O322 1.255 . S
O317 Fe309 1.997 . S
O317 C315 1.235 . S
C318 O324 1.287 . S
C318 O325 1.255 . S
O319 Fe308 1.976 . S
O319 C326 1.287 . S
O320 Fe309 1.996 . S
O320 C326 1.255 . S
O321 Fe311 1.976 . S
O321 C316 1.287 . S
O322 Fe308 1.996 . S
O322 C316 1.255 . S
C323 O327 1.295 . S
C323 O328 1.235 . S
O324 Fe309 1.976 . S
O324 C318 1.287 . S
O325 Fe311 1.996 . S
O325 C318 1.255 . S
C326 O319 1.287 . S
C326 O320 1.255 . S
O327 Fe309 2.002 . S
O327 C323 1.295 . S
O328 Fe311 1.997 . S
O328 C323 1.235 . S
C329 O312 1.295 . S
C329 O313 1.235 . S
Fe330 O332 1.918 . S
Fe330 O335 1.997 . S
Fe330 O336 2.002 . S
Fe330 O341 1.976 . S
Fe330 O344 1.996 . S
Fe331 O332 1.918 . S
Fe331 O339 1.997 . S
Fe331 O342 1.996 . S
Fe331 O346 1.976 . S
Fe331 O349 2.002 . S
O332 Fe330 1.918 . S
O332 Fe331 1.918 . S
O332 Fe333 1.918 . S
Fe333 O332 1.918 . S
Fe333 O334 2.002 . S
Fe333 O343 1.976 1_554 S
Fe333 O347 1.996 . S
Fe333 O350 1.997 . S
O334 Fe333 2.002 . S
O334 C351 1.295 . S
O335 Fe330 1.997 . S
O335 C351 1.235 . S
O336 Fe330 2.002 . S
O336 C337 1.295 . S
C337 O336 1.295 . S
C337 O339 1.235 . S
C338 O343 1.287 . S
C338 O344 1.255 1_556 S
O339 Fe331 1.997 . S
O339 C337 1.235 . S
C340 O346 1.287 . S
C340 O347 1.255 . S
O341 Fe330 1.976 . S
O341 C348 1.287 . S
O342 Fe331 1.996 . S
O342 C348 1.255 . S
O343 Fe333 1.976 1_556 S
O343 C338 1.287 . S
O344 Fe330 1.996 . S
O344 C338 1.255 1_554 S
C345 O349 1.295 . S
C345 O350 1.235 . S
O346 Fe331 1.976 . S
O346 C340 1.287 . S
O347 Fe333 1.996 . S
O347 C340 1.255 . S
C348 O341 1.287 . S
C348 O342 1.255 . S
O349 Fe331 2.002 . S
O349 C345 1.295 . S
O350 Fe333 1.997 . S
O350 C345 1.235 . S
C351 O334 1.295 . S
C351 O335 1.235 . S
Fe352 O354 1.918 . S
Fe352 O357 1.997 . S
Fe352 O358 2.002 . S
Fe352 O363 1.976 . S
Fe352 O366 1.996 . S
Fe353 O354 1.918 . S
Fe353 O361 1.997 . S
Fe353 O364 1.996 . S
Fe353 O368 1.976 . S
Fe353 O371 2.002 . S
O354 Fe352 1.918 . S
O354 Fe353 1.918 . S
O354 Fe355 1.918 . S
Fe355 O354 1.918 . S
Fe355 O356 2.002 . S
Fe355 O365 1.976 . S
Fe355 O369 1.996 . S
Fe355 O372 1.997 . S
O356 Fe355 2.002 . S
O356 C373 1.295 . S
O357 Fe352 1.997 . S
O357 C373 1.235 . S
O358 Fe352 2.002 . S
O358 C359 1.295 . S
C359 O358 1.295 . S
C359 O361 1.235 . S
C360 O365 1.287 . S
C360 O366 1.255 . S
O361 Fe353 1.997 . S
O361 C359 1.235 . S
C362 O368 1.287 . S
C362 O369 1.255 . S
O363 Fe352 1.976 . S
O363 C370 1.287 . S
O364 Fe353 1.996 . S
O364 C370 1.255 . S
O365 Fe355 1.976 . S
O365 C360 1.287 . S
O366 Fe352 1.996 . S
O366 C360 1.255 . S
C367 O371 1.295 . S
C367 O372 1.235 . S
O368 Fe353 1.976 . S
O368 C362 1.287 . S
O369 Fe355 1.996 . S
O369 C362 1.255 . S
C370 O363 1.287 . S
C370 O364 1.255 . S
O371 Fe353 2.002 . S
O371 C367 1.295 . S
O372 Fe355 1.997 . S
O372 C367 1.235 . S
C373 O356 1.295 . S
C373 O357 1.235 . S
Fe374 O376 1.918 . S
Fe374 O379 1.997 . S
Fe374 O380 2.002 . S
Fe374 O385 1.976 . S
Fe374 O388 1.996 . S
Fe375 O376 1.918 . S
Fe375 O383 1.997 . S
Fe375 O386 1.996 . S
Fe375 O390 1.976 . S
Fe375 O393 2.002 . S
O376 Fe374 1.918 . S
O376 Fe375 1.918 . S
O376 Fe377 1.918 . S
Fe377 O376 1.918 . S
Fe377 O378 2.002 . S
Fe377 O387 1.976 . S
Fe377 O391 1.996 1_554 S
Fe377 O394 1.997 . S
O378 Fe377 2.002 . S
O378 C395 1.295 . S
O379 Fe374 1.997 . S
O379 C395 1.235 . S
O380 Fe374 2.002 . S
O380 C381 1.295 . S
C381 O380 1.295 . S
C381 O383 1.235 . S
C382 O387 1.287 . S
C382 O388 1.255 . S
O383 Fe375 1.997 . S
O383 C381 1.235 . S
C384 O390 1.287 1_556 S
C384 O391 1.255 . S
O385 Fe374 1.976 . S
O385 C392 1.287 . S
O386 Fe375 1.996 . S
O386 C392 1.255 . S
O387 Fe377 1.976 . S
O387 C382 1.287 . S
O388 Fe374 1.996 . S
O388 C382 1.255 . S
C389 O393 1.295 . S
C389 O394 1.235 . S
O390 Fe375 1.976 . S
O390 C384 1.287 1_554 S
O391 Fe377 1.996 1_556 S
O391 C384 1.255 . S
C392 O385 1.287 . S
C392 O386 1.255 . S
O393 Fe375 2.002 . S
O393 C389 1.295 . S
O394 Fe377 1.997 . S
O394 C389 1.235 . S
C395 O378 1.295 . S
C395 O379 1.235 . S
Fe396 O398 1.918 . S
Fe396 O401 1.997 . S
Fe396 O402 2.002 . S
Fe396 O407 1.976 . S
Fe396 O410 1.996 . S
Fe397 O398 1.918 . S
Fe397 O405 1.997 . S
Fe397 O408 1.996 . S
Fe397 O412 1.976 . S
Fe397 O415 2.002 . S
O398 Fe396 1.918 . S
O398 Fe397 1.918 . S
O398 Fe399 1.918 . S
Fe399 O398 1.918 . S
Fe399 O400 2.002 . S
Fe399 O409 1.976 . S
Fe399 O413 1.996 . S
Fe399 O416 1.997 . S
O400 Fe399 2.002 . S
O400 C417 1.295 . S
O401 Fe396 1.997 . S
O401 C417 1.235 . S
O402 Fe396 2.002 . S
O402 C403 1.295 . S
C403 O402 1.295 . S
C403 O405 1.235 . S
C404 O409 1.287 . S
C404 O410 1.255 . S
O405 Fe397 1.997 . S
O405 C403 1.235 . S
C406 O412 1.287 . S
C406 O413 1.255 . S
O407 Fe396 1.976 . S
O407 C414 1.287 . S
O408 Fe397 1.996 . S
O408 C414 1.255 . S
O409 Fe399 1.976 . S
O409 C404 1.287 . S
O410 Fe396 1.996 . S
O410 C404 1.255 . S
C411 O415 1.295 . S
C411 O416 1.235 . S
O412 Fe397 1.976 . S
O412 C406 1.287 . S
O413 Fe399 1.996 . S
O413 C406 1.255 . S
C414 O407 1.287 . S
C414 O408 1.255 . S
O415 Fe397 2.002 . S
O415 C411 1.295 . S
O416 Fe399 1.997 . S
O416 C411 1.235 . S
C417 O400 1.295 . S
C417 O401 1.235 . S
Fe418 O420 1.918 . S
Fe418 O423 1.997 . S
Fe418 O424 2.002 . S
Fe418 O429 1.976 . S
Fe418 O432 1.996 . S
Fe419 O420 1.918 . S
Fe419 O427 1.997 . S
Fe419 O430 1.996 . S
Fe419 O434 1.976 . S
Fe419 O437 2.002 . S
O420 Fe418 1.918 . S
O420 Fe419 1.918 . S
O420 Fe421 1.918 . S
Fe421 O420 1.918 . S
Fe421 O422 2.002 . S
Fe421 O431 1.976 . S
Fe421 O435 1.996 . S
Fe421 O438 1.997 . S
O422 Fe421 2.002 . S
O422 C439 1.295 . S
O423 Fe418 1.997 . S
O423 C439 1.235 . S
O424 Fe418 2.002 . S
O424 C425 1.295 . S
C425 O424 1.295 . S
C425 O427 1.235 . S
C426 O431 1.287 . S
C426 O432 1.255 . S
O427 Fe419 1.997 . S
O427 C425 1.235 . S
C428 O434 1.287 . S
C428 O435 1.255 . S
O429 Fe418 1.976 . S
O429 C436 1.287 . S
O430 Fe419 1.996 . S
O430 C436 1.255 . S
O431 Fe421 1.976 . S
O431 C426 1.287 . S
O432 Fe418 1.996 . S
O432 C426 1.255 . S
C433 O437 1.295 . S
C433 O438 1.235 . S
O434 Fe419 1.976 . S
O434 C428 1.287 . S
O435 Fe421 1.996 . S
O435 C428 1.255 . S
C436 O429 1.287 . S
C436 O430 1.255 . S
O437 Fe419 2.002 . S
O437 C433 1.295 . S
O438 Fe421 1.997 . S
O438 C433 1.235 . S
C439 O422 1.295 . S
C439 O423 1.235 . S
Fe440 O442 1.918 . S
Fe440 O445 1.997 . S
Fe440 O446 2.002 . S
Fe440 O451 1.976 . S
Fe440 O454 1.996 . S
Fe441 O442 1.918 . S
Fe441 O449 1.997 . S
Fe441 O452 1.996 . S
Fe441 O456 1.976 . S
Fe441 O459 2.002 . S
O442 Fe440 1.918 . S
O442 Fe441 1.918 . S
O442 Fe443 1.918 . S
Fe443 O442 1.918 . S
Fe443 O444 2.002 . S
Fe443 O453 1.976 . S
Fe443 O457 1.996 . S
Fe443 O460 1.997 . S
O444 Fe443 2.002 . S
O444 C461 1.295 . S
O445 Fe440 1.997 . S
O445 C461 1.235 . S
O446 Fe440 2.002 . S
O446 C447 1.295 . S
C447 O446 1.295 . S
C447 O449 1.235 . S
C448 O453 1.287 . S
C448 O454 1.255 . S
O449 Fe441 1.997 . S
O449 C447 1.235 . S
C450 O456 1.287 . S
C450 O457 1.255 . S
O451 Fe440 1.976 . S
O451 C458 1.287 . S
O452 Fe441 1.996 . S
O452 C458 1.255 . S
O453 Fe443 1.976 . S
O453 C448 1.287 . S
O454 Fe440 1.996 . S
O454 C448 1.255 . S
C455 O459 1.295 . S
C455 O460 1.235 . S
O456 Fe441 1.976 . S
O456 C450 1.287 . S
O457 Fe443 1.996 . S
O457 C450 1.255 . S
C458 O451 1.287 . S
C458 O452 1.255 . S
O459 Fe441 2.002 . S
O459 C455 1.295 . S
O460 Fe443 1.997 . S
O460 C455 1.235 . S
C461 O444 1.295 . S
C461 O445 1.235 . S
Fe462 O464 1.918 . S
Fe462 O467 1.997 . S
Fe462 O468 2.002 . S
Fe462 O473 1.976 . S
Fe462 O476 1.996 1_556 S
Fe463 O464 1.918 . S
Fe463 O471 1.997 . S
Fe463 O474 1.996 . S
Fe463 O478 1.976 . S
Fe463 O481 2.002 . S
O464 Fe462 1.918 . S
O464 Fe463 1.918 . S
O464 Fe465 1.918 . S
Fe465 O464 1.918 . S
Fe465 O466 2.002 . S
Fe465 O475 1.976 . S
Fe465 O479 1.996 . S
Fe465 O482 1.997 . S
O466 Fe465 2.002 . S
O466 C483 1.295 . S
O467 Fe462 1.997 . S
O467 C483 1.235 . S
O468 Fe462 2.002 . S
O468 C469 1.295 . S
C469 O468 1.295 . S
C469 O471 1.235 . S
C470 O475 1.287 1_554 S
C470 O476 1.255 . S
O471 Fe463 1.997 . S
O471 C469 1.235 . S
C472 O478 1.287 . S
C472 O479 1.255 . S
O473 Fe462 1.976 . S
O473 C480 1.287 . S
O474 Fe463 1.996 . S
O474 C480 1.255 . S
O475 Fe465 1.976 . S
O475 C470 1.287 1_556 S
O476 Fe462 1.996 1_554 S
O476 C470 1.255 . S
C477 O481 1.295 . S
C477 O482 1.235 . S
O478 Fe463 1.976 . S
O478 C472 1.287 . S
O479 Fe465 1.996 . S
O479 C472 1.255 . S
C480 O473 1.287 . S
C480 O474 1.255 . S
O481 Fe463 2.002 . S
O481 C477 1.295 . S
O482 Fe465 1.997 . S
O482 C477 1.235 . S
C483 O466 1.295 . S
C483 O467 1.235 . S
Fe484 O486 1.918 . S
Fe484 O489 1.997 . S
Fe484 O490 2.002 . S
Fe484 O495 1.976 . S
Fe484 O498 1.996 . S
Fe485 O486 1.918 . S
Fe485 O493 1.997 . S
Fe485 O496 1.996 . S
Fe485 O500 1.976 . S
Fe485 O503 2.002 . S
O486 Fe484 1.918 . S
O486 Fe485 1.918 . S
O486 Fe487 1.918 . S
Fe487 O486 1.918 . S
Fe487 O488 2.002 . S
Fe487 O497 1.976 . S
Fe487 O501 1.996 . S
Fe487 O504 1.997 . S
O488 Fe487 2.002 . S
O488 C505 1.295 . S
O489 Fe484 1.997 . S
O489 C505 1.235 . S
O490 Fe484 2.002 . S
O490 C491 1.295 . S
C491 O490 1.295 . S
C491 O493 1.235 . S
C492 O497 1.287 . S
C492 O498 1.255 . S
O493 Fe485 1.997 . S
O493 C491 1.235 . S
C494 O500 1.287 . S
C494 O501 1.255 . S
O495 Fe484 1.976 . S
O495 C502 1.287 . S
O496 Fe485 1.996 . S
O496 C502 1.255 . S
O497 Fe487 1.976 . S
O497 C492 1.287 . S
O498 Fe484 1.996 . S
O498 C492 1.255 . S
C499 O503 1.295 . S
C499 O504 1.235 . S
O500 Fe485 1.976 . S
O500 C494 1.287 . S
O501 Fe487 1.996 . S
O501 C494 1.255 . S
C502 O495 1.287 . S
C502 O496 1.255 . S
O503 Fe485 2.002 . S
O503 C499 1.295 . S
O504 Fe487 1.997 . S
O504 C499 1.235 . S
C505 O488 1.295 . S
C505 O489 1.235 . S
Fe506 O508 1.918 . S
Fe506 O511 1.997 . S
Fe506 O512 2.002 . S
Fe506 O517 1.976 . S
Fe506 O520 1.996 . S
Fe507 O508 1.918 . S
Fe507 O515 1.997 . S
Fe507 O518 1.996 . S
Fe507 O522 1.976 . S
Fe507 O525 2.002 . S
O508 Fe506 1.918 . S
O508 Fe507 1.918 . S
O508 Fe509 1.918 . S
Fe509 O508 1.918 . S
Fe509 O510 2.002 . S
Fe509 O519 1.976 . S
Fe509 O523 1.996 . S
Fe509 O526 1.997 . S
O510 Fe509 2.002 . S
O510 C527 1.295 . S
O511 Fe506 1.997 . S
O511 C527 1.235 . S
O512 Fe506 2.002 . S
O512 C513 1.295 . S
C513 O512 1.295 . S
C513 O515 1.235 . S
C514 O519 1.287 . S
C514 O520 1.255 . S
O515 Fe507 1.997 . S
O515 C513 1.235 . S
C516 O522 1.287 . S
C516 O523 1.255 . S
O517 Fe506 1.976 . S
O517 C524 1.287 . S
O518 Fe507 1.996 . S
O518 C524 1.255 . S
O519 Fe509 1.976 . S
O519 C514 1.287 . S
O520 Fe506 1.996 . S
O520 C514 1.255 . S
C521 O525 1.295 . S
C521 O526 1.235 . S
O522 Fe507 1.976 . S
O522 C516 1.287 . S
O523 Fe509 1.996 . S
O523 C516 1.255 . S
C524 O517 1.287 . S
C524 O518 1.255 . S
O525 Fe507 2.002 . S
O525 C521 1.295 . S
O526 Fe509 1.997 . S
O526 C521 1.235 . S
C527 O510 1.295 . S
C527 O511 1.235 . S
Fe528 O530 1.918 . S
Fe528 O533 1.997 . S
Fe528 O534 2.002 . S
Fe528 O539 1.976 . S
Fe528 O542 1.996 . S
Fe529 O530 1.918 . S
Fe529 O537 1.997 . S
Fe529 O540 1.996 . S
Fe529 O544 1.976 . S
Fe529 O547 2.002 . S
O530 Fe528 1.918 . S
O530 Fe529 1.918 . S
O530 Fe531 1.918 . S
Fe531 O530 1.918 . S
Fe531 O532 2.002 . S
Fe531 O541 1.976 . S
Fe531 O545 1.996 . S
Fe531 O548 1.997 . S
O532 Fe531 2.002 . S
O532 C549 1.295 . S
O533 Fe528 1.997 . S
O533 C549 1.235 . S
O534 Fe528 2.002 . S
O534 C535 1.295 . S
C535 O534 1.295 . S
C535 O537 1.235 . S
C536 O541 1.287 . S
C536 O542 1.255 . S
O537 Fe529 1.997 . S
O537 C535 1.235 . S
C538 O544 1.287 . S
C538 O545 1.255 . S
O539 Fe528 1.976 . S
O539 C546 1.287 . S
O540 Fe529 1.996 . S
O540 C546 1.255 . S
O541 Fe531 1.976 . S
O541 C536 1.287 . S
O542 Fe528 1.996 . S
O542 C536 1.255 . S
C543 O547 1.295 . S
C543 O548 1.235 . S
O544 Fe529 1.976 . S
O544 C538 1.287 . S
O545 Fe531 1.996 . S
O545 C538 1.255 . S
C546 O539 1.287 . S
C546 O540 1.255 . S
O547 Fe529 2.002 . S
O547 C543 1.295 . S
O548 Fe531 1.997 . S
O548 C543 1.235 . S
C549 O532 1.295 . S
C549 O533 1.235 . S
Fe550 O552 1.918 . S
Fe550 O555 1.997 . S
Fe550 O556 2.002 . S
Fe550 O561 1.976 . S
Fe550 O564 1.996 . S
Fe551 O552 1.918 . S
Fe551 O559 1.997 . S
Fe551 O562 1.996 . S
Fe551 O566 1.976 . S
Fe551 O569 2.002 . S
O552 Fe550 1.918 . S
O552 Fe551 1.918 . S
O552 Fe553 1.918 . S
Fe553 O552 1.918 . S
Fe553 O554 2.002 . S
Fe553 O563 1.976 1_556 S
Fe553 O567 1.996 . S
Fe553 O570 1.997 . S
O554 Fe553 2.002 . S
O554 C571 1.295 . S
O555 Fe550 1.997 . S
O555 C571 1.235 . S
O556 Fe550 2.002 . S
O556 C557 1.295 . S
C557 O556 1.295 . S
C557 O559 1.235 . S
C558 O563 1.287 . S
C558 O564 1.255 1_554 S
O559 Fe551 1.997 . S
O559 C557 1.235 . S
C560 O566 1.287 . S
C560 O567 1.255 . S
O561 Fe550 1.976 . S
O561 C568 1.287 . S
O562 Fe551 1.996 . S
O562 C568 1.255 . S
O563 Fe553 1.976 1_554 S
O563 C558 1.287 . S
O564 Fe550 1.996 . S
O564 C558 1.255 1_556 S
C565 O569 1.295 . S
C565 O570 1.235 . S
O566 Fe551 1.976 . S
O566 C560 1.287 . S
O567 Fe553 1.996 . S
O567 C560 1.255 . S
C568 O561 1.287 . S
C568 O562 1.255 . S
O569 Fe551 2.002 . S
O569 C565 1.295 . S
O570 Fe553 1.997 . S
O570 C565 1.235 . S
C571 O554 1.295 . S
C571 O555 1.235 . S
Fe572 O574 1.918 . S
Fe572 O577 1.997 . S
Fe572 O578 2.002 . S
Fe572 O583 1.976 . S
Fe572 O586 1.996 . S
Fe573 O574 1.918 . S
Fe573 O581 1.997 . S
Fe573 O584 1.996 . S
Fe573 O588 1.976 . S
Fe573 O591 2.002 . S
O574 Fe572 1.918 . S
O574 Fe573 1.918 . S
O574 Fe575 1.918 . S
Fe575 O574 1.918 . S
Fe575 O576 2.002 . S
Fe575 O585 1.976 . S
Fe575 O589 1.996 . S
Fe575 O592 1.997 . S
O576 Fe575 2.002 . S
O576 C593 1.295 . S
O577 Fe572 1.997 . S
O577 C593 1.235 . S
O578 Fe572 2.002 . S
O578 C579 1.295 . S
C579 O578 1.295 . S
C579 O581 1.235 . S
C580 O585 1.287 . S
C580 O586 1.255 . S
O581 Fe573 1.997 . S
O581 C579 1.235 . S
C582 O588 1.287 . S
C582 O589 1.255 . S
O583 Fe572 1.976 . S
O583 C590 1.287 . S
O584 Fe573 1.996 . S
O584 C590 1.255 . S
O585 Fe575 1.976 . S
O585 C580 1.287 . S
O586 Fe572 1.996 . S
O586 C580 1.255 . S
C587 O591 1.295 . S
C587 O592 1.235 . S
O588 Fe573 1.976 . S
O588 C582 1.287 . S
O589 Fe575 1.996 . S
O589 C582 1.255 . S
C590 O583 1.287 . S
C590 O584 1.255 . S
O591 Fe573 2.002 . S
O591 C587 1.295 . S
O592 Fe575 1.997 . S
O592 C587 1.235 . S
C593 O576 1.295 . S
C593 O577 1.235 . S
Fe594 O596 1.918 . S
Fe594 O599 1.997 . S
Fe594 O600 2.002 . S
Fe594 O605 1.976 . S
Fe594 O608 1.996 . S
Fe595 O596 1.918 . S
Fe595 O603 1.997 . S
Fe595 O606 1.996 . S
Fe595 O610 1.976 . S
Fe595 O613 2.002 . S
O596 Fe594 1.918 . S
O596 Fe595 1.918 . S
O596 Fe597 1.918 . S
Fe597 O596 1.918 . S
Fe597 O598 2.002 . S
Fe597 O607 1.976 . S
Fe597 O611 1.996 . S
Fe597 O614 1.997 . S
O598 Fe597 2.002 . S
O598 C615 1.295 . S
O599 Fe594 1.997 . S
O599 C615 1.235 . S
O600 Fe594 2.002 . S
O600 C601 1.295 . S
C601 O600 1.295 . S
C601 O603 1.235 . S
C602 O607 1.287 . S
C602 O608 1.255 . S
O603 Fe595 1.997 . S
O603 C601 1.235 . S
C604 O610 1.287 . S
C604 O611 1.255 . S
O605 Fe594 1.976 . S
O605 C612 1.287 . S
O606 Fe595 1.996 . S
O606 C612 1.255 . S
O607 Fe597 1.976 . S
O607 C602 1.287 . S
O608 Fe594 1.996 . S
O608 C602 1.255 . S
C609 O613 1.295 . S
C609 O614 1.235 . S
O610 Fe595 1.976 . S
O610 C604 1.287 . S
O611 Fe597 1.996 . S
O611 C604 1.255 . S
C612 O605 1.287 . S
C612 O606 1.255 . S
O613 Fe595 2.002 . S
O613 C609 1.295 . S
O614 Fe597 1.997 . S
O614 C609 1.235 . S
C615 O598 1.295 . S
C615 O599 1.235 . S
Fe616 O618 1.918 . S
Fe616 O621 1.997 . S
Fe616 O622 2.002 . S
Fe616 O627 1.976 . S
Fe616 O630 1.996 . S
Fe617 O618 1.918 . S
Fe617 O625 1.997 . S
Fe617 O628 1.996 . S
Fe617 O632 1.976 . S
Fe617 O635 2.002 . S
O618 Fe616 1.918 . S
O618 Fe617 1.918 . S
O618 Fe619 1.918 . S
Fe619 O618 1.918 . S
Fe619 O620 2.002 . S
Fe619 O629 1.976 . S
Fe619 O633 1.996 . S
Fe619 O636 1.997 . S
O620 Fe619 2.002 . S
O620 C637 1.295 . S
O621 Fe616 1.997 . S
O621 C637 1.235 . S
O622 Fe616 2.002 . S
O622 C623 1.295 . S
C623 O622 1.295 . S
C623 O625 1.235 . S
C624 O629 1.287 . S
C624 O630 1.255 . S
O625 Fe617 1.997 . S
O625 C623 1.235 . S
C626 O632 1.287 . S
C626 O633 1.255 . S
O627 Fe616 1.976 . S
O627 C634 1.287 . S
O628 Fe617 1.996 . S
O628 C634 1.255 . S
O629 Fe619 1.976 . S
O629 C624 1.287 . S
O630 Fe616 1.996 . S
O630 C624 1.255 . S
C631 O635 1.295 . S
C631 O636 1.235 . S
O632 Fe617 1.976 . S
O632 C626 1.287 . S
O633 Fe619 1.996 . S
O633 C626 1.255 . S
C634 O627 1.287 . S
C634 O628 1.255 . S
O635 Fe617 2.002 . S
O635 C631 1.295 . S
O636 Fe619 1.997 . S
O636 C631 1.235 . S
C637 O620 1.295 . S
C637 O621 1.235 . S
Fe638 O640 1.918 . S
Fe638 O643 1.997 . S
Fe638 O644 2.002 . S
Fe638 O649 1.976 1_554 S
Fe638 O652 1.996 . S
Fe639 O640 1.918 . S
Fe639 O647 1.997 . S
Fe639 O650 1.996 . S
Fe639 O654 1.976 . S
Fe639 O657 2.002 . S
O640 Fe638 1.918 . S
O640 Fe639 1.918 . S
O640 Fe641 1.918 . S
Fe641 O640 1.918 . S
Fe641 O642 2.002 . S
Fe641 O651 1.976 . S
Fe641 O655 1.996 . S
Fe641 O658 1.997 . S
O642 Fe641 2.002 . S
O642 C659 1.295 . S
O643 Fe638 1.997 . S
O643 C659 1.235 . S
O644 Fe638 2.002 . S
O644 C645 1.295 . S
C645 O644 1.295 . S
C645 O647 1.235 . S
C646 O651 1.287 . S
C646 O652 1.255 . S
O647 Fe639 1.997 . S
O647 C645 1.235 . S
C648 O654 1.287 . S
C648 O655 1.255 . S
O649 Fe638 1.976 1_556 S
O649 C656 1.287 . S
O650 Fe639 1.996 . S
O650 C656 1.255 1_554 S
O651 Fe641 1.976 . S
O651 C646 1.287 . S
O652 Fe638 1.996 . S
O652 C646 1.255 . S
C653 O657 1.295 . S
C653 O658 1.235 . S
O654 Fe639 1.976 . S
O654 C648 1.287 . S
O655 Fe641 1.996 . S
O655 C648 1.255 . S
C656 O649 1.287 . S
C656 O650 1.255 1_556 S
O657 Fe639 2.002 . S
O657 C653 1.295 . S
O658 Fe641 1.997 . S
O658 C653 1.235 . S
C659 O642 1.295 . S
C659 O643 1.235 . S
Fe660 O662 1.918 . S
Fe660 O665 1.997 . S
Fe660 O666 2.002 . S
Fe660 O671 1.976 . S
Fe660 O674 1.996 . S
Fe661 O662 1.918 . S
Fe661 O669 1.997 . S
Fe661 O672 1.996 . S
Fe661 O676 1.976 . S
Fe661 O679 2.002 . S
O662 Fe660 1.918 . S
O662 Fe661 1.918 . S
O662 Fe663 1.918 . S
Fe663 O662 1.918 . S
Fe663 O664 2.002 . S
Fe663 O673 1.976 . S
Fe663 O677 1.996 . S
Fe663 O680 1.997 . S
O664 Fe663 2.002 . S
O664 C681 1.295 . S
O665 Fe660 1.997 . S
O665 C681 1.235 . S
O666 Fe660 2.002 . S
O666 C667 1.295 . S
C667 O666 1.295 . S
C667 O669 1.235 . S
C668 O673 1.287 . S
C668 O674 1.255 . S
O669 Fe661 1.997 . S
O669 C667 1.235 . S
C670 O676 1.287 . S
C670 O677 1.255 . S
O671 Fe660 1.976 . S
O671 C678 1.287 . S
O672 Fe661 1.996 . S
O672 C678 1.255 . S
O673 Fe663 1.976 . S
O673 C668 1.287 . S
O674 Fe660 1.996 . S
O674 C668 1.255 . S
C675 O679 1.295 . S
C675 O680 1.235 . S
O676 Fe661 1.976 . S
O676 C670 1.287 . S
O677 Fe663 1.996 . S
O677 C670 1.255 . S
C678 O671 1.287 . S
C678 O672 1.255 . S
O679 Fe661 2.002 . S
O679 C675 1.295 . S
O680 Fe663 1.997 . S
O680 C675 1.235 . S
C681 O664 1.295 . S
C681 O665 1.235 . S
Fe682 O684 1.918 . S
Fe682 O687 1.997 . S
Fe682 O688 2.002 . S
Fe682 O693 1.976 . S
Fe682 O696 1.996 . S
Fe683 O684 1.918 . S
Fe683 O691 1.997 . S
Fe683 O694 1.996 . S
Fe683 O698 1.976 . S
Fe683 O701 2.002 . S
O684 Fe682 1.918 . S
O684 Fe683 1.918 . S
O684 Fe685 1.918 . S
Fe685 O684 1.918 . S
Fe685 O686 2.002 . S
Fe685 O695 1.976 . S
Fe685 O699 1.996 . S
Fe685 O702 1.997 . S
O686 Fe685 2.002 . S
O686 C703 1.295 . S
O687 Fe682 1.997 . S
O687 C703 1.235 . S
O688 Fe682 2.002 . S
O688 C689 1.295 . S
C689 O688 1.295 . S
C689 O691 1.235 . S
C690 O695 1.287 . S
C690 O696 1.255 . S
O691 Fe683 1.997 . S
O691 C689 1.235 . S
C692 O698 1.287 . S
C692 O699 1.255 . S
O693 Fe682 1.976 . S
O693 C700 1.287 . S
O694 Fe683 1.996 . S
O694 C700 1.255 . S
O695 Fe685 1.976 . S
O695 C690 1.287 . S
O696 Fe682 1.996 . S
O696 C690 1.255 . S
C697 O701 1.295 . S
C697 O702 1.235 . S
O698 Fe683 1.976 . S
O698 C692 1.287 . S
O699 Fe685 1.996 . S
O699 C692 1.255 . S
C700 O693 1.287 . S
C700 O694 1.255 . S
O701 Fe683 2.002 . S
O701 C697 1.295 . S
O702 Fe685 1.997 . S
O702 C697 1.235 . S
C703 O686 1.295 . S
C703 O687 1.235 . S
H704 C710 0.930 1_556 S
H705 C714 0.930 . S
H706 C719 0.929 . S
H707 C717 0.929 . S
H708 C712 0.929 . S
H709 C718 0.929 . S
C710 H704 0.930 1_554 S
C710 C711 1.367 . S
C710 C718 1.378 . S
C711 C710 1.367 . S
C711 C719 1.433 . S
C712 H708 0.929 . S
C712 C714 1.378 . S
C712 C716 1.350 . S
C713 C716 1.463 . S
C713 C718 1.350 . S
C713 N721 1.427 . S
C714 H705 0.930 . S
C714 C712 1.378 . S
C714 C715 1.367 . S
C715 C714 1.367 . S
C715 C717 1.433 . S
C716 C712 1.350 . S
C716 C713 1.463 . S
C716 N720 1.427 . S
C717 H707 0.929 . S
C717 C715 1.433 . S
C717 N720 1.384 . S
C718 H709 0.929 . S
C718 C710 1.378 . S
C718 C713 1.350 . S
C719 H706 0.929 . S
C719 C711 1.433 . S
C719 N721 1.384 . S
N720 C716 1.427 . S
N720 C717 1.384 . S
N721 C713 1.427 . S
N721 C719 1.384 . S
H722 C728 0.930 . S
H723 C732 0.930 . S
H724 C737 0.929 . S
H725 C735 0.929 . S
H726 C730 0.929 . S
H727 C736 0.929 . S
C728 H722 0.930 . S
C728 C729 1.367 . S
C728 C736 1.378 . S
C729 C728 1.367 . S
C729 C737 1.433 . S
C730 H726 0.929 . S
C730 C732 1.378 . S
C730 C734 1.350 . S
C731 C734 1.463 . S
C731 C736 1.350 1_655 S
C731 N739 1.427 . S
C732 H723 0.930 . S
C732 C730 1.378 . S
C732 C733 1.367 . S
C733 C732 1.367 . S
C733 C735 1.433 . S
C734 C730 1.350 . S
C734 C731 1.463 . S
C734 N738 1.427 . S
C735 H725 0.929 . S
C735 C733 1.433 . S
C735 N738 1.384 . S
C736 H727 0.929 . S
C736 C728 1.378 . S
C736 C731 1.350 1_455 S
C737 H724 0.929 . S
C737 C729 1.433 . S
C737 N739 1.384 1_455 S
N738 C734 1.427 . S
N738 C735 1.384 . S
N739 C731 1.427 . S
N739 C737 1.384 1_655 S
H740 C746 0.930 . S
H741 C750 0.930 . S
H742 C755 0.929 . S
H743 C753 0.929 . S
H744 C748 0.929 . S
H745 C754 0.929 . S
C746 H740 0.930 . S
C746 C747 1.367 . S
C746 C754 1.378 . S
C747 C746 1.367 . S
C747 C755 1.433 . S
C748 H744 0.929 . S
C748 C750 1.378 . S
C748 C752 1.350 . S
C749 C752 1.463 . S
C749 C754 1.350 . S
C749 N757 1.427 . S
C750 H741 0.930 . S
C750 C748 1.378 . S
C750 C751 1.367 . S
C751 C750 1.367 . S
C751 C753 1.433 . S
C752 C748 1.350 . S
C752 C749 1.463 . S
C752 N756 1.427 . S
C753 H743 0.929 . S
C753 C751 1.433 . S
C753 N756 1.384 . S
C754 H745 0.929 . S
C754 C746 1.378 . S
C754 C749 1.350 . S
C755 H742 0.929 . S
C755 C747 1.433 . S
C755 N757 1.384 . S
N756 C752 1.427 . S
N756 C753 1.384 . S
N757 C749 1.427 . S
N757 C755 1.384 . S
H758 C764 0.930 . S
H759 C768 0.930 . S
H760 C773 0.929 . S
H761 C771 0.929 . S
H762 C766 0.929 . S
H763 C772 0.929 . S
C764 H758 0.930 . S
C764 C765 1.367 . S
C764 C772 1.378 . S
C765 C764 1.367 . S
C765 C773 1.433 . S
C766 H762 0.929 . S
C766 C768 1.378 . S
C766 C770 1.350 . S
C767 C770 1.463 . S
C767 C772 1.350 . S
C767 N775 1.427 . S
C768 H759 0.930 . S
C768 C766 1.378 . S
C768 C769 1.367 . S
C769 C768 1.367 . S
C769 C771 1.433 . S
C770 C766 1.350 . S
C770 C767 1.463 . S
C770 N774 1.427 . S
C771 H761 0.929 . S
C771 C769 1.433 . S
C771 N774 1.384 . S
C772 H763 0.929 . S
C772 C764 1.378 . S
C772 C767 1.350 . S
C773 H760 0.929 . S
C773 C765 1.433 . S
C773 N775 1.384 . S
N774 C770 1.427 . S
N774 C771 1.384 . S
N775 C767 1.427 . S
N775 C773 1.384 . S
H776 C782 0.930 . S
H777 C786 0.930 . S
H778 C791 0.929 . S
H779 C789 0.929 . S
H780 C784 0.929 . S
H781 C790 0.929 . S
C782 H776 0.930 . S
C782 C783 1.367 . S
C782 C790 1.378 . S
C783 C782 1.367 . S
C783 C791 1.433 . S
C784 H780 0.929 . S
C784 C786 1.378 . S
C784 C788 1.350 . S
C785 C788 1.463 . S
C785 C790 1.350 . S
C785 N793 1.427 . S
C786 H777 0.930 . S
C786 C784 1.378 . S
C786 C787 1.367 . S
C787 C786 1.367 . S
C787 C789 1.433 . S
C788 C784 1.350 . S
C788 C785 1.463 . S
C788 N792 1.427 . S
C789 H779 0.929 . S
C789 C787 1.433 . S
C789 N792 1.384 . S
C790 H781 0.929 . S
C790 C782 1.378 . S
C790 C785 1.350 . S
C791 H778 0.929 . S
C791 C783 1.433 . S
C791 N793 1.384 . S
N792 C788 1.427 . S
N792 C789 1.384 . S
N793 C785 1.427 . S
N793 C791 1.384 . S
H794 C800 0.930 . S
H795 C804 0.930 . S
H796 C809 0.929 . S
H797 C807 0.929 . S
H798 C802 0.929 . S
H799 C808 0.929 . S
C800 H794 0.930 . S
C800 C801 1.367 . S
C800 C808 1.378 . S
C801 C800 1.367 . S
C801 C809 1.433 . S
C802 H798 0.929 . S
C802 C804 1.378 . S
C802 C806 1.350 . S
C803 C806 1.463 . S
C803 C808 1.350 . S
C803 N811 1.427 . S
C804 H795 0.930 . S
C804 C802 1.378 . S
C804 C805 1.367 . S
C805 C804 1.367 . S
C805 C807 1.433 . S
C806 C802 1.350 . S
C806 C803 1.463 . S
C806 N810 1.427 . S
C807 H797 0.929 . S
C807 C805 1.433 . S
C807 N810 1.384 . S
C808 H799 0.929 . S
C808 C800 1.378 . S
C808 C803 1.350 . S
C809 H796 0.929 . S
C809 C801 1.433 . S
C809 N811 1.384 . S
N810 C806 1.427 . S
N810 C807 1.384 . S
N811 C803 1.427 . S
N811 C809 1.384 . S
H812 C818 0.930 . S
H813 C822 0.930 . S
H814 C827 0.929 . S
H815 C825 0.929 . S
H816 C820 0.929 . S
H817 C826 0.929 . S
C818 H812 0.930 . S
C818 C819 1.367 . S
C818 C826 1.378 . S
C819 C818 1.367 . S
C819 C827 1.433 1_556 S
C820 H816 0.929 . S
C820 C822 1.378 . S
C820 C824 1.350 . S
C821 C824 1.463 . S
C821 C826 1.350 . S
C821 N829 1.427 . S
C822 H813 0.930 . S
C822 C820 1.378 . S
C822 C823 1.367 . S
C823 C822 1.367 . S
C823 C825 1.433 . S
C824 C820 1.350 . S
C824 C821 1.463 . S
C824 N828 1.427 . S
C825 H815 0.929 . S
C825 C823 1.433 . S
C825 N828 1.384 . S
C826 H817 0.929 . S
C826 C818 1.378 . S
C826 C821 1.350 . S
C827 H814 0.929 . S
C827 C819 1.433 1_554 S
C827 N829 1.384 1_554 S
N828 C824 1.427 . S
N828 C825 1.384 . S
N829 C821 1.427 . S
N829 C827 1.384 1_556 S
H830 C836 0.930 . S
H831 C840 0.930 . S
H832 C845 0.929 . S
H833 C843 0.929 . S
H834 C838 0.929 . S
H835 C844 0.929 . S
C836 H830 0.930 . S
C836 C837 1.367 . S
C836 C844 1.378 . S
C837 C836 1.367 . S
C837 C845 1.433 . S
C838 H834 0.929 . S
C838 C840 1.378 1_655 S
C838 C842 1.350 . S
C839 C842 1.463 . S
C839 C844 1.350 . S
C839 N847 1.427 . S
C840 H831 0.930 . S
C840 C838 1.378 1_455 S
C840 C841 1.367 . S
C841 C840 1.367 . S
C841 C843 1.433 . S
C842 C838 1.350 . S
C842 C839 1.463 . S
C842 N846 1.427 1_655 S
C843 H833 0.929 . S
C843 C841 1.433 . S
C843 N846 1.384 . S
C844 H835 0.929 . S
C844 C836 1.378 . S
C844 C839 1.350 . S
C845 H832 0.929 . S
C845 C837 1.433 . S
C845 N847 1.384 . S
N846 C842 1.427 1_455 S
N846 C843 1.384 . S
N847 C839 1.427 . S
N847 C845 1.384 . S
H848 C854 0.930 . S
H849 C858 0.930 1_554 S
H850 C863 0.929 . S
H851 C861 0.929 . S
H852 C856 0.929 . S
H853 C862 0.929 . S
C854 H848 0.930 . S
C854 C855 1.367 . S
C854 C862 1.378 . S
C855 C854 1.367 . S
C855 C863 1.433 . S
C856 H852 0.929 . S
C856 C858 1.378 . S
C856 C860 1.350 . S
C857 C860 1.463 . S
C857 C862 1.350 . S
C857 N865 1.427 . S
C858 H849 0.930 1_556 S
C858 C856 1.378 . S
C858 C859 1.367 . S
C859 C858 1.367 . S
C859 C861 1.433 . S
C860 C856 1.350 . S
C860 C857 1.463 . S
C860 N864 1.427 . S
C861 H851 0.929 . S
C861 C859 1.433 . S
C861 N864 1.384 . S
C862 H853 0.929 . S
C862 C854 1.378 . S
C862 C857 1.350 . S
C863 H850 0.929 . S
C863 C855 1.433 . S
C863 N865 1.384 . S
N864 C860 1.427 . S
N864 C861 1.384 . S
N865 C857 1.427 . S
N865 C863 1.384 . S
H866 C872 0.930 . S
H867 C876 0.930 . S
H868 C881 0.929 . S
H869 C879 0.929 . S
H870 C874 0.929 . S
H871 C880 0.929 . S
C872 H866 0.930 . S
C872 C873 1.367 . S
C872 C880 1.378 1_655 S
C873 C872 1.367 . S
C873 C881 1.433 . S
C874 H870 0.929 . S
C874 C876 1.378 . S
C874 C878 1.350 . S
C875 C878 1.463 . S
C875 C880 1.350 . S
C875 N883 1.427 1_455 S
C876 H867 0.930 . S
C876 C874 1.378 . S
C876 C877 1.367 . S
C877 C876 1.367 . S
C877 C879 1.433 . S
C878 C874 1.350 . S
C878 C875 1.463 . S
C878 N882 1.427 . S
C879 H869 0.929 . S
C879 C877 1.433 . S
C879 N882 1.384 . S
C880 H871 0.929 . S
C880 C872 1.378 1_455 S
C880 C875 1.350 . S
C881 H868 0.929 . S
C881 C873 1.433 . S
C881 N883 1.384 . S
N882 C878 1.427 . S
N882 C879 1.384 . S
N883 C875 1.427 1_655 S
N883 C881 1.384 . S
H884 C890 0.930 . S
H885 C894 0.930 . S
H886 C899 0.929 . S
H887 C897 0.929 . S
H888 C892 0.929 . S
H889 C898 0.929 . S
C890 H884 0.930 . S
C890 C891 1.367 . S
C890 C898 1.378 . S
C891 C890 1.367 . S
C891 C899 1.433 . S
C892 H888 0.929 . S
C892 C894 1.378 . S
C892 C896 1.350 . S
C893 C896 1.463 . S
C893 C898 1.350 . S
C893 N901 1.427 . S
C894 H885 0.930 . S
C894 C892 1.378 . S
C894 C895 1.367 . S
C895 C894 1.367 . S
C895 C897 1.433 . S
C896 C892 1.350 . S
C896 C893 1.463 . S
C896 N900 1.427 . S
C897 H887 0.929 . S
C897 C895 1.433 . S
C897 N900 1.384 . S
C898 H889 0.929 . S
C898 C890 1.378 . S
C898 C893 1.350 . S
C899 H886 0.929 . S
C899 C891 1.433 . S
C899 N901 1.384 . S
N900 C896 1.427 . S
N900 C897 1.384 . S
N901 C893 1.427 . S
N901 C899 1.384 . S
H902 C908 0.930 . S
H903 C912 0.930 . S
H904 C917 0.929 . S
H905 C915 0.929 . S
H906 C910 0.929 . S
H907 C916 0.929 . S
C908 H902 0.930 . S
C908 C909 1.367 . S
C908 C916 1.378 . S
C909 C908 1.367 . S
C909 C917 1.433 . S
C910 H906 0.929 . S
C910 C912 1.378 . S
C910 C914 1.350 . S
C911 C914 1.463 . S
C911 C916 1.350 . S
C911 N919 1.427 . S
C912 H903 0.930 . S
C912 C910 1.378 . S
C912 C913 1.367 . S
C913 C912 1.367 . S
C913 C915 1.433 . S
C914 C910 1.350 . S
C914 C911 1.463 . S
C914 N918 1.427 . S
C915 H905 0.929 . S
C915 C913 1.433 . S
C915 N918 1.384 . S
C916 H907 0.929 . S
C916 C908 1.378 . S
C916 C911 1.350 . S
C917 H904 0.929 . S
C917 C909 1.433 . S
C917 N919 1.384 . S
N918 C914 1.427 . S
N918 C915 1.384 . S
N919 C911 1.427 . S
N919 C917 1.384 . S
H920 C926 0.930 . S
H921 C930 0.930 . S
H922 C935 0.929 . S
H923 C933 0.929 . S
H924 C928 0.929 . S
H925 C934 0.929 . S
C926 H920 0.930 . S
C926 C927 1.367 . S
C926 C934 1.378 . S
C927 C926 1.367 . S
C927 C935 1.433 . S
C928 H924 0.929 . S
C928 C930 1.378 . S
C928 C932 1.350 . S
C929 C932 1.463 . S
C929 C934 1.350 . S
C929 N937 1.427 . S
C930 H921 0.930 . S
C930 C928 1.378 . S
C930 C931 1.367 . S
C931 C930 1.367 . S
C931 C933 1.433 . S
C932 C928 1.350 . S
C932 C929 1.463 . S
C932 N936 1.427 . S
C933 H923 0.929 . S
C933 C931 1.433 . S
C933 N936 1.384 . S
C934 H925 0.929 . S
C934 C926 1.378 . S
C934 C929 1.350 . S
C935 H922 0.929 . S
C935 C927 1.433 . S
C935 N937 1.384 . S
N936 C932 1.427 . S
N936 C933 1.384 . S
N937 C929 1.427 . S
N937 C935 1.384 . S
H938 C944 0.930 . S
H939 C948 0.930 . S
H940 C953 0.929 . S
H941 C951 0.929 . S
H942 C946 0.929 . S
H943 C952 0.929 . S
C944 H938 0.930 . S
C944 C945 1.367 . S
C944 C952 1.378 . S
C945 C944 1.367 . S
C945 C953 1.433 . S
C946 H942 0.929 . S
C946 C948 1.378 . S
C946 C950 1.350 . S
C947 C950 1.463 . S
C947 C952 1.350 . S
C947 N955 1.427 . S
C948 H939 0.930 . S
C948 C946 1.378 . S
C948 C949 1.367 . S
C949 C948 1.367 . S
C949 C951 1.433 . S
C950 C946 1.350 . S
C950 C947 1.463 . S
C950 N954 1.427 . S
C951 H941 0.929 . S
C951 C949 1.433 . S
C951 N954 1.384 . S
C952 H943 0.929 . S
C952 C944 1.378 . S
C952 C947 1.350 . S
C953 H940 0.929 . S
C953 C945 1.433 . S
C953 N955 1.384 . S
N954 C950 1.427 . S
N954 C951 1.384 . S
N955 C947 1.427 . S
N955 C953 1.384 . S
H956 C962 0.930 . S
H957 C966 0.930 . S
H958 C971 0.929 . S
H959 C969 0.929 . S
H960 C964 0.929 . S
H961 C970 0.929 . S
C962 H956 0.930 . S
C962 C963 1.367 . S
C962 C970 1.378 . S
C963 C962 1.367 . S
C963 C971 1.433 . S
C964 H960 0.929 . S
C964 C966 1.378 . S
C964 C968 1.350 . S
C965 C968 1.463 . S
C965 C970 1.350 . S
C965 N973 1.427 . S
C966 H957 0.930 . S
C966 C964 1.378 . S
C966 C967 1.367 . S
C967 C966 1.367 . S
C967 C969 1.433 . S
C968 C964 1.350 . S
C968 C965 1.463 . S
C968 N972 1.427 . S
C969 H959 0.929 . S
C969 C967 1.433 . S
C969 N972 1.384 . S
C970 H961 0.929 . S
C970 C962 1.378 . S
C970 C965 1.350 . S
C971 H958 0.929 . S
C971 C963 1.433 . S
C971 N973 1.384 . S
N972 C968 1.427 . S
N972 C969 1.384 . S
N973 C965 1.427 . S
N973 C971 1.384 . S
H974 C980 0.930 . S
H975 C984 0.930 . S
H976 C989 0.929 . S
H977 C987 0.929 . S
H978 C982 0.929 . S
H979 C988 0.929 . S
C980 H974 0.930 . S
C980 C981 1.367 . S
C980 C988 1.378 . S
C981 C980 1.367 . S
C981 C989 1.433 . S
C982 H978 0.929 . S
C982 C984 1.378 . S
C982 C986 1.350 1_655 S
C983 C986 1.463 . S
C983 C988 1.350 . S
C983 N991 1.427 . S
C984 H975 0.930 . S
C984 C982 1.378 . S
C984 C985 1.367 . S
C985 C984 1.367 . S
C985 C987 1.433 . S
C986 C982 1.350 1_455 S
C986 C983 1.463 . S
C986 N990 1.428 . S
C987 H977 0.929 . S
C987 C985 1.433 . S
C987 N990 1.380 1_655 S
C988 H979 0.929 . S
C988 C980 1.378 . S
C988 C983 1.350 . S
C989 H976 0.929 . S
C989 C981 1.433 . S
C989 N991 1.384 . S
N990 C986 1.428 . S
N990 C987 1.380 1_455 S
N991 C983 1.427 . S
N991 C989 1.384 . S
H992 C998 0.930 . S
H993 C1002 0.930 . S
H994 C1007 0.929 . S
H995 C1005 0.929 . S
H996 C1000 0.929 . S
H997 C1006 0.929 . S
C998 H992 0.930 . S
C998 C999 1.367 . S
C998 C1006 1.378 . S
C999 C998 1.367 . S
C999 C1007 1.433 . S
C1000 H996 0.929 . S
C1000 C1002 1.378 . S
C1000 C1004 1.350 . S
C1001 C1004 1.463 . S
C1001 C1006 1.350 . S
C1001 N1009 1.427 . S
C1002 H993 0.930 . S
C1002 C1000 1.378 . S
C1002 C1003 1.367 . S
C1003 C1002 1.367 . S
C1003 C1005 1.433 . S
C1004 C1000 1.350 . S
C1004 C1001 1.463 . S
C1004 N1008 1.427 . S
C1005 H995 0.929 . S
C1005 C1003 1.433 . S
C1005 N1008 1.384 . S
C1006 H997 0.929 . S
C1006 C998 1.378 . S
C1006 C1001 1.350 . S
C1007 H994 0.929 . S
C1007 C999 1.433 . S
C1007 N1009 1.384 . S
N1008 C1004 1.427 . S
N1008 C1005 1.384 . S
N1009 C1001 1.427 . S
N1009 C1007 1.384 . S
H1010 C1016 0.930 . S
H1011 C1020 0.930 . S
H1012 C1025 0.929 . S
H1013 C1023 0.929 1_554 S
H1014 C1018 0.929 . S
H1015 C1024 0.929 . S
C1016 H1010 0.930 . S
C1016 C1017 1.367 . S
C1016 C1024 1.378 . S
C1017 C1016 1.367 . S
C1017 C1025 1.433 . S
C1018 H1014 0.929 . S
C1018 C1020 1.378 . S
C1018 C1022 1.350 . S
C1019 C1022 1.463 . S
C1019 C1024 1.350 . S
C1019 N1027 1.427 . S
C1020 H1011 0.930 . S
C1020 C1018 1.378 . S
C1020 C1021 1.367 . S
C1021 C1020 1.367 . S
C1021 C1023 1.433 . S
C1022 C1018 1.350 . S
C1022 C1019 1.463 . S
C1022 N1026 1.427 . S
C1023 H1013 0.929 1_556 S
C1023 C1021 1.433 . S
C1023 N1026 1.384 . S
C1024 H1015 0.929 . S
C1024 C1016 1.378 . S
C1024 C1019 1.350 . S
C1025 H1012 0.929 . S
C1025 C1017 1.433 . S
C1025 N1027 1.384 . S
N1026 C1022 1.427 . S
N1026 C1023 1.384 . S
N1027 C1019 1.427 . S
N1027 C1025 1.384 . S
H1028 C1034 0.930 . S
H1029 C1038 0.930 . S
H1030 C1043 0.929 . S
H1031 C1041 0.929 . S
H1032 C1036 0.929 . S
H1033 C1042 0.929 . S
C1034 H1028 0.930 . S
C1034 C1035 1.367 . S
C1034 C1042 1.378 . S
C1035 C1034 1.367 . S
C1035 C1043 1.433 1_554 S
C1036 H1032 0.929 . S
C1036 C1038 1.378 . S
C1036 C1040 1.350 . S
C1037 C1040 1.463 . S
C1037 C1042 1.350 . S
C1037 N1045 1.427 . S
C1038 H1029 0.930 . S
C1038 C1036 1.378 . S
C1038 C1039 1.367 . S
C1039 C1038 1.367 . S
C1039 C1041 1.433 . S
C1040 C1036 1.350 . S
C1040 C1037 1.463 . S
C1040 N1044 1.427 . S
C1041 H1031 0.929 . S
C1041 C1039 1.433 . S
C1041 N1044 1.384 . S
C1042 H1033 0.929 . S
C1042 C1034 1.378 . S
C1042 C1037 1.350 . S
C1043 H1030 0.929 . S
C1043 C1035 1.433 1_556 S
C1043 N1045 1.384 1_556 S
N1044 C1040 1.427 . S
N1044 C1041 1.384 . S
N1045 C1037 1.427 . S
N1045 C1043 1.384 1_554 S
H1046 C1052 0.930 . S
H1047 C1056 0.930 . S
H1048 C1061 0.929 . S
H1049 C1059 0.929 . S
H1050 C1054 0.929 . S
H1051 C1060 0.929 . S
C1052 H1046 0.930 . S
C1052 C1053 1.367 . S
C1052 C1060 1.378 1_655 S
C1053 C1052 1.367 . S
C1053 C1061 1.433 . S
C1054 H1050 0.929 . S
C1054 C1056 1.378 . S
C1054 C1058 1.350 . S
C1055 C1058 1.463 . S
C1055 C1060 1.350 . S
C1055 N1063 1.427 1_455 S
C1056 H1047 0.930 . S
C1056 C1054 1.378 . S
C1056 C1057 1.367 . S
C1057 C1056 1.367 . S
C1057 C1059 1.433 . S
C1058 C1054 1.350 . S
C1058 C1055 1.463 . S
C1058 N1062 1.427 . S
C1059 H1049 0.929 . S
C1059 C1057 1.433 . S
C1059 N1062 1.384 . S
C1060 H1051 0.929 . S
C1060 C1052 1.378 1_455 S
C1060 C1055 1.350 . S
C1061 H1048 0.929 . S
C1061 C1053 1.433 . S
C1061 N1063 1.384 . S
N1062 C1058 1.427 . S
N1062 C1059 1.384 . S
N1063 C1055 1.427 1_655 S
N1063 C1061 1.384 . S
H1064 C1070 0.930 . S
H1065 C1074 0.930 1_554 S
H1066 C1079 0.929 . S
H1067 C1077 0.929 . S
H1068 C1072 0.929 . S
H1069 C1078 0.929 . S
C1070 H1064 0.930 . S
C1070 C1071 1.367 . S
C1070 C1078 1.378 . S
C1071 C1070 1.367 . S
C1071 C1079 1.433 . S
C1072 H1068 0.929 . S
C1072 C1074 1.378 . S
C1072 C1076 1.350 . S
C1073 C1076 1.463 . S
C1073 C1078 1.350 . S
C1073 N1081 1.427 . S
C1074 H1065 0.930 1_556 S
C1074 C1072 1.378 . S
C1074 C1075 1.367 . S
C1075 C1074 1.367 . S
C1075 C1077 1.433 . S
C1076 C1072 1.350 . S
C1076 C1073 1.463 . S
C1076 N1080 1.427 . S
C1077 H1067 0.929 . S
C1077 C1075 1.433 . S
C1077 N1080 1.384 . S
C1078 H1069 0.929 . S
C1078 C1070 1.378 . S
C1078 C1073 1.350 . S
C1079 H1066 0.929 . S
C1079 C1071 1.433 . S
C1079 N1081 1.384 . S
N1080 C1076 1.427 . S
N1080 C1077 1.384 . S
N1081 C1073 1.427 . S
N1081 C1079 1.384 . S
H1082 C1088 0.930 . S
H1083 C1092 0.930 . S
H1084 C1097 0.929 . S
H1085 C1095 0.929 . S
H1086 C1090 0.929 . S
H1087 C1096 0.929 . S
C1088 H1082 0.930 . S
C1088 C1089 1.367 . S
C1088 C1096 1.378 1_655 S
C1089 C1088 1.367 . S
C1089 C1097 1.433 . S
C1090 H1086 0.929 . S
C1090 C1092 1.378 . S
C1090 C1094 1.350 . S
C1091 C1094 1.463 . S
C1091 C1096 1.350 . S
C1091 N1099 1.427 1_455 S
C1092 H1083 0.930 . S
C1092 C1090 1.378 . S
C1092 C1093 1.367 . S
C1093 C1092 1.367 . S
C1093 C1095 1.433 . S
C1094 C1090 1.350 . S
C1094 C1091 1.463 . S
C1094 N1098 1.427 . S
C1095 H1085 0.929 . S
C1095 C1093 1.433 . S
C1095 N1098 1.384 . S
C1096 H1087 0.929 . S
C1096 C1088 1.378 1_455 S
C1096 C1091 1.350 . S
C1097 H1084 0.929 . S
C1097 C1089 1.433 . S
C1097 N1099 1.384 . S
N1098 C1094 1.427 . S
N1098 C1095 1.384 . S
N1099 C1091 1.427 1_655 S
N1099 C1097 1.384 . S
H1100 C1106 0.930 . S
H1101 C1110 0.930 . S
H1102 C1115 0.929 . S
H1103 C1113 0.929 . S
H1104 C1108 0.929 . S
H1105 C1114 0.929 . S
C1106 H1100 0.930 . S
C1106 C1107 1.367 . S
C1106 C1114 1.378 . S
C1107 C1106 1.367 . S
C1107 C1115 1.433 . S
C1108 H1104 0.929 . S
C1108 C1110 1.378 . S
C1108 C1112 1.350 . S
C1109 C1112 1.463 . S
C1109 C1114 1.350 . S
C1109 N1117 1.427 . S
C1110 H1101 0.930 . S
C1110 C1108 1.378 . S
C1110 C1111 1.367 . S
C1111 C1110 1.367 . S
C1111 C1113 1.433 . S
C1112 C1108 1.350 . S
C1112 C1109 1.463 . S
C1112 N1116 1.427 . S
C1113 H1103 0.929 . S
C1113 C1111 1.433 . S
C1113 N1116 1.384 . S
C1114 H1105 0.929 . S
C1114 C1106 1.378 . S
C1114 C1109 1.350 . S
C1115 H1102 0.929 . S
C1115 C1107 1.433 . S
C1115 N1117 1.384 . S
N1116 C1112 1.427 . S
N1116 C1113 1.384 . S
N1117 C1109 1.427 . S
N1117 C1115 1.384 . S
H1118 C1124 0.930 . S
H1119 C1128 0.930 . S
H1120 C1133 0.929 . S
H1121 C1131 0.929 . S
H1122 C1126 0.929 . S
H1123 C1132 0.929 . S
C1124 H1118 0.930 . S
C1124 C1125 1.367 . S
C1124 C1132 1.378 . S
C1125 C1124 1.367 . S
C1125 C1133 1.433 . S
C1126 H1122 0.929 . S
C1126 C1128 1.378 . S
C1126 C1130 1.350 . S
C1127 C1130 1.463 . S
C1127 C1132 1.350 . S
C1127 N1135 1.427 . S
C1128 H1119 0.930 . S
C1128 C1126 1.378 . S
C1128 C1129 1.367 . S
C1129 C1128 1.367 . S
C1129 C1131 1.433 . S
C1130 C1126 1.350 . S
C1130 C1127 1.463 . S
C1130 N1134 1.427 . S
C1131 H1121 0.929 . S
C1131 C1129 1.433 . S
C1131 N1134 1.384 . S
C1132 H1123 0.929 . S
C1132 C1124 1.378 . S
C1132 C1127 1.350 . S
C1133 H1120 0.929 . S
C1133 C1125 1.433 . S
C1133 N1135 1.384 . S
N1134 C1130 1.427 . S
N1134 C1131 1.384 . S
N1135 C1127 1.427 . S
N1135 C1133 1.384 . S
H1136 C1142 0.930 . S
H1137 C1146 0.930 . S
H1138 C1151 0.929 . S
H1139 C1149 0.929 . S
H1140 C1144 0.929 . S
H1141 C1150 0.929 . S
C1142 H1136 0.930 . S
C1142 C1143 1.367 . S
C1142 C1150 1.378 . S
C1143 C1142 1.367 . S
C1143 C1151 1.433 . S
C1144 H1140 0.929 . S
C1144 C1146 1.378 . S
C1144 C1148 1.350 . S
C1145 C1148 1.463 . S
C1145 C1150 1.350 . S
C1145 N1153 1.427 . S
C1146 H1137 0.930 . S
C1146 C1144 1.378 . S
C1146 C1147 1.367 . S
C1147 C1146 1.367 . S
C1147 C1149 1.433 . S
C1148 C1144 1.350 . S
C1148 C1145 1.463 . S
C1148 N1152 1.427 . S
C1149 H1139 0.929 . S
C1149 C1147 1.433 . S
C1149 N1152 1.384 . S
C1150 H1141 0.929 . S
C1150 C1142 1.378 . S
C1150 C1145 1.350 . S
C1151 H1138 0.929 . S
C1151 C1143 1.433 . S
C1151 N1153 1.384 . S
N1152 C1148 1.427 . S
N1152 C1149 1.384 . S
N1153 C1145 1.427 . S
N1153 C1151 1.384 . S
H1154 C1160 0.930 . S
H1155 C1164 0.930 1_556 S
H1156 C1169 0.929 . S
H1157 C1167 0.929 . S
H1158 C1162 0.929 . S
H1159 C1168 0.929 . S
C1160 H1154 0.930 . S
C1160 C1161 1.367 . S
C1160 C1168 1.378 . S
C1161 C1160 1.367 . S
C1161 C1169 1.433 . S
C1162 H1158 0.929 . S
C1162 C1164 1.378 . S
C1162 C1166 1.350 . S
C1163 C1166 1.463 . S
C1163 C1168 1.350 . S
C1163 N1171 1.427 . S
C1164 H1155 0.930 1_554 S
C1164 C1162 1.378 . S
C1164 C1165 1.367 . S
C1165 C1164 1.367 . S
C1165 C1167 1.433 . S
C1166 C1162 1.350 . S
C1166 C1163 1.463 . S
C1166 N1170 1.427 . S
C1167 H1157 0.929 . S
C1167 C1165 1.433 . S
C1167 N1170 1.384 . S
C1168 H1159 0.929 . S
C1168 C1160 1.378 . S
C1168 C1163 1.350 . S
C1169 H1156 0.929 . S
C1169 C1161 1.433 . S
C1169 N1171 1.384 . S
N1170 C1166 1.427 . S
N1170 C1167 1.384 . S
N1171 C1163 1.427 . S
N1171 C1169 1.384 . S
H1172 C1178 0.930 . S
H1173 C1182 0.930 . S
H1174 C1187 0.929 . S
H1175 C1185 0.929 . S
H1176 C1180 0.929 . S
H1177 C1186 0.929 . S
C1178 H1172 0.930 . S
C1178 C1179 1.367 . S
C1178 C1186 1.378 . S
C1179 C1178 1.367 . S
C1179 C1187 1.433 . S
C1180 H1176 0.929 . S
C1180 C1182 1.378 . S
C1180 C1184 1.350 . S
C1181 C1184 1.463 . S
C1181 C1186 1.350 . S
C1181 N1189 1.427 . S
C1182 H1173 0.930 . S
C1182 C1180 1.378 . S
C1182 C1183 1.367 . S
C1183 C1182 1.367 . S
C1183 C1185 1.433 . S
C1184 C1180 1.350 . S
C1184 C1181 1.463 . S
C1184 N1188 1.427 . S
C1185 H1175 0.929 . S
C1185 C1183 1.433 . S
C1185 N1188 1.384 . S
C1186 H1177 0.929 . S
C1186 C1178 1.378 . S
C1186 C1181 1.350 . S
C1187 H1174 0.929 . S
C1187 C1179 1.433 . S
C1187 N1189 1.384 . S
N1188 C1184 1.427 . S
N1188 C1185 1.384 . S
N1189 C1181 1.427 . S
N1189 C1187 1.384 . S
H1190 C1196 0.930 . S
H1191 C1200 0.930 . S
H1192 C1205 0.929 . S
H1193 C1203 0.929 . S
H1194 C1198 0.929 . S
H1195 C1204 0.929 1_655 S
C1196 H1190 0.930 . S
C1196 C1197 1.367 . S
C1196 C1204 1.378 . S
C1197 C1196 1.367 . S
C1197 C1205 1.433 . S
C1198 H1194 0.929 . S
C1198 C1200 1.378 . S
C1198 C1202 1.350 . S
C1199 C1202 1.463 . S
C1199 C1204 1.350 1_655 S
C1199 N1207 1.427 1_655 S
C1200 H1191 0.930 . S
C1200 C1198 1.378 . S
C1200 C1201 1.367 . S
C1201 C1200 1.367 . S
C1201 C1203 1.433 . S
C1202 C1198 1.350 . S
C1202 C1199 1.463 . S
C1202 N1206 1.427 . S
C1203 H1193 0.929 . S
C1203 C1201 1.433 . S
C1203 N1206 1.384 . S
C1204 H1195 0.929 1_455 S
C1204 C1196 1.378 . S
C1204 C1199 1.350 1_455 S
C1205 H1192 0.929 . S
C1205 C1197 1.433 . S
C1205 N1207 1.384 . S
N1206 C1202 1.427 . S
N1206 C1203 1.384 . S
N1207 C1199 1.427 1_455 S
N1207 C1205 1.384 . S
H1208 C1214 0.930 . S
H1209 C1218 0.930 . S
H1210 C1223 0.929 . S
H1211 C1221 0.929 1_556 S
H1212 C1216 0.929 . S
H1213 C1222 0.929 . S
C1214 H1208 0.930 . S
C1214 C1215 1.367 . S
C1214 C1222 1.378 . S
C1215 C1214 1.367 . S
C1215 C1223 1.433 . S
C1216 H1212 0.929 . S
C1216 C1218 1.378 . S
C1216 C1220 1.350 . S
C1217 C1220 1.463 . S
C1217 C1222 1.350 . S
C1217 N1225 1.427 . S
C1218 H1209 0.930 . S
C1218 C1216 1.378 . S
C1218 C1219 1.367 . S
C1219 C1218 1.367 . S
C1219 C1221 1.433 . S
C1220 C1216 1.350 . S
C1220 C1217 1.463 . S
C1220 N1224 1.427 . S
C1221 H1211 0.929 1_554 S
C1221 C1219 1.433 . S
C1221 N1224 1.384 . S
C1222 H1213 0.929 . S
C1222 C1214 1.378 . S
C1222 C1217 1.350 . S
C1223 H1210 0.929 . S
C1223 C1215 1.433 . S
C1223 N1225 1.384 . S
N1224 C1220 1.427 . S
N1224 C1221 1.384 . S
N1225 C1217 1.427 . S
N1225 C1223 1.384 . S
H1226 C1232 0.930 . S
H1227 C1236 0.930 . S
H1228 C1241 0.929 . S
H1229 C1239 0.929 . S
H1230 C1234 0.929 . S
H1231 C1240 0.929 . S
C1232 H1226 0.930 . S
C1232 C1233 1.367 . S
C1232 C1240 1.378 . S
C1233 C1232 1.367 . S
C1233 C1241 1.433 . S
C1234 H1230 0.929 . S
C1234 C1236 1.378 . S
C1234 C1238 1.350 1_455 S
C1235 C1238 1.463 . S
C1235 C1240 1.350 . S
C1235 N1243 1.427 . S
C1236 H1227 0.930 . S
C1236 C1234 1.378 . S
C1236 C1237 1.367 . S
C1237 C1236 1.367 . S
C1237 C1239 1.433 . S
C1238 C1234 1.350 1_655 S
C1238 C1235 1.463 . S
C1238 N1242 1.419 1_655 S
C1239 H1229 0.929 . S
C1239 C1237 1.433 . S
C1239 N1242 1.416 . S
C1240 H1231 0.929 . S
C1240 C1232 1.378 . S
C1240 C1235 1.350 . S
C1241 H1228 0.929 . S
C1241 C1233 1.433 . S
C1241 N1243 1.384 . S
N1242 C1238 1.419 1_455 S
N1242 C1239 1.416 . S
N1243 C1235 1.427 . S
N1243 C1241 1.384 . S
H1244 C1250 0.930 . S
H1245 C1254 0.930 . S
H1246 C1259 0.929 . S
H1247 C1257 0.929 . S
H1248 C1252 0.929 . S
H1249 C1258 0.929 . S
C1250 H1244 0.930 . S
C1250 C1251 1.367 . S
C1250 C1258 1.378 . S
C1251 C1250 1.367 . S
C1251 C1259 1.433 . S
C1252 H1248 0.929 . S
C1252 C1254 1.378 . S
C1252 C1256 1.350 . S
C1253 C1256 1.463 . S
C1253 C1258 1.350 . S
C1253 N1261 1.427 . S
C1254 H1245 0.930 . S
C1254 C1252 1.378 . S
C1254 C1255 1.367 . S
C1255 C1254 1.367 . S
C1255 C1257 1.433 . S
C1256 C1252 1.350 . S
C1256 C1253 1.463 . S
C1256 N1260 1.427 . S
C1257 H1247 0.929 . S
C1257 C1255 1.433 . S
C1257 N1260 1.384 . S
C1258 H1249 0.929 . S
C1258 C1250 1.378 . S
C1258 C1253 1.350 . S
C1259 H1246 0.929 . S
C1259 C1251 1.433 . S
C1259 N1261 1.384 . S
N1260 C1256 1.427 . S
N1260 C1257 1.384 . S
N1261 C1253 1.427 . S
N1261 C1259 1.384 . S
H1262 C1268 0.930 . S
H1263 C1272 0.930 . S
H1264 C1277 0.929 . S
H1265 C1275 0.929 . S
H1266 C1270 0.929 . S
H1267 C1276 0.929 . S
C1268 H1262 0.930 . S
C1268 C1269 1.367 . S
C1268 C1276 1.378 . S
C1269 C1268 1.367 . S
C1269 C1277 1.433 . S
C1270 H1266 0.929 . S
C1270 C1272 1.378 . S
C1270 C1274 1.350 . S
C1271 C1274 1.463 . S
C1271 C1276 1.350 . S
C1271 N1279 1.427 . S
C1272 H1263 0.930 . S
C1272 C1270 1.378 . S
C1272 C1273 1.367 . S
C1273 C1272 1.367 . S
C1273 C1275 1.433 . S
C1274 C1270 1.350 . S
C1274 C1271 1.463 . S
C1274 N1278 1.427 . S
C1275 H1265 0.929 . S
C1275 C1273 1.433 . S
C1275 N1278 1.384 . S
C1276 H1267 0.929 . S
C1276 C1268 1.378 . S
C1276 C1271 1.350 . S
C1277 H1264 0.929 . S
C1277 C1269 1.433 . S
C1277 N1279 1.384 . S
N1278 C1274 1.427 . S
N1278 C1275 1.384 . S
N1279 C1271 1.427 . S
N1279 C1277 1.384 . S
H1280 C1286 0.930 . S
H1281 C1290 0.930 . S
H1282 C1295 0.929 . S
H1283 C1293 0.929 . S
H1284 C1288 0.929 . S
H1285 C1294 0.929 . S
C1286 H1280 0.930 . S
C1286 C1287 1.367 . S
C1286 C1294 1.378 . S
C1287 C1286 1.367 . S
C1287 C1295 1.433 . S
C1288 H1284 0.929 . S
C1288 C1290 1.378 . S
C1288 C1292 1.350 . S
C1289 C1292 1.463 . S
C1289 C1294 1.350 . S
C1289 N1297 1.427 . S
C1290 H1281 0.930 . S
C1290 C1288 1.378 . S
C1290 C1291 1.367 . S
C1291 C1290 1.367 . S
C1291 C1293 1.433 . S
C1292 C1288 1.350 . S
C1292 C1289 1.463 . S
C1292 N1296 1.427 . S
C1293 H1283 0.929 . S
C1293 C1291 1.433 . S
C1293 N1296 1.384 . S
C1294 H1285 0.929 . S
C1294 C1286 1.378 . S
C1294 C1289 1.350 . S
C1295 H1282 0.929 . S
C1295 C1287 1.433 . S
C1295 N1297 1.384 . S
N1296 C1292 1.427 . S
N1296 C1293 1.384 . S
N1297 C1289 1.427 . S
N1297 C1295 1.384 . S
H1298 C1304 0.930 . S
H1299 C1308 0.930 . S
H1300 C1313 0.929 . S
H1301 C1311 0.929 . S
H1302 C1306 0.929 . S
H1303 C1312 0.929 . S
C1304 H1298 0.930 . S
C1304 C1305 1.367 . S
C1304 C1312 1.378 . S
C1305 C1304 1.367 . S
C1305 C1313 1.433 . S
C1306 H1302 0.929 . S
C1306 C1308 1.378 . S
C1306 C1310 1.350 . S
C1307 C1310 1.463 . S
C1307 C1312 1.350 . S
C1307 N1315 1.427 . S
C1308 H1299 0.930 . S
C1308 C1306 1.378 . S
C1308 C1309 1.367 . S
C1309 C1308 1.367 . S
C1309 C1311 1.433 . S
C1310 C1306 1.350 . S
C1310 C1307 1.463 . S
C1310 N1314 1.427 . S
C1311 H1301 0.929 . S
C1311 C1309 1.433 . S
C1311 N1314 1.384 . S
C1312 H1303 0.929 . S
C1312 C1304 1.378 . S
C1312 C1307 1.350 . S
C1313 H1300 0.929 . S
C1313 C1305 1.433 . S
C1313 N1315 1.384 . S
N1314 C1310 1.427 . S
N1314 C1311 1.384 . S
N1315 C1307 1.427 . S
N1315 C1313 1.384 . S
H1316 C1322 0.930 . S
H1317 C1326 0.930 . S
H1318 C1331 0.929 . S
H1319 C1329 0.929 . S
H1320 C1324 0.929 . S
H1321 C1330 0.929 . S
C1322 H1316 0.930 . S
C1322 C1323 1.367 . S
C1322 C1330 1.378 . S
C1323 C1322 1.367 . S
C1323 C1331 1.433 . S
C1324 H1320 0.929 . S
C1324 C1326 1.378 . S
C1324 C1328 1.350 . S
C1325 C1328 1.463 . S
C1325 C1330 1.350 . S
C1325 N1333 1.427 . S
C1326 H1317 0.930 . S
C1326 C1324 1.378 . S
C1326 C1327 1.367 . S
C1327 C1326 1.367 . S
C1327 C1329 1.433 . S
C1328 C1324 1.350 . S
C1328 C1325 1.463 . S
C1328 N1332 1.427 . S
C1329 H1319 0.929 . S
C1329 C1327 1.433 . S
C1329 N1332 1.384 . S
C1330 H1321 0.929 . S
C1330 C1322 1.378 . S
C1330 C1325 1.350 . S
C1331 H1318 0.929 . S
C1331 C1323 1.433 . S
C1331 N1333 1.384 . S
N1332 C1328 1.427 . S
N1332 C1329 1.384 . S
N1333 C1325 1.427 . S
N1333 C1331 1.384 . S
H1334 C1340 0.930 . S
H1335 C1344 0.930 . S
H1336 C1349 0.929 . S
H1337 C1347 0.929 1_554 S
H1338 C1342 0.929 . S
H1339 C1348 0.929 . S
C1340 H1334 0.930 . S
C1340 C1341 1.367 . S
C1340 C1348 1.378 . S
C1341 C1340 1.367 . S
C1341 C1349 1.433 . S
C1342 H1338 0.929 . S
C1342 C1344 1.378 . S
C1342 C1346 1.350 . S
C1343 C1346 1.463 . S
C1343 C1348 1.350 . S
C1343 N1351 1.427 . S
C1344 H1335 0.930 . S
C1344 C1342 1.378 . S
C1344 C1345 1.367 . S
C1345 C1344 1.367 . S
C1345 C1347 1.433 . S
C1346 C1342 1.350 . S
C1346 C1343 1.463 . S
C1346 N1350 1.427 . S
C1347 H1337 0.929 1_556 S
C1347 C1345 1.433 . S
C1347 N1350 1.384 . S
C1348 H1339 0.929 . S
C1348 C1340 1.378 . S
C1348 C1343 1.350 . S
C1349 H1336 0.929 . S
C1349 C1341 1.433 . S
C1349 N1351 1.384 . S
N1350 C1346 1.427 . S
N1350 C1347 1.384 . S
N1351 C1343 1.427 . S
N1351 C1349 1.384 . S
H1352 C1358 0.930 1_554 S
H1353 C1362 0.930 . S
H1354 C1367 0.929 . S
H1355 C1365 0.929 . S
H1356 C1360 0.929 . S
H1357 C1366 0.929 . S
C1358 H1352 0.930 1_556 S
C1358 C1359 1.367 . S
C1358 C1366 1.378 . S
C1359 C1358 1.367 . S
C1359 C1367 1.433 . S
C1360 H1356 0.929 . S
C1360 C1362 1.378 . S
C1360 C1364 1.350 . S
C1361 C1364 1.463 . S
C1361 C1366 1.350 . S
C1361 N1369 1.427 . S
C1362 H1353 0.930 . S
C1362 C1360 1.378 . S
C1362 C1363 1.367 . S
C1363 C1362 1.367 . S
C1363 C1365 1.433 . S
C1364 C1360 1.350 . S
C1364 C1361 1.463 . S
C1364 N1368 1.427 . S
C1365 H1355 0.929 . S
C1365 C1363 1.433 . S
C1365 N1368 1.384 . S
C1366 H1357 0.929 . S
C1366 C1358 1.378 . S
C1366 C1361 1.350 . S
C1367 H1354 0.929 . S
C1367 C1359 1.433 . S
C1367 N1369 1.384 . S
N1368 C1364 1.427 . S
N1368 C1365 1.384 . S
N1369 C1361 1.427 . S
N1369 C1367 1.384 . S
H1370 C1376 0.930 . S
H1371 C1380 0.930 . S
H1372 C1385 0.929 . S
H1373 C1383 0.929 . S
H1374 C1378 0.929 . S
H1375 C1384 0.929 . S
C1376 H1370 0.930 . S
C1376 C1377 1.367 . S
C1376 C1384 1.378 . S
C1377 C1376 1.367 . S
C1377 C1385 1.433 . S
C1378 H1374 0.929 . S
C1378 C1380 1.378 . S
C1378 C1382 1.350 . S
C1379 C1382 1.463 . S
C1379 C1384 1.350 . S
C1379 N1387 1.427 . S
C1380 H1371 0.930 . S
C1380 C1378 1.378 . S
C1380 C1381 1.367 . S
C1381 C1380 1.367 . S
C1381 C1383 1.433 . S
C1382 C1378 1.350 . S
C1382 C1379 1.463 . S
C1382 N1386 1.427 . S
C1383 H1373 0.929 . S
C1383 C1381 1.433 . S
C1383 N1386 1.384 . S
C1384 H1375 0.929 . S
C1384 C1376 1.378 . S
C1384 C1379 1.350 . S
C1385 H1372 0.929 . S
C1385 C1377 1.433 . S
C1385 N1387 1.384 . S
N1386 C1382 1.427 . S
N1386 C1383 1.384 . S
N1387 C1379 1.427 . S
N1387 C1385 1.384 . S
H1388 C1394 0.930 . S
H1389 C1398 0.930 . S
H1390 C1403 0.929 . S
H1391 C1401 0.929 . S
H1392 C1396 0.929 . S
H1393 C1402 0.929 . S
C1394 H1388 0.930 . S
C1394 C1395 1.367 . S
C1394 C1402 1.378 . S
C1395 C1394 1.367 . S
C1395 C1403 1.433 . S
C1396 H1392 0.929 . S
C1396 C1398 1.378 . S
C1396 C1400 1.350 . S
C1397 C1400 1.463 . S
C1397 C1402 1.350 . S
C1397 N1405 1.427 . S
C1398 H1389 0.930 . S
C1398 C1396 1.378 . S
C1398 C1399 1.367 . S
C1399 C1398 1.367 . S
C1399 C1401 1.433 . S
C1400 C1396 1.350 . S
C1400 C1397 1.463 . S
C1400 N1404 1.427 . S
C1401 H1391 0.929 . S
C1401 C1399 1.433 . S
C1401 N1404 1.384 . S
C1402 H1393 0.929 . S
C1402 C1394 1.378 . S
C1402 C1397 1.350 . S
C1403 H1390 0.929 . S
C1403 C1395 1.433 . S
C1403 N1405 1.384 . S
N1404 C1400 1.427 . S
N1404 C1401 1.384 . S
N1405 C1397 1.427 . S
N1405 C1403 1.384 . S
H1406 C1412 0.930 1_556 S
H1407 C1416 0.930 . S
H1408 C1421 0.929 . S
H1409 C1419 0.929 . S
H1410 C1414 0.929 . S
H1411 C1420 0.929 . S
C1412 H1406 0.930 1_554 S
C1412 C1413 1.367 . S
C1412 C1420 1.378 . S
C1413 C1412 1.367 . S
C1413 C1421 1.433 . S
C1414 H1410 0.929 . S
C1414 C1416 1.378 . S
C1414 C1418 1.350 . S
C1415 C1418 1.463 . S
C1415 C1420 1.350 . S
C1415 N1423 1.427 . S
C1416 H1407 0.930 . S
C1416 C1414 1.378 . S
C1416 C1417 1.367 . S
C1417 C1416 1.367 . S
C1417 C1419 1.433 . S
C1418 C1414 1.350 . S
C1418 C1415 1.463 . S
C1418 N1422 1.427 . S
C1419 H1409 0.929 . S
C1419 C1417 1.433 . S
C1419 N1422 1.384 . S
C1420 H1411 0.929 . S
C1420 C1412 1.378 . S
C1420 C1415 1.350 . S
C1421 H1408 0.929 . S
C1421 C1413 1.433 . S
C1421 N1423 1.384 . S
N1422 C1418 1.427 . S
N1422 C1419 1.384 . S
N1423 C1415 1.427 . S
N1423 C1421 1.384 . S
H1424 C1430 0.930 . S
H1425 C1434 0.930 . S
H1426 C1439 0.929 . S
H1427 C1437 0.929 . S
H1428 C1432 0.929 . S
H1429 C1438 0.929 . S
C1430 H1424 0.930 . S
C1430 C1431 1.367 . S
C1430 C1438 1.378 . S
C1431 C1430 1.367 . S
C1431 C1439 1.433 . S
C1432 H1428 0.929 . S
C1432 C1434 1.378 . S
C1432 C1436 1.350 . S
C1433 C1436 1.463 . S
C1433 C1438 1.350 . S
C1433 N1441 1.427 . S
C1434 H1425 0.930 . S
C1434 C1432 1.378 . S
C1434 C1435 1.367 . S
C1435 C1434 1.367 . S
C1435 C1437 1.433 . S
C1436 C1432 1.350 . S
C1436 C1433 1.463 . S
C1436 N1440 1.427 . S
C1437 H1427 0.929 . S
C1437 C1435 1.433 . S
C1437 N1440 1.384 . S
C1438 H1429 0.929 . S
C1438 C1430 1.378 . S
C1438 C1433 1.350 . S
C1439 H1426 0.929 . S
C1439 C1431 1.433 . S
C1439 N1441 1.384 . S
N1440 C1436 1.427 . S
N1440 C1437 1.384 . S
N1441 C1433 1.427 . S
N1441 C1439 1.384 . S
H1442 C1448 0.930 . S
H1443 C1452 0.930 . S
H1444 C1457 0.929 . S
H1445 C1455 0.929 1_554 S
H1446 C1450 0.929 . S
H1447 C1456 0.929 . S
C1448 H1442 0.930 . S
C1448 C1449 1.367 . S
C1448 C1456 1.378 . S
C1449 C1448 1.367 . S
C1449 C1457 1.433 . S
C1450 H1446 0.929 . S
C1450 C1452 1.378 . S
C1450 C1454 1.350 . S
C1451 C1454 1.463 . S
C1451 C1456 1.350 . S
C1451 N1459 1.427 . S
C1452 H1443 0.930 . S
C1452 C1450 1.378 . S
C1452 C1453 1.367 . S
C1453 C1452 1.367 . S
C1453 C1455 1.433 . S
C1454 C1450 1.350 . S
C1454 C1451 1.463 . S
C1454 N1458 1.427 . S
C1455 H1445 0.929 1_556 S
C1455 C1453 1.433 . S
C1455 N1458 1.384 . S
C1456 H1447 0.929 . S
C1456 C1448 1.378 . S
C1456 C1451 1.350 . S
C1457 H1444 0.929 . S
C1457 C1449 1.433 . S
C1457 N1459 1.384 . S
N1458 C1454 1.427 . S
N1458 C1455 1.384 . S
N1459 C1451 1.427 . S
N1459 C1457 1.384 . S
H1460 C1466 0.930 . S
H1461 C1470 0.930 . S
H1462 C1475 0.929 . S
H1463 C1473 0.929 1_556 S
H1464 C1468 0.929 . S
H1465 C1474 0.929 . S
C1466 H1460 0.930 . S
C1466 C1467 1.367 . S
C1466 C1474 1.378 . S
C1467 C1466 1.367 . S
C1467 C1475 1.433 . S
C1468 H1464 0.929 . S
C1468 C1470 1.378 . S
C1468 C1472 1.350 . S
C1469 C1472 1.463 . S
C1469 C1474 1.350 . S
C1469 N1477 1.427 . S
C1470 H1461 0.930 . S
C1470 C1468 1.378 . S
C1470 C1471 1.367 . S
C1471 C1470 1.367 . S
C1471 C1473 1.433 . S
C1472 C1468 1.350 . S
C1472 C1469 1.463 . S
C1472 N1476 1.427 . S
C1473 H1463 0.929 1_554 S
C1473 C1471 1.433 . S
C1473 N1476 1.384 . S
C1474 H1465 0.929 . S
C1474 C1466 1.378 . S
C1474 C1469 1.350 . S
C1475 H1462 0.929 . S
C1475 C1467 1.433 . S
C1475 N1477 1.384 . S
N1476 C1472 1.427 . S
N1476 C1473 1.384 . S
N1477 C1469 1.427 . S
N1477 C1475 1.384 . S
H1478 C1484 0.930 . S
H1479 C1488 0.930 . S
H1480 C1493 0.929 . S
H1481 C1491 0.929 . S
H1482 C1486 0.929 . S
H1483 C1492 0.929 . S
C1484 H1478 0.930 . S
C1484 C1485 1.367 . S
C1484 C1492 1.378 . S
C1485 C1484 1.367 . S
C1485 C1493 1.433 . S
C1486 H1482 0.929 . S
C1486 C1488 1.378 . S
C1486 C1490 1.350 . S
C1487 C1490 1.463 . S
C1487 C1492 1.350 . S
C1487 N1495 1.427 . S
C1488 H1479 0.930 . S
C1488 C1486 1.378 . S
C1488 C1489 1.367 . S
C1489 C1488 1.367 . S
C1489 C1491 1.433 . S
C1490 C1486 1.350 . S
C1490 C1487 1.463 . S
C1490 N1494 1.427 . S
C1491 H1481 0.929 . S
C1491 C1489 1.433 . S
C1491 N1494 1.384 . S
C1492 H1483 0.929 . S
C1492 C1484 1.378 . S
C1492 C1487 1.350 . S
C1493 H1480 0.929 . S
C1493 C1485 1.433 . S
C1493 N1495 1.384 . S
N1494 C1490 1.427 . S
N1494 C1491 1.384 . S
N1495 C1487 1.427 . S
N1495 C1493 1.384 . S
H1496 C1502 0.930 . S
H1497 C1506 0.930 . S
H1498 C1511 0.929 . S
H1499 C1509 0.929 . S
H1500 C1504 0.929 . S
H1501 C1510 0.929 . S
C1502 H1496 0.930 . S
C1502 C1503 1.367 . S
C1502 C1510 1.378 . S
C1503 C1502 1.367 . S
C1503 C1511 1.433 . S
C1504 H1500 0.929 . S
C1504 C1506 1.378 . S
C1504 C1508 1.350 . S
C1505 C1508 1.463 . S
C1505 C1510 1.350 . S
C1505 N1513 1.427 . S
C1506 H1497 0.930 . S
C1506 C1504 1.378 . S
C1506 C1507 1.367 . S
C1507 C1506 1.367 . S
C1507 C1509 1.433 . S
C1508 C1504 1.350 . S
C1508 C1505 1.463 . S
C1508 N1512 1.427 . S
C1509 H1499 0.929 . S
C1509 C1507 1.433 . S
C1509 N1512 1.384 . S
C1510 H1501 0.929 . S
C1510 C1502 1.378 . S
C1510 C1505 1.350 . S
C1511 H1498 0.929 . S
C1511 C1503 1.433 . S
C1511 N1513 1.384 . S
N1512 C1508 1.427 . S
N1512 C1509 1.384 . S
N1513 C1505 1.427 . S
N1513 C1511 1.384 . S
H1514 C1520 0.930 . S
H1515 C1524 0.930 . S
H1516 C1529 0.929 . S
H1517 C1527 0.929 . S
H1518 C1522 0.929 . S
H1519 C1528 0.929 . S
C1520 H1514 0.930 . S
C1520 C1521 1.367 . S
C1520 C1528 1.378 . S
C1521 C1520 1.367 . S
C1521 C1529 1.433 . S
C1522 H1518 0.929 . S
C1522 C1524 1.378 . S
C1522 C1526 1.350 . S
C1523 C1526 1.463 . S
C1523 C1528 1.350 . S
C1523 N1531 1.427 . S
C1524 H1515 0.930 . S
C1524 C1522 1.378 . S
C1524 C1525 1.367 . S
C1525 C1524 1.367 . S
C1525 C1527 1.433 . S
C1526 C1522 1.350 . S
C1526 C1523 1.463 . S
C1526 N1530 1.427 . S
C1527 H1517 0.929 . S
C1527 C1525 1.433 . S
C1527 N1530 1.384 . S
C1528 H1519 0.929 . S
C1528 C1520 1.378 . S
C1528 C1523 1.350 . S
C1529 H1516 0.929 . S
C1529 C1521 1.433 . S
C1529 N1531 1.384 . S
N1530 C1526 1.427 . S
N1530 C1527 1.384 . S
N1531 C1523 1.427 . S
N1531 C1529 1.384 . S
H1532 C1538 0.930 . S
H1533 C1542 0.930 . S
H1534 C1547 0.929 1_554 S
H1535 C1545 0.929 . S
H1536 C1540 0.929 . S
H1537 C1546 0.929 . S
C1538 H1532 0.930 . S
C1538 C1539 1.367 . S
C1538 C1546 1.378 . S
C1539 C1538 1.367 . S
C1539 C1547 1.433 . S
C1540 H1536 0.929 . S
C1540 C1542 1.378 . S
C1540 C1544 1.350 . S
C1541 C1544 1.463 . S
C1541 C1546 1.350 . S
C1541 N1549 1.427 . S
C1542 H1533 0.930 . S
C1542 C1540 1.378 . S
C1542 C1543 1.367 . S
C1543 C1542 1.367 . S
C1543 C1545 1.433 . S
C1544 C1540 1.350 . S
C1544 C1541 1.463 . S
C1544 N1548 1.427 . S
C1545 H1535 0.929 . S
C1545 C1543 1.433 . S
C1545 N1548 1.384 . S
C1546 H1537 0.929 . S
C1546 C1538 1.378 . S
C1546 C1541 1.350 . S
C1547 H1534 0.929 1_556 S
C1547 C1539 1.433 . S
C1547 N1549 1.384 . S
N1548 C1544 1.427 . S
N1548 C1545 1.384 . S
N1549 C1541 1.427 . S
N1549 C1547 1.384 . S
H1550 C1556 0.930 . S
H1551 C1560 0.930 . S
H1552 C1565 0.929 . S
H1553 C1563 0.929 . S
H1554 C1558 0.929 . S
H1555 C1564 0.929 . S
C1556 H1550 0.930 . S
C1556 C1557 1.367 . S
C1556 C1564 1.378 . S
C1557 C1556 1.367 . S
C1557 C1565 1.433 . S
C1558 H1554 0.929 . S
C1558 C1560 1.378 . S
C1558 C1562 1.350 . S
C1559 C1562 1.463 . S
C1559 C1564 1.350 . S
C1559 N1567 1.427 . S
C1560 H1551 0.930 . S
C1560 C1558 1.378 . S
C1560 C1561 1.367 . S
C1561 C1560 1.367 . S
C1561 C1563 1.433 . S
C1562 C1558 1.350 . S
C1562 C1559 1.463 . S
C1562 N1566 1.427 . S
C1563 H1553 0.929 . S
C1563 C1561 1.433 . S
C1563 N1566 1.384 . S
C1564 H1555 0.929 . S
C1564 C1556 1.378 . S
C1564 C1559 1.350 . S
C1565 H1552 0.929 . S
C1565 C1557 1.433 . S
C1565 N1567 1.384 . S
N1566 C1562 1.427 . S
N1566 C1563 1.384 . S
N1567 C1559 1.427 . S
N1567 C1565 1.384 . S
H1568 C1574 0.930 . S
H1569 C1578 0.930 . S
H1570 C1583 0.929 . S
H1571 C1581 0.929 . S
H1572 C1576 0.929 . S
H1573 C1582 0.929 . S
C1574 H1568 0.930 . S
C1574 C1575 1.367 . S
C1574 C1582 1.378 . S
C1575 C1574 1.367 . S
C1575 C1583 1.433 . S
C1576 H1572 0.929 . S
C1576 C1578 1.378 . S
C1576 C1580 1.350 . S
C1577 C1580 1.463 . S
C1577 C1582 1.350 . S
C1577 N1585 1.427 . S
C1578 H1569 0.930 . S
C1578 C1576 1.378 . S
C1578 C1579 1.367 . S
C1579 C1578 1.367 . S
C1579 C1581 1.433 . S
C1580 C1576 1.350 . S
C1580 C1577 1.463 . S
C1580 N1584 1.427 . S
C1581 H1571 0.929 . S
C1581 C1579 1.433 . S
C1581 N1584 1.384 . S
C1582 H1573 0.929 . S
C1582 C1574 1.378 . S
C1582 C1577 1.350 . S
C1583 H1570 0.929 . S
C1583 C1575 1.433 . S
C1583 N1585 1.384 . S
N1584 C1580 1.427 . S
N1584 C1581 1.384 . S
N1585 C1577 1.427 . S
N1585 C1583 1.384 . S
H1586 C1592 0.930 . S
H1587 C1596 0.930 . S
H1588 C1601 0.929 . S
H1589 C1599 0.929 . S
H1590 C1594 0.929 . S
H1591 C1600 0.929 . S
C1592 H1586 0.930 . S
C1592 C1593 1.367 . S
C1592 C1600 1.378 . S
C1593 C1592 1.367 . S
C1593 C1601 1.433 . S
C1594 H1590 0.929 . S
C1594 C1596 1.378 . S
C1594 C1598 1.350 . S
C1595 C1598 1.463 1_545 S
C1595 C1600 1.350 . S
C1595 N1603 1.427 . S
C1596 H1587 0.930 . S
C1596 C1594 1.378 . S
C1596 C1597 1.367 . S
C1597 C1596 1.367 . S
C1597 C1599 1.433 . S
C1598 C1594 1.350 . S
C1598 C1595 1.463 1_565 S
C1598 N1602 1.427 . S
C1599 H1589 0.929 . S
C1599 C1597 1.433 . S
C1599 N1602 1.384 . S
C1600 H1591 0.929 . S
C1600 C1592 1.378 . S
C1600 C1595 1.350 . S
C1601 H1588 0.929 . S
C1601 C1593 1.433 . S
C1601 N1603 1.384 . S
N1602 C1598 1.427 . S
N1602 C1599 1.384 . S
N1603 C1595 1.427 . S
N1603 C1601 1.384 . S
H1604 C1610 0.930 . S
H1605 C1614 0.930 . S
H1606 C1619 0.929 . S
H1607 C1617 0.929 . S
H1608 C1612 0.929 1_554 S
H1609 C1618 0.929 1_556 S
C1610 H1604 0.930 . S
C1610 C1611 1.367 . S
C1610 C1618 1.378 . S
C1611 C1610 1.367 . S
C1611 C1619 1.433 . S
C1612 H1608 0.929 1_556 S
C1612 C1614 1.378 . S
C1612 C1616 1.350 . S
C1613 C1616 1.463 1_554 S
C1613 C1618 1.350 . S
C1613 N1621 1.427 . S
C1614 H1605 0.930 . S
C1614 C1612 1.378 . S
C1614 C1615 1.367 . S
C1615 C1614 1.367 . S
C1615 C1617 1.433 . S
C1616 C1612 1.350 . S
C1616 C1613 1.463 1_556 S
C1616 N1620 1.427 . S
C1617 H1607 0.929 . S
C1617 C1615 1.433 . S
C1617 N1620 1.384 . S
C1618 H1609 0.929 1_554 S
C1618 C1610 1.378 . S
C1618 C1613 1.350 . S
C1619 H1606 0.929 . S
C1619 C1611 1.433 . S
C1619 N1621 1.384 . S
N1620 C1616 1.427 . S
N1620 C1617 1.384 . S
N1621 C1613 1.427 . S
N1621 C1619 1.384 . S
H1622 C1628 0.930 . S
H1623 C1632 0.930 . S
H1624 C1637 0.929 . S
H1625 C1635 0.929 . S
H1626 C1630 0.929 . S
H1627 C1636 0.929 . S
C1628 H1622 0.930 . S
C1628 C1629 1.367 . S
C1628 C1636 1.378 . S
C1629 C1628 1.367 . S
C1629 C1637 1.433 . S
C1630 H1626 0.929 . S
C1630 C1632 1.378 . S
C1630 C1634 1.350 . S
C1631 C1634 1.463 1_545 S
C1631 C1636 1.350 . S
C1631 N1639 1.427 . S
C1632 H1623 0.930 . S
C1632 C1630 1.378 . S
C1632 C1633 1.367 . S
C1633 C1632 1.367 . S
C1633 C1635 1.433 . S
C1634 C1630 1.350 . S
C1634 C1631 1.463 1_565 S
C1634 N1638 1.427 . S
C1635 H1625 0.929 . S
C1635 C1633 1.433 . S
C1635 N1638 1.384 . S
C1636 H1627 0.929 . S
C1636 C1628 1.378 . S
C1636 C1631 1.350 . S
C1637 H1624 0.929 . S
C1637 C1629 1.433 . S
C1637 N1639 1.384 . S
N1638 C1634 1.427 . S
N1638 C1635 1.384 . S
N1639 C1631 1.427 . S
N1639 C1637 1.384 . S
H1640 C1646 0.930 . S
H1641 C1650 0.930 . S
H1642 C1655 0.929 . S
H1643 C1653 0.929 . S
H1644 C1648 0.929 . S
H1645 C1654 0.929 . S
C1646 H1640 0.930 . S
C1646 C1647 1.367 . S
C1646 C1654 1.378 . S
C1647 C1646 1.367 . S
C1647 C1655 1.433 . S
C1648 H1644 0.929 . S
C1648 C1650 1.378 . S
C1648 C1652 1.350 . S
C1649 C1652 1.463 . S
C1649 C1654 1.350 . S
C1649 N1657 1.427 . S
C1650 H1641 0.930 . S
C1650 C1648 1.378 . S
C1650 C1651 1.367 . S
C1651 C1650 1.367 . S
C1651 C1653 1.433 . S
C1652 C1648 1.350 . S
C1652 C1649 1.463 . S
C1652 N1656 1.427 . S
C1653 H1643 0.929 . S
C1653 C1651 1.433 . S
C1653 N1656 1.384 . S
C1654 H1645 0.929 . S
C1654 C1646 1.378 . S
C1654 C1649 1.350 . S
C1655 H1642 0.929 . S
C1655 C1647 1.433 . S
C1655 N1657 1.384 . S
N1656 C1652 1.427 . S
N1656 C1653 1.384 . S
N1657 C1649 1.427 . S
N1657 C1655 1.384 . S
H1658 C1664 0.930 . S
H1659 C1668 0.930 . S
H1660 C1673 0.929 . S
H1661 C1671 0.929 . S
H1662 C1666 0.929 1_565 S
H1663 C1672 0.929 1_545 S
C1664 H1658 0.930 . S
C1664 C1665 1.367 . S
C1664 C1672 1.378 . S
C1665 C1664 1.367 . S
C1665 C1673 1.433 . S
C1666 H1662 0.929 1_545 S
C1666 C1668 1.378 . S
C1666 C1670 1.350 . S
C1667 C1670 1.463 1_565 S
C1667 C1672 1.350 . S
C1667 N1675 1.427 . S
C1668 H1659 0.930 . S
C1668 C1666 1.378 . S
C1668 C1669 1.367 . S
C1669 C1668 1.367 . S
C1669 C1671 1.433 . S
C1670 C1666 1.350 . S
C1670 C1667 1.463 1_545 S
C1670 N1674 1.427 . S
C1671 H1661 0.929 . S
C1671 C1669 1.433 . S
C1671 N1674 1.384 . S
C1672 H1663 0.929 1_565 S
C1672 C1664 1.378 . S
C1672 C1667 1.350 . S
C1673 H1660 0.929 . S
C1673 C1665 1.433 . S
C1673 N1675 1.384 . S
N1674 C1670 1.427 . S
N1674 C1671 1.384 . S
N1675 C1667 1.427 . S
N1675 C1673 1.384 . S
H1676 C1682 0.930 . S
H1677 C1686 0.930 . S
H1678 C1691 0.929 . S
H1679 C1689 0.929 . S
H1680 C1684 0.929 . S
H1681 C1690 0.929 . S
C1682 H1676 0.930 . S
C1682 C1683 1.367 . S
C1682 C1690 1.378 . S
C1683 C1682 1.367 . S
C1683 C1691 1.433 . S
C1684 H1680 0.929 . S
C1684 C1686 1.378 . S
C1684 C1688 1.350 . S
C1685 C1688 1.463 1_556 S
C1685 C1690 1.350 . S
C1685 N1693 1.427 . S
C1686 H1677 0.930 . S
C1686 C1684 1.378 . S
C1686 C1687 1.367 . S
C1687 C1686 1.367 . S
C1687 C1689 1.433 . S
C1688 C1684 1.350 . S
C1688 C1685 1.463 1_554 S
C1688 N1692 1.427 . S
C1689 H1679 0.929 . S
C1689 C1687 1.433 . S
C1689 N1692 1.384 . S
C1690 H1681 0.929 . S
C1690 C1682 1.378 . S
C1690 C1685 1.350 . S
C1691 H1678 0.929 . S
C1691 C1683 1.433 . S
C1691 N1693 1.384 . S
N1692 C1688 1.427 . S
N1692 C1689 1.384 . S
N1693 C1685 1.427 . S
N1693 C1691 1.384 . S
H1694 C1700 0.930 . S
H1695 C1704 0.930 . S
H1696 C1709 0.929 . S
H1697 C1707 0.929 . S
H1698 C1702 0.929 1_545 S
H1699 C1708 0.929 1_565 S
C1700 H1694 0.930 . S
C1700 C1701 1.367 . S
C1700 C1708 1.378 . S
C1701 C1700 1.367 . S
C1701 C1709 1.433 . S
C1702 H1698 0.929 1_565 S
C1702 C1704 1.378 . S
C1702 C1706 1.350 . S
C1703 C1706 1.463 1_545 S
C1703 C1708 1.350 . S
C1703 N1711 1.427 . S
C1704 H1695 0.930 . S
C1704 C1702 1.378 . S
C1704 C1705 1.367 . S
C1705 C1704 1.367 . S
C1705 C1707 1.433 . S
C1706 C1702 1.350 . S
C1706 C1703 1.463 1_565 S
C1706 N1710 1.427 . S
C1707 H1697 0.929 . S
C1707 C1705 1.433 . S
C1707 N1710 1.384 . S
C1708 H1699 0.929 1_545 S
C1708 C1700 1.378 . S
C1708 C1703 1.350 . S
C1709 H1696 0.929 . S
C1709 C1701 1.433 . S
C1709 N1711 1.384 . S
N1710 C1706 1.427 . S
N1710 C1707 1.384 . S
N1711 C1703 1.427 . S
N1711 C1709 1.384 . S
H1712 C1718 0.930 . S
H1713 C1722 0.930 . S
H1714 C1727 0.929 . S
H1715 C1725 0.929 . S
H1716 C1720 0.929 1_554 S
H1717 C1726 0.929 1_556 S
C1718 H1712 0.930 . S
C1718 C1719 1.367 . S
C1718 C1726 1.378 . S
C1719 C1718 1.367 . S
C1719 C1727 1.433 . S
C1720 H1716 0.929 1_556 S
C1720 C1722 1.378 . S
C1720 C1724 1.350 . S
C1721 C1724 1.463 1_554 S
C1721 C1726 1.350 . S
C1721 N1729 1.427 . S
C1722 H1713 0.930 . S
C1722 C1720 1.378 . S
C1722 C1723 1.367 . S
C1723 C1722 1.367 . S
C1723 C1725 1.433 . S
C1724 C1720 1.350 . S
C1724 C1721 1.463 1_556 S
C1724 N1728 1.427 . S
C1725 H1715 0.929 . S
C1725 C1723 1.433 . S
C1725 N1728 1.384 . S
C1726 H1717 0.929 1_554 S
C1726 C1718 1.378 . S
C1726 C1721 1.350 . S
C1727 H1714 0.929 . S
C1727 C1719 1.433 . S
C1727 N1729 1.384 . S
N1728 C1724 1.427 . S
N1728 C1725 1.384 . S
N1729 C1721 1.427 . S
N1729 C1727 1.384 . S
H1730 C1736 0.930 . S
H1731 C1740 0.930 . S
H1732 C1745 0.929 . S
H1733 C1743 0.929 . S
H1734 C1738 0.929 . S
H1735 C1744 0.929 . S
C1736 H1730 0.930 . S
C1736 C1737 1.367 . S
C1736 C1744 1.378 . S
C1737 C1736 1.367 . S
C1737 C1745 1.433 . S
C1738 H1734 0.929 . S
C1738 C1740 1.378 . S
C1738 C1742 1.350 . S
C1739 C1742 1.463 . S
C1739 C1744 1.350 . S
C1739 N1747 1.427 . S
C1740 H1731 0.930 . S
C1740 C1738 1.378 . S
C1740 C1741 1.367 . S
C1741 C1740 1.367 . S
C1741 C1743 1.433 . S
C1742 C1738 1.350 . S
C1742 C1739 1.463 . S
C1742 N1746 1.427 . S
C1743 H1733 0.929 . S
C1743 C1741 1.433 . S
C1743 N1746 1.384 . S
C1744 H1735 0.929 . S
C1744 C1736 1.378 . S
C1744 C1739 1.350 . S
C1745 H1732 0.929 . S
C1745 C1737 1.433 . S
C1745 N1747 1.384 . S
N1746 C1742 1.427 . S
N1746 C1743 1.384 . S
N1747 C1739 1.427 . S
N1747 C1745 1.384 . S
H1748 C1754 0.930 . S
H1749 C1758 0.930 . S
H1750 C1763 0.929 . S
H1751 C1761 0.929 . S
H1752 C1756 0.929 . S
H1753 C1762 0.929 . S
C1754 H1748 0.930 . S
C1754 C1755 1.367 . S
C1754 C1762 1.378 . S
C1755 C1754 1.367 . S
C1755 C1763 1.433 . S
C1756 H1752 0.929 . S
C1756 C1758 1.378 . S
C1756 C1760 1.350 . S
C1757 C1760 1.463 . S
C1757 C1762 1.350 . S
C1757 N1765 1.427 . S
C1758 H1749 0.930 . S
C1758 C1756 1.378 . S
C1758 C1759 1.367 . S
C1759 C1758 1.367 . S
C1759 C1761 1.433 . S
C1760 C1756 1.350 . S
C1760 C1757 1.463 . S
C1760 N1764 1.427 . S
C1761 H1751 0.929 . S
C1761 C1759 1.433 . S
C1761 N1764 1.384 . S
C1762 H1753 0.929 . S
C1762 C1754 1.378 . S
C1762 C1757 1.350 . S
C1763 H1750 0.929 . S
C1763 C1755 1.433 . S
C1763 N1765 1.384 . S
N1764 C1760 1.427 . S
N1764 C1761 1.384 . S
N1765 C1757 1.427 . S
N1765 C1763 1.384 . S
H1766 C1772 0.930 . S
H1767 C1776 0.930 . S
H1768 C1781 0.929 . S
H1769 C1779 0.929 . S
H1770 C1774 0.929 . S
H1771 C1780 0.929 . S
C1772 H1766 0.930 . S
C1772 C1773 1.367 . S
C1772 C1780 1.378 . S
C1773 C1772 1.367 . S
C1773 C1781 1.433 . S
C1774 H1770 0.929 . S
C1774 C1776 1.378 . S
C1774 C1778 1.350 . S
C1775 C1778 1.463 . S
C1775 C1780 1.350 . S
C1775 N1783 1.427 . S
C1776 H1767 0.930 . S
C1776 C1774 1.378 . S
C1776 C1777 1.367 . S
C1777 C1776 1.367 . S
C1777 C1779 1.433 . S
C1778 C1774 1.350 . S
C1778 C1775 1.463 . S
C1778 N1782 1.427 . S
C1779 H1769 0.929 . S
C1779 C1777 1.433 . S
C1779 N1782 1.384 . S
C1780 H1771 0.929 . S
C1780 C1772 1.378 . S
C1780 C1775 1.350 . S
C1781 H1768 0.929 . S
C1781 C1773 1.433 . S
C1781 N1783 1.384 . S
N1782 C1778 1.427 . S
N1782 C1779 1.384 . S
N1783 C1775 1.427 . S
N1783 C1781 1.384 . S
H1784 C1790 0.930 . S
H1785 C1794 0.930 . S
H1786 C1799 0.929 . S
H1787 C1797 0.929 . S
H1788 C1792 0.929 . S
H1789 C1798 0.929 . S
C1790 H1784 0.930 . S
C1790 C1791 1.367 . S
C1790 C1798 1.378 . S
C1791 C1790 1.367 . S
C1791 C1799 1.433 . S
C1792 H1788 0.929 . S
C1792 C1794 1.378 . S
C1792 C1796 1.350 . S
C1793 C1796 1.463 1_556 S
C1793 C1798 1.350 . S
C1793 N1801 1.427 . S
C1794 H1785 0.930 . S
C1794 C1792 1.378 . S
C1794 C1795 1.367 . S
C1795 C1794 1.367 . S
C1795 C1797 1.433 . S
C1796 C1792 1.350 . S
C1796 C1793 1.463 1_554 S
C1796 N1800 1.427 . S
C1797 H1787 0.929 . S
C1797 C1795 1.433 . S
C1797 N1800 1.384 . S
C1798 H1789 0.929 . S
C1798 C1790 1.378 . S
C1798 C1793 1.350 . S
C1799 H1786 0.929 . S
C1799 C1791 1.433 . S
C1799 N1801 1.384 . S
N1800 C1796 1.427 . S
N1800 C1797 1.384 . S
N1801 C1793 1.427 . S
N1801 C1799 1.384 . S
H1802 C1808 0.930 . S
H1803 C1812 0.930 . S
H1804 C1817 0.929 . S
H1805 C1815 0.929 . S
H1806 C1810 0.929 . S
H1807 C1816 0.929 . S
C1808 H1802 0.930 . S
C1808 C1809 1.367 . S
C1808 C1816 1.378 . S
C1809 C1808 1.367 . S
C1809 C1817 1.433 . S
C1810 H1806 0.929 . S
C1810 C1812 1.378 . S
C1810 C1814 1.350 . S
C1811 C1814 1.463 . S
C1811 C1816 1.350 . S
C1811 N1819 1.427 . S
C1812 H1803 0.930 . S
C1812 C1810 1.378 . S
C1812 C1813 1.367 . S
C1813 C1812 1.367 . S
C1813 C1815 1.433 . S
C1814 C1810 1.350 . S
C1814 C1811 1.463 . S
C1814 N1818 1.427 . S
C1815 H1805 0.929 . S
C1815 C1813 1.433 . S
C1815 N1818 1.384 . S
C1816 H1807 0.929 . S
C1816 C1808 1.378 . S
C1816 C1811 1.350 . S
C1817 H1804 0.929 . S
C1817 C1809 1.433 . S
C1817 N1819 1.384 . S
N1818 C1814 1.427 . S
N1818 C1815 1.384 . S
N1819 C1811 1.427 . S
N1819 C1817 1.384 . S
H1820 C1826 0.930 . S
H1821 C1830 0.930 . S
H1822 C1835 0.929 . S
H1823 C1833 0.929 . S
H1824 C1828 0.929 . S
H1825 C1834 0.929 . S
C1826 H1820 0.930 . S
C1826 C1827 1.367 . S
C1826 C1834 1.378 . S
C1827 C1826 1.367 . S
C1827 C1835 1.433 . S
C1828 H1824 0.929 . S
C1828 C1830 1.378 . S
C1828 C1832 1.350 . S
C1829 C1832 1.463 . S
C1829 C1834 1.350 . S
C1829 N1837 1.427 . S
C1830 H1821 0.930 . S
C1830 C1828 1.378 . S
C1830 C1831 1.367 . S
C1831 C1830 1.367 . S
C1831 C1833 1.433 . S
C1832 C1828 1.350 . S
C1832 C1829 1.463 . S
C1832 N1836 1.427 . S
C1833 H1823 0.929 . S
C1833 C1831 1.433 . S
C1833 N1836 1.384 . S
C1834 H1825 0.929 . S
C1834 C1826 1.378 . S
C1834 C1829 1.350 . S
C1835 H1822 0.929 . S
C1835 C1827 1.433 . S
C1835 N1837 1.384 . S
N1836 C1832 1.427 . S
N1836 C1833 1.384 . S
N1837 C1829 1.427 . S
N1837 C1835 1.384 . S
H1838 C1844 0.930 . S
H1839 C1848 0.930 . S
H1840 C1853 0.929 . S
H1841 C1851 0.929 . S
H1842 C1846 0.929 . S
H1843 C1852 0.929 . S
C1844 H1838 0.930 . S
C1844 C1845 1.367 . S
C1844 C1852 1.378 . S
C1845 C1844 1.367 . S
C1845 C1853 1.433 . S
C1846 H1842 0.929 . S
C1846 C1848 1.378 . S
C1846 C1850 1.350 . S
C1847 C1850 1.463 . S
C1847 C1852 1.350 . S
C1847 N1855 1.427 . S
C1848 H1839 0.930 . S
C1848 C1846 1.378 . S
C1848 C1849 1.367 . S
C1849 C1848 1.367 . S
C1849 C1851 1.433 . S
C1850 C1846 1.350 . S
C1850 C1847 1.463 . S
C1850 N1854 1.427 . S
C1851 H1841 0.929 . S
C1851 C1849 1.433 . S
C1851 N1854 1.384 . S
C1852 H1843 0.929 . S
C1852 C1844 1.378 . S
C1852 C1847 1.350 . S
C1853 H1840 0.929 . S
C1853 C1845 1.433 . S
C1853 N1855 1.384 . S
N1854 C1850 1.427 . S
N1854 C1851 1.384 . S
N1855 C1847 1.427 . S
N1855 C1853 1.384 . S
H1856 C1862 0.930 . S
H1857 C1866 0.930 . S
H1858 C1871 0.929 . S
H1859 C1869 0.929 . S
H1860 C1864 0.929 . S
H1861 C1870 0.929 . S
C1862 H1856 0.930 . S
C1862 C1863 1.367 . S
C1862 C1870 1.378 . S
C1863 C1862 1.367 . S
C1863 C1871 1.433 . S
C1864 H1860 0.929 . S
C1864 C1866 1.378 . S
C1864 C1868 1.350 . S
C1865 C1868 1.463 . S
C1865 C1870 1.350 . S
C1865 N1873 1.427 . S
C1866 H1857 0.930 . S
C1866 C1864 1.378 . S
C1866 C1867 1.367 . S
C1867 C1866 1.367 . S
C1867 C1869 1.433 . S
C1868 C1864 1.350 . S
C1868 C1865 1.463 . S
C1868 N1872 1.427 . S
C1869 H1859 0.929 . S
C1869 C1867 1.433 . S
C1869 N1872 1.384 . S
C1870 H1861 0.929 . S
C1870 C1862 1.378 . S
C1870 C1865 1.350 . S
C1871 H1858 0.929 . S
C1871 C1863 1.433 . S
C1871 N1873 1.384 . S
N1872 C1868 1.427 . S
N1872 C1869 1.384 . S
N1873 C1865 1.427 . S
N1873 C1871 1.384 . S
H1874 C1880 0.930 . S
H1875 C1884 0.930 . S
H1876 C1889 0.929 . S
H1877 C1887 0.929 . S
H1878 C1882 0.929 . S
H1879 C1888 0.929 . S
C1880 H1874 0.930 . S
C1880 C1881 1.367 . S
C1880 C1888 1.378 . S
C1881 C1880 1.367 . S
C1881 C1889 1.433 . S
C1882 H1878 0.929 . S
C1882 C1884 1.378 . S
C1882 C1886 1.350 . S
C1883 C1886 1.463 . S
C1883 C1888 1.350 . S
C1883 N1891 1.427 . S
C1884 H1875 0.930 . S
C1884 C1882 1.378 . S
C1884 C1885 1.367 . S
C1885 C1884 1.367 . S
C1885 C1887 1.433 . S
C1886 C1882 1.350 . S
C1886 C1883 1.463 . S
C1886 N1890 1.427 . S
C1887 H1877 0.929 . S
C1887 C1885 1.433 . S
C1887 N1890 1.384 . S
C1888 H1879 0.929 . S
C1888 C1880 1.378 . S
C1888 C1883 1.350 . S
C1889 H1876 0.929 . S
C1889 C1881 1.433 . S
C1889 N1891 1.384 . S
N1890 C1886 1.427 . S
N1890 C1887 1.384 . S
N1891 C1883 1.427 . S
N1891 C1889 1.384 . S
H1892 C1898 0.930 . S
H1893 C1902 0.930 . S
H1894 C1907 0.929 . S
H1895 C1905 0.929 . S
H1896 C1900 0.929 . S
H1897 C1906 0.929 . S
C1898 H1892 0.930 . S
C1898 C1899 1.367 . S
C1898 C1906 1.378 . S
C1899 C1898 1.367 . S
C1899 C1907 1.433 . S
C1900 H1896 0.929 . S
C1900 C1902 1.378 . S
C1900 C1904 1.350 . S
C1901 C1904 1.463 . S
C1901 C1906 1.350 . S
C1901 N1909 1.427 . S
C1902 H1893 0.930 . S
C1902 C1900 1.378 . S
C1902 C1903 1.367 . S
C1903 C1902 1.367 . S
C1903 C1905 1.433 . S
C1904 C1900 1.350 . S
C1904 C1901 1.463 . S
C1904 N1908 1.427 . S
C1905 H1895 0.929 . S
C1905 C1903 1.433 . S
C1905 N1908 1.384 . S
C1906 H1897 0.929 . S
C1906 C1898 1.378 . S
C1906 C1901 1.350 . S
C1907 H1894 0.929 . S
C1907 C1899 1.433 . S
C1907 N1909 1.384 . S
N1908 C1904 1.427 . S
N1908 C1905 1.384 . S
N1909 C1901 1.427 . S
N1909 C1907 1.384 . S
H1910 C1916 0.930 . S
H1911 C1920 0.930 . S
H1912 C1925 0.929 . S
H1913 C1923 0.929 . S
H1914 C1918 0.929 . S
H1915 C1924 0.929 . S
C1916 H1910 0.930 . S
C1916 C1917 1.367 . S
C1916 C1924 1.378 . S
C1917 C1916 1.367 . S
C1917 C1925 1.433 . S
C1918 H1914 0.929 . S
C1918 C1920 1.378 . S
C1918 C1922 1.350 . S
C1919 C1922 1.463 . S
C1919 C1924 1.350 . S
C1919 N1927 1.427 . S
C1920 H1911 0.930 . S
C1920 C1918 1.378 . S
C1920 C1921 1.367 . S
C1921 C1920 1.367 . S
C1921 C1923 1.433 . S
C1922 C1918 1.350 . S
C1922 C1919 1.463 . S
C1922 N1926 1.427 . S
C1923 H1913 0.929 . S
C1923 C1921 1.433 . S
C1923 N1926 1.384 . S
C1924 H1915 0.929 . S
C1924 C1916 1.378 . S
C1924 C1919 1.350 . S
C1925 H1912 0.929 . S
C1925 C1917 1.433 . S
C1925 N1927 1.384 . S
N1926 C1922 1.427 . S
N1926 C1923 1.384 . S
N1927 C1919 1.427 . S
N1927 C1925 1.384 . S
H1928 C1934 0.930 . S
H1929 C1938 0.930 . S
H1930 C1943 0.929 . S
H1931 C1941 0.929 . S
H1932 C1936 0.929 . S
H1933 C1942 0.929 . S
C1934 H1928 0.930 . S
C1934 C1935 1.367 . S
C1934 C1942 1.378 . S
C1935 C1934 1.367 . S
C1935 C1943 1.433 . S
C1936 H1932 0.929 . S
C1936 C1938 1.378 . S
C1936 C1940 1.350 . S
C1937 C1940 1.463 . S
C1937 C1942 1.350 . S
C1937 N1945 1.427 . S
C1938 H1929 0.930 . S
C1938 C1936 1.378 . S
C1938 C1939 1.367 . S
C1939 C1938 1.367 . S
C1939 C1941 1.433 . S
C1940 C1936 1.350 . S
C1940 C1937 1.463 . S
C1940 N1944 1.427 . S
C1941 H1931 0.929 . S
C1941 C1939 1.433 . S
C1941 N1944 1.384 . S
C1942 H1933 0.929 . S
C1942 C1934 1.378 . S
C1942 C1937 1.350 . S
C1943 H1930 0.929 . S
C1943 C1935 1.433 . S
C1943 N1945 1.384 . S
N1944 C1940 1.427 . S
N1944 C1941 1.384 . S
N1945 C1937 1.427 . S
N1945 C1943 1.384 . S
H1946 C1952 0.930 . S
H1947 C1956 0.930 . S
H1948 C1961 0.929 . S
H1949 C1959 0.929 . S
H1950 C1954 0.929 . S
H1951 C1960 0.929 . S
C1952 H1946 0.930 . S
C1952 C1953 1.367 . S
C1952 C1960 1.378 . S
C1953 C1952 1.367 . S
C1953 C1961 1.433 . S
C1954 H1950 0.929 . S
C1954 C1956 1.378 . S
C1954 C1958 1.350 . S
C1955 C1958 1.463 . S
C1955 C1960 1.350 . S
C1955 N1963 1.427 . S
C1956 H1947 0.930 . S
C1956 C1954 1.378 . S
C1956 C1957 1.367 . S
C1957 C1956 1.367 . S
C1957 C1959 1.433 . S
C1958 C1954 1.350 . S
C1958 C1955 1.463 . S
C1958 N1962 1.427 . S
C1959 H1949 0.929 . S
C1959 C1957 1.433 . S
C1959 N1962 1.384 . S
C1960 H1951 0.929 . S
C1960 C1952 1.378 . S
C1960 C1955 1.350 . S
C1961 H1948 0.929 . S
C1961 C1953 1.433 . S
C1961 N1963 1.384 . S
N1962 C1958 1.427 . S
N1962 C1959 1.384 . S
N1963 C1955 1.427 . S
N1963 C1961 1.384 . S
H1964 C1970 0.930 . S
H1965 C1974 0.930 . S
H1966 C1979 0.929 . S
H1967 C1977 0.929 . S
H1968 C1972 0.929 . S
H1969 C1978 0.929 . S
C1970 H1964 0.930 . S
C1970 C1971 1.367 . S
C1970 C1978 1.378 . S
C1971 C1970 1.367 . S
C1971 C1979 1.433 . S
C1972 H1968 0.929 . S
C1972 C1974 1.378 . S
C1972 C1976 1.350 . S
C1973 C1976 1.463 . S
C1973 C1978 1.350 . S
C1973 N1981 1.427 . S
C1974 H1965 0.930 . S
C1974 C1972 1.378 . S
C1974 C1975 1.367 . S
C1975 C1974 1.367 . S
C1975 C1977 1.433 . S
C1976 C1972 1.350 . S
C1976 C1973 1.463 . S
C1976 N1980 1.427 . S
C1977 H1967 0.929 . S
C1977 C1975 1.433 . S
C1977 N1980 1.384 . S
C1978 H1969 0.929 . S
C1978 C1970 1.378 . S
C1978 C1973 1.350 . S
C1979 H1966 0.929 . S
C1979 C1971 1.433 . S
C1979 N1981 1.384 . S
N1980 C1976 1.427 . S
N1980 C1977 1.384 . S
N1981 C1973 1.427 . S
N1981 C1979 1.384 . S
H1982 C1988 0.930 . S
H1983 C1992 0.930 . S
H1984 C1997 0.929 . S
H1985 C1995 0.948 . S
H1986 C1990 0.929 . S
H1987 C1996 0.929 . S
C1988 H1982 0.930 . S
C1988 C1989 1.367 . S
C1988 C1996 1.378 . S
C1989 C1988 1.367 . S
C1989 C1997 1.433 . S
C1990 H1986 0.929 . S
C1990 C1992 1.378 . S
C1990 C1994 1.350 . S
C1991 C1994 1.463 . S
C1991 C1996 1.350 . S
C1991 N1999 1.427 . S
C1992 H1983 0.930 . S
C1992 C1990 1.378 . S
C1992 C1993 1.367 . S
C1993 C1992 1.367 . S
C1993 C1995 1.433 . S
C1994 C1990 1.350 . S
C1994 C1991 1.463 . S
C1994 N1998 1.427 . S
C1995 H1985 0.948 . S
C1995 C1993 1.433 . S
C1995 N1998 1.384 . S
C1996 H1987 0.929 . S
C1996 C1988 1.378 . S
C1996 C1991 1.350 . S
C1997 H1984 0.929 . S
C1997 C1989 1.433 . S
C1997 N1999 1.384 . S
N1998 C1994 1.427 . S
N1998 C1995 1.384 . S
N1999 C1991 1.427 . S
N1999 C1997 1.384 . S
H2000 C2006 0.930 . S
H2001 C2010 0.930 . S
H2002 C2015 0.929 . S
H2003 C2013 0.929 . S
H2004 C2008 0.929 . S
H2005 C2014 0.929 . S
C2006 H2000 0.930 . S
C2006 C2007 1.367 . S
C2006 C2014 1.378 . S
C2007 C2006 1.367 . S
C2007 C2015 1.433 . S
C2008 H2004 0.929 . S
C2008 C2010 1.378 . S
C2008 C2012 1.350 . S
C2009 C2012 1.463 . S
C2009 C2014 1.350 . S
C2009 N2017 1.427 . S
C2010 H2001 0.930 . S
C2010 C2008 1.378 . S
C2010 C2011 1.367 . S
C2011 C2010 1.367 . S
C2011 C2013 1.433 . S
C2012 C2008 1.350 . S
C2012 C2009 1.463 . S
C2012 N2016 1.427 . S
C2013 H2003 0.929 . S
C2013 C2011 1.433 . S
C2013 N2016 1.384 . S
C2014 H2005 0.929 . S
C2014 C2006 1.378 . S
C2014 C2009 1.350 . S
C2015 H2002 0.929 . S
C2015 C2007 1.433 . S
C2015 N2017 1.384 . S
N2016 C2012 1.427 . S
N2016 C2013 1.384 . S
N2017 C2009 1.427 . S
N2017 C2015 1.384 . S
H2018 C2024 0.930 . S
H2019 C2028 0.930 . S
H2020 C2033 0.929 . S
H2021 C2031 0.929 1_655 S
H2022 C2026 0.929 . S
H2023 C2032 0.929 . S
C2024 H2018 0.930 . S
C2024 C2025 1.367 . S
C2024 C2032 1.378 . S
C2025 C2024 1.367 . S
C2025 C2033 1.433 . S
C2026 H2022 0.929 . S
C2026 C2028 1.378 . S
C2026 C2030 1.350 . S
C2027 C2030 1.463 . S
C2027 C2032 1.350 . S
C2027 N2035 1.427 . S
C2028 H2019 0.930 . S
C2028 C2026 1.378 . S
C2028 C2029 1.367 . S
C2029 C2028 1.367 . S
C2029 C2031 1.433 . S
C2030 C2026 1.350 . S
C2030 C2027 1.463 . S
C2030 N2034 1.427 . S
C2031 H2021 0.929 1_455 S
C2031 C2029 1.433 . S
C2031 N2034 1.384 . S
C2032 H2023 0.929 . S
C2032 C2024 1.378 . S
C2032 C2027 1.350 . S
C2033 H2020 0.929 . S
C2033 C2025 1.433 . S
C2033 N2035 1.384 . S
N2034 C2030 1.427 . S
N2034 C2031 1.384 . S
N2035 C2027 1.427 . S
N2035 C2033 1.384 . S
H2036 C2042 0.930 . S
H2037 C2046 0.930 . S
H2038 C2051 0.929 . S
H2039 C2049 0.929 . S
H2040 C2044 0.929 . S
H2041 C2050 0.929 . S
C2042 H2036 0.930 . S
C2042 C2043 1.367 . S
C2042 C2050 1.378 . S
C2043 C2042 1.367 . S
C2043 C2051 1.433 . S
C2044 H2040 0.929 . S
C2044 C2046 1.378 . S
C2044 C2048 1.350 . S
C2045 C2048 1.463 . S
C2045 C2050 1.350 . S
C2045 N2053 1.427 . S
C2046 H2037 0.930 . S
C2046 C2044 1.378 . S
C2046 C2047 1.367 . S
C2047 C2046 1.367 . S
C2047 C2049 1.433 . S
C2048 C2044 1.350 . S
C2048 C2045 1.463 . S
C2048 N2052 1.427 . S
C2049 H2039 0.929 . S
C2049 C2047 1.433 . S
C2049 N2052 1.384 . S
C2050 H2041 0.929 . S
C2050 C2042 1.378 . S
C2050 C2045 1.350 . S
C2051 H2038 0.929 . S
C2051 C2043 1.433 . S
C2051 N2053 1.384 . S
N2052 C2048 1.427 . S
N2052 C2049 1.384 . S
N2053 C2045 1.427 . S
N2053 C2051 1.384 . S
H2054 C2060 0.930 . S
H2055 C2064 0.930 . S
H2056 C2069 0.929 . S
H2057 C2067 0.929 . S
H2058 C2062 0.929 . S
H2059 C2068 0.929 . S
C2060 H2054 0.930 . S
C2060 C2061 1.367 . S
C2060 C2068 1.378 . S
C2061 C2060 1.367 . S
C2061 C2069 1.433 . S
C2062 H2058 0.929 . S
C2062 C2064 1.378 . S
C2062 C2066 1.350 . S
C2063 C2066 1.463 . S
C2063 C2068 1.350 . S
C2063 N2071 1.427 . S
C2064 H2055 0.930 . S
C2064 C2062 1.378 . S
C2064 C2065 1.367 . S
C2065 C2064 1.367 . S
C2065 C2067 1.433 . S
C2066 C2062 1.350 . S
C2066 C2063 1.463 . S
C2066 N2070 1.427 . S
C2067 H2057 0.929 . S
C2067 C2065 1.433 . S
C2067 N2070 1.384 . S
C2068 H2059 0.929 . S
C2068 C2060 1.378 . S
C2068 C2063 1.350 . S
C2069 H2056 0.929 . S
C2069 C2061 1.433 . S
C2069 N2071 1.384 . S
N2070 C2066 1.427 . S
N2070 C2067 1.384 . S
N2071 C2063 1.427 . S
N2071 C2069 1.384 . S
H2072 C2078 0.930 . S
H2073 C2082 0.930 . S
H2074 C2087 0.929 . S
H2075 C2085 0.929 . S
H2076 C2080 0.929 . S
H2077 C2086 0.929 . S
C2078 H2072 0.930 . S
C2078 C2079 1.367 . S
C2078 C2086 1.378 . S
C2079 C2078 1.367 . S
C2079 C2087 1.433 . S
C2080 H2076 0.929 . S
C2080 C2082 1.378 . S
C2080 C2084 1.350 . S
C2081 C2084 1.463 . S
C2081 C2086 1.350 . S
C2081 N2089 1.427 . S
C2082 H2073 0.930 . S
C2082 C2080 1.378 . S
C2082 C2083 1.367 . S
C2083 C2082 1.367 . S
C2083 C2085 1.433 . S
C2084 C2080 1.350 . S
C2084 C2081 1.463 . S
C2084 N2088 1.427 . S
C2085 H2075 0.929 . S
C2085 C2083 1.433 . S
C2085 N2088 1.384 . S
C2086 H2077 0.929 . S
C2086 C2078 1.378 . S
C2086 C2081 1.350 . S
C2087 H2074 0.929 . S
C2087 C2079 1.433 . S
C2087 N2089 1.384 . S
N2088 C2084 1.427 . S
N2088 C2085 1.384 . S
N2089 C2081 1.427 . S
N2089 C2087 1.384 . S
H2090 C2096 0.930 . S
H2091 C2100 0.930 . S
H2092 C2105 0.929 . S
H2093 C2103 0.929 . S
H2094 C2098 0.929 . S
H2095 C2104 0.929 . S
C2096 H2090 0.930 . S
C2096 C2097 1.367 . S
C2096 C2104 1.378 . S
C2097 C2096 1.367 . S
C2097 C2105 1.433 . S
C2098 H2094 0.929 . S
C2098 C2100 1.378 . S
C2098 C2102 1.350 . S
C2099 C2102 1.463 . S
C2099 C2104 1.350 . S
C2099 N2107 1.427 . S
C2100 H2091 0.930 . S
C2100 C2098 1.378 . S
C2100 C2101 1.367 . S
C2101 C2100 1.367 . S
C2101 C2103 1.433 . S
C2102 C2098 1.350 . S
C2102 C2099 1.463 . S
C2102 N2106 1.427 . S
C2103 H2093 0.929 . S
C2103 C2101 1.433 . S
C2103 N2106 1.384 . S
C2104 H2095 0.929 . S
C2104 C2096 1.378 . S
C2104 C2099 1.350 . S
C2105 H2092 0.929 . S
C2105 C2097 1.433 . S
C2105 N2107 1.384 . S
N2106 C2102 1.427 . S
N2106 C2103 1.384 . S
N2107 C2099 1.427 . S
N2107 C2105 1.384 . S
H2108 C2114 0.930 . S
H2109 C2118 0.930 . S
H2110 C2123 0.929 . S
H2111 C2121 0.929 . S
H2112 C2116 0.929 . S
H2113 C2122 0.929 . S
C2114 H2108 0.930 . S
C2114 C2115 1.367 . S
C2114 C2122 1.378 . S
C2115 C2114 1.367 . S
C2115 C2123 1.433 . S
C2116 H2112 0.929 . S
C2116 C2118 1.378 . S
C2116 C2120 1.350 . S
C2117 C2120 1.463 . S
C2117 C2122 1.350 . S
C2117 N2125 1.427 . S
C2118 H2109 0.930 . S
C2118 C2116 1.378 . S
C2118 C2119 1.367 . S
C2119 C2118 1.367 . S
C2119 C2121 1.433 . S
C2120 C2116 1.350 . S
C2120 C2117 1.463 . S
C2120 N2124 1.427 . S
C2121 H2111 0.929 . S
C2121 C2119 1.433 . S
C2121 N2124 1.384 . S
C2122 H2113 0.929 . S
C2122 C2114 1.378 . S
C2122 C2117 1.350 . S
C2123 H2110 0.929 . S
C2123 C2115 1.433 . S
C2123 N2125 1.384 . S
N2124 C2120 1.427 . S
N2124 C2121 1.384 . S
N2125 C2117 1.427 . S
N2125 C2123 1.384 . S
H2126 C2132 0.930 . S
H2127 C2136 0.930 . S
H2128 C2141 0.929 . S
H2129 C2139 0.929 . S
H2130 C2134 0.929 . S
H2131 C2140 0.929 . S
C2132 H2126 0.930 . S
C2132 C2133 1.367 . S
C2132 C2140 1.378 . S
C2133 C2132 1.367 . S
C2133 C2141 1.433 . S
C2134 H2130 0.929 . S
C2134 C2136 1.378 . S
C2134 C2138 1.350 . S
C2135 C2138 1.463 . S
C2135 C2140 1.350 . S
C2135 N2143 1.427 . S
C2136 H2127 0.930 . S
C2136 C2134 1.378 . S
C2136 C2137 1.367 . S
C2137 C2136 1.367 . S
C2137 C2139 1.433 . S
C2138 C2134 1.350 . S
C2138 C2135 1.463 . S
C2138 N2142 1.427 . S
C2139 H2129 0.929 . S
C2139 C2137 1.433 . S
C2139 N2142 1.384 . S
C2140 H2131 0.929 . S
C2140 C2132 1.378 . S
C2140 C2135 1.350 . S
C2141 H2128 0.929 . S
C2141 C2133 1.433 . S
C2141 N2143 1.384 . S
N2142 C2138 1.427 . S
N2142 C2139 1.384 . S
N2143 C2135 1.427 . S
N2143 C2141 1.384 . S
H2144 C2150 0.930 . S
H2145 C2154 0.930 . S
H2146 C2159 0.929 . S
H2147 C2157 0.929 . S
H2148 C2152 0.929 . S
H2149 C2158 0.929 . S
C2150 H2144 0.930 . S
C2150 C2151 1.367 . S
C2150 C2158 1.378 . S
C2151 C2150 1.367 . S
C2151 C2159 1.433 . S
C2152 H2148 0.929 . S
C2152 C2154 1.378 . S
C2152 C2156 1.350 . S
C2153 C2156 1.463 . S
C2153 C2158 1.350 . S
C2153 N2161 1.427 . S
C2154 H2145 0.930 . S
C2154 C2152 1.378 . S
C2154 C2155 1.367 . S
C2155 C2154 1.367 . S
C2155 C2157 1.433 . S
C2156 C2152 1.350 . S
C2156 C2153 1.463 . S
C2156 N2160 1.427 . S
C2157 H2147 0.929 . S
C2157 C2155 1.433 . S
C2157 N2160 1.384 . S
C2158 H2149 0.929 . S
C2158 C2150 1.378 . S
C2158 C2153 1.350 . S
C2159 H2146 0.929 . S
C2159 C2151 1.433 . S
C2159 N2161 1.384 . S
N2160 C2156 1.427 . S
N2160 C2157 1.384 . S
N2161 C2153 1.427 . S
N2161 C2159 1.384 . S
H2162 C2168 0.930 . S
H2163 C2172 0.930 . S
H2164 C2177 0.929 . S
H2165 C2175 0.929 . S
H2166 C2170 0.929 . S
H2167 C2176 0.929 . S
C2168 H2162 0.930 . S
C2168 C2169 1.367 . S
C2168 C2176 1.378 . S
C2169 C2168 1.367 . S
C2169 C2177 1.433 . S
C2170 H2166 0.929 . S
C2170 C2172 1.378 . S
C2170 C2174 1.350 . S
C2171 C2174 1.463 . S
C2171 C2176 1.350 . S
C2171 N2179 1.427 . S
C2172 H2163 0.930 . S
C2172 C2170 1.378 . S
C2172 C2173 1.367 . S
C2173 C2172 1.367 . S
C2173 C2175 1.433 . S
C2174 C2170 1.350 . S
C2174 C2171 1.463 . S
C2174 N2178 1.427 . S
C2175 H2165 0.929 . S
C2175 C2173 1.433 . S
C2175 N2178 1.384 . S
C2176 H2167 0.929 . S
C2176 C2168 1.378 . S
C2176 C2171 1.350 . S
C2177 H2164 0.929 . S
C2177 C2169 1.433 . S
C2177 N2179 1.384 . S
N2178 C2174 1.427 . S
N2178 C2175 1.384 . S
N2179 C2171 1.427 . S
N2179 C2177 1.384 . S
H2180 C2186 0.930 . S
H2181 C2190 0.930 . S
H2182 C2195 0.929 . S
H2183 C2193 0.929 . S
H2184 C2188 0.929 . S
H2185 C2194 0.929 . S
C2186 H2180 0.930 . S
C2186 C2187 1.367 . S
C2186 C2194 1.378 . S
C2187 C2186 1.367 . S
C2187 C2195 1.433 . S
C2188 H2184 0.929 . S
C2188 C2190 1.378 . S
C2188 C2192 1.350 . S
C2189 C2192 1.463 . S
C2189 C2194 1.350 . S
C2189 N2197 1.427 . S
C2190 H2181 0.930 . S
C2190 C2188 1.378 . S
C2190 C2191 1.367 . S
C2191 C2190 1.367 . S
C2191 C2193 1.433 . S
C2192 C2188 1.350 . S
C2192 C2189 1.463 . S
C2192 N2196 1.427 . S
C2193 H2183 0.929 . S
C2193 C2191 1.433 . S
C2193 N2196 1.384 . S
C2194 H2185 0.929 . S
C2194 C2186 1.378 . S
C2194 C2189 1.350 . S
C2195 H2182 0.929 . S
C2195 C2187 1.433 . S
C2195 N2197 1.384 . S
N2196 C2192 1.427 . S
N2196 C2193 1.384 . S
N2197 C2189 1.427 . S
N2197 C2195 1.384 . S
H2198 C2204 0.930 . S
H2199 C2208 0.930 . S
H2200 C2213 0.929 . S
H2201 C2211 0.929 1_655 S
H2202 C2206 0.929 . S
H2203 C2212 0.929 . S
C2204 H2198 0.930 . S
C2204 C2205 1.367 . S
C2204 C2212 1.378 . S
C2205 C2204 1.367 . S
C2205 C2213 1.433 . S
C2206 H2202 0.929 . S
C2206 C2208 1.378 . S
C2206 C2210 1.350 . S
C2207 C2210 1.463 . S
C2207 C2212 1.350 . S
C2207 N2215 1.427 . S
C2208 H2199 0.930 . S
C2208 C2206 1.378 . S
C2208 C2209 1.367 . S
C2209 C2208 1.367 . S
C2209 C2211 1.433 . S
C2210 C2206 1.350 . S
C2210 C2207 1.463 . S
C2210 N2214 1.427 . S
C2211 H2201 0.929 1_455 S
C2211 C2209 1.433 . S
C2211 N2214 1.384 . S
C2212 H2203 0.929 . S
C2212 C2204 1.378 . S
C2212 C2207 1.350 . S
C2213 H2200 0.929 . S
C2213 C2205 1.433 . S
C2213 N2215 1.384 . S
N2214 C2210 1.427 . S
N2214 C2211 1.384 . S
N2215 C2207 1.427 . S
N2215 C2213 1.384 . S
H2216 C2222 0.930 . S
H2217 C2226 0.930 . S
H2218 C2231 0.929 . S
H2219 C2229 0.929 . S
H2220 C2224 0.929 . S
H2221 C2230 0.929 . S
C2222 H2216 0.930 . S
C2222 C2223 1.367 . S
C2222 C2230 1.378 . S
C2223 C2222 1.367 . S
C2223 C2231 1.433 . S
C2224 H2220 0.929 . S
C2224 C2226 1.378 . S
C2224 C2228 1.350 . S
C2225 C2228 1.463 . S
C2225 C2230 1.350 . S
C2225 N2233 1.427 . S
C2226 H2217 0.930 . S
C2226 C2224 1.378 . S
C2226 C2227 1.367 . S
C2227 C2226 1.367 . S
C2227 C2229 1.433 . S
C2228 C2224 1.350 . S
C2228 C2225 1.463 . S
C2228 N2232 1.427 . S
C2229 H2219 0.929 . S
C2229 C2227 1.433 . S
C2229 N2232 1.384 . S
C2230 H2221 0.929 . S
C2230 C2222 1.378 . S
C2230 C2225 1.350 . S
C2231 H2218 0.929 . S
C2231 C2223 1.433 . S
C2231 N2233 1.384 . S
N2232 C2228 1.427 . S
N2232 C2229 1.384 . S
N2233 C2225 1.427 . S
N2233 C2231 1.384 . S
H2234 C2240 0.930 . S
H2235 C2244 0.959 . S
H2236 C2249 0.929 . S
H2237 C2247 0.929 . S
H2238 C2242 0.929 . S
H2239 C2248 0.929 . S
C2240 H2234 0.930 . S
C2240 C2241 1.367 . S
C2240 C2248 1.378 . S
C2241 C2240 1.367 . S
C2241 C2249 1.433 . S
C2242 H2238 0.929 . S
C2242 C2244 1.378 . S
C2242 C2246 1.350 . S
C2243 C2246 1.463 . S
C2243 C2248 1.350 . S
C2243 N2251 1.427 . S
C2244 H2235 0.959 . S
C2244 C2242 1.378 . S
C2244 C2245 1.367 . S
C2245 C2244 1.367 . S
C2245 C2247 1.433 . S
C2246 C2242 1.350 . S
C2246 C2243 1.463 . S
C2246 N2250 1.427 . S
C2247 H2237 0.929 . S
C2247 C2245 1.433 . S
C2247 N2250 1.384 . S
C2248 H2239 0.929 . S
C2248 C2240 1.378 . S
C2248 C2243 1.350 . S
C2249 H2236 0.929 . S
C2249 C2241 1.433 . S
C2249 N2251 1.384 . S
N2250 C2246 1.427 . S
N2250 C2247 1.384 . S
N2251 C2243 1.427 . S
N2251 C2249 1.384 . S
H2252 C2258 0.930 . S
H2253 C2262 0.930 . S
H2254 C2267 0.929 . S
H2255 C2265 0.929 . S
H2256 C2260 0.929 . S
H2257 C2266 0.929 . S
C2258 H2252 0.930 . S
C2258 C2259 1.367 . S
C2258 C2266 1.378 . S
C2259 C2258 1.367 . S
C2259 C2267 1.433 . S
C2260 H2256 0.929 . S
C2260 C2262 1.378 . S
C2260 C2264 1.350 . S
C2261 C2264 1.463 . S
C2261 C2266 1.350 . S
C2261 N2269 1.427 . S
C2262 H2253 0.930 . S
C2262 C2260 1.378 . S
C2262 C2263 1.367 . S
C2263 C2262 1.367 . S
C2263 C2265 1.433 . S
C2264 C2260 1.350 . S
C2264 C2261 1.463 . S
C2264 N2268 1.427 . S
C2265 H2255 0.929 . S
C2265 C2263 1.433 . S
C2265 N2268 1.384 . S
C2266 H2257 0.929 . S
C2266 C2258 1.378 . S
C2266 C2261 1.350 . S
C2267 H2254 0.929 . S
C2267 C2259 1.433 . S
C2267 N2269 1.384 . S
N2268 C2264 1.427 . S
N2268 C2265 1.384 . S
N2269 C2261 1.427 . S
N2269 C2267 1.384 . S
H2270 C2276 0.930 . S
H2271 C2280 0.930 . S
H2272 C2285 0.929 . S
H2273 C2283 0.929 . S
H2274 C2278 0.929 . S
H2275 C2284 0.929 . S
C2276 H2270 0.930 . S
C2276 C2277 1.367 . S
C2276 C2284 1.378 . S
C2277 C2276 1.367 . S
C2277 C2285 1.433 . S
C2278 H2274 0.929 . S
C2278 C2280 1.378 . S
C2278 C2282 1.350 . S
C2279 C2282 1.463 . S
C2279 C2284 1.350 . S
C2279 N2287 1.427 . S
C2280 H2271 0.930 . S
C2280 C2278 1.378 . S
C2280 C2281 1.367 . S
C2281 C2280 1.367 . S
C2281 C2283 1.433 . S
C2282 C2278 1.350 . S
C2282 C2279 1.463 . S
C2282 N2286 1.427 . S
C2283 H2273 0.929 . S
C2283 C2281 1.433 . S
C2283 N2286 1.384 . S
C2284 H2275 0.929 . S
C2284 C2276 1.378 . S
C2284 C2279 1.350 . S
C2285 H2272 0.929 . S
C2285 C2277 1.433 . S
C2285 N2287 1.384 . S
N2286 C2282 1.427 . S
N2286 C2283 1.384 . S
N2287 C2279 1.427 . S
N2287 C2285 1.384 . S
H2288 C2294 0.930 . S
H2289 C2298 0.930 . S
H2290 C2303 0.929 . S
H2291 C2301 0.929 . S
H2292 C2296 0.929 . S
H2293 C2302 0.929 . S
C2294 H2288 0.930 . S
C2294 C2295 1.367 . S
C2294 C2302 1.378 . S
C2295 C2294 1.367 . S
C2295 C2303 1.433 . S
C2296 H2292 0.929 . S
C2296 C2298 1.378 . S
C2296 C2300 1.350 . S
C2297 C2300 1.463 . S
C2297 C2302 1.350 . S
C2297 N2305 1.427 . S
C2298 H2289 0.930 . S
C2298 C2296 1.378 . S
C2298 C2299 1.367 . S
C2299 C2298 1.367 . S
C2299 C2301 1.433 . S
C2300 C2296 1.350 . S
C2300 C2297 1.463 . S
C2300 N2304 1.427 . S
C2301 H2291 0.929 . S
C2301 C2299 1.433 . S
C2301 N2304 1.384 . S
C2302 H2293 0.929 . S
C2302 C2294 1.378 . S
C2302 C2297 1.350 . S
C2303 H2290 0.929 . S
C2303 C2295 1.433 . S
C2303 N2305 1.384 . S
N2304 C2300 1.427 . S
N2304 C2301 1.384 . S
N2305 C2297 1.427 . S
N2305 C2303 1.384 . S
H2306 C2312 0.930 . S
H2307 C2316 0.930 . S
H2308 C2321 0.929 . S
H2309 C2319 0.929 . S
H2310 C2314 0.929 . S
H2311 C2320 0.929 . S
C2312 H2306 0.930 . S
C2312 C2313 1.367 . S
C2312 C2320 1.378 . S
C2313 C2312 1.367 . S
C2313 C2321 1.433 . S
C2314 H2310 0.929 . S
C2314 C2316 1.378 . S
C2314 C2318 1.350 . S
C2315 C2318 1.463 . S
C2315 C2320 1.350 . S
C2315 N2323 1.427 . S
C2316 H2307 0.930 . S
C2316 C2314 1.378 . S
C2316 C2317 1.367 . S
C2317 C2316 1.367 . S
C2317 C2319 1.433 . S
C2318 C2314 1.350 . S
C2318 C2315 1.463 . S
C2318 N2322 1.427 . S
C2319 H2309 0.929 . S
C2319 C2317 1.433 . S
C2319 N2322 1.384 . S
C2320 H2311 0.929 . S
C2320 C2312 1.378 . S
C2320 C2315 1.350 . S
C2321 H2308 0.929 . S
C2321 C2313 1.433 . S
C2321 N2323 1.384 . S
N2322 C2318 1.427 . S
N2322 C2319 1.384 . S
N2323 C2315 1.427 . S
N2323 C2321 1.384 . S
H2324 C2330 0.930 . S
H2325 C2334 0.930 . S
H2326 C2339 0.929 . S
H2327 C2337 0.929 . S
H2328 C2332 0.929 . S
H2329 C2338 0.929 . S
C2330 H2324 0.930 . S
C2330 C2331 1.367 . S
C2330 C2338 1.378 . S
C2331 C2330 1.367 . S
C2331 C2339 1.433 . S
C2332 H2328 0.929 . S
C2332 C2334 1.378 . S
C2332 C2336 1.350 . S
C2333 C2336 1.463 . S
C2333 C2338 1.350 . S
C2333 N2341 1.427 . S
C2334 H2325 0.930 . S
C2334 C2332 1.378 . S
C2334 C2335 1.367 . S
C2335 C2334 1.367 . S
C2335 C2337 1.433 . S
C2336 C2332 1.350 . S
C2336 C2333 1.463 . S
C2336 N2340 1.427 . S
C2337 H2327 0.929 . S
C2337 C2335 1.433 . S
C2337 N2340 1.384 . S
C2338 H2329 0.929 . S
C2338 C2330 1.378 . S
C2338 C2333 1.350 . S
C2339 H2326 0.929 . S
C2339 C2331 1.433 . S
C2339 N2341 1.384 . S
N2340 C2336 1.427 . S
N2340 C2337 1.384 . S
N2341 C2333 1.427 . S
N2341 C2339 1.384 . S
H2342 C2348 0.930 . S
H2343 C2352 0.962 . S
H2344 C2357 0.929 . S
H2345 C2355 0.929 . S
H2346 C2350 0.929 . S
H2347 C2356 0.929 . S
C2348 H2342 0.930 . S
C2348 C2349 1.367 . S
C2348 C2356 1.378 . S
C2349 C2348 1.367 . S
C2349 C2357 1.433 . S
C2350 H2346 0.929 . S
C2350 C2352 1.378 . S
C2350 C2354 1.350 . S
C2351 C2354 1.463 . S
C2351 C2356 1.350 . S
C2351 N2359 1.427 . S
C2352 H2343 0.962 . S
C2352 C2350 1.378 . S
C2352 C2353 1.367 . S
C2353 C2352 1.367 . S
C2353 C2355 1.433 . S
C2354 C2350 1.350 . S
C2354 C2351 1.463 . S
C2354 N2358 1.427 . S
C2355 H2345 0.929 . S
C2355 C2353 1.433 . S
C2355 N2358 1.384 . S
C2356 H2347 0.929 . S
C2356 C2348 1.378 . S
C2356 C2351 1.350 . S
C2357 H2344 0.929 . S
C2357 C2349 1.433 . S
C2357 N2359 1.384 . S
N2358 C2354 1.427 . S
N2358 C2355 1.384 . S
N2359 C2351 1.427 . S
N2359 C2357 1.384 . S
H2360 C2366 0.930 . S
H2361 C2370 0.930 . S
H2362 C2375 0.929 . S
H2363 C2373 0.929 . S
H2364 C2368 0.929 . S
H2365 C2374 0.929 . S
C2366 H2360 0.930 . S
C2366 C2367 1.367 . S
C2366 C2374 1.378 . S
C2367 C2366 1.367 . S
C2367 C2375 1.433 . S
C2368 H2364 0.929 . S
C2368 C2370 1.378 . S
C2368 C2372 1.350 . S
C2369 C2372 1.463 . S
C2369 C2374 1.350 . S
C2369 N2377 1.427 . S
C2370 H2361 0.930 . S
C2370 C2368 1.378 . S
C2370 C2371 1.367 . S
C2371 C2370 1.367 . S
C2371 C2373 1.433 . S
C2372 C2368 1.350 . S
C2372 C2369 1.463 . S
C2372 N2376 1.427 . S
C2373 H2363 0.929 . S
C2373 C2371 1.433 . S
C2373 N2376 1.384 . S
C2374 H2365 0.929 . S
C2374 C2366 1.378 . S
C2374 C2369 1.350 . S
C2375 H2362 0.929 . S
C2375 C2367 1.433 . S
C2375 N2377 1.384 . S
N2376 C2372 1.427 . S
N2376 C2373 1.384 . S
N2377 C2369 1.427 . S
N2377 C2375 1.384 . S
H2378 C2384 0.930 . S
H2379 C2388 0.930 . S
H2380 C2393 0.929 1_455 S
H2381 C2391 0.929 . S
H2382 C2386 0.929 . S
H2383 C2392 0.929 . S
C2384 H2378 0.930 . S
C2384 C2385 1.367 . S
C2384 C2392 1.378 . S
C2385 C2384 1.367 . S
C2385 C2393 1.433 . S
C2386 H2382 0.929 . S
C2386 C2388 1.378 . S
C2386 C2390 1.350 . S
C2387 C2390 1.463 . S
C2387 C2392 1.350 . S
C2387 N2395 1.427 . S
C2388 H2379 0.930 . S
C2388 C2386 1.378 . S
C2388 C2389 1.367 . S
C2389 C2388 1.367 . S
C2389 C2391 1.433 . S
C2390 C2386 1.350 . S
C2390 C2387 1.463 . S
C2390 N2394 1.427 . S
C2391 H2381 0.929 . S
C2391 C2389 1.433 . S
C2391 N2394 1.384 . S
C2392 H2383 0.929 . S
C2392 C2384 1.378 . S
C2392 C2387 1.350 . S
C2393 H2380 0.929 1_655 S
C2393 C2385 1.433 . S
C2393 N2395 1.384 . S
N2394 C2390 1.427 . S
N2394 C2391 1.384 . S
N2395 C2387 1.427 . S
N2395 C2393 1.384 . S
H2396 C2402 0.930 . S
H2397 C2406 0.930 . S
H2398 C2411 0.929 . S
H2399 C2409 0.929 . S
H2400 C2404 0.929 . S
H2401 C2410 0.929 . S
C2402 H2396 0.930 . S
C2402 C2403 1.367 . S
C2402 C2410 1.378 . S
C2403 C2402 1.367 . S
C2403 C2411 1.433 . S
C2404 H2400 0.929 . S
C2404 C2406 1.378 . S
C2404 C2408 1.350 . S
C2405 C2408 1.463 . S
C2405 C2410 1.350 . S
C2405 N2413 1.427 . S
C2406 H2397 0.930 . S
C2406 C2404 1.378 . S
C2406 C2407 1.367 . S
C2407 C2406 1.367 . S
C2407 C2409 1.433 . S
C2408 C2404 1.350 . S
C2408 C2405 1.463 . S
C2408 N2412 1.427 . S
C2409 H2399 0.929 . S
C2409 C2407 1.433 . S
C2409 N2412 1.384 . S
C2410 H2401 0.929 . S
C2410 C2402 1.378 . S
C2410 C2405 1.350 . S
C2411 H2398 0.929 . S
C2411 C2403 1.433 . S
C2411 N2413 1.384 . S
N2412 C2408 1.427 . S
N2412 C2409 1.384 . S
N2413 C2405 1.427 . S
N2413 C2411 1.384 . S
H2414 C2420 0.930 . S
H2415 C2424 0.930 . S
H2416 C2429 0.929 . S
H2417 C2427 0.929 . S
H2418 C2422 0.929 . S
H2419 C2428 0.929 . S
C2420 H2414 0.930 . S
C2420 C2421 1.367 . S
C2420 C2428 1.378 . S
C2421 C2420 1.367 . S
C2421 C2429 1.433 . S
C2422 H2418 0.929 . S
C2422 C2424 1.378 . S
C2422 C2426 1.350 . S
C2423 C2426 1.463 . S
C2423 C2428 1.350 . S
C2423 N2431 1.427 . S
C2424 H2415 0.930 . S
C2424 C2422 1.378 . S
C2424 C2425 1.367 . S
C2425 C2424 1.367 . S
C2425 C2427 1.433 . S
C2426 C2422 1.350 . S
C2426 C2423 1.463 . S
C2426 N2430 1.427 . S
C2427 H2417 0.929 . S
C2427 C2425 1.433 . S
C2427 N2430 1.384 . S
C2428 H2419 0.929 . S
C2428 C2420 1.378 . S
C2428 C2423 1.350 . S
C2429 H2416 0.929 . S
C2429 C2421 1.433 . S
C2429 N2431 1.384 . S
N2430 C2426 1.427 . S
N2430 C2427 1.384 . S
N2431 C2423 1.427 . S
N2431 C2429 1.384 . S
C711 C675 0.889 1_554 S
C715 C18 0.885 . S
C729 C40 0.909 . S
C733 C337 0.909 . S
C747 C623 0.885 . S
C751 C52 0.888 . S
C765 C301 0.901 . S
C769 C76 0.909 . S
C783 C587 0.910 . S
C787 C98 0.907 . S
C801 C257 0.887 . S
C805 C118 0.895 . S
C819 C543 0.909 1_556 S
C823 C140 0.902 . S
C837 C205 0.887 . S
C841 C164 0.885 . S
C855 C184 0.916 . S
C859 C499 0.911 1_556 S
C873 C206 0.916 . S
C877 C161 0.911 . S
C891 C447 0.903 . S
C895 C228 0.897 . S
C909 C260 0.901 . S
C913 C125 0.911 . S
C927 C272 0.897 . S
C931 C403 0.904 . S
C945 C304 0.909 . S
C949 C73 0.918 . S
C963 C373 0.914 1_554 S
C967 C326 0.918 . S
C981 C43 0.909 . S
C985 C338 0.900 . S
C999 C370 0.904 . S
C1003 C323 0.895 . S
C1017 C689 0.910 . S
C1021 C384 0.904 . S
C1035 C271 0.908 1_554 S
C1039 C406 0.900 . S
C1053 C436 0.885 . S
C1057 C653 0.886 . S
C1071 C450 0.901 . S
C1075 C227 0.891 1_556 S
C1089 C470 0.886 . S
C1093 C609 0.886 . S
C1107 C492 0.907 . S
C1111 C183 0.899 . S
C1125 C514 0.885 . S
C1129 C557 0.888 . S
C1143 C546 0.899 . S
C1147 C147 0.900 . S
C1161 C521 0.900 . S
C1165 C558 0.900 . S
C1179 C590 0.898 . S
C1183 C95 0.907 1_556 S
C1197 C612 0.920 . S
C1201 C477 0.916 . S
C1215 C624 0.921 . S
C1219 C59 0.919 1_554 S
C1233 C439 0.918 . S
C1237 C656 0.921 . S
C1251 C678 0.921 . S
C1255 C21 0.921 . S
C1269 C690 0.918 . S
C1273 C381 0.913 . S
C1287 C162 1.293 1_554 S
C1291 C10 1.311 . S
C1305 C32 1.293 . S
C1309 C96 1.310 . S
C1323 C128 1.311 . S
C1327 C62 1.293 . S
C1341 C150 1.307 . S
C1345 C74 1.296 1_556 S
C1359 C340 1.272 1_556 S
C1363 C186 1.275 . S
C1377 C208 1.276 . S
C1381 C274 1.266 . S
C1395 C230 1.262 . S
C1399 C294 1.282 . S
C1413 C250 1.268 1_554 S
C1417 C316 1.278 . S
C1431 C524 1.306 . S
C1435 C362 1.296 . S
C1449 C448 1.297 . S
C1453 C382 1.306 1_556 S
C1467 C404 1.300 . S
C1471 C480 1.302 1_554 S
C1485 C502 1.297 . S
C1489 C428 1.309 . S
C1503 C536 1.282 . S
C1507 C692 1.263 . S
C1521 C626 1.281 . S
C1525 C560 1.262 1_554 S
C1539 C646 1.264 1_556 S
C1543 C580 1.277 . S
C1557 C668 1.273 . S
C1561 C602 1.274 . S
C1575 C142 1.523 . S
C1579 C8 1.530 . S
C1593 C172 1.523 . S
C1597 C30 1.523 . S
C1611 C106 1.522 . S
C1615 C54 1.527 . S
C1629 C84 1.522 . S
C1633 C120 1.525 . S
C1647 C194 1.531 . S
C1651 C318 1.530 . S
C1665 C348 1.548 . S
C1669 C216 1.549 . S
C1683 C282 1.540 . S
C1687 C238 1.534 . S
C1701 C296 1.549 . S
C1705 C252 1.547 . S
C1719 C494 1.523 . S
C1723 C360 1.524 . S
C1737 C392 1.535 . S
C1741 C516 1.527 . S
C1755 C458 1.526 . S
C1759 C414 1.534 . S
C1773 C426 1.538 . S
C1777 C472 1.542 . S
C1791 C670 1.543 . S
C1795 C538 1.537 . S
C1809 C700 1.545 . S
C1813 C568 1.539 . S
C1827 C634 1.530 . S
C1831 C582 1.534 . S
C1845 C604 1.530 . S
C1849 C648 1.533 . S
C1863 C615 1.313 . S
C1867 C7 1.320 . S
C1881 C191 1.318 . S
C1885 C29 1.327 1_655 S
C1899 C65 1.322 . S
C1903 C565 1.307 . S
C1917 C235 1.309 . S
C1921 C81 1.320 . S
C1935 C659 1.315 . S
C1939 C103 1.329 . S
C1953 C131 1.320 . S
C1957 C329 1.312 . S
C1971 C153 1.325 . S
C1975 C697 1.319 . S
C1989 C279 1.309 . S
C1993 C169 1.320 1_655 S
C2007 C197 1.327 . S
C2011 C433 1.310 . S
C2025 C15 1.314 . S
C2029 C219 1.327 1_455 S
C2043 C395 1.308 . S
C2047 C241 1.328 . S
C2061 C51 1.308 . S
C2065 C249 1.329 . S
C2079 C285 1.335 . S
C2083 C469 1.317 . S
C2097 C293 1.335 . S
C2101 C139 1.319 . S
C2115 C315 1.335 . S
C2119 C513 1.317 . S
C2133 C109 1.320 . S
C2137 C351 1.334 1_455 S
C2151 C263 1.310 . S
C2155 C359 1.328 . S
C2169 C549 1.310 . S
C2173 C389 1.320 . S
C2187 C411 1.329 . S
C2191 C213 1.314 . S
C2205 C593 1.315 . S
C2209 C425 1.320 1_455 S
C2223 C307 1.312 . S
C2227 C455 1.320 . S
C2241 C681 1.316 . S
C2245 C483 1.329 1_455 S
C2259 C345 1.318 . S
C2263 C505 1.323 . S
C2277 C527 1.328 . S
C2281 C631 1.309 . S
C2295 C87 1.320 . S
C2299 C535 1.332 . S
C2313 C571 1.335 . S
C2317 C367 1.319 . S
C2331 C579 1.334 . S
C2335 C37 1.321 . S
C2349 C417 1.319 . S
C2353 C601 1.335 1_655 S
C2367 C637 1.331 . S
C2371 C117 1.320 . S
C2385 C645 1.330 1_655 S
C2389 C491 1.319 . S
C2403 C175 1.320 . S
C2407 C667 1.332 . S
C2421 C703 1.329 . S
C2425 C461 1.308 . S
