# Generated by pormake.
# Topology zni, (4)-cn, num edge types: 1
# Building blocks:
#     Node 0, Type 0, BuildingBlock: UXUYUI_clean_sbu_0, # of connection points: 4
#     Node 1, Type 0, BuildingBlock: UXUYUI_clean_sbu_0, # of connection points: 4
#     Node 2, Type 0, BuildingBlock: UXUYUI_clean_sbu_0, # of connection points: 4
#     Node 3, Type 0, BuildingBlock: UXUYUI_clean_sbu_0, # of connection points: 4
#     Node 4, Type 0, BuildingBlock: UXUYUI_clean_sbu_0, # of connection points: 4
#     Node 5, Type 0, BuildingBlock: UXUYUI_clean_sbu_0, # of connection points: 4
#     Node 6, Type 0, BuildingBlock: UXUYUI_clean_sbu_0, # of connection points: 4
#     Node 7, Type 0, BuildingBlock: UXUYUI_clean_sbu_0, # of connection points: 4
#     Node 8, Type 0, BuildingBlock: UXUYUI_clean_sbu_0, # of connection points: 4
#     Node 9, Type 0, BuildingBlock: UXUYUI_clean_sbu_0, # of connection points: 4
#     Node 10, Type 0, BuildingBlock: UXUYUI_clean_sbu_0, # of connection points: 4
#     Node 11, Type 0, BuildingBlock: UXUYUI_clean_sbu_0, # of connection points: 4
#     Node 12, Type 0, BuildingBlock: UXUYUI_clean_sbu_0, # of connection points: 4
#     Node 13, Type 0, BuildingBlock: UXUYUI_clean_sbu_0, # of connection points: 4
#     Node 14, Type 0, BuildingBlock: UXUYUI_clean_sbu_0, # of connection points: 4
#     Node 15, Type 0, BuildingBlock: UXUYUI_clean_sbu_0, # of connection points: 4
#     Node 16, Type 0, BuildingBlock: UXUYUI_clean_sbu_0, # of connection points: 4
#     Node 17, Type 0, BuildingBlock: UXUYUI_clean_sbu_0, # of connection points: 4
#     Node 18, Type 0, BuildingBlock: UXUYUI_clean_sbu_0, # of connection points: 4
#     Node 19, Type 0, BuildingBlock: UXUYUI_clean_sbu_0, # of connection points: 4
#     Node 20, Type 0, BuildingBlock: UXUYUI_clean_sbu_0, # of connection points: 4
#     Node 21, Type 0, BuildingBlock: UXUYUI_clean_sbu_0, # of connection points: 4
#     Node 22, Type 0, BuildingBlock: UXUYUI_clean_sbu_0, # of connection points: 4
#     Node 23, Type 0, BuildingBlock: UXUYUI_clean_sbu_0, # of connection points: 4
#     Node 24, Type 0, BuildingBlock: UXUYUI_clean_sbu_0, # of connection points: 4
#     Node 25, Type 0, BuildingBlock: UXUYUI_clean_sbu_0, # of connection points: 4
#     Node 26, Type 0, BuildingBlock: UXUYUI_clean_sbu_0, # of connection points: 4
#     Node 27, Type 0, BuildingBlock: UXUYUI_clean_sbu_0, # of connection points: 4
#     Node 28, Type 0, BuildingBlock: UXUYUI_clean_sbu_0, # of connection points: 4
#     Node 29, Type 0, BuildingBlock: UXUYUI_clean_sbu_0, # of connection points: 4
#     Node 30, Type 0, BuildingBlock: UXUYUI_clean_sbu_0, # of connection points: 4
#     Node 31, Type 0, BuildingBlock: UXUYUI_clean_sbu_0, # of connection points: 4
#     Edge 32, Type (0, 0), BuildingBlock: EZIPEK_clean_linker_0, # of connection points: 2
#     Edge 33, Type (0, 0), BuildingBlock: EZIPEK_clean_linker_0, # of connection points: 2
#     Edge 34, Type (0, 0), BuildingBlock: EZIPEK_clean_linker_0, # of connection points: 2
#     Edge 35, Type (0, 0), BuildingBlock: EZIPEK_clean_linker_0, # of connection points: 2
#     Edge 36, Type (0, 0), BuildingBlock: EZIPEK_clean_linker_0, # of connection points: 2
#     Edge 37, Type (0, 0), BuildingBlock: EZIPEK_clean_linker_0, # of connection points: 2
#     Edge 38, Type (0, 0), BuildingBlock: EZIPEK_clean_linker_0, # of connection points: 2
#     Edge 39, Type (0, 0), BuildingBlock: EZIPEK_clean_linker_0, # of connection points: 2
#     Edge 40, Type (0, 0), BuildingBlock: EZIPEK_clean_linker_0, # of connection points: 2
#     Edge 41, Type (0, 0), BuildingBlock: EZIPEK_clean_linker_0, # of connection points: 2
#     Edge 42, Type (0, 0), BuildingBlock: EZIPEK_clean_linker_0, # of connection points: 2
#     Edge 43, Type (0, 0), BuildingBlock: EZIPEK_clean_linker_0, # of connection points: 2
#     Edge 44, Type (0, 0), BuildingBlock: EZIPEK_clean_linker_0, # of connection points: 2
#     Edge 45, Type (0, 0), BuildingBlock: EZIPEK_clean_linker_0, # of connection points: 2
#     Edge 46, Type (0, 0), BuildingBlock: EZIPEK_clean_linker_0, # of connection points: 2
#     Edge 47, Type (0, 0), BuildingBlock: EZIPEK_clean_linker_0, # of connection points: 2
#     Edge 48, Type (0, 0), BuildingBlock: EZIPEK_clean_linker_0, # of connection points: 2
#     Edge 49, Type (0, 0), BuildingBlock: EZIPEK_clean_linker_0, # of connection points: 2
#     Edge 50, Type (0, 0), BuildingBlock: EZIPEK_clean_linker_0, # of connection points: 2
#     Edge 51, Type (0, 0), BuildingBlock: EZIPEK_clean_linker_0, # of connection points: 2
#     Edge 52, Type (0, 0), BuildingBlock: EZIPEK_clean_linker_0, # of connection points: 2
#     Edge 53, Type (0, 0), BuildingBlock: EZIPEK_clean_linker_0, # of connection points: 2
#     Edge 54, Type (0, 0), BuildingBlock: EZIPEK_clean_linker_0, # of connection points: 2
#     Edge 55, Type (0, 0), BuildingBlock: EZIPEK_clean_linker_0, # of connection points: 2
#     Edge 56, Type (0, 0), BuildingBlock: EZIPEK_clean_linker_0, # of connection points: 2
#     Edge 57, Type (0, 0), BuildingBlock: EZIPEK_clean_linker_0, # of connection points: 2
#     Edge 58, Type (0, 0), BuildingBlock: EZIPEK_clean_linker_0, # of connection points: 2
#     Edge 59, Type (0, 0), BuildingBlock: EZIPEK_clean_linker_0, # of connection points: 2
#     Edge 60, Type (0, 0), BuildingBlock: EZIPEK_clean_linker_0, # of connection points: 2
#     Edge 61, Type (0, 0), BuildingBlock: EZIPEK_clean_linker_0, # of connection points: 2
#     Edge 62, Type (0, 0), BuildingBlock: EZIPEK_clean_linker_0, # of connection points: 2
#     Edge 63, Type (0, 0), BuildingBlock: EZIPEK_clean_linker_0, # of connection points: 2
#     Edge 64, Type (0, 0), BuildingBlock: EZIPEK_clean_linker_0, # of connection points: 2
#     Edge 65, Type (0, 0), BuildingBlock: EZIPEK_clean_linker_0, # of connection points: 2
#     Edge 66, Type (0, 0), BuildingBlock: EZIPEK_clean_linker_0, # of connection points: 2
#     Edge 67, Type (0, 0), BuildingBlock: EZIPEK_clean_linker_0, # of connection points: 2
#     Edge 68, Type (0, 0), BuildingBlock: EZIPEK_clean_linker_0, # of connection points: 2
#     Edge 69, Type (0, 0), BuildingBlock: EZIPEK_clean_linker_0, # of connection points: 2
#     Edge 70, Type (0, 0), BuildingBlock: EZIPEK_clean_linker_0, # of connection points: 2
#     Edge 71, Type (0, 0), BuildingBlock: EZIPEK_clean_linker_0, # of connection points: 2
#     Edge 72, Type (0, 0), BuildingBlock: EZIPEK_clean_linker_0, # of connection points: 2
#     Edge 73, Type (0, 0), BuildingBlock: EZIPEK_clean_linker_0, # of connection points: 2
#     Edge 74, Type (0, 0), BuildingBlock: EZIPEK_clean_linker_0, # of connection points: 2
#     Edge 75, Type (0, 0), BuildingBlock: EZIPEK_clean_linker_0, # of connection points: 2
#     Edge 76, Type (0, 0), BuildingBlock: EZIPEK_clean_linker_0, # of connection points: 2
#     Edge 77, Type (0, 0), BuildingBlock: EZIPEK_clean_linker_0, # of connection points: 2
#     Edge 78, Type (0, 0), BuildingBlock: EZIPEK_clean_linker_0, # of connection points: 2
#     Edge 79, Type (0, 0), BuildingBlock: EZIPEK_clean_linker_0, # of connection points: 2
#     Edge 80, Type (0, 0), BuildingBlock: EZIPEK_clean_linker_0, # of connection points: 2
#     Edge 81, Type (0, 0), BuildingBlock: EZIPEK_clean_linker_0, # of connection points: 2
#     Edge 82, Type (0, 0), BuildingBlock: EZIPEK_clean_linker_0, # of connection points: 2
#     Edge 83, Type (0, 0), BuildingBlock: EZIPEK_clean_linker_0, # of connection points: 2
#     Edge 84, Type (0, 0), BuildingBlock: EZIPEK_clean_linker_0, # of connection points: 2
#     Edge 85, Type (0, 0), BuildingBlock: EZIPEK_clean_linker_0, # of connection points: 2
#     Edge 86, Type (0, 0), BuildingBlock: EZIPEK_clean_linker_0, # of connection points: 2
#     Edge 87, Type (0, 0), BuildingBlock: EZIPEK_clean_linker_0, # of connection points: 2
#     Edge 88, Type (0, 0), BuildingBlock: EZIPEK_clean_linker_0, # of connection points: 2
#     Edge 89, Type (0, 0), BuildingBlock: EZIPEK_clean_linker_0, # of connection points: 2
#     Edge 90, Type (0, 0), BuildingBlock: EZIPEK_clean_linker_0, # of connection points: 2
#     Edge 91, Type (0, 0), BuildingBlock: EZIPEK_clean_linker_0, # of connection points: 2
#     Edge 92, Type (0, 0), BuildingBlock: EZIPEK_clean_linker_0, # of connection points: 2
#     Edge 93, Type (0, 0), BuildingBlock: EZIPEK_clean_linker_0, # of connection points: 2
#     Edge 94, Type (0, 0), BuildingBlock: EZIPEK_clean_linker_0, # of connection points: 2
#     Edge 95, Type (0, 0), BuildingBlock: EZIPEK_clean_linker_0, # of connection points: 2
# Relax obj value: 0.272
# Max RMSD: 0.141
# Mean RMSD: 0.140
data_MOF--net-zni--node1-UXUYUI_clean_sbu_0--edge1-EZIPEK_clean_linker_0
_symmetry_space_group_name_H-M    P1
_symmetry_Int_Tables_number       1
_symmetry_cell_setting            triclinic
loop_
_symmetry_equiv_pos_as_xyz
'x, y, z'
_cell_length_a     61.503483
_cell_length_b     61.105657
_cell_length_c     39.98775
_cell_angle_alpha  90.005504
_cell_angle_beta   90.010844
_cell_angle_gamma 89.996295
loop_
_atom_site_label
_atom_site_type_symbol
_atom_site_fract_x
_atom_site_fract_y
_atom_site_fract_z
_atom_type_partial_charge
Li0 Li 0.14795 0.09249 0.44678 0.0
Li1 Li 0.11456 0.09638 0.41408 0.0
Li2 Li 0.14921 0.08312 0.38855 0.0
Li3 Li 0.14555 0.12147 0.40355 0.0
C4 C 0.13343 0.05145 0.44367 0.0
N5 N 0.13836 0.01537 0.48457 0.0
C6 C 0.11855 0.04751 0.46937 0.0
C7 C 0.15071 0.03698 0.43858 0.0
C8 C 0.12136 0.02919 0.48984 0.0
C9 C 0.15296 0.01886 0.45958 0.0
C10 C 0.11503 0.13609 0.44955 0.0
C11 C 0.08969 0.16276 0.42813 0.0
N12 N 0.09004 0.17323 0.45814 0.0
C13 C 0.11515 0.14711 0.48016 0.0
C14 C 0.10222 0.14396 0.42329 0.0
C15 C 0.10239 0.16586 0.48402 0.0
C16 C 0.17835 0.08098 0.49889 0.0
N17 N 0.15746 0.08634 0.49117 0.0
C18 C 0.14764 0.08625 0.54894 0.0
C19 C 0.14212 0.08878 0.51535 0.0
C20 C 0.16912 0.08114 0.55761 0.0
C21 C 0.18455 0.07806 0.53226 0.0
H22 H 0.19034 0.07948 0.47938 0.0
H23 H 0.12567 0.09313 0.50847 0.0
C24 C 0.07397 0.08922 0.38397 0.0
N25 N 0.08365 0.0946 0.41328 0.0
C26 C 0.05155 0.09173 0.38008 0.0
C27 C 0.04908 0.10261 0.43762 0.0
C28 C 0.07161 0.10003 0.44046 0.0
C29 C 0.03882 0.10103 0.40596 0.0
H30 H 0.08376 0.08351 0.36329 0.0
H31 H 0.07957 0.10294 0.46418 0.0
C32 C 0.19111 0.0974 0.40443 0.0
N33 N 0.23345 0.0887 0.38541 0.0
C34 C 0.20322 0.11321 0.38735 0.0
C35 C 0.20059 0.07719 0.41193 0.0
C36 C 0.22458 0.10849 0.3779 0.0
C37 C 0.22201 0.0731 0.40211 0.0
C38 C 0.13164 0.11015 0.33794 0.0
C39 C 0.15281 0.11384 0.32665 0.0
C40 C 0.11423 0.11216 0.31568 0.0
C41 C 0.15628 0.11917 0.29311 0.0
C42 C 0.11834 0.1176 0.28235 0.0
N43 N 0.13911 0.12093 0.27183 0.0
C44 C 0.14427 0.04694 0.34855 0.0
C45 C 0.17792 0.06457 0.33788 0.0
C46 C 0.14833 0.03169 0.32342 0.0
N47 N 0.15895 0.06296 0.3553 0.0
C48 C 0.18279 0.04943 0.31278 0.0
C49 C 0.1677 0.03297 0.30514 0.0
H50 H 0.12918 0.04628 0.36239 0.0
H51 H 0.18907 0.07781 0.34272 0.0
C52 C 0.16697 0.16215 0.4118 0.0
N53 N 0.1519 0.15132 0.39318 0.0
C54 C 0.17044 0.18455 0.40692 0.0
C55 C 0.14299 0.18413 0.36361 0.0
C56 C 0.14001 0.16182 0.36937 0.0
C57 C 0.15817 0.19571 0.38277 0.0
H58 H 0.17592 0.15347 0.43095 0.0
H59 H 0.12768 0.1531 0.35555 0.0
O60 O 0.13088 0.0692 0.42325 0.0
O61 O 0.1277 0.1179 0.4453 0.0
O62 O 0.17025 0.10189 0.41415 0.0
O63 O 0.12787 0.1049 0.37068 0.0
H64 H 0.10502 0.05852 0.47347 0.0
H65 H 0.16218 0.03963 0.41849 0.0
H66 H 0.11001 0.02594 0.5099 0.0
H67 H 0.16627 0.00753 0.45593 0.0
H68 H 0.07972 0.16904 0.40802 0.0
H69 H 0.12504 0.14124 0.50069 0.0
H70 H 0.10197 0.1357 0.39938 0.0
H71 H 0.10232 0.17456 0.50758 0.0
H72 H 0.13539 0.08866 0.56806 0.0
H73 H 0.20128 0.07418 0.53831 0.0
H74 H 0.04453 0.08674 0.35651 0.0
H75 H 0.04037 0.10572 0.46044 0.0
H76 H 0.19619 0.12897 0.3814 0.0
H77 H 0.19146 0.06471 0.42493 0.0
H78 H 0.23412 0.12055 0.36462 0.0
H79 H 0.22951 0.05751 0.40769 0.0
H80 H 0.1664 0.11266 0.34363 0.0
H81 H 0.09769 0.10973 0.32407 0.0
H82 H 0.17261 0.12196 0.28402 0.0
H83 H 0.10502 0.11922 0.26486 0.0
H84 H 0.13635 0.01919 0.31793 0.0
H85 H 0.19783 0.05086 0.29887 0.0
H86 H 0.18217 0.19317 0.42223 0.0
H87 H 0.13315 0.19241 0.34504 0.0
Li88 Li 0.15669 0.89993 0.68681 0.0
Li89 Li 0.13107 0.89714 0.64203 0.0
Li90 Li 0.15703 0.86726 0.65084 0.0
Li91 Li 0.16874 0.90344 0.62586 0.0
C92 C 0.12679 0.87105 0.7115 0.0
N93 N 0.11276 0.85846 0.77428 0.0
C94 C 0.10784 0.88004 0.72505 0.0
C95 C 0.13845 0.85547 0.72973 0.0
C96 C 0.10106 0.87353 0.75688 0.0
C97 C 0.13113 0.84936 0.76145 0.0
C98 C 0.13941 0.94186 0.64419 0.0
C99 C 0.134 0.97175 0.60566 0.0
N100 N 0.11926 0.98068 0.62702 0.0
C101 C 0.12426 0.95138 0.66581 0.0
C102 C 0.14438 0.95214 0.61389 0.0
C103 C 0.11421 0.97098 0.65663 0.0
C104 C 0.18025 0.90677 0.74751 0.0
N105 N 0.16085 0.9096 0.73172 0.0
C106 C 0.14416 0.92134 0.7826 0.0
C107 C 0.14321 0.91753 0.74825 0.0
C108 C 0.16358 0.91728 0.79977 0.0
C109 C 0.18199 0.91053 0.78188 0.0
H110 H 0.19416 0.9009 0.73371 0.0
H111 H 0.12809 0.91994 0.73505 0.0
C112 C 0.08719 0.88592 0.64128 0.0
N113 N 0.10099 0.90182 0.63046 0.0
C114 C 0.06492 0.8875 0.63525 0.0
C115 C 0.07133 0.92142 0.60578 0.0
C116 C 0.09356 0.91917 0.61238 0.0
C117 C 0.05683 0.90552 0.61761 0.0
H118 H 0.09351 0.87193 0.65466 0.0
H119 H 0.10477 0.93119 0.60283 0.0
C120 C 0.20042 0.87488 0.67056 0.0
N121 N 0.23775 0.85135 0.68422 0.0
C122 C 0.21819 0.87593 0.64882 0.0
C123 C 0.20168 0.86193 0.6993 0.0
C124 C 0.23692 0.8639 0.65616 0.0
C125 C 0.22067 0.85013 0.70574 0.0
C126 C 0.13325 0.87913 0.58354 0.0
C127 C 0.11989 0.86064 0.58263 0.0
C128 C 0.13003 0.89603 0.56053 0.0
C129 C 0.10334 0.85946 0.55876 0.0
C130 C 0.11331 0.89421 0.53704 0.0
N131 N 0.10041 0.87613 0.53668 0.0
C132 C 0.1454 0.8229 0.65759 0.0
C133 C 0.18081 0.82849 0.63573 0.0
C134 C 0.14779 0.80025 0.65471 0.0
N135 N 0.16183 0.83648 0.64826 0.0
C136 C 0.184 0.80594 0.6328 0.0
C137 C 0.16724 0.79164 0.64204 0.0
H138 H 0.13029 0.82969 0.66674 0.0
H139 H 0.19333 0.83959 0.62738 0.0
C140 C 0.20354 0.93092 0.60298 0.0
N141 N 0.18921 0.91478 0.59493 0.0
C142 C 0.22036 0.93633 0.58085 0.0
C143 C 0.20679 0.90891 0.5425 0.0
C144 C 0.19036 0.90402 0.56525 0.0
C145 C 0.2222 0.92492 0.55053 0.0
H146 H 0.20243 0.93891 0.62705 0.0
H147 H 0.17906 0.89095 0.55984 0.0
O148 O 0.13371 0.87729 0.68039 0.0
O149 O 0.14993 0.92305 0.65314 0.0
O150 O 0.18202 0.88668 0.66384 0.0
O151 O 0.14898 0.88098 0.60752 0.0
H152 H 0.09861 0.89217 0.71135 0.0
H153 H 0.15293 0.84806 0.71945 0.0
H154 H 0.08652 0.88049 0.76776 0.0
H155 H 0.14005 0.83736 0.77587 0.0
H156 H 0.13768 0.97988 0.5823 0.0
H157 H 0.12027 0.94369 0.68936 0.0
H158 H 0.15609 0.94505 0.59689 0.0
H159 H 0.10242 0.97851 0.67309 0.0
H160 H 0.1297 0.92654 0.79586 0.0
H161 H 0.1972 0.9073 0.79462 0.0
H162 H 0.05408 0.87488 0.64439 0.0
H163 H 0.0655 0.93541 0.59178 0.0
H164 H 0.21755 0.88587 0.62647 0.0
H165 H 0.18821 0.8611 0.71658 0.0
H166 H 0.25078 0.86455 0.63954 0.0
H167 H 0.22186 0.84004 0.7279 0.0
H168 H 0.12212 0.8475 0.60045 0.0
H169 H 0.14011 0.91054 0.56117 0.0
H170 H 0.09276 0.84533 0.55789 0.0
H171 H 0.1105 0.90724 0.51923 0.0
H172 H 0.13451 0.78957 0.66177 0.0
H173 H 0.19911 0.79972 0.62264 0.0
H174 H 0.23225 0.94859 0.58781 0.0
H175 H 0.208 0.89969 0.51943 0.0
Li176 Li 0.3538 0.90799 0.94618 0.0
Li177 Li 0.3873 0.90416 0.91185 0.0
Li178 Li 0.35303 0.91836 0.8874 0.0
Li179 Li 0.35628 0.87979 0.90136 0.0
C180 C 0.36889 0.95176 0.93575 0.0
N181 N 0.36423 0.9936 0.96091 0.0
C182 C 0.38617 0.96182 0.95245 0.0
C183 C 0.34935 0.96308 0.93144 0.0
C184 C 0.38346 0.98295 0.96512 0.0
C185 C 0.34729 0.98419 0.94444 0.0
C186 C 0.38576 0.8638 0.94756 0.0
C187 C 0.41065 0.83648 0.92685 0.0
N188 N 0.40848 0.8252 0.95597 0.0
C189 C 0.38373 0.85193 0.97725 0.0
C190 C 0.39929 0.85603 0.92211 0.0
C191 C 0.39538 0.83245 0.98104 0.0
C192 C 0.32515 0.9026 1.00035 0.0
N193 N 0.34309 0.91362 0.99013 0.0
C194 C 0.34599 0.93092 0.04351 0.0
C195 C 0.35384 0.92721 0.01122 0.0
C196 C 0.32647 0.92099 0.05463 0.0
C197 C 0.3168 0.90571 0.03251 0.0
H198 H 0.3175 0.89102 0.9836 0.0
H199 H 0.36882 0.93484 0.0033 0.0
C200 C 0.42773 0.91014 0.88126 0.0
N201 N 0.41806 0.90573 0.91094 0.0
C202 C 0.45014 0.90761 0.87765 0.0
C203 C 0.45256 0.89855 0.93596 0.0
C204 C 0.43003 0.90111 0.93851 0.0
C205 C 0.46287 0.89927 0.90428 0.0
H206 H 0.41792 0.91506 0.86011 0.0
H207 H 0.42202 0.89887 0.96235 0.0
C208 C 0.31043 0.90472 0.90876 0.0
N209 N 0.26689 0.91495 0.90204 0.0
C210 C 0.29706 0.89209 0.8881 0.0
C211 C 0.30156 0.92227 0.92654 0.0
C212 C 0.27511 0.89761 0.88487 0.0
C213 C 0.27953 0.92726 0.92267 0.0
C214 C 0.36888 0.89127 0.83596 0.0
C215 C 0.34722 0.88958 0.82581 0.0
C216 C 0.38553 0.88761 0.81284 0.0
C217 C 0.34253 0.88437 0.79258 0.0
C218 C 0.38018 0.88237 0.77983 0.0
N219 N 0.35897 0.88089 0.77046 0.0
C220 C 0.36044 0.95122 0.84239 0.0
C221 C 0.32303 0.94178 0.84335 0.0
C222 C 0.35679 0.96654 0.81721 0.0
N223 N 0.34371 0.93918 0.85483 0.0
C224 C 0.31862 0.95703 0.81812 0.0
C225 C 0.33572 0.96943 0.80472 0.0
H226 H 0.37672 0.94866 0.85187 0.0
H227 H 0.31001 0.93191 0.85328 0.0
C228 C 0.334 0.83961 0.90878 0.0
N229 N 0.34945 0.85017 0.89056 0.0
C230 C 0.3305 0.81718 0.90425 0.0
C231 C 0.35853 0.8171 0.86183 0.0
C232 C 0.36156 0.83944 0.86727 0.0
C233 C 0.34308 0.80575 0.88078 0.0
H234 H 0.32488 0.84848 0.92752 0.0
H235 H 0.37417 0.848 0.85379 0.0
O236 O 0.37136 0.93109 0.92319 0.0
O237 O 0.37408 0.88263 0.94319 0.0
O238 O 0.33192 0.89944 0.91229 0.0
O239 O 0.37387 0.8965 0.86833 0.0
H240 H 0.40146 0.9533 0.95575 0.0
H241 H 0.336 0.95575 0.91795 0.0
H242 H 0.39665 0.99089 0.97828 0.0
H243 H 0.33224 0.99313 0.94133 0.0
H244 H 0.42113 0.83025 0.90733 0.0
H245 H 0.37321 0.85769 0.99709 0.0
H246 H 0.40084 0.86485 0.89878 0.0
H247 H 0.39397 0.82308 0.00388 0.0
H248 H 0.35574 0.94109 0.05977 0.0
H249 H 0.30334 0.89546 0.03919 0.0
H250 H 0.45716 0.91187 0.85375 0.0
H251 H 0.46123 0.89616 0.95902 0.0
H252 H 0.30355 0.87815 0.87471 0.0
H253 H 0.31149 0.93184 0.94336 0.0
H254 H 0.26461 0.88808 0.86879 0.0
H255 H 0.27247 0.94085 0.93617 0.0
H256 H 0.33419 0.89238 0.84335 0.0
H257 H 0.4024 0.88867 0.82032 0.0
H258 H 0.32582 0.88309 0.78437 0.0
H259 H 0.3929 0.87947 0.76168 0.0
H260 H 0.37029 0.9759 0.80731 0.0
H261 H 0.30218 0.95897 0.80887 0.0
H262 H 0.31855 0.80873 0.91938 0.0
H263 H 0.36861 0.80861 0.8438 0.0
Li264 Li 0.3733 0.10663 0.14898 0.0
Li265 Li 0.34462 0.10327 0.19445 0.0
Li266 Li 0.33565 0.10119 0.13661 0.0
Li267 Li 0.34434 0.13644 0.1581 0.0
C268 C 0.34872 0.0615 0.14914 0.0
N269 N 0.33454 0.0225 0.12191 0.0
C270 C 0.3292 0.05217 0.15993 0.0
C271 C 0.36112 0.05094 0.1247 0.0
C272 C 0.32228 0.03246 0.14578 0.0
C273 C 0.35365 0.03123 0.1112 0.0
C274 C 0.38285 0.13494 0.20897 0.0
C275 C 0.39588 0.16479 0.24301 0.0
N276 N 0.41422 0.15319 0.24988 0.0
C277 C 0.4018 0.12329 0.21648 0.0
C278 C 0.37984 0.15585 0.22238 0.0
C279 C 0.41747 0.13281 0.23716 0.0
C280 C 0.41366 0.1191 0.12268 0.0
N281 N 0.40297 0.10243 0.13807 0.0
C282 C 0.43564 0.08137 0.14132 0.0
C283 C 0.41336 0.0837 0.14715 0.0
C284 C 0.4471 0.09849 0.12603 0.0
C285 C 0.43592 0.11743 0.1163 0.0
H286 H 0.40494 0.13383 0.11598 0.0
H287 H 0.40444 0.07085 0.15971 0.0
C288 C 0.31996 0.0854 0.2478 0.0
N289 N 0.33976 0.09373 0.23948 0.0
C290 C 0.31527 0.08008 0.28103 0.0
C291 C 0.35151 0.09165 0.29643 0.0
C292 C 0.35554 0.09661 0.26292 0.0
C293 C 0.33109 0.08355 0.30574 0.0
H294 H 0.30765 0.08339 0.22874 0.0
H295 H 0.37115 0.10309 0.25579 0.0
C296 C 0.35075 0.12638 0.08417 0.0
N297 N 0.34137 0.134 0.01768 0.0
C298 C 0.33295 0.13937 0.07542 0.0
C299 C 0.36384 0.11731 0.05919 0.0
C300 C 0.32852 0.1431 0.04163 0.0
C301 C 0.35874 0.12126 0.02568 0.0
C302 C 0.30745 0.12846 0.19558 0.0
C303 C 0.28473 0.12886 0.19412 0.0
C304 C 0.31809 0.13924 0.22174 0.0
C305 C 0.27309 0.14006 0.21876 0.0
C306 C 0.30588 0.15021 0.24593 0.0
N307 N 0.28381 0.1504 0.24395 0.0
C308 C 0.29526 0.09156 0.10723 0.0
C309 C 0.32517 0.07871 0.0754 0.0
C310 C 0.2809 0.08614 0.08153 0.0
N311 N 0.31699 0.08833 0.10343 0.0
C312 C 0.31135 0.07294 0.04906 0.0
C313 C 0.28903 0.07733 0.05173 0.0
H314 H 0.2892 0.09928 0.12962 0.0
H315 H 0.34251 0.07651 0.07276 0.0
C316 C 0.35839 0.17954 0.14963 0.0
N317 N 0.34027 0.16725 0.15475 0.0
C318 C 0.35674 0.20218 0.14587 0.0
C319 C 0.31774 0.19912 0.15227 0.0
C320 C 0.32014 0.1765 0.15574 0.0
C321 C 0.33622 0.2121 0.14726 0.0
H322 H 0.37413 0.17167 0.14833 0.0
H323 H 0.3059 0.16636 0.15872 0.0
O324 O 0.35565 0.08088 0.16244 0.0
O325 O 0.3675 0.12607 0.18817 0.0
O326 O 0.35579 0.1231 0.11706 0.0
O327 O 0.31901 0.11738 0.17163 0.0
H328 H 0.31942 0.06019 0.17879 0.0
H329 H 0.37621 0.05802 0.11596 0.0
H330 H 0.30715 0.02509 0.15375 0.0
H331 H 0.363 0.02292 0.09213 0.0
H332 H 0.39375 0.18096 0.25354 0.0
H333 H 0.40427 0.10697 0.2068 0.0
H334 H 0.36527 0.16512 0.21701 0.0
H335 H 0.43221 0.12397 0.24316 0.0
H336 H 0.44393 0.06661 0.1492 0.0
H337 H 0.44442 0.13092 0.10456 0.0
H338 H 0.29937 0.07378 0.28754 0.0
H339 H 0.36406 0.09439 0.31497 0.0
H340 H 0.32269 0.1465 0.0945 0.0
H341 H 0.37774 0.10729 0.06566 0.0
H342 H 0.3148 0.15312 0.03445 0.0
H343 H 0.36865 0.11427 0.00605 0.0
H344 H 0.27613 0.12065 0.17417 0.0
H345 H 0.33556 0.13901 0.22361 0.0
H346 H 0.25551 0.14051 0.21786 0.0
H347 H 0.31395 0.15853 0.26633 0.0
H348 H 0.26374 0.08977 0.08422 0.0
H349 H 0.31808 0.06626 0.02621 0.0
H350 H 0.37125 0.21186 0.14179 0.0
H351 H 0.30169 0.20639 0.15305 0.0
Li352 Li 0.14951 0.91942 0.11663 0.0
Li353 Li 0.14524 0.88079 0.10155 0.0
Li354 Li 0.14515 0.91043 0.05726 0.0
Li355 Li 0.11429 0.90515 0.09543 0.0
C356 C 0.19052 0.90635 0.09225 0.0
N357 N 0.23397 0.91657 0.1004 0.0
C358 C 0.20323 0.8947 0.1151 0.0
C359 C 0.2 0.92297 0.07315 0.0
C360 C 0.22516 0.90016 0.11895 0.0
C361 C 0.22196 0.92796 0.07776 0.0
C362 C 0.13138 0.88451 0.16477 0.0
C363 C 0.11959 0.85332 0.19698 0.0
N364 N 0.13487 0.85802 0.22051 0.0
C365 C 0.1469 0.8891 0.18934 0.0
C366 C 0.11752 0.86656 0.16868 0.0
C367 C 0.14841 0.8755 0.21733 0.0
C368 C 0.14338 0.95218 0.16121 0.0
N369 N 0.15993 0.94008 0.14838 0.0
C370 C 0.1855 0.95805 0.18414 0.0
C371 C 0.18078 0.94275 0.15913 0.0
C372 C 0.16856 0.97049 0.1979 0.0
C373 C 0.14735 0.96761 0.18606 0.0
H374 H 0.12698 0.9496 0.15227 0.0
H375 H 0.19368 0.93293 0.14883 0.0
C376 C 0.14457 0.83575 0.08906 0.0
N377 N 0.15271 0.85091 0.11059 0.0
C378 C 0.14714 0.81348 0.09547 0.0
C379 C 0.16749 0.82264 0.14526 0.0
C380 C 0.16442 0.84481 0.13796 0.0
C381 C 0.15841 0.80678 0.12411 0.0
H382 H 0.13573 0.84091 0.06713 0.0
H383 H 0.17091 0.85709 0.15461 0.0
C384 C 0.13192 0.95341 0.07137 0.0
N385 N 0.13757 0.99522 0.04659 0.0
C386 C 0.11432 0.96476 0.05765 0.0
C387 C 0.15232 0.9634 0.07284 0.0
C388 C 0.11753 0.98585 0.04512 0.0
C389 C 0.15487 0.98454 0.06012 0.0
C390 C 0.10764 0.87593 0.04774 0.0
C391 C 0.10189 0.88158 0.01505 0.0
C392 C 0.09427 0.86185 0.06608 0.0
C393 C 0.08265 0.87333 0.00143 0.0
C394 C 0.07511 0.85402 0.05163 0.0
N395 N 0.06973 0.85988 0.01988 0.0
C396 C 0.17024 0.90675 0.99864 0.0
C397 C 0.13887 0.92909 0.99328 0.0
C398 C 0.1743 0.90838 0.96437 0.0
N399 N 0.15259 0.9168 0.01222 0.0
C400 C 0.14229 0.93111 0.95892 0.0
C401 C 0.15991 0.92028 0.94416 0.0
H402 H 0.18061 0.89672 0.0142 0.0
H403 H 0.12458 0.93628 0.00448 0.0
C404 C 0.07454 0.90203 0.12967 0.0
N405 N 0.08351 0.9068 0.0996 0.0
C406 C 0.05207 0.89975 0.13274 0.0
C407 C 0.04828 0.90958 0.07495 0.0
C408 C 0.07085 0.91189 0.07294 0.0
C409 C 0.03851 0.90091 0.10418 0.0
H410 H 0.08485 0.89969 0.15124 0.0
H411 H 0.07831 0.91717 0.04982 0.0
O412 O 0.16909 0.90105 0.08788 0.0
O413 O 0.12972 0.89756 0.1371 0.0
O414 O 0.12902 0.93269 0.08352 0.0
O415 O 0.12621 0.88418 0.06175 0.0
H416 H 0.19623 0.88168 0.12987 0.0
H417 H 0.19055 0.93186 0.05482 0.0
H418 H 0.23516 0.89137 0.1367 0.0
H419 H 0.22948 0.94084 0.06325 0.0
H420 H 0.10907 0.83929 0.20022 0.0
H421 H 0.15778 0.90289 0.18674 0.0
H422 H 0.1054 0.86279 0.14996 0.0
H423 H 0.1604 0.8788 0.23647 0.0
H424 H 0.20205 0.96001 0.19291 0.0
H425 H 0.13399 0.97703 0.19628 0.0
H426 H 0.14012 0.80157 0.07853 0.0
H427 H 0.17641 0.8179 0.16746 0.0
H428 H 0.09839 0.95725 0.05647 0.0
H429 H 0.16601 0.95501 0.08386 0.0
H430 H 0.10409 0.99478 0.03423 0.0
H431 H 0.17059 0.99246 0.06105 0.0
H432 H 0.11214 0.89223 1.00034 0.0
H433 H 0.09851 0.85726 0.09137 0.0
H434 H 0.07796 0.87764 0.9762 0.0
H435 H 0.06448 0.84332 0.06569 0.0
H436 H 0.18791 0.89966 0.95349 0.0
H437 H 0.13076 0.94015 0.94378 0.0
H438 H 0.04579 0.89711 0.15759 0.0
H439 H 0.03895 0.91467 0.05348 0.0
Li440 Li 0.33524 0.9003 0.36495 0.0
Li441 Li 0.3441 0.86492 0.34376 0.0
Li442 Li 0.37262 0.89509 0.35177 0.0
Li443 Li 0.34367 0.89809 0.30694 0.0
C444 C 0.35117 0.87553 0.41744 0.0
N445 N 0.34265 0.86849 0.48435 0.0
C446 C 0.33317 0.86308 0.427 0.0
C447 C 0.36492 0.88431 0.44181 0.0
C448 C 0.32918 0.85965 0.46098 0.0
C449 C 0.36025 0.88067 0.47555 0.0
C450 C 0.30691 0.87238 0.30687 0.0
C451 C 0.30525 0.84983 0.25735 0.0
N452 N 0.28318 0.84989 0.25919 0.0
C453 C 0.28419 0.87221 0.30821 0.0
C454 C 0.31752 0.86107 0.28121 0.0
C455 C 0.27249 0.86073 0.28392 0.0
C456 C 0.29485 0.91094 0.39355 0.0
N457 N 0.31663 0.91328 0.39806 0.0
C458 C 0.31093 0.9282 0.45271 0.0
C459 C 0.32483 0.92228 0.42656 0.0
C460 C 0.28851 0.92467 0.44932 0.0
C461 C 0.2804 0.91657 0.41903 0.0
H462 H 0.28877 0.90381 0.37072 0.0
H463 H 0.3422 0.92395 0.42964 0.0
C464 C 0.35769 0.82091 0.3505 0.0
N465 N 0.33995 0.83407 0.34753 0.0
C466 C 0.35516 0.79828 0.35402 0.0
C467 C 0.31618 0.80326 0.35172 0.0
C468 C 0.31945 0.82575 0.34865 0.0
C469 C 0.33417 0.78931 0.35446 0.0
H470 H 0.37379 0.82803 0.35019 0.0
H471 H 0.30558 0.83655 0.34748 0.0
C472 C 0.34661 0.94005 0.35057 0.0
N473 N 0.33001 0.97886 0.37518 0.0
C474 C 0.32744 0.94873 0.33732 0.0
C475 C 0.35741 0.95115 0.37625 0.0
C476 C 0.31929 0.96836 0.35013 0.0
C477 C 0.34874 0.97075 0.38836 0.0
C478 C 0.38262 0.86792 0.29179 0.0
C479 C 0.40054 0.88109 0.28418 0.0
C480 C 0.38122 0.84688 0.27824 0.0
C481 C 0.41681 0.87295 0.26321 0.0
C482 C 0.39779 0.83935 0.25731 0.0
N483 N 0.41511 0.85242 0.25032 0.0
C484 C 0.414 0.88123 0.37051 0.0
C485 C 0.41179 0.91928 0.35901 0.0
C486 C 0.43632 0.88286 0.37614 0.0
N487 N 0.40233 0.89926 0.36194 0.0
C488 C 0.43406 0.92171 0.36475 0.0
C489 C 0.44649 0.90327 0.37309 0.0
H490 H 0.40598 0.86551 0.37227 0.0
H491 H 0.40215 0.93323 0.35149 0.0
C492 C 0.31765 0.9142 0.25374 0.0
N493 N 0.33802 0.90729 0.26187 0.0
C494 C 0.31243 0.91916 0.22057 0.0
C495 C 0.34932 0.91022 0.2048 0.0
C496 C 0.35385 0.90557 0.23827 0.0
C497 C 0.32833 0.91682 0.1957 0.0
H498 H 0.30529 0.91536 0.27289 0.0
H499 H 0.36992 0.90024 0.24522 0.0
O500 O 0.35571 0.87862 0.38435 0.0
O501 O 0.3185 0.88374 0.33049 0.0
O502 O 0.35471 0.92076 0.33851 0.0
O503 O 0.36673 0.87539 0.31286 0.0
H504 H 0.32241 0.85617 0.40838 0.0
H505 H 0.37899 0.8939 0.43471 0.0
H506 H 0.3153 0.85005 0.46879 0.0
H507 H 0.37067 0.88746 0.49472 0.0
H508 H 0.31329 0.84109 0.23733 0.0
H509 H 0.27562 0.88082 0.32781 0.0
H510 H 0.33499 0.86102 0.27946 0.0
H511 H 0.25492 0.86047 0.28472 0.0
H512 H 0.31764 0.93435 0.47592 0.0
H513 H 0.26315 0.91364 0.41576 0.0
H514 H 0.36935 0.78788 0.35623 0.0
H515 H 0.29978 0.79679 0.35224 0.0
H516 H 0.31886 0.9403 0.31754 0.0
H517 H 0.37213 0.94454 0.38706 0.0
H518 H 0.30442 0.97523 0.3402 0.0
H519 H 0.35685 0.97946 0.40835 0.0
H520 H 0.40177 0.89752 0.29405 0.0
H521 H 0.36745 0.83646 0.28373 0.0
H522 H 0.43076 0.88297 0.25713 0.0
H523 H 0.3969 0.8231 0.24664 0.0
H524 H 0.44561 0.86837 0.38242 0.0
H525 H 0.44161 0.93762 0.36202 0.0
H526 H 0.29609 0.9243 0.21423 0.0
H527 H 0.36194 0.9084 0.18612 0.0
Li528 Li 0.35762 0.12247 0.60121 0.0
Li529 Li 0.35412 0.08337 0.6152 0.0
Li530 Li 0.3882 0.09788 0.59066 0.0
Li531 Li 0.35576 0.09368 0.55557 0.0
C532 C 0.37595 0.11589 0.66397 0.0
N533 N 0.3784 0.13767 0.72444 0.0
C534 C 0.36243 0.10979 0.6905 0.0
C535 C 0.39071 0.13307 0.66822 0.0
C536 C 0.36393 0.121 0.72087 0.0
C537 C 0.39169 0.14388 0.69897 0.0
C538 C 0.31239 0.10105 0.5998 0.0
C539 C 0.27592 0.08709 0.59371 0.0
N540 N 0.26954 0.09936 0.62034 0.0
C541 C 0.30546 0.11358 0.62702 0.0
C542 C 0.29751 0.08777 0.58287 0.0
C543 C 0.28372 0.11248 0.63705 0.0
C544 C 0.34845 0.16553 0.58328 0.0
N545 N 0.3498 0.15229 0.61055 0.0
C546 C 0.34402 0.18282 0.64696 0.0
C547 C 0.34685 0.16037 0.64195 0.0
C548 C 0.34349 0.19692 0.61931 0.0
C549 C 0.34506 0.18799 0.58708 0.0
H550 H 0.35057 0.15869 0.55855 0.0
H551 H 0.34707 0.14959 0.66325 0.0
C552 C 0.36055 0.04847 0.65733 0.0
N553 N 0.3444 0.06207 0.647 0.0
C554 C 0.35667 0.03297 0.68221 0.0
C555 C 0.31942 0.04547 0.68527 0.0
C556 C 0.324 0.06071 0.66013 0.0
C557 C 0.33599 0.0316 0.69668 0.0
H558 H 0.37662 0.04999 0.64658 0.0
H559 H 0.31139 0.07164 0.6518 0.0
C560 C 0.39309 0.12997 0.54753 0.0
N561 N 0.4304 0.15 0.52435 0.0
C562 C 0.40177 0.12407 0.51653 0.0
C563 C 0.40322 0.14619 0.5666 0.0
C564 C 0.42069 0.13436 0.50528 0.0
C565 C 0.42211 0.15609 0.55448 0.0
C566 C 0.36676 0.05037 0.56736 0.0
C567 C 0.38243 0.03649 0.5536 0.0
C568 C 0.34508 0.04363 0.56885 0.0
C569 C 0.37611 0.01602 0.54145 0.0
C570 C 0.33941 0.02303 0.55649 0.0
N571 N 0.35491 0.00977 0.54314 0.0
C572 C 0.4312 0.10081 0.61711 0.0
C573 C 0.42855 0.08653 0.56211 0.0
C574 C 0.45384 0.09891 0.61634 0.0
N575 N 0.41911 0.09492 0.59007 0.0
C576 C 0.45112 0.0843 0.56029 0.0
C577 C 0.46394 0.09068 0.58759 0.0
H578 H 0.42331 0.10685 0.63935 0.0
H579 H 0.41851 0.08166 0.54118 0.0
C580 C 0.3267 0.09712 0.5014 0.0
N581 N 0.34548 0.08764 0.51165 0.0
C582 C 0.31876 0.09344 0.46914 0.0
C583 C 0.34999 0.07081 0.45821 0.0
C584 C 0.35738 0.07503 0.49061 0.0
C585 C 0.32973 0.0791 0.44698 0.0
H586 H 0.31806 0.10795 0.51817 0.0
H587 H 0.37285 0.06854 0.49879 0.0
O588 O 0.37489 0.10492 0.63418 0.0
O589 O 0.3335 0.10215 0.58925 0.0
O590 O 0.37494 0.11969 0.55939 0.0
O591 O 0.37266 0.07061 0.57875 0.0
H592 H 0.35085 0.09663 0.68772 0.0
H593 H 0.40114 0.13819 0.64791 0.0
H594 H 0.35356 0.11646 0.74159 0.0
H595 H 0.40297 0.15726 0.70255 0.0
H596 H 0.26424 0.07684 0.5809 0.0
H597 H 0.31678 0.12388 0.64044 0.0
H598 H 0.30255 0.0781 0.56157 0.0
H599 H 0.27814 0.12203 0.65815 0.0
H600 H 0.34261 0.18917 0.67216 0.0
H601 H 0.34453 0.19843 0.5652 0.0
H602 H 0.36977 0.02247 0.6906 0.0
H603 H 0.3033 0.04474 0.6961 0.0
H604 H 0.39409 0.11151 0.50152 0.0
H605 H 0.39662 0.15099 0.59058 0.0
H606 H 0.4277 0.12986 0.48144 0.0
H607 H 0.43019 0.1686 0.56905 0.0
H608 H 0.39928 0.04154 0.55217 0.0
H609 H 0.33277 0.0542 0.57939 0.0
H610 H 0.38806 0.00511 0.53064 0.0
H611 H 0.32269 0.01759 0.55747 0.0
H612 H 0.46336 0.10376 0.63789 0.0
H613 H 0.45853 0.07777 0.53783 0.0
H614 H 0.30451 0.10255 0.46242 0.0
H615 H 0.36059 0.06153 0.44197 0.0
Li616 Li 0.17044 0.09916 0.87309 0.0
Li617 Li 0.15657 0.13465 0.84849 0.0
Li618 Li 0.13246 0.10287 0.85636 0.0
Li619 Li 0.15947 0.10214 0.8116 0.0
C620 C 0.13403 0.12182 0.91631 0.0
N621 N 0.10327 0.1252 0.96633 0.0
C622 C 0.12337 0.14169 0.92186 0.0
C623 C 0.12923 0.10374 0.93636 0.0
C624 C 0.10783 0.14305 0.94726 0.0
C625 C 0.11356 0.10575 0.96146 0.0
C626 C 0.2002 0.13016 0.82685 0.0
C627 C 0.21768 0.1539 0.78692 0.0
N628 N 0.23483 0.15616 0.80811 0.0
C629 C 0.21805 0.13257 0.84815 0.0
C630 C 0.20003 0.14078 0.79591 0.0
C631 C 0.23539 0.14585 0.83826 0.0
C632 C 0.20536 0.07223 0.89632 0.0
N633 N 0.19101 0.08838 0.90414 0.0
C634 C 0.2082 0.09419 0.95688 0.0
C635 C 0.19194 0.09913 0.93385 0.0
C636 C 0.22359 0.07809 0.94914 0.0
C637 C 0.22196 0.06672 0.91876 0.0
H638 H 0.20433 0.06418 0.87228 0.0
H639 H 0.1805 0.11211 0.93914 0.0
C640 C 0.14081 0.17768 0.84211 0.0
N641 N 0.1585 0.16572 0.85117 0.0
C642 C 0.14102 0.20044 0.8452 0.0
C643 C 0.1776 0.19818 0.8671 0.0
C644 C 0.17665 0.17544 0.86375 0.0
C645 C 0.15958 0.21082 0.85786 0.0
H646 H 0.12636 0.16951 0.8331 0.0
H647 H 0.19021 0.16555 0.87183 0.0
C648 C 0.14627 0.05791 0.85045 0.0
N649 N 0.13323 0.01524 0.86116 0.0
C650 C 0.13755 0.04565 0.82419 0.0
C651 C 0.14852 0.04847 0.8821 0.0
C652 C 0.131 0.0241 0.83014 0.0
C653 C 0.14178 0.02688 0.88703 0.0
C654 C 0.12498 0.13019 0.78961 0.0
C655 C 0.1045 0.12232 0.78037 0.0
C656 C 0.13517 0.1461 0.77001 0.0
C657 C 0.09459 0.13043 0.75149 0.0
C658 C 0.12473 0.15379 0.74129 0.0
N659 N 0.10483 0.14586 0.73271 0.0
C660 C 0.0899 0.11495 0.86692 0.0
C661 C 0.09398 0.07645 0.87082 0.0
C662 C 0.06754 0.11321 0.87189 0.0
N663 N 0.10262 0.09675 0.86631 0.0
C664 C 0.07158 0.07392 0.8755 0.0
C665 C 0.05818 0.09249 0.87584 0.0
H666 H 0.09714 0.13086 0.86285 0.0
H667 H 0.10425 0.06218 0.87028 0.0
C668 C 0.1865 0.09107 0.75636 0.0
N669 N 0.16559 0.09284 0.76717 0.0
C670 C 0.19086 0.08644 0.72276 0.0
C671 C 0.15213 0.08467 0.71258 0.0
C672 C 0.14854 0.08901 0.74635 0.0
C673 C 0.17346 0.08389 0.70039 0.0
H674 H 0.19976 0.09383 0.77361 0.0
H675 H 0.13212 0.08983 0.7558 0.0
O676 O 0.14903 0.12007 0.89125 0.0
O677 O 0.18312 0.11721 0.83614 0.0
O678 O 0.15331 0.07879 0.84486 0.0
O679 O 0.13476 0.12264 0.81809 0.0
H680 H 0.12695 0.15585 0.90657 0.0
H681 H 0.13739 0.08827 0.93238 0.0
H682 H 0.09937 0.15829 0.95176 0.0
H683 H 0.10956 0.09185 0.97704 0.0
H684 H 0.21776 0.16224 0.76306 0.0
H685 H 0.21845 0.12435 0.87213 0.0
H686 H 0.18649 0.13879 0.77893 0.0
H687 H 0.24928 0.14796 0.85453 0.0
H688 H 0.20924 0.10335 0.98003 0.0
H689 H 0.23381 0.05436 0.91206 0.0
H690 H 0.12677 0.20983 0.83826 0.0
H691 H 0.19204 0.2058 0.87737 0.0
H692 H 0.13589 0.0527 0.79948 0.0
H693 H 0.15546 0.05768 0.90259 0.0
H694 H 0.1242 0.01439 0.81007 0.0
H695 H 0.14339 0.01935 0.91139 0.0
H696 H 0.0964 0.10997 0.79522 0.0
H697 H 0.15085 0.15261 0.77707 0.0
H698 H 0.07876 0.12446 0.74401 0.0
H699 H 0.13242 0.16612 0.7259 0.0
H700 H 0.05756 0.12782 0.87191 0.0
H701 H 0.06474 0.0577 0.8784 0.0
H702 H 0.20751 0.08573 0.71403 0.0
H703 H 0.13839 0.08255 0.69592 0.0
Li704 Li 0.85289 0.91742 0.61893 0.0
Li705 Li 0.85582 0.90704 0.55999 0.0
Li706 Li 0.85729 0.87815 0.60537 0.0
Li707 Li 0.88768 0.90346 0.59499 0.0
C708 C 0.81146 0.90003 0.60065 0.0
N709 N 0.76779 0.90351 0.61614 0.0
C710 C 0.79815 0.91447 0.58287 0.0
C711 C 0.80245 0.88705 0.62588 0.0
C712 C 0.77615 0.91608 0.59118 0.0
C713 C 0.78037 0.88914 0.63347 0.0
C714 C 0.8697 0.94841 0.56343 0.0
C715 C 0.87971 0.96806 0.51345 0.0
N716 N 0.86497 0.98387 0.52118 0.0
C717 C 0.85474 0.9649 0.571 0.0
C718 C 0.88242 0.95006 0.53458 0.0
C719 C 0.85258 0.98269 0.5493 0.0
C720 C 0.85773 0.94427 0.67364 0.0
N721 N 0.84234 0.93793 0.65124 0.0
C722 C 0.81646 0.96244 0.67569 0.0
C723 C 0.82194 0.9466 0.65183 0.0
C724 C 0.83215 0.96918 0.69895 0.0
C725 C 0.85292 0.95987 0.69796 0.0
H726 H 0.8739 0.93738 0.67229 0.0
H727 H 0.81008 0.9417 0.63348 0.0
C728 C 0.85299 0.8973 0.492 0.0
N729 N 0.8464 0.91228 0.51501 0.0
C730 C 0.84818 0.9002 0.45825 0.0
C731 C 0.82913 0.93357 0.4723 0.0
C732 C 0.83434 0.93001 0.50593 0.0
C733 C 0.83639 0.91864 0.44813 0.0
H734 H 0.86219 0.88314 0.49979 0.0
H735 H 0.82906 0.9416 0.52461 0.0
C736 C 0.87183 0.88891 0.67043 0.0
N737 N 0.86777 0.87502 0.73587 0.0
C738 C 0.89016 0.88212 0.68828 0.0
C739 C 0.85148 0.88884 0.68594 0.0
C740 C 0.88776 0.87508 0.72132 0.0
C741 C 0.84975 0.88172 0.71902 0.0
C742 C 0.89359 0.87186 0.55118 0.0
C743 C 0.89999 0.85092 0.56118 0.0
C744 C 0.90618 0.88338 0.52802 0.0
C745 C 0.91912 0.84197 0.54822 0.0
C746 C 0.92524 0.87391 0.51572 0.0
N747 N 0.93127 0.85358 0.526 0.0
C748 C 0.83341 0.83873 0.60103 0.0
C749 C 0.8641 0.83734 0.63693 0.0
C750 C 0.82963 0.81638 0.60575 0.0
N751 N 0.85051 0.84865 0.61639 0.0
C752 C 0.86089 0.81503 0.64242 0.0
C753 C 0.84369 0.80434 0.62633 0.0
H754 H 0.82312 0.84805 0.58434 0.0
H755 H 0.87797 0.84542 0.64795 0.0
C756 C 0.92893 0.92412 0.58802 0.0
N757 N 0.91854 0.90546 0.59744 0.0
C758 C 0.95158 0.92549 0.59002 0.0
C759 C 0.95234 0.88841 0.61122 0.0
C760 C 0.9297 0.88783 0.60914 0.0
C761 C 0.96343 0.90743 0.60165 0.0
H762 H 0.91963 0.93796 0.57918 0.0
H763 H 0.92098 0.87332 0.61684 0.0
O764 O 0.83297 0.89802 0.59252 0.0
O765 O 0.87194 0.9308 0.58425 0.0
O766 O 0.87393 0.89581 0.63805 0.0
O767 O 0.87513 0.88108 0.56409 0.0
H768 H 0.80478 0.92448 0.56309 0.0
H769 H 0.81233 0.87534 0.63931 0.0
H770 H 0.76571 0.92732 0.5778 0.0
H771 H 0.77322 0.87927 0.65304 0.0
H772 H 0.88931 0.96946 0.49088 0.0
H773 H 0.84481 0.96393 0.59325 0.0
H774 H 0.89412 0.9375 0.52841 0.0
H775 H 0.84099 0.99553 0.55476 0.0
H776 H 0.80033 0.96956 0.67574 0.0
H777 H 0.86539 0.96494 0.71546 0.0
H778 H 0.85384 0.88833 0.44011 0.0
H779 H 0.81987 0.9479 0.46514 0.0
H780 H 0.90606 0.88221 0.67669 0.0
H781 H 0.83723 0.89445 0.67272 0.0
H782 H 0.90179 0.86968 0.73539 0.0
H783 H 0.83409 0.88159 0.73133 0.0
H784 H 0.89037 0.84169 0.57886 0.0
H785 H 0.90139 0.89955 0.51988 0.0
H786 H 0.92433 0.82582 0.55587 0.0
H787 H 0.93525 0.88273 0.49803 0.0
H788 H 0.81631 0.80844 0.59284 0.0
H789 H 0.87212 0.80604 0.65814 0.0
H790 H 0.95977 0.94042 0.58268 0.0
H791 H 0.96112 0.8743 0.62052 0.0
Li792 Li 0.84618 0.13709 0.34527 0.0
Li793 Li 0.87225 0.10749 0.35635 0.0
Li794 Li 0.84408 0.10369 0.31155 0.0
Li795 Li 0.83378 0.10223 0.36999 0.0
C796 C 0.87406 0.14091 0.29299 0.0
N797 N 0.8852 0.1737 0.24862 0.0
C798 C 0.89401 0.15167 0.29608 0.0
C799 C 0.85984 0.14674 0.26723 0.0
C800 C 0.89931 0.16825 0.27345 0.0
C801 C 0.86575 0.16336 0.24506 0.0
C802 C 0.85982 0.11822 0.42093 0.0
C803 C 0.87025 0.09076 0.46117 0.0
N804 N 0.86983 0.10617 0.48571 0.0
C805 C 0.8595 0.13378 0.44651 0.0
C806 C 0.86525 0.09652 0.42826 0.0
C807 C 0.86461 0.12737 0.47911 0.0
C808 C 0.82415 0.17819 0.34174 0.0
N809 N 0.84361 0.1681 0.34663 0.0
C810 C 0.86091 0.20241 0.35732 0.0
C811 C 0.86181 0.17967 0.35438 0.0
C812 C 0.84108 0.21323 0.35233 0.0
C813 C 0.82255 0.20096 0.34419 0.0
H814 H 0.8098 0.16859 0.33659 0.0
H815 H 0.87695 0.17115 0.35877 0.0
C816 C 0.91265 0.08421 0.36681 0.0
N817 N 0.90183 0.10361 0.36864 0.0
C818 C 0.93489 0.08328 0.37433 0.0
C819 C 0.93413 0.12217 0.38568 0.0
C820 C 0.912 0.1223 0.37828 0.0
C821 C 0.94584 0.10256 0.38338 0.0
H822 H 0.90413 0.06961 0.35893 0.0
H823 H 0.90292 0.13745 0.37949 0.0
C824 C 0.80083 0.12003 0.3174 0.0
N825 N 0.76167 0.12043 0.28346 0.0
C826 C 0.78437 0.10529 0.32605 0.0
C827 C 0.79725 0.13513 0.29171 0.0
C828 C 0.76472 0.10571 0.30853 0.0
C829 C 0.77738 0.13503 0.27479 0.0
C830 C 0.84474 0.06104 0.34338 0.0
C831 C 0.82453 0.05814 0.3281 0.0
C832 C 0.8557 0.04298 0.35664 0.0
C833 C 0.81557 0.03717 0.32629 0.0
C834 C 0.84619 0.02225 0.35437 0.0
N835 N 0.82649 0.01981 0.33936 0.0
C836 C 0.85932 0.09184 0.249 0.0
C837 C 0.82081 0.09069 0.2512 0.0
C838 C 0.85898 0.08832 0.21454 0.0
N839 N 0.84041 0.09363 0.26642 0.0
C840 C 0.81972 0.08724 0.21668 0.0
C841 C 0.83898 0.08659 0.198 0.0
H842 H 0.87467 0.09421 0.26169 0.0
H843 H 0.80597 0.09176 0.26541 0.0
C844 C 0.80004 0.10772 0.41371 0.0
N845 N 0.81381 0.09189 0.40269 0.0
C846 C 0.785 0.10317 0.43878 0.0
C847 C 0.79846 0.066 0.44084 0.0
C848 C 0.8134 0.0713 0.41569 0.0
C849 C 0.78419 0.08216 0.45262 0.0
H850 H 0.80095 0.12398 0.40312 0.0
H851 H 0.82479 0.05912 0.40702 0.0
O852 O 0.86855 0.12471 0.31503 0.0
O853 O 0.85456 0.12424 0.389 0.0
O854 O 0.82013 0.11994 0.33444 0.0
O855 O 0.8537 0.08146 0.34589 0.0
H856 H 0.90526 0.1473 0.31579 0.0
H857 H 0.84444 0.13847 0.26429 0.0
H858 H 0.91467 0.17677 0.27561 0.0
H859 H 0.85489 0.16801 0.225 0.0
H860 H 0.87444 0.07403 0.46722 0.0
H861 H 0.85528 0.15064 0.44121 0.0
H862 H 0.86555 0.08422 0.40883 0.0
H863 H 0.86441 0.13924 0.49918 0.0
H864 H 0.87546 0.21146 0.36382 0.0
H865 H 0.80698 0.20888 0.34045 0.0
H866 H 0.94357 0.06792 0.37229 0.0
H867 H 0.94215 0.1373 0.39256 0.0
H868 H 0.78674 0.09356 0.34598 0.0
H869 H 0.80967 0.14681 0.28484 0.0
H870 H 0.7519 0.09433 0.31488 0.0
H871 H 0.77444 0.14657 0.25478 0.0
H872 H 0.81583 0.07193 0.31791 0.0
H873 H 0.8713 0.04497 0.36878 0.0
H874 H 0.79991 0.03471 0.31455 0.0
H875 H 0.85445 0.00814 0.36462 0.0
H876 H 0.87411 0.08794 0.20069 0.0
H877 H 0.80404 0.08595 0.2045 0.0
H878 H 0.7742 0.11596 0.44752 0.0
H879 H 0.79824 0.04966 0.45133 0.0
Li880 Li 0.61597 0.09916 0.09531 0.0
Li881 Li 0.64776 0.12474 0.10309 0.0
Li882 Li 0.64695 0.09497 0.05825 0.0
Li883 Li 0.65049 0.08578 0.11613 0.0
C884 C 0.61015 0.13135 0.05078 0.0
N885 N 0.57349 0.15165 0.02565 0.0
C886 C 0.60535 0.15291 0.05979 0.0
C887 C 0.59643 0.12018 0.02874 0.0
C888 C 0.58671 0.16288 0.04685 0.0
C889 C 0.57793 0.1307 0.01641 0.0
C890 C 0.634 0.10508 0.16988 0.0
C891 C 0.65511 0.1098 0.22015 0.0
N892 N 0.64057 0.09721 0.2371 0.0
C893 C 0.61926 0.0922 0.18774 0.0
C894 C 0.65206 0.11398 0.18613 0.0
C895 C 0.6229 0.08838 0.22173 0.0
C896 C 0.57446 0.07874 0.09427 0.0
N897 N 0.58523 0.09783 0.09989 0.0
C898 C 0.552 0.11605 0.11346 0.0
C899 C 0.57456 0.11623 0.10972 0.0
C900 C 0.54049 0.09661 0.10771 0.0
C901 C 0.5519 0.07774 0.09817 0.0
H902 H 0.58341 0.06427 0.08705 0.0
H903 H 0.58361 0.13105 0.11471 0.0
C904 C 0.66937 0.16529 0.09422 0.0
N905 N 0.65474 0.15414 0.11317 0.0
C906 C 0.67244 0.18772 0.09921 0.0
C907 C 0.64563 0.18654 0.14348 0.0
C908 C 0.6431 0.16418 0.13767 0.0
C909 C 0.66019 0.19854 0.12376 0.0
H910 H 0.67815 0.15688 0.0746 0.0
H911 H 0.63129 0.15494 0.15189 0.0
C912 C 0.63185 0.05436 0.06218 0.0
N913 N 0.63396 0.01913 0.019 0.0
C914 C 0.64736 0.03795 0.06714 0.0
C915 C 0.61731 0.05277 0.03544 0.0
C916 C 0.64816 0.02027 0.04502 0.0
C917 C 0.61869 0.03487 0.0138 0.0
C918 C 0.69159 0.09821 0.09768 0.0
C919 C 0.69998 0.07794 0.08798 0.0
C920 C 0.70452 0.11269 0.11604 0.0
C921 C 0.72121 0.07237 0.09708 0.0
C922 C 0.72568 0.10653 0.1246 0.0
N923 N 0.73351 0.08667 0.11504 0.0
C924 C 0.64793 0.10459 0.99006 0.0
C925 C 0.66701 0.07195 0.00289 0.0
C926 C 0.65204 0.10179 0.95608 0.0
N927 N 0.65504 0.08959 0.01266 0.0
C928 C 0.67147 0.06846 0.96898 0.0
C929 C 0.66368 0.08343 0.94528 0.0
H930 H 0.63895 0.11876 0.99835 0.0
H931 H 0.67293 0.06046 0.02123 0.0
C932 C 0.64687 0.04885 0.15538 0.0
N933 N 0.66116 0.06526 0.1487 0.0
C934 C 0.65124 0.03367 0.18048 0.0
C935 C 0.68525 0.05218 0.19132 0.0
C936 C 0.68004 0.06729 0.16628 0.0
C937 C 0.67054 0.03535 0.19884 0.0
H938 H 0.63174 0.04791 0.14168 0.0
H939 H 0.69076 0.08091 0.16174 0.0
O940 O 0.62824 0.12125 0.06336 0.0
O941 O 0.63094 0.1087 0.13651 0.0
O942 O 0.63082 0.07183 0.08352 0.0
O943 O 0.67097 0.1041 0.08874 0.0
H944 H 0.61584 0.16185 0.07666 0.0
H945 H 0.6 0.10354 0.02137 0.0
H946 H 0.58276 0.17954 0.05368 0.0
H947 H 0.5671 0.12221 0.99949 0.0
H948 H 0.66906 0.1165 0.23306 0.0
H949 H 0.60525 0.08513 0.17538 0.0
H950 H 0.66372 0.12383 0.17252 0.0
H951 H 0.61169 0.07836 0.23588 0.0
H952 H 0.54363 0.13082 0.12108 0.0
H953 H 0.54343 0.06246 0.09385 0.0
H954 H 0.68371 0.19667 0.08353 0.0
H955 H 0.63588 0.19454 0.16245 0.0
H956 H 0.65882 0.03895 0.0876 0.0
H957 H 0.60514 0.06526 0.03135 0.0
H958 H 0.66014 0.0075 0.04845 0.0
H959 H 0.60763 0.0335 0.99287 0.0
H960 H 0.69014 0.06654 0.07389 0.0
H961 H 0.69824 0.12847 0.12368 0.0
H962 H 0.72789 0.05669 0.08989 0.0
H963 H 0.73587 0.11753 0.13887 0.0
H964 H 0.64602 0.11372 0.9383 0.0
H965 H 0.68068 0.05421 0.96128 0.0
H966 H 0.63954 0.02089 0.18587 0.0
H967 H 0.7002 0.05396 0.20537 0.0
Li968 Li 0.6292 0.89492 0.85593 0.0
Li969 Li 0.65532 0.86523 0.84592 0.0
Li970 Li 0.66737 0.90042 0.87021 0.0
Li971 Li 0.65751 0.89845 0.81168 0.0
C972 C 0.64089 0.88448 0.92093 0.0
N973 N 0.62953 0.8965 0.98518 0.0
C974 C 0.64013 0.8688 0.94631 0.0
C975 C 0.63584 0.90628 0.92818 0.0
C976 C 0.63434 0.8752 0.97865 0.0
C977 C 0.63016 0.91203 0.96083 0.0
C978 C 0.6276 0.86161 0.79243 0.0
C979 C 0.63606 0.83954 0.74416 0.0
N980 N 0.61627 0.82974 0.74663 0.0
C981 C 0.6073 0.85141 0.7944 0.0
C982 C 0.64208 0.85569 0.76708 0.0
C983 C 0.6019 0.83528 0.77106 0.0
C984 C 0.58857 0.91781 0.86558 0.0
N985 N 0.59966 0.8986 0.8678 0.0
C986 C 0.5677 0.87965 0.88515 0.0
C987 C 0.58981 0.87981 0.87775 0.0
C988 C 0.5557 0.89904 0.88244 0.0
C989 C 0.56631 0.91843 0.873 0.0
H990 H 0.59688 0.93248 0.8575 0.0
H991 H 0.59913 0.86482 0.87923 0.0
C992 C 0.67737 0.82407 0.84509 0.0
N993 N 0.65779 0.83426 0.84778 0.0
C994 C 0.67875 0.80131 0.8478 0.0
C995 C 0.63988 0.80007 0.85689 0.0
C996 C 0.63923 0.8228 0.85367 0.0
C997 C 0.65984 0.78915 0.85406 0.0
H998 H 0.69197 0.83359 0.84152 0.0
H999 H 0.62397 0.8314 0.85642 0.0
C1000 C 0.65693 0.94116 0.84151 0.0
N1001 N 0.67587 0.98192 0.83469 0.0
C1002 C 0.67741 0.94321 0.82676 0.0
C1003 C 0.64605 0.95984 0.85278 0.0
C1004 C 0.68672 0.96395 0.82353 0.0
C1005 C 0.6559 0.98031 0.84912 0.0
C1006 C 0.70089 0.88123 0.81919 0.0
C1007 C 0.71765 0.89569 0.82756 0.0
C1008 C 0.70441 0.86529 0.79468 0.0
C1009 C 0.73757 0.89414 0.81096 0.0
C1010 C 0.72457 0.86427 0.77867 0.0
N1011 N 0.74059 0.8786 0.78705 0.0
C1012 C 0.70083 0.89567 0.91468 0.0
C1013 C 0.68721 0.93202 0.91514 0.0
C1014 C 0.7157 0.90073 0.93977 0.0
N1015 N 0.68703 0.91122 0.90289 0.0
C1016 C 0.70194 0.93783 0.9403 0.0
C1017 C 0.71628 0.92197 0.95282 0.0
H1018 H 0.7001 0.87924 0.90466 0.0
H1019 H 0.67578 0.94397 0.90585 0.0
C1020 C 0.64266 0.91178 0.74952 0.0
N1021 N 0.66147 0.9081 0.76648 0.0
C1022 C 0.64298 0.91507 0.71499 0.0
C1023 C 0.68213 0.91166 0.7161 0.0
C1024 C 0.68109 0.9088 0.75072 0.0
C1025 C 0.66285 0.91427 0.69785 0.0
H1026 H 0.6273 0.91111 0.76265 0.0
H1027 H 0.6959 0.90635 0.76458 0.0
O1028 O 0.6466 0.87842 0.8892 0.0
O1029 O 0.63316 0.87739 0.81515 0.0
O1030 O 0.6476 0.92101 0.8454 0.0
O1031 O 0.68129 0.88247 0.8353 0.0
H1032 H 0.64398 0.85185 0.94104 0.0
H1033 H 0.63632 0.91865 0.90887 0.0
H1034 H 0.63369 0.86323 0.99856 0.0
H1035 H 0.62625 0.92884 0.96681 0.0
H1036 H 0.64711 0.83482 0.72438 0.0
H1037 H 0.59586 0.85586 0.8138 0.0
H1038 H 0.65776 0.86351 0.76501 0.0
H1039 H 0.58628 0.8272 0.77234 0.0
H1040 H 0.55991 0.86445 0.8923 0.0
H1041 H 0.55737 0.93362 0.87064 0.0
H1042 H 0.6944 0.7933 0.8458 0.0
H1043 H 0.62504 0.79111 0.86194 0.0
H1044 H 0.68603 0.92895 0.81797 0.0
H1045 H 0.63022 0.95851 0.86442 0.0
H1046 H 0.70258 0.96575 0.81218 0.0
H1047 H 0.6477 0.99491 0.8578 0.0
H1048 H 0.71531 0.90806 0.84658 0.0
H1049 H 0.69173 0.85385 0.78802 0.0
H1050 H 0.75064 0.90529 0.81709 0.0
H1051 H 0.72748 0.85207 0.75958 0.0
H1052 H 0.72655 0.88817 0.94912 0.0
H1053 H 0.702 0.95433 0.95018 0.0
H1054 H 0.62782 0.91709 0.70155 0.0
H1055 H 0.69773 0.91108 0.70354 0.0
Li1056 Li 0.88954 0.09773 0.90166 0.0
Li1057 Li 0.85639 0.12395 0.89691 0.0
Li1058 Li 0.85826 0.09454 0.93967 0.0
Li1059 Li 0.85344 0.08526 0.88266 0.0
C1060 C 0.8831 0.12671 0.96514 0.0
N1061 N 0.8925 0.14016 0.02946 0.0
C1062 C 0.87101 0.14347 0.97994 0.0
C1063 C 0.89993 0.11675 0.98302 0.0
C1064 C 0.87605 0.15007 0.01248 0.0
C1065 C 0.9044 0.12375 0.01556 0.0
C1066 C 0.86827 0.10494 0.82852 0.0
C1067 C 0.84467 0.10995 0.78101 0.0
N1068 N 0.85846 0.09775 0.76206 0.0
C1069 C 0.88224 0.09248 0.80862 0.0
C1070 C 0.84935 0.11379 0.81469 0.0
C1071 C 0.87697 0.08899 0.77505 0.0
C1072 C 0.92848 0.07714 0.882 0.0
N1073 N 0.92002 0.09532 0.89667 0.0
C1074 C 0.95548 0.11034 0.90469 0.0
C1075 C 0.93293 0.11183 0.90786 0.0
C1076 C 0.96462 0.09179 0.88963 0.0
C1077 C 0.95097 0.07503 0.87814 0.0
H1078 H 0.91774 0.06433 0.87329 0.0
H1079 H 0.92569 0.12614 0.91923 0.0
C1080 C 0.83344 0.1639 0.90569 0.0
N1081 N 0.84916 0.15349 0.88781 0.0
C1082 C 0.83 0.18635 0.9014 0.0
C1083 C 0.85846 0.18666 0.85961 0.0
C1084 C 0.86143 0.16427 0.86482 0.0
C1085 C 0.84285 0.19792 0.87844 0.0
H1086 H 0.82408 0.15489 0.924 0.0
H1087 H 0.87394 0.15557 0.85124 0.0
C1088 C 0.87466 0.05162 0.92965 0.0
N1089 N 0.87709 0.01109 0.95995 0.0
C1090 C 0.85654 0.03784 0.92998 0.0
C1091 C 0.89412 0.04467 0.94423 0.0
C1092 C 0.85807 0.01744 0.94556 0.0
C1093 C 0.89499 0.02416 0.95959 0.0
C1094 C 0.81256 0.09663 0.90785 0.0
C1095 C 0.80547 0.07772 0.92417 0.0
C1096 C 0.79787 0.10896 0.88898 0.0
C1097 C 0.78383 0.07117 0.92076 0.0
C1098 C 0.77633 0.10188 0.88622 0.0
N1099 N 0.76983 0.08327 0.902 0.0
C1100 C 0.83277 0.09776 0.99829 0.0
C1101 C 0.86558 0.07789 0.00529 0.0
C1102 C 0.82835 0.09622 0.0325 0.0
N1103 N 0.85124 0.08881 0.98548 0.0
C1104 C 0.86182 0.07599 0.03958 0.0
C1105 C 0.84321 0.08554 0.05349 0.0
H1106 H 0.82188 0.10677 0.98214 0.0
H1107 H 0.88047 0.07157 0.99482 0.0
C1108 C 0.85685 0.04896 0.84241 0.0
N1109 N 0.84212 0.06455 0.85111 0.0
C1110 C 0.85201 0.03374 0.81758 0.0
C1111 C 0.81657 0.05038 0.81143 0.0
C1112 C 0.82222 0.06555 0.83621 0.0
C1113 C 0.83177 0.0345 0.80166 0.0
H1114 H 0.87269 0.04879 0.85416 0.0
H1115 H 0.81097 0.07838 0.84272 0.0
O1116 O 0.87853 0.12013 0.93324 0.0
O1117 O 0.87284 0.10812 0.8616 0.0
O1118 O 0.87367 0.07151 0.91409 0.0
O1119 O 0.83359 0.10349 0.91117 0.0
H1120 H 0.85791 0.1513 0.96644 0.0
H1121 H 0.90931 0.10361 0.97198 0.0
H1122 H 0.86684 0.16303 0.02428 0.0
H1123 H 0.91731 0.11613 0.02976 0.0
H1124 H 0.83004 0.11661 0.76997 0.0
H1125 H 0.89689 0.08543 0.81909 0.0
H1126 H 0.83829 0.12333 0.82991 0.0
H1127 H 0.88755 0.07929 0.75934 0.0
H1128 H 0.96569 0.12354 0.91363 0.0
H1129 H 0.95765 0.06057 0.86631 0.0
H1130 H 0.81791 0.19471 0.91637 0.0
H1131 H 0.86867 0.19525 0.84187 0.0
H1132 H 0.84154 0.04273 0.91801 0.0
H1133 H 0.90835 0.0551 0.9439 0.0
H1134 H 0.84416 0.0066 0.94606 0.0
H1135 H 0.9099 0.01862 0.97119 0.0
H1136 H 0.81651 0.06833 0.93955 0.0
H1137 H 0.80309 0.12377 0.87647 0.0
H1138 H 0.77813 0.05652 0.93317 0.0
H1139 H 0.76479 0.11117 0.87155 0.0
H1140 H 0.81397 0.10398 0.04269 0.0
H1141 H 0.87372 0.06792 0.0553 0.0
H1142 H 0.86407 0.02169 0.81046 0.0
H1143 H 0.80084 0.05139 0.79935 0.0
Li1144 Li 0.6658 0.10362 0.63209 0.0
Li1145 Li 0.6539 0.10622 0.69045 0.0
Li1146 Li 0.62645 0.1084 0.64321 0.0
Li1147 Li 0.65145 0.13851 0.65586 0.0
C1148 C 0.64837 0.06193 0.64856 0.0
N1149 N 0.65336 0.01815 0.63276 0.0
C1150 C 0.662 0.04861 0.66777 0.0
C1151 C 0.63697 0.05285 0.62167 0.0
C1152 C 0.66439 0.02656 0.65929 0.0
C1153 C 0.6398 0.03073 0.61397 0.0
C1154 C 0.69542 0.12007 0.68933 0.0
C1155 C 0.71418 0.12971 0.74024 0.0
N1156 N 0.73015 0.11516 0.73256 0.0
C1157 C 0.7121 0.10532 0.68183 0.0
C1158 C 0.69654 0.1325 0.71864 0.0
C1159 C 0.72951 0.10306 0.70403 0.0
C1160 C 0.69338 0.10844 0.57838 0.0
N1161 N 0.68695 0.09307 0.60089 0.0
C1162 C 0.71201 0.06714 0.57787 0.0
C1163 C 0.69588 0.07267 0.60108 0.0
C1164 C 0.71877 0.08278 0.55442 0.0
C1165 C 0.70925 0.10357 0.55466 0.0
H1166 H 0.68629 0.12463 0.57913 0.0
H1167 H 0.69093 0.06085 0.61956 0.0
C1168 C 0.64317 0.10273 0.75823 0.0
N1169 N 0.65832 0.09635 0.73547 0.0
C1170 C 0.64585 0.09779 0.79202 0.0
C1171 C 0.67929 0.079 0.77843 0.0
C1172 C 0.67599 0.08436 0.74481 0.0
C1173 C 0.66423 0.0861 0.80239 0.0
H1174 H 0.62913 0.11196 0.75023 0.0
H1175 H 0.68778 0.07934 0.72636 0.0
C1176 C 0.63823 0.12295 0.57957 0.0
N1177 N 0.62393 0.11862 0.51438 0.0
C1178 C 0.63055 0.14119 0.56208 0.0
C1179 C 0.63891 0.10259 0.56373 0.0
C1180 C 0.6233 0.13864 0.5292 0.0
C1181 C 0.63156 0.1007 0.53081 0.0
C1182 C 0.6197 0.14488 0.69792 0.0
C1183 C 0.59979 0.15279 0.68622 0.0
C1184 C 0.63102 0.15657 0.72242 0.0
C1185 C 0.59169 0.1725 0.69883 0.0
C1186 C 0.62241 0.17623 0.73435 0.0
N1187 N 0.6031 0.18374 0.72238 0.0
C1188 C 0.58783 0.08284 0.63715 0.0
C1189 C 0.58714 0.11693 0.60958 0.0
C1190 C 0.56695 0.07796 0.62539 0.0
N1191 N 0.59774 0.10177 0.62818 0.0
C1192 C 0.56633 0.1127 0.59729 0.0
C1193 C 0.55623 0.09217 0.60271 0.0
H1194 H 0.59604 0.0716 0.65382 0.0
H1195 H 0.5947 0.13259 0.60479 0.0
C1196 C 0.6719 0.17989 0.66579 0.0
N1197 N 0.65392 0.16957 0.65378 0.0
C1198 C 0.67377 0.20263 0.66334 0.0
C1199 C 0.63863 0.20363 0.63619 0.0
C1200 C 0.63742 0.18091 0.63922 0.0
C1201 C 0.65704 0.21464 0.64817 0.0
H1202 H 0.68487 0.17046 0.67693 0.0
H1203 H 0.62335 0.17226 0.62983 0.0
O1204 O 0.64564 0.08351 0.65679 0.0
O1205 O 0.6782 0.12242 0.66797 0.0
O1206 O 0.64511 0.12512 0.61197 0.0
O1207 O 0.62819 0.12592 0.68523 0.0
H1208 H 0.67078 0.05525 0.68882 0.0
H1209 H 0.6259 0.06268 0.60702 0.0
H1210 H 0.67501 0.01612 0.67381 0.0
H1211 H 0.63114 0.02353 0.59315 0.0
H1212 H 0.71515 0.13909 0.76314 0.0
H1213 H 0.71158 0.09563 0.65925 0.0
H1214 H 0.68385 0.14405 0.7248 0.0
H1215 H 0.74247 0.09163 0.6986 0.0
H1216 H 0.71929 0.051 0.57839 0.0
H1217 H 0.71432 0.11601 0.53701 0.0
H1218 H 0.63389 0.10335 0.81 0.0
H1219 H 0.69359 0.06984 0.78577 0.0
H1220 H 0.63007 0.15712 0.57382 0.0
H1221 H 0.64524 0.08843 0.57659 0.0
H1222 H 0.61717 0.15259 0.51546 0.0
H1223 H 0.63197 0.08501 0.5183 0.0
H1224 H 0.59074 0.1439 0.66746 0.0
H1225 H 0.64637 0.15061 0.7319 0.0
H1226 H 0.57637 0.17888 0.68984 0.0
H1227 H 0.6311 0.18554 0.75309 0.0
H1228 H 0.55948 0.06342 0.63531 0.0
H1229 H 0.55829 0.12596 0.58448 0.0
H1230 H 0.68818 0.21075 0.67275 0.0
H1231 H 0.62547 0.21251 0.62437 0.0
Li1232 Li 0.65047 0.91702 0.38048 0.0
Li1233 Li 0.64681 0.90712 0.43878 0.0
Li1234 Li 0.64712 0.87834 0.39491 0.0
Li1235 Li 0.61493 0.90312 0.40185 0.0
C1236 C 0.69157 0.90645 0.40879 0.0
N1237 N 0.73374 0.92197 0.41089 0.0
C1238 C 0.69686 0.92416 0.42936 0.0
C1239 C 0.70777 0.89647 0.38958 0.0
C1240 C 0.71827 0.93181 0.42999 0.0
C1241 C 0.72898 0.90461 0.3909 0.0
C1242 C 0.62933 0.95077 0.42559 0.0
C1243 C 0.60882 0.98001 0.45102 0.0
N1244 N 0.62663 0.99315 0.44927 0.0
C1245 C 0.64741 0.96457 0.42394 0.0
C1246 C 0.60983 0.95855 0.43908 0.0
C1247 C 0.64572 0.98594 0.43607 0.0
C1248 C 0.64498 0.9445 0.32702 0.0
N1249 N 0.6608 0.93781 0.34847 0.0
C1250 C 0.68634 0.96233 0.32325 0.0
C1251 C 0.68127 0.94626 0.34693 0.0
C1252 C 0.67021 0.96945 0.30099 0.0
C1253 C 0.64939 0.96029 0.30283 0.0
H1254 H 0.6288 0.93769 0.32905 0.0
H1255 H 0.69358 0.94092 0.36427 0.0
C1256 C 0.66797 0.89774 0.4993 0.0
N1257 N 0.65418 0.91222 0.48457 0.0
C1258 C 0.6717 0.89864 0.53375 0.0
C1259 C 0.64743 0.92969 0.53705 0.0
C1260 C 0.64416 0.92819 0.5026 0.0
C1261 C 0.66099 0.91453 0.55297 0.0
H1262 H 0.67542 0.88499 0.48444 0.0
H1263 H 0.63286 0.93916 0.4907 0.0
C1264 C 0.63649 0.88871 0.32856 0.0
N1265 N 0.64839 0.87647 0.26466 0.0
C1266 C 0.62058 0.88486 0.30433 0.0
C1267 C 0.65845 0.88635 0.32035 0.0
C1268 C 0.62693 0.87866 0.27215 0.0
C1269 C 0.66414 0.88017 0.28788 0.0
C1270 C 0.61712 0.87621 0.46263 0.0
C1271 C 0.61965 0.85531 0.47622 0.0
C1272 C 0.60441 0.89173 0.47927 0.0
C1273 C 0.60935 0.85024 0.50637 0.0
C1274 C 0.59449 0.88606 0.50947 0.0
N1275 N 0.59711 0.8656 0.52226 0.0
C1276 C 0.67161 0.83896 0.39835 0.0
C1277 C 0.63901 0.83752 0.36661 0.0
C1278 C 0.67486 0.8165 0.39377 0.0
N1279 N 0.65379 0.84885 0.38503 0.0
C1280 C 0.6417 0.81514 0.36124 0.0
C1281 C 0.65962 0.80443 0.37533 0.0
H1282 H 0.68289 0.84838 0.4133 0.0
H1283 H 0.62479 0.84578 0.35692 0.0
C1284 C 0.57497 0.92302 0.3857 0.0
N1285 N 0.58436 0.90459 0.39815 0.0
C1286 C 0.55242 0.92413 0.38194 0.0
C1287 C 0.54976 0.88728 0.40377 0.0
C1288 C 0.57233 0.88687 0.40708 0.0
C1289 C 0.53969 0.90606 0.39096 0.0
H1290 H 0.58504 0.93673 0.37845 0.0
H1291 H 0.5803 0.87234 0.41646 0.0
O1292 O 0.67081 0.89848 0.40805 0.0
O1293 O 0.63051 0.92983 0.41376 0.0
O1294 O 0.63051 0.89474 0.36016 0.0
O1295 O 0.62705 0.88141 0.43312 0.0
H1296 H 0.68458 0.93197 0.44459 0.0
H1297 H 0.704 0.88255 0.37386 0.0
H1298 H 0.72258 0.94557 0.44567 0.0
H1299 H 0.74168 0.8971 0.3761 0.0
H1300 H 0.59388 0.9862 0.4617 0.0
H1301 H 0.66256 0.95887 0.41335 0.0
H1302 H 0.59571 0.94804 0.44066 0.0
H1303 H 0.65958 0.99681 0.43496 0.0
H1304 H 0.70253 0.96929 0.32249 0.0
H1305 H 0.63658 0.96563 0.28611 0.0
H1306 H 0.68213 0.88659 0.54549 0.0
H1307 H 0.63879 0.94199 0.55134 0.0
H1308 H 0.60351 0.88661 0.31039 0.0
H1309 H 0.67093 0.88932 0.33883 0.0
H1310 H 0.61479 0.8756 0.25314 0.0
H1311 H 0.68107 0.87831 0.28114 0.0
H1312 H 0.62941 0.84312 0.46351 0.0
H1313 H 0.60233 0.90799 0.46901 0.0
H1314 H 0.61109 0.8341 0.51716 0.0
H1315 H 0.58468 0.89793 0.52273 0.0
H1316 H 0.68877 0.80854 0.4051 0.0
H1317 H 0.6296 0.80614 0.34714 0.0
H1318 H 0.54501 0.93878 0.37182 0.0
H1319 H 0.54026 0.87307 0.41073 0.0
Li1320 Li 0.84573 0.86565 0.15794 0.0
Li1321 Li 0.87174 0.89515 0.14683 0.0
Li1322 Li 0.84351 0.8982 0.19284 0.0
Li1323 Li 0.833 0.9012 0.13402 0.0
C1324 C 0.87537 0.85903 0.20439 0.0
N1325 N 0.88892 0.82109 0.23575 0.0
C1326 C 0.8957 0.85004 0.19697 0.0
C1327 C 0.86209 0.8489 0.22814 0.0
C1328 C 0.90222 0.83081 0.21301 0.0
C1329 C 0.86917 0.82969 0.2436 0.0
C1330 C 0.86146 0.88105 0.08292 0.0
C1331 C 0.87076 0.9031 0.03499 0.0
N1332 N 0.87855 0.88497 0.0193 0.0
C1333 C 0.86935 0.8626 0.06619 0.0
C1334 C 0.86202 0.90143 0.06713 0.0
C1335 C 0.87801 0.86494 0.03409 0.0
C1336 C 0.82469 0.82414 0.16501 0.0
N1337 N 0.84318 0.83465 0.15553 0.0
C1338 C 0.85981 0.8008 0.14007 0.0
C1339 C 0.86057 0.82351 0.14328 0.0
C1340 C 0.84093 0.78956 0.14948 0.0
C1341 C 0.82323 0.80137 0.16229 0.0
H1342 H 0.81103 0.83342 0.17436 0.0
H1343 H 0.87503 0.83234 0.13586 0.0
C1344 C 0.91247 0.91813 0.14075 0.0
N1345 N 0.90118 0.89946 0.13416 0.0
C1346 C 0.93477 0.91921 0.13376 0.0
C1347 C 0.93306 0.88207 0.11295 0.0
C1348 C 0.91096 0.88171 0.12027 0.0
C1349 C 0.94522 0.90085 0.12014 0.0
H1350 H 0.90435 0.93187 0.15233 0.0
H1351 H 0.90172 0.86691 0.11618 0.0
C1352 C 0.80125 0.88521 0.18877 0.0
N1353 N 0.76478 0.89046 0.22835 0.0
C1354 C 0.78582 0.90121 0.18091 0.0
C1355 C 0.79798 0.87171 0.21654 0.0
C1356 C 0.76751 0.90362 0.20125 0.0
C1357 C 0.7795 0.8747 0.23633 0.0
C1358 C 0.8501 0.94232 0.15229 0.0
C1359 C 0.83591 0.95492 0.17164 0.0
C1360 C 0.86148 0.95211 0.12598 0.0
C1361 C 0.83295 0.97702 0.16386 0.0
C1362 C 0.85804 0.97423 0.11894 0.0
N1363 N 0.84395 0.98612 0.13784 0.0
C1364 C 0.85496 0.90247 0.26 0.0
C1365 C 0.82086 0.91879 0.24813 0.0
C1366 C 0.85258 0.90705 0.29394 0.0
N1367 N 0.83901 0.90787 0.23795 0.0
C1368 C 0.81784 0.9238 0.28194 0.0
C1369 C 0.83368 0.91748 0.30521 0.0
H1370 H 0.86945 0.89425 0.25133 0.0
H1371 H 0.80857 0.92336 0.2302 0.0
C1372 C 0.80652 0.89693 0.07916 0.0
N1373 N 0.81281 0.91228 0.1018 0.0
C1374 C 0.79093 0.90186 0.05506 0.0
C1375 C 0.78824 0.93838 0.07798 0.0
C1376 C 0.80411 0.93278 0.10157 0.0
C1377 C 0.78152 0.9227 0.05457 0.0
H1378 H 0.8134 0.88066 0.08023 0.0
H1379 H 0.80891 0.9446 0.12014 0.0
O1380 O 0.86844 0.87758 0.18843 0.0
O1381 O 0.8533 0.87912 0.11462 0.0
O1382 O 0.81928 0.88259 0.16912 0.0
O1383 O 0.85338 0.92072 0.15979 0.0
H1384 H 0.90633 0.85776 0.179 0.0
H1385 H 0.84644 0.85579 0.23447 0.0
H1386 H 0.91787 0.82362 0.20736 0.0
H1387 H 0.85897 0.82161 0.26185 0.0
H1388 H 0.87133 0.91879 0.02252 0.0
H1389 H 0.86892 0.84667 0.07794 0.0
H1390 H 0.85566 0.91578 0.07946 0.0
H1391 H 0.88431 0.85082 0.02095 0.0
H1392 H 0.87371 0.79208 0.1301 0.0
H1393 H 0.80843 0.79307 0.16969 0.0
H1394 H 0.94388 0.93386 0.13982 0.0
H1395 H 0.94078 0.86759 0.10279 0.0
H1396 H 0.78801 0.91176 0.15952 0.0
H1397 H 0.80958 0.85909 0.22284 0.0
H1398 H 0.75551 0.91601 0.19554 0.0
H1399 H 0.77685 0.86446 0.25803 0.0
H1400 H 0.82712 0.94769 0.19223 0.0
H1401 H 0.87297 0.94278 0.11128 0.0
H1402 H 0.8219 0.98693 0.17847 0.0
H1403 H 0.86665 0.98198 0.09854 0.0
H1404 H 0.86519 0.90219 0.31134 0.0
H1405 H 0.80316 0.93208 0.28997 0.0
H1406 H 0.78587 0.8894 0.03743 0.0
H1407 H 0.78103 0.95455 0.07832 0.0
Li1408 Li 0.61539 0.59702 0.91067 0.0
Li1409 Li 0.64712 0.59291 0.94791 0.0
Li1410 Li 0.64568 0.62188 0.90284 0.0
Li1411 Li 0.65053 0.58316 0.88845 0.0
C1412 C 0.60888 0.62561 0.95924 0.0
N1413 N 0.57123 0.63929 0.9906 0.0
C1414 C 0.60425 0.61868 0.99177 0.0
C1415 C 0.59447 0.63965 0.94276 0.0
C1416 C 0.58511 0.62577 0.00719 0.0
C1417 C 0.57549 0.64632 0.959 0.0
C1418 C 0.6347 0.54928 0.93472 0.0
C1419 C 0.65906 0.51934 0.94644 0.0
N1420 N 0.64214 0.50769 0.95923 0.0
C1421 C 0.61753 0.537 0.94779 0.0
C1422 C 0.65562 0.54039 0.9339 0.0
C1423 C 0.62163 0.51601 0.96015 0.0
C1424 C 0.57604 0.59788 0.87567 0.0
N1425 N 0.58457 0.59468 0.90652 0.0
C1426 C 0.54891 0.59265 0.92995 0.0
C1427 C 0.57147 0.59057 0.9331 0.0
C1428 C 0.5396 0.59992 0.89949 0.0
C1429 C 0.55362 0.59975 0.87143 0.0
H1430 H 0.58668 0.59926 0.85427 0.0
H1431 H 0.57854 0.58627 0.95697 0.0
C1432 C 0.67287 0.60044 0.00412 0.0
N1433 N 0.65691 0.58726 0.99229 0.0
C1434 C 0.68095 0.59766 0.03647 0.0
C1435 C 0.65537 0.56836 0.04452 0.0
C1436 C 0.64772 0.57176 0.01202 0.0
C1437 C 0.67323 0.5805 0.0571 0.0
H1438 H 0.67914 0.61342 0.98844 0.0
H1439 H 0.6341 0.56235 0.00289 0.0
C1440 C 0.63086 0.61781 0.8409 0.0
N1441 N 0.63267 0.64499 0.78578 0.0
C1442 C 0.64611 0.61395 0.81566 0.0
C1443 C 0.61645 0.6354 0.83802 0.0
C1444 C 0.64677 0.62789 0.78799 0.0
C1445 C 0.61767 0.64899 0.81 0.0
C1446 C 0.69153 0.59693 0.91062 0.0
C1447 C 0.70312 0.60642 0.88427 0.0
C1448 C 0.70204 0.58232 0.93215 0.0
C1449 C 0.72498 0.60096 0.87971 0.0
C1450 C 0.72391 0.57727 0.92674 0.0
N1451 N 0.73482 0.5866 0.90083 0.0
C1452 C 0.64363 0.66717 0.91308 0.0
C1453 C 0.66473 0.65761 0.86569 0.0
C1454 C 0.64611 0.68937 0.90603 0.0
N1455 N 0.65252 0.65178 0.89266 0.0
C1456 C 0.66779 0.6797 0.85784 0.0
C1457 C 0.6581 0.69578 0.87794 0.0
H1458 H 0.63436 0.66223 0.9347 0.0
H1459 H 0.67171 0.64518 0.84982 0.0
C1460 C 0.64446 0.55449 0.8373 0.0
N1461 N 0.66093 0.56251 0.85638 0.0
C1462 C 0.64864 0.53915 0.81236 0.0
C1463 C 0.68676 0.54036 0.82707 0.0
C1464 C 0.68182 0.5557 0.85193 0.0
C1465 C 0.66998 0.53202 0.80706 0.0
H1466 H 0.62801 0.5601 0.84156 0.0
H1467 H 0.69464 0.5619 0.86764 0.0
O1468 O 0.6274 0.61862 0.94358 0.0
O1469 O 0.63093 0.56992 0.92291 0.0
O1470 O 0.63007 0.60446 0.86832 0.0
O1471 O 0.67019 0.60228 0.91573 0.0
H1472 H 0.61524 0.60786 0.0049 0.0
H1473 H 0.59779 0.64512 0.91754 0.0
H1474 H 0.58127 0.62047 0.03231 0.0
H1475 H 0.56409 0.65701 0.94644 0.0
H1476 H 0.67518 0.51226 0.946 0.0
H1477 H 0.60123 0.54369 0.94858 0.0
H1478 H 0.66902 0.54962 0.92368 0.0
H1479 H 0.60852 0.50635 0.9705 0.0
H1480 H 0.53919 0.58852 0.95151 0.0
H1481 H 0.54779 0.60103 0.84609 0.0
H1482 H 0.69256 0.60965 0.04466 0.0
H1483 H 0.64665 0.55668 0.0597 0.0
H1484 H 0.65747 0.6005 0.81756 0.0
H1485 H 0.60457 0.63861 0.85735 0.0
H1486 H 0.65854 0.62517 0.76833 0.0
H1487 H 0.60671 0.66275 0.80754 0.0
H1488 H 0.69528 0.6177 0.86734 0.0
H1489 H 0.69341 0.57487 0.95277 0.0
H1490 H 0.73412 0.60811 0.85934 0.0
H1491 H 0.73221 0.56593 0.94313 0.0
H1492 H 0.6386 0.70144 0.92217 0.0
H1493 H 0.67726 0.68421 0.83606 0.0
H1494 H 0.63537 0.53287 0.79734 0.0
H1495 H 0.70338 0.53497 0.82359 0.0
Li1496 Li 0.62687 0.39889 0.14812 0.0
Li1497 Li 0.65704 0.40125 0.19129 0.0
Li1498 Li 0.66444 0.40332 0.13344 0.0
Li1499 Li 0.65493 0.36806 0.15529 0.0
C1500 C 0.65511 0.44302 0.1491 0.0
N1501 N 0.67466 0.48064 0.12544 0.0
C1502 C 0.67435 0.45061 0.16365 0.0
C1503 C 0.64575 0.4546 0.12263 0.0
C1504 C 0.68399 0.46966 0.15131 0.0
C1505 C 0.65589 0.47359 0.11101 0.0
C1506 C 0.61972 0.37247 0.21232 0.0
C1507 C 0.61029 0.3464 0.25526 0.0
N1508 N 0.59238 0.35847 0.26284 0.0
C1509 C 0.60111 0.3845 0.22037 0.0
C1510 C 0.62425 0.35314 0.22972 0.0
C1511 C 0.58753 0.3772 0.24606 0.0
C1512 C 0.58485 0.38455 0.13597 0.0
N1513 N 0.59695 0.40307 0.1389 0.0
C1514 C 0.56559 0.42539 0.12988 0.0
C1515 C 0.58788 0.42328 0.13605 0.0
C1516 C 0.55274 0.40651 0.12715 0.0
C1517 C 0.56252 0.38591 0.13022 0.0
H1518 H 0.59258 0.36873 0.13851 0.0
H1519 H 0.59787 0.43771 0.13889 0.0
C1520 C 0.68418 0.41468 0.24587 0.0
N1521 N 0.66331 0.41132 0.23566 0.0
C1522 C 0.68865 0.41945 0.27939 0.0
C1523 C 0.65004 0.41847 0.2907 0.0
C1524 C 0.64633 0.41394 0.25702 0.0
C1525 C 0.67141 0.4207 0.30224 0.0
H1526 H 0.69741 0.41293 0.22825 0.0
H1527 H 0.62992 0.41201 0.24813 0.0
C1528 C 0.64639 0.37949 0.08142 0.0
N1529 N 0.65265 0.37379 0.01362 0.0
C1530 C 0.66418 0.36747 0.06985 0.0
C1531 C 0.63169 0.3885 0.05861 0.0
C1532 C 0.66704 0.36473 0.03545 0.0
C1533 C 0.63521 0.38552 0.02439 0.0
C1534 C 0.69373 0.3739 0.18827 0.0
C1535 C 0.71564 0.37011 0.18094 0.0
C1536 C 0.68471 0.36491 0.21724 0.0
C1537 C 0.72817 0.35754 0.20286 0.0
C1538 C 0.69778 0.3525 0.23861 0.0
N1539 N 0.71906 0.34909 0.23103 0.0
C1540 C 0.70494 0.41464 0.10665 0.0
C1541 C 0.67562 0.42403 0.07093 0.0
C1542 C 0.71994 0.41982 0.08174 0.0
N1543 N 0.68325 0.41603 0.10046 0.0
C1544 C 0.69007 0.42943 0.04525 0.0
C1545 C 0.71245 0.42657 0.05032 0.0
H1546 H 0.71057 0.40863 0.1305 0.0
H1547 H 0.65831 0.42533 0.06677 0.0
C1548 C 0.63962 0.32482 0.15562 0.0
N1549 N 0.6578 0.33722 0.15178 0.0
C1550 C 0.64064 0.30216 0.15162 0.0
C1551 C 0.67901 0.30547 0.13931 0.0
C1552 C 0.67727 0.32809 0.14369 0.0
C1553 C 0.6605 0.29235 0.14324 0.0
H1554 H 0.62427 0.33261 0.16135 0.0
H1555 H 0.69135 0.33839 0.13998 0.0
O1556 O 0.64576 0.42413 0.1604 0.0
O1557 O 0.63304 0.37921 0.18686 0.0
O1558 O 0.64307 0.38206 0.11495 0.0
O1559 O 0.68119 0.38584 0.16658 0.0
H1560 H 0.68186 0.44176 0.18402 0.0
H1561 H 0.63101 0.44879 0.11081 0.0
H1562 H 0.69893 0.47569 0.16222 0.0
H1563 H 0.64892 0.48266 0.0904 0.0
H1564 H 0.61365 0.33152 0.26898 0.0
H1565 H 0.59731 0.3995 0.20723 0.0
H1566 H 0.63834 0.34335 0.22354 0.0
H1567 H 0.57316 0.38644 0.25266 0.0
H1568 H 0.55839 0.4415 0.12771 0.0
H1569 H 0.55295 0.37108 0.12824 0.0
H1570 H 0.70532 0.42121 0.28767 0.0
H1571 H 0.63642 0.41957 0.30779 0.0
H1572 H 0.67569 0.36041 0.08725 0.0
H1573 H 0.61778 0.39777 0.06728 0.0
H1574 H 0.68073 0.35547 0.02609 0.0
H1575 H 0.62404 0.3925 0.00641 0.0
H1576 H 0.72288 0.3766 0.15839 0.0
H1577 H 0.6679 0.36771 0.22343 0.0
H1578 H 0.74512 0.35445 0.19743 0.0
H1579 H 0.69099 0.34561 0.26123 0.0
H1580 H 0.73715 0.41751 0.08634 0.0
H1581 H 0.68385 0.43463 0.02119 0.0
H1582 H 0.62606 0.2924 0.15453 0.0
H1583 H 0.69451 0.29832 0.13251 0.0
Li1584 Li 0.85454 0.41042 0.44265 0.0
Li1585 Li 0.88579 0.4051 0.405 0.0
Li1586 Li 0.85043 0.41946 0.38294 0.0
Li1587 Li 0.85485 0.38074 0.39841 0.0
C1588 C 0.86937 0.45304 0.43033 0.0
N1589 N 0.86668 0.49414 0.45881 0.0
C1590 C 0.88769 0.4625 0.44513 0.0
C1591 C 0.84979 0.46461 0.42953 0.0
C1592 C 0.88597 0.48325 0.45955 0.0
C1593 C 0.84873 0.48534 0.44418 0.0
C1594 C 0.89194 0.37589 0.45332 0.0
C1595 C 0.92426 0.35355 0.45094 0.0
N1596 N 0.92925 0.35961 0.48275 0.0
C1597 C 0.89729 0.38171 0.4861 0.0
C1598 C 0.90542 0.36151 0.43569 0.0
C1599 C 0.91625 0.37335 0.50051 0.0
C1600 C 0.82841 0.40703 0.50039 0.0
N1601 N 0.84648 0.4168 0.48767 0.0
C1602 C 0.85608 0.43058 0.54166 0.0
C1603 C 0.86007 0.42872 0.50741 0.0
C1604 C 0.83805 0.41995 0.55555 0.0
C1605 C 0.8238 0.40847 0.53455 0.0
H1606 H 0.81813 0.39729 0.48427 0.0
H1607 H 0.87472 0.43564 0.49702 0.0
C1608 C 0.9257 0.40215 0.37113 0.0
N1609 N 0.91662 0.40661 0.40124 0.0
C1610 C 0.94816 0.39959 0.36827 0.0
C1611 C 0.95176 0.40859 0.42641 0.0
C1612 C 0.92921 0.41113 0.42822 0.0
C1613 C 0.96158 0.40021 0.39702 0.0
H1614 H 0.91548 0.40025 0.34935 0.0
H1615 H 0.9217 0.41614 0.45145 0.0
C1616 C 0.80952 0.40668 0.40728 0.0
N1617 N 0.76625 0.41773 0.39937 0.0
C1618 C 0.79618 0.39437 0.38613 0.0
C1619 C 0.80075 0.42436 0.42487 0.0
C1620 C 0.77437 0.40028 0.38233 0.0
C1621 C 0.77887 0.42976 0.4204 0.0
C1622 C 0.86982 0.38394 0.33581 0.0
C1623 C 0.85499 0.38785 0.31001 0.0
C1624 C 0.88398 0.36609 0.33363 0.0
C1625 C 0.85438 0.37366 0.28263 0.0
C1626 C 0.88283 0.35226 0.30588 0.0
N1627 N 0.86817 0.35629 0.28117 0.0
C1628 C 0.85395 0.45618 0.3435 0.0
C1629 C 0.82025 0.43826 0.33459 0.0
C1630 C 0.84935 0.47123 0.3183 0.0
N1631 N 0.83956 0.44004 0.35105 0.0
C1632 C 0.81501 0.45296 0.30897 0.0
C1633 C 0.82985 0.46947 0.30047 0.0
H1634 H 0.86936 0.45698 0.35647 0.0
H1635 H 0.8093 0.425 0.3403 0.0
C1636 C 0.85559 0.33557 0.41045 0.0
N1637 N 0.84741 0.35085 0.38915 0.0
C1638 C 0.85302 0.31333 0.40377 0.0
C1639 C 0.83252 0.32275 0.35424 0.0
C1640 C 0.83563 0.3449 0.36178 0.0
C1641 C 0.84166 0.30677 0.37513 0.0
H1642 H 0.86445 0.34062 0.43242 0.0
H1643 H 0.8291 0.35728 0.34534 0.0
O1644 O 0.87077 0.43267 0.41632 0.0
O1645 O 0.87361 0.3842 0.43856 0.0
O1646 O 0.83085 0.40098 0.41152 0.0
O1647 O 0.87053 0.39756 0.36296 0.0
H1648 H 0.90302 0.45381 0.44571 0.0
H1649 H 0.83562 0.45775 0.41747 0.0
H1650 H 0.89996 0.49071 0.47132 0.0
H1651 H 0.83365 0.49445 0.44382 0.0
H1652 H 0.93494 0.3426 0.43745 0.0
H1653 H 0.88696 0.39258 0.50029 0.0
H1654 H 0.90147 0.35672 0.41041 0.0
H1655 H 0.92062 0.37781 0.52581 0.0
H1656 H 0.86754 0.43925 0.55742 0.0
H1657 H 0.8099 0.39987 0.54474 0.0
H1658 H 0.95455 0.39713 0.34343 0.0
H1659 H 0.96101 0.41331 0.44814 0.0
H1660 H 0.80263 0.38049 0.37263 0.0
H1661 H 0.81066 0.4337 0.44205 0.0
H1662 H 0.76391 0.391 0.36585 0.0
H1663 H 0.77189 0.44346 0.43377 0.0
H1664 H 0.84396 0.40159 0.31119 0.0
H1665 H 0.89565 0.36288 0.35323 0.0
H1666 H 0.8429 0.37644 0.26257 0.0
H1667 H 0.8936 0.33831 0.304 0.0
H1668 H 0.86117 0.48372 0.31205 0.0
H1669 H 0.79991 0.45113 0.29532 0.0
H1670 H 0.86007 0.30135 0.42054 0.0
H1671 H 0.82352 0.31813 0.33206 0.0
Li1672 Li 0.84231 0.60181 0.69186 0.0
Li1673 Li 0.87194 0.60308 0.64754 0.0
Li1674 Li 0.84435 0.6344 0.65446 0.0
Li1675 Li 0.83418 0.59902 0.63395 0.0
C1676 C 0.88074 0.63148 0.70894 0.0
N1677 N 0.90998 0.64816 0.75489 0.0
C1678 C 0.89977 0.61998 0.71658 0.0
C1679 C 0.87666 0.65152 0.72463 0.0
C1680 C 0.91433 0.62868 0.73987 0.0
C1681 C 0.8916 0.65965 0.74782 0.0
C1682 C 0.8451 0.55906 0.64893 0.0
C1683 C 0.84841 0.52797 0.61214 0.0
N1684 N 0.82919 0.52009 0.62389 0.0
C1685 C 0.82542 0.55063 0.66075 0.0
C1686 C 0.85675 0.54765 0.62452 0.0
C1687 C 0.81764 0.53091 0.64772 0.0
C1688 C 0.81611 0.58645 0.74572 0.0
N1689 N 0.83656 0.59273 0.73694 0.0
C1690 C 0.84871 0.58897 0.79347 0.0
C1691 C 0.85285 0.59361 0.75991 0.0
C1692 C 0.82767 0.58306 0.80332 0.0
C1693 C 0.8113 0.58137 0.77901 0.0
H1694 H 0.80345 0.58581 0.72697 0.0
H1695 H 0.86903 0.59817 0.75236 0.0
C1696 C 0.91299 0.6155 0.62609 0.0
N1697 N 0.90164 0.59812 0.63809 0.0
C1698 C 0.9354 0.61394 0.62131 0.0
C1699 C 0.93393 0.57645 0.64073 0.0
C1700 C 0.9115 0.57874 0.64522 0.0
C1701 C 0.94604 0.59431 0.62899 0.0
H1702 H 0.90466 0.63074 0.62104 0.0
H1703 H 0.90207 0.56534 0.65527 0.0
C1704 C 0.80607 0.62926 0.6895 0.0
N1705 N 0.78207 0.65446 0.73355 0.0
C1706 C 0.78394 0.63297 0.68373 0.0
C1707 C 0.81595 0.63847 0.71764 0.0
C1708 C 0.77211 0.64575 0.70626 0.0
C1709 C 0.80356 0.65109 0.73965 0.0
C1710 C 0.85157 0.62207 0.58091 0.0
C1711 C 0.83429 0.63508 0.57005 0.0
C1712 C 0.8651 0.61192 0.55752 0.0
C1713 C 0.83078 0.63769 0.53577 0.0
C1714 C 0.86093 0.61477 0.52346 0.0
N1715 N 0.84401 0.62751 0.51338 0.0
C1716 C 0.86084 0.67704 0.65111 0.0
C1717 C 0.8225 0.67517 0.64521 0.0
C1718 C 0.86037 0.69974 0.64741 0.0
N1719 N 0.84206 0.66531 0.6503 0.0
C1720 C 0.82129 0.69786 0.64119 0.0
C1721 C 0.84042 0.71032 0.64238 0.0
H1722 H 0.87619 0.6687 0.65447 0.0
H1723 H 0.80788 0.66541 0.64377 0.0
C1724 C 0.79356 0.58961 0.60517 0.0
N1725 N 0.81523 0.5862 0.60104 0.0
C1726 C 0.77897 0.58427 0.57972 0.0
C1727 C 0.80906 0.57052 0.547 0.0
C1728 C 0.82311 0.57625 0.57308 0.0
C1729 C 0.78681 0.57525 0.54987 0.0
H1730 H 0.7877 0.59735 0.62767 0.0
H1731 H 0.84039 0.57367 0.57032 0.0
O1732 O 0.86645 0.62335 0.68577 0.0
O1733 O 0.85291 0.57839 0.66124 0.0
O1734 O 0.8179 0.617 0.66727 0.0
O1735 O 0.85563 0.61975 0.61429 0.0
H1736 H 0.90314 0.60436 0.70505 0.0
H1737 H 0.86214 0.66079 0.71896 0.0
H1738 H 0.92908 0.61991 0.74605 0.0
H1739 H 0.88861 0.67511 0.76015 0.0
H1740 H 0.85719 0.51901 0.59312 0.0
H1741 H 0.81621 0.55931 0.6796 0.0
H1742 H 0.87194 0.55404 0.61498 0.0
H1743 H 0.8024 0.52422 0.65653 0.0
H1744 H 0.86172 0.59019 0.81164 0.0
H1745 H 0.79492 0.57668 0.78589 0.0
H1746 H 0.94441 0.628 0.61236 0.0
H1747 H 0.94183 0.56116 0.64705 0.0
H1748 H 0.77598 0.62623 0.66193 0.0
H1749 H 0.83295 0.63577 0.72266 0.0
H1750 H 0.755 0.64878 0.70201 0.0
H1751 H 0.81104 0.6582 0.7616 0.0
H1752 H 0.8237 0.64305 0.5879 0.0
H1753 H 0.87861 0.60187 0.56564 0.0
H1754 H 0.81745 0.6477 0.52695 0.0
H1755 H 0.87117 0.60691 0.50504 0.0
H1756 H 0.87541 0.70896 0.64813 0.0
H1757 H 0.80569 0.7056 0.63696 0.0
H1758 H 0.76187 0.58808 0.58266 0.0
H1759 H 0.81557 0.56359 0.52418 0.0
Li1760 Li 0.65087 0.42069 0.61543 0.0
Li1761 Li 0.64649 0.38198 0.59922 0.0
Li1762 Li 0.648 0.4122 0.55621 0.0
Li1763 Li 0.61558 0.40704 0.59074 0.0
C1764 C 0.69173 0.40732 0.59755 0.0
N1765 N 0.73361 0.41771 0.6169 0.0
C1766 C 0.70413 0.39226 0.61568 0.0
C1767 C 0.70071 0.42756 0.58896 0.0
C1768 C 0.72526 0.39784 0.6253 0.0
C1769 C 0.72188 0.43254 0.59908 0.0
C1770 C 0.62865 0.38652 0.66201 0.0
C1771 C 0.61097 0.3588 0.69532 0.0
N1772 N 0.62625 0.36153 0.71954 0.0
C1773 C 0.64401 0.38922 0.68744 0.0
C1774 C 0.61182 0.37137 0.66617 0.0
C1775 C 0.64257 0.37638 0.71627 0.0
C1776 C 0.648 0.45814 0.65357 0.0
N1777 N 0.66143 0.44081 0.64823 0.0
C1778 C 0.68476 0.45246 0.69274 0.0
C1779 C 0.67966 0.4378 0.66704 0.0
C1780 C 0.67079 0.4701 0.69914 0.0
C1781 C 0.65243 0.4731 0.67897 0.0
H1782 H 0.63346 0.45998 0.63863 0.0
H1783 H 0.68979 0.42362 0.66311 0.0
C1784 C 0.64737 0.33664 0.58621 0.0
N1785 N 0.65339 0.35199 0.60905 0.0
C1786 C 0.6495 0.31441 0.59343 0.0
C1787 C 0.66546 0.32402 0.64666 0.0
C1788 C 0.66288 0.34611 0.63848 0.0
C1789 C 0.65825 0.30796 0.62422 0.0
H1790 H 0.64056 0.34159 0.56253 0.0
H1791 H 0.66819 0.35852 0.65584 0.0
C1792 C 0.63167 0.45272 0.56168 0.0
N1793 N 0.63244 0.48896 0.5204 0.0
C1794 C 0.61418 0.45703 0.54036 0.0
C1795 C 0.64936 0.46705 0.56247 0.0
C1796 C 0.61494 0.47537 0.51953 0.0
C1797 C 0.6495 0.48523 0.5413 0.0
C1798 C 0.61137 0.37433 0.54558 0.0
C1799 C 0.60614 0.37538 0.51159 0.0
C1800 C 0.599 0.36109 0.56678 0.0
C1801 C 0.58828 0.36362 0.4996 0.0
C1802 C 0.58124 0.34961 0.55388 0.0
N1803 N 0.57626 0.35114 0.52083 0.0
C1804 C 0.6785 0.41952 0.50321 0.0
C1805 C 0.64122 0.42276 0.48892 0.0
C1806 C 0.68453 0.42233 0.46975 0.0
N1807 N 0.65712 0.41946 0.51198 0.0
C1808 C 0.64647 0.4252 0.45522 0.0
C1809 C 0.66829 0.42442 0.44533 0.0
H1810 H 0.69084 0.41656 0.52188 0.0
H1811 H 0.62437 0.42262 0.49654 0.0
C1812 C 0.57579 0.40918 0.6244 0.0
N1813 N 0.58469 0.40877 0.59342 0.0
C1814 C 0.55339 0.4069 0.62846 0.0
C1815 C 0.54939 0.40639 0.5688 0.0
C1816 C 0.57191 0.40877 0.56576 0.0
C1817 C 0.53982 0.40275 0.60056 0.0
H1818 H 0.58616 0.41086 0.64609 0.0
H1819 H 0.57922 0.41009 0.54125 0.0
O1820 O 0.67104 0.40209 0.58786 0.0
O1821 O 0.62993 0.39885 0.63347 0.0
O1822 O 0.63137 0.43467 0.58189 0.0
O1823 O 0.62849 0.38615 0.55805 0.0
H1824 H 0.69754 0.37644 0.62222 0.0
H1825 H 0.69145 0.43929 0.57462 0.0
H1826 H 0.73502 0.38637 0.63942 0.0
H1827 H 0.729 0.44818 0.59271 0.0
H1828 H 0.59812 0.34693 0.69873 0.0
H1829 H 0.65711 0.40081 0.68477 0.0
H1830 H 0.59944 0.36939 0.64728 0.0
H1831 H 0.65449 0.37818 0.73598 0.0
H1832 H 0.69898 0.4497 0.70815 0.0
H1833 H 0.64132 0.48655 0.68347 0.0
H1834 H 0.64407 0.30235 0.5754 0.0
H1835 H 0.67258 0.31948 0.67045 0.0
H1836 H 0.60029 0.44618 0.53966 0.0
H1837 H 0.66279 0.46423 0.57937 0.0
H1838 H 0.60161 0.47879 0.50267 0.0
H1839 H 0.66314 0.49641 0.54154 0.0
H1840 H 0.61578 0.38504 0.49454 0.0
H1841 H 0.60307 0.35974 0.59293 0.0
H1842 H 0.58399 0.3644 0.47338 0.0
H1843 H 0.57143 0.33948 0.57014 0.0
H1844 H 0.70153 0.42171 0.46276 0.0
H1845 H 0.6336 0.42691 0.4369 0.0
H1846 H 0.54713 0.40831 0.65358 0.0
H1847 H 0.53998 0.40754 0.54614 0.0
Li1848 Li 0.84584 0.36794 0.84972 0.0
Li1849 Li 0.8326 0.40342 0.87389 0.0
Li1850 Li 0.84376 0.39968 0.81314 0.0
Li1851 Li 0.87045 0.39902 0.85692 0.0
C1852 C 0.80328 0.36996 0.83555 0.0
N1853 N 0.77125 0.33829 0.83294 0.0
C1854 C 0.78724 0.3691 0.86029 0.0
C1855 C 0.80291 0.35483 0.80933 0.0
C1856 C 0.7712 0.35295 0.85854 0.0
C1857 C 0.78664 0.3389 0.80852 0.0
C1858 C 0.86987 0.37972 0.91533 0.0
C1859 C 0.89136 0.3934 0.96123 0.0
N1860 N 0.90345 0.37476 0.96055 0.0
C1861 C 0.88243 0.36067 0.91515 0.0
C1862 C 0.87426 0.3962 0.93861 0.0
C1863 C 0.89937 0.35849 0.93821 0.0
C1864 C 0.85736 0.32384 0.83696 0.0
N1865 N 0.84323 0.33692 0.85385 0.0
C1866 C 0.82647 0.30576 0.87926 0.0
C1867 C 0.82814 0.32839 0.87505 0.0
C1868 C 0.84085 0.29197 0.86209 0.0
C1869 C 0.85643 0.30114 0.84073 0.0
H1870 H 0.86965 0.33104 0.82111 0.0
H1871 H 0.81759 0.33918 0.88902 0.0
C1872 C 0.79694 0.42958 0.89628 0.0
N1873 N 0.81219 0.41452 0.90509 0.0
C1874 C 0.78031 0.43508 0.91865 0.0
C1875 C 0.79596 0.40999 0.95883 0.0
C1876 C 0.8122 0.405 0.9358 0.0
C1877 C 0.7796 0.42484 0.95003 0.0
H1878 H 0.79722 0.43664 0.87147 0.0
H1879 H 0.82432 0.39282 0.94189 0.0
C1880 C 0.87626 0.37602 0.78748 0.0
N1881 N 0.89266 0.37074 0.72365 0.0
C1882 C 0.89427 0.3882 0.77703 0.0
C1883 C 0.86662 0.36115 0.76546 0.0
C1884 C 0.90228 0.38533 0.74464 0.0
C1885 C 0.87518 0.35866 0.73333 0.0
C1886 C 0.85877 0.44329 0.85586 0.0
C1887 C 0.87092 0.45603 0.83365 0.0
C1888 C 0.85469 0.45108 0.88815 0.0
C1889 C 0.87886 0.47633 0.84415 0.0
C1890 C 0.86289 0.47147 0.89768 0.0
N1891 N 0.8747 0.48357 0.87566 0.0
C1892 C 0.81965 0.40186 0.75231 0.0
C1893 C 0.85388 0.41971 0.75144 0.0
C1894 C 0.81706 0.40539 0.71798 0.0
N1895 N 0.83812 0.4085 0.76806 0.0
C1896 C 0.85212 0.42328 0.71708 0.0
C1897 C 0.83378 0.41561 0.69997 0.0
H1898 H 0.8073 0.39312 0.76611 0.0
H1899 H 0.86833 0.42492 0.76454 0.0
C1900 C 0.91409 0.38809 0.85937 0.0
N1901 N 0.90039 0.40468 0.86786 0.0
C1902 C 0.93632 0.38975 0.86563 0.0
C1903 C 0.93008 0.42529 0.89039 0.0
C1904 C 0.90789 0.42295 0.88358 0.0
C1905 C 0.94446 0.40857 0.88108 0.0
H1906 H 0.9077 0.37349 0.84769 0.0
H1907 H 0.89679 0.43564 0.89117 0.0
O1908 O 0.81925 0.38551 0.83701 0.0
O1909 O 0.85371 0.38248 0.89224 0.0
O1910 O 0.86818 0.37859 0.81913 0.0
O1911 O 0.85023 0.42373 0.84561 0.0
H1912 H 0.78721 0.38069 0.88072 0.0
H1913 H 0.81518 0.35528 0.78997 0.0
H1914 H 0.75874 0.35205 0.87757 0.0
H1915 H 0.78625 0.327 0.7885 0.0
H1916 H 0.89506 0.40607 0.97924 0.0
H1917 H 0.8793 0.34782 0.89716 0.0
H1918 H 0.86475 0.41109 0.93892 0.0
H1919 H 0.90931 0.34389 0.93826 0.0
H1920 H 0.81446 0.29909 0.89623 0.0
H1921 H 0.86789 0.29085 0.82746 0.0
H1922 H 0.7677 0.44642 0.91113 0.0
H1923 H 0.79562 0.40168 0.98276 0.0
H1924 H 0.90177 0.40001 0.79354 0.0
H1925 H 0.85266 0.35161 0.77307 0.0
H1926 H 0.91611 0.39475 0.73616 0.0
H1927 H 0.8679 0.34718 0.71607 0.0
H1928 H 0.87416 0.45034 0.80855 0.0
H1929 H 0.84543 0.44148 0.90578 0.0
H1930 H 0.88828 0.48635 0.8272 0.0
H1931 H 0.85987 0.47768 0.92259 0.0
H1932 H 0.80272 0.39927 0.70533 0.0
H1933 H 0.86529 0.4312 0.70376 0.0
H1934 H 0.94707 0.37652 0.85842 0.0
H1935 H 0.93598 0.43993 0.90265 0.0
Li1936 Li 0.85543 0.62245 0.09948 0.0
Li1937 Li 0.85128 0.58368 0.11308 0.0
Li1938 Li 0.88608 0.59794 0.09087 0.0
Li1939 Li 0.85407 0.59365 0.05369 0.0
C1940 C 0.87167 0.6181 0.1611 0.0
N1941 N 0.87177 0.6448 0.21685 0.0
C1942 C 0.85681 0.61447 0.18697 0.0
C1943 C 0.88669 0.63518 0.1637 0.0
C1944 C 0.85712 0.62817 0.21495 0.0
C1945 C 0.88642 0.64855 0.19203 0.0
C1946 C 0.81002 0.59841 0.09496 0.0
C1947 C 0.77469 0.58355 0.08179 0.0
N1948 N 0.76721 0.59038 0.11205 0.0
C1949 C 0.80198 0.60529 0.1259 0.0
C1950 C 0.79627 0.58747 0.07268 0.0
C1951 C 0.78029 0.60108 0.13409 0.0
C1952 C 0.85592 0.66783 0.08864 0.0
N1953 N 0.84834 0.65232 0.11009 0.0
C1954 C 0.83422 0.68007 0.1464 0.0
C1955 C 0.83726 0.65802 0.13827 0.0
C1956 C 0.84262 0.69627 0.12522 0.0
C1957 C 0.85331 0.69001 0.09582 0.0
H1958 H 0.86426 0.66301 0.06608 0.0
H1959 H 0.83117 0.64555 0.15486 0.0
C1960 C 0.85643 0.55663 0.1671 0.0
N1961 N 0.8409 0.56263 0.14471 0.0
C1962 C 0.85189 0.54113 0.19169 0.0
C1963 C 0.81538 0.538 0.16978 0.0
C1964 C 0.82068 0.55352 0.14535 0.0
C1965 C 0.83119 0.5317 0.19315 0.0
H1966 H 0.87244 0.56389 0.16571 0.0
H1967 H 0.80874 0.55799 0.12681 0.0
C1968 C 0.89132 0.6279 0.04243 0.0
N1969 N 0.92725 0.64477 0.01002 0.0
C1970 C 0.89534 0.62248 0.00905 0.0
C1971 C 0.90544 0.64206 0.05925 0.0
C1972 C 0.91362 0.63116 0.99311 0.0
C1973 C 0.92357 0.65035 0.04246 0.0
C1974 C 0.86543 0.54986 0.06873 0.0
C1975 C 0.88189 0.5347 0.06212 0.0
C1976 C 0.84368 0.54368 0.06535 0.0
C1977 C 0.87627 0.51353 0.05216 0.0
C1978 C 0.83872 0.52234 0.05543 0.0
N1979 N 0.85498 0.50783 0.04907 0.0
C1980 C 0.92551 0.5955 0.12588 0.0
C1981 C 0.92988 0.59312 0.06708 0.0
C1982 C 0.94798 0.59457 0.13054 0.0
N1983 N 0.91696 0.59519 0.09452 0.0
C1984 C 0.9525 0.59261 0.07055 0.0
C1985 C 0.96172 0.59354 0.10261 0.0
H1986 H 0.91488 0.59665 0.14732 0.0
H1987 H 0.92268 0.59222 0.04248 0.0
C1988 C 0.82874 0.60084 0.99654 0.0
N1989 N 0.84442 0.58771 0.00932 0.0
C1990 C 0.82086 0.59741 0.9642 0.0
C1991 C 0.84607 0.56761 0.95814 0.0
C1992 C 0.85357 0.57168 0.99054 0.0
C1993 C 0.82837 0.57958 0.94469 0.0
H1994 H 0.82254 0.61426 0.0114 0.0
H1995 H 0.86699 0.56228 1.00045 0.0
O1996 O 0.87154 0.60498 0.1334 0.0
O1997 O 0.83113 0.60259 0.08628 0.0
O1998 O 0.87354 0.61952 0.05847 0.0
O1999 O 0.87073 0.57072 0.07798 0.0
H2000 H 0.845 0.6014 0.18531 0.0
H2001 H 0.89835 0.63814 0.14397 0.0
H2002 H 0.84565 0.62563 0.23508 0.0
H2003 H 0.89786 0.66192 0.19429 0.0
H2004 H 0.76388 0.57507 0.06482 0.0
H2005 H 0.81244 0.6135 0.1436 0.0
H2006 H 0.8022 0.58199 0.04863 0.0
H2007 H 0.77387 0.60624 0.158 0.0
H2008 H 0.82575 0.68445 0.16918 0.0
H2009 H 0.8598 0.70219 0.07885 0.0
H2010 H 0.86443 0.53646 0.20933 0.0
H2011 H 0.7993 0.53078 0.1702 0.0
H2012 H 0.88451 0.61162 0.99565 0.0
H2013 H 0.9025 0.64647 0.08504 0.0
H2014 H 0.917 0.62705 0.96732 0.0
H2015 H 0.93471 0.6612 0.05522 0.0
H2016 H 0.89882 0.53931 0.06449 0.0
H2017 H 0.83079 0.55526 0.07019 0.0
H2018 H 0.88883 0.50163 0.04686 0.0
H2019 H 0.82194 0.51732 0.05271 0.0
H2020 H 0.95462 0.59513 0.15562 0.0
H2021 H 0.96269 0.59167 0.04852 0.0
H2022 H 0.80956 0.60942 0.95502 0.0
H2023 H 0.85482 0.55553 0.94376 0.0
Li2024 Li 0.66835 0.59869 0.37116 0.0
Li2025 Li 0.65495 0.63465 0.34771 0.0
Li2026 Li 0.63003 0.60327 0.35538 0.0
Li2027 Li 0.65667 0.60269 0.30979 0.0
C2028 C 0.63428 0.62146 0.41735 0.0
N2029 N 0.60778 0.62504 0.4728 0.0
C2030 C 0.62524 0.64168 0.42588 0.0
C2031 C 0.63 0.6031 0.43709 0.0
C2032 C 0.61185 0.64315 0.45401 0.0
C2033 C 0.6165 0.60523 0.46499 0.0
C2034 C 0.69806 0.62993 0.32558 0.0
C2035 C 0.71544 0.65457 0.28685 0.0
N2036 N 0.73263 0.65637 0.30807 0.0
C2037 C 0.71596 0.63187 0.34691 0.0
C2038 C 0.69782 0.64122 0.29521 0.0
C2039 C 0.73326 0.64538 0.33765 0.0
C2040 C 0.7018 0.56994 0.39584 0.0
N2041 N 0.68887 0.58754 0.40214 0.0
C2042 C 0.70727 0.59448 0.45362 0.0
C2043 C 0.69115 0.59962 0.43047 0.0
C2044 C 0.7212 0.57682 0.44744 0.0
C2045 C 0.71826 0.56421 0.41845 0.0
H2046 H 0.69975 0.56082 0.37287 0.0
H2047 H 0.68088 0.61373 0.43453 0.0
C2048 C 0.64097 0.67834 0.34124 0.0
N2049 N 0.6578 0.66554 0.35145 0.0
C2050 C 0.64207 0.70104 0.34481 0.0
C2051 C 0.67772 0.69698 0.36959 0.0
C2052 C 0.67587 0.67434 0.36575 0.0
C2053 C 0.66062 0.71048 0.35912 0.0
H2054 H 0.62653 0.67089 0.33086 0.0
H2055 H 0.68868 0.66378 0.37471 0.0
C2056 C 0.64337 0.558 0.34693 0.0
N2057 N 0.63024 0.5151 0.35487 0.0
C2058 C 0.63502 0.54635 0.31973 0.0
C2059 C 0.64522 0.54782 0.37809 0.0
C2060 C 0.62841 0.52468 0.32429 0.0
C2061 C 0.63844 0.52612 0.38162 0.0
C2062 C 0.62194 0.63088 0.28965 0.0
C2063 C 0.60111 0.62318 0.28207 0.0
C2064 C 0.63186 0.6462 0.26869 0.0
C2065 C 0.5906 0.63084 0.2534 0.0
C2066 C 0.62082 0.65344 0.24023 0.0
N2067 N 0.6006 0.64568 0.23324 0.0
C2068 C 0.58835 0.61597 0.37206 0.0
C2069 C 0.59093 0.5774 0.36681 0.0
C2070 C 0.56609 0.61454 0.37823 0.0
N2071 N 0.60029 0.59759 0.36649 0.0
C2072 C 0.56859 0.57523 0.37249 0.0
C2073 C 0.55601 0.59401 0.37807 0.0
H2074 H 0.5961 0.63183 0.37091 0.0
H2075 H 0.60055 0.563 0.36198 0.0
C2076 C 0.68369 0.59059 0.25573 0.0
N2077 N 0.66265 0.59405 0.26482 0.0
C2078 C 0.68888 0.58574 0.22252 0.0
C2079 C 0.65066 0.58788 0.2087 0.0
C2080 C 0.64618 0.59219 0.24229 0.0
C2081 C 0.67226 0.58488 0.1985 0.0
H2082 H 0.69646 0.59191 0.27422 0.0
H2083 H 0.62955 0.59428 0.25024 0.0
O2084 O 0.6474 0.6197 0.3899 0.0
O2085 O 0.68098 0.61681 0.33429 0.0
O2086 O 0.65046 0.579 0.3427 0.0
O2087 O 0.63241 0.6236 0.31768 0.0
H2088 H 0.62848 0.65605 0.41087 0.0
H2089 H 0.63697 0.58737 0.43084 0.0
H2090 H 0.60469 0.65868 0.46091 0.0
H2091 H 0.61297 0.59115 0.48044 0.0
H2092 H 0.71546 0.66345 0.26345 0.0
H2093 H 0.71641 0.62312 0.37045 0.0
H2094 H 0.68423 0.63962 0.27824 0.0
H2095 H 0.74718 0.64714 0.35397 0.0
H2096 H 0.70934 0.60463 0.47561 0.0
H2097 H 0.72898 0.55063 0.41293 0.0
H2098 H 0.62853 0.71112 0.33687 0.0
H2099 H 0.69211 0.70388 0.38112 0.0
H2100 H 0.63368 0.55399 0.29538 0.0
H2101 H 0.65192 0.55653 0.39926 0.0
H2102 H 0.62188 0.51545 0.3035 0.0
H2103 H 0.63976 0.518 0.40558 0.0
H2104 H 0.5932 0.61129 0.29802 0.0
H2105 H 0.64786 0.6525 0.27441 0.0
H2106 H 0.5745 0.62498 0.24717 0.0
H2107 H 0.62832 0.66528 0.22375 0.0
H2108 H 0.5567 0.62932 0.38219 0.0
H2109 H 0.56114 0.55917 0.37203 0.0
H2110 H 0.70569 0.58324 0.21544 0.0
H2111 H 0.63746 0.58699 0.19082 0.0
Li2112 Li 0.35269 0.4074 0.05875 0.0
Li2113 Li 0.34933 0.41817 0.11759 0.0
Li2114 Li 0.38418 0.40311 0.09491 0.0
Li2115 Li 0.35298 0.37892 0.10464 0.0
C2116 C 0.3672 0.44868 0.06285 0.0
N2117 N 0.36305 0.4847 0.02154 0.0
C2118 C 0.35117 0.46436 0.06917 0.0
C2119 C 0.3813 0.45147 0.03577 0.0
C2120 C 0.34931 0.48244 0.04798 0.0
C2121 C 0.37886 0.46972 0.01507 0.0
C2122 C 0.308 0.40313 0.10011 0.0
C2123 C 0.27767 0.39705 0.13722 0.0
N2124 N 0.26528 0.41068 0.11825 0.0
C2125 C 0.2949 0.41691 0.08081 0.0
C2126 C 0.29926 0.39293 0.12836 0.0
C2127 C 0.27337 0.42058 0.09044 0.0
C2128 C 0.35126 0.39771 0.99051 0.0
N2129 N 0.34421 0.41269 0.01321 0.0
C2130 C 0.32756 0.43379 0.96966 0.0
C2131 C 0.33227 0.43037 0.00352 0.0
C2132 C 0.33539 0.41892 0.94581 0.0
C2133 C 0.34715 0.4006 0.95655 0.0
H2134 H 0.3602 0.3835 0.99869 0.0
H2135 H 0.32653 0.44192 0.02192 0.0
C2136 C 0.35523 0.44458 0.17208 0.0
N2137 N 0.33947 0.43909 0.14975 0.0
C2138 C 0.35128 0.46025 0.19663 0.0
C2139 C 0.31487 0.46467 0.17478 0.0
C2140 C 0.31951 0.44873 0.15065 0.0
C2141 C 0.33097 0.47053 0.19796 0.0
H2142 H 0.37104 0.4369 0.17051 0.0
H2143 H 0.30735 0.44452 0.13233 0.0
C2144 C 0.38959 0.37226 0.04917 0.0
N2145 N 0.4265 0.35486 0.02006 0.0
C2146 C 0.39526 0.35044 0.05492 0.0
C2147 C 0.40249 0.38512 0.02815 0.0
C2148 C 0.41402 0.34196 0.04007 0.0
C2149 C 0.42115 0.37607 0.01382 0.0
C2150 C 0.3682 0.38716 0.16865 0.0
C2151 C 0.38613 0.37627 0.18221 0.0
C2152 C 0.34903 0.38881 0.18722 0.0
C2153 C 0.38441 0.36677 0.21388 0.0
C2154 C 0.34796 0.37915 0.21883 0.0
N2155 N 0.36551 0.36838 0.23137 0.0
C2156 C 0.42519 0.42422 0.09433 0.0
C2157 C 0.42623 0.38627 0.10679 0.0
C2158 C 0.44773 0.42575 0.09812 0.0
N2159 N 0.41498 0.40469 0.09869 0.0
C2160 C 0.44878 0.387 0.11045 0.0
C2161 C 0.45967 0.40695 0.10626 0.0
H2162 H 0.4158 0.43865 0.0883 0.0
H2163 H 0.41765 0.37103 0.11059 0.0
C2164 C 0.3258 0.34112 0.10979 0.0
N2165 N 0.34574 0.34968 0.11656 0.0
C2166 C 0.32158 0.31901 0.11615 0.0
C2167 C 0.35846 0.31507 0.13629 0.0
C2168 C 0.36191 0.3372 0.12977 0.0
C2169 C 0.3382 0.30575 0.12906 0.0
H2170 H 0.31337 0.35128 0.09862 0.0
H2171 H 0.37777 0.34426 0.13399 0.0
O2172 O 0.36914 0.43077 0.08315 0.0
O2173 O 0.32906 0.39919 0.09081 0.0
O2174 O 0.37145 0.38099 0.06389 0.0
O2175 O 0.36956 0.3964 0.13754 0.0
H2176 H 0.34012 0.46249 0.08997 0.0
H2177 H 0.39396 0.43966 0.03071 0.0
H2178 H 0.33689 0.49463 0.05246 0.0
H2179 H 0.38955 0.47199 0.99387 0.0
H2180 H 0.27073 0.38932 0.15909 0.0
H2181 H 0.3013 0.42476 0.0587 0.0
H2182 H 0.30896 0.3818 0.14315 0.0
H2183 H 0.26309 0.4313 0.07582 0.0
H2184 H 0.3182 0.44797 0.9621 0.0
H2185 H 0.35315 0.38868 0.93874 0.0
H2186 H 0.36404 0.4646 0.21407 0.0
H2187 H 0.2991 0.47254 0.17513 0.0
H2188 H 0.3853 0.34012 0.0706 0.0
H2189 H 0.39821 0.40195 0.02316 0.0
H2190 H 0.41866 0.32513 0.04444 0.0
H2191 H 0.43138 0.3859 0.99776 0.0
H2192 H 0.40117 0.37501 0.16833 0.0
H2193 H 0.33518 0.39761 0.17748 0.0
H2194 H 0.39811 0.35814 0.22457 0.0
H2195 H 0.33319 0.38026 0.23342 0.0
H2196 H 0.45576 0.44138 0.09492 0.0
H2197 H 0.45762 0.37227 0.11694 0.0
H2198 H 0.3058 0.31217 0.11017 0.0
H2199 H 0.37162 0.30516 0.14604 0.0
Li2200 Li 0.37243 0.60567 0.85679 0.0
Li2201 Li 0.34701 0.63618 0.84787 0.0
Li2202 Li 0.33466 0.59943 0.8708 0.0
Li2203 Li 0.34446 0.60298 0.8117 0.0
C2204 C 0.36836 0.62327 0.91713 0.0
N2205 N 0.39707 0.62653 0.97001 0.0
C2206 C 0.37877 0.64313 0.92382 0.0
C2207 C 0.37229 0.60518 0.93761 0.0
C2208 C 0.3933 0.64441 0.95061 0.0
C2209 C 0.38693 0.60712 0.96414 0.0
C2210 C 0.37399 0.63854 0.79138 0.0
C2211 C 0.36313 0.66097 0.74467 0.0
N2212 N 0.38416 0.66722 0.74032 0.0
C2213 C 0.39552 0.64506 0.78632 0.0
C2214 C 0.35767 0.64646 0.77031 0.0
C2215 C 0.40033 0.65962 0.76043 0.0
C2216 C 0.41203 0.58192 0.87254 0.0
N2217 N 0.4022 0.60164 0.86777 0.0
C2218 C 0.43569 0.62049 0.87642 0.0
C2219 C 0.41353 0.62068 0.86956 0.0
C2220 C 0.44634 0.60048 0.88107 0.0
C2221 C 0.43439 0.58095 0.87924 0.0
H2222 H 0.40262 0.56702 0.87067 0.0
H2223 H 0.40529 0.63606 0.86531 0.0
C2224 C 0.32487 0.67605 0.86088 0.0
N2225 N 0.34417 0.66712 0.85141 0.0
C2226 C 0.32307 0.69864 0.86576 0.0
C2227 C 0.36103 0.70237 0.851 0.0
C2228 C 0.36212 0.67974 0.84657 0.0
C2229 C 0.34136 0.71197 0.86087 0.0
H2230 H 0.31098 0.66556 0.86519 0.0
H2231 H 0.37742 0.67218 0.84007 0.0
C2232 C 0.34818 0.55912 0.85138 0.0
N2233 N 0.33583 0.51677 0.86639 0.0
C2234 C 0.33518 0.54731 0.8291 0.0
C2235 C 0.3551 0.54932 0.88111 0.0
C2236 C 0.32907 0.52592 0.83718 0.0
C2237 C 0.34861 0.52792 0.88831 0.0
C2238 C 0.30157 0.621 0.82003 0.0
C2239 C 0.28552 0.60491 0.82272 0.0
C2240 C 0.29742 0.6399 0.80141 0.0
C2241 C 0.26575 0.60775 0.80605 0.0
C2242 C 0.27745 0.64214 0.7851 0.0
N2243 N 0.26218 0.62614 0.7877 0.0
C2244 C 0.31243 0.5999 0.9309 0.0
C2245 C 0.30151 0.57011 0.8968 0.0
C2246 C 0.29649 0.59484 0.9544 0.0
N2247 N 0.31453 0.58775 0.9026 0.0
C2248 C 0.28525 0.56447 0.91972 0.0
C2249 C 0.28247 0.57722 0.94856 0.0
H2250 H 0.32264 0.61408 0.93468 0.0
H2251 H 0.30307 0.56098 0.87384 0.0
C2252 C 0.35732 0.59455 0.74589 0.0
N2253 N 0.33973 0.59363 0.76644 0.0
C2254 C 0.35517 0.59017 0.71183 0.0
C2255 C 0.31715 0.58214 0.7209 0.0
C2256 C 0.31999 0.587 0.75481 0.0
C2257 C 0.3348 0.58434 0.69895 0.0
H2258 H 0.373 0.59921 0.75582 0.0
H2259 H 0.30639 0.58562 0.77166 0.0
O2260 O 0.35449 0.62152 0.89053 0.0
O2261 O 0.369 0.62436 0.81674 0.0
O2262 O 0.35454 0.57997 0.8437 0.0
O2263 O 0.32094 0.6186 0.83651 0.0
H2264 H 0.37583 0.65731 0.90829 0.0
H2265 H 0.36415 0.58979 0.93297 0.0
H2266 H 0.40161 0.65962 0.95593 0.0
H2267 H 0.39024 0.5932 0.98007 0.0
H2268 H 0.35065 0.6672 0.72815 0.0
H2269 H 0.4084 0.63894 0.8022 0.0
H2270 H 0.34104 0.64123 0.77348 0.0
H2271 H 0.41691 0.66485 0.75628 0.0
H2272 H 0.44455 0.6358 0.87753 0.0
H2273 H 0.44229 0.56527 0.88256 0.0
H2274 H 0.30773 0.70563 0.87367 0.0
H2275 H 0.37546 0.71225 0.84738 0.0
H2276 H 0.32981 0.55458 0.80588 0.0
H2277 H 0.36541 0.55812 0.89839 0.0
H2278 H 0.31895 0.51661 0.82023 0.0
H2279 H 0.35378 0.52015 0.91129 0.0
H2280 H 0.28839 0.59023 0.83708 0.0
H2281 H 0.30938 0.65282 0.79974 0.0
H2282 H 0.25327 0.59533 0.80767 0.0
H2283 H 0.27407 0.65665 0.77049 0.0
H2284 H 0.2946 0.60505 0.97638 0.0
H2285 H 0.27449 0.55086 0.91451 0.0
H2286 H 0.36916 0.59175 0.69555 0.0
H2287 H 0.30129 0.57734 0.7117 0.0
Li2288 Li 0.14873 0.62474 0.605 0.0
Li2289 Li 0.11458 0.59982 0.60072 0.0
Li2290 Li 0.15014 0.58602 0.61936 0.0
Li2291 Li 0.14569 0.59551 0.56231 0.0
C2292 C 0.1362 0.60644 0.67358 0.0
N2293 N 0.14573 0.59896 0.74006 0.0
C2294 C 0.12164 0.59479 0.69363 0.0
C2295 C 0.15554 0.61439 0.68729 0.0
C2296 C 0.12679 0.59114 0.7272 0.0
C2297 C 0.16008 0.6104 0.72097 0.0
C2298 C 0.12126 0.62836 0.53733 0.0
C2299 C 0.09929 0.62542 0.48761 0.0
N2300 N 0.11086 0.64198 0.47348 0.0
C2301 C 0.13301 0.64527 0.52232 0.0
C2302 C 0.10426 0.61833 0.51993 0.0
C2303 C 0.12747 0.65195 0.49001 0.0
C2304 C 0.17742 0.66166 0.60963 0.0
N2305 N 0.15679 0.65408 0.61374 0.0
C2306 C 0.14418 0.68976 0.6284 0.0
C2307 C 0.1403 0.66755 0.6231 0.0
C2308 C 0.16524 0.69803 0.62427 0.0
C2309 C 0.18212 0.68375 0.61526 0.0
H2310 H 0.1901 0.65069 0.60141 0.0
H2311 H 0.12404 0.66103 0.62588 0.0
C2312 C 0.07561 0.58031 0.62167 0.0
N2313 N 0.08408 0.59822 0.60624 0.0
C2314 C 0.05316 0.57845 0.62614 0.0
C2315 C 0.04866 0.61342 0.59859 0.0
C2316 C 0.0712 0.61469 0.59487 0.0
C2317 C 0.03953 0.59514 0.6144 0.0
H2318 H 0.08633 0.56751 0.63047 0.0
H2319 H 0.07844 0.62879 0.5829 0.0
C2320 C 0.19149 0.59514 0.59323 0.0
N2321 N 0.23353 0.57934 0.59683 0.0
C2322 C 0.19775 0.57721 0.57379 0.0
C2323 C 0.20669 0.6052 0.61421 0.0
C2324 C 0.21906 0.56941 0.57606 0.0
C2325 C 0.22785 0.59692 0.61576 0.0
C2326 C 0.12882 0.55277 0.57361 0.0
C2327 C 0.14736 0.53956 0.57347 0.0
C2328 C 0.1094 0.54486 0.56008 0.0
C2329 C 0.14626 0.51873 0.55918 0.0
C2330 C 0.10897 0.52395 0.546 0.0
N2331 N 0.12726 0.51143 0.54582 0.0
C2332 C 0.1446 0.5503 0.6602 0.0
C2333 C 0.18036 0.56438 0.66542 0.0
C2334 C 0.14863 0.53482 0.68501 0.0
N2335 N 0.1603 0.56477 0.65101 0.0
C2336 C 0.18523 0.54889 0.69007 0.0
C2337 C 0.16908 0.53415 0.70032 0.0
H2338 H 0.12867 0.55121 0.64884 0.0
H2339 H 0.19241 0.57633 0.65862 0.0
C2340 C 0.17012 0.59901 0.50278 0.0
N2341 N 0.15206 0.58972 0.51635 0.0
C2342 C 0.17402 0.59747 0.46843 0.0
C2343 C 0.14081 0.57661 0.46273 0.0
C2344 C 0.1376 0.57848 0.49717 0.0
C2345 C 0.15901 0.58649 0.44805 0.0
H2346 H 0.1811 0.60826 0.51848 0.0
H2347 H 0.12303 0.57187 0.50828 0.0
O2348 O 0.13177 0.60968 0.64047 0.0
O2349 O 0.1263 0.62172 0.56902 0.0
O2350 O 0.17086 0.60336 0.59081 0.0
O2351 O 0.1294 0.57312 0.58778 0.0
H2352 H 0.10664 0.58846 0.68327 0.0
H2353 H 0.16701 0.62334 0.67197 0.0
H2354 H 0.11575 0.58203 0.74301 0.0
H2355 H 0.17504 0.61635 0.73192 0.0
H2356 H 0.08624 0.61775 0.47377 0.0
H2357 H 0.14623 0.65316 0.53553 0.0
H2358 H 0.09515 0.60508 0.53116 0.0
H2359 H 0.1364 0.66504 0.47803 0.0
H2360 H 0.13086 0.70044 0.63535 0.0
H2361 H 0.19852 0.68977 0.61177 0.0
H2362 H 0.04649 0.56419 0.63853 0.0
H2363 H 0.03845 0.62657 0.58943 0.0
H2364 H 0.18636 0.56952 0.55688 0.0
H2365 H 0.20211 0.61899 0.62964 0.0
H2366 H 0.22411 0.55553 0.56119 0.0
H2367 H 0.23973 0.60444 0.63208 0.0
H2368 H 0.16235 0.54521 0.58463 0.0
H2369 H 0.09487 0.55486 0.56027 0.0
H2370 H 0.16049 0.50833 0.55885 0.0
H2371 H 0.09408 0.51766 0.53525 0.0
H2372 H 0.13585 0.52366 0.69252 0.0
H2373 H 0.20114 0.54877 0.70167 0.0
H2374 H 0.18809 0.60546 0.45767 0.0
H2375 H 0.1288 0.5683 0.4475 0.0
Li2376 Li 0.15474 0.36507 0.34767 0.0
Li2377 Li 0.12857 0.39536 0.35679 0.0
Li2378 Li 0.15757 0.39797 0.31244 0.0
Li2379 Li 0.16691 0.40053 0.37109 0.0
C2380 C 0.1251 0.36211 0.29447 0.0
N2381 N 0.10921 0.33173 0.24954 0.0
C2382 C 0.10326 0.35584 0.29567 0.0
C2383 C 0.13881 0.35309 0.27027 0.0
C2384 C 0.09555 0.3404 0.27279 0.0
C2385 C 0.13048 0.33771 0.24782 0.0
C2386 C 0.14058 0.38525 0.42231 0.0
C2387 C 0.12917 0.41282 0.46171 0.0
N2388 N 0.13023 0.39778 0.48673 0.0
C2389 C 0.14157 0.37006 0.44837 0.0
C2390 C 0.13432 0.4068 0.42896 0.0
C2391 C 0.13626 0.37672 0.48079 0.0
C2392 C 0.17711 0.32486 0.35639 0.0
N2393 N 0.15733 0.33412 0.35072 0.0
C2394 C 0.13993 0.29923 0.35419 0.0
C2395 C 0.13889 0.32185 0.34975 0.0
C2396 C 0.16006 0.28928 0.36041 0.0
C2397 C 0.17885 0.30228 0.36144 0.0
H2398 H 0.19143 0.33509 0.35774 0.0
H2399 H 0.12331 0.32969 0.34633 0.0
C2400 C 0.08724 0.41755 0.35961 0.0
N2401 N 0.09893 0.3994 0.36769 0.0
C2402 C 0.06486 0.41822 0.36604 0.0
C2403 C 0.06733 0.38173 0.38928 0.0
C2404 C 0.08953 0.38178 0.3825 0.0
C2405 C 0.05477 0.39998 0.38066 0.0
H2406 H 0.09517 0.43121 0.34747 0.0
H2407 H 0.09924 0.3675 0.3882 0.0
C2408 C 0.19986 0.3807 0.31907 0.0
N2409 N 0.23815 0.37789 0.28322 0.0
C2410 C 0.21662 0.39571 0.32481 0.0
C2411 C 0.20274 0.36403 0.29558 0.0
C2412 C 0.23582 0.39407 0.30631 0.0
C2413 C 0.22217 0.36296 0.27756 0.0
C2414 C 0.15542 0.44163 0.34608 0.0
C2415 C 0.17604 0.44624 0.33329 0.0
C2416 C 0.14306 0.45841 0.36034 0.0
C2417 C 0.18401 0.46762 0.33497 0.0
C2418 C 0.1516 0.47959 0.36156 0.0
N2419 N 0.17173 0.48371 0.34896 0.0
C2420 C 0.14464 0.40615 0.24692 0.0
C2421 C 0.18206 0.41373 0.25512 0.0
C2422 C 0.14658 0.41023 0.21275 0.0
N2423 N 0.16236 0.40731 0.26721 0.0
C2424 C 0.18466 0.41829 0.22108 0.0
C2425 C 0.16687 0.41594 0.19945 0.0
H2426 H 0.12906 0.4015 0.25717 0.0
H2427 H 0.19587 0.41499 0.27158 0.0
C2428 C 0.20234 0.39702 0.41226 0.0
N2429 N 0.18668 0.41163 0.40352 0.0
C2430 C 0.21741 0.40218 0.43701 0.0
C2431 C 0.20006 0.43745 0.44353 0.0
C2432 C 0.18518 0.43156 0.41861 0.0
C2433 C 0.21627 0.42254 0.45294 0.0
H2434 H 0.20288 0.38118 0.40021 0.0
H2435 H 0.17226 0.44268 0.41189 0.0
O2436 O 0.13287 0.37728 0.31659 0.0
O2437 O 0.14587 0.37898 0.3905 0.0
O2438 O 0.18098 0.38201 0.337 0.0
O2439 O 0.14745 0.42076 0.34517 0.0
H2440 H 0.09239 0.3628 0.31411 0.0
H2441 H 0.15563 0.35805 0.26868 0.0
H2442 H 0.0787 0.33535 0.27347 0.0
H2443 H 0.14091 0.33059 0.22896 0.0
H2444 H 0.12433 0.42946 0.46723 0.0
H2445 H 0.14639 0.35331 0.44357 0.0
H2446 H 0.13349 0.41878 0.40911 0.0
H2447 H 0.13694 0.36514 0.50122 0.0
H2448 H 0.12512 0.28963 0.35359 0.0
H2449 H 0.19459 0.29506 0.36652 0.0
H2450 H 0.05545 0.43247 0.35896 0.0
H2451 H 0.05991 0.36739 0.40038 0.0
H2452 H 0.21477 0.40858 0.34316 0.0
H2453 H 0.19018 0.35195 0.29143 0.0
H2454 H 0.24885 0.40567 0.31029 0.0
H2455 H 0.22457 0.35021 0.25916 0.0
H2456 H 0.18586 0.43341 0.32253 0.0
H2457 H 0.1271 0.45506 0.37054 0.0
H2458 H 0.19999 0.4714 0.32525 0.0
H2459 H 0.14225 0.49274 0.37258 0.0
H2460 H 0.13248 0.40851 0.19671 0.0
H2461 H 0.20049 0.42291 0.21153 0.0
H2462 H 0.22969 0.39031 0.444 0.0
H2463 H 0.19871 0.45321 0.45575 0.0
Li2464 Li 0.3553 0.62461 0.39852 0.0
Li2465 Li 0.38702 0.59895 0.40572 0.0
Li2466 Li 0.3526 0.58565 0.38482 0.0
Li2467 Li 0.35637 0.59465 0.44295 0.0
C2468 C 0.36903 0.60508 0.33126 0.0
N2469 N 0.36258 0.59695 0.26408 0.0
C2470 C 0.38436 0.59305 0.3132 0.0
C2471 C 0.35043 0.613 0.31523 0.0
C2472 C 0.38079 0.58909 0.27922 0.0
C2473 C 0.34746 0.6087 0.28123 0.0
C2474 C 0.39357 0.63098 0.44922 0.0
C2475 C 0.42667 0.63016 0.48154 0.0
N2476 N 0.4313 0.65084 0.47118 0.0
C2477 C 0.3986 0.65224 0.43898 0.0
C2478 C 0.40764 0.61986 0.4708 0.0
C2479 C 0.41777 0.662 0.45036 0.0
C2480 C 0.3338 0.66447 0.4105 0.0
N2481 N 0.34684 0.65375 0.38867 0.0
C2482 C 0.34843 0.68527 0.35352 0.0
C2483 C 0.35472 0.66387 0.36106 0.0
C2484 C 0.33317 0.69648 0.3738 0.0
C2485 C 0.32725 0.68596 0.40405 0.0
H2486 H 0.32872 0.65639 0.43328 0.0
H2487 H 0.36612 0.65541 0.34504 0.0
C2488 C 0.42799 0.57785 0.40831 0.0
N2489 N 0.41777 0.59702 0.40113 0.0
C2490 C 0.45054 0.57612 0.40493 0.0
C2491 C 0.45157 0.61388 0.38681 0.0
C2492 C 0.42899 0.6148 0.39015 0.0
C2493 C 0.46251 0.59435 0.39424 0.0
H2494 H 0.41863 0.56387 0.41645 0.0
H2495 H 0.42038 0.6297 0.38404 0.0
C2496 C 0.3115 0.59854 0.40351 0.0
N2497 N 0.26924 0.58853 0.38584 0.0
C2498 C 0.30239 0.57854 0.413 0.0
C2499 C 0.29913 0.6135 0.38515 0.0
C2500 C 0.281 0.57376 0.40376 0.0
C2501 C 0.27778 0.60812 0.37644 0.0
C2502 C 0.37023 0.55406 0.43847 0.0
C2503 C 0.35434 0.53814 0.43267 0.0
C2504 C 0.38408 0.55203 0.46602 0.0
C2505 C 0.35252 0.52048 0.45467 0.0
C2506 C 0.38168 0.53417 0.48751 0.0
N2507 N 0.36609 0.5189 0.48143 0.0
C2508 C 0.35655 0.54937 0.34426 0.0
C2509 C 0.32263 0.56686 0.33537 0.0
C2510 C 0.35216 0.53431 0.31897 0.0
N2511 N 0.3419 0.56525 0.35201 0.0
C2512 C 0.31739 0.55184 0.31022 0.0
C2513 C 0.33244 0.53555 0.30161 0.0
H2514 H 0.37195 0.54875 0.35729 0.0
H2515 H 0.31158 0.58008 0.34073 0.0
C2516 C 0.35643 0.60316 0.51156 0.0
N2517 N 0.34825 0.58903 0.48851 0.0
C2518 C 0.35194 0.60035 0.54543 0.0
C2519 C 0.3301 0.56875 0.53154 0.0
C2520 C 0.33505 0.57217 0.49777 0.0
C2521 C 0.33879 0.5829 0.55568 0.0
H2522 H 0.36642 0.61672 0.5037 0.0
H2523 H 0.32845 0.5613 0.4791 0.0
O2524 O 0.37205 0.60882 0.36463 0.0
O2525 O 0.37499 0.62107 0.43813 0.0
O2526 O 0.33229 0.60368 0.41264 0.0
O2527 O 0.37223 0.57154 0.41732 0.0
H2528 H 0.39879 0.58674 0.32537 0.0
H2529 H 0.3383 0.62213 0.32901 0.0
H2530 H 0.39246 0.57974 0.26491 0.0
H2531 H 0.3331 0.61462 0.26851 0.0
H2532 H 0.43778 0.6217 0.49806 0.0
H2533 H 0.38786 0.66108 0.42232 0.0
H2534 H 0.40396 0.60339 0.47895 0.0
H2535 H 0.42191 0.67844 0.44258 0.0
H2536 H 0.35604 0.69291 0.33216 0.0
H2537 H 0.31825 0.69386 0.42364 0.0
H2538 H 0.45857 0.56078 0.41056 0.0
H2539 H 0.4604 0.62816 0.37827 0.0
H2540 H 0.3118 0.56673 0.42695 0.0
H2541 H 0.30595 0.62907 0.37764 0.0
H2542 H 0.27376 0.5583 0.41079 0.0
H2543 H 0.26801 0.61951 0.36218 0.0
H2544 H 0.34338 0.5395 0.41162 0.0
H2545 H 0.39644 0.56421 0.47089 0.0
H2546 H 0.34025 0.50809 0.45056 0.0
H2547 H 0.3922 0.53247 0.50903 0.0
H2548 H 0.36412 0.52195 0.31273 0.0
H2549 H 0.30209 0.55327 0.29697 0.0
H2550 H 0.35866 0.61169 0.56352 0.0
H2551 H 0.3197 0.55525 0.53877 0.0
Li2552 Li 0.16762 0.60214 0.13144 0.0
Li2553 Li 0.15693 0.60455 0.18958 0.0
Li2554 Li 0.12883 0.60711 0.14418 0.0
Li2555 Li 0.15446 0.63713 0.15455 0.0
C2556 C 0.15655 0.56131 0.15896 0.0
N2557 N 0.17443 0.51995 0.16327 0.0
C2558 C 0.17729 0.55847 0.17247 0.0
C2559 C 0.14488 0.54316 0.1476 0.0
C2560 C 0.18605 0.53742 0.17449 0.0
C2561 C 0.15421 0.52237 0.14998 0.0
C2562 C 0.19897 0.62173 0.18622 0.0
C2563 C 0.21843 0.63719 0.23296 0.0
N2564 N 0.23568 0.62404 0.22592 0.0
C2565 C 0.21693 0.60844 0.17933 0.0
C2566 C 0.19975 0.6363 0.21314 0.0
C2567 C 0.23532 0.60983 0.19974 0.0
C2568 C 0.20297 0.60566 0.08979 0.0
N2569 N 0.18766 0.59096 0.09955 0.0
C2570 C 0.20092 0.56466 0.06019 0.0
C2571 C 0.1863 0.57075 0.08536 0.0
C2572 C 0.21675 0.57967 0.04965 0.0
C2573 C 0.2178 0.6003 0.06478 0.0
H2574 H 0.20339 0.62172 0.10116 0.0
H2575 H 0.17363 0.55956 0.09294 0.0
C2576 C 0.14157 0.59482 0.25282 0.0
N2577 N 0.16039 0.59508 0.23498 0.0
C2578 C 0.14194 0.59131 0.28727 0.0
C2579 C 0.18099 0.58719 0.28431 0.0
C2580 C 0.17983 0.5906 0.24978 0.0
C2581 C 0.16189 0.58805 0.3034 0.0
H2582 H 0.1263 0.59821 0.24043 0.0
H2583 H 0.19456 0.59034 0.23519 0.0
C2584 C 0.1424 0.61694 0.07902 0.0
N2585 N 0.13488 0.60368 0.014 0.0
C2586 C 0.14502 0.6317 0.05265 0.0
C2587 C 0.13599 0.59543 0.07235 0.0
C2588 C 0.14112 0.62468 0.01993 0.0
C2589 C 0.13226 0.58905 0.0393 0.0
C2590 C 0.12386 0.64203 0.20266 0.0
C2591 C 0.10409 0.65145 0.19324 0.0
C2592 C 0.135 0.6501 0.23051 0.0
C2593 C 0.09592 0.66907 0.21163 0.0
C2594 C 0.12629 0.66773 0.24826 0.0
N2595 N 0.10711 0.67679 0.23851 0.0
C2596 C 0.08827 0.58545 0.14895 0.0
C2597 C 0.08938 0.61522 0.11088 0.0
C2598 C 0.06598 0.58279 0.14341 0.0
N2599 N 0.09937 0.6016 0.13294 0.0
C2600 C 0.0672 0.613 0.10434 0.0
C2601 C 0.05524 0.59685 0.12112 0.0
H2602 H 0.09663 0.57507 0.1667 0.0
H2603 H 0.09852 0.6282 0.09905 0.0
C2604 C 0.17569 0.67854 0.1596 0.0
N2605 N 0.15672 0.66816 0.15221 0.0
C2606 C 0.17717 0.70129 0.15695 0.0
C2607 C 0.13972 0.70216 0.13849 0.0
C2608 C 0.13896 0.67942 0.14156 0.0
C2609 C 0.15903 0.71325 0.14617 0.0
H2610 H 0.18977 0.66919 0.16703 0.0
H2611 H 0.12426 0.67068 0.13508 0.0
O2612 O 0.14782 0.58179 0.15604 0.0
O2613 O 0.18088 0.62068 0.16636 0.0
O2614 O 0.14665 0.62347 0.11107 0.0
O2615 O 0.13212 0.6248 0.18493 0.0
H2616 H 0.18658 0.57238 0.181 0.0
H2617 H 0.12884 0.54515 0.13685 0.0
H2618 H 0.20212 0.53498 0.18485 0.0
H2619 H 0.14541 0.50819 0.14115 0.0
H2620 H 0.21923 0.64834 0.25394 0.0
H2621 H 0.21665 0.5971 0.15857 0.0
H2622 H 0.18608 0.6468 0.21871 0.0
H2623 H 0.2493 0.59959 0.19478 0.0
H2624 H 0.19964 0.54869 0.04862 0.0
H2625 H 0.22978 0.61224 0.05692 0.0
H2626 H 0.12694 0.59205 0.30141 0.0
H2627 H 0.19663 0.58466 0.29615 0.0
H2628 H 0.15008 0.64838 0.05743 0.0
H2629 H 0.13403 0.58373 0.09241 0.0
H2630 H 0.14309 0.63592 0.99926 0.0
H2631 H 0.12733 0.57244 0.03377 0.0
H2632 H 0.0952 0.64528 0.17186 0.0
H2633 H 0.15014 0.64276 0.23844 0.0
H2634 H 0.08069 0.67661 0.20454 0.0
H2635 H 0.13476 0.67417 0.26984 0.0
H2636 H 0.05711 0.57027 0.15687 0.0
H2637 H 0.0593 0.62418 0.08718 0.0
H2638 H 0.19234 0.70946 0.16275 0.0
H2639 H 0.12551 0.711 0.12988 0.0
Li2640 Li 0.14813 0.41778 0.88453 0.0
Li2641 Li 0.14474 0.40707 0.94318 0.0
Li2642 Li 0.1434 0.37852 0.89719 0.0
Li2643 Li 0.1132 0.4041 0.90752 0.0
C2644 C 0.18938 0.40037 0.9033 0.0
N2645 N 0.23318 0.40441 0.88904 0.0
C2646 C 0.20214 0.41548 0.92072 0.0
C2647 C 0.19899 0.38705 0.879 0.0
C2648 C 0.22423 0.41734 0.91306 0.0
C2649 C 0.22112 0.38943 0.87203 0.0
C2650 C 0.13179 0.44867 0.93995 0.0
C2651 C 0.12215 0.46868 0.98978 0.0
N2652 N 0.13743 0.48399 0.98221 0.0
C2653 C 0.14733 0.46465 0.93256 0.0
C2654 C 0.11899 0.45075 0.96865 0.0
C2655 C 0.14994 0.48238 0.95426 0.0
C2656 C 0.14244 0.44614 0.83252 0.0
N2657 N 0.15862 0.4383 0.85234 0.0
C2658 C 0.18469 0.461 0.82458 0.0
C2659 C 0.17951 0.44534 0.84884 0.0
C2660 C 0.16819 0.46921 0.80388 0.0
C2661 C 0.1469 0.4616 0.80788 0.0
H2662 H 0.12596 0.44039 0.83605 0.0
H2663 H 0.1921 0.43909 0.86493 0.0
C2664 C 0.14637 0.39681 0.01106 0.0
N2665 N 0.15367 0.4118 0.98859 0.0
C2666 C 0.15085 0.39923 0.045 0.0
C2667 C 0.17105 0.43213 0.03231 0.0
C2668 C 0.16606 0.42913 0.99847 0.0
C2669 C 0.16311 0.41716 0.05592 0.0
H2670 H 0.13691 0.38298 0.00268 0.0
H2671 H 0.17182 0.4408 0.98026 0.0
C2672 C 0.12969 0.39057 0.83195 0.0
N2673 N 0.1347 0.37873 0.76574 0.0
C2674 C 0.11151 0.38529 0.81259 0.0
C2675 C 0.15038 0.38998 0.8176 0.0
C2676 C 0.11439 0.37928 0.77918 0.0
C2677 C 0.15259 0.38393 0.78409 0.0
C2678 C 0.10645 0.37227 0.95024 0.0
C2679 C 0.09995 0.35147 0.93968 0.0
C2680 C 0.09361 0.38384 0.97302 0.0
C2681 C 0.08049 0.34272 0.95176 0.0
C2682 C 0.07423 0.37456 0.98443 0.0
N2683 N 0.06812 0.35436 0.97364 0.0
C2684 C 0.16642 0.33864 0.90167 0.0
C2685 C 0.13667 0.33831 0.86387 0.0
C2686 C 0.16991 0.31629 0.89648 0.0
N2687 N 0.14991 0.34908 0.8856 0.0
C2688 C 0.13961 0.31601 0.85788 0.0
C2689 C 0.15619 0.30479 0.87469 0.0
H2690 H 0.17644 0.34755 0.91925 0.0
H2691 H 0.12326 0.34682 0.85223 0.0
C2692 C 0.07221 0.42518 0.9142 0.0
N2693 N 0.08244 0.40653 0.90436 0.0
C2694 C 0.04961 0.42692 0.91163 0.0
C2695 C 0.04858 0.3902 0.88904 0.0
C2696 C 0.07118 0.38926 0.89168 0.0
C2697 C 0.03765 0.40922 0.89903 0.0
H2698 H 0.0816 0.43874 0.92381 0.0
H2699 H 0.0798 0.37476 0.88366 0.0
O2700 O 0.1678 0.39806 0.91087 0.0
O2701 O 0.12906 0.43115 0.9191 0.0
O2702 O 0.12709 0.39651 0.86469 0.0
O2703 O 0.12523 0.38131 0.93819 0.0
H2704 H 0.19504 0.42582 0.93969 0.0
H2705 H 0.18951 0.37491 0.86579 0.0
H2706 H 0.23425 0.42908 0.92619 0.0
H2707 H 0.22874 0.3793 0.85319 0.0
H2708 H 0.11248 0.47041 0.01222 0.0
H2709 H 0.15737 0.46331 0.91046 0.0
H2710 H 0.10687 0.43856 0.97471 0.0
H2711 H 0.16196 0.49482 0.94894 0.0
H2712 H 0.20127 0.46674 0.82208 0.0
H2713 H 0.13384 0.46779 0.79235 0.0
H2714 H 0.14469 0.3873 0.06266 0.0
H2715 H 0.18071 0.44605 0.04005 0.0
H2716 H 0.09536 0.38578 0.82332 0.0
H2717 H 0.16454 0.39437 0.83206 0.0
H2718 H 0.10048 0.37507 0.76392 0.0
H2719 H 0.16852 0.38344 0.77265 0.0
H2720 H 0.10975 0.34223 0.92225 0.0
H2721 H 0.09846 0.39993 0.9815 0.0
H2722 H 0.0752 0.32668 0.94368 0.0
H2723 H 0.06403 0.38342 0.00181 0.0
H2724 H 0.18273 0.30793 0.90997 0.0
H2725 H 0.12864 0.30744 0.84122 0.0
H2726 H 0.04154 0.44185 0.91932 0.0
H2727 H 0.03972 0.37636 0.87899 0.0
Li2728 Li 0.33536 0.40318 0.63051 0.0
Li2729 Li 0.34466 0.4004 0.68985 0.0
Li2730 Li 0.37286 0.3971 0.64537 0.0
Li2731 Li 0.34742 0.36661 0.65467 0.0
C2732 C 0.34835 0.44363 0.64904 0.0
N2733 N 0.33544 0.48557 0.63252 0.0
C2734 C 0.33557 0.45578 0.67121 0.0
C2735 C 0.35473 0.45288 0.61862 0.0
C2736 C 0.32918 0.47695 0.66237 0.0
C2737 C 0.34796 0.47408 0.61067 0.0
C2738 C 0.30179 0.38092 0.68019 0.0
C2739 C 0.27762 0.35788 0.71209 0.0
N2740 N 0.26186 0.37342 0.70977 0.0
C2741 C 0.28525 0.39652 0.67772 0.0
C2742 C 0.29787 0.36131 0.69714 0.0
C2743 C 0.26522 0.39249 0.693 0.0
C2744 C 0.31383 0.40296 0.56957 0.0
N2745 N 0.31535 0.41465 0.59842 0.0
C2746 C 0.28541 0.43724 0.58189 0.0
C2747 C 0.30173 0.43174 0.60476 0.0
C2748 C 0.28313 0.42487 0.55256 0.0
C2749 C 0.2978 0.40787 0.54611 0.0
H2750 H 0.32455 0.38923 0.56535 0.0
H2751 H 0.30288 0.4405 0.62813 0.0
C2752 C 0.35695 0.41034 0.75548 0.0
N2753 N 0.33941 0.41014 0.73475 0.0
C2754 C 0.35435 0.41448 0.78953 0.0
C2755 C 0.31598 0.42027 0.77997 0.0
C2756 C 0.31926 0.41561 0.7461 0.0
C2757 C 0.33359 0.41899 0.80218 0.0
H2758 H 0.37291 0.40659 0.74574 0.0
H2759 H 0.30568 0.41606 0.7291 0.0
C2760 C 0.3698 0.37797 0.58632 0.0
N2761 N 0.40006 0.37256 0.53599 0.0
C2762 C 0.38008 0.35778 0.58196 0.0
C2763 C 0.37466 0.39532 0.56484 0.0
C2764 C 0.39539 0.35539 0.55641 0.0
C2765 C 0.39009 0.39229 0.53962 0.0
C2766 C 0.37384 0.36633 0.71329 0.0
C2767 C 0.39544 0.36159 0.72136 0.0
C2768 C 0.3571 0.3583 0.73347 0.0
C2769 C 0.39992 0.3487 0.74938 0.0
C2770 C 0.36224 0.34552 0.76131 0.0
N2771 N 0.38337 0.34099 0.7686 0.0
C2772 C 0.41234 0.42034 0.62729 0.0
C2773 C 0.41422 0.38193 0.63552 0.0
C2774 C 0.43468 0.42112 0.62039 0.0
N2775 N 0.40271 0.40089 0.63473 0.0
C2776 C 0.43636 0.38192 0.62856 0.0
C2777 C 0.44681 0.40167 0.62111 0.0
H2778 H 0.40278 0.43519 0.62699 0.0
H2779 H 0.4061 0.36676 0.64169 0.0
C2780 C 0.32713 0.32726 0.63465 0.0
N2781 N 0.34441 0.33562 0.65162 0.0
C2782 C 0.32548 0.3047 0.62924 0.0
C2783 C 0.35911 0.2998 0.65966 0.0
C2784 C 0.36032 0.32242 0.66393 0.0
C2785 C 0.34169 0.29076 0.64176 0.0
H2786 H 0.31492 0.33819 0.62462 0.0
H2787 H 0.3743 0.32941 0.67621 0.0
O2788 O 0.35501 0.42301 0.65747 0.0
O2789 O 0.32143 0.38447 0.66505 0.0
O2790 O 0.35517 0.3808 0.61169 0.0
O2791 O 0.3692 0.37888 0.68587 0.0
H2792 H 0.33061 0.44892 0.69494 0.0
H2793 H 0.36478 0.44378 0.60134 0.0
H2794 H 0.31925 0.48652 0.67923 0.0
H2795 H 0.35271 0.48142 0.58716 0.0
H2796 H 0.27441 0.34282 0.72542 0.0
H2797 H 0.28795 0.41173 0.66462 0.0
H2798 H 0.31023 0.34876 0.69856 0.0
H2799 H 0.25236 0.40453 0.69155 0.0
H2800 H 0.27417 0.45037 0.58756 0.0
H2801 H 0.29632 0.39799 0.52374 0.0
H2802 H 0.36832 0.41365 0.806 0.0
H2803 H 0.2998 0.42405 0.78898 0.0
H2804 H 0.37645 0.34417 0.59837 0.0
H2805 H 0.3667 0.41099 0.56776 0.0
H2806 H 0.40361 0.33991 0.55288 0.0
H2807 H 0.39414 0.40562 0.52295 0.0
H2808 H 0.40862 0.3678 0.70616 0.0
H2809 H 0.34036 0.36215 0.72791 0.0
H2810 H 0.41657 0.34485 0.75586 0.0
H2811 H 0.34943 0.33924 0.77718 0.0
H2812 H 0.44242 0.43662 0.61483 0.0
H2813 H 0.44536 0.36668 0.6294 0.0
H2814 H 0.31194 0.29822 0.61504 0.0
H2815 H 0.372 0.28949 0.66929 0.0
C2816 C 0.17516 0.99494 0.28481 0.0
C2817 C 0.17161 0.01735 0.27737 0.0
C2818 C 0.1725 0.00909 0.21743 0.0
C2819 C 0.17255 0.98646 0.22508 0.0
N2820 N 0.17244 0.95736 0.26583 0.0
N2821 N 0.16475 0.04581 0.23676 0.0
C2822 C 0.17372 0.97921 0.25873 0.0
C2823 C 0.16998 0.02454 0.24368 0.0
N2824 N 0.18016 0.98878 0.31677 0.0
N2825 N 0.17493 0.01576 0.18501 0.0
H2826 H 0.16253 0.05767 0.2552 0.0
H2827 H 0.1609 0.05139 0.21288 0.0
H2828 H 0.17671 0.00476 0.16522 0.0
H2829 H 0.1772 0.03203 0.17812 0.0
H2830 H 0.18495 0.973 0.32325 0.0
H2831 H 0.18147 0.99997 0.33639 0.0
H2832 H 0.17053 0.95122 0.28994 0.0
H2833 H 0.17185 0.94531 0.24738 0.0
C2834 C 0.25817 0.91188 0.52994 0.0
C2835 C 0.24137 0.92771 0.52843 0.0
C2836 C 0.25884 0.94474 0.47983 0.0
C2837 C 0.27367 0.92698 0.47842 0.0
N2838 N 0.28633 0.89235 0.50008 0.0
N2839 N 0.22482 0.9589 0.50186 0.0
C2840 C 0.27323 0.91032 0.50318 0.0
C2841 C 0.24157 0.94425 0.50355 0.0
N2842 N 0.25971 0.89835 0.5571 0.0
N2843 N 0.26148 0.96211 0.45867 0.0
H2844 H 0.21232 0.95937 0.51948 0.0
H2845 H 0.22263 0.96979 0.48213 0.0
H2846 H 0.27397 0.96282 0.44104 0.0
H2847 H 0.25251 0.97651 0.46036 0.0
H2848 H 0.27285 0.88797 0.56133 0.0
H2849 H 0.24881 0.89895 0.57707 0.0
H2850 H 0.28489 0.87846 0.51499 0.0
H2851 H 0.29761 0.89052 0.48087 0.0
C2852 C 0.33421 0.02345 0.75816 0.0
C2853 C 0.33223 0.01608 0.72464 0.0
C2854 C 0.33021 0.97802 0.74378 0.0
C2855 C 0.33198 0.98542 0.77734 0.0
N2856 N 0.3307 0.01492 0.81721 0.0
N2857 N 0.32355 0.98737 0.68564 0.0
C2858 C 0.33236 0.00811 0.78474 0.0
C2859 C 0.32863 0.99364 0.71752 0.0
N2860 N 0.33881 0.04496 0.76451 0.0
N2861 N 0.33112 0.95612 0.73692 0.0
H2862 H 0.32246 0.99844 0.66585 0.0
H2863 H 0.31859 0.97161 0.67933 0.0
H2864 H 0.33195 0.94416 0.75548 0.0
H2865 H 0.3325 0.94979 0.71284 0.0
H2866 H 0.34305 0.05087 0.78803 0.0
H2867 H 0.33976 0.0568 0.74578 0.0
H2868 H 0.32874 0.03122 0.82416 0.0
H2869 H 0.32935 0.00404 0.83722 0.0
C2870 C 0.25988 0.09007 0.97 0.0
C2871 C 0.24245 0.07497 0.97177 0.0
C2872 C 0.25885 0.058 0.02132 0.0
C2873 C 0.2744 0.07513 0.02234 0.0
N2874 N 0.28871 0.10879 0.99957 0.0
N2875 N 0.22447 0.04487 0.99907 0.0
C2876 C 0.27484 0.09138 0.99694 0.0
C2877 C 0.2418 0.05882 0.99724 0.0
N2878 N 0.26211 0.10315 0.94246 0.0
N2879 N 0.26059 0.0409 0.04318 0.0
H2880 H 0.21213 0.0446 0.98117 0.0
H2881 H 0.22167 0.03439 0.01913 0.0
H2882 H 0.27292 0.03994 0.06105 0.0
H2883 H 0.25103 0.02687 0.0419 0.0
H2884 H 0.2757 0.11289 0.93804 0.0
H2885 H 0.25125 0.10281 0.92241 0.0
H2886 H 0.28798 0.1225 0.98416 0.0
H2887 H 0.29997 0.11039 0.01885 0.0
C2888 C 0.82009 0.98115 0.75595 0.0
C2889 C 0.82754 0.98678 0.72352 0.0
C2890 C 0.83158 0.02512 0.74067 0.0
C2891 C 0.82715 0.01885 0.77415 0.0
N2892 N 0.81681 0.99148 0.81443 0.0
N2893 N 0.84036 0.01365 0.6841 0.0
C2894 C 0.821 0.99705 0.78194 0.0
C2895 C 0.83297 0.00873 0.71549 0.0
N2896 N 0.81214 0.96059 0.7617 0.0
N2897 N 0.83454 0.04674 0.73311 0.0
H2898 H 0.84067 0.00227 0.66465 0.0
H2899 H 0.84716 0.02864 0.67753 0.0
H2900 H 0.83412 0.05907 0.7511 0.0
H2901 H 0.83576 0.05278 0.70886 0.0
H2902 H 0.80462 0.95584 0.78384 0.0
H2903 H 0.81158 0.94855 0.74321 0.0
H2904 H 0.81476 0.97547 0.8227 0.0
H2905 H 0.81623 0.00298 0.83371 0.0
C2906 C 0.77454 0.08267 0.51337 0.0
C2907 C 0.76854 0.07764 0.48 0.0
C2908 C 0.7312 0.06995 0.49806 0.0
C2909 C 0.73648 0.07808 0.53026 0.0
N2910 N 0.76273 0.0922 0.56945 0.0
N2911 N 0.74165 0.06644 0.43971 0.0
C2912 C 0.75813 0.08416 0.53832 0.0
C2913 C 0.74705 0.07094 0.47217 0.0
N2914 N 0.79596 0.08601 0.52103 0.0
N2915 N 0.71101 0.06133 0.49239 0.0
H2916 H 0.75307 0.06616 0.42042 0.0
H2917 H 0.7258 0.06397 0.43145 0.0
H2918 H 0.69899 0.06074 0.51077 0.0
H2919 H 0.70664 0.05326 0.47049 0.0
H2920 H 0.80181 0.08772 0.54531 0.0
H2921 H 0.8083 0.08535 0.50316 0.0
H2922 H 0.77746 0.09946 0.57587 0.0
H2923 H 0.75133 0.09258 0.58877 0.0
C2924 C 0.6827 0.98206 0.24448 0.0
C2925 C 0.67444 0.98726 0.27662 0.0
C2926 C 0.6692 0.0255 0.25968 0.0
C2927 C 0.67471 0.01961 0.22641 0.0
N2928 N 0.68718 0.99295 0.18642 0.0
N2929 N 0.66008 0.01345 0.31586 0.0
C2930 C 0.68188 0.99811 0.21869 0.0
C2931 C 0.66805 0.00896 0.28465 0.0
N2932 N 0.6913 0.96175 0.23879 0.0
N2933 N 0.66502 0.04692 0.26727 0.0
H2934 H 0.66008 0.00203 0.33525 0.0
H2935 H 0.6526 0.02811 0.3224 0.0
H2936 H 0.66508 0.05934 0.24942 0.0
H2937 H 0.66299 0.05281 0.29147 0.0
H2938 H 0.69943 0.95735 0.21699 0.0
H2939 H 0.69167 0.94953 0.25699 0.0
H2940 H 0.69006 0.97711 0.17799 0.0
H2941 H 0.68791 0.00461 0.16739 0.0
C2942 C 0.75319 0.93396 0.97225 0.0
C2943 C 0.73177 0.92705 0.98015 0.0
C2944 C 0.74217 0.92113 0.0386 0.0
C2945 C 0.76378 0.9273 0.03045 0.0
N2946 N 0.7891 0.9441 0.99243 0.0
N2947 N 0.70437 0.91882 0.02125 0.0
C2948 C 0.769 0.9353 0.99816 0.0
C2949 C 0.72577 0.92227 0.01359 0.0
N2950 N 0.75857 0.93828 0.93973 0.0
N2951 N 0.73761 0.9133 0.06987 0.0
H2952 H 0.69205 0.91927 0.00333 0.0
H2953 H 0.69851 0.91724 0.04554 0.0
H2954 H 0.749 0.91319 0.08922 0.0
H2955 H 0.72295 0.90598 0.07639 0.0
H2956 H 0.7744 0.94088 0.93148 0.0
H2957 H 0.74716 0.93828 0.92042 0.0
H2958 H 0.79342 0.95206 0.97041 0.0
H2959 H 0.80108 0.94496 0.01086 0.0
C2960 C 0.66842 0.47812 0.76063 0.0
C2961 C 0.67444 0.48494 0.72797 0.0
C2962 C 0.68024 0.52238 0.74808 0.0
C2963 C 0.67431 0.51551 0.78072 0.0
N2964 N 0.66778 0.48638 0.81999 0.0
N2965 N 0.69067 0.51183 0.69176 0.0
C2966 C 0.6701 0.49316 0.7876 0.0
C2967 C 0.68187 0.50657 0.72211 0.0
N2968 N 0.65997 0.45766 0.76556 0.0
N2969 N 0.68338 0.54413 0.74167 0.0
H2970 H 0.69206 0.50054 0.6723 0.0
H2971 H 0.69827 0.5267 0.68677 0.0
H2972 H 0.68296 0.55608 0.76029 0.0
H2973 H 0.68516 0.55054 0.71771 0.0
H2974 H 0.65287 0.45264 0.78791 0.0
H2975 H 0.65865 0.44604 0.74657 0.0
H2976 H 0.66687 0.47 0.827 0.0
H2977 H 0.66873 0.49709 0.84027 0.0
C2978 C 0.74433 0.41106 0.97233 0.0
C2979 C 0.76058 0.42749 0.97246 0.0
C2980 C 0.74237 0.44588 0.01925 0.0
C2981 C 0.72792 0.42787 0.02191 0.0
N2982 N 0.71666 0.3919 0.00378 0.0
N2983 N 0.77621 0.46002 0.99651 0.0
C2984 C 0.72915 0.41016 0.99899 0.0
C2985 C 0.75983 0.44491 0.99588 0.0
N2986 N 0.74337 0.39636 0.94657 0.0
N2987 N 0.73918 0.46395 0.0388 0.0
H2988 H 0.78885 0.46011 0.9791 0.0
H2989 H 0.77801 0.47169 0.01528 0.0
H2990 H 0.72658 0.46502 0.0562 0.0
H2991 H 0.74784 0.47847 0.03602 0.0
H2992 H 0.73054 0.38545 0.9432 0.0
H2993 H 0.7544 0.39636 0.92675 0.0
H2994 H 0.71868 0.37746 0.99032 0.0
H2995 H 0.70542 0.39044 0.02313 0.0
C2996 C 0.83274 0.47754 0.23913 0.0
C2997 C 0.82601 0.48418 0.27154 0.0
C2998 C 0.81953 0.52148 0.25127 0.0
C2999 C 0.82658 0.51491 0.219 0.0
N3000 N 0.83531 0.4862 0.17999 0.0
N3001 N 0.8087 0.51061 0.30733 0.0
C3002 C 0.83161 0.49271 0.21222 0.0
C3003 C 0.81794 0.5056 0.27719 0.0
N3004 N 0.84119 0.45705 0.2345 0.0
N3005 N 0.81517 0.54307 0.25734 0.0
H3006 H 0.80749 0.49929 0.32679 0.0
H3007 H 0.80069 0.52525 0.31226 0.0
H3008 H 0.81531 0.55494 0.2386 0.0
H3009 H 0.81247 0.54948 0.28109 0.0
H3010 H 0.84887 0.45204 0.21261 0.0
H3011 H 0.84164 0.44525 0.25333 0.0
H3012 H 0.83692 0.46992 0.17278 0.0
H3013 H 0.83501 0.49702 0.15981 0.0
C3014 C 0.73872 0.55767 0.49634 0.0
C3015 C 0.73999 0.57325 0.4701 0.0
C3016 C 0.77297 0.58891 0.4946 0.0
C3017 C 0.77199 0.57314 0.52066 0.0
N3018 N 0.75695 0.5398 0.54285 0.0
N3019 N 0.76085 0.59987 0.43941 0.0
C3020 C 0.7558 0.5566 0.52036 0.0
C3021 C 0.75803 0.58757 0.46764 0.0
N3022 N 0.7208 0.54457 0.499 0.0
N3023 N 0.7873 0.60596 0.49658 0.0
H3024 H 0.75009 0.59937 0.41924 0.0
H3025 H 0.77483 0.60897 0.43462 0.0
H3026 H 0.79846 0.60769 0.51598 0.0
H3027 H 0.787 0.61936 0.48051 0.0
H3028 H 0.71764 0.53465 0.5196 0.0
H3029 H 0.70835 0.54453 0.48127 0.0
H3030 H 0.74686 0.52613 0.54211 0.0
H3031 H 0.76929 0.53865 0.56069 0.0
C3032 C 0.32017 0.48239 0.25557 0.0
C3033 C 0.32727 0.48807 0.22298 0.0
C3034 C 0.33243 0.5262 0.2405 0.0
C3035 C 0.32807 0.51988 0.27401 0.0
N3036 N 0.31771 0.49245 0.31423 0.0
N3037 N 0.34043 0.51481 0.18362 0.0
C3038 C 0.32167 0.49813 0.28171 0.0
C3039 C 0.33318 0.50992 0.2151 0.0
N3040 N 0.31191 0.46195 0.2613 0.0
N3041 N 0.33591 0.54777 0.2331 0.0
H3042 H 0.34033 0.50353 0.16404 0.0
H3043 H 0.34755 0.52965 0.17709 0.0
H3044 H 0.33622 0.56002 0.25122 0.0
H3045 H 0.33696 0.55389 0.20888 0.0
H3046 H 0.30459 0.45721 0.2836 0.0
H3047 H 0.31088 0.45002 0.24268 0.0
H3048 H 0.31555 0.47643 0.32237 0.0
H3049 H 0.31747 0.50384 0.33368 0.0
C3050 C 0.22679 0.58207 0.98924 0.0
C3051 C 0.23185 0.57452 0.02184 0.0
C3052 C 0.26788 0.56279 0.00269 0.0
C3053 C 0.26404 0.57347 0.97179 0.0
N3054 N 0.24033 0.59392 0.93525 0.0
N3055 N 0.25686 0.55778 0.0605 0.0
C3056 C 0.24349 0.58299 0.96471 0.0
C3057 C 0.25222 0.56459 0.02873 0.0
N3058 N 0.20599 0.58836 0.98188 0.0
N3059 N 0.28651 0.55089 0.00691 0.0
H3060 H 0.24547 0.55817 0.07982 0.0
H3061 H 0.27224 0.55278 0.06824 0.0
H3062 H 0.29824 0.54939 0.98819 0.0
H3063 H 0.28954 0.54105 0.02764 0.0
H3064 H 0.20065 0.59202 0.95782 0.0
H3065 H 0.19348 0.58812 0.9995 0.0
H3066 H 0.22674 0.60352 0.93025 0.0
H3067 H 0.25195 0.59448 0.91628 0.0
C3068 C 0.16909 0.50865 0.78684 0.0
C3069 C 0.17268 0.48636 0.77855 0.0
C3070 C 0.17728 0.49594 0.71944 0.0
C3071 C 0.17307 0.51816 0.72757 0.0
N3072 N 0.16899 0.54662 0.76885 0.0
N3073 N 0.18424 0.45895 0.73914 0.0
C3074 C 0.17038 0.52482 0.76133 0.0
C3075 C 0.17816 0.48008 0.74547 0.0
N3076 N 0.16357 0.51415 0.81891 0.0
N3077 N 0.17968 0.49 0.68667 0.0
H3078 H 0.18465 0.44691 0.75761 0.0
H3079 H 0.19037 0.45359 0.71632 0.0
H3080 H 0.1803 0.50136 0.66721 0.0
H3081 H 0.18018 0.47387 0.67839 0.0
H3082 H 0.15811 0.52957 0.82605 0.0
H3083 H 0.16348 0.50288 0.83851 0.0
H3084 H 0.16919 0.55282 0.79307 0.0
H3085 H 0.16915 0.55885 0.7507 0.0
C3086 C 0.2271 0.41971 0.51298 0.0
C3087 C 0.23174 0.42748 0.48036 0.0
C3088 C 0.268 0.43912 0.49862 0.0
C3089 C 0.26453 0.42831 0.52953 0.0
N3090 N 0.24137 0.40733 0.56623 0.0
N3091 N 0.2563 0.44434 0.44116 0.0
C3092 C 0.24411 0.41861 0.53698 0.0
C3093 C 0.25203 0.4374 0.473 0.0
N3094 N 0.20641 0.41336 0.52087 0.0
N3095 N 0.28653 0.45109 0.49402 0.0
H3096 H 0.24467 0.44407 0.42217 0.0
H3097 H 0.27159 0.44933 0.43304 0.0
H3098 H 0.29849 0.45255 0.51241 0.0
H3099 H 0.28929 0.46102 0.4733 0.0
H3100 H 0.20139 0.4096 0.54506 0.0
H3101 H 0.19367 0.41367 0.50364 0.0
H3102 H 0.22786 0.39764 0.57136 0.0
H3103 H 0.25326 0.40647 0.58477 0.0
C3104 C 0.14954 0.23401 0.40111 0.0
C3105 C 0.16026 0.21975 0.3785 0.0
C3106 C 0.17072 0.251 0.34355 0.0
C3107 C 0.16116 0.26537 0.36726 0.0
N3108 N 0.14566 0.27102 0.42202 0.0
N3109 N 0.18444 0.21456 0.33179 0.0
C3110 C 0.15181 0.257 0.3971 0.0
C3111 C 0.17193 0.22823 0.35081 0.0
N3112 N 0.13652 0.22561 0.4257 0.0
N3113 N 0.17775 0.25893 0.31346 0.0
H3114 H 0.18553 0.19777 0.33629 0.0
H3115 H 0.19515 0.22006 0.31346 0.0
H3116 H 0.17701 0.27546 0.30709 0.0
H3117 H 0.18267 0.24897 0.29375 0.0
H3118 H 0.12627 0.23519 0.44038 0.0
H3119 H 0.13462 0.20886 0.42976 0.0
H3120 H 0.1408 0.26581 0.44566 0.0
H3121 H 0.14737 0.28796 0.42021 0.0
C3122 C 0.99685 0.91454 0.6359 0.0
C3123 C 0.98745 0.90853 0.60481 0.0
C3124 C 0.02363 0.90106 0.58158 0.0
C3125 C 0.03305 0.90778 0.61231 0.0
N3126 N 0.02943 0.92446 0.66663 0.0
N3127 N 0.9914 0.89927 0.54655 0.0
C3128 C 0.01987 0.91559 0.63887 0.0
C3129 C 0.00072 0.90282 0.57712 0.0
N3130 N 0.98375 0.9187 0.6628 0.0
N3131 N 0.03652 0.89223 0.55719 0.0
H3132 H 0.97463 0.89969 0.54265 0.0
H3133 H 1.00022 0.8974 0.52453 0.0
H3134 H 0.05338 0.89109 0.55933 0.0
H3135 H 0.03051 0.88473 0.53573 0.0
H3136 H 0.9895 0.92051 0.68712 0.0
H3137 H 0.96682 0.91902 0.66126 0.0
H3138 H 0.02088 0.93253 0.68539 0.0
H3139 H 0.04625 0.92534 0.66976 0.0
C3140 C 0.35259 0.76775 0.89948 0.0
C3141 C 0.3411 0.78165 0.87722 0.0
C3142 C 0.32977 0.74991 0.84395 0.0
C3143 C 0.3403 0.73592 0.86723 0.0
N3144 N 0.35798 0.73093 0.92052 0.0
N3145 N 0.3157 0.78619 0.8319 0.0
C3146 C 0.3506 0.74468 0.89604 0.0
C3147 C 0.32871 0.77277 0.85056 0.0
N3148 N 0.366 0.7766 0.92321 0.0
N3149 N 0.32161 0.74147 0.81487 0.0
H3150 H 0.31479 0.80305 0.83584 0.0
H3151 H 0.30451 0.78047 0.81443 0.0
H3152 H 0.32201 0.72482 0.8092 0.0
H3153 H 0.31593 0.75107 0.79523 0.0
H3154 H 0.37678 0.76738 0.9375 0.0
H3155 H 0.36757 0.79341 0.92701 0.0
H3156 H 0.36359 0.73633 0.94366 0.0
H3157 H 0.35672 0.71393 0.91892 0.0
C3158 C 0.48495 0.10069 0.14919 0.0
C3159 C 0.471 0.09704 0.12148 0.0
C3160 C 0.50256 0.09401 0.08433 0.0
C3161 C 0.51652 0.09602 0.11245 0.0
N3162 N 0.52115 0.09687 0.17236 0.0
N3163 N 0.46619 0.08636 0.06394 0.0
C3164 C 0.50775 0.09809 0.14513 0.0
C3165 C 0.47972 0.09252 0.08939 0.0
N3166 N 0.47646 0.10736 0.17912 0.0
N3167 N 0.51105 0.09444 0.05273 0.0
H3168 H 0.44936 0.08529 0.06672 0.0
H3169 H 0.47175 0.08055 0.041 0.0
H3170 H 0.52767 0.09571 0.04795 0.0
H3171 H 0.50155 0.09541 0.03122 0.0
H3172 H 0.48597 0.11271 0.19906 0.0
H3173 H 0.45982 0.1093 0.18322 0.0
H3174 H 0.51547 0.09599 0.19685 0.0
H3175 H 0.53792 0.09469 0.17042 0.0
C3176 C 0.17176 0.74642 0.11459 0.0
C3177 C 0.16029 0.73737 0.1421 0.0
C3178 C 0.14763 0.77392 0.15821 0.0
C3179 C 0.1602 0.78309 0.13192 0.0
N3180 N 0.18773 0.77877 0.08954 0.0
N3181 N 0.14097 0.74257 0.19395 0.0
C3182 C 0.17337 0.76952 0.11147 0.0
C3183 C 0.14935 0.75117 0.16514 0.0
N3184 N 0.18034 0.73296 0.09066 0.0
N3185 N 0.13331 0.78674 0.17555 0.0
H3186 H 0.14191 0.72595 0.1998 0.0
H3187 H 0.13483 0.75211 0.21335 0.0
H3188 H 0.13149 0.80347 0.17124 0.0
H3189 H 0.12196 0.78051 0.19236 0.0
H3190 H 0.1867 0.73865 0.06814 0.0
H3191 H 0.1795 0.71594 0.09196 0.0
H3192 H 0.19933 0.76983 0.07639 0.0
H3193 H 0.18942 0.79567 0.08678 0.0
C3194 C 0.50702 0.90224 0.35393 0.0
C3195 C 0.5158 0.90645 0.38612 0.0
C3196 C 0.47912 0.90821 0.40998 0.0
C3197 C 0.47034 0.90511 0.37751 0.0
N3198 N 0.4753 0.90223 0.31784 0.0
N3199 N 0.51081 0.91671 0.44379 0.0
C3200 C 0.48413 0.90309 0.34923 0.0
C3201 C 0.502 0.91037 0.41391 0.0
N3202 N 0.52055 0.8966 0.32818 0.0
N3203 N 0.46557 0.90861 0.4371 0.0
H3204 H 0.52752 0.91824 0.44761 0.0
H3205 H 0.50164 0.92204 0.46409 0.0
H3206 H 0.44867 0.90792 0.43504 0.0
H3207 H 0.471 0.90823 0.46174 0.0
H3208 H 0.5151 0.89089 0.30514 0.0
H3209 H 0.53744 0.8961 0.33051 0.0
H3210 H 0.48442 0.90332 0.29599 0.0
H3211 H 0.45858 0.90197 0.31345 0.0
C3212 C 0.36005 0.23438 0.61341 0.0
C3213 C 0.34246 0.22107 0.62416 0.0
C3214 C 0.32477 0.25336 0.64849 0.0
C3215 C 0.34126 0.26685 0.63465 0.0
N3216 N 0.37165 0.27059 0.59685 0.0
N3217 N 0.30589 0.21861 0.64576 0.0
C3218 C 0.35801 0.25747 0.61492 0.0
C3219 C 0.32414 0.23077 0.63991 0.0
N3220 N 0.37913 0.22504 0.60322 0.0
N3221 N 0.31023 0.26186 0.67083 0.0
H3222 H 0.30463 0.20215 0.63912 0.0
H3223 H 0.29132 0.22536 0.65416 0.0
H3224 H 0.31035 0.27823 0.67816 0.0
H3225 H 0.29934 0.25225 0.68435 0.0
H3226 H 0.39314 0.23409 0.59836 0.0
H3227 H 0.38173 0.20818 0.60298 0.0
H3228 H 0.38274 0.26449 0.5795 0.0
H3229 H 0.37033 0.28761 0.59654 0.0
C3230 C 0.02098 0.09491 0.85056 0.0
C3231 C 0.0342 0.0904 0.87883 0.0
C3232 C 0.00163 0.08317 0.91245 0.0
C3233 C 0.98852 0.09025 0.88535 0.0
N3234 N 0.98539 0.10517 0.82973 0.0
N3235 N 0.03747 0.08259 0.93776 0.0
C3236 C 0.9981 0.09669 0.85463 0.0
C3237 C 0.02464 0.085 0.91007 0.0
N3238 N 0.03028 0.09691 0.81964 0.0
N3239 N 0.99206 0.07439 0.94025 0.0
H3240 H 0.05438 0.0838 0.93702 0.0
H3241 H 0.03134 0.08105 0.96191 0.0
H3242 H 0.97524 0.0731 0.94298 0.0
H3243 H 0.00073 0.06677 0.95934 0.0
H3244 H 0.02136 0.09798 0.79757 0.0
H3245 H 0.04699 0.0955 0.81564 0.0
H3246 H 0.99166 0.11258 0.80836 0.0
H3247 H 0.9685 0.10628 0.83146 0.0
C3248 C 0.83231 0.74821 0.66363 0.0
C3249 C 0.83976 0.7344 0.63747 0.0
C3250 C 0.84992 0.76646 0.60412 0.0
C3251 C 0.84136 0.78025 0.62946 0.0
N3252 N 0.82103 0.78465 0.6805 0.0
N3253 N 0.85161 0.72999 0.58039 0.0
C3254 C 0.83149 0.77122 0.65838 0.0
C3255 C 0.84737 0.74343 0.60695 0.0
N3256 N 0.82684 0.73939 0.69392 0.0
N3257 N 0.86118 0.77534 0.57793 0.0
H3258 H 0.84986 0.71302 0.58152 0.0
H3259 H 0.85498 0.73572 0.55642 0.0
H3260 H 0.86314 0.79216 0.57464 0.0
H3261 H 0.87001 0.76606 0.56083 0.0
H3262 H 0.82361 0.74874 0.71511 0.0
H3263 H 0.82713 0.72261 0.69867 0.0
H3264 H 0.81153 0.77893 0.70019 0.0
H3265 H 0.82036 0.8016 0.67756 0.0
C3266 C 0.97789 0.1064 0.42175 0.0
C3267 C 0.96973 0.10295 0.38902 0.0
C3268 C 0.0065 0.10822 0.36678 0.0
C3269 C 0.01503 0.10707 0.39979 0.0
N3270 N 0.00622 0.12478 0.45188 0.0
N3271 N 0.97632 0.10108 0.32951 0.0
C3272 C 1.0002 0.11151 0.42612 0.0
C3273 C 0.98405 0.10401 0.36122 0.0
N3274 N 0.96442 0.10499 0.44878 0.0
N3275 N 0.01901 0.11672 0.34176 0.0
H3276 H 0.95987 0.09902 0.32408 0.0
H3277 H 0.9865 0.0992 0.30886 0.0
H3278 H 0.03434 0.12337 0.3465 0.0
H3279 H 0.01318 0.11996 0.3178 0.0
H3280 H 0.97021 0.10567 0.47328 0.0
H3281 H 0.9479 0.10129 0.44668 0.0
H3282 H 0.99546 0.12989 0.47046 0.0
H3283 H 0.02061 0.13382 0.45091 0.0
C3284 C 0.67128 0.25453 0.16175 0.0
C3285 C 0.66165 0.26838 0.13741 0.0
C3286 C 0.65072 0.23642 0.10443 0.0
C3287 C 0.66155 0.22265 0.12766 0.0
N3288 N 0.68533 0.21846 0.17512 0.0
N3289 N 0.64607 0.2731 0.08253 0.0
C3290 C 0.67281 0.23169 0.15536 0.0
C3291 C 0.65252 0.25949 0.1078 0.0
N3292 N 0.67821 0.26311 0.19149 0.0
N3293 N 0.63801 0.22746 0.07991 0.0
H3294 H 0.64716 0.29011 0.08406 0.0
H3295 H 0.64146 0.26755 0.05894 0.0
H3296 H 0.63634 0.21063 0.07643 0.0
H3297 H 0.62774 0.23664 0.06469 0.0
H3298 H 0.68314 0.25359 0.2117 0.0
H3299 H 0.67747 0.27978 0.197 0.0
H3300 H 0.69575 0.22435 0.19356 0.0
H3301 H 0.6867 0.20163 0.17122 0.0
C3302 C 0.51769 0.89599 0.86019 0.0
C3303 C 0.53186 0.89827 0.88798 0.0
C3304 C 0.50153 0.89005 0.92545 0.0
C3305 C 0.48672 0.89335 0.89872 0.0
N3306 N 0.4831 0.88185 0.84142 0.0
N3307 N 0.53711 0.89799 0.94784 0.0
C3308 C 0.49536 0.89138 0.86589 0.0
C3309 C 0.52372 0.89555 0.92087 0.0
N3310 N 0.52544 0.89822 0.82835 0.0
N3311 N 0.4957 0.87745 0.95207 0.0
H3312 H 0.55355 0.90195 0.94556 0.0
H3313 H 0.53128 0.89786 0.97234 0.0
H3314 H 0.48148 0.86812 0.95164 0.0
H3315 H 0.50649 0.87313 0.97108 0.0
H3316 H 0.51529 0.89915 0.80752 0.0
H3317 H 0.54184 0.90068 0.82294 0.0
H3318 H 0.48909 0.878 0.81777 0.0
H3319 H 0.46788 0.87506 0.84653 0.0
C3320 C 0.85196 0.25869 0.89451 0.0
C3321 C 0.84022 0.26793 0.86741 0.0
C3322 C 0.82784 0.23141 0.85029 0.0
C3323 C 0.84109 0.22208 0.87558 0.0
N3324 N 0.86734 0.22612 0.91996 0.0
N3325 N 0.81823 0.26367 0.81797 0.0
C3326 C 0.8535 0.23554 0.89735 0.0
C3327 C 0.82844 0.25444 0.8449 0.0
N3328 N 0.86143 0.27209 0.91774 0.0
N3329 N 0.8144 0.21823 0.83192 0.0
H3330 H 0.81757 0.28053 0.81402 0.0
H3331 H 0.81146 0.25469 0.79846 0.0
H3332 H 0.81388 0.20128 0.83491 0.0
H3333 H 0.80268 0.22407 0.81543 0.0
H3334 H 0.86802 0.26654 0.94015 0.0
H3335 H 0.86142 0.28911 0.9158 0.0
H3336 H 0.87877 0.23483 0.93379 0.0
H3337 H 0.86845 0.20925 0.92352 0.0
C3338 C 0.52321 0.102 0.5663 0.0
C3339 C 0.53372 0.08725 0.58842 0.0
C3340 C 0.49851 0.07035 0.6005 0.0
C3341 C 0.48797 0.0887 0.58598 0.0
N3342 N 0.49032 0.12189 0.55326 0.0
N3343 N 0.53124 0.04863 0.59932 0.0
C3344 C 0.50029 0.10438 0.56794 0.0
C3345 C 0.52149 0.06865 0.59822 0.0
N3346 N 0.53468 0.11125 0.54077 0.0
N3347 N 0.48673 0.0546 0.61653 0.0
H3348 H 0.54716 0.04643 0.59086 0.0
H3349 H 0.52275 0.03412 0.60348 0.0
H3350 H 0.46978 0.05474 0.61753 0.0
H3351 H 0.494 0.04215 0.63044 0.0
H3352 H 0.52748 0.12059 0.52198 0.0
H3353 H 0.55087 0.10701 0.53624 0.0
H3354 H 0.49899 0.13486 0.54283 0.0
H3355 H 0.47351 0.1242 0.55368 0.0
C3356 C 0.67089 0.748 0.33903 0.0
C3357 C 0.66172 0.73449 0.36421 0.0
C3358 C 0.65161 0.76682 0.39702 0.0
C3359 C 0.66147 0.78031 0.37242 0.0
N3360 N 0.68329 0.78423 0.32279 0.0
N3361 N 0.64645 0.73025 0.41934 0.0
C3362 C 0.67199 0.77102 0.34423 0.0
C3363 C 0.65302 0.74369 0.39391 0.0
N3364 N 0.67795 0.73884 0.30977 0.0
N3365 N 0.6403 0.77618 0.42279 0.0
H3366 H 0.64671 0.71322 0.41762 0.0
H3367 H 0.64223 0.73582 0.44306 0.0
H3368 H 0.63954 0.79305 0.42661 0.0
H3369 H 0.63052 0.7674 0.43925 0.0
H3370 H 0.68253 0.74787 0.28887 0.0
H3371 H 0.67799 0.72199 0.30554 0.0
H3372 H 0.69321 0.77839 0.30369 0.0
H3373 H 0.68405 0.80119 0.32557 0.0
C3374 C 0.97805 0.90252 0.08307 0.0
C3375 C 0.96912 0.90015 0.11554 0.0
C3376 C 0.00452 0.88775 0.13587 0.0
C3377 C 0.01434 0.89532 0.1059 0.0
N3378 N 0.00727 0.891 0.04703 0.0
N3379 N 0.97397 0.89018 0.17357 0.0
C3380 C 1.00035 0.89758 0.07784 0.0
C3381 C 0.9824 0.89273 0.14221 0.0
N3382 N 0.96534 0.90953 0.0572 0.0
N3383 N 0.01488 0.87247 0.15495 0.0
H3384 H 0.95765 0.89304 0.17921 0.0
H3385 H 0.98368 0.88683 0.19433 0.0
H3386 H 0.02931 0.86511 0.147 0.0
H3387 H 0.00767 0.86486 0.17548 0.0
H3388 H 0.97169 0.91344 0.03378 0.0
H3389 H 0.94885 0.9131 0.06002 0.0
H3390 H 0.99715 0.89041 0.02615 0.0
H3391 H 0.0221 0.88294 0.04386 0.0
C3392 C 0.65125 0.75101 0.83467 0.0
C3393 C 0.6609 0.76505 0.85874 0.0
C3394 C 0.6724 0.73317 0.89143 0.0
C3395 C 0.66026 0.71941 0.86982 0.0
N3396 N 0.63549 0.71545 0.82334 0.0
N3397 N 0.67776 0.76982 0.91281 0.0
C3398 C 0.64904 0.72835 0.84195 0.0
C3399 C 0.6708 0.75623 0.88784 0.0
N3400 N 0.64463 0.75927 0.80457 0.0
N3401 N 0.68581 0.72416 0.91497 0.0
H3402 H 0.6766 0.78682 0.91147 0.0
H3403 H 0.68288 0.7642 0.93611 0.0
H3404 H 0.68755 0.70729 0.91806 0.0
H3405 H 0.69673 0.7333 0.92916 0.0
H3406 H 0.63953 0.74948 0.78473 0.0
H3407 H 0.64615 0.77577 0.79829 0.0
H3408 H 0.62505 0.7216 0.80511 0.0
H3409 H 0.63328 0.6988 0.82793 0.0
C3410 C 0.49195 0.41029 0.14425 0.0
C3411 C 0.48354 0.40817 0.11133 0.0
C3412 C 0.52052 0.40549 0.08863 0.0
C3413 C 0.52894 0.40813 0.12145 0.0
N3414 N 0.52343 0.41565 0.18002 0.0
N3415 N 0.48911 0.40637 0.05175 0.0
C3416 C 0.51485 0.41135 0.14913 0.0
C3417 C 0.49765 0.40658 0.08335 0.0
N3418 N 0.47797 0.41071 0.17087 0.0
N3419 N 0.53445 0.40142 0.06267 0.0
H3420 H 0.47243 0.40626 0.04701 0.0
H3421 H 0.49836 0.40762 0.03007 0.0
H3422 H 0.55132 0.40159 0.0653 0.0
H3423 H 0.52946 0.39677 0.03886 0.0
H3424 H 0.48287 0.40959 0.1957 0.0
H3425 H 0.4611 0.41102 0.1682 0.0
H3426 H 0.51428 0.42057 0.20055 0.0
H3427 H 0.5401 0.41561 0.18487 0.0
C3428 C 0.85004 0.25131 0.33311 0.0
C3429 C 0.83971 0.23736 0.35661 0.0
C3430 C 0.82708 0.26937 0.38804 0.0
C3431 C 0.83978 0.28308 0.36713 0.0
N3432 N 0.86592 0.28691 0.32244 0.0
N3433 N 0.82109 0.23277 0.4093 0.0
C3434 C 0.85188 0.27404 0.34022 0.0
C3435 C 0.82884 0.24629 0.3848 0.0
N3436 N 0.85768 0.24291 0.30369 0.0
N3437 N 0.813 0.27846 0.41056 0.0
H3438 H 0.82225 0.21577 0.40813 0.0
H3439 H 0.81521 0.23845 0.43213 0.0
H3440 H 0.81116 0.29533 0.41338 0.0
H3441 H 0.80172 0.26936 0.42412 0.0
H3442 H 0.86334 0.25259 0.28411 0.0
H3443 H 0.85651 0.22635 0.29758 0.0
H3444 H 0.87695 0.28072 0.30509 0.0
H3445 H 0.86788 0.3036 0.32693 0.0
C3446 C 0.98312 0.6012 0.65258 0.0
C3447 C 0.97004 0.59298 0.62617 0.0
C3448 C 0.0027 0.58352 0.59406 0.0
C3449 C 0.01564 0.59367 0.61902 0.0
N3450 N 0.01864 0.61381 0.67066 0.0
N3451 N 0.96667 0.57797 0.57069 0.0
C3452 C 0.00598 0.60291 0.64799 0.0
C3453 C 0.97964 0.58446 0.59665 0.0
N3454 N 0.97365 0.60694 0.68228 0.0
N3455 N 0.01251 0.57274 0.56816 0.0
H3456 H 0.94973 0.5779 0.57207 0.0
H3457 H 0.97252 0.57395 0.54706 0.0
H3458 H 0.02934 0.57226 0.56498 0.0
H3459 H 0.00418 0.56298 0.55112 0.0
H3460 H 0.98239 0.61084 0.70375 0.0
H3461 H 0.95691 0.6062 0.68636 0.0
H3462 H 0.0124 0.62315 0.6902 0.0
H3463 H 0.03553 0.61472 0.66879 0.0
C3464 C 0.67264 0.24757 0.61913 0.0
C3465 C 0.65881 0.23873 0.64413 0.0
C3466 C 0.64471 0.27536 0.65655 0.0
C3467 C 0.65942 0.28434 0.63285 0.0
N3468 N 0.69046 0.27979 0.59674 0.0
N3469 N 0.63501 0.2443 0.69124 0.0
C3470 C 0.67435 0.27065 0.61572 0.0
C3471 C 0.64587 0.25269 0.66431 0.0
N3472 N 0.68342 0.23391 0.59771 0.0
N3473 N 0.62898 0.28828 0.6705 0.0
H3474 H 0.63548 0.22774 0.6976 0.0
H3475 H 0.62715 0.25396 0.70895 0.0
H3476 H 0.62751 0.30497 0.66549 0.0
H3477 H 0.61629 0.28217 0.68498 0.0
H3478 H 0.69173 0.23938 0.57662 0.0
H3479 H 0.68266 0.2169 0.5994 0.0
H3480 H 0.70318 0.27081 0.5864 0.0
H3481 H 0.69225 0.29666 0.59385 0.0
C3482 C 0.00467 0.41687 0.86409 0.0
C3483 C 0.0137 0.41071 0.89537 0.0
C3484 C 0.97721 0.40393 0.91792 0.0
C3485 C 0.96818 0.41069 0.88693 0.0
N3486 N 0.97249 0.4269 0.83241 0.0
N3487 N 0.00913 0.40139 0.95351 0.0
C3488 C 0.9817 0.41817 0.86056 0.0
C3489 C 1.0001 0.40521 0.92279 0.0
N3490 N 0.0181 0.42092 0.83753 0.0
N3491 N 0.96391 0.39557 0.94218 0.0
H3492 H 0.02587 0.4014 0.9577 0.0
H3493 H 1.00012 0.39964 0.97537 0.0
H3494 H 0.94703 0.39499 0.93982 0.0
H3495 H 0.96954 0.38801 0.96383 0.0
H3496 H 0.01265 0.42285 0.81306 0.0
H3497 H 0.03501 0.42111 0.8395 0.0
H3498 H 0.98127 0.43475 0.8137 0.0
H3499 H 0.95571 0.4278 0.8288 0.0
C3500 C 0.85187 0.75167 0.16688 0.0
C3501 C 0.83974 0.76544 0.14525 0.0
C3502 C 0.82634 0.73329 0.11488 0.0
C3503 C 0.8406 0.71985 0.13374 0.0
N3504 N 0.86902 0.71636 0.17504 0.0
N3505 N 0.81756 0.76989 0.09591 0.0
C3506 C 0.85386 0.72903 0.15921 0.0
C3507 C 0.82743 0.75639 0.11858 0.0
N3508 N 0.86116 0.7602 0.19509 0.0
N3509 N 0.81146 0.7239 0.09392 0.0
H3510 H 0.81793 0.78691 0.09773 0.0
H3511 H 0.81049 0.76431 0.07384 0.0
H3512 H 0.81017 0.707 0.0907 0.0
H3513 H 0.79913 0.73265 0.0821 0.0
H3514 H 0.8683 0.75065 0.21364 0.0
H3515 H 0.86003 0.77673 0.20145 0.0
H3516 H 0.88081 0.72266 0.19106 0.0
H3517 H 0.87099 0.6997 0.17022 0.0
C3518 C 0.52302 0.58998 0.41446 0.0
C3519 C 0.53208 0.59247 0.38209 0.0
C3520 C 0.49557 0.59299 0.35749 0.0
C3521 C 0.48649 0.59293 0.39013 0.0
N3522 N 0.49131 0.5941 0.44999 0.0
N3523 N 0.52746 0.59862 0.32293 0.0
C3524 C 0.50014 0.59202 0.41875 0.0
C3525 C 0.51848 0.59458 0.3536 0.0
N3526 N 0.53629 0.58549 0.44103 0.0
N3527 N 0.48229 0.5908 0.33025 0.0
H3528 H 0.54421 0.59902 0.31878 0.0
H3529 H 0.51839 0.60302 0.302 0.0
H3530 H 0.46543 0.58939 0.33212 0.0
H3531 H 0.48803 0.58843 0.30602 0.0
H3532 H 0.53053 0.58108 0.46457 0.0
H3533 H 0.55317 0.58448 0.43891 0.0
H3534 H 0.50054 0.59594 0.47163 0.0
H3535 H 0.47466 0.59577 0.45417 0.0
C3536 C 0.33341 0.27312 0.16637 0.0
C3537 C 0.33501 0.28185 0.13358 0.0
C3538 C 0.33301 0.24486 0.10998 0.0
C3539 C 0.33423 0.2361 0.14276 0.0
N3540 N 0.3371 0.24135 0.20234 0.0
N3541 N 0.33869 0.27627 0.07407 0.0
C3542 C 0.33471 0.25009 0.17107 0.0
C3543 C 0.33523 0.2678 0.10529 0.0
N3544 N 0.33021 0.28689 0.19287 0.0
N3545 N 0.32953 0.23122 0.0834 0.0
H3546 H 0.34038 0.29297 0.06947 0.0
H3547 H 0.34156 0.26668 0.05301 0.0
H3548 H 0.32826 0.21427 0.08586 0.0
H3549 H 0.32609 0.23677 0.05936 0.0
H3550 H 0.32677 0.28152 0.217 0.0
H3551 H 0.32913 0.30385 0.1902 0.0
H3552 H 0.34015 0.25067 0.22361 0.0
H3553 H 0.33742 0.22453 0.20681 0.0
C3554 C 0.48396 0.60545 0.85895 0.0
C3555 C 0.47021 0.60058 0.88636 0.0
C3556 C 0.50118 0.60522 0.92426 0.0
C3557 C 0.51545 0.6054 0.89629 0.0
N3558 N 0.51642 0.62485 0.84388 0.0
N3559 N 0.46552 0.59614 0.9459 0.0
C3560 C 0.50597 0.61086 0.86502 0.0
C3561 C 0.47875 0.60051 0.91931 0.0
N3562 N 0.47609 0.60503 0.82702 0.0
N3563 N 0.50807 0.61352 0.9541 0.0
H3564 H 0.44888 0.5933 0.94337 0.0
H3565 H 0.47147 0.59374 0.97004 0.0
H3566 H 0.52308 0.62136 0.95639 0.0
H3567 H 0.49788 0.6157 0.97465 0.0
H3568 H 0.48617 0.60673 0.8062 0.0
H3569 H 0.45998 0.60112 0.8214 0.0
H3570 H 0.50935 0.63088 0.82205 0.0
H3571 H 0.53063 0.63295 0.85105 0.0
C3572 C 0.1706 0.73077 0.66132 0.0
C3573 C 0.16917 0.72183 0.62863 0.0
C3574 C 0.16791 0.75869 0.60449 0.0
C3575 C 0.16954 0.76766 0.63716 0.0
N3576 N 0.17681 0.76287 0.69589 0.0
N3577 N 0.17089 0.72673 0.56883 0.0
C3578 C 0.17223 0.75385 0.66539 0.0
C3579 C 0.16938 0.73565 0.60011 0.0
N3580 N 0.16989 0.71717 0.68846 0.0
N3581 N 0.16373 0.7721 0.57785 0.0
H3582 H 0.17097 0.70991 0.56445 0.0
H3583 H 0.17376 0.7359 0.54735 0.0
H3584 H 0.16248 0.78906 0.5799 0.0
H3585 H 0.15984 0.7664 0.55406 0.0
H3586 H 0.16813 0.72264 0.71296 0.0
H3587 H 0.17001 0.70015 0.68638 0.0
H3588 H 0.18101 0.75377 0.71691 0.0
H3589 H 0.17815 0.77972 0.69963 0.0
C3590 C 0.01758 0.39131 0.35892 0.0
C3591 C 0.03089 0.39898 0.3854 0.0
C3592 C 0.99974 0.39667 0.42326 0.0
C3593 C 0.98569 0.39437 0.3953 0.0
N3594 N 0.98477 0.37146 0.34633 0.0
N3595 N 0.0347 0.40888 0.44356 0.0
C3596 C 0.9954 0.38659 0.36536 0.0
C3597 C 0.022 0.40161 0.41786 0.0
N3598 N 0.02602 0.38836 0.32765 0.0
N3599 N 0.99294 0.39008 0.45411 0.0
H3600 H 0.05118 0.41252 0.44065 0.0
H3601 H 0.02834 0.41292 0.46694 0.0
H3602 H 0.97816 0.38192 0.45736 0.0
H3603 H 0.00314 0.38953 0.47491 0.0
H3604 H 0.01632 0.38489 0.30693 0.0
H3605 H 0.04238 0.39092 0.322 0.0
H3606 H 0.99184 0.36366 0.32586 0.0
H3607 H 0.97017 0.36444 0.35423 0.0
C3608 C 0.33032 0.72862 0.33274 0.0
C3609 C 0.32601 0.71967 0.36483 0.0
C3610 C 0.32178 0.75655 0.38731 0.0
C3611 C 0.3308 0.76532 0.35754 0.0
N3612 N 0.34198 0.75994 0.30019 0.0
N3613 N 0.29959 0.72714 0.40772 0.0
C3614 C 0.33442 0.75145 0.32956 0.0
C3615 C 0.31659 0.73401 0.38859 0.0
N3616 N 0.32763 0.71579 0.30511 0.0
N3617 N 0.31833 0.76953 0.41458 0.0
H3618 H 0.29189 0.71223 0.40299 0.0
H3619 H 0.29102 0.73755 0.42363 0.0
H3620 H 0.32206 0.78618 0.41497 0.0
H3621 H 0.31341 0.76316 0.43758 0.0
H3622 H 0.32852 0.72166 0.28071 0.0
H3623 H 0.3218 0.69978 0.307 0.0
H3624 H 0.34735 0.75025 0.28041 0.0
H3625 H 0.34402 0.77669 0.29623 0.0
C3626 C 0.99868 0.57584 0.09833 0.0
C3627 C 0.98574 0.59422 0.10706 0.0
C3628 C 0.01801 0.61287 0.12891 0.0
C3629 C 0.03126 0.59561 0.11674 0.0
N3630 N 0.03467 0.5623 0.08478 0.0
N3631 N 0.98376 0.63207 0.12423 0.0
C3632 C 0.02173 0.57751 0.1 0.0
C3633 C 0.99559 0.61328 0.12056 0.0
N3634 N 0.98898 0.55654 0.0896 0.0
N3635 N 0.02668 0.62853 0.14938 0.0
H3636 H 0.96741 0.63328 0.11754 0.0
H3637 H 0.99069 0.64703 0.13073 0.0
H3638 H 0.04298 0.62862 0.15663 0.0
H3639 H 0.01728 0.64016 0.1618 0.0
H3640 H 0.99754 0.54199 0.08635 0.0
H3641 H 0.97215 0.55456 0.0886 0.0
H3642 H 0.02864 0.55007 0.06919 0.0
H3643 H 0.05161 0.56303 0.08533 0.0
C3644 C 0.16883 0.2487 0.83798 0.0
C3645 C 0.1597 0.23489 0.86281 0.0
C3646 C 0.14796 0.26689 0.89507 0.0
C3647 C 0.1581 0.2807 0.87115 0.0
N3648 N 0.1809 0.2852 0.82268 0.0
N3649 N 0.1438 0.23024 0.91745 0.0
C3650 C 0.16936 0.27172 0.8434 0.0
C3651 C 0.15022 0.24383 0.89212 0.0
N3652 N 0.17638 0.23982 0.80881 0.0
N3653 N 0.13554 0.27585 0.91995 0.0
H3654 H 0.14483 0.21322 0.91595 0.0
H3655 H 0.13903 0.23576 0.94096 0.0
H3656 H 0.13383 0.29268 0.92338 0.0
H3657 H 0.12566 0.26669 0.93576 0.0
H3658 H 0.18099 0.24908 0.78815 0.0
H3659 H 0.17669 0.22301 0.80433 0.0
H3660 H 0.19133 0.27958 0.80407 0.0
H3661 H 0.18135 0.30216 0.8257 0.0
C3662 C 0.4847 0.3984 0.64302 0.0
C3663 C 0.47063 0.40147 0.61536 0.0
C3664 C 0.50128 0.39496 0.57755 0.0
C3665 C 0.51584 0.3969 0.60499 0.0
N3666 N 0.51816 0.38146 0.6603 0.0
N3667 N 0.46537 0.40236 0.55554 0.0
C3668 C 0.50683 0.39328 0.63719 0.0
C3669 C 0.47887 0.39975 0.58234 0.0
N3670 N 0.47706 0.40044 0.67493 0.0
N3671 N 0.50781 0.38441 0.54923 0.0
H3672 H 0.44871 0.40516 0.558 0.0
H3673 H 0.47112 0.40335 0.53105 0.0
H3674 H 0.52264 0.37613 0.54817 0.0
H3675 H 0.49737 0.3808 0.52944 0.0
H3676 H 0.4873 0.40024 0.69572 0.0
H3677 H 0.46089 0.40421 0.68034 0.0
H3678 H 0.51156 0.37659 0.68313 0.0
H3679 H 0.53287 0.37387 0.65435 0.0
C3680 C 0.18348 0.09906 0.60936 0.0
C3681 C 0.17522 0.08004 0.59348 0.0
C3682 C 0.17247 0.0616 0.64778 0.0
C3683 C 0.17715 0.08176 0.66383 0.0
N3684 N 0.18615 0.12018 0.66043 0.0
N3685 N 0.16241 0.04286 0.59644 0.0
C3686 C 0.18283 0.10054 0.6448 0.0
C3687 C 0.17012 0.06108 0.61238 0.0
N3688 N 0.19171 0.11578 0.59051 0.0
N3689 N 0.17046 0.043 0.66654 0.0
H3690 H 0.16163 0.04162 0.57043 0.0
H3691 H 0.15596 0.02935 0.60878 0.0
H3692 H 0.17226 0.04299 0.69249 0.0
H3693 H 0.16883 0.0274 0.65643 0.0
H3694 H 0.20021 0.12896 0.60057 0.0
H3695 H 0.19172 0.11563 0.56444 0.0
H3696 H 0.18769 0.13498 0.64777 0.0
H3697 H 0.18587 0.1221 0.68632 0.0
C3698 C 0.1698 0.93742 0.85378 0.0
C3699 C 0.16386 0.91793 0.83681 0.0
C3700 C 0.1545 0.90045 0.89002 0.0
C3701 C 0.16182 0.9194 0.90721 0.0
N3702 N 0.17914 0.95476 0.90654 0.0
N3703 N 0.15385 0.87976 0.83832 0.0
C3704 C 0.17026 0.93759 0.88938 0.0
C3705 C 0.15723 0.89908 0.85484 0.0
N3706 N 0.17443 0.95588 0.83583 0.0
N3707 N 0.14409 0.88414 0.90717 0.0
H3708 H 0.15516 0.8782 0.81243 0.0
H3709 H 0.15142 0.86487 0.85039 0.0
H3710 H 0.14179 0.88443 0.933 0.0
H3711 H 0.13614 0.87115 0.89559 0.0
H3712 H 0.17646 0.97127 0.84656 0.0
H3713 H 0.17485 0.95612 0.80974 0.0
H3714 H 0.18754 0.96752 0.89516 0.0
H3715 H 0.17952 0.95544 0.93261 0.0
C3716 C 0.32647 0.9429 0.10906 0.0
C3717 C 0.31853 0.92491 0.09025 0.0
C3718 C 0.31051 0.90531 0.1419 0.0
C3719 C 0.32298 0.92084 0.16001 0.0
N3720 N 0.3406 0.95612 0.16205 0.0
N3721 N 0.28714 0.90155 0.0941 0.0
C3722 C 0.33001 0.94038 0.14406 0.0
C3723 C 0.30589 0.90931 0.10776 0.0
N3724 N 0.32872 0.96272 0.09377 0.0
N3725 N 0.30337 0.88654 0.15681 0.0
H3726 H 0.28047 0.90878 0.07279 0.0
H3727 H 0.27656 0.89119 0.10692 0.0
H3728 H 0.30632 0.88284 0.18187 0.0
H3729 H 0.29588 0.87401 0.14333 0.0
H3730 H 0.33275 0.97708 0.10631 0.0
H3731 H 0.32417 0.965 0.06883 0.0
H3732 H 0.34828 0.96953 0.15118 0.0
H3733 H 0.3425 0.95524 0.18795 0.0
C3734 C 0.30834 0.08914 0.39381 0.0
C3735 C 0.32222 0.07462 0.41128 0.0
C3736 C 0.33489 0.06022 0.35739 0.0
C3737 C 0.32624 0.07912 0.34149 0.0
N3738 N 0.304 0.11175 0.3449 0.0
N3739 N 0.33557 0.03781 0.40764 0.0
C3740 C 0.31261 0.09357 0.3597 0.0
C3741 C 0.33164 0.05739 0.3924 0.0
N3742 N 0.289 0.09526 0.40745 0.0
N3743 N 0.34668 0.04542 0.33931 0.0
H3744 H 0.33122 0.03511 0.43256 0.0
H3745 H 0.34084 0.02387 0.39509 0.0
H3746 H 0.34842 0.04645 0.3134 0.0
H3747 H 0.35549 0.0327 0.35011 0.0
H3748 H 0.27763 0.10477 0.39466 0.0
H3749 H 0.28289 0.08742 0.42865 0.0
H3750 H 0.29555 0.1236 0.35846 0.0
H3751 H 0.30665 0.11576 0.31988 0.0
C3752 C 0.84347 0.93719 0.35794 0.0
C3753 C 0.83066 0.92114 0.34161 0.0
C3754 C 0.8165 0.90885 0.39572 0.0
C3755 C 0.83218 0.9221 0.41198 0.0
N3756 N 0.86121 0.94859 0.40921 0.0
N3757 N 0.80548 0.89088 0.34444 0.0
C3758 C 0.84563 0.93648 0.39332 0.0
C3759 C 0.817 0.90695 0.36031 0.0
N3760 N 0.85345 0.95312 0.3395 0.0
N3761 N 0.80114 0.89817 0.41424 0.0
H3762 H 0.80521 0.88905 0.31851 0.0
H3763 H 0.79729 0.87844 0.357 0.0
H3764 H 0.80046 0.89929 0.44027 0.0
H3765 H 0.78795 0.88995 0.4038 0.0
H3766 H 0.86141 0.96649 0.35002 0.0
H3767 H 0.85204 0.95402 0.31353 0.0
H3768 H 0.8732 0.95738 0.39668 0.0
H3769 H 0.86303 0.94883 0.43514 0.0
C3770 C 0.84594 0.1054 0.1082 0.0
C3771 C 0.84045 0.08608 0.09038 0.0
C3772 C 0.83387 0.06678 0.14326 0.0
C3773 C 0.83833 0.08643 0.16089 0.0
N3774 N 0.84402 0.1255 0.16032 0.0
N3775 N 0.82568 0.04957 0.08993 0.0
C3776 C 0.84298 0.10607 0.14337 0.0
C3777 C 0.83333 0.0671 0.10764 0.0
N3778 N 0.8548 0.12283 0.09165 0.0
N3779 N 0.83092 0.04771 0.16054 0.0
H3780 H 0.82523 0.04928 0.06385 0.0
H3781 H 0.81821 0.03608 0.10091 0.0
H3782 H 0.83096 0.04696 0.1866 0.0
H3783 H 0.82991 0.03241 0.14921 0.0
H3784 H 0.86162 0.13629 0.10372 0.0
H3785 H 0.85691 0.12317 0.06581 0.0
H3786 H 0.84504 0.14066 0.14854 0.0
H3787 H 0.84187 0.12672 0.18613 0.0
C3788 C 0.68218 0.09532 0.85709 0.0
C3789 C 0.66763 0.08194 0.83858 0.0
C3790 C 0.653 0.06651 0.89045 0.0
C3791 C 0.66727 0.08018 0.90894 0.0
N3792 N 0.69914 0.10298 0.91067 0.0
N3793 N 0.64353 0.05094 0.83651 0.0
C3794 C 0.68315 0.09303 0.89243 0.0
C3795 C 0.65448 0.0662 0.85498 0.0
N3796 N 0.69416 0.11101 0.84113 0.0
N3797 N 0.63736 0.05469 0.9067 0.0
H3798 H 0.64439 0.05036 0.81045 0.0
H3799 H 0.63527 0.03773 0.84695 0.0
H3800 H 0.63613 0.05407 0.9327 0.0
H3801 H 0.62483 0.04649 0.89449 0.0
H3802 H 0.70309 0.12296 0.85362 0.0
H3803 H 0.69413 0.11304 0.81524 0.0
H3804 H 0.71245 0.11084 0.89998 0.0
H3805 H 0.70015 0.10158 0.93664 0.0
C3806 C 0.65133 0.8975 0.60803 0.0
C3807 C 0.66234 0.91415 0.59004 0.0
C3808 C 0.67256 0.93191 0.64277 0.0
C3809 C 0.6632 0.91419 0.66066 0.0
N3810 N 0.64815 0.87766 0.66013 0.0
N3811 N 0.68664 0.9451 0.58979 0.0
C3812 C 0.65388 0.89625 0.64323 0.0
C3813 C 0.67393 0.93076 0.60728 0.0
N3814 N 0.63776 0.88334 0.59169 0.0
N3815 N 0.67935 0.95017 0.65953 0.0
H3816 H 0.68799 0.9447 0.56379 0.0
H3817 H 0.69725 0.95611 0.60116 0.0
H3818 H 0.67841 0.95168 0.68547 0.0
H3819 H 0.68417 0.96452 0.64759 0.0
H3820 H 0.62745 0.87251 0.60408 0.0
H3821 H 0.63526 0.88375 0.5659 0.0
H3822 H 0.64335 0.86329 0.64821 0.0
H3823 H 0.65026 0.8758 0.68586 0.0
C3824 C 0.69358 0.59295 0.10995 0.0
C3825 C 0.68128 0.57696 0.09277 0.0
C3826 C 0.67112 0.56109 0.14691 0.0
C3827 C 0.67739 0.58102 0.16262 0.0
N3828 N 0.69517 0.61634 0.15827 0.0
N3829 N 0.67351 0.5386 0.09692 0.0
C3830 C 0.68902 0.597 0.14405 0.0
C3831 C 0.67441 0.55865 0.11183 0.0
N3832 N 0.71191 0.60134 0.09581 0.0
N3833 N 0.66174 0.54478 0.16527 0.0
H3834 H 0.67848 0.53637 0.07217 0.0
H3835 H 0.67028 0.52414 0.1097 0.0
H3836 H 0.66049 0.5454 0.19127 0.0
H3837 H 0.65449 0.53104 0.15462 0.0
H3838 H 0.72241 0.61183 0.10859 0.0
H3839 H 0.71818 0.59488 0.07364 0.0
H3840 H 0.70212 0.62896 0.14432 0.0
H3841 H 0.69174 0.62044 0.18302 0.0
C3842 C 0.67189 0.44393 0.39045 0.0
C3843 C 0.6736 0.42425 0.40908 0.0
C3844 C 0.67932 0.40321 0.35748 0.0
C3845 C 0.67542 0.42258 0.33874 0.0
N3846 N 0.66853 0.4613 0.33594 0.0
N3847 N 0.68198 0.38572 0.41197 0.0
C3848 C 0.67218 0.44301 0.35487 0.0
C3849 C 0.67849 0.40407 0.39305 0.0
N3850 N 0.67038 0.46346 0.40704 0.0
N3851 N 0.68247 0.3838 0.341 0.0
H3852 H 0.68019 0.38536 0.43787 0.0
H3853 H 0.68745 0.37084 0.40265 0.0
H3854 H 0.68352 0.38262 0.31504 0.0
H3855 H 0.68357 0.36859 0.35244 0.0
H3856 H 0.67063 0.4787 0.39549 0.0
H3857 H 0.67037 0.46454 0.43309 0.0
H3858 H 0.66365 0.47633 0.34555 0.0
H3859 H 0.66975 0.46129 0.30991 0.0
C3860 C 0.82655 0.43576 0.64615 0.0
C3861 C 0.83324 0.41639 0.66285 0.0
C3862 C 0.84347 0.39973 0.60934 0.0
C3863 C 0.83569 0.4186 0.59244 0.0
N3864 N 0.81727 0.45336 0.59351 0.0
N3865 N 0.8449 0.37871 0.66064 0.0
C3866 C 0.82647 0.4363 0.61052 0.0
C3867 C 0.84068 0.39797 0.64448 0.0
N3868 N 0.82073 0.45374 0.66443 0.0
N3869 N 0.85441 0.38388 0.59193 0.0
H3870 H 0.84379 0.37692 0.6865 0.0
H3871 H 0.8479 0.364 0.64835 0.0
H3872 H 0.85663 0.38435 0.56609 0.0
H3873 H 0.8628 0.37108 0.60326 0.0
H3874 H 0.81809 0.46915 0.6541 0.0
H3875 H 0.81973 0.45358 0.69047 0.0
H3876 H 0.80837 0.46578 0.60489 0.0
H3877 H 0.81721 0.45431 0.56746 0.0
C3878 C 0.82787 0.55726 0.89021 0.0
C3879 C 0.82024 0.57529 0.90922 0.0
C3880 C 0.81024 0.59418 0.85772 0.0
C3881 C 0.82289 0.57897 0.83921 0.0
N3882 N 0.84151 0.54418 0.83696 0.0
N3883 N 0.78834 0.59803 0.90725 0.0
C3884 C 0.83083 0.55976 0.85512 0.0
C3885 C 0.80666 0.59032 0.89219 0.0
N3886 N 0.82954 0.53722 0.90501 0.0
N3887 N 0.80225 0.61267 0.84302 0.0
H3888 H 0.78317 0.59185 0.93027 0.0
H3889 H 0.77696 0.60776 0.89489 0.0
H3890 H 0.80464 0.61642 0.81785 0.0
H3891 H 0.79465 0.62501 0.85673 0.0
H3892 H 0.83319 0.52291 0.89202 0.0
H3893 H 0.82458 0.53474 0.9297 0.0
H3894 H 0.84985 0.53117 0.84791 0.0
H3895 H 0.84283 0.54484 0.81097 0.0
C3896 C 0.31949 0.4048 0.85722 0.0
C3897 C 0.3305 0.42135 0.83889 0.0
C3898 C 0.34275 0.43825 0.89122 0.0
C3899 C 0.33134 0.42196 0.90946 0.0
N3900 N 0.30388 0.39387 0.9103 0.0
N3901 N 0.34749 0.45687 0.83813 0.0
C3902 C 0.31801 0.40663 0.89253 0.0
C3903 C 0.34044 0.43912 0.85586 0.0
N3904 N 0.31166 0.38664 0.8413 0.0
N3905 N 0.3567 0.45211 0.90735 0.0
H3906 H 0.34579 0.45803 0.81222 0.0
H3907 H 0.35303 0.47122 0.84932 0.0
H3908 H 0.35892 0.45202 0.93319 0.0
H3909 H 0.36729 0.46262 0.89488 0.0
H3910 H 0.30572 0.373 0.85397 0.0
H3911 H 0.31276 0.38427 0.81554 0.0
H3912 H 0.29223 0.3839 0.89908 0.0
H3913 H 0.30233 0.395 0.93624 0.0
C3914 C 0.32099 0.5975 0.64319 0.0
C3915 C 0.33214 0.58142 0.66227 0.0
C3916 C 0.34531 0.56408 0.6108 0.0
C3917 C 0.33405 0.58011 0.59183 0.0
N3918 N 0.3064 0.60793 0.58914 0.0
N3919 N 0.34992 0.54633 0.66464 0.0
C3920 C 0.32025 0.59542 0.60784 0.0
C3921 C 0.34266 0.56365 0.64613 0.0
N3922 N 0.31227 0.61547 0.65854 0.0
N3923 N 0.35935 0.55001 0.59531 0.0
H3924 H 0.34803 0.54553 0.69055 0.0
H3925 H 0.35588 0.53193 0.65412 0.0
H3926 H 0.3615 0.54962 0.56944 0.0
H3927 H 0.36991 0.5397 0.60819 0.0
H3928 H 0.30619 0.6289 0.64549 0.0
H3929 H 0.31262 0.61787 0.68433 0.0
H3930 H 0.29439 0.61784 0.59953 0.0
H3931 H 0.3055 0.60669 0.56315 0.0
C3932 C 0.16757 0.56791 0.39344 0.0
C3933 C 0.16119 0.58702 0.41106 0.0
C3934 C 0.15896 0.60735 0.35836 0.0
C3935 C 0.16281 0.58766 0.34051 0.0
N3936 N 0.16855 0.54863 0.34037 0.0
N3937 N 0.14762 0.6241 0.41032 0.0
C3938 C 0.16663 0.56776 0.35785 0.0
C3939 C 0.15608 0.60655 0.39354 0.0
N3940 N 0.17495 0.55011 0.41074 0.0
N3941 N 0.15863 0.62692 0.34176 0.0
H3942 H 0.14539 0.62428 0.43614 0.0
H3943 H 0.14113 0.63777 0.39841 0.0
H3944 H 0.16087 0.62825 0.31598 0.0
H3945 H 0.15818 0.64201 0.35385 0.0
H3946 H 0.18193 0.53648 0.39936 0.0
H3947 H 0.17575 0.54969 0.4368 0.0
H3948 H 0.16896 0.53328 0.35163 0.0
H3949 H 0.16812 0.54795 0.31432 0.0
C3950 C 0.15844 0.43617 0.14645 0.0
C3951 C 0.16928 0.41865 0.16269 0.0
C3952 C 0.18144 0.40472 0.10836 0.0
C3953 C 0.16746 0.41982 0.09222 0.0
N3954 N 0.14134 0.44924 0.09563 0.0
N3955 N 0.18948 0.38478 0.15912 0.0
C3956 C 0.15579 0.43559 0.11113 0.0
C3957 C 0.18062 0.40265 0.1437 0.0
N3958 N 0.15089 0.45342 0.16483 0.0
N3959 N 0.19555 0.39243 0.08981 0.0
H3960 H 0.18902 0.38236 0.18491 0.0
H3961 H 0.19572 0.37142 0.14611 0.0
H3962 H 0.19656 0.39369 0.06382 0.0
H3963 H 0.20766 0.3827 0.10033 0.0
H3964 H 0.1446 0.46762 0.15421 0.0
H3965 H 0.15282 0.45438 0.19072 0.0
H3966 H 0.13055 0.4593 0.10852 0.0
H3967 H 0.13902 0.44945 0.0698 0.0
loop_
_geom_bond_atom_site_label_1
_geom_bond_atom_site_label_2
_geom_bond_distance
_geom_bond_site_symmetry_2
_ccdc_geom_bond_type
Li0 N17 1.990 . S
Li0 O60 1.956 . S
Li0 O61 1.970 . S
Li0 O62 1.961 . S
Li1 N25 1.990 . S
Li1 O60 1.970 . S
Li1 O61 1.956 . S
Li1 O63 1.961 . S
Li2 N47 1.990 . S
Li2 O60 1.961 . S
Li2 O62 1.956 . S
Li2 O63 1.970 . S
Li3 N53 1.990 . S
Li3 O61 1.961 . S
Li3 O62 1.970 . S
Li3 O63 1.956 . S
C4 C6 1.348 . S
C4 C7 1.356 . S
C4 O60 1.325 . S
N5 C8 1.314 . S
N5 C9 1.279 . S
C6 C4 1.348 . S
C6 C8 1.353 . S
C6 H64 0.929 . S
C7 C4 1.356 . S
C7 C9 1.358 . S
C7 H65 0.930 . S
C8 N5 1.314 . S
C8 C6 1.353 . S
C8 H66 0.930 . S
C9 N5 1.279 . S
C9 C7 1.358 . S
C9 H67 0.930 . S
C10 C13 1.348 . S
C10 C14 1.356 . S
C10 O61 1.325 . S
C11 N12 1.279 . S
C11 C14 1.358 . S
C11 H68 0.930 . S
N12 C11 1.279 . S
N12 C15 1.314 . S
C13 C10 1.348 . S
C13 C15 1.353 . S
C13 H69 0.929 . S
C14 C10 1.356 . S
C14 C11 1.358 . S
C14 H70 0.930 . S
C15 N12 1.314 . S
C15 C13 1.353 . S
C15 H71 0.930 . S
C16 N17 1.314 . S
C16 C21 1.353 . S
C16 H22 0.930 . S
N17 Li0 1.990 . S
N17 C16 1.314 . S
N17 C19 1.279 . S
C18 C19 1.358 . S
C18 C20 1.356 . S
C18 H72 0.930 . S
C19 N17 1.279 . S
C19 C18 1.358 . S
C19 H23 0.930 . S
C20 C18 1.356 . S
C20 C21 1.348 . S
C21 C16 1.353 . S
C21 C20 1.348 . S
C21 H73 0.929 . S
H22 C16 0.930 . S
H23 C19 0.930 . S
C24 N25 1.314 . S
C24 C26 1.353 . S
C24 H30 0.930 . S
N25 Li1 1.990 . S
N25 C24 1.314 . S
N25 C28 1.279 . S
C26 C24 1.353 . S
C26 C29 1.348 . S
C26 H74 0.929 . S
C27 C28 1.358 . S
C27 C29 1.356 . S
C27 H75 0.930 . S
C28 N25 1.279 . S
C28 C27 1.358 . S
C28 H31 0.930 . S
C29 C26 1.348 . S
C29 C27 1.356 . S
H30 C24 0.930 . S
H31 C28 0.930 . S
C32 C34 1.348 . S
C32 C35 1.356 . S
C32 O62 1.325 . S
N33 C36 1.314 . S
N33 C37 1.279 . S
C34 C32 1.348 . S
C34 C36 1.353 . S
C34 H76 0.929 . S
C35 C32 1.356 . S
C35 C37 1.358 . S
C35 H77 0.930 . S
C36 N33 1.314 . S
C36 C34 1.353 . S
C36 H78 0.930 . S
C37 N33 1.279 . S
C37 C35 1.358 . S
C37 H79 0.930 . S
C38 C39 1.348 . S
C38 C40 1.356 . S
C38 O63 1.325 . S
C39 C38 1.348 . S
C39 C41 1.353 . S
C39 H80 0.929 . S
C40 C38 1.356 . S
C40 C42 1.358 . S
C40 H81 0.930 . S
C41 C39 1.353 . S
C41 N43 1.314 . S
C41 H82 0.930 . S
C42 C40 1.358 . S
C42 N43 1.279 . S
C42 H83 0.930 . S
N43 C41 1.314 . S
N43 C42 1.279 . S
C44 C46 1.353 . S
C44 N47 1.314 . S
C44 H50 0.930 . S
C45 N47 1.279 . S
C45 C48 1.358 . S
C45 H51 0.930 . S
C46 C44 1.353 . S
C46 C49 1.348 . S
C46 H84 0.929 . S
N47 Li2 1.990 . S
N47 C44 1.314 . S
N47 C45 1.279 . S
C48 C45 1.358 . S
C48 C49 1.356 . S
C48 H85 0.930 . S
C49 C46 1.348 . S
C49 C48 1.356 . S
H50 C44 0.930 . S
H51 C45 0.930 . S
C52 N53 1.314 . S
C52 C54 1.353 . S
C52 H58 0.930 . S
N53 Li3 1.990 . S
N53 C52 1.314 . S
N53 C56 1.279 . S
C54 C52 1.353 . S
C54 C57 1.348 . S
C54 H86 0.929 . S
C55 C56 1.358 . S
C55 C57 1.356 . S
C55 H87 0.930 . S
C56 N53 1.279 . S
C56 C55 1.358 . S
C56 H59 0.930 . S
C57 C54 1.348 . S
C57 C55 1.356 . S
H58 C52 0.930 . S
H59 C56 0.930 . S
O60 Li0 1.956 . S
O60 Li1 1.970 . S
O60 Li2 1.961 . S
O60 C4 1.325 . S
O61 Li0 1.970 . S
O61 Li1 1.956 . S
O61 Li3 1.961 . S
O61 C10 1.325 . S
O62 Li0 1.961 . S
O62 Li2 1.956 . S
O62 Li3 1.970 . S
O62 C32 1.325 . S
O63 Li1 1.961 . S
O63 Li2 1.970 . S
O63 Li3 1.956 . S
O63 C38 1.325 . S
H64 C6 0.929 . S
H65 C7 0.930 . S
H66 C8 0.930 . S
H67 C9 0.930 . S
H68 C11 0.930 . S
H69 C13 0.929 . S
H70 C14 0.930 . S
H71 C15 0.930 . S
H72 C18 0.930 . S
H73 C21 0.929 . S
H74 C26 0.929 . S
H75 C27 0.930 . S
H76 C34 0.929 . S
H77 C35 0.930 . S
H78 C36 0.930 . S
H79 C37 0.930 . S
H80 C39 0.929 . S
H81 C40 0.930 . S
H82 C41 0.930 . S
H83 C42 0.930 . S
H84 C46 0.929 . S
H85 C48 0.930 . S
H86 C54 0.929 . S
H87 C55 0.930 . S
Li88 N105 1.990 . S
Li88 O148 1.956 . S
Li88 O149 1.970 . S
Li88 O150 1.961 . S
Li89 N113 1.990 . S
Li89 O148 1.970 . S
Li89 O149 1.956 . S
Li89 O151 1.961 . S
Li90 N135 1.990 . S
Li90 O148 1.961 . S
Li90 O150 1.956 . S
Li90 O151 1.970 . S
Li91 N141 1.990 . S
Li91 O149 1.961 . S
Li91 O150 1.970 . S
Li91 O151 1.956 . S
C92 C94 1.348 . S
C92 C95 1.356 . S
C92 O148 1.325 . S
N93 C96 1.314 . S
N93 C97 1.279 . S
C94 C92 1.348 . S
C94 C96 1.353 . S
C94 H152 0.929 . S
C95 C92 1.356 . S
C95 C97 1.358 . S
C95 H153 0.930 . S
C96 N93 1.314 . S
C96 C94 1.353 . S
C96 H154 0.930 . S
C97 N93 1.279 . S
C97 C95 1.358 . S
C97 H155 0.930 . S
C98 C101 1.348 . S
C98 C102 1.356 . S
C98 O149 1.325 . S
C99 N100 1.279 . S
C99 C102 1.358 . S
C99 H156 0.930 . S
N100 C99 1.279 . S
N100 C103 1.314 . S
C101 C98 1.348 . S
C101 C103 1.353 . S
C101 H157 0.929 . S
C102 C98 1.356 . S
C102 C99 1.358 . S
C102 H158 0.930 . S
C103 N100 1.314 . S
C103 C101 1.353 . S
C103 H159 0.930 . S
C104 N105 1.314 . S
C104 C109 1.353 . S
C104 H110 0.930 . S
N105 Li88 1.990 . S
N105 C104 1.314 . S
N105 C107 1.279 . S
C106 C107 1.358 . S
C106 C108 1.356 . S
C106 H160 0.930 . S
C107 N105 1.279 . S
C107 C106 1.358 . S
C107 H111 0.930 . S
C108 C106 1.356 . S
C108 C109 1.348 . S
C109 C104 1.353 . S
C109 C108 1.348 . S
C109 H161 0.929 . S
H110 C104 0.930 . S
H111 C107 0.930 . S
C112 N113 1.314 . S
C112 C114 1.353 . S
C112 H118 0.930 . S
N113 Li89 1.990 . S
N113 C112 1.314 . S
N113 C116 1.279 . S
C114 C112 1.353 . S
C114 C117 1.348 . S
C114 H162 0.929 . S
C115 C116 1.358 . S
C115 C117 1.356 . S
C115 H163 0.930 . S
C116 N113 1.279 . S
C116 C115 1.358 . S
C116 H119 0.930 . S
C117 C114 1.348 . S
C117 C115 1.356 . S
H118 C112 0.930 . S
H119 C116 0.930 . S
C120 C122 1.348 . S
C120 C123 1.356 . S
C120 O150 1.325 . S
N121 C124 1.314 . S
N121 C125 1.279 . S
C122 C120 1.348 . S
C122 C124 1.353 . S
C122 H164 0.929 . S
C123 C120 1.356 . S
C123 C125 1.358 . S
C123 H165 0.930 . S
C124 N121 1.314 . S
C124 C122 1.353 . S
C124 H166 0.930 . S
C125 N121 1.279 . S
C125 C123 1.358 . S
C125 H167 0.930 . S
C126 C127 1.348 . S
C126 C128 1.356 . S
C126 O151 1.325 . S
C127 C126 1.348 . S
C127 C129 1.353 . S
C127 H168 0.929 . S
C128 C126 1.356 . S
C128 C130 1.358 . S
C128 H169 0.930 . S
C129 C127 1.353 . S
C129 N131 1.314 . S
C129 H170 0.930 . S
C130 C128 1.358 . S
C130 N131 1.279 . S
C130 H171 0.930 . S
N131 C129 1.314 . S
N131 C130 1.279 . S
C132 C134 1.353 . S
C132 N135 1.314 . S
C132 H138 0.930 . S
C133 N135 1.279 . S
C133 C136 1.358 . S
C133 H139 0.930 . S
C134 C132 1.353 . S
C134 C137 1.348 . S
C134 H172 0.929 . S
N135 Li90 1.990 . S
N135 C132 1.314 . S
N135 C133 1.279 . S
C136 C133 1.358 . S
C136 C137 1.356 . S
C136 H173 0.930 . S
C137 C134 1.348 . S
C137 C136 1.356 . S
H138 C132 0.930 . S
H139 C133 0.930 . S
C140 N141 1.314 . S
C140 C142 1.353 . S
C140 H146 0.930 . S
N141 Li91 1.990 . S
N141 C140 1.314 . S
N141 C144 1.279 . S
C142 C140 1.353 . S
C142 C145 1.348 . S
C142 H174 0.929 . S
C143 C144 1.358 . S
C143 C145 1.356 . S
C143 H175 0.930 . S
C144 N141 1.279 . S
C144 C143 1.358 . S
C144 H147 0.930 . S
C145 C142 1.348 . S
C145 C143 1.356 . S
H146 C140 0.930 . S
H147 C144 0.930 . S
O148 Li88 1.956 . S
O148 Li89 1.970 . S
O148 Li90 1.961 . S
O148 C92 1.325 . S
O149 Li88 1.970 . S
O149 Li89 1.956 . S
O149 Li91 1.961 . S
O149 C98 1.325 . S
O150 Li88 1.961 . S
O150 Li90 1.956 . S
O150 Li91 1.970 . S
O150 C120 1.325 . S
O151 Li89 1.961 . S
O151 Li90 1.970 . S
O151 Li91 1.956 . S
O151 C126 1.325 . S
H152 C94 0.929 . S
H153 C95 0.930 . S
H154 C96 0.930 . S
H155 C97 0.930 . S
H156 C99 0.930 . S
H157 C101 0.929 . S
H158 C102 0.930 . S
H159 C103 0.930 . S
H160 C106 0.930 . S
H161 C109 0.929 . S
H162 C114 0.929 . S
H163 C115 0.930 . S
H164 C122 0.929 . S
H165 C123 0.930 . S
H166 C124 0.930 . S
H167 C125 0.930 . S
H168 C127 0.929 . S
H169 C128 0.930 . S
H170 C129 0.930 . S
H171 C130 0.930 . S
H172 C134 0.929 . S
H173 C136 0.930 . S
H174 C142 0.929 . S
H175 C143 0.930 . S
Li176 N193 1.990 . S
Li176 O236 1.956 . S
Li176 O237 1.970 . S
Li176 O238 1.961 . S
Li177 N201 1.990 . S
Li177 O236 1.970 . S
Li177 O237 1.956 . S
Li177 O239 1.961 . S
Li178 N223 1.990 . S
Li178 O236 1.961 . S
Li178 O238 1.956 . S
Li178 O239 1.970 . S
Li179 N229 1.990 . S
Li179 O237 1.961 . S
Li179 O238 1.970 . S
Li179 O239 1.956 . S
C180 C182 1.348 . S
C180 C183 1.356 . S
C180 O236 1.325 . S
N181 C184 1.314 . S
N181 C185 1.279 . S
C182 C180 1.348 . S
C182 C184 1.353 . S
C182 H240 0.929 . S
C183 C180 1.356 . S
C183 C185 1.358 . S
C183 H241 0.930 . S
C184 N181 1.314 . S
C184 C182 1.353 . S
C184 H242 0.930 . S
C185 N181 1.279 . S
C185 C183 1.358 . S
C185 H243 0.930 . S
C186 C189 1.348 . S
C186 C190 1.356 . S
C186 O237 1.325 . S
C187 N188 1.279 . S
C187 C190 1.358 . S
C187 H244 0.930 . S
N188 C187 1.279 . S
N188 C191 1.314 1_556 S
C189 C186 1.348 . S
C189 C191 1.353 1_556 S
C189 H245 0.929 . S
C190 C186 1.356 . S
C190 C187 1.358 . S
C190 H246 0.930 . S
C191 N188 1.314 1_554 S
C191 C189 1.353 1_554 S
C191 H247 0.930 . S
C192 N193 1.314 1_554 S
C192 C197 1.353 . S
C192 H198 0.930 1_554 S
N193 Li176 1.990 . S
N193 C192 1.314 1_556 S
N193 C195 1.279 1_556 S
C194 C195 1.358 . S
C194 C196 1.356 . S
C194 H248 0.930 . S
C195 N193 1.279 1_554 S
C195 C194 1.358 . S
C195 H199 0.930 . S
C196 C194 1.356 . S
C196 C197 1.348 . S
C197 C192 1.353 . S
C197 C196 1.348 . S
C197 H249 0.929 . S
H198 C192 0.930 1_556 S
H199 C195 0.930 . S
C200 N201 1.314 . S
C200 C202 1.353 . S
C200 H206 0.930 . S
N201 Li177 1.990 . S
N201 C200 1.314 . S
N201 C204 1.279 . S
C202 C200 1.353 . S
C202 C205 1.348 . S
C202 H250 0.929 . S
C203 C204 1.358 . S
C203 C205 1.356 . S
C203 H251 0.930 . S
C204 N201 1.279 . S
C204 C203 1.358 . S
C204 H207 0.930 . S
C205 C202 1.348 . S
C205 C203 1.356 . S
H206 C200 0.930 . S
H207 C204 0.930 . S
C208 C210 1.348 . S
C208 C211 1.356 . S
C208 O238 1.325 . S
N209 C212 1.314 . S
N209 C213 1.279 . S
C210 C208 1.348 . S
C210 C212 1.353 . S
C210 H252 0.929 . S
C211 C208 1.356 . S
C211 C213 1.358 . S
C211 H253 0.930 . S
C212 N209 1.314 . S
C212 C210 1.353 . S
C212 H254 0.930 . S
C213 N209 1.279 . S
C213 C211 1.358 . S
C213 H255 0.930 . S
C214 C215 1.348 . S
C214 C216 1.356 . S
C214 O239 1.325 . S
C215 C214 1.348 . S
C215 C217 1.353 . S
C215 H256 0.929 . S
C216 C214 1.356 . S
C216 C218 1.358 . S
C216 H257 0.930 . S
C217 C215 1.353 . S
C217 N219 1.314 . S
C217 H258 0.930 . S
C218 C216 1.358 . S
C218 N219 1.279 . S
C218 H259 0.930 . S
N219 C217 1.314 . S
N219 C218 1.279 . S
C220 C222 1.353 . S
C220 N223 1.314 . S
C220 H226 0.930 . S
C221 N223 1.279 . S
C221 C224 1.358 . S
C221 H227 0.930 . S
C222 C220 1.353 . S
C222 C225 1.348 . S
C222 H260 0.929 . S
N223 Li178 1.990 . S
N223 C220 1.314 . S
N223 C221 1.279 . S
C224 C221 1.358 . S
C224 C225 1.356 . S
C224 H261 0.930 . S
C225 C222 1.348 . S
C225 C224 1.356 . S
H226 C220 0.930 . S
H227 C221 0.930 . S
C228 N229 1.314 . S
C228 C230 1.353 . S
C228 H234 0.930 . S
N229 Li179 1.990 . S
N229 C228 1.314 . S
N229 C232 1.279 . S
C230 C228 1.353 . S
C230 C233 1.348 . S
C230 H262 0.929 . S
C231 C232 1.358 . S
C231 C233 1.356 . S
C231 H263 0.930 . S
C232 N229 1.279 . S
C232 C231 1.358 . S
C232 H235 0.930 . S
C233 C230 1.348 . S
C233 C231 1.356 . S
H234 C228 0.930 . S
H235 C232 0.930 . S
O236 Li176 1.956 . S
O236 Li177 1.970 . S
O236 Li178 1.961 . S
O236 C180 1.325 . S
O237 Li176 1.970 . S
O237 Li177 1.956 . S
O237 Li179 1.961 . S
O237 C186 1.325 . S
O238 Li176 1.961 . S
O238 Li178 1.956 . S
O238 Li179 1.970 . S
O238 C208 1.325 . S
O239 Li177 1.961 . S
O239 Li178 1.970 . S
O239 Li179 1.956 . S
O239 C214 1.325 . S
H240 C182 0.929 . S
H241 C183 0.930 . S
H242 C184 0.930 . S
H243 C185 0.930 . S
H244 C187 0.930 . S
H245 C189 0.929 . S
H246 C190 0.930 . S
H247 C191 0.930 . S
H248 C194 0.930 . S
H249 C197 0.929 . S
H250 C202 0.929 . S
H251 C203 0.930 . S
H252 C210 0.929 . S
H253 C211 0.930 . S
H254 C212 0.930 . S
H255 C213 0.930 . S
H256 C215 0.929 . S
H257 C216 0.930 . S
H258 C217 0.930 . S
H259 C218 0.930 . S
H260 C222 0.929 . S
H261 C224 0.930 . S
H262 C230 0.929 . S
H263 C231 0.930 . S
Li264 N281 1.990 . S
Li264 O324 1.956 . S
Li264 O325 1.970 . S
Li264 O326 1.961 . S
Li265 N289 1.990 . S
Li265 O324 1.970 . S
Li265 O325 1.956 . S
Li265 O327 1.961 . S
Li266 N311 1.990 . S
Li266 O324 1.961 . S
Li266 O326 1.956 . S
Li266 O327 1.970 . S
Li267 N317 1.990 . S
Li267 O325 1.961 . S
Li267 O326 1.970 . S
Li267 O327 1.956 . S
C268 C270 1.348 . S
C268 C271 1.356 . S
C268 O324 1.325 . S
N269 C272 1.314 . S
N269 C273 1.279 . S
C270 C268 1.348 . S
C270 C272 1.353 . S
C270 H328 0.929 . S
C271 C268 1.356 . S
C271 C273 1.358 . S
C271 H329 0.930 . S
C272 N269 1.314 . S
C272 C270 1.353 . S
C272 H330 0.930 . S
C273 N269 1.279 . S
C273 C271 1.358 . S
C273 H331 0.930 . S
C274 C277 1.348 . S
C274 C278 1.356 . S
C274 O325 1.325 . S
C275 N276 1.279 . S
C275 C278 1.358 . S
C275 H332 0.930 . S
N276 C275 1.279 . S
N276 C279 1.314 . S
C277 C274 1.348 . S
C277 C279 1.353 . S
C277 H333 0.929 . S
C278 C274 1.356 . S
C278 C275 1.358 . S
C278 H334 0.930 . S
C279 N276 1.314 . S
C279 C277 1.353 . S
C279 H335 0.930 . S
C280 N281 1.314 . S
C280 C285 1.353 . S
C280 H286 0.930 . S
N281 Li264 1.990 . S
N281 C280 1.314 . S
N281 C283 1.279 . S
C282 C283 1.358 . S
C282 C284 1.356 . S
C282 H336 0.930 . S
C283 N281 1.279 . S
C283 C282 1.358 . S
C283 H287 0.930 . S
C284 C282 1.356 . S
C284 C285 1.348 . S
C285 C280 1.353 . S
C285 C284 1.348 . S
C285 H337 0.929 . S
H286 C280 0.930 . S
H287 C283 0.930 . S
C288 N289 1.314 . S
C288 C290 1.353 . S
C288 H294 0.930 . S
N289 Li265 1.990 . S
N289 C288 1.314 . S
N289 C292 1.279 . S
C290 C288 1.353 . S
C290 C293 1.348 . S
C290 H338 0.929 . S
C291 C292 1.358 . S
C291 C293 1.356 . S
C291 H339 0.930 . S
C292 N289 1.279 . S
C292 C291 1.358 . S
C292 H295 0.930 . S
C293 C290 1.348 . S
C293 C291 1.356 . S
H294 C288 0.930 . S
H295 C292 0.930 . S
C296 C298 1.348 . S
C296 C299 1.356 . S
C296 O326 1.325 . S
N297 C300 1.314 . S
N297 C301 1.279 . S
C298 C296 1.348 . S
C298 C300 1.353 . S
C298 H340 0.929 . S
C299 C296 1.356 . S
C299 C301 1.358 . S
C299 H341 0.930 . S
C300 N297 1.314 . S
C300 C298 1.353 . S
C300 H342 0.930 . S
C301 N297 1.279 . S
C301 C299 1.358 . S
C301 H343 0.930 . S
C302 C303 1.348 . S
C302 C304 1.356 . S
C302 O327 1.325 . S
C303 C302 1.348 . S
C303 C305 1.353 . S
C303 H344 0.929 . S
C304 C302 1.356 . S
C304 C306 1.358 . S
C304 H345 0.930 . S
C305 C303 1.353 . S
C305 N307 1.314 . S
C305 H346 0.930 . S
C306 C304 1.358 . S
C306 N307 1.279 . S
C306 H347 0.930 . S
N307 C305 1.314 . S
N307 C306 1.279 . S
C308 C310 1.353 . S
C308 N311 1.314 . S
C308 H314 0.930 . S
C309 N311 1.279 . S
C309 C312 1.358 . S
C309 H315 0.930 . S
C310 C308 1.353 . S
C310 C313 1.348 . S
C310 H348 0.929 . S
N311 Li266 1.990 . S
N311 C308 1.314 . S
N311 C309 1.279 . S
C312 C309 1.358 . S
C312 C313 1.356 . S
C312 H349 0.930 . S
C313 C310 1.348 . S
C313 C312 1.356 . S
H314 C308 0.930 . S
H315 C309 0.930 . S
C316 N317 1.314 . S
C316 C318 1.353 . S
C316 H322 0.930 . S
N317 Li267 1.990 . S
N317 C316 1.314 . S
N317 C320 1.279 . S
C318 C316 1.353 . S
C318 C321 1.348 . S
C318 H350 0.929 . S
C319 C320 1.358 . S
C319 C321 1.356 . S
C319 H351 0.930 . S
C320 N317 1.279 . S
C320 C319 1.358 . S
C320 H323 0.930 . S
C321 C318 1.348 . S
C321 C319 1.356 . S
H322 C316 0.930 . S
H323 C320 0.930 . S
O324 Li264 1.956 . S
O324 Li265 1.970 . S
O324 Li266 1.961 . S
O324 C268 1.325 . S
O325 Li264 1.970 . S
O325 Li265 1.956 . S
O325 Li267 1.961 . S
O325 C274 1.325 . S
O326 Li264 1.961 . S
O326 Li266 1.956 . S
O326 Li267 1.970 . S
O326 C296 1.325 . S
O327 Li265 1.961 . S
O327 Li266 1.970 . S
O327 Li267 1.956 . S
O327 C302 1.325 . S
H328 C270 0.929 . S
H329 C271 0.930 . S
H330 C272 0.930 . S
H331 C273 0.930 . S
H332 C275 0.930 . S
H333 C277 0.929 . S
H334 C278 0.930 . S
H335 C279 0.930 . S
H336 C282 0.930 . S
H337 C285 0.929 . S
H338 C290 0.929 . S
H339 C291 0.930 . S
H340 C298 0.929 . S
H341 C299 0.930 . S
H342 C300 0.930 . S
H343 C301 0.930 . S
H344 C303 0.929 . S
H345 C304 0.930 . S
H346 C305 0.930 . S
H347 C306 0.930 . S
H348 C310 0.929 . S
H349 C312 0.930 . S
H350 C318 0.929 . S
H351 C319 0.930 . S
Li352 N369 1.990 . S
Li352 O412 1.956 . S
Li352 O413 1.970 . S
Li352 O414 1.961 . S
Li353 N377 1.990 . S
Li353 O412 1.970 . S
Li353 O413 1.956 . S
Li353 O415 1.961 . S
Li354 N399 1.990 . S
Li354 O412 1.961 . S
Li354 O414 1.956 . S
Li354 O415 1.970 . S
Li355 N405 1.990 . S
Li355 O413 1.961 . S
Li355 O414 1.970 . S
Li355 O415 1.956 . S
C356 C358 1.348 . S
C356 C359 1.356 . S
C356 O412 1.325 . S
N357 C360 1.314 . S
N357 C361 1.279 . S
C358 C356 1.348 . S
C358 C360 1.353 . S
C358 H416 0.929 . S
C359 C356 1.356 . S
C359 C361 1.358 . S
C359 H417 0.930 . S
C360 N357 1.314 . S
C360 C358 1.353 . S
C360 H418 0.930 . S
C361 N357 1.279 . S
C361 C359 1.358 . S
C361 H419 0.930 . S
C362 C365 1.348 . S
C362 C366 1.356 . S
C362 O413 1.325 . S
C363 N364 1.279 . S
C363 C366 1.358 . S
C363 H420 0.930 . S
N364 C363 1.279 . S
N364 C367 1.314 . S
C365 C362 1.348 . S
C365 C367 1.353 . S
C365 H421 0.929 . S
C366 C362 1.356 . S
C366 C363 1.358 . S
C366 H422 0.930 . S
C367 N364 1.314 . S
C367 C365 1.353 . S
C367 H423 0.930 . S
C368 N369 1.314 . S
C368 C373 1.353 . S
C368 H374 0.930 . S
N369 Li352 1.990 . S
N369 C368 1.314 . S
N369 C371 1.279 . S
C370 C371 1.358 . S
C370 C372 1.356 . S
C370 H424 0.930 . S
C371 N369 1.279 . S
C371 C370 1.358 . S
C371 H375 0.930 . S
C372 C370 1.356 . S
C372 C373 1.348 . S
C373 C368 1.353 . S
C373 C372 1.348 . S
C373 H425 0.929 . S
H374 C368 0.930 . S
H375 C371 0.930 . S
C376 N377 1.314 . S
C376 C378 1.353 . S
C376 H382 0.930 . S
N377 Li353 1.990 . S
N377 C376 1.314 . S
N377 C380 1.279 . S
C378 C376 1.353 . S
C378 C381 1.348 . S
C378 H426 0.929 . S
C379 C380 1.358 . S
C379 C381 1.356 . S
C379 H427 0.930 . S
C380 N377 1.279 . S
C380 C379 1.358 . S
C380 H383 0.930 . S
C381 C378 1.348 . S
C381 C379 1.356 . S
H382 C376 0.930 . S
H383 C380 0.930 . S
C384 C386 1.348 . S
C384 C387 1.356 . S
C384 O414 1.325 . S
N385 C388 1.314 . S
N385 C389 1.279 . S
C386 C384 1.348 . S
C386 C388 1.353 . S
C386 H428 0.929 . S
C387 C384 1.356 . S
C387 C389 1.358 . S
C387 H429 0.930 . S
C388 N385 1.314 . S
C388 C386 1.353 . S
C388 H430 0.930 . S
C389 N385 1.279 . S
C389 C387 1.358 . S
C389 H431 0.930 . S
C390 C391 1.348 . S
C390 C392 1.356 . S
C390 O415 1.325 . S
C391 C390 1.348 . S
C391 C393 1.353 1_554 S
C391 H432 0.929 . S
C392 C390 1.356 . S
C392 C394 1.358 . S
C392 H433 0.930 . S
C393 C391 1.353 1_556 S
C393 N395 1.314 1_556 S
C393 H434 0.930 . S
C394 C392 1.358 . S
C394 N395 1.279 . S
C394 H435 0.930 . S
N395 C393 1.314 1_554 S
N395 C394 1.279 . S
C396 C398 1.353 . S
C396 N399 1.314 1_556 S
C396 H402 0.930 1_556 S
C397 N399 1.279 1_556 S
C397 C400 1.358 . S
C397 H403 0.930 . S
C398 C396 1.353 . S
C398 C401 1.348 . S
C398 H436 0.929 . S
N399 Li354 1.990 . S
N399 C396 1.314 1_554 S
N399 C397 1.279 1_554 S
C400 C397 1.358 . S
C400 C401 1.356 . S
C400 H437 0.930 . S
C401 C398 1.348 . S
C401 C400 1.356 . S
H402 C396 0.930 1_554 S
H403 C397 0.930 . S
C404 N405 1.314 . S
C404 C406 1.353 . S
C404 H410 0.930 . S
N405 Li355 1.990 . S
N405 C404 1.314 . S
N405 C408 1.279 . S
C406 C404 1.353 . S
C406 C409 1.348 . S
C406 H438 0.929 . S
C407 C408 1.358 . S
C407 C409 1.356 . S
C407 H439 0.930 . S
C408 N405 1.279 . S
C408 C407 1.358 . S
C408 H411 0.930 . S
C409 C406 1.348 . S
C409 C407 1.356 . S
H410 C404 0.930 . S
H411 C408 0.930 . S
O412 Li352 1.956 . S
O412 Li353 1.970 . S
O412 Li354 1.961 . S
O412 C356 1.325 . S
O413 Li352 1.970 . S
O413 Li353 1.956 . S
O413 Li355 1.961 . S
O413 C362 1.325 . S
O414 Li352 1.961 . S
O414 Li354 1.956 . S
O414 Li355 1.970 . S
O414 C384 1.325 . S
O415 Li353 1.961 . S
O415 Li354 1.970 . S
O415 Li355 1.956 . S
O415 C390 1.325 . S
H416 C358 0.929 . S
H417 C359 0.930 . S
H418 C360 0.930 . S
H419 C361 0.930 . S
H420 C363 0.930 . S
H421 C365 0.929 . S
H422 C366 0.930 . S
H423 C367 0.930 . S
H424 C370 0.930 . S
H425 C373 0.929 . S
H426 C378 0.929 . S
H427 C379 0.930 . S
H428 C386 0.929 . S
H429 C387 0.930 . S
H430 C388 0.930 . S
H431 C389 0.930 . S
H432 C391 0.929 . S
H433 C392 0.930 . S
H434 C393 0.930 . S
H435 C394 0.930 . S
H436 C398 0.929 . S
H437 C400 0.930 . S
H438 C406 0.929 . S
H439 C407 0.930 . S
Li440 N457 1.990 . S
Li440 O500 1.956 . S
Li440 O501 1.970 . S
Li440 O502 1.961 . S
Li441 N465 1.990 . S
Li441 O500 1.970 . S
Li441 O501 1.956 . S
Li441 O503 1.961 . S
Li442 N487 1.990 . S
Li442 O500 1.961 . S
Li442 O502 1.956 . S
Li442 O503 1.970 . S
Li443 N493 1.990 . S
Li443 O501 1.961 . S
Li443 O502 1.970 . S
Li443 O503 1.956 . S
C444 C446 1.348 . S
C444 C447 1.356 . S
C444 O500 1.325 . S
N445 C448 1.314 . S
N445 C449 1.279 . S
C446 C444 1.348 . S
C446 C448 1.353 . S
C446 H504 0.929 . S
C447 C444 1.356 . S
C447 C449 1.358 . S
C447 H505 0.930 . S
C448 N445 1.314 . S
C448 C446 1.353 . S
C448 H506 0.930 . S
C449 N445 1.279 . S
C449 C447 1.358 . S
C449 H507 0.930 . S
C450 C453 1.348 . S
C450 C454 1.356 . S
C450 O501 1.325 . S
C451 N452 1.279 . S
C451 C454 1.358 . S
C451 H508 0.930 . S
N452 C451 1.279 . S
N452 C455 1.314 . S
C453 C450 1.348 . S
C453 C455 1.353 . S
C453 H509 0.929 . S
C454 C450 1.356 . S
C454 C451 1.358 . S
C454 H510 0.930 . S
C455 N452 1.314 . S
C455 C453 1.353 . S
C455 H511 0.930 . S
C456 N457 1.314 . S
C456 C461 1.353 . S
C456 H462 0.930 . S
N457 Li440 1.990 . S
N457 C456 1.314 . S
N457 C459 1.279 . S
C458 C459 1.358 . S
C458 C460 1.356 . S
C458 H512 0.930 . S
C459 N457 1.279 . S
C459 C458 1.358 . S
C459 H463 0.930 . S
C460 C458 1.356 . S
C460 C461 1.348 . S
C461 C456 1.353 . S
C461 C460 1.348 . S
C461 H513 0.929 . S
H462 C456 0.930 . S
H463 C459 0.930 . S
C464 N465 1.314 . S
C464 C466 1.353 . S
C464 H470 0.930 . S
N465 Li441 1.990 . S
N465 C464 1.314 . S
N465 C468 1.279 . S
C466 C464 1.353 . S
C466 C469 1.348 . S
C466 H514 0.929 . S
C467 C468 1.358 . S
C467 C469 1.356 . S
C467 H515 0.930 . S
C468 N465 1.279 . S
C468 C467 1.358 . S
C468 H471 0.930 . S
C469 C466 1.348 . S
C469 C467 1.356 . S
H470 C464 0.930 . S
H471 C468 0.930 . S
C472 C474 1.348 . S
C472 C475 1.356 . S
C472 O502 1.325 . S
N473 C476 1.314 . S
N473 C477 1.279 . S
C474 C472 1.348 . S
C474 C476 1.353 . S
C474 H516 0.929 . S
C475 C472 1.356 . S
C475 C477 1.358 . S
C475 H517 0.930 . S
C476 N473 1.314 . S
C476 C474 1.353 . S
C476 H518 0.930 . S
C477 N473 1.279 . S
C477 C475 1.358 . S
C477 H519 0.930 . S
C478 C479 1.348 . S
C478 C480 1.356 . S
C478 O503 1.325 . S
C479 C478 1.348 . S
C479 C481 1.353 . S
C479 H520 0.929 . S
C480 C478 1.356 . S
C480 C482 1.358 . S
C480 H521 0.930 . S
C481 C479 1.353 . S
C481 N483 1.314 . S
C481 H522 0.930 . S
C482 C480 1.358 . S
C482 N483 1.279 . S
C482 H523 0.930 . S
N483 C481 1.314 . S
N483 C482 1.279 . S
C484 C486 1.353 . S
C484 N487 1.314 . S
C484 H490 0.930 . S
C485 N487 1.279 . S
C485 C488 1.358 . S
C485 H491 0.930 . S
C486 C484 1.353 . S
C486 C489 1.348 . S
C486 H524 0.929 . S
N487 Li442 1.990 . S
N487 C484 1.314 . S
N487 C485 1.279 . S
C488 C485 1.358 . S
C488 C489 1.356 . S
C488 H525 0.930 . S
C489 C486 1.348 . S
C489 C488 1.356 . S
H490 C484 0.930 . S
H491 C485 0.930 . S
C492 N493 1.314 . S
C492 C494 1.353 . S
C492 H498 0.930 . S
N493 Li443 1.990 . S
N493 C492 1.314 . S
N493 C496 1.279 . S
C494 C492 1.353 . S
C494 C497 1.348 . S
C494 H526 0.929 . S
C495 C496 1.358 . S
C495 C497 1.356 . S
C495 H527 0.930 . S
C496 N493 1.279 . S
C496 C495 1.358 . S
C496 H499 0.930 . S
C497 C494 1.348 . S
C497 C495 1.356 . S
H498 C492 0.930 . S
H499 C496 0.930 . S
O500 Li440 1.956 . S
O500 Li441 1.970 . S
O500 Li442 1.961 . S
O500 C444 1.325 . S
O501 Li440 1.970 . S
O501 Li441 1.956 . S
O501 Li443 1.961 . S
O501 C450 1.325 . S
O502 Li440 1.961 . S
O502 Li442 1.956 . S
O502 Li443 1.970 . S
O502 C472 1.325 . S
O503 Li441 1.961 . S
O503 Li442 1.970 . S
O503 Li443 1.956 . S
O503 C478 1.325 . S
H504 C446 0.929 . S
H505 C447 0.930 . S
H506 C448 0.930 . S
H507 C449 0.930 . S
H508 C451 0.930 . S
H509 C453 0.929 . S
H510 C454 0.930 . S
H511 C455 0.930 . S
H512 C458 0.930 . S
H513 C461 0.929 . S
H514 C466 0.929 . S
H515 C467 0.930 . S
H516 C474 0.929 . S
H517 C475 0.930 . S
H518 C476 0.930 . S
H519 C477 0.930 . S
H520 C479 0.929 . S
H521 C480 0.930 . S
H522 C481 0.930 . S
H523 C482 0.930 . S
H524 C486 0.929 . S
H525 C488 0.930 . S
H526 C494 0.929 . S
H527 C495 0.930 . S
Li528 N545 1.990 . S
Li528 O588 1.956 . S
Li528 O589 1.970 . S
Li528 O590 1.961 . S
Li529 N553 1.990 . S
Li529 O588 1.970 . S
Li529 O589 1.956 . S
Li529 O591 1.961 . S
Li530 N575 1.990 . S
Li530 O588 1.961 . S
Li530 O590 1.956 . S
Li530 O591 1.970 . S
Li531 N581 1.990 . S
Li531 O589 1.961 . S
Li531 O590 1.970 . S
Li531 O591 1.956 . S
C532 C534 1.348 . S
C532 C535 1.356 . S
C532 O588 1.325 . S
N533 C536 1.314 . S
N533 C537 1.279 . S
C534 C532 1.348 . S
C534 C536 1.353 . S
C534 H592 0.929 . S
C535 C532 1.356 . S
C535 C537 1.358 . S
C535 H593 0.930 . S
C536 N533 1.314 . S
C536 C534 1.353 . S
C536 H594 0.930 . S
C537 N533 1.279 . S
C537 C535 1.358 . S
C537 H595 0.930 . S
C538 C541 1.348 . S
C538 C542 1.356 . S
C538 O589 1.325 . S
C539 N540 1.279 . S
C539 C542 1.358 . S
C539 H596 0.930 . S
N540 C539 1.279 . S
N540 C543 1.314 . S
C541 C538 1.348 . S
C541 C543 1.353 . S
C541 H597 0.929 . S
C542 C538 1.356 . S
C542 C539 1.358 . S
C542 H598 0.930 . S
C543 N540 1.314 . S
C543 C541 1.353 . S
C543 H599 0.930 . S
C544 N545 1.314 . S
C544 C549 1.353 . S
C544 H550 0.930 . S
N545 Li528 1.990 . S
N545 C544 1.314 . S
N545 C547 1.279 . S
C546 C547 1.358 . S
C546 C548 1.356 . S
C546 H600 0.930 . S
C547 N545 1.279 . S
C547 C546 1.358 . S
C547 H551 0.930 . S
C548 C546 1.356 . S
C548 C549 1.348 . S
C549 C544 1.353 . S
C549 C548 1.348 . S
C549 H601 0.929 . S
H550 C544 0.930 . S
H551 C547 0.930 . S
C552 N553 1.314 . S
C552 C554 1.353 . S
C552 H558 0.930 . S
N553 Li529 1.990 . S
N553 C552 1.314 . S
N553 C556 1.279 . S
C554 C552 1.353 . S
C554 C557 1.348 . S
C554 H602 0.929 . S
C555 C556 1.358 . S
C555 C557 1.356 . S
C555 H603 0.930 . S
C556 N553 1.279 . S
C556 C555 1.358 . S
C556 H559 0.930 . S
C557 C554 1.348 . S
C557 C555 1.356 . S
H558 C552 0.930 . S
H559 C556 0.930 . S
C560 C562 1.348 . S
C560 C563 1.356 . S
C560 O590 1.325 . S
N561 C564 1.314 . S
N561 C565 1.279 . S
C562 C560 1.348 . S
C562 C564 1.353 . S
C562 H604 0.929 . S
C563 C560 1.356 . S
C563 C565 1.358 . S
C563 H605 0.930 . S
C564 N561 1.314 . S
C564 C562 1.353 . S
C564 H606 0.930 . S
C565 N561 1.279 . S
C565 C563 1.358 . S
C565 H607 0.930 . S
C566 C567 1.348 . S
C566 C568 1.356 . S
C566 O591 1.325 . S
C567 C566 1.348 . S
C567 C569 1.353 . S
C567 H608 0.929 . S
C568 C566 1.356 . S
C568 C570 1.358 . S
C568 H609 0.930 . S
C569 C567 1.353 . S
C569 N571 1.314 . S
C569 H610 0.930 . S
C570 C568 1.358 . S
C570 N571 1.279 . S
C570 H611 0.930 . S
N571 C569 1.314 . S
N571 C570 1.279 . S
C572 C574 1.353 . S
C572 N575 1.314 . S
C572 H578 0.930 . S
C573 N575 1.279 . S
C573 C576 1.358 . S
C573 H579 0.930 . S
C574 C572 1.353 . S
C574 C577 1.348 . S
C574 H612 0.929 . S
N575 Li530 1.990 . S
N575 C572 1.314 . S
N575 C573 1.279 . S
C576 C573 1.358 . S
C576 C577 1.356 . S
C576 H613 0.930 . S
C577 C574 1.348 . S
C577 C576 1.356 . S
H578 C572 0.930 . S
H579 C573 0.930 . S
C580 N581 1.314 . S
C580 C582 1.353 . S
C580 H586 0.930 . S
N581 Li531 1.990 . S
N581 C580 1.314 . S
N581 C584 1.279 . S
C582 C580 1.353 . S
C582 C585 1.348 . S
C582 H614 0.929 . S
C583 C584 1.358 . S
C583 C585 1.356 . S
C583 H615 0.930 . S
C584 N581 1.279 . S
C584 C583 1.358 . S
C584 H587 0.930 . S
C585 C582 1.348 . S
C585 C583 1.356 . S
H586 C580 0.930 . S
H587 C584 0.930 . S
O588 Li528 1.956 . S
O588 Li529 1.970 . S
O588 Li530 1.961 . S
O588 C532 1.325 . S
O589 Li528 1.970 . S
O589 Li529 1.956 . S
O589 Li531 1.961 . S
O589 C538 1.325 . S
O590 Li528 1.961 . S
O590 Li530 1.956 . S
O590 Li531 1.970 . S
O590 C560 1.325 . S
O591 Li529 1.961 . S
O591 Li530 1.970 . S
O591 Li531 1.956 . S
O591 C566 1.325 . S
H592 C534 0.929 . S
H593 C535 0.930 . S
H594 C536 0.930 . S
H595 C537 0.930 . S
H596 C539 0.930 . S
H597 C541 0.929 . S
H598 C542 0.930 . S
H599 C543 0.930 . S
H600 C546 0.930 . S
H601 C549 0.929 . S
H602 C554 0.929 . S
H603 C555 0.930 . S
H604 C562 0.929 . S
H605 C563 0.930 . S
H606 C564 0.930 . S
H607 C565 0.930 . S
H608 C567 0.929 . S
H609 C568 0.930 . S
H610 C569 0.930 . S
H611 C570 0.930 . S
H612 C574 0.929 . S
H613 C576 0.930 . S
H614 C582 0.929 . S
H615 C583 0.930 . S
Li616 N633 1.990 . S
Li616 O676 1.956 . S
Li616 O677 1.970 . S
Li616 O678 1.961 . S
Li617 N641 1.990 . S
Li617 O676 1.970 . S
Li617 O677 1.956 . S
Li617 O679 1.961 . S
Li618 N663 1.990 . S
Li618 O676 1.961 . S
Li618 O678 1.956 . S
Li618 O679 1.970 . S
Li619 N669 1.990 . S
Li619 O677 1.961 . S
Li619 O678 1.970 . S
Li619 O679 1.956 . S
C620 C622 1.348 . S
C620 C623 1.356 . S
C620 O676 1.325 . S
N621 C624 1.314 . S
N621 C625 1.279 . S
C622 C620 1.348 . S
C622 C624 1.353 . S
C622 H680 0.929 . S
C623 C620 1.356 . S
C623 C625 1.358 . S
C623 H681 0.930 . S
C624 N621 1.314 . S
C624 C622 1.353 . S
C624 H682 0.930 . S
C625 N621 1.279 . S
C625 C623 1.358 . S
C625 H683 0.930 . S
C626 C629 1.348 . S
C626 C630 1.356 . S
C626 O677 1.325 . S
C627 N628 1.279 . S
C627 C630 1.358 . S
C627 H684 0.930 . S
N628 C627 1.279 . S
N628 C631 1.314 . S
C629 C626 1.348 . S
C629 C631 1.353 . S
C629 H685 0.929 . S
C630 C626 1.356 . S
C630 C627 1.358 . S
C630 H686 0.930 . S
C631 N628 1.314 . S
C631 C629 1.353 . S
C631 H687 0.930 . S
C632 N633 1.314 . S
C632 C637 1.353 . S
C632 H638 0.930 . S
N633 Li616 1.990 . S
N633 C632 1.314 . S
N633 C635 1.279 . S
C634 C635 1.358 . S
C634 C636 1.356 . S
C634 H688 0.930 . S
C635 N633 1.279 . S
C635 C634 1.358 . S
C635 H639 0.930 . S
C636 C634 1.356 . S
C636 C637 1.348 . S
C637 C632 1.353 . S
C637 C636 1.348 . S
C637 H689 0.929 . S
H638 C632 0.930 . S
H639 C635 0.930 . S
C640 N641 1.314 . S
C640 C642 1.353 . S
C640 H646 0.930 . S
N641 Li617 1.990 . S
N641 C640 1.314 . S
N641 C644 1.279 . S
C642 C640 1.353 . S
C642 C645 1.348 . S
C642 H690 0.929 . S
C643 C644 1.358 . S
C643 C645 1.356 . S
C643 H691 0.930 . S
C644 N641 1.279 . S
C644 C643 1.358 . S
C644 H647 0.930 . S
C645 C642 1.348 . S
C645 C643 1.356 . S
H646 C640 0.930 . S
H647 C644 0.930 . S
C648 C650 1.348 . S
C648 C651 1.356 . S
C648 O678 1.325 . S
N649 C652 1.314 . S
N649 C653 1.279 . S
C650 C648 1.348 . S
C650 C652 1.353 . S
C650 H692 0.929 . S
C651 C648 1.356 . S
C651 C653 1.358 . S
C651 H693 0.930 . S
C652 N649 1.314 . S
C652 C650 1.353 . S
C652 H694 0.930 . S
C653 N649 1.279 . S
C653 C651 1.358 . S
C653 H695 0.930 . S
C654 C655 1.348 . S
C654 C656 1.356 . S
C654 O679 1.325 . S
C655 C654 1.348 . S
C655 C657 1.353 . S
C655 H696 0.929 . S
C656 C654 1.356 . S
C656 C658 1.358 . S
C656 H697 0.930 . S
C657 C655 1.353 . S
C657 N659 1.314 . S
C657 H698 0.930 . S
C658 C656 1.358 . S
C658 N659 1.279 . S
C658 H699 0.930 . S
N659 C657 1.314 . S
N659 C658 1.279 . S
C660 C662 1.353 . S
C660 N663 1.314 . S
C660 H666 0.930 . S
C661 N663 1.279 . S
C661 C664 1.358 . S
C661 H667 0.930 . S
C662 C660 1.353 . S
C662 C665 1.348 . S
C662 H700 0.929 . S
N663 Li618 1.990 . S
N663 C660 1.314 . S
N663 C661 1.279 . S
C664 C661 1.358 . S
C664 C665 1.356 . S
C664 H701 0.930 . S
C665 C662 1.348 . S
C665 C664 1.356 . S
H666 C660 0.930 . S
H667 C661 0.930 . S
C668 N669 1.314 . S
C668 C670 1.353 . S
C668 H674 0.930 . S
N669 Li619 1.990 . S
N669 C668 1.314 . S
N669 C672 1.279 . S
C670 C668 1.353 . S
C670 C673 1.348 . S
C670 H702 0.929 . S
C671 C672 1.358 . S
C671 C673 1.356 . S
C671 H703 0.930 . S
C672 N669 1.279 . S
C672 C671 1.358 . S
C672 H675 0.930 . S
C673 C670 1.348 . S
C673 C671 1.356 . S
H674 C668 0.930 . S
H675 C672 0.930 . S
O676 Li616 1.956 . S
O676 Li617 1.970 . S
O676 Li618 1.961 . S
O676 C620 1.325 . S
O677 Li616 1.970 . S
O677 Li617 1.956 . S
O677 Li619 1.961 . S
O677 C626 1.325 . S
O678 Li616 1.961 . S
O678 Li618 1.956 . S
O678 Li619 1.970 . S
O678 C648 1.325 . S
O679 Li617 1.961 . S
O679 Li618 1.970 . S
O679 Li619 1.956 . S
O679 C654 1.325 . S
H680 C622 0.929 . S
H681 C623 0.930 . S
H682 C624 0.930 . S
H683 C625 0.930 . S
H684 C627 0.930 . S
H685 C629 0.929 . S
H686 C630 0.930 . S
H687 C631 0.930 . S
H688 C634 0.930 . S
H689 C637 0.929 . S
H690 C642 0.929 . S
H691 C643 0.930 . S
H692 C650 0.929 . S
H693 C651 0.930 . S
H694 C652 0.930 . S
H695 C653 0.930 . S
H696 C655 0.929 . S
H697 C656 0.930 . S
H698 C657 0.930 . S
H699 C658 0.930 . S
H700 C662 0.929 . S
H701 C664 0.930 . S
H702 C670 0.929 . S
H703 C671 0.930 . S
Li704 N721 1.990 . S
Li704 O764 1.956 . S
Li704 O765 1.970 . S
Li704 O766 1.961 . S
Li705 N729 1.990 . S
Li705 O764 1.970 . S
Li705 O765 1.956 . S
Li705 O767 1.961 . S
Li706 N751 1.990 . S
Li706 O764 1.961 . S
Li706 O766 1.956 . S
Li706 O767 1.970 . S
Li707 N757 1.990 . S
Li707 O765 1.961 . S
Li707 O766 1.970 . S
Li707 O767 1.956 . S
C708 C710 1.348 . S
C708 C711 1.356 . S
C708 O764 1.325 . S
N709 C712 1.314 . S
N709 C713 1.279 . S
C710 C708 1.348 . S
C710 C712 1.353 . S
C710 H768 0.929 . S
C711 C708 1.356 . S
C711 C713 1.358 . S
C711 H769 0.930 . S
C712 N709 1.314 . S
C712 C710 1.353 . S
C712 H770 0.930 . S
C713 N709 1.279 . S
C713 C711 1.358 . S
C713 H771 0.930 . S
C714 C717 1.348 . S
C714 C718 1.356 . S
C714 O765 1.325 . S
C715 N716 1.279 . S
C715 C718 1.358 . S
C715 H772 0.930 . S
N716 C715 1.279 . S
N716 C719 1.314 . S
C717 C714 1.348 . S
C717 C719 1.353 . S
C717 H773 0.929 . S
C718 C714 1.356 . S
C718 C715 1.358 . S
C718 H774 0.930 . S
C719 N716 1.314 . S
C719 C717 1.353 . S
C719 H775 0.955 . S
C720 N721 1.314 . S
C720 C725 1.353 . S
C720 H726 0.930 . S
N721 Li704 1.990 . S
N721 C720 1.314 . S
N721 C723 1.279 . S
C722 C723 1.358 . S
C722 C724 1.356 . S
C722 H776 0.930 . S
C723 N721 1.279 . S
C723 C722 1.358 . S
C723 H727 0.930 . S
C724 C722 1.356 . S
C724 C725 1.348 . S
C725 C720 1.353 . S
C725 C724 1.348 . S
C725 H777 0.929 . S
H726 C720 0.930 . S
H727 C723 0.930 . S
C728 N729 1.314 . S
C728 C730 1.353 . S
C728 H734 0.930 . S
N729 Li705 1.990 . S
N729 C728 1.314 . S
N729 C732 1.279 . S
C730 C728 1.353 . S
C730 C733 1.348 . S
C730 H778 0.929 . S
C731 C732 1.358 . S
C731 C733 1.356 . S
C731 H779 0.930 . S
C732 N729 1.279 . S
C732 C731 1.358 . S
C732 H735 0.930 . S
C733 C730 1.348 . S
C733 C731 1.356 . S
H734 C728 0.930 . S
H735 C732 0.930 . S
C736 C738 1.348 . S
C736 C739 1.356 . S
C736 O766 1.325 . S
N737 C740 1.314 . S
N737 C741 1.279 . S
C738 C736 1.348 . S
C738 C740 1.353 . S
C738 H780 0.929 . S
C739 C736 1.356 . S
C739 C741 1.358 . S
C739 H781 0.930 . S
C740 N737 1.314 . S
C740 C738 1.353 . S
C740 H782 0.930 . S
C741 N737 1.279 . S
C741 C739 1.358 . S
C741 H783 0.930 . S
C742 C743 1.348 . S
C742 C744 1.356 . S
C742 O767 1.325 . S
C743 C742 1.348 . S
C743 C745 1.353 . S
C743 H784 0.929 . S
C744 C742 1.356 . S
C744 C746 1.358 . S
C744 H785 0.930 . S
C745 C743 1.353 . S
C745 N747 1.314 . S
C745 H786 0.930 . S
C746 C744 1.358 . S
C746 N747 1.279 . S
C746 H787 0.930 . S
N747 C745 1.314 . S
N747 C746 1.279 . S
C748 C750 1.353 . S
C748 N751 1.314 . S
C748 H754 0.930 . S
C749 N751 1.279 . S
C749 C752 1.358 . S
C749 H755 0.930 . S
C750 C748 1.353 . S
C750 C753 1.348 . S
C750 H788 0.929 . S
N751 Li706 1.990 . S
N751 C748 1.314 . S
N751 C749 1.279 . S
C752 C749 1.358 . S
C752 C753 1.356 . S
C752 H789 0.930 . S
C753 C750 1.348 . S
C753 C752 1.356 . S
H754 C748 0.930 . S
H755 C749 0.930 . S
C756 N757 1.314 . S
C756 C758 1.353 . S
C756 H762 0.930 . S
N757 Li707 1.990 . S
N757 C756 1.314 . S
N757 C760 1.279 . S
C758 C756 1.353 . S
C758 C761 1.348 . S
C758 H790 0.929 . S
C759 C760 1.358 . S
C759 C761 1.356 . S
C759 H791 0.930 . S
C760 N757 1.279 . S
C760 C759 1.358 . S
C760 H763 0.930 . S
C761 C758 1.348 . S
C761 C759 1.356 . S
H762 C756 0.930 . S
H763 C760 0.930 . S
O764 Li704 1.956 . S
O764 Li705 1.970 . S
O764 Li706 1.961 . S
O764 C708 1.325 . S
O765 Li704 1.970 . S
O765 Li705 1.956 . S
O765 Li707 1.961 . S
O765 C714 1.325 . S
O766 Li704 1.961 . S
O766 Li706 1.956 . S
O766 Li707 1.970 . S
O766 C736 1.325 . S
O767 Li705 1.961 . S
O767 Li706 1.970 . S
O767 Li707 1.956 . S
O767 C742 1.325 . S
H768 C710 0.929 . S
H769 C711 0.930 . S
H770 C712 0.930 . S
H771 C713 0.930 . S
H772 C715 0.930 . S
H773 C717 0.929 . S
H774 C718 0.930 . S
H775 C719 0.955 . S
H776 C722 0.930 . S
H777 C725 0.929 . S
H778 C730 0.929 . S
H779 C731 0.930 . S
H780 C738 0.929 . S
H781 C739 0.930 . S
H782 C740 0.930 . S
H783 C741 0.930 . S
H784 C743 0.929 . S
H785 C744 0.930 . S
H786 C745 0.930 . S
H787 C746 0.930 . S
H788 C750 0.929 . S
H789 C752 0.930 . S
H790 C758 0.929 . S
H791 C759 0.930 . S
Li792 N809 1.990 . S
Li792 O852 1.956 . S
Li792 O853 1.970 . S
Li792 O854 1.961 . S
Li793 N817 1.990 . S
Li793 O852 1.970 . S
Li793 O853 1.956 . S
Li793 O855 1.961 . S
Li794 N839 1.990 . S
Li794 O852 1.961 . S
Li794 O854 1.956 . S
Li794 O855 1.970 . S
Li795 N845 1.990 . S
Li795 O853 1.961 . S
Li795 O854 1.970 . S
Li795 O855 1.956 . S
C796 C798 1.348 . S
C796 C799 1.356 . S
C796 O852 1.325 . S
N797 C800 1.314 . S
N797 C801 1.279 . S
C798 C796 1.348 . S
C798 C800 1.353 . S
C798 H856 0.929 . S
C799 C796 1.356 . S
C799 C801 1.358 . S
C799 H857 0.930 . S
C800 N797 1.314 . S
C800 C798 1.353 . S
C800 H858 0.930 . S
C801 N797 1.279 . S
C801 C799 1.358 . S
C801 H859 0.930 . S
C802 C805 1.348 . S
C802 C806 1.356 . S
C802 O853 1.325 . S
C803 N804 1.279 . S
C803 C806 1.358 . S
C803 H860 0.930 . S
N804 C803 1.279 . S
N804 C807 1.314 . S
C805 C802 1.348 . S
C805 C807 1.353 . S
C805 H861 0.929 . S
C806 C802 1.356 . S
C806 C803 1.358 . S
C806 H862 0.930 . S
C807 N804 1.314 . S
C807 C805 1.353 . S
C807 H863 0.930 . S
C808 N809 1.314 . S
C808 C813 1.353 . S
C808 H814 0.930 . S
N809 Li792 1.990 . S
N809 C808 1.314 . S
N809 C811 1.279 . S
C810 C811 1.358 . S
C810 C812 1.356 . S
C810 H864 0.930 . S
C811 N809 1.279 . S
C811 C810 1.358 . S
C811 H815 0.930 . S
C812 C810 1.356 . S
C812 C813 1.348 . S
C813 C808 1.353 . S
C813 C812 1.348 . S
C813 H865 0.929 . S
H814 C808 0.930 . S
H815 C811 0.930 . S
C816 N817 1.314 . S
C816 C818 1.353 . S
C816 H822 0.930 . S
N817 Li793 1.990 . S
N817 C816 1.314 . S
N817 C820 1.279 . S
C818 C816 1.353 . S
C818 C821 1.348 . S
C818 H866 0.929 . S
C819 C820 1.358 . S
C819 C821 1.356 . S
C819 H867 0.930 . S
C820 N817 1.279 . S
C820 C819 1.358 . S
C820 H823 0.930 . S
C821 C818 1.348 . S
C821 C819 1.356 . S
H822 C816 0.930 . S
H823 C820 0.930 . S
C824 C826 1.348 . S
C824 C827 1.356 . S
C824 O854 1.325 . S
N825 C828 1.314 . S
N825 C829 1.279 . S
C826 C824 1.348 . S
C826 C828 1.353 . S
C826 H868 0.929 . S
C827 C824 1.356 . S
C827 C829 1.358 . S
C827 H869 0.930 . S
C828 N825 1.314 . S
C828 C826 1.353 . S
C828 H870 0.930 . S
C829 N825 1.279 . S
C829 C827 1.358 . S
C829 H871 0.930 . S
C830 C831 1.348 . S
C830 C832 1.356 . S
C830 O855 1.325 . S
C831 C830 1.348 . S
C831 C833 1.353 . S
C831 H872 0.929 . S
C832 C830 1.356 . S
C832 C834 1.358 . S
C832 H873 0.930 . S
C833 C831 1.353 . S
C833 N835 1.314 . S
C833 H874 0.930 . S
C834 C832 1.358 . S
C834 N835 1.279 . S
C834 H875 0.930 . S
N835 C833 1.314 . S
N835 C834 1.279 . S
C836 C838 1.353 . S
C836 N839 1.314 . S
C836 H842 0.930 . S
C837 N839 1.279 . S
C837 C840 1.358 . S
C837 H843 0.930 . S
C838 C836 1.353 . S
C838 C841 1.348 . S
C838 H876 0.929 . S
N839 Li794 1.990 . S
N839 C836 1.314 . S
N839 C837 1.279 . S
C840 C837 1.358 . S
C840 C841 1.356 . S
C840 H877 0.930 . S
C841 C838 1.348 . S
C841 C840 1.356 . S
H842 C836 0.930 . S
H843 C837 0.930 . S
C844 N845 1.314 . S
C844 C846 1.353 . S
C844 H850 0.930 . S
N845 Li795 1.990 . S
N845 C844 1.314 . S
N845 C848 1.279 . S
C846 C844 1.353 . S
C846 C849 1.348 . S
C846 H878 0.929 . S
C847 C848 1.358 . S
C847 C849 1.356 . S
C847 H879 0.930 . S
C848 N845 1.279 . S
C848 C847 1.358 . S
C848 H851 0.930 . S
C849 C846 1.348 . S
C849 C847 1.356 . S
H850 C844 0.930 . S
H851 C848 0.930 . S
O852 Li792 1.956 . S
O852 Li793 1.970 . S
O852 Li794 1.961 . S
O852 C796 1.325 . S
O853 Li792 1.970 . S
O853 Li793 1.956 . S
O853 Li795 1.961 . S
O853 C802 1.325 . S
O854 Li792 1.961 . S
O854 Li794 1.956 . S
O854 Li795 1.970 . S
O854 C824 1.325 . S
O855 Li793 1.961 . S
O855 Li794 1.970 . S
O855 Li795 1.956 . S
O855 C830 1.325 . S
H856 C798 0.929 . S
H857 C799 0.930 . S
H858 C800 0.930 . S
H859 C801 0.930 . S
H860 C803 0.930 . S
H861 C805 0.929 . S
H862 C806 0.930 . S
H863 C807 0.930 . S
H864 C810 0.930 . S
H865 C813 0.929 . S
H866 C818 0.929 . S
H867 C819 0.930 . S
H868 C826 0.929 . S
H869 C827 0.930 . S
H870 C828 0.930 . S
H871 C829 0.930 . S
H872 C831 0.929 . S
H873 C832 0.930 . S
H874 C833 0.930 . S
H875 C834 0.930 . S
H876 C838 0.929 . S
H877 C840 0.930 . S
H878 C846 0.929 . S
H879 C847 0.930 . S
Li880 N897 1.990 . S
Li880 O940 1.956 . S
Li880 O941 1.970 . S
Li880 O942 1.961 . S
Li881 N905 1.990 . S
Li881 O940 1.970 . S
Li881 O941 1.956 . S
Li881 O943 1.961 . S
Li882 N927 1.990 . S
Li882 O940 1.961 . S
Li882 O942 1.956 . S
Li882 O943 1.970 . S
Li883 N933 1.990 . S
Li883 O941 1.961 . S
Li883 O942 1.970 . S
Li883 O943 1.956 . S
C884 C886 1.348 . S
C884 C887 1.356 . S
C884 O940 1.325 . S
N885 C888 1.314 . S
N885 C889 1.279 1_554 S
C886 C884 1.348 . S
C886 C888 1.353 . S
C886 H944 0.929 . S
C887 C884 1.356 . S
C887 C889 1.358 1_554 S
C887 H945 0.930 . S
C888 N885 1.314 . S
C888 C886 1.353 . S
C888 H946 0.930 . S
C889 N885 1.279 1_556 S
C889 C887 1.358 1_556 S
C889 H947 0.930 . S
C890 C893 1.348 . S
C890 C894 1.356 . S
C890 O941 1.325 . S
C891 N892 1.279 . S
C891 C894 1.358 . S
C891 H948 0.930 . S
N892 C891 1.279 . S
N892 C895 1.314 . S
C893 C890 1.348 . S
C893 C895 1.353 . S
C893 H949 0.929 . S
C894 C890 1.356 . S
C894 C891 1.358 . S
C894 H950 0.930 . S
C895 N892 1.314 . S
C895 C893 1.353 . S
C895 H951 0.930 . S
C896 N897 1.314 . S
C896 C901 1.353 . S
C896 H902 0.930 . S
N897 Li880 1.990 . S
N897 C896 1.314 . S
N897 C899 1.279 . S
C898 C899 1.358 . S
C898 C900 1.356 . S
C898 H952 0.930 . S
C899 N897 1.279 . S
C899 C898 1.358 . S
C899 H903 0.930 . S
C900 C898 1.356 . S
C900 C901 1.348 . S
C901 C896 1.353 . S
C901 C900 1.348 . S
C901 H953 0.929 . S
H902 C896 0.930 . S
H903 C899 0.930 . S
C904 N905 1.314 . S
C904 C906 1.353 . S
C904 H910 0.930 . S
N905 Li881 1.990 . S
N905 C904 1.314 . S
N905 C908 1.279 . S
C906 C904 1.353 . S
C906 C909 1.348 . S
C906 H954 0.929 . S
C907 C908 1.358 . S
C907 C909 1.356 . S
C907 H955 0.930 . S
C908 N905 1.279 . S
C908 C907 1.358 . S
C908 H911 0.930 . S
C909 C906 1.348 . S
C909 C907 1.356 . S
H910 C904 0.930 . S
H911 C908 0.930 . S
C912 C914 1.348 . S
C912 C915 1.356 . S
C912 O942 1.325 . S
N913 C916 1.314 . S
N913 C917 1.279 . S
C914 C912 1.348 . S
C914 C916 1.353 . S
C914 H956 0.929 . S
C915 C912 1.356 . S
C915 C917 1.358 . S
C915 H957 0.930 . S
C916 N913 1.314 . S
C916 C914 1.353 . S
C916 H958 0.955 . S
C917 N913 1.279 . S
C917 C915 1.358 . S
C917 H959 0.930 . S
C918 C919 1.348 . S
C918 C920 1.356 . S
C918 O943 1.325 . S
C919 C918 1.348 . S
C919 C921 1.353 . S
C919 H960 0.929 . S
C920 C918 1.356 . S
C920 C922 1.358 . S
C920 H961 0.930 . S
C921 C919 1.353 . S
C921 N923 1.314 . S
C921 H962 0.930 . S
C922 C920 1.358 . S
C922 N923 1.279 . S
C922 H963 0.930 . S
N923 C921 1.314 . S
N923 C922 1.279 . S
C924 C926 1.353 . S
C924 N927 1.314 1_556 S
C924 H930 0.930 . S
C925 N927 1.279 1_556 S
C925 C928 1.358 . S
C925 H931 0.930 1_556 S
C926 C924 1.353 . S
C926 C929 1.348 . S
C926 H964 0.929 . S
N927 Li882 1.990 . S
N927 C924 1.314 1_554 S
N927 C925 1.279 1_554 S
C928 C925 1.358 . S
C928 C929 1.356 . S
C928 H965 0.930 . S
C929 C926 1.348 . S
C929 C928 1.356 . S
H930 C924 0.930 . S
H931 C925 0.930 1_554 S
C932 N933 1.314 . S
C932 C934 1.353 . S
C932 H938 0.930 . S
N933 Li883 1.990 . S
N933 C932 1.314 . S
N933 C936 1.279 . S
C934 C932 1.353 . S
C934 C937 1.348 . S
C934 H966 0.929 . S
C935 C936 1.358 . S
C935 C937 1.356 . S
C935 H967 0.930 . S
C936 N933 1.279 . S
C936 C935 1.358 . S
C936 H939 0.930 . S
C937 C934 1.348 . S
C937 C935 1.356 . S
H938 C932 0.930 . S
H939 C936 0.930 . S
O940 Li880 1.956 . S
O940 Li881 1.970 . S
O940 Li882 1.961 . S
O940 C884 1.325 . S
O941 Li880 1.970 . S
O941 Li881 1.956 . S
O941 Li883 1.961 . S
O941 C890 1.325 . S
O942 Li880 1.961 . S
O942 Li882 1.956 . S
O942 Li883 1.970 . S
O942 C912 1.325 . S
O943 Li881 1.961 . S
O943 Li882 1.970 . S
O943 Li883 1.956 . S
O943 C918 1.325 . S
H944 C886 0.929 . S
H945 C887 0.930 . S
H946 C888 0.930 . S
H947 C889 0.930 . S
H948 C891 0.930 . S
H949 C893 0.929 . S
H950 C894 0.930 . S
H951 C895 0.930 . S
H952 C898 0.930 . S
H953 C901 0.929 . S
H954 C906 0.929 . S
H955 C907 0.930 . S
H956 C914 0.929 . S
H957 C915 0.930 . S
H958 C916 0.955 . S
H959 C917 0.930 . S
H960 C919 0.929 . S
H961 C920 0.930 . S
H962 C921 0.930 . S
H963 C922 0.930 . S
H964 C926 0.929 . S
H965 C928 0.930 . S
H966 C934 0.929 . S
H967 C935 0.930 . S
Li968 N985 1.990 . S
Li968 O1028 1.956 . S
Li968 O1029 1.970 . S
Li968 O1030 1.961 . S
Li969 N993 1.990 . S
Li969 O1028 1.970 . S
Li969 O1029 1.956 . S
Li969 O1031 1.961 . S
Li970 N1015 1.990 . S
Li970 O1028 1.961 . S
Li970 O1030 1.956 . S
Li970 O1031 1.970 . S
Li971 N1021 1.990 . S
Li971 O1029 1.961 . S
Li971 O1030 1.970 . S
Li971 O1031 1.956 . S
C972 C974 1.348 . S
C972 C975 1.356 . S
C972 O1028 1.325 . S
N973 C976 1.314 . S
N973 C977 1.279 . S
C974 C972 1.348 . S
C974 C976 1.353 . S
C974 H1032 0.929 . S
C975 C972 1.356 . S
C975 C977 1.358 . S
C975 H1033 0.930 . S
C976 N973 1.314 . S
C976 C974 1.353 . S
C976 H1034 0.930 . S
C977 N973 1.279 . S
C977 C975 1.358 . S
C977 H1035 0.930 . S
C978 C981 1.348 . S
C978 C982 1.356 . S
C978 O1029 1.325 . S
C979 N980 1.279 . S
C979 C982 1.358 . S
C979 H1036 0.930 . S
N980 C979 1.279 . S
N980 C983 1.314 . S
C981 C978 1.348 . S
C981 C983 1.353 . S
C981 H1037 0.929 . S
C982 C978 1.356 . S
C982 C979 1.358 . S
C982 H1038 0.930 . S
C983 N980 1.314 . S
C983 C981 1.353 . S
C983 H1039 0.930 . S
C984 N985 1.314 . S
C984 C989 1.353 . S
C984 H990 0.930 . S
N985 Li968 1.990 . S
N985 C984 1.314 . S
N985 C987 1.279 . S
C986 C987 1.358 . S
C986 C988 1.356 . S
C986 H1040 0.930 . S
C987 N985 1.279 . S
C987 C986 1.358 . S
C987 H991 0.930 . S
C988 C986 1.356 . S
C988 C989 1.348 . S
C989 C984 1.353 . S
C989 C988 1.348 . S
C989 H1041 0.929 . S
H990 C984 0.930 . S
H991 C987 0.930 . S
C992 N993 1.314 . S
C992 C994 1.353 . S
C992 H998 0.930 . S
N993 Li969 1.990 . S
N993 C992 1.314 . S
N993 C996 1.279 . S
C994 C992 1.353 . S
C994 C997 1.348 . S
C994 H1042 0.929 . S
C995 C996 1.358 . S
C995 C997 1.356 . S
C995 H1043 0.930 . S
C996 N993 1.279 . S
C996 C995 1.358 . S
C996 H999 0.930 . S
C997 C994 1.348 . S
C997 C995 1.356 . S
H998 C992 0.930 . S
H999 C996 0.930 . S
C1000 C1002 1.348 . S
C1000 C1003 1.356 . S
C1000 O1030 1.325 . S
N1001 C1004 1.314 . S
N1001 C1005 1.279 . S
C1002 C1000 1.348 . S
C1002 C1004 1.353 . S
C1002 H1044 0.929 . S
C1003 C1000 1.356 . S
C1003 C1005 1.358 . S
C1003 H1045 0.930 . S
C1004 N1001 1.314 . S
C1004 C1002 1.353 . S
C1004 H1046 0.930 . S
C1005 N1001 1.279 . S
C1005 C1003 1.358 . S
C1005 H1047 0.930 . S
C1006 C1007 1.348 . S
C1006 C1008 1.356 . S
C1006 O1031 1.325 . S
C1007 C1006 1.348 . S
C1007 C1009 1.353 . S
C1007 H1048 0.929 . S
C1008 C1006 1.356 . S
C1008 C1010 1.358 . S
C1008 H1049 0.930 . S
C1009 C1007 1.353 . S
C1009 N1011 1.314 . S
C1009 H1050 0.930 . S
C1010 C1008 1.358 . S
C1010 N1011 1.279 . S
C1010 H1051 0.930 . S
N1011 C1009 1.314 . S
N1011 C1010 1.279 . S
C1012 C1014 1.353 . S
C1012 N1015 1.314 . S
C1012 H1018 0.930 . S
C1013 N1015 1.279 . S
C1013 C1016 1.358 . S
C1013 H1019 0.930 . S
C1014 C1012 1.353 . S
C1014 C1017 1.348 . S
C1014 H1052 0.929 . S
N1015 Li970 1.990 . S
N1015 C1012 1.314 . S
N1015 C1013 1.279 . S
C1016 C1013 1.358 . S
C1016 C1017 1.356 . S
C1016 H1053 0.930 . S
C1017 C1014 1.348 . S
C1017 C1016 1.356 . S
H1018 C1012 0.930 . S
H1019 C1013 0.930 . S
C1020 N1021 1.314 . S
C1020 C1022 1.353 . S
C1020 H1026 0.930 . S
N1021 Li971 1.990 . S
N1021 C1020 1.314 . S
N1021 C1024 1.279 . S
C1022 C1020 1.353 . S
C1022 C1025 1.348 . S
C1022 H1054 0.929 . S
C1023 C1024 1.358 . S
C1023 C1025 1.356 . S
C1023 H1055 0.930 . S
C1024 N1021 1.279 . S
C1024 C1023 1.358 . S
C1024 H1027 0.930 . S
C1025 C1022 1.348 . S
C1025 C1023 1.356 . S
H1026 C1020 0.930 . S
H1027 C1024 0.930 . S
O1028 Li968 1.956 . S
O1028 Li969 1.970 . S
O1028 Li970 1.961 . S
O1028 C972 1.325 . S
O1029 Li968 1.970 . S
O1029 Li969 1.956 . S
O1029 Li971 1.961 . S
O1029 C978 1.325 . S
O1030 Li968 1.961 . S
O1030 Li970 1.956 . S
O1030 Li971 1.970 . S
O1030 C1000 1.325 . S
O1031 Li969 1.961 . S
O1031 Li970 1.970 . S
O1031 Li971 1.956 . S
O1031 C1006 1.325 . S
H1032 C974 0.929 . S
H1033 C975 0.930 . S
H1034 C976 0.930 . S
H1035 C977 0.930 . S
H1036 C979 0.930 . S
H1037 C981 0.929 . S
H1038 C982 0.930 . S
H1039 C983 0.930 . S
H1040 C986 0.930 . S
H1041 C989 0.929 . S
H1042 C994 0.929 . S
H1043 C995 0.930 . S
H1044 C1002 0.929 . S
H1045 C1003 0.930 . S
H1046 C1004 0.930 . S
H1047 C1005 0.930 . S
H1048 C1007 0.929 . S
H1049 C1008 0.930 . S
H1050 C1009 0.930 . S
H1051 C1010 0.930 . S
H1052 C1014 0.929 . S
H1053 C1016 0.930 . S
H1054 C1022 0.929 . S
H1055 C1023 0.930 . S
Li1056 N1073 1.990 . S
Li1056 O1116 1.956 . S
Li1056 O1117 1.970 . S
Li1056 O1118 1.961 . S
Li1057 N1081 1.990 . S
Li1057 O1116 1.970 . S
Li1057 O1117 1.956 . S
Li1057 O1119 1.961 . S
Li1058 N1103 1.990 . S
Li1058 O1116 1.961 . S
Li1058 O1118 1.956 . S
Li1058 O1119 1.970 . S
Li1059 N1109 1.990 . S
Li1059 O1117 1.961 . S
Li1059 O1118 1.970 . S
Li1059 O1119 1.956 . S
C1060 C1062 1.348 . S
C1060 C1063 1.356 . S
C1060 O1116 1.325 . S
N1061 C1064 1.314 . S
N1061 C1065 1.279 1_556 S
C1062 C1060 1.348 . S
C1062 C1064 1.353 . S
C1062 H1120 0.929 . S
C1063 C1060 1.356 . S
C1063 C1065 1.358 1_556 S
C1063 H1121 0.930 . S
C1064 N1061 1.314 . S
C1064 C1062 1.353 . S
C1064 H1122 0.930 . S
C1065 N1061 1.279 1_554 S
C1065 C1063 1.358 1_554 S
C1065 H1123 0.930 . S
C1066 C1069 1.348 . S
C1066 C1070 1.356 . S
C1066 O1117 1.325 . S
C1067 N1068 1.279 . S
C1067 C1070 1.358 . S
C1067 H1124 0.930 . S
N1068 C1067 1.279 . S
N1068 C1071 1.314 . S
C1069 C1066 1.348 . S
C1069 C1071 1.353 . S
C1069 H1125 0.929 . S
C1070 C1066 1.356 . S
C1070 C1067 1.358 . S
C1070 H1126 0.930 . S
C1071 N1068 1.314 . S
C1071 C1069 1.353 . S
C1071 H1127 0.930 . S
C1072 N1073 1.314 . S
C1072 C1077 1.353 . S
C1072 H1078 0.930 . S
N1073 Li1056 1.990 . S
N1073 C1072 1.314 . S
N1073 C1075 1.279 . S
C1074 C1075 1.358 . S
C1074 C1076 1.356 . S
C1074 H1128 0.930 . S
C1075 N1073 1.279 . S
C1075 C1074 1.358 . S
C1075 H1079 0.930 . S
C1076 C1074 1.356 . S
C1076 C1077 1.348 . S
C1077 C1072 1.353 . S
C1077 C1076 1.348 . S
C1077 H1129 0.929 . S
H1078 C1072 0.930 . S
H1079 C1075 0.930 . S
C1080 N1081 1.314 . S
C1080 C1082 1.353 . S
C1080 H1086 0.930 . S
N1081 Li1057 1.990 . S
N1081 C1080 1.314 . S
N1081 C1084 1.279 . S
C1082 C1080 1.353 . S
C1082 C1085 1.348 . S
C1082 H1130 0.929 . S
C1083 C1084 1.358 . S
C1083 C1085 1.356 . S
C1083 H1131 0.930 . S
C1084 N1081 1.279 . S
C1084 C1083 1.358 . S
C1084 H1087 0.930 . S
C1085 C1082 1.348 . S
C1085 C1083 1.356 . S
H1086 C1080 0.930 . S
H1087 C1084 0.930 . S
C1088 C1090 1.348 . S
C1088 C1091 1.356 . S
C1088 O1118 1.325 . S
N1089 C1092 1.314 . S
N1089 C1093 1.279 . S
C1090 C1088 1.348 . S
C1090 C1092 1.353 . S
C1090 H1132 0.929 . S
C1091 C1088 1.356 . S
C1091 C1093 1.358 . S
C1091 H1133 0.930 . S
C1092 N1089 1.314 . S
C1092 C1090 1.353 . S
C1092 H1134 0.955 . S
C1093 N1089 1.279 . S
C1093 C1091 1.358 . S
C1093 H1135 0.930 . S
C1094 C1095 1.348 . S
C1094 C1096 1.356 . S
C1094 O1119 1.325 . S
C1095 C1094 1.348 . S
C1095 C1097 1.353 . S
C1095 H1136 0.929 . S
C1096 C1094 1.356 . S
C1096 C1098 1.358 . S
C1096 H1137 0.930 . S
C1097 C1095 1.353 . S
C1097 N1099 1.314 . S
C1097 H1138 0.930 . S
C1098 C1096 1.358 . S
C1098 N1099 1.279 . S
C1098 H1139 0.930 . S
N1099 C1097 1.314 . S
N1099 C1098 1.279 . S
C1100 C1102 1.353 . S
C1100 N1103 1.314 1_554 S
C1100 H1106 0.930 . S
C1101 N1103 1.279 1_554 S
C1101 C1104 1.358 . S
C1101 H1107 0.930 1_554 S
C1102 C1100 1.353 . S
C1102 C1105 1.348 . S
C1102 H1140 0.929 . S
N1103 Li1058 1.990 . S
N1103 C1100 1.314 1_556 S
N1103 C1101 1.279 1_556 S
C1104 C1101 1.358 . S
C1104 C1105 1.356 . S
C1104 H1141 0.930 . S
C1105 C1102 1.348 . S
C1105 C1104 1.356 . S
H1106 C1100 0.930 . S
H1107 C1101 0.930 1_556 S
C1108 N1109 1.314 . S
C1108 C1110 1.353 . S
C1108 H1114 0.930 . S
N1109 Li1059 1.990 . S
N1109 C1108 1.314 . S
N1109 C1112 1.279 . S
C1110 C1108 1.353 . S
C1110 C1113 1.348 . S
C1110 H1142 0.929 . S
C1111 C1112 1.358 . S
C1111 C1113 1.356 . S
C1111 H1143 0.930 . S
C1112 N1109 1.279 . S
C1112 C1111 1.358 . S
C1112 H1115 0.930 . S
C1113 C1110 1.348 . S
C1113 C1111 1.356 . S
H1114 C1108 0.930 . S
H1115 C1112 0.930 . S
O1116 Li1056 1.956 . S
O1116 Li1057 1.970 . S
O1116 Li1058 1.961 . S
O1116 C1060 1.325 . S
O1117 Li1056 1.970 . S
O1117 Li1057 1.956 . S
O1117 Li1059 1.961 . S
O1117 C1066 1.325 . S
O1118 Li1056 1.961 . S
O1118 Li1058 1.956 . S
O1118 Li1059 1.970 . S
O1118 C1088 1.325 . S
O1119 Li1057 1.961 . S
O1119 Li1058 1.970 . S
O1119 Li1059 1.956 . S
O1119 C1094 1.325 . S
H1120 C1062 0.929 . S
H1121 C1063 0.930 . S
H1122 C1064 0.930 . S
H1123 C1065 0.930 . S
H1124 C1067 0.930 . S
H1125 C1069 0.929 . S
H1126 C1070 0.930 . S
H1127 C1071 0.930 . S
H1128 C1074 0.930 . S
H1129 C1077 0.929 . S
H1130 C1082 0.929 . S
H1131 C1083 0.930 . S
H1132 C1090 0.929 . S
H1133 C1091 0.930 . S
H1134 C1092 0.955 . S
H1135 C1093 0.930 . S
H1136 C1095 0.929 . S
H1137 C1096 0.930 . S
H1138 C1097 0.930 . S
H1139 C1098 0.930 . S
H1140 C1102 0.929 . S
H1141 C1104 0.930 . S
H1142 C1110 0.929 . S
H1143 C1111 0.930 . S
Li1144 N1161 1.990 . S
Li1144 O1204 1.956 . S
Li1144 O1205 1.970 . S
Li1144 O1206 1.961 . S
Li1145 N1169 1.990 . S
Li1145 O1204 1.970 . S
Li1145 O1205 1.956 . S
Li1145 O1207 1.961 . S
Li1146 N1191 1.990 . S
Li1146 O1204 1.961 . S
Li1146 O1206 1.956 . S
Li1146 O1207 1.970 . S
Li1147 N1197 1.990 . S
Li1147 O1205 1.961 . S
Li1147 O1206 1.970 . S
Li1147 O1207 1.956 . S
C1148 C1150 1.348 . S
C1148 C1151 1.356 . S
C1148 O1204 1.325 . S
N1149 C1152 1.314 . S
N1149 C1153 1.279 . S
C1150 C1148 1.348 . S
C1150 C1152 1.353 . S
C1150 H1208 0.929 . S
C1151 C1148 1.356 . S
C1151 C1153 1.358 . S
C1151 H1209 0.930 . S
C1152 N1149 1.314 . S
C1152 C1150 1.353 . S
C1152 H1210 0.930 . S
C1153 N1149 1.279 . S
C1153 C1151 1.358 . S
C1153 H1211 0.930 . S
C1154 C1157 1.348 . S
C1154 C1158 1.356 . S
C1154 O1205 1.325 . S
C1155 N1156 1.279 . S
C1155 C1158 1.358 . S
C1155 H1212 0.930 . S
N1156 C1155 1.279 . S
N1156 C1159 1.314 . S
C1157 C1154 1.348 . S
C1157 C1159 1.353 . S
C1157 H1213 0.929 . S
C1158 C1154 1.356 . S
C1158 C1155 1.358 . S
C1158 H1214 0.930 . S
C1159 N1156 1.314 . S
C1159 C1157 1.353 . S
C1159 H1215 0.930 . S
C1160 N1161 1.314 . S
C1160 C1165 1.353 . S
C1160 H1166 0.930 . S
N1161 Li1144 1.990 . S
N1161 C1160 1.314 . S
N1161 C1163 1.279 . S
C1162 C1163 1.358 . S
C1162 C1164 1.356 . S
C1162 H1216 0.930 . S
C1163 N1161 1.279 . S
C1163 C1162 1.358 . S
C1163 H1167 0.930 . S
C1164 C1162 1.356 . S
C1164 C1165 1.348 . S
C1165 C1160 1.353 . S
C1165 C1164 1.348 . S
C1165 H1217 0.929 . S
H1166 C1160 0.930 . S
H1167 C1163 0.930 . S
C1168 N1169 1.314 . S
C1168 C1170 1.353 . S
C1168 H1174 0.930 . S
N1169 Li1145 1.990 . S
N1169 C1168 1.314 . S
N1169 C1172 1.279 . S
C1170 C1168 1.353 . S
C1170 C1173 1.348 . S
C1170 H1218 0.929 . S
C1171 C1172 1.358 . S
C1171 C1173 1.356 . S
C1171 H1219 0.930 . S
C1172 N1169 1.279 . S
C1172 C1171 1.358 . S
C1172 H1175 0.930 . S
C1173 C1170 1.348 . S
C1173 C1171 1.356 . S
H1174 C1168 0.930 . S
H1175 C1172 0.930 . S
C1176 C1178 1.348 . S
C1176 C1179 1.356 . S
C1176 O1206 1.325 . S
N1177 C1180 1.314 . S
N1177 C1181 1.279 . S
C1178 C1176 1.348 . S
C1178 C1180 1.353 . S
C1178 H1220 0.929 . S
C1179 C1176 1.356 . S
C1179 C1181 1.358 . S
C1179 H1221 0.930 . S
C1180 N1177 1.314 . S
C1180 C1178 1.353 . S
C1180 H1222 0.930 . S
C1181 N1177 1.279 . S
C1181 C1179 1.358 . S
C1181 H1223 0.930 . S
C1182 C1183 1.348 . S
C1182 C1184 1.356 . S
C1182 O1207 1.325 . S
C1183 C1182 1.348 . S
C1183 C1185 1.353 . S
C1183 H1224 0.929 . S
C1184 C1182 1.356 . S
C1184 C1186 1.358 . S
C1184 H1225 0.930 . S
C1185 C1183 1.353 . S
C1185 N1187 1.314 . S
C1185 H1226 0.930 . S
C1186 C1184 1.358 . S
C1186 N1187 1.279 . S
C1186 H1227 0.930 . S
N1187 C1185 1.314 . S
N1187 C1186 1.279 . S
C1188 C1190 1.353 . S
C1188 N1191 1.314 . S
C1188 H1194 0.930 . S
C1189 N1191 1.279 . S
C1189 C1192 1.358 . S
C1189 H1195 0.930 . S
C1190 C1188 1.353 . S
C1190 C1193 1.348 . S
C1190 H1228 0.929 . S
N1191 Li1146 1.990 . S
N1191 C1188 1.314 . S
N1191 C1189 1.279 . S
C1192 C1189 1.358 . S
C1192 C1193 1.356 . S
C1192 H1229 0.930 . S
C1193 C1190 1.348 . S
C1193 C1192 1.356 . S
H1194 C1188 0.930 . S
H1195 C1189 0.930 . S
C1196 N1197 1.314 . S
C1196 C1198 1.353 . S
C1196 H1202 0.930 . S
N1197 Li1147 1.990 . S
N1197 C1196 1.314 . S
N1197 C1200 1.279 . S
C1198 C1196 1.353 . S
C1198 C1201 1.348 . S
C1198 H1230 0.929 . S
C1199 C1200 1.358 . S
C1199 C1201 1.356 . S
C1199 H1231 0.930 . S
C1200 N1197 1.279 . S
C1200 C1199 1.358 . S
C1200 H1203 0.930 . S
C1201 C1198 1.348 . S
C1201 C1199 1.356 . S
H1202 C1196 0.930 . S
H1203 C1200 0.930 . S
O1204 Li1144 1.956 . S
O1204 Li1145 1.970 . S
O1204 Li1146 1.961 . S
O1204 C1148 1.325 . S
O1205 Li1144 1.970 . S
O1205 Li1145 1.956 . S
O1205 Li1147 1.961 . S
O1205 C1154 1.325 . S
O1206 Li1144 1.961 . S
O1206 Li1146 1.956 . S
O1206 Li1147 1.970 . S
O1206 C1176 1.325 . S
O1207 Li1145 1.961 . S
O1207 Li1146 1.970 . S
O1207 Li1147 1.956 . S
O1207 C1182 1.325 . S
H1208 C1150 0.929 . S
H1209 C1151 0.930 . S
H1210 C1152 0.930 . S
H1211 C1153 0.930 . S
H1212 C1155 0.930 . S
H1213 C1157 0.929 . S
H1214 C1158 0.930 . S
H1215 C1159 0.930 . S
H1216 C1162 0.930 . S
H1217 C1165 0.929 . S
H1218 C1170 0.929 . S
H1219 C1171 0.930 . S
H1220 C1178 0.929 . S
H1221 C1179 0.930 . S
H1222 C1180 0.930 . S
H1223 C1181 0.930 . S
H1224 C1183 0.929 . S
H1225 C1184 0.930 . S
H1226 C1185 0.930 . S
H1227 C1186 0.930 . S
H1228 C1190 0.929 . S
H1229 C1192 0.930 . S
H1230 C1198 0.929 . S
H1231 C1199 0.930 . S
Li1232 N1249 1.990 . S
Li1232 O1292 1.956 . S
Li1232 O1293 1.970 . S
Li1232 O1294 1.961 . S
Li1233 N1257 1.990 . S
Li1233 O1292 1.970 . S
Li1233 O1293 1.956 . S
Li1233 O1295 1.961 . S
Li1234 N1279 1.990 . S
Li1234 O1292 1.961 . S
Li1234 O1294 1.956 . S
Li1234 O1295 1.970 . S
Li1235 N1285 1.990 . S
Li1235 O1293 1.961 . S
Li1235 O1294 1.970 . S
Li1235 O1295 1.956 . S
C1236 C1238 1.348 . S
C1236 C1239 1.356 . S
C1236 O1292 1.325 . S
N1237 C1240 1.314 . S
N1237 C1241 1.279 . S
C1238 C1236 1.348 . S
C1238 C1240 1.353 . S
C1238 H1296 0.929 . S
C1239 C1236 1.356 . S
C1239 C1241 1.358 . S
C1239 H1297 0.930 . S
C1240 N1237 1.314 . S
C1240 C1238 1.353 . S
C1240 H1298 0.930 . S
C1241 N1237 1.279 . S
C1241 C1239 1.358 . S
C1241 H1299 0.930 . S
C1242 C1245 1.348 . S
C1242 C1246 1.356 . S
C1242 O1293 1.325 . S
C1243 N1244 1.279 . S
C1243 C1246 1.358 . S
C1243 H1300 0.930 . S
N1244 C1243 1.279 . S
N1244 C1247 1.314 . S
C1245 C1242 1.348 . S
C1245 C1247 1.353 . S
C1245 H1301 0.929 . S
C1246 C1242 1.356 . S
C1246 C1243 1.358 . S
C1246 H1302 0.930 . S
C1247 N1244 1.314 . S
C1247 C1245 1.353 . S
C1247 H1303 0.955 . S
C1248 N1249 1.314 . S
C1248 C1253 1.353 . S
C1248 H1254 0.930 . S
N1249 Li1232 1.990 . S
N1249 C1248 1.314 . S
N1249 C1251 1.279 . S
C1250 C1251 1.358 . S
C1250 C1252 1.356 . S
C1250 H1304 0.930 . S
C1251 N1249 1.279 . S
C1251 C1250 1.358 . S
C1251 H1255 0.930 . S
C1252 C1250 1.356 . S
C1252 C1253 1.348 . S
C1253 C1248 1.353 . S
C1253 C1252 1.348 . S
C1253 H1305 0.929 . S
H1254 C1248 0.930 . S
H1255 C1251 0.930 . S
C1256 N1257 1.314 . S
C1256 C1258 1.353 . S
C1256 H1262 0.930 . S
N1257 Li1233 1.990 . S
N1257 C1256 1.314 . S
N1257 C1260 1.279 . S
C1258 C1256 1.353 . S
C1258 C1261 1.348 . S
C1258 H1306 0.929 . S
C1259 C1260 1.358 . S
C1259 C1261 1.356 . S
C1259 H1307 0.930 . S
C1260 N1257 1.279 . S
C1260 C1259 1.358 . S
C1260 H1263 0.930 . S
C1261 C1258 1.348 . S
C1261 C1259 1.356 . S
H1262 C1256 0.930 . S
H1263 C1260 0.930 . S
C1264 C1266 1.348 . S
C1264 C1267 1.356 . S
C1264 O1294 1.325 . S
N1265 C1268 1.314 . S
N1265 C1269 1.279 . S
C1266 C1264 1.348 . S
C1266 C1268 1.353 . S
C1266 H1308 0.929 . S
C1267 C1264 1.356 . S
C1267 C1269 1.358 . S
C1267 H1309 0.930 . S
C1268 N1265 1.314 . S
C1268 C1266 1.353 . S
C1268 H1310 0.930 . S
C1269 N1265 1.279 . S
C1269 C1267 1.358 . S
C1269 H1311 0.930 . S
C1270 C1271 1.348 . S
C1270 C1272 1.356 . S
C1270 O1295 1.325 . S
C1271 C1270 1.348 . S
C1271 C1273 1.353 . S
C1271 H1312 0.929 . S
C1272 C1270 1.356 . S
C1272 C1274 1.358 . S
C1272 H1313 0.930 . S
C1273 C1271 1.353 . S
C1273 N1275 1.314 . S
C1273 H1314 0.930 . S
C1274 C1272 1.358 . S
C1274 N1275 1.279 . S
C1274 H1315 0.930 . S
N1275 C1273 1.314 . S
N1275 C1274 1.279 . S
C1276 C1278 1.353 . S
C1276 N1279 1.314 . S
C1276 H1282 0.930 . S
C1277 N1279 1.279 . S
C1277 C1280 1.358 . S
C1277 H1283 0.930 . S
C1278 C1276 1.353 . S
C1278 C1281 1.348 . S
C1278 H1316 0.929 . S
N1279 Li1234 1.990 . S
N1279 C1276 1.314 . S
N1279 C1277 1.279 . S
C1280 C1277 1.358 . S
C1280 C1281 1.356 . S
C1280 H1317 0.930 . S
C1281 C1278 1.348 . S
C1281 C1280 1.356 . S
H1282 C1276 0.930 . S
H1283 C1277 0.930 . S
C1284 N1285 1.314 . S
C1284 C1286 1.353 . S
C1284 H1290 0.930 . S
N1285 Li1235 1.990 . S
N1285 C1284 1.314 . S
N1285 C1288 1.279 . S
C1286 C1284 1.353 . S
C1286 C1289 1.348 . S
C1286 H1318 0.929 . S
C1287 C1288 1.358 . S
C1287 C1289 1.356 . S
C1287 H1319 0.930 . S
C1288 N1285 1.279 . S
C1288 C1287 1.358 . S
C1288 H1291 0.930 . S
C1289 C1286 1.348 . S
C1289 C1287 1.356 . S
H1290 C1284 0.930 . S
H1291 C1288 0.930 . S
O1292 Li1232 1.956 . S
O1292 Li1233 1.970 . S
O1292 Li1234 1.961 . S
O1292 C1236 1.325 . S
O1293 Li1232 1.970 . S
O1293 Li1233 1.956 . S
O1293 Li1235 1.961 . S
O1293 C1242 1.325 . S
O1294 Li1232 1.961 . S
O1294 Li1234 1.956 . S
O1294 Li1235 1.970 . S
O1294 C1264 1.325 . S
O1295 Li1233 1.961 . S
O1295 Li1234 1.970 . S
O1295 Li1235 1.956 . S
O1295 C1270 1.325 . S
H1296 C1238 0.929 . S
H1297 C1239 0.930 . S
H1298 C1240 0.930 . S
H1299 C1241 0.930 . S
H1300 C1243 0.930 . S
H1301 C1245 0.929 . S
H1302 C1246 0.930 . S
H1303 C1247 0.955 . S
H1304 C1250 0.930 . S
H1305 C1253 0.929 . S
H1306 C1258 0.929 . S
H1307 C1259 0.930 . S
H1308 C1266 0.929 . S
H1309 C1267 0.930 . S
H1310 C1268 0.930 . S
H1311 C1269 0.930 . S
H1312 C1271 0.929 . S
H1313 C1272 0.930 . S
H1314 C1273 0.930 . S
H1315 C1274 0.930 . S
H1316 C1278 0.929 . S
H1317 C1280 0.930 . S
H1318 C1286 0.929 . S
H1319 C1287 0.930 . S
Li1320 N1337 1.990 . S
Li1320 O1380 1.956 . S
Li1320 O1381 1.970 . S
Li1320 O1382 1.961 . S
Li1321 N1345 1.990 . S
Li1321 O1380 1.970 . S
Li1321 O1381 1.956 . S
Li1321 O1383 1.961 . S
Li1322 N1367 1.990 . S
Li1322 O1380 1.961 . S
Li1322 O1382 1.956 . S
Li1322 O1383 1.970 . S
Li1323 N1373 1.990 . S
Li1323 O1381 1.961 . S
Li1323 O1382 1.970 . S
Li1323 O1383 1.956 . S
C1324 C1326 1.348 . S
C1324 C1327 1.356 . S
C1324 O1380 1.325 . S
N1325 C1328 1.314 . S
N1325 C1329 1.279 . S
C1326 C1324 1.348 . S
C1326 C1328 1.353 . S
C1326 H1384 0.929 . S
C1327 C1324 1.356 . S
C1327 C1329 1.358 . S
C1327 H1385 0.930 . S
C1328 N1325 1.314 . S
C1328 C1326 1.353 . S
C1328 H1386 0.930 . S
C1329 N1325 1.279 . S
C1329 C1327 1.358 . S
C1329 H1387 0.930 . S
C1330 C1333 1.348 . S
C1330 C1334 1.356 . S
C1330 O1381 1.325 . S
C1331 N1332 1.279 . S
C1331 C1334 1.358 . S
C1331 H1388 0.930 . S
N1332 C1331 1.279 . S
N1332 C1335 1.314 . S
C1333 C1330 1.348 . S
C1333 C1335 1.353 . S
C1333 H1389 0.929 . S
C1334 C1330 1.356 . S
C1334 C1331 1.358 . S
C1334 H1390 0.930 . S
C1335 N1332 1.314 . S
C1335 C1333 1.353 . S
C1335 H1391 0.930 . S
C1336 N1337 1.314 . S
C1336 C1341 1.353 . S
C1336 H1342 0.930 . S
N1337 Li1320 1.990 . S
N1337 C1336 1.314 . S
N1337 C1339 1.279 . S
C1338 C1339 1.358 . S
C1338 C1340 1.356 . S
C1338 H1392 0.930 . S
C1339 N1337 1.279 . S
C1339 C1338 1.358 . S
C1339 H1343 0.930 . S
C1340 C1338 1.356 . S
C1340 C1341 1.348 . S
C1341 C1336 1.353 . S
C1341 C1340 1.348 . S
C1341 H1393 0.929 . S
H1342 C1336 0.930 . S
H1343 C1339 0.930 . S
C1344 N1345 1.314 . S
C1344 C1346 1.353 . S
C1344 H1350 0.930 . S
N1345 Li1321 1.990 . S
N1345 C1344 1.314 . S
N1345 C1348 1.279 . S
C1346 C1344 1.353 . S
C1346 C1349 1.348 . S
C1346 H1394 0.929 . S
C1347 C1348 1.358 . S
C1347 C1349 1.356 . S
C1347 H1395 0.930 . S
C1348 N1345 1.279 . S
C1348 C1347 1.358 . S
C1348 H1351 0.930 . S
C1349 C1346 1.348 . S
C1349 C1347 1.356 . S
H1350 C1344 0.930 . S
H1351 C1348 0.930 . S
C1352 C1354 1.348 . S
C1352 C1355 1.356 . S
C1352 O1382 1.325 . S
N1353 C1356 1.314 . S
N1353 C1357 1.279 . S
C1354 C1352 1.348 . S
C1354 C1356 1.353 . S
C1354 H1396 0.929 . S
C1355 C1352 1.356 . S
C1355 C1357 1.358 . S
C1355 H1397 0.930 . S
C1356 N1353 1.314 . S
C1356 C1354 1.353 . S
C1356 H1398 0.930 . S
C1357 N1353 1.279 . S
C1357 C1355 1.358 . S
C1357 H1399 0.930 . S
C1358 C1359 1.348 . S
C1358 C1360 1.356 . S
C1358 O1383 1.325 . S
C1359 C1358 1.348 . S
C1359 C1361 1.353 . S
C1359 H1400 0.929 . S
C1360 C1358 1.356 . S
C1360 C1362 1.358 . S
C1360 H1401 0.930 . S
C1361 C1359 1.353 . S
C1361 N1363 1.314 . S
C1361 H1402 0.930 . S
C1362 C1360 1.358 . S
C1362 N1363 1.279 . S
C1362 H1403 0.930 . S
N1363 C1361 1.314 . S
N1363 C1362 1.279 . S
C1364 C1366 1.353 . S
C1364 N1367 1.314 . S
C1364 H1370 0.930 . S
C1365 N1367 1.279 . S
C1365 C1368 1.358 . S
C1365 H1371 0.930 . S
C1366 C1364 1.353 . S
C1366 C1369 1.348 . S
C1366 H1404 0.929 . S
N1367 Li1322 1.990 . S
N1367 C1364 1.314 . S
N1367 C1365 1.279 . S
C1368 C1365 1.358 . S
C1368 C1369 1.356 . S
C1368 H1405 0.930 . S
C1369 C1366 1.348 . S
C1369 C1368 1.356 . S
H1370 C1364 0.930 . S
H1371 C1365 0.930 . S
C1372 N1373 1.314 . S
C1372 C1374 1.353 . S
C1372 H1378 0.930 . S
N1373 Li1323 1.990 . S
N1373 C1372 1.314 . S
N1373 C1376 1.279 . S
C1374 C1372 1.353 . S
C1374 C1377 1.348 . S
C1374 H1406 0.929 . S
C1375 C1376 1.358 . S
C1375 C1377 1.356 . S
C1375 H1407 0.930 . S
C1376 N1373 1.279 . S
C1376 C1375 1.358 . S
C1376 H1379 0.930 . S
C1377 C1374 1.348 . S
C1377 C1375 1.356 . S
H1378 C1372 0.930 . S
H1379 C1376 0.930 . S
O1380 Li1320 1.956 . S
O1380 Li1321 1.970 . S
O1380 Li1322 1.961 . S
O1380 C1324 1.325 . S
O1381 Li1320 1.970 . S
O1381 Li1321 1.956 . S
O1381 Li1323 1.961 . S
O1381 C1330 1.325 . S
O1382 Li1320 1.961 . S
O1382 Li1322 1.956 . S
O1382 Li1323 1.970 . S
O1382 C1352 1.325 . S
O1383 Li1321 1.961 . S
O1383 Li1322 1.970 . S
O1383 Li1323 1.956 . S
O1383 C1358 1.325 . S
H1384 C1326 0.929 . S
H1385 C1327 0.930 . S
H1386 C1328 0.930 . S
H1387 C1329 0.930 . S
H1388 C1331 0.930 . S
H1389 C1333 0.929 . S
H1390 C1334 0.930 . S
H1391 C1335 0.930 . S
H1392 C1338 0.930 . S
H1393 C1341 0.929 . S
H1394 C1346 0.929 . S
H1395 C1347 0.930 . S
H1396 C1354 0.929 . S
H1397 C1355 0.930 . S
H1398 C1356 0.930 . S
H1399 C1357 0.930 . S
H1400 C1359 0.929 . S
H1401 C1360 0.930 . S
H1402 C1361 0.930 . S
H1403 C1362 0.930 . S
H1404 C1366 0.929 . S
H1405 C1368 0.930 . S
H1406 C1374 0.929 . S
H1407 C1375 0.930 . S
Li1408 N1425 1.990 . S
Li1408 O1468 1.956 . S
Li1408 O1469 1.970 . S
Li1408 O1470 1.961 . S
Li1409 N1433 1.990 . S
Li1409 O1468 1.970 . S
Li1409 O1469 1.956 . S
Li1409 O1471 1.961 . S
Li1410 N1455 1.990 . S
Li1410 O1468 1.961 . S
Li1410 O1470 1.956 . S
Li1410 O1471 1.970 . S
Li1411 N1461 1.990 . S
Li1411 O1469 1.961 . S
Li1411 O1470 1.970 . S
Li1411 O1471 1.956 . S
C1412 C1414 1.348 . S
C1412 C1415 1.356 . S
C1412 O1468 1.325 . S
N1413 C1416 1.314 1_556 S
N1413 C1417 1.279 . S
C1414 C1412 1.348 . S
C1414 C1416 1.353 1_556 S
C1414 H1472 0.929 . S
C1415 C1412 1.356 . S
C1415 C1417 1.358 . S
C1415 H1473 0.930 . S
C1416 N1413 1.314 1_554 S
C1416 C1414 1.353 1_554 S
C1416 H1474 0.930 . S
C1417 N1413 1.279 . S
C1417 C1415 1.358 . S
C1417 H1475 0.930 . S
C1418 C1421 1.348 . S
C1418 C1422 1.356 . S
C1418 O1469 1.325 . S
C1419 N1420 1.279 . S
C1419 C1422 1.358 . S
C1419 H1476 0.930 . S
N1420 C1419 1.279 . S
N1420 C1423 1.314 . S
C1421 C1418 1.348 . S
C1421 C1423 1.353 . S
C1421 H1477 0.929 . S
C1422 C1418 1.356 . S
C1422 C1419 1.358 . S
C1422 H1478 0.930 . S
C1423 N1420 1.314 . S
C1423 C1421 1.353 . S
C1423 H1479 0.930 . S
C1424 N1425 1.314 . S
C1424 C1429 1.353 . S
C1424 H1430 0.930 . S
N1425 Li1408 1.990 . S
N1425 C1424 1.314 . S
N1425 C1427 1.279 . S
C1426 C1427 1.358 . S
C1426 C1428 1.356 . S
C1426 H1480 0.930 . S
C1427 N1425 1.279 . S
C1427 C1426 1.358 . S
C1427 H1431 0.930 . S
C1428 C1426 1.356 . S
C1428 C1429 1.348 . S
C1429 C1424 1.353 . S
C1429 C1428 1.348 . S
C1429 H1481 0.929 . S
H1430 C1424 0.930 . S
H1431 C1427 0.930 . S
C1432 N1433 1.314 1_554 S
C1432 C1434 1.353 . S
C1432 H1438 0.930 1_554 S
N1433 Li1409 1.990 . S
N1433 C1432 1.314 1_556 S
N1433 C1436 1.279 1_556 S
C1434 C1432 1.353 . S
C1434 C1437 1.348 . S
C1434 H1482 0.929 . S
C1435 C1436 1.358 . S
C1435 C1437 1.356 . S
C1435 H1483 0.930 . S
C1436 N1433 1.279 1_554 S
C1436 C1435 1.358 . S
C1436 H1439 0.930 . S
C1437 C1434 1.348 . S
C1437 C1435 1.356 . S
H1438 C1432 0.930 1_556 S
H1439 C1436 0.930 . S
C1440 C1442 1.348 . S
C1440 C1443 1.356 . S
C1440 O1470 1.325 . S
N1441 C1444 1.314 . S
N1441 C1445 1.279 . S
C1442 C1440 1.348 . S
C1442 C1444 1.353 . S
C1442 H1484 0.929 . S
C1443 C1440 1.356 . S
C1443 C1445 1.358 . S
C1443 H1485 0.930 . S
C1444 N1441 1.314 . S
C1444 C1442 1.353 . S
C1444 H1486 0.930 . S
C1445 N1441 1.279 . S
C1445 C1443 1.358 . S
C1445 H1487 0.930 . S
C1446 C1447 1.348 . S
C1446 C1448 1.356 . S
C1446 O1471 1.325 . S
C1447 C1446 1.348 . S
C1447 C1449 1.353 . S
C1447 H1488 0.929 . S
C1448 C1446 1.356 . S
C1448 C1450 1.358 . S
C1448 H1489 0.930 . S
C1449 C1447 1.353 . S
C1449 N1451 1.314 . S
C1449 H1490 0.930 . S
C1450 C1448 1.358 . S
C1450 N1451 1.279 . S
C1450 H1491 0.930 . S
N1451 C1449 1.314 . S
N1451 C1450 1.279 . S
C1452 C1454 1.353 . S
C1452 N1455 1.314 . S
C1452 H1458 0.930 . S
C1453 N1455 1.279 . S
C1453 C1456 1.358 . S
C1453 H1459 0.930 . S
C1454 C1452 1.353 . S
C1454 C1457 1.348 . S
C1454 H1492 0.929 . S
N1455 Li1410 1.990 . S
N1455 C1452 1.314 . S
N1455 C1453 1.279 . S
C1456 C1453 1.358 . S
C1456 C1457 1.356 . S
C1456 H1493 0.930 . S
C1457 C1454 1.348 . S
C1457 C1456 1.356 . S
H1458 C1452 0.930 . S
H1459 C1453 0.930 . S
C1460 N1461 1.314 . S
C1460 C1462 1.353 . S
C1460 H1466 0.930 . S
N1461 Li1411 1.990 . S
N1461 C1460 1.314 . S
N1461 C1464 1.279 . S
C1462 C1460 1.353 . S
C1462 C1465 1.348 . S
C1462 H1494 0.929 . S
C1463 C1464 1.358 . S
C1463 C1465 1.356 . S
C1463 H1495 0.930 . S
C1464 N1461 1.279 . S
C1464 C1463 1.358 . S
C1464 H1467 0.930 . S
C1465 C1462 1.348 . S
C1465 C1463 1.356 . S
H1466 C1460 0.930 . S
H1467 C1464 0.930 . S
O1468 Li1408 1.956 . S
O1468 Li1409 1.970 . S
O1468 Li1410 1.961 . S
O1468 C1412 1.325 . S
O1469 Li1408 1.970 . S
O1469 Li1409 1.956 . S
O1469 Li1411 1.961 . S
O1469 C1418 1.325 . S
O1470 Li1408 1.961 . S
O1470 Li1410 1.956 . S
O1470 Li1411 1.970 . S
O1470 C1440 1.325 . S
O1471 Li1409 1.961 . S
O1471 Li1410 1.970 . S
O1471 Li1411 1.956 . S
O1471 C1446 1.325 . S
H1472 C1414 0.929 . S
H1473 C1415 0.930 . S
H1474 C1416 0.930 . S
H1475 C1417 0.930 . S
H1476 C1419 0.930 . S
H1477 C1421 0.929 . S
H1478 C1422 0.930 . S
H1479 C1423 0.930 . S
H1480 C1426 0.930 . S
H1481 C1429 0.929 . S
H1482 C1434 0.929 . S
H1483 C1435 0.930 . S
H1484 C1442 0.929 . S
H1485 C1443 0.930 . S
H1486 C1444 0.930 . S
H1487 C1445 0.930 . S
H1488 C1447 0.929 . S
H1489 C1448 0.930 . S
H1490 C1449 0.930 . S
H1491 C1450 0.930 . S
H1492 C1454 0.929 . S
H1493 C1456 0.930 . S
H1494 C1462 0.929 . S
H1495 C1463 0.930 . S
Li1496 N1513 1.990 . S
Li1496 O1556 1.956 . S
Li1496 O1557 1.970 . S
Li1496 O1558 1.961 . S
Li1497 N1521 1.990 . S
Li1497 O1556 1.970 . S
Li1497 O1557 1.956 . S
Li1497 O1559 1.961 . S
Li1498 N1543 1.990 . S
Li1498 O1556 1.961 . S
Li1498 O1558 1.956 . S
Li1498 O1559 1.970 . S
Li1499 N1549 1.990 . S
Li1499 O1557 1.961 . S
Li1499 O1558 1.970 . S
Li1499 O1559 1.956 . S
C1500 C1502 1.348 . S
C1500 C1503 1.356 . S
C1500 O1556 1.325 . S
N1501 C1504 1.314 . S
N1501 C1505 1.279 . S
C1502 C1500 1.348 . S
C1502 C1504 1.353 . S
C1502 H1560 0.929 . S
C1503 C1500 1.356 . S
C1503 C1505 1.358 . S
C1503 H1561 0.930 . S
C1504 N1501 1.314 . S
C1504 C1502 1.353 . S
C1504 H1562 0.930 . S
C1505 N1501 1.279 . S
C1505 C1503 1.358 . S
C1505 H1563 0.930 . S
C1506 C1509 1.348 . S
C1506 C1510 1.356 . S
C1506 O1557 1.325 . S
C1507 N1508 1.279 . S
C1507 C1510 1.358 . S
C1507 H1564 0.930 . S
N1508 C1507 1.279 . S
N1508 C1511 1.314 . S
C1509 C1506 1.348 . S
C1509 C1511 1.353 . S
C1509 H1565 0.929 . S
C1510 C1506 1.356 . S
C1510 C1507 1.358 . S
C1510 H1566 0.930 . S
C1511 N1508 1.314 . S
C1511 C1509 1.353 . S
C1511 H1567 0.930 . S
C1512 N1513 1.314 . S
C1512 C1517 1.353 . S
C1512 H1518 0.930 . S
N1513 Li1496 1.990 . S
N1513 C1512 1.314 . S
N1513 C1515 1.279 . S
C1514 C1515 1.358 . S
C1514 C1516 1.356 . S
C1514 H1568 0.930 . S
C1515 N1513 1.279 . S
C1515 C1514 1.358 . S
C1515 H1519 0.930 . S
C1516 C1514 1.356 . S
C1516 C1517 1.348 . S
C1517 C1512 1.353 . S
C1517 C1516 1.348 . S
C1517 H1569 0.929 . S
H1518 C1512 0.930 . S
H1519 C1515 0.930 . S
C1520 N1521 1.314 . S
C1520 C1522 1.353 . S
C1520 H1526 0.930 . S
N1521 Li1497 1.990 . S
N1521 C1520 1.314 . S
N1521 C1524 1.279 . S
C1522 C1520 1.353 . S
C1522 C1525 1.348 . S
C1522 H1570 0.929 . S
C1523 C1524 1.358 . S
C1523 C1525 1.356 . S
C1523 H1571 0.930 . S
C1524 N1521 1.279 . S
C1524 C1523 1.358 . S
C1524 H1527 0.930 . S
C1525 C1522 1.348 . S
C1525 C1523 1.356 . S
H1526 C1520 0.930 . S
H1527 C1524 0.930 . S
C1528 C1530 1.348 . S
C1528 C1531 1.356 . S
C1528 O1558 1.325 . S
N1529 C1532 1.314 . S
N1529 C1533 1.279 . S
C1530 C1528 1.348 . S
C1530 C1532 1.353 . S
C1530 H1572 0.929 . S
C1531 C1528 1.356 . S
C1531 C1533 1.358 . S
C1531 H1573 0.930 . S
C1532 N1529 1.314 . S
C1532 C1530 1.353 . S
C1532 H1574 0.930 . S
C1533 N1529 1.279 . S
C1533 C1531 1.358 . S
C1533 H1575 0.930 . S
C1534 C1535 1.348 . S
C1534 C1536 1.356 . S
C1534 O1559 1.325 . S
C1535 C1534 1.348 . S
C1535 C1537 1.353 . S
C1535 H1576 0.929 . S
C1536 C1534 1.356 . S
C1536 C1538 1.358 . S
C1536 H1577 0.930 . S
C1537 C1535 1.353 . S
C1537 N1539 1.314 . S
C1537 H1578 0.930 . S
C1538 C1536 1.358 . S
C1538 N1539 1.279 . S
C1538 H1579 0.930 . S
N1539 C1537 1.314 . S
N1539 C1538 1.279 . S
C1540 C1542 1.353 . S
C1540 N1543 1.314 . S
C1540 H1546 0.930 . S
C1541 N1543 1.279 . S
C1541 C1544 1.358 . S
C1541 H1547 0.930 . S
C1542 C1540 1.353 . S
C1542 C1545 1.348 . S
C1542 H1580 0.929 . S
N1543 Li1498 1.990 . S
N1543 C1540 1.314 . S
N1543 C1541 1.279 . S
C1544 C1541 1.358 . S
C1544 C1545 1.356 . S
C1544 H1581 0.930 . S
C1545 C1542 1.348 . S
C1545 C1544 1.356 . S
H1546 C1540 0.930 . S
H1547 C1541 0.930 . S
C1548 N1549 1.314 . S
C1548 C1550 1.353 . S
C1548 H1554 0.930 . S
N1549 Li1499 1.990 . S
N1549 C1548 1.314 . S
N1549 C1552 1.279 . S
C1550 C1548 1.353 . S
C1550 C1553 1.348 . S
C1550 H1582 0.929 . S
C1551 C1552 1.358 . S
C1551 C1553 1.356 . S
C1551 H1583 0.930 . S
C1552 N1549 1.279 . S
C1552 C1551 1.358 . S
C1552 H1555 0.930 . S
C1553 C1550 1.348 . S
C1553 C1551 1.356 . S
H1554 C1548 0.930 . S
H1555 C1552 0.930 . S
O1556 Li1496 1.956 . S
O1556 Li1497 1.970 . S
O1556 Li1498 1.961 . S
O1556 C1500 1.325 . S
O1557 Li1496 1.970 . S
O1557 Li1497 1.956 . S
O1557 Li1499 1.961 . S
O1557 C1506 1.325 . S
O1558 Li1496 1.961 . S
O1558 Li1498 1.956 . S
O1558 Li1499 1.970 . S
O1558 C1528 1.325 . S
O1559 Li1497 1.961 . S
O1559 Li1498 1.970 . S
O1559 Li1499 1.956 . S
O1559 C1534 1.325 . S
H1560 C1502 0.929 . S
H1561 C1503 0.930 . S
H1562 C1504 0.930 . S
H1563 C1505 0.930 . S
H1564 C1507 0.930 . S
H1565 C1509 0.929 . S
H1566 C1510 0.930 . S
H1567 C1511 0.930 . S
H1568 C1514 0.930 . S
H1569 C1517 0.929 . S
H1570 C1522 0.929 . S
H1571 C1523 0.930 . S
H1572 C1530 0.929 . S
H1573 C1531 0.930 . S
H1574 C1532 0.930 . S
H1575 C1533 0.930 . S
H1576 C1535 0.929 . S
H1577 C1536 0.930 . S
H1578 C1537 0.930 . S
H1579 C1538 0.930 . S
H1580 C1542 0.929 . S
H1581 C1544 0.930 . S
H1582 C1550 0.929 . S
H1583 C1551 0.930 . S
Li1584 N1601 1.990 . S
Li1584 O1644 1.956 . S
Li1584 O1645 1.970 . S
Li1584 O1646 1.961 . S
Li1585 N1609 1.990 . S
Li1585 O1644 1.970 . S
Li1585 O1645 1.956 . S
Li1585 O1647 1.961 . S
Li1586 N1631 1.990 . S
Li1586 O1644 1.961 . S
Li1586 O1646 1.956 . S
Li1586 O1647 1.970 . S
Li1587 N1637 1.990 . S
Li1587 O1645 1.961 . S
Li1587 O1646 1.970 . S
Li1587 O1647 1.956 . S
C1588 C1590 1.348 . S
C1588 C1591 1.356 . S
C1588 O1644 1.325 . S
N1589 C1592 1.314 . S
N1589 C1593 1.279 . S
C1590 C1588 1.348 . S
C1590 C1592 1.353 . S
C1590 H1648 0.929 . S
C1591 C1588 1.356 . S
C1591 C1593 1.358 . S
C1591 H1649 0.930 . S
C1592 N1589 1.314 . S
C1592 C1590 1.353 . S
C1592 H1650 0.930 . S
C1593 N1589 1.279 . S
C1593 C1591 1.358 . S
C1593 H1651 0.930 . S
C1594 C1597 1.348 . S
C1594 C1598 1.356 . S
C1594 O1645 1.325 . S
C1595 N1596 1.279 . S
C1595 C1598 1.358 . S
C1595 H1652 0.930 . S
N1596 C1595 1.279 . S
N1596 C1599 1.314 . S
C1597 C1594 1.348 . S
C1597 C1599 1.353 . S
C1597 H1653 0.929 . S
C1598 C1594 1.356 . S
C1598 C1595 1.358 . S
C1598 H1654 0.930 . S
C1599 N1596 1.314 . S
C1599 C1597 1.353 . S
C1599 H1655 0.930 . S
C1600 N1601 1.314 . S
C1600 C1605 1.353 . S
C1600 H1606 0.930 . S
N1601 Li1584 1.990 . S
N1601 C1600 1.314 . S
N1601 C1603 1.279 . S
C1602 C1603 1.358 . S
C1602 C1604 1.356 . S
C1602 H1656 0.930 . S
C1603 N1601 1.279 . S
C1603 C1602 1.358 . S
C1603 H1607 0.930 . S
C1604 C1602 1.356 . S
C1604 C1605 1.348 . S
C1605 C1600 1.353 . S
C1605 C1604 1.348 . S
C1605 H1657 0.929 . S
H1606 C1600 0.930 . S
H1607 C1603 0.930 . S
C1608 N1609 1.314 . S
C1608 C1610 1.353 . S
C1608 H1614 0.930 . S
N1609 Li1585 1.990 . S
N1609 C1608 1.314 . S
N1609 C1612 1.279 . S
C1610 C1608 1.353 . S
C1610 C1613 1.348 . S
C1610 H1658 0.929 . S
C1611 C1612 1.358 . S
C1611 C1613 1.356 . S
C1611 H1659 0.930 . S
C1612 N1609 1.279 . S
C1612 C1611 1.358 . S
C1612 H1615 0.930 . S
C1613 C1610 1.348 . S
C1613 C1611 1.356 . S
H1614 C1608 0.930 . S
H1615 C1612 0.930 . S
C1616 C1618 1.348 . S
C1616 C1619 1.356 . S
C1616 O1646 1.325 . S
N1617 C1620 1.314 . S
N1617 C1621 1.279 . S
C1618 C1616 1.348 . S
C1618 C1620 1.353 . S
C1618 H1660 0.929 . S
C1619 C1616 1.356 . S
C1619 C1621 1.358 . S
C1619 H1661 0.930 . S
C1620 N1617 1.314 . S
C1620 C1618 1.353 . S
C1620 H1662 0.930 . S
C1621 N1617 1.279 . S
C1621 C1619 1.358 . S
C1621 H1663 0.930 . S
C1622 C1623 1.348 . S
C1622 C1624 1.356 . S
C1622 O1647 1.325 . S
C1623 C1622 1.348 . S
C1623 C1625 1.353 . S
C1623 H1664 0.929 . S
C1624 C1622 1.356 . S
C1624 C1626 1.358 . S
C1624 H1665 0.930 . S
C1625 C1623 1.353 . S
C1625 N1627 1.314 . S
C1625 H1666 0.930 . S
C1626 C1624 1.358 . S
C1626 N1627 1.279 . S
C1626 H1667 0.930 . S
N1627 C1625 1.314 . S
N1627 C1626 1.279 . S
C1628 C1630 1.353 . S
C1628 N1631 1.314 . S
C1628 H1634 0.930 . S
C1629 N1631 1.279 . S
C1629 C1632 1.358 . S
C1629 H1635 0.930 . S
C1630 C1628 1.353 . S
C1630 C1633 1.348 . S
C1630 H1668 0.929 . S
N1631 Li1586 1.990 . S
N1631 C1628 1.314 . S
N1631 C1629 1.279 . S
C1632 C1629 1.358 . S
C1632 C1633 1.356 . S
C1632 H1669 0.930 . S
C1633 C1630 1.348 . S
C1633 C1632 1.356 . S
H1634 C1628 0.930 . S
H1635 C1629 0.930 . S
C1636 N1637 1.314 . S
C1636 C1638 1.353 . S
C1636 H1642 0.930 . S
N1637 Li1587 1.990 . S
N1637 C1636 1.314 . S
N1637 C1640 1.279 . S
C1638 C1636 1.353 . S
C1638 C1641 1.348 . S
C1638 H1670 0.929 . S
C1639 C1640 1.358 . S
C1639 C1641 1.356 . S
C1639 H1671 0.930 . S
C1640 N1637 1.279 . S
C1640 C1639 1.358 . S
C1640 H1643 0.930 . S
C1641 C1638 1.348 . S
C1641 C1639 1.356 . S
H1642 C1636 0.930 . S
H1643 C1640 0.930 . S
O1644 Li1584 1.956 . S
O1644 Li1585 1.970 . S
O1644 Li1586 1.961 . S
O1644 C1588 1.325 . S
O1645 Li1584 1.970 . S
O1645 Li1585 1.956 . S
O1645 Li1587 1.961 . S
O1645 C1594 1.325 . S
O1646 Li1584 1.961 . S
O1646 Li1586 1.956 . S
O1646 Li1587 1.970 . S
O1646 C1616 1.325 . S
O1647 Li1585 1.961 . S
O1647 Li1586 1.970 . S
O1647 Li1587 1.956 . S
O1647 C1622 1.325 . S
H1648 C1590 0.929 . S
H1649 C1591 0.930 . S
H1650 C1592 0.930 . S
H1651 C1593 0.930 . S
H1652 C1595 0.930 . S
H1653 C1597 0.929 . S
H1654 C1598 0.930 . S
H1655 C1599 0.930 . S
H1656 C1602 0.930 . S
H1657 C1605 0.929 . S
H1658 C1610 0.929 . S
H1659 C1611 0.930 . S
H1660 C1618 0.929 . S
H1661 C1619 0.930 . S
H1662 C1620 0.930 . S
H1663 C1621 0.930 . S
H1664 C1623 0.929 . S
H1665 C1624 0.930 . S
H1666 C1625 0.930 . S
H1667 C1626 0.930 . S
H1668 C1630 0.929 . S
H1669 C1632 0.930 . S
H1670 C1638 0.929 . S
H1671 C1639 0.930 . S
Li1672 N1689 1.990 . S
Li1672 O1732 1.956 . S
Li1672 O1733 1.970 . S
Li1672 O1734 1.961 . S
Li1673 N1697 1.990 . S
Li1673 O1732 1.970 . S
Li1673 O1733 1.956 . S
Li1673 O1735 1.961 . S
Li1674 N1719 1.990 . S
Li1674 O1732 1.961 . S
Li1674 O1734 1.956 . S
Li1674 O1735 1.970 . S
Li1675 N1725 1.990 . S
Li1675 O1733 1.961 . S
Li1675 O1734 1.970 . S
Li1675 O1735 1.956 . S
C1676 C1678 1.348 . S
C1676 C1679 1.356 . S
C1676 O1732 1.325 . S
N1677 C1680 1.314 . S
N1677 C1681 1.279 . S
C1678 C1676 1.348 . S
C1678 C1680 1.353 . S
C1678 H1736 0.929 . S
C1679 C1676 1.356 . S
C1679 C1681 1.358 . S
C1679 H1737 0.930 . S
C1680 N1677 1.314 . S
C1680 C1678 1.353 . S
C1680 H1738 0.930 . S
C1681 N1677 1.279 . S
C1681 C1679 1.358 . S
C1681 H1739 0.930 . S
C1682 C1685 1.348 . S
C1682 C1686 1.356 . S
C1682 O1733 1.325 . S
C1683 N1684 1.279 . S
C1683 C1686 1.358 . S
C1683 H1740 0.930 . S
N1684 C1683 1.279 . S
N1684 C1687 1.314 . S
C1685 C1682 1.348 . S
C1685 C1687 1.353 . S
C1685 H1741 0.929 . S
C1686 C1682 1.356 . S
C1686 C1683 1.358 . S
C1686 H1742 0.930 . S
C1687 N1684 1.314 . S
C1687 C1685 1.353 . S
C1687 H1743 0.930 . S
C1688 N1689 1.314 . S
C1688 C1693 1.353 . S
C1688 H1694 0.930 . S
N1689 Li1672 1.990 . S
N1689 C1688 1.314 . S
N1689 C1691 1.279 . S
C1690 C1691 1.358 . S
C1690 C1692 1.356 . S
C1690 H1744 0.930 . S
C1691 N1689 1.279 . S
C1691 C1690 1.358 . S
C1691 H1695 0.930 . S
C1692 C1690 1.356 . S
C1692 C1693 1.348 . S
C1693 C1688 1.353 . S
C1693 C1692 1.348 . S
C1693 H1745 0.929 . S
H1694 C1688 0.930 . S
H1695 C1691 0.930 . S
C1696 N1697 1.314 . S
C1696 C1698 1.353 . S
C1696 H1702 0.930 . S
N1697 Li1673 1.990 . S
N1697 C1696 1.314 . S
N1697 C1700 1.279 . S
C1698 C1696 1.353 . S
C1698 C1701 1.348 . S
C1698 H1746 0.929 . S
C1699 C1700 1.358 . S
C1699 C1701 1.356 . S
C1699 H1747 0.930 . S
C1700 N1697 1.279 . S
C1700 C1699 1.358 . S
C1700 H1703 0.930 . S
C1701 C1698 1.348 . S
C1701 C1699 1.356 . S
H1702 C1696 0.930 . S
H1703 C1700 0.930 . S
C1704 C1706 1.348 . S
C1704 C1707 1.356 . S
C1704 O1734 1.325 . S
N1705 C1708 1.314 . S
N1705 C1709 1.279 . S
C1706 C1704 1.348 . S
C1706 C1708 1.353 . S
C1706 H1748 0.929 . S
C1707 C1704 1.356 . S
C1707 C1709 1.358 . S
C1707 H1749 0.930 . S
C1708 N1705 1.314 . S
C1708 C1706 1.353 . S
C1708 H1750 0.930 . S
C1709 N1705 1.279 . S
C1709 C1707 1.358 . S
C1709 H1751 0.930 . S
C1710 C1711 1.348 . S
C1710 C1712 1.356 . S
C1710 O1735 1.325 . S
C1711 C1710 1.348 . S
C1711 C1713 1.353 . S
C1711 H1752 0.929 . S
C1712 C1710 1.356 . S
C1712 C1714 1.358 . S
C1712 H1753 0.930 . S
C1713 C1711 1.353 . S
C1713 N1715 1.314 . S
C1713 H1754 0.930 . S
C1714 C1712 1.358 . S
C1714 N1715 1.279 . S
C1714 H1755 0.930 . S
N1715 C1713 1.314 . S
N1715 C1714 1.279 . S
C1716 C1718 1.353 . S
C1716 N1719 1.314 . S
C1716 H1722 0.930 . S
C1717 N1719 1.279 . S
C1717 C1720 1.358 . S
C1717 H1723 0.930 . S
C1718 C1716 1.353 . S
C1718 C1721 1.348 . S
C1718 H1756 0.929 . S
N1719 Li1674 1.990 . S
N1719 C1716 1.314 . S
N1719 C1717 1.279 . S
C1720 C1717 1.358 . S
C1720 C1721 1.356 . S
C1720 H1757 0.930 . S
C1721 C1718 1.348 . S
C1721 C1720 1.356 . S
H1722 C1716 0.930 . S
H1723 C1717 0.930 . S
C1724 N1725 1.314 . S
C1724 C1726 1.353 . S
C1724 H1730 0.930 . S
N1725 Li1675 1.990 . S
N1725 C1724 1.314 . S
N1725 C1728 1.279 . S
C1726 C1724 1.353 . S
C1726 C1729 1.348 . S
C1726 H1758 0.929 . S
C1727 C1728 1.358 . S
C1727 C1729 1.356 . S
C1727 H1759 0.930 . S
C1728 N1725 1.279 . S
C1728 C1727 1.358 . S
C1728 H1731 0.930 . S
C1729 C1726 1.348 . S
C1729 C1727 1.356 . S
H1730 C1724 0.930 . S
H1731 C1728 0.930 . S
O1732 Li1672 1.956 . S
O1732 Li1673 1.970 . S
O1732 Li1674 1.961 . S
O1732 C1676 1.325 . S
O1733 Li1672 1.970 . S
O1733 Li1673 1.956 . S
O1733 Li1675 1.961 . S
O1733 C1682 1.325 . S
O1734 Li1672 1.961 . S
O1734 Li1674 1.956 . S
O1734 Li1675 1.970 . S
O1734 C1704 1.325 . S
O1735 Li1673 1.961 . S
O1735 Li1674 1.970 . S
O1735 Li1675 1.956 . S
O1735 C1710 1.325 . S
H1736 C1678 0.929 . S
H1737 C1679 0.930 . S
H1738 C1680 0.930 . S
H1739 C1681 0.930 . S
H1740 C1683 0.930 . S
H1741 C1685 0.929 . S
H1742 C1686 0.930 . S
H1743 C1687 0.930 . S
H1744 C1690 0.930 . S
H1745 C1693 0.929 . S
H1746 C1698 0.929 . S
H1747 C1699 0.930 . S
H1748 C1706 0.929 . S
H1749 C1707 0.930 . S
H1750 C1708 0.930 . S
H1751 C1709 0.930 . S
H1752 C1711 0.929 . S
H1753 C1712 0.930 . S
H1754 C1713 0.930 . S
H1755 C1714 0.930 . S
H1756 C1718 0.929 . S
H1757 C1720 0.930 . S
H1758 C1726 0.929 . S
H1759 C1727 0.930 . S
Li1760 N1777 1.990 . S
Li1760 O1820 1.956 . S
Li1760 O1821 1.970 . S
Li1760 O1822 1.961 . S
Li1761 N1785 1.990 . S
Li1761 O1820 1.970 . S
Li1761 O1821 1.956 . S
Li1761 O1823 1.961 . S
Li1762 N1807 1.990 . S
Li1762 O1820 1.961 . S
Li1762 O1822 1.956 . S
Li1762 O1823 1.970 . S
Li1763 N1813 1.990 . S
Li1763 O1821 1.961 . S
Li1763 O1822 1.970 . S
Li1763 O1823 1.956 . S
C1764 C1766 1.348 . S
C1764 C1767 1.356 . S
C1764 O1820 1.325 . S
N1765 C1768 1.314 . S
N1765 C1769 1.279 . S
C1766 C1764 1.348 . S
C1766 C1768 1.353 . S
C1766 H1824 0.929 . S
C1767 C1764 1.356 . S
C1767 C1769 1.358 . S
C1767 H1825 0.930 . S
C1768 N1765 1.314 . S
C1768 C1766 1.353 . S
C1768 H1826 0.930 . S
C1769 N1765 1.279 . S
C1769 C1767 1.358 . S
C1769 H1827 0.930 . S
C1770 C1773 1.348 . S
C1770 C1774 1.356 . S
C1770 O1821 1.325 . S
C1771 N1772 1.279 . S
C1771 C1774 1.358 . S
C1771 H1828 0.930 . S
N1772 C1771 1.279 . S
N1772 C1775 1.314 . S
C1773 C1770 1.348 . S
C1773 C1775 1.353 . S
C1773 H1829 0.929 . S
C1774 C1770 1.356 . S
C1774 C1771 1.358 . S
C1774 H1830 0.930 . S
C1775 N1772 1.314 . S
C1775 C1773 1.353 . S
C1775 H1831 0.930 . S
C1776 N1777 1.314 . S
C1776 C1781 1.353 . S
C1776 H1782 0.930 . S
N1777 Li1760 1.990 . S
N1777 C1776 1.314 . S
N1777 C1779 1.279 . S
C1778 C1779 1.358 . S
C1778 C1780 1.356 . S
C1778 H1832 0.930 . S
C1779 N1777 1.279 . S
C1779 C1778 1.358 . S
C1779 H1783 0.930 . S
C1780 C1778 1.356 . S
C1780 C1781 1.348 . S
C1781 C1776 1.353 . S
C1781 C1780 1.348 . S
C1781 H1833 0.929 . S
H1782 C1776 0.930 . S
H1783 C1779 0.930 . S
C1784 N1785 1.314 . S
C1784 C1786 1.353 . S
C1784 H1790 0.930 . S
N1785 Li1761 1.990 . S
N1785 C1784 1.314 . S
N1785 C1788 1.279 . S
C1786 C1784 1.353 . S
C1786 C1789 1.348 . S
C1786 H1834 0.929 . S
C1787 C1788 1.358 . S
C1787 C1789 1.356 . S
C1787 H1835 0.930 . S
C1788 N1785 1.279 . S
C1788 C1787 1.358 . S
C1788 H1791 0.930 . S
C1789 C1786 1.348 . S
C1789 C1787 1.356 . S
H1790 C1784 0.930 . S
H1791 C1788 0.930 . S
C1792 C1794 1.348 . S
C1792 C1795 1.356 . S
C1792 O1822 1.325 . S
N1793 C1796 1.314 . S
N1793 C1797 1.279 . S
C1794 C1792 1.348 . S
C1794 C1796 1.353 . S
C1794 H1836 0.929 . S
C1795 C1792 1.356 . S
C1795 C1797 1.358 . S
C1795 H1837 0.930 . S
C1796 N1793 1.314 . S
C1796 C1794 1.353 . S
C1796 H1838 0.930 . S
C1797 N1793 1.279 . S
C1797 C1795 1.358 . S
C1797 H1839 0.930 . S
C1798 C1799 1.348 . S
C1798 C1800 1.356 . S
C1798 O1823 1.325 . S
C1799 C1798 1.348 . S
C1799 C1801 1.353 . S
C1799 H1840 0.929 . S
C1800 C1798 1.356 . S
C1800 C1802 1.358 . S
C1800 H1841 0.930 . S
C1801 C1799 1.353 . S
C1801 N1803 1.314 . S
C1801 H1842 0.930 . S
C1802 C1800 1.358 . S
C1802 N1803 1.279 . S
C1802 H1843 0.930 . S
N1803 C1801 1.314 . S
N1803 C1802 1.279 . S
C1804 C1806 1.353 . S
C1804 N1807 1.314 . S
C1804 H1810 0.930 . S
C1805 N1807 1.279 . S
C1805 C1808 1.358 . S
C1805 H1811 0.930 . S
C1806 C1804 1.353 . S
C1806 C1809 1.348 . S
C1806 H1844 0.929 . S
N1807 Li1762 1.990 . S
N1807 C1804 1.314 . S
N1807 C1805 1.279 . S
C1808 C1805 1.358 . S
C1808 C1809 1.356 . S
C1808 H1845 0.930 . S
C1809 C1806 1.348 . S
C1809 C1808 1.356 . S
H1810 C1804 0.930 . S
H1811 C1805 0.930 . S
C1812 N1813 1.314 . S
C1812 C1814 1.353 . S
C1812 H1818 0.930 . S
N1813 Li1763 1.990 . S
N1813 C1812 1.314 . S
N1813 C1816 1.279 . S
C1814 C1812 1.353 . S
C1814 C1817 1.348 . S
C1814 H1846 0.929 . S
C1815 C1816 1.358 . S
C1815 C1817 1.356 . S
C1815 H1847 0.930 . S
C1816 N1813 1.279 . S
C1816 C1815 1.358 . S
C1816 H1819 0.930 . S
C1817 C1814 1.348 . S
C1817 C1815 1.356 . S
H1818 C1812 0.930 . S
H1819 C1816 0.930 . S
O1820 Li1760 1.956 . S
O1820 Li1761 1.970 . S
O1820 Li1762 1.961 . S
O1820 C1764 1.325 . S
O1821 Li1760 1.970 . S
O1821 Li1761 1.956 . S
O1821 Li1763 1.961 . S
O1821 C1770 1.325 . S
O1822 Li1760 1.961 . S
O1822 Li1762 1.956 . S
O1822 Li1763 1.970 . S
O1822 C1792 1.325 . S
O1823 Li1761 1.961 . S
O1823 Li1762 1.970 . S
O1823 Li1763 1.956 . S
O1823 C1798 1.325 . S
H1824 C1766 0.929 . S
H1825 C1767 0.930 . S
H1826 C1768 0.930 . S
H1827 C1769 0.930 . S
H1828 C1771 0.930 . S
H1829 C1773 0.929 . S
H1830 C1774 0.930 . S
H1831 C1775 0.930 . S
H1832 C1778 0.930 . S
H1833 C1781 0.929 . S
H1834 C1786 0.929 . S
H1835 C1787 0.930 . S
H1836 C1794 0.929 . S
H1837 C1795 0.930 . S
H1838 C1796 0.930 . S
H1839 C1797 0.930 . S
H1840 C1799 0.929 . S
H1841 C1800 0.930 . S
H1842 C1801 0.930 . S
H1843 C1802 0.930 . S
H1844 C1806 0.929 . S
H1845 C1808 0.930 . S
H1846 C1814 0.929 . S
H1847 C1815 0.930 . S
Li1848 N1865 1.990 . S
Li1848 O1908 1.956 . S
Li1848 O1909 1.970 . S
Li1848 O1910 1.961 . S
Li1849 N1873 1.990 . S
Li1849 O1908 1.970 . S
Li1849 O1909 1.956 . S
Li1849 O1911 1.961 . S
Li1850 N1895 1.990 . S
Li1850 O1908 1.961 . S
Li1850 O1910 1.956 . S
Li1850 O1911 1.970 . S
Li1851 N1901 1.990 . S
Li1851 O1909 1.961 . S
Li1851 O1910 1.970 . S
Li1851 O1911 1.956 . S
C1852 C1854 1.348 . S
C1852 C1855 1.356 . S
C1852 O1908 1.325 . S
N1853 C1856 1.314 . S
N1853 C1857 1.279 . S
C1854 C1852 1.348 . S
C1854 C1856 1.353 . S
C1854 H1912 0.929 . S
C1855 C1852 1.356 . S
C1855 C1857 1.358 . S
C1855 H1913 0.930 . S
C1856 N1853 1.314 . S
C1856 C1854 1.353 . S
C1856 H1914 0.930 . S
C1857 N1853 1.279 . S
C1857 C1855 1.358 . S
C1857 H1915 0.930 . S
C1858 C1861 1.348 . S
C1858 C1862 1.356 . S
C1858 O1909 1.325 . S
C1859 N1860 1.279 . S
C1859 C1862 1.358 . S
C1859 H1916 0.930 . S
N1860 C1859 1.279 . S
N1860 C1863 1.314 . S
C1861 C1858 1.348 . S
C1861 C1863 1.353 . S
C1861 H1917 0.929 . S
C1862 C1858 1.356 . S
C1862 C1859 1.358 . S
C1862 H1918 0.930 . S
C1863 N1860 1.314 . S
C1863 C1861 1.353 . S
C1863 H1919 0.930 . S
C1864 N1865 1.314 . S
C1864 C1869 1.353 . S
C1864 H1870 0.930 . S
N1865 Li1848 1.990 . S
N1865 C1864 1.314 . S
N1865 C1867 1.279 . S
C1866 C1867 1.358 . S
C1866 C1868 1.356 . S
C1866 H1920 0.930 . S
C1867 N1865 1.279 . S
C1867 C1866 1.358 . S
C1867 H1871 0.930 . S
C1868 C1866 1.356 . S
C1868 C1869 1.348 . S
C1869 C1864 1.353 . S
C1869 C1868 1.348 . S
C1869 H1921 0.929 . S
H1870 C1864 0.930 . S
H1871 C1867 0.930 . S
C1872 N1873 1.314 . S
C1872 C1874 1.353 . S
C1872 H1878 0.930 . S
N1873 Li1849 1.990 . S
N1873 C1872 1.314 . S
N1873 C1876 1.279 . S
C1874 C1872 1.353 . S
C1874 C1877 1.348 . S
C1874 H1922 0.929 . S
C1875 C1876 1.358 . S
C1875 C1877 1.356 . S
C1875 H1923 0.930 . S
C1876 N1873 1.279 . S
C1876 C1875 1.358 . S
C1876 H1879 0.930 . S
C1877 C1874 1.348 . S
C1877 C1875 1.356 . S
H1878 C1872 0.930 . S
H1879 C1876 0.930 . S
C1880 C1882 1.348 . S
C1880 C1883 1.356 . S
C1880 O1910 1.325 . S
N1881 C1884 1.314 . S
N1881 C1885 1.279 . S
C1882 C1880 1.348 . S
C1882 C1884 1.353 . S
C1882 H1924 0.929 . S
C1883 C1880 1.356 . S
C1883 C1885 1.358 . S
C1883 H1925 0.930 . S
C1884 N1881 1.314 . S
C1884 C1882 1.353 . S
C1884 H1926 0.930 . S
C1885 N1881 1.279 . S
C1885 C1883 1.358 . S
C1885 H1927 0.930 . S
C1886 C1887 1.348 . S
C1886 C1888 1.356 . S
C1886 O1911 1.325 . S
C1887 C1886 1.348 . S
C1887 C1889 1.353 . S
C1887 H1928 0.929 . S
C1888 C1886 1.356 . S
C1888 C1890 1.358 . S
C1888 H1929 0.930 . S
C1889 C1887 1.353 . S
C1889 N1891 1.314 . S
C1889 H1930 0.930 . S
C1890 C1888 1.358 . S
C1890 N1891 1.279 . S
C1890 H1931 0.930 . S
N1891 C1889 1.314 . S
N1891 C1890 1.279 . S
C1892 C1894 1.353 . S
C1892 N1895 1.314 . S
C1892 H1898 0.930 . S
C1893 N1895 1.279 . S
C1893 C1896 1.358 . S
C1893 H1899 0.930 . S
C1894 C1892 1.353 . S
C1894 C1897 1.348 . S
C1894 H1932 0.929 . S
N1895 Li1850 1.990 . S
N1895 C1892 1.314 . S
N1895 C1893 1.279 . S
C1896 C1893 1.358 . S
C1896 C1897 1.356 . S
C1896 H1933 0.930 . S
C1897 C1894 1.348 . S
C1897 C1896 1.356 . S
H1898 C1892 0.930 . S
H1899 C1893 0.930 . S
C1900 N1901 1.314 . S
C1900 C1902 1.353 . S
C1900 H1906 0.930 . S
N1901 Li1851 1.990 . S
N1901 C1900 1.314 . S
N1901 C1904 1.279 . S
C1902 C1900 1.353 . S
C1902 C1905 1.348 . S
C1902 H1934 0.929 . S
C1903 C1904 1.358 . S
C1903 C1905 1.356 . S
C1903 H1935 0.930 . S
C1904 N1901 1.279 . S
C1904 C1903 1.358 . S
C1904 H1907 0.930 . S
C1905 C1902 1.348 . S
C1905 C1903 1.356 . S
H1906 C1900 0.930 . S
H1907 C1904 0.930 . S
O1908 Li1848 1.956 . S
O1908 Li1849 1.970 . S
O1908 Li1850 1.961 . S
O1908 C1852 1.325 . S
O1909 Li1848 1.970 . S
O1909 Li1849 1.956 . S
O1909 Li1851 1.961 . S
O1909 C1858 1.325 . S
O1910 Li1848 1.961 . S
O1910 Li1850 1.956 . S
O1910 Li1851 1.970 . S
O1910 C1880 1.325 . S
O1911 Li1849 1.961 . S
O1911 Li1850 1.970 . S
O1911 Li1851 1.956 . S
O1911 C1886 1.325 . S
H1912 C1854 0.929 . S
H1913 C1855 0.930 . S
H1914 C1856 0.930 . S
H1915 C1857 0.930 . S
H1916 C1859 0.930 . S
H1917 C1861 0.929 . S
H1918 C1862 0.930 . S
H1919 C1863 0.930 . S
H1920 C1866 0.930 . S
H1921 C1869 0.929 . S
H1922 C1874 0.929 . S
H1923 C1875 0.930 . S
H1924 C1882 0.929 . S
H1925 C1883 0.930 . S
H1926 C1884 0.930 . S
H1927 C1885 0.930 . S
H1928 C1887 0.929 . S
H1929 C1888 0.930 . S
H1930 C1889 0.930 . S
H1931 C1890 0.930 . S
H1932 C1894 0.929 . S
H1933 C1896 0.930 . S
H1934 C1902 0.929 . S
H1935 C1903 0.930 . S
Li1936 N1953 1.990 . S
Li1936 O1996 1.956 . S
Li1936 O1997 1.970 . S
Li1936 O1998 1.961 . S
Li1937 N1961 1.990 . S
Li1937 O1996 1.970 . S
Li1937 O1997 1.956 . S
Li1937 O1999 1.961 . S
Li1938 N1983 1.990 . S
Li1938 O1996 1.961 . S
Li1938 O1998 1.956 . S
Li1938 O1999 1.970 . S
Li1939 N1989 1.990 . S
Li1939 O1997 1.961 . S
Li1939 O1998 1.970 . S
Li1939 O1999 1.956 . S
C1940 C1942 1.348 . S
C1940 C1943 1.356 . S
C1940 O1996 1.325 . S
N1941 C1944 1.314 . S
N1941 C1945 1.279 . S
C1942 C1940 1.348 . S
C1942 C1944 1.353 . S
C1942 H2000 0.929 . S
C1943 C1940 1.356 . S
C1943 C1945 1.358 . S
C1943 H2001 0.930 . S
C1944 N1941 1.314 . S
C1944 C1942 1.353 . S
C1944 H2002 0.930 . S
C1945 N1941 1.279 . S
C1945 C1943 1.358 . S
C1945 H2003 0.930 . S
C1946 C1949 1.348 . S
C1946 C1950 1.356 . S
C1946 O1997 1.325 . S
C1947 N1948 1.279 . S
C1947 C1950 1.358 . S
C1947 H2004 0.930 . S
N1948 C1947 1.279 . S
N1948 C1951 1.314 . S
C1949 C1946 1.348 . S
C1949 C1951 1.353 . S
C1949 H2005 0.929 . S
C1950 C1946 1.356 . S
C1950 C1947 1.358 . S
C1950 H2006 0.930 . S
C1951 N1948 1.314 . S
C1951 C1949 1.353 . S
C1951 H2007 0.930 . S
C1952 N1953 1.314 . S
C1952 C1957 1.353 . S
C1952 H1958 0.930 . S
N1953 Li1936 1.990 . S
N1953 C1952 1.314 . S
N1953 C1955 1.279 . S
C1954 C1955 1.358 . S
C1954 C1956 1.356 . S
C1954 H2008 0.930 . S
C1955 N1953 1.279 . S
C1955 C1954 1.358 . S
C1955 H1959 0.930 . S
C1956 C1954 1.356 . S
C1956 C1957 1.348 . S
C1957 C1952 1.353 . S
C1957 C1956 1.348 . S
C1957 H2009 0.929 . S
H1958 C1952 0.930 . S
H1959 C1955 0.930 . S
C1960 N1961 1.314 . S
C1960 C1962 1.353 . S
C1960 H1966 0.930 . S
N1961 Li1937 1.990 . S
N1961 C1960 1.314 . S
N1961 C1964 1.279 . S
C1962 C1960 1.353 . S
C1962 C1965 1.348 . S
C1962 H2010 0.929 . S
C1963 C1964 1.358 . S
C1963 C1965 1.356 . S
C1963 H2011 0.930 . S
C1964 N1961 1.279 . S
C1964 C1963 1.358 . S
C1964 H1967 0.930 . S
C1965 C1962 1.348 . S
C1965 C1963 1.356 . S
H1966 C1960 0.930 . S
H1967 C1964 0.930 . S
C1968 C1970 1.348 . S
C1968 C1971 1.356 . S
C1968 O1998 1.325 . S
N1969 C1972 1.314 1_554 S
N1969 C1973 1.279 . S
C1970 C1968 1.348 . S
C1970 C1972 1.353 1_554 S
C1970 H2012 0.929 . S
C1971 C1968 1.356 . S
C1971 C1973 1.358 . S
C1971 H2013 0.930 . S
C1972 N1969 1.314 1_556 S
C1972 C1970 1.353 1_556 S
C1972 H2014 0.930 . S
C1973 N1969 1.279 . S
C1973 C1971 1.358 . S
C1973 H2015 0.930 . S
C1974 C1975 1.348 . S
C1974 C1976 1.356 . S
C1974 O1999 1.325 . S
C1975 C1974 1.348 . S
C1975 C1977 1.353 . S
C1975 H2016 0.929 . S
C1976 C1974 1.356 . S
C1976 C1978 1.358 . S
C1976 H2017 0.930 . S
C1977 C1975 1.353 . S
C1977 N1979 1.314 . S
C1977 H2018 0.930 . S
C1978 C1976 1.358 . S
C1978 N1979 1.279 . S
C1978 H2019 0.930 . S
N1979 C1977 1.314 . S
N1979 C1978 1.279 . S
C1980 C1982 1.353 . S
C1980 N1983 1.314 . S
C1980 H1986 0.930 . S
C1981 N1983 1.279 . S
C1981 C1984 1.358 . S
C1981 H1987 0.930 . S
C1982 C1980 1.353 . S
C1982 C1985 1.348 . S
C1982 H2020 0.929 . S
N1983 Li1938 1.990 . S
N1983 C1980 1.314 . S
N1983 C1981 1.279 . S
C1984 C1981 1.358 . S
C1984 C1985 1.356 . S
C1984 H2021 0.930 . S
C1985 C1982 1.348 . S
C1985 C1984 1.356 . S
H1986 C1980 0.930 . S
H1987 C1981 0.930 . S
C1988 N1989 1.314 1_556 S
C1988 C1990 1.353 . S
C1988 H1994 0.930 1_556 S
N1989 Li1939 1.990 . S
N1989 C1988 1.314 1_554 S
N1989 C1992 1.279 1_554 S
C1990 C1988 1.353 . S
C1990 C1993 1.348 . S
C1990 H2022 0.929 . S
C1991 C1992 1.358 . S
C1991 C1993 1.356 . S
C1991 H2023 0.930 . S
C1992 N1989 1.279 1_556 S
C1992 C1991 1.358 . S
C1992 H1995 0.930 . S
C1993 C1990 1.348 . S
C1993 C1991 1.356 . S
H1994 C1988 0.930 1_554 S
H1995 C1992 0.930 . S
O1996 Li1936 1.956 . S
O1996 Li1937 1.970 . S
O1996 Li1938 1.961 . S
O1996 C1940 1.325 . S
O1997 Li1936 1.970 . S
O1997 Li1937 1.956 . S
O1997 Li1939 1.961 . S
O1997 C1946 1.325 . S
O1998 Li1936 1.961 . S
O1998 Li1938 1.956 . S
O1998 Li1939 1.970 . S
O1998 C1968 1.325 . S
O1999 Li1937 1.961 . S
O1999 Li1938 1.970 . S
O1999 Li1939 1.956 . S
O1999 C1974 1.325 . S
H2000 C1942 0.929 . S
H2001 C1943 0.930 . S
H2002 C1944 0.930 . S
H2003 C1945 0.930 . S
H2004 C1947 0.930 . S
H2005 C1949 0.929 . S
H2006 C1950 0.930 . S
H2007 C1951 0.930 . S
H2008 C1954 0.930 . S
H2009 C1957 0.929 . S
H2010 C1962 0.929 . S
H2011 C1963 0.930 . S
H2012 C1970 0.929 . S
H2013 C1971 0.930 . S
H2014 C1972 0.930 . S
H2015 C1973 0.930 . S
H2016 C1975 0.929 . S
H2017 C1976 0.930 . S
H2018 C1977 0.930 . S
H2019 C1978 0.930 . S
H2020 C1982 0.929 . S
H2021 C1984 0.930 . S
H2022 C1990 0.929 . S
H2023 C1991 0.930 . S
Li2024 N2041 1.990 . S
Li2024 O2084 1.956 . S
Li2024 O2085 1.970 . S
Li2024 O2086 1.961 . S
Li2025 N2049 1.990 . S
Li2025 O2084 1.970 . S
Li2025 O2085 1.956 . S
Li2025 O2087 1.961 . S
Li2026 N2071 1.990 . S
Li2026 O2084 1.961 . S
Li2026 O2086 1.956 . S
Li2026 O2087 1.970 . S
Li2027 N2077 1.990 . S
Li2027 O2085 1.961 . S
Li2027 O2086 1.970 . S
Li2027 O2087 1.956 . S
C2028 C2030 1.348 . S
C2028 C2031 1.356 . S
C2028 O2084 1.325 . S
N2029 C2032 1.314 . S
N2029 C2033 1.279 . S
C2030 C2028 1.348 . S
C2030 C2032 1.353 . S
C2030 H2088 0.929 . S
C2031 C2028 1.356 . S
C2031 C2033 1.358 . S
C2031 H2089 0.930 . S
C2032 N2029 1.314 . S
C2032 C2030 1.353 . S
C2032 H2090 0.930 . S
C2033 N2029 1.279 . S
C2033 C2031 1.358 . S
C2033 H2091 0.930 . S
C2034 C2037 1.348 . S
C2034 C2038 1.356 . S
C2034 O2085 1.325 . S
C2035 N2036 1.279 . S
C2035 C2038 1.358 . S
C2035 H2092 0.930 . S
N2036 C2035 1.279 . S
N2036 C2039 1.314 . S
C2037 C2034 1.348 . S
C2037 C2039 1.353 . S
C2037 H2093 0.929 . S
C2038 C2034 1.356 . S
C2038 C2035 1.358 . S
C2038 H2094 0.930 . S
C2039 N2036 1.314 . S
C2039 C2037 1.353 . S
C2039 H2095 0.930 . S
C2040 N2041 1.314 . S
C2040 C2045 1.353 . S
C2040 H2046 0.930 . S
N2041 Li2024 1.990 . S
N2041 C2040 1.314 . S
N2041 C2043 1.279 . S
C2042 C2043 1.358 . S
C2042 C2044 1.356 . S
C2042 H2096 0.930 . S
C2043 N2041 1.279 . S
C2043 C2042 1.358 . S
C2043 H2047 0.930 . S
C2044 C2042 1.356 . S
C2044 C2045 1.348 . S
C2045 C2040 1.353 . S
C2045 C2044 1.348 . S
C2045 H2097 0.929 . S
H2046 C2040 0.930 . S
H2047 C2043 0.930 . S
C2048 N2049 1.314 . S
C2048 C2050 1.353 . S
C2048 H2054 0.930 . S
N2049 Li2025 1.990 . S
N2049 C2048 1.314 . S
N2049 C2052 1.279 . S
C2050 C2048 1.353 . S
C2050 C2053 1.348 . S
C2050 H2098 0.929 . S
C2051 C2052 1.358 . S
C2051 C2053 1.356 . S
C2051 H2099 0.930 . S
C2052 N2049 1.279 . S
C2052 C2051 1.358 . S
C2052 H2055 0.930 . S
C2053 C2050 1.348 . S
C2053 C2051 1.356 . S
H2054 C2048 0.930 . S
H2055 C2052 0.930 . S
C2056 C2058 1.348 . S
C2056 C2059 1.356 . S
C2056 O2086 1.325 . S
N2057 C2060 1.314 . S
N2057 C2061 1.279 . S
C2058 C2056 1.348 . S
C2058 C2060 1.353 . S
C2058 H2100 0.929 . S
C2059 C2056 1.356 . S
C2059 C2061 1.358 . S
C2059 H2101 0.930 . S
C2060 N2057 1.314 . S
C2060 C2058 1.353 . S
C2060 H2102 0.930 . S
C2061 N2057 1.279 . S
C2061 C2059 1.358 . S
C2061 H2103 0.930 . S
C2062 C2063 1.348 . S
C2062 C2064 1.356 . S
C2062 O2087 1.325 . S
C2063 C2062 1.348 . S
C2063 C2065 1.353 . S
C2063 H2104 0.929 . S
C2064 C2062 1.356 . S
C2064 C2066 1.358 . S
C2064 H2105 0.930 . S
C2065 C2063 1.353 . S
C2065 N2067 1.314 . S
C2065 H2106 0.930 . S
C2066 C2064 1.358 . S
C2066 N2067 1.279 . S
C2066 H2107 0.930 . S
N2067 C2065 1.314 . S
N2067 C2066 1.279 . S
C2068 C2070 1.353 . S
C2068 N2071 1.314 . S
C2068 H2074 0.930 . S
C2069 N2071 1.279 . S
C2069 C2072 1.358 . S
C2069 H2075 0.930 . S
C2070 C2068 1.353 . S
C2070 C2073 1.348 . S
C2070 H2108 0.929 . S
N2071 Li2026 1.990 . S
N2071 C2068 1.314 . S
N2071 C2069 1.279 . S
C2072 C2069 1.358 . S
C2072 C2073 1.356 . S
C2072 H2109 0.930 . S
C2073 C2070 1.348 . S
C2073 C2072 1.356 . S
H2074 C2068 0.930 . S
H2075 C2069 0.930 . S
C2076 N2077 1.314 . S
C2076 C2078 1.353 . S
C2076 H2082 0.930 . S
N2077 Li2027 1.990 . S
N2077 C2076 1.314 . S
N2077 C2080 1.279 . S
C2078 C2076 1.353 . S
C2078 C2081 1.348 . S
C2078 H2110 0.929 . S
C2079 C2080 1.358 . S
C2079 C2081 1.356 . S
C2079 H2111 0.930 . S
C2080 N2077 1.279 . S
C2080 C2079 1.358 . S
C2080 H2083 0.930 . S
C2081 C2078 1.348 . S
C2081 C2079 1.356 . S
H2082 C2076 0.930 . S
H2083 C2080 0.930 . S
O2084 Li2024 1.956 . S
O2084 Li2025 1.970 . S
O2084 Li2026 1.961 . S
O2084 C2028 1.325 . S
O2085 Li2024 1.970 . S
O2085 Li2025 1.956 . S
O2085 Li2027 1.961 . S
O2085 C2034 1.325 . S
O2086 Li2024 1.961 . S
O2086 Li2026 1.956 . S
O2086 Li2027 1.970 . S
O2086 C2056 1.325 . S
O2087 Li2025 1.961 . S
O2087 Li2026 1.970 . S
O2087 Li2027 1.956 . S
O2087 C2062 1.325 . S
H2088 C2030 0.929 . S
H2089 C2031 0.930 . S
H2090 C2032 0.930 . S
H2091 C2033 0.930 . S
H2092 C2035 0.930 . S
H2093 C2037 0.929 . S
H2094 C2038 0.930 . S
H2095 C2039 0.930 . S
H2096 C2042 0.930 . S
H2097 C2045 0.929 . S
H2098 C2050 0.929 . S
H2099 C2051 0.930 . S
H2100 C2058 0.929 . S
H2101 C2059 0.930 . S
H2102 C2060 0.930 . S
H2103 C2061 0.930 . S
H2104 C2063 0.929 . S
H2105 C2064 0.930 . S
H2106 C2065 0.930 . S
H2107 C2066 0.930 . S
H2108 C2070 0.929 . S
H2109 C2072 0.930 . S
H2110 C2078 0.929 . S
H2111 C2079 0.930 . S
Li2112 N2129 1.990 . S
Li2112 O2172 1.956 . S
Li2112 O2173 1.970 . S
Li2112 O2174 1.961 . S
Li2113 N2137 1.990 . S
Li2113 O2172 1.970 . S
Li2113 O2173 1.956 . S
Li2113 O2175 1.961 . S
Li2114 N2159 1.990 . S
Li2114 O2172 1.961 . S
Li2114 O2174 1.956 . S
Li2114 O2175 1.970 . S
Li2115 N2165 1.990 . S
Li2115 O2173 1.961 . S
Li2115 O2174 1.970 . S
Li2115 O2175 1.956 . S
C2116 C2118 1.348 . S
C2116 C2119 1.356 . S
C2116 O2172 1.325 . S
N2117 C2120 1.314 . S
N2117 C2121 1.279 . S
C2118 C2116 1.348 . S
C2118 C2120 1.353 . S
C2118 H2176 0.929 . S
C2119 C2116 1.356 . S
C2119 C2121 1.358 . S
C2119 H2177 0.930 . S
C2120 N2117 1.314 . S
C2120 C2118 1.353 . S
C2120 H2178 0.930 . S
C2121 N2117 1.279 . S
C2121 C2119 1.358 . S
C2121 H2179 0.930 . S
C2122 C2125 1.348 . S
C2122 C2126 1.356 . S
C2122 O2173 1.325 . S
C2123 N2124 1.279 . S
C2123 C2126 1.358 . S
C2123 H2180 0.930 . S
N2124 C2123 1.279 . S
N2124 C2127 1.314 . S
C2125 C2122 1.348 . S
C2125 C2127 1.353 . S
C2125 H2181 0.929 . S
C2126 C2122 1.356 . S
C2126 C2123 1.358 . S
C2126 H2182 0.930 . S
C2127 N2124 1.314 . S
C2127 C2125 1.353 . S
C2127 H2183 0.930 . S
C2128 N2129 1.314 1_556 S
C2128 C2133 1.353 . S
C2128 H2134 0.930 . S
N2129 Li2112 1.990 . S
N2129 C2128 1.314 1_554 S
N2129 C2131 1.279 1_554 S
C2130 C2131 1.358 . S
C2130 C2132 1.356 . S
C2130 H2184 0.930 . S
C2131 N2129 1.279 1_556 S
C2131 C2130 1.358 . S
C2131 H2135 0.930 1_556 S
C2132 C2130 1.356 . S
C2132 C2133 1.348 . S
C2133 C2128 1.353 . S
C2133 C2132 1.348 . S
C2133 H2185 0.929 . S
H2134 C2128 0.930 . S
H2135 C2131 0.930 1_554 S
C2136 N2137 1.314 . S
C2136 C2138 1.353 . S
C2136 H2142 0.930 . S
N2137 Li2113 1.990 . S
N2137 C2136 1.314 . S
N2137 C2140 1.279 . S
C2138 C2136 1.353 . S
C2138 C2141 1.348 . S
C2138 H2186 0.929 . S
C2139 C2140 1.358 . S
C2139 C2141 1.356 . S
C2139 H2187 0.930 . S
C2140 N2137 1.279 . S
C2140 C2139 1.358 . S
C2140 H2143 0.930 . S
C2141 C2138 1.348 . S
C2141 C2139 1.356 . S
H2142 C2136 0.930 . S
H2143 C2140 0.930 . S
C2144 C2146 1.348 . S
C2144 C2147 1.356 . S
C2144 O2174 1.325 . S
N2145 C2148 1.314 . S
N2145 C2149 1.279 1_554 S
C2146 C2144 1.348 . S
C2146 C2148 1.353 . S
C2146 H2188 0.929 . S
C2147 C2144 1.356 . S
C2147 C2149 1.358 1_554 S
C2147 H2189 0.930 . S
C2148 N2145 1.314 . S
C2148 C2146 1.353 . S
C2148 H2190 0.930 . S
C2149 N2145 1.279 1_556 S
C2149 C2147 1.358 1_556 S
C2149 H2191 0.930 . S
C2150 C2151 1.348 . S
C2150 C2152 1.356 . S
C2150 O2175 1.325 . S
C2151 C2150 1.348 . S
C2151 C2153 1.353 . S
C2151 H2192 0.929 . S
C2152 C2150 1.356 . S
C2152 C2154 1.358 . S
C2152 H2193 0.930 . S
C2153 C2151 1.353 . S
C2153 N2155 1.314 . S
C2153 H2194 0.930 . S
C2154 C2152 1.358 . S
C2154 N2155 1.279 . S
C2154 H2195 0.930 . S
N2155 C2153 1.314 . S
N2155 C2154 1.279 . S
C2156 C2158 1.353 . S
C2156 N2159 1.314 . S
C2156 H2162 0.930 . S
C2157 N2159 1.279 . S
C2157 C2160 1.358 . S
C2157 H2163 0.930 . S
C2158 C2156 1.353 . S
C2158 C2161 1.348 . S
C2158 H2196 0.929 . S
N2159 Li2114 1.990 . S
N2159 C2156 1.314 . S
N2159 C2157 1.279 . S
C2160 C2157 1.358 . S
C2160 C2161 1.356 . S
C2160 H2197 0.930 . S
C2161 C2158 1.348 . S
C2161 C2160 1.356 . S
H2162 C2156 0.930 . S
H2163 C2157 0.930 . S
C2164 N2165 1.314 . S
C2164 C2166 1.353 . S
C2164 H2170 0.930 . S
N2165 Li2115 1.990 . S
N2165 C2164 1.314 . S
N2165 C2168 1.279 . S
C2166 C2164 1.353 . S
C2166 C2169 1.348 . S
C2166 H2198 0.929 . S
C2167 C2168 1.358 . S
C2167 C2169 1.356 . S
C2167 H2199 0.930 . S
C2168 N2165 1.279 . S
C2168 C2167 1.358 . S
C2168 H2171 0.930 . S
C2169 C2166 1.348 . S
C2169 C2167 1.356 . S
H2170 C2164 0.930 . S
H2171 C2168 0.930 . S
O2172 Li2112 1.956 . S
O2172 Li2113 1.970 . S
O2172 Li2114 1.961 . S
O2172 C2116 1.325 . S
O2173 Li2112 1.970 . S
O2173 Li2113 1.956 . S
O2173 Li2115 1.961 . S
O2173 C2122 1.325 . S
O2174 Li2112 1.961 . S
O2174 Li2114 1.956 . S
O2174 Li2115 1.970 . S
O2174 C2144 1.325 . S
O2175 Li2113 1.961 . S
O2175 Li2114 1.970 . S
O2175 Li2115 1.956 . S
O2175 C2150 1.325 . S
H2176 C2118 0.929 . S
H2177 C2119 0.930 . S
H2178 C2120 0.930 . S
H2179 C2121 0.930 . S
H2180 C2123 0.930 . S
H2181 C2125 0.929 . S
H2182 C2126 0.930 . S
H2183 C2127 0.930 . S
H2184 C2130 0.930 . S
H2185 C2133 0.929 . S
H2186 C2138 0.929 . S
H2187 C2139 0.930 . S
H2188 C2146 0.929 . S
H2189 C2147 0.930 . S
H2190 C2148 0.930 . S
H2191 C2149 0.930 . S
H2192 C2151 0.929 . S
H2193 C2152 0.930 . S
H2194 C2153 0.930 . S
H2195 C2154 0.930 . S
H2196 C2158 0.929 . S
H2197 C2160 0.930 . S
H2198 C2166 0.929 . S
H2199 C2167 0.930 . S
Li2200 N2217 1.990 . S
Li2200 O2260 1.956 . S
Li2200 O2261 1.970 . S
Li2200 O2262 1.961 . S
Li2201 N2225 1.990 . S
Li2201 O2260 1.970 . S
Li2201 O2261 1.956 . S
Li2201 O2263 1.961 . S
Li2202 N2247 1.990 . S
Li2202 O2260 1.961 . S
Li2202 O2262 1.956 . S
Li2202 O2263 1.970 . S
Li2203 N2253 1.990 . S
Li2203 O2261 1.961 . S
Li2203 O2262 1.970 . S
Li2203 O2263 1.956 . S
C2204 C2206 1.348 . S
C2204 C2207 1.356 . S
C2204 O2260 1.325 . S
N2205 C2208 1.314 . S
N2205 C2209 1.279 . S
C2206 C2204 1.348 . S
C2206 C2208 1.353 . S
C2206 H2264 0.929 . S
C2207 C2204 1.356 . S
C2207 C2209 1.358 . S
C2207 H2265 0.930 . S
C2208 N2205 1.314 . S
C2208 C2206 1.353 . S
C2208 H2266 0.930 . S
C2209 N2205 1.279 . S
C2209 C2207 1.358 . S
C2209 H2267 0.930 . S
C2210 C2213 1.348 . S
C2210 C2214 1.356 . S
C2210 O2261 1.325 . S
C2211 N2212 1.279 . S
C2211 C2214 1.358 . S
C2211 H2268 0.930 . S
N2212 C2211 1.279 . S
N2212 C2215 1.314 . S
C2213 C2210 1.348 . S
C2213 C2215 1.353 . S
C2213 H2269 0.929 . S
C2214 C2210 1.356 . S
C2214 C2211 1.358 . S
C2214 H2270 0.930 . S
C2215 N2212 1.314 . S
C2215 C2213 1.353 . S
C2215 H2271 0.930 . S
C2216 N2217 1.314 . S
C2216 C2221 1.353 . S
C2216 H2222 0.930 . S
N2217 Li2200 1.990 . S
N2217 C2216 1.314 . S
N2217 C2219 1.279 . S
C2218 C2219 1.358 . S
C2218 C2220 1.356 . S
C2218 H2272 0.930 . S
C2219 N2217 1.279 . S
C2219 C2218 1.358 . S
C2219 H2223 0.930 . S
C2220 C2218 1.356 . S
C2220 C2221 1.348 . S
C2221 C2216 1.353 . S
C2221 C2220 1.348 . S
C2221 H2273 0.929 . S
H2222 C2216 0.930 . S
H2223 C2219 0.930 . S
C2224 N2225 1.314 . S
C2224 C2226 1.353 . S
C2224 H2230 0.930 . S
N2225 Li2201 1.990 . S
N2225 C2224 1.314 . S
N2225 C2228 1.279 . S
C2226 C2224 1.353 . S
C2226 C2229 1.348 . S
C2226 H2274 0.929 . S
C2227 C2228 1.358 . S
C2227 C2229 1.356 . S
C2227 H2275 0.930 . S
C2228 N2225 1.279 . S
C2228 C2227 1.358 . S
C2228 H2231 0.930 . S
C2229 C2226 1.348 . S
C2229 C2227 1.356 . S
H2230 C2224 0.930 . S
H2231 C2228 0.930 . S
C2232 C2234 1.348 . S
C2232 C2235 1.356 . S
C2232 O2262 1.325 . S
N2233 C2236 1.314 . S
N2233 C2237 1.279 . S
C2234 C2232 1.348 . S
C2234 C2236 1.353 . S
C2234 H2276 0.929 . S
C2235 C2232 1.356 . S
C2235 C2237 1.358 . S
C2235 H2277 0.930 . S
C2236 N2233 1.314 . S
C2236 C2234 1.353 . S
C2236 H2278 0.930 . S
C2237 N2233 1.279 . S
C2237 C2235 1.358 . S
C2237 H2279 0.930 . S
C2238 C2239 1.348 . S
C2238 C2240 1.356 . S
C2238 O2263 1.325 . S
C2239 C2238 1.348 . S
C2239 C2241 1.353 . S
C2239 H2280 0.929 . S
C2240 C2238 1.356 . S
C2240 C2242 1.358 . S
C2240 H2281 0.930 . S
C2241 C2239 1.353 . S
C2241 N2243 1.314 . S
C2241 H2282 0.930 . S
C2242 C2240 1.358 . S
C2242 N2243 1.279 . S
C2242 H2283 0.930 . S
N2243 C2241 1.314 . S
N2243 C2242 1.279 . S
C2244 C2246 1.353 . S
C2244 N2247 1.314 . S
C2244 H2250 0.930 . S
C2245 N2247 1.279 . S
C2245 C2248 1.358 . S
C2245 H2251 0.930 . S
C2246 C2244 1.353 . S
C2246 C2249 1.348 . S
C2246 H2284 0.929 . S
N2247 Li2202 1.990 . S
N2247 C2244 1.314 . S
N2247 C2245 1.279 . S
C2248 C2245 1.358 . S
C2248 C2249 1.356 . S
C2248 H2285 0.930 . S
C2249 C2246 1.348 . S
C2249 C2248 1.356 . S
H2250 C2244 0.930 . S
H2251 C2245 0.930 . S
C2252 N2253 1.314 . S
C2252 C2254 1.353 . S
C2252 H2258 0.930 . S
N2253 Li2203 1.990 . S
N2253 C2252 1.314 . S
N2253 C2256 1.279 . S
C2254 C2252 1.353 . S
C2254 C2257 1.348 . S
C2254 H2286 0.929 . S
C2255 C2256 1.358 . S
C2255 C2257 1.356 . S
C2255 H2287 0.930 . S
C2256 N2253 1.279 . S
C2256 C2255 1.358 . S
C2256 H2259 0.930 . S
C2257 C2254 1.348 . S
C2257 C2255 1.356 . S
H2258 C2252 0.930 . S
H2259 C2256 0.930 . S
O2260 Li2200 1.956 . S
O2260 Li2201 1.970 . S
O2260 Li2202 1.961 . S
O2260 C2204 1.325 . S
O2261 Li2200 1.970 . S
O2261 Li2201 1.956 . S
O2261 Li2203 1.961 . S
O2261 C2210 1.325 . S
O2262 Li2200 1.961 . S
O2262 Li2202 1.956 . S
O2262 Li2203 1.970 . S
O2262 C2232 1.325 . S
O2263 Li2201 1.961 . S
O2263 Li2202 1.970 . S
O2263 Li2203 1.956 . S
O2263 C2238 1.325 . S
H2264 C2206 0.929 . S
H2265 C2207 0.930 . S
H2266 C2208 0.930 . S
H2267 C2209 0.930 . S
H2268 C2211 0.930 . S
H2269 C2213 0.929 . S
H2270 C2214 0.930 . S
H2271 C2215 0.930 . S
H2272 C2218 0.930 . S
H2273 C2221 0.929 . S
H2274 C2226 0.929 . S
H2275 C2227 0.930 . S
H2276 C2234 0.929 . S
H2277 C2235 0.930 . S
H2278 C2236 0.930 . S
H2279 C2237 0.930 . S
H2280 C2239 0.929 . S
H2281 C2240 0.930 . S
H2282 C2241 0.930 . S
H2283 C2242 0.930 . S
H2284 C2246 0.929 . S
H2285 C2248 0.930 . S
H2286 C2254 0.929 . S
H2287 C2255 0.930 . S
Li2288 N2305 1.990 . S
Li2288 O2348 1.956 . S
Li2288 O2349 1.970 . S
Li2288 O2350 1.961 . S
Li2289 N2313 1.990 . S
Li2289 O2348 1.970 . S
Li2289 O2349 1.956 . S
Li2289 O2351 1.961 . S
Li2290 N2335 1.990 . S
Li2290 O2348 1.961 . S
Li2290 O2350 1.956 . S
Li2290 O2351 1.970 . S
Li2291 N2341 1.990 . S
Li2291 O2349 1.961 . S
Li2291 O2350 1.970 . S
Li2291 O2351 1.956 . S
C2292 C2294 1.348 . S
C2292 C2295 1.356 . S
C2292 O2348 1.325 . S
N2293 C2296 1.314 . S
N2293 C2297 1.279 . S
C2294 C2292 1.348 . S
C2294 C2296 1.353 . S
C2294 H2352 0.929 . S
C2295 C2292 1.356 . S
C2295 C2297 1.358 . S
C2295 H2353 0.930 . S
C2296 N2293 1.314 . S
C2296 C2294 1.353 . S
C2296 H2354 0.930 . S
C2297 N2293 1.279 . S
C2297 C2295 1.358 . S
C2297 H2355 0.930 . S
C2298 C2301 1.348 . S
C2298 C2302 1.356 . S
C2298 O2349 1.325 . S
C2299 N2300 1.279 . S
C2299 C2302 1.358 . S
C2299 H2356 0.930 . S
N2300 C2299 1.279 . S
N2300 C2303 1.314 . S
C2301 C2298 1.348 . S
C2301 C2303 1.353 . S
C2301 H2357 0.929 . S
C2302 C2298 1.356 . S
C2302 C2299 1.358 . S
C2302 H2358 0.930 . S
C2303 N2300 1.314 . S
C2303 C2301 1.353 . S
C2303 H2359 0.930 . S
C2304 N2305 1.314 . S
C2304 C2309 1.353 . S
C2304 H2310 0.930 . S
N2305 Li2288 1.990 . S
N2305 C2304 1.314 . S
N2305 C2307 1.279 . S
C2306 C2307 1.358 . S
C2306 C2308 1.356 . S
C2306 H2360 0.930 . S
C2307 N2305 1.279 . S
C2307 C2306 1.358 . S
C2307 H2311 0.930 . S
C2308 C2306 1.356 . S
C2308 C2309 1.348 . S
C2309 C2304 1.353 . S
C2309 C2308 1.348 . S
C2309 H2361 0.929 . S
H2310 C2304 0.930 . S
H2311 C2307 0.930 . S
C2312 N2313 1.314 . S
C2312 C2314 1.353 . S
C2312 H2318 0.930 . S
N2313 Li2289 1.990 . S
N2313 C2312 1.314 . S
N2313 C2316 1.279 . S
C2314 C2312 1.353 . S
C2314 C2317 1.348 . S
C2314 H2362 0.929 . S
C2315 C2316 1.358 . S
C2315 C2317 1.356 . S
C2315 H2363 0.930 . S
C2316 N2313 1.279 . S
C2316 C2315 1.358 . S
C2316 H2319 0.930 . S
C2317 C2314 1.348 . S
C2317 C2315 1.356 . S
H2318 C2312 0.930 . S
H2319 C2316 0.930 . S
C2320 C2322 1.348 . S
C2320 C2323 1.356 . S
C2320 O2350 1.325 . S
N2321 C2324 1.314 . S
N2321 C2325 1.279 . S
C2322 C2320 1.348 . S
C2322 C2324 1.353 . S
C2322 H2364 0.929 . S
C2323 C2320 1.356 . S
C2323 C2325 1.358 . S
C2323 H2365 0.930 . S
C2324 N2321 1.314 . S
C2324 C2322 1.353 . S
C2324 H2366 0.930 . S
C2325 N2321 1.279 . S
C2325 C2323 1.358 . S
C2325 H2367 0.930 . S
C2326 C2327 1.348 . S
C2326 C2328 1.356 . S
C2326 O2351 1.325 . S
C2327 C2326 1.348 . S
C2327 C2329 1.353 . S
C2327 H2368 0.929 . S
C2328 C2326 1.356 . S
C2328 C2330 1.358 . S
C2328 H2369 0.930 . S
C2329 C2327 1.353 . S
C2329 N2331 1.314 . S
C2329 H2370 0.930 . S
C2330 C2328 1.358 . S
C2330 N2331 1.279 . S
C2330 H2371 0.930 . S
N2331 C2329 1.314 . S
N2331 C2330 1.279 . S
C2332 C2334 1.353 . S
C2332 N2335 1.314 . S
C2332 H2338 0.930 . S
C2333 N2335 1.279 . S
C2333 C2336 1.358 . S
C2333 H2339 0.930 . S
C2334 C2332 1.353 . S
C2334 C2337 1.348 . S
C2334 H2372 0.929 . S
N2335 Li2290 1.990 . S
N2335 C2332 1.314 . S
N2335 C2333 1.279 . S
C2336 C2333 1.358 . S
C2336 C2337 1.356 . S
C2336 H2373 0.930 . S
C2337 C2334 1.348 . S
C2337 C2336 1.356 . S
H2338 C2332 0.930 . S
H2339 C2333 0.930 . S
C2340 N2341 1.314 . S
C2340 C2342 1.353 . S
C2340 H2346 0.930 . S
N2341 Li2291 1.990 . S
N2341 C2340 1.314 . S
N2341 C2344 1.279 . S
C2342 C2340 1.353 . S
C2342 C2345 1.348 . S
C2342 H2374 0.929 . S
C2343 C2344 1.358 . S
C2343 C2345 1.356 . S
C2343 H2375 0.930 . S
C2344 N2341 1.279 . S
C2344 C2343 1.358 . S
C2344 H2347 0.930 . S
C2345 C2342 1.348 . S
C2345 C2343 1.356 . S
H2346 C2340 0.930 . S
H2347 C2344 0.930 . S
O2348 Li2288 1.956 . S
O2348 Li2289 1.970 . S
O2348 Li2290 1.961 . S
O2348 C2292 1.325 . S
O2349 Li2288 1.970 . S
O2349 Li2289 1.956 . S
O2349 Li2291 1.961 . S
O2349 C2298 1.325 . S
O2350 Li2288 1.961 . S
O2350 Li2290 1.956 . S
O2350 Li2291 1.970 . S
O2350 C2320 1.325 . S
O2351 Li2289 1.961 . S
O2351 Li2290 1.970 . S
O2351 Li2291 1.956 . S
O2351 C2326 1.325 . S
H2352 C2294 0.929 . S
H2353 C2295 0.930 . S
H2354 C2296 0.930 . S
H2355 C2297 0.930 . S
H2356 C2299 0.930 . S
H2357 C2301 0.929 . S
H2358 C2302 0.930 . S
H2359 C2303 0.930 . S
H2360 C2306 0.930 . S
H2361 C2309 0.929 . S
H2362 C2314 0.929 . S
H2363 C2315 0.930 . S
H2364 C2322 0.929 . S
H2365 C2323 0.930 . S
H2366 C2324 0.930 . S
H2367 C2325 0.930 . S
H2368 C2327 0.929 . S
H2369 C2328 0.930 . S
H2370 C2329 0.930 . S
H2371 C2330 0.930 . S
H2372 C2334 0.929 . S
H2373 C2336 0.930 . S
H2374 C2342 0.929 . S
H2375 C2343 0.930 . S
Li2376 N2393 1.990 . S
Li2376 O2436 1.956 . S
Li2376 O2437 1.970 . S
Li2376 O2438 1.961 . S
Li2377 N2401 1.990 . S
Li2377 O2436 1.970 . S
Li2377 O2437 1.956 . S
Li2377 O2439 1.961 . S
Li2378 N2423 1.990 . S
Li2378 O2436 1.961 . S
Li2378 O2438 1.956 . S
Li2378 O2439 1.970 . S
Li2379 N2429 1.990 . S
Li2379 O2437 1.961 . S
Li2379 O2438 1.970 . S
Li2379 O2439 1.956 . S
C2380 C2382 1.348 . S
C2380 C2383 1.356 . S
C2380 O2436 1.325 . S
N2381 C2384 1.314 . S
N2381 C2385 1.279 . S
C2382 C2380 1.348 . S
C2382 C2384 1.353 . S
C2382 H2440 0.929 . S
C2383 C2380 1.356 . S
C2383 C2385 1.358 . S
C2383 H2441 0.930 . S
C2384 N2381 1.314 . S
C2384 C2382 1.353 . S
C2384 H2442 0.930 . S
C2385 N2381 1.279 . S
C2385 C2383 1.358 . S
C2385 H2443 0.930 . S
C2386 C2389 1.348 . S
C2386 C2390 1.356 . S
C2386 O2437 1.325 . S
C2387 N2388 1.279 . S
C2387 C2390 1.358 . S
C2387 H2444 0.930 . S
N2388 C2387 1.279 . S
N2388 C2391 1.314 . S
C2389 C2386 1.348 . S
C2389 C2391 1.353 . S
C2389 H2445 0.929 . S
C2390 C2386 1.356 . S
C2390 C2387 1.358 . S
C2390 H2446 0.930 . S
C2391 N2388 1.314 . S
C2391 C2389 1.353 . S
C2391 H2447 0.930 . S
C2392 N2393 1.314 . S
C2392 C2397 1.353 . S
C2392 H2398 0.930 . S
N2393 Li2376 1.990 . S
N2393 C2392 1.314 . S
N2393 C2395 1.279 . S
C2394 C2395 1.358 . S
C2394 C2396 1.356 . S
C2394 H2448 0.930 . S
C2395 N2393 1.279 . S
C2395 C2394 1.358 . S
C2395 H2399 0.930 . S
C2396 C2394 1.356 . S
C2396 C2397 1.348 . S
C2397 C2392 1.353 . S
C2397 C2396 1.348 . S
C2397 H2449 0.929 . S
H2398 C2392 0.930 . S
H2399 C2395 0.930 . S
C2400 N2401 1.314 . S
C2400 C2402 1.353 . S
C2400 H2406 0.930 . S
N2401 Li2377 1.990 . S
N2401 C2400 1.314 . S
N2401 C2404 1.279 . S
C2402 C2400 1.353 . S
C2402 C2405 1.348 . S
C2402 H2450 0.929 . S
C2403 C2404 1.358 . S
C2403 C2405 1.356 . S
C2403 H2451 0.930 . S
C2404 N2401 1.279 . S
C2404 C2403 1.358 . S
C2404 H2407 0.930 . S
C2405 C2402 1.348 . S
C2405 C2403 1.356 . S
H2406 C2400 0.930 . S
H2407 C2404 0.930 . S
C2408 C2410 1.348 . S
C2408 C2411 1.356 . S
C2408 O2438 1.325 . S
N2409 C2412 1.314 . S
N2409 C2413 1.279 . S
C2410 C2408 1.348 . S
C2410 C2412 1.353 . S
C2410 H2452 0.929 . S
C2411 C2408 1.356 . S
C2411 C2413 1.358 . S
C2411 H2453 0.930 . S
C2412 N2409 1.314 . S
C2412 C2410 1.353 . S
C2412 H2454 0.930 . S
C2413 N2409 1.279 . S
C2413 C2411 1.358 . S
C2413 H2455 0.930 . S
C2414 C2415 1.348 . S
C2414 C2416 1.356 . S
C2414 O2439 1.325 . S
C2415 C2414 1.348 . S
C2415 C2417 1.353 . S
C2415 H2456 0.929 . S
C2416 C2414 1.356 . S
C2416 C2418 1.358 . S
C2416 H2457 0.930 . S
C2417 C2415 1.353 . S
C2417 N2419 1.314 . S
C2417 H2458 0.930 . S
C2418 C2416 1.358 . S
C2418 N2419 1.279 . S
C2418 H2459 0.930 . S
N2419 C2417 1.314 . S
N2419 C2418 1.279 . S
C2420 C2422 1.353 . S
C2420 N2423 1.314 . S
C2420 H2426 0.930 . S
C2421 N2423 1.279 . S
C2421 C2424 1.358 . S
C2421 H2427 0.930 . S
C2422 C2420 1.353 . S
C2422 C2425 1.348 . S
C2422 H2460 0.929 . S
N2423 Li2378 1.990 . S
N2423 C2420 1.314 . S
N2423 C2421 1.279 . S
C2424 C2421 1.358 . S
C2424 C2425 1.356 . S
C2424 H2461 0.930 . S
C2425 C2422 1.348 . S
C2425 C2424 1.356 . S
H2426 C2420 0.930 . S
H2427 C2421 0.930 . S
C2428 N2429 1.314 . S
C2428 C2430 1.353 . S
C2428 H2434 0.930 . S
N2429 Li2379 1.990 . S
N2429 C2428 1.314 . S
N2429 C2432 1.279 . S
C2430 C2428 1.353 . S
C2430 C2433 1.348 . S
C2430 H2462 0.929 . S
C2431 C2432 1.358 . S
C2431 C2433 1.356 . S
C2431 H2463 0.930 . S
C2432 N2429 1.279 . S
C2432 C2431 1.358 . S
C2432 H2435 0.930 . S
C2433 C2430 1.348 . S
C2433 C2431 1.356 . S
H2434 C2428 0.930 . S
H2435 C2432 0.930 . S
O2436 Li2376 1.956 . S
O2436 Li2377 1.970 . S
O2436 Li2378 1.961 . S
O2436 C2380 1.325 . S
O2437 Li2376 1.970 . S
O2437 Li2377 1.956 . S
O2437 Li2379 1.961 . S
O2437 C2386 1.325 . S
O2438 Li2376 1.961 . S
O2438 Li2378 1.956 . S
O2438 Li2379 1.970 . S
O2438 C2408 1.325 . S
O2439 Li2377 1.961 . S
O2439 Li2378 1.970 . S
O2439 Li2379 1.956 . S
O2439 C2414 1.325 . S
H2440 C2382 0.929 . S
H2441 C2383 0.930 . S
H2442 C2384 0.930 . S
H2443 C2385 0.930 . S
H2444 C2387 0.930 . S
H2445 C2389 0.929 . S
H2446 C2390 0.930 . S
H2447 C2391 0.930 . S
H2448 C2394 0.930 . S
H2449 C2397 0.929 . S
H2450 C2402 0.929 . S
H2451 C2403 0.930 . S
H2452 C2410 0.929 . S
H2453 C2411 0.930 . S
H2454 C2412 0.930 . S
H2455 C2413 0.930 . S
H2456 C2415 0.929 . S
H2457 C2416 0.930 . S
H2458 C2417 0.930 . S
H2459 C2418 0.930 . S
H2460 C2422 0.929 . S
H2461 C2424 0.930 . S
H2462 C2430 0.929 . S
H2463 C2431 0.930 . S
Li2464 N2481 1.990 . S
Li2464 O2524 1.956 . S
Li2464 O2525 1.970 . S
Li2464 O2526 1.961 . S
Li2465 N2489 1.990 . S
Li2465 O2524 1.970 . S
Li2465 O2525 1.956 . S
Li2465 O2527 1.961 . S
Li2466 N2511 1.990 . S
Li2466 O2524 1.961 . S
Li2466 O2526 1.956 . S
Li2466 O2527 1.970 . S
Li2467 N2517 1.990 . S
Li2467 O2525 1.961 . S
Li2467 O2526 1.970 . S
Li2467 O2527 1.956 . S
C2468 C2470 1.348 . S
C2468 C2471 1.356 . S
C2468 O2524 1.325 . S
N2469 C2472 1.314 . S
N2469 C2473 1.279 . S
C2470 C2468 1.348 . S
C2470 C2472 1.353 . S
C2470 H2528 0.929 . S
C2471 C2468 1.356 . S
C2471 C2473 1.358 . S
C2471 H2529 0.930 . S
C2472 N2469 1.314 . S
C2472 C2470 1.353 . S
C2472 H2530 0.930 . S
C2473 N2469 1.279 . S
C2473 C2471 1.358 . S
C2473 H2531 0.930 . S
C2474 C2477 1.348 . S
C2474 C2478 1.356 . S
C2474 O2525 1.325 . S
C2475 N2476 1.279 . S
C2475 C2478 1.358 . S
C2475 H2532 0.930 . S
N2476 C2475 1.279 . S
N2476 C2479 1.314 . S
C2477 C2474 1.348 . S
C2477 C2479 1.353 . S
C2477 H2533 0.929 . S
C2478 C2474 1.356 . S
C2478 C2475 1.358 . S
C2478 H2534 0.930 . S
C2479 N2476 1.314 . S
C2479 C2477 1.353 . S
C2479 H2535 0.930 . S
C2480 N2481 1.314 . S
C2480 C2485 1.353 . S
C2480 H2486 0.930 . S
N2481 Li2464 1.990 . S
N2481 C2480 1.314 . S
N2481 C2483 1.279 . S
C2482 C2483 1.358 . S
C2482 C2484 1.356 . S
C2482 H2536 0.930 . S
C2483 N2481 1.279 . S
C2483 C2482 1.358 . S
C2483 H2487 0.930 . S
C2484 C2482 1.356 . S
C2484 C2485 1.348 . S
C2485 C2480 1.353 . S
C2485 C2484 1.348 . S
C2485 H2537 0.929 . S
H2486 C2480 0.930 . S
H2487 C2483 0.930 . S
C2488 N2489 1.314 . S
C2488 C2490 1.353 . S
C2488 H2494 0.930 . S
N2489 Li2465 1.990 . S
N2489 C2488 1.314 . S
N2489 C2492 1.279 . S
C2490 C2488 1.353 . S
C2490 C2493 1.348 . S
C2490 H2538 0.929 . S
C2491 C2492 1.358 . S
C2491 C2493 1.356 . S
C2491 H2539 0.930 . S
C2492 N2489 1.279 . S
C2492 C2491 1.358 . S
C2492 H2495 0.930 . S
C2493 C2490 1.348 . S
C2493 C2491 1.356 . S
H2494 C2488 0.930 . S
H2495 C2492 0.930 . S
C2496 C2498 1.348 . S
C2496 C2499 1.356 . S
C2496 O2526 1.325 . S
N2497 C2500 1.314 . S
N2497 C2501 1.279 . S
C2498 C2496 1.348 . S
C2498 C2500 1.353 . S
C2498 H2540 0.929 . S
C2499 C2496 1.356 . S
C2499 C2501 1.358 . S
C2499 H2541 0.930 . S
C2500 N2497 1.314 . S
C2500 C2498 1.353 . S
C2500 H2542 0.930 . S
C2501 N2497 1.279 . S
C2501 C2499 1.358 . S
C2501 H2543 0.930 . S
C2502 C2503 1.348 . S
C2502 C2504 1.356 . S
C2502 O2527 1.325 . S
C2503 C2502 1.348 . S
C2503 C2505 1.353 . S
C2503 H2544 0.929 . S
C2504 C2502 1.356 . S
C2504 C2506 1.358 . S
C2504 H2545 0.930 . S
C2505 C2503 1.353 . S
C2505 N2507 1.314 . S
C2505 H2546 0.930 . S
C2506 C2504 1.358 . S
C2506 N2507 1.279 . S
C2506 H2547 0.930 . S
N2507 C2505 1.314 . S
N2507 C2506 1.279 . S
C2508 C2510 1.353 . S
C2508 N2511 1.314 . S
C2508 H2514 0.930 . S
C2509 N2511 1.279 . S
C2509 C2512 1.358 . S
C2509 H2515 0.930 . S
C2510 C2508 1.353 . S
C2510 C2513 1.348 . S
C2510 H2548 0.929 . S
N2511 Li2466 1.990 . S
N2511 C2508 1.314 . S
N2511 C2509 1.279 . S
C2512 C2509 1.358 . S
C2512 C2513 1.356 . S
C2512 H2549 0.930 . S
C2513 C2510 1.348 . S
C2513 C2512 1.356 . S
H2514 C2508 0.930 . S
H2515 C2509 0.930 . S
C2516 N2517 1.314 . S
C2516 C2518 1.353 . S
C2516 H2522 0.930 . S
N2517 Li2467 1.990 . S
N2517 C2516 1.314 . S
N2517 C2520 1.279 . S
C2518 C2516 1.353 . S
C2518 C2521 1.348 . S
C2518 H2550 0.929 . S
C2519 C2520 1.358 . S
C2519 C2521 1.356 . S
C2519 H2551 0.930 . S
C2520 N2517 1.279 . S
C2520 C2519 1.358 . S
C2520 H2523 0.930 . S
C2521 C2518 1.348 . S
C2521 C2519 1.356 . S
H2522 C2516 0.930 . S
H2523 C2520 0.930 . S
O2524 Li2464 1.956 . S
O2524 Li2465 1.970 . S
O2524 Li2466 1.961 . S
O2524 C2468 1.325 . S
O2525 Li2464 1.970 . S
O2525 Li2465 1.956 . S
O2525 Li2467 1.961 . S
O2525 C2474 1.325 . S
O2526 Li2464 1.961 . S
O2526 Li2466 1.956 . S
O2526 Li2467 1.970 . S
O2526 C2496 1.325 . S
O2527 Li2465 1.961 . S
O2527 Li2466 1.970 . S
O2527 Li2467 1.956 . S
O2527 C2502 1.325 . S
H2528 C2470 0.929 . S
H2529 C2471 0.930 . S
H2530 C2472 0.930 . S
H2531 C2473 0.930 . S
H2532 C2475 0.930 . S
H2533 C2477 0.929 . S
H2534 C2478 0.930 . S
H2535 C2479 0.930 . S
H2536 C2482 0.930 . S
H2537 C2485 0.929 . S
H2538 C2490 0.929 . S
H2539 C2491 0.930 . S
H2540 C2498 0.929 . S
H2541 C2499 0.930 . S
H2542 C2500 0.930 . S
H2543 C2501 0.930 . S
H2544 C2503 0.929 . S
H2545 C2504 0.930 . S
H2546 C2505 0.930 . S
H2547 C2506 0.930 . S
H2548 C2510 0.929 . S
H2549 C2512 0.930 . S
H2550 C2518 0.929 . S
H2551 C2519 0.930 . S
Li2552 N2569 1.990 . S
Li2552 O2612 1.956 . S
Li2552 O2613 1.970 . S
Li2552 O2614 1.961 . S
Li2553 N2577 1.990 . S
Li2553 O2612 1.970 . S
Li2553 O2613 1.956 . S
Li2553 O2615 1.961 . S
Li2554 N2599 1.990 . S
Li2554 O2612 1.961 . S
Li2554 O2614 1.956 . S
Li2554 O2615 1.970 . S
Li2555 N2605 1.990 . S
Li2555 O2613 1.961 . S
Li2555 O2614 1.970 . S
Li2555 O2615 1.956 . S
C2556 C2558 1.348 . S
C2556 C2559 1.356 . S
C2556 O2612 1.325 . S
N2557 C2560 1.314 . S
N2557 C2561 1.279 . S
C2558 C2556 1.348 . S
C2558 C2560 1.353 . S
C2558 H2616 0.929 . S
C2559 C2556 1.356 . S
C2559 C2561 1.358 . S
C2559 H2617 0.930 . S
C2560 N2557 1.314 . S
C2560 C2558 1.353 . S
C2560 H2618 0.930 . S
C2561 N2557 1.279 . S
C2561 C2559 1.358 . S
C2561 H2619 0.930 . S
C2562 C2565 1.348 . S
C2562 C2566 1.356 . S
C2562 O2613 1.325 . S
C2563 N2564 1.279 . S
C2563 C2566 1.358 . S
C2563 H2620 0.930 . S
N2564 C2563 1.279 . S
N2564 C2567 1.314 . S
C2565 C2562 1.348 . S
C2565 C2567 1.353 . S
C2565 H2621 0.929 . S
C2566 C2562 1.356 . S
C2566 C2563 1.358 . S
C2566 H2622 0.930 . S
C2567 N2564 1.314 . S
C2567 C2565 1.353 . S
C2567 H2623 0.930 . S
C2568 N2569 1.314 . S
C2568 C2573 1.353 . S
C2568 H2574 0.930 . S
N2569 Li2552 1.990 . S
N2569 C2568 1.314 . S
N2569 C2571 1.279 . S
C2570 C2571 1.358 . S
C2570 C2572 1.356 . S
C2570 H2624 0.930 . S
C2571 N2569 1.279 . S
C2571 C2570 1.358 . S
C2571 H2575 0.930 . S
C2572 C2570 1.356 . S
C2572 C2573 1.348 . S
C2573 C2568 1.353 . S
C2573 C2572 1.348 . S
C2573 H2625 0.929 . S
H2574 C2568 0.930 . S
H2575 C2571 0.930 . S
C2576 N2577 1.314 . S
C2576 C2578 1.353 . S
C2576 H2582 0.930 . S
N2577 Li2553 1.990 . S
N2577 C2576 1.314 . S
N2577 C2580 1.279 . S
C2578 C2576 1.353 . S
C2578 C2581 1.348 . S
C2578 H2626 0.929 . S
C2579 C2580 1.358 . S
C2579 C2581 1.356 . S
C2579 H2627 0.930 . S
C2580 N2577 1.279 . S
C2580 C2579 1.358 . S
C2580 H2583 0.930 . S
C2581 C2578 1.348 . S
C2581 C2579 1.356 . S
H2582 C2576 0.930 . S
H2583 C2580 0.930 . S
C2584 C2586 1.348 . S
C2584 C2587 1.356 . S
C2584 O2614 1.325 . S
N2585 C2588 1.314 . S
N2585 C2589 1.279 . S
C2586 C2584 1.348 . S
C2586 C2588 1.353 . S
C2586 H2628 0.929 . S
C2587 C2584 1.356 . S
C2587 C2589 1.358 . S
C2587 H2629 0.930 . S
C2588 N2585 1.314 . S
C2588 C2586 1.353 . S
C2588 H2630 0.930 . S
C2589 N2585 1.279 . S
C2589 C2587 1.358 . S
C2589 H2631 0.930 . S
C2590 C2591 1.348 . S
C2590 C2592 1.356 . S
C2590 O2615 1.325 . S
C2591 C2590 1.348 . S
C2591 C2593 1.353 . S
C2591 H2632 0.929 . S
C2592 C2590 1.356 . S
C2592 C2594 1.358 . S
C2592 H2633 0.930 . S
C2593 C2591 1.353 . S
C2593 N2595 1.314 . S
C2593 H2634 0.930 . S
C2594 C2592 1.358 . S
C2594 N2595 1.279 . S
C2594 H2635 0.930 . S
N2595 C2593 1.314 . S
N2595 C2594 1.279 . S
C2596 C2598 1.353 . S
C2596 N2599 1.314 . S
C2596 H2602 0.930 . S
C2597 N2599 1.279 . S
C2597 C2600 1.358 . S
C2597 H2603 0.930 . S
C2598 C2596 1.353 . S
C2598 C2601 1.348 . S
C2598 H2636 0.929 . S
N2599 Li2554 1.990 . S
N2599 C2596 1.314 . S
N2599 C2597 1.279 . S
C2600 C2597 1.358 . S
C2600 C2601 1.356 . S
C2600 H2637 0.930 . S
C2601 C2598 1.348 . S
C2601 C2600 1.356 . S
H2602 C2596 0.930 . S
H2603 C2597 0.930 . S
C2604 N2605 1.314 . S
C2604 C2606 1.353 . S
C2604 H2610 0.930 . S
N2605 Li2555 1.990 . S
N2605 C2604 1.314 . S
N2605 C2608 1.279 . S
C2606 C2604 1.353 . S
C2606 C2609 1.348 . S
C2606 H2638 0.929 . S
C2607 C2608 1.358 . S
C2607 C2609 1.356 . S
C2607 H2639 0.930 . S
C2608 N2605 1.279 . S
C2608 C2607 1.358 . S
C2608 H2611 0.930 . S
C2609 C2606 1.348 . S
C2609 C2607 1.356 . S
H2610 C2604 0.930 . S
H2611 C2608 0.930 . S
O2612 Li2552 1.956 . S
O2612 Li2553 1.970 . S
O2612 Li2554 1.961 . S
O2612 C2556 1.325 . S
O2613 Li2552 1.970 . S
O2613 Li2553 1.956 . S
O2613 Li2555 1.961 . S
O2613 C2562 1.325 . S
O2614 Li2552 1.961 . S
O2614 Li2554 1.956 . S
O2614 Li2555 1.970 . S
O2614 C2584 1.325 . S
O2615 Li2553 1.961 . S
O2615 Li2554 1.970 . S
O2615 Li2555 1.956 . S
O2615 C2590 1.325 . S
H2616 C2558 0.929 . S
H2617 C2559 0.930 . S
H2618 C2560 0.930 . S
H2619 C2561 0.930 . S
H2620 C2563 0.930 . S
H2621 C2565 0.929 . S
H2622 C2566 0.930 . S
H2623 C2567 0.930 . S
H2624 C2570 0.930 . S
H2625 C2573 0.929 . S
H2626 C2578 0.929 . S
H2627 C2579 0.930 . S
H2628 C2586 0.929 . S
H2629 C2587 0.930 . S
H2630 C2588 0.930 . S
H2631 C2589 0.930 . S
H2632 C2591 0.929 . S
H2633 C2592 0.930 . S
H2634 C2593 0.930 . S
H2635 C2594 0.930 . S
H2636 C2598 0.929 . S
H2637 C2600 0.930 . S
H2638 C2606 0.929 . S
H2639 C2607 0.930 . S
Li2640 N2657 1.990 . S
Li2640 O2700 1.956 . S
Li2640 O2701 1.970 . S
Li2640 O2702 1.961 . S
Li2641 N2665 1.990 . S
Li2641 O2700 1.970 . S
Li2641 O2701 1.956 . S
Li2641 O2703 1.961 . S
Li2642 N2687 1.990 . S
Li2642 O2700 1.961 . S
Li2642 O2702 1.956 . S
Li2642 O2703 1.970 . S
Li2643 N2693 1.990 . S
Li2643 O2701 1.961 . S
Li2643 O2702 1.970 . S
Li2643 O2703 1.956 . S
C2644 C2646 1.348 . S
C2644 C2647 1.356 . S
C2644 O2700 1.325 . S
N2645 C2648 1.314 . S
N2645 C2649 1.279 . S
C2646 C2644 1.348 . S
C2646 C2648 1.353 . S
C2646 H2704 0.929 . S
C2647 C2644 1.356 . S
C2647 C2649 1.358 . S
C2647 H2705 0.930 . S
C2648 N2645 1.314 . S
C2648 C2646 1.353 . S
C2648 H2706 0.930 . S
C2649 N2645 1.279 . S
C2649 C2647 1.358 . S
C2649 H2707 0.930 . S
C2650 C2653 1.348 . S
C2650 C2654 1.356 . S
C2650 O2701 1.325 . S
C2651 N2652 1.279 . S
C2651 C2654 1.358 . S
C2651 H2708 0.930 . S
N2652 C2651 1.279 . S
N2652 C2655 1.314 . S
C2653 C2650 1.348 . S
C2653 C2655 1.353 . S
C2653 H2709 0.929 . S
C2654 C2650 1.356 . S
C2654 C2651 1.358 . S
C2654 H2710 0.930 . S
C2655 N2652 1.314 . S
C2655 C2653 1.353 . S
C2655 H2711 0.930 . S
C2656 N2657 1.314 . S
C2656 C2661 1.353 . S
C2656 H2662 0.930 . S
N2657 Li2640 1.990 . S
N2657 C2656 1.314 . S
N2657 C2659 1.279 . S
C2658 C2659 1.358 . S
C2658 C2660 1.356 . S
C2658 H2712 0.930 . S
C2659 N2657 1.279 . S
C2659 C2658 1.358 . S
C2659 H2663 0.930 . S
C2660 C2658 1.356 . S
C2660 C2661 1.348 . S
C2661 C2656 1.353 . S
C2661 C2660 1.348 . S
C2661 H2713 0.929 . S
H2662 C2656 0.930 . S
H2663 C2659 0.930 . S
C2664 N2665 1.314 1_554 S
C2664 C2666 1.353 . S
C2664 H2670 0.930 . S
N2665 Li2641 1.990 . S
N2665 C2664 1.314 1_556 S
N2665 C2668 1.279 1_556 S
C2666 C2664 1.353 . S
C2666 C2669 1.348 . S
C2666 H2714 0.929 . S
C2667 C2668 1.358 . S
C2667 C2669 1.356 . S
C2667 H2715 0.930 . S
C2668 N2665 1.279 1_554 S
C2668 C2667 1.358 . S
C2668 H2671 0.930 1_554 S
C2669 C2666 1.348 . S
C2669 C2667 1.356 . S
H2670 C2664 0.930 . S
H2671 C2668 0.930 1_556 S
C2672 C2674 1.348 . S
C2672 C2675 1.356 . S
C2672 O2702 1.325 . S
N2673 C2676 1.314 . S
N2673 C2677 1.279 . S
C2674 C2672 1.348 . S
C2674 C2676 1.353 . S
C2674 H2716 0.929 . S
C2675 C2672 1.356 . S
C2675 C2677 1.358 . S
C2675 H2717 0.930 . S
C2676 N2673 1.314 . S
C2676 C2674 1.353 . S
C2676 H2718 0.930 . S
C2677 N2673 1.279 . S
C2677 C2675 1.358 . S
C2677 H2719 0.930 . S
C2678 C2679 1.348 . S
C2678 C2680 1.356 . S
C2678 O2703 1.325 . S
C2679 C2678 1.348 . S
C2679 C2681 1.353 . S
C2679 H2720 0.929 . S
C2680 C2678 1.356 . S
C2680 C2682 1.358 1_556 S
C2680 H2721 0.930 . S
C2681 C2679 1.353 . S
C2681 N2683 1.314 . S
C2681 H2722 0.930 . S
C2682 C2680 1.358 1_554 S
C2682 N2683 1.279 1_554 S
C2682 H2723 0.930 . S
N2683 C2681 1.314 . S
N2683 C2682 1.279 1_556 S
C2684 C2686 1.353 . S
C2684 N2687 1.314 . S
C2684 H2690 0.930 . S
C2685 N2687 1.279 . S
C2685 C2688 1.358 . S
C2685 H2691 0.930 . S
C2686 C2684 1.353 . S
C2686 C2689 1.348 . S
C2686 H2724 0.929 . S
N2687 Li2642 1.990 . S
N2687 C2684 1.314 . S
N2687 C2685 1.279 . S
C2688 C2685 1.358 . S
C2688 C2689 1.356 . S
C2688 H2725 0.930 . S
C2689 C2686 1.348 . S
C2689 C2688 1.356 . S
H2690 C2684 0.930 . S
H2691 C2685 0.930 . S
C2692 N2693 1.314 . S
C2692 C2694 1.353 . S
C2692 H2698 0.930 . S
N2693 Li2643 1.990 . S
N2693 C2692 1.314 . S
N2693 C2696 1.279 . S
C2694 C2692 1.353 . S
C2694 C2697 1.348 . S
C2694 H2726 0.929 . S
C2695 C2696 1.358 . S
C2695 C2697 1.356 . S
C2695 H2727 0.930 . S
C2696 N2693 1.279 . S
C2696 C2695 1.358 . S
C2696 H2699 0.930 . S
C2697 C2694 1.348 . S
C2697 C2695 1.356 . S
H2698 C2692 0.930 . S
H2699 C2696 0.930 . S
O2700 Li2640 1.956 . S
O2700 Li2641 1.970 . S
O2700 Li2642 1.961 . S
O2700 C2644 1.325 . S
O2701 Li2640 1.970 . S
O2701 Li2641 1.956 . S
O2701 Li2643 1.961 . S
O2701 C2650 1.325 . S
O2702 Li2640 1.961 . S
O2702 Li2642 1.956 . S
O2702 Li2643 1.970 . S
O2702 C2672 1.325 . S
O2703 Li2641 1.961 . S
O2703 Li2642 1.970 . S
O2703 Li2643 1.956 . S
O2703 C2678 1.325 . S
H2704 C2646 0.929 . S
H2705 C2647 0.930 . S
H2706 C2648 0.930 . S
H2707 C2649 0.930 . S
H2708 C2651 0.930 . S
H2709 C2653 0.929 . S
H2710 C2654 0.930 . S
H2711 C2655 0.930 . S
H2712 C2658 0.930 . S
H2713 C2661 0.929 . S
H2714 C2666 0.929 . S
H2715 C2667 0.930 . S
H2716 C2674 0.929 . S
H2717 C2675 0.930 . S
H2718 C2676 0.930 . S
H2719 C2677 0.930 . S
H2720 C2679 0.929 . S
H2721 C2680 0.930 . S
H2722 C2681 0.930 . S
H2723 C2682 0.930 . S
H2724 C2686 0.929 . S
H2725 C2688 0.930 . S
H2726 C2694 0.929 . S
H2727 C2695 0.930 . S
Li2728 N2745 1.990 . S
Li2728 O2788 1.956 . S
Li2728 O2789 1.970 . S
Li2728 O2790 1.961 . S
Li2729 N2753 1.990 . S
Li2729 O2788 1.970 . S
Li2729 O2789 1.956 . S
Li2729 O2791 1.961 . S
Li2730 N2775 1.990 . S
Li2730 O2788 1.961 . S
Li2730 O2790 1.956 . S
Li2730 O2791 1.970 . S
Li2731 N2781 1.990 . S
Li2731 O2789 1.961 . S
Li2731 O2790 1.970 . S
Li2731 O2791 1.956 . S
C2732 C2734 1.348 . S
C2732 C2735 1.356 . S
C2732 O2788 1.325 . S
N2733 C2736 1.314 . S
N2733 C2737 1.279 . S
C2734 C2732 1.348 . S
C2734 C2736 1.353 . S
C2734 H2792 0.929 . S
C2735 C2732 1.356 . S
C2735 C2737 1.358 . S
C2735 H2793 0.930 . S
C2736 N2733 1.314 . S
C2736 C2734 1.353 . S
C2736 H2794 0.930 . S
C2737 N2733 1.279 . S
C2737 C2735 1.358 . S
C2737 H2795 0.930 . S
C2738 C2741 1.348 . S
C2738 C2742 1.356 . S
C2738 O2789 1.325 . S
C2739 N2740 1.279 . S
C2739 C2742 1.358 . S
C2739 H2796 0.930 . S
N2740 C2739 1.279 . S
N2740 C2743 1.314 . S
C2741 C2738 1.348 . S
C2741 C2743 1.353 . S
C2741 H2797 0.929 . S
C2742 C2738 1.356 . S
C2742 C2739 1.358 . S
C2742 H2798 0.930 . S
C2743 N2740 1.314 . S
C2743 C2741 1.353 . S
C2743 H2799 0.930 . S
C2744 N2745 1.314 . S
C2744 C2749 1.353 . S
C2744 H2750 0.930 . S
N2745 Li2728 1.990 . S
N2745 C2744 1.314 . S
N2745 C2747 1.279 . S
C2746 C2747 1.358 . S
C2746 C2748 1.356 . S
C2746 H2800 0.930 . S
C2747 N2745 1.279 . S
C2747 C2746 1.358 . S
C2747 H2751 0.930 . S
C2748 C2746 1.356 . S
C2748 C2749 1.348 . S
C2749 C2744 1.353 . S
C2749 C2748 1.348 . S
C2749 H2801 0.929 . S
H2750 C2744 0.930 . S
H2751 C2747 0.930 . S
C2752 N2753 1.314 . S
C2752 C2754 1.353 . S
C2752 H2758 0.930 . S
N2753 Li2729 1.990 . S
N2753 C2752 1.314 . S
N2753 C2756 1.279 . S
C2754 C2752 1.353 . S
C2754 C2757 1.348 . S
C2754 H2802 0.929 . S
C2755 C2756 1.358 . S
C2755 C2757 1.356 . S
C2755 H2803 0.930 . S
C2756 N2753 1.279 . S
C2756 C2755 1.358 . S
C2756 H2759 0.930 . S
C2757 C2754 1.348 . S
C2757 C2755 1.356 . S
H2758 C2752 0.930 . S
H2759 C2756 0.930 . S
C2760 C2762 1.348 . S
C2760 C2763 1.356 . S
C2760 O2790 1.325 . S
N2761 C2764 1.314 . S
N2761 C2765 1.279 . S
C2762 C2760 1.348 . S
C2762 C2764 1.353 . S
C2762 H2804 0.929 . S
C2763 C2760 1.356 . S
C2763 C2765 1.358 . S
C2763 H2805 0.930 . S
C2764 N2761 1.314 . S
C2764 C2762 1.353 . S
C2764 H2806 0.930 . S
C2765 N2761 1.279 . S
C2765 C2763 1.358 . S
C2765 H2807 0.930 . S
C2766 C2767 1.348 . S
C2766 C2768 1.356 . S
C2766 O2791 1.325 . S
C2767 C2766 1.348 . S
C2767 C2769 1.353 . S
C2767 H2808 0.929 . S
C2768 C2766 1.356 . S
C2768 C2770 1.358 . S
C2768 H2809 0.930 . S
C2769 C2767 1.353 . S
C2769 N2771 1.314 . S
C2769 H2810 0.930 . S
C2770 C2768 1.358 . S
C2770 N2771 1.279 . S
C2770 H2811 0.930 . S
N2771 C2769 1.314 . S
N2771 C2770 1.279 . S
C2772 C2774 1.353 . S
C2772 N2775 1.314 . S
C2772 H2778 0.930 . S
C2773 N2775 1.279 . S
C2773 C2776 1.358 . S
C2773 H2779 0.930 . S
C2774 C2772 1.353 . S
C2774 C2777 1.348 . S
C2774 H2812 0.929 . S
N2775 Li2730 1.990 . S
N2775 C2772 1.314 . S
N2775 C2773 1.279 . S
C2776 C2773 1.358 . S
C2776 C2777 1.356 . S
C2776 H2813 0.930 . S
C2777 C2774 1.348 . S
C2777 C2776 1.356 . S
H2778 C2772 0.930 . S
H2779 C2773 0.930 . S
C2780 N2781 1.314 . S
C2780 C2782 1.353 . S
C2780 H2786 0.930 . S
N2781 Li2731 1.990 . S
N2781 C2780 1.314 . S
N2781 C2784 1.279 . S
C2782 C2780 1.353 . S
C2782 C2785 1.348 . S
C2782 H2814 0.929 . S
C2783 C2784 1.358 . S
C2783 C2785 1.356 . S
C2783 H2815 0.930 . S
C2784 N2781 1.279 . S
C2784 C2783 1.358 . S
C2784 H2787 0.930 . S
C2785 C2782 1.348 . S
C2785 C2783 1.356 . S
H2786 C2780 0.930 . S
H2787 C2784 0.930 . S
O2788 Li2728 1.956 . S
O2788 Li2729 1.970 . S
O2788 Li2730 1.961 . S
O2788 C2732 1.325 . S
O2789 Li2728 1.970 . S
O2789 Li2729 1.956 . S
O2789 Li2731 1.961 . S
O2789 C2738 1.325 . S
O2790 Li2728 1.961 . S
O2790 Li2730 1.956 . S
O2790 Li2731 1.970 . S
O2790 C2760 1.325 . S
O2791 Li2729 1.961 . S
O2791 Li2730 1.970 . S
O2791 Li2731 1.956 . S
O2791 C2766 1.325 . S
H2792 C2734 0.929 . S
H2793 C2735 0.930 . S
H2794 C2736 0.930 . S
H2795 C2737 0.930 . S
H2796 C2739 0.930 . S
H2797 C2741 0.929 . S
H2798 C2742 0.930 . S
H2799 C2743 0.930 . S
H2800 C2746 0.930 . S
H2801 C2749 0.929 . S
H2802 C2754 0.929 . S
H2803 C2755 0.930 . S
H2804 C2762 0.929 . S
H2805 C2763 0.930 . S
H2806 C2764 0.930 . S
H2807 C2765 0.930 . S
H2808 C2767 0.929 . S
H2809 C2768 0.930 . S
H2810 C2769 0.930 . S
H2811 C2770 0.930 . S
H2812 C2774 0.929 . S
H2813 C2776 0.930 . S
H2814 C2782 0.929 . S
H2815 C2783 0.930 . S
C2816 C2817 1.363 1_565 S
C2816 C2822 1.379 . S
C2816 N2824 1.356 . S
C2817 C2816 1.363 1_545 S
C2817 C2823 1.363 . S
C2818 C2819 1.363 1_545 S
C2818 C2823 1.379 . S
C2818 N2825 1.356 . S
C2819 C2818 1.363 1_565 S
C2819 C2822 1.363 . S
N2820 C2822 1.356 . S
N2820 H2832 0.984 . S
N2820 H2833 0.985 . S
N2821 C2823 1.356 . S
N2821 H2826 0.984 . S
N2821 H2827 0.985 . S
C2822 C2816 1.379 . S
C2822 C2819 1.363 . S
C2822 N2820 1.356 . S
C2823 C2817 1.363 . S
C2823 C2818 1.379 . S
C2823 N2821 1.356 . S
N2824 C2816 1.356 . S
N2824 H2830 0.984 . S
N2824 H2831 0.984 . S
N2825 C2818 1.356 . S
N2825 H2828 0.984 . S
N2825 H2829 0.985 . S
H2826 N2821 0.984 . S
H2827 N2821 0.985 . S
H2828 N2825 0.984 . S
H2829 N2825 0.985 . S
H2830 N2824 0.984 . S
H2831 N2824 0.984 . S
H2832 N2820 0.984 . S
H2833 N2820 0.985 . S
C2834 C2835 1.363 . S
C2834 C2840 1.379 . S
C2834 N2842 1.356 . S
C2835 C2834 1.363 . S
C2835 C2841 1.363 . S
C2836 C2837 1.363 . S
C2836 C2841 1.379 . S
C2836 N2843 1.356 . S
C2837 C2836 1.363 . S
C2837 C2840 1.363 . S
N2838 C2840 1.356 . S
N2838 H2850 0.984 . S
N2838 H2851 0.985 . S
N2839 C2841 1.356 . S
N2839 H2844 0.984 . S
N2839 H2845 0.985 . S
C2840 C2834 1.379 . S
C2840 C2837 1.363 . S
C2840 N2838 1.356 . S
C2841 C2835 1.363 . S
C2841 C2836 1.379 . S
C2841 N2839 1.356 . S
N2842 C2834 1.356 . S
N2842 H2848 0.984 . S
N2842 H2849 0.984 . S
N2843 C2836 1.356 . S
N2843 H2846 0.984 . S
N2843 H2847 0.985 . S
H2844 N2839 0.984 . S
H2845 N2839 0.985 . S
H2846 N2843 0.984 . S
H2847 N2843 0.985 . S
H2848 N2842 0.984 . S
H2849 N2842 0.984 . S
H2850 N2838 0.984 . S
H2851 N2838 0.985 . S
C2852 C2853 1.363 . S
C2852 C2858 1.379 . S
C2852 N2860 1.356 . S
C2853 C2852 1.363 . S
C2853 C2859 1.363 1_545 S
C2854 C2855 1.363 . S
C2854 C2859 1.379 . S
C2854 N2861 1.356 . S
C2855 C2854 1.363 . S
C2855 C2858 1.363 1_565 S
N2856 C2858 1.356 . S
N2856 H2868 0.984 . S
N2856 H2869 0.985 . S
N2857 C2859 1.356 . S
N2857 H2862 0.984 . S
N2857 H2863 0.985 . S
C2858 C2852 1.379 . S
C2858 C2855 1.363 1_545 S
C2858 N2856 1.356 . S
C2859 C2853 1.363 1_565 S
C2859 C2854 1.379 . S
C2859 N2857 1.356 . S
N2860 C2852 1.356 . S
N2860 H2866 0.984 . S
N2860 H2867 0.984 . S
N2861 C2854 1.356 . S
N2861 H2864 0.984 . S
N2861 H2865 0.985 . S
H2862 N2857 0.984 . S
H2863 N2857 0.985 . S
H2864 N2861 0.984 . S
H2865 N2861 0.985 . S
H2866 N2860 0.984 . S
H2867 N2860 0.984 . S
H2868 N2856 0.984 . S
H2869 N2856 0.985 . S
C2870 C2871 1.363 . S
C2870 C2876 1.379 1_556 S
C2870 N2878 1.356 . S
C2871 C2870 1.363 . S
C2871 C2877 1.363 . S
C2872 C2873 1.363 . S
C2872 C2877 1.379 1_554 S
C2872 N2879 1.356 . S
C2873 C2872 1.363 . S
C2873 C2876 1.363 . S
N2874 C2876 1.356 . S
N2874 H2886 0.984 . S
N2874 H2887 0.985 . S
N2875 C2877 1.356 . S
N2875 H2880 0.984 . S
N2875 H2881 0.985 . S
C2876 C2870 1.379 1_554 S
C2876 C2873 1.363 . S
C2876 N2874 1.356 . S
C2877 C2871 1.363 . S
C2877 C2872 1.379 1_556 S
C2877 N2875 1.356 . S
N2878 C2870 1.356 . S
N2878 H2884 0.984 . S
N2878 H2885 0.984 . S
N2879 C2872 1.356 . S
N2879 H2882 0.984 . S
N2879 H2883 0.985 . S
H2880 N2875 0.984 . S
H2881 N2875 0.985 . S
H2882 N2879 0.984 . S
H2883 N2879 0.985 . S
H2884 N2878 0.984 . S
H2885 N2878 0.984 . S
H2886 N2874 0.984 . S
H2887 N2874 0.985 . S
C2888 C2889 1.363 . S
C2888 C2894 1.379 . S
C2888 N2896 1.356 . S
C2889 C2888 1.363 . S
C2889 C2895 1.363 1_565 S
C2890 C2891 1.363 . S
C2890 C2895 1.379 . S
C2890 N2897 1.356 . S
C2891 C2890 1.363 . S
C2891 C2894 1.363 1_545 S
N2892 C2894 1.356 . S
N2892 H2904 0.984 . S
N2892 H2905 0.985 . S
N2893 C2895 1.356 . S
N2893 H2898 0.984 . S
N2893 H2899 0.985 . S
C2894 C2888 1.379 . S
C2894 C2891 1.363 1_565 S
C2894 N2892 1.356 . S
C2895 C2889 1.363 1_545 S
C2895 C2890 1.379 . S
C2895 N2893 1.356 . S
N2896 C2888 1.356 . S
N2896 H2902 0.984 . S
N2896 H2903 0.984 . S
N2897 C2890 1.356 . S
N2897 H2900 0.984 . S
N2897 H2901 0.985 . S
H2898 N2893 0.984 . S
H2899 N2893 0.985 . S
H2900 N2897 0.984 . S
H2901 N2897 0.985 . S
H2902 N2896 0.984 . S
H2903 N2896 0.984 . S
H2904 N2892 0.984 . S
H2905 N2892 0.985 . S
C2906 C2907 1.363 . S
C2906 C2912 1.379 . S
C2906 N2914 1.356 . S
C2907 C2906 1.363 . S
C2907 C2913 1.363 . S
C2908 C2909 1.363 . S
C2908 C2913 1.379 . S
C2908 N2915 1.356 . S
C2909 C2908 1.363 . S
C2909 C2912 1.363 . S
N2910 C2912 1.356 . S
N2910 H2922 0.984 . S
N2910 H2923 0.985 . S
N2911 C2913 1.356 . S
N2911 H2916 0.984 . S
N2911 H2917 0.985 . S
C2912 C2906 1.379 . S
C2912 C2909 1.363 . S
C2912 N2910 1.356 . S
C2913 C2907 1.363 . S
C2913 C2908 1.379 . S
C2913 N2911 1.356 . S
N2914 C2906 1.356 . S
N2914 H2920 0.984 . S
N2914 H2921 0.984 . S
N2915 C2908 1.356 . S
N2915 H2918 0.984 . S
N2915 H2919 0.985 . S
H2916 N2911 0.984 . S
H2917 N2911 0.985 . S
H2918 N2915 0.984 . S
H2919 N2915 0.985 . S
H2920 N2914 0.984 . S
H2921 N2914 0.984 . S
H2922 N2910 0.984 . S
H2923 N2910 0.985 . S
C2924 C2925 1.363 . S
C2924 C2930 1.379 . S
C2924 N2932 1.356 . S
C2925 C2924 1.363 . S
C2925 C2931 1.363 1_565 S
C2926 C2927 1.363 . S
C2926 C2931 1.379 . S
C2926 N2933 1.356 . S
C2927 C2926 1.363 . S
C2927 C2930 1.363 1_545 S
N2928 C2930 1.356 . S
N2928 H2940 0.984 . S
N2928 H2941 1.012 . S
N2929 C2931 1.356 . S
N2929 H2934 1.012 . S
N2929 H2935 0.985 . S
C2930 C2924 1.379 . S
C2930 C2927 1.363 1_565 S
C2930 N2928 1.356 . S
C2931 C2925 1.363 1_545 S
C2931 C2926 1.379 . S
C2931 N2929 1.356 . S
N2932 C2924 1.356 . S
N2932 H2938 0.984 . S
N2932 H2939 0.984 . S
N2933 C2926 1.356 . S
N2933 H2936 0.984 . S
N2933 H2937 0.985 . S
H2934 N2929 1.012 . S
H2935 N2929 0.985 . S
H2936 N2933 0.984 . S
H2937 N2933 0.985 . S
H2938 N2932 0.984 . S
H2939 N2932 0.984 . S
H2940 N2928 0.984 . S
H2941 N2928 1.012 . S
C2942 C2943 1.363 . S
C2942 C2948 1.379 1_556 S
C2942 N2950 1.356 . S
C2943 C2942 1.363 . S
C2943 C2949 1.363 . S
C2944 C2945 1.363 . S
C2944 C2949 1.379 1_554 S
C2944 N2951 1.356 . S
C2945 C2944 1.363 . S
C2945 C2948 1.363 . S
N2946 C2948 1.356 . S
N2946 H2958 0.984 . S
N2946 H2959 0.985 . S
N2947 C2949 1.356 . S
N2947 H2952 0.984 . S
N2947 H2953 0.985 . S
C2948 C2942 1.379 1_554 S
C2948 C2945 1.363 . S
C2948 N2946 1.356 . S
C2949 C2943 1.363 . S
C2949 C2944 1.379 1_556 S
C2949 N2947 1.356 . S
N2950 C2942 1.356 . S
N2950 H2956 0.984 . S
N2950 H2957 0.984 . S
N2951 C2944 1.356 . S
N2951 H2954 0.984 . S
N2951 H2955 0.985 . S
H2952 N2947 0.984 . S
H2953 N2947 0.985 . S
H2954 N2951 0.984 . S
H2955 N2951 0.985 . S
H2956 N2950 0.984 . S
H2957 N2950 0.984 . S
H2958 N2946 0.984 . S
H2959 N2946 0.985 . S
C2960 C2961 1.363 . S
C2960 C2966 1.379 . S
C2960 N2968 1.356 . S
C2961 C2960 1.363 . S
C2961 C2967 1.363 . S
C2962 C2963 1.363 . S
C2962 C2967 1.379 . S
C2962 N2969 1.356 . S
C2963 C2962 1.363 . S
C2963 C2966 1.363 . S
N2964 C2966 1.356 . S
N2964 H2976 0.984 . S
N2964 H2977 0.985 . S
N2965 C2967 1.356 . S
N2965 H2970 0.984 . S
N2965 H2971 0.985 . S
C2966 C2960 1.379 . S
C2966 C2963 1.363 . S
C2966 N2964 1.356 . S
C2967 C2961 1.363 . S
C2967 C2962 1.379 . S
C2967 N2965 1.356 . S
N2968 C2960 1.356 . S
N2968 H2974 0.984 . S
N2968 H2975 0.984 . S
N2969 C2962 1.356 . S
N2969 H2972 0.984 . S
N2969 H2973 0.985 . S
H2970 N2965 0.984 . S
H2971 N2965 0.985 . S
H2972 N2969 0.984 . S
H2973 N2969 0.985 . S
H2974 N2968 0.984 . S
H2975 N2968 0.984 . S
H2976 N2964 0.984 . S
H2977 N2964 0.985 . S
C2978 C2979 1.363 . S
C2978 C2984 1.379 1_556 S
C2978 N2986 1.356 . S
C2979 C2978 1.363 . S
C2979 C2985 1.363 . S
C2980 C2981 1.363 . S
C2980 C2985 1.379 1_554 S
C2980 N2987 1.356 . S
C2981 C2980 1.363 . S
C2981 C2984 1.363 . S
N2982 C2984 1.356 . S
N2982 H2994 0.984 . S
N2982 H2995 0.985 . S
N2983 C2985 1.356 . S
N2983 H2988 0.984 . S
N2983 H2989 0.985 . S
C2984 C2978 1.379 1_554 S
C2984 C2981 1.363 . S
C2984 N2982 1.356 . S
C2985 C2979 1.363 . S
C2985 C2980 1.379 1_556 S
C2985 N2983 1.356 . S
N2986 C2978 1.356 . S
N2986 H2992 0.984 . S
N2986 H2993 0.984 . S
N2987 C2980 1.356 . S
N2987 H2990 0.984 . S
N2987 H2991 0.985 . S
H2988 N2983 0.984 . S
H2989 N2983 0.985 . S
H2990 N2987 0.984 . S
H2991 N2987 0.985 . S
H2992 N2986 0.984 . S
H2993 N2986 0.984 . S
H2994 N2982 0.984 . S
H2995 N2982 0.985 . S
C2996 C2997 1.363 . S
C2996 C3002 1.379 . S
C2996 N3004 1.356 . S
C2997 C2996 1.363 . S
C2997 C3003 1.363 . S
C2998 C2999 1.363 . S
C2998 C3003 1.379 . S
C2998 N3005 1.356 . S
C2999 C2998 1.363 . S
C2999 C3002 1.363 . S
N3000 C3002 1.356 . S
N3000 H3012 0.984 . S
N3000 H3013 0.985 . S
N3001 C3003 1.356 . S
N3001 H3006 0.984 . S
N3001 H3007 0.985 . S
C3002 C2996 1.379 . S
C3002 C2999 1.363 . S
C3002 N3000 1.356 . S
C3003 C2997 1.363 . S
C3003 C2998 1.379 . S
C3003 N3001 1.356 . S
N3004 C2996 1.356 . S
N3004 H3010 0.984 . S
N3004 H3011 0.984 . S
N3005 C2998 1.356 . S
N3005 H3008 0.984 . S
N3005 H3009 0.985 . S
H3006 N3001 0.984 . S
H3007 N3001 0.985 . S
H3008 N3005 0.984 . S
H3009 N3005 0.985 . S
H3010 N3004 0.984 . S
H3011 N3004 0.984 . S
H3012 N3000 0.984 . S
H3013 N3000 0.985 . S
C3014 C3015 1.363 . S
C3014 C3020 1.379 . S
C3014 N3022 1.356 . S
C3015 C3014 1.363 . S
C3015 C3021 1.363 . S
C3016 C3017 1.363 . S
C3016 C3021 1.379 . S
C3016 N3023 1.356 . S
C3017 C3016 1.363 . S
C3017 C3020 1.363 . S
N3018 C3020 1.356 . S
N3018 H3030 0.984 . S
N3018 H3031 0.985 . S
N3019 C3021 1.356 . S
N3019 H3024 0.984 . S
N3019 H3025 0.985 . S
C3020 C3014 1.379 . S
C3020 C3017 1.363 . S
C3020 N3018 1.356 . S
C3021 C3015 1.363 . S
C3021 C3016 1.379 . S
C3021 N3019 1.356 . S
N3022 C3014 1.356 . S
N3022 H3028 0.984 . S
N3022 H3029 0.984 . S
N3023 C3016 1.356 . S
N3023 H3026 0.984 . S
N3023 H3027 0.985 . S
H3024 N3019 0.984 . S
H3025 N3019 0.985 . S
H3026 N3023 0.984 . S
H3027 N3023 0.985 . S
H3028 N3022 0.984 . S
H3029 N3022 0.984 . S
H3030 N3018 0.984 . S
H3031 N3018 0.985 . S
C3032 C3033 1.363 . S
C3032 C3038 1.379 . S
C3032 N3040 1.356 . S
C3033 C3032 1.363 . S
C3033 C3039 1.363 . S
C3034 C3035 1.363 . S
C3034 C3039 1.379 . S
C3034 N3041 1.356 . S
C3035 C3034 1.363 . S
C3035 C3038 1.363 . S
N3036 C3038 1.356 . S
N3036 H3048 0.984 . S
N3036 H3049 0.985 . S
N3037 C3039 1.356 . S
N3037 H3042 0.984 . S
N3037 H3043 0.985 . S
C3038 C3032 1.379 . S
C3038 C3035 1.363 . S
C3038 N3036 1.356 . S
C3039 C3033 1.363 . S
C3039 C3034 1.379 . S
C3039 N3037 1.356 . S
N3040 C3032 1.356 . S
N3040 H3046 0.984 . S
N3040 H3047 0.984 . S
N3041 C3034 1.356 . S
N3041 H3044 0.984 . S
N3041 H3045 0.985 . S
H3042 N3037 0.984 . S
H3043 N3037 0.985 . S
H3044 N3041 0.984 . S
H3045 N3041 0.985 . S
H3046 N3040 0.984 . S
H3047 N3040 0.984 . S
H3048 N3036 0.984 . S
H3049 N3036 0.985 . S
C3050 C3051 1.363 . S
C3050 C3056 1.379 1_554 S
C3050 N3058 1.356 . S
C3051 C3050 1.363 . S
C3051 C3057 1.363 . S
C3052 C3053 1.363 . S
C3052 C3057 1.379 1_556 S
C3052 N3059 1.356 . S
C3053 C3052 1.363 . S
C3053 C3056 1.363 . S
N3054 C3056 1.356 . S
N3054 H3066 0.984 . S
N3054 H3067 0.985 . S
N3055 C3057 1.356 . S
N3055 H3060 0.984 . S
N3055 H3061 0.985 . S
C3056 C3050 1.379 1_556 S
C3056 C3053 1.363 . S
C3056 N3054 1.356 . S
C3057 C3051 1.363 . S
C3057 C3052 1.379 1_554 S
C3057 N3055 1.356 . S
N3058 C3050 1.356 . S
N3058 H3064 0.984 . S
N3058 H3065 0.984 . S
N3059 C3052 1.356 . S
N3059 H3062 0.984 . S
N3059 H3063 0.985 . S
H3060 N3055 0.984 . S
H3061 N3055 0.985 . S
H3062 N3059 0.984 . S
H3063 N3059 0.985 . S
H3064 N3058 0.984 . S
H3065 N3058 0.984 . S
H3066 N3054 0.984 . S
H3067 N3054 0.985 . S
C3068 C3069 1.363 . S
C3068 C3074 1.379 . S
C3068 N3076 1.356 . S
C3069 C3068 1.363 . S
C3069 C3075 1.363 . S
C3070 C3071 1.363 . S
C3070 C3075 1.379 . S
C3070 N3077 1.356 . S
C3071 C3070 1.363 . S
C3071 C3074 1.363 . S
N3072 C3074 1.356 . S
N3072 H3084 0.984 . S
N3072 H3085 0.985 . S
N3073 C3075 1.356 . S
N3073 H3078 0.984 . S
N3073 H3079 0.985 . S
C3074 C3068 1.379 . S
C3074 C3071 1.363 . S
C3074 N3072 1.356 . S
C3075 C3069 1.363 . S
C3075 C3070 1.379 . S
C3075 N3073 1.356 . S
N3076 C3068 1.356 . S
N3076 H3082 0.984 . S
N3076 H3083 0.984 . S
N3077 C3070 1.356 . S
N3077 H3080 0.984 . S
N3077 H3081 0.985 . S
H3078 N3073 0.984 . S
H3079 N3073 0.985 . S
H3080 N3077 0.984 . S
H3081 N3077 0.985 . S
H3082 N3076 0.984 . S
H3083 N3076 0.984 . S
H3084 N3072 0.984 . S
H3085 N3072 0.985 . S
C3086 C3087 1.363 . S
C3086 C3092 1.379 . S
C3086 N3094 1.356 . S
C3087 C3086 1.363 . S
C3087 C3093 1.363 . S
C3088 C3089 1.363 . S
C3088 C3093 1.379 . S
C3088 N3095 1.356 . S
C3089 C3088 1.363 . S
C3089 C3092 1.363 . S
N3090 C3092 1.356 . S
N3090 H3102 0.984 . S
N3090 H3103 0.985 . S
N3091 C3093 1.356 . S
N3091 H3096 0.984 . S
N3091 H3097 0.985 . S
C3092 C3086 1.379 . S
C3092 C3089 1.363 . S
C3092 N3090 1.356 . S
C3093 C3087 1.363 . S
C3093 C3088 1.379 . S
C3093 N3091 1.356 . S
N3094 C3086 1.356 . S
N3094 H3100 0.984 . S
N3094 H3101 0.984 . S
N3095 C3088 1.356 . S
N3095 H3098 0.984 . S
N3095 H3099 0.985 . S
H3096 N3091 0.984 . S
H3097 N3091 0.985 . S
H3098 N3095 0.984 . S
H3099 N3095 0.985 . S
H3100 N3094 0.984 . S
H3101 N3094 0.984 . S
H3102 N3090 0.984 . S
H3103 N3090 0.985 . S
C3104 C3105 1.363 . S
C3104 C3110 1.379 . S
C3104 N3112 1.356 . S
C3105 C3104 1.363 . S
C3105 C3111 1.363 . S
C3106 C3107 1.363 . S
C3106 C3111 1.379 . S
C3106 N3113 1.356 . S
C3107 C3106 1.363 . S
C3107 C3110 1.363 . S
N3108 C3110 1.356 . S
N3108 H3120 0.984 . S
N3108 H3121 0.985 . S
N3109 C3111 1.356 . S
N3109 H3114 0.984 . S
N3109 H3115 0.985 . S
C3110 C3104 1.379 . S
C3110 C3107 1.363 . S
C3110 N3108 1.356 . S
C3111 C3105 1.363 . S
C3111 C3106 1.379 . S
C3111 N3109 1.356 . S
N3112 C3104 1.356 . S
N3112 H3118 0.984 . S
N3112 H3119 0.984 . S
N3113 C3106 1.356 . S
N3113 H3116 0.984 . S
N3113 H3117 0.985 . S
H3114 N3109 0.984 . S
H3115 N3109 0.985 . S
H3116 N3113 0.984 . S
H3117 N3113 0.985 . S
H3118 N3112 0.984 . S
H3119 N3112 0.984 . S
H3120 N3108 0.984 . S
H3121 N3108 0.985 . S
C3122 C3123 1.363 . S
C3122 C3128 1.379 1_655 S
C3122 N3130 1.356 . S
C3123 C3122 1.363 . S
C3123 C3129 1.363 1_655 S
C3124 C3125 1.363 . S
C3124 C3129 1.379 . S
C3124 N3131 1.356 . S
C3125 C3124 1.363 . S
C3125 C3128 1.363 . S
N3126 C3128 1.356 . S
N3126 H3138 0.984 . S
N3126 H3139 0.985 . S
N3127 C3129 1.356 1_655 S
N3127 H3132 0.984 . S
N3127 H3133 0.985 . S
C3128 C3122 1.379 1_455 S
C3128 C3125 1.363 . S
C3128 N3126 1.356 . S
C3129 C3123 1.363 1_455 S
C3129 C3124 1.379 . S
C3129 N3127 1.356 1_455 S
N3130 C3122 1.356 . S
N3130 H3136 0.984 . S
N3130 H3137 0.984 . S
N3131 C3124 1.356 . S
N3131 H3134 0.984 . S
N3131 H3135 0.985 . S
H3132 N3127 0.984 . S
H3133 N3127 0.985 . S
H3134 N3131 0.984 . S
H3135 N3131 0.985 . S
H3136 N3130 0.984 . S
H3137 N3130 0.984 . S
H3138 N3126 0.984 . S
H3139 N3126 0.985 . S
C3140 C3141 1.363 . S
C3140 C3146 1.379 . S
C3140 N3148 1.356 . S
C3141 C3140 1.363 . S
C3141 C3147 1.363 . S
C3142 C3143 1.363 . S
C3142 C3147 1.379 . S
C3142 N3149 1.356 . S
C3143 C3142 1.363 . S
C3143 C3146 1.363 . S
N3144 C3146 1.356 . S
N3144 H3156 0.984 . S
N3144 H3157 0.985 . S
N3145 C3147 1.356 . S
N3145 H3150 0.984 . S
N3145 H3151 0.985 . S
C3146 C3140 1.379 . S
C3146 C3143 1.363 . S
C3146 N3144 1.356 . S
C3147 C3141 1.363 . S
C3147 C3142 1.379 . S
C3147 N3145 1.356 . S
N3148 C3140 1.356 . S
N3148 H3154 0.984 . S
N3148 H3155 0.984 . S
N3149 C3142 1.356 . S
N3149 H3152 0.984 . S
N3149 H3153 0.985 . S
H3150 N3145 0.984 . S
H3151 N3145 0.985 . S
H3152 N3149 0.984 . S
H3153 N3149 0.985 . S
H3154 N3148 0.984 . S
H3155 N3148 0.984 . S
H3156 N3144 0.984 . S
H3157 N3144 0.985 . S
C3158 C3159 1.363 . S
C3158 C3164 1.379 . S
C3158 N3166 1.356 . S
C3159 C3158 1.363 . S
C3159 C3165 1.363 . S
C3160 C3161 1.363 . S
C3160 C3165 1.379 . S
C3160 N3167 1.356 . S
C3161 C3160 1.363 . S
C3161 C3164 1.363 . S
N3162 C3164 1.356 . S
N3162 H3174 0.984 . S
N3162 H3175 0.985 . S
N3163 C3165 1.356 . S
N3163 H3168 0.984 . S
N3163 H3169 0.985 . S
C3164 C3158 1.379 . S
C3164 C3161 1.363 . S
C3164 N3162 1.356 . S
C3165 C3159 1.363 . S
C3165 C3160 1.379 . S
C3165 N3163 1.356 . S
N3166 C3158 1.356 . S
N3166 H3172 0.984 . S
N3166 H3173 0.984 . S
N3167 C3160 1.356 . S
N3167 H3170 0.984 . S
N3167 H3171 0.985 . S
H3168 N3163 0.984 . S
H3169 N3163 0.985 . S
H3170 N3167 0.984 . S
H3171 N3167 0.985 . S
H3172 N3166 0.984 . S
H3173 N3166 0.984 . S
H3174 N3162 0.984 . S
H3175 N3162 0.985 . S
C3176 C3177 1.363 . S
C3176 C3182 1.379 . S
C3176 N3184 1.356 . S
C3177 C3176 1.363 . S
C3177 C3183 1.363 . S
C3178 C3179 1.363 . S
C3178 C3183 1.379 . S
C3178 N3185 1.356 . S
C3179 C3178 1.363 . S
C3179 C3182 1.363 . S
N3180 C3182 1.356 . S
N3180 H3192 0.984 . S
N3180 H3193 0.985 . S
N3181 C3183 1.356 . S
N3181 H3186 0.984 . S
N3181 H3187 0.985 . S
C3182 C3176 1.379 . S
C3182 C3179 1.363 . S
C3182 N3180 1.356 . S
C3183 C3177 1.363 . S
C3183 C3178 1.379 . S
C3183 N3181 1.356 . S
N3184 C3176 1.356 . S
N3184 H3190 0.984 . S
N3184 H3191 0.984 . S
N3185 C3178 1.356 . S
N3185 H3188 0.984 . S
N3185 H3189 0.985 . S
H3186 N3181 0.984 . S
H3187 N3181 0.985 . S
H3188 N3185 0.984 . S
H3189 N3185 0.985 . S
H3190 N3184 0.984 . S
H3191 N3184 0.984 . S
H3192 N3180 0.984 . S
H3193 N3180 0.985 . S
C3194 C3195 1.363 . S
C3194 C3200 1.379 . S
C3194 N3202 1.356 . S
C3195 C3194 1.363 . S
C3195 C3201 1.363 . S
C3196 C3197 1.363 . S
C3196 C3201 1.379 . S
C3196 N3203 1.356 . S
C3197 C3196 1.363 . S
C3197 C3200 1.363 . S
N3198 C3200 1.356 . S
N3198 H3210 0.984 . S
N3198 H3211 0.985 . S
N3199 C3201 1.356 . S
N3199 H3204 0.984 . S
N3199 H3205 0.985 . S
C3200 C3194 1.379 . S
C3200 C3197 1.363 . S
C3200 N3198 1.356 . S
C3201 C3195 1.363 . S
C3201 C3196 1.379 . S
C3201 N3199 1.356 . S
N3202 C3194 1.356 . S
N3202 H3208 0.984 . S
N3202 H3209 0.984 . S
N3203 C3196 1.356 . S
N3203 H3206 0.984 . S
N3203 H3207 0.985 . S
H3204 N3199 0.984 . S
H3205 N3199 0.985 . S
H3206 N3203 0.984 . S
H3207 N3203 0.985 . S
H3208 N3202 0.984 . S
H3209 N3202 0.984 . S
H3210 N3198 0.984 . S
H3211 N3198 0.985 . S
C3212 C3213 1.363 . S
C3212 C3218 1.379 . S
C3212 N3220 1.356 . S
C3213 C3212 1.363 . S
C3213 C3219 1.363 . S
C3214 C3215 1.363 . S
C3214 C3219 1.379 . S
C3214 N3221 1.356 . S
C3215 C3214 1.363 . S
C3215 C3218 1.363 . S
N3216 C3218 1.356 . S
N3216 H3228 0.984 . S
N3216 H3229 0.985 . S
N3217 C3219 1.356 . S
N3217 H3222 0.984 . S
N3217 H3223 0.985 . S
C3218 C3212 1.379 . S
C3218 C3215 1.363 . S
C3218 N3216 1.356 . S
C3219 C3213 1.363 . S
C3219 C3214 1.379 . S
C3219 N3217 1.356 . S
N3220 C3212 1.356 . S
N3220 H3226 0.984 . S
N3220 H3227 0.984 . S
N3221 C3214 1.356 . S
N3221 H3224 0.984 . S
N3221 H3225 0.985 . S
H3222 N3217 0.984 . S
H3223 N3217 0.985 . S
H3224 N3221 0.984 . S
H3225 N3221 0.985 . S
H3226 N3220 0.984 . S
H3227 N3220 0.984 . S
H3228 N3216 0.984 . S
H3229 N3216 0.985 . S
C3230 C3231 1.363 . S
C3230 C3236 1.379 . S
C3230 N3238 1.356 . S
C3231 C3230 1.363 . S
C3231 C3237 1.363 . S
C3232 C3233 1.363 . S
C3232 C3237 1.379 1_655 S
C3232 N3239 1.356 . S
C3233 C3232 1.363 . S
C3233 C3236 1.363 1_655 S
N3234 C3236 1.356 1_655 S
N3234 H3246 0.984 . S
N3234 H3247 0.985 . S
N3235 C3237 1.356 . S
N3235 H3240 0.984 . S
N3235 H3241 0.985 . S
C3236 C3230 1.379 . S
C3236 C3233 1.363 1_455 S
C3236 N3234 1.356 1_455 S
C3237 C3231 1.363 . S
C3237 C3232 1.379 1_455 S
C3237 N3235 1.356 . S
N3238 C3230 1.356 . S
N3238 H3244 0.984 . S
N3238 H3245 0.984 . S
N3239 C3232 1.356 . S
N3239 H3242 0.984 . S
N3239 H3243 0.985 . S
H3240 N3235 0.984 . S
H3241 N3235 0.985 . S
H3242 N3239 0.984 . S
H3243 N3239 0.985 . S
H3244 N3238 0.984 . S
H3245 N3238 0.984 . S
H3246 N3234 0.984 . S
H3247 N3234 0.985 . S
C3248 C3249 1.363 . S
C3248 C3254 1.379 . S
C3248 N3256 1.356 . S
C3249 C3248 1.363 . S
C3249 C3255 1.363 . S
C3250 C3251 1.363 . S
C3250 C3255 1.379 . S
C3250 N3257 1.356 . S
C3251 C3250 1.363 . S
C3251 C3254 1.363 . S
N3252 C3254 1.356 . S
N3252 H3264 0.984 . S
N3252 H3265 0.985 . S
N3253 C3255 1.356 . S
N3253 H3258 0.984 . S
N3253 H3259 0.985 . S
C3254 C3248 1.379 . S
C3254 C3251 1.363 . S
C3254 N3252 1.356 . S
C3255 C3249 1.363 . S
C3255 C3250 1.379 . S
C3255 N3253 1.356 . S
N3256 C3248 1.356 . S
N3256 H3262 0.984 . S
N3256 H3263 0.984 . S
N3257 C3250 1.356 . S
N3257 H3260 0.984 . S
N3257 H3261 0.985 . S
H3258 N3253 0.984 . S
H3259 N3253 0.985 . S
H3260 N3257 0.984 . S
H3261 N3257 0.985 . S
H3262 N3256 0.984 . S
H3263 N3256 0.984 . S
H3264 N3252 0.984 . S
H3265 N3252 0.985 . S
C3266 C3267 1.363 . S
C3266 C3272 1.379 . S
C3266 N3274 1.356 . S
C3267 C3266 1.363 . S
C3267 C3273 1.363 . S
C3268 C3269 1.363 . S
C3268 C3273 1.379 1_455 S
C3268 N3275 1.356 . S
C3269 C3268 1.363 . S
C3269 C3272 1.363 1_455 S
N3270 C3272 1.356 1_455 S
N3270 H3282 0.984 . S
N3270 H3283 0.985 . S
N3271 C3273 1.356 . S
N3271 H3276 0.984 . S
N3271 H3277 0.985 . S
C3272 C3266 1.379 . S
C3272 C3269 1.363 1_655 S
C3272 N3270 1.356 1_655 S
C3273 C3267 1.363 . S
C3273 C3268 1.379 1_655 S
C3273 N3271 1.356 . S
N3274 C3266 1.356 . S
N3274 H3280 0.984 . S
N3274 H3281 0.984 . S
N3275 C3268 1.356 . S
N3275 H3278 0.984 . S
N3275 H3279 0.985 . S
H3276 N3271 0.984 . S
H3277 N3271 0.985 . S
H3278 N3275 0.984 . S
H3279 N3275 0.985 . S
H3280 N3274 0.984 . S
H3281 N3274 0.984 . S
H3282 N3270 0.984 . S
H3283 N3270 0.985 . S
C3284 C3285 1.363 . S
C3284 C3290 1.379 . S
C3284 N3292 1.356 . S
C3285 C3284 1.363 . S
C3285 C3291 1.363 . S
C3286 C3287 1.363 . S
C3286 C3291 1.379 . S
C3286 N3293 1.356 . S
C3287 C3286 1.363 . S
C3287 C3290 1.363 . S
N3288 C3290 1.356 . S
N3288 H3300 0.984 . S
N3288 H3301 0.985 . S
N3289 C3291 1.356 . S
N3289 H3294 0.984 . S
N3289 H3295 0.985 . S
C3290 C3284 1.379 . S
C3290 C3287 1.363 . S
C3290 N3288 1.356 . S
C3291 C3285 1.363 . S
C3291 C3286 1.379 . S
C3291 N3289 1.356 . S
N3292 C3284 1.356 . S
N3292 H3298 0.984 . S
N3292 H3299 0.984 . S
N3293 C3286 1.356 . S
N3293 H3296 0.984 . S
N3293 H3297 0.985 . S
H3294 N3289 0.984 . S
H3295 N3289 0.985 . S
H3296 N3293 0.984 . S
H3297 N3293 0.985 . S
H3298 N3292 0.984 . S
H3299 N3292 0.984 . S
H3300 N3288 0.984 . S
H3301 N3288 0.985 . S
C3302 C3303 1.363 . S
C3302 C3308 1.379 . S
C3302 N3310 1.356 . S
C3303 C3302 1.363 . S
C3303 C3309 1.363 . S
C3304 C3305 1.363 . S
C3304 C3309 1.379 . S
C3304 N3311 1.356 . S
C3305 C3304 1.363 . S
C3305 C3308 1.363 . S
N3306 C3308 1.356 . S
N3306 H3318 0.984 . S
N3306 H3319 0.985 . S
N3307 C3309 1.356 . S
N3307 H3312 0.984 . S
N3307 H3313 0.985 . S
C3308 C3302 1.379 . S
C3308 C3305 1.363 . S
C3308 N3306 1.356 . S
C3309 C3303 1.363 . S
C3309 C3304 1.379 . S
C3309 N3307 1.356 . S
N3310 C3302 1.356 . S
N3310 H3316 0.984 . S
N3310 H3317 0.984 . S
N3311 C3304 1.356 . S
N3311 H3314 0.984 . S
N3311 H3315 0.985 . S
H3312 N3307 0.984 . S
H3313 N3307 0.985 . S
H3314 N3311 0.984 . S
H3315 N3311 0.985 . S
H3316 N3310 0.984 . S
H3317 N3310 0.984 . S
H3318 N3306 0.984 . S
H3319 N3306 0.985 . S
C3320 C3321 1.363 . S
C3320 C3326 1.379 . S
C3320 N3328 1.356 . S
C3321 C3320 1.363 . S
C3321 C3327 1.363 . S
C3322 C3323 1.363 . S
C3322 C3327 1.379 . S
C3322 N3329 1.356 . S
C3323 C3322 1.363 . S
C3323 C3326 1.363 . S
N3324 C3326 1.356 . S
N3324 H3336 0.984 . S
N3324 H3337 0.985 . S
N3325 C3327 1.356 . S
N3325 H3330 0.984 . S
N3325 H3331 0.985 . S
C3326 C3320 1.379 . S
C3326 C3323 1.363 . S
C3326 N3324 1.356 . S
C3327 C3321 1.363 . S
C3327 C3322 1.379 . S
C3327 N3325 1.356 . S
N3328 C3320 1.356 . S
N3328 H3334 0.984 . S
N3328 H3335 0.984 . S
N3329 C3322 1.356 . S
N3329 H3332 0.984 . S
N3329 H3333 0.985 . S
H3330 N3325 0.984 . S
H3331 N3325 0.985 . S
H3332 N3329 0.984 . S
H3333 N3329 0.985 . S
H3334 N3328 0.984 . S
H3335 N3328 0.984 . S
H3336 N3324 0.984 . S
H3337 N3324 0.985 . S
C3338 C3339 1.363 . S
C3338 C3344 1.379 . S
C3338 N3346 1.356 . S
C3339 C3338 1.363 . S
C3339 C3345 1.363 . S
C3340 C3341 1.363 . S
C3340 C3345 1.379 . S
C3340 N3347 1.356 . S
C3341 C3340 1.363 . S
C3341 C3344 1.363 . S
N3342 C3344 1.356 . S
N3342 H3354 0.984 . S
N3342 H3355 0.985 . S
N3343 C3345 1.356 . S
N3343 H3348 0.984 . S
N3343 H3349 0.985 . S
C3344 C3338 1.379 . S
C3344 C3341 1.363 . S
C3344 N3342 1.356 . S
C3345 C3339 1.363 . S
C3345 C3340 1.379 . S
C3345 N3343 1.356 . S
N3346 C3338 1.356 . S
N3346 H3352 0.984 . S
N3346 H3353 0.984 . S
N3347 C3340 1.356 . S
N3347 H3350 0.984 . S
N3347 H3351 0.985 . S
H3348 N3343 0.984 . S
H3349 N3343 0.985 . S
H3350 N3347 0.984 . S
H3351 N3347 0.985 . S
H3352 N3346 0.984 . S
H3353 N3346 0.984 . S
H3354 N3342 0.984 . S
H3355 N3342 0.985 . S
C3356 C3357 1.363 . S
C3356 C3362 1.379 . S
C3356 N3364 1.356 . S
C3357 C3356 1.363 . S
C3357 C3363 1.363 . S
C3358 C3359 1.363 . S
C3358 C3363 1.379 . S
C3358 N3365 1.356 . S
C3359 C3358 1.363 . S
C3359 C3362 1.363 . S
N3360 C3362 1.356 . S
N3360 H3372 0.984 . S
N3360 H3373 0.985 . S
N3361 C3363 1.356 . S
N3361 H3366 0.984 . S
N3361 H3367 0.985 . S
C3362 C3356 1.379 . S
C3362 C3359 1.363 . S
C3362 N3360 1.356 . S
C3363 C3357 1.363 . S
C3363 C3358 1.379 . S
C3363 N3361 1.356 . S
N3364 C3356 1.356 . S
N3364 H3370 0.984 . S
N3364 H3371 0.984 . S
N3365 C3358 1.356 . S
N3365 H3368 0.984 . S
N3365 H3369 0.985 . S
H3366 N3361 0.984 . S
H3367 N3361 0.985 . S
H3368 N3365 0.984 . S
H3369 N3365 0.985 . S
H3370 N3364 0.984 . S
H3371 N3364 0.984 . S
H3372 N3360 0.984 . S
H3373 N3360 0.985 . S
C3374 C3375 1.363 . S
C3374 C3380 1.379 . S
C3374 N3382 1.356 . S
C3375 C3374 1.363 . S
C3375 C3381 1.363 . S
C3376 C3377 1.363 . S
C3376 C3381 1.379 1_455 S
C3376 N3383 1.356 . S
C3377 C3376 1.363 . S
C3377 C3380 1.363 1_455 S
N3378 C3380 1.356 1_455 S
N3378 H3390 0.984 . S
N3378 H3391 0.985 . S
N3379 C3381 1.356 . S
N3379 H3384 0.984 . S
N3379 H3385 0.985 . S
C3380 C3374 1.379 . S
C3380 C3377 1.363 1_655 S
C3380 N3378 1.356 1_655 S
C3381 C3375 1.363 . S
C3381 C3376 1.379 1_655 S
C3381 N3379 1.356 . S
N3382 C3374 1.356 . S
N3382 H3388 0.984 . S
N3382 H3389 0.984 . S
N3383 C3376 1.356 . S
N3383 H3386 0.984 . S
N3383 H3387 0.985 . S
H3384 N3379 0.984 . S
H3385 N3379 0.985 . S
H3386 N3383 0.984 . S
H3387 N3383 0.985 . S
H3388 N3382 0.984 . S
H3389 N3382 0.984 . S
H3390 N3378 0.984 . S
H3391 N3378 0.985 . S
C3392 C3393 1.363 . S
C3392 C3398 1.379 . S
C3392 N3400 1.356 . S
C3393 C3392 1.363 . S
C3393 C3399 1.363 . S
C3394 C3395 1.363 . S
C3394 C3399 1.379 . S
C3394 N3401 1.356 . S
C3395 C3394 1.363 . S
C3395 C3398 1.363 . S
N3396 C3398 1.356 . S
N3396 H3408 0.984 . S
N3396 H3409 0.985 . S
N3397 C3399 1.356 . S
N3397 H3402 0.984 . S
N3397 H3403 0.985 . S
C3398 C3392 1.379 . S
C3398 C3395 1.363 . S
C3398 N3396 1.356 . S
C3399 C3393 1.363 . S
C3399 C3394 1.379 . S
C3399 N3397 1.356 . S
N3400 C3392 1.356 . S
N3400 H3406 0.984 . S
N3400 H3407 0.984 . S
N3401 C3394 1.356 . S
N3401 H3404 0.984 . S
N3401 H3405 0.985 . S
H3402 N3397 0.984 . S
H3403 N3397 0.985 . S
H3404 N3401 0.984 . S
H3405 N3401 0.985 . S
H3406 N3400 0.984 . S
H3407 N3400 0.984 . S
H3408 N3396 0.984 . S
H3409 N3396 0.985 . S
C3410 C3411 1.363 . S
C3410 C3416 1.379 . S
C3410 N3418 1.356 . S
C3411 C3410 1.363 . S
C3411 C3417 1.363 . S
C3412 C3413 1.363 . S
C3412 C3417 1.379 . S
C3412 N3419 1.356 . S
C3413 C3412 1.363 . S
C3413 C3416 1.363 . S
N3414 C3416 1.356 . S
N3414 H3426 0.984 . S
N3414 H3427 0.985 . S
N3415 C3417 1.356 . S
N3415 H3420 0.984 . S
N3415 H3421 0.985 . S
C3416 C3410 1.379 . S
C3416 C3413 1.363 . S
C3416 N3414 1.356 . S
C3417 C3411 1.363 . S
C3417 C3412 1.379 . S
C3417 N3415 1.356 . S
N3418 C3410 1.356 . S
N3418 H3424 0.984 . S
N3418 H3425 0.984 . S
N3419 C3412 1.356 . S
N3419 H3422 0.984 . S
N3419 H3423 0.985 . S
H3420 N3415 0.984 . S
H3421 N3415 0.985 . S
H3422 N3419 0.984 . S
H3423 N3419 0.985 . S
H3424 N3418 0.984 . S
H3425 N3418 0.984 . S
H3426 N3414 0.984 . S
H3427 N3414 0.985 . S
C3428 C3429 1.363 . S
C3428 C3434 1.379 . S
C3428 N3436 1.356 . S
C3429 C3428 1.363 . S
C3429 C3435 1.363 . S
C3430 C3431 1.363 . S
C3430 C3435 1.379 . S
C3430 N3437 1.356 . S
C3431 C3430 1.363 . S
C3431 C3434 1.363 . S
N3432 C3434 1.356 . S
N3432 H3444 0.984 . S
N3432 H3445 0.985 . S
N3433 C3435 1.356 . S
N3433 H3438 0.984 . S
N3433 H3439 0.985 . S
C3434 C3428 1.379 . S
C3434 C3431 1.363 . S
C3434 N3432 1.356 . S
C3435 C3429 1.363 . S
C3435 C3430 1.379 . S
C3435 N3433 1.356 . S
N3436 C3428 1.356 . S
N3436 H3442 0.984 . S
N3436 H3443 0.984 . S
N3437 C3430 1.356 . S
N3437 H3440 0.984 . S
N3437 H3441 0.985 . S
H3438 N3433 0.984 . S
H3439 N3433 0.985 . S
H3440 N3437 0.984 . S
H3441 N3437 0.985 . S
H3442 N3436 0.984 . S
H3443 N3436 0.984 . S
H3444 N3432 0.984 . S
H3445 N3432 0.985 . S
C3446 C3447 1.363 . S
C3446 C3452 1.379 . S
C3446 N3454 1.356 . S
C3447 C3446 1.363 . S
C3447 C3453 1.363 . S
C3448 C3449 1.363 . S
C3448 C3453 1.379 1_455 S
C3448 N3455 1.356 . S
C3449 C3448 1.363 . S
C3449 C3452 1.363 1_455 S
N3450 C3452 1.356 1_455 S
N3450 H3462 0.984 . S
N3450 H3463 0.985 . S
N3451 C3453 1.356 . S
N3451 H3456 0.984 . S
N3451 H3457 0.985 . S
C3452 C3446 1.379 . S
C3452 C3449 1.363 1_655 S
C3452 N3450 1.356 1_655 S
C3453 C3447 1.363 . S
C3453 C3448 1.379 1_655 S
C3453 N3451 1.356 . S
N3454 C3446 1.356 . S
N3454 H3460 0.984 . S
N3454 H3461 0.984 . S
N3455 C3448 1.356 . S
N3455 H3458 0.984 . S
N3455 H3459 0.985 . S
H3456 N3451 0.984 . S
H3457 N3451 0.985 . S
H3458 N3455 0.984 . S
H3459 N3455 0.985 . S
H3460 N3454 0.984 . S
H3461 N3454 0.984 . S
H3462 N3450 0.984 . S
H3463 N3450 0.985 . S
C3464 C3465 1.363 . S
C3464 C3470 1.379 . S
C3464 N3472 1.356 . S
C3465 C3464 1.363 . S
C3465 C3471 1.363 . S
C3466 C3467 1.363 . S
C3466 C3471 1.379 . S
C3466 N3473 1.356 . S
C3467 C3466 1.363 . S
C3467 C3470 1.363 . S
N3468 C3470 1.356 . S
N3468 H3480 0.984 . S
N3468 H3481 0.985 . S
N3469 C3471 1.356 . S
N3469 H3474 0.984 . S
N3469 H3475 0.985 . S
C3470 C3464 1.379 . S
C3470 C3467 1.363 . S
C3470 N3468 1.356 . S
C3471 C3465 1.363 . S
C3471 C3466 1.379 . S
C3471 N3469 1.356 . S
N3472 C3464 1.356 . S
N3472 H3478 0.984 . S
N3472 H3479 0.984 . S
N3473 C3466 1.356 . S
N3473 H3476 0.984 . S
N3473 H3477 0.985 . S
H3474 N3469 0.984 . S
H3475 N3469 0.985 . S
H3476 N3473 0.984 . S
H3477 N3473 0.985 . S
H3478 N3472 0.984 . S
H3479 N3472 0.984 . S
H3480 N3468 0.984 . S
H3481 N3468 0.985 . S
C3482 C3483 1.363 . S
C3482 C3488 1.379 1_455 S
C3482 N3490 1.356 . S
C3483 C3482 1.363 . S
C3483 C3489 1.363 1_455 S
C3484 C3485 1.363 . S
C3484 C3489 1.379 . S
C3484 N3491 1.356 . S
C3485 C3484 1.363 . S
C3485 C3488 1.363 . S
N3486 C3488 1.356 . S
N3486 H3498 0.984 . S
N3486 H3499 0.985 . S
N3487 C3489 1.356 1_455 S
N3487 H3492 0.984 . S
N3487 H3493 0.985 . S
C3488 C3482 1.379 1_655 S
C3488 C3485 1.363 . S
C3488 N3486 1.356 . S
C3489 C3483 1.363 1_655 S
C3489 C3484 1.379 . S
C3489 N3487 1.356 1_655 S
N3490 C3482 1.356 . S
N3490 H3496 0.984 . S
N3490 H3497 0.984 . S
N3491 C3484 1.356 . S
N3491 H3494 0.984 . S
N3491 H3495 0.985 . S
H3492 N3487 0.984 . S
H3493 N3487 0.985 . S
H3494 N3491 0.984 . S
H3495 N3491 0.985 . S
H3496 N3490 0.984 . S
H3497 N3490 0.984 . S
H3498 N3486 0.984 . S
H3499 N3486 0.985 . S
C3500 C3501 1.363 . S
C3500 C3506 1.379 . S
C3500 N3508 1.356 . S
C3501 C3500 1.363 . S
C3501 C3507 1.363 . S
C3502 C3503 1.363 . S
C3502 C3507 1.379 . S
C3502 N3509 1.356 . S
C3503 C3502 1.363 . S
C3503 C3506 1.363 . S
N3504 C3506 1.356 . S
N3504 H3516 0.984 . S
N3504 H3517 0.985 . S
N3505 C3507 1.356 . S
N3505 H3510 0.984 . S
N3505 H3511 0.985 . S
C3506 C3500 1.379 . S
C3506 C3503 1.363 . S
C3506 N3504 1.356 . S
C3507 C3501 1.363 . S
C3507 C3502 1.379 . S
C3507 N3505 1.356 . S
N3508 C3500 1.356 . S
N3508 H3514 0.984 . S
N3508 H3515 0.984 . S
N3509 C3502 1.356 . S
N3509 H3512 0.984 . S
N3509 H3513 0.985 . S
H3510 N3505 0.984 . S
H3511 N3505 0.985 . S
H3512 N3509 0.984 . S
H3513 N3509 0.985 . S
H3514 N3508 0.984 . S
H3515 N3508 0.984 . S
H3516 N3504 0.984 . S
H3517 N3504 0.985 . S
C3518 C3519 1.363 . S
C3518 C3524 1.379 . S
C3518 N3526 1.356 . S
C3519 C3518 1.363 . S
C3519 C3525 1.363 . S
C3520 C3521 1.363 . S
C3520 C3525 1.379 . S
C3520 N3527 1.356 . S
C3521 C3520 1.363 . S
C3521 C3524 1.363 . S
N3522 C3524 1.356 . S
N3522 H3534 0.984 . S
N3522 H3535 0.985 . S
N3523 C3525 1.356 . S
N3523 H3528 0.984 . S
N3523 H3529 0.985 . S
C3524 C3518 1.379 . S
C3524 C3521 1.363 . S
C3524 N3522 1.356 . S
C3525 C3519 1.363 . S
C3525 C3520 1.379 . S
C3525 N3523 1.356 . S
N3526 C3518 1.356 . S
N3526 H3532 0.984 . S
N3526 H3533 0.984 . S
N3527 C3520 1.356 . S
N3527 H3530 0.984 . S
N3527 H3531 0.985 . S
H3528 N3523 0.984 . S
H3529 N3523 0.985 . S
H3530 N3527 0.984 . S
H3531 N3527 0.985 . S
H3532 N3526 0.984 . S
H3533 N3526 0.984 . S
H3534 N3522 0.984 . S
H3535 N3522 0.985 . S
C3536 C3537 1.363 . S
C3536 C3542 1.379 . S
C3536 N3544 1.356 . S
C3537 C3536 1.363 . S
C3537 C3543 1.363 . S
C3538 C3539 1.363 . S
C3538 C3543 1.379 . S
C3538 N3545 1.356 . S
C3539 C3538 1.363 . S
C3539 C3542 1.363 . S
N3540 C3542 1.356 . S
N3540 H3552 0.984 . S
N3540 H3553 0.985 . S
N3541 C3543 1.356 . S
N3541 H3546 0.984 . S
N3541 H3547 0.985 . S
C3542 C3536 1.379 . S
C3542 C3539 1.363 . S
C3542 N3540 1.356 . S
C3543 C3537 1.363 . S
C3543 C3538 1.379 . S
C3543 N3541 1.356 . S
N3544 C3536 1.356 . S
N3544 H3550 0.984 . S
N3544 H3551 0.984 . S
N3545 C3538 1.356 . S
N3545 H3548 0.984 . S
N3545 H3549 0.985 . S
H3546 N3541 0.984 . S
H3547 N3541 0.985 . S
H3548 N3545 0.984 . S
H3549 N3545 0.985 . S
H3550 N3544 0.984 . S
H3551 N3544 0.984 . S
H3552 N3540 0.984 . S
H3553 N3540 0.985 . S
C3554 C3555 1.363 . S
C3554 C3560 1.379 . S
C3554 N3562 1.356 . S
C3555 C3554 1.363 . S
C3555 C3561 1.363 . S
C3556 C3557 1.363 . S
C3556 C3561 1.379 . S
C3556 N3563 1.356 . S
C3557 C3556 1.363 . S
C3557 C3560 1.363 . S
N3558 C3560 1.356 . S
N3558 H3570 0.984 . S
N3558 H3571 0.985 . S
N3559 C3561 1.356 . S
N3559 H3564 0.984 . S
N3559 H3565 0.985 . S
C3560 C3554 1.379 . S
C3560 C3557 1.363 . S
C3560 N3558 1.356 . S
C3561 C3555 1.363 . S
C3561 C3556 1.379 . S
C3561 N3559 1.356 . S
N3562 C3554 1.356 . S
N3562 H3568 0.984 . S
N3562 H3569 0.984 . S
N3563 C3556 1.356 . S
N3563 H3566 0.984 . S
N3563 H3567 0.985 . S
H3564 N3559 0.984 . S
H3565 N3559 0.985 . S
H3566 N3563 0.984 . S
H3567 N3563 0.985 . S
H3568 N3562 0.984 . S
H3569 N3562 0.984 . S
H3570 N3558 0.984 . S
H3571 N3558 0.985 . S
C3572 C3573 1.363 . S
C3572 C3578 1.379 . S
C3572 N3580 1.356 . S
C3573 C3572 1.363 . S
C3573 C3579 1.363 . S
C3574 C3575 1.363 . S
C3574 C3579 1.379 . S
C3574 N3581 1.356 . S
C3575 C3574 1.363 . S
C3575 C3578 1.363 . S
N3576 C3578 1.356 . S
N3576 H3588 0.984 . S
N3576 H3589 0.985 . S
N3577 C3579 1.356 . S
N3577 H3582 0.984 . S
N3577 H3583 0.985 . S
C3578 C3572 1.379 . S
C3578 C3575 1.363 . S
C3578 N3576 1.356 . S
C3579 C3573 1.363 . S
C3579 C3574 1.379 . S
C3579 N3577 1.356 . S
N3580 C3572 1.356 . S
N3580 H3586 0.984 . S
N3580 H3587 0.984 . S
N3581 C3574 1.356 . S
N3581 H3584 0.984 . S
N3581 H3585 0.985 . S
H3582 N3577 0.984 . S
H3583 N3577 0.985 . S
H3584 N3581 0.984 . S
H3585 N3581 0.985 . S
H3586 N3580 0.984 . S
H3587 N3580 0.984 . S
H3588 N3576 0.984 . S
H3589 N3576 0.985 . S
C3590 C3591 1.363 . S
C3590 C3596 1.379 1_455 S
C3590 N3598 1.356 . S
C3591 C3590 1.363 . S
C3591 C3597 1.363 . S
C3592 C3593 1.363 1_455 S
C3592 C3597 1.379 . S
C3592 N3599 1.356 1_455 S
C3593 C3592 1.363 1_655 S
C3593 C3596 1.363 . S
N3594 C3596 1.356 . S
N3594 H3606 0.984 . S
N3594 H3607 0.985 . S
N3595 C3597 1.356 . S
N3595 H3600 0.984 . S
N3595 H3601 0.985 . S
C3596 C3590 1.379 1_655 S
C3596 C3593 1.363 . S
C3596 N3594 1.356 . S
C3597 C3591 1.363 . S
C3597 C3592 1.379 . S
C3597 N3595 1.356 . S
N3598 C3590 1.356 . S
N3598 H3604 0.984 . S
N3598 H3605 0.984 . S
N3599 C3592 1.356 1_655 S
N3599 H3602 0.984 . S
N3599 H3603 0.985 . S
H3600 N3595 0.984 . S
H3601 N3595 0.985 . S
H3602 N3599 0.984 . S
H3603 N3599 0.985 . S
H3604 N3598 0.984 . S
H3605 N3598 0.984 . S
H3606 N3594 0.984 . S
H3607 N3594 0.985 . S
C3608 C3609 1.363 . S
C3608 C3614 1.379 . S
C3608 N3616 1.356 . S
C3609 C3608 1.363 . S
C3609 C3615 1.363 . S
C3610 C3611 1.363 . S
C3610 C3615 1.379 . S
C3610 N3617 1.356 . S
C3611 C3610 1.363 . S
C3611 C3614 1.363 . S
N3612 C3614 1.356 . S
N3612 H3624 0.984 . S
N3612 H3625 0.985 . S
N3613 C3615 1.356 . S
N3613 H3618 0.984 . S
N3613 H3619 0.985 . S
C3614 C3608 1.379 . S
C3614 C3611 1.363 . S
C3614 N3612 1.356 . S
C3615 C3609 1.363 . S
C3615 C3610 1.379 . S
C3615 N3613 1.356 . S
N3616 C3608 1.356 . S
N3616 H3622 0.984 . S
N3616 H3623 0.984 . S
N3617 C3610 1.356 . S
N3617 H3620 0.984 . S
N3617 H3621 0.985 . S
H3618 N3613 0.984 . S
H3619 N3613 0.985 . S
H3620 N3617 0.984 . S
H3621 N3617 0.985 . S
H3622 N3616 0.984 . S
H3623 N3616 0.984 . S
H3624 N3612 0.984 . S
H3625 N3612 0.985 . S
C3626 C3627 1.363 . S
C3626 C3632 1.379 1_655 S
C3626 N3634 1.356 . S
C3627 C3626 1.363 . S
C3627 C3633 1.363 1_655 S
C3628 C3629 1.363 . S
C3628 C3633 1.379 . S
C3628 N3635 1.356 . S
C3629 C3628 1.363 . S
C3629 C3632 1.363 . S
N3630 C3632 1.356 . S
N3630 H3642 0.984 . S
N3630 H3643 0.985 . S
N3631 C3633 1.356 1_655 S
N3631 H3636 0.984 . S
N3631 H3637 0.985 . S
C3632 C3626 1.379 1_455 S
C3632 C3629 1.363 . S
C3632 N3630 1.356 . S
C3633 C3627 1.363 1_455 S
C3633 C3628 1.379 . S
C3633 N3631 1.356 1_455 S
N3634 C3626 1.356 . S
N3634 H3640 0.984 . S
N3634 H3641 0.984 . S
N3635 C3628 1.356 . S
N3635 H3638 0.984 . S
N3635 H3639 0.985 . S
H3636 N3631 0.984 . S
H3637 N3631 0.985 . S
H3638 N3635 0.984 . S
H3639 N3635 0.985 . S
H3640 N3634 0.984 . S
H3641 N3634 0.984 . S
H3642 N3630 0.984 . S
H3643 N3630 0.985 . S
C3644 C3645 1.363 . S
C3644 C3650 1.379 . S
C3644 N3652 1.356 . S
C3645 C3644 1.363 . S
C3645 C3651 1.363 . S
C3646 C3647 1.363 . S
C3646 C3651 1.379 . S
C3646 N3653 1.356 . S
C3647 C3646 1.363 . S
C3647 C3650 1.363 . S
N3648 C3650 1.356 . S
N3648 H3660 0.984 . S
N3648 H3661 0.985 . S
N3649 C3651 1.356 . S
N3649 H3654 0.984 . S
N3649 H3655 0.985 . S
C3650 C3644 1.379 . S
C3650 C3647 1.363 . S
C3650 N3648 1.356 . S
C3651 C3645 1.363 . S
C3651 C3646 1.379 . S
C3651 N3649 1.356 . S
N3652 C3644 1.356 . S
N3652 H3658 0.984 . S
N3652 H3659 0.984 . S
N3653 C3646 1.356 . S
N3653 H3656 0.984 . S
N3653 H3657 0.985 . S
H3654 N3649 0.984 . S
H3655 N3649 0.985 . S
H3656 N3653 0.984 . S
H3657 N3653 0.985 . S
H3658 N3652 0.984 . S
H3659 N3652 0.984 . S
H3660 N3648 0.984 . S
H3661 N3648 0.985 . S
C3662 C3663 1.363 . S
C3662 C3668 1.379 . S
C3662 N3670 1.356 . S
C3663 C3662 1.363 . S
C3663 C3669 1.363 . S
C3664 C3665 1.363 . S
C3664 C3669 1.379 . S
C3664 N3671 1.356 . S
C3665 C3664 1.363 . S
C3665 C3668 1.363 . S
N3666 C3668 1.356 . S
N3666 H3678 0.984 . S
N3666 H3679 0.985 . S
N3667 C3669 1.356 . S
N3667 H3672 0.984 . S
N3667 H3673 0.985 . S
C3668 C3662 1.379 . S
C3668 C3665 1.363 . S
C3668 N3666 1.356 . S
C3669 C3663 1.363 . S
C3669 C3664 1.379 . S
C3669 N3667 1.356 . S
N3670 C3662 1.356 . S
N3670 H3676 0.984 . S
N3670 H3677 0.984 . S
N3671 C3664 1.356 . S
N3671 H3674 0.984 . S
N3671 H3675 0.985 . S
H3672 N3667 0.984 . S
H3673 N3667 0.985 . S
H3674 N3671 0.984 . S
H3675 N3671 0.985 . S
H3676 N3670 0.984 . S
H3677 N3670 0.984 . S
H3678 N3666 0.984 . S
H3679 N3666 0.985 . S
C3680 C3681 1.363 . S
C3680 C3686 1.379 . S
C3680 N3688 1.356 . S
C3681 C3680 1.363 . S
C3681 C3687 1.363 . S
C3682 C3683 1.363 . S
C3682 C3687 1.379 . S
C3682 N3689 1.356 . S
C3683 C3682 1.363 . S
C3683 C3686 1.363 . S
N3684 C3686 1.356 . S
N3684 H3696 0.984 . S
N3684 H3697 0.985 . S
N3685 C3687 1.356 . S
N3685 H3690 0.984 . S
N3685 H3691 0.985 . S
C3686 C3680 1.379 . S
C3686 C3683 1.363 . S
C3686 N3684 1.356 . S
C3687 C3681 1.363 . S
C3687 C3682 1.379 . S
C3687 N3685 1.356 . S
N3688 C3680 1.356 . S
N3688 H3694 0.984 . S
N3688 H3695 0.984 . S
N3689 C3682 1.356 . S
N3689 H3692 0.984 . S
N3689 H3693 0.985 . S
H3690 N3685 0.984 . S
H3691 N3685 0.985 . S
H3692 N3689 0.984 . S
H3693 N3689 0.985 . S
H3694 N3688 0.984 . S
H3695 N3688 0.984 . S
H3696 N3684 0.984 . S
H3697 N3684 0.985 . S
C3698 C3699 1.363 . S
C3698 C3704 1.379 . S
C3698 N3706 1.356 . S
C3699 C3698 1.363 . S
C3699 C3705 1.363 . S
C3700 C3701 1.363 . S
C3700 C3705 1.379 . S
C3700 N3707 1.356 . S
C3701 C3700 1.363 . S
C3701 C3704 1.363 . S
N3702 C3704 1.356 . S
N3702 H3714 0.984 . S
N3702 H3715 0.985 . S
N3703 C3705 1.356 . S
N3703 H3708 0.984 . S
N3703 H3709 0.985 . S
C3704 C3698 1.379 . S
C3704 C3701 1.363 . S
C3704 N3702 1.356 . S
C3705 C3699 1.363 . S
C3705 C3700 1.379 . S
C3705 N3703 1.356 . S
N3706 C3698 1.356 . S
N3706 H3712 0.984 . S
N3706 H3713 0.984 . S
N3707 C3700 1.356 . S
N3707 H3710 0.984 . S
N3707 H3711 0.985 . S
H3708 N3703 0.984 . S
H3709 N3703 0.985 . S
H3710 N3707 0.984 . S
H3711 N3707 0.985 . S
H3712 N3706 0.984 . S
H3713 N3706 0.984 . S
H3714 N3702 0.984 . S
H3715 N3702 0.985 . S
C3716 C3717 1.363 . S
C3716 C3722 1.379 . S
C3716 N3724 1.356 . S
C3717 C3716 1.363 . S
C3717 C3723 1.363 . S
C3718 C3719 1.363 . S
C3718 C3723 1.379 . S
C3718 N3725 1.356 . S
C3719 C3718 1.363 . S
C3719 C3722 1.363 . S
N3720 C3722 1.356 . S
N3720 H3732 0.984 . S
N3720 H3733 0.985 . S
N3721 C3723 1.356 . S
N3721 H3726 0.984 . S
N3721 H3727 0.985 . S
C3722 C3716 1.379 . S
C3722 C3719 1.363 . S
C3722 N3720 1.356 . S
C3723 C3717 1.363 . S
C3723 C3718 1.379 . S
C3723 N3721 1.356 . S
N3724 C3716 1.356 . S
N3724 H3730 0.984 . S
N3724 H3731 0.984 . S
N3725 C3718 1.356 . S
N3725 H3728 0.984 . S
N3725 H3729 0.985 . S
H3726 N3721 0.984 . S
H3727 N3721 0.985 . S
H3728 N3725 0.984 . S
H3729 N3725 0.985 . S
H3730 N3724 0.984 . S
H3731 N3724 0.984 . S
H3732 N3720 0.984 . S
H3733 N3720 0.985 . S
C3734 C3735 1.363 . S
C3734 C3740 1.379 . S
C3734 N3742 1.356 . S
C3735 C3734 1.363 . S
C3735 C3741 1.363 . S
C3736 C3737 1.363 . S
C3736 C3741 1.379 . S
C3736 N3743 1.356 . S
C3737 C3736 1.363 . S
C3737 C3740 1.363 . S
N3738 C3740 1.356 . S
N3738 H3750 0.984 . S
N3738 H3751 0.985 . S
N3739 C3741 1.356 . S
N3739 H3744 0.984 . S
N3739 H3745 0.985 . S
C3740 C3734 1.379 . S
C3740 C3737 1.363 . S
C3740 N3738 1.356 . S
C3741 C3735 1.363 . S
C3741 C3736 1.379 . S
C3741 N3739 1.356 . S
N3742 C3734 1.356 . S
N3742 H3748 0.984 . S
N3742 H3749 0.984 . S
N3743 C3736 1.356 . S
N3743 H3746 0.984 . S
N3743 H3747 0.985 . S
H3744 N3739 0.984 . S
H3745 N3739 0.985 . S
H3746 N3743 0.984 . S
H3747 N3743 0.985 . S
H3748 N3742 0.984 . S
H3749 N3742 0.984 . S
H3750 N3738 0.984 . S
H3751 N3738 0.985 . S
C3752 C3753 1.363 . S
C3752 C3758 1.379 . S
C3752 N3760 1.356 . S
C3753 C3752 1.363 . S
C3753 C3759 1.363 . S
C3754 C3755 1.363 . S
C3754 C3759 1.379 . S
C3754 N3761 1.356 . S
C3755 C3754 1.363 . S
C3755 C3758 1.363 . S
N3756 C3758 1.356 . S
N3756 H3768 0.984 . S
N3756 H3769 0.985 . S
N3757 C3759 1.356 . S
N3757 H3762 0.984 . S
N3757 H3763 0.985 . S
C3758 C3752 1.379 . S
C3758 C3755 1.363 . S
C3758 N3756 1.356 . S
C3759 C3753 1.363 . S
C3759 C3754 1.379 . S
C3759 N3757 1.356 . S
N3760 C3752 1.356 . S
N3760 H3766 0.984 . S
N3760 H3767 0.984 . S
N3761 C3754 1.356 . S
N3761 H3764 0.984 . S
N3761 H3765 0.985 . S
H3762 N3757 0.984 . S
H3763 N3757 0.985 . S
H3764 N3761 0.984 . S
H3765 N3761 0.985 . S
H3766 N3760 0.984 . S
H3767 N3760 0.984 . S
H3768 N3756 0.984 . S
H3769 N3756 0.985 . S
C3770 C3771 1.363 . S
C3770 C3776 1.379 . S
C3770 N3778 1.356 . S
C3771 C3770 1.363 . S
C3771 C3777 1.363 . S
C3772 C3773 1.363 . S
C3772 C3777 1.379 . S
C3772 N3779 1.356 . S
C3773 C3772 1.363 . S
C3773 C3776 1.363 . S
N3774 C3776 1.356 . S
N3774 H3786 0.984 . S
N3774 H3787 0.985 . S
N3775 C3777 1.356 . S
N3775 H3780 0.984 . S
N3775 H3781 0.985 . S
C3776 C3770 1.379 . S
C3776 C3773 1.363 . S
C3776 N3774 1.356 . S
C3777 C3771 1.363 . S
C3777 C3772 1.379 . S
C3777 N3775 1.356 . S
N3778 C3770 1.356 . S
N3778 H3784 0.984 . S
N3778 H3785 0.984 . S
N3779 C3772 1.356 . S
N3779 H3782 0.984 . S
N3779 H3783 0.985 . S
H3780 N3775 0.984 . S
H3781 N3775 0.985 . S
H3782 N3779 0.984 . S
H3783 N3779 0.985 . S
H3784 N3778 0.984 . S
H3785 N3778 0.984 . S
H3786 N3774 0.984 . S
H3787 N3774 0.985 . S
C3788 C3789 1.363 . S
C3788 C3794 1.379 . S
C3788 N3796 1.356 . S
C3789 C3788 1.363 . S
C3789 C3795 1.363 . S
C3790 C3791 1.363 . S
C3790 C3795 1.379 . S
C3790 N3797 1.356 . S
C3791 C3790 1.363 . S
C3791 C3794 1.363 . S
N3792 C3794 1.356 . S
N3792 H3804 0.984 . S
N3792 H3805 0.985 . S
N3793 C3795 1.356 . S
N3793 H3798 0.984 . S
N3793 H3799 0.985 . S
C3794 C3788 1.379 . S
C3794 C3791 1.363 . S
C3794 N3792 1.356 . S
C3795 C3789 1.363 . S
C3795 C3790 1.379 . S
C3795 N3793 1.356 . S
N3796 C3788 1.356 . S
N3796 H3802 0.984 . S
N3796 H3803 0.984 . S
N3797 C3790 1.356 . S
N3797 H3800 0.984 . S
N3797 H3801 0.985 . S
H3798 N3793 0.984 . S
H3799 N3793 0.985 . S
H3800 N3797 0.984 . S
H3801 N3797 0.985 . S
H3802 N3796 0.984 . S
H3803 N3796 0.984 . S
H3804 N3792 0.984 . S
H3805 N3792 0.985 . S
C3806 C3807 1.363 . S
C3806 C3812 1.379 . S
C3806 N3814 1.356 . S
C3807 C3806 1.363 . S
C3807 C3813 1.363 . S
C3808 C3809 1.363 . S
C3808 C3813 1.379 . S
C3808 N3815 1.356 . S
C3809 C3808 1.363 . S
C3809 C3812 1.363 . S
N3810 C3812 1.356 . S
N3810 H3822 0.984 . S
N3810 H3823 0.985 . S
N3811 C3813 1.356 . S
N3811 H3816 0.984 . S
N3811 H3817 0.985 . S
C3812 C3806 1.379 . S
C3812 C3809 1.363 . S
C3812 N3810 1.356 . S
C3813 C3807 1.363 . S
C3813 C3808 1.379 . S
C3813 N3811 1.356 . S
N3814 C3806 1.356 . S
N3814 H3820 0.984 . S
N3814 H3821 0.984 . S
N3815 C3808 1.356 . S
N3815 H3818 0.984 . S
N3815 H3819 0.985 . S
H3816 N3811 0.984 . S
H3817 N3811 0.985 . S
H3818 N3815 0.984 . S
H3819 N3815 0.985 . S
H3820 N3814 0.984 . S
H3821 N3814 0.984 . S
H3822 N3810 0.984 . S
H3823 N3810 0.985 . S
C3824 C3825 1.363 . S
C3824 C3830 1.379 . S
C3824 N3832 1.356 . S
C3825 C3824 1.363 . S
C3825 C3831 1.363 . S
C3826 C3827 1.363 . S
C3826 C3831 1.379 . S
C3826 N3833 1.356 . S
C3827 C3826 1.363 . S
C3827 C3830 1.363 . S
N3828 C3830 1.356 . S
N3828 H3840 0.984 . S
N3828 H3841 0.985 . S
N3829 C3831 1.356 . S
N3829 H3834 0.984 . S
N3829 H3835 0.985 . S
C3830 C3824 1.379 . S
C3830 C3827 1.363 . S
C3830 N3828 1.356 . S
C3831 C3825 1.363 . S
C3831 C3826 1.379 . S
C3831 N3829 1.356 . S
N3832 C3824 1.356 . S
N3832 H3838 0.984 . S
N3832 H3839 0.984 . S
N3833 C3826 1.356 . S
N3833 H3836 0.984 . S
N3833 H3837 0.985 . S
H3834 N3829 0.984 . S
H3835 N3829 0.985 . S
H3836 N3833 0.984 . S
H3837 N3833 0.985 . S
H3838 N3832 0.984 . S
H3839 N3832 0.984 . S
H3840 N3828 0.984 . S
H3841 N3828 0.985 . S
C3842 C3843 1.363 . S
C3842 C3848 1.379 . S
C3842 N3850 1.356 . S
C3843 C3842 1.363 . S
C3843 C3849 1.363 . S
C3844 C3845 1.363 . S
C3844 C3849 1.379 . S
C3844 N3851 1.356 . S
C3845 C3844 1.363 . S
C3845 C3848 1.363 . S
N3846 C3848 1.356 . S
N3846 H3858 0.984 . S
N3846 H3859 0.985 . S
N3847 C3849 1.356 . S
N3847 H3852 0.984 . S
N3847 H3853 0.985 . S
C3848 C3842 1.379 . S
C3848 C3845 1.363 . S
C3848 N3846 1.356 . S
C3849 C3843 1.363 . S
C3849 C3844 1.379 . S
C3849 N3847 1.356 . S
N3850 C3842 1.356 . S
N3850 H3856 0.984 . S
N3850 H3857 0.984 . S
N3851 C3844 1.356 . S
N3851 H3854 0.984 . S
N3851 H3855 0.985 . S
H3852 N3847 0.984 . S
H3853 N3847 0.985 . S
H3854 N3851 0.984 . S
H3855 N3851 0.985 . S
H3856 N3850 0.984 . S
H3857 N3850 0.984 . S
H3858 N3846 0.984 . S
H3859 N3846 0.985 . S
C3860 C3861 1.363 . S
C3860 C3866 1.379 . S
C3860 N3868 1.356 . S
C3861 C3860 1.363 . S
C3861 C3867 1.363 . S
C3862 C3863 1.363 . S
C3862 C3867 1.379 . S
C3862 N3869 1.356 . S
C3863 C3862 1.363 . S
C3863 C3866 1.363 . S
N3864 C3866 1.356 . S
N3864 H3876 0.984 . S
N3864 H3877 0.985 . S
N3865 C3867 1.356 . S
N3865 H3870 0.984 . S
N3865 H3871 0.985 . S
C3866 C3860 1.379 . S
C3866 C3863 1.363 . S
C3866 N3864 1.356 . S
C3867 C3861 1.363 . S
C3867 C3862 1.379 . S
C3867 N3865 1.356 . S
N3868 C3860 1.356 . S
N3868 H3874 0.984 . S
N3868 H3875 0.984 . S
N3869 C3862 1.356 . S
N3869 H3872 0.984 . S
N3869 H3873 0.985 . S
H3870 N3865 0.984 . S
H3871 N3865 0.985 . S
H3872 N3869 0.984 . S
H3873 N3869 0.985 . S
H3874 N3868 0.984 . S
H3875 N3868 0.984 . S
H3876 N3864 0.984 . S
H3877 N3864 0.985 . S
C3878 C3879 1.363 . S
C3878 C3884 1.379 . S
C3878 N3886 1.356 . S
C3879 C3878 1.363 . S
C3879 C3885 1.363 . S
C3880 C3881 1.363 . S
C3880 C3885 1.379 . S
C3880 N3887 1.356 . S
C3881 C3880 1.363 . S
C3881 C3884 1.363 . S
N3882 C3884 1.356 . S
N3882 H3894 0.984 . S
N3882 H3895 0.985 . S
N3883 C3885 1.356 . S
N3883 H3888 0.984 . S
N3883 H3889 0.985 . S
C3884 C3878 1.379 . S
C3884 C3881 1.363 . S
C3884 N3882 1.356 . S
C3885 C3879 1.363 . S
C3885 C3880 1.379 . S
C3885 N3883 1.356 . S
N3886 C3878 1.356 . S
N3886 H3892 0.984 . S
N3886 H3893 0.984 . S
N3887 C3880 1.356 . S
N3887 H3890 0.984 . S
N3887 H3891 0.985 . S
H3888 N3883 0.984 . S
H3889 N3883 0.985 . S
H3890 N3887 0.984 . S
H3891 N3887 0.985 . S
H3892 N3886 0.984 . S
H3893 N3886 0.984 . S
H3894 N3882 0.984 . S
H3895 N3882 0.985 . S
C3896 C3897 1.363 . S
C3896 C3902 1.379 . S
C3896 N3904 1.356 . S
C3897 C3896 1.363 . S
C3897 C3903 1.363 . S
C3898 C3899 1.363 . S
C3898 C3903 1.379 . S
C3898 N3905 1.356 . S
C3899 C3898 1.363 . S
C3899 C3902 1.363 . S
N3900 C3902 1.356 . S
N3900 H3912 0.984 . S
N3900 H3913 0.985 . S
N3901 C3903 1.356 . S
N3901 H3906 0.984 . S
N3901 H3907 0.985 . S
C3902 C3896 1.379 . S
C3902 C3899 1.363 . S
C3902 N3900 1.356 . S
C3903 C3897 1.363 . S
C3903 C3898 1.379 . S
C3903 N3901 1.356 . S
N3904 C3896 1.356 . S
N3904 H3910 0.984 . S
N3904 H3911 0.984 . S
N3905 C3898 1.356 . S
N3905 H3908 0.984 . S
N3905 H3909 0.985 . S
H3906 N3901 0.984 . S
H3907 N3901 0.985 . S
H3908 N3905 0.984 . S
H3909 N3905 0.985 . S
H3910 N3904 0.984 . S
H3911 N3904 0.984 . S
H3912 N3900 0.984 . S
H3913 N3900 0.985 . S
C3914 C3915 1.363 . S
C3914 C3920 1.379 . S
C3914 N3922 1.356 . S
C3915 C3914 1.363 . S
C3915 C3921 1.363 . S
C3916 C3917 1.363 . S
C3916 C3921 1.379 . S
C3916 N3923 1.356 . S
C3917 C3916 1.363 . S
C3917 C3920 1.363 . S
N3918 C3920 1.356 . S
N3918 H3930 0.984 . S
N3918 H3931 0.985 . S
N3919 C3921 1.356 . S
N3919 H3924 0.984 . S
N3919 H3925 0.985 . S
C3920 C3914 1.379 . S
C3920 C3917 1.363 . S
C3920 N3918 1.356 . S
C3921 C3915 1.363 . S
C3921 C3916 1.379 . S
C3921 N3919 1.356 . S
N3922 C3914 1.356 . S
N3922 H3928 0.984 . S
N3922 H3929 0.984 . S
N3923 C3916 1.356 . S
N3923 H3926 0.984 . S
N3923 H3927 0.985 . S
H3924 N3919 0.984 . S
H3925 N3919 0.985 . S
H3926 N3923 0.984 . S
H3927 N3923 0.985 . S
H3928 N3922 0.984 . S
H3929 N3922 0.984 . S
H3930 N3918 0.984 . S
H3931 N3918 0.985 . S
C3932 C3933 1.363 . S
C3932 C3938 1.379 . S
C3932 N3940 1.356 . S
C3933 C3932 1.363 . S
C3933 C3939 1.363 . S
C3934 C3935 1.363 . S
C3934 C3939 1.379 . S
C3934 N3941 1.356 . S
C3935 C3934 1.363 . S
C3935 C3938 1.363 . S
N3936 C3938 1.356 . S
N3936 H3948 0.984 . S
N3936 H3949 0.985 . S
N3937 C3939 1.356 . S
N3937 H3942 0.984 . S
N3937 H3943 0.985 . S
C3938 C3932 1.379 . S
C3938 C3935 1.363 . S
C3938 N3936 1.356 . S
C3939 C3933 1.363 . S
C3939 C3934 1.379 . S
C3939 N3937 1.356 . S
N3940 C3932 1.356 . S
N3940 H3946 0.984 . S
N3940 H3947 0.984 . S
N3941 C3934 1.356 . S
N3941 H3944 0.984 . S
N3941 H3945 0.985 . S
H3942 N3937 0.984 . S
H3943 N3937 0.985 . S
H3944 N3941 0.984 . S
H3945 N3941 0.985 . S
H3946 N3940 0.984 . S
H3947 N3940 0.984 . S
H3948 N3936 0.984 . S
H3949 N3936 0.985 . S
C3950 C3951 1.363 . S
C3950 C3956 1.379 . S
C3950 N3958 1.356 . S
C3951 C3950 1.363 . S
C3951 C3957 1.363 . S
C3952 C3953 1.363 . S
C3952 C3957 1.379 . S
C3952 N3959 1.356 . S
C3953 C3952 1.363 . S
C3953 C3956 1.363 . S
N3954 C3956 1.356 . S
N3954 H3966 0.984 . S
N3954 H3967 0.985 . S
N3955 C3957 1.356 . S
N3955 H3960 0.984 . S
N3955 H3961 0.985 . S
C3956 C3950 1.379 . S
C3956 C3953 1.363 . S
C3956 N3954 1.356 . S
C3957 C3951 1.363 . S
C3957 C3952 1.379 . S
C3957 N3955 1.356 . S
N3958 C3950 1.356 . S
N3958 H3964 0.984 . S
N3958 H3965 0.984 . S
N3959 C3952 1.356 . S
N3959 H3962 0.984 . S
N3959 H3963 0.985 . S
H3960 N3955 0.984 . S
H3961 N3955 0.985 . S
H3962 N3959 0.984 . S
H3963 N3959 0.985 . S
H3964 N3958 0.984 . S
H3965 N3958 0.984 . S
H3966 N3954 0.984 . S
H3967 N3954 0.985 . S
C2817 C49 1.442 . S
C2819 C372 1.442 . S
C2835 C145 1.433 . S
C2837 C460 1.433 . S
C2853 C557 1.442 . S
C2855 C225 1.442 . S
C2871 C636 1.433 . S
C2873 C313 1.433 . S
C2889 C724 1.446 . S
C2891 C1113 1.446 . S
C2907 C849 1.427 . S
C2909 C1164 1.427 . S
C2925 C1252 1.446 . S
C2927 C937 1.446 . S
C2943 C1017 1.427 . S
C2945 C1377 1.427 . S
C2961 C1780 1.442 . S
C2963 C1465 1.442 . S
C2979 C1877 1.433 . S
C2981 C1545 1.433 . S
C2997 C1633 1.442 . S
C2999 C1965 1.442 . S
C3015 C2044 1.433 . S
C3017 C1729 1.433 . S
C3033 C2141 1.446 . S
C3035 C2513 1.446 . S
C3051 C2572 1.427 . S
C3053 C2249 1.427 . S
C3069 C2660 1.446 . S
C3071 C2337 1.446 . S
C3087 C2433 1.427 . S
C3089 C2748 1.427 . S
C3105 C57 1.617 . S
C3107 C2396 1.709 . S
C3123 C761 1.689 . S
C3125 C117 1.615 . S
C3141 C233 1.617 . S
C3143 C2229 1.709 . S
C3159 C284 1.615 . S
C3161 C900 1.689 . S
C3177 C2609 1.709 . S
C3179 C381 1.617 . S
C3195 C1289 1.689 . S
C3197 C489 1.615 . S
C3213 C548 1.617 . S
C3215 C2785 1.709 . S
C3231 C665 1.615 . S
C3233 C1076 1.689 . S
C3249 C1721 1.686 . S
C3251 C753 1.613 . S
C3267 C821 1.621 . S
C3269 C29 1.703 . S
C3285 C1553 1.686 . S
C3287 C909 1.613 . S
C3303 C988 1.621 . S
C3305 C205 1.703 . S
C3321 C1868 1.686 . S
C3323 C1085 1.613 . S
C3339 C1193 1.621 . S
C3341 C577 1.703 . S
C3357 C2053 1.686 . S
C3359 C1281 1.613 . S
C3375 C1349 1.621 . S
C3377 C409 1.703 . S
C3393 C997 1.709 . S
C3395 C1457 1.617 . S
C3411 C2161 1.689 . S
C3413 C1516 1.615 . S
C3429 C812 1.709 . S
C3431 C1641 1.617 . S
C3447 C1701 1.615 . S
C3449 C2317 1.689 . S
C3465 C1201 1.709 . S
C3467 C1789 1.617 . S
C3483 C2697 1.689 . S
C3485 C1905 1.615 . S
C3501 C1340 1.709 . S
C3503 C1956 1.617 . S
C3519 C2073 1.615 . S
C3521 C2493 1.689 . S
C3537 C2169 1.613 . S
C3539 C321 1.686 . S
C3555 C2220 1.621 . S
C3557 C1428 1.703 . S
C3573 C2308 1.613 . S
C3575 C137 1.686 . S
C3591 C2405 1.621 . S
C3593 C1613 1.703 . S
C3609 C2484 1.613 . S
C3611 C469 1.686 . S
C3627 C1985 1.703 . S
C3629 C2601 1.621 . S
C3645 C645 1.686 . S
C3647 C2689 1.613 . S
C3663 C2777 1.621 . S
C3665 C1817 1.703 . S
C3681 C20 1.324 . S
C3683 C673 1.316 . S
C3699 C108 1.316 . S
C3701 C401 1.324 . S
C3717 C196 1.324 . S
C3719 C497 1.316 . S
C3735 C585 1.324 . S
C3737 C293 1.316 . S
C3753 C1369 1.328 . S
C3755 C733 1.327 . S
C3771 C1105 1.327 . S
C3773 C841 1.328 . S
C3789 C1173 1.328 . S
C3791 C929 1.327 . S
C3807 C1261 1.327 . S
C3809 C1025 1.328 . S
C3825 C1437 1.324 . S
C3827 C2081 1.316 . S
C3843 C1809 1.324 . S
C3845 C1525 1.316 . S
C3861 C1897 1.316 . S
C3863 C1604 1.324 . S
C3879 C1993 1.324 . S
C3881 C1692 1.316 . S
C3897 C2757 1.328 . S
C3899 C2132 1.327 . S
C3915 C2257 1.328 . S
C3917 C2521 1.327 . S
C3933 C2345 1.327 . S
C3935 C2581 1.328 . S
C3951 C2425 1.328 . S
C3953 C2669 1.327 . S
