# Generated by pormake.
# Topology qtz-x, (6)-cn, num edge types: 1
# Building blocks:
#     Node 0, Type 0, BuildingBlock: KUMJIN_clean_sbu_1, # of connection points: 6
#     Node 1, Type 0, BuildingBlock: KUMJIN_clean_sbu_1, # of connection points: 6
#     Node 2, Type 0, BuildingBlock: KUMJIN_clean_sbu_1, # of connection points: 6
#     Edge 3, Type (0, 0), BuildingBlock: XIVTED_clean_linker_0, # of connection points: 2
#     Edge 4, Type (0, 0), BuildingBlock: XIVTED_clean_linker_0, # of connection points: 2
#     Edge 5, Type (0, 0), BuildingBlock: XIVTED_clean_linker_0, # of connection points: 2
#     Edge 6, Type (0, 0), BuildingBlock: XIVTED_clean_linker_0, # of connection points: 2
#     Edge 7, Type (0, 0), BuildingBlock: XIVTED_clean_linker_0, # of connection points: 2
#     Edge 8, Type (0, 0), BuildingBlock: XIVTED_clean_linker_0, # of connection points: 2
#     Edge 9, Type (0, 0), BuildingBlock: XIVTED_clean_linker_0, # of connection points: 2
#     Edge 10, Type (0, 0), BuildingBlock: XIVTED_clean_linker_0, # of connection points: 2
#     Edge 11, Type (0, 0), BuildingBlock: XIVTED_clean_linker_0, # of connection points: 2
# Relax obj value: 0.204
# Max RMSD: 0.280
# Mean RMSD: 0.280
data_MOF--net-qtz-x--node1-KUMJIN_clean_sbu_1--edge1-XIVTED_clean_linker_0
_symmetry_space_group_name_H-M    P1
_symmetry_Int_Tables_number       1
_symmetry_cell_setting            triclinic
loop_
_symmetry_equiv_pos_as_xyz
'x, y, z'
_cell_length_a     14.990763
_cell_length_b     15.022581
_cell_length_c     52.819226
_cell_angle_alpha  89.796653
_cell_angle_beta   90.062747
_cell_angle_gamma 119.99725
loop_
_atom_site_label
_atom_site_type_symbol
_atom_site_fract_x
_atom_site_fract_y
_atom_site_fract_z
_atom_type_partial_charge
Eu0 Eu 0.95813 0.41437 0.14245 0.0
C1 C 0.44264 0.59937 0.14984 0.0
N2 N 0.366 0.51531 0.16167 0.0
C3 C 0.44473 0.41593 0.15057 0.0
C4 C 0.5233 0.59404 0.13754 0.0
C5 C 0.36663 0.42489 0.16262 0.0
C6 C 0.52311 0.50068 0.13786 0.0
C7 C 0.51891 0.77894 0.13783 0.0
C8 C 0.43902 0.69032 0.14962 0.0
C9 C 0.59906 0.77364 0.12547 0.0
C10 C 0.60107 0.68144 0.12525 0.0
Eu11 Eu 0.23615 0.53623 0.18086 0.0
N12 N 0.35993 0.69327 0.1616 0.0
C13 C 0.51756 0.87119 0.13937 0.0
C14 C 0.36317 0.78511 0.16478 0.0
C15 C 0.44032 0.87459 0.15327 0.0
H16 H 0.30683 0.35994 0.17273 0.0
H17 H 0.4414 0.9467 0.15559 0.0
H18 H 0.89086 0.59426 0.14731 0.0
H19 H 0.75304 0.0114 0.17367 0.0
H20 H 0.30906 0.79164 0.17687 0.0
H21 H 0.57775 0.94098 0.13069 0.0
H22 H 0.88811 0.16241 0.15171 0.0
H23 H 0.44478 0.34392 0.1512 0.0
H24 H 0.66062 0.84088 0.11624 0.0
H25 H 0.66363 0.67876 0.11571 0.0
H26 H 0.75282 0.61564 0.16696 0.0
H27 H 0.58348 0.49343 0.12851 0.0
H28 H 0.6138 0.02165 0.196 0.0
N29 N 0.82977 0.44093 0.16031 0.0
C30 C 0.75231 0.35961 0.17272 0.0
C31 C 0.75208 0.54349 0.16881 0.0
C32 C 0.67128 0.36778 0.18387 0.0
C33 C 0.83025 0.53154 0.15784 0.0
C34 C 0.67247 0.46141 0.18198 0.0
N35 N 0.83512 0.26314 0.16385 0.0
C36 C 0.8326 0.17109 0.16265 0.0
C37 C 0.67406 0.18231 0.18682 0.0
C38 C 0.75526 0.26857 0.17462 0.0
C39 C 0.67514 0.08976 0.18701 0.0
C40 C 0.75399 0.08385 0.17457 0.0
H41 H 0.6119 0.47086 0.19043 0.0
H42 H 0.52875 0.28739 0.20507 0.0
H43 H 0.53027 0.12464 0.20732 0.0
O44 O 0.90104 0.31474 0.10942 0.0
O45 O 0.95791 0.45946 0.18354 0.0
O46 O 0.07909 0.42164 0.19604 0.0
O47 O 0.87483 0.44325 0.11248 0.0
O48 O 0.04035 0.3209 0.14319 0.0
O49 O 0.12977 0.36423 0.18111 0.0
O50 O 0.28106 0.62287 0.21642 0.0
O51 O 0.2373 0.49702 0.13919 0.0
O52 O 0.11118 0.52635 0.12471 0.0
O53 O 0.3303 0.51331 0.20871 0.0
O54 O 0.15627 0.63135 0.17931 0.0
O55 O 0.06715 0.58608 0.14133 0.0
C56 C 0.01008 0.44698 0.20163 0.0
C57 C 0.75411 0.29999 0.08895 0.0
C58 C 0.63993 0.25816 0.0526 0.0
C59 C 0.56163 0.1757 0.06626 0.0
C60 C 0.67512 0.21836 0.10259 0.0
C61 C 0.5791 0.15663 0.09124 0.0
C62 C 0.7358 0.32009 0.06419 0.0
C63 C 0.09121 0.3041 0.16123 0.0
C64 C 0.85782 0.36315 0.09943 0.0
C65 C 0.59189 0.28268 0.19649 0.0
C66 C 0.59301 0.19012 0.19785 0.0
C67 C 0.18713 0.50909 0.12037 0.0
C68 C 0.29244 0.5297 0.2512 0.0
C69 C 0.29438 0.55456 0.29697 0.0
C70 C 0.22979 0.44785 0.30003 0.0
C71 C 0.22891 0.42332 0.25478 0.0
C72 C 0.3252 0.59497 0.27235 0.0
C73 C 0.19767 0.38293 0.27907 0.0
C74 C 0.10697 0.64792 0.16085 0.0
C75 C 0.32436 0.57306 0.22553 0.0
H76 H 0.48716 0.12665 0.05769 0.0
H77 H 0.68799 0.20165 0.12176 0.0
H78 H 0.51845 0.09325 0.10173 0.0
H79 H 0.79767 0.38241 0.05363 0.0
H80 H 0.20565 0.41415 0.3187 0.0
H81 H 0.20253 0.37141 0.23879 0.0
H82 H 0.37398 0.67711 0.26959 0.0
H83 H 0.14828 0.30092 0.28166 0.0
Eu84 Eu 0.71169 0.1819 0.47904 0.0
C85 C 0.37671 0.71066 0.49176 0.0
N86 N 0.38051 0.79287 0.5035 0.0
C87 C 0.20195 0.72879 0.49458 0.0
C88 C 0.28471 0.63482 0.48043 0.0
C89 C 0.29468 0.80173 0.50566 0.0
C90 C 0.19724 0.64564 0.48164 0.0
C91 C 0.4627 0.61726 0.47929 0.0
C92 C 0.46567 0.70347 0.49076 0.0
C93 C 0.37143 0.54203 0.4678 0.0
C94 C 0.2829 0.55109 0.46824 0.0
Eu95 Eu 0.54102 0.91585 0.52024 0.0
N96 N 0.55362 0.77827 0.50178 0.0
C97 C 0.55075 0.60766 0.48026 0.0
C98 C 0.63685 0.76473 0.5044 0.0
C99 C 0.63749 0.68077 0.49326 0.0
H100 H 0.29809 0.86515 0.51595 0.0
H101 H 0.70435 0.67153 0.4951 0.0
H102 H 0.95387 0.22898 0.48158 0.0
H103 H 0.54797 0.41499 0.51337 0.0
H104 H 0.70232 0.81614 0.51568 0.0
H105 H 0.55136 0.54233 0.47181 0.0
H106 H 0.54763 0.27443 0.49006 0.0
H107 H 0.13419 0.73663 0.49607 0.0
H108 H 0.36817 0.47582 0.45876 0.0
H109 H 0.21301 0.49223 0.45937 0.0
H110 H 0.11971 0.35406 0.50132 0.0
H111 H 0.12538 0.58947 0.47297 0.0
H112 H 0.70515 0.54298 0.53553 0.0
N113 N 0.87337 0.30024 0.49611 0.0
C114 C 0.8786 0.38079 0.50908 0.0
C115 C 0.05241 0.36214 0.50373 0.0
C116 C 0.97181 0.45479 0.52029 0.0
C117 C 0.95865 0.29121 0.49272 0.0
C118 C 0.05882 0.44374 0.51778 0.0
N119 N 0.69972 0.31315 0.50115 0.0
C120 C 0.61509 0.32502 0.5008 0.0
C121 C 0.79364 0.47106 0.52477 0.0
C122 C 0.78941 0.38707 0.51177 0.0
C123 C 0.70485 0.47932 0.52586 0.0
C124 C 0.61575 0.40682 0.51352 0.0
H125 H 0.13158 0.4985 0.52633 0.0
H126 H 0.04628 0.59475 0.54235 0.0
H127 H 0.89094 0.61003 0.54591 0.0
O128 O 0.68357 0.25968 0.44763 0.0
O129 O 0.76374 0.17937 0.51946 0.0
O130 O 0.60328 0.07796 0.53384 0.0
O131 O 0.82075 0.24665 0.44773 0.0
O132 O 0.53697 0.11485 0.48057 0.0
O133 O 0.49178 0.03593 0.51979 0.0
O134 O 0.58196 0.86602 0.55511 0.0
O135 O 0.49483 0.91314 0.47911 0.0
O136 O 0.6486 0.02617 0.46001 0.0
O137 O 0.43025 0.8478 0.5511 0.0
O138 O 0.7138 0.97778 0.51635 0.0
O139 O 0.75654 0.05874 0.47731 0.0
C140 C 0.70088 0.13723 0.5385 0.0
C141 C 0.82871 0.38547 0.42504 0.0
C142 C 0.90994 0.48853 0.38739 0.0
C143 C 0.9451 0.57833 0.40184 0.0
C144 C 0.865 0.4752 0.43945 0.0
C145 C 0.92286 0.5714 0.42779 0.0
C146 C 0.851 0.3926 0.39921 0.0
C147 C 0.47068 0.0726 0.49938 0.0
C148 C 0.76908 0.28256 0.43608 0.0
C149 C 0.97523 0.53689 0.5337 0.0
C150 C 0.88662 0.54533 0.53581 0.0
C151 C 0.55268 0.95058 0.45884 0.0
C152 C 0.44583 0.7266 0.57655 0.0
C153 C 0.43733 0.62121 0.61274 0.0
C154 C 0.36224 0.53352 0.59991 0.0
C155 C 0.37131 0.63843 0.56396 0.0
C156 C 0.47881 0.71757 0.60075 0.0
C157 C 0.32974 0.54234 0.57567 0.0
C158 C 0.77651 0.01679 0.4968 0.0
C159 C 0.49064 0.82906 0.565 0.0
H160 H 0.99105 0.65334 0.39321 0.0
H161 H 0.84876 0.47086 0.45952 0.0
H162 H 0.95101 0.64072 0.43891 0.0
H163 H 0.82173 0.3226 0.38823 0.0
H164 H 0.32767 0.45829 0.6087 0.0
H165 H 0.34505 0.64382 0.54522 0.0
H166 H 0.5379 0.78594 0.61009 0.0
H167 H 0.27181 0.47452 0.56598 0.0
Eu168 Eu 0.75357 0.42943 0.81182 0.0
C169 C 0.5541 0.71829 0.81397 0.0
N170 N 0.64343 0.73229 0.82428 0.0
C171 C 0.73455 0.90538 0.80864 0.0
C172 C 0.55266 0.79765 0.79992 0.0
C173 C 0.7325 0.82467 0.82236 0.0
C174 C 0.64443 0.89166 0.79724 0.0
C175 C 0.37027 0.60908 0.80721 0.0
C176 C 0.46399 0.62427 0.81747 0.0
C177 C 0.36924 0.68716 0.79272 0.0
C178 C 0.46007 0.78113 0.78912 0.0
Eu179 Eu 0.63167 0.5939 0.84812 0.0
N180 N 0.46667 0.55002 0.83186 0.0
C181 C 0.27947 0.51716 0.8125 0.0
C182 C 0.37668 0.4645 0.83885 0.0
C183 C 0.28254 0.44542 0.82873 0.0
H184 H 0.80176 0.8356 0.83144 0.0
H185 H 0.21197 0.37645 0.83398 0.0
H186 H 0.56955 0.18297 0.81232 0.0
H187 H 0.14425 0.61558 0.85151 0.0
H188 H 0.37556 0.41177 0.85287 0.0
H189 H 0.20607 0.50273 0.80501 0.0
H190 H 0.99933 0.60917 0.82859 0.0
H191 H 0.8054 0.9783 0.80699 0.0
H192 H 0.29802 0.67637 0.78464 0.0
H193 H 0.45764 0.84106 0.77819 0.0
H194 H 0.54306 0.01643 0.82849 0.0
H195 H 0.64627 0.95448 0.78665 0.0
H196 H 0.12971 0.4568 0.86944 0.0
N197 N 0.72125 0.26866 0.82684 0.0
C198 C 0.79951 0.26735 0.83951 0.0
C199 C 0.61535 0.08643 0.83178 0.0
C200 C 0.7883 0.17415 0.84882 0.0
C201 C 0.63015 0.18053 0.82279 0.0
C202 C 0.69473 0.08319 0.84487 0.0
N203 N 0.89807 0.44924 0.83497 0.0
C204 C 0.98888 0.53973 0.83715 0.0
C205 C 0.97288 0.36011 0.85657 0.0
C206 C 0.89023 0.35993 0.84368 0.0
C207 C 0.06438 0.45354 0.85976 0.0
C208 C 0.07265 0.54345 0.8498 0.0
H209 H 0.68304 0.01015 0.85183 0.0
H210 H 0.86316 0.1037 0.86901 0.0
H211 H 0.02514 0.26616 0.8755 0.0
O212 O 0.85701 0.47877 0.77934 0.0
O213 O 0.71173 0.38589 0.85314 0.0
O214 O 0.74002 0.54275 0.86319 0.0
O215 O 0.72773 0.3235 0.78067 0.0
O216 O 0.84969 0.60493 0.81136 0.0
O217 O 0.80226 0.65038 0.84834 0.0
O218 O 0.55192 0.58112 0.88464 0.0
O219 O 0.66848 0.62501 0.80594 0.0
O220 O 0.63746 0.46624 0.79489 0.0
O221 O 0.68442 0.7261 0.87237 0.0
O222 O 0.53424 0.41857 0.84935 0.0
O223 O 0.58083 0.3688 0.81236 0.0
C224 C 0.71221 0.44904 0.87014 0.0
C225 C 0.87315 0.35163 0.75692 0.0
C226 C 0.91246 0.28203 0.7197 0.0
C227 C 0.9985 0.28936 0.73229 0.0
C228 C 0.95824 0.35724 0.76952 0.0
C229 C 0.02058 0.32602 0.75718 0.0
C230 C 0.85023 0.31327 0.73225 0.0
C231 C 0.86199 0.67434 0.82833 0.0
C232 C 0.80925 0.38948 0.7683 0.0
C233 C 0.87022 0.17462 0.86182 0.0
C234 C 0.96234 0.26721 0.86559 0.0
C235 C 0.65635 0.55814 0.78842 0.0
C236 C 0.60885 0.73399 0.91175 0.0
C237 C 0.54443 0.73721 0.9539 0.0
C238 C 0.59674 0.84515 0.95286 0.0
C239 C 0.66085 0.84212 0.9112 0.0
C240 C 0.55132 0.68158 0.93333 0.0
C241 C 0.65492 0.89711 0.93167 0.0
C242 C 0.51933 0.34895 0.83207 0.0
C243 C 0.61412 0.67818 0.88942 0.0
H244 H 0.04779 0.26595 0.72298 0.0
H245 H 0.97707 0.38675 0.78864 0.0
H246 H 0.08662 0.331 0.76686 0.0
H247 H 0.78508 0.3104 0.7225 0.0
H248 H 0.59275 0.88934 0.96855 0.0
H249 H 0.70542 0.88451 0.8948 0.0
H250 H 0.51055 0.59829 0.93395 0.0
H251 H 0.69495 0.98027 0.93102 0.0
H252 H 0.0693 0.73827 0.12055 0.0
H253 H 0.13417 0.21552 0.20095 0.0
H254 H 0.13943 0.77702 0.20047 0.0
H255 H 0.05156 0.17194 0.12174 0.0
H256 H 0.1384 0.05594 0.20088 0.0
H257 H 0.06397 0.89765 0.12045 0.0
C258 C 0.08361 0.7804 0.1381 0.0
C259 C 0.10509 0.74471 0.16057 0.0
C260 C 0.11922 0.08107 0.1835 0.0
C261 C 0.09937 0.92706 0.16053 0.0
C262 C 0.11694 0.17234 0.1835 0.0
C263 C 0.09257 0.20699 0.16127 0.0
C264 C 0.097 0.02395 0.16113 0.0
C265 C 0.07041 0.14768 0.13929 0.0
C266 C 0.08062 0.8714 0.138 0.0
C267 C 0.12334 0.80236 0.1827 0.0
N268 N 0.07326 0.05882 0.13976 0.0
N269 N 0.12008 0.89093 0.18213 0.0
H270 H 0.37054 0.0891 0.45774 0.0
H271 H 0.87647 0.99551 0.53764 0.0
H272 H 0.34467 0.05126 0.53893 0.0
H273 H 0.9026 0.04231 0.4567 0.0
H274 H 0.04675 0.01151 0.53817 0.0
H275 H 0.1995 0.07265 0.45671 0.0
C276 C 0.32926 0.07825 0.47535 0.0
C277 C 0.37148 0.07097 0.49843 0.0
C278 C 0.01517 0.01797 0.52027 0.0
C279 C 0.17592 0.05108 0.4974 0.0
C280 C 0.91762 0.00812 0.51994 0.0
C281 C 0.87549 0.01785 0.49711 0.0
C282 C 0.07096 0.0375 0.49758 0.0
C283 C 0.93253 0.03486 0.47476 0.0
C284 C 0.23148 0.06825 0.47475 0.0
C285 C 0.31465 0.05651 0.52068 0.0
N286 N 0.02754 0.04451 0.47556 0.0
N287 N 0.21971 0.04661 0.5196 0.0
H288 H 0.00442 0.76075 0.79022 0.0
H289 H 0.38602 0.25527 0.8716 0.0
H290 H 0.93801 0.81648 0.86621 0.0
H291 H 0.42868 0.22024 0.79215 0.0
H292 H 0.22376 0.09139 0.87056 0.0
H293 H 0.16426 0.9265 0.79109 0.0
C294 C 0.02342 0.80776 0.80706 0.0
C295 C 0.95801 0.77462 0.82817 0.0
C296 C 0.26869 0.11984 0.85336 0.0
C297 C 0.14019 0.9639 0.82932 0.0
C298 C 0.36102 0.21334 0.85395 0.0
C299 C 0.42077 0.25128 0.83197 0.0
C300 C 0.23656 0.06397 0.83065 0.0
C301 C 0.3854 0.19356 0.80962 0.0
C302 C 0.11446 0.90239 0.80754 0.0
C303 C 0.98616 0.8388 0.84948 0.0
N304 N 0.29576 0.10269 0.80956 0.0
N305 N 0.07526 0.93024 0.84952 0.0
H306 H 0.55363 0.59461 0.98482 0.0
H307 H 0.12621 0.5742 0.07909 0.0
H308 H 0.39201 0.76189 0.97396 0.0
H309 H 0.34449 0.48186 0.10229 0.0
H310 H 0.2032 0.61372 0.03717 0.0
H311 H 0.45855 0.52435 0.02474 0.0
C312 C 0.49707 0.61518 0.9907 0.0
C313 C 0.48075 0.68448 0.97633 0.0
C314 C 0.23444 0.58481 0.05141 0.0
C315 C 0.3725 0.60501 0.0215 0.0
C316 C 0.19041 0.56204 0.07541 0.0
C317 C 0.23038 0.52669 0.09448 0.0
C318 C 0.31897 0.57181 0.04621 0.0
C319 C 0.31278 0.51116 0.08834 0.0
C320 C 0.44353 0.57578 0.01346 0.0
C321 C 0.40731 0.70939 0.98469 0.0
N322 N 0.35492 0.53443 0.06472 0.0
N323 N 0.35611 0.66987 0.00671 0.0
H324 H 0.97515 0.37302 0.36265 0.0
H325 H 0.95432 0.57715 0.22365 0.0
H326 H 0.89945 0.61151 0.35003 0.0
H327 H 0.0127 0.32963 0.24001 0.0
H328 H 0.93445 0.5949 0.26938 0.0
H329 H 0.99524 0.3631 0.31733 0.0
C330 C 0.9628 0.4235 0.35026 0.0
C331 C 0.93415 0.49217 0.36008 0.0
C332 C 0.95153 0.53674 0.2629 0.0
C333 C 0.9576 0.48171 0.30789 0.0
C334 C 0.96207 0.5262 0.23691 0.0
C335 C 0.98686 0.45301 0.22833 0.0
C336 C 0.96516 0.47289 0.28013 0.0
C337 C 0.99608 0.38866 0.24602 0.0
C338 C 0.97432 0.41787 0.32433 0.0
C339 C 0.92176 0.55758 0.34319 0.0
N340 N 0.98557 0.4003 0.27104 0.0
N341 N 0.9329 0.55033 0.31781 0.0
H342 H 0.6646 0.73027 0.76737 0.0
H343 H 0.47347 0.47105 0.63115 0.0
H344 H 0.60061 0.42416 0.74894 0.0
H345 H 0.48317 0.75249 0.65302 0.0
H346 H 0.533 0.45934 0.67339 0.0
H347 H 0.61338 0.7478 0.72447 0.0
C348 C 0.63937 0.66665 0.75441 0.0
C349 C 0.6345 0.57476 0.76203 0.0
C350 C 0.52215 0.52372 0.66894 0.0
C351 C 0.57799 0.59495 0.71274 0.0
C352 C 0.48743 0.53007 0.64486 0.0
C353 C 0.47294 0.61273 0.63846 0.0
C354 C 0.54297 0.60071 0.68683 0.0
C355 C 0.49446 0.68804 0.65694 0.0
C356 C 0.61051 0.67682 0.72987 0.0
C357 C 0.60431 0.49601 0.74409 0.0
N358 N 0.52834 0.68021 0.68026 0.0
N359 N 0.57692 0.50781 0.72037 0.0
H360 H 0.71728 0.56643 0.91003 0.0
H361 H 0.56504 0.12174 0.01326 0.0
H362 H 0.64695 0.25876 0.89102 0.0
H363 H 0.68378 0.44119 0.03131 0.0
H364 H 0.56655 0.16314 0.96821 0.0
H365 H 0.67853 0.51449 0.95423 0.0
C366 C 0.69319 0.48771 0.91513 0.0
C367 C 0.68603 0.417 0.89683 0.0
C368 C 0.59116 0.22391 0.98206 0.0
C369 C 0.64226 0.35707 0.94756 0.0
C370 C 0.58953 0.20018 0.00774 0.0
C371 C 0.62523 0.27843 0.02591 0.0
C372 C 0.62812 0.32644 0.97463 0.0
C373 C 0.65693 0.37893 0.01781 0.0
C374 C 0.67121 0.45812 0.94042 0.0
C375 C 0.65427 0.31597 0.90457 0.0
N376 N 0.65822 0.40014 0.99278 0.0
N377 N 0.6341 0.28912 0.92941 0.0
H378 H 0.48856 0.71577 0.30627 0.0
H379 H 0.35244 0.8143 0.44632 0.0
H380 H 0.18529 0.54735 0.33933 0.0
H381 H 0.65999 0.96893 0.41527 0.0
H382 H 0.28789 0.7228 0.40641 0.0
H383 H 0.55045 0.81841 0.34486 0.0
C384 C 0.43462 0.70112 0.32152 0.0
C385 C 0.33151 0.62238 0.31957 0.0
C386 C 0.36952 0.77672 0.4083 0.0
C387 C 0.40217 0.73879 0.36397 0.0
C388 C 0.40657 0.82843 0.43119 0.0
C389 C 0.51208 0.89793 0.43437 0.0
C390 C 0.43835 0.79519 0.38828 0.0
C391 C 0.57811 0.91561 0.41376 0.0
C392 C 0.47019 0.75927 0.34363 0.0
C393 C 0.26555 0.60612 0.34011 0.0
N394 N 0.54021 0.8643 0.39164 0.0
N395 N 0.302 0.66349 0.36144 0.0
H396 H 0.72649 0.13819 0.70105 0.0
H397 H 0.89997 0.25331 0.55575 0.0
H398 H 0.04082 0.3427 0.67835 0.0
H399 H 0.58805 0.05364 0.58128 0.0
H400 H 0.95778 0.27793 0.59998 0.0
H401 H 0.67932 0.09433 0.6568 0.0
C402 C 0.78575 0.17319 0.68667 0.0
C403 C 0.8874 0.24483 0.69329 0.0
C404 C 0.87684 0.22827 0.59583 0.0
C405 C 0.83399 0.19603 0.64243 0.0
C406 C 0.84378 0.21441 0.57061 0.0
C407 C 0.73893 0.15172 0.56483 0.0
C408 C 0.80441 0.17892 0.61529 0.0
C409 C 0.66956 0.10283 0.5848 0.0
C410 C 0.7589 0.14826 0.66139 0.0
C411 C 0.96157 0.28696 0.67398 0.0
N412 N 0.70349 0.11771 0.60906 0.0
N413 N 0.93317 0.26285 0.64933 0.0
loop_
_geom_bond_atom_site_label_1
_geom_bond_atom_site_label_2
_geom_bond_distance
_geom_bond_site_symmetry_2
_ccdc_geom_bond_type
Eu0 N29 2.600 . S
Eu0 N35 2.562 . S
Eu0 O44 2.462 . S
Eu0 O45 2.373 . S
Eu0 O47 2.432 . S
Eu0 O48 2.291 . S
Eu0 O52 2.335 1_655 S
Eu0 O55 2.372 . S
Eu0 C64 2.787 . S
C1 N2 1.365 . S
C1 C4 1.405 . S
C1 C8 1.448 . S
N2 C1 1.365 . S
N2 C5 1.319 . S
N2 Eu11 2.600 . S
C3 C5 1.397 . S
C3 C6 1.367 . S
C3 H23 0.931 . S
C4 C1 1.405 . S
C4 C6 1.403 . S
C4 C10 1.439 . S
C5 N2 1.319 . S
C5 C3 1.397 . S
C5 H16 0.930 . S
C6 C3 1.367 . S
C6 C4 1.403 . S
C6 H27 0.929 . S
C7 C8 1.430 . S
C7 C9 1.387 . S
C7 C13 1.404 . S
C8 C1 1.448 . S
C8 C7 1.430 . S
C8 N12 1.351 . S
C9 C7 1.387 . S
C9 C10 1.374 . S
C9 H24 0.931 . S
C10 C4 1.439 . S
C10 C9 1.374 . S
C10 H25 0.931 . S
Eu11 N2 2.600 . S
Eu11 N12 2.562 . S
Eu11 O46 2.335 1_455 S
Eu11 O49 2.372 . S
Eu11 O50 2.462 . S
Eu11 O51 2.373 . S
Eu11 O53 2.432 . S
Eu11 O54 2.291 . S
Eu11 C75 2.787 . S
N12 C8 1.351 . S
N12 Eu11 2.562 . S
N12 C14 1.325 . S
C13 C7 1.404 . S
C13 C15 1.366 . S
C13 H21 0.930 . S
C14 N12 1.325 . S
C14 C15 1.416 . S
C14 H20 0.929 . S
C15 C13 1.366 . S
C15 C14 1.416 . S
C15 H17 0.930 . S
H16 C5 0.930 . S
H17 C15 0.930 . S
H18 C33 0.930 . S
H19 C40 0.929 1_565 S
H20 C14 0.929 . S
H21 C13 0.930 . S
H22 C36 0.929 . S
H23 C3 0.931 . S
H24 C9 0.931 . S
H25 C10 0.931 . S
H26 C31 0.931 . S
H27 C6 0.929 . S
H28 C39 0.930 . S
N29 Eu0 2.600 . S
N29 C30 1.365 . S
N29 C33 1.319 . S
C30 N29 1.365 . S
C30 C32 1.405 . S
C30 C38 1.448 . S
C31 H26 0.931 . S
C31 C33 1.397 . S
C31 C34 1.367 . S
C32 C30 1.405 . S
C32 C34 1.403 . S
C32 C65 1.439 . S
C33 H18 0.930 . S
C33 N29 1.319 . S
C33 C31 1.397 . S
C34 C31 1.367 . S
C34 C32 1.403 . S
C34 H41 0.929 . S
N35 Eu0 2.562 . S
N35 C36 1.325 . S
N35 C38 1.351 . S
C36 H22 0.929 . S
C36 N35 1.325 . S
C36 C40 1.416 . S
C37 C38 1.430 . S
C37 C39 1.404 . S
C37 C66 1.387 . S
C38 C30 1.448 . S
C38 N35 1.351 . S
C38 C37 1.430 . S
C39 H28 0.930 . S
C39 C37 1.404 . S
C39 C40 1.366 . S
C40 H19 0.929 1_545 S
C40 C36 1.416 . S
C40 C39 1.366 . S
H41 C34 0.929 . S
H42 C65 0.931 . S
H43 C66 0.931 . S
O44 Eu0 2.462 . S
O44 C64 1.252 . S
O45 Eu0 2.373 . S
O45 C56 1.249 . S
O46 Eu11 2.335 1_655 S
O46 C56 1.264 . S
O47 Eu0 2.432 . S
O47 C64 1.268 . S
O48 Eu0 2.291 . S
O48 C63 1.255 . S
O49 Eu11 2.372 . S
O49 C63 1.257 1_455 S
O50 Eu11 2.462 . S
O50 C75 1.252 . S
O51 Eu11 2.373 . S
O51 C67 1.249 . S
O52 Eu0 2.335 1_455 S
O52 C67 1.264 . S
O53 Eu11 2.432 . S
O53 C75 1.268 . S
O54 Eu11 2.291 . S
O54 C74 1.255 . S
O55 Eu0 2.372 . S
O55 C74 1.257 1_655 S
C56 O45 1.249 . S
C56 O46 1.264 . S
C57 C60 1.382 . S
C57 C62 1.390 . S
C57 C64 1.506 . S
C58 C59 1.398 . S
C58 C62 1.392 . S
C59 C58 1.398 . S
C59 C61 1.372 . S
C59 H76 0.931 . S
C60 C57 1.382 . S
C60 C61 1.390 . S
C60 H77 0.931 . S
C61 C59 1.372 . S
C61 C60 1.390 . S
C61 H78 0.929 . S
C62 C57 1.390 . S
C62 C58 1.392 . S
C62 H79 0.930 . S
C63 O48 1.255 . S
C63 O49 1.257 1_655 S
C64 Eu0 2.787 . S
C64 O44 1.252 . S
C64 O47 1.268 . S
C64 C57 1.506 . S
C65 C32 1.439 . S
C65 H42 0.931 . S
C65 C66 1.374 . S
C66 C37 1.387 . S
C66 H43 0.931 . S
C66 C65 1.374 . S
C67 O51 1.249 . S
C67 O52 1.264 . S
C68 C71 1.382 . S
C68 C72 1.390 . S
C68 C75 1.506 . S
C69 C70 1.398 . S
C69 C72 1.392 . S
C70 C69 1.398 . S
C70 C73 1.372 . S
C70 H80 0.931 . S
C71 C68 1.382 . S
C71 C73 1.390 . S
C71 H81 0.931 . S
C72 C68 1.390 . S
C72 C69 1.392 . S
C72 H82 0.930 . S
C73 C70 1.372 . S
C73 C71 1.390 . S
C73 H83 0.929 . S
C74 O54 1.255 . S
C74 O55 1.257 1_455 S
C75 Eu11 2.787 . S
C75 O50 1.252 . S
C75 O53 1.268 . S
C75 C68 1.506 . S
H76 C59 0.931 . S
H77 C60 0.931 . S
H78 C61 0.929 . S
H79 C62 0.930 . S
H80 C70 0.931 . S
H81 C71 0.931 . S
H82 C72 0.930 . S
H83 C73 0.929 . S
Eu84 N113 2.600 . S
Eu84 N119 2.562 . S
Eu84 O128 2.462 . S
Eu84 O129 2.373 . S
Eu84 O131 2.432 . S
Eu84 O132 2.291 . S
Eu84 O136 2.335 . S
Eu84 O139 2.372 . S
Eu84 C148 2.787 . S
C85 N86 1.365 . S
C85 C88 1.405 . S
C85 C92 1.448 . S
N86 C85 1.365 . S
N86 C89 1.319 . S
N86 Eu95 2.600 . S
C87 C89 1.397 . S
C87 C90 1.367 . S
C87 H107 0.931 . S
C88 C85 1.405 . S
C88 C90 1.403 . S
C88 C94 1.439 . S
C89 N86 1.319 . S
C89 C87 1.397 . S
C89 H100 0.930 . S
C90 C87 1.367 . S
C90 C88 1.403 . S
C90 H111 0.929 . S
C91 C92 1.430 . S
C91 C93 1.387 . S
C91 C97 1.404 . S
C92 C85 1.448 . S
C92 C91 1.430 . S
C92 N96 1.351 . S
C93 C91 1.387 . S
C93 C94 1.374 . S
C93 H108 0.931 . S
C94 C88 1.439 . S
C94 C93 1.374 . S
C94 H109 0.931 . S
Eu95 N86 2.600 . S
Eu95 N96 2.562 . S
Eu95 O130 2.335 1_565 S
Eu95 O133 2.372 1_565 S
Eu95 O134 2.462 . S
Eu95 O135 2.373 . S
Eu95 O137 2.432 . S
Eu95 O138 2.291 1_565 S
Eu95 C159 2.787 . S
N96 C92 1.351 . S
N96 Eu95 2.562 . S
N96 C98 1.325 . S
C97 C91 1.404 . S
C97 C99 1.366 . S
C97 H105 0.930 . S
C98 N96 1.325 . S
C98 C99 1.416 . S
C98 H104 0.929 . S
C99 C97 1.366 . S
C99 C98 1.416 . S
C99 H101 0.930 . S
H100 C89 0.930 . S
H101 C99 0.930 . S
H102 C117 0.930 . S
H103 C124 0.930 . S
H104 C98 0.929 . S
H105 C97 0.930 . S
H106 C120 0.929 . S
H107 C87 0.931 . S
H108 C93 0.931 . S
H109 C94 0.931 . S
H110 C115 0.931 . S
H111 C90 0.929 . S
H112 C123 0.930 . S
N113 Eu84 2.600 . S
N113 C114 1.365 . S
N113 C117 1.319 1_655 S
C114 N113 1.365 . S
C114 C116 1.405 1_655 S
C114 C122 1.448 . S
C115 H110 0.931 . S
C115 C117 1.397 . S
C115 C118 1.367 . S
C116 C114 1.405 1_455 S
C116 C118 1.403 . S
C116 C149 1.439 . S
C117 H102 0.930 . S
C117 N113 1.319 1_455 S
C117 C115 1.397 . S
C118 C115 1.367 . S
C118 C116 1.403 . S
C118 H125 0.929 . S
N119 Eu84 2.562 . S
N119 C120 1.325 . S
N119 C122 1.351 . S
C120 H106 0.929 . S
C120 N119 1.325 . S
C120 C124 1.416 . S
C121 C122 1.430 . S
C121 C123 1.404 . S
C121 C150 1.387 1_655 S
C122 C114 1.448 . S
C122 N119 1.351 . S
C122 C121 1.430 . S
C123 H112 0.930 . S
C123 C121 1.404 . S
C123 C124 1.366 . S
C124 H103 0.930 . S
C124 C120 1.416 . S
C124 C123 1.366 . S
H125 C118 0.929 . S
H126 C149 0.931 . S
H127 C150 0.931 . S
O128 Eu84 2.462 . S
O128 C148 1.252 . S
O129 Eu84 2.373 . S
O129 C140 1.249 . S
O130 Eu95 2.335 1_545 S
O130 C140 1.264 . S
O131 Eu84 2.432 . S
O131 C148 1.268 . S
O132 Eu84 2.291 . S
O132 C147 1.255 . S
O133 Eu95 2.372 1_545 S
O133 C147 1.257 . S
O134 Eu95 2.462 . S
O134 C159 1.252 . S
O135 Eu95 2.373 . S
O135 C151 1.249 1_565 S
O136 Eu84 2.335 . S
O136 C151 1.264 . S
O137 Eu95 2.432 . S
O137 C159 1.268 . S
O138 Eu95 2.291 1_545 S
O138 C158 1.255 . S
O139 Eu84 2.372 . S
O139 C158 1.257 . S
C140 O129 1.249 . S
C140 O130 1.264 . S
C141 C144 1.382 . S
C141 C146 1.390 . S
C141 C148 1.506 . S
C142 C143 1.398 . S
C142 C146 1.392 . S
C143 C142 1.398 . S
C143 C145 1.372 . S
C143 H160 0.931 . S
C144 C141 1.382 . S
C144 C145 1.390 . S
C144 H161 0.931 . S
C145 C143 1.372 . S
C145 C144 1.390 . S
C145 H162 0.929 . S
C146 C141 1.390 . S
C146 C142 1.392 . S
C146 H163 0.930 . S
C147 O132 1.255 . S
C147 O133 1.257 . S
C148 Eu84 2.787 . S
C148 O128 1.252 . S
C148 O131 1.268 . S
C148 C141 1.506 . S
C149 C116 1.439 . S
C149 H126 0.931 . S
C149 C150 1.374 . S
C150 C121 1.387 1_455 S
C150 H127 0.931 . S
C150 C149 1.374 . S
C151 O135 1.249 1_545 S
C151 O136 1.264 . S
C152 C155 1.382 . S
C152 C156 1.390 . S
C152 C159 1.506 . S
C153 C154 1.398 . S
C153 C156 1.392 . S
C154 C153 1.398 . S
C154 C157 1.372 . S
C154 H164 0.931 . S
C155 C152 1.382 . S
C155 C157 1.390 . S
C155 H165 0.931 . S
C156 C152 1.390 . S
C156 C153 1.392 . S
C156 H166 0.930 . S
C157 C154 1.372 . S
C157 C155 1.390 . S
C157 H167 0.929 . S
C158 O138 1.255 . S
C158 O139 1.257 . S
C159 Eu95 2.787 . S
C159 O134 1.252 . S
C159 O137 1.268 . S
C159 C152 1.506 . S
H160 C143 0.931 . S
H161 C144 0.931 . S
H162 C145 0.929 . S
H163 C146 0.930 . S
H164 C154 0.931 . S
H165 C155 0.931 . S
H166 C156 0.930 . S
H167 C157 0.929 . S
Eu168 N197 2.600 . S
Eu168 N203 2.562 . S
Eu168 O212 2.462 . S
Eu168 O213 2.373 . S
Eu168 O215 2.432 . S
Eu168 O216 2.291 . S
Eu168 O220 2.335 . S
Eu168 O223 2.372 . S
Eu168 C232 2.787 . S
C169 N170 1.365 . S
C169 C172 1.405 . S
C169 C176 1.448 . S
N170 C169 1.365 . S
N170 C173 1.319 . S
N170 Eu179 2.600 . S
C171 C173 1.397 . S
C171 C174 1.367 . S
C171 H191 0.931 . S
C172 C169 1.405 . S
C172 C174 1.403 . S
C172 C178 1.439 . S
C173 N170 1.319 . S
C173 C171 1.397 . S
C173 H184 0.930 . S
C174 C171 1.367 . S
C174 C172 1.403 . S
C174 H195 0.929 . S
C175 C176 1.430 . S
C175 C177 1.387 . S
C175 C181 1.404 . S
C176 C169 1.448 . S
C176 C175 1.430 . S
C176 N180 1.351 . S
C177 C175 1.387 . S
C177 C178 1.374 . S
C177 H192 0.931 . S
C178 C172 1.439 . S
C178 C177 1.374 . S
C178 H193 0.931 . S
Eu179 N170 2.600 . S
Eu179 N180 2.562 . S
Eu179 O214 2.335 . S
Eu179 O217 2.372 . S
Eu179 O218 2.462 . S
Eu179 O219 2.373 . S
Eu179 O221 2.432 . S
Eu179 O222 2.291 . S
Eu179 C243 2.787 . S
N180 C176 1.351 . S
N180 Eu179 2.562 . S
N180 C182 1.325 . S
C181 C175 1.404 . S
C181 C183 1.366 . S
C181 H189 0.930 . S
C182 N180 1.325 . S
C182 C183 1.416 . S
C182 H188 0.929 . S
C183 C181 1.366 . S
C183 C182 1.416 . S
C183 H185 0.930 . S
H184 C173 0.930 . S
H185 C183 0.930 . S
H186 C201 0.930 . S
H187 C208 0.930 . S
H188 C182 0.929 . S
H189 C181 0.930 . S
H190 C204 0.929 . S
H191 C171 0.931 . S
H192 C177 0.931 . S
H193 C178 0.931 . S
H194 C199 0.931 . S
H195 C174 0.929 . S
H196 C207 0.930 . S
N197 Eu168 2.600 . S
N197 C198 1.365 . S
N197 C201 1.319 . S
C198 N197 1.365 . S
C198 C200 1.405 . S
C198 C206 1.448 . S
C199 H194 0.931 . S
C199 C201 1.397 1_565 S
C199 C202 1.367 . S
C200 C198 1.405 . S
C200 C202 1.403 1_545 S
C200 C233 1.439 . S
C201 H186 0.930 . S
C201 N197 1.319 . S
C201 C199 1.397 1_545 S
C202 C199 1.367 . S
C202 C200 1.403 1_565 S
C202 H209 0.929 . S
N203 Eu168 2.562 . S
N203 C204 1.325 . S
N203 C206 1.351 . S
C204 H190 0.929 . S
C204 N203 1.325 . S
C204 C208 1.416 1_655 S
C205 C206 1.430 . S
C205 C207 1.404 1_655 S
C205 C234 1.387 . S
C206 C198 1.448 . S
C206 N203 1.351 . S
C206 C205 1.430 . S
C207 H196 0.930 . S
C207 C205 1.404 1_455 S
C207 C208 1.366 . S
C208 H187 0.930 . S
C208 C204 1.416 1_455 S
C208 C207 1.366 . S
H209 C202 0.929 . S
H210 C233 0.931 1_565 S
H211 C234 0.931 . S
O212 Eu168 2.462 . S
O212 C232 1.252 . S
O213 Eu168 2.373 . S
O213 C224 1.249 . S
O214 Eu179 2.335 . S
O214 C224 1.264 . S
O215 Eu168 2.432 . S
O215 C232 1.268 . S
O216 Eu168 2.291 . S
O216 C231 1.255 . S
O217 Eu179 2.372 . S
O217 C231 1.257 . S
O218 Eu179 2.462 . S
O218 C243 1.252 . S
O219 Eu179 2.373 . S
O219 C235 1.249 . S
O220 Eu168 2.335 . S
O220 C235 1.264 . S
O221 Eu179 2.432 . S
O221 C243 1.268 . S
O222 Eu179 2.291 . S
O222 C242 1.255 . S
O223 Eu168 2.372 . S
O223 C242 1.257 . S
C224 O213 1.249 . S
C224 O214 1.264 . S
C225 C228 1.382 . S
C225 C230 1.390 . S
C225 C232 1.506 . S
C226 C227 1.398 . S
C226 C230 1.392 . S
C227 C226 1.398 . S
C227 C229 1.372 . S
C227 H244 0.931 . S
C228 C225 1.382 . S
C228 C229 1.390 . S
C228 H245 0.931 . S
C229 C227 1.372 . S
C229 C228 1.390 . S
C229 H246 0.929 . S
C230 C225 1.390 . S
C230 C226 1.392 . S
C230 H247 0.930 . S
C231 O216 1.255 . S
C231 O217 1.257 . S
C232 Eu168 2.787 . S
C232 O212 1.252 . S
C232 O215 1.268 . S
C232 C225 1.506 . S
C233 C200 1.439 . S
C233 H210 0.931 1_545 S
C233 C234 1.374 . S
C234 C205 1.387 . S
C234 H211 0.931 . S
C234 C233 1.374 . S
C235 O219 1.249 . S
C235 O220 1.264 . S
C236 C239 1.382 . S
C236 C240 1.390 . S
C236 C243 1.506 . S
C237 C238 1.398 . S
C237 C240 1.392 . S
C238 C237 1.398 . S
C238 C241 1.372 . S
C238 H248 0.931 . S
C239 C236 1.382 . S
C239 C241 1.390 . S
C239 H249 0.931 . S
C240 C236 1.390 . S
C240 C237 1.392 . S
C240 H250 0.930 . S
C241 C238 1.372 . S
C241 C239 1.390 . S
C241 H251 0.929 . S
C242 O222 1.255 . S
C242 O223 1.257 . S
C243 Eu179 2.787 . S
C243 O218 1.252 . S
C243 O221 1.268 . S
C243 C236 1.506 . S
H244 C227 0.931 . S
H245 C228 0.931 . S
H246 C229 0.929 . S
H247 C230 0.930 . S
H248 C238 0.931 . S
H249 C239 0.931 . S
H250 C240 0.930 . S
H251 C241 0.929 . S
H252 C258 0.930 . S
H253 C262 0.930 . S
H254 C267 0.929 . S
H255 C265 0.929 . S
H256 C260 0.929 . S
H257 C266 0.929 . S
C258 H252 0.930 . S
C258 C259 1.367 . S
C258 C266 1.378 . S
C259 C258 1.367 . S
C259 C267 1.433 1_455 S
C260 H256 0.929 . S
C260 C262 1.378 1_565 S
C260 C264 1.350 . S
C261 C264 1.463 1_455 S
C261 C266 1.350 . S
C261 N269 1.427 1_455 S
C262 H253 0.930 . S
C262 C260 1.378 1_545 S
C262 C263 1.367 . S
C263 C262 1.367 . S
C263 C265 1.433 1_655 S
C264 C260 1.350 . S
C264 C261 1.463 1_655 S
C264 N268 1.427 1_665 S
C265 H255 0.929 . S
C265 C263 1.433 1_455 S
C265 N268 1.384 . S
C266 H257 0.929 . S
C266 C258 1.378 . S
C266 C261 1.350 . S
C267 H254 0.929 . S
C267 C259 1.433 1_655 S
C267 N269 1.384 . S
N268 C264 1.427 1_445 S
N268 C265 1.384 . S
N269 C261 1.427 1_655 S
N269 C267 1.384 . S
H270 C276 0.930 . S
H271 C280 0.930 . S
H272 C285 0.929 . S
H273 C283 0.929 . S
H274 C278 0.929 . S
H275 C284 0.929 . S
C276 H270 0.930 . S
C276 C277 1.367 . S
C276 C284 1.378 . S
C277 C276 1.367 . S
C277 C285 1.433 . S
C278 H274 0.929 . S
C278 C280 1.378 . S
C278 C282 1.350 . S
C279 C282 1.463 . S
C279 C284 1.350 . S
C279 N287 1.427 . S
C280 H271 0.930 . S
C280 C278 1.378 . S
C280 C281 1.367 1_455 S
C281 C280 1.367 1_655 S
C281 C283 1.433 . S
C282 C278 1.350 . S
C282 C279 1.463 . S
C282 N286 1.427 . S
C283 H273 0.929 . S
C283 C281 1.433 . S
C283 N286 1.384 1_655 S
C284 H275 0.929 . S
C284 C276 1.378 . S
C284 C279 1.350 . S
C285 H272 0.929 . S
C285 C277 1.433 . S
C285 N287 1.384 . S
N286 C282 1.427 . S
N286 C283 1.384 1_455 S
N287 C279 1.427 . S
N287 C285 1.384 . S
H288 C294 0.930 . S
H289 C298 0.930 . S
H290 C303 0.929 . S
H291 C301 0.929 . S
H292 C296 0.925 1_565 S
H293 C302 0.929 . S
C294 H288 0.930 . S
C294 C295 1.367 . S
C294 C302 1.378 1_655 S
C295 C294 1.367 . S
C295 C303 1.433 1_655 S
C296 H292 0.925 1_545 S
C296 C298 1.380 . S
C296 C300 1.351 1_545 S
C297 C300 1.463 . S
C297 C302 1.350 . S
C297 N305 1.427 . S
C298 H289 0.930 . S
C298 C296 1.380 . S
C298 C299 1.367 . S
C299 C298 1.367 . S
C299 C301 1.433 . S
C300 C296 1.351 1_565 S
C300 C297 1.463 . S
C300 N304 1.427 1_565 S
C301 H291 0.929 . S
C301 C299 1.433 . S
C301 N304 1.384 . S
C302 H293 0.929 . S
C302 C294 1.378 1_455 S
C302 C297 1.350 . S
C303 H290 0.929 . S
C303 C295 1.433 1_455 S
C303 N305 1.384 . S
N304 C300 1.427 1_545 S
N304 C301 1.384 . S
N305 C297 1.427 . S
N305 C303 1.384 . S
H306 C312 0.930 1_556 S
H307 C316 0.930 . S
H308 C321 0.929 . S
H309 C319 0.929 . S
H310 C314 0.929 . S
H311 C320 0.929 . S
C312 H306 0.930 1_554 S
C312 C313 1.367 1_554 S
C312 C320 1.378 . S
C313 C312 1.367 1_556 S
C313 C321 1.433 . S
C314 H310 0.929 . S
C314 C316 1.378 . S
C314 C318 1.350 . S
C315 C318 1.463 . S
C315 C320 1.350 . S
C315 N323 1.427 . S
C316 H307 0.930 . S
C316 C314 1.378 . S
C316 C317 1.367 . S
C317 C316 1.367 . S
C317 C319 1.433 . S
C318 C314 1.350 . S
C318 C315 1.463 . S
C318 N322 1.427 . S
C319 H309 0.929 . S
C319 C317 1.433 . S
C319 N322 1.384 . S
C320 H311 0.929 . S
C320 C312 1.378 . S
C320 C315 1.350 . S
C321 H308 0.929 . S
C321 C313 1.433 . S
C321 N323 1.384 1_556 S
N322 C318 1.427 . S
N322 C319 1.384 . S
N323 C315 1.427 . S
N323 C321 1.384 1_554 S
H324 C330 0.930 . S
H325 C334 0.930 . S
H326 C339 0.929 . S
H327 C337 0.929 . S
H328 C332 0.929 . S
H329 C338 0.929 . S
C330 H324 0.930 . S
C330 C331 1.367 . S
C330 C338 1.378 . S
C331 C330 1.367 . S
C331 C339 1.433 . S
C332 H328 0.929 . S
C332 C334 1.378 . S
C332 C336 1.350 . S
C333 C336 1.463 . S
C333 C338 1.350 . S
C333 N341 1.427 . S
C334 H325 0.930 . S
C334 C332 1.378 . S
C334 C335 1.367 . S
C335 C334 1.367 . S
C335 C337 1.433 . S
C336 C332 1.350 . S
C336 C333 1.463 . S
C336 N340 1.427 . S
C337 H327 0.929 . S
C337 C335 1.433 . S
C337 N340 1.384 . S
C338 H329 0.929 . S
C338 C330 1.378 . S
C338 C333 1.350 . S
C339 H326 0.929 . S
C339 C331 1.433 . S
C339 N341 1.384 . S
N340 C336 1.427 . S
N340 C337 1.384 . S
N341 C333 1.427 . S
N341 C339 1.384 . S
H342 C348 0.930 . S
H343 C352 0.930 . S
H344 C357 0.929 . S
H345 C355 0.929 . S
H346 C350 0.929 . S
H347 C356 0.929 . S
C348 H342 0.930 . S
C348 C349 1.367 . S
C348 C356 1.378 . S
C349 C348 1.367 . S
C349 C357 1.433 . S
C350 H346 0.929 . S
C350 C352 1.378 . S
C350 C354 1.350 . S
C351 C354 1.463 . S
C351 C356 1.350 . S
C351 N359 1.427 . S
C352 H343 0.930 . S
C352 C350 1.378 . S
C352 C353 1.367 . S
C353 C352 1.367 . S
C353 C355 1.433 . S
C354 C350 1.350 . S
C354 C351 1.463 . S
C354 N358 1.427 . S
C355 H345 0.929 . S
C355 C353 1.433 . S
C355 N358 1.384 . S
C356 H347 0.929 . S
C356 C348 1.378 . S
C356 C351 1.350 . S
C357 H344 0.929 . S
C357 C349 1.433 . S
C357 N359 1.384 . S
N358 C354 1.427 . S
N358 C355 1.384 . S
N359 C351 1.427 . S
N359 C357 1.384 . S
H360 C366 0.930 . S
H361 C370 0.935 . S
H362 C375 0.929 . S
H363 C373 0.929 . S
H364 C368 0.929 . S
H365 C374 0.929 . S
C366 H360 0.930 . S
C366 C367 1.367 . S
C366 C374 1.378 . S
C367 C366 1.367 . S
C367 C375 1.433 . S
C368 H364 0.929 . S
C368 C370 1.353 1_556 S
C368 C372 1.350 . S
C369 C372 1.463 . S
C369 C374 1.350 . S
C369 N377 1.427 . S
C370 H361 0.935 . S
C370 C368 1.353 1_554 S
C370 C371 1.388 . S
C371 C370 1.388 . S
C371 C373 1.433 . S
C372 C368 1.350 . S
C372 C369 1.463 . S
C372 N376 1.427 . S
C373 H363 0.929 . S
C373 C371 1.433 . S
C373 N376 1.384 1_554 S
C374 H365 0.929 . S
C374 C366 1.378 . S
C374 C369 1.350 . S
C375 H362 0.929 . S
C375 C367 1.433 . S
C375 N377 1.384 . S
N376 C372 1.427 . S
N376 C373 1.384 1_556 S
N377 C369 1.427 . S
N377 C375 1.384 . S
H378 C384 0.930 . S
H379 C388 0.930 . S
H380 C393 0.929 . S
H381 C391 0.929 . S
H382 C386 0.933 . S
H383 C392 0.929 . S
C384 H378 0.930 . S
C384 C385 1.367 . S
C384 C392 1.378 . S
C385 C384 1.367 . S
C385 C393 1.433 . S
C386 H382 0.933 . S
C386 C388 1.378 1_565 S
C386 C390 1.350 . S
C387 C390 1.463 . S
C387 C392 1.350 . S
C387 N395 1.427 . S
C388 H379 0.930 . S
C388 C386 1.378 1_545 S
C388 C389 1.367 1_545 S
C389 C388 1.367 1_565 S
C389 C391 1.433 . S
C390 C386 1.350 . S
C390 C387 1.463 . S
C390 N394 1.427 . S
C391 H381 0.929 . S
C391 C389 1.433 . S
C391 N394 1.384 . S
C392 H383 0.929 . S
C392 C384 1.378 . S
C392 C387 1.350 . S
C393 H380 0.929 . S
C393 C385 1.433 . S
C393 N395 1.384 . S
N394 C390 1.427 . S
N394 C391 1.384 . S
N395 C387 1.427 . S
N395 C393 1.384 . S
H396 C402 0.930 . S
H397 C406 0.930 . S
H398 C411 0.929 . S
H399 C409 0.929 . S
H400 C404 0.929 . S
H401 C410 0.929 . S
C402 H396 0.930 . S
C402 C403 1.367 . S
C402 C410 1.378 . S
C403 C402 1.367 . S
C403 C411 1.433 1_655 S
C404 H400 0.929 . S
C404 C406 1.378 . S
C404 C408 1.350 . S
C405 C408 1.463 . S
C405 C410 1.350 . S
C405 N413 1.427 1_655 S
C406 H397 0.930 . S
C406 C404 1.378 . S
C406 C407 1.367 . S
C407 C406 1.367 . S
C407 C409 1.433 . S
C408 C404 1.350 . S
C408 C405 1.463 . S
C408 N412 1.427 . S
C409 H399 0.929 . S
C409 C407 1.433 . S
C409 N412 1.384 . S
C410 H401 0.929 . S
C410 C402 1.378 . S
C410 C405 1.350 . S
C411 H398 0.929 . S
C411 C403 1.433 1_455 S
C411 N413 1.384 . S
N412 C408 1.427 . S
N412 C409 1.384 . S
N413 C405 1.427 1_455 S
N413 C411 1.384 . S
C259 C74 1.548 . S
C263 C63 1.548 . S
C277 C147 1.556 . S
C281 C158 1.556 . S
C295 C231 1.554 . S
C299 C242 1.554 . S
C313 C237 1.433 . S
C317 C67 1.571 . S
C331 C142 1.043 . S
C335 C56 1.405 . S
C349 C235 1.571 . S
C353 C153 1.440 . S
C367 C224 1.410 . S
C371 C58 1.055 . S
C385 C69 1.415 . S
C389 C151 1.559 1_565 S
C403 C226 1.016 . S
C407 C140 1.411 . S
