# Generated by pormake.
# Topology wjg, (4)-cn, num edge types: 1
# Building blocks:
#     Node 0, Type 0, BuildingBlock: AZAVOO_clean_sbu_0, # of connection points: 4
#     Node 1, Type 0, BuildingBlock: AZAVOO_clean_sbu_0, # of connection points: 4
#     Node 2, Type 0, BuildingBlock: AZAVOO_clean_sbu_0, # of connection points: 4
#     Node 3, Type 0, BuildingBlock: AZAVOO_clean_sbu_0, # of connection points: 4
#     Node 4, Type 0, BuildingBlock: AZAVOO_clean_sbu_0, # of connection points: 4
#     Node 5, Type 0, BuildingBlock: AZAVOO_clean_sbu_0, # of connection points: 4
#     Node 6, Type 0, BuildingBlock: AZAVOO_clean_sbu_0, # of connection points: 4
#     Node 7, Type 0, BuildingBlock: AZAVOO_clean_sbu_0, # of connection points: 4
#     Node 8, Type 0, BuildingBlock: AZAVOO_clean_sbu_0, # of connection points: 4
#     Node 9, Type 0, BuildingBlock: AZAVOO_clean_sbu_0, # of connection points: 4
#     Node 10, Type 0, BuildingBlock: AZAVOO_clean_sbu_0, # of connection points: 4
#     Node 11, Type 0, BuildingBlock: AZAVOO_clean_sbu_0, # of connection points: 4
#     Edge 12, Type (0, 0), BuildingBlock: AJUNOK_clean_linker_0, # of connection points: 2
#     Edge 13, Type (0, 0), BuildingBlock: AJUNOK_clean_linker_0, # of connection points: 2
#     Edge 14, Type (0, 0), BuildingBlock: AJUNOK_clean_linker_0, # of connection points: 2
#     Edge 15, Type (0, 0), BuildingBlock: AJUNOK_clean_linker_0, # of connection points: 2
#     Edge 16, Type (0, 0), BuildingBlock: AJUNOK_clean_linker_0, # of connection points: 2
#     Edge 17, Type (0, 0), BuildingBlock: AJUNOK_clean_linker_0, # of connection points: 2
#     Edge 18, Type (0, 0), BuildingBlock: AJUNOK_clean_linker_0, # of connection points: 2
#     Edge 19, Type (0, 0), BuildingBlock: AJUNOK_clean_linker_0, # of connection points: 2
#     Edge 20, Type (0, 0), BuildingBlock: AJUNOK_clean_linker_0, # of connection points: 2
#     Edge 21, Type (0, 0), BuildingBlock: AJUNOK_clean_linker_0, # of connection points: 2
#     Edge 22, Type (0, 0), BuildingBlock: AJUNOK_clean_linker_0, # of connection points: 2
#     Edge 23, Type (0, 0), BuildingBlock: AJUNOK_clean_linker_0, # of connection points: 2
#     Edge 24, Type (0, 0), BuildingBlock: AJUNOK_clean_linker_0, # of connection points: 2
#     Edge 25, Type (0, 0), BuildingBlock: AJUNOK_clean_linker_0, # of connection points: 2
#     Edge 26, Type (0, 0), BuildingBlock: AJUNOK_clean_linker_0, # of connection points: 2
#     Edge 27, Type (0, 0), BuildingBlock: AJUNOK_clean_linker_0, # of connection points: 2
#     Edge 28, Type (0, 0), BuildingBlock: AJUNOK_clean_linker_0, # of connection points: 2
#     Edge 29, Type (0, 0), BuildingBlock: AJUNOK_clean_linker_0, # of connection points: 2
#     Edge 30, Type (0, 0), BuildingBlock: AJUNOK_clean_linker_0, # of connection points: 2
#     Edge 31, Type (0, 0), BuildingBlock: AJUNOK_clean_linker_0, # of connection points: 2
#     Edge 32, Type (0, 0), BuildingBlock: AJUNOK_clean_linker_0, # of connection points: 2
#     Edge 33, Type (0, 0), BuildingBlock: AJUNOK_clean_linker_0, # of connection points: 2
#     Edge 34, Type (0, 0), BuildingBlock: AJUNOK_clean_linker_0, # of connection points: 2
#     Edge 35, Type (0, 0), BuildingBlock: AJUNOK_clean_linker_0, # of connection points: 2
# Relax obj value: 0.259
# Max RMSD: 0.122
# Mean RMSD: 0.122
data_MOF--net-wjg--node1-AZAVOO_clean_sbu_0--edge1-AJUNOK_clean_linker_0
_symmetry_space_group_name_H-M    P1
_symmetry_Int_Tables_number       1
_symmetry_cell_setting            triclinic
loop_
_symmetry_equiv_pos_as_xyz
'x, y, z'
_cell_length_a     26.213508
_cell_length_b     26.158879
_cell_length_c     28.869441
_cell_angle_alpha  89.729757
_cell_angle_beta   90.132991
_cell_angle_gamma 119.61176
loop_
_atom_site_label
_atom_site_type_symbol
_atom_site_fract_x
_atom_site_fract_y
_atom_site_fract_z
_atom_type_partial_charge
Mg0 Mg 0.16102 0.43484 0.3027 0.0
O1 O 0.20059 0.37115 0.30545 0.0
O2 O 0.2432 0.37852 0.37431 0.0
Mg3 Mg 0.27147 0.47306 0.39014 0.0
C4 C 0.22405 0.35267 0.33554 0.0
C5 C 0.06527 0.37499 0.22941 0.0
O6 O 0.03575 0.37882 0.26468 0.0
O7 O 0.24382 0.51922 0.27224 0.0
O8 O 0.28015 0.4771 0.31317 0.0
O9 O 0.10017 0.37468 0.35904 0.0
O10 O 0.18308 0.4569 0.37118 0.0
C11 C 0.28757 0.52371 0.29478 0.0
C12 C 0.13971 0.41052 0.38764 0.0
O13 O 0.12024 0.39563 0.23339 0.0
Mg14 Mg 0.72294 0.16075 0.63997 0.0
O15 O 0.82205 0.20138 0.61807 0.0
O16 O 0.87209 0.27814 0.66552 0.0
Mg17 Mg 0.8089 0.30564 0.69106 0.0
C18 C 0.86976 0.23947 0.63766 0.0
C19 C 0.69529 0.05083 0.57444 0.0
O20 O 0.70303 0.02681 0.61192 0.0
O21 O 0.69254 0.21951 0.60152 0.0
O22 O 0.77902 0.28871 0.61774 0.0
O23 O 0.7505 0.12296 0.69793 0.0
O24 O 0.7519 0.20815 0.70352 0.0
C25 C 0.72672 0.27393 0.60756 0.0
C26 C 0.76597 0.17108 0.72062 0.0
O27 O 0.69904 0.10106 0.57694 0.0
Mg28 Mg 0.59236 0.75804 -0.0191 0.0
O29 O 0.64629 0.85934 -0.00932 0.0
O30 O 0.61536 0.8791 0.05705 0.0
Mg31 Mg 0.5411 0.79728 0.08806 0.0
C32 C 0.6493 0.89538 0.022 0.0
C33 C 0.62823 0.71115 0.89851 0.0
O34 O 0.61071 0.67141 0.93162 0.0
O35 O 0.50915 0.76288 0.95754 0.0
O36 O 0.48672 0.78648 0.0263 0.0
O37 O 0.65497 0.74936 0.03327 0.0
O38 O 0.57255 0.74839 0.0488 0.0
C39 C 0.47675 0.7751 -0.01652 0.0
C40 C 0.61739 0.74677 0.06348 0.0
O41 O 0.62779 0.75881 0.90696 0.0
Mg42 Mg 0.85622 0.58719 0.31822 0.0
O43 O 0.79781 0.62909 0.31435 0.0
O44 O 0.74388 0.60288 0.37961 0.0
Mg45 Mg 0.76214 0.5403 0.42269 0.0
C46 C 0.76046 0.63125 0.34142 0.0
C47 C 0.93912 0.66244 0.23567 0.0
O48 O 0.96494 0.69911 0.27 0.0
O49 O 0.77423 0.49666 0.29791 0.0
O50 O 0.72489 0.47334 0.36529 0.0
O51 O 0.91813 0.66488 0.36423 0.0
O52 O 0.84583 0.57952 0.38808 0.0
C53 C 0.73078 0.46128 0.32363 0.0
C54 C 0.8854 0.63191 0.39757 0.0
O55 O 0.8911 0.61494 0.24349 0.0
Mg56 Mg 0.24932 0.83829 0.65026 0.0
O57 O 0.14578 0.77713 0.63919 0.0
O58 O 0.11902 0.70634 0.69293 0.0
Mg59 Mg 0.19873 0.71365 0.72715 0.0
C60 C 0.10614 0.73361 0.66278 0.0
C61 C 0.28884 0.94029 0.57161 0.0
O62 O 0.30495 0.97478 0.608 0.0
O63 O 0.28353 0.77393 0.6219 0.0
O64 O 0.2013 0.71034 0.65091 0.0
O65 O 0.21875 0.88366 0.70223 0.0
O66 O 0.23332 0.81042 0.72112 0.0
C67 C 0.24924 0.72084 0.6337 0.0
C68 C 0.21196 0.8438 0.7322 0.0
O69 O 0.2636 0.88463 0.57796 0.0
Mg70 Mg 0.39598 0.24182 -0.00136 0.0
O71 O 0.37248 0.15538 0.96376 0.0
O72 O 0.40922 0.11046 0.00765 0.0
Mg73 Mg 0.44006 0.1592 0.07694 0.0
C74 C 0.38279 0.11331 0.97136 0.0
C75 C 0.34147 0.28381 0.91808 0.0
O76 O 0.29916 0.26837 0.94856 0.0
O77 O 0.49439 0.27697 -0.01599 0.0
O78 O 0.51742 0.23177 0.03954 0.0
O79 O 0.30589 0.19437 0.03352 0.0
O80 O 0.38653 0.20011 0.06213 0.0
C81 C 0.5319 0.26935 0.00699 0.0
C82 C 0.33065 0.17773 0.06432 0.0
O83 O 0.38572 0.2785 0.92882 0.0
Mg84 Mg 0.57896 0.8413 0.32001 0.0
O85 O 0.62188 0.77861 0.32432 0.0
O86 O 0.57749 0.71097 0.26896 0.0
Mg87 Mg 0.49207 0.70748 0.26818 0.0
C88 C 0.61843 0.73689 0.29844 0.0
C89 C 0.64361 0.94193 0.39218 0.0
O90 O 0.63797 0.97217 0.35804 0.0
O91 O 0.49159 0.78786 0.36305 0.0
O92 O 0.51521 0.72444 0.34303 0.0
O93 O 0.63764 0.8744 0.25726 0.0
O94 O 0.54472 0.80473 0.25523 0.0
C95 C 0.47897 0.73464 0.36284 0.0
C96 C 0.59479 0.83221 0.2347 0.0
O97 O 0.62768 0.88814 0.38571 0.0
Mg98 Mg 0.71699 0.5794 0.64163 0.0
O99 O 0.81606 0.62171 0.66412 0.0
O100 O 0.85786 0.58905 0.61289 0.0
Mg101 Mg 0.78448 0.50205 0.59304 0.0
C102 C 0.86081 0.62701 0.6417 0.0
C103 C 0.6969 0.6643 0.71633 0.0
O104 O 0.71235 0.70377 0.68317 0.0
O105 O 0.67675 0.48639 0.67621 0.0
O106 O 0.76383 0.50029 0.66837 0.0
O107 O 0.75668 0.64752 0.58431 0.0
O108 O 0.74207 0.55728 0.57787 0.0
C109 C 0.71098 0.4652 0.67788 0.0
C110 C 0.76592 0.61019 0.56168 0.0
O111 O 0.69603 0.61603 0.70799 0.0
Mg112 Mg 0.13018 0.74883 0.97249 0.0
O113 O 0.20146 0.84421 0.95946 0.0
O114 O 0.23877 0.84777 0.88837 0.0
Mg115 Mg 0.19468 0.75548 0.85768 0.0
C116 C 0.23626 0.8723 0.92587 0.0
C117 C 0.06421 0.70871 0.05879 0.0
O118 O 0.04099 0.66972 0.02551 0.0
O119 O 0.20702 0.73038 -0.0134 0.0
O120 O 0.23866 0.73395 0.91392 0.0
O121 O 0.07011 0.77442 0.93375 0.0
O122 O 0.12312 0.73829 0.90356 0.0
C123 C 0.24178 0.72684 0.9571 0.0
C124 C 0.09236 0.76355 0.89771 0.0
O125 O 0.11125 0.7566 0.04956 0.0
Mg126 Mg 0.38812 0.12968 0.30075 0.0
O127 O 0.34415 0.18712 0.30658 0.0
O128 O 0.35536 0.23088 0.23744 0.0
Mg129 Mg 0.40906 0.2075 0.18888 0.0
C130 C 0.33501 0.21994 0.27866 0.0
C131 C 0.3518 0.04893 0.38595 0.0
O132 O 0.34178 0.01584 0.34923 0.0
O133 O 0.48145 0.21443 0.30732 0.0
O134 O 0.48643 0.2537 0.23737 0.0
O135 O 0.30264 0.05978 0.26815 0.0
O136 O 0.37831 0.12742 0.22912 0.0
C137 C 0.50896 0.25503 0.27678 0.0
C138 C 0.32489 0.08587 0.22926 0.0
O139 O 0.37403 0.1043 0.37945 0.0
Mg140 Mg 0.24053 0.37095 0.65126 0.0
O141 O 0.14302 0.30031 0.66339 0.0
O142 O 0.11609 0.36717 0.66212 0.0
Mg143 Mg 0.12387 0.39734 0.58846 0.0
C144 C 0.10251 0.31359 0.66568 0.0
C145 C 0.30795 0.35345 0.73286 0.0
O146 O 0.33134 0.34228 0.69684 0.0
O147 O 0.26202 0.47148 0.65237 0.0
O148 O 0.19728 0.48467 0.61007 0.0
O149 O 0.25975 0.35835 0.57059 0.0
O150 O 0.18963 0.36902 0.58999 0.0
C151 C 0.2444 0.50482 0.63357 0.0
C152 C 0.21505 0.36029 0.55784 0.0
O153 O 0.26999 0.36954 0.7259 0.0
Mg154 Mg 0.86518 0.28282 0.97074 0.0
O155 O 0.81241 0.18555 -0.00645 0.0
O156 O 0.74729 0.13603 0.9371 0.0
Mg157 Mg 0.74525 0.19799 0.88248 0.0
C158 C 0.77306 0.13786 0.97516 0.0
C159 C 0.94849 0.28953 0.05237 0.0
O160 O 0.95875 0.25603 0.02456 0.0
O161 O 0.79559 0.30622 -0.00058 0.0
O162 O 0.74919 0.25389 0.93976 0.0
O163 O 0.91666 0.25622 0.92134 0.0
O164 O 0.83588 0.25739 0.90222 0.0
C165 C 0.75124 0.28605 0.97268 0.0
C166 C 0.87582 0.2455 0.89145 0.0
O167 O 0.9129 0.30666 0.03974 0.0
C168 C 0.33395 0.63391 0.30848 0.0
C169 C 0.33169 0.5797 0.31701 0.0
C170 C 0.3777 0.68626 0.32916 0.0
C171 C 0.41845 0.68522 0.3606 0.0
H172 H 0.30389 0.63642 0.284 0.0
H173 H 0.38261 0.72791 0.31761 0.0
S174 S 0.43069 0.55585 0.39647 0.0
N175 N 0.37738 0.53049 0.35797 0.0
N176 N 0.45023 0.62571 0.40262 0.0
C177 C 0.4124 0.63066 0.37292 0.0
C178 C 0.37225 0.57894 0.34908 0.0
C179 C 0.70463 0.31973 0.67473 0.0
C180 C 0.70216 0.30962 0.6267 0.0
C181 C 0.69972 0.36693 0.69263 0.0
C182 C 0.68943 0.40385 0.6633 0.0
H183 H 0.71442 0.29361 0.69841 0.0
H184 H 0.7087 0.37739 0.72906 0.0
S185 S 0.66647 0.3877 0.53626 0.0
N186 N 0.68108 0.33514 0.55098 0.0
N187 N 0.66695 0.42087 0.58497 0.0
C188 C 0.67885 0.38905 0.61607 0.0
C189 C 0.68632 0.34252 0.59762 0.0
C190 C 0.37611 0.71089 0.95375 0.0
C191 C 0.41961 0.76669 0.96855 0.0
C192 C 0.31661 0.69542 0.95437 0.0
C193 C 0.29875 0.7346 0.97113 0.0
H194 H 0.38789 0.67831 0.94339 0.0
H195 H 0.28436 0.65301 0.94083 0.0
S196 S 0.39622 0.88789 0.00932 0.0
N197 N 0.44124 0.8626 -0.00283 0.0
N198 N 0.32952 0.83303 -0.00099 0.0
C199 C 0.34198 0.79075 -0.0148 0.0
C200 C 0.40232 0.80696 -0.01646 0.0
C201 C 0.60236 0.30607 0.32371 0.0
C202 C 0.56849 0.30643 0.28603 0.0
C203 C 0.65746 0.35505 0.33336 0.0
C204 C 0.68137 0.40614 0.30547 0.0
H205 H 0.58578 0.2682 0.34651 0.0
H206 H 0.68075 0.3538 0.36402 0.0
S207 S 0.61108 0.43106 0.2032 0.0
N208 N 0.56378 0.36378 0.2206 0.0
N209 N 0.66726 0.45458 0.23907 0.0
C210 C 0.64911 0.40673 0.26703 0.0
C211 C 0.59274 0.3573 0.25731 0.0
C212 C 0.23945 0.63357 0.67674 0.0
C213 C 0.26768 0.67569 0.6412 0.0
C214 C 0.24158 0.58136 0.67888 0.0
C215 C 0.27103 0.56782 0.64507 0.0
H216 H 0.21101 0.63796 0.70134 0.0
H217 H 0.2138 0.54822 0.70391 0.0
S218 S 0.36402 0.66778 0.55128 0.0
N219 N 0.33536 0.70449 0.57639 0.0
N220 N 0.33852 0.60495 0.57997 0.0
C221 C 0.30524 0.61197 0.61251 0.0
C222 C 0.30374 0.66618 0.61064 0.0
C223 C 0.65502 0.2703 0.94504 0.0
C224 C 0.70083 0.29621 0.97797 0.0
C225 C 0.60185 0.26925 0.95141 0.0
C226 C 0.59241 0.29419 -0.00914 0.0
H227 H 0.65847 0.24717 0.91523 0.0
H228 H 0.56611 0.24369 0.92769 0.0
S229 S 0.70106 0.37867 0.08197 0.0
N230 N 0.73615 0.35622 0.04734 0.0
N231 N 0.63481 0.35318 0.05963 0.0
C232 C 0.63933 0.32537 0.02158 0.0
C233 C 0.69399 0.32673 0.01507 0.0
C234 C 0.26906 0.29013 0.35451 0.0
C235 C 0.24033 0.30789 0.32217 0.0
C236 C 0.29745 0.2593 0.3406 0.0
C237 C 0.29857 0.24551 0.29382 0.0
H238 H 0.27229 0.30261 0.39058 0.0
H239 H 0.32117 0.24893 0.36631 0.0
S240 S 0.21959 0.27051 0.19708 0.0
N241 N 0.20677 0.30057 0.24248 0.0
N242 N 0.26101 0.24376 0.21631 0.0
C243 C 0.26589 0.25852 0.26182 0.0
C244 C 0.23633 0.2892 0.27604 0.0
C245 C 0.9419 0.22527 0.68173 0.0
C246 C 0.92184 0.23214 0.63805 0.0
C247 C 0.0013 0.24455 0.68955 0.0
C248 C 0.04196 0.26949 0.65353 0.0
H249 H 0.91275 0.21134 0.71131 0.0
H250 H 0.01616 0.24578 0.72481 0.0
S251 S 0.00817 0.27789 0.52977 0.0
N252 N 0.9445 0.25325 0.55648 0.0
N253 N 0.05597 0.28506 0.57025 0.0
C254 C 0.02074 0.26674 0.60815 0.0
C255 C 0.96038 0.24888 0.60049 0.0
C256 C 0.70919 0.05946 0.02942 0.0
C257 C 0.7556 0.08147 -0.00223 0.0
C258 C 0.67734 -0.00073 0.03919 0.0
C259 C 0.69014 0.95912 0.01668 0.0
H260 H 0.69468 0.08821 0.04404 0.0
H261 H 0.63993 0.98388 0.06214 0.0
S262 S 0.81741 -0.0019 0.93982 0.0
N263 N 0.82091 0.06153 0.95148 0.0
N264 N 0.7592 0.94752 0.96775 0.0
C265 C 0.74019 0.98165 -0.01161 0.0
C266 C 0.77344 0.04321 0.97946 0.0
C267 C 0.70931 0.74271 0.33252 0.0
C268 C 0.65835 0.71267 0.30539 0.0
C269 C 0.74443 0.71739 0.34237 0.0
C270 C 0.7294 0.66143 0.32562 0.0
H271 H 0.72158 0.78545 0.34686 0.0
H272 H 0.78287 0.74117 0.36379 0.0
S273 S 0.60284 0.56497 0.25194 0.0
N274 N 0.59653 0.62393 0.26038 0.0
N275 N 0.66277 0.57738 0.27995 0.0
C276 C 0.68021 0.63178 0.29739 0.0
C277 C 0.64456 0.65719 0.28698 0.0
C278 C 0.01931 0.72924 0.62138 0.0
C279 C 0.04315 0.7166 0.66045 0.0
C280 C 0.9584 0.70607 0.61761 0.0
C281 C 0.92022 0.67186 0.65355 0.0
H282 H 0.04711 0.75334 0.59238 0.0
H283 H 0.94058 0.71089 0.585 0.0
S284 S 0.95983 0.63271 0.76533 0.0
N285 N 0.02246 0.67063 0.73741 0.0
N286 N 0.90966 0.63215 0.73061 0.0
C287 C 0.9437 0.66456 0.69446 0.0
C288 C 0.00484 0.68543 0.69776 0.0
C289 C 0.28551 0.02843 0.95955 0.0
C290 C 0.3454 0.05755 0.94815 0.0
C291 C 0.25022 0.96844 0.95135 0.0
C292 C 0.27325 0.93621 0.92994 0.0
H293 H 0.26683 0.05117 0.97821 0.0
H294 H 0.20493 0.94687 0.96278 0.0
S295 S 0.42504 -0.00528 0.88643 0.0
N296 N 0.42521 0.05187 0.9108 0.0
N297 N 0.35755 0.93903 0.89222 0.0
C298 C 0.33177 0.96597 0.91453 0.0
C299 C 0.36832 0.02684 0.92447 0.0
C300 C 0.95571 0.33092 0.13134 0.0
C301 C 0.97803 0.30808 0.09795 0.0
C302 C 0.98351 0.3511 0.17412 0.0
C303 C 0.0353 0.35015 0.18498 0.0
H304 H 0.91642 0.33352 0.12442 0.0
H305 H 0.96492 0.36889 0.1984 0.0
S306 S 0.11027 0.29177 0.11103 0.0
N307 N 0.05381 0.28323 0.07969 0.0
N308 N 0.1065 0.32198 0.16006 0.0
C309 C 0.05763 0.32641 0.15244 0.0
C310 C 0.02886 0.3051 0.10897 0.0
C311 C 0.69688 0.05543 0.48801 0.0
C312 C 0.68466 0.02153 0.52873 0.0
C313 C 0.68543 0.02945 0.44416 0.0
C314 C 0.66109 0.96836 0.43902 0.0
H315 H 0.71523 0.10266 0.48992 0.0
H316 H 0.69497 0.05758 0.41403 0.0
S317 S 0.62111 0.8596 0.53475 0.0
N318 N 0.64747 0.92356 0.5612 0.0
N319 N 0.62567 0.87443 0.47876 0.0
C320 C 0.6498 0.93389 0.47946 0.0
C321 C 0.66162 0.96052 0.52427 0.0
C322 C 0.66509 0.7407 0.81629 0.0
C323 C 0.64649 0.69903 0.85249 0.0
C324 C 0.68142 0.72927 0.77268 0.0
C325 C 0.67991 0.67563 0.7632 0.0
H326 H 0.66693 0.78255 0.82153 0.0
H327 H 0.69521 0.76291 0.74615 0.0
S328 S 0.63468 0.55139 0.8461 0.0
N329 N 0.62788 0.60154 0.87559 0.0
N330 N 0.65823 0.58037 0.79434 0.0
C331 C 0.66159 0.63364 0.79921 0.0
C332 C 0.64502 0.64524 0.84353 0.0
C333 C 0.04605 0.74189 0.13621 0.0
C334 C 0.03353 0.69649 0.10447 0.0
C335 C 0.01474 0.73072 0.17813 0.0
C336 C 0.96942 0.67377 0.18995 0.0
H337 H 0.07978 0.78651 0.12843 0.0
H338 H 0.02607 0.76716 0.20139 0.0
S339 S 0.92249 0.53857 0.12068 0.0
N340 N 0.97455 0.59145 0.08936 0.0
N341 N 0.91594 0.57107 0.1673 0.0
C342 C 0.95704 0.62796 0.15879 0.0
C343 C 0.98903 0.63914 0.11639 0.0
C344 C 0.33968 0.05383 0.47279 0.0
C345 C 0.33586 0.02087 0.43317 0.0
C346 C 0.32387 0.02741 0.51707 0.0
C347 C 0.30327 0.96674 0.52385 0.0
H348 H 0.35486 0.10044 0.46967 0.0
H349 H 0.32785 0.055 0.54627 0.0
S350 S 0.28666 0.86071 0.43197 0.0
N351 N 0.31087 0.92382 0.40429 0.0
N352 N 0.28121 0.87492 0.48677 0.0
C353 C 0.29934 0.93336 0.48456 0.0
C354 C 0.31561 0.96016 0.43958 0.0
C355 C 0.28897 0.31455 0.86121 0.0
C356 C 0.33645 0.30532 0.87126 0.0
C357 C 0.2813 0.33211 0.81693 0.0
C358 C 0.32047 0.34073 0.78056 0.0
H359 H 0.25682 0.30746 0.88761 0.0
H360 H 0.2433 0.33732 0.8109 0.0
S361 S 0.45433 0.3265 0.78901 0.0
N362 N 0.42513 0.30927 0.84129 0.0
N363 N 0.41042 0.34183 0.75822 0.0
C364 C 0.36905 0.33326 0.79034 0.0
C365 C 0.37712 0.31571 0.83556 0.0
C366 C 0.13552 0.33614 0.44486 0.0
C367 C 0.14861 0.39395 0.43438 0.0
C368 C 0.16121 0.32478 0.48357 0.0
C369 C 0.2026 0.37123 0.51093 0.0
H370 H 0.10713 0.30013 0.42239 0.0
H371 H 0.14812 0.27969 0.49254 0.0
S372 S 0.24948 0.52908 0.49881 0.0
N373 N 0.20064 0.4967 0.45748 0.0
N374 N 0.25483 0.47598 0.52539 0.0
C375 C 0.21576 0.42861 0.50056 0.0
C376 C 0.18668 0.43966 0.4639 0.0
C377 C 0.8821 0.26201 0.80945 0.0
C378 C 0.87174 0.22163 0.84507 0.0
C379 C 0.84775 0.24519 0.76954 0.0
C380 C 0.80469 0.18642 0.76164 0.0
H381 H 0.91113 0.30859 0.81524 0.0
H382 H 0.85381 0.2797 0.74623 0.0
S383 S 0.76585 0.06163 0.84164 0.0
N384 N 0.81806 0.11929 0.86887 0.0
N385 N 0.75727 0.08641 0.79118 0.0
C386 C 0.79823 0.14422 0.79473 0.0
C387 C 0.83141 0.16201 0.83676 0.0
C388 C 0.66181 0.8299 0.1725 0.0
C389 C 0.60547 0.80625 0.19252 0.0
C390 C 0.67102 0.80435 0.13267 0.0
C391 C 0.62521 0.75209 0.11405 0.0
H392 H 0.69799 0.87015 0.18588 0.0
H393 H 0.71212 0.82833 0.1141 0.0
S394 S 0.47132 0.67148 0.15307 0.0
N395 N 0.50273 0.73096 0.18533 0.0
N396 N 0.52518 0.67299 0.12273 0.0
C397 C 0.57204 0.72338 0.13861 0.0
C398 C 0.56012 0.75386 0.17367 0.0
C399 C 0.87752 0.60952 0.47847 0.0
C400 C 0.88458 0.65134 0.44506 0.0
C401 C 0.83797 0.59598 0.51457 0.0
C402 C 0.81022 0.62914 0.52366 0.0
H403 H 0.89414 0.57956 0.472 0.0
H404 H 0.82745 0.55678 0.53332 0.0
S405 S 0.83118 0.75818 0.45511 0.0
N406 N 0.86906 0.73332 0.42652 0.0
N407 N 0.80328 0.71512 0.50094 0.0
C408 C 0.82518 0.67821 0.49494 0.0
C409 C 0.86141 0.68851 0.45481 0.0
C410 C 0.092 0.74793 0.81697 0.0
C411 C 0.09408 0.78658 0.85082 0.0
C412 C 0.13334 0.76772 0.78183 0.0
C413 C 0.16946 0.82736 0.77146 0.0
H414 H 0.06872 0.70099 0.82399 0.0
H415 H 0.13988 0.73481 0.76647 0.0
S416 S 0.17721 0.94927 0.84152 0.0
N417 N 0.13029 0.88925 0.87002 0.0
N418 N 0.19658 0.92687 0.79464 0.0
C419 C 0.16403 0.86775 0.80026 0.0
C420 C 0.12748 0.84729 0.84101 0.0
C421 C 0.27034 0.12087 0.18192 0.0
C422 C 0.28967 0.0797 0.18782 0.0
C423 C 0.2758 0.14847 0.13879 0.0
C424 C 0.29766 0.13296 0.10024 0.0
H425 H 0.25917 0.13782 0.21197 0.0
H426 H 0.26946 0.18632 0.13698 0.0
S427 S 0.32773 0.00883 0.09409 0.0
N428 N 0.31474 0.01302 0.1495 0.0
N429 N 0.31897 0.06017 0.06778 0.0
C430 C 0.3043 0.08299 0.10403 0.0
C431 C 0.30108 0.05681 0.14807 0.0
loop_
_geom_bond_atom_site_label_1
_geom_bond_atom_site_label_2
_geom_bond_distance
_geom_bond_site_symmetry_2
_ccdc_geom_bond_type
Mg0 O1 2.028 . S
Mg0 O7 1.986 . S
Mg0 O9 2.114 . S
Mg0 O10 2.251 . S
Mg0 O13 2.010 . S
O1 Mg0 2.028 . S
O1 C4 1.250 . S
O2 Mg3 2.028 . S
O2 C4 1.248 . S
Mg3 O2 2.028 . S
Mg3 O8 2.032 . S
Mg3 O10 2.079 . S
C4 O1 1.250 . S
C4 O2 1.248 . S
C5 O6 1.264 . S
C5 O13 1.249 . S
O6 C5 1.264 . S
O7 Mg0 1.986 . S
O7 C11 1.246 . S
O8 Mg3 2.032 . S
O8 C11 1.259 . S
O9 Mg0 2.114 . S
O9 C12 1.252 . S
O10 Mg0 2.251 . S
O10 Mg3 2.079 . S
O10 C12 1.273 . S
C11 O7 1.246 . S
C11 O8 1.259 . S
C12 O9 1.252 . S
C12 O10 1.273 . S
O13 Mg0 2.010 . S
O13 C5 1.249 . S
Mg14 O15 2.028 . S
Mg14 O21 1.986 . S
Mg14 O23 2.114 . S
Mg14 O24 2.251 . S
Mg14 O27 2.010 . S
O15 Mg14 2.028 . S
O15 C18 1.250 . S
O16 Mg17 2.028 . S
O16 C18 1.248 . S
Mg17 O16 2.028 . S
Mg17 O22 2.032 . S
Mg17 O24 2.079 . S
C18 O15 1.250 . S
C18 O16 1.248 . S
C19 O20 1.264 . S
C19 O27 1.249 . S
O20 C19 1.264 . S
O21 Mg14 1.986 . S
O21 C25 1.246 . S
O22 Mg17 2.032 . S
O22 C25 1.259 . S
O23 Mg14 2.114 . S
O23 C26 1.252 . S
O24 Mg14 2.251 . S
O24 Mg17 2.079 . S
O24 C26 1.273 . S
C25 O21 1.246 . S
C25 O22 1.259 . S
C26 O23 1.252 . S
C26 O24 1.273 . S
O27 Mg14 2.010 . S
O27 C19 1.249 . S
Mg28 O29 2.028 1_554 S
Mg28 O35 1.986 1_554 S
Mg28 O37 2.114 . S
Mg28 O38 2.251 . S
Mg28 O41 2.010 1_554 S
O29 Mg28 2.028 1_556 S
O29 C32 1.242 1_556 S
O30 Mg31 2.028 . S
O30 C32 1.265 . S
Mg31 O30 2.028 . S
Mg31 O36 2.032 . S
Mg31 O38 2.079 . S
C32 O29 1.242 1_554 S
C32 O30 1.265 . S
C33 O34 1.264 . S
C33 O41 1.249 . S
O34 C33 1.264 . S
O35 Mg28 1.986 1_556 S
O35 C39 1.246 . S
O36 Mg31 2.032 . S
O36 C39 1.259 1_554 S
O37 Mg28 2.114 . S
O37 C40 1.252 . S
O38 Mg28 2.251 . S
O38 Mg31 2.079 . S
O38 C40 1.273 . S
C39 O35 1.246 . S
C39 O36 1.259 1_556 S
C40 O37 1.252 . S
C40 O38 1.273 . S
O41 Mg28 2.010 1_556 S
O41 C33 1.249 . S
Mg42 O43 2.028 . S
Mg42 O49 1.986 . S
Mg42 O51 2.114 . S
Mg42 O52 2.251 . S
Mg42 O55 2.010 . S
O43 Mg42 2.028 . S
O43 C46 1.250 . S
O44 Mg45 2.028 . S
O44 C46 1.248 . S
Mg45 O44 2.028 . S
Mg45 O50 2.032 . S
Mg45 O52 2.079 . S
C46 O43 1.250 . S
C46 O44 1.248 . S
C47 O48 1.264 . S
C47 O55 1.249 . S
O48 C47 1.264 . S
O49 Mg42 1.986 . S
O49 C53 1.246 . S
O50 Mg45 2.032 . S
O50 C53 1.259 . S
O51 Mg42 2.114 . S
O51 C54 1.252 . S
O52 Mg42 2.251 . S
O52 Mg45 2.079 . S
O52 C54 1.273 . S
C53 O49 1.246 . S
C53 O50 1.259 . S
C54 O51 1.252 . S
C54 O52 1.273 . S
O55 Mg42 2.010 . S
O55 C47 1.249 . S
Mg56 O57 2.028 . S
Mg56 O63 1.986 . S
Mg56 O65 2.114 . S
Mg56 O66 2.251 . S
Mg56 O69 2.010 . S
O57 Mg56 2.028 . S
O57 C60 1.250 . S
O58 Mg59 2.028 . S
O58 C60 1.248 . S
Mg59 O58 2.028 . S
Mg59 O64 2.032 . S
Mg59 O66 2.079 . S
C60 O57 1.250 . S
C60 O58 1.248 . S
C61 O62 1.264 . S
C61 O69 1.249 . S
O62 C61 1.264 . S
O63 Mg56 1.986 . S
O63 C67 1.246 . S
O64 Mg59 2.032 . S
O64 C67 1.259 . S
O65 Mg56 2.114 . S
O65 C68 1.252 . S
O66 Mg56 2.251 . S
O66 Mg59 2.079 . S
O66 C68 1.273 . S
C67 O63 1.246 . S
C67 O64 1.259 . S
C68 O65 1.252 . S
C68 O66 1.273 . S
O69 Mg56 2.010 . S
O69 C61 1.249 . S
Mg70 O71 2.028 1_554 S
Mg70 O77 1.986 1_554 S
Mg70 O79 2.114 . S
Mg70 O80 2.251 . S
Mg70 O83 2.010 1_554 S
O71 Mg70 2.028 1_556 S
O71 C74 1.242 1_556 S
O72 Mg73 2.028 . S
O72 C74 1.265 . S
Mg73 O72 2.028 . S
Mg73 O78 2.032 . S
Mg73 O80 2.079 . S
C74 O71 1.242 1_554 S
C74 O72 1.265 . S
C75 O76 1.264 . S
C75 O83 1.249 . S
O76 C75 1.264 . S
O77 Mg70 1.986 1_556 S
O77 C81 1.246 . S
O78 Mg73 2.032 . S
O78 C81 1.259 1_554 S
O79 Mg70 2.114 . S
O79 C82 1.252 . S
O80 Mg70 2.251 . S
O80 Mg73 2.079 . S
O80 C82 1.273 . S
C81 O77 1.246 . S
C81 O78 1.259 1_556 S
C82 O79 1.252 . S
C82 O80 1.273 . S
O83 Mg70 2.010 1_556 S
O83 C75 1.249 . S
Mg84 O85 2.028 . S
Mg84 O91 1.986 . S
Mg84 O93 2.114 . S
Mg84 O94 2.251 . S
Mg84 O97 2.010 . S
O85 Mg84 2.028 . S
O85 C88 1.250 . S
O86 Mg87 2.028 . S
O86 C88 1.248 . S
Mg87 O86 2.028 . S
Mg87 O92 2.032 . S
Mg87 O94 2.079 . S
C88 O85 1.250 . S
C88 O86 1.248 . S
C89 O90 1.264 . S
C89 O97 1.249 . S
O90 C89 1.264 . S
O91 Mg84 1.986 . S
O91 C95 1.246 . S
O92 Mg87 2.032 . S
O92 C95 1.259 . S
O93 Mg84 2.114 . S
O93 C96 1.252 . S
O94 Mg84 2.251 . S
O94 Mg87 2.079 . S
O94 C96 1.273 . S
C95 O91 1.246 . S
C95 O92 1.259 . S
C96 O93 1.252 . S
C96 O94 1.273 . S
O97 Mg84 2.010 . S
O97 C89 1.249 . S
Mg98 O99 2.028 . S
Mg98 O105 1.986 . S
Mg98 O107 2.114 . S
Mg98 O108 2.251 . S
Mg98 O111 2.010 . S
O99 Mg98 2.028 . S
O99 C102 1.250 . S
O100 Mg101 2.028 . S
O100 C102 1.248 . S
Mg101 O100 2.028 . S
Mg101 O106 2.032 . S
Mg101 O108 2.079 . S
C102 O99 1.250 . S
C102 O100 1.248 . S
C103 O104 1.264 . S
C103 O111 1.249 . S
O104 C103 1.264 . S
O105 Mg98 1.986 . S
O105 C109 1.246 . S
O106 Mg101 2.032 . S
O106 C109 1.259 . S
O107 Mg98 2.114 . S
O107 C110 1.252 . S
O108 Mg98 2.251 . S
O108 Mg101 2.079 . S
O108 C110 1.273 . S
C109 O105 1.246 . S
C109 O106 1.259 . S
C110 O107 1.252 . S
C110 O108 1.273 . S
O111 Mg98 2.010 . S
O111 C103 1.249 . S
Mg112 O113 2.028 1_556 S
Mg112 O119 1.986 1_556 S
Mg112 O121 2.114 . S
Mg112 O122 2.251 . S
Mg112 O125 2.010 1_556 S
O113 Mg112 2.028 1_554 S
O113 C116 1.250 1_554 S
O114 Mg115 2.028 . S
O114 C116 1.248 . S
Mg115 O114 2.028 . S
Mg115 O120 2.032 . S
Mg115 O122 2.079 . S
C116 O113 1.250 1_556 S
C116 O114 1.248 . S
C117 O118 1.264 . S
C117 O125 1.249 . S
O118 C117 1.264 . S
O119 Mg112 1.986 1_554 S
O119 C123 1.246 . S
O120 Mg115 2.032 . S
O120 C123 1.259 1_556 S
O121 Mg112 2.114 . S
O121 C124 1.252 . S
O122 Mg112 2.251 . S
O122 Mg115 2.079 . S
O122 C124 1.273 . S
C123 O119 1.246 . S
C123 O120 1.259 1_554 S
C124 O121 1.252 . S
C124 O122 1.273 . S
O125 Mg112 2.010 1_554 S
O125 C117 1.249 . S
Mg126 O127 2.028 . S
Mg126 O133 1.986 . S
Mg126 O135 2.114 . S
Mg126 O136 2.251 . S
Mg126 O139 2.010 . S
O127 Mg126 2.028 . S
O127 C130 1.250 . S
O128 Mg129 2.028 . S
O128 C130 1.248 . S
Mg129 O128 2.028 . S
Mg129 O134 2.032 . S
Mg129 O136 2.079 . S
C130 O127 1.250 . S
C130 O128 1.248 . S
C131 O132 1.264 . S
C131 O139 1.249 . S
O132 C131 1.264 . S
O133 Mg126 1.986 . S
O133 C137 1.246 . S
O134 Mg129 2.032 . S
O134 C137 1.259 . S
O135 Mg126 2.114 . S
O135 C138 1.252 . S
O136 Mg126 2.251 . S
O136 Mg129 2.079 . S
O136 C138 1.273 . S
C137 O133 1.246 . S
C137 O134 1.259 . S
C138 O135 1.252 . S
C138 O136 1.273 . S
O139 Mg126 2.010 . S
O139 C131 1.249 . S
Mg140 O141 2.028 . S
Mg140 O147 1.986 . S
Mg140 O149 2.114 . S
Mg140 O150 2.251 . S
Mg140 O153 2.010 . S
O141 Mg140 2.028 . S
O141 C144 1.250 . S
O142 Mg143 2.028 . S
O142 C144 1.248 . S
Mg143 O142 2.028 . S
Mg143 O148 2.032 . S
Mg143 O150 2.079 . S
C144 O141 1.250 . S
C144 O142 1.248 . S
C145 O146 1.264 . S
C145 O153 1.249 . S
O146 C145 1.264 . S
O147 Mg140 1.986 . S
O147 C151 1.246 . S
O148 Mg143 2.032 . S
O148 C151 1.259 . S
O149 Mg140 2.114 . S
O149 C152 1.252 . S
O150 Mg140 2.251 . S
O150 Mg143 2.079 . S
O150 C152 1.273 . S
C151 O147 1.246 . S
C151 O148 1.259 . S
C152 O149 1.252 . S
C152 O150 1.273 . S
O153 Mg140 2.010 . S
O153 C145 1.249 . S
Mg154 O155 2.028 1_556 S
Mg154 O161 1.986 1_556 S
Mg154 O163 2.114 . S
Mg154 O164 2.251 . S
Mg154 O167 2.010 1_556 S
O155 Mg154 2.028 1_554 S
O155 C158 1.250 1_554 S
O156 Mg157 2.028 . S
O156 C158 1.248 . S
Mg157 O156 2.028 . S
Mg157 O162 2.032 . S
Mg157 O164 2.079 . S
C158 O155 1.250 1_556 S
C158 O156 1.248 . S
C159 O160 1.264 . S
C159 O167 1.249 . S
O160 C159 1.264 . S
O161 Mg154 1.986 1_554 S
O161 C165 1.246 . S
O162 Mg157 2.032 . S
O162 C165 1.259 1_556 S
O163 Mg154 2.114 . S
O163 C166 1.252 . S
O164 Mg154 2.251 . S
O164 Mg157 2.079 . S
O164 C166 1.273 . S
C165 O161 1.246 . S
C165 O162 1.259 1_554 S
C166 O163 1.252 . S
C166 O164 1.273 . S
O167 Mg154 2.010 1_554 S
O167 C159 1.249 . S
C168 C169 1.369 . S
C168 C170 1.419 . S
C168 H172 0.930 . S
C169 C168 1.369 . S
C169 C178 1.429 . S
C170 C168 1.419 . S
C170 C171 1.363 . S
C170 H173 0.929 . S
C171 C170 1.363 . S
C171 C177 1.428 . S
H172 C168 0.930 . S
H173 C170 0.929 . S
S174 N175 1.613 . S
S174 N176 1.610 . S
N175 S174 1.613 . S
N175 C178 1.350 . S
N176 S174 1.610 . S
N176 C177 1.351 . S
C177 C171 1.428 . S
C177 N176 1.351 . S
C177 C178 1.434 . S
C178 C169 1.429 . S
C178 N175 1.350 . S
C178 C177 1.434 . S
C179 C180 1.369 . S
C179 C181 1.419 . S
C179 H183 0.930 . S
C180 C179 1.369 . S
C180 C189 1.429 . S
C181 C179 1.419 . S
C181 C182 1.363 . S
C181 H184 0.929 . S
C182 C181 1.363 . S
C182 C188 1.428 . S
H183 C179 0.930 . S
H184 C181 0.929 . S
S185 N186 1.613 . S
S185 N187 1.610 . S
N186 S185 1.613 . S
N186 C189 1.350 . S
N187 S185 1.610 . S
N187 C188 1.351 . S
C188 C182 1.428 . S
C188 N187 1.351 . S
C188 C189 1.434 . S
C189 C180 1.429 . S
C189 N186 1.350 . S
C189 C188 1.434 . S
C190 C191 1.369 . S
C190 C192 1.419 . S
C190 H194 0.930 . S
C191 C190 1.369 . S
C191 C200 1.429 1_556 S
C192 C190 1.419 . S
C192 C193 1.363 1_556 S
C192 H195 0.929 . S
C193 C192 1.363 1_554 S
C193 C199 1.428 . S
H194 C190 0.930 . S
H195 C192 0.929 . S
S196 N197 1.613 . S
S196 N198 1.610 . S
N197 S196 1.613 . S
N197 C200 1.350 . S
N198 S196 1.610 . S
N198 C199 1.351 . S
C199 C193 1.428 . S
C199 N198 1.351 . S
C199 C200 1.434 . S
C200 C191 1.429 1_554 S
C200 N197 1.350 . S
C200 C199 1.434 . S
C201 C202 1.369 . S
C201 C203 1.419 . S
C201 H205 0.930 . S
C202 C201 1.369 . S
C202 C211 1.429 . S
C203 C201 1.419 . S
C203 C204 1.363 . S
C203 H206 0.929 . S
C204 C203 1.363 . S
C204 C210 1.428 . S
H205 C201 0.930 . S
H206 C203 0.929 . S
S207 N208 1.613 . S
S207 N209 1.610 . S
N208 S207 1.613 . S
N208 C211 1.350 . S
N209 S207 1.610 . S
N209 C210 1.351 . S
C210 C204 1.428 . S
C210 N209 1.351 . S
C210 C211 1.434 . S
C211 C202 1.429 . S
C211 N208 1.350 . S
C211 C210 1.434 . S
C212 C213 1.369 . S
C212 C214 1.419 . S
C212 H216 0.930 . S
C213 C212 1.369 . S
C213 C222 1.429 . S
C214 C212 1.419 . S
C214 C215 1.363 . S
C214 H217 0.929 . S
C215 C214 1.363 . S
C215 C221 1.428 . S
H216 C212 0.930 . S
H217 C214 0.929 . S
S218 N219 1.613 . S
S218 N220 1.610 . S
N219 S218 1.613 . S
N219 C222 1.350 . S
N220 S218 1.610 . S
N220 C221 1.351 . S
C221 C215 1.428 . S
C221 N220 1.351 . S
C221 C222 1.434 . S
C222 C213 1.429 . S
C222 N219 1.350 . S
C222 C221 1.434 . S
C223 C224 1.369 1_556 S
C223 C225 1.419 . S
C223 H227 0.930 . S
C224 C223 1.369 1_554 S
C224 C233 1.429 . S
C225 C223 1.419 . S
C225 C226 1.363 . S
C225 H228 0.929 . S
C226 C225 1.363 . S
C226 C232 1.428 1_556 S
H227 C223 0.930 . S
H228 C225 0.929 . S
S229 N230 1.613 . S
S229 N231 1.610 . S
N230 S229 1.613 . S
N230 C233 1.350 . S
N231 S229 1.610 . S
N231 C232 1.351 . S
C232 C226 1.428 1_554 S
C232 N231 1.351 . S
C232 C233 1.434 . S
C233 C224 1.429 . S
C233 N230 1.350 . S
C233 C232 1.434 . S
C234 C235 1.369 . S
C234 C236 1.419 . S
C234 H238 0.930 . S
C235 C234 1.369 . S
C235 C244 1.429 . S
C236 C234 1.419 . S
C236 C237 1.363 . S
C236 H239 0.929 . S
C237 C236 1.363 . S
C237 C243 1.428 . S
H238 C234 0.930 . S
H239 C236 0.929 . S
S240 N241 1.613 . S
S240 N242 1.610 . S
N241 S240 1.613 . S
N241 C244 1.350 . S
N242 S240 1.610 . S
N242 C243 1.351 . S
C243 C237 1.428 . S
C243 N242 1.351 . S
C243 C244 1.434 . S
C244 C235 1.429 . S
C244 N241 1.350 . S
C244 C243 1.434 . S
C245 C246 1.369 . S
C245 C247 1.419 1_655 S
C245 H249 0.930 . S
C246 C245 1.369 . S
C246 C255 1.429 . S
C247 C245 1.419 1_455 S
C247 C248 1.363 . S
C247 H250 0.929 . S
C248 C247 1.363 . S
C248 C254 1.428 . S
H249 C245 0.930 . S
H250 C247 0.929 . S
S251 N252 1.613 1_455 S
S251 N253 1.610 . S
N252 S251 1.613 1_655 S
N252 C255 1.350 . S
N253 S251 1.610 . S
N253 C254 1.351 . S
C254 C248 1.428 . S
C254 N253 1.351 . S
C254 C255 1.434 1_455 S
C255 C246 1.429 . S
C255 N252 1.350 . S
C255 C254 1.434 1_655 S
C256 C257 1.369 . S
C256 C258 1.419 1_545 S
C256 H260 0.930 . S
C257 C256 1.369 . S
C257 C266 1.429 1_554 S
C258 C256 1.419 1_565 S
C258 C259 1.363 1_554 S
C258 H261 0.929 . S
C259 C258 1.363 1_556 S
C259 C265 1.428 . S
H260 C256 0.930 . S
H261 C258 0.929 . S
S262 N263 1.613 . S
S262 N264 1.610 1_545 S
N263 S262 1.613 . S
N263 C266 1.350 . S
N264 S262 1.610 1_565 S
N264 C265 1.351 . S
C265 C259 1.428 . S
C265 N264 1.351 . S
C265 C266 1.434 1_565 S
C266 C257 1.429 1_556 S
C266 N263 1.350 . S
C266 C265 1.434 1_545 S
C267 C268 1.369 . S
C267 C269 1.419 . S
C267 H271 0.930 . S
C268 C267 1.369 . S
C268 C277 1.429 . S
C269 C267 1.419 . S
C269 C270 1.363 . S
C269 H272 0.929 . S
C270 C269 1.363 . S
C270 C276 1.428 . S
H271 C267 0.930 . S
H272 C269 0.929 . S
S273 N274 1.613 . S
S273 N275 1.610 . S
N274 S273 1.613 . S
N274 C277 1.350 . S
N275 S273 1.610 . S
N275 C276 1.351 . S
C276 C270 1.428 . S
C276 N275 1.351 . S
C276 C277 1.434 . S
C277 C268 1.429 . S
C277 N274 1.350 . S
C277 C276 1.434 . S
C278 C279 1.369 . S
C278 C280 1.419 1_455 S
C278 H282 0.930 . S
C279 C278 1.369 . S
C279 C288 1.429 . S
C280 C278 1.419 1_655 S
C280 C281 1.363 . S
C280 H283 0.929 . S
C281 C280 1.363 . S
C281 C287 1.428 . S
H282 C278 0.930 . S
H283 C280 0.929 . S
S284 N285 1.613 . S
S284 N286 1.610 1_455 S
N285 S284 1.613 . S
N285 C288 1.350 . S
N286 S284 1.610 1_655 S
N286 C287 1.351 . S
C287 C281 1.428 . S
C287 N286 1.351 . S
C287 C288 1.434 1_655 S
C288 C279 1.429 . S
C288 N285 1.350 . S
C288 C287 1.434 1_455 S
C289 C290 1.369 1_554 S
C289 C291 1.419 1_545 S
C289 H293 0.930 . S
C290 C289 1.369 1_556 S
C290 C299 1.429 . S
C291 C289 1.419 1_565 S
C291 C292 1.363 . S
C291 H294 0.929 . S
C292 C291 1.363 . S
C292 C298 1.428 1_554 S
H293 C289 0.930 . S
H294 C291 0.929 . S
S295 N296 1.613 1_565 S
S295 N297 1.610 . S
N296 S295 1.613 1_545 S
N296 C299 1.350 . S
N297 S295 1.610 . S
N297 C298 1.351 . S
C298 C292 1.428 1_556 S
C298 N297 1.351 . S
C298 C299 1.434 1_565 S
C299 C290 1.429 . S
C299 N296 1.350 . S
C299 C298 1.434 1_545 S
C300 C301 1.369 . S
C300 C302 1.419 . S
C300 H304 0.930 . S
C301 C300 1.369 . S
C301 C310 1.429 1_655 S
C302 C300 1.419 . S
C302 C303 1.363 1_655 S
C302 H305 0.929 . S
C303 C302 1.363 1_455 S
C303 C309 1.428 . S
H304 C300 0.930 . S
H305 C302 0.929 . S
S306 N307 1.613 . S
S306 N308 1.610 . S
N307 S306 1.613 . S
N307 C310 1.350 . S
N308 S306 1.610 . S
N308 C309 1.351 . S
C309 C303 1.428 . S
C309 N308 1.351 . S
C309 C310 1.434 . S
C310 C301 1.429 1_455 S
C310 N307 1.350 . S
C310 C309 1.434 . S
C311 C312 1.369 . S
C311 C313 1.419 . S
C311 H315 0.930 . S
C312 C311 1.369 . S
C312 C321 1.429 1_545 S
C313 C311 1.419 . S
C313 C314 1.363 1_545 S
C313 H316 0.929 . S
C314 C313 1.363 1_565 S
C314 C320 1.428 . S
H315 C311 0.930 . S
H316 C313 0.929 . S
S317 N318 1.613 . S
S317 N319 1.610 . S
N318 S317 1.613 . S
N318 C321 1.350 . S
N319 S317 1.610 . S
N319 C320 1.351 . S
C320 C314 1.428 . S
C320 N319 1.351 . S
C320 C321 1.434 . S
C321 C312 1.429 1_565 S
C321 N318 1.350 . S
C321 C320 1.434 . S
C322 C323 1.369 . S
C322 C324 1.419 . S
C322 H326 0.930 . S
C323 C322 1.369 . S
C323 C332 1.429 . S
C324 C322 1.419 . S
C324 C325 1.363 . S
C324 H327 0.929 . S
C325 C324 1.363 . S
C325 C331 1.428 . S
H326 C322 0.930 . S
H327 C324 0.929 . S
S328 N329 1.613 . S
S328 N330 1.610 . S
N329 S328 1.613 . S
N329 C332 1.350 . S
N330 S328 1.610 . S
N330 C331 1.351 . S
C331 C325 1.428 . S
C331 N330 1.351 . S
C331 C332 1.434 . S
C332 C323 1.429 . S
C332 N329 1.350 . S
C332 C331 1.434 . S
C333 C334 1.369 . S
C333 C335 1.419 1_455 S
C333 H337 0.930 . S
C334 C333 1.369 . S
C334 C343 1.429 . S
C335 C333 1.419 1_655 S
C335 C336 1.363 . S
C335 H338 0.929 . S
C336 C335 1.363 . S
C336 C342 1.428 . S
H337 C333 0.930 . S
H338 C335 0.929 . S
S339 N340 1.613 1_655 S
S339 N341 1.610 . S
N340 S339 1.613 1_455 S
N340 C343 1.350 . S
N341 S339 1.610 . S
N341 C342 1.351 . S
C342 C336 1.428 . S
C342 N341 1.351 . S
C342 C343 1.434 1_655 S
C343 C334 1.429 . S
C343 N340 1.350 . S
C343 C342 1.434 1_455 S
C344 C345 1.369 . S
C344 C346 1.419 . S
C344 H348 0.930 . S
C345 C344 1.369 . S
C345 C354 1.429 1_545 S
C346 C344 1.419 . S
C346 C347 1.363 1_545 S
C346 H349 0.929 . S
C347 C346 1.363 1_565 S
C347 C353 1.428 . S
H348 C344 0.930 . S
H349 C346 0.929 . S
S350 N351 1.613 . S
S350 N352 1.610 . S
N351 S350 1.613 . S
N351 C354 1.350 . S
N352 S350 1.610 . S
N352 C353 1.351 . S
C353 C347 1.428 . S
C353 N352 1.351 . S
C353 C354 1.434 . S
C354 C345 1.429 1_565 S
C354 N351 1.350 . S
C354 C353 1.434 . S
C355 C356 1.369 . S
C355 C357 1.419 . S
C355 H359 0.930 . S
C356 C355 1.369 . S
C356 C365 1.429 . S
C357 C355 1.419 . S
C357 C358 1.363 . S
C357 H360 0.929 . S
C358 C357 1.363 . S
C358 C364 1.428 . S
H359 C355 0.930 . S
H360 C357 0.929 . S
S361 N362 1.613 . S
S361 N363 1.610 . S
N362 S361 1.613 . S
N362 C365 1.350 . S
N363 S361 1.610 . S
N363 C364 1.351 . S
C364 C358 1.428 . S
C364 N363 1.351 . S
C364 C365 1.434 . S
C365 C356 1.429 . S
C365 N362 1.350 . S
C365 C364 1.434 . S
C366 C367 1.369 . S
C366 C368 1.419 . S
C366 H370 0.930 . S
C367 C366 1.369 . S
C367 C376 1.429 . S
C368 C366 1.419 . S
C368 C369 1.363 . S
C368 H371 0.929 . S
C369 C368 1.363 . S
C369 C375 1.428 . S
H370 C366 0.930 . S
H371 C368 0.929 . S
S372 N373 1.613 . S
S372 N374 1.610 . S
N373 S372 1.613 . S
N373 C376 1.350 . S
N374 S372 1.610 . S
N374 C375 1.351 . S
C375 C369 1.428 . S
C375 N374 1.351 . S
C375 C376 1.434 . S
C376 C367 1.429 . S
C376 N373 1.350 . S
C376 C375 1.434 . S
C377 C378 1.369 . S
C377 C379 1.419 . S
C377 H381 0.930 . S
C378 C377 1.369 . S
C378 C387 1.429 . S
C379 C377 1.419 . S
C379 C380 1.363 . S
C379 H382 0.929 . S
C380 C379 1.363 . S
C380 C386 1.428 . S
H381 C377 0.930 . S
H382 C379 0.929 . S
S383 N384 1.613 . S
S383 N385 1.610 . S
N384 S383 1.613 . S
N384 C387 1.350 . S
N385 S383 1.610 . S
N385 C386 1.351 . S
C386 C380 1.428 . S
C386 N385 1.351 . S
C386 C387 1.434 . S
C387 C378 1.429 . S
C387 N384 1.350 . S
C387 C386 1.434 . S
C388 C389 1.369 . S
C388 C390 1.419 . S
C388 H392 0.930 . S
C389 C388 1.369 . S
C389 C398 1.429 . S
C390 C388 1.419 . S
C390 C391 1.363 . S
C390 H393 0.929 . S
C391 C390 1.363 . S
C391 C397 1.428 . S
H392 C388 0.930 . S
H393 C390 0.929 . S
S394 N395 1.613 . S
S394 N396 1.610 . S
N395 S394 1.613 . S
N395 C398 1.350 . S
N396 S394 1.610 . S
N396 C397 1.351 . S
C397 C391 1.428 . S
C397 N396 1.351 . S
C397 C398 1.434 . S
C398 C389 1.429 . S
C398 N395 1.350 . S
C398 C397 1.434 . S
C399 C400 1.369 . S
C399 C401 1.419 . S
C399 H403 0.930 . S
C400 C399 1.369 . S
C400 C409 1.429 . S
C401 C399 1.419 . S
C401 C402 1.363 . S
C401 H404 0.929 . S
C402 C401 1.363 . S
C402 C408 1.428 . S
H403 C399 0.930 . S
H404 C401 0.929 . S
S405 N406 1.613 . S
S405 N407 1.610 . S
N406 S405 1.613 . S
N406 C409 1.350 . S
N407 S405 1.610 . S
N407 C408 1.351 . S
C408 C402 1.428 . S
C408 N407 1.351 . S
C408 C409 1.434 . S
C409 C400 1.429 . S
C409 N406 1.350 . S
C409 C408 1.434 . S
C410 C411 1.369 . S
C410 C412 1.419 . S
C410 H414 0.930 . S
C411 C410 1.369 . S
C411 C420 1.429 . S
C412 C410 1.419 . S
C412 C413 1.363 . S
C412 H415 0.929 . S
C413 C412 1.363 . S
C413 C419 1.428 . S
H414 C410 0.930 . S
H415 C412 0.929 . S
S416 N417 1.613 . S
S416 N418 1.610 . S
N417 S416 1.613 . S
N417 C420 1.350 . S
N418 S416 1.610 . S
N418 C419 1.351 . S
C419 C413 1.428 . S
C419 N418 1.351 . S
C419 C420 1.434 . S
C420 C411 1.429 . S
C420 N417 1.350 . S
C420 C419 1.434 . S
C421 C422 1.369 . S
C421 C423 1.419 . S
C421 H425 0.930 . S
C422 C421 1.369 . S
C422 C431 1.429 . S
C423 C421 1.419 . S
C423 C424 1.363 . S
C423 H426 0.929 . S
C424 C423 1.363 . S
C424 C430 1.428 . S
H425 C421 0.930 . S
H426 C423 0.929 . S
S427 N428 1.613 . S
S427 N429 1.610 . S
N428 S427 1.613 . S
N428 C431 1.350 . S
N429 S427 1.610 . S
N429 C430 1.351 . S
C430 C424 1.428 . S
C430 N429 1.351 . S
C430 C431 1.434 . S
C431 C422 1.429 . S
C431 N428 1.350 . S
C431 C430 1.434 . S
C169 C11 1.373 . S
C171 C95 1.383 . S
C180 C25 1.383 . S
C182 C109 1.374 . S
C191 C39 1.372 . S
C193 C123 1.380 . S
C202 C137 1.373 . S
C204 C53 1.382 . S
C213 C67 1.384 . S
C215 C151 1.374 . S
C224 C165 1.385 . S
C226 C81 1.376 . S
C235 C4 0.918 . S
C237 C130 0.903 . S
C246 C18 0.919 . S
C248 C144 0.905 . S
C257 C158 0.901 1_554 S
C259 C32 0.908 1_556 S
C268 C88 0.904 . S
C270 C46 0.904 . S
C279 C60 0.901 . S
C281 C102 0.906 . S
C290 C74 0.905 1_556 S
C292 C116 0.901 1_554 S
C301 C159 1.569 . S
C303 C5 1.569 . S
C312 C19 1.563 . S
C314 C89 1.566 . S
C323 C33 1.558 . S
C325 C103 1.561 . S
C334 C117 1.557 . S
C336 C47 1.560 . S
C345 C131 1.561 . S
C347 C61 1.564 . S
C356 C75 1.559 . S
C358 C145 1.559 . S
C367 C12 0.980 . S
C369 C152 0.985 . S
C378 C166 0.976 . S
C380 C26 0.993 . S
C389 C96 0.982 . S
C391 C40 0.984 . S
C400 C54 0.994 . S
C402 C110 0.979 . S
C411 C124 0.986 . S
C413 C68 0.986 . S
C422 C138 0.994 . S
C424 C82 0.976 . S
