# Generated by pormake.
# Topology unf, (4)-cn, num edge types: 1
# Building blocks:
#     Node 0, Type 0, BuildingBlock: QUQFOY_clean_sbu_1, # of connection points: 4
#     Node 1, Type 0, BuildingBlock: QUQFOY_clean_sbu_1, # of connection points: 4
#     Node 2, Type 0, BuildingBlock: QUQFOY_clean_sbu_1, # of connection points: 4
#     Node 3, Type 0, BuildingBlock: QUQFOY_clean_sbu_1, # of connection points: 4
#     Node 4, Type 0, BuildingBlock: QUQFOY_clean_sbu_1, # of connection points: 4
#     Node 5, Type 0, BuildingBlock: QUQFOY_clean_sbu_1, # of connection points: 4
#     Node 6, Type 0, BuildingBlock: QUQFOY_clean_sbu_1, # of connection points: 4
#     Node 7, Type 0, BuildingBlock: QUQFOY_clean_sbu_1, # of connection points: 4
#     Node 8, Type 0, BuildingBlock: QUQFOY_clean_sbu_1, # of connection points: 4
#     Node 9, Type 0, BuildingBlock: QUQFOY_clean_sbu_1, # of connection points: 4
#     Node 10, Type 0, BuildingBlock: QUQFOY_clean_sbu_1, # of connection points: 4
#     Node 11, Type 0, BuildingBlock: QUQFOY_clean_sbu_1, # of connection points: 4
#     Edge 12, Type (0, 0), BuildingBlock: ZUJKAS_clean_linker_0, # of connection points: 2
#     Edge 13, Type (0, 0), BuildingBlock: ZUJKAS_clean_linker_0, # of connection points: 2
#     Edge 14, Type (0, 0), BuildingBlock: ZUJKAS_clean_linker_0, # of connection points: 2
#     Edge 15, Type (0, 0), BuildingBlock: ZUJKAS_clean_linker_0, # of connection points: 2
#     Edge 16, Type (0, 0), BuildingBlock: ZUJKAS_clean_linker_0, # of connection points: 2
#     Edge 17, Type (0, 0), BuildingBlock: ZUJKAS_clean_linker_0, # of connection points: 2
#     Edge 18, Type (0, 0), BuildingBlock: ZUJKAS_clean_linker_0, # of connection points: 2
#     Edge 19, Type (0, 0), BuildingBlock: ZUJKAS_clean_linker_0, # of connection points: 2
#     Edge 20, Type (0, 0), BuildingBlock: ZUJKAS_clean_linker_0, # of connection points: 2
#     Edge 21, Type (0, 0), BuildingBlock: ZUJKAS_clean_linker_0, # of connection points: 2
#     Edge 22, Type (0, 0), BuildingBlock: ZUJKAS_clean_linker_0, # of connection points: 2
#     Edge 23, Type (0, 0), BuildingBlock: ZUJKAS_clean_linker_0, # of connection points: 2
#     Edge 24, Type (0, 0), BuildingBlock: ZUJKAS_clean_linker_0, # of connection points: 2
#     Edge 25, Type (0, 0), BuildingBlock: ZUJKAS_clean_linker_0, # of connection points: 2
#     Edge 26, Type (0, 0), BuildingBlock: ZUJKAS_clean_linker_0, # of connection points: 2
#     Edge 27, Type (0, 0), BuildingBlock: ZUJKAS_clean_linker_0, # of connection points: 2
#     Edge 28, Type (0, 0), BuildingBlock: ZUJKAS_clean_linker_0, # of connection points: 2
#     Edge 29, Type (0, 0), BuildingBlock: ZUJKAS_clean_linker_0, # of connection points: 2
#     Edge 30, Type (0, 0), BuildingBlock: ZUJKAS_clean_linker_0, # of connection points: 2
#     Edge 31, Type (0, 0), BuildingBlock: ZUJKAS_clean_linker_0, # of connection points: 2
#     Edge 32, Type (0, 0), BuildingBlock: ZUJKAS_clean_linker_0, # of connection points: 2
#     Edge 33, Type (0, 0), BuildingBlock: ZUJKAS_clean_linker_0, # of connection points: 2
#     Edge 34, Type (0, 0), BuildingBlock: ZUJKAS_clean_linker_0, # of connection points: 2
#     Edge 35, Type (0, 0), BuildingBlock: ZUJKAS_clean_linker_0, # of connection points: 2
# Relax obj value: 0.138
# Max RMSD: 0.165
# Mean RMSD: 0.165
data_MOF--net-unf--node1-QUQFOY_clean_sbu_1--edge1-ZUJKAS_clean_linker_0
_symmetry_space_group_name_H-M    P1
_symmetry_Int_Tables_number       1
_symmetry_cell_setting            triclinic
loop_
_symmetry_equiv_pos_as_xyz
'x, y, z'
_cell_length_a     51.747573
_cell_length_b     51.755762
_cell_length_c     51.802672
_cell_angle_alpha  89.974907
_cell_angle_beta   90.000027
_cell_angle_gamma 120.01897
loop_
_atom_site_label
_atom_site_type_symbol
_atom_site_fract_x
_atom_site_fract_y
_atom_site_fract_z
_atom_type_partial_charge
O0 O 0.11369 0.35508 0.07189 0.0
Cd1 Cd 0.08627 0.35787 0.09907 0.0
Cd2 Cd 0.07936 0.39098 0.05864 0.0
O3 O 0.1148 0.38795 0.04408 0.0
O4 O 0.09722 0.34643 0.13211 0.0
O5 O 0.10509 0.39191 0.12438 0.0
C6 C 0.10774 0.3736 0.13964 0.0
C7 C 0.07256 0.4299 0.04402 0.0
C8 C 0.12378 0.37033 0.05136 0.0
C9 C 0.02621 0.33143 0.07636 0.0
O10 O 0.03831 0.35298 0.06053 0.0
O11 O 0.04108 0.32933 0.09489 0.0
O12 O 0.07133 0.40984 0.02868 0.0
O13 O 0.0798 0.42925 0.06776 0.0
O14 O 0.63235 0.75793 0.06201 0.0
Cd15 Cd 0.63207 0.7305 0.09083 0.0
Cd16 Cd 0.59654 0.68692 0.05146 0.0
O17 O 0.59909 0.72455 0.03538 0.0
O18 O 0.64824 0.75774 0.12095 0.0
O19 O 0.60225 0.71933 0.11981 0.0
C20 C 0.62257 0.74244 0.13188 0.0
C21 C 0.55775 0.64059 0.03768 0.0
C22 C 0.61661 0.75154 0.04167 0.0
C23 C 0.65709 0.69495 0.06892 0.0
O24 O 0.63472 0.68422 0.05392 0.0
O25 O 0.66021 0.71341 0.08645 0.0
O26 O 0.57779 0.65902 0.02208 0.0
O27 O 0.55839 0.64914 0.06118 0.0
O28 O 0.23121 0.86913 0.06176 0.0
Cd29 Cd 0.25858 0.89643 0.09054 0.0
Cd30 Cd 0.3022 0.90422 0.05137 0.0
O31 O 0.26463 0.86912 0.03525 0.0
O32 O 0.23131 0.88581 0.12062 0.0
O33 O 0.26953 0.87793 0.11981 0.0
C34 C 0.24652 0.8755 0.1318 0.0
C35 C 0.34871 0.91178 0.03814 0.0
C36 C 0.23763 0.85972 0.04148 0.0
C37 C 0.29423 0.95685 0.06826 0.0
O38 O 0.30491 0.94508 0.05337 0.0
O39 O 0.27579 0.94165 0.08588 0.0
O40 O 0.33043 0.91322 0.02226 0.0
O41 O 0.33986 0.90393 0.0616 0.0
O42 O 0.62692 0.86839 0.43822 0.0
Cd43 Cd 0.62906 0.89748 0.41016 0.0
Cd44 Cd 0.59225 0.90475 0.44776 0.0
O45 O 0.59264 0.86844 0.46358 0.0
O46 O 0.64495 0.8871 0.37942 0.0
O47 O 0.59967 0.88144 0.38073 0.0
C48 C 0.61968 0.87851 0.36826 0.0
C49 C 0.55346 0.91322 0.45945 0.0
C50 C 0.60995 0.85853 0.45783 0.0
C51 C 0.6544 0.95702 0.43401 0.0
O52 O 0.63108 0.94514 0.44788 0.0
O53 O 0.65812 0.94224 0.41632 0.0
O54 O 0.57185 0.9133 0.47612 0.0
O55 O 0.55559 0.90612 0.43599 0.0
O56 O 0.11736 0.7572 0.43816 0.0
Cd57 Cd 0.08821 0.73008 0.4102 0.0
Cd58 Cd 0.0779 0.68648 0.45021 0.0
O59 O 0.11449 0.72323 0.46567 0.0
O60 O 0.09933 0.7562 0.37927 0.0
O61 O 0.104 0.71604 0.38101 0.0
C62 C 0.10742 0.73904 0.36831 0.0
C63 C 0.06794 0.63934 0.46411 0.0
C64 C 0.12587 0.75031 0.45875 0.0
C65 C 0.02777 0.69837 0.43339 0.0
O66 O 0.03831 0.68649 0.44833 0.0
O67 O 0.04365 0.71604 0.41558 0.0
O68 O 0.06772 0.6585 0.47971 0.0
O69 O 0.07576 0.64752 0.44051 0.0
O70 O 0.23093 0.35509 0.42875 0.0
Cd71 Cd 0.26117 0.35654 0.40225 0.0
Cd72 Cd 0.30082 0.39015 0.44177 0.0
O73 O 0.26293 0.38882 0.45585 0.0
O74 O 0.23966 0.34536 0.3688 0.0
O75 O 0.27787 0.39046 0.37677 0.0
C76 C 0.25708 0.37241 0.36125 0.0
C77 C 0.34746 0.42933 0.45417 0.0
C78 C 0.23625 0.37121 0.44874 0.0
C79 C 0.29328 0.32957 0.42671 0.0
O80 O 0.30282 0.35156 0.44205 0.0
O81 O 0.27687 0.32739 0.40768 0.0
O82 O 0.32885 0.41082 0.47065 0.0
O83 O 0.33877 0.4271 0.4305 0.0
O84 O 0.88267 0.65182 0.9281 0.0
Cd85 Cd 0.90645 0.64257 0.90131 0.0
Cd86 Cd 0.90742 0.60883 0.94256 0.0
O87 O 0.87294 0.61477 0.9547 0.0
O88 O 0.89808 0.65539 0.86774 0.0
O89 O 0.88338 0.60824 0.87691 0.0
C90 C 0.88398 0.62772 0.86093 0.0
C91 C 0.90952 0.56709 0.9566 0.0
C92 C 0.86896 0.63602 0.94764 0.0
C93 C 0.96502 0.66324 0.92507 0.0
O94 O 0.95006 0.64473 0.94272 0.0
O95 O 0.95223 0.66458 0.90463 0.0
O96 O 0.91106 0.5869 0.97244 0.0
O97 O 0.90434 0.56962 0.93262 0.0
O98 O 0.33643 0.22702 0.92959 0.0
Cd99 Cd 0.34492 0.261 0.90405 0.0
Cd100 Cd 0.37923 0.29353 0.94419 0.0
O101 O 0.37536 0.25347 0.95459 0.0
O102 O 0.33234 0.24152 0.86978 0.0
O103 O 0.3794 0.27378 0.87955 0.0
C104 C 0.36008 0.25551 0.86313 0.0
C105 C 0.42137 0.33841 0.95555 0.0
C106 C 0.35345 0.22847 0.94791 0.0
C107 C 0.32358 0.29599 0.93137 0.0
O108 O 0.34238 0.29832 0.94826 0.0
O109 O 0.32255 0.28412 0.90968 0.0
O110 O 0.40389 0.31994 0.97268 0.0
O111 O 0.41639 0.33027 0.93165 0.0
O112 O 0.76238 0.10606 0.93074 0.0
Cd113 Cd 0.7298 0.08316 0.90337 0.0
Cd114 Cd 0.69438 0.08185 0.94359 0.0
O115 O 0.73458 0.11602 0.95649 0.0
O116 O 0.75089 0.09248 0.86969 0.0
O117 O 0.71873 0.10721 0.88005 0.0
C118 C 0.73747 0.10698 0.86368 0.0
C119 C 0.65025 0.07993 0.95648 0.0
C120 C 0.7599 0.1197 0.95012 0.0
C121 C 0.69118 0.02433 0.92625 0.0
O122 O 0.68745 0.03915 0.94389 0.0
O123 O 0.70565 0.03732 0.90599 0.0
O124 O 0.66798 0.07817 0.97282 0.0
O125 O 0.65867 0.08522 0.93266 0.0
O126 O 0.33105 0.10268 0.5724 0.0
Cd127 Cd 0.34132 0.08002 0.59951 0.0
Cd128 Cd 0.37597 0.07943 0.55859 0.0
O129 O 0.36863 0.11297 0.54626 0.0
O130 O 0.32951 0.08915 0.63322 0.0
O131 O 0.37647 0.10438 0.62272 0.0
C132 C 0.35745 0.10398 0.63913 0.0
C133 C 0.41801 0.07863 0.54336 0.0
C134 C 0.34695 0.11645 0.55293 0.0
C135 C 0.32239 0.0213 0.57691 0.0
O136 O 0.34103 0.03625 0.55934 0.0
O137 O 0.3202 0.03423 0.5969 0.0
O138 O 0.39728 0.07604 0.5281 0.0
O139 O 0.41613 0.08401 0.56741 0.0
O140 O 0.88204 0.2272 0.57476 0.0
Cd141 Cd 0.90765 0.26198 0.59956 0.0
Cd142 Cd 0.90413 0.29356 0.55967 0.0
O143 O 0.86839 0.25287 0.54996 0.0
O144 O 0.90145 0.2441 0.63451 0.0
O145 O 0.8857 0.27522 0.6232 0.0
C146 C 0.88728 0.25791 0.64036 0.0
C147 C 0.90501 0.3376 0.54843 0.0
C148 C 0.86588 0.22812 0.55672 0.0
C149 C 0.96327 0.2978 0.57134 0.0
O150 O 0.94618 0.29964 0.5548 0.0
O151 O 0.95303 0.28584 0.59314 0.0
O152 O 0.90425 0.31931 0.53126 0.0
O153 O 0.90274 0.32973 0.57235 0.0
O154 O 0.75737 0.65634 0.57047 0.0
Cd155 Cd 0.72399 0.64402 0.59754 0.0
Cd156 Cd 0.69019 0.61033 0.55571 0.0
O157 O 0.73165 0.61935 0.54337 0.0
O158 O 0.74504 0.65623 0.63119 0.0
O159 O 0.7147 0.60903 0.62053 0.0
C160 C 0.73296 0.62833 0.63696 0.0
C161 C 0.64801 0.56797 0.54 0.0
C162 C 0.75625 0.64147 0.55058 0.0
C163 C 0.68331 0.66201 0.57538 0.0
O164 O 0.68075 0.64443 0.55722 0.0
O165 O 0.69799 0.66373 0.59555 0.0
O166 O 0.66587 0.58921 0.52499 0.0
O167 O 0.65527 0.56954 0.56403 0.0
H168 H 0.1497 0.33682 0.06214 0.0
H169 H 0.18245 0.32781 0.03438 0.0
H170 H 0.17799 0.38468 0.9758 0.0
H171 H 0.14543 0.39423 0.0036 0.0
H172 H 0.16909 0.30258 0.98441 0.0
H173 H 0.26824 0.4171 0.98509 0.0
H174 H 0.23842 0.40515 0.00834 0.0
H175 H 0.23321 0.41383 0.97589 0.0
C176 C 0.15583 0.34764 0.04345 0.0
C177 C 0.145 0.36631 0.03512 0.0
C178 C 0.17446 0.34237 0.02759 0.0
C179 C 0.18269 0.35569 0.00314 0.0
C180 C 0.17217 0.37451 0.99476 0.0
H181 H 0.27699 0.29154 0.90226 0.0
H182 H 0.24162 0.30797 0.91454 0.0
C183 C 0.15354 0.37989 0.01067 0.0
C184 C 0.20198 0.34926 0.98651 0.0
H185 H 0.27261 0.38019 0.96239 0.0
C186 C 0.19161 0.31956 0.97923 0.0
C187 C 0.23126 0.37157 0.97988 0.0
C188 C 0.24367 0.4037 0.98779 0.0
C189 C 0.21026 0.31127 0.96651 0.0
C190 C 0.23987 0.33343 0.96062 0.0
C191 C 0.24979 0.36336 0.96681 0.0
C192 C 0.26209 0.32546 0.95168 0.0
C193 C 0.19876 0.27868 0.96091 0.0
C194 C 0.2856 0.33059 0.9682 0.0
C195 C 0.30572 0.3214 0.96129 0.0
C196 C 0.3028 0.30687 0.93763 0.0
C197 C 0.2797 0.30249 0.92068 0.0
C198 C 0.25947 0.31177 0.92767 0.0
H199 H 0.17675 0.264 0.9701 0.0
H200 H 0.19622 0.27495 0.93975 0.0
H201 H 0.21484 0.27195 0.96785 0.0
H202 H 0.28797 0.34111 0.98682 0.0
H203 H 0.32335 0.32535 0.97475 0.0
H204 H 0.59069 0.74685 0.99437 0.0
H205 H 0.60004 0.78756 0.96471 0.0
H206 H 0.65981 0.85168 0.02025 0.0
H207 H 0.65095 0.81145 0.0498 0.0
H208 H 0.5913 0.8362 0.97154 0.0
H209 H 0.71043 0.87404 0.95444 0.0
H210 H 0.68499 0.83812 0.96844 0.0
H211 H 0.70192 0.87112 0.98826 0.0
C212 C 0.60576 0.76964 0.00029 0.0
C213 C 0.62026 0.77589 0.02439 0.0
C214 C 0.61112 0.7928 0.98329 0.0
C215 C 0.63117 0.82249 0.99007 0.0
C216 C 0.64489 0.82882 0.01439 0.0
H217 H 0.65519 0.99009 0.96525 0.0
H218 H 0.63762 0.9378 0.97383 0.0
C219 C 0.63959 0.80578 0.03134 0.0
C220 C 0.63734 0.84727 0.97231 0.0
H221 H 0.69512 0.91058 0.94681 0.0
C222 C 0.61388 0.85216 0.9656 0.0
C223 C 0.66668 0.86762 0.96399 0.0
C224 C 0.69238 0.86229 0.96891 0.0
C225 C 0.61945 0.8783 0.95274 0.0
C226 C 0.64924 0.90016 0.94693 0.0
C227 C 0.67232 0.89399 0.95158 0.0
C228 C 0.65746 0.93096 0.93961 0.0
C229 C 0.59348 0.8827 0.94633 0.0
C230 C 0.675 0.94474 0.9177 0.0
C231 C 0.68547 0.975 0.91281 0.0
C232 C 0.67881 0.99192 0.92998 0.0
C233 C 0.66079 0.97779 0.95161 0.0
C234 C 0.65037 0.94772 0.95641 0.0
H235 H 0.5729 0.86096 0.9428 0.0
H236 H 0.58904 0.89347 0.96294 0.0
H237 H 0.59816 0.89709 0.92905 0.0
H238 H 0.68101 0.93223 0.90468 0.0
H239 H 0.69933 0.98527 0.89601 0.0
H240 H 0.24244 0.83874 0.9941 0.0
H241 H 0.20184 0.80781 0.96422 0.0
H242 H 0.13756 0.80326 0.0197 0.0
H243 H 0.17769 0.83421 0.04947 0.0
H244 H 0.15292 0.75049 0.9706 0.0
H245 H 0.11588 0.83246 0.95408 0.0
H246 H 0.15167 0.8426 0.96816 0.0
H247 H 0.11856 0.82651 0.98786 0.0
C248 C 0.21964 0.83107 0.99997 0.0
C249 C 0.21331 0.83914 0.02411 0.0
C250 C 0.19653 0.81351 0.98284 0.0
C251 C 0.16684 0.80395 0.98954 0.0
C252 C 0.16043 0.81114 0.0139 0.0
H253 H -0.001 0.66131 0.96418 0.0
H254 H 0.05132 0.69584 0.97286 0.0
C255 C 0.18341 0.82864 0.03099 0.0
C256 C 0.14213 0.78564 0.97163 0.0
H257 H 0.07909 0.78072 0.94616 0.0
C258 C 0.13709 0.7573 0.96473 0.0
C259 C 0.12195 0.79487 0.96339 0.0
C260 C 0.12746 0.82592 0.96851 0.0
C261 C 0.11095 0.73694 0.95175 0.0
C262 C 0.08924 0.74509 0.94603 0.0
C263 C 0.09557 0.77434 0.95087 0.0
C264 C 0.05839 0.72267 0.93868 0.0
C265 C 0.10635 0.70654 0.94515 0.0
C266 C 0.04473 0.72658 0.91677 0.0
C267 C 0.01446 0.70689 0.91182 0.0
C268 C -0.00259 0.68327 0.92894 0.0
C269 C 0.0114 0.67925 0.95059 0.0
C270 C 0.04149 0.6988 0.95544 0.0
H271 H 0.12803 0.70758 0.94163 0.0
H272 H 0.09542 0.69121 0.96166 0.0
H273 H 0.09202 0.69706 0.92781 0.0
H274 H 0.05736 0.74514 0.90378 0.0
H275 H 0.0043 0.71058 0.895 0.0
H276 H 0.69021 0.70855 0.60591 0.0
H277 H 0.67063 0.74225 0.59748 0.0
H278 H 0.62672 0.69212 0.52894 0.0
H279 H 0.6455 0.65837 0.53733 0.0
H280 H 0.68442 0.77735 0.55558 0.0
H281 H 0.56227 0.70489 0.55887 0.0
H282 H 0.58732 0.69389 0.57283 0.0
H283 H 0.57824 0.68822 0.53893 0.0
C284 C 0.67588 0.70441 0.58935 0.0
C285 C 0.66957 0.68091 0.5722 0.0
C286 C 0.66468 0.72362 0.5846 0.0
C287 C 0.64675 0.71935 0.56285 0.0
C288 C 0.63976 0.69536 0.54624 0.0
H289 H 0.64291 0.83132 0.45055 0.0
H290 H 0.65026 0.79947 0.48074 0.0
C291 C 0.6509 0.67628 0.55091 0.0
C292 C 0.63854 0.74184 0.5552 0.0
H293 H 0.58101 0.74748 0.52913 0.0
C294 C 0.66168 0.77105 0.55046 0.0
C295 C 0.60884 0.73382 0.54892 0.0
C296 C 0.58276 0.70355 0.55545 0.0
C297 C 0.65625 0.79159 0.53747 0.0
C298 C 0.62708 0.78243 0.52861 0.0
C299 C 0.60349 0.75419 0.53544 0.0
C300 C 0.6213 0.80078 0.51022 0.0
C301 C 0.68204 0.82257 0.53245 0.0
C302 C 0.60148 0.8109 0.51636 0.0
C303 C 0.59698 0.82898 0.49899 0.0
C304 C 0.61215 0.83702 0.47518 0.0
C305 C 0.63108 0.8258 0.46878 0.0
C306 C 0.6355 0.80778 0.4861 0.0
H307 H 0.69984 0.82908 0.54719 0.0
H308 H 0.69189 0.82303 0.51331 0.0
H309 H 0.67463 0.83934 0.53239 0.0
H310 H 0.59004 0.80537 0.53479 0.0
H311 H 0.5822 0.8372 0.50448 0.0
H312 H 0.14514 0.74477 0.5067 0.0
H313 H 0.17684 0.7851 0.5365 0.0
H314 H 0.18698 0.85014 0.47935 0.0
H315 H 0.1553 0.81027 0.4496 0.0
H316 H 0.23592 0.83319 0.53113 0.0
H317 H 0.1553 0.87286 0.54328 0.0
H318 H 0.14491 0.83674 0.52986 0.0
H319 H 0.16255 0.86961 0.50991 0.0
C320 C 0.15429 0.76767 0.5004 0.0
C321 C 0.14746 0.77431 0.47584 0.0
C322 C 0.1723 0.79063 0.51748 0.0
C323 C 0.18356 0.82048 0.5103 0.0
C324 C 0.17782 0.82717 0.48546 0.0
H325 H 0.32687 0.98702 0.53945 0.0
H326 H 0.29273 0.93471 0.53041 0.0
C327 C 0.15988 0.80433 0.46841 0.0
C328 C 0.20157 0.84501 0.52844 0.0
H329 H 0.20667 0.90833 0.55333 0.0
C330 C 0.22933 0.84934 0.53649 0.0
C331 C 0.19255 0.86555 0.53601 0.0
C332 C 0.16204 0.86081 0.52955 0.0
C333 C 0.24941 0.87514 0.55004 0.0
C334 C 0.24159 0.89721 0.55519 0.0
C335 C 0.21281 0.89157 0.54911 0.0
C336 C 0.26402 0.92779 0.5632 0.0
C337 C 0.27918 0.87895 0.55793 0.0
C338 C 0.25904 0.94151 0.58451 0.0
C339 C 0.2785 0.97179 0.58964 0.0
C340 C 0.30296 0.98878 0.57329 0.0
C341 C 0.30821 0.97466 0.55241 0.0
C342 C 0.28889 0.94457 0.54737 0.0
H343 H 0.2774 0.85699 0.56176 0.0
H344 H 0.29537 0.88972 0.54193 0.0
H345 H 0.28808 0.8931 0.57543 0.0
H346 H 0.23973 0.92899 0.59677 0.0
H347 H 0.27387 0.98204 0.60586 0.0
H348 H 0.99153 0.32704 0.52743 0.0
H349 H 0.04251 0.34335 0.51433 0.0
H350 H 0.0583 0.31177 0.58639 0.0
H351 H 0.00666 0.29474 0.59969 0.0
H352 H 0.09754 0.38313 0.53706 0.0
H353 H 0.07801 0.26718 0.53087 0.0
H354 H 0.04777 0.27487 0.53386 0.0
H355 H 0.07046 0.27862 0.56139 0.0
C356 C 0.00575 0.32356 0.54063 0.0
C357 C -0.0051 0.30924 0.56451 0.0
C358 C 0.03497 0.33308 0.53312 0.0
C359 C 0.05401 0.32849 0.54927 0.0
C360 C 0.04373 0.31512 0.57352 0.0
H361 H 0.23878 0.39691 0.49563 0.0
H362 H 0.19678 0.38829 0.52322 0.0
C363 C 0.01431 0.3055 0.5811 0.0
C364 C 0.084 0.33653 0.53967 0.0
H365 H 0.12399 0.30574 0.51596 0.0
C366 C 0.10364 0.36635 0.53281 0.0
C367 C 0.09158 0.31444 0.53397 0.0
C368 C 0.07087 0.28193 0.5402 0.0
C369 C 0.13018 0.3745 0.51939 0.0
C370 C 0.13732 0.35225 0.51306 0.0
C371 C 0.11833 0.32268 0.52091 0.0
C372 C 0.16294 0.35855 0.49634 0.0
C373 C 0.14953 0.40647 0.51085 0.0
C374 C 0.15773 0.34458 0.4722 0.0
C375 C 0.18156 0.34931 0.45647 0.0
C376 C 0.21111 0.36808 0.46463 0.0
C377 C 0.21628 0.38246 0.48871 0.0
C378 C 0.19235 0.37762 0.50449 0.0
H379 H 0.13816 0.4197 0.51334 0.0
H380 H 0.17029 0.41708 0.52252 0.0
H381 H 0.15595 0.40749 0.49026 0.0
H382 H 0.13513 0.32982 0.46559 0.0
H383 H 0.17677 0.33791 0.43806 0.0
H384 H 0.71676 0.72768 0.08036 0.0
H385 H 0.75611 0.71858 0.06407 0.0
H386 H 0.68921 0.63558 0.03046 0.0
H387 H 0.65004 0.6447 0.04612 0.0
H388 H 0.76883 0.67015 0.06727 0.0
H389 H 0.73846 0.68699 0.96849 0.0
H390 H 0.72547 0.69686 0.99712 0.0
H391 H 0.70758 0.65869 0.98647 0.0
C392 C 0.7105 0.70721 0.06999 0.0
C393 C 0.68043 0.68714 0.0641 0.0
C394 C 0.73294 0.70208 0.06069 0.0
C395 C 0.72547 0.67677 0.04559 0.0
C396 C 0.69538 0.65555 0.04161 0.0
H397 H 0.83013 0.60265 0.98593 0.0
H398 H 0.7974 0.61448 0.01099 0.0
C399 C 0.67306 0.66078 0.05061 0.0
C400 C 0.7488 0.67359 0.03199 0.0
H401 H 0.77141 0.66766 0.97156 0.0
C402 C 0.76963 0.66981 0.04636 0.0
C403 C 0.75005 0.67377 0.00471 0.0
C404 C 0.7294 0.67959 0.98826 0.0
C405 C 0.79116 0.66515 0.03406 0.0
C406 C 0.79134 0.66374 0.00677 0.0
C407 C 0.77106 0.66846 0.99248 0.0
C408 C 0.81207 0.65709 0.99242 0.0
C409 C 0.81361 0.66208 0.05039 0.0
C410 C 0.83049 0.67666 0.9731 0.0
C411 C 0.84878 0.6697 0.9584 0.0
C412 C 0.84906 0.64304 0.9628 0.0
C413 C 0.83057 0.62345 0.98217 0.0
C414 C 0.81207 0.63032 0.99671 0.0
H415 H 0.81634 0.67264 0.06963 0.0
H416 H 0.80569 0.63805 0.05353 0.0
H417 H 0.83573 0.67231 0.04076 0.0
H418 H 0.83065 0.69734 0.96935 0.0
H419 H 0.86283 0.68532 0.9437 0.0
H420 H 0.30381 0.17325 0.9442 0.0
H421 H 0.29198 0.12876 0.96936 0.0
H422 H 0.37628 0.17724 0.00907 0.0
H423 H 0.388 0.2221 0.98447 0.0
H424 H 0.32105 0.09825 0.97057 0.0
H425 H 0.31909 0.13934 0.06889 0.0
H426 H 0.31891 0.1589 0.04008 0.0
H427 H 0.35333 0.1628 0.05205 0.0
C428 C 0.31983 0.1745 0.95833 0.0
C429 C 0.34683 0.20123 0.96238 0.0
C430 C 0.31297 0.14909 0.97276 0.0
C431 C 0.33297 0.14989 0.99146 0.0
C432 C 0.36014 0.17638 0.99528 0.0
H433 H 0.34423 -0.00032 0.04481 0.0
H434 H 0.35341 0.04793 0.02898 0.0
C435 C 0.36694 0.2019 0.98099 0.0
C436 C 0.32615 0.12246 0.00578 0.0
H437 H 0.32039 0.09375 0.0663 0.0
C438 C 0.32066 0.09722 0.99149 0.0
C439 C 0.32524 0.12104 0.03309 0.0
C440 C 0.32915 0.14687 0.04944 0.0
C441 C 0.31513 0.07083 0.00373 0.0
C442 C 0.31582 0.06992 0.031 0.0
C443 C 0.32033 0.09477 0.04539 0.0
C444 C 0.31255 0.04336 0.04456 0.0
C445 C 0.30857 0.04412 0.98732 0.0
C446 C 0.2874 0.02574 0.05992 0.0
C447 C 0.28222 -0.00183 0.06931 0.0
C448 C 0.30209 0.98799 0.06324 0.0
C449 C 0.3283 0.00677 0.04945 0.0
C450 C 0.33357 0.03429 0.04035 0.0
H451 H 0.30097 0.04583 0.96766 0.0
H452 H 0.32922 0.04278 0.98526 0.0
H453 H 0.2912 0.0231 0.99639 0.0
H454 H 0.27106 0.03257 0.06349 0.0
H455 H 0.26186 0.98413 0.07991 0.0
H456 H -0.00054 0.27212 0.08906 0.0
H457 H 0.9517 0.23206 0.0722 0.0
H458 H 0.93569 0.29764 0.03565 0.0
H459 H 0.98332 0.33749 0.05188 0.0
H460 H 0.88992 0.21865 0.07298 0.0
H461 H 0.94132 0.2478 0.97563 0.0
H462 H 0.96293 0.26126 0.0049 0.0
H463 H 0.94308 0.2789 0.99255 0.0
C464 C 0.98537 0.27794 0.07795 0.0
C465 C -0.00477 0.3078 0.07138 0.0
C466 C 0.9582 0.2551 0.06831 0.0
C467 C 0.94066 0.262 0.05222 0.0
C468 C 0.94929 0.29192 0.0476 0.0
H469 H 0.76467 0.15855 0.98805 0.0
H470 H 0.80845 0.19051 0.01424 0.0
C471 C 0.97645 0.31462 0.05692 0.0
C472 C 0.91485 0.23829 0.03819 0.0
H473 H 0.88882 0.21511 0.97721 0.0
C474 C 0.88965 0.21761 0.05206 0.0
C475 C 0.91494 0.23669 0.01094 0.0
C476 C 0.94212 0.25715 0.99511 0.0
C477 C 0.86395 0.196 0.03923 0.0
C478 C 0.86345 0.19561 0.01189 0.0
C479 C 0.88911 0.21562 0.99815 0.0
C480 C 0.83647 0.17519 0.99693 0.0
C481 C 0.83772 0.17376 0.05506 0.0
C482 C 0.83797 0.15667 0.97791 0.0
C483 C 0.81318 0.13884 0.96253 0.0
C484 C 0.78638 0.13913 0.96596 0.0
C485 C 0.78493 0.15768 0.98504 0.0
C486 C 0.80984 0.17573 0.00024 0.0
H487 H 0.84482 0.1709 0.07459 0.0
H488 H 0.82177 0.18199 0.05754 0.0
H489 H 0.8259 0.15166 0.04542 0.0
H490 H 0.85841 0.15612 0.9749 0.0
H491 H 0.81499 0.1247 0.94808 0.0
H492 H 0.38053 0.1551 0.5147 0.0
H493 H 0.36922 0.18824 0.4897 0.0
H494 H 0.28584 0.15488 0.53049 0.0
H495 H 0.29728 0.12216 0.55609 0.0
H496 H 0.32222 0.17692 0.45727 0.0
H497 H 0.32585 0.2443 0.54212 0.0
H498 H 0.33894 0.21794 0.54351 0.0
H499 H 0.29964 0.20514 0.54513 0.0
C500 C 0.3598 0.15483 0.51842 0.0
C501 C 0.33995 0.13625 0.5376 0.0
C502 C 0.35333 0.17368 0.50402 0.0
C503 C 0.3269 0.17425 0.50849 0.0
C504 C 0.30665 0.15518 0.52712 0.0
H505 H 0.26035 0.26996 0.4152 0.0
H506 H 0.26828 0.23024 0.43239 0.0
C507 C 0.31321 0.13649 0.5417 0.0
C508 C 0.32108 0.19554 0.49416 0.0
H509 H 0.31127 0.25539 0.50241 0.0
C510 C 0.31978 0.1941 0.46707 0.0
C511 C 0.31823 0.21805 0.50707 0.0
C512 C 0.321 0.22172 0.53603 0.0
C513 C 0.31585 0.21477 0.4525 0.0
C514 C 0.31269 0.23704 0.46547 0.0
C515 C 0.31365 0.23821 0.49254 0.0
C516 C 0.30976 0.26046 0.45165 0.0
C517 C 0.31598 0.21316 0.42343 0.0
C518 C 0.33063 0.29048 0.45646 0.0
C519 C 0.32593 0.31298 0.44707 0.0
C520 C 0.30035 0.30592 0.43249 0.0
C521 C 0.28035 0.27597 0.42625 0.0
C522 C 0.2849 0.2533 0.43599 0.0
H523 H 0.3255 0.19934 0.41654 0.0
H524 H 0.29271 0.20295 0.41623 0.0
H525 H 0.32898 0.23581 0.41489 0.0
H526 H 0.35002 0.29646 0.46841 0.0
H527 H 0.34184 0.33592 0.45199 0.0
H528 H 0.82512 0.2213 0.51988 0.0
H529 H 0.79143 0.17596 0.49611 0.0
H530 H 0.82648 0.12769 0.53726 0.0
H531 H 0.85986 0.17275 0.56152 0.0
H532 H 0.80415 0.14031 0.46408 0.0
H533 H 0.73671 0.07728 0.54924 0.0
H534 H 0.76236 0.11696 0.5501 0.0
H535 H 0.77605 0.09124 0.55255 0.0
C536 C 0.82558 0.20101 0.524 0.0
C537 C 0.84499 0.20056 0.54277 0.0
C538 C 0.80642 0.17519 0.5103 0.0
C539 C 0.8063 0.14848 0.51513 0.0
C540 C 0.82589 0.148 0.53359 0.0
H541 H 0.71456 0.98403 0.42446 0.0
H542 H 0.75335 0.03222 0.44161 0.0
C543 C 0.84496 0.17377 0.54741 0.0
C544 C 0.78533 0.12104 0.50107 0.0
H545 H 0.72632 0.05094 0.50987 0.0
C546 C 0.7871 0.12071 0.47402 0.0
C547 C 0.76303 0.0957 0.51417 0.0
C548 C 0.75915 0.09527 0.54308 0.0
C549 C 0.767 0.0956 0.45967 0.0
C550 C 0.74495 0.07017 0.47283 0.0
C551 C 0.74338 0.07049 0.49987 0.0
C552 C 0.72217 0.04331 0.45917 0.0
C553 C 0.76899 0.09672 0.43061 0.0
C554 C 0.69193 0.0339 0.46307 0.0
C555 C 0.66994 0.00644 0.45365 0.0
C556 C 0.67773 0.98786 0.44002 0.0
C557 C 0.70797 -0.00199 0.43478 0.0
C558 C 0.7301 0.02552 0.4445 0.0
H559 H 0.78274 0.11993 0.42336 0.0
H560 H 0.77942 0.08365 0.42401 0.0
H561 H 0.74642 0.08671 0.42185 0.0
H562 H 0.68537 0.04737 0.47427 0.0
H563 H 0.6468 -0.00067 0.45778 0.0
H564 H 0.00343 0.733 0.41994 0.0
H565 H 0.9559 0.72716 0.4355 0.0
H566 H 0.93618 0.64517 0.47355 0.0
H567 H 0.98344 0.65097 0.45856 0.0
H568 H 0.89373 0.67933 0.43284 0.0
H569 H 0.9398 0.70152 0.53215 0.0
H570 H 0.96292 0.70942 0.50384 0.0
H571 H 0.94227 0.672 0.51629 0.0
C572 C 0.98865 0.71346 0.43121 0.0
C573 C -0.00269 0.6927 0.43843 0.0
C574 C 0.96161 0.7102 0.44009 0.0
C575 C 0.94301 0.6861 0.45612 0.0
C576 C 0.95061 0.66424 0.46165 0.0
H577 H 0.7643 0.60996 0.51221 0.0
H578 H 0.80975 0.62429 0.48762 0.0
C579 C 0.97758 0.66758 0.45303 0.0
C580 C 0.91672 0.68454 0.46878 0.0
H581 H 0.88719 0.68093 0.52836 0.0
C582 C 0.89231 0.68002 0.4537 0.0
C583 C 0.91529 0.68612 0.49595 0.0
C584 C 0.94158 0.69284 0.51302 0.0
C585 C 0.86583 0.67556 0.46525 0.0
C586 C 0.86371 0.67505 0.49253 0.0
C587 C 0.88869 0.68099 0.50747 0.0
C588 C 0.83561 0.66728 0.50619 0.0
C589 C 0.84043 0.67141 0.44815 0.0
C590 C 0.83529 0.68629 0.52533 0.0
C591 C 0.80953 0.67789 0.53982 0.0
C592 C 0.78357 0.65032 0.53535 0.0
C593 C 0.78388 0.63142 0.51602 0.0
C594 C 0.80975 0.63972 0.50173 0.0
H595 H 0.84867 0.6821 0.42901 0.0
H596 H 0.82518 0.64721 0.44487 0.0
H597 H 0.8275 0.68086 0.45716 0.0
H598 H 0.85509 0.70756 0.52923 0.0
H599 H 0.80997 0.69302 0.55448 0.0
H600 H 0.22954 0.33837 0.31925 0.0
H601 H 0.21313 0.35312 0.28055 0.0
H602 H 0.25389 0.44352 0.30862 0.0
H603 H 0.27105 0.429 0.3474 0.0
H604 H 0.18625 0.4085 0.29518 0.0
H605 H 0.26243 0.41225 0.21785 0.0
H606 H 0.24999 0.38176 0.24031 0.0
H607 H 0.27339 0.41933 0.25142 0.0
C608 C 0.2356 0.36154 0.31694 0.0
C609 C 0.25154 0.38255 0.33631 0.0
C610 C 0.22628 0.36994 0.29482 0.0
C611 C 0.23243 0.39939 0.29177 0.0
C612 C 0.24918 0.42073 0.31062 0.0
H613 H 0.15133 0.42997 0.15313 0.0
H614 H 0.1839 0.44407 0.19132 0.0
C615 C 0.25902 0.41243 0.33265 0.0
C616 C 0.21844 0.40651 0.27015 0.0
H617 H 0.21504 0.4053 0.20438 0.0
C618 C 0.19297 0.40868 0.27531 0.0
C619 C 0.22731 0.4067 0.24435 0.0
C620 C 0.25492 0.40512 0.23801 0.0
C621 C 0.17486 0.40877 0.25518 0.0
C622 C 0.18259 0.40677 0.22943 0.0
C623 C 0.20924 0.40686 0.22422 0.0
C624 C 0.16122 0.39988 0.20808 0.0
C625 C 0.14668 0.40927 0.26148 0.0
C626 C 0.13763 0.37054 0.20521 0.0
C627 C 0.11939 0.36239 0.18343 0.0
C628 C 0.12422 0.38353 0.16425 0.0
C629 C 0.14698 0.4133 0.16775 0.0
C630 C 0.16562 0.42136 0.18943 0.0
H631 H 0.14681 0.41672 0.28162 0.0
H632 H 0.14369 0.42425 0.24799 0.0
H633 H 0.12724 0.38646 0.25917 0.0
H634 H 0.13408 0.35366 0.21938 0.0
H635 H 0.10202 0.3393 0.18126 0.0
H636 H 0.56899 0.7208 0.15731 0.0
H637 H 0.55919 0.74151 0.19637 0.0
H638 H 0.6527 0.80728 0.20143 0.0
H639 H 0.66262 0.78713 0.16262 0.0
H640 H 0.58356 0.75024 0.24707 0.0
H641 H 0.61164 0.85767 0.20106 0.0
H642 H 0.60411 0.82501 0.18263 0.0
H643 H 0.64039 0.84835 0.19662 0.0
C644 C 0.58746 0.73954 0.16688 0.0
C645 C 0.61654 0.75251 0.15674 0.0
C646 C 0.5818 0.75137 0.18911 0.0
C647 C 0.60512 0.77637 0.20136 0.0
C648 C 0.63427 0.78848 0.19186 0.0
H649 H 0.66022 0.87819 0.33511 0.0
H650 H 0.65073 0.85216 0.2939 0.0
C651 C 0.63992 0.77678 0.16975 0.0
C652 C 0.59954 0.79011 0.2242 0.0
H653 H 0.61354 0.85757 0.24761 0.0
C654 C 0.5894 0.7735 0.2471 0.0
C655 C 0.60692 0.82039 0.22409 0.0
C656 C 0.61607 0.83881 0.1997 0.0
C657 C 0.58856 0.78706 0.27034 0.0
C658 C 0.59802 0.81783 0.27051 0.0
C659 C 0.60643 0.83398 0.24735 0.0
C660 C 0.60302 0.83439 0.29493 0.0
C661 C 0.57932 0.769 0.29491 0.0
C662 C 0.57927 0.83337 0.30885 0.0
C663 C 0.58464 0.84849 0.33243 0.0
C664 C 0.61381 0.86457 0.34241 0.0
C665 C 0.6375 0.86593 0.32803 0.0
C666 C 0.63215 0.85108 0.30448 0.0
H667 H 0.57272 0.74528 0.29155 0.0
H668 H 0.59802 0.77878 0.30897 0.0
H669 H 0.56023 0.76987 0.30376 0.0
H670 H 0.55665 0.82065 0.30162 0.0
H671 H 0.56594 0.84697 0.34312 0.0
H672 H 0.20374 0.87379 0.16334 0.0
H673 H 0.18356 0.84476 0.2027 0.0
H674 H 0.24531 0.81204 0.19627 0.0
H675 H 0.26612 0.84162 0.15679 0.0
H676 H 0.15644 0.78272 0.20605 0.0
H677 H 0.25424 0.83912 0.27205 0.0
H678 H 0.25187 0.85611 0.24236 0.0
H679 H 0.26027 0.82642 0.24153 0.0
C680 C 0.21334 0.86072 0.1704 0.0
C681 C 0.23654 0.86 0.15693 0.0
C682 C 0.20171 0.84408 0.19289 0.0
C683 C 0.21296 0.82631 0.20245 0.0
C684 C 0.23657 0.82593 0.18941 0.0
H685 H 0.1408 0.7181 0.34455 0.0
H686 H 0.16686 0.73445 0.30285 0.0
C687 C 0.24839 0.84279 0.16685 0.0
C688 C 0.19876 0.80743 0.22547 0.0
H689 H 0.20967 0.80034 0.28952 0.0
C690 C 0.16819 0.78629 0.22422 0.0
C691 C 0.2142 0.81196 0.24908 0.0
C692 C 0.24691 0.83473 0.25157 0.0
C693 C 0.15233 0.77058 0.24621 0.0
C694 C 0.1674 0.77626 0.27006 0.0
C695 C 0.19828 0.79607 0.27111 0.0
C696 C 0.15077 0.7649 0.29452 0.0
C697 C 0.11933 0.74875 0.24403 0.0
C698 C 0.13319 0.77664 0.30345 0.0
C699 C 0.11861 0.76762 0.32715 0.0
C700 C 0.12116 0.74652 0.34237 0.0
C701 C 0.13828 0.73425 0.33315 0.0
C702 C 0.15324 0.74361 0.30945 0.0
H703 H 0.11262 0.74145 0.22376 0.0
H704 H 0.11288 0.72879 0.25625 0.0
H705 H 0.10674 0.75959 0.25088 0.0
H706 H 0.13125 0.79328 0.29226 0.0
H707 H 0.10558 0.77748 0.33369 0.0
H708 H 0.88955 0.66395 0.82077 0.0
H709 H 0.85881 0.65103 0.78201 0.0
H710 H 0.81023 0.55897 0.80609 0.0
H711 H 0.84114 0.57174 0.84522 0.0
H712 H 0.84649 0.60515 0.74179 0.0
H713 H 0.74711 0.58812 0.79791 0.0
H714 H 0.78437 0.60872 0.81105 0.0
H715 H 0.76644 0.56895 0.80794 0.0
C716 C 0.87259 0.64086 0.81775 0.0
C717 C 0.86763 0.61889 0.83615 0.0
C718 C 0.85509 0.63352 0.79555 0.0
C719 C 0.83214 0.60414 0.79136 0.0
C720 C 0.82775 0.58183 0.80914 0.0
H721 H 0.72316 0.57271 0.65015 0.0
H722 H 0.7433 0.5598 0.6879 0.0
C723 C 0.84548 0.58914 0.83137 0.0
C724 C 0.81205 0.59782 0.76901 0.0
H725 H 0.74481 0.59071 0.75278 0.0
C726 C 0.82395 0.60117 0.7441 0.0
C727 C 0.78277 0.59288 0.77221 0.0
C728 C 0.76924 0.58953 0.79866 0.0
C729 C 0.80781 0.60116 0.72233 0.0
C730 C 0.77924 0.59789 0.72567 0.0
C731 C 0.76669 0.59299 0.75041 0.0
C732 C 0.76436 0.60416 0.70425 0.0
C733 C 0.82202 0.60655 0.69599 0.0
C734 C 0.76917 0.63314 0.7014 0.0
C735 C 0.75795 0.64061 0.67996 0.0
C736 C 0.74152 0.61913 0.66102 0.0
C737 C 0.73564 0.5897 0.66447 0.0
C738 C 0.74714 0.58229 0.68594 0.0
H739 H 0.84377 0.60712 0.69646 0.0
H740 H 0.80684 0.58875 0.68248 0.0
H741 H 0.82568 0.62814 0.68826 0.0
H742 H 0.78245 0.65027 0.71539 0.0
H743 H 0.76278 0.66343 0.67794 0.0
H744 H 0.32475 0.22802 0.82165 0.0
H745 H 0.33769 0.21015 0.78289 0.0
H746 H 0.42855 0.24878 0.80937 0.0
H747 H 0.41581 0.26707 0.84841 0.0
H748 H 0.3878 0.24337 0.74382 0.0
H749 H 0.39184 0.15414 0.80112 0.0
H750 H 0.37239 0.17262 0.81285 0.0
H751 H 0.41237 0.19225 0.81216 0.0
C752 C 0.34762 0.23317 0.81909 0.0
C753 C 0.36923 0.24878 0.83815 0.0
C754 C 0.35497 0.223 0.7969 0.0
C755 C 0.38397 0.22797 0.79344 0.0
C756 C 0.40601 0.24467 0.81182 0.0
H757 H 0.41326 0.14969 0.65183 0.0
H758 H 0.42681 0.1825 0.68979 0.0
C759 C 0.39872 0.25517 0.83401 0.0
C760 C 0.38996 0.21349 0.77147 0.0
H761 H 0.39129 0.15004 0.75597 0.0
C762 C 0.38941 0.22342 0.7464 0.0
C763 C 0.39176 0.18735 0.77505 0.0
C764 C 0.39206 0.17571 0.80169 0.0
C765 C 0.38917 0.20703 0.72473 0.0
C766 C 0.38934 0.18005 0.72835 0.0
C767 C 0.39138 0.17089 0.75337 0.0
C768 C 0.38275 0.15901 0.70677 0.0
C769 C 0.38677 0.2175 0.69812 0.0
C770 C 0.35376 0.13471 0.70421 0.0
C771 C 0.34593 0.11619 0.68265 0.0
C772 C 0.36706 0.12146 0.66331 0.0
C773 C 0.39654 0.14504 0.66647 0.0
C774 C 0.4043 0.16382 0.68804 0.0
H775 H 0.38643 0.23878 0.69862 0.0
H776 H 0.40597 0.22075 0.68616 0.0
H777 H 0.36609 0.20023 0.68855 0.0
H778 H 0.33687 0.13069 0.71852 0.0
H779 H 0.32309 0.09815 0.68083 0.0
H780 H 0.72967 0.15425 0.8518 0.0
H781 H 0.74853 0.18651 0.81347 0.0
H782 H 0.7814 0.13096 0.78279 0.0
H783 H 0.76316 0.09905 0.82096 0.0
H784 H 0.81389 0.21542 0.79804 0.0
H785 H 0.73416 0.14474 0.72201 0.0
H786 H 0.7245 0.14068 0.75591 0.0
H787 H 0.74656 0.12564 0.74329 0.0
C788 C 0.74043 0.14865 0.83664 0.0
C789 C 0.74501 0.12418 0.83936 0.0
C790 C 0.75124 0.16711 0.81485 0.0
C791 C 0.76613 0.16092 0.79531 0.0
C792 C 0.76967 0.13588 0.79757 0.0
H793 H 0.89816 0.23582 0.68403 0.0
H794 H 0.86748 0.21853 0.72296 0.0
C795 C 0.75932 0.11775 0.81942 0.0
C796 C 0.78044 0.18171 0.77349 0.0
H797 H 0.78179 0.18399 0.70768 0.0
C798 C 0.80653 0.20896 0.77829 0.0
C799 C 0.77067 0.17322 0.74782 0.0
C800 C 0.74229 0.14458 0.74184 0.0
C801 C 0.82427 0.22697 0.75789 0.0
C802 C 0.81561 0.2174 0.7322 0.0
C803 C 0.78841 0.19122 0.72743 0.0
C804 C 0.83611 0.23195 0.71023 0.0
C805 C 0.85278 0.25548 0.7639 0.0
C806 C 0.8288 0.24557 0.69033 0.0
C807 C 0.84655 0.25581 0.6681 0.0
C808 C 0.87142 0.2519 0.66529 0.0
C809 C 0.87914 0.23913 0.68565 0.0
C810 C 0.86171 0.22935 0.70794 0.0
H811 H 0.85241 0.26363 0.78366 0.0
H812 H 0.87182 0.25133 0.76269 0.0
H813 H 0.85669 0.27319 0.74973 0.0
H814 H 0.80895 0.24751 0.6917 0.0
H815 H 0.83994 0.26536 0.65262 0.0
H816 H 0.05449 0.46199 0.07339 0.0
H817 H 0.02584 0.48511 0.05825 0.0
H818 H 0.03701 0.46544 0.97953 0.0
H819 H 0.06526 0.44209 0.99441 0.0
H820 H 0.0371 0.53123 0.0217 0.0
H821 H 0.94565 0.42017 0.9903 0.0
H822 H 0.97558 0.42459 0.01112 0.0
H823 H 0.98162 0.43065 0.97695 0.0
C824 C 0.05146 0.46326 0.05283 0.0
C825 C 0.06179 0.44993 0.0351 0.0
C826 C 0.03496 0.4763 0.04423 0.0
C827 C 0.02865 0.47616 0.01786 0.0
C828 C 0.04101 0.46504 1.00002 0.0
H829 H 0.92709 0.53475 0.92704 0.0
H830 H 0.954 0.50992 0.9424 0.0
C831 C 0.05734 0.45193 0.00856 0.0
C832 C 0.00794 0.48619 0.00901 0.0
H833 H 0.94077 0.46201 0.97921 0.0
C834 C 0.01598 0.51612 0.01253 0.0
C835 C 0.9804 0.4663 0.99707 0.0
C836 C 0.97008 0.43357 0.9938 0.0
C837 C -0.00256 0.5269 0.00391 0.0
C838 C 0.96993 0.50703 0.99193 0.0
C839 C 0.96186 0.47709 0.98843 0.0
C840 C 0.94945 0.51723 0.98285 0.0
C841 C 0.00769 0.55962 0.00723 0.0
C842 C 0.93658 0.5279 0.00061 0.0
C843 C 0.92121 0.54197 0.99194 0.0
C844 C 0.91832 0.54544 0.96536 0.0
C845 C 0.92891 0.53235 0.94763 0.0
C846 C 0.94443 0.51833 0.95635 0.0
H847 H 0.032 0.57298 0.01129 0.0
H848 H 0.00274 0.56871 0.98968 0.0
H849 H -0.00441 0.56241 0.0237 0.0
H850 H 0.93969 0.52663 0.02116 0.0
H851 H 0.91305 0.5516 0.00608 0.0
H852 H 0.52712 0.5909 0.06791 0.0
H853 H 0.50409 0.53888 0.05346 0.0
H854 H 0.5207 0.56833 0.97422 0.0
H855 H 0.54407 0.62018 0.98844 0.0
H856 H 0.45722 0.50259 0.01901 0.0
H857 H 0.5672 0.52373 0.98295 0.0
H858 H 0.56327 0.54957 0.00369 0.0
H859 H 0.55536 0.54821 0.96976 0.0
C860 C 0.52519 0.58622 0.0474 0.0
C861 C 0.5377 0.60956 0.02931 0.0
C862 C 0.51222 0.55654 0.03919 0.0
C863 C 0.51155 0.54993 0.01283 0.0
C864 C 0.52178 0.57307 0.99468 0.0
H865 H 0.44985 0.38762 0.92441 0.0
H866 H 0.47449 0.43979 0.93858 0.0
C867 C 0.53489 0.60265 0.00284 0.0
C868 C 0.50163 0.51909 0.00429 0.0
H869 H 0.52534 0.47642 0.97324 0.0
C870 C 0.47211 0.49681 0.00912 0.0
C871 C 0.52122 0.51168 0.99144 0.0
C872 C 0.55361 0.53447 0.98683 0.0
C873 C 0.46143 0.46735 0.00094 0.0
C874 C 0.48098 0.46 0.98797 0.0
C875 C 0.5105 0.48223 0.98317 0.0
C876 C 0.47088 0.42921 0.9793 0.0
C877 C 0.42916 0.44438 0.0058 0.0
C878 C 0.46236 0.40632 0.99749 0.0
C879 C 0.44845 0.37664 0.98949 0.0
C880 C 0.44292 0.36938 0.96315 0.0
C881 C 0.45384 0.39252 0.94483 0.0
C882 C 0.46775 0.4223 0.95288 0.0
H883 H 0.41563 0.45488 0.01085 0.0
H884 H 0.41916 0.43 0.98857 0.0
H885 H 0.42783 0.42988 0.02212 0.0
H886 H 0.46518 0.41135 0.01794 0.0
H887 H 0.44051 0.35931 0.00407 0.0
H888 H 0.36996 0.91921 0.98914 0.0
H889 H 0.42201 0.94794 0.97553 0.0
H890 H 0.45009 0.96021 0.05516 0.0
H891 H 0.39792 0.93097 0.06895 0.0
H892 H 0.45766 0.00704 0.98876 0.0
H893 H 0.50893 0.94043 0.02077 0.0
H894 H 0.46905 0.92475 0.01816 0.0
H895 H 0.48883 0.94716 0.04563 0.0
C896 C 0.38725 0.92732 0.00375 0.0
C897 C 0.37989 0.92291 0.03013 0.0
C898 C 0.41696 0.94384 0.99593 0.0
C899 C 0.43988 0.95623 0.01431 0.0
C900 C 0.43275 0.95047 0.04063 0.0
H901 H 0.62993 0.07665 0.00543 0.0
H902 H 0.57795 0.04998 0.0195 0.0
C903 C 0.40294 0.93372 0.04849 0.0
C904 C 0.47079 0.97741 0.00596 0.0
H905 H 0.54203 0.98994 0.00675 0.0
C906 C 0.47612 0.00326 0.99258 0.0
C907 C 0.49477 0.97246 0.01108 0.0
C908 C 0.49017 0.94458 0.02449 0.0
C909 C 0.50493 0.02451 0.98443 0.0
C910 C 0.52889 0.01955 0.98957 0.0
C911 C 0.52357 0.99374 0.00298 0.0
C912 C 0.55971 0.04042 0.98086 0.0
C913 C 0.50956 0.05227 0.97079 0.0
C914 C 0.5666 0.04494 0.95443 0.0
C915 C 0.59637 0.06044 0.94629 0.0
C916 C 0.61959 0.07124 0.9645 0.0
C917 C 0.61251 0.06849 0.99093 0.0
C918 C 0.58284 0.05315 0.99903 0.0
H919 H 0.49073 0.05639 0.97423 0.0
H920 H 0.53061 0.07215 0.97718 0.0
H921 H 0.51115 0.04959 0.9497 0.0
H922 H 0.54907 0.03494 0.94009 0.0
H923 H 0.60114 0.06197 0.92581 0.0
H924 H 0.52504 0.93337 0.42755 0.0
H925 H 0.50277 0.96361 0.44042 0.0
H926 H 0.51627 0.95097 0.52052 0.0
H927 H 0.53859 0.92102 0.50794 0.0
H928 H 0.45437 0.95311 0.47556 0.0
H929 H 0.56532 0.04285 0.50897 0.0
H930 H 0.5608 0.01274 0.48835 0.0
H931 H 0.55365 0.00663 0.52239 0.0
C932 C 0.52255 0.93641 0.4479 0.0
C933 C 0.53384 0.92512 0.46673 0.0
C934 C 0.51003 0.95383 0.4552 0.0
C935 C 0.5087 0.96011 0.48137 0.0
C936 C 0.5178 0.94692 0.50021 0.0
H937 H 0.45153 0.06166 0.57186 0.0
H938 H 0.47668 0.03553 0.55545 0.0
C939 C 0.53034 0.92964 0.49297 0.0
C940 C 0.49918 0.98155 0.48911 0.0
H941 H 0.52371 0.04861 0.51913 0.0
C942 C 0.46952 0.9741 0.48488 0.0
C943 C 0.51913 0.0089 0.50127 0.0
C944 C 0.55159 0.01848 0.50535 0.0
C945 C 0.45896 0.99293 0.49324 0.0
C946 C 0.47885 0.02016 0.50564 0.0
C947 C 0.50861 0.02775 0.50959 0.0
C948 C 0.46869 0.0405 0.51523 0.0
C949 C 0.42639 0.98307 0.48946 0.0
C950 C 0.45758 0.05343 0.49797 0.0
C951 C 0.44326 0.0683 0.50725 0.0
C952 C 0.44004 0.07068 0.53396 0.0
C953 C 0.45371 0.06021 0.55119 0.0
C954 C 0.46792 0.04513 0.54185 0.0
H955 H 0.41288 0.95885 0.4851 0.0
H956 H 0.41705 0.98788 0.5069 0.0
H957 H 0.42409 -0.00449 0.473 0.0
H958 H 0.45864 0.05068 0.47733 0.0
H959 H 0.43318 0.07641 0.4935 0.0
H960 H 0.90451 0.35767 0.5 0.0
H961 H 0.93036 0.40958 0.48565 0.0
H962 H 0.95139 0.43903 0.5646 0.0
H963 H 0.92539 0.38699 0.57925 0.0
H964 H 0.93521 0.47466 0.52983 0.0
H965 H 0.02392 0.45438 0.49142 0.0
H966 H 0.98654 0.42871 0.4809 0.0
H967 H -0.00377 0.42965 0.51431 0.0
C968 C 0.91395 0.37517 0.5144 0.0
C969 C 0.91326 0.36826 0.54074 0.0
C970 C 0.92884 0.40479 0.50613 0.0
C971 C 0.94334 0.42795 0.52404 0.0
C972 C 0.9405 0.42132 0.55051 0.0
H973 H 0.05978 0.619 0.51349 0.0
H974 H 0.03076 0.56727 0.52791 0.0
C975 C 0.92552 0.39161 0.55885 0.0
C976 C 0.96348 0.45872 0.51497 0.0
H977 H 0.02929 0.50173 0.48323 0.0
C978 C 0.95581 0.48067 0.5197 0.0
C979 C 0.9903 0.46631 0.50174 0.0
C980 C -2e-05 0.44364 0.49691 0.0
C981 C 0.97411 0.5101 0.51115 0.0
C982 C 0.00107 0.51777 0.49807 0.0
C983 C 0.00865 0.49575 0.49328 0.0
C984 C 0.02171 0.54865 0.48939 0.0
C985 C 0.96412 0.53258 0.51572 0.0
C986 C 0.02787 0.55513 0.46302 0.0
C987 C 0.04488 0.58474 0.45469 0.0
C988 C 0.05587 0.60819 0.47267 0.0
C989 C 0.05134 0.60141 0.49915 0.0
C990 C 0.03455 0.57189 0.50743 0.0
H991 H 0.93977 0.52155 0.51962 0.0
H992 H 0.97601 0.5464 0.53278 0.0
H993 H 0.96938 0.54765 0.49885 0.0
H994 H 0.01841 0.53739 0.44883 0.0
H995 H 0.04795 0.5893 0.43417 0.0
H996 H 0.3965 0.45894 0.42293 0.0
H997 H 0.44886 0.48179 0.43641 0.0
H998 H 0.42143 0.46649 0.51618 0.0
H999 H 0.36928 0.44359 0.50299 0.0
H1000 H 0.48557 0.52984 0.47216 0.0
H1001 H 0.46597 0.41913 0.50465 0.0
H1002 H 0.44029 0.42336 0.48389 0.0
H1003 H 0.44079 0.43004 0.51797 0.0
C1004 C 0.40169 0.46114 0.44335 0.0
C1005 C 0.37879 0.44919 0.4619 0.0
C1006 C 0.43156 0.474 0.451 0.0
C1007 C 0.4388 0.47502 0.47723 0.0
C1008 C 0.41616 0.46522 0.49581 0.0
H1009 H 0.59761 0.53326 0.56827 0.0
H1010 H 0.54635 0.50763 0.55177 0.0
C1011 C 0.3864 0.45235 0.48823 0.0
C1012 C 0.46978 0.48497 0.48527 0.0
H1013 H 0.51297 0.46107 0.51509 0.0
C1014 C 0.49168 0.51482 0.48136 0.0
C1015 C 0.47752 0.46519 0.49728 0.0
C1016 C 0.45501 0.43256 0.50104 0.0
C1017 C 0.52109 0.52572 0.48984 0.0
C1018 C 0.5288 0.50599 0.50202 0.0
C1019 C 0.50694 0.47605 0.50571 0.0
C1020 C 0.55938 0.51646 0.5116 0.0
C1021 C 0.54343 0.55846 0.48638 0.0
C1022 C 0.58349 0.5282 0.49438 0.0
C1023 C 0.61268 0.54281 0.50371 0.0
C1024 C 0.6182 0.54566 0.53043 0.0
C1025 C 0.59404 0.53136 0.54759 0.0
C1026 C 0.56476 0.51688 0.5382 0.0
H1027 H 0.53237 0.5717 0.48229 0.0
H1028 H 0.55753 0.56771 0.50388 0.0
H1029 H 0.55827 0.56127 0.46987 0.0
H1030 H 0.57972 0.52743 0.47375 0.0
H1031 H 0.63088 0.55338 0.49002 0.0
loop_
_geom_bond_atom_site_label_1
_geom_bond_atom_site_label_2
_geom_bond_distance
_geom_bond_site_symmetry_2
_ccdc_geom_bond_type
O0 Cd1 2.223 . S
O0 C8 1.315 . S
Cd1 O0 2.223 . S
Cd1 O4 2.297 . S
Cd1 O5 2.439 . S
Cd1 O11 2.240 . S
Cd2 O3 2.240 . S
Cd2 O10 2.223 . S
Cd2 O12 2.297 . S
Cd2 O13 2.439 . S
O3 Cd2 2.240 . S
O3 C8 1.279 . S
O4 Cd1 2.297 . S
O4 C6 1.247 . S
O5 Cd1 2.439 . S
O5 C6 1.208 . S
C6 O4 1.247 . S
C6 O5 1.208 . S
C7 O12 1.247 . S
C7 O13 1.208 . S
C8 O0 1.315 . S
C8 O3 1.279 . S
C9 O10 1.315 . S
C9 O11 1.279 . S
O10 Cd2 2.223 . S
O10 C9 1.315 . S
O11 Cd1 2.240 . S
O11 C9 1.279 . S
O12 Cd2 2.297 . S
O12 C7 1.247 . S
O13 Cd2 2.439 . S
O13 C7 1.208 . S
O14 Cd15 2.223 . S
O14 C22 1.315 . S
Cd15 O14 2.223 . S
Cd15 O18 2.297 . S
Cd15 O19 2.439 . S
Cd15 O25 2.240 . S
Cd16 O17 2.240 . S
Cd16 O24 2.223 . S
Cd16 O26 2.297 . S
Cd16 O27 2.439 . S
O17 Cd16 2.240 . S
O17 C22 1.279 . S
O18 Cd15 2.297 . S
O18 C20 1.247 . S
O19 Cd15 2.439 . S
O19 C20 1.208 . S
C20 O18 1.247 . S
C20 O19 1.208 . S
C21 O26 1.247 . S
C21 O27 1.208 . S
C22 O14 1.315 . S
C22 O17 1.279 . S
C23 O24 1.315 . S
C23 O25 1.279 . S
O24 Cd16 2.223 . S
O24 C23 1.315 . S
O25 Cd15 2.240 . S
O25 C23 1.279 . S
O26 Cd16 2.297 . S
O26 C21 1.247 . S
O27 Cd16 2.439 . S
O27 C21 1.208 . S
O28 Cd29 2.223 . S
O28 C36 1.315 . S
Cd29 O28 2.223 . S
Cd29 O32 2.297 . S
Cd29 O33 2.439 . S
Cd29 O39 2.240 . S
Cd30 O31 2.240 . S
Cd30 O38 2.223 . S
Cd30 O40 2.297 . S
Cd30 O41 2.439 . S
O31 Cd30 2.240 . S
O31 C36 1.279 . S
O32 Cd29 2.297 . S
O32 C34 1.247 . S
O33 Cd29 2.439 . S
O33 C34 1.208 . S
C34 O32 1.247 . S
C34 O33 1.208 . S
C35 O40 1.247 . S
C35 O41 1.208 . S
C36 O28 1.315 . S
C36 O31 1.279 . S
C37 O38 1.315 . S
C37 O39 1.279 . S
O38 Cd30 2.223 . S
O38 C37 1.315 . S
O39 Cd29 2.240 . S
O39 C37 1.279 . S
O40 Cd30 2.297 . S
O40 C35 1.247 . S
O41 Cd30 2.439 . S
O41 C35 1.208 . S
O42 Cd43 2.223 . S
O42 C50 1.315 . S
Cd43 O42 2.223 . S
Cd43 O46 2.297 . S
Cd43 O47 2.439 . S
Cd43 O53 2.240 . S
Cd44 O45 2.240 . S
Cd44 O52 2.223 . S
Cd44 O54 2.297 . S
Cd44 O55 2.439 . S
O45 Cd44 2.240 . S
O45 C50 1.279 . S
O46 Cd43 2.297 . S
O46 C48 1.247 . S
O47 Cd43 2.439 . S
O47 C48 1.208 . S
C48 O46 1.247 . S
C48 O47 1.208 . S
C49 O54 1.247 . S
C49 O55 1.208 . S
C50 O42 1.315 . S
C50 O45 1.279 . S
C51 O52 1.315 . S
C51 O53 1.279 . S
O52 Cd44 2.223 . S
O52 C51 1.315 . S
O53 Cd43 2.240 . S
O53 C51 1.279 . S
O54 Cd44 2.297 . S
O54 C49 1.247 . S
O55 Cd44 2.439 . S
O55 C49 1.208 . S
O56 Cd57 2.223 . S
O56 C64 1.315 . S
Cd57 O56 2.223 . S
Cd57 O60 2.297 . S
Cd57 O61 2.439 . S
Cd57 O67 2.240 . S
Cd58 O59 2.240 . S
Cd58 O66 2.223 . S
Cd58 O68 2.297 . S
Cd58 O69 2.439 . S
O59 Cd58 2.240 . S
O59 C64 1.279 . S
O60 Cd57 2.297 . S
O60 C62 1.247 . S
O61 Cd57 2.439 . S
O61 C62 1.208 . S
C62 O60 1.247 . S
C62 O61 1.208 . S
C63 O68 1.247 . S
C63 O69 1.208 . S
C64 O56 1.315 . S
C64 O59 1.279 . S
C65 O66 1.315 . S
C65 O67 1.279 . S
O66 Cd58 2.223 . S
O66 C65 1.315 . S
O67 Cd57 2.240 . S
O67 C65 1.279 . S
O68 Cd58 2.297 . S
O68 C63 1.247 . S
O69 Cd58 2.439 . S
O69 C63 1.208 . S
O70 Cd71 2.223 . S
O70 C78 1.315 . S
Cd71 O70 2.223 . S
Cd71 O74 2.297 . S
Cd71 O75 2.439 . S
Cd71 O81 2.240 . S
Cd72 O73 2.240 . S
Cd72 O80 2.223 . S
Cd72 O82 2.297 . S
Cd72 O83 2.439 . S
O73 Cd72 2.240 . S
O73 C78 1.279 . S
O74 Cd71 2.297 . S
O74 C76 1.247 . S
O75 Cd71 2.439 . S
O75 C76 1.208 . S
C76 O74 1.247 . S
C76 O75 1.208 . S
C77 O82 1.247 . S
C77 O83 1.208 . S
C78 O70 1.315 . S
C78 O73 1.279 . S
C79 O80 1.315 . S
C79 O81 1.279 . S
O80 Cd72 2.223 . S
O80 C79 1.315 . S
O81 Cd71 2.240 . S
O81 C79 1.279 . S
O82 Cd72 2.297 . S
O82 C77 1.247 . S
O83 Cd72 2.439 . S
O83 C77 1.208 . S
O84 Cd85 2.223 . S
O84 C92 1.315 . S
Cd85 O84 2.223 . S
Cd85 O88 2.297 . S
Cd85 O89 2.439 . S
Cd85 O95 2.240 . S
Cd86 O87 2.240 . S
Cd86 O94 2.223 . S
Cd86 O96 2.297 . S
Cd86 O97 2.439 . S
O87 Cd86 2.240 . S
O87 C92 1.279 . S
O88 Cd85 2.297 . S
O88 C90 1.247 . S
O89 Cd85 2.439 . S
O89 C90 1.208 . S
C90 O88 1.247 . S
C90 O89 1.208 . S
C91 O96 1.247 . S
C91 O97 1.208 . S
C92 O84 1.315 . S
C92 O87 1.279 . S
C93 O94 1.315 . S
C93 O95 1.279 . S
O94 Cd86 2.223 . S
O94 C93 1.315 . S
O95 Cd85 2.240 . S
O95 C93 1.279 . S
O96 Cd86 2.297 . S
O96 C91 1.247 . S
O97 Cd86 2.439 . S
O97 C91 1.208 . S
O98 Cd99 2.223 . S
O98 C106 1.315 . S
Cd99 O98 2.223 . S
Cd99 O102 2.297 . S
Cd99 O103 2.439 . S
Cd99 O109 2.240 . S
Cd100 O101 2.240 . S
Cd100 O108 2.223 . S
Cd100 O110 2.297 . S
Cd100 O111 2.439 . S
O101 Cd100 2.240 . S
O101 C106 1.279 . S
O102 Cd99 2.297 . S
O102 C104 1.247 . S
O103 Cd99 2.439 . S
O103 C104 1.208 . S
C104 O102 1.247 . S
C104 O103 1.208 . S
C105 O110 1.247 . S
C105 O111 1.208 . S
C106 O98 1.315 . S
C106 O101 1.279 . S
C107 O108 1.315 . S
C107 O109 1.279 . S
O108 Cd100 2.223 . S
O108 C107 1.315 . S
O109 Cd99 2.240 . S
O109 C107 1.279 . S
O110 Cd100 2.297 . S
O110 C105 1.247 . S
O111 Cd100 2.439 . S
O111 C105 1.208 . S
O112 Cd113 2.223 . S
O112 C120 1.315 . S
Cd113 O112 2.223 . S
Cd113 O116 2.297 . S
Cd113 O117 2.439 . S
Cd113 O123 2.240 . S
Cd114 O115 2.240 . S
Cd114 O122 2.223 . S
Cd114 O124 2.297 . S
Cd114 O125 2.439 . S
O115 Cd114 2.240 . S
O115 C120 1.279 . S
O116 Cd113 2.297 . S
O116 C118 1.247 . S
O117 Cd113 2.439 . S
O117 C118 1.208 . S
C118 O116 1.247 . S
C118 O117 1.208 . S
C119 O124 1.247 . S
C119 O125 1.208 . S
C120 O112 1.315 . S
C120 O115 1.279 . S
C121 O122 1.315 . S
C121 O123 1.279 . S
O122 Cd114 2.223 . S
O122 C121 1.315 . S
O123 Cd113 2.240 . S
O123 C121 1.279 . S
O124 Cd114 2.297 . S
O124 C119 1.247 . S
O125 Cd114 2.439 . S
O125 C119 1.208 . S
O126 Cd127 2.223 . S
O126 C134 1.315 . S
Cd127 O126 2.223 . S
Cd127 O130 2.297 . S
Cd127 O131 2.439 . S
Cd127 O137 2.240 . S
Cd128 O129 2.240 . S
Cd128 O136 2.223 . S
Cd128 O138 2.297 . S
Cd128 O139 2.439 . S
O129 Cd128 2.240 . S
O129 C134 1.279 . S
O130 Cd127 2.297 . S
O130 C132 1.247 . S
O131 Cd127 2.439 . S
O131 C132 1.208 . S
C132 O130 1.247 . S
C132 O131 1.208 . S
C133 O138 1.247 . S
C133 O139 1.208 . S
C134 O126 1.315 . S
C134 O129 1.279 . S
C135 O136 1.315 . S
C135 O137 1.279 . S
O136 Cd128 2.223 . S
O136 C135 1.315 . S
O137 Cd127 2.240 . S
O137 C135 1.279 . S
O138 Cd128 2.297 . S
O138 C133 1.247 . S
O139 Cd128 2.439 . S
O139 C133 1.208 . S
O140 Cd141 2.223 . S
O140 C148 1.315 . S
Cd141 O140 2.223 . S
Cd141 O144 2.297 . S
Cd141 O145 2.439 . S
Cd141 O151 2.240 . S
Cd142 O143 2.240 . S
Cd142 O150 2.223 . S
Cd142 O152 2.297 . S
Cd142 O153 2.439 . S
O143 Cd142 2.240 . S
O143 C148 1.279 . S
O144 Cd141 2.297 . S
O144 C146 1.247 . S
O145 Cd141 2.439 . S
O145 C146 1.208 . S
C146 O144 1.247 . S
C146 O145 1.208 . S
C147 O152 1.247 . S
C147 O153 1.208 . S
C148 O140 1.315 . S
C148 O143 1.279 . S
C149 O150 1.315 . S
C149 O151 1.279 . S
O150 Cd142 2.223 . S
O150 C149 1.315 . S
O151 Cd141 2.240 . S
O151 C149 1.279 . S
O152 Cd142 2.297 . S
O152 C147 1.247 . S
O153 Cd142 2.439 . S
O153 C147 1.208 . S
O154 Cd155 2.223 . S
O154 C162 1.315 . S
Cd155 O154 2.223 . S
Cd155 O158 2.297 . S
Cd155 O159 2.439 . S
Cd155 O165 2.240 . S
Cd156 O157 2.240 . S
Cd156 O164 2.223 . S
Cd156 O166 2.297 . S
Cd156 O167 2.439 . S
O157 Cd156 2.240 . S
O157 C162 1.279 . S
O158 Cd155 2.297 . S
O158 C160 1.247 . S
O159 Cd155 2.439 . S
O159 C160 1.208 . S
C160 O158 1.247 . S
C160 O159 1.208 . S
C161 O166 1.247 . S
C161 O167 1.208 . S
C162 O154 1.315 . S
C162 O157 1.279 . S
C163 O164 1.315 . S
C163 O165 1.279 . S
O164 Cd156 2.223 . S
O164 C163 1.315 . S
O165 Cd155 2.240 . S
O165 C163 1.279 . S
O166 Cd156 2.297 . S
O166 C161 1.247 . S
O167 Cd156 2.439 . S
O167 C161 1.208 . S
H168 C176 0.929 . S
H169 C178 0.930 . S
H170 C180 0.930 1_556 S
H171 C183 0.929 . S
H172 C186 0.930 . S
H173 C188 0.960 . S
H174 C188 0.960 . S
H175 C188 0.960 . S
C176 H168 0.929 . S
C176 C177 1.377 . S
C176 C178 1.384 . S
C177 C176 1.377 . S
C177 C183 1.390 . S
C178 H169 0.930 . S
C178 C176 1.384 . S
C178 C179 1.372 . S
C179 C178 1.372 . S
C179 C180 1.400 . S
C179 C184 1.490 . S
C180 H170 0.930 1_554 S
C180 C179 1.400 . S
C180 C183 1.386 . S
H181 C197 0.930 . S
H182 C198 0.931 . S
C183 H171 0.929 . S
C183 C177 1.390 . S
C183 C180 1.386 . S
C184 C179 1.490 . S
C184 C186 1.395 . S
C184 C187 1.403 1_554 S
H185 C191 0.930 . S
C186 H172 0.930 . S
C186 C184 1.395 . S
C186 C189 1.403 . S
C187 C184 1.403 1_556 S
C187 C188 1.524 . S
C187 C191 1.400 . S
C188 H173 0.960 . S
C188 H174 0.960 . S
C188 H175 0.960 . S
C188 C187 1.524 . S
C189 C186 1.403 . S
C189 C190 1.392 1_554 S
C189 C193 1.495 . S
C190 C189 1.392 1_556 S
C190 C191 1.385 . S
C190 C192 1.478 . S
C191 H185 0.930 . S
C191 C187 1.400 . S
C191 C190 1.385 . S
C192 C190 1.478 . S
C192 C194 1.381 . S
C192 C198 1.383 . S
C193 C189 1.495 . S
C193 H199 0.959 . S
C193 H200 0.961 . S
C193 H201 0.960 . S
C194 C192 1.381 . S
C194 C195 1.394 . S
C194 H202 0.930 1_556 S
C195 C194 1.394 . S
C195 C196 1.383 . S
C195 H203 0.929 . S
C196 C195 1.383 . S
C196 C197 1.377 . S
C197 H181 0.930 . S
C197 C196 1.377 . S
C197 C198 1.379 . S
C198 H182 0.931 . S
C198 C192 1.383 . S
C198 C197 1.379 . S
H199 C193 0.959 . S
H200 C193 0.961 . S
H201 C193 0.960 . S
H202 C194 0.930 1_554 S
H203 C195 0.929 . S
H204 C212 0.929 . S
H205 C214 0.930 . S
H206 C216 0.930 . S
H207 C219 0.929 . S
H208 C222 0.930 . S
H209 C224 0.960 . S
H210 C224 0.960 . S
H211 C224 0.960 . S
C212 H204 0.929 . S
C212 C213 1.377 . S
C212 C214 1.384 . S
C213 C212 1.377 . S
C213 C219 1.390 . S
C214 H205 0.930 . S
C214 C212 1.384 . S
C214 C215 1.372 . S
C215 C214 1.372 . S
C215 C216 1.400 . S
C215 C220 1.490 . S
C216 H206 0.930 . S
C216 C215 1.400 . S
C216 C219 1.386 . S
H217 C233 0.930 . S
H218 C234 0.953 . S
C219 H207 0.929 . S
C219 C213 1.390 . S
C219 C216 1.386 . S
C220 C215 1.490 . S
C220 C222 1.395 . S
C220 C223 1.403 1_554 S
H221 C227 0.930 . S
C222 H208 0.930 . S
C222 C220 1.395 . S
C222 C225 1.403 . S
C223 C220 1.403 1_556 S
C223 C224 1.524 . S
C223 C227 1.400 . S
C224 H209 0.960 . S
C224 H210 0.960 . S
C224 H211 0.960 . S
C224 C223 1.524 . S
C225 C222 1.403 . S
C225 C226 1.392 1_554 S
C225 C229 1.495 . S
C226 C225 1.392 1_556 S
C226 C227 1.385 . S
C226 C228 1.478 . S
C227 H221 0.930 . S
C227 C223 1.400 . S
C227 C226 1.385 . S
C228 C226 1.478 . S
C228 C230 1.381 . S
C228 C234 1.383 . S
C229 C225 1.495 . S
C229 H235 0.959 . S
C229 H236 0.961 . S
C229 H237 0.960 . S
C230 C228 1.381 . S
C230 C231 1.394 . S
C230 H238 0.930 . S
C231 C230 1.394 . S
C231 C232 1.383 1_565 S
C231 H239 0.929 . S
C232 C231 1.383 1_545 S
C232 C233 1.377 . S
C233 H217 0.930 . S
C233 C232 1.377 . S
C233 C234 1.379 1_545 S
C234 H218 0.953 . S
C234 C228 1.383 . S
C234 C233 1.379 1_565 S
H235 C229 0.959 . S
H236 C229 0.961 . S
H237 C229 0.960 . S
H238 C230 0.930 . S
H239 C231 0.929 . S
H240 C248 0.929 . S
H241 C250 0.930 1_556 S
H242 C252 0.930 . S
H243 C255 0.929 . S
H244 C258 0.930 . S
H245 C260 0.960 . S
H246 C260 0.960 . S
H247 C260 0.960 . S
C248 H240 0.929 . S
C248 C249 1.377 . S
C248 C250 1.384 . S
C249 C248 1.377 . S
C249 C255 1.390 . S
C250 H241 0.930 1_554 S
C250 C248 1.384 . S
C250 C251 1.372 . S
C251 C250 1.372 . S
C251 C252 1.400 . S
C251 C256 1.490 . S
C252 H242 0.930 . S
C252 C251 1.400 . S
C252 C255 1.386 . S
H253 C269 0.930 . S
H254 C270 0.931 1_554 S
C255 H243 0.929 . S
C255 C249 1.390 . S
C255 C252 1.386 . S
C256 C251 1.490 . S
C256 C258 1.395 1_554 S
C256 C259 1.403 . S
H257 C263 0.930 . S
C258 H244 0.930 . S
C258 C256 1.395 1_556 S
C258 C261 1.403 . S
C259 C256 1.403 . S
C259 C260 1.524 . S
C259 C263 1.400 . S
C260 H245 0.960 . S
C260 H246 0.960 . S
C260 H247 0.960 . S
C260 C259 1.524 . S
C261 C258 1.403 . S
C261 C262 1.392 . S
C261 C265 1.495 . S
C262 C261 1.392 . S
C262 C263 1.385 1_556 S
C262 C264 1.478 . S
C263 H257 0.930 . S
C263 C259 1.400 . S
C263 C262 1.385 1_554 S
C264 C262 1.478 . S
C264 C266 1.381 . S
C264 C270 1.383 . S
C265 C261 1.495 . S
C265 H271 0.959 . S
C265 H272 0.961 . S
C265 H273 0.960 . S
C266 C264 1.381 . S
C266 C267 1.394 . S
C266 H274 0.930 . S
C267 C266 1.394 . S
C267 C268 1.383 1_455 S
C267 H275 0.929 . S
C268 C267 1.383 1_655 S
C268 C269 1.377 . S
C269 H253 0.930 . S
C269 C268 1.377 . S
C269 C270 1.379 1_655 S
C270 H254 0.931 1_556 S
C270 C264 1.383 . S
C270 C269 1.379 1_455 S
H271 C265 0.959 . S
H272 C265 0.961 . S
H273 C265 0.960 . S
H274 C266 0.930 . S
H275 C267 0.929 . S
H276 C284 0.929 . S
H277 C286 0.930 . S
H278 C288 0.930 . S
H279 C291 0.929 . S
H280 C294 0.930 . S
H281 C296 0.960 . S
H282 C296 0.960 . S
H283 C296 0.960 . S
C284 H276 0.929 . S
C284 C285 1.377 . S
C284 C286 1.384 . S
C285 C284 1.377 . S
C285 C291 1.390 . S
C286 H277 0.930 . S
C286 C284 1.384 . S
C286 C287 1.372 . S
C287 C286 1.372 . S
C287 C288 1.400 . S
C287 C292 1.490 . S
C288 H278 0.930 . S
C288 C287 1.400 . S
C288 C291 1.386 . S
H289 C305 0.930 . S
H290 C306 0.931 . S
C291 H279 0.929 . S
C291 C285 1.390 . S
C291 C288 1.386 . S
C292 C287 1.490 . S
C292 C294 1.395 . S
C292 C295 1.403 . S
H293 C299 0.930 . S
C294 H280 0.930 . S
C294 C292 1.395 . S
C294 C297 1.403 . S
C295 C292 1.403 . S
C295 C296 1.524 . S
C295 C299 1.400 . S
C296 H281 0.960 . S
C296 H282 0.960 . S
C296 H283 0.960 . S
C296 C295 1.524 . S
C297 C294 1.403 . S
C297 C298 1.392 . S
C297 C301 1.495 . S
C298 C297 1.392 . S
C298 C299 1.385 . S
C298 C300 1.478 . S
C299 H293 0.930 . S
C299 C295 1.400 . S
C299 C298 1.385 . S
C300 C298 1.478 . S
C300 C302 1.381 . S
C300 C306 1.383 . S
C301 C297 1.495 . S
C301 H307 0.959 . S
C301 H308 0.961 . S
C301 H309 0.960 . S
C302 C300 1.381 . S
C302 C303 1.394 . S
C302 H310 0.930 . S
C303 C302 1.394 . S
C303 C304 1.383 . S
C303 H311 0.929 . S
C304 C303 1.383 . S
C304 C305 1.377 . S
C305 H289 0.930 . S
C305 C304 1.377 . S
C305 C306 1.379 . S
C306 H290 0.931 . S
C306 C300 1.383 . S
C306 C305 1.379 . S
H307 C301 0.959 . S
H308 C301 0.961 . S
H309 C301 0.960 . S
H310 C302 0.930 . S
H311 C303 0.929 . S
H312 C320 0.929 . S
H313 C322 0.930 . S
H314 C324 0.930 . S
H315 C327 0.929 . S
H316 C330 0.930 . S
H317 C332 0.960 . S
H318 C332 0.960 . S
H319 C332 0.960 . S
C320 H312 0.929 . S
C320 C321 1.377 . S
C320 C322 1.384 . S
C321 C320 1.377 . S
C321 C327 1.390 . S
C322 H313 0.930 . S
C322 C320 1.384 . S
C322 C323 1.372 . S
C323 C322 1.372 . S
C323 C324 1.400 . S
C323 C328 1.490 . S
C324 H314 0.930 . S
C324 C323 1.400 . S
C324 C327 1.386 . S
H325 C341 0.930 . S
H326 C342 0.931 . S
C327 H315 0.929 . S
C327 C321 1.390 . S
C327 C324 1.386 . S
C328 C323 1.490 . S
C328 C330 1.395 . S
C328 C331 1.403 . S
H329 C335 0.930 . S
C330 H316 0.930 . S
C330 C328 1.395 . S
C330 C333 1.403 . S
C331 C328 1.403 . S
C331 C332 1.524 . S
C331 C335 1.400 . S
C332 H317 0.960 . S
C332 H318 0.960 . S
C332 H319 0.960 . S
C332 C331 1.524 . S
C333 C330 1.403 . S
C333 C334 1.392 . S
C333 C337 1.495 . S
C334 C333 1.392 . S
C334 C335 1.385 . S
C334 C336 1.478 . S
C335 H329 0.930 . S
C335 C331 1.400 . S
C335 C334 1.385 . S
C336 C334 1.478 . S
C336 C338 1.381 . S
C336 C342 1.383 . S
C337 C333 1.495 . S
C337 H343 0.959 . S
C337 H344 0.961 . S
C337 H345 0.960 . S
C338 C336 1.381 . S
C338 C339 1.394 . S
C338 H346 0.930 . S
C339 C338 1.394 . S
C339 C340 1.383 1_565 S
C339 H347 0.929 . S
C340 C339 1.383 1_545 S
C340 C341 1.377 . S
C341 H325 0.930 . S
C341 C340 1.377 . S
C341 C342 1.379 1_545 S
C342 H326 0.931 . S
C342 C336 1.383 . S
C342 C341 1.379 1_565 S
H343 C337 0.959 . S
H344 C337 0.961 . S
H345 C337 0.960 . S
H346 C338 0.930 . S
H347 C339 0.929 . S
H348 C356 0.929 . S
H349 C358 0.930 . S
H350 C360 0.930 . S
H351 C363 0.929 . S
H352 C366 0.930 . S
H353 C368 0.960 . S
H354 C368 0.960 . S
H355 C368 0.960 . S
C356 H348 0.929 . S
C356 C357 1.377 . S
C356 C358 1.384 1_655 S
C357 C356 1.377 . S
C357 C363 1.390 1_655 S
C358 H349 0.930 . S
C358 C356 1.384 1_455 S
C358 C359 1.372 . S
C359 C358 1.372 . S
C359 C360 1.400 . S
C359 C364 1.490 . S
C360 H350 0.930 . S
C360 C359 1.400 . S
C360 C363 1.386 . S
H361 C377 0.930 . S
H362 C378 0.931 . S
C363 H351 0.929 . S
C363 C357 1.390 1_455 S
C363 C360 1.386 . S
C364 C359 1.490 . S
C364 C366 1.395 . S
C364 C367 1.403 . S
H365 C371 0.930 . S
C366 H352 0.930 . S
C366 C364 1.395 . S
C366 C369 1.403 . S
C367 C364 1.403 . S
C367 C368 1.524 . S
C367 C371 1.400 . S
C368 H353 0.960 . S
C368 H354 0.960 . S
C368 H355 0.960 . S
C368 C367 1.524 . S
C369 C366 1.403 . S
C369 C370 1.392 . S
C369 C373 1.495 . S
C370 C369 1.392 . S
C370 C371 1.385 . S
C370 C372 1.478 . S
C371 H365 0.930 . S
C371 C367 1.400 . S
C371 C370 1.385 . S
C372 C370 1.478 . S
C372 C374 1.381 . S
C372 C378 1.383 . S
C373 C369 1.495 . S
C373 H379 0.959 . S
C373 H380 0.961 . S
C373 H381 0.960 . S
C374 C372 1.381 . S
C374 C375 1.394 . S
C374 H382 0.930 . S
C375 C374 1.394 . S
C375 C376 1.383 . S
C375 H383 0.929 . S
C376 C375 1.383 . S
C376 C377 1.377 . S
C377 H361 0.930 . S
C377 C376 1.377 . S
C377 C378 1.379 . S
C378 H362 0.931 . S
C378 C372 1.383 . S
C378 C377 1.379 . S
H379 C373 0.959 . S
H380 C373 0.961 . S
H381 C373 0.960 . S
H382 C374 0.930 . S
H383 C375 0.929 . S
H384 C392 0.929 . S
H385 C394 0.930 . S
H386 C396 0.930 . S
H387 C399 0.929 . S
H388 C402 0.930 . S
H389 C404 0.960 . S
H390 C404 0.960 . S
H391 C404 0.960 . S
C392 H384 0.929 . S
C392 C393 1.377 . S
C392 C394 1.384 . S
C393 C392 1.377 . S
C393 C399 1.390 . S
C394 H385 0.930 . S
C394 C392 1.384 . S
C394 C395 1.372 . S
C395 C394 1.372 . S
C395 C396 1.400 . S
C395 C400 1.490 . S
C396 H386 0.930 . S
C396 C395 1.400 . S
C396 C399 1.386 . S
H397 C413 0.930 . S
H398 C414 0.931 . S
C399 H387 0.929 . S
C399 C393 1.390 . S
C399 C396 1.386 . S
C400 C395 1.490 . S
C400 C402 1.395 . S
C400 C403 1.403 1_554 S
H401 C407 0.930 . S
C402 H388 0.930 . S
C402 C400 1.395 . S
C402 C405 1.403 . S
C403 C400 1.403 1_556 S
C403 C404 1.524 . S
C403 C407 1.400 . S
C404 H389 0.960 . S
C404 H390 0.960 . S
C404 H391 0.960 . S
C404 C403 1.524 . S
C405 C402 1.403 . S
C405 C406 1.392 1_554 S
C405 C409 1.495 . S
C406 C405 1.392 1_556 S
C406 C407 1.385 . S
C406 C408 1.478 . S
C407 H401 0.930 . S
C407 C403 1.400 . S
C407 C406 1.385 . S
C408 C406 1.478 . S
C408 C410 1.381 . S
C408 C414 1.383 . S
C409 C405 1.495 . S
C409 H415 0.959 . S
C409 H416 0.961 . S
C409 H417 0.960 . S
C410 C408 1.381 . S
C410 C411 1.394 . S
C410 H418 0.930 . S
C411 C410 1.394 . S
C411 C412 1.383 . S
C411 H419 0.929 . S
C412 C411 1.383 . S
C412 C413 1.377 . S
C413 H397 0.930 . S
C413 C412 1.377 . S
C413 C414 1.379 . S
C414 H398 0.931 . S
C414 C408 1.383 . S
C414 C413 1.379 . S
H415 C409 0.959 . S
H416 C409 0.961 . S
H417 C409 0.960 . S
H418 C410 0.930 . S
H419 C411 0.929 . S
H420 C428 0.929 . S
H421 C430 0.930 . S
H422 C432 0.930 . S
H423 C435 0.929 . S
H424 C438 0.930 . S
H425 C440 0.960 . S
H426 C440 0.960 . S
H427 C440 0.960 . S
C428 H420 0.929 . S
C428 C429 1.377 . S
C428 C430 1.384 . S
C429 C428 1.377 . S
C429 C435 1.390 . S
C430 H421 0.930 . S
C430 C428 1.384 . S
C430 C431 1.372 . S
C431 C430 1.372 . S
C431 C432 1.400 . S
C431 C436 1.490 . S
C432 H422 0.930 . S
C432 C431 1.400 . S
C432 C435 1.386 . S
H433 C449 0.932 . S
H434 C450 0.931 . S
C435 H423 0.929 . S
C435 C429 1.390 . S
C435 C432 1.386 . S
C436 C431 1.490 . S
C436 C438 1.395 . S
C436 C439 1.403 1_556 S
H437 C443 0.930 . S
C438 H424 0.930 . S
C438 C436 1.395 . S
C438 C441 1.403 . S
C439 C436 1.403 1_554 S
C439 C440 1.524 . S
C439 C443 1.400 . S
C440 H425 0.960 . S
C440 H426 0.960 . S
C440 H427 0.960 . S
C440 C439 1.524 . S
C441 C438 1.403 . S
C441 C442 1.392 1_556 S
C441 C445 1.495 . S
C442 C441 1.392 1_554 S
C442 C443 1.385 . S
C442 C444 1.478 . S
C443 H437 0.930 . S
C443 C439 1.400 . S
C443 C442 1.385 . S
C444 C442 1.478 . S
C444 C446 1.381 . S
C444 C450 1.383 . S
C445 C441 1.495 . S
C445 H451 0.959 . S
C445 H452 0.961 . S
C445 H453 0.960 . S
C446 C444 1.381 . S
C446 C447 1.394 1_545 S
C446 H454 0.930 . S
C447 C446 1.394 1_565 S
C447 C448 1.383 . S
C447 H455 0.929 . S
C448 C447 1.383 . S
C448 C449 1.377 1_565 S
C449 H433 0.932 . S
C449 C448 1.377 1_545 S
C449 C450 1.379 . S
C450 H434 0.931 . S
C450 C444 1.383 . S
C450 C449 1.379 . S
H451 C445 0.959 . S
H452 C445 0.961 . S
H453 C445 0.960 . S
H454 C446 0.930 . S
H455 C447 0.929 . S
H456 C464 0.929 1_455 S
H457 C466 0.930 . S
H458 C468 0.930 1_556 S
H459 C471 0.929 . S
H460 C474 0.930 . S
H461 C476 0.960 . S
H462 C476 0.960 . S
H463 C476 0.960 . S
C464 H456 0.929 1_655 S
C464 C465 1.377 1_655 S
C464 C466 1.384 . S
C465 C464 1.377 1_455 S
C465 C471 1.390 . S
C466 H457 0.930 . S
C466 C464 1.384 . S
C466 C467 1.372 . S
C467 C466 1.372 . S
C467 C468 1.400 . S
C467 C472 1.490 . S
C468 H458 0.930 1_554 S
C468 C467 1.400 . S
C468 C471 1.386 1_655 S
H469 C485 0.930 . S
H470 C486 0.931 . S
C471 H459 0.929 . S
C471 C465 1.390 . S
C471 C468 1.386 1_455 S
C472 C467 1.490 . S
C472 C474 1.395 . S
C472 C475 1.403 1_554 S
H473 C479 0.930 . S
C474 H460 0.930 . S
C474 C472 1.395 . S
C474 C477 1.403 . S
C475 C472 1.403 1_556 S
C475 C476 1.524 . S
C475 C479 1.400 . S
C476 H461 0.960 . S
C476 H462 0.960 . S
C476 H463 0.960 . S
C476 C475 1.524 . S
C477 C474 1.403 . S
C477 C478 1.392 1_554 S
C477 C481 1.495 . S
C478 C477 1.392 1_556 S
C478 C479 1.385 . S
C478 C480 1.478 . S
C479 H473 0.930 . S
C479 C475 1.400 . S
C479 C478 1.385 . S
C480 C478 1.478 . S
C480 C482 1.381 . S
C480 C486 1.383 . S
C481 C477 1.495 . S
C481 H487 0.959 . S
C481 H488 0.961 . S
C481 H489 0.960 . S
C482 C480 1.381 . S
C482 C483 1.394 . S
C482 H490 0.930 1_556 S
C483 C482 1.394 . S
C483 C484 1.383 . S
C483 H491 0.929 . S
C484 C483 1.383 . S
C484 C485 1.377 . S
C485 H469 0.930 . S
C485 C484 1.377 . S
C485 C486 1.379 . S
C486 H470 0.931 . S
C486 C480 1.383 . S
C486 C485 1.379 . S
H487 C481 0.959 . S
H488 C481 0.961 . S
H489 C481 0.960 . S
H490 C482 0.930 1_554 S
H491 C483 0.929 . S
H492 C500 0.929 . S
H493 C502 0.930 . S
H494 C504 0.930 . S
H495 C507 0.929 . S
H496 C510 0.930 . S
H497 C512 0.960 . S
H498 C512 0.960 . S
H499 C512 0.960 . S
C500 H492 0.929 . S
C500 C501 1.377 . S
C500 C502 1.384 . S
C501 C500 1.377 . S
C501 C507 1.390 . S
C502 H493 0.930 . S
C502 C500 1.384 . S
C502 C503 1.372 . S
C503 C502 1.372 . S
C503 C504 1.400 . S
C503 C508 1.490 . S
C504 H494 0.930 . S
C504 C503 1.400 . S
C504 C507 1.386 . S
H505 C521 0.930 . S
H506 C522 0.931 . S
C507 H495 0.929 . S
C507 C501 1.390 . S
C507 C504 1.386 . S
C508 C503 1.490 . S
C508 C510 1.395 . S
C508 C511 1.403 . S
H509 C515 0.930 . S
C510 H496 0.930 . S
C510 C508 1.395 . S
C510 C513 1.403 . S
C511 C508 1.403 . S
C511 C512 1.524 . S
C511 C515 1.400 . S
C512 H497 0.960 . S
C512 H498 0.960 . S
C512 H499 0.960 . S
C512 C511 1.524 . S
C513 C510 1.403 . S
C513 C514 1.392 . S
C513 C517 1.495 . S
C514 C513 1.392 . S
C514 C515 1.385 . S
C514 C516 1.478 . S
C515 H509 0.930 . S
C515 C511 1.400 . S
C515 C514 1.385 . S
C516 C514 1.478 . S
C516 C518 1.381 . S
C516 C522 1.383 . S
C517 C513 1.495 . S
C517 H523 0.959 . S
C517 H524 0.961 . S
C517 H525 0.960 . S
C518 C516 1.381 . S
C518 C519 1.394 . S
C518 H526 0.930 . S
C519 C518 1.394 . S
C519 C520 1.383 . S
C519 H527 0.929 . S
C520 C519 1.383 . S
C520 C521 1.377 . S
C521 H505 0.930 . S
C521 C520 1.377 . S
C521 C522 1.379 . S
C522 H506 0.931 . S
C522 C516 1.383 . S
C522 C521 1.379 . S
H523 C517 0.959 . S
H524 C517 0.961 . S
H525 C517 0.960 . S
H526 C518 0.930 . S
H527 C519 0.929 . S
H528 C536 0.929 . S
H529 C538 0.930 . S
H530 C540 0.930 . S
H531 C543 0.929 . S
H532 C546 0.930 . S
H533 C548 0.960 . S
H534 C548 0.960 . S
H535 C548 0.960 . S
C536 H528 0.929 . S
C536 C537 1.377 . S
C536 C538 1.384 . S
C537 C536 1.377 . S
C537 C543 1.390 . S
C538 H529 0.930 . S
C538 C536 1.384 . S
C538 C539 1.372 . S
C539 C538 1.372 . S
C539 C540 1.400 . S
C539 C544 1.490 . S
C540 H530 0.930 . S
C540 C539 1.400 . S
C540 C543 1.386 . S
H541 C557 0.909 1_565 S
H542 C558 0.931 . S
C543 H531 0.929 . S
C543 C537 1.390 . S
C543 C540 1.386 . S
C544 C539 1.490 . S
C544 C546 1.395 . S
C544 C547 1.403 . S
H545 C551 0.930 . S
C546 H532 0.930 . S
C546 C544 1.395 . S
C546 C549 1.403 . S
C547 C544 1.403 . S
C547 C548 1.524 . S
C547 C551 1.400 . S
C548 H533 0.960 . S
C548 H534 0.960 . S
C548 H535 0.960 . S
C548 C547 1.524 . S
C549 C546 1.403 . S
C549 C550 1.392 . S
C549 C553 1.495 . S
C550 C549 1.392 . S
C550 C551 1.385 . S
C550 C552 1.478 . S
C551 H545 0.930 . S
C551 C547 1.400 . S
C551 C550 1.385 . S
C552 C550 1.478 . S
C552 C554 1.381 . S
C552 C558 1.383 . S
C553 C549 1.495 . S
C553 H559 0.959 . S
C553 H560 0.961 . S
C553 H561 0.960 . S
C554 C552 1.381 . S
C554 C555 1.394 . S
C554 H562 0.930 . S
C555 C554 1.394 . S
C555 C556 1.383 1_545 S
C555 H563 0.929 1_545 S
C556 C555 1.383 1_565 S
C556 C557 1.378 1_565 S
C557 H541 0.909 1_545 S
C557 C556 1.378 1_545 S
C557 C558 1.399 . S
C558 H542 0.931 . S
C558 C552 1.383 . S
C558 C557 1.399 . S
H559 C553 0.959 . S
H560 C553 0.961 . S
H561 C553 0.960 . S
H562 C554 0.930 . S
H563 C555 0.929 1_565 S
H564 C572 0.929 . S
H565 C574 0.930 . S
H566 C576 0.930 . S
H567 C579 0.929 . S
H568 C582 0.930 . S
H569 C584 0.960 . S
H570 C584 0.960 . S
H571 C584 0.960 . S
C572 H564 0.929 . S
C572 C573 1.377 . S
C572 C574 1.384 1_455 S
C573 C572 1.377 . S
C573 C579 1.390 1_455 S
C574 H565 0.930 . S
C574 C572 1.384 1_655 S
C574 C575 1.372 . S
C575 C574 1.372 . S
C575 C576 1.400 . S
C575 C580 1.490 . S
C576 H566 0.930 . S
C576 C575 1.400 . S
C576 C579 1.386 . S
H577 C593 0.930 . S
H578 C594 0.931 . S
C579 H567 0.929 . S
C579 C573 1.390 1_655 S
C579 C576 1.386 . S
C580 C575 1.490 . S
C580 C582 1.395 . S
C580 C583 1.403 . S
H581 C587 0.930 . S
C582 H568 0.930 . S
C582 C580 1.395 . S
C582 C585 1.403 . S
C583 C580 1.403 . S
C583 C584 1.524 . S
C583 C587 1.400 . S
C584 H569 0.960 . S
C584 H570 0.960 . S
C584 H571 0.960 . S
C584 C583 1.524 . S
C585 C582 1.403 . S
C585 C586 1.392 . S
C585 C589 1.495 . S
C586 C585 1.392 . S
C586 C587 1.385 . S
C586 C588 1.478 . S
C587 H581 0.930 . S
C587 C583 1.400 . S
C587 C586 1.385 . S
C588 C586 1.478 . S
C588 C590 1.381 . S
C588 C594 1.383 . S
C589 C585 1.495 . S
C589 H595 0.959 . S
C589 H596 0.961 . S
C589 H597 0.960 . S
C590 C588 1.381 . S
C590 C591 1.394 . S
C590 H598 0.930 . S
C591 C590 1.394 . S
C591 C592 1.383 . S
C591 H599 0.929 . S
C592 C591 1.383 . S
C592 C593 1.377 . S
C593 H577 0.930 . S
C593 C592 1.377 . S
C593 C594 1.379 . S
C594 H578 0.931 . S
C594 C588 1.383 . S
C594 C593 1.379 . S
H595 C589 0.959 . S
H596 C589 0.961 . S
H597 C589 0.960 . S
H598 C590 0.930 . S
H599 C591 0.929 . S
H600 C608 0.929 . S
H601 C610 0.930 . S
H602 C612 0.930 . S
H603 C615 0.929 . S
H604 C618 0.930 . S
H605 C620 0.960 . S
H606 C620 0.960 . S
H607 C620 0.960 . S
C608 H600 0.929 . S
C608 C609 1.377 . S
C608 C610 1.384 . S
C609 C608 1.377 . S
C609 C615 1.390 . S
C610 H601 0.930 . S
C610 C608 1.384 . S
C610 C611 1.372 . S
C611 C610 1.372 . S
C611 C612 1.400 . S
C611 C616 1.490 . S
C612 H602 0.930 . S
C612 C611 1.400 . S
C612 C615 1.386 . S
H613 C629 0.930 . S
H614 C630 0.931 . S
C615 H603 0.929 . S
C615 C609 1.390 . S
C615 C612 1.386 . S
C616 C611 1.490 . S
C616 C618 1.395 . S
C616 C619 1.403 . S
H617 C623 0.930 . S
C618 H604 0.930 . S
C618 C616 1.395 . S
C618 C621 1.403 . S
C619 C616 1.403 . S
C619 C620 1.524 . S
C619 C623 1.400 . S
C620 H605 0.960 . S
C620 H606 0.960 . S
C620 H607 0.960 . S
C620 C619 1.524 . S
C621 C618 1.403 . S
C621 C622 1.392 . S
C621 C625 1.495 . S
C622 C621 1.392 . S
C622 C623 1.385 . S
C622 C624 1.478 . S
C623 H617 0.930 . S
C623 C619 1.400 . S
C623 C622 1.385 . S
C624 C622 1.478 . S
C624 C626 1.381 . S
C624 C630 1.383 . S
C625 C621 1.495 . S
C625 H631 0.959 . S
C625 H632 0.961 . S
C625 H633 0.960 . S
C626 C624 1.381 . S
C626 C627 1.394 . S
C626 H634 0.930 . S
C627 C626 1.394 . S
C627 C628 1.383 . S
C627 H635 0.929 . S
C628 C627 1.383 . S
C628 C629 1.377 . S
C629 H613 0.930 . S
C629 C628 1.377 . S
C629 C630 1.379 . S
C630 H614 0.931 . S
C630 C624 1.383 . S
C630 C629 1.379 . S
H631 C625 0.959 . S
H632 C625 0.961 . S
H633 C625 0.960 . S
H634 C626 0.930 . S
H635 C627 0.929 . S
H636 C644 0.929 . S
H637 C646 0.930 . S
H638 C648 0.930 . S
H639 C651 0.929 . S
H640 C654 0.930 . S
H641 C656 0.960 . S
H642 C656 0.960 . S
H643 C656 0.960 . S
C644 H636 0.929 . S
C644 C645 1.377 . S
C644 C646 1.384 . S
C645 C644 1.377 . S
C645 C651 1.390 . S
C646 H637 0.930 . S
C646 C644 1.384 . S
C646 C647 1.372 . S
C647 C646 1.372 . S
C647 C648 1.400 . S
C647 C652 1.490 . S
C648 H638 0.930 . S
C648 C647 1.400 . S
C648 C651 1.386 . S
H649 C665 0.930 . S
H650 C666 0.931 . S
C651 H639 0.929 . S
C651 C645 1.390 . S
C651 C648 1.386 . S
C652 C647 1.490 . S
C652 C654 1.395 . S
C652 C655 1.403 . S
H653 C659 0.930 . S
C654 H640 0.930 . S
C654 C652 1.395 . S
C654 C657 1.403 . S
C655 C652 1.403 . S
C655 C656 1.524 . S
C655 C659 1.400 . S
C656 H641 0.960 . S
C656 H642 0.960 . S
C656 H643 0.960 . S
C656 C655 1.524 . S
C657 C654 1.403 . S
C657 C658 1.392 . S
C657 C661 1.495 . S
C658 C657 1.392 . S
C658 C659 1.385 . S
C658 C660 1.478 . S
C659 H653 0.930 . S
C659 C655 1.400 . S
C659 C658 1.385 . S
C660 C658 1.478 . S
C660 C662 1.381 . S
C660 C666 1.383 . S
C661 C657 1.495 . S
C661 H667 0.959 . S
C661 H668 0.961 . S
C661 H669 0.960 . S
C662 C660 1.381 . S
C662 C663 1.394 . S
C662 H670 0.930 . S
C663 C662 1.394 . S
C663 C664 1.383 . S
C663 H671 0.929 . S
C664 C663 1.383 . S
C664 C665 1.377 . S
C665 H649 0.930 . S
C665 C664 1.377 . S
C665 C666 1.379 . S
C666 H650 0.931 . S
C666 C660 1.383 . S
C666 C665 1.379 . S
H667 C661 0.959 . S
H668 C661 0.961 . S
H669 C661 0.960 . S
H670 C662 0.930 . S
H671 C663 0.929 . S
H672 C680 0.929 . S
H673 C682 0.930 . S
H674 C684 0.930 . S
H675 C687 0.929 . S
H676 C690 0.930 . S
H677 C692 0.960 . S
H678 C692 0.960 . S
H679 C692 0.960 . S
C680 H672 0.929 . S
C680 C681 1.377 . S
C680 C682 1.384 . S
C681 C680 1.377 . S
C681 C687 1.390 . S
C682 H673 0.930 . S
C682 C680 1.384 . S
C682 C683 1.372 . S
C683 C682 1.372 . S
C683 C684 1.400 . S
C683 C688 1.490 . S
C684 H674 0.930 . S
C684 C683 1.400 . S
C684 C687 1.386 . S
H685 C701 0.930 . S
H686 C702 0.931 . S
C687 H675 0.929 . S
C687 C681 1.390 . S
C687 C684 1.386 . S
C688 C683 1.490 . S
C688 C690 1.395 . S
C688 C691 1.403 . S
H689 C695 0.930 . S
C690 H676 0.930 . S
C690 C688 1.395 . S
C690 C693 1.403 . S
C691 C688 1.403 . S
C691 C692 1.524 . S
C691 C695 1.400 . S
C692 H677 0.960 . S
C692 H678 0.960 . S
C692 H679 0.960 . S
C692 C691 1.524 . S
C693 C690 1.403 . S
C693 C694 1.392 . S
C693 C697 1.495 . S
C694 C693 1.392 . S
C694 C695 1.385 . S
C694 C696 1.478 . S
C695 H689 0.930 . S
C695 C691 1.400 . S
C695 C694 1.385 . S
C696 C694 1.478 . S
C696 C698 1.381 . S
C696 C702 1.383 . S
C697 C693 1.495 . S
C697 H703 0.959 . S
C697 H704 0.961 . S
C697 H705 0.960 . S
C698 C696 1.381 . S
C698 C699 1.394 . S
C698 H706 0.930 . S
C699 C698 1.394 . S
C699 C700 1.383 . S
C699 H707 0.929 . S
C700 C699 1.383 . S
C700 C701 1.377 . S
C701 H685 0.930 . S
C701 C700 1.377 . S
C701 C702 1.379 . S
C702 H686 0.931 . S
C702 C696 1.383 . S
C702 C701 1.379 . S
H703 C697 0.959 . S
H704 C697 0.961 . S
H705 C697 0.960 . S
H706 C698 0.930 . S
H707 C699 0.929 . S
H708 C716 0.929 . S
H709 C718 0.930 . S
H710 C720 0.930 . S
H711 C723 0.929 . S
H712 C726 0.930 . S
H713 C728 0.960 . S
H714 C728 0.960 . S
H715 C728 0.960 . S
C716 H708 0.929 . S
C716 C717 1.377 . S
C716 C718 1.384 . S
C717 C716 1.377 . S
C717 C723 1.390 . S
C718 H709 0.930 . S
C718 C716 1.384 . S
C718 C719 1.372 . S
C719 C718 1.372 . S
C719 C720 1.400 . S
C719 C724 1.490 . S
C720 H710 0.930 . S
C720 C719 1.400 . S
C720 C723 1.386 . S
H721 C737 0.930 . S
H722 C738 0.931 . S
C723 H711 0.929 . S
C723 C717 1.390 . S
C723 C720 1.386 . S
C724 C719 1.490 . S
C724 C726 1.395 . S
C724 C727 1.403 . S
H725 C731 0.930 . S
C726 H712 0.930 . S
C726 C724 1.395 . S
C726 C729 1.403 . S
C727 C724 1.403 . S
C727 C728 1.524 . S
C727 C731 1.400 . S
C728 H713 0.960 . S
C728 H714 0.960 . S
C728 H715 0.960 . S
C728 C727 1.524 . S
C729 C726 1.403 . S
C729 C730 1.392 . S
C729 C733 1.495 . S
C730 C729 1.392 . S
C730 C731 1.385 . S
C730 C732 1.478 . S
C731 H725 0.930 . S
C731 C727 1.400 . S
C731 C730 1.385 . S
C732 C730 1.478 . S
C732 C734 1.381 . S
C732 C738 1.383 . S
C733 C729 1.495 . S
C733 H739 0.959 . S
C733 H740 0.961 . S
C733 H741 0.960 . S
C734 C732 1.381 . S
C734 C735 1.394 . S
C734 H742 0.930 . S
C735 C734 1.394 . S
C735 C736 1.383 . S
C735 H743 0.929 . S
C736 C735 1.383 . S
C736 C737 1.377 . S
C737 H721 0.930 . S
C737 C736 1.377 . S
C737 C738 1.379 . S
C738 H722 0.931 . S
C738 C732 1.383 . S
C738 C737 1.379 . S
H739 C733 0.959 . S
H740 C733 0.961 . S
H741 C733 0.960 . S
H742 C734 0.930 . S
H743 C735 0.929 . S
H744 C752 0.929 . S
H745 C754 0.930 . S
H746 C756 0.930 . S
H747 C759 0.929 . S
H748 C762 0.930 . S
H749 C764 0.960 . S
H750 C764 0.960 . S
H751 C764 0.960 . S
C752 H744 0.929 . S
C752 C753 1.377 . S
C752 C754 1.384 . S
C753 C752 1.377 . S
C753 C759 1.390 . S
C754 H745 0.930 . S
C754 C752 1.384 . S
C754 C755 1.372 . S
C755 C754 1.372 . S
C755 C756 1.400 . S
C755 C760 1.490 . S
C756 H746 0.930 . S
C756 C755 1.400 . S
C756 C759 1.386 . S
H757 C773 0.930 . S
H758 C774 0.931 . S
C759 H747 0.929 . S
C759 C753 1.390 . S
C759 C756 1.386 . S
C760 C755 1.490 . S
C760 C762 1.395 . S
C760 C763 1.403 . S
H761 C767 0.930 . S
C762 H748 0.930 . S
C762 C760 1.395 . S
C762 C765 1.403 . S
C763 C760 1.403 . S
C763 C764 1.524 . S
C763 C767 1.400 . S
C764 H749 0.960 . S
C764 H750 0.960 . S
C764 H751 0.960 . S
C764 C763 1.524 . S
C765 C762 1.403 . S
C765 C766 1.392 . S
C765 C769 1.495 . S
C766 C765 1.392 . S
C766 C767 1.385 . S
C766 C768 1.478 . S
C767 H761 0.930 . S
C767 C763 1.400 . S
C767 C766 1.385 . S
C768 C766 1.478 . S
C768 C770 1.381 . S
C768 C774 1.383 . S
C769 C765 1.495 . S
C769 H775 0.959 . S
C769 H776 0.961 . S
C769 H777 0.960 . S
C770 C768 1.381 . S
C770 C771 1.394 . S
C770 H778 0.930 . S
C771 C770 1.394 . S
C771 C772 1.383 . S
C771 H779 0.929 . S
C772 C771 1.383 . S
C772 C773 1.377 . S
C773 H757 0.930 . S
C773 C772 1.377 . S
C773 C774 1.379 . S
C774 H758 0.931 . S
C774 C768 1.383 . S
C774 C773 1.379 . S
H775 C769 0.959 . S
H776 C769 0.961 . S
H777 C769 0.960 . S
H778 C770 0.930 . S
H779 C771 0.929 . S
H780 C788 0.929 . S
H781 C790 0.930 . S
H782 C792 0.930 . S
H783 C795 0.929 . S
H784 C798 0.930 . S
H785 C800 0.960 . S
H786 C800 0.960 . S
H787 C800 0.960 . S
C788 H780 0.929 . S
C788 C789 1.377 . S
C788 C790 1.384 . S
C789 C788 1.377 . S
C789 C795 1.390 . S
C790 H781 0.930 . S
C790 C788 1.384 . S
C790 C791 1.372 . S
C791 C790 1.372 . S
C791 C792 1.400 . S
C791 C796 1.490 . S
C792 H782 0.930 . S
C792 C791 1.400 . S
C792 C795 1.386 . S
H793 C809 0.930 . S
H794 C810 0.931 . S
C795 H783 0.929 . S
C795 C789 1.390 . S
C795 C792 1.386 . S
C796 C791 1.490 . S
C796 C798 1.395 . S
C796 C799 1.403 . S
H797 C803 0.930 . S
C798 H784 0.930 . S
C798 C796 1.395 . S
C798 C801 1.403 . S
C799 C796 1.403 . S
C799 C800 1.524 . S
C799 C803 1.400 . S
C800 H785 0.960 . S
C800 H786 0.960 . S
C800 H787 0.960 . S
C800 C799 1.524 . S
C801 C798 1.403 . S
C801 C802 1.392 . S
C801 C805 1.495 . S
C802 C801 1.392 . S
C802 C803 1.385 . S
C802 C804 1.478 . S
C803 H797 0.930 . S
C803 C799 1.400 . S
C803 C802 1.385 . S
C804 C802 1.478 . S
C804 C806 1.381 . S
C804 C810 1.383 . S
C805 C801 1.495 . S
C805 H811 0.959 . S
C805 H812 0.961 . S
C805 H813 0.960 . S
C806 C804 1.381 . S
C806 C807 1.394 . S
C806 H814 0.930 . S
C807 C806 1.394 . S
C807 C808 1.383 . S
C807 H815 0.929 . S
C808 C807 1.383 . S
C808 C809 1.377 . S
C809 H793 0.930 . S
C809 C808 1.377 . S
C809 C810 1.379 . S
C810 H794 0.931 . S
C810 C804 1.383 . S
C810 C809 1.379 . S
H811 C805 0.959 . S
H812 C805 0.961 . S
H813 C805 0.960 . S
H814 C806 0.930 . S
H815 C807 0.929 . S
H816 C824 0.929 . S
H817 C826 0.930 1_655 S
H818 C828 0.930 1_556 S
H819 C831 0.929 . S
H820 C834 0.930 . S
H821 C836 0.960 . S
H822 C836 0.960 . S
H823 C836 0.960 1_455 S
C824 H816 0.929 . S
C824 C825 1.377 . S
C824 C826 1.384 . S
C825 C824 1.377 . S
C825 C831 1.390 . S
C826 H817 0.930 1_455 S
C826 C824 1.384 . S
C826 C827 1.372 . S
C827 C826 1.372 . S
C827 C828 1.400 . S
C827 C832 1.490 . S
C828 H818 0.930 1_554 S
C828 C827 1.400 . S
C828 C831 1.386 . S
H829 C845 0.930 . S
H830 C846 0.931 1_455 S
C831 H819 0.929 . S
C831 C825 1.390 . S
C831 C828 1.386 . S
C832 C827 1.490 . S
C832 C834 1.395 . S
C832 C835 1.403 1_454 S
H833 C839 0.930 . S
C834 H820 0.930 . S
C834 C832 1.395 . S
C834 C837 1.403 . S
C835 C832 1.403 1_656 S
C835 C836 1.524 . S
C835 C839 1.400 . S
C836 H821 0.960 . S
C836 H822 0.960 . S
C836 H823 0.960 1_655 S
C836 C835 1.524 . S
C837 C834 1.403 . S
C837 C838 1.392 1_454 S
C837 C841 1.495 . S
C838 C837 1.392 1_656 S
C838 C839 1.385 . S
C838 C840 1.478 . S
C839 H833 0.930 . S
C839 C835 1.400 . S
C839 C838 1.385 . S
C840 C838 1.478 . S
C840 C842 1.381 . S
C840 C846 1.383 . S
C841 C837 1.495 . S
C841 H847 0.959 . S
C841 H848 0.961 . S
C841 H849 0.960 1_455 S
C842 C840 1.381 . S
C842 C843 1.394 . S
C842 H850 0.930 1_556 S
C843 C842 1.394 . S
C843 C844 1.383 . S
C843 H851 0.929 . S
C844 C843 1.383 . S
C844 C845 1.377 . S
C845 H829 0.930 . S
C845 C844 1.377 . S
C845 C846 1.379 . S
C846 H830 0.931 1_655 S
C846 C840 1.383 . S
C846 C845 1.379 . S
H847 C841 0.959 . S
H848 C841 0.961 . S
H849 C841 0.960 1_655 S
H850 C842 0.930 1_554 S
H851 C843 0.929 . S
H852 C860 0.929 . S
H853 C862 0.930 . S
H854 C864 0.930 1_556 S
H855 C867 0.929 . S
H856 C870 0.930 . S
H857 C872 0.960 . S
H858 C872 0.960 . S
H859 C872 0.960 . S
C860 H852 0.929 . S
C860 C861 1.377 . S
C860 C862 1.384 . S
C861 C860 1.377 . S
C861 C867 1.390 . S
C862 H853 0.930 . S
C862 C860 1.384 . S
C862 C863 1.372 . S
C863 C862 1.372 . S
C863 C864 1.400 . S
C863 C868 1.490 . S
C864 H854 0.930 1_554 S
C864 C863 1.400 . S
C864 C867 1.386 . S
H865 C881 0.930 . S
H866 C882 0.931 . S
C867 H855 0.929 . S
C867 C861 1.390 . S
C867 C864 1.386 . S
C868 C863 1.490 . S
C868 C870 1.395 . S
C868 C871 1.403 1_554 S
H869 C875 0.930 . S
C870 H856 0.930 . S
C870 C868 1.395 . S
C870 C873 1.403 . S
C871 C868 1.403 1_556 S
C871 C872 1.524 . S
C871 C875 1.400 . S
C872 H857 0.960 . S
C872 H858 0.960 . S
C872 H859 0.960 . S
C872 C871 1.524 . S
C873 C870 1.403 . S
C873 C874 1.392 1_554 S
C873 C877 1.495 . S
C874 C873 1.392 1_556 S
C874 C875 1.385 . S
C874 C876 1.478 . S
C875 H869 0.930 . S
C875 C871 1.400 . S
C875 C874 1.385 . S
C876 C874 1.478 . S
C876 C878 1.381 . S
C876 C882 1.383 . S
C877 C873 1.495 . S
C877 H883 0.959 . S
C877 H884 0.961 . S
C877 H885 0.960 . S
C878 C876 1.381 . S
C878 C879 1.394 . S
C878 H886 0.930 1_556 S
C879 C878 1.394 . S
C879 C880 1.383 . S
C879 H887 0.929 . S
C880 C879 1.383 . S
C880 C881 1.377 . S
C881 H865 0.930 . S
C881 C880 1.377 . S
C881 C882 1.379 . S
C882 H866 0.931 . S
C882 C876 1.383 . S
C882 C881 1.379 . S
H883 C877 0.959 . S
H884 C877 0.961 . S
H885 C877 0.960 . S
H886 C878 0.930 1_554 S
H887 C879 0.929 . S
H888 C896 0.929 . S
H889 C898 0.930 1_556 S
H890 C900 0.930 . S
H891 C903 0.929 . S
H892 C906 0.930 . S
H893 C908 0.960 . S
H894 C908 0.960 . S
H895 C908 0.960 . S
C896 H888 0.929 . S
C896 C897 1.377 . S
C896 C898 1.384 . S
C897 C896 1.377 . S
C897 C903 1.390 . S
C898 H889 0.930 1_554 S
C898 C896 1.384 . S
C898 C899 1.372 . S
C899 C898 1.372 . S
C899 C900 1.400 . S
C899 C904 1.490 . S
C900 H890 0.930 . S
C900 C899 1.400 . S
C900 C903 1.386 . S
H901 C917 0.930 . S
H902 C918 0.931 1_554 S
C903 H891 0.929 . S
C903 C897 1.390 . S
C903 C900 1.386 . S
C904 C899 1.490 . S
C904 C906 1.395 1_564 S
C904 C907 1.403 . S
H905 C911 0.930 . S
C906 H892 0.930 . S
C906 C904 1.395 1_546 S
C906 C909 1.403 . S
C907 C904 1.403 . S
C907 C908 1.524 . S
C907 C911 1.400 . S
C908 H893 0.960 . S
C908 H894 0.960 . S
C908 H895 0.960 . S
C908 C907 1.524 . S
C909 C906 1.403 . S
C909 C910 1.392 . S
C909 C913 1.495 . S
C910 C909 1.392 . S
C910 C911 1.385 1_546 S
C910 C912 1.478 . S
C911 H905 0.930 . S
C911 C907 1.400 . S
C911 C910 1.385 1_564 S
C912 C910 1.478 . S
C912 C914 1.381 . S
C912 C918 1.383 . S
C913 C909 1.495 . S
C913 H919 0.959 . S
C913 H920 0.961 . S
C913 H921 0.960 . S
C914 C912 1.381 . S
C914 C915 1.394 . S
C914 H922 0.930 . S
C915 C914 1.394 . S
C915 C916 1.383 . S
C915 H923 0.929 . S
C916 C915 1.383 . S
C916 C917 1.377 . S
C917 H901 0.930 . S
C917 C916 1.377 . S
C917 C918 1.379 . S
C918 H902 0.931 1_556 S
C918 C912 1.383 . S
C918 C917 1.379 . S
H919 C913 0.959 . S
H920 C913 0.961 . S
H921 C913 0.960 . S
H922 C914 0.930 . S
H923 C915 0.929 . S
H924 C932 0.929 . S
H925 C934 0.930 1_545 S
H926 C936 0.930 . S
H927 C939 0.929 . S
H928 C942 0.930 . S
H929 C944 0.960 . S
H930 C944 0.960 . S
H931 C944 0.960 1_565 S
C932 H924 0.929 . S
C932 C933 1.377 . S
C932 C934 1.384 . S
C933 C932 1.377 . S
C933 C939 1.390 . S
C934 H925 0.930 1_565 S
C934 C932 1.384 . S
C934 C935 1.372 . S
C935 C934 1.372 . S
C935 C936 1.400 . S
C935 C940 1.490 . S
C936 H926 0.930 . S
C936 C935 1.400 . S
C936 C939 1.386 . S
H937 C953 0.930 . S
H938 C954 0.931 1_565 S
C939 H927 0.929 . S
C939 C933 1.390 . S
C939 C936 1.386 . S
C940 C935 1.490 . S
C940 C942 1.395 . S
C940 C943 1.403 1_565 S
H941 C947 0.930 . S
C942 H928 0.930 . S
C942 C940 1.395 . S
C942 C945 1.403 . S
C943 C940 1.403 1_545 S
C943 C944 1.524 . S
C943 C947 1.400 . S
C944 H929 0.960 . S
C944 H930 0.960 . S
C944 H931 0.960 1_545 S
C944 C943 1.524 . S
C945 C942 1.403 . S
C945 C946 1.392 1_565 S
C945 C949 1.495 . S
C946 C945 1.392 1_545 S
C946 C947 1.385 . S
C946 C948 1.478 . S
C947 H941 0.930 . S
C947 C943 1.400 . S
C947 C946 1.385 . S
C948 C946 1.478 . S
C948 C950 1.381 . S
C948 C954 1.383 . S
C949 C945 1.495 . S
C949 H955 0.959 . S
C949 H956 0.961 . S
C949 H957 0.960 1_565 S
C950 C948 1.381 . S
C950 C951 1.394 . S
C950 H958 0.930 . S
C951 C950 1.394 . S
C951 C952 1.383 . S
C951 H959 0.929 . S
C952 C951 1.383 . S
C952 C953 1.377 . S
C953 H937 0.930 . S
C953 C952 1.377 . S
C953 C954 1.379 . S
C954 H938 0.931 1_545 S
C954 C948 1.383 . S
C954 C953 1.379 . S
H955 C949 0.959 . S
H956 C949 0.961 . S
H957 C949 0.960 1_545 S
H958 C950 0.930 . S
H959 C951 0.929 . S
H960 C968 0.929 . S
H961 C970 0.930 . S
H962 C972 0.930 1_455 S
H963 C975 0.929 1_455 S
H964 C978 0.930 . S
H965 C980 0.960 . S
H966 C980 0.960 . S
H967 C980 0.960 . S
C968 H960 0.929 . S
C968 C969 1.377 . S
C968 C970 1.384 . S
C969 C968 1.377 . S
C969 C975 1.390 . S
C970 H961 0.930 . S
C970 C968 1.384 . S
C970 C971 1.372 . S
C971 C970 1.372 . S
C971 C972 1.400 . S
C971 C976 1.490 . S
C972 H962 0.930 1_655 S
C972 C971 1.400 . S
C972 C975 1.386 . S
H973 C989 0.930 . S
H974 C990 0.931 . S
C975 H963 0.929 1_655 S
C975 C969 1.390 . S
C975 C972 1.386 . S
C976 C971 1.490 . S
C976 C978 1.395 . S
C976 C979 1.403 1_655 S
H977 C983 0.930 . S
C978 H964 0.930 . S
C978 C976 1.395 . S
C978 C981 1.403 . S
C979 C976 1.403 1_455 S
C979 C980 1.524 . S
C979 C983 1.400 . S
C980 H965 0.960 . S
C980 H966 0.960 . S
C980 H967 0.960 . S
C980 C979 1.524 . S
C981 C978 1.403 . S
C981 C982 1.392 1_655 S
C981 C985 1.495 . S
C982 C981 1.392 1_455 S
C982 C983 1.385 . S
C982 C984 1.478 . S
C983 H977 0.930 . S
C983 C979 1.400 . S
C983 C982 1.385 . S
C984 C982 1.478 . S
C984 C986 1.381 1_455 S
C984 C990 1.383 . S
C985 C981 1.495 . S
C985 H991 0.959 . S
C985 H992 0.961 . S
C985 H993 0.960 . S
C986 C984 1.381 1_655 S
C986 C987 1.394 1_655 S
C986 H994 0.930 . S
C987 C986 1.394 1_455 S
C987 C988 1.383 . S
C987 H995 0.929 1_455 S
C988 C987 1.383 . S
C988 C989 1.377 . S
C989 H973 0.930 . S
C989 C988 1.377 . S
C989 C990 1.379 . S
C990 H974 0.931 . S
C990 C984 1.383 . S
C990 C989 1.379 . S
H991 C985 0.959 . S
H992 C985 0.961 . S
H993 C985 0.960 . S
H994 C986 0.930 . S
H995 C987 0.929 1_655 S
H996 C1004 0.929 . S
H997 C1006 0.930 . S
H998 C1008 0.930 . S
H999 C1011 0.929 . S
H1000 C1014 0.930 . S
H1001 C1016 0.960 . S
H1002 C1016 0.960 . S
H1003 C1016 0.960 . S
C1004 H996 0.929 . S
C1004 C1005 1.377 . S
C1004 C1006 1.384 . S
C1005 C1004 1.377 . S
C1005 C1011 1.390 . S
C1006 H997 0.930 . S
C1006 C1004 1.384 . S
C1006 C1007 1.372 . S
C1007 C1006 1.372 . S
C1007 C1008 1.400 . S
C1007 C1012 1.490 . S
C1008 H998 0.930 . S
C1008 C1007 1.400 . S
C1008 C1011 1.386 . S
H1009 C1025 0.930 . S
H1010 C1026 0.931 . S
C1011 H999 0.929 . S
C1011 C1005 1.390 . S
C1011 C1008 1.386 . S
C1012 C1007 1.490 . S
C1012 C1014 1.395 . S
C1012 C1015 1.403 . S
H1013 C1019 0.930 . S
C1014 H1000 0.930 . S
C1014 C1012 1.395 . S
C1014 C1017 1.403 . S
C1015 C1012 1.403 . S
C1015 C1016 1.524 . S
C1015 C1019 1.400 . S
C1016 H1001 0.960 . S
C1016 H1002 0.960 . S
C1016 H1003 0.960 . S
C1016 C1015 1.524 . S
C1017 C1014 1.403 . S
C1017 C1018 1.392 . S
C1017 C1021 1.495 . S
C1018 C1017 1.392 . S
C1018 C1019 1.385 . S
C1018 C1020 1.478 . S
C1019 H1013 0.930 . S
C1019 C1015 1.400 . S
C1019 C1018 1.385 . S
C1020 C1018 1.478 . S
C1020 C1022 1.381 . S
C1020 C1026 1.383 . S
C1021 C1017 1.495 . S
C1021 H1027 0.959 . S
C1021 H1028 0.961 . S
C1021 H1029 0.960 . S
C1022 C1020 1.381 . S
C1022 C1023 1.394 . S
C1022 H1030 0.930 . S
C1023 C1022 1.394 . S
C1023 C1024 1.383 . S
C1023 H1031 0.929 . S
C1024 C1023 1.383 . S
C1024 C1025 1.377 . S
C1025 H1009 0.930 . S
C1025 C1024 1.377 . S
C1025 C1026 1.379 . S
C1026 H1010 0.931 . S
C1026 C1020 1.383 . S
C1026 C1025 1.379 . S
H1027 C1021 0.959 . S
H1028 C1021 0.961 . S
H1029 C1021 0.960 . S
H1030 C1022 0.930 . S
H1031 C1023 0.929 . S
C177 C8 0.921 . S
C196 C107 0.928 . S
C213 C22 0.928 . S
C232 C121 0.890 . S
C249 C36 0.925 . S
C268 C93 0.899 . S
C285 C163 0.923 . S
C304 C50 0.911 . S
C321 C64 0.926 . S
C340 C135 0.897 . S
C357 C149 0.925 . S
C376 C78 0.903 . S
C393 C23 0.926 . S
C412 C92 0.950 . S
C429 C106 0.927 . S
C448 C37 0.922 . S
C465 C9 0.927 . S
C484 C120 0.949 . S
C501 C134 0.916 . S
C520 C79 0.915 . S
C537 C148 0.916 . S
C556 C51 0.908 . S
C573 C65 0.922 . S
C592 C162 0.946 . S
C609 C76 1.455 . S
C628 C6 1.471 . S
C645 C20 1.456 . S
C664 C48 1.483 . S
C681 C34 1.462 . S
C700 C62 1.435 . S
C717 C90 1.462 . S
C736 C160 1.432 . S
C753 C104 1.457 . S
C772 C132 1.437 . S
C789 C118 1.460 . S
C808 C146 1.483 . S
C825 C7 1.683 . S
C844 C91 1.657 . S
C861 C21 1.683 . S
C880 C105 1.656 . S
C897 C35 1.681 . S
C916 C119 1.697 . S
C933 C49 1.683 . S
C952 C133 1.655 . S
C969 C147 1.677 . S
C988 C63 1.659 . S
C1005 C77 1.683 . S
C1024 C161 1.656 . S
