# Generated by pormake.
# Topology wnd, (6)-cn, num edge types: 1
# Building blocks:
#     Node 0, Type 0, BuildingBlock: KUMBUR_clean_sbu_1, # of connection points: 6
#     Node 1, Type 0, BuildingBlock: KUMBUR_clean_sbu_1, # of connection points: 6
#     Node 2, Type 0, BuildingBlock: KUMBUR_clean_sbu_1, # of connection points: 6
#     Node 3, Type 0, BuildingBlock: KUMBUR_clean_sbu_1, # of connection points: 6
#     Node 4, Type 0, BuildingBlock: KUMBUR_clean_sbu_1, # of connection points: 6
#     Node 5, Type 0, BuildingBlock: KUMBUR_clean_sbu_1, # of connection points: 6
#     Node 6, Type 0, BuildingBlock: KUMBUR_clean_sbu_1, # of connection points: 6
#     Node 7, Type 0, BuildingBlock: KUMBUR_clean_sbu_1, # of connection points: 6
#     Node 8, Type 0, BuildingBlock: KUMBUR_clean_sbu_1, # of connection points: 6
#     Node 9, Type 0, BuildingBlock: KUMBUR_clean_sbu_1, # of connection points: 6
#     Node 10, Type 0, BuildingBlock: KUMBUR_clean_sbu_1, # of connection points: 6
#     Node 11, Type 0, BuildingBlock: KUMBUR_clean_sbu_1, # of connection points: 6
#     Node 12, Type 0, BuildingBlock: KUMBUR_clean_sbu_1, # of connection points: 6
#     Node 13, Type 0, BuildingBlock: KUMBUR_clean_sbu_1, # of connection points: 6
#     Node 14, Type 0, BuildingBlock: KUMBUR_clean_sbu_1, # of connection points: 6
#     Node 15, Type 0, BuildingBlock: KUMBUR_clean_sbu_1, # of connection points: 6
#     Node 16, Type 0, BuildingBlock: KUMBUR_clean_sbu_1, # of connection points: 6
#     Node 17, Type 0, BuildingBlock: KUMBUR_clean_sbu_1, # of connection points: 6
#     Node 18, Type 0, BuildingBlock: KUMBUR_clean_sbu_1, # of connection points: 6
#     Node 19, Type 0, BuildingBlock: KUMBUR_clean_sbu_1, # of connection points: 6
#     Node 20, Type 0, BuildingBlock: KUMBUR_clean_sbu_1, # of connection points: 6
#     Node 21, Type 0, BuildingBlock: KUMBUR_clean_sbu_1, # of connection points: 6
#     Node 22, Type 0, BuildingBlock: KUMBUR_clean_sbu_1, # of connection points: 6
#     Node 23, Type 0, BuildingBlock: KUMBUR_clean_sbu_1, # of connection points: 6
#     Node 24, Type 0, BuildingBlock: KUMBUR_clean_sbu_1, # of connection points: 6
#     Node 25, Type 0, BuildingBlock: KUMBUR_clean_sbu_1, # of connection points: 6
#     Node 26, Type 0, BuildingBlock: KUMBUR_clean_sbu_1, # of connection points: 6
#     Node 27, Type 0, BuildingBlock: KUMBUR_clean_sbu_1, # of connection points: 6
#     Node 28, Type 0, BuildingBlock: KUMBUR_clean_sbu_1, # of connection points: 6
#     Node 29, Type 0, BuildingBlock: KUMBUR_clean_sbu_1, # of connection points: 6
#     Node 30, Type 0, BuildingBlock: KUMBUR_clean_sbu_1, # of connection points: 6
#     Node 31, Type 0, BuildingBlock: KUMBUR_clean_sbu_1, # of connection points: 6
#     Node 32, Type 0, BuildingBlock: KUMBUR_clean_sbu_1, # of connection points: 6
#     Node 33, Type 0, BuildingBlock: KUMBUR_clean_sbu_1, # of connection points: 6
#     Node 34, Type 0, BuildingBlock: KUMBUR_clean_sbu_1, # of connection points: 6
#     Node 35, Type 0, BuildingBlock: KUMBUR_clean_sbu_1, # of connection points: 6
#     Edge 36, Type (0, 0), BuildingBlock: AJUNOK_clean_linker_0, # of connection points: 2
#     Edge 37, Type (0, 0), BuildingBlock: AJUNOK_clean_linker_0, # of connection points: 2
#     Edge 38, Type (0, 0), BuildingBlock: AJUNOK_clean_linker_0, # of connection points: 2
#     Edge 39, Type (0, 0), BuildingBlock: AJUNOK_clean_linker_0, # of connection points: 2
#     Edge 40, Type (0, 0), BuildingBlock: AJUNOK_clean_linker_0, # of connection points: 2
#     Edge 41, Type (0, 0), BuildingBlock: AJUNOK_clean_linker_0, # of connection points: 2
#     Edge 42, Type (0, 0), BuildingBlock: AJUNOK_clean_linker_0, # of connection points: 2
#     Edge 43, Type (0, 0), BuildingBlock: AJUNOK_clean_linker_0, # of connection points: 2
#     Edge 44, Type (0, 0), BuildingBlock: AJUNOK_clean_linker_0, # of connection points: 2
#     Edge 45, Type (0, 0), BuildingBlock: AJUNOK_clean_linker_0, # of connection points: 2
#     Edge 46, Type (0, 0), BuildingBlock: AJUNOK_clean_linker_0, # of connection points: 2
#     Edge 47, Type (0, 0), BuildingBlock: AJUNOK_clean_linker_0, # of connection points: 2
#     Edge 48, Type (0, 0), BuildingBlock: AJUNOK_clean_linker_0, # of connection points: 2
#     Edge 49, Type (0, 0), BuildingBlock: AJUNOK_clean_linker_0, # of connection points: 2
#     Edge 50, Type (0, 0), BuildingBlock: AJUNOK_clean_linker_0, # of connection points: 2
#     Edge 51, Type (0, 0), BuildingBlock: AJUNOK_clean_linker_0, # of connection points: 2
#     Edge 52, Type (0, 0), BuildingBlock: AJUNOK_clean_linker_0, # of connection points: 2
#     Edge 53, Type (0, 0), BuildingBlock: AJUNOK_clean_linker_0, # of connection points: 2
#     Edge 54, Type (0, 0), BuildingBlock: AJUNOK_clean_linker_0, # of connection points: 2
#     Edge 55, Type (0, 0), BuildingBlock: AJUNOK_clean_linker_0, # of connection points: 2
#     Edge 56, Type (0, 0), BuildingBlock: AJUNOK_clean_linker_0, # of connection points: 2
#     Edge 57, Type (0, 0), BuildingBlock: AJUNOK_clean_linker_0, # of connection points: 2
#     Edge 58, Type (0, 0), BuildingBlock: AJUNOK_clean_linker_0, # of connection points: 2
#     Edge 59, Type (0, 0), BuildingBlock: AJUNOK_clean_linker_0, # of connection points: 2
#     Edge 60, Type (0, 0), BuildingBlock: AJUNOK_clean_linker_0, # of connection points: 2
#     Edge 61, Type (0, 0), BuildingBlock: AJUNOK_clean_linker_0, # of connection points: 2
#     Edge 62, Type (0, 0), BuildingBlock: AJUNOK_clean_linker_0, # of connection points: 2
#     Edge 63, Type (0, 0), BuildingBlock: AJUNOK_clean_linker_0, # of connection points: 2
#     Edge 64, Type (0, 0), BuildingBlock: AJUNOK_clean_linker_0, # of connection points: 2
#     Edge 65, Type (0, 0), BuildingBlock: AJUNOK_clean_linker_0, # of connection points: 2
#     Edge 66, Type (0, 0), BuildingBlock: AJUNOK_clean_linker_0, # of connection points: 2
#     Edge 67, Type (0, 0), BuildingBlock: AJUNOK_clean_linker_0, # of connection points: 2
#     Edge 68, Type (0, 0), BuildingBlock: AJUNOK_clean_linker_0, # of connection points: 2
#     Edge 69, Type (0, 0), BuildingBlock: AJUNOK_clean_linker_0, # of connection points: 2
#     Edge 70, Type (0, 0), BuildingBlock: AJUNOK_clean_linker_0, # of connection points: 2
#     Edge 71, Type (0, 0), BuildingBlock: AJUNOK_clean_linker_0, # of connection points: 2
#     Edge 72, Type (0, 0), BuildingBlock: AJUNOK_clean_linker_0, # of connection points: 2
#     Edge 73, Type (0, 0), BuildingBlock: AJUNOK_clean_linker_0, # of connection points: 2
#     Edge 74, Type (0, 0), BuildingBlock: AJUNOK_clean_linker_0, # of connection points: 2
#     Edge 75, Type (0, 0), BuildingBlock: AJUNOK_clean_linker_0, # of connection points: 2
#     Edge 76, Type (0, 0), BuildingBlock: AJUNOK_clean_linker_0, # of connection points: 2
#     Edge 77, Type (0, 0), BuildingBlock: AJUNOK_clean_linker_0, # of connection points: 2
#     Edge 78, Type (0, 0), BuildingBlock: AJUNOK_clean_linker_0, # of connection points: 2
#     Edge 79, Type (0, 0), BuildingBlock: AJUNOK_clean_linker_0, # of connection points: 2
#     Edge 80, Type (0, 0), BuildingBlock: AJUNOK_clean_linker_0, # of connection points: 2
#     Edge 81, Type (0, 0), BuildingBlock: AJUNOK_clean_linker_0, # of connection points: 2
#     Edge 82, Type (0, 0), BuildingBlock: AJUNOK_clean_linker_0, # of connection points: 2
#     Edge 83, Type (0, 0), BuildingBlock: AJUNOK_clean_linker_0, # of connection points: 2
#     Edge 84, Type (0, 0), BuildingBlock: AJUNOK_clean_linker_0, # of connection points: 2
#     Edge 85, Type (0, 0), BuildingBlock: AJUNOK_clean_linker_0, # of connection points: 2
#     Edge 86, Type (0, 0), BuildingBlock: AJUNOK_clean_linker_0, # of connection points: 2
#     Edge 87, Type (0, 0), BuildingBlock: AJUNOK_clean_linker_0, # of connection points: 2
#     Edge 88, Type (0, 0), BuildingBlock: AJUNOK_clean_linker_0, # of connection points: 2
#     Edge 89, Type (0, 0), BuildingBlock: AJUNOK_clean_linker_0, # of connection points: 2
#     Edge 90, Type (0, 0), BuildingBlock: AJUNOK_clean_linker_0, # of connection points: 2
#     Edge 91, Type (0, 0), BuildingBlock: AJUNOK_clean_linker_0, # of connection points: 2
#     Edge 92, Type (0, 0), BuildingBlock: AJUNOK_clean_linker_0, # of connection points: 2
#     Edge 93, Type (0, 0), BuildingBlock: AJUNOK_clean_linker_0, # of connection points: 2
#     Edge 94, Type (0, 0), BuildingBlock: AJUNOK_clean_linker_0, # of connection points: 2
#     Edge 95, Type (0, 0), BuildingBlock: AJUNOK_clean_linker_0, # of connection points: 2
#     Edge 96, Type (0, 0), BuildingBlock: AJUNOK_clean_linker_0, # of connection points: 2
#     Edge 97, Type (0, 0), BuildingBlock: AJUNOK_clean_linker_0, # of connection points: 2
#     Edge 98, Type (0, 0), BuildingBlock: AJUNOK_clean_linker_0, # of connection points: 2
#     Edge 99, Type (0, 0), BuildingBlock: AJUNOK_clean_linker_0, # of connection points: 2
#     Edge 100, Type (0, 0), BuildingBlock: AJUNOK_clean_linker_0, # of connection points: 2
#     Edge 101, Type (0, 0), BuildingBlock: AJUNOK_clean_linker_0, # of connection points: 2
#     Edge 102, Type (0, 0), BuildingBlock: AJUNOK_clean_linker_0, # of connection points: 2
#     Edge 103, Type (0, 0), BuildingBlock: AJUNOK_clean_linker_0, # of connection points: 2
#     Edge 104, Type (0, 0), BuildingBlock: AJUNOK_clean_linker_0, # of connection points: 2
#     Edge 105, Type (0, 0), BuildingBlock: AJUNOK_clean_linker_0, # of connection points: 2
#     Edge 106, Type (0, 0), BuildingBlock: AJUNOK_clean_linker_0, # of connection points: 2
#     Edge 107, Type (0, 0), BuildingBlock: AJUNOK_clean_linker_0, # of connection points: 2
#     Edge 108, Type (0, 0), BuildingBlock: AJUNOK_clean_linker_0, # of connection points: 2
#     Edge 109, Type (0, 0), BuildingBlock: AJUNOK_clean_linker_0, # of connection points: 2
#     Edge 110, Type (0, 0), BuildingBlock: AJUNOK_clean_linker_0, # of connection points: 2
#     Edge 111, Type (0, 0), BuildingBlock: AJUNOK_clean_linker_0, # of connection points: 2
#     Edge 112, Type (0, 0), BuildingBlock: AJUNOK_clean_linker_0, # of connection points: 2
#     Edge 113, Type (0, 0), BuildingBlock: AJUNOK_clean_linker_0, # of connection points: 2
#     Edge 114, Type (0, 0), BuildingBlock: AJUNOK_clean_linker_0, # of connection points: 2
#     Edge 115, Type (0, 0), BuildingBlock: AJUNOK_clean_linker_0, # of connection points: 2
#     Edge 116, Type (0, 0), BuildingBlock: AJUNOK_clean_linker_0, # of connection points: 2
#     Edge 117, Type (0, 0), BuildingBlock: AJUNOK_clean_linker_0, # of connection points: 2
#     Edge 118, Type (0, 0), BuildingBlock: AJUNOK_clean_linker_0, # of connection points: 2
#     Edge 119, Type (0, 0), BuildingBlock: AJUNOK_clean_linker_0, # of connection points: 2
#     Edge 120, Type (0, 0), BuildingBlock: AJUNOK_clean_linker_0, # of connection points: 2
#     Edge 121, Type (0, 0), BuildingBlock: AJUNOK_clean_linker_0, # of connection points: 2
#     Edge 122, Type (0, 0), BuildingBlock: AJUNOK_clean_linker_0, # of connection points: 2
#     Edge 123, Type (0, 0), BuildingBlock: AJUNOK_clean_linker_0, # of connection points: 2
#     Edge 124, Type (0, 0), BuildingBlock: AJUNOK_clean_linker_0, # of connection points: 2
#     Edge 125, Type (0, 0), BuildingBlock: AJUNOK_clean_linker_0, # of connection points: 2
#     Edge 126, Type (0, 0), BuildingBlock: AJUNOK_clean_linker_0, # of connection points: 2
#     Edge 127, Type (0, 0), BuildingBlock: AJUNOK_clean_linker_0, # of connection points: 2
#     Edge 128, Type (0, 0), BuildingBlock: AJUNOK_clean_linker_0, # of connection points: 2
#     Edge 129, Type (0, 0), BuildingBlock: AJUNOK_clean_linker_0, # of connection points: 2
#     Edge 130, Type (0, 0), BuildingBlock: AJUNOK_clean_linker_0, # of connection points: 2
#     Edge 131, Type (0, 0), BuildingBlock: AJUNOK_clean_linker_0, # of connection points: 2
#     Edge 132, Type (0, 0), BuildingBlock: AJUNOK_clean_linker_0, # of connection points: 2
#     Edge 133, Type (0, 0), BuildingBlock: AJUNOK_clean_linker_0, # of connection points: 2
#     Edge 134, Type (0, 0), BuildingBlock: AJUNOK_clean_linker_0, # of connection points: 2
#     Edge 135, Type (0, 0), BuildingBlock: AJUNOK_clean_linker_0, # of connection points: 2
#     Edge 136, Type (0, 0), BuildingBlock: AJUNOK_clean_linker_0, # of connection points: 2
#     Edge 137, Type (0, 0), BuildingBlock: AJUNOK_clean_linker_0, # of connection points: 2
#     Edge 138, Type (0, 0), BuildingBlock: AJUNOK_clean_linker_0, # of connection points: 2
#     Edge 139, Type (0, 0), BuildingBlock: AJUNOK_clean_linker_0, # of connection points: 2
#     Edge 140, Type (0, 0), BuildingBlock: AJUNOK_clean_linker_0, # of connection points: 2
#     Edge 141, Type (0, 0), BuildingBlock: AJUNOK_clean_linker_0, # of connection points: 2
#     Edge 142, Type (0, 0), BuildingBlock: AJUNOK_clean_linker_0, # of connection points: 2
#     Edge 143, Type (0, 0), BuildingBlock: AJUNOK_clean_linker_0, # of connection points: 2
# Relax obj value: 0.055
# Max RMSD: 0.174
# Mean RMSD: 0.174
data_MOF--net-wnd--node1-KUMBUR_clean_sbu_1--edge1-AJUNOK_clean_linker_0
_symmetry_space_group_name_H-M    P1
_symmetry_Int_Tables_number       1
_symmetry_cell_setting            triclinic
loop_
_symmetry_equiv_pos_as_xyz
'x, y, z'
_cell_length_a     31.467332
_cell_length_b     31.46396
_cell_length_c     118.10777
_cell_angle_alpha  90.0039
_cell_angle_beta   90.023998
_cell_angle_gamma 120.04988
loop_
_atom_site_label
_atom_site_type_symbol
_atom_site_fract_x
_atom_site_fract_y
_atom_site_fract_z
_atom_type_partial_charge
Tb0 Tb 0.52973 0.01838 0.04931 0.0
C1 C 0.36953 0.03452 0.02408 0.0
N2 N 0.41832 0.05573 0.02173 0.0
C3 C 0.3994 0.02594 0.00267 0.0
C4 C 0.33382 1.00856 0.01571 0.0
C5 C 0.43354 0.05381 0.01102 0.0
C6 C 0.34936 1.00374 0.00495 0.0
C7 C 0.30516 0.01572 0.03783 0.0
C8 C 0.35534 0.03707 0.03508 0.0
C9 C 0.26954 0.991 0.02943 0.0
C10 C 0.28383 0.98711 0.01842 0.0
Tb11 Tb 0.46943 0.09337 0.03673 0.0
N12 N 0.39071 0.05912 0.04315 0.0
C13 C 0.29228 0.01934 0.04897 0.0
C14 C 0.3783 0.06597 0.05374 0.0
C15 C 0.32912 0.04519 0.05693 0.0
H16 H 0.47166 0.07388 0.00879 0.0
H17 H 0.31974 0.05017 0.06546 0.0
H18 H 0.52727 0.03805 0.07709 0.0
H19 H 0.67789 0.0568 0.02023 0.0
H20 H 0.40583 0.08939 0.05956 0.0
H21 H 0.25415 1.0033 0.05144 0.0
H22 H 0.59296 0.02872 0.02534 0.0
H23 H 0.41148 0.0211 0.9945 0.0
H24 H 0.23082 0.9742 0.03139 0.0
H25 H 0.25592 0.96718 0.01208 0.0
H26 H 0.58775 0.07461 0.09218 0.0
H27 H 0.32311 0.98282 0.99838 0.0
H28 H 0.7402 0.07973 0.03523 0.0
N29 N 0.58021 0.04892 0.06434 0.0
C30 C 0.62709 0.0601 0.06224 0.0
C31 C 0.59889 0.0699 0.08382 0.0
C32 C 0.66107 0.07366 0.07107 0.0
C33 C 0.56512 0.05112 0.07507 0.0
C34 C 0.64707 0.08211 0.08175 0.0
N35 N 0.60782 0.04837 0.04273 0.0
C36 C 0.62008 0.04481 0.03182 0.0
C37 C 0.68962 0.07042 0.04871 0.0
C38 C 0.64131 0.05952 0.05112 0.0
C39 C 0.70327 0.07099 0.03744 0.0
C40 C 0.66827 0.05829 0.02894 0.0
H41 H 0.67255 0.10041 0.08842 0.0
H42 H 0.73128 0.08063 0.07552 0.0
H43 H 0.75833 0.08389 0.05604 0.0
O44 O 0.52919 0.95367 0.0426 0.0
O45 O 0.57495 0.09826 0.05059 0.0
O46 O 0.5516 0.13105 0.03591 0.0
O47 O 0.53091 0.96773 0.0605 0.0
O48 O 0.5133 0.01484 0.03052 0.0
O49 O 0.5219 0.08979 0.02568 0.0
O50 O 0.47184 0.15732 0.04328 0.0
O51 O 0.42446 1.00931 0.03738 0.0
O52 O 0.45264 0.98584 0.05259 0.0
O53 O 0.46393 0.14231 0.02553 0.0
O54 O 0.49555 0.10854 0.05408 0.0
O55 O 0.48345 0.03587 0.06132 0.0
C56 C 0.585 0.1331 0.04316 0.0
C57 C 0.53802 0.89612 0.05607 0.0
C58 C 0.56093 0.83176 0.05326 0.0
C59 C 0.55048 0.8192 0.06473 0.0
C60 C 0.5285 0.88169 0.06751 0.0
C61 C 0.5344 0.84374 0.07172 0.0
C62 C 0.55451 0.87063 0.04884 0.0
C63 C 0.52512 0.05109 0.02307 0.0
C64 C 0.53512 0.94098 0.05274 0.0
C65 C 0.70721 0.07854 0.0688 0.0
C66 C 0.72203 0.07844 0.05765 0.0
C67 C 0.42009 0.97499 0.04469 0.0
C68 C 0.51097 0.22639 0.03087 0.0
C69 C 0.54933 0.31596 0.03342 0.0
C70 C 0.583 0.32268 0.02487 0.0
C71 C 0.54534 0.23503 0.02228 0.0
C72 C 0.51302 0.26744 0.03647 0.0
C73 C 0.5807 0.28266 0.01931 0.0
C74 C 0.48401 0.07854 0.06261 0.0
C75 C 0.47182 0.17478 0.03331 0.0
H76 H 0.55495 0.78997 0.06833 0.0
H77 H 0.51644 0.90003 0.07336 0.0
H78 H 0.52676 0.83347 0.08055 0.0
H79 H 0.56313 0.88141 0.04006 0.0
H80 H 0.61042 0.35934 0.02223 0.0
H81 H 0.54447 0.20486 0.01768 0.0
H82 H 0.48605 0.26177 0.04288 0.0
H83 H 0.60597 0.28872 0.01247 0.0
Tb84 Tb 0.0982 0.56207 0.05096 0.0
C85 C 0.04625 0.37917 0.02265 0.0
N86 N 0.02563 0.40797 0.02183 0.0
C87 C 0.03383 0.40991 0.00166 0.0
C88 C 0.06371 0.36641 0.01302 0.0
C89 C 1.0173 0.42166 0.01149 0.0
C90 C 0.05808 0.38299 0.00242 0.0
C91 C 0.06847 0.33055 0.03453 0.0
C92 C 0.04901 0.3619 0.03324 0.0
C93 C 0.0876 0.31895 0.02503 0.0
C94 C 0.08537 0.33698 0.0143 0.0
Tb95 Tb 1.00605 0.42998 0.03857 0.0
N96 N 0.03173 0.37544 0.04225 0.0
C97 C 0.067 0.31107 0.04529 0.0
C98 C 0.02595 0.3531 0.05244 0.0
C99 C 0.04442 0.3214 0.05422 0.0
H100 H 0.99702 0.44076 0.01074 0.0
H101 H 0.04057 0.30444 0.06241 0.0
H102 H 0.05895 0.53874 0.0775 0.0
H103 H 0.11839 0.70004 0.02078 0.0
H104 H 1.00549 0.35816 0.05904 0.0
H105 H 0.08134 0.28656 0.04667 0.0
H106 H 0.1226 0.62855 0.02694 0.0
H107 H 0.02719 0.42123 0.99353 0.0
H108 H 0.10336 0.29539 0.02586 0.0
H109 H 0.09956 0.32715 0.00702 0.0
H110 H 0.01903 0.56809 0.09078 0.0
H111 H 0.07095 0.374 0.99478 0.0
H112 H 0.08408 0.73784 0.03338 0.0
N113 N 0.06346 0.58669 0.06421 0.0
C114 C 0.05821 0.62547 0.06111 0.0
C115 C 0.03068 0.58492 0.08252 0.0
C116 C 0.04092 0.64698 0.06886 0.0
C117 C 0.05245 0.56784 0.07492 0.0
C118 C 0.02402 0.62388 0.0794 0.0
N119 N 0.08563 0.62061 0.0427 0.0
C120 C 0.10386 0.64145 0.03234 0.0
C121 C 0.06847 0.68559 0.04689 0.0
C122 C 0.07006 0.64321 0.05008 0.0
C123 C 0.08409 0.70491 0.03606 0.0
C124 C 0.10274 0.68324 0.02885 0.0
H125 H 1.00435 0.63415 0.08513 0.0
H126 H 0.03543 0.71223 0.0719 0.0
H127 H 0.05533 0.7432 0.05272 0.0
O128 O 0.16731 0.62105 0.0455 0.0
O129 O 0.01886 0.53439 0.05338 0.0
O130 O 0.9809 0.48383 0.03819 0.0
O131 O 0.15199 0.6059 0.063 0.0
O132 O 0.09637 0.54741 0.03203 0.0
O133 O 1.01622 0.49043 0.02803 0.0
O134 O 0.94234 0.37492 0.04683 0.0
O135 O 0.08866 0.45937 0.03719 0.0
O136 O 0.12371 0.5104 0.05243 0.0
O137 O 0.94322 0.38718 0.02887 0.0
O138 O 1.00386 0.44324 0.05669 0.0
O139 O 0.08113 0.49836 0.06295 0.0
C140 C 0.98327 0.51489 0.04594 0.0
C141 C 0.19854 0.69124 0.05793 0.0
C142 C 0.25115 0.78075 0.05419 0.0
C143 C 0.22794 0.79 0.06321 0.0
C144 C 0.17744 0.70316 0.06702 0.0
C145 C 0.19175 0.75172 0.06955 0.0
C146 C 0.23638 0.73081 0.05156 0.0
C147 C 0.05807 0.52782 0.02495 0.0
C148 C 0.18166 0.63778 0.05566 0.0
C149 C 0.04181 0.69065 0.06582 0.0
C150 C 0.05474 0.7094 0.05485 0.0
C151 C 0.12666 0.48511 0.04409 0.0
C152 C 0.88014 0.31095 0.03552 0.0
C153 C 0.79399 0.24675 0.03581 0.0
C154 C 0.80565 0.21714 0.02912 0.0
C155 C 0.89132 0.2808 0.02892 0.0
C156 C 0.83141 0.2937 0.03903 0.0
C157 C 0.85409 0.23405 0.02575 0.0
C158 C 0.03879 0.45587 0.06418 0.0
C159 C 0.91684 0.3626 0.0375 0.0
H160 H 0.23914 0.82738 0.06565 0.0
H161 H 0.14986 0.67487 0.07235 0.0
H162 H 0.17506 0.7598 0.07662 0.0
H163 H 0.25443 0.72292 0.04475 0.0
H164 H 0.77711 0.18105 0.02644 0.0
H165 H 0.92846 0.29395 0.02598 0.0
H166 H 0.82236 0.31728 0.04392 0.0
H167 H 0.86265 0.21112 0.02051 0.0
Tb168 Tb 0.54435 0.57681 0.05023 0.0
C169 C 0.72674 0.7249 0.0242 0.0
N170 N 0.69789 0.67578 0.0225 0.0
C171 C 0.69305 0.68957 0.00272 0.0
C172 C 0.7392 0.7584 0.0152 0.0
C173 C 0.6836 0.65773 0.01181 0.0
C174 C 0.72068 0.74017 0.00441 0.0
C175 C 0.77769 0.79157 0.03698 0.0
C176 C 0.74447 0.74146 0.03503 0.0
C177 C 0.78977 0.82526 0.02806 0.0
C178 C 0.77009 0.80877 0.01723 0.0
Tb179 Tb 0.6796 0.62891 0.03845 0.0
N180 N 0.73004 0.70816 0.04358 0.0
C181 C 0.79786 0.80612 0.04782 0.0
C182 C 0.75266 0.72143 0.05384 0.0
C183 C 0.78588 0.77071 0.05624 0.0
H184 H 0.66598 0.61903 0.01014 0.0
H185 H 0.80308 0.78114 0.06449 0.0
H186 H 0.57534 0.56127 0.07633 0.0
H187 H 0.40399 0.45969 0.02108 0.0
H188 H 0.74728 0.69391 0.05994 0.0
H189 H 0.82364 0.84429 0.04968 0.0
H190 H 0.47835 0.53426 0.02647 0.0
H191 H 0.67946 0.67508 0.99441 0.0
H192 H 0.81453 0.86409 0.02944 0.0
H193 H 0.77988 0.83514 0.01042 0.0
H194 H 0.55112 0.49179 0.08911 0.0
H195 H 0.72859 0.76469 0.99728 0.0
H196 H 0.36871 0.38719 0.03359 0.0
N197 N 0.52628 0.51763 0.06314 0.0
C198 C 0.48763 0.47321 0.06017 0.0
C199 C 0.53258 0.48656 0.08107 0.0
C200 C 0.46758 0.43464 0.06796 0.0
C201 C 0.54705 0.52555 0.07366 0.0
C202 C 0.49351 0.44088 0.07811 0.0
N203 N 0.48893 0.50512 0.04186 0.0
C204 C 0.46626 0.50254 0.03178 0.0
C205 C 0.42458 0.42324 0.04645 0.0
C206 C 0.4679 0.46703 0.04929 0.0
C207 C 0.40278 0.41972 0.03593 0.0
C208 C 0.42311 0.46007 0.02871 0.0
H209 H 0.48549 0.41133 0.08377 0.0
H210 H 0.40038 0.36621 0.07168 0.0
H211 H 0.36666 0.3538 0.05283 0.0
O212 O 0.4838 0.58502 0.04469 0.0
O213 O 0.57714 0.52896 0.05154 0.0
O214 O 0.63215 0.54788 0.03692 0.0
O215 O 0.49137 0.57046 0.06221 0.0
O216 O 0.55998 0.59196 0.03148 0.0
O217 O 0.62346 0.57817 0.02703 0.0
O218 O 0.73376 0.61908 0.04668 0.0
O219 O 0.64545 0.67815 0.03798 0.0
O220 O 0.58888 0.65473 0.05239 0.0
O221 O 0.73671 0.6313 0.02877 0.0
O222 O 0.66371 0.60902 0.05629 0.0
O223 O 0.6051 0.62555 0.06272 0.0
C224 C 0.59795 0.51564 0.04379 0.0
C225 C 0.41508 0.57059 0.05751 0.0
C226 C 0.32607 0.54164 0.05454 0.0
C227 C 0.32393 0.55497 0.06577 0.0
C228 C 0.41019 0.58319 0.06863 0.0
C229 C 0.36536 0.5756 0.07267 0.0
C230 C 0.3724 0.54985 0.05031 0.0
C231 C 0.58257 0.57702 0.02428 0.0
C232 C 0.46274 0.57259 0.05456 0.0
C233 C 0.42231 0.39264 0.06536 0.0
C234 C 0.40161 0.3864 0.0546 0.0
C235 C 0.61492 0.68545 0.04445 0.0
C236 C 0.7667 0.58047 0.03535 0.0
C237 C 0.8208 0.54593 0.03744 0.0
C238 C 0.78845 0.50588 0.03072 0.0
C239 C 0.73465 0.53963 0.02876 0.0
C240 C 0.80995 0.58349 0.03973 0.0
C241 C 0.74567 0.50276 0.02644 0.0
C242 C 0.6491 0.62893 0.06395 0.0
C243 C 0.75593 0.62056 0.03726 0.0
H244 H 0.28965 0.54946 0.06925 0.0
H245 H 0.44117 0.59817 0.07439 0.0
H246 H 0.36254 0.5853 0.08132 0.0
H247 H 0.37475 0.53872 0.04177 0.0
H248 H 0.79667 0.47717 0.02869 0.0
H249 H 0.70139 0.53655 0.02527 0.0
H250 H 0.83515 0.61498 0.04475 0.0
H251 H 0.72113 0.4718 0.02121 0.0
Tb252 Tb 1.01822 0.52389 0.44986 0.0
C253 C 0.04834 0.38189 0.47997 0.0
N254 N 0.07239 0.43184 0.48022 0.0
C255 C 0.05915 0.43035 0.50016 0.0
C256 C 0.0304 0.35427 0.48999 0.0
C257 C 0.0811 0.45613 0.49028 0.0
C258 C 0.03467 0.37916 0.50013 0.0
C259 C 0.01847 0.30676 0.46909 0.0
C260 C 0.04139 0.35832 0.4696 0.0
C261 C 1.00255 0.27927 0.47913 0.0
C262 C 1.00788 0.3029 0.48953 0.0
Tb263 Tb 0.09692 0.46859 0.463 0.0
N264 N 0.05483 0.38592 0.45998 0.0
C265 C 1.01149 0.28433 0.4585 0.0
C266 C 0.04667 0.36401 0.44965 0.0
C267 C 0.02557 0.31312 0.44873 0.0
H268 H 0.10477 0.49532 0.49077 0.0
H269 H 0.01915 0.29608 0.44047 0.0
H270 H 1.0163 0.51669 0.42233 0.0
H271 H 0.05303 0.67246 0.47851 0.0
H272 H 0.05407 0.38507 0.44212 0.0
H273 H 0.99433 0.24481 0.45774 0.0
H274 H 0.02741 0.58788 0.47359 0.0
H275 H 0.06099 0.45024 0.50772 0.0
H276 H 0.98504 0.2396 0.47891 0.0
H277 H 0.99433 0.2811 0.49717 0.0
H278 H 0.04698 0.57426 0.4061 0.0
H279 H 0.01925 0.3593 0.50794 0.0
H280 H 0.07121 0.73332 0.46341 0.0
N281 N 0.03995 0.57295 0.43454 0.0
C282 C 0.05149 0.61992 0.43652 0.0
C283 C 0.04879 0.58752 0.41464 0.0
C284 C 0.06092 0.65253 0.42753 0.0
C285 C 0.03462 0.55555 0.42378 0.0
C286 C 0.06337 0.6365 0.41658 0.0
N287 N 0.04419 0.60209 0.45605 0.0
C288 C 0.04155 0.61464 0.46699 0.0
C289 C 0.06177 0.68257 0.44997 0.0
C290 C 0.0523 0.63465 0.44761 0.0
C291 C 0.06353 0.69668 0.46124 0.0
C292 C 0.05346 0.66249 0.46979 0.0
H293 H 0.07658 0.66064 0.40947 0.0
H294 H 0.06745 0.72267 0.42314 0.0
H295 H 0.073 0.75045 0.44262 0.0
O296 O 0.95289 0.51748 0.45766 0.0
O297 O 0.09799 0.57592 0.44912 0.0
O298 O 0.13303 0.54997 0.4629 0.0
O299 O 0.96163 0.51881 0.43955 0.0
O300 O 1.01619 0.508 0.46859 0.0
O301 O 0.094 0.5244 0.473 0.0
O302 O 0.16374 0.4791 0.45571 0.0
O303 O 1.01348 0.42209 0.46225 0.0
O304 O 0.98897 0.44696 0.44659 0.0
O305 O 0.14463 0.45569 0.47278 0.0
O306 O 0.1091 0.48285 0.44506 0.0
O307 O 0.04079 0.48198 0.43734 0.0
C308 C 0.13518 0.58333 0.45563 0.0
C309 C 0.88659 0.51626 0.44555 0.0
C310 C 0.82384 0.5417 0.44788 0.0
C311 C 0.80137 0.51615 0.43789 0.0
C312 C 0.86211 0.49124 0.43564 0.0
C313 C 0.82017 0.49121 0.43189 0.0
C314 C 0.86701 0.54176 0.45178 0.0
C315 C 0.05371 0.52411 0.47579 0.0
C316 C 0.93572 0.52059 0.44784 0.0
C317 C 0.06621 0.69883 0.42984 0.0
C318 C 0.06784 0.71426 0.44101 0.0
C319 C 0.97955 0.4152 0.45461 0.0
C320 C 0.22983 0.50332 0.46923 0.0
C321 C 0.31954 0.54129 0.46731 0.0
C322 C 0.32485 0.55732 0.47857 0.0
C323 C 0.2371 0.52094 0.48046 0.0
C324 C 0.27169 0.51357 0.46263 0.0
C325 C 0.28403 0.54713 0.48507 0.0
C326 C 0.08006 0.47543 0.43649 0.0
C327 C 0.1786 0.46974 0.46518 0.0
H328 H 0.76884 0.51562 0.43467 0.0
H329 H 0.87609 0.47221 0.43057 0.0
H330 H 0.80236 0.47208 0.42416 0.0
H331 H 0.88584 0.56252 0.45928 0.0
H332 H 0.36096 0.57742 0.4824 0.0
H333 H 0.20637 0.51378 0.48584 0.0
H334 H 0.2671 0.49947 0.45408 0.0
H335 H 0.28878 0.55961 0.49376 0.0
Tb336 Tb 0.58329 0.53766 0.45055 0.0
C337 C 0.72243 0.71539 0.48005 0.0
N338 N 0.67268 0.68727 0.48066 0.0
C339 C 0.67774 0.67826 0.50066 0.0
C340 C 0.75169 0.72708 0.48986 0.0
C341 C 0.65002 0.67056 0.49087 0.0
C342 C 0.72872 0.70743 0.50023 0.0
C343 C 0.79583 0.75867 0.46852 0.0
C344 C 0.74432 0.73037 0.46946 0.0
C345 C 0.82486 0.77256 0.47834 0.0
C346 C 0.80289 0.75642 0.48897 0.0
Tb347 Tb 0.63284 0.67228 0.46377 0.0
N348 N 0.7153 0.71356 0.46008 0.0
C349 C 0.81677 0.77075 0.45772 0.0
C350 C 0.73595 0.72333 0.44957 0.0
C351 C 0.78667 0.75268 0.4482 0.0
H352 H 0.61069 0.65195 0.49156 0.0
H353 H 0.8026 0.76017 0.43981 0.0
H354 H 0.5843 0.54213 0.42311 0.0
H355 H 0.45386 0.39799 0.47868 0.0
H356 H 0.71425 0.70696 0.44224 0.0
H357 H 0.85619 0.79256 0.45664 0.0
H358 H 0.5307 0.4721 0.47393 0.0
H359 H 0.65973 0.66141 0.50849 0.0
H360 H 0.86448 0.79448 0.47777 0.0
H361 H 0.8259 0.76612 0.49644 0.0
H362 H 0.52354 0.51575 0.4075 0.0
H363 H 0.74997 0.71409 0.50791 0.0
H364 H 0.38774 0.35876 0.46458 0.0
N365 N 0.53052 0.50942 0.43582 0.0
C366 C 0.48447 0.4724 0.43811 0.0
C367 C 0.512 0.50399 0.41612 0.0
C368 C 0.45031 0.44911 0.42936 0.0
C369 C 0.54577 0.52158 0.42494 0.0
C370 C 0.46358 0.46893 0.41843 0.0
N371 N 0.5086 0.47789 0.45717 0.0
C372 C 0.50163 0.45786 0.46777 0.0
C373 C 0.42904 0.41166 0.45151 0.0
C374 C 0.47377 0.45464 0.44907 0.0
C375 C 0.42111 0.39241 0.46245 0.0
C376 C 0.458 0.41507 0.47052 0.0
H377 H 0.43802 0.45731 0.41158 0.0
H378 H 0.38171 0.38319 0.4251 0.0
H379 H 0.36161 0.35313 0.4444 0.0
O380 O 0.59324 0.48059 0.45755 0.0
O381 O 0.52596 0.55773 0.45077 0.0
O382 O 0.55143 0.62793 0.46197 0.0
O383 O 0.6001 0.49411 0.4399 0.0
O384 O 0.59534 0.55286 0.4694 0.0
O385 O 0.57642 0.61279 0.4736 0.0
O386 O 0.63092 0.73305 0.45647 0.0
O387 O 0.67853 0.63489 0.46463 0.0
O388 O 0.6593 0.5923 0.44817 0.0
O389 O 0.63474 0.72688 0.47436 0.0
O390 O 0.62117 0.67054 0.44563 0.0
O391 O 0.6197 0.60174 0.43777 0.0
C392 C 0.51789 0.58996 0.45599 0.0
C393 C 0.55818 0.40916 0.44534 0.0
C394 C 0.51891 0.31945 0.44912 0.0
C395 C 0.48524 0.31101 0.44043 0.0
C396 C 0.52592 0.39753 0.43609 0.0
C397 C 0.48911 0.34955 0.43392 0.0
C398 C 0.55543 0.36911 0.4517 0.0
C399 C 0.57533 0.57186 0.47624 0.0
C400 C 0.59471 0.46278 0.44773 0.0
C401 C 0.4063 0.40542 0.43174 0.0
C402 C 0.39534 0.38723 0.44279 0.0
C403 C 0.68836 0.61091 0.45678 0.0
C404 C 0.58746 0.76138 0.46794 0.0
C405 C 0.55077 0.81408 0.46576 0.0
C406 C 0.51244 0.78247 0.47296 0.0
C407 C 0.54776 0.73011 0.47494 0.0
C408 C 0.58879 0.8037 0.46329 0.0
C409 C 0.51102 0.74095 0.4775 0.0
C410 C 0.62538 0.64721 0.43691 0.0
C411 C 0.62816 0.75069 0.46622 0.0
H412 H 0.45781 0.27385 0.43811 0.0
H413 H 0.52919 0.42552 0.43032 0.0
H414 H 0.46431 0.34203 0.42687 0.0
H415 H 0.58204 0.37631 0.45831 0.0
H416 H 0.48344 0.79012 0.4751 0.0
H417 H 0.54534 0.69735 0.47858 0.0
H418 H 0.61925 0.82851 0.45797 0.0
H419 H 0.48104 0.71681 0.483 0.0
Tb420 Tb 0.56233 0.08318 0.44908 0.0
C421 C 0.38388 0.05963 0.47355 0.0
N422 N 0.41163 0.03878 0.47607 0.0
C423 C 0.41565 0.0624 0.4955 0.0
C424 C 0.37203 0.08383 0.48193 0.0
C425 C 0.42566 0.03791 0.48698 0.0
C426 C 0.38918 0.08589 0.49296 0.0
C427 C 0.3356 0.0745 0.45975 0.0
C428 C 0.3669 0.05612 0.4625 0.0
C429 C 0.32462 0.09967 0.46802 0.0
C430 C 0.34304 0.10459 0.47905 0.0
Tb431 Tb 0.42771 1.0037 0.461 0.0
N432 N 0.37916 0.03257 0.4546 0.0
C433 C 0.31463 0.06511 0.44893 0.0
C434 C 0.35425 0.01821 0.44463 0.0
C435 C 0.32278 0.03547 0.44147 0.0
H436 H 0.44332 0.01743 0.48927 0.0
H437 H 0.30389 0.02488 0.43341 0.0
H438 H 0.53281 0.03913 0.42277 0.0
H439 H 0.70591 0.11012 0.47746 0.0
H440 H 0.35667 0.99158 0.43939 0.0
H441 H 0.29 0.07821 0.4465 0.0
H442 H 0.63088 0.1095 0.47235 0.0
H443 H 0.42782 0.0627 0.50406 0.0
H444 H 0.30103 0.11455 0.46603 0.0
H445 H 0.33372 0.12355 0.48537 0.0
H446 H 0.55836 0.99649 0.40959 0.0
H447 H 0.38116 0.10444 0.49964 0.0
H448 H 0.7388 0.06977 0.46529 0.0
N449 N 0.58089 0.04282 0.43602 0.0
C450 C 0.61909 0.03638 0.43895 0.0
C451 C 0.57597 1.0081 0.41778 0.0
C452 C 0.63943 0.01852 0.43104 0.0
C453 C 0.56069 0.03115 0.42543 0.0
C454 C 0.61484 1.00109 0.42066 0.0
N455 N 0.61849 0.06751 0.45722 0.0
C456 C 0.64225 0.08898 0.46712 0.0
C457 C 0.68206 0.04894 0.45262 0.0
C458 C 0.63887 0.04968 0.44982 0.0
C459 C 0.70468 0.06821 0.46302 0.0
C460 C 0.68557 0.08985 0.47008 0.0
H461 H 0.62409 0.98142 0.4147 0.0
H462 H 0.70582 0.01585 0.4274 0.0
H463 H 0.73916 0.03619 0.44627 0.0
O464 O 0.62034 0.15403 0.45459 0.0
O465 O 0.52942 1.00285 0.44807 0.0
O466 O 0.47367 0.96845 0.46267 0.0
O467 O 0.61625 0.12958 0.43734 0.0
O468 O 0.54865 0.08313 0.46805 0.0
O469 O 0.48206 1.00788 0.47272 0.0
O470 O 0.3745 0.93345 0.45461 0.0
O471 O 0.46589 0.08778 0.46141 0.0
O472 O 0.51538 0.11291 0.44599 0.0
O473 O 0.36741 0.95764 0.47103 0.0
O474 O 0.43964 0.99526 0.4431 0.0
O475 O 0.50085 0.06955 0.43654 0.0
C476 C 0.50799 0.96957 0.45596 0.0
C477 C 0.68926 0.20859 0.44173 0.0
C478 C 0.77694 0.27353 0.44412 0.0
C479 C 0.77404 0.29271 0.43359 0.0
C480 C 0.69043 0.22758 0.43091 0.0
C481 C 0.73166 0.26982 0.42706 0.0
C482 C 0.73344 0.2316 0.44841 0.0
C483 C 0.52455 0.04602 0.47534 0.0
C484 C 0.64294 0.16202 0.44491 0.0
C485 C 0.68406 0.02063 0.43371 0.0
C486 C 0.7045 0.0344 0.4445 0.0
C487 C 0.49428 0.12297 0.45413 0.0
C488 C 0.33316 0.87193 0.46899 0.0
C489 C 0.28271 0.78178 0.4684 0.0
C490 C 0.29097 0.78083 0.48009 0.0
C491 C 0.3429 0.86875 0.4805 0.0
C492 C 0.30309 0.82795 0.46288 0.0
C493 C 0.32138 0.8237 0.486 0.0
C494 C 0.45676 0.02879 0.43519 0.0
C495 C 0.34945 0.92116 0.46399 0.0
H496 H 0.80575 0.32495 0.43016 0.0
H497 H 0.6587 0.20997 0.4254 0.0
H498 H 0.73106 0.28445 0.4188 0.0
H499 H 0.73458 0.21589 0.45648 0.0
H500 H 0.27377 0.74654 0.48473 0.0
H501 H 0.36581 0.90135 0.48546 0.0
H502 H 0.29541 0.82968 0.454 0.0
H503 H 0.32778 0.82203 0.49495 0.0
Tb504 Tb 0.63841 1.00248 0.96166 0.0
C505 C 0.47822 0.03977 0.93883 0.0
N506 N 0.52429 0.05107 0.93586 0.0
C507 C 0.50212 0.03965 0.91631 0.0
C508 C 0.44276 0.03059 0.93051 0.0
C509 C 0.53726 0.05423 0.92479 0.0
C510 C 0.45445 0.02703 0.91922 0.0
C511 C 0.42197 0.03492 0.95345 0.0
C512 C 0.46797 0.0412 0.95019 0.0
C513 C 0.38724 0.0279 0.94517 0.0
C514 C 0.39831 0.02748 0.93375 0.0
Tb515 Tb 0.58031 0.08071 0.94987 0.0
N516 N 0.50467 0.05386 0.95786 0.0
C517 C 0.41436 0.04184 0.96477 0.0
C518 C 0.4982 0.06463 0.96871 0.0
C519 C 0.45328 0.05833 0.97233 0.0
H520 H 0.57517 0.07217 0.92257 0.0
H521 H 0.4503 0.07051 0.98066 0.0
H522 H 0.61325 0.97509 0.98902 0.0
H523 H 0.80913 0.09172 0.93832 0.0
H524 H 0.52845 0.08366 0.97431 0.0
H525 H 0.38008 0.03874 0.96754 0.0
H526 H 0.72026 0.05498 0.94059 0.0
H527 H 0.51223 0.04045 0.90752 0.0
H528 H 0.35284 0.02568 0.94746 0.0
H529 H 0.37325 0.02781 0.92758 0.0
H530 H 0.65983 0.99333 0.00679 0.0
H531 H 0.42778 0.01478 0.91259 0.0
H532 H 0.86181 0.10972 0.95523 0.0
N533 N 0.67639 0.0163 0.97875 0.0
C534 C 0.72626 0.0411 0.97829 0.0
C535 C 0.67899 1.008 0.99888 0.0
C536 C 0.75452 0.05114 0.98822 0.0
C537 C 0.65252 0.99864 0.98882 0.0
C538 C 0.73022 0.03495 0.99862 0.0
N539 N 0.7208 0.04621 0.95835 0.0
C540 C 0.7419 0.05931 0.9479 0.0
C541 C 0.80068 0.07912 0.96695 0.0
C542 C 0.74913 0.05516 0.96776 0.0
C543 C 0.82232 0.09161 0.95621 0.0
C544 C 0.79272 0.08127 0.94664 0.0
H545 H 0.75064 0.04183 0.00644 0.0
H546 H 0.8283 0.08406 0.995 0.0
H547 H 0.86863 0.10827 0.9764 0.0
O548 O 0.62755 0.94074 0.95215 0.0
O549 O 0.68523 0.08585 0.96196 0.0
O550 O 0.65855 0.1156 0.94749 0.0
O551 O 0.64665 0.94717 0.9696 0.0
O552 O 0.61737 0.99249 0.94393 0.0
O553 O 0.62444 0.06384 0.93686 0.0
O554 O 0.57813 0.14343 0.95676 0.0
O555 O 0.53489 1.00037 0.94817 0.0
O556 O 0.55794 0.96997 0.96329 0.0
O557 O 0.58436 0.13485 0.93887 0.0
O558 O 0.59993 0.08364 0.96844 0.0
O559 O 0.58754 1.0072 0.97315 0.0
C560 C 0.69019 0.12256 0.95542 0.0
C561 C 0.59039 0.86813 0.96322 0.0
C562 C 0.55185 0.77863 0.9623 0.0
C563 C 0.51263 0.77441 0.9688 0.0
C564 C 0.55061 0.86263 0.96976 0.0
C565 C 0.51203 0.81614 0.97249 0.0
C566 C 0.59101 0.82575 0.95949 0.0
C567 C 0.62982 0.02415 0.93572 0.0
C568 C 0.63172 0.91816 0.96093 0.0
C569 C 0.80595 0.07594 0.98745 0.0
C570 C 0.82893 0.08965 0.97685 0.0
C571 C 0.52454 0.96678 0.95598 0.0
C572 C 0.57539 0.20523 0.94379 0.0
C573 C 0.55023 0.26758 0.94716 0.0
C574 C 0.56118 0.28196 0.9358 0.0
C575 C 0.58603 0.2218 0.93252 0.0
C576 C 0.55747 0.22878 0.95124 0.0
C577 C 0.57899 0.25951 0.92862 0.0
C578 C 0.58781 0.04757 0.97595 0.0
C579 C 0.57707 0.15942 0.94668 0.0
H580 H 0.48266 0.73856 0.97117 0.0
H581 H 0.5498 0.89436 0.97299 0.0
H582 H 0.48183 0.81245 0.9776 0.0
H583 H 0.62182 0.82935 0.95461 0.0
H584 H 0.55617 0.31126 0.93246 0.0
H585 H 0.59904 0.2048 0.92653 0.0
H586 H 0.54829 0.21647 0.95992 0.0
H587 H 0.58707 0.27121 0.91988 0.0
Tb588 Tb 0.10356 0.6727 0.96273 0.0
C589 C 0.05443 0.48007 0.93609 0.0
N590 N 0.04691 0.51853 0.9345 0.0
C591 C 0.05875 0.5167 0.91458 0.0
C592 C 0.06049 0.45573 0.92685 0.0
C593 C 0.04816 0.5366 0.9239 0.0
C594 C 0.06466 0.47616 0.91604 0.0
C595 C 0.06673 0.42728 0.94904 0.0
C596 C 0.05774 0.46629 0.9471 0.0
C597 C 0.06772 0.39965 0.93987 0.0
C598 C 0.06322 0.41302 0.92884 0.0
Tb599 Tb 0.02149 0.54002 0.95021 0.0
N600 N 0.05298 0.49172 0.95584 0.0
C601 C 0.0735 0.41658 0.96014 0.0
C602 C 0.05706 0.47946 0.96674 0.0
C603 C 0.06944 0.44339 0.969 0.0
H604 H 0.03988 0.56536 0.92241 0.0
H605 H 0.07416 0.43501 0.97762 0.0
H606 H 0.10173 0.65842 0.99076 0.0
H607 H 0.07167 0.79635 0.9374 0.0
H608 H 0.04894 0.49507 0.97381 0.0
H609 H 0.08131 0.38741 0.96195 0.0
H610 H 0.10809 0.74459 0.9418 0.0
H611 H 0.06136 0.53198 0.90623 0.0
H612 H 0.07213 0.368 0.9412 0.0
H613 H 0.06262 0.39002 0.92203 0.0
H614 H 0.05929 0.67014 0.00685 0.0
H615 H 0.07466 0.4634 0.9087 0.0
H616 H 0.02459 0.81123 0.95215 0.0
N617 N 0.0767 0.69168 0.97885 0.0
C618 C 0.05512 0.71936 0.97741 0.0
C619 C 0.05788 0.68435 0.99864 0.0
C620 C 0.03258 0.72941 0.98649 0.0
C621 C 0.08067 0.67638 0.9894 0.0
C622 C 0.0333 0.7106 0.99719 0.0
N623 N 0.077 0.72578 0.95819 0.0
C624 C 0.0853 0.74861 0.94798 0.0
C625 C 0.03518 0.76754 0.9648 0.0
C626 C 0.0557 0.73744 0.96671 0.0
C627 C 0.03968 0.7877 0.95399 0.0
C628 C 0.0659 0.77909 0.94562 0.0
H629 H 1.01584 0.71688 0.00439 0.0
H630 H 0.99229 0.76565 0.99142 0.0
H631 H 0.99515 0.79965 0.97244 0.0
O632 O 0.16964 0.73037 0.9556 0.0
O633 O 0.01976 0.63904 0.96332 0.0
O634 O 0.98759 0.58456 0.94849 0.0
O635 O 0.16228 0.71531 0.97352 0.0
O636 O 0.11002 0.66424 0.94454 0.0
O637 O 0.03424 0.60369 0.93858 0.0
O638 O 0.9599 0.47392 0.95707 0.0
O639 O 0.10145 0.57191 0.94761 0.0
O640 O 0.13141 0.62105 0.96317 0.0
O641 O 0.9662 0.49155 0.93928 0.0
O642 O 1.01747 0.55013 0.96919 0.0
O643 O 0.09501 0.61259 0.97317 0.0
C644 C 0.98238 0.61006 0.95649 0.0
C645 C 0.23067 0.79148 0.96809 0.0
C646 C 0.31838 0.85314 0.968 0.0
C647 C 0.30947 0.8789 0.97652 0.0
C648 C 0.22285 0.81841 0.97647 0.0
C649 C 0.2621 0.86184 0.98064 0.0
C650 C 0.27854 0.80936 0.96373 0.0
C651 C 0.07528 0.64693 0.93689 0.0
C652 C 0.19174 0.74104 0.96539 0.0
C653 C 1.01021 0.75779 0.98457 0.0
C654 C 1.01172 0.77704 0.97376 0.0
C655 C 0.1369 0.59592 0.95497 0.0
C656 C 0.89554 0.41234 0.94394 0.0
C657 C 0.83241 0.32458 0.9465 0.0
C658 C 0.81553 0.3246 0.93551 0.0
C659 C 0.87645 0.40995 0.93303 0.0
C660 C 0.87294 0.36895 0.9508 0.0
C661 C 0.83715 0.36674 0.9289 0.0
C662 C 0.05358 0.57555 0.97659 0.0
C663 C 0.9421 0.45885 0.94697 0.0
H664 H 0.33937 0.91252 0.97998 0.0
H665 H 0.18667 0.80494 0.98008 0.0
H666 H 0.25595 0.88197 0.98725 0.0
H667 H 0.28515 0.78811 0.95746 0.0
H668 H 0.78491 0.29154 0.93202 0.0
H669 H 0.89251 0.44163 0.92749 0.0
H670 H 0.88708 0.36941 0.95919 0.0
H671 H 0.82348 0.36584 0.92044 0.0
Tb672 Tb 0.43102 0.46752 0.96299 0.0
C673 C 0.62346 0.62296 0.94063 0.0
N674 N 0.5848 0.57926 0.93731 0.0
C675 C 0.58623 0.61096 0.91886 0.0
C676 C 0.64754 0.66098 0.93279 0.0
C677 C 0.56727 0.57202 0.92647 0.0
C678 C 0.62617 0.65574 0.92211 0.0
C679 C 0.68333 0.67226 0.95501 0.0
C680 C 0.64031 0.62867 0.95177 0.0
C681 C 0.70969 0.70833 0.94691 0.0
C682 C 0.69291 0.70146 0.93579 0.0
Tb683 Tb 0.56284 0.51878 0.9501 0.0
N684 N 0.61758 0.59018 0.95908 0.0
C685 C 0.70214 0.67601 0.96588 0.0
C686 C 0.6391 0.5926 0.96937 0.0
C687 C 0.6805 0.63552 0.97298 0.0
H688 H 0.53858 0.53663 0.9237 0.0
H689 H 0.69776 0.636 0.98093 0.0
H690 H 0.44398 0.47708 0.99102 0.0
H691 H 0.35753 0.30652 0.93551 0.0
H692 H 0.62828 0.5607 0.97454 0.0
H693 H 0.73547 0.70861 0.96855 0.0
H694 H 0.40018 0.3996 0.95188 0.0
H695 H 0.57069 0.60626 0.91046 0.0
H696 H 0.74482 0.74014 0.94898 0.0
H697 H 0.71795 0.72524 0.9295 0.0
H698 H 0.41824 0.4212 0.00726 0.0
H699 H 0.63873 0.68619 0.91643 0.0
H700 H 0.31349 0.2481 0.95079 0.0
N701 N 0.40878 0.41992 0.97888 0.0
C702 C 0.37923 0.37084 0.97718 0.0
C703 C 0.40657 0.40669 0.99889 0.0
C704 C 0.36148 0.33785 0.98636 0.0
C705 C 0.42245 0.43817 0.98958 0.0
C706 C 0.37555 0.35642 0.99732 0.0
N707 N 0.39163 0.38693 0.95714 0.0
C708 C 0.38928 0.37072 0.94597 0.0
C709 C 0.34094 0.30287 0.964 0.0
C710 C 0.36924 0.35323 0.96618 0.0
C711 C 0.33508 0.28685 0.95278 0.0
C712 C 0.35991 0.32017 0.94403 0.0
H713 H 0.36328 0.33226 0.0046 0.0
H714 H 0.31721 0.26145 0.99121 0.0
H715 H 0.29891 0.2308 0.9716 0.0
O716 O 0.37247 0.47562 0.95595 0.0
O717 O 0.46902 0.42185 0.96461 0.0
O718 O 0.51746 0.44033 0.94878 0.0
O719 O 0.37988 0.4693 0.97396 0.0
O720 O 0.43747 0.48669 0.9451 0.0
O721 O 0.49774 0.47368 0.93773 0.0
O722 O 0.62656 0.51603 0.95532 0.0
O723 O 0.52997 0.56545 0.94803 0.0
O724 O 0.47988 0.54867 0.96349 0.0
O725 O 0.61213 0.51906 0.93766 0.0
O726 O 0.5502 0.50502 0.96913 0.0
O727 O 0.48843 0.52053 0.9735 0.0
C728 C 0.49604 0.41215 0.95747 0.0
C729 C 0.30899 0.47462 0.96857 0.0
C730 C 0.25254 0.50695 0.96683 0.0
C731 C 0.22505 0.47655 0.97586 0.0
C732 C 0.28043 0.4448 0.97755 0.0
C733 C 0.23878 0.44569 0.98112 0.0
C734 C 0.29459 0.50551 0.96304 0.0
C735 C 0.4534 0.47102 0.9368 0.0
C736 C 0.35534 0.47523 0.96595 0.0
C737 C 0.33155 0.28737 0.98426 0.0
C738 C 0.32109 0.26993 0.9731 0.0
C739 C 0.51051 0.57951 0.95587 0.0
C740 C 0.69212 0.52487 0.94221 0.0
C741 C 0.78128 0.55302 0.94525 0.0
C742 C 0.78327 0.53982 0.93399 0.0
C743 C 0.6971 0.5124 0.93109 0.0
C744 C 0.73492 0.54524 0.94943 0.0
C745 C 0.74188 0.5197 0.92707 0.0
C746 C 0.52816 0.52032 0.97642 0.0
C747 C 0.6441 0.52262 0.94515 0.0
H748 H 0.19267 0.47681 0.9789 0.0
H749 H 0.29071 0.42102 0.98194 0.0
H750 H 0.2173 0.42271 0.98811 0.0
H751 H 0.31672 0.52936 0.95622 0.0
H752 H 0.81737 0.54482 0.93053 0.0
H753 H 0.66623 0.4977 0.9253 0.0
H754 H 0.73251 0.55594 0.95802 0.0
H755 H 0.74464 0.51001 0.91841 0.0
Tb756 Tb 1.00923 0.62388 0.53776 0.0
C757 C 0.05054 0.46866 0.56008 0.0
N758 N 0.0519 0.51109 0.56298 0.0
C759 C 0.02798 0.4824 0.58197 0.0
C760 C 0.04104 0.43294 0.5683 0.0
C761 C 0.04098 0.51853 0.57373 0.0
C762 C 0.02862 0.43967 0.57927 0.0
C763 C 0.06622 0.42112 0.54618 0.0
C764 C 0.06253 0.46279 0.54901 0.0
C765 C 0.05836 0.3864 0.5545 0.0
C766 C 0.04714 0.39328 0.56551 0.0
Tb767 Tb 0.08986 0.57086 0.54997 0.0
N768 N 0.07509 0.49975 0.5414 0.0
C769 C 0.08314 0.41815 0.53548 0.0
C770 C 0.09348 0.49751 0.53102 0.0
C771 C 0.09827 0.45719 0.52804 0.0
H772 H 0.04374 0.55259 0.57616 0.0
H773 H 0.11666 0.45756 0.52028 0.0
H774 H 0.97683 0.59114 0.51084 0.0
H775 H 0.1044 0.80113 0.55878 0.0
H776 H 0.10998 0.52857 0.52542 0.0
H777 H 0.08795 0.38749 0.53316 0.0
H778 H 0.0694 0.71199 0.5577 0.0
H779 H 0.01931 0.48832 0.59048 0.0
H780 H 0.06357 0.35555 0.55267 0.0
H781 H 0.04676 0.36984 0.57197 0.0
H782 H 0.98997 0.6335 0.49261 0.0
H783 H 0.01968 0.41239 0.58575 0.0
H784 H 0.11437 0.84865 0.54133 0.0
N785 N 0.01851 0.65718 0.52028 0.0
C786 C 0.04276 0.70718 0.52014 0.0
C787 C 1.0057 0.65466 0.50025 0.0
C788 C 0.04992 0.73284 0.5099 0.0
C789 C 0.99896 0.6307 0.51059 0.0
C790 C 0.03167 0.70594 0.49987 0.0
N791 N 0.053 0.70718 0.54012 0.0
C792 C 0.07005 0.73138 0.55019 0.0
C793 C 0.08182 0.78445 0.53049 0.0
C794 C 0.05883 0.73279 0.53037 0.0
C795 C 0.09692 0.80902 0.54089 0.0
C796 C 0.0912 0.78235 0.55076 0.0
H797 H 0.03631 0.72443 0.49185 0.0
H798 H 0.07993 0.80468 0.5022 0.0
H799 H 0.10752 0.84973 0.5202 0.0
O800 O 0.94455 0.6045 0.54708 0.0
O801 O 0.09331 0.67293 0.53756 0.0
O802 O 0.12327 0.64859 0.55233 0.0
O803 O 0.95495 0.63698 0.53085 0.0
O804 O 1.00071 0.60337 0.55549 0.0
O805 O 0.07354 0.61655 0.56267 0.0
O806 O 0.15702 0.57611 0.54439 0.0
O807 O 1.01006 0.52051 0.5505 0.0
O808 O 0.97631 0.54322 0.53584 0.0
O809 O 0.13887 0.56989 0.56217 0.0
O810 O 0.09292 0.58916 0.53124 0.0
O811 O 1.01561 0.57388 0.52642 0.0
C812 C 0.13066 0.67912 0.54414 0.0
C813 C 0.87353 0.57955 0.53577 0.0
C814 C 0.78432 0.54706 0.53597 0.0
C815 C 0.77899 0.51226 0.52781 0.0
C816 C 0.86661 0.54371 0.52775 0.0
C817 C 0.81971 0.51045 0.5238 0.0
C818 C 0.83198 0.58086 0.54001 0.0
C819 C 0.03313 0.62077 0.56354 0.0
C820 C 0.92432 0.61671 0.53911 0.0
C821 C 0.07391 0.78434 0.51001 0.0
C822 C 0.08948 0.81001 0.52026 0.0
C823 C 0.97594 0.51006 0.54285 0.0
C824 C 0.2143 0.5683 0.55745 0.0
C825 C 0.27615 0.54198 0.5547 0.0
C826 C 0.297 0.56391 0.56513 0.0
C827 C 0.2365 0.58891 0.56786 0.0
C828 C 0.23457 0.54472 0.55073 0.0
C829 C 0.27754 0.58712 0.57159 0.0
C830 C 0.05648 0.57519 0.52375 0.0
C831 C 0.16811 0.56891 0.55453 0.0
H832 H 0.74295 0.48619 0.52455 0.0
H833 H 0.89769 0.54191 0.52438 0.0
H834 H 0.81493 0.48332 0.51753 0.0
H835 H 0.83677 0.60838 0.54619 0.0
H836 H 0.32862 0.56274 0.56838 0.0
H837 H 0.22202 0.6067 0.5732 0.0
H838 H 0.21738 0.52749 0.54278 0.0
H839 H 0.29413 0.60346 0.57964 0.0
Tb840 Tb 0.47567 0.42163 0.538 0.0
C841 C 0.62203 0.61957 0.56073 0.0
N842 N 0.57889 0.57958 0.5638 0.0
C843 C 0.61068 0.58011 0.58222 0.0
C844 C 0.66013 0.64333 0.5686 0.0
C845 C 0.57201 0.56068 0.5745 0.0
C846 C 0.65503 0.62131 0.57922 0.0
C847 C 0.66996 0.68137 0.54663 0.0
C848 C 0.62734 0.63729 0.54971 0.0
C849 C 0.70656 0.707 0.55469 0.0
C850 C 0.7009 0.68866 0.56567 0.0
Tb851 Tb 0.51901 0.55388 0.5506 0.0
N852 N 0.58943 0.61352 0.54233 0.0
C853 C 0.6725 0.70111 0.53591 0.0
C854 C 0.5909 0.63445 0.53205 0.0
C855 C 0.63217 0.67827 0.52875 0.0
H856 H 0.53719 0.53035 0.5771 0.0
H857 H 0.63177 0.69582 0.52091 0.0
H858 H 0.49115 0.43728 0.50993 0.0
H859 H 0.31574 0.30607 0.56306 0.0
H860 H 0.55908 0.62046 0.52667 0.0
H861 H 0.7041 0.73557 0.53338 0.0
H862 H 0.40454 0.35508 0.5591 0.0
H863 H 0.60613 0.56373 0.59051 0.0
H864 H 0.73829 0.74226 0.55269 0.0
H865 H 0.7265 0.71211 0.5719 0.0
H866 H 0.43885 0.43032 0.4938 0.0
H867 H 0.68505 0.63459 0.5851 0.0
H868 H 0.25602 0.29065 0.54769 0.0
N869 N 0.43178 0.40446 0.5216 0.0
C870 C 0.38223 0.37741 0.52282 0.0
C871 C 0.42235 0.41429 0.50183 0.0
C872 C 0.35064 0.36837 0.51356 0.0
C873 C 0.45209 0.42018 0.51115 0.0
C874 C 0.37135 0.38817 0.50301 0.0
N875 N 0.39504 0.37266 0.54237 0.0
C876 C 0.37883 0.35133 0.55267 0.0
C877 C 0.31227 0.3315 0.53519 0.0
C878 C 0.36324 0.36013 0.53353 0.0
C879 C 0.29499 0.31307 0.54605 0.0
C880 C 0.32853 0.32212 0.55477 0.0
H881 H 0.34841 0.38327 0.49572 0.0
H882 H 0.27467 0.33359 0.5082 0.0
H883 H 0.24108 0.30049 0.52708 0.0
O884 O 0.48433 0.36578 0.5458 0.0
O885 O 0.42594 0.45492 0.53718 0.0
O886 O 0.44248 0.50186 0.55302 0.0
O887 O 0.47756 0.3677 0.52784 0.0
O888 O 0.4927 0.43251 0.55616 0.0
O889 O 0.47481 0.49043 0.56288 0.0
O890 O 0.50614 0.61118 0.54494 0.0
O891 O 0.57187 0.52737 0.55235 0.0
O892 O 0.55597 0.47292 0.5376 0.0
O893 O 0.50915 0.59806 0.56248 0.0
O894 O 0.50548 0.5388 0.5317 0.0
O895 O 0.52742 0.48116 0.52729 0.0
C896 C 0.4133 0.4778 0.54474 0.0
C897 C 0.52832 0.33779 0.53464 0.0
C898 C 0.56481 0.28474 0.53588 0.0
C899 C 0.60668 0.32111 0.53031 0.0
C900 C 0.57113 0.37364 0.52923 0.0
C901 C 0.60982 0.36518 0.52705 0.0
C902 C 0.52532 0.29311 0.53804 0.0
C903 C 0.47468 0.44795 0.56413 0.0
C904 C 0.48648 0.34656 0.53622 0.0
C905 C 0.29962 0.34082 0.51521 0.0
C906 C 0.28049 0.32211 0.52597 0.0
C907 C 0.58624 0.50609 0.54493 0.0
C908 C 0.54312 0.68289 0.55727 0.0
C909 C 0.57438 0.77201 0.55385 0.0
C910 C 0.60349 0.78263 0.56358 0.0
C911 C 0.57364 0.69645 0.5669 0.0
C912 C 0.5436 0.72153 0.55068 0.0
C913 C 0.60314 0.74542 0.56999 0.0
C914 C 0.52462 0.52004 0.52452 0.0
C915 C 0.50894 0.62854 0.55507 0.0
H916 H 0.63702 0.31517 0.52842 0.0
H917 H 0.57438 0.40801 0.5265 0.0
H918 H 0.64233 0.39283 0.52274 0.0
H919 H 0.49247 0.26499 0.54217 0.0
H920 H 0.62627 0.82031 0.56637 0.0
H921 H 0.5743 0.66903 0.57232 0.0
H922 H 0.51986 0.71248 0.54336 0.0
H923 H 0.62558 0.75461 0.57754 0.0
Tb924 Tb 0.67931 0.08762 0.53687 0.0
C925 C 0.48398 0.05323 0.55889 0.0
N926 N 0.51743 0.04096 0.56235 0.0
C927 C 0.51572 0.06761 0.58112 0.0
C928 C 0.46341 0.07164 0.56659 0.0
C929 C 0.53027 0.04408 0.57342 0.0
C930 C 0.4835 0.08302 0.57754 0.0
C931 C 0.43086 0.05267 0.54402 0.0
C932 C 0.46952 0.04558 0.54767 0.0
C933 C 0.40758 0.06777 0.55182 0.0
C934 C 0.42318 0.0763 0.56309 0.0
Tb935 Tb 0.54434 1.00824 0.54925 0.0
N936 N 0.49079 0.02758 0.5406 0.0
C937 C 0.41398 0.04037 0.5329 0.0
C938 C 0.47113 1.01145 0.53007 0.0
C939 C 0.43363 0.01874 0.52597 0.0
H940 H 0.55066 0.0274 0.57624 0.0
H941 H 0.4183 1.00532 0.51767 0.0
H942 H 0.66884 0.09528 0.5089 0.0
H943 H 0.76035 1.00232 0.56212 0.0
H944 H 0.48137 0.98982 0.52497 0.0
H945 H 0.38396 0.04473 0.52982 0.0
H946 H 0.70754 0.03731 0.55893 0.0
H947 H 0.52868 0.07322 0.58978 0.0
H948 H 0.37616 0.07101 0.54933 0.0
H949 H 0.401 0.08251 0.56902 0.0
H950 H 0.68643 0.06168 0.49205 0.0
H951 H 0.47574 0.10412 0.58338 0.0
H952 H 0.80013 0.9867 0.54587 0.0
N953 N 0.69998 0.06611 0.52028 0.0
C954 C 0.7283 0.04495 0.52135 0.0
C955 C 0.69936 0.05766 0.50016 0.0
C956 C 0.74413 0.03022 0.51172 0.0
C957 C 0.68714 0.07446 0.50984 0.0
C958 C 0.72841 0.03591 0.50105 0.0
N959 N 0.71965 0.0462 0.54123 0.0
C960 C 0.72615 0.0334 0.55186 0.0
C961 C 0.76961 0.01484 0.53352 0.0
C962 C 0.74022 0.03664 0.53214 0.0
C963 C 0.77797 1.0037 0.54446 0.0
C964 C 0.75556 1.0124 0.55365 0.0
H965 H 0.7385 0.02375 0.49345 0.0
H966 H 0.78704 0.99828 0.50576 0.0
H967 H 0.81008 0.98561 0.52484 0.0
O968 O 0.7343 0.15216 0.54498 0.0
O969 O 0.64264 1.00376 0.53654 0.0
O970 O 0.59637 0.98475 0.55226 0.0
O971 O 0.73907 0.14032 0.52739 0.0
O972 O 0.673 0.10015 0.55477 0.0
O973 O 0.60694 0.03014 0.56224 0.0
O974 O 0.48493 0.94018 0.54319 0.0
O975 O 0.5767 0.08814 0.55094 0.0
O976 O 0.63107 0.12084 0.53593 0.0
O977 O 0.49889 0.95295 0.56079 0.0
O978 O 0.55969 1.00644 0.53046 0.0
O979 O 0.62235 0.08362 0.52595 0.0
C980 C 0.61311 0.97039 0.54402 0.0
C981 C 0.76686 0.22205 0.5328 0.0
C982 C 0.81701 0.31209 0.53385 0.0
C983 C 0.78542 0.31545 0.52596 0.0
C984 C 0.73542 0.22713 0.52515 0.0
C985 C 0.745 0.27341 0.52169 0.0
C986 C 0.80803 0.26497 0.53718 0.0
C987 C 0.65173 0.07073 0.56334 0.0
C988 C 0.75729 0.17187 0.53558 0.0
C989 C 0.77425 1.0095 0.51307 0.0
C990 C 0.7875 1.00244 0.52393 0.0
C991 C 0.59978 0.12221 0.54326 0.0
C992 C 0.4138 0.90642 0.55557 0.0
C993 C 0.32412 0.85048 0.55242 0.0
C994 C 0.31492 0.87237 0.56174 0.0
C995 C 0.40176 0.92675 0.5648 0.0
C996 C 0.37424 0.86741 0.54939 0.0
C997 C 0.35316 0.90982 0.56783 0.0
C998 C 0.5822 0.04341 0.52309 0.0
C999 C 0.4675 0.92437 0.55325 0.0
H1000 H 0.79213 0.351 0.52308 0.0
H1001 H 0.70369 0.19513 0.52165 0.0
H1002 H 0.72099 0.27672 0.51564 0.0
H1003 H 0.83256 0.26175 0.54311 0.0
H1004 H 0.27762 0.85953 0.56453 0.0
H1005 H 0.43001 0.95549 0.56993 0.0
H1006 H 0.3823 0.85029 0.5424 0.0
H1007 H 0.34504 0.92559 0.57508 0.0
Tb1008 Tb 0.19152 0.34014 0.38353 0.0
C1009 C 0.05461 0.3825 0.35344 0.0
N1010 N 0.10429 0.40317 0.35295 0.0
C1011 C 0.10064 0.39329 0.33285 0.0
C1012 C 0.0261 0.36773 0.34349 0.0
C1013 C 0.12764 0.41073 0.34279 0.0
C1014 C 0.0497 0.3725 0.33312 0.0
C1015 C 0.98072 0.3533 0.36476 0.0
C1016 C 0.03209 0.37439 0.364 0.0
C1017 C 0.9525 0.34083 0.35482 0.0
C1018 C 0.97503 0.34742 0.34423 0.0
Tb1019 Tb 0.14282 0.42399 0.36996 0.0
N1020 N 0.06011 0.38332 0.37348 0.0
C1021 C 0.95903 0.34391 0.37549 0.0
C1022 C 0.03824 0.36967 0.38385 0.0
C1023 C 0.98796 0.352 0.38509 0.0
H1024 H 0.16706 0.43081 0.34226 0.0
H1025 H 0.97122 0.34226 0.39339 0.0
H1026 H 0.21501 0.39517 0.40882 0.0
H1027 H 0.30004 0.29966 0.35488 0.0
H1028 H 0.05848 0.37033 0.39114 0.0
H1029 H 0.91975 0.32826 0.37644 0.0
H1030 H 0.23023 0.30923 0.35983 0.0
H1031 H 0.11952 0.39593 0.32506 0.0
H1032 H 0.91298 0.3246 0.35525 0.0
H1033 H 0.95255 0.33621 0.33666 0.0
H1034 H 0.28393 0.43104 0.42206 0.0
H1035 H 0.02897 0.36002 0.32531 0.0
H1036 H 0.36984 0.32708 0.36799 0.0
N1037 N 0.25233 0.37685 0.39644 0.0
C1038 C 0.29345 0.3749 0.39388 0.0
C1039 C 0.28663 0.41461 0.41423 0.0
C1040 C 0.33163 0.39 0.40177 0.0
C1041 C 0.24781 0.39493 0.40659 0.0
C1042 C 0.32881 0.41266 0.41175 0.0
N1043 N 0.26005 0.3447 0.3757 0.0
C1044 C 0.26119 0.32446 0.3655 0.0
C1045 C 0.33794 0.35236 0.38066 0.0
C1046 C 0.29715 0.35776 0.38327 0.0
C1047 C 0.33958 0.33271 0.37018 0.0
C1048 C 0.30067 0.31801 0.36267 0.0
H1049 H 0.35908 0.43049 0.41749 0.0
H1050 H 0.3967 0.38548 0.40578 0.0
H1051 H 0.40457 0.35751 0.38721 0.0
O1052 O 0.17955 0.26963 0.3788 0.0
O1053 O 0.24822 0.41857 0.38304 0.0
O1054 O 0.2241 0.45814 0.36991 0.0
O1055 O 0.18061 0.28816 0.39613 0.0
O1056 O 0.17829 0.3398 0.36465 0.0
O1057 O 0.19639 0.41795 0.35984 0.0
O1058 O 0.15374 0.48969 0.37755 0.0
O1059 O 0.09422 0.3406 0.36905 0.0
O1060 O 0.11411 0.3139 0.38493 0.0
O1061 O 0.13757 0.47694 0.36005 0.0
O1062 O 0.16129 0.43529 0.38788 0.0
O1063 O 0.14989 0.36327 0.39572 0.0
C1064 C 0.25722 0.45629 0.37657 0.0
C1065 C 0.21208 0.23393 0.39197 0.0
C1066 C 0.24365 0.17638 0.38866 0.0
C1067 C 0.26663 0.18967 0.39927 0.0
C1068 C 0.23656 0.2459 0.40247 0.0
C1069 C 0.26315 0.22392 0.40605 0.0
C1070 C 0.21569 0.19845 0.38499 0.0
C1071 C 0.19668 0.37757 0.35746 0.0
C1072 C 0.18023 0.256 0.38912 0.0
C1073 C 0.37047 0.38134 0.39942 0.0
C1074 C 0.37416 0.36361 0.38885 0.0
C1075 C 0.08623 0.30441 0.37611 0.0
C1076 C 0.19153 0.55906 0.36538 0.0
C1077 C 0.23182 0.64925 0.36649 0.0
C1078 C 0.2679 0.65248 0.35897 0.0
C1079 C 0.22892 0.56407 0.35804 0.0
C1080 C 0.19307 0.60203 0.36964 0.0
C1081 C 0.26644 0.61035 0.35481 0.0
C1082 C 0.1473 0.40467 0.39636 0.0
C1083 C 0.15061 0.50895 0.36811 0.0
H1084 H 0.28708 0.17281 0.40242 0.0
H1085 H 0.23462 0.27195 0.40813 0.0
H1086 H 0.28091 0.23321 0.41425 0.0
H1087 H 0.19665 0.18776 0.37695 0.0
H1088 H 0.29721 0.68795 0.35617 0.0
H1089 H 0.22879 0.53201 0.35465 0.0
H1090 H 0.16455 0.59874 0.37532 0.0
H1091 H 0.29449 0.61361 0.349 0.0
Tb1092 Tb 0.76248 0.89173 0.38308 0.0
C1093 C 0.7219 0.71498 0.35291 0.0
N1094 N 0.70065 0.74345 0.35238 0.0
C1095 C 0.71175 0.75063 0.33232 0.0
C1096 C 0.73769 0.70215 0.34298 0.0
C1097 C 0.69371 0.75974 0.34222 0.0
C1098 C 0.73289 0.72086 0.33262 0.0
C1099 C 0.75317 0.67225 0.36427 0.0
C1100 C 0.72986 0.70045 0.36348 0.0
C1101 C 0.76659 0.6573 0.35435 0.0
C1102 C 0.7592 0.6725 0.34375 0.0
Tb1103 Tb 0.67773 0.75918 0.36936 0.0
N1104 N 0.71889 0.71784 0.37296 0.0
C1105 C 0.76415 0.66154 0.37501 0.0
C1106 C 0.73196 0.70952 0.38339 0.0
C1107 C 0.75411 0.68086 0.38459 0.0
H1108 H 0.67356 0.77899 0.34164 0.0
H1109 H 0.76429 0.67451 0.39291 0.0
H1110 H 0.7395 0.87255 0.41048 0.0
H1111 H 0.78133 0.0384 0.35608 0.0
H1112 H 0.72773 0.72658 0.39077 0.0
H1113 H 0.78203 0.63995 0.37597 0.0
H1114 H 0.7832 0.96304 0.36036 0.0
H1115 H 0.70949 0.76691 0.3245 0.0
H1116 H 0.78421 0.63531 0.35481 0.0
H1117 H 0.77115 0.66191 0.3362 0.0
H1118 H 0.69144 0.88905 0.42434 0.0
H1119 H 0.74584 0.713 0.32484 0.0
H1120 H 0.74617 0.07148 0.36971 0.0
N1121 N 0.73291 0.91588 0.39759 0.0
C1122 C 0.72456 0.95335 0.39536 0.0
C1123 C 0.7009 0.90759 0.41623 0.0
C1124 C 0.7049 0.97033 0.40364 0.0
C1125 C 0.72586 0.89641 0.40818 0.0
C1126 C 0.68854 0.94318 0.41374 0.0
N1127 N 0.75027 0.95336 0.37666 0.0
C1128 C 0.7665 0.9759 0.3664 0.0
C1129 C 0.73161 0.01586 0.38231 0.0
C1130 C 0.73518 0.9739 0.38465 0.0
C1131 C 0.74683 0.03822 0.37173 0.0
C1132 C 0.76564 0.01891 0.36388 0.0
H1133 H 0.66568 0.94765 0.41973 0.0
H1134 H 0.69446 0.03171 0.408 0.0
H1135 H 0.71459 0.06913 0.38934 0.0
O1136 O 0.8321 0.94865 0.37687 0.0
O1137 O 0.68485 0.87122 0.38267 0.0
O1138 O 0.64295 0.80572 0.37005 0.0
O1139 O 0.82023 0.93207 0.39442 0.0
O1140 O 0.76181 0.87929 0.36414 0.0
O1141 O 0.68333 0.8192 0.35948 0.0
O1142 O 0.61261 0.70157 0.37655 0.0
O1143 O 0.76128 0.79513 0.36898 0.0
O1144 O 0.78007 0.83516 0.3856 0.0
O1145 O 0.62567 0.70274 0.35892 0.0
O1146 O 0.66439 0.7632 0.38734 0.0
O1147 O 0.73593 0.82551 0.39517 0.0
C1148 C 0.64623 0.84173 0.37658 0.0
C1149 C 0.87349 0.01742 0.39015 0.0
C1150 C 0.93021 0.10737 0.38715 0.0
C1151 C 0.92182 0.11502 0.39846 0.0
C1152 C 0.86605 0.02852 0.40128 0.0
C1153 C 0.89015 0.07635 0.40536 0.0
C1154 C 0.90629 0.0577 0.383 0.0
C1155 C 0.72344 0.86024 0.3571 0.0
C1156 C 0.84972 0.96342 0.38698 0.0
C1157 C 0.70288 0.01331 0.40146 0.0
C1158 C 0.7159 0.03581 0.39082 0.0
C1159 C 0.79358 0.81894 0.37712 0.0
C1160 C 0.5428 0.66974 0.36442 0.0
C1161 C 0.45306 0.61735 0.36616 0.0
C1162 C 0.44739 0.6477 0.35833 0.0
C1163 C 0.53539 0.69969 0.35677 0.0
C1164 C 0.50119 0.62824 0.36915 0.0
C1165 C 0.48814 0.68839 0.35369 0.0
C1166 C 0.69369 0.7821 0.39604 0.0
C1167 C 0.59383 0.68102 0.36691 0.0
H1168 H 0.94026 0.15162 0.40207 0.0
H1169 H 0.84215 0.99992 0.40711 0.0
H1170 H 0.88446 0.08351 0.41403 0.0
H1171 H 0.913 0.05057 0.37441 0.0
H1172 H 0.41106 0.63961 0.35572 0.0
H1173 H 0.56629 0.73164 0.35301 0.0
H1174 H 0.50619 0.60476 0.37506 0.0
H1175 H 0.48304 0.71127 0.34763 0.0
Tb1176 Tb 0.20946 0.90992 0.38204 0.0
C1177 C 0.39504 0.06162 0.35765 0.0
N1178 N 0.36345 0.01325 0.35549 0.0
C1179 C 0.35801 0.03194 0.33604 0.0
C1180 C 0.40877 0.09711 0.34905 0.0
C1181 C 0.347 0.99785 0.34472 0.0
C1182 C 0.38881 0.08182 0.33822 0.0
C1183 C 0.44867 0.12495 0.37093 0.0
C1184 C 0.41391 0.0756 0.36857 0.0
C1185 C 0.46268 0.16031 0.36234 0.0
C1186 C 0.44231 0.14653 0.35147 0.0
Tb1187 Tb 0.34755 0.96333 0.37078 0.0
N1188 N 0.39889 0.04074 0.3768 0.0
C1189 C 0.46862 0.13717 0.38185 0.0
C1190 C 0.42178 0.05161 0.38704 0.0
C1191 C 0.4558 0.10013 0.38987 0.0
H1192 H 0.32675 0.95954 0.34258 0.0
H1193 H 0.47317 0.10869 0.39812 0.0
H1194 H 0.24488 0.88296 0.40692 0.0
H1195 H 0.06586 0.80063 0.35249 0.0
H1196 H 0.41601 0.02273 0.39277 0.0
H1197 H 0.49528 0.17473 0.38402 0.0
H1198 H 0.1449 0.87114 0.35802 0.0
H1199 H 0.34339 0.01968 0.32764 0.0
H1200 H 0.489 0.19851 0.36402 0.0
H1201 H 0.45322 0.17433 0.34497 0.0
H1202 H 0.21244 0.81199 0.41943 0.0
H1203 H 0.39787 0.10806 0.33141 0.0
H1204 H 0.02018 0.73233 0.36591 0.0
N1205 N 0.18693 0.8485 0.39479 0.0
C1206 C 0.14329 0.8078 0.39222 0.0
C1207 C 0.19226 0.81097 0.41191 0.0
C1208 C 0.12046 0.76883 0.39989 0.0
C1209 C 0.21103 0.85104 0.40461 0.0
C1210 C 0.14718 0.76967 0.40948 0.0
N1211 N 0.14688 0.8416 0.37413 0.0
C1212 C 0.12734 0.84039 0.36372 0.0
C1213 C 0.07586 0.76443 0.37895 0.0
C1214 C 0.12204 0.80484 0.38169 0.0
C1215 C 0.05583 0.76263 0.36827 0.0
C1216 C 0.08177 0.8008 0.36062 0.0
H1217 H 0.13517 0.7383 0.41485 0.0
H1218 H 0.04993 0.70488 0.40394 0.0
H1219 H 1.01369 0.69816 0.38544 0.0
O1220 O 0.1587 0.93021 0.37556 0.0
O1221 O 0.22662 0.85148 0.37905 0.0
O1222 O 0.30597 0.88198 0.3719 0.0
O1223 O 0.1547 0.90692 0.39303 0.0
O1224 O 0.22915 0.92687 0.3636 0.0
O1225 O 0.29192 0.91229 0.35922 0.0
O1226 O 0.40724 0.9577 0.37745 0.0
O1227 O 0.31286 0.01275 0.37092 0.0
O1228 O 0.26057 0.98517 0.3859 0.0
O1229 O 0.40063 0.96542 0.35967 0.0
O1230 O 0.33215 0.94005 0.38846 0.0
O1231 O 0.27062 0.9523 0.3952 0.0
C1232 C 0.26291 0.84573 0.37543 0.0
C1233 C 0.08952 0.92287 0.38694 0.0
C1234 C 1.00131 0.8978 0.38518 0.0
C1235 C 1.01031 0.9371 0.39235 0.0
C1236 C 0.09587 0.96056 0.39427 0.0
C1237 C 0.05685 0.96791 0.39683 0.0
C1238 C 0.04168 0.89101 0.38232 0.0
C1239 C 0.24927 0.90799 0.3568 0.0
C1240 C 0.13295 0.91655 0.38486 0.0
C1241 C 0.07224 0.73098 0.3976 0.0
C1242 C 0.05044 0.72819 0.38711 0.0
C1243 C 0.28281 0.01784 0.37807 0.0
C1244 C 0.43522 0.91683 0.3651 0.0
C1245 C 0.48715 0.87913 0.36682 0.0
C1246 C 0.45634 0.84289 0.35906 0.0
C1247 C 0.40452 0.87897 0.35762 0.0
C1248 C 0.47685 0.91678 0.36974 0.0
C1249 C 0.41539 0.84275 0.35455 0.0
C1250 C 0.31529 0.95665 0.39639 0.0
C1251 C 0.42453 0.95701 0.3675 0.0
H1252 H 0.98065 0.94346 0.3947 0.0
H1253 H 0.1313 0.98447 0.3981 0.0
H1254 H 0.06257 0.99741 0.40248 0.0
H1255 H 0.0357 0.86066 0.37693 0.0
H1256 H 0.46399 0.81431 0.35649 0.0
H1257 H 0.3723 0.8777 0.35397 0.0
H1258 H 0.50069 0.94543 0.37559 0.0
H1259 H 0.39192 0.81436 0.34863 0.0
Tb1260 Tb 0.68253 0.85923 0.78143 0.0
C1261 C 0.71652 0.71466 0.80892 0.0
N1262 N 0.73735 0.76409 0.81006 0.0
C1263 C 0.72401 0.75507 0.8301 0.0
C1264 C 0.69624 0.68321 0.8183 0.0
C1265 C 0.74377 0.78462 0.82056 0.0
C1266 C 0.69922 0.70404 0.82896 0.0
C1267 C 0.69705 0.64493 0.7968 0.0
C1268 C 0.71662 0.69573 0.79829 0.0
C1269 C 0.67532 0.6132 0.80605 0.0
C1270 C 0.67478 0.63228 0.81676 0.0
Tb1271 Tb 0.76606 0.80764 0.79368 0.0
N1272 N 0.73651 0.72738 0.78945 0.0
C1273 C 0.70048 0.62778 0.78609 0.0
C1274 C 0.74376 0.71149 0.77932 0.0
C1275 C 0.72493 0.66136 0.77738 0.0
H1276 H 0.76585 0.8237 0.82171 0.0
H1277 H 0.7301 0.64879 0.76924 0.0
H1278 H 0.7291 0.87776 0.7552 0.0
H1279 H 0.65371 0.97089 0.81116 0.0
H1280 H 0.76586 0.73752 0.77295 0.0
H1281 H 0.68595 0.58896 0.78458 0.0
H1282 H 0.66571 0.90305 0.80614 0.0
H1283 H 0.72899 0.77197 0.83832 0.0
H1284 H 0.65947 0.57391 0.80505 0.0
H1285 H 0.65859 0.60741 0.82385 0.0
H1286 H 0.74499 0.9384 0.7403 0.0
H1287 H 0.68415 0.68119 0.8364 0.0
H1288 H 0.67145 0.03641 0.79752 0.0
N1289 N 0.71449 0.91701 0.76788 0.0
C1290 C 0.71006 0.95682 0.77041 0.0
C1291 C 0.73484 0.94364 0.74873 0.0
C1292 C 0.71409 0.98969 0.7619 0.0
C1293 C 0.72674 0.90984 0.75726 0.0
C1294 C 0.72773 0.98314 0.751 0.0
N1295 N 0.69405 0.92991 0.78957 0.0
C1296 C 0.67829 0.93281 0.80022 0.0
C1297 C 0.69272 1.00328 0.78429 0.0
C1298 C 0.70016 0.9638 0.7816 0.0
C1299 C 0.67892 1.00739 0.79527 0.0
C1300 C 0.67029 0.97121 0.80313 0.0
H1301 H 0.73373 1.00822 0.74423 0.0
H1302 H 0.70162 0.05049 0.75832 0.0
H1303 H 0.68692 0.06405 0.77757 0.0
O1304 O 0.61464 0.85065 0.78765 0.0
O1305 O 0.76124 0.91542 0.78086 0.0
O1306 O 0.80159 0.88791 0.79267 0.0
O1307 O 0.63075 0.8575 0.76974 0.0
O1308 O 0.68356 0.8428 0.79996 0.0
O1309 O 0.76212 0.86196 0.8041 0.0
O1310 O 0.83021 0.80791 0.78706 0.0
O1311 O 0.68225 0.75826 0.79399 0.0
O1312 O 0.65284 0.78166 0.77892 0.0
O1313 O 0.82157 0.81941 0.80488 0.0
O1314 O 0.77361 0.82763 0.77583 0.0
O1315 O 0.69911 0.81302 0.76905 0.0
C1316 C 0.80021 0.92244 0.78658 0.0
C1317 C 0.55587 0.85857 0.77507 0.0
C1318 C 0.49337 0.88311 0.77879 0.0
C1319 C 0.47571 0.86825 0.76774 0.0
C1320 C 0.53675 0.84481 0.76409 0.0
C1321 C 0.49708 0.84934 0.76051 0.0
C1322 C 0.53393 0.87816 0.78252 0.0
C1323 C 0.72211 0.86199 0.80688 0.0
C1324 C 0.60286 0.85909 0.77766 0.0
C1325 C 0.70359 0.02704 0.76461 0.0
C1326 C 0.69442 0.03468 0.77574 0.0
C1327 C 0.64555 0.75075 0.78704 0.0
C1328 C 0.89585 0.81955 0.80061 0.0
C1329 C 0.98455 0.85247 0.79903 0.0
C1330 C 0.9842 0.83334 0.80979 0.0
C1331 C 0.8969 0.80059 0.81132 0.0
C1332 C 0.93998 0.84515 0.79433 0.0
C1333 C 0.9407 0.80743 0.81584 0.0
C1334 C 0.73966 0.80923 0.76802 0.0
C1335 C 0.84984 0.81782 0.79713 0.0
H1336 H 0.44505 0.87153 0.76463 0.0
H1337 H 0.55296 0.83084 0.75812 0.0
H1338 H 0.48305 0.83853 0.75199 0.0
H1339 H 0.54887 0.89044 0.79092 0.0
H1340 H 1.01796 0.83861 0.81354 0.0
H1341 H 0.86378 0.78131 0.81635 0.0
H1342 H 0.94004 0.86091 0.78617 0.0
H1343 H 0.94104 0.79315 0.82416 0.0
Tb1344 Tb 0.25018 0.87379 0.78321 0.0
C1345 C 0.39534 0.05691 0.80917 0.0
N1346 N 0.34678 0.02595 0.81108 0.0
C1347 C 0.36265 0.0237 0.83088 0.0
C1348 C 0.42982 0.07114 0.81802 0.0
C1349 C 0.32989 1.01091 0.82183 0.0
C1350 C 0.41295 0.05345 0.82895 0.0
C1351 C 0.45995 0.1086 0.79604 0.0
C1352 C 0.41025 0.07482 0.79828 0.0
C1353 C 0.49476 0.12187 0.80475 0.0
C1354 C 0.47974 0.10309 0.81571 0.0
Tb1355 Tb 0.29756 1.00676 0.79553 0.0
N1356 N 0.37569 0.06046 0.79001 0.0
C1357 C 0.47294 0.12865 0.78515 0.0
C1358 C 0.38737 0.08375 0.77981 0.0
C1359 C 0.43628 0.11692 0.77706 0.0
H1360 H 0.29117 0.9908 0.82355 0.0
H1361 H 0.44547 0.13437 0.76883 0.0
H1362 H 0.24635 0.89952 0.75585 0.0
H1363 H 0.11255 0.74646 0.81229 0.0
H1364 H 0.35899 0.0787 0.77399 0.0
H1365 H 0.51078 0.15464 0.78305 0.0
H1366 H 0.19269 0.81423 0.80726 0.0
H1367 H 0.34903 1.01121 0.83935 0.0
H1368 H 0.53326 0.14728 0.80314 0.0
H1369 H 0.50691 0.11424 0.82238 0.0
H1370 H 0.18382 0.87009 0.74104 0.0
H1371 H 0.43826 0.06357 0.83599 0.0
H1372 H 0.04932 0.70461 0.79757 0.0
N1373 N 0.19797 0.85008 0.76842 0.0
C1374 C 0.15317 0.8105 0.77058 0.0
C1375 C 0.17525 0.85253 0.74926 0.0
C1376 C 0.11853 0.78843 0.76191 0.0
C1377 C 0.21019 0.87001 0.75783 0.0
C1378 C 0.12917 0.81221 0.75137 0.0
N1379 N 0.17434 0.81855 0.79003 0.0
C1380 C 0.16481 0.80072 0.80087 0.0
C1381 C 0.0951 0.75258 0.78416 0.0
C1382 C 0.14108 0.79402 0.7817 0.0
C1383 C 0.08412 0.73652 0.79537 0.0
C1384 C 0.11937 0.7605 0.80373 0.0
H1385 H 0.10207 0.80232 0.74491 0.0
H1386 H 0.05015 0.7226 0.75754 0.0
H1387 H 0.02802 0.69392 0.77695 0.0
O1388 O 0.25622 0.81449 0.79034 0.0
O1389 O 0.19813 0.901 0.78105 0.0
O1390 O 0.21765 0.95674 0.79552 0.0
O1391 O 0.25664 0.82419 0.77219 0.0
O1392 O 0.26382 0.88756 0.80206 0.0
O1393 O 0.24508 0.94754 0.80613 0.0
O1394 O 0.28782 0.06539 0.78911 0.0
O1395 O 0.34669 0.97279 0.79686 0.0
O1396 O 0.32746 0.92397 0.7812 0.0
O1397 O 0.28837 0.05107 0.80711 0.0
O1398 O 0.28115 0.99656 0.77737 0.0
O1399 O 0.29841 0.93743 0.77125 0.0
C1400 C 0.18688 0.92722 0.78777 0.0
C1401 C 0.25888 0.75101 0.77849 0.0
C1402 C 0.23108 0.66229 0.78066 0.0
C1403 C 0.26531 0.66783 0.77231 0.0
C1404 C 0.29208 0.75407 0.77018 0.0
C1405 C 0.2954 0.71305 0.76719 0.0
C1406 C 0.22816 0.7046 0.78387 0.0
C1407 C 0.24794 0.90924 0.80925 0.0
C1408 C 0.25483 0.79593 0.78043 0.0
C1409 C 0.07466 0.74453 0.76421 0.0
C1410 C 0.06252 0.72722 0.77532 0.0
C1411 C 0.35658 0.94632 0.78966 0.0
C1412 C 0.27678 0.11918 0.80275 0.0
C1413 C 0.24422 0.1746 0.79992 0.0
C1414 C 0.25757 0.19138 0.81108 0.0
C1415 C 0.28972 0.13705 0.81388 0.0
C1416 C 0.25424 0.13851 0.79565 0.0
C1417 C 0.28019 0.17281 0.81798 0.0
C1418 C 0.29908 0.98006 0.76963 0.0
C1419 C 0.28337 0.07752 0.7994 0.0
H1420 H 0.26846 0.63656 0.76964 0.0
H1421 H 0.31548 0.78851 0.76589 0.0
H1422 H 0.32117 0.71621 0.76072 0.0
H1423 H 0.20132 0.7011 0.79009 0.0
H1424 H 0.25038 0.21913 0.81447 0.0
H1425 H 0.3068 0.12287 0.81953 0.0
H1426 H 0.24327 0.12467 0.78711 0.0
H1427 H 0.29003 0.18593 0.82658 0.0
Tb1428 Tb 0.22984 0.42355 0.78273 0.0
C1429 C 0.06129 0.38616 0.81376 0.0
N1430 N 0.08611 0.36102 0.81367 0.0
C1431 C 0.09423 0.36758 0.83383 0.0
C1432 C 0.05232 0.40332 0.82397 0.0
C1433 C 0.09983 0.34894 0.82358 0.0
C1434 C 0.07015 0.39467 0.83406 0.0
C1435 C 1.01562 0.417 0.80337 0.0
C1436 C 0.04344 0.39332 0.80355 0.0
C1437 C 1.00713 0.43473 0.81354 0.0
C1438 C 0.02564 0.42814 0.8238 0.0
Tb1439 Tb 0.09826 0.33941 0.79612 0.0
N1440 N 0.0539 0.37733 0.79378 0.0
C1441 C 0.99667 0.42149 0.79299 0.0
C1442 C 0.03288 0.3785 0.78382 0.0
C1443 C 1.00466 0.40142 0.7832 0.0
H1444 H 0.11475 0.32468 0.82365 0.0
H1445 H 0.98853 0.40296 0.77523 0.0
H1446 H 0.20085 0.39141 0.75553 0.0
H1447 H 0.37334 0.43441 0.8096 0.0
H1448 H 0.03666 0.36063 0.77647 0.0
H1449 H 0.97478 0.4392 0.79249 0.0
H1450 H 0.2973 0.43551 0.80583 0.0
H1451 H 0.10848 0.36089 0.8415 0.0
H1452 H 0.98598 0.4533 0.81358 0.0
H1453 H 0.01853 0.44178 0.83157 0.0
H1454 H 0.22866 0.35794 0.74054 0.0
H1455 H 0.06449 0.40776 0.84207 0.0
H1456 H 0.40991 0.40737 0.7951 0.0
N1457 N 0.25133 0.39283 0.76788 0.0
C1458 C 0.29118 0.38779 0.76975 0.0
C1459 C 0.24682 0.36675 0.7487 0.0
C1460 C 0.31213 0.37458 0.76093 0.0
C1461 C 0.23025 0.3845 0.7574 0.0
C1462 C 0.28735 0.3611 0.75052 0.0
N1463 N 0.28889 0.40728 0.78901 0.0
C1464 C 0.31063 0.4207 0.79945 0.0
C1465 C 0.35466 0.39487 0.78259 0.0
C1466 C 0.31116 0.39622 0.78058 0.0
C1467 C 0.37575 0.40662 0.79333 0.0
C1468 C 0.35428 0.42069 0.80169 0.0
H1469 H 0.29749 0.34493 0.74384 0.0
H1470 H 0.37756 0.37225 0.75604 0.0
H1471 H 0.41227 0.38623 0.7749 0.0
O1472 O 0.28883 0.49094 0.78925 0.0
O1473 O 0.20316 0.34382 0.78136 0.0
O1474 O 0.14509 0.3056 0.79558 0.0
O1475 O 0.27572 0.48052 0.77156 0.0
O1476 O 0.21727 0.4222 0.8017 0.0
O1477 O 0.15793 0.34316 0.8059 0.0
O1478 O 0.0455 0.27142 0.78863 0.0
O1479 O 0.13366 0.42274 0.79638 0.0
O1480 O 0.17976 0.4505 0.78035 0.0
O1481 O 0.03664 0.29051 0.80543 0.0
O1482 O 0.10183 0.33169 0.77795 0.0
O1483 O 0.1647 0.40532 0.77105 0.0
C1484 C 0.17568 0.30553 0.78785 0.0
C1485 C 0.36082 0.52484 0.77704 0.0
C1486 C 0.45092 0.57639 0.78071 0.0
C1487 C 0.45924 0.55176 0.77185 0.0
C1488 C 0.37246 0.50435 0.76778 0.0
C1489 C 0.42058 0.5166 0.76544 0.0
C1490 C 0.40102 0.56242 0.78339 0.0
C1491 C 0.198 0.38358 0.80865 0.0
C1492 C 0.30702 0.50795 0.77928 0.0
C1493 C 0.35699 0.37608 0.76283 0.0
C1494 C 0.37772 0.38535 0.77363 0.0
C1495 C 0.15681 0.4573 0.78863 0.0
C1496 C 1.00553 0.20634 0.80228 0.0
C1497 C 0.95434 0.1164 0.80105 0.0
C1498 C 0.96595 0.11361 0.81246 0.0
C1499 C 1.01799 0.20141 0.81346 0.0
C1500 C 0.9746 0.16353 0.79598 0.0
C1501 C 0.99804 0.1555 0.81849 0.0
C1502 C 0.12109 0.36398 0.76984 0.0
C1503 C 0.02 0.25606 0.79791 0.0
H1504 H 0.49633 0.5618 0.76943 0.0
H1505 H 0.34427 0.47888 0.76211 0.0
H1506 H 0.4281 0.49955 0.75835 0.0
H1507 H 0.39372 0.58115 0.79015 0.0
H1508 H 0.94981 0.07881 0.81687 0.0
H1509 H 0.04216 0.23322 0.81851 0.0
H1510 H 0.96632 0.16732 0.78727 0.0
H1511 H 1.00691 0.1524 0.8272 0.0
Tb1512 Tb 0.30253 0.33986 0.29659 0.0
C1513 C 0.14807 0.37768 0.27069 0.0
N1514 N 0.19402 0.38588 0.26866 0.0
C1515 C 0.17312 0.35961 0.24953 0.0
C1516 C 0.11329 0.36225 0.26196 0.0
C1517 C 0.20785 0.38102 0.25804 0.0
C1518 C 0.12538 0.34897 0.2516 0.0
C1519 C 0.09213 0.38576 0.28342 0.0
C1520 C 0.1371 0.38751 0.28141 0.0
C1521 C 0.05848 0.37366 0.27456 0.0
C1522 C 0.06938 0.36281 0.26385 0.0
Tb1523 Tb 0.24701 0.41854 0.28323 0.0
N1524 N 0.17183 0.40173 0.28963 0.0
C1525 C 0.08412 0.40044 0.29397 0.0
C1526 C 0.16462 0.4174 0.29988 0.0
C1527 C 0.12102 0.41752 0.3021 0.0
H1528 H 0.24565 0.39526 0.25595 0.0
H1529 H 0.11675 0.43338 0.30981 0.0
H1530 H 0.27908 0.32954 0.32441 0.0
H1531 H 0.47343 0.4413 0.27299 0.0
H1532 H 0.19357 0.43354 0.30608 0.0
H1533 H 0.05071 0.40122 0.2957 0.0
H1534 H 0.38455 0.40046 0.27528 0.0
H1535 H 0.18342 0.35272 0.24128 0.0
H1536 H 0.02469 0.37435 0.27578 0.0
H1537 H 0.04478 0.35838 0.25704 0.0
H1538 H 0.32756 0.36056 0.34178 0.0
H1539 H 0.09931 0.33045 0.24501 0.0
H1540 H 0.52645 0.45608 0.28966 0.0
N1541 N 0.3416 0.36066 0.31355 0.0
C1542 C 0.39149 0.38406 0.31288 0.0
C1543 C 0.34594 0.36633 0.33376 0.0
C1544 C 0.42044 0.39838 0.32277 0.0
C1545 C 0.31853 0.35056 0.32381 0.0
C1546 C 0.39702 0.38958 0.33328 0.0
N1547 N 0.38506 0.38574 0.29284 0.0
C1548 C 0.40625 0.40321 0.2825 0.0
C1549 C 0.46547 0.42119 0.30136 0.0
C1550 C 0.41381 0.3955 0.30223 0.0
C1551 C 0.48691 0.43617 0.29066 0.0
C1552 C 0.45716 0.42785 0.28123 0.0
H1553 H 0.41805 0.40099 0.34107 0.0
H1554 H 0.49453 0.43311 0.3294 0.0
H1555 H 0.53388 0.4528 0.31068 0.0
O1556 O 0.29413 0.27555 0.28864 0.0
O1557 O 0.34807 0.42417 0.29669 0.0
O1558 O 0.32285 0.44263 0.28056 0.0
O1559 O 0.31179 0.28828 0.30609 0.0
O1560 O 0.28143 0.32463 0.27897 0.0
O1561 O 0.29071 0.39592 0.2713 0.0
O1562 O 0.25571 0.48678 0.28937 0.0
O1563 O 0.19289 0.34015 0.28399 0.0
O1564 O 0.22066 0.30284 0.29688 0.0
O1565 O 0.25565 0.4732 0.27174 0.0
O1566 O 0.26087 0.4201 0.30215 0.0
O1567 O 0.24871 0.34373 0.30702 0.0
C1568 C 0.35314 0.45733 0.28897 0.0
C1569 C 0.25905 0.2055 0.30081 0.0
C1570 C 0.21891 0.11515 0.29923 0.0
C1571 C 0.18548 0.11119 0.30763 0.0
C1572 C 0.22371 0.19944 0.30891 0.0
C1573 C 0.18776 0.15281 0.31235 0.0
C1574 C 0.25654 0.16286 0.29592 0.0
C1575 C 0.29377 0.35468 0.27049 0.0
C1576 C 0.29874 0.25644 0.29797 0.0
C1577 C 0.47176 0.42221 0.32187 0.0
C1578 C 0.49417 0.43331 0.31121 0.0
C1579 C 0.18601 0.30333 0.29047 0.0
C1580 C 0.21698 0.51967 0.27683 0.0
C1581 C 0.18165 0.57462 0.27968 0.0
C1582 C 0.1533 0.55408 0.26988 0.0
C1583 C 0.18712 0.50091 0.26714 0.0
C1584 C 0.21434 0.55743 0.28312 0.0
C1585 C 0.15592 0.51781 0.26376 0.0
C1586 C 0.24576 0.38271 0.30941 0.0
C1587 C 0.25294 0.50189 0.27928 0.0
H1588 H 0.1572 0.07544 0.31056 0.0
H1589 H 0.22423 0.23099 0.31274 0.0
H1590 H 0.16141 0.14887 0.31875 0.0
H1591 H 0.28318 0.16676 0.2896 0.0
H1592 H 0.12944 0.567 0.26671 0.0
H1593 H 0.1884 0.47353 0.26184 0.0
H1594 H 0.23747 0.57329 0.29049 0.0
H1595 H 0.13399 0.50309 0.25618 0.0
Tb1596 Tb 0.7634 1.00627 0.29627 0.0
C1597 C 0.72276 0.80937 0.27343 0.0
N1598 N 0.72077 0.85016 0.2706 0.0
C1599 C 0.75746 0.85427 0.25267 0.0
C1600 C 0.73919 0.78733 0.26559 0.0
C1601 C 0.73698 0.87216 0.26034 0.0
C1602 C 0.75889 0.81208 0.25533 0.0
C1603 C 0.7043 0.74437 0.28695 0.0
C1604 C 0.70701 0.78923 0.28414 0.0
C1605 C 0.71762 0.72048 0.27891 0.0
C1606 C 0.73389 0.74128 0.26823 0.0
Tb1607 Tb 0.68126 0.87194 0.28323 0.0
N1608 N 0.6913 0.81181 0.29148 0.0
C1609 C 0.68416 0.72254 0.29734 0.0
C1610 C 0.67033 0.78967 0.30157 0.0
C1611 C 0.66597 0.74469 0.30452 0.0
H1612 H 0.736 0.9044 0.2582 0.0
H1613 H 0.64671 0.72606 0.31216 0.0
H1614 H 0.77414 0.98989 0.324 0.0
H1615 H 0.68961 0.1049 0.27386 0.0
H1616 H 0.65281 0.80387 0.30699 0.0
H1617 H 0.68029 0.68745 0.29966 0.0
H1618 H 0.72186 0.04873 0.27548 0.0
H1619 H 0.77207 0.87297 0.2447 0.0
H1620 H 0.71364 0.6849 0.28072 0.0
H1621 H 0.73913 0.71937 0.26202 0.0
H1622 H 0.73595 0.99674 0.34138 0.0
H1623 H 0.77688 0.80098 0.24937 0.0
H1624 H 0.66612 0.13244 0.29117 0.0
N1625 N 0.74164 0.02114 0.31356 0.0
C1626 C 0.71846 0.04783 0.31335 0.0
C1627 C 0.73185 0.01259 0.33366 0.0
C1628 C 0.70157 0.05844 0.32341 0.0
C1629 C 0.75126 1.0063 0.32362 0.0
C1630 C 0.70729 0.0392 0.33362 0.0
N1631 N 0.72353 0.0491 0.29334 0.0
C1632 C 0.71538 0.06294 0.28301 0.0
C1633 C 0.68906 0.09353 0.30249 0.0
C1634 C 0.71124 0.06423 0.30298 0.0
C1635 C 0.68261 0.10949 0.2919 0.0
C1636 C 0.69593 0.09416 0.28211 0.0
H1637 H 0.69332 0.04502 0.3415 0.0
H1638 H 0.66587 0.09585 0.3306 0.0
H1639 H 0.65595 0.12748 0.31232 0.0
O1640 O 0.82849 0.0611 0.28827 0.0
O1641 O 0.68009 0.97159 0.29628 0.0
O1642 O 0.65122 0.91952 0.28112 0.0
O1643 O 0.81541 0.06643 0.30575 0.0
O1644 O 0.77235 0.99893 0.27823 0.0
O1645 O 0.70043 0.9354 0.27084 0.0
O1646 O 0.61203 0.81263 0.28834 0.0
O1647 O 0.76092 0.89983 0.28274 0.0
O1648 O 0.79823 0.95987 0.29666 0.0
O1649 O 0.63019 0.82551 0.27091 0.0
O1650 O 0.68063 0.88648 0.30198 0.0
O1651 O 0.75868 0.94718 0.30654 0.0
C1652 C 0.64355 0.94182 0.28944 0.0
C1653 C 0.89763 0.09432 0.30079 0.0
C1654 C 0.98784 0.14432 0.30003 0.0
C1655 C 0.99052 0.11457 0.30854 0.0
C1656 C 0.90219 0.06452 0.30903 0.0
C1657 C 0.94816 0.07502 0.31294 0.0
C1658 C 0.94093 0.13458 0.29626 0.0
C1659 C 0.74075 0.98029 0.26993 0.0
C1660 C 0.84756 0.0844 0.29769 0.0
C1661 C 0.67898 0.0872 0.32295 0.0
C1662 C 0.67333 0.10522 0.31254 0.0
C1663 C 0.79768 0.9269 0.28956 0.0
C1664 C 0.58156 0.74055 0.27659 0.0
C1665 C 0.5263 0.65164 0.28077 0.0
C1666 C 0.55201 0.64063 0.2727 0.0
C1667 C 0.60443 0.72672 0.26831 0.0
C1668 C 0.54126 0.70218 0.28274 0.0
C1669 C 0.59032 0.67764 0.26652 0.0
C1670 C 0.71854 0.90648 0.30911 0.0
C1671 C 0.59908 0.79463 0.27823 0.0
H1672 H 0.02579 0.12204 0.31181 0.0
H1673 H 0.86996 0.03349 0.31265 0.0
H1674 H 0.951 0.05241 0.31947 0.0
H1675 H 0.93817 0.15785 0.28988 0.0
H1676 H 0.54089 0.60276 0.27079 0.0
H1677 H 0.63334 0.75391 0.26304 0.0
H1678 H 0.5213 0.71142 0.28878 0.0
H1679 H 0.60872 0.66814 0.26011 0.0
Tb1680 Tb 0.09498 0.80251 0.2952 0.0
C1681 C 0.29547 0.95114 0.2716 0.0
N1682 N 0.2547 0.90768 0.26902 0.0
C1683 C 0.25754 0.93309 0.24986 0.0
C1684 C 0.32058 0.98642 0.26318 0.0
C1685 C 0.23588 0.89789 0.25831 0.0
C1686 C 0.30005 0.9772 0.25226 0.0
C1687 C 0.35517 1.00395 0.28564 0.0
C1688 C 0.31227 0.95985 0.28274 0.0
C1689 C 0.3818 0.03805 0.27717 0.0
C1690 C 0.36526 0.02879 0.26599 0.0
Tb1691 Tb 0.22979 0.85151 0.28303 0.0
N1692 N 0.2873 0.92459 0.29065 0.0
C1693 C 0.3715 1.01144 0.29685 0.0
C1694 C 0.30496 0.93075 0.30148 0.0
C1695 C 0.34641 0.97446 0.30478 0.0
H1696 H 0.20486 0.86296 0.25609 0.0
H1697 H 0.36047 0.9785 0.31331 0.0
H1698 H 0.10946 0.81744 0.32344 0.0
H1699 H 0.97602 0.64387 0.27021 0.0
H1700 H 0.29018 0.90115 0.30747 0.0
H1701 H 0.40445 0.04478 0.29937 0.0
H1702 H 0.02759 0.73254 0.27417 0.0
H1703 H 0.2421 0.92578 0.24141 0.0
H1704 H 0.41588 0.0713 0.27914 0.0
H1705 H 0.38846 0.0547 0.2597 0.0
H1706 H 0.09799 0.7644 0.33979 0.0
H1707 H 0.31537 1.00342 0.24554 0.0
H1708 H 0.95976 0.58363 0.28549 0.0
N1709 N 0.07838 0.75848 0.3116 0.0
C1710 C 0.0508 0.70895 0.31031 0.0
C1711 C 0.08455 0.74833 0.33155 0.0
C1712 C 0.04031 0.67706 0.31958 0.0
C1713 C 0.09268 0.77845 0.32215 0.0
C1714 C 0.05862 0.69739 0.33025 0.0
N1715 N 0.04585 0.72212 0.29075 0.0
C1716 C 0.02358 0.70642 0.28052 0.0
C1717 C 1.00273 0.63938 0.29794 0.0
C1718 C 0.03301 0.69023 0.29959 0.0
C1719 C 0.98333 0.62247 0.28712 0.0
C1720 C 0.99292 0.65629 0.27844 0.0
H1721 H 0.05199 0.67416 0.33757 0.0
H1722 H 1.00368 0.60095 0.32489 0.0
H1723 H 0.97022 0.56801 0.30599 0.0
O1724 O 0.03898 0.8113 0.28748 0.0
O1725 O 0.12777 0.75192 0.29546 0.0
O1726 O 0.18162 0.77417 0.28071 0.0
O1727 O 0.03938 0.80088 0.30534 0.0
O1728 O 0.10711 0.8215 0.2772 0.0
O1729 O 0.16636 0.80555 0.27071 0.0
O1730 O 0.29184 0.84794 0.28922 0.0
O1731 O 0.20533 0.9061 0.2822 0.0
O1732 O 0.14319 0.88369 0.29561 0.0
O1733 O 0.27377 0.83875 0.2717 0.0
O1734 O 0.21311 0.8351 0.30171 0.0
O1735 O 0.15337 0.85422 0.3061 0.0
C1736 C 0.15725 0.74391 0.28882 0.0
C1737 C 1.01018 0.85296 0.29926 0.0
C1738 C 0.95959 0.89199 0.29769 0.0
C1739 C 0.99376 0.9308 0.30445 0.0
C1740 C 0.04378 0.89267 0.30593 0.0
C1741 C 0.03537 0.93101 0.30855 0.0
C1742 C 0.96767 0.85261 0.29515 0.0
C1743 C 0.12285 0.80332 0.26938 0.0
C1744 C 0.01895 0.81148 0.29711 0.0
C1745 C 1.01184 0.62612 0.31789 0.0
C1746 C 0.99281 0.60734 0.30712 0.0
C1747 C 0.17858 0.91653 0.28899 0.0
C1748 C 0.35995 0.87767 0.27596 0.0
C1749 C 0.44982 0.91139 0.27865 0.0
C1750 C 0.45739 0.93311 0.26789 0.0
C1751 C 0.37046 0.9012 0.26535 0.0
C1752 C 0.40033 0.88277 0.28265 0.0
C1753 C 0.41837 0.9282 0.26139 0.0
C1754 C 0.1928 0.8526 0.3089 0.0
C1755 C 0.3067 0.84471 0.27917 0.0
H1756 H 0.98796 0.96096 0.30664 0.0
H1757 H 0.07654 0.89393 0.30922 0.0
H1758 H 0.06138 0.9612 0.31376 0.0
H1759 H 0.94118 0.82206 0.29008 0.0
H1760 H 0.49403 0.95369 0.26437 0.0
H1761 H 0.34142 0.89801 0.25988 0.0
H1762 H 0.39333 0.86462 0.29079 0.0
H1763 H 0.42532 0.94513 0.25311 0.0
Tb1764 Tb 0.67446 0.95826 0.86877 0.0
C1765 C 0.71948 0.81083 0.89655 0.0
N1766 N 0.73053 0.85802 0.89796 0.0
C1767 C 0.72479 0.84819 0.91802 0.0
C1768 C 0.71503 0.78167 0.90591 0.0
C1769 C 0.73561 0.87769 0.90852 0.0
C1770 C 0.71417 0.8 0.9167 0.0
C1771 C 0.7043 0.74399 0.88388 0.0
C1772 C 0.71347 0.79214 0.88565 0.0
C1773 C 0.70532 0.71667 0.89313 0.0
C1774 C 0.71215 0.73613 0.90406 0.0
Tb1775 Tb 0.75068 0.90192 0.88184 0.0
N1776 N 0.71661 0.82128 0.87683 0.0
C1777 C 0.69598 0.72541 0.87287 0.0
C1778 C 0.71045 0.80381 0.866 0.0
C1779 C 0.69831 0.75526 0.86391 0.0
H1780 H 0.75026 0.91639 0.90972 0.0
H1781 H 0.69221 0.74121 0.85537 0.0
H1782 H 0.6723 0.9401 0.84077 0.0
H1783 H 0.76075 0.12617 0.89376 0.0
H1784 H 0.71604 0.82677 0.85887 0.0
H1785 H 0.68828 0.68837 0.87118 0.0
H1786 H 0.73242 0.0395 0.89051 0.0
H1787 H 0.72633 0.86302 0.92638 0.0
H1788 H 0.70104 0.68058 0.89192 0.0
H1789 H 0.71518 0.71535 0.91094 0.0
H1790 H 0.71006 0.99224 0.82421 0.0
H1791 H 0.70422 0.77814 0.92414 0.0
H1792 H 0.76914 0.17981 0.87763 0.0
N1793 N 0.69663 1.00032 0.85217 0.0
C1794 C 0.71624 0.04969 0.85321 0.0
C1795 C 0.70989 1.00869 0.83218 0.0
C1796 C 0.7311 0.08023 0.84358 0.0
C1797 C 0.69125 0.97934 0.84177 0.0
C1798 C 0.72867 0.05921 0.83299 0.0
N1799 N 0.71615 0.04043 0.87309 0.0
C1800 C 0.73187 0.06077 0.88356 0.0
C1801 C 0.74354 0.12104 0.86532 0.0
C1802 C 0.72376 0.07 0.86399 0.0
C1803 C 0.75416 0.14084 0.87624 0.0
C1804 C 0.74952 0.11073 0.88537 0.0
H1805 H 0.7418 0.08166 0.82544 0.0
H1806 H 0.76075 0.1548 0.83756 0.0
H1807 H 0.77036 0.19035 0.85657 0.0
O1808 O 0.60895 0.94716 0.87644 0.0
O1809 O 0.75822 1.00503 0.86854 0.0
O1810 O 0.77893 0.97895 0.88443 0.0
O1811 O 0.622 0.96482 0.85896 0.0
O1812 O 0.66071 0.93882 0.88665 0.0
O1813 O 0.73258 0.94813 0.89392 0.0
O1814 O 0.81325 0.90418 0.8737 0.0
O1815 O 0.67062 0.85366 0.88292 0.0
O1816 O 0.64086 0.87712 0.86773 0.0
O1817 O 0.807 0.90384 0.89179 0.0
O1818 O 0.75615 0.91679 0.86293 0.0
O1819 O 0.68039 0.90556 0.85817 0.0
C1820 C 0.7919 1.00957 0.87603 0.0
C1821 C 0.53951 0.91149 0.86429 0.0
C1822 C 0.44958 0.87159 0.86609 0.0
C1823 C 0.44503 0.83641 0.85812 0.0
C1824 C 0.53325 0.8752 0.85646 0.0
C1825 C 0.48644 0.83824 0.85337 0.0
C1826 C 0.49731 0.90964 0.86913 0.0
C1827 C 0.69108 0.9502 0.89513 0.0
C1828 C 0.59002 0.95149 0.86706 0.0
C1829 C 0.74965 0.13085 0.84487 0.0
C1830 C 0.75504 0.15107 0.8557 0.0
C1831 C 0.63578 0.84447 0.87552 0.0
C1832 C 0.88242 0.91019 0.88515 0.0
C1833 C 0.94763 0.88767 0.88391 0.0
C1834 C 0.9762 0.92662 0.89132 0.0
C1835 C 0.91241 0.94802 0.89266 0.0
C1836 C 0.90031 0.87962 0.88074 0.0
C1837 C 0.95884 0.95636 0.89561 0.0
C1838 C 0.72148 0.90766 0.85526 0.0
C1839 C 0.8307 0.8994 0.88332 0.0
H1840 H 0.4091 0.80761 0.85542 0.0
H1841 H 0.56472 0.87574 0.85259 0.0
H1842 H 0.4822 0.81093 0.84721 0.0
H1843 H 0.50158 0.93738 0.87519 0.0
H1844 H 1.0121 0.93357 0.89399 0.0
H1845 H 0.89948 0.97077 0.89648 0.0
H1846 H 0.87704 0.84897 0.87529 0.0
H1847 H 0.98126 0.98564 0.90146 0.0
Tb1848 Tb 0.13846 0.75436 0.87067 0.0
C1849 C 0.28642 0.95574 0.89464 0.0
N1850 N 0.24499 0.91201 0.8967 0.0
C1851 C 0.27706 0.90611 0.91461 0.0
C1852 C 0.32312 0.97803 0.90289 0.0
C1853 C 0.23924 0.88799 0.90672 0.0
C1854 C 0.31925 0.95084 0.91261 0.0
C1855 C 0.33321 0.02454 0.88195 0.0
C1856 C 0.2921 0.97805 0.88415 0.0
C1857 C 0.36725 0.04916 0.8906 0.0
C1858 C 0.3617 0.02633 0.90109 0.0
Tb1859 Tb 0.18677 0.88983 0.88305 0.0
N1860 N 0.2571 0.95418 0.87615 0.0
C1861 C 0.33796 0.04556 0.87126 0.0
C1862 C 0.26142 0.97468 0.86569 0.0
C1863 C 0.30216 0.02021 0.86305 0.0
H1864 H 0.20623 0.85495 0.90887 0.0
H1865 H 0.30513 0.03642 0.8548 0.0
H1866 H 0.139 0.77585 0.84291 0.0
H1867 H 0.99376 0.63387 0.89905 0.0
H1868 H 0.23246 0.9578 0.85952 0.0
H1869 H 0.36897 0.08133 0.86928 0.0
H1870 H 0.07952 0.68476 0.89282 0.0
H1871 H 0.27353 0.88578 0.92229 0.0
H1872 H 0.39773 0.08601 0.88931 0.0
H1873 H 0.38647 0.04752 0.9078 0.0
H1874 H 0.07742 0.76099 0.8283 0.0
H1875 H 0.34886 0.96216 0.91845 0.0
H1876 H 0.92621 0.6177 0.88582 0.0
N1877 N 0.08619 0.73887 0.85589 0.0
C1878 C 0.03778 0.70947 0.85839 0.0
C1879 C 0.06583 0.74629 0.83672 0.0
C1880 C 1.00135 0.69828 0.85015 0.0
C1881 C 0.10072 0.7558 0.84513 0.0
C1882 C 1.01593 0.71757 0.83924 0.0
N1883 N 0.06109 0.70481 0.87725 0.0
C1884 C 0.05059 0.6818 0.88748 0.0
C1885 C 0.97523 0.66129 0.87231 0.0
C1886 C 0.02488 0.69215 0.86943 0.0
C1887 C 0.96393 0.64176 0.88327 0.0
C1888 C 1.00189 0.65119 0.8908 0.0
H1889 H 0.98903 0.71019 0.83268 0.0
H1890 H 0.92312 0.65962 0.84687 0.0
H1891 H 0.90029 0.62656 0.86619 0.0
O1892 O 0.14179 0.69215 0.87638 0.0
O1893 O 0.09327 0.79243 0.86939 0.0
O1894 O 0.11097 0.83545 0.88574 0.0
O1895 O 0.14066 0.70602 0.85871 0.0
O1896 O 0.15951 0.76649 0.88856 0.0
O1897 O 0.14409 0.8258 0.89547 0.0
O1898 O 0.17229 0.94598 0.87717 0.0
O1899 O 0.24718 0.87455 0.88083 0.0
O1900 O 0.21931 0.79771 0.87239 0.0
O1901 O 0.1761 0.93398 0.89474 0.0
O1902 O 0.17458 0.8744 0.86421 0.0
O1903 O 0.19037 0.81209 0.85975 0.0
C1904 C 0.08105 0.81373 0.87741 0.0
C1905 C 0.18949 0.67162 0.86429 0.0
C1906 C 0.23096 0.62332 0.86677 0.0
C1907 C 0.26856 0.65634 0.85957 0.0
C1908 C 0.22836 0.70417 0.85728 0.0
C1909 C 0.26723 0.6963 0.85489 0.0
C1910 C 0.19099 0.63101 0.86908 0.0
C1911 C 0.14307 0.78273 0.89669 0.0
C1912 C 0.14717 0.67962 0.86622 0.0
C1913 C 0.95172 0.66865 0.85309 0.0
C1914 C 0.93871 0.65003 0.86412 0.0
C1915 C 0.25436 0.83991 0.87661 0.0
C1916 C 0.21244 0.01876 0.88936 0.0
C1917 C 0.25078 0.10882 0.88542 0.0
C1918 C 0.28142 0.11783 0.89483 0.0
C1919 C 0.24326 0.03122 0.89892 0.0
C1920 C 0.21584 0.05852 0.88265 0.0
C1921 C 0.2775 0.07967 0.90148 0.0
C1922 C 0.19344 0.8542 0.85733 0.0
C1923 C 0.17632 0.96443 0.88725 0.0
H1924 H 0.29877 0.65065 0.85737 0.0
H1925 H 0.22857 0.73563 0.85349 0.0
H1926 H 0.2964 0.72119 0.84931 0.0
H1927 H 0.16127 0.60557 0.87448 0.0
H1928 H 0.30746 0.15509 0.89738 0.0
H1929 H 0.24119 1.00332 0.90461 0.0
H1930 H 0.19147 0.05053 0.87549 0.0
H1931 H 0.3008 0.08779 0.90885 0.0
Tb1932 Tb 0.33718 0.42415 0.87061 0.0
C1933 C 0.14001 0.38098 0.8919 0.0
N1934 N 0.18484 0.3861 0.89416 0.0
C1935 C 0.1923 0.43256 0.91075 0.0
C1936 C 0.11784 0.39803 0.89951 0.0
C1937 C 0.21122 0.41177 0.90339 0.0
C1938 C 0.14563 0.42573 0.9088 0.0
C1939 C 0.06953 0.35182 0.87931 0.0
C1940 C 0.11636 0.3588 0.88179 0.0
C1941 C 0.04547 0.36462 0.88736 0.0
C1942 C 0.06902 0.38644 0.89751 0.0
Tb1943 Tb 0.20289 0.34031 0.8825 0.0
N1944 N 0.13965 0.34446 0.87438 0.0
C1945 C 0.04736 0.33027 0.86901 0.0
C1946 C 0.11844 0.3238 0.8642 0.0
C1947 C 0.07191 0.3161 0.86145 0.0
H1948 H 0.247 0.41745 0.90513 0.0
H1949 H 0.05422 0.2977 0.85365 0.0
H1950 H 0.32467 0.44128 0.84303 0.0
H1951 H 0.4302 0.34161 0.89212 0.0
H1952 H 0.13519 0.30956 0.85854 0.0
H1953 H 1.01107 0.32375 0.86689 0.0
H1954 H 0.37367 0.37346 0.89074 0.0
H1955 H 0.21381 0.45369 0.91793 0.0
H1956 H 1.00834 0.35715 0.88592 0.0
H1957 H 0.04752 0.39182 0.90376 0.0
H1958 H 0.33388 0.4074 0.82536 0.0
H1959 H 0.13302 0.44417 0.91426 0.0
H1960 H 0.46415 0.32681 0.87465 0.0
N1961 N 0.35585 0.40765 0.85313 0.0
C1962 C 0.38373 0.38578 0.85307 0.0
C1963 C 0.34957 0.40211 0.83296 0.0
C1964 C 0.39562 0.37113 0.84283 0.0
C1965 C 0.34206 0.41925 0.84318 0.0
C1966 C 0.37681 0.3782 0.83271 0.0
N1967 N 0.38202 0.38581 0.87306 0.0
C1968 C 0.39165 0.37196 0.88325 0.0
C1969 C 0.42834 0.35421 0.86359 0.0
C1970 C 0.39908 0.37652 0.86334 0.0
C1971 C 0.44149 0.34369 0.8741 0.0
C1972 C 0.42255 0.35211 0.88397 0.0
H1973 H 0.38338 0.36573 0.8247 0.0
H1974 H 0.43436 0.33753 0.83526 0.0
H1975 H 0.46388 0.3237 0.85341 0.0
O1976 O 0.4086 0.47822 0.87576 0.0
O1977 O 0.30339 0.34028 0.86992 0.0
O1978 O 0.25066 0.31052 0.88496 0.0
O1979 O 0.37225 0.4912 0.86178 0.0
O1980 O 0.33404 0.43252 0.88857 0.0
O1981 O 0.26593 0.36302 0.89568 0.0
O1982 O 0.14371 0.26999 0.87787 0.0
O1983 O 0.2168 0.41021 0.87583 0.0
O1984 O 0.29868 0.45916 0.87916 0.0
O1985 O 0.15318 0.29558 0.89522 0.0
O1986 O 0.21883 0.33707 0.86395 0.0
O1987 O 0.27807 0.41641 0.85994 0.0
C1988 C 0.27412 0.30328 0.87682 0.0
C1989 C 0.45701 0.55025 0.86444 0.0
C1990 C 0.51849 0.63799 0.86434 0.0
C1991 C 0.54215 0.6293 0.8553 0.0
C1992 C 0.48137 0.54247 0.85547 0.0
C1993 C 0.52393 0.58191 0.85097 0.0
C1994 C 0.47596 0.598 0.86897 0.0
C1995 C 0.31277 0.40104 0.8967 0.0
C1996 C 0.40976 0.51029 0.86861 0.0
C1997 C 0.42481 0.34897 0.84304 0.0
C1998 C 0.4417 0.34117 0.85338 0.0
C1999 C 0.25495 0.45381 0.87703 0.0
C2000 C 0.0786 0.21675 0.89133 0.0
C2001 C 0.9923 0.15079 0.88835 0.0
C2002 C 0.9904 0.13873 0.89988 0.0
C2003 C 0.07452 0.20247 0.9027 0.0
C2004 C 0.03695 0.19065 0.88404 0.0
C2005 C 0.03093 0.16404 0.90691 0.0
C2006 C 0.23983 0.37519 0.85686 0.0
C2007 C 0.12451 0.26253 0.88793 0.0
H2008 H 0.57496 0.65935 0.85159 0.0
H2009 H 0.46705 0.50616 0.85186 0.0
H2010 H 0.54257 0.57586 0.844 0.0
H2011 H 0.45682 0.60426 0.87583 0.0
H2012 H 0.95707 0.10902 0.9035 0.0
H2013 H 0.10509 0.22175 0.90848 0.0
H2014 H 0.03913 0.20136 0.87525 0.0
H2015 H 0.02845 0.15391 0.91575 0.0
Tb2016 Tb 0.85709 0.67438 0.71665 0.0
C2017 C 0.71336 0.70911 0.69078 0.0
N2018 N 0.76256 0.73087 0.68894 0.0
C2019 C 0.74813 0.7081 0.66938 0.0
C2020 C 0.67953 0.68512 0.68197 0.0
C2021 C 0.78022 0.73345 0.67825 0.0
C2022 C 0.69753 0.68368 0.67122 0.0
C2023 C 0.64667 0.69097 0.70377 0.0
C2024 C 0.69703 0.71073 0.70162 0.0
C2025 C 0.61267 0.66663 0.69503 0.0
C2026 C 0.62904 0.66331 0.68419 0.0
Tb2027 Tb 0.80989 0.7616 0.70477 0.0
N2028 N 0.73082 0.73249 0.71001 0.0
C2029 C 0.63229 0.69754 0.71455 0.0
C2030 C 0.71767 0.74359 0.72006 0.0
C2031 C 0.66811 0.72525 0.72263 0.0
H2032 H 0.81884 0.75523 0.67645 0.0
H2033 H 0.65766 0.73331 0.73073 0.0
H2034 H 0.87279 0.71474 0.74335 0.0
H2035 H 0.97376 0.65321 0.6869 0.0
H2036 H 0.74537 0.76833 0.72586 0.0
H2037 H 0.59392 0.68332 0.71654 0.0
H2038 H 0.89957 0.65298 0.69265 0.0
H2039 H 0.76249 0.70743 0.66113 0.0
H2040 H 0.57367 0.6507 0.69654 0.0
H2041 H 0.60239 0.64452 0.67753 0.0
H2042 H 0.94169 0.75395 0.75665 0.0
H2043 H 0.67277 0.66462 0.66426 0.0
H2044 H 0.04597 0.68745 0.69945 0.0
N2045 N 0.91605 0.71007 0.72999 0.0
C2046 C 0.96022 0.71567 0.72692 0.0
C2047 C 0.94692 0.74245 0.74837 0.0
C2048 C 0.99843 0.73148 0.7348 0.0
C2049 C 0.90825 0.72125 0.74069 0.0
C2050 C 0.99227 0.74823 0.74535 0.0
N2051 N 0.92885 0.68997 0.70837 0.0
C2052 C 0.93125 0.67142 0.69805 0.0
C2053 C 1.01015 0.70514 0.71277 0.0
C2054 C 0.96659 0.70466 0.71584 0.0
C2055 C 1.01364 0.68893 0.70199 0.0
C2056 C 0.9734 0.67059 0.69477 0.0
H2057 H 0.02211 0.76723 0.75116 0.0
H2058 H 0.06674 0.73226 0.73814 0.0
H2059 H 0.07932 0.71487 0.71887 0.0
O2060 O 0.84249 0.60489 0.71006 0.0
O2061 O 0.90726 0.75413 0.71825 0.0
O2062 O 0.89027 0.7927 0.70371 0.0
O2063 O 0.86003 0.62269 0.72776 0.0
O2064 O 0.84229 0.67668 0.69791 0.0
O2065 O 0.86048 0.75531 0.6934 0.0
O2066 O 0.8255 0.82949 0.71229 0.0
O2067 O 0.76075 0.67804 0.7045 0.0
O2068 O 0.78006 0.64523 0.71966 0.0
O2069 O 0.80304 0.8134 0.695 0.0
O2070 O 0.82901 0.76642 0.72268 0.0
O2071 O 0.81127 0.69062 0.72922 0.0
C2072 C 0.92114 0.78924 0.71074 0.0
C2073 C 0.85115 0.54373 0.72159 0.0
C2074 C 0.87852 0.48207 0.71916 0.0
C2075 C 0.84483 0.45384 0.72765 0.0
C2076 C 0.8188 0.51387 0.73004 0.0
C2077 C 0.81548 0.46945 0.73297 0.0
C2078 C 0.88137 0.52758 0.71602 0.0
C2079 C 0.86026 0.71469 0.69077 0.0
C2080 C 0.85411 0.59247 0.71958 0.0
C2081 C 0.04038 0.72882 0.73189 0.0
C2082 C 0.04678 0.71692 0.72088 0.0
C2083 C 0.74937 0.64174 0.71184 0.0
C2084 C 0.85575 0.8976 0.69934 0.0
C2085 C 0.89305 0.98776 0.70107 0.0
C2086 C 0.91608 0.99253 0.69055 0.0
C2087 C 0.88099 0.90464 0.68907 0.0
C2088 C 0.86248 0.93954 0.70543 0.0
C2089 C 0.91046 0.95157 0.68472 0.0
C2090 C 0.80941 0.7322 0.73041 0.0
C2091 C 0.81863 0.84669 0.70287 0.0
H2092 H 0.84152 0.41932 0.7303 0.0
H2093 H 0.79589 0.52512 0.73447 0.0
H2094 H 0.79019 0.44704 0.73954 0.0
H2095 H 0.90759 0.55067 0.70966 0.0
H2096 H 0.93807 0.02823 0.68667 0.0
H2097 H 0.87687 0.87365 0.68419 0.0
H2098 H 0.84363 0.93442 0.71342 0.0
H2099 H 0.92846 0.95622 0.67663 0.0
Tb2100 Tb 0.42624 0.22484 0.7165 0.0
C2101 C 0.39285 0.04716 0.68927 0.0
N2102 N 0.36929 0.0732 0.68805 0.0
C2103 C 0.38579 0.08077 0.66814 0.0
C2104 C 0.41464 0.03765 0.67994 0.0
C2105 C 0.36278 0.0872 0.67755 0.0
C2106 C 0.41192 0.05595 0.66932 0.0
C2107 C 0.41794 1.00184 0.70158 0.0
C2108 C 0.39544 0.03035 0.7 0.0
C2109 C 0.4399 0.99239 0.6923 0.0
C2110 C 0.4386 1.01058 0.68153 0.0
Tb2111 Tb 0.34197 0.08891 0.70453 0.0
N2112 N 0.37637 0.04268 0.70892 0.0
C2113 C 0.41725 0.98346 0.71242 0.0
C2114 C 0.37197 0.0217 0.71923 0.0
C2115 C 0.39325 0.99263 0.72124 0.0
H2116 H 0.33965 0.10299 0.67632 0.0
H2117 H 0.39045 0.97671 0.72952 0.0
H2118 H 0.37785 0.19602 0.74253 0.0
H2119 H 0.44431 0.35982 0.68575 0.0
H2120 H 0.35029 0.02555 0.72571 0.0
H2121 H 0.43389 0.9611 0.714 0.0
H2122 H 0.44669 0.28727 0.69194 0.0
H2123 H 0.38334 0.09506 0.66002 0.0
H2124 H 0.45786 0.97092 0.69335 0.0
H2125 H 0.45576 1.00303 0.67446 0.0
H2126 H 0.33959 0.22748 0.75561 0.0
H2127 H 0.42916 0.05048 0.66196 0.0
H2128 H 0.41552 0.40152 0.69873 0.0
N2129 N 0.38879 0.24747 0.72949 0.0
C2130 C 0.38667 0.28817 0.72651 0.0
C2131 C 0.35341 0.24517 0.74751 0.0
C2132 C 0.37016 0.31055 0.73422 0.0
C2133 C 0.37425 0.22685 0.73997 0.0
C2134 C 0.35075 0.28666 0.74457 0.0
N2135 N 0.41391 0.28287 0.70809 0.0
C2136 C 0.43014 0.30193 0.6975 0.0
C2137 C 0.40016 0.3499 0.71238 0.0
C2138 C 0.4003 0.30678 0.71556 0.0
C2139 C 0.41464 0.36817 0.70142 0.0
C2140 C 0.43016 0.34431 0.694 0.0
H2141 H 0.33194 0.29821 0.75026 0.0
H2142 H 0.3684 0.37781 0.73734 0.0
H2143 H 0.38983 0.40919 0.71827 0.0
O2144 O 0.49423 0.28417 0.71054 0.0
O2145 O 0.34659 0.19777 0.717 0.0
O2146 O 0.30662 0.13441 0.7039 0.0
O2147 O 0.47685 0.27556 0.72841 0.0
O2148 O 0.42477 0.20729 0.69787 0.0
O2149 O 0.34642 0.146 0.69351 0.0
O2150 O 0.27854 0.03268 0.71266 0.0
O2151 O 0.42521 0.12426 0.70407 0.0
O2152 O 0.45788 0.17884 0.71879 0.0
O2153 O 0.28866 0.0309 0.6948 0.0
O2154 O 0.33655 0.10401 0.72235 0.0
O2155 O 0.41103 0.16335 0.72911 0.0
C2156 C 0.30883 0.16953 0.71049 0.0
C2157 C 0.55433 0.34956 0.72309 0.0
C2158 C 0.61546 0.43827 0.72071 0.0
C2159 C 0.64025 0.43499 0.73026 0.0
C2160 C 0.58059 0.34882 0.7326 0.0
C2161 C 0.62312 0.3909 0.73609 0.0
C2162 C 0.57215 0.39482 0.717 0.0
C2163 C 0.38648 0.18675 0.69083 0.0
C2164 C 0.50676 0.30356 0.72055 0.0
C2165 C 0.37388 0.35565 0.73128 0.0
C2166 C 0.38787 0.37472 0.72037 0.0
C2167 C 0.46271 0.1536 0.7107 0.0
C2168 C 0.20741 1.00029 0.70096 0.0
C2169 C 0.11821 0.9464 0.70226 0.0
C2170 C 0.11199 0.97832 0.69506 0.0
C2171 C 0.19982 0.03188 0.6939 0.0
C2172 C 0.1662 0.95737 0.70522 0.0
C2173 C 0.15248 0.02073 0.69093 0.0
C2174 C 0.37033 0.1192 0.7302 0.0
C2175 C 0.25824 1.01098 0.70316 0.0
H2176 H 0.67323 0.46711 0.73329 0.0
H2177 H 0.56791 0.31536 0.73745 0.0
H2178 H 0.64277 0.38946 0.74346 0.0
H2179 H 0.55192 0.39654 0.70976 0.0
H2180 H 0.07549 0.97029 0.69262 0.0
H2181 H 0.23062 0.06497 0.69051 0.0
H2182 H 0.1714 0.93257 0.71065 0.0
H2183 H 0.14715 0.04507 0.6854 0.0
Tb2184 Tb 0.87178 0.24757 0.71717 0.0
C2185 C 0.05462 0.37469 0.68985 0.0
N2186 N 0.02498 0.32528 0.68895 0.0
C2187 C 0.02255 0.33222 0.6688 0.0
C2188 C 0.06677 0.40525 0.68028 0.0
C2189 C 1.01131 0.30356 0.67858 0.0
C2190 C 0.04957 0.3834 0.66966 0.0
C2191 C 0.10271 0.44555 0.70183 0.0
C2192 C 0.07244 0.39451 0.70047 0.0
C2193 C 0.11374 0.47646 0.69237 0.0
C2194 C 0.09586 0.45636 0.68162 0.0
Tb2195 Tb 1.00457 0.28322 0.70561 0.0
N2196 N 0.05968 0.36351 0.70948 0.0
C2197 C 0.12124 0.46383 0.71263 0.0
C2198 C 0.08073 0.38074 0.7198 0.0
C2199 C 0.11099 0.43115 0.7216 0.0
H2200 H 0.99237 0.26418 0.67779 0.0
H2201 H 0.12681 0.44469 0.72987 0.0
H2202 H 0.90128 0.22291 0.74298 0.0
H2203 H 0.72513 0.13914 0.68804 0.0
H2204 H 0.07565 0.35586 0.72656 0.0
H2205 H 0.14463 0.50288 0.71405 0.0
H2206 H 0.80624 0.20679 0.69315 0.0
H2207 H 1.01066 0.31476 0.66061 0.0
H2208 H 0.13658 0.51589 0.69326 0.0
H2209 H 0.1052 0.4806 0.67439 0.0
H2210 H 0.85982 0.15946 0.7572 0.0
H2211 H 0.05806 0.40555 0.66208 0.0
H2212 H 0.6758 0.07482 0.702 0.0
N2213 N 0.84347 0.18914 0.73079 0.0
C2214 C 0.79764 0.151 0.72859 0.0
C2215 C 0.84188 0.15699 0.74921 0.0
C2216 C 0.77116 0.11539 0.73685 0.0
C2217 C 0.86565 0.1928 0.74097 0.0
C2218 C 0.79463 0.11841 0.74716 0.0
N2219 N 0.80513 0.18051 0.70989 0.0
C2220 C 0.78691 0.17792 0.69923 0.0
C2221 C 0.73072 0.10741 0.71518 0.0
C2222 C 0.77787 0.14656 0.71781 0.0
C2223 C 0.71217 0.10409 0.70427 0.0
C2224 C 0.74026 0.13981 0.6963 0.0
H2225 H 0.77807 0.09098 0.75357 0.0
H2226 H 0.69965 0.05175 0.74056 0.0
H2227 H 0.66613 0.0441 0.72186 0.0
O2228 O 0.81812 0.2657 0.71122 0.0
O2229 O 0.88041 0.18401 0.71334 0.0
O2230 O 0.96258 0.21774 0.71658 0.0
O2231 O 0.83342 0.26572 0.72877 0.0
O2232 O 0.88928 0.26016 0.69853 0.0
O2233 O 0.94274 0.23165 0.69554 0.0
O2234 O 0.07568 0.29196 0.70829 0.0
O2235 O 0.97396 0.33537 0.70324 0.0
O2236 O 0.93103 0.32149 0.71942 0.0
O2237 O 0.0238 0.23849 0.69652 0.0
O2238 O 1.00028 0.27599 0.72391 0.0
O2239 O 0.93556 0.28661 0.72996 0.0
C2240 C 0.91901 0.17891 0.71468 0.0
C2241 C 0.74891 0.23534 0.72457 0.0
C2242 C 0.65862 0.19606 0.72126 0.0
C2243 C 0.65129 0.18192 0.7327 0.0
C2244 C 0.73824 0.21915 0.73589 0.0
C2245 C 0.6904 0.19309 0.73986 0.0
C2246 C 0.70823 0.22371 0.71716 0.0
C2247 C 0.90672 0.23755 0.69205 0.0
C2248 C 0.80285 0.2662 0.72144 0.0
C2249 C 0.72284 0.07806 0.73439 0.0
C2250 C 0.70301 0.07374 0.7236 0.0
C2251 C 0.95281 0.34982 0.7109 0.0
C2252 C 0.10466 0.25007 0.69586 0.0
C2253 C 0.16694 0.22503 0.69656 0.0
C2254 C 0.16824 0.22572 0.68467 0.0
C2255 C 0.10706 0.25075 0.684 0.0
C2256 C 0.13486 0.23719 0.70217 0.0
C2257 C 0.1386 0.2385 0.67847 0.0
C2258 C 0.97936 0.28928 0.73165 0.0
C2259 C 0.06589 0.25528 0.70161 0.0
H2260 H 0.61465 0.16254 0.73627 0.0
H2261 H 0.76714 0.22716 0.74195 0.0
H2262 H 0.68357 0.18186 0.74864 0.0
H2263 H 0.71499 0.23582 0.70843 0.0
H2264 H 0.19244 0.21633 0.68018 0.0
H2265 H 0.0836 0.25952 0.679 0.0
H2266 H 0.1329 0.23596 0.71134 0.0
H2267 H 0.1398 0.2385 0.66931 0.0
Tb2268 Tb 0.35189 0.18997 0.11669 0.0
C2269 C 0.3866 0.04698 0.14763 0.0
N2270 N 0.41073 0.09689 0.14767 0.0
C2271 C 0.40957 0.0973 0.16795 0.0
C2272 C 0.37373 0.02021 0.15783 0.0
C2273 C 0.42352 0.12231 0.15765 0.0
C2274 C 0.38498 0.04605 0.16807 0.0
C2275 C 0.34758 0.97087 0.13691 0.0
C2276 C 0.37323 0.02258 0.1373 0.0
C2277 C 0.3366 0.94409 0.14704 0.0
C2278 C 0.34924 0.96868 0.15747 0.0
Tb2279 Tb 0.42868 0.13241 0.13025 0.0
N2280 N 0.38159 0.04958 0.12773 0.0
C2281 C 0.33163 0.94765 0.12638 0.0
C2282 C 0.36298 0.02699 0.11761 0.0
C2283 C 0.33861 0.9759 0.11672 0.0
H2284 H 0.44535 0.16182 0.15772 0.0
H2285 H 0.32381 0.95835 0.10865 0.0
H2286 H 0.37078 0.18985 0.08889 0.0
H2287 H 0.34375 0.3231 0.14365 0.0
H2288 H 0.36292 0.04806 0.11051 0.0
H2289 H 0.31173 0.90798 0.12572 0.0
H2290 H 0.33921 0.24426 0.13971 0.0
H2291 H 0.41805 0.11766 0.17577 0.0
H2292 H 0.31694 0.90432 0.14691 0.0
H2293 H 0.33932 0.94745 0.16522 0.0
H2294 H 0.41099 0.25184 0.07419 0.0
H2295 H 0.37478 0.02683 0.1761 0.0
H2296 H 0.37845 0.38948 0.12977 0.0
N2297 N 0.38389 0.24218 0.10197 0.0
C2298 C 0.39415 0.2888 0.1042 0.0
C2299 C 0.40647 0.26248 0.08262 0.0
C2300 C 0.4098 0.32379 0.09553 0.0
C2301 C 0.38575 0.22783 0.09115 0.0
C2302 C 0.42069 0.31088 0.08499 0.0
N2303 N 0.37202 0.26571 0.12334 0.0
C2304 C 0.35678 0.27339 0.1336 0.0
C2305 C 0.39068 0.3465 0.11728 0.0
C2306 C 0.3866 0.30053 0.1151 0.0
C2307 C 0.37747 0.35527 0.12791 0.0
C2308 C 0.359 0.31804 0.13595 0.0
H2309 H 0.4404 0.33681 0.07848 0.0
H2310 H 0.41616 0.39365 0.09091 0.0
H2311 H 0.40427 0.41504 0.10987 0.0
O2312 O 0.28348 0.18178 0.12297 0.0
O2313 O 0.4305 0.24239 0.11697 0.0
O2314 O 0.46768 0.2142 0.12965 0.0
O2315 O 0.30173 0.19157 0.10523 0.0
O2316 O 0.35063 0.17636 0.13558 0.0
O2317 O 0.42749 0.18965 0.14009 0.0
O2318 O 0.48924 0.1353 0.12161 0.0
O2319 O 0.34445 0.08892 0.13056 0.0
O2320 O 0.32368 0.11297 0.11435 0.0
O2321 O 0.48312 0.12709 0.13953 0.0
O2322 O 0.43752 0.13895 0.11209 0.0
O2323 O 0.37408 0.1476 0.10429 0.0
C2324 C 0.46777 0.24868 0.12313 0.0
C2325 C 0.2269 0.19282 0.10988 0.0
C2326 C 0.16564 0.22014 0.11239 0.0
C2327 C 0.14937 0.20441 0.1013 0.0
C2328 C 0.20992 0.1796 0.09871 0.0
C2329 C 0.17115 0.18437 0.09458 0.0
C2330 C 0.20436 0.21351 0.11682 0.0
C2331 C 0.38816 0.19139 0.14278 0.0
C2332 C 0.27301 0.19212 0.11303 0.0
C2333 C 0.41177 0.36877 0.09764 0.0
C2334 C 0.40319 0.38045 0.10849 0.0
C2335 C 0.31058 0.08342 0.12295 0.0
C2336 C 0.56348 0.17676 0.1323 0.0
C2337 C 0.65322 0.21368 0.13021 0.0
C2338 C 0.65947 0.2554 0.13598 0.0
C2339 C 0.57168 0.2193 0.13808 0.0
C2340 C 0.60478 0.17396 0.12835 0.0
C2341 C 0.61915 0.25808 0.13989 0.0
C2342 C 0.41194 0.13883 0.10339 0.0
C2343 C 0.5118 0.1357 0.13089 0.0
H2344 H 0.11977 0.20832 0.09772 0.0
H2345 H 0.22692 0.16546 0.09302 0.0
H2346 H 0.15846 0.17327 0.08598 0.0
H2347 H 0.21814 0.22624 0.12528 0.0
H2348 H 0.696 0.28601 0.13757 0.0
H2349 H 0.54126 0.22251 0.14132 0.0
H2350 H 0.59936 0.14127 0.12402 0.0
H2351 H 0.62472 0.29055 0.14435 0.0
Tb2352 Tb 0.91698 0.20777 0.11634 0.0
C2353 C 0.06146 0.38673 0.14248 0.0
N2354 N 1.01202 0.36127 0.1441 0.0
C2355 C 0.02394 0.36024 0.16408 0.0
C2356 C 0.09414 0.39815 0.15161 0.0
C2357 C 0.99304 0.35035 0.15478 0.0
C2358 C 0.07469 0.38347 0.1625 0.0
C2359 C 0.12992 0.43069 0.1296 0.0
C2360 C 0.07919 0.40214 0.13159 0.0
C2361 C 0.1628 0.44094 0.13862 0.0
C2362 C 0.14495 0.42448 0.14959 0.0
Tb2363 Tb 0.96637 0.34225 0.12796 0.0
N2364 N 0.0463 0.38972 0.12298 0.0
C2365 C 0.14579 0.44922 0.11867 0.0
C2366 C 0.06108 0.41221 0.11275 0.0
C2367 C 0.1111 0.44118 0.1103 0.0
H2368 H 0.95431 0.33512 0.15621 0.0
H2369 H 0.1228 0.45813 0.10206 0.0
H2370 H 0.89979 0.23503 0.09007 0.0
H2371 H 0.80248 0.06869 0.14597 0.0
H2372 H 0.03442 0.40977 0.10672 0.0
H2373 H 0.18453 0.4717 0.11678 0.0
H2374 H 0.87656 0.14236 0.1402 0.0
H2375 H 1.00855 0.3504 0.17246 0.0
H2376 H 0.20206 0.46237 0.13724 0.0
H2377 H 0.17073 0.4333 0.15649 0.0
H2378 H 0.82884 0.21109 0.07767 0.0
H2379 H 0.09848 0.39124 0.16977 0.0
H2380 H 0.72821 0.03367 0.13399 0.0
N2381 N 0.85688 0.18765 0.10355 0.0
C2382 C 0.81247 0.14991 0.10682 0.0
C2383 C 0.82424 0.19312 0.08576 0.0
C2384 C 0.77291 0.13004 0.09929 0.0
C2385 C 0.86405 0.20737 0.09293 0.0
C2386 C 0.77838 0.15535 0.0891 0.0
N2387 N 0.84596 0.15254 0.12498 0.0
C2388 C 0.84428 0.13037 0.13507 0.0
C2389 C 0.76325 0.08857 0.1209 0.0
C2390 C 0.80711 0.13121 0.11776 0.0
C2391 C 0.76071 0.06735 0.13145 0.0
C2392 C 0.802 0.0876 0.13838 0.0
H2393 H 0.74796 0.14789 0.08378 0.0
H2394 H 0.7032 0.06369 0.09604 0.0
H2395 H 0.69248 0.03115 0.115 0.0
O2396 O 0.92775 0.14928 0.12207 0.0
O2397 O 0.86947 0.24083 0.1148 0.0
O2398 O 0.88549 0.29349 0.12973 0.0
O2399 O 0.91119 0.15423 0.10452 0.0
O2400 O 0.9325 0.22397 0.13509 0.0
O2401 O 0.91685 0.28627 0.13954 0.0
O2402 O 0.94981 0.3928 0.12 0.0
O2403 O 1.0148 0.30737 0.12855 0.0
O2404 O 0.9947 0.25276 0.11385 0.0
O2405 O 0.97617 0.40373 0.13703 0.0
O2406 O 0.94808 0.32762 0.11001 0.0
O2407 O 0.96464 0.26848 0.10376 0.0
C2408 C 0.85418 0.25896 0.12276 0.0
C2409 C 0.91524 0.08037 0.10969 0.0
C2410 C 0.88915 0.99234 0.11294 0.0
C2411 C 0.9095 0.9921 0.10238 0.0
C2412 C 0.9346 0.07749 0.09921 0.0
C2413 C 0.93189 0.03403 0.09564 0.0
C2414 C 0.89216 0.03715 0.11666 0.0
C2415 C 0.91745 0.2463 0.14235 0.0
C2416 C 0.91558 0.12738 0.1123 0.0
C2417 C 0.73054 0.08563 0.10219 0.0
C2418 C 0.72527 0.06559 0.113 0.0
C2419 C 0.02516 0.2803 0.12167 0.0
C2420 C 0.92069 0.43096 0.13288 0.0
C2421 C 0.88246 0.48235 0.13207 0.0
C2422 C 0.85478 0.45803 0.14171 0.0
C2423 C 0.89123 0.4064 0.1423 0.0
C2424 C 0.9162 0.46918 0.12774 0.0
C2425 C 0.85904 0.42033 0.14674 0.0
C2426 C 0.96751 0.31222 0.10242 0.0
C2427 C 0.95847 0.41903 0.12913 0.0
H2428 H 0.90784 0.95887 0.09928 0.0
H2429 H 0.95166 0.10912 0.09366 0.0
H2430 H 0.947 0.03271 0.08751 0.0
H2431 H 0.87598 0.03809 0.12468 0.0
H2432 H 0.82975 0.46843 0.14539 0.0
H2433 H 0.89389 0.37705 0.14643 0.0
H2434 H 0.93869 0.48847 0.12048 0.0
H2435 H 0.83743 0.40196 0.15416 0.0
Tb2436 Tb 0.89526 0.75737 0.11668 0.0
C2437 C 0.71697 0.72079 0.14379 0.0
N2438 N 0.74586 0.70048 0.14533 0.0
C2439 C 0.75373 0.72077 0.16505 0.0
C2440 C 0.70597 0.74267 0.15285 0.0
C2441 C 0.76193 0.69774 0.15589 0.0
C2442 C 0.72571 0.74346 0.16354 0.0
C2443 C 0.66648 0.73801 0.13119 0.0
C2444 C 0.69853 0.71968 0.133 0.0
C2445 C 0.65571 0.76028 0.14019 0.0
C2446 C 0.67571 0.76295 0.15097 0.0
Tb2447 Tb 0.76132 0.67029 0.12932 0.0
N2448 N 0.71133 0.69969 0.12435 0.0
C2449 C 0.64553 0.7325 0.12043 0.0
C2450 C 0.6877 0.69022 0.11422 0.0
C2451 C 0.65548 0.70763 0.11197 0.0
H2452 H 0.7801 0.67702 0.1574 0.0
H2453 H 0.63753 0.70088 0.10382 0.0
H2454 H 0.86526 0.71894 0.08974 0.0
H2455 H 0.03514 0.76825 0.14482 0.0
H2456 H 0.69161 0.66716 0.10811 0.0
H2457 H 0.62049 0.74589 0.11869 0.0
H2458 H 0.96072 0.77051 0.14019 0.0
H2459 H 0.76883 0.72075 0.17325 0.0
H2460 H 0.63157 0.77513 0.13893 0.0
H2461 H 0.66691 0.78008 0.15783 0.0
H2462 H 0.89424 0.68437 0.07527 0.0
H2463 H 0.71884 0.76067 0.1707 0.0
H2464 H 0.07547 0.74397 0.13038 0.0
N2465 N 0.91683 0.72428 0.10228 0.0
C2466 C 0.95731 0.72047 0.10439 0.0
C2467 C 0.9126 0.69506 0.08339 0.0
C2468 C 0.979 0.707 0.0958 0.0
C2469 C 0.8954 0.7135 0.09181 0.0
C2470 C 0.95416 0.69136 0.08543 0.0
N2471 N 0.95467 0.74275 0.1234 0.0
C2472 C 0.9751 0.75615 0.13396 0.0
C2473 C 0.0214 0.73098 0.11749 0.0
C2474 C 0.97748 0.73111 0.11521 0.0
C2475 C 0.04139 0.74299 0.12836 0.0
C2476 C 1.01829 0.75596 0.1366 0.0
H2477 H 0.96508 0.67496 0.07896 0.0
H2478 H 0.04614 0.70756 0.09114 0.0
H2479 H 0.08047 0.72383 0.11012 0.0
O2480 O 0.9533 0.82524 0.12315 0.0
O2481 O 0.87209 0.67878 0.11614 0.0
O2482 O 0.80839 0.63676 0.12909 0.0
O2483 O 0.94175 0.81365 0.10543 0.0
O2484 O 0.8806 0.75475 0.13557 0.0
O2485 O 0.82002 0.6759 0.13998 0.0
O2486 O 0.7051 0.60327 0.12231 0.0
O2487 O 0.79661 0.75371 0.13029 0.0
O2488 O 0.84396 0.78289 0.11449 0.0
O2489 O 0.70644 0.61861 0.13996 0.0
O2490 O 0.77207 0.66399 0.11123 0.0
O2491 O 0.83107 0.73969 0.10469 0.0
C2492 C 0.84372 0.64018 0.12237 0.0
C2493 C 0.02619 0.85899 0.11136 0.0
C2494 C 0.11543 0.91144 0.11562 0.0
C2495 C 0.12547 0.88671 0.1071 0.0
C2496 C 0.03931 0.83812 0.10244 0.0
C2497 C 0.08793 0.85087 0.10054 0.0
C2498 C 0.0652 0.89721 0.11782 0.0
C2499 C 0.86061 0.71632 0.14261 0.0
C2500 C 0.97218 0.84176 0.11321 0.0
C2501 C 0.02482 0.71075 0.09786 0.0
C2502 C 0.04541 0.72166 0.10869 0.0
C2503 C 0.82181 0.7897 0.12294 0.0
C2504 C 0.67554 0.53537 0.13512 0.0
C2505 C 0.62586 0.44542 0.13365 0.0
C2506 C 0.65383 0.44146 0.14241 0.0
C2507 C 0.70344 0.52976 0.14368 0.0
C2508 C 0.63641 0.49273 0.13007 0.0
C2509 C 0.69225 0.48323 0.14735 0.0
C2510 C 0.78805 0.69781 0.10337 0.0
C2511 C 0.68554 0.58553 0.13214 0.0
H2512 H 0.16306 0.89722 0.10505 0.0
H2513 H 1.01195 0.8119 0.09673 0.0
H2514 H 0.09669 0.83365 0.0937 0.0
H2515 H 0.05675 0.91634 0.12426 0.0
H2516 H 0.6457 0.40569 0.14548 0.0
H2517 H 0.73358 0.56147 0.14771 0.0
H2518 H 0.61441 0.49631 0.12349 0.0
H2519 H 0.71342 0.4795 0.1541 0.0
Tb2520 Tb 0.96696 0.67007 0.6305 0.0
C2521 C 0.82425 0.72736 0.60367 0.0
N2522 N 0.87081 0.7375 0.60167 0.0
C2523 C 0.85543 0.72705 0.58183 0.0
C2524 C 0.79128 0.71715 0.59471 0.0
C2525 C 0.88778 0.7415 0.59093 0.0
C2526 C 0.80664 0.71335 0.58379 0.0
C2527 C 0.76369 0.72256 0.61706 0.0
C2528 C 0.81044 0.7289 0.61472 0.0
C2529 C 0.73127 0.71453 0.60812 0.0
C2530 C 0.7454 0.71274 0.597 0.0
Tb2531 Tb 0.92002 0.7565 0.61692 0.0
N2532 N 0.84355 0.73816 0.6231 0.0
C2533 C 0.75214 0.72765 0.62819 0.0
C2534 C 0.83351 0.74673 0.63386 0.0
C2535 C 0.7877 0.74099 0.63657 0.0
H2536 H 0.92651 0.75764 0.58942 0.0
H2537 H 0.78072 0.74942 0.64498 0.0
H2538 H 0.95039 0.67761 0.65815 0.0
H2539 H 0.13409 0.74721 0.60544 0.0
H2540 H 0.86134 0.76157 0.64029 0.0
H2541 H 0.71694 0.72398 0.6303 0.0
H2542 H 0.04743 0.71805 0.60859 0.0
H2543 H 0.86823 0.72758 0.5733 0.0
H2544 H 0.69579 0.7112 0.60969 0.0
H2545 H 0.72122 0.71047 0.59031 0.0
H2546 H 1.00293 0.71637 0.67468 0.0
H2547 H 0.7822 0.70018 0.57672 0.0
H2548 H 0.18871 0.76187 0.6218 0.0
N2549 N 1.01 0.69629 0.64697 0.0
C2550 C 0.05898 0.71336 0.64608 0.0
C2551 C 0.01892 0.71403 0.66681 0.0
C2552 C 0.08968 0.73006 0.65569 0.0
C2553 C 0.98946 0.69466 0.65724 0.0
C2554 C 0.06907 0.73069 0.66613 0.0
N2555 N 0.04901 0.70723 0.62623 0.0
C2556 C 0.06887 0.71953 0.61566 0.0
C2557 C 0.13007 0.73794 0.63409 0.0
C2558 C 0.07896 0.71779 0.63538 0.0
C2559 C 0.14967 0.74645 0.62316 0.0
C2560 C 0.11899 0.73804 0.61391 0.0
H2561 H 0.09164 0.74485 0.67365 0.0
H2562 H 0.16423 0.76023 0.66178 0.0
H2563 H 0.19953 0.76649 0.64287 0.0
O2564 O 0.97033 0.60637 0.62508 0.0
O2565 O 1.01344 0.75278 0.63189 0.0
O2566 O 0.99506 0.77375 0.61507 0.0
O2567 O 0.95011 0.61445 0.64221 0.0
O2568 O 0.95366 0.65784 0.6124 0.0
O2569 O 0.95601 0.72703 0.60444 0.0
O2570 O 0.92768 0.82219 0.62425 0.0
O2571 O 0.86253 0.67899 0.61594 0.0
O2572 O 0.88713 0.63582 0.62766 0.0
O2573 O 0.94297 0.81982 0.60687 0.0
O2574 O 0.93113 0.7544 0.63579 0.0
O2575 O 0.91047 0.67513 0.6397 0.0
C2576 C 0.02347 0.78581 0.62384 0.0
C2577 C 0.95002 0.53904 0.63889 0.0
C2578 C 0.91437 0.44934 0.63761 0.0
C2579 C 0.92998 0.4497 0.6488 0.0
C2580 C 0.96467 0.5374 0.65003 0.0
C2581 C 0.95483 0.49319 0.65491 0.0
C2582 C 0.92507 0.49469 0.63256 0.0
C2583 C 0.95971 0.68596 0.60364 0.0
C2584 C 0.95477 0.58608 0.63498 0.0
C2585 C 0.14018 0.7478 0.65448 0.0
C2586 C 0.16027 0.75134 0.64371 0.0
C2587 C 0.854 0.63895 0.62136 0.0
C2588 C 0.90285 0.86583 0.61132 0.0
C2589 C 0.86736 0.92055 0.61416 0.0
C2590 C 0.84334 0.90426 0.60371 0.0
C2591 C 0.87804 0.85181 0.60086 0.0
C2592 C 0.89773 0.90125 0.61798 0.0
C2593 C 0.84869 0.87052 0.59717 0.0
C2594 C 0.9114 0.71551 0.64262 0.0
C2595 C 0.93516 0.84456 0.61459 0.0
H2596 H 0.92291 0.41593 0.65288 0.0
H2597 H 0.98299 0.57048 0.65512 0.0
H2598 H 0.966 0.49253 0.66354 0.0
H2599 H 0.91209 0.49515 0.62409 0.0
H2600 H 0.82097 0.91871 0.6004 0.0
H2601 H 0.8817 0.82665 0.59529 0.0
H2602 H 0.91709 0.91367 0.62596 0.0
H2603 H 0.83032 0.85915 0.58906 0.0
Tb2604 Tb 0.43372 0.33421 0.62944 0.0
C2605 C 0.38628 0.14312 0.6043 0.0
N2606 N 0.38011 0.18224 0.60222 0.0
C2607 C 0.41163 0.18987 0.58351 0.0
C2608 C 0.40264 0.12398 0.59575 0.0
C2609 C 0.39007 0.20405 0.5918 0.0
C2610 C 0.41871 0.15042 0.58558 0.0
C2611 C 0.3802 0.08073 0.61736 0.0
C2612 C 0.37716 0.12316 0.61515 0.0
C2613 C 0.39184 0.05859 0.60854 0.0
C2614 C 0.40207 0.07961 0.59774 0.0
Tb2615 Tb 0.34623 0.20183 0.61668 0.0
N2616 N 0.36378 0.14438 0.6234 0.0
C2617 C 0.36813 0.05983 0.62814 0.0
C2618 C 0.34942 0.1224 0.63378 0.0
C2619 C 0.35182 0.08027 0.63631 0.0
H2620 H 0.38205 0.23252 0.58975 0.0
H2621 H 0.33858 0.06196 0.64434 0.0
H2622 H 0.42174 0.31341 0.65741 0.0
H2623 H 0.4129 0.46401 0.60374 0.0
H2624 H 0.33268 0.1346 0.63994 0.0
H2625 H 0.36907 0.02665 0.63009 0.0
H2626 H 0.44263 0.40686 0.60825 0.0
H2627 H 0.42253 0.20914 0.5755 0.0
H2628 H 0.39188 0.02454 0.60991 0.0
H2629 H 0.40667 0.05941 0.59097 0.0
H2630 H 0.37822 0.3268 0.67301 0.0
H2631 H 0.43858 0.14304 0.57935 0.0
H2632 H 0.36872 0.48347 0.61834 0.0
N2633 N 0.40292 0.35106 0.64521 0.0
C2634 C 0.38528 0.38216 0.64359 0.0
C2635 C 0.38016 0.3428 0.6648 0.0
C2636 C 0.36339 0.39403 0.65251 0.0
C2637 C 0.40309 0.33355 0.65578 0.0
C2638 C 0.36005 0.37306 0.66316 0.0
N2639 N 0.40893 0.38811 0.6244 0.0
C2640 C 0.42004 0.412 0.61428 0.0
C2641 C 0.37297 0.43567 0.63092 0.0
C2642 C 0.3889 0.40172 0.63286 0.0
C2643 C 0.38041 0.45716 0.62019 0.0
C2644 C 0.40484 0.44587 0.61189 0.0
H2645 H 0.34282 0.38063 0.67021 0.0
H2646 H 0.32841 0.43573 0.65723 0.0
H2647 H 0.33754 0.47285 0.63839 0.0
O2648 O 0.5012 0.39375 0.62283 0.0
O2649 O 0.35065 0.30088 0.63055 0.0
O2650 O 0.31824 0.2514 0.61498 0.0
O2651 O 0.48764 0.37952 0.64088 0.0
O2652 O 0.43921 0.32296 0.61132 0.0
O2653 O 0.3623 0.26634 0.605 0.0
O2654 O 0.2785 0.14332 0.62309 0.0
O2655 O 0.42551 0.22827 0.61532 0.0
O2656 O 0.4653 0.28544 0.6295 0.0
O2657 O 0.29345 0.15167 0.60509 0.0
O2658 O 0.34704 0.21436 0.63557 0.0
O2659 O 0.42581 0.27445 0.63996 0.0
C2660 C 0.3136 0.27525 0.62344 0.0
C2661 C 0.56561 0.4501 0.63633 0.0
C2662 C 0.6534 0.50821 0.63366 0.0
C2663 C 0.65472 0.52793 0.6444 0.0
C2664 C 0.56844 0.47109 0.64701 0.0
C2665 C 0.61258 0.50962 0.65098 0.0
C2666 C 0.60843 0.46919 0.62951 0.0
C2667 C 0.40477 0.30869 0.60361 0.0
C2668 C 0.51821 0.40664 0.63308 0.0
C2669 C 0.34557 0.42629 0.6505 0.0
C2670 C 0.35066 0.44734 0.63975 0.0
C2671 C 0.46206 0.25154 0.62241 0.0
C2672 C 0.21637 0.07824 0.61076 0.0
C2673 C 0.15444 0.99009 0.61357 0.0
C2674 C 0.13089 0.99217 0.60366 0.0
C2675 C 0.19123 0.07786 0.60092 0.0
C2676 C 0.19763 0.03377 0.6172 0.0
C2677 C 0.14897 0.03545 0.59746 0.0
C2678 C 0.38515 0.23442 0.64264 0.0
C2679 C 0.26462 0.12377 0.6131 0.0
H2680 H 0.68879 0.55771 0.64773 0.0
H2681 H 0.53637 0.45735 0.65239 0.0
H2682 H 0.61421 0.52512 0.65926 0.0
H2683 H 0.60715 0.45314 0.62131 0.0
H2684 H 0.0982 0.95972 0.60065 0.0
H2685 H 0.20476 0.11057 0.59575 0.0
H2686 H 0.21715 0.03275 0.62466 0.0
H2687 H 0.13035 0.03597 0.5898 0.0
Tb2688 Tb 0.76355 0.13321 0.63031 0.0
C2689 C 0.96187 0.28074 0.60267 0.0
N2690 N 0.92187 0.23573 0.60108 0.0
C2691 C 0.93793 0.24026 0.58122 0.0
C2692 C 0.99409 0.30554 0.59369 0.0
C2693 C 0.90877 0.21584 0.5905 0.0
C2694 C 0.98199 0.28365 0.58293 0.0
C2695 C 1.01408 0.34617 0.61561 0.0
C2696 C 0.97254 0.29989 0.61355 0.0
C2697 C 0.04717 0.37059 0.60677 0.0
C2698 C 0.03814 0.34937 0.59597 0.0
Tb2699 Tb 0.89594 0.19162 0.61726 0.0
N2700 N 0.9426 0.27248 0.62212 0.0
C2701 C 0.022 0.36557 0.62656 0.0
C2702 C 0.95078 0.29093 0.63287 0.0
C2703 C 0.98958 0.33813 0.63519 0.0
H2704 H 0.87989 0.17874 0.58924 0.0
H2705 H 0.99547 0.35261 0.64371 0.0
H2706 H 0.77546 0.156 0.65818 0.0
H2707 H 0.68488 0.96317 0.6063 0.0
H2708 H 0.92864 0.26979 0.63978 0.0
H2709 H 0.05322 0.40131 0.62846 0.0
H2710 H 0.73975 0.05124 0.60892 0.0
H2711 H 0.92874 0.2233 0.57293 0.0
H2712 H 0.0804 0.40533 0.60825 0.0
H2713 H 0.06556 0.36775 0.5895 0.0
H2714 H 0.75719 0.10704 0.67555 0.0
H2715 H 1.00678 0.29731 0.5759 0.0
H2716 H 0.64542 0.91009 0.62292 0.0
N2717 N 0.74448 0.09373 0.64725 0.0
C2718 C 0.7174 0.04392 0.64652 0.0
C2719 C 0.74501 0.08891 0.66748 0.0
C2720 C 0.70203 0.01472 0.65636 0.0
C2721 C 0.7571 0.11656 0.65755 0.0
C2722 C 0.71689 0.03783 0.66691 0.0
N2723 N 0.72579 0.05083 0.62653 0.0
C2724 C 0.72009 0.02984 0.6161 0.0
C2725 C 0.67715 0.97049 0.63485 0.0
C2726 C 0.70587 0.02197 0.63585 0.0
C2727 C 0.66772 0.94946 0.62404 0.0
C2728 C 0.68982 0.97926 0.61464 0.0
H2729 H 0.70685 0.01661 0.67467 0.0
H2730 H 0.66067 0.94052 0.66285 0.0
H2731 H 0.63814 0.90191 0.64405 0.0
O2732 O 0.70881 0.14297 0.62232 0.0
O2733 O 0.8016 0.08755 0.63065 0.0
O2734 O 0.85358 0.11314 0.61547 0.0
O2735 O 0.70256 0.1238 0.63972 0.0
O2736 O 0.76783 0.15161 0.61248 0.0
O2737 O 0.83182 0.1452 0.60513 0.0
O2738 O 0.96378 0.2011 0.62466 0.0
O2739 O 0.86282 0.2387 0.61576 0.0
O2740 O 0.81017 0.21452 0.63109 0.0
O2741 O 0.94401 0.18093 0.60721 0.0
O2742 O 0.88706 0.1773 0.63624 0.0
O2743 O 0.82143 0.18699 0.64079 0.0
C2744 C 0.83286 0.08288 0.62385 0.0
C2745 C 0.67122 0.17504 0.63436 0.0
C2746 C 0.61836 0.21146 0.63246 0.0
C2747 C 0.64683 0.24634 0.64071 0.0
C2748 C 0.69903 0.21077 0.64254 0.0
C2749 C 0.6868 0.24599 0.64568 0.0
C2750 C 0.63052 0.17543 0.6293 0.0
C2751 C 0.7873 0.14097 0.60402 0.0
C2752 C 0.68406 0.13682 0.63155 0.0
C2753 C 0.67307 0.96351 0.65537 0.0
C2754 C 0.66017 0.94152 0.64466 0.0
C2755 C 0.83737 0.24756 0.62331 0.0
C2756 C 0.02578 0.19651 0.61172 0.0
C2757 C 0.11319 0.21972 0.61461 0.0
C2758 C 0.11368 0.20356 0.60357 0.0
C2759 C 0.02904 0.18103 0.60072 0.0
C2760 C 0.06869 0.21617 0.61877 0.0
C2761 C 0.0722 0.18444 0.59675 0.0
C2762 C 0.86057 0.18551 0.64384 0.0
C2763 C 0.9782 0.19467 0.61478 0.0
H2764 H 0.63785 0.27391 0.64335 0.0
H2765 H 0.73003 0.21111 0.64662 0.0
H2766 H 0.70833 0.27305 0.65205 0.0
H2767 H 0.60862 0.14807 0.623 0.0
H2768 H 0.14674 0.20579 0.60016 0.0
H2769 H 0.99797 0.16629 0.595 0.0
H2770 H 0.06772 0.22902 0.62722 0.0
H2771 H 0.07357 0.17234 0.58824 0.0
Tb2772 Tb 0.33922 0.28302 0.20375 0.0
C2773 C 0.40102 0.14515 0.22857 0.0
N2774 N 0.39303 0.18345 0.2301 0.0
C2775 C 0.34908 0.14695 0.24721 0.0
C2776 C 0.38617 0.10783 0.2367 0.0
C2777 C 0.36635 0.18405 0.23916 0.0
C2778 C 0.35926 0.10906 0.24604 0.0
C2779 C 0.43004 0.10261 0.21643 0.0
C2780 C 0.4219 0.14206 0.21848 0.0
C2781 C 0.41916 0.0676 0.2249 0.0
C2782 C 0.39794 0.07055 0.23503 0.0
Tb2783 Tb 0.43112 0.24424 0.21698 0.0
N2784 N 0.43233 0.17681 0.21049 0.0
C2785 C 0.44928 0.09976 0.20599 0.0
C2786 C 0.45123 0.17432 0.20024 0.0
C2787 C 0.45992 0.13581 0.19786 0.0
H2788 H 0.35653 0.21161 0.24026 0.0
H2789 H 0.47635 0.13479 0.1899 0.0
H2790 H 0.32881 0.25327 0.17652 0.0
H2791 H 0.41129 0.45908 0.22494 0.0
H2792 H 0.46246 0.20321 0.19407 0.0
H2793 H 0.45635 0.07013 0.20414 0.0
H2794 H 0.37821 0.37087 0.22392 0.0
H2795 H 0.32752 0.1474 0.25431 0.0
H2796 H 0.42661 0.03782 0.22366 0.0
H2797 H 0.39139 0.04356 0.2414 0.0
H2798 H 0.36248 0.29593 0.15881 0.0
H2799 H 0.34355 0.0803 0.25218 0.0
H2800 H 0.43051 0.5076 0.20732 0.0
N2801 N 0.35805 0.31856 0.18636 0.0
C2802 C 0.3773 0.36799 0.18613 0.0
C2803 C 0.36627 0.31714 0.16629 0.0
C2804 C 0.39282 0.39424 0.17587 0.0
C2805 C 0.34905 0.29277 0.17654 0.0
C2806 C 0.38823 0.36823 0.16589 0.0
N2807 N 0.37182 0.36617 0.20606 0.0
C2808 C 0.38255 0.38994 0.21622 0.0
C2809 C 0.40509 0.4441 0.19641 0.0
C2810 C 0.38337 0.39252 0.19628 0.0
C2811 C 0.41381 0.46804 0.20685 0.0
C2812 C 0.40286 0.44081 0.2168 0.0
H2813 H 0.4012 0.38715 0.15788 0.0
H2814 H 0.42548 0.46626 0.16813 0.0
H2815 H 0.43594 0.50991 0.18612 0.0
O2816 O 0.27694 0.29387 0.20586 0.0
O2817 O 0.42189 0.33465 0.20227 0.0
O2818 O 0.44523 0.31793 0.21895 0.0
O2819 O 0.27661 0.23953 0.1944 0.0
O2820 O 0.33251 0.2794 0.22192 0.0
O2821 O 0.40216 0.28081 0.22952 0.0
O2822 O 0.50443 0.26574 0.21176 0.0
O2823 O 0.36138 0.18267 0.21146 0.0
O2824 O 0.31251 0.21588 0.21447 0.0
O2825 O 0.48468 0.25783 0.2292 0.0
O2826 O 0.43231 0.25794 0.19816 0.0
O2827 O 0.3515 0.23148 0.1943 0.0
C2828 C 0.45548 0.34671 0.21033 0.0
C2829 C 0.20183 0.24215 0.19423 0.0
C2830 C 0.11419 0.21555 0.1963 0.0
C2831 C 0.10659 0.19803 0.18511 0.0
C2832 C 0.19256 0.22536 0.18297 0.0
C2833 C 0.14542 0.20333 0.1785 0.0
C2834 C 0.16227 0.23763 0.20095 0.0
C2835 C 0.36231 0.28676 0.23041 0.0
C2836 C 0.25164 0.25805 0.19879 0.0
C2837 C 0.41341 0.44546 0.17593 0.0
C2838 C 0.41925 0.47029 0.18618 0.0
C2839 C 0.31757 0.17716 0.21262 0.0
C2840 C 0.53947 0.22889 0.22415 0.0
C2841 C 0.59223 0.19271 0.21968 0.0
C2842 C 0.57837 0.16794 0.2301 0.0
C2843 C 0.52733 0.20276 0.23446 0.0
C2844 C 0.57281 0.22394 0.2167 0.0
C2845 C 0.54642 0.17287 0.23734 0.0
C2846 C 0.39378 0.23725 0.1912 0.0
C2847 C 0.51759 0.26157 0.22197 0.0
H2848 H 0.07024 0.18093 0.18137 0.0
H2849 H 0.22186 0.22827 0.17761 0.0
H2850 H 0.1389 0.19009 0.16986 0.0
H2851 H 0.16863 0.25052 0.20963 0.0
H2852 H 0.59322 0.14509 0.23281 0.0
H2853 H 0.50285 0.20533 0.2405 0.0
H2854 H 0.58334 0.24384 0.20877 0.0
H2855 H 0.53664 0.15358 0.24535 0.0
Tb2856 Tb 0.80344 0.09106 0.20335 0.0
C2857 C 0.96202 0.28524 0.22637 0.0
N2858 N 0.91781 0.24635 0.22925 0.0
C2859 C 0.9484 0.24096 0.24734 0.0
C2860 C 1.00073 0.30515 0.23418 0.0
C2861 C 0.90975 0.2263 0.23981 0.0
C2862 C 0.99428 0.27959 0.24438 0.0
C2863 C 1.01136 0.34936 0.21288 0.0
C2864 C 0.96773 0.30575 0.21565 0.0
C2865 C 0.04876 0.37155 0.22094 0.0
C2866 C 0.0431 0.35006 0.23158 0.0
Tb2867 Tb 0.85826 0.22507 0.21624 0.0
N2868 N 0.92947 0.28487 0.20826 0.0
C2869 C 1.01465 0.37165 0.20244 0.0
C2870 C 0.93204 0.30784 0.19819 0.0
C2871 C 0.97446 0.35121 0.19517 0.0
H2872 H 0.8739 0.19913 0.24247 0.0
H2873 H 0.97538 0.36987 0.18741 0.0
H2874 H 0.81607 0.10636 0.1752 0.0
H2875 H 0.6391 0.02091 0.22966 0.0
H2876 H 0.90059 0.29528 0.19273 0.0
H2877 H 0.04725 0.40568 0.20012 0.0
H2878 H 0.72486 0.07783 0.22546 0.0
H2879 H 0.94272 0.22297 0.25547 0.0
H2880 H 0.08156 0.40631 0.21918 0.0
H2881 H 0.07052 0.37091 0.23783 0.0
H2882 H 0.76053 0.08228 0.1589 0.0
H2883 H 0.02368 0.28795 0.25012 0.0
H2884 H 0.58304 0.97011 0.21437 0.0
N2885 N 0.75835 0.06933 0.18718 0.0
C2886 C 0.70929 0.03891 0.18875 0.0
C2887 C 0.74608 0.06859 0.16718 0.0
C2888 C 0.67711 0.02017 0.17943 0.0
C2889 C 0.77719 0.08388 0.17656 0.0
C2890 C 0.69609 0.0357 0.16856 0.0
N2891 N 0.72198 0.05353 0.20849 0.0
C2892 C 0.70297 0.05339 0.21891 0.0
C2893 C 0.63998 0.99866 0.20159 0.0
C2894 C 0.69086 0.02903 0.19975 0.0
C2895 C 0.62181 0.99338 0.21261 0.0
C2896 C 0.6533 0.02189 0.22126 0.0
H2897 H 0.67236 0.02338 0.1612 0.0
H2898 H 0.60173 0.97282 0.1742 0.0
H2899 H 0.56934 0.95326 0.19359 0.0
O2900 O 0.81454 0.03571 0.21078 0.0
O2901 O 0.75817 0.12896 0.20177 0.0
O2902 O 0.78 0.17803 0.21733 0.0
O2903 O 0.79382 0.03113 0.19354 0.0
O2904 O 0.82437 0.09873 0.22112 0.0
O2905 O 0.81431 0.16081 0.22851 0.0
O2906 O 0.85199 0.28676 0.21134 0.0
O2907 O 0.9086 0.19529 0.21688 0.0
O2908 O 0.885 0.13755 0.20245 0.0
O2909 O 0.85083 0.26931 0.2287 0.0
O2910 O 0.84583 0.21305 0.19726 0.0
O2911 O 0.85625 0.14775 0.19247 0.0
C2912 C 0.75217 0.15954 0.20848 0.0
C2913 C 0.8459 0.99944 0.19781 0.0
C2914 C 0.88478 0.94825 0.19899 0.0
C2915 C 0.91255 0.97221 0.18935 0.0
C2916 C 0.8757 0.02345 0.18838 0.0
C2917 C 0.90814 1.00946 0.18413 0.0
C2918 C 0.85059 0.96147 0.20315 0.0
C2919 C 0.81247 0.1172 0.22958 0.0
C2920 C 0.80801 1.0121 0.20133 0.0
C2921 C 0.62687 0.98813 0.18127 0.0
C2922 C 0.60844 0.97692 0.19232 0.0
C2923 C 0.91839 0.17004 0.20951 0.0
C2924 C 0.89057 0.35578 0.22411 0.0
C2925 C 0.92679 0.44623 0.22114 0.0
C2926 C 0.95823 0.4539 0.23034 0.0
C2927 C 0.92322 0.36656 0.23321 0.0
C2928 C 0.8924 0.3963 0.21805 0.0
C2929 C 0.95654 0.41478 0.23622 0.0
C2930 C 0.85997 0.19001 0.18998 0.0
C2931 C 0.85398 0.30238 0.22158 0.0
H2932 H 0.9379 0.9619 0.18581 0.0
H2933 H 0.87325 0.05258 0.18408 0.0
H2934 H 0.92993 0.02754 0.17671 0.0
H2935 H 0.82802 0.94252 0.21042 0.0
H2936 H 0.98379 0.49071 0.23325 0.0
H2937 H 0.92284 0.33756 0.23821 0.0
H2938 H 0.86739 0.389 0.21106 0.0
H2939 H 0.98096 0.42194 0.24333 0.0
Tb2940 Tb 1.00924 0.75985 0.20473 0.0
C2941 C 0.81507 0.71507 0.22927 0.0
N2942 N 0.85558 0.71104 0.2312 0.0
C2943 C 0.86115 0.73976 0.25015 0.0
C2944 C 0.79403 0.72844 0.23801 0.0
C2945 C 0.87775 0.72166 0.24158 0.0
C2946 C 0.81944 0.74321 0.24837 0.0
C2947 C 0.75133 0.70681 0.2163 0.0
C2948 C 0.79465 0.70542 0.21844 0.0
C2949 C 0.72796 0.71623 0.22522 0.0
C2950 C 0.74859 0.72584 0.23607 0.0
Tb2951 Tb 0.87383 0.67603 0.21671 0.0
N2952 N 0.81692 0.69394 0.21009 0.0
C2953 C 0.7313 0.69602 0.2054 0.0
C2954 C 0.79656 0.68176 0.19951 0.0
C2955 C 0.75382 0.68304 0.19701 0.0
H2956 H 0.90761 0.71584 0.24359 0.0
H2957 H 0.73685 0.67165 0.18878 0.0
H2958 H 0.99404 0.75994 0.17639 0.0
H2959 H 0.13 0.72237 0.22947 0.0
H2960 H 0.81076 0.66768 0.19316 0.0
H2961 H 0.69763 0.69602 0.20348 0.0
H2962 H 0.07769 0.75872 0.22558 0.0
H2963 H 0.87987 0.74999 0.25823 0.0
H2964 H 0.69339 0.71522 0.22388 0.0
H2965 H 0.72774 0.72944 0.24284 0.0
H2966 H 1.00438 0.71742 0.16018 0.0
H2967 H 0.8092 0.75868 0.25513 0.0
H2968 H 0.14557 0.67779 0.21422 0.0
N2969 N 0.02486 0.73188 0.1883 0.0
C2970 C 0.0523 0.70979 0.18959 0.0
C2971 C 1.01821 0.71511 0.16838 0.0
C2972 C 0.06264 0.6883 0.18032 0.0
C2973 C 1.01059 0.73756 0.17774 0.0
C2974 C 0.04404 0.69004 0.16967 0.0
N2975 N 0.05852 0.72898 0.20911 0.0
C2976 C 0.08151 0.73635 0.21926 0.0
C2977 C 0.10144 0.68936 0.20187 0.0
C2978 C 0.07076 0.70945 0.20027 0.0
C2979 C 0.12166 0.69267 0.21263 0.0
C2980 C 0.1125 0.71728 0.2213 0.0
H2981 H 0.05046 0.67327 0.16235 0.0
H2982 H 0.09949 0.64916 0.17496 0.0
H2983 H 0.13401 0.65069 0.19378 0.0
O2984 O 0.06342 0.82539 0.21267 0.0
O2985 O 0.9765 0.67623 0.20527 0.0
O2986 O 0.91811 0.64275 0.21928 0.0
O2987 O 0.06778 0.81267 0.19504 0.0
O2988 O 0.99518 0.76603 0.22257 0.0
O2989 O 0.93703 0.6905 0.22887 0.0
O2990 O 0.81371 0.6093 0.20995 0.0
O2991 O 0.89852 0.75519 0.21646 0.0
O2992 O 0.96364 0.79528 0.20381 0.0
O2993 O 0.82144 0.62417 0.22794 0.0
O2994 O 0.88914 0.67612 0.19795 0.0
O2995 O 0.95197 0.75375 0.19352 0.0
C2996 C 0.94518 0.6381 0.21161 0.0
C2997 C 0.09606 0.89492 0.20033 0.0
C2998 C 0.14675 0.98502 0.20187 0.0
C2999 C 0.11841 0.98924 0.19321 0.0
C3000 C 0.06807 0.90094 0.19187 0.0
C3001 C 0.07942 0.94766 0.18832 0.0
C3002 C 0.1353 0.93726 0.20541 0.0
C3003 C 0.98077 0.7316 0.23021 0.0
C3004 C 0.08597 0.84461 0.20318 0.0
C3005 C 0.09144 0.6662 0.18197 0.0
C3006 C 0.11107 0.66704 0.19269 0.0
C3007 C 0.92755 0.793 0.21007 0.0
C3008 C 0.74775 0.54771 0.22251 0.0
C3009 C 0.65925 0.48448 0.22041 0.0
C3010 C 0.66458 0.4599 0.22976 0.0
C3011 C 0.74991 0.52193 0.23198 0.0
C3012 C 0.70176 0.52869 0.21661 0.0
C3013 C 0.70909 0.47842 0.23545 0.0
C3014 C 0.91079 0.7141 0.19085 0.0
C3015 C 0.79337 0.59578 0.21989 0.0
H3016 H 0.12689 0.02498 0.19006 0.0
H3017 H 0.03769 0.86938 0.18785 0.0
H3018 H 0.05804 0.95169 0.18167 0.0
H3019 H 0.15691 0.93297 0.21198 0.0
H3020 H 0.6335 0.42621 0.23285 0.0
H3021 H 0.78375 0.53546 0.23672 0.0
H3022 H 0.69868 0.54882 0.20953 0.0
H3023 H 0.71184 0.45907 0.24274 0.0
C3024 C 0.42712 0.07737 0.09196 0.0
C3025 C 0.42618 0.12233 0.09243 0.0
C3026 C 0.44598 0.06327 0.08264 0.0
C3027 C 0.46898 0.09482 0.07345 0.0
H3028 H 0.41473 0.05235 0.09893 0.0
H3029 H 0.44287 0.02741 0.08274 0.0
S3030 S 0.4923 0.22354 0.07178 0.0
N3031 N 0.45977 0.20178 0.08347 0.0
N3032 N 0.49855 0.17831 0.06662 0.0
C3033 C 0.47349 0.14222 0.07435 0.0
C3034 C 0.45173 0.15523 0.08357 0.0
C3035 C 0.95852 0.36497 0.08746 0.0
C3036 C 0.98554 0.34341 0.09163 0.0
C3037 C 0.97727 0.40256 0.07915 0.0
C3038 C 0.02523 0.42288 0.07467 0.0
H3039 H 0.92213 0.35292 0.09078 0.0
H3040 H 0.95351 0.4159 0.07617 0.0
S3041 S 0.1125 0.38052 0.08247 0.0
N3042 N 0.06358 0.34552 0.09028 0.0
N3043 N 0.09932 0.41707 0.07507 0.0
C3044 C 0.05316 0.40213 0.07879 0.0
C3045 C 0.03324 0.36229 0.08704 0.0
C3046 C 0.69937 0.69353 0.07951 0.0
C3047 C 0.67985 0.64565 0.07487 0.0
C3048 C 0.73711 0.71229 0.08802 0.0
C3049 C 0.75686 0.68393 0.09252 0.0
H3050 H 0.6868 0.71747 0.07622 0.0
H3051 H 0.74959 0.74867 0.09139 0.0
S3052 S 0.7188 0.5565 0.08351 0.0
N3053 N 0.68457 0.57107 0.07566 0.0
N3054 N 0.75275 0.60502 0.09148 0.0
C3055 C 0.73723 0.63616 0.08798 0.0
C3056 C 0.69972 0.61749 0.0793 0.0
C3057 C 0.12106 0.43055 0.42723 0.0
C3058 C 0.09368 0.45543 0.42597 0.0
C3059 C 0.13528 0.41136 0.41797 0.0
C3060 C 0.12759 0.41992 0.40666 0.0
H3061 H 0.13174 0.42521 0.43558 0.0
H3062 H 0.1542 0.39145 0.4198 0.0
S3063 S 0.06589 0.49054 0.39817 0.0
N3064 N 0.06231 0.48872 0.41207 0.0
N3065 N 0.09533 0.46128 0.39498 0.0
C3066 C 0.10343 0.44783 0.40529 0.0
C3067 C 0.08527 0.46348 0.41474 0.0
C3068 C 0.67033 0.73224 0.4272 0.0
C3069 C 0.64402 0.67991 0.42617 0.0
C3070 C 0.68859 0.76485 0.41778 0.0
C3071 C 0.67883 0.74789 0.40651 0.0
H3072 H 0.67751 0.74903 0.43549 0.0
H3073 H 0.70892 0.8036 0.41952 0.0
S3074 S 0.60622 0.61497 0.39858 0.0
N3075 N 0.60805 0.61428 0.41249 0.0
N3076 N 0.63687 0.6734 0.39513 0.0
C3077 C 0.65054 0.69572 0.40536 0.0
C3078 C 0.63453 0.66263 0.41497 0.0
C3079 C 0.3678 0.94808 0.41159 0.0
C3080 C 0.3466 0.97507 0.40719 0.0
C3081 C 0.40504 0.9671 0.42002 0.0
C3082 C 0.42566 0.01542 0.42435 0.0
H3083 H 0.35554 0.91144 0.40841 0.0
H3084 H 0.41773 0.9432 0.42328 0.0
S3085 S 0.3857 0.10353 0.41556 0.0
N3086 N 0.3502 0.05396 0.40798 0.0
N3087 N 0.42139 0.09026 0.42329 0.0
C3088 C 0.40574 0.04353 0.41988 0.0
C3089 C 0.36607 0.0233 0.41156 0.0
C3090 C 0.67338 0.98265 0.92617 0.0
C3091 C 0.64904 1.01049 0.92507 0.0
C3092 C 0.68905 0.96549 0.91679 0.0
C3093 C 0.67862 0.97197 0.90553 0.0
H3094 H 0.68085 0.97371 0.93449 0.0
H3095 H 0.70748 0.94514 0.91852 0.0
S3096 S 0.61124 0.03749 0.89748 0.0
N3097 N 0.61582 0.04281 0.91134 0.0
N3098 N 0.63779 1.0056 0.89411 0.0
C3099 C 0.6523 0.99782 0.90433 0.0
C3100 C 0.63955 0.01818 0.91387 0.0
C3101 C 0.08206 0.73816 0.91338 0.0
C3102 C 0.12665 0.75147 0.90761 0.0
C3103 C 0.06285 0.70136 0.92211 0.0
C3104 C 0.08761 0.67642 0.92578 0.0
H3105 H 0.06102 0.75527 0.91093 0.0
H3106 H 0.02928 0.69389 0.92634 0.0
S3107 S 0.20493 0.69619 0.91356 0.0
N3108 N 0.19372 0.73446 0.90635 0.0
N3109 N 0.15924 0.66838 0.92264 0.0
C3110 C 0.13195 0.68957 0.92008 0.0
C3111 C 0.15092 0.72601 0.91114 0.0
C3112 C 0.43274 0.45585 0.91522 0.0
C3113 C 0.41708 0.44942 0.92657 0.0
C3114 C 0.39891 0.44083 0.90599 0.0
C3115 C 0.34649 0.41375 0.90724 0.0
H3116 H 0.47161 0.475 0.91336 0.0
H3117 H 0.41481 0.45121 0.89763 0.0
S3118 S 0.28401 0.3905 0.93492 0.0
N3119 N 0.34289 0.42007 0.93813 0.0
N3120 N 0.28165 0.38408 0.92106 0.0
C3121 C 0.33017 0.40648 0.91846 0.0
C3122 C 0.36453 0.42596 0.92791 0.0
C3123 C 1.00518 0.64527 0.5944 0.0
C3124 C 0.97971 0.67206 0.59312 0.0
C3125 C 0.02553 0.63209 0.58517 0.0
C3126 C 0.01863 0.64126 0.57383 0.0
H3127 H 1.01025 0.63449 0.60276 0.0
H3128 H 0.04512 0.61285 0.58702 0.0
S3129 S 0.94845 0.7033 0.56524 0.0
N3130 N 0.94736 0.70423 0.57917 0.0
N3131 N 0.97939 0.67551 0.56207 0.0
C3132 C 0.99093 0.66564 0.57242 0.0
C3133 C 0.97303 0.6817 0.58187 0.0
C3134 C 0.41031 0.39838 0.57982 0.0
C3135 C 0.45759 0.4164 0.57495 0.0
C3136 C 0.3913 0.36091 0.58839 0.0
C3137 C 0.41884 0.33998 0.59275 0.0
H3138 H 0.38704 0.41205 0.5767 0.0
H3139 H 0.35545 0.34961 0.59193 0.0
S3140 S 0.5446 0.37416 0.58315 0.0
N3141 N 0.5307 0.40909 0.57537 0.0
N3142 N 0.49648 0.34155 0.59133 0.0
C3143 C 0.46605 0.35816 0.58798 0.0
C3144 C 0.48488 0.39532 0.57921 0.0
C3145 C 0.76997 0.12917 0.58228 0.0
C3146 C 0.75318 0.11971 0.59356 0.0
C3147 C 0.737 0.11331 0.57289 0.0
C3148 C 0.68481 0.08441 0.57398 0.0
H3149 H 0.80871 0.15087 0.58055 0.0
H3150 H 0.75327 0.12392 0.56457 0.0
S3151 S 0.62018 0.0489 0.6016 0.0
N3152 N 0.67861 0.08151 0.60502 0.0
N3153 N 0.61933 0.04682 0.58767 0.0
C3154 C 0.66773 0.0735 0.58517 0.0
C3155 C 0.70092 0.0923 0.59476 0.0
C3156 C 0.81945 0.79505 0.7452 0.0
C3157 C 0.79139 0.74648 0.74104 0.0
C3158 C 0.80114 0.81521 0.75329 0.0
C3159 C 0.75261 0.78915 0.75754 0.0
H3160 H 0.85639 0.81833 0.74205 0.0
H3161 H 0.82577 0.85206 0.75633 0.0
S3162 S 0.66239 0.66033 0.74961 0.0
N3163 N 0.71164 0.67232 0.74216 0.0
N3164 N 0.67667 0.71072 0.75687 0.0
C3165 C 0.72354 0.7406 0.75338 0.0
C3166 C 0.74302 0.71922 0.7454 0.0
C3167 C 0.36564 0.03211 0.75457 0.0
C3168 C 0.31672 1.01066 0.75869 0.0
C3169 C 0.38467 0.06995 0.74607 0.0
C3170 C 0.3556 0.08785 0.74106 0.0
H3171 H 0.39011 0.02104 0.75825 0.0
H3172 H 0.42192 0.08397 0.74313 0.0
S3173 S 0.22523 0.04396 0.7486 0.0
N3174 N 0.24042 1.01139 0.75687 0.0
N3175 N 0.2747 0.07962 0.74108 0.0
C3176 C 0.30675 0.06616 0.74509 0.0
C3177 C 0.28785 0.0286 0.75376 0.0
C3178 C 0.03149 0.28142 0.74683 0.0
C3179 C 1.00948 0.30773 0.74249 0.0
C3180 C 0.06943 0.30141 0.75503 0.0
C3181 C 0.08957 0.34987 0.75918 0.0
H3182 H 0.01963 0.24478 0.74371 0.0
H3183 H 0.08305 0.27822 0.75826 0.0
S3184 S 0.04687 0.43587 0.75056 0.0
N3185 N 1.01149 0.38572 0.74316 0.0
N3186 N 0.08385 0.42385 0.75811 0.0
C3187 C 0.06868 0.37714 0.7548 0.0
C3188 C 0.02854 0.35601 0.74667 0.0
C3189 C 0.30144 0.34339 0.24909 0.0
C3190 C 0.31499 0.34083 0.26028 0.0
C3191 C 0.31611 0.32491 0.23988 0.0
C3192 C 0.34867 0.30584 0.24097 0.0
H3193 H 0.2771 0.35725 0.2473 0.0
H3194 H 0.30132 0.32605 0.23169 0.0
S3195 S 0.39301 0.28646 0.26842 0.0
N3196 N 0.35858 0.31031 0.27187 0.0
N3197 N 0.39246 0.2844 0.25447 0.0
C3198 C 0.36317 0.30345 0.25204 0.0
C3199 C 0.34493 0.31861 0.2616 0.0
C3200 C 0.78683 0.06541 0.26048 0.0
C3201 C 0.75482 0.01363 0.25936 0.0
C3202 C 0.80219 0.09875 0.25122 0.0
C3203 C 0.79135 0.08246 0.23993 0.0
H3204 H 0.80001 0.0812 0.26876 0.0
H3205 H 0.82455 0.13734 0.25306 0.0
S3206 S 0.71558 0.95005 0.23166 0.0
N3207 N 0.71243 0.94879 0.24559 0.0
N3208 N 0.75161 1.00822 0.22833 0.0
C3209 C 0.76255 0.03025 0.23862 0.0
C3210 C 0.74199 0.99695 0.24816 0.0
C3211 C 0.03314 0.79318 0.24552 0.0
C3212 C 1.01277 0.74512 0.24101 0.0
C3213 C 0.06975 0.8117 0.25414 0.0
C3214 C 0.09087 0.78463 0.25858 0.0
H3215 H 0.02055 0.81724 0.24231 0.0
H3216 H 0.08174 0.84817 0.2574 0.0
S3217 S 0.05266 0.65684 0.24975 0.0
N3218 N 1.01735 0.67043 0.24198 0.0
N3219 N 0.08748 0.7059 0.25755 0.0
C3220 C 0.07169 0.73669 0.25403 0.0
C3221 C 0.03255 0.71689 0.24553 0.0
C3222 C 0.53355 1.00671 0.00588 0.0
C3223 C 0.5425 0.05047 0.01114 0.0
C3224 C 0.54763 1.00629 0.99454 0.0
C3225 C 0.57265 0.04974 0.98795 0.0
H3226 H 0.51459 0.97232 0.01046 0.0
H3227 H 0.53816 0.9711 0.9909 0.0
S3228 S 0.60112 0.1734 0.99711 0.0
N3229 N 0.57497 0.13837 0.00827 0.0
N3230 N 0.6036 0.13706 0.98745 0.0
C3231 C 0.58172 0.09353 0.99306 0.0
C3232 C 0.56632 0.09402 0.00448 0.0
C3233 C 1.0123 0.54327 0.99579 0.0
C3234 C 0.05344 0.5596 0.98873 0.0
C3235 C 1.01516 0.5354 0.00752 0.0
C3236 C 0.05927 0.54362 0.01283 0.0
H3237 H 0.97799 0.53761 0.99232 0.0
H3238 H 0.98192 0.52192 0.01246 0.0
S3239 S 0.17656 0.58262 0.99806 0.0
N3240 N 0.13926 0.58091 0.988 0.0
N3241 N 0.14399 0.56664 0.00982 0.0
C3242 C 0.10031 0.55937 0.00586 0.0
C3243 C 0.09744 0.56697 0.99393 0.0
C3244 C 0.58232 0.53296 0.00628 0.0
C3245 C 0.56621 0.56164 0.01224 0.0
C3246 C 0.57169 0.52082 0.99471 0.0
C3247 C 0.5445 0.5369 0.98846 0.0
H3248 H 0.60382 0.51975 0.0106 0.0
H3249 H 0.58411 0.49798 0.99072 0.0
S3250 S 0.49461 0.61418 0.99986 0.0
N3251 N 0.52295 0.60679 0.01077 0.0
N3252 N 0.50164 0.58383 0.98933 0.0
C3253 C 0.52834 0.5659 0.99435 0.0
C3254 C 0.53934 0.57816 0.0061 0.0
C3255 C 1.01565 0.52294 0.50663 0.0
C3256 C 0.05866 0.56146 0.51168 0.0
C3257 C 1.0126 0.51257 0.49492 0.0
C3258 C 0.05252 0.54035 0.4877 0.0
H3259 H 0.98372 0.50048 0.51182 0.0
H3260 H 0.97949 0.48157 0.4916 0.0
S3261 S 0.17166 0.64823 0.49626 0.0
N3262 N 0.14057 0.62941 0.50824 0.0
N3263 N 0.13545 0.61024 0.48636 0.0
C3264 C 0.09525 0.57977 0.49259 0.0
C3265 C 0.09831 0.59012 0.50451 0.0
C3266 C 0.58444 0.53783 0.49513 0.0
C3267 C 0.55938 0.55464 0.48827 0.0
C3268 C 0.57424 0.52914 0.50685 0.0
C3269 C 0.53852 0.53681 0.51237 0.0
H3270 H 0.61306 0.53254 0.49149 0.0
H3271 H 0.59436 0.51558 0.51163 0.0
S3272 S 0.46047 0.57803 0.49813 0.0
N3273 N 0.4956 0.57692 0.48788 0.0
N3274 N 0.47696 0.56062 0.50972 0.0
C3275 C 0.513 0.55324 0.50558 0.0
C3276 C 0.5231 0.56184 0.49364 0.0
C3277 C 0.58278 0.08697 0.5049 0.0
C3278 C 0.56545 0.04227 0.511 0.0
C3279 C 0.57139 0.08845 0.49338 0.0
C3280 C 0.54135 0.04524 0.48732 0.0
H3281 H 0.60619 0.12176 0.50905 0.0
H3282 H 0.58537 0.12378 0.48929 0.0
S3283 S 0.48619 0.91812 0.49908 0.0
N3284 N 0.51763 0.95372 0.50978 0.0
N3285 N 0.49386 0.9556 0.48851 0.0
C3286 C 0.52333 1.00015 0.49335 0.0
C3287 C 0.53579 0.99884 0.50502 0.0
C3288 C 0.25714 0.42329 0.32855 0.0
C3289 C 0.22983 0.3832 0.32135 0.0
C3290 C 0.24819 0.41951 0.34033 0.0
C3291 C 0.21142 0.37558 0.34548 0.0
H3292 H 0.28661 0.45728 0.32514 0.0
H3293 H 0.26977 0.45185 0.34549 0.0
S3294 S 0.12926 0.26 0.33033 0.0
N3295 N 0.16423 0.29783 0.32028 0.0
N3296 N 0.14745 0.29154 0.34226 0.0
C3297 C 0.18408 0.33527 0.33838 0.0
C3298 C 0.19306 0.33903 0.32639 0.0
C3299 C 0.76425 0.88995 0.33794 0.0
C3300 C 0.72452 0.87781 0.34522 0.0
C3301 C 0.76054 0.89612 0.32619 0.0
C3302 C 0.71691 0.89007 0.32112 0.0
H3303 H 0.79783 0.89319 0.34126 0.0
H3304 H 0.79269 0.90664 0.32101 0.0
S3305 S 0.60318 0.86097 0.33656 0.0
N3306 N 0.6405 0.86174 0.3465 0.0
N3307 N 0.6341 0.87328 0.32456 0.0
C3308 C 0.67718 0.8783 0.32832 0.0
C3309 C 0.681 0.8725 0.34028 0.0
C3310 C 0.1993 0.90067 0.32668 0.0
C3311 C 0.20973 0.86714 0.321 0.0
C3312 C 0.2097 0.91212 0.3383 0.0
C3313 C 0.23148 0.89089 0.34487 0.0
H3314 H 0.18252 0.91827 0.32207 0.0
H3315 H 0.20178 0.93877 0.34207 0.0
S3316 S 0.26512 0.79985 0.33445 0.0
N3317 N 0.24227 0.81222 0.32315 0.0
N3318 N 0.26222 0.8336 0.3448 0.0
C3319 C 0.24194 0.85716 0.33933 0.0
C3320 C 0.23125 0.8455 0.32749 0.0
C3321 C 0.7631 0.9118 0.82447 0.0
C3322 C 0.72001 0.87511 0.81903 0.0
C3323 C 0.76489 0.92073 0.83627 0.0
C3324 C 0.72371 0.89309 0.84319 0.0
H3325 H 0.79601 0.93375 0.81953 0.0
H3326 H 0.79819 0.95032 0.83992 0.0
S3327 S 0.60362 0.78979 0.83341 0.0
N3328 N 0.63643 0.80951 0.8217 0.0
N3329 N 0.63957 0.82527 0.84365 0.0
C3330 C 0.68096 0.85562 0.83784 0.0
C3331 C 0.67903 0.84702 0.82586 0.0
C3332 C 0.19137 0.89605 0.83895 0.0
C3333 C 0.21052 0.87185 0.84536 0.0
C3334 C 0.20261 0.90632 0.8273 0.0
C3335 C 0.23375 0.89314 0.82143 0.0
H3336 H 0.16647 0.90605 0.84286 0.0
H3337 H 0.18663 0.92503 0.82285 0.0
S3338 S 0.29523 0.83076 0.83435 0.0
N3339 N 0.26383 0.83628 0.84488 0.0
N3340 N 0.28414 0.85534 0.82319 0.0
C3341 C 0.25333 0.86922 0.82775 0.0
C3342 C 0.24214 0.85892 0.83961 0.0
C3343 C 0.22323 0.42219 0.82819 0.0
C3344 C 0.21458 0.38418 0.82063 0.0
C3345 C 0.22796 0.41724 0.83997 0.0
C3346 C 0.22431 0.37415 0.84477 0.0
H3347 H 0.22453 0.45517 0.82506 0.0
H3348 H 0.23524 0.44791 0.8454 0.0
S3349 S 0.20355 0.26461 0.82864 0.0
N3350 N 0.20351 0.30215 0.81887 0.0
N3351 N 0.21277 0.2936 0.84084 0.0
C3352 C 0.21584 0.33612 0.83731 0.0
C3353 C 0.21126 0.34113 0.82533 0.0
C3354 C 0.91004 0.75624 0.67326 0.0
C3355 C 0.8746 0.71245 0.67869 0.0
C3356 C 0.92023 0.75822 0.66154 0.0
C3357 C 0.89534 0.71642 0.65463 0.0
H3358 H 0.93007 0.78972 0.67814 0.0
H3359 H 0.9487 0.79235 0.65794 0.0
S3360 S 0.79705 0.59332 0.66434 0.0
N3361 N 0.81353 0.6269 0.67598 0.0
N3362 N 0.83187 0.63008 0.65412 0.0
C3363 C 0.85926 0.67258 0.65993 0.0
C3364 C 0.84929 0.6706 0.67187 0.0
C3365 C 0.3428 0.20352 0.66168 0.0
C3366 C 0.3836 0.21722 0.65462 0.0
C3367 C 0.34522 0.19628 0.67344 0.0
C3368 C 0.3885 0.2025 0.67872 0.0
H3369 H 0.30933 0.1999 0.65818 0.0
H3370 H 0.3126 0.18536 0.67848 0.0
S3371 S 0.50444 0.23461 0.6639 0.0
N3372 N 0.46813 0.23458 0.6538 0.0
N3373 N 0.47206 0.22071 0.6757 0.0
C3374 C 0.42922 0.21561 0.67173 0.0
C3375 C 0.42679 0.22276 0.65978 0.0
C3376 C 0.89152 0.17567 0.66305 0.0
C3377 C 0.87726 0.20181 0.65584 0.0
C3378 C 0.89862 0.18616 0.67479 0.0
C3379 C 0.89204 0.2234 0.67988 0.0
H3380 H 0.89572 0.14596 0.65969 0.0
H3381 H 0.90984 0.16499 0.67994 0.0
S3382 S 0.85698 0.30399 0.66466 0.0
N3383 N 0.85817 0.26771 0.65473 0.0
N3384 N 0.87171 0.28695 0.67655 0.0
C3385 C 0.8781 0.24981 0.67275 0.0
C3386 C 0.87096 0.2393 0.66084 0.0
C3387 C 0.43351 0.25283 0.17173 0.0
C3388 C 0.3954 0.22237 0.17915 0.0
C3389 C 0.42932 0.24394 0.15991 0.0
C3390 C 0.38664 0.2047 0.15493 0.0
H3391 H 0.46603 0.28466 0.175 0.0
H3392 H 0.46009 0.26798 0.15457 0.0
S3393 S 0.27791 0.11183 0.17069 0.0
N3394 N 0.31454 0.14922 0.18062 0.0
N3395 N 0.30695 0.13365 0.15857 0.0
C3396 C 0.34872 0.17365 0.16227 0.0
C3397 C 0.35321 0.18203 0.17429 0.0
C3398 C 0.87379 0.24563 0.16039 0.0
C3399 C 0.90298 0.23021 0.15443 0.0
C3400 C 0.86159 0.2347 0.17193 0.0
C3401 C 0.87792 0.20767 0.17814 0.0
H3402 H 0.86006 0.26673 0.15608 0.0
H3403 H 0.83817 0.24645 0.1759 0.0
S3404 S 0.958 0.16099 0.16695 0.0
N3405 N 0.94992 0.18868 0.15598 0.0
N3406 N 0.92665 0.16685 0.17743 0.0
C3407 C 0.9078 0.19255 0.17233 0.0
C3408 C 0.92029 0.20396 0.16059 0.0
C3409 C 0.86961 0.67441 0.16004 0.0
C3410 C 0.87731 0.7182 0.15471 0.0
C3411 C 0.87773 0.672 0.17177 0.0
C3412 C 0.89388 0.71331 0.17881 0.0
H3413 H 0.85673 0.64127 0.15506 0.0
H3414 H 0.87259 0.63793 0.17527 0.0
S3415 S 0.91621 0.83595 0.1695 0.0
N3416 N 0.89989 0.80308 0.15774 0.0
N3417 N 0.91515 0.79907 0.17958 0.0
C3418 C 0.90101 0.7571 0.17363 0.0
C3419 C 0.893 0.75953 0.16168 0.0
C3420 C 0.54301 0.75322 0.04375 0.0
C3421 C 0.57789 0.80191 0.04668 0.0
C3422 C 0.55652 0.71719 0.04189 0.0
C3423 C 0.60561 0.72766 0.04288 0.0
H3424 H 0.5043 0.74178 0.04387 0.0
H3425 H 0.52755 0.67979 0.04044 0.0
S3426 S 0.71144 0.84958 0.05008 0.0
N3427 N 0.66426 0.85895 0.05001 0.0
N3428 N 0.68914 0.7912 0.04675 0.0
C3429 C 0.64115 0.77672 0.04519 0.0
C3430 C 0.62744 0.81366 0.04702 0.0
C3431 C 0.28842 0.86299 0.04399 0.0
C3432 C 0.29406 0.82492 0.04884 0.0
C3433 C 0.32916 0.91034 0.0418 0.0
C3434 C 0.37735 0.92252 0.04476 0.0
H3435 H 0.25186 0.85677 0.04238 0.0
H3436 H 0.32233 0.93813 0.03842 0.0
S3437 S 0.41196 0.83498 0.05715 0.0
N3438 N 0.35184 0.80198 0.05583 0.0
N3439 N 0.4275 0.88998 0.05223 0.0
C3440 C 0.38322 0.88377 0.04917 0.0
C3441 C 0.34203 0.83548 0.05108 0.0
C3442 C 0.18917 0.45902 0.04824 0.0
C3443 C 0.17678 0.49072 0.04253 0.0
C3444 C 0.23869 0.47335 0.05084 0.0
C3445 C 0.2784 0.52019 0.04792 0.0
H3446 H 0.16017 0.42462 0.05161 0.0
H3447 H 0.24557 0.44912 0.05606 0.0
S3448 S 0.2661 0.61688 0.03285 0.0
N3449 N 0.20913 0.57067 0.03375 0.0
N3450 N 0.30093 0.59752 0.03878 0.0
C3451 C 0.26655 0.55103 0.0417 0.0
C3452 C 0.2163 0.53639 0.03901 0.0
C3453 C 0.80647 0.61172 0.44875 0.0
C3454 C 0.80003 0.56764 0.45348 0.0
C3455 C 0.77245 0.62798 0.45068 0.0
C3456 C 0.73074 0.60155 0.45761 0.0
H3457 H 0.83578 0.63165 0.44272 0.0
H3458 H 0.7771 0.65962 0.44604 0.0
S3459 S 0.69614 0.48365 0.4719 0.0
N3460 N 0.74787 0.49775 0.46531 0.0
N3461 N 0.68566 0.52921 0.46931 0.0
C3462 C 0.72515 0.55875 0.46281 0.0
C3463 C 0.7593 0.54173 0.46069 0.0
C3464 C 0.47388 0.18919 0.46043 0.0
C3465 C 0.50453 0.17561 0.45464 0.0
C3466 C 0.48086 0.2374 0.45955 0.0
C3467 C 0.5201 0.27483 0.45327 0.0
H3468 H 0.44274 0.16188 0.46515 0.0
H3469 H 0.45397 0.24482 0.46337 0.0
S3470 S 0.61079 0.26029 0.43649 0.0
N3471 N 0.57589 0.20569 0.44218 0.0
N3472 N 0.58946 0.29504 0.44127 0.0
C3473 C 0.55207 0.26249 0.44794 0.0
C3474 C 0.54426 0.21349 0.44845 0.0
C3475 C 0.89064 0.36508 0.46111 0.0
C3476 C 0.92963 0.36956 0.45428 0.0
C3477 C 0.84072 0.32997 0.45868 0.0
C3478 C 0.8277 0.2973 0.44941 0.0
H3479 H 0.89841 0.39141 0.46783 0.0
H3480 H 0.8121 0.33103 0.46354 0.0
S3481 S 0.91559 0.29315 0.4291 0.0
N3482 N 0.95075 0.33826 0.4378 0.0
N3483 N 0.85902 0.27058 0.43386 0.0
C3484 C 0.8668 0.29959 0.44305 0.0
C3485 C 0.91698 0.33614 0.44527 0.0
C3486 C 0.47065 0.32181 0.95587 0.0
C3487 C 0.50576 0.3701 0.95906 0.0
C3488 C 0.48402 0.28587 0.95341 0.0
C3489 C 0.53321 0.29642 0.95412 0.0
H3490 H 0.43333 0.31271 0.95435 0.0
H3491 H 0.45632 0.2509 0.94998 0.0
S3492 S 0.63885 0.41561 0.963 0.0
N3493 N 0.59142 0.42445 0.96373 0.0
N3494 N 0.61643 0.35812 0.95891 0.0
C3495 C 0.5679 0.34335 0.95808 0.0
C3496 C 0.55428 0.37971 0.96058 0.0
C3497 C 0.81544 0.23916 0.95134 0.0
C3498 C 0.80434 0.27706 0.9529 0.0
C3499 C 0.78003 0.18916 0.9533 0.0
C3500 C 0.7318 0.17467 0.9568 0.0
H3501 H 0.85036 0.24774 0.94766 0.0
H3502 H 0.78951 0.16177 0.95114 0.0
S3503 S 0.68496 0.25973 0.96281 0.0
N3504 N 0.74224 0.29637 0.95876 0.0
N3505 N 0.67667 0.20359 0.96253 0.0
C3506 C 0.72154 0.21263 0.95907 0.0
C3507 C 0.75742 0.26329 0.95712 0.0
C3508 C 0.86811 0.62109 0.95037 0.0
C3509 C 0.82874 0.57243 0.95198 0.0
C3510 C 0.9177 0.63539 0.95312 0.0
C3511 C 0.93062 0.60166 0.95757 0.0
H3512 H 0.86106 0.64744 0.94612 0.0
H3513 H 0.9465 0.67198 0.95086 0.0
S3514 S 0.84237 0.4699 0.96327 0.0
N3515 N 0.80731 0.49112 0.95843 0.0
N3516 N 0.89882 0.51732 0.96352 0.0
C3517 C 0.89129 0.55364 0.95963 0.0
C3518 C 0.84112 0.53927 0.95689 0.0
C3519 C 0.32964 0.45767 0.55145 0.0
C3520 C 0.36852 0.48293 0.54373 0.0
C3521 C 0.29576 0.47358 0.55387 0.0
C3522 C 0.29921 0.51587 0.54879 0.0
H3523 H 0.32776 0.42768 0.55636 0.0
H3524 H 0.26913 0.45503 0.56054 0.0
S3525 S 0.39401 0.59508 0.52789 0.0
N3526 N 0.40756 0.55186 0.53081 0.0
N3527 N 0.34449 0.58175 0.53538 0.0
C3528 C 0.33638 0.53992 0.54062 0.0
C3529 C 0.37082 0.52358 0.53812 0.0
C3530 C 0.54687 0.83421 0.55266 0.0
C3531 C 0.57562 0.81561 0.54815 0.0
C3532 C 0.55836 0.8831 0.55074 0.0
C3533 C 0.59898 0.91651 0.54408 0.0
H3534 H 0.51734 0.81191 0.55847 0.0
H3535 H 0.5362 0.89534 0.55506 0.0
S3536 S 0.68389 0.88491 0.52951 0.0
N3537 N 0.6457 0.83399 0.53632 0.0
N3538 N 0.66534 0.92464 0.53216 0.0
C3539 C 0.62604 0.89729 0.53888 0.0
C3540 C 0.61496 0.84748 0.54106 0.0
C3541 C 0.23916 0.8125 0.54349 0.0
C3542 C 0.27972 0.80778 0.54696 0.0
C3543 C 0.19214 0.77109 0.54142 0.0
C3544 C 0.18254 0.72289 0.54327 0.0
H3545 H 0.24324 0.84871 0.54288 0.0
H3546 H 0.16277 0.77717 0.53896 0.0
S3547 S 0.27821 0.69017 0.55019 0.0
N3548 N 0.30849 0.75069 0.55036 0.0
N3549 N 0.22091 0.67378 0.54702 0.0
C3550 C 0.22395 0.718 0.54583 0.0
C3551 C 0.27205 0.75999 0.54757 0.0
C3552 C 0.22517 0.05005 0.38228 0.0
C3553 C 0.27096 0.05927 0.37787 0.0
C3554 C 0.214 0.08756 0.38439 0.0
C3555 C 0.24838 0.13715 0.38237 0.0
H3556 H 0.19829 0.0135 0.38482 0.0
H3557 H 0.17957 0.07793 0.38851 0.0
S3558 S 0.37323 0.18333 0.37067 0.0
N3559 N 0.34998 0.12319 0.3711 0.0
N3560 N 0.33 0.19377 0.37544 0.0
C3561 C 0.29352 0.1472 0.37753 0.0
C3562 C 0.30456 0.10856 0.37519 0.0
C3563 C 0.99541 0.24252 0.37844 0.0
C3564 C 0.04251 0.2528 0.37512 0.0
C3565 C 0.95758 0.19435 0.381 0.0
C3566 C 0.96472 0.15338 0.38054 0.0
H3567 H 0.98827 0.27199 0.37985 0.0
H3568 H 0.92329 0.18968 0.38425 0.0
S3569 S 0.07824 0.15817 0.37015 0.0
N3570 N 0.09102 0.21587 0.36957 0.0
N3571 N 0.02153 0.12622 0.37502 0.0
C3572 C 1.01023 0.16234 0.37626 0.0
C3573 C 0.04857 0.21159 0.37347 0.0
C3574 C 0.87921 0.84792 0.36907 0.0
C3575 C 0.84428 0.82525 0.37779 0.0
C3576 C 0.93029 0.86714 0.37106 0.0
C3577 C 0.9484 0.8639 0.3818 0.0
H3578 H 0.86756 0.85451 0.36095 0.0
H3579 H 0.95599 0.88789 0.36439 0.0
S3580 S 0.87201 0.80447 0.4072 0.0
N3581 N 0.83189 0.79815 0.39738 0.0
N3582 N 0.92621 0.83293 0.40096 0.0
C3583 C 0.9133 0.83821 0.39028 0.0
C3584 C 0.86189 0.81932 0.38833 0.0
C3585 C 0.38498 0.88538 0.79205 0.0
C3586 C 0.39744 0.93507 0.79119 0.0
C3587 C 0.41859 0.86954 0.78939 0.0
C3588 C 0.46682 0.90262 0.7858 0.0
H3589 H 0.34763 0.85774 0.79397 0.0
H3590 H 0.40533 0.83043 0.78921 0.0
S3591 S 0.51992 0.03731 0.78295 0.0
N3592 N 0.46285 0.01755 0.78706 0.0
N3593 N 0.52633 0.98832 0.78233 0.0
C3594 C 0.48103 0.95289 0.78572 0.0
C3595 C 0.44643 0.96895 0.78834 0.0
C3596 C 0.16637 0.57443 0.77733 0.0
C3597 C 0.19834 0.61075 0.78502 0.0
C3598 C 0.14841 0.524 0.77926 0.0
C3599 C 0.16096 0.50694 0.78902 0.0
H3600 H 0.15858 0.58538 0.76925 0.0
H3601 H 0.12748 0.49838 0.7726 0.0
S3602 S 0.24044 0.5858 0.81228 0.0
N3603 N 0.23926 0.62523 0.80321 0.0
N3604 N 0.2051 0.53058 0.80684 0.0
C3605 C 0.18985 0.54234 0.79719 0.0
C3606 C 0.20855 0.59404 0.7952 0.0
C3607 C 0.58429 0.65923 0.79079 0.0
C3608 C 0.5938 0.70661 0.78783 0.0
C3609 C 0.5368 0.61722 0.78947 0.0
C3610 C 0.49602 0.62064 0.78549 0.0
H3611 H 0.61416 0.65398 0.79343 0.0
H3612 H 0.53249 0.58135 0.79102 0.0
S3613 S 0.49911 0.73553 0.77744 0.0
N3614 N 0.55612 0.75331 0.78121 0.0
N3615 N 0.46828 0.67564 0.77927 0.0
C3616 C 0.50431 0.66782 0.78326 0.0
C3617 C 0.55257 0.71021 0.78427 0.0
C3618 C 0.12966 0.6105 0.28673 0.0
C3619 C 0.17678 0.61545 0.28531 0.0
C3620 C 0.12311 0.65126 0.28881 0.0
C3621 C 0.16331 0.69917 0.28975 0.0
H3622 H 0.09715 0.57497 0.28547 0.0
H3623 H 0.08632 0.64551 0.28883 0.0
S3624 S 0.29458 0.73231 0.28829 0.0
N3625 N 0.26435 0.67254 0.28596 0.0
N3626 N 0.25226 0.74785 0.2904 0.0
C3627 C 0.21052 0.70396 0.28925 0.0
C3628 C 0.21725 0.66265 0.28699 0.0
C3629 C 0.44017 0.52622 0.29454 0.0
C3630 C 0.3959 0.51007 0.28852 0.0
C3631 C 0.48163 0.57382 0.29278 0.0
C3632 C 0.48003 0.60848 0.28538 0.0
H3633 H 0.4438 0.50121 0.3002 0.0
H3634 H 0.51591 0.58286 0.29689 0.0
S3635 S 0.37366 0.58673 0.26781 0.0
N3636 N 0.35492 0.53463 0.27464 0.0
N3637 N 0.43005 0.62354 0.27232 0.0
C3638 C 0.43548 0.59387 0.27985 0.0
C3639 C 0.39435 0.54512 0.28118 0.0
C3640 C 0.53711 0.96661 0.28541 0.0
C3641 C 0.49527 0.91899 0.28486 0.0
C3642 C 0.58439 0.97443 0.28799 0.0
C3643 C 0.59259 0.93525 0.29019 0.0
H3644 H 0.53384 0.99814 0.28307 0.0
H3645 H 0.61496 1.01112 0.28745 0.0
S3646 S 0.49488 0.804 0.29191 0.0
N3647 N 0.46497 0.8324 0.28811 0.0
N3648 N 0.55289 0.84737 0.29335 0.0
C3649 C 0.55042 0.88795 0.2907 0.0
C3650 C 0.50217 0.87978 0.288 0.0
C3651 C 0.028 0.84543 0.86871 0.0
C3652 C 0.03581 0.81857 0.87722 0.0
C3653 C 0.99513 0.86361 0.87036 0.0
C3654 C 0.96843 0.85536 0.88054 0.0
H3655 H 0.05038 0.856 0.86113 0.0
H3656 H 0.99347 0.88743 0.86397 0.0
S3657 S 0.97377 0.78503 0.90519 0.0
N3658 N 1.01206 0.78294 0.89596 0.0
N3659 N 0.95088 0.81621 0.89897 0.0
C3660 C 0.97394 0.82608 0.88877 0.0
C3661 C 1.00735 0.808 0.88714 0.0
C3662 C 0.3062 0.24255 0.87504 0.0
C3663 C 0.26674 0.25147 0.87603 0.0
C3664 C 0.30019 0.19524 0.87705 0.0
C3665 C 0.25403 0.15386 0.87984 0.0
H3666 H 0.34251 0.27268 0.8734 0.0
H3667 H 0.33264 0.1916 0.87704 0.0
S3668 S 0.13711 0.15455 0.88167 0.0
N3669 N 0.17856 0.21193 0.87875 0.0
N3670 N 0.16755 0.1246 0.88225 0.0
C3671 C 0.21379 0.16132 0.87986 0.0
C3672 C 0.22008 0.20945 0.87806 0.0
C3673 C 0.87959 0.0334 0.87909 0.0
C3674 C 0.84594 0.04785 0.87555 0.0
C3675 C 0.92855 0.06729 0.88186 0.0
C3676 C 0.94701 0.11824 0.88144 0.0
H3677 H 0.86717 0.99516 0.88037 0.0
H3678 H 0.95124 0.05336 0.88524 0.0
S3679 S 0.87809 0.17707 0.87066 0.0
N3680 N 0.83781 0.11766 0.86998 0.0
N3681 N 0.92934 0.18192 0.87572 0.0
C3682 C 0.91548 0.13381 0.87693 0.0
C3683 C 0.86523 0.09865 0.87387 0.0
C3684 C 0.96107 0.42538 0.72019 0.0
C3685 C 0.94868 0.39578 0.71038 0.0
C3686 C 0.94281 0.45761 0.72228 0.0
C3687 C 0.91081 0.46243 0.71468 0.0
H3688 H 0.98233 0.42089 0.72678 0.0
H3689 H 0.95076 0.47608 0.7304 0.0
S3690 S 0.86888 0.39619 0.6873 0.0
N3691 N 0.90411 0.37601 0.69263 0.0
N3692 N 0.86997 0.43637 0.69649 0.0
C3693 C 0.90055 0.43554 0.70447 0.0
C3694 C 0.91934 0.40248 0.70234 0.0
C3695 C 0.63446 0.52625 0.72136 0.0
C3696 C 0.63672 0.48854 0.71537 0.0
C3697 C 0.66745 0.57657 0.71917 0.0
C3698 C 0.70434 0.59189 0.71084 0.0
H3699 H 0.60962 0.51678 0.72848 0.0
H3700 H 0.66655 0.60365 0.72466 0.0
S3701 S 0.72593 0.50864 0.69257 0.0
N3702 N 0.6785 0.47084 0.70045 0.0
N3703 N 0.74007 0.56475 0.69638 0.0
C3704 C 0.70528 0.55472 0.70436 0.0
C3705 C 0.67167 0.50342 0.7066 0.0
C3706 C 0.52294 0.12349 0.71323 0.0
C3707 C 0.5131 0.15995 0.7094 0.0
C3708 C 0.57141 0.13427 0.7156 0.0
C3709 C 0.61244 0.18238 0.71455 0.0
H3710 H 0.49281 0.08744 0.71532 0.0
H3711 H 0.57635 0.1055 0.71928 0.0
S3712 S 0.60697 0.28949 0.70326 0.0
N3713 N 0.54924 0.24449 0.70314 0.0
N3714 N 0.63936 0.26534 0.70819 0.0
C3715 C 0.60335 0.21808 0.70982 0.0
C3716 C 0.55404 0.20679 0.7072 0.0
C3717 C 0.14656 0.28873 0.11427 0.0
C3718 C 0.14085 0.24404 0.11849 0.0
C3719 C 0.11174 0.30371 0.11647 0.0
C3720 C 0.06961 0.2749 0.12307 0.0
H3721 H 0.17597 0.31018 0.10836 0.0
H3722 H 0.11572 0.33595 0.11218 0.0
S3723 S 0.03759 0.15586 0.13648 0.0
N3724 N 0.09008 0.17234 0.12997 0.0
N3725 N 0.02538 0.20044 0.13417 0.0
C3726 C 0.06501 0.23177 0.1279 0.0
C3727 C 0.10037 0.21647 0.12564 0.0
C3728 C 0.89618 0.92908 0.12465 0.0
C3729 C 0.86572 0.9443 0.11938 0.0
C3730 C 0.87952 0.87906 0.12708 0.0
C3731 C 0.83157 0.84141 0.12433 0.0
H3732 H 0.93457 0.95563 0.12606 0.0
H3733 H 0.90572 0.86944 0.13036 0.0
S3734 S 0.73655 0.86081 0.11067 0.0
N3735 N 0.78419 0.91689 0.11191 0.0
N3736 N 0.75373 0.82356 0.11622 0.0
C3737 C 0.80005 0.85628 0.11958 0.0
C3738 C 0.81684 0.90732 0.11719 0.0
C3739 C 0.24349 0.99566 0.12835 0.0
C3740 C 0.25771 0.04106 0.12304 0.0
C3741 C 0.19586 0.95416 0.12675 0.0
C3742 C 0.15923 0.95683 0.12033 0.0
H3743 H 0.26999 0.99123 0.13324 0.0
H3744 H 0.18829 0.91912 0.13017 0.0
S3745 S 0.175 0.06633 0.10519 0.0
N3746 N 0.22895 0.08483 0.11114 0.0
N3747 N 0.14 1.00881 0.10908 0.0
C3748 C 0.17186 1.00246 0.11565 0.0
C3749 C 0.22062 0.04388 0.11679 0.0
C3750 C 0.81309 0.9518 0.62218 0.0
C3751 C 0.86084 0.95956 0.62014 0.0
C3752 C 0.80438 0.991 0.62454 0.0
C3753 C 0.8426 0.04025 0.62459 0.0
H3754 H 0.78171 0.91518 0.62132 0.0
H3755 H 0.76713 0.98266 0.62565 0.0
S3756 S 0.97515 0.08013 0.62174 0.0
N3757 N 0.94737 0.02014 0.61987 0.0
N3758 N 0.93116 0.09321 0.62405 0.0
C3759 C 0.89076 0.04795 0.62344 0.0
C3760 C 0.89978 1.00799 0.62128 0.0
C3761 C 0.13757 0.90291 0.61421 0.0
C3762 C 0.13235 0.94065 0.61931 0.0
C3763 C 0.10489 0.85272 0.61659 0.0
C3764 C 0.06575 0.83762 0.62431 0.0
H3765 H 0.1647 0.91206 0.60761 0.0
H3766 H 0.1083 0.82546 0.61171 0.0
S3767 S 0.03514 0.9211 0.63989 0.0
N3768 N 0.08433 0.95868 0.63246 0.0
N3769 N 0.02414 0.86501 0.6371 0.0
C3770 C 0.06145 0.87492 0.62985 0.0
C3771 C 0.0944 0.92608 0.62734 0.0
C3772 C 0.22376 0.21909 0.62715 0.0
C3773 C 0.26269 0.26723 0.62511 0.0
C3774 C 0.17416 0.20541 0.62519 0.0
C3775 C 0.16073 0.23914 0.62107 0.0
H3776 H 0.23191 0.19068 0.62949 0.0
H3777 H 0.14645 0.16698 0.62594 0.0
S3778 S 0.24804 0.36987 0.6144 0.0
N3779 N 0.2837 0.34865 0.61884 0.0
N3780 N 0.1911 0.32354 0.61534 0.0
C3781 C 0.19906 0.288 0.61958 0.0
C3782 C 0.24968 0.30184 0.62153 0.0
C3783 C 0.62148 0.13794 0.21112 0.0
C3784 C 0.62908 0.18584 0.21285 0.0
C3785 C 0.66039 0.12945 0.20837 0.0
C3786 C 0.70909 0.16822 0.20742 0.0
H3787 H 0.58555 0.10641 0.21269 0.0
H3788 H 0.6525 0.09214 0.20773 0.0
S3789 S 0.74706 0.30077 0.20819 0.0
N3790 N 0.68807 0.27272 0.21138 0.0
N3791 N 0.76013 0.25673 0.20599 0.0
C3792 C 0.71596 0.2162 0.20783 0.0
C3793 C 0.67639 0.22501 0.21058 0.0
C3794 C 0.98165 0.58141 0.21181 0.0
C3795 C 0.9406 0.5878 0.21109 0.0
C3796 C 0.97655 0.53473 0.21402 0.0
C3797 C 0.93013 0.49185 0.21576 0.0
H3798 H 1.01806 0.61303 0.21145 0.0
H3799 H 1.00974 0.53277 0.215 0.0
S3800 S 0.81048 0.48725 0.21336 0.0
N3801 N 0.85142 0.54552 0.21112 0.0
N3802 N 0.84219 0.45922 0.21552 0.0
C3803 C 0.88877 0.49726 0.21429 0.0
C3804 C 0.89396 0.54467 0.21199 0.0
C3805 C 0.54287 0.40152 0.20303 0.0
C3806 C 0.50483 0.39325 0.21065 0.0
C3807 C 0.59314 0.43545 0.20552 0.0
C3808 C 0.60753 0.46287 0.21571 0.0
H3809 H 0.53425 0.37863 0.19556 0.0
H3810 H 0.62108 0.43723 0.19987 0.0
S3811 S 0.52227 0.45629 0.23829 0.0
N3812 N 0.48582 0.41672 0.22867 0.0
N3813 N 0.57838 0.48062 0.23309 0.0
C3814 C 0.56935 0.45699 0.22298 0.0
C3815 C 0.51878 0.42224 0.22054 0.0
C3816 C 0.59486 0.43643 0.04933 0.0
C3817 C 0.57982 0.46218 0.04214 0.0
C3818 C 0.5812 0.38694 0.04715 0.0
C3819 C 0.55098 0.36118 0.03787 0.0
H3820 H 0.61912 0.45529 0.05638 0.0
H3821 H 0.59645 0.36959 0.05238 0.0
S3822 S 0.49905 0.41062 0.01703 0.0
N3823 N 0.53116 0.457 0.02572 0.0
N3824 N 0.50476 0.36451 0.02185 0.0
C3825 C 0.5337 0.38583 0.03104 0.0
C3826 C 0.54828 0.43613 0.03312 0.0
C3827 C 0.72256 0.20045 0.04874 0.0
C3828 C 0.74211 0.22837 0.03891 0.0
C3829 C 0.67166 0.17434 0.05057 0.0
C3830 C 0.6381 0.17243 0.04233 0.0
H3831 H 0.74655 0.19729 0.05484 0.0
H3832 H 0.65863 0.15389 0.05835 0.0
S3833 S 0.67359 0.25288 0.01702 0.0
N3834 N 0.72633 0.26309 0.0223 0.0
N3835 N 0.63031 0.21173 0.02535 0.0
C3836 C 0.65802 0.20494 0.03311 0.0
C3837 C 0.7101 0.23297 0.03145 0.0
C3838 C 0.90509 0.5101 0.0523 0.0
C3839 C 0.94685 0.53151 0.04532 0.0
C3840 C 0.86547 0.51806 0.05029 0.0
C3841 C 0.86678 0.54831 0.04135 0.0
H3842 H 0.90178 0.48478 0.05892 0.0
H3843 H 0.83255 0.49838 0.05536 0.0
S3844 S 0.96867 0.61471 0.02106 0.0
N3845 N 0.98761 0.58526 0.02936 0.0
N3846 N 0.9141 0.60144 0.02585 0.0
C3847 C 0.90942 0.57195 0.03473 0.0
C3848 C 0.94922 0.56317 0.03664 0.0
C3849 C 0.4286 0.52859 0.45937 0.0
C3850 C 0.46538 0.57728 0.45696 0.0
C3851 C 0.37959 0.51584 0.4614 0.0
C3852 C 0.36526 0.55149 0.46128 0.0
H3853 H 0.43813 0.50055 0.46055 0.0
H3854 H 0.35366 0.47858 0.46397 0.0
S3855 S 0.44517 0.68318 0.45433 0.0
N3856 N 0.48247 0.66049 0.45366 0.0
N3857 N 0.39069 0.63693 0.45782 0.0
C3858 C 0.40093 0.59988 0.45841 0.0
C3859 C 0.45084 0.61276 0.45624 0.0
C3860 C 0.51918 0.85474 0.45257 0.0
C3861 C 0.55019 0.85857 0.46161 0.0
C3862 C 0.50691 0.89154 0.45053 0.0
C3863 C 0.52432 0.93293 0.45761 0.0
H3864 H 0.50236 0.82189 0.4474 0.0
H3865 H 0.48204 0.8866 0.44365 0.0
S3866 S 0.60966 0.96209 0.48184 0.0
N3867 N 0.60028 0.90853 0.47722 0.0
N3868 N 0.57749 0.97732 0.47342 0.0
C3869 C 0.55722 0.93822 0.46631 0.0
C3870 C 0.57001 0.90111 0.46831 0.0
C3871 C 0.21075 0.7244 0.45594 0.0
C3872 C 0.25168 0.73358 0.46254 0.0
C3873 C 0.17536 0.67602 0.45282 0.0
C3874 C 0.17804 0.63481 0.45665 0.0
H3875 H 0.2047 0.75428 0.45364 0.0
H3876 H 0.14509 0.67118 0.44772 0.0
S3877 S 0.28585 0.64141 0.47111 0.0
N3878 N 0.2993 0.69905 0.47019 0.0
N3879 N 0.23115 0.60851 0.46528 0.0
C3880 C 0.22152 0.64442 0.4622 0.0
C3881 C 0.25846 0.69357 0.46492 0.0
C3882 C 0.5103 0.65462 0.94886 0.0
C3883 C 0.52671 0.6325 0.95674 0.0
C3884 C 0.52189 0.70379 0.95016 0.0
C3885 C 0.5513 0.73269 0.95921 0.0
H3886 H 0.48658 0.63317 0.94195 0.0
H3887 H 0.50589 0.71862 0.94437 0.0
S3888 S 0.60847 0.69399 0.98125 0.0
N3889 N 0.57743 0.64469 0.97328 0.0
N3890 N 0.59955 0.73691 0.97561 0.0
C3891 C 0.57041 0.71189 0.96669 0.0
C3892 C 0.55805 0.66181 0.96548 0.0
C3893 C 0.40705 0.88327 0.97206 0.0
C3894 C 0.36989 0.87261 0.96406 0.0
C3895 C 0.45691 0.91108 0.96917 0.0
C3896 C 0.47185 0.92991 0.95816 0.0
H3897 H 0.39746 0.87184 0.98079 0.0
H3898 H 0.48375 0.91999 0.97581 0.0
S3899 S 0.38882 0.90425 0.93356 0.0
N3900 N 0.35123 0.87742 0.94432 0.0
N3901 N 0.44498 0.92904 0.93879 0.0
C3902 C 0.43501 0.91598 0.94985 0.0
C3903 C 0.38407 0.88744 0.95281 0.0
C3904 C 0.20431 0.5954 0.96637 0.0
C3905 C 0.1764 0.58264 0.95632 0.0
C3906 C 0.23259 0.57387 0.96929 0.0
C3907 C 0.23614 0.54031 0.96205 0.0
H3908 H 0.2026 0.62051 0.97234 0.0
H3909 H 0.24974 0.58155 0.97757 0.0
S3910 S 0.18685 0.50993 0.93293 0.0
N3911 N 0.16569 0.54493 0.93781 0.0
N3912 N 0.21908 0.50448 0.94328 0.0
C3913 C 0.21444 0.53274 0.9513 0.0
C3914 C 0.18481 0.55413 0.9484 0.0
C3915 C 0.66521 0.54963 0.53413 0.0
C3916 C 0.63957 0.52352 0.54385 0.0
C3917 C 0.71391 0.561 0.53212 0.0
C3918 C 0.73896 0.54687 0.53977 0.0
H3919 H 0.64697 0.56005 0.52787 0.0
H3920 H 0.73131 0.57884 0.52424 0.0
S3921 S 0.68865 0.47954 0.56668 0.0
N3922 N 0.64336 0.48573 0.56141 0.0
N3923 N 0.73467 0.5067 0.55762 0.0
C3924 C 0.71442 0.52275 0.54976 0.0
C3925 C 0.6648 0.51123 0.55181 0.0
C3926 C 0.59796 0.19697 0.55023 0.0
C3927 C 0.58544 0.16047 0.54193 0.0
C3928 C 0.58783 0.23551 0.54864 0.0
C3929 C 0.56363 0.23811 0.53885 0.0
H3930 H 0.61756 0.19691 0.55776 0.0
H3931 H 0.60091 0.26464 0.55487 0.0
S3932 S 0.51738 0.1481 0.51535 0.0
N3933 N 0.54354 0.12706 0.5241 0.0
N3934 N 0.52409 0.19876 0.52121 0.0
C3935 C 0.5483 0.20019 0.53086 0.0
C3936 C 0.55925 0.16152 0.53238 0.0
C3937 C 0.94558 0.42267 0.53686 0.0
C3938 C 0.93628 0.45815 0.54173 0.0
C3939 C 0.90748 0.37387 0.53515 0.0
C3940 C 0.85877 0.359 0.53823 0.0
H3941 H 0.982 0.43314 0.53387 0.0
H3942 H 0.91568 0.34847 0.53081 0.0
S3943 S 0.81622 0.43707 0.55202 0.0
N3944 N 0.87568 0.47438 0.55013 0.0
N3945 N 0.80427 0.38315 0.54701 0.0
C3946 C 0.84971 0.39379 0.54354 0.0
C3947 C 0.88833 0.44325 0.54522 0.0
C3948 C 0.28048 0.73412 0.37477 0.0
C3949 C 0.2355 0.69622 0.37045 0.0
C3950 C 0.28885 0.78201 0.37648 0.0
C3951 C 0.25252 0.79415 0.37399 0.0
H3952 H 0.31016 0.72701 0.37651 0.0
H3953 H 0.32431 0.80992 0.37964 0.0
S3954 S 0.12961 0.70938 0.36174 0.0
N3955 N 0.15468 0.67463 0.36348 0.0
N3956 N 0.17057 0.76444 0.36638 0.0
C3957 C 0.20717 0.75644 0.36977 0.0
C3958 C 0.19856 0.70757 0.36811 0.0
C3959 C 0.37295 0.58237 0.37657 0.0
C3960 C 0.40744 0.57438 0.37073 0.0
C3961 C 0.3249 0.5438 0.37873 0.0
C3962 C 0.3094 0.4956 0.37516 0.0
H3963 H 0.38263 0.61928 0.37907 0.0
H3964 H 0.29929 0.55199 0.38296 0.0
S3965 S 0.38414 0.45551 0.35893 0.0
N3966 N 0.42203 0.51459 0.3612 0.0
N3967 N 0.33183 0.44249 0.36507 0.0
C3968 C 0.34364 0.48693 0.36945 0.0
C3969 C 0.39265 0.52616 0.3673 0.0
C3970 C 0.57792 0.90918 0.36851 0.0
C3971 C 0.52915 0.87539 0.3716 0.0
C3972 C 0.61619 0.89902 0.37056 0.0
C3973 C 0.60684 0.85449 0.37561 0.0
H3974 H 0.58605 0.9422 0.36391 0.0
H3975 H 0.65277 0.92494 0.36761 0.0
S3976 S 0.48697 0.75689 0.38639 0.0
N3977 N 0.47493 0.79813 0.38097 0.0
N3978 N 0.54633 0.7787 0.38446 0.0
C3979 C 0.55891 0.82182 0.3792 0.0
C3980 C 0.52028 0.83242 0.37731 0.0
C3981 C 0.09665 0.87468 0.7827 0.0
C3982 C 0.13448 0.91574 0.78838 0.0
C3983 C 0.04683 0.85661 0.78528 0.0
C3984 C 0.03283 0.88027 0.79328 0.0
H3985 H 0.10523 0.85475 0.77662 0.0
H3986 H 0.01945 0.82216 0.78156 0.0
S3987 S 0.11547 0.99725 0.80797 0.0
N3988 N 0.15289 0.98507 0.80068 0.0
N3989 N 0.05947 0.95197 0.80518 0.0
C3990 C 0.06955 0.9248 0.79788 0.0
C3991 C 0.12026 0.94252 0.79548 0.0
C3992 C 0.24731 0.23696 0.78642 0.0
C3993 C 0.21937 0.19601 0.79334 0.0
C3994 C 0.23067 0.26972 0.78373 0.0
C3995 C 0.1866 0.26416 0.78823 0.0
H3996 H 0.28381 0.24577 0.78379 0.0
H3997 H 0.25415 0.30088 0.77864 0.0
S3998 S 0.09503 0.15559 0.80446 0.0
N3999 N 0.14158 0.14598 0.80276 0.0
N4000 N 0.11096 0.20821 0.79809 0.0
C4001 C 0.15611 0.22023 0.79413 0.0
C4002 C 0.17248 0.18622 0.79661 0.0
C4003 C 0.92141 0.02642 0.79766 0.0
C4004 C 0.91983 0.06934 0.79505 0.0
C4005 C 0.88399 0.97984 0.79436 0.0
C4006 C 0.84343 0.97344 0.78794 0.0
H4007 H 0.951 0.02844 0.80276 0.0
H4008 H 0.88643 0.94847 0.79726 0.0
S4009 S 0.82862 0.07468 0.77604 0.0
N4010 N 0.87801 0.10289 0.78407 0.0
N4011 N 0.8104 0.01568 0.77697 0.0
C4012 C 0.84455 0.01643 0.78406 0.0
C4013 C 0.88206 0.06419 0.78777 0.0
C4014 C 0.2378 1.00572 0.29388 0.0
C4015 C 0.19118 0.96902 0.29001 0.0
C4016 C 0.2484 0.05435 0.29599 0.0
C4017 C 0.21259 0.06815 0.29436 0.0
H4018 H 0.26546 0.9963 0.29593 0.0
H4019 H 0.28376 0.0804 0.29956 0.0
S4020 S 0.08682 0.98764 0.28314 0.0
N4021 N 0.11057 0.95129 0.28382 0.0
N4022 N 0.13 0.04182 0.28774 0.0
C4023 C 0.16674 0.0323 0.28998 0.0
C4024 C 0.15607 0.98303 0.28788 0.0
C4025 C 0.09744 0.2727 0.29555 0.0
C4026 C 0.13435 0.26289 0.29185 0.0
C4027 C 0.04877 0.23455 0.29739 0.0
C4028 C 0.03523 0.18517 0.29554 0.0
H4029 H 0.10664 0.30983 0.29757 0.0
H4030 H 0.02236 0.24355 0.30085 0.0
S4031 S 0.11668 0.14066 0.28469 0.0
N4032 N 0.15301 0.20071 0.28568 0.0
N4033 N 0.0619 0.1292 0.28891 0.0
C4034 C 0.07135 0.17535 0.29133 0.0
C4035 C 0.12079 0.21404 0.28959 0.0
C4036 C 0.92072 0.93208 0.2868 0.0
C4037 C 0.91527 0.89361 0.29389 0.0
C4038 C 0.88208 0.94188 0.28517 0.0
C4039 C 0.83678 0.91385 0.29066 0.0
H4040 H 0.95585 0.95606 0.28285 0.0
H4041 H 0.88818 0.97248 0.27985 0.0
S4042 S 0.80384 0.80942 0.31013 0.0
N4043 N 0.86075 0.82706 0.30628 0.0
N4044 N 0.7886 0.8459 0.30341 0.0
C4045 C 0.83044 0.87454 0.29752 0.0
C4046 C 0.86955 0.86426 0.29908 0.0
C4047 C 0.31843 0.81445 0.87714 0.0
C4048 C 0.30624 0.85117 0.8752 0.0
C4049 C 0.36594 0.82267 0.87494 0.0
C4050 C 0.40341 0.86788 0.87064 0.0
H4051 H 0.29069 0.77865 0.88017 0.0
H4052 H 0.37298 0.79265 0.87623 0.0
S4053 S 0.38997 0.97486 0.86322 0.0
N4054 N 0.33547 0.9338 0.86812 0.0
N4055 N 0.42462 0.94937 0.86428 0.0
C4056 C 0.39211 0.90524 0.86887 0.0
C4057 C 0.34361 0.89681 0.87104 0.0
C4058 C 0.27681 0.58546 0.87595 0.0
C4059 C 0.23332 0.57962 0.87099 0.0
C4060 C 0.28352 0.54501 0.87808 0.0
C4061 C 0.24724 0.49689 0.87519 0.0
H4062 H 0.30653 0.62195 0.87796 0.0
H4063 H 0.31776 0.55169 0.88181 0.0
S4064 S 0.12709 0.46224 0.86155 0.0
N4065 N 0.15345 0.52212 0.86332 0.0
N4066 N 0.16628 0.4468 0.86663 0.0
C4067 C 0.2033 0.4908 0.87027 0.0
C4068 C 0.19623 0.53183 0.86837 0.0
C4069 C 0.54239 0.72591 0.86104 0.0
C4070 C 0.53857 0.68933 0.86851 0.0
C4071 C 0.56954 0.77597 0.86392 0.0
C4072 C 0.59622 0.79176 0.8741 0.0
H4073 H 0.52553 0.71579 0.85275 0.0
H4074 H 0.57144 0.80248 0.85784 0.0
S4075 S 0.58581 0.7097 0.8979 0.0
N4076 N 0.5545 0.6716 0.88752 0.0
N4077 N 0.60637 0.76558 0.89284 0.0
C4078 C 0.58787 0.75516 0.88217 0.0
C4079 C 0.55918 0.70403 0.87934 0.0
C4080 C 0.94663 0.0774 0.70639 0.0
C4081 C 0.90022 0.03394 0.70674 0.0
C4082 C 0.95299 0.12345 0.70957 0.0
C4083 C 0.91324 0.12862 0.71322 0.0
H4084 H 0.97833 0.07616 0.70325 0.0
H4085 H 0.98907 0.15546 0.70868 0.0
S4086 S 0.78568 0.02555 0.71762 0.0
N4087 N 0.81496 0.99878 0.71238 0.0
N4088 N 0.82693 0.08448 0.71843 0.0
C4089 C 0.86744 0.08494 0.7144 0.0
C4090 C 0.86096 0.03795 0.71121 0.0
C4091 C 1.00277 0.82188 0.70131 0.0
C4092 C 0.97395 0.826 0.70987 0.0
C4093 C 0.05169 0.85925 0.69955 0.0
C4094 C 0.07328 0.90187 0.7063 0.0
H4095 H 0.98683 0.79045 0.69568 0.0
H4096 H 0.07178 0.85612 0.69245 0.0
S4097 S 1.01394 0.92866 0.73017 0.0
N4098 N 0.97108 0.87437 0.72551 0.0
N4099 N 0.06268 0.94482 0.72213 0.0
C4100 C 0.04543 0.90514 0.7152 0.0
C4101 C 0.99581 0.86709 0.71701 0.0
C4102 C 0.28611 0.23139 0.70429 0.0
C4103 C 0.27149 0.18462 0.70874 0.0
C4104 C 0.25188 0.24567 0.70142 0.0
C4105 C 0.20125 0.21334 0.70264 0.0
H4106 H 0.32395 0.25604 0.7022 0.0
H4107 H 0.265 0.28126 0.6975 0.0
S4108 S 0.14337 0.08688 0.71422 0.0
N4109 N 0.20287 0.10641 0.71463 0.0
N4110 N 0.13789 0.13264 0.70896 0.0
C4111 C 0.18586 0.16682 0.7074 0.0
C4112 C 0.22108 0.15245 0.71042 0.0
C4113 C 0.77524 0.25228 0.11567 0.0
C4114 C 0.8004 0.24071 0.12386 0.0
C4115 C 0.72564 0.23943 0.11723 0.0
C4116 C 0.6989 0.21326 0.12688 0.0
H4117 H 0.7947 0.27351 0.10828 0.0
H4118 H 0.70885 0.2523 0.11115 0.0
S4119 S 0.7459 0.16846 0.15003 0.0
N4120 N 0.79322 0.19747 0.1414 0.0
N4121 N 0.70053 0.17303 0.14424 0.0
C4122 C 0.72282 0.19873 0.13471 0.0
C4123 C 0.77335 0.21244 0.13322 0.0
C4124 C 0.91312 0.57111 0.12739 0.0
C4125 C 0.87533 0.52176 0.12704 0.0
C4126 C 0.90318 0.60947 0.1254 0.0
C4127 C 0.85529 0.59983 0.12292 0.0
H4128 H 0.94978 0.58022 0.12997 0.0
H4129 H 0.93252 0.64666 0.12661 0.0
S4130 S 0.74529 0.477 0.1196 0.0
N4131 N 0.78939 0.46538 0.12297 0.0
N4132 N 0.77099 0.53736 0.11928 0.0
C4133 C 0.81804 0.5507 0.12194 0.0
C4134 C 0.82806 0.51177 0.12392 0.0
C4135 C 0.53607 0.38427 0.13135 0.0
C4136 C 0.58519 0.39894 0.12884 0.0
C4137 C 0.49823 0.33575 0.12932 0.0
C4138 C 0.508 0.30026 0.12463 0.0
H4139 H 0.52719 0.40956 0.1355 0.0
H4140 H 0.46149 0.32549 0.13195 0.0
S4141 S 0.62944 0.32176 0.11534 0.0
N4142 N 0.64089 0.37501 0.12067 0.0
N4143 N 0.56966 0.28448 0.11668 0.0
C4144 C 0.55649 0.31512 0.12162 0.0
C4145 C 0.59501 0.36431 0.12373 0.0
C4146 C 0.82987 0.31193 0.6344 0.0
C4147 C 0.84902 0.29988 0.62495 0.0
C4148 C 0.8481 0.36082 0.63778 0.0
C4149 C 0.88634 0.40036 0.63186 0.0
H4150 H 0.80245 0.28335 0.63968 0.0
H4151 H 0.83411 0.36757 0.64555 0.0
S4152 S 0.93871 0.39059 0.60455 0.0
N4153 N 0.89997 0.33304 0.6081 0.0
N4154 N 0.93597 0.42478 0.61482 0.0
C4155 C 0.90175 0.38952 0.62164 0.0
C4156 C 0.88267 0.33943 0.61809 0.0
C4157 C 0.76305 0.6014 0.61713 0.0
C4158 C 0.80176 0.59738 0.6221 0.0
C4159 C 0.71357 0.56868 0.61988 0.0
C4160 C 0.70066 0.52953 0.62741 0.0
H4161 H 0.77079 0.63143 0.61153 0.0
H4162 H 0.68563 0.57617 0.61673 0.0
S4163 S 0.78557 0.49479 0.6407 0.0
N4164 N 0.82187 0.54524 0.63354 0.0
N4165 N 0.72917 0.48374 0.63841 0.0
C4166 C 0.73814 0.5216 0.63141 0.0
C4167 C 0.78852 0.55529 0.62879 0.0
C4168 C 0.52859 0.18454 0.63193 0.0
C4169 C 0.57617 0.21422 0.62756 0.0
C4170 C 0.49099 0.19545 0.62978 0.0
C4171 C 0.4997 0.2364 0.6232 0.0
H4172 H 0.52122 0.15463 0.63763 0.0
H4173 H 0.45573 0.17326 0.63381 0.0
S4174 S 0.61667 0.32341 0.60921 0.0
N4175 N 0.62891 0.28451 0.61584 0.0
N4176 N 0.55839 0.30487 0.61186 0.0
C4177 C 0.54632 0.26488 0.61839 0.0
C4178 C 0.58448 0.25376 0.62053 0.0
C4179 C 0.99428 0.16284 0.21284 0.0
C4180 C 0.97122 0.18608 0.2075 0.0
C4181 C 0.04319 0.17567 0.21013 0.0
C4182 C 0.07082 0.2128 0.20216 0.0
H4183 H 0.97377 0.13324 0.21877 0.0
H4184 H 0.05834 0.15451 0.21377 0.0
S4185 S 0.02813 0.28509 0.18606 0.0
N4186 N 0.98057 0.24802 0.19396 0.0
N4187 N 0.07213 0.27349 0.1894 0.0
C4188 C 0.04892 0.23787 0.19733 0.0
C4189 C 0.99925 0.22412 0.19984 0.0
C4190 C 0.85634 0.85955 0.20348 0.0
C4191 C 0.89269 0.90939 0.20419 0.0
C4192 C 0.86751 0.82214 0.20571 0.0
C4193 C 0.91529 0.83294 0.20878 0.0
H4194 H 0.81988 0.84938 0.20051 0.0
H4195 H 0.83913 0.78469 0.20434 0.0
S4196 S 0.02202 0.95754 0.21299 0.0
N4197 N 0.97741 0.96744 0.209 0.0
N4198 N 0.99801 0.8973 0.21319 0.0
C4199 C 0.95122 0.88255 0.20997 0.0
C4200 C 0.93994 0.92058 0.20774 0.0
C4201 C 0.18466 0.07247 0.20893 0.0
C4202 C 0.18959 0.03121 0.20642 0.0
C4203 C 0.22569 0.11893 0.21128 0.0
C4204 C 0.27374 0.12647 0.21118 0.0
H4205 H 0.14869 0.06913 0.20875 0.0
H4206 H 0.21968 0.14943 0.21284 0.0
S4207 S 0.30658 0.02983 0.20538 0.0
N4208 N 0.24622 1.00068 0.20437 0.0
N4209 N 0.32295 0.08708 0.20853 0.0
C4210 C 0.27883 0.08489 0.20901 0.0
C4211 C 0.23699 0.03759 0.20675 0.0
loop_
_geom_bond_atom_site_label_1
_geom_bond_atom_site_label_2
_geom_bond_distance
_geom_bond_site_symmetry_2
_ccdc_geom_bond_type
Tb0 N29 2.617 . S
Tb0 N35 2.572 . S
Tb0 O44 2.465 1_545 S
Tb0 O45 2.387 . S
Tb0 O47 2.428 1_545 S
Tb0 O48 2.308 . S
Tb0 O52 2.349 1_545 S
Tb0 O55 2.393 . S
Tb0 C64 2.802 1_545 S
C1 N2 1.379 . S
C1 C4 1.416 . S
C1 C8 1.424 . S
N2 C1 1.379 . S
N2 C5 1.334 . S
N2 Tb11 2.617 . S
C3 C5 1.390 . S
C3 C6 1.339 . S
C3 H23 0.930 1_554 S
C4 C1 1.416 . S
C4 C6 1.416 . S
C4 C10 1.448 . S
C5 N2 1.334 . S
C5 C3 1.390 . S
C5 H16 0.930 . S
C6 C3 1.339 . S
C6 C4 1.416 . S
C6 H27 0.930 1_554 S
C7 C8 1.413 . S
C7 C9 1.427 . S
C7 C13 1.416 . S
C8 C1 1.424 . S
C8 C7 1.413 . S
C8 N12 1.361 . S
C9 C7 1.427 . S
C9 C10 1.328 . S
C9 H24 0.929 1_545 S
C10 C4 1.448 . S
C10 C9 1.328 . S
C10 H25 0.930 1_545 S
Tb11 N2 2.617 . S
Tb11 N12 2.572 . S
Tb11 O46 2.349 . S
Tb11 O49 2.393 . S
Tb11 O50 2.465 . S
Tb11 O51 2.387 1_545 S
Tb11 O53 2.428 . S
Tb11 O54 2.308 . S
Tb11 C75 2.802 . S
N12 C8 1.361 . S
N12 Tb11 2.572 . S
N12 C14 1.340 . S
C13 C7 1.416 . S
C13 C15 1.332 . S
C13 H21 0.931 . S
C14 N12 1.340 . S
C14 C15 1.407 . S
C14 H20 0.930 . S
C15 C13 1.332 . S
C15 C14 1.407 . S
C15 H17 0.929 . S
H16 C5 0.930 . S
H17 C15 0.929 . S
H18 C33 0.930 . S
H19 C40 0.929 . S
H20 C14 0.930 . S
H21 C13 0.931 . S
H22 C36 0.930 . S
H23 C3 0.930 1_556 S
H24 C9 0.929 1_565 S
H25 C10 0.930 1_565 S
H26 C31 0.930 . S
H27 C6 0.930 1_556 S
H28 C39 0.931 . S
N29 Tb0 2.617 . S
N29 C30 1.379 . S
N29 C33 1.334 . S
C30 N29 1.379 . S
C30 C32 1.416 . S
C30 C38 1.424 . S
C31 H26 0.930 . S
C31 C33 1.390 . S
C31 C34 1.339 . S
C32 C30 1.416 . S
C32 C34 1.416 . S
C32 C65 1.448 . S
C33 H18 0.930 . S
C33 N29 1.334 . S
C33 C31 1.390 . S
C34 C31 1.339 . S
C34 C32 1.416 . S
C34 H41 0.930 . S
N35 Tb0 2.572 . S
N35 C36 1.340 . S
N35 C38 1.361 . S
C36 H22 0.930 . S
C36 N35 1.340 . S
C36 C40 1.407 . S
C37 C38 1.413 . S
C37 C39 1.416 . S
C37 C66 1.427 . S
C38 C30 1.424 . S
C38 N35 1.361 . S
C38 C37 1.413 . S
C39 H28 0.931 . S
C39 C37 1.416 . S
C39 C40 1.332 . S
C40 H19 0.929 . S
C40 C36 1.407 . S
C40 C39 1.332 . S
H41 C34 0.930 . S
H42 C65 0.930 . S
H43 C66 0.929 . S
O44 Tb0 2.465 1_565 S
O44 C64 1.264 . S
O45 Tb0 2.387 . S
O45 C56 1.264 . S
O46 Tb11 2.349 . S
O46 C56 1.243 . S
O47 Tb0 2.428 1_565 S
O47 C64 1.256 . S
O48 Tb0 2.308 . S
O48 C63 1.266 . S
O49 Tb11 2.393 . S
O49 C63 1.248 . S
O50 Tb11 2.465 . S
O50 C75 1.264 . S
O51 Tb11 2.387 1_565 S
O51 C67 1.264 . S
O52 Tb0 2.349 1_565 S
O52 C67 1.243 . S
O53 Tb11 2.428 . S
O53 C75 1.256 . S
O54 Tb11 2.308 . S
O54 C74 1.266 . S
O55 Tb0 2.393 . S
O55 C74 1.248 . S
C56 O45 1.264 . S
C56 O46 1.243 . S
C57 C60 1.399 . S
C57 C62 1.383 . S
C57 C64 1.496 . S
C58 C59 1.399 . S
C58 C62 1.389 . S
C59 C58 1.399 . S
C59 C61 1.380 . S
C59 H76 0.929 . S
C60 C57 1.399 . S
C60 C61 1.392 . S
C60 H77 0.929 . S
C61 C59 1.380 . S
C61 C60 1.392 . S
C61 H78 0.929 . S
C62 C57 1.383 . S
C62 C58 1.389 . S
C62 H79 0.931 . S
C63 O48 1.266 . S
C63 O49 1.248 . S
C64 Tb0 2.802 1_565 S
C64 O44 1.264 . S
C64 O47 1.256 . S
C64 C57 1.496 . S
C65 C32 1.448 . S
C65 H42 0.930 . S
C65 C66 1.328 . S
C66 C37 1.427 . S
C66 H43 0.929 . S
C66 C65 1.328 . S
C67 O51 1.264 . S
C67 O52 1.243 . S
C68 C71 1.399 . S
C68 C72 1.383 . S
C68 C75 1.496 . S
C69 C70 1.399 . S
C69 C72 1.389 . S
C70 C69 1.399 . S
C70 C73 1.380 . S
C70 H80 0.929 . S
C71 C68 1.399 . S
C71 C73 1.392 . S
C71 H81 0.929 . S
C72 C68 1.383 . S
C72 C69 1.389 . S
C72 H82 0.931 . S
C73 C70 1.380 . S
C73 C71 1.392 . S
C73 H83 0.929 . S
C74 O54 1.266 . S
C74 O55 1.248 . S
C75 Tb11 2.802 . S
C75 O50 1.264 . S
C75 O53 1.256 . S
C75 C68 1.496 . S
H76 C59 0.929 . S
H77 C60 0.929 . S
H78 C61 0.929 . S
H79 C62 0.931 . S
H80 C70 0.929 . S
H81 C71 0.929 . S
H82 C72 0.931 . S
H83 C73 0.929 . S
Tb84 N113 2.617 . S
Tb84 N119 2.572 . S
Tb84 O128 2.465 . S
Tb84 O129 2.387 1_455 S
Tb84 O131 2.428 . S
Tb84 O132 2.308 . S
Tb84 O136 2.349 . S
Tb84 O139 2.393 . S
Tb84 C148 2.802 . S
C85 N86 1.379 . S
C85 C88 1.416 . S
C85 C92 1.424 . S
N86 C85 1.379 . S
N86 C89 1.334 . S
N86 Tb95 2.617 1_455 S
C87 C89 1.390 . S
C87 C90 1.339 . S
C87 H107 0.930 1_554 S
C88 C85 1.416 . S
C88 C90 1.416 . S
C88 C94 1.448 . S
C89 N86 1.334 . S
C89 C87 1.390 . S
C89 H100 0.930 . S
C90 C87 1.339 . S
C90 C88 1.416 . S
C90 H111 0.930 1_554 S
C91 C92 1.413 . S
C91 C93 1.427 . S
C91 C97 1.416 . S
C92 C85 1.424 . S
C92 C91 1.413 . S
C92 N96 1.361 . S
C93 C91 1.427 . S
C93 C94 1.328 . S
C93 H108 0.929 . S
C94 C88 1.448 . S
C94 C93 1.328 . S
C94 H109 0.930 . S
Tb95 N86 2.617 1_655 S
Tb95 N96 2.572 1_655 S
Tb95 O130 2.349 . S
Tb95 O133 2.393 1_655 S
Tb95 O134 2.465 . S
Tb95 O135 2.387 1_655 S
Tb95 O137 2.428 . S
Tb95 O138 2.308 1_655 S
Tb95 C159 2.802 . S
N96 C92 1.361 . S
N96 Tb95 2.572 1_455 S
N96 C98 1.340 . S
C97 C91 1.416 . S
C97 C99 1.332 . S
C97 H105 0.931 . S
C98 N96 1.340 . S
C98 C99 1.407 . S
C98 H104 0.930 1_455 S
C99 C97 1.332 . S
C99 C98 1.407 . S
C99 H101 0.929 . S
H100 C89 0.930 . S
H101 C99 0.929 . S
H102 C117 0.930 . S
H103 C124 0.929 . S
H104 C98 0.930 1_655 S
H105 C97 0.931 . S
H106 C120 0.930 . S
H107 C87 0.930 1_556 S
H108 C93 0.929 . S
H109 C94 0.930 . S
H110 C115 0.930 . S
H111 C90 0.930 1_556 S
H112 C123 0.931 1_655 S
N113 Tb84 2.617 . S
N113 C114 1.379 . S
N113 C117 1.334 . S
C114 N113 1.379 . S
C114 C116 1.416 1_455 S
C114 C122 1.424 . S
C115 H110 0.930 . S
C115 C117 1.390 . S
C115 C118 1.339 1_455 S
C116 C114 1.416 1_655 S
C116 C118 1.416 . S
C116 C149 1.448 . S
C117 H102 0.930 . S
C117 N113 1.334 . S
C117 C115 1.390 . S
C118 C115 1.339 1_655 S
C118 C116 1.416 . S
C118 H125 0.930 . S
N119 Tb84 2.572 . S
N119 C120 1.340 . S
N119 C122 1.361 . S
C120 H106 0.930 . S
C120 N119 1.340 . S
C120 C124 1.407 . S
C121 C122 1.419 . S
C121 C123 1.415 . S
C121 C150 1.422 1_455 S
C122 C114 1.424 . S
C122 N119 1.361 . S
C122 C121 1.419 . S
C123 H112 0.931 1_455 S
C123 C121 1.415 . S
C123 C124 1.332 . S
C124 H103 0.929 . S
C124 C120 1.407 . S
C124 C123 1.332 . S
H125 C118 0.930 . S
H126 C149 0.930 . S
H127 C150 0.929 . S
O128 Tb84 2.465 . S
O128 C148 1.264 . S
O129 Tb84 2.387 1_655 S
O129 C140 1.264 . S
O130 Tb95 2.349 . S
O130 C140 1.243 . S
O131 Tb84 2.428 . S
O131 C148 1.256 . S
O132 Tb84 2.308 . S
O132 C147 1.266 . S
O133 Tb95 2.393 1_455 S
O133 C147 1.248 . S
O134 Tb95 2.465 . S
O134 C159 1.264 . S
O135 Tb95 2.387 1_455 S
O135 C151 1.264 . S
O136 Tb84 2.349 . S
O136 C151 1.243 . S
O137 Tb95 2.428 . S
O137 C159 1.256 . S
O138 Tb95 2.308 1_455 S
O138 C158 1.266 . S
O139 Tb84 2.393 . S
O139 C158 1.248 . S
C140 O129 1.264 . S
C140 O130 1.243 . S
C141 C144 1.399 . S
C141 C146 1.383 . S
C141 C148 1.496 . S
C142 C143 1.399 . S
C142 C146 1.389 . S
C143 C142 1.399 . S
C143 C145 1.380 . S
C143 H160 0.929 . S
C144 C141 1.399 . S
C144 C145 1.392 . S
C144 H161 0.929 . S
C145 C143 1.380 . S
C145 C144 1.392 . S
C145 H162 0.929 . S
C146 C141 1.383 . S
C146 C142 1.389 . S
C146 H163 0.931 . S
C147 O132 1.266 . S
C147 O133 1.248 . S
C148 Tb84 2.802 . S
C148 O128 1.264 . S
C148 O131 1.256 . S
C148 C141 1.496 . S
C149 C116 1.448 . S
C149 H126 0.930 . S
C149 C150 1.328 . S
C150 C121 1.422 1_655 S
C150 H127 0.929 . S
C150 C149 1.328 . S
C151 O135 1.264 . S
C151 O136 1.243 . S
C152 C155 1.399 . S
C152 C156 1.383 . S
C152 C159 1.496 . S
C153 C154 1.399 . S
C153 C156 1.389 . S
C154 C153 1.399 . S
C154 C157 1.380 . S
C154 H164 0.929 . S
C155 C152 1.399 . S
C155 C157 1.392 . S
C155 H165 0.929 . S
C156 C152 1.383 . S
C156 C153 1.389 . S
C156 H166 0.931 . S
C157 C154 1.380 . S
C157 C155 1.392 . S
C157 H167 0.929 . S
C158 O138 1.266 . S
C158 O139 1.248 . S
C159 Tb95 2.802 . S
C159 O134 1.264 . S
C159 O137 1.256 . S
C159 C152 1.496 . S
H160 C143 0.929 . S
H161 C144 0.929 . S
H162 C145 0.929 . S
H163 C146 0.931 . S
H164 C154 0.929 . S
H165 C155 0.929 . S
H166 C156 0.931 . S
H167 C157 0.929 . S
Tb168 N197 2.617 . S
Tb168 N203 2.572 . S
Tb168 O212 2.465 . S
Tb168 O213 2.387 . S
Tb168 O215 2.428 . S
Tb168 O216 2.308 . S
Tb168 O220 2.349 . S
Tb168 O223 2.393 . S
Tb168 C232 2.802 . S
C169 N170 1.379 . S
C169 C172 1.416 . S
C169 C176 1.424 . S
N170 C169 1.379 . S
N170 C173 1.334 . S
N170 Tb179 2.617 . S
C171 C173 1.390 . S
C171 C174 1.339 . S
C171 H191 0.930 1_554 S
C172 C169 1.416 . S
C172 C174 1.416 . S
C172 C178 1.448 . S
C173 N170 1.334 . S
C173 C171 1.390 . S
C173 H184 0.930 . S
C174 C171 1.339 . S
C174 C172 1.416 . S
C174 H195 0.930 1_554 S
C175 C176 1.413 . S
C175 C177 1.427 . S
C175 C181 1.416 . S
C176 C169 1.424 . S
C176 C175 1.413 . S
C176 N180 1.361 . S
C177 C175 1.427 . S
C177 C178 1.328 . S
C177 H192 0.929 . S
C178 C172 1.448 . S
C178 C177 1.328 . S
C178 H193 0.930 . S
Tb179 N170 2.617 . S
Tb179 N180 2.572 . S
Tb179 O214 2.349 . S
Tb179 O217 2.393 . S
Tb179 O218 2.465 . S
Tb179 O219 2.387 . S
Tb179 O221 2.428 . S
Tb179 O222 2.308 . S
Tb179 C243 2.802 . S
N180 C176 1.361 . S
N180 Tb179 2.572 . S
N180 C182 1.340 . S
C181 C175 1.416 . S
C181 C183 1.332 . S
C181 H189 0.931 . S
C182 N180 1.340 . S
C182 C183 1.407 . S
C182 H188 0.930 . S
C183 C181 1.332 . S
C183 C182 1.407 . S
C183 H185 0.929 . S
H184 C173 0.930 . S
H185 C183 0.929 . S
H186 C201 0.930 . S
H187 C208 0.929 . S
H188 C182 0.930 . S
H189 C181 0.931 . S
H190 C204 0.930 . S
H191 C171 0.930 1_556 S
H192 C177 0.929 . S
H193 C178 0.930 . S
H194 C199 0.930 . S
H195 C174 0.930 1_556 S
H196 C207 0.931 . S
N197 Tb168 2.617 . S
N197 C198 1.379 . S
N197 C201 1.334 . S
C198 N197 1.379 . S
C198 C200 1.416 . S
C198 C206 1.424 . S
C199 H194 0.930 . S
C199 C201 1.390 . S
C199 C202 1.339 . S
C200 C198 1.416 . S
C200 C202 1.416 . S
C200 C233 1.448 . S
C201 H186 0.930 . S
C201 N197 1.334 . S
C201 C199 1.390 . S
C202 C199 1.339 . S
C202 C200 1.416 . S
C202 H209 0.930 . S
N203 Tb168 2.572 . S
N203 C204 1.340 . S
N203 C206 1.361 . S
C204 H190 0.930 . S
C204 N203 1.340 . S
C204 C208 1.407 . S
C205 C206 1.413 . S
C205 C207 1.416 . S
C205 C234 1.427 . S
C206 C198 1.424 . S
C206 N203 1.361 . S
C206 C205 1.413 . S
C207 H196 0.931 . S
C207 C205 1.416 . S
C207 C208 1.332 . S
C208 H187 0.929 . S
C208 C204 1.407 . S
C208 C207 1.332 . S
H209 C202 0.930 . S
H210 C233 0.930 . S
H211 C234 0.929 . S
O212 Tb168 2.465 . S
O212 C232 1.264 . S
O213 Tb168 2.387 . S
O213 C224 1.264 . S
O214 Tb179 2.349 . S
O214 C224 1.243 . S
O215 Tb168 2.428 . S
O215 C232 1.256 . S
O216 Tb168 2.308 . S
O216 C231 1.266 . S
O217 Tb179 2.393 . S
O217 C231 1.248 . S
O218 Tb179 2.465 . S
O218 C243 1.264 . S
O219 Tb179 2.387 . S
O219 C235 1.264 . S
O220 Tb168 2.349 . S
O220 C235 1.243 . S
O221 Tb179 2.428 . S
O221 C243 1.256 . S
O222 Tb179 2.308 . S
O222 C242 1.266 . S
O223 Tb168 2.393 . S
O223 C242 1.248 . S
C224 O213 1.264 . S
C224 O214 1.243 . S
C225 C228 1.399 . S
C225 C230 1.383 . S
C225 C232 1.496 . S
C226 C227 1.399 . S
C226 C230 1.389 . S
C227 C226 1.399 . S
C227 C229 1.380 . S
C227 H244 0.929 . S
C228 C225 1.399 . S
C228 C229 1.392 . S
C228 H245 0.929 . S
C229 C227 1.380 . S
C229 C228 1.392 . S
C229 H246 0.929 . S
C230 C225 1.383 . S
C230 C226 1.389 . S
C230 H247 0.931 . S
C231 O216 1.266 . S
C231 O217 1.248 . S
C232 Tb168 2.802 . S
C232 O212 1.264 . S
C232 O215 1.256 . S
C232 C225 1.496 . S
C233 C200 1.448 . S
C233 H210 0.930 . S
C233 C234 1.328 . S
C234 C205 1.427 . S
C234 H211 0.929 . S
C234 C233 1.328 . S
C235 O219 1.264 . S
C235 O220 1.243 . S
C236 C239 1.399 . S
C236 C240 1.383 . S
C236 C243 1.496 . S
C237 C238 1.399 . S
C237 C240 1.389 . S
C238 C237 1.399 . S
C238 C241 1.380 . S
C238 H248 0.929 . S
C239 C236 1.399 . S
C239 C241 1.392 . S
C239 H249 0.929 . S
C240 C236 1.383 . S
C240 C237 1.389 . S
C240 H250 0.931 . S
C241 C238 1.380 . S
C241 C239 1.392 . S
C241 H251 0.929 . S
C242 O222 1.266 . S
C242 O223 1.248 . S
C243 Tb179 2.802 . S
C243 O218 1.264 . S
C243 O221 1.256 . S
C243 C236 1.496 . S
H244 C227 0.929 . S
H245 C228 0.929 . S
H246 C229 0.929 . S
H247 C230 0.931 . S
H248 C238 0.929 . S
H249 C239 0.929 . S
H250 C240 0.931 . S
H251 C241 0.929 . S
Tb252 N281 2.617 . S
Tb252 N287 2.572 . S
Tb252 O296 2.465 1_455 S
Tb252 O297 2.387 . S
Tb252 O299 2.428 1_455 S
Tb252 O300 2.308 . S
Tb252 O304 2.349 1_455 S
Tb252 O307 2.393 . S
Tb252 C316 2.802 1_455 S
C253 N254 1.379 . S
C253 C256 1.416 . S
C253 C260 1.424 . S
N254 C253 1.379 . S
N254 C257 1.334 . S
N254 Tb263 2.617 . S
C255 C257 1.390 . S
C255 C258 1.339 . S
C255 H275 0.930 . S
C256 C253 1.416 . S
C256 C258 1.416 . S
C256 C262 1.448 . S
C257 N254 1.334 . S
C257 C255 1.390 . S
C257 H268 0.930 . S
C258 C255 1.339 . S
C258 C256 1.416 . S
C258 H279 0.930 . S
C259 C260 1.413 . S
C259 C261 1.427 . S
C259 C265 1.416 . S
C260 C253 1.424 . S
C260 C259 1.413 . S
C260 N264 1.361 . S
C261 C259 1.427 . S
C261 C262 1.328 . S
C261 H276 0.929 1_455 S
C262 C256 1.448 . S
C262 C261 1.328 . S
C262 H277 0.930 1_455 S
Tb263 N254 2.617 . S
Tb263 N264 2.572 . S
Tb263 O298 2.349 . S
Tb263 O301 2.393 . S
Tb263 O302 2.465 . S
Tb263 O303 2.387 1_455 S
Tb263 O305 2.428 . S
Tb263 O306 2.308 . S
Tb263 C327 2.802 . S
N264 C260 1.361 . S
N264 Tb263 2.572 . S
N264 C266 1.340 . S
C265 C259 1.416 . S
C265 C267 1.332 . S
C265 H273 0.931 . S
C266 N264 1.340 . S
C266 C267 1.407 . S
C266 H272 0.930 . S
C267 C265 1.332 . S
C267 C266 1.407 . S
C267 H269 0.929 . S
H268 C257 0.930 . S
H269 C267 0.929 . S
H270 C285 0.930 . S
H271 C292 0.929 . S
H272 C266 0.930 . S
H273 C265 0.931 . S
H274 C288 0.930 . S
H275 C255 0.930 . S
H276 C261 0.929 1_655 S
H277 C262 0.930 1_655 S
H278 C283 0.930 . S
H279 C258 0.930 . S
H280 C291 0.931 . S
N281 Tb252 2.617 . S
N281 C282 1.379 . S
N281 C285 1.334 . S
C282 N281 1.379 . S
C282 C284 1.416 . S
C282 C290 1.424 . S
C283 H278 0.930 . S
C283 C285 1.390 . S
C283 C286 1.339 . S
C284 C282 1.416 . S
C284 C286 1.416 . S
C284 C317 1.448 . S
C285 H270 0.930 . S
C285 N281 1.334 . S
C285 C283 1.390 . S
C286 C283 1.339 . S
C286 C284 1.416 . S
C286 H293 0.930 . S
N287 Tb252 2.572 . S
N287 C288 1.340 . S
N287 C290 1.361 . S
C288 H274 0.930 . S
C288 N287 1.340 . S
C288 C292 1.407 . S
C289 C290 1.413 . S
C289 C291 1.416 . S
C289 C318 1.427 . S
C290 C282 1.424 . S
C290 N287 1.361 . S
C290 C289 1.413 . S
C291 H280 0.931 . S
C291 C289 1.416 . S
C291 C292 1.332 . S
C292 H271 0.929 . S
C292 C288 1.407 . S
C292 C291 1.332 . S
H293 C286 0.930 . S
H294 C317 0.930 . S
H295 C318 0.929 . S
O296 Tb252 2.465 1_655 S
O296 C316 1.264 . S
O297 Tb252 2.387 . S
O297 C308 1.264 . S
O298 Tb263 2.349 . S
O298 C308 1.243 . S
O299 Tb252 2.428 1_655 S
O299 C316 1.256 . S
O300 Tb252 2.308 . S
O300 C315 1.266 . S
O301 Tb263 2.393 . S
O301 C315 1.248 . S
O302 Tb263 2.465 . S
O302 C327 1.264 . S
O303 Tb263 2.387 1_655 S
O303 C319 1.264 . S
O304 Tb252 2.349 1_655 S
O304 C319 1.243 . S
O305 Tb263 2.428 . S
O305 C327 1.256 . S
O306 Tb263 2.308 . S
O306 C326 1.266 . S
O307 Tb252 2.393 . S
O307 C326 1.248 . S
C308 O297 1.264 . S
C308 O298 1.243 . S
C309 C312 1.399 . S
C309 C314 1.383 . S
C309 C316 1.496 . S
C310 C311 1.399 . S
C310 C314 1.389 . S
C311 C310 1.399 . S
C311 C313 1.380 . S
C311 H328 0.929 . S
C312 C309 1.399 . S
C312 C313 1.392 . S
C312 H329 0.929 . S
C313 C311 1.380 . S
C313 C312 1.392 . S
C313 H330 0.929 . S
C314 C309 1.383 . S
C314 C310 1.389 . S
C314 H331 0.931 . S
C315 O300 1.266 . S
C315 O301 1.248 . S
C316 Tb252 2.802 1_655 S
C316 O296 1.264 . S
C316 O299 1.256 . S
C316 C309 1.496 . S
C317 C284 1.448 . S
C317 H294 0.930 . S
C317 C318 1.328 . S
C318 C289 1.427 . S
C318 H295 0.929 . S
C318 C317 1.328 . S
C319 O303 1.264 . S
C319 O304 1.243 . S
C320 C323 1.399 . S
C320 C324 1.383 . S
C320 C327 1.496 . S
C321 C322 1.399 . S
C321 C324 1.389 . S
C322 C321 1.399 . S
C322 C325 1.380 . S
C322 H332 0.929 . S
C323 C320 1.399 . S
C323 C325 1.392 . S
C323 H333 0.929 . S
C324 C320 1.383 . S
C324 C321 1.389 . S
C324 H334 0.931 . S
C325 C322 1.380 . S
C325 C323 1.392 . S
C325 H335 0.929 . S
C326 O306 1.266 . S
C326 O307 1.248 . S
C327 Tb263 2.802 . S
C327 O302 1.264 . S
C327 O305 1.256 . S
C327 C320 1.496 . S
H328 C311 0.929 . S
H329 C312 0.929 . S
H330 C313 0.929 . S
H331 C314 0.931 . S
H332 C322 0.929 . S
H333 C323 0.929 . S
H334 C324 0.931 . S
H335 C325 0.929 . S
Tb336 N365 2.617 . S
Tb336 N371 2.572 . S
Tb336 O380 2.465 . S
Tb336 O381 2.387 . S
Tb336 O383 2.428 . S
Tb336 O384 2.308 . S
Tb336 O388 2.349 . S
Tb336 O391 2.393 . S
Tb336 C400 2.802 . S
C337 N338 1.379 . S
C337 C340 1.416 . S
C337 C344 1.424 . S
N338 C337 1.379 . S
N338 C341 1.334 . S
N338 Tb347 2.617 . S
C339 C341 1.390 . S
C339 C342 1.339 . S
C339 H359 0.930 . S
C340 C337 1.416 . S
C340 C342 1.416 . S
C340 C346 1.448 . S
C341 N338 1.334 . S
C341 C339 1.390 . S
C341 H352 0.930 . S
C342 C339 1.339 . S
C342 C340 1.416 . S
C342 H363 0.930 . S
C343 C344 1.413 . S
C343 C345 1.427 . S
C343 C349 1.416 . S
C344 C337 1.424 . S
C344 C343 1.413 . S
C344 N348 1.361 . S
C345 C343 1.427 . S
C345 C346 1.328 . S
C345 H360 0.929 . S
C346 C340 1.448 . S
C346 C345 1.328 . S
C346 H361 0.930 . S
Tb347 N338 2.617 . S
Tb347 N348 2.572 . S
Tb347 O382 2.349 . S
Tb347 O385 2.393 . S
Tb347 O386 2.465 . S
Tb347 O387 2.387 . S
Tb347 O389 2.428 . S
Tb347 O390 2.308 . S
Tb347 C411 2.802 . S
N348 C344 1.361 . S
N348 Tb347 2.572 . S
N348 C350 1.340 . S
C349 C343 1.416 . S
C349 C351 1.332 . S
C349 H357 0.931 . S
C350 N348 1.340 . S
C350 C351 1.407 . S
C350 H356 0.930 . S
C351 C349 1.332 . S
C351 C350 1.407 . S
C351 H353 0.929 . S
H352 C341 0.930 . S
H353 C351 0.929 . S
H354 C369 0.930 . S
H355 C376 0.929 . S
H356 C350 0.930 . S
H357 C349 0.931 . S
H358 C372 0.930 . S
H359 C339 0.930 . S
H360 C345 0.929 . S
H361 C346 0.930 . S
H362 C367 0.930 . S
H363 C342 0.930 . S
H364 C375 0.931 . S
N365 Tb336 2.617 . S
N365 C366 1.379 . S
N365 C369 1.334 . S
C366 N365 1.379 . S
C366 C368 1.416 . S
C366 C374 1.424 . S
C367 H362 0.930 . S
C367 C369 1.390 . S
C367 C370 1.339 . S
C368 C366 1.416 . S
C368 C370 1.416 . S
C368 C401 1.448 . S
C369 H354 0.930 . S
C369 N365 1.334 . S
C369 C367 1.390 . S
C370 C367 1.339 . S
C370 C368 1.416 . S
C370 H377 0.930 . S
N371 Tb336 2.572 . S
N371 C372 1.340 . S
N371 C374 1.361 . S
C372 H358 0.930 . S
C372 N371 1.340 . S
C372 C376 1.407 . S
C373 C374 1.413 . S
C373 C375 1.416 . S
C373 C402 1.427 . S
C374 C366 1.424 . S
C374 N371 1.361 . S
C374 C373 1.413 . S
C375 H364 0.931 . S
C375 C373 1.416 . S
C375 C376 1.332 . S
C376 H355 0.929 . S
C376 C372 1.407 . S
C376 C375 1.332 . S
H377 C370 0.930 . S
H378 C401 0.930 . S
H379 C402 0.929 . S
O380 Tb336 2.465 . S
O380 C400 1.264 . S
O381 Tb336 2.387 . S
O381 C392 1.264 . S
O382 Tb347 2.349 . S
O382 C392 1.243 . S
O383 Tb336 2.428 . S
O383 C400 1.256 . S
O384 Tb336 2.308 . S
O384 C399 1.266 . S
O385 Tb347 2.393 . S
O385 C399 1.248 . S
O386 Tb347 2.465 . S
O386 C411 1.264 . S
O387 Tb347 2.387 . S
O387 C403 1.264 . S
O388 Tb336 2.349 . S
O388 C403 1.243 . S
O389 Tb347 2.428 . S
O389 C411 1.256 . S
O390 Tb347 2.308 . S
O390 C410 1.266 . S
O391 Tb336 2.393 . S
O391 C410 1.248 . S
C392 O381 1.264 . S
C392 O382 1.243 . S
C393 C396 1.399 . S
C393 C398 1.383 . S
C393 C400 1.496 . S
C394 C395 1.399 . S
C394 C398 1.389 . S
C395 C394 1.399 . S
C395 C397 1.380 . S
C395 H412 0.929 . S
C396 C393 1.399 . S
C396 C397 1.392 . S
C396 H413 0.929 . S
C397 C395 1.380 . S
C397 C396 1.392 . S
C397 H414 0.929 . S
C398 C393 1.383 . S
C398 C394 1.389 . S
C398 H415 0.931 . S
C399 O384 1.266 . S
C399 O385 1.248 . S
C400 Tb336 2.802 . S
C400 O380 1.264 . S
C400 O383 1.256 . S
C400 C393 1.496 . S
C401 C368 1.448 . S
C401 H378 0.930 . S
C401 C402 1.328 . S
C402 C373 1.427 . S
C402 H379 0.929 . S
C402 C401 1.328 . S
C403 O387 1.264 . S
C403 O388 1.243 . S
C404 C407 1.399 . S
C404 C408 1.383 . S
C404 C411 1.496 . S
C405 C406 1.399 . S
C405 C408 1.389 . S
C406 C405 1.399 . S
C406 C409 1.380 . S
C406 H416 0.929 . S
C407 C404 1.399 . S
C407 C409 1.392 . S
C407 H417 0.929 . S
C408 C404 1.383 . S
C408 C405 1.389 . S
C408 H418 0.931 . S
C409 C406 1.380 . S
C409 C407 1.392 . S
C409 H419 0.929 . S
C410 O390 1.266 . S
C410 O391 1.248 . S
C411 Tb347 2.802 . S
C411 O386 1.264 . S
C411 O389 1.256 . S
C411 C404 1.496 . S
H412 C395 0.929 . S
H413 C396 0.929 . S
H414 C397 0.929 . S
H415 C398 0.931 . S
H416 C406 0.929 . S
H417 C407 0.929 . S
H418 C408 0.931 . S
H419 C409 0.929 . S
Tb420 N449 2.617 . S
Tb420 N455 2.572 . S
Tb420 O464 2.465 . S
Tb420 O465 2.387 1_545 S
Tb420 O467 2.428 . S
Tb420 O468 2.308 . S
Tb420 O472 2.349 . S
Tb420 O475 2.393 . S
Tb420 C484 2.802 . S
C421 N422 1.379 . S
C421 C424 1.416 . S
C421 C428 1.424 . S
N422 C421 1.379 . S
N422 C425 1.334 . S
N422 Tb431 2.617 1_545 S
C423 C425 1.390 . S
C423 C426 1.339 . S
C423 H443 0.930 . S
C424 C421 1.416 . S
C424 C426 1.416 . S
C424 C430 1.448 . S
C425 N422 1.334 . S
C425 C423 1.390 . S
C425 H436 0.930 . S
C426 C423 1.339 . S
C426 C424 1.416 . S
C426 H447 0.930 . S
C427 C428 1.413 . S
C427 C429 1.427 . S
C427 C433 1.416 . S
C428 C421 1.424 . S
C428 C427 1.413 . S
C428 N432 1.361 . S
C429 C427 1.427 . S
C429 C430 1.328 . S
C429 H444 0.929 . S
C430 C424 1.448 . S
C430 C429 1.328 . S
C430 H445 0.930 . S
Tb431 N422 2.617 1_565 S
Tb431 N432 2.572 1_565 S
Tb431 O466 2.349 . S
Tb431 O469 2.393 1_565 S
Tb431 O470 2.465 . S
Tb431 O471 2.387 1_565 S
Tb431 O473 2.428 . S
Tb431 O474 2.308 1_565 S
Tb431 C495 2.802 . S
N432 C428 1.361 . S
N432 Tb431 2.572 1_545 S
N432 C434 1.340 . S
C433 C427 1.416 . S
C433 C435 1.332 . S
C433 H441 0.931 . S
C434 N432 1.340 . S
C434 C435 1.407 . S
C434 H440 0.930 1_545 S
C435 C433 1.332 . S
C435 C434 1.407 . S
C435 H437 0.929 . S
H436 C425 0.930 . S
H437 C435 0.929 . S
H438 C453 0.930 . S
H439 C460 0.929 . S
H440 C434 0.930 1_565 S
H441 C433 0.931 . S
H442 C456 0.930 . S
H443 C423 0.930 . S
H444 C429 0.929 . S
H445 C430 0.930 . S
H446 C451 0.930 . S
H447 C426 0.930 . S
H448 C459 0.931 1_565 S
N449 Tb420 2.617 . S
N449 C450 1.379 . S
N449 C453 1.334 . S
C450 N449 1.379 . S
C450 C452 1.416 1_545 S
C450 C458 1.424 . S
C451 H446 0.930 . S
C451 C453 1.390 . S
C451 C454 1.339 1_545 S
C452 C450 1.416 1_565 S
C452 C454 1.416 . S
C452 C485 1.448 . S
C453 H438 0.930 . S
C453 N449 1.334 . S
C453 C451 1.390 . S
C454 C451 1.339 1_565 S
C454 C452 1.416 . S
C454 H461 0.930 . S
N455 Tb420 2.572 . S
N455 C456 1.340 . S
N455 C458 1.361 . S
C456 H442 0.930 . S
C456 N455 1.340 . S
C456 C460 1.407 . S
C457 C458 1.419 . S
C457 C459 1.415 . S
C457 C486 1.422 1_545 S
C458 C450 1.424 . S
C458 N455 1.361 . S
C458 C457 1.419 . S
C459 H448 0.931 1_545 S
C459 C457 1.415 . S
C459 C460 1.332 . S
C460 H439 0.929 . S
C460 C456 1.407 . S
C460 C459 1.332 . S
H461 C454 0.930 . S
H462 C485 0.930 . S
H463 C486 0.929 . S
O464 Tb420 2.465 . S
O464 C484 1.264 . S
O465 Tb420 2.387 1_565 S
O465 C476 1.264 . S
O466 Tb431 2.349 . S
O466 C476 1.243 . S
O467 Tb420 2.428 . S
O467 C484 1.256 . S
O468 Tb420 2.308 . S
O468 C483 1.266 . S
O469 Tb431 2.393 1_545 S
O469 C483 1.248 . S
O470 Tb431 2.465 . S
O470 C495 1.264 . S
O471 Tb431 2.387 1_545 S
O471 C487 1.264 . S
O472 Tb420 2.349 . S
O472 C487 1.243 . S
O473 Tb431 2.428 . S
O473 C495 1.256 . S
O474 Tb431 2.308 1_545 S
O474 C494 1.266 . S
O475 Tb420 2.393 . S
O475 C494 1.248 . S
C476 O465 1.264 . S
C476 O466 1.243 . S
C477 C480 1.399 . S
C477 C482 1.383 . S
C477 C484 1.496 . S
C478 C479 1.399 . S
C478 C482 1.389 . S
C479 C478 1.399 . S
C479 C481 1.380 . S
C479 H496 0.929 . S
C480 C477 1.399 . S
C480 C481 1.392 . S
C480 H497 0.929 . S
C481 C479 1.380 . S
C481 C480 1.392 . S
C481 H498 0.929 . S
C482 C477 1.383 . S
C482 C478 1.389 . S
C482 H499 0.931 . S
C483 O468 1.266 . S
C483 O469 1.248 . S
C484 Tb420 2.802 . S
C484 O464 1.264 . S
C484 O467 1.256 . S
C484 C477 1.496 . S
C485 C452 1.448 . S
C485 H462 0.930 . S
C485 C486 1.328 . S
C486 C457 1.422 1_565 S
C486 H463 0.929 . S
C486 C485 1.328 . S
C487 O471 1.264 . S
C487 O472 1.243 . S
C488 C491 1.399 . S
C488 C492 1.383 . S
C488 C495 1.496 . S
C489 C490 1.399 . S
C489 C492 1.389 . S
C490 C489 1.399 . S
C490 C493 1.380 . S
C490 H500 0.929 . S
C491 C488 1.399 . S
C491 C493 1.392 . S
C491 H501 0.929 . S
C492 C488 1.383 . S
C492 C489 1.389 . S
C492 H502 0.931 . S
C493 C490 1.380 . S
C493 C491 1.392 . S
C493 H503 0.929 . S
C494 O474 1.266 . S
C494 O475 1.248 . S
C495 Tb431 2.802 . S
C495 O470 1.264 . S
C495 O473 1.256 . S
C495 C488 1.496 . S
H496 C479 0.929 . S
H497 C480 0.929 . S
H498 C481 0.929 . S
H499 C482 0.931 . S
H500 C490 0.929 . S
H501 C491 0.929 . S
H502 C492 0.931 . S
H503 C493 0.929 . S
Tb504 N533 2.617 1_565 S
Tb504 N539 2.572 1_565 S
Tb504 O548 2.465 . S
Tb504 O549 2.387 1_565 S
Tb504 O551 2.428 . S
Tb504 O552 2.308 1_565 S
Tb504 O556 2.349 . S
Tb504 O559 2.393 1_565 S
Tb504 C568 2.802 . S
C505 N506 1.379 . S
C505 C508 1.416 1_545 S
C505 C512 1.424 . S
N506 C505 1.379 . S
N506 C509 1.334 . S
N506 Tb515 2.617 . S
C507 C509 1.390 . S
C507 C510 1.339 1_545 S
C507 H527 0.930 . S
C508 C505 1.416 1_565 S
C508 C510 1.416 . S
C508 C514 1.448 . S
C509 N506 1.334 . S
C509 C507 1.390 . S
C509 H520 0.930 . S
C510 C507 1.339 1_565 S
C510 C508 1.416 . S
C510 H531 0.930 . S
C511 C512 1.411 . S
C511 C513 1.426 1_545 S
C511 C517 1.418 . S
C512 C505 1.424 . S
C512 C511 1.411 . S
C512 N516 1.361 . S
C513 C511 1.426 1_565 S
C513 C514 1.328 . S
C513 H528 0.929 . S
C514 C508 1.448 . S
C514 C513 1.328 . S
C514 H529 0.930 . S
Tb515 N506 2.617 . S
Tb515 N516 2.572 . S
Tb515 O550 2.349 . S
Tb515 O553 2.393 . S
Tb515 O554 2.465 . S
Tb515 O555 2.387 1_545 S
Tb515 O557 2.428 . S
Tb515 O558 2.308 . S
Tb515 C579 2.802 . S
N516 C512 1.361 . S
N516 Tb515 2.572 . S
N516 C518 1.340 . S
C517 C511 1.418 . S
C517 C519 1.332 . S
C517 H525 0.931 1_545 S
C518 N516 1.340 . S
C518 C519 1.407 . S
C518 H524 0.930 . S
C519 C517 1.332 . S
C519 C518 1.407 . S
C519 H521 0.929 . S
H520 C509 0.930 . S
H521 C519 0.929 . S
H522 C537 0.930 . S
H523 C544 0.929 . S
H524 C518 0.930 . S
H525 C517 0.931 1_565 S
H526 C540 0.930 1_565 S
H527 C507 0.930 . S
H528 C513 0.929 . S
H529 C514 0.930 . S
H530 C535 0.930 1_554 S
H531 C510 0.930 . S
H532 C543 0.931 . S
N533 Tb504 2.617 1_545 S
N533 C534 1.379 . S
N533 C537 1.334 . S
C534 N533 1.379 . S
C534 C536 1.416 . S
C534 C542 1.424 . S
C535 H530 0.930 1_556 S
C535 C537 1.390 . S
C535 C538 1.339 . S
C536 C534 1.416 . S
C536 C538 1.416 . S
C536 C569 1.448 . S
C537 H522 0.930 . S
C537 N533 1.334 . S
C537 C535 1.390 . S
C538 C535 1.339 . S
C538 C536 1.416 . S
C538 H545 0.930 1_556 S
N539 Tb504 2.572 1_545 S
N539 C540 1.340 . S
N539 C542 1.361 . S
C540 H526 0.930 1_545 S
C540 N539 1.340 . S
C540 C544 1.407 . S
C541 C542 1.413 . S
C541 C543 1.416 . S
C541 C570 1.427 . S
C542 C534 1.424 . S
C542 N539 1.361 . S
C542 C541 1.413 . S
C543 H532 0.931 . S
C543 C541 1.416 . S
C543 C544 1.332 . S
C544 H523 0.929 . S
C544 C540 1.407 . S
C544 C543 1.332 . S
H545 C538 0.930 1_554 S
H546 C569 0.930 . S
H547 C570 0.929 . S
O548 Tb504 2.465 . S
O548 C568 1.264 . S
O549 Tb504 2.387 1_545 S
O549 C560 1.264 . S
O550 Tb515 2.349 . S
O550 C560 1.243 . S
O551 Tb504 2.428 . S
O551 C568 1.256 . S
O552 Tb504 2.308 1_545 S
O552 C567 1.266 . S
O553 Tb515 2.393 . S
O553 C567 1.248 . S
O554 Tb515 2.465 . S
O554 C579 1.264 . S
O555 Tb515 2.387 1_565 S
O555 C571 1.264 . S
O556 Tb504 2.349 . S
O556 C571 1.243 . S
O557 Tb515 2.428 . S
O557 C579 1.256 . S
O558 Tb515 2.308 . S
O558 C578 1.266 . S
O559 Tb504 2.393 1_545 S
O559 C578 1.248 . S
C560 O549 1.264 . S
C560 O550 1.243 . S
C561 C564 1.399 . S
C561 C566 1.383 . S
C561 C568 1.496 . S
C562 C563 1.399 . S
C562 C566 1.389 . S
C563 C562 1.399 . S
C563 C565 1.380 . S
C563 H580 0.929 . S
C564 C561 1.399 . S
C564 C565 1.392 . S
C564 H581 0.929 . S
C565 C563 1.380 . S
C565 C564 1.392 . S
C565 H582 0.929 . S
C566 C561 1.383 . S
C566 C562 1.389 . S
C566 H583 0.931 . S
C567 O552 1.266 . S
C567 O553 1.248 . S
C568 Tb504 2.802 . S
C568 O548 1.264 . S
C568 O551 1.256 . S
C568 C561 1.496 . S
C569 C536 1.448 . S
C569 H546 0.930 . S
C569 C570 1.328 . S
C570 C541 1.427 . S
C570 H547 0.929 . S
C570 C569 1.328 . S
C571 O555 1.264 . S
C571 O556 1.243 . S
C572 C575 1.399 . S
C572 C576 1.383 . S
C572 C579 1.496 . S
C573 C574 1.399 . S
C573 C576 1.389 . S
C574 C573 1.399 . S
C574 C577 1.380 . S
C574 H584 0.929 . S
C575 C572 1.399 . S
C575 C577 1.392 . S
C575 H585 0.929 . S
C576 C572 1.383 . S
C576 C573 1.389 . S
C576 H586 0.931 . S
C577 C574 1.380 . S
C577 C575 1.392 . S
C577 H587 0.929 . S
C578 O558 1.266 . S
C578 O559 1.248 . S
C579 Tb515 2.802 . S
C579 O554 1.264 . S
C579 O557 1.256 . S
C579 C572 1.496 . S
H580 C563 0.929 . S
H581 C564 0.929 . S
H582 C565 0.929 . S
H583 C566 0.931 . S
H584 C574 0.929 . S
H585 C575 0.929 . S
H586 C576 0.931 . S
H587 C577 0.929 . S
Tb588 N617 2.617 . S
Tb588 N623 2.572 . S
Tb588 O632 2.465 . S
Tb588 O633 2.387 1_455 S
Tb588 O635 2.428 . S
Tb588 O636 2.308 . S
Tb588 O640 2.349 . S
Tb588 O643 2.393 . S
Tb588 C652 2.802 . S
C589 N590 1.379 . S
C589 C592 1.416 . S
C589 C596 1.424 . S
N590 C589 1.379 . S
N590 C593 1.334 . S
N590 Tb599 2.617 . S
C591 C593 1.390 . S
C591 C594 1.339 . S
C591 H611 0.930 . S
C592 C589 1.416 . S
C592 C594 1.416 . S
C592 C598 1.448 . S
C593 N590 1.334 . S
C593 C591 1.390 . S
C593 H604 0.930 . S
C594 C591 1.339 . S
C594 C592 1.416 . S
C594 H615 0.930 . S
C595 C596 1.413 . S
C595 C597 1.427 . S
C595 C601 1.416 . S
C596 C589 1.424 . S
C596 C595 1.413 . S
C596 N600 1.361 . S
C597 C595 1.427 . S
C597 C598 1.328 . S
C597 H612 0.929 . S
C598 C592 1.448 . S
C598 C597 1.328 . S
C598 H613 0.930 . S
Tb599 N590 2.617 . S
Tb599 N600 2.572 . S
Tb599 O634 2.349 1_455 S
Tb599 O637 2.393 . S
Tb599 O638 2.465 1_455 S
Tb599 O639 2.387 . S
Tb599 O641 2.428 1_455 S
Tb599 O642 2.308 . S
Tb599 C663 2.802 1_455 S
N600 C596 1.361 . S
N600 Tb599 2.572 . S
N600 C602 1.340 . S
C601 C595 1.416 . S
C601 C603 1.332 . S
C601 H609 0.931 . S
C602 N600 1.340 . S
C602 C603 1.407 . S
C602 H608 0.930 . S
C603 C601 1.332 . S
C603 C602 1.407 . S
C603 H605 0.929 . S
H604 C593 0.930 . S
H605 C603 0.929 . S
H606 C621 0.930 . S
H607 C628 0.929 . S
H608 C602 0.930 . S
H609 C601 0.931 . S
H610 C624 0.930 . S
H611 C591 0.930 . S
H612 C597 0.929 . S
H613 C598 0.930 . S
H614 C619 0.930 1_554 S
H615 C594 0.930 . S
H616 C627 0.931 . S
N617 Tb588 2.617 . S
N617 C618 1.379 . S
N617 C621 1.334 . S
C618 N617 1.379 . S
C618 C620 1.416 . S
C618 C626 1.424 . S
C619 H614 0.930 1_556 S
C619 C621 1.390 . S
C619 C622 1.339 . S
C620 C618 1.416 . S
C620 C622 1.416 . S
C620 C653 1.448 . S
C621 H606 0.930 . S
C621 N617 1.334 . S
C621 C619 1.390 . S
C622 C619 1.339 . S
C622 C620 1.416 . S
C622 H629 0.930 1_556 S
N623 Tb588 2.572 . S
N623 C624 1.340 . S
N623 C626 1.361 . S
C624 H610 0.930 . S
C624 N623 1.340 . S
C624 C628 1.407 . S
C625 C626 1.413 . S
C625 C627 1.416 . S
C625 C654 1.427 . S
C626 C618 1.424 . S
C626 N623 1.361 . S
C626 C625 1.413 . S
C627 H616 0.931 . S
C627 C625 1.416 . S
C627 C628 1.332 . S
C628 H607 0.929 . S
C628 C624 1.407 . S
C628 C627 1.332 . S
H629 C622 0.930 1_554 S
H630 C653 0.930 1_655 S
H631 C654 0.929 1_655 S
O632 Tb588 2.465 . S
O632 C652 1.264 . S
O633 Tb588 2.387 1_655 S
O633 C644 1.264 . S
O634 Tb599 2.349 1_655 S
O634 C644 1.243 . S
O635 Tb588 2.428 . S
O635 C652 1.256 . S
O636 Tb588 2.308 . S
O636 C651 1.266 . S
O637 Tb599 2.393 . S
O637 C651 1.248 . S
O638 Tb599 2.465 1_655 S
O638 C663 1.264 . S
O639 Tb599 2.387 . S
O639 C655 1.264 . S
O640 Tb588 2.349 . S
O640 C655 1.243 . S
O641 Tb599 2.428 1_655 S
O641 C663 1.256 . S
O642 Tb599 2.308 . S
O642 C662 1.266 . S
O643 Tb588 2.393 . S
O643 C662 1.248 . S
C644 O633 1.264 . S
C644 O634 1.243 . S
C645 C648 1.399 . S
C645 C650 1.383 . S
C645 C652 1.496 . S
C646 C647 1.399 . S
C646 C650 1.389 . S
C647 C646 1.399 . S
C647 C649 1.380 . S
C647 H664 0.929 . S
C648 C645 1.399 . S
C648 C649 1.392 . S
C648 H665 0.929 . S
C649 C647 1.380 . S
C649 C648 1.392 . S
C649 H666 0.929 . S
C650 C645 1.383 . S
C650 C646 1.389 . S
C650 H667 0.931 . S
C651 O636 1.266 . S
C651 O637 1.248 . S
C652 Tb588 2.802 . S
C652 O632 1.264 . S
C652 O635 1.256 . S
C652 C645 1.496 . S
C653 C620 1.448 . S
C653 H630 0.930 1_455 S
C653 C654 1.328 . S
C654 C625 1.427 . S
C654 H631 0.929 1_455 S
C654 C653 1.328 . S
C655 O639 1.264 . S
C655 O640 1.243 . S
C656 C659 1.399 . S
C656 C660 1.383 . S
C656 C663 1.496 . S
C657 C658 1.399 . S
C657 C660 1.389 . S
C658 C657 1.399 . S
C658 C661 1.380 . S
C658 H668 0.929 . S
C659 C656 1.399 . S
C659 C661 1.392 . S
C659 H669 0.929 . S
C660 C656 1.383 . S
C660 C657 1.389 . S
C660 H670 0.931 . S
C661 C658 1.380 . S
C661 C659 1.392 . S
C661 H671 0.929 . S
C662 O642 1.266 . S
C662 O643 1.248 . S
C663 Tb599 2.802 1_655 S
C663 O638 1.264 . S
C663 O641 1.256 . S
C663 C656 1.496 . S
H664 C647 0.929 . S
H665 C648 0.929 . S
H666 C649 0.929 . S
H667 C650 0.931 . S
H668 C658 0.929 . S
H669 C659 0.929 . S
H670 C660 0.931 . S
H671 C661 0.929 . S
Tb672 N701 2.617 . S
Tb672 N707 2.572 . S
Tb672 O716 2.465 . S
Tb672 O717 2.387 . S
Tb672 O719 2.428 . S
Tb672 O720 2.308 . S
Tb672 O724 2.349 . S
Tb672 O727 2.393 . S
Tb672 C736 2.802 . S
C673 N674 1.379 . S
C673 C676 1.416 . S
C673 C680 1.424 . S
N674 C673 1.379 . S
N674 C677 1.334 . S
N674 Tb683 2.617 . S
C675 C677 1.390 . S
C675 C678 1.339 . S
C675 H695 0.930 . S
C676 C673 1.416 . S
C676 C678 1.416 . S
C676 C682 1.448 . S
C677 N674 1.334 . S
C677 C675 1.390 . S
C677 H688 0.930 . S
C678 C675 1.339 . S
C678 C676 1.416 . S
C678 H699 0.930 . S
C679 C680 1.413 . S
C679 C681 1.427 . S
C679 C685 1.416 . S
C680 C673 1.424 . S
C680 C679 1.413 . S
C680 N684 1.361 . S
C681 C679 1.427 . S
C681 C682 1.328 . S
C681 H696 0.929 . S
C682 C676 1.448 . S
C682 C681 1.328 . S
C682 H697 0.930 . S
Tb683 N674 2.617 . S
Tb683 N684 2.572 . S
Tb683 O718 2.349 . S
Tb683 O721 2.393 . S
Tb683 O722 2.465 . S
Tb683 O723 2.387 . S
Tb683 O725 2.428 . S
Tb683 O726 2.308 . S
Tb683 C747 2.802 . S
N684 C680 1.361 . S
N684 Tb683 2.572 . S
N684 C686 1.340 . S
C685 C679 1.416 . S
C685 C687 1.332 . S
C685 H693 0.931 . S
C686 N684 1.340 . S
C686 C687 1.407 . S
C686 H692 0.930 . S
C687 C685 1.332 . S
C687 C686 1.407 . S
C687 H689 0.929 . S
H688 C677 0.930 . S
H689 C687 0.929 . S
H690 C705 0.930 . S
H691 C712 0.929 . S
H692 C686 0.930 . S
H693 C685 0.931 . S
H694 C708 0.930 . S
H695 C675 0.930 . S
H696 C681 0.929 . S
H697 C682 0.930 . S
H698 C703 0.930 1_554 S
H699 C678 0.930 . S
H700 C711 0.931 . S
N701 Tb672 2.617 . S
N701 C702 1.379 . S
N701 C705 1.334 . S
C702 N701 1.379 . S
C702 C704 1.416 . S
C702 C710 1.424 . S
C703 H698 0.930 1_556 S
C703 C705 1.390 . S
C703 C706 1.339 . S
C704 C702 1.416 . S
C704 C706 1.416 . S
C704 C737 1.448 . S
C705 H690 0.930 . S
C705 N701 1.334 . S
C705 C703 1.390 . S
C706 C703 1.339 . S
C706 C704 1.416 . S
C706 H713 0.930 1_556 S
N707 Tb672 2.572 . S
N707 C708 1.340 . S
N707 C710 1.361 . S
C708 H694 0.930 . S
C708 N707 1.340 . S
C708 C712 1.407 . S
C709 C710 1.413 . S
C709 C711 1.416 . S
C709 C738 1.427 . S
C710 C702 1.424 . S
C710 N707 1.361 . S
C710 C709 1.413 . S
C711 H700 0.931 . S
C711 C709 1.416 . S
C711 C712 1.332 . S
C712 H691 0.929 . S
C712 C708 1.407 . S
C712 C711 1.332 . S
H713 C706 0.930 1_554 S
H714 C737 0.930 . S
H715 C738 0.929 . S
O716 Tb672 2.465 . S
O716 C736 1.264 . S
O717 Tb672 2.387 . S
O717 C728 1.264 . S
O718 Tb683 2.349 . S
O718 C728 1.243 . S
O719 Tb672 2.428 . S
O719 C736 1.256 . S
O720 Tb672 2.308 . S
O720 C735 1.266 . S
O721 Tb683 2.393 . S
O721 C735 1.248 . S
O722 Tb683 2.465 . S
O722 C747 1.264 . S
O723 Tb683 2.387 . S
O723 C739 1.264 . S
O724 Tb672 2.349 . S
O724 C739 1.243 . S
O725 Tb683 2.428 . S
O725 C747 1.256 . S
O726 Tb683 2.308 . S
O726 C746 1.266 . S
O727 Tb672 2.393 . S
O727 C746 1.248 . S
C728 O717 1.264 . S
C728 O718 1.243 . S
C729 C732 1.399 . S
C729 C734 1.383 . S
C729 C736 1.496 . S
C730 C731 1.399 . S
C730 C734 1.389 . S
C731 C730 1.399 . S
C731 C733 1.380 . S
C731 H748 0.929 . S
C732 C729 1.399 . S
C732 C733 1.392 . S
C732 H749 0.929 . S
C733 C731 1.380 . S
C733 C732 1.392 . S
C733 H750 0.929 . S
C734 C729 1.383 . S
C734 C730 1.389 . S
C734 H751 0.931 . S
C735 O720 1.266 . S
C735 O721 1.248 . S
C736 Tb672 2.802 . S
C736 O716 1.264 . S
C736 O719 1.256 . S
C736 C729 1.496 . S
C737 C704 1.448 . S
C737 H714 0.930 . S
C737 C738 1.328 . S
C738 C709 1.427 . S
C738 H715 0.929 . S
C738 C737 1.328 . S
C739 O723 1.264 . S
C739 O724 1.243 . S
C740 C743 1.399 . S
C740 C744 1.383 . S
C740 C747 1.496 . S
C741 C742 1.399 . S
C741 C744 1.389 . S
C742 C741 1.399 . S
C742 C745 1.380 . S
C742 H752 0.929 . S
C743 C740 1.399 . S
C743 C745 1.392 . S
C743 H753 0.929 . S
C744 C740 1.383 . S
C744 C741 1.389 . S
C744 H754 0.931 . S
C745 C742 1.380 . S
C745 C743 1.392 . S
C745 H755 0.929 . S
C746 O726 1.266 . S
C746 O727 1.248 . S
C747 Tb683 2.802 . S
C747 O722 1.264 . S
C747 O725 1.256 . S
C747 C740 1.496 . S
H748 C731 0.929 . S
H749 C732 0.929 . S
H750 C733 0.929 . S
H751 C734 0.931 . S
H752 C742 0.929 . S
H753 C743 0.929 . S
H754 C744 0.931 . S
H755 C745 0.929 . S
Tb756 N785 2.617 1_655 S
Tb756 N791 2.572 1_655 S
Tb756 O800 2.465 . S
Tb756 O801 2.387 1_655 S
Tb756 O803 2.428 . S
Tb756 O804 2.308 1_655 S
Tb756 O808 2.349 . S
Tb756 O811 2.393 1_655 S
Tb756 C820 2.802 . S
C757 N758 1.379 . S
C757 C760 1.416 1_455 S
C757 C764 1.424 . S
N758 C757 1.379 . S
N758 C761 1.334 . S
N758 Tb767 2.617 . S
C759 C761 1.390 . S
C759 C762 1.339 1_455 S
C759 H779 0.930 . S
C760 C757 1.416 1_655 S
C760 C762 1.416 . S
C760 C766 1.448 . S
C761 N758 1.334 . S
C761 C759 1.390 . S
C761 H772 0.930 . S
C762 C759 1.339 1_655 S
C762 C760 1.416 . S
C762 H783 0.930 . S
C763 C764 1.411 . S
C763 C765 1.426 1_455 S
C763 C769 1.418 . S
C764 C757 1.424 . S
C764 C763 1.411 . S
C764 N768 1.361 . S
C765 C763 1.426 1_655 S
C765 C766 1.328 . S
C765 H780 0.929 . S
C766 C760 1.448 . S
C766 C765 1.328 . S
C766 H781 0.930 . S
Tb767 N758 2.617 . S
Tb767 N768 2.572 . S
Tb767 O802 2.349 . S
Tb767 O805 2.393 . S
Tb767 O806 2.465 . S
Tb767 O807 2.387 1_455 S
Tb767 O809 2.428 . S
Tb767 O810 2.308 . S
Tb767 C831 2.802 . S
N768 C764 1.361 . S
N768 Tb767 2.572 . S
N768 C770 1.340 . S
C769 C763 1.418 . S
C769 C771 1.332 . S
C769 H777 0.931 1_455 S
C770 N768 1.340 . S
C770 C771 1.407 . S
C770 H776 0.930 . S
C771 C769 1.332 . S
C771 C770 1.407 . S
C771 H773 0.929 . S
H772 C761 0.930 . S
H773 C771 0.929 . S
H774 C789 0.930 . S
H775 C796 0.929 . S
H776 C770 0.930 . S
H777 C769 0.931 1_655 S
H778 C792 0.930 1_655 S
H779 C759 0.930 . S
H780 C765 0.929 . S
H781 C766 0.930 . S
H782 C787 0.930 . S
H783 C762 0.930 . S
H784 C795 0.931 . S
N785 Tb756 2.617 1_455 S
N785 C786 1.379 . S
N785 C789 1.334 . S
C786 N785 1.379 . S
C786 C788 1.416 . S
C786 C794 1.424 . S
C787 H782 0.930 . S
C787 C789 1.390 . S
C787 C790 1.339 . S
C788 C786 1.416 . S
C788 C790 1.416 . S
C788 C821 1.448 . S
C789 H774 0.930 . S
C789 N785 1.334 . S
C789 C787 1.390 . S
C790 C787 1.339 . S
C790 C788 1.416 . S
C790 H797 0.930 . S
N791 Tb756 2.572 1_455 S
N791 C792 1.340 . S
N791 C794 1.361 . S
C792 H778 0.930 1_455 S
C792 N791 1.340 . S
C792 C796 1.407 . S
C793 C794 1.413 . S
C793 C795 1.416 . S
C793 C822 1.427 . S
C794 C786 1.424 . S
C794 N791 1.361 . S
C794 C793 1.413 . S
C795 H784 0.931 . S
C795 C793 1.416 . S
C795 C796 1.332 . S
C796 H775 0.929 . S
C796 C792 1.407 . S
C796 C795 1.332 . S
H797 C790 0.930 . S
H798 C821 0.930 . S
H799 C822 0.929 . S
O800 Tb756 2.465 . S
O800 C820 1.264 . S
O801 Tb756 2.387 1_455 S
O801 C812 1.264 . S
O802 Tb767 2.349 . S
O802 C812 1.243 . S
O803 Tb756 2.428 . S
O803 C820 1.256 . S
O804 Tb756 2.308 1_455 S
O804 C819 1.266 . S
O805 Tb767 2.393 . S
O805 C819 1.248 . S
O806 Tb767 2.465 . S
O806 C831 1.264 . S
O807 Tb767 2.387 1_655 S
O807 C823 1.264 . S
O808 Tb756 2.349 . S
O808 C823 1.243 . S
O809 Tb767 2.428 . S
O809 C831 1.256 . S
O810 Tb767 2.308 . S
O810 C830 1.266 . S
O811 Tb756 2.393 1_455 S
O811 C830 1.248 . S
C812 O801 1.264 . S
C812 O802 1.243 . S
C813 C816 1.399 . S
C813 C818 1.383 . S
C813 C820 1.496 . S
C814 C815 1.399 . S
C814 C818 1.389 . S
C815 C814 1.399 . S
C815 C817 1.380 . S
C815 H832 0.929 . S
C816 C813 1.399 . S
C816 C817 1.392 . S
C816 H833 0.929 . S
C817 C815 1.380 . S
C817 C816 1.392 . S
C817 H834 0.929 . S
C818 C813 1.383 . S
C818 C814 1.389 . S
C818 H835 0.931 . S
C819 O804 1.266 . S
C819 O805 1.248 . S
C820 Tb756 2.802 . S
C820 O800 1.264 . S
C820 O803 1.256 . S
C820 C813 1.496 . S
C821 C788 1.448 . S
C821 H798 0.930 . S
C821 C822 1.328 . S
C822 C793 1.427 . S
C822 H799 0.929 . S
C822 C821 1.328 . S
C823 O807 1.264 . S
C823 O808 1.243 . S
C824 C827 1.399 . S
C824 C828 1.383 . S
C824 C831 1.496 . S
C825 C826 1.399 . S
C825 C828 1.389 . S
C826 C825 1.399 . S
C826 C829 1.380 . S
C826 H836 0.929 . S
C827 C824 1.399 . S
C827 C829 1.392 . S
C827 H837 0.929 . S
C828 C824 1.383 . S
C828 C825 1.389 . S
C828 H838 0.931 . S
C829 C826 1.380 . S
C829 C827 1.392 . S
C829 H839 0.929 . S
C830 O810 1.266 . S
C830 O811 1.248 . S
C831 Tb767 2.802 . S
C831 O806 1.264 . S
C831 O809 1.256 . S
C831 C824 1.496 . S
H832 C815 0.929 . S
H833 C816 0.929 . S
H834 C817 0.929 . S
H835 C818 0.931 . S
H836 C826 0.929 . S
H837 C827 0.929 . S
H838 C828 0.931 . S
H839 C829 0.929 . S
Tb840 N869 2.617 . S
Tb840 N875 2.572 . S
Tb840 O884 2.465 . S
Tb840 O885 2.387 . S
Tb840 O887 2.428 . S
Tb840 O888 2.308 . S
Tb840 O892 2.349 . S
Tb840 O895 2.393 . S
Tb840 C904 2.802 . S
C841 N842 1.379 . S
C841 C844 1.416 . S
C841 C848 1.424 . S
N842 C841 1.379 . S
N842 C845 1.334 . S
N842 Tb851 2.617 . S
C843 C845 1.390 . S
C843 C846 1.339 . S
C843 H863 0.930 . S
C844 C841 1.416 . S
C844 C846 1.416 . S
C844 C850 1.448 . S
C845 N842 1.334 . S
C845 C843 1.390 . S
C845 H856 0.930 . S
C846 C843 1.339 . S
C846 C844 1.416 . S
C846 H867 0.930 . S
C847 C848 1.413 . S
C847 C849 1.427 . S
C847 C853 1.416 . S
C848 C841 1.424 . S
C848 C847 1.413 . S
C848 N852 1.361 . S
C849 C847 1.427 . S
C849 C850 1.328 . S
C849 H864 0.929 . S
C850 C844 1.448 . S
C850 C849 1.328 . S
C850 H865 0.930 . S
Tb851 N842 2.617 . S
Tb851 N852 2.572 . S
Tb851 O886 2.349 . S
Tb851 O889 2.393 . S
Tb851 O890 2.465 . S
Tb851 O891 2.387 . S
Tb851 O893 2.428 . S
Tb851 O894 2.308 . S
Tb851 C915 2.802 . S
N852 C848 1.361 . S
N852 Tb851 2.572 . S
N852 C854 1.340 . S
C853 C847 1.416 . S
C853 C855 1.332 . S
C853 H861 0.931 . S
C854 N852 1.340 . S
C854 C855 1.407 . S
C854 H860 0.930 . S
C855 C853 1.332 . S
C855 C854 1.407 . S
C855 H857 0.929 . S
H856 C845 0.930 . S
H857 C855 0.929 . S
H858 C873 0.930 . S
H859 C880 0.929 . S
H860 C854 0.930 . S
H861 C853 0.931 . S
H862 C876 0.930 . S
H863 C843 0.930 . S
H864 C849 0.929 . S
H865 C850 0.930 . S
H866 C871 0.930 . S
H867 C846 0.930 . S
H868 C879 0.931 . S
N869 Tb840 2.617 . S
N869 C870 1.379 . S
N869 C873 1.334 . S
C870 N869 1.379 . S
C870 C872 1.416 . S
C870 C878 1.424 . S
C871 H866 0.930 . S
C871 C873 1.390 . S
C871 C874 1.339 . S
C872 C870 1.416 . S
C872 C874 1.416 . S
C872 C905 1.448 . S
C873 H858 0.930 . S
C873 N869 1.334 . S
C873 C871 1.390 . S
C874 C871 1.339 . S
C874 C872 1.416 . S
C874 H881 0.930 . S
N875 Tb840 2.572 . S
N875 C876 1.340 . S
N875 C878 1.361 . S
C876 H862 0.930 . S
C876 N875 1.340 . S
C876 C880 1.407 . S
C877 C878 1.413 . S
C877 C879 1.416 . S
C877 C906 1.427 . S
C878 C870 1.424 . S
C878 N875 1.361 . S
C878 C877 1.413 . S
C879 H868 0.931 . S
C879 C877 1.416 . S
C879 C880 1.332 . S
C880 H859 0.929 . S
C880 C876 1.407 . S
C880 C879 1.332 . S
H881 C874 0.930 . S
H882 C905 0.930 . S
H883 C906 0.929 . S
O884 Tb840 2.465 . S
O884 C904 1.264 . S
O885 Tb840 2.387 . S
O885 C896 1.264 . S
O886 Tb851 2.349 . S
O886 C896 1.243 . S
O887 Tb840 2.428 . S
O887 C904 1.256 . S
O888 Tb840 2.308 . S
O888 C903 1.266 . S
O889 Tb851 2.393 . S
O889 C903 1.248 . S
O890 Tb851 2.465 . S
O890 C915 1.264 . S
O891 Tb851 2.387 . S
O891 C907 1.264 . S
O892 Tb840 2.349 . S
O892 C907 1.243 . S
O893 Tb851 2.428 . S
O893 C915 1.256 . S
O894 Tb851 2.308 . S
O894 C914 1.266 . S
O895 Tb840 2.393 . S
O895 C914 1.248 . S
C896 O885 1.264 . S
C896 O886 1.243 . S
C897 C900 1.399 . S
C897 C902 1.383 . S
C897 C904 1.496 . S
C898 C899 1.399 . S
C898 C902 1.389 . S
C899 C898 1.399 . S
C899 C901 1.380 . S
C899 H916 0.929 . S
C900 C897 1.399 . S
C900 C901 1.392 . S
C900 H917 0.929 . S
C901 C899 1.380 . S
C901 C900 1.392 . S
C901 H918 0.929 . S
C902 C897 1.383 . S
C902 C898 1.389 . S
C902 H919 0.931 . S
C903 O888 1.266 . S
C903 O889 1.248 . S
C904 Tb840 2.802 . S
C904 O884 1.264 . S
C904 O887 1.256 . S
C904 C897 1.496 . S
C905 C872 1.448 . S
C905 H882 0.930 . S
C905 C906 1.328 . S
C906 C877 1.427 . S
C906 H883 0.929 . S
C906 C905 1.328 . S
C907 O891 1.264 . S
C907 O892 1.243 . S
C908 C911 1.399 . S
C908 C912 1.383 . S
C908 C915 1.496 . S
C909 C910 1.399 . S
C909 C912 1.389 . S
C910 C909 1.399 . S
C910 C913 1.380 . S
C910 H920 0.929 . S
C911 C908 1.399 . S
C911 C913 1.392 . S
C911 H921 0.929 . S
C912 C908 1.383 . S
C912 C909 1.389 . S
C912 H922 0.931 . S
C913 C910 1.380 . S
C913 C911 1.392 . S
C913 H923 0.929 . S
C914 O894 1.266 . S
C914 O895 1.248 . S
C915 Tb851 2.802 . S
C915 O890 1.264 . S
C915 O893 1.256 . S
C915 C908 1.496 . S
H916 C899 0.929 . S
H917 C900 0.929 . S
H918 C901 0.929 . S
H919 C902 0.931 . S
H920 C910 0.929 . S
H921 C911 0.929 . S
H922 C912 0.931 . S
H923 C913 0.929 . S
Tb924 N953 2.617 . S
Tb924 N959 2.572 . S
Tb924 O968 2.465 . S
Tb924 O969 2.387 1_545 S
Tb924 O971 2.428 . S
Tb924 O972 2.308 . S
Tb924 O976 2.349 . S
Tb924 O979 2.393 . S
Tb924 C988 2.802 . S
C925 N926 1.379 . S
C925 C928 1.416 . S
C925 C932 1.424 . S
N926 C925 1.379 . S
N926 C929 1.334 . S
N926 Tb935 2.617 . S
C927 C929 1.390 . S
C927 C930 1.339 . S
C927 H947 0.930 . S
C928 C925 1.416 . S
C928 C930 1.416 . S
C928 C934 1.448 . S
C929 N926 1.334 . S
C929 C927 1.390 . S
C929 H940 0.930 . S
C930 C927 1.339 . S
C930 C928 1.416 . S
C930 H951 0.930 . S
C931 C932 1.413 . S
C931 C933 1.427 . S
C931 C937 1.416 . S
C932 C925 1.424 . S
C932 C931 1.413 . S
C932 N936 1.361 . S
C933 C931 1.427 . S
C933 C934 1.328 . S
C933 H948 0.929 . S
C934 C928 1.448 . S
C934 C933 1.328 . S
C934 H949 0.930 . S
Tb935 N926 2.617 . S
Tb935 N936 2.572 . S
Tb935 O970 2.349 1_545 S
Tb935 O973 2.393 . S
Tb935 O974 2.465 1_545 S
Tb935 O975 2.387 . S
Tb935 O977 2.428 1_545 S
Tb935 O978 2.308 . S
Tb935 C999 2.802 1_545 S
N936 C932 1.361 . S
N936 Tb935 2.572 . S
N936 C938 1.340 . S
C937 C931 1.416 . S
C937 C939 1.332 . S
C937 H945 0.931 . S
C938 N936 1.340 . S
C938 C939 1.407 . S
C938 H944 0.930 . S
C939 C937 1.332 . S
C939 C938 1.407 . S
C939 H941 0.929 . S
H940 C929 0.930 . S
H941 C939 0.929 . S
H942 C957 0.930 . S
H943 C964 0.929 . S
H944 C938 0.930 . S
H945 C937 0.931 . S
H946 C960 0.930 . S
H947 C927 0.930 . S
H948 C933 0.929 . S
H949 C934 0.930 . S
H950 C955 0.930 . S
H951 C930 0.930 . S
H952 C963 0.931 . S
N953 Tb924 2.617 . S
N953 C954 1.379 . S
N953 C957 1.334 . S
C954 N953 1.379 . S
C954 C956 1.416 . S
C954 C962 1.424 . S
C955 H950 0.930 . S
C955 C957 1.390 . S
C955 C958 1.339 . S
C956 C954 1.416 . S
C956 C958 1.416 . S
C956 C989 1.448 . S
C957 H942 0.930 . S
C957 N953 1.334 . S
C957 C955 1.390 . S
C958 C955 1.339 . S
C958 C956 1.416 . S
C958 H965 0.930 . S
N959 Tb924 2.572 . S
N959 C960 1.340 . S
N959 C962 1.361 . S
C960 H946 0.930 . S
C960 N959 1.340 . S
C960 C964 1.407 . S
C961 C962 1.413 . S
C961 C963 1.416 . S
C961 C990 1.427 . S
C962 C954 1.424 . S
C962 N959 1.361 . S
C962 C961 1.413 . S
C963 H952 0.931 . S
C963 C961 1.416 . S
C963 C964 1.332 . S
C964 H943 0.929 . S
C964 C960 1.407 . S
C964 C963 1.332 . S
H965 C958 0.930 . S
H966 C989 0.930 1_565 S
H967 C990 0.929 1_565 S
O968 Tb924 2.465 . S
O968 C988 1.264 . S
O969 Tb924 2.387 1_565 S
O969 C980 1.264 . S
O970 Tb935 2.349 1_565 S
O970 C980 1.243 . S
O971 Tb924 2.428 . S
O971 C988 1.256 . S
O972 Tb924 2.308 . S
O972 C987 1.266 . S
O973 Tb935 2.393 . S
O973 C987 1.248 . S
O974 Tb935 2.465 1_565 S
O974 C999 1.264 . S
O975 Tb935 2.387 . S
O975 C991 1.264 . S
O976 Tb924 2.349 . S
O976 C991 1.243 . S
O977 Tb935 2.428 1_565 S
O977 C999 1.256 . S
O978 Tb935 2.308 . S
O978 C998 1.266 . S
O979 Tb924 2.393 . S
O979 C998 1.248 . S
C980 O969 1.264 . S
C980 O970 1.243 . S
C981 C984 1.399 . S
C981 C986 1.383 . S
C981 C988 1.496 . S
C982 C983 1.399 . S
C982 C986 1.389 . S
C983 C982 1.399 . S
C983 C985 1.380 . S
C983 H1000 0.929 . S
C984 C981 1.399 . S
C984 C985 1.392 . S
C984 H1001 0.929 . S
C985 C983 1.380 . S
C985 C984 1.392 . S
C985 H1002 0.929 . S
C986 C981 1.383 . S
C986 C982 1.389 . S
C986 H1003 0.931 . S
C987 O972 1.266 . S
C987 O973 1.248 . S
C988 Tb924 2.802 . S
C988 O968 1.264 . S
C988 O971 1.256 . S
C988 C981 1.496 . S
C989 C956 1.448 . S
C989 H966 0.930 1_545 S
C989 C990 1.328 . S
C990 C961 1.427 . S
C990 H967 0.929 1_545 S
C990 C989 1.328 . S
C991 O975 1.264 . S
C991 O976 1.243 . S
C992 C995 1.399 . S
C992 C996 1.383 . S
C992 C999 1.496 . S
C993 C994 1.399 . S
C993 C996 1.389 . S
C994 C993 1.399 . S
C994 C997 1.380 . S
C994 H1004 0.929 . S
C995 C992 1.399 . S
C995 C997 1.392 . S
C995 H1005 0.929 . S
C996 C992 1.383 . S
C996 C993 1.389 . S
C996 H1006 0.931 . S
C997 C994 1.380 . S
C997 C995 1.392 . S
C997 H1007 0.929 . S
C998 O978 1.266 . S
C998 O979 1.248 . S
C999 Tb935 2.802 1_565 S
C999 O974 1.264 . S
C999 O977 1.256 . S
C999 C992 1.496 . S
H1000 C983 0.929 . S
H1001 C984 0.929 . S
H1002 C985 0.929 . S
H1003 C986 0.931 . S
H1004 C994 0.929 . S
H1005 C995 0.929 . S
H1006 C996 0.931 . S
H1007 C997 0.929 . S
Tb1008 N1037 2.617 . S
Tb1008 N1043 2.572 . S
Tb1008 O1052 2.465 . S
Tb1008 O1053 2.387 . S
Tb1008 O1055 2.428 . S
Tb1008 O1056 2.308 . S
Tb1008 O1060 2.349 . S
Tb1008 O1063 2.393 . S
Tb1008 C1072 2.802 . S
C1009 N1010 1.379 . S
C1009 C1012 1.416 . S
C1009 C1016 1.424 . S
N1010 C1009 1.379 . S
N1010 C1013 1.334 . S
N1010 Tb1019 2.617 . S
C1011 C1013 1.390 . S
C1011 C1014 1.339 . S
C1011 H1031 0.930 . S
C1012 C1009 1.416 . S
C1012 C1014 1.416 . S
C1012 C1018 1.448 1_455 S
C1013 N1010 1.334 . S
C1013 C1011 1.390 . S
C1013 H1024 0.930 . S
C1014 C1011 1.339 . S
C1014 C1012 1.416 . S
C1014 H1035 0.930 . S
C1015 C1016 1.413 1_655 S
C1015 C1017 1.427 . S
C1015 C1021 1.416 . S
C1016 C1009 1.424 . S
C1016 C1015 1.413 1_455 S
C1016 N1020 1.361 . S
C1017 C1015 1.427 . S
C1017 C1018 1.328 . S
C1017 H1032 0.929 . S
C1018 C1012 1.448 1_655 S
C1018 C1017 1.328 . S
C1018 H1033 0.930 . S
Tb1019 N1010 2.617 . S
Tb1019 N1020 2.572 . S
Tb1019 O1054 2.349 . S
Tb1019 O1057 2.393 . S
Tb1019 O1058 2.465 . S
Tb1019 O1059 2.387 . S
Tb1019 O1061 2.428 . S
Tb1019 O1062 2.308 . S
Tb1019 C1083 2.802 . S
N1020 C1016 1.361 . S
N1020 Tb1019 2.572 . S
N1020 C1022 1.340 . S
C1021 C1015 1.416 . S
C1021 C1023 1.332 1_655 S
C1021 H1029 0.931 . S
C1022 N1020 1.340 . S
C1022 C1023 1.407 . S
C1022 H1028 0.930 . S
C1023 C1021 1.332 1_455 S
C1023 C1022 1.407 . S
C1023 H1025 0.929 1_455 S
H1024 C1013 0.930 . S
H1025 C1023 0.929 1_655 S
H1026 C1041 0.930 . S
H1027 C1048 0.929 . S
H1028 C1022 0.930 . S
H1029 C1021 0.931 . S
H1030 C1044 0.930 . S
H1031 C1011 0.930 . S
H1032 C1017 0.929 . S
H1033 C1018 0.930 . S
H1034 C1039 0.930 . S
H1035 C1014 0.930 . S
H1036 C1047 0.931 . S
N1037 Tb1008 2.617 . S
N1037 C1038 1.379 . S
N1037 C1041 1.334 . S
C1038 N1037 1.379 . S
C1038 C1040 1.416 . S
C1038 C1046 1.424 . S
C1039 H1034 0.930 . S
C1039 C1041 1.390 . S
C1039 C1042 1.339 . S
C1040 C1038 1.416 . S
C1040 C1042 1.416 . S
C1040 C1073 1.448 . S
C1041 H1026 0.930 . S
C1041 N1037 1.334 . S
C1041 C1039 1.390 . S
C1042 C1039 1.339 . S
C1042 C1040 1.416 . S
C1042 H1049 0.930 . S
N1043 Tb1008 2.572 . S
N1043 C1044 1.340 . S
N1043 C1046 1.361 . S
C1044 H1030 0.930 . S
C1044 N1043 1.340 . S
C1044 C1048 1.407 . S
C1045 C1046 1.413 . S
C1045 C1047 1.416 . S
C1045 C1074 1.427 . S
C1046 C1038 1.424 . S
C1046 N1043 1.361 . S
C1046 C1045 1.413 . S
C1047 H1036 0.931 . S
C1047 C1045 1.416 . S
C1047 C1048 1.332 . S
C1048 H1027 0.929 . S
C1048 C1044 1.407 . S
C1048 C1047 1.332 . S
H1049 C1042 0.930 . S
H1050 C1073 0.930 . S
H1051 C1074 0.929 . S
O1052 Tb1008 2.465 . S
O1052 C1072 1.264 . S
O1053 Tb1008 2.387 . S
O1053 C1064 1.264 . S
O1054 Tb1019 2.349 . S
O1054 C1064 1.243 . S
O1055 Tb1008 2.428 . S
O1055 C1072 1.256 . S
O1056 Tb1008 2.308 . S
O1056 C1071 1.266 . S
O1057 Tb1019 2.393 . S
O1057 C1071 1.248 . S
O1058 Tb1019 2.465 . S
O1058 C1083 1.264 . S
O1059 Tb1019 2.387 . S
O1059 C1075 1.264 . S
O1060 Tb1008 2.349 . S
O1060 C1075 1.243 . S
O1061 Tb1019 2.428 . S
O1061 C1083 1.256 . S
O1062 Tb1019 2.308 . S
O1062 C1082 1.266 . S
O1063 Tb1008 2.393 . S
O1063 C1082 1.248 . S
C1064 O1053 1.264 . S
C1064 O1054 1.243 . S
C1065 C1068 1.399 . S
C1065 C1070 1.383 . S
C1065 C1072 1.496 . S
C1066 C1067 1.399 . S
C1066 C1070 1.389 . S
C1067 C1066 1.399 . S
C1067 C1069 1.380 . S
C1067 H1084 0.929 . S
C1068 C1065 1.399 . S
C1068 C1069 1.392 . S
C1068 H1085 0.929 . S
C1069 C1067 1.380 . S
C1069 C1068 1.392 . S
C1069 H1086 0.929 . S
C1070 C1065 1.383 . S
C1070 C1066 1.389 . S
C1070 H1087 0.931 . S
C1071 O1056 1.266 . S
C1071 O1057 1.248 . S
C1072 Tb1008 2.802 . S
C1072 O1052 1.264 . S
C1072 O1055 1.256 . S
C1072 C1065 1.496 . S
C1073 C1040 1.448 . S
C1073 H1050 0.930 . S
C1073 C1074 1.328 . S
C1074 C1045 1.427 . S
C1074 H1051 0.929 . S
C1074 C1073 1.328 . S
C1075 O1059 1.264 . S
C1075 O1060 1.243 . S
C1076 C1079 1.399 . S
C1076 C1080 1.383 . S
C1076 C1083 1.496 . S
C1077 C1078 1.399 . S
C1077 C1080 1.389 . S
C1078 C1077 1.399 . S
C1078 C1081 1.380 . S
C1078 H1088 0.929 . S
C1079 C1076 1.399 . S
C1079 C1081 1.392 . S
C1079 H1089 0.929 . S
C1080 C1076 1.383 . S
C1080 C1077 1.389 . S
C1080 H1090 0.931 . S
C1081 C1078 1.380 . S
C1081 C1079 1.392 . S
C1081 H1091 0.929 . S
C1082 O1062 1.266 . S
C1082 O1063 1.248 . S
C1083 Tb1019 2.802 . S
C1083 O1058 1.264 . S
C1083 O1061 1.256 . S
C1083 C1076 1.496 . S
H1084 C1067 0.929 . S
H1085 C1068 0.929 . S
H1086 C1069 0.929 . S
H1087 C1070 0.931 . S
H1088 C1078 0.929 . S
H1089 C1079 0.929 . S
H1090 C1080 0.931 . S
H1091 C1081 0.929 . S
Tb1092 N1121 2.617 . S
Tb1092 N1127 2.572 . S
Tb1092 O1136 2.465 . S
Tb1092 O1137 2.387 . S
Tb1092 O1139 2.428 . S
Tb1092 O1140 2.308 . S
Tb1092 O1144 2.349 . S
Tb1092 O1147 2.393 . S
Tb1092 C1156 2.802 . S
C1093 N1094 1.379 . S
C1093 C1096 1.416 . S
C1093 C1100 1.424 . S
N1094 C1093 1.379 . S
N1094 C1097 1.334 . S
N1094 Tb1103 2.617 . S
C1095 C1097 1.390 . S
C1095 C1098 1.339 . S
C1095 H1115 0.930 . S
C1096 C1093 1.416 . S
C1096 C1098 1.416 . S
C1096 C1102 1.448 . S
C1097 N1094 1.334 . S
C1097 C1095 1.390 . S
C1097 H1108 0.930 . S
C1098 C1095 1.339 . S
C1098 C1096 1.416 . S
C1098 H1119 0.930 . S
C1099 C1100 1.413 . S
C1099 C1101 1.427 . S
C1099 C1105 1.416 . S
C1100 C1093 1.424 . S
C1100 C1099 1.413 . S
C1100 N1104 1.361 . S
C1101 C1099 1.427 . S
C1101 C1102 1.328 . S
C1101 H1116 0.929 . S
C1102 C1096 1.448 . S
C1102 C1101 1.328 . S
C1102 H1117 0.930 . S
Tb1103 N1094 2.617 . S
Tb1103 N1104 2.572 . S
Tb1103 O1138 2.349 . S
Tb1103 O1141 2.393 . S
Tb1103 O1142 2.465 . S
Tb1103 O1143 2.387 . S
Tb1103 O1145 2.428 . S
Tb1103 O1146 2.308 . S
Tb1103 C1167 2.802 . S
N1104 C1100 1.361 . S
N1104 Tb1103 2.572 . S
N1104 C1106 1.340 . S
C1105 C1099 1.416 . S
C1105 C1107 1.332 . S
C1105 H1113 0.931 . S
C1106 N1104 1.340 . S
C1106 C1107 1.407 . S
C1106 H1112 0.930 . S
C1107 C1105 1.332 . S
C1107 C1106 1.407 . S
C1107 H1109 0.929 . S
H1108 C1097 0.930 . S
H1109 C1107 0.929 . S
H1110 C1125 0.930 . S
H1111 C1132 0.929 . S
H1112 C1106 0.930 . S
H1113 C1105 0.931 . S
H1114 C1128 0.930 . S
H1115 C1095 0.930 . S
H1116 C1101 0.929 . S
H1117 C1102 0.930 . S
H1118 C1123 0.930 . S
H1119 C1098 0.930 . S
H1120 C1131 0.931 . S
N1121 Tb1092 2.617 . S
N1121 C1122 1.379 . S
N1121 C1125 1.334 . S
C1122 N1121 1.379 . S
C1122 C1124 1.416 . S
C1122 C1130 1.424 . S
C1123 H1118 0.930 . S
C1123 C1125 1.390 . S
C1123 C1126 1.339 . S
C1124 C1122 1.416 . S
C1124 C1126 1.416 . S
C1124 C1157 1.448 1_565 S
C1125 H1110 0.930 . S
C1125 N1121 1.334 . S
C1125 C1123 1.390 . S
C1126 C1123 1.339 . S
C1126 C1124 1.416 . S
C1126 H1133 0.930 . S
N1127 Tb1092 2.572 . S
N1127 C1128 1.340 . S
N1127 C1130 1.361 . S
C1128 H1114 0.930 . S
C1128 N1127 1.340 . S
C1128 C1132 1.407 1_565 S
C1129 C1130 1.413 1_545 S
C1129 C1131 1.416 . S
C1129 C1158 1.427 . S
C1130 C1122 1.424 . S
C1130 N1127 1.361 . S
C1130 C1129 1.413 1_565 S
C1131 H1120 0.931 . S
C1131 C1129 1.416 . S
C1131 C1132 1.332 . S
C1132 H1111 0.929 . S
C1132 C1128 1.407 1_545 S
C1132 C1131 1.332 . S
H1133 C1126 0.930 . S
H1134 C1157 0.930 . S
H1135 C1158 0.929 . S
O1136 Tb1092 2.465 . S
O1136 C1156 1.264 . S
O1137 Tb1092 2.387 . S
O1137 C1148 1.264 . S
O1138 Tb1103 2.349 . S
O1138 C1148 1.243 . S
O1139 Tb1092 2.428 . S
O1139 C1156 1.256 . S
O1140 Tb1092 2.308 . S
O1140 C1155 1.266 . S
O1141 Tb1103 2.393 . S
O1141 C1155 1.248 . S
O1142 Tb1103 2.465 . S
O1142 C1167 1.264 . S
O1143 Tb1103 2.387 . S
O1143 C1159 1.264 . S
O1144 Tb1092 2.349 . S
O1144 C1159 1.243 . S
O1145 Tb1103 2.428 . S
O1145 C1167 1.256 . S
O1146 Tb1103 2.308 . S
O1146 C1166 1.266 . S
O1147 Tb1092 2.393 . S
O1147 C1166 1.248 . S
C1148 O1137 1.264 . S
C1148 O1138 1.243 . S
C1149 C1152 1.399 . S
C1149 C1154 1.383 . S
C1149 C1156 1.496 1_545 S
C1150 C1151 1.399 . S
C1150 C1154 1.389 . S
C1151 C1150 1.399 . S
C1151 C1153 1.380 . S
C1151 H1168 0.929 . S
C1152 C1149 1.399 . S
C1152 C1153 1.392 . S
C1152 H1169 0.929 . S
C1153 C1151 1.380 . S
C1153 C1152 1.392 . S
C1153 H1170 0.929 . S
C1154 C1149 1.383 . S
C1154 C1150 1.389 . S
C1154 H1171 0.931 . S
C1155 O1140 1.266 . S
C1155 O1141 1.248 . S
C1156 Tb1092 2.802 . S
C1156 O1136 1.264 . S
C1156 O1139 1.256 . S
C1156 C1149 1.496 1_565 S
C1157 C1124 1.448 1_545 S
C1157 H1134 0.930 . S
C1157 C1158 1.328 . S
C1158 C1129 1.427 . S
C1158 H1135 0.929 . S
C1158 C1157 1.328 . S
C1159 O1143 1.264 . S
C1159 O1144 1.243 . S
C1160 C1163 1.399 . S
C1160 C1164 1.383 . S
C1160 C1167 1.496 . S
C1161 C1162 1.399 . S
C1161 C1164 1.389 . S
C1162 C1161 1.399 . S
C1162 C1165 1.380 . S
C1162 H1172 0.929 . S
C1163 C1160 1.399 . S
C1163 C1165 1.392 . S
C1163 H1173 0.929 . S
C1164 C1160 1.383 . S
C1164 C1161 1.389 . S
C1164 H1174 0.931 . S
C1165 C1162 1.380 . S
C1165 C1163 1.392 . S
C1165 H1175 0.929 . S
C1166 O1146 1.266 . S
C1166 O1147 1.248 . S
C1167 Tb1103 2.802 . S
C1167 O1142 1.264 . S
C1167 O1145 1.256 . S
C1167 C1160 1.496 . S
H1168 C1151 0.929 . S
H1169 C1152 0.929 . S
H1170 C1153 0.929 . S
H1171 C1154 0.931 . S
H1172 C1162 0.929 . S
H1173 C1163 0.929 . S
H1174 C1164 0.931 . S
H1175 C1165 0.929 . S
Tb1176 N1205 2.617 . S
Tb1176 N1211 2.572 . S
Tb1176 O1220 2.465 . S
Tb1176 O1221 2.387 . S
Tb1176 O1223 2.428 . S
Tb1176 O1224 2.308 . S
Tb1176 O1228 2.349 . S
Tb1176 O1231 2.393 . S
Tb1176 C1240 2.802 . S
C1177 N1178 1.379 1_545 S
C1177 C1180 1.416 . S
C1177 C1184 1.424 . S
N1178 C1177 1.379 1_565 S
N1178 C1181 1.334 . S
N1178 Tb1187 2.617 . S
C1179 C1181 1.390 . S
C1179 C1182 1.339 1_565 S
C1179 H1199 0.930 . S
C1180 C1177 1.416 . S
C1180 C1182 1.416 . S
C1180 C1186 1.448 . S
C1181 N1178 1.334 . S
C1181 C1179 1.390 . S
C1181 H1192 0.930 . S
C1182 C1179 1.339 1_545 S
C1182 C1180 1.416 . S
C1182 H1203 0.930 . S
C1183 C1184 1.413 . S
C1183 C1185 1.427 . S
C1183 C1189 1.416 . S
C1184 C1177 1.424 . S
C1184 C1183 1.413 . S
C1184 N1188 1.361 . S
C1185 C1183 1.427 . S
C1185 C1186 1.328 . S
C1185 H1200 0.929 . S
C1186 C1180 1.448 . S
C1186 C1185 1.328 . S
C1186 H1201 0.930 . S
Tb1187 N1178 2.617 . S
Tb1187 N1188 2.572 1_565 S
Tb1187 O1222 2.349 . S
Tb1187 O1225 2.393 . S
Tb1187 O1226 2.465 . S
Tb1187 O1227 2.387 . S
Tb1187 O1229 2.428 . S
Tb1187 O1230 2.308 . S
Tb1187 C1251 2.802 . S
N1188 C1184 1.361 . S
N1188 Tb1187 2.572 1_545 S
N1188 C1190 1.340 . S
C1189 C1183 1.416 . S
C1189 C1191 1.332 . S
C1189 H1197 0.931 . S
C1190 N1188 1.340 . S
C1190 C1191 1.407 . S
C1190 H1196 0.930 1_545 S
C1191 C1189 1.332 . S
C1191 C1190 1.407 . S
C1191 H1193 0.929 . S
H1192 C1181 0.930 . S
H1193 C1191 0.929 . S
H1194 C1209 0.930 . S
H1195 C1216 0.929 . S
H1196 C1190 0.930 1_565 S
H1197 C1189 0.931 . S
H1198 C1212 0.930 . S
H1199 C1179 0.930 . S
H1200 C1185 0.929 . S
H1201 C1186 0.930 . S
H1202 C1207 0.930 . S
H1203 C1182 0.930 . S
H1204 C1215 0.931 . S
N1205 Tb1176 2.617 . S
N1205 C1206 1.379 . S
N1205 C1209 1.334 . S
C1206 N1205 1.379 . S
C1206 C1208 1.416 . S
C1206 C1214 1.424 . S
C1207 H1202 0.930 . S
C1207 C1209 1.390 . S
C1207 C1210 1.339 . S
C1208 C1206 1.416 . S
C1208 C1210 1.416 . S
C1208 C1241 1.448 . S
C1209 H1194 0.930 . S
C1209 N1205 1.334 . S
C1209 C1207 1.390 . S
C1210 C1207 1.339 . S
C1210 C1208 1.416 . S
C1210 H1217 0.930 . S
N1211 Tb1176 2.572 . S
N1211 C1212 1.340 . S
N1211 C1214 1.361 . S
C1212 H1198 0.930 . S
C1212 N1211 1.340 . S
C1212 C1216 1.407 . S
C1213 C1214 1.413 . S
C1213 C1215 1.416 . S
C1213 C1242 1.427 . S
C1214 C1206 1.424 . S
C1214 N1211 1.361 . S
C1214 C1213 1.413 . S
C1215 H1204 0.931 . S
C1215 C1213 1.416 . S
C1215 C1216 1.332 . S
C1216 H1195 0.929 . S
C1216 C1212 1.407 . S
C1216 C1215 1.332 . S
H1217 C1210 0.930 . S
H1218 C1241 0.930 . S
H1219 C1242 0.929 . S
O1220 Tb1176 2.465 . S
O1220 C1240 1.264 . S
O1221 Tb1176 2.387 . S
O1221 C1232 1.264 . S
O1222 Tb1187 2.349 . S
O1222 C1232 1.243 . S
O1223 Tb1176 2.428 . S
O1223 C1240 1.256 . S
O1224 Tb1176 2.308 . S
O1224 C1239 1.266 . S
O1225 Tb1187 2.393 . S
O1225 C1239 1.248 . S
O1226 Tb1187 2.465 . S
O1226 C1251 1.264 . S
O1227 Tb1187 2.387 . S
O1227 C1243 1.264 . S
O1228 Tb1176 2.349 . S
O1228 C1243 1.243 . S
O1229 Tb1187 2.428 . S
O1229 C1251 1.256 . S
O1230 Tb1187 2.308 . S
O1230 C1250 1.266 . S
O1231 Tb1176 2.393 . S
O1231 C1250 1.248 . S
C1232 O1221 1.264 . S
C1232 O1222 1.243 . S
C1233 C1236 1.399 . S
C1233 C1238 1.383 . S
C1233 C1240 1.496 . S
C1234 C1235 1.399 . S
C1234 C1238 1.389 1_655 S
C1235 C1234 1.399 . S
C1235 C1237 1.380 . S
C1235 H1252 0.929 . S
C1236 C1233 1.399 . S
C1236 C1237 1.392 1_455 S
C1236 H1253 0.929 . S
C1237 C1235 1.380 . S
C1237 C1236 1.392 1_655 S
C1237 H1254 0.929 . S
C1238 C1233 1.383 . S
C1238 C1234 1.389 1_455 S
C1238 H1255 0.931 . S
C1239 O1224 1.266 . S
C1239 O1225 1.248 . S
C1240 Tb1176 2.802 . S
C1240 O1220 1.264 . S
C1240 O1223 1.256 . S
C1240 C1233 1.496 . S
C1241 C1208 1.448 . S
C1241 H1218 0.930 . S
C1241 C1242 1.328 . S
C1242 C1213 1.427 . S
C1242 H1219 0.929 . S
C1242 C1241 1.328 . S
C1243 O1227 1.264 . S
C1243 O1228 1.243 . S
C1244 C1247 1.399 . S
C1244 C1248 1.383 . S
C1244 C1251 1.496 . S
C1245 C1246 1.399 . S
C1245 C1248 1.389 . S
C1246 C1245 1.399 . S
C1246 C1249 1.380 . S
C1246 H1256 0.929 . S
C1247 C1244 1.399 . S
C1247 C1249 1.392 . S
C1247 H1257 0.929 . S
C1248 C1244 1.383 . S
C1248 C1245 1.389 . S
C1248 H1258 0.931 . S
C1249 C1246 1.380 . S
C1249 C1247 1.392 . S
C1249 H1259 0.929 . S
C1250 O1230 1.266 . S
C1250 O1231 1.248 . S
C1251 Tb1187 2.802 . S
C1251 O1226 1.264 . S
C1251 O1229 1.256 . S
C1251 C1244 1.496 . S
H1252 C1235 0.929 . S
H1253 C1236 0.929 . S
H1254 C1237 0.929 . S
H1255 C1238 0.931 . S
H1256 C1246 0.929 . S
H1257 C1247 0.929 . S
H1258 C1248 0.931 . S
H1259 C1249 0.929 . S
Tb1260 N1289 2.617 . S
Tb1260 N1295 2.572 . S
Tb1260 O1304 2.465 . S
Tb1260 O1305 2.387 . S
Tb1260 O1307 2.428 . S
Tb1260 O1308 2.308 . S
Tb1260 O1312 2.349 . S
Tb1260 O1315 2.393 . S
Tb1260 C1324 2.802 . S
C1261 N1262 1.379 . S
C1261 C1264 1.416 . S
C1261 C1268 1.424 . S
N1262 C1261 1.379 . S
N1262 C1265 1.334 . S
N1262 Tb1271 2.617 . S
C1263 C1265 1.390 . S
C1263 C1266 1.339 . S
C1263 H1283 0.930 . S
C1264 C1261 1.416 . S
C1264 C1266 1.416 . S
C1264 C1270 1.448 . S
C1265 N1262 1.334 . S
C1265 C1263 1.390 . S
C1265 H1276 0.930 . S
C1266 C1263 1.339 . S
C1266 C1264 1.416 . S
C1266 H1287 0.930 . S
C1267 C1268 1.413 . S
C1267 C1269 1.427 . S
C1267 C1273 1.416 . S
C1268 C1261 1.424 . S
C1268 C1267 1.413 . S
C1268 N1272 1.361 . S
C1269 C1267 1.427 . S
C1269 C1270 1.328 . S
C1269 H1284 0.929 . S
C1270 C1264 1.448 . S
C1270 C1269 1.328 . S
C1270 H1285 0.930 . S
Tb1271 N1262 2.617 . S
Tb1271 N1272 2.572 . S
Tb1271 O1306 2.349 . S
Tb1271 O1309 2.393 . S
Tb1271 O1310 2.465 . S
Tb1271 O1311 2.387 . S
Tb1271 O1313 2.428 . S
Tb1271 O1314 2.308 . S
Tb1271 C1335 2.802 . S
N1272 C1268 1.361 . S
N1272 Tb1271 2.572 . S
N1272 C1274 1.340 . S
C1273 C1267 1.416 . S
C1273 C1275 1.332 . S
C1273 H1281 0.931 . S
C1274 N1272 1.340 . S
C1274 C1275 1.407 . S
C1274 H1280 0.930 . S
C1275 C1273 1.332 . S
C1275 C1274 1.407 . S
C1275 H1277 0.929 . S
H1276 C1265 0.930 . S
H1277 C1275 0.929 . S
H1278 C1293 0.930 . S
H1279 C1300 0.929 . S
H1280 C1274 0.930 . S
H1281 C1273 0.931 . S
H1282 C1296 0.930 . S
H1283 C1263 0.930 . S
H1284 C1269 0.929 . S
H1285 C1270 0.930 . S
H1286 C1291 0.930 . S
H1287 C1266 0.930 . S
H1288 C1299 0.931 . S
N1289 Tb1260 2.617 . S
N1289 C1290 1.379 . S
N1289 C1293 1.334 . S
C1290 N1289 1.379 . S
C1290 C1292 1.416 1_565 S
C1290 C1298 1.424 1_565 S
C1291 H1286 0.930 . S
C1291 C1293 1.390 . S
C1291 C1294 1.339 1_565 S
C1292 C1290 1.416 1_545 S
C1292 C1294 1.416 . S
C1292 C1325 1.448 . S
C1293 H1278 0.930 . S
C1293 N1289 1.334 . S
C1293 C1291 1.390 . S
C1294 C1291 1.339 1_545 S
C1294 C1292 1.416 . S
C1294 H1301 0.930 . S
N1295 Tb1260 2.572 . S
N1295 C1296 1.340 . S
N1295 C1298 1.361 1_565 S
C1296 H1282 0.930 . S
C1296 N1295 1.340 . S
C1296 C1300 1.407 1_565 S
C1297 C1298 1.413 . S
C1297 C1299 1.416 . S
C1297 C1326 1.427 . S
C1298 C1290 1.424 1_545 S
C1298 N1295 1.361 1_545 S
C1298 C1297 1.413 . S
C1299 H1288 0.931 . S
C1299 C1297 1.416 . S
C1299 C1300 1.332 . S
C1300 H1279 0.929 . S
C1300 C1296 1.407 1_545 S
C1300 C1299 1.332 . S
H1301 C1294 0.930 . S
H1302 C1325 0.930 . S
H1303 C1326 0.929 . S
O1304 Tb1260 2.465 . S
O1304 C1324 1.264 . S
O1305 Tb1260 2.387 . S
O1305 C1316 1.264 . S
O1306 Tb1271 2.349 . S
O1306 C1316 1.243 . S
O1307 Tb1260 2.428 . S
O1307 C1324 1.256 . S
O1308 Tb1260 2.308 . S
O1308 C1323 1.266 . S
O1309 Tb1271 2.393 . S
O1309 C1323 1.248 . S
O1310 Tb1271 2.465 . S
O1310 C1335 1.264 . S
O1311 Tb1271 2.387 . S
O1311 C1327 1.264 . S
O1312 Tb1260 2.349 . S
O1312 C1327 1.243 . S
O1313 Tb1271 2.428 . S
O1313 C1335 1.256 . S
O1314 Tb1271 2.308 . S
O1314 C1334 1.266 . S
O1315 Tb1260 2.393 . S
O1315 C1334 1.248 . S
C1316 O1305 1.264 . S
C1316 O1306 1.243 . S
C1317 C1320 1.399 . S
C1317 C1322 1.383 . S
C1317 C1324 1.496 . S
C1318 C1319 1.399 . S
C1318 C1322 1.389 . S
C1319 C1318 1.399 . S
C1319 C1321 1.380 . S
C1319 H1336 0.929 . S
C1320 C1317 1.399 . S
C1320 C1321 1.392 . S
C1320 H1337 0.929 . S
C1321 C1319 1.380 . S
C1321 C1320 1.392 . S
C1321 H1338 0.929 . S
C1322 C1317 1.383 . S
C1322 C1318 1.389 . S
C1322 H1339 0.931 . S
C1323 O1308 1.266 . S
C1323 O1309 1.248 . S
C1324 Tb1260 2.802 . S
C1324 O1304 1.264 . S
C1324 O1307 1.256 . S
C1324 C1317 1.496 . S
C1325 C1292 1.448 . S
C1325 H1302 0.930 . S
C1325 C1326 1.328 . S
C1326 C1297 1.427 . S
C1326 H1303 0.929 . S
C1326 C1325 1.328 . S
C1327 O1311 1.264 . S
C1327 O1312 1.243 . S
C1328 C1331 1.399 . S
C1328 C1332 1.383 . S
C1328 C1335 1.496 . S
C1329 C1330 1.399 . S
C1329 C1332 1.389 . S
C1330 C1329 1.399 . S
C1330 C1333 1.380 . S
C1330 H1340 0.929 1_655 S
C1331 C1328 1.399 . S
C1331 C1333 1.392 . S
C1331 H1341 0.929 . S
C1332 C1328 1.383 . S
C1332 C1329 1.389 . S
C1332 H1342 0.931 . S
C1333 C1330 1.380 . S
C1333 C1331 1.392 . S
C1333 H1343 0.929 . S
C1334 O1314 1.266 . S
C1334 O1315 1.248 . S
C1335 Tb1271 2.802 . S
C1335 O1310 1.264 . S
C1335 O1313 1.256 . S
C1335 C1328 1.496 . S
H1336 C1319 0.929 . S
H1337 C1320 0.929 . S
H1338 C1321 0.929 . S
H1339 C1322 0.931 . S
H1340 C1330 0.929 1_455 S
H1341 C1331 0.929 . S
H1342 C1332 0.931 . S
H1343 C1333 0.929 . S
Tb1344 N1373 2.617 . S
Tb1344 N1379 2.572 . S
Tb1344 O1388 2.465 . S
Tb1344 O1389 2.387 . S
Tb1344 O1391 2.428 . S
Tb1344 O1392 2.308 . S
Tb1344 O1396 2.349 . S
Tb1344 O1399 2.393 . S
Tb1344 C1408 2.802 . S
C1345 N1346 1.379 1_545 S
C1345 C1348 1.416 . S
C1345 C1352 1.424 . S
N1346 C1345 1.379 1_565 S
N1346 C1349 1.334 . S
N1346 Tb1355 2.617 . S
C1347 C1349 1.390 . S
C1347 C1350 1.339 1_565 S
C1347 H1367 0.930 . S
C1348 C1345 1.416 . S
C1348 C1350 1.416 . S
C1348 C1354 1.448 . S
C1349 N1346 1.334 . S
C1349 C1347 1.390 . S
C1349 H1360 0.930 . S
C1350 C1347 1.339 1_545 S
C1350 C1348 1.416 . S
C1350 H1371 0.930 . S
C1351 C1352 1.413 . S
C1351 C1353 1.427 . S
C1351 C1357 1.416 . S
C1352 C1345 1.424 . S
C1352 C1351 1.413 . S
C1352 N1356 1.361 . S
C1353 C1351 1.427 . S
C1353 C1354 1.328 . S
C1353 H1368 0.929 . S
C1354 C1348 1.448 . S
C1354 C1353 1.328 . S
C1354 H1369 0.930 . S
Tb1355 N1346 2.617 . S
Tb1355 N1356 2.572 1_565 S
Tb1355 O1390 2.349 . S
Tb1355 O1393 2.393 . S
Tb1355 O1394 2.465 1_565 S
Tb1355 O1395 2.387 . S
Tb1355 O1397 2.428 1_565 S
Tb1355 O1398 2.308 . S
Tb1355 C1419 2.802 1_565 S
N1356 C1352 1.361 . S
N1356 Tb1355 2.572 1_545 S
N1356 C1358 1.340 . S
C1357 C1351 1.416 . S
C1357 C1359 1.332 . S
C1357 H1365 0.931 . S
C1358 N1356 1.340 . S
C1358 C1359 1.407 . S
C1358 H1364 0.930 . S
C1359 C1357 1.332 . S
C1359 C1358 1.407 . S
C1359 H1361 0.929 . S
H1360 C1349 0.930 . S
H1361 C1359 0.929 . S
H1362 C1377 0.930 . S
H1363 C1384 0.929 . S
H1364 C1358 0.930 . S
H1365 C1357 0.931 . S
H1366 C1380 0.930 . S
H1367 C1347 0.930 . S
H1368 C1353 0.929 . S
H1369 C1354 0.930 . S
H1370 C1375 0.930 . S
H1371 C1350 0.930 . S
H1372 C1383 0.931 1_655 S
N1373 Tb1344 2.617 . S
N1373 C1374 1.379 . S
N1373 C1377 1.334 . S
C1374 N1373 1.379 . S
C1374 C1376 1.416 . S
C1374 C1382 1.424 . S
C1375 H1370 0.930 . S
C1375 C1377 1.390 . S
C1375 C1378 1.339 . S
C1376 C1374 1.416 . S
C1376 C1378 1.416 . S
C1376 C1409 1.446 . S
C1377 H1362 0.930 . S
C1377 N1373 1.334 . S
C1377 C1375 1.390 . S
C1378 C1375 1.339 . S
C1378 C1376 1.416 . S
C1378 H1385 0.930 . S
N1379 Tb1344 2.572 . S
N1379 C1380 1.340 . S
N1379 C1382 1.361 . S
C1380 H1366 0.930 . S
C1380 N1379 1.340 . S
C1380 C1384 1.407 . S
C1381 C1382 1.413 . S
C1381 C1383 1.416 . S
C1381 C1410 1.427 1_455 S
C1382 C1374 1.424 . S
C1382 N1379 1.361 . S
C1382 C1381 1.413 . S
C1383 H1372 0.931 1_455 S
C1383 C1381 1.416 . S
C1383 C1384 1.332 . S
C1384 H1363 0.929 . S
C1384 C1380 1.407 . S
C1384 C1383 1.332 . S
H1385 C1378 0.930 . S
H1386 C1409 0.932 1_655 S
H1387 C1410 0.929 . S
O1388 Tb1344 2.465 . S
O1388 C1408 1.264 . S
O1389 Tb1344 2.387 . S
O1389 C1400 1.264 . S
O1390 Tb1355 2.349 . S
O1390 C1400 1.243 . S
O1391 Tb1344 2.428 . S
O1391 C1408 1.256 . S
O1392 Tb1344 2.308 . S
O1392 C1407 1.266 . S
O1393 Tb1355 2.393 . S
O1393 C1407 1.248 . S
O1394 Tb1355 2.465 1_545 S
O1394 C1419 1.264 . S
O1395 Tb1355 2.387 . S
O1395 C1411 1.264 . S
O1396 Tb1344 2.349 . S
O1396 C1411 1.243 . S
O1397 Tb1355 2.428 1_545 S
O1397 C1419 1.256 . S
O1398 Tb1355 2.308 . S
O1398 C1418 1.266 . S
O1399 Tb1344 2.393 . S
O1399 C1418 1.248 . S
C1400 O1389 1.264 . S
C1400 O1390 1.243 . S
C1401 C1404 1.399 . S
C1401 C1406 1.383 . S
C1401 C1408 1.496 . S
C1402 C1403 1.399 . S
C1402 C1406 1.389 . S
C1403 C1402 1.399 . S
C1403 C1405 1.380 . S
C1403 H1420 0.929 . S
C1404 C1401 1.399 . S
C1404 C1405 1.392 . S
C1404 H1421 0.929 . S
C1405 C1403 1.380 . S
C1405 C1404 1.392 . S
C1405 H1422 0.929 . S
C1406 C1401 1.383 . S
C1406 C1402 1.389 . S
C1406 H1423 0.931 . S
C1407 O1392 1.266 . S
C1407 O1393 1.248 . S
C1408 Tb1344 2.802 . S
C1408 O1388 1.264 . S
C1408 O1391 1.256 . S
C1408 C1401 1.496 . S
C1409 C1376 1.446 . S
C1409 H1386 0.932 1_455 S
C1409 C1410 1.329 1_455 S
C1410 C1381 1.427 1_655 S
C1410 H1387 0.929 . S
C1410 C1409 1.329 1_655 S
C1411 O1395 1.264 . S
C1411 O1396 1.243 . S
C1412 C1415 1.399 . S
C1412 C1416 1.383 . S
C1412 C1419 1.496 . S
C1413 C1414 1.399 . S
C1413 C1416 1.389 . S
C1414 C1413 1.399 . S
C1414 C1417 1.380 . S
C1414 H1424 0.929 . S
C1415 C1412 1.399 . S
C1415 C1417 1.392 . S
C1415 H1425 0.929 . S
C1416 C1412 1.383 . S
C1416 C1413 1.389 . S
C1416 H1426 0.931 . S
C1417 C1414 1.380 . S
C1417 C1415 1.392 . S
C1417 H1427 0.929 . S
C1418 O1398 1.266 . S
C1418 O1399 1.248 . S
C1419 Tb1355 2.802 1_545 S
C1419 O1394 1.264 . S
C1419 O1397 1.256 . S
C1419 C1412 1.496 . S
H1420 C1403 0.929 . S
H1421 C1404 0.929 . S
H1422 C1405 0.929 . S
H1423 C1406 0.931 . S
H1424 C1414 0.929 . S
H1425 C1415 0.929 . S
H1426 C1416 0.931 . S
H1427 C1417 0.929 . S
Tb1428 N1457 2.617 . S
Tb1428 N1463 2.572 . S
Tb1428 O1472 2.465 . S
Tb1428 O1473 2.387 . S
Tb1428 O1475 2.428 . S
Tb1428 O1476 2.308 . S
Tb1428 O1480 2.349 . S
Tb1428 O1483 2.393 . S
Tb1428 C1492 2.802 . S
C1429 N1430 1.379 . S
C1429 C1432 1.416 . S
C1429 C1436 1.424 . S
N1430 C1429 1.379 . S
N1430 C1433 1.334 . S
N1430 Tb1439 2.617 . S
C1431 C1433 1.390 . S
C1431 C1434 1.339 . S
C1431 H1451 0.930 . S
C1432 C1429 1.416 . S
C1432 C1434 1.416 . S
C1432 C1438 1.471 . S
C1433 N1430 1.334 . S
C1433 C1431 1.390 . S
C1433 H1444 0.930 . S
C1434 C1431 1.339 . S
C1434 C1432 1.416 . S
C1434 H1455 0.930 . S
C1435 C1436 1.413 1_655 S
C1435 C1437 1.427 . S
C1435 C1441 1.416 . S
C1436 C1429 1.424 . S
C1436 C1435 1.413 1_455 S
C1436 N1440 1.361 . S
C1437 C1435 1.427 . S
C1437 C1438 1.319 1_655 S
C1437 H1452 0.929 . S
C1438 C1432 1.471 . S
C1438 C1437 1.319 1_455 S
C1438 H1453 0.917 1_455 S
Tb1439 N1430 2.617 . S
Tb1439 N1440 2.572 . S
Tb1439 O1474 2.349 . S
Tb1439 O1477 2.393 . S
Tb1439 O1478 2.465 . S
Tb1439 O1479 2.387 . S
Tb1439 O1481 2.428 . S
Tb1439 O1482 2.308 . S
Tb1439 C1503 2.802 . S
N1440 C1436 1.361 . S
N1440 Tb1439 2.572 . S
N1440 C1442 1.340 . S
C1441 C1435 1.416 . S
C1441 C1443 1.332 . S
C1441 H1449 0.931 . S
C1442 N1440 1.340 . S
C1442 C1443 1.407 1_455 S
C1442 H1448 0.930 . S
C1443 C1441 1.332 . S
C1443 C1442 1.407 1_655 S
C1443 H1445 0.929 . S
H1444 C1433 0.930 . S
H1445 C1443 0.929 . S
H1446 C1461 0.930 . S
H1447 C1468 0.929 . S
H1448 C1442 0.930 . S
H1449 C1441 0.931 . S
H1450 C1464 0.930 . S
H1451 C1431 0.930 . S
H1452 C1437 0.929 . S
H1453 C1438 0.917 1_655 S
H1454 C1459 0.930 . S
H1455 C1434 0.930 . S
H1456 C1467 0.931 . S
N1457 Tb1428 2.617 . S
N1457 C1458 1.379 . S
N1457 C1461 1.334 . S
C1458 N1457 1.379 . S
C1458 C1460 1.416 . S
C1458 C1466 1.424 . S
C1459 H1454 0.930 . S
C1459 C1461 1.390 . S
C1459 C1462 1.339 . S
C1460 C1458 1.416 . S
C1460 C1462 1.416 . S
C1460 C1493 1.448 . S
C1461 H1446 0.930 . S
C1461 N1457 1.334 . S
C1461 C1459 1.390 . S
C1462 C1459 1.339 . S
C1462 C1460 1.416 . S
C1462 H1469 0.930 . S
N1463 Tb1428 2.572 . S
N1463 C1464 1.340 . S
N1463 C1466 1.361 . S
C1464 H1450 0.930 . S
C1464 N1463 1.340 . S
C1464 C1468 1.407 . S
C1465 C1466 1.413 . S
C1465 C1467 1.416 . S
C1465 C1494 1.427 . S
C1466 C1458 1.424 . S
C1466 N1463 1.361 . S
C1466 C1465 1.413 . S
C1467 H1456 0.931 . S
C1467 C1465 1.416 . S
C1467 C1468 1.332 . S
C1468 H1447 0.929 . S
C1468 C1464 1.407 . S
C1468 C1467 1.332 . S
H1469 C1462 0.930 . S
H1470 C1493 0.930 . S
H1471 C1494 0.929 . S
O1472 Tb1428 2.465 . S
O1472 C1492 1.264 . S
O1473 Tb1428 2.387 . S
O1473 C1484 1.264 . S
O1474 Tb1439 2.349 . S
O1474 C1484 1.243 . S
O1475 Tb1428 2.428 . S
O1475 C1492 1.256 . S
O1476 Tb1428 2.308 . S
O1476 C1491 1.266 . S
O1477 Tb1439 2.393 . S
O1477 C1491 1.248 . S
O1478 Tb1439 2.465 . S
O1478 C1503 1.264 . S
O1479 Tb1439 2.387 . S
O1479 C1495 1.264 . S
O1480 Tb1428 2.349 . S
O1480 C1495 1.243 . S
O1481 Tb1439 2.428 . S
O1481 C1503 1.256 . S
O1482 Tb1439 2.308 . S
O1482 C1502 1.266 . S
O1483 Tb1428 2.393 . S
O1483 C1502 1.248 . S
C1484 O1473 1.264 . S
C1484 O1474 1.243 . S
C1485 C1488 1.399 . S
C1485 C1490 1.383 . S
C1485 C1492 1.496 . S
C1486 C1487 1.399 . S
C1486 C1490 1.389 . S
C1487 C1486 1.399 . S
C1487 C1489 1.380 . S
C1487 H1504 0.929 . S
C1488 C1485 1.399 . S
C1488 C1489 1.392 . S
C1488 H1505 0.929 . S
C1489 C1487 1.380 . S
C1489 C1488 1.392 . S
C1489 H1506 0.929 . S
C1490 C1485 1.383 . S
C1490 C1486 1.389 . S
C1490 H1507 0.931 . S
C1491 O1476 1.266 . S
C1491 O1477 1.248 . S
C1492 Tb1428 2.802 . S
C1492 O1472 1.264 . S
C1492 O1475 1.256 . S
C1492 C1485 1.496 . S
C1493 C1460 1.448 . S
C1493 H1470 0.930 . S
C1493 C1494 1.328 . S
C1494 C1465 1.427 . S
C1494 H1471 0.929 . S
C1494 C1493 1.328 . S
C1495 O1479 1.264 . S
C1495 O1480 1.243 . S
C1496 C1499 1.399 . S
C1496 C1500 1.383 . S
C1496 C1503 1.496 1_655 S
C1497 C1498 1.399 . S
C1497 C1500 1.389 . S
C1498 C1497 1.399 . S
C1498 C1501 1.380 . S
C1498 H1508 0.929 . S
C1499 C1496 1.399 . S
C1499 C1501 1.392 . S
C1499 H1509 0.929 . S
C1500 C1496 1.383 . S
C1500 C1497 1.389 . S
C1500 H1510 0.931 . S
C1501 C1498 1.380 . S
C1501 C1499 1.392 . S
C1501 H1511 0.929 . S
C1502 O1482 1.266 . S
C1502 O1483 1.248 . S
C1503 Tb1439 2.802 . S
C1503 O1478 1.264 . S
C1503 O1481 1.256 . S
C1503 C1496 1.496 1_455 S
H1504 C1487 0.929 . S
H1505 C1488 0.929 . S
H1506 C1489 0.929 . S
H1507 C1490 0.931 . S
H1508 C1498 0.929 . S
H1509 C1499 0.929 . S
H1510 C1500 0.931 . S
H1511 C1501 0.929 . S
Tb1512 N1541 2.617 . S
Tb1512 N1547 2.572 . S
Tb1512 O1556 2.465 . S
Tb1512 O1557 2.387 . S
Tb1512 O1559 2.428 . S
Tb1512 O1560 2.308 . S
Tb1512 O1564 2.349 . S
Tb1512 O1567 2.393 . S
Tb1512 C1576 2.802 . S
C1513 N1514 1.379 . S
C1513 C1516 1.416 . S
C1513 C1520 1.424 . S
N1514 C1513 1.379 . S
N1514 C1517 1.334 . S
N1514 Tb1523 2.617 . S
C1515 C1517 1.390 . S
C1515 C1518 1.339 . S
C1515 H1535 0.930 . S
C1516 C1513 1.416 . S
C1516 C1518 1.416 . S
C1516 C1522 1.449 1_455 S
C1517 N1514 1.334 . S
C1517 C1515 1.390 . S
C1517 H1528 0.930 . S
C1518 C1515 1.339 . S
C1518 C1516 1.416 . S
C1518 H1539 0.930 . S
C1519 C1520 1.413 . S
C1519 C1521 1.427 1_455 S
C1519 C1525 1.416 . S
C1520 C1513 1.424 . S
C1520 C1519 1.413 . S
C1520 N1524 1.361 . S
C1521 C1519 1.427 1_655 S
C1521 C1522 1.328 . S
C1521 H1536 0.929 . S
C1522 C1516 1.449 1_655 S
C1522 C1521 1.328 . S
C1522 H1537 0.930 . S
Tb1523 N1514 2.617 . S
Tb1523 N1524 2.572 . S
Tb1523 O1558 2.349 . S
Tb1523 O1561 2.393 . S
Tb1523 O1562 2.465 . S
Tb1523 O1563 2.387 . S
Tb1523 O1565 2.428 . S
Tb1523 O1566 2.308 . S
Tb1523 C1587 2.802 . S
N1524 C1520 1.361 . S
N1524 Tb1523 2.572 . S
N1524 C1526 1.340 . S
C1525 C1519 1.416 . S
C1525 C1527 1.332 . S
C1525 H1533 0.931 1_455 S
C1526 N1524 1.340 . S
C1526 C1527 1.407 . S
C1526 H1532 0.930 . S
C1527 C1525 1.332 . S
C1527 C1526 1.407 . S
C1527 H1529 0.929 . S
H1528 C1517 0.930 . S
H1529 C1527 0.929 . S
H1530 C1545 0.930 . S
H1531 C1552 0.929 . S
H1532 C1526 0.930 . S
H1533 C1525 0.931 1_655 S
H1534 C1548 0.930 . S
H1535 C1515 0.930 . S
H1536 C1521 0.929 . S
H1537 C1522 0.930 . S
H1538 C1543 0.930 . S
H1539 C1518 0.930 . S
H1540 C1551 0.931 . S
N1541 Tb1512 2.617 . S
N1541 C1542 1.379 . S
N1541 C1545 1.334 . S
C1542 N1541 1.379 . S
C1542 C1544 1.416 . S
C1542 C1550 1.424 . S
C1543 H1538 0.930 . S
C1543 C1545 1.390 . S
C1543 C1546 1.339 . S
C1544 C1542 1.416 . S
C1544 C1546 1.416 . S
C1544 C1577 1.448 . S
C1545 H1530 0.930 . S
C1545 N1541 1.334 . S
C1545 C1543 1.390 . S
C1546 C1543 1.339 . S
C1546 C1544 1.416 . S
C1546 H1553 0.930 . S
N1547 Tb1512 2.572 . S
N1547 C1548 1.340 . S
N1547 C1550 1.361 . S
C1548 H1534 0.930 . S
C1548 N1547 1.340 . S
C1548 C1552 1.407 . S
C1549 C1550 1.413 . S
C1549 C1551 1.416 . S
C1549 C1578 1.427 . S
C1550 C1542 1.424 . S
C1550 N1547 1.361 . S
C1550 C1549 1.413 . S
C1551 H1540 0.931 . S
C1551 C1549 1.416 . S
C1551 C1552 1.332 . S
C1552 H1531 0.929 . S
C1552 C1548 1.407 . S
C1552 C1551 1.332 . S
H1553 C1546 0.930 . S
H1554 C1577 0.930 . S
H1555 C1578 0.929 . S
O1556 Tb1512 2.465 . S
O1556 C1576 1.264 . S
O1557 Tb1512 2.387 . S
O1557 C1568 1.264 . S
O1558 Tb1523 2.349 . S
O1558 C1568 1.243 . S
O1559 Tb1512 2.428 . S
O1559 C1576 1.256 . S
O1560 Tb1512 2.308 . S
O1560 C1575 1.266 . S
O1561 Tb1523 2.393 . S
O1561 C1575 1.248 . S
O1562 Tb1523 2.465 . S
O1562 C1587 1.264 . S
O1563 Tb1523 2.387 . S
O1563 C1579 1.264 . S
O1564 Tb1512 2.349 . S
O1564 C1579 1.243 . S
O1565 Tb1523 2.428 . S
O1565 C1587 1.256 . S
O1566 Tb1523 2.308 . S
O1566 C1586 1.266 . S
O1567 Tb1512 2.393 . S
O1567 C1586 1.248 . S
C1568 O1557 1.264 . S
C1568 O1558 1.243 . S
C1569 C1572 1.399 . S
C1569 C1574 1.383 . S
C1569 C1576 1.496 . S
C1570 C1571 1.399 . S
C1570 C1574 1.389 . S
C1571 C1570 1.399 . S
C1571 C1573 1.380 . S
C1571 H1588 0.929 . S
C1572 C1569 1.399 . S
C1572 C1573 1.392 . S
C1572 H1589 0.929 . S
C1573 C1571 1.380 . S
C1573 C1572 1.392 . S
C1573 H1590 0.929 . S
C1574 C1569 1.383 . S
C1574 C1570 1.389 . S
C1574 H1591 0.931 . S
C1575 O1560 1.266 . S
C1575 O1561 1.248 . S
C1576 Tb1512 2.802 . S
C1576 O1556 1.264 . S
C1576 O1559 1.256 . S
C1576 C1569 1.496 . S
C1577 C1544 1.448 . S
C1577 H1554 0.930 . S
C1577 C1578 1.328 . S
C1578 C1549 1.427 . S
C1578 H1555 0.929 . S
C1578 C1577 1.328 . S
C1579 O1563 1.264 . S
C1579 O1564 1.243 . S
C1580 C1583 1.399 . S
C1580 C1584 1.383 . S
C1580 C1587 1.496 . S
C1581 C1582 1.399 . S
C1581 C1584 1.389 . S
C1582 C1581 1.399 . S
C1582 C1585 1.380 . S
C1582 H1592 0.929 . S
C1583 C1580 1.399 . S
C1583 C1585 1.392 . S
C1583 H1593 0.929 . S
C1584 C1580 1.383 . S
C1584 C1581 1.389 . S
C1584 H1594 0.931 . S
C1585 C1582 1.380 . S
C1585 C1583 1.392 . S
C1585 H1595 0.929 . S
C1586 O1566 1.266 . S
C1586 O1567 1.248 . S
C1587 Tb1523 2.802 . S
C1587 O1562 1.264 . S
C1587 O1565 1.256 . S
C1587 C1580 1.496 . S
H1588 C1571 0.929 . S
H1589 C1572 0.929 . S
H1590 C1573 0.929 . S
H1591 C1574 0.931 . S
H1592 C1582 0.929 . S
H1593 C1583 0.929 . S
H1594 C1584 0.931 . S
H1595 C1585 0.929 . S
Tb1596 N1625 2.617 . S
Tb1596 N1631 2.572 1_565 S
Tb1596 O1640 2.465 1_565 S
Tb1596 O1641 2.387 . S
Tb1596 O1643 2.428 1_565 S
Tb1596 O1644 2.308 . S
Tb1596 O1648 2.349 . S
Tb1596 O1651 2.393 . S
Tb1596 C1660 2.802 1_565 S
C1597 N1598 1.379 . S
C1597 C1600 1.416 . S
C1597 C1604 1.424 . S
N1598 C1597 1.379 . S
N1598 C1601 1.334 . S
N1598 Tb1607 2.617 . S
C1599 C1601 1.390 . S
C1599 C1602 1.339 . S
C1599 H1619 0.930 . S
C1600 C1597 1.416 . S
C1600 C1602 1.416 . S
C1600 C1606 1.448 . S
C1601 N1598 1.334 . S
C1601 C1599 1.390 . S
C1601 H1612 0.930 . S
C1602 C1599 1.339 . S
C1602 C1600 1.416 . S
C1602 H1623 0.930 . S
C1603 C1604 1.413 . S
C1603 C1605 1.427 . S
C1603 C1609 1.416 . S
C1604 C1597 1.424 . S
C1604 C1603 1.413 . S
C1604 N1608 1.361 . S
C1605 C1603 1.427 . S
C1605 C1606 1.328 . S
C1605 H1620 0.929 . S
C1606 C1600 1.448 . S
C1606 C1605 1.328 . S
C1606 H1621 0.930 . S
Tb1607 N1598 2.617 . S
Tb1607 N1608 2.572 . S
Tb1607 O1642 2.349 . S
Tb1607 O1645 2.393 . S
Tb1607 O1646 2.465 . S
Tb1607 O1647 2.387 . S
Tb1607 O1649 2.428 . S
Tb1607 O1650 2.308 . S
Tb1607 C1671 2.802 . S
N1608 C1604 1.361 . S
N1608 Tb1607 2.572 . S
N1608 C1610 1.340 . S
C1609 C1603 1.416 . S
C1609 C1611 1.332 . S
C1609 H1617 0.931 . S
C1610 N1608 1.340 . S
C1610 C1611 1.407 . S
C1610 H1616 0.930 . S
C1611 C1609 1.332 . S
C1611 C1610 1.407 . S
C1611 H1613 0.929 . S
H1612 C1601 0.930 . S
H1613 C1611 0.929 . S
H1614 C1629 0.930 . S
H1615 C1636 0.929 . S
H1616 C1610 0.930 . S
H1617 C1609 0.931 . S
H1618 C1632 0.930 . S
H1619 C1599 0.930 . S
H1620 C1605 0.929 . S
H1621 C1606 0.930 . S
H1622 C1627 0.930 . S
H1623 C1602 0.930 . S
H1624 C1635 0.931 . S
N1625 Tb1596 2.617 . S
N1625 C1626 1.379 1_565 S
N1625 C1629 1.334 . S
C1626 N1625 1.379 1_545 S
C1626 C1628 1.416 . S
C1626 C1634 1.424 . S
C1627 H1622 0.930 . S
C1627 C1629 1.390 . S
C1627 C1630 1.339 1_565 S
C1628 C1626 1.416 . S
C1628 C1630 1.416 . S
C1628 C1661 1.448 . S
C1629 H1614 0.930 . S
C1629 N1625 1.334 . S
C1629 C1627 1.390 . S
C1630 C1627 1.339 1_545 S
C1630 C1628 1.416 . S
C1630 H1637 0.930 . S
N1631 Tb1596 2.572 1_545 S
N1631 C1632 1.340 . S
N1631 C1634 1.361 . S
C1632 H1618 0.930 . S
C1632 N1631 1.340 . S
C1632 C1636 1.407 . S
C1633 C1634 1.413 . S
C1633 C1635 1.416 . S
C1633 C1662 1.427 . S
C1634 C1626 1.424 . S
C1634 N1631 1.361 . S
C1634 C1633 1.413 . S
C1635 H1624 0.931 . S
C1635 C1633 1.416 . S
C1635 C1636 1.332 . S
C1636 H1615 0.929 . S
C1636 C1632 1.407 . S
C1636 C1635 1.332 . S
H1637 C1630 0.930 . S
H1638 C1661 0.930 . S
H1639 C1662 0.929 . S
O1640 Tb1596 2.465 1_545 S
O1640 C1660 1.264 . S
O1641 Tb1596 2.387 . S
O1641 C1652 1.264 . S
O1642 Tb1607 2.349 . S
O1642 C1652 1.243 . S
O1643 Tb1596 2.428 1_545 S
O1643 C1660 1.256 . S
O1644 Tb1596 2.308 . S
O1644 C1659 1.266 . S
O1645 Tb1607 2.393 . S
O1645 C1659 1.248 . S
O1646 Tb1607 2.465 . S
O1646 C1671 1.264 . S
O1647 Tb1607 2.387 . S
O1647 C1663 1.264 . S
O1648 Tb1596 2.349 . S
O1648 C1663 1.243 . S
O1649 Tb1607 2.428 . S
O1649 C1671 1.256 . S
O1650 Tb1607 2.308 . S
O1650 C1670 1.266 . S
O1651 Tb1596 2.393 . S
O1651 C1670 1.248 . S
C1652 O1641 1.264 . S
C1652 O1642 1.243 . S
C1653 C1656 1.399 . S
C1653 C1658 1.383 . S
C1653 C1660 1.496 . S
C1654 C1655 1.399 . S
C1654 C1658 1.389 . S
C1655 C1654 1.399 . S
C1655 C1657 1.380 . S
C1655 H1672 0.929 1_655 S
C1656 C1653 1.399 . S
C1656 C1657 1.392 . S
C1656 H1673 0.929 . S
C1657 C1655 1.380 . S
C1657 C1656 1.392 . S
C1657 H1674 0.929 . S
C1658 C1653 1.383 . S
C1658 C1654 1.389 . S
C1658 H1675 0.931 . S
C1659 O1644 1.266 . S
C1659 O1645 1.248 . S
C1660 Tb1596 2.802 1_545 S
C1660 O1640 1.264 . S
C1660 O1643 1.256 . S
C1660 C1653 1.496 . S
C1661 C1628 1.448 . S
C1661 H1638 0.930 . S
C1661 C1662 1.328 . S
C1662 C1633 1.427 . S
C1662 H1639 0.929 . S
C1662 C1661 1.328 . S
C1663 O1647 1.264 . S
C1663 O1648 1.243 . S
C1664 C1667 1.399 . S
C1664 C1668 1.383 . S
C1664 C1671 1.496 . S
C1665 C1666 1.399 . S
C1665 C1668 1.389 . S
C1666 C1665 1.399 . S
C1666 C1669 1.380 . S
C1666 H1676 0.929 . S
C1667 C1664 1.399 . S
C1667 C1669 1.392 . S
C1667 H1677 0.929 . S
C1668 C1664 1.383 . S
C1668 C1665 1.389 . S
C1668 H1678 0.931 . S
C1669 C1666 1.380 . S
C1669 C1667 1.392 . S
C1669 H1679 0.929 . S
C1670 O1650 1.266 . S
C1670 O1651 1.248 . S
C1671 Tb1607 2.802 . S
C1671 O1646 1.264 . S
C1671 O1649 1.256 . S
C1671 C1664 1.496 . S
H1672 C1655 0.929 1_455 S
H1673 C1656 0.929 . S
H1674 C1657 0.929 . S
H1675 C1658 0.931 . S
H1676 C1666 0.929 . S
H1677 C1667 0.929 . S
H1678 C1668 0.931 . S
H1679 C1669 0.929 . S
Tb1680 N1709 2.617 . S
Tb1680 N1715 2.572 . S
Tb1680 O1724 2.465 . S
Tb1680 O1725 2.387 . S
Tb1680 O1727 2.428 . S
Tb1680 O1728 2.308 . S
Tb1680 O1732 2.349 . S
Tb1680 O1735 2.393 . S
Tb1680 C1744 2.802 . S
C1681 N1682 1.379 . S
C1681 C1684 1.416 1_565 S
C1681 C1688 1.424 1_565 S
N1682 C1681 1.379 . S
N1682 C1685 1.334 . S
N1682 Tb1691 2.617 . S
C1683 C1685 1.390 . S
C1683 C1686 1.339 1_565 S
C1683 H1703 0.930 . S
C1684 C1681 1.416 1_545 S
C1684 C1686 1.416 . S
C1684 C1690 1.448 . S
C1685 N1682 1.334 . S
C1685 C1683 1.390 . S
C1685 H1696 0.930 . S
C1686 C1683 1.339 1_545 S
C1686 C1684 1.416 . S
C1686 H1707 0.930 . S
C1687 C1688 1.413 . S
C1687 C1689 1.427 . S
C1687 C1693 1.416 . S
C1688 C1681 1.424 1_545 S
C1688 C1687 1.413 . S
C1688 N1692 1.361 1_545 S
C1689 C1687 1.427 . S
C1689 C1690 1.328 . S
C1689 H1704 0.929 . S
C1690 C1684 1.448 . S
C1690 C1689 1.328 . S
C1690 H1705 0.930 . S
Tb1691 N1682 2.617 . S
Tb1691 N1692 2.572 . S
Tb1691 O1726 2.349 . S
Tb1691 O1729 2.393 . S
Tb1691 O1730 2.465 . S
Tb1691 O1731 2.387 . S
Tb1691 O1733 2.428 . S
Tb1691 O1734 2.308 . S
Tb1691 C1755 2.802 . S
N1692 C1688 1.361 1_565 S
N1692 Tb1691 2.572 . S
N1692 C1694 1.340 . S
C1693 C1687 1.416 . S
C1693 C1695 1.332 . S
C1693 H1701 0.931 . S
C1694 N1692 1.340 . S
C1694 C1695 1.407 1_565 S
C1694 H1700 0.930 . S
C1695 C1693 1.332 . S
C1695 C1694 1.407 1_545 S
C1695 H1697 0.929 . S
H1696 C1685 0.930 . S
H1697 C1695 0.929 . S
H1698 C1713 0.930 . S
H1699 C1720 0.929 . S
H1700 C1694 0.930 . S
H1701 C1693 0.931 . S
H1702 C1716 0.930 . S
H1703 C1683 0.930 . S
H1704 C1689 0.929 . S
H1705 C1690 0.930 . S
H1706 C1711 0.930 . S
H1707 C1686 0.930 . S
H1708 C1719 0.931 . S
N1709 Tb1680 2.617 . S
N1709 C1710 1.379 . S
N1709 C1713 1.334 . S
C1710 N1709 1.379 . S
C1710 C1712 1.416 . S
C1710 C1718 1.424 . S
C1711 H1706 0.930 . S
C1711 C1713 1.390 . S
C1711 C1714 1.339 . S
C1712 C1710 1.416 . S
C1712 C1714 1.416 . S
C1712 C1745 1.452 . S
C1713 H1698 0.930 . S
C1713 N1709 1.334 . S
C1713 C1711 1.390 . S
C1714 C1711 1.339 . S
C1714 C1712 1.416 . S
C1714 H1721 0.930 . S
N1715 Tb1680 2.572 . S
N1715 C1716 1.340 . S
N1715 C1718 1.361 . S
C1716 H1702 0.930 . S
C1716 N1715 1.340 . S
C1716 C1720 1.407 1_455 S
C1717 C1718 1.413 1_655 S
C1717 C1719 1.416 . S
C1717 C1746 1.427 . S
C1718 C1710 1.424 . S
C1718 N1715 1.361 . S
C1718 C1717 1.413 1_455 S
C1719 H1708 0.931 . S
C1719 C1717 1.416 . S
C1719 C1720 1.332 . S
C1720 H1699 0.929 . S
C1720 C1716 1.407 1_655 S
C1720 C1719 1.332 . S
H1721 C1714 0.930 . S
H1722 C1745 0.932 1_655 S
H1723 C1746 0.929 . S
O1724 Tb1680 2.465 . S
O1724 C1744 1.264 . S
O1725 Tb1680 2.387 . S
O1725 C1736 1.264 . S
O1726 Tb1691 2.349 . S
O1726 C1736 1.243 . S
O1727 Tb1680 2.428 . S
O1727 C1744 1.256 . S
O1728 Tb1680 2.308 . S
O1728 C1743 1.266 . S
O1729 Tb1691 2.393 . S
O1729 C1743 1.248 . S
O1730 Tb1691 2.465 . S
O1730 C1755 1.264 . S
O1731 Tb1691 2.387 . S
O1731 C1747 1.264 . S
O1732 Tb1680 2.349 . S
O1732 C1747 1.243 . S
O1733 Tb1691 2.428 . S
O1733 C1755 1.256 . S
O1734 Tb1691 2.308 . S
O1734 C1754 1.266 . S
O1735 Tb1680 2.393 . S
O1735 C1754 1.248 . S
C1736 O1725 1.264 . S
C1736 O1726 1.243 . S
C1737 C1740 1.399 . S
C1737 C1742 1.383 . S
C1737 C1744 1.496 1_655 S
C1738 C1739 1.399 . S
C1738 C1742 1.389 . S
C1739 C1738 1.399 . S
C1739 C1741 1.380 . S
C1739 H1756 0.929 . S
C1740 C1737 1.399 . S
C1740 C1741 1.392 . S
C1740 H1757 0.929 . S
C1741 C1739 1.380 . S
C1741 C1740 1.392 . S
C1741 H1758 0.929 . S
C1742 C1737 1.383 . S
C1742 C1738 1.389 . S
C1742 H1759 0.931 . S
C1743 O1728 1.266 . S
C1743 O1729 1.248 . S
C1744 Tb1680 2.802 . S
C1744 O1724 1.264 . S
C1744 O1727 1.256 . S
C1744 C1737 1.496 1_455 S
C1745 C1712 1.452 . S
C1745 H1722 0.932 1_455 S
C1745 C1746 1.324 1_455 S
C1746 C1717 1.427 . S
C1746 H1723 0.929 . S
C1746 C1745 1.324 1_655 S
C1747 O1731 1.264 . S
C1747 O1732 1.243 . S
C1748 C1751 1.399 . S
C1748 C1752 1.383 . S
C1748 C1755 1.496 . S
C1749 C1750 1.399 . S
C1749 C1752 1.389 . S
C1750 C1749 1.399 . S
C1750 C1753 1.380 . S
C1750 H1760 0.929 . S
C1751 C1748 1.399 . S
C1751 C1753 1.392 . S
C1751 H1761 0.929 . S
C1752 C1748 1.383 . S
C1752 C1749 1.389 . S
C1752 H1762 0.931 . S
C1753 C1750 1.380 . S
C1753 C1751 1.392 . S
C1753 H1763 0.929 . S
C1754 O1734 1.266 . S
C1754 O1735 1.248 . S
C1755 Tb1691 2.802 . S
C1755 O1730 1.264 . S
C1755 O1733 1.256 . S
C1755 C1748 1.496 . S
H1756 C1739 0.929 . S
H1757 C1740 0.929 . S
H1758 C1741 0.929 . S
H1759 C1742 0.931 . S
H1760 C1750 0.929 . S
H1761 C1751 0.929 . S
H1762 C1752 0.931 . S
H1763 C1753 0.929 . S
Tb1764 N1793 2.617 . S
Tb1764 N1799 2.572 1_565 S
Tb1764 O1808 2.465 . S
Tb1764 O1809 2.387 . S
Tb1764 O1811 2.428 . S
Tb1764 O1812 2.308 . S
Tb1764 O1816 2.349 . S
Tb1764 O1819 2.393 . S
Tb1764 C1828 2.802 . S
C1765 N1766 1.379 . S
C1765 C1768 1.416 . S
C1765 C1772 1.424 . S
N1766 C1765 1.379 . S
N1766 C1769 1.334 . S
N1766 Tb1775 2.617 . S
C1767 C1769 1.390 . S
C1767 C1770 1.339 . S
C1767 H1787 0.930 . S
C1768 C1765 1.416 . S
C1768 C1770 1.416 . S
C1768 C1774 1.448 . S
C1769 N1766 1.334 . S
C1769 C1767 1.390 . S
C1769 H1780 0.930 . S
C1770 C1767 1.339 . S
C1770 C1768 1.416 . S
C1770 H1791 0.930 . S
C1771 C1772 1.413 . S
C1771 C1773 1.427 . S
C1771 C1777 1.416 . S
C1772 C1765 1.424 . S
C1772 C1771 1.413 . S
C1772 N1776 1.361 . S
C1773 C1771 1.427 . S
C1773 C1774 1.328 . S
C1773 H1788 0.929 . S
C1774 C1768 1.448 . S
C1774 C1773 1.328 . S
C1774 H1789 0.930 . S
Tb1775 N1766 2.617 . S
Tb1775 N1776 2.572 . S
Tb1775 O1810 2.349 . S
Tb1775 O1813 2.393 . S
Tb1775 O1814 2.465 . S
Tb1775 O1815 2.387 . S
Tb1775 O1817 2.428 . S
Tb1775 O1818 2.308 . S
Tb1775 C1839 2.802 . S
N1776 C1772 1.361 . S
N1776 Tb1775 2.572 . S
N1776 C1778 1.340 . S
C1777 C1771 1.416 . S
C1777 C1779 1.332 . S
C1777 H1785 0.931 . S
C1778 N1776 1.340 . S
C1778 C1779 1.407 . S
C1778 H1784 0.930 . S
C1779 C1777 1.332 . S
C1779 C1778 1.407 . S
C1779 H1781 0.929 . S
H1780 C1769 0.930 . S
H1781 C1779 0.929 . S
H1782 C1797 0.930 . S
H1783 C1804 0.929 . S
H1784 C1778 0.930 . S
H1785 C1777 0.931 . S
H1786 C1800 0.930 1_565 S
H1787 C1767 0.930 . S
H1788 C1773 0.929 . S
H1789 C1774 0.930 . S
H1790 C1795 0.930 . S
H1791 C1770 0.930 . S
H1792 C1803 0.931 . S
N1793 Tb1764 2.617 . S
N1793 C1794 1.379 1_565 S
N1793 C1797 1.334 . S
C1794 N1793 1.379 1_545 S
C1794 C1796 1.416 . S
C1794 C1802 1.424 . S
C1795 H1790 0.930 . S
C1795 C1797 1.390 . S
C1795 C1798 1.339 1_565 S
C1796 C1794 1.416 . S
C1796 C1798 1.416 . S
C1796 C1829 1.448 . S
C1797 H1782 0.930 . S
C1797 N1793 1.334 . S
C1797 C1795 1.390 . S
C1798 C1795 1.339 1_545 S
C1798 C1796 1.416 . S
C1798 H1805 0.930 . S
N1799 Tb1764 2.572 1_545 S
N1799 C1800 1.340 . S
N1799 C1802 1.361 . S
C1800 H1786 0.930 1_545 S
C1800 N1799 1.340 . S
C1800 C1804 1.407 . S
C1801 C1802 1.413 . S
C1801 C1803 1.416 . S
C1801 C1830 1.427 . S
C1802 C1794 1.424 . S
C1802 N1799 1.361 . S
C1802 C1801 1.413 . S
C1803 H1792 0.931 . S
C1803 C1801 1.416 . S
C1803 C1804 1.332 . S
C1804 H1783 0.929 . S
C1804 C1800 1.407 . S
C1804 C1803 1.332 . S
H1805 C1798 0.930 . S
H1806 C1829 0.930 . S
H1807 C1830 0.929 . S
O1808 Tb1764 2.465 . S
O1808 C1828 1.264 . S
O1809 Tb1764 2.387 . S
O1809 C1820 1.264 . S
O1810 Tb1775 2.349 . S
O1810 C1820 1.243 . S
O1811 Tb1764 2.428 . S
O1811 C1828 1.256 . S
O1812 Tb1764 2.308 . S
O1812 C1827 1.266 . S
O1813 Tb1775 2.393 . S
O1813 C1827 1.248 . S
O1814 Tb1775 2.465 . S
O1814 C1839 1.264 . S
O1815 Tb1775 2.387 . S
O1815 C1831 1.264 . S
O1816 Tb1764 2.349 . S
O1816 C1831 1.243 . S
O1817 Tb1775 2.428 . S
O1817 C1839 1.256 . S
O1818 Tb1775 2.308 . S
O1818 C1838 1.266 . S
O1819 Tb1764 2.393 . S
O1819 C1838 1.248 . S
C1820 O1809 1.264 . S
C1820 O1810 1.243 . S
C1821 C1824 1.399 . S
C1821 C1826 1.383 . S
C1821 C1828 1.496 . S
C1822 C1823 1.399 . S
C1822 C1826 1.389 . S
C1823 C1822 1.399 . S
C1823 C1825 1.380 . S
C1823 H1840 0.929 . S
C1824 C1821 1.399 . S
C1824 C1825 1.392 . S
C1824 H1841 0.929 . S
C1825 C1823 1.380 . S
C1825 C1824 1.392 . S
C1825 H1842 0.929 . S
C1826 C1821 1.383 . S
C1826 C1822 1.389 . S
C1826 H1843 0.931 . S
C1827 O1812 1.266 . S
C1827 O1813 1.248 . S
C1828 Tb1764 2.802 . S
C1828 O1808 1.264 . S
C1828 O1811 1.256 . S
C1828 C1821 1.496 . S
C1829 C1796 1.448 . S
C1829 H1806 0.930 . S
C1829 C1830 1.328 . S
C1830 C1801 1.427 . S
C1830 H1807 0.929 . S
C1830 C1829 1.328 . S
C1831 O1815 1.264 . S
C1831 O1816 1.243 . S
C1832 C1835 1.399 . S
C1832 C1836 1.383 . S
C1832 C1839 1.496 . S
C1833 C1834 1.399 . S
C1833 C1836 1.389 . S
C1834 C1833 1.399 . S
C1834 C1837 1.380 . S
C1834 H1844 0.929 . S
C1835 C1832 1.399 . S
C1835 C1837 1.392 . S
C1835 H1845 0.929 . S
C1836 C1832 1.383 . S
C1836 C1833 1.389 . S
C1836 H1846 0.931 . S
C1837 C1834 1.380 . S
C1837 C1835 1.392 . S
C1837 H1847 0.929 . S
C1838 O1818 1.266 . S
C1838 O1819 1.248 . S
C1839 Tb1775 2.802 . S
C1839 O1814 1.264 . S
C1839 O1817 1.256 . S
C1839 C1832 1.496 . S
H1840 C1823 0.929 . S
H1841 C1824 0.929 . S
H1842 C1825 0.929 . S
H1843 C1826 0.931 . S
H1844 C1834 0.929 . S
H1845 C1835 0.929 . S
H1846 C1836 0.931 . S
H1847 C1837 0.929 . S
Tb1848 N1877 2.617 . S
Tb1848 N1883 2.572 . S
Tb1848 O1892 2.465 . S
Tb1848 O1893 2.387 . S
Tb1848 O1895 2.428 . S
Tb1848 O1896 2.308 . S
Tb1848 O1900 2.349 . S
Tb1848 O1903 2.393 . S
Tb1848 C1912 2.802 . S
C1849 N1850 1.379 . S
C1849 C1852 1.416 . S
C1849 C1856 1.424 . S
N1850 C1849 1.379 . S
N1850 C1853 1.334 . S
N1850 Tb1859 2.617 . S
C1851 C1853 1.390 . S
C1851 C1854 1.339 . S
C1851 H1871 0.930 . S
C1852 C1849 1.416 . S
C1852 C1854 1.416 . S
C1852 C1858 1.448 1_565 S
C1853 N1850 1.334 . S
C1853 C1851 1.390 . S
C1853 H1864 0.930 . S
C1854 C1851 1.339 . S
C1854 C1852 1.416 . S
C1854 H1875 0.930 . S
C1855 C1856 1.413 1_545 S
C1855 C1857 1.427 . S
C1855 C1861 1.416 . S
C1856 C1849 1.424 . S
C1856 C1855 1.413 1_565 S
C1856 N1860 1.361 . S
C1857 C1855 1.427 . S
C1857 C1858 1.328 . S
C1857 H1872 0.929 . S
C1858 C1852 1.448 1_545 S
C1858 C1857 1.328 . S
C1858 H1873 0.930 . S
Tb1859 N1850 2.617 . S
Tb1859 N1860 2.572 . S
Tb1859 O1894 2.349 . S
Tb1859 O1897 2.393 . S
Tb1859 O1898 2.465 . S
Tb1859 O1899 2.387 . S
Tb1859 O1901 2.428 . S
Tb1859 O1902 2.308 . S
Tb1859 C1923 2.802 . S
N1860 C1856 1.361 . S
N1860 Tb1859 2.572 . S
N1860 C1862 1.340 . S
C1861 C1855 1.416 . S
C1861 C1863 1.332 . S
C1861 H1869 0.931 . S
C1862 N1860 1.340 . S
C1862 C1863 1.407 1_565 S
C1862 H1868 0.930 . S
C1863 C1861 1.332 . S
C1863 C1862 1.407 1_545 S
C1863 H1865 0.929 . S
H1864 C1853 0.930 . S
H1865 C1863 0.929 . S
H1866 C1881 0.930 . S
H1867 C1888 0.929 1_655 S
H1868 C1862 0.930 . S
H1869 C1861 0.931 . S
H1870 C1884 0.930 . S
H1871 C1851 0.930 . S
H1872 C1857 0.929 . S
H1873 C1858 0.930 . S
H1874 C1879 0.930 . S
H1875 C1854 0.930 . S
H1876 C1887 0.931 . S
N1877 Tb1848 2.617 . S
N1877 C1878 1.379 . S
N1877 C1881 1.334 . S
C1878 N1877 1.379 . S
C1878 C1880 1.416 . S
C1878 C1886 1.424 . S
C1879 H1874 0.930 . S
C1879 C1881 1.390 . S
C1879 C1882 1.339 . S
C1880 C1878 1.416 . S
C1880 C1882 1.416 . S
C1880 C1913 1.448 1_455 S
C1881 H1866 0.930 . S
C1881 N1877 1.334 . S
C1881 C1879 1.390 . S
C1882 C1879 1.339 . S
C1882 C1880 1.416 . S
C1882 H1889 0.930 . S
N1883 Tb1848 2.572 . S
N1883 C1884 1.340 . S
N1883 C1886 1.361 . S
C1884 H1870 0.930 . S
C1884 N1883 1.340 . S
C1884 C1888 1.407 . S
C1885 C1886 1.413 1_655 S
C1885 C1887 1.416 . S
C1885 C1914 1.427 . S
C1886 C1878 1.424 . S
C1886 N1883 1.361 . S
C1886 C1885 1.413 1_455 S
C1887 H1876 0.931 . S
C1887 C1885 1.416 . S
C1887 C1888 1.332 1_655 S
C1888 H1867 0.929 1_455 S
C1888 C1884 1.407 . S
C1888 C1887 1.332 1_455 S
H1889 C1882 0.930 . S
H1890 C1913 0.930 . S
H1891 C1914 0.929 . S
O1892 Tb1848 2.465 . S
O1892 C1912 1.264 . S
O1893 Tb1848 2.387 . S
O1893 C1904 1.264 . S
O1894 Tb1859 2.349 . S
O1894 C1904 1.243 . S
O1895 Tb1848 2.428 . S
O1895 C1912 1.256 . S
O1896 Tb1848 2.308 . S
O1896 C1911 1.266 . S
O1897 Tb1859 2.393 . S
O1897 C1911 1.248 . S
O1898 Tb1859 2.465 . S
O1898 C1923 1.264 . S
O1899 Tb1859 2.387 . S
O1899 C1915 1.264 . S
O1900 Tb1848 2.349 . S
O1900 C1915 1.243 . S
O1901 Tb1859 2.428 . S
O1901 C1923 1.256 . S
O1902 Tb1859 2.308 . S
O1902 C1922 1.266 . S
O1903 Tb1848 2.393 . S
O1903 C1922 1.248 . S
C1904 O1893 1.264 . S
C1904 O1894 1.243 . S
C1905 C1908 1.399 . S
C1905 C1910 1.383 . S
C1905 C1912 1.496 . S
C1906 C1907 1.399 . S
C1906 C1910 1.389 . S
C1907 C1906 1.399 . S
C1907 C1909 1.380 . S
C1907 H1924 0.929 . S
C1908 C1905 1.399 . S
C1908 C1909 1.392 . S
C1908 H1925 0.929 . S
C1909 C1907 1.380 . S
C1909 C1908 1.392 . S
C1909 H1926 0.929 . S
C1910 C1905 1.383 . S
C1910 C1906 1.389 . S
C1910 H1927 0.931 . S
C1911 O1896 1.266 . S
C1911 O1897 1.248 . S
C1912 Tb1848 2.802 . S
C1912 O1892 1.264 . S
C1912 O1895 1.256 . S
C1912 C1905 1.496 . S
C1913 C1880 1.448 1_655 S
C1913 H1890 0.930 . S
C1913 C1914 1.328 . S
C1914 C1885 1.427 . S
C1914 H1891 0.929 . S
C1914 C1913 1.328 . S
C1915 O1899 1.264 . S
C1915 O1900 1.243 . S
C1916 C1919 1.399 . S
C1916 C1920 1.383 . S
C1916 C1923 1.496 1_545 S
C1917 C1918 1.399 . S
C1917 C1920 1.389 . S
C1918 C1917 1.399 . S
C1918 C1921 1.380 . S
C1918 H1928 0.929 . S
C1919 C1916 1.399 . S
C1919 C1921 1.392 . S
C1919 H1929 0.929 . S
C1920 C1916 1.383 . S
C1920 C1917 1.389 . S
C1920 H1930 0.931 . S
C1921 C1918 1.380 . S
C1921 C1919 1.392 . S
C1921 H1931 0.929 . S
C1922 O1902 1.266 . S
C1922 O1903 1.248 . S
C1923 Tb1859 2.802 . S
C1923 O1898 1.264 . S
C1923 O1901 1.256 . S
C1923 C1916 1.496 1_565 S
H1924 C1907 0.929 . S
H1925 C1908 0.929 . S
H1926 C1909 0.929 . S
H1927 C1910 0.931 . S
H1928 C1918 0.929 . S
H1929 C1919 0.929 . S
H1930 C1920 0.931 . S
H1931 C1921 0.929 . S
Tb1932 N1961 2.617 . S
Tb1932 N1967 2.572 . S
Tb1932 O1976 2.465 . S
Tb1932 O1977 2.387 . S
Tb1932 O1979 2.428 . S
Tb1932 O1980 2.308 . S
Tb1932 O1984 2.349 . S
Tb1932 O1987 2.393 . S
Tb1932 C1996 2.802 . S
C1933 N1934 1.379 . S
C1933 C1936 1.416 . S
C1933 C1940 1.424 . S
N1934 C1933 1.379 . S
N1934 C1937 1.334 . S
N1934 Tb1943 2.617 . S
C1935 C1937 1.390 . S
C1935 C1938 1.339 . S
C1935 H1955 0.930 . S
C1936 C1933 1.416 . S
C1936 C1938 1.416 . S
C1936 C1942 1.448 . S
C1937 N1934 1.334 . S
C1937 C1935 1.390 . S
C1937 H1948 0.930 . S
C1938 C1935 1.339 . S
C1938 C1936 1.416 . S
C1938 H1959 0.930 . S
C1939 C1940 1.413 . S
C1939 C1941 1.427 . S
C1939 C1945 1.416 . S
C1940 C1933 1.424 . S
C1940 C1939 1.413 . S
C1940 N1944 1.361 . S
C1941 C1939 1.427 . S
C1941 C1942 1.328 . S
C1941 H1956 0.929 . S
C1942 C1936 1.448 . S
C1942 C1941 1.328 . S
C1942 H1957 0.930 . S
Tb1943 N1934 2.617 . S
Tb1943 N1944 2.572 . S
Tb1943 O1978 2.349 . S
Tb1943 O1981 2.393 . S
Tb1943 O1982 2.465 . S
Tb1943 O1983 2.387 . S
Tb1943 O1985 2.428 . S
Tb1943 O1986 2.308 . S
Tb1943 C2007 2.802 . S
N1944 C1940 1.361 . S
N1944 Tb1943 2.572 . S
N1944 C1946 1.340 . S
C1945 C1939 1.416 . S
C1945 C1947 1.332 . S
C1945 H1953 0.931 . S
C1946 N1944 1.340 . S
C1946 C1947 1.407 . S
C1946 H1952 0.930 . S
C1947 C1945 1.332 . S
C1947 C1946 1.407 . S
C1947 H1949 0.929 . S
H1948 C1937 0.930 . S
H1949 C1947 0.929 . S
H1950 C1965 0.930 . S
H1951 C1972 0.929 . S
H1952 C1946 0.930 . S
H1953 C1945 0.931 . S
H1954 C1968 0.930 . S
H1955 C1935 0.930 . S
H1956 C1941 0.929 . S
H1957 C1942 0.930 . S
H1958 C1963 0.930 . S
H1959 C1938 0.930 . S
H1960 C1971 0.931 . S
N1961 Tb1932 2.617 . S
N1961 C1962 1.379 . S
N1961 C1965 1.334 . S
C1962 N1961 1.379 . S
C1962 C1964 1.416 . S
C1962 C1970 1.424 . S
C1963 H1958 0.930 . S
C1963 C1965 1.390 . S
C1963 C1966 1.339 . S
C1964 C1962 1.416 . S
C1964 C1966 1.416 . S
C1964 C1997 1.448 . S
C1965 H1950 0.930 . S
C1965 N1961 1.334 . S
C1965 C1963 1.390 . S
C1966 C1963 1.339 . S
C1966 C1964 1.416 . S
C1966 H1973 0.930 . S
N1967 Tb1932 2.572 . S
N1967 C1968 1.340 . S
N1967 C1970 1.361 . S
C1968 H1954 0.930 . S
C1968 N1967 1.340 . S
C1968 C1972 1.407 . S
C1969 C1970 1.413 . S
C1969 C1971 1.416 . S
C1969 C1998 1.427 . S
C1970 C1962 1.424 . S
C1970 N1967 1.361 . S
C1970 C1969 1.413 . S
C1971 H1960 0.931 . S
C1971 C1969 1.416 . S
C1971 C1972 1.332 . S
C1972 H1951 0.929 . S
C1972 C1968 1.407 . S
C1972 C1971 1.332 . S
H1973 C1966 0.930 . S
H1974 C1997 0.930 . S
H1975 C1998 0.929 . S
O1976 Tb1932 2.465 . S
O1976 C1996 1.264 . S
O1977 Tb1932 2.387 . S
O1977 C1988 1.264 . S
O1978 Tb1943 2.349 . S
O1978 C1988 1.243 . S
O1979 Tb1932 2.428 . S
O1979 C1996 1.256 . S
O1980 Tb1932 2.308 . S
O1980 C1995 1.266 . S
O1981 Tb1943 2.393 . S
O1981 C1995 1.248 . S
O1982 Tb1943 2.465 . S
O1982 C2007 1.264 . S
O1983 Tb1943 2.387 . S
O1983 C1999 1.264 . S
O1984 Tb1932 2.349 . S
O1984 C1999 1.243 . S
O1985 Tb1943 2.428 . S
O1985 C2007 1.256 . S
O1986 Tb1943 2.308 . S
O1986 C2006 1.266 . S
O1987 Tb1932 2.393 . S
O1987 C2006 1.248 . S
C1988 O1977 1.264 . S
C1988 O1978 1.243 . S
C1989 C1992 1.399 . S
C1989 C1994 1.383 . S
C1989 C1996 1.496 . S
C1990 C1991 1.399 . S
C1990 C1994 1.389 . S
C1991 C1990 1.399 . S
C1991 C1993 1.380 . S
C1991 H2008 0.929 . S
C1992 C1989 1.399 . S
C1992 C1993 1.392 . S
C1992 H2009 0.929 . S
C1993 C1991 1.380 . S
C1993 C1992 1.392 . S
C1993 H2010 0.929 . S
C1994 C1989 1.383 . S
C1994 C1990 1.389 . S
C1994 H2011 0.931 . S
C1995 O1980 1.266 . S
C1995 O1981 1.248 . S
C1996 Tb1932 2.802 . S
C1996 O1976 1.264 . S
C1996 O1979 1.256 . S
C1996 C1989 1.496 . S
C1997 C1964 1.448 . S
C1997 H1974 0.930 . S
C1997 C1998 1.328 . S
C1998 C1969 1.427 . S
C1998 H1975 0.929 . S
C1998 C1997 1.328 . S
C1999 O1983 1.264 . S
C1999 O1984 1.243 . S
C2000 C2003 1.399 . S
C2000 C2004 1.383 . S
C2000 C2007 1.496 . S
C2001 C2002 1.399 . S
C2001 C2004 1.389 1_655 S
C2002 C2001 1.399 . S
C2002 C2005 1.380 . S
C2002 H2012 0.929 . S
C2003 C2000 1.399 . S
C2003 C2005 1.392 1_455 S
C2003 H2013 0.929 . S
C2004 C2000 1.383 . S
C2004 C2001 1.389 1_455 S
C2004 H2014 0.931 . S
C2005 C2002 1.380 . S
C2005 C2003 1.392 1_655 S
C2005 H2015 0.929 . S
C2006 O1986 1.266 . S
C2006 O1987 1.248 . S
C2007 Tb1943 2.802 . S
C2007 O1982 1.264 . S
C2007 O1985 1.256 . S
C2007 C2000 1.496 . S
H2008 C1991 0.929 . S
H2009 C1992 0.929 . S
H2010 C1993 0.929 . S
H2011 C1994 0.931 . S
H2012 C2002 0.929 . S
H2013 C2003 0.929 . S
H2014 C2004 0.931 . S
H2015 C2005 0.929 . S
Tb2016 N2045 2.617 . S
Tb2016 N2051 2.572 . S
Tb2016 O2060 2.465 . S
Tb2016 O2061 2.387 . S
Tb2016 O2063 2.428 . S
Tb2016 O2064 2.308 . S
Tb2016 O2068 2.349 . S
Tb2016 O2071 2.393 . S
Tb2016 C2080 2.802 . S
C2017 N2018 1.379 . S
C2017 C2020 1.416 . S
C2017 C2024 1.424 . S
N2018 C2017 1.379 . S
N2018 C2021 1.334 . S
N2018 Tb2027 2.617 . S
C2019 C2021 1.390 . S
C2019 C2022 1.339 . S
C2019 H2039 0.930 . S
C2020 C2017 1.416 . S
C2020 C2022 1.416 . S
C2020 C2026 1.448 . S
C2021 N2018 1.334 . S
C2021 C2019 1.390 . S
C2021 H2032 0.930 . S
C2022 C2019 1.339 . S
C2022 C2020 1.416 . S
C2022 H2043 0.930 . S
C2023 C2024 1.413 . S
C2023 C2025 1.427 . S
C2023 C2029 1.416 . S
C2024 C2017 1.424 . S
C2024 C2023 1.413 . S
C2024 N2028 1.361 . S
C2025 C2023 1.427 . S
C2025 C2026 1.328 . S
C2025 H2040 0.929 . S
C2026 C2020 1.448 . S
C2026 C2025 1.328 . S
C2026 H2041 0.930 . S
Tb2027 N2018 2.617 . S
Tb2027 N2028 2.572 . S
Tb2027 O2062 2.349 . S
Tb2027 O2065 2.393 . S
Tb2027 O2066 2.465 . S
Tb2027 O2067 2.387 . S
Tb2027 O2069 2.428 . S
Tb2027 O2070 2.308 . S
Tb2027 C2091 2.802 . S
N2028 C2024 1.361 . S
N2028 Tb2027 2.572 . S
N2028 C2030 1.340 . S
C2029 C2023 1.416 . S
C2029 C2031 1.332 . S
C2029 H2037 0.931 . S
C2030 N2028 1.340 . S
C2030 C2031 1.407 . S
C2030 H2036 0.930 . S
C2031 C2029 1.332 . S
C2031 C2030 1.407 . S
C2031 H2033 0.929 . S
H2032 C2021 0.930 . S
H2033 C2031 0.929 . S
H2034 C2049 0.930 . S
H2035 C2056 0.929 . S
H2036 C2030 0.930 . S
H2037 C2029 0.931 . S
H2038 C2052 0.930 . S
H2039 C2019 0.930 . S
H2040 C2025 0.929 . S
H2041 C2026 0.930 . S
H2042 C2047 0.930 . S
H2043 C2022 0.930 . S
H2044 C2055 0.931 . S
N2045 Tb2016 2.617 . S
N2045 C2046 1.379 . S
N2045 C2049 1.334 . S
C2046 N2045 1.379 . S
C2046 C2048 1.416 1_655 S
C2046 C2054 1.424 1_655 S
C2047 H2042 0.930 . S
C2047 C2049 1.390 . S
C2047 C2050 1.339 1_655 S
C2048 C2046 1.416 1_455 S
C2048 C2050 1.416 . S
C2048 C2081 1.448 . S
C2049 H2034 0.930 . S
C2049 N2045 1.334 . S
C2049 C2047 1.390 . S
C2050 C2047 1.339 1_455 S
C2050 C2048 1.416 . S
C2050 H2057 0.930 . S
N2051 Tb2016 2.572 . S
N2051 C2052 1.340 . S
N2051 C2054 1.361 1_655 S
C2052 H2038 0.930 . S
C2052 N2051 1.340 . S
C2052 C2056 1.407 1_655 S
C2053 C2054 1.413 . S
C2053 C2055 1.416 . S
C2053 C2082 1.427 . S
C2054 C2046 1.424 1_455 S
C2054 N2051 1.361 1_455 S
C2054 C2053 1.413 . S
C2055 H2044 0.931 . S
C2055 C2053 1.416 . S
C2055 C2056 1.332 . S
C2056 H2035 0.929 . S
C2056 C2052 1.407 1_455 S
C2056 C2055 1.332 . S
H2057 C2050 0.930 . S
H2058 C2081 0.930 . S
H2059 C2082 0.929 . S
O2060 Tb2016 2.465 . S
O2060 C2080 1.264 . S
O2061 Tb2016 2.387 . S
O2061 C2072 1.264 . S
O2062 Tb2027 2.349 . S
O2062 C2072 1.243 . S
O2063 Tb2016 2.428 . S
O2063 C2080 1.256 . S
O2064 Tb2016 2.308 . S
O2064 C2079 1.266 . S
O2065 Tb2027 2.393 . S
O2065 C2079 1.248 . S
O2066 Tb2027 2.465 . S
O2066 C2091 1.264 . S
O2067 Tb2027 2.387 . S
O2067 C2083 1.264 . S
O2068 Tb2016 2.349 . S
O2068 C2083 1.243 . S
O2069 Tb2027 2.428 . S
O2069 C2091 1.256 . S
O2070 Tb2027 2.308 . S
O2070 C2090 1.266 . S
O2071 Tb2016 2.393 . S
O2071 C2090 1.248 . S
C2072 O2061 1.264 . S
C2072 O2062 1.243 . S
C2073 C2076 1.399 . S
C2073 C2078 1.383 . S
C2073 C2080 1.496 . S
C2074 C2075 1.399 . S
C2074 C2078 1.389 . S
C2075 C2074 1.399 . S
C2075 C2077 1.380 . S
C2075 H2092 0.929 . S
C2076 C2073 1.399 . S
C2076 C2077 1.392 . S
C2076 H2093 0.929 . S
C2077 C2075 1.380 . S
C2077 C2076 1.392 . S
C2077 H2094 0.929 . S
C2078 C2073 1.383 . S
C2078 C2074 1.389 . S
C2078 H2095 0.931 . S
C2079 O2064 1.266 . S
C2079 O2065 1.248 . S
C2080 Tb2016 2.802 . S
C2080 O2060 1.264 . S
C2080 O2063 1.256 . S
C2080 C2073 1.496 . S
C2081 C2048 1.448 . S
C2081 H2058 0.930 . S
C2081 C2082 1.328 . S
C2082 C2053 1.427 . S
C2082 H2059 0.929 . S
C2082 C2081 1.328 . S
C2083 O2067 1.264 . S
C2083 O2068 1.243 . S
C2084 C2087 1.399 . S
C2084 C2088 1.383 . S
C2084 C2091 1.496 . S
C2085 C2086 1.399 . S
C2085 C2088 1.389 . S
C2086 C2085 1.399 . S
C2086 C2089 1.380 . S
C2086 H2096 0.929 1_565 S
C2087 C2084 1.399 . S
C2087 C2089 1.392 . S
C2087 H2097 0.929 . S
C2088 C2084 1.383 . S
C2088 C2085 1.389 . S
C2088 H2098 0.931 . S
C2089 C2086 1.380 . S
C2089 C2087 1.392 . S
C2089 H2099 0.929 . S
C2090 O2070 1.266 . S
C2090 O2071 1.248 . S
C2091 Tb2027 2.802 . S
C2091 O2066 1.264 . S
C2091 O2069 1.256 . S
C2091 C2084 1.496 . S
H2092 C2075 0.929 . S
H2093 C2076 0.929 . S
H2094 C2077 0.929 . S
H2095 C2078 0.931 . S
H2096 C2086 0.929 1_545 S
H2097 C2087 0.929 . S
H2098 C2088 0.931 . S
H2099 C2089 0.929 . S
Tb2100 N2129 2.617 . S
Tb2100 N2135 2.572 . S
Tb2100 O2144 2.465 . S
Tb2100 O2145 2.387 . S
Tb2100 O2147 2.428 . S
Tb2100 O2148 2.308 . S
Tb2100 O2152 2.349 . S
Tb2100 O2155 2.393 . S
Tb2100 C2164 2.802 . S
C2101 N2102 1.379 . S
C2101 C2104 1.416 . S
C2101 C2108 1.424 . S
N2102 C2101 1.379 . S
N2102 C2105 1.334 . S
N2102 Tb2111 2.617 . S
C2103 C2105 1.390 . S
C2103 C2106 1.339 . S
C2103 H2123 0.930 . S
C2104 C2101 1.416 . S
C2104 C2106 1.416 . S
C2104 C2110 1.471 . S
C2105 N2102 1.334 . S
C2105 C2103 1.390 . S
C2105 H2116 0.930 . S
C2106 C2103 1.339 . S
C2106 C2104 1.416 . S
C2106 H2127 0.930 . S
C2107 C2108 1.413 1_565 S
C2107 C2109 1.427 . S
C2107 C2113 1.416 . S
C2108 C2101 1.424 . S
C2108 C2107 1.413 1_545 S
C2108 N2112 1.361 . S
C2109 C2107 1.427 . S
C2109 C2110 1.319 1_565 S
C2109 H2124 0.929 . S
C2110 C2104 1.471 . S
C2110 C2109 1.319 1_545 S
C2110 H2125 0.917 1_545 S
Tb2111 N2102 2.617 . S
Tb2111 N2112 2.572 . S
Tb2111 O2146 2.349 . S
Tb2111 O2149 2.393 . S
Tb2111 O2150 2.465 . S
Tb2111 O2151 2.387 . S
Tb2111 O2153 2.428 . S
Tb2111 O2154 2.308 . S
Tb2111 C2175 2.802 . S
N2112 C2108 1.361 . S
N2112 Tb2111 2.572 . S
N2112 C2114 1.340 . S
C2113 C2107 1.416 . S
C2113 C2115 1.332 . S
C2113 H2121 0.931 . S
C2114 N2112 1.340 . S
C2114 C2115 1.407 1_545 S
C2114 H2120 0.930 . S
C2115 C2113 1.332 . S
C2115 C2114 1.407 1_565 S
C2115 H2117 0.929 . S
H2116 C2105 0.930 . S
H2117 C2115 0.929 . S
H2118 C2133 0.930 . S
H2119 C2140 0.929 . S
H2120 C2114 0.930 . S
H2121 C2113 0.931 . S
H2122 C2136 0.930 . S
H2123 C2103 0.930 . S
H2124 C2109 0.929 . S
H2125 C2110 0.917 1_565 S
H2126 C2131 0.930 . S
H2127 C2106 0.930 . S
H2128 C2139 0.931 . S
N2129 Tb2100 2.617 . S
N2129 C2130 1.379 . S
N2129 C2133 1.334 . S
C2130 N2129 1.379 . S
C2130 C2132 1.416 . S
C2130 C2138 1.424 . S
C2131 H2126 0.930 . S
C2131 C2133 1.390 . S
C2131 C2134 1.339 . S
C2132 C2130 1.416 . S
C2132 C2134 1.416 . S
C2132 C2165 1.448 . S
C2133 H2118 0.930 . S
C2133 N2129 1.334 . S
C2133 C2131 1.390 . S
C2134 C2131 1.339 . S
C2134 C2132 1.416 . S
C2134 H2141 0.930 . S
N2135 Tb2100 2.572 . S
N2135 C2136 1.340 . S
N2135 C2138 1.361 . S
C2136 H2122 0.930 . S
C2136 N2135 1.340 . S
C2136 C2140 1.407 . S
C2137 C2138 1.413 . S
C2137 C2139 1.416 . S
C2137 C2166 1.427 . S
C2138 C2130 1.424 . S
C2138 N2135 1.361 . S
C2138 C2137 1.413 . S
C2139 H2128 0.931 . S
C2139 C2137 1.416 . S
C2139 C2140 1.332 . S
C2140 H2119 0.929 . S
C2140 C2136 1.407 . S
C2140 C2139 1.332 . S
H2141 C2134 0.930 . S
H2142 C2165 0.930 . S
H2143 C2166 0.929 . S
O2144 Tb2100 2.465 . S
O2144 C2164 1.264 . S
O2145 Tb2100 2.387 . S
O2145 C2156 1.264 . S
O2146 Tb2111 2.349 . S
O2146 C2156 1.243 . S
O2147 Tb2100 2.428 . S
O2147 C2164 1.256 . S
O2148 Tb2100 2.308 . S
O2148 C2163 1.266 . S
O2149 Tb2111 2.393 . S
O2149 C2163 1.248 . S
O2150 Tb2111 2.465 . S
O2150 C2175 1.264 . S
O2151 Tb2111 2.387 . S
O2151 C2167 1.264 . S
O2152 Tb2100 2.349 . S
O2152 C2167 1.243 . S
O2153 Tb2111 2.428 . S
O2153 C2175 1.256 . S
O2154 Tb2111 2.308 . S
O2154 C2174 1.266 . S
O2155 Tb2100 2.393 . S
O2155 C2174 1.248 . S
C2156 O2145 1.264 . S
C2156 O2146 1.243 . S
C2157 C2160 1.399 . S
C2157 C2162 1.383 . S
C2157 C2164 1.496 . S
C2158 C2159 1.399 . S
C2158 C2162 1.389 . S
C2159 C2158 1.399 . S
C2159 C2161 1.380 . S
C2159 H2176 0.929 . S
C2160 C2157 1.399 . S
C2160 C2161 1.392 . S
C2160 H2177 0.929 . S
C2161 C2159 1.380 . S
C2161 C2160 1.392 . S
C2161 H2178 0.929 . S
C2162 C2157 1.383 . S
C2162 C2158 1.389 . S
C2162 H2179 0.931 . S
C2163 O2148 1.266 . S
C2163 O2149 1.248 . S
C2164 Tb2100 2.802 . S
C2164 O2144 1.264 . S
C2164 O2147 1.256 . S
C2164 C2157 1.496 . S
C2165 C2132 1.448 . S
C2165 H2142 0.930 . S
C2165 C2166 1.328 . S
C2166 C2137 1.427 . S
C2166 H2143 0.929 . S
C2166 C2165 1.328 . S
C2167 O2151 1.264 . S
C2167 O2152 1.243 . S
C2168 C2171 1.399 . S
C2168 C2172 1.383 . S
C2168 C2175 1.496 1_565 S
C2169 C2170 1.399 . S
C2169 C2172 1.389 . S
C2170 C2169 1.399 . S
C2170 C2173 1.380 . S
C2170 H2180 0.929 . S
C2171 C2168 1.399 . S
C2171 C2173 1.392 . S
C2171 H2181 0.929 . S
C2172 C2168 1.383 . S
C2172 C2169 1.389 . S
C2172 H2182 0.931 . S
C2173 C2170 1.380 . S
C2173 C2171 1.392 . S
C2173 H2183 0.929 . S
C2174 O2154 1.266 . S
C2174 O2155 1.248 . S
C2175 Tb2111 2.802 . S
C2175 O2150 1.264 . S
C2175 O2153 1.256 . S
C2175 C2168 1.496 1_545 S
H2176 C2159 0.929 . S
H2177 C2160 0.929 . S
H2178 C2161 0.929 . S
H2179 C2162 0.931 . S
H2180 C2170 0.929 . S
H2181 C2171 0.929 . S
H2182 C2172 0.931 . S
H2183 C2173 0.929 . S
Tb2184 N2213 2.617 . S
Tb2184 N2219 2.572 . S
Tb2184 O2228 2.465 . S
Tb2184 O2229 2.387 . S
Tb2184 O2231 2.428 . S
Tb2184 O2232 2.308 . S
Tb2184 O2236 2.349 . S
Tb2184 O2239 2.393 . S
Tb2184 C2248 2.802 . S
C2185 N2186 1.379 1_455 S
C2185 C2188 1.416 . S
C2185 C2192 1.424 . S
N2186 C2185 1.379 1_655 S
N2186 C2189 1.334 . S
N2186 Tb2195 2.617 . S
C2187 C2189 1.390 . S
C2187 C2190 1.339 1_655 S
C2187 H2207 0.930 . S
C2188 C2185 1.416 . S
C2188 C2190 1.416 . S
C2188 C2194 1.448 . S
C2189 N2186 1.334 . S
C2189 C2187 1.390 . S
C2189 H2200 0.930 . S
C2190 C2187 1.339 1_455 S
C2190 C2188 1.416 . S
C2190 H2211 0.930 . S
C2191 C2192 1.413 . S
C2191 C2193 1.427 . S
C2191 C2197 1.416 . S
C2192 C2185 1.424 . S
C2192 C2191 1.413 . S
C2192 N2196 1.361 . S
C2193 C2191 1.427 . S
C2193 C2194 1.328 . S
C2193 H2208 0.929 . S
C2194 C2188 1.448 . S
C2194 C2193 1.328 . S
C2194 H2209 0.930 . S
Tb2195 N2186 2.617 . S
Tb2195 N2196 2.572 1_655 S
Tb2195 O2230 2.349 . S
Tb2195 O2233 2.393 . S
Tb2195 O2234 2.465 1_655 S
Tb2195 O2235 2.387 . S
Tb2195 O2237 2.428 1_655 S
Tb2195 O2238 2.308 . S
Tb2195 C2259 2.802 1_655 S
N2196 C2192 1.361 . S
N2196 Tb2195 2.572 1_455 S
N2196 C2198 1.340 . S
C2197 C2191 1.416 . S
C2197 C2199 1.332 . S
C2197 H2205 0.931 . S
C2198 N2196 1.340 . S
C2198 C2199 1.407 . S
C2198 H2204 0.930 . S
C2199 C2197 1.332 . S
C2199 C2198 1.407 . S
C2199 H2201 0.929 . S
H2200 C2189 0.930 . S
H2201 C2199 0.929 . S
H2202 C2217 0.930 . S
H2203 C2224 0.929 . S
H2204 C2198 0.930 . S
H2205 C2197 0.931 . S
H2206 C2220 0.930 . S
H2207 C2187 0.930 . S
H2208 C2193 0.929 . S
H2209 C2194 0.930 . S
H2210 C2215 0.930 . S
H2211 C2190 0.930 . S
H2212 C2223 0.931 1_565 S
N2213 Tb2184 2.617 . S
N2213 C2214 1.379 . S
N2213 C2217 1.334 . S
C2214 N2213 1.379 . S
C2214 C2216 1.416 . S
C2214 C2222 1.424 . S
C2215 H2210 0.930 . S
C2215 C2217 1.390 . S
C2215 C2218 1.339 . S
C2216 C2214 1.416 . S
C2216 C2218 1.416 . S
C2216 C2249 1.446 . S
C2217 H2202 0.930 . S
C2217 N2213 1.334 . S
C2217 C2215 1.390 . S
C2218 C2215 1.339 . S
C2218 C2216 1.416 . S
C2218 H2225 0.930 . S
N2219 Tb2184 2.572 . S
N2219 C2220 1.340 . S
N2219 C2222 1.361 . S
C2220 H2206 0.930 . S
C2220 N2219 1.340 . S
C2220 C2224 1.407 . S
C2221 C2222 1.413 . S
C2221 C2223 1.416 . S
C2221 C2250 1.427 1_545 S
C2222 C2214 1.424 . S
C2222 N2219 1.361 . S
C2222 C2221 1.413 . S
C2223 H2212 0.931 1_545 S
C2223 C2221 1.416 . S
C2223 C2224 1.332 . S
C2224 H2203 0.929 . S
C2224 C2220 1.407 . S
C2224 C2223 1.332 . S
H2225 C2218 0.930 . S
H2226 C2249 0.932 1_565 S
H2227 C2250 0.929 . S
O2228 Tb2184 2.465 . S
O2228 C2248 1.264 . S
O2229 Tb2184 2.387 . S
O2229 C2240 1.264 . S
O2230 Tb2195 2.349 . S
O2230 C2240 1.243 . S
O2231 Tb2184 2.428 . S
O2231 C2248 1.256 . S
O2232 Tb2184 2.308 . S
O2232 C2247 1.266 . S
O2233 Tb2195 2.393 . S
O2233 C2247 1.248 . S
O2234 Tb2195 2.465 1_455 S
O2234 C2259 1.264 . S
O2235 Tb2195 2.387 . S
O2235 C2251 1.264 . S
O2236 Tb2184 2.349 . S
O2236 C2251 1.243 . S
O2237 Tb2195 2.428 1_455 S
O2237 C2259 1.256 . S
O2238 Tb2195 2.308 . S
O2238 C2258 1.266 . S
O2239 Tb2184 2.393 . S
O2239 C2258 1.248 . S
C2240 O2229 1.264 . S
C2240 O2230 1.243 . S
C2241 C2244 1.399 . S
C2241 C2246 1.383 . S
C2241 C2248 1.496 . S
C2242 C2243 1.399 . S
C2242 C2246 1.389 . S
C2243 C2242 1.399 . S
C2243 C2245 1.380 . S
C2243 H2260 0.929 . S
C2244 C2241 1.399 . S
C2244 C2245 1.392 . S
C2244 H2261 0.929 . S
C2245 C2243 1.380 . S
C2245 C2244 1.392 . S
C2245 H2262 0.929 . S
C2246 C2241 1.383 . S
C2246 C2242 1.389 . S
C2246 H2263 0.931 . S
C2247 O2232 1.266 . S
C2247 O2233 1.248 . S
C2248 Tb2184 2.802 . S
C2248 O2228 1.264 . S
C2248 O2231 1.256 . S
C2248 C2241 1.496 . S
C2249 C2216 1.446 . S
C2249 H2226 0.932 1_545 S
C2249 C2250 1.329 1_545 S
C2250 C2221 1.427 1_565 S
C2250 H2227 0.929 . S
C2250 C2249 1.329 1_565 S
C2251 O2235 1.264 . S
C2251 O2236 1.243 . S
C2252 C2255 1.399 . S
C2252 C2256 1.383 . S
C2252 C2259 1.496 . S
C2253 C2254 1.399 . S
C2253 C2256 1.389 . S
C2254 C2253 1.399 . S
C2254 C2257 1.380 . S
C2254 H2264 0.929 . S
C2255 C2252 1.399 . S
C2255 C2257 1.392 . S
C2255 H2265 0.929 . S
C2256 C2252 1.383 . S
C2256 C2253 1.389 . S
C2256 H2266 0.931 . S
C2257 C2254 1.380 . S
C2257 C2255 1.392 . S
C2257 H2267 0.929 . S
C2258 O2238 1.266 . S
C2258 O2239 1.248 . S
C2259 Tb2195 2.802 1_455 S
C2259 O2234 1.264 . S
C2259 O2237 1.256 . S
C2259 C2252 1.496 . S
H2260 C2243 0.929 . S
H2261 C2244 0.929 . S
H2262 C2245 0.929 . S
H2263 C2246 0.931 . S
H2264 C2254 0.929 . S
H2265 C2255 0.929 . S
H2266 C2256 0.931 . S
H2267 C2257 0.929 . S
Tb2268 N2297 2.617 . S
Tb2268 N2303 2.572 . S
Tb2268 O2312 2.465 . S
Tb2268 O2313 2.387 . S
Tb2268 O2315 2.428 . S
Tb2268 O2316 2.308 . S
Tb2268 O2320 2.349 . S
Tb2268 O2323 2.393 . S
Tb2268 C2332 2.802 . S
C2269 N2270 1.379 . S
C2269 C2272 1.416 . S
C2269 C2276 1.424 . S
N2270 C2269 1.379 . S
N2270 C2273 1.334 . S
N2270 Tb2279 2.617 . S
C2271 C2273 1.390 . S
C2271 C2274 1.339 . S
C2271 H2291 0.930 . S
C2272 C2269 1.416 . S
C2272 C2274 1.416 . S
C2272 C2278 1.448 1_545 S
C2273 N2270 1.334 . S
C2273 C2271 1.390 . S
C2273 H2284 0.930 . S
C2274 C2271 1.339 . S
C2274 C2272 1.416 . S
C2274 H2295 0.930 . S
C2275 C2276 1.413 1_565 S
C2275 C2277 1.427 . S
C2275 C2281 1.416 . S
C2276 C2269 1.424 . S
C2276 C2275 1.413 1_545 S
C2276 N2280 1.361 . S
C2277 C2275 1.427 . S
C2277 C2278 1.328 . S
C2277 H2292 0.929 . S
C2278 C2272 1.448 1_565 S
C2278 C2277 1.328 . S
C2278 H2293 0.930 . S
Tb2279 N2270 2.617 . S
Tb2279 N2280 2.572 . S
Tb2279 O2314 2.349 . S
Tb2279 O2317 2.393 . S
Tb2279 O2318 2.465 . S
Tb2279 O2319 2.387 . S
Tb2279 O2321 2.428 . S
Tb2279 O2322 2.308 . S
Tb2279 C2343 2.802 . S
N2280 C2276 1.361 . S
N2280 Tb2279 2.572 . S
N2280 C2282 1.340 . S
C2281 C2275 1.416 . S
C2281 C2283 1.332 1_565 S
C2281 H2289 0.931 . S
C2282 N2280 1.340 . S
C2282 C2283 1.407 . S
C2282 H2288 0.930 . S
C2283 C2281 1.332 1_545 S
C2283 C2282 1.407 . S
C2283 H2285 0.929 1_545 S
H2284 C2273 0.930 . S
H2285 C2283 0.929 1_565 S
H2286 C2301 0.930 . S
H2287 C2308 0.929 . S
H2288 C2282 0.930 . S
H2289 C2281 0.931 . S
H2290 C2304 0.930 . S
H2291 C2271 0.930 . S
H2292 C2277 0.929 . S
H2293 C2278 0.930 . S
H2294 C2299 0.930 . S
H2295 C2274 0.930 . S
H2296 C2307 0.931 . S
N2297 Tb2268 2.617 . S
N2297 C2298 1.379 . S
N2297 C2301 1.334 . S
C2298 N2297 1.379 . S
C2298 C2300 1.416 . S
C2298 C2306 1.424 . S
C2299 H2294 0.930 . S
C2299 C2301 1.390 . S
C2299 C2302 1.339 . S
C2300 C2298 1.416 . S
C2300 C2302 1.416 . S
C2300 C2333 1.448 . S
C2301 H2286 0.930 . S
C2301 N2297 1.334 . S
C2301 C2299 1.390 . S
C2302 C2299 1.339 . S
C2302 C2300 1.416 . S
C2302 H2309 0.930 . S
N2303 Tb2268 2.572 . S
N2303 C2304 1.340 . S
N2303 C2306 1.361 . S
C2304 H2290 0.930 . S
C2304 N2303 1.340 . S
C2304 C2308 1.407 . S
C2305 C2306 1.413 . S
C2305 C2307 1.416 . S
C2305 C2334 1.427 . S
C2306 C2298 1.424 . S
C2306 N2303 1.361 . S
C2306 C2305 1.413 . S
C2307 H2296 0.931 . S
C2307 C2305 1.416 . S
C2307 C2308 1.332 . S
C2308 H2287 0.929 . S
C2308 C2304 1.407 . S
C2308 C2307 1.332 . S
H2309 C2302 0.930 . S
H2310 C2333 0.930 . S
H2311 C2334 0.929 . S
O2312 Tb2268 2.465 . S
O2312 C2332 1.264 . S
O2313 Tb2268 2.387 . S
O2313 C2324 1.264 . S
O2314 Tb2279 2.349 . S
O2314 C2324 1.243 . S
O2315 Tb2268 2.428 . S
O2315 C2332 1.256 . S
O2316 Tb2268 2.308 . S
O2316 C2331 1.266 . S
O2317 Tb2279 2.393 . S
O2317 C2331 1.248 . S
O2318 Tb2279 2.465 . S
O2318 C2343 1.264 . S
O2319 Tb2279 2.387 . S
O2319 C2335 1.264 . S
O2320 Tb2268 2.349 . S
O2320 C2335 1.243 . S
O2321 Tb2279 2.428 . S
O2321 C2343 1.256 . S
O2322 Tb2279 2.308 . S
O2322 C2342 1.266 . S
O2323 Tb2268 2.393 . S
O2323 C2342 1.248 . S
C2324 O2313 1.264 . S
C2324 O2314 1.243 . S
C2325 C2328 1.399 . S
C2325 C2330 1.383 . S
C2325 C2332 1.496 . S
C2326 C2327 1.399 . S
C2326 C2330 1.389 . S
C2327 C2326 1.399 . S
C2327 C2329 1.380 . S
C2327 H2344 0.929 . S
C2328 C2325 1.399 . S
C2328 C2329 1.392 . S
C2328 H2345 0.929 . S
C2329 C2327 1.380 . S
C2329 C2328 1.392 . S
C2329 H2346 0.929 . S
C2330 C2325 1.383 . S
C2330 C2326 1.389 . S
C2330 H2347 0.931 . S
C2331 O2316 1.266 . S
C2331 O2317 1.248 . S
C2332 Tb2268 2.802 . S
C2332 O2312 1.264 . S
C2332 O2315 1.256 . S
C2332 C2325 1.496 . S
C2333 C2300 1.448 . S
C2333 H2310 0.930 . S
C2333 C2334 1.328 . S
C2334 C2305 1.427 . S
C2334 H2311 0.929 . S
C2334 C2333 1.328 . S
C2335 O2319 1.264 . S
C2335 O2320 1.243 . S
C2336 C2339 1.399 . S
C2336 C2340 1.383 . S
C2336 C2343 1.496 . S
C2337 C2338 1.399 . S
C2337 C2340 1.389 . S
C2338 C2337 1.399 . S
C2338 C2341 1.380 . S
C2338 H2348 0.929 . S
C2339 C2336 1.399 . S
C2339 C2341 1.392 . S
C2339 H2349 0.929 . S
C2340 C2336 1.383 . S
C2340 C2337 1.389 . S
C2340 H2350 0.931 . S
C2341 C2338 1.380 . S
C2341 C2339 1.392 . S
C2341 H2351 0.929 . S
C2342 O2322 1.266 . S
C2342 O2323 1.248 . S
C2343 Tb2279 2.802 . S
C2343 O2318 1.264 . S
C2343 O2321 1.256 . S
C2343 C2336 1.496 . S
H2344 C2327 0.929 . S
H2345 C2328 0.929 . S
H2346 C2329 0.929 . S
H2347 C2330 0.931 . S
H2348 C2338 0.929 . S
H2349 C2339 0.929 . S
H2350 C2340 0.931 . S
H2351 C2341 0.929 . S
Tb2352 N2381 2.617 . S
Tb2352 N2387 2.572 . S
Tb2352 O2396 2.465 . S
Tb2352 O2397 2.387 . S
Tb2352 O2399 2.428 . S
Tb2352 O2400 2.308 . S
Tb2352 O2404 2.349 . S
Tb2352 O2407 2.393 . S
Tb2352 C2416 2.802 . S
C2353 N2354 1.379 1_455 S
C2353 C2356 1.416 . S
C2353 C2360 1.424 . S
N2354 C2353 1.379 1_655 S
N2354 C2357 1.334 . S
N2354 Tb2363 2.617 . S
C2355 C2357 1.390 . S
C2355 C2358 1.339 1_655 S
C2355 H2375 0.930 . S
C2356 C2353 1.416 . S
C2356 C2358 1.416 . S
C2356 C2362 1.448 . S
C2357 N2354 1.334 . S
C2357 C2355 1.390 . S
C2357 H2368 0.930 . S
C2358 C2355 1.339 1_455 S
C2358 C2356 1.416 . S
C2358 H2379 0.930 . S
C2359 C2360 1.413 . S
C2359 C2361 1.427 . S
C2359 C2365 1.416 . S
C2360 C2353 1.424 . S
C2360 C2359 1.413 . S
C2360 N2364 1.361 . S
C2361 C2359 1.427 . S
C2361 C2362 1.328 . S
C2361 H2376 0.929 . S
C2362 C2356 1.448 . S
C2362 C2361 1.328 . S
C2362 H2377 0.930 . S
Tb2363 N2354 2.617 . S
Tb2363 N2364 2.572 1_655 S
Tb2363 O2398 2.349 . S
Tb2363 O2401 2.393 . S
Tb2363 O2402 2.465 . S
Tb2363 O2403 2.387 . S
Tb2363 O2405 2.428 . S
Tb2363 O2406 2.308 . S
Tb2363 C2427 2.802 . S
N2364 C2360 1.361 . S
N2364 Tb2363 2.572 1_455 S
N2364 C2366 1.340 . S
C2365 C2359 1.416 . S
C2365 C2367 1.332 . S
C2365 H2373 0.931 . S
C2366 N2364 1.340 . S
C2366 C2367 1.407 . S
C2366 H2372 0.930 1_455 S
C2367 C2365 1.332 . S
C2367 C2366 1.407 . S
C2367 H2369 0.929 . S
H2368 C2357 0.930 . S
H2369 C2367 0.929 . S
H2370 C2385 0.930 . S
H2371 C2392 0.929 . S
H2372 C2366 0.930 1_655 S
H2373 C2365 0.931 . S
H2374 C2388 0.930 . S
H2375 C2355 0.930 . S
H2376 C2361 0.929 . S
H2377 C2362 0.930 . S
H2378 C2383 0.930 . S
H2379 C2358 0.930 . S
H2380 C2391 0.931 . S
N2381 Tb2352 2.617 . S
N2381 C2382 1.379 . S
N2381 C2385 1.334 . S
C2382 N2381 1.379 . S
C2382 C2384 1.416 . S
C2382 C2390 1.424 . S
C2383 H2378 0.930 . S
C2383 C2385 1.390 . S
C2383 C2386 1.339 . S
C2384 C2382 1.416 . S
C2384 C2386 1.416 . S
C2384 C2417 1.448 . S
C2385 H2370 0.930 . S
C2385 N2381 1.334 . S
C2385 C2383 1.390 . S
C2386 C2383 1.339 . S
C2386 C2384 1.416 . S
C2386 H2393 0.930 . S
N2387 Tb2352 2.572 . S
N2387 C2388 1.340 . S
N2387 C2390 1.361 . S
C2388 H2374 0.930 . S
C2388 N2387 1.340 . S
C2388 C2392 1.407 . S
C2389 C2390 1.413 . S
C2389 C2391 1.416 . S
C2389 C2418 1.427 . S
C2390 C2382 1.424 . S
C2390 N2387 1.361 . S
C2390 C2389 1.413 . S
C2391 H2380 0.931 . S
C2391 C2389 1.416 . S
C2391 C2392 1.332 . S
C2392 H2371 0.929 . S
C2392 C2388 1.407 . S
C2392 C2391 1.332 . S
H2393 C2386 0.930 . S
H2394 C2417 0.930 . S
H2395 C2418 0.929 . S
O2396 Tb2352 2.465 . S
O2396 C2416 1.264 . S
O2397 Tb2352 2.387 . S
O2397 C2408 1.264 . S
O2398 Tb2363 2.349 . S
O2398 C2408 1.243 . S
O2399 Tb2352 2.428 . S
O2399 C2416 1.256 . S
O2400 Tb2352 2.308 . S
O2400 C2415 1.266 . S
O2401 Tb2363 2.393 . S
O2401 C2415 1.248 . S
O2402 Tb2363 2.465 . S
O2402 C2427 1.264 . S
O2403 Tb2363 2.387 . S
O2403 C2419 1.264 . S
O2404 Tb2352 2.349 . S
O2404 C2419 1.243 . S
O2405 Tb2363 2.428 . S
O2405 C2427 1.256 . S
O2406 Tb2363 2.308 . S
O2406 C2426 1.266 . S
O2407 Tb2352 2.393 . S
O2407 C2426 1.248 . S
C2408 O2397 1.264 . S
C2408 O2398 1.243 . S
C2409 C2412 1.399 . S
C2409 C2414 1.383 . S
C2409 C2416 1.496 . S
C2410 C2411 1.399 . S
C2410 C2414 1.389 1_565 S
C2411 C2410 1.399 . S
C2411 C2413 1.380 . S
C2411 H2428 0.929 . S
C2412 C2409 1.399 . S
C2412 C2413 1.392 1_545 S
C2412 H2429 0.929 . S
C2413 C2411 1.380 . S
C2413 C2412 1.392 1_565 S
C2413 H2430 0.929 . S
C2414 C2409 1.383 . S
C2414 C2410 1.389 1_545 S
C2414 H2431 0.931 . S
C2415 O2400 1.266 . S
C2415 O2401 1.248 . S
C2416 Tb2352 2.802 . S
C2416 O2396 1.264 . S
C2416 O2399 1.256 . S
C2416 C2409 1.496 . S
C2417 C2384 1.448 . S
C2417 H2394 0.930 . S
C2417 C2418 1.328 . S
C2418 C2389 1.427 . S
C2418 H2395 0.929 . S
C2418 C2417 1.328 . S
C2419 O2403 1.264 . S
C2419 O2404 1.243 . S
C2420 C2423 1.399 . S
C2420 C2424 1.383 . S
C2420 C2427 1.496 . S
C2421 C2422 1.399 . S
C2421 C2424 1.389 . S
C2422 C2421 1.399 . S
C2422 C2425 1.380 . S
C2422 H2432 0.929 . S
C2423 C2420 1.399 . S
C2423 C2425 1.392 . S
C2423 H2433 0.929 . S
C2424 C2420 1.383 . S
C2424 C2421 1.389 . S
C2424 H2434 0.931 . S
C2425 C2422 1.380 . S
C2425 C2423 1.392 . S
C2425 H2435 0.929 . S
C2426 O2406 1.266 . S
C2426 O2407 1.248 . S
C2427 Tb2363 2.802 . S
C2427 O2402 1.264 . S
C2427 O2405 1.256 . S
C2427 C2420 1.496 . S
H2428 C2411 0.929 . S
H2429 C2412 0.929 . S
H2430 C2413 0.929 . S
H2431 C2414 0.931 . S
H2432 C2422 0.929 . S
H2433 C2423 0.929 . S
H2434 C2424 0.931 . S
H2435 C2425 0.929 . S
Tb2436 N2465 2.617 . S
Tb2436 N2471 2.572 . S
Tb2436 O2480 2.465 . S
Tb2436 O2481 2.387 . S
Tb2436 O2483 2.428 . S
Tb2436 O2484 2.308 . S
Tb2436 O2488 2.349 . S
Tb2436 O2491 2.393 . S
Tb2436 C2500 2.802 . S
C2437 N2438 1.379 . S
C2437 C2440 1.416 . S
C2437 C2444 1.424 . S
N2438 C2437 1.379 . S
N2438 C2441 1.334 . S
N2438 Tb2447 2.617 . S
C2439 C2441 1.390 . S
C2439 C2442 1.339 . S
C2439 H2459 0.930 . S
C2440 C2437 1.416 . S
C2440 C2442 1.416 . S
C2440 C2446 1.448 . S
C2441 N2438 1.334 . S
C2441 C2439 1.390 . S
C2441 H2452 0.930 . S
C2442 C2439 1.339 . S
C2442 C2440 1.416 . S
C2442 H2463 0.930 . S
C2443 C2444 1.413 . S
C2443 C2445 1.427 . S
C2443 C2449 1.416 . S
C2444 C2437 1.424 . S
C2444 C2443 1.413 . S
C2444 N2448 1.361 . S
C2445 C2443 1.427 . S
C2445 C2446 1.328 . S
C2445 H2460 0.929 . S
C2446 C2440 1.448 . S
C2446 C2445 1.328 . S
C2446 H2461 0.930 . S
Tb2447 N2438 2.617 . S
Tb2447 N2448 2.572 . S
Tb2447 O2482 2.349 . S
Tb2447 O2485 2.393 . S
Tb2447 O2486 2.465 . S
Tb2447 O2487 2.387 . S
Tb2447 O2489 2.428 . S
Tb2447 O2490 2.308 . S
Tb2447 C2511 2.802 . S
N2448 C2444 1.361 . S
N2448 Tb2447 2.572 . S
N2448 C2450 1.340 . S
C2449 C2443 1.416 . S
C2449 C2451 1.332 . S
C2449 H2457 0.931 . S
C2450 N2448 1.340 . S
C2450 C2451 1.407 . S
C2450 H2456 0.930 . S
C2451 C2449 1.332 . S
C2451 C2450 1.407 . S
C2451 H2453 0.929 . S
H2452 C2441 0.930 . S
H2453 C2451 0.929 . S
H2454 C2469 0.930 . S
H2455 C2476 0.929 . S
H2456 C2450 0.930 . S
H2457 C2449 0.931 . S
H2458 C2472 0.930 . S
H2459 C2439 0.930 . S
H2460 C2445 0.929 . S
H2461 C2446 0.930 . S
H2462 C2467 0.930 . S
H2463 C2442 0.930 . S
H2464 C2475 0.931 . S
N2465 Tb2436 2.617 . S
N2465 C2466 1.379 . S
N2465 C2469 1.334 . S
C2466 N2465 1.379 . S
C2466 C2468 1.416 . S
C2466 C2474 1.424 . S
C2467 H2462 0.930 . S
C2467 C2469 1.390 . S
C2467 C2470 1.339 . S
C2468 C2466 1.416 . S
C2468 C2470 1.416 . S
C2468 C2501 1.448 1_655 S
C2469 H2454 0.930 . S
C2469 N2465 1.334 . S
C2469 C2467 1.390 . S
C2470 C2467 1.339 . S
C2470 C2468 1.416 . S
C2470 H2477 0.930 . S
N2471 Tb2436 2.572 . S
N2471 C2472 1.340 . S
N2471 C2474 1.361 . S
C2472 H2458 0.930 . S
C2472 N2471 1.340 . S
C2472 C2476 1.407 1_655 S
C2473 C2474 1.413 1_455 S
C2473 C2475 1.416 . S
C2473 C2502 1.427 . S
C2474 C2466 1.424 . S
C2474 N2471 1.361 . S
C2474 C2473 1.413 1_655 S
C2475 H2464 0.931 . S
C2475 C2473 1.416 . S
C2475 C2476 1.332 . S
C2476 H2455 0.929 . S
C2476 C2472 1.407 1_455 S
C2476 C2475 1.332 . S
H2477 C2470 0.930 . S
H2478 C2501 0.930 . S
H2479 C2502 0.929 . S
O2480 Tb2436 2.465 . S
O2480 C2500 1.264 . S
O2481 Tb2436 2.387 . S
O2481 C2492 1.264 . S
O2482 Tb2447 2.349 . S
O2482 C2492 1.243 . S
O2483 Tb2436 2.428 . S
O2483 C2500 1.256 . S
O2484 Tb2436 2.308 . S
O2484 C2499 1.266 . S
O2485 Tb2447 2.393 . S
O2485 C2499 1.248 . S
O2486 Tb2447 2.465 . S
O2486 C2511 1.264 . S
O2487 Tb2447 2.387 . S
O2487 C2503 1.264 . S
O2488 Tb2436 2.349 . S
O2488 C2503 1.243 . S
O2489 Tb2447 2.428 . S
O2489 C2511 1.256 . S
O2490 Tb2447 2.308 . S
O2490 C2510 1.266 . S
O2491 Tb2436 2.393 . S
O2491 C2510 1.248 . S
C2492 O2481 1.264 . S
C2492 O2482 1.243 . S
C2493 C2496 1.399 . S
C2493 C2498 1.383 . S
C2493 C2500 1.496 1_455 S
C2494 C2495 1.399 . S
C2494 C2498 1.389 . S
C2495 C2494 1.399 . S
C2495 C2497 1.380 . S
C2495 H2512 0.929 . S
C2496 C2493 1.399 . S
C2496 C2497 1.392 . S
C2496 H2513 0.929 . S
C2497 C2495 1.380 . S
C2497 C2496 1.392 . S
C2497 H2514 0.929 . S
C2498 C2493 1.383 . S
C2498 C2494 1.389 . S
C2498 H2515 0.931 . S
C2499 O2484 1.266 . S
C2499 O2485 1.248 . S
C2500 Tb2436 2.802 . S
C2500 O2480 1.264 . S
C2500 O2483 1.256 . S
C2500 C2493 1.496 1_655 S
C2501 C2468 1.448 1_455 S
C2501 H2478 0.930 . S
C2501 C2502 1.328 . S
C2502 C2473 1.427 . S
C2502 H2479 0.929 . S
C2502 C2501 1.328 . S
C2503 O2487 1.264 . S
C2503 O2488 1.243 . S
C2504 C2507 1.399 . S
C2504 C2508 1.383 . S
C2504 C2511 1.496 . S
C2505 C2506 1.399 . S
C2505 C2508 1.389 . S
C2506 C2505 1.399 . S
C2506 C2509 1.380 . S
C2506 H2516 0.929 . S
C2507 C2504 1.399 . S
C2507 C2509 1.392 . S
C2507 H2517 0.929 . S
C2508 C2504 1.383 . S
C2508 C2505 1.389 . S
C2508 H2518 0.931 . S
C2509 C2506 1.380 . S
C2509 C2507 1.392 . S
C2509 H2519 0.929 . S
C2510 O2490 1.266 . S
C2510 O2491 1.248 . S
C2511 Tb2447 2.802 . S
C2511 O2486 1.264 . S
C2511 O2489 1.256 . S
C2511 C2504 1.496 . S
H2512 C2495 0.929 . S
H2513 C2496 0.929 . S
H2514 C2497 0.929 . S
H2515 C2498 0.931 . S
H2516 C2506 0.929 . S
H2517 C2507 0.929 . S
H2518 C2508 0.931 . S
H2519 C2509 0.929 . S
Tb2520 N2549 2.617 . S
Tb2520 N2555 2.572 1_655 S
Tb2520 O2564 2.465 . S
Tb2520 O2565 2.387 . S
Tb2520 O2567 2.428 . S
Tb2520 O2568 2.308 . S
Tb2520 O2572 2.349 . S
Tb2520 O2575 2.393 . S
Tb2520 C2584 2.802 . S
C2521 N2522 1.379 . S
C2521 C2524 1.416 . S
C2521 C2528 1.424 . S
N2522 C2521 1.379 . S
N2522 C2525 1.334 . S
N2522 Tb2531 2.617 . S
C2523 C2525 1.390 . S
C2523 C2526 1.339 . S
C2523 H2543 0.930 . S
C2524 C2521 1.416 . S
C2524 C2526 1.416 . S
C2524 C2530 1.448 . S
C2525 N2522 1.334 . S
C2525 C2523 1.390 . S
C2525 H2536 0.930 . S
C2526 C2523 1.339 . S
C2526 C2524 1.416 . S
C2526 H2547 0.930 . S
C2527 C2528 1.413 . S
C2527 C2529 1.427 . S
C2527 C2533 1.416 . S
C2528 C2521 1.424 . S
C2528 C2527 1.413 . S
C2528 N2532 1.361 . S
C2529 C2527 1.427 . S
C2529 C2530 1.328 . S
C2529 H2544 0.929 . S
C2530 C2524 1.448 . S
C2530 C2529 1.328 . S
C2530 H2545 0.930 . S
Tb2531 N2522 2.617 . S
Tb2531 N2532 2.572 . S
Tb2531 O2566 2.349 . S
Tb2531 O2569 2.393 . S
Tb2531 O2570 2.465 . S
Tb2531 O2571 2.387 . S
Tb2531 O2573 2.428 . S
Tb2531 O2574 2.308 . S
Tb2531 C2595 2.802 . S
N2532 C2528 1.361 . S
N2532 Tb2531 2.572 . S
N2532 C2534 1.340 . S
C2533 C2527 1.416 . S
C2533 C2535 1.332 . S
C2533 H2541 0.931 . S
C2534 N2532 1.340 . S
C2534 C2535 1.407 . S
C2534 H2540 0.930 . S
C2535 C2533 1.332 . S
C2535 C2534 1.407 . S
C2535 H2537 0.929 . S
H2536 C2525 0.930 . S
H2537 C2535 0.929 . S
H2538 C2553 0.930 . S
H2539 C2560 0.929 . S
H2540 C2534 0.930 . S
H2541 C2533 0.931 . S
H2542 C2556 0.930 1_655 S
H2543 C2523 0.930 . S
H2544 C2529 0.929 . S
H2545 C2530 0.930 . S
H2546 C2551 0.930 . S
H2547 C2526 0.930 . S
H2548 C2559 0.931 . S
N2549 Tb2520 2.617 . S
N2549 C2550 1.379 1_655 S
N2549 C2553 1.334 . S
C2550 N2549 1.379 1_455 S
C2550 C2552 1.416 . S
C2550 C2558 1.424 . S
C2551 H2546 0.930 . S
C2551 C2553 1.390 . S
C2551 C2554 1.339 1_655 S
C2552 C2550 1.416 . S
C2552 C2554 1.416 . S
C2552 C2585 1.448 . S
C2553 H2538 0.930 . S
C2553 N2549 1.334 . S
C2553 C2551 1.390 . S
C2554 C2551 1.339 1_455 S
C2554 C2552 1.416 . S
C2554 H2561 0.930 . S
N2555 Tb2520 2.572 1_455 S
N2555 C2556 1.340 . S
N2555 C2558 1.361 . S
C2556 H2542 0.930 1_455 S
C2556 N2555 1.340 . S
C2556 C2560 1.407 . S
C2557 C2558 1.413 . S
C2557 C2559 1.416 . S
C2557 C2586 1.427 . S
C2558 C2550 1.424 . S
C2558 N2555 1.361 . S
C2558 C2557 1.413 . S
C2559 H2548 0.931 . S
C2559 C2557 1.416 . S
C2559 C2560 1.332 . S
C2560 H2539 0.929 . S
C2560 C2556 1.407 . S
C2560 C2559 1.332 . S
H2561 C2554 0.930 . S
H2562 C2585 0.930 . S
H2563 C2586 0.929 . S
O2564 Tb2520 2.465 . S
O2564 C2584 1.264 . S
O2565 Tb2520 2.387 . S
O2565 C2576 1.264 . S
O2566 Tb2531 2.349 . S
O2566 C2576 1.243 . S
O2567 Tb2520 2.428 . S
O2567 C2584 1.256 . S
O2568 Tb2520 2.308 . S
O2568 C2583 1.266 . S
O2569 Tb2531 2.393 . S
O2569 C2583 1.248 . S
O2570 Tb2531 2.465 . S
O2570 C2595 1.264 . S
O2571 Tb2531 2.387 . S
O2571 C2587 1.264 . S
O2572 Tb2520 2.349 . S
O2572 C2587 1.243 . S
O2573 Tb2531 2.428 . S
O2573 C2595 1.256 . S
O2574 Tb2531 2.308 . S
O2574 C2594 1.266 . S
O2575 Tb2520 2.393 . S
O2575 C2594 1.248 . S
C2576 O2565 1.264 . S
C2576 O2566 1.243 . S
C2577 C2580 1.399 . S
C2577 C2582 1.383 . S
C2577 C2584 1.496 . S
C2578 C2579 1.399 . S
C2578 C2582 1.389 . S
C2579 C2578 1.399 . S
C2579 C2581 1.380 . S
C2579 H2596 0.929 . S
C2580 C2577 1.399 . S
C2580 C2581 1.392 . S
C2580 H2597 0.929 . S
C2581 C2579 1.380 . S
C2581 C2580 1.392 . S
C2581 H2598 0.929 . S
C2582 C2577 1.383 . S
C2582 C2578 1.389 . S
C2582 H2599 0.931 . S
C2583 O2568 1.266 . S
C2583 O2569 1.248 . S
C2584 Tb2520 2.802 . S
C2584 O2564 1.264 . S
C2584 O2567 1.256 . S
C2584 C2577 1.496 . S
C2585 C2552 1.448 . S
C2585 H2562 0.930 . S
C2585 C2586 1.328 . S
C2586 C2557 1.427 . S
C2586 H2563 0.929 . S
C2586 C2585 1.328 . S
C2587 O2571 1.264 . S
C2587 O2572 1.243 . S
C2588 C2591 1.399 . S
C2588 C2592 1.383 . S
C2588 C2595 1.496 . S
C2589 C2590 1.399 . S
C2589 C2592 1.389 . S
C2590 C2589 1.399 . S
C2590 C2593 1.380 . S
C2590 H2600 0.929 . S
C2591 C2588 1.399 . S
C2591 C2593 1.392 . S
C2591 H2601 0.929 . S
C2592 C2588 1.383 . S
C2592 C2589 1.389 . S
C2592 H2602 0.931 . S
C2593 C2590 1.380 . S
C2593 C2591 1.392 . S
C2593 H2603 0.929 . S
C2594 O2574 1.266 . S
C2594 O2575 1.248 . S
C2595 Tb2531 2.802 . S
C2595 O2570 1.264 . S
C2595 O2573 1.256 . S
C2595 C2588 1.496 . S
H2596 C2579 0.929 . S
H2597 C2580 0.929 . S
H2598 C2581 0.929 . S
H2599 C2582 0.931 . S
H2600 C2590 0.929 . S
H2601 C2591 0.929 . S
H2602 C2592 0.931 . S
H2603 C2593 0.929 . S
Tb2604 N2633 2.617 . S
Tb2604 N2639 2.572 . S
Tb2604 O2648 2.465 . S
Tb2604 O2649 2.387 . S
Tb2604 O2651 2.428 . S
Tb2604 O2652 2.308 . S
Tb2604 O2656 2.349 . S
Tb2604 O2659 2.393 . S
Tb2604 C2668 2.802 . S
C2605 N2606 1.379 . S
C2605 C2608 1.416 . S
C2605 C2612 1.424 . S
N2606 C2605 1.379 . S
N2606 C2609 1.334 . S
N2606 Tb2615 2.617 . S
C2607 C2609 1.390 . S
C2607 C2610 1.339 . S
C2607 H2627 0.930 . S
C2608 C2605 1.416 . S
C2608 C2610 1.416 . S
C2608 C2614 1.448 . S
C2609 N2606 1.334 . S
C2609 C2607 1.390 . S
C2609 H2620 0.930 . S
C2610 C2607 1.339 . S
C2610 C2608 1.416 . S
C2610 H2631 0.930 . S
C2611 C2612 1.413 . S
C2611 C2613 1.427 . S
C2611 C2617 1.416 . S
C2612 C2605 1.424 . S
C2612 C2611 1.413 . S
C2612 N2616 1.361 . S
C2613 C2611 1.427 . S
C2613 C2614 1.328 . S
C2613 H2628 0.929 . S
C2614 C2608 1.448 . S
C2614 C2613 1.328 . S
C2614 H2629 0.930 . S
Tb2615 N2606 2.617 . S
Tb2615 N2616 2.572 . S
Tb2615 O2650 2.349 . S
Tb2615 O2653 2.393 . S
Tb2615 O2654 2.465 . S
Tb2615 O2655 2.387 . S
Tb2615 O2657 2.428 . S
Tb2615 O2658 2.308 . S
Tb2615 C2679 2.802 . S
N2616 C2612 1.361 . S
N2616 Tb2615 2.572 . S
N2616 C2618 1.340 . S
C2617 C2611 1.416 . S
C2617 C2619 1.332 . S
C2617 H2625 0.931 . S
C2618 N2616 1.340 . S
C2618 C2619 1.407 . S
C2618 H2624 0.930 . S
C2619 C2617 1.332 . S
C2619 C2618 1.407 . S
C2619 H2621 0.929 . S
H2620 C2609 0.930 . S
H2621 C2619 0.929 . S
H2622 C2637 0.930 . S
H2623 C2644 0.929 . S
H2624 C2618 0.930 . S
H2625 C2617 0.931 . S
H2626 C2640 0.930 . S
H2627 C2607 0.930 . S
H2628 C2613 0.929 . S
H2629 C2614 0.930 . S
H2630 C2635 0.930 . S
H2631 C2610 0.930 . S
H2632 C2643 0.931 . S
N2633 Tb2604 2.617 . S
N2633 C2634 1.379 . S
N2633 C2637 1.334 . S
C2634 N2633 1.379 . S
C2634 C2636 1.416 . S
C2634 C2642 1.424 . S
C2635 H2630 0.930 . S
C2635 C2637 1.390 . S
C2635 C2638 1.339 . S
C2636 C2634 1.416 . S
C2636 C2638 1.416 . S
C2636 C2669 1.448 . S
C2637 H2622 0.930 . S
C2637 N2633 1.334 . S
C2637 C2635 1.390 . S
C2638 C2635 1.339 . S
C2638 C2636 1.416 . S
C2638 H2645 0.930 . S
N2639 Tb2604 2.572 . S
N2639 C2640 1.340 . S
N2639 C2642 1.361 . S
C2640 H2626 0.930 . S
C2640 N2639 1.340 . S
C2640 C2644 1.407 . S
C2641 C2642 1.413 . S
C2641 C2643 1.416 . S
C2641 C2670 1.427 . S
C2642 C2634 1.424 . S
C2642 N2639 1.361 . S
C2642 C2641 1.413 . S
C2643 H2632 0.931 . S
C2643 C2641 1.416 . S
C2643 C2644 1.332 . S
C2644 H2623 0.929 . S
C2644 C2640 1.407 . S
C2644 C2643 1.332 . S
H2645 C2638 0.930 . S
H2646 C2669 0.930 . S
H2647 C2670 0.929 . S
O2648 Tb2604 2.465 . S
O2648 C2668 1.264 . S
O2649 Tb2604 2.387 . S
O2649 C2660 1.264 . S
O2650 Tb2615 2.349 . S
O2650 C2660 1.243 . S
O2651 Tb2604 2.428 . S
O2651 C2668 1.256 . S
O2652 Tb2604 2.308 . S
O2652 C2667 1.266 . S
O2653 Tb2615 2.393 . S
O2653 C2667 1.248 . S
O2654 Tb2615 2.465 . S
O2654 C2679 1.264 . S
O2655 Tb2615 2.387 . S
O2655 C2671 1.264 . S
O2656 Tb2604 2.349 . S
O2656 C2671 1.243 . S
O2657 Tb2615 2.428 . S
O2657 C2679 1.256 . S
O2658 Tb2615 2.308 . S
O2658 C2678 1.266 . S
O2659 Tb2604 2.393 . S
O2659 C2678 1.248 . S
C2660 O2649 1.264 . S
C2660 O2650 1.243 . S
C2661 C2664 1.399 . S
C2661 C2666 1.383 . S
C2661 C2668 1.496 . S
C2662 C2663 1.399 . S
C2662 C2666 1.389 . S
C2663 C2662 1.399 . S
C2663 C2665 1.380 . S
C2663 H2680 0.929 . S
C2664 C2661 1.399 . S
C2664 C2665 1.392 . S
C2664 H2681 0.929 . S
C2665 C2663 1.380 . S
C2665 C2664 1.392 . S
C2665 H2682 0.929 . S
C2666 C2661 1.383 . S
C2666 C2662 1.389 . S
C2666 H2683 0.931 . S
C2667 O2652 1.266 . S
C2667 O2653 1.248 . S
C2668 Tb2604 2.802 . S
C2668 O2648 1.264 . S
C2668 O2651 1.256 . S
C2668 C2661 1.496 . S
C2669 C2636 1.448 . S
C2669 H2646 0.930 . S
C2669 C2670 1.328 . S
C2670 C2641 1.427 . S
C2670 H2647 0.929 . S
C2670 C2669 1.328 . S
C2671 O2655 1.264 . S
C2671 O2656 1.243 . S
C2672 C2675 1.399 . S
C2672 C2676 1.383 . S
C2672 C2679 1.496 . S
C2673 C2674 1.399 . S
C2673 C2676 1.389 1_565 S
C2674 C2673 1.399 . S
C2674 C2677 1.380 . S
C2674 H2684 0.929 . S
C2675 C2672 1.399 . S
C2675 C2677 1.392 1_545 S
C2675 H2685 0.929 . S
C2676 C2672 1.383 . S
C2676 C2673 1.389 1_545 S
C2676 H2686 0.931 . S
C2677 C2674 1.380 . S
C2677 C2675 1.392 1_565 S
C2677 H2687 0.929 . S
C2678 O2658 1.266 . S
C2678 O2659 1.248 . S
C2679 Tb2615 2.802 . S
C2679 O2654 1.264 . S
C2679 O2657 1.256 . S
C2679 C2672 1.496 . S
H2680 C2663 0.929 . S
H2681 C2664 0.929 . S
H2682 C2665 0.929 . S
H2683 C2666 0.931 . S
H2684 C2674 0.929 . S
H2685 C2675 0.929 . S
H2686 C2676 0.931 . S
H2687 C2677 0.929 . S
Tb2688 N2717 2.617 . S
Tb2688 N2723 2.572 . S
Tb2688 O2732 2.465 . S
Tb2688 O2733 2.387 . S
Tb2688 O2735 2.428 . S
Tb2688 O2736 2.308 . S
Tb2688 O2740 2.349 . S
Tb2688 O2743 2.393 . S
Tb2688 C2752 2.802 . S
C2689 N2690 1.379 . S
C2689 C2692 1.416 . S
C2689 C2696 1.424 . S
N2690 C2689 1.379 . S
N2690 C2693 1.334 . S
N2690 Tb2699 2.617 . S
C2691 C2693 1.390 . S
C2691 C2694 1.339 . S
C2691 H2711 0.930 . S
C2692 C2689 1.416 . S
C2692 C2694 1.416 . S
C2692 C2698 1.448 1_655 S
C2693 N2690 1.334 . S
C2693 C2691 1.390 . S
C2693 H2704 0.930 . S
C2694 C2691 1.339 . S
C2694 C2692 1.416 . S
C2694 H2715 0.930 . S
C2695 C2696 1.413 1_455 S
C2695 C2697 1.427 . S
C2695 C2701 1.416 . S
C2696 C2689 1.424 . S
C2696 C2695 1.413 1_655 S
C2696 N2700 1.361 . S
C2697 C2695 1.427 . S
C2697 C2698 1.328 . S
C2697 H2712 0.929 . S
C2698 C2692 1.448 1_455 S
C2698 C2697 1.328 . S
C2698 H2713 0.930 . S
Tb2699 N2690 2.617 . S
Tb2699 N2700 2.572 . S
Tb2699 O2734 2.349 . S
Tb2699 O2737 2.393 . S
Tb2699 O2738 2.465 . S
Tb2699 O2739 2.387 . S
Tb2699 O2741 2.428 . S
Tb2699 O2742 2.308 . S
Tb2699 C2763 2.802 . S
N2700 C2696 1.361 . S
N2700 Tb2699 2.572 . S
N2700 C2702 1.340 . S
C2701 C2695 1.416 . S
C2701 C2703 1.332 . S
C2701 H2709 0.931 . S
C2702 N2700 1.340 . S
C2702 C2703 1.407 1_655 S
C2702 H2708 0.930 . S
C2703 C2701 1.332 . S
C2703 C2702 1.407 1_455 S
C2703 H2705 0.929 . S
H2704 C2693 0.930 . S
H2705 C2703 0.929 . S
H2706 C2721 0.930 . S
H2707 C2728 0.929 1_565 S
H2708 C2702 0.930 . S
H2709 C2701 0.931 . S
H2710 C2724 0.930 . S
H2711 C2691 0.930 . S
H2712 C2697 0.929 . S
H2713 C2698 0.930 . S
H2714 C2719 0.930 . S
H2715 C2694 0.930 . S
H2716 C2727 0.931 . S
N2717 Tb2688 2.617 . S
N2717 C2718 1.379 . S
N2717 C2721 1.334 . S
C2718 N2717 1.379 . S
C2718 C2720 1.416 . S
C2718 C2726 1.424 . S
C2719 H2714 0.930 . S
C2719 C2721 1.390 . S
C2719 C2722 1.339 . S
C2720 C2718 1.416 . S
C2720 C2722 1.416 . S
C2720 C2753 1.448 1_545 S
C2721 H2706 0.930 . S
C2721 N2717 1.334 . S
C2721 C2719 1.390 . S
C2722 C2719 1.339 . S
C2722 C2720 1.416 . S
C2722 H2729 0.930 . S
N2723 Tb2688 2.572 . S
N2723 C2724 1.340 . S
N2723 C2726 1.361 . S
C2724 H2710 0.930 . S
C2724 N2723 1.340 . S
C2724 C2728 1.407 . S
C2725 C2726 1.413 1_565 S
C2725 C2727 1.416 . S
C2725 C2754 1.427 . S
C2726 C2718 1.424 . S
C2726 N2723 1.361 . S
C2726 C2725 1.413 1_545 S
C2727 H2716 0.931 . S
C2727 C2725 1.416 . S
C2727 C2728 1.332 1_565 S
C2728 H2707 0.929 1_545 S
C2728 C2724 1.407 . S
C2728 C2727 1.332 1_545 S
H2729 C2722 0.930 . S
H2730 C2753 0.930 . S
H2731 C2754 0.929 . S
O2732 Tb2688 2.465 . S
O2732 C2752 1.264 . S
O2733 Tb2688 2.387 . S
O2733 C2744 1.264 . S
O2734 Tb2699 2.349 . S
O2734 C2744 1.243 . S
O2735 Tb2688 2.428 . S
O2735 C2752 1.256 . S
O2736 Tb2688 2.308 . S
O2736 C2751 1.266 . S
O2737 Tb2699 2.393 . S
O2737 C2751 1.248 . S
O2738 Tb2699 2.465 . S
O2738 C2763 1.264 . S
O2739 Tb2699 2.387 . S
O2739 C2755 1.264 . S
O2740 Tb2688 2.349 . S
O2740 C2755 1.243 . S
O2741 Tb2699 2.428 . S
O2741 C2763 1.256 . S
O2742 Tb2699 2.308 . S
O2742 C2762 1.266 . S
O2743 Tb2688 2.393 . S
O2743 C2762 1.248 . S
C2744 O2733 1.264 . S
C2744 O2734 1.243 . S
C2745 C2748 1.399 . S
C2745 C2750 1.383 . S
C2745 C2752 1.496 . S
C2746 C2747 1.399 . S
C2746 C2750 1.389 . S
C2747 C2746 1.399 . S
C2747 C2749 1.380 . S
C2747 H2764 0.929 . S
C2748 C2745 1.399 . S
C2748 C2749 1.392 . S
C2748 H2765 0.929 . S
C2749 C2747 1.380 . S
C2749 C2748 1.392 . S
C2749 H2766 0.929 . S
C2750 C2745 1.383 . S
C2750 C2746 1.389 . S
C2750 H2767 0.931 . S
C2751 O2736 1.266 . S
C2751 O2737 1.248 . S
C2752 Tb2688 2.802 . S
C2752 O2732 1.264 . S
C2752 O2735 1.256 . S
C2752 C2745 1.496 . S
C2753 C2720 1.448 1_565 S
C2753 H2730 0.930 . S
C2753 C2754 1.328 . S
C2754 C2725 1.427 . S
C2754 H2731 0.929 . S
C2754 C2753 1.328 . S
C2755 O2739 1.264 . S
C2755 O2740 1.243 . S
C2756 C2759 1.399 . S
C2756 C2760 1.383 . S
C2756 C2763 1.496 1_455 S
C2757 C2758 1.399 . S
C2757 C2760 1.389 . S
C2758 C2757 1.399 . S
C2758 C2761 1.380 . S
C2758 H2768 0.929 . S
C2759 C2756 1.399 . S
C2759 C2761 1.392 . S
C2759 H2769 0.929 . S
C2760 C2756 1.383 . S
C2760 C2757 1.389 . S
C2760 H2770 0.931 . S
C2761 C2758 1.380 . S
C2761 C2759 1.392 . S
C2761 H2771 0.929 . S
C2762 O2742 1.266 . S
C2762 O2743 1.248 . S
C2763 Tb2699 2.802 . S
C2763 O2738 1.264 . S
C2763 O2741 1.256 . S
C2763 C2756 1.496 1_655 S
H2764 C2747 0.929 . S
H2765 C2748 0.929 . S
H2766 C2749 0.929 . S
H2767 C2750 0.931 . S
H2768 C2758 0.929 . S
H2769 C2759 0.929 . S
H2770 C2760 0.931 . S
H2771 C2761 0.929 . S
Tb2772 N2801 2.617 . S
Tb2772 N2807 2.572 . S
Tb2772 O2816 2.465 . S
Tb2772 O2817 2.387 . S
Tb2772 O2819 2.428 . S
Tb2772 O2820 2.308 . S
Tb2772 O2824 2.349 . S
Tb2772 O2827 2.393 . S
Tb2772 C2836 2.802 . S
C2773 N2774 1.379 . S
C2773 C2776 1.416 . S
C2773 C2780 1.424 . S
N2774 C2773 1.379 . S
N2774 C2777 1.334 . S
N2774 Tb2783 2.617 . S
C2775 C2777 1.390 . S
C2775 C2778 1.339 . S
C2775 H2795 0.930 . S
C2776 C2773 1.416 . S
C2776 C2778 1.416 . S
C2776 C2782 1.449 1_545 S
C2777 N2774 1.334 . S
C2777 C2775 1.390 . S
C2777 H2788 0.930 . S
C2778 C2775 1.339 . S
C2778 C2776 1.416 . S
C2778 H2799 0.930 . S
C2779 C2780 1.413 . S
C2779 C2781 1.427 1_545 S
C2779 C2785 1.416 . S
C2780 C2773 1.424 . S
C2780 C2779 1.413 . S
C2780 N2784 1.361 . S
C2781 C2779 1.427 1_565 S
C2781 C2782 1.328 . S
C2781 H2796 0.929 . S
C2782 C2776 1.449 1_565 S
C2782 C2781 1.328 . S
C2782 H2797 0.930 . S
Tb2783 N2774 2.617 . S
Tb2783 N2784 2.572 . S
Tb2783 O2818 2.349 . S
Tb2783 O2821 2.393 . S
Tb2783 O2822 2.465 . S
Tb2783 O2823 2.387 . S
Tb2783 O2825 2.428 . S
Tb2783 O2826 2.308 . S
Tb2783 C2847 2.802 . S
N2784 C2780 1.361 . S
N2784 Tb2783 2.572 . S
N2784 C2786 1.340 . S
C2785 C2779 1.416 . S
C2785 C2787 1.332 . S
C2785 H2793 0.931 1_545 S
C2786 N2784 1.340 . S
C2786 C2787 1.407 . S
C2786 H2792 0.930 . S
C2787 C2785 1.332 . S
C2787 C2786 1.407 . S
C2787 H2789 0.929 . S
H2788 C2777 0.930 . S
H2789 C2787 0.929 . S
H2790 C2805 0.930 . S
H2791 C2812 0.929 . S
H2792 C2786 0.930 . S
H2793 C2785 0.931 1_565 S
H2794 C2808 0.930 . S
H2795 C2775 0.930 . S
H2796 C2781 0.929 . S
H2797 C2782 0.930 . S
H2798 C2803 0.930 . S
H2799 C2778 0.930 . S
H2800 C2811 0.931 . S
N2801 Tb2772 2.617 . S
N2801 C2802 1.379 . S
N2801 C2805 1.334 . S
C2802 N2801 1.379 . S
C2802 C2804 1.416 . S
C2802 C2810 1.424 . S
C2803 H2798 0.930 . S
C2803 C2805 1.390 . S
C2803 C2806 1.339 . S
C2804 C2802 1.416 . S
C2804 C2806 1.416 . S
C2804 C2837 1.448 . S
C2805 H2790 0.930 . S
C2805 N2801 1.334 . S
C2805 C2803 1.390 . S
C2806 C2803 1.339 . S
C2806 C2804 1.416 . S
C2806 H2813 0.930 . S
N2807 Tb2772 2.572 . S
N2807 C2808 1.340 . S
N2807 C2810 1.361 . S
C2808 H2794 0.930 . S
C2808 N2807 1.340 . S
C2808 C2812 1.407 . S
C2809 C2810 1.413 . S
C2809 C2811 1.416 . S
C2809 C2838 1.427 . S
C2810 C2802 1.424 . S
C2810 N2807 1.361 . S
C2810 C2809 1.413 . S
C2811 H2800 0.931 . S
C2811 C2809 1.416 . S
C2811 C2812 1.332 . S
C2812 H2791 0.929 . S
C2812 C2808 1.407 . S
C2812 C2811 1.332 . S
H2813 C2806 0.930 . S
H2814 C2837 0.930 . S
H2815 C2838 0.929 . S
O2816 Tb2772 2.465 . S
O2816 C2836 1.264 . S
O2817 Tb2772 2.387 . S
O2817 C2828 1.264 . S
O2818 Tb2783 2.349 . S
O2818 C2828 1.243 . S
O2819 Tb2772 2.428 . S
O2819 C2836 1.256 . S
O2820 Tb2772 2.308 . S
O2820 C2835 1.266 . S
O2821 Tb2783 2.393 . S
O2821 C2835 1.248 . S
O2822 Tb2783 2.465 . S
O2822 C2847 1.264 . S
O2823 Tb2783 2.387 . S
O2823 C2839 1.264 . S
O2824 Tb2772 2.349 . S
O2824 C2839 1.243 . S
O2825 Tb2783 2.428 . S
O2825 C2847 1.256 . S
O2826 Tb2783 2.308 . S
O2826 C2846 1.266 . S
O2827 Tb2772 2.393 . S
O2827 C2846 1.248 . S
C2828 O2817 1.264 . S
C2828 O2818 1.243 . S
C2829 C2832 1.399 . S
C2829 C2834 1.383 . S
C2829 C2836 1.496 . S
C2830 C2831 1.399 . S
C2830 C2834 1.389 . S
C2831 C2830 1.399 . S
C2831 C2833 1.380 . S
C2831 H2848 0.929 . S
C2832 C2829 1.399 . S
C2832 C2833 1.392 . S
C2832 H2849 0.929 . S
C2833 C2831 1.380 . S
C2833 C2832 1.392 . S
C2833 H2850 0.929 . S
C2834 C2829 1.383 . S
C2834 C2830 1.389 . S
C2834 H2851 0.931 . S
C2835 O2820 1.266 . S
C2835 O2821 1.248 . S
C2836 Tb2772 2.802 . S
C2836 O2816 1.264 . S
C2836 O2819 1.256 . S
C2836 C2829 1.496 . S
C2837 C2804 1.448 . S
C2837 H2814 0.930 . S
C2837 C2838 1.328 . S
C2838 C2809 1.427 . S
C2838 H2815 0.929 . S
C2838 C2837 1.328 . S
C2839 O2823 1.264 . S
C2839 O2824 1.243 . S
C2840 C2843 1.399 . S
C2840 C2844 1.383 . S
C2840 C2847 1.496 . S
C2841 C2842 1.399 . S
C2841 C2844 1.389 . S
C2842 C2841 1.399 . S
C2842 C2845 1.380 . S
C2842 H2852 0.929 . S
C2843 C2840 1.399 . S
C2843 C2845 1.392 . S
C2843 H2853 0.929 . S
C2844 C2840 1.383 . S
C2844 C2841 1.389 . S
C2844 H2854 0.931 . S
C2845 C2842 1.380 . S
C2845 C2843 1.392 . S
C2845 H2855 0.929 . S
C2846 O2826 1.266 . S
C2846 O2827 1.248 . S
C2847 Tb2783 2.802 . S
C2847 O2822 1.264 . S
C2847 O2825 1.256 . S
C2847 C2840 1.496 . S
H2848 C2831 0.929 . S
H2849 C2832 0.929 . S
H2850 C2833 0.929 . S
H2851 C2834 0.931 . S
H2852 C2842 0.929 . S
H2853 C2843 0.929 . S
H2854 C2844 0.931 . S
H2855 C2845 0.929 . S
Tb2856 N2885 2.617 . S
Tb2856 N2891 2.572 . S
Tb2856 O2900 2.465 . S
Tb2856 O2901 2.387 . S
Tb2856 O2903 2.428 . S
Tb2856 O2904 2.308 . S
Tb2856 O2908 2.349 . S
Tb2856 O2911 2.393 . S
Tb2856 C2920 2.802 . S
C2857 N2858 1.379 . S
C2857 C2860 1.416 1_655 S
C2857 C2864 1.424 1_655 S
N2858 C2857 1.379 . S
N2858 C2861 1.334 . S
N2858 Tb2867 2.617 . S
C2859 C2861 1.390 . S
C2859 C2862 1.339 1_655 S
C2859 H2879 0.930 . S
C2860 C2857 1.416 1_455 S
C2860 C2862 1.416 . S
C2860 C2866 1.448 . S
C2861 N2858 1.334 . S
C2861 C2859 1.390 . S
C2861 H2872 0.930 . S
C2862 C2859 1.339 1_455 S
C2862 C2860 1.416 . S
C2862 H2883 0.930 . S
C2863 C2864 1.413 . S
C2863 C2865 1.427 . S
C2863 C2869 1.416 . S
C2864 C2857 1.424 1_455 S
C2864 C2863 1.413 . S
C2864 N2868 1.361 1_455 S
C2865 C2863 1.427 . S
C2865 C2866 1.328 . S
C2865 H2880 0.929 . S
C2866 C2860 1.448 . S
C2866 C2865 1.328 . S
C2866 H2881 0.930 . S
Tb2867 N2858 2.617 . S
Tb2867 N2868 2.572 . S
Tb2867 O2902 2.349 . S
Tb2867 O2905 2.393 . S
Tb2867 O2906 2.465 . S
Tb2867 O2907 2.387 . S
Tb2867 O2909 2.428 . S
Tb2867 O2910 2.308 . S
Tb2867 C2931 2.802 . S
N2868 C2864 1.361 1_655 S
N2868 Tb2867 2.572 . S
N2868 C2870 1.340 . S
C2869 C2863 1.416 . S
C2869 C2871 1.332 . S
C2869 H2877 0.931 . S
C2870 N2868 1.340 . S
C2870 C2871 1.407 1_655 S
C2870 H2876 0.930 . S
C2871 C2869 1.332 . S
C2871 C2870 1.407 1_455 S
C2871 H2873 0.929 . S
H2872 C2861 0.930 . S
H2873 C2871 0.929 . S
H2874 C2889 0.930 . S
H2875 C2896 0.929 . S
H2876 C2870 0.930 . S
H2877 C2869 0.931 . S
H2878 C2892 0.930 . S
H2879 C2859 0.930 . S
H2880 C2865 0.929 . S
H2881 C2866 0.930 . S
H2882 C2887 0.930 . S
H2883 C2862 0.930 . S
H2884 C2895 0.931 . S
N2885 Tb2856 2.617 . S
N2885 C2886 1.379 . S
N2885 C2889 1.334 . S
C2886 N2885 1.379 . S
C2886 C2888 1.416 . S
C2886 C2894 1.424 . S
C2887 H2882 0.930 . S
C2887 C2889 1.390 . S
C2887 C2890 1.339 . S
C2888 C2886 1.416 . S
C2888 C2890 1.416 . S
C2888 C2921 1.452 . S
C2889 H2874 0.930 . S
C2889 N2885 1.334 . S
C2889 C2887 1.390 . S
C2890 C2887 1.339 . S
C2890 C2888 1.416 . S
C2890 H2897 0.930 . S
N2891 Tb2856 2.572 . S
N2891 C2892 1.340 . S
N2891 C2894 1.361 . S
C2892 H2878 0.930 . S
C2892 N2891 1.340 . S
C2892 C2896 1.407 1_545 S
C2893 C2894 1.413 1_565 S
C2893 C2895 1.416 . S
C2893 C2922 1.427 . S
C2894 C2886 1.424 . S
C2894 N2891 1.361 . S
C2894 C2893 1.413 1_545 S
C2895 H2884 0.931 . S
C2895 C2893 1.416 . S
C2895 C2896 1.332 . S
C2896 H2875 0.929 . S
C2896 C2892 1.407 1_565 S
C2896 C2895 1.332 . S
H2897 C2890 0.930 . S
H2898 C2921 0.932 1_565 S
H2899 C2922 0.929 . S
O2900 Tb2856 2.465 . S
O2900 C2920 1.264 . S
O2901 Tb2856 2.387 . S
O2901 C2912 1.264 . S
O2902 Tb2867 2.349 . S
O2902 C2912 1.243 . S
O2903 Tb2856 2.428 . S
O2903 C2920 1.256 . S
O2904 Tb2856 2.308 . S
O2904 C2919 1.266 . S
O2905 Tb2867 2.393 . S
O2905 C2919 1.248 . S
O2906 Tb2867 2.465 . S
O2906 C2931 1.264 . S
O2907 Tb2867 2.387 . S
O2907 C2923 1.264 . S
O2908 Tb2856 2.349 . S
O2908 C2923 1.243 . S
O2909 Tb2867 2.428 . S
O2909 C2931 1.256 . S
O2910 Tb2867 2.308 . S
O2910 C2930 1.266 . S
O2911 Tb2856 2.393 . S
O2911 C2930 1.248 . S
C2912 O2901 1.264 . S
C2912 O2902 1.243 . S
C2913 C2916 1.399 . S
C2913 C2918 1.383 . S
C2913 C2920 1.496 1_565 S
C2914 C2915 1.399 . S
C2914 C2918 1.389 . S
C2915 C2914 1.399 . S
C2915 C2917 1.380 . S
C2915 H2932 0.929 . S
C2916 C2913 1.399 . S
C2916 C2917 1.392 . S
C2916 H2933 0.929 . S
C2917 C2915 1.380 . S
C2917 C2916 1.392 . S
C2917 H2934 0.929 . S
C2918 C2913 1.383 . S
C2918 C2914 1.389 . S
C2918 H2935 0.931 . S
C2919 O2904 1.266 . S
C2919 O2905 1.248 . S
C2920 Tb2856 2.802 . S
C2920 O2900 1.264 . S
C2920 O2903 1.256 . S
C2920 C2913 1.496 1_545 S
C2921 C2888 1.452 . S
C2921 H2898 0.932 1_545 S
C2921 C2922 1.324 1_545 S
C2922 C2893 1.427 . S
C2922 H2899 0.929 . S
C2922 C2921 1.324 1_565 S
C2923 O2907 1.264 . S
C2923 O2908 1.243 . S
C2924 C2927 1.399 . S
C2924 C2928 1.383 . S
C2924 C2931 1.496 . S
C2925 C2926 1.399 . S
C2925 C2928 1.389 . S
C2926 C2925 1.399 . S
C2926 C2929 1.380 . S
C2926 H2936 0.929 . S
C2927 C2924 1.399 . S
C2927 C2929 1.392 . S
C2927 H2937 0.929 . S
C2928 C2924 1.383 . S
C2928 C2925 1.389 . S
C2928 H2938 0.931 . S
C2929 C2926 1.380 . S
C2929 C2927 1.392 . S
C2929 H2939 0.929 . S
C2930 O2910 1.266 . S
C2930 O2911 1.248 . S
C2931 Tb2867 2.802 . S
C2931 O2906 1.264 . S
C2931 O2909 1.256 . S
C2931 C2924 1.496 . S
H2932 C2915 0.929 . S
H2933 C2916 0.929 . S
H2934 C2917 0.929 . S
H2935 C2918 0.931 . S
H2936 C2926 0.929 . S
H2937 C2927 0.929 . S
H2938 C2928 0.931 . S
H2939 C2929 0.929 . S
Tb2940 N2969 2.617 . S
Tb2940 N2975 2.572 1_655 S
Tb2940 O2984 2.465 1_655 S
Tb2940 O2985 2.387 . S
Tb2940 O2987 2.428 1_655 S
Tb2940 O2988 2.308 . S
Tb2940 O2992 2.349 . S
Tb2940 O2995 2.393 . S
Tb2940 C3004 2.802 1_655 S
C2941 N2942 1.379 . S
C2941 C2944 1.416 . S
C2941 C2948 1.424 . S
N2942 C2941 1.379 . S
N2942 C2945 1.334 . S
N2942 Tb2951 2.617 . S
C2943 C2945 1.390 . S
C2943 C2946 1.339 . S
C2943 H2963 0.930 . S
C2944 C2941 1.416 . S
C2944 C2946 1.416 . S
C2944 C2950 1.448 . S
C2945 N2942 1.334 . S
C2945 C2943 1.390 . S
C2945 H2956 0.930 . S
C2946 C2943 1.339 . S
C2946 C2944 1.416 . S
C2946 H2967 0.930 . S
C2947 C2948 1.413 . S
C2947 C2949 1.427 . S
C2947 C2953 1.416 . S
C2948 C2941 1.424 . S
C2948 C2947 1.413 . S
C2948 N2952 1.361 . S
C2949 C2947 1.427 . S
C2949 C2950 1.328 . S
C2949 H2964 0.929 . S
C2950 C2944 1.448 . S
C2950 C2949 1.328 . S
C2950 H2965 0.930 . S
Tb2951 N2942 2.617 . S
Tb2951 N2952 2.572 . S
Tb2951 O2986 2.349 . S
Tb2951 O2989 2.393 . S
Tb2951 O2990 2.465 . S
Tb2951 O2991 2.387 . S
Tb2951 O2993 2.428 . S
Tb2951 O2994 2.308 . S
Tb2951 C3015 2.802 . S
N2952 C2948 1.361 . S
N2952 Tb2951 2.572 . S
N2952 C2954 1.340 . S
C2953 C2947 1.416 . S
C2953 C2955 1.332 . S
C2953 H2961 0.931 . S
C2954 N2952 1.340 . S
C2954 C2955 1.407 . S
C2954 H2960 0.930 . S
C2955 C2953 1.332 . S
C2955 C2954 1.407 . S
C2955 H2957 0.929 . S
H2956 C2945 0.930 . S
H2957 C2955 0.929 . S
H2958 C2973 0.930 . S
H2959 C2980 0.929 . S
H2960 C2954 0.930 . S
H2961 C2953 0.931 . S
H2962 C2976 0.930 . S
H2963 C2943 0.930 . S
H2964 C2949 0.929 . S
H2965 C2950 0.930 . S
H2966 C2971 0.930 . S
H2967 C2946 0.930 . S
H2968 C2979 0.931 . S
N2969 Tb2940 2.617 . S
N2969 C2970 1.379 1_655 S
N2969 C2973 1.334 . S
C2970 N2969 1.379 1_455 S
C2970 C2972 1.416 . S
C2970 C2978 1.424 . S
C2971 H2966 0.930 . S
C2971 C2973 1.390 . S
C2971 C2974 1.339 1_655 S
C2972 C2970 1.416 . S
C2972 C2974 1.416 . S
C2972 C3005 1.448 . S
C2973 H2958 0.930 . S
C2973 N2969 1.334 . S
C2973 C2971 1.390 . S
C2974 C2971 1.339 1_455 S
C2974 C2972 1.416 . S
C2974 H2981 0.930 . S
N2975 Tb2940 2.572 1_455 S
N2975 C2976 1.340 . S
N2975 C2978 1.361 . S
C2976 H2962 0.930 . S
C2976 N2975 1.340 . S
C2976 C2980 1.407 . S
C2977 C2978 1.413 . S
C2977 C2979 1.416 . S
C2977 C3006 1.427 . S
C2978 C2970 1.424 . S
C2978 N2975 1.361 . S
C2978 C2977 1.413 . S
C2979 H2968 0.931 . S
C2979 C2977 1.416 . S
C2979 C2980 1.332 . S
C2980 H2959 0.929 . S
C2980 C2976 1.407 . S
C2980 C2979 1.332 . S
H2981 C2974 0.930 . S
H2982 C3005 0.930 . S
H2983 C3006 0.929 . S
O2984 Tb2940 2.465 1_455 S
O2984 C3004 1.264 . S
O2985 Tb2940 2.387 . S
O2985 C2996 1.264 . S
O2986 Tb2951 2.349 . S
O2986 C2996 1.243 . S
O2987 Tb2940 2.428 1_455 S
O2987 C3004 1.256 . S
O2988 Tb2940 2.308 . S
O2988 C3003 1.266 . S
O2989 Tb2951 2.393 . S
O2989 C3003 1.248 . S
O2990 Tb2951 2.465 . S
O2990 C3015 1.264 . S
O2991 Tb2951 2.387 . S
O2991 C3007 1.264 . S
O2992 Tb2940 2.349 . S
O2992 C3007 1.243 . S
O2993 Tb2951 2.428 . S
O2993 C3015 1.256 . S
O2994 Tb2951 2.308 . S
O2994 C3014 1.266 . S
O2995 Tb2940 2.393 . S
O2995 C3014 1.248 . S
C2996 O2985 1.264 . S
C2996 O2986 1.243 . S
C2997 C3000 1.399 . S
C2997 C3002 1.383 . S
C2997 C3004 1.496 . S
C2998 C2999 1.399 . S
C2998 C3002 1.389 . S
C2999 C2998 1.399 . S
C2999 C3001 1.380 . S
C2999 H3016 0.929 1_565 S
C3000 C2997 1.399 . S
C3000 C3001 1.392 . S
C3000 H3017 0.929 . S
C3001 C2999 1.380 . S
C3001 C3000 1.392 . S
C3001 H3018 0.929 . S
C3002 C2997 1.383 . S
C3002 C2998 1.389 . S
C3002 H3019 0.931 . S
C3003 O2988 1.266 . S
C3003 O2989 1.248 . S
C3004 Tb2940 2.802 1_455 S
C3004 O2984 1.264 . S
C3004 O2987 1.256 . S
C3004 C2997 1.496 . S
C3005 C2972 1.448 . S
C3005 H2982 0.930 . S
C3005 C3006 1.328 . S
C3006 C2977 1.427 . S
C3006 H2983 0.929 . S
C3006 C3005 1.328 . S
C3007 O2991 1.264 . S
C3007 O2992 1.243 . S
C3008 C3011 1.399 . S
C3008 C3012 1.383 . S
C3008 C3015 1.496 . S
C3009 C3010 1.399 . S
C3009 C3012 1.389 . S
C3010 C3009 1.399 . S
C3010 C3013 1.380 . S
C3010 H3020 0.929 . S
C3011 C3008 1.399 . S
C3011 C3013 1.392 . S
C3011 H3021 0.929 . S
C3012 C3008 1.383 . S
C3012 C3009 1.389 . S
C3012 H3022 0.931 . S
C3013 C3010 1.380 . S
C3013 C3011 1.392 . S
C3013 H3023 0.929 . S
C3014 O2994 1.266 . S
C3014 O2995 1.248 . S
C3015 Tb2951 2.802 . S
C3015 O2990 1.264 . S
C3015 O2993 1.256 . S
C3015 C3008 1.496 . S
H3016 C2999 0.929 1_545 S
H3017 C3000 0.929 . S
H3018 C3001 0.929 . S
H3019 C3002 0.931 . S
H3020 C3010 0.929 . S
H3021 C3011 0.929 . S
H3022 C3012 0.931 . S
H3023 C3013 0.929 . S
C3024 C3025 1.369 . S
C3024 C3026 1.419 . S
C3024 H3028 0.930 . S
C3025 C3024 1.369 . S
C3025 C3034 1.429 . S
C3026 C3024 1.419 . S
C3026 C3027 1.363 . S
C3026 H3029 0.929 . S
C3027 C3026 1.363 . S
C3027 C3033 1.428 . S
H3028 C3024 0.930 . S
H3029 C3026 0.929 . S
S3030 N3031 1.613 . S
S3030 N3032 1.610 . S
N3031 S3030 1.613 . S
N3031 C3034 1.350 . S
N3032 S3030 1.610 . S
N3032 C3033 1.351 . S
C3033 C3027 1.428 . S
C3033 N3032 1.351 . S
C3033 C3034 1.434 . S
C3034 C3025 1.429 . S
C3034 N3031 1.350 . S
C3034 C3033 1.434 . S
C3035 C3036 1.369 . S
C3035 C3037 1.419 . S
C3035 H3039 0.930 . S
C3036 C3035 1.369 . S
C3036 C3045 1.429 . S
C3037 C3035 1.419 . S
C3037 C3038 1.363 . S
C3037 H3040 0.929 . S
C3038 C3037 1.363 . S
C3038 C3044 1.428 . S
H3039 C3035 0.930 . S
H3040 C3037 0.929 . S
S3041 N3042 1.628 . S
S3041 N3043 1.610 . S
N3042 S3041 1.628 . S
N3042 C3045 1.328 1_455 S
N3043 S3041 1.610 . S
N3043 C3044 1.351 1_455 S
C3044 C3038 1.428 . S
C3044 N3043 1.351 1_655 S
C3044 C3045 1.434 . S
C3045 C3036 1.429 . S
C3045 N3042 1.328 1_655 S
C3045 C3044 1.434 . S
C3046 C3047 1.369 . S
C3046 C3048 1.419 . S
C3046 H3050 0.930 . S
C3047 C3046 1.369 . S
C3047 C3056 1.429 . S
C3048 C3046 1.419 . S
C3048 C3049 1.363 . S
C3048 H3051 0.929 . S
C3049 C3048 1.363 . S
C3049 C3055 1.428 . S
H3050 C3046 0.930 . S
H3051 C3048 0.929 . S
S3052 N3053 1.613 . S
S3052 N3054 1.610 . S
N3053 S3052 1.613 . S
N3053 C3056 1.350 . S
N3054 S3052 1.610 . S
N3054 C3055 1.351 . S
C3055 C3049 1.428 . S
C3055 N3054 1.351 . S
C3055 C3056 1.434 . S
C3056 C3047 1.429 . S
C3056 N3053 1.350 . S
C3056 C3055 1.434 . S
C3057 C3058 1.369 . S
C3057 C3059 1.419 . S
C3057 H3061 0.930 . S
C3058 C3057 1.369 . S
C3058 C3067 1.429 . S
C3059 C3057 1.419 . S
C3059 C3060 1.363 . S
C3059 H3062 0.929 . S
C3060 C3059 1.363 . S
C3060 C3066 1.428 . S
H3061 C3057 0.930 . S
H3062 C3059 0.929 . S
S3063 N3064 1.613 . S
S3063 N3065 1.610 . S
N3064 S3063 1.613 . S
N3064 C3067 1.350 . S
N3065 S3063 1.610 . S
N3065 C3066 1.351 . S
C3066 C3060 1.428 . S
C3066 N3065 1.351 . S
C3066 C3067 1.434 . S
C3067 C3058 1.429 . S
C3067 N3064 1.350 . S
C3067 C3066 1.434 . S
C3068 C3069 1.369 . S
C3068 C3070 1.419 . S
C3068 H3072 0.930 . S
C3069 C3068 1.369 . S
C3069 C3078 1.429 . S
C3070 C3068 1.419 . S
C3070 C3071 1.363 . S
C3070 H3073 0.929 . S
C3071 C3070 1.363 . S
C3071 C3077 1.428 . S
H3072 C3068 0.930 . S
H3073 C3070 0.929 . S
S3074 N3075 1.613 . S
S3074 N3076 1.610 . S
N3075 S3074 1.613 . S
N3075 C3078 1.350 . S
N3076 S3074 1.610 . S
N3076 C3077 1.351 . S
C3077 C3071 1.428 . S
C3077 N3076 1.351 . S
C3077 C3078 1.434 . S
C3078 C3069 1.429 . S
C3078 N3075 1.350 . S
C3078 C3077 1.434 . S
C3079 C3080 1.369 . S
C3079 C3081 1.419 . S
C3079 H3083 0.930 . S
C3080 C3079 1.369 . S
C3080 C3089 1.429 . S
C3081 C3079 1.419 . S
C3081 C3082 1.363 . S
C3081 H3084 0.929 . S
C3082 C3081 1.363 . S
C3082 C3088 1.447 . S
H3083 C3079 0.930 . S
H3084 C3081 0.929 . S
S3085 N3086 1.613 . S
S3085 N3087 1.610 . S
N3086 S3085 1.613 . S
N3086 C3089 1.350 1_545 S
N3087 S3085 1.610 . S
N3087 C3088 1.331 1_545 S
C3088 C3082 1.447 . S
C3088 N3087 1.331 1_565 S
C3088 C3089 1.434 . S
C3089 C3080 1.429 . S
C3089 N3086 1.350 1_565 S
C3089 C3088 1.434 . S
C3090 C3091 1.369 . S
C3090 C3092 1.419 . S
C3090 H3094 0.930 . S
C3091 C3090 1.369 . S
C3091 C3100 1.429 . S
C3092 C3090 1.419 . S
C3092 C3093 1.363 . S
C3092 H3095 0.929 . S
C3093 C3092 1.363 . S
C3093 C3099 1.428 . S
H3094 C3090 0.930 . S
H3095 C3092 0.929 . S
S3096 N3097 1.613 . S
S3096 N3098 1.610 . S
N3097 S3096 1.613 . S
N3097 C3100 1.350 . S
N3098 S3096 1.610 . S
N3098 C3099 1.351 . S
C3099 C3093 1.428 . S
C3099 N3098 1.351 . S
C3099 C3100 1.434 . S
C3100 C3091 1.429 . S
C3100 N3097 1.350 . S
C3100 C3099 1.434 . S
C3101 C3102 1.369 . S
C3101 C3103 1.419 . S
C3101 H3105 0.930 . S
C3102 C3101 1.369 . S
C3102 C3111 1.429 . S
C3103 C3101 1.419 . S
C3103 C3104 1.363 . S
C3103 H3106 0.929 . S
C3104 C3103 1.363 . S
C3104 C3110 1.428 . S
H3105 C3101 0.930 . S
H3106 C3103 0.929 . S
S3107 N3108 1.613 . S
S3107 N3109 1.610 . S
N3108 S3107 1.613 . S
N3108 C3111 1.350 . S
N3109 S3107 1.610 . S
N3109 C3110 1.351 . S
C3110 C3104 1.428 . S
C3110 N3109 1.351 . S
C3110 C3111 1.434 . S
C3111 C3102 1.429 . S
C3111 N3108 1.350 . S
C3111 C3110 1.434 . S
C3112 C3113 1.369 . S
C3112 C3114 1.419 . S
C3112 H3116 0.930 . S
C3113 C3112 1.369 . S
C3113 C3122 1.429 . S
C3114 C3112 1.419 . S
C3114 C3115 1.363 . S
C3114 H3117 0.929 . S
C3115 C3114 1.363 . S
C3115 C3121 1.428 . S
H3116 C3112 0.930 . S
H3117 C3114 0.929 . S
S3118 N3119 1.613 . S
S3118 N3120 1.610 . S
N3119 S3118 1.613 . S
N3119 C3122 1.350 . S
N3120 S3118 1.610 . S
N3120 C3121 1.351 . S
C3121 C3115 1.428 . S
C3121 N3120 1.351 . S
C3121 C3122 1.434 . S
C3122 C3113 1.429 . S
C3122 N3119 1.350 . S
C3122 C3121 1.434 . S
C3123 C3124 1.369 . S
C3123 C3125 1.419 . S
C3123 H3127 0.930 . S
C3124 C3123 1.369 . S
C3124 C3133 1.429 . S
C3125 C3123 1.419 . S
C3125 C3126 1.363 . S
C3125 H3128 0.929 . S
C3126 C3125 1.363 . S
C3126 C3132 1.428 . S
H3127 C3123 0.930 . S
H3128 C3125 0.929 . S
S3129 N3130 1.613 . S
S3129 N3131 1.610 . S
N3130 S3129 1.613 . S
N3130 C3133 1.350 . S
N3131 S3129 1.610 . S
N3131 C3132 1.351 . S
C3132 C3126 1.428 . S
C3132 N3131 1.351 . S
C3132 C3133 1.434 . S
C3133 C3124 1.429 . S
C3133 N3130 1.350 . S
C3133 C3132 1.434 . S
C3134 C3135 1.369 . S
C3134 C3136 1.419 . S
C3134 H3138 0.930 . S
C3135 C3134 1.369 . S
C3135 C3144 1.429 . S
C3136 C3134 1.419 . S
C3136 C3137 1.363 . S
C3136 H3139 0.929 . S
C3137 C3136 1.363 . S
C3137 C3143 1.428 . S
H3138 C3134 0.930 . S
H3139 C3136 0.929 . S
S3140 N3141 1.613 . S
S3140 N3142 1.610 . S
N3141 S3140 1.613 . S
N3141 C3144 1.350 . S
N3142 S3140 1.610 . S
N3142 C3143 1.351 . S
C3143 C3137 1.428 . S
C3143 N3142 1.351 . S
C3143 C3144 1.434 . S
C3144 C3135 1.429 . S
C3144 N3141 1.350 . S
C3144 C3143 1.434 . S
C3145 C3146 1.369 . S
C3145 C3147 1.419 . S
C3145 H3149 0.930 . S
C3146 C3145 1.369 . S
C3146 C3155 1.429 . S
C3147 C3145 1.419 . S
C3147 C3148 1.363 . S
C3147 H3150 0.929 . S
C3148 C3147 1.363 . S
C3148 C3154 1.428 . S
H3149 C3145 0.930 . S
H3150 C3147 0.929 . S
S3151 N3152 1.613 . S
S3151 N3153 1.610 . S
N3152 S3151 1.613 . S
N3152 C3155 1.350 . S
N3153 S3151 1.610 . S
N3153 C3154 1.351 . S
C3154 C3148 1.428 . S
C3154 N3153 1.351 . S
C3154 C3155 1.434 . S
C3155 C3146 1.429 . S
C3155 N3152 1.350 . S
C3155 C3154 1.434 . S
C3156 C3157 1.369 . S
C3156 C3158 1.419 . S
C3156 H3160 0.930 . S
C3157 C3156 1.369 . S
C3157 C3166 1.429 . S
C3158 C3156 1.419 . S
C3158 C3159 1.363 . S
C3158 H3161 0.929 . S
C3159 C3158 1.363 . S
C3159 C3165 1.428 . S
H3160 C3156 0.930 . S
H3161 C3158 0.929 . S
S3162 N3163 1.613 . S
S3162 N3164 1.610 . S
N3163 S3162 1.613 . S
N3163 C3166 1.350 . S
N3164 S3162 1.610 . S
N3164 C3165 1.351 . S
C3165 C3159 1.428 . S
C3165 N3164 1.351 . S
C3165 C3166 1.434 . S
C3166 C3157 1.429 . S
C3166 N3163 1.350 . S
C3166 C3165 1.434 . S
C3167 C3168 1.369 1_545 S
C3167 C3169 1.419 . S
C3167 H3171 0.930 . S
C3168 C3167 1.369 1_565 S
C3168 C3177 1.429 1_565 S
C3169 C3167 1.419 . S
C3169 C3170 1.363 . S
C3169 H3172 0.929 . S
C3170 C3169 1.363 . S
C3170 C3176 1.428 . S
H3171 C3167 0.930 . S
H3172 C3169 0.929 . S
S3173 N3174 1.613 1_545 S
S3173 N3175 1.610 . S
N3174 S3173 1.613 1_565 S
N3174 C3177 1.350 1_565 S
N3175 S3173 1.610 . S
N3175 C3176 1.351 . S
C3176 C3170 1.428 . S
C3176 N3175 1.351 . S
C3176 C3177 1.434 . S
C3177 C3168 1.429 1_545 S
C3177 N3174 1.350 1_545 S
C3177 C3176 1.434 . S
C3178 C3179 1.369 1_455 S
C3178 C3180 1.419 . S
C3178 H3182 0.930 . S
C3179 C3178 1.369 1_655 S
C3179 C3188 1.429 . S
C3180 C3178 1.419 . S
C3180 C3181 1.363 . S
C3180 H3183 0.929 . S
C3181 C3180 1.363 . S
C3181 C3187 1.428 . S
H3182 C3178 0.930 . S
H3183 C3180 0.929 . S
S3184 N3185 1.613 . S
S3184 N3186 1.610 1_655 S
N3185 S3184 1.613 . S
N3185 C3188 1.350 . S
N3186 S3184 1.610 1_455 S
N3186 C3187 1.351 . S
C3187 C3181 1.428 . S
C3187 N3186 1.351 . S
C3187 C3188 1.434 1_455 S
C3188 C3179 1.429 . S
C3188 N3185 1.350 . S
C3188 C3187 1.434 1_655 S
C3189 C3190 1.369 . S
C3189 C3191 1.419 . S
C3189 H3193 0.930 . S
C3190 C3189 1.369 . S
C3190 C3199 1.429 . S
C3191 C3189 1.419 . S
C3191 C3192 1.363 . S
C3191 H3194 0.929 . S
C3192 C3191 1.363 . S
C3192 C3198 1.428 . S
H3193 C3189 0.930 . S
H3194 C3191 0.929 . S
S3195 N3196 1.613 . S
S3195 N3197 1.610 . S
N3196 S3195 1.613 . S
N3196 C3199 1.350 . S
N3197 S3195 1.610 . S
N3197 C3198 1.351 . S
C3198 C3192 1.428 . S
C3198 N3197 1.351 . S
C3198 C3199 1.434 . S
C3199 C3190 1.429 . S
C3199 N3196 1.350 . S
C3199 C3198 1.434 . S
C3200 C3201 1.369 1_545 S
C3200 C3202 1.419 . S
C3200 H3204 0.930 . S
C3201 C3200 1.369 1_565 S
C3201 C3210 1.429 . S
C3202 C3200 1.419 . S
C3202 C3203 1.363 . S
C3202 H3205 0.929 . S
C3203 C3202 1.363 . S
C3203 C3209 1.428 . S
H3204 C3200 0.930 . S
H3205 C3202 0.929 . S
S3206 N3207 1.613 . S
S3206 N3208 1.610 1_565 S
N3207 S3206 1.613 . S
N3207 C3210 1.350 . S
N3208 S3206 1.610 1_545 S
N3208 C3209 1.351 . S
C3209 C3203 1.428 . S
C3209 N3208 1.351 . S
C3209 C3210 1.434 1_545 S
C3210 C3201 1.429 . S
C3210 N3207 1.350 . S
C3210 C3209 1.434 1_565 S
C3211 C3212 1.369 1_455 S
C3211 C3213 1.419 . S
C3211 H3215 0.930 . S
C3212 C3211 1.369 1_655 S
C3212 C3221 1.429 1_655 S
C3213 C3211 1.419 . S
C3213 C3214 1.363 . S
C3213 H3216 0.929 . S
C3214 C3213 1.363 . S
C3214 C3220 1.428 . S
H3215 C3211 0.930 . S
H3216 C3213 0.929 . S
S3217 N3218 1.613 1_455 S
S3217 N3219 1.610 . S
N3218 S3217 1.613 1_655 S
N3218 C3221 1.350 1_655 S
N3219 S3217 1.610 . S
N3219 C3220 1.351 . S
C3220 C3214 1.428 . S
C3220 N3219 1.351 . S
C3220 C3221 1.434 . S
C3221 C3212 1.429 1_455 S
C3221 N3218 1.350 1_455 S
C3221 C3220 1.434 . S
C3222 C3223 1.369 . S
C3222 C3224 1.419 1_554 S
C3222 H3226 0.930 . S
C3223 C3222 1.369 . S
C3223 C3232 1.429 . S
C3224 C3222 1.419 1_556 S
C3224 C3225 1.363 . S
C3224 H3227 0.929 . S
C3225 C3224 1.363 . S
C3225 C3231 1.428 . S
H3226 C3222 0.930 . S
H3227 C3224 0.929 . S
S3228 N3229 1.613 . S
S3228 N3230 1.610 1_554 S
N3229 S3228 1.613 . S
N3229 C3232 1.350 . S
N3230 S3228 1.610 1_556 S
N3230 C3231 1.351 . S
C3231 C3225 1.428 . S
C3231 N3230 1.351 . S
C3231 C3232 1.434 1_556 S
C3232 C3223 1.429 . S
C3232 N3229 1.350 . S
C3232 C3231 1.434 1_554 S
C3233 C3234 1.369 1_655 S
C3233 C3235 1.419 1_656 S
C3233 H3237 0.930 . S
C3234 C3233 1.369 1_455 S
C3234 C3243 1.429 . S
C3235 C3233 1.419 1_454 S
C3235 C3236 1.363 . S
C3235 H3238 0.929 1_455 S
C3236 C3235 1.363 . S
C3236 C3242 1.428 . S
H3237 C3233 0.930 . S
H3238 C3235 0.929 1_655 S
S3239 N3240 1.613 . S
S3239 N3241 1.610 1_556 S
N3240 S3239 1.613 . S
N3240 C3243 1.350 . S
N3241 S3239 1.610 1_554 S
N3241 C3242 1.351 . S
C3242 C3236 1.428 . S
C3242 N3241 1.351 . S
C3242 C3243 1.434 1_554 S
C3243 C3234 1.429 . S
C3243 N3240 1.350 . S
C3243 C3242 1.434 1_556 S
C3244 C3245 1.369 . S
C3244 C3246 1.419 1_554 S
C3244 H3248 0.930 . S
C3245 C3244 1.369 . S
C3245 C3254 1.429 . S
C3246 C3244 1.419 1_556 S
C3246 C3247 1.363 . S
C3246 H3249 0.929 . S
C3247 C3246 1.363 . S
C3247 C3253 1.428 . S
H3248 C3244 0.930 . S
H3249 C3246 0.929 . S
S3250 N3251 1.613 1_556 S
S3250 N3252 1.610 . S
N3251 S3250 1.613 1_554 S
N3251 C3254 1.350 . S
N3252 S3250 1.610 . S
N3252 C3253 1.351 . S
C3253 C3247 1.428 . S
C3253 N3252 1.351 . S
C3253 C3254 1.434 1_556 S
C3254 C3245 1.429 . S
C3254 N3251 1.350 . S
C3254 C3253 1.434 1_554 S
C3255 C3256 1.369 . S
C3255 C3257 1.413 1_455 S
C3255 H3259 0.930 1_455 S
C3256 C3255 1.369 . S
C3256 C3265 1.429 . S
C3257 C3255 1.413 1_655 S
C3257 C3258 1.360 1_655 S
C3257 H3260 0.939 . S
C3258 C3257 1.360 1_455 S
C3258 C3264 1.428 . S
H3259 C3255 0.930 1_655 S
H3260 C3257 0.939 . S
S3261 N3262 1.613 . S
S3261 N3263 1.610 . S
N3262 S3261 1.613 . S
N3262 C3265 1.350 . S
N3263 S3261 1.610 . S
N3263 C3264 1.351 . S
C3264 C3258 1.428 . S
C3264 N3263 1.351 . S
C3264 C3265 1.434 . S
C3265 C3256 1.429 . S
C3265 N3262 1.350 . S
C3265 C3264 1.434 . S
C3266 C3267 1.369 . S
C3266 C3268 1.419 . S
C3266 H3270 0.930 . S
C3267 C3266 1.369 . S
C3267 C3276 1.429 . S
C3268 C3266 1.419 . S
C3268 C3269 1.363 . S
C3268 H3271 0.929 . S
C3269 C3268 1.363 . S
C3269 C3275 1.428 . S
H3270 C3266 0.930 . S
H3271 C3268 0.929 . S
S3272 N3273 1.613 . S
S3272 N3274 1.610 . S
N3273 S3272 1.613 . S
N3273 C3276 1.350 . S
N3274 S3272 1.610 . S
N3274 C3275 1.351 . S
C3275 C3269 1.428 . S
C3275 N3274 1.351 . S
C3275 C3276 1.434 . S
C3276 C3267 1.429 . S
C3276 N3273 1.350 . S
C3276 C3275 1.434 . S
C3277 C3278 1.369 . S
C3277 C3279 1.419 . S
C3277 H3281 0.930 . S
C3278 C3277 1.369 . S
C3278 C3287 1.429 . S
C3279 C3277 1.419 . S
C3279 C3280 1.363 . S
C3279 H3282 0.929 . S
C3280 C3279 1.363 . S
C3280 C3286 1.428 . S
H3281 C3277 0.930 . S
H3282 C3279 0.929 . S
S3283 N3284 1.613 . S
S3283 N3285 1.609 1_565 S
N3284 S3283 1.613 . S
N3284 C3287 1.350 1_565 S
N3285 S3283 1.609 1_545 S
N3285 C3286 1.351 . S
C3286 C3280 1.428 . S
C3286 N3285 1.351 . S
C3286 C3287 1.434 . S
C3287 C3278 1.429 . S
C3287 N3284 1.350 1_545 S
C3287 C3286 1.434 . S
C3288 C3289 1.369 . S
C3288 C3290 1.419 . S
C3288 H3292 0.930 . S
C3289 C3288 1.369 . S
C3289 C3298 1.429 . S
C3290 C3288 1.419 . S
C3290 C3291 1.363 . S
C3290 H3293 0.929 . S
C3291 C3290 1.363 . S
C3291 C3297 1.428 . S
H3292 C3288 0.930 . S
H3293 C3290 0.929 . S
S3294 N3295 1.613 . S
S3294 N3296 1.610 . S
N3295 S3294 1.613 . S
N3295 C3298 1.350 . S
N3296 S3294 1.610 . S
N3296 C3297 1.351 . S
C3297 C3291 1.428 . S
C3297 N3296 1.351 . S
C3297 C3298 1.434 . S
C3298 C3289 1.429 . S
C3298 N3295 1.350 . S
C3298 C3297 1.434 . S
C3299 C3300 1.369 . S
C3299 C3301 1.419 . S
C3299 H3303 0.930 . S
C3300 C3299 1.369 . S
C3300 C3309 1.429 . S
C3301 C3299 1.419 . S
C3301 C3302 1.363 . S
C3301 H3304 0.929 . S
C3302 C3301 1.363 . S
C3302 C3308 1.428 . S
H3303 C3299 0.930 . S
H3304 C3301 0.929 . S
S3305 N3306 1.613 . S
S3305 N3307 1.610 . S
N3306 S3305 1.613 . S
N3306 C3309 1.350 . S
N3307 S3305 1.610 . S
N3307 C3308 1.351 . S
C3308 C3302 1.428 . S
C3308 N3307 1.351 . S
C3308 C3309 1.434 . S
C3309 C3300 1.429 . S
C3309 N3306 1.350 . S
C3309 C3308 1.434 . S
C3310 C3311 1.369 . S
C3310 C3312 1.419 . S
C3310 H3314 0.930 . S
C3311 C3310 1.369 . S
C3311 C3320 1.429 . S
C3312 C3310 1.419 . S
C3312 C3313 1.363 . S
C3312 H3315 0.929 . S
C3313 C3312 1.363 . S
C3313 C3319 1.428 . S
H3314 C3310 0.930 . S
H3315 C3312 0.929 . S
S3316 N3317 1.613 . S
S3316 N3318 1.610 . S
N3317 S3316 1.613 . S
N3317 C3320 1.350 . S
N3318 S3316 1.610 . S
N3318 C3319 1.351 . S
C3319 C3313 1.428 . S
C3319 N3318 1.351 . S
C3319 C3320 1.434 . S
C3320 C3311 1.429 . S
C3320 N3317 1.350 . S
C3320 C3319 1.434 . S
C3321 C3322 1.369 . S
C3321 C3323 1.419 . S
C3321 H3325 0.930 . S
C3322 C3321 1.369 . S
C3322 C3331 1.429 . S
C3323 C3321 1.419 . S
C3323 C3324 1.363 . S
C3323 H3326 0.929 . S
C3324 C3323 1.363 . S
C3324 C3330 1.428 . S
H3325 C3321 0.930 . S
H3326 C3323 0.929 . S
S3327 N3328 1.613 . S
S3327 N3329 1.610 . S
N3328 S3327 1.613 . S
N3328 C3331 1.350 . S
N3329 S3327 1.610 . S
N3329 C3330 1.351 . S
C3330 C3324 1.428 . S
C3330 N3329 1.351 . S
C3330 C3331 1.434 . S
C3331 C3322 1.429 . S
C3331 N3328 1.350 . S
C3331 C3330 1.434 . S
C3332 C3333 1.369 . S
C3332 C3334 1.419 . S
C3332 H3336 0.930 . S
C3333 C3332 1.369 . S
C3333 C3342 1.429 . S
C3334 C3332 1.419 . S
C3334 C3335 1.363 . S
C3334 H3337 0.929 . S
C3335 C3334 1.363 . S
C3335 C3341 1.428 . S
H3336 C3332 0.930 . S
H3337 C3334 0.929 . S
S3338 N3339 1.613 . S
S3338 N3340 1.610 . S
N3339 S3338 1.613 . S
N3339 C3342 1.350 . S
N3340 S3338 1.610 . S
N3340 C3341 1.351 . S
C3341 C3335 1.428 . S
C3341 N3340 1.351 . S
C3341 C3342 1.434 . S
C3342 C3333 1.429 . S
C3342 N3339 1.350 . S
C3342 C3341 1.434 . S
C3343 C3344 1.369 . S
C3343 C3345 1.419 . S
C3343 H3347 0.930 . S
C3344 C3343 1.369 . S
C3344 C3353 1.429 . S
C3345 C3343 1.419 . S
C3345 C3346 1.363 . S
C3345 H3348 0.929 . S
C3346 C3345 1.363 . S
C3346 C3352 1.428 . S
H3347 C3343 0.930 . S
H3348 C3345 0.929 . S
S3349 N3350 1.613 . S
S3349 N3351 1.610 . S
N3350 S3349 1.613 . S
N3350 C3353 1.350 . S
N3351 S3349 1.610 . S
N3351 C3352 1.351 . S
C3352 C3346 1.428 . S
C3352 N3351 1.351 . S
C3352 C3353 1.434 . S
C3353 C3344 1.429 . S
C3353 N3350 1.350 . S
C3353 C3352 1.434 . S
C3354 C3355 1.369 . S
C3354 C3356 1.419 . S
C3354 H3358 0.930 . S
C3355 C3354 1.369 . S
C3355 C3364 1.429 . S
C3356 C3354 1.419 . S
C3356 C3357 1.363 . S
C3356 H3359 0.929 . S
C3357 C3356 1.363 . S
C3357 C3363 1.428 . S
H3358 C3354 0.930 . S
H3359 C3356 0.929 . S
S3360 N3361 1.613 . S
S3360 N3362 1.610 . S
N3361 S3360 1.613 . S
N3361 C3364 1.350 . S
N3362 S3360 1.610 . S
N3362 C3363 1.351 . S
C3363 C3357 1.428 . S
C3363 N3362 1.351 . S
C3363 C3364 1.434 . S
C3364 C3355 1.429 . S
C3364 N3361 1.350 . S
C3364 C3363 1.434 . S
C3365 C3366 1.369 . S
C3365 C3367 1.419 . S
C3365 H3369 0.930 . S
C3366 C3365 1.369 . S
C3366 C3375 1.429 . S
C3367 C3365 1.419 . S
C3367 C3368 1.363 . S
C3367 H3370 0.929 . S
C3368 C3367 1.363 . S
C3368 C3374 1.428 . S
H3369 C3365 0.930 . S
H3370 C3367 0.929 . S
S3371 N3372 1.613 . S
S3371 N3373 1.610 . S
N3372 S3371 1.613 . S
N3372 C3375 1.350 . S
N3373 S3371 1.610 . S
N3373 C3374 1.351 . S
C3374 C3368 1.428 . S
C3374 N3373 1.351 . S
C3374 C3375 1.434 . S
C3375 C3366 1.429 . S
C3375 N3372 1.350 . S
C3375 C3374 1.434 . S
C3376 C3377 1.369 . S
C3376 C3378 1.419 . S
C3376 H3380 0.930 . S
C3377 C3376 1.369 . S
C3377 C3386 1.429 . S
C3378 C3376 1.419 . S
C3378 C3379 1.363 . S
C3378 H3381 0.929 . S
C3379 C3378 1.363 . S
C3379 C3385 1.428 . S
H3380 C3376 0.930 . S
H3381 C3378 0.929 . S
S3382 N3383 1.613 . S
S3382 N3384 1.610 . S
N3383 S3382 1.613 . S
N3383 C3386 1.350 . S
N3384 S3382 1.610 . S
N3384 C3385 1.351 . S
C3385 C3379 1.428 . S
C3385 N3384 1.351 . S
C3385 C3386 1.434 . S
C3386 C3377 1.429 . S
C3386 N3383 1.350 . S
C3386 C3385 1.434 . S
C3387 C3388 1.369 . S
C3387 C3389 1.419 . S
C3387 H3391 0.930 . S
C3388 C3387 1.369 . S
C3388 C3397 1.429 . S
C3389 C3387 1.419 . S
C3389 C3390 1.363 . S
C3389 H3392 0.929 . S
C3390 C3389 1.363 . S
C3390 C3396 1.428 . S
H3391 C3387 0.930 . S
H3392 C3389 0.929 . S
S3393 N3394 1.613 . S
S3393 N3395 1.610 . S
N3394 S3393 1.613 . S
N3394 C3397 1.350 . S
N3395 S3393 1.610 . S
N3395 C3396 1.351 . S
C3396 C3390 1.428 . S
C3396 N3395 1.351 . S
C3396 C3397 1.434 . S
C3397 C3388 1.429 . S
C3397 N3394 1.350 . S
C3397 C3396 1.434 . S
C3398 C3399 1.369 . S
C3398 C3400 1.419 . S
C3398 H3402 0.930 . S
C3399 C3398 1.369 . S
C3399 C3408 1.429 . S
C3400 C3398 1.419 . S
C3400 C3401 1.363 . S
C3400 H3403 0.929 . S
C3401 C3400 1.363 . S
C3401 C3407 1.428 . S
H3402 C3398 0.930 . S
H3403 C3400 0.929 . S
S3404 N3405 1.613 . S
S3404 N3406 1.610 . S
N3405 S3404 1.613 . S
N3405 C3408 1.350 . S
N3406 S3404 1.610 . S
N3406 C3407 1.351 . S
C3407 C3401 1.428 . S
C3407 N3406 1.351 . S
C3407 C3408 1.434 . S
C3408 C3399 1.429 . S
C3408 N3405 1.350 . S
C3408 C3407 1.434 . S
C3409 C3410 1.369 . S
C3409 C3411 1.419 . S
C3409 H3413 0.930 . S
C3410 C3409 1.369 . S
C3410 C3419 1.429 . S
C3411 C3409 1.419 . S
C3411 C3412 1.363 . S
C3411 H3414 0.929 . S
C3412 C3411 1.363 . S
C3412 C3418 1.428 . S
H3413 C3409 0.930 . S
H3414 C3411 0.929 . S
S3415 N3416 1.613 . S
S3415 N3417 1.610 . S
N3416 S3415 1.613 . S
N3416 C3419 1.350 . S
N3417 S3415 1.610 . S
N3417 C3418 1.351 . S
C3418 C3412 1.428 . S
C3418 N3417 1.351 . S
C3418 C3419 1.434 . S
C3419 C3410 1.429 . S
C3419 N3416 1.350 . S
C3419 C3418 1.434 . S
C3420 C3421 1.369 . S
C3420 C3422 1.419 . S
C3420 H3424 0.930 . S
C3421 C3420 1.369 . S
C3421 C3430 1.429 . S
C3422 C3420 1.419 . S
C3422 C3423 1.363 . S
C3422 H3425 0.929 . S
C3423 C3422 1.363 . S
C3423 C3429 1.428 . S
H3424 C3420 0.930 . S
H3425 C3422 0.929 . S
S3426 N3427 1.613 . S
S3426 N3428 1.610 . S
N3427 S3426 1.613 . S
N3427 C3430 1.350 . S
N3428 S3426 1.610 . S
N3428 C3429 1.351 . S
C3429 C3423 1.428 . S
C3429 N3428 1.351 . S
C3429 C3430 1.434 . S
C3430 C3421 1.429 . S
C3430 N3427 1.350 . S
C3430 C3429 1.434 . S
C3431 C3432 1.369 . S
C3431 C3433 1.419 . S
C3431 H3435 0.930 . S
C3432 C3431 1.369 . S
C3432 C3441 1.429 . S
C3433 C3431 1.419 . S
C3433 C3434 1.363 . S
C3433 H3436 0.929 . S
C3434 C3433 1.363 . S
C3434 C3440 1.428 . S
H3435 C3431 0.930 . S
H3436 C3433 0.929 . S
S3437 N3438 1.613 . S
S3437 N3439 1.610 . S
N3438 S3437 1.613 . S
N3438 C3441 1.350 . S
N3439 S3437 1.610 . S
N3439 C3440 1.351 . S
C3440 C3434 1.428 . S
C3440 N3439 1.351 . S
C3440 C3441 1.434 . S
C3441 C3432 1.429 . S
C3441 N3438 1.350 . S
C3441 C3440 1.434 . S
C3442 C3443 1.369 . S
C3442 C3444 1.419 . S
C3442 H3446 0.930 . S
C3443 C3442 1.369 . S
C3443 C3452 1.429 . S
C3444 C3442 1.419 . S
C3444 C3445 1.363 . S
C3444 H3447 0.929 . S
C3445 C3444 1.363 . S
C3445 C3451 1.428 . S
H3446 C3442 0.930 . S
H3447 C3444 0.929 . S
S3448 N3449 1.613 . S
S3448 N3450 1.610 . S
N3449 S3448 1.613 . S
N3449 C3452 1.350 . S
N3450 S3448 1.610 . S
N3450 C3451 1.351 . S
C3451 C3445 1.428 . S
C3451 N3450 1.351 . S
C3451 C3452 1.434 . S
C3452 C3443 1.429 . S
C3452 N3449 1.350 . S
C3452 C3451 1.434 . S
C3453 C3454 1.369 . S
C3453 C3455 1.419 . S
C3453 H3457 0.930 . S
C3454 C3453 1.369 . S
C3454 C3463 1.429 . S
C3455 C3453 1.419 . S
C3455 C3456 1.363 . S
C3455 H3458 0.929 . S
C3456 C3455 1.363 . S
C3456 C3462 1.428 . S
H3457 C3453 0.930 . S
H3458 C3455 0.929 . S
S3459 N3460 1.613 . S
S3459 N3461 1.610 . S
N3460 S3459 1.613 . S
N3460 C3463 1.350 . S
N3461 S3459 1.610 . S
N3461 C3462 1.351 . S
C3462 C3456 1.428 . S
C3462 N3461 1.351 . S
C3462 C3463 1.434 . S
C3463 C3454 1.429 . S
C3463 N3460 1.350 . S
C3463 C3462 1.434 . S
C3464 C3465 1.369 . S
C3464 C3466 1.419 . S
C3464 H3468 0.930 . S
C3465 C3464 1.369 . S
C3465 C3474 1.429 . S
C3466 C3464 1.419 . S
C3466 C3467 1.363 . S
C3466 H3469 0.929 . S
C3467 C3466 1.363 . S
C3467 C3473 1.428 . S
H3468 C3464 0.930 . S
H3469 C3466 0.929 . S
S3470 N3471 1.613 . S
S3470 N3472 1.610 . S
N3471 S3470 1.613 . S
N3471 C3474 1.350 . S
N3472 S3470 1.610 . S
N3472 C3473 1.351 . S
C3473 C3467 1.428 . S
C3473 N3472 1.351 . S
C3473 C3474 1.434 . S
C3474 C3465 1.429 . S
C3474 N3471 1.350 . S
C3474 C3473 1.434 . S
C3475 C3476 1.369 . S
C3475 C3477 1.419 . S
C3475 H3479 0.930 . S
C3476 C3475 1.369 . S
C3476 C3485 1.429 . S
C3477 C3475 1.419 . S
C3477 C3478 1.363 . S
C3477 H3480 0.929 . S
C3478 C3477 1.363 . S
C3478 C3484 1.428 . S
H3479 C3475 0.930 . S
H3480 C3477 0.929 . S
S3481 N3482 1.613 . S
S3481 N3483 1.610 . S
N3482 S3481 1.613 . S
N3482 C3485 1.350 . S
N3483 S3481 1.610 . S
N3483 C3484 1.351 . S
C3484 C3478 1.428 . S
C3484 N3483 1.351 . S
C3484 C3485 1.434 . S
C3485 C3476 1.429 . S
C3485 N3482 1.350 . S
C3485 C3484 1.434 . S
C3486 C3487 1.369 . S
C3486 C3488 1.419 . S
C3486 H3490 0.930 . S
C3487 C3486 1.369 . S
C3487 C3496 1.429 . S
C3488 C3486 1.419 . S
C3488 C3489 1.363 . S
C3488 H3491 0.929 . S
C3489 C3488 1.363 . S
C3489 C3495 1.428 . S
H3490 C3486 0.930 . S
H3491 C3488 0.929 . S
S3492 N3493 1.613 . S
S3492 N3494 1.610 . S
N3493 S3492 1.613 . S
N3493 C3496 1.350 . S
N3494 S3492 1.610 . S
N3494 C3495 1.351 . S
C3495 C3489 1.428 . S
C3495 N3494 1.351 . S
C3495 C3496 1.434 . S
C3496 C3487 1.429 . S
C3496 N3493 1.350 . S
C3496 C3495 1.434 . S
C3497 C3498 1.369 . S
C3497 C3499 1.419 . S
C3497 H3501 0.930 . S
C3498 C3497 1.369 . S
C3498 C3507 1.429 . S
C3499 C3497 1.419 . S
C3499 C3500 1.363 . S
C3499 H3502 0.929 . S
C3500 C3499 1.363 . S
C3500 C3506 1.428 . S
H3501 C3497 0.930 . S
H3502 C3499 0.929 . S
S3503 N3504 1.613 . S
S3503 N3505 1.610 . S
N3504 S3503 1.613 . S
N3504 C3507 1.350 . S
N3505 S3503 1.610 . S
N3505 C3506 1.351 . S
C3506 C3500 1.428 . S
C3506 N3505 1.351 . S
C3506 C3507 1.434 . S
C3507 C3498 1.429 . S
C3507 N3504 1.350 . S
C3507 C3506 1.434 . S
C3508 C3509 1.369 . S
C3508 C3510 1.419 . S
C3508 H3512 0.930 . S
C3509 C3508 1.369 . S
C3509 C3518 1.429 . S
C3510 C3508 1.419 . S
C3510 C3511 1.363 . S
C3510 H3513 0.929 . S
C3511 C3510 1.363 . S
C3511 C3517 1.428 . S
H3512 C3508 0.930 . S
H3513 C3510 0.929 . S
S3514 N3515 1.613 . S
S3514 N3516 1.610 . S
N3515 S3514 1.613 . S
N3515 C3518 1.350 . S
N3516 S3514 1.610 . S
N3516 C3517 1.351 . S
C3517 C3511 1.428 . S
C3517 N3516 1.351 . S
C3517 C3518 1.434 . S
C3518 C3509 1.429 . S
C3518 N3515 1.350 . S
C3518 C3517 1.434 . S
C3519 C3520 1.369 . S
C3519 C3521 1.419 . S
C3519 H3523 0.930 . S
C3520 C3519 1.369 . S
C3520 C3529 1.429 . S
C3521 C3519 1.419 . S
C3521 C3522 1.363 . S
C3521 H3524 0.929 . S
C3522 C3521 1.363 . S
C3522 C3528 1.428 . S
H3523 C3519 0.930 . S
H3524 C3521 0.929 . S
S3525 N3526 1.613 . S
S3525 N3527 1.610 . S
N3526 S3525 1.613 . S
N3526 C3529 1.350 . S
N3527 S3525 1.610 . S
N3527 C3528 1.351 . S
C3528 C3522 1.428 . S
C3528 N3527 1.351 . S
C3528 C3529 1.434 . S
C3529 C3520 1.429 . S
C3529 N3526 1.350 . S
C3529 C3528 1.434 . S
C3530 C3531 1.369 . S
C3530 C3532 1.419 . S
C3530 H3534 0.930 . S
C3531 C3530 1.369 . S
C3531 C3540 1.429 . S
C3532 C3530 1.419 . S
C3532 C3533 1.363 . S
C3532 H3535 0.929 . S
C3533 C3532 1.363 . S
C3533 C3539 1.428 . S
H3534 C3530 0.930 . S
H3535 C3532 0.929 . S
S3536 N3537 1.613 . S
S3536 N3538 1.610 . S
N3537 S3536 1.613 . S
N3537 C3540 1.350 . S
N3538 S3536 1.610 . S
N3538 C3539 1.351 . S
C3539 C3533 1.428 . S
C3539 N3538 1.351 . S
C3539 C3540 1.434 . S
C3540 C3531 1.429 . S
C3540 N3537 1.350 . S
C3540 C3539 1.434 . S
C3541 C3542 1.369 . S
C3541 C3543 1.419 . S
C3541 H3545 0.930 . S
C3542 C3541 1.369 . S
C3542 C3551 1.429 . S
C3543 C3541 1.419 . S
C3543 C3544 1.363 . S
C3543 H3546 0.929 . S
C3544 C3543 1.363 . S
C3544 C3550 1.428 . S
H3545 C3541 0.930 . S
H3546 C3543 0.929 . S
S3547 N3548 1.613 . S
S3547 N3549 1.610 . S
N3548 S3547 1.613 . S
N3548 C3551 1.350 . S
N3549 S3547 1.610 . S
N3549 C3550 1.351 . S
C3550 C3544 1.428 . S
C3550 N3549 1.351 . S
C3550 C3551 1.434 . S
C3551 C3542 1.429 . S
C3551 N3548 1.350 . S
C3551 C3550 1.434 . S
C3552 C3553 1.369 . S
C3552 C3554 1.419 . S
C3552 H3556 0.930 1_545 S
C3553 C3552 1.369 . S
C3553 C3562 1.429 . S
C3554 C3552 1.419 . S
C3554 C3555 1.363 . S
C3554 H3557 0.929 . S
C3555 C3554 1.363 . S
C3555 C3561 1.428 . S
H3556 C3552 0.930 1_565 S
H3557 C3554 0.929 . S
S3558 N3559 1.613 . S
S3558 N3560 1.610 . S
N3559 S3558 1.613 . S
N3559 C3562 1.350 . S
N3560 S3558 1.610 . S
N3560 C3561 1.351 . S
C3561 C3555 1.428 . S
C3561 N3560 1.351 . S
C3561 C3562 1.434 . S
C3562 C3553 1.429 . S
C3562 N3559 1.350 . S
C3562 C3561 1.434 . S
C3563 C3564 1.369 . S
C3563 C3565 1.419 1_455 S
C3563 H3567 0.911 1_455 S
C3564 C3563 1.369 . S
C3564 C3573 1.429 . S
C3565 C3563 1.419 1_655 S
C3565 C3566 1.363 . S
C3565 H3568 0.929 . S
C3566 C3565 1.363 . S
C3566 C3572 1.428 1_655 S
H3567 C3563 0.911 1_655 S
H3568 C3565 0.929 . S
S3569 N3570 1.613 . S
S3569 N3571 1.610 . S
N3570 S3569 1.613 . S
N3570 C3573 1.350 . S
N3571 S3569 1.610 . S
N3571 C3572 1.351 . S
C3572 C3566 1.428 1_455 S
C3572 N3571 1.351 . S
C3572 C3573 1.434 . S
C3573 C3564 1.429 . S
C3573 N3570 1.350 . S
C3573 C3572 1.434 . S
C3574 C3575 1.369 . S
C3574 C3576 1.419 . S
C3574 H3578 0.930 . S
C3575 C3574 1.369 . S
C3575 C3584 1.429 . S
C3576 C3574 1.419 . S
C3576 C3577 1.363 . S
C3576 H3579 0.929 . S
C3577 C3576 1.363 . S
C3577 C3583 1.428 . S
H3578 C3574 0.930 . S
H3579 C3576 0.929 . S
S3580 N3581 1.613 . S
S3580 N3582 1.610 . S
N3581 S3580 1.613 . S
N3581 C3584 1.350 . S
N3582 S3580 1.610 . S
N3582 C3583 1.351 . S
C3583 C3577 1.428 . S
C3583 N3582 1.351 . S
C3583 C3584 1.434 . S
C3584 C3575 1.429 . S
C3584 N3581 1.350 . S
C3584 C3583 1.434 . S
C3585 C3586 1.369 . S
C3585 C3587 1.419 . S
C3585 H3589 0.930 . S
C3586 C3585 1.369 . S
C3586 C3595 1.429 . S
C3587 C3585 1.419 . S
C3587 C3588 1.363 . S
C3587 H3590 0.929 . S
C3588 C3587 1.363 . S
C3588 C3594 1.428 . S
H3589 C3585 0.930 . S
H3590 C3587 0.929 . S
S3591 N3592 1.613 1_545 S
S3591 N3593 1.610 1_545 S
N3592 S3591 1.613 1_565 S
N3592 C3595 1.350 . S
N3593 S3591 1.610 1_565 S
N3593 C3594 1.351 . S
C3594 C3588 1.428 . S
C3594 N3593 1.351 . S
C3594 C3595 1.434 . S
C3595 C3586 1.429 . S
C3595 N3592 1.350 . S
C3595 C3594 1.434 . S
C3596 C3597 1.369 . S
C3596 C3598 1.419 . S
C3596 H3600 0.930 . S
C3597 C3596 1.369 . S
C3597 C3606 1.429 . S
C3598 C3596 1.419 . S
C3598 C3599 1.363 . S
C3598 H3601 0.929 . S
C3599 C3598 1.363 . S
C3599 C3605 1.428 . S
H3600 C3596 0.930 . S
H3601 C3598 0.929 . S
S3602 N3603 1.613 . S
S3602 N3604 1.610 . S
N3603 S3602 1.613 . S
N3603 C3606 1.350 . S
N3604 S3602 1.610 . S
N3604 C3605 1.351 . S
C3605 C3599 1.428 . S
C3605 N3604 1.351 . S
C3605 C3606 1.434 . S
C3606 C3597 1.429 . S
C3606 N3603 1.350 . S
C3606 C3605 1.434 . S
C3607 C3608 1.369 . S
C3607 C3609 1.419 . S
C3607 H3611 0.930 . S
C3608 C3607 1.369 . S
C3608 C3617 1.429 . S
C3609 C3607 1.419 . S
C3609 C3610 1.363 . S
C3609 H3612 0.929 . S
C3610 C3609 1.363 . S
C3610 C3616 1.428 . S
H3611 C3607 0.930 . S
H3612 C3609 0.929 . S
S3613 N3614 1.613 . S
S3613 N3615 1.610 . S
N3614 S3613 1.613 . S
N3614 C3617 1.350 . S
N3615 S3613 1.610 . S
N3615 C3616 1.351 . S
C3616 C3610 1.428 . S
C3616 N3615 1.351 . S
C3616 C3617 1.434 . S
C3617 C3608 1.429 . S
C3617 N3614 1.350 . S
C3617 C3616 1.434 . S
C3618 C3619 1.369 . S
C3618 C3620 1.419 . S
C3618 H3622 0.930 . S
C3619 C3618 1.369 . S
C3619 C3628 1.429 . S
C3620 C3618 1.419 . S
C3620 C3621 1.363 . S
C3620 H3623 0.929 . S
C3621 C3620 1.363 . S
C3621 C3627 1.428 . S
H3622 C3618 0.930 . S
H3623 C3620 0.929 . S
S3624 N3625 1.613 . S
S3624 N3626 1.610 . S
N3625 S3624 1.613 . S
N3625 C3628 1.350 . S
N3626 S3624 1.610 . S
N3626 C3627 1.351 . S
C3627 C3621 1.428 . S
C3627 N3626 1.351 . S
C3627 C3628 1.434 . S
C3628 C3619 1.429 . S
C3628 N3625 1.350 . S
C3628 C3627 1.434 . S
C3629 C3630 1.369 . S
C3629 C3631 1.419 . S
C3629 H3633 0.930 . S
C3630 C3629 1.369 . S
C3630 C3639 1.429 . S
C3631 C3629 1.419 . S
C3631 C3632 1.363 . S
C3631 H3634 0.929 . S
C3632 C3631 1.363 . S
C3632 C3638 1.428 . S
H3633 C3629 0.930 . S
H3634 C3631 0.929 . S
S3635 N3636 1.613 . S
S3635 N3637 1.610 . S
N3636 S3635 1.613 . S
N3636 C3639 1.350 . S
N3637 S3635 1.610 . S
N3637 C3638 1.351 . S
C3638 C3632 1.428 . S
C3638 N3637 1.351 . S
C3638 C3639 1.434 . S
C3639 C3630 1.429 . S
C3639 N3636 1.350 . S
C3639 C3638 1.434 . S
C3640 C3641 1.369 . S
C3640 C3642 1.419 . S
C3640 H3644 0.930 . S
C3641 C3640 1.369 . S
C3641 C3650 1.429 . S
C3642 C3640 1.419 . S
C3642 C3643 1.363 . S
C3642 H3645 0.929 . S
C3643 C3642 1.363 . S
C3643 C3649 1.428 . S
H3644 C3640 0.930 . S
H3645 C3642 0.929 . S
S3646 N3647 1.613 . S
S3646 N3648 1.610 . S
N3647 S3646 1.613 . S
N3647 C3650 1.350 . S
N3648 S3646 1.610 . S
N3648 C3649 1.351 . S
C3649 C3643 1.428 . S
C3649 N3648 1.351 . S
C3649 C3650 1.434 . S
C3650 C3641 1.429 . S
C3650 N3647 1.350 . S
C3650 C3649 1.434 . S
C3651 C3652 1.369 . S
C3651 C3653 1.419 1_455 S
C3651 H3655 0.930 . S
C3652 C3651 1.369 . S
C3652 C3661 1.429 . S
C3653 C3651 1.419 1_655 S
C3653 C3654 1.363 . S
C3653 H3656 0.929 . S
C3654 C3653 1.363 . S
C3654 C3660 1.428 . S
H3655 C3651 0.930 . S
H3656 C3653 0.929 . S
S3657 N3658 1.613 . S
S3657 N3659 1.610 1_455 S
N3658 S3657 1.613 . S
N3658 C3661 1.350 . S
N3659 S3657 1.610 1_655 S
N3659 C3660 1.351 . S
C3660 C3654 1.428 . S
C3660 N3659 1.351 . S
C3660 C3661 1.434 1_655 S
C3661 C3652 1.429 . S
C3661 N3658 1.350 . S
C3661 C3660 1.434 1_455 S
C3662 C3663 1.369 . S
C3662 C3664 1.419 . S
C3662 H3666 0.930 . S
C3663 C3662 1.369 . S
C3663 C3672 1.429 . S
C3664 C3662 1.419 . S
C3664 C3665 1.363 . S
C3664 H3667 0.929 . S
C3665 C3664 1.363 . S
C3665 C3671 1.428 . S
H3666 C3662 0.930 . S
H3667 C3664 0.929 . S
S3668 N3669 1.613 . S
S3668 N3670 1.610 . S
N3669 S3668 1.613 . S
N3669 C3672 1.350 . S
N3670 S3668 1.610 . S
N3670 C3671 1.351 . S
C3671 C3665 1.428 . S
C3671 N3670 1.351 . S
C3671 C3672 1.434 . S
C3672 C3663 1.429 . S
C3672 N3669 1.350 . S
C3672 C3671 1.434 . S
C3673 C3674 1.369 . S
C3673 C3675 1.419 . S
C3673 H3677 0.930 1_545 S
C3674 C3673 1.369 . S
C3674 C3683 1.429 . S
C3675 C3673 1.419 . S
C3675 C3676 1.363 . S
C3675 H3678 0.929 . S
C3676 C3675 1.363 . S
C3676 C3682 1.428 . S
H3677 C3673 0.930 1_565 S
H3678 C3675 0.929 . S
S3679 N3680 1.613 . S
S3679 N3681 1.610 . S
N3680 S3679 1.613 . S
N3680 C3683 1.350 . S
N3681 S3679 1.610 . S
N3681 C3682 1.351 . S
C3682 C3676 1.428 . S
C3682 N3681 1.351 . S
C3682 C3683 1.434 . S
C3683 C3674 1.429 . S
C3683 N3680 1.350 . S
C3683 C3682 1.434 . S
C3684 C3685 1.369 . S
C3684 C3686 1.419 . S
C3684 H3688 0.930 . S
C3685 C3684 1.369 . S
C3685 C3694 1.429 . S
C3686 C3684 1.419 . S
C3686 C3687 1.363 . S
C3686 H3689 0.929 . S
C3687 C3686 1.363 . S
C3687 C3693 1.428 . S
H3688 C3684 0.930 . S
H3689 C3686 0.929 . S
S3690 N3691 1.613 . S
S3690 N3692 1.610 . S
N3691 S3690 1.613 . S
N3691 C3694 1.350 . S
N3692 S3690 1.610 . S
N3692 C3693 1.351 . S
C3693 C3687 1.428 . S
C3693 N3692 1.351 . S
C3693 C3694 1.434 . S
C3694 C3685 1.429 . S
C3694 N3691 1.350 . S
C3694 C3693 1.434 . S
C3695 C3696 1.369 . S
C3695 C3697 1.419 . S
C3695 H3699 0.930 . S
C3696 C3695 1.369 . S
C3696 C3705 1.429 . S
C3697 C3695 1.419 . S
C3697 C3698 1.363 . S
C3697 H3700 0.929 . S
C3698 C3697 1.363 . S
C3698 C3704 1.428 . S
H3699 C3695 0.930 . S
H3700 C3697 0.929 . S
S3701 N3702 1.613 . S
S3701 N3703 1.610 . S
N3702 S3701 1.613 . S
N3702 C3705 1.350 . S
N3703 S3701 1.610 . S
N3703 C3704 1.351 . S
C3704 C3698 1.428 . S
C3704 N3703 1.351 . S
C3704 C3705 1.434 . S
C3705 C3696 1.429 . S
C3705 N3702 1.350 . S
C3705 C3704 1.434 . S
C3706 C3707 1.369 . S
C3706 C3708 1.419 . S
C3706 H3710 0.930 . S
C3707 C3706 1.369 . S
C3707 C3716 1.429 . S
C3708 C3706 1.419 . S
C3708 C3709 1.363 . S
C3708 H3711 0.929 . S
C3709 C3708 1.363 . S
C3709 C3715 1.428 . S
H3710 C3706 0.930 . S
H3711 C3708 0.929 . S
S3712 N3713 1.613 . S
S3712 N3714 1.610 . S
N3713 S3712 1.613 . S
N3713 C3716 1.350 . S
N3714 S3712 1.610 . S
N3714 C3715 1.351 . S
C3715 C3709 1.428 . S
C3715 N3714 1.351 . S
C3715 C3716 1.434 . S
C3716 C3707 1.429 . S
C3716 N3713 1.350 . S
C3716 C3715 1.434 . S
C3717 C3718 1.369 . S
C3717 C3719 1.419 . S
C3717 H3721 0.930 . S
C3718 C3717 1.369 . S
C3718 C3727 1.429 . S
C3719 C3717 1.419 . S
C3719 C3720 1.363 . S
C3719 H3722 0.929 . S
C3720 C3719 1.363 . S
C3720 C3726 1.428 . S
H3721 C3717 0.930 . S
H3722 C3719 0.929 . S
S3723 N3724 1.613 1_655 S
S3723 N3725 1.610 . S
N3724 S3723 1.613 1_455 S
N3724 C3727 1.350 . S
N3725 S3723 1.610 . S
N3725 C3726 1.351 1_655 S
C3726 C3720 1.428 . S
C3726 N3725 1.351 1_455 S
C3726 C3727 1.434 . S
C3727 C3718 1.429 . S
C3727 N3724 1.350 . S
C3727 C3726 1.434 . S
C3728 C3729 1.369 . S
C3728 C3730 1.419 . S
C3728 H3732 0.930 . S
C3729 C3728 1.369 . S
C3729 C3738 1.429 . S
C3730 C3728 1.419 . S
C3730 C3731 1.363 . S
C3730 H3733 0.929 . S
C3731 C3730 1.363 . S
C3731 C3737 1.428 . S
H3732 C3728 0.930 . S
H3733 C3730 0.929 . S
S3734 N3735 1.613 . S
S3734 N3736 1.610 . S
N3735 S3734 1.613 . S
N3735 C3738 1.350 . S
N3736 S3734 1.610 . S
N3736 C3737 1.351 . S
C3737 C3731 1.428 . S
C3737 N3736 1.351 . S
C3737 C3738 1.434 . S
C3738 C3729 1.429 . S
C3738 N3735 1.350 . S
C3738 C3737 1.434 . S
C3739 C3740 1.369 . S
C3739 C3741 1.419 1_545 S
C3739 H3743 0.930 . S
C3740 C3739 1.369 . S
C3740 C3749 1.429 . S
C3741 C3739 1.419 1_565 S
C3741 C3742 1.363 . S
C3741 H3744 0.929 . S
C3742 C3741 1.363 . S
C3742 C3748 1.428 1_565 S
H3743 C3739 0.930 . S
H3744 C3741 0.929 . S
S3745 N3746 1.613 . S
S3745 N3747 1.610 . S
N3746 S3745 1.613 . S
N3746 C3749 1.350 . S
N3747 S3745 1.610 . S
N3747 C3748 1.351 . S
C3748 C3742 1.428 1_545 S
C3748 N3747 1.351 . S
C3748 C3749 1.434 . S
C3749 C3740 1.429 . S
C3749 N3746 1.350 . S
C3749 C3748 1.434 . S
C3750 C3751 1.369 . S
C3750 C3752 1.419 1_565 S
C3750 H3754 0.930 . S
C3751 C3750 1.369 . S
C3751 C3760 1.429 1_565 S
C3752 C3750 1.419 1_545 S
C3752 C3753 1.363 . S
C3752 H3755 0.929 . S
C3753 C3752 1.363 . S
C3753 C3759 1.428 . S
H3754 C3750 0.930 . S
H3755 C3752 0.929 . S
S3756 N3757 1.613 . S
S3756 N3758 1.610 . S
N3757 S3756 1.613 . S
N3757 C3760 1.350 . S
N3758 S3756 1.610 . S
N3758 C3759 1.351 . S
C3759 C3753 1.428 . S
C3759 N3758 1.351 . S
C3759 C3760 1.434 . S
C3760 C3751 1.429 1_545 S
C3760 N3757 1.350 . S
C3760 C3759 1.434 . S
C3761 C3762 1.369 . S
C3761 C3763 1.419 . S
C3761 H3765 0.930 . S
C3762 C3761 1.369 . S
C3762 C3771 1.429 . S
C3763 C3761 1.419 . S
C3763 C3764 1.363 . S
C3763 H3766 0.929 . S
C3764 C3763 1.363 . S
C3764 C3770 1.428 . S
H3765 C3761 0.930 . S
H3766 C3763 0.929 . S
S3767 N3768 1.613 . S
S3767 N3769 1.610 1_455 S
N3768 S3767 1.613 . S
N3768 C3771 1.350 . S
N3769 S3767 1.610 1_655 S
N3769 C3770 1.351 1_655 S
C3770 C3764 1.428 . S
C3770 N3769 1.351 1_455 S
C3770 C3771 1.434 . S
C3771 C3762 1.429 . S
C3771 N3768 1.350 . S
C3771 C3770 1.434 . S
C3772 C3773 1.369 . S
C3772 C3774 1.419 . S
C3772 H3776 0.930 . S
C3773 C3772 1.369 . S
C3773 C3782 1.429 . S
C3774 C3772 1.419 . S
C3774 C3775 1.363 . S
C3774 H3777 0.929 . S
C3775 C3774 1.363 . S
C3775 C3781 1.428 . S
H3776 C3772 0.930 . S
H3777 C3774 0.929 . S
S3778 N3779 1.613 . S
S3778 N3780 1.610 . S
N3779 S3778 1.613 . S
N3779 C3782 1.350 . S
N3780 S3778 1.610 . S
N3780 C3781 1.351 . S
C3781 C3775 1.428 . S
C3781 N3780 1.351 . S
C3781 C3782 1.434 . S
C3782 C3773 1.429 . S
C3782 N3779 1.350 . S
C3782 C3781 1.434 . S
C3783 C3784 1.369 . S
C3783 C3785 1.419 . S
C3783 H3787 0.930 . S
C3784 C3783 1.369 . S
C3784 C3793 1.429 . S
C3785 C3783 1.419 . S
C3785 C3786 1.363 . S
C3785 H3788 0.929 . S
C3786 C3785 1.363 . S
C3786 C3792 1.428 . S
H3787 C3783 0.930 . S
H3788 C3785 0.929 . S
S3789 N3790 1.613 . S
S3789 N3791 1.610 . S
N3790 S3789 1.613 . S
N3790 C3793 1.350 . S
N3791 S3789 1.610 . S
N3791 C3792 1.351 . S
C3792 C3786 1.428 . S
C3792 N3791 1.351 . S
C3792 C3793 1.434 . S
C3793 C3784 1.429 . S
C3793 N3790 1.350 . S
C3793 C3792 1.434 . S
C3794 C3795 1.369 . S
C3794 C3796 1.419 . S
C3794 H3798 0.930 . S
C3795 C3794 1.369 . S
C3795 C3804 1.429 . S
C3796 C3794 1.419 . S
C3796 C3797 1.363 . S
C3796 H3799 0.929 . S
C3797 C3796 1.363 . S
C3797 C3803 1.428 . S
H3798 C3794 0.930 . S
H3799 C3796 0.929 . S
S3800 N3801 1.613 . S
S3800 N3802 1.610 . S
N3801 S3800 1.613 . S
N3801 C3804 1.350 . S
N3802 S3800 1.610 . S
N3802 C3803 1.351 . S
C3803 C3797 1.428 . S
C3803 N3802 1.351 . S
C3803 C3804 1.434 . S
C3804 C3795 1.429 . S
C3804 N3801 1.350 . S
C3804 C3803 1.434 . S
C3805 C3806 1.369 . S
C3805 C3807 1.419 . S
C3805 H3809 0.930 . S
C3806 C3805 1.369 . S
C3806 C3815 1.429 . S
C3807 C3805 1.419 . S
C3807 C3808 1.363 . S
C3807 H3810 0.929 . S
C3808 C3807 1.363 . S
C3808 C3814 1.428 . S
H3809 C3805 0.930 . S
H3810 C3807 0.929 . S
S3811 N3812 1.613 . S
S3811 N3813 1.610 . S
N3812 S3811 1.613 . S
N3812 C3815 1.350 . S
N3813 S3811 1.610 . S
N3813 C3814 1.351 . S
C3814 C3808 1.428 . S
C3814 N3813 1.351 . S
C3814 C3815 1.434 . S
C3815 C3806 1.429 . S
C3815 N3812 1.350 . S
C3815 C3814 1.434 . S
C3816 C3817 1.369 . S
C3816 C3818 1.419 . S
C3816 H3820 0.930 . S
C3817 C3816 1.369 . S
C3817 C3826 1.429 . S
C3818 C3816 1.419 . S
C3818 C3819 1.363 . S
C3818 H3821 0.929 . S
C3819 C3818 1.363 . S
C3819 C3825 1.428 . S
H3820 C3816 0.930 . S
H3821 C3818 0.929 . S
S3822 N3823 1.613 . S
S3822 N3824 1.610 . S
N3823 S3822 1.613 . S
N3823 C3826 1.350 . S
N3824 S3822 1.610 . S
N3824 C3825 1.351 . S
C3825 C3819 1.428 . S
C3825 N3824 1.351 . S
C3825 C3826 1.434 . S
C3826 C3817 1.429 . S
C3826 N3823 1.350 . S
C3826 C3825 1.434 . S
C3827 C3828 1.369 . S
C3827 C3829 1.419 . S
C3827 H3831 0.930 . S
C3828 C3827 1.369 . S
C3828 C3837 1.429 . S
C3829 C3827 1.419 . S
C3829 C3830 1.363 . S
C3829 H3832 0.929 . S
C3830 C3829 1.363 . S
C3830 C3836 1.428 . S
H3831 C3827 0.930 . S
H3832 C3829 0.929 . S
S3833 N3834 1.613 . S
S3833 N3835 1.610 . S
N3834 S3833 1.613 . S
N3834 C3837 1.350 . S
N3835 S3833 1.610 . S
N3835 C3836 1.351 . S
C3836 C3830 1.428 . S
C3836 N3835 1.351 . S
C3836 C3837 1.434 . S
C3837 C3828 1.429 . S
C3837 N3834 1.350 . S
C3837 C3836 1.434 . S
C3838 C3839 1.369 . S
C3838 C3840 1.419 . S
C3838 H3842 0.930 . S
C3839 C3838 1.369 . S
C3839 C3848 1.429 . S
C3840 C3838 1.419 . S
C3840 C3841 1.363 . S
C3840 H3843 0.929 . S
C3841 C3840 1.363 . S
C3841 C3847 1.428 . S
H3842 C3838 0.930 . S
H3843 C3840 0.929 . S
S3844 N3845 1.613 . S
S3844 N3846 1.610 . S
N3845 S3844 1.613 . S
N3845 C3848 1.350 . S
N3846 S3844 1.610 . S
N3846 C3847 1.351 . S
C3847 C3841 1.428 . S
C3847 N3846 1.351 . S
C3847 C3848 1.434 . S
C3848 C3839 1.429 . S
C3848 N3845 1.350 . S
C3848 C3847 1.434 . S
C3849 C3850 1.369 . S
C3849 C3851 1.419 . S
C3849 H3853 0.930 . S
C3850 C3849 1.369 . S
C3850 C3859 1.429 . S
C3851 C3849 1.419 . S
C3851 C3852 1.363 . S
C3851 H3854 0.929 . S
C3852 C3851 1.363 . S
C3852 C3858 1.428 . S
H3853 C3849 0.930 . S
H3854 C3851 0.929 . S
S3855 N3856 1.613 . S
S3855 N3857 1.610 . S
N3856 S3855 1.613 . S
N3856 C3859 1.350 . S
N3857 S3855 1.610 . S
N3857 C3858 1.351 . S
C3858 C3852 1.428 . S
C3858 N3857 1.351 . S
C3858 C3859 1.434 . S
C3859 C3850 1.429 . S
C3859 N3856 1.350 . S
C3859 C3858 1.434 . S
C3860 C3861 1.369 . S
C3860 C3862 1.419 . S
C3860 H3864 0.930 . S
C3861 C3860 1.369 . S
C3861 C3870 1.429 . S
C3862 C3860 1.419 . S
C3862 C3863 1.363 . S
C3862 H3865 0.929 . S
C3863 C3862 1.363 . S
C3863 C3869 1.428 . S
H3864 C3860 0.930 . S
H3865 C3862 0.929 . S
S3866 N3867 1.613 . S
S3866 N3868 1.610 . S
N3867 S3866 1.613 . S
N3867 C3870 1.350 . S
N3868 S3866 1.610 . S
N3868 C3869 1.351 . S
C3869 C3863 1.428 . S
C3869 N3868 1.351 . S
C3869 C3870 1.434 . S
C3870 C3861 1.429 . S
C3870 N3867 1.350 . S
C3870 C3869 1.434 . S
C3871 C3872 1.369 . S
C3871 C3873 1.419 . S
C3871 H3875 0.930 . S
C3872 C3871 1.369 . S
C3872 C3881 1.429 . S
C3873 C3871 1.419 . S
C3873 C3874 1.363 . S
C3873 H3876 0.929 . S
C3874 C3873 1.363 . S
C3874 C3880 1.428 . S
H3875 C3871 0.930 . S
H3876 C3873 0.929 . S
S3877 N3878 1.613 . S
S3877 N3879 1.610 . S
N3878 S3877 1.613 . S
N3878 C3881 1.350 . S
N3879 S3877 1.610 . S
N3879 C3880 1.351 . S
C3880 C3874 1.428 . S
C3880 N3879 1.351 . S
C3880 C3881 1.434 . S
C3881 C3872 1.429 . S
C3881 N3878 1.350 . S
C3881 C3880 1.434 . S
C3882 C3883 1.369 . S
C3882 C3884 1.419 . S
C3882 H3886 0.930 . S
C3883 C3882 1.369 . S
C3883 C3892 1.429 . S
C3884 C3882 1.419 . S
C3884 C3885 1.363 . S
C3884 H3887 0.929 . S
C3885 C3884 1.363 . S
C3885 C3891 1.428 . S
H3886 C3882 0.930 . S
H3887 C3884 0.929 . S
S3888 N3889 1.613 . S
S3888 N3890 1.610 . S
N3889 S3888 1.613 . S
N3889 C3892 1.350 . S
N3890 S3888 1.610 . S
N3890 C3891 1.351 . S
C3891 C3885 1.428 . S
C3891 N3890 1.351 . S
C3891 C3892 1.434 . S
C3892 C3883 1.429 . S
C3892 N3889 1.350 . S
C3892 C3891 1.434 . S
C3893 C3894 1.369 . S
C3893 C3895 1.419 . S
C3893 H3897 0.930 . S
C3894 C3893 1.369 . S
C3894 C3903 1.429 . S
C3895 C3893 1.419 . S
C3895 C3896 1.363 . S
C3895 H3898 0.929 . S
C3896 C3895 1.363 . S
C3896 C3902 1.428 . S
H3897 C3893 0.930 . S
H3898 C3895 0.929 . S
S3899 N3900 1.613 . S
S3899 N3901 1.610 . S
N3900 S3899 1.613 . S
N3900 C3903 1.350 . S
N3901 S3899 1.610 . S
N3901 C3902 1.351 . S
C3902 C3896 1.428 . S
C3902 N3901 1.351 . S
C3902 C3903 1.434 . S
C3903 C3894 1.429 . S
C3903 N3900 1.350 . S
C3903 C3902 1.434 . S
C3904 C3905 1.369 . S
C3904 C3906 1.419 . S
C3904 H3908 0.930 . S
C3905 C3904 1.369 . S
C3905 C3914 1.429 . S
C3906 C3904 1.419 . S
C3906 C3907 1.363 . S
C3906 H3909 0.929 . S
C3907 C3906 1.363 . S
C3907 C3913 1.428 . S
H3908 C3904 0.930 . S
H3909 C3906 0.929 . S
S3910 N3911 1.613 . S
S3910 N3912 1.610 . S
N3911 S3910 1.613 . S
N3911 C3914 1.350 . S
N3912 S3910 1.610 . S
N3912 C3913 1.351 . S
C3913 C3907 1.428 . S
C3913 N3912 1.351 . S
C3913 C3914 1.434 . S
C3914 C3905 1.429 . S
C3914 N3911 1.350 . S
C3914 C3913 1.434 . S
C3915 C3916 1.369 . S
C3915 C3917 1.419 . S
C3915 H3919 0.930 . S
C3916 C3915 1.369 . S
C3916 C3925 1.429 . S
C3917 C3915 1.419 . S
C3917 C3918 1.363 . S
C3917 H3920 0.929 . S
C3918 C3917 1.363 . S
C3918 C3924 1.428 . S
H3919 C3915 0.930 . S
H3920 C3917 0.929 . S
S3921 N3922 1.613 . S
S3921 N3923 1.610 . S
N3922 S3921 1.613 . S
N3922 C3925 1.350 . S
N3923 S3921 1.610 . S
N3923 C3924 1.351 . S
C3924 C3918 1.428 . S
C3924 N3923 1.351 . S
C3924 C3925 1.434 . S
C3925 C3916 1.429 . S
C3925 N3922 1.350 . S
C3925 C3924 1.434 . S
C3926 C3927 1.369 . S
C3926 C3928 1.419 . S
C3926 H3930 0.930 . S
C3927 C3926 1.369 . S
C3927 C3936 1.429 . S
C3928 C3926 1.419 . S
C3928 C3929 1.363 . S
C3928 H3931 0.929 . S
C3929 C3928 1.363 . S
C3929 C3935 1.428 . S
H3930 C3926 0.930 . S
H3931 C3928 0.929 . S
S3932 N3933 1.613 . S
S3932 N3934 1.610 . S
N3933 S3932 1.613 . S
N3933 C3936 1.350 . S
N3934 S3932 1.610 . S
N3934 C3935 1.351 . S
C3935 C3929 1.428 . S
C3935 N3934 1.351 . S
C3935 C3936 1.434 . S
C3936 C3927 1.429 . S
C3936 N3933 1.350 . S
C3936 C3935 1.434 . S
C3937 C3938 1.369 . S
C3937 C3939 1.419 . S
C3937 H3941 0.930 . S
C3938 C3937 1.369 . S
C3938 C3947 1.429 . S
C3939 C3937 1.419 . S
C3939 C3940 1.363 . S
C3939 H3942 0.929 . S
C3940 C3939 1.363 . S
C3940 C3946 1.428 . S
H3941 C3937 0.930 . S
H3942 C3939 0.929 . S
S3943 N3944 1.613 . S
S3943 N3945 1.610 . S
N3944 S3943 1.613 . S
N3944 C3947 1.350 . S
N3945 S3943 1.610 . S
N3945 C3946 1.351 . S
C3946 C3940 1.428 . S
C3946 N3945 1.351 . S
C3946 C3947 1.434 . S
C3947 C3938 1.429 . S
C3947 N3944 1.350 . S
C3947 C3946 1.434 . S
C3948 C3949 1.369 . S
C3948 C3950 1.419 . S
C3948 H3952 0.930 . S
C3949 C3948 1.369 . S
C3949 C3958 1.429 . S
C3950 C3948 1.419 . S
C3950 C3951 1.363 . S
C3950 H3953 0.929 . S
C3951 C3950 1.363 . S
C3951 C3957 1.428 . S
H3952 C3948 0.930 . S
H3953 C3950 0.929 . S
S3954 N3955 1.613 . S
S3954 N3956 1.610 . S
N3955 S3954 1.613 . S
N3955 C3958 1.350 . S
N3956 S3954 1.610 . S
N3956 C3957 1.351 . S
C3957 C3951 1.428 . S
C3957 N3956 1.351 . S
C3957 C3958 1.434 . S
C3958 C3949 1.429 . S
C3958 N3955 1.350 . S
C3958 C3957 1.434 . S
C3959 C3960 1.369 . S
C3959 C3961 1.419 . S
C3959 H3963 0.930 . S
C3960 C3959 1.369 . S
C3960 C3969 1.429 . S
C3961 C3959 1.419 . S
C3961 C3962 1.363 . S
C3961 H3964 0.929 . S
C3962 C3961 1.363 . S
C3962 C3968 1.428 . S
H3963 C3959 0.930 . S
H3964 C3961 0.929 . S
S3965 N3966 1.613 . S
S3965 N3967 1.610 . S
N3966 S3965 1.613 . S
N3966 C3969 1.350 . S
N3967 S3965 1.610 . S
N3967 C3968 1.351 . S
C3968 C3962 1.428 . S
C3968 N3967 1.351 . S
C3968 C3969 1.434 . S
C3969 C3960 1.429 . S
C3969 N3966 1.350 . S
C3969 C3968 1.434 . S
C3970 C3971 1.369 . S
C3970 C3972 1.419 . S
C3970 H3974 0.930 . S
C3971 C3970 1.369 . S
C3971 C3980 1.429 . S
C3972 C3970 1.419 . S
C3972 C3973 1.363 . S
C3972 H3975 0.929 . S
C3973 C3972 1.363 . S
C3973 C3979 1.428 . S
H3974 C3970 0.930 . S
H3975 C3972 0.929 . S
S3976 N3977 1.613 . S
S3976 N3978 1.610 . S
N3977 S3976 1.613 . S
N3977 C3980 1.350 . S
N3978 S3976 1.610 . S
N3978 C3979 1.351 . S
C3979 C3973 1.428 . S
C3979 N3978 1.351 . S
C3979 C3980 1.434 . S
C3980 C3971 1.429 . S
C3980 N3977 1.350 . S
C3980 C3979 1.434 . S
C3981 C3982 1.369 . S
C3981 C3983 1.419 . S
C3981 H3985 0.930 . S
C3982 C3981 1.369 . S
C3982 C3991 1.429 . S
C3983 C3981 1.419 . S
C3983 C3984 1.363 1_455 S
C3983 H3986 0.929 1_455 S
C3984 C3983 1.363 1_655 S
C3984 C3990 1.428 1_655 S
H3985 C3981 0.930 . S
H3986 C3983 0.929 1_655 S
S3987 N3988 1.613 . S
S3987 N3989 1.610 . S
N3988 S3987 1.613 . S
N3988 C3991 1.350 . S
N3989 S3987 1.610 . S
N3989 C3990 1.351 . S
C3990 C3984 1.428 1_455 S
C3990 N3989 1.351 . S
C3990 C3991 1.434 . S
C3991 C3982 1.429 . S
C3991 N3988 1.350 . S
C3991 C3990 1.434 . S
C3992 C3993 1.369 . S
C3992 C3994 1.419 . S
C3992 H3996 0.930 . S
C3993 C3992 1.369 . S
C3993 C4002 1.429 . S
C3994 C3992 1.419 . S
C3994 C3995 1.363 . S
C3994 H3997 0.929 . S
C3995 C3994 1.363 . S
C3995 C4001 1.428 . S
H3996 C3992 0.930 . S
H3997 C3994 0.929 . S
S3998 N3999 1.613 . S
S3998 N4000 1.610 . S
N3999 S3998 1.613 . S
N3999 C4002 1.350 . S
N4000 S3998 1.610 . S
N4000 C4001 1.351 . S
C4001 C3995 1.428 . S
C4001 N4000 1.351 . S
C4001 C4002 1.434 . S
C4002 C3993 1.429 . S
C4002 N3999 1.350 . S
C4002 C4001 1.434 . S
C4003 C4004 1.369 . S
C4003 C4005 1.419 1_545 S
C4003 H4007 0.930 . S
C4004 C4003 1.369 . S
C4004 C4013 1.429 . S
C4005 C4003 1.419 1_565 S
C4005 C4006 1.363 . S
C4005 H4008 0.929 . S
C4006 C4005 1.363 . S
C4006 C4012 1.428 1_565 S
H4007 C4003 0.930 . S
H4008 C4005 0.929 . S
S4009 N4010 1.613 . S
S4009 N4011 1.610 1_545 S
N4010 S4009 1.613 . S
N4010 C4013 1.350 . S
N4011 S4009 1.610 1_565 S
N4011 C4012 1.351 1_565 S
C4012 C4006 1.428 1_545 S
C4012 N4011 1.351 1_545 S
C4012 C4013 1.434 . S
C4013 C4004 1.429 . S
C4013 N4010 1.350 . S
C4013 C4012 1.434 . S
C4014 C4015 1.369 1_545 S
C4014 C4016 1.419 . S
C4014 H4018 0.930 1_545 S
C4015 C4014 1.369 1_565 S
C4015 C4024 1.429 . S
C4016 C4014 1.419 . S
C4016 C4017 1.363 . S
C4016 H4019 0.929 . S
C4017 C4016 1.363 . S
C4017 C4023 1.428 . S
H4018 C4014 0.930 1_565 S
H4019 C4016 0.929 . S
S4020 N4021 1.613 1_545 S
S4020 N4022 1.610 . S
N4021 S4020 1.613 1_565 S
N4021 C4024 1.350 . S
N4022 S4020 1.610 . S
N4022 C4023 1.351 . S
C4023 C4017 1.428 . S
C4023 N4022 1.351 . S
C4023 C4024 1.434 1_545 S
C4024 C4015 1.429 . S
C4024 N4021 1.350 . S
C4024 C4023 1.434 1_565 S
C4025 C4026 1.369 . S
C4025 C4027 1.419 . S
C4025 H4029 0.930 . S
C4026 C4025 1.369 . S
C4026 C4035 1.429 . S
C4027 C4025 1.419 . S
C4027 C4028 1.363 1_455 S
C4027 H4030 0.929 1_455 S
C4028 C4027 1.363 1_655 S
C4028 C4034 1.428 1_655 S
H4029 C4025 0.930 . S
H4030 C4027 0.929 1_655 S
S4031 N4032 1.613 . S
S4031 N4033 1.610 . S
N4032 S4031 1.613 . S
N4032 C4035 1.350 . S
N4033 S4031 1.610 . S
N4033 C4034 1.351 . S
C4034 C4028 1.428 1_455 S
C4034 N4033 1.351 . S
C4034 C4035 1.434 . S
C4035 C4026 1.429 . S
C4035 N4032 1.350 . S
C4035 C4034 1.434 . S
C4036 C4037 1.369 . S
C4036 C4038 1.419 . S
C4036 H4040 0.930 . S
C4037 C4036 1.369 . S
C4037 C4046 1.429 . S
C4038 C4036 1.419 . S
C4038 C4039 1.363 . S
C4038 H4041 0.929 . S
C4039 C4038 1.363 . S
C4039 C4045 1.428 . S
H4040 C4036 0.930 . S
H4041 C4038 0.929 . S
S4042 N4043 1.613 . S
S4042 N4044 1.610 . S
N4043 S4042 1.613 . S
N4043 C4046 1.350 . S
N4044 S4042 1.610 . S
N4044 C4045 1.351 . S
C4045 C4039 1.428 . S
C4045 N4044 1.351 . S
C4045 C4046 1.434 . S
C4046 C4037 1.429 . S
C4046 N4043 1.350 . S
C4046 C4045 1.434 . S
C4047 C4048 1.369 . S
C4047 C4049 1.419 . S
C4047 H4051 0.930 . S
C4048 C4047 1.369 . S
C4048 C4057 1.429 . S
C4049 C4047 1.419 . S
C4049 C4050 1.363 . S
C4049 H4052 0.929 . S
C4050 C4049 1.363 . S
C4050 C4056 1.428 . S
H4051 C4047 0.930 . S
H4052 C4049 0.929 . S
S4053 N4054 1.613 . S
S4053 N4055 1.610 . S
N4054 S4053 1.613 . S
N4054 C4057 1.350 . S
N4055 S4053 1.610 . S
N4055 C4056 1.351 . S
C4056 C4050 1.428 . S
C4056 N4055 1.351 . S
C4056 C4057 1.434 . S
C4057 C4048 1.429 . S
C4057 N4054 1.350 . S
C4057 C4056 1.434 . S
C4058 C4059 1.369 . S
C4058 C4060 1.419 . S
C4058 H4062 0.930 . S
C4059 C4058 1.369 . S
C4059 C4068 1.429 . S
C4060 C4058 1.419 . S
C4060 C4061 1.363 . S
C4060 H4063 0.929 . S
C4061 C4060 1.363 . S
C4061 C4067 1.428 . S
H4062 C4058 0.930 . S
H4063 C4060 0.929 . S
S4064 N4065 1.613 . S
S4064 N4066 1.610 . S
N4065 S4064 1.613 . S
N4065 C4068 1.350 . S
N4066 S4064 1.610 . S
N4066 C4067 1.351 . S
C4067 C4061 1.428 . S
C4067 N4066 1.351 . S
C4067 C4068 1.434 . S
C4068 C4059 1.429 . S
C4068 N4065 1.350 . S
C4068 C4067 1.434 . S
C4069 C4070 1.369 . S
C4069 C4071 1.419 . S
C4069 H4073 0.930 . S
C4070 C4069 1.369 . S
C4070 C4079 1.429 . S
C4071 C4069 1.419 . S
C4071 C4072 1.363 . S
C4071 H4074 0.929 . S
C4072 C4071 1.363 . S
C4072 C4078 1.428 . S
H4073 C4069 0.930 . S
H4074 C4071 0.929 . S
S4075 N4076 1.613 . S
S4075 N4077 1.610 . S
N4076 S4075 1.613 . S
N4076 C4079 1.350 . S
N4077 S4075 1.610 . S
N4077 C4078 1.351 . S
C4078 C4072 1.428 . S
C4078 N4077 1.351 . S
C4078 C4079 1.434 . S
C4079 C4070 1.429 . S
C4079 N4076 1.350 . S
C4079 C4078 1.434 . S
C4080 C4081 1.369 1_545 S
C4080 C4082 1.419 . S
C4080 H4084 0.930 . S
C4081 C4080 1.369 1_565 S
C4081 C4090 1.429 1_565 S
C4082 C4080 1.419 . S
C4082 C4083 1.363 . S
C4082 H4085 0.929 . S
C4083 C4082 1.363 . S
C4083 C4089 1.428 . S
H4084 C4080 0.930 . S
H4085 C4082 0.929 . S
S4086 N4087 1.613 1_545 S
S4086 N4088 1.610 . S
N4087 S4086 1.613 1_565 S
N4087 C4090 1.350 1_565 S
N4088 S4086 1.610 . S
N4088 C4089 1.351 . S
C4089 C4083 1.428 . S
C4089 N4088 1.351 . S
C4089 C4090 1.434 . S
C4090 C4081 1.429 1_545 S
C4090 N4087 1.350 1_545 S
C4090 C4089 1.434 . S
C4091 C4092 1.369 1_455 S
C4091 C4093 1.419 . S
C4091 H4095 0.930 1_455 S
C4092 C4091 1.369 1_655 S
C4092 C4101 1.429 . S
C4093 C4091 1.419 . S
C4093 C4094 1.363 . S
C4093 H4096 0.929 . S
C4094 C4093 1.363 . S
C4094 C4100 1.428 . S
H4095 C4091 0.930 1_655 S
H4096 C4093 0.929 . S
S4097 N4098 1.613 1_455 S
S4097 N4099 1.610 . S
N4098 S4097 1.613 1_655 S
N4098 C4101 1.350 . S
N4099 S4097 1.610 . S
N4099 C4100 1.351 . S
C4100 C4094 1.428 . S
C4100 N4099 1.351 . S
C4100 C4101 1.434 1_455 S
C4101 C4092 1.429 . S
C4101 N4098 1.350 . S
C4101 C4100 1.434 1_655 S
C4102 C4103 1.369 . S
C4102 C4104 1.419 . S
C4102 H4106 0.930 . S
C4103 C4102 1.369 . S
C4103 C4112 1.429 . S
C4104 C4102 1.419 . S
C4104 C4105 1.363 . S
C4104 H4107 0.929 . S
C4105 C4104 1.363 . S
C4105 C4111 1.428 . S
H4106 C4102 0.930 . S
H4107 C4104 0.929 . S
S4108 N4109 1.613 . S
S4108 N4110 1.610 . S
N4109 S4108 1.613 . S
N4109 C4112 1.350 . S
N4110 S4108 1.610 . S
N4110 C4111 1.351 . S
C4111 C4105 1.428 . S
C4111 N4110 1.351 . S
C4111 C4112 1.434 . S
C4112 C4103 1.429 . S
C4112 N4109 1.350 . S
C4112 C4111 1.434 . S
C4113 C4114 1.369 . S
C4113 C4115 1.419 . S
C4113 H4117 0.930 . S
C4114 C4113 1.369 . S
C4114 C4123 1.429 . S
C4115 C4113 1.419 . S
C4115 C4116 1.363 . S
C4115 H4118 0.929 . S
C4116 C4115 1.363 . S
C4116 C4122 1.428 . S
H4117 C4113 0.930 . S
H4118 C4115 0.929 . S
S4119 N4120 1.613 . S
S4119 N4121 1.610 . S
N4120 S4119 1.613 . S
N4120 C4123 1.350 . S
N4121 S4119 1.610 . S
N4121 C4122 1.351 . S
C4122 C4116 1.428 . S
C4122 N4121 1.351 . S
C4122 C4123 1.434 . S
C4123 C4114 1.429 . S
C4123 N4120 1.350 . S
C4123 C4122 1.434 . S
C4124 C4125 1.369 . S
C4124 C4126 1.419 . S
C4124 H4128 0.930 . S
C4125 C4124 1.369 . S
C4125 C4134 1.429 . S
C4126 C4124 1.419 . S
C4126 C4127 1.363 . S
C4126 H4129 0.929 . S
C4127 C4126 1.363 . S
C4127 C4133 1.428 . S
H4128 C4124 0.930 . S
H4129 C4126 0.929 . S
S4130 N4131 1.613 . S
S4130 N4132 1.610 . S
N4131 S4130 1.613 . S
N4131 C4134 1.350 . S
N4132 S4130 1.610 . S
N4132 C4133 1.351 . S
C4133 C4127 1.428 . S
C4133 N4132 1.351 . S
C4133 C4134 1.434 . S
C4134 C4125 1.429 . S
C4134 N4131 1.350 . S
C4134 C4133 1.434 . S
C4135 C4136 1.369 . S
C4135 C4137 1.419 . S
C4135 H4139 0.930 . S
C4136 C4135 1.369 . S
C4136 C4145 1.429 . S
C4137 C4135 1.419 . S
C4137 C4138 1.363 . S
C4137 H4140 0.929 . S
C4138 C4137 1.363 . S
C4138 C4144 1.428 . S
H4139 C4135 0.930 . S
H4140 C4137 0.929 . S
S4141 N4142 1.613 . S
S4141 N4143 1.610 . S
N4142 S4141 1.613 . S
N4142 C4145 1.350 . S
N4143 S4141 1.610 . S
N4143 C4144 1.351 . S
C4144 C4138 1.428 . S
C4144 N4143 1.351 . S
C4144 C4145 1.434 . S
C4145 C4136 1.429 . S
C4145 N4142 1.350 . S
C4145 C4144 1.434 . S
C4146 C4147 1.369 . S
C4146 C4148 1.419 . S
C4146 H4150 0.930 . S
C4147 C4146 1.369 . S
C4147 C4156 1.429 . S
C4148 C4146 1.419 . S
C4148 C4149 1.363 . S
C4148 H4151 0.929 . S
C4149 C4148 1.363 . S
C4149 C4155 1.428 . S
H4150 C4146 0.930 . S
H4151 C4148 0.929 . S
S4152 N4153 1.613 . S
S4152 N4154 1.610 . S
N4153 S4152 1.613 . S
N4153 C4156 1.350 . S
N4154 S4152 1.610 . S
N4154 C4155 1.351 . S
C4155 C4149 1.428 . S
C4155 N4154 1.351 . S
C4155 C4156 1.434 . S
C4156 C4147 1.429 . S
C4156 N4153 1.350 . S
C4156 C4155 1.434 . S
C4157 C4158 1.369 . S
C4157 C4159 1.419 . S
C4157 H4161 0.930 . S
C4158 C4157 1.369 . S
C4158 C4167 1.429 . S
C4159 C4157 1.419 . S
C4159 C4160 1.363 . S
C4159 H4162 0.929 . S
C4160 C4159 1.363 . S
C4160 C4166 1.428 . S
H4161 C4157 0.930 . S
H4162 C4159 0.929 . S
S4163 N4164 1.613 . S
S4163 N4165 1.610 . S
N4164 S4163 1.613 . S
N4164 C4167 1.350 . S
N4165 S4163 1.610 . S
N4165 C4166 1.351 . S
C4166 C4160 1.428 . S
C4166 N4165 1.351 . S
C4166 C4167 1.434 . S
C4167 C4158 1.429 . S
C4167 N4164 1.350 . S
C4167 C4166 1.434 . S
C4168 C4169 1.369 . S
C4168 C4170 1.419 . S
C4168 H4172 0.930 . S
C4169 C4168 1.369 . S
C4169 C4178 1.429 . S
C4170 C4168 1.419 . S
C4170 C4171 1.363 . S
C4170 H4173 0.929 . S
C4171 C4170 1.363 . S
C4171 C4177 1.428 . S
H4172 C4168 0.930 . S
H4173 C4170 0.929 . S
S4174 N4175 1.613 . S
S4174 N4176 1.610 . S
N4175 S4174 1.613 . S
N4175 C4178 1.350 . S
N4176 S4174 1.610 . S
N4176 C4177 1.351 . S
C4177 C4171 1.428 . S
C4177 N4176 1.351 . S
C4177 C4178 1.434 . S
C4178 C4169 1.429 . S
C4178 N4175 1.350 . S
C4178 C4177 1.434 . S
C4179 C4180 1.369 . S
C4179 C4181 1.419 1_655 S
C4179 H4183 0.930 . S
C4180 C4179 1.369 . S
C4180 C4189 1.429 1_655 S
C4181 C4179 1.419 1_455 S
C4181 C4182 1.363 . S
C4181 H4184 0.929 . S
C4182 C4181 1.363 . S
C4182 C4188 1.428 . S
H4183 C4179 0.930 . S
H4184 C4181 0.929 . S
S4185 N4186 1.613 1_455 S
S4185 N4187 1.610 . S
N4186 S4185 1.613 1_655 S
N4186 C4189 1.350 1_655 S
N4187 S4185 1.610 . S
N4187 C4188 1.351 . S
C4188 C4182 1.428 . S
C4188 N4187 1.351 . S
C4188 C4189 1.434 . S
C4189 C4180 1.429 1_455 S
C4189 N4186 1.350 1_455 S
C4189 C4188 1.434 . S
C4190 C4191 1.369 . S
C4190 C4192 1.419 . S
C4190 H4194 0.930 . S
C4191 C4190 1.369 . S
C4191 C4200 1.429 . S
C4192 C4190 1.419 . S
C4192 C4193 1.363 . S
C4192 H4195 0.929 . S
C4193 C4192 1.363 . S
C4193 C4199 1.428 . S
H4194 C4190 0.930 . S
H4195 C4192 0.929 . S
S4196 N4197 1.613 . S
S4196 N4198 1.610 . S
N4197 S4196 1.613 . S
N4197 C4200 1.350 . S
N4198 S4196 1.610 . S
N4198 C4199 1.351 . S
C4199 C4193 1.428 . S
C4199 N4198 1.351 . S
C4199 C4200 1.434 . S
C4200 C4191 1.429 . S
C4200 N4197 1.350 . S
C4200 C4199 1.434 . S
C4201 C4202 1.369 1_545 S
C4201 C4203 1.419 . S
C4201 H4205 0.930 . S
C4202 C4201 1.369 1_565 S
C4202 C4211 1.429 1_565 S
C4203 C4201 1.419 . S
C4203 C4204 1.363 . S
C4203 H4206 0.929 . S
C4204 C4203 1.363 . S
C4204 C4210 1.428 . S
H4205 C4201 0.930 . S
H4206 C4203 0.929 . S
S4207 N4208 1.613 1_545 S
S4207 N4209 1.610 . S
N4208 S4207 1.613 1_565 S
N4208 C4211 1.350 1_565 S
N4209 S4207 1.610 . S
N4209 C4210 1.351 . S
C4210 C4204 1.428 . S
C4210 N4209 1.351 . S
C4210 C4211 1.434 . S
C4211 C4202 1.429 1_545 S
C4211 N4208 1.350 1_545 S
C4211 C4210 1.434 . S
C3025 C2342 1.979 . S
C3027 C74 1.975 . S
C3036 C2426 1.975 . S
C3038 C158 1.976 1_655 S
C3047 C242 1.979 . S
C3049 C2510 1.977 . S
C3058 C326 1.978 . S
C3060 C1082 1.975 . S
C3069 C410 1.979 . S
C3071 C1166 1.974 . S
C3080 C1250 1.975 . S
C3082 C494 1.976 1_565 S
C3091 C567 1.980 1_565 S
C3093 C1827 1.975 . S
C3102 C1911 1.974 . S
C3104 C651 1.979 . S
C3113 C735 1.974 . S
C3115 C1995 1.977 . S
C3124 C2583 1.979 . S
C3126 C819 1.975 1_655 S
C3135 C903 1.977 . S
C3137 C2667 1.979 . S
C3146 C2751 1.973 . S
C3148 C987 1.978 . S
C3157 C2090 1.974 . S
C3159 C1334 1.976 . S
C3168 C1418 1.980 . S
C3170 C2174 1.977 . S
C3179 C2258 1.977 . S
C3181 C1502 1.975 . S
C3190 C1575 1.974 . S
C3192 C2835 1.977 . S
C3201 C1659 1.979 . S
C3203 C2919 1.975 . S
C3212 C3003 1.978 . S
C3214 C1743 1.974 . S
C3223 C63 1.782 . S
C3225 C578 1.788 . S
C3234 C662 1.780 . S
C3236 C147 1.789 . S
C3245 C231 1.790 . S
C3247 C746 1.781 . S
C3256 C830 1.784 . S
C3258 C315 1.786 . S
C3267 C399 1.779 . S
C3269 C914 1.789 . S
C3278 C998 1.791 . S
C3280 C483 1.780 . S
C3289 C1586 1.779 . S
C3291 C1071 1.789 . S
C3300 C1155 1.779 . S
C3302 C1670 1.789 . S
C3311 C1754 1.791 . S
C3313 C1239 1.780 . S
C3322 C1323 1.791 . S
C3324 C1838 1.780 . S
C3333 C1922 1.779 . S
C3335 C1407 1.789 . S
C3344 C1491 1.781 . S
C3346 C2006 1.788 . S
C3355 C2079 1.790 . S
C3357 C2594 1.780 . S
C3366 C2678 1.785 . S
C3368 C2163 1.785 . S
C3377 C2762 1.781 . S
C3379 C2247 1.788 . S
C3388 C2846 1.785 . S
C3390 C2331 1.785 . S
C3399 C2415 1.789 . S
C3401 C2930 1.781 . S
C3410 C2499 1.790 . S
C3412 C3014 1.781 . S
C3421 C58 1.508 . S
C3423 C235 1.661 . S
C3432 C142 1.499 . S
C3434 C67 1.660 . S
C3443 C151 1.657 . S
C3445 C226 1.506 . S
C3454 C310 1.506 . S
C3456 C403 1.658 . S
C3465 C487 1.659 . S
C3467 C394 1.502 . S
C3476 C319 1.661 . S
C3478 C478 1.500 . S
C3487 C728 1.659 . S
C3489 C573 1.503 . S
C3498 C657 1.509 . S
C3500 C560 1.658 . S
C3509 C741 1.508 . S
C3511 C644 1.658 . S
C3520 C896 1.657 . S
C3522 C825 1.509 . S
C3531 C909 1.507 . S
C3533 C980 1.661 . S
C3542 C993 1.505 . S
C3544 C812 1.658 . S
C3553 C1243 1.662 1_545 S
C3555 C1066 1.505 . S
C3564 C1075 1.657 . S
C3566 C1150 1.507 . S
C3575 C1159 1.659 . S
C3577 C1234 1.501 . S
C3586 C1411 1.663 . S
C3588 C1318 1.504 . S
C3597 C1402 1.512 . S
C3599 C1495 1.658 . S
C3608 C1327 1.658 . S
C3610 C1486 1.504 . S
C3619 C1581 1.505 . S
C3621 C1736 1.658 . S
C3630 C1568 1.660 . S
C3632 C1665 1.500 . S
C3641 C1749 1.506 . S
C3643 C1652 1.658 . S
C3652 C1904 1.662 . S
C3654 C1833 1.500 . S
C3663 C1988 1.659 . S
C3665 C1917 1.502 . S
C3674 C1820 1.661 1_545 S
C3676 C2001 1.508 . S
C3685 C2251 1.660 . S
C3687 C2074 1.510 . S
C3696 C2158 1.511 . S
C3698 C2083 1.658 . S
C3707 C2167 1.657 . S
C3709 C2242 1.508 . S
C3718 C2326 1.509 . S
C3720 C2419 1.658 1_455 S
C3729 C2410 1.506 . S
C3731 C2503 1.662 . S
C3740 C2335 1.658 . S
C3742 C2494 1.503 . S
C3751 C2589 1.506 . S
C3753 C2744 1.658 . S
C3762 C2673 1.512 . S
C3764 C2576 1.658 1_455 S
C3773 C2660 1.662 . S
C3775 C2757 1.506 . S
C3784 C2841 1.506 . S
C3786 C2912 1.658 . S
C3795 C2996 1.660 . S
C3797 C2925 1.501 . S
C3806 C2828 1.662 . S
C3808 C3009 1.500 . S
C3817 C224 1.197 . S
C3819 C69 1.064 . S
C3828 C153 1.056 . S
C3830 C56 1.200 . S
C3839 C140 1.196 . S
C3841 C237 1.068 . S
C3850 C392 1.202 . S
C3852 C321 1.061 . S
C3861 C405 1.056 . S
C3863 C476 1.200 . S
C3872 C489 1.063 . S
C3874 C308 1.201 . S
C3883 C739 1.200 . S
C3885 C562 1.060 . S
C3894 C646 1.076 . S
C3896 C571 1.197 . S
C3905 C655 1.195 . S
C3907 C730 1.075 . S
C3916 C907 1.197 . S
C3918 C814 1.074 . S
C3927 C991 1.200 . S
C3929 C898 1.059 . S
C3938 C823 1.198 . S
C3940 C982 1.071 . S
C3949 C1077 1.065 . S
C3951 C1232 1.197 . S
C3960 C1161 1.063 . S
C3962 C1064 1.197 . S
C3971 C1245 1.074 . S
C3973 C1148 1.198 . S
C3982 C1400 1.202 . S
C3984 C1329 1.059 . S
C3993 C1413 1.063 . S
C3995 C1484 1.201 . S
C4004 C1497 1.071 . S
C4006 C1316 1.196 . S
C4015 C1747 1.199 . S
C4017 C1570 1.069 . S
C4026 C1579 1.199 . S
C4028 C1654 1.070 . S
C4037 C1738 1.069 . S
C4039 C1663 1.196 . S
C4048 C1915 1.197 . S
C4050 C1822 1.064 . S
C4059 C1906 1.071 . S
C4061 C1999 1.196 . S
C4070 C1990 1.076 . S
C4072 C1831 1.197 . S
C4081 C2085 1.069 . S
C4083 C2240 1.196 . S
C4092 C2072 1.200 . S
C4094 C2169 1.069 . S
C4103 C2156 1.201 . S
C4105 C2253 1.065 . S
C4114 C2408 1.198 . S
C4116 C2337 1.062 . S
C4125 C2421 1.070 . S
C4127 C2492 1.200 . S
C4136 C2505 1.071 . S
C4138 C2324 1.199 . S
C4147 C2755 1.195 . S
C4149 C2578 1.072 . S
C4158 C2587 1.202 . S
C4160 C2662 1.061 . S
C4169 C2746 1.067 . S
C4171 C2671 1.200 . S
C4180 C2923 1.198 . S
C4182 C2830 1.062 . S
C4191 C2914 1.063 . S
C4193 C3007 1.200 . S
C4202 C2998 1.075 . S
C4204 C2839 1.196 . S
