# Generated by pormake.
# Topology bsn, (6)-cn, num edge types: 1
# Building blocks:
#     Node 0, Type 0, BuildingBlock: VOLQOD_clean_sbu_1, # of connection points: 6
#     Node 1, Type 0, BuildingBlock: VOLQOD_clean_sbu_1, # of connection points: 6
#     Node 2, Type 0, BuildingBlock: VOLQOD_clean_sbu_1, # of connection points: 6
#     Node 3, Type 0, BuildingBlock: VOLQOD_clean_sbu_1, # of connection points: 6
#     Edge 4, Type (0, 0), BuildingBlock: CIFDUS_clean_linker_0, # of connection points: 2
#     Edge 5, Type (0, 0), BuildingBlock: CIFDUS_clean_linker_0, # of connection points: 2
#     Edge 6, Type (0, 0), BuildingBlock: CIFDUS_clean_linker_0, # of connection points: 2
#     Edge 7, Type (0, 0), BuildingBlock: CIFDUS_clean_linker_0, # of connection points: 2
#     Edge 8, Type (0, 0), BuildingBlock: CIFDUS_clean_linker_0, # of connection points: 2
#     Edge 9, Type (0, 0), BuildingBlock: CIFDUS_clean_linker_0, # of connection points: 2
#     Edge 10, Type (0, 0), BuildingBlock: CIFDUS_clean_linker_0, # of connection points: 2
#     Edge 11, Type (0, 0), BuildingBlock: CIFDUS_clean_linker_0, # of connection points: 2
#     Edge 12, Type (0, 0), BuildingBlock: CIFDUS_clean_linker_0, # of connection points: 2
#     Edge 13, Type (0, 0), BuildingBlock: CIFDUS_clean_linker_0, # of connection points: 2
#     Edge 14, Type (0, 0), BuildingBlock: CIFDUS_clean_linker_0, # of connection points: 2
#     Edge 15, Type (0, 0), BuildingBlock: CIFDUS_clean_linker_0, # of connection points: 2
# Relax obj value: 0.019
# Max RMSD: 0.063
# Mean RMSD: 0.062
data_MOF--net-bsn--node1-VOLQOD_clean_sbu_1--edge1-CIFDUS_clean_linker_0
_symmetry_space_group_name_H-M    P1
_symmetry_Int_Tables_number       1
_symmetry_cell_setting            triclinic
loop_
_symmetry_equiv_pos_as_xyz
'x, y, z'
_cell_length_a     29.262369
_cell_length_b     29.243061
_cell_length_c     15.208531
_cell_angle_alpha  90.601502
_cell_angle_beta   89.929985
_cell_angle_gamma 90.64772
loop_
_atom_site_label
_atom_site_type_symbol
_atom_site_fract_x
_atom_site_fract_y
_atom_site_fract_z
_atom_type_partial_charge
O0 O 0.04107 0.25087 0.57193 0.0
Zn1 Zn 0.05352 0.27576 0.45181 0.0
O2 O 0.00981 0.25259 0.36802 0.0
Zn3 Zn 0.03828 0.20945 0.2888 0.0
Zn4 Zn 0.96103 0.22314 0.43148 0.0
Zn5 Zn 0.987 0.30247 0.29887 0.0
O6 O 0.01928 0.22279 0.16439 0.0
O7 O 0.01193 0.29845 0.17486 0.0
O8 O 0.11807 0.26563 0.40814 0.0
O9 O 0.10667 0.22007 0.29205 0.0
O10 O 0.02284 0.14377 0.32262 0.0
O11 O 0.96911 0.15571 0.42358 0.0
O12 O 0.8997 0.23884 0.3778 0.0
O13 O 0.04405 0.34254 0.46927 0.0
O14 O 0.91895 0.29433 0.28546 0.0
O15 O 0.99987 0.36395 0.35861 0.0
C16 C 0.00246 0.24219 0.60741 0.0
C17 C 0.01626 0.26197 0.12888 0.0
C18 C 0.99438 0.12881 0.37944 0.0
C19 C 0.13338 0.24328 0.34203 0.0
C20 C 0.88901 0.26777 0.31913 0.0
C21 C 0.02236 0.37317 0.42855 0.0
O22 O 0.96619 0.23661 0.56177 0.0
O23 O 0.03826 0.75414 0.41817 0.0
Zn24 Zn 0.04568 0.73508 0.54311 0.0
O25 O 0.99681 0.7571 0.61424 0.0
Zn26 Zn 0.01828 0.80441 0.69234 0.0
Zn27 Zn 0.95074 0.78129 0.53829 0.0
Zn28 Zn 0.97386 0.70768 0.68576 0.0
O29 O 0.9912 0.79478 0.81181 0.0
O30 O 0.99067 0.71856 0.81387 0.0
O31 O 0.10644 0.75171 0.59778 0.0
O32 O 0.08647 0.79941 0.70567 0.0
O33 O 0.00323 0.86679 0.64624 0.0
O34 O 0.95768 0.84987 0.53318 0.0
O35 O 0.8879 0.76397 0.58703 0.0
O36 O 0.04047 0.66757 0.53228 0.0
O37 O 0.90572 0.71082 0.68472 0.0
O38 O 0.99215 0.64533 0.6365 0.0
C39 C 0.0009 0.7553 0.37515 0.0
C40 C 0.98841 0.75725 0.85336 0.0
C41 C 0.97941 0.87891 0.58059 0.0
C42 C 0.11681 0.77709 0.66372 0.0
C43 C 0.87623 0.73492 0.64547 0.0
C44 C 0.01837 0.63627 0.57166 0.0
O45 O 0.96229 0.75955 0.41358 0.0
O46 O 0.49529 0.70266 0.65585 0.0
Zn47 Zn 0.47021 0.70017 0.779 0.0
O48 O 0.49762 0.74743 0.85014 0.0
Zn49 Zn 0.54408 0.71983 0.92252 0.0
Zn50 Zn 0.52241 0.79262 0.77126 0.0
Zn51 Zn 0.45181 0.77679 0.921 0.0
O52 O 0.53401 0.7402 0.04907 0.0
O53 O 0.46042 0.7601 0.04668 0.0
O54 O 0.47824 0.63821 0.8329 0.0
O55 O 0.5355 0.65095 0.9259 0.0
O56 O 0.60741 0.73557 0.87315 0.0
O57 O 0.59014 0.7871 0.77197 0.0
O58 O 0.50757 0.85768 0.80883 0.0
O59 O 0.40345 0.71171 0.76939 0.0
O60 O 0.46218 0.84451 0.92297 0.0
O61 O 0.38813 0.76364 0.87269 0.0
C62 C 0.50131 0.73857 0.61023 0.0
C63 C 0.49701 0.75122 0.08836 0.0
C64 C 0.61935 0.7634 0.81273 0.0
C65 C 0.50647 0.62394 0.88978 0.0
C66 C 0.4844 0.872 0.87438 0.0
C67 C 0.37524 0.7372 0.80989 0.0
O68 O 0.50419 0.77816 0.64605 0.0
O69 O 0.5151 0.2176 0.3147 0.0
Zn70 Zn 0.53358 0.202 0.19035 0.0
O71 O 0.50988 0.24726 0.11051 0.0
Zn72 Zn 0.46582 0.21763 0.03493 0.0
Zn73 Zn 0.47929 0.2943 0.17759 0.0
Zn74 Zn 0.55861 0.27485 0.04152 0.0
O75 O 0.47748 0.23362 0.91023 0.0
O76 O 0.55042 0.25706 0.91275 0.0
O77 O 0.51662 0.13658 0.15359 0.0
O78 O 0.47443 0.15025 0.03583 0.0
O79 O 0.40108 0.22975 0.07461 0.0
O80 O 0.41133 0.28118 0.18141 0.0
O81 O 0.49169 0.35703 0.12553 0.0
O82 O 0.60199 0.20709 0.1924 0.0
O83 O 0.55376 0.3434 0.04508 0.0
O84 O 0.6208 0.25835 0.09129 0.0
C85 C 0.50934 0.25704 0.34951 0.0
C86 C 0.51442 0.2446 0.87107 0.0
C87 C 0.38521 0.25487 0.13625 0.0
C88 C 0.49426 0.1225 0.08643 0.0
C89 C 0.52445 0.37087 0.07682 0.0
C90 C 0.63197 0.23084 0.1521 0.0
O91 O 0.50107 0.29205 0.30303 0.0
H92 H 0.02214 0.45469 0.34438 0.0
H93 H 0.0195 0.39466 0.60204 0.0
H94 H 0.01625 0.47054 0.67038 0.0
H95 H 0.01459 0.55457 0.65689 0.0
H96 H 0.0244 0.61425 0.3993 0.0
H97 H 0.02449 0.53841 0.33123 0.0
C98 C 0.02077 0.4584 0.41539 0.0
C99 C 0.02088 0.41937 0.46808 0.0
C100 C 0.0203 0.50216 0.45439 0.0
C101 C 0.01967 0.42441 0.56015 0.0
C102 C 0.01769 0.46773 0.59931 0.0
C103 C 0.01676 0.55077 0.58599 0.0
C104 C 0.01947 0.58977 0.53327 0.0
C105 C 0.01808 0.50693 0.54714 0.0
C106 C 0.02267 0.58459 0.44138 0.0
C107 C 0.02254 0.54127 0.40225 0.0
H108 H 0.68573 0.69932 0.82945 0.0
H109 H 0.66022 0.83323 0.72473 0.0
H110 H 0.73614 0.83511 0.65877 0.0
H111 H 0.80972 0.79858 0.62916 0.0
H112 H 0.83562 0.66478 0.73393 0.0
H113 H 0.75961 0.66276 0.79994 0.0
C114 C 0.69707 0.72915 0.79326 0.0
C115 C 0.66739 0.76611 0.78245 0.0
C116 C 0.74063 0.72976 0.75405 0.0
C117 C 0.68237 0.80426 0.73415 0.0
C118 C 0.72574 0.80533 0.69596 0.0
C119 C 0.79849 0.76872 0.66537 0.0
C120 C 0.82824 0.73183 0.67606 0.0
C121 C 0.75499 0.76808 0.70462 0.0
C122 C 0.81337 0.69367 0.72446 0.0
C123 C 0.76997 0.69254 0.76271 0.0
H124 H 0.45695 0.42372 0.01392 0.0
H125 H 0.60001 0.42542 0.08047 0.0
H126 H 0.60729 0.50444 0.02983 0.0
H127 H 0.57308 0.57252 0.96352 0.0
H128 H 0.43158 0.56789 0.88409 0.0
H129 H 0.42362 0.49057 0.94159 0.0
C130 C 0.4895 0.44175 0.01816 0.0
C131 C 0.52773 0.41938 0.05206 0.0
C132 C 0.4938 0.4864 0.98551 0.0
C133 C 0.57008 0.44236 0.05524 0.0
C134 C 0.57426 0.48738 0.02603 0.0
C135 C 0.54057 0.5545 0.95864 0.0
C136 C 0.50301 0.57596 0.91963 0.0
C137 C 0.53642 0.50964 -0.00963 0.0
C138 C 0.46116 0.55204 0.91314 0.0
C139 C 0.45646 0.50791 0.94653 0.0
H140 H 0.82119 0.20435 0.34282 0.0
H141 H 0.85098 0.3319 0.21312 0.0
H142 H 0.77542 0.33034 0.14554 0.0
H143 H 0.70049 0.29305 0.12355 0.0
H144 H 0.67081 0.16567 0.2539 0.0
H145 H 0.74678 0.16668 0.31956 0.0
C146 C 0.81106 0.23204 0.30042 0.0
C147 C 0.84177 0.26829 0.28366 0.0
C148 C 0.76767 0.23073 0.26081 0.0
C149 C 0.8281 0.30358 0.22754 0.0
C150 C 0.78489 0.30266 0.18847 0.0
C151 C 0.71084 0.2652 0.16538 0.0
C152 C 0.67992 0.22929 0.18342 0.0
C153 C 0.75445 0.2663 0.20425 0.0
C154 C 0.69383 0.19377 0.23875 0.0
C155 C 0.73726 0.19438 0.27673 0.0
H156 H 0.34339 0.28687 0.28451 0.0
H157 H 0.31677 0.21222 0.04314 0.0
H158 H 0.23725 0.20068 0.08707 0.0
H159 H 0.1754 0.21129 0.194 0.0
H160 H 0.20198 0.28557 0.43585 0.0
H161 H 0.2815 0.29719 0.39191 0.0
C162 C 0.32016 0.2684 0.24105 0.0
C163 C 0.33615 0.25066 0.16034 0.0
C164 C 0.27454 0.26135 0.26719 0.0
C165 C 0.30551 0.22637 0.10551 0.0
C166 C 0.26 0.2196 0.13071 0.0
C167 C 0.19858 0.22973 0.2376 0.0
C168 C 0.18254 0.24738 0.31837 0.0
C169 C 0.24421 0.23669 0.21161 0.0
C170 C 0.21323 0.27147 0.37345 0.0
C171 C 0.25874 0.27831 0.34822 0.0
H172 H 0.30783 0.79723 0.85478 0.0
H173 H 0.33519 0.67854 0.69231 0.0
H174 H 0.25882 0.68193 0.63026 0.0
H175 H 0.18453 0.71844 0.62057 0.0
H176 H 0.15551 0.83627 0.78374 0.0
H177 H 0.23235 0.83353 0.84612 0.0
C178 C 0.29695 0.77189 0.80638 0.0
C179 C 0.32736 0.73773 0.77843 0.0
C180 C 0.25283 0.7741 0.7702 0.0
C181 C 0.31267 0.70532 0.71515 0.0
C182 C 0.26897 0.70724 0.67925 0.0
C183 C 0.19506 0.74384 0.66917 0.0
C184 C 0.16435 0.77766 0.69694 0.0
C185 C 0.23892 0.74165 0.70575 0.0
C186 C 0.1785 0.8099 0.76091 0.0
C187 C 0.2224 0.80828 0.7969 0.0
H188 H 0.48439 0.90778 0.03887 0.0
H189 H 0.48878 0.94559 0.7656 0.0
H190 H 0.49111 0.02668 0.80799 0.0
H191 H 0.49194 0.08641 0.92267 0.0
H192 H 0.49436 0.04876 0.19606 0.0
H193 H 0.48958 0.96763 0.15388 0.0
C194 C 0.48559 0.93386 -0.01134 0.0
C195 C 0.48578 0.92094 0.89919 0.0
C196 C 0.48834 0.98017 0.01364 0.0
C197 C 0.48842 0.95485 0.83476 0.0
C198 C 0.48973 0.0011 0.85901 0.0
C199 C 0.49128 0.0604 0.97306 0.0
C200 C 0.49294 0.07341 0.06242 0.0
C201 C 0.48968 0.01409 0.9482 0.0
C202 C 0.49304 0.03948 0.12696 0.0
C203 C 0.49019 0.9932 0.10281 0.0
H204 H 0.98812 0.91379 0.41733 0.0
H205 H 0.9714 0.9523 0.6898 0.0
H206 H 0.97289 0.03325 0.65025 0.0
H207 H 0.98024 0.09267 0.53889 0.0
H208 H 0.00485 0.05531 0.26809 0.0
H209 H 0.99938 0.97398 0.30596 0.0
C210 C 0.98445 0.94005 0.46768 0.0
C211 C 0.97904 0.92745 0.55613 0.0
C212 C 0.98709 0.98643 0.44474 0.0
C213 C 0.97538 0.96147 0.62135 0.0
C214 C 0.97627 0.0076 0.59875 0.0
C215 C 0.9842 0.06668 0.48806 0.0
C216 C 0.9924 0.07973 0.40068 0.0
C217 C 0.98229 0.02041 0.5108 0.0
C218 C 0.99846 0.0459 0.33573 0.0
C219 C 0.9952 0.99954 0.35738 0.0
H220 H 0.97636 0.20414 0.01167 0.0
H221 H 0.05872 0.32699 0.03083 0.0
H222 H 0.06291 0.33091 0.87022 0.0
H223 H 0.04349 0.29887 0.72454 0.0
H224 H 0.95491 0.18045 0.70508 0.0
H225 H 0.95253 0.17514 0.86583 0.0
C226 C 0.99524 0.23167 0.98037 0.0
C227 C 0.01761 0.26499 0.03236 0.0
C228 C 0.99628 0.23441 0.88832 0.0
C229 C 0.04129 0.30102 -0.00831 0.0
C230 C 0.04376 0.30318 0.9001 0.0
C231 C 0.02377 0.27191 0.75582 0.0
C232 C 0.99979 0.23977 0.70382 0.0
C233 C 0.02149 0.27 0.84783 0.0
C234 C 0.97359 0.20548 0.74436 0.0
C235 C 0.97234 0.20241 0.83598 0.0
H236 H 0.03416 0.70885 0.97468 0.0
H237 H 0.93067 0.81122 0.94543 0.0
H238 H 0.92321 0.81798 0.10536 0.0
H239 H 0.9483 0.79665 0.25368 0.0
H240 H 0.0575 0.7002 0.28235 0.0
H241 H 0.06084 0.68921 0.12289 0.0
C242 C 0.00975 0.73224 0.00374 0.0
C243 C 0.98271 0.75922 0.94925 0.0
C244 C 0.00699 0.73723 0.09547 0.0
C245 C 0.95175 0.79013 -0.01319 0.0
C246 C 0.94751 0.79402 0.07798 0.0
C247 C 0.97263 0.77316 0.2247 0.0
C248 C 0.00257 0.74925 0.27906 0.0
C249 C 0.97528 0.76807 0.13298 0.0
C250 C 0.03438 0.71923 0.24129 0.0
C251 C 0.03618 0.7128 0.15032 0.0
H252 H 0.53142 0.69275 0.20787 0.0
H253 H 0.46054 0.82037 0.18285 0.0
H254 H 0.45739 0.82888 0.34283 0.0
H255 H 0.4733 0.79919 0.4896 0.0
H256 H 0.53748 0.66805 0.51585 0.0
H257 H 0.54464 0.66142 0.3558 0.0
C258 C 0.5156 0.72244 0.2379 0.0
C259 C 0.4965 0.75605 0.18452 0.0
C260 C 0.5125 0.72628 0.32985 0.0
C261 C 0.47536 0.79411 0.22332 0.0
C262 C 0.47359 0.79899 0.31452 0.0
C263 C 0.48899 0.76928 0.46011 0.0
C264 C 0.50507 0.73429 0.51395 0.0
C265 C 0.4918 0.76517 0.36839 0.0
C266 C 0.52472 0.69534 0.47531 0.0
C267 C 0.52895 0.69161 0.384 0.0
H268 H 0.49632 0.1917 0.47178 0.0
H269 H 0.53162 0.33439 0.44277 0.0
H270 H 0.54008 0.34258 0.60218 0.0
H271 H 0.53576 0.3092 0.7508 0.0
H272 H 0.49405 0.16831 0.77857 0.0
H273 H 0.49035 0.15904 0.61873 0.0
C274 C 0.50599 0.22455 0.50036 0.0
C275 C 0.5134 0.26233 0.44578 0.0
C276 C 0.50989 0.2292 0.59182 0.0
C277 C 0.52543 0.30484 0.48365 0.0
C278 C 0.53049 0.30951 0.57468 0.0
C279 C 0.52639 0.2765 0.72127 0.0
C280 C 0.51563 0.23932 0.77523 0.0
C281 C 0.5227 0.27194 0.62948 0.0
C282 C 0.50262 0.19721 0.7374 0.0
C283 C 0.5004 0.19196 0.64635 0.0
loop_
_geom_bond_atom_site_label_1
_geom_bond_atom_site_label_2
_geom_bond_distance
_geom_bond_site_symmetry_2
_ccdc_geom_bond_type
O0 Zn1 1.953 . S
O0 C16 1.225 . S
Zn1 O0 1.953 . S
Zn1 O2 1.949 . S
Zn1 O8 1.919 . S
Zn1 O13 1.924 . S
O2 Zn1 1.949 . S
O2 Zn3 1.923 . S
O2 Zn4 1.950 1_455 S
O2 Zn5 1.945 1_455 S
Zn3 O2 1.923 . S
Zn3 O6 1.933 . S
Zn3 O9 1.941 . S
Zn3 O10 1.965 . S
Zn4 O2 1.950 1_655 S
Zn4 O11 1.938 . S
Zn4 O12 1.906 . S
Zn4 O22 1.953 . S
Zn5 O2 1.945 1_655 S
Zn5 O7 1.932 . S
Zn5 O14 1.977 . S
Zn5 O15 1.910 . S
O6 Zn3 1.933 . S
O6 C17 1.226 . S
O7 Zn5 1.932 . S
O7 C17 1.307 1_655 S
O8 Zn1 1.919 . S
O8 C19 1.253 . S
O9 Zn3 1.941 . S
O9 C19 1.283 . S
O10 Zn3 1.965 . S
O10 C18 1.314 . S
O11 Zn4 1.938 . S
O11 C18 1.230 1_655 S
O12 Zn4 1.906 . S
O12 C20 1.304 . S
O13 Zn1 1.924 . S
O13 C21 1.311 . S
O14 Zn5 1.977 . S
O14 C20 1.272 . S
O15 Zn5 1.910 . S
O15 C21 1.231 1_655 S
C16 O0 1.225 . S
C16 O22 1.298 1_455 S
C17 O6 1.226 . S
C17 O7 1.307 1_455 S
C18 O10 1.314 . S
C18 O11 1.230 1_455 S
C19 O8 1.253 . S
C19 O9 1.283 . S
C20 O12 1.304 . S
C20 O14 1.272 . S
C21 O13 1.311 . S
C21 O15 1.231 1_455 S
O22 Zn4 1.953 . S
O22 C16 1.298 1_655 S
O23 Zn24 1.953 . S
O23 C39 1.225 . S
Zn24 O23 1.953 . S
Zn24 O25 1.949 . S
Zn24 O31 1.919 . S
Zn24 O36 1.924 . S
O25 Zn24 1.949 . S
O25 Zn26 1.923 . S
O25 Zn27 1.950 1_455 S
O25 Zn28 1.945 1_455 S
Zn26 O25 1.923 . S
Zn26 O29 1.933 . S
Zn26 O32 1.941 . S
Zn26 O33 1.965 . S
Zn27 O25 1.950 1_655 S
Zn27 O34 1.938 . S
Zn27 O35 1.906 . S
Zn27 O45 1.953 . S
Zn28 O25 1.945 1_655 S
Zn28 O30 1.932 . S
Zn28 O37 1.977 . S
Zn28 O38 1.910 . S
O29 Zn26 1.933 . S
O29 C40 1.226 . S
O30 Zn28 1.932 . S
O30 C40 1.307 1_655 S
O31 Zn24 1.919 . S
O31 C42 1.253 . S
O32 Zn26 1.941 . S
O32 C42 1.283 . S
O33 Zn26 1.965 . S
O33 C41 1.303 1_455 S
O34 Zn27 1.938 . S
O34 C41 1.247 . S
O35 Zn27 1.906 . S
O35 C43 1.304 . S
O36 Zn24 1.924 . S
O36 C44 1.311 . S
O37 Zn28 1.977 . S
O37 C43 1.272 . S
O38 Zn28 1.910 . S
O38 C44 1.231 1_655 S
C39 O23 1.225 . S
C39 O45 1.298 1_455 S
C40 O29 1.226 . S
C40 O30 1.307 1_455 S
C41 O33 1.303 1_655 S
C41 O34 1.247 . S
C42 O31 1.253 . S
C42 O32 1.283 . S
C43 O35 1.304 . S
C43 O37 1.272 . S
C44 O36 1.311 . S
C44 O38 1.231 1_455 S
O45 Zn27 1.953 . S
O45 C39 1.298 1_655 S
O46 Zn47 1.953 . S
O46 C62 1.225 . S
Zn47 O46 1.953 . S
Zn47 O48 1.949 . S
Zn47 O54 1.919 . S
Zn47 O59 1.924 . S
O48 Zn47 1.949 . S
O48 Zn49 1.923 . S
O48 Zn50 1.950 . S
O48 Zn51 1.945 . S
Zn49 O48 1.923 . S
Zn49 O52 1.933 1_556 S
Zn49 O55 1.941 . S
Zn49 O56 1.965 . S
Zn50 O48 1.950 . S
Zn50 O57 1.938 . S
Zn50 O58 1.906 . S
Zn50 O68 1.953 . S
Zn51 O48 1.945 . S
Zn51 O53 1.932 1_556 S
Zn51 O60 1.977 . S
Zn51 O61 1.910 . S
O52 Zn49 1.933 1_554 S
O52 C63 1.226 . S
O53 Zn51 1.932 1_554 S
O53 C63 1.307 . S
O54 Zn47 1.919 . S
O54 C65 1.253 . S
O55 Zn49 1.941 . S
O55 C65 1.283 . S
O56 Zn49 1.965 . S
O56 C64 1.303 . S
O57 Zn50 1.938 . S
O57 C64 1.247 . S
O58 Zn50 1.906 . S
O58 C66 1.304 . S
O59 Zn47 1.924 . S
O59 C67 1.311 . S
O60 Zn51 1.977 . S
O60 C66 1.272 . S
O61 Zn51 1.910 . S
O61 C67 1.231 . S
C62 O46 1.225 . S
C62 O68 1.298 . S
C63 O52 1.226 . S
C63 O53 1.307 . S
C64 O56 1.303 . S
C64 O57 1.247 . S
C65 O54 1.253 . S
C65 O55 1.283 . S
C66 O58 1.304 . S
C66 O60 1.272 . S
C67 O59 1.311 . S
C67 O61 1.231 . S
O68 Zn50 1.953 . S
O68 C62 1.298 . S
O69 Zn70 1.953 . S
O69 C85 1.225 . S
Zn70 O69 1.953 . S
Zn70 O71 1.949 . S
Zn70 O77 1.919 . S
Zn70 O82 1.924 . S
O71 Zn70 1.949 . S
O71 Zn72 1.923 . S
O71 Zn73 1.950 . S
O71 Zn74 1.945 . S
Zn72 O71 1.923 . S
Zn72 O75 1.933 1_554 S
Zn72 O78 1.941 . S
Zn72 O79 1.965 . S
Zn73 O71 1.950 . S
Zn73 O80 1.938 . S
Zn73 O81 1.906 . S
Zn73 O91 1.953 . S
Zn74 O71 1.945 . S
Zn74 O76 1.932 1_554 S
Zn74 O83 1.977 . S
Zn74 O84 1.910 . S
O75 Zn72 1.933 1_556 S
O75 C86 1.226 . S
O76 Zn74 1.932 1_556 S
O76 C86 1.307 . S
O77 Zn70 1.919 . S
O77 C88 1.253 . S
O78 Zn72 1.941 . S
O78 C88 1.283 . S
O79 Zn72 1.965 . S
O79 C87 1.303 . S
O80 Zn73 1.938 . S
O80 C87 1.247 . S
O81 Zn73 1.906 . S
O81 C89 1.304 . S
O82 Zn70 1.924 . S
O82 C90 1.311 . S
O83 Zn74 1.977 . S
O83 C89 1.272 . S
O84 Zn74 1.910 . S
O84 C90 1.231 . S
C85 O69 1.225 . S
C85 O91 1.298 . S
C86 O75 1.226 . S
C86 O76 1.307 . S
C87 O79 1.303 . S
C87 O80 1.247 . S
C88 O77 1.253 . S
C88 O78 1.283 . S
C89 O81 1.304 . S
C89 O83 1.272 . S
C90 O82 1.311 . S
C90 O84 1.231 . S
O91 Zn73 1.953 . S
O91 C85 1.298 . S
H92 C98 0.930 . S
H93 C101 0.930 . S
H94 C102 0.930 . S
H95 C103 0.930 . S
H96 C106 0.930 . S
H97 C107 0.930 . S
C98 H92 0.930 . S
C98 C99 1.355 1_655 S
C98 C100 1.415 . S
C99 C98 1.355 1_455 S
C99 C101 1.419 . S
C100 C98 1.415 . S
C100 C105 1.425 1_655 S
C100 C107 1.409 . S
C101 H93 0.930 . S
C101 C99 1.419 . S
C101 C102 1.362 . S
C102 H94 0.930 . S
C102 C101 1.362 . S
C102 C105 1.409 . S
C103 H95 0.930 . S
C103 C104 1.355 1_455 S
C103 C105 1.415 . S
C104 C103 1.355 1_655 S
C104 C106 1.419 . S
C105 C100 1.425 1_455 S
C105 C102 1.409 . S
C105 C103 1.415 . S
C106 H96 0.930 . S
C106 C104 1.419 . S
C106 C107 1.362 . S
C107 H97 0.930 . S
C107 C100 1.409 . S
C107 C106 1.362 . S
H108 C114 0.930 . S
H109 C117 0.930 . S
H110 C118 0.930 . S
H111 C119 0.930 . S
H112 C122 0.930 . S
H113 C123 0.930 . S
C114 H108 0.930 . S
C114 C115 1.355 . S
C114 C116 1.415 . S
C115 C114 1.355 . S
C115 C117 1.419 . S
C116 C114 1.415 . S
C116 C121 1.425 . S
C116 C123 1.409 . S
C117 H109 0.930 . S
C117 C115 1.419 . S
C117 C118 1.362 . S
C118 H110 0.930 . S
C118 C117 1.362 . S
C118 C121 1.409 . S
C119 H111 0.930 . S
C119 C120 1.355 . S
C119 C121 1.415 . S
C120 C119 1.355 . S
C120 C122 1.419 . S
C121 C116 1.425 . S
C121 C118 1.409 . S
C121 C119 1.415 . S
C122 H112 0.930 . S
C122 C120 1.419 . S
C122 C123 1.362 . S
C123 H113 0.930 . S
C123 C116 1.409 . S
C123 C122 1.362 . S
H124 C130 0.930 . S
H125 C133 0.930 . S
H126 C134 0.930 . S
H127 C135 0.930 . S
H128 C138 0.930 . S
H129 C139 0.930 . S
C130 H124 0.930 . S
C130 C131 1.355 . S
C130 C132 1.415 . S
C131 C130 1.355 . S
C131 C133 1.419 . S
C132 C130 1.415 . S
C132 C137 1.425 1_554 S
C132 C139 1.409 . S
C133 H125 0.930 . S
C133 C131 1.419 . S
C133 C134 1.362 1_554 S
C134 H126 0.930 . S
C134 C133 1.362 1_556 S
C134 C137 1.409 . S
C135 H127 0.930 . S
C135 C136 1.355 . S
C135 C137 1.415 . S
C136 C135 1.355 . S
C136 C138 1.419 . S
C137 C132 1.425 1_556 S
C137 C134 1.409 . S
C137 C135 1.415 . S
C138 H128 0.930 . S
C138 C136 1.419 . S
C138 C139 1.362 1_556 S
C139 H129 0.930 . S
C139 C132 1.409 . S
C139 C138 1.362 1_554 S
H140 C146 0.930 . S
H141 C149 0.930 . S
H142 C150 0.930 . S
H143 C151 0.930 . S
H144 C154 0.930 . S
H145 C155 0.930 . S
C146 H140 0.930 . S
C146 C147 1.355 . S
C146 C148 1.415 . S
C147 C146 1.355 . S
C147 C149 1.419 . S
C148 C146 1.415 . S
C148 C153 1.425 . S
C148 C155 1.409 . S
C149 H141 0.930 . S
C149 C147 1.419 . S
C149 C150 1.362 . S
C150 H142 0.930 . S
C150 C149 1.362 . S
C150 C153 1.409 . S
C151 H143 0.930 . S
C151 C152 1.355 . S
C151 C153 1.415 . S
C152 C151 1.355 . S
C152 C154 1.419 . S
C153 C148 1.425 . S
C153 C150 1.409 . S
C153 C151 1.415 . S
C154 H144 0.930 . S
C154 C152 1.419 . S
C154 C155 1.362 . S
C155 H145 0.930 . S
C155 C148 1.409 . S
C155 C154 1.362 . S
H156 C162 0.930 . S
H157 C165 0.930 . S
H158 C166 0.930 . S
H159 C167 0.930 . S
H160 C170 0.930 . S
H161 C171 0.930 . S
C162 H156 0.930 . S
C162 C163 1.355 . S
C162 C164 1.415 . S
C163 C162 1.355 . S
C163 C165 1.419 . S
C164 C162 1.415 . S
C164 C169 1.425 . S
C164 C171 1.409 . S
C165 H157 0.930 . S
C165 C163 1.419 . S
C165 C166 1.362 . S
C166 H158 0.930 . S
C166 C165 1.362 . S
C166 C169 1.409 . S
C167 H159 0.930 . S
C167 C168 1.355 . S
C167 C169 1.415 . S
C168 C167 1.355 . S
C168 C170 1.419 . S
C169 C164 1.425 . S
C169 C166 1.409 . S
C169 C167 1.415 . S
C170 H160 0.930 . S
C170 C168 1.419 . S
C170 C171 1.362 . S
C171 H161 0.930 . S
C171 C164 1.409 . S
C171 C170 1.362 . S
H172 C178 0.930 . S
H173 C181 0.930 . S
H174 C182 0.930 . S
H175 C183 0.930 . S
H176 C186 0.930 . S
H177 C187 0.930 . S
C178 H172 0.930 . S
C178 C179 1.355 . S
C178 C180 1.415 . S
C179 C178 1.355 . S
C179 C181 1.419 . S
C180 C178 1.415 . S
C180 C185 1.425 . S
C180 C187 1.409 . S
C181 H173 0.930 . S
C181 C179 1.419 . S
C181 C182 1.362 . S
C182 H174 0.930 . S
C182 C181 1.362 . S
C182 C185 1.409 . S
C183 H175 0.930 . S
C183 C184 1.355 . S
C183 C185 1.415 . S
C184 C183 1.355 . S
C184 C186 1.419 . S
C185 C180 1.425 . S
C185 C182 1.409 . S
C185 C183 1.415 . S
C186 H176 0.930 . S
C186 C184 1.419 . S
C186 C187 1.362 . S
C187 H177 0.930 . S
C187 C180 1.409 . S
C187 C186 1.362 . S
H188 C194 0.930 . S
H189 C197 0.930 . S
H190 C198 0.930 . S
H191 C199 0.930 . S
H192 C202 0.930 . S
H193 C203 0.930 . S
C194 H188 0.930 . S
C194 C195 1.355 . S
C194 C196 1.415 1_556 S
C195 C194 1.355 . S
C195 C197 1.419 . S
C196 C194 1.415 1_554 S
C196 C201 1.425 1_564 S
C196 C203 1.409 1_565 S
C197 H189 0.930 . S
C197 C195 1.419 . S
C197 C198 1.362 . S
C198 H190 0.930 . S
C198 C197 1.362 . S
C198 C201 1.409 1_565 S
C199 H191 0.930 . S
C199 C200 1.355 . S
C199 C201 1.415 1_554 S
C200 C199 1.355 . S
C200 C202 1.419 . S
C201 C196 1.425 1_546 S
C201 C198 1.409 1_545 S
C201 C199 1.415 1_556 S
C202 H192 0.930 . S
C202 C200 1.419 . S
C202 C203 1.362 . S
C203 H193 0.930 . S
C203 C196 1.409 1_545 S
C203 C202 1.362 . S
H204 C210 0.930 . S
H205 C213 0.930 . S
H206 C214 0.930 1_545 S
H207 C215 0.930 . S
H208 C218 0.930 . S
H209 C219 0.930 1_565 S
C210 H204 0.930 . S
C210 C211 1.355 1_655 S
C210 C212 1.415 . S
C211 C210 1.355 1_455 S
C211 C213 1.419 . S
C212 C210 1.415 . S
C212 C217 1.425 1_665 S
C212 C219 1.409 1_565 S
C213 H205 0.930 . S
C213 C211 1.419 . S
C213 C214 1.362 . S
C214 H206 0.930 1_565 S
C214 C213 1.362 . S
C214 C217 1.409 1_565 S
C215 H207 0.930 . S
C215 C216 1.355 . S
C215 C217 1.415 . S
C216 C215 1.355 . S
C216 C218 1.419 1_455 S
C217 C212 1.425 1_445 S
C217 C214 1.409 1_545 S
C217 C215 1.415 . S
C218 H208 0.930 . S
C218 C216 1.419 1_655 S
C218 C219 1.362 . S
C219 H209 0.930 1_545 S
C219 C212 1.409 1_545 S
C219 C218 1.362 . S
H220 C226 0.930 1_554 S
H221 C229 0.930 . S
H222 C230 0.930 . S
H223 C231 0.930 . S
H224 C234 0.930 . S
H225 C235 0.930 . S
C226 H220 0.930 1_556 S
C226 C227 1.355 1_656 S
C226 C228 1.415 . S
C227 C226 1.355 1_454 S
C227 C229 1.419 . S
C228 C226 1.415 . S
C228 C233 1.425 1_655 S
C228 C235 1.409 . S
C229 H221 0.930 . S
C229 C227 1.419 . S
C229 C230 1.362 1_554 S
C230 H222 0.930 . S
C230 C229 1.362 1_556 S
C230 C233 1.409 . S
C231 H223 0.930 . S
C231 C232 1.355 . S
C231 C233 1.415 . S
C232 C231 1.355 . S
C232 C234 1.419 1_455 S
C233 C228 1.425 1_455 S
C233 C230 1.409 . S
C233 C231 1.415 . S
C234 H224 0.930 . S
C234 C232 1.419 1_655 S
C234 C235 1.362 . S
C235 H225 0.930 . S
C235 C228 1.409 . S
C235 C234 1.362 . S
H236 C242 0.930 1_556 S
H237 C245 0.930 . S
H238 C246 0.930 . S
H239 C247 0.930 . S
H240 C250 0.930 . S
H241 C251 0.930 . S
C242 H236 0.930 1_554 S
C242 C243 1.352 1_454 S
C242 C244 1.415 . S
C243 C242 1.352 1_656 S
C243 C245 1.423 . S
C244 C242 1.415 . S
C244 C249 1.425 1_455 S
C244 C251 1.409 . S
C245 H237 0.930 . S
C245 C243 1.423 . S
C245 C246 1.362 1_556 S
C246 H238 0.930 . S
C246 C245 1.362 1_554 S
C246 C249 1.409 . S
C247 H239 0.930 . S
C247 C248 1.355 1_655 S
C247 C249 1.415 . S
C248 C247 1.355 1_455 S
C248 C250 1.419 . S
C249 C244 1.425 1_655 S
C249 C246 1.409 . S
C249 C247 1.415 . S
C250 H240 0.930 . S
C250 C248 1.419 . S
C250 C251 1.362 . S
C251 H241 0.930 . S
C251 C244 1.409 . S
C251 C250 1.362 . S
H252 C258 0.930 . S
H253 C261 0.930 . S
H254 C262 0.930 . S
H255 C263 0.930 . S
H256 C266 0.930 . S
H257 C267 0.930 . S
C258 H252 0.930 . S
C258 C259 1.355 . S
C258 C260 1.415 . S
C259 C258 1.355 . S
C259 C261 1.419 . S
C260 C258 1.415 . S
C260 C265 1.425 . S
C260 C267 1.409 . S
C261 H253 0.930 . S
C261 C259 1.419 . S
C261 C262 1.362 . S
C262 H254 0.930 . S
C262 C261 1.362 . S
C262 C265 1.409 . S
C263 H255 0.930 . S
C263 C264 1.355 . S
C263 C265 1.415 . S
C264 C263 1.355 . S
C264 C266 1.419 . S
C265 C260 1.425 . S
C265 C262 1.409 . S
C265 C263 1.415 . S
C266 H256 0.930 . S
C266 C264 1.419 . S
C266 C267 1.362 . S
C267 H257 0.930 . S
C267 C260 1.409 . S
C267 C266 1.362 . S
H268 C274 0.930 . S
H269 C277 0.930 . S
H270 C278 0.930 . S
H271 C279 0.930 . S
H272 C282 0.930 . S
H273 C283 0.930 . S
C274 H268 0.930 . S
C274 C275 1.355 . S
C274 C276 1.415 . S
C275 C274 1.355 . S
C275 C277 1.419 . S
C276 C274 1.415 . S
C276 C281 1.425 . S
C276 C283 1.409 . S
C277 H269 0.930 . S
C277 C275 1.419 . S
C277 C278 1.362 . S
C278 H270 0.930 . S
C278 C277 1.362 . S
C278 C281 1.409 . S
C279 H271 0.930 . S
C279 C280 1.355 . S
C279 C281 1.415 . S
C280 C279 1.355 . S
C280 C282 1.419 . S
C281 C276 1.425 . S
C281 C278 1.409 . S
C281 C279 1.415 . S
C282 H272 0.930 . S
C282 C280 1.419 . S
C282 C283 1.362 . S
C283 H273 0.930 . S
C283 C276 1.409 . S
C283 C282 1.362 . S
C99 C21 1.578 . S
C104 C44 1.591 1_655 S
C115 C64 1.594 . S
C120 C43 1.610 . S
C131 C89 1.591 . S
C136 C65 1.612 . S
C147 C20 1.571 . S
C152 C90 1.573 . S
C163 C87 1.612 . S
C168 C19 1.616 . S
C179 C67 1.558 . S
C184 C42 1.558 . S
C195 C66 1.534 . S
C200 C88 1.555 . S
C211 C41 1.632 1_455 S
C216 C18 1.597 . S
C227 C17 1.304 . S
C232 C16 1.305 . S
C243 C40 1.296 1_655 S
C248 C39 1.298 . S
C259 C63 1.306 . S
C264 C62 1.304 . S
C275 C85 1.304 . S
C280 C86 1.302 . S
