# Generated by pormake.
# Topology zfd, (5)-cn, num edge types: 1
# Building blocks:
#     Node 0, Type 0, BuildingBlock: BEQFEK_clean_sbu_0, # of connection points: 5
#     Node 1, Type 0, BuildingBlock: BEQFEK_clean_sbu_0, # of connection points: 5
#     Node 2, Type 0, BuildingBlock: BEQFEK_clean_sbu_0, # of connection points: 5
#     Node 3, Type 0, BuildingBlock: BEQFEK_clean_sbu_0, # of connection points: 5
#     Node 4, Type 0, BuildingBlock: BEQFEK_clean_sbu_0, # of connection points: 5
#     Node 5, Type 0, BuildingBlock: BEQFEK_clean_sbu_0, # of connection points: 5
#     Node 6, Type 0, BuildingBlock: BEQFEK_clean_sbu_0, # of connection points: 5
#     Node 7, Type 0, BuildingBlock: BEQFEK_clean_sbu_0, # of connection points: 5
#     Node 8, Type 0, BuildingBlock: BEQFEK_clean_sbu_0, # of connection points: 5
#     Node 9, Type 0, BuildingBlock: BEQFEK_clean_sbu_0, # of connection points: 5
#     Node 10, Type 0, BuildingBlock: BEQFEK_clean_sbu_0, # of connection points: 5
#     Node 11, Type 0, BuildingBlock: BEQFEK_clean_sbu_0, # of connection points: 5
#     Node 12, Type 0, BuildingBlock: BEQFEK_clean_sbu_0, # of connection points: 5
#     Node 13, Type 0, BuildingBlock: BEQFEK_clean_sbu_0, # of connection points: 5
#     Node 14, Type 0, BuildingBlock: BEQFEK_clean_sbu_0, # of connection points: 5
#     Node 15, Type 0, BuildingBlock: BEQFEK_clean_sbu_0, # of connection points: 5
#     Edge 16, Type (0, 0), BuildingBlock: XUDNAN_clean_linker_2, # of connection points: 2
#     Edge 17, Type (0, 0), BuildingBlock: XUDNAN_clean_linker_2, # of connection points: 2
#     Edge 18, Type (0, 0), BuildingBlock: XUDNAN_clean_linker_2, # of connection points: 2
#     Edge 19, Type (0, 0), BuildingBlock: XUDNAN_clean_linker_2, # of connection points: 2
#     Edge 20, Type (0, 0), BuildingBlock: XUDNAN_clean_linker_2, # of connection points: 2
#     Edge 21, Type (0, 0), BuildingBlock: XUDNAN_clean_linker_2, # of connection points: 2
#     Edge 22, Type (0, 0), BuildingBlock: XUDNAN_clean_linker_2, # of connection points: 2
#     Edge 23, Type (0, 0), BuildingBlock: XUDNAN_clean_linker_2, # of connection points: 2
#     Edge 24, Type (0, 0), BuildingBlock: XUDNAN_clean_linker_2, # of connection points: 2
#     Edge 25, Type (0, 0), BuildingBlock: XUDNAN_clean_linker_2, # of connection points: 2
#     Edge 26, Type (0, 0), BuildingBlock: XUDNAN_clean_linker_2, # of connection points: 2
#     Edge 27, Type (0, 0), BuildingBlock: XUDNAN_clean_linker_2, # of connection points: 2
#     Edge 28, Type (0, 0), BuildingBlock: XUDNAN_clean_linker_2, # of connection points: 2
#     Edge 29, Type (0, 0), BuildingBlock: XUDNAN_clean_linker_2, # of connection points: 2
#     Edge 30, Type (0, 0), BuildingBlock: XUDNAN_clean_linker_2, # of connection points: 2
#     Edge 31, Type (0, 0), BuildingBlock: XUDNAN_clean_linker_2, # of connection points: 2
#     Edge 32, Type (0, 0), BuildingBlock: XUDNAN_clean_linker_2, # of connection points: 2
#     Edge 33, Type (0, 0), BuildingBlock: XUDNAN_clean_linker_2, # of connection points: 2
#     Edge 34, Type (0, 0), BuildingBlock: XUDNAN_clean_linker_2, # of connection points: 2
#     Edge 35, Type (0, 0), BuildingBlock: XUDNAN_clean_linker_2, # of connection points: 2
#     Edge 36, Type (0, 0), BuildingBlock: XUDNAN_clean_linker_2, # of connection points: 2
#     Edge 37, Type (0, 0), BuildingBlock: XUDNAN_clean_linker_2, # of connection points: 2
#     Edge 38, Type (0, 0), BuildingBlock: XUDNAN_clean_linker_2, # of connection points: 2
#     Edge 39, Type (0, 0), BuildingBlock: XUDNAN_clean_linker_2, # of connection points: 2
#     Edge 40, Type (0, 0), BuildingBlock: XUDNAN_clean_linker_2, # of connection points: 2
#     Edge 41, Type (0, 0), BuildingBlock: XUDNAN_clean_linker_2, # of connection points: 2
#     Edge 42, Type (0, 0), BuildingBlock: XUDNAN_clean_linker_2, # of connection points: 2
#     Edge 43, Type (0, 0), BuildingBlock: XUDNAN_clean_linker_2, # of connection points: 2
#     Edge 44, Type (0, 0), BuildingBlock: XUDNAN_clean_linker_2, # of connection points: 2
#     Edge 45, Type (0, 0), BuildingBlock: XUDNAN_clean_linker_2, # of connection points: 2
#     Edge 46, Type (0, 0), BuildingBlock: XUDNAN_clean_linker_2, # of connection points: 2
#     Edge 47, Type (0, 0), BuildingBlock: XUDNAN_clean_linker_2, # of connection points: 2
#     Edge 48, Type (0, 0), BuildingBlock: XUDNAN_clean_linker_2, # of connection points: 2
#     Edge 49, Type (0, 0), BuildingBlock: XUDNAN_clean_linker_2, # of connection points: 2
#     Edge 50, Type (0, 0), BuildingBlock: XUDNAN_clean_linker_2, # of connection points: 2
#     Edge 51, Type (0, 0), BuildingBlock: XUDNAN_clean_linker_2, # of connection points: 2
#     Edge 52, Type (0, 0), BuildingBlock: XUDNAN_clean_linker_2, # of connection points: 2
#     Edge 53, Type (0, 0), BuildingBlock: XUDNAN_clean_linker_2, # of connection points: 2
#     Edge 54, Type (0, 0), BuildingBlock: XUDNAN_clean_linker_2, # of connection points: 2
#     Edge 55, Type (0, 0), BuildingBlock: XUDNAN_clean_linker_2, # of connection points: 2
# Relax obj value: 0.182
# Max RMSD: 0.095
# Mean RMSD: 0.095
data_MOF--net-zfd--node1-BEQFEK_clean_sbu_0--edge1-XUDNAN_clean_linker_2
_symmetry_space_group_name_H-M    P1
_symmetry_Int_Tables_number       1
_symmetry_cell_setting            triclinic
loop_
_symmetry_equiv_pos_as_xyz
'x, y, z'
_cell_length_a     63.515536
_cell_length_b     63.816237
_cell_length_c     23.245537
_cell_angle_alpha  89.956252
_cell_angle_beta   90.026707
_cell_angle_gamma 90.020082
loop_
_atom_site_label
_atom_site_type_symbol
_atom_site_fract_x
_atom_site_fract_y
_atom_site_fract_z
_atom_type_partial_charge
Co0 Co 0.14573 0.22995 0.97134 0.0
Co1 Co 0.1249 0.25406 0.06479 0.0
C2 C 0.14969 0.21333 0.09396 0.0
O3 O 0.15251 0.21101 0.03984 0.0
O4 O 0.13869 0.22897 0.1114 0.0
C5 C 0.15814 0.22662 0.85819 0.0
O6 O 0.15674 0.24713 0.86129 0.0
C7 C 0.10926 0.27175 0.17301 0.0
C8 C 0.089 0.29725 0.14038 0.0
C9 C 0.09558 0.28756 0.19075 0.0
N10 N 0.10961 0.27156 0.11526 0.0
N11 N 0.09823 0.2874 0.09618 0.0
C12 C 0.12454 0.25953 0.20884 0.0
H13 H 0.13941 0.25723 0.18479 0.0
H14 H 0.11779 0.24391 0.21895 0.0
H15 H 0.12841 0.26796 0.24921 0.0
C16 C 0.10178 0.23291 0.91243 0.0
N17 N 0.11561 0.23611 0.95694 0.0
N18 N 0.10596 0.24631 0.99822 0.0
C19 C 0.08556 0.24967 0.98085 0.0
C20 C 0.08196 0.24167 0.92486 0.0
C21 C 0.10772 0.22273 0.85689 0.0
H22 H 0.11664 0.23413 0.83049 0.0
H23 H 0.11759 0.20876 0.86546 0.0
H24 H 0.09389 0.21782 0.83148 0.0
O25 O 0.165 0.25504 0.97809 0.0
O26 O 0.14857 0.27399 0.04292 0.0
H27 H 0.06776 0.27607 1.00984 0.0
H28 H 0.05331 0.25198 1.00822 0.0
C29 C 0.06888 0.25901 1.01828 0.0
H30 H 0.07259 0.25634 0.06431 0.0
H31 H 0.09694 0.29159 0.05296 0.0
O32 O 0.15535 0.21574 0.90323 0.0
C33 C 0.16397 0.27153 1.0087 0.0
Co34 Co 0.81029 0.1362 0.99238 0.0
Co35 Co 0.78734 0.11357 0.08404 0.0
C36 C 0.82503 0.13725 0.12218 0.0
O37 O 0.82517 0.14228 0.06899 0.0
O38 O 0.81156 0.12359 0.13892 0.0
C39 C 0.84867 0.13112 0.94548 0.0
O40 O 0.84811 0.11507 0.98083 0.0
C41 C 0.7654 0.09057 0.17617 0.0
C42 C 0.73408 0.08675 0.1356 0.0
C43 C 0.74531 0.08274 0.18536 0.0
N44 N 0.76588 0.09916 0.12356 0.0
N45 N 0.74711 0.09694 0.09971 0.0
C46 C 0.78424 0.08866 0.21448 0.0
H47 H 0.79886 0.08835 0.18839 0.0
H48 H 0.78332 0.07426 0.24115 0.0
H49 H 0.78489 0.10245 0.24347 0.0
C50 C 0.805 0.09474 0.92551 0.0
N51 N 0.80325 0.10714 0.97321 0.0
N52 N 0.79434 0.09646 1.01459 0.0
C53 C 0.79022 0.07674 0.99434 0.0
C54 C 0.79692 0.07455 0.93624 0.0
C55 C 0.81267 0.10259 0.86862 0.0
H56 H 0.81146 0.11991 0.86634 0.0
H57 H 0.82939 0.09801 0.86306 0.0
H58 H 0.80346 0.09548 0.83303 0.0
O59 O 0.78527 0.15618 0.98834 0.0
O60 O 0.77184 0.14045 0.06447 0.0
H61 H 0.7626 0.06139 1.02525 0.0
H62 H 0.78501 0.04433 1.01632 0.0
C63 C 0.77994 0.06018 0.03016 0.0
H64 H 0.78384 0.06252 0.07625 0.0
H65 H 0.74327 0.1023 0.05859 0.0
O66 O 0.83283 0.14323 0.94083 0.0
C67 C 0.7714 0.15543 0.02807 0.0
Co68 Co 0.90204 0.81549 0.97283 0.0
Co69 Co 0.92134 0.78878 0.06386 0.0
C70 C 0.89759 0.83026 0.09625 0.0
O71 O 0.89538 0.83366 0.0424 0.0
O72 O 0.90789 0.81389 0.11212 0.0
C73 C 0.89578 0.8503 0.89804 0.0
O74 O 0.90159 0.86186 0.942 0.0
C75 C 0.95564 0.77623 0.13845 0.0
C76 C 0.94734 0.74331 0.15795 0.0
C77 C 0.96307 0.75812 0.16426 0.0
N78 N 0.93666 0.77209 0.11613 0.0
N79 N 0.93152 0.75256 0.12905 0.0
C80 C 0.9664 0.79703 0.13375 0.0
H81 H 0.95452 0.80977 0.13202 0.0
H82 H 0.97571 0.79772 0.09354 0.0
H83 H 0.97722 0.79948 0.17066 0.0
C84 C 0.94548 0.81078 0.91371 0.0
N85 N 0.93184 0.8081 0.95876 0.0
N86 N 0.94006 0.79479 0.99543 0.0
C87 C 0.95866 0.78768 0.97223 0.0
C88 C 0.96334 0.79805 0.91981 0.0
C89 C 0.94047 0.82327 0.86131 0.0
H90 H 0.92692 0.81581 0.83959 0.0
H91 H 0.93634 0.83946 0.87402 0.0
H92 H 0.95381 0.82384 0.83064 0.0
O93 O 0.88202 0.79044 0.97703 0.0
O94 O 0.89729 0.76999 0.04119 0.0
H95 H 0.9748 0.75828 0.96271 0.0
H96 H 0.98652 0.77604 1.01232 0.0
C97 C 0.97124 0.76995 0.99651 0.0
H98 H 0.96265 0.76191 0.03143 0.0
H99 H 0.91771 0.74519 0.11559 0.0
O100 O 0.89355 0.8307 0.90449 0.0
C101 C 0.88224 0.77352 1.00646 0.0
Co102 Co 0.23501 0.90301 0.98865 0.0
Co103 Co 0.25838 0.92728 0.07569 0.0
C104 C 0.22053 0.90404 0.11787 0.0
O105 O 0.21948 0.89648 0.06688 0.0
O106 O 0.23384 0.91865 0.12787 0.0
C107 C 0.19695 0.90388 0.9342 0.0
O108 O 0.1925 0.9157 0.9788 0.0
C109 C 0.28325 0.94095 0.17388 0.0
C110 C 0.3064 0.96192 0.13262 0.0
C111 C 0.30045 0.9539 0.18577 0.0
N112 N 0.27893 0.9423 0.11747 0.0
N113 N 0.2933 0.95418 0.09273 0.0
C114 C 0.27311 0.92495 0.21199 0.0
H115 H 0.26641 0.91205 0.18587 0.0
H116 H 0.26017 0.93235 0.23678 0.0
H117 H 0.28482 0.91801 0.24187 0.0
C118 C 0.23963 0.94457 0.91819 0.0
N119 N 0.24171 0.93246 0.96661 0.0
N120 N 0.25038 0.94382 1.00703 0.0
C121 C 0.25289 0.96379 0.98668 0.0
C122 C 0.24657 0.96527 0.92831 0.0
C123 C 0.2329 0.93608 0.86123 0.0
H124 H 0.23637 0.91908 0.85885 0.0
H125 H 0.21573 0.9386 0.85598 0.0
H126 H 0.24113 0.94429 0.82563 0.0
O127 O 0.26054 0.8839 0.98542 0.0
O128 O 0.27464 0.90061 0.05883 0.0
H129 H 0.27604 0.98555 1.01761 0.0
H130 H 0.24995 0.99601 1.01234 0.0
C131 C 0.25917 0.98185 1.02404 0.0
H132 H 0.25655 0.97801 0.07006 0.0
H133 H 0.29455 0.9565 0.04848 0.0
O134 O 0.21477 0.89492 0.93108 0.0
C135 C 0.27491 0.88534 1.02351 0.0
Co136 Co 0.14144 0.81431 0.55903 0.0
Co137 Co 0.12266 0.78401 0.47691 0.0
C138 C 0.14248 0.82411 0.42903 0.0
O139 O 0.14545 0.82852 0.48182 0.0
O140 O 0.13291 0.80699 0.41696 0.0
C141 C 0.13511 0.85333 0.60382 0.0
O142 O 0.11844 0.85218 0.57053 0.0
C143 C 0.09833 0.76407 0.38689 0.0
C144 C 0.09695 0.73114 0.41665 0.0
C145 C 0.09088 0.7444 0.37257 0.0
N146 N 0.1088 0.7625 0.43658 0.0
N147 N 0.10811 0.74279 0.45411 0.0
C148 C 0.09385 0.78443 0.35724 0.0
H149 H 0.09396 0.79747 0.38877 0.0
H150 H 0.07838 0.78398 0.33506 0.0
H151 H 0.10628 0.78739 0.32469 0.0
C152 C 0.10011 0.80731 0.62663 0.0
N153 N 0.11307 0.8049 0.58012 0.0
N154 N 0.10404 0.79246 0.54273 0.0
C155 C 0.08478 0.78682 0.56426 0.0
C156 C 0.08121 0.79606 0.61909 0.0
C157 C 0.10651 0.81845 0.68047 0.0
H158 H 0.1239 0.81891 0.68443 0.0
H159 H 0.10043 0.83473 0.67905 0.0
H160 H 0.09974 0.81061 0.71889 0.0
O161 O 0.16392 0.79148 0.56418 0.0
O162 O 0.14898 0.76904 0.50435 0.0
H163 H 0.07426 0.75615 0.54161 0.0
H164 H 0.05345 0.77538 0.54659 0.0
C165 C 0.06995 0.77269 0.53276 0.0
H166 H 0.07124 0.77539 0.48576 0.0
H167 H 0.11496 0.73738 0.49213 0.0
O168 O 0.14755 0.83779 0.60829 0.0
C169 C 0.16419 0.77394 0.53749 0.0
Co170 Co 0.23445 0.13841 0.53841 0.0
Co171 Co 0.26576 0.11395 0.47072 0.0
C172 C 0.22946 0.13593 0.40718 0.0
O173 O 0.22419 0.1429 0.45624 0.0
O174 O 0.24481 0.12287 0.40451 0.0
C175 C 0.19209 0.14218 0.56032 0.0
O176 O 0.19076 0.1286 0.51813 0.0
C177 C 0.28513 0.07739 0.41865 0.0
C178 C 0.31907 0.0846 0.42749 0.0
C179 C 0.30508 0.06895 0.41229 0.0
N180 N 0.28718 0.09695 0.4387 0.0
N181 N 0.30748 0.10135 0.4428 0.0
C182 C 0.2644 0.06708 0.40679 0.0
H183 H 0.25241 0.07906 0.39562 0.0
H184 H 0.25888 0.05868 0.44564 0.0
H185 H 0.26594 0.05555 0.3713 0.0
C186 C 0.23434 0.09874 0.61579 0.0
N187 N 0.2398 0.10961 0.56721 0.0
N188 N 0.25439 0.0991 0.53967 0.0
C189 C 0.25923 0.08168 0.5717 0.0
C190 C 0.24616 0.08009 0.62051 0.0
C191 C 0.21955 0.10707 0.66023 0.0
H192 H 0.22339 0.12369 0.66956 0.0
H193 H 0.20329 0.10656 0.64289 0.0
H194 H 0.22023 0.09772 0.70047 0.0
O195 O 0.25973 0.15829 0.54918 0.0
O196 O 0.28162 0.13963 0.49583 0.0
H197 H 0.28989 0.07604 0.53527 0.0
H198 H 0.28499 0.06251 0.60162 0.0
C199 C 0.27776 0.06781 0.56073 0.0
H200 H 0.27232 0.05362 0.53786 0.0
H201 H 0.31346 0.1154 0.45895 0.0
O202 O 0.20991 0.14836 0.57879 0.0
C203 C 0.27782 0.1559 0.5258 0.0
Co204 Co 0.90337 0.2275 0.55541 0.0
Co205 Co 0.92504 0.25893 0.4816 0.0
C206 C 0.90391 0.21898 0.42804 0.0
O207 O 0.89919 0.21283 0.47847 0.0
O208 O 0.91456 0.236 0.42248 0.0
C209 C 0.90031 0.18827 0.60657 0.0
O210 O 0.91138 0.18235 0.56173 0.0
C211 C 0.96169 0.27179 0.41926 0.0
C212 C 0.96054 0.30633 0.42544 0.0
C213 C 0.97347 0.28978 0.41001 0.0
N214 N 0.94312 0.2774 0.44157 0.0
N215 N 0.94221 0.29807 0.44384 0.0
C216 C 0.96807 0.24944 0.41001 0.0
H217 H 0.95437 0.2402 0.39491 0.0
H218 H 0.97333 0.24253 0.45138 0.0
H219 H 0.98096 0.24826 0.37798 0.0
C220 C 0.94448 0.23094 0.62862 0.0
N221 N 0.9322 0.23497 0.5813 0.0
N222 N 0.94118 0.24975 0.5509 0.0
C223 C 0.95901 0.25608 0.5793 0.0
C224 C 0.96237 0.24399 0.62949 0.0
C225 C 0.93801 0.21675 0.67655 0.0
H226 H 0.92188 0.22095 0.69039 0.0
H227 H 0.93801 0.20035 0.66096 0.0
H228 H 0.94879 0.21796 0.71398 0.0
O229 O 0.88275 0.25224 0.55589 0.0
O230 O 0.89949 0.27601 0.50372 0.0
H231 H 0.96173 0.28748 0.54743 0.0
H232 H 0.98296 0.27978 0.59484 0.0
C233 C 0.97207 0.27437 0.56083 0.0
H234 H 0.98176 0.26961 0.52385 0.0
H235 H 0.92974 0.30647 0.46179 0.0
O236 O 0.89397 0.20709 0.61041 0.0
C237 C 0.88339 0.27046 0.53273 0.0
Co238 Co 0.81487 0.9032 0.54592 0.0
Co239 Co 0.77995 0.92333 0.48071 0.0
C240 C 0.81786 0.90526 0.41435 0.0
O241 O 0.82494 0.89988 0.46329 0.0
O242 O 0.80082 0.9161 0.41253 0.0
C243 C 0.8566 0.90818 0.57035 0.0
O244 O 0.85397 0.92469 0.53743 0.0
C245 C 0.75688 0.95664 0.42417 0.0
C246 C 0.72378 0.94834 0.44314 0.0
C247 C 0.7364 0.96364 0.4191 0.0
N248 N 0.75656 0.93805 0.45078 0.0
N249 N 0.73672 0.93296 0.46125 0.0
C250 C 0.77657 0.96774 0.40614 0.0
H251 H 0.7906 0.96035 0.42615 0.0
H252 H 0.77583 0.98457 0.41783 0.0
H253 H 0.77804 0.9668 0.35864 0.0
C254 C 0.81068 0.94273 0.6235 0.0
N255 N 0.8062 0.93097 0.5757 0.0
N256 N 0.79066 0.93984 0.5477 0.0
C257 C 0.78462 0.95734 0.57766 0.0
C258 C 0.79737 0.96035 0.62684 0.0
C259 C 0.8261 0.93632 0.6688 0.0
H260 H 0.82769 0.91903 0.67023 0.0
H261 H 0.84163 0.94327 0.65836 0.0
H262 H 0.82124 0.94223 0.71168 0.0
O263 O 0.7924 0.88041 0.55635 0.0
O264 O 0.76711 0.89587 0.50642 0.0
H265 H 0.75254 0.96069 0.55064 0.0
H266 H 0.76188 0.9818 0.5959 0.0
C267 C 0.76626 0.9707 0.56127 0.0
H268 H 0.77053 0.97997 0.52278 0.0
H269 H 0.73206 0.91948 0.48325 0.0
O270 O 0.84104 0.89657 0.58367 0.0
C271 C 0.77376 0.8802 0.5352 0.0
Co272 Co 0.64205 0.7279 0.49336 0.0
Co273 Co 0.62148 0.75848 0.57149 0.0
C274 C 0.64184 0.71968 0.62454 0.0
O275 O 0.64604 0.7158 0.57226 0.0
O276 O 0.63072 0.736 0.63538 0.0
C277 C 0.63626 0.68723 0.46343 0.0
O278 O 0.62011 0.68964 0.49799 0.0
C279 C 0.58837 0.7789 0.6363 0.0
C280 C 0.5963 0.81244 0.62567 0.0
C281 C 0.58136 0.79894 0.64786 0.0
N282 N 0.60664 0.78037 0.60798 0.0
N283 N 0.6115 0.80043 0.6024 0.0
C284 C 0.57775 0.75864 0.65076 0.0
H285 H 0.58456 0.74561 0.6252 0.0
H286 H 0.56054 0.7597 0.64319 0.0
H287 H 0.58016 0.75528 0.69714 0.0
C288 C 0.60211 0.73243 0.42151 0.0
N289 N 0.61401 0.73648 0.46903 0.0
N290 N 0.60394 0.74953 0.5027 0.0
C291 C 0.58504 0.75418 0.47649 0.0
C292 C 0.58289 0.74327 0.42363 0.0
C293 C 0.60947 0.7193 0.37218 0.0
H294 H 0.62688 0.71968 0.36893 0.0
H295 H 0.6043 0.70293 0.37915 0.0
H296 H 0.60247 0.72488 0.33114 0.0
O297 O 0.66409 0.75085 0.48595 0.0
O298 O 0.6486 0.773 0.54576 0.0
H299 H 0.57708 0.78299 0.51831 0.0
H300 H 0.5574 0.77368 0.46807 0.0
C301 C 0.56911 0.7689 0.50093 0.0
H302 H 0.56067 0.76097 0.53649 0.0
H303 H 0.62472 0.80598 0.58054 0.0
O304 O 0.6482 0.70266 0.45117 0.0
C305 C 0.66404 0.76833 0.51297 0.0
Co306 Co 0.31514 0.64063 0.48861 0.0
Co307 Co 0.28435 0.62168 0.56987 0.0
C308 C 0.32407 0.64149 0.6196 0.0
O309 O 0.32817 0.64484 0.56684 0.0
O310 O 0.30727 0.6312 0.63173 0.0
C311 C 0.35483 0.63305 0.44919 0.0
O312 O 0.35257 0.61665 0.48281 0.0
C313 C 0.26278 0.59119 0.64214 0.0
C314 C 0.2296 0.59644 0.61719 0.0
C315 C 0.24256 0.58365 0.64949 0.0
N316 N 0.26189 0.6078 0.60704 0.0
N317 N 0.24197 0.61118 0.59326 0.0
C318 C 0.2828 0.58156 0.66342 0.0
H319 H 0.29653 0.5879 0.63953 0.0
H320 H 0.28222 0.56425 0.65914 0.0
H321 H 0.28465 0.58524 0.70979 0.0
C322 C 0.30822 0.6002 0.41899 0.0
N323 N 0.30568 0.61264 0.46639 0.0
N324 N 0.29278 0.60351 0.50254 0.0
C325 C 0.28677 0.58477 0.47867 0.0
C326 C 0.29651 0.58161 0.42434 0.0
C327 C 0.31985 0.60685 0.36612 0.0
H328 H 0.336 0.60031 0.36761 0.0
H329 H 0.31202 0.60068 0.32692 0.0
H330 H 0.32079 0.62417 0.36349 0.0
O331 O 0.29242 0.66306 0.48135 0.0
O332 O 0.27018 0.64851 0.54281 0.0
H333 H 0.25613 0.57779 0.51139 0.0
H334 H 0.26992 0.55523 0.4827 0.0
C335 C 0.27169 0.57006 0.507 0.0
H336 H 0.27753 0.56626 0.55059 0.0
H337 H 0.23695 0.62272 0.56456 0.0
O338 O 0.33972 0.64595 0.4425 0.0
C339 C 0.27498 0.66352 0.50897 0.0
Co340 Co 0.40239 0.30981 0.49226 0.0
Co341 Co 0.42905 0.28662 0.57477 0.0
C342 C 0.40403 0.32239 0.623 0.0
O343 O 0.39781 0.32298 0.57093 0.0
O344 O 0.41848 0.30914 0.63592 0.0
C345 C 0.40464 0.34942 0.45727 0.0
O346 O 0.42136 0.34795 0.49023 0.0
C347 C 0.46258 0.26736 0.6443 0.0
C348 C 0.46297 0.23572 0.60514 0.0
C349 C 0.47351 0.24847 0.64358 0.0
N350 N 0.4467 0.26591 0.6066 0.0
N351 N 0.4468 0.24689 0.58412 0.0
C352 C 0.46684 0.28646 0.67985 0.0
H353 H 0.45184 0.29442 0.69056 0.0
H354 H 0.47661 0.29763 0.65489 0.0
H355 H 0.47523 0.28229 0.72017 0.0
C356 C 0.44172 0.30803 0.41608 0.0
N357 N 0.43127 0.30461 0.46637 0.0
N358 N 0.44411 0.29619 0.50374 0.0
C359 C 0.46351 0.29425 0.47802 0.0
C360 C 0.46305 0.30187 0.42055 0.0
C361 C 0.43081 0.31549 0.36277 0.0
H362 H 0.41386 0.3113 0.36427 0.0
H363 H 0.43205 0.33278 0.36003 0.0
H364 H 0.4381 0.30857 0.32379 0.0
O365 O 0.38349 0.28417 0.48836 0.0
O366 O 0.40343 0.2688 0.55376 0.0
H367 H 0.48182 0.26793 0.50444 0.0
H368 H 0.49714 0.29104 0.48821 0.0
C369 C 0.48231 0.28527 0.5078 0.0
H370 H 0.48203 0.28954 0.55392 0.0
H371 H 0.43647 0.24187 0.55206 0.0
O372 O 0.3932 0.33341 0.44741 0.0
C373 C 0.38714 0.26859 0.5214 0.0
Co374 Co 0.73051 0.40233 0.50382 0.0
Co375 Co 0.76456 0.42383 0.56828 0.0
C376 C 0.72743 0.40436 0.63502 0.0
O377 O 0.72032 0.39882 0.58627 0.0
O378 O 0.74421 0.41559 0.63642 0.0
C379 C 0.68893 0.40695 0.47578 0.0
O380 O 0.69132 0.42371 0.50788 0.0
C381 C 0.78617 0.45415 0.63874 0.0
C382 C 0.81935 0.45054 0.61142 0.0
C383 C 0.80635 0.46173 0.64801 0.0
N384 N 0.78726 0.43905 0.59906 0.0
N385 N 0.80709 0.43681 0.58299 0.0
C386 C 0.76579 0.46229 0.66221 0.0
H387 H 0.7526 0.45828 0.63283 0.0
H388 H 0.76647 0.47953 0.66814 0.0
H389 H 0.76266 0.45484 0.7045 0.0
C390 C 0.73339 0.44167 0.42623 0.0
N391 N 0.73859 0.43023 0.47382 0.0
N392 N 0.75306 0.44036 0.50273 0.0
C393 C 0.75721 0.45885 0.47467 0.0
C394 C 0.74474 0.46072 0.42429 0.0
C395 C 0.71923 0.43359 0.37979 0.0
H396 H 0.71977 0.41624 0.37824 0.0
H397 H 0.70285 0.43852 0.38893 0.0
H398 H 0.72386 0.44002 0.33724 0.0
O399 O 0.75341 0.38034 0.49329 0.0
O400 O 0.77843 0.39682 0.54171 0.0
H401 H 0.78891 0.46812 0.49151 0.0
H402 H 0.77165 0.48959 0.4721 0.0
C403 C 0.77278 0.4746 0.49603 0.0
H404 H 0.77001 0.4776 0.54234 0.0
H405 H 0.81218 0.42617 0.55189 0.0
O406 O 0.70462 0.39514 0.46521 0.0
C407 C 0.77215 0.38083 0.51359 0.0
Co408 Co 0.64756 0.3124 0.08278 0.0
Co409 Co 0.62664 0.28836 0.98977 0.0
C410 C 0.65095 0.32687 0.9541 0.0
O411 O 0.65504 0.32821 1.00789 0.0
O412 O 0.63834 0.31244 0.93731 0.0
C413 C 0.64592 0.35001 0.13999 0.0
O414 O 0.63527 0.35525 0.09372 0.0
C415 C 0.60754 0.26713 0.89029 0.0
C416 C 0.59299 0.23998 0.93417 0.0
C417 C 0.5955 0.24927 0.88077 0.0
N418 N 0.61146 0.26845 0.94686 0.0
N419 N 0.60314 0.25196 0.97261 0.0
C420 C 0.61672 0.28175 0.84658 0.0
H421 H 0.63335 0.28517 0.85766 0.0
H422 H 0.60789 0.29675 0.84724 0.0
H423 H 0.61619 0.27491 0.80273 0.0
C424 C 0.60492 0.30733 0.14444 0.0
N425 N 0.61811 0.30535 0.0983 0.0
N426 N 0.6079 0.29644 0.05592 0.0
C427 C 0.58744 0.29355 0.07344 0.0
C428 C 0.58471 0.30001 0.13127 0.0
C429 C 0.61146 0.31566 0.20168 0.0
H430 H 0.62815 0.31163 0.21001 0.0
H431 H 0.60949 0.33291 0.20175 0.0
H432 H 0.60149 0.30911 0.23653 0.0
O433 O 0.66611 0.28692 0.08844 0.0
O434 O 0.65209 0.2706 1.014 0.0
H435 H 0.569 0.26763 0.04508 0.0
H436 H 0.55519 0.29214 0.04576 0.0
C437 C 0.57054 0.28463 0.03604 0.0
H438 H 0.5745 0.28683 0.98994 0.0
H439 H 0.60421 0.24904 1.01669 0.0
O440 O 0.6545 0.33205 0.14294 0.0
C441 C 0.66604 0.27151 0.05346 0.0
Co442 Co 0.73103 0.64195 0.06678 0.0
Co443 Co 0.76134 0.62029 0.98819 0.0
C444 C 0.72077 0.64201 0.93938 0.0
O445 O 0.71537 0.64695 0.99057 0.0
O446 O 0.73745 0.63084 0.93193 0.0
C447 C 0.69372 0.64932 0.13454 0.0
O448 O 0.68263 0.6421 0.09115 0.0
C449 C 0.78043 0.58932 0.91048 0.0
C450 C 0.81419 0.59732 0.92005 0.0
C451 C 0.80052 0.58378 0.89268 0.0
N452 N 0.78221 0.60538 0.94726 0.0
N453 N 0.8024 0.61008 0.95276 0.0
C454 C 0.75987 0.58039 0.8907 0.0
H455 H 0.74686 0.59157 0.89904 0.0
H456 H 0.75653 0.56573 0.91457 0.0
H457 H 0.7606 0.57655 0.84417 0.0
C458 C 0.73438 0.59976 0.13388 0.0
N459 N 0.7389 0.61262 0.08844 0.0
N460 N 0.75241 0.60299 0.05505 0.0
C461 C 0.7569 0.58376 0.07885 0.0
C462 C 0.74548 0.58072 0.13047 0.0
C463 C 0.72117 0.60628 0.1836 0.0
H464 H 0.72782 0.621 0.20062 0.0
H465 H 0.7048 0.6089 0.16886 0.0
H466 H 0.72117 0.59455 0.21881 0.0
O467 O 0.75524 0.6626 0.06661 0.0
O468 O 0.7779 0.64608 1.01137 0.0
H469 H 0.78586 0.57644 0.03615 0.0
H470 H 0.77624 0.55596 0.08354 0.0
C471 C 0.77162 0.56829 0.05233 0.0
H472 H 0.76371 0.56072 1.01529 0.0
H473 H 0.80823 0.62195 0.97915 0.0
O474 O 0.71343 0.65163 0.12923 0.0
C475 C 0.77304 0.66197 0.04146 0.0
Co476 Co 0.40195 0.7304 0.06171 0.0
Co477 Co 0.42497 0.75926 0.98343 0.0
C478 C 0.40209 0.7212 0.93172 0.0
O479 O 0.39584 0.71699 0.98258 0.0
O480 O 0.41498 0.7365 0.9246 0.0
C481 C 0.39964 0.69041 0.10988 0.0
O482 O 0.41012 0.68501 0.06352 0.0
C483 C 0.45072 0.77932 0.89483 0.0
C484 C 0.45555 0.81075 0.93288 0.0
C485 C 0.45993 0.79866 0.88503 0.0
N486 N 0.44096 0.78005 0.94584 0.0
N487 N 0.44379 0.79888 0.96827 0.0
C488 C 0.45248 0.75995 0.85889 0.0
H489 H 0.45278 0.74587 0.88689 0.0
H490 H 0.4669 0.76027 0.83196 0.0
H491 H 0.43854 0.75887 0.83027 0.0
C492 C 0.44326 0.7329 0.13205 0.0
N493 N 0.43123 0.73704 0.08469 0.0
N494 N 0.4418 0.74953 0.05056 0.0
C495 C 0.46113 0.75331 0.07504 0.0
C496 C 0.46303 0.74279 0.12846 0.0
C497 C 0.43522 0.72152 0.18367 0.0
H498 H 0.41867 0.72613 0.19142 0.0
H499 H 0.43606 0.70442 0.17564 0.0
H500 H 0.44461 0.7252 0.22264 0.0
O501 O 0.38294 0.75559 0.07055 0.0
O502 O 0.39878 0.77575 1.00654 0.0
H503 H 0.47401 0.78342 0.05683 0.0
H504 H 0.49346 0.76308 0.06546 0.0
C505 C 0.47764 0.76673 0.04785 0.0
H506 H 0.47756 0.76449 1.00052 0.0
H507 H 0.43783 0.80354 1.00809 0.0
O508 O 0.39318 0.70914 0.11557 0.0
C509 C 0.38369 0.7726 0.04166 0.0
Co510 Co 0.31453 0.40509 0.05876 0.0
Co511 Co 0.28384 0.42498 0.97859 0.0
C512 C 0.3246 0.40317 0.9313 0.0
O513 O 0.33049 0.39936 0.9829 0.0
O514 O 0.30752 0.41365 0.92325 0.0
C515 C 0.35125 0.39954 0.13012 0.0
O516 O 0.36259 0.40776 0.08861 0.0
C517 C 0.26437 0.44997 0.88694 0.0
C518 C 0.23197 0.4531 0.92105 0.0
C519 C 0.24481 0.45856 0.8755 0.0
N520 N 0.2631 0.43962 0.93695 0.0
N521 N 0.24366 0.4413 0.95676 0.0
C522 C 0.28431 0.45294 0.85371 0.0
H523 H 0.29809 0.45226 0.88302 0.0
H524 H 0.2842 0.46811 0.83032 0.0
H525 H 0.28578 0.44012 0.82177 0.0
C526 C 0.30955 0.44787 0.12385 0.0
N527 N 0.30635 0.43451 0.07844 0.0
N528 N 0.29275 0.44317 0.04335 0.0
C529 C 0.28694 0.46219 0.06551 0.0
C530 C 0.29741 0.46623 0.11814 0.0
C531 C 0.32171 0.44205 0.17623 0.0
H532 H 0.31446 0.42782 0.19467 0.0
H533 H 0.33824 0.43876 0.16414 0.0
H534 H 0.32149 0.45447 0.20945 0.0
O535 O 0.29026 0.38428 0.06011 0.0
O536 O 0.26699 0.39988 1.00456 0.0
H537 H 0.25515 0.47037 0.04616 0.0
H538 H 0.27255 0.49257 0.05389 0.0
C539 C 0.27124 0.47632 0.03733 0.0
H540 H 0.27369 0.47636 0.99011 0.0
H541 H 0.23852 0.43481 0.99552 0.0
O542 O 0.33182 0.39614 0.12238 0.0
C543 C 0.27223 0.38443 0.03592 0.0
H544 H 0.16483 0.3154 1.0164 0.0
H545 H 0.20526 0.26078 1.00677 0.0
H546 H 0.23653 0.28339 1.01773 0.0
H547 H 0.19996 0.3488 0.93067 0.0
H548 H 0.19409 0.37227 0.97063 0.0
H549 H 0.17465 0.35181 0.96473 0.0
H550 H 0.17202 0.3501 0.0757 0.0
H551 H 0.19159 0.37043 0.08193 0.0
H552 H 0.19549 0.34564 0.11761 0.0
H553 H 0.26356 0.31157 0.03648 0.0
H554 H 0.28493 0.34375 0.04434 0.0
H555 H 0.22833 0.38141 0.02986 0.0
C556 C 0.18029 0.30826 1.01639 0.0
C557 C 0.1825 0.28616 1.01093 0.0
C558 C 0.20307 0.27755 1.01056 0.0
C559 C 0.22098 0.2903 1.01719 0.0
C560 C 0.21833 0.3119 1.02285 0.0
C561 C 0.19856 0.32094 1.02103 0.0
C562 C 0.20042 0.34478 1.02433 0.0
C563 C 0.19177 0.35502 0.96931 0.0
C564 C 0.18921 0.35323 0.0781 0.0
C565 C 0.22424 0.34764 0.02895 0.0
C566 C 0.23416 0.32838 0.02923 0.0
C567 C 0.25595 0.32674 0.03559 0.0
C568 C 0.268 0.34518 0.04048 0.0
C569 C 0.25848 0.36524 0.0377 0.0
C570 C 0.23618 0.36637 0.03198 0.0
H571 H 0.6834 0.2459 0.9682 0.0
H572 H 0.68588 0.25847 0.15146 0.0
H573 H 0.71247 0.23057 0.16312 0.0
H574 H 0.69081 0.18957 0.97503 0.0
H575 H 0.70774 0.18825 0.91294 0.0
H576 H 0.68833 0.20874 0.91844 0.0
H577 H 0.71745 0.23667 0.90524 0.0
H578 H 0.73696 0.21626 0.89973 0.0
H579 H 0.73988 0.23664 0.95281 0.0
H580 H 0.73754 0.20033 0.15656 0.0
H581 H 0.76185 0.17173 0.13176 0.0
H582 H 0.74679 0.17958 0.95096 0.0
C583 C 0.68948 0.2427 1.01082 0.0
C584 C 0.68226 0.25441 0.05914 0.0
C585 C 0.69099 0.24985 0.11384 0.0
C586 C 0.70613 0.23394 0.1209 0.0
C587 C 0.71291 0.22277 0.07269 0.0
C588 C 0.70512 0.22708 1.0185 0.0
C589 C 0.7159 0.21314 0.97377 0.0
C590 C 0.69973 0.19909 0.94324 0.0
C591 C 0.72828 0.22648 0.93031 0.0
C592 C 0.73075 0.20018 1.01142 0.0
C593 C 0.72846 0.20596 0.06842 0.0
C594 C 0.73959 0.19586 0.11201 0.0
C595 C 0.75338 0.17951 0.09738 0.0
C596 C 0.75651 0.17333 0.03938 0.0
C597 C 0.74506 0.18403 0.99564 0.0
H598 H 0.81696 0.66471 0.03795 0.0
H599 H 0.76038 0.70272 0.04024 0.0
H600 H 0.78192 0.73459 0.0273 0.0
H601 H 0.84865 0.70241 0.1212 0.0
H602 H 0.87262 0.69676 0.08277 0.0
H603 H 0.85278 0.67678 0.09067 0.0
H604 H 0.85172 0.67215 0.98013 0.0
H605 H 0.87139 0.69228 0.97186 0.0
H606 H 0.84652 0.69455 0.935 0.0
H607 H 0.80939 0.76231 1.00566 0.0
H608 H 0.841 0.78456 0.99523 0.0
H609 H 0.88076 0.73001 1.01896 0.0
C610 C 0.80915 0.67978 0.03626 0.0
C611 C 0.78684 0.6811 0.04009 0.0
C612 C 0.77735 0.70119 0.03792 0.0
C613 C 0.78948 0.71944 0.03008 0.0
C614 C 0.81132 0.71761 0.02576 0.0
C615 C 0.82117 0.69837 0.03034 0.0
C616 C 0.84503 0.70107 0.02749 0.0
C617 C 0.85538 0.69382 0.08389 0.0
C618 C 0.8542 0.68931 0.97553 0.0
C619 C 0.84701 0.72474 1.01979 0.0
C620 C 0.8273 0.73387 1.01771 0.0
C621 C 0.82489 0.75533 1.00804 0.0
C622 C 0.84299 0.76787 1.00168 0.0
C623 C 0.86346 0.75919 1.0063 0.0
C624 C 0.86538 0.73722 1.0154 0.0
H625 H 0.36699 0.7999 0.95996 0.0
H626 H 0.36166 0.782 0.13936 0.0
H627 H 0.3339 0.8087 0.153 0.0
H628 H 0.35741 0.85552 0.97677 0.0
H629 H 0.34157 0.85792 0.91273 0.0
H630 H 0.36162 0.83802 0.91705 0.0
H631 H 0.33385 0.80954 0.89431 0.0
H632 H 0.31371 0.82936 0.88995 0.0
H633 H 0.31061 0.80753 0.93847 0.0
H634 H 0.30803 0.83864 0.14893 0.0
H635 H 0.28319 0.86713 0.12578 0.0
H636 H 0.30163 0.86406 0.94641 0.0
C637 C 0.36004 0.8017 1.00219 0.0
C638 C 0.36679 0.78889 0.04889 0.0
C639 C 0.35692 0.79154 0.10304 0.0
C640 C 0.34113 0.80675 0.1112 0.0
C641 C 0.33484 0.81906 0.06451 0.0
C642 C 0.34373 0.81651 1.01076 0.0
C643 C 0.33327 0.8312 0.96735 0.0
C644 C 0.34943 0.84658 0.94198 0.0
C645 C 0.3222 0.81866 0.91969 0.0
C646 C 0.31731 0.84259 1.00522 0.0
C647 C 0.31879 0.83544 0.06129 0.0
C648 C 0.30659 0.84412 0.10504 0.0
C649 C 0.29251 0.86038 0.09143 0.0
C650 C 0.29017 0.86778 0.03424 0.0
C651 C 0.30274 0.85858 0.99039 0.0
H652 H 0.16678 0.73035 0.53557 0.0
H653 H 0.20541 0.78633 0.53942 0.0
H654 H 0.23737 0.76453 0.52808 0.0
H655 H 0.20397 0.69842 0.62067 0.0
H656 H 0.19805 0.67465 0.58209 0.0
H657 H 0.17825 0.69468 0.58949 0.0
H658 H 0.17395 0.69577 0.47884 0.0
H659 H 0.19392 0.67593 0.47107 0.0
H660 H 0.19665 0.70066 0.43426 0.0
H661 H 0.26524 0.73646 0.50727 0.0
H662 H 0.28706 0.70454 0.4976 0.0
H663 H 0.23135 0.66607 0.51905 0.0
C664 C 0.182 0.73799 0.53474 0.0
C665 C 0.18347 0.7602 0.53847 0.0
C666 C 0.20376 0.76945 0.53728 0.0
C667 C 0.22205 0.75715 0.53031 0.0
C668 C 0.22006 0.73539 0.52591 0.0
C669 C 0.20057 0.72583 0.52973 0.0
C670 C 0.20295 0.70205 0.52691 0.0
C671 C 0.19536 0.69185 0.58313 0.0
C672 C 0.19116 0.69308 0.47466 0.0
C673 C 0.22672 0.69974 0.51985 0.0
C674 C 0.23624 0.71921 0.51825 0.0
C675 C 0.25792 0.72117 0.50931 0.0
C676 C 0.27023 0.70288 0.50334 0.0
C677 C 0.26109 0.68266 0.50754 0.0
C678 C 0.23893 0.68123 0.51575 0.0
H679 H 0.34379 0.26486 0.496 0.0
H680 H 0.39803 0.22906 0.55303 0.0
H681 H 0.37585 0.1977 0.56279 0.0
H682 H 0.3065 0.24004 0.59369 0.0
H683 H 0.28493 0.23981 0.54326 0.0
H684 H 0.30494 0.25977 0.53829 0.0
H685 H 0.31209 0.24947 0.4325 0.0
H686 H 0.29199 0.2296 0.43703 0.0
H687 H 0.31831 0.22263 0.41533 0.0
H688 H 0.34853 0.16962 0.56466 0.0
H689 H 0.31736 0.14663 0.55985 0.0
H690 H 0.27894 0.19949 0.50776 0.0
C691 C 0.35101 0.25036 0.50999 0.0
C692 C 0.37292 0.24962 0.52337 0.0
C693 C 0.38147 0.23028 0.54242 0.0
C694 C 0.36894 0.21226 0.54818 0.0
C695 C 0.34753 0.21353 0.53549 0.0
C696 C 0.3385 0.23204 0.51695 0.0
C697 C 0.31485 0.22887 0.50754 0.0
C698 C 0.30205 0.24297 0.54811 0.0
C699 C 0.30897 0.23288 0.44434 0.0
C700 C 0.31214 0.20573 0.52328 0.0
C701 C 0.33135 0.19729 0.53897 0.0
C702 C 0.33338 0.17614 0.55306 0.0
C703 C 0.31552 0.16316 0.5504 0.0
C704 C 0.29553 0.17119 0.53476 0.0
C705 C 0.29383 0.19293 0.52148 0.0
H706 H 0.816 0.3784 0.51611 0.0
H707 H 0.75995 0.33973 0.50672 0.0
H708 H 0.78202 0.30793 0.51385 0.0
H709 H 0.8487 0.34328 0.42757 0.0
H710 H 0.87237 0.34851 0.46791 0.0
H711 H 0.85218 0.36825 0.46253 0.0
H712 H 0.85049 0.37038 0.57357 0.0
H713 H 0.8705 0.35048 0.5793 0.0
H714 H 0.8455 0.34692 0.61464 0.0
H715 H 0.81015 0.2801 0.53056 0.0
H716 H 0.84216 0.25832 0.53883 0.0
H717 H 0.88086 0.31416 0.52717 0.0
C718 C 0.80838 0.36323 0.5149 0.0
C719 C 0.78606 0.36172 0.51082 0.0
C720 C 0.77689 0.34147 0.50929 0.0
C721 C 0.78934 0.32324 0.51379 0.0
C722 C 0.81118 0.32528 0.51865 0.0
C723 C 0.82069 0.34475 0.51776 0.0
C724 C 0.84459 0.34245 0.52118 0.0
C725 C 0.85508 0.35114 0.46654 0.0
C726 C 0.85328 0.3532 0.5754 0.0
C727 C 0.84702 0.31869 0.52497 0.0
C728 C 0.82747 0.30915 0.52446 0.0
C729 C 0.82551 0.28745 0.53021 0.0
C730 C 0.84386 0.27516 0.53536 0.0
C731 C 0.86419 0.28435 0.53361 0.0
C732 C 0.86564 0.30653 0.52843 0.0
H733 H 0.73005 0.87688 0.53614 0.0
H734 H 0.78685 0.83923 0.53763 0.0
H735 H 0.76526 0.80709 0.52864 0.0
H736 H 0.69883 0.83988 0.62329 0.0
H737 H 0.67471 0.84533 0.58525 0.0
H738 H 0.69464 0.8653 0.59142 0.0
H739 H 0.69522 0.86915 0.48063 0.0
H740 H 0.67547 0.84902 0.47408 0.0
H741 H 0.70017 0.84643 0.43662 0.0
H742 H 0.73723 0.77892 0.51033 0.0
H743 H 0.70537 0.75681 0.50187 0.0
H744 H 0.66616 0.81185 0.52304 0.0
C745 C 0.73795 0.86184 0.53533 0.0
C746 C 0.76032 0.86073 0.5377 0.0
C747 C 0.76986 0.84065 0.53651 0.0
C748 C 0.75767 0.82225 0.53089 0.0
C749 C 0.73574 0.82393 0.5277 0.0
C750 C 0.72593 0.8432 0.53141 0.0
C751 C 0.70205 0.84055 0.52941 0.0
C752 C 0.69196 0.84822 0.5857 0.0
C753 C 0.69268 0.85197 0.47707 0.0
C754 C 0.69995 0.81684 0.52313 0.0
C755 C 0.71962 0.80761 0.52115 0.0
C756 C 0.72179 0.78603 0.51267 0.0
C757 C 0.70353 0.77356 0.50742 0.0
C758 C 0.68311 0.78241 0.51182 0.0
C759 C 0.68146 0.80447 0.5197 0.0
H760 H 0.99354 0.3186 0.34321 0.0
H761 H 1.00489 0.26454 0.45204 0.0
H762 H 0.04209 0.2652 0.4268 0.0
H763 H 1.02151 0.30282 0.2324 0.0
H764 H 0.0328 0.3276 0.21145 0.0
H765 H 1.00859 0.32706 0.25089 0.0
H766 H 0.02511 0.35096 0.32897 0.0
H767 H 0.04958 0.3514 0.2896 0.0
H768 H 0.04924 0.34316 0.36378 0.0
H769 H 0.07365 0.26456 0.37104 0.0
H770 H 0.09685 0.26252 0.28918 0.0
H771 H 0.06945 0.31956 0.21958 0.0
C772 C 1.00409 0.30737 0.36294 0.0
C773 C 0.99623 0.29133 0.39865 0.0
C774 C 1.01031 0.27673 0.4235 0.0
C775 C 0.03169 0.2772 0.41024 0.0
C776 C 0.03888 0.29257 0.37272 0.0
C777 C 0.0256 0.30761 0.34979 0.0
C778 C 0.03658 0.32004 0.30313 0.0
C779 C 1.02414 0.3193 0.24615 0.0
C780 C 0.04035 0.34274 0.32256 0.0
C781 C 0.05715 0.30808 0.29932 0.0
C782 C 0.05841 0.2928 0.34132 0.0
C783 C 0.07355 0.27708 0.33962 0.0
C784 C 0.08704 0.27618 0.29234 0.0
C785 C 0.08574 0.29128 0.24775 0.0
C786 C 0.0713 0.30804 0.2534 0.0
H787 H 0.71812 0.97467 0.31867 0.0
H788 H 0.74141 0.99938 0.47973 0.0
H789 H 0.73849 0.03539 0.44185 0.0
H790 H 0.74639 1.0038 0.23335 0.0
H791 H 0.72734 1.00869 0.1774 0.0
H792 H 0.72485 0.98585 0.22177 0.0
H793 H 0.6871 0.99692 0.25103 0.0
H794 H 0.68934 1.01982 0.20588 0.0
H795 H 0.68263 0.02261 0.28082 0.0
H796 H 0.74235 0.06637 0.38014 0.0
H797 H 0.75061 0.09054 0.30012 0.0
H798 H 0.72374 0.04644 0.17902 0.0
C799 C 0.72152 0.98784 0.34653 0.0
C800 C 0.72984 0.98462 0.40177 0.0
C801 C 0.73491 1.00184 0.43721 0.0
C802 C 0.73315 0.02229 0.41619 0.0
C803 C 0.72597 0.02508 0.36009 0.0
C804 C 0.71978 1.00835 0.32603 0.0
C805 C 0.71584 1.01519 0.26468 0.0
C806 C 0.72943 1.00265 0.22186 0.0
C807 C 0.69233 1.01354 0.24974 0.0
C808 C 0.72271 0.03782 0.26839 0.0
C809 C 0.72794 0.0434 0.32408 0.0
C810 C 0.73766 0.06246 0.3367 0.0
C811 C 0.74253 0.07596 0.2911 0.0
C812 C 0.73777 0.07016 0.23394 0.0
C813 C 0.72709 0.05129 0.22274 0.0
H814 H 0.05247 0.72664 0.382 0.0
H815 H 0.09648 0.7529 0.2594 0.0
H816 H 0.06857 0.75374 0.18553 0.0
H817 H 1.01807 0.69672 0.27188 0.0
H818 H 0.99471 0.70327 0.312 0.0
H819 H 1.01925 0.69888 0.34914 0.0
H820 H 1.01568 0.7353 0.39712 0.0
H821 H 0.99156 0.74015 0.35913 0.0
H822 H 1.01318 0.75829 0.35247 0.0
H823 H 0.03538 0.75989 0.13507 0.0
H824 H 0.99896 0.76769 0.10621 0.0
H825 H 0.9757 0.73763 0.26085 0.0
C826 C 0.05637 0.73144 0.33859 0.0
C827 C 0.07641 0.73954 0.32558 0.0
C828 C 0.08109 0.74653 0.26941 0.0
C829 C 0.0654 0.74699 0.22736 0.0
C830 C 0.04529 0.74022 0.24243 0.0
C831 C 0.04078 0.73215 0.29634 0.0
C832 C 1.01733 0.72898 0.30434 0.0
C833 C 1.01203 0.70557 0.30963 0.0
C834 C 1.00897 0.74143 0.35631 0.0
C835 C 1.00933 0.73791 0.24823 0.0
C836 C 0.02575 0.74394 0.21281 0.0
C837 C 1.02238 0.75477 0.16167 0.0
C838 C 1.00169 0.75947 0.14615 0.0
C839 C 0.98471 0.75347 0.18184 0.0
C840 C 0.98853 0.74222 0.23287 0.0
H841 H 0.33275 0.05389 0.33372 0.0
H842 H 0.28923 0.03485 0.46684 0.0
H843 H 0.29385 0.99804 0.4397 0.0
H844 H 0.31351 0.02605 0.23205 0.0
H845 H 0.33731 1.01804 0.19595 0.0
H846 H 0.33735 0.04123 0.23898 0.0
H847 H 0.36824 0.02641 0.29942 0.0
H848 H 0.36817 1.00291 0.2563 0.0
H849 H 0.36574 1.00113 0.3334 0.0
H850 H 0.29319 0.96726 0.38168 0.0
H851 H 0.28622 0.94603 0.2983 0.0
H852 H 0.33242 0.98157 0.20073 0.0
C853 C 0.32501 0.04174 0.3584 0.0
C854 C 0.3105 0.04698 0.40172 0.0
C855 C 0.30016 0.03104 0.43288 0.0
C856 C 0.30301 1.01004 0.41836 0.0
C857 C 0.3164 1.00525 0.37282 0.0
C858 C 0.32753 1.02062 0.34364 0.0
C859 C 0.33722 1.01197 0.28913 0.0
C860 C 0.33093 0.02508 0.23597 0.0
C861 C 0.36127 1.01052 0.29494 0.0
C862 C 0.32738 0.99033 0.28842 0.0
C863 C 0.31633 0.98643 0.33849 0.0
C864 C 0.30244 0.96965 0.34314 0.0
C865 C 0.29853 0.95745 0.29447 0.0
C866 C 0.30869 0.96186 0.24158 0.0
C867 C 0.32442 0.97757 0.24034 0.0
H868 H 0.06084 0.82489 0.69523 0.0
H869 H 0.05936 0.75955 0.64474 0.0
H870 H 0.03036 0.75326 0.71322 0.0
H871 H 0.04998 0.81609 0.84807 0.0
H872 H 0.03359 0.83894 0.85617 0.0
H873 H 0.0541 0.83861 0.80258 0.0
H874 H 0.02679 0.84743 0.72385 0.0
H875 H 1.00621 0.84779 0.77721 0.0
H876 H 1.00394 0.83096 0.71528 0.0
H877 H 1.00037 0.75371 0.79019 0.0
H878 H 0.97326 0.76102 0.86371 0.0
H879 H 0.99327 0.82586 0.86945 0.0
C880 C 0.05453 0.80919 0.69846 0.0
C881 C 0.06281 0.79279 0.66247 0.0
C882 C 0.0535 0.77266 0.66943 0.0
C883 C 0.03691 0.76885 0.7092 0.0
C884 C 0.02917 0.78523 0.7434 0.0
C885 C 0.03769 0.80508 0.73835 0.0
C886 C 0.02631 0.81995 0.78034 0.0
C887 C 0.04193 0.82894 0.8244 0.0
C888 C 1.01516 0.83758 0.74719 0.0
C889 C 1.01018 0.80545 0.80985 0.0
C890 C 1.01218 0.78544 0.78779 0.0
C891 C 0.99899 0.76935 0.80776 0.0
C892 C 0.9836 0.77362 0.85062 0.0
C893 C 0.98098 0.7939 0.87489 0.0
C894 C 0.99466 0.81004 0.85314 0.0
H895 H 0.22042 0.97942 0.83473 0.0
H896 H 0.27903 0.99405 0.92156 0.0
H897 H 0.28409 0.02428 0.85753 0.0
H898 H 0.23915 0.99325 0.69002 0.0
H899 H 0.21447 1.00433 0.66672 0.0
H900 H 0.21477 0.984 0.72059 0.0
H901 H 0.19395 1.00793 0.78965 0.0
H902 H 0.19366 0.02837 0.73606 0.0
H903 H 0.20408 0.03358 0.80675 0.0
H904 H 0.28349 0.05395 0.78176 0.0
H905 H 0.27757 0.0788 0.70158 0.0
H906 H 0.22005 0.04613 0.65738 0.0
C907 C 0.23439 0.9889 0.84046 0.0
C908 C 0.24906 0.98399 0.8858 0.0
C909 C 0.26698 0.99729 0.89 0.0
C910 C 0.27018 1.01464 0.85275 0.0
C911 C 0.25548 1.0191 0.80954 0.0
C912 C 0.23792 1.00653 0.8029 0.0
C913 C 0.22477 1.01481 0.75187 0.0
C914 C 0.22319 0.9981 0.70449 0.0
C915 C 0.2028 1.02157 0.7723 0.0
C916 C 0.23763 0.03388 0.73103 0.0
C917 C 0.2553 0.03599 0.76529 0.0
C918 C 0.26967 0.05226 0.75494 0.0
C919 C 0.26616 0.06648 0.70888 0.0
C920 C 0.24839 0.06486 0.67206 0.0
C921 C 0.23383 0.04817 0.6842 0.0
H922 H 0.99119 0.21474 0.67899 0.0
H923 H 0.97169 0.27958 0.69222 0.0
H924 H 0.99893 0.28561 0.76636 0.0
H925 H 1.00236 0.2076 0.83354 0.0
H926 H 0.02491 0.19097 0.82222 0.0
H927 H 1.00395 0.19156 0.7699 0.0
H928 H 0.03076 0.20099 0.69048 0.0
H929 H 0.05178 0.20052 0.7426 0.0
H930 H 0.04747 0.2236 0.69944 0.0
H931 H 0.0297 0.2851 0.84042 0.0
H932 H 0.05965 0.27801 0.90537 0.0
H933 H 0.05937 0.21299 0.8515 0.0
C934 C 0.9926 0.23024 0.69747 0.0
C935 C 0.97913 0.24682 0.67752 0.0
C936 C 0.98181 0.26666 0.70438 0.0
C937 C 0.99733 0.27022 0.74733 0.0
C938 C 1.0105 0.2538 0.76503 0.0
C939 C 1.00821 0.23409 0.74112 0.0
C940 C 0.02445 0.21916 0.76851 0.0
C941 C 1.01325 0.20125 0.80043 0.0
C942 C 0.0395 0.21055 0.72251 0.0
C943 C 0.03627 0.23348 0.81103 0.0
C944 C 0.02788 0.25343 0.80817 0.0
C945 C 0.03618 0.26944 0.84272 0.0
C946 C 0.05332 0.26518 0.88031 0.0
C947 C 0.06264 0.24497 0.88464 0.0
C948 C 0.05348 0.22886 0.8492 0.0
H949 H 0.8242 0.05835 0.84875 0.0
H950 H 0.7626 0.04806 0.92381 0.0
H951 H 0.75671 1.0187 0.85678 0.0
H952 H 0.80908 0.04642 0.70028 0.0
H953 H 0.83336 0.03332 0.68255 0.0
H954 H 0.83309 0.05349 0.73682 0.0
H955 H 0.8495 0.02772 0.80984 0.0
H956 H 0.84978 1.00747 0.75582 0.0
H957 H 0.83673 1.00298 0.82355 0.0
H958 H 0.75668 0.98996 0.77734 0.0
H959 H 0.76304 0.96501 0.69776 0.0
H960 H 0.82487 0.99194 0.67145 0.0
C961 C 0.8094 0.05 0.85125 0.0
C962 C 0.79398 0.05597 0.89359 0.0
C963 C 0.77503 0.04407 0.89399 0.0
C964 C 0.77142 0.02724 0.85516 0.0
C965 C 0.78683 0.02181 0.81462 0.0
C966 C 0.80555 0.03283 0.81251 0.0
C967 C 0.81953 0.02358 0.76459 0.0
C968 C 0.82404 0.0402 0.71832 0.0
C969 C 0.84011 1.01493 0.78997 0.0
C970 C 0.80583 1.00573 0.74008 0.0
C971 C 0.78694 1.00516 0.7696 0.0
C972 C 0.7715 0.99043 0.75441 0.0
C973 C 0.77525 0.97617 0.7086 0.0
C974 C 0.7944 0.97609 0.67702 0.0
C975 C 0.80999 0.99122 0.69405 0.0
H976 H 0.57151 0.81552 0.75162 0.0
H977 H 0.54468 0.7944 0.59062 0.0
H978 H 0.50886 0.79907 0.62993 0.0
H979 H 0.53928 0.78825 0.83768 0.0
H980 H 0.5365 0.80745 0.89401 0.0
H981 H 0.55954 0.80759 0.84937 0.0
H982 H 0.5524 0.84627 0.82144 0.0
H983 H 0.52928 0.8463 0.86644 0.0
H984 H 0.52722 0.85348 0.79164 0.0
H985 H 0.47736 0.79879 0.69119 0.0
H986 H 0.45199 0.79395 0.77071 0.0
H987 H 0.49873 0.81582 0.8924 0.0
C988 C 0.55798 0.81271 0.72432 0.0
C989 C 0.56049 0.80479 0.6684 0.0
C990 C 0.54275 0.8006 0.63365 0.0
C991 C 0.52245 0.80335 0.65545 0.0
C992 C 0.52032 0.81049 0.71176 0.0
C993 C 0.53759 0.81534 0.74564 0.0
C994 C 0.53115 0.81979 0.80704 0.0
C995 C 0.54227 0.80487 0.84946 0.0
C996 C 0.53525 0.84284 0.82253 0.0
C997 C 0.50781 0.81531 0.8032 0.0
C998 C 0.50181 0.81044 0.74758 0.0
C999 C 0.48167 0.80313 0.73461 0.0
C1000 C 0.46746 0.80027 0.77988 0.0
C1001 C 0.47359 0.80463 0.83703 0.0
C1002 C 0.49368 0.81288 0.84862 0.0
H1003 H 0.23115 0.4981 0.89041 0.0
H1004 H 0.24794 0.45271 0.75995 0.0
H1005 H 0.24263 0.47957 0.68428 0.0
H1006 H 0.19286 0.52998 0.80312 0.0
H1007 H 0.2024 0.5541 0.83388 0.0
H1008 H 0.2027 0.53034 0.87587 0.0
H1009 H 0.2427 0.53511 0.89407 0.0
H1010 H 0.24254 0.55877 0.85215 0.0
H1011 H 0.26024 0.53777 0.83352 0.0
H1012 H 0.23997 0.51182 0.62547 0.0
H1013 H 0.24325 0.54792 0.58785 0.0
H1014 H 0.23079 0.57283 0.7576 0.0
C1015 C 0.23293 0.49375 0.84564 0.0
C1016 C 0.23951 0.47349 0.83017 0.0
C1017 C 0.24263 0.46825 0.77184 0.0
C1018 C 0.23952 0.48331 0.72886 0.0
C1019 C 0.23348 0.50342 0.74547 0.0
C1020 C 0.23034 0.5087 0.80254 0.0
C1021 C 0.22725 0.53204 0.80996 0.0
C1022 C 0.20497 0.53689 0.832 0.0
C1023 C 0.24419 0.54146 0.84974 0.0
C1024 C 0.23001 0.53918 0.74849 0.0
C1025 C 0.23295 0.52237 0.71174 0.0
C1026 C 0.23733 0.52508 0.65354 0.0
C1027 C 0.23922 0.54553 0.63262 0.0
C1028 C 0.23708 0.56279 0.67016 0.0
C1029 C 0.23206 0.55969 0.72834 0.0
H1030 H 0.57882 0.27528 0.79943 0.0
H1031 H 0.58272 0.21007 0.85072 0.0
H1032 H 0.55444 0.20141 0.78193 0.0
H1033 H 0.52846 0.27964 0.79639 0.0
H1034 H 0.52543 0.29604 0.73377 0.0
H1035 H 0.54957 0.29666 0.77376 0.0
H1036 H 0.57114 0.28716 0.68301 0.0
H1037 H 0.54713 0.28736 0.64157 0.0
H1038 H 0.56389 0.26458 0.64089 0.0
H1039 H 0.52079 0.20168 0.72702 0.0
H1040 H 0.48657 0.21031 0.68203 0.0
H1041 H 0.50694 0.27472 0.66078 0.0
C1042 C 0.57495 0.25895 0.79344 0.0
C1043 C 0.58337 0.24328 0.8294 0.0
C1044 C 0.57662 0.22227 0.8229 0.0
C1045 C 0.56064 0.2172 0.78385 0.0
C1046 C 0.55194 0.23327 0.75099 0.0
C1047 C 0.55929 0.25364 0.75417 0.0
C1048 C 0.54561 0.26854 0.72021 0.0
C1049 C 0.53676 0.28623 0.75835 0.0
C1050 C 0.55766 0.27743 0.66832 0.0
C1051 C 0.52852 0.25368 0.70133 0.0
C1052 C 0.53255 0.23334 0.71861 0.0
C1053 C 0.51774 0.21742 0.71183 0.0
C1054 C 0.49832 0.22249 0.6868 0.0
C1055 C 0.49392 0.24331 0.6697 0.0
C1056 C 0.50949 0.25886 0.67546 0.0
H1057 H 0.78595 0.54372 0.89378 0.0
H1058 H 0.82976 0.58525 0.80741 0.0
H1059 H 0.83978 0.5565 0.7413 0.0
H1060 H 0.81767 0.49581 0.88041 0.0
H1061 H 0.79481 0.47961 0.86873 0.0
H1062 H 0.79282 0.50283 0.91248 0.0
H1063 H 0.76256 0.51662 0.84767 0.0
H1064 H 0.76439 0.49343 0.80405 0.0
H1065 H 0.76677 0.51892 0.77123 0.0
H1066 H 0.8418 0.52452 0.67856 0.0
H1067 H 0.83529 0.49198 0.62345 0.0
H1068 H 0.79155 0.47121 0.75484 0.0
C1069 C 0.79755 0.54677 0.86074 0.0
C1070 C 0.80679 0.56666 0.85445 0.0
C1071 C 0.82246 0.57001 0.81224 0.0
C1072 C 0.82828 0.55381 0.77485 0.0
C1073 C 0.81856 0.53439 0.78144 0.0
C1074 C 0.80364 0.53079 0.82365 0.0
C1075 C 0.79467 0.50895 0.8199 0.0
C1076 C 0.80034 0.49604 0.87357 0.0
C1077 C 0.77068 0.50953 0.81011 0.0
C1078 C 0.80619 0.5011 0.76746 0.0
C1079 C 0.8201 0.51586 0.74621 0.0
C1080 C 0.83121 0.5127 0.69525 0.0
C1081 C 0.82746 0.49422 0.66437 0.0
C1082 C 0.81262 0.47942 0.68455 0.0
C1083 C 0.80259 0.48254 0.7378 0.0
H1084 H 0.56898 0.27475 0.22342 0.0
H1085 H 0.55471 0.3308 0.12594 0.0
H1086 H 0.52378 0.33726 0.18833 0.0
H1087 H 0.51336 0.25889 0.24614 0.0
H1088 H 0.51771 0.24903 0.31784 0.0
H1089 H 0.5388 0.24865 0.26596 0.0
H1090 H 0.5623 0.26954 0.33611 0.0
H1091 H 0.54123 0.27012 0.38806 0.0
H1092 H 0.55309 0.29424 0.36401 0.0
H1093 H 0.49469 0.33896 0.2661 0.0
H1094 H 0.46905 0.33442 0.34413 0.0
H1095 H 0.49861 0.27557 0.39099 0.0
C1096 C 0.5592 0.28827 0.21473 0.0
C1097 C 0.56457 0.30219 0.16828 0.0
C1098 C 0.55118 0.31973 0.15992 0.0
C1099 C 0.53348 0.32358 0.19575 0.0
C1100 C 0.52867 0.30974 0.24085 0.0
C1101 C 0.54102 0.29222 0.2501 0.0
C1102 C 0.53192 0.2797 0.30127 0.0
C1103 C 0.52504 0.25776 0.28164 0.0
C1104 C 0.54811 0.27831 0.35027 0.0
C1105 C 0.51272 0.29291 0.3196 0.0
C1106 C 0.51137 0.31026 0.28412 0.0
C1107 C 0.49554 0.32515 0.29304 0.0
C1108 C 0.48065 0.32225 0.33785 0.0
C1109 C 0.48075 0.30434 0.37449 0.0
C1110 C 0.49753 0.28955 0.36482 0.0
H1111 H 0.77583 0.55613 0.19425 0.0
H1112 H 0.70892 0.56104 0.16041 0.0
H1113 H 0.70214 0.53251 0.22959 0.0
H1114 H 0.77658 0.49814 0.21175 0.0
H1115 H 0.79567 0.49833 0.26913 0.0
H1116 H 0.79574 0.51893 0.21599 0.0
H1117 H 0.79272 0.54652 0.29671 0.0
H1118 H 0.7925 0.52599 0.35006 0.0
H1119 H 0.77136 0.54481 0.34754 0.0
H1120 H 0.70182 0.50371 0.30657 0.0
H1121 H 0.70802 0.47654 0.37973 0.0
H1122 H 0.77528 0.48722 0.36679 0.0
C1123 C 0.75976 0.55101 0.20066 0.0
C1124 C 0.74288 0.56135 0.17045 0.0
C1125 C 0.72221 0.55388 0.18199 0.0
C1126 C 0.71817 0.53751 0.22175 0.0
C1127 C 0.73488 0.528 0.25116 0.0
C1128 C 0.75536 0.53434 0.24093 0.0
C1129 C 0.7703 0.52123 0.27921 0.0
C1130 C 0.78548 0.5084 0.24179 0.0
C1131 C 0.78245 0.53549 0.32084 0.0
C1132 C 0.75508 0.5067 0.31241 0.0
C1133 C 0.73471 0.51107 0.29523 0.0
C1134 C 0.71778 0.50015 0.31954 0.0
C1135 C 0.72154 0.48441 0.36141 0.0
C1136 C 0.74215 0.47893 0.38013 0.0
C1137 C 0.7592 0.49067 0.3548 0.0
H1138 H 0.55846 0.77353 0.35923 0.0
H1139 H 0.56427 0.70678 0.38975 0.0
H1140 H 0.53605 0.7001 0.31925 0.0
H1141 H 0.50058 0.77393 0.33897 0.0
H1142 H 0.50091 0.79315 0.28211 0.0
H1143 H 0.52136 0.79315 0.33593 0.0
H1144 H 0.54948 0.79061 0.25609 0.0
H1145 H 0.5291 0.79047 0.20206 0.0
H1146 H 0.54812 0.76954 0.20462 0.0
H1147 H 0.50663 0.69994 0.2439 0.0
H1148 H 0.47886 0.70629 0.17189 0.0
H1149 H 0.49022 0.77312 0.18355 0.0
C1150 C 0.55362 0.75751 0.35176 0.0
C1151 C 0.56402 0.74066 0.38171 0.0
C1152 C 0.55704 0.72005 0.36848 0.0
C1153 C 0.54081 0.71606 0.32804 0.0
C1154 C 0.53112 0.73276 0.29924 0.0
C1155 C 0.53722 0.75316 0.31044 0.0
C1156 C 0.52413 0.76808 0.27212 0.0
C1157 C 0.51097 0.78297 0.30951 0.0
C1158 C 0.53857 0.78042 0.23131 0.0
C1159 C 0.50979 0.75296 0.23804 0.0
C1160 C 0.51422 0.73265 0.25489 0.0
C1161 C 0.50316 0.71584 0.23076 0.0
C1162 C 0.4872 0.71964 0.18941 0.0
C1163 C 0.48181 0.74018 0.17071 0.0
C1164 C 0.49371 0.75712 0.19563 0.0
H1165 H 0.32599 0.55831 0.35718 0.0
H1166 H 0.2589 0.56504 0.38488 0.0
H1167 H 0.25217 0.53765 0.31197 0.0
H1168 H 0.32346 0.54888 0.20202 0.0
H1169 H 0.34421 0.52962 0.20139 0.0
H1170 H 0.34397 0.5498 0.2556 0.0
H1171 H 0.34511 0.52156 0.33517 0.0
H1172 H 0.34534 0.50129 0.28118 0.0
H1173 H 0.32537 0.50125 0.33623 0.0
H1174 H 0.25239 0.50889 0.23193 0.0
H1175 H 0.2596 0.48161 0.15904 0.0
H1176 H 0.32657 0.49173 0.18088 0.0
C1177 C 0.30984 0.55404 0.34808 0.0
C1178 C 0.29299 0.56414 0.37875 0.0
C1179 C 0.27223 0.55767 0.36412 0.0
C1180 C 0.26822 0.54204 0.32192 0.0
C1181 C 0.28504 0.53238 0.29316 0.0
C1182 C 0.30552 0.53809 0.30595 0.0
C1183 C 0.32074 0.52491 0.2691 0.0
C1184 C 0.33388 0.53915 0.2297 0.0
C1185 C 0.33499 0.51146 0.30772 0.0
C1186 C 0.30574 0.51101 0.23356 0.0
C1187 C 0.28517 0.51573 0.24805 0.0
C1188 C 0.26851 0.50522 0.22079 0.0
C1189 C 0.27279 0.48964 0.17864 0.0
C1190 C 0.29366 0.484 0.16278 0.0
C1191 C 0.31033 0.49518 0.19136 0.0
H1192 H 0.20076 0.16932 0.39628 0.0
H1193 H 0.23211 0.12175 0.29444 0.0
H1194 H 0.21439 0.13535 0.20712 0.0
H1195 H 0.15083 0.16964 0.31756 0.0
H1196 H 0.14729 0.1976 0.32255 0.0
H1197 H 0.16181 0.18384 0.37752 0.0
H1198 H 0.19368 0.20826 0.36111 0.0
H1199 H 0.17927 0.22211 0.30617 0.0
H1200 H 0.2046 0.21084 0.28987 0.0
H1201 H 0.19305 0.15456 0.12875 0.0
H1202 H 0.17194 0.1778 0.06707 0.0
H1203 H 0.15427 0.21453 0.21646 0.0
C1204 C 0.20385 0.16159 0.35571 0.0
C1205 C 0.21801 0.14408 0.3534 0.0
C1206 C 0.22149 0.13493 0.29855 0.0
C1207 C 0.21139 0.14265 0.24832 0.0
C1208 C 0.19768 0.15983 0.25225 0.0
C1209 C 0.19397 0.16929 0.30467 0.0
C1210 C 0.17897 0.18798 0.29658 0.0
C1211 C 0.15851 0.18456 0.33059 0.0
C1212 C 0.18978 0.20851 0.31451 0.0
C1213 C 0.17476 0.18761 0.23152 0.0
C1214 C 0.1857 0.17111 0.20707 0.0
C1215 C 0.18452 0.16747 0.14788 0.0
C1216 C 0.17228 0.18092 0.11284 0.0
C1217 C 0.161 0.19831 0.13567 0.0
C1218 C 0.16233 0.20145 0.19666 0.0
H1219 H 0.82634 0.13987 0.24555 0.0
H1220 H 0.85841 0.16195 0.09218 0.0
H1221 H 0.88165 0.18371 0.1518 0.0
H1222 H 0.82827 0.18907 0.3228 0.0
H1223 H 0.83326 0.17766 0.39245 0.0
H1224 H 0.81926 0.1629 0.33857 0.0
H1225 H 0.84636 0.13289 0.34759 0.0
H1226 H 0.86042 0.14756 0.40162 0.0
H1227 H 0.87397 0.13849 0.33827 0.0
H1228 H 0.9011 0.20526 0.22792 0.0
H1229 H 0.91542 0.22316 0.3138 0.0
H1230 H 0.87264 0.18759 0.42163 0.0
C1231 C 0.83844 0.14902 0.22446 0.0
C1232 C 0.84021 0.14877 0.16295 0.0
C1233 C 0.85632 0.16148 0.1384 0.0
C1234 C 0.86978 0.17408 0.17224 0.0
C1235 C 0.86746 0.17422 0.23195 0.0
C1236 C 0.85229 0.1619 0.25814 0.0
C1237 C 0.85321 0.16537 0.32353 0.0
C1238 C 0.83225 0.17428 0.34564 0.0
C1239 C 0.85882 0.14485 0.3546 0.0
C1240 C 0.87104 0.18154 0.32968 0.0
C1241 C 0.87897 0.18642 0.27605 0.0
C1242 C 0.89504 0.20134 0.27008 0.0
C1243 C 0.90317 0.21153 0.31952 0.0
C1244 C 0.89559 0.20694 0.37559 0.0
C1245 C 0.87922 0.1915 0.38004 0.0
H1246 H 0.84774 0.873 0.40194 0.0
H1247 H 0.8135 0.919 0.3014 0.0
H1248 H 0.83095 0.90589 0.21312 0.0
H1249 H 0.89686 0.87403 0.31963 0.0
H1250 H 0.90133 0.84621 0.32488 0.0
H1251 H 0.88693 0.85962 0.38059 0.0
H1252 H 0.85568 0.83419 0.36688 0.0
H1253 H 0.86999 0.82068 0.31122 0.0
H1254 H 0.84418 0.83111 0.29647 0.0
H1255 H 0.85267 0.8876 0.13379 0.0
H1256 H 0.87408 0.86514 0.07111 0.0
H1257 H 0.8939 0.8288 0.21946 0.0
C1258 C 0.84399 0.88052 0.36146 0.0
C1259 C 0.82912 0.89747 0.35983 0.0
C1260 C 0.8247 0.90627 0.30503 0.0
C1261 C 0.83465 0.89884 0.25424 0.0
C1262 C 0.84907 0.88221 0.25753 0.0
C1263 C 0.85361 0.87301 0.30984 0.0
C1264 C 0.86913 0.85478 0.30097 0.0
C1265 C 0.88979 0.85891 0.33347 0.0
C1266 C 0.85915 0.83395 0.32003 0.0
C1267 C 0.87271 0.85511 0.2356 0.0
C1268 C 0.86105 0.87125 0.21172 0.0
C1269 C 0.86172 0.87495 0.1525 0.0
C1270 C 0.87417 0.86193 0.11685 0.0
C1271 C 0.88612 0.84482 0.13898 0.0
C1272 C 0.88528 0.84161 0.20006 0.0
H1273 H 0.19901 0.86501 0.12908 0.0
H1274 H 0.21172 0.92274 0.22122 0.0
H1275 H 0.19207 0.90923 0.30474 0.0
H1276 H 0.14574 0.85563 0.18839 0.0
H1277 H 0.14907 0.82767 0.19481 0.0
H1278 H 0.16315 0.84196 0.14004 0.0
H1279 H 0.19835 0.82726 0.1784 0.0
H1280 H 0.18437 0.81291 0.2332 0.0
H1281 H 0.20508 0.83082 0.25311 0.0
H1282 H 0.17161 0.88954 0.38082 0.0
H1283 H 0.15342 0.86495 0.44498 0.0
H1284 H 0.15338 0.81801 0.30991 0.0
C1285 C 0.19741 0.87496 0.1665 0.0
C1286 C 0.20699 0.89536 0.16717 0.0
C1287 C 0.20467 0.90733 0.21827 0.0
C1288 C 0.19342 0.8997 0.26643 0.0
C1289 C 0.18439 0.87971 0.26451 0.0
C1290 C 0.18629 0.86738 0.21601 0.0
C1291 C 0.17566 0.84603 0.22712 0.0
C1292 C 0.15732 0.84262 0.18507 0.0
C1293 C 0.19183 0.8282 0.22268 0.0
C1294 C 0.16756 0.84833 0.28922 0.0
C1295 C 0.17278 0.86805 0.30936 0.0
C1296 C 0.16749 0.8741 0.36518 0.0
C1297 C 0.157 0.85983 0.40167 0.0
C1298 C 0.15155 0.8392 0.38371 0.0
C1299 C 0.15686 0.83358 0.32571 0.0
H1300 H 0.8969 0.89139 0.86287 0.0
H1301 H 0.89657 0.82756 0.7991 0.0
H1302 H 0.90355 0.84008 0.70221 0.0
H1303 H 0.86349 0.9075 0.7635 0.0
H1304 H 0.87381 0.93361 0.75386 0.0
H1305 H 0.87831 0.92005 0.82002 0.0
H1306 H 0.91848 0.92581 0.80624 0.0
H1307 H 0.91381 0.93871 0.73833 0.0
H1308 H 0.93121 0.91645 0.74192 0.0
H1309 H 0.903 0.85728 0.61315 0.0
H1310 H 0.88052 0.87516 0.54306 0.0
H1311 H 0.87651 0.92905 0.65464 0.0
C1312 C 0.8989 0.88016 0.82842 0.0
C1313 C 0.89739 0.85849 0.83909 0.0
C1314 C 0.89876 0.84422 0.79272 0.0
C1315 C 0.90302 0.8512 0.7373 0.0
C1316 C 0.90476 0.87265 0.72779 0.0
C1317 C 0.90185 0.88701 0.77176 0.0
C1318 C 0.89763 0.90867 0.74793 0.0
C1319 C 0.87709 0.91795 0.77272 0.0
C1320 C 0.91641 0.92327 0.75928 0.0
C1321 C 0.89588 0.90355 0.68436 0.0
C1322 C 0.90213 0.88311 0.67343 0.0
C1323 C 0.89847 0.87338 0.62067 0.0
C1324 C 0.88574 0.88363 0.58088 0.0
C1325 C 0.87705 0.90327 0.59447 0.0
C1326 C 0.88361 0.91417 0.64381 0.0
H1327 H 0.17211 0.87159 0.62237 0.0
H1328 H 0.10626 0.87462 0.66816 0.0
H1329 H 0.11503 0.89695 0.7517 0.0
H1330 H 0.18952 0.86005 0.74391 0.0
H1331 H 0.21371 0.87485 0.74532 0.0
H1332 H 0.20237 0.86764 0.67787 0.0
H1333 H 0.20118 0.90647 0.64561 0.0
H1334 H 0.21314 0.91395 0.71294 0.0
H1335 H 0.18868 0.92575 0.69077 0.0
H1336 H 0.13164 0.90886 0.84312 0.0
H1337 H 0.15428 0.91085 0.92993 0.0
H1338 H 0.20887 0.89709 0.82489 0.0
C1339 C 0.15954 0.87802 0.64842 0.0
C1340 C 0.1387 0.87159 0.63989 0.0
C1341 C 0.12236 0.87973 0.67436 0.0
C1342 C 0.12723 0.89243 0.72169 0.0
C1343 C 0.14836 0.89703 0.73241 0.0
C1344 C 0.16425 0.89051 0.69555 0.0
C1345 C 0.18577 0.89337 0.72173 0.0
C1346 C 0.19853 0.87275 0.72228 0.0
C1347 C 0.1979 0.91094 0.69093 0.0
C1348 C 0.17945 0.9 0.7813 0.0
C1349 C 0.15798 0.9031 0.78623 0.0
C1350 C 0.14853 0.90711 0.83932 0.0
C1351 C 0.16139 0.90794 0.88837 0.0
C1352 C 0.18321 0.90397 0.88369 0.0
C1353 C 0.19224 0.90026 0.82953 0.0
H1354 H 0.17166 0.13173 0.65589 0.0
H1355 H 0.17347 0.1765 0.51684 0.0
H1356 H 0.1554 0.20251 0.57731 0.0
H1357 H 0.12096 0.15623 0.73561 0.0
H1358 H 0.13348 0.15015 0.80318 0.0
H1359 H 0.13613 0.13251 0.74302 0.0
H1360 H 0.17656 0.13458 0.75449 0.0
H1361 H 0.17433 0.15291 0.8122 0.0
H1362 H 0.18949 0.1597 0.74933 0.0
H1363 H 0.15187 0.22632 0.65844 0.0
H1364 H 0.15596 0.24468 0.75117 0.0
H1365 H 0.15756 0.18475 0.8394 0.0
C1366 C 0.16659 0.14647 0.63737 0.0
C1367 C 0.17342 0.15232 0.58244 0.0
C1368 C 0.16773 0.17185 0.55887 0.0
C1369 C 0.15755 0.1867 0.59305 0.0
C1370 C 0.15315 0.18145 0.65003 0.0
C1371 C 0.15669 0.16143 0.67154 0.0
C1372 C 0.1552 0.16096 0.7364 0.0
C1373 C 0.13525 0.14928 0.75568 0.0
C1374 C 0.17508 0.15152 0.76463 0.0
C1375 C 0.15333 0.18409 0.74812 0.0
C1376 C 0.15134 0.19562 0.69807 0.0
C1377 C 0.1525 0.21745 0.69809 0.0
C1378 C 0.15528 0.22772 0.75073 0.0
C1379 C 0.15714 0.21608 0.80224 0.0
C1380 C 0.15605 0.19405 0.80065 0.0
H1381 H 0.86659 0.16765 0.92082 0.0
H1382 H 0.86931 0.10142 0.88297 0.0
H1383 H 0.89097 0.10877 0.79684 0.0
H1384 H 0.85423 0.18295 0.79674 0.0
H1385 H 0.86907 0.20698 0.7923 0.0
H1386 H 0.86195 0.19674 0.86113 0.0
H1387 H 0.90104 0.19605 0.89301 0.0
H1388 H 0.90842 0.20695 0.8243 0.0
H1389 H 0.92034 0.18295 0.84901 0.0
H1390 H 0.90276 0.12397 0.70288 0.0
H1391 H 0.90569 0.14548 0.61419 0.0
H1392 H 0.89206 0.20117 0.71424 0.0
C1393 C 0.8728 0.15473 0.89585 0.0
C1394 C 0.8665 0.13415 0.90737 0.0
C1395 C 0.87435 0.11733 0.87435 0.0
C1396 C 0.88666 0.12138 0.8256 0.0
C1397 C 0.89117 0.14222 0.8121 0.0
C1398 C 0.88492 0.15861 0.84743 0.0
C1399 C 0.88774 0.17959 0.81887 0.0
C1400 C 0.86702 0.19225 0.81713 0.0
C1401 C 0.90545 0.19211 0.84803 0.0
C1402 C 0.89427 0.17238 0.76004 0.0
C1403 C 0.89713 0.15095 0.75715 0.0
C1404 C 0.90119 0.14084 0.70506 0.0
C1405 C 0.90253 0.15306 0.65494 0.0
C1406 C 0.89903 0.17492 0.65766 0.0
C1407 C 0.89498 0.18452 0.71086 0.0
H1408 H 0.69517 0.67821 0.92906 0.0
H1409 H 0.71802 0.62525 0.83043 0.0
H1410 H 0.69899 0.63846 0.74502 0.0
H1411 H 0.64312 0.68293 0.86016 0.0
H1412 H 0.64314 0.71117 0.85928 0.0
H1413 H 0.65747 0.69725 0.91431 0.0
H1414 H 0.69148 0.71692 0.88617 0.0
H1415 H 0.67725 0.73094 0.83119 0.0
H1416 H 0.70045 0.71616 0.81264 0.0
H1417 H 0.6773 0.65713 0.66891 0.0
H1418 H 0.65761 0.68071 0.6057 0.0
H1419 H 0.64917 0.72436 0.74711 0.0
C1420 C 0.69598 0.66922 0.88967 0.0
C1421 C 0.70814 0.65023 0.88772 0.0
C1422 C 0.70894 0.63954 0.83425 0.0
C1423 C 0.69805 0.647 0.78512 0.0
C1424 C 0.68638 0.6656 0.7885 0.0
C1425 C 0.68542 0.67676 0.83925 0.0
C1426 C 0.67254 0.69696 0.82962 0.0
C1427 C 0.6529 0.69708 0.86816 0.0
C1428 C 0.68625 0.7164 0.84057 0.0
C1429 C 0.66636 0.69538 0.7657 0.0
C1430 C 0.67445 0.67695 0.74352 0.0
C1431 C 0.67106 0.6716 0.68612 0.0
C1432 C 0.65966 0.68534 0.65017 0.0
C1433 C 0.65146 0.70485 0.66995 0.0
C1434 C 0.65481 0.70969 0.7296 0.0
H1435 H 0.31916 0.64978 0.74117 0.0
H1436 H 0.36345 0.65678 0.60018 0.0
H1437 H 0.38719 0.67662 0.66282 0.0
H1438 H 0.32751 0.70108 0.8033 0.0
H1439 H 0.32631 0.69274 0.87733 0.0
H1440 H 0.31245 0.67819 0.82272 0.0
H1441 H 0.33187 0.6444 0.85324 0.0
H1442 H 0.34572 0.65885 0.90813 0.0
H1443 H 0.36024 0.64415 0.85519 0.0
H1444 H 0.40603 0.69841 0.73843 0.0
H1445 H 0.41925 0.71768 0.82325 0.0
H1446 H 0.36527 0.69635 0.92143 0.0
C1447 C 0.334 0.65514 0.72367 0.0
C1448 C 0.33901 0.65132 0.66436 0.0
C1449 C 0.35872 0.65917 0.64445 0.0
C1450 C 0.37254 0.67065 0.68006 0.0
C1451 C 0.36703 0.67448 0.73716 0.0
C1452 C 0.34837 0.66675 0.7594 0.0
C1453 C 0.3466 0.6734 0.82286 0.0
C1454 C 0.32705 0.68717 0.83209 0.0
C1455 C 0.34607 0.65404 0.86219 0.0
C1456 C 0.36696 0.68609 0.8322 0.0
C1457 C 0.37838 0.68656 0.78174 0.0
C1458 C 0.39725 0.69789 0.77829 0.0
C1459 C 0.40471 0.70891 0.82709 0.0
C1460 C 0.39372 0.70863 0.88025 0.0
C1461 C 0.37446 0.69683 0.88225 0.0
H1462 H 0.35426 0.36978 0.9256 0.0
H1463 H 0.3228 0.41569 0.81804 0.0
H1464 H 0.34067 0.40112 0.73274 0.0
H1465 H 0.40451 0.3683 0.84561 0.0
H1466 H 0.40802 0.3404 0.85309 0.0
H1467 H 0.3937 0.35482 0.90706 0.0
H1468 H 0.36174 0.33029 0.89356 0.0
H1469 H 0.37597 0.31579 0.8396 0.0
H1470 H 0.35062 0.32691 0.8228 0.0
H1471 H 0.36154 0.38142 0.65704 0.0
H1472 H 0.38211 0.35768 0.5964 0.0
H1473 H 0.40072 0.32213 0.74747 0.0
C1474 C 0.35131 0.37699 0.88421 0.0
C1475 C 0.33698 0.39437 0.87978 0.0
C1476 C 0.33354 0.40269 0.82387 0.0
C1477 C 0.34374 0.39441 0.77469 0.0
C1478 C 0.35751 0.3774 0.78051 0.0
C1479 C 0.36129 0.36863 0.83383 0.0
C1480 C 0.37629 0.34979 0.82692 0.0
C1481 C 0.39685 0.35355 0.86017 0.0
C1482 C 0.36551 0.32949 0.84693 0.0
C1483 C 0.38035 0.34934 0.76159 0.0
C1484 C 0.36933 0.36561 0.73621 0.0
C1485 C 0.37015 0.36868 0.67683 0.0
C1486 C 0.38206 0.35487 0.64236 0.0
C1487 C 0.39345 0.33761 0.66575 0.0
C1488 C 0.3926 0.33508 0.72716 0.0
H1489 H 0.69649 0.37308 0.6477 0.0
H1490 H 0.73409 0.41631 0.74846 0.0
H1491 H 0.71797 0.40225 0.83751 0.0
H1492 H 0.64903 0.37457 0.73741 0.0
H1493 H 0.64335 0.34705 0.72936 0.0
H1494 H 0.65714 0.36093 0.67326 0.0
H1495 H 0.68756 0.33415 0.6789 0.0
H1496 H 0.67387 0.32019 0.73498 0.0
H1497 H 0.70034 0.32941 0.74695 0.0
H1498 H 0.69766 0.38293 0.91775 0.0
H1499 H 0.67672 0.36 0.98069 0.0
H1500 H 0.6521 0.32764 0.83094 0.0
C1501 C 0.70124 0.37981 0.6884 0.0
C1502 C 0.7167 0.39623 0.6899 0.0
C1503 C 0.72241 0.40402 0.74496 0.0
C1504 C 0.71324 0.39603 0.79618 0.0
C1505 C 0.69824 0.37991 0.79302 0.0
C1506 C 0.69233 0.37181 0.74039 0.0
C1507 C 0.67631 0.35401 0.74929 0.0
C1508 C 0.6552 0.35946 0.72061 0.0
C1509 C 0.68504 0.3332 0.72614 0.0
C1510 C 0.67407 0.35332 0.81504 0.0
C1511 C 0.68685 0.36853 0.83917 0.0
C1512 C 0.68768 0.37103 0.89885 0.0
C1513 C 0.67553 0.35776 0.93464 0.0
C1514 C 0.66235 0.34168 0.91205 0.0
C1515 C 0.66169 0.33968 0.85063 0.0
H1516 H 0.39221 0.39947 0.16922 0.0
H1517 H 0.3273 0.39744 0.22646 0.0
H1518 H 0.3384 0.40141 0.32534 0.0
H1519 H 0.40577 0.36236 0.25938 0.0
H1520 H 0.43208 0.37113 0.27608 0.0
H1521 H 0.42003 0.37889 0.20989 0.0
H1522 H 0.42663 0.4178 0.23682 0.0
H1523 H 0.43819 0.40987 0.30434 0.0
H1524 H 0.41646 0.42803 0.3035 0.0
H1525 H 0.35385 0.39701 0.41486 0.0
H1526 H 0.36999 0.37163 0.48055 0.0
H1527 H 0.42606 0.37029 0.37548 0.0
C1528 C 0.38049 0.40055 0.2029 0.0
C1529 C 0.35888 0.3996 0.18977 0.0
C1530 C 0.34392 0.39953 0.23481 0.0
C1531 C 0.3501 0.40199 0.29157 0.0
C1532 C 0.37149 0.40296 0.30378 0.0
C1533 C 0.38656 0.40134 0.26084 0.0
C1534 C 0.40773 0.39538 0.2859 0.0
C1535 C 0.41689 0.37577 0.25611 0.0
C1536 C 0.42316 0.41388 0.28244 0.0
C1537 C 0.40137 0.39118 0.34778 0.0
C1538 C 0.38089 0.39769 0.35808 0.0
C1539 C 0.36998 0.3922 0.40794 0.0
C1540 C 0.37915 0.37774 0.44495 0.0
C1541 C 0.399 0.36933 0.43191 0.0
C1542 C 0.41096 0.37716 0.38582 0.0
H1543 H 0.67061 0.37007 0.45833 0.0
H1544 H 0.66514 0.436 0.41933 0.0
H1545 H 0.64334 0.4277 0.33455 0.0
H1546 H 0.68469 0.35548 0.34017 0.0
H1547 H 0.67117 0.33082 0.33183 0.0
H1548 H 0.67595 0.34084 0.40221 0.0
H1549 H 0.63623 0.33966 0.42649 0.0
H1550 H 0.63117 0.32881 0.35617 0.0
H1551 H 0.61747 0.35205 0.37924 0.0
H1552 H 0.63454 0.41252 0.23959 0.0
H1553 H 0.63643 0.39192 0.14935 0.0
H1554 H 0.65152 0.33642 0.24857 0.0
C1555 C 0.66354 0.38267 0.43375 0.0
C1556 C 0.66949 0.40346 0.44398 0.0
C1557 C 0.66051 0.4199 0.41166 0.0
C1558 C 0.64811 0.41529 0.36349 0.0
C1559 C 0.64464 0.39427 0.34978 0.0
C1560 C 0.65152 0.37815 0.38538 0.0
C1561 C 0.65055 0.35717 0.35564 0.0
C1562 C 0.67185 0.34546 0.35753 0.0
C1563 C 0.63279 0.34363 0.38088 0.0
C1564 C 0.64512 0.36434 0.29583 0.0
C1565 C 0.64054 0.38549 0.29354 0.0
C1566 C 0.63739 0.39581 0.24121 0.0
C1567 C 0.63883 0.38413 0.19023 0.0
C1568 C 0.64422 0.36266 0.19235 0.0
C1569 C 0.64723 0.35278 0.24575 0.0
H1570 H 0.6522 0.64736 0.16953 0.0
H1571 H 0.7161 0.65202 0.23396 0.0
H1572 H 0.70408 0.64393 0.33037 0.0
H1573 H 0.63542 0.68062 0.2702 0.0
H1574 H 0.60946 0.66969 0.27996 0.0
H1575 H 0.62309 0.66571 0.21356 0.0
H1576 H 0.61822 0.62559 0.2269 0.0
H1577 H 0.60536 0.62975 0.29514 0.0
H1578 H 0.62812 0.61298 0.29083 0.0
H1579 H 0.68712 0.64119 0.41918 0.0
H1580 H 0.66927 0.66323 0.49004 0.0
H1581 H 0.61486 0.66751 0.37923 0.0
C1582 C 0.66358 0.64611 0.20407 0.0
C1583 C 0.68526 0.64862 0.1934 0.0
C1584 C 0.69955 0.64864 0.24008 0.0
C1585 C 0.69288 0.64374 0.29529 0.0
C1586 C 0.67152 0.6405 0.30467 0.0
C1587 C 0.6569 0.64298 0.2609 0.0
C1588 C 0.63511 0.6466 0.28523 0.0
C1589 C 0.62523 0.66686 0.26087 0.0
C1590 C 0.62087 0.62759 0.27385 0.0
C1591 C 0.64041 0.6483 0.3488 0.0
C1592 C 0.66105 0.64232 0.35921 0.0
C1593 C 0.67091 0.64569 0.41199 0.0
C1594 C 0.66069 0.65817 0.45218 0.0
C1595 C 0.641 0.66694 0.43882 0.0
C1596 C 0.62987 0.66047 0.38966 0.0
H1597 H 0.3751 0.66859 0.42913 0.0
H1598 H 0.37465 0.60277 0.38637 0.0
H1599 H 0.39526 0.61011 0.29852 0.0
H1600 H 0.35968 0.68467 0.31154 0.0
H1601 H 0.37462 0.70852 0.30349 0.0
H1602 H 0.36995 0.6982 0.37367 0.0
H1603 H 0.40996 0.69677 0.39476 0.0
H1604 H 0.41493 0.70786 0.32466 0.0
H1605 H 0.42738 0.68363 0.34533 0.0
H1606 H 0.40511 0.62565 0.20331 0.0
H1607 H 0.40531 0.64755 0.1149 0.0
H1608 H 0.39366 0.70257 0.21932 0.0
C1609 C 0.38059 0.6557 0.40281 0.0
C1610 C 0.37341 0.63533 0.41322 0.0
C1611 C 0.38029 0.61854 0.37856 0.0
C1612 C 0.392 0.6226 0.32869 0.0
C1613 C 0.39682 0.6434 0.31555 0.0
C1614 C 0.3918 0.65968 0.3528 0.0
C1615 C 0.39379 0.68077 0.3242 0.0
C1616 C 0.37329 0.69374 0.32843 0.0
C1617 C 0.41264 0.69297 0.34869 0.0
C1618 C 0.39808 0.67376 0.26368 0.0
C1619 C 0.40101 0.65237 0.25957 0.0
C1620 C 0.40345 0.64249 0.20636 0.0
C1621 C 0.4032 0.65493 0.15644 0.0
C1622 C 0.39954 0.67673 0.16055 0.0
C1623 C 0.39684 0.68602 0.21479 0.0
loop_
_geom_bond_atom_site_label_1
_geom_bond_atom_site_label_2
_geom_bond_distance
_geom_bond_site_symmetry_2
_ccdc_geom_bond_type
Co0 O3 1.970 1_556 S
Co0 N17 1.989 . S
Co0 O25 1.967 . S
Co0 O32 1.920 . S
Co1 O4 1.966 . S
Co1 N10 2.022 . S
Co1 N18 1.993 1_554 S
Co1 O26 1.941 . S
C2 O3 1.258 . S
C2 O4 1.263 . S
O3 Co0 1.970 1_554 S
O3 C2 1.258 . S
O4 Co1 1.966 . S
O4 C2 1.263 . S
C5 O6 1.235 . S
C5 O32 1.289 . S
O6 C5 1.235 . S
C7 C9 1.400 . S
C7 N10 1.351 . S
C7 C12 1.501 . S
C8 C9 1.387 . S
C8 N11 1.341 . S
C9 C7 1.400 . S
C9 C8 1.387 . S
N10 Co1 2.022 . S
N10 C7 1.351 . S
N10 N11 1.365 . S
N11 C8 1.341 . S
N11 N10 1.365 . S
N11 H31 0.862 . S
C12 C7 1.501 . S
C12 H13 0.961 . S
C12 H14 0.961 . S
C12 H15 0.960 . S
H13 C12 0.961 . S
H14 C12 0.961 . S
H15 C12 0.960 . S
C16 N17 1.342 . S
C16 C20 1.401 . S
C16 C21 1.499 . S
N17 Co0 1.989 . S
N17 C16 1.342 . S
N17 N18 1.388 . S
N18 Co1 1.993 1_556 S
N18 N17 1.388 . S
N18 C19 1.346 . S
C19 N18 1.346 . S
C19 C20 1.396 . S
C19 C29 1.510 . S
C20 C16 1.401 . S
C20 C19 1.396 . S
C21 C16 1.499 . S
C21 H22 0.959 . S
C21 H23 0.960 . S
C21 H24 0.961 . S
H22 C21 0.959 . S
H23 C21 0.960 . S
H24 C21 0.961 . S
O25 Co0 1.967 . S
O25 C33 1.258 1_556 S
O26 Co1 1.941 . S
O26 C33 1.266 . S
H27 C29 0.959 . S
H28 C29 0.961 . S
C29 C19 1.510 . S
C29 H27 0.959 . S
C29 H28 0.961 . S
C29 H30 0.960 1_556 S
H30 C29 0.960 1_554 S
H31 N11 0.862 . S
O32 Co0 1.920 . S
O32 C5 1.289 . S
C33 O25 1.258 1_554 S
C33 O26 1.266 . S
Co34 O37 1.970 1_556 S
Co34 N51 1.989 . S
Co34 O59 1.967 . S
Co34 O66 1.920 . S
Co35 O38 1.966 . S
Co35 N44 2.022 . S
Co35 N52 1.993 1_554 S
Co35 O60 1.941 . S
C36 O37 1.258 . S
C36 O38 1.263 . S
O37 Co34 1.970 1_554 S
O37 C36 1.258 . S
O38 Co35 1.966 . S
O38 C36 1.263 . S
C39 O40 1.235 . S
C39 O66 1.289 . S
O40 C39 1.235 . S
C41 C43 1.400 . S
C41 N44 1.351 . S
C41 C46 1.501 . S
C42 C43 1.387 . S
C42 N45 1.341 . S
C43 C41 1.400 . S
C43 C42 1.387 . S
N44 Co35 2.022 . S
N44 C41 1.351 . S
N44 N45 1.365 . S
N45 C42 1.341 . S
N45 N44 1.365 . S
N45 H65 0.862 . S
C46 C41 1.501 . S
C46 H47 0.961 . S
C46 H48 0.961 . S
C46 H49 0.960 . S
H47 C46 0.961 . S
H48 C46 0.961 . S
H49 C46 0.960 . S
C50 N51 1.342 . S
C50 C54 1.401 . S
C50 C55 1.499 . S
N51 Co34 1.989 . S
N51 C50 1.342 . S
N51 N52 1.388 . S
N52 Co35 1.993 1_556 S
N52 N51 1.388 . S
N52 C53 1.346 . S
C53 N52 1.346 . S
C53 C54 1.396 . S
C53 C63 1.510 . S
C54 C50 1.401 . S
C54 C53 1.396 . S
C55 C50 1.499 . S
C55 H56 0.959 . S
C55 H57 0.960 . S
C55 H58 0.961 . S
H56 C55 0.959 . S
H57 C55 0.960 . S
H58 C55 0.961 . S
O59 Co34 1.967 . S
O59 C67 1.258 1_556 S
O60 Co35 1.941 . S
O60 C67 1.266 . S
H61 C63 0.959 . S
H62 C63 0.961 . S
C63 C53 1.510 . S
C63 H61 0.959 . S
C63 H62 0.961 . S
C63 H64 0.960 1_556 S
H64 C63 0.960 1_554 S
H65 N45 0.862 . S
O66 Co34 1.920 . S
O66 C39 1.289 . S
C67 O59 1.258 1_554 S
C67 O60 1.266 . S
Co68 O71 1.970 1_556 S
Co68 N85 1.989 . S
Co68 O93 1.967 . S
Co68 O100 1.920 . S
Co69 O72 1.966 . S
Co69 N78 2.022 . S
Co69 N86 1.993 1_554 S
Co69 O94 1.941 . S
C70 O71 1.258 . S
C70 O72 1.263 . S
O71 Co68 1.970 1_554 S
O71 C70 1.258 . S
O72 Co69 1.966 . S
O72 C70 1.263 . S
C73 O74 1.235 . S
C73 O100 1.289 . S
O74 C73 1.235 . S
C75 C77 1.400 . S
C75 N78 1.351 . S
C75 C80 1.501 . S
C76 C77 1.387 . S
C76 N79 1.341 . S
C77 C75 1.400 . S
C77 C76 1.387 . S
N78 Co69 2.022 . S
N78 C75 1.351 . S
N78 N79 1.365 . S
N79 C76 1.341 . S
N79 N78 1.365 . S
N79 H99 0.862 . S
C80 C75 1.501 . S
C80 H81 0.961 . S
C80 H82 0.961 . S
C80 H83 0.960 . S
H81 C80 0.961 . S
H82 C80 0.961 . S
H83 C80 0.960 . S
C84 N85 1.342 . S
C84 C88 1.401 . S
C84 C89 1.499 . S
N85 Co68 1.989 . S
N85 C84 1.342 . S
N85 N86 1.388 . S
N86 Co69 1.993 1_556 S
N86 N85 1.388 . S
N86 C87 1.346 . S
C87 N86 1.346 . S
C87 C88 1.396 . S
C87 C97 1.510 . S
C88 C84 1.401 . S
C88 C87 1.396 . S
C89 C84 1.499 . S
C89 H90 0.959 . S
C89 H91 0.960 . S
C89 H92 0.961 . S
H90 C89 0.959 . S
H91 C89 0.960 . S
H92 C89 0.961 . S
O93 Co68 1.967 . S
O93 C101 1.258 1_556 S
O94 Co69 1.941 . S
O94 C101 1.266 . S
H95 C97 0.959 . S
H96 C97 0.961 . S
C97 C87 1.510 . S
C97 H95 0.959 . S
C97 H96 0.961 . S
C97 H98 0.960 1_556 S
H98 C97 0.960 1_554 S
H99 N79 0.862 . S
O100 Co68 1.920 . S
O100 C73 1.289 . S
C101 O93 1.258 1_554 S
C101 O94 1.266 . S
Co102 O105 1.970 1_556 S
Co102 N119 1.989 . S
Co102 O127 1.967 . S
Co102 O134 1.920 . S
Co103 O106 1.966 . S
Co103 N112 2.022 . S
Co103 N120 1.993 1_554 S
Co103 O128 1.941 . S
C104 O105 1.258 . S
C104 O106 1.263 . S
O105 Co102 1.970 1_554 S
O105 C104 1.258 . S
O106 Co103 1.966 . S
O106 C104 1.263 . S
C107 O108 1.235 . S
C107 O134 1.289 . S
O108 C107 1.235 . S
C109 C111 1.400 . S
C109 N112 1.351 . S
C109 C114 1.501 . S
C110 C111 1.387 . S
C110 N113 1.341 . S
C111 C109 1.400 . S
C111 C110 1.387 . S
N112 Co103 2.022 . S
N112 C109 1.351 . S
N112 N113 1.365 . S
N113 C110 1.341 . S
N113 N112 1.365 . S
N113 H133 0.862 . S
C114 C109 1.501 . S
C114 H115 0.961 . S
C114 H116 0.961 . S
C114 H117 0.960 . S
H115 C114 0.961 . S
H116 C114 0.961 . S
H117 C114 0.960 . S
C118 N119 1.342 . S
C118 C122 1.401 . S
C118 C123 1.499 . S
N119 Co102 1.989 . S
N119 C118 1.342 . S
N119 N120 1.388 . S
N120 Co103 1.993 1_556 S
N120 N119 1.388 . S
N120 C121 1.346 . S
C121 N120 1.346 . S
C121 C122 1.396 . S
C121 C131 1.510 . S
C122 C118 1.401 . S
C122 C121 1.396 . S
C123 C118 1.499 . S
C123 H124 0.959 . S
C123 H125 0.960 . S
C123 H126 0.961 . S
H124 C123 0.959 . S
H125 C123 0.960 . S
H126 C123 0.961 . S
O127 Co102 1.967 . S
O127 C135 1.258 1_556 S
O128 Co103 1.941 . S
O128 C135 1.266 . S
H129 C131 0.959 . S
H130 C131 0.961 . S
C131 C121 1.510 . S
C131 H129 0.959 . S
C131 H130 0.961 . S
C131 H132 0.960 1_556 S
H132 C131 0.960 1_554 S
H133 N113 0.862 . S
O134 Co102 1.920 . S
O134 C107 1.289 . S
C135 O127 1.258 1_554 S
C135 O128 1.266 . S
Co136 O139 1.970 . S
Co136 N153 1.989 . S
Co136 O161 1.967 . S
Co136 O168 1.920 . S
Co137 O140 1.966 . S
Co137 N146 2.022 . S
Co137 N154 1.993 . S
Co137 O162 1.941 . S
C138 O139 1.258 . S
C138 O140 1.263 . S
O139 Co136 1.970 . S
O139 C138 1.258 . S
O140 Co137 1.966 . S
O140 C138 1.263 . S
C141 O142 1.235 . S
C141 O168 1.289 . S
O142 C141 1.235 . S
C143 C145 1.400 . S
C143 N146 1.351 . S
C143 C148 1.501 . S
C144 C145 1.387 . S
C144 N147 1.341 . S
C145 C143 1.400 . S
C145 C144 1.387 . S
N146 Co137 2.022 . S
N146 C143 1.351 . S
N146 N147 1.365 . S
N147 C144 1.341 . S
N147 N146 1.365 . S
N147 H167 0.862 . S
C148 C143 1.501 . S
C148 H149 0.961 . S
C148 H150 0.961 . S
C148 H151 0.960 . S
H149 C148 0.961 . S
H150 C148 0.961 . S
H151 C148 0.960 . S
C152 N153 1.342 . S
C152 C156 1.401 . S
C152 C157 1.499 . S
N153 Co136 1.989 . S
N153 C152 1.342 . S
N153 N154 1.388 . S
N154 Co137 1.993 . S
N154 N153 1.388 . S
N154 C155 1.346 . S
C155 N154 1.346 . S
C155 C156 1.396 . S
C155 C165 1.510 . S
C156 C152 1.401 . S
C156 C155 1.396 . S
C157 C152 1.499 . S
C157 H158 0.959 . S
C157 H159 0.960 . S
C157 H160 0.961 . S
H158 C157 0.959 . S
H159 C157 0.960 . S
H160 C157 0.961 . S
O161 Co136 1.967 . S
O161 C169 1.258 . S
O162 Co137 1.941 . S
O162 C169 1.266 . S
H163 C165 0.959 . S
H164 C165 0.961 . S
C165 C155 1.510 . S
C165 H163 0.959 . S
C165 H164 0.961 . S
C165 H166 0.960 . S
H166 C165 0.960 . S
H167 N147 0.862 . S
O168 Co136 1.920 . S
O168 C141 1.289 . S
C169 O161 1.258 . S
C169 O162 1.266 . S
Co170 O173 1.970 . S
Co170 N187 1.989 . S
Co170 O195 1.967 . S
Co170 O202 1.920 . S
Co171 O174 1.966 . S
Co171 N180 2.022 . S
Co171 N188 1.993 . S
Co171 O196 1.941 . S
C172 O173 1.258 . S
C172 O174 1.263 . S
O173 Co170 1.970 . S
O173 C172 1.258 . S
O174 Co171 1.966 . S
O174 C172 1.263 . S
C175 O176 1.235 . S
C175 O202 1.289 . S
O176 C175 1.235 . S
C177 C179 1.400 . S
C177 N180 1.351 . S
C177 C182 1.501 . S
C178 C179 1.387 . S
C178 N181 1.341 . S
C179 C177 1.400 . S
C179 C178 1.387 . S
N180 Co171 2.022 . S
N180 C177 1.351 . S
N180 N181 1.365 . S
N181 C178 1.341 . S
N181 N180 1.365 . S
N181 H201 0.862 . S
C182 C177 1.501 . S
C182 H183 0.961 . S
C182 H184 0.961 . S
C182 H185 0.960 . S
H183 C182 0.961 . S
H184 C182 0.961 . S
H185 C182 0.960 . S
C186 N187 1.342 . S
C186 C190 1.401 . S
C186 C191 1.499 . S
N187 Co170 1.989 . S
N187 C186 1.342 . S
N187 N188 1.388 . S
N188 Co171 1.993 . S
N188 N187 1.388 . S
N188 C189 1.346 . S
C189 N188 1.346 . S
C189 C190 1.396 . S
C189 C199 1.510 . S
C190 C186 1.401 . S
C190 C189 1.396 . S
C191 C186 1.499 . S
C191 H192 0.959 . S
C191 H193 0.960 . S
C191 H194 0.961 . S
H192 C191 0.959 . S
H193 C191 0.960 . S
H194 C191 0.961 . S
O195 Co170 1.967 . S
O195 C203 1.258 . S
O196 Co171 1.941 . S
O196 C203 1.266 . S
H197 C199 0.959 . S
H198 C199 0.961 . S
C199 C189 1.510 . S
C199 H197 0.959 . S
C199 H198 0.961 . S
C199 H200 0.960 . S
H200 C199 0.960 . S
H201 N181 0.862 . S
O202 Co170 1.920 . S
O202 C175 1.289 . S
C203 O195 1.258 . S
C203 O196 1.266 . S
Co204 O207 1.970 . S
Co204 N221 1.989 . S
Co204 O229 1.967 . S
Co204 O236 1.920 . S
Co205 O208 1.966 . S
Co205 N214 2.022 . S
Co205 N222 1.993 . S
Co205 O230 1.941 . S
C206 O207 1.258 . S
C206 O208 1.263 . S
O207 Co204 1.970 . S
O207 C206 1.258 . S
O208 Co205 1.966 . S
O208 C206 1.263 . S
C209 O210 1.235 . S
C209 O236 1.289 . S
O210 C209 1.235 . S
C211 C213 1.400 . S
C211 N214 1.351 . S
C211 C216 1.501 . S
C212 C213 1.387 . S
C212 N215 1.341 . S
C213 C211 1.400 . S
C213 C212 1.387 . S
N214 Co205 2.022 . S
N214 C211 1.351 . S
N214 N215 1.365 . S
N215 C212 1.341 . S
N215 N214 1.365 . S
N215 H235 0.862 . S
C216 C211 1.501 . S
C216 H217 0.961 . S
C216 H218 0.961 . S
C216 H219 0.960 . S
H217 C216 0.961 . S
H218 C216 0.961 . S
H219 C216 0.960 . S
C220 N221 1.342 . S
C220 C224 1.401 . S
C220 C225 1.499 . S
N221 Co204 1.989 . S
N221 C220 1.342 . S
N221 N222 1.388 . S
N222 Co205 1.993 . S
N222 N221 1.388 . S
N222 C223 1.346 . S
C223 N222 1.346 . S
C223 C224 1.396 . S
C223 C233 1.510 . S
C224 C220 1.401 . S
C224 C223 1.396 . S
C225 C220 1.499 . S
C225 H226 0.959 . S
C225 H227 0.960 . S
C225 H228 0.961 . S
H226 C225 0.959 . S
H227 C225 0.960 . S
H228 C225 0.961 . S
O229 Co204 1.967 . S
O229 C237 1.258 . S
O230 Co205 1.941 . S
O230 C237 1.266 . S
H231 C233 0.959 . S
H232 C233 0.961 . S
C233 C223 1.510 . S
C233 H231 0.959 . S
C233 H232 0.961 . S
C233 H234 0.960 . S
H234 C233 0.960 . S
H235 N215 0.862 . S
O236 Co204 1.920 . S
O236 C209 1.289 . S
C237 O229 1.258 . S
C237 O230 1.266 . S
Co238 O241 1.970 . S
Co238 N255 1.989 . S
Co238 O263 1.967 . S
Co238 O270 1.920 . S
Co239 O242 1.966 . S
Co239 N248 2.022 . S
Co239 N256 1.993 . S
Co239 O264 1.941 . S
C240 O241 1.258 . S
C240 O242 1.263 . S
O241 Co238 1.970 . S
O241 C240 1.258 . S
O242 Co239 1.966 . S
O242 C240 1.263 . S
C243 O244 1.235 . S
C243 O270 1.289 . S
O244 C243 1.235 . S
C245 C247 1.400 . S
C245 N248 1.351 . S
C245 C250 1.501 . S
C246 C247 1.387 . S
C246 N249 1.341 . S
C247 C245 1.400 . S
C247 C246 1.387 . S
N248 Co239 2.022 . S
N248 C245 1.351 . S
N248 N249 1.365 . S
N249 C246 1.341 . S
N249 N248 1.365 . S
N249 H269 0.862 . S
C250 C245 1.501 . S
C250 H251 0.961 . S
C250 H252 0.961 . S
C250 H253 0.960 . S
H251 C250 0.961 . S
H252 C250 0.961 . S
H253 C250 0.960 . S
C254 N255 1.342 . S
C254 C258 1.401 . S
C254 C259 1.499 . S
N255 Co238 1.989 . S
N255 C254 1.342 . S
N255 N256 1.388 . S
N256 Co239 1.993 . S
N256 N255 1.388 . S
N256 C257 1.346 . S
C257 N256 1.346 . S
C257 C258 1.396 . S
C257 C267 1.510 . S
C258 C254 1.401 . S
C258 C257 1.396 . S
C259 C254 1.499 . S
C259 H260 0.959 . S
C259 H261 0.960 . S
C259 H262 0.961 . S
H260 C259 0.959 . S
H261 C259 0.960 . S
H262 C259 0.961 . S
O263 Co238 1.967 . S
O263 C271 1.258 . S
O264 Co239 1.941 . S
O264 C271 1.266 . S
H265 C267 0.959 . S
H266 C267 0.961 . S
C267 C257 1.510 . S
C267 H265 0.959 . S
C267 H266 0.961 . S
C267 H268 0.960 . S
H268 C267 0.960 . S
H269 N249 0.862 . S
O270 Co238 1.920 . S
O270 C243 1.289 . S
C271 O263 1.258 . S
C271 O264 1.266 . S
Co272 O275 1.970 . S
Co272 N289 1.989 . S
Co272 O297 1.967 . S
Co272 O304 1.920 . S
Co273 O276 1.966 . S
Co273 N282 2.022 . S
Co273 N290 1.993 . S
Co273 O298 1.941 . S
C274 O275 1.258 . S
C274 O276 1.263 . S
O275 Co272 1.970 . S
O275 C274 1.258 . S
O276 Co273 1.966 . S
O276 C274 1.263 . S
C277 O278 1.235 . S
C277 O304 1.289 . S
O278 C277 1.235 . S
C279 C281 1.400 . S
C279 N282 1.351 . S
C279 C284 1.501 . S
C280 C281 1.387 . S
C280 N283 1.341 . S
C281 C279 1.400 . S
C281 C280 1.387 . S
N282 Co273 2.022 . S
N282 C279 1.351 . S
N282 N283 1.365 . S
N283 C280 1.341 . S
N283 N282 1.365 . S
N283 H303 0.862 . S
C284 C279 1.501 . S
C284 H285 0.961 . S
C284 H286 0.961 . S
C284 H287 0.960 . S
H285 C284 0.961 . S
H286 C284 0.961 . S
H287 C284 0.960 . S
C288 N289 1.342 . S
C288 C292 1.401 . S
C288 C293 1.499 . S
N289 Co272 1.989 . S
N289 C288 1.342 . S
N289 N290 1.388 . S
N290 Co273 1.993 . S
N290 N289 1.388 . S
N290 C291 1.346 . S
C291 N290 1.346 . S
C291 C292 1.396 . S
C291 C301 1.510 . S
C292 C288 1.401 . S
C292 C291 1.396 . S
C293 C288 1.499 . S
C293 H294 0.959 . S
C293 H295 0.960 . S
C293 H296 0.961 . S
H294 C293 0.959 . S
H295 C293 0.960 . S
H296 C293 0.961 . S
O297 Co272 1.967 . S
O297 C305 1.258 . S
O298 Co273 1.941 . S
O298 C305 1.266 . S
H299 C301 0.959 . S
H300 C301 0.961 . S
C301 C291 1.510 . S
C301 H299 0.959 . S
C301 H300 0.961 . S
C301 H302 0.960 . S
H302 C301 0.960 . S
H303 N283 0.862 . S
O304 Co272 1.920 . S
O304 C277 1.289 . S
C305 O297 1.258 . S
C305 O298 1.266 . S
Co306 O309 1.970 . S
Co306 N323 1.989 . S
Co306 O331 1.967 . S
Co306 O338 1.920 . S
Co307 O310 1.966 . S
Co307 N316 2.022 . S
Co307 N324 1.993 . S
Co307 O332 1.941 . S
C308 O309 1.258 . S
C308 O310 1.263 . S
O309 Co306 1.970 . S
O309 C308 1.258 . S
O310 Co307 1.966 . S
O310 C308 1.263 . S
C311 O312 1.235 . S
C311 O338 1.289 . S
O312 C311 1.235 . S
C313 C315 1.400 . S
C313 N316 1.351 . S
C313 C318 1.501 . S
C314 C315 1.387 . S
C314 N317 1.341 . S
C315 C313 1.400 . S
C315 C314 1.387 . S
N316 Co307 2.022 . S
N316 C313 1.351 . S
N316 N317 1.365 . S
N317 C314 1.341 . S
N317 N316 1.365 . S
N317 H337 0.862 . S
C318 C313 1.501 . S
C318 H319 0.961 . S
C318 H320 0.961 . S
C318 H321 0.960 . S
H319 C318 0.961 . S
H320 C318 0.961 . S
H321 C318 0.960 . S
C322 N323 1.342 . S
C322 C326 1.401 . S
C322 C327 1.499 . S
N323 Co306 1.989 . S
N323 C322 1.342 . S
N323 N324 1.388 . S
N324 Co307 1.993 . S
N324 N323 1.388 . S
N324 C325 1.346 . S
C325 N324 1.346 . S
C325 C326 1.396 . S
C325 C335 1.510 . S
C326 C322 1.401 . S
C326 C325 1.396 . S
C327 C322 1.499 . S
C327 H328 0.959 . S
C327 H329 0.960 . S
C327 H330 0.961 . S
H328 C327 0.959 . S
H329 C327 0.960 . S
H330 C327 0.961 . S
O331 Co306 1.967 . S
O331 C339 1.258 . S
O332 Co307 1.941 . S
O332 C339 1.266 . S
H333 C335 0.959 . S
H334 C335 0.961 . S
C335 C325 1.510 . S
C335 H333 0.959 . S
C335 H334 0.961 . S
C335 H336 0.960 . S
H336 C335 0.960 . S
H337 N317 0.862 . S
O338 Co306 1.920 . S
O338 C311 1.289 . S
C339 O331 1.258 . S
C339 O332 1.266 . S
Co340 O343 1.970 . S
Co340 N357 1.989 . S
Co340 O365 1.967 . S
Co340 O372 1.920 . S
Co341 O344 1.966 . S
Co341 N350 2.022 . S
Co341 N358 1.993 . S
Co341 O366 1.941 . S
C342 O343 1.258 . S
C342 O344 1.263 . S
O343 Co340 1.970 . S
O343 C342 1.258 . S
O344 Co341 1.966 . S
O344 C342 1.263 . S
C345 O346 1.235 . S
C345 O372 1.289 . S
O346 C345 1.235 . S
C347 C349 1.400 . S
C347 N350 1.351 . S
C347 C352 1.501 . S
C348 C349 1.387 . S
C348 N351 1.341 . S
C349 C347 1.400 . S
C349 C348 1.387 . S
N350 Co341 2.022 . S
N350 C347 1.351 . S
N350 N351 1.365 . S
N351 C348 1.341 . S
N351 N350 1.365 . S
N351 H371 0.862 . S
C352 C347 1.501 . S
C352 H353 0.961 . S
C352 H354 0.961 . S
C352 H355 0.960 . S
H353 C352 0.961 . S
H354 C352 0.961 . S
H355 C352 0.960 . S
C356 N357 1.342 . S
C356 C360 1.401 . S
C356 C361 1.499 . S
N357 Co340 1.989 . S
N357 C356 1.342 . S
N357 N358 1.388 . S
N358 Co341 1.993 . S
N358 N357 1.388 . S
N358 C359 1.346 . S
C359 N358 1.346 . S
C359 C360 1.396 . S
C359 C369 1.510 . S
C360 C356 1.401 . S
C360 C359 1.396 . S
C361 C356 1.499 . S
C361 H362 0.959 . S
C361 H363 0.960 . S
C361 H364 0.961 . S
H362 C361 0.959 . S
H363 C361 0.960 . S
H364 C361 0.961 . S
O365 Co340 1.967 . S
O365 C373 1.258 . S
O366 Co341 1.941 . S
O366 C373 1.266 . S
H367 C369 0.959 . S
H368 C369 0.961 . S
C369 C359 1.510 . S
C369 H367 0.959 . S
C369 H368 0.961 . S
C369 H370 0.960 . S
H370 C369 0.960 . S
H371 N351 0.862 . S
O372 Co340 1.920 . S
O372 C345 1.289 . S
C373 O365 1.258 . S
C373 O366 1.266 . S
Co374 O377 1.970 . S
Co374 N391 1.989 . S
Co374 O399 1.967 . S
Co374 O406 1.920 . S
Co375 O378 1.966 . S
Co375 N384 2.022 . S
Co375 N392 1.993 . S
Co375 O400 1.941 . S
C376 O377 1.258 . S
C376 O378 1.263 . S
O377 Co374 1.970 . S
O377 C376 1.258 . S
O378 Co375 1.966 . S
O378 C376 1.263 . S
C379 O380 1.235 . S
C379 O406 1.289 . S
O380 C379 1.235 . S
C381 C383 1.400 . S
C381 N384 1.351 . S
C381 C386 1.501 . S
C382 C383 1.387 . S
C382 N385 1.341 . S
C383 C381 1.400 . S
C383 C382 1.387 . S
N384 Co375 2.022 . S
N384 C381 1.351 . S
N384 N385 1.365 . S
N385 C382 1.341 . S
N385 N384 1.365 . S
N385 H405 0.862 . S
C386 C381 1.501 . S
C386 H387 0.961 . S
C386 H388 0.961 . S
C386 H389 0.960 . S
H387 C386 0.961 . S
H388 C386 0.961 . S
H389 C386 0.960 . S
C390 N391 1.342 . S
C390 C394 1.401 . S
C390 C395 1.499 . S
N391 Co374 1.989 . S
N391 C390 1.342 . S
N391 N392 1.388 . S
N392 Co375 1.993 . S
N392 N391 1.388 . S
N392 C393 1.346 . S
C393 N392 1.346 . S
C393 C394 1.396 . S
C393 C403 1.510 . S
C394 C390 1.401 . S
C394 C393 1.396 . S
C395 C390 1.499 . S
C395 H396 0.959 . S
C395 H397 0.960 . S
C395 H398 0.961 . S
H396 C395 0.959 . S
H397 C395 0.960 . S
H398 C395 0.961 . S
O399 Co374 1.967 . S
O399 C407 1.258 . S
O400 Co375 1.941 . S
O400 C407 1.266 . S
H401 C403 0.959 . S
H402 C403 0.961 . S
C403 C393 1.510 . S
C403 H401 0.959 . S
C403 H402 0.961 . S
C403 H404 0.960 . S
H404 C403 0.960 . S
H405 N385 0.862 . S
O406 Co374 1.920 . S
O406 C379 1.289 . S
C407 O399 1.258 . S
C407 O400 1.266 . S
Co408 O411 1.970 1_554 S
Co408 N425 1.989 . S
Co408 O433 1.967 . S
Co408 O440 1.920 . S
Co409 O412 1.966 . S
Co409 N418 2.022 . S
Co409 N426 1.993 1_556 S
Co409 O434 1.941 . S
C410 O411 1.258 . S
C410 O412 1.263 . S
O411 Co408 1.970 1_556 S
O411 C410 1.258 . S
O412 Co409 1.966 . S
O412 C410 1.263 . S
C413 O414 1.235 . S
C413 O440 1.289 . S
O414 C413 1.235 . S
C415 C417 1.400 . S
C415 N418 1.351 . S
C415 C420 1.501 . S
C416 C417 1.387 . S
C416 N419 1.341 . S
C417 C415 1.400 . S
C417 C416 1.387 . S
N418 Co409 2.022 . S
N418 C415 1.351 . S
N418 N419 1.365 . S
N419 C416 1.341 . S
N419 N418 1.365 . S
N419 H439 0.862 . S
C420 C415 1.501 . S
C420 H421 0.961 . S
C420 H422 0.961 . S
C420 H423 0.960 . S
H421 C420 0.961 . S
H422 C420 0.961 . S
H423 C420 0.960 . S
C424 N425 1.342 . S
C424 C428 1.401 . S
C424 C429 1.499 . S
N425 Co408 1.989 . S
N425 C424 1.342 . S
N425 N426 1.388 . S
N426 Co409 1.993 1_554 S
N426 N425 1.388 . S
N426 C427 1.346 . S
C427 N426 1.346 . S
C427 C428 1.396 . S
C427 C437 1.510 . S
C428 C424 1.401 . S
C428 C427 1.396 . S
C429 C424 1.499 . S
C429 H430 0.959 . S
C429 H431 0.960 . S
C429 H432 0.961 . S
H430 C429 0.959 . S
H431 C429 0.960 . S
H432 C429 0.961 . S
O433 Co408 1.967 . S
O433 C441 1.258 1_554 S
O434 Co409 1.941 . S
O434 C441 1.266 . S
H435 C437 0.959 . S
H436 C437 0.961 . S
C437 C427 1.510 . S
C437 H435 0.959 . S
C437 H436 0.961 . S
C437 H438 0.960 1_554 S
H438 C437 0.960 1_556 S
H439 N419 0.862 . S
O440 Co408 1.920 . S
O440 C413 1.289 . S
C441 O433 1.258 1_556 S
C441 O434 1.266 . S
Co442 O445 1.970 1_554 S
Co442 N459 1.989 . S
Co442 O467 1.967 . S
Co442 O474 1.920 . S
Co443 O446 1.966 . S
Co443 N452 2.022 . S
Co443 N460 1.993 1_556 S
Co443 O468 1.941 . S
C444 O445 1.258 . S
C444 O446 1.263 . S
O445 Co442 1.970 1_556 S
O445 C444 1.258 . S
O446 Co443 1.966 . S
O446 C444 1.263 . S
C447 O448 1.235 . S
C447 O474 1.289 . S
O448 C447 1.235 . S
C449 C451 1.400 . S
C449 N452 1.351 . S
C449 C454 1.501 . S
C450 C451 1.387 . S
C450 N453 1.341 . S
C451 C449 1.400 . S
C451 C450 1.387 . S
N452 Co443 2.022 . S
N452 C449 1.351 . S
N452 N453 1.365 . S
N453 C450 1.341 . S
N453 N452 1.365 . S
N453 H473 0.862 . S
C454 C449 1.501 . S
C454 H455 0.961 . S
C454 H456 0.961 . S
C454 H457 0.960 . S
H455 C454 0.961 . S
H456 C454 0.961 . S
H457 C454 0.960 . S
C458 N459 1.342 . S
C458 C462 1.401 . S
C458 C463 1.499 . S
N459 Co442 1.989 . S
N459 C458 1.342 . S
N459 N460 1.388 . S
N460 Co443 1.993 1_554 S
N460 N459 1.388 . S
N460 C461 1.346 . S
C461 N460 1.346 . S
C461 C462 1.396 . S
C461 C471 1.510 . S
C462 C458 1.401 . S
C462 C461 1.396 . S
C463 C458 1.499 . S
C463 H464 0.959 . S
C463 H465 0.960 . S
C463 H466 0.961 . S
H464 C463 0.959 . S
H465 C463 0.960 . S
H466 C463 0.961 . S
O467 Co442 1.967 . S
O467 C475 1.258 1_554 S
O468 Co443 1.941 . S
O468 C475 1.266 . S
H469 C471 0.959 . S
H470 C471 0.961 . S
C471 C461 1.510 . S
C471 H469 0.959 . S
C471 H470 0.961 . S
C471 H472 0.960 1_554 S
H472 C471 0.960 1_556 S
H473 N453 0.862 . S
O474 Co442 1.920 . S
O474 C447 1.289 . S
C475 O467 1.258 1_556 S
C475 O468 1.266 . S
Co476 O479 1.970 1_554 S
Co476 N493 1.989 . S
Co476 O501 1.967 . S
Co476 O508 1.920 . S
Co477 O480 1.966 . S
Co477 N486 2.022 . S
Co477 N494 1.993 1_556 S
Co477 O502 1.941 . S
C478 O479 1.258 . S
C478 O480 1.263 . S
O479 Co476 1.970 1_556 S
O479 C478 1.258 . S
O480 Co477 1.966 . S
O480 C478 1.263 . S
C481 O482 1.235 . S
C481 O508 1.289 . S
O482 C481 1.235 . S
C483 C485 1.400 . S
C483 N486 1.351 . S
C483 C488 1.501 . S
C484 C485 1.387 . S
C484 N487 1.341 . S
C485 C483 1.400 . S
C485 C484 1.387 . S
N486 Co477 2.022 . S
N486 C483 1.351 . S
N486 N487 1.365 . S
N487 C484 1.341 . S
N487 N486 1.365 . S
N487 H507 0.862 . S
C488 C483 1.501 . S
C488 H489 0.961 . S
C488 H490 0.961 . S
C488 H491 0.960 . S
H489 C488 0.961 . S
H490 C488 0.961 . S
H491 C488 0.960 . S
C492 N493 1.342 . S
C492 C496 1.401 . S
C492 C497 1.499 . S
N493 Co476 1.989 . S
N493 C492 1.342 . S
N493 N494 1.388 . S
N494 Co477 1.993 1_554 S
N494 N493 1.388 . S
N494 C495 1.346 . S
C495 N494 1.346 . S
C495 C496 1.396 . S
C495 C505 1.510 . S
C496 C492 1.401 . S
C496 C495 1.396 . S
C497 C492 1.499 . S
C497 H498 0.959 . S
C497 H499 0.960 . S
C497 H500 0.961 . S
H498 C497 0.959 . S
H499 C497 0.960 . S
H500 C497 0.961 . S
O501 Co476 1.967 . S
O501 C509 1.258 1_554 S
O502 Co477 1.941 . S
O502 C509 1.266 . S
H503 C505 0.959 . S
H504 C505 0.961 . S
C505 C495 1.510 . S
C505 H503 0.959 . S
C505 H504 0.961 . S
C505 H506 0.960 1_554 S
H506 C505 0.960 1_556 S
H507 N487 0.862 . S
O508 Co476 1.920 . S
O508 C481 1.289 . S
C509 O501 1.258 1_556 S
C509 O502 1.266 . S
Co510 O513 1.970 1_554 S
Co510 N527 1.989 . S
Co510 O535 1.967 . S
Co510 O542 1.920 . S
Co511 O514 1.966 . S
Co511 N520 2.022 . S
Co511 N528 1.993 1_556 S
Co511 O536 1.941 . S
C512 O513 1.258 . S
C512 O514 1.263 . S
O513 Co510 1.970 1_556 S
O513 C512 1.258 . S
O514 Co511 1.966 . S
O514 C512 1.263 . S
C515 O516 1.235 . S
C515 O542 1.289 . S
O516 C515 1.235 . S
C517 C519 1.400 . S
C517 N520 1.351 . S
C517 C522 1.501 . S
C518 C519 1.387 . S
C518 N521 1.341 . S
C519 C517 1.400 . S
C519 C518 1.387 . S
N520 Co511 2.022 . S
N520 C517 1.351 . S
N520 N521 1.365 . S
N521 C518 1.341 . S
N521 N520 1.365 . S
N521 H541 0.862 . S
C522 C517 1.501 . S
C522 H523 0.961 . S
C522 H524 0.961 . S
C522 H525 0.960 . S
H523 C522 0.961 . S
H524 C522 0.961 . S
H525 C522 0.960 . S
C526 N527 1.342 . S
C526 C530 1.401 . S
C526 C531 1.499 . S
N527 Co510 1.989 . S
N527 C526 1.342 . S
N527 N528 1.388 . S
N528 Co511 1.993 1_554 S
N528 N527 1.388 . S
N528 C529 1.346 . S
C529 N528 1.346 . S
C529 C530 1.396 . S
C529 C539 1.510 . S
C530 C526 1.401 . S
C530 C529 1.396 . S
C531 C526 1.499 . S
C531 H532 0.959 . S
C531 H533 0.960 . S
C531 H534 0.961 . S
H532 C531 0.959 . S
H533 C531 0.960 . S
H534 C531 0.961 . S
O535 Co510 1.967 . S
O535 C543 1.258 1_554 S
O536 Co511 1.941 . S
O536 C543 1.266 . S
H537 C539 0.959 . S
H538 C539 0.961 . S
C539 C529 1.510 . S
C539 H537 0.959 . S
C539 H538 0.961 . S
C539 H540 0.960 1_554 S
H540 C539 0.960 1_556 S
H541 N521 0.862 . S
O542 Co510 1.920 . S
O542 C515 1.289 . S
C543 O535 1.258 1_556 S
C543 O536 1.266 . S
H544 C556 0.930 1_556 S
H545 C558 0.930 . S
H546 C559 0.930 . S
H547 C563 0.959 . S
H548 C563 0.959 . S
H549 C563 0.961 . S
H550 C564 0.960 . S
H551 C564 0.961 . S
H552 C564 0.959 . S
H553 C567 0.929 . S
H554 C568 0.931 . S
H555 C570 0.930 . S
C556 H544 0.930 1_554 S
C556 C557 1.399 . S
C556 C561 1.399 . S
C557 C556 1.399 . S
C557 C558 1.376 . S
C558 H545 0.930 . S
C558 C557 1.376 . S
C558 C559 1.388 . S
C559 H546 0.930 . S
C559 C558 1.388 . S
C559 C560 1.390 . S
C560 C559 1.390 . S
C560 C561 1.394 . S
C560 C566 1.465 . S
C561 C556 1.399 . S
C561 C560 1.394 . S
C561 C562 1.517 . S
C562 C561 1.517 . S
C562 C563 1.498 1_554 S
C562 C564 1.565 . S
C562 C565 1.526 . S
C563 H547 0.959 . S
C563 H548 0.959 . S
C563 H549 0.961 . S
C563 C562 1.498 1_556 S
C564 H550 0.960 . S
C564 H551 0.961 . S
C564 H552 0.959 . S
C564 C562 1.565 . S
C565 C562 1.526 . S
C565 C566 1.396 . S
C565 C570 1.389 1_554 S
C566 C560 1.465 . S
C566 C565 1.396 . S
C566 C567 1.399 . S
C567 H553 0.929 . S
C567 C566 1.399 . S
C567 C568 1.385 . S
C568 H554 0.931 . S
C568 C567 1.385 . S
C568 C569 1.389 1_554 S
C569 C568 1.389 1_556 S
C569 C570 1.387 . S
C570 H555 0.930 . S
C570 C565 1.389 1_556 S
C570 C569 1.387 . S
H571 C583 0.930 . S
H572 C585 0.930 . S
H573 C586 0.930 . S
H574 C590 0.959 . S
H575 C590 0.959 . S
H576 C590 0.961 . S
H577 C591 0.960 . S
H578 C591 0.961 . S
H579 C591 0.959 . S
H580 C594 0.929 . S
H581 C595 0.931 . S
H582 C597 0.930 . S
C583 H571 0.930 . S
C583 C584 1.406 . S
C583 C588 1.399 . S
C584 C583 1.406 . S
C584 C585 1.367 1_556 S
C585 H572 0.930 . S
C585 C584 1.367 1_554 S
C585 C586 1.388 . S
C586 H573 0.930 . S
C586 C585 1.388 . S
C586 C587 1.390 . S
C587 C586 1.390 . S
C587 C588 1.394 1_554 S
C587 C593 1.465 . S
C588 C583 1.399 . S
C588 C587 1.394 1_556 S
C588 C589 1.516 . S
C589 C588 1.516 . S
C589 C590 1.502 . S
C589 C591 1.561 . S
C589 C592 1.526 . S
C590 H574 0.959 . S
C590 H575 0.959 . S
C590 H576 0.961 . S
C590 C589 1.502 . S
C591 H577 0.960 . S
C591 H578 0.961 . S
C591 H579 0.959 . S
C591 C589 1.561 . S
C592 C589 1.526 . S
C592 C593 1.396 1_556 S
C592 C597 1.390 . S
C593 C587 1.465 . S
C593 C592 1.396 1_554 S
C593 C594 1.399 . S
C594 H580 0.929 . S
C594 C593 1.399 . S
C594 C595 1.385 . S
C595 H581 0.931 . S
C595 C594 1.385 . S
C595 C596 1.389 . S
C596 C595 1.389 . S
C596 C597 1.387 1_554 S
C597 H582 0.930 . S
C597 C592 1.390 . S
C597 C596 1.387 1_556 S
H598 C610 0.930 . S
H599 C612 0.930 . S
H600 C613 0.930 1_554 S
H601 C617 0.959 . S
H602 C617 0.959 . S
H603 C617 0.961 . S
H604 C618 0.960 . S
H605 C618 0.961 . S
H606 C618 0.959 . S
H607 C621 0.929 . S
H608 C622 0.931 . S
H609 C624 0.930 . S
C610 H598 0.930 . S
C610 C611 1.399 . S
C610 C615 1.399 . S
C611 C610 1.399 . S
C611 C612 1.376 . S
C612 H599 0.930 . S
C612 C611 1.376 . S
C612 C613 1.388 . S
C613 H600 0.930 1_556 S
C613 C612 1.388 . S
C613 C614 1.390 . S
C614 C613 1.390 . S
C614 C615 1.394 . S
C614 C620 1.465 . S
C615 C610 1.399 . S
C615 C614 1.394 . S
C615 C616 1.516 . S
C616 C615 1.516 . S
C616 C617 1.502 1_556 S
C616 C618 1.561 . S
C616 C619 1.526 . S
C617 H601 0.959 . S
C617 H602 0.959 . S
C617 H603 0.961 . S
C617 C616 1.502 1_554 S
C618 H604 0.960 . S
C618 H605 0.961 . S
C618 H606 0.959 . S
C618 C616 1.561 . S
C619 C616 1.526 . S
C619 C620 1.396 . S
C619 C624 1.390 . S
C620 C614 1.465 . S
C620 C619 1.396 . S
C620 C621 1.399 1_556 S
C621 H607 0.929 . S
C621 C620 1.399 1_554 S
C621 C622 1.385 . S
C622 H608 0.931 . S
C622 C621 1.385 . S
C622 C623 1.389 . S
C623 C622 1.389 . S
C623 C624 1.387 1_554 S
C624 H609 0.930 . S
C624 C619 1.390 . S
C624 C623 1.387 1_556 S
H625 C637 0.930 . S
H626 C639 0.930 . S
H627 C640 0.930 . S
H628 C644 0.959 . S
H629 C644 0.959 . S
H630 C644 0.961 . S
H631 C645 0.960 . S
H632 C645 0.961 . S
H633 C645 0.959 . S
H634 C648 0.929 . S
H635 C649 0.931 . S
H636 C651 0.930 . S
C637 H625 0.930 . S
C637 C638 1.389 1_556 S
C637 C642 1.399 . S
C638 C637 1.389 1_554 S
C638 C639 1.390 . S
C639 H626 0.930 . S
C639 C638 1.390 . S
C639 C640 1.388 . S
C640 H627 0.930 . S
C640 C639 1.388 . S
C640 C641 1.390 . S
C641 C640 1.390 . S
C641 C642 1.394 1_554 S
C641 C647 1.465 . S
C642 C637 1.399 . S
C642 C641 1.394 1_556 S
C642 C643 1.516 . S
C643 C642 1.516 . S
C643 C644 1.502 . S
C643 C645 1.561 . S
C643 C646 1.526 . S
C644 H628 0.959 . S
C644 H629 0.959 . S
C644 H630 0.961 . S
C644 C643 1.502 . S
C645 H631 0.960 . S
C645 H632 0.961 . S
C645 H633 0.959 . S
C645 C643 1.561 . S
C646 C643 1.526 . S
C646 C647 1.396 1_556 S
C646 C651 1.390 . S
C647 C641 1.465 . S
C647 C646 1.396 1_554 S
C647 C648 1.399 . S
C648 H634 0.929 . S
C648 C647 1.399 . S
C648 C649 1.385 . S
C649 H635 0.931 . S
C649 C648 1.385 . S
C649 C650 1.389 . S
C650 C649 1.389 . S
C650 C651 1.387 1_554 S
C651 H636 0.930 . S
C651 C646 1.390 . S
C651 C650 1.387 1_556 S
H652 C664 0.930 . S
H653 C666 0.930 . S
H654 C667 0.930 . S
H655 C671 0.959 . S
H656 C671 0.959 . S
H657 C671 0.961 . S
H658 C672 0.960 . S
H659 C672 0.961 . S
H660 C672 0.959 . S
H661 C675 0.929 . S
H662 C676 0.931 . S
H663 C678 0.930 . S
C664 H652 0.930 . S
C664 C665 1.399 . S
C664 C669 1.399 . S
C665 C664 1.399 . S
C665 C666 1.376 . S
C666 H653 0.930 . S
C666 C665 1.376 . S
C666 C667 1.388 . S
C667 H654 0.930 . S
C667 C666 1.388 . S
C667 C668 1.390 . S
C668 C667 1.390 . S
C668 C669 1.394 . S
C668 C674 1.465 . S
C669 C664 1.399 . S
C669 C668 1.394 . S
C669 C670 1.516 . S
C670 C669 1.516 . S
C670 C671 1.502 . S
C670 C672 1.561 . S
C670 C673 1.526 . S
C671 H655 0.959 . S
C671 H656 0.959 . S
C671 H657 0.961 . S
C671 C670 1.502 . S
C672 H658 0.960 . S
C672 H659 0.961 . S
C672 H660 0.959 . S
C672 C670 1.561 . S
C673 C670 1.526 . S
C673 C674 1.396 . S
C673 C678 1.390 . S
C674 C668 1.465 . S
C674 C673 1.396 . S
C674 C675 1.399 . S
C675 H661 0.929 . S
C675 C674 1.399 . S
C675 C676 1.385 . S
C676 H662 0.931 . S
C676 C675 1.385 . S
C676 C677 1.389 . S
C677 C676 1.389 . S
C677 C678 1.387 . S
C678 H663 0.930 . S
C678 C673 1.390 . S
C678 C677 1.387 . S
H679 C691 0.930 . S
H680 C693 0.930 . S
H681 C694 0.930 . S
H682 C698 0.959 . S
H683 C698 0.959 . S
H684 C698 0.961 . S
H685 C699 0.960 . S
H686 C699 0.961 . S
H687 C699 0.959 . S
H688 C702 0.929 . S
H689 C703 0.931 . S
H690 C705 0.930 . S
C691 H679 0.930 . S
C691 C692 1.399 . S
C691 C696 1.399 . S
C692 C691 1.399 . S
C692 C693 1.376 . S
C693 H680 0.930 . S
C693 C692 1.376 . S
C693 C694 1.388 . S
C694 H681 0.930 . S
C694 C693 1.388 . S
C694 C695 1.390 . S
C695 C694 1.390 . S
C695 C696 1.394 . S
C695 C701 1.465 . S
C696 C691 1.399 . S
C696 C695 1.394 . S
C696 C697 1.516 . S
C697 C696 1.516 . S
C697 C698 1.502 . S
C697 C699 1.561 . S
C697 C700 1.526 . S
C698 H682 0.959 . S
C698 H683 0.959 . S
C698 H684 0.961 . S
C698 C697 1.502 . S
C699 H685 0.960 . S
C699 H686 0.961 . S
C699 H687 0.959 . S
C699 C697 1.561 . S
C700 C697 1.526 . S
C700 C701 1.396 . S
C700 C705 1.390 . S
C701 C695 1.465 . S
C701 C700 1.396 . S
C701 C702 1.399 . S
C702 H688 0.929 . S
C702 C701 1.399 . S
C702 C703 1.385 . S
C703 H689 0.931 . S
C703 C702 1.385 . S
C703 C704 1.389 . S
C704 C703 1.389 . S
C704 C705 1.387 . S
C705 H690 0.930 . S
C705 C700 1.390 . S
C705 C704 1.387 . S
H706 C718 0.930 . S
H707 C720 0.930 . S
H708 C721 0.930 . S
H709 C725 0.959 . S
H710 C725 0.959 . S
H711 C725 0.961 . S
H712 C726 0.960 . S
H713 C726 0.961 . S
H714 C726 0.959 . S
H715 C729 0.929 . S
H716 C730 0.931 . S
H717 C732 0.930 . S
C718 H706 0.930 . S
C718 C719 1.399 . S
C718 C723 1.399 . S
C719 C718 1.399 . S
C719 C720 1.376 . S
C720 H707 0.930 . S
C720 C719 1.376 . S
C720 C721 1.388 . S
C721 H708 0.930 . S
C721 C720 1.388 . S
C721 C722 1.390 . S
C722 C721 1.390 . S
C722 C723 1.394 . S
C722 C728 1.465 . S
C723 C718 1.399 . S
C723 C722 1.394 . S
C723 C724 1.516 . S
C724 C723 1.516 . S
C724 C725 1.502 . S
C724 C726 1.561 . S
C724 C727 1.526 . S
C725 H709 0.959 . S
C725 H710 0.959 . S
C725 H711 0.961 . S
C725 C724 1.502 . S
C726 H712 0.960 . S
C726 H713 0.961 . S
C726 H714 0.959 . S
C726 C724 1.561 . S
C727 C724 1.526 . S
C727 C728 1.396 . S
C727 C732 1.390 . S
C728 C722 1.465 . S
C728 C727 1.396 . S
C728 C729 1.399 . S
C729 H715 0.929 . S
C729 C728 1.399 . S
C729 C730 1.385 . S
C730 H716 0.931 . S
C730 C729 1.385 . S
C730 C731 1.389 . S
C731 C730 1.389 . S
C731 C732 1.387 . S
C732 H717 0.930 . S
C732 C727 1.390 . S
C732 C731 1.387 . S
H733 C745 0.930 . S
H734 C747 0.930 . S
H735 C748 0.930 . S
H736 C752 0.959 . S
H737 C752 0.959 . S
H738 C752 0.961 . S
H739 C753 0.960 . S
H740 C753 0.961 . S
H741 C753 0.959 . S
H742 C756 0.929 . S
H743 C757 0.931 . S
H744 C759 0.930 . S
C745 H733 0.930 . S
C745 C746 1.399 . S
C745 C750 1.399 . S
C746 C745 1.399 . S
C746 C747 1.376 . S
C747 H734 0.930 . S
C747 C746 1.376 . S
C747 C748 1.388 . S
C748 H735 0.930 . S
C748 C747 1.388 . S
C748 C749 1.390 . S
C749 C748 1.390 . S
C749 C750 1.394 . S
C749 C755 1.465 . S
C750 C745 1.399 . S
C750 C749 1.394 . S
C750 C751 1.516 . S
C751 C750 1.516 . S
C751 C752 1.502 . S
C751 C753 1.561 . S
C751 C754 1.526 . S
C752 H736 0.959 . S
C752 H737 0.959 . S
C752 H738 0.961 . S
C752 C751 1.502 . S
C753 H739 0.960 . S
C753 H740 0.961 . S
C753 H741 0.959 . S
C753 C751 1.561 . S
C754 C751 1.526 . S
C754 C755 1.396 . S
C754 C759 1.390 . S
C755 C749 1.465 . S
C755 C754 1.396 . S
C755 C756 1.399 . S
C756 H742 0.929 . S
C756 C755 1.399 . S
C756 C757 1.385 . S
C757 H743 0.931 . S
C757 C756 1.385 . S
C757 C758 1.389 . S
C758 C757 1.389 . S
C758 C759 1.387 . S
C759 H744 0.930 . S
C759 C754 1.390 . S
C759 C758 1.387 . S
H760 C772 0.930 . S
H761 C774 0.930 . S
H762 C775 0.930 . S
H763 C779 0.959 . S
H764 C779 0.959 . S
H765 C779 0.961 . S
H766 C780 0.960 1_655 S
H767 C780 0.961 . S
H768 C780 0.959 . S
H769 C783 0.929 . S
H770 C784 0.931 . S
H771 C786 0.930 . S
C772 H760 0.930 . S
C772 C773 1.399 . S
C772 C777 1.399 . S
C773 C772 1.399 . S
C773 C774 1.376 . S
C774 H761 0.930 . S
C774 C773 1.376 . S
C774 C775 1.388 . S
C775 H762 0.930 . S
C775 C774 1.388 . S
C775 C776 1.390 . S
C776 C775 1.390 . S
C776 C777 1.394 . S
C776 C782 1.465 1_655 S
C777 C772 1.399 . S
C777 C776 1.394 . S
C777 C778 1.516 . S
C778 C777 1.516 . S
C778 C779 1.502 . S
C778 C780 1.561 1_655 S
C778 C781 1.526 1_655 S
C779 H763 0.959 . S
C779 H764 0.959 . S
C779 H765 0.961 . S
C779 C778 1.502 . S
C780 H766 0.960 1_455 S
C780 H767 0.961 . S
C780 H768 0.959 . S
C780 C778 1.561 1_455 S
C781 C778 1.526 1_455 S
C781 C782 1.396 . S
C781 C786 1.390 . S
C782 C776 1.465 1_455 S
C782 C781 1.396 . S
C782 C783 1.399 . S
C783 H769 0.929 . S
C783 C782 1.399 . S
C783 C784 1.385 . S
C784 H770 0.931 . S
C784 C783 1.385 . S
C784 C785 1.389 . S
C785 C784 1.389 . S
C785 C786 1.387 . S
C786 H771 0.930 . S
C786 C781 1.390 . S
C786 C785 1.387 . S
H787 C799 0.930 . S
H788 C801 0.930 . S
H789 C802 0.930 . S
H790 C806 0.959 . S
H791 C806 0.959 . S
H792 C806 0.961 . S
H793 C807 0.960 1_565 S
H794 C807 0.961 . S
H795 C807 0.959 . S
H796 C810 0.929 . S
H797 C811 0.931 . S
H798 C813 0.930 . S
C799 H787 0.930 . S
C799 C800 1.399 . S
C799 C804 1.399 . S
C800 C799 1.399 . S
C800 C801 1.376 . S
C801 H788 0.930 . S
C801 C800 1.376 . S
C801 C802 1.388 . S
C802 H789 0.930 . S
C802 C801 1.388 . S
C802 C803 1.390 . S
C803 C802 1.390 . S
C803 C804 1.394 . S
C803 C809 1.465 1_565 S
C804 C799 1.399 . S
C804 C803 1.394 . S
C804 C805 1.516 . S
C805 C804 1.516 . S
C805 C806 1.502 . S
C805 C807 1.561 1_565 S
C805 C808 1.526 1_565 S
C806 H790 0.959 . S
C806 H791 0.959 . S
C806 H792 0.961 . S
C806 C805 1.502 . S
C807 H793 0.960 1_545 S
C807 H794 0.961 . S
C807 H795 0.959 . S
C807 C805 1.561 1_545 S
C808 C805 1.526 1_545 S
C808 C809 1.396 . S
C808 C813 1.390 . S
C809 C803 1.465 1_545 S
C809 C808 1.396 . S
C809 C810 1.399 . S
C810 H796 0.929 . S
C810 C809 1.399 . S
C810 C811 1.385 . S
C811 H797 0.931 . S
C811 C810 1.385 . S
C811 C812 1.389 . S
C812 C811 1.389 . S
C812 C813 1.387 . S
C813 H798 0.930 . S
C813 C808 1.390 . S
C813 C812 1.387 . S
H814 C826 0.930 . S
H815 C828 0.930 . S
H816 C829 0.930 . S
H817 C833 0.971 . S
H818 C833 0.959 . S
H819 C833 0.970 . S
H820 C834 0.960 . S
H821 C834 0.961 . S
H822 C834 0.959 . S
H823 C837 0.929 . S
H824 C838 0.931 . S
H825 C840 0.930 . S
C826 H814 0.930 . S
C826 C827 1.399 . S
C826 C831 1.399 . S
C827 C826 1.399 . S
C827 C828 1.376 . S
C828 H815 0.930 . S
C828 C827 1.376 . S
C828 C829 1.388 . S
C829 H816 0.930 . S
C829 C828 1.388 . S
C829 C830 1.390 . S
C830 C829 1.390 . S
C830 C831 1.394 . S
C830 C836 1.465 1_455 S
C831 C826 1.399 . S
C831 C830 1.394 . S
C831 C832 1.516 1_455 S
C832 C831 1.516 1_655 S
C832 C833 1.502 . S
C832 C834 1.561 . S
C832 C835 1.526 . S
C833 H817 0.971 . S
C833 H818 0.959 . S
C833 H819 0.970 . S
C833 C832 1.502 . S
C834 H820 0.960 . S
C834 H821 0.961 . S
C834 H822 0.959 . S
C834 C832 1.561 . S
C835 C832 1.526 . S
C835 C836 1.396 . S
C835 C840 1.390 . S
C836 C830 1.465 1_655 S
C836 C835 1.396 . S
C836 C837 1.399 . S
C837 H823 0.929 . S
C837 C836 1.399 . S
C837 C838 1.385 . S
C838 H824 0.931 . S
C838 C837 1.385 . S
C838 C839 1.389 . S
C839 C838 1.389 . S
C839 C840 1.387 . S
C840 H825 0.930 . S
C840 C835 1.390 . S
C840 C839 1.387 . S
H841 C853 0.930 . S
H842 C855 0.930 . S
H843 C856 0.930 . S
H844 C860 0.959 . S
H845 C860 0.959 . S
H846 C860 0.961 . S
H847 C861 0.960 1_545 S
H848 C861 0.961 . S
H849 C861 0.959 . S
H850 C864 0.929 . S
H851 C865 0.931 . S
H852 C867 0.930 . S
C853 H841 0.930 . S
C853 C854 1.399 . S
C853 C858 1.399 . S
C854 C853 1.399 . S
C854 C855 1.376 . S
C855 H842 0.930 . S
C855 C854 1.376 . S
C855 C856 1.388 . S
C856 H843 0.930 . S
C856 C855 1.388 . S
C856 C857 1.390 . S
C857 C856 1.390 . S
C857 C858 1.394 . S
C857 C863 1.465 1_545 S
C858 C853 1.399 . S
C858 C857 1.394 . S
C858 C859 1.516 . S
C859 C858 1.516 . S
C859 C860 1.502 . S
C859 C861 1.561 1_545 S
C859 C862 1.526 1_545 S
C860 H844 0.959 . S
C860 H845 0.959 . S
C860 H846 0.961 . S
C860 C859 1.502 . S
C861 H847 0.960 1_565 S
C861 H848 0.961 . S
C861 H849 0.959 . S
C861 C859 1.561 1_565 S
C862 C859 1.526 1_565 S
C862 C863 1.396 . S
C862 C867 1.390 . S
C863 C857 1.465 1_565 S
C863 C862 1.396 . S
C863 C864 1.399 . S
C864 H850 0.929 . S
C864 C863 1.399 . S
C864 C865 1.385 . S
C865 H851 0.931 . S
C865 C864 1.385 . S
C865 C866 1.389 . S
C866 C865 1.389 . S
C866 C867 1.387 . S
C867 H852 0.930 . S
C867 C862 1.390 . S
C867 C866 1.387 . S
H868 C880 0.930 . S
H869 C882 0.930 . S
H870 C883 0.930 1_655 S
H871 C887 0.959 . S
H872 C887 0.959 . S
H873 C887 0.961 . S
H874 C888 0.960 . S
H875 C888 0.961 1_655 S
H876 C888 0.959 1_655 S
H877 C891 0.929 . S
H878 C892 0.931 . S
H879 C894 0.930 . S
C880 H868 0.930 . S
C880 C881 1.399 . S
C880 C885 1.399 . S
C881 C880 1.399 . S
C881 C882 1.376 . S
C882 H869 0.930 . S
C882 C881 1.376 . S
C882 C883 1.388 . S
C883 H870 0.930 1_455 S
C883 C882 1.388 . S
C883 C884 1.390 . S
C884 C883 1.390 . S
C884 C885 1.394 . S
C884 C890 1.465 1_455 S
C885 C880 1.399 . S
C885 C884 1.394 . S
C885 C886 1.516 . S
C886 C885 1.516 . S
C886 C887 1.502 . S
C886 C888 1.561 . S
C886 C889 1.526 1_455 S
C887 H871 0.959 . S
C887 H872 0.959 . S
C887 H873 0.961 . S
C887 C886 1.502 . S
C888 H874 0.960 . S
C888 H875 0.961 1_455 S
C888 H876 0.959 1_455 S
C888 C886 1.561 . S
C889 C886 1.526 1_655 S
C889 C890 1.396 . S
C889 C894 1.390 . S
C890 C884 1.465 1_655 S
C890 C889 1.396 . S
C890 C891 1.399 . S
C891 H877 0.929 . S
C891 C890 1.399 . S
C891 C892 1.385 . S
C892 H878 0.931 . S
C892 C891 1.385 . S
C892 C893 1.389 . S
C893 C892 1.389 . S
C893 C894 1.387 . S
C894 H879 0.930 . S
C894 C889 1.390 . S
C894 C893 1.387 . S
H895 C907 0.930 . S
H896 C909 0.930 . S
H897 C910 0.930 . S
H898 C914 0.959 . S
H899 C914 0.959 . S
H900 C914 0.961 . S
H901 C915 0.924 1_565 S
H902 C915 0.961 . S
H903 C915 0.959 . S
H904 C918 0.929 . S
H905 C919 0.931 . S
H906 C921 0.930 . S
C907 H895 0.930 . S
C907 C908 1.399 . S
C907 C912 1.399 . S
C908 C907 1.399 . S
C908 C909 1.376 . S
C909 H896 0.930 . S
C909 C908 1.376 . S
C909 C910 1.388 . S
C910 H897 0.930 . S
C910 C909 1.388 . S
C910 C911 1.390 . S
C911 C910 1.390 . S
C911 C912 1.394 . S
C911 C917 1.465 1_565 S
C912 C907 1.399 . S
C912 C911 1.394 . S
C912 C913 1.516 . S
C913 C912 1.516 . S
C913 C914 1.502 . S
C913 C915 1.561 1_565 S
C913 C916 1.526 1_565 S
C914 H898 0.959 . S
C914 H899 0.959 . S
C914 H900 0.961 . S
C914 C913 1.502 . S
C915 H901 0.924 1_545 S
C915 H902 0.961 . S
C915 H903 0.959 . S
C915 C913 1.561 1_545 S
C916 C913 1.526 1_545 S
C916 C917 1.396 . S
C916 C921 1.390 . S
C917 C911 1.465 1_545 S
C917 C916 1.396 . S
C917 C918 1.399 . S
C918 H904 0.929 . S
C918 C917 1.399 . S
C918 C919 1.385 . S
C919 H905 0.931 . S
C919 C918 1.385 . S
C919 C920 1.389 . S
C920 C919 1.389 . S
C920 C921 1.387 . S
C921 H906 0.930 . S
C921 C916 1.390 . S
C921 C920 1.387 . S
H922 C934 0.930 . S
H923 C936 0.930 . S
H924 C937 0.930 1_455 S
H925 C941 0.959 . S
H926 C941 0.959 . S
H927 C941 0.961 . S
H928 C942 0.960 . S
H929 C942 0.961 1_455 S
H930 C942 0.959 1_455 S
H931 C945 0.929 . S
H932 C946 0.931 . S
H933 C948 0.930 . S
C934 H922 0.930 . S
C934 C935 1.399 . S
C934 C939 1.399 . S
C935 C934 1.399 . S
C935 C936 1.376 . S
C936 H923 0.930 . S
C936 C935 1.376 . S
C936 C937 1.388 . S
C937 H924 0.930 1_655 S
C937 C936 1.388 . S
C937 C938 1.390 . S
C938 C937 1.390 . S
C938 C939 1.394 . S
C938 C944 1.465 1_655 S
C939 C934 1.399 . S
C939 C938 1.394 . S
C939 C940 1.516 . S
C940 C939 1.516 . S
C940 C941 1.502 . S
C940 C942 1.561 . S
C940 C943 1.526 1_655 S
C941 H925 0.959 . S
C941 H926 0.959 . S
C941 H927 0.961 . S
C941 C940 1.502 . S
C942 H928 0.960 . S
C942 H929 0.961 1_655 S
C942 H930 0.959 1_655 S
C942 C940 1.561 . S
C943 C940 1.526 1_455 S
C943 C944 1.396 . S
C943 C948 1.390 . S
C944 C938 1.465 1_455 S
C944 C943 1.396 . S
C944 C945 1.399 . S
C945 H931 0.929 . S
C945 C944 1.399 . S
C945 C946 1.385 . S
C946 H932 0.931 . S
C946 C945 1.385 . S
C946 C947 1.389 . S
C947 C946 1.389 . S
C947 C948 1.387 . S
C948 H933 0.930 . S
C948 C943 1.390 . S
C948 C947 1.387 . S
H949 C961 0.930 . S
H950 C963 0.930 . S
H951 C964 0.930 . S
H952 C968 0.959 . S
H953 C968 0.959 . S
H954 C968 0.961 . S
H955 C969 0.960 . S
H956 C969 0.961 . S
H957 C969 0.959 . S
H958 C972 0.929 . S
H959 C973 0.931 . S
H960 C975 0.930 . S
C961 H949 0.930 . S
C961 C962 1.399 . S
C961 C966 1.399 . S
C962 C961 1.399 . S
C962 C963 1.376 . S
C963 H950 0.930 . S
C963 C962 1.376 . S
C963 C964 1.388 . S
C964 H951 0.930 . S
C964 C963 1.388 . S
C964 C965 1.390 . S
C965 C964 1.390 . S
C965 C966 1.394 . S
C965 C971 1.465 1_545 S
C966 C961 1.399 . S
C966 C965 1.394 . S
C966 C967 1.537 . S
C967 C966 1.537 . S
C967 C968 1.522 . S
C967 C969 1.542 1_545 S
C967 C970 1.503 1_545 S
C968 H952 0.959 . S
C968 H953 0.959 . S
C968 H954 0.961 . S
C968 C967 1.522 . S
C969 H955 0.960 . S
C969 H956 0.961 . S
C969 H957 0.959 . S
C969 C967 1.542 1_565 S
C970 C967 1.503 1_565 S
C970 C971 1.396 . S
C970 C975 1.390 . S
C971 C965 1.465 1_565 S
C971 C970 1.396 . S
C971 C972 1.399 . S
C972 H958 0.929 . S
C972 C971 1.399 . S
C972 C973 1.385 . S
C973 H959 0.931 . S
C973 C972 1.385 . S
C973 C974 1.389 . S
C974 C973 1.389 . S
C974 C975 1.387 . S
C975 H960 0.930 . S
C975 C970 1.390 . S
C975 C974 1.387 . S
H976 C988 0.930 . S
H977 C990 0.930 . S
H978 C991 0.930 . S
H979 C995 0.959 . S
H980 C995 0.959 . S
H981 C995 0.961 . S
H982 C996 0.960 . S
H983 C996 0.961 . S
H984 C996 0.959 . S
H985 C999 0.929 . S
H986 C1000 0.931 . S
H987 C1002 0.930 . S
C988 H976 0.930 . S
C988 C989 1.399 . S
C988 C993 1.399 . S
C989 C988 1.399 . S
C989 C990 1.376 . S
C990 H977 0.930 . S
C990 C989 1.376 . S
C990 C991 1.388 . S
C991 H978 0.930 . S
C991 C990 1.388 . S
C991 C992 1.390 . S
C992 C991 1.390 . S
C992 C993 1.394 . S
C992 C998 1.465 . S
C993 C988 1.399 . S
C993 C992 1.394 . S
C993 C994 1.516 . S
C994 C993 1.516 . S
C994 C995 1.502 . S
C994 C996 1.561 . S
C994 C997 1.526 . S
C995 H979 0.959 . S
C995 H980 0.959 . S
C995 H981 0.961 . S
C995 C994 1.502 . S
C996 H982 0.960 . S
C996 H983 0.961 . S
C996 H984 0.959 . S
C996 C994 1.561 . S
C997 C994 1.526 . S
C997 C998 1.396 . S
C997 C1002 1.390 . S
C998 C992 1.465 . S
C998 C997 1.396 . S
C998 C999 1.399 . S
C999 H985 0.929 . S
C999 C998 1.399 . S
C999 C1000 1.385 . S
C1000 H986 0.931 . S
C1000 C999 1.385 . S
C1000 C1001 1.389 . S
C1001 C1000 1.389 . S
C1001 C1002 1.387 . S
C1002 H987 0.930 . S
C1002 C997 1.390 . S
C1002 C1001 1.387 . S
H1003 C1015 0.930 . S
H1004 C1017 0.930 . S
H1005 C1018 0.930 . S
H1006 C1022 0.959 . S
H1007 C1022 0.959 . S
H1008 C1022 0.961 . S
H1009 C1023 0.960 . S
H1010 C1023 0.961 . S
H1011 C1023 0.959 . S
H1012 C1026 0.929 . S
H1013 C1027 0.931 . S
H1014 C1029 0.930 . S
C1015 H1003 0.930 . S
C1015 C1016 1.399 . S
C1015 C1020 1.399 . S
C1016 C1015 1.399 . S
C1016 C1017 1.376 . S
C1017 H1004 0.930 . S
C1017 C1016 1.376 . S
C1017 C1018 1.388 . S
C1018 H1005 0.930 . S
C1018 C1017 1.388 . S
C1018 C1019 1.390 . S
C1019 C1018 1.390 . S
C1019 C1020 1.394 . S
C1019 C1025 1.465 . S
C1020 C1015 1.399 . S
C1020 C1019 1.394 . S
C1020 C1021 1.516 . S
C1021 C1020 1.516 . S
C1021 C1022 1.502 . S
C1021 C1023 1.561 . S
C1021 C1024 1.526 . S
C1022 H1006 0.959 . S
C1022 H1007 0.959 . S
C1022 H1008 0.961 . S
C1022 C1021 1.502 . S
C1023 H1009 0.960 . S
C1023 H1010 0.961 . S
C1023 H1011 0.959 . S
C1023 C1021 1.561 . S
C1024 C1021 1.526 . S
C1024 C1025 1.396 . S
C1024 C1029 1.390 . S
C1025 C1019 1.465 . S
C1025 C1024 1.396 . S
C1025 C1026 1.399 . S
C1026 H1012 0.929 . S
C1026 C1025 1.399 . S
C1026 C1027 1.385 . S
C1027 H1013 0.931 . S
C1027 C1026 1.385 . S
C1027 C1028 1.389 . S
C1028 C1027 1.389 . S
C1028 C1029 1.387 . S
C1029 H1014 0.930 . S
C1029 C1024 1.390 . S
C1029 C1028 1.387 . S
H1030 C1042 0.930 . S
H1031 C1044 0.930 . S
H1032 C1045 0.930 . S
H1033 C1049 0.959 . S
H1034 C1049 0.959 . S
H1035 C1049 0.961 . S
H1036 C1050 0.960 . S
H1037 C1050 0.961 . S
H1038 C1050 0.959 . S
H1039 C1053 0.929 . S
H1040 C1054 0.931 . S
H1041 C1056 0.930 . S
C1042 H1030 0.930 . S
C1042 C1043 1.399 . S
C1042 C1047 1.399 . S
C1043 C1042 1.399 . S
C1043 C1044 1.376 . S
C1044 H1031 0.930 . S
C1044 C1043 1.376 . S
C1044 C1045 1.388 . S
C1045 H1032 0.930 . S
C1045 C1044 1.388 . S
C1045 C1046 1.390 . S
C1046 C1045 1.390 . S
C1046 C1047 1.394 . S
C1046 C1052 1.465 . S
C1047 C1042 1.399 . S
C1047 C1046 1.394 . S
C1047 C1048 1.516 . S
C1048 C1047 1.516 . S
C1048 C1049 1.502 . S
C1048 C1050 1.561 . S
C1048 C1051 1.526 . S
C1049 H1033 0.959 . S
C1049 H1034 0.959 . S
C1049 H1035 0.961 . S
C1049 C1048 1.502 . S
C1050 H1036 0.960 . S
C1050 H1037 0.961 . S
C1050 H1038 0.959 . S
C1050 C1048 1.561 . S
C1051 C1048 1.526 . S
C1051 C1052 1.396 . S
C1051 C1056 1.390 . S
C1052 C1046 1.465 . S
C1052 C1051 1.396 . S
C1052 C1053 1.399 . S
C1053 H1039 0.929 . S
C1053 C1052 1.399 . S
C1053 C1054 1.385 . S
C1054 H1040 0.931 . S
C1054 C1053 1.385 . S
C1054 C1055 1.389 . S
C1055 C1054 1.389 . S
C1055 C1056 1.387 . S
C1056 H1041 0.930 . S
C1056 C1051 1.390 . S
C1056 C1055 1.387 . S
H1057 C1069 0.930 . S
H1058 C1071 0.930 . S
H1059 C1072 0.930 . S
H1060 C1076 0.959 . S
H1061 C1076 0.959 . S
H1062 C1076 0.961 . S
H1063 C1077 0.960 . S
H1064 C1077 0.961 . S
H1065 C1077 0.959 . S
H1066 C1080 0.929 . S
H1067 C1081 0.931 . S
H1068 C1083 0.930 . S
C1069 H1057 0.930 . S
C1069 C1070 1.399 . S
C1069 C1074 1.399 . S
C1070 C1069 1.399 . S
C1070 C1071 1.376 . S
C1071 H1058 0.930 . S
C1071 C1070 1.376 . S
C1071 C1072 1.388 . S
C1072 H1059 0.930 . S
C1072 C1071 1.388 . S
C1072 C1073 1.390 . S
C1073 C1072 1.390 . S
C1073 C1074 1.394 . S
C1073 C1079 1.465 . S
C1074 C1069 1.399 . S
C1074 C1073 1.394 . S
C1074 C1075 1.516 . S
C1075 C1074 1.516 . S
C1075 C1076 1.502 . S
C1075 C1077 1.561 . S
C1075 C1078 1.526 . S
C1076 H1060 0.959 . S
C1076 H1061 0.959 . S
C1076 H1062 0.961 . S
C1076 C1075 1.502 . S
C1077 H1063 0.960 . S
C1077 H1064 0.961 . S
C1077 H1065 0.959 . S
C1077 C1075 1.561 . S
C1078 C1075 1.526 . S
C1078 C1079 1.396 . S
C1078 C1083 1.390 . S
C1079 C1073 1.465 . S
C1079 C1078 1.396 . S
C1079 C1080 1.399 . S
C1080 H1066 0.929 . S
C1080 C1079 1.399 . S
C1080 C1081 1.385 . S
C1081 H1067 0.931 . S
C1081 C1080 1.385 . S
C1081 C1082 1.389 . S
C1082 C1081 1.389 . S
C1082 C1083 1.387 . S
C1083 H1068 0.930 . S
C1083 C1078 1.390 . S
C1083 C1082 1.387 . S
H1084 C1096 0.930 . S
H1085 C1098 0.930 . S
H1086 C1099 0.930 . S
H1087 C1103 0.959 . S
H1088 C1103 0.959 . S
H1089 C1103 0.961 . S
H1090 C1104 0.960 . S
H1091 C1104 0.961 . S
H1092 C1104 0.959 . S
H1093 C1107 0.929 . S
H1094 C1108 0.931 . S
H1095 C1110 0.930 . S
C1096 H1084 0.930 . S
C1096 C1097 1.399 . S
C1096 C1101 1.399 . S
C1097 C1096 1.399 . S
C1097 C1098 1.376 . S
C1098 H1085 0.930 . S
C1098 C1097 1.376 . S
C1098 C1099 1.388 . S
C1099 H1086 0.930 . S
C1099 C1098 1.388 . S
C1099 C1100 1.390 . S
C1100 C1099 1.390 . S
C1100 C1101 1.394 . S
C1100 C1106 1.465 . S
C1101 C1096 1.399 . S
C1101 C1100 1.394 . S
C1101 C1102 1.516 . S
C1102 C1101 1.516 . S
C1102 C1103 1.502 . S
C1102 C1104 1.561 . S
C1102 C1105 1.526 . S
C1103 H1087 0.959 . S
C1103 H1088 0.959 . S
C1103 H1089 0.961 . S
C1103 C1102 1.502 . S
C1104 H1090 0.960 . S
C1104 H1091 0.961 . S
C1104 H1092 0.959 . S
C1104 C1102 1.561 . S
C1105 C1102 1.526 . S
C1105 C1106 1.396 . S
C1105 C1110 1.390 . S
C1106 C1100 1.465 . S
C1106 C1105 1.396 . S
C1106 C1107 1.399 . S
C1107 H1093 0.929 . S
C1107 C1106 1.399 . S
C1107 C1108 1.385 . S
C1108 H1094 0.931 . S
C1108 C1107 1.385 . S
C1108 C1109 1.389 . S
C1109 C1108 1.389 . S
C1109 C1110 1.387 . S
C1110 H1095 0.930 . S
C1110 C1105 1.390 . S
C1110 C1109 1.387 . S
H1111 C1123 0.930 . S
H1112 C1125 0.930 . S
H1113 C1126 0.930 . S
H1114 C1130 0.959 . S
H1115 C1130 0.959 . S
H1116 C1130 0.961 . S
H1117 C1131 0.960 . S
H1118 C1131 0.961 . S
H1119 C1131 0.959 . S
H1120 C1134 0.929 . S
H1121 C1135 0.931 . S
H1122 C1137 0.930 . S
C1123 H1111 0.930 . S
C1123 C1124 1.399 . S
C1123 C1128 1.399 . S
C1124 C1123 1.399 . S
C1124 C1125 1.376 . S
C1125 H1112 0.930 . S
C1125 C1124 1.376 . S
C1125 C1126 1.388 . S
C1126 H1113 0.930 . S
C1126 C1125 1.388 . S
C1126 C1127 1.390 . S
C1127 C1126 1.390 . S
C1127 C1128 1.394 . S
C1127 C1133 1.465 . S
C1128 C1123 1.399 . S
C1128 C1127 1.394 . S
C1128 C1129 1.516 . S
C1129 C1128 1.516 . S
C1129 C1130 1.502 . S
C1129 C1131 1.561 . S
C1129 C1132 1.526 . S
C1130 H1114 0.959 . S
C1130 H1115 0.959 . S
C1130 H1116 0.961 . S
C1130 C1129 1.502 . S
C1131 H1117 0.960 . S
C1131 H1118 0.961 . S
C1131 H1119 0.959 . S
C1131 C1129 1.561 . S
C1132 C1129 1.526 . S
C1132 C1133 1.396 . S
C1132 C1137 1.390 . S
C1133 C1127 1.465 . S
C1133 C1132 1.396 . S
C1133 C1134 1.399 . S
C1134 H1120 0.929 . S
C1134 C1133 1.399 . S
C1134 C1135 1.385 . S
C1135 H1121 0.931 . S
C1135 C1134 1.385 . S
C1135 C1136 1.389 . S
C1136 C1135 1.389 . S
C1136 C1137 1.387 . S
C1137 H1122 0.930 . S
C1137 C1132 1.390 . S
C1137 C1136 1.387 . S
H1138 C1150 0.930 . S
H1139 C1152 0.930 . S
H1140 C1153 0.930 . S
H1141 C1157 0.959 . S
H1142 C1157 0.959 . S
H1143 C1157 0.961 . S
H1144 C1158 0.960 . S
H1145 C1158 0.961 . S
H1146 C1158 0.959 . S
H1147 C1161 0.929 . S
H1148 C1162 0.931 . S
H1149 C1164 0.930 . S
C1150 H1138 0.930 . S
C1150 C1151 1.399 . S
C1150 C1155 1.399 . S
C1151 C1150 1.399 . S
C1151 C1152 1.376 . S
C1152 H1139 0.930 . S
C1152 C1151 1.376 . S
C1152 C1153 1.388 . S
C1153 H1140 0.930 . S
C1153 C1152 1.388 . S
C1153 C1154 1.390 . S
C1154 C1153 1.390 . S
C1154 C1155 1.394 . S
C1154 C1160 1.465 . S
C1155 C1150 1.399 . S
C1155 C1154 1.394 . S
C1155 C1156 1.516 . S
C1156 C1155 1.516 . S
C1156 C1157 1.502 . S
C1156 C1158 1.561 . S
C1156 C1159 1.526 . S
C1157 H1141 0.959 . S
C1157 H1142 0.959 . S
C1157 H1143 0.961 . S
C1157 C1156 1.502 . S
C1158 H1144 0.960 . S
C1158 H1145 0.961 . S
C1158 H1146 0.959 . S
C1158 C1156 1.561 . S
C1159 C1156 1.526 . S
C1159 C1160 1.396 . S
C1159 C1164 1.390 . S
C1160 C1154 1.465 . S
C1160 C1159 1.396 . S
C1160 C1161 1.399 . S
C1161 H1147 0.929 . S
C1161 C1160 1.399 . S
C1161 C1162 1.385 . S
C1162 H1148 0.931 . S
C1162 C1161 1.385 . S
C1162 C1163 1.389 . S
C1163 C1162 1.389 . S
C1163 C1164 1.387 . S
C1164 H1149 0.930 . S
C1164 C1159 1.390 . S
C1164 C1163 1.387 . S
H1165 C1177 0.930 . S
H1166 C1179 0.930 . S
H1167 C1180 0.930 . S
H1168 C1184 0.959 . S
H1169 C1184 0.959 . S
H1170 C1184 0.961 . S
H1171 C1185 0.960 . S
H1172 C1185 0.961 . S
H1173 C1185 0.959 . S
H1174 C1188 0.929 . S
H1175 C1189 0.931 . S
H1176 C1191 0.930 . S
C1177 H1165 0.930 . S
C1177 C1178 1.399 . S
C1177 C1182 1.399 . S
C1178 C1177 1.399 . S
C1178 C1179 1.376 . S
C1179 H1166 0.930 . S
C1179 C1178 1.376 . S
C1179 C1180 1.388 . S
C1180 H1167 0.930 . S
C1180 C1179 1.388 . S
C1180 C1181 1.390 . S
C1181 C1180 1.390 . S
C1181 C1182 1.394 . S
C1181 C1187 1.465 . S
C1182 C1177 1.399 . S
C1182 C1181 1.394 . S
C1182 C1183 1.516 . S
C1183 C1182 1.516 . S
C1183 C1184 1.502 . S
C1183 C1185 1.561 . S
C1183 C1186 1.526 . S
C1184 H1168 0.959 . S
C1184 H1169 0.959 . S
C1184 H1170 0.961 . S
C1184 C1183 1.502 . S
C1185 H1171 0.960 . S
C1185 H1172 0.961 . S
C1185 H1173 0.959 . S
C1185 C1183 1.561 . S
C1186 C1183 1.526 . S
C1186 C1187 1.396 . S
C1186 C1191 1.390 . S
C1187 C1181 1.465 . S
C1187 C1186 1.396 . S
C1187 C1188 1.399 . S
C1188 H1174 0.929 . S
C1188 C1187 1.399 . S
C1188 C1189 1.385 . S
C1189 H1175 0.931 . S
C1189 C1188 1.385 . S
C1189 C1190 1.389 . S
C1190 C1189 1.389 . S
C1190 C1191 1.387 . S
C1191 H1176 0.930 . S
C1191 C1186 1.390 . S
C1191 C1190 1.387 . S
H1192 C1204 0.930 . S
H1193 C1206 0.930 . S
H1194 C1207 0.930 . S
H1195 C1211 0.959 . S
H1196 C1211 0.959 . S
H1197 C1211 0.961 . S
H1198 C1212 0.960 . S
H1199 C1212 0.961 . S
H1200 C1212 0.959 . S
H1201 C1215 0.929 . S
H1202 C1216 0.931 . S
H1203 C1218 0.930 . S
C1204 H1192 0.930 . S
C1204 C1205 1.399 . S
C1204 C1209 1.399 . S
C1205 C1204 1.399 . S
C1205 C1206 1.376 . S
C1206 H1193 0.930 . S
C1206 C1205 1.376 . S
C1206 C1207 1.388 . S
C1207 H1194 0.930 . S
C1207 C1206 1.388 . S
C1207 C1208 1.390 . S
C1208 C1207 1.390 . S
C1208 C1209 1.394 . S
C1208 C1214 1.465 . S
C1209 C1204 1.399 . S
C1209 C1208 1.394 . S
C1209 C1210 1.516 . S
C1210 C1209 1.516 . S
C1210 C1211 1.502 . S
C1210 C1212 1.561 . S
C1210 C1213 1.526 . S
C1211 H1195 0.959 . S
C1211 H1196 0.959 . S
C1211 H1197 0.961 . S
C1211 C1210 1.502 . S
C1212 H1198 0.960 . S
C1212 H1199 0.961 . S
C1212 H1200 0.959 . S
C1212 C1210 1.561 . S
C1213 C1210 1.526 . S
C1213 C1214 1.396 . S
C1213 C1218 1.390 . S
C1214 C1208 1.465 . S
C1214 C1213 1.396 . S
C1214 C1215 1.399 . S
C1215 H1201 0.929 . S
C1215 C1214 1.399 . S
C1215 C1216 1.385 . S
C1216 H1202 0.931 . S
C1216 C1215 1.385 . S
C1216 C1217 1.389 . S
C1217 C1216 1.389 . S
C1217 C1218 1.387 . S
C1218 H1203 0.930 . S
C1218 C1213 1.390 . S
C1218 C1217 1.387 . S
H1219 C1231 0.930 . S
H1220 C1233 0.930 . S
H1221 C1234 0.930 . S
H1222 C1238 0.959 . S
H1223 C1238 0.959 . S
H1224 C1238 0.961 . S
H1225 C1239 0.960 . S
H1226 C1239 0.961 . S
H1227 C1239 0.959 . S
H1228 C1242 0.929 . S
H1229 C1243 0.931 . S
H1230 C1245 0.930 . S
C1231 H1219 0.930 . S
C1231 C1232 1.399 . S
C1231 C1236 1.399 . S
C1232 C1231 1.399 . S
C1232 C1233 1.376 . S
C1233 H1220 0.930 . S
C1233 C1232 1.376 . S
C1233 C1234 1.388 . S
C1234 H1221 0.930 . S
C1234 C1233 1.388 . S
C1234 C1235 1.390 . S
C1235 C1234 1.390 . S
C1235 C1236 1.394 . S
C1235 C1241 1.465 . S
C1236 C1231 1.399 . S
C1236 C1235 1.394 . S
C1236 C1237 1.516 . S
C1237 C1236 1.516 . S
C1237 C1238 1.502 . S
C1237 C1239 1.561 . S
C1237 C1240 1.526 . S
C1238 H1222 0.959 . S
C1238 H1223 0.959 . S
C1238 H1224 0.961 . S
C1238 C1237 1.502 . S
C1239 H1225 0.960 . S
C1239 H1226 0.961 . S
C1239 H1227 0.959 . S
C1239 C1237 1.561 . S
C1240 C1237 1.526 . S
C1240 C1241 1.396 . S
C1240 C1245 1.390 . S
C1241 C1235 1.465 . S
C1241 C1240 1.396 . S
C1241 C1242 1.399 . S
C1242 H1228 0.929 . S
C1242 C1241 1.399 . S
C1242 C1243 1.385 . S
C1243 H1229 0.931 . S
C1243 C1242 1.385 . S
C1243 C1244 1.389 . S
C1244 C1243 1.389 . S
C1244 C1245 1.387 . S
C1245 H1230 0.930 . S
C1245 C1240 1.390 . S
C1245 C1244 1.387 . S
H1246 C1258 0.930 . S
H1247 C1260 0.930 . S
H1248 C1261 0.930 . S
H1249 C1265 0.959 . S
H1250 C1265 0.959 . S
H1251 C1265 0.961 . S
H1252 C1266 0.960 . S
H1253 C1266 0.961 . S
H1254 C1266 0.959 . S
H1255 C1269 0.929 . S
H1256 C1270 0.931 . S
H1257 C1272 0.930 . S
C1258 H1246 0.930 . S
C1258 C1259 1.399 . S
C1258 C1263 1.399 . S
C1259 C1258 1.399 . S
C1259 C1260 1.376 . S
C1260 H1247 0.930 . S
C1260 C1259 1.376 . S
C1260 C1261 1.388 . S
C1261 H1248 0.930 . S
C1261 C1260 1.388 . S
C1261 C1262 1.390 . S
C1262 C1261 1.390 . S
C1262 C1263 1.394 . S
C1262 C1268 1.465 . S
C1263 C1258 1.399 . S
C1263 C1262 1.394 . S
C1263 C1264 1.516 . S
C1264 C1263 1.516 . S
C1264 C1265 1.502 . S
C1264 C1266 1.561 . S
C1264 C1267 1.526 . S
C1265 H1249 0.959 . S
C1265 H1250 0.959 . S
C1265 H1251 0.961 . S
C1265 C1264 1.502 . S
C1266 H1252 0.960 . S
C1266 H1253 0.961 . S
C1266 H1254 0.959 . S
C1266 C1264 1.561 . S
C1267 C1264 1.526 . S
C1267 C1268 1.396 . S
C1267 C1272 1.390 . S
C1268 C1262 1.465 . S
C1268 C1267 1.396 . S
C1268 C1269 1.399 . S
C1269 H1255 0.929 . S
C1269 C1268 1.399 . S
C1269 C1270 1.385 . S
C1270 H1256 0.931 . S
C1270 C1269 1.385 . S
C1270 C1271 1.389 . S
C1271 C1270 1.389 . S
C1271 C1272 1.387 . S
C1272 H1257 0.930 . S
C1272 C1267 1.390 . S
C1272 C1271 1.387 . S
H1273 C1285 0.930 . S
H1274 C1287 0.930 . S
H1275 C1288 0.930 . S
H1276 C1292 0.959 . S
H1277 C1292 0.959 . S
H1278 C1292 0.961 . S
H1279 C1293 0.960 . S
H1280 C1293 0.961 . S
H1281 C1293 0.959 . S
H1282 C1296 0.929 . S
H1283 C1297 0.931 . S
H1284 C1299 0.930 . S
C1285 H1273 0.930 . S
C1285 C1286 1.399 . S
C1285 C1290 1.399 . S
C1286 C1285 1.399 . S
C1286 C1287 1.376 . S
C1287 H1274 0.930 . S
C1287 C1286 1.376 . S
C1287 C1288 1.388 . S
C1288 H1275 0.930 . S
C1288 C1287 1.388 . S
C1288 C1289 1.390 . S
C1289 C1288 1.390 . S
C1289 C1290 1.394 . S
C1289 C1295 1.465 . S
C1290 C1285 1.399 . S
C1290 C1289 1.394 . S
C1290 C1291 1.516 . S
C1291 C1290 1.516 . S
C1291 C1292 1.502 . S
C1291 C1293 1.561 . S
C1291 C1294 1.526 . S
C1292 H1276 0.959 . S
C1292 H1277 0.959 . S
C1292 H1278 0.961 . S
C1292 C1291 1.502 . S
C1293 H1279 0.960 . S
C1293 H1280 0.961 . S
C1293 H1281 0.959 . S
C1293 C1291 1.561 . S
C1294 C1291 1.526 . S
C1294 C1295 1.396 . S
C1294 C1299 1.390 . S
C1295 C1289 1.465 . S
C1295 C1294 1.396 . S
C1295 C1296 1.399 . S
C1296 H1282 0.929 . S
C1296 C1295 1.399 . S
C1296 C1297 1.385 . S
C1297 H1283 0.931 . S
C1297 C1296 1.385 . S
C1297 C1298 1.389 . S
C1298 C1297 1.389 . S
C1298 C1299 1.387 . S
C1299 H1284 0.930 . S
C1299 C1294 1.390 . S
C1299 C1298 1.387 . S
H1300 C1312 0.930 . S
H1301 C1314 0.930 . S
H1302 C1315 0.930 . S
H1303 C1319 0.959 . S
H1304 C1319 0.959 . S
H1305 C1319 0.961 . S
H1306 C1320 0.960 . S
H1307 C1320 0.961 . S
H1308 C1320 0.959 . S
H1309 C1323 0.929 . S
H1310 C1324 0.931 . S
H1311 C1326 0.930 . S
C1312 H1300 0.930 . S
C1312 C1313 1.399 . S
C1312 C1317 1.399 . S
C1313 C1312 1.399 . S
C1313 C1314 1.376 . S
C1314 H1301 0.930 . S
C1314 C1313 1.376 . S
C1314 C1315 1.388 . S
C1315 H1302 0.930 . S
C1315 C1314 1.388 . S
C1315 C1316 1.390 . S
C1316 C1315 1.390 . S
C1316 C1317 1.394 . S
C1316 C1322 1.465 . S
C1317 C1312 1.399 . S
C1317 C1316 1.394 . S
C1317 C1318 1.516 . S
C1318 C1317 1.516 . S
C1318 C1319 1.502 . S
C1318 C1320 1.561 . S
C1318 C1321 1.526 . S
C1319 H1303 0.959 . S
C1319 H1304 0.959 . S
C1319 H1305 0.961 . S
C1319 C1318 1.502 . S
C1320 H1306 0.960 . S
C1320 H1307 0.961 . S
C1320 H1308 0.959 . S
C1320 C1318 1.561 . S
C1321 C1318 1.526 . S
C1321 C1322 1.396 . S
C1321 C1326 1.390 . S
C1322 C1316 1.465 . S
C1322 C1321 1.396 . S
C1322 C1323 1.399 . S
C1323 H1309 0.929 . S
C1323 C1322 1.399 . S
C1323 C1324 1.385 . S
C1324 H1310 0.931 . S
C1324 C1323 1.385 . S
C1324 C1325 1.389 . S
C1325 C1324 1.389 . S
C1325 C1326 1.387 . S
C1326 H1311 0.930 . S
C1326 C1321 1.390 . S
C1326 C1325 1.387 . S
H1327 C1339 0.930 . S
H1328 C1341 0.930 . S
H1329 C1342 0.930 . S
H1330 C1346 0.959 . S
H1331 C1346 0.959 . S
H1332 C1346 0.961 . S
H1333 C1347 0.960 . S
H1334 C1347 0.961 . S
H1335 C1347 0.959 . S
H1336 C1350 0.929 . S
H1337 C1351 0.931 . S
H1338 C1353 0.930 . S
C1339 H1327 0.930 . S
C1339 C1340 1.399 . S
C1339 C1344 1.399 . S
C1340 C1339 1.399 . S
C1340 C1341 1.376 . S
C1341 H1328 0.930 . S
C1341 C1340 1.376 . S
C1341 C1342 1.388 . S
C1342 H1329 0.930 . S
C1342 C1341 1.388 . S
C1342 C1343 1.390 . S
C1343 C1342 1.390 . S
C1343 C1344 1.394 . S
C1343 C1349 1.465 . S
C1344 C1339 1.399 . S
C1344 C1343 1.394 . S
C1344 C1345 1.516 . S
C1345 C1344 1.516 . S
C1345 C1346 1.502 . S
C1345 C1347 1.561 . S
C1345 C1348 1.526 . S
C1346 H1330 0.959 . S
C1346 H1331 0.959 . S
C1346 H1332 0.961 . S
C1346 C1345 1.502 . S
C1347 H1333 0.960 . S
C1347 H1334 0.961 . S
C1347 H1335 0.959 . S
C1347 C1345 1.561 . S
C1348 C1345 1.526 . S
C1348 C1349 1.396 . S
C1348 C1353 1.390 . S
C1349 C1343 1.465 . S
C1349 C1348 1.396 . S
C1349 C1350 1.399 . S
C1350 H1336 0.929 . S
C1350 C1349 1.399 . S
C1350 C1351 1.385 . S
C1351 H1337 0.931 . S
C1351 C1350 1.385 . S
C1351 C1352 1.389 . S
C1352 C1351 1.389 . S
C1352 C1353 1.387 . S
C1353 H1338 0.930 . S
C1353 C1348 1.390 . S
C1353 C1352 1.387 . S
H1354 C1366 0.930 . S
H1355 C1368 0.930 . S
H1356 C1369 0.930 . S
H1357 C1373 0.959 . S
H1358 C1373 0.959 . S
H1359 C1373 0.961 . S
H1360 C1374 0.960 . S
H1361 C1374 0.961 . S
H1362 C1374 0.959 . S
H1363 C1377 0.929 . S
H1364 C1378 0.931 . S
H1365 C1380 0.930 . S
C1366 H1354 0.930 . S
C1366 C1367 1.399 . S
C1366 C1371 1.399 . S
C1367 C1366 1.399 . S
C1367 C1368 1.376 . S
C1368 H1355 0.930 . S
C1368 C1367 1.376 . S
C1368 C1369 1.388 . S
C1369 H1356 0.930 . S
C1369 C1368 1.388 . S
C1369 C1370 1.390 . S
C1370 C1369 1.390 . S
C1370 C1371 1.394 . S
C1370 C1376 1.465 . S
C1371 C1366 1.399 . S
C1371 C1370 1.394 . S
C1371 C1372 1.516 . S
C1372 C1371 1.516 . S
C1372 C1373 1.502 . S
C1372 C1374 1.561 . S
C1372 C1375 1.526 . S
C1373 H1357 0.959 . S
C1373 H1358 0.959 . S
C1373 H1359 0.961 . S
C1373 C1372 1.502 . S
C1374 H1360 0.960 . S
C1374 H1361 0.961 . S
C1374 H1362 0.959 . S
C1374 C1372 1.561 . S
C1375 C1372 1.526 . S
C1375 C1376 1.396 . S
C1375 C1380 1.390 . S
C1376 C1370 1.465 . S
C1376 C1375 1.396 . S
C1376 C1377 1.399 . S
C1377 H1363 0.929 . S
C1377 C1376 1.399 . S
C1377 C1378 1.385 . S
C1378 H1364 0.931 . S
C1378 C1377 1.385 . S
C1378 C1379 1.389 . S
C1379 C1378 1.389 . S
C1379 C1380 1.387 . S
C1380 H1365 0.930 . S
C1380 C1375 1.390 . S
C1380 C1379 1.387 . S
H1381 C1393 0.930 . S
H1382 C1395 0.930 . S
H1383 C1396 0.930 . S
H1384 C1400 0.959 . S
H1385 C1400 0.959 . S
H1386 C1400 0.961 . S
H1387 C1401 0.960 . S
H1388 C1401 0.961 . S
H1389 C1401 0.959 . S
H1390 C1404 0.929 . S
H1391 C1405 0.931 . S
H1392 C1407 0.930 . S
C1393 H1381 0.930 . S
C1393 C1394 1.399 . S
C1393 C1398 1.399 . S
C1394 C1393 1.399 . S
C1394 C1395 1.376 . S
C1395 H1382 0.930 . S
C1395 C1394 1.376 . S
C1395 C1396 1.388 . S
C1396 H1383 0.930 . S
C1396 C1395 1.388 . S
C1396 C1397 1.390 . S
C1397 C1396 1.390 . S
C1397 C1398 1.394 . S
C1397 C1403 1.465 . S
C1398 C1393 1.399 . S
C1398 C1397 1.394 . S
C1398 C1399 1.516 . S
C1399 C1398 1.516 . S
C1399 C1400 1.502 . S
C1399 C1401 1.561 . S
C1399 C1402 1.526 . S
C1400 H1384 0.959 . S
C1400 H1385 0.959 . S
C1400 H1386 0.961 . S
C1400 C1399 1.502 . S
C1401 H1387 0.960 . S
C1401 H1388 0.961 . S
C1401 H1389 0.959 . S
C1401 C1399 1.561 . S
C1402 C1399 1.526 . S
C1402 C1403 1.396 . S
C1402 C1407 1.390 . S
C1403 C1397 1.465 . S
C1403 C1402 1.396 . S
C1403 C1404 1.399 . S
C1404 H1390 0.929 . S
C1404 C1403 1.399 . S
C1404 C1405 1.385 . S
C1405 H1391 0.931 . S
C1405 C1404 1.385 . S
C1405 C1406 1.389 . S
C1406 C1405 1.389 . S
C1406 C1407 1.387 . S
C1407 H1392 0.930 . S
C1407 C1402 1.390 . S
C1407 C1406 1.387 . S
H1408 C1420 0.930 . S
H1409 C1422 0.930 . S
H1410 C1423 0.930 . S
H1411 C1427 0.959 . S
H1412 C1427 0.959 . S
H1413 C1427 0.961 . S
H1414 C1428 0.960 . S
H1415 C1428 0.961 . S
H1416 C1428 0.959 . S
H1417 C1431 0.929 . S
H1418 C1432 0.931 . S
H1419 C1434 0.930 . S
C1420 H1408 0.930 . S
C1420 C1421 1.399 . S
C1420 C1425 1.399 . S
C1421 C1420 1.399 . S
C1421 C1422 1.376 . S
C1422 H1409 0.930 . S
C1422 C1421 1.376 . S
C1422 C1423 1.388 . S
C1423 H1410 0.930 . S
C1423 C1422 1.388 . S
C1423 C1424 1.390 . S
C1424 C1423 1.390 . S
C1424 C1425 1.394 . S
C1424 C1430 1.465 . S
C1425 C1420 1.399 . S
C1425 C1424 1.394 . S
C1425 C1426 1.516 . S
C1426 C1425 1.516 . S
C1426 C1427 1.502 . S
C1426 C1428 1.561 . S
C1426 C1429 1.526 . S
C1427 H1411 0.959 . S
C1427 H1412 0.959 . S
C1427 H1413 0.961 . S
C1427 C1426 1.502 . S
C1428 H1414 0.960 . S
C1428 H1415 0.961 . S
C1428 H1416 0.959 . S
C1428 C1426 1.561 . S
C1429 C1426 1.526 . S
C1429 C1430 1.396 . S
C1429 C1434 1.390 . S
C1430 C1424 1.465 . S
C1430 C1429 1.396 . S
C1430 C1431 1.399 . S
C1431 H1417 0.929 . S
C1431 C1430 1.399 . S
C1431 C1432 1.385 . S
C1432 H1418 0.931 . S
C1432 C1431 1.385 . S
C1432 C1433 1.389 . S
C1433 C1432 1.389 . S
C1433 C1434 1.387 . S
C1434 H1419 0.930 . S
C1434 C1429 1.390 . S
C1434 C1433 1.387 . S
H1435 C1447 0.930 . S
H1436 C1449 0.930 . S
H1437 C1450 0.930 . S
H1438 C1454 0.959 . S
H1439 C1454 0.959 . S
H1440 C1454 0.961 . S
H1441 C1455 0.960 . S
H1442 C1455 0.961 . S
H1443 C1455 0.959 . S
H1444 C1458 0.929 . S
H1445 C1459 0.931 . S
H1446 C1461 0.930 . S
C1447 H1435 0.930 . S
C1447 C1448 1.399 . S
C1447 C1452 1.399 . S
C1448 C1447 1.399 . S
C1448 C1449 1.376 . S
C1449 H1436 0.930 . S
C1449 C1448 1.376 . S
C1449 C1450 1.388 . S
C1450 H1437 0.930 . S
C1450 C1449 1.388 . S
C1450 C1451 1.390 . S
C1451 C1450 1.390 . S
C1451 C1452 1.394 . S
C1451 C1457 1.465 . S
C1452 C1447 1.399 . S
C1452 C1451 1.394 . S
C1452 C1453 1.516 . S
C1453 C1452 1.516 . S
C1453 C1454 1.502 . S
C1453 C1455 1.561 . S
C1453 C1456 1.526 . S
C1454 H1438 0.959 . S
C1454 H1439 0.959 . S
C1454 H1440 0.961 . S
C1454 C1453 1.502 . S
C1455 H1441 0.960 . S
C1455 H1442 0.961 . S
C1455 H1443 0.959 . S
C1455 C1453 1.561 . S
C1456 C1453 1.526 . S
C1456 C1457 1.396 . S
C1456 C1461 1.390 . S
C1457 C1451 1.465 . S
C1457 C1456 1.396 . S
C1457 C1458 1.399 . S
C1458 H1444 0.929 . S
C1458 C1457 1.399 . S
C1458 C1459 1.385 . S
C1459 H1445 0.931 . S
C1459 C1458 1.385 . S
C1459 C1460 1.389 . S
C1460 C1459 1.389 . S
C1460 C1461 1.387 . S
C1461 H1446 0.930 . S
C1461 C1456 1.390 . S
C1461 C1460 1.387 . S
H1462 C1474 0.930 . S
H1463 C1476 0.930 . S
H1464 C1477 0.930 . S
H1465 C1481 0.959 . S
H1466 C1481 0.959 . S
H1467 C1481 0.961 . S
H1468 C1482 0.960 . S
H1469 C1482 0.961 . S
H1470 C1482 0.959 . S
H1471 C1485 0.929 . S
H1472 C1486 0.931 . S
H1473 C1488 0.930 . S
C1474 H1462 0.930 . S
C1474 C1475 1.399 . S
C1474 C1479 1.399 . S
C1475 C1474 1.399 . S
C1475 C1476 1.376 . S
C1476 H1463 0.930 . S
C1476 C1475 1.376 . S
C1476 C1477 1.388 . S
C1477 H1464 0.930 . S
C1477 C1476 1.388 . S
C1477 C1478 1.390 . S
C1478 C1477 1.390 . S
C1478 C1479 1.394 . S
C1478 C1484 1.465 . S
C1479 C1474 1.399 . S
C1479 C1478 1.394 . S
C1479 C1480 1.516 . S
C1480 C1479 1.516 . S
C1480 C1481 1.502 . S
C1480 C1482 1.561 . S
C1480 C1483 1.526 . S
C1481 H1465 0.959 . S
C1481 H1466 0.959 . S
C1481 H1467 0.961 . S
C1481 C1480 1.502 . S
C1482 H1468 0.960 . S
C1482 H1469 0.961 . S
C1482 H1470 0.959 . S
C1482 C1480 1.561 . S
C1483 C1480 1.526 . S
C1483 C1484 1.396 . S
C1483 C1488 1.390 . S
C1484 C1478 1.465 . S
C1484 C1483 1.396 . S
C1484 C1485 1.399 . S
C1485 H1471 0.929 . S
C1485 C1484 1.399 . S
C1485 C1486 1.385 . S
C1486 H1472 0.931 . S
C1486 C1485 1.385 . S
C1486 C1487 1.389 . S
C1487 C1486 1.389 . S
C1487 C1488 1.387 . S
C1488 H1473 0.930 . S
C1488 C1483 1.390 . S
C1488 C1487 1.387 . S
H1489 C1501 0.930 . S
H1490 C1503 0.930 . S
H1491 C1504 0.930 . S
H1492 C1508 0.959 . S
H1493 C1508 0.959 . S
H1494 C1508 0.961 . S
H1495 C1509 0.960 . S
H1496 C1509 0.961 . S
H1497 C1509 0.959 . S
H1498 C1512 0.929 . S
H1499 C1513 0.931 . S
H1500 C1515 0.930 . S
C1501 H1489 0.930 . S
C1501 C1502 1.399 . S
C1501 C1506 1.399 . S
C1502 C1501 1.399 . S
C1502 C1503 1.376 . S
C1503 H1490 0.930 . S
C1503 C1502 1.376 . S
C1503 C1504 1.388 . S
C1504 H1491 0.930 . S
C1504 C1503 1.388 . S
C1504 C1505 1.390 . S
C1505 C1504 1.390 . S
C1505 C1506 1.394 . S
C1505 C1511 1.465 . S
C1506 C1501 1.399 . S
C1506 C1505 1.394 . S
C1506 C1507 1.516 . S
C1507 C1506 1.516 . S
C1507 C1508 1.502 . S
C1507 C1509 1.561 . S
C1507 C1510 1.526 . S
C1508 H1492 0.959 . S
C1508 H1493 0.959 . S
C1508 H1494 0.961 . S
C1508 C1507 1.502 . S
C1509 H1495 0.960 . S
C1509 H1496 0.961 . S
C1509 H1497 0.959 . S
C1509 C1507 1.561 . S
C1510 C1507 1.526 . S
C1510 C1511 1.396 . S
C1510 C1515 1.390 . S
C1511 C1505 1.465 . S
C1511 C1510 1.396 . S
C1511 C1512 1.399 . S
C1512 H1498 0.929 . S
C1512 C1511 1.399 . S
C1512 C1513 1.385 . S
C1513 H1499 0.931 . S
C1513 C1512 1.385 . S
C1513 C1514 1.389 . S
C1514 C1513 1.389 . S
C1514 C1515 1.387 . S
C1515 H1500 0.930 . S
C1515 C1510 1.390 . S
C1515 C1514 1.387 . S
H1516 C1528 0.930 . S
H1517 C1530 0.930 . S
H1518 C1531 0.930 . S
H1519 C1535 0.959 . S
H1520 C1535 0.959 . S
H1521 C1535 0.961 . S
H1522 C1536 0.960 . S
H1523 C1536 0.961 . S
H1524 C1536 0.959 . S
H1525 C1539 0.929 . S
H1526 C1540 0.931 . S
H1527 C1542 0.930 . S
C1528 H1516 0.930 . S
C1528 C1529 1.399 . S
C1528 C1533 1.399 . S
C1529 C1528 1.399 . S
C1529 C1530 1.376 . S
C1530 H1517 0.930 . S
C1530 C1529 1.376 . S
C1530 C1531 1.388 . S
C1531 H1518 0.930 . S
C1531 C1530 1.388 . S
C1531 C1532 1.390 . S
C1532 C1531 1.390 . S
C1532 C1533 1.394 . S
C1532 C1538 1.465 . S
C1533 C1528 1.399 . S
C1533 C1532 1.394 . S
C1533 C1534 1.516 . S
C1534 C1533 1.516 . S
C1534 C1535 1.502 . S
C1534 C1536 1.561 . S
C1534 C1537 1.526 . S
C1535 H1519 0.959 . S
C1535 H1520 0.959 . S
C1535 H1521 0.961 . S
C1535 C1534 1.502 . S
C1536 H1522 0.960 . S
C1536 H1523 0.961 . S
C1536 H1524 0.959 . S
C1536 C1534 1.561 . S
C1537 C1534 1.526 . S
C1537 C1538 1.396 . S
C1537 C1542 1.390 . S
C1538 C1532 1.465 . S
C1538 C1537 1.396 . S
C1538 C1539 1.399 . S
C1539 H1525 0.929 . S
C1539 C1538 1.399 . S
C1539 C1540 1.385 . S
C1540 H1526 0.931 . S
C1540 C1539 1.385 . S
C1540 C1541 1.389 . S
C1541 C1540 1.389 . S
C1541 C1542 1.387 . S
C1542 H1527 0.930 . S
C1542 C1537 1.390 . S
C1542 C1541 1.387 . S
H1543 C1555 0.930 . S
H1544 C1557 0.930 . S
H1545 C1558 0.930 . S
H1546 C1562 0.959 . S
H1547 C1562 0.959 . S
H1548 C1562 0.961 . S
H1549 C1563 0.960 . S
H1550 C1563 0.961 . S
H1551 C1563 0.959 . S
H1552 C1566 0.929 . S
H1553 C1567 0.931 . S
H1554 C1569 0.930 . S
C1555 H1543 0.930 . S
C1555 C1556 1.399 . S
C1555 C1560 1.399 . S
C1556 C1555 1.399 . S
C1556 C1557 1.376 . S
C1557 H1544 0.930 . S
C1557 C1556 1.376 . S
C1557 C1558 1.388 . S
C1558 H1545 0.930 . S
C1558 C1557 1.388 . S
C1558 C1559 1.390 . S
C1559 C1558 1.390 . S
C1559 C1560 1.394 . S
C1559 C1565 1.465 . S
C1560 C1555 1.399 . S
C1560 C1559 1.394 . S
C1560 C1561 1.516 . S
C1561 C1560 1.516 . S
C1561 C1562 1.502 . S
C1561 C1563 1.561 . S
C1561 C1564 1.526 . S
C1562 H1546 0.959 . S
C1562 H1547 0.959 . S
C1562 H1548 0.961 . S
C1562 C1561 1.502 . S
C1563 H1549 0.960 . S
C1563 H1550 0.961 . S
C1563 H1551 0.959 . S
C1563 C1561 1.561 . S
C1564 C1561 1.526 . S
C1564 C1565 1.396 . S
C1564 C1569 1.390 . S
C1565 C1559 1.465 . S
C1565 C1564 1.396 . S
C1565 C1566 1.399 . S
C1566 H1552 0.929 . S
C1566 C1565 1.399 . S
C1566 C1567 1.385 . S
C1567 H1553 0.931 . S
C1567 C1566 1.385 . S
C1567 C1568 1.389 . S
C1568 C1567 1.389 . S
C1568 C1569 1.387 . S
C1569 H1554 0.930 . S
C1569 C1564 1.390 . S
C1569 C1568 1.387 . S
H1570 C1582 0.930 . S
H1571 C1584 0.930 . S
H1572 C1585 0.930 . S
H1573 C1589 0.959 . S
H1574 C1589 0.959 . S
H1575 C1589 0.961 . S
H1576 C1590 0.960 . S
H1577 C1590 0.961 . S
H1578 C1590 0.959 . S
H1579 C1593 0.929 . S
H1580 C1594 0.931 . S
H1581 C1596 0.930 . S
C1582 H1570 0.930 . S
C1582 C1583 1.399 . S
C1582 C1587 1.399 . S
C1583 C1582 1.399 . S
C1583 C1584 1.376 . S
C1584 H1571 0.930 . S
C1584 C1583 1.376 . S
C1584 C1585 1.388 . S
C1585 H1572 0.930 . S
C1585 C1584 1.388 . S
C1585 C1586 1.390 . S
C1586 C1585 1.390 . S
C1586 C1587 1.394 . S
C1586 C1592 1.465 . S
C1587 C1582 1.399 . S
C1587 C1586 1.394 . S
C1587 C1588 1.516 . S
C1588 C1587 1.516 . S
C1588 C1589 1.502 . S
C1588 C1590 1.561 . S
C1588 C1591 1.526 . S
C1589 H1573 0.959 . S
C1589 H1574 0.959 . S
C1589 H1575 0.961 . S
C1589 C1588 1.502 . S
C1590 H1576 0.960 . S
C1590 H1577 0.961 . S
C1590 H1578 0.959 . S
C1590 C1588 1.561 . S
C1591 C1588 1.526 . S
C1591 C1592 1.396 . S
C1591 C1596 1.390 . S
C1592 C1586 1.465 . S
C1592 C1591 1.396 . S
C1592 C1593 1.399 . S
C1593 H1579 0.929 . S
C1593 C1592 1.399 . S
C1593 C1594 1.385 . S
C1594 H1580 0.931 . S
C1594 C1593 1.385 . S
C1594 C1595 1.389 . S
C1595 C1594 1.389 . S
C1595 C1596 1.387 . S
C1596 H1581 0.930 . S
C1596 C1591 1.390 . S
C1596 C1595 1.387 . S
H1597 C1609 0.930 . S
H1598 C1611 0.930 . S
H1599 C1612 0.930 . S
H1600 C1616 0.959 . S
H1601 C1616 0.959 . S
H1602 C1616 0.961 . S
H1603 C1617 0.960 . S
H1604 C1617 0.961 . S
H1605 C1617 0.959 . S
H1606 C1620 0.929 . S
H1607 C1621 0.931 . S
H1608 C1623 0.930 . S
C1609 H1597 0.930 . S
C1609 C1610 1.399 . S
C1609 C1614 1.399 . S
C1610 C1609 1.399 . S
C1610 C1611 1.376 . S
C1611 H1598 0.930 . S
C1611 C1610 1.376 . S
C1611 C1612 1.388 . S
C1612 H1599 0.930 . S
C1612 C1611 1.388 . S
C1612 C1613 1.390 . S
C1613 C1612 1.390 . S
C1613 C1614 1.394 . S
C1613 C1619 1.465 . S
C1614 C1609 1.399 . S
C1614 C1613 1.394 . S
C1614 C1615 1.516 . S
C1615 C1614 1.516 . S
C1615 C1616 1.502 . S
C1615 C1617 1.561 . S
C1615 C1618 1.526 . S
C1616 H1600 0.959 . S
C1616 H1601 0.959 . S
C1616 H1602 0.961 . S
C1616 C1615 1.502 . S
C1617 H1603 0.960 . S
C1617 H1604 0.961 . S
C1617 H1605 0.959 . S
C1617 C1615 1.561 . S
C1618 C1615 1.526 . S
C1618 C1619 1.396 . S
C1618 C1623 1.390 . S
C1619 C1613 1.465 . S
C1619 C1618 1.396 . S
C1619 C1620 1.399 . S
C1620 H1606 0.929 . S
C1620 C1619 1.399 . S
C1620 C1621 1.385 . S
C1621 H1607 0.931 . S
C1621 C1620 1.385 . S
C1621 C1622 1.389 . S
C1622 C1621 1.389 . S
C1622 C1623 1.387 . S
C1623 H1608 0.930 . S
C1623 C1618 1.390 . S
C1623 C1622 1.387 . S
C557 C33 1.112 . S
C569 C543 1.110 . S
C584 C441 1.114 . S
C596 C67 1.117 . S
C611 C475 1.110 . S
C623 C101 1.110 . S
C638 C509 1.115 1_554 S
C650 C135 1.122 . S
C665 C169 1.133 . S
C677 C339 1.131 . S
C692 C373 1.127 . S
C704 C203 1.131 . S
C719 C407 1.131 . S
C731 C237 1.126 . S
C746 C271 1.125 . S
C758 C305 1.120 . S
C773 C213 0.624 . S
C785 C9 0.668 . S
C800 C247 0.618 . S
C812 C43 0.668 . S
C827 C145 0.668 . S
C839 C77 0.641 . S
C854 C179 0.630 . S
C866 C111 0.668 . S
C881 C156 2.235 . S
C893 C88 2.235 . S
C908 C122 2.236 . S
C920 C190 2.236 . S
C935 C224 2.235 . S
C947 C20 2.235 . S
C962 C54 2.236 . S
C974 C258 2.236 . S
C989 C281 0.627 . S
C1001 C485 0.668 . S
C1016 C519 0.661 . S
C1028 C315 0.654 . S
C1043 C417 0.550 . S
C1055 C349 0.534 . S
C1070 C451 0.640 . S
C1082 C383 0.559 . S
C1097 C428 2.230 . S
C1109 C360 2.230 . S
C1124 C462 2.230 . S
C1136 C394 2.230 . S
C1151 C292 2.229 . S
C1163 C496 2.229 . S
C1178 C326 2.235 . S
C1190 C530 2.235 . S
C1205 C172 2.823 . S
C1217 C2 2.823 . S
C1232 C36 2.824 . S
C1244 C206 2.825 . S
C1259 C240 2.826 . S
C1271 C70 2.826 . S
C1286 C104 2.824 . S
C1298 C138 2.824 . S
C1313 C73 0.970 . S
C1325 C243 0.955 . S
C1340 C141 0.918 . S
C1352 C107 0.905 . S
C1367 C175 0.973 . S
C1379 C5 0.979 . S
C1394 C39 0.893 . S
C1406 C209 0.898 . S
C1421 C444 2.824 . S
C1433 C274 2.823 . S
C1448 C308 2.824 . S
C1460 C478 2.825 . S
C1475 C512 2.824 . S
C1487 C342 2.824 . S
C1502 C376 2.822 . S
C1514 C410 2.822 . S
C1529 C515 0.972 . S
C1541 C345 0.958 . S
C1556 C379 0.893 . S
C1568 C413 0.898 . S
C1583 C447 0.980 . S
C1595 C277 0.974 . S
C1610 C311 0.893 . S
C1622 C481 0.898 . S
