# Generated by pormake.
# Topology wnd, (6)-cn, num edge types: 1
# Building blocks:
#     Node 0, Type 0, BuildingBlock: CUKXOW_clean_sbu_0, # of connection points: 6
#     Node 1, Type 0, BuildingBlock: CUKXOW_clean_sbu_0, # of connection points: 6
#     Node 2, Type 0, BuildingBlock: CUKXOW_clean_sbu_0, # of connection points: 6
#     Node 3, Type 0, BuildingBlock: CUKXOW_clean_sbu_0, # of connection points: 6
#     Node 4, Type 0, BuildingBlock: CUKXOW_clean_sbu_0, # of connection points: 6
#     Node 5, Type 0, BuildingBlock: CUKXOW_clean_sbu_0, # of connection points: 6
#     Node 6, Type 0, BuildingBlock: CUKXOW_clean_sbu_0, # of connection points: 6
#     Node 7, Type 0, BuildingBlock: CUKXOW_clean_sbu_0, # of connection points: 6
#     Node 8, Type 0, BuildingBlock: CUKXOW_clean_sbu_0, # of connection points: 6
#     Node 9, Type 0, BuildingBlock: CUKXOW_clean_sbu_0, # of connection points: 6
#     Node 10, Type 0, BuildingBlock: CUKXOW_clean_sbu_0, # of connection points: 6
#     Node 11, Type 0, BuildingBlock: CUKXOW_clean_sbu_0, # of connection points: 6
#     Node 12, Type 0, BuildingBlock: CUKXOW_clean_sbu_0, # of connection points: 6
#     Node 13, Type 0, BuildingBlock: CUKXOW_clean_sbu_0, # of connection points: 6
#     Node 14, Type 0, BuildingBlock: CUKXOW_clean_sbu_0, # of connection points: 6
#     Node 15, Type 0, BuildingBlock: CUKXOW_clean_sbu_0, # of connection points: 6
#     Node 16, Type 0, BuildingBlock: CUKXOW_clean_sbu_0, # of connection points: 6
#     Node 17, Type 0, BuildingBlock: CUKXOW_clean_sbu_0, # of connection points: 6
#     Node 18, Type 0, BuildingBlock: CUKXOW_clean_sbu_0, # of connection points: 6
#     Node 19, Type 0, BuildingBlock: CUKXOW_clean_sbu_0, # of connection points: 6
#     Node 20, Type 0, BuildingBlock: CUKXOW_clean_sbu_0, # of connection points: 6
#     Node 21, Type 0, BuildingBlock: CUKXOW_clean_sbu_0, # of connection points: 6
#     Node 22, Type 0, BuildingBlock: CUKXOW_clean_sbu_0, # of connection points: 6
#     Node 23, Type 0, BuildingBlock: CUKXOW_clean_sbu_0, # of connection points: 6
#     Node 24, Type 0, BuildingBlock: CUKXOW_clean_sbu_0, # of connection points: 6
#     Node 25, Type 0, BuildingBlock: CUKXOW_clean_sbu_0, # of connection points: 6
#     Node 26, Type 0, BuildingBlock: CUKXOW_clean_sbu_0, # of connection points: 6
#     Node 27, Type 0, BuildingBlock: CUKXOW_clean_sbu_0, # of connection points: 6
#     Node 28, Type 0, BuildingBlock: CUKXOW_clean_sbu_0, # of connection points: 6
#     Node 29, Type 0, BuildingBlock: CUKXOW_clean_sbu_0, # of connection points: 6
#     Node 30, Type 0, BuildingBlock: CUKXOW_clean_sbu_0, # of connection points: 6
#     Node 31, Type 0, BuildingBlock: CUKXOW_clean_sbu_0, # of connection points: 6
#     Node 32, Type 0, BuildingBlock: CUKXOW_clean_sbu_0, # of connection points: 6
#     Node 33, Type 0, BuildingBlock: CUKXOW_clean_sbu_0, # of connection points: 6
#     Node 34, Type 0, BuildingBlock: CUKXOW_clean_sbu_0, # of connection points: 6
#     Node 35, Type 0, BuildingBlock: CUKXOW_clean_sbu_0, # of connection points: 6
#     Edge 36, Type (0, 0), BuildingBlock: CIFDUS_clean_linker_0, # of connection points: 2
#     Edge 37, Type (0, 0), BuildingBlock: CIFDUS_clean_linker_0, # of connection points: 2
#     Edge 38, Type (0, 0), BuildingBlock: CIFDUS_clean_linker_0, # of connection points: 2
#     Edge 39, Type (0, 0), BuildingBlock: CIFDUS_clean_linker_0, # of connection points: 2
#     Edge 40, Type (0, 0), BuildingBlock: CIFDUS_clean_linker_0, # of connection points: 2
#     Edge 41, Type (0, 0), BuildingBlock: CIFDUS_clean_linker_0, # of connection points: 2
#     Edge 42, Type (0, 0), BuildingBlock: CIFDUS_clean_linker_0, # of connection points: 2
#     Edge 43, Type (0, 0), BuildingBlock: CIFDUS_clean_linker_0, # of connection points: 2
#     Edge 44, Type (0, 0), BuildingBlock: CIFDUS_clean_linker_0, # of connection points: 2
#     Edge 45, Type (0, 0), BuildingBlock: CIFDUS_clean_linker_0, # of connection points: 2
#     Edge 46, Type (0, 0), BuildingBlock: CIFDUS_clean_linker_0, # of connection points: 2
#     Edge 47, Type (0, 0), BuildingBlock: CIFDUS_clean_linker_0, # of connection points: 2
#     Edge 48, Type (0, 0), BuildingBlock: CIFDUS_clean_linker_0, # of connection points: 2
#     Edge 49, Type (0, 0), BuildingBlock: CIFDUS_clean_linker_0, # of connection points: 2
#     Edge 50, Type (0, 0), BuildingBlock: CIFDUS_clean_linker_0, # of connection points: 2
#     Edge 51, Type (0, 0), BuildingBlock: CIFDUS_clean_linker_0, # of connection points: 2
#     Edge 52, Type (0, 0), BuildingBlock: CIFDUS_clean_linker_0, # of connection points: 2
#     Edge 53, Type (0, 0), BuildingBlock: CIFDUS_clean_linker_0, # of connection points: 2
#     Edge 54, Type (0, 0), BuildingBlock: CIFDUS_clean_linker_0, # of connection points: 2
#     Edge 55, Type (0, 0), BuildingBlock: CIFDUS_clean_linker_0, # of connection points: 2
#     Edge 56, Type (0, 0), BuildingBlock: CIFDUS_clean_linker_0, # of connection points: 2
#     Edge 57, Type (0, 0), BuildingBlock: CIFDUS_clean_linker_0, # of connection points: 2
#     Edge 58, Type (0, 0), BuildingBlock: CIFDUS_clean_linker_0, # of connection points: 2
#     Edge 59, Type (0, 0), BuildingBlock: CIFDUS_clean_linker_0, # of connection points: 2
#     Edge 60, Type (0, 0), BuildingBlock: CIFDUS_clean_linker_0, # of connection points: 2
#     Edge 61, Type (0, 0), BuildingBlock: CIFDUS_clean_linker_0, # of connection points: 2
#     Edge 62, Type (0, 0), BuildingBlock: CIFDUS_clean_linker_0, # of connection points: 2
#     Edge 63, Type (0, 0), BuildingBlock: CIFDUS_clean_linker_0, # of connection points: 2
#     Edge 64, Type (0, 0), BuildingBlock: CIFDUS_clean_linker_0, # of connection points: 2
#     Edge 65, Type (0, 0), BuildingBlock: CIFDUS_clean_linker_0, # of connection points: 2
#     Edge 66, Type (0, 0), BuildingBlock: CIFDUS_clean_linker_0, # of connection points: 2
#     Edge 67, Type (0, 0), BuildingBlock: CIFDUS_clean_linker_0, # of connection points: 2
#     Edge 68, Type (0, 0), BuildingBlock: CIFDUS_clean_linker_0, # of connection points: 2
#     Edge 69, Type (0, 0), BuildingBlock: CIFDUS_clean_linker_0, # of connection points: 2
#     Edge 70, Type (0, 0), BuildingBlock: CIFDUS_clean_linker_0, # of connection points: 2
#     Edge 71, Type (0, 0), BuildingBlock: CIFDUS_clean_linker_0, # of connection points: 2
#     Edge 72, Type (0, 0), BuildingBlock: CIFDUS_clean_linker_0, # of connection points: 2
#     Edge 73, Type (0, 0), BuildingBlock: CIFDUS_clean_linker_0, # of connection points: 2
#     Edge 74, Type (0, 0), BuildingBlock: CIFDUS_clean_linker_0, # of connection points: 2
#     Edge 75, Type (0, 0), BuildingBlock: CIFDUS_clean_linker_0, # of connection points: 2
#     Edge 76, Type (0, 0), BuildingBlock: CIFDUS_clean_linker_0, # of connection points: 2
#     Edge 77, Type (0, 0), BuildingBlock: CIFDUS_clean_linker_0, # of connection points: 2
#     Edge 78, Type (0, 0), BuildingBlock: CIFDUS_clean_linker_0, # of connection points: 2
#     Edge 79, Type (0, 0), BuildingBlock: CIFDUS_clean_linker_0, # of connection points: 2
#     Edge 80, Type (0, 0), BuildingBlock: CIFDUS_clean_linker_0, # of connection points: 2
#     Edge 81, Type (0, 0), BuildingBlock: CIFDUS_clean_linker_0, # of connection points: 2
#     Edge 82, Type (0, 0), BuildingBlock: CIFDUS_clean_linker_0, # of connection points: 2
#     Edge 83, Type (0, 0), BuildingBlock: CIFDUS_clean_linker_0, # of connection points: 2
#     Edge 84, Type (0, 0), BuildingBlock: CIFDUS_clean_linker_0, # of connection points: 2
#     Edge 85, Type (0, 0), BuildingBlock: CIFDUS_clean_linker_0, # of connection points: 2
#     Edge 86, Type (0, 0), BuildingBlock: CIFDUS_clean_linker_0, # of connection points: 2
#     Edge 87, Type (0, 0), BuildingBlock: CIFDUS_clean_linker_0, # of connection points: 2
#     Edge 88, Type (0, 0), BuildingBlock: CIFDUS_clean_linker_0, # of connection points: 2
#     Edge 89, Type (0, 0), BuildingBlock: CIFDUS_clean_linker_0, # of connection points: 2
#     Edge 90, Type (0, 0), BuildingBlock: CIFDUS_clean_linker_0, # of connection points: 2
#     Edge 91, Type (0, 0), BuildingBlock: CIFDUS_clean_linker_0, # of connection points: 2
#     Edge 92, Type (0, 0), BuildingBlock: CIFDUS_clean_linker_0, # of connection points: 2
#     Edge 93, Type (0, 0), BuildingBlock: CIFDUS_clean_linker_0, # of connection points: 2
#     Edge 94, Type (0, 0), BuildingBlock: CIFDUS_clean_linker_0, # of connection points: 2
#     Edge 95, Type (0, 0), BuildingBlock: CIFDUS_clean_linker_0, # of connection points: 2
#     Edge 96, Type (0, 0), BuildingBlock: CIFDUS_clean_linker_0, # of connection points: 2
#     Edge 97, Type (0, 0), BuildingBlock: CIFDUS_clean_linker_0, # of connection points: 2
#     Edge 98, Type (0, 0), BuildingBlock: CIFDUS_clean_linker_0, # of connection points: 2
#     Edge 99, Type (0, 0), BuildingBlock: CIFDUS_clean_linker_0, # of connection points: 2
#     Edge 100, Type (0, 0), BuildingBlock: CIFDUS_clean_linker_0, # of connection points: 2
#     Edge 101, Type (0, 0), BuildingBlock: CIFDUS_clean_linker_0, # of connection points: 2
#     Edge 102, Type (0, 0), BuildingBlock: CIFDUS_clean_linker_0, # of connection points: 2
#     Edge 103, Type (0, 0), BuildingBlock: CIFDUS_clean_linker_0, # of connection points: 2
#     Edge 104, Type (0, 0), BuildingBlock: CIFDUS_clean_linker_0, # of connection points: 2
#     Edge 105, Type (0, 0), BuildingBlock: CIFDUS_clean_linker_0, # of connection points: 2
#     Edge 106, Type (0, 0), BuildingBlock: CIFDUS_clean_linker_0, # of connection points: 2
#     Edge 107, Type (0, 0), BuildingBlock: CIFDUS_clean_linker_0, # of connection points: 2
#     Edge 108, Type (0, 0), BuildingBlock: CIFDUS_clean_linker_0, # of connection points: 2
#     Edge 109, Type (0, 0), BuildingBlock: CIFDUS_clean_linker_0, # of connection points: 2
#     Edge 110, Type (0, 0), BuildingBlock: CIFDUS_clean_linker_0, # of connection points: 2
#     Edge 111, Type (0, 0), BuildingBlock: CIFDUS_clean_linker_0, # of connection points: 2
#     Edge 112, Type (0, 0), BuildingBlock: CIFDUS_clean_linker_0, # of connection points: 2
#     Edge 113, Type (0, 0), BuildingBlock: CIFDUS_clean_linker_0, # of connection points: 2
#     Edge 114, Type (0, 0), BuildingBlock: CIFDUS_clean_linker_0, # of connection points: 2
#     Edge 115, Type (0, 0), BuildingBlock: CIFDUS_clean_linker_0, # of connection points: 2
#     Edge 116, Type (0, 0), BuildingBlock: CIFDUS_clean_linker_0, # of connection points: 2
#     Edge 117, Type (0, 0), BuildingBlock: CIFDUS_clean_linker_0, # of connection points: 2
#     Edge 118, Type (0, 0), BuildingBlock: CIFDUS_clean_linker_0, # of connection points: 2
#     Edge 119, Type (0, 0), BuildingBlock: CIFDUS_clean_linker_0, # of connection points: 2
#     Edge 120, Type (0, 0), BuildingBlock: CIFDUS_clean_linker_0, # of connection points: 2
#     Edge 121, Type (0, 0), BuildingBlock: CIFDUS_clean_linker_0, # of connection points: 2
#     Edge 122, Type (0, 0), BuildingBlock: CIFDUS_clean_linker_0, # of connection points: 2
#     Edge 123, Type (0, 0), BuildingBlock: CIFDUS_clean_linker_0, # of connection points: 2
#     Edge 124, Type (0, 0), BuildingBlock: CIFDUS_clean_linker_0, # of connection points: 2
#     Edge 125, Type (0, 0), BuildingBlock: CIFDUS_clean_linker_0, # of connection points: 2
#     Edge 126, Type (0, 0), BuildingBlock: CIFDUS_clean_linker_0, # of connection points: 2
#     Edge 127, Type (0, 0), BuildingBlock: CIFDUS_clean_linker_0, # of connection points: 2
#     Edge 128, Type (0, 0), BuildingBlock: CIFDUS_clean_linker_0, # of connection points: 2
#     Edge 129, Type (0, 0), BuildingBlock: CIFDUS_clean_linker_0, # of connection points: 2
#     Edge 130, Type (0, 0), BuildingBlock: CIFDUS_clean_linker_0, # of connection points: 2
#     Edge 131, Type (0, 0), BuildingBlock: CIFDUS_clean_linker_0, # of connection points: 2
#     Edge 132, Type (0, 0), BuildingBlock: CIFDUS_clean_linker_0, # of connection points: 2
#     Edge 133, Type (0, 0), BuildingBlock: CIFDUS_clean_linker_0, # of connection points: 2
#     Edge 134, Type (0, 0), BuildingBlock: CIFDUS_clean_linker_0, # of connection points: 2
#     Edge 135, Type (0, 0), BuildingBlock: CIFDUS_clean_linker_0, # of connection points: 2
#     Edge 136, Type (0, 0), BuildingBlock: CIFDUS_clean_linker_0, # of connection points: 2
#     Edge 137, Type (0, 0), BuildingBlock: CIFDUS_clean_linker_0, # of connection points: 2
#     Edge 138, Type (0, 0), BuildingBlock: CIFDUS_clean_linker_0, # of connection points: 2
#     Edge 139, Type (0, 0), BuildingBlock: CIFDUS_clean_linker_0, # of connection points: 2
#     Edge 140, Type (0, 0), BuildingBlock: CIFDUS_clean_linker_0, # of connection points: 2
#     Edge 141, Type (0, 0), BuildingBlock: CIFDUS_clean_linker_0, # of connection points: 2
#     Edge 142, Type (0, 0), BuildingBlock: CIFDUS_clean_linker_0, # of connection points: 2
#     Edge 143, Type (0, 0), BuildingBlock: CIFDUS_clean_linker_0, # of connection points: 2
# Relax obj value: 0.049
# Max RMSD: 0.142
# Mean RMSD: 0.142
data_MOF--net-wnd--node1-CUKXOW_clean_sbu_0--edge1-CIFDUS_clean_linker_0
_symmetry_space_group_name_H-M    P1
_symmetry_Int_Tables_number       1
_symmetry_cell_setting            triclinic
loop_
_symmetry_equiv_pos_as_xyz
'x, y, z'
_cell_length_a     28.152377
_cell_length_b     28.201263
_cell_length_c     148.62436
_cell_angle_alpha  90.049122
_cell_angle_beta   89.697829
_cell_angle_gamma 119.97658
loop_
_atom_site_label
_atom_site_type_symbol
_atom_site_fract_x
_atom_site_fract_y
_atom_site_fract_z
_atom_type_partial_charge
Tb0 Tb 0.58958 0.09275 0.05678 0.0
C1 C 0.54483 0.04984 0.03727 0.0
Tb2 Tb 0.47347 0.99886 0.05425 0.0
O3 O 0.61168 0.03925 0.06394 0.0
O4 O 0.55293 1.00719 0.05393 0.0
O5 O 0.57619 0.0931 0.04233 0.0
C6 C 0.38764 0.89891 0.05678 0.0
O7 O 0.50683 1.0028 0.04085 0.0
C8 C 0.48587 0.09613 0.05117 0.0
C9 C 0.50944 0.05973 0.07341 0.0
O10 O 0.39353 0.93093 0.05005 0.0
O11 O 0.42997 0.9229 0.06197 0.0
O12 O 0.44502 0.05146 0.04793 0.0
O13 O 0.51071 0.08278 0.05664 0.0
O14 O 0.4733 0.01657 0.06871 0.0
O15 O 0.55722 0.09716 0.06993 0.0
C16 C 0.6863 0.18476 0.05561 0.0
O17 O 0.64483 0.17858 0.06034 0.0
O18 O 0.67356 0.13911 0.05162 0.0
C19 C 0.5766 0.99466 0.05988 0.0
Tb20 Tb 1.01248 0.53134 0.05643 0.0
C21 C 0.06029 0.53021 0.03667 0.0
Tb22 Tb 0.09653 0.49384 0.05406 0.0
O23 O 0.07605 0.60552 0.06318 0.0
O24 O 0.09696 0.56853 0.05329 0.0
O25 O 1.02161 0.53299 0.04155 0.0
C26 C 0.18927 0.49017 0.05531 0.0
O27 O 0.09747 0.52036 0.04034 0.0
C28 C 0.99578 0.42041 0.05026 0.0
C29 C 0.03913 0.48021 0.07309 0.0
O30 O 0.14007 0.44853 0.05616 0.0
O31 O 0.18624 0.53373 0.05364 0.0
O32 O 0.03832 0.42079 0.04668 0.0
O33 O 1.01127 0.45595 0.05637 0.0
O34 O 0.08524 0.49194 0.06876 0.0
O35 O 1.00004 0.48568 0.06904 0.0
C36 C 0.93049 0.55425 0.05668 0.0
O37 O 0.97566 0.57925 0.06119 0.0
O38 O 0.93095 0.51546 0.052 0.0
C39 C 0.1167 0.60657 0.0589 0.0
Tb40 Tb 0.57055 0.50629 0.05395 0.0
C41 C 0.5608 0.55327 0.03482 0.0
Tb42 Tb 0.59836 0.63092 0.05189 0.0
O43 O 0.4838 0.47278 0.05814 0.0
O44 O 0.5342 0.55398 0.05577 0.0
O45 O 0.56845 0.5169 0.0394 0.0
C46 C 0.58386 0.71774 0.05206 0.0
O47 O 0.56608 0.59888 0.03849 0.0
C48 C 0.6804 0.61083 0.05064 0.0
C49 C 0.62316 0.59093 0.07012 0.0
O50 O 0.625 0.7165 0.04823 0.0
O51 O 0.55164 0.67064 0.05573 0.0
O52 O 0.68681 0.65815 0.05309 0.0
O53 O 0.63151 0.58071 0.04831 0.0
O54 O 0.60909 0.62447 0.0662 0.0
O55 O 0.61621 0.54502 0.0663 0.0
C56 C 0.56857 0.41067 0.05336 0.0
O57 O 0.60073 0.45187 0.05845 0.0
O58 O 0.53837 0.42378 0.0486 0.0
C59 C 0.48539 0.51942 0.05754 0.0
Tb60 Tb 0.07501 0.53995 0.46479 0.0
C61 C 1.0132 0.48799 0.48304 0.0
Tb62 Tb 0.98147 0.42078 0.46474 0.0
O63 O 1.01793 0.5691 0.46748 0.0
O64 O 0.99141 0.49684 0.46024 0.0
O65 O 0.06028 0.52484 0.47922 0.0
C66 C 0.88322 0.33067 0.46313 0.0
O67 O 0.97291 0.44809 0.47829 0.0
C68 C 0.08065 0.4354 0.46694 0.0
C69 C 0.05577 0.46578 0.44743 0.0
O70 O 0.91419 0.34342 0.47021 0.0
O71 O 0.90743 0.36836 0.4571 0.0
O72 O 0.04067 0.39085 0.46355 0.0
O73 O 0.06168 0.46459 0.46966 0.0
O74 O 1.00719 0.42942 0.45074 0.0
O75 O 0.09036 0.51085 0.45189 0.0
C76 C 0.16702 0.63738 0.46471 0.0
O77 O 0.1204 0.62713 0.46137 0.0
O78 O 0.16224 0.59254 0.46797 0.0
C79 C 0.97583 0.52724 0.46398 0.0
Tb80 Tb 0.49166 0.52633 0.46217 0.0
C81 C 0.53432 0.53073 0.48176 0.0
Tb82 Tb 0.61285 0.55961 0.46501 0.0
O83 O 0.46638 0.44357 0.46661 0.0
O84 O 0.54143 0.48942 0.46012 0.0
O85 O 0.49966 0.53756 0.47666 0.0
C86 C 0.70867 0.56004 0.46476 0.0
O87 O 0.57729 0.52897 0.47836 0.0
C88 C 0.58718 0.63472 0.46926 0.0
C89 C 0.57631 0.58242 0.44595 0.0
O90 O 0.70275 0.60278 0.4642 0.0
O91 O 0.66042 0.5168 0.46552 0.0
O92 O 0.62777 0.632 0.47289 0.0
O93 O 0.56735 0.59959 0.46312 0.0
O94 O 0.61572 0.58156 0.45078 0.0
O95 O 0.52549 0.56345 0.44907 0.0
C96 C 0.39164 0.51166 0.45924 0.0
O97 O 0.41425 0.48846 0.45474 0.0
O98 O 0.42613 0.54434 0.46521 0.0
C99 C 0.51132 0.44512 0.46423 0.0
Tb100 Tb 0.50542 0.963 0.46447 0.0
C101 C 0.49606 0.99751 0.48436 0.0
Tb102 Tb 0.47518 0.0521 0.46789 0.0
O103 O 0.58256 0.02442 0.45819 0.0
O104 O 0.54719 0.04625 0.46849 0.0
O105 O 0.48879 0.95668 0.479 0.0
C106 C 0.48126 0.14973 0.46862 0.0
O107 O 0.50186 0.04403 0.48116 0.0
C108 C 0.39368 0.95143 0.46985 0.0
C109 C 0.46398 1.00407 0.44804 0.0
O110 O 0.44401 0.10515 0.47247 0.0
O111 O 0.51522 0.13936 0.46428 0.0
O112 O 0.39353 0.99373 0.47331 0.0
O113 O 0.43367 0.96847 0.46453 0.0
O114 O 0.46764 0.04445 0.45318 0.0
O115 O 0.47365 0.96545 0.45118 0.0
C116 C 0.5155 0.87342 0.46446 0.0
O117 O 0.54691 0.9185 0.46871 0.0
O118 O 0.47876 0.87895 0.4601 0.0
C119 C 0.58594 0.06485 0.46289 0.0
Tb120 Tb 0.61756 0.09625 0.96721 0.0
C121 C 0.58836 0.04189 0.94769 0.0
Tb122 Tb 0.50083 1.00521 0.96349 0.0
O123 O 0.6378 0.03871 0.97401 0.0
O124 O 0.57822 1.01202 0.96427 0.0
O125 O 0.62207 0.08521 0.95261 0.0
C126 C 0.4007 0.91558 0.96406 0.0
O127 O 0.53998 1.00277 0.95083 0.0
C128 C 0.51988 0.10463 0.95991 0.0
C129 C 0.53947 0.04527 0.98343 0.0
O130 O 0.41367 0.9631 0.96733 0.0
O131 O 0.44392 0.91874 0.96031 0.0
O132 O 0.48591 0.06088 0.95553 0.0
O133 O 0.53919 0.09088 0.96643 0.0
O134 O 0.50837 1.00317 0.97814 0.0
O135 O 0.57984 0.09184 0.98016 0.0
C136 C 0.71229 0.19181 0.96804 0.0
O137 O 0.70189 0.14641 0.9719 0.0
O138 O 0.66906 0.18361 0.96364 0.0
C139 C 0.59898 0.9958 0.97006 0.0
Tb140 Tb 0.9936 0.59406 0.96592 0.0
C141 C 0.05894 0.61766 0.94757 0.0
Tb142 Tb 0.08828 0.56748 0.96468 0.0
O143 O 0.04612 0.67157 0.97327 0.0
O144 O 0.07956 0.63698 0.96506 0.0
O145 O 1.01217 0.60723 0.95155 0.0
C146 C 0.17985 0.56135 0.96324 0.0
O147 O 0.09628 0.60902 0.95165 0.0
C148 C 0.98772 0.48237 0.96505 0.0
C149 C 0.03566 0.56594 0.98354 0.0
O150 O 0.14135 0.54461 0.95723 0.0
O151 O 0.16744 0.58278 0.96995 0.0
O152 O 0.03066 0.48121 0.96777 0.0
O153 O 1.00329 0.52801 0.96139 0.0
O154 O 0.08153 0.57682 0.97921 0.0
O155 O 0.99253 0.56192 0.97928 0.0
C156 C 0.89288 0.58103 0.96514 0.0
O157 O 0.93696 0.62236 0.96179 0.0
O158 O 0.9058 0.54773 0.96897 0.0
C159 C 0.09175 0.67417 0.9707 0.0
Tb160 Tb 0.50262 0.47331 0.96477 0.0
C161 C 0.4832 0.50711 0.94535 0.0
Tb162 Tb 0.52671 0.59065 0.96141 0.0
O163 O 0.42543 0.45241 0.97205 0.0
O164 O 0.45708 0.51239 0.96218 0.0
O165 O 0.49781 0.47618 0.95002 0.0
C166 C 0.53519 0.68956 0.96204 0.0
O167 O 0.48638 0.55224 0.94879 0.0
C168 C 0.60803 0.57305 0.95756 0.0
C169 C 0.52497 0.54829 0.98142 0.0
O170 O 0.56935 0.67673 0.96552 0.0
O171 O 0.49626 0.64673 0.95809 0.0
O172 O 0.59918 0.60852 0.95346 0.0
O173 O 0.57397 0.55238 0.96395 0.0
O174 O 0.51852 0.58274 0.97615 0.0
O175 O 0.5264 0.50516 0.97823 0.0
C176 C 0.51446 0.38454 0.96523 0.0
O177 O 0.47122 0.38539 0.96242 0.0
O178 O 0.5504 0.43331 0.96782 0.0
C179 C 0.42073 0.49119 0.96812 0.0
Tb180 Tb 0.08236 0.61211 0.55287 0.0
C181 C 0.02591 0.58135 0.57229 0.0
Tb182 Tb 0.996 0.49598 0.5565 0.0
O183 O 0.02356 0.62607 0.5452 0.0
O184 O 0.99775 0.57089 0.55582 0.0
O185 O 0.07006 0.61526 0.56748 0.0
C186 C 0.91089 0.39383 0.55751 0.0
O187 O 0.98699 0.53429 0.56882 0.0
C188 C 0.09719 0.51924 0.55989 0.0
C189 C 0.0443 0.53244 0.53656 0.0
O190 O 0.95776 0.41185 0.5614 0.0
O191 O 0.91141 0.4336 0.55302 0.0
O192 O 0.05444 0.48506 0.56446 0.0
O193 O 0.08162 0.5366 0.55339 0.0
O194 O 1.00215 0.49666 0.54159 0.0
O195 O 0.08582 0.57688 0.54011 0.0
C196 C 0.17603 0.70762 0.55262 0.0
O197 O 0.1312 0.69728 0.54856 0.0
O198 O 0.16814 0.66421 0.55691 0.0
C199 C 0.9814 0.58846 0.54954 0.0
Tb200 Tb 0.46196 0.50069 0.55299 0.0
C201 C 0.49522 0.46374 0.5704 0.0
Tb202 Tb 0.58067 0.52571 0.55482 0.0
O203 O 0.42972 0.41136 0.55293 0.0
O204 O 0.50871 0.46605 0.54858 0.0
O205 O 0.46659 0.486 0.56729 0.0
C206 C 0.67608 0.52804 0.55615 0.0
O207 O 0.53928 0.46954 0.56609 0.0
C208 C 0.56606 0.61036 0.55655 0.0
C209 C 0.53978 0.53703 0.53553 0.0
O210 O 0.65285 0.5405 0.56259 0.0
O211 O 0.64525 0.5135 0.54909 0.0
O212 O 0.61117 0.61344 0.55378 0.0
O213 O 0.53396 0.56225 0.55926 0.0
O214 O 0.57799 0.53411 0.54032 0.0
O215 O 0.49228 0.52762 0.53913 0.0
C216 C 0.37543 0.51541 0.55209 0.0
O217 O 0.37433 0.47101 0.55472 0.0
O218 O 0.42518 0.55139 0.5498 0.0
C219 C 0.47655 0.41679 0.55043 0.0
Tb220 Tb 0.5741 0.99208 0.55448 0.0
C221 C 0.60716 0.06126 0.57224 0.0
Tb222 Tb 0.54391 0.08273 0.55653 0.0
O223 O 0.66197 0.05269 0.55525 0.0
O224 O 0.60615 0.07392 0.55023 0.0
O225 O 0.59634 1.01394 0.56854 0.0
C226 C 0.5329 0.17067 0.55885 0.0
O227 O 0.59379 0.09547 0.56842 0.0
C228 C 0.46192 0.98259 0.55745 0.0
C229 C 0.5282 0.02728 0.53767 0.0
O230 O 0.50734 0.1255 0.56342 0.0
O231 O 0.56561 0.16674 0.55308 0.0
O232 O 0.45807 0.02387 0.55459 0.0
O233 O 0.50942 0.99913 0.56052 0.0
O234 O 0.53641 0.07169 0.54209 0.0
O235 O 0.53503 0.98827 0.54147 0.0
C236 C 0.5727 0.89657 0.55286 0.0
O237 O 0.60576 0.94178 0.54869 0.0
O238 O 0.53993 0.90498 0.55794 0.0
C239 C 0.65526 0.09264 0.55246 0.0
Tb240 Tb 0.26182 0.41697 0.38784 0.0
C241 C 0.21082 0.36502 0.36894 0.0
Tb242 Tb 0.14309 0.32622 0.38658 0.0
O243 O 0.28233 0.36402 0.39551 0.0
O244 O 0.2207 0.32994 0.38601 0.0
O245 O 0.24596 0.4105 0.37325 0.0
C246 C 0.04687 0.23249 0.38712 0.0
O247 O 0.17308 0.32146 0.37334 0.0
C248 C 0.16107 0.42398 0.38208 0.0
C249 C 0.18567 0.39133 0.40516 0.0
O250 O 0.05685 0.27693 0.38298 0.0
O251 O 0.0913 0.24073 0.39114 0.0
O252 O 0.12031 0.37899 0.37902 0.0
O253 O 0.18478 0.41191 0.38801 0.0
O254 O 0.1468 0.34735 0.40094 0.0
O255 O 0.23338 0.42566 0.40122 0.0
C256 C 0.36073 0.50795 0.38636 0.0
O257 O 0.34782 0.4603 0.38313 0.0
O258 O 0.31812 0.50415 0.39041 0.0
C259 C 0.24493 0.31841 0.39201 0.0
Tb260 Tb 0.67483 0.85421 0.38956 0.0
C261 C 0.72617 0.85652 0.37074 0.0
Tb262 Tb 0.76971 0.82846 0.38823 0.0
O263 O 0.73257 0.93933 0.386 0.0
O264 O 0.75987 0.89399 0.39296 0.0
O265 O 0.68018 0.84529 0.37504 0.0
C266 C 0.87126 0.84346 0.38864 0.0
O267 O 0.76965 0.86136 0.375 0.0
C268 C 0.67246 0.74853 0.38314 0.0
C269 C 0.70418 0.80311 0.40646 0.0
O270 O 0.82774 0.80095 0.39189 0.0
O271 O 0.85726 0.87677 0.38514 0.0
O272 O 0.71848 0.75211 0.38055 0.0
O273 O 0.68369 0.78461 0.38897 0.0
O274 O 0.75113 0.81391 0.40254 0.0
O275 O 0.66699 0.81203 0.40243 0.0
C276 C 0.58698 0.86582 0.39208 0.0
O277 O 0.63123 0.88842 0.39691 0.0
O278 O 0.59155 0.83517 0.38597 0.0
C279 C 0.77516 0.93918 0.38915 0.0
Tb280 Tb 0.23322 0.82919 0.38612 0.0
C281 C 0.23301 0.88405 0.36732 0.0
Tb282 Tb 0.26172 0.95019 0.38579 0.0
O283 O 0.16373 0.80822 0.3951 0.0
O284 O 0.18903 0.8721 0.38604 0.0
O285 O 0.22908 0.84112 0.37174 0.0
C286 C 0.24633 0.03652 0.38634 0.0
O287 O 0.24405 0.93074 0.37139 0.0
C288 C 0.34524 0.9327 0.38484 0.0
C289 C 0.28374 0.90169 0.40333 0.0
O290 O 0.2888 0.03658 0.38279 0.0
O291 O 0.21303 0.98817 0.38954 0.0
O292 O 0.34926 0.97715 0.38826 0.0
O293 O 0.29806 0.90437 0.38167 0.0
O294 O 0.26997 0.93721 0.40013 0.0
O295 O 0.27824 0.85952 0.39857 0.0
C296 C 0.22984 0.73367 0.38428 0.0
O297 O 0.2696 0.77733 0.38789 0.0
O298 O 0.19176 0.74374 0.38166 0.0
C299 C 0.15626 0.84782 0.39245 0.0
Tb300 Tb 0.77693 0.91521 0.79956 0.0
C301 C 0.73961 0.87 0.8194 0.0
Tb302 Tb 0.68908 0.7951 0.80252 0.0
O303 O 0.71501 0.92942 0.79326 0.0
O304 O 0.6931 0.87183 0.80349 0.0
O305 O 0.77958 0.90587 0.81411 0.0
C306 C 0.59201 0.70164 0.80221 0.0
O307 O 0.69503 0.82681 0.81614 0.0
C308 C 0.79025 0.81637 0.80446 0.0
C309 C 0.74122 0.83771 0.7827 0.0
O310 O 0.6365 0.70863 0.80602 0.0
O311 O 0.6021 0.7476 0.79855 0.0
O312 O 0.74848 0.77506 0.80833 0.0
O313 O 0.77273 0.83846 0.7991 0.0
O314 O 0.70261 0.79764 0.78776 0.0
O315 O 0.7763 0.88666 0.78601 0.0
C316 C 0.86722 1.01435 0.7997 0.0
O317 O 0.86593 0.9686 0.79803 0.0
O318 O 0.81765 1.00431 0.80124 0.0
C319 C 0.67449 0.8918 0.79791 0.0
Tb320 Tb 0.19767 0.89707 0.79508 0.0
C321 C 0.23366 0.89744 0.81524 0.0
Tb322 Tb 0.31654 0.92796 0.79935 0.0
O323 O 0.18569 0.8233 0.78804 0.0
O324 O 0.24004 0.85539 0.79867 0.0
O325 O 0.20268 0.90742 0.80973 0.0
C326 C 0.40552 0.91799 0.79777 0.0
O327 O 0.27624 0.89354 0.81224 0.0
C328 C 0.29403 1.00593 0.8021 0.0
C329 C 0.28536 0.95313 0.77956 0.0
O330 O 0.39592 0.94223 0.80441 0.0
O331 O 0.36527 0.89952 0.79213 0.0
O332 O 0.33558 1.00572 0.80591 0.0
O333 O 0.27433 0.96876 0.79632 0.0
O334 O 0.32183 0.9501 0.7849 0.0
O335 O 0.23425 0.93672 0.78225 0.0
C336 C 0.09715 0.88464 0.79531 0.0
O337 O 0.11103 0.85161 0.79893 0.0
O338 O 0.13977 0.92451 0.79141 0.0
C339 C 0.22292 0.8196 0.79263 0.0
Tb340 Tb 0.21506 0.33119 0.79544 0.0
C341 C 0.2073 0.3764 0.81444 0.0
Tb342 Tb 0.18615 0.42553 0.79671 0.0
O343 O 0.30074 0.3886 0.79831 0.0
O344 O 0.25357 0.41687 0.79211 0.0
O345 O 0.20051 0.33361 0.80969 0.0
C346 C 0.19134 0.52229 0.79467 0.0
O347 O 0.20996 0.42074 0.81066 0.0
C348 C 0.10069 0.32849 0.80039 0.0
C349 C 0.15926 0.35316 0.77892 0.0
O350 O 0.22661 0.51454 0.79913 0.0
O351 O 0.1535 0.47578 0.79156 0.0
O352 O 0.09932 0.37386 0.80104 0.0
O353 O 0.14864 0.34174 0.79815 0.0
O354 O 0.16992 0.40089 0.78249 0.0
O355 O 0.17005 0.318 0.78305 0.0
C356 C 0.22065 0.24014 0.7946 0.0
O357 O 0.23206 0.27433 0.78797 0.0
O358 O 0.20556 0.25686 0.8016 0.0
C359 C 0.29929 0.43175 0.79579 0.0
Tb360 Tb 0.29936 0.43713 0.29633 0.0
C361 C 0.25115 0.36485 0.27929 0.0
Tb362 Tb 0.1783 0.34516 0.29682 0.0
O363 O 0.3288 0.37798 0.29518 0.0
O364 O 0.25408 0.35664 0.30122 0.0
O365 O 0.2859 0.41522 0.28214 0.0
C366 C 0.07736 0.25803 0.29532 0.0
O367 O 0.20877 0.32916 0.28423 0.0
C368 C 0.19529 0.44517 0.2957 0.0
C369 C 0.23501 0.40014 0.31527 0.0
O370 O 0.09714 0.30269 0.29062 0.0
O371 O 0.11491 0.26192 0.30083 0.0
O372 O 0.15368 0.40511 0.29971 0.0
O373 O 0.22351 0.42746 0.29184 0.0
O374 O 0.19266 0.35764 0.31132 0.0
O375 O 0.27888 0.437 0.31068 0.0
C376 C 0.38733 0.53854 0.29652 0.0
O377 O 0.38729 0.49431 0.29406 0.0
O378 O 0.33805 0.52545 0.29901 0.0
C379 C 0.28343 0.33787 0.29842 0.0
Tb380 Tb 0.67248 0.92469 0.30022 0.0
C381 C 0.74272 0.95504 0.28259 0.0
Tb382 Tb 0.77036 0.90118 0.29917 0.0
O383 O 0.73231 1.01311 0.29904 0.0
O384 O 0.75409 0.95994 0.30485 0.0
O385 O 0.69297 0.93799 0.28599 0.0
C386 C 0.86812 0.90884 0.30047 0.0
O387 O 0.78089 0.94912 0.2869 0.0
C388 C 0.67737 0.81436 0.294 0.0
C389 C 0.70398 0.88141 0.31748 0.0
O390 O 0.85683 0.93878 0.29524 0.0
O391 O 0.82445 0.87478 0.30491 0.0
O392 O 0.72468 0.81692 0.29391 0.0
O393 O 0.68601 0.86052 0.29652 0.0
O394 O 0.75139 0.89324 0.31358 0.0
O395 O 0.66441 0.88435 0.31313 0.0
C396 C 0.57646 0.92107 0.30152 0.0
O397 O 0.6198 0.95248 0.30621 0.0
O398 O 0.58709 0.89141 0.29607 0.0
C399 C 0.77245 1.0085 0.30237 0.0
Tb400 Tb 0.18279 0.81578 0.29746 0.0
C401 C 0.15578 0.84704 0.27836 0.0
Tb402 Tb 0.21224 0.93542 0.29399 0.0
O403 O 0.11422 0.80265 0.3063 0.0
O404 O 0.1406 0.85937 0.29586 0.0
O405 O 0.16046 0.81025 0.2833 0.0
C406 C 0.2215 0.03276 0.29091 0.0
O407 O 0.17112 0.89744 0.28128 0.0
C408 C 0.29498 0.91744 0.29491 0.0
C409 C 0.22038 0.89784 0.31358 0.0
O410 O 0.24574 1.01165 0.28629 0.0
O411 O 0.19093 0.9983 0.29711 0.0
O412 O 0.29784 0.96304 0.29718 0.0
O413 O 0.24874 0.88634 0.29156 0.0
O414 O 0.2093 0.93056 0.30869 0.0
O415 O 0.22216 0.85546 0.31003 0.0
C416 C 0.17973 0.71965 0.29754 0.0
O417 O 0.13739 0.72639 0.2976 0.0
O418 O 0.2242 0.76717 0.29748 0.0
C419 C 0.10893 0.84131 0.30251 0.0
Tb420 Tb 0.76489 0.96179 0.88991 0.0
C421 C 0.69853 0.92618 0.90877 0.0
Tb422 Tb 0.67133 0.84367 0.89264 0.0
O423 O 0.7121 0.98737 0.88315 0.0
O424 O 0.6797 0.92192 0.892 0.0
O425 O 0.74329 0.96312 0.90431 0.0
C426 C 0.57754 0.74781 0.89155 0.0
O427 O 0.66226 0.87865 0.90513 0.0
C428 C 0.77084 0.86152 0.896 0.0
C429 C 0.72173 0.88326 0.87305 0.0
O430 O 0.58794 0.79269 0.88751 0.0
O431 O 0.6199 0.75692 0.89627 0.0
O432 O 0.7267 0.82457 0.9 0.0
O433 O 0.75705 0.88307 0.8899 0.0
O434 O 0.68073 0.84663 0.87808 0.0
O435 O 0.76333 0.92859 0.87648 0.0
C436 C 0.86572 0.0498 0.89066 0.0
O437 O 0.82564 0.04504 0.88572 0.0
O438 O 0.84877 1.0051 0.8953 0.0
C439 C 0.66701 0.94559 0.88613 0.0
Tb440 Tb 0.13735 0.84608 0.88689 0.0
C441 C 0.18063 0.81905 0.90496 0.0
Tb442 Tb 0.26089 0.8735 0.88832 0.0
O443 O 0.10035 0.75781 0.88377 0.0
O444 O 0.18325 0.80813 0.88547 0.0
O445 O 0.14368 0.82936 0.90119 0.0
C446 C 0.35685 0.87628 0.88867 0.0
O447 O 0.22798 0.83112 0.90104 0.0
C448 C 0.24283 0.95682 0.88792 0.0
C449 C 0.2099 0.86699 0.86911 0.0
O450 O 0.34379 0.90563 0.89378 0.0
O451 O 0.31582 0.84528 0.88354 0.0
O452 O 0.28733 0.95888 0.88502 0.0
O453 O 0.21314 0.91103 0.89163 0.0
O454 O 0.24769 0.86396 0.87397 0.0
O455 O 0.16606 0.86647 0.87276 0.0
C456 C 0.0518 0.86279 0.88762 0.0
O457 O 0.0549 0.82347 0.89159 0.0
O458 O 0.09678 0.89253 0.88309 0.0
C459 C 0.14729 0.75912 0.8842 0.0
Tb460 Tb 0.25404 0.33966 0.88573 0.0
C461 C 0.27201 0.39772 0.90462 0.0
Tb462 Tb 0.23145 0.43418 0.88748 0.0
O463 O 0.3402 0.39111 0.88928 0.0
O464 O 0.29758 0.42475 0.88299 0.0
O465 O 0.26652 0.35392 0.90027 0.0
C466 C 0.22624 0.52576 0.88954 0.0
O467 O 0.26066 0.43364 0.90092 0.0
C468 C 0.14442 0.33645 0.88575 0.0
C469 C 0.23511 0.39432 0.86819 0.0
O470 O 0.27041 0.52393 0.88773 0.0
O471 O 0.18558 0.47625 0.89039 0.0
O472 O 0.14886 0.38127 0.88261 0.0
O473 O 0.18672 0.34768 0.89027 0.0
O474 O 0.24433 0.43712 0.87313 0.0
O475 O 0.23093 0.3491 0.87186 0.0
C476 C 0.24794 0.24217 0.88346 0.0
O477 O 0.28331 0.288 0.87968 0.0
O478 O 0.21509 0.25099 0.88845 0.0
C479 C 0.34194 0.43612 0.88681 0.0
Tb480 Tb 0.93576 0.77022 0.72621 0.0
C481 C 0.90918 0.7275 0.70604 0.0
Tb482 Tb 0.82151 0.682 0.72142 0.0
O483 O 0.94822 0.71109 0.73378 0.0
O484 O 0.89834 0.68567 0.72259 0.0
O485 O 0.94226 0.768 0.71147 0.0
C486 C 0.72742 0.58682 0.71994 0.0
O487 O 0.86364 0.68425 0.70903 0.0
C488 C 0.84383 0.78253 0.71789 0.0
C489 C 0.84265 0.73489 0.74085 0.0
O490 O 0.73852 0.63265 0.71614 0.0
O491 O 0.76933 0.5945 0.72466 0.0
O492 O 0.80755 0.73986 0.71354 0.0
O493 O 0.86013 0.76666 0.72445 0.0
O494 O 0.81217 0.69056 0.73594 0.0
O495 O 0.88995 0.77576 0.73775 0.0
C496 C 0.03541 0.85893 0.7276 0.0
O497 O 1.0157 0.81605 0.73273 0.0
O498 O 0.99861 0.85232 0.72174 0.0
C499 C 0.91521 0.66908 0.72901 0.0
Tb500 Tb 0.35339 0.21361 0.71967 0.0
C501 C 0.4092 0.21597 0.70114 0.0
Tb502 Tb 0.44102 0.17997 0.71949 0.0
O503 O 0.4149 0.29711 0.71644 0.0
O504 O 0.43648 0.2489 0.72415 0.0
O505 O 0.36454 0.21154 0.70511 0.0
C506 C 0.53581 0.17966 0.71871 0.0
O507 O 0.44741 0.21187 0.70576 0.0
C508 C 0.33972 0.09932 0.71798 0.0
C509 C 0.36984 0.1544 0.73687 0.0
O510 O 0.49044 0.14464 0.71483 0.0
O511 O 0.5279 0.2151 0.72305 0.0
O512 O 0.37878 0.09342 0.72146 0.0
O513 O 0.35988 0.14698 0.71489 0.0
O514 O 0.41813 0.16459 0.73363 0.0
O515 O 0.33682 0.1668 0.7323 0.0
C516 C 0.26952 0.23234 0.7217 0.0
O517 O 0.31476 0.25541 0.72623 0.0
O518 O 0.27093 0.19768 0.71607 0.0
C519 C 0.45487 0.29452 0.72021 0.0
Tb520 Tb 0.91491 0.18894 0.71913 0.0
C521 C 0.91031 0.24312 0.70072 0.0
Tb522 Tb 0.93715 0.30722 0.71923 0.0
O523 O 0.82654 0.15518 0.71844 0.0
O524 O 0.87509 0.23083 0.72439 0.0
O525 O 0.92159 0.20745 0.70467 0.0
C526 C 0.92395 0.39496 0.71926 0.0
O527 O 0.90956 0.28321 0.70532 0.0
C528 C 0.02306 0.29423 0.71673 0.0
C529 C 0.95693 0.2615 0.73684 0.0
O530 O 0.96667 0.39375 0.7222 0.0
O531 O 0.8891 0.34705 0.71613 0.0
O532 O 0.02671 0.33828 0.72019 0.0
O533 O 0.97511 0.26459 0.71405 0.0
O534 O 0.93772 0.29218 0.73351 0.0
O535 O 0.95581 0.22067 0.73215 0.0
C536 C 0.91584 0.09423 0.71936 0.0
O537 O 0.88396 0.10476 0.71458 0.0
O538 O 0.94778 0.13734 0.72406 0.0
C539 C 0.82763 0.19852 0.72153 0.0
Tb540 Tb 0.4447 0.25723 0.13201 0.0
C541 C 0.39382 0.20412 0.15066 0.0
Tb542 Tb 0.3518 0.13647 0.13266 0.0
O543 O 0.38583 0.282 0.13611 0.0
O544 O 0.36029 0.21195 0.12839 0.0
O545 O 0.43939 0.24092 0.14648 0.0
C546 C 0.25034 0.05104 0.13126 0.0
O547 O 0.3511 0.16534 0.14625 0.0
C548 C 0.44865 0.15422 0.13788 0.0
C549 C 0.42059 0.18035 0.11469 0.0
O550 O 0.26319 0.09788 0.13483 0.0
O551 O 0.2949 0.05181 0.1286 0.0
O552 O 0.40274 0.1111 0.14032 0.0
O553 O 0.43767 0.17966 0.13213 0.0
O554 O 0.37486 0.14116 0.11851 0.0
O555 O 0.45434 0.22722 0.11885 0.0
C556 C 0.52961 0.35695 0.12894 0.0
O557 O 0.4835 0.33441 0.12463 0.0
O558 O 0.52842 0.32289 0.13497 0.0
C559 C 0.34412 0.24016 0.13256 0.0
Tb560 Tb 0.85849 0.23295 0.1348 0.0
C561 C 0.91307 0.22638 0.15269 0.0
Tb562 Tb 0.97769 0.26067 0.13417 0.0
O563 O 0.8301 0.14583 0.13579 0.0
O564 O 0.90281 0.19683 0.12899 0.0
O565 O 0.87798 0.23958 0.14912 0.0
C566 C 0.07203 0.26002 0.13496 0.0
O567 O 0.95055 0.2235 0.14761 0.0
C568 C 0.96138 0.34309 0.13679 0.0
C569 C 0.93078 0.28711 0.11695 0.0
O570 O 0.06146 0.2945 0.139 0.0
O571 O 0.02941 0.22573 0.13037 0.0
O572 O 1.00413 0.3477 0.1326 0.0
O573 O 0.93323 0.29541 0.13981 0.0
O574 O 0.97064 0.2798 0.12021 0.0
O575 O 0.88423 0.27217 0.12146 0.0
C576 C 0.76112 0.2285 0.13535 0.0
O577 O 0.77094 0.1908 0.13813 0.0
O578 O 0.80622 0.26897 0.13215 0.0
C579 C 0.87306 0.14905 0.13201 0.0
Tb580 Tb 0.89102 0.67215 0.12809 0.0
C581 C 0.904 0.73616 0.14619 0.0
Tb582 Tb 0.859 0.76506 0.12842 0.0
O583 O 0.97812 0.72406 0.12455 0.0
O584 O 0.92733 0.75625 0.12549 0.0
O585 O 0.90123 0.69209 0.14237 0.0
C586 C 0.85814 0.85891 0.13005 0.0
O587 O 0.89507 0.77206 0.14175 0.0
C588 C 0.77878 0.66367 0.13078 0.0
C589 C 0.83122 0.69079 0.11142 0.0
O590 O 0.82698 0.81393 0.13443 0.0
O591 O 0.89014 0.85119 0.12462 0.0
O592 O 0.77119 0.7022 0.12752 0.0
O593 O 0.82785 0.68444 0.1331 0.0
O594 O 0.84419 0.74051 0.11434 0.0
O595 O 0.8399 0.65599 0.11619 0.0
C596 C 0.89205 0.57843 0.12769 0.0
O597 O 0.89903 0.60943 0.12081 0.0
O598 O 0.88367 0.59978 0.13485 0.0
C599 C 0.97605 0.76877 0.12388 0.0
Tb600 Tb 0.97166 0.74055 0.63351 0.0
C601 C 0.92036 0.66755 0.61626 0.0
Tb602 Tb 0.85201 0.64984 0.63411 0.0
O603 O 1.00054 0.68109 0.63211 0.0
O604 O 0.92709 0.66032 0.63861 0.0
O605 O 0.9576 0.71681 0.61929 0.0
C606 C 0.75135 0.56408 0.63596 0.0
O607 O 0.87669 0.6331 0.62109 0.0
C608 C 0.86748 0.74877 0.63179 0.0
C609 C 0.91006 0.70211 0.65244 0.0
O610 O 0.77308 0.60711 0.64097 0.0
O611 O 0.78648 0.56875 0.6298 0.0
O612 O 0.82424 0.70874 0.63535 0.0
O613 O 0.89673 0.7307 0.62857 0.0
O614 O 0.87376 0.65704 0.64822 0.0
O615 O 0.9517 0.74275 0.64796 0.0
C616 C 0.05793 0.84231 0.63313 0.0
O617 O 0.05929 0.79801 0.63124 0.0
O618 O 1.00828 0.8292 0.63536 0.0
C619 C 0.95578 0.64137 0.6356 0.0
Tb620 Tb 0.34523 0.23619 0.62898 0.0
C621 C 0.40432 0.24347 0.61024 0.0
Tb622 Tb 0.43376 0.20401 0.62833 0.0
O623 O 0.40445 0.3151 0.63546 0.0
O624 O 0.42928 0.2746 0.62675 0.0
O625 O 0.35981 0.23804 0.6144 0.0
C626 C 0.52631 0.20057 0.63024 0.0
O627 O 0.4407 0.23443 0.61449 0.0
C628 C 0.33517 0.12443 0.62441 0.0
C629 C 0.3832 0.21414 0.64727 0.0
O630 O 0.47761 0.16146 0.63241 0.0
O631 O 0.52275 0.24119 0.62696 0.0
O632 O 0.38034 0.12972 0.62107 0.0
O633 O 0.34707 0.16145 0.63025 0.0
O634 O 0.42575 0.21592 0.64293 0.0
O635 O 0.34233 0.21445 0.64295 0.0
C636 C 0.25351 0.24088 0.62716 0.0
O637 O 0.30279 0.28261 0.62735 0.0
O638 O 0.25564 0.19618 0.62799 0.0
C639 C 0.44647 0.31446 0.63191 0.0
Tb640 Tb 0.84651 0.11395 0.63179 0.0
C641 C 0.81803 0.14642 0.61292 0.0
Tb642 Tb 0.87617 0.23699 0.62843 0.0
O643 O 0.77324 0.09788 0.63958 0.0
O644 O 0.80549 0.15899 0.62995 0.0
O645 O 0.82421 0.10965 0.61762 0.0
C646 C 0.88085 0.33327 0.62684 0.0
O647 O 0.83141 0.19598 0.61609 0.0
C648 C 0.96294 0.22368 0.62701 0.0
C649 C 0.89342 0.19816 0.64749 0.0
O650 O 0.89694 0.31094 0.6208 0.0
O651 O 0.86038 0.3004 0.63372 0.0
O652 O 0.96492 0.27011 0.62581 0.0
O653 O 0.91397 0.1898 0.6287 0.0
O654 O 0.8801 0.2311 0.64311 0.0
O655 O 0.89409 0.15617 0.64356 0.0
C656 C 0.84538 0.01895 0.63236 0.0
O657 O 0.81641 0.03254 0.63741 0.0
O658 O 0.87481 0.05874 0.62683 0.0
C659 C 0.77079 0.13906 0.63619 0.0
Tb660 Tb 0.45075 0.30969 0.22259 0.0
C661 C 0.37788 0.26903 0.23963 0.0
Tb662 Tb 0.35451 0.1915 0.22277 0.0
O663 O 0.39465 0.34316 0.22298 0.0
O664 O 0.37078 0.26708 0.21739 0.0
O665 O 0.42947 0.29766 0.23679 0.0
C666 C 0.26392 0.09342 0.2245 0.0
O667 O 0.33958 0.22842 0.23475 0.0
C668 C 0.45261 0.20389 0.2247 0.0
C669 C 0.41562 0.24068 0.20425 0.0
O670 O 0.30724 0.11237 0.2295 0.0
O671 O 0.27101 0.13037 0.21859 0.0
O672 O 0.41236 0.16243 0.22077 0.0
O673 O 0.43584 0.23413 0.22799 0.0
O674 O 0.37064 0.20126 0.20826 0.0
O675 O 0.45318 0.28456 0.20867 0.0
C676 C 0.55325 0.39472 0.22243 0.0
O677 O 0.53905 0.34514 0.22006 0.0
O678 O 0.50966 0.39658 0.22474 0.0
C679 C 0.35384 0.29875 0.21971 0.0
Tb680 Tb 0.82651 0.19679 0.22417 0.0
C681 C 0.86793 0.16873 0.24176 0.0
Tb682 Tb 0.94927 0.22983 0.22513 0.0
O683 O 0.79963 0.10881 0.22493 0.0
O684 O 0.87671 0.1655 0.21997 0.0
O685 O 0.82977 0.17764 0.23823 0.0
C686 C 0.04991 0.24388 0.22685 0.0
O687 O 0.91534 0.1829 0.23764 0.0
C688 C 0.92907 0.31046 0.22551 0.0
C689 C 0.90021 0.23637 0.20646 0.0
O690 O 0.02839 0.26553 0.23197 0.0
O691 O 1.01441 0.21356 0.22082 0.0
O692 O 0.9739 0.31434 0.2224 0.0
O693 O 0.89995 0.26414 0.22913 0.0
O694 O 0.93835 0.22924 0.21051 0.0
O695 O 0.85777 0.2336 0.21092 0.0
C696 C 0.73188 0.19653 0.22265 0.0
O697 O 0.74547 0.16531 0.21824 0.0
O698 O 0.77175 0.22823 0.22797 0.0
C699 C 0.84739 0.11682 0.22242 0.0
Tb700 Tb 0.93957 0.68777 0.21826 0.0
C701 C 0.96175 0.7631 0.2352 0.0
Tb702 Tb 0.90674 0.77932 0.21772 0.0
O703 O 0.02635 0.75028 0.21979 0.0
O704 O 0.97198 0.76838 0.21326 0.0
O705 O 0.95111 0.71405 0.23228 0.0
C706 C 0.89513 0.86573 0.21518 0.0
O707 O 0.95127 0.79676 0.23042 0.0
C708 C 0.82426 0.68432 0.22341 0.0
C709 C 0.90289 0.71574 0.19983 0.0
O710 O 0.93307 0.86542 0.22012 0.0
O711 O 0.8651 0.81806 0.21157 0.0
O712 O 0.82253 0.72922 0.22304 0.0
O713 O 0.87143 0.69629 0.22089 0.0
O714 O 0.90808 0.76129 0.20344 0.0
O715 O 0.90673 0.6781 0.20465 0.0
C716 C 0.93698 0.59245 0.21822 0.0
O717 O 0.9697 0.63486 0.21339 0.0
O718 O 0.90583 0.6038 0.22319 0.0
C719 C 1.02004 0.78892 0.21621 0.0
H720 H 0.38433 0.07992 0.1072 0.0
H721 H 0.50277 0.25116 0.10344 0.0
H722 H 0.5434 0.22836 0.09079 0.0
H723 H 0.54608 0.15986 0.08092 0.0
H724 H 0.42734 0.98874 0.08461 0.0
H725 H 0.38685 1.01147 0.09731 0.0
C726 C 0.41851 0.11244 0.10355 0.0
C727 C 0.44012 0.16731 0.10625 0.0
C728 C 0.44242 0.09896 0.09639 0.0
C729 C 0.48504 0.20865 0.10149 0.0
C730 C 0.5086 0.19561 0.09429 0.0
C731 C 0.512 0.12737 0.0846 0.0
C732 C 0.49025 0.07254 0.08189 0.0
C733 C 0.48807 0.14086 0.09176 0.0
C734 C 0.4452 0.03119 0.08661 0.0
C735 C 0.42175 0.04421 0.09383 0.0
H736 H 0.02879 0.35014 0.10842 0.0
H737 H 0.85664 0.29769 0.10642 0.0
H738 H 0.87506 0.3553 0.09309 0.0
H739 H 0.94022 0.42018 0.08182 0.0
H740 H 0.11241 0.47291 0.08412 0.0
H741 H 0.09375 0.41638 0.09752 0.0
C742 C 0.99506 0.35065 0.10503 0.0
C743 C 0.94117 0.31867 0.10839 0.0
C744 C 1.00607 0.3847 0.09745 0.0
C745 C 0.89842 0.32122 0.10397 0.0
C746 C 0.90899 0.35449 0.09635 0.0
C747 C 0.97382 0.41998 0.08532 0.0
C748 C 0.02779 0.45116 0.08192 0.0
C749 C 0.96272 0.3866 0.09303 0.0
C750 C 0.07052 0.44961 0.08654 0.0
C751 C 0.05985 0.41697 0.0942 0.0
H752 H 0.69534 0.56319 0.07716 0.0
H753 H 0.62262 0.66419 0.08201 0.0
H754 H 0.68303 0.70661 0.09482 0.0
H755 H 0.75795 0.71669 0.10451 0.0
H756 H 0.82945 0.61451 0.09997 0.0
H757 H 0.76887 0.57164 0.08713 0.0
C758 C 0.69199 0.59372 0.08112 0.0
C759 C 0.65419 0.61017 0.07865 0.0
C760 C 0.7275 0.61864 0.08844 0.0
C761 C 0.65121 0.6506 0.08377 0.0
C762 C 0.686 0.67519 0.09107 0.0
C763 C 0.76083 0.68566 0.10062 0.0
C764 C 0.79873 0.66945 0.1031 0.0
C765 C 0.72485 0.66013 0.0934 0.0
C766 C 0.80094 0.62807 0.09814 0.0
C767 C 0.76607 0.60328 0.09084 0.0
H768 H 0.16024 0.49863 0.44126 0.0
H769 H 0.98943 0.39795 0.43438 0.0
H770 H 1.01437 0.3635 0.42122 0.0
H771 H 0.08382 0.36055 0.41166 0.0
H772 H 0.25516 0.46219 0.41798 0.0
H773 H 0.23091 0.49661 0.43137 0.0
C774 C 0.12858 0.46991 0.43678 0.0
C775 C 0.07292 0.45138 0.43881 0.0
C776 C 0.14322 0.44948 0.42919 0.0
C777 C 0.03252 0.4132 0.43301 0.0
C778 C 0.04672 0.39315 0.42548 0.0
C779 C 0.116 0.38969 0.41601 0.0
C780 C 0.17131 0.40809 0.41384 0.0
C781 C 0.10181 0.41048 0.42355 0.0
C782 C 0.21225 0.44687 0.4195 0.0
C783 C 0.19838 0.4669 0.42714 0.0
H784 H 0.67882 0.65927 0.44052 0.0
H785 H 0.5086 0.58242 0.43283 0.0
H786 H 0.5327 0.64717 0.4204 0.0
H787 H 0.60189 0.72656 0.41183 0.0
H788 H 0.77208 0.80262 0.41941 0.0
H789 H 0.74797 0.738 0.4319 0.0
C790 C 0.64702 0.65596 0.43604 0.0
C791 C 0.59197 0.6156 0.43758 0.0
C792 C 0.66099 0.69409 0.42901 0.0
C793 C 0.55133 0.61277 0.43178 0.0
C794 C 0.565 0.65012 0.4247 0.0
C795 C 0.63356 0.72971 0.41633 0.0
C796 C 0.68862 0.76991 0.41479 0.0
C797 C 0.61959 0.69144 0.42334 0.0
C798 C 0.72935 0.77242 0.42052 0.0
C799 C 0.71564 0.73519 0.42761 0.0
H800 H 0.33834 0.99852 0.41252 0.0
H801 H 0.29619 0.8289 0.41357 0.0
H802 H 0.35205 0.84682 0.42696 0.0
H803 H 0.4125 0.90994 0.43842 0.0
H804 H 0.45408 0.07936 0.43777 0.0
H805 H 0.39974 0.06239 0.42412 0.0
C806 C 0.34075 0.96535 0.41575 0.0
C807 C 0.31263 0.91233 0.41206 0.0
C808 C 0.37367 0.97605 0.42344 0.0
C809 C 0.31712 0.87006 0.41626 0.0
C810 C 0.34935 0.88029 0.42391 0.0
C811 C 0.41053 0.94348 0.43523 0.0
C812 C 0.43781 0.99598 0.43909 0.0
C813 C 0.37812 0.93315 0.42752 0.0
C814 C 0.43378 0.03859 0.43492 0.0
C815 C 0.40237 0.02883 0.42714 0.0
H816 H 0.57048 0.9432 0.94223 0.0
H817 H 0.66176 0.11474 0.93547 0.0
H818 H 0.70826 0.0952 0.92321 0.0
H819 H 0.7221 0.02839 0.91433 0.0
H820 H 0.63257 0.85765 0.92181 0.0
H821 H 0.58746 0.87804 0.93401 0.0
C822 C 0.59981 0.97624 0.93797 0.0
C823 C 0.61162 0.03017 0.93959 0.0
C824 C 0.6277 0.96495 0.9312 0.0
C825 C 0.65125 0.07275 0.93423 0.0
C826 C 0.67818 0.06162 0.92729 0.0
C827 C 0.69371 0.99593 0.91877 0.0
C828 C 0.68096 0.94156 0.91718 0.0
C829 C 0.66703 1.00784 0.92574 0.0
C830 C 0.64326 0.89983 0.9229 0.0
C831 C 0.61703 0.91136 0.92984 0.0
H832 H 0.07895 0.751 0.91209 0.0
H833 H 0.25117 0.81419 0.91699 0.0
H834 H 0.22902 0.75497 0.93016 0.0
H835 H 0.16071 0.68466 0.94035 0.0
H836 H 0.98848 0.62129 0.93541 0.0
H837 H 1.01066 0.68016 0.9222 0.0
C838 C 0.11168 0.75246 0.91611 0.0
C839 C 0.16672 0.78764 0.91357 0.0
C840 C 0.09863 0.71736 0.92362 0.0
C841 C 0.20845 0.7879 0.91879 0.0
C842 C 0.19582 0.75373 0.92631 0.0
C843 C 0.12798 0.683 0.9363 0.0
C844 C 0.07292 0.64805 0.93886 0.0
C845 C 0.14104 0.71787 0.92876 0.0
C846 C 0.0312 0.64747 0.9336 0.0
C847 C 0.04385 0.68145 0.92605 0.0
H848 H 0.40211 0.52261 0.93908 0.0
H849 H 0.48937 0.4366 0.93328 0.0
H850 H 0.42809 0.39044 0.92057 0.0
H851 H 0.34977 0.37551 0.91102 0.0
H852 H 0.26103 0.45917 0.9176 0.0
H853 H 0.32162 0.5037 0.9303 0.0
C854 C 0.40823 0.49423 0.93499 0.0
C855 C 0.45092 0.48384 0.93703 0.0
C856 C 0.37162 0.46633 0.92797 0.0
C857 C 0.4573 0.44591 0.93177 0.0
C858 C 0.42195 0.41914 0.92456 0.0
C859 C 0.34281 0.4023 0.91538 0.0
C860 C 0.30058 0.41363 0.91339 0.0
C861 C 0.3786 0.4287 0.92263 0.0
C862 C 0.29297 0.44948 0.91901 0.0
C863 C 0.32797 0.47544 0.92622 0.0
H864 H 1.01725 0.70657 0.60711 0.0
H865 H 0.84651 0.58173 0.60606 0.0
H866 H 0.86438 0.54245 0.5927 0.0
H867 H 0.92861 0.54273 0.58135 0.0
H868 H 0.09952 0.66717 0.58249 0.0
H869 H 0.08152 0.70668 0.5958 0.0
C870 C 0.98375 0.67125 0.60389 0.0
C871 C 0.93044 0.64764 0.60757 0.0
C872 C 0.9945 0.64812 0.59628 0.0
C873 C 0.88787 0.60111 0.60337 0.0
C874 C 0.89811 0.57835 0.59575 0.0
C875 C 0.96211 0.57809 0.58457 0.0
C876 C 1.01549 0.60163 0.58091 0.0
C877 C 0.95135 0.60118 0.59218 0.0
C878 C 0.05808 0.64799 0.58513 0.0
C879 C 0.04778 0.67083 0.59274 0.0
H880 H 0.52432 0.38934 0.57609 0.0
H881 H 0.41457 0.45061 0.58216 0.0
H882 H 0.37287 0.38364 0.59426 0.0
H883 H 0.36878 0.30953 0.6034 0.0
H884 H 0.48017 0.2497 0.59787 0.0
H885 H 0.5188 0.31313 0.58513 0.0
C886 C 0.49169 0.38851 0.58012 0.0
C887 C 0.4732 0.42572 0.57824 0.0
C888 C 0.4674 0.34938 0.58707 0.0
C889 C 0.43008 0.42303 0.58345 0.0
C890 C 0.40591 0.38443 0.59036 0.0
C891 C 0.40076 0.3094 0.59932 0.0
C892 C 0.42103 0.27421 0.60157 0.0
C893 C 0.42414 0.34738 0.59222 0.0
C894 C 0.46337 0.27583 0.59627 0.0
C895 C 0.48587 0.31254 0.58903 0.0
H896 H 0.75512 0.18405 0.60562 0.0
H897 H 0.80554 0.06392 0.60177 0.0
H898 H 0.74267 0.02496 0.58908 0.0
H899 H 0.67207 0.02413 0.57925 0.0
H900 H 0.62084 0.14353 0.58345 0.0
H901 H 0.68472 0.18302 0.59591 0.0
C902 C 0.75309 0.14993 0.60192 0.0
C903 C 0.78541 0.1273 0.60458 0.0
C904 C 0.71592 0.12692 0.59479 0.0
C905 C 0.78131 0.08229 0.59982 0.0
C906 C 0.74513 0.05979 0.5926 0.0
C907 C 0.67431 0.05828 0.58297 0.0
C908 C 0.64136 0.08052 0.58044 0.0
C909 C 0.71171 0.08134 0.59009 0.0
C910 C 0.64553 0.12541 0.58526 0.0
C911 C 0.68231 0.14828 0.59236 0.0
H912 H 0.85585 0.83117 0.74679 0.0
H913 H 0.77125 0.65851 0.75281 0.0
H914 H 0.72688 0.67388 0.76585 0.0
H915 H 0.71564 0.73759 0.77591 0.0
H916 H 0.79887 0.90983 0.76936 0.0
H917 H 0.83906 0.89318 0.75603 0.0
C918 C 0.82813 0.79696 0.75101 0.0
C919 C 0.81779 0.74396 0.74898 0.0
C920 C 0.80178 0.80593 0.75831 0.0
C921 C 0.78041 0.69979 0.75433 0.0
C922 C 0.75483 0.70855 0.76174 0.0
C923 C 0.74145 0.77125 0.77144 0.0
C924 C 0.75429 0.82494 0.77366 0.0
C925 C 0.76534 0.76154 0.76382 0.0
C926 C 0.78836 0.86814 0.76784 0.0
C927 C 0.81177 0.85875 0.76024 0.0
H928 H 0.23998 1.00385 0.77017 0.0
H929 H 0.37819 0.97719 0.77004 0.0
H930 H 0.41754 0.03874 0.75715 0.0
H931 H 0.4138 0.10152 0.74607 0.0
H932 H 0.27593 0.1288 0.74627 0.0
H933 H 0.236 0.06634 0.75902 0.0
C934 C 0.27829 1.01075 0.76725 0.0
C935 C 0.30574 0.98531 0.77106 0.0
C936 C 0.30133 0.04716 0.75992 0.0
C937 C 0.35593 0.99583 0.76724 0.0
C938 C 0.37866 0.03134 0.75989 0.0
C939 C 0.37531 0.09441 0.74894 0.0
C940 C 0.34837 0.12059 0.74521 0.0
C941 C 0.35207 0.05774 0.75623 0.0
C942 C 0.29802 0.10984 0.749 0.0
C943 C 0.27488 0.07374 0.75628 0.0
H944 H 0.03326 0.23766 0.74324 0.0
H945 H 0.9494 0.32636 0.74973 0.0
H946 H 1.00739 0.3659 0.7629 0.0
H947 H 0.08302 0.37663 0.77252 0.0
H948 H 0.16541 0.28636 0.7663 0.0
H949 H 0.10782 0.24709 0.75303 0.0
C950 C 0.02696 0.26483 0.74763 0.0
C951 C 0.98662 0.27856 0.74552 0.0
C952 C 0.06107 0.28816 0.75515 0.0
C953 C 0.97989 0.31477 0.7512 0.0
C954 C 1.01333 0.33777 0.75871 0.0
C955 C 0.08892 0.34905 0.76818 0.0
C956 C 0.12895 0.33505 0.77032 0.0
C957 C 0.05453 0.32535 0.7607 0.0
C958 C 0.13516 0.29814 0.76475 0.0
C959 C 0.10198 0.27536 0.75719 0.0
H960 H 0.35248 0.39271 0.27319 0.0
H961 H 0.181 0.28834 0.26732 0.0
H962 H 0.20457 0.24763 0.2547 0.0
H963 H 0.27441 0.24101 0.24546 0.0
H964 H 0.44567 0.34298 0.25202 0.0
H965 H 0.42159 0.38431 0.26431 0.0
C966 C 0.32028 0.36171 0.26905 0.0
C967 C 0.2651 0.34443 0.27106 0.0
C968 C 0.33409 0.33714 0.26204 0.0
C969 C 0.22381 0.30289 0.26583 0.0
C970 C 0.23729 0.27932 0.25866 0.0
C971 C 0.30645 0.27167 0.24966 0.0
C972 C 0.36188 0.28853 0.24779 0.0
C973 C 0.29234 0.29572 0.25675 0.0
C974 C 0.40271 0.32893 0.25327 0.0
C975 C 0.38902 0.35293 0.26029 0.0
H976 H 0.84562 0.02726 0.2763 0.0
H977 H 0.67393 0.9598 0.27024 0.0
H978 H 0.69758 0.02216 0.2575 0.0
H979 H 0.76647 0.09648 0.24815 0.0
H980 H 0.93835 0.16304 0.2538 0.0
H981 H 0.91511 0.10108 0.26669 0.0
C982 C 0.81338 0.02554 0.27211 0.0
C983 C 0.75799 0.98842 0.27422 0.0
C984 C 0.82725 0.06209 0.2648 0.0
C985 C 0.71686 0.98767 0.26879 0.0
C986 C 0.73033 0.02357 0.26151 0.0
C987 C 0.79893 0.09803 0.25226 0.0
C988 C 0.8541 0.13498 0.25007 0.0
C989 C 0.7853 0.06133 0.25951 0.0
C990 C 0.89554 0.13535 0.25537 0.0
C991 C 0.88227 0.09968 0.26271 0.0
H992 H 1.01712 0.72216 0.24427 0.0
H993 H 0.98031 0.8535 0.24489 0.0
H994 H 0.04011 0.89333 0.25789 0.0
H995 H 0.10272 0.89064 0.26917 0.0
H996 H 0.13921 0.75908 0.26837 0.0
H997 H 0.08037 0.72024 0.25529 0.0
C998 C 1.02149 0.75912 0.2473 0.0
C999 C 0.99354 0.78431 0.24364 0.0
C1000 C 0.05665 0.78233 0.25468 0.0
C1001 C 1.00083 0.83286 0.24759 0.0
C1002 C 0.03534 0.8559 0.255 0.0
C1003 C 0.09847 0.85394 0.26605 0.0
C1004 C 0.1256 0.82799 0.26975 0.0
C1005 C 0.06373 0.83117 0.25858 0.0
C1006 C 0.1189 0.77998 0.26568 0.0
C1007 C 0.08501 0.75753 0.25821 0.0
H1008 H 0.47955 0.97819 0.02431 0.0
H1009 H 0.62511 0.13587 0.02791 0.0
H1010 H 0.63506 0.14895 0.01169 0.0
H1011 H 0.60298 0.1162 0.99646 0.0
H1012 H 0.45782 0.9586 0.99267 0.0
H1013 H 0.44718 0.94532 1.00894 0.0
C1014 C 0.5136 0.01528 0.02154 0.0
C1015 C 0.55149 0.05586 0.02736 0.0
C1016 C 0.51907 0.02285 0.01216 0.0
C1017 C 0.59519 0.10384 0.02363 0.0
C1018 C 0.60097 0.1115 0.01433 0.0
C1019 C 0.56876 0.07905 0.99917 0.0
C1020 C 0.53124 0.03859 0.99332 0.0
C1021 C 0.56308 0.07142 1.00853 0.0
C1022 C 0.48737 0.99056 0.99699 0.0
C1023 C 0.48128 0.98282 1.00631 0.0
H1024 H 0.11253 0.56757 0.99494 0.0
H1025 H 0.95057 0.54858 0.99466 0.0
H1026 H 0.94411 0.53741 0.01096 0.0
H1027 H 0.98391 0.53195 0.02543 0.0
H1028 H 0.14544 0.54981 0.02554 0.0
H1029 H 0.15227 0.56252 1.00932 0.0
C1030 C 0.07579 0.56102 0.99842 0.0
C1031 C 0.0322 0.55894 0.9935 0.0
C1032 C 0.0721 0.5544 1.00785 0.0
C1033 C 0.98492 0.55033 0.99821 0.0
C1034 C 0.9811 0.54397 1.00757 0.0
C1035 C 1.02069 0.53889 0.02191 0.0
C1036 C 0.06392 0.53973 0.02677 0.0
C1037 C 0.0244 0.54584 0.01248 0.0
C1038 C 0.11119 0.54855 0.02204 0.0
C1039 C 0.1153 0.55593 0.01272 0.0
H1040 H 0.55348 0.62082 0.02229 0.0
H1041 H 0.54453 0.46405 0.02525 0.0
H1042 H 0.53203 0.44898 1.00915 0.0
H1043 H 0.526 0.4804 0.99421 0.0
H1044 H 0.53448 0.63651 0.99085 0.0
H1045 H 0.5446 0.65141 1.00712 0.0
C1046 C 0.54854 0.58326 0.01942 0.0
C1047 C 0.55035 0.54389 0.02503 0.0
C1048 C 0.54144 0.57466 0.01007 0.0
C1049 C 0.54371 0.49538 0.02116 0.0
C1050 C 0.53652 0.48658 0.01192 0.0
C1051 C 0.53005 0.5178 0.99699 0.0
C1052 C 0.5298 0.55738 0.99128 0.0
C1053 C 0.53581 0.52608 1.00631 0.0
C1054 C 0.53463 0.60531 0.99507 0.0
C1055 C 0.54047 0.6139 1.00439 0.0
H1056 H 0.95956 0.46734 0.52505 0.0
H1057 H 0.13391 0.58102 0.52572 0.0
H1058 H 0.13889 0.57796 0.50945 0.0
H1059 H 0.09465 0.54586 0.49495 0.0
H1060 H 0.92097 0.43121 0.4937 0.0
H1061 H 0.91497 0.43206 0.51017 0.0
C1062 C 0.99868 0.49085 0.52163 0.0
C1063 C 0.04622 0.52451 0.52667 0.0
C1064 C 1.00143 0.48931 0.51212 0.0
C1065 C 0.09649 0.555 0.52208 0.0
C1066 C 0.09949 0.55341 0.51273 0.0
C1067 C 0.05525 0.52115 0.49824 0.0
C1068 C 1.00825 0.48891 0.49303 0.0
C1069 C 0.05224 0.52135 0.50768 0.0
C1070 C 0.95786 0.45665 0.4975 0.0
C1071 C 0.95442 0.45704 0.50694 0.0
H1072 H 0.61002 0.55204 0.49477 0.0
H1073 H 0.44064 0.50644 0.49092 0.0
H1074 H 0.42783 0.50743 0.50716 0.0
H1075 H 0.46436 0.51994 0.52253 0.0
H1076 H 0.6344 0.56707 0.52626 0.0
H1077 H 0.64721 0.5674 0.51006 0.0
C1078 C 0.57019 0.54188 0.49749 0.0
C1079 C 0.52631 0.52875 0.49163 0.0
C1080 C 0.56324 0.54331 0.50684 0.0
C1081 C 0.47517 0.51659 0.49527 0.0
C1082 C 0.46778 0.51726 0.50456 0.0
C1083 C 0.50437 0.53091 0.5198 0.0
C1084 C 0.54818 0.54324 0.52565 0.0
C1085 C 0.51156 0.53066 0.51042 0.0
C1086 C 0.59972 0.55713 0.52196 0.0
C1087 C 0.60718 0.55719 0.51267 0.0
H1088 H 0.52458 0.95387 0.52518 0.0
H1089 H 0.50253 0.0941 0.5283 0.0
H1090 H 0.4893 0.09587 0.51221 0.0
H1091 H 0.48826 0.06116 0.4972 0.0
H1092 H 0.50961 0.92102 0.49366 0.0
H1093 H 0.51849 0.91559 0.50996 0.0
C1094 C 0.51636 0.98446 0.52235 0.0
C1095 C 0.51512 0.02407 0.52797 0.0
C1096 C 0.50896 0.98557 0.513 0.0
C1097 C 0.50427 0.06335 0.52417 0.0
C1098 C 0.49668 0.0645 0.51494 0.0
C1099 C 0.49483 0.02933 0.49997 0.0
C1100 C 0.49883 0.99193 0.49421 0.0
C1101 C 0.4998 0.02643 0.50929 0.0
C1102 C 0.50651 0.95046 0.49795 0.0
C1103 C 0.51167 0.94739 0.50727 0.0
H1104 H 0.17151 0.3197 0.32721 0.0
H1105 H 0.30254 0.48768 0.32583 0.0
H1106 H 0.30783 0.49164 0.34225 0.0
H1107 H 0.27528 0.44715 0.35708 0.0
H1108 H 0.14538 0.27835 0.35821 0.0
H1109 H 0.14012 0.27515 0.34188 0.0
C1110 C 0.20098 0.35738 0.33049 0.0
C1111 C 0.23634 0.40338 0.32526 0.0
C1112 C 0.20438 0.35918 0.33993 0.0
C1113 C 0.27474 0.45158 0.32966 0.0
C1114 C 0.27788 0.45389 0.33906 0.0
C1115 C 0.24606 0.40957 0.35376 0.0
C1116 C 0.21087 0.36312 0.35893 0.0
C1117 C 0.24305 0.40784 0.34428 0.0
C1118 C 0.17313 0.31484 0.35447 0.0
C1119 C 0.16989 0.31291 0.34509 0.0
H1120 H 0.645 0.84114 0.35897 0.0
H1121 H 0.81567 0.88557 0.3601 0.0
H1122 H 0.82272 0.89425 0.34382 0.0
H1123 H 0.7817 0.8909 0.32926 0.0
H1124 H 0.61172 0.84813 0.32786 0.0
H1125 H 0.60329 0.83676 0.34419 0.0
C1126 C 0.68375 0.85285 0.35566 0.0
C1127 C 0.72967 0.86276 0.36081 0.0
C1128 C 0.68774 0.85785 0.34622 0.0
C1129 C 0.77951 0.87766 0.35636 0.0
C1130 C 0.78369 0.88261 0.34702 0.0
C1131 C 0.74259 0.87864 0.33249 0.0
C1132 C 0.69747 0.8704 0.32731 0.0
C1133 C 0.73816 0.87286 0.34189 0.0
C1134 C 0.64725 0.85484 0.33166 0.0
C1135 C 0.64238 0.84843 0.34102 0.0
H1136 H 0.21646 0.82599 0.32605 0.0
H1137 H 0.23657 0.98735 0.32339 0.0
H1138 H 0.24187 0.99785 0.33977 0.0
H1139 H 0.23992 0.96029 0.35496 0.0
H1140 H 0.21665 0.79709 0.35712 0.0
H1141 H 0.21323 0.78854 0.3409 0.0
C1142 C 0.22247 0.86375 0.32902 0.0
C1143 C 0.2265 0.90592 0.32347 0.0
C1144 C 0.22454 0.86913 0.33841 0.0
C1145 C 0.23348 0.95419 0.32749 0.0
C1146 C 0.23641 0.9602 0.33687 0.0
C1147 C 0.23393 0.92283 0.35188 0.0
C1148 C 0.22867 0.87958 0.35734 0.0
C1149 C 0.23172 0.91776 0.34242 0.0
C1150 C 0.22087 0.8313 0.35318 0.0
C1151 C 0.219 0.82621 0.34385 0.0
H1152 H 0.67204 0.80366 0.8327 0.0
H1153 H 0.81959 0.95883 0.8283 0.0
H1154 H 0.82827 0.97612 0.84444 0.0
H1155 H 0.79305 0.94819 0.85987 0.0
H1156 H 0.64546 0.79265 0.86414 0.0
H1157 H 0.63822 0.77483 0.84807 0.0
C1158 C 0.70612 0.84127 0.83525 0.0
C1159 C 0.74488 0.87983 0.82925 0.0
C1160 C 0.71107 0.85106 0.84457 0.0
C1161 C 0.78897 0.92826 0.83273 0.0
C1162 C 0.79406 0.9383 0.84198 0.0
C1163 C 0.7595 0.91027 0.8573 0.0
C1164 C 0.71994 0.87204 0.86326 0.0
C1165 C 0.75524 0.90009 0.84798 0.0
C1166 C 0.67665 0.82309 0.85976 0.0
C1167 C 0.67229 0.81272 0.85053 0.0
H1168 H 0.15234 0.88435 0.85566 0.0
H1169 H 0.2873 0.85507 0.86001 0.0
H1170 H 0.30565 0.86117 0.84404 0.0
H1171 H 0.28564 0.87611 0.82871 0.0
H1172 H 0.15154 0.90553 0.82388 0.0
H1173 H 0.13104 0.89793 0.83998 0.0
C1174 C 0.18558 0.87913 0.85311 0.0
C1175 C 0.2183 0.86955 0.85915 0.0
C1176 C 0.19646 0.88276 0.84375 0.0
C1177 C 0.2613 0.8629 0.85564 0.0
C1178 C 0.27205 0.86628 0.84644 0.0
C1179 C 0.25182 0.88077 0.83115 0.0
C1180 C 0.22041 0.89146 0.82504 0.0
C1181 C 0.2402 0.87646 0.84043 0.0
C1182 C 0.17665 0.89728 0.82839 0.0
C1183 C 0.16481 0.89297 0.83763 0.0
H1184 H 0.22428 0.45297 0.82739 0.0
H1185 H 0.19742 0.28921 0.82392 0.0
H1186 H 0.20339 0.2801 0.84002 0.0
H1187 H 0.21674 0.31801 0.85525 0.0
H1188 H 0.24366 0.48159 0.85885 0.0
H1189 H 0.23712 0.49082 0.84271 0.0
C1190 C 0.21965 0.4153 0.83015 0.0
C1191 C 0.21048 0.37212 0.82437 0.0
C1192 C 0.22318 0.40999 0.83952 0.0
C1193 C 0.20463 0.32352 0.82813 0.0
C1194 C 0.20801 0.31802 0.83739 0.0
C1195 C 0.22119 0.35566 0.85251 0.0
C1196 C 0.23077 0.39886 0.85831 0.0
C1197 C 0.21739 0.36097 0.84316 0.0
C1198 C 0.23631 0.4474 0.85459 0.0
C1199 C 0.23257 0.45289 0.84532 0.0
H1200 H 0.84504 0.65738 0.69326 0.0
H1201 H 1.00026 0.80564 0.69677 0.0
H1202 H 1.01538 0.81203 0.68042 0.0
H1203 H 0.98253 0.77532 0.66496 0.0
H1204 H 0.82466 0.62801 0.66236 0.0
H1205 H 0.81291 0.6221 0.67845 0.0
C1206 C 0.88254 0.69105 0.69052 0.0
C1207 C 0.92151 0.73075 0.69627 0.0
C1208 C 0.89044 0.69492 0.6812 0.0
C1209 C 0.96956 0.77425 0.69251 0.0
C1210 C 0.97814 0.77804 0.68315 0.0
C1211 C 0.94566 0.7421 0.66794 0.0
C1212 C 0.90494 0.70205 0.66238 0.0
C1213 C 0.93855 0.7387 0.67739 0.0
C1214 C 0.85723 0.65931 0.66638 0.0
C1215 C 0.85018 0.65569 0.67564 0.0
H1216 H 0.46294 0.22745 0.65936 0.0
H1217 H 0.29746 0.19892 0.65787 0.0
H1218 H 0.29192 0.19948 0.67417 0.0
H1219 H 0.33277 0.20689 0.68897 0.0
H1220 H 0.49766 0.23452 0.69075 0.0
H1221 H 0.5045 0.23583 0.67435 0.0
C1222 C 0.42562 0.22116 0.6626 0.0
C1223 C 0.38077 0.2131 0.6573 0.0
C1224 C 0.42249 0.22163 0.67209 0.0
C1225 C 0.33286 0.20533 0.66169 0.0
C1226 C 0.32951 0.20567 0.67106 0.0
C1227 C 0.37043 0.21366 0.6858 0.0
C1228 C 0.41457 0.22065 0.69115 0.0
C1229 C 0.374 0.21382 0.67634 0.0
C1230 C 0.46286 0.22897 0.68684 0.0
C1231 C 0.46684 0.22961 0.67744 0.0
H1232 H 0.87459 0.26213 0.65917 0.0
H1233 H 0.93697 0.15 0.65787 0.0
H1234 H 0.9472 0.15389 0.67413 0.0
H1235 H 0.93567 0.18615 0.68879 0.0
H1236 H 0.87399 0.29863 0.69034 0.0
H1237 H 0.8662 0.29736 0.67395 0.0
C1238 C 0.89103 0.23906 0.66243 0.0
C1239 C 0.90474 0.20568 0.65727 0.0
C1240 C 0.89647 0.24105 0.67186 0.0
C1241 C 0.92574 0.17585 0.66164 0.0
C1242 C 0.93155 0.1779 0.67097 0.0
C1243 C 0.92036 0.21032 0.68556 0.0
C1244 C 0.90513 0.24215 0.6908 0.0
C1245 C 0.91636 0.20973 0.67615 0.0
C1246 C 0.88597 0.27368 0.68647 0.0
C1247 C 0.88153 0.27302 0.67709 0.0
H1248 H 0.33893 0.17219 0.19227 0.0
H1249 H 0.5057 0.30589 0.19387 0.0
H1250 H 0.51389 0.30684 0.1775 0.0
H1251 H 0.47313 0.27078 0.16263 0.0
H1252 H 0.30572 0.1378 0.16123 0.0
H1253 H 0.29865 0.1359 0.17754 0.0
C1254 C 0.37727 0.20131 0.18907 0.0
C1255 C 0.42157 0.23886 0.19434 0.0
C1256 C 0.38159 0.20211 0.17963 0.0
C1257 C 0.47078 0.27651 0.19001 0.0
C1258 C 0.47553 0.27718 0.18062 0.0
C1259 C 0.43506 0.24147 0.16589 0.0
C1260 C 0.3901 0.20462 0.16064 0.0
C1261 C 0.43106 0.24044 0.17535 0.0
C1262 C 0.34115 0.1668 0.16503 0.0
C1263 C 0.33696 0.16554 0.1744 0.0
H1264 H 0.85994 0.25357 0.16518 0.0
H1265 H 0.97387 0.19399 0.16261 0.0
H1266 H 0.98254 0.19467 0.17899 0.0
H1267 H 0.95715 0.21173 0.1941 0.0
H1268 H 0.84332 0.27168 0.19642 0.0
H1269 H 0.83595 0.27193 0.1801 0.0
C1270 C 0.88643 0.24033 0.16818 0.0
C1271 C 0.91594 0.22344 0.16264 0.0
C1272 C 0.89174 0.24144 0.17758 0.0
C1273 C 0.95049 0.20702 0.16669 0.0
C1274 C 0.95564 0.20759 0.17607 0.0
C1275 C 0.93127 0.22549 0.19104 0.0
C1276 C 0.90089 0.24171 0.19652 0.0
C1277 C 0.92661 0.22494 0.18159 0.0
C1278 C 0.86711 0.25885 0.1924 0.0
C1279 C 0.86269 0.25887 0.18305 0.0
H1280 H 0.89188 0.65909 0.15847 0.0
H1281 H 0.92976 0.82711 0.15619 0.0
H1282 H 0.93081 0.8348 0.17254 0.0
H1283 H 0.91892 0.7935 0.18746 0.0
H1284 H 0.88083 0.62546 0.18982 0.0
H1285 H 0.88136 0.6181 0.17345 0.0
C1286 C 0.90112 0.69766 0.16153 0.0
C1287 C 0.91088 0.7425 0.15608 0.0
C1288 C 0.90085 0.70162 0.17096 0.0
C1289 C 0.9221 0.79191 0.1602 0.0
C1290 C 0.92249 0.79631 0.16957 0.0
C1291 C 0.9103 0.75506 0.18442 0.0
C1292 C 0.89954 0.71002 0.1899 0.0
C1293 C 0.91127 0.75125 0.17501 0.0
C1294 C 0.88909 0.66079 0.18579 0.0
C1295 C 0.88959 0.65657 0.17642 0.0
H1296 H 0.50314 0.89027 0.05475 0.0
H1297 H 0.67121 0.99364 0.06282 0.0
H1298 H 0.68977 0.91889 0.06032 0.0
H1299 H 0.65834 0.82337 0.05592 0.0
H1300 H 0.48799 0.71645 0.0497 0.0
H1301 H 0.47013 0.7927 0.05131 0.0
C1302 C 0.54363 0.89613 0.05602 0.0
C1303 C 0.58564 0.94739 0.05897 0.0
C1304 C 0.55373 0.8523 0.05481 0.0
C1305 C 0.63796 0.95447 0.06061 0.0
C1306 C 0.64877 0.9118 0.05913 0.0
C1307 C 0.61755 0.81715 0.05483 0.0
C1308 C 0.57474 0.76491 0.05252 0.0
C1309 C 0.60708 0.86056 0.0562 0.0
C1310 C 0.52164 0.75667 0.05138 0.0
C1311 C 0.5114 0.80016 0.05233 0.0
H1312 H 0.18047 0.68408 0.0711 0.0
H1313 H 0.16957 0.6429 0.04294 0.0
H1314 H 0.25143 0.73046 0.0397 0.0
H1315 H 0.32494 0.8205 0.04478 0.0
H1316 H 0.34262 0.85807 0.07308 0.0
H1317 H 0.2597 0.7707 0.07639 0.0
C1318 C 0.19646 0.69435 0.06428 0.0
C1319 C 0.16898 0.65749 0.05727 0.0
C1320 C 0.24458 0.7443 0.06249 0.0
C1321 C 0.19016 0.67068 0.04847 0.0
C1322 C 0.23683 0.72085 0.04659 0.0
C1323 C 0.31046 0.80929 0.05166 0.0
C1324 C 0.33898 0.84549 0.05867 0.0
C1325 C 0.26408 0.75823 0.05353 0.0
C1326 C 0.32087 0.83054 0.06758 0.0
C1327 C 0.27353 0.78072 0.06947 0.0
H1328 H 0.29157 0.56532 0.04969 0.0
H1329 H 0.2012 0.41182 0.06384 0.0
H1330 H 0.286 0.40995 0.06641 0.0
H1331 H 0.38554 0.45108 0.06439 0.0
H1332 H 0.47356 0.59708 0.04838 0.0
H1333 H 0.39088 0.60411 0.04699 0.0
C1334 C 0.29064 0.53158 0.05334 0.0
C1335 C 0.24046 0.48883 0.0566 0.0
C1336 C 0.33938 0.53016 0.0546 0.0
C1337 C 0.23944 0.44503 0.06124 0.0
C1338 C 0.28789 0.44406 0.06274 0.0
C1339 C 0.38667 0.48483 0.0607 0.0
C1340 C 0.43644 0.52563 0.05699 0.0
C1341 C 0.33805 0.48633 0.05944 0.0
C1342 C 0.437 0.56792 0.05194 0.0
C1343 C 0.38921 0.57093 0.05092 0.0
H1344 H 0.95292 0.6083 0.46648 0.0
H1345 H 0.87555 0.43663 0.46017 0.0
H1346 H 0.78556 0.43073 0.46003 0.0
H1347 H 0.72855 0.47516 0.46196 0.0
H1348 H 0.80891 0.64837 0.46742 0.0
H1349 H 0.89779 0.65298 0.46765 0.0
C1350 C 0.91641 0.56952 0.46504 0.0
C1351 C 0.92102 0.52282 0.46336 0.0
C1352 C 0.86518 0.56684 0.46486 0.0
C1353 C 0.87328 0.47313 0.46145 0.0
C1354 C 0.82176 0.46981 0.46141 0.0
C1355 C 0.76561 0.51381 0.4632 0.0
C1356 C 0.76208 0.56136 0.46473 0.0
C1357 C 0.81712 0.51642 0.46314 0.0
C1358 C 0.81045 0.61125 0.46623 0.0
C1359 C 0.86134 0.61392 0.46637 0.0
H1360 H 0.55388 0.24574 0.46027 0.0
H1361 H 0.41332 0.17318 0.47804 0.0
H1362 H 0.41296 0.25934 0.47863 0.0
H1363 H 0.44961 0.3536 0.47368 0.0
H1364 H 0.58828 0.42776 0.4556 0.0
H1365 H 0.5931 0.34311 0.45564 0.0
C1366 C 0.52341 0.24906 0.46429 0.0
C1367 C 0.48346 0.20312 0.46907 0.0
C1368 C 0.52323 0.29895 0.46456 0.0
C1369 C 0.44429 0.20785 0.47427 0.0
C1370 C 0.44407 0.25712 0.47462 0.0
C1371 C 0.48113 0.3514 0.46978 0.0
C1372 C 0.51853 0.39673 0.46465 0.0
C1373 C 0.4829 0.30265 0.46973 0.0
C1374 C 0.5593 0.39346 0.45966 0.0
C1375 C 0.56177 0.34496 0.45964 0.0
H1376 H 0.80129 0.27736 0.47537 0.0
H1377 H 0.84613 0.27332 0.44774 0.0
H1378 H 0.75793 0.19051 0.44512 0.0
H1379 H 0.66804 0.11842 0.45075 0.0
H1380 H 0.61936 0.12789 0.47794 0.0
H1381 H 0.70823 0.20945 0.48066 0.0
C1382 C 0.79158 0.258 0.46881 0.0
C1383 C 0.83009 0.28052 0.46179 0.0
C1384 C 0.7399 0.21165 0.46726 0.0
C1385 C 0.81696 0.25619 0.45325 0.0
C1386 C 0.76659 0.20897 0.45174 0.0
C1387 C 0.67692 0.13869 0.45724 0.0
C1388 C 0.63755 0.11707 0.46415 0.0
C1389 C 0.72771 0.18629 0.45869 0.0
C1390 C 0.6491 0.14387 0.47251 0.0
C1391 C 0.70002 0.19035 0.47408 0.0
H1392 H 0.4595 0.29115 0.9555 0.0
H1393 H 0.58939 0.37161 0.9748 0.0
H1394 H 0.60393 0.29288 0.97486 0.0
H1395 H 0.5782 0.1996 0.96956 0.0
H1396 H 0.45238 0.12311 0.94942 0.0
H1397 H 0.43822 0.20148 0.94949 0.0
C1398 C 0.49083 0.29126 0.95973 0.0
C1399 C 0.5228 0.33668 0.96522 0.0
C1400 C 0.49992 0.2465 0.95955 0.0
C1401 C 0.56397 0.33684 0.97056 0.0
C1402 C 0.57237 0.29187 0.97058 0.0
C1403 C 0.54807 0.20042 0.96514 0.0
C1404 C 0.51617 0.15529 0.95955 0.0
C1405 C 0.54047 0.24629 0.96512 0.0
C1406 C 0.47745 0.15712 0.95382 0.0
C1407 C 0.46911 0.20193 0.95387 0.0
H1408 H 0.95379 0.38621 0.97343 0.0
H1409 H 0.89611 0.47054 0.95646 0.0
H1410 H 0.80468 0.38851 0.95604 0.0
H1411 H 0.74187 0.29094 0.96018 0.0
H1412 H 0.80235 0.20835 0.97704 0.0
H1413 H 0.89177 0.29122 0.97779 0.0
C1414 C 0.92116 0.38671 0.96965 0.0
C1415 C 0.9316 0.43431 0.96499 0.0
C1416 C 0.86919 0.33945 0.96939 0.0
C1417 C 0.88893 0.43444 0.96015 0.0
C1418 C 0.83675 0.38746 0.95988 0.0
C1419 C 0.77468 0.29132 0.96402 0.0
C1420 C 0.76554 0.24348 0.96852 0.0
C1421 C 0.82647 0.33946 0.96442 0.0
C1422 C 0.80832 0.24452 0.9735 0.0
C1423 C 0.85953 0.29193 0.97394 0.0
H1424 H 0.64533 0.52127 0.96855 0.0
H1425 H 0.69288 0.63295 0.94612 0.0
H1426 H 0.78555 0.64639 0.94654 0.0
H1427 H 0.85435 0.62882 0.95364 0.0
H1428 H 0.80511 0.5125 0.97541 0.0
H1429 H 0.71192 0.498 0.97486 0.0
C1430 C 0.67558 0.5476 0.96364 0.0
C1431 C 0.66206 0.5759 0.9573 0.0
C1432 C 0.72876 0.55474 0.96387 0.0
C1433 C 0.70216 0.61065 0.95107 0.0
C1434 C 0.75528 0.61852 0.95133 0.0
C1435 C 0.82313 0.60038 0.95826 0.0
C1436 C 0.83662 0.5723 0.96463 0.0
C1437 C 0.76928 0.59133 0.95777 0.0
C1438 C 0.7957 0.53485 0.97048 0.0
C1439 C 0.74241 0.52651 0.97017 0.0
H1440 H 0.28597 0.46231 0.56257 0.0
H1441 H 0.3611 0.5909 0.54279 0.0
H1442 H 0.28199 0.60528 0.54358 0.0
H1443 H 0.18961 0.57865 0.54967 0.0
H1444 H 0.11951 0.45422 0.57029 0.0
H1445 H 0.19866 0.44131 0.56949 0.0
C1446 C 0.28488 0.49337 0.55842 0.0
C1447 C 0.32853 0.52488 0.55253 0.0
C1448 C 0.24029 0.50232 0.5591 0.0
C1449 C 0.32747 0.56585 0.54732 0.0
C1450 C 0.28238 0.5741 0.54778 0.0
C1451 C 0.1921 0.54918 0.55404 0.0
C1452 C 0.14854 0.51707 0.55996 0.0
C1453 C 0.23832 0.54231 0.55362 0.0
C1454 C 0.15236 0.47929 0.56564 0.0
C1455 C 0.19753 0.47168 0.56517 0.0
H1456 H 0.62634 0.70621 0.54801 0.0
H1457 H 0.48379 0.61982 0.56502 0.0
H1458 H 0.47186 0.70047 0.56523 0.0
H1459 H 0.50471 0.79748 0.5609 0.0
H1460 H 0.64687 0.88108 0.54365 0.0
H1461 H 0.65621 0.79972 0.5432 0.0
C1462 C 0.59256 0.70494 0.55176 0.0
C1463 C 0.55619 0.65731 0.55654 0.0
C1464 C 0.58605 0.75114 0.55182 0.0
C1465 C 0.51234 0.65608 0.5613 0.0
C1466 C 0.50564 0.70223 0.56142 0.0
C1467 C 0.53749 0.79761 0.55702 0.0
C1468 C 0.57525 0.84539 0.55235 0.0
C1469 C 0.54259 0.75026 0.55676 0.0
C1470 C 0.61737 0.84497 0.54731 0.0
C1471 C 0.62282 0.79845 0.54706 0.0
H1472 H 0.3706 0.94789 0.54796 0.0
H1473 H 0.44937 0.89112 0.56636 0.0
H1474 H 0.36787 0.79907 0.56621 0.0
H1475 H 0.27195 0.73644 0.5613 0.0
H1476 H 0.19486 0.79726 0.54325 0.0
H1477 H 0.27804 0.88649 0.54286 0.0
C1478 C 0.3701 0.91535 0.55193 0.0
C1479 C 0.41573 0.92598 0.55715 0.0
C1480 C 0.32323 0.86353 0.55192 0.0
C1481 C 0.41479 0.88352 0.56221 0.0
C1482 C 0.3681 0.83116 0.56217 0.0
C1483 C 0.27365 0.76932 0.55728 0.0
C1484 C 0.2274 0.76058 0.55234 0.0
C1485 C 0.32175 0.82089 0.55712 0.0
C1486 C 0.22989 0.80319 0.54713 0.0
C1487 C 0.27741 0.85417 0.54689 0.0
H1488 H 0.32259 0.14365 0.38858 0.0
H1489 H 0.14892 0.03445 0.38567 0.0
H1490 H 0.13239 0.11175 0.38691 0.0
H1491 H 0.16786 0.21128 0.3889 0.0
H1492 H 0.3406 0.31786 0.39359 0.0
H1493 H 0.35697 0.24136 0.39163 0.0
C1494 C 0.28124 0.137 0.38817 0.0
C1495 C 0.23713 0.08374 0.38691 0.0
C1496 C 0.27186 0.18131 0.38927 0.0
C1497 C 0.18356 0.07529 0.38659 0.0
C1498 C 0.17409 0.11945 0.38731 0.0
C1499 C 0.20891 0.21751 0.38955 0.0
C1500 C 0.25284 0.27023 0.39139 0.0
C1501 C 0.21793 0.17274 0.38868 0.0
C1502 C 0.3059 0.27768 0.39225 0.0
C1503 C 0.31543 0.23395 0.39108 0.0
H1504 H 1.01876 0.13328 0.39482 0.0
H1505 H 0.95555 0.21633 0.37867 0.0
H1506 H 0.86711 0.13269 0.37768 0.0
H1507 H 0.80718 0.03654 0.38141 0.0
H1508 H 0.86681 0.95165 0.39783 0.0
H1509 H 0.9572 0.03488 0.39862 0.0
C1510 C 0.98547 0.13286 0.39111 0.0
C1511 C 0.99362 0.18096 0.38685 0.0
C1512 C 0.93422 0.08425 0.39057 0.0
C1513 C 0.95031 0.17994 0.38204 0.0
C1514 C 0.89968 0.13208 0.38145 0.0
C1515 C 0.83998 0.03617 0.38515 0.0
C1516 C 0.83053 0.98806 0.38951 0.0
C1517 C 0.89116 0.08411 0.38569 0.0
C1518 C 0.87334 0.98816 0.39434 0.0
C1519 C 0.92488 0.03581 0.39484 0.0
H1520 H 0.91117 0.79062 0.39872 0.0
H1521 H 0.95856 0.91875 0.379 0.0
H1522 H 0.05201 0.93397 0.37876 0.0
H1523 H 0.11901 0.90735 0.38355 0.0
H1524 H 0.07315 0.78242 0.40384 0.0
H1525 H 0.98071 0.76961 0.40449 0.0
C1526 C 0.94206 0.82186 0.39439 0.0
C1527 C 0.9279 0.85301 0.3888 0.0
C1528 C 0.99604 0.83103 0.3944 0.0
C1529 C 0.96842 0.89397 0.38332 0.0
C1530 C 1.02189 0.90274 0.38318 0.0
C1531 C 0.08919 0.8782 0.38826 0.0
C1532 C 0.10303 0.84594 0.39364 0.0
C1533 C 0.03607 0.87117 0.38863 0.0
C1534 C 0.06356 0.80777 0.39961 0.0
C1535 C 1.01058 0.80024 0.39997 0.0
H1536 H 0.46205 0.89651 0.8103 0.0
H1537 H 0.45916 0.92996 0.7821 0.0
H1538 H 0.5425 0.92489 0.77954 0.0
H1539 H 0.61731 0.91237 0.78542 0.0
H1540 H 0.61433 0.86881 0.8133 0.0
H1541 H 0.53211 0.87558 0.8159 0.0
C1542 C 0.47998 0.90279 0.80362 0.0
C1543 C 0.45544 0.91443 0.79641 0.0
C1544 C 0.52658 0.8976 0.80214 0.0
C1545 C 0.47788 0.92128 0.78774 0.0
C1546 C 0.5254 0.91834 0.78627 0.0
C1547 C 0.59826 0.90399 0.79203 0.0
C1548 C 0.62187 0.89055 0.79916 0.0
C1549 C 0.55021 0.90665 0.79343 0.0
C1550 C 0.59672 0.87914 0.80769 0.0
C1551 C 0.54989 0.8833 0.8092 0.0
H1552 H 0.16109 0.72236 0.78417 0.0
H1553 H 0.29686 0.80601 0.80238 0.0
H1554 H 0.30129 0.72225 0.80438 0.0
H1555 H 0.26297 0.62316 0.80159 0.0
H1556 H 0.12405 0.53938 0.78396 0.0
H1557 H 0.12423 0.62461 0.78116 0.0
C1558 C 0.19203 0.72236 0.78849 0.0
C1559 C 0.22874 0.77033 0.79308 0.0
C1560 C 0.19335 0.67365 0.78981 0.0
C1561 C 0.26832 0.76963 0.79872 0.0
C1562 C 0.27069 0.72164 0.79991 0.0
C1563 C 0.23294 0.62378 0.79712 0.0
C1564 C 0.19342 0.57503 0.79302 0.0
C1565 C 0.23284 0.67309 0.7956 0.0
C1566 C 0.15474 0.57632 0.78724 0.0
C1567 C 0.15483 0.6251 0.78561 0.0
H1568 H 0.49525 0.6783 0.79396 0.0
H1569 H 0.57048 0.60667 0.81006 0.0
H1570 H 0.48623 0.51842 0.80968 0.0
H1571 H 0.3926 0.46073 0.80457 0.0
H1572 H 0.31464 0.52843 0.78829 0.0
H1573 H 0.39805 0.61909 0.78901 0.0
C1574 C 0.49294 0.64332 0.79739 0.0
C1575 C 0.53926 0.64907 0.80201 0.0
C1576 C 0.44391 0.59206 0.79713 0.0
C1577 C 0.53566 0.60343 0.80644 0.0
C1578 C 0.48743 0.55286 0.80624 0.0
C1579 C 0.39364 0.49529 0.80118 0.0
C1580 C 0.3475 0.48782 0.79637 0.0
C1581 C 0.44155 0.54662 0.80156 0.0
C1582 C 0.34953 0.53314 0.79206 0.0
C1583 C 0.39733 0.58489 0.79245 0.0
H1584 H 0.12779 0.47736 0.30246 0.0
H1585 H 0.27766 0.53704 0.28721 0.0
H1586 H 0.2887 0.62917 0.28698 0.0
H1587 H 0.25396 0.69234 0.29106 0.0
H1588 H 0.09828 0.62701 0.30478 0.0
H1589 H 0.0909 0.53721 0.30563 0.0
C1590 C 0.16299 0.51045 0.29907 0.0
C1591 C 0.20266 0.50079 0.29506 0.0
C1592 C 0.16772 0.56221 0.29868 0.0
C1593 C 0.24741 0.54386 0.29057 0.0
C1594 C 0.25344 0.59637 0.29039 0.0
C1595 C 0.21864 0.6583 0.29424 0.0
C1596 C 0.17684 0.66608 0.29792 0.0
C1597 C 0.21379 0.60606 0.29444 0.0
C1598 C 0.13084 0.6218 0.30191 0.0
C1599 C 0.12664 0.57052 0.3024 0.0
H1600 H 0.48704 0.57131 0.28911 0.0
H1601 H 0.3946 0.63216 0.30329 0.0
H1602 H 0.47466 0.7248 0.3032 0.0
H1603 H 0.57355 0.78789 0.29974 0.0
H1604 H 0.66376 0.72482 0.28541 0.0
H1605 H 0.58231 0.63444 0.28479 0.0
C1606 C 0.48441 0.60488 0.29217 0.0
C1607 C 0.43526 0.59481 0.29629 0.0
C1608 C 0.53035 0.65795 0.29201 0.0
C1609 C 0.43222 0.63883 0.30013 0.0
C1610 C 0.47797 0.69185 0.30006 0.0
C1611 C 0.57484 0.75458 0.29632 0.0
C1612 C 0.62463 0.76312 0.2926 0.0
C1613 C 0.52758 0.70193 0.29609 0.0
C1614 C 0.62597 0.71933 0.28832 0.0
C1615 C 0.57943 0.66746 0.288 0.0
H1616 H 0.38355 0.97111 0.30533 0.0
H1617 H 0.3083 0.83918 0.28621 0.0
H1618 H 0.3882 0.82627 0.28691 0.0
H1619 H 0.48216 0.85683 0.29235 0.0
H1620 H 0.55579 0.98892 0.31153 0.0
H1621 H 0.47378 0.9975 0.31143 0.0
C1622 C 0.3846 0.93937 0.30135 0.0
C1623 C 0.34054 0.90628 0.2957 0.0
C1624 C 0.43046 0.93248 0.30177 0.0
C1625 C 0.34187 0.86493 0.29064 0.0
C1626 C 0.38758 0.85778 0.291 0.0
C1627 C 0.4799 0.88715 0.29654 0.0
C1628 C 0.52494 0.92252 0.30188 0.0
C1629 C 0.4325 0.8919 0.29645 0.0
C1630 C 0.52163 0.96141 0.30734 0.0
C1631 C 0.47483 0.96642 0.30728 0.0
H1632 H 0.96592 0.81339 0.89908 0.0
H1633 H 0.03286 0.9341 0.87792 0.0
H1634 H 0.953 0.94699 0.87892 0.0
H1635 H 0.86172 0.92046 0.88543 0.0
H1636 H 0.7972 0.80111 0.90686 0.0
H1637 H 0.87864 0.79161 0.90621 0.0
C1638 C 0.96304 0.84259 0.8947 0.0
C1639 C 1.00478 0.87228 0.88837 0.0
C1640 C 0.91744 0.85008 0.89538 0.0
C1641 C 1.00097 0.9105 0.88281 0.0
C1642 C 0.95535 0.91788 0.88339 0.0
C1643 C 0.86588 0.89287 0.89001 0.0
C1644 C 0.82328 0.86122 0.89614 0.0
C1645 C 0.91301 0.88748 0.8896 0.0
C1646 C 0.82926 0.82575 0.90206 0.0
C1647 C 0.87576 0.82014 0.90168 0.0
H1648 H 0.18122 0.14394 0.89189 0.0
H1649 H 0.3184 0.2243 0.87357 0.0
H1650 H 0.32736 0.14271 0.87312 0.0
H1651 H 0.29949 0.05021 0.8784 0.0
H1652 H 0.16277 0.96802 0.8967 0.0
H1653 H 0.14996 0.04801 0.89663 0.0
C1654 C 0.21271 0.14327 0.88775 0.0
C1655 C 0.24927 0.1903 0.8828 0.0
C1656 C 0.21784 0.0959 0.88754 0.0
C1657 C 0.28983 0.18882 0.87746 0.0
C1658 C 0.29508 0.14215 0.8772 0.0
C1659 C 0.26672 0.04969 0.88235 0.0
C1660 C 0.23226 1.00335 0.88757 0.0
C1661 C 0.25985 0.09577 0.8823 0.0
C1662 C 0.18978 1.00317 0.89261 0.0
C1663 C 0.18259 0.049 0.89259 0.0
H1664 H 0.90499 0.1395 0.88011 0.0
H1665 H 0.95251 0.06774 0.9013 0.0
H1666 H 0.04477 0.14869 0.90144 0.0
H1667 H 0.11127 0.24241 0.8958 0.0
H1668 H 0.06079 0.31154 0.87454 0.0
H1669 H 0.97109 0.22932 0.87411 0.0
C1670 C 0.93554 0.14153 0.88476 0.0
C1671 C 0.92185 0.09799 0.89074 0.0
C1672 C 0.98826 0.1879 0.88477 0.0
C1673 C 0.96201 0.10099 0.89666 0.0
C1674 C 1.01479 0.14724 0.89674 0.0
C1675 C 0.08073 0.23902 0.89103 0.0
C1676 C 0.09264 0.28323 0.88525 0.0
C1677 C 0.02838 0.19129 0.89085 0.0
C1678 C 0.05261 0.27834 0.87911 0.0
C1679 C 1.00115 0.2313 0.87886 0.0
H1680 H 0.9748 0.48135 0.73047 0.0
H1681 H 0.85099 0.4127 0.70994 0.0
H1682 H 0.83561 0.49073 0.71127 0.0
H1683 H 0.85946 0.58013 0.71809 0.0
H1684 H 0.97939 0.64465 0.73931 0.0
H1685 H 0.99371 0.56651 0.73798 0.0
C1686 C 0.9446 0.48365 0.72627 0.0
C1687 C 0.91464 0.44195 0.72003 0.0
C1688 C 0.93506 0.52778 0.72725 0.0
C1689 C 0.87484 0.44469 0.71475 0.0
C1690 C 0.86599 0.48921 0.71552 0.0
C1691 C 0.88827 0.57669 0.72248 0.0
C1692 C 0.9186 0.61835 0.72875 0.0
C1693 C 0.89603 0.53117 0.72173 0.0
C1694 C 0.95561 0.61326 0.73442 0.0
C1695 C 0.96403 0.56867 0.73364 0.0
H1696 H 0.49313 0.38939 0.71139 0.0
H1697 H 0.54122 0.30763 0.73072 0.0
H1698 H 0.63146 0.39069 0.73214 0.0
H1699 H 0.69523 0.48849 0.72822 0.0
H1700 H 0.64286 0.56862 0.70924 0.0
H1701 H 0.55553 0.4844 0.70739 0.0
C1702 C 0.52338 0.38957 0.7159 0.0
C1703 C 0.51068 0.34245 0.72092 0.0
C1704 C 0.57425 0.43742 0.71679 0.0
C1705 C 0.55031 0.34326 0.72672 0.0
C1706 C 0.6017 0.39086 0.72757 0.0
C1707 C 0.66462 0.48725 0.72368 0.0
C1708 C 0.67533 0.53473 0.71889 0.0
C1709 C 0.61396 0.43845 0.7227 0.0
C1710 C 0.6355 0.53273 0.71302 0.0
C1711 C 0.58556 0.48456 0.71195 0.0
H1712 H 0.63468 0.25109 0.72628 0.0
H1713 H 0.55223 0.10419 0.71029 0.0
H1714 H 0.63552 0.09811 0.70974 0.0
H1715 H 0.73064 0.13305 0.71391 0.0
H1716 H 0.81581 0.27961 0.72984 0.0
H1717 H 0.73277 0.28772 0.73028 0.0
C1718 C 0.6352 0.2179 0.72267 0.0
C1719 C 0.58737 0.17799 0.71834 0.0
C1720 C 0.68357 0.21465 0.72238 0.0
C1721 C 0.58846 0.13529 0.71367 0.0
C1722 C 0.63606 0.13176 0.71336 0.0
C1723 C 0.73113 0.16683 0.7175 0.0
C1724 C 0.77909 0.20561 0.72186 0.0
C1725 C 0.68363 0.17097 0.71771 0.0
C1726 C 0.77927 0.24932 0.72642 0.0
C1727 C 0.73181 0.25382 0.72668 0.0
H1728 H 0.30877 0.2984 0.14177 0.0
H1729 H 0.25551 0.16654 0.12268 0.0
H1730 H 0.16501 0.15923 0.12194 0.0
H1731 H 0.10235 0.19349 0.12637 0.0
H1732 H 0.15896 0.32761 0.14513 0.0
H1733 H 0.24698 0.3312 0.14631 0.0
C1734 C 0.27728 0.26791 0.13747 0.0
C1735 C 0.28853 0.23293 0.13232 0.0
C1736 C 0.22612 0.26471 0.13697 0.0
C1737 C 0.24748 0.19359 0.12677 0.0
C1738 C 0.19592 0.18965 0.12632 0.0
C1739 C 0.13404 0.22333 0.13072 0.0
C1740 C 0.12441 0.26039 0.13563 0.0
C1741 C 0.18494 0.22542 0.13133 0.0
C1742 C 0.16556 0.29882 0.14126 0.0
C1743 C 0.21588 0.30089 0.14195 0.0
H1744 H 0.81443 0.05084 0.13978 0.0
H1745 H 0.9481 0.13996 0.12119 0.0
H1746 H 0.9564 0.05797 0.11894 0.0
H1747 H 0.92331 0.95936 0.12213 0.0
H1748 H 0.78882 0.87298 0.14078 0.0
H1749 H 0.78293 0.95527 0.14309 0.0
C1750 C 0.84548 0.05244 0.13523 0.0
C1751 C 0.88067 0.10129 0.13067 0.0
C1752 C 0.84958 1.0054 0.13395 0.0
C1753 C 0.92084 0.10285 0.12483 0.0
C1754 C 0.92534 0.0559 0.12352 0.0
C1755 C 0.89282 0.95879 0.12668 0.0
C1756 C 0.85639 0.91007 0.13125 0.0
C1757 C 0.88965 1.00672 0.12802 0.0
C1758 C 0.81723 0.90985 0.13717 0.0
C1759 C 0.8138 0.95692 0.1385 0.0
H1760 H 0.21787 0.96086 0.12107 0.0
H1761 H 0.1561 0.03917 0.13871 0.0
H1762 H 0.06277 0.96129 0.13718 0.0
H1763 H 0.99969 0.86676 0.13165 0.0
H1764 H 0.06417 0.79045 0.11408 0.0
H1765 H 0.15472 0.8718 0.11455 0.0
C1766 C 0.18392 0.9609 0.12455 0.0
C1767 C 0.19382 1.00507 0.1301 0.0
C1768 C 0.13058 0.9164 0.12357 0.0
C1769 C 0.14942 1.00515 0.13447 0.0
C1770 C 0.09605 0.96073 0.13357 0.0
C1771 C 0.03333 0.86884 0.12775 0.0
C1772 C 0.02546 0.82294 0.12281 0.0
C1773 C 0.08613 0.91562 0.12823 0.0
C1774 C 0.06945 0.8255 0.11791 0.0
C1775 C 0.12135 0.87181 0.11822 0.0
H1776 H 0.81046 0.78592 0.64056 0.0
H1777 H 0.94109 0.83528 0.62114 0.0
H1778 H 0.94646 0.92483 0.61955 0.0
H1779 H 0.91084 0.98752 0.62352 0.0
H1780 H 0.77964 0.93399 0.64303 0.0
H1781 H 0.77727 0.8471 0.64471 0.0
C1782 C 0.84023 0.81623 0.63597 0.0
C1783 C 0.87511 0.80418 0.63093 0.0
C1784 C 0.84258 0.8666 0.63508 0.0
C1785 C 0.91386 0.84391 0.62509 0.0
C1786 C 0.91669 0.89484 0.62417 0.0
C1787 C 0.88179 0.95663 0.62811 0.0
C1788 C 0.84518 0.96683 0.63311 0.0
C1789 C 0.88076 0.90642 0.62908 0.0
C1790 C 0.80801 0.92693 0.63909 0.0
C1791 C 0.80666 0.87728 0.64007 0.0
H1792 H 0.23959 0.09332 0.63377 0.0
H1793 H 0.31629 0.03412 0.61516 0.0
H1794 H 0.23837 0.94178 0.61641 0.0
H1795 H 0.15008 0.87648 0.62324 0.0
H1796 H 0.0689 0.93471 0.64098 0.0
H1797 H 0.14651 0.02839 0.63966 0.0
C1798 C 0.23878 0.0603 0.62991 0.0
C1799 C 0.28397 0.07061 0.62445 0.0
C1800 C 0.19327 1.00689 0.63058 0.0
C1801 C 0.28226 0.02738 0.61946 0.0
C1802 C 0.23775 0.97438 0.62019 0.0
C1803 C 0.14953 0.90972 0.62682 0.0
C1804 C 0.10447 0.89879 0.63231 0.0
C1805 C 0.19346 0.96346 0.62583 0.0
C1806 C 0.10356 0.94225 0.63678 0.0
C1807 C 0.14784 0.99577 0.63601 0.0
H1808 H 0.14833 0.16073 0.6303 0.0
H1809 H 0.24705 0.32949 0.6221 0.0
H1810 H 0.16507 0.3378 0.62094 0.0
H1811 H 0.06609 0.29815 0.62261 0.0
H1812 H 0.9671 0.13206 0.6319 0.0
H1813 H 0.04808 0.12108 0.63219 0.0
C1814 C 0.15163 0.19912 0.62821 0.0
C1815 C 0.20339 0.24443 0.62626 0.0
C1816 C 0.10434 0.20391 0.62772 0.0
C1817 C 0.20751 0.29414 0.62364 0.0
C1818 C 0.16073 0.29892 0.62297 0.0
C1819 C 0.06221 0.25942 0.62464 0.0
C1820 C 1.01062 0.21546 0.62703 0.0
C1821 C 0.10907 0.25422 0.62505 0.0
C1822 C 1.00613 0.1658 0.62977 0.0
C1823 C 0.05256 0.15981 0.63003 0.0
H1824 H 0.49161 0.14811 0.21569 0.0
H1825 H 0.53925 0.27917 0.23478 0.0
H1826 H 0.63127 0.28998 0.2357 0.0
H1827 H 0.69715 0.25947 0.23132 0.0
H1828 H 0.64696 0.128 0.21218 0.0
H1829 H 0.55692 0.11995 0.21103 0.0
C1830 C 0.52214 0.17911 0.22005 0.0
C1831 C 0.5088 0.21269 0.22518 0.0
C1832 C 0.57442 0.18482 0.22055 0.0
C1833 C 0.54876 0.2529 0.23076 0.0
C1834 C 0.60124 0.25896 0.23129 0.0
C1835 C 0.66644 0.22926 0.22689 0.0
C1836 C 0.6785 0.19418 0.22187 0.0
C1837 C 0.61442 0.22479 0.22626 0.0
C1838 C 0.63858 0.15535 0.21613 0.0
C1839 C 0.58706 0.15067 0.21547 0.0
H1840 H 0.87376 0.50102 0.22832 0.0
H1841 H 0.99946 0.5671 0.20775 0.0
H1842 H 1.00419 0.48328 0.2078 0.0
H1843 H 0.97718 0.39441 0.2142 0.0
H1844 H 0.85367 0.32631 0.23502 0.0
H1845 H 0.84252 0.40741 0.23427 0.0
C1846 C 0.90188 0.49671 0.22383 0.0
C1847 C 0.93664 0.54019 0.2181 0.0
C1848 C 0.90466 0.44827 0.22394 0.0
C1849 C 0.97267 0.53429 0.21227 0.0
C1850 C 0.97537 0.48641 0.21228 0.0
C1851 C 0.94756 0.39713 0.21856 0.0
C1852 C 0.91656 0.35499 0.2247 0.0
C1853 C 0.94226 0.44368 0.21817 0.0
C1854 C 0.8778 0.35843 0.23022 0.0
C1855 C 0.87179 0.40486 0.22982 0.0
H1856 H 0.58796 0.49066 0.2309 0.0
H1857 H 0.64526 0.40288 0.21458 0.0
H1858 H 0.73787 0.4833 0.21428 0.0
H1859 H 0.80039 0.58216 0.21761 0.0
H1860 H 0.74031 0.66741 0.23403 0.0
H1861 H 0.65158 0.58439 0.23551 0.0
C1862 C 0.62081 0.48908 0.22732 0.0
C1863 C 0.60982 0.44151 0.22265 0.0
C1864 C 0.67365 0.53505 0.22725 0.0
C1865 C 0.65283 0.43949 0.21815 0.0
C1866 C 0.70573 0.48539 0.21799 0.0
C1867 C 0.76828 0.58186 0.22172 0.0
C1868 C 0.7767 0.63067 0.22571 0.0
C1869 C 0.71649 0.53387 0.22239 0.0
C1870 C 0.7346 0.63022 0.23089 0.0
C1871 C 0.68372 0.58288 0.2317 0.0
H1872 H 0.5007 0.32321 0.04318 0.0
H1873 H 0.62301 0.37481 0.06396 0.0
H1874 H 0.60824 0.28173 0.065 0.0
H1875 H 0.55737 0.18527 0.06052 0.0
H1876 H 0.43634 0.13315 0.03957 0.0
H1877 H 0.45294 0.22696 0.03816 0.0
C1878 C 0.52439 0.3141 0.04789 0.0
C1879 C 0.56279 0.35566 0.05351 0.0
C1880 C 0.51545 0.26049 0.04847 0.0
C1881 C 0.59325 0.34345 0.05957 0.0
C1882 C 0.58467 0.29026 0.06019 0.0
C1883 C 0.53533 0.19458 0.05553 0.0
C1884 C 0.49604 0.15254 0.0501 0.0
C1885 C 0.54548 0.24842 0.05473 0.0
C1886 C 0.46677 0.16491 0.04382 0.0
C1887 C 0.47635 0.21848 0.04301 0.0
H1888 H 0.90631 0.40899 0.05902 0.0
H1889 H 0.95861 0.33092 0.0395 0.0
H1890 H 0.86605 0.25142 0.03916 0.0
H1891 H 0.77206 0.20204 0.04514 0.0
H1892 H 0.71979 0.27996 0.06468 0.0
H1893 H 0.81078 0.36198 0.06429 0.0
C1894 C 0.89725 0.37477 0.05463 0.0
C1895 C 0.93905 0.37535 0.04935 0.0
C1896 C 0.84424 0.3292 0.05454 0.0
C1897 C 0.92694 0.33107 0.04365 0.0
C1898 C 0.87417 0.28564 0.04348 0.0
C1899 C 0.78063 0.23713 0.04928 0.0
C1900 C 0.73985 0.23507 0.055 0.0
C1901 C 0.83282 0.28389 0.04901 0.0
C1902 C 0.75094 0.28074 0.06027 0.0
C1903 C 0.80283 0.32752 0.06005 0.0
H1904 H 0.83064 0.5029 0.04838 0.0
H1905 H 0.93478 0.64221 0.06487 0.0
H1906 H 0.86732 0.67251 0.06449 0.0
H1907 H 0.77903 0.66065 0.05923 0.0
H1908 H 0.67354 0.51995 0.04312 0.0
H1909 H 0.74057 0.48906 0.04361 0.0
C1910 C 0.83839 0.53978 0.0519 0.0
C1911 C 0.88777 0.57038 0.0566 0.0
C1912 C 0.79912 0.55693 0.05169 0.0
C1913 C 0.89713 0.61794 0.06118 0.0
C1914 C 0.85859 0.6354 0.06096 0.0
C1915 C 0.77095 0.62338 0.0558 0.0
C1916 C 0.72169 0.59295 0.05107 0.0
C1917 C 0.80957 0.6055 0.05619 0.0
C1918 C 0.7113 0.54426 0.04678 0.0
C1919 C 0.74965 0.52653 0.04705 0.0
H1920 H 0.33709 0.54428 0.47034 0.0
H1921 H 0.31475 0.44263 0.44727 0.0
H1922 H 0.21586 0.4089 0.4476 0.0
H1923 H 0.13484 0.40554 0.45495 0.0
H1924 H 0.15869 0.50725 0.47808 0.0
H1925 H 0.25751 0.54316 0.47733 0.0
C1926 C 0.31063 0.51512 0.46534 0.0
C1927 C 0.33308 0.49591 0.4588 0.0
C1928 C 0.25387 0.49523 0.46569 0.0
C1929 C 0.29833 0.45803 0.45237 0.0
C1930 C 0.24177 0.43848 0.4526 0.0
C1931 C 0.16181 0.43514 0.45985 0.0
C1932 C 0.13971 0.45357 0.4666 0.0
C1933 C 0.21889 0.45606 0.45932 0.0
C1934 C 0.17494 0.49258 0.47283 0.0
C1935 C 0.23142 0.51319 0.4724 0.0
H1936 H 0.51201 0.64918 0.4603 0.0
H1937 H 0.64036 0.72451 0.48003 0.0
H1938 H 0.62906 0.80517 0.48037 0.0
H1939 H 0.58512 0.8557 0.47455 0.0
H1940 H 0.45594 0.77946 0.45498 0.0
H1941 H 0.46497 0.69754 0.45508 0.0
C1942 C 0.53708 0.68302 0.46475 0.0
C1943 C 0.57706 0.68109 0.47012 0.0
C1944 C 0.53046 0.72917 0.46487 0.0
C1945 C 0.60935 0.72517 0.47583 0.0
C1946 C 0.60301 0.77131 0.476 0.0
C1947 C 0.55896 0.82107 0.47032 0.0
C1948 C 0.5203 0.82367 0.4647 0.0
C1949 C 0.56419 0.77404 0.47046 0.0
C1950 C 0.48625 0.77845 0.45931 0.0
C1951 C 0.49135 0.73164 0.45937 0.0
H1952 H 0.39341 0.85559 0.46954 0.0
H1953 H 0.28665 0.92393 0.46922 0.0
H1954 H 0.20703 0.83253 0.46714 0.0
H1955 H 0.16823 0.73345 0.46512 0.0
H1956 H 0.27371 0.6637 0.46656 0.0
H1957 H 0.35391 0.75542 0.46831 0.0
C1958 C 0.35269 0.85021 0.46896 0.0
C1959 C 0.34566 0.89605 0.46941 0.0
C1960 C 0.30721 0.7975 0.4679 0.0
C1961 C 0.29276 0.88895 0.46892 0.0
C1962 C 0.24739 0.83684 0.46767 0.0
C1963 C 0.20887 0.73849 0.46577 0.0
C1964 C 0.21547 0.69233 0.46559 0.0
C1965 C 0.2542 0.79092 0.46708 0.0
C1966 C 0.26797 0.69894 0.46662 0.0
C1967 C 0.31366 0.75123 0.46765 0.0
H1968 H 0.60273 0.77391 0.97285 0.0
H1969 H 0.4774 0.72673 0.9527 0.0
H1970 H 0.48588 0.81736 0.95352 0.0
H1971 H 0.53052 0.91027 0.95968 0.0
H1972 H 0.65288 0.95711 0.98031 0.0
H1973 H 0.64427 0.86621 0.97959 0.0
C1974 C 0.57731 0.78357 0.96865 0.0
C1975 C 0.53974 0.74397 0.96267 0.0
C1976 C 0.5819 0.83549 0.96926 0.0
C1977 C 0.50665 0.75665 0.95732 0.0
C1978 C 0.51151 0.80841 0.95779 0.0
C1979 C 0.55465 0.90037 0.96413 0.0
C1980 C 0.59198 0.9402 0.97009 0.0
C1981 C 0.54908 0.84812 0.96371 0.0
C1982 C 0.62374 0.92705 0.97569 0.0
C1983 C 0.61888 0.87517 0.97526 0.0
H1984 H 0.1842 0.68549 0.96318 0.0
H1985 H 0.12403 0.77163 0.97933 0.0
H1986 H 0.21492 0.85433 0.97876 0.0
H1987 H 0.3106 0.90303 0.97306 0.0
H1988 H 0.36924 0.81569 0.95685 0.0
H1989 H 0.27962 0.73251 0.95799 0.0
C1990 C 0.19104 0.7222 0.96666 0.0
C1991 C 0.14746 0.72254 0.97129 0.0
C1992 C 0.24297 0.76947 0.96619 0.0
C1993 C 0.15698 0.77038 0.97575 0.0
C1994 C 0.20884 0.81768 0.97538 0.0
C1995 C 0.30363 0.86574 0.96978 0.0
C1996 C 0.34628 0.86554 0.96481 0.0
C1997 C 0.25195 0.81791 0.97051 0.0
C1998 C 0.33695 0.81692 0.96066 0.0
C1999 C 0.28578 0.76934 0.96133 0.0
H2000 H 0.22538 0.53488 0.97704 0.0
H2001 H 0.23912 0.56602 0.94849 0.0
H2002 H 0.31613 0.5488 0.94759 0.0
H2003 H 0.37859 0.52383 0.95489 0.0
H2004 H 0.35905 0.48202 0.98305 0.0
H2005 H 0.28497 0.50402 0.9842 0.0
C2006 C 0.24565 0.53823 0.97065 0.0
C2007 C 0.22734 0.55248 0.96285 0.0
C2008 C 0.2884 0.52594 0.97014 0.0
C2009 C 0.25286 0.55547 0.95457 0.0
C2010 C 0.29676 0.54556 0.95406 0.0
C2011 C 0.35803 0.51945 0.96128 0.0
C2012 C 0.37427 0.50159 0.96889 0.0
C2013 C 0.31469 0.53056 0.96179 0.0
C2014 C 0.34698 0.49547 0.9771 0.0
C2015 C 0.30487 0.50828 0.97775 0.0
H2016 H 0.74434 0.54922 0.54205 0.0
H2017 H 0.73201 0.52539 0.5708 0.0
H2018 H 0.82565 0.54058 0.57119 0.0
H2019 H 0.91071 0.56186 0.56336 0.0
H2020 H 0.92695 0.59437 0.53484 0.0
H2021 H 0.83166 0.57497 0.53429 0.0
C2022 C 0.76219 0.54702 0.54838 0.0
C2023 C 0.73158 0.53563 0.55638 0.0
C2024 C 0.81647 0.55769 0.54856 0.0
C2025 C 0.75507 0.53388 0.56458 0.0
C2026 C 0.80843 0.5426 0.56479 0.0
C2027 C 0.89331 0.56453 0.55701 0.0
C2028 C 0.92522 0.57901 0.54912 0.0
C2029 C 0.83946 0.55472 0.55683 0.0
C2030 C 0.90282 0.58335 0.54098 0.0
C2031 C 0.84849 0.5721 0.54067 0.0
H2032 H 0.57952 0.26359 0.54891 0.0
H2033 H 0.45644 0.1769 0.56929 0.0
H2034 H 0.42709 0.24512 0.56843 0.0
H2035 H 0.4334 0.32711 0.56126 0.0
H2036 H 0.55869 0.41504 0.54127 0.0
H2037 H 0.58983 0.34846 0.5425 0.0
C2038 C 0.54662 0.25997 0.55322 0.0
C2039 C 0.51989 0.21523 0.5591 0.0
C2040 C 0.52976 0.29905 0.55264 0.0
C2041 C 0.47751 0.21103 0.56468 0.0
C2042 C 0.46049 0.2498 0.56416 0.0
C2043 C 0.46718 0.33121 0.55714 0.0
C2044 C 0.49323 0.37511 0.55108 0.0
C2045 C 0.48559 0.29339 0.55803 0.0
C2046 C 0.53786 0.38113 0.54593 0.0
C2047 C 0.55574 0.34323 0.54665 0.0
H2048 H 0.81247 0.34808 0.54893 0.0
H2049 H 0.91007 0.31073 0.5667 0.0
H2050 H 0.83957 0.21421 0.56675 0.0
H2051 H 0.75112 0.1398 0.56146 0.0
H2052 H 0.65288 0.17605 0.5437 0.0
H2053 H 0.72227 0.27339 0.54393 0.0
C2054 C 0.818 0.31873 0.55283 0.0
C2055 C 0.86632 0.33631 0.55778 0.0
C2056 C 0.77728 0.26308 0.55281 0.0
C2057 C 0.87317 0.29806 0.56283 0.0
C2058 C 0.83295 0.24285 0.56285 0.0
C2059 C 0.74512 0.16909 0.55763 0.0
C2060 C 0.69723 0.15109 0.55257 0.0
C2061 C 0.7851 0.22481 0.5578 0.0
C2062 C 0.68942 0.18927 0.5477 0.0
C2063 C 0.72912 0.24483 0.5478 0.0
H2064 H 0.23703 0.51699 0.38995 0.0
H2065 H 0.10111 0.45431 0.3716 0.0
H2066 H 0.11082 0.54553 0.37046 0.0
H2067 H 0.15649 0.64263 0.37521 0.0
H2068 H 0.29623 0.70483 0.39283 0.0
H2069 H 0.28766 0.6144 0.39355 0.0
C2070 C 0.21047 0.52352 0.38552 0.0
C2071 C 0.16881 0.47926 0.38082 0.0
C2072 C 0.21699 0.57593 0.3848 0.0
C2073 C 0.1336 0.48795 0.37528 0.0
C2074 C 0.13913 0.54001 0.37464 0.0
C2075 C 0.18519 0.63627 0.37914 0.0
C2076 C 0.22659 0.67996 0.38403 0.0
C2077 C 0.18039 0.58422 0.37944 0.0
C2078 C 0.26393 0.67164 0.38904 0.0
C2079 C 0.25898 0.61999 0.38947 0.0
H2080 H 0.57805 0.73533 0.39012 0.0
H2081 H 0.64234 0.65437 0.37362 0.0
H2082 H 0.5509 0.57255 0.37294 0.0
H2083 H 0.45309 0.52268 0.37769 0.0
H2084 H 0.39038 0.60588 0.39404 0.0
H2085 H 0.48064 0.68827 0.39409 0.0
C2086 C 0.57196 0.70007 0.38627 0.0
C2087 C 0.61684 0.70084 0.38193 0.0
C2088 C 0.51955 0.65343 0.38594 0.0
C2089 C 0.60837 0.65473 0.37701 0.0
C2090 C 0.55615 0.60793 0.37665 0.0
C2091 C 0.45929 0.559 0.38122 0.0
C2092 C 0.41525 0.5581 0.38591 0.0
C2093 C 0.51152 0.60654 0.38119 0.0
C2094 C 0.42366 0.60546 0.39042 0.0
C2095 C 0.47527 0.65261 0.39045 0.0
H2096 H 0.43265 0.96817 0.39619 0.0
H2097 H 0.3482 0.85492 0.37464 0.0
H2098 H 0.41326 0.82167 0.37529 0.0
H2099 H 0.49604 0.82653 0.38165 0.0
H2100 H 0.58028 0.93846 0.40336 0.0
H2101 H 0.51352 0.96994 0.40307 0.0
C2102 C 0.42889 0.9365 0.39162 0.0
C2103 C 0.38614 0.91443 0.38531 0.0
C2104 C 0.46626 0.91704 0.39209 0.0
C2105 C 0.381 0.87271 0.37952 0.0
C2106 C 0.41812 0.85359 0.3799 0.0
C2107 C 0.49943 0.85742 0.38637 0.0
C2108 C 0.54307 0.8802 0.3925 0.0
C2109 C 0.46109 0.87559 0.38612 0.0
C2110 C 0.54697 0.92021 0.39858 0.0
C2111 C 0.50896 0.93846 0.39838 0.0
H2112 H 1.01443 0.81731 0.8064 0.0
H2113 H 0.05769 0.93993 0.78579 0.0
H2114 H 0.96624 0.92995 0.78687 0.0
H2115 H 0.8735 0.88439 0.79342 0.0
H2116 H 0.83184 0.76549 0.81461 0.0
H2117 H 0.92321 0.77547 0.81352 0.0
C2118 C 1.0037 0.84173 0.80214 0.0
C2119 C 0.04229 0.87891 0.79596 0.0
C2120 C 0.95153 0.83639 0.80291 0.0
C2121 C 0.02838 0.91088 0.79056 0.0
C2122 C 0.97621 0.90519 0.79118 0.0
C2123 C 0.88479 0.86153 0.79793 0.0
C2124 C 0.84629 0.82469 0.80415 0.0
C2125 C 0.93746 0.86798 0.79732 0.0
C2126 C 0.86094 0.79421 0.80979 0.0
C2127 C 0.91308 0.79986 0.80916 0.0
H2128 H 0.25905 0.04162 0.78833 0.0
H2129 H 0.30282 0.07053 0.81636 0.0
H2130 H 0.27996 0.14398 0.81664 0.0
H2131 H 0.24859 0.20017 0.80876 0.0
H2132 H 0.21443 0.17699 0.78035 0.0
H2133 H 0.23219 0.10027 0.78031 0.0
C2134 C 0.26343 0.06396 0.7945 0.0
C2135 C 0.28212 0.05089 0.80234 0.0
C2136 C 0.25183 0.10673 0.79451 0.0
C2137 C 0.28857 0.08038 0.81026 0.0
C2138 C 0.27536 0.12204 0.81042 0.0
C2139 C 0.24472 0.17794 0.80259 0.0
C2140 C 0.22972 0.19332 0.79458 0.0
C2141 C 0.25701 0.13553 0.80257 0.0
C2142 C 0.22578 0.16535 0.78657 0.0
C2143 C 0.23593 0.12171 0.78656 0.0
H2144 H 0.09736 0.23169 0.79725 0.0
H2145 H 0.99822 0.30077 0.8058 0.0
H2146 H 0.9173 0.20952 0.8065 0.0
H2147 H 0.87385 0.11044 0.80413 0.0
H2148 H 0.97201 0.04034 0.79556 0.0
H2149 H 0.05415 0.13138 0.79542 0.0
C2150 C 0.05812 0.22652 0.79936 0.0
C2151 C 0.05362 0.2727 0.80149 0.0
C2152 C 1.01156 0.17383 0.79968 0.0
C2153 C 1.00259 0.26572 0.80415 0.0
C2154 C 0.95629 0.2136 0.80453 0.0
C2155 C 0.91327 0.11515 0.80225 0.0
C2156 C 0.91695 0.06899 0.79981 0.0
C2157 C 0.96014 0.16745 0.8022 0.0
C2158 C 0.96824 0.07546 0.79744 0.0
C2159 C 1.01517 0.12745 0.79736 0.0
H2160 H 0.17841 0.08194 0.301 0.0
H2161 H 0.29477 0.11255 0.27968 0.0
H2162 H 0.32482 0.21037 0.28009 0.0
H2163 H 0.32115 0.288 0.28712 0.0
H2164 H 0.20394 0.25635 0.30835 0.0
H2165 H 0.17126 0.15831 0.30743 0.0
C2166 C 0.20992 0.10998 0.29638 0.0
C2167 C 0.23452 0.09026 0.29035 0.0
C2168 C 0.22734 0.16608 0.29674 0.0
C2169 C 0.27523 0.12689 0.28438 0.0
C2170 C 0.29265 0.18283 0.28466 0.0
C2171 C 0.28872 0.2595 0.29156 0.0
C2172 C 0.26532 0.27911 0.29786 0.0
C2173 C 0.26973 0.20304 0.29093 0.0
C2174 C 0.22258 0.24197 0.30347 0.0
C2175 C 0.20388 0.18598 0.30294 0.0
H2176 H 0.02918 0.16344 0.3051 0.0
H2177 H 0.99567 0.25285 0.285 0.0
H2178 H 0.89835 0.1838 0.28534 0.0
H2179 H 0.8217 0.09971 0.29184 0.0
H2180 H 0.85533 1.0087 0.3116 0.0
H2181 H 0.95318 0.07632 0.31094 0.0
C2182 C 1.00055 0.16752 0.30076 0.0
C2183 C 1.0195 0.21334 0.29508 0.0
C2184 C 0.94447 0.1276 0.30101 0.0
C2185 C 0.98206 0.21801 0.28946 0.0
C2186 C 0.92632 0.17864 0.28967 0.0
C2187 C 0.85053 0.09499 0.29603 0.0
C2188 C 0.83139 0.04989 0.30187 0.0
C2189 C 0.90688 0.13369 0.29552 0.0
C2190 C 0.86917 0.04346 0.30712 0.0
C2191 C 0.92512 0.08205 0.30673 0.0
H2192 H 0.09065 0.91392 0.29366 0.0
H2193 H 0.02767 0.79505 0.31515 0.0
H2194 H 0.94871 0.80869 0.31687 0.0
H2195 H 0.89462 0.84939 0.31142 0.0
H2196 H 0.95824 0.96849 0.28996 0.0
H2197 H 0.04093 0.96068 0.28916 0.0
C2198 C 0.06015 0.89174 0.29883 0.0
C2199 C 0.06462 0.85341 0.30426 0.0
C2200 C 1.01511 0.89973 0.29974 0.0
C2201 C 0.02478 0.82463 0.31089 0.0
C2202 C 0.97971 0.83236 0.31185 0.0
C2203 C 0.92691 0.87402 0.30664 0.0
C2204 C 0.92038 0.909 0.30069 0.0
C2205 C 0.97396 0.869 0.30619 0.0
C2206 C 0.96246 0.94109 0.29457 0.0
C2207 C 1.00955 0.93652 0.2941 0.0
H2208 H 0.45518 0.9613 0.89385 0.0
H2209 H 0.37957 0.80144 0.88162 0.0
H2210 H 0.46947 0.80981 0.87933 0.0
H2211 H 0.56983 0.86338 0.88057 0.0
H2212 H 0.64636 0.02356 0.89253 0.0
H2213 H 0.55628 0.01553 0.89489 0.0
C2214 C 0.45858 0.92823 0.89077 0.0
C2215 C 0.41108 0.88065 0.88798 0.0
C2216 C 0.51056 0.93394 0.88926 0.0
C2217 C 0.41575 0.83834 0.88385 0.0
C2218 C 0.46707 0.84319 0.8825 0.0
C2219 C 0.56649 0.89621 0.88372 0.0
C2220 C 0.61403 0.94376 0.8864 0.0
C2221 C 0.51474 0.89091 0.88513 0.0
C2222 C 0.60991 0.98687 0.89031 0.0
C2223 C 0.55851 0.98202 0.89174 0.0
H2224 H 0.24021 0.75597 0.88796 0.0
H2225 H 0.06871 0.65314 0.88208 0.0
H2226 H 0.07739 0.57166 0.88379 0.0
H2227 H 0.13388 0.52974 0.88681 0.0
H2228 H 0.30727 0.63223 0.89141 0.0
H2229 H 0.29825 0.71423 0.89028 0.0
C2230 C 0.20525 0.71592 0.88685 0.0
C2231 C 0.15426 0.71069 0.88474 0.0
C2232 C 0.21086 0.66932 0.88769 0.0
C2233 C 0.10856 0.65824 0.88363 0.0
C2234 C 0.11345 0.61164 0.88463 0.0
C2235 C 0.1696 0.57006 0.88763 0.0
C2236 C 0.22102 0.57519 0.88929 0.0
C2237 C 0.16436 0.61671 0.88667 0.0
C2238 C 0.26722 0.62751 0.89018 0.0
C2239 C 0.26208 0.67426 0.88951 0.0
H2240 H 0.36047 0.53395 0.8801 0.0
H2241 H 0.42581 0.46163 0.89821 0.0
H2242 H 0.50324 0.55187 0.90162 0.0
H2243 H 0.55427 0.65116 0.89908 0.0
H2244 H 0.48926 0.72446 0.88112 0.0
H2245 H 0.40939 0.63447 0.87816 0.0
C2246 C 0.39134 0.5382 0.88487 0.0
C2247 C 0.38754 0.49136 0.88889 0.0
C2248 C 0.43582 0.5904 0.88683 0.0
C2249 C 0.42814 0.49715 0.89497 0.0
C2250 C 0.47236 0.54874 0.89695 0.0
C2251 C 0.5224 0.6474 0.89457 0.0
C2252 C 0.52763 0.69413 0.89029 0.0
C2253 C 0.47691 0.59559 0.89286 0.0
C2254 C 0.48609 0.68888 0.88447 0.0
C2255 C 0.44052 0.63746 0.88276 0.0
H2256 H 0.91366 0.87318 0.7274 0.0
H2257 H 0.79814 0.81848 0.70553 0.0
H2258 H 0.81186 0.91075 0.70387 0.0
H2259 H 0.85388 1.00599 0.70901 0.0
H2260 H 0.97045 0.0618 0.7307 0.0
H2261 H 0.95965 0.97022 0.73202 0.0
C2262 C 0.89182 0.88163 0.72224 0.0
C2263 C 0.85469 0.83907 0.71662 0.0
C2264 C 0.90008 0.93489 0.72131 0.0
C2265 C 0.82676 0.85053 0.70995 0.0
C2266 C 0.83457 0.90326 0.709 0.0
C2267 C 0.87717 0.99816 0.71399 0.0
C2268 C 0.91267 0.04037 0.71979 0.0
C2269 C 0.87068 0.94558 0.7147 0.0
C2270 C 0.94282 0.02985 0.72618 0.0
C2271 C 0.93653 0.97751 0.72694 0.0
H2272 H 0.08265 0.94825 0.71671 0.0
H2273 H 0.11708 0.869 0.73847 0.0
H2274 H 0.21462 0.9369 0.73748 0.0
H2275 H 0.29079 0.0158 0.72987 0.0
H2276 H 0.25673 0.0967 0.70835 0.0
H2277 H 0.15844 0.03123 0.70976 0.0
C2278 C 0.11153 0.94628 0.72128 0.0
C2279 C 0.09295 0.90362 0.7276 0.0
C2280 C 0.16761 0.98532 0.72064 0.0
C2281 C 0.13057 0.90148 0.73352 0.0
C2282 C 0.18634 0.94011 0.73294 0.0
C2283 C 0.26175 0.01884 0.72548 0.0
C2284 C 0.28066 0.06023 0.71893 0.0
C2285 C 0.20544 0.98156 0.72641 0.0
C2286 C 0.24283 0.06476 0.7134 0.0
C2287 C 0.18674 0.02742 0.71421 0.0
H2288 H 0.17434 0.18939 0.71231 0.0
H2289 H 0.26904 0.31088 0.73226 0.0
H2290 H 0.20198 0.34192 0.73247 0.0
H2291 H 0.11701 0.33612 0.72664 0.0
H2292 H 1.02175 0.21279 0.70696 0.0
H2293 H 0.08805 0.18118 0.70695 0.0
C2294 C 0.18005 0.22244 0.71673 0.0
C2295 C 0.2266 0.24792 0.72223 0.0
C2296 C 0.14136 0.24016 0.7168 0.0
C2297 C 0.23348 0.29061 0.72795 0.0
C2298 C 0.19526 0.30854 0.72805 0.0
C2299 C 0.11118 0.30265 0.72232 0.0
C2300 C 0.065 0.27732 0.71673 0.0
C2301 C 0.14929 0.28406 0.72243 0.0
C2302 C 0.05722 0.23324 0.71128 0.0
C2303 C 0.09507 0.21501 0.71128 0.0
H2304 H 0.66864 0.15002 0.14345 0.0
H2305 H 0.73235 0.29879 0.12792 0.0
H2306 H 0.64135 0.29012 0.12777 0.0
H2307 H 0.54316 0.23775 0.13139 0.0
H2308 H 0.47906 0.0898 0.14714 0.0
H2309 H 0.57098 0.10064 0.14792 0.0
C2310 C 0.66256 0.18063 0.14007 0.0
C2311 C 0.7069 0.22476 0.13563 0.0
C2312 C 0.61022 0.17544 0.14005 0.0
C2313 C 0.69873 0.26439 0.13134 0.0
C2314 C 0.64676 0.25941 0.13125 0.0
C2315 C 0.54943 0.20829 0.13511 0.0
C2316 C 0.50447 0.163 0.1392 0.0
C2317 C 0.60216 0.21481 0.1355 0.0
C2318 C 0.51308 0.12498 0.14395 0.0
C2319 C 0.56555 0.1311 0.14436 0.0
H2320 H 0.9784 0.41326 0.12327 0.0
H2321 H 0.89971 0.35896 0.14914 0.0
H2322 H 0.86841 0.42589 0.1485 0.0
H2323 H 0.8674 0.5028 0.14079 0.0
H2324 H 0.9402 0.55156 0.11438 0.0
H2325 H 0.96898 0.48303 0.1149 0.0
C2326 C 0.95456 0.4164 0.12876 0.0
C2327 C 0.94227 0.38264 0.13633 0.0
C2328 C 0.93538 0.45352 0.1282 0.0
C2329 C 0.91007 0.38546 0.14331 0.0
C2330 C 0.89214 0.42347 0.14293 0.0
C2331 C 0.88906 0.49787 0.13513 0.0
C2332 C 0.90229 0.53228 0.12761 0.0
C2333 C 0.90504 0.4581 0.13545 0.0
C2334 C 0.92974 0.5254 0.12025 0.0
C2335 C 0.9465 0.48655 0.12056 0.0
H2336 H 0.68335 0.60936 0.12158 0.0
H2337 H 0.78442 0.58626 0.14074 0.0
H2338 H 0.71758 0.48844 0.14161 0.0
H2339 H 0.62839 0.4098 0.13732 0.0
H2340 H 0.52832 0.43278 0.1179 0.0
H2341 H 0.59657 0.52989 0.11669 0.0
C2342 C 0.69049 0.58278 0.12595 0.0
C2343 C 0.73831 0.60475 0.13114 0.0
C2344 C 0.65206 0.52653 0.12636 0.0
C2345 C 0.74777 0.57002 0.13668 0.0
C2346 C 0.70955 0.51416 0.13719 0.0
C2347 C 0.62185 0.4361 0.13279 0.0
C2348 C 0.57339 0.41438 0.12775 0.0
C2349 C 0.66132 0.49198 0.13212 0.0
C2350 C 0.56536 0.44868 0.12186 0.0
C2351 C 0.60426 0.50425 0.12118 0.0
H2352 H 0.85069 0.3856 0.63894 0.0
H2353 H 0.9422 0.41033 0.61435 0.0
H2354 H 0.97517 0.50856 0.61496 0.0
H2355 H 0.98139 0.58836 0.62291 0.0
H2356 H 0.88592 0.56275 0.64704 0.0
H2357 H 0.85148 0.46428 0.64626 0.0
C2358 C 0.87735 0.41249 0.63368 0.0
C2359 C 0.89426 0.39095 0.62665 0.0
C2360 C 0.89615 0.46892 0.63407 0.0
C2361 C 0.9286 0.42606 0.61983 0.0
C2362 C 0.94778 0.48227 0.62021 0.0
C2363 C 0.95346 0.56108 0.62802 0.0
C2364 C 0.93703 0.58251 0.63513 0.0
C2365 C 0.93265 0.50432 0.62738 0.0
C2366 C 0.89954 0.54694 0.64157 0.0
C2367 C 0.87971 0.4907 0.64111 0.0
H2368 H 0.69637 0.47873 0.62474 0.0
H2369 H 0.67841 0.55148 0.64909 0.0
H2370 H 0.58153 0.48116 0.65012 0.0
H2371 H 0.50086 0.39881 0.64386 0.0
H2372 H 0.5212 0.32949 0.61923 0.0
H2373 H 0.61733 0.39807 0.61856 0.0
C2374 C 0.67126 0.47886 0.63029 0.0
C2375 C 0.69416 0.51981 0.63682 0.0
C2376 C 0.61569 0.43888 0.63079 0.0
C2377 C 0.66136 0.52 0.64398 0.0
C2378 C 0.60598 0.47996 0.64456 0.0
C2379 C 0.5265 0.39911 0.63836 0.0
C2380 C 0.50405 0.35876 0.63169 0.0
C2381 C 0.58246 0.43928 0.63796 0.0
C2382 C 0.53757 0.35946 0.62457 0.0
C2383 C 0.59273 0.39887 0.62413 0.0
H2384 H 0.75801 0.21827 0.62832 0.0
H2385 H 0.67672 0.07756 0.64577 0.0
H2386 H 0.59349 0.08453 0.6456 0.0
H2387 H 0.54227 0.12767 0.63974 0.0
H2388 H 0.6251 0.27042 0.62275 0.0
H2389 H 0.70949 0.26586 0.6235 0.0
C2390 C 0.72233 0.18967 0.63219 0.0
C2391 C 0.72326 0.14735 0.63701 0.0
C2392 C 0.67483 0.19402 0.63206 0.0
C2393 C 0.67684 0.11048 0.642 0.0
C2394 C 0.62922 0.1143 0.64187 0.0
C2395 C 0.57893 0.1578 0.63624 0.0
C2396 C 0.57753 0.1989 0.63111 0.0
C2397 C 0.62745 0.15533 0.6368 0.0
C2398 C 0.62529 0.23822 0.62669 0.0
C2399 C 0.67348 0.23565 0.62712 0.0
H2400 H 0.0991 0.20273 0.21626 0.0
H2401 H 0.12985 0.3149 0.23812 0.0
H2402 H 0.22734 0.34291 0.23779 0.0
H2403 H 0.30462 0.33789 0.23085 0.0
H2404 H 0.27275 0.22331 0.20934 0.0
H2405 H 0.17514 0.1942 0.20988 0.0
C2406 C 0.12715 0.23306 0.22098 0.0
C2407 C 0.10758 0.25701 0.22716 0.0
C2408 C 0.18305 0.24906 0.22072 0.0
C2409 C 0.14414 0.29602 0.23328 0.0
C2410 C 0.19988 0.31224 0.23307 0.0
C2411 C 0.27621 0.30694 0.22625 0.0
C2412 C 0.2956 0.28329 0.21997 0.0
C2413 C 0.21996 0.28965 0.22672 0.0
C2414 C 0.25851 0.24227 0.21418 0.0
C2415 C 0.20278 0.22555 0.2145 0.0
H2416 H 0.78943 0.01603 0.21534 0.0
H2417 H 0.94262 0.12581 0.22813 0.0
H2418 H 0.97277 0.05885 0.22663 0.0
H2419 H 0.9546 0.96794 0.22189 0.0
H2420 H 0.80323 0.85955 0.20836 0.0
H2421 H 0.77347 0.92702 0.2098 0.0
C2422 C 0.82921 0.02484 0.21782 0.0
C2423 C 0.86389 0.07536 0.22184 0.0
C2424 C 0.84669 0.98658 0.21672 0.0
C2425 C 0.91565 0.08725 0.22493 0.0
C2426 C 0.93282 0.04893 0.22409 0.0
C2427 C 0.91543 0.95952 0.21918 0.0
C2428 C 0.88105 0.90917 0.21507 0.0
C2429 C 0.89871 0.99849 0.21999 0.0
C2430 C 0.83042 0.89839 0.21154 0.0
C2431 C 0.8132 0.9367 0.21241 0.0
H2432 H 0.10535 0.83872 0.22768 0.0
H2433 H 1.02124 0.87157 0.20658 0.0
H2434 H 0.08756 0.96975 0.20756 0.0
H2435 H 0.1725 0.0459 0.21399 0.0
H2436 H 0.25403 1.01218 0.23545 0.0
H2437 H 0.18552 0.91504 0.23485 0.0
C2438 C 0.10174 0.86745 0.22328 0.0
C2439 C 0.05928 0.84812 0.21696 0.0
C2440 C 0.13946 0.92372 0.22398 0.0
C2441 C 0.05409 0.88568 0.21144 0.0
C2442 C 0.09192 0.94174 0.21201 0.0
C2443 C 0.17482 0.01727 0.21858 0.0
C2444 C 0.21844 0.03608 0.2247 0.0
C2445 C 0.13518 0.96123 0.21819 0.0
C2446 C 0.22091 0.99867 0.23065 0.0
C2447 C 0.18188 0.94305 0.23029 0.0
loop_
_geom_bond_atom_site_label_1
_geom_bond_atom_site_label_2
_geom_bond_distance
_geom_bond_site_symmetry_2
_ccdc_geom_bond_type
Tb0 O3 2.453 1_545 S
Tb0 O4 2.596 1_545 S
Tb0 O5 2.374 . S
Tb0 O13 2.343 . S
Tb0 O15 2.353 . S
Tb0 O17 2.427 . S
Tb0 O18 2.513 . S
C1 O5 1.251 . S
C1 O7 1.263 . S
Tb2 O4 2.343 1_545 S
Tb2 O7 2.353 . S
Tb2 O10 2.427 1_545 S
Tb2 O11 2.513 1_545 S
Tb2 O12 2.453 . S
Tb2 O13 2.596 . S
Tb2 O14 2.374 . S
O3 Tb0 2.453 1_565 S
O3 C19 1.245 . S
O4 Tb0 2.596 1_565 S
O4 Tb2 2.343 1_565 S
O4 C19 1.259 . S
O5 Tb0 2.374 . S
O5 C1 1.251 . S
C6 O10 1.275 . S
C6 O11 1.246 . S
O7 C1 1.263 . S
O7 Tb2 2.353 . S
C8 O12 1.245 . S
C8 O13 1.259 . S
C9 O14 1.250 . S
C9 O15 1.263 . S
O10 Tb2 2.427 1_565 S
O10 C6 1.275 . S
O11 Tb2 2.513 1_565 S
O11 C6 1.246 . S
O12 Tb2 2.453 . S
O12 C8 1.245 . S
O13 Tb0 2.343 . S
O13 Tb2 2.596 . S
O13 C8 1.259 . S
O14 Tb2 2.374 . S
O14 C9 1.250 . S
O15 Tb0 2.353 . S
O15 C9 1.263 . S
C16 O17 1.275 . S
C16 O18 1.246 . S
O17 Tb0 2.427 . S
O17 C16 1.275 . S
O18 Tb0 2.513 . S
O18 C16 1.246 . S
C19 O3 1.245 . S
C19 O4 1.259 . S
Tb20 O23 2.453 1_655 S
Tb20 O24 2.596 1_655 S
Tb20 O25 2.374 1_655 S
Tb20 O33 2.343 . S
Tb20 O35 2.353 . S
Tb20 O37 2.427 . S
Tb20 O38 2.513 . S
C21 O25 1.251 . S
C21 O27 1.263 . S
Tb22 O24 2.343 . S
Tb22 O27 2.353 . S
Tb22 O30 2.427 . S
Tb22 O31 2.513 . S
Tb22 O32 2.453 1_455 S
Tb22 O33 2.596 1_455 S
Tb22 O34 2.374 . S
O23 Tb20 2.453 1_455 S
O23 C39 1.245 . S
O24 Tb20 2.596 1_455 S
O24 Tb22 2.343 . S
O24 C39 1.259 . S
O25 Tb20 2.374 1_455 S
O25 C21 1.251 . S
C26 O30 1.275 . S
C26 O31 1.246 . S
O27 C21 1.263 . S
O27 Tb22 2.353 . S
C28 O32 1.245 . S
C28 O33 1.259 . S
C29 O34 1.250 . S
C29 O35 1.263 1_455 S
O30 Tb22 2.427 . S
O30 C26 1.275 . S
O31 Tb22 2.513 . S
O31 C26 1.246 . S
O32 Tb22 2.453 1_655 S
O32 C28 1.245 . S
O33 Tb20 2.343 . S
O33 Tb22 2.596 1_655 S
O33 C28 1.259 . S
O34 Tb22 2.374 . S
O34 C29 1.250 . S
O35 Tb20 2.353 . S
O35 C29 1.263 1_655 S
C36 O37 1.275 . S
C36 O38 1.246 . S
O37 Tb20 2.427 . S
O37 C36 1.275 . S
O38 Tb20 2.513 . S
O38 C36 1.246 . S
C39 O23 1.245 . S
C39 O24 1.259 . S
Tb40 O43 2.453 . S
Tb40 O44 2.596 . S
Tb40 O45 2.374 . S
Tb40 O53 2.343 . S
Tb40 O55 2.353 . S
Tb40 O57 2.427 . S
Tb40 O58 2.513 . S
C41 O45 1.251 . S
C41 O47 1.263 . S
Tb42 O44 2.343 . S
Tb42 O47 2.353 . S
Tb42 O50 2.427 . S
Tb42 O51 2.513 . S
Tb42 O52 2.453 . S
Tb42 O53 2.596 . S
Tb42 O54 2.374 . S
O43 Tb40 2.453 . S
O43 C59 1.245 . S
O44 Tb40 2.596 . S
O44 Tb42 2.343 . S
O44 C59 1.259 . S
O45 Tb40 2.374 . S
O45 C41 1.251 . S
C46 O50 1.275 . S
C46 O51 1.246 . S
O47 C41 1.263 . S
O47 Tb42 2.353 . S
C48 O52 1.245 . S
C48 O53 1.259 . S
C49 O54 1.250 . S
C49 O55 1.263 . S
O50 Tb42 2.427 . S
O50 C46 1.275 . S
O51 Tb42 2.513 . S
O51 C46 1.246 . S
O52 Tb42 2.453 . S
O52 C48 1.245 . S
O53 Tb40 2.343 . S
O53 Tb42 2.596 . S
O53 C48 1.259 . S
O54 Tb42 2.374 . S
O54 C49 1.250 . S
O55 Tb40 2.353 . S
O55 C49 1.263 . S
C56 O57 1.275 . S
C56 O58 1.246 . S
O57 Tb40 2.427 . S
O57 C56 1.275 . S
O58 Tb40 2.513 . S
O58 C56 1.246 . S
C59 O43 1.245 . S
C59 O44 1.259 . S
Tb60 O63 2.453 1_455 S
Tb60 O64 2.596 1_455 S
Tb60 O65 2.374 . S
Tb60 O73 2.343 . S
Tb60 O75 2.353 . S
Tb60 O77 2.427 . S
Tb60 O78 2.513 . S
C61 O65 1.251 . S
C61 O67 1.263 . S
Tb62 O64 2.343 1_455 S
Tb62 O67 2.353 . S
Tb62 O70 2.427 1_455 S
Tb62 O71 2.513 1_455 S
Tb62 O72 2.453 . S
Tb62 O73 2.596 . S
Tb62 O74 2.374 . S
O63 Tb60 2.453 1_655 S
O63 C79 1.245 . S
O64 Tb60 2.596 1_655 S
O64 Tb62 2.343 1_655 S
O64 C79 1.259 . S
O65 Tb60 2.374 . S
O65 C61 1.251 . S
C66 O70 1.275 . S
C66 O71 1.246 . S
O67 C61 1.263 . S
O67 Tb62 2.353 . S
C68 O72 1.245 . S
C68 O73 1.259 . S
C69 O74 1.250 . S
C69 O75 1.263 . S
O70 Tb62 2.427 1_655 S
O70 C66 1.275 . S
O71 Tb62 2.513 1_655 S
O71 C66 1.246 . S
O72 Tb62 2.453 . S
O72 C68 1.245 . S
O73 Tb60 2.343 . S
O73 Tb62 2.596 . S
O73 C68 1.259 . S
O74 Tb62 2.374 . S
O74 C69 1.250 . S
O75 Tb60 2.353 . S
O75 C69 1.263 . S
C76 O77 1.275 . S
C76 O78 1.246 . S
O77 Tb60 2.427 . S
O77 C76 1.275 . S
O78 Tb60 2.513 . S
O78 C76 1.246 . S
C79 O63 1.245 . S
C79 O64 1.259 . S
Tb80 O83 2.453 . S
Tb80 O84 2.596 . S
Tb80 O85 2.374 . S
Tb80 O93 2.343 . S
Tb80 O95 2.353 . S
Tb80 O97 2.427 . S
Tb80 O98 2.513 . S
C81 O85 1.251 . S
C81 O87 1.263 . S
Tb82 O84 2.343 . S
Tb82 O87 2.353 . S
Tb82 O90 2.427 . S
Tb82 O91 2.513 . S
Tb82 O92 2.453 . S
Tb82 O93 2.596 . S
Tb82 O94 2.374 . S
O83 Tb80 2.453 . S
O83 C99 1.245 . S
O84 Tb80 2.596 . S
O84 Tb82 2.343 . S
O84 C99 1.259 . S
O85 Tb80 2.374 . S
O85 C81 1.251 . S
C86 O90 1.275 . S
C86 O91 1.246 . S
O87 C81 1.263 . S
O87 Tb82 2.353 . S
C88 O92 1.245 . S
C88 O93 1.259 . S
C89 O94 1.250 . S
C89 O95 1.263 . S
O90 Tb82 2.427 . S
O90 C86 1.275 . S
O91 Tb82 2.513 . S
O91 C86 1.246 . S
O92 Tb82 2.453 . S
O92 C88 1.245 . S
O93 Tb80 2.343 . S
O93 Tb82 2.596 . S
O93 C88 1.259 . S
O94 Tb82 2.374 . S
O94 C89 1.250 . S
O95 Tb80 2.353 . S
O95 C89 1.263 . S
C96 O97 1.275 . S
C96 O98 1.246 . S
O97 Tb80 2.427 . S
O97 C96 1.275 . S
O98 Tb80 2.513 . S
O98 C96 1.246 . S
C99 O83 1.245 . S
C99 O84 1.259 . S
Tb100 O103 2.453 1_565 S
Tb100 O104 2.596 1_565 S
Tb100 O105 2.374 1_565 S
Tb100 O113 2.343 . S
Tb100 O115 2.353 . S
Tb100 O117 2.427 . S
Tb100 O118 2.513 . S
C101 O105 1.251 . S
C101 O107 1.263 . S
Tb102 O104 2.343 . S
Tb102 O107 2.353 . S
Tb102 O110 2.427 . S
Tb102 O111 2.513 . S
Tb102 O112 2.453 1_545 S
Tb102 O113 2.596 1_545 S
Tb102 O114 2.374 . S
O103 Tb100 2.453 1_545 S
O103 C119 1.245 . S
O104 Tb100 2.596 1_545 S
O104 Tb102 2.343 . S
O104 C119 1.259 . S
O105 Tb100 2.374 1_545 S
O105 C101 1.251 . S
C106 O110 1.275 . S
C106 O111 1.246 . S
O107 C101 1.263 . S
O107 Tb102 2.353 . S
C108 O112 1.245 . S
C108 O113 1.259 . S
C109 O114 1.250 . S
C109 O115 1.263 1_545 S
O110 Tb102 2.427 . S
O110 C106 1.275 . S
O111 Tb102 2.513 . S
O111 C106 1.246 . S
O112 Tb102 2.453 1_565 S
O112 C108 1.245 . S
O113 Tb100 2.343 . S
O113 Tb102 2.596 1_565 S
O113 C108 1.259 . S
O114 Tb102 2.374 . S
O114 C109 1.250 . S
O115 Tb100 2.353 . S
O115 C109 1.263 1_565 S
C116 O117 1.275 . S
C116 O118 1.246 . S
O117 Tb100 2.427 . S
O117 C116 1.275 . S
O118 Tb100 2.513 . S
O118 C116 1.246 . S
C119 O103 1.245 . S
C119 O104 1.259 . S
Tb120 O123 2.453 1_545 S
Tb120 O124 2.596 1_545 S
Tb120 O125 2.374 . S
Tb120 O133 2.343 . S
Tb120 O135 2.353 . S
Tb120 O137 2.427 . S
Tb120 O138 2.513 . S
C121 O125 1.251 . S
C121 O127 1.263 1_545 S
Tb122 O124 2.343 . S
Tb122 O127 2.353 . S
Tb122 O130 2.427 . S
Tb122 O131 2.513 . S
Tb122 O132 2.453 1_565 S
Tb122 O133 2.596 1_565 S
Tb122 O134 2.374 1_565 S
O123 Tb120 2.453 1_565 S
O123 C139 1.245 . S
O124 Tb120 2.596 1_565 S
O124 Tb122 2.343 . S
O124 C139 1.259 . S
O125 Tb120 2.374 . S
O125 C121 1.251 . S
C126 O130 1.275 . S
C126 O131 1.246 . S
O127 C121 1.263 1_565 S
O127 Tb122 2.353 . S
C128 O132 1.245 . S
C128 O133 1.259 . S
C129 O134 1.250 . S
C129 O135 1.263 . S
O130 Tb122 2.427 . S
O130 C126 1.275 . S
O131 Tb122 2.513 . S
O131 C126 1.246 . S
O132 Tb122 2.453 1_545 S
O132 C128 1.245 . S
O133 Tb120 2.343 . S
O133 Tb122 2.596 1_545 S
O133 C128 1.259 . S
O134 Tb122 2.374 1_545 S
O134 C129 1.250 . S
O135 Tb120 2.353 . S
O135 C129 1.263 . S
C136 O137 1.275 . S
C136 O138 1.246 . S
O137 Tb120 2.427 . S
O137 C136 1.275 . S
O138 Tb120 2.513 . S
O138 C136 1.246 . S
C139 O123 1.245 . S
C139 O124 1.259 . S
Tb140 O143 2.453 . S
Tb140 O144 2.596 . S
Tb140 O145 2.374 . S
Tb140 O153 2.343 1_455 S
Tb140 O155 2.353 . S
Tb140 O157 2.427 1_455 S
Tb140 O158 2.513 1_455 S
C141 O145 1.251 . S
C141 O147 1.263 . S
Tb142 O144 2.343 . S
Tb142 O147 2.353 . S
Tb142 O150 2.427 . S
Tb142 O151 2.513 . S
Tb142 O152 2.453 1_455 S
Tb142 O153 2.596 1_455 S
Tb142 O154 2.374 . S
O143 Tb140 2.453 . S
O143 C159 1.245 . S
O144 Tb140 2.596 . S
O144 Tb142 2.343 . S
O144 C159 1.259 . S
O145 Tb140 2.374 . S
O145 C141 1.251 . S
C146 O150 1.275 . S
C146 O151 1.246 . S
O147 C141 1.263 . S
O147 Tb142 2.353 . S
C148 O152 1.245 . S
C148 O153 1.259 . S
C149 O154 1.250 . S
C149 O155 1.263 . S
O150 Tb142 2.427 . S
O150 C146 1.275 . S
O151 Tb142 2.513 . S
O151 C146 1.246 . S
O152 Tb142 2.453 1_655 S
O152 C148 1.245 . S
O153 Tb140 2.343 1_655 S
O153 Tb142 2.596 1_655 S
O153 C148 1.259 . S
O154 Tb142 2.374 . S
O154 C149 1.250 . S
O155 Tb140 2.353 . S
O155 C149 1.263 . S
C156 O157 1.275 . S
C156 O158 1.246 . S
O157 Tb140 2.427 1_655 S
O157 C156 1.275 . S
O158 Tb140 2.513 1_655 S
O158 C156 1.246 . S
C159 O143 1.245 . S
C159 O144 1.259 . S
Tb160 O163 2.453 . S
Tb160 O164 2.596 . S
Tb160 O165 2.374 . S
Tb160 O173 2.343 . S
Tb160 O175 2.353 . S
Tb160 O177 2.427 . S
Tb160 O178 2.513 . S
C161 O165 1.251 . S
C161 O167 1.263 . S
Tb162 O164 2.343 . S
Tb162 O167 2.353 . S
Tb162 O170 2.427 . S
Tb162 O171 2.513 . S
Tb162 O172 2.453 . S
Tb162 O173 2.596 . S
Tb162 O174 2.374 . S
O163 Tb160 2.453 . S
O163 C179 1.245 . S
O164 Tb160 2.596 . S
O164 Tb162 2.343 . S
O164 C179 1.259 . S
O165 Tb160 2.374 . S
O165 C161 1.251 . S
C166 O170 1.275 . S
C166 O171 1.246 . S
O167 C161 1.263 . S
O167 Tb162 2.353 . S
C168 O172 1.245 . S
C168 O173 1.259 . S
C169 O174 1.250 . S
C169 O175 1.263 . S
O170 Tb162 2.427 . S
O170 C166 1.275 . S
O171 Tb162 2.513 . S
O171 C166 1.246 . S
O172 Tb162 2.453 . S
O172 C168 1.245 . S
O173 Tb160 2.343 . S
O173 Tb162 2.596 . S
O173 C168 1.259 . S
O174 Tb162 2.374 . S
O174 C169 1.250 . S
O175 Tb160 2.353 . S
O175 C169 1.263 . S
C176 O177 1.275 . S
C176 O178 1.246 . S
O177 Tb160 2.427 . S
O177 C176 1.275 . S
O178 Tb160 2.513 . S
O178 C176 1.246 . S
C179 O163 1.245 . S
C179 O164 1.259 . S
Tb180 O183 2.453 1_455 S
Tb180 O184 2.596 1_455 S
Tb180 O185 2.374 . S
Tb180 O193 2.343 . S
Tb180 O195 2.353 . S
Tb180 O197 2.427 . S
Tb180 O198 2.513 . S
C181 O185 1.251 . S
C181 O187 1.263 1_455 S
Tb182 O184 2.343 . S
Tb182 O187 2.353 . S
Tb182 O190 2.427 . S
Tb182 O191 2.513 . S
Tb182 O192 2.453 1_655 S
Tb182 O193 2.596 1_655 S
Tb182 O194 2.374 1_655 S
O183 Tb180 2.453 1_655 S
O183 C199 1.245 . S
O184 Tb180 2.596 1_655 S
O184 Tb182 2.343 . S
O184 C199 1.259 . S
O185 Tb180 2.374 . S
O185 C181 1.251 . S
C186 O190 1.275 . S
C186 O191 1.246 . S
O187 C181 1.263 1_655 S
O187 Tb182 2.353 . S
C188 O192 1.245 . S
C188 O193 1.259 . S
C189 O194 1.250 . S
C189 O195 1.263 . S
O190 Tb182 2.427 . S
O190 C186 1.275 . S
O191 Tb182 2.513 . S
O191 C186 1.246 . S
O192 Tb182 2.453 1_455 S
O192 C188 1.245 . S
O193 Tb180 2.343 . S
O193 Tb182 2.596 1_455 S
O193 C188 1.259 . S
O194 Tb182 2.374 1_455 S
O194 C189 1.250 . S
O195 Tb180 2.353 . S
O195 C189 1.263 . S
C196 O197 1.275 . S
C196 O198 1.246 . S
O197 Tb180 2.427 . S
O197 C196 1.275 . S
O198 Tb180 2.513 . S
O198 C196 1.246 . S
C199 O183 1.245 . S
C199 O184 1.259 . S
Tb200 O203 2.453 . S
Tb200 O204 2.596 . S
Tb200 O205 2.374 . S
Tb200 O213 2.343 . S
Tb200 O215 2.353 . S
Tb200 O217 2.427 . S
Tb200 O218 2.513 . S
C201 O205 1.251 . S
C201 O207 1.263 . S
Tb202 O204 2.343 . S
Tb202 O207 2.353 . S
Tb202 O210 2.427 . S
Tb202 O211 2.513 . S
Tb202 O212 2.453 . S
Tb202 O213 2.596 . S
Tb202 O214 2.374 . S
O203 Tb200 2.453 . S
O203 C219 1.245 . S
O204 Tb200 2.596 . S
O204 Tb202 2.343 . S
O204 C219 1.259 . S
O205 Tb200 2.374 . S
O205 C201 1.251 . S
C206 O210 1.275 . S
C206 O211 1.246 . S
O207 C201 1.263 . S
O207 Tb202 2.353 . S
C208 O212 1.245 . S
C208 O213 1.259 . S
C209 O214 1.250 . S
C209 O215 1.263 . S
O210 Tb202 2.427 . S
O210 C206 1.275 . S
O211 Tb202 2.513 . S
O211 C206 1.246 . S
O212 Tb202 2.453 . S
O212 C208 1.245 . S
O213 Tb200 2.343 . S
O213 Tb202 2.596 . S
O213 C208 1.259 . S
O214 Tb202 2.374 . S
O214 C209 1.250 . S
O215 Tb200 2.353 . S
O215 C209 1.263 . S
C216 O217 1.275 . S
C216 O218 1.246 . S
O217 Tb200 2.427 . S
O217 C216 1.275 . S
O218 Tb200 2.513 . S
O218 C216 1.246 . S
C219 O203 1.245 . S
C219 O204 1.259 . S
Tb220 O223 2.453 . S
Tb220 O224 2.596 . S
Tb220 O225 2.374 . S
Tb220 O233 2.343 1_545 S
Tb220 O235 2.353 . S
Tb220 O237 2.427 1_545 S
Tb220 O238 2.513 1_545 S
C221 O225 1.251 . S
C221 O227 1.263 . S
Tb222 O224 2.343 . S
Tb222 O227 2.353 . S
Tb222 O230 2.427 . S
Tb222 O231 2.513 . S
Tb222 O232 2.453 1_545 S
Tb222 O233 2.596 1_545 S
Tb222 O234 2.374 . S
O223 Tb220 2.453 . S
O223 C239 1.245 . S
O224 Tb220 2.596 . S
O224 Tb222 2.343 . S
O224 C239 1.259 . S
O225 Tb220 2.374 . S
O225 C221 1.251 . S
C226 O230 1.275 . S
C226 O231 1.246 . S
O227 C221 1.263 . S
O227 Tb222 2.353 . S
C228 O232 1.245 . S
C228 O233 1.259 . S
C229 O234 1.250 . S
C229 O235 1.263 . S
O230 Tb222 2.427 . S
O230 C226 1.275 . S
O231 Tb222 2.513 . S
O231 C226 1.246 . S
O232 Tb222 2.453 1_565 S
O232 C228 1.245 . S
O233 Tb220 2.343 1_565 S
O233 Tb222 2.596 1_565 S
O233 C228 1.259 . S
O234 Tb222 2.374 . S
O234 C229 1.250 . S
O235 Tb220 2.353 . S
O235 C229 1.263 . S
C236 O237 1.275 . S
C236 O238 1.246 . S
O237 Tb220 2.427 1_565 S
O237 C236 1.275 . S
O238 Tb220 2.513 1_565 S
O238 C236 1.246 . S
C239 O223 1.245 . S
C239 O224 1.259 . S
Tb240 O243 2.453 . S
Tb240 O244 2.596 . S
Tb240 O245 2.374 . S
Tb240 O253 2.343 . S
Tb240 O255 2.353 . S
Tb240 O257 2.427 . S
Tb240 O258 2.513 . S
C241 O245 1.251 . S
C241 O247 1.263 . S
Tb242 O244 2.343 . S
Tb242 O247 2.353 . S
Tb242 O250 2.427 . S
Tb242 O251 2.513 . S
Tb242 O252 2.453 . S
Tb242 O253 2.596 . S
Tb242 O254 2.374 . S
O243 Tb240 2.453 . S
O243 C259 1.245 . S
O244 Tb240 2.596 . S
O244 Tb242 2.343 . S
O244 C259 1.259 . S
O245 Tb240 2.374 . S
O245 C241 1.251 . S
C246 O250 1.275 . S
C246 O251 1.246 . S
O247 C241 1.263 . S
O247 Tb242 2.353 . S
C248 O252 1.245 . S
C248 O253 1.259 . S
C249 O254 1.250 . S
C249 O255 1.263 . S
O250 Tb242 2.427 . S
O250 C246 1.275 . S
O251 Tb242 2.513 . S
O251 C246 1.246 . S
O252 Tb242 2.453 . S
O252 C248 1.245 . S
O253 Tb240 2.343 . S
O253 Tb242 2.596 . S
O253 C248 1.259 . S
O254 Tb242 2.374 . S
O254 C249 1.250 . S
O255 Tb240 2.353 . S
O255 C249 1.263 . S
C256 O257 1.275 . S
C256 O258 1.246 . S
O257 Tb240 2.427 . S
O257 C256 1.275 . S
O258 Tb240 2.513 . S
O258 C256 1.246 . S
C259 O243 1.245 . S
C259 O244 1.259 . S
Tb260 O263 2.453 . S
Tb260 O264 2.596 . S
Tb260 O265 2.374 . S
Tb260 O273 2.343 . S
Tb260 O275 2.353 . S
Tb260 O277 2.427 . S
Tb260 O278 2.513 . S
C261 O265 1.251 . S
C261 O267 1.263 . S
Tb262 O264 2.343 . S
Tb262 O267 2.353 . S
Tb262 O270 2.427 . S
Tb262 O271 2.513 . S
Tb262 O272 2.453 . S
Tb262 O273 2.596 . S
Tb262 O274 2.374 . S
O263 Tb260 2.453 . S
O263 C279 1.245 . S
O264 Tb260 2.596 . S
O264 Tb262 2.343 . S
O264 C279 1.259 . S
O265 Tb260 2.374 . S
O265 C261 1.251 . S
C266 O270 1.275 . S
C266 O271 1.246 . S
O267 C261 1.263 . S
O267 Tb262 2.353 . S
C268 O272 1.245 . S
C268 O273 1.259 . S
C269 O274 1.250 . S
C269 O275 1.263 . S
O270 Tb262 2.427 . S
O270 C266 1.275 . S
O271 Tb262 2.513 . S
O271 C266 1.246 . S
O272 Tb262 2.453 . S
O272 C268 1.245 . S
O273 Tb260 2.343 . S
O273 Tb262 2.596 . S
O273 C268 1.259 . S
O274 Tb262 2.374 . S
O274 C269 1.250 . S
O275 Tb260 2.353 . S
O275 C269 1.263 . S
C276 O277 1.275 . S
C276 O278 1.246 . S
O277 Tb260 2.427 . S
O277 C276 1.275 . S
O278 Tb260 2.513 . S
O278 C276 1.246 . S
C279 O263 1.245 . S
C279 O264 1.259 . S
Tb280 O283 2.453 . S
Tb280 O284 2.596 . S
Tb280 O285 2.374 . S
Tb280 O293 2.343 . S
Tb280 O295 2.353 . S
Tb280 O297 2.427 . S
Tb280 O298 2.513 . S
C281 O285 1.251 . S
C281 O287 1.263 . S
Tb282 O284 2.343 . S
Tb282 O287 2.353 . S
Tb282 O290 2.427 1_565 S
Tb282 O291 2.513 1_565 S
Tb282 O292 2.453 . S
Tb282 O293 2.596 . S
Tb282 O294 2.374 . S
O283 Tb280 2.453 . S
O283 C299 1.245 . S
O284 Tb280 2.596 . S
O284 Tb282 2.343 . S
O284 C299 1.259 . S
O285 Tb280 2.374 . S
O285 C281 1.251 . S
C286 O290 1.275 . S
C286 O291 1.246 . S
O287 C281 1.263 . S
O287 Tb282 2.353 . S
C288 O292 1.245 . S
C288 O293 1.259 . S
C289 O294 1.250 . S
C289 O295 1.263 . S
O290 Tb282 2.427 1_545 S
O290 C286 1.275 . S
O291 Tb282 2.513 1_545 S
O291 C286 1.246 . S
O292 Tb282 2.453 . S
O292 C288 1.245 . S
O293 Tb280 2.343 . S
O293 Tb282 2.596 . S
O293 C288 1.259 . S
O294 Tb282 2.374 . S
O294 C289 1.250 . S
O295 Tb280 2.353 . S
O295 C289 1.263 . S
C296 O297 1.275 . S
C296 O298 1.246 . S
O297 Tb280 2.427 . S
O297 C296 1.275 . S
O298 Tb280 2.513 . S
O298 C296 1.246 . S
C299 O283 1.245 . S
C299 O284 1.259 . S
Tb300 O303 2.453 . S
Tb300 O304 2.596 . S
Tb300 O305 2.374 . S
Tb300 O313 2.343 . S
Tb300 O315 2.353 . S
Tb300 O317 2.427 . S
Tb300 O318 2.513 . S
C301 O305 1.251 . S
C301 O307 1.263 . S
Tb302 O304 2.343 . S
Tb302 O307 2.353 . S
Tb302 O310 2.427 . S
Tb302 O311 2.513 . S
Tb302 O312 2.453 . S
Tb302 O313 2.596 . S
Tb302 O314 2.374 . S
O303 Tb300 2.453 . S
O303 C319 1.245 . S
O304 Tb300 2.596 . S
O304 Tb302 2.343 . S
O304 C319 1.259 . S
O305 Tb300 2.374 . S
O305 C301 1.251 . S
C306 O310 1.275 . S
C306 O311 1.246 . S
O307 C301 1.263 . S
O307 Tb302 2.353 . S
C308 O312 1.245 . S
C308 O313 1.259 . S
C309 O314 1.250 . S
C309 O315 1.263 . S
O310 Tb302 2.427 . S
O310 C306 1.275 . S
O311 Tb302 2.513 . S
O311 C306 1.246 . S
O312 Tb302 2.453 . S
O312 C308 1.245 . S
O313 Tb300 2.343 . S
O313 Tb302 2.596 . S
O313 C308 1.259 . S
O314 Tb302 2.374 . S
O314 C309 1.250 . S
O315 Tb300 2.353 . S
O315 C309 1.263 . S
C316 O317 1.275 . S
C316 O318 1.246 . S
O317 Tb300 2.427 . S
O317 C316 1.275 . S
O318 Tb300 2.513 . S
O318 C316 1.246 . S
C319 O303 1.245 . S
C319 O304 1.259 . S
Tb320 O323 2.453 . S
Tb320 O324 2.596 . S
Tb320 O325 2.374 . S
Tb320 O333 2.343 . S
Tb320 O335 2.353 . S
Tb320 O337 2.427 . S
Tb320 O338 2.513 . S
C321 O325 1.251 . S
C321 O327 1.263 . S
Tb322 O324 2.343 . S
Tb322 O327 2.353 . S
Tb322 O330 2.427 . S
Tb322 O331 2.513 . S
Tb322 O332 2.453 1_565 S
Tb322 O333 2.596 . S
Tb322 O334 2.374 . S
O323 Tb320 2.453 . S
O323 C339 1.245 . S
O324 Tb320 2.596 . S
O324 Tb322 2.343 . S
O324 C339 1.259 . S
O325 Tb320 2.374 . S
O325 C321 1.251 . S
C326 O330 1.275 . S
C326 O331 1.246 . S
O327 C321 1.263 . S
O327 Tb322 2.353 . S
C328 O332 1.245 1_565 S
C328 O333 1.259 . S
C329 O334 1.250 . S
C329 O335 1.263 . S
O330 Tb322 2.427 . S
O330 C326 1.275 . S
O331 Tb322 2.513 . S
O331 C326 1.246 . S
O332 Tb322 2.453 1_545 S
O332 C328 1.245 1_545 S
O333 Tb320 2.343 . S
O333 Tb322 2.596 . S
O333 C328 1.259 . S
O334 Tb322 2.374 . S
O334 C329 1.250 . S
O335 Tb320 2.353 . S
O335 C329 1.263 . S
C336 O337 1.275 . S
C336 O338 1.246 . S
O337 Tb320 2.427 . S
O337 C336 1.275 . S
O338 Tb320 2.513 . S
O338 C336 1.246 . S
C339 O323 1.245 . S
C339 O324 1.259 . S
Tb340 O343 2.453 . S
Tb340 O344 2.596 . S
Tb340 O345 2.374 . S
Tb340 O353 2.343 . S
Tb340 O355 2.353 . S
Tb340 O357 2.427 . S
Tb340 O358 2.513 . S
C341 O345 1.251 . S
C341 O347 1.263 . S
Tb342 O344 2.343 . S
Tb342 O347 2.353 . S
Tb342 O350 2.427 . S
Tb342 O351 2.513 . S
Tb342 O352 2.453 . S
Tb342 O353 2.596 . S
Tb342 O354 2.374 . S
O343 Tb340 2.453 . S
O343 C359 1.245 . S
O344 Tb340 2.596 . S
O344 Tb342 2.343 . S
O344 C359 1.259 . S
O345 Tb340 2.374 . S
O345 C341 1.251 . S
C346 O350 1.275 . S
C346 O351 1.246 . S
O347 C341 1.263 . S
O347 Tb342 2.353 . S
C348 O352 1.245 . S
C348 O353 1.259 . S
C349 O354 1.250 . S
C349 O355 1.263 . S
O350 Tb342 2.427 . S
O350 C346 1.275 . S
O351 Tb342 2.513 . S
O351 C346 1.246 . S
O352 Tb342 2.453 . S
O352 C348 1.245 . S
O353 Tb340 2.343 . S
O353 Tb342 2.596 . S
O353 C348 1.259 . S
O354 Tb342 2.374 . S
O354 C349 1.250 . S
O355 Tb340 2.353 . S
O355 C349 1.263 . S
C356 O357 1.275 . S
C356 O358 1.246 . S
O357 Tb340 2.427 . S
O357 C356 1.275 . S
O358 Tb340 2.513 . S
O358 C356 1.246 . S
C359 O343 1.245 . S
C359 O344 1.259 . S
Tb360 O363 2.453 . S
Tb360 O364 2.596 . S
Tb360 O365 2.374 . S
Tb360 O373 2.343 . S
Tb360 O375 2.353 . S
Tb360 O377 2.427 . S
Tb360 O378 2.513 . S
C361 O365 1.251 . S
C361 O367 1.263 . S
Tb362 O364 2.343 . S
Tb362 O367 2.353 . S
Tb362 O370 2.427 . S
Tb362 O371 2.513 . S
Tb362 O372 2.453 . S
Tb362 O373 2.596 . S
Tb362 O374 2.374 . S
O363 Tb360 2.453 . S
O363 C379 1.245 . S
O364 Tb360 2.596 . S
O364 Tb362 2.343 . S
O364 C379 1.259 . S
O365 Tb360 2.374 . S
O365 C361 1.251 . S
C366 O370 1.275 . S
C366 O371 1.246 . S
O367 C361 1.263 . S
O367 Tb362 2.353 . S
C368 O372 1.245 . S
C368 O373 1.259 . S
C369 O374 1.250 . S
C369 O375 1.263 . S
O370 Tb362 2.427 . S
O370 C366 1.275 . S
O371 Tb362 2.513 . S
O371 C366 1.246 . S
O372 Tb362 2.453 . S
O372 C368 1.245 . S
O373 Tb360 2.343 . S
O373 Tb362 2.596 . S
O373 C368 1.259 . S
O374 Tb362 2.374 . S
O374 C369 1.250 . S
O375 Tb360 2.353 . S
O375 C369 1.263 . S
C376 O377 1.275 . S
C376 O378 1.246 . S
O377 Tb360 2.427 . S
O377 C376 1.275 . S
O378 Tb360 2.513 . S
O378 C376 1.246 . S
C379 O363 1.245 . S
C379 O364 1.259 . S
Tb380 O383 2.453 1_565 S
Tb380 O384 2.596 . S
Tb380 O385 2.374 . S
Tb380 O393 2.343 . S
Tb380 O395 2.353 . S
Tb380 O397 2.427 . S
Tb380 O398 2.513 . S
C381 O385 1.251 . S
C381 O387 1.263 . S
Tb382 O384 2.343 . S
Tb382 O387 2.353 . S
Tb382 O390 2.427 . S
Tb382 O391 2.513 . S
Tb382 O392 2.453 . S
Tb382 O393 2.596 . S
Tb382 O394 2.374 . S
O383 Tb380 2.453 1_545 S
O383 C399 1.245 1_545 S
O384 Tb380 2.596 . S
O384 Tb382 2.343 . S
O384 C399 1.259 . S
O385 Tb380 2.374 . S
O385 C381 1.251 . S
C386 O390 1.275 . S
C386 O391 1.246 . S
O387 C381 1.263 . S
O387 Tb382 2.353 . S
C388 O392 1.245 . S
C388 O393 1.259 . S
C389 O394 1.250 . S
C389 O395 1.263 . S
O390 Tb382 2.427 . S
O390 C386 1.275 . S
O391 Tb382 2.513 . S
O391 C386 1.246 . S
O392 Tb382 2.453 . S
O392 C388 1.245 . S
O393 Tb380 2.343 . S
O393 Tb382 2.596 . S
O393 C388 1.259 . S
O394 Tb382 2.374 . S
O394 C389 1.250 . S
O395 Tb380 2.353 . S
O395 C389 1.263 . S
C396 O397 1.275 . S
C396 O398 1.246 . S
O397 Tb380 2.427 . S
O397 C396 1.275 . S
O398 Tb380 2.513 . S
O398 C396 1.246 . S
C399 O383 1.245 1_565 S
C399 O384 1.259 . S
Tb400 O403 2.453 . S
Tb400 O404 2.596 . S
Tb400 O405 2.374 . S
Tb400 O413 2.343 . S
Tb400 O415 2.353 . S
Tb400 O417 2.427 . S
Tb400 O418 2.513 . S
C401 O405 1.251 . S
C401 O407 1.263 . S
Tb402 O404 2.343 . S
Tb402 O407 2.353 . S
Tb402 O410 2.427 . S
Tb402 O411 2.513 . S
Tb402 O412 2.453 . S
Tb402 O413 2.596 . S
Tb402 O414 2.374 . S
O403 Tb400 2.453 . S
O403 C419 1.245 . S
O404 Tb400 2.596 . S
O404 Tb402 2.343 . S
O404 C419 1.259 . S
O405 Tb400 2.374 . S
O405 C401 1.251 . S
C406 O410 1.275 . S
C406 O411 1.246 . S
O407 C401 1.263 . S
O407 Tb402 2.353 . S
C408 O412 1.245 . S
C408 O413 1.259 . S
C409 O414 1.250 . S
C409 O415 1.263 . S
O410 Tb402 2.427 . S
O410 C406 1.275 . S
O411 Tb402 2.513 . S
O411 C406 1.246 . S
O412 Tb402 2.453 . S
O412 C408 1.245 . S
O413 Tb400 2.343 . S
O413 Tb402 2.596 . S
O413 C408 1.259 . S
O414 Tb402 2.374 . S
O414 C409 1.250 . S
O415 Tb400 2.353 . S
O415 C409 1.263 . S
C416 O417 1.275 . S
C416 O418 1.246 . S
O417 Tb400 2.427 . S
O417 C416 1.275 . S
O418 Tb400 2.513 . S
O418 C416 1.246 . S
C419 O403 1.245 . S
C419 O404 1.259 . S
Tb420 O423 2.453 . S
Tb420 O424 2.596 . S
Tb420 O425 2.374 . S
Tb420 O433 2.343 . S
Tb420 O435 2.353 . S
Tb420 O437 2.427 1_565 S
Tb420 O438 2.513 1_565 S
C421 O425 1.251 . S
C421 O427 1.263 . S
Tb422 O424 2.343 . S
Tb422 O427 2.353 . S
Tb422 O430 2.427 . S
Tb422 O431 2.513 . S
Tb422 O432 2.453 . S
Tb422 O433 2.596 . S
Tb422 O434 2.374 . S
O423 Tb420 2.453 . S
O423 C439 1.245 . S
O424 Tb420 2.596 . S
O424 Tb422 2.343 . S
O424 C439 1.259 . S
O425 Tb420 2.374 . S
O425 C421 1.251 . S
C426 O430 1.275 . S
C426 O431 1.246 . S
O427 C421 1.263 . S
O427 Tb422 2.353 . S
C428 O432 1.245 . S
C428 O433 1.259 . S
C429 O434 1.250 . S
C429 O435 1.263 . S
O430 Tb422 2.427 . S
O430 C426 1.275 . S
O431 Tb422 2.513 . S
O431 C426 1.246 . S
O432 Tb422 2.453 . S
O432 C428 1.245 . S
O433 Tb420 2.343 . S
O433 Tb422 2.596 . S
O433 C428 1.259 . S
O434 Tb422 2.374 . S
O434 C429 1.250 . S
O435 Tb420 2.353 . S
O435 C429 1.263 . S
C436 O437 1.275 . S
C436 O438 1.246 . S
O437 Tb420 2.427 1_545 S
O437 C436 1.275 . S
O438 Tb420 2.513 1_545 S
O438 C436 1.246 . S
C439 O423 1.245 . S
C439 O424 1.259 . S
Tb440 O443 2.453 . S
Tb440 O444 2.596 . S
Tb440 O445 2.374 . S
Tb440 O453 2.343 . S
Tb440 O455 2.353 . S
Tb440 O457 2.427 . S
Tb440 O458 2.513 . S
C441 O445 1.251 . S
C441 O447 1.263 . S
Tb442 O444 2.343 . S
Tb442 O447 2.353 . S
Tb442 O450 2.427 . S
Tb442 O451 2.513 . S
Tb442 O452 2.453 . S
Tb442 O453 2.596 . S
Tb442 O454 2.374 . S
O443 Tb440 2.453 . S
O443 C459 1.245 . S
O444 Tb440 2.596 . S
O444 Tb442 2.343 . S
O444 C459 1.259 . S
O445 Tb440 2.374 . S
O445 C441 1.251 . S
C446 O450 1.275 . S
C446 O451 1.246 . S
O447 C441 1.263 . S
O447 Tb442 2.353 . S
C448 O452 1.245 . S
C448 O453 1.259 . S
C449 O454 1.250 . S
C449 O455 1.263 . S
O450 Tb442 2.427 . S
O450 C446 1.275 . S
O451 Tb442 2.513 . S
O451 C446 1.246 . S
O452 Tb442 2.453 . S
O452 C448 1.245 . S
O453 Tb440 2.343 . S
O453 Tb442 2.596 . S
O453 C448 1.259 . S
O454 Tb442 2.374 . S
O454 C449 1.250 . S
O455 Tb440 2.353 . S
O455 C449 1.263 . S
C456 O457 1.275 . S
C456 O458 1.246 . S
O457 Tb440 2.427 . S
O457 C456 1.275 . S
O458 Tb440 2.513 . S
O458 C456 1.246 . S
C459 O443 1.245 . S
C459 O444 1.259 . S
Tb460 O463 2.453 . S
Tb460 O464 2.596 . S
Tb460 O465 2.374 . S
Tb460 O473 2.343 . S
Tb460 O475 2.353 . S
Tb460 O477 2.427 . S
Tb460 O478 2.513 . S
C461 O465 1.251 . S
C461 O467 1.263 . S
Tb462 O464 2.343 . S
Tb462 O467 2.353 . S
Tb462 O470 2.427 . S
Tb462 O471 2.513 . S
Tb462 O472 2.453 . S
Tb462 O473 2.596 . S
Tb462 O474 2.374 . S
O463 Tb460 2.453 . S
O463 C479 1.245 . S
O464 Tb460 2.596 . S
O464 Tb462 2.343 . S
O464 C479 1.259 . S
O465 Tb460 2.374 . S
O465 C461 1.251 . S
C466 O470 1.275 . S
C466 O471 1.246 . S
O467 C461 1.263 . S
O467 Tb462 2.353 . S
C468 O472 1.245 . S
C468 O473 1.259 . S
C469 O474 1.250 . S
C469 O475 1.263 . S
O470 Tb462 2.427 . S
O470 C466 1.275 . S
O471 Tb462 2.513 . S
O471 C466 1.246 . S
O472 Tb462 2.453 . S
O472 C468 1.245 . S
O473 Tb460 2.343 . S
O473 Tb462 2.596 . S
O473 C468 1.259 . S
O474 Tb462 2.374 . S
O474 C469 1.250 . S
O475 Tb460 2.353 . S
O475 C469 1.263 . S
C476 O477 1.275 . S
C476 O478 1.246 . S
O477 Tb460 2.427 . S
O477 C476 1.275 . S
O478 Tb460 2.513 . S
O478 C476 1.246 . S
C479 O463 1.245 . S
C479 O464 1.259 . S
Tb480 O483 2.453 . S
Tb480 O484 2.596 . S
Tb480 O485 2.374 . S
Tb480 O493 2.343 . S
Tb480 O495 2.353 . S
Tb480 O497 2.427 . S
Tb480 O498 2.513 . S
C481 O485 1.251 . S
C481 O487 1.263 . S
Tb482 O484 2.343 . S
Tb482 O487 2.353 . S
Tb482 O490 2.427 . S
Tb482 O491 2.513 . S
Tb482 O492 2.453 . S
Tb482 O493 2.596 . S
Tb482 O494 2.374 . S
O483 Tb480 2.453 . S
O483 C499 1.245 . S
O484 Tb480 2.596 . S
O484 Tb482 2.343 . S
O484 C499 1.259 . S
O485 Tb480 2.374 . S
O485 C481 1.251 . S
C486 O490 1.275 . S
C486 O491 1.246 . S
O487 C481 1.263 . S
O487 Tb482 2.353 . S
C488 O492 1.245 . S
C488 O493 1.259 . S
C489 O494 1.250 . S
C489 O495 1.263 . S
O490 Tb482 2.427 . S
O490 C486 1.275 . S
O491 Tb482 2.513 . S
O491 C486 1.246 . S
O492 Tb482 2.453 . S
O492 C488 1.245 . S
O493 Tb480 2.343 . S
O493 Tb482 2.596 . S
O493 C488 1.259 . S
O494 Tb482 2.374 . S
O494 C489 1.250 . S
O495 Tb480 2.353 . S
O495 C489 1.263 . S
C496 O497 1.275 . S
C496 O498 1.246 . S
O497 Tb480 2.427 . S
O497 C496 1.275 . S
O498 Tb480 2.513 . S
O498 C496 1.246 . S
C499 O483 1.245 . S
C499 O484 1.259 . S
Tb500 O503 2.453 . S
Tb500 O504 2.596 . S
Tb500 O505 2.374 . S
Tb500 O513 2.343 . S
Tb500 O515 2.353 . S
Tb500 O517 2.427 . S
Tb500 O518 2.513 . S
C501 O505 1.251 . S
C501 O507 1.263 . S
Tb502 O504 2.343 . S
Tb502 O507 2.353 . S
Tb502 O510 2.427 . S
Tb502 O511 2.513 . S
Tb502 O512 2.453 . S
Tb502 O513 2.596 . S
Tb502 O514 2.374 . S
O503 Tb500 2.453 . S
O503 C519 1.245 . S
O504 Tb500 2.596 . S
O504 Tb502 2.343 . S
O504 C519 1.259 . S
O505 Tb500 2.374 . S
O505 C501 1.251 . S
C506 O510 1.275 . S
C506 O511 1.246 . S
O507 C501 1.263 . S
O507 Tb502 2.353 . S
C508 O512 1.245 . S
C508 O513 1.259 . S
C509 O514 1.250 . S
C509 O515 1.263 . S
O510 Tb502 2.427 . S
O510 C506 1.275 . S
O511 Tb502 2.513 . S
O511 C506 1.246 . S
O512 Tb502 2.453 . S
O512 C508 1.245 . S
O513 Tb500 2.343 . S
O513 Tb502 2.596 . S
O513 C508 1.259 . S
O514 Tb502 2.374 . S
O514 C509 1.250 . S
O515 Tb500 2.353 . S
O515 C509 1.263 . S
C516 O517 1.275 . S
C516 O518 1.246 . S
O517 Tb500 2.427 . S
O517 C516 1.275 . S
O518 Tb500 2.513 . S
O518 C516 1.246 . S
C519 O503 1.245 . S
C519 O504 1.259 . S
Tb520 O523 2.453 . S
Tb520 O524 2.596 . S
Tb520 O525 2.374 . S
Tb520 O533 2.343 . S
Tb520 O535 2.353 . S
Tb520 O537 2.427 . S
Tb520 O538 2.513 . S
C521 O525 1.251 . S
C521 O527 1.263 . S
Tb522 O524 2.343 . S
Tb522 O527 2.353 . S
Tb522 O530 2.427 . S
Tb522 O531 2.513 . S
Tb522 O532 2.453 1_655 S
Tb522 O533 2.596 . S
Tb522 O534 2.374 . S
O523 Tb520 2.453 . S
O523 C539 1.245 . S
O524 Tb520 2.596 . S
O524 Tb522 2.343 . S
O524 C539 1.259 . S
O525 Tb520 2.374 . S
O525 C521 1.251 . S
C526 O530 1.275 . S
C526 O531 1.246 . S
O527 C521 1.263 . S
O527 Tb522 2.353 . S
C528 O532 1.245 1_655 S
C528 O533 1.259 . S
C529 O534 1.250 . S
C529 O535 1.263 . S
O530 Tb522 2.427 . S
O530 C526 1.275 . S
O531 Tb522 2.513 . S
O531 C526 1.246 . S
O532 Tb522 2.453 1_455 S
O532 C528 1.245 1_455 S
O533 Tb520 2.343 . S
O533 Tb522 2.596 . S
O533 C528 1.259 . S
O534 Tb522 2.374 . S
O534 C529 1.250 . S
O535 Tb520 2.353 . S
O535 C529 1.263 . S
C536 O537 1.275 . S
C536 O538 1.246 . S
O537 Tb520 2.427 . S
O537 C536 1.275 . S
O538 Tb520 2.513 . S
O538 C536 1.246 . S
C539 O523 1.245 . S
C539 O524 1.259 . S
Tb540 O543 2.453 . S
Tb540 O544 2.596 . S
Tb540 O545 2.374 . S
Tb540 O553 2.343 . S
Tb540 O555 2.353 . S
Tb540 O557 2.427 . S
Tb540 O558 2.513 . S
C541 O545 1.251 . S
C541 O547 1.263 . S
Tb542 O544 2.343 . S
Tb542 O547 2.353 . S
Tb542 O550 2.427 . S
Tb542 O551 2.513 . S
Tb542 O552 2.453 . S
Tb542 O553 2.596 . S
Tb542 O554 2.374 . S
O543 Tb540 2.453 . S
O543 C559 1.245 . S
O544 Tb540 2.596 . S
O544 Tb542 2.343 . S
O544 C559 1.259 . S
O545 Tb540 2.374 . S
O545 C541 1.251 . S
C546 O550 1.275 . S
C546 O551 1.246 . S
O547 C541 1.263 . S
O547 Tb542 2.353 . S
C548 O552 1.245 . S
C548 O553 1.259 . S
C549 O554 1.250 . S
C549 O555 1.263 . S
O550 Tb542 2.427 . S
O550 C546 1.275 . S
O551 Tb542 2.513 . S
O551 C546 1.246 . S
O552 Tb542 2.453 . S
O552 C548 1.245 . S
O553 Tb540 2.343 . S
O553 Tb542 2.596 . S
O553 C548 1.259 . S
O554 Tb542 2.374 . S
O554 C549 1.250 . S
O555 Tb540 2.353 . S
O555 C549 1.263 . S
C556 O557 1.275 . S
C556 O558 1.246 . S
O557 Tb540 2.427 . S
O557 C556 1.275 . S
O558 Tb540 2.513 . S
O558 C556 1.246 . S
C559 O543 1.245 . S
C559 O544 1.259 . S
Tb560 O563 2.453 . S
Tb560 O564 2.596 . S
Tb560 O565 2.374 . S
Tb560 O573 2.343 . S
Tb560 O575 2.353 . S
Tb560 O577 2.427 . S
Tb560 O578 2.513 . S
C561 O565 1.251 . S
C561 O567 1.263 . S
Tb562 O564 2.343 . S
Tb562 O567 2.353 . S
Tb562 O570 2.427 1_655 S
Tb562 O571 2.513 1_655 S
Tb562 O572 2.453 . S
Tb562 O573 2.596 . S
Tb562 O574 2.374 . S
O563 Tb560 2.453 . S
O563 C579 1.245 . S
O564 Tb560 2.596 . S
O564 Tb562 2.343 . S
O564 C579 1.259 . S
O565 Tb560 2.374 . S
O565 C561 1.251 . S
C566 O570 1.275 . S
C566 O571 1.246 . S
O567 C561 1.263 . S
O567 Tb562 2.353 . S
C568 O572 1.245 . S
C568 O573 1.259 . S
C569 O574 1.250 . S
C569 O575 1.263 . S
O570 Tb562 2.427 1_455 S
O570 C566 1.275 . S
O571 Tb562 2.513 1_455 S
O571 C566 1.246 . S
O572 Tb562 2.453 . S
O572 C568 1.245 . S
O573 Tb560 2.343 . S
O573 Tb562 2.596 . S
O573 C568 1.259 . S
O574 Tb562 2.374 . S
O574 C569 1.250 . S
O575 Tb560 2.353 . S
O575 C569 1.263 . S
C576 O577 1.275 . S
C576 O578 1.246 . S
O577 Tb560 2.427 . S
O577 C576 1.275 . S
O578 Tb560 2.513 . S
O578 C576 1.246 . S
C579 O563 1.245 . S
C579 O564 1.259 . S
Tb580 O583 2.453 . S
Tb580 O584 2.596 . S
Tb580 O585 2.374 . S
Tb580 O593 2.343 . S
Tb580 O595 2.353 . S
Tb580 O597 2.427 . S
Tb580 O598 2.513 . S
C581 O585 1.251 . S
C581 O587 1.263 . S
Tb582 O584 2.343 . S
Tb582 O587 2.353 . S
Tb582 O590 2.427 . S
Tb582 O591 2.513 . S
Tb582 O592 2.453 . S
Tb582 O593 2.596 . S
Tb582 O594 2.374 . S
O583 Tb580 2.453 . S
O583 C599 1.245 . S
O584 Tb580 2.596 . S
O584 Tb582 2.343 . S
O584 C599 1.259 . S
O585 Tb580 2.374 . S
O585 C581 1.251 . S
C586 O590 1.275 . S
C586 O591 1.246 . S
O587 C581 1.263 . S
O587 Tb582 2.353 . S
C588 O592 1.245 . S
C588 O593 1.259 . S
C589 O594 1.250 . S
C589 O595 1.263 . S
O590 Tb582 2.427 . S
O590 C586 1.275 . S
O591 Tb582 2.513 . S
O591 C586 1.246 . S
O592 Tb582 2.453 . S
O592 C588 1.245 . S
O593 Tb580 2.343 . S
O593 Tb582 2.596 . S
O593 C588 1.259 . S
O594 Tb582 2.374 . S
O594 C589 1.250 . S
O595 Tb580 2.353 . S
O595 C589 1.263 . S
C596 O597 1.275 . S
C596 O598 1.246 . S
O597 Tb580 2.427 . S
O597 C596 1.275 . S
O598 Tb580 2.513 . S
O598 C596 1.246 . S
C599 O583 1.245 . S
C599 O584 1.259 . S
Tb600 O603 2.453 . S
Tb600 O604 2.596 . S
Tb600 O605 2.374 . S
Tb600 O613 2.343 . S
Tb600 O615 2.353 . S
Tb600 O617 2.427 1_655 S
Tb600 O618 2.513 1_655 S
C601 O605 1.251 . S
C601 O607 1.263 . S
Tb602 O604 2.343 . S
Tb602 O607 2.353 . S
Tb602 O610 2.427 . S
Tb602 O611 2.513 . S
Tb602 O612 2.453 . S
Tb602 O613 2.596 . S
Tb602 O614 2.374 . S
O603 Tb600 2.453 . S
O603 C619 1.245 . S
O604 Tb600 2.596 . S
O604 Tb602 2.343 . S
O604 C619 1.259 . S
O605 Tb600 2.374 . S
O605 C601 1.251 . S
C606 O610 1.275 . S
C606 O611 1.246 . S
O607 C601 1.263 . S
O607 Tb602 2.353 . S
C608 O612 1.245 . S
C608 O613 1.259 . S
C609 O614 1.250 . S
C609 O615 1.263 . S
O610 Tb602 2.427 . S
O610 C606 1.275 . S
O611 Tb602 2.513 . S
O611 C606 1.246 . S
O612 Tb602 2.453 . S
O612 C608 1.245 . S
O613 Tb600 2.343 . S
O613 Tb602 2.596 . S
O613 C608 1.259 . S
O614 Tb602 2.374 . S
O614 C609 1.250 . S
O615 Tb600 2.353 . S
O615 C609 1.263 . S
C616 O617 1.275 . S
C616 O618 1.246 . S
O617 Tb600 2.427 1_455 S
O617 C616 1.275 . S
O618 Tb600 2.513 1_455 S
O618 C616 1.246 . S
C619 O603 1.245 . S
C619 O604 1.259 . S
Tb620 O623 2.453 . S
Tb620 O624 2.596 . S
Tb620 O625 2.374 . S
Tb620 O633 2.343 . S
Tb620 O635 2.353 . S
Tb620 O637 2.427 . S
Tb620 O638 2.513 . S
C621 O625 1.251 . S
C621 O627 1.263 . S
Tb622 O624 2.343 . S
Tb622 O627 2.353 . S
Tb622 O630 2.427 . S
Tb622 O631 2.513 . S
Tb622 O632 2.453 . S
Tb622 O633 2.596 . S
Tb622 O634 2.374 . S
O623 Tb620 2.453 . S
O623 C639 1.245 . S
O624 Tb620 2.596 . S
O624 Tb622 2.343 . S
O624 C639 1.259 . S
O625 Tb620 2.374 . S
O625 C621 1.251 . S
C626 O630 1.275 . S
C626 O631 1.246 . S
O627 C621 1.263 . S
O627 Tb622 2.353 . S
C628 O632 1.245 . S
C628 O633 1.259 . S
C629 O634 1.250 . S
C629 O635 1.263 . S
O630 Tb622 2.427 . S
O630 C626 1.275 . S
O631 Tb622 2.513 . S
O631 C626 1.246 . S
O632 Tb622 2.453 . S
O632 C628 1.245 . S
O633 Tb620 2.343 . S
O633 Tb622 2.596 . S
O633 C628 1.259 . S
O634 Tb622 2.374 . S
O634 C629 1.250 . S
O635 Tb620 2.353 . S
O635 C629 1.263 . S
C636 O637 1.275 . S
C636 O638 1.246 . S
O637 Tb620 2.427 . S
O637 C636 1.275 . S
O638 Tb620 2.513 . S
O638 C636 1.246 . S
C639 O623 1.245 . S
C639 O624 1.259 . S
Tb640 O643 2.453 . S
Tb640 O644 2.596 . S
Tb640 O645 2.374 . S
Tb640 O653 2.343 . S
Tb640 O655 2.353 . S
Tb640 O657 2.427 . S
Tb640 O658 2.513 . S
C641 O645 1.251 . S
C641 O647 1.263 . S
Tb642 O644 2.343 . S
Tb642 O647 2.353 . S
Tb642 O650 2.427 . S
Tb642 O651 2.513 . S
Tb642 O652 2.453 . S
Tb642 O653 2.596 . S
Tb642 O654 2.374 . S
O643 Tb640 2.453 . S
O643 C659 1.245 . S
O644 Tb640 2.596 . S
O644 Tb642 2.343 . S
O644 C659 1.259 . S
O645 Tb640 2.374 . S
O645 C641 1.251 . S
C646 O650 1.275 . S
C646 O651 1.246 . S
O647 C641 1.263 . S
O647 Tb642 2.353 . S
C648 O652 1.245 . S
C648 O653 1.259 . S
C649 O654 1.250 . S
C649 O655 1.263 . S
O650 Tb642 2.427 . S
O650 C646 1.275 . S
O651 Tb642 2.513 . S
O651 C646 1.246 . S
O652 Tb642 2.453 . S
O652 C648 1.245 . S
O653 Tb640 2.343 . S
O653 Tb642 2.596 . S
O653 C648 1.259 . S
O654 Tb642 2.374 . S
O654 C649 1.250 . S
O655 Tb640 2.353 . S
O655 C649 1.263 . S
C656 O657 1.275 . S
C656 O658 1.246 . S
O657 Tb640 2.427 . S
O657 C656 1.275 . S
O658 Tb640 2.513 . S
O658 C656 1.246 . S
C659 O643 1.245 . S
C659 O644 1.259 . S
Tb660 O663 2.453 . S
Tb660 O664 2.596 . S
Tb660 O665 2.374 . S
Tb660 O673 2.343 . S
Tb660 O675 2.353 . S
Tb660 O677 2.427 . S
Tb660 O678 2.513 . S
C661 O665 1.251 . S
C661 O667 1.263 . S
Tb662 O664 2.343 . S
Tb662 O667 2.353 . S
Tb662 O670 2.427 . S
Tb662 O671 2.513 . S
Tb662 O672 2.453 . S
Tb662 O673 2.596 . S
Tb662 O674 2.374 . S
O663 Tb660 2.453 . S
O663 C679 1.245 . S
O664 Tb660 2.596 . S
O664 Tb662 2.343 . S
O664 C679 1.259 . S
O665 Tb660 2.374 . S
O665 C661 1.251 . S
C666 O670 1.275 . S
C666 O671 1.246 . S
O667 C661 1.263 . S
O667 Tb662 2.353 . S
C668 O672 1.245 . S
C668 O673 1.259 . S
C669 O674 1.250 . S
C669 O675 1.263 . S
O670 Tb662 2.427 . S
O670 C666 1.275 . S
O671 Tb662 2.513 . S
O671 C666 1.246 . S
O672 Tb662 2.453 . S
O672 C668 1.245 . S
O673 Tb660 2.343 . S
O673 Tb662 2.596 . S
O673 C668 1.259 . S
O674 Tb662 2.374 . S
O674 C669 1.250 . S
O675 Tb660 2.353 . S
O675 C669 1.263 . S
C676 O677 1.275 . S
C676 O678 1.246 . S
O677 Tb660 2.427 . S
O677 C676 1.275 . S
O678 Tb660 2.513 . S
O678 C676 1.246 . S
C679 O663 1.245 . S
C679 O664 1.259 . S
Tb680 O683 2.453 . S
Tb680 O684 2.596 . S
Tb680 O685 2.374 . S
Tb680 O693 2.343 . S
Tb680 O695 2.353 . S
Tb680 O697 2.427 . S
Tb680 O698 2.513 . S
C681 O685 1.251 . S
C681 O687 1.263 . S
Tb682 O684 2.343 . S
Tb682 O687 2.353 . S
Tb682 O690 2.427 . S
Tb682 O691 2.513 . S
Tb682 O692 2.453 . S
Tb682 O693 2.596 . S
Tb682 O694 2.374 . S
O683 Tb680 2.453 . S
O683 C699 1.245 . S
O684 Tb680 2.596 . S
O684 Tb682 2.343 . S
O684 C699 1.259 . S
O685 Tb680 2.374 . S
O685 C681 1.251 . S
C686 O690 1.275 . S
C686 O691 1.246 . S
O687 C681 1.263 . S
O687 Tb682 2.353 . S
C688 O692 1.245 . S
C688 O693 1.259 . S
C689 O694 1.250 . S
C689 O695 1.263 . S
O690 Tb682 2.427 . S
O690 C686 1.275 . S
O691 Tb682 2.513 . S
O691 C686 1.246 . S
O692 Tb682 2.453 . S
O692 C688 1.245 . S
O693 Tb680 2.343 . S
O693 Tb682 2.596 . S
O693 C688 1.259 . S
O694 Tb682 2.374 . S
O694 C689 1.250 . S
O695 Tb680 2.353 . S
O695 C689 1.263 . S
C696 O697 1.275 . S
C696 O698 1.246 . S
O697 Tb680 2.427 . S
O697 C696 1.275 . S
O698 Tb680 2.513 . S
O698 C696 1.246 . S
C699 O683 1.245 . S
C699 O684 1.259 . S
Tb700 O703 2.453 1_655 S
Tb700 O704 2.596 . S
Tb700 O705 2.374 . S
Tb700 O713 2.343 . S
Tb700 O715 2.353 . S
Tb700 O717 2.427 . S
Tb700 O718 2.513 . S
C701 O705 1.251 . S
C701 O707 1.263 . S
Tb702 O704 2.343 . S
Tb702 O707 2.353 . S
Tb702 O710 2.427 . S
Tb702 O711 2.513 . S
Tb702 O712 2.453 . S
Tb702 O713 2.596 . S
Tb702 O714 2.374 . S
O703 Tb700 2.453 1_455 S
O703 C719 1.245 1_455 S
O704 Tb700 2.596 . S
O704 Tb702 2.343 . S
O704 C719 1.259 . S
O705 Tb700 2.374 . S
O705 C701 1.251 . S
C706 O710 1.275 . S
C706 O711 1.246 . S
O707 C701 1.263 . S
O707 Tb702 2.353 . S
C708 O712 1.245 . S
C708 O713 1.259 . S
C709 O714 1.250 . S
C709 O715 1.263 . S
O710 Tb702 2.427 . S
O710 C706 1.275 . S
O711 Tb702 2.513 . S
O711 C706 1.246 . S
O712 Tb702 2.453 . S
O712 C708 1.245 . S
O713 Tb700 2.343 . S
O713 Tb702 2.596 . S
O713 C708 1.259 . S
O714 Tb702 2.374 . S
O714 C709 1.250 . S
O715 Tb700 2.353 . S
O715 C709 1.263 . S
C716 O717 1.275 . S
C716 O718 1.246 . S
O717 Tb700 2.427 . S
O717 C716 1.275 . S
O718 Tb700 2.513 . S
O718 C716 1.246 . S
C719 O703 1.245 1_655 S
C719 O704 1.259 . S
H720 C726 0.930 . S
H721 C729 0.930 . S
H722 C730 0.930 . S
H723 C731 0.930 . S
H724 C734 0.930 . S
H725 C735 0.930 . S
C726 H720 0.930 . S
C726 C727 1.355 . S
C726 C728 1.415 . S
C727 C726 1.355 . S
C727 C729 1.419 . S
C728 C726 1.415 . S
C728 C733 1.425 . S
C728 C735 1.409 . S
C729 H721 0.930 . S
C729 C727 1.419 . S
C729 C730 1.362 . S
C730 H722 0.930 . S
C730 C729 1.362 . S
C730 C733 1.409 . S
C731 H723 0.930 . S
C731 C732 1.355 . S
C731 C733 1.415 . S
C732 C731 1.355 . S
C732 C734 1.419 . S
C733 C728 1.425 . S
C733 C730 1.409 . S
C733 C731 1.415 . S
C734 H724 0.930 . S
C734 C732 1.419 . S
C734 C735 1.362 . S
C735 H725 0.930 . S
C735 C728 1.409 . S
C735 C734 1.362 . S
H736 C742 0.930 . S
H737 C745 0.930 . S
H738 C746 0.930 . S
H739 C747 0.930 . S
H740 C750 0.930 . S
H741 C751 0.930 . S
C742 H736 0.930 . S
C742 C743 1.355 . S
C742 C744 1.415 . S
C743 C742 1.355 . S
C743 C745 1.419 . S
C744 C742 1.415 . S
C744 C749 1.425 . S
C744 C751 1.409 . S
C745 H737 0.930 . S
C745 C743 1.419 . S
C745 C746 1.362 . S
C746 H738 0.930 . S
C746 C745 1.362 . S
C746 C749 1.409 . S
C747 H739 0.930 . S
C747 C748 1.355 . S
C747 C749 1.415 . S
C748 C747 1.355 . S
C748 C750 1.419 . S
C749 C744 1.425 . S
C749 C746 1.409 . S
C749 C747 1.415 . S
C750 H740 0.930 . S
C750 C748 1.419 . S
C750 C751 1.362 . S
C751 H741 0.930 . S
C751 C744 1.409 . S
C751 C750 1.362 . S
H752 C758 0.930 . S
H753 C761 0.930 . S
H754 C762 0.930 . S
H755 C763 0.930 . S
H756 C766 0.930 . S
H757 C767 0.930 . S
C758 H752 0.930 . S
C758 C759 1.355 . S
C758 C760 1.415 . S
C759 C758 1.355 . S
C759 C761 1.419 . S
C760 C758 1.415 . S
C760 C765 1.425 . S
C760 C767 1.409 . S
C761 H753 0.930 . S
C761 C759 1.419 . S
C761 C762 1.362 . S
C762 H754 0.930 . S
C762 C761 1.362 . S
C762 C765 1.409 . S
C763 H755 0.930 . S
C763 C764 1.355 . S
C763 C765 1.415 . S
C764 C763 1.355 . S
C764 C766 1.419 . S
C765 C760 1.425 . S
C765 C762 1.409 . S
C765 C763 1.415 . S
C766 H756 0.930 . S
C766 C764 1.419 . S
C766 C767 1.362 . S
C767 H757 0.930 . S
C767 C760 1.409 . S
C767 C766 1.362 . S
H768 C774 0.930 . S
H769 C777 0.930 . S
H770 C778 0.930 . S
H771 C779 0.930 . S
H772 C782 0.930 . S
H773 C783 0.930 . S
C774 H768 0.930 . S
C774 C775 1.355 . S
C774 C776 1.415 . S
C775 C774 1.355 . S
C775 C777 1.419 . S
C776 C774 1.415 . S
C776 C781 1.425 . S
C776 C783 1.409 . S
C777 H769 0.930 . S
C777 C775 1.419 . S
C777 C778 1.362 . S
C778 H770 0.930 . S
C778 C777 1.362 . S
C778 C781 1.409 . S
C779 H771 0.930 . S
C779 C780 1.355 . S
C779 C781 1.415 . S
C780 C779 1.355 . S
C780 C782 1.419 . S
C781 C776 1.425 . S
C781 C778 1.409 . S
C781 C779 1.415 . S
C782 H772 0.930 . S
C782 C780 1.419 . S
C782 C783 1.362 . S
C783 H773 0.930 . S
C783 C776 1.409 . S
C783 C782 1.362 . S
H784 C790 0.930 . S
H785 C793 0.930 . S
H786 C794 0.930 . S
H787 C795 0.930 . S
H788 C798 0.930 . S
H789 C799 0.930 . S
C790 H784 0.930 . S
C790 C791 1.355 . S
C790 C792 1.415 . S
C791 C790 1.355 . S
C791 C793 1.419 . S
C792 C790 1.415 . S
C792 C797 1.425 . S
C792 C799 1.409 . S
C793 H785 0.930 . S
C793 C791 1.419 . S
C793 C794 1.362 . S
C794 H786 0.930 . S
C794 C793 1.362 . S
C794 C797 1.409 . S
C795 H787 0.930 . S
C795 C796 1.355 . S
C795 C797 1.415 . S
C796 C795 1.355 . S
C796 C798 1.419 . S
C797 C792 1.425 . S
C797 C794 1.409 . S
C797 C795 1.415 . S
C798 H788 0.930 . S
C798 C796 1.419 . S
C798 C799 1.362 . S
C799 H789 0.930 . S
C799 C792 1.409 . S
C799 C798 1.362 . S
H800 C806 0.930 . S
H801 C809 0.930 . S
H802 C810 0.930 . S
H803 C811 0.930 . S
H804 C814 0.930 . S
H805 C815 0.930 . S
C806 H800 0.930 . S
C806 C807 1.355 . S
C806 C808 1.415 . S
C807 C806 1.355 . S
C807 C809 1.419 . S
C808 C806 1.415 . S
C808 C813 1.425 . S
C808 C815 1.409 1_565 S
C809 H801 0.930 . S
C809 C807 1.419 . S
C809 C810 1.362 . S
C810 H802 0.930 . S
C810 C809 1.362 . S
C810 C813 1.409 . S
C811 H803 0.930 . S
C811 C812 1.355 . S
C811 C813 1.415 . S
C812 C811 1.355 . S
C812 C814 1.419 1_565 S
C813 C808 1.425 . S
C813 C810 1.409 . S
C813 C811 1.415 . S
C814 H804 0.930 . S
C814 C812 1.419 1_545 S
C814 C815 1.362 . S
C815 H805 0.930 . S
C815 C808 1.409 1_545 S
C815 C814 1.362 . S
H816 C822 0.930 . S
H817 C825 0.924 1_545 S
H818 C826 0.930 . S
H819 C827 0.930 . S
H820 C830 0.930 . S
H821 C831 0.930 . S
C822 H816 0.930 . S
C822 C823 1.355 . S
C822 C824 1.415 . S
C823 C822 1.355 . S
C823 C825 1.419 . S
C824 C822 1.415 . S
C824 C829 1.425 . S
C824 C831 1.409 . S
C825 H817 0.924 1_565 S
C825 C823 1.419 . S
C825 C826 1.362 . S
C826 H818 0.930 . S
C826 C825 1.362 . S
C826 C829 1.409 . S
C827 H819 0.930 . S
C827 C828 1.355 . S
C827 C829 1.415 . S
C828 C827 1.355 . S
C828 C830 1.419 . S
C829 C824 1.425 . S
C829 C826 1.409 . S
C829 C827 1.415 . S
C830 H820 0.930 . S
C830 C828 1.419 . S
C830 C831 1.362 . S
C831 H821 0.930 . S
C831 C824 1.409 . S
C831 C830 1.362 . S
H832 C838 0.930 . S
H833 C841 0.930 . S
H834 C842 0.930 . S
H835 C843 0.930 . S
H836 C846 0.930 . S
H837 C847 0.930 . S
C838 H832 0.930 . S
C838 C839 1.355 . S
C838 C840 1.415 . S
C839 C838 1.355 . S
C839 C841 1.419 . S
C840 C838 1.415 . S
C840 C845 1.425 . S
C840 C847 1.409 . S
C841 H833 0.930 . S
C841 C839 1.419 . S
C841 C842 1.362 . S
C842 H834 0.930 . S
C842 C841 1.362 . S
C842 C845 1.409 . S
C843 H835 0.930 . S
C843 C844 1.355 . S
C843 C845 1.415 . S
C844 C843 1.355 . S
C844 C846 1.419 . S
C845 C840 1.425 . S
C845 C842 1.409 . S
C845 C843 1.415 . S
C846 H836 0.930 . S
C846 C844 1.419 . S
C846 C847 1.362 . S
C847 H837 0.930 . S
C847 C840 1.409 . S
C847 C846 1.362 . S
H848 C854 0.930 . S
H849 C857 0.930 . S
H850 C858 0.930 . S
H851 C859 0.930 . S
H852 C862 0.930 . S
H853 C863 0.930 . S
C854 H848 0.930 . S
C854 C855 1.355 . S
C854 C856 1.415 . S
C855 C854 1.355 . S
C855 C857 1.419 . S
C856 C854 1.415 . S
C856 C861 1.425 . S
C856 C863 1.409 . S
C857 H849 0.930 . S
C857 C855 1.419 . S
C857 C858 1.362 . S
C858 H850 0.930 . S
C858 C857 1.362 . S
C858 C861 1.409 . S
C859 H851 0.930 . S
C859 C860 1.355 . S
C859 C861 1.415 . S
C860 C859 1.355 . S
C860 C862 1.419 . S
C861 C856 1.425 . S
C861 C858 1.409 . S
C861 C859 1.415 . S
C862 H852 0.930 . S
C862 C860 1.419 . S
C862 C863 1.362 . S
C863 H853 0.930 . S
C863 C856 1.409 . S
C863 C862 1.362 . S
H864 C870 0.930 . S
H865 C873 0.930 . S
H866 C874 0.930 . S
H867 C875 0.930 . S
H868 C878 0.930 . S
H869 C879 0.930 . S
C870 H864 0.930 . S
C870 C871 1.355 . S
C870 C872 1.415 . S
C871 C870 1.355 . S
C871 C873 1.419 . S
C872 C870 1.415 . S
C872 C877 1.425 . S
C872 C879 1.409 1_655 S
C873 H865 0.930 . S
C873 C871 1.419 . S
C873 C874 1.362 . S
C874 H866 0.930 . S
C874 C873 1.362 . S
C874 C877 1.409 . S
C875 H867 0.930 . S
C875 C876 1.355 . S
C875 C877 1.415 . S
C876 C875 1.355 . S
C876 C878 1.419 1_655 S
C877 C872 1.425 . S
C877 C874 1.409 . S
C877 C875 1.415 . S
C878 H868 0.930 . S
C878 C876 1.419 1_455 S
C878 C879 1.362 . S
C879 H869 0.930 . S
C879 C872 1.409 1_455 S
C879 C878 1.362 . S
H880 C886 0.930 . S
H881 C889 0.930 . S
H882 C890 0.930 . S
H883 C891 0.930 . S
H884 C894 0.930 . S
H885 C895 0.930 . S
C886 H880 0.930 . S
C886 C887 1.355 . S
C886 C888 1.415 . S
C887 C886 1.355 . S
C887 C889 1.419 . S
C888 C886 1.415 . S
C888 C893 1.425 . S
C888 C895 1.409 . S
C889 H881 0.930 . S
C889 C887 1.419 . S
C889 C890 1.362 . S
C890 H882 0.930 . S
C890 C889 1.362 . S
C890 C893 1.409 . S
C891 H883 0.930 . S
C891 C892 1.355 . S
C891 C893 1.415 . S
C892 C891 1.355 . S
C892 C894 1.419 . S
C893 C888 1.425 . S
C893 C890 1.409 . S
C893 C891 1.415 . S
C894 H884 0.930 . S
C894 C892 1.419 . S
C894 C895 1.362 . S
C895 H885 0.930 . S
C895 C888 1.409 . S
C895 C894 1.362 . S
H896 C902 0.930 . S
H897 C905 0.930 . S
H898 C906 0.930 . S
H899 C907 0.930 . S
H900 C910 0.930 . S
H901 C911 0.930 . S
C902 H896 0.930 . S
C902 C903 1.355 . S
C902 C904 1.415 . S
C903 C902 1.355 . S
C903 C905 1.419 . S
C904 C902 1.415 . S
C904 C909 1.425 . S
C904 C911 1.409 . S
C905 H897 0.930 . S
C905 C903 1.419 . S
C905 C906 1.362 . S
C906 H898 0.930 . S
C906 C905 1.362 . S
C906 C909 1.409 . S
C907 H899 0.930 . S
C907 C908 1.355 . S
C907 C909 1.415 . S
C908 C907 1.355 . S
C908 C910 1.419 . S
C909 C904 1.425 . S
C909 C906 1.409 . S
C909 C907 1.415 . S
C910 H900 0.930 . S
C910 C908 1.419 . S
C910 C911 1.362 . S
C911 H901 0.930 . S
C911 C904 1.409 . S
C911 C910 1.362 . S
H912 C918 0.930 . S
H913 C921 0.930 . S
H914 C922 0.930 . S
H915 C923 0.930 . S
H916 C926 0.930 . S
H917 C927 0.930 . S
C918 H912 0.930 . S
C918 C919 1.355 . S
C918 C920 1.415 . S
C919 C918 1.355 . S
C919 C921 1.419 . S
C920 C918 1.415 . S
C920 C925 1.425 . S
C920 C927 1.409 . S
C921 H913 0.930 . S
C921 C919 1.419 . S
C921 C922 1.362 . S
C922 H914 0.930 . S
C922 C921 1.362 . S
C922 C925 1.409 . S
C923 H915 0.930 . S
C923 C924 1.355 . S
C923 C925 1.415 . S
C924 C923 1.355 . S
C924 C926 1.419 . S
C925 C920 1.425 . S
C925 C922 1.409 . S
C925 C923 1.415 . S
C926 H916 0.930 . S
C926 C924 1.419 . S
C926 C927 1.362 . S
C927 H917 0.930 . S
C927 C920 1.409 . S
C927 C926 1.362 . S
H928 C934 0.930 . S
H929 C937 0.930 . S
H930 C938 0.930 . S
H931 C939 0.930 . S
H932 C942 0.930 . S
H933 C943 0.930 . S
C934 H928 0.930 . S
C934 C935 1.355 . S
C934 C936 1.415 1_565 S
C935 C934 1.355 . S
C935 C937 1.419 . S
C936 C934 1.415 1_545 S
C936 C941 1.425 . S
C936 C943 1.409 . S
C937 H929 0.930 . S
C937 C935 1.419 . S
C937 C938 1.362 1_565 S
C938 H930 0.930 . S
C938 C937 1.362 1_545 S
C938 C941 1.409 . S
C939 H931 0.930 . S
C939 C940 1.355 . S
C939 C941 1.415 . S
C940 C939 1.355 . S
C940 C942 1.419 . S
C941 C936 1.425 . S
C941 C938 1.409 . S
C941 C939 1.415 . S
C942 H932 0.930 . S
C942 C940 1.419 . S
C942 C943 1.362 . S
C943 H933 0.930 . S
C943 C936 1.409 . S
C943 C942 1.362 . S
H944 C950 0.940 . S
H945 C953 0.930 . S
H946 C954 0.930 . S
H947 C955 0.930 . S
H948 C958 0.930 . S
H949 C959 0.930 . S
C950 H944 0.940 . S
C950 C951 1.335 1_455 S
C950 C952 1.424 . S
C951 C950 1.335 1_655 S
C951 C953 1.419 . S
C952 C950 1.424 . S
C952 C957 1.425 . S
C952 C959 1.409 . S
C953 H945 0.930 . S
C953 C951 1.419 . S
C953 C954 1.362 . S
C954 H946 0.930 . S
C954 C953 1.362 . S
C954 C957 1.409 1_655 S
C955 H947 0.930 . S
C955 C956 1.355 . S
C955 C957 1.415 . S
C956 C955 1.355 . S
C956 C958 1.419 . S
C957 C952 1.425 . S
C957 C954 1.409 1_455 S
C957 C955 1.415 . S
C958 H948 0.930 . S
C958 C956 1.419 . S
C958 C959 1.362 . S
C959 H949 0.930 . S
C959 C952 1.409 . S
C959 C958 1.362 . S
H960 C966 0.930 . S
H961 C969 0.930 . S
H962 C970 0.930 . S
H963 C971 0.930 . S
H964 C974 0.930 . S
H965 C975 0.930 . S
C966 H960 0.930 . S
C966 C967 1.355 . S
C966 C968 1.415 . S
C967 C966 1.355 . S
C967 C969 1.419 . S
C968 C966 1.415 . S
C968 C973 1.425 . S
C968 C975 1.409 . S
C969 H961 0.930 . S
C969 C967 1.419 . S
C969 C970 1.362 . S
C970 H962 0.930 . S
C970 C969 1.362 . S
C970 C973 1.409 . S
C971 H963 0.930 . S
C971 C972 1.355 . S
C971 C973 1.415 . S
C972 C971 1.355 . S
C972 C974 1.419 . S
C973 C968 1.425 . S
C973 C970 1.409 . S
C973 C971 1.415 . S
C974 H964 0.930 . S
C974 C972 1.419 . S
C974 C975 1.362 . S
C975 H965 0.930 . S
C975 C968 1.409 . S
C975 C974 1.362 . S
H976 C982 0.930 . S
H977 C985 0.930 . S
H978 C986 0.930 . S
H979 C987 0.930 . S
H980 C990 0.930 . S
H981 C991 0.930 . S
C982 H976 0.930 . S
C982 C983 1.355 1_545 S
C982 C984 1.415 . S
C983 C982 1.355 1_565 S
C983 C985 1.419 . S
C984 C982 1.415 . S
C984 C989 1.425 . S
C984 C991 1.409 . S
C985 H977 0.930 . S
C985 C983 1.419 . S
C985 C986 1.362 . S
C986 H978 0.930 . S
C986 C985 1.362 . S
C986 C989 1.409 1_565 S
C987 H979 0.930 . S
C987 C988 1.355 . S
C987 C989 1.415 . S
C988 C987 1.355 . S
C988 C990 1.419 . S
C989 C984 1.425 . S
C989 C986 1.409 1_545 S
C989 C987 1.415 . S
C990 H980 0.930 . S
C990 C988 1.419 . S
C990 C991 1.362 . S
C991 H981 0.930 . S
C991 C984 1.409 . S
C991 C990 1.362 . S
H992 C998 0.930 . S
H993 C1001 0.930 . S
H994 C1002 0.930 . S
H995 C1003 0.930 . S
H996 C1006 0.930 . S
H997 C1007 0.930 . S
C998 H992 0.930 . S
C998 C999 1.355 1_455 S
C998 C1000 1.415 . S
C999 C998 1.355 1_655 S
C999 C1001 1.419 . S
C1000 C998 1.415 . S
C1000 C1005 1.425 . S
C1000 C1007 1.409 . S
C1001 H993 0.930 . S
C1001 C999 1.419 . S
C1001 C1002 1.362 . S
C1002 H994 0.930 . S
C1002 C1001 1.362 . S
C1002 C1005 1.409 1_655 S
C1003 H995 0.930 . S
C1003 C1004 1.355 . S
C1003 C1005 1.415 . S
C1004 C1003 1.355 . S
C1004 C1006 1.419 . S
C1005 C1000 1.425 . S
C1005 C1002 1.409 1_455 S
C1005 C1003 1.415 . S
C1006 H996 0.930 . S
C1006 C1004 1.419 . S
C1006 C1007 1.362 . S
C1007 H997 0.930 . S
C1007 C1000 1.409 . S
C1007 C1006 1.362 . S
H1008 C1014 0.930 . S
H1009 C1017 0.930 . S
H1010 C1018 0.930 . S
H1011 C1019 0.930 . S
H1012 C1022 0.930 . S
H1013 C1023 0.930 . S
C1014 H1008 0.930 . S
C1014 C1015 1.355 1_565 S
C1014 C1016 1.415 1_565 S
C1015 C1014 1.355 1_545 S
C1015 C1017 1.419 . S
C1016 C1014 1.415 1_545 S
C1016 C1021 1.403 1_554 S
C1016 C1023 1.409 1_544 S
C1017 H1009 0.930 . S
C1017 C1015 1.419 . S
C1017 C1018 1.362 . S
C1018 H1010 0.930 . S
C1018 C1017 1.362 . S
C1018 C1021 1.326 1_554 S
C1019 H1011 0.930 . S
C1019 C1020 1.355 . S
C1019 C1021 1.526 . S
C1020 C1019 1.355 . S
C1020 C1022 1.419 1_545 S
C1021 C1016 1.403 1_556 S
C1021 C1018 1.326 1_556 S
C1021 C1019 1.526 . S
C1022 H1012 0.930 . S
C1022 C1020 1.419 1_565 S
C1022 C1023 1.362 . S
C1023 H1013 0.930 . S
C1023 C1016 1.409 1_566 S
C1023 C1022 1.362 . S
H1024 C1030 0.930 . S
H1025 C1033 0.930 . S
H1026 C1034 0.951 . S
H1027 C1035 0.930 1_655 S
H1028 C1038 0.930 . S
H1029 C1039 0.983 . S
C1030 H1024 0.930 . S
C1030 C1031 1.355 . S
C1030 C1032 1.415 . S
C1031 C1030 1.355 . S
C1031 C1033 1.419 1_455 S
C1032 C1030 1.415 . S
C1032 C1037 1.425 1_556 S
C1032 C1039 1.409 1_556 S
C1033 H1025 0.930 . S
C1033 C1031 1.419 1_655 S
C1033 C1034 1.362 . S
C1034 H1026 0.951 . S
C1034 C1033 1.362 . S
C1034 C1037 1.409 1_656 S
C1035 H1027 0.930 1_455 S
C1035 C1036 1.355 . S
C1035 C1037 1.415 . S
C1036 C1035 1.355 . S
C1036 C1038 1.419 . S
C1037 C1032 1.425 1_554 S
C1037 C1034 1.409 1_454 S
C1037 C1035 1.415 . S
C1038 H1028 0.930 . S
C1038 C1036 1.419 . S
C1038 C1039 1.362 . S
C1039 H1029 0.983 . S
C1039 C1032 1.409 1_554 S
C1039 C1038 1.362 . S
H1040 C1046 0.930 . S
H1041 C1049 0.930 . S
H1042 C1050 0.930 . S
H1043 C1051 0.930 . S
H1044 C1054 0.930 . S
H1045 C1055 0.930 . S
C1046 H1040 0.930 . S
C1046 C1047 1.355 . S
C1046 C1048 1.415 . S
C1047 C1046 1.355 . S
C1047 C1049 1.419 . S
C1048 C1046 1.415 . S
C1048 C1053 1.425 1_554 S
C1048 C1055 1.409 1_554 S
C1049 H1041 0.930 . S
C1049 C1047 1.419 . S
C1049 C1050 1.362 . S
C1050 H1042 0.930 . S
C1050 C1049 1.362 . S
C1050 C1053 1.409 1_554 S
C1051 H1043 0.930 . S
C1051 C1052 1.355 . S
C1051 C1053 1.415 . S
C1052 C1051 1.355 . S
C1052 C1054 1.419 . S
C1053 C1048 1.425 1_556 S
C1053 C1050 1.409 1_556 S
C1053 C1051 1.415 . S
C1054 H1044 0.930 . S
C1054 C1052 1.419 . S
C1054 C1055 1.362 . S
C1055 H1045 0.930 . S
C1055 C1048 1.409 1_556 S
C1055 C1054 1.362 . S
H1056 C1062 0.930 1_655 S
H1057 C1065 0.930 . S
H1058 C1066 0.930 . S
H1059 C1067 0.930 . S
H1060 C1070 0.930 . S
H1061 C1071 0.930 . S
C1062 H1056 0.930 1_455 S
C1062 C1063 1.355 . S
C1062 C1064 1.415 . S
C1063 C1062 1.355 . S
C1063 C1065 1.419 . S
C1064 C1062 1.415 . S
C1064 C1069 1.425 . S
C1064 C1071 1.409 1_455 S
C1065 H1057 0.930 . S
C1065 C1063 1.419 . S
C1065 C1066 1.362 . S
C1066 H1058 0.930 . S
C1066 C1065 1.362 . S
C1066 C1069 1.409 . S
C1067 H1059 0.930 . S
C1067 C1068 1.355 . S
C1067 C1069 1.415 . S
C1068 C1067 1.355 . S
C1068 C1070 1.419 1_455 S
C1069 C1064 1.425 . S
C1069 C1066 1.409 . S
C1069 C1067 1.415 . S
C1070 H1060 0.930 . S
C1070 C1068 1.419 1_655 S
C1070 C1071 1.362 . S
C1071 H1061 0.930 . S
C1071 C1064 1.409 1_655 S
C1071 C1070 1.362 . S
H1072 C1078 0.930 . S
H1073 C1081 0.930 . S
H1074 C1082 0.930 . S
H1075 C1083 0.930 . S
H1076 C1086 0.930 . S
H1077 C1087 0.930 . S
C1078 H1072 0.930 . S
C1078 C1079 1.355 . S
C1078 C1080 1.415 . S
C1079 C1078 1.355 . S
C1079 C1081 1.419 . S
C1080 C1078 1.415 . S
C1080 C1085 1.425 . S
C1080 C1087 1.409 . S
C1081 H1073 0.930 . S
C1081 C1079 1.419 . S
C1081 C1082 1.362 . S
C1082 H1074 0.930 . S
C1082 C1081 1.362 . S
C1082 C1085 1.409 . S
C1083 H1075 0.930 . S
C1083 C1084 1.355 . S
C1083 C1085 1.415 . S
C1084 C1083 1.355 . S
C1084 C1086 1.419 . S
C1085 C1080 1.425 . S
C1085 C1082 1.409 . S
C1085 C1083 1.415 . S
C1086 H1076 0.930 . S
C1086 C1084 1.419 . S
C1086 C1087 1.362 . S
C1087 H1077 0.930 . S
C1087 C1080 1.409 . S
C1087 C1086 1.362 . S
H1088 C1094 0.930 . S
H1089 C1097 0.930 1_565 S
H1090 C1098 0.930 1_565 S
H1091 C1099 0.930 . S
H1092 C1102 0.930 . S
H1093 C1103 0.930 . S
C1094 H1088 0.930 . S
C1094 C1095 1.355 . S
C1094 C1096 1.415 . S
C1095 C1094 1.355 . S
C1095 C1097 1.419 . S
C1096 C1094 1.415 . S
C1096 C1101 1.425 . S
C1096 C1103 1.409 . S
C1097 H1089 0.930 1_545 S
C1097 C1095 1.419 . S
C1097 C1098 1.362 . S
C1098 H1090 0.930 1_545 S
C1098 C1097 1.362 . S
C1098 C1101 1.409 . S
C1099 H1091 0.930 . S
C1099 C1100 1.355 . S
C1099 C1101 1.415 . S
C1100 C1099 1.355 . S
C1100 C1102 1.419 . S
C1101 C1096 1.425 . S
C1101 C1098 1.409 . S
C1101 C1099 1.415 . S
C1102 H1092 0.930 . S
C1102 C1100 1.419 . S
C1102 C1103 1.362 . S
C1103 H1093 0.930 . S
C1103 C1096 1.409 . S
C1103 C1102 1.362 . S
H1104 C1110 0.930 . S
H1105 C1113 0.930 . S
H1106 C1114 0.930 . S
H1107 C1115 0.930 . S
H1108 C1118 0.930 . S
H1109 C1119 0.930 . S
C1110 H1104 0.930 . S
C1110 C1111 1.355 . S
C1110 C1112 1.415 . S
C1111 C1110 1.355 . S
C1111 C1113 1.419 . S
C1112 C1110 1.415 . S
C1112 C1117 1.425 . S
C1112 C1119 1.409 . S
C1113 H1105 0.930 . S
C1113 C1111 1.419 . S
C1113 C1114 1.362 . S
C1114 H1106 0.930 . S
C1114 C1113 1.362 . S
C1114 C1117 1.409 . S
C1115 H1107 0.930 . S
C1115 C1116 1.355 . S
C1115 C1117 1.415 . S
C1116 C1115 1.355 . S
C1116 C1118 1.419 . S
C1117 C1112 1.425 . S
C1117 C1114 1.409 . S
C1117 C1115 1.415 . S
C1118 H1108 0.930 . S
C1118 C1116 1.419 . S
C1118 C1119 1.362 . S
C1119 H1109 0.930 . S
C1119 C1112 1.409 . S
C1119 C1118 1.362 . S
H1120 C1126 0.930 . S
H1121 C1129 0.930 . S
H1122 C1130 0.930 . S
H1123 C1131 0.930 . S
H1124 C1134 0.930 . S
H1125 C1135 0.930 . S
C1126 H1120 0.930 . S
C1126 C1127 1.355 . S
C1126 C1128 1.415 . S
C1127 C1126 1.355 . S
C1127 C1129 1.419 . S
C1128 C1126 1.415 . S
C1128 C1133 1.425 . S
C1128 C1135 1.409 . S
C1129 H1121 0.930 . S
C1129 C1127 1.419 . S
C1129 C1130 1.362 . S
C1130 H1122 0.930 . S
C1130 C1129 1.362 . S
C1130 C1133 1.409 . S
C1131 H1123 0.930 . S
C1131 C1132 1.355 . S
C1131 C1133 1.415 . S
C1132 C1131 1.355 . S
C1132 C1134 1.419 . S
C1133 C1128 1.425 . S
C1133 C1130 1.409 . S
C1133 C1131 1.415 . S
C1134 H1124 0.930 . S
C1134 C1132 1.419 . S
C1134 C1135 1.362 . S
C1135 H1125 0.930 . S
C1135 C1128 1.409 . S
C1135 C1134 1.362 . S
H1136 C1142 0.930 . S
H1137 C1145 0.930 . S
H1138 C1146 0.930 . S
H1139 C1147 0.930 . S
H1140 C1150 0.930 . S
H1141 C1151 0.930 . S
C1142 H1136 0.930 . S
C1142 C1143 1.355 . S
C1142 C1144 1.415 . S
C1143 C1142 1.355 . S
C1143 C1145 1.419 . S
C1144 C1142 1.415 . S
C1144 C1149 1.425 . S
C1144 C1151 1.409 . S
C1145 H1137 0.930 . S
C1145 C1143 1.419 . S
C1145 C1146 1.362 . S
C1146 H1138 0.930 . S
C1146 C1145 1.362 . S
C1146 C1149 1.409 . S
C1147 H1139 0.930 . S
C1147 C1148 1.355 . S
C1147 C1149 1.415 . S
C1148 C1147 1.355 . S
C1148 C1150 1.419 . S
C1149 C1144 1.425 . S
C1149 C1146 1.409 . S
C1149 C1147 1.415 . S
C1150 H1140 0.930 . S
C1150 C1148 1.419 . S
C1150 C1151 1.362 . S
C1151 H1141 0.930 . S
C1151 C1144 1.409 . S
C1151 C1150 1.362 . S
H1152 C1158 0.930 . S
H1153 C1161 0.930 . S
H1154 C1162 0.930 . S
H1155 C1163 0.930 . S
H1156 C1166 0.930 . S
H1157 C1167 0.930 . S
C1158 H1152 0.930 . S
C1158 C1159 1.355 . S
C1158 C1160 1.415 . S
C1159 C1158 1.355 . S
C1159 C1161 1.419 . S
C1160 C1158 1.415 . S
C1160 C1165 1.425 . S
C1160 C1167 1.409 . S
C1161 H1153 0.930 . S
C1161 C1159 1.419 . S
C1161 C1162 1.362 . S
C1162 H1154 0.930 . S
C1162 C1161 1.362 . S
C1162 C1165 1.409 . S
C1163 H1155 0.930 . S
C1163 C1164 1.355 . S
C1163 C1165 1.415 . S
C1164 C1163 1.355 . S
C1164 C1166 1.419 . S
C1165 C1160 1.425 . S
C1165 C1162 1.409 . S
C1165 C1163 1.415 . S
C1166 H1156 0.930 . S
C1166 C1164 1.419 . S
C1166 C1167 1.362 . S
C1167 H1157 0.930 . S
C1167 C1160 1.409 . S
C1167 C1166 1.362 . S
H1168 C1174 0.930 . S
H1169 C1177 0.930 . S
H1170 C1178 0.930 . S
H1171 C1179 0.930 . S
H1172 C1182 0.930 . S
H1173 C1183 0.930 . S
C1174 H1168 0.930 . S
C1174 C1175 1.355 . S
C1174 C1176 1.415 . S
C1175 C1174 1.355 . S
C1175 C1177 1.419 . S
C1176 C1174 1.415 . S
C1176 C1181 1.425 . S
C1176 C1183 1.409 . S
C1177 H1169 0.930 . S
C1177 C1175 1.419 . S
C1177 C1178 1.362 . S
C1178 H1170 0.930 . S
C1178 C1177 1.362 . S
C1178 C1181 1.409 . S
C1179 H1171 0.930 . S
C1179 C1180 1.355 . S
C1179 C1181 1.415 . S
C1180 C1179 1.355 . S
C1180 C1182 1.419 . S
C1181 C1176 1.425 . S
C1181 C1178 1.409 . S
C1181 C1179 1.415 . S
C1182 H1172 0.930 . S
C1182 C1180 1.419 . S
C1182 C1183 1.362 . S
C1183 H1173 0.930 . S
C1183 C1176 1.409 . S
C1183 C1182 1.362 . S
H1184 C1190 0.930 . S
H1185 C1193 0.930 . S
H1186 C1194 0.930 . S
H1187 C1195 0.930 . S
H1188 C1198 0.930 . S
H1189 C1199 0.930 . S
C1190 H1184 0.930 . S
C1190 C1191 1.355 . S
C1190 C1192 1.415 . S
C1191 C1190 1.355 . S
C1191 C1193 1.419 . S
C1192 C1190 1.415 . S
C1192 C1197 1.425 . S
C1192 C1199 1.409 . S
C1193 H1185 0.930 . S
C1193 C1191 1.419 . S
C1193 C1194 1.362 . S
C1194 H1186 0.930 . S
C1194 C1193 1.362 . S
C1194 C1197 1.409 . S
C1195 H1187 0.930 . S
C1195 C1196 1.355 . S
C1195 C1197 1.415 . S
C1196 C1195 1.355 . S
C1196 C1198 1.419 . S
C1197 C1192 1.425 . S
C1197 C1194 1.409 . S
C1197 C1195 1.415 . S
C1198 H1188 0.930 . S
C1198 C1196 1.419 . S
C1198 C1199 1.362 . S
C1199 H1189 0.930 . S
C1199 C1192 1.409 . S
C1199 C1198 1.362 . S
H1200 C1206 0.930 . S
H1201 C1209 0.930 . S
H1202 C1210 0.930 . S
H1203 C1211 0.930 . S
H1204 C1214 0.930 . S
H1205 C1215 0.930 . S
C1206 H1200 0.930 . S
C1206 C1207 1.355 . S
C1206 C1208 1.415 . S
C1207 C1206 1.355 . S
C1207 C1209 1.419 . S
C1208 C1206 1.415 . S
C1208 C1213 1.425 . S
C1208 C1215 1.409 . S
C1209 H1201 0.930 . S
C1209 C1207 1.419 . S
C1209 C1210 1.362 . S
C1210 H1202 0.930 . S
C1210 C1209 1.362 . S
C1210 C1213 1.409 . S
C1211 H1203 0.930 . S
C1211 C1212 1.355 . S
C1211 C1213 1.415 . S
C1212 C1211 1.355 . S
C1212 C1214 1.419 . S
C1213 C1208 1.425 . S
C1213 C1210 1.409 . S
C1213 C1211 1.415 . S
C1214 H1204 0.930 . S
C1214 C1212 1.419 . S
C1214 C1215 1.362 . S
C1215 H1205 0.930 . S
C1215 C1208 1.409 . S
C1215 C1214 1.362 . S
H1216 C1222 0.930 . S
H1217 C1225 0.930 . S
H1218 C1226 0.930 . S
H1219 C1227 0.930 . S
H1220 C1230 0.930 . S
H1221 C1231 0.930 . S
C1222 H1216 0.930 . S
C1222 C1223 1.355 . S
C1222 C1224 1.415 . S
C1223 C1222 1.355 . S
C1223 C1225 1.419 . S
C1224 C1222 1.415 . S
C1224 C1229 1.425 . S
C1224 C1231 1.409 . S
C1225 H1217 0.930 . S
C1225 C1223 1.419 . S
C1225 C1226 1.362 . S
C1226 H1218 0.930 . S
C1226 C1225 1.362 . S
C1226 C1229 1.409 . S
C1227 H1219 0.930 . S
C1227 C1228 1.355 . S
C1227 C1229 1.415 . S
C1228 C1227 1.355 . S
C1228 C1230 1.419 . S
C1229 C1224 1.425 . S
C1229 C1226 1.409 . S
C1229 C1227 1.415 . S
C1230 H1220 0.930 . S
C1230 C1228 1.419 . S
C1230 C1231 1.362 . S
C1231 H1221 0.930 . S
C1231 C1224 1.409 . S
C1231 C1230 1.362 . S
H1232 C1238 0.930 . S
H1233 C1241 0.930 . S
H1234 C1242 0.930 . S
H1235 C1243 0.930 . S
H1236 C1246 0.930 . S
H1237 C1247 0.930 . S
C1238 H1232 0.930 . S
C1238 C1239 1.355 . S
C1238 C1240 1.415 . S
C1239 C1238 1.355 . S
C1239 C1241 1.419 . S
C1240 C1238 1.415 . S
C1240 C1245 1.425 . S
C1240 C1247 1.409 . S
C1241 H1233 0.930 . S
C1241 C1239 1.419 . S
C1241 C1242 1.362 . S
C1242 H1234 0.930 . S
C1242 C1241 1.362 . S
C1242 C1245 1.409 . S
C1243 H1235 0.930 . S
C1243 C1244 1.355 . S
C1243 C1245 1.415 . S
C1244 C1243 1.355 . S
C1244 C1246 1.419 . S
C1245 C1240 1.425 . S
C1245 C1242 1.409 . S
C1245 C1243 1.415 . S
C1246 H1236 0.930 . S
C1246 C1244 1.419 . S
C1246 C1247 1.362 . S
C1247 H1237 0.930 . S
C1247 C1240 1.409 . S
C1247 C1246 1.362 . S
H1248 C1254 0.930 . S
H1249 C1257 0.930 . S
H1250 C1258 0.930 . S
H1251 C1259 0.930 . S
H1252 C1262 0.930 . S
H1253 C1263 0.930 . S
C1254 H1248 0.930 . S
C1254 C1255 1.355 . S
C1254 C1256 1.415 . S
C1255 C1254 1.355 . S
C1255 C1257 1.419 . S
C1256 C1254 1.415 . S
C1256 C1261 1.425 . S
C1256 C1263 1.409 . S
C1257 H1249 0.930 . S
C1257 C1255 1.419 . S
C1257 C1258 1.362 . S
C1258 H1250 0.930 . S
C1258 C1257 1.362 . S
C1258 C1261 1.409 . S
C1259 H1251 0.930 . S
C1259 C1260 1.355 . S
C1259 C1261 1.415 . S
C1260 C1259 1.355 . S
C1260 C1262 1.419 . S
C1261 C1256 1.425 . S
C1261 C1258 1.409 . S
C1261 C1259 1.415 . S
C1262 H1252 0.930 . S
C1262 C1260 1.419 . S
C1262 C1263 1.362 . S
C1263 H1253 0.930 . S
C1263 C1256 1.409 . S
C1263 C1262 1.362 . S
H1264 C1270 0.930 . S
H1265 C1273 0.930 . S
H1266 C1274 0.930 . S
H1267 C1275 0.930 . S
H1268 C1278 0.930 . S
H1269 C1279 0.930 . S
C1270 H1264 0.930 . S
C1270 C1271 1.355 . S
C1270 C1272 1.415 . S
C1271 C1270 1.355 . S
C1271 C1273 1.419 . S
C1272 C1270 1.415 . S
C1272 C1277 1.425 . S
C1272 C1279 1.409 . S
C1273 H1265 0.930 . S
C1273 C1271 1.419 . S
C1273 C1274 1.362 . S
C1274 H1266 0.930 . S
C1274 C1273 1.362 . S
C1274 C1277 1.409 . S
C1275 H1267 0.930 . S
C1275 C1276 1.355 . S
C1275 C1277 1.415 . S
C1276 C1275 1.355 . S
C1276 C1278 1.419 . S
C1277 C1272 1.425 . S
C1277 C1274 1.409 . S
C1277 C1275 1.415 . S
C1278 H1268 0.930 . S
C1278 C1276 1.419 . S
C1278 C1279 1.362 . S
C1279 H1269 0.930 . S
C1279 C1272 1.409 . S
C1279 C1278 1.362 . S
H1280 C1286 0.930 . S
H1281 C1289 0.930 . S
H1282 C1290 0.930 . S
H1283 C1291 0.930 . S
H1284 C1294 0.930 . S
H1285 C1295 0.930 . S
C1286 H1280 0.930 . S
C1286 C1287 1.355 . S
C1286 C1288 1.415 . S
C1287 C1286 1.355 . S
C1287 C1289 1.419 . S
C1288 C1286 1.415 . S
C1288 C1293 1.425 . S
C1288 C1295 1.409 . S
C1289 H1281 0.930 . S
C1289 C1287 1.419 . S
C1289 C1290 1.362 . S
C1290 H1282 0.930 . S
C1290 C1289 1.362 . S
C1290 C1293 1.409 . S
C1291 H1283 0.930 . S
C1291 C1292 1.355 . S
C1291 C1293 1.415 . S
C1292 C1291 1.355 . S
C1292 C1294 1.419 . S
C1293 C1288 1.425 . S
C1293 C1290 1.409 . S
C1293 C1291 1.415 . S
C1294 H1284 0.930 . S
C1294 C1292 1.419 . S
C1294 C1295 1.362 . S
C1295 H1285 0.930 . S
C1295 C1288 1.409 . S
C1295 C1294 1.362 . S
H1296 C1302 0.930 . S
H1297 C1305 0.930 . S
H1298 C1306 0.930 . S
H1299 C1307 0.930 . S
H1300 C1310 0.930 . S
H1301 C1311 0.930 . S
C1302 H1296 0.930 . S
C1302 C1303 1.355 . S
C1302 C1304 1.415 . S
C1303 C1302 1.355 . S
C1303 C1305 1.419 . S
C1304 C1302 1.415 . S
C1304 C1309 1.425 . S
C1304 C1311 1.409 . S
C1305 H1297 0.930 . S
C1305 C1303 1.419 . S
C1305 C1306 1.362 . S
C1306 H1298 0.930 . S
C1306 C1305 1.362 . S
C1306 C1309 1.409 . S
C1307 H1299 0.930 . S
C1307 C1308 1.355 . S
C1307 C1309 1.415 . S
C1308 C1307 1.355 . S
C1308 C1310 1.419 . S
C1309 C1304 1.425 . S
C1309 C1306 1.409 . S
C1309 C1307 1.415 . S
C1310 H1300 0.930 . S
C1310 C1308 1.419 . S
C1310 C1311 1.362 . S
C1311 H1301 0.930 . S
C1311 C1304 1.409 . S
C1311 C1310 1.362 . S
H1312 C1318 0.930 . S
H1313 C1321 0.930 . S
H1314 C1322 0.930 . S
H1315 C1323 0.930 . S
H1316 C1326 0.930 . S
H1317 C1327 0.930 . S
C1318 H1312 0.930 . S
C1318 C1319 1.355 . S
C1318 C1320 1.415 . S
C1319 C1318 1.355 . S
C1319 C1321 1.419 . S
C1320 C1318 1.415 . S
C1320 C1325 1.425 . S
C1320 C1327 1.409 . S
C1321 H1313 0.930 . S
C1321 C1319 1.419 . S
C1321 C1322 1.362 . S
C1322 H1314 0.930 . S
C1322 C1321 1.362 . S
C1322 C1325 1.409 . S
C1323 H1315 0.930 . S
C1323 C1324 1.355 . S
C1323 C1325 1.415 . S
C1324 C1323 1.355 . S
C1324 C1326 1.419 . S
C1325 C1320 1.425 . S
C1325 C1322 1.409 . S
C1325 C1323 1.415 . S
C1326 H1316 0.930 . S
C1326 C1324 1.419 . S
C1326 C1327 1.362 . S
C1327 H1317 0.930 . S
C1327 C1320 1.409 . S
C1327 C1326 1.362 . S
H1328 C1334 0.930 . S
H1329 C1337 0.930 . S
H1330 C1338 0.930 . S
H1331 C1339 0.930 . S
H1332 C1342 0.930 . S
H1333 C1343 0.930 . S
C1334 H1328 0.930 . S
C1334 C1335 1.355 . S
C1334 C1336 1.415 . S
C1335 C1334 1.355 . S
C1335 C1337 1.419 . S
C1336 C1334 1.415 . S
C1336 C1341 1.425 . S
C1336 C1343 1.409 . S
C1337 H1329 0.930 . S
C1337 C1335 1.419 . S
C1337 C1338 1.362 . S
C1338 H1330 0.930 . S
C1338 C1337 1.362 . S
C1338 C1341 1.409 . S
C1339 H1331 0.930 . S
C1339 C1340 1.355 . S
C1339 C1341 1.415 . S
C1340 C1339 1.355 . S
C1340 C1342 1.419 . S
C1341 C1336 1.425 . S
C1341 C1338 1.409 . S
C1341 C1339 1.415 . S
C1342 H1332 0.930 . S
C1342 C1340 1.419 . S
C1342 C1343 1.362 . S
C1343 H1333 0.930 . S
C1343 C1336 1.409 . S
C1343 C1342 1.362 . S
H1344 C1350 0.930 . S
H1345 C1353 0.930 . S
H1346 C1354 0.930 . S
H1347 C1355 0.930 . S
H1348 C1358 0.930 . S
H1349 C1359 0.930 . S
C1350 H1344 0.930 . S
C1350 C1351 1.355 . S
C1350 C1352 1.415 . S
C1351 C1350 1.355 . S
C1351 C1353 1.419 . S
C1352 C1350 1.415 . S
C1352 C1357 1.425 . S
C1352 C1359 1.409 . S
C1353 H1345 0.930 . S
C1353 C1351 1.419 . S
C1353 C1354 1.362 . S
C1354 H1346 0.930 . S
C1354 C1353 1.362 . S
C1354 C1357 1.409 . S
C1355 H1347 0.930 . S
C1355 C1356 1.355 . S
C1355 C1357 1.415 . S
C1356 C1355 1.355 . S
C1356 C1358 1.419 . S
C1357 C1352 1.425 . S
C1357 C1354 1.409 . S
C1357 C1355 1.415 . S
C1358 H1348 0.930 . S
C1358 C1356 1.419 . S
C1358 C1359 1.362 . S
C1359 H1349 0.930 . S
C1359 C1352 1.409 . S
C1359 C1358 1.362 . S
H1360 C1366 0.930 . S
H1361 C1369 0.930 . S
H1362 C1370 0.930 . S
H1363 C1371 0.930 . S
H1364 C1374 0.930 . S
H1365 C1375 0.930 . S
C1366 H1360 0.930 . S
C1366 C1367 1.355 . S
C1366 C1368 1.415 . S
C1367 C1366 1.355 . S
C1367 C1369 1.419 . S
C1368 C1366 1.415 . S
C1368 C1373 1.425 . S
C1368 C1375 1.409 . S
C1369 H1361 0.930 . S
C1369 C1367 1.419 . S
C1369 C1370 1.362 . S
C1370 H1362 0.930 . S
C1370 C1369 1.362 . S
C1370 C1373 1.409 . S
C1371 H1363 0.930 . S
C1371 C1372 1.355 . S
C1371 C1373 1.415 . S
C1372 C1371 1.355 . S
C1372 C1374 1.419 . S
C1373 C1368 1.425 . S
C1373 C1370 1.409 . S
C1373 C1371 1.415 . S
C1374 H1364 0.930 . S
C1374 C1372 1.419 . S
C1374 C1375 1.362 . S
C1375 H1365 0.930 . S
C1375 C1368 1.409 . S
C1375 C1374 1.362 . S
H1376 C1382 0.930 . S
H1377 C1385 0.930 . S
H1378 C1386 0.930 . S
H1379 C1387 0.930 . S
H1380 C1390 0.930 . S
H1381 C1391 0.930 . S
C1382 H1376 0.930 . S
C1382 C1383 1.355 . S
C1382 C1384 1.415 . S
C1383 C1382 1.355 . S
C1383 C1385 1.419 . S
C1384 C1382 1.415 . S
C1384 C1389 1.425 . S
C1384 C1391 1.409 . S
C1385 H1377 0.930 . S
C1385 C1383 1.419 . S
C1385 C1386 1.362 . S
C1386 H1378 0.930 . S
C1386 C1385 1.362 . S
C1386 C1389 1.409 . S
C1387 H1379 0.930 . S
C1387 C1388 1.355 . S
C1387 C1389 1.415 . S
C1388 C1387 1.355 . S
C1388 C1390 1.419 . S
C1389 C1384 1.425 . S
C1389 C1386 1.409 . S
C1389 C1387 1.415 . S
C1390 H1380 0.930 . S
C1390 C1388 1.419 . S
C1390 C1391 1.362 . S
C1391 H1381 0.930 . S
C1391 C1384 1.409 . S
C1391 C1390 1.362 . S
H1392 C1398 0.930 . S
H1393 C1401 0.930 . S
H1394 C1402 0.930 . S
H1395 C1403 0.930 . S
H1396 C1406 0.930 . S
H1397 C1407 0.930 . S
C1398 H1392 0.930 . S
C1398 C1399 1.355 . S
C1398 C1400 1.415 . S
C1399 C1398 1.355 . S
C1399 C1401 1.419 . S
C1400 C1398 1.415 . S
C1400 C1405 1.425 . S
C1400 C1407 1.409 . S
C1401 H1393 0.930 . S
C1401 C1399 1.419 . S
C1401 C1402 1.362 . S
C1402 H1394 0.930 . S
C1402 C1401 1.362 . S
C1402 C1405 1.409 . S
C1403 H1395 0.930 . S
C1403 C1404 1.355 . S
C1403 C1405 1.415 . S
C1404 C1403 1.355 . S
C1404 C1406 1.419 . S
C1405 C1400 1.425 . S
C1405 C1402 1.409 . S
C1405 C1403 1.415 . S
C1406 H1396 0.930 . S
C1406 C1404 1.419 . S
C1406 C1407 1.362 . S
C1407 H1397 0.930 . S
C1407 C1400 1.409 . S
C1407 C1406 1.362 . S
H1408 C1414 0.930 . S
H1409 C1417 0.930 . S
H1410 C1418 0.930 . S
H1411 C1419 0.930 . S
H1412 C1422 0.930 . S
H1413 C1423 0.930 . S
C1414 H1408 0.930 . S
C1414 C1415 1.355 . S
C1414 C1416 1.415 . S
C1415 C1414 1.355 . S
C1415 C1417 1.419 . S
C1416 C1414 1.415 . S
C1416 C1421 1.425 . S
C1416 C1423 1.409 . S
C1417 H1409 0.930 . S
C1417 C1415 1.419 . S
C1417 C1418 1.362 . S
C1418 H1410 0.930 . S
C1418 C1417 1.362 . S
C1418 C1421 1.409 . S
C1419 H1411 0.930 . S
C1419 C1420 1.355 . S
C1419 C1421 1.415 . S
C1420 C1419 1.355 . S
C1420 C1422 1.419 . S
C1421 C1416 1.425 . S
C1421 C1418 1.409 . S
C1421 C1419 1.415 . S
C1422 H1412 0.930 . S
C1422 C1420 1.419 . S
C1422 C1423 1.362 . S
C1423 H1413 0.930 . S
C1423 C1416 1.409 . S
C1423 C1422 1.362 . S
H1424 C1430 0.930 . S
H1425 C1433 0.930 . S
H1426 C1434 0.930 . S
H1427 C1435 0.930 . S
H1428 C1438 0.930 . S
H1429 C1439 0.930 . S
C1430 H1424 0.930 . S
C1430 C1431 1.355 . S
C1430 C1432 1.415 . S
C1431 C1430 1.355 . S
C1431 C1433 1.419 . S
C1432 C1430 1.415 . S
C1432 C1437 1.425 . S
C1432 C1439 1.409 . S
C1433 H1425 0.930 . S
C1433 C1431 1.419 . S
C1433 C1434 1.362 . S
C1434 H1426 0.930 . S
C1434 C1433 1.362 . S
C1434 C1437 1.409 . S
C1435 H1427 0.930 . S
C1435 C1436 1.355 . S
C1435 C1437 1.415 . S
C1436 C1435 1.355 . S
C1436 C1438 1.419 . S
C1437 C1432 1.425 . S
C1437 C1434 1.409 . S
C1437 C1435 1.415 . S
C1438 H1428 0.930 . S
C1438 C1436 1.419 . S
C1438 C1439 1.362 . S
C1439 H1429 0.930 . S
C1439 C1432 1.409 . S
C1439 C1438 1.362 . S
H1440 C1446 0.930 . S
H1441 C1449 0.930 . S
H1442 C1450 0.930 . S
H1443 C1451 0.930 . S
H1444 C1454 0.930 . S
H1445 C1455 0.930 . S
C1446 H1440 0.930 . S
C1446 C1447 1.355 . S
C1446 C1448 1.415 . S
C1447 C1446 1.355 . S
C1447 C1449 1.419 . S
C1448 C1446 1.415 . S
C1448 C1453 1.425 . S
C1448 C1455 1.409 . S
C1449 H1441 0.930 . S
C1449 C1447 1.419 . S
C1449 C1450 1.362 . S
C1450 H1442 0.930 . S
C1450 C1449 1.362 . S
C1450 C1453 1.409 . S
C1451 H1443 0.930 . S
C1451 C1452 1.355 . S
C1451 C1453 1.415 . S
C1452 C1451 1.355 . S
C1452 C1454 1.419 . S
C1453 C1448 1.425 . S
C1453 C1450 1.409 . S
C1453 C1451 1.415 . S
C1454 H1444 0.930 . S
C1454 C1452 1.419 . S
C1454 C1455 1.362 . S
C1455 H1445 0.930 . S
C1455 C1448 1.409 . S
C1455 C1454 1.362 . S
H1456 C1462 0.930 . S
H1457 C1465 0.930 . S
H1458 C1466 0.930 . S
H1459 C1467 0.930 . S
H1460 C1470 0.930 . S
H1461 C1471 0.930 . S
C1462 H1456 0.930 . S
C1462 C1463 1.355 . S
C1462 C1464 1.415 . S
C1463 C1462 1.355 . S
C1463 C1465 1.419 . S
C1464 C1462 1.415 . S
C1464 C1469 1.425 . S
C1464 C1471 1.409 . S
C1465 H1457 0.930 . S
C1465 C1463 1.419 . S
C1465 C1466 1.362 . S
C1466 H1458 0.930 . S
C1466 C1465 1.362 . S
C1466 C1469 1.409 . S
C1467 H1459 0.930 . S
C1467 C1468 1.355 . S
C1467 C1469 1.415 . S
C1468 C1467 1.355 . S
C1468 C1470 1.419 . S
C1469 C1464 1.425 . S
C1469 C1466 1.409 . S
C1469 C1467 1.415 . S
C1470 H1460 0.930 . S
C1470 C1468 1.419 . S
C1470 C1471 1.362 . S
C1471 H1461 0.930 . S
C1471 C1464 1.409 . S
C1471 C1470 1.362 . S
H1472 C1478 0.930 . S
H1473 C1481 0.930 . S
H1474 C1482 0.930 . S
H1475 C1483 0.930 . S
H1476 C1486 0.930 . S
H1477 C1487 0.930 . S
C1478 H1472 0.930 . S
C1478 C1479 1.355 . S
C1478 C1480 1.415 . S
C1479 C1478 1.355 . S
C1479 C1481 1.419 . S
C1480 C1478 1.415 . S
C1480 C1485 1.425 . S
C1480 C1487 1.409 . S
C1481 H1473 0.930 . S
C1481 C1479 1.419 . S
C1481 C1482 1.362 . S
C1482 H1474 0.930 . S
C1482 C1481 1.362 . S
C1482 C1485 1.409 . S
C1483 H1475 0.930 . S
C1483 C1484 1.355 . S
C1483 C1485 1.415 . S
C1484 C1483 1.355 . S
C1484 C1486 1.419 . S
C1485 C1480 1.425 . S
C1485 C1482 1.409 . S
C1485 C1483 1.415 . S
C1486 H1476 0.930 . S
C1486 C1484 1.419 . S
C1486 C1487 1.362 . S
C1487 H1477 0.930 . S
C1487 C1480 1.409 . S
C1487 C1486 1.362 . S
H1488 C1494 0.930 . S
H1489 C1497 0.930 . S
H1490 C1498 0.930 . S
H1491 C1499 0.930 . S
H1492 C1502 0.930 . S
H1493 C1503 0.930 . S
C1494 H1488 0.930 . S
C1494 C1495 1.355 . S
C1494 C1496 1.415 . S
C1495 C1494 1.355 . S
C1495 C1497 1.419 . S
C1496 C1494 1.415 . S
C1496 C1501 1.425 . S
C1496 C1503 1.409 . S
C1497 H1489 0.930 . S
C1497 C1495 1.419 . S
C1497 C1498 1.362 . S
C1498 H1490 0.930 . S
C1498 C1497 1.362 . S
C1498 C1501 1.409 . S
C1499 H1491 0.930 . S
C1499 C1500 1.355 . S
C1499 C1501 1.415 . S
C1500 C1499 1.355 . S
C1500 C1502 1.419 . S
C1501 C1496 1.425 . S
C1501 C1498 1.409 . S
C1501 C1499 1.415 . S
C1502 H1492 0.930 . S
C1502 C1500 1.419 . S
C1502 C1503 1.362 . S
C1503 H1493 0.930 . S
C1503 C1496 1.409 . S
C1503 C1502 1.362 . S
H1504 C1510 0.930 . S
H1505 C1513 0.930 . S
H1506 C1514 0.930 . S
H1507 C1515 0.930 . S
H1508 C1518 0.930 1_565 S
H1509 C1519 0.930 . S
C1510 H1504 0.930 . S
C1510 C1511 1.355 . S
C1510 C1512 1.415 . S
C1511 C1510 1.355 . S
C1511 C1513 1.419 . S
C1512 C1510 1.415 . S
C1512 C1517 1.425 . S
C1512 C1519 1.409 . S
C1513 H1505 0.930 . S
C1513 C1511 1.419 . S
C1513 C1514 1.362 . S
C1514 H1506 0.930 . S
C1514 C1513 1.362 . S
C1514 C1517 1.409 . S
C1515 H1507 0.930 . S
C1515 C1516 1.355 1_545 S
C1515 C1517 1.415 . S
C1516 C1515 1.355 1_565 S
C1516 C1518 1.419 1_565 S
C1517 C1512 1.425 . S
C1517 C1514 1.409 . S
C1517 C1515 1.415 . S
C1518 H1508 0.930 1_545 S
C1518 C1516 1.419 1_545 S
C1518 C1519 1.362 . S
C1519 H1509 0.930 . S
C1519 C1512 1.409 . S
C1519 C1518 1.362 . S
H1520 C1526 0.930 . S
H1521 C1529 0.930 . S
H1522 C1530 0.930 1_455 S
H1523 C1531 0.930 . S
H1524 C1534 0.930 . S
H1525 C1535 0.930 . S
C1526 H1520 0.930 . S
C1526 C1527 1.355 . S
C1526 C1528 1.415 . S
C1527 C1526 1.355 . S
C1527 C1529 1.419 . S
C1528 C1526 1.415 . S
C1528 C1533 1.425 1_655 S
C1528 C1535 1.409 . S
C1529 H1521 0.930 . S
C1529 C1527 1.419 . S
C1529 C1530 1.362 . S
C1530 H1522 0.930 1_655 S
C1530 C1529 1.362 . S
C1530 C1533 1.409 1_655 S
C1531 H1523 0.930 . S
C1531 C1532 1.355 . S
C1531 C1533 1.415 . S
C1532 C1531 1.355 . S
C1532 C1534 1.419 . S
C1533 C1528 1.425 1_455 S
C1533 C1530 1.409 1_455 S
C1533 C1531 1.415 . S
C1534 H1524 0.930 . S
C1534 C1532 1.419 . S
C1534 C1535 1.362 1_455 S
C1535 H1525 0.930 . S
C1535 C1528 1.409 . S
C1535 C1534 1.362 1_655 S
H1536 C1542 0.930 . S
H1537 C1545 0.930 . S
H1538 C1546 0.930 . S
H1539 C1547 0.930 . S
H1540 C1550 0.930 . S
H1541 C1551 0.930 . S
C1542 H1536 0.930 . S
C1542 C1543 1.355 . S
C1542 C1544 1.415 . S
C1543 C1542 1.355 . S
C1543 C1545 1.419 . S
C1544 C1542 1.415 . S
C1544 C1549 1.425 . S
C1544 C1551 1.409 . S
C1545 H1537 0.930 . S
C1545 C1543 1.419 . S
C1545 C1546 1.362 . S
C1546 H1538 0.930 . S
C1546 C1545 1.362 . S
C1546 C1549 1.409 . S
C1547 H1539 0.930 . S
C1547 C1548 1.355 . S
C1547 C1549 1.415 . S
C1548 C1547 1.355 . S
C1548 C1550 1.419 . S
C1549 C1544 1.425 . S
C1549 C1546 1.409 . S
C1549 C1547 1.415 . S
C1550 H1540 0.930 . S
C1550 C1548 1.419 . S
C1550 C1551 1.362 . S
C1551 H1541 0.930 . S
C1551 C1544 1.409 . S
C1551 C1550 1.362 . S
H1552 C1558 0.930 . S
H1553 C1561 0.930 . S
H1554 C1562 0.930 . S
H1555 C1563 0.930 . S
H1556 C1566 0.930 . S
H1557 C1567 0.930 . S
C1558 H1552 0.930 . S
C1558 C1559 1.355 . S
C1558 C1560 1.415 . S
C1559 C1558 1.355 . S
C1559 C1561 1.419 . S
C1560 C1558 1.415 . S
C1560 C1565 1.425 . S
C1560 C1567 1.409 . S
C1561 H1553 0.930 . S
C1561 C1559 1.419 . S
C1561 C1562 1.362 . S
C1562 H1554 0.930 . S
C1562 C1561 1.362 . S
C1562 C1565 1.409 . S
C1563 H1555 0.930 . S
C1563 C1564 1.355 . S
C1563 C1565 1.415 . S
C1564 C1563 1.355 . S
C1564 C1566 1.419 . S
C1565 C1560 1.425 . S
C1565 C1562 1.409 . S
C1565 C1563 1.415 . S
C1566 H1556 0.930 . S
C1566 C1564 1.419 . S
C1566 C1567 1.362 . S
C1567 H1557 0.930 . S
C1567 C1560 1.409 . S
C1567 C1566 1.362 . S
H1568 C1574 0.930 . S
H1569 C1577 0.930 . S
H1570 C1578 0.930 . S
H1571 C1579 0.930 . S
H1572 C1582 0.930 . S
H1573 C1583 0.930 . S
C1574 H1568 0.930 . S
C1574 C1575 1.355 . S
C1574 C1576 1.415 . S
C1575 C1574 1.355 . S
C1575 C1577 1.419 . S
C1576 C1574 1.415 . S
C1576 C1581 1.425 . S
C1576 C1583 1.409 . S
C1577 H1569 0.930 . S
C1577 C1575 1.419 . S
C1577 C1578 1.362 . S
C1578 H1570 0.930 . S
C1578 C1577 1.362 . S
C1578 C1581 1.409 . S
C1579 H1571 0.930 . S
C1579 C1580 1.355 . S
C1579 C1581 1.415 . S
C1580 C1579 1.355 . S
C1580 C1582 1.419 . S
C1581 C1576 1.425 . S
C1581 C1578 1.409 . S
C1581 C1579 1.415 . S
C1582 H1572 0.930 . S
C1582 C1580 1.419 . S
C1582 C1583 1.362 . S
C1583 H1573 0.930 . S
C1583 C1576 1.409 . S
C1583 C1582 1.362 . S
H1584 C1590 0.930 . S
H1585 C1593 0.930 . S
H1586 C1594 0.930 . S
H1587 C1595 0.930 . S
H1588 C1598 0.930 . S
H1589 C1599 0.930 . S
C1590 H1584 0.930 . S
C1590 C1591 1.355 . S
C1590 C1592 1.415 . S
C1591 C1590 1.355 . S
C1591 C1593 1.419 . S
C1592 C1590 1.415 . S
C1592 C1597 1.425 . S
C1592 C1599 1.409 . S
C1593 H1585 0.930 . S
C1593 C1591 1.419 . S
C1593 C1594 1.362 . S
C1594 H1586 0.930 . S
C1594 C1593 1.362 . S
C1594 C1597 1.409 . S
C1595 H1587 0.930 . S
C1595 C1596 1.355 . S
C1595 C1597 1.415 . S
C1596 C1595 1.355 . S
C1596 C1598 1.419 . S
C1597 C1592 1.425 . S
C1597 C1594 1.409 . S
C1597 C1595 1.415 . S
C1598 H1588 0.930 . S
C1598 C1596 1.419 . S
C1598 C1599 1.362 . S
C1599 H1589 0.930 . S
C1599 C1592 1.409 . S
C1599 C1598 1.362 . S
H1600 C1606 0.930 . S
H1601 C1609 0.930 . S
H1602 C1610 0.930 . S
H1603 C1611 0.930 . S
H1604 C1614 0.930 . S
H1605 C1615 0.930 . S
C1606 H1600 0.930 . S
C1606 C1607 1.355 . S
C1606 C1608 1.415 . S
C1607 C1606 1.355 . S
C1607 C1609 1.419 . S
C1608 C1606 1.415 . S
C1608 C1613 1.425 . S
C1608 C1615 1.409 . S
C1609 H1601 0.930 . S
C1609 C1607 1.419 . S
C1609 C1610 1.362 . S
C1610 H1602 0.930 . S
C1610 C1609 1.362 . S
C1610 C1613 1.409 . S
C1611 H1603 0.930 . S
C1611 C1612 1.355 . S
C1611 C1613 1.415 . S
C1612 C1611 1.355 . S
C1612 C1614 1.419 . S
C1613 C1608 1.425 . S
C1613 C1610 1.409 . S
C1613 C1611 1.415 . S
C1614 H1604 0.930 . S
C1614 C1612 1.419 . S
C1614 C1615 1.362 . S
C1615 H1605 0.930 . S
C1615 C1608 1.409 . S
C1615 C1614 1.362 . S
H1616 C1622 0.930 . S
H1617 C1625 0.930 . S
H1618 C1626 0.930 . S
H1619 C1627 0.930 . S
H1620 C1630 0.930 . S
H1621 C1631 0.930 . S
C1622 H1616 0.930 . S
C1622 C1623 1.355 . S
C1622 C1624 1.415 . S
C1623 C1622 1.355 . S
C1623 C1625 1.419 . S
C1624 C1622 1.415 . S
C1624 C1629 1.425 . S
C1624 C1631 1.409 . S
C1625 H1617 0.930 . S
C1625 C1623 1.419 . S
C1625 C1626 1.362 . S
C1626 H1618 0.930 . S
C1626 C1625 1.362 . S
C1626 C1629 1.409 . S
C1627 H1619 0.930 . S
C1627 C1628 1.355 . S
C1627 C1629 1.415 . S
C1628 C1627 1.355 . S
C1628 C1630 1.419 . S
C1629 C1624 1.425 . S
C1629 C1626 1.409 . S
C1629 C1627 1.415 . S
C1630 H1620 0.930 . S
C1630 C1628 1.419 . S
C1630 C1631 1.362 . S
C1631 H1621 0.930 . S
C1631 C1624 1.409 . S
C1631 C1630 1.362 . S
H1632 C1638 0.930 . S
H1633 C1641 0.930 . S
H1634 C1642 0.930 . S
H1635 C1643 0.930 . S
H1636 C1646 0.930 . S
H1637 C1647 0.930 . S
C1638 H1632 0.930 . S
C1638 C1639 1.355 . S
C1638 C1640 1.415 . S
C1639 C1638 1.355 . S
C1639 C1641 1.419 1_655 S
C1640 C1638 1.415 . S
C1640 C1645 1.425 . S
C1640 C1647 1.409 . S
C1641 H1633 0.930 . S
C1641 C1639 1.419 1_455 S
C1641 C1642 1.362 1_455 S
C1642 H1634 0.930 . S
C1642 C1641 1.362 1_655 S
C1642 C1645 1.409 . S
C1643 H1635 0.930 . S
C1643 C1644 1.355 . S
C1643 C1645 1.415 . S
C1644 C1643 1.355 . S
C1644 C1646 1.419 . S
C1645 C1640 1.425 . S
C1645 C1642 1.409 . S
C1645 C1643 1.415 . S
C1646 H1636 0.930 . S
C1646 C1644 1.419 . S
C1646 C1647 1.362 . S
C1647 H1637 0.930 . S
C1647 C1640 1.409 . S
C1647 C1646 1.362 . S
H1648 C1654 0.930 . S
H1649 C1657 0.930 . S
H1650 C1658 0.930 . S
H1651 C1659 0.930 . S
H1652 C1662 0.930 . S
H1653 C1663 0.930 . S
C1654 H1648 0.930 . S
C1654 C1655 1.355 . S
C1654 C1656 1.415 . S
C1655 C1654 1.355 . S
C1655 C1657 1.419 . S
C1656 C1654 1.415 . S
C1656 C1661 1.425 . S
C1656 C1663 1.409 . S
C1657 H1649 0.930 . S
C1657 C1655 1.419 . S
C1657 C1658 1.362 . S
C1658 H1650 0.930 . S
C1658 C1657 1.362 . S
C1658 C1661 1.409 . S
C1659 H1651 0.930 . S
C1659 C1660 1.355 1_545 S
C1659 C1661 1.415 . S
C1660 C1659 1.355 1_565 S
C1660 C1662 1.419 . S
C1661 C1656 1.425 . S
C1661 C1658 1.409 . S
C1661 C1659 1.415 . S
C1662 H1652 0.930 . S
C1662 C1660 1.419 . S
C1662 C1663 1.362 1_565 S
C1663 H1653 0.930 . S
C1663 C1656 1.409 . S
C1663 C1662 1.362 1_545 S
H1664 C1670 0.930 . S
H1665 C1673 0.930 . S
H1666 C1674 0.930 1_455 S
H1667 C1675 0.930 . S
H1668 C1678 0.930 . S
H1669 C1679 0.930 . S
C1670 H1664 0.930 . S
C1670 C1671 1.355 . S
C1670 C1672 1.415 . S
C1671 C1670 1.355 . S
C1671 C1673 1.419 . S
C1672 C1670 1.415 . S
C1672 C1677 1.425 1_655 S
C1672 C1679 1.409 . S
C1673 H1665 0.930 . S
C1673 C1671 1.419 . S
C1673 C1674 1.362 . S
C1674 H1666 0.930 1_655 S
C1674 C1673 1.362 . S
C1674 C1677 1.409 1_655 S
C1675 H1667 0.930 . S
C1675 C1676 1.355 . S
C1675 C1677 1.415 . S
C1676 C1675 1.355 . S
C1676 C1678 1.419 . S
C1677 C1672 1.425 1_455 S
C1677 C1674 1.409 1_455 S
C1677 C1675 1.415 . S
C1678 H1668 0.930 . S
C1678 C1676 1.419 . S
C1678 C1679 1.362 1_455 S
C1679 H1669 0.930 . S
C1679 C1672 1.409 . S
C1679 C1678 1.362 1_655 S
H1680 C1686 0.930 . S
H1681 C1689 0.930 . S
H1682 C1690 0.930 . S
H1683 C1691 0.930 . S
H1684 C1694 0.930 . S
H1685 C1695 0.930 . S
C1686 H1680 0.930 . S
C1686 C1687 1.355 . S
C1686 C1688 1.415 . S
C1687 C1686 1.355 . S
C1687 C1689 1.419 . S
C1688 C1686 1.415 . S
C1688 C1693 1.425 . S
C1688 C1695 1.409 . S
C1689 H1681 0.930 . S
C1689 C1687 1.419 . S
C1689 C1690 1.362 . S
C1690 H1682 0.930 . S
C1690 C1689 1.362 . S
C1690 C1693 1.409 . S
C1691 H1683 0.930 . S
C1691 C1692 1.355 . S
C1691 C1693 1.415 . S
C1692 C1691 1.355 . S
C1692 C1694 1.419 . S
C1693 C1688 1.425 . S
C1693 C1690 1.409 . S
C1693 C1691 1.415 . S
C1694 H1684 0.930 . S
C1694 C1692 1.419 . S
C1694 C1695 1.362 . S
C1695 H1685 0.930 . S
C1695 C1688 1.409 . S
C1695 C1694 1.362 . S
H1696 C1702 0.930 . S
H1697 C1705 0.930 . S
H1698 C1706 0.930 . S
H1699 C1707 0.930 . S
H1700 C1710 0.930 . S
H1701 C1711 0.930 . S
C1702 H1696 0.930 . S
C1702 C1703 1.355 . S
C1702 C1704 1.415 . S
C1703 C1702 1.355 . S
C1703 C1705 1.419 . S
C1704 C1702 1.415 . S
C1704 C1709 1.425 . S
C1704 C1711 1.409 . S
C1705 H1697 0.930 . S
C1705 C1703 1.419 . S
C1705 C1706 1.362 . S
C1706 H1698 0.930 . S
C1706 C1705 1.362 . S
C1706 C1709 1.409 . S
C1707 H1699 0.930 . S
C1707 C1708 1.355 . S
C1707 C1709 1.415 . S
C1708 C1707 1.355 . S
C1708 C1710 1.419 . S
C1709 C1704 1.425 . S
C1709 C1706 1.409 . S
C1709 C1707 1.415 . S
C1710 H1700 0.930 . S
C1710 C1708 1.419 . S
C1710 C1711 1.362 . S
C1711 H1701 0.930 . S
C1711 C1704 1.409 . S
C1711 C1710 1.362 . S
H1712 C1718 0.930 . S
H1713 C1721 0.930 . S
H1714 C1722 0.930 . S
H1715 C1723 0.930 . S
H1716 C1726 0.930 . S
H1717 C1727 0.930 . S
C1718 H1712 0.930 . S
C1718 C1719 1.355 . S
C1718 C1720 1.415 . S
C1719 C1718 1.355 . S
C1719 C1721 1.419 . S
C1720 C1718 1.415 . S
C1720 C1725 1.425 . S
C1720 C1727 1.409 . S
C1721 H1713 0.930 . S
C1721 C1719 1.419 . S
C1721 C1722 1.362 . S
C1722 H1714 0.930 . S
C1722 C1721 1.362 . S
C1722 C1725 1.409 . S
C1723 H1715 0.930 . S
C1723 C1724 1.355 . S
C1723 C1725 1.415 . S
C1724 C1723 1.355 . S
C1724 C1726 1.419 . S
C1725 C1720 1.425 . S
C1725 C1722 1.409 . S
C1725 C1723 1.415 . S
C1726 H1716 0.930 . S
C1726 C1724 1.419 . S
C1726 C1727 1.362 . S
C1727 H1717 0.930 . S
C1727 C1720 1.409 . S
C1727 C1726 1.362 . S
H1728 C1734 0.930 . S
H1729 C1737 0.930 . S
H1730 C1738 0.930 . S
H1731 C1739 0.930 . S
H1732 C1742 0.930 . S
H1733 C1743 0.930 . S
C1734 H1728 0.930 . S
C1734 C1735 1.355 . S
C1734 C1736 1.415 . S
C1735 C1734 1.355 . S
C1735 C1737 1.419 . S
C1736 C1734 1.415 . S
C1736 C1741 1.425 . S
C1736 C1743 1.409 . S
C1737 H1729 0.930 . S
C1737 C1735 1.419 . S
C1737 C1738 1.362 . S
C1738 H1730 0.930 . S
C1738 C1737 1.362 . S
C1738 C1741 1.409 . S
C1739 H1731 0.930 . S
C1739 C1740 1.355 . S
C1739 C1741 1.415 . S
C1740 C1739 1.355 . S
C1740 C1742 1.419 . S
C1741 C1736 1.425 . S
C1741 C1738 1.409 . S
C1741 C1739 1.415 . S
C1742 H1732 0.930 . S
C1742 C1740 1.419 . S
C1742 C1743 1.362 . S
C1743 H1733 0.930 . S
C1743 C1736 1.409 . S
C1743 C1742 1.362 . S
H1744 C1750 0.930 . S
H1745 C1753 0.930 . S
H1746 C1754 0.930 . S
H1747 C1755 0.930 . S
H1748 C1758 0.930 . S
H1749 C1759 0.930 . S
C1750 H1744 0.930 . S
C1750 C1751 1.355 . S
C1750 C1752 1.415 1_545 S
C1751 C1750 1.355 . S
C1751 C1753 1.419 . S
C1752 C1750 1.415 1_565 S
C1752 C1757 1.425 . S
C1752 C1759 1.409 . S
C1753 H1745 0.930 . S
C1753 C1751 1.419 . S
C1753 C1754 1.362 . S
C1754 H1746 0.930 . S
C1754 C1753 1.362 . S
C1754 C1757 1.409 1_545 S
C1755 H1747 0.930 . S
C1755 C1756 1.355 . S
C1755 C1757 1.415 . S
C1756 C1755 1.355 . S
C1756 C1758 1.419 . S
C1757 C1752 1.425 . S
C1757 C1754 1.409 1_565 S
C1757 C1755 1.415 . S
C1758 H1748 0.930 . S
C1758 C1756 1.419 . S
C1758 C1759 1.362 . S
C1759 H1749 0.930 . S
C1759 C1752 1.409 . S
C1759 C1758 1.362 . S
H1760 C1766 0.930 . S
H1761 C1769 0.930 . S
H1762 C1770 0.930 . S
H1763 C1771 0.930 1_655 S
H1764 C1774 0.930 . S
H1765 C1775 0.930 . S
C1766 H1760 0.930 . S
C1766 C1767 1.355 . S
C1766 C1768 1.415 . S
C1767 C1766 1.355 . S
C1767 C1769 1.419 1_565 S
C1768 C1766 1.415 . S
C1768 C1773 1.425 . S
C1768 C1775 1.409 . S
C1769 H1761 0.930 . S
C1769 C1767 1.419 1_545 S
C1769 C1770 1.362 1_545 S
C1770 H1762 0.930 . S
C1770 C1769 1.362 1_565 S
C1770 C1773 1.409 . S
C1771 H1763 0.930 1_455 S
C1771 C1772 1.355 1_455 S
C1771 C1773 1.415 . S
C1772 C1771 1.355 1_655 S
C1772 C1774 1.419 1_655 S
C1773 C1768 1.425 . S
C1773 C1770 1.409 . S
C1773 C1771 1.415 . S
C1774 H1764 0.930 . S
C1774 C1772 1.419 1_455 S
C1774 C1775 1.362 . S
C1775 H1765 0.930 . S
C1775 C1768 1.409 . S
C1775 C1774 1.362 . S
H1776 C1782 0.930 . S
H1777 C1785 0.930 . S
H1778 C1786 0.930 . S
H1779 C1787 0.930 1_545 S
H1780 C1790 0.930 . S
H1781 C1791 0.930 . S
C1782 H1776 0.930 . S
C1782 C1783 1.355 . S
C1782 C1784 1.415 . S
C1783 C1782 1.355 . S
C1783 C1785 1.419 . S
C1784 C1782 1.415 . S
C1784 C1789 1.425 . S
C1784 C1791 1.409 . S
C1785 H1777 0.930 . S
C1785 C1783 1.419 . S
C1785 C1786 1.362 . S
C1786 H1778 0.930 . S
C1786 C1785 1.362 . S
C1786 C1789 1.409 . S
C1787 H1779 0.930 1_565 S
C1787 C1788 1.355 . S
C1787 C1789 1.415 . S
C1788 C1787 1.355 . S
C1788 C1790 1.419 . S
C1789 C1784 1.425 . S
C1789 C1786 1.409 . S
C1789 C1787 1.415 . S
C1790 H1780 0.930 . S
C1790 C1788 1.419 . S
C1790 C1791 1.362 . S
C1791 H1781 0.930 . S
C1791 C1784 1.409 . S
C1791 C1790 1.362 . S
H1792 C1798 0.930 . S
H1793 C1801 0.930 . S
H1794 C1802 0.930 . S
H1795 C1803 0.930 . S
H1796 C1806 0.930 . S
H1797 C1807 0.930 1_545 S
C1798 H1792 0.930 . S
C1798 C1799 1.355 . S
C1798 C1800 1.415 . S
C1799 C1798 1.355 . S
C1799 C1801 1.419 . S
C1800 C1798 1.415 . S
C1800 C1805 1.425 1_545 S
C1800 C1807 1.409 1_545 S
C1801 H1793 0.930 . S
C1801 C1799 1.419 . S
C1801 C1802 1.362 1_545 S
C1802 H1794 0.930 . S
C1802 C1801 1.362 1_565 S
C1802 C1805 1.409 . S
C1803 H1795 0.930 . S
C1803 C1804 1.355 . S
C1803 C1805 1.415 . S
C1804 C1803 1.355 . S
C1804 C1806 1.419 . S
C1805 C1800 1.425 1_565 S
C1805 C1802 1.409 . S
C1805 C1803 1.415 . S
C1806 H1796 0.930 . S
C1806 C1804 1.419 . S
C1806 C1807 1.362 . S
C1807 H1797 0.930 1_565 S
C1807 C1800 1.409 1_565 S
C1807 C1806 1.362 . S
H1808 C1814 0.930 . S
H1809 C1817 0.930 . S
H1810 C1818 0.930 . S
H1811 C1819 0.930 . S
H1812 C1822 0.930 . S
H1813 C1823 0.930 . S
C1814 H1808 0.930 . S
C1814 C1815 1.355 . S
C1814 C1816 1.415 . S
C1815 C1814 1.355 . S
C1815 C1817 1.419 . S
C1816 C1814 1.415 . S
C1816 C1821 1.425 . S
C1816 C1823 1.409 . S
C1817 H1809 0.930 . S
C1817 C1815 1.419 . S
C1817 C1818 1.362 . S
C1818 H1810 0.930 . S
C1818 C1817 1.362 . S
C1818 C1821 1.409 . S
C1819 H1811 0.930 . S
C1819 C1820 1.355 1_455 S
C1819 C1821 1.415 . S
C1820 C1819 1.355 1_655 S
C1820 C1822 1.419 . S
C1821 C1816 1.425 . S
C1821 C1818 1.409 . S
C1821 C1819 1.415 . S
C1822 H1812 0.930 . S
C1822 C1820 1.419 . S
C1822 C1823 1.362 1_655 S
C1823 H1813 0.930 . S
C1823 C1816 1.409 . S
C1823 C1822 1.362 1_455 S
H1824 C1830 0.930 . S
H1825 C1833 0.930 . S
H1826 C1834 0.930 . S
H1827 C1835 0.930 . S
H1828 C1838 0.930 . S
H1829 C1839 0.930 . S
C1830 H1824 0.930 . S
C1830 C1831 1.355 . S
C1830 C1832 1.415 . S
C1831 C1830 1.355 . S
C1831 C1833 1.419 . S
C1832 C1830 1.415 . S
C1832 C1837 1.425 . S
C1832 C1839 1.409 . S
C1833 H1825 0.930 . S
C1833 C1831 1.419 . S
C1833 C1834 1.362 . S
C1834 H1826 0.930 . S
C1834 C1833 1.362 . S
C1834 C1837 1.409 . S
C1835 H1827 0.930 . S
C1835 C1836 1.355 . S
C1835 C1837 1.415 . S
C1836 C1835 1.355 . S
C1836 C1838 1.419 . S
C1837 C1832 1.425 . S
C1837 C1834 1.409 . S
C1837 C1835 1.415 . S
C1838 H1828 0.930 . S
C1838 C1836 1.419 . S
C1838 C1839 1.362 . S
C1839 H1829 0.930 . S
C1839 C1832 1.409 . S
C1839 C1838 1.362 . S
H1840 C1846 0.930 . S
H1841 C1849 0.930 . S
H1842 C1850 0.930 . S
H1843 C1851 0.930 . S
H1844 C1854 0.930 . S
H1845 C1855 0.930 . S
C1846 H1840 0.930 . S
C1846 C1847 1.355 . S
C1846 C1848 1.415 . S
C1847 C1846 1.355 . S
C1847 C1849 1.419 . S
C1848 C1846 1.415 . S
C1848 C1853 1.425 . S
C1848 C1855 1.409 . S
C1849 H1841 0.930 . S
C1849 C1847 1.419 . S
C1849 C1850 1.362 . S
C1850 H1842 0.930 . S
C1850 C1849 1.362 . S
C1850 C1853 1.409 . S
C1851 H1843 0.930 . S
C1851 C1852 1.355 . S
C1851 C1853 1.415 . S
C1852 C1851 1.355 . S
C1852 C1854 1.419 . S
C1853 C1848 1.425 . S
C1853 C1850 1.409 . S
C1853 C1851 1.415 . S
C1854 H1844 0.930 . S
C1854 C1852 1.419 . S
C1854 C1855 1.362 . S
C1855 H1845 0.930 . S
C1855 C1848 1.409 . S
C1855 C1854 1.362 . S
H1856 C1862 0.930 . S
H1857 C1865 0.930 . S
H1858 C1866 0.930 . S
H1859 C1867 0.930 . S
H1860 C1870 0.930 . S
H1861 C1871 0.930 . S
C1862 H1856 0.930 . S
C1862 C1863 1.355 . S
C1862 C1864 1.415 . S
C1863 C1862 1.355 . S
C1863 C1865 1.419 . S
C1864 C1862 1.415 . S
C1864 C1869 1.425 . S
C1864 C1871 1.409 . S
C1865 H1857 0.930 . S
C1865 C1863 1.419 . S
C1865 C1866 1.362 . S
C1866 H1858 0.930 . S
C1866 C1865 1.362 . S
C1866 C1869 1.409 . S
C1867 H1859 0.930 . S
C1867 C1868 1.355 . S
C1867 C1869 1.415 . S
C1868 C1867 1.355 . S
C1868 C1870 1.419 . S
C1869 C1864 1.425 . S
C1869 C1866 1.409 . S
C1869 C1867 1.415 . S
C1870 H1860 0.930 . S
C1870 C1868 1.419 . S
C1870 C1871 1.362 . S
C1871 H1861 0.930 . S
C1871 C1864 1.409 . S
C1871 C1870 1.362 . S
H1872 C1878 0.930 . S
H1873 C1881 0.930 . S
H1874 C1882 0.930 . S
H1875 C1883 0.930 . S
H1876 C1886 0.930 . S
H1877 C1887 0.930 . S
C1878 H1872 0.930 . S
C1878 C1879 1.355 . S
C1878 C1880 1.415 . S
C1879 C1878 1.355 . S
C1879 C1881 1.419 . S
C1880 C1878 1.415 . S
C1880 C1885 1.425 . S
C1880 C1887 1.409 . S
C1881 H1873 0.930 . S
C1881 C1879 1.419 . S
C1881 C1882 1.362 . S
C1882 H1874 0.930 . S
C1882 C1881 1.362 . S
C1882 C1885 1.409 . S
C1883 H1875 0.930 . S
C1883 C1884 1.355 . S
C1883 C1885 1.415 . S
C1884 C1883 1.355 . S
C1884 C1886 1.419 . S
C1885 C1880 1.425 . S
C1885 C1882 1.409 . S
C1885 C1883 1.415 . S
C1886 H1876 0.930 . S
C1886 C1884 1.419 . S
C1886 C1887 1.362 . S
C1887 H1877 0.930 . S
C1887 C1880 1.409 . S
C1887 C1886 1.362 . S
H1888 C1894 0.930 . S
H1889 C1897 0.930 . S
H1890 C1898 0.930 . S
H1891 C1899 0.930 . S
H1892 C1902 0.930 . S
H1893 C1903 0.930 . S
C1894 H1888 0.930 . S
C1894 C1895 1.355 . S
C1894 C1896 1.415 . S
C1895 C1894 1.355 . S
C1895 C1897 1.419 . S
C1896 C1894 1.415 . S
C1896 C1901 1.425 . S
C1896 C1903 1.409 . S
C1897 H1889 0.930 . S
C1897 C1895 1.419 . S
C1897 C1898 1.362 . S
C1898 H1890 0.930 . S
C1898 C1897 1.362 . S
C1898 C1901 1.409 . S
C1899 H1891 0.930 . S
C1899 C1900 1.355 . S
C1899 C1901 1.415 . S
C1900 C1899 1.355 . S
C1900 C1902 1.419 . S
C1901 C1896 1.425 . S
C1901 C1898 1.409 . S
C1901 C1899 1.415 . S
C1902 H1892 0.930 . S
C1902 C1900 1.419 . S
C1902 C1903 1.362 . S
C1903 H1893 0.930 . S
C1903 C1896 1.409 . S
C1903 C1902 1.362 . S
H1904 C1910 0.930 . S
H1905 C1913 0.930 . S
H1906 C1914 0.930 . S
H1907 C1915 0.930 . S
H1908 C1918 0.930 . S
H1909 C1919 0.930 . S
C1910 H1904 0.930 . S
C1910 C1911 1.355 . S
C1910 C1912 1.415 . S
C1911 C1910 1.355 . S
C1911 C1913 1.419 . S
C1912 C1910 1.415 . S
C1912 C1917 1.425 . S
C1912 C1919 1.409 . S
C1913 H1905 0.930 . S
C1913 C1911 1.419 . S
C1913 C1914 1.362 . S
C1914 H1906 0.930 . S
C1914 C1913 1.362 . S
C1914 C1917 1.409 . S
C1915 H1907 0.930 . S
C1915 C1916 1.355 . S
C1915 C1917 1.415 . S
C1916 C1915 1.355 . S
C1916 C1918 1.419 . S
C1917 C1912 1.425 . S
C1917 C1914 1.409 . S
C1917 C1915 1.415 . S
C1918 H1908 0.930 . S
C1918 C1916 1.419 . S
C1918 C1919 1.362 . S
C1919 H1909 0.930 . S
C1919 C1912 1.409 . S
C1919 C1918 1.362 . S
H1920 C1926 0.930 . S
H1921 C1929 0.930 . S
H1922 C1930 0.930 . S
H1923 C1931 0.930 . S
H1924 C1934 0.930 . S
H1925 C1935 0.930 . S
C1926 H1920 0.930 . S
C1926 C1927 1.355 . S
C1926 C1928 1.415 . S
C1927 C1926 1.355 . S
C1927 C1929 1.419 . S
C1928 C1926 1.415 . S
C1928 C1933 1.425 . S
C1928 C1935 1.409 . S
C1929 H1921 0.930 . S
C1929 C1927 1.419 . S
C1929 C1930 1.362 . S
C1930 H1922 0.930 . S
C1930 C1929 1.362 . S
C1930 C1933 1.409 . S
C1931 H1923 0.930 . S
C1931 C1932 1.355 . S
C1931 C1933 1.415 . S
C1932 C1931 1.355 . S
C1932 C1934 1.419 . S
C1933 C1928 1.425 . S
C1933 C1930 1.409 . S
C1933 C1931 1.415 . S
C1934 H1924 0.930 . S
C1934 C1932 1.419 . S
C1934 C1935 1.362 . S
C1935 H1925 0.930 . S
C1935 C1928 1.409 . S
C1935 C1934 1.362 . S
H1936 C1942 0.930 . S
H1937 C1945 0.930 . S
H1938 C1946 0.930 . S
H1939 C1947 0.930 . S
H1940 C1950 0.930 . S
H1941 C1951 0.930 . S
C1942 H1936 0.930 . S
C1942 C1943 1.355 . S
C1942 C1944 1.415 . S
C1943 C1942 1.355 . S
C1943 C1945 1.419 . S
C1944 C1942 1.415 . S
C1944 C1949 1.425 . S
C1944 C1951 1.409 . S
C1945 H1937 0.930 . S
C1945 C1943 1.419 . S
C1945 C1946 1.362 . S
C1946 H1938 0.930 . S
C1946 C1945 1.362 . S
C1946 C1949 1.409 . S
C1947 H1939 0.930 . S
C1947 C1948 1.355 . S
C1947 C1949 1.415 . S
C1948 C1947 1.355 . S
C1948 C1950 1.419 . S
C1949 C1944 1.425 . S
C1949 C1946 1.409 . S
C1949 C1947 1.415 . S
C1950 H1940 0.930 . S
C1950 C1948 1.419 . S
C1950 C1951 1.362 . S
C1951 H1941 0.930 . S
C1951 C1944 1.409 . S
C1951 C1950 1.362 . S
H1952 C1958 0.930 . S
H1953 C1961 0.930 . S
H1954 C1962 0.930 . S
H1955 C1963 0.930 . S
H1956 C1966 0.930 . S
H1957 C1967 0.930 . S
C1958 H1952 0.930 . S
C1958 C1959 1.355 . S
C1958 C1960 1.415 . S
C1959 C1958 1.355 . S
C1959 C1961 1.419 . S
C1960 C1958 1.415 . S
C1960 C1965 1.425 . S
C1960 C1967 1.409 . S
C1961 H1953 0.930 . S
C1961 C1959 1.419 . S
C1961 C1962 1.362 . S
C1962 H1954 0.930 . S
C1962 C1961 1.362 . S
C1962 C1965 1.409 . S
C1963 H1955 0.930 . S
C1963 C1964 1.355 . S
C1963 C1965 1.415 . S
C1964 C1963 1.355 . S
C1964 C1966 1.419 . S
C1965 C1960 1.425 . S
C1965 C1962 1.409 . S
C1965 C1963 1.415 . S
C1966 H1956 0.930 . S
C1966 C1964 1.419 . S
C1966 C1967 1.362 . S
C1967 H1957 0.930 . S
C1967 C1960 1.409 . S
C1967 C1966 1.362 . S
H1968 C1974 0.930 . S
H1969 C1977 0.930 . S
H1970 C1978 0.930 . S
H1971 C1979 0.930 . S
H1972 C1982 0.930 . S
H1973 C1983 0.930 . S
C1974 H1968 0.930 . S
C1974 C1975 1.355 . S
C1974 C1976 1.415 . S
C1975 C1974 1.355 . S
C1975 C1977 1.419 . S
C1976 C1974 1.415 . S
C1976 C1981 1.425 . S
C1976 C1983 1.409 . S
C1977 H1969 0.930 . S
C1977 C1975 1.419 . S
C1977 C1978 1.362 . S
C1978 H1970 0.930 . S
C1978 C1977 1.362 . S
C1978 C1981 1.409 . S
C1979 H1971 0.930 . S
C1979 C1980 1.355 . S
C1979 C1981 1.415 . S
C1980 C1979 1.355 . S
C1980 C1982 1.419 . S
C1981 C1976 1.425 . S
C1981 C1978 1.409 . S
C1981 C1979 1.415 . S
C1982 H1972 0.930 . S
C1982 C1980 1.419 . S
C1982 C1983 1.362 . S
C1983 H1973 0.930 . S
C1983 C1976 1.409 . S
C1983 C1982 1.362 . S
H1984 C1990 0.930 . S
H1985 C1993 0.930 . S
H1986 C1994 0.930 . S
H1987 C1995 0.930 . S
H1988 C1998 0.930 . S
H1989 C1999 0.930 . S
C1990 H1984 0.930 . S
C1990 C1991 1.355 . S
C1990 C1992 1.415 . S
C1991 C1990 1.355 . S
C1991 C1993 1.419 . S
C1992 C1990 1.415 . S
C1992 C1997 1.425 . S
C1992 C1999 1.409 . S
C1993 H1985 0.930 . S
C1993 C1991 1.419 . S
C1993 C1994 1.362 . S
C1994 H1986 0.930 . S
C1994 C1993 1.362 . S
C1994 C1997 1.409 . S
C1995 H1987 0.930 . S
C1995 C1996 1.355 . S
C1995 C1997 1.415 . S
C1996 C1995 1.355 . S
C1996 C1998 1.419 . S
C1997 C1992 1.425 . S
C1997 C1994 1.409 . S
C1997 C1995 1.415 . S
C1998 H1988 0.930 . S
C1998 C1996 1.419 . S
C1998 C1999 1.362 . S
C1999 H1989 0.930 . S
C1999 C1992 1.409 . S
C1999 C1998 1.362 . S
H2000 C2006 0.930 . S
H2001 C2009 0.930 . S
H2002 C2010 0.930 . S
H2003 C2011 0.930 . S
H2004 C2014 0.930 . S
H2005 C2015 0.930 . S
C2006 H2000 0.930 . S
C2006 C2007 1.355 . S
C2006 C2008 1.415 . S
C2007 C2006 1.355 . S
C2007 C2009 1.419 . S
C2008 C2006 1.415 . S
C2008 C2013 1.425 . S
C2008 C2015 1.409 . S
C2009 H2001 0.930 . S
C2009 C2007 1.419 . S
C2009 C2010 1.362 . S
C2010 H2002 0.930 . S
C2010 C2009 1.362 . S
C2010 C2013 1.409 . S
C2011 H2003 0.930 . S
C2011 C2012 1.355 . S
C2011 C2013 1.415 . S
C2012 C2011 1.355 . S
C2012 C2014 1.419 . S
C2013 C2008 1.425 . S
C2013 C2010 1.409 . S
C2013 C2011 1.415 . S
C2014 H2004 0.930 . S
C2014 C2012 1.419 . S
C2014 C2015 1.362 . S
C2015 H2005 0.930 . S
C2015 C2008 1.409 . S
C2015 C2014 1.362 . S
H2016 C2022 0.930 . S
H2017 C2025 0.930 . S
H2018 C2026 0.930 . S
H2019 C2027 0.930 . S
H2020 C2030 0.930 . S
H2021 C2031 0.930 . S
C2022 H2016 0.930 . S
C2022 C2023 1.355 . S
C2022 C2024 1.415 . S
C2023 C2022 1.355 . S
C2023 C2025 1.419 . S
C2024 C2022 1.415 . S
C2024 C2029 1.425 . S
C2024 C2031 1.409 . S
C2025 H2017 0.930 . S
C2025 C2023 1.419 . S
C2025 C2026 1.362 . S
C2026 H2018 0.930 . S
C2026 C2025 1.362 . S
C2026 C2029 1.409 . S
C2027 H2019 0.930 . S
C2027 C2028 1.355 . S
C2027 C2029 1.415 . S
C2028 C2027 1.355 . S
C2028 C2030 1.419 . S
C2029 C2024 1.425 . S
C2029 C2026 1.409 . S
C2029 C2027 1.415 . S
C2030 H2020 0.930 . S
C2030 C2028 1.419 . S
C2030 C2031 1.362 . S
C2031 H2021 0.930 . S
C2031 C2024 1.409 . S
C2031 C2030 1.362 . S
H2032 C2038 0.930 . S
H2033 C2041 0.930 . S
H2034 C2042 0.930 . S
H2035 C2043 0.930 . S
H2036 C2046 0.930 . S
H2037 C2047 0.930 . S
C2038 H2032 0.930 . S
C2038 C2039 1.355 . S
C2038 C2040 1.415 . S
C2039 C2038 1.355 . S
C2039 C2041 1.419 . S
C2040 C2038 1.415 . S
C2040 C2045 1.425 . S
C2040 C2047 1.409 . S
C2041 H2033 0.930 . S
C2041 C2039 1.419 . S
C2041 C2042 1.362 . S
C2042 H2034 0.930 . S
C2042 C2041 1.362 . S
C2042 C2045 1.409 . S
C2043 H2035 0.930 . S
C2043 C2044 1.355 . S
C2043 C2045 1.415 . S
C2044 C2043 1.355 . S
C2044 C2046 1.419 . S
C2045 C2040 1.425 . S
C2045 C2042 1.409 . S
C2045 C2043 1.415 . S
C2046 H2036 0.930 . S
C2046 C2044 1.419 . S
C2046 C2047 1.362 . S
C2047 H2037 0.930 . S
C2047 C2040 1.409 . S
C2047 C2046 1.362 . S
H2048 C2054 0.930 . S
H2049 C2057 0.930 . S
H2050 C2058 0.930 . S
H2051 C2059 0.930 . S
H2052 C2062 0.930 . S
H2053 C2063 0.930 . S
C2054 H2048 0.930 . S
C2054 C2055 1.355 . S
C2054 C2056 1.415 . S
C2055 C2054 1.355 . S
C2055 C2057 1.419 . S
C2056 C2054 1.415 . S
C2056 C2061 1.425 . S
C2056 C2063 1.409 . S
C2057 H2049 0.930 . S
C2057 C2055 1.419 . S
C2057 C2058 1.362 . S
C2058 H2050 0.930 . S
C2058 C2057 1.362 . S
C2058 C2061 1.409 . S
C2059 H2051 0.930 . S
C2059 C2060 1.355 . S
C2059 C2061 1.415 . S
C2060 C2059 1.355 . S
C2060 C2062 1.419 . S
C2061 C2056 1.425 . S
C2061 C2058 1.409 . S
C2061 C2059 1.415 . S
C2062 H2052 0.930 . S
C2062 C2060 1.419 . S
C2062 C2063 1.362 . S
C2063 H2053 0.930 . S
C2063 C2056 1.409 . S
C2063 C2062 1.362 . S
H2064 C2070 0.930 . S
H2065 C2073 0.930 . S
H2066 C2074 0.930 . S
H2067 C2075 0.930 . S
H2068 C2078 0.930 . S
H2069 C2079 0.930 . S
C2070 H2064 0.930 . S
C2070 C2071 1.355 . S
C2070 C2072 1.415 . S
C2071 C2070 1.355 . S
C2071 C2073 1.419 . S
C2072 C2070 1.415 . S
C2072 C2077 1.425 . S
C2072 C2079 1.409 . S
C2073 H2065 0.930 . S
C2073 C2071 1.419 . S
C2073 C2074 1.362 . S
C2074 H2066 0.930 . S
C2074 C2073 1.362 . S
C2074 C2077 1.409 . S
C2075 H2067 0.930 . S
C2075 C2076 1.355 . S
C2075 C2077 1.415 . S
C2076 C2075 1.355 . S
C2076 C2078 1.419 . S
C2077 C2072 1.425 . S
C2077 C2074 1.409 . S
C2077 C2075 1.415 . S
C2078 H2068 0.930 . S
C2078 C2076 1.419 . S
C2078 C2079 1.362 . S
C2079 H2069 0.930 . S
C2079 C2072 1.409 . S
C2079 C2078 1.362 . S
H2080 C2086 0.930 . S
H2081 C2089 0.930 . S
H2082 C2090 0.930 . S
H2083 C2091 0.930 . S
H2084 C2094 0.930 . S
H2085 C2095 0.930 . S
C2086 H2080 0.930 . S
C2086 C2087 1.355 . S
C2086 C2088 1.415 . S
C2087 C2086 1.355 . S
C2087 C2089 1.419 . S
C2088 C2086 1.415 . S
C2088 C2093 1.425 . S
C2088 C2095 1.409 . S
C2089 H2081 0.930 . S
C2089 C2087 1.419 . S
C2089 C2090 1.362 . S
C2090 H2082 0.930 . S
C2090 C2089 1.362 . S
C2090 C2093 1.409 . S
C2091 H2083 0.930 . S
C2091 C2092 1.355 . S
C2091 C2093 1.415 . S
C2092 C2091 1.355 . S
C2092 C2094 1.419 . S
C2093 C2088 1.425 . S
C2093 C2090 1.409 . S
C2093 C2091 1.415 . S
C2094 H2084 0.930 . S
C2094 C2092 1.419 . S
C2094 C2095 1.362 . S
C2095 H2085 0.930 . S
C2095 C2088 1.409 . S
C2095 C2094 1.362 . S
H2096 C2102 0.930 . S
H2097 C2105 0.930 . S
H2098 C2106 0.930 . S
H2099 C2107 0.930 . S
H2100 C2110 0.930 . S
H2101 C2111 0.930 . S
C2102 H2096 0.930 . S
C2102 C2103 1.355 . S
C2102 C2104 1.415 . S
C2103 C2102 1.355 . S
C2103 C2105 1.419 . S
C2104 C2102 1.415 . S
C2104 C2109 1.425 . S
C2104 C2111 1.409 . S
C2105 H2097 0.930 . S
C2105 C2103 1.419 . S
C2105 C2106 1.362 . S
C2106 H2098 0.930 . S
C2106 C2105 1.362 . S
C2106 C2109 1.409 . S
C2107 H2099 0.930 . S
C2107 C2108 1.355 . S
C2107 C2109 1.415 . S
C2108 C2107 1.355 . S
C2108 C2110 1.419 . S
C2109 C2104 1.425 . S
C2109 C2106 1.409 . S
C2109 C2107 1.415 . S
C2110 H2100 0.930 . S
C2110 C2108 1.419 . S
C2110 C2111 1.362 . S
C2111 H2101 0.930 . S
C2111 C2104 1.409 . S
C2111 C2110 1.362 . S
H2112 C2118 0.930 . S
H2113 C2121 0.930 . S
H2114 C2122 0.930 . S
H2115 C2123 0.930 . S
H2116 C2126 0.930 . S
H2117 C2127 0.930 . S
C2118 H2112 0.930 . S
C2118 C2119 1.355 1_655 S
C2118 C2120 1.415 . S
C2119 C2118 1.355 1_455 S
C2119 C2121 1.419 . S
C2120 C2118 1.415 . S
C2120 C2125 1.425 . S
C2120 C2127 1.409 . S
C2121 H2113 0.930 . S
C2121 C2119 1.419 . S
C2121 C2122 1.362 1_455 S
C2122 H2114 0.930 . S
C2122 C2121 1.362 1_655 S
C2122 C2125 1.409 . S
C2123 H2115 0.930 . S
C2123 C2124 1.355 . S
C2123 C2125 1.415 . S
C2124 C2123 1.355 . S
C2124 C2126 1.419 . S
C2125 C2120 1.425 . S
C2125 C2122 1.409 . S
C2125 C2123 1.415 . S
C2126 H2116 0.930 . S
C2126 C2124 1.419 . S
C2126 C2127 1.362 . S
C2127 H2117 0.930 . S
C2127 C2120 1.409 . S
C2127 C2126 1.362 . S
H2128 C2134 0.930 1_565 S
H2129 C2137 0.930 . S
H2130 C2138 0.930 . S
H2131 C2139 0.930 . S
H2132 C2142 0.930 . S
H2133 C2143 0.930 . S
C2134 H2128 0.930 1_545 S
C2134 C2135 1.355 . S
C2134 C2136 1.415 . S
C2135 C2134 1.355 . S
C2135 C2137 1.419 . S
C2136 C2134 1.415 . S
C2136 C2141 1.425 . S
C2136 C2143 1.409 . S
C2137 H2129 0.930 . S
C2137 C2135 1.419 . S
C2137 C2138 1.362 . S
C2138 H2130 0.930 . S
C2138 C2137 1.362 . S
C2138 C2141 1.409 . S
C2139 H2131 0.930 . S
C2139 C2140 1.355 . S
C2139 C2141 1.415 . S
C2140 C2139 1.355 . S
C2140 C2142 1.419 . S
C2141 C2136 1.425 . S
C2141 C2138 1.409 . S
C2141 C2139 1.415 . S
C2142 H2132 0.930 . S
C2142 C2140 1.419 . S
C2142 C2143 1.362 . S
C2143 H2133 0.930 . S
C2143 C2136 1.409 . S
C2143 C2142 1.362 . S
H2144 C2150 0.930 . S
H2145 C2153 0.930 . S
H2146 C2154 0.930 . S
H2147 C2155 0.930 . S
H2148 C2158 0.930 . S
H2149 C2159 0.930 1_455 S
C2150 H2144 0.930 . S
C2150 C2151 1.355 . S
C2150 C2152 1.415 1_455 S
C2151 C2150 1.355 . S
C2151 C2153 1.419 . S
C2152 C2150 1.415 1_655 S
C2152 C2157 1.425 . S
C2152 C2159 1.409 . S
C2153 H2145 0.930 . S
C2153 C2151 1.419 . S
C2153 C2154 1.362 1_455 S
C2154 H2146 0.930 . S
C2154 C2153 1.362 1_655 S
C2154 C2157 1.409 . S
C2155 H2147 0.930 . S
C2155 C2156 1.355 . S
C2155 C2157 1.415 . S
C2156 C2155 1.355 . S
C2156 C2158 1.419 . S
C2157 C2152 1.425 . S
C2157 C2154 1.409 . S
C2157 C2155 1.415 . S
C2158 H2148 0.930 . S
C2158 C2156 1.419 . S
C2158 C2159 1.362 . S
C2159 H2149 0.930 1_655 S
C2159 C2152 1.409 . S
C2159 C2158 1.362 . S
H2160 C2166 0.930 . S
H2161 C2169 0.930 . S
H2162 C2170 0.930 . S
H2163 C2171 0.930 . S
H2164 C2174 0.930 . S
H2165 C2175 0.930 . S
C2166 H2160 0.930 . S
C2166 C2167 1.355 . S
C2166 C2168 1.415 . S
C2167 C2166 1.355 . S
C2167 C2169 1.419 . S
C2168 C2166 1.415 . S
C2168 C2173 1.425 . S
C2168 C2175 1.409 . S
C2169 H2161 0.930 . S
C2169 C2167 1.419 . S
C2169 C2170 1.362 . S
C2170 H2162 0.930 . S
C2170 C2169 1.362 . S
C2170 C2173 1.409 . S
C2171 H2163 0.930 . S
C2171 C2172 1.355 . S
C2171 C2173 1.415 . S
C2172 C2171 1.355 . S
C2172 C2174 1.419 . S
C2173 C2168 1.425 . S
C2173 C2170 1.409 . S
C2173 C2171 1.415 . S
C2174 H2164 0.930 . S
C2174 C2172 1.419 . S
C2174 C2175 1.362 . S
C2175 H2165 0.930 . S
C2175 C2168 1.409 . S
C2175 C2174 1.362 . S
H2176 C2182 0.930 . S
H2177 C2185 0.930 1_455 S
H2178 C2186 0.930 . S
H2179 C2187 0.930 . S
H2180 C2190 0.930 . S
H2181 C2191 0.930 . S
C2182 H2176 0.930 . S
C2182 C2183 1.355 . S
C2182 C2184 1.415 1_455 S
C2183 C2182 1.355 . S
C2183 C2185 1.419 1_455 S
C2184 C2182 1.415 1_655 S
C2184 C2189 1.425 . S
C2184 C2191 1.409 . S
C2185 H2177 0.930 1_655 S
C2185 C2183 1.419 1_655 S
C2185 C2186 1.362 . S
C2186 H2178 0.930 . S
C2186 C2185 1.362 . S
C2186 C2189 1.409 . S
C2187 H2179 0.930 . S
C2187 C2188 1.355 . S
C2187 C2189 1.415 . S
C2188 C2187 1.355 . S
C2188 C2190 1.419 1_545 S
C2189 C2184 1.425 . S
C2189 C2186 1.409 . S
C2189 C2187 1.415 . S
C2190 H2180 0.930 . S
C2190 C2188 1.419 1_565 S
C2190 C2191 1.362 1_565 S
C2191 H2181 0.930 . S
C2191 C2184 1.409 . S
C2191 C2190 1.362 1_545 S
H2192 C2198 0.930 . S
H2193 C2201 0.930 . S
H2194 C2202 0.930 . S
H2195 C2203 0.930 . S
H2196 C2206 0.930 . S
H2197 C2207 0.930 . S
C2198 H2192 0.930 . S
C2198 C2199 1.355 . S
C2198 C2200 1.415 1_455 S
C2199 C2198 1.355 . S
C2199 C2201 1.419 . S
C2200 C2198 1.415 1_655 S
C2200 C2205 1.425 . S
C2200 C2207 1.409 . S
C2201 H2193 0.930 . S
C2201 C2199 1.419 . S
C2201 C2202 1.362 1_455 S
C2202 H2194 0.930 . S
C2202 C2201 1.362 1_655 S
C2202 C2205 1.409 . S
C2203 H2195 0.930 . S
C2203 C2204 1.355 . S
C2203 C2205 1.415 . S
C2204 C2203 1.355 . S
C2204 C2206 1.419 . S
C2205 C2200 1.425 . S
C2205 C2202 1.409 . S
C2205 C2203 1.415 . S
C2206 H2196 0.930 . S
C2206 C2204 1.419 . S
C2206 C2207 1.362 . S
C2207 H2197 0.930 . S
C2207 C2200 1.409 . S
C2207 C2206 1.362 . S
H2208 C2214 0.930 . S
H2209 C2217 0.930 . S
H2210 C2218 0.930 . S
H2211 C2219 0.930 . S
H2212 C2222 0.930 . S
H2213 C2223 0.930 . S
C2214 H2208 0.930 . S
C2214 C2215 1.355 . S
C2214 C2216 1.415 . S
C2215 C2214 1.355 . S
C2215 C2217 1.419 . S
C2216 C2214 1.415 . S
C2216 C2221 1.425 . S
C2216 C2223 1.409 . S
C2217 H2209 0.930 . S
C2217 C2215 1.419 . S
C2217 C2218 1.362 . S
C2218 H2210 0.930 . S
C2218 C2217 1.362 . S
C2218 C2221 1.409 . S
C2219 H2211 0.930 . S
C2219 C2220 1.355 . S
C2219 C2221 1.415 . S
C2220 C2219 1.355 . S
C2220 C2222 1.419 . S
C2221 C2216 1.425 . S
C2221 C2218 1.409 . S
C2221 C2219 1.415 . S
C2222 H2212 0.930 . S
C2222 C2220 1.419 . S
C2222 C2223 1.362 . S
C2223 H2213 0.930 . S
C2223 C2216 1.409 . S
C2223 C2222 1.362 . S
H2224 C2230 0.930 . S
H2225 C2233 0.930 . S
H2226 C2234 0.930 . S
H2227 C2235 0.930 . S
H2228 C2238 0.930 . S
H2229 C2239 0.930 . S
C2230 H2224 0.930 . S
C2230 C2231 1.355 . S
C2230 C2232 1.415 . S
C2231 C2230 1.355 . S
C2231 C2233 1.419 . S
C2232 C2230 1.415 . S
C2232 C2237 1.425 . S
C2232 C2239 1.409 . S
C2233 H2225 0.930 . S
C2233 C2231 1.419 . S
C2233 C2234 1.362 . S
C2234 H2226 0.930 . S
C2234 C2233 1.362 . S
C2234 C2237 1.409 . S
C2235 H2227 0.930 . S
C2235 C2236 1.355 . S
C2235 C2237 1.415 . S
C2236 C2235 1.355 . S
C2236 C2238 1.419 . S
C2237 C2232 1.425 . S
C2237 C2234 1.409 . S
C2237 C2235 1.415 . S
C2238 H2228 0.930 . S
C2238 C2236 1.419 . S
C2238 C2239 1.362 . S
C2239 H2229 0.930 . S
C2239 C2232 1.409 . S
C2239 C2238 1.362 . S
H2240 C2246 0.930 . S
H2241 C2249 0.930 . S
H2242 C2250 0.930 . S
H2243 C2251 0.930 . S
H2244 C2254 0.930 . S
H2245 C2255 0.930 . S
C2246 H2240 0.930 . S
C2246 C2247 1.355 . S
C2246 C2248 1.415 . S
C2247 C2246 1.355 . S
C2247 C2249 1.419 . S
C2248 C2246 1.415 . S
C2248 C2253 1.425 . S
C2248 C2255 1.409 . S
C2249 H2241 0.930 . S
C2249 C2247 1.419 . S
C2249 C2250 1.362 . S
C2250 H2242 0.930 . S
C2250 C2249 1.362 . S
C2250 C2253 1.409 . S
C2251 H2243 0.930 . S
C2251 C2252 1.355 . S
C2251 C2253 1.415 . S
C2252 C2251 1.355 . S
C2252 C2254 1.419 . S
C2253 C2248 1.425 . S
C2253 C2250 1.409 . S
C2253 C2251 1.415 . S
C2254 H2244 0.930 . S
C2254 C2252 1.419 . S
C2254 C2255 1.362 . S
C2255 H2245 0.930 . S
C2255 C2248 1.409 . S
C2255 C2254 1.362 . S
H2256 C2262 0.930 . S
H2257 C2265 0.930 . S
H2258 C2266 0.930 . S
H2259 C2267 0.930 . S
H2260 C2270 0.930 . S
H2261 C2271 0.930 . S
C2262 H2256 0.930 . S
C2262 C2263 1.355 . S
C2262 C2264 1.415 . S
C2263 C2262 1.355 . S
C2263 C2265 1.419 . S
C2264 C2262 1.415 . S
C2264 C2269 1.425 . S
C2264 C2271 1.409 . S
C2265 H2257 0.930 . S
C2265 C2263 1.419 . S
C2265 C2266 1.362 . S
C2266 H2258 0.930 . S
C2266 C2265 1.362 . S
C2266 C2269 1.409 . S
C2267 H2259 0.930 . S
C2267 C2268 1.355 1_565 S
C2267 C2269 1.415 . S
C2268 C2267 1.355 1_545 S
C2268 C2270 1.419 . S
C2269 C2264 1.425 . S
C2269 C2266 1.409 . S
C2269 C2267 1.415 . S
C2270 H2260 0.930 . S
C2270 C2268 1.419 . S
C2270 C2271 1.362 1_545 S
C2271 H2261 0.930 . S
C2271 C2264 1.409 . S
C2271 C2270 1.362 1_565 S
H2272 C2278 0.930 . S
H2273 C2281 0.930 . S
H2274 C2282 0.930 . S
H2275 C2283 0.930 . S
H2276 C2286 0.930 . S
H2277 C2287 0.930 . S
C2278 H2272 0.930 . S
C2278 C2279 1.355 . S
C2278 C2280 1.415 . S
C2279 C2278 1.355 . S
C2279 C2281 1.419 . S
C2280 C2278 1.415 . S
C2280 C2285 1.425 . S
C2280 C2287 1.409 . S
C2281 H2273 0.930 . S
C2281 C2279 1.419 . S
C2281 C2282 1.362 . S
C2282 H2274 0.930 . S
C2282 C2281 1.362 . S
C2282 C2285 1.409 . S
C2283 H2275 0.930 . S
C2283 C2284 1.355 . S
C2283 C2285 1.415 1_545 S
C2284 C2283 1.355 . S
C2284 C2286 1.419 . S
C2285 C2280 1.425 . S
C2285 C2282 1.409 . S
C2285 C2283 1.415 1_565 S
C2286 H2276 0.930 . S
C2286 C2284 1.419 . S
C2286 C2287 1.362 1_545 S
C2287 H2277 0.930 . S
C2287 C2280 1.409 . S
C2287 C2286 1.362 1_565 S
H2288 C2294 0.930 . S
H2289 C2297 0.930 . S
H2290 C2298 0.930 . S
H2291 C2299 0.930 . S
H2292 C2302 0.930 . S
H2293 C2303 0.930 . S
C2294 H2288 0.930 . S
C2294 C2295 1.355 . S
C2294 C2296 1.415 . S
C2295 C2294 1.355 . S
C2295 C2297 1.419 . S
C2296 C2294 1.415 . S
C2296 C2301 1.425 . S
C2296 C2303 1.409 . S
C2297 H2289 0.930 . S
C2297 C2295 1.419 . S
C2297 C2298 1.362 . S
C2298 H2290 0.930 . S
C2298 C2297 1.362 . S
C2298 C2301 1.409 . S
C2299 H2291 0.930 . S
C2299 C2300 1.355 . S
C2299 C2301 1.415 . S
C2300 C2299 1.355 . S
C2300 C2302 1.419 1_455 S
C2301 C2296 1.425 . S
C2301 C2298 1.409 . S
C2301 C2299 1.415 . S
C2302 H2292 0.930 . S
C2302 C2300 1.419 1_655 S
C2302 C2303 1.362 1_655 S
C2303 H2293 0.930 . S
C2303 C2296 1.409 . S
C2303 C2302 1.362 1_455 S
H2304 C2310 0.930 . S
H2305 C2313 0.930 . S
H2306 C2314 0.930 . S
H2307 C2315 0.930 . S
H2308 C2318 0.930 . S
H2309 C2319 0.930 . S
C2310 H2304 0.930 . S
C2310 C2311 1.355 . S
C2310 C2312 1.415 . S
C2311 C2310 1.355 . S
C2311 C2313 1.419 . S
C2312 C2310 1.415 . S
C2312 C2317 1.425 . S
C2312 C2319 1.409 . S
C2313 H2305 0.930 . S
C2313 C2311 1.419 . S
C2313 C2314 1.362 . S
C2314 H2306 0.930 . S
C2314 C2313 1.362 . S
C2314 C2317 1.409 . S
C2315 H2307 0.930 . S
C2315 C2316 1.355 . S
C2315 C2317 1.415 . S
C2316 C2315 1.355 . S
C2316 C2318 1.419 . S
C2317 C2312 1.425 . S
C2317 C2314 1.409 . S
C2317 C2315 1.415 . S
C2318 H2308 0.930 . S
C2318 C2316 1.419 . S
C2318 C2319 1.362 . S
C2319 H2309 0.930 . S
C2319 C2312 1.409 . S
C2319 C2318 1.362 . S
H2320 C2326 0.930 . S
H2321 C2329 0.930 . S
H2322 C2330 0.930 . S
H2323 C2331 0.930 . S
H2324 C2334 0.930 . S
H2325 C2335 0.930 . S
C2326 H2320 0.930 . S
C2326 C2327 1.355 . S
C2326 C2328 1.415 . S
C2327 C2326 1.355 . S
C2327 C2329 1.419 . S
C2328 C2326 1.415 . S
C2328 C2333 1.425 . S
C2328 C2335 1.409 . S
C2329 H2321 0.930 . S
C2329 C2327 1.419 . S
C2329 C2330 1.362 . S
C2330 H2322 0.930 . S
C2330 C2329 1.362 . S
C2330 C2333 1.409 . S
C2331 H2323 0.930 . S
C2331 C2332 1.355 . S
C2331 C2333 1.415 . S
C2332 C2331 1.355 . S
C2332 C2334 1.419 . S
C2333 C2328 1.425 . S
C2333 C2330 1.409 . S
C2333 C2331 1.415 . S
C2334 H2324 0.930 . S
C2334 C2332 1.419 . S
C2334 C2335 1.362 . S
C2335 H2325 0.930 . S
C2335 C2328 1.409 . S
C2335 C2334 1.362 . S
H2336 C2342 0.930 . S
H2337 C2345 0.930 . S
H2338 C2346 0.930 . S
H2339 C2347 0.930 . S
H2340 C2350 0.930 . S
H2341 C2351 0.930 . S
C2342 H2336 0.930 . S
C2342 C2343 1.355 . S
C2342 C2344 1.415 . S
C2343 C2342 1.355 . S
C2343 C2345 1.419 . S
C2344 C2342 1.415 . S
C2344 C2349 1.425 . S
C2344 C2351 1.409 . S
C2345 H2337 0.930 . S
C2345 C2343 1.419 . S
C2345 C2346 1.362 . S
C2346 H2338 0.930 . S
C2346 C2345 1.362 . S
C2346 C2349 1.409 . S
C2347 H2339 0.930 . S
C2347 C2348 1.355 . S
C2347 C2349 1.415 . S
C2348 C2347 1.355 . S
C2348 C2350 1.419 . S
C2349 C2344 1.425 . S
C2349 C2346 1.409 . S
C2349 C2347 1.415 . S
C2350 H2340 0.930 . S
C2350 C2348 1.419 . S
C2350 C2351 1.362 . S
C2351 H2341 0.930 . S
C2351 C2344 1.409 . S
C2351 C2350 1.362 . S
H2352 C2358 0.930 . S
H2353 C2361 0.930 . S
H2354 C2362 0.930 . S
H2355 C2363 0.930 . S
H2356 C2366 0.930 . S
H2357 C2367 0.930 . S
C2358 H2352 0.930 . S
C2358 C2359 1.355 . S
C2358 C2360 1.415 . S
C2359 C2358 1.355 . S
C2359 C2361 1.419 . S
C2360 C2358 1.415 . S
C2360 C2365 1.425 . S
C2360 C2367 1.409 . S
C2361 H2353 0.930 . S
C2361 C2359 1.419 . S
C2361 C2362 1.362 . S
C2362 H2354 0.930 . S
C2362 C2361 1.362 . S
C2362 C2365 1.409 . S
C2363 H2355 0.930 . S
C2363 C2364 1.355 . S
C2363 C2365 1.415 . S
C2364 C2363 1.355 . S
C2364 C2366 1.419 . S
C2365 C2360 1.425 . S
C2365 C2362 1.409 . S
C2365 C2363 1.415 . S
C2366 H2356 0.930 . S
C2366 C2364 1.419 . S
C2366 C2367 1.362 . S
C2367 H2357 0.930 . S
C2367 C2360 1.409 . S
C2367 C2366 1.362 . S
H2368 C2374 0.930 . S
H2369 C2377 0.930 . S
H2370 C2378 0.930 . S
H2371 C2379 0.930 . S
H2372 C2382 0.930 . S
H2373 C2383 0.930 . S
C2374 H2368 0.930 . S
C2374 C2375 1.355 . S
C2374 C2376 1.415 . S
C2375 C2374 1.355 . S
C2375 C2377 1.419 . S
C2376 C2374 1.415 . S
C2376 C2381 1.425 . S
C2376 C2383 1.409 . S
C2377 H2369 0.930 . S
C2377 C2375 1.419 . S
C2377 C2378 1.362 . S
C2378 H2370 0.930 . S
C2378 C2377 1.362 . S
C2378 C2381 1.409 . S
C2379 H2371 0.930 . S
C2379 C2380 1.355 . S
C2379 C2381 1.415 . S
C2380 C2379 1.355 . S
C2380 C2382 1.419 . S
C2381 C2376 1.425 . S
C2381 C2378 1.409 . S
C2381 C2379 1.415 . S
C2382 H2372 0.930 . S
C2382 C2380 1.419 . S
C2382 C2383 1.362 . S
C2383 H2373 0.930 . S
C2383 C2376 1.409 . S
C2383 C2382 1.362 . S
H2384 C2390 0.930 . S
H2385 C2393 0.930 . S
H2386 C2394 0.930 . S
H2387 C2395 0.930 . S
H2388 C2398 0.930 . S
H2389 C2399 0.930 . S
C2390 H2384 0.930 . S
C2390 C2391 1.355 . S
C2390 C2392 1.415 . S
C2391 C2390 1.355 . S
C2391 C2393 1.419 . S
C2392 C2390 1.415 . S
C2392 C2397 1.425 . S
C2392 C2399 1.409 . S
C2393 H2385 0.930 . S
C2393 C2391 1.419 . S
C2393 C2394 1.362 . S
C2394 H2386 0.930 . S
C2394 C2393 1.362 . S
C2394 C2397 1.409 . S
C2395 H2387 0.930 . S
C2395 C2396 1.355 . S
C2395 C2397 1.415 . S
C2396 C2395 1.355 . S
C2396 C2398 1.419 . S
C2397 C2392 1.425 . S
C2397 C2394 1.409 . S
C2397 C2395 1.415 . S
C2398 H2388 0.930 . S
C2398 C2396 1.419 . S
C2398 C2399 1.362 . S
C2399 H2389 0.930 . S
C2399 C2392 1.409 . S
C2399 C2398 1.362 . S
H2400 C2406 0.930 . S
H2401 C2409 0.930 . S
H2402 C2410 0.930 . S
H2403 C2411 0.930 . S
H2404 C2414 0.930 . S
H2405 C2415 0.930 . S
C2406 H2400 0.930 . S
C2406 C2407 1.355 . S
C2406 C2408 1.415 . S
C2407 C2406 1.355 . S
C2407 C2409 1.419 . S
C2408 C2406 1.415 . S
C2408 C2413 1.425 . S
C2408 C2415 1.409 . S
C2409 H2401 0.930 . S
C2409 C2407 1.419 . S
C2409 C2410 1.362 . S
C2410 H2402 0.930 . S
C2410 C2409 1.362 . S
C2410 C2413 1.409 . S
C2411 H2403 0.930 . S
C2411 C2412 1.355 . S
C2411 C2413 1.415 . S
C2412 C2411 1.355 . S
C2412 C2414 1.419 . S
C2413 C2408 1.425 . S
C2413 C2410 1.409 . S
C2413 C2411 1.415 . S
C2414 H2404 0.930 . S
C2414 C2412 1.419 . S
C2414 C2415 1.362 . S
C2415 H2405 0.930 . S
C2415 C2408 1.409 . S
C2415 C2414 1.362 . S
H2416 C2422 0.930 1_565 S
H2417 C2425 0.930 . S
H2418 C2426 0.930 . S
H2419 C2427 0.930 . S
H2420 C2430 0.930 . S
H2421 C2431 0.930 . S
C2422 H2416 0.930 1_545 S
C2422 C2423 1.355 . S
C2422 C2424 1.415 1_545 S
C2423 C2422 1.355 . S
C2423 C2425 1.419 . S
C2424 C2422 1.415 1_565 S
C2424 C2429 1.425 . S
C2424 C2431 1.409 . S
C2425 H2417 0.930 . S
C2425 C2423 1.419 . S
C2425 C2426 1.362 . S
C2426 H2418 0.930 . S
C2426 C2425 1.362 . S
C2426 C2429 1.409 1_545 S
C2427 H2419 0.930 . S
C2427 C2428 1.355 . S
C2427 C2429 1.415 . S
C2428 C2427 1.355 . S
C2428 C2430 1.419 . S
C2429 C2424 1.425 . S
C2429 C2426 1.409 1_565 S
C2429 C2427 1.415 . S
C2430 H2420 0.930 . S
C2430 C2428 1.419 . S
C2430 C2431 1.362 . S
C2431 H2421 0.930 . S
C2431 C2424 1.409 . S
C2431 C2430 1.362 . S
H2432 C2438 0.930 . S
H2433 C2441 0.930 . S
H2434 C2442 0.930 . S
H2435 C2443 0.930 . S
H2436 C2446 0.930 1_545 S
H2437 C2447 0.930 . S
C2438 H2432 0.930 . S
C2438 C2439 1.355 . S
C2438 C2440 1.415 . S
C2439 C2438 1.355 . S
C2439 C2441 1.419 1_455 S
C2440 C2438 1.415 . S
C2440 C2445 1.425 . S
C2440 C2447 1.409 . S
C2441 H2433 0.930 . S
C2441 C2439 1.419 1_655 S
C2441 C2442 1.362 1_655 S
C2442 H2434 0.930 . S
C2442 C2441 1.362 1_455 S
C2442 C2445 1.409 . S
C2443 H2435 0.930 . S
C2443 C2444 1.355 . S
C2443 C2445 1.415 1_545 S
C2444 C2443 1.355 . S
C2444 C2446 1.419 1_545 S
C2445 C2440 1.425 . S
C2445 C2442 1.409 . S
C2445 C2443 1.415 1_565 S
C2446 H2436 0.930 1_565 S
C2446 C2444 1.419 1_565 S
C2446 C2447 1.362 . S
C2447 H2437 0.930 . S
C2447 C2440 1.409 . S
C2447 C2446 1.362 . S
C727 C549 1.809 . S
C732 C9 1.788 . S
C743 C569 1.780 . S
C748 C29 1.774 1_655 S
C759 C49 1.778 . S
C764 C589 1.802 . S
C775 C69 1.803 . S
C780 C249 1.810 . S
C791 C89 1.811 . S
C796 C269 1.795 . S
C807 C289 1.810 . S
C812 C109 1.790 1_565 S
C823 C121 1.774 1_565 S
C828 C421 1.782 . S
C839 C441 1.799 . S
C844 C141 1.775 . S
C855 C161 1.778 . S
C860 C461 1.802 . S
C871 C601 1.810 . S
C876 C181 1.791 1_655 S
C887 C201 1.773 . S
C892 C621 1.783 . S
C903 C641 1.794 . S
C908 C221 1.810 . S
C919 C489 1.773 . S
C924 C309 1.785 . S
C935 C329 1.776 . S
C940 C509 1.800 . S
C951 C529 1.798 . S
C956 C349 1.810 . S
C967 C361 1.809 . S
C972 C661 1.787 . S
C983 C381 1.795 . S
C988 C681 1.810 . S
C999 C701 1.804 . S
C1004 C401 1.808 . S
C1015 C1 1.632 . S
C1020 C129 1.632 . S
C1031 C149 1.693 . S
C1036 C21 1.693 . S
C1047 C41 1.670 . S
C1052 C169 1.670 . S
C1063 C189 1.696 . S
C1068 C61 1.696 . S
C1079 C81 1.626 . S
C1084 C209 1.626 . S
C1095 C229 1.684 . S
C1100 C101 1.684 . S
C1111 C369 1.696 . S
C1116 C241 1.696 . S
C1127 C261 1.695 . S
C1132 C389 1.695 . S
C1143 C409 1.629 . S
C1148 C281 1.629 . S
C1159 C301 1.644 . S
C1164 C429 1.644 . S
C1175 C449 1.624 . S
C1180 C321 1.624 . S
C1191 C341 1.691 . S
C1196 C469 1.691 . S
C1207 C481 1.625 . S
C1212 C609 1.625 . S
C1223 C629 1.697 . S
C1228 C501 1.697 . S
C1239 C649 1.657 . S
C1244 C521 1.657 . S
C1255 C669 1.638 . S
C1260 C541 1.638 . S
C1271 C561 1.626 . S
C1276 C689 1.626 . S
C1287 C581 1.680 . S
C1292 C709 1.680 . S
C1303 C19 1.652 . S
C1308 C46 1.786 . S
C1319 C39 1.663 . S
C1324 C6 1.783 . S
C1335 C26 1.758 . S
C1340 C59 1.721 . S
C1351 C79 1.726 . S
C1356 C86 1.755 . S
C1367 C106 1.763 . S
C1372 C99 1.703 . S
C1383 C66 1.783 . S
C1388 C119 1.661 . S
C1399 C176 1.786 . S
C1404 C128 1.652 . S
C1415 C148 1.683 . S
C1420 C136 1.771 . S
C1431 C168 1.661 . S
C1436 C156 1.783 . S
C1447 C216 1.785 . S
C1452 C188 1.657 . S
C1463 C208 1.657 . S
C1468 C236 1.783 . S
C1479 C228 1.724 . S
C1484 C196 1.755 . S
C1495 C286 1.774 . S
C1500 C259 1.685 . S
C1511 C246 1.778 1_655 S
C1516 C279 1.666 . S
C1527 C266 1.781 . S
C1532 C299 1.667 . S
C1543 C326 1.772 . S
C1548 C319 1.688 . S
C1559 C339 1.671 . S
C1564 C346 1.779 . S
C1575 C306 1.762 . S
C1580 C359 1.703 . S
C1591 C368 1.704 . S
C1596 C416 1.762 . S
C1607 C376 1.784 . S
C1612 C388 1.655 . S
C1623 C408 1.718 . S
C1628 C396 1.757 . S
C1639 C456 1.786 1_655 S
C1644 C428 1.651 . S
C1655 C476 1.754 . S
C1660 C448 1.724 . S
C1671 C436 1.784 . S
C1676 C468 1.654 . S
C1687 C526 1.783 . S
C1692 C499 1.660 . S
C1703 C519 1.726 . S
C1708 C486 1.754 . S
C1719 C506 1.782 . S
C1724 C539 1.658 . S
C1735 C559 1.721 . S
C1740 C566 1.756 . S
C1751 C579 1.723 . S
C1756 C586 1.756 . S
C1767 C546 1.785 1_565 S
C1772 C599 1.653 . S
C1783 C608 1.716 . S
C1788 C656 1.757 1_565 S
C1799 C628 1.668 . S
C1804 C616 1.780 . S
C1815 C636 1.756 . S
C1820 C648 1.723 . S
C1831 C668 1.727 . S
C1836 C696 1.754 . S
C1847 C716 1.754 . S
C1852 C688 1.726 . S
C1863 C676 1.782 . S
C1868 C708 1.659 . S
C1879 C56 1.166 . S
C1884 C8 1.227 . S
C1895 C28 1.210 . S
C1900 C16 1.189 . S
C1911 C36 1.155 . S
C1916 C48 1.252 . S
C1927 C96 1.157 . S
C1932 C68 1.235 . S
C1943 C88 1.202 . S
C1948 C116 1.234 . S
C1959 C108 1.252 . S
C1964 C76 1.153 . S
C1975 C166 1.222 . S
C1980 C139 1.214 . S
C1991 C159 1.190 . S
C1996 C126 1.240 . S
C2007 C146 1.236 . S
C2012 C179 1.199 . S
C2023 C206 1.222 . S
C2028 C199 1.191 . S
C2039 C226 1.196 . S
C2044 C219 1.206 . S
C2055 C186 1.166 . S
C2060 C239 1.227 . S
C2071 C248 1.194 . S
C2076 C296 1.240 . S
C2087 C268 1.194 . S
C2092 C256 1.240 . S
C2103 C288 1.208 . S
C2108 C276 1.193 . S
C2119 C336 1.240 . S
C2124 C308 1.189 . S
C2135 C328 1.190 1_545 S
C2140 C356 1.240 . S
C2151 C348 1.188 . S
C2156 C316 1.239 1_545 S
C2167 C406 1.174 1_545 S
C2172 C379 1.221 . S
C2183 C366 1.158 . S
C2188 C399 1.234 1_545 S
C2199 C419 1.200 . S
C2204 C386 1.205 . S
C2215 C446 1.238 . S
C2220 C439 1.197 . S
C2231 C459 1.197 . S
C2236 C466 1.211 . S
C2247 C479 1.199 . S
C2252 C426 1.208 . S
C2263 C488 1.210 . S
C2268 C536 1.227 . S
C2279 C496 1.190 1_455 S
C2284 C508 1.209 . S
C2295 C516 1.149 . S
C2300 C528 1.252 1_455 S
C2311 C576 1.241 . S
C2316 C548 1.191 . S
C2327 C568 1.209 . S
C2332 C596 1.191 . S
C2343 C588 1.211 . S
C2348 C556 1.189 . S
C2359 C646 1.210 . S
C2364 C619 1.198 . S
C2375 C606 1.148 . S
C2380 C639 1.246 . S
C2391 C659 1.189 . S
C2396 C626 1.240 . S
C2407 C686 1.202 1_455 S
C2412 C679 1.202 . S
C2423 C699 1.249 . S
C2428 C706 1.165 . S
C2439 C719 1.240 1_455 S
C2444 C666 1.152 . S
