# Generated by pormake.
# Topology sml, (6)-cn, num edge types: 1
# Building blocks:
#     Node 0, Type 0, BuildingBlock: KUMBOL_clean_sbu_1, # of connection points: 6
#     Node 1, Type 0, BuildingBlock: KUMBOL_clean_sbu_1, # of connection points: 6
#     Node 2, Type 0, BuildingBlock: KUMBOL_clean_sbu_1, # of connection points: 6
#     Node 3, Type 0, BuildingBlock: KUMBOL_clean_sbu_1, # of connection points: 6
#     Node 4, Type 0, BuildingBlock: KUMBOL_clean_sbu_1, # of connection points: 6
#     Node 5, Type 0, BuildingBlock: KUMBOL_clean_sbu_1, # of connection points: 6
#     Edge 6, Type (0, 0), BuildingBlock: XUDNAN_clean_linker_2, # of connection points: 2
#     Edge 7, Type (0, 0), BuildingBlock: XUDNAN_clean_linker_2, # of connection points: 2
#     Edge 8, Type (0, 0), BuildingBlock: XUDNAN_clean_linker_2, # of connection points: 2
#     Edge 9, Type (0, 0), BuildingBlock: XUDNAN_clean_linker_2, # of connection points: 2
#     Edge 10, Type (0, 0), BuildingBlock: XUDNAN_clean_linker_2, # of connection points: 2
#     Edge 11, Type (0, 0), BuildingBlock: XUDNAN_clean_linker_2, # of connection points: 2
#     Edge 12, Type (0, 0), BuildingBlock: XUDNAN_clean_linker_2, # of connection points: 2
#     Edge 13, Type (0, 0), BuildingBlock: XUDNAN_clean_linker_2, # of connection points: 2
#     Edge 14, Type (0, 0), BuildingBlock: XUDNAN_clean_linker_2, # of connection points: 2
#     Edge 15, Type (0, 0), BuildingBlock: XUDNAN_clean_linker_2, # of connection points: 2
#     Edge 16, Type (0, 0), BuildingBlock: XUDNAN_clean_linker_2, # of connection points: 2
#     Edge 17, Type (0, 0), BuildingBlock: XUDNAN_clean_linker_2, # of connection points: 2
#     Edge 18, Type (0, 0), BuildingBlock: XUDNAN_clean_linker_2, # of connection points: 2
#     Edge 19, Type (0, 0), BuildingBlock: XUDNAN_clean_linker_2, # of connection points: 2
#     Edge 20, Type (0, 0), BuildingBlock: XUDNAN_clean_linker_2, # of connection points: 2
#     Edge 21, Type (0, 0), BuildingBlock: XUDNAN_clean_linker_2, # of connection points: 2
#     Edge 22, Type (0, 0), BuildingBlock: XUDNAN_clean_linker_2, # of connection points: 2
#     Edge 23, Type (0, 0), BuildingBlock: XUDNAN_clean_linker_2, # of connection points: 2
# Relax obj value: 0.062
# Max RMSD: 0.175
# Mean RMSD: 0.175
data_MOF--net-sml--node1-KUMBOL_clean_sbu_1--edge1-XUDNAN_clean_linker_2
_symmetry_space_group_name_H-M    P1
_symmetry_Int_Tables_number       1
_symmetry_cell_setting            triclinic
loop_
_symmetry_equiv_pos_as_xyz
'x, y, z'
_cell_length_a     33.160631
_cell_length_b     33.194486
_cell_length_c     24.326125
_cell_angle_alpha  90.27497
_cell_angle_beta   90.00802
_cell_angle_gamma 119.90085
loop_
_atom_site_label
_atom_site_type_symbol
_atom_site_fract_x
_atom_site_fract_y
_atom_site_fract_z
_atom_type_partial_charge
C0 C 0.35423 0.44747 0.07284 0.0
C1 C 0.39566 0.52862 0.10026 0.0
C2 C 0.35364 0.48738 0.08848 0.0
C3 C 0.43827 0.52986 0.09282 0.0
C4 C 0.39688 0.44784 0.06871 0.0
C5 C 0.43887 0.48954 0.07708 0.0
N6 N 0.31303 0.40755 0.0656 0.0
C7 C 0.31201 0.36619 0.05927 0.0
C8 C 0.39597 0.4058 0.05923 0.0
C9 C 0.35332 0.36465 0.05625 0.0
Gd10 Gd 0.1694 0.42244 0.94999 0.0
Gd11 Gd 0.24536 0.41316 0.07523 0.0
N12 N 0.31181 0.48524 0.09462 0.0
C13 C 0.39351 0.56692 0.12085 0.0
C14 C 0.30952 0.52148 0.11792 0.0
C15 C 0.35022 0.56299 0.13073 0.0
H16 H 0.27652 0.51814 0.12833 0.0
H17 H 0.34822 0.59173 0.14883 0.0
H18 H 0.14089 0.31098 0.92382 0.0
H19 H 0.2792 0.33408 0.05992 0.0
H20 H 0.06997 0.23553 0.91096 0.0
H21 H 0.42495 0.59914 0.13075 0.0
H22 H 0.47089 0.56144 0.10083 0.0
H23 H 0.13427 0.49775 0.9866 0.0
H24 H 0.42791 0.40444 0.05699 0.0
H25 H 0.35229 0.33166 0.05342 0.0
H26 H 0.94594 0.26821 0.93872 0.0
H27 H 0.47195 0.49058 0.07339 0.0
H28 H 0.98534 0.42386 0.98618 0.0
H29 H 0.05995 0.49687 0.9997 0.0
N30 N 0.10187 0.4255 0.96862 0.0
C31 C 0.06129 0.38484 0.9612 0.0
C32 C 0.1019 0.46541 0.9823 0.0
C33 C 0.01781 0.42384 0.9813 0.0
C34 C 0.05988 0.46513 0.98911 0.0
C35 C 0.0181 0.38303 0.96715 0.0
H36 H 0.9432 0.33884 0.96259 0.0
N37 N 0.10508 0.34712 0.94369 0.0
C38 C 0.06291 0.34468 0.94814 0.0
C39 C 0.02401 0.26252 0.92704 0.0
C40 C 0.02125 0.30216 0.94018 0.0
C41 C 0.10787 0.30875 0.92988 0.0
C42 C 0.06749 0.26587 0.92188 0.0
O43 O 0.28733 0.46139 1.00559 0.0
O44 O 0.24214 0.48254 0.95241 0.0
O45 O 0.16875 0.40622 0.86239 0.0
O46 O 0.15482 0.46128 0.89004 0.0
O47 O 0.20436 0.4509 0.08744 0.0
O48 O 0.20184 0.48535 1.00578 0.0
O49 O 0.134 0.38864 0.02934 0.0
O50 O 0.17458 0.35293 0.05404 0.0
O51 O 0.23105 0.41915 0.1632 0.0
O52 O 0.25251 0.37011 0.13504 0.0
O53 O 0.21651 0.39296 0.93306 0.0
O54 O 0.2254 0.35717 0.00997 0.0
C55 C 0.28192 0.48591 0.96664 0.0
C56 C 0.20374 0.48474 0.0598 0.0
C57 C 0.15014 0.44708 0.79223 0.0
C58 C 0.16497 0.45046 0.69382 0.0
C59 C 0.11046 0.47265 0.72979 0.0
C60 C 0.11899 0.46339 0.78293 0.0
C61 C 0.13336 0.46638 0.68554 0.0
C62 C 0.17282 0.43991 0.74734 0.0
C63 C 0.15815 0.4378 0.84898 0.0
C64 C 0.97825 0.30052 0.94516 0.0
C65 C 0.97668 0.34077 0.9587 0.0
H66 H 0.99281 0.22928 0.92037 0.0
C67 C 0.13739 0.35692 0.0574 0.0
C68 C 0.22537 0.36247 0.95622 0.0
C69 C 0.24337 0.37183 0.23266 0.0
C70 C 0.23452 0.37426 0.33222 0.0
C71 C 0.2648 0.32724 0.29294 0.0
C72 C 0.26071 0.34125 0.24044 0.0
C73 C 0.25189 0.34358 0.3385 0.0
C74 C 0.23025 0.38836 0.27885 0.0
C75 C 0.24259 0.38817 0.17647 0.0
H76 H 0.08631 0.48511 0.72292 0.0
H77 H 0.10094 0.46873 0.81683 0.0
H78 H 0.12672 0.47442 0.64455 0.0
H79 H 0.19732 0.42779 0.75409 0.0
H80 H 0.2788 0.30422 0.29841 0.0
H81 H 0.27195 0.32859 0.20593 0.0
H82 H 0.25693 0.33323 0.37893 0.0
H83 H 0.21745 0.41242 0.27341 0.0
C84 C 0.65423 0.09945 0.29809 0.0
C85 C 0.61235 0.14121 0.28519 0.0
C86 C 0.65453 0.14068 0.28875 0.0
C87 C 0.57 0.09999 0.29384 0.0
C88 C 0.61173 0.0576 0.30469 0.0
C89 C 0.5697 0.05827 0.30367 0.0
N90 N 0.69547 0.10003 0.29828 0.0
C91 C 0.69629 0.05944 0.30069 0.0
C92 C 0.61273 0.01619 0.31064 0.0
C93 C 0.65519 0.01705 0.30771 0.0
Gd94 Gd 0.84139 0.25557 0.42064 0.0
Gd95 Gd 0.76328 0.17354 0.29219 0.0
N96 N 0.69614 0.17994 0.28088 0.0
C97 C 0.614 0.18287 0.27132 0.0
C98 C 0.69755 0.21934 0.26284 0.0
C99 C 0.65676 0.22187 0.25895 0.0
H100 H 0.72977 0.24818 0.24949 0.0
H101 H 0.65828 0.25362 0.24548 0.0
H102 H 0.87225 0.17511 0.45239 0.0
H103 H 0.72841 0.05955 0.29503 0.0
H104 H 0.9438 0.17176 0.46465 0.0
H105 H 0.5824 0.18475 0.26788 0.0
H106 H 0.53726 0.09979 0.29172 0.0
H107 H 0.87503 0.36535 0.38616 0.0
H108 H 0.58088 0.98329 0.31568 0.0
H109 H 0.65625 0.98503 0.31004 0.0
H110 H 0.06604 0.32773 0.43206 0.0
H111 H 0.53674 0.02654 0.30906 0.0
H112 H 0.02387 0.44207 0.38581 0.0
H113 H 0.94846 0.43916 0.37294 0.0
N114 N 0.90866 0.32668 0.40453 0.0
C115 C 0.94963 0.32736 0.41167 0.0
C116 C 0.90775 0.36601 0.39064 0.0
C117 C 0.99176 0.40946 0.39108 0.0
C118 C 0.94926 0.40795 0.38364 0.0
C119 C 0.99236 0.3689 0.40521 0.0
H120 H 0.06739 0.4003 0.40832 0.0
N121 N 0.9069 0.24628 0.42926 0.0
C122 C 0.94876 0.28611 0.42456 0.0
C123 C 0.98883 0.24411 0.44619 0.0
C124 C 0.99081 0.2859 0.43229 0.0
C125 C 0.90489 0.20585 0.44462 0.0
C126 C 0.94569 0.20401 0.45265 0.0
O127 O 0.7223 0.1694 0.37057 0.0
O128 O 0.77061 0.24299 0.39948 0.0
O129 O 0.83235 0.23879 0.50849 0.0
O130 O 0.85237 0.30876 0.4797 0.0
O131 O 0.80399 0.25221 0.27902 0.0
O132 O 0.80898 0.28558 0.36421 0.0
O133 O 0.87932 0.2606 0.34225 0.0
O134 O 0.8351 0.18615 0.3126 0.0
O135 O 0.77437 0.19445 0.20569 0.0
O136 O 0.76545 0.12775 0.23105 0.0
O137 O 0.80025 0.17774 0.43544 0.0
O138 O 0.79411 0.14357 0.35028 0.0
C139 C 0.73171 0.20384 0.40474 0.0
C140 C 0.81209 0.28816 0.3101 0.0
C141 C 0.84563 0.29787 0.57805 0.0
C142 C 0.83864 0.28521 0.67711 0.0
C143 C 0.86334 0.36197 0.64033 0.0
C144 C 0.85975 0.3449 0.58717 0.0
C145 C 0.85292 0.33246 0.68501 0.0
C146 C 0.83516 0.26795 0.62329 0.0
C147 C 0.84369 0.28133 0.52135 0.0
C148 C 0.03343 0.32733 0.42639 0.0
C149 C 0.03421 0.36868 0.41286 0.0
H150 H 0.02036 0.2426 0.45282 0.0
C151 C 0.87244 0.22697 0.30861 0.0
C152 C 0.79178 0.14172 0.40436 0.0
C153 C 0.75571 0.13593 0.13595 0.0
C154 C 0.76969 0.14122 0.03738 0.0
C155 C 0.71414 0.06748 0.07796 0.0
C156 C 0.72306 0.08841 0.12979 0.0
C157 C 0.73767 0.09359 0.03205 0.0
C158 C 0.77825 0.16251 0.08929 0.0
C159 C 0.77317 0.1561 0.1906 0.0
H160 H 0.87469 0.39835 0.64698 0.0
H161 H 0.86852 0.36879 0.55318 0.0
H162 H 0.85703 0.34694 0.72599 0.0
H163 H 0.82443 0.23163 0.61675 0.0
H164 H 0.68972 0.03069 0.07351 0.0
H165 H 0.70576 0.06706 0.16518 0.0
H166 H 0.73094 0.07663 0.99222 0.0
H167 H 0.8042 0.19898 0.09371 0.0
C168 C 0.56057 0.91095 0.73762 0.0
C169 C 0.47794 0.86987 0.75793 0.0
C170 C 0.52009 0.86987 0.75013 0.0
C171 C 0.47693 0.91146 0.75239 0.0
C172 C 0.55975 0.95288 0.73275 0.0
C173 C 0.5177 0.95283 0.73976 0.0
N174 N 0.60087 0.91011 0.73127 0.0
C175 C 0.64181 0.95016 0.72254 0.0
C176 C 0.60143 0.99385 0.7221 0.0
C177 C 0.64271 0.99256 0.71781 0.0
Gd178 Gd 0.58221 0.74665 0.6213 0.0
Gd179 Gd 0.59588 0.83767 0.7427 0.0
N180 N 0.52195 0.82992 0.75447 0.0
C181 C 0.43809 0.8281 0.77161 0.0
C182 C 0.48353 0.78949 0.76948 0.0
C183 C 0.441 0.78783 0.77775 0.0
H184 H 0.48545 0.75855 0.77572 0.0
H185 H 0.41056 0.75554 0.78932 0.0
H186 H 0.6927 0.82723 0.58917 0.0
H187 H 0.67403 0.94963 0.72198 0.0
H188 H 0.76774 0.83107 0.57462 0.0
H189 H 0.40511 0.8267 0.77821 0.0
H190 H 0.44485 0.91208 0.75821 0.0
H191 H 0.50574 0.63567 0.64911 0.0
H192 H 0.60232 0.02682 0.71855 0.0
H193 H 0.67527 0.02442 0.71226 0.0
H194 H 0.73426 0.67422 0.60037 0.0
H195 H 0.51645 0.98472 0.73613 0.0
H196 H 0.57815 0.55903 0.64564 0.0
H197 H 0.50547 0.56149 0.65936 0.0
N198 N 0.57796 0.67467 0.6313 0.0
C199 C 0.61827 0.67415 0.62349 0.0
C200 C 0.53775 0.635 0.64393 0.0
C201 C 0.5785 0.59165 0.64142 0.0
C202 C 0.53742 0.59292 0.64934 0.0
C203 C 0.61957 0.63249 0.62817 0.0
H204 H 0.66331 0.60118 0.62292 0.0
N205 N 0.65643 0.75542 0.60861 0.0
C206 C 0.65854 0.71556 0.61132 0.0
C207 C 0.74057 0.7582 0.58993 0.0
C208 C 0.70083 0.71602 0.60272 0.0
C209 C 0.69474 0.79629 0.59445 0.0
C210 C 0.7374 0.79843 0.58547 0.0
O211 O 0.55002 0.83244 0.66896 0.0
O212 O 0.52391 0.75669 0.65005 0.0
O213 O 0.59028 0.76672 0.5346 0.0
O214 O 0.53701 0.69687 0.56007 0.0
O215 O 0.56544 0.76118 0.76236 0.0
O216 O 0.52654 0.71456 0.68718 0.0
O217 O 0.6253 0.75015 0.6944 0.0
O218 O 0.65645 0.82584 0.72406 0.0
O219 O 0.58676 0.82132 0.8311 0.0
O220 O 0.64087 0.8892 0.80181 0.0
O221 O 0.61192 0.82303 0.60408 0.0
O222 O 0.65206 0.86924 0.6786 0.0
C223 C 0.52211 0.79444 0.64133 0.0
C224 C 0.53364 0.72129 0.74082 0.0
C225 C 0.54075 0.71327 0.46218 0.0
C226 C 0.55163 0.72445 0.36267 0.0
C227 C 0.47993 0.66108 0.39936 0.0
C228 C 0.49662 0.67451 0.45263 0.0
C229 C 0.50713 0.68573 0.3548 0.0
C230 C 0.56838 0.73882 0.41677 0.0
C231 C 0.55652 0.72601 0.51978 0.0
C232 C 0.70212 0.6745 0.60688 0.0
C233 C 0.66167 0.63289 0.61969 0.0
H234 H 0.77367 0.75996 0.58284 0.0
C235 C 0.65455 0.78531 0.72486 0.0
C236 C 0.64476 0.86229 0.62534 0.0
C237 C 0.63671 0.8792 0.90057 0.0
C238 C 0.63419 0.86716 1.00023 0.0
C239 C 0.6884 0.94243 0.96123 0.0
C240 C 0.67212 0.92546 0.90866 0.0
C241 C 0.66976 0.91366 1.0066 0.0
C242 C 0.61774 0.84994 0.94666 0.0
C243 C 0.6208 0.86262 0.84378 0.0
H244 H 0.44581 0.63121 0.39254 0.0
H245 H 0.47465 0.65456 0.48652 0.0
H246 H 0.49346 0.67424 0.31368 0.0
H247 H 0.60272 0.76859 0.42332 0.0
H248 H 0.71595 0.97803 0.96683 0.0
H249 H 0.68752 0.94875 0.87421 0.0
H250 H 0.68419 0.9277 0.04674 0.0
H251 H 0.59047 0.81417 0.94088 0.0
C252 C 0.91028 0.55598 0.96911 0.0
C253 C 0.87208 0.47379 0.94599 0.0
C254 C 0.87024 0.51485 0.95527 0.0
C255 C 0.91458 0.47449 0.95156 0.0
C256 C 0.95333 0.55708 0.97286 0.0
C257 C 0.95511 0.51605 0.9648 0.0
N258 N 0.90753 0.59523 0.97656 0.0
C259 C 0.9471 0.63711 0.98471 0.0
C260 C 0.9936 0.59966 0.98293 0.0
C261 C 0.99051 0.63991 0.98794 0.0
Gd262 Gd 0.74942 0.59044 0.08943 0.0
Gd263 Gd 0.83316 0.58707 0.96378 0.0
N264 N 0.82951 0.51516 0.95012 0.0
C265 C 0.8313 0.43342 0.93028 0.0
C266 C 0.79028 0.4765 0.93218 0.0
C267 C 0.79034 0.43494 0.92281 0.0
H268 H 0.75909 0.47775 0.92435 0.0
H269 H 0.75893 0.40426 0.90916 0.0
H270 H 0.82262 0.69743 0.1324 0.0
H271 H 0.94569 0.66889 0.98679 0.0
H272 H 0.82518 0.77268 0.14309 0.0
H273 H 0.83132 0.40124 0.92262 0.0
H274 H 0.91662 0.44327 0.94472 0.0
H275 H 0.64115 0.51183 0.0491 0.0
H276 H 0.02734 0.60203 0.98548 0.0
H277 H 0.02168 0.67327 0.99379 0.0
H278 H 0.67238 0.73806 0.09041 0.0
H279 H 0.98782 0.51625 0.96779 0.0
H280 H 0.56208 0.58112 0.03951 0.0
H281 H 0.56701 0.50946 0.03047 0.0
N282 N 0.67895 0.58466 0.06323 0.0
C283 C 0.67704 0.62445 0.06886 0.0
C284 C 0.64013 0.5437 0.04999 0.0
C285 C 0.59514 0.58262 0.04593 0.0
C286 C 0.5978 0.54212 0.04057 0.0
C287 C 0.63491 0.62435 0.0607 0.0
H288 H 0.60136 0.66592 0.06244 0.0
N289 N 0.75693 0.66402 0.09419 0.0
C290 C 0.71713 0.66523 0.08447 0.0
C291 C 0.7555 0.746 0.11225 0.0
C292 C 0.71555 0.70646 0.09291 0.0
C293 C 0.79455 0.70122 0.11697 0.0
C294 C 0.79502 0.74316 0.12508 0.0
O295 O 0.8209 0.53453 0.03103 0.0
O296 O 0.77448 0.54024 0.09931 0.0
O297 O 0.75773 0.60866 0.17662 0.0
O298 O 0.6936 0.55065 0.14629 0.0
O299 O 0.75463 0.5506 0.95377 0.0
O300 O 0.72085 0.52408 0.03922 0.0
O301 O 0.74713 0.61852 1.0065 0.0
O302 O 0.82239 0.64824 0.97994 0.0
O303 O 0.81161 0.579 0.87592 0.0
O304 O 0.88324 0.62577 0.90221 0.0
O305 O 0.82705 0.62881 0.10567 0.0
O306 O 0.86984 0.64617 0.02408 0.0
C307 C 0.79859 0.52238 0.07828 0.0
C308 C 0.72133 0.51953 0.98525 0.0
C309 C 0.70985 0.54998 0.24151 0.0
C310 C 0.72824 0.55014 0.339 0.0
C311 C 0.6597 0.4843 0.29925 0.0
C312 C 0.67021 0.50596 0.24826 0.0
C313 C 0.68835 0.50613 0.34429 0.0
C314 C 0.73884 0.57213 0.28735 0.0
C315 C 0.71641 0.57496 0.18914 0.0
C316 C 0.67379 0.70651 0.08419 0.0
C317 C 0.6335 0.66553 0.06853 0.0
H318 H 0.75551 0.77821 0.1197 0.0
C319 C 0.78177 0.64553 0.9745 0.0
C320 C 0.86612 0.64983 0.07749 0.0
C321 C 0.87149 0.62248 0.80498 0.0
C322 C 0.85971 0.6279 0.70713 0.0
C323 C 0.93793 0.66245 0.7439 0.0
C324 C 0.91992 0.64749 0.79623 0.0
C325 C 0.90803 0.6528 0.69955 0.0
C326 C 0.84117 0.61234 0.7599 0.0
C327 C 0.85429 0.60839 0.86157 0.0
H328 H 0.62857 0.45085 0.3042 0.0
H329 H 0.64637 0.48868 0.21448 0.0
H330 H 0.6784 0.48908 0.38384 0.0
H331 H 0.76881 0.60663 0.28325 0.0
H332 H 0.9752 0.68177 0.73773 0.0
H333 H 0.94418 0.65569 0.82996 0.0
H334 H 0.92262 0.66494 0.65908 0.0
H335 H 0.80381 0.59329 0.76579 0.0
C336 C 0.0986 0.65045 0.39621 0.0
C337 C 0.13155 0.60325 0.42603 0.0
C338 C 0.13597 0.64724 0.41704 0.0
C339 C 0.08982 0.5628 0.41218 0.0
C340 C 0.05614 0.60981 0.3839 0.0
C341 C 0.05222 0.56607 0.39121 0.0
N342 N 0.10334 0.69324 0.38944 0.0
C343 C 0.0657 0.69757 0.3761 0.0
C344 C 0.01851 0.61433 0.36587 0.0
C345 C 0.02315 0.6584 0.36273 0.0
Gd346 Gd 0.25481 0.83342 0.28485 0.0
Gd347 Gd 0.17565 0.75659 0.41492 0.0
N348 N 0.17581 0.68699 0.4308 0.0
C349 C 0.1687 0.60117 0.45037 0.0
C350 C 0.21056 0.68494 0.45818 0.0
C351 C 0.2081 0.64218 0.46725 0.0
H352 H 0.23948 0.71608 0.47479 0.0
H353 H 0.23616 0.64084 0.4883 0.0
H354 H 0.1783 0.86298 0.2404 0.0
H355 H 0.06782 0.73104 0.37699 0.0
H356 H 0.17529 0.93452 0.22223 0.0
H357 H 0.16663 0.56807 0.45811 0.0
H358 H 0.0859 0.52876 0.41872 0.0
H359 H 0.36774 0.86803 0.31518 0.0
H360 H 0.98534 0.58399 0.35606 0.0
H361 H 0.99373 0.6622 0.35103 0.0
H362 H 0.32849 0.05719 0.26685 0.0
H363 H 0.01995 0.53451 0.38183 0.0
H364 H 0.4425 0.01629 0.31959 0.0
H365 H 0.4407 0.94137 0.32931 0.0
N366 N 0.32658 0.9004 0.30369 0.0
C367 C 0.32715 0.94136 0.29619 0.0
C368 C 0.36698 0.90012 0.31404 0.0
C369 C 0.40977 0.98407 0.31521 0.0
C370 C 0.40888 0.94183 0.32089 0.0
C371 C 0.36884 0.98427 0.30184 0.0
H372 H 0.40053 0.05912 0.2963 0.0
N373 N 0.24709 0.89887 0.27253 0.0
C374 C 0.28657 0.94055 0.27941 0.0
C375 C 0.24597 0.97998 0.2485 0.0
C376 C 0.28682 0.98231 0.26808 0.0
C377 C 0.20806 0.89625 0.25019 0.0
C378 C 0.20656 0.93672 0.23901 0.0
O379 O 0.17354 0.71978 0.33508 0.0
O380 O 0.24704 0.76257 0.29827 0.0
O381 O 0.22888 0.81258 0.20063 0.0
O382 O 0.30235 0.85813 0.21646 0.0
O383 O 0.25355 0.787 0.42695 0.0
O384 O 0.29288 0.80966 0.34232 0.0
O385 O 0.22883 0.86577 0.34768 0.0
O386 O 0.23128 0.83116 0.42765 0.0
O387 O 0.16599 0.73735 0.50112 0.0
O388 O 0.12864 0.76933 0.46498 0.0
O389 O 0.17797 0.78745 0.27565 0.0
O390 O 0.14801 0.79187 0.35937 0.0
C391 C 0.20695 0.72369 0.30224 0.0
C392 C 0.29089 0.80095 0.39563 0.0
C393 C 0.28234 0.8224 0.12845 0.0
C394 C 0.27968 0.81915 0.02826 0.0
C395 C 0.33612 0.80673 0.07781 0.0
C396 C 0.31908 0.81283 0.12771 0.0
C397 C 0.31684 0.81024 0.02838 0.0
C398 C 0.26205 0.82469 0.07848 0.0
C399 C 0.27004 0.83765 0.17943 0.0
C400 C 0.32792 0.02492 0.27528 0.0
C401 C 0.36881 0.02594 0.2921 0.0
H402 H 0.24487 0.01131 0.23926 0.0
C403 C 0.233 0.86633 0.4014 0.0
C404 C 0.14504 0.7871 0.30561 0.0
C405 C 0.12715 0.76312 0.56375 0.0
C406 C 0.14305 0.77479 0.66238 0.0
C407 C 0.07205 0.76816 0.62511 0.0
C408 C 0.08516 0.7628 0.57245 0.0
C409 C 0.10058 0.77383 0.66984 0.0
C410 C 0.15653 0.76962 0.60896 0.0
C411 C 0.13537 0.75049 0.50838 0.0
H412 H 0.36493 0.80011 0.07739 0.0
H413 H 0.33554 0.81147 0.16558 0.0
H414 H 0.33113 0.80628 0.99001 0.0
H415 H 0.23442 0.8332 0.07857 0.0
H416 H 0.03944 0.76755 0.63135 0.0
H417 H 0.06173 0.75713 0.53847 0.0
H418 H 0.08981 0.77837 0.71036 0.0
H419 H 0.18892 0.76961 0.60297 0.0
C420 C 0.45827 0.36057 0.64638 0.0
C421 C 0.53806 0.40675 0.61599 0.0
C422 C 0.49826 0.36305 0.62566 0.0
C423 C 0.53773 0.44762 0.63029 0.0
C424 C 0.45683 0.40168 0.65755 0.0
C425 C 0.49712 0.44511 0.65087 0.0
N426 N 0.41953 0.3181 0.6505 0.0
C427 C 0.37757 0.3148 0.66039 0.0
C428 C 0.4143 0.39797 0.67212 0.0
C429 C 0.37428 0.35429 0.67255 0.0
Gd430 Gd 0.42041 0.16468 0.75351 0.0
Gd431 Gd 0.42715 0.25291 0.62799 0.0
N432 N 0.49671 0.32294 0.60989 0.0
C433 C 0.57603 0.40818 0.58915 0.0
C434 C 0.53182 0.32472 0.57888 0.0
C435 C 0.57247 0.367 0.56948 0.0
H436 H 0.5282 0.29365 0.55998 0.0
H437 H 0.60057 0.36786 0.5459 0.0
H438 H 0.31186 0.13462 0.7895 0.0
H439 H 0.34642 0.28207 0.6557 0.0
H440 H 0.23665 0.06299 0.80327 0.0
H441 H 0.60717 0.44099 0.58082 0.0
H442 H 0.56806 0.48136 0.6233 0.0
H443 H 0.49986 0.12953 0.72991 0.0
H444 H 0.41161 0.42866 0.68041 0.0
H445 H 0.34071 0.35111 0.68067 0.0
H446 H 0.2702 0.94052 0.76856 0.0
H447 H 0.4967 0.47696 0.65947 0.0
H448 H 0.42639 0.9815 0.72429 0.0
H449 H 0.49971 0.05629 0.71673 0.0
N450 N 0.42591 0.09749 0.73738 0.0
C451 C 0.38544 0.0566 0.74394 0.0
C452 C 0.46688 0.09757 0.72956 0.0
C453 C 0.42583 0.01376 0.72805 0.0
C454 C 0.46725 0.05589 0.72352 0.0
C455 C 0.38447 0.01371 0.73946 0.0
H456 H 0.34173 0.93915 0.74449 0.0
N457 N 0.34676 0.09906 0.76275 0.0
C458 C 0.34503 0.05741 0.75771 0.0
C459 C 0.26352 0.01773 0.78216 0.0
C460 C 0.3031 0.01554 0.76688 0.0
C461 C 0.30912 0.10146 0.78126 0.0
C462 C 0.26668 0.06091 0.78985 0.0
O463 O 0.46191 0.28662 0.70947 0.0
O464 O 0.48416 0.23559 0.74376 0.0
O465 O 0.40949 0.17826 0.83866 0.0
O466 O 0.4472 0.14225 0.82036 0.0
O467 O 0.48066 0.23035 0.62254 0.0
O468 O 0.47966 0.18208 0.69338 0.0
O469 O 0.36362 0.13347 0.68905 0.0
O470 O 0.40321 0.17648 0.61422 0.0
O471 O 0.43821 0.25612 0.53949 0.0
O472 O 0.3746 0.25134 0.57307 0.0
O473 O 0.39109 0.2127 0.76407 0.0
O474 O 0.36177 0.21567 0.67943 0.0
C475 C 0.48588 0.27606 0.74414 0.0
C476 C 0.49597 0.20506 0.64688 0.0
C477 C 0.45913 0.17662 0.9087 0.0
C478 C 0.46079 0.18576 1.00802 0.0
C479 C 0.5309 0.20142 0.95936 0.0
C480 C 0.50665 0.19028 0.90959 0.0
C481 C 0.50806 0.19899 1.00841 0.0
C482 C 0.43638 0.17488 0.95813 0.0
C483 C 0.43115 0.1579 0.85849 0.0
C484 C 0.30211 0.97296 0.7616 0.0
C485 C 0.34267 0.9721 0.74792 0.0
H486 H 0.23068 0.98632 0.78943 0.0
C487 C 0.36716 0.14013 0.63582 0.0
C488 C 0.35944 0.21465 0.73353 0.0
C489 C 0.38269 0.25516 0.47357 0.0
C490 C 0.38402 0.24304 0.37485 0.0
C491 C 0.33174 0.26735 0.41288 0.0
C492 C 0.34818 0.26728 0.46556 0.0
C493 C 0.3495 0.25535 0.36777 0.0
C494 C 0.40068 0.24301 0.42797 0.0
C495 C 0.39884 0.25434 0.5296 0.0
H496 H 0.56728 0.21117 0.96006 0.0
H497 H 0.52471 0.19115 0.87213 0.0
H498 H 0.52712 0.20699 0.04685 0.0
H499 H 0.39951 0.1635 0.95803 0.0
H500 H 0.30488 0.2764 0.40699 0.0
H501 H 0.33384 0.27667 0.50007 0.0
H502 H 0.33556 0.25476 0.3273 0.0
H503 H 0.42712 0.23326 0.43369 0.0
H504 H 0.34871 0.22446 0.84466 0.0
H505 H 0.28602 0.21827 0.68611 0.0
H506 H 0.24364 0.25455 0.7266 0.0
H507 H 0.23015 0.18968 0.91436 0.0
H508 H 0.25918 0.21979 0.97663 0.0
H509 H 0.28335 0.19183 0.93513 0.0
H510 H 0.36138 0.26965 0.92875 0.0
H511 H 0.33696 0.29687 0.97012 0.0
H512 H 0.36119 0.32076 0.90395 0.0
H513 H 0.22436 0.30729 0.77946 0.0
H514 H 0.2074 0.35191 0.84636 0.0
H515 H 0.26414 0.30558 0.97658 0.0
C516 C 0.32542 0.22993 0.8186 0.0
C517 C 0.32425 0.22308 0.76095 0.0
C518 C 0.29092 0.22755 0.72927 0.0
C519 C 0.26595 0.24725 0.75209 0.0
C520 C 0.27103 0.25751 0.80801 0.0
C521 C 0.2972 0.24598 0.84161 0.0
C522 C 0.29308 0.2571 0.90121 0.0
C523 C 0.26477 0.21193 0.93378 0.0
C524 C 0.34109 0.28802 0.92741 0.0
C525 C 0.26582 0.28245 0.89462 0.0
C526 C 0.25318 0.2817 0.84038 0.0
C527 C 0.23223 0.30653 0.82249 0.0
C528 C 0.22312 0.33221 0.86113 0.0
C529 C 0.23432 0.33273 0.91762 0.0
C530 C 0.25521 0.30655 0.93441 0.0
H531 H 0.08461 0.38314 0.11467 0.0
H532 H 0.10376 0.2651 0.08468 0.0
H533 H 0.03579 0.21657 0.14454 0.0
H534 H 0.05602 0.35893 0.25837 0.0
H535 H 0.01551 0.38016 0.25706 0.0
H536 H 0.06438 0.40401 0.21089 0.0
H537 H 0.00828 0.38368 0.12778 0.0
H538 H 0.95919 0.35954 0.1736 0.0
H539 H 0.96189 0.32466 0.11825 0.0
H540 H 0.96153 0.1807 0.20462 0.0
H541 H 0.89567 0.16378 0.26713 0.0
H542 H 0.93278 0.30876 0.26204 0.0
C543 C 0.07478 0.3472 0.12093 0.0
C544 C 0.09921 0.32775 0.09521 0.0
C545 C 0.08546 0.28059 0.10447 0.0
C546 C 0.04685 0.25285 0.13807 0.0
C547 C 0.02332 0.27331 0.16275 0.0
C548 C 0.03753 0.31975 0.15525 0.0
C549 C 0.00826 0.33452 0.18776 0.0
C550 C 0.03781 0.37159 0.23108 0.0
C551 C 0.98291 0.35159 0.14956 0.0
C552 C 0.97468 0.289 0.21432 0.0
C553 C 0.98324 0.25376 0.19909 0.0
C554 C 0.955 0.20823 0.21726 0.0
C555 C 0.91764 0.19887 0.25245 0.0
C556 C 0.90967 0.23512 0.26962 0.0
C557 C 0.93853 0.28052 0.25009 0.0
H558 H 0.79112 0.12219 0.51559 0.0
H559 H 0.77662 0.06201 0.35354 0.0
H560 H 0.73556 0.98366 0.39243 0.0
H561 H 0.82146 0.02844 0.56638 0.0
H562 H 0.80179 0.03028 0.63487 0.0
H563 H 0.82902 0.0823 0.59381 0.0
H564 H 0.75647 0.09252 0.60591 0.0
H565 H 0.73183 0.04176 0.64827 0.0
H566 H 0.69958 0.04421 0.58974 0.0
H567 H 0.68144 0.91555 0.44624 0.0
H568 H 0.63986 0.85523 0.51406 0.0
H569 H 0.71169 0.95519 0.64559 0.0
C570 C 0.77971 0.09249 0.48847 0.0
C571 C 0.78117 0.09748 0.43063 0.0
C572 C 0.76963 0.05836 0.39696 0.0
C573 C 0.74787 0.01384 0.41891 0.0
C574 C 0.74309 0.00968 0.47549 0.0
C575 C 0.76198 0.04774 0.51018 0.0
C576 C 0.75737 0.03243 0.56963 0.0
C577 C 0.80525 0.04406 0.59254 0.0
C578 C 0.73482 0.05401 0.60536 0.0
C579 C 0.72637 0.98021 0.5626 0.0
C580 C 0.7193 0.96831 0.5076 0.0
C581 C 0.68832 0.92368 0.48956 0.0
C582 C 0.66455 0.88966 0.52882 0.0
C583 C 0.67217 0.9 0.58584 0.0
C584 C 0.70433 0.94595 0.6028 0.0
H585 H 0.62638 0.72444 0.80828 0.0
H586 H 0.7495 0.82445 0.72129 0.0
H587 H 0.79737 0.80031 0.7759 0.0
H588 H 0.68238 0.73975 0.94313 0.0
H589 H 0.64594 0.67893 0.9583 0.0
H590 H 0.62463 0.70751 0.9142 0.0
H591 H 0.6072 0.64366 0.84052 0.0
H592 H 0.63055 0.61699 0.88485 0.0
H593 H 0.65384 0.63498 0.81672 0.0
H594 H 0.83022 0.76015 0.8379 0.0
H595 H 0.84541 0.71288 0.90468 0.0
H596 H 0.69973 0.64215 0.95106 0.0
C597 C 0.66363 0.74191 0.80167 0.0
C598 C 0.68472 0.77691 0.76173 0.0
C599 C 0.7332 0.79842 0.75296 0.0
C600 C 0.76041 0.78459 0.78339 0.0
C601 C 0.73844 0.74958 0.82255 0.0
C602 C 0.69113 0.72904 0.83204 0.0
C603 C 0.67543 0.69226 0.87594 0.0
C604 C 0.656 0.70552 0.92586 0.0
C605 C 0.63966 0.64414 0.85309 0.0
C606 C 0.72108 0.69465 0.88944 0.0
C607 C 0.75716 0.72765 0.85826 0.0
C608 C 0.80223 0.73464 0.86294 0.0
C609 C 0.81056 0.70761 0.90089 0.0
C610 C 0.774 0.67415 0.93372 0.0
C611 C 0.72878 0.66777 0.92736 0.0
H612 H 0.09956 0.71444 0.23715 0.0
H613 H 0.09241 0.82943 0.31184 0.0
H614 H 0.02196 0.80961 0.25603 0.0
H615 H 0.06103 0.72203 0.10123 0.0
H616 H 0.0294 0.65962 0.09361 0.0
H617 H 0.07974 0.68688 0.13739 0.0
H618 H 0.02805 0.63334 0.21683 0.0
H619 H 0.97799 0.6083 0.17216 0.0
H620 H 0.97637 0.63483 0.23637 0.0
H621 H 0.95831 0.7817 0.18371 0.0
H622 H 0.89509 0.73799 0.11725 0.0
H623 H 0.93633 0.63343 0.10296 0.0
C624 C 0.08296 0.73532 0.24169 0.0
C625 C 0.10107 0.77364 0.27781 0.0
C626 C 0.07853 0.79992 0.28402 0.0
C627 C 0.03899 0.78914 0.25228 0.0
C628 C 0.02252 0.75156 0.21582 0.0
C629 C 0.04309 0.72433 0.21164 0.0
C630 C 0.01745 0.6844 0.17188 0.0
C631 C 0.04878 0.68857 0.12311 0.0
C632 C 0.99884 0.63744 0.20108 0.0
C633 C 0.97861 0.69294 0.15444 0.0
C634 C 0.98304 0.73267 0.17896 0.0
C635 C 0.95327 0.74947 0.16617 0.0
C636 C 0.91669 0.72379 0.12936 0.0
C637 C 0.90887 0.68069 0.10823 0.0
C638 C 0.94106 0.66584 0.11958 0.0
H639 H 0.33012 0.04563 0.64958 0.0
H640 H 0.33182 0.14757 0.5378 0.0
H641 H 0.28533 0.08494 0.47097 0.0
H642 H 0.34955 0.98157 0.55788 0.0
H643 H 0.31104 0.9249 0.58592 0.0
H644 H 0.33466 0.97525 0.62976 0.0
H645 H 0.25069 0.95387 0.6585 0.0
H646 H 0.22754 0.9036 0.61399 0.0
H647 H 0.20883 0.9457 0.60614 0.0
H648 H 0.24943 0.01424 0.41136 0.0
H649 H 0.22772 0.94101 0.36297 0.0
H650 H 0.25311 0.88523 0.51149 0.0
C651 C 0.3192 0.05459 0.61217 0.0
C652 C 0.33452 0.10161 0.59909 0.0
C653 C 0.32077 0.11192 0.54851 0.0
C654 C 0.29397 0.07649 0.51057 0.0
C655 C 0.28102 0.03077 0.5238 0.0
C656 C 0.29263 0.0195 0.57373 0.0
C657 C 0.27907 0.96842 0.57502 0.0
C658 C 0.3211 0.96221 0.58786 0.0
C659 C 0.2392 0.94132 0.61586 0.0
C660 C 0.26215 0.95413 0.5165 0.0
C661 C 0.26179 0.99004 0.48842 0.0
C662 C 0.24936 0.98585 0.43313 0.0
C663 C 0.23785 0.9443 0.40563 0.0
C664 C 0.24027 0.90789 0.43272 0.0
C665 C 0.25132 0.91254 0.48938 0.0
H666 H 0.15956 0.37288 0.6448 0.0
H667 H 0.22567 0.52276 0.63296 0.0
H668 H 0.25007 0.51933 0.53812 0.0
H669 H 0.25076 0.36462 0.55424 0.0
H670 H 0.20693 0.30996 0.52568 0.0
H671 H 0.20193 0.32513 0.5956 0.0
H672 H 0.11992 0.31075 0.57208 0.0
H673 H 0.12523 0.29885 0.50102 0.0
H674 H 0.11284 0.34436 0.5189 0.0
H675 H 0.25533 0.49927 0.44107 0.0
H676 H 0.2585 0.46487 0.35205 0.0
H677 H 0.18986 0.32788 0.42596 0.0
C678 C 0.18093 0.40496 0.62289 0.0
C679 C 0.19081 0.44817 0.64568 0.0
C680 C 0.21799 0.48949 0.61581 0.0
C681 C 0.23171 0.48784 0.56194 0.0
C682 C 0.21868 0.4446 0.53899 0.0
C683 C 0.1956 0.40397 0.56899 0.0
C684 C 0.18512 0.36212 0.53346 0.0
C685 C 0.21283 0.33911 0.55345 0.0
C686 C 0.13266 0.32696 0.53122 0.0
C687 C 0.20317 0.38552 0.47846 0.0
C688 C 0.22263 0.43308 0.48269 0.0
C689 C 0.24105 0.4621 0.43731 0.0
C690 C 0.2421 0.4422 0.38675 0.0
C691 C 0.22488 0.39379 0.3822 0.0
C692 C 0.20386 0.3651 0.42839 0.0
H693 H 0.75988 0.20832 0.9854 0.0
H694 H 0.83307 0.13086 0.97798 0.0
H695 H 0.85962 0.15968 0.88375 0.0
H696 H 0.71524 0.18442 0.85727 0.0
H697 H 0.72257 0.24046 0.84011 0.0
H698 H 0.71681 0.22292 0.91085 0.0
H699 H 0.79525 0.29568 0.9367 0.0
H700 H 0.80003 0.31508 0.86673 0.0
H701 H 0.84649 0.30945 0.89717 0.0
H702 H 0.86749 0.18676 0.7859 0.0
H703 H 0.86974 0.2238 0.6969 0.0
H704 H 0.78872 0.28076 0.768 0.0
C705 C 0.78292 0.19899 0.96448 0.0
C706 C 0.79456 0.16748 0.98821 0.0
C707 C 0.82397 0.15502 0.95985 0.0
C708 C 0.83899 0.17105 0.90645 0.0
C709 C 0.82424 0.19951 0.88243 0.0
C710 C 0.7981 0.21462 0.91107 0.0
C711 C 0.78486 0.24313 0.87479 0.0
C712 C 0.73172 0.2214 0.8705 0.0
C713 C 0.80804 0.29382 0.89508 0.0
C714 C 0.80566 0.23973 0.8209 0.0
C715 C 0.82857 0.21481 0.8261 0.0
C716 C 0.85032 0.20704 0.78151 0.0
C717 C 0.8509 0.22764 0.731 0.0
C718 C 0.82992 0.25559 0.72595 0.0
C719 C 0.80563 0.26012 0.771 0.0
H720 H 0.57961 0.812 0.32103 0.0
H721 H 0.58247 0.68479 0.28974 0.0
H722 H 0.60095 0.70642 0.19235 0.0
H723 H 0.52743 0.81682 0.20367 0.0
H724 H 0.56235 0.87792 0.18883 0.0
H725 H 0.55664 0.85801 0.25859 0.0
H726 H 0.64591 0.89599 0.26923 0.0
H727 H 0.65211 0.91834 0.20051 0.0
H728 H 0.6784 0.88404 0.21867 0.0
H729 H 0.59936 0.73204 0.09632 0.0
H730 H 0.61394 0.77636 0.01019 0.0
H731 H 0.61602 0.88952 0.10297 0.0
C732 C 0.58634 0.78992 0.29416 0.0
C733 C 0.57936 0.74653 0.31263 0.0
C734 C 0.58767 0.71809 0.27617 0.0
C735 C 0.59761 0.72982 0.2207 0.0
C736 C 0.60036 0.77079 0.2026 0.0
C737 C 0.59758 0.80177 0.23853 0.0
C738 C 0.60267 0.84378 0.20762 0.0
C739 C 0.55969 0.84941 0.21514 0.0
C740 C 0.64743 0.88815 0.22507 0.0
C741 C 0.6064 0.8302 0.14895 0.0
C742 C 0.60431 0.78772 0.147 0.0
C743 C 0.60415 0.76663 0.09727 0.0
C744 C 0.61118 0.79163 0.04845 0.0
C745 C 0.61741 0.83703 0.04981 0.0
C746 C 0.6129 0.8555 0.10067 0.0
H747 H 0.82007 0.5514 0.64111 0.0
H748 H 0.83848 0.68918 0.662 0.0
H749 H 0.8112 0.68668 0.56665 0.0
H750 H 0.86129 0.5657 0.50858 0.0
H751 H 0.82041 0.50847 0.48318 0.0
H752 H 0.83516 0.51721 0.55514 0.0
H753 H 0.74862 0.48262 0.58247 0.0
H754 H 0.73323 0.4712 0.51081 0.0
H755 H 0.71444 0.50469 0.55071 0.0
H756 H 0.78845 0.67168 0.46675 0.0
H757 H 0.75898 0.63969 0.37384 0.0
H758 H 0.75754 0.51256 0.41816 0.0
C759 C 0.81622 0.58001 0.6262 0.0
C760 C 0.83025 0.62011 0.65867 0.0
C761 C 0.82673 0.65785 0.63766 0.0
C762 C 0.81179 0.65689 0.58355 0.0
C763 C 0.80024 0.61773 0.55145 0.0
C764 C 0.80111 0.57946 0.57237 0.0
C765 C 0.78844 0.5424 0.52873 0.0
C766 C 0.82874 0.53292 0.5183 0.0
C767 C 0.74351 0.49759 0.54411 0.0
C768 C 0.78076 0.56598 0.48003 0.0
C769 C 0.78802 0.60951 0.49377 0.0
C770 C 0.78228 0.63746 0.45555 0.0
C771 C 0.76607 0.61926 0.40274 0.0
C772 C 0.75561 0.57352 0.38909 0.0
C773 C 0.76489 0.5475 0.42768 0.0
H774 H 0.11975 0.72897 0.76076 0.0
H775 H 0.23407 0.84188 0.67373 0.0
H776 H 0.27854 0.8681 0.76078 0.0
H777 H 0.12527 0.78962 0.88035 0.0
H778 H 0.11362 0.74367 0.92804 0.0
H779 H 0.0916 0.72976 0.85875 0.0
H780 H 0.13287 0.6819 0.84243 0.0
H781 H 0.15262 0.6934 0.91272 0.0
H782 H 0.19404 0.70781 0.85784 0.0
H783 H 0.30613 0.88893 0.85761 0.0
H784 H 0.32595 0.88861 0.95557 0.0
H785 H 0.19497 0.76154 0.98031 0.0
C786 C 0.15451 0.75885 0.76002 0.0
C787 C 0.17341 0.78384 0.71084 0.0
C788 C 0.21906 0.82236 0.71099 0.0
C789 C 0.24421 0.83798 0.76028 0.0
C790 C 0.22332 0.81462 0.80867 0.0
C791 C 0.18028 0.77478 0.80873 0.0
C792 C 0.16639 0.75537 0.86631 0.0
C793 C 0.12157 0.75459 0.88443 0.0
C794 C 0.1612 0.70675 0.87002 0.0
C795 C 0.20826 0.79094 0.89873 0.0
C796 C 0.24023 0.82525 0.86463 0.0
C797 C 0.28182 0.86186 0.88459 0.0
C798 C 0.29262 0.86161 0.94018 0.0
C799 C 0.26206 0.82498 0.9749 0.0
C800 C 0.21861 0.79013 0.9545 0.0
H801 H 0.41809 0.29067 0.27973 0.0
H802 H 0.38503 0.16168 0.36042 0.0
H803 H 0.3961 0.1308 0.27214 0.0
H804 H 0.3593 0.24387 0.15722 0.0
H805 H 0.40214 0.28748 0.11271 0.0
H806 H 0.39682 0.30196 0.18275 0.0
H807 H 0.48373 0.32948 0.20255 0.0
H808 H 0.48987 0.31779 0.13162 0.0
H809 H 0.50639 0.29166 0.18539 0.0
H810 H 0.40044 0.11044 0.17289 0.0
H811 H 0.42085 0.11065 0.07474 0.0
H812 H 0.45162 0.25315 0.06016 0.0
C813 C 0.41376 0.2561 0.27883 0.0
C814 C 0.40011 0.2282 0.3263 0.0
C815 C 0.39538 0.18344 0.32423 0.0
C816 C 0.40077 0.16536 0.27424 0.0
C817 C 0.41096 0.1926 0.22725 0.0
C818 C 0.41913 0.23765 0.22956 0.0
C819 C 0.43101 0.26031 0.17364 0.0
C820 C 0.39517 0.2742 0.15551 0.0
C821 C 0.4807 0.30228 0.17331 0.0
C822 C 0.42759 0.22072 0.13915 0.0
C823 C 0.41532 0.1817 0.17068 0.0
C824 C 0.41064 0.14094 0.14796 0.0
C825 C 0.42183 0.14118 0.09233 0.0
C826 C 0.43752 0.18186 0.06067 0.0
C827 C 0.43903 0.22154 0.08375 0.0
H828 H 0.26115 0.57831 0.07818 0.0
H829 H 0.12402 0.46277 0.11291 0.0
H830 H 0.10837 0.51278 0.1744 0.0
H831 H 0.28626 0.62107 0.21205 0.0
H832 H 0.31625 0.68227 0.19644 0.0
H833 H 0.31622 0.64158 0.14742 0.0
H834 H 0.28153 0.6688 0.07178 0.0
H835 H 0.28345 0.7118 0.11882 0.0
H836 H 0.22954 0.67165 0.08546 0.0
H837 H 0.10901 0.57349 0.23538 0.0
H838 H 0.12587 0.64047 0.29381 0.0
H839 H 0.265 0.71688 0.22546 0.0
C840 C 0.22756 0.56407 0.09795 0.0
C841 C 0.19352 0.51679 0.09096 0.0
C842 C 0.15034 0.49883 0.11808 0.0
C843 C 0.14116 0.52705 0.15284 0.0
C844 C 0.1758 0.57319 0.1603 0.0
C845 C 0.21813 0.59177 0.13363 0.0
C846 C 0.25038 0.64155 0.1522 0.0
C847 C 0.29489 0.64686 0.17867 0.0
C848 C 0.26187 0.67543 0.10415 0.0
C849 C 0.22 0.64751 0.19437 0.0
C850 C 0.17689 0.60785 0.19757 0.0
C851 C 0.14274 0.60468 0.23338 0.0
C852 C 0.15291 0.64296 0.26699 0.0
C853 C 0.19719 0.68382 0.2656 0.0
C854 C 0.231 0.68607 0.22822 0.0
H855 H 0.65802 0.13536 0.46751 0.0
H856 H 0.72214 0.27911 0.41449 0.0
H857 H 0.6738 0.29302 0.47815 0.0
H858 H 0.54007 0.11683 0.48402 0.0
H859 H 0.52771 0.08323 0.54613 0.0
H860 H 0.56795 0.08294 0.49664 0.0
H861 H 0.63051 0.10884 0.57302 0.0
H862 H 0.59059 0.11015 0.62242 0.0
H863 H 0.64643 0.16118 0.61156 0.0
H864 H 0.63319 0.29755 0.55851 0.0
H865 H 0.57394 0.28493 0.62737 0.0
H866 H 0.51816 0.13618 0.61677 0.0
C867 C 0.66092 0.16931 0.46861 0.0
C868 C 0.69452 0.20632 0.43607 0.0
C869 C 0.69738 0.25032 0.43904 0.0
C870 C 0.67033 0.25887 0.47566 0.0
C871 C 0.63983 0.22299 0.50922 0.0
C872 C 0.63316 0.17855 0.50507 0.0
C873 C 0.59567 0.14668 0.54569 0.0
C874 C 0.55543 0.10496 0.51631 0.0
C875 C 0.61706 0.13073 0.59081 0.0
C876 C 0.58075 0.17986 0.56977 0.0
C877 C 0.60952 0.22423 0.55053 0.0
C878 C 0.60845 0.26264 0.57148 0.0
C879 C 0.57434 0.25516 0.60983 0.0
C880 C 0.53914 0.20975 0.62306 0.0
C881 C 0.54365 0.17133 0.60544 0.0
H882 H 0.3014 0.49943 0.8561 0.0
H883 H 0.35519 0.55657 0.01715 0.0
H884 H 0.42716 0.61808 0.97602 0.0
H885 H 0.41451 0.52654 0.79578 0.0
H886 H 0.40173 0.54167 0.72956 0.0
H887 H 0.35524 0.49938 0.77166 0.0
H888 H 0.31356 0.54758 0.76661 0.0
H889 H 0.35979 0.58999 0.72453 0.0
H890 H 0.34424 0.60782 0.78741 0.0
H891 H 0.49135 0.67232 0.92017 0.0
H892 H 0.5453 0.72388 0.85115 0.0
H893 H 0.45084 0.63787 0.72113 0.0
C894 C 0.32871 0.52488 0.88235 0.0
C895 C 0.32397 0.52262 0.94027 0.0
C896 C 0.35956 0.55657 0.97343 0.0
C897 C 0.40019 0.59188 0.95016 0.0
C898 C 0.40447 0.59284 0.89327 0.0
C899 C 0.36985 0.56067 0.85942 0.0
C900 C 0.38353 0.57146 0.79926 0.0
C901 C 0.38907 0.53244 0.77248 0.0
C902 C 0.34818 0.57974 0.76761 0.0
C903 C 0.4304 0.61581 0.80507 0.0
C904 C 0.44175 0.62638 0.85992 0.0
C905 C 0.48297 0.66471 0.87701 0.0
C906 C 0.51343 0.69389 0.83713 0.0
C907 C 0.50238 0.68543 0.78038 0.0
C908 C 0.46044 0.64529 0.76406 0.0
H909 H 0.86955 0.35036 0.2313 0.0
H910 H 0.74564 0.31008 0.32838 0.0
H911 H 0.72792 0.36125 0.27364 0.0
H912 H 0.89683 0.4751 0.22607 0.0
H913 H 0.92259 0.48448 0.15875 0.0
H914 H 0.92574 0.44382 0.20498 0.0
H915 H 0.88799 0.37977 0.13043 0.0
H916 H 0.8836 0.4198 0.08438 0.0
H917 H 0.8323 0.36585 0.10185 0.0
H918 H 0.71693 0.40538 0.20276 0.0
H919 H 0.72378 0.46293 0.1362 0.0
H920 H 0.86187 0.48957 0.0907 0.0
C921 C 0.83918 0.35312 0.2412 0.0
C922 C 0.80821 0.32569 0.28326 0.0
C923 C 0.76958 0.33084 0.29647 0.0
C924 C 0.75894 0.35932 0.2651 0.0
C925 C 0.78881 0.38444 0.22256 0.0
C926 C 0.82938 0.38381 0.21209 0.0
C927 C 0.85725 0.41859 0.16718 0.0
C928 C 0.90334 0.45783 0.19063 0.0
C929 C 0.86577 0.39453 0.11803 0.0
C930 C 0.82435 0.4365 0.15218 0.0
C931 C 0.78494 0.41528 0.18456 0.0
C932 C 0.74818 0.42349 0.17832 0.0
C933 C 0.75258 0.45641 0.14019 0.0
C934 C 0.79402 0.48205 0.10938 0.0
C935 C 0.83001 0.4709 0.11402 0.0
H936 H 0.37404 0.86897 0.44267 0.0
H937 H 0.29364 0.72224 0.40266 0.0
H938 H 0.34199 0.70622 0.46561 0.0
H939 H 0.48699 0.86217 0.44416 0.0
H940 H 0.5138 0.90756 0.49516 0.0
H941 H 0.47335 0.90834 0.44618 0.0
H942 H 0.42445 0.91241 0.52648 0.0
H943 H 0.46405 0.91051 0.57567 0.0
H944 H 0.40294 0.868 0.57851 0.0
H945 H 0.38742 0.70384 0.54189 0.0
H946 H 0.44645 0.71494 0.60932 0.0
H947 H 0.51116 0.86493 0.59205 0.0
C948 C 0.36768 0.83377 0.44639 0.0
C949 C 0.32879 0.79615 0.42024 0.0
C950 C 0.32199 0.75087 0.42445 0.0
C951 C 0.34935 0.74155 0.45985 0.0
C952 C 0.38546 0.77854 0.48788 0.0
C953 C 0.39681 0.82408 0.47936 0.0
C954 C 0.44073 0.85694 0.51165 0.0
C955 C 0.48111 0.88546 0.47194 0.0
C956 C 0.43249 0.88882 0.5504 0.0
C957 C 0.44914 0.82217 0.54334 0.0
C958 C 0.4164 0.77734 0.52842 0.0
C959 C 0.41439 0.73867 0.55262 0.0
C960 C 0.44821 0.74552 0.5912 0.0
C961 C 0.48428 0.79078 0.6053 0.0
C962 C 0.48425 0.8299 0.58184 0.0
H963 H 0.70227 0.50392 0.8741 0.0
H964 H 0.64896 0.44345 0.03427 0.0
H965 H 0.58145 0.37759 0.98952 0.0
H966 H 0.59362 0.4695 0.80586 0.0
H967 H 0.61079 0.45494 0.74183 0.0
H968 H 0.65406 0.49877 0.78626 0.0
H969 H 0.69941 0.45405 0.78822 0.0
H970 H 0.65648 0.41007 0.74361 0.0
H971 H 0.67001 0.39401 0.80884 0.0
H972 H 0.52105 0.31703 0.92812 0.0
H973 H 0.47221 0.26483 0.85354 0.0
H974 H 0.5642 0.36243 0.73213 0.0
C975 C 0.67626 0.47705 0.89991 0.0
C976 C 0.68065 0.47959 0.95805 0.0
C977 C 0.64613 0.44303 0.9899 0.0
C978 C 0.60766 0.40529 0.9648 0.0
C979 C 0.6044 0.40401 0.90762 0.0
C980 C 0.63792 0.43867 0.87546 0.0
C981 C 0.62733 0.42741 0.8147 0.0
C982 C 0.62106 0.46489 0.78545 0.0
C983 C 0.66557 0.42101 0.78721 0.0
C984 C 0.5818 0.3816 0.81775 0.0
C985 C 0.56959 0.36867 0.87189 0.0
C986 C 0.53015 0.32692 0.88563 0.0
C987 C 0.50266 0.2974 0.84305 0.0
C988 C 0.51429 0.30975 0.7874 0.0
C989 C 0.55419 0.35261 0.77449 0.0
loop_
_geom_bond_atom_site_label_1
_geom_bond_atom_site_label_2
_geom_bond_distance
_geom_bond_site_symmetry_2
_ccdc_geom_bond_type
C0 C2 1.422 . S
C0 C4 1.415 . S
C0 N6 1.369 . S
C1 C2 1.421 . S
C1 C3 1.417 . S
C1 C13 1.422 . S
C2 C0 1.422 . S
C2 C1 1.421 . S
C2 N12 1.359 . S
C3 C1 1.417 . S
C3 C5 1.329 . S
C3 H22 0.930 . S
C4 C0 1.415 . S
C4 C5 1.437 . S
C4 C8 1.413 . S
C5 C3 1.329 . S
C5 C4 1.437 . S
C5 H27 0.929 . S
N6 C0 1.369 . S
N6 C7 1.338 . S
N6 Gd11 2.622 . S
C7 N6 1.338 . S
C7 C9 1.378 . S
C7 H19 0.929 . S
C8 C4 1.413 . S
C8 C9 1.348 . S
C8 H24 0.931 . S
C9 C7 1.378 . S
C9 C8 1.348 . S
C9 H25 0.930 . S
Gd10 N30 2.622 . S
Gd10 N37 2.570 . S
Gd10 O44 2.353 . S
Gd10 O45 2.468 . S
Gd10 O46 2.427 . S
Gd10 O48 2.388 . S
Gd10 O49 2.386 1_556 S
Gd10 O53 2.307 . S
Gd10 C63 2.805 . S
Gd11 N6 2.622 . S
Gd11 N12 2.570 . S
Gd11 O43 2.386 1_554 S
Gd11 O47 2.307 . S
Gd11 O50 2.353 . S
Gd11 O51 2.468 . S
Gd11 O52 2.427 . S
Gd11 O54 2.388 . S
Gd11 C75 2.805 . S
N12 C2 1.359 . S
N12 Gd11 2.570 . S
N12 C14 1.343 . S
C13 C1 1.422 . S
C13 C15 1.321 . S
C13 H21 0.931 . S
C14 N12 1.343 . S
C14 C15 1.390 . S
C14 H16 0.931 . S
C15 C13 1.321 . S
C15 C14 1.390 . S
C15 H17 0.930 . S
H16 C14 0.931 . S
H17 C15 0.930 . S
H18 C41 0.931 . S
H19 C7 0.929 . S
H20 C42 0.930 . S
H21 C13 0.931 . S
H22 C3 0.930 . S
H23 C32 0.929 . S
H24 C8 0.931 . S
H25 C9 0.930 . S
H26 C64 0.930 . S
H27 C5 0.929 . S
H28 C33 0.922 1_655 S
H29 C34 0.930 . S
N30 Gd10 2.622 . S
N30 C31 1.369 . S
N30 C32 1.338 . S
C31 N30 1.369 . S
C31 C35 1.413 1_455 S
C31 C38 1.422 . S
C32 H23 0.929 . S
C32 N30 1.338 . S
C32 C34 1.378 . S
C33 H28 0.922 1_455 S
C33 C34 1.353 . S
C33 C35 1.418 1_455 S
C34 H29 0.930 . S
C34 C32 1.378 . S
C34 C33 1.353 . S
C35 C31 1.413 1_655 S
C35 C33 1.418 1_655 S
C35 C65 1.438 . S
H36 C65 0.929 . S
N37 Gd10 2.570 . S
N37 C38 1.359 . S
N37 C41 1.343 . S
C38 C31 1.422 . S
C38 N37 1.359 . S
C38 C40 1.429 . S
C39 C40 1.431 . S
C39 C42 1.321 . S
C39 H66 0.931 1_455 S
C40 C38 1.429 . S
C40 C39 1.431 . S
C40 C64 1.402 1_455 S
C41 H18 0.931 . S
C41 N37 1.343 . S
C41 C42 1.390 . S
C42 H20 0.930 . S
C42 C39 1.321 . S
C42 C41 1.390 . S
O43 Gd11 2.386 1_556 S
O43 C55 1.265 . S
O44 Gd10 2.353 . S
O44 C55 1.242 . S
O45 Gd10 2.468 . S
O45 C63 1.263 . S
O46 Gd10 2.427 . S
O46 C63 1.252 . S
O47 Gd11 2.307 . S
O47 C56 1.261 . S
O48 Gd10 2.388 . S
O48 C56 1.252 1_556 S
O49 Gd10 2.386 1_554 S
O49 C67 1.265 . S
O50 Gd11 2.353 . S
O50 C67 1.242 . S
O51 Gd11 2.468 . S
O51 C75 1.263 . S
O52 Gd11 2.427 . S
O52 C75 1.252 . S
O53 Gd10 2.307 . S
O53 C68 1.261 . S
O54 Gd11 2.388 . S
O54 C68 1.252 1_554 S
C55 O43 1.265 . S
C55 O44 1.242 . S
C56 O47 1.261 . S
C56 O48 1.252 1_554 S
C57 C60 1.394 . S
C57 C62 1.370 . S
C57 C63 1.500 . S
C58 C61 1.383 . S
C58 C62 1.395 . S
C59 C60 1.396 . S
C59 C61 1.365 . S
C59 H76 0.929 . S
C60 C57 1.394 . S
C60 C59 1.396 . S
C60 H77 0.930 . S
C61 C58 1.383 . S
C61 C59 1.365 . S
C61 H78 0.931 . S
C62 C57 1.370 . S
C62 C58 1.395 . S
C62 H79 0.930 . S
C63 Gd10 2.805 . S
C63 O45 1.263 . S
C63 O46 1.252 . S
C63 C57 1.500 . S
C64 H26 0.930 . S
C64 C40 1.402 1_655 S
C64 C65 1.329 . S
C65 C35 1.438 . S
C65 H36 0.929 . S
C65 C64 1.329 . S
H66 C39 0.931 1_655 S
C67 O49 1.265 . S
C67 O50 1.242 . S
C68 O53 1.261 . S
C68 O54 1.252 1_556 S
C69 C72 1.394 . S
C69 C74 1.370 . S
C69 C75 1.500 . S
C70 C73 1.383 . S
C70 C74 1.395 . S
C71 C72 1.396 . S
C71 C73 1.365 . S
C71 H80 0.929 . S
C72 C69 1.394 . S
C72 C71 1.396 . S
C72 H81 0.930 . S
C73 C70 1.383 . S
C73 C71 1.365 . S
C73 H82 0.931 . S
C74 C69 1.370 . S
C74 C70 1.395 . S
C74 H83 0.930 . S
C75 Gd11 2.805 . S
C75 O51 1.263 . S
C75 O52 1.252 . S
C75 C69 1.500 . S
H76 C59 0.929 . S
H77 C60 0.930 . S
H78 C61 0.931 . S
H79 C62 0.930 . S
H80 C71 0.929 . S
H81 C72 0.930 . S
H82 C73 0.931 . S
H83 C74 0.930 . S
C84 C86 1.422 . S
C84 C88 1.415 . S
C84 N90 1.369 . S
C85 C86 1.421 . S
C85 C87 1.417 . S
C85 C97 1.422 . S
C86 C84 1.422 . S
C86 C85 1.421 . S
C86 N96 1.359 . S
C87 C85 1.417 . S
C87 C89 1.329 . S
C87 H106 0.930 . S
C88 C84 1.415 . S
C88 C89 1.437 . S
C88 C92 1.414 . S
C89 C87 1.329 . S
C89 C88 1.437 . S
C89 H111 0.929 . S
N90 C84 1.369 . S
N90 C91 1.338 . S
N90 Gd95 2.622 . S
C91 N90 1.338 . S
C91 C93 1.378 . S
C91 H103 0.929 . S
C92 C88 1.414 . S
C92 C93 1.347 . S
C92 H108 0.931 1_545 S
C93 C91 1.378 . S
C93 C92 1.347 . S
C93 H109 0.930 1_545 S
Gd94 N114 2.622 . S
Gd94 N121 2.570 . S
Gd94 O128 2.353 . S
Gd94 O129 2.468 . S
Gd94 O130 2.427 . S
Gd94 O132 2.388 . S
Gd94 O133 2.386 . S
Gd94 O137 2.307 . S
Gd94 C147 2.805 . S
Gd95 N90 2.622 . S
Gd95 N96 2.570 . S
Gd95 O127 2.386 . S
Gd95 O131 2.307 . S
Gd95 O134 2.353 . S
Gd95 O135 2.468 . S
Gd95 O136 2.427 . S
Gd95 O138 2.388 . S
Gd95 C159 2.805 . S
N96 C86 1.359 . S
N96 Gd95 2.570 . S
N96 C98 1.343 . S
C97 C85 1.422 . S
C97 C99 1.321 . S
C97 H105 0.931 . S
C98 N96 1.343 . S
C98 C99 1.390 . S
C98 H100 0.931 . S
C99 C97 1.321 . S
C99 C98 1.390 . S
C99 H101 0.930 . S
H100 C98 0.931 . S
H101 C99 0.930 . S
H102 C125 0.931 . S
H103 C91 0.929 . S
H104 C126 0.930 . S
H105 C97 0.931 . S
H106 C87 0.930 . S
H107 C116 0.929 . S
H108 C92 0.931 1_565 S
H109 C93 0.930 1_565 S
H110 C148 0.930 . S
H111 C89 0.929 . S
H112 C117 0.926 1_455 S
H113 C118 0.930 . S
N114 Gd94 2.622 . S
N114 C115 1.369 . S
N114 C116 1.338 . S
C115 N114 1.369 . S
C115 C119 1.414 1_655 S
C115 C122 1.422 . S
C116 H107 0.929 . S
C116 N114 1.338 . S
C116 C118 1.378 . S
C117 H112 0.926 1_655 S
C117 C118 1.357 . S
C117 C119 1.408 1_655 S
C118 H113 0.930 . S
C118 C116 1.378 . S
C118 C117 1.357 . S
C119 C115 1.414 1_455 S
C119 C117 1.408 1_455 S
C119 C149 1.439 . S
H120 C149 0.929 . S
N121 Gd94 2.570 . S
N121 C122 1.359 . S
N121 C125 1.343 . S
C122 C115 1.422 . S
C122 N121 1.359 . S
C122 C124 1.437 . S
C123 C124 1.415 . S
C123 C126 1.321 . S
C123 H150 0.931 1_655 S
C124 C122 1.437 . S
C124 C123 1.415 . S
C124 C148 1.410 1_655 S
C125 H102 0.931 . S
C125 N121 1.343 . S
C125 C126 1.390 . S
C126 H104 0.930 . S
C126 C123 1.321 . S
C126 C125 1.390 . S
O127 Gd95 2.386 . S
O127 C139 1.265 . S
O128 Gd94 2.353 . S
O128 C139 1.242 . S
O129 Gd94 2.468 . S
O129 C147 1.263 . S
O130 Gd94 2.427 . S
O130 C147 1.252 . S
O131 Gd95 2.307 . S
O131 C140 1.261 . S
O132 Gd94 2.388 . S
O132 C140 1.252 . S
O133 Gd94 2.386 . S
O133 C151 1.265 . S
O134 Gd95 2.353 . S
O134 C151 1.242 . S
O135 Gd95 2.468 . S
O135 C159 1.263 . S
O136 Gd95 2.427 . S
O136 C159 1.252 . S
O137 Gd94 2.307 . S
O137 C152 1.261 . S
O138 Gd95 2.388 . S
O138 C152 1.252 . S
C139 O127 1.265 . S
C139 O128 1.242 . S
C140 O131 1.261 . S
C140 O132 1.252 . S
C141 C144 1.394 . S
C141 C146 1.370 . S
C141 C147 1.500 . S
C142 C145 1.383 . S
C142 C146 1.395 . S
C143 C144 1.396 . S
C143 C145 1.365 . S
C143 H160 0.929 . S
C144 C141 1.394 . S
C144 C143 1.396 . S
C144 H161 0.930 . S
C145 C142 1.383 . S
C145 C143 1.365 . S
C145 H162 0.931 . S
C146 C141 1.370 . S
C146 C142 1.395 . S
C146 H163 0.930 . S
C147 Gd94 2.805 . S
C147 O129 1.263 . S
C147 O130 1.252 . S
C147 C141 1.500 . S
C148 H110 0.930 . S
C148 C124 1.410 1_455 S
C148 C149 1.329 . S
C149 C119 1.439 . S
C149 H120 0.929 . S
C149 C148 1.329 . S
H150 C123 0.931 1_455 S
C151 O133 1.265 . S
C151 O134 1.242 . S
C152 O137 1.261 . S
C152 O138 1.252 . S
C153 C156 1.394 . S
C153 C158 1.370 . S
C153 C159 1.500 . S
C154 C157 1.383 . S
C154 C158 1.395 . S
C155 C156 1.396 . S
C155 C157 1.365 . S
C155 H164 0.929 . S
C156 C153 1.394 . S
C156 C155 1.396 . S
C156 H165 0.930 . S
C157 C154 1.383 . S
C157 C155 1.365 . S
C157 H166 0.931 1_554 S
C158 C153 1.370 . S
C158 C154 1.395 . S
C158 H167 0.930 . S
C159 Gd95 2.805 . S
C159 O135 1.263 . S
C159 O136 1.252 . S
C159 C153 1.500 . S
H160 C143 0.929 . S
H161 C144 0.930 . S
H162 C145 0.931 . S
H163 C146 0.930 . S
H164 C155 0.929 . S
H165 C156 0.930 . S
H166 C157 0.931 1_556 S
H167 C158 0.930 . S
C168 C170 1.422 . S
C168 C172 1.415 . S
C168 N174 1.369 . S
C169 C170 1.421 . S
C169 C171 1.417 . S
C169 C181 1.422 . S
C170 C168 1.422 . S
C170 C169 1.421 . S
C170 N180 1.359 . S
C171 C169 1.417 . S
C171 C173 1.329 . S
C171 H190 0.930 . S
C172 C168 1.415 . S
C172 C173 1.437 . S
C172 C176 1.413 . S
C173 C171 1.329 . S
C173 C172 1.437 . S
C173 H195 0.929 . S
N174 C168 1.369 . S
N174 C175 1.338 . S
N174 Gd179 2.622 . S
C175 N174 1.338 . S
C175 C177 1.378 . S
C175 H187 0.929 . S
C176 C172 1.413 . S
C176 C177 1.348 . S
C176 H192 0.930 1_565 S
C177 C175 1.378 . S
C177 C176 1.348 . S
C177 H193 0.930 1_565 S
Gd178 N198 2.622 . S
Gd178 N205 2.570 . S
Gd178 O212 2.353 . S
Gd178 O213 2.468 . S
Gd178 O214 2.427 . S
Gd178 O216 2.388 . S
Gd178 O217 2.386 . S
Gd178 O221 2.307 . S
Gd178 C231 2.805 . S
Gd179 N174 2.622 . S
Gd179 N180 2.570 . S
Gd179 O211 2.386 . S
Gd179 O215 2.307 . S
Gd179 O218 2.353 . S
Gd179 O219 2.468 . S
Gd179 O220 2.427 . S
Gd179 O222 2.388 . S
Gd179 C243 2.805 . S
N180 C170 1.359 . S
N180 Gd179 2.570 . S
N180 C182 1.343 . S
C181 C169 1.422 . S
C181 C183 1.321 . S
C181 H189 0.931 . S
C182 N180 1.343 . S
C182 C183 1.390 . S
C182 H184 0.931 . S
C183 C181 1.321 . S
C183 C182 1.390 . S
C183 H185 0.930 . S
H184 C182 0.931 . S
H185 C183 0.930 . S
H186 C209 0.931 . S
H187 C175 0.929 . S
H188 C210 0.930 . S
H189 C181 0.931 . S
H190 C171 0.930 . S
H191 C200 0.929 . S
H192 C176 0.930 1_545 S
H193 C177 0.930 1_545 S
H194 C232 0.930 . S
H195 C173 0.929 . S
H196 C201 0.931 . S
H197 C202 0.930 . S
N198 Gd178 2.622 . S
N198 C199 1.369 . S
N198 C200 1.338 . S
C199 N198 1.369 . S
C199 C203 1.415 . S
C199 C206 1.422 . S
C200 H191 0.929 . S
C200 N198 1.338 . S
C200 C202 1.378 . S
C201 H196 0.931 . S
C201 C202 1.348 . S
C201 C203 1.413 . S
C202 H197 0.930 . S
C202 C200 1.378 . S
C202 C201 1.348 . S
C203 C199 1.415 . S
C203 C201 1.413 . S
C203 C233 1.437 . S
H204 C233 0.929 . S
N205 Gd178 2.570 . S
N205 C206 1.359 . S
N205 C209 1.343 . S
C206 C199 1.422 . S
C206 N205 1.359 . S
C206 C208 1.421 . S
C207 C208 1.422 . S
C207 C210 1.321 . S
C207 H234 0.931 . S
C208 C206 1.421 . S
C208 C207 1.422 . S
C208 C232 1.417 . S
C209 H186 0.931 . S
C209 N205 1.343 . S
C209 C210 1.390 . S
C210 H188 0.930 . S
C210 C207 1.321 . S
C210 C209 1.390 . S
O211 Gd179 2.386 . S
O211 C223 1.265 . S
O212 Gd178 2.353 . S
O212 C223 1.242 . S
O213 Gd178 2.468 . S
O213 C231 1.263 . S
O214 Gd178 2.427 . S
O214 C231 1.252 . S
O215 Gd179 2.307 . S
O215 C224 1.261 . S
O216 Gd178 2.388 . S
O216 C224 1.252 . S
O217 Gd178 2.386 . S
O217 C235 1.265 . S
O218 Gd179 2.353 . S
O218 C235 1.242 . S
O219 Gd179 2.468 . S
O219 C243 1.263 . S
O220 Gd179 2.427 . S
O220 C243 1.252 . S
O221 Gd178 2.307 . S
O221 C236 1.261 . S
O222 Gd179 2.388 . S
O222 C236 1.252 . S
C223 O211 1.265 . S
C223 O212 1.242 . S
C224 O215 1.261 . S
C224 O216 1.252 . S
C225 C228 1.394 . S
C225 C230 1.370 . S
C225 C231 1.500 . S
C226 C229 1.383 . S
C226 C230 1.395 . S
C227 C228 1.396 . S
C227 C229 1.365 . S
C227 H244 0.929 . S
C228 C225 1.394 . S
C228 C227 1.396 . S
C228 H245 0.930 . S
C229 C226 1.383 . S
C229 C227 1.365 . S
C229 H246 0.931 . S
C230 C225 1.370 . S
C230 C226 1.395 . S
C230 H247 0.930 . S
C231 Gd178 2.805 . S
C231 O213 1.263 . S
C231 O214 1.252 . S
C231 C225 1.500 . S
C232 H194 0.930 . S
C232 C208 1.417 . S
C232 C233 1.329 . S
C233 C203 1.437 . S
C233 H204 0.929 . S
C233 C232 1.329 . S
H234 C207 0.931 . S
C235 O217 1.265 . S
C235 O218 1.242 . S
C236 O221 1.261 . S
C236 O222 1.252 . S
C237 C240 1.394 . S
C237 C242 1.370 . S
C237 C243 1.500 . S
C238 C241 1.383 1_556 S
C238 C242 1.395 . S
C239 C240 1.396 . S
C239 C241 1.365 1_556 S
C239 H248 0.929 . S
C240 C237 1.394 . S
C240 C239 1.396 . S
C240 H249 0.930 . S
C241 C238 1.383 1_554 S
C241 C239 1.365 1_554 S
C241 H250 0.931 . S
C242 C237 1.370 . S
C242 C238 1.395 . S
C242 H251 0.930 . S
C243 Gd179 2.805 . S
C243 O219 1.263 . S
C243 O220 1.252 . S
C243 C237 1.500 . S
H244 C227 0.929 . S
H245 C228 0.930 . S
H246 C229 0.931 . S
H247 C230 0.930 . S
H248 C239 0.929 . S
H249 C240 0.930 . S
H250 C241 0.931 . S
H251 C242 0.930 . S
C252 C254 1.422 . S
C252 C256 1.415 . S
C252 N258 1.369 . S
C253 C254 1.421 . S
C253 C255 1.417 . S
C253 C265 1.422 . S
C254 C252 1.422 . S
C254 C253 1.421 . S
C254 N264 1.359 . S
C255 C253 1.417 . S
C255 C257 1.329 . S
C255 H274 0.930 . S
C256 C252 1.415 . S
C256 C257 1.437 . S
C256 C260 1.413 . S
C257 C255 1.329 . S
C257 C256 1.437 . S
C257 H279 0.929 . S
N258 C252 1.369 . S
N258 C259 1.338 . S
N258 Gd263 2.622 . S
C259 N258 1.338 . S
C259 C261 1.378 . S
C259 H271 0.929 . S
C260 C256 1.413 . S
C260 C261 1.348 . S
C260 H276 0.930 1_655 S
C261 C259 1.378 . S
C261 C260 1.348 . S
C261 H277 0.930 1_655 S
Gd262 N282 2.622 . S
Gd262 N289 2.570 . S
Gd262 O296 2.353 . S
Gd262 O297 2.468 . S
Gd262 O298 2.427 . S
Gd262 O300 2.388 . S
Gd262 O301 2.403 . S
Gd262 O305 2.307 . S
Gd262 C315 2.805 . S
Gd263 N258 2.622 . S
Gd263 N264 2.570 . S
Gd263 O295 2.386 1_556 S
Gd263 O299 2.307 . S
Gd263 O302 2.353 . S
Gd263 O303 2.468 . S
Gd263 O304 2.427 . S
Gd263 O306 2.388 1_556 S
Gd263 C327 2.805 . S
N264 C254 1.359 . S
N264 Gd263 2.570 . S
N264 C266 1.343 . S
C265 C253 1.422 . S
C265 C267 1.321 . S
C265 H273 0.931 . S
C266 N264 1.343 . S
C266 C267 1.390 . S
C266 H268 0.931 . S
C267 C265 1.321 . S
C267 C266 1.390 . S
C267 H269 0.930 . S
H268 C266 0.931 . S
H269 C267 0.930 . S
H270 C293 0.931 . S
H271 C259 0.929 . S
H272 C294 0.930 . S
H273 C265 0.931 . S
H274 C255 0.930 . S
H275 C284 0.929 . S
H276 C260 0.930 1_455 S
H277 C261 0.930 1_455 S
H278 C316 0.930 . S
H279 C257 0.929 . S
H280 C285 0.931 . S
H281 C286 0.930 . S
N282 Gd262 2.622 . S
N282 C283 1.369 . S
N282 C284 1.338 . S
C283 N282 1.369 . S
C283 C287 1.415 . S
C283 C290 1.422 . S
C284 H275 0.929 . S
C284 N282 1.338 . S
C284 C286 1.378 . S
C285 H280 0.931 . S
C285 C286 1.348 . S
C285 C287 1.413 . S
C286 H281 0.930 . S
C286 C284 1.378 . S
C286 C285 1.348 . S
C287 C283 1.415 . S
C287 C285 1.413 . S
C287 C317 1.437 . S
H288 C317 0.929 . S
N289 Gd262 2.570 . S
N289 C290 1.359 . S
N289 C293 1.343 . S
C290 C283 1.422 . S
C290 N289 1.359 . S
C290 C292 1.421 . S
C291 C292 1.422 . S
C291 C294 1.321 . S
C291 H318 0.931 . S
C292 C290 1.421 . S
C292 C291 1.422 . S
C292 C316 1.417 . S
C293 H270 0.931 . S
C293 N289 1.343 . S
C293 C294 1.390 . S
C294 H272 0.930 . S
C294 C291 1.321 . S
C294 C293 1.390 . S
O295 Gd263 2.386 1_554 S
O295 C307 1.265 . S
O296 Gd262 2.353 . S
O296 C307 1.242 . S
O297 Gd262 2.468 . S
O297 C315 1.263 . S
O298 Gd262 2.427 . S
O298 C315 1.252 . S
O299 Gd263 2.307 . S
O299 C308 1.261 . S
O300 Gd262 2.388 . S
O300 C308 1.252 1_554 S
O301 Gd262 2.403 . S
O301 C319 1.249 1_554 S
O302 Gd263 2.353 . S
O302 C319 1.242 . S
O303 Gd263 2.468 . S
O303 C327 1.263 . S
O304 Gd263 2.427 . S
O304 C327 1.252 . S
O305 Gd262 2.307 . S
O305 C320 1.261 . S
O306 Gd263 2.388 1_554 S
O306 C320 1.252 . S
C307 O295 1.265 . S
C307 O296 1.242 . S
C308 O299 1.261 . S
C308 O300 1.252 1_556 S
C309 C312 1.394 . S
C309 C314 1.370 . S
C309 C315 1.500 . S
C310 C313 1.383 . S
C310 C314 1.395 . S
C311 C312 1.396 . S
C311 C313 1.365 . S
C311 H328 0.929 . S
C312 C309 1.394 . S
C312 C311 1.396 . S
C312 H329 0.930 . S
C313 C310 1.383 . S
C313 C311 1.365 . S
C313 H330 0.931 . S
C314 C309 1.370 . S
C314 C310 1.395 . S
C314 H331 0.930 . S
C315 Gd262 2.805 . S
C315 O297 1.263 . S
C315 O298 1.252 . S
C315 C309 1.500 . S
C316 H278 0.930 . S
C316 C292 1.417 . S
C316 C317 1.329 . S
C317 C287 1.437 . S
C317 H288 0.929 . S
C317 C316 1.329 . S
H318 C291 0.931 . S
C319 O301 1.249 1_556 S
C319 O302 1.242 . S
C320 O305 1.261 . S
C320 O306 1.252 . S
C321 C324 1.394 . S
C321 C326 1.370 . S
C321 C327 1.500 . S
C322 C325 1.383 . S
C322 C326 1.395 . S
C323 C324 1.396 . S
C323 C325 1.365 . S
C323 H332 0.929 . S
C324 C321 1.394 . S
C324 C323 1.396 . S
C324 H333 0.930 . S
C325 C322 1.383 . S
C325 C323 1.365 . S
C325 H334 0.931 . S
C326 C321 1.370 . S
C326 C322 1.395 . S
C326 H335 0.930 . S
C327 Gd263 2.805 . S
C327 O303 1.263 . S
C327 O304 1.252 . S
C327 C321 1.500 . S
H328 C311 0.929 . S
H329 C312 0.930 . S
H330 C313 0.931 . S
H331 C314 0.930 . S
H332 C323 0.929 . S
H333 C324 0.930 . S
H334 C325 0.931 . S
H335 C326 0.930 . S
C336 C338 1.422 . S
C336 C340 1.415 . S
C336 N342 1.369 . S
C337 C338 1.421 . S
C337 C339 1.417 . S
C337 C349 1.422 . S
C338 C336 1.422 . S
C338 C337 1.421 . S
C338 N348 1.359 . S
C339 C337 1.417 . S
C339 C341 1.329 . S
C339 H358 0.930 . S
C340 C336 1.415 . S
C340 C341 1.437 . S
C340 C344 1.414 . S
C341 C339 1.329 . S
C341 C340 1.437 . S
C341 H363 0.929 . S
N342 C336 1.369 . S
N342 C343 1.338 . S
N342 Gd347 2.622 . S
C343 N342 1.338 . S
C343 C345 1.378 . S
C343 H355 0.929 . S
C344 C340 1.414 . S
C344 C345 1.347 . S
C344 H360 0.931 1_455 S
C345 C343 1.378 . S
C345 C344 1.347 . S
C345 H361 0.930 1_455 S
Gd346 N366 2.622 . S
Gd346 N373 2.570 . S
Gd346 O380 2.353 . S
Gd346 O381 2.468 . S
Gd346 O382 2.427 . S
Gd346 O384 2.388 . S
Gd346 O385 2.386 . S
Gd346 O389 2.307 . S
Gd346 C399 2.805 . S
Gd347 N342 2.622 . S
Gd347 N348 2.570 . S
Gd347 O379 2.386 . S
Gd347 O383 2.307 . S
Gd347 O386 2.353 . S
Gd347 O387 2.468 . S
Gd347 O388 2.427 . S
Gd347 O390 2.388 . S
Gd347 C411 2.805 . S
N348 C338 1.359 . S
N348 Gd347 2.570 . S
N348 C350 1.343 . S
C349 C337 1.422 . S
C349 C351 1.321 . S
C349 H357 0.931 . S
C350 N348 1.343 . S
C350 C351 1.390 . S
C350 H352 0.931 . S
C351 C349 1.321 . S
C351 C350 1.390 . S
C351 H353 0.930 . S
H352 C350 0.931 . S
H353 C351 0.930 . S
H354 C377 0.931 . S
H355 C343 0.929 . S
H356 C378 0.930 . S
H357 C349 0.931 . S
H358 C339 0.930 . S
H359 C368 0.929 . S
H360 C344 0.931 1_655 S
H361 C345 0.930 1_655 S
H362 C400 0.930 . S
H363 C341 0.929 . S
H364 C369 0.926 1_545 S
H365 C370 0.930 . S
N366 Gd346 2.622 . S
N366 C367 1.369 . S
N366 C368 1.338 . S
C367 N366 1.369 . S
C367 C371 1.414 1_565 S
C367 C374 1.422 . S
C368 H359 0.929 . S
C368 N366 1.338 . S
C368 C370 1.378 . S
C369 H364 0.926 1_565 S
C369 C370 1.358 . S
C369 C371 1.408 1_565 S
C370 H365 0.930 . S
C370 C368 1.378 . S
C370 C369 1.358 . S
C371 C367 1.414 1_545 S
C371 C369 1.408 1_545 S
C371 C401 1.438 . S
H372 C401 0.929 . S
N373 Gd346 2.570 . S
N373 C374 1.359 . S
N373 C377 1.343 . S
C374 C367 1.422 . S
C374 N373 1.359 . S
C374 C376 1.438 . S
C375 C376 1.415 . S
C375 C378 1.321 . S
C375 H402 0.931 1_565 S
C376 C374 1.438 . S
C376 C375 1.415 . S
C376 C400 1.409 1_565 S
C377 H354 0.931 . S
C377 N373 1.343 . S
C377 C378 1.390 . S
C378 H356 0.930 . S
C378 C375 1.321 . S
C378 C377 1.390 . S
O379 Gd347 2.386 . S
O379 C391 1.265 . S
O380 Gd346 2.353 . S
O380 C391 1.242 . S
O381 Gd346 2.468 . S
O381 C399 1.263 . S
O382 Gd346 2.427 . S
O382 C399 1.252 . S
O383 Gd347 2.307 . S
O383 C392 1.261 . S
O384 Gd346 2.388 . S
O384 C392 1.252 . S
O385 Gd346 2.386 . S
O385 C403 1.265 . S
O386 Gd347 2.353 . S
O386 C403 1.242 . S
O387 Gd347 2.468 . S
O387 C411 1.263 . S
O388 Gd347 2.427 . S
O388 C411 1.252 . S
O389 Gd346 2.307 . S
O389 C404 1.261 . S
O390 Gd347 2.388 . S
O390 C404 1.252 . S
C391 O379 1.265 . S
C391 O380 1.242 . S
C392 O383 1.261 . S
C392 O384 1.252 . S
C393 C396 1.394 . S
C393 C398 1.370 . S
C393 C399 1.500 . S
C394 C397 1.383 1_554 S
C394 C398 1.395 . S
C395 C396 1.396 . S
C395 C397 1.365 1_554 S
C395 H412 0.929 . S
C396 C393 1.394 . S
C396 C395 1.396 . S
C396 H413 0.930 . S
C397 C394 1.383 1_556 S
C397 C395 1.365 1_556 S
C397 H414 0.931 . S
C398 C393 1.370 . S
C398 C394 1.395 . S
C398 H415 0.930 . S
C399 Gd346 2.805 . S
C399 O381 1.263 . S
C399 O382 1.252 . S
C399 C393 1.500 . S
C400 H362 0.930 . S
C400 C376 1.409 1_545 S
C400 C401 1.329 . S
C401 C371 1.438 . S
C401 H372 0.929 . S
C401 C400 1.329 . S
H402 C375 0.931 1_545 S
C403 O385 1.265 . S
C403 O386 1.242 . S
C404 O389 1.261 . S
C404 O390 1.252 . S
C405 C408 1.394 . S
C405 C410 1.370 . S
C405 C411 1.500 . S
C406 C409 1.383 . S
C406 C410 1.395 . S
C407 C408 1.396 . S
C407 C409 1.365 . S
C407 H416 0.929 . S
C408 C405 1.394 . S
C408 C407 1.396 . S
C408 H417 0.930 . S
C409 C406 1.383 . S
C409 C407 1.365 . S
C409 H418 0.931 . S
C410 C405 1.370 . S
C410 C406 1.395 . S
C410 H419 0.930 . S
C411 Gd347 2.805 . S
C411 O387 1.263 . S
C411 O388 1.252 . S
C411 C405 1.500 . S
H412 C395 0.929 . S
H413 C396 0.930 . S
H414 C397 0.931 . S
H415 C398 0.930 . S
H416 C407 0.929 . S
H417 C408 0.930 . S
H418 C409 0.931 . S
H419 C410 0.930 . S
C420 C422 1.422 . S
C420 C424 1.415 . S
C420 N426 1.369 . S
C421 C422 1.421 . S
C421 C423 1.417 . S
C421 C433 1.422 . S
C422 C420 1.422 . S
C422 C421 1.421 . S
C422 N432 1.359 . S
C423 C421 1.417 . S
C423 C425 1.329 . S
C423 H442 0.930 . S
C424 C420 1.415 . S
C424 C425 1.437 . S
C424 C428 1.413 . S
C425 C423 1.329 . S
C425 C424 1.437 . S
C425 H447 0.929 . S
N426 C420 1.369 . S
N426 C427 1.338 . S
N426 Gd431 2.622 . S
C427 N426 1.338 . S
C427 C429 1.378 . S
C427 H439 0.929 . S
C428 C424 1.413 . S
C428 C429 1.348 . S
C428 H444 0.931 . S
C429 C427 1.378 . S
C429 C428 1.348 . S
C429 H445 0.930 . S
Gd430 N450 2.622 . S
Gd430 N457 2.570 . S
Gd430 O464 2.353 . S
Gd430 O465 2.468 . S
Gd430 O466 2.427 . S
Gd430 O468 2.388 . S
Gd430 O469 2.386 . S
Gd430 O473 2.307 . S
Gd430 C483 2.805 . S
Gd431 N426 2.622 . S
Gd431 N432 2.570 . S
Gd431 O463 2.386 . S
Gd431 O467 2.307 . S
Gd431 O470 2.353 . S
Gd431 O471 2.468 . S
Gd431 O472 2.427 . S
Gd431 O474 2.388 . S
Gd431 C495 2.805 . S
N432 C422 1.359 . S
N432 Gd431 2.570 . S
N432 C434 1.343 . S
C433 C421 1.422 . S
C433 C435 1.321 . S
C433 H441 0.931 . S
C434 N432 1.343 . S
C434 C435 1.390 . S
C434 H436 0.931 . S
C435 C433 1.321 . S
C435 C434 1.390 . S
C435 H437 0.930 . S
H436 C434 0.931 . S
H437 C435 0.930 . S
H438 C461 0.931 . S
H439 C427 0.929 . S
H440 C462 0.930 . S
H441 C433 0.931 . S
H442 C423 0.930 . S
H443 C452 0.929 . S
H444 C428 0.931 . S
H445 C429 0.930 . S
H446 C484 0.930 . S
H447 C425 0.929 . S
H448 C453 0.921 1_565 S
H449 C454 0.930 . S
N450 Gd430 2.622 . S
N450 C451 1.369 . S
N450 C452 1.338 . S
C451 N450 1.369 . S
C451 C455 1.414 1_545 S
C451 C458 1.422 . S
C452 H443 0.929 . S
C452 N450 1.338 . S
C452 C454 1.378 . S
C453 H448 0.921 1_545 S
C453 C454 1.353 . S
C453 C455 1.418 1_545 S
C454 H449 0.930 . S
C454 C452 1.378 . S
C454 C453 1.353 . S
C455 C451 1.414 1_565 S
C455 C453 1.418 1_565 S
C455 C485 1.438 . S
H456 C485 0.929 . S
N457 Gd430 2.570 . S
N457 C458 1.359 . S
N457 C461 1.343 . S
C458 C451 1.422 . S
C458 N457 1.359 . S
C458 C460 1.430 . S
C459 C460 1.431 . S
C459 C462 1.321 . S
C459 H486 0.931 1_545 S
C460 C458 1.430 . S
C460 C459 1.431 . S
C460 C484 1.401 1_545 S
C461 H438 0.931 . S
C461 N457 1.343 . S
C461 C462 1.390 . S
C462 H440 0.930 . S
C462 C459 1.321 . S
C462 C461 1.390 . S
O463 Gd431 2.386 . S
O463 C475 1.265 . S
O464 Gd430 2.353 . S
O464 C475 1.242 . S
O465 Gd430 2.468 . S
O465 C483 1.263 . S
O466 Gd430 2.427 . S
O466 C483 1.252 . S
O467 Gd431 2.307 . S
O467 C476 1.261 . S
O468 Gd430 2.388 . S
O468 C476 1.252 . S
O469 Gd430 2.386 . S
O469 C487 1.265 . S
O470 Gd431 2.353 . S
O470 C487 1.242 . S
O471 Gd431 2.468 . S
O471 C495 1.263 . S
O472 Gd431 2.427 . S
O472 C495 1.252 . S
O473 Gd430 2.307 . S
O473 C488 1.261 . S
O474 Gd431 2.388 . S
O474 C488 1.252 . S
C475 O463 1.265 . S
C475 O464 1.242 . S
C476 O467 1.261 . S
C476 O468 1.252 . S
C477 C480 1.394 . S
C477 C482 1.370 . S
C477 C483 1.500 . S
C478 C481 1.383 . S
C478 C482 1.395 1_554 S
C479 C480 1.396 . S
C479 C481 1.365 1_556 S
C479 H496 0.929 1_556 S
C480 C477 1.394 . S
C480 C479 1.396 . S
C480 H497 0.930 . S
C481 C478 1.383 . S
C481 C479 1.365 1_554 S
C481 H498 0.931 . S
C482 C477 1.370 . S
C482 C478 1.395 1_556 S
C482 H499 0.930 . S
C483 Gd430 2.805 . S
C483 O465 1.263 . S
C483 O466 1.252 . S
C483 C477 1.500 . S
C484 H446 0.930 . S
C484 C460 1.401 1_565 S
C484 C485 1.329 . S
C485 C455 1.438 . S
C485 H456 0.929 . S
C485 C484 1.329 . S
H486 C459 0.931 1_565 S
C487 O469 1.265 . S
C487 O470 1.242 . S
C488 O473 1.261 . S
C488 O474 1.252 . S
C489 C492 1.394 . S
C489 C494 1.370 . S
C489 C495 1.500 . S
C490 C493 1.383 . S
C490 C494 1.395 . S
C491 C492 1.396 . S
C491 C493 1.365 . S
C491 H500 0.929 . S
C492 C489 1.394 . S
C492 C491 1.396 . S
C492 H501 0.930 . S
C493 C490 1.383 . S
C493 C491 1.365 . S
C493 H502 0.931 . S
C494 C489 1.370 . S
C494 C490 1.395 . S
C494 H503 0.930 . S
C495 Gd431 2.805 . S
C495 O471 1.263 . S
C495 O472 1.252 . S
C495 C489 1.500 . S
H496 C479 0.929 1_554 S
H497 C480 0.930 . S
H498 C481 0.931 . S
H499 C482 0.930 . S
H500 C491 0.929 . S
H501 C492 0.930 . S
H502 C493 0.931 . S
H503 C494 0.930 . S
H504 C516 0.930 . S
H505 C518 0.930 . S
H506 C519 0.930 . S
H507 C523 0.959 . S
H508 C523 0.959 . S
H509 C523 0.961 . S
H510 C524 0.960 . S
H511 C524 0.961 . S
H512 C524 0.959 . S
H513 C527 0.929 . S
H514 C528 0.931 . S
H515 C530 0.930 . S
C516 H504 0.930 . S
C516 C517 1.399 . S
C516 C521 1.399 . S
C517 C516 1.399 . S
C517 C518 1.376 . S
C518 H505 0.930 . S
C518 C517 1.376 . S
C518 C519 1.388 . S
C519 H506 0.930 . S
C519 C518 1.388 . S
C519 C520 1.390 . S
C520 C519 1.390 . S
C520 C521 1.394 . S
C520 C526 1.465 . S
C521 C516 1.399 . S
C521 C520 1.394 . S
C521 C522 1.516 . S
C522 C521 1.516 . S
C522 C523 1.502 . S
C522 C524 1.561 . S
C522 C525 1.526 . S
C523 H507 0.959 . S
C523 H508 0.959 . S
C523 H509 0.961 . S
C523 C522 1.502 . S
C524 H510 0.960 . S
C524 H511 0.961 . S
C524 H512 0.959 . S
C524 C522 1.561 . S
C525 C522 1.526 . S
C525 C526 1.396 . S
C525 C530 1.390 . S
C526 C520 1.465 . S
C526 C525 1.396 . S
C526 C527 1.399 . S
C527 H513 0.929 . S
C527 C526 1.399 . S
C527 C528 1.385 . S
C528 H514 0.931 . S
C528 C527 1.385 . S
C528 C529 1.389 . S
C529 C528 1.389 . S
C529 C530 1.387 . S
C530 H515 0.930 . S
C530 C525 1.390 . S
C530 C529 1.387 . S
H531 C543 0.930 . S
H532 C545 0.930 . S
H533 C546 0.930 . S
H534 C550 0.959 . S
H535 C550 0.959 . S
H536 C550 0.961 . S
H537 C551 0.960 . S
H538 C551 0.961 . S
H539 C551 0.959 . S
H540 C554 0.929 . S
H541 C555 0.931 . S
H542 C557 0.930 . S
C543 H531 0.930 . S
C543 C544 1.399 . S
C543 C548 1.399 . S
C544 C543 1.399 . S
C544 C545 1.376 . S
C545 H532 0.930 . S
C545 C544 1.376 . S
C545 C546 1.388 . S
C546 H533 0.930 . S
C546 C545 1.388 . S
C546 C547 1.390 . S
C547 C546 1.390 . S
C547 C548 1.394 . S
C547 C553 1.465 1_455 S
C548 C543 1.399 . S
C548 C547 1.394 . S
C548 C549 1.516 . S
C549 C548 1.516 . S
C549 C550 1.502 . S
C549 C551 1.561 1_455 S
C549 C552 1.526 1_455 S
C550 H534 0.959 . S
C550 H535 0.959 . S
C550 H536 0.961 . S
C550 C549 1.502 . S
C551 H537 0.960 . S
C551 H538 0.961 . S
C551 H539 0.959 . S
C551 C549 1.561 1_655 S
C552 C549 1.526 1_655 S
C552 C553 1.396 . S
C552 C557 1.390 . S
C553 C547 1.465 1_655 S
C553 C552 1.396 . S
C553 C554 1.399 . S
C554 H540 0.929 . S
C554 C553 1.399 . S
C554 C555 1.385 . S
C555 H541 0.931 . S
C555 C554 1.385 . S
C555 C556 1.389 . S
C556 C555 1.389 . S
C556 C557 1.387 . S
C557 H542 0.930 . S
C557 C552 1.390 . S
C557 C556 1.387 . S
H558 C570 0.930 . S
H559 C572 0.930 . S
H560 C573 0.930 1_565 S
H561 C577 0.959 . S
H562 C577 0.959 . S
H563 C577 0.961 . S
H564 C578 0.960 . S
H565 C578 0.961 . S
H566 C578 0.959 . S
H567 C581 0.929 . S
H568 C582 0.931 . S
H569 C584 0.930 . S
C570 H558 0.930 . S
C570 C571 1.399 . S
C570 C575 1.399 . S
C571 C570 1.399 . S
C571 C572 1.376 . S
C572 H559 0.930 . S
C572 C571 1.376 . S
C572 C573 1.388 . S
C573 H560 0.930 1_545 S
C573 C572 1.388 . S
C573 C574 1.390 . S
C574 C573 1.390 . S
C574 C575 1.394 . S
C574 C580 1.465 1_545 S
C575 C570 1.399 . S
C575 C574 1.394 . S
C575 C576 1.516 . S
C576 C575 1.516 . S
C576 C577 1.502 . S
C576 C578 1.561 . S
C576 C579 1.526 1_545 S
C577 H561 0.959 . S
C577 H562 0.959 . S
C577 H563 0.961 . S
C577 C576 1.502 . S
C578 H564 0.960 . S
C578 H565 0.961 . S
C578 H566 0.959 . S
C578 C576 1.561 . S
C579 C576 1.526 1_565 S
C579 C580 1.396 . S
C579 C584 1.390 . S
C580 C574 1.465 1_565 S
C580 C579 1.396 . S
C580 C581 1.399 . S
C581 H567 0.929 . S
C581 C580 1.399 . S
C581 C582 1.385 . S
C582 H568 0.931 . S
C582 C581 1.385 . S
C582 C583 1.389 . S
C583 C582 1.389 . S
C583 C584 1.387 . S
C584 H569 0.930 . S
C584 C579 1.390 . S
C584 C583 1.387 . S
H585 C597 0.930 . S
H586 C599 0.930 . S
H587 C600 0.930 . S
H588 C604 0.959 . S
H589 C604 0.959 . S
H590 C604 0.961 . S
H591 C605 0.960 . S
H592 C605 0.961 . S
H593 C605 0.959 . S
H594 C608 0.929 . S
H595 C609 0.931 . S
H596 C611 0.930 . S
C597 H585 0.930 . S
C597 C598 1.399 . S
C597 C602 1.399 . S
C598 C597 1.399 . S
C598 C599 1.376 . S
C599 H586 0.930 . S
C599 C598 1.376 . S
C599 C600 1.388 . S
C600 H587 0.930 . S
C600 C599 1.388 . S
C600 C601 1.390 . S
C601 C600 1.390 . S
C601 C602 1.394 . S
C601 C607 1.465 . S
C602 C597 1.399 . S
C602 C601 1.394 . S
C602 C603 1.516 . S
C603 C602 1.516 . S
C603 C604 1.502 . S
C603 C605 1.561 . S
C603 C606 1.526 . S
C604 H588 0.959 . S
C604 H589 0.959 . S
C604 H590 0.961 . S
C604 C603 1.502 . S
C605 H591 0.960 . S
C605 H592 0.961 . S
C605 H593 0.959 . S
C605 C603 1.561 . S
C606 C603 1.526 . S
C606 C607 1.396 . S
C606 C611 1.390 . S
C607 C601 1.465 . S
C607 C606 1.396 . S
C607 C608 1.399 . S
C608 H594 0.929 . S
C608 C607 1.399 . S
C608 C609 1.385 . S
C609 H595 0.931 . S
C609 C608 1.385 . S
C609 C610 1.389 . S
C610 C609 1.389 . S
C610 C611 1.387 . S
C611 H596 0.930 . S
C611 C606 1.390 . S
C611 C610 1.387 . S
H612 C624 0.930 . S
H613 C626 0.930 . S
H614 C627 0.930 . S
H615 C631 0.959 . S
H616 C631 0.959 . S
H617 C631 0.961 . S
H618 C632 0.960 1_455 S
H619 C632 0.961 . S
H620 C632 0.959 . S
H621 C635 0.929 . S
H622 C636 0.931 . S
H623 C638 0.930 . S
C624 H612 0.930 . S
C624 C625 1.399 . S
C624 C629 1.399 . S
C625 C624 1.399 . S
C625 C626 1.376 . S
C626 H613 0.930 . S
C626 C625 1.376 . S
C626 C627 1.388 . S
C627 H614 0.930 . S
C627 C626 1.388 . S
C627 C628 1.390 . S
C628 C627 1.390 . S
C628 C629 1.394 . S
C628 C634 1.465 1_455 S
C629 C624 1.399 . S
C629 C628 1.394 . S
C629 C630 1.516 . S
C630 C629 1.516 . S
C630 C631 1.502 . S
C630 C632 1.561 1_455 S
C630 C633 1.526 1_455 S
C631 H615 0.959 . S
C631 H616 0.959 . S
C631 H617 0.961 . S
C631 C630 1.502 . S
C632 H618 0.960 1_655 S
C632 H619 0.961 . S
C632 H620 0.959 . S
C632 C630 1.561 1_655 S
C633 C630 1.526 1_655 S
C633 C634 1.396 . S
C633 C638 1.390 . S
C634 C628 1.465 1_655 S
C634 C633 1.396 . S
C634 C635 1.399 . S
C635 H621 0.929 . S
C635 C634 1.399 . S
C635 C636 1.385 . S
C636 H622 0.931 . S
C636 C635 1.385 . S
C636 C637 1.389 . S
C637 C636 1.389 . S
C637 C638 1.387 . S
C638 H623 0.930 . S
C638 C633 1.390 . S
C638 C637 1.387 . S
H639 C651 0.930 . S
H640 C653 0.930 . S
H641 C654 0.930 . S
H642 C658 0.959 . S
H643 C658 0.959 . S
H644 C658 0.961 . S
H645 C659 0.960 . S
H646 C659 0.961 . S
H647 C659 0.959 . S
H648 C662 0.929 1_545 S
H649 C663 0.931 . S
H650 C665 0.930 . S
C651 H639 0.930 . S
C651 C652 1.399 . S
C651 C656 1.399 . S
C652 C651 1.399 . S
C652 C653 1.376 . S
C653 H640 0.930 . S
C653 C652 1.376 . S
C653 C654 1.388 . S
C654 H641 0.930 . S
C654 C653 1.388 . S
C654 C655 1.390 . S
C655 C654 1.390 . S
C655 C656 1.394 . S
C655 C661 1.465 1_545 S
C656 C651 1.399 . S
C656 C655 1.394 . S
C656 C657 1.516 1_545 S
C657 C656 1.516 1_565 S
C657 C658 1.502 . S
C657 C659 1.561 . S
C657 C660 1.526 . S
C658 H642 0.959 . S
C658 H643 0.959 . S
C658 H644 0.961 . S
C658 C657 1.502 . S
C659 H645 0.960 . S
C659 H646 0.961 . S
C659 H647 0.959 . S
C659 C657 1.561 . S
C660 C657 1.526 . S
C660 C661 1.396 . S
C660 C665 1.390 . S
C661 C655 1.465 1_565 S
C661 C660 1.396 . S
C661 C662 1.399 . S
C662 H648 0.929 1_565 S
C662 C661 1.399 . S
C662 C663 1.385 . S
C663 H649 0.931 . S
C663 C662 1.385 . S
C663 C664 1.389 . S
C664 C663 1.389 . S
C664 C665 1.387 . S
C665 H650 0.930 . S
C665 C660 1.390 . S
C665 C664 1.387 . S
H666 C678 0.930 . S
H667 C680 0.930 . S
H668 C681 0.930 . S
H669 C685 0.959 . S
H670 C685 0.959 . S
H671 C685 0.961 . S
H672 C686 0.960 . S
H673 C686 0.961 . S
H674 C686 0.959 . S
H675 C689 0.929 . S
H676 C690 0.931 . S
H677 C692 0.930 . S
C678 H666 0.930 . S
C678 C679 1.399 . S
C678 C683 1.399 . S
C679 C678 1.399 . S
C679 C680 1.376 . S
C680 H667 0.930 . S
C680 C679 1.376 . S
C680 C681 1.388 . S
C681 H668 0.930 . S
C681 C680 1.388 . S
C681 C682 1.390 . S
C682 C681 1.390 . S
C682 C683 1.394 . S
C682 C688 1.465 . S
C683 C678 1.399 . S
C683 C682 1.394 . S
C683 C684 1.516 . S
C684 C683 1.516 . S
C684 C685 1.502 . S
C684 C686 1.561 . S
C684 C687 1.526 . S
C685 H669 0.959 . S
C685 H670 0.959 . S
C685 H671 0.961 . S
C685 C684 1.502 . S
C686 H672 0.960 . S
C686 H673 0.961 . S
C686 H674 0.959 . S
C686 C684 1.561 . S
C687 C684 1.526 . S
C687 C688 1.396 . S
C687 C692 1.390 . S
C688 C682 1.465 . S
C688 C687 1.396 . S
C688 C689 1.399 . S
C689 H675 0.929 . S
C689 C688 1.399 . S
C689 C690 1.385 . S
C690 H676 0.931 . S
C690 C689 1.385 . S
C690 C691 1.389 . S
C691 C690 1.389 . S
C691 C692 1.387 . S
C692 H677 0.930 . S
C692 C687 1.390 . S
C692 C691 1.387 . S
H693 C705 0.930 . S
H694 C707 0.930 . S
H695 C708 0.930 . S
H696 C712 0.959 . S
H697 C712 0.959 . S
H698 C712 0.961 . S
H699 C713 0.960 . S
H700 C713 0.961 . S
H701 C713 0.959 . S
H702 C716 0.929 . S
H703 C717 0.931 . S
H704 C719 0.930 . S
C705 H693 0.930 . S
C705 C706 1.399 . S
C705 C710 1.399 . S
C706 C705 1.399 . S
C706 C707 1.376 . S
C707 H694 0.930 . S
C707 C706 1.376 . S
C707 C708 1.388 . S
C708 H695 0.930 . S
C708 C707 1.388 . S
C708 C709 1.390 . S
C709 C708 1.390 . S
C709 C710 1.394 . S
C709 C715 1.465 . S
C710 C705 1.399 . S
C710 C709 1.394 . S
C710 C711 1.516 . S
C711 C710 1.516 . S
C711 C712 1.502 . S
C711 C713 1.561 . S
C711 C714 1.526 . S
C712 H696 0.959 . S
C712 H697 0.959 . S
C712 H698 0.961 . S
C712 C711 1.502 . S
C713 H699 0.960 . S
C713 H700 0.961 . S
C713 H701 0.959 . S
C713 C711 1.561 . S
C714 C711 1.526 . S
C714 C715 1.396 . S
C714 C719 1.390 . S
C715 C709 1.465 . S
C715 C714 1.396 . S
C715 C716 1.399 . S
C716 H702 0.929 . S
C716 C715 1.399 . S
C716 C717 1.385 . S
C717 H703 0.931 . S
C717 C716 1.385 . S
C717 C718 1.389 . S
C718 C717 1.389 . S
C718 C719 1.387 . S
C719 H704 0.930 . S
C719 C714 1.390 . S
C719 C718 1.387 . S
H720 C732 0.930 . S
H721 C734 0.930 . S
H722 C735 0.930 . S
H723 C739 0.959 . S
H724 C739 0.959 . S
H725 C739 0.961 . S
H726 C740 0.960 . S
H727 C740 0.961 . S
H728 C740 0.959 . S
H729 C743 0.929 . S
H730 C744 0.931 . S
H731 C746 0.930 . S
C732 H720 0.930 . S
C732 C733 1.399 . S
C732 C737 1.399 . S
C733 C732 1.399 . S
C733 C734 1.376 . S
C734 H721 0.930 . S
C734 C733 1.376 . S
C734 C735 1.388 . S
C735 H722 0.930 . S
C735 C734 1.388 . S
C735 C736 1.390 . S
C736 C735 1.390 . S
C736 C737 1.394 . S
C736 C742 1.465 . S
C737 C732 1.399 . S
C737 C736 1.394 . S
C737 C738 1.516 . S
C738 C737 1.516 . S
C738 C739 1.502 . S
C738 C740 1.561 . S
C738 C741 1.526 . S
C739 H723 0.959 . S
C739 H724 0.959 . S
C739 H725 0.961 . S
C739 C738 1.502 . S
C740 H726 0.960 . S
C740 H727 0.961 . S
C740 H728 0.959 . S
C740 C738 1.561 . S
C741 C738 1.526 . S
C741 C742 1.396 . S
C741 C746 1.390 . S
C742 C736 1.465 . S
C742 C741 1.396 . S
C742 C743 1.399 . S
C743 H729 0.929 . S
C743 C742 1.399 . S
C743 C744 1.385 . S
C744 H730 0.931 . S
C744 C743 1.385 . S
C744 C745 1.389 . S
C745 C744 1.389 . S
C745 C746 1.387 . S
C746 H731 0.930 . S
C746 C741 1.390 . S
C746 C745 1.387 . S
H747 C759 0.930 . S
H748 C761 0.930 . S
H749 C762 0.930 . S
H750 C766 0.959 . S
H751 C766 0.959 . S
H752 C766 0.961 . S
H753 C767 0.960 . S
H754 C767 0.961 . S
H755 C767 0.959 . S
H756 C770 0.929 . S
H757 C771 0.931 . S
H758 C773 0.930 . S
C759 H747 0.930 . S
C759 C760 1.399 . S
C759 C764 1.399 . S
C760 C759 1.399 . S
C760 C761 1.376 . S
C761 H748 0.930 . S
C761 C760 1.376 . S
C761 C762 1.388 . S
C762 H749 0.930 . S
C762 C761 1.388 . S
C762 C763 1.390 . S
C763 C762 1.390 . S
C763 C764 1.394 . S
C763 C769 1.465 . S
C764 C759 1.399 . S
C764 C763 1.394 . S
C764 C765 1.516 . S
C765 C764 1.516 . S
C765 C766 1.502 . S
C765 C767 1.561 . S
C765 C768 1.526 . S
C766 H750 0.959 . S
C766 H751 0.959 . S
C766 H752 0.961 . S
C766 C765 1.502 . S
C767 H753 0.960 . S
C767 H754 0.961 . S
C767 H755 0.959 . S
C767 C765 1.561 . S
C768 C765 1.526 . S
C768 C769 1.396 . S
C768 C773 1.390 . S
C769 C763 1.465 . S
C769 C768 1.396 . S
C769 C770 1.399 . S
C770 H756 0.929 . S
C770 C769 1.399 . S
C770 C771 1.385 . S
C771 H757 0.931 . S
C771 C770 1.385 . S
C771 C772 1.389 . S
C772 C771 1.389 . S
C772 C773 1.387 . S
C773 H758 0.930 . S
C773 C768 1.390 . S
C773 C772 1.387 . S
H774 C786 0.930 . S
H775 C788 0.930 . S
H776 C789 0.930 . S
H777 C793 0.959 . S
H778 C793 0.959 . S
H779 C793 0.961 . S
H780 C794 0.960 . S
H781 C794 0.961 . S
H782 C794 0.959 . S
H783 C797 0.929 . S
H784 C798 0.931 . S
H785 C800 0.930 . S
C786 H774 0.930 . S
C786 C787 1.399 . S
C786 C791 1.399 . S
C787 C786 1.399 . S
C787 C788 1.376 . S
C788 H775 0.930 . S
C788 C787 1.376 . S
C788 C789 1.388 . S
C789 H776 0.930 . S
C789 C788 1.388 . S
C789 C790 1.390 . S
C790 C789 1.390 . S
C790 C791 1.394 . S
C790 C796 1.465 . S
C791 C786 1.399 . S
C791 C790 1.394 . S
C791 C792 1.516 . S
C792 C791 1.516 . S
C792 C793 1.502 . S
C792 C794 1.561 . S
C792 C795 1.526 . S
C793 H777 0.959 . S
C793 H778 0.959 . S
C793 H779 0.961 . S
C793 C792 1.502 . S
C794 H780 0.960 . S
C794 H781 0.961 . S
C794 H782 0.959 . S
C794 C792 1.561 . S
C795 C792 1.526 . S
C795 C796 1.396 . S
C795 C800 1.390 . S
C796 C790 1.465 . S
C796 C795 1.396 . S
C796 C797 1.399 . S
C797 H783 0.929 . S
C797 C796 1.399 . S
C797 C798 1.385 . S
C798 H784 0.931 . S
C798 C797 1.385 . S
C798 C799 1.389 . S
C799 C798 1.389 . S
C799 C800 1.387 . S
C800 H785 0.930 . S
C800 C795 1.390 . S
C800 C799 1.387 . S
H801 C813 0.930 . S
H802 C815 0.930 . S
H803 C816 0.930 . S
H804 C820 0.959 . S
H805 C820 0.959 . S
H806 C820 0.961 . S
H807 C821 0.960 . S
H808 C821 0.961 . S
H809 C821 0.959 . S
H810 C824 0.929 . S
H811 C825 0.931 . S
H812 C827 0.930 . S
C813 H801 0.930 . S
C813 C814 1.399 . S
C813 C818 1.399 . S
C814 C813 1.399 . S
C814 C815 1.376 . S
C815 H802 0.930 . S
C815 C814 1.376 . S
C815 C816 1.388 . S
C816 H803 0.930 . S
C816 C815 1.388 . S
C816 C817 1.390 . S
C817 C816 1.390 . S
C817 C818 1.394 . S
C817 C823 1.465 . S
C818 C813 1.399 . S
C818 C817 1.394 . S
C818 C819 1.516 . S
C819 C818 1.516 . S
C819 C820 1.502 . S
C819 C821 1.561 . S
C819 C822 1.526 . S
C820 H804 0.959 . S
C820 H805 0.959 . S
C820 H806 0.961 . S
C820 C819 1.502 . S
C821 H807 0.960 . S
C821 H808 0.961 . S
C821 H809 0.959 . S
C821 C819 1.561 . S
C822 C819 1.526 . S
C822 C823 1.396 . S
C822 C827 1.390 . S
C823 C817 1.465 . S
C823 C822 1.396 . S
C823 C824 1.399 . S
C824 H810 0.929 . S
C824 C823 1.399 . S
C824 C825 1.385 . S
C825 H811 0.931 . S
C825 C824 1.385 . S
C825 C826 1.389 . S
C826 C825 1.389 . S
C826 C827 1.387 . S
C827 H812 0.930 . S
C827 C822 1.390 . S
C827 C826 1.387 . S
H828 C840 0.930 . S
H829 C842 0.930 . S
H830 C843 0.930 . S
H831 C847 0.959 . S
H832 C847 0.959 . S
H833 C847 0.961 . S
H834 C848 0.960 . S
H835 C848 0.961 . S
H836 C848 0.959 . S
H837 C851 0.929 . S
H838 C852 0.931 . S
H839 C854 0.930 . S
C840 H828 0.930 . S
C840 C841 1.399 . S
C840 C845 1.399 . S
C841 C840 1.399 . S
C841 C842 1.376 . S
C842 H829 0.930 . S
C842 C841 1.376 . S
C842 C843 1.388 . S
C843 H830 0.930 . S
C843 C842 1.388 . S
C843 C844 1.390 . S
C844 C843 1.390 . S
C844 C845 1.394 . S
C844 C850 1.465 . S
C845 C840 1.399 . S
C845 C844 1.394 . S
C845 C846 1.516 . S
C846 C845 1.516 . S
C846 C847 1.502 . S
C846 C848 1.561 . S
C846 C849 1.526 . S
C847 H831 0.959 . S
C847 H832 0.959 . S
C847 H833 0.961 . S
C847 C846 1.502 . S
C848 H834 0.960 . S
C848 H835 0.961 . S
C848 H836 0.959 . S
C848 C846 1.561 . S
C849 C846 1.526 . S
C849 C850 1.396 . S
C849 C854 1.390 . S
C850 C844 1.465 . S
C850 C849 1.396 . S
C850 C851 1.399 . S
C851 H837 0.929 . S
C851 C850 1.399 . S
C851 C852 1.385 . S
C852 H838 0.931 . S
C852 C851 1.385 . S
C852 C853 1.389 . S
C853 C852 1.389 . S
C853 C854 1.387 . S
C854 H839 0.930 . S
C854 C849 1.390 . S
C854 C853 1.387 . S
H855 C867 0.930 . S
H856 C869 0.930 . S
H857 C870 0.930 . S
H858 C874 0.959 . S
H859 C874 0.959 . S
H860 C874 0.961 . S
H861 C875 0.960 . S
H862 C875 0.961 . S
H863 C875 0.959 . S
H864 C878 0.929 . S
H865 C879 0.931 . S
H866 C881 0.930 . S
C867 H855 0.930 . S
C867 C868 1.399 . S
C867 C872 1.399 . S
C868 C867 1.399 . S
C868 C869 1.376 . S
C869 H856 0.930 . S
C869 C868 1.376 . S
C869 C870 1.388 . S
C870 H857 0.930 . S
C870 C869 1.388 . S
C870 C871 1.390 . S
C871 C870 1.390 . S
C871 C872 1.394 . S
C871 C877 1.465 . S
C872 C867 1.399 . S
C872 C871 1.394 . S
C872 C873 1.516 . S
C873 C872 1.516 . S
C873 C874 1.502 . S
C873 C875 1.561 . S
C873 C876 1.526 . S
C874 H858 0.959 . S
C874 H859 0.959 . S
C874 H860 0.961 . S
C874 C873 1.502 . S
C875 H861 0.960 . S
C875 H862 0.961 . S
C875 H863 0.959 . S
C875 C873 1.561 . S
C876 C873 1.526 . S
C876 C877 1.396 . S
C876 C881 1.390 . S
C877 C871 1.465 . S
C877 C876 1.396 . S
C877 C878 1.399 . S
C878 H864 0.929 . S
C878 C877 1.399 . S
C878 C879 1.385 . S
C879 H865 0.931 . S
C879 C878 1.385 . S
C879 C880 1.389 . S
C880 C879 1.389 . S
C880 C881 1.387 . S
C881 H866 0.930 . S
C881 C876 1.390 . S
C881 C880 1.387 . S
H882 C894 0.930 . S
H883 C896 0.930 . S
H884 C897 0.930 . S
H885 C901 0.959 . S
H886 C901 0.959 . S
H887 C901 0.961 . S
H888 C902 0.960 . S
H889 C902 0.961 . S
H890 C902 0.959 . S
H891 C905 0.929 . S
H892 C906 0.931 . S
H893 C908 0.930 . S
C894 H882 0.930 . S
C894 C895 1.399 . S
C894 C899 1.399 . S
C895 C894 1.399 . S
C895 C896 1.376 . S
C896 H883 0.930 . S
C896 C895 1.376 . S
C896 C897 1.388 . S
C897 H884 0.930 . S
C897 C896 1.388 . S
C897 C898 1.390 . S
C898 C897 1.390 . S
C898 C899 1.394 . S
C898 C904 1.465 . S
C899 C894 1.399 . S
C899 C898 1.394 . S
C899 C900 1.516 . S
C900 C899 1.516 . S
C900 C901 1.502 . S
C900 C902 1.561 . S
C900 C903 1.526 . S
C901 H885 0.959 . S
C901 H886 0.959 . S
C901 H887 0.961 . S
C901 C900 1.502 . S
C902 H888 0.960 . S
C902 H889 0.961 . S
C902 H890 0.959 . S
C902 C900 1.561 . S
C903 C900 1.526 . S
C903 C904 1.396 . S
C903 C908 1.390 . S
C904 C898 1.465 . S
C904 C903 1.396 . S
C904 C905 1.399 . S
C905 H891 0.929 . S
C905 C904 1.399 . S
C905 C906 1.385 . S
C906 H892 0.931 . S
C906 C905 1.385 . S
C906 C907 1.389 . S
C907 C906 1.389 . S
C907 C908 1.387 . S
C908 H893 0.930 . S
C908 C903 1.390 . S
C908 C907 1.387 . S
H909 C921 0.930 . S
H910 C923 0.930 . S
H911 C924 0.930 . S
H912 C928 0.959 . S
H913 C928 0.959 . S
H914 C928 0.961 . S
H915 C929 0.960 . S
H916 C929 0.961 . S
H917 C929 0.959 . S
H918 C932 0.929 . S
H919 C933 0.931 . S
H920 C935 0.930 . S
C921 H909 0.930 . S
C921 C922 1.399 . S
C921 C926 1.399 . S
C922 C921 1.399 . S
C922 C923 1.376 . S
C923 H910 0.930 . S
C923 C922 1.376 . S
C923 C924 1.388 . S
C924 H911 0.930 . S
C924 C923 1.388 . S
C924 C925 1.390 . S
C925 C924 1.390 . S
C925 C926 1.394 . S
C925 C931 1.465 . S
C926 C921 1.399 . S
C926 C925 1.394 . S
C926 C927 1.516 . S
C927 C926 1.516 . S
C927 C928 1.502 . S
C927 C929 1.561 . S
C927 C930 1.526 . S
C928 H912 0.959 . S
C928 H913 0.959 . S
C928 H914 0.961 . S
C928 C927 1.502 . S
C929 H915 0.960 . S
C929 H916 0.961 . S
C929 H917 0.959 . S
C929 C927 1.561 . S
C930 C927 1.526 . S
C930 C931 1.396 . S
C930 C935 1.390 . S
C931 C925 1.465 . S
C931 C930 1.396 . S
C931 C932 1.399 . S
C932 H918 0.929 . S
C932 C931 1.399 . S
C932 C933 1.385 . S
C933 H919 0.931 . S
C933 C932 1.385 . S
C933 C934 1.389 . S
C934 C933 1.389 . S
C934 C935 1.387 . S
C935 H920 0.930 . S
C935 C930 1.390 . S
C935 C934 1.387 . S
H936 C948 0.930 . S
H937 C950 0.930 . S
H938 C951 0.930 . S
H939 C955 0.959 . S
H940 C955 0.959 . S
H941 C955 0.961 . S
H942 C956 0.960 . S
H943 C956 0.961 . S
H944 C956 0.959 . S
H945 C959 0.929 . S
H946 C960 0.931 . S
H947 C962 0.930 . S
C948 H936 0.930 . S
C948 C949 1.399 . S
C948 C953 1.399 . S
C949 C948 1.399 . S
C949 C950 1.376 . S
C950 H937 0.930 . S
C950 C949 1.376 . S
C950 C951 1.388 . S
C951 H938 0.930 . S
C951 C950 1.388 . S
C951 C952 1.390 . S
C952 C951 1.390 . S
C952 C953 1.394 . S
C952 C958 1.465 . S
C953 C948 1.399 . S
C953 C952 1.394 . S
C953 C954 1.516 . S
C954 C953 1.516 . S
C954 C955 1.502 . S
C954 C956 1.561 . S
C954 C957 1.526 . S
C955 H939 0.959 . S
C955 H940 0.959 . S
C955 H941 0.961 . S
C955 C954 1.502 . S
C956 H942 0.960 . S
C956 H943 0.961 . S
C956 H944 0.959 . S
C956 C954 1.561 . S
C957 C954 1.526 . S
C957 C958 1.396 . S
C957 C962 1.390 . S
C958 C952 1.465 . S
C958 C957 1.396 . S
C958 C959 1.399 . S
C959 H945 0.929 . S
C959 C958 1.399 . S
C959 C960 1.385 . S
C960 H946 0.931 . S
C960 C959 1.385 . S
C960 C961 1.389 . S
C961 C960 1.389 . S
C961 C962 1.387 . S
C962 H947 0.930 . S
C962 C957 1.390 . S
C962 C961 1.387 . S
H963 C975 0.930 . S
H964 C977 0.930 1_554 S
H965 C978 0.930 . S
H966 C982 0.959 . S
H967 C982 0.959 . S
H968 C982 0.961 . S
H969 C983 0.960 . S
H970 C983 0.961 . S
H971 C983 0.959 . S
H972 C986 0.929 . S
H973 C987 0.931 . S
H974 C989 0.930 . S
C975 H963 0.930 . S
C975 C976 1.399 . S
C975 C980 1.399 . S
C976 C975 1.399 . S
C976 C977 1.376 . S
C977 H964 0.930 1_556 S
C977 C976 1.376 . S
C977 C978 1.388 . S
C978 H965 0.930 . S
C978 C977 1.388 . S
C978 C979 1.390 . S
C979 C978 1.390 . S
C979 C980 1.394 . S
C979 C985 1.465 . S
C980 C975 1.399 . S
C980 C979 1.394 . S
C980 C981 1.516 . S
C981 C980 1.516 . S
C981 C982 1.502 . S
C981 C983 1.561 . S
C981 C984 1.526 . S
C982 H966 0.959 . S
C982 H967 0.959 . S
C982 H968 0.961 . S
C982 C981 1.502 . S
C983 H969 0.960 . S
C983 H970 0.961 . S
C983 H971 0.959 . S
C983 C981 1.561 . S
C984 C981 1.526 . S
C984 C985 1.396 . S
C984 C989 1.390 . S
C985 C979 1.465 . S
C985 C984 1.396 . S
C985 C986 1.399 . S
C986 H972 0.929 . S
C986 C985 1.399 . S
C986 C987 1.385 . S
C987 H973 0.931 . S
C987 C986 1.385 . S
C987 C988 1.389 . S
C988 C987 1.389 . S
C988 C989 1.387 . S
C989 H974 0.930 . S
C989 C984 1.390 . S
C989 C988 1.387 . S
C517 C488 1.344 . S
C529 C68 1.371 . S
C544 C67 1.364 . S
C556 C151 1.354 . S
C571 C152 1.343 . S
C583 C236 1.367 . S
C598 C235 1.357 . S
C610 C319 1.340 . S
C625 C404 1.363 . S
C637 C320 1.383 . S
C652 C487 1.340 . S
C664 C403 1.356 . S
C679 C58 1.047 . S
C691 C70 1.174 . S
C706 C154 1.075 1_556 S
C718 C142 1.162 . S
C733 C226 1.088 . S
C745 C238 1.152 1_554 S
C760 C322 1.113 . S
C772 C310 1.132 . S
C787 C406 1.174 . S
C799 C394 1.057 1_556 S
C814 C490 1.166 . S
C826 C478 1.071 . S
C841 C56 1.628 . S
C853 C391 1.623 . S
C868 C139 1.622 . S
C880 C476 1.610 . S
C895 C55 1.634 . S
C907 C224 1.625 . S
C922 C140 1.606 . S
C934 C307 1.620 . S
C949 C392 1.615 . S
C961 C223 1.628 . S
C976 C308 1.601 . S
C988 C475 1.608 . S
