# Generated by pormake.
# Topology gme, (4)-cn, num edge types: 1
# Building blocks:
#     Node 0, Type 0, BuildingBlock: ICAMEG_clean_sbu_1, # of connection points: 4
#     Node 1, Type 0, BuildingBlock: ICAMEG_clean_sbu_1, # of connection points: 4
#     Node 2, Type 0, BuildingBlock: ICAMEG_clean_sbu_1, # of connection points: 4
#     Node 3, Type 0, BuildingBlock: ICAMEG_clean_sbu_1, # of connection points: 4
#     Node 4, Type 0, BuildingBlock: ICAMEG_clean_sbu_1, # of connection points: 4
#     Node 5, Type 0, BuildingBlock: ICAMEG_clean_sbu_1, # of connection points: 4
#     Node 6, Type 0, BuildingBlock: ICAMEG_clean_sbu_1, # of connection points: 4
#     Node 7, Type 0, BuildingBlock: ICAMEG_clean_sbu_1, # of connection points: 4
#     Node 8, Type 0, BuildingBlock: ICAMEG_clean_sbu_1, # of connection points: 4
#     Node 9, Type 0, BuildingBlock: ICAMEG_clean_sbu_1, # of connection points: 4
#     Node 10, Type 0, BuildingBlock: ICAMEG_clean_sbu_1, # of connection points: 4
#     Node 11, Type 0, BuildingBlock: ICAMEG_clean_sbu_1, # of connection points: 4
#     Node 12, Type 0, BuildingBlock: ICAMEG_clean_sbu_1, # of connection points: 4
#     Node 13, Type 0, BuildingBlock: ICAMEG_clean_sbu_1, # of connection points: 4
#     Node 14, Type 0, BuildingBlock: ICAMEG_clean_sbu_1, # of connection points: 4
#     Node 15, Type 0, BuildingBlock: ICAMEG_clean_sbu_1, # of connection points: 4
#     Node 16, Type 0, BuildingBlock: ICAMEG_clean_sbu_1, # of connection points: 4
#     Node 17, Type 0, BuildingBlock: ICAMEG_clean_sbu_1, # of connection points: 4
#     Node 18, Type 0, BuildingBlock: ICAMEG_clean_sbu_1, # of connection points: 4
#     Node 19, Type 0, BuildingBlock: ICAMEG_clean_sbu_1, # of connection points: 4
#     Node 20, Type 0, BuildingBlock: ICAMEG_clean_sbu_1, # of connection points: 4
#     Node 21, Type 0, BuildingBlock: ICAMEG_clean_sbu_1, # of connection points: 4
#     Node 22, Type 0, BuildingBlock: ICAMEG_clean_sbu_1, # of connection points: 4
#     Node 23, Type 0, BuildingBlock: ICAMEG_clean_sbu_1, # of connection points: 4
#     Edge 24, Type (0, 0), BuildingBlock: OJICUG_clean_linker_0, # of connection points: 2
#     Edge 25, Type (0, 0), BuildingBlock: OJICUG_clean_linker_0, # of connection points: 2
#     Edge 26, Type (0, 0), BuildingBlock: OJICUG_clean_linker_0, # of connection points: 2
#     Edge 27, Type (0, 0), BuildingBlock: OJICUG_clean_linker_0, # of connection points: 2
#     Edge 28, Type (0, 0), BuildingBlock: OJICUG_clean_linker_0, # of connection points: 2
#     Edge 29, Type (0, 0), BuildingBlock: OJICUG_clean_linker_0, # of connection points: 2
#     Edge 30, Type (0, 0), BuildingBlock: OJICUG_clean_linker_0, # of connection points: 2
#     Edge 31, Type (0, 0), BuildingBlock: OJICUG_clean_linker_0, # of connection points: 2
#     Edge 32, Type (0, 0), BuildingBlock: OJICUG_clean_linker_0, # of connection points: 2
#     Edge 33, Type (0, 0), BuildingBlock: OJICUG_clean_linker_0, # of connection points: 2
#     Edge 34, Type (0, 0), BuildingBlock: OJICUG_clean_linker_0, # of connection points: 2
#     Edge 35, Type (0, 0), BuildingBlock: OJICUG_clean_linker_0, # of connection points: 2
#     Edge 36, Type (0, 0), BuildingBlock: OJICUG_clean_linker_0, # of connection points: 2
#     Edge 37, Type (0, 0), BuildingBlock: OJICUG_clean_linker_0, # of connection points: 2
#     Edge 38, Type (0, 0), BuildingBlock: OJICUG_clean_linker_0, # of connection points: 2
#     Edge 39, Type (0, 0), BuildingBlock: OJICUG_clean_linker_0, # of connection points: 2
#     Edge 40, Type (0, 0), BuildingBlock: OJICUG_clean_linker_0, # of connection points: 2
#     Edge 41, Type (0, 0), BuildingBlock: OJICUG_clean_linker_0, # of connection points: 2
#     Edge 42, Type (0, 0), BuildingBlock: OJICUG_clean_linker_0, # of connection points: 2
#     Edge 43, Type (0, 0), BuildingBlock: OJICUG_clean_linker_0, # of connection points: 2
#     Edge 44, Type (0, 0), BuildingBlock: OJICUG_clean_linker_0, # of connection points: 2
#     Edge 45, Type (0, 0), BuildingBlock: OJICUG_clean_linker_0, # of connection points: 2
#     Edge 46, Type (0, 0), BuildingBlock: OJICUG_clean_linker_0, # of connection points: 2
#     Edge 47, Type (0, 0), BuildingBlock: OJICUG_clean_linker_0, # of connection points: 2
#     Edge 48, Type (0, 0), BuildingBlock: OJICUG_clean_linker_0, # of connection points: 2
#     Edge 49, Type (0, 0), BuildingBlock: OJICUG_clean_linker_0, # of connection points: 2
#     Edge 50, Type (0, 0), BuildingBlock: OJICUG_clean_linker_0, # of connection points: 2
#     Edge 51, Type (0, 0), BuildingBlock: OJICUG_clean_linker_0, # of connection points: 2
#     Edge 52, Type (0, 0), BuildingBlock: OJICUG_clean_linker_0, # of connection points: 2
#     Edge 53, Type (0, 0), BuildingBlock: OJICUG_clean_linker_0, # of connection points: 2
#     Edge 54, Type (0, 0), BuildingBlock: OJICUG_clean_linker_0, # of connection points: 2
#     Edge 55, Type (0, 0), BuildingBlock: OJICUG_clean_linker_0, # of connection points: 2
#     Edge 56, Type (0, 0), BuildingBlock: OJICUG_clean_linker_0, # of connection points: 2
#     Edge 57, Type (0, 0), BuildingBlock: OJICUG_clean_linker_0, # of connection points: 2
#     Edge 58, Type (0, 0), BuildingBlock: OJICUG_clean_linker_0, # of connection points: 2
#     Edge 59, Type (0, 0), BuildingBlock: OJICUG_clean_linker_0, # of connection points: 2
#     Edge 60, Type (0, 0), BuildingBlock: OJICUG_clean_linker_0, # of connection points: 2
#     Edge 61, Type (0, 0), BuildingBlock: OJICUG_clean_linker_0, # of connection points: 2
#     Edge 62, Type (0, 0), BuildingBlock: OJICUG_clean_linker_0, # of connection points: 2
#     Edge 63, Type (0, 0), BuildingBlock: OJICUG_clean_linker_0, # of connection points: 2
#     Edge 64, Type (0, 0), BuildingBlock: OJICUG_clean_linker_0, # of connection points: 2
#     Edge 65, Type (0, 0), BuildingBlock: OJICUG_clean_linker_0, # of connection points: 2
#     Edge 66, Type (0, 0), BuildingBlock: OJICUG_clean_linker_0, # of connection points: 2
#     Edge 67, Type (0, 0), BuildingBlock: OJICUG_clean_linker_0, # of connection points: 2
#     Edge 68, Type (0, 0), BuildingBlock: OJICUG_clean_linker_0, # of connection points: 2
#     Edge 69, Type (0, 0), BuildingBlock: OJICUG_clean_linker_0, # of connection points: 2
#     Edge 70, Type (0, 0), BuildingBlock: OJICUG_clean_linker_0, # of connection points: 2
#     Edge 71, Type (0, 0), BuildingBlock: OJICUG_clean_linker_0, # of connection points: 2
# Relax obj value: 0.062
# Max RMSD: 0.062
# Mean RMSD: 0.062
data_MOF--net-gme--node1-ICAMEG_clean_sbu_1--edge1-OJICUG_clean_linker_0
_symmetry_space_group_name_H-M    P1
_symmetry_Int_Tables_number       1
_symmetry_cell_setting            triclinic
loop_
_symmetry_equiv_pos_as_xyz
'x, y, z'
_cell_length_a     44.21807
_cell_length_b     44.231891
_cell_length_c     44.557888
_cell_angle_alpha  90.00144
_cell_angle_beta   90.000061
_cell_angle_gamma 119.99512
loop_
_atom_site_label
_atom_site_type_symbol
_atom_site_fract_x
_atom_site_fract_y
_atom_site_fract_z
_atom_type_partial_charge
Co0 Co 0.4349 0.10332 0.14103 0.0
Co1 Co 0.38164 0.01476 0.13207 0.0
O2 O 0.39762 0.06317 0.12043 0.0
C3 C 0.38079 0.12521 0.14415 0.0
O4 O 0.36057 0.09803 0.16085 0.0
C5 C 0.4003 0.0199 0.06815 0.0
O6 O 0.42899 0.0486 0.07555 0.0
O7 O 0.43029 0.02308 0.13239 0.0
O8 O 0.46147 0.07853 0.14791 0.0
H9 H 0.38237 0.91907 0.19224 0.0
H10 H 0.41329 0.11383 0.08071 0.0
O11 O 0.40984 0.12982 0.13433 0.0
H12 H 0.53797 0.15004 0.07094 0.0
H13 H 0.51891 0.23141 0.15681 0.0
H14 H 0.47522 0.11284 0.19685 0.0
H15 H 0.50781 0.12943 0.11949 0.0
H16 H 0.47254 0.18027 0.13033 0.0
O17 O 0.37789 0.00189 0.08826 0.0
H18 H 0.40225 0.98014 0.17818 0.0
H19 H 0.32664 0.94597 0.10856 0.0
H20 H 0.52138 0.16334 0.22419 0.0
H21 H 0.44263 0.13491 0.03184 0.0
H22 H 0.54355 0.22319 0.20415 0.0
H23 H 0.50536 0.15299 0.02669 0.0
O24 O 0.41071 0.08553 0.17981 0.0
H25 H 0.28008 0.0212 0.08878 0.0
H26 H 0.32154 0.98116 0.17446 0.0
H27 H 0.26151 0.97138 0.17486 0.0
H28 H 0.24041 0.9914 0.13175 0.0
H29 H 0.34 0.03067 0.08941 0.0
H30 H 0.30612 0.88451 0.12167 0.0
H31 H 0.33397 0.87076 0.16388 0.0
O32 O 0.38541 0.02711 0.17616 0.0
C33 C 0.45857 0.0491 0.1417 0.0
C34 C 0.36994 0.92473 0.17388 0.0
C35 C 0.32718 0.90533 0.13424 0.0
N36 N 0.3654 0.96657 0.14277 0.0
C37 C 0.38101 0.95925 0.16588 0.0
C38 C 0.33895 0.94016 0.12688 0.0
C39 C 0.34281 0.89763 0.15793 0.0
C40 C 0.44071 0.1221 0.07875 0.0
N41 N 0.45881 0.12047 0.10296 0.0
C42 C 0.45714 0.13384 0.05098 0.0
C43 C 0.49232 0.14392 0.04809 0.0
C44 C 0.51062 0.14222 0.0729 0.0
C45 C 0.49335 0.13038 0.10031 0.0
C46 C 0.5094 0.20551 0.16581 0.0
C47 C 0.48478 0.13879 0.18794 0.0
C48 C 0.48319 0.17643 0.15088 0.0
N49 N 0.47143 0.14356 0.16186 0.0
C50 C 0.51088 0.16729 0.20356 0.0
C51 C 0.52328 0.20086 0.19233 0.0
C52 C 0.39484 0.05505 0.19131 0.0
C53 C 0.28895 0.01228 0.10765 0.0
C54 C 0.31258 0.99004 0.15566 0.0
C55 C 0.27854 0.98436 0.15599 0.0
C56 C 0.26671 0.99559 0.13179 0.0
N57 N 0.33418 0.00632 0.13185 0.0
C58 C 0.32281 0.01747 0.10809 0.0
Co59 Co 0.32946 0.43393 0.64203 0.0
Co60 Co 0.36533 0.38118 0.63347 0.0
O61 O 0.33267 0.39678 0.62156 0.0
C62 C 0.25358 0.3795 0.64439 0.0
O63 O 0.26064 0.35918 0.66085 0.0
C64 C 0.37888 0.39929 0.56948 0.0
O65 O 0.37866 0.42794 0.57661 0.0
O66 O 0.40544 0.42991 0.63348 0.0
O67 O 0.38072 0.46057 0.64934 0.0
H68 H 0.46217 0.3831 0.69397 0.0
H69 H 0.29794 0.41248 0.58148 0.0
O70 O 0.27795 0.4088 0.63494 0.0
H71 H 0.38651 0.53714 0.57216 0.0
H72 H 0.28539 0.51809 0.65691 0.0
H73 H 0.35938 0.47392 0.69814 0.0
H74 H 0.37644 0.50688 0.62072 0.0
H75 H 0.29033 0.47166 0.63074 0.0
O76 O 0.37449 0.37706 0.58975 0.0
H77 H 0.42073 0.40256 0.67956 0.0
H78 H 0.37946 0.32617 0.61055 0.0
H79 H 0.35467 0.51998 0.7253 0.0
H80 H 0.30673 0.44192 0.5326 0.0
H81 H 0.31747 0.54243 0.70464 0.0
H82 H 0.35143 0.50464 0.52768 0.0
O83 O 0.32276 0.40967 0.68081 0.0
H84 H 0.2576 0.27885 0.59073 0.0
H85 H 0.33917 0.32157 0.67635 0.0
H86 H 0.28914 0.26146 0.67714 0.0
H87 H 0.24798 0.23971 0.63407 0.0
H88 H 0.30784 0.33887 0.59097 0.0
H89 H 0.42067 0.30608 0.62402 0.0
H90 H 0.4623 0.33453 0.6661 0.0
O91 O 0.35683 0.38539 0.67748 0.0
C92 C 0.40742 0.45798 0.64302 0.0
C93 C 0.44407 0.37042 0.67567 0.0
C94 C 0.42081 0.32722 0.63638 0.0
N95 N 0.39752 0.3653 0.64443 0.0
C96 C 0.42048 0.38125 0.66747 0.0
C97 C 0.39759 0.33875 0.62881 0.0
C98 C 0.44416 0.34319 0.66 0.0
C99 C 0.3171 0.43989 0.57962 0.0
N100 N 0.33657 0.45792 0.60396 0.0
C101 C 0.32209 0.45638 0.55184 0.0
C102 C 0.34723 0.49156 0.54908 0.0
C103 C 0.36695 0.50979 0.57402 0.0
C104 C 0.36123 0.49246 0.60144 0.0
C105 C 0.30153 0.50844 0.6662 0.0
C106 C 0.34315 0.48356 0.689 0.0
C107 C 0.30452 0.48221 0.65143 0.0
N108 N 0.32542 0.47034 0.66273 0.0
C109 C 0.34055 0.50961 0.70451 0.0
C110 C 0.31964 0.52215 0.69293 0.0
C111 C 0.33798 0.3945 0.69251 0.0
C112 C 0.27541 0.28799 0.60959 0.0
C113 C 0.32131 0.31233 0.65757 0.0
C114 C 0.29307 0.27824 0.65811 0.0
C115 C 0.27 0.26606 0.63393 0.0
N116 N 0.3265 0.33363 0.63356 0.0
C117 C 0.30395 0.32191 0.60981 0.0
Co118 Co 0.89213 0.33026 0.14132 0.0
Co119 Co 0.98085 0.3653 0.1337 0.0
O120 O 0.93263 0.33294 0.12153 0.0
C121 C 0.871 0.25457 0.1444 0.0
O122 O 0.89857 0.26199 0.16074 0.0
C123 C 0.97678 0.37878 0.06963 0.0
O124 O 0.94806 0.37895 0.07664 0.0
O125 O 0.97271 0.40572 0.13347 0.0
O126 O 0.91688 0.38163 0.14796 0.0
H127 H 0.07572 0.46167 0.19457 0.0
H128 H 0.88265 0.29771 0.08128 0.0
O129 O 0.86572 0.27868 0.13486 0.0
H130 H 0.84698 0.38634 0.06933 0.0
H131 H 0.7638 0.28684 0.1547 0.0
H132 H 0.88158 0.36124 0.19654 0.0
H133 H 0.86664 0.37706 0.11847 0.0
H134 H 0.81541 0.29116 0.12942 0.0
O135 O 0.99445 0.3743 0.09002 0.0
H136 H 0.01483 0.42058 0.17986 0.0
H137 H 0.04997 0.37884 0.11126 0.0
H138 H 0.83058 0.35716 0.22281 0.0
H139 H 0.86251 0.30569 0.03185 0.0
H140 H 0.77113 0.31976 0.20184 0.0
H141 H 0.8447 0.35042 0.0256 0.0
O142 O 0.90916 0.32406 0.18058 0.0
H143 H 0.97487 0.25712 0.09142 0.0
H144 H 0.01352 0.33872 0.17699 0.0
H145 H 0.02312 0.28839 0.1781 0.0
H146 H 0.0038 0.24722 0.13506 0.0
H147 H 0.96555 0.30765 0.09134 0.0
H148 H 0.11127 0.41969 0.12502 0.0
H149 H 0.12443 0.46138 0.16704 0.0
O150 O 0.96769 0.35687 0.17763 0.0
C151 C 0.94653 0.40808 0.14217 0.0
C152 C 0.07032 0.44354 0.17629 0.0
C153 C 0.09027 0.42001 0.13723 0.0
N154 N 0.0289 0.39716 0.14492 0.0
C155 C 0.0359 0.42015 0.16793 0.0
C156 C 0.05553 0.397 0.1295 0.0
C157 C 0.09764 0.44339 0.16081 0.0
C158 C 0.87448 0.31689 0.07884 0.0
N159 N 0.87574 0.33681 0.10277 0.0
C160 C 0.86328 0.32142 0.05076 0.0
C161 C 0.85336 0.34658 0.04725 0.0
C162 C 0.85467 0.36677 0.07177 0.0
C163 C 0.86598 0.36149 0.09952 0.0
C164 C 0.78951 0.30308 0.16411 0.0
C165 C 0.8558 0.34492 0.18726 0.0
C166 C 0.81886 0.30572 0.14985 0.0
N167 N 0.85152 0.32673 0.16131 0.0
C168 C 0.82701 0.34269 0.20227 0.0
C169 C 0.79367 0.32166 0.19052 0.0
C170 C 0.93944 0.33867 0.1925 0.0
C171 C 0.98348 0.27493 0.11027 0.0
C172 C 0.00494 0.32086 0.15822 0.0
C173 C 0.01052 0.29245 0.15895 0.0
C174 C -0.00032 0.26936 0.13478 0.0
N175 N 0.98915 0.3262 0.13405 0.0
C176 C 0.97838 0.30364 0.11031 0.0
Co177 Co 0.55966 0.89626 0.6413 0.0
Co178 Co 0.6173 0.98358 0.63135 0.0
O179 O 0.59737 0.93476 0.61985 0.0
C180 C 0.61183 0.87222 0.64094 0.0
O181 O 0.63429 0.90079 0.65505 0.0
C182 C 0.59475 0.98157 0.56877 0.0
O183 O 0.56347 0.9581 0.57793 0.0
O184 O 0.57016 0.97921 0.6338 0.0
O185 O 0.53629 0.92394 0.64933 0.0
H186 H 0.62845 0.08452 0.6919 0.0
H187 H 0.57805 0.88519 0.57991 0.0
O188 O 0.58186 0.86727 0.63354 0.0
H189 H 0.45461 0.85464 0.57422 0.0
H190 H 0.47179 0.76951 0.65897 0.0
H191 H 0.52181 0.88936 0.69813 0.0
H192 H 0.48667 0.87349 0.62213 0.0
H193 H 0.51827 0.81932 0.63116 0.0
O194 O 0.62015 0.99548 0.58732 0.0
H195 H 0.6031 0.02242 0.67833 0.0
H196 H 0.6747 0.04977 0.60605 0.0
H197 H 0.47518 0.84036 0.72653 0.0
H198 H 0.54689 0.86631 0.53155 0.0
H199 H 0.44987 0.7799 0.70697 0.0
H200 H 0.48472 0.85097 0.5285 0.0
O201 O 0.58558 0.91311 0.67949 0.0
H202 H 0.71138 0.96687 0.58461 0.0
H203 H 0.67927 0.01363 0.67179 0.0
H204 H 0.73719 0.01823 0.67026 0.0
H205 H 0.75359 0.99481 0.62639 0.0
H206 H 0.65365 0.96258 0.58717 0.0
H207 H 0.70065 0.11221 0.61865 0.0
H208 H 0.67759 0.12989 0.66195 0.0
O209 O 0.61435 0.97168 0.67549 0.0
C210 C 0.54136 0.95439 0.64378 0.0
C211 C 0.6388 0.07713 0.67305 0.0
C212 C 0.6793 0.09268 0.63191 0.0
N213 N 0.63763 0.03251 0.6416 0.0
C214 C 0.62463 0.04201 0.66532 0.0
C215 C 0.66446 0.05731 0.62484 0.0
C216 C 0.66635 0.10258 0.65621 0.0
C217 C 0.55091 0.87826 0.57879 0.0
N218 N 0.53415 0.88023 0.60383 0.0
C219 C 0.53345 0.86772 0.55134 0.0
C220 C 0.49858 0.85917 0.54963 0.0
C221 C 0.48167 0.86125 0.57527 0.0
C222 C 0.49998 0.87198 0.60233 0.0
C223 C 0.48253 0.79574 0.66767 0.0
C224 C 0.51071 0.86317 0.68934 0.0
C225 C 0.50888 0.82405 0.65204 0.0
N226 N 0.52246 0.85727 0.66284 0.0
C227 C 0.4844 0.83551 0.70558 0.0
C228 C 0.47024 0.80159 0.69461 0.0
C229 C 0.60339 0.94357 0.69077 0.0
C230 C 0.70458 0.97727 0.6038 0.0
C231 C 0.68619 0.0033 0.65266 0.0
C232 C 0.71904 0.00604 0.65189 0.0
C233 C 0.72823 0.99291 0.62727 0.0
N234 N 0.66318 0.98804 0.62951 0.0
C235 C 0.67197 0.97502 0.60533 0.0
Co236 Co 0.66848 0.56372 0.14177 0.0
Co237 Co 0.6324 0.61633 0.13309 0.0
O238 O 0.66531 0.60096 0.12139 0.0
C239 C 0.74428 0.61829 0.14514 0.0
O240 O 0.73699 0.63822 0.1619 0.0
C241 C 0.61945 0.59834 0.06903 0.0
O242 O 0.61977 0.56975 0.07619 0.0
O243 O 0.5924 0.56752 0.13298 0.0
O244 O 0.61713 0.53676 0.14849 0.0
H245 H 0.53497 0.61384 0.19308 0.0
H246 H 0.70085 0.58603 0.0816 0.0
O247 O 0.72008 0.58916 0.13522 0.0
H248 H 0.61307 0.46129 0.07096 0.0
H249 H 0.7126 0.47961 0.1566 0.0
H250 H 0.63792 0.52312 0.19748 0.0
H251 H 0.62218 0.49094 0.11972 0.0
H252 H 0.70802 0.52637 0.13067 0.0
O253 O 0.6235 0.62044 0.08931 0.0
H254 H 0.57674 0.59469 0.17894 0.0
H255 H 0.61807 0.67111 0.10998 0.0
H256 H 0.64237 0.47683 0.22445 0.0
H257 H 0.69303 0.55721 0.03253 0.0
H258 H 0.67991 0.45469 0.20396 0.0
H259 H 0.64872 0.49444 0.02694 0.0
O260 O 0.67449 0.58753 0.18069 0.0
H261 H 0.74015 0.719 0.09076 0.0
H262 H 0.65805 0.67587 0.176 0.0
H263 H 0.70788 0.73609 0.17694 0.0
H264 H 0.7493 0.75804 0.13406 0.0
H265 H 0.69011 0.65887 0.09084 0.0
H266 H 0.57654 0.6909 0.12317 0.0
H267 H 0.53471 0.66227 0.16508 0.0
O268 O 0.64073 0.61215 0.17715 0.0
C269 C 0.59043 0.53934 0.14221 0.0
C270 C 0.55315 0.6266 0.17484 0.0
C271 C 0.57645 0.66982 0.13558 0.0
N272 N 0.59999 0.63199 0.14386 0.0
C273 C 0.57693 0.61595 0.16681 0.0
C274 C 0.59985 0.65847 0.12817 0.0
C275 C 0.553 0.65375 0.1591 0.0
C276 C 0.68186 0.55859 0.07945 0.0
N277 N 0.66208 0.5402 0.10354 0.0
C278 C 0.67741 0.54246 0.05157 0.0
C279 C 0.6525 0.50726 0.04843 0.0
C280 C 0.63245 0.48865 0.07311 0.0
C281 C 0.63763 0.50564 0.10064 0.0
C282 C 0.69635 0.48915 0.16583 0.0
C283 C 0.65434 0.51367 0.18844 0.0
C284 C 0.69354 0.51555 0.15119 0.0
N285 N 0.67243 0.52722 0.16237 0.0
C286 C 0.65677 0.48746 0.20383 0.0
C287 C 0.67788 0.4751 0.19235 0.0
C288 C 0.65938 0.60287 0.19228 0.0
C289 C 0.72223 0.70977 0.10954 0.0
C290 C 0.67602 0.6852 0.1573 0.0
C291 C 0.70415 0.71934 0.15793 0.0
C292 C 0.72737 0.73165 0.13386 0.0
N293 N 0.67109 0.66395 0.13331 0.0
C294 C 0.69379 0.67578 0.10967 0.0
Co295 Co 0.10751 0.66675 0.64223 0.0
Co296 Co 0.01937 0.63345 0.63309 0.0
O297 O 0.06794 0.6648 0.62129 0.0
C298 C 0.13041 0.74292 0.64262 0.0
O299 O 0.10248 0.73674 0.65787 0.0
C300 C 0.02346 0.61988 0.56898 0.0
O301 O 0.05177 0.61892 0.57599 0.0
O302 O 0.02646 0.5924 0.63298 0.0
O303 O 0.0813 0.61551 0.64996 0.0
H304 H 0.92246 0.53808 0.69314 0.0
H305 H 0.11883 0.69754 0.58125 0.0
O306 O 0.13523 0.71802 0.63465 0.0
H307 H 0.15149 0.60625 0.57407 0.0
H308 H 0.23526 0.70951 0.65919 0.0
H309 H 0.11599 0.63608 0.69858 0.0
H310 H 0.13165 0.6179 0.62215 0.0
H311 H 0.18452 0.70449 0.63172 0.0
O312 O 0.00613 0.62487 0.58935 0.0
H313 H 0.98379 0.57807 0.67892 0.0
H314 H 0.95111 0.62184 0.61011 0.0
H315 H 0.16598 0.64023 0.72669 0.0
H316 H 0.13915 0.68716 0.53283 0.0
H317 H 0.22614 0.67718 0.70701 0.0
H318 H 0.15545 0.64109 0.52899 0.0
O319 O 0.09032 0.67481 0.68067 0.0
H320 H 0.02913 0.74329 0.59079 0.0
H321 H 0.9873 0.66111 0.67598 0.0
H322 H 0.9794 0.71249 0.67695 0.0
H323 H 0.00033 0.75397 0.6341 0.0
H324 H 0.03671 0.69169 0.59085 0.0
H325 H 0.88939 0.58212 0.62339 0.0
H326 H 0.87477 0.53996 0.66527 0.0
O327 O 0.03195 0.64141 0.67714 0.0
C328 C 0.05179 0.58941 0.64308 0.0
C329 C 0.9285 0.55642 0.67492 0.0
C330 C 0.90994 0.5811 0.63575 0.0
N331 N 0.97099 0.60245 0.64391 0.0
C332 C 0.96317 0.57919 0.66684 0.0
C333 C 0.94491 0.60347 0.62829 0.0
C334 C 0.90176 0.55746 0.65926 0.0
C335 C 0.12632 0.67777 0.57985 0.0
N336 N 0.12409 0.6584 0.60452 0.0
C337 C 0.13763 0.67188 0.55234 0.0
C338 C 0.1467 0.64598 0.55018 0.0
C339 C 0.14445 0.62639 0.57546 0.0
C340 C 0.13304 0.63301 0.6026 0.0
C341 C 0.20917 0.69325 0.66795 0.0
C342 C 0.14206 0.65199 0.68974 0.0
C343 C 0.18032 0.69031 0.6525 0.0
N344 N 0.14728 0.66973 0.66338 0.0
C345 C 0.17028 0.65432 0.70581 0.0
C346 C 0.20403 0.67509 0.69478 0.0
C347 C 0.05989 0.65999 0.69228 0.0
C348 C 0.01981 0.72535 0.60955 0.0
C349 C 0.99656 0.67909 0.65728 0.0
C350 C 0.99195 0.7081 0.65793 0.0
C351 C 0.00369 0.73135 0.63388 0.0
N352 N 0.01229 0.67332 0.6333 0.0
C353 C 0.02394 0.69604 0.60967 0.0
Co354 Co 0.89504 0.5651 0.37297 0.0
Co355 Co 0.9839 0.6173 0.38102 0.0
O356 O 0.93578 0.60233 0.39302 0.0
C357 C 0.87371 0.61963 0.36918 0.0
O358 O 0.90057 0.63918 0.35191 0.0
C359 C 0.97937 0.59945 0.44505 0.0
O360 O 0.95025 0.57099 0.43802 0.0
O361 O 0.97476 0.56838 0.38118 0.0
O362 O 0.91905 0.53781 0.36617 0.0
H363 H 0.07788 0.61376 0.32037 0.0
H364 H 0.88574 0.58802 0.43312 0.0
O365 O 0.86913 0.59082 0.37959 0.0
H366 H 0.84824 0.46322 0.44438 0.0
H367 H 0.76656 0.48118 0.35928 0.0
H368 H 0.88421 0.52411 0.31737 0.0
H369 H 0.86839 0.49242 0.3954 0.0
H370 H 0.81827 0.52809 0.38469 0.0
O371 O 0.99733 0.6215 0.4247 0.0
H372 H 0.01719 0.59509 0.33492 0.0
H373 H 0.05341 0.67185 0.40366 0.0
H374 H 0.83307 0.47771 0.29086 0.0
H375 H 0.86514 0.55965 0.48241 0.0
H376 H 0.77366 0.45586 0.31188 0.0
H377 H 0.84641 0.49686 0.4883 0.0
O378 O 0.9126 0.58855 0.33388 0.0
H379 H 0.98025 0.72067 0.42347 0.0
H380 H 0.01772 0.6766 0.33787 0.0
H381 H 0.02863 0.737 0.33689 0.0
H382 H 0.00992 0.75942 0.37996 0.0
H383 H 0.96962 0.66034 0.42341 0.0
H384 H 0.11451 0.69115 0.39005 0.0
H385 H 0.12704 0.66211 0.34804 0.0
O386 O 0.97099 0.61298 0.33706 0.0
C387 C 0.94833 0.54024 0.37218 0.0
C388 C 0.07276 0.6267 0.33864 0.0
C389 C 0.09332 0.6701 0.37778 0.0
N390 N 0.03181 0.63258 0.36992 0.0
C391 C 0.03845 0.61632 0.34692 0.0
C392 C 0.05869 0.65902 0.38542 0.0
C393 C 0.10033 0.65381 0.3542 0.0
C394 C 0.87717 0.56057 0.43541 0.0
N395 N 0.87819 0.54191 0.41137 0.0
C396 C 0.86571 0.54469 0.46341 0.0
C397 C 0.85527 0.50948 0.46672 0.0
C398 C 0.85634 0.4906 0.4421 0.0
C399 C 0.86793 0.50733 0.41444 0.0
C400 C 0.79223 0.49061 0.3498 0.0
C401 C 0.85845 0.5148 0.32662 0.0
C402 C 0.82164 0.51709 0.36416 0.0
N403 N 0.85427 0.52858 0.3527 0.0
C404 C 0.82958 0.48853 0.3115 0.0
C405 C 0.79627 0.47632 0.32327 0.0
C406 C 0.94295 0.60367 0.32209 0.0
C407 C 0.9886 0.71123 0.40461 0.0
C408 C 0.00939 0.68613 0.35665 0.0
C409 C 0.01571 0.72038 0.356 0.0
C410 C 0.00522 0.73295 0.38017 0.0
N411 N 0.9932 0.66504 0.38075 0.0
C412 C 0.98275 0.67713 0.40449 0.0
Co413 Co 0.33074 0.89472 0.87051 0.0
Co414 Co 0.3659 0.98319 0.87968 0.0
O415 O 0.33358 0.93476 0.89129 0.0
C416 C 0.25469 0.87277 0.86808 0.0
O417 O 0.26145 0.89995 0.85146 0.0
C418 C 0.37946 0.97807 0.94359 0.0
O419 O 0.37957 0.94943 0.93619 0.0
O420 O 0.40629 0.97498 0.87934 0.0
O421 O 0.38207 0.91968 0.86338 0.0
H422 H 0.46222 0.07908 0.81956 0.0
H423 H 0.29903 0.88401 0.93104 0.0
O424 O 0.27923 0.86808 0.8775 0.0
H425 H 0.38783 0.84813 0.93991 0.0
H426 H 0.2868 0.76672 0.85425 0.0
H427 H 0.36133 0.88548 0.81446 0.0
H428 H 0.37785 0.86877 0.89154 0.0
H429 H 0.29163 0.81772 0.88104 0.0
O430 O 0.37499 0.99604 0.92349 0.0
H431 H 0.42113 0.01797 0.83359 0.0
H432 H 0.37951 0.0519 0.90324 0.0
H433 H 0.35697 0.83514 0.78685 0.0
H434 H 0.30772 0.8629 0.97972 0.0
H435 H 0.31947 0.77519 0.80676 0.0
H436 H 0.35254 0.84499 0.98442 0.0
O437 O 0.32399 0.91252 0.83188 0.0
H438 H 0.25773 0.97636 0.92298 0.0
H439 H 0.33928 0.01674 0.83733 0.0
H440 H 0.28893 0.02634 0.83696 0.0
H441 H 0.24778 0.00616 0.88005 0.0
H442 H 0.30828 0.96707 0.92233 0.0
H443 H 0.42036 0.11341 0.89016 0.0
H444 H 0.46199 0.1273 0.84796 0.0
O445 O 0.35735 0.9709 0.83558 0.0
C446 C 0.40859 0.94907 0.86977 0.0
C447 C 0.44412 0.07337 0.83793 0.0
C448 C 0.42066 0.09263 0.87758 0.0
N449 N 0.39777 0.03142 0.86901 0.0
C450 C 0.42072 0.03882 0.8459 0.0
C451 C 0.39764 0.05777 0.88492 0.0
C452 C 0.444 0.10041 0.85389 0.0
C453 C 0.31825 0.87581 0.9328 0.0
N454 N 0.33783 0.87756 0.90844 0.0
C455 C 0.32318 0.86405 0.96047 0.0
C456 C 0.34839 0.85407 0.9631 0.0
C457 C 0.36822 0.85587 0.93815 0.0
C458 C 0.36255 0.86773 0.91084 0.0
C459 C 0.30313 0.79266 0.84532 0.0
C460 C 0.34504 0.85949 0.82332 0.0
C461 C 0.30602 0.82167 0.86042 0.0
N462 N 0.32703 0.85459 0.84949 0.0
C463 C 0.34262 0.83108 0.80755 0.0
C464 C 0.32154 0.79746 0.81871 0.0
C465 C 0.33871 0.94301 0.8204 0.0
C466 C 0.27553 0.98536 0.90412 0.0
C467 C 0.32143 0.00778 0.85612 0.0
C468 C 0.29301 0.01336 0.85581 0.0
C469 C 0.26994 0.00204 0.88 0.0
N470 N 0.3268 0.99152 0.87991 0.0
C471 C 0.30425 0.98026 0.90367 0.0
Co472 Co 0.43882 0.33099 0.37294 0.0
Co473 Co 0.3847 0.36532 0.38138 0.0
O474 O 0.40113 0.33336 0.39331 0.0
C475 C 0.38504 0.25493 0.37091 0.0
O476 O 0.36411 0.26156 0.35489 0.0
C477 C 0.40218 0.37868 0.4455 0.0
O478 O 0.43123 0.37915 0.43855 0.0
O479 O 0.4331 0.40598 0.38161 0.0
O480 O 0.46479 0.38233 0.36582 0.0
H481 H 0.38507 0.46147 0.32104 0.0
H482 H 0.41743 0.29929 0.43344 0.0
O483 O 0.4144 0.27956 0.37993 0.0
H484 H 0.54175 0.38886 0.44305 0.0
H485 H 0.52282 0.28676 0.3573 0.0
H486 H 0.47945 0.36201 0.31728 0.0
H487 H 0.51155 0.37857 0.39443 0.0
H488 H 0.47686 0.29212 0.38398 0.0
O489 O 0.38002 0.37405 0.42508 0.0
H490 H 0.40546 0.42077 0.33546 0.0
H491 H 0.32865 0.37803 0.40406 0.0
H492 H 0.52549 0.35744 0.28992 0.0
H493 H 0.44681 0.30831 0.48238 0.0
H494 H 0.54747 0.31958 0.30992 0.0
H495 H 0.50936 0.35351 0.48745 0.0
O496 O 0.41462 0.32399 0.33406 0.0
H497 H 0.28331 0.25635 0.42349 0.0
H498 H 0.32526 0.33843 0.33823 0.0
H499 H 0.26557 0.28768 0.33712 0.0
H500 H 0.24422 0.24626 0.38 0.0
H501 H 0.34291 0.30731 0.42358 0.0
H502 H 0.30761 0.41847 0.39058 0.0
H503 H 0.33581 0.46047 0.34871 0.0
O504 O 0.38938 0.35718 0.33739 0.0
C505 C 0.46153 0.40863 0.37223 0.0
C506 C 0.37249 0.4432 0.33925 0.0
C507 C 0.32905 0.4191 0.37831 0.0
N508 N 0.36804 0.39687 0.37038 0.0
C509 C 0.38385 0.42003 0.34745 0.0
C510 C 0.34111 0.39632 0.38588 0.0
C511 C 0.34487 0.44266 0.35481 0.0
C512 C 0.44477 0.31869 0.43537 0.0
N513 N 0.46274 0.33832 0.41108 0.0
C514 C 0.46123 0.3238 0.46318 0.0
C515 C 0.4963 0.34922 0.46602 0.0
C516 C 0.51448 0.36909 0.44113 0.0
C517 C 0.49719 0.36324 0.41367 0.0
C518 C 0.5135 0.30339 0.34839 0.0
C519 C 0.48905 0.34567 0.32624 0.0
C520 C 0.48748 0.30653 0.3634 0.0
N521 N 0.47572 0.32763 0.35236 0.0
C522 C 0.51506 0.34311 0.3106 0.0
C523 C 0.52734 0.32183 0.32182 0.0
C524 C 0.39901 0.33876 0.32234 0.0
C525 C 0.29228 0.27426 0.40471 0.0
C526 C 0.31619 0.32047 0.35694 0.0
C527 C 0.28234 0.29182 0.35621 0.0
C528 C 0.27037 0.2686 0.38028 0.0
N529 N 0.33747 0.32591 0.38103 0.0
C530 C 0.32596 0.30322 0.40468 0.0
Co531 Co 0.10383 0.43447 0.87283 0.0
Co532 Co 0.01512 0.38188 0.88142 0.0
O533 O 0.06338 0.39723 0.89317 0.0
C534 C 0.12506 0.3799 0.86944 0.0
O535 O 0.09786 0.35999 0.85263 0.0
C536 C 0.02009 0.39989 0.94547 0.0
O537 O 0.04903 0.42847 0.93832 0.0
O538 O 0.02395 0.4307 0.88151 0.0
O539 O 0.07949 0.46146 0.8661 0.0
H540 H 0.92028 0.38439 0.82129 0.0
H541 H 0.11379 0.41209 0.933 0.0
O542 O 0.12996 0.409 0.87938 0.0
H543 H 0.15086 0.53685 0.9437 0.0
H544 H 0.2321 0.51858 0.85811 0.0
H545 H 0.11394 0.47511 0.81714 0.0
H546 H 0.13036 0.50725 0.89492 0.0
H547 H 0.18071 0.47179 0.88399 0.0
O548 O 0.00204 0.37778 0.92518 0.0
H549 H 0.98117 0.40352 0.8355 0.0
H550 H 0.94595 0.32712 0.90449 0.0
H551 H 0.16473 0.52143 0.79021 0.0
H552 H 0.13475 0.44086 0.98209 0.0
H553 H 0.22439 0.54354 0.81074 0.0
H554 H 0.15326 0.50363 0.98771 0.0
O555 O 0.08606 0.41069 0.83389 0.0
H556 H 0.02008 0.2792 0.92385 0.0
H557 H 0.98123 0.32232 0.83853 0.0
H558 H 0.97081 0.26209 0.83762 0.0
H559 H 0.99022 0.24015 0.88055 0.0
H560 H 0.03021 0.33934 0.92373 0.0
H561 H 0.88465 0.30735 0.89122 0.0
H562 H 0.87153 0.33597 0.84926 0.0
O563 O 0.02768 0.38603 0.83738 0.0
C564 C 0.0502 0.45889 0.87234 0.0
C565 C 0.92567 0.37163 0.83955 0.0
C566 C 0.90567 0.32842 0.87883 0.0
N567 N 0.96706 0.36623 0.8706 0.0
C568 C 0.96008 0.38227 0.84762 0.0
C569 C 0.94041 0.33977 0.88628 0.0
C570 C 0.89832 0.34449 0.85527 0.0
C571 C 0.12226 0.43953 0.93516 0.0
N572 N 0.12092 0.45795 0.91108 0.0
C573 C 0.13392 0.45564 0.96306 0.0
C574 C 0.14424 0.49084 0.96621 0.0
C575 C 0.14285 0.50948 0.94154 0.0
C576 C 0.13107 0.49252 0.91399 0.0
C577 C 0.20631 0.50904 0.84885 0.0
C578 C 0.13981 0.48455 0.8262 0.0
C579 C 0.17708 0.48263 0.86347 0.0
N580 N 0.14432 0.47098 0.85226 0.0
C581 C 0.16848 0.51077 0.81083 0.0
C582 C 0.20193 0.52312 0.82233 0.0
C583 C 0.05563 0.3953 0.82228 0.0
C584 C 0.01142 0.28843 0.90506 0.0
C585 C 0.98986 0.313 0.85725 0.0
C586 C 0.98381 0.27884 0.85664 0.0
C587 C 0.9947 0.26654 0.88073 0.0
N588 N 0.00616 0.33425 0.88124 0.0
C589 C 0.01699 0.32242 0.9049 0.0
Co590 Co 0.66354 0.10268 0.37026 0.0
Co591 Co 0.63286 0.01523 0.38041 0.0
O592 O 0.66225 0.06401 0.39184 0.0
C593 C 0.73964 0.12609 0.37069 0.0
O594 O 0.73337 0.09764 0.35626 0.0
C595 C 0.61273 0.01766 0.44305 0.0
O596 O 0.60522 0.04135 0.43391 0.0
O597 O 0.59048 0.02024 0.37807 0.0
O598 O 0.61246 0.07543 0.36215 0.0
H599 H 0.54195 0.91473 0.32019 0.0
H600 H 0.69277 0.11365 0.43175 0.0
O601 O 0.71476 0.13123 0.37814 0.0
H602 H 0.60068 0.14536 0.43689 0.0
H603 H 0.70365 0.22964 0.3523 0.0
H604 H 0.633 0.10983 0.31328 0.0
H605 H 0.61382 0.12621 0.38912 0.0
H606 H 0.69974 0.17967 0.38026 0.0
O607 O 0.62388 0.00347 0.42447 0.0
H608 H 0.57947 0.97677 0.33359 0.0
H609 H 0.62327 0.94875 0.40577 0.0
H610 H 0.63604 0.15902 0.28469 0.0
H611 H 0.68061 0.13289 0.47997 0.0
H612 H 0.67161 0.21946 0.30418 0.0
H613 H 0.63419 0.14882 0.48275 0.0
O614 O 0.67243 0.08551 0.33217 0.0
H615 H 0.74326 0.03055 0.42688 0.0
H616 H 0.66394 0.98437 0.33993 0.0
H617 H 0.71677 0.97891 0.34136 0.0
H618 H 0.75681 0.00203 0.38511 0.0
H619 H 0.69029 0.0357 0.42442 0.0
H620 H 0.586 0.88635 0.39333 0.0
H621 H 0.54509 0.86904 0.35018 0.0
O622 O 0.64175 0.02697 0.33624 0.0
C623 C 0.58683 0.04519 0.36793 0.0
C624 C 0.55976 0.92195 0.33898 0.0
C625 C 0.58445 0.90602 0.38006 0.0
N626 N 0.60373 0.96634 0.37025 0.0
C627 C 0.58114 0.95704 0.34661 0.0
C628 C 0.60542 0.94137 0.38704 0.0
C629 C 0.56151 0.89633 0.35583 0.0
C630 C 0.67275 0.12084 0.43274 0.0
N631 N 0.65418 0.11901 0.40762 0.0
C632 C 0.66589 0.13159 0.46012 0.0
C633 C 0.6398 0.14047 0.46168 0.0
C634 C 0.62097 0.13851 0.43596 0.0
C635 C 0.62851 0.1276 0.40898 0.0
C636 C 0.68802 0.20342 0.34361 0.0
C637 C 0.6483 0.13602 0.32203 0.0
C638 C 0.68571 0.17502 0.35933 0.0
N639 N 0.66585 0.14182 0.34857 0.0
C640 C 0.65003 0.16378 0.30569 0.0
C641 C 0.67002 0.19769 0.31662 0.0
C642 C 0.65928 0.05499 0.32092 0.0
C643 C 0.72596 0.02028 0.40774 0.0
C644 C 0.68129 0.99458 0.35901 0.0
C645 C 0.71113 0.99135 0.35972 0.0
C646 C 0.73357 0.00432 0.38428 0.0
N647 N 0.67394 0.01015 0.38216 0.0
C648 C 0.69587 0.02302 0.40627 0.0
Co649 Co 0.56119 0.66814 0.87346 0.0
Co650 Co 0.6148 0.63295 0.88079 0.0
O651 O 0.59908 0.66539 0.89303 0.0
C652 C 0.61585 0.74375 0.86981 0.0
O653 O 0.63582 0.73611 0.85343 0.0
C654 C 0.59725 0.61941 0.94486 0.0
O655 O 0.56841 0.61935 0.93787 0.0
O656 O 0.56619 0.59257 0.88098 0.0
O657 O 0.53436 0.61675 0.86703 0.0
H658 H 0.61307 0.53662 0.81969 0.0
H659 H 0.58488 0.70102 0.9333 0.0
O660 O 0.58657 0.71976 0.87967 0.0
H661 H 0.46058 0.61275 0.94612 0.0
H662 H 0.47653 0.71192 0.86063 0.0
H663 H 0.51914 0.63702 0.81849 0.0
H664 H 0.48906 0.62164 0.8968 0.0
H665 H 0.52391 0.7075 0.88559 0.0
O666 O 0.61937 0.62383 0.92445 0.0
H667 H 0.5934 0.57778 0.83451 0.0
H668 H 0.67025 0.61917 0.90316 0.0
H669 H 0.47211 0.6412 0.79251 0.0
H670 H 0.55722 0.69342 0.98291 0.0
H671 H 0.45044 0.67885 0.81363 0.0
H672 H 0.4947 0.64888 0.9896 0.0
O673 O 0.58405 0.67403 0.83405 0.0
H674 H 0.71719 0.74088 0.92322 0.0
H675 H 0.67404 0.6595 0.83749 0.0
H676 H 0.73404 0.70973 0.83643 0.0
H677 H 0.756 0.75079 0.87956 0.0
H678 H 0.65727 0.69045 0.92324 0.0
H679 H 0.69056 0.57826 0.88928 0.0
H680 H 0.66198 0.5367 0.84718 0.0
O681 O 0.6101 0.64152 0.8369 0.0
C682 C 0.53758 0.59026 0.87256 0.0
C683 C 0.62581 0.55469 0.838 0.0
C684 C 0.66927 0.57802 0.87709 0.0
N685 N 0.63088 0.60103 0.86948 0.0
C686 C 0.61486 0.57812 0.84643 0.0
C687 C 0.65762 0.60107 0.88488 0.0
C688 C 0.65323 0.55472 0.85346 0.0
C689 C 0.55753 0.68192 0.93594 0.0
N690 N 0.53861 0.66189 0.91214 0.0
C691 C 0.54206 0.6776 0.96412 0.0
C692 C 0.50699 0.65255 0.96787 0.0
C693 C 0.48785 0.63225 0.9435 0.0
C694 C 0.50417 0.6373 0.91564 0.0
C695 C 0.48583 0.69557 0.85114 0.0
C696 C 0.50985 0.65345 0.82782 0.0
C697 C 0.51259 0.69287 0.86522 0.0
N698 N 0.52402 0.67173 0.85368 0.0
C699 C 0.48324 0.65574 0.81299 0.0
C700 C 0.47113 0.67691 0.82482 0.0
C701 C 0.59987 0.6596 0.82208 0.0
C702 C 0.70795 0.72312 0.90433 0.0
C703 C 0.68337 0.67732 0.8563 0.0
C704 C 0.71739 0.70567 0.8556 0.0
C705 C 0.7297 0.72869 0.87981 0.0
N706 N 0.66225 0.67197 0.88048 0.0
C707 C 0.67409 0.69447 0.90426 0.0
Co708 Co 0.56269 0.89477 0.8705 0.0
Co709 Co 0.61599 0.98325 0.87967 0.0
O710 O 0.59988 0.93482 0.89128 0.0
C711 C 0.61682 0.87287 0.86806 0.0
O712 O 0.63724 0.90007 0.85145 0.0
C713 C 0.59729 0.9781 0.94358 0.0
O714 O 0.56855 0.94946 0.93617 0.0
O715 O 0.56738 0.97501 0.87933 0.0
O716 O 0.5363 0.91971 0.86337 0.0
H717 H 0.61554 0.07913 0.81957 0.0
H718 H 0.58371 0.88407 0.93102 0.0
O719 O 0.58758 0.86816 0.87748 0.0
H720 H 0.45901 0.84812 0.9399 0.0
H721 H 0.47866 0.76676 0.85421 0.0
H722 H 0.52284 0.88552 0.81445 0.0
H723 H 0.48962 0.86878 0.89153 0.0
H724 H 0.52483 0.81777 0.88101 0.0
O725 O 0.61973 0.99608 0.92348 0.0
H726 H 0.59552 0.01801 0.83358 0.0
H727 H 0.67108 0.05196 0.90324 0.0
H728 H 0.47687 0.83517 0.78684 0.0
H729 H 0.55391 0.86294 0.9797 0.0
H730 H 0.45445 0.77522 0.80673 0.0
H731 H 0.49117 0.84499 0.9844 0.0
O732 O 0.58723 0.91259 0.83187 0.0
H733 H 0.71735 0.97646 0.92298 0.0
H734 H 0.67616 0.01682 0.83733 0.0
H735 H 0.73613 0.02645 0.83696 0.0
H736 H 0.7571 0.00628 0.88005 0.0
H737 H 0.65749 0.96714 0.92233 0.0
H738 H 0.69172 0.11347 0.89018 0.0
H739 H 0.66397 0.12735 0.84798 0.0
O740 O 0.61225 0.97096 0.83557 0.0
C741 C 0.53917 0.94909 0.86976 0.0
C742 C 0.62792 0.07341 0.83793 0.0
C743 C 0.67065 0.09269 0.87759 0.0
N744 N 0.63234 0.03147 0.86901 0.0
C745 C 0.61678 0.03887 0.8459 0.0
C746 C 0.65881 0.05783 0.88492 0.0
C747 C 0.65507 0.10046 0.8539 0.0
C748 C 0.55628 0.87585 0.93278 0.0
N749 N 0.53844 0.87759 0.90842 0.0
C750 C 0.53959 0.86408 0.96045 0.0
C751 C 0.5044 0.85409 0.96309 0.0
C752 C 0.48636 0.85588 0.93813 0.0
C753 C 0.50389 0.86775 0.91082 0.0
C754 C 0.48827 0.7927 0.8453 0.0
C755 C 0.51316 0.85953 0.82331 0.0
C756 C 0.51437 0.82171 0.86039 0.0
N757 N 0.52627 0.85463 0.84947 0.0
C758 C 0.48717 0.83111 0.80753 0.0
C759 C 0.47464 0.79749 0.81868 0.0
C760 C 0.603 0.94307 0.82039 0.0
C761 C 0.70855 0.98546 0.90412 0.0
C762 C 0.68506 0.00787 0.85613 0.0
C763 C 0.71907 0.01346 0.85582 0.0
C764 C 0.73082 0.00215 0.88001 0.0
N765 N 0.66342 0.99159 0.87991 0.0
C766 C 0.67472 0.98035 0.90367 0.0
Co767 Co 0.66902 0.5652 0.37299 0.0
Co768 Co 0.63236 0.6174 0.38099 0.0
O769 O 0.66552 0.60245 0.39301 0.0
C770 C 0.7449 0.61969 0.36916 0.0
O771 O 0.73762 0.63923 0.35185 0.0
C772 C 0.61905 0.5996 0.44503 0.0
O773 O 0.61971 0.57114 0.43803 0.0
O774 O 0.59258 0.56848 0.38117 0.0
O775 O 0.61771 0.53791 0.36618 0.0
H776 H 0.53484 0.61381 0.32032 0.0
H777 H 0.70124 0.58816 0.43314 0.0
O778 O 0.72065 0.59092 0.37961 0.0
H779 H 0.61391 0.46336 0.44444 0.0
H780 H 0.71356 0.48127 0.35937 0.0
H781 H 0.63885 0.52417 0.3174 0.0
H782 H 0.62297 0.49254 0.39545 0.0
H783 H 0.70877 0.5282 0.38475 0.0
O784 O 0.62314 0.62164 0.42467 0.0
H785 H 0.57687 0.59516 0.33489 0.0
H786 H 0.61741 0.67197 0.40359 0.0
H787 H 0.64359 0.47775 0.29093 0.0
H788 H 0.69346 0.55982 0.48243 0.0
H789 H 0.68114 0.45592 0.31198 0.0
H790 H 0.64939 0.49703 0.48836 0.0
O791 O 0.67492 0.58862 0.33388 0.0
H792 H 0.73941 0.72081 0.4234 0.0
H793 H 0.65785 0.67667 0.33781 0.0
H794 H 0.70735 0.73707 0.3368 0.0
H795 H 0.74849 0.75953 0.37986 0.0
H796 H 0.6897 0.66048 0.42337 0.0
H797 H 0.57562 0.69126 0.38995 0.0
H798 H 0.53405 0.66219 0.34795 0.0
O799 O 0.64095 0.61305 0.33703 0.0
C800 C 0.59086 0.54034 0.37219 0.0
C801 C 0.55291 0.62677 0.33859 0.0
C802 C 0.57576 0.6702 0.3777 0.0
N803 N 0.59974 0.63268 0.36987 0.0
C804 C 0.57683 0.6164 0.34687 0.0
C805 C 0.59931 0.65913 0.38536 0.0
C806 C 0.55245 0.65389 0.35412 0.0
C807 C 0.68235 0.56071 0.43543 0.0
N808 N 0.66268 0.54204 0.4114 0.0
C809 C 0.67793 0.54485 0.46344 0.0
C810 C 0.65314 0.50964 0.46677 0.0
C811 C 0.6332 0.49074 0.44215 0.0
C812 C 0.63835 0.50746 0.41448 0.0
C813 C 0.69733 0.49069 0.34988 0.0
C814 C 0.65531 0.51487 0.32667 0.0
C815 C 0.69439 0.51718 0.36422 0.0
N816 N 0.67326 0.52866 0.35274 0.0
C817 C 0.65789 0.48859 0.31156 0.0
C818 C 0.679 0.47639 0.32335 0.0
C819 C 0.65969 0.60373 0.32207 0.0
C820 C 0.72161 0.71135 0.40454 0.0
C821 C 0.67571 0.68622 0.35658 0.0
C822 C 0.70365 0.72047 0.35592 0.0
C823 C 0.72671 0.73305 0.38009 0.0
N824 N 0.67081 0.66514 0.3807 0.0
C825 C 0.69336 0.67726 0.40444 0.0
Co826 Co 0.10571 0.66798 0.87346 0.0
Co827 Co 0.0169 0.63274 0.88081 0.0
O828 O 0.06507 0.6652 0.89305 0.0
C829 C 0.12661 0.74357 0.86983 0.0
O830 O 0.09898 0.7359 0.85347 0.0
C831 C 0.02094 0.61921 0.94487 0.0
O832 O 0.04972 0.61916 0.93787 0.0
O833 O 0.02516 0.59238 0.88099 0.0
O834 O 0.08117 0.61659 0.86704 0.0
H835 H 0.92231 0.53639 0.81972 0.0
H836 H 0.1149 0.70086 0.93331 0.0
O837 O 0.13193 0.7196 0.87968 0.0
H838 H 0.151 0.61265 0.94612 0.0
H839 H 0.23417 0.71182 0.86062 0.0
H840 H 0.11665 0.63687 0.81849 0.0
H841 H 0.13138 0.62151 0.8968 0.0
H842 H 0.18236 0.70737 0.88558 0.0
O843 O 0.00323 0.62362 0.92447 0.0
H844 H 0.98313 0.57757 0.83453 0.0
H845 H 0.94767 0.61893 0.9032 0.0
H846 H 0.16786 0.64107 0.79251 0.0
H847 H 0.13499 0.69328 0.98291 0.0
H848 H 0.22719 0.67875 0.81362 0.0
H849 H 0.153 0.64877 0.9896 0.0
O850 O 0.08872 0.67385 0.83406 0.0
H851 H 0.02241 0.74064 0.92326 0.0
H852 H 0.98418 0.65927 0.83753 0.0
H853 H 0.97438 0.70947 0.83648 0.0
H854 H 0.99348 0.75053 0.87961 0.0
H855 H 0.03193 0.69024 0.92327 0.0
H856 H 0.88643 0.57798 0.88933 0.0
H857 H 0.87346 0.53644 0.84723 0.0
O858 O 0.03016 0.64132 0.83692 0.0
C859 C 0.05146 0.59009 0.87257 0.0
C860 C 0.92763 0.55445 0.83804 0.0
C861 C 0.90749 0.57776 0.87713 0.0
N862 N 0.9689 0.6008 0.86951 0.0
C863 C 0.96201 0.5779 0.84645 0.0
C864 C 0.94219 0.60083 0.88492 0.0
C865 C 0.90023 0.55447 0.8535 0.0
C866 C 0.12316 0.68177 0.93594 0.0
N867 N 0.12206 0.66174 0.91215 0.0
C868 C 0.13434 0.67747 0.96412 0.0
C869 C 0.14437 0.65243 0.96787 0.0
C870 C 0.14321 0.63213 0.9435 0.0
C871 C 0.13193 0.63717 0.91564 0.0
C872 C 0.20852 0.69546 0.85113 0.0
C873 C 0.14237 0.65331 0.82782 0.0
C874 C 0.17906 0.69274 0.86522 0.0
N875 N 0.14647 0.67158 0.85368 0.0
C876 C 0.17128 0.65562 0.81298 0.0
C877 C 0.20455 0.6768 0.82481 0.0
C878 C 0.05847 0.65941 0.8221 0.0
C879 C 0.01389 0.72288 0.90437 0.0
C880 C 0.99267 0.67709 0.85634 0.0
C881 C 0.98698 0.70542 0.85564 0.0
C882 C 0.99769 0.72844 0.87986 0.0
N883 N 0.00845 0.67175 0.88051 0.0
C884 C 0.01911 0.69424 0.90429 0.0
Co885 Co 0.43778 0.10269 0.37027 0.0
Co886 Co 0.38099 0.01524 0.38042 0.0
O887 O 0.4004 0.06402 0.39184 0.0
C888 C 0.38512 0.12613 0.37068 0.0
O889 O 0.36294 0.09771 0.35624 0.0
C890 C 0.40355 0.01767 0.44306 0.0
O891 O 0.43475 0.04136 0.43393 0.0
O892 O 0.42838 0.02025 0.37808 0.0
O893 O 0.4616 0.07543 0.36215 0.0
H894 H 0.37138 0.91474 0.3202 0.0
H895 H 0.41954 0.11367 0.43176 0.0
O896 O 0.41513 0.13125 0.37815 0.0
H897 H 0.54335 0.14536 0.43688 0.0
H898 H 0.52467 0.22964 0.3523 0.0
H899 H 0.47546 0.10982 0.31328 0.0
H900 H 0.51104 0.1262 0.38911 0.0
H901 H 0.47859 0.17967 0.38026 0.0
O902 O 0.37821 0.00348 0.42448 0.0
H903 H 0.39592 0.97678 0.33361 0.0
H904 H 0.32409 0.94876 0.40578 0.0
H905 H 0.52161 0.15901 0.28469 0.0
H906 H 0.45096 0.13291 0.47997 0.0
H907 H 0.54652 0.21945 0.30417 0.0
H908 H 0.51331 0.14882 0.48274 0.0
O909 O 0.41172 0.08552 0.33217 0.0
H910 H 0.28593 0.03057 0.42689 0.0
H911 H 0.31905 0.98438 0.33994 0.0
H912 H 0.26076 0.97893 0.34137 0.0
H913 H 0.24385 0.00206 0.38512 0.0
H914 H 0.34404 0.03572 0.42443 0.0
H915 H 0.29894 0.88636 0.39335 0.0
H916 H 0.32253 0.86904 0.35019 0.0
O917 O 0.38384 0.02698 0.33625 0.0
C918 C 0.45699 0.0452 0.36794 0.0
C919 C 0.3608 0.92196 0.33899 0.0
C920 C 0.32017 0.90603 0.38007 0.0
N921 N 0.36122 0.96635 0.37027 0.0
C922 C 0.37451 0.95705 0.34662 0.0
C923 C 0.33455 0.94138 0.38705 0.0
C924 C 0.33341 0.89633 0.35585 0.0
C925 C 0.44675 0.12086 0.43274 0.0
N926 N 0.46347 0.11901 0.40762 0.0
C927 C 0.46437 0.1316 0.46012 0.0
C928 C 0.49933 0.14048 0.46167 0.0
C929 C 0.51621 0.13851 0.43595 0.0
C930 C 0.49775 0.1276 0.40897 0.0
C931 C 0.51408 0.20343 0.34361 0.0
C932 C 0.48636 0.13602 0.32203 0.0
C933 C 0.48797 0.17503 0.35933 0.0
N934 N 0.47462 0.14182 0.34857 0.0
C935 C 0.5124 0.16378 0.30568 0.0
C936 C 0.52634 0.19769 0.31661 0.0
C937 C 0.39434 0.055 0.32093 0.0
C938 C 0.29295 0.0203 0.40775 0.0
C939 C 0.31191 0.99459 0.35902 0.0
C940 C 0.27885 0.99137 0.35973 0.0
C941 C 0.26937 0.00434 0.38429 0.0
N942 N 0.33484 0.01017 0.38217 0.0
C943 C 0.32578 0.02303 0.40628 0.0
Co944 Co 0.32959 0.43457 0.87282 0.0
Co945 Co 0.36574 0.38202 0.8814 0.0
O946 O 0.33281 0.39734 0.89315 0.0
C947 C 0.2538 0.37996 0.86944 0.0
O948 O 0.26112 0.36006 0.85265 0.0
C949 C 0.37877 0.40002 0.94546 0.0
O950 O 0.37841 0.4286 0.9383 0.0
O951 O 0.40573 0.43085 0.88149 0.0
O952 O 0.38093 0.46159 0.8661 0.0
H953 H 0.46312 0.38458 0.82127 0.0
H954 H 0.29725 0.41218 0.93299 0.0
O955 O 0.27799 0.40909 0.87937 0.0
H956 H 0.38492 0.53695 0.9437 0.0
H957 H 0.28541 0.51865 0.85811 0.0
H958 H 0.36011 0.47522 0.81713 0.0
H959 H 0.37583 0.50735 0.89492 0.0
H960 H 0.29001 0.47187 0.88399 0.0
O961 O 0.37472 0.37792 0.92517 0.0
H962 H 0.42134 0.40368 0.83548 0.0
H963 H 0.38017 0.32728 0.90447 0.0
H964 H 0.35563 0.52153 0.79021 0.0
H965 H 0.30505 0.44094 0.98208 0.0
H966 H 0.31807 0.54362 0.81075 0.0
H967 H 0.3493 0.50371 0.98771 0.0
O968 O 0.32359 0.4108 0.83388 0.0
H969 H 0.2581 0.2793 0.92383 0.0
H970 H 0.34008 0.32246 0.83851 0.0
H971 H 0.29029 0.26222 0.8376 0.0
H972 H 0.24892 0.24026 0.88053 0.0
H973 H 0.30811 0.33946 0.92371 0.0
H974 H 0.42172 0.30753 0.8912 0.0
H975 H 0.46347 0.33617 0.84924 0.0
O976 O 0.35733 0.38616 0.83737 0.0
C977 C 0.40766 0.45903 0.87233 0.0
C978 C 0.44497 0.37181 0.83953 0.0
C979 C 0.42177 0.3286 0.87881 0.0
N980 N 0.39817 0.36639 0.87059 0.0
C981 C 0.42119 0.38244 0.84761 0.0
C982 C 0.39836 0.33993 0.88626 0.0
C983 C 0.44518 0.34468 0.85525 0.0
C984 C 0.31622 0.43962 0.93516 0.0
N985 N 0.33598 0.45805 0.91107 0.0
C986 C 0.32065 0.45572 0.96305 0.0
C987 C 0.34553 0.49093 0.96621 0.0
C988 C 0.36556 0.50957 0.94154 0.0
C989 C 0.36039 0.49262 0.91399 0.0
C990 C 0.30166 0.50912 0.84885 0.0
C991 C 0.34368 0.48466 0.82619 0.0
C992 C 0.30448 0.48271 0.86346 0.0
N993 N 0.3256 0.47108 0.85225 0.0
C994 C 0.34123 0.51087 0.81083 0.0
C995 C 0.32012 0.52321 0.82234 0.0
C996 C 0.33865 0.39543 0.82227 0.0
C997 C 0.276 0.28854 0.90504 0.0
C998 C 0.32213 0.31313 0.85723 0.0
C999 C 0.29403 0.27897 0.85662 0.0
C1000 C 0.27084 0.26666 0.88071 0.0
N1001 N 0.32708 0.33438 0.88122 0.0
C1002 C 0.30442 0.32254 0.90489 0.0
Co1003 Co 0.89094 0.33089 0.37294 0.0
Co1004 Co 0.9794 0.36519 0.38139 0.0
O1005 O 0.93099 0.33325 0.39333 0.0
C1006 C 0.8686 0.25481 0.37093 0.0
O1007 O 0.89616 0.26142 0.35491 0.0
C1008 C 0.97529 0.37855 0.44552 0.0
O1009 O 0.94671 0.37903 0.43857 0.0
O1010 O 0.97168 0.40586 0.38163 0.0
O1011 O 0.91635 0.38223 0.36581 0.0
H1012 H 0.07522 0.46132 0.32107 0.0
H1013 H 0.8806 0.29921 0.43345 0.0
O1014 O 0.8639 0.27947 0.37994 0.0
H1015 H 0.84594 0.38884 0.443 0.0
H1016 H 0.76273 0.28672 0.35727 0.0
H1017 H 0.88137 0.3619 0.31726 0.0
H1018 H 0.86583 0.37851 0.39439 0.0
H1019 H 0.81403 0.29206 0.38397 0.0
O1020 O 0.99281 0.37391 0.42509 0.0
H1021 H 0.01412 0.42064 0.33548 0.0
H1022 H 0.04814 0.37786 0.40408 0.0
H1023 H 0.83078 0.35736 0.28988 0.0
H1024 H 0.86025 0.30827 0.48238 0.0
H1025 H 0.77092 0.31952 0.30988 0.0
H1026 H 0.84294 0.3535 0.48742 0.0
O1027 O 0.90814 0.32386 0.33407 0.0
H1028 H 0.97174 0.25619 0.4235 0.0
H1029 H 0.01193 0.33828 0.33825 0.0
H1030 H 0.02083 0.28751 0.33713 0.0
H1031 H 0.00073 0.24609 0.38002 0.0
H1032 H 0.96314 0.30717 0.42359 0.0
H1033 H 0.10964 0.41829 0.3906 0.0
H1034 H 0.12347 0.46029 0.34874 0.0
O1035 O 0.96658 0.35706 0.3374 0.0
C1036 C 0.94591 0.40852 0.37223 0.0
C1037 C 0.06952 0.44305 0.33928 0.0
C1038 C 0.08884 0.41893 0.37834 0.0
N1039 N 0.02761 0.39672 0.3704 0.0
C1040 C 0.03498 0.41989 0.34747 0.0
C1041 C 0.05399 0.39616 0.38591 0.0
C1042 C 0.09658 0.44249 0.35484 0.0
C1043 C 0.87267 0.31862 0.43537 0.0
N1044 N 0.87436 0.33825 0.41107 0.0
C1045 C 0.86134 0.32376 0.46317 0.0
C1046 C 0.8517 0.34919 0.46599 0.0
C1047 C 0.85342 0.36905 0.44109 0.0
C1048 C 0.86486 0.36318 0.41365 0.0
C1049 C 0.78867 0.30333 0.34836 0.0
C1050 C 0.85543 0.34558 0.32622 0.0
C1051 C 0.81784 0.30647 0.36338 0.0
N1052 N 0.85071 0.32755 0.35234 0.0
C1053 C 0.82687 0.34303 0.31057 0.0
C1054 C 0.7933 0.32176 0.32178 0.0
C1055 C 0.93853 0.33864 0.32235 0.0
C1056 C 0.98069 0.2741 0.40472 0.0
C1057 C 0.00302 0.32031 0.35696 0.0
C1058 C 0.00819 0.29165 0.35622 0.0
C1059 C 0.99693 0.26843 0.3803 0.0
N1060 N 0.98719 0.32576 0.38104 0.0
C1061 C 0.97599 0.30307 0.40469 0.0
Co1062 Co 0.1033 0.43382 0.64204 0.0
Co1063 Co 0.01466 0.38103 0.63348 0.0
O1064 O 0.06292 0.39665 0.62157 0.0
C1065 C 0.12479 0.37943 0.6444 0.0
O1066 O 0.09742 0.35909 0.66088 0.0
C1067 C 0.01921 0.39914 0.5695 0.0
O1068 O 0.04808 0.4278 0.57663 0.0
O1069 O 0.02328 0.42975 0.6335 0.0
O1070 O 0.07865 0.46044 0.64936 0.0
H1071 H 0.91973 0.3829 0.694 0.0
H1072 H 0.11336 0.41238 0.58148 0.0
O1073 O 0.12969 0.40872 0.63494 0.0
H1074 H 0.14941 0.53703 0.57218 0.0
H1075 H 0.23153 0.51802 0.65692 0.0
H1076 H 0.11336 0.4738 0.69816 0.0
H1077 H 0.12924 0.50677 0.62074 0.0
H1078 H 0.18015 0.47158 0.63075 0.0
O1079 O 0.00138 0.3769 0.58977 0.0
H1080 H 0.98064 0.40239 0.67958 0.0
H1081 H 0.94553 0.326 0.61057 0.0
H1082 H 0.16412 0.51986 0.72531 0.0
H1083 H 0.134 0.44183 0.53261 0.0
H1084 H 0.22378 0.54234 0.70465 0.0
H1085 H 0.152 0.50454 0.52769 0.0
O1086 O 0.08574 0.40955 0.68082 0.0
H1087 H 0.0201 0.27873 0.59073 0.0
H1088 H 0.98123 0.32142 0.67637 0.0
H1089 H 0.97117 0.26131 0.67715 0.0
H1090 H 0.9906 0.23959 0.63407 0.0
H1091 H 0.02986 0.33875 0.59098 0.0
H1092 H 0.88422 0.30588 0.62405 0.0
H1093 H 0.87103 0.33431 0.66613 0.0
O1094 O 0.02739 0.38525 0.67749 0.0
C1095 C 0.04936 0.45783 0.64305 0.0
C1096 C 0.92515 0.37022 0.67569 0.0
C1097 C 0.90522 0.32702 0.63641 0.0
N1098 N 0.96659 0.36513 0.64446 0.0
C1099 C 0.95957 0.38107 0.6675 0.0
C1100 C 0.93996 0.33857 0.62884 0.0
C1101 C 0.89783 0.34298 0.66003 0.0
C1102 C 0.12161 0.4398 0.57962 0.0
N1103 N 0.12017 0.45782 0.60397 0.0
C1104 C 0.1331 0.45629 0.55185 0.0
C1105 C 0.14312 0.49146 0.54909 0.0
C1106 C 0.14163 0.50969 0.57403 0.0
C1107 C 0.13004 0.49235 0.60145 0.0
C1108 C 0.20573 0.50836 0.66621 0.0
C1109 C 0.13923 0.48344 0.68902 0.0
C1110 C 0.17651 0.48212 0.65144 0.0
N1111 N 0.14374 0.47024 0.66274 0.0
C1112 C 0.16788 0.5095 0.70452 0.0
C1113 C 0.20133 0.52206 0.69294 0.0
C1114 C 0.05536 0.39437 0.69252 0.0
C1115 C 0.01143 0.28787 0.6096 0.0
C1116 C 0.98986 0.31219 0.65758 0.0
C1117 C 0.98402 0.27811 0.65812 0.0
C1118 C 0.99491 0.26593 0.63394 0.0
N1119 N 0.00596 0.33349 0.63357 0.0
C1120 C 0.01679 0.32178 0.60982 0.0
Co1121 Co 0.66706 0.10332 0.14103 0.0
Co1122 Co 0.63175 0.01477 0.13206 0.0
O1123 O 0.66419 0.06317 0.12043 0.0
C1124 C 0.74306 0.12517 0.14412 0.0
O1125 O 0.73608 0.09796 0.16079 0.0
C1126 C 0.61824 0.01991 0.06814 0.0
O1127 O 0.61825 0.04861 0.07554 0.0
O1128 O 0.59142 0.02308 0.13238 0.0
O1129 O 0.61571 0.07854 0.1479 0.0
H1130 H 0.53532 0.91907 0.19223 0.0
H1131 H 0.69919 0.11383 0.0807 0.0
O1132 O 0.71863 0.12983 0.13432 0.0
H1133 H 0.61073 0.15005 0.07092 0.0
H1134 H 0.71118 0.23142 0.1568 0.0
H1135 H 0.63627 0.11285 0.19684 0.0
H1136 H 0.62027 0.12944 0.11948 0.0
H1137 H 0.70639 0.18027 0.13033 0.0
O1138 O 0.62263 0.0019 0.08825 0.0
H1139 H 0.57652 0.98015 0.17817 0.0
H1140 H 0.61796 0.94598 0.10855 0.0
H1141 H 0.64062 0.16335 0.22417 0.0
H1142 H 0.69094 0.13492 0.03184 0.0
H1143 H 0.67831 0.2232 0.20415 0.0
H1144 H 0.6463 0.153 0.02668 0.0
O1145 O 0.67345 0.08553 0.1798 0.0
H1146 H 0.73976 0.02121 0.08877 0.0
H1147 H 0.65825 0.98116 0.17445 0.0
H1148 H 0.70849 0.97139 0.17485 0.0
H1149 H 0.74962 0.99141 0.13174 0.0
H1150 H 0.68931 0.03068 0.0894 0.0
H1151 H 0.577 0.88451 0.12166 0.0
H1152 H 0.5354 0.87076 0.16386 0.0
O1153 O 0.64034 0.02712 0.17615 0.0
C1154 C 0.58917 0.04911 0.14169 0.0
C1155 C 0.5534 0.92473 0.17387 0.0
C1156 C 0.57676 0.90533 0.13423 0.0
N1157 N 0.59979 0.96658 0.14276 0.0
C1158 C 0.57686 0.95925 0.16587 0.0
C1159 C 0.59983 0.94017 0.12687 0.0
C1160 C 0.55343 0.89764 0.15792 0.0
C1161 C 0.68005 0.12211 0.07874 0.0
N1162 N 0.66032 0.12048 0.10295 0.0
C1163 C 0.67536 0.13385 0.05097 0.0
C1164 C 0.65026 0.14393 0.04808 0.0
C1165 C 0.63027 0.14224 0.07288 0.0
C1166 C 0.63569 0.13039 0.1003 0.0
C1167 C 0.69478 0.20552 0.1658 0.0
C1168 C 0.65266 0.1388 0.18793 0.0
C1169 C 0.6919 0.17644 0.15087 0.0
N1170 N 0.67078 0.14357 0.16186 0.0
C1171 C 0.65507 0.1673 0.20355 0.0
C1172 C 0.67625 0.20087 0.19232 0.0
C1173 C 0.65885 0.05506 0.1913 0.0
C1174 C 0.72197 0.01229 0.10764 0.0
C1175 C 0.67609 0.99005 0.15565 0.0
C1176 C 0.70445 0.98437 0.15598 0.0
C1177 C 0.72751 0.9956 0.13178 0.0
N1178 N 0.67077 0.00632 0.13185 0.0
C1179 C 0.6933 0.01748 0.10808 0.0
Co1180 Co 0.55816 0.66693 0.6422 0.0
Co1181 Co 0.61302 0.63367 0.63306 0.0
O1182 O 0.59578 0.665 0.62127 0.0
C1183 C 0.61139 0.74311 0.6426 0.0
O1184 O 0.63315 0.73696 0.65787 0.0
C1185 C 0.59538 0.6201 0.56895 0.0
O1186 O 0.56611 0.61914 0.57594 0.0
O1187 O 0.56488 0.5926 0.63294 0.0
O1188 O 0.53313 0.61568 0.64994 0.0
H1189 H 0.61459 0.53832 0.69311 0.0
H1190 H 0.57761 0.69771 0.58122 0.0
O1191 O 0.58167 0.71819 0.63463 0.0
H1192 H 0.45366 0.60637 0.57405 0.0
H1193 H 0.47311 0.70961 0.65917 0.0
H1194 H 0.519 0.63624 0.69856 0.0
H1195 H 0.48516 0.61804 0.62212 0.0
H1196 H 0.51884 0.70462 0.6317 0.0
O1197 O 0.6177 0.6251 0.58933 0.0
H1198 H 0.59322 0.57828 0.67889 0.0
H1199 H 0.6697 0.6221 0.6101 0.0
H1200 H 0.47315 0.64036 0.72667 0.0
H1201 H 0.5469 0.68731 0.53281 0.0
H1202 H 0.4499 0.67728 0.70698 0.0
H1203 H 0.48454 0.64121 0.52897 0.0
O1204 O 0.5834 0.675 0.68065 0.0
H1205 H 0.71309 0.74354 0.59079 0.0
H1206 H 0.67274 0.66134 0.67597 0.0
H1207 H 0.73202 0.71275 0.67695 0.0
H1208 H 0.75256 0.75423 0.6341 0.0
H1209 H 0.65391 0.69192 0.59083 0.0
H1210 H 0.69171 0.5824 0.62338 0.0
H1211 H 0.66418 0.54023 0.66525 0.0
O1212 O 0.60838 0.64161 0.67712 0.0
C1213 C 0.53656 0.5896 0.64305 0.0
C1214 C 0.62688 0.55666 0.6749 0.0
C1215 C 0.67014 0.58137 0.63573 0.0
N1216 N 0.63042 0.60268 0.64389 0.0
C1217 C 0.61497 0.57942 0.66681 0.0
C1218 C 0.65752 0.60372 0.62827 0.0
C1219 C 0.65468 0.55772 0.65923 0.0
C1220 C 0.55034 0.67793 0.57983 0.0
N1221 N 0.53322 0.65856 0.6045 0.0
C1222 C 0.53314 0.67203 0.55231 0.0
C1223 C 0.49817 0.64611 0.55016 0.0
C1224 C 0.48084 0.62652 0.57544 0.0
C1225 C 0.49887 0.63315 0.60258 0.0
C1226 C 0.48295 0.69336 0.66793 0.0
C1227 C 0.50883 0.65214 0.68972 0.0
C1228 C 0.50887 0.69045 0.65248 0.0
N1229 N 0.52135 0.66988 0.66336 0.0
C1230 C 0.48294 0.65445 0.70579 0.0
C1231 C 0.46994 0.67521 0.69475 0.0
C1232 C 0.59902 0.66019 0.69225 0.0
C1233 C 0.70447 0.7256 0.60955 0.0
C1234 C 0.68146 0.67932 0.65727 0.0
C1235 C 0.71508 0.70835 0.65793 0.0
C1236 C 0.72659 0.73161 0.63387 0.0
N1237 N 0.65997 0.67355 0.63328 0.0
C1238 C 0.67104 0.69627 0.60965 0.0
Co1239 Co 0.89413 0.56363 0.14181 0.0
Co1240 Co 0.98282 0.61623 0.13311 0.0
O1241 O 0.93453 0.60086 0.12142 0.0
C1242 C 0.87294 0.61823 0.14515 0.0
O1243 O 0.90021 0.63818 0.16188 0.0
C1244 C 0.97775 0.59819 0.06906 0.0
O1245 O 0.94884 0.56961 0.07624 0.0
O1246 O 0.97401 0.56743 0.13302 0.0
O1247 O 0.91851 0.53667 0.14854 0.0
H1248 H 0.07779 0.61379 0.19309 0.0
H1249 H 0.88405 0.58591 0.08164 0.0
O1250 O 0.86798 0.58908 0.13527 0.0
H1251 H 0.84705 0.46116 0.07105 0.0
H1252 H 0.76589 0.47954 0.15671 0.0
H1253 H 0.88412 0.52307 0.19754 0.0
H1254 H 0.86762 0.49084 0.1198 0.0
H1255 H 0.81723 0.52628 0.13074 0.0
O1256 O 0.99582 0.62032 0.08933 0.0
H1257 H 0.01686 0.59463 0.17897 0.0
H1258 H 0.05193 0.67101 0.10996 0.0
H1259 H 0.83337 0.47679 0.22454 0.0
H1260 H 0.86302 0.55706 0.03259 0.0
H1261 H 0.77368 0.45464 0.20407 0.0
H1262 H 0.84454 0.49429 0.02702 0.0
O1263 O 0.91195 0.58746 0.18072 0.0
H1264 H 0.97774 0.71888 0.09073 0.0
H1265 H 0.01674 0.67581 0.17598 0.0
H1266 H 0.02714 0.73603 0.1769 0.0
H1267 H 0.00765 0.75795 0.13401 0.0
H1268 H 0.96764 0.65874 0.09084 0.0
H1269 H 0.11326 0.6908 0.12314 0.0
H1270 H 0.12648 0.66221 0.16506 0.0
O1271 O 0.97033 0.61208 0.17717 0.0
C1272 C 0.9478 0.53925 0.14226 0.0
C1273 C 0.07236 0.62654 0.17485 0.0
C1274 C 0.09227 0.66973 0.13556 0.0
N1275 N 0.0309 0.63191 0.14386 0.0
C1276 C 0.03793 0.61588 0.16682 0.0
C1277 C 0.05751 0.65837 0.12816 0.0
C1278 C 0.09967 0.65368 0.15909 0.0
C1279 C 0.87559 0.55847 0.0795 0.0
N1280 N 0.87699 0.54009 0.10359 0.0
C1281 C 0.86389 0.54232 0.05163 0.0
C1282 C 0.8536 0.50712 0.0485 0.0
C1283 C 0.85504 0.48853 0.07319 0.0
C1284 C 0.86687 0.50553 0.10071 0.0
C1285 C 0.79169 0.48908 0.16593 0.0
C1286 C 0.85823 0.5136 0.1885 0.0
C1287 C 0.8209 0.51547 0.15127 0.0
N1288 N 0.85368 0.52714 0.16244 0.0
C1289 C 0.82959 0.48741 0.20391 0.0
C1290 C 0.79612 0.47504 0.19245 0.0
C1291 C 0.9424 0.60281 0.19231 0.0
C1292 C 0.98643 0.70966 0.10951 0.0
C1293 C 0.00808 0.68512 0.15728 0.0
C1294 C 0.01411 0.71927 0.1579 0.0
C1295 C 0.00318 0.73155 0.13382 0.0
N1296 N 0.99175 0.66385 0.1333 0.0
C1297 C 0.98088 0.67567 0.10966 0.0
Co1298 Co 0.33524 0.89619 0.6413 0.0
Co1299 Co 0.3649 0.98351 0.63136 0.0
O1300 O 0.33603 0.93469 0.61985 0.0
C1301 C 0.25902 0.8721 0.64095 0.0
O1302 O 0.26511 0.90066 0.65507 0.0
C1303 C 0.38543 0.98152 0.56878 0.0
O1304 O 0.39326 0.95806 0.57792 0.0
O1305 O 0.40768 0.97916 0.6338 0.0
O1306 O 0.3863 0.92391 0.64934 0.0
H1307 H 0.45468 0.08447 0.69191 0.0
H1308 H 0.30579 0.88511 0.57991 0.0
O1309 O 0.28405 0.86718 0.63354 0.0
H1310 H 0.39873 0.85464 0.57423 0.0
H1311 H 0.29643 0.76946 0.65897 0.0
H1312 H 0.36621 0.88932 0.69814 0.0
H1313 H 0.3855 0.87347 0.62214 0.0
H1314 H 0.29973 0.81926 0.63117 0.0
O1315 O 0.37394 0.99541 0.58733 0.0
H1316 H 0.41795 0.02237 0.67833 0.0
H1317 H 0.37365 0.04968 0.60607 0.0
H1318 H 0.36386 0.84033 0.72654 0.0
H1319 H 0.31809 0.86625 0.53156 0.0
H1320 H 0.32874 0.77987 0.70698 0.0
H1321 H 0.36494 0.85095 0.52851 0.0
O1322 O 0.32616 0.91303 0.67949 0.0
H1323 H 0.25407 0.96674 0.58464 0.0
H1324 H 0.33296 0.01353 0.67181 0.0
H1325 H 0.27962 0.01809 0.67029 0.0
H1326 H 0.23979 0.99465 0.62643 0.0
H1327 H 0.30753 0.96248 0.58719 0.0
H1328 H 0.41012 0.11213 0.61868 0.0
H1329 H 0.45088 0.12983 0.66197 0.0
O1330 O 0.35597 0.97161 0.6755 0.0
C1331 C 0.41168 0.95436 0.64379 0.0
C1332 C 0.43693 0.07707 0.67306 0.0
C1333 C 0.41196 0.0926 0.63193 0.0
N1334 N 0.39348 0.03244 0.64162 0.0
C1335 C 0.416 0.04195 0.66533 0.0
C1336 C 0.39144 0.05723 0.62486 0.0
C1337 C 0.43482 0.10251 0.65623 0.0
C1338 C 0.32601 0.8782 0.5788 0.0
N1339 N 0.34475 0.88019 0.60384 0.0
C1340 C 0.33295 0.86767 0.55135 0.0
C1341 C 0.35927 0.85914 0.54964 0.0
C1342 C 0.37827 0.86124 0.57528 0.0
C1343 C 0.37067 0.87195 0.60234 0.0
C1344 C 0.3119 0.7957 0.66768 0.0
C1345 C 0.35113 0.86313 0.68935 0.0
C1346 C 0.31385 0.824 0.65205 0.0
N1347 N 0.33347 0.85722 0.66285 0.0
C1348 C 0.34979 0.83547 0.70559 0.0
C1349 C 0.33004 0.80156 0.69461 0.0
C1350 C 0.33881 0.94349 0.69078 0.0
C1351 C 0.27127 0.97714 0.60383 0.0
C1352 C 0.31571 0.00319 0.65269 0.0
C1353 C 0.28558 0.00591 0.65192 0.0
C1354 C 0.26325 0.99277 0.6273 0.0
N1355 N 0.32346 0.98794 0.62953 0.0
C1356 C 0.30165 0.97492 0.60535 0.0
Co1357 Co 0.43701 0.33035 0.1413 0.0
Co1358 Co 0.38337 0.36542 0.13368 0.0
O1359 O 0.3992 0.33305 0.12152 0.0
C1360 C 0.38241 0.25468 0.14441 0.0
O1361 O 0.36227 0.26213 0.16074 0.0
C1362 C 0.40093 0.37889 0.06962 0.0
O1363 O 0.4298 0.37905 0.07663 0.0
O1364 O 0.43195 0.40583 0.13346 0.0
O1365 O 0.46367 0.38172 0.14792 0.0
H1366 H 0.38492 0.46181 0.19455 0.0
H1367 H 0.4139 0.29777 0.08128 0.0
O1368 O 0.41181 0.27877 0.13486 0.0
H1369 H 0.53822 0.38634 0.06926 0.0
H1370 H 0.52189 0.28689 0.15465 0.0
H1371 H 0.47859 0.36134 0.1965 0.0
H1372 H 0.50931 0.37711 0.11841 0.0
H1373 H 0.4746 0.29122 0.12939 0.0
O1374 O 0.37878 0.37442 0.09001 0.0
H1375 H 0.40469 0.42071 0.17985 0.0
H1376 H 0.32782 0.379 0.11124 0.0
H1377 H 0.52552 0.35726 0.22275 0.0
H1378 H 0.44199 0.3057 0.03184 0.0
H1379 H 0.54753 0.31983 0.20178 0.0
H1380 H 0.50453 0.3504 0.02555 0.0
O1381 O 0.41382 0.32419 0.18057 0.0
H1382 H 0.28112 0.25727 0.0914 0.0
H1383 H 0.32412 0.33887 0.17698 0.0
H1384 H 0.26417 0.28856 0.17809 0.0
H1385 H 0.24229 0.24738 0.13504 0.0
H1386 H 0.34099 0.30778 0.09132 0.0
H1387 H 0.3074 0.41987 0.125 0.0
H1388 H 0.33594 0.46155 0.16702 0.0
O1389 O 0.38809 0.35699 0.17761 0.0
C1390 C 0.46049 0.40818 0.14214 0.0
C1391 C 0.3722 0.44369 0.17627 0.0
C1392 C 0.32872 0.42018 0.13721 0.0
N1393 N 0.36721 0.3973 0.14491 0.0
C1394 C 0.3832 0.42029 0.16792 0.0
C1395 C 0.34043 0.39716 0.12948 0.0
C1396 C 0.34474 0.44356 0.16079 0.0
C1397 C 0.44125 0.31694 0.07882 0.0
N1398 N 0.45993 0.33686 0.10275 0.0
C1399 C 0.45697 0.32144 0.05073 0.0
C1400 C 0.49204 0.34658 0.04721 0.0
C1401 C 0.51094 0.36678 0.07171 0.0
C1402 C 0.49438 0.36153 0.09947 0.0
C1403 C 0.51243 0.30314 0.16407 0.0
C1404 C 0.48803 0.34501 0.18723 0.0
C1405 C 0.48573 0.30579 0.14982 0.0
N1406 N 0.4741 0.32681 0.16128 0.0
C1407 C 0.51458 0.34277 0.20222 0.0
C1408 C 0.52688 0.32173 0.19047 0.0
C1409 C 0.39815 0.3388 0.19249 0.0
C1410 C 0.29033 0.27508 0.11026 0.0
C1411 C 0.31482 0.32101 0.1582 0.0
C1412 C 0.28083 0.29261 0.15893 0.0
C1413 C 0.26856 0.26952 0.13476 0.0
N1414 N 0.33596 0.32634 0.13403 0.0
C1415 C 0.32416 0.30378 0.1103 0.0
C1416 C 0.37983 0.0219 0.27191 0.0
C1417 C 0.38883 0.05272 0.28793 0.0
H1418 H 0.37455 0.99826 0.22867 0.0
C1419 C 0.39598 0.08286 0.27175 0.0
H1420 H 0.37413 0.9982 0.28366 0.0
C1421 C 0.39624 0.08291 0.24048 0.0
C1422 C 0.38939 0.05282 0.22434 0.0
H1423 H 0.40258 0.10699 0.28323 0.0
H1424 H 0.403 0.10708 0.229 0.0
C1425 C 0.38012 0.02196 0.24038 0.0
C1426 C 0.35745 0.3812 0.74166 0.0
C1427 C 0.33531 0.38976 0.72561 0.0
H1428 H 0.37591 0.37609 0.7849 0.0
C1429 C 0.31212 0.39667 0.74179 0.0
H1430 H 0.37558 0.37564 0.72992 0.0
C1431 C 0.31233 0.39695 0.77305 0.0
C1432 C 0.33572 0.39032 0.78921 0.0
H1433 H 0.29437 0.40297 0.73031 0.0
H1434 H 0.29471 0.40343 0.78453 0.0
C1435 C 0.35765 0.38147 0.77318 0.0
C1436 C 0.97196 0.35706 0.24183 0.0
C1437 C 0.9411 0.33587 0.22564 0.0
H1438 H 0.99558 0.37457 0.28518 0.0
C1439 C 0.91057 0.31344 0.24168 0.0
H1440 H 0.99598 0.37458 0.23022 0.0
C1441 C 0.91033 0.31344 0.27295 0.0
C1442 C 0.94063 0.33586 0.28926 0.0
H1443 H 0.88634 0.29643 0.2301 0.0
H1444 H 0.88595 0.29643 0.28431 0.0
C1445 C 0.97173 0.35705 0.27335 0.0
C1446 C 0.60153 0.91541 0.73985 0.0
C1447 C 0.60892 0.94569 0.72377 0.0
H1448 H 0.59435 0.891 0.78251 0.0
C1449 C 0.6182 0.97651 0.73987 0.0
H1450 H 0.5947 0.89127 0.72828 0.0
C1451 C 0.61794 0.97635 0.7714 0.0
C1452 C 0.60844 0.94538 0.78736 0.0
H1453 H 0.6241 0.00032 0.7282 0.0
H1454 H 0.62373 7e-05 0.78319 0.0
C1455 C 0.60131 0.91526 0.77111 0.0
C1456 C 0.64037 0.61706 0.27285 0.0
C1457 C 0.66236 0.60834 0.28896 0.0
H1458 H 0.62216 0.62235 0.22955 0.0
C1459 C 0.68548 0.60128 0.27285 0.0
H1460 H 0.6223 0.62273 0.28453 0.0
C1461 C 0.68539 0.60106 0.24158 0.0
C1462 C 0.66218 0.60788 0.22536 0.0
H1463 H 0.70312 0.59486 0.28437 0.0
H1464 H 0.70297 0.59448 0.23016 0.0
C1465 C 0.64029 0.61683 0.24133 0.0
C1466 C 0.08782 0.68514 0.74177 0.0
C1467 C 0.05762 0.66272 0.72536 0.0
H1468 H 0.11163 0.70198 0.78471 0.0
C1469 C 0.02647 0.64138 0.74116 0.0
H1470 H 0.11223 0.70225 0.73049 0.0
C1471 C 0.02612 0.64121 0.77268 0.0
C1472 C 0.05691 0.66237 0.78897 0.0
H1473 H 0.00269 0.62386 0.72925 0.0
H1474 H 0.00209 0.62357 0.78421 0.0
C1475 C 0.08747 0.68497 0.77304 0.0
C1476 C 0.9146 0.60106 0.2416 0.0
C1477 C 0.94463 0.60785 0.22538 0.0
H1478 H 0.89068 0.5949 0.28438 0.0
C1479 C 0.97546 0.61676 0.24135 0.0
H1480 H 0.89045 0.59452 0.23018 0.0
C1481 C 0.97559 0.61698 0.27287 0.0
C1482 C 0.9449 0.6083 0.28897 0.0
H1483 H -0.0009 0.62224 0.22957 0.0
H1484 H -0.00067 0.62262 0.28455 0.0
C1485 C 0.91473 0.60129 0.27286 0.0
C1486 C 0.35704 0.97628 0.77141 0.0
C1487 C 0.33558 0.9453 0.78737 0.0
H1488 H 0.37484 0.00025 0.72821 0.0
C1489 C 0.31259 0.91518 0.77113 0.0
H1490 H 0.37496 0.0 0.7832 0.0
C1491 C 0.31252 0.91533 0.73986 0.0
C1492 C 0.3354 0.94561 0.72378 0.0
H1493 H 0.2953 0.89092 0.78253 0.0
H1494 H 0.29522 0.89118 0.7283 0.0
C1495 C 0.35693 0.97644 0.73988 0.0
C1496 C 0.38423 0.35718 0.27334 0.0
C1497 C 0.39414 0.33599 0.28924 0.0
H1498 H 0.37752 0.3747 0.2302 0.0
C1499 C 0.40202 0.31357 0.27294 0.0
H1500 H 0.3779 0.37469 0.28516 0.0
C1501 C 0.40179 0.31357 0.24167 0.0
C1502 C 0.39369 0.336 0.22563 0.0
H1503 H 0.4094 0.29657 0.2843 0.0
H1504 H 0.409 0.29656 0.23009 0.0
C1505 C 0.38401 0.35718 0.24181 0.0
C1506 C 0.08339 0.39656 0.7418 0.0
C1507 C 0.05329 0.38963 0.72563 0.0
H1508 H 0.10758 0.40333 0.78453 0.0
C1509 C 0.02258 0.38105 0.74167 0.0
H1510 H 0.10745 0.40287 0.73032 0.0
C1511 C 0.02266 0.38132 0.77319 0.0
C1512 C 0.05344 0.39019 0.78922 0.0
H1513 H 0.99889 0.37548 0.72994 0.0
H1514 H -0.00098 0.37594 0.78492 0.0
C1515 C 0.08347 0.39684 0.77306 0.0
C1516 C 0.68552 0.08286 0.27174 0.0
C1517 C 0.66251 0.05271 0.28792 0.0
H1518 H 0.70272 0.10708 0.229 0.0
C1519 C 0.64069 0.0219 0.2719 0.0
H1520 H 0.70304 0.10699 0.28322 0.0
C1521 C 0.64046 0.02196 0.24037 0.0
C1522 C 0.66206 0.05282 0.22433 0.0
H1523 H 0.62269 0.99819 0.28365 0.0
H1524 H 0.62234 0.99826 0.22866 0.0
C1525 C 0.68531 0.08292 0.24047 0.0
C1526 C 0.59621 0.68531 0.74175 0.0
C1527 C 0.60402 0.66291 0.72534 0.0
H1528 H 0.58922 0.70213 0.78469 0.0
C1529 C 0.61384 0.64159 0.74114 0.0
H1530 H 0.58889 0.70241 0.73047 0.0
C1531 C 0.61403 0.64142 0.77266 0.0
C1532 C 0.60438 0.66256 0.78895 0.0
H1533 H 0.62012 0.62408 0.72923 0.0
H1534 H 0.62044 0.6238 0.78419 0.0
C1535 C 0.59639 0.68514 0.77302 0.0
C1536 C 0.35315 0.1601 0.16103 0.0
C1537 C 0.37349 0.15412 0.14019 0.0
H1538 H 0.33976 0.19709 0.17868 0.0
C1539 C 0.39144 0.1791 0.11776 0.0
H1540 H 0.33903 0.14127 0.17855 0.0
C1541 C 0.39187 0.21077 0.11786 0.0
C1542 C 0.37435 0.21824 0.14036 0.0
H1543 H 0.40692 0.17504 0.1011 0.0
H1544 H 0.40766 0.23023 0.10126 0.0
C1545 C 0.35357 0.19203 0.16111 0.0
C1546 C 0.17875 0.39007 0.61808 0.0
C1547 C 0.15353 0.37188 0.64029 0.0
H1548 H 0.22989 0.40605 0.60168 0.0
C1549 C 0.15907 0.35094 0.66078 0.0
H1550 H 0.17503 0.40602 0.60168 0.0
C1551 C 0.19082 0.35096 0.66077 0.0
C1552 C 0.21728 0.37192 0.64028 0.0
H1553 H 0.14004 0.33662 0.67812 0.0
H1554 H 0.19553 0.33665 0.67812 0.0
C1555 C 0.21023 0.39009 0.61808 0.0
C1556 C 0.81759 0.21071 0.11785 0.0
C1557 C 0.8426 0.21815 0.14035 0.0
H1558 H 0.7668 0.17503 0.1011 0.0
C1559 C 0.83714 0.19192 0.16108 0.0
H1560 H 0.82129 0.23019 0.10126 0.0
C1561 C 0.80559 0.16 0.16099 0.0
C1562 C 0.77928 0.15406 0.14017 0.0
H1563 H 0.85601 0.19696 0.17865 0.0
H1564 H 0.80087 0.14116 0.17851 0.0
C1565 C 0.78633 0.17905 0.11775 0.0
C1566 C 0.64121 0.80673 0.65655 0.0
C1567 C 0.61825 0.77907 0.63789 0.0
H1568 H 0.65746 0.85863 0.67209 0.0
C1569 C 0.59785 0.78479 0.61698 0.0
H1570 H 0.65728 0.80306 0.67285 0.0
C1571 C 0.5979 0.81626 0.61659 0.0
C1572 C 0.61842 0.84285 0.63705 0.0
H1573 H 0.5803 0.76419 0.60193 0.0
H1574 H 0.58039 0.81903 0.60128 0.0
C1575 C 0.64131 0.83851 0.65612 0.0
C1576 C 0.80681 0.64636 0.16211 0.0
C1577 C 0.78065 0.62604 0.14116 0.0
H1578 H 0.85729 0.66011 0.17979 0.0
C1579 C 0.78803 0.60856 0.11855 0.0
H1580 H 0.80182 0.66013 0.17978 0.0
C1581 C 0.81949 0.60854 0.11855 0.0
C1582 C 0.84436 0.62601 0.14117 0.0
H1583 H 0.76861 0.5931 0.1018 0.0
H1584 H 0.82344 0.59308 0.1018 0.0
C1585 C 0.83854 0.64635 0.16212 0.0
C1586 C 0.21702 0.81612 0.6166 0.0
C1587 C 0.22307 0.84271 0.63705 0.0
H1588 H 0.18259 0.76405 0.60195 0.0
C1589 C 0.19582 0.83834 0.65613 0.0
H1590 H 0.23731 0.81892 0.60129 0.0
C1591 C 0.16416 0.80654 0.65656 0.0
C1592 C 0.15949 0.77889 0.6379 0.0
H1593 H 0.19978 0.85846 0.6721 0.0
H1594 H 0.14442 0.80286 0.67286 0.0
C1595 C 0.18561 0.78463 0.61699 0.0
C1596 C 0.82014 0.60987 0.39573 0.0
C1597 C 0.845 0.62728 0.37309 0.0
H1598 H 0.76929 0.5945 0.41252 0.0
C1599 C 0.83912 0.64751 0.35207 0.0
H1600 H 0.82412 0.59447 0.41253 0.0
C1601 C 0.80738 0.64753 0.35206 0.0
C1602 C 0.78125 0.62731 0.37308 0.0
H1603 H 0.85784 0.66124 0.33438 0.0
H1604 H 0.8024 0.66126 0.33437 0.0
C1605 C 0.78867 0.60989 0.39573 0.0
C1606 C 0.1603 0.80594 0.85239 0.0
C1607 C 0.1551 0.78004 0.8734 0.0
H1608 H 0.19639 0.85636 0.83424 0.0
C1609 C 0.18044 0.7878 0.89565 0.0
H1610 H 0.14117 0.80066 0.835 0.0
C1611 C 0.21176 0.81939 0.89522 0.0
C1612 C 0.21851 0.84401 0.87253 0.0
H1613 H 0.17696 0.76859 0.91244 0.0
H1614 H 0.23155 0.82364 0.91168 0.0
C1615 C 0.19189 0.83781 0.85196 0.0
C1616 C 0.39781 0.1811 0.39621 0.0
C1617 C 0.37814 0.15519 0.37496 0.0
H1618 H 0.41463 0.2326 0.412 0.0
C1619 C 0.35584 0.16004 0.35555 0.0
H1620 H 0.41483 0.1779 0.41178 0.0
C1621 C 0.3558 0.19175 0.35559 0.0
C1622 C 0.378 0.21882 0.3751 0.0
H1623 H 0.34036 0.14044 0.33896 0.0
H1624 H 0.3403 0.19588 0.33903 0.0
C1625 C 0.39768 0.21249 0.39633 0.0
C1626 C 0.21002 0.38965 0.89603 0.0
C1627 C 0.21742 0.37219 0.87341 0.0
H1628 H 0.17458 0.40508 0.91279 0.0
C1629 C 0.19128 0.35187 0.85245 0.0
H1630 H 0.22943 0.4051 0.91279 0.0
C1631 C 0.15953 0.35185 0.85245 0.0
C1632 C 0.15368 0.37216 0.87341 0.0
H1633 H 0.19627 0.33812 0.83478 0.0
H1634 H 0.14078 0.33809 0.83477 0.0
C1635 C 0.17854 0.38963 0.89603 0.0
C1636 C 0.78196 0.18105 0.39621 0.0
C1637 C 0.77569 0.15512 0.37497 0.0
H1638 H 0.81667 0.23254 0.41201 0.0
C1639 C 0.80284 0.15994 0.35557 0.0
H1640 H 0.76173 0.17786 0.41178 0.0
C1641 C 0.83461 0.19164 0.35561 0.0
C1642 C 0.83951 0.21872 0.37511 0.0
H1643 H 0.7987 0.14033 0.33898 0.0
H1644 H 0.85424 0.19575 0.33905 0.0
C1645 C 0.81349 0.21242 0.39633 0.0
C1646 C 0.60619 0.78794 0.89563 0.0
C1647 C 0.6238 0.78021 0.87338 0.0
H1648 H 0.59087 0.82374 0.91166 0.0
C1649 C 0.64447 0.80612 0.85237 0.0
H1650 H 0.59047 0.76872 0.91242 0.0
C1651 C 0.64471 0.83797 0.85194 0.0
C1652 C 0.62427 0.84413 0.87251 0.0
H1653 H 0.65834 0.80086 0.83498 0.0
H1654 H 0.65876 0.85653 0.83422 0.0
C1655 C 0.60642 0.81951 0.8952 0.0
C1656 C 0.40113 0.02435 0.98325 0.0
C1657 C 0.38389 0.98887 0.97541 0.0
H1658 H 0.42052 0.06192 0.01892 0.0
C1659 C 0.37134 0.96359 0.99829 0.0
H1660 H 0.41109 0.04433 0.96604 0.0
C1661 C 0.37582 0.9736 0.0285 0.0
C1662 C 0.39395 0.00908 0.03634 0.0
H1663 H 0.35778 0.93604 0.99282 0.0
H1664 H 0.36586 0.95362 0.04571 0.0
C1665 C 0.40661 0.03437 0.01346 0.0
C1666 C 0.37652 0.39996 0.48455 0.0
C1667 C 0.39517 0.383 0.47716 0.0
H1668 H 0.35748 0.41909 0.51975 0.0
C1669 C 0.4077 0.37062 0.50035 0.0
H1670 H 0.36666 0.40978 0.46709 0.0
C1671 C 0.4016 0.37503 0.53042 0.0
C1672 C 0.38385 0.39291 0.53781 0.0
H1673 H 0.422 0.35728 0.49522 0.0
H1674 H 0.4115 0.36525 0.54788 0.0
C1675 C 0.37141 0.40537 0.51462 0.0
C1676 C 0.03395 0.40584 1.00029 0.0
C1677 C 0.00893 0.3934 0.97719 0.0
H1678 H 0.04336 0.41011 0.0478 0.0
C1679 C 0.97335 0.37538 0.98472 0.0
H1680 H 0.06158 0.41967 0.99507 0.0
C1681 C 0.96298 0.37081 0.01483 0.0
C1682 C 0.988 0.38318 0.03794 0.0
H1683 H 0.95356 0.36559 0.96734 0.0
H1684 H 0.93536 0.35737 0.02005 0.0
C1685 C 0.02358 0.40028 0.03041 0.0
C1686 C 0.57913 0.00432 0.49078 0.0
C1687 C 0.60822 0.00781 0.47506 0.0
H1688 H 0.5518 0.99246 0.53273 0.0
C1689 C 0.63331 0.00311 0.49044 0.0
H1690 H 0.55947 0.00788 0.47939 0.0
C1691 C 0.62958 0.99561 0.52125 0.0
C1692 C 0.6001 0.99149 0.53679 0.0
H1693 H 0.6561 0.00597 0.47879 0.0
H1694 H 0.6493 0.99229 0.53278 0.0
C1695 C 0.57477 0.99557 0.52122 0.0
C1696 C 0.59726 0.62287 0.02976 0.0
C1697 C 0.61478 0.60481 0.0373 0.0
H1698 H 0.57732 0.6409 0.99443 0.0
C1699 C 0.62732 0.59232 0.01421 0.0
H1700 H 0.58729 0.63269 0.04714 0.0
C1701 C 0.6225 0.59787 0.98408 0.0
C1702 C 0.60406 0.615 0.97655 0.0
H1703 H 0.64109 0.57847 0.01944 0.0
H1704 H 0.63241 0.588 0.9667 0.0
C1705 C 0.59146 0.62742 0.99965 0.0
C1706 C 0.03701 0.62756 0.5141 0.0
C1707 C 0.01215 0.61562 0.53732 0.0
H1708 H 0.04611 0.63265 0.46655 0.0
C1709 C 0.97654 0.59916 0.52997 0.0
H1710 H 0.06466 0.64052 0.5192 0.0
C1711 C 0.96596 0.59379 0.49991 0.0
C1712 C 0.99081 0.60582 0.47669 0.0
H1713 H 0.95688 0.58967 0.54745 0.0
H1714 H 0.9383 0.58045 0.49483 0.0
C1715 C 0.02645 0.62321 0.48404 0.0
C1716 C 0.62188 0.02438 0.98324 0.0
C1717 C 0.60365 0.9889 0.9754 0.0
H1718 H 0.64004 0.06194 0.01892 0.0
C1719 C 0.59091 0.96361 0.99828 0.0
H1720 H 0.6319 0.04436 0.96603 0.0
C1721 C 0.59643 0.97362 0.02849 0.0
C1722 C 0.61377 0.0091 0.03633 0.0
H1723 H 0.57692 0.93606 0.9928 0.0
H1724 H 0.5864 0.95364 0.04569 0.0
C1725 C 0.6264 0.03439 0.01345 0.0
C1726 C 0.62681 0.59399 0.4999 0.0
C1727 C 0.61398 0.606 0.47667 0.0
H1728 H 0.63177 0.5899 0.54745 0.0
C1729 C 0.59573 0.62339 0.484 0.0
H1730 H 0.64113 0.58065 0.49483 0.0
C1731 C 0.58952 0.62775 0.51406 0.0
C1732 C 0.60244 0.61583 0.53729 0.0
H1733 H 0.58551 0.63281 0.4665 0.0
H1734 H 0.57483 0.64071 0.51915 0.0
C1735 C 0.62159 0.59937 0.52996 0.0
C1736 C 0.02444 0.62271 0.02977 0.0
C1737 C 0.98887 0.60465 0.03733 0.0
H1738 H 0.0624 0.64072 0.99442 0.0
C1739 C 0.96382 0.59214 0.01424 0.0
H1740 H 0.04425 0.63255 0.04714 0.0
C1741 C 0.97417 0.59767 0.98411 0.0
C1742 C 0.00974 0.61481 0.97657 0.0
H1743 H 0.9362 0.57829 0.01949 0.0
H1744 H 0.95438 0.58779 0.96674 0.0
C1745 C 0.03478 0.62725 0.99966 0.0
C1746 C 0.41942 0.99555 0.52123 0.0
C1747 C 0.39001 0.99145 0.53679 0.0
H1748 H 0.44703 0.00788 0.47939 0.0
C1749 C 0.36464 0.99557 0.52126 0.0
H1750 H 0.43929 0.99244 0.53273 0.0
C1751 C 0.36843 0.00309 0.49045 0.0
C1752 C 0.39822 0.00781 0.47507 0.0
H1753 H 0.3416 0.99224 0.53279 0.0
H1754 H 0.34849 0.00595 0.47881 0.0
C1755 C 0.42382 0.00432 0.49078 0.0
C1756 C 0.40678 0.37094 0.01482 0.0
C1757 C 0.39413 0.38331 0.03792 0.0
H1758 H 0.41099 0.36572 0.96733 0.0
C1759 C 0.37566 0.40041 0.0304 0.0
H1760 H 0.42095 0.35749 0.02004 0.0
C1761 C 0.37086 0.40598 1.00028 0.0
C1762 C 0.38344 0.39353 0.97718 0.0
H1763 H 0.36571 0.41024 0.04778 0.0
H1764 H 0.35706 0.4198 0.99504 0.0
C1765 C 0.40099 0.37551 0.98471 0.0
C1766 C 0.97223 0.37489 0.53044 0.0
C1767 C 0.00785 0.39277 0.53783 0.0
H1768 H 0.93405 0.35714 0.49525 0.0
C1769 C 0.03276 0.40523 0.51464 0.0
H1770 H 0.95254 0.3651 0.5479 0.0
C1771 C 0.02222 0.39981 0.48456 0.0
C1772 C 0.9866 0.38286 0.47718 0.0
H1773 H 0.06041 0.41895 0.51976 0.0
H1774 H 0.04191 0.40964 0.4671 0.0
C1775 C 0.9617 0.37048 0.50037 0.0
C1776 C 0.49258 0.01826 0.13164 0.0
C1777 C 0.49052 0.04635 0.14427 0.0
H1778 H 0.52549 0.99691 0.1209 0.0
C1779 C 0.52033 0.07347 0.1581 0.0
H1780 H 0.47004 0.9969 0.1209 0.0
C1781 C 0.55177 0.07347 0.1581 0.0
C1782 C 0.55446 0.04635 0.14427 0.0
H1783 H 0.51974 0.09534 0.16842 0.0
H1784 H 0.57424 0.09534 0.16842 0.0
C1785 C 0.52431 0.01826 0.13164 0.0
C1786 C 0.47553 0.55097 0.66061 0.0
C1787 C 0.50519 0.55454 0.64577 0.0
H1788 H 0.422 0.51796 0.67168 0.0
C1789 C 0.50341 0.52497 0.63219 0.0
H1790 H 0.47596 0.57298 0.6717 0.0
C1791 C 0.472 0.49294 0.63219 0.0
C1792 C 0.44193 0.49006 0.64576 0.0
H1793 H 0.52585 0.52684 0.62065 0.0
H1794 H 0.47096 0.47089 0.62065 0.0
C1795 C 0.44442 0.51925 0.6606 0.0
C1796 C 0.92226 0.44568 0.15809 0.0
C1797 C 0.94948 0.44286 0.14463 0.0
H1798 H 0.90065 0.47796 0.16821 0.0
C1799 C 0.97795 0.47297 0.13237 0.0
H1800 H 0.90009 0.42323 0.16812 0.0
C1801 C 0.97827 0.50486 0.13239 0.0
C1802 C 0.95013 0.50708 0.1447 0.0
H1803 H -0.0006 0.47169 0.12192 0.0
H1804 H -5e-05 0.52739 0.12196 0.0
C1805 C 0.92259 0.47726 0.15814 0.0
C1806 C 0.47567 0.98445 0.63063 0.0
C1807 C 0.44717 0.95948 0.64748 0.0
H1808 H 0.52841 0.00261 0.61621 0.0
C1809 C 0.45181 0.93638 0.66593 0.0
H1810 H 0.47284 0.00259 0.61621 0.0
C1811 C 0.48324 0.93639 0.66593 0.0
C1812 C 0.51098 0.95949 0.64747 0.0
H1813 H 0.43062 0.91721 0.6796 0.0
H1814 H 0.48527 0.91723 0.6796 0.0
C1815 C 0.50744 0.98446 0.63063 0.0
C1816 C 0.52555 0.50495 0.13237 0.0
C1817 C 0.55592 0.50717 0.14465 0.0
H1818 H 0.47124 0.4718 0.12191 0.0
C1819 C 0.55364 0.47734 0.15806 0.0
H1820 H 0.52641 0.52749 0.12195 0.0
C1821 C 0.52238 0.44576 0.15802 0.0
C1822 C 0.49233 0.44295 0.14459 0.0
H1823 H 0.57628 0.47803 0.16812 0.0
H1824 H 0.5221 0.42331 0.16804 0.0
C1825 C 0.49397 0.47307 0.13234 0.0
C1826 C 0.01971 0.49276 0.63222 0.0
C1827 C 0.04691 0.4899 0.64578 0.0
H1828 H -0.00025 0.52664 0.62069 0.0
C1829 C 0.07362 0.51909 0.66062 0.0
H1830 H 0.9987 0.4707 0.62068 0.0
C1831 C 0.07421 0.55081 0.66064 0.0
C1832 C 0.04812 0.55436 0.6458 0.0
H1833 H 0.09476 0.51782 0.6717 0.0
H1834 H 0.09579 0.57282 0.67172 0.0
C1835 C 0.02032 0.52478 0.63223 0.0
C1836 C 0.92285 0.47829 0.35605 0.0
C1837 C 0.95041 0.50793 0.36969 0.0
H1838 H 0.90008 0.42428 0.34588 0.0
C1839 C 0.9783 0.5054 0.38216 0.0
H1840 H 0.90111 0.47925 0.34585 0.0
C1841 C 0.97769 0.47338 0.38218 0.0
C1842 C 0.9492 0.44343 0.36972 0.0
H1843 H -3e-05 0.52778 0.39275 0.0
H1844 H 0.99893 0.47185 0.39278 0.0
C1845 C 0.92225 0.44658 0.35606 0.0
C1846 C 0.50513 0.97985 0.88 0.0
C1847 C 0.50725 0.9519 0.86714 0.0
H1848 H 0.47215 0.00106 0.89094 0.0
C1849 C 0.47753 0.92495 0.85307 0.0
H1850 H 0.52759 0.00107 0.89093 0.0
C1851 C 0.44609 0.92494 0.85307 0.0
C1852 C 0.44332 0.95189 0.86714 0.0
H1853 H 0.47819 0.9032 0.84256 0.0
H1854 H 0.42368 0.90319 0.84257 0.0
C1855 C 0.47339 0.97984 0.88 0.0
C1856 C 0.49462 0.47349 0.38216 0.0
C1857 C 0.49317 0.44354 0.36973 0.0
H1858 H 0.52675 0.5279 0.39272 0.0
C1859 C 0.52327 0.44667 0.3561 0.0
H1860 H 0.47185 0.47197 0.39275 0.0
C1861 C 0.5544 0.47838 0.35608 0.0
C1862 C 0.55647 0.50803 0.36969 0.0
H1863 H 0.52314 0.42436 0.34593 0.0
H1864 H 0.5771 0.47933 0.3459 0.0
C1865 C 0.52605 0.50551 0.38215 0.0
C1866 C 0.01965 0.49325 0.88207 0.0
C1867 C 0.04791 0.4911 0.86995 0.0
H1868 H 0.99841 0.52636 0.89242 0.0
C1869 C 0.0756 0.52102 0.85677 0.0
H1870 H 0.99785 0.47065 0.8923 0.0
C1871 C 0.07594 0.5526 0.85687 0.0
C1872 C 0.04857 0.55534 0.87012 0.0
H1873 H 0.09765 0.52038 0.84685 0.0
H1874 H 0.09822 0.57511 0.84703 0.0
C1875 C 0.01997 0.52514 0.88214 0.0
C1876 C 0.54719 0.06433 0.34658 0.0
C1877 C 0.55148 0.04051 0.36435 0.0
H1878 H 0.514 0.08398 0.33342 0.0
C1879 C 0.52268 0.01498 0.38054 0.0
H1880 H 0.56861 0.08398 0.33342 0.0
C1881 C 0.49092 0.01498 0.38054 0.0
C1882 C 0.48765 0.04051 0.36435 0.0
H1883 H 0.5252 0.99626 0.39442 0.0
H1884 H 0.46967 0.99626 0.39443 0.0
C1885 C 0.51577 0.06433 0.34658 0.0
C1886 C 0.50414 0.52532 0.88213 0.0
C1887 C 0.50572 0.55551 0.87011 0.0
H1888 H 0.47178 0.47082 0.8923 0.0
C1889 C 0.47561 0.55275 0.85686 0.0
H1890 H 0.52693 0.52655 0.89241 0.0
C1891 C 0.44437 0.52116 0.85676 0.0
C1892 C 0.44216 0.49125 0.86994 0.0
H1893 H 0.47584 0.57526 0.84702 0.0
H1894 H 0.42169 0.52051 0.84684 0.0
C1895 C 0.47258 0.49342 0.88206 0.0
loop_
_geom_bond_atom_site_label_1
_geom_bond_atom_site_label_2
_geom_bond_distance
_geom_bond_site_symmetry_2
_ccdc_geom_bond_type
Co0 O2 2.143 . S
Co0 O8 2.074 . S
Co0 O11 2.093 . S
Co0 O24 2.097 . S
Co0 N41 2.151 . S
Co0 N49 2.214 . S
Co1 O2 2.160 . S
Co1 O7 2.058 . S
Co1 O17 2.057 1_545 S
Co1 O32 2.037 . S
Co1 N36 2.145 1_545 S
Co1 N57 2.257 1_545 S
O2 Co0 2.143 . S
O2 Co1 2.160 . S
C3 O4 1.278 . S
C3 O11 1.224 . S
O4 C3 1.278 . S
C5 O6 1.245 . S
C5 O17 1.232 1_545 S
O6 C5 1.245 . S
O7 Co1 2.058 . S
O7 C33 1.269 . S
O8 Co0 2.074 . S
O8 C33 1.257 . S
H9 C34 0.930 . S
H10 C40 0.930 . S
O11 Co0 2.093 . S
O11 C3 1.224 . S
H12 C44 0.929 . S
H13 C46 0.930 . S
H14 C47 0.930 . S
H15 C45 0.929 . S
H16 C48 0.928 . S
O17 Co1 2.057 1_565 S
O17 C5 1.232 1_565 S
H18 C37 0.929 . S
H19 C38 0.929 . S
H20 C50 0.931 . S
H21 C42 0.929 . S
H22 C51 0.930 . S
H23 C43 0.931 . S
O24 Co0 2.097 . S
O24 C52 1.214 . S
H25 C53 0.929 . S
H26 C54 0.929 . S
H27 C55 0.930 . S
H28 C56 0.929 . S
H29 C58 0.930 . S
H30 C35 0.930 . S
H31 C39 0.930 . S
O32 Co1 2.037 . S
O32 C52 1.234 . S
C33 O7 1.269 . S
C33 O8 1.257 . S
C34 H9 0.930 . S
C34 C37 1.388 . S
C34 C39 1.418 . S
C35 H30 0.930 . S
C35 C38 1.404 . S
C35 C39 1.353 . S
N36 Co1 2.145 1_565 S
N36 C37 1.397 . S
N36 C38 1.334 . S
C37 H18 0.929 . S
C37 C34 1.388 . S
C37 N36 1.397 . S
C38 H19 0.929 . S
C38 C35 1.404 . S
C38 N36 1.334 . S
C39 H31 0.930 . S
C39 C34 1.418 . S
C39 C35 1.353 . S
C40 H10 0.930 . S
C40 N41 1.330 . S
C40 C42 1.446 . S
N41 Co0 2.151 . S
N41 C40 1.330 . S
N41 C45 1.418 . S
C42 H21 0.929 . S
C42 C40 1.446 . S
C42 C43 1.332 . S
C43 H23 0.931 . S
C43 C42 1.332 . S
C43 C44 1.267 . S
C44 H12 0.929 . S
C44 C43 1.267 . S
C44 C45 1.251 . S
C45 H15 0.929 . S
C45 N41 1.418 . S
C45 C44 1.251 . S
C46 H13 0.930 . S
C46 C48 1.406 . S
C46 C51 1.261 . S
C47 H14 0.930 . S
C47 N49 1.325 . S
C47 C50 1.357 . S
C48 H16 0.928 . S
C48 C46 1.406 . S
C48 N49 1.261 . S
N49 Co0 2.214 . S
N49 C47 1.325 . S
N49 C48 1.261 . S
C50 H20 0.931 . S
C50 C47 1.357 . S
C50 C51 1.312 . S
C51 H22 0.930 . S
C51 C46 1.261 . S
C51 C50 1.312 . S
C52 O24 1.214 . S
C52 O32 1.234 . S
C53 H25 0.929 . S
C53 C56 1.391 1_545 S
C53 C58 1.391 . S
C54 H26 0.929 . S
C54 C55 1.390 . S
C54 N57 1.391 . S
C55 H27 0.930 . S
C55 C54 1.390 . S
C55 C56 1.392 . S
C56 H28 0.929 . S
C56 C53 1.391 1_565 S
C56 C55 1.392 . S
N57 Co1 2.257 1_565 S
N57 C54 1.391 . S
N57 C58 1.388 1_565 S
C58 H29 0.930 . S
C58 C53 1.391 . S
C58 N57 1.388 1_545 S
Co59 O61 2.143 . S
Co59 O67 2.074 . S
Co59 O70 2.093 . S
Co59 O83 2.097 . S
Co59 N100 2.151 . S
Co59 N108 2.214 . S
Co60 O61 2.160 . S
Co60 O66 2.058 . S
Co60 O76 2.057 . S
Co60 O91 2.037 . S
Co60 N95 2.145 . S
Co60 N116 2.257 . S
O61 Co59 2.143 . S
O61 Co60 2.160 . S
C62 O63 1.278 . S
C62 O70 1.224 . S
O63 C62 1.278 . S
C64 O65 1.245 . S
C64 O76 1.232 . S
O65 C64 1.245 . S
O66 Co60 2.058 . S
O66 C92 1.269 . S
O67 Co59 2.074 . S
O67 C92 1.257 . S
H68 C93 0.930 . S
H69 C99 0.930 . S
O70 Co59 2.093 . S
O70 C62 1.224 . S
H71 C103 0.929 . S
H72 C105 0.930 . S
H73 C106 0.930 . S
H74 C104 0.929 . S
H75 C107 0.928 . S
O76 Co60 2.057 . S
O76 C64 1.232 . S
H77 C96 0.929 . S
H78 C97 0.929 . S
H79 C109 0.931 . S
H80 C101 0.929 . S
H81 C110 0.930 . S
H82 C102 0.931 . S
O83 Co59 2.097 . S
O83 C111 1.214 . S
H84 C112 0.929 . S
H85 C113 0.929 . S
H86 C114 0.930 . S
H87 C115 0.929 . S
H88 C117 0.930 . S
H89 C94 0.930 . S
H90 C98 0.930 . S
O91 Co60 2.037 . S
O91 C111 1.234 . S
C92 O66 1.269 . S
C92 O67 1.257 . S
C93 H68 0.930 . S
C93 C96 1.388 . S
C93 C98 1.418 . S
C94 H89 0.930 . S
C94 C97 1.404 . S
C94 C98 1.353 . S
N95 Co60 2.145 . S
N95 C96 1.397 . S
N95 C97 1.334 . S
C96 H77 0.929 . S
C96 C93 1.388 . S
C96 N95 1.397 . S
C97 H78 0.929 . S
C97 C94 1.404 . S
C97 N95 1.334 . S
C98 H90 0.930 . S
C98 C93 1.418 . S
C98 C94 1.353 . S
C99 H69 0.930 . S
C99 N100 1.330 . S
C99 C101 1.446 . S
N100 Co59 2.151 . S
N100 C99 1.330 . S
N100 C104 1.418 . S
C101 H80 0.929 . S
C101 C99 1.446 . S
C101 C102 1.332 . S
C102 H82 0.931 . S
C102 C101 1.332 . S
C102 C103 1.267 . S
C103 H71 0.929 . S
C103 C102 1.267 . S
C103 C104 1.251 . S
C104 H74 0.929 . S
C104 N100 1.418 . S
C104 C103 1.251 . S
C105 H72 0.930 . S
C105 C107 1.406 . S
C105 C110 1.261 . S
C106 H73 0.930 . S
C106 N108 1.325 . S
C106 C109 1.357 . S
C107 H75 0.928 . S
C107 C105 1.406 . S
C107 N108 1.261 . S
N108 Co59 2.214 . S
N108 C106 1.325 . S
N108 C107 1.261 . S
C109 H79 0.931 . S
C109 C106 1.357 . S
C109 C110 1.312 . S
C110 H81 0.930 . S
C110 C105 1.261 . S
C110 C109 1.312 . S
C111 O83 1.214 . S
C111 O91 1.234 . S
C112 H84 0.929 . S
C112 C115 1.391 . S
C112 C117 1.391 . S
C113 H85 0.929 . S
C113 C114 1.390 . S
C113 N116 1.391 . S
C114 H86 0.930 . S
C114 C113 1.390 . S
C114 C115 1.392 . S
C115 H87 0.929 . S
C115 C112 1.391 . S
C115 C114 1.392 . S
N116 Co60 2.257 . S
N116 C113 1.391 . S
N116 C117 1.388 . S
C117 H88 0.930 . S
C117 C112 1.391 . S
C117 N116 1.388 . S
Co118 O120 2.143 . S
Co118 O126 2.074 . S
Co118 O129 2.093 . S
Co118 O142 2.097 . S
Co118 N159 2.151 . S
Co118 N167 2.214 . S
Co119 O120 2.160 . S
Co119 O125 2.058 . S
Co119 O135 2.057 1_655 S
Co119 O150 2.037 . S
Co119 N154 2.145 1_655 S
Co119 N175 2.257 1_655 S
O120 Co118 2.143 . S
O120 Co119 2.160 . S
C121 O122 1.278 . S
C121 O129 1.224 . S
O122 C121 1.278 . S
C123 O124 1.245 . S
C123 O135 1.232 1_655 S
O124 C123 1.245 . S
O125 Co119 2.058 . S
O125 C151 1.269 . S
O126 Co118 2.074 . S
O126 C151 1.257 . S
H127 C152 0.930 . S
H128 C158 0.930 . S
O129 Co118 2.093 . S
O129 C121 1.224 . S
H130 C162 0.929 . S
H131 C164 0.930 . S
H132 C165 0.930 . S
H133 C163 0.929 . S
H134 C166 0.928 . S
O135 Co119 2.057 1_455 S
O135 C123 1.232 1_455 S
H136 C155 0.929 . S
H137 C156 0.929 . S
H138 C168 0.931 . S
H139 C160 0.929 . S
H140 C169 0.930 . S
H141 C161 0.931 . S
O142 Co118 2.097 . S
O142 C170 1.214 . S
H143 C171 0.929 . S
H144 C172 0.929 . S
H145 C173 0.930 . S
H146 C174 0.929 . S
H147 C176 0.930 . S
H148 C153 0.930 . S
H149 C157 0.930 . S
O150 Co119 2.037 . S
O150 C170 1.234 . S
C151 O125 1.269 . S
C151 O126 1.257 . S
C152 H127 0.930 . S
C152 C155 1.388 . S
C152 C157 1.418 . S
C153 H148 0.930 . S
C153 C156 1.404 . S
C153 C157 1.353 . S
N154 Co119 2.145 1_455 S
N154 C155 1.397 . S
N154 C156 1.334 . S
C155 H136 0.929 . S
C155 C152 1.388 . S
C155 N154 1.397 . S
C156 H137 0.929 . S
C156 C153 1.404 . S
C156 N154 1.334 . S
C157 H149 0.930 . S
C157 C152 1.418 . S
C157 C153 1.353 . S
C158 H128 0.930 . S
C158 N159 1.330 . S
C158 C160 1.446 . S
N159 Co118 2.151 . S
N159 C158 1.330 . S
N159 C163 1.418 . S
C160 H139 0.929 . S
C160 C158 1.446 . S
C160 C161 1.332 . S
C161 H141 0.931 . S
C161 C160 1.332 . S
C161 C162 1.267 . S
C162 H130 0.929 . S
C162 C161 1.267 . S
C162 C163 1.251 . S
C163 H133 0.929 . S
C163 N159 1.418 . S
C163 C162 1.251 . S
C164 H131 0.930 . S
C164 C166 1.406 . S
C164 C169 1.261 . S
C165 H132 0.930 . S
C165 N167 1.325 . S
C165 C168 1.357 . S
C166 H134 0.928 . S
C166 C164 1.406 . S
C166 N167 1.261 . S
N167 Co118 2.214 . S
N167 C165 1.325 . S
N167 C166 1.261 . S
C168 H138 0.931 . S
C168 C165 1.357 . S
C168 C169 1.312 . S
C169 H140 0.930 . S
C169 C164 1.261 . S
C169 C168 1.312 . S
C170 O142 1.214 . S
C170 O150 1.234 . S
C171 H143 0.929 . S
C171 C174 1.391 1_655 S
C171 C176 1.391 . S
C172 H144 0.929 . S
C172 C173 1.390 . S
C172 N175 1.391 . S
C173 H145 0.930 . S
C173 C172 1.390 . S
C173 C174 1.392 . S
C174 H146 0.929 . S
C174 C171 1.391 1_455 S
C174 C173 1.392 . S
N175 Co119 2.257 1_455 S
N175 C172 1.391 . S
N175 C176 1.388 1_455 S
C176 H147 0.930 . S
C176 C171 1.391 . S
C176 N175 1.388 1_655 S
Co177 O179 2.143 . S
Co177 O185 2.074 . S
Co177 O188 2.093 . S
Co177 O201 2.097 . S
Co177 N218 2.151 . S
Co177 N226 2.214 . S
Co178 O179 2.160 . S
Co178 O184 2.058 . S
Co178 O194 2.057 1_565 S
Co178 O209 2.037 . S
Co178 N213 2.145 1_565 S
Co178 N234 2.257 1_565 S
O179 Co177 2.143 . S
O179 Co178 2.160 . S
C180 O181 1.278 . S
C180 O188 1.224 . S
O181 C180 1.278 . S
C182 O183 1.245 . S
C182 O194 1.232 1_565 S
O183 C182 1.245 . S
O184 Co178 2.058 . S
O184 C210 1.269 . S
O185 Co177 2.074 . S
O185 C210 1.257 . S
H186 C211 0.930 . S
H187 C217 0.930 . S
O188 Co177 2.093 . S
O188 C180 1.224 . S
H189 C221 0.929 . S
H190 C223 0.930 . S
H191 C224 0.930 . S
H192 C222 0.929 . S
H193 C225 0.928 . S
O194 Co178 2.057 1_545 S
O194 C182 1.232 1_545 S
H195 C214 0.929 . S
H196 C215 0.929 . S
H197 C227 0.931 . S
H198 C219 0.929 . S
H199 C228 0.930 . S
H200 C220 0.931 . S
O201 Co177 2.097 . S
O201 C229 1.214 . S
H202 C230 0.929 . S
H203 C231 0.929 . S
H204 C232 0.930 . S
H205 C233 0.929 . S
H206 C235 0.930 . S
H207 C212 0.930 . S
H208 C216 0.930 . S
O209 Co178 2.037 . S
O209 C229 1.234 . S
C210 O184 1.269 . S
C210 O185 1.257 . S
C211 H186 0.930 . S
C211 C214 1.388 . S
C211 C216 1.418 . S
C212 H207 0.930 . S
C212 C215 1.404 . S
C212 C216 1.353 . S
N213 Co178 2.145 1_545 S
N213 C214 1.397 . S
N213 C215 1.334 . S
C214 H195 0.929 . S
C214 C211 1.388 . S
C214 N213 1.397 . S
C215 H196 0.929 . S
C215 C212 1.404 . S
C215 N213 1.334 . S
C216 H208 0.930 . S
C216 C211 1.418 . S
C216 C212 1.353 . S
C217 H187 0.930 . S
C217 N218 1.330 . S
C217 C219 1.446 . S
N218 Co177 2.151 . S
N218 C217 1.330 . S
N218 C222 1.418 . S
C219 H198 0.929 . S
C219 C217 1.446 . S
C219 C220 1.332 . S
C220 H200 0.931 . S
C220 C219 1.332 . S
C220 C221 1.267 . S
C221 H189 0.929 . S
C221 C220 1.267 . S
C221 C222 1.251 . S
C222 H192 0.929 . S
C222 N218 1.418 . S
C222 C221 1.251 . S
C223 H190 0.930 . S
C223 C225 1.406 . S
C223 C228 1.261 . S
C224 H191 0.930 . S
C224 N226 1.325 . S
C224 C227 1.357 . S
C225 H193 0.928 . S
C225 C223 1.406 . S
C225 N226 1.261 . S
N226 Co177 2.214 . S
N226 C224 1.325 . S
N226 C225 1.261 . S
C227 H197 0.931 . S
C227 C224 1.357 . S
C227 C228 1.312 . S
C228 H199 0.930 . S
C228 C223 1.261 . S
C228 C227 1.312 . S
C229 O201 1.214 . S
C229 O209 1.234 . S
C230 H202 0.929 . S
C230 C233 1.391 1_565 S
C230 C235 1.391 . S
C231 H203 0.929 . S
C231 C232 1.390 . S
C231 N234 1.391 . S
C232 H204 0.930 . S
C232 C231 1.390 . S
C232 C233 1.392 . S
C233 H205 0.929 . S
C233 C230 1.391 1_545 S
C233 C232 1.392 . S
N234 Co178 2.257 1_545 S
N234 C231 1.391 . S
N234 C235 1.388 1_545 S
C235 H206 0.930 . S
C235 C230 1.391 . S
C235 N234 1.388 1_565 S
Co236 O238 2.143 . S
Co236 O244 2.074 . S
Co236 O247 2.093 . S
Co236 O260 2.097 . S
Co236 N277 2.151 . S
Co236 N285 2.214 . S
Co237 O238 2.160 . S
Co237 O243 2.058 . S
Co237 O253 2.057 . S
Co237 O268 2.037 . S
Co237 N272 2.145 . S
Co237 N293 2.257 . S
O238 Co236 2.143 . S
O238 Co237 2.160 . S
C239 O240 1.278 . S
C239 O247 1.224 . S
O240 C239 1.278 . S
C241 O242 1.245 . S
C241 O253 1.232 . S
O242 C241 1.245 . S
O243 Co237 2.058 . S
O243 C269 1.269 . S
O244 Co236 2.074 . S
O244 C269 1.257 . S
H245 C270 0.930 . S
H246 C276 0.930 . S
O247 Co236 2.093 . S
O247 C239 1.224 . S
H248 C280 0.929 . S
H249 C282 0.930 . S
H250 C283 0.930 . S
H251 C281 0.929 . S
H252 C284 0.928 . S
O253 Co237 2.057 . S
O253 C241 1.232 . S
H254 C273 0.929 . S
H255 C274 0.929 . S
H256 C286 0.931 . S
H257 C278 0.929 . S
H258 C287 0.930 . S
H259 C279 0.931 . S
O260 Co236 2.097 . S
O260 C288 1.214 . S
H261 C289 0.929 . S
H262 C290 0.929 . S
H263 C291 0.930 . S
H264 C292 0.929 . S
H265 C294 0.930 . S
H266 C271 0.930 . S
H267 C275 0.930 . S
O268 Co237 2.037 . S
O268 C288 1.234 . S
C269 O243 1.269 . S
C269 O244 1.257 . S
C270 H245 0.930 . S
C270 C273 1.388 . S
C270 C275 1.418 . S
C271 H266 0.930 . S
C271 C274 1.404 . S
C271 C275 1.353 . S
N272 Co237 2.145 . S
N272 C273 1.397 . S
N272 C274 1.334 . S
C273 H254 0.929 . S
C273 C270 1.388 . S
C273 N272 1.397 . S
C274 H255 0.929 . S
C274 C271 1.404 . S
C274 N272 1.334 . S
C275 H267 0.930 . S
C275 C270 1.418 . S
C275 C271 1.353 . S
C276 H246 0.930 . S
C276 N277 1.330 . S
C276 C278 1.446 . S
N277 Co236 2.151 . S
N277 C276 1.330 . S
N277 C281 1.418 . S
C278 H257 0.929 . S
C278 C276 1.446 . S
C278 C279 1.332 . S
C279 H259 0.931 . S
C279 C278 1.332 . S
C279 C280 1.267 . S
C280 H248 0.929 . S
C280 C279 1.267 . S
C280 C281 1.251 . S
C281 H251 0.929 . S
C281 N277 1.418 . S
C281 C280 1.251 . S
C282 H249 0.930 . S
C282 C284 1.406 . S
C282 C287 1.261 . S
C283 H250 0.930 . S
C283 N285 1.325 . S
C283 C286 1.357 . S
C284 H252 0.928 . S
C284 C282 1.406 . S
C284 N285 1.261 . S
N285 Co236 2.214 . S
N285 C283 1.325 . S
N285 C284 1.261 . S
C286 H256 0.931 . S
C286 C283 1.357 . S
C286 C287 1.312 . S
C287 H258 0.930 . S
C287 C282 1.261 . S
C287 C286 1.312 . S
C288 O260 1.214 . S
C288 O268 1.234 . S
C289 H261 0.929 . S
C289 C292 1.391 . S
C289 C294 1.391 . S
C290 H262 0.929 . S
C290 C291 1.390 . S
C290 N293 1.391 . S
C291 H263 0.930 . S
C291 C290 1.390 . S
C291 C292 1.392 . S
C292 H264 0.929 . S
C292 C289 1.391 . S
C292 C291 1.392 . S
N293 Co237 2.257 . S
N293 C290 1.391 . S
N293 C294 1.388 . S
C294 H265 0.930 . S
C294 C289 1.391 . S
C294 N293 1.388 . S
Co295 O297 2.143 . S
Co295 O303 2.074 . S
Co295 O306 2.093 . S
Co295 O319 2.097 . S
Co295 N336 2.151 . S
Co295 N344 2.214 . S
Co296 O297 2.160 . S
Co296 O302 2.058 . S
Co296 O312 2.057 1_455 S
Co296 O327 2.037 . S
Co296 N331 2.145 1_455 S
Co296 N352 2.257 1_455 S
O297 Co295 2.143 . S
O297 Co296 2.160 . S
C298 O299 1.278 . S
C298 O306 1.224 . S
O299 C298 1.278 . S
C300 O301 1.245 . S
C300 O312 1.232 1_455 S
O301 C300 1.245 . S
O302 Co296 2.058 . S
O302 C328 1.269 . S
O303 Co295 2.074 . S
O303 C328 1.257 . S
H304 C329 0.930 . S
H305 C335 0.930 . S
O306 Co295 2.093 . S
O306 C298 1.224 . S
H307 C339 0.929 . S
H308 C341 0.930 . S
H309 C342 0.930 . S
H310 C340 0.929 . S
H311 C343 0.928 . S
O312 Co296 2.057 1_655 S
O312 C300 1.232 1_655 S
H313 C332 0.929 . S
H314 C333 0.929 . S
H315 C345 0.931 . S
H316 C337 0.929 . S
H317 C346 0.930 . S
H318 C338 0.931 . S
O319 Co295 2.097 . S
O319 C347 1.214 . S
H320 C348 0.929 . S
H321 C349 0.929 . S
H322 C350 0.930 . S
H323 C351 0.929 . S
H324 C353 0.930 . S
H325 C330 0.930 . S
H326 C334 0.930 . S
O327 Co296 2.037 . S
O327 C347 1.234 . S
C328 O302 1.269 . S
C328 O303 1.257 . S
C329 H304 0.930 . S
C329 C332 1.388 . S
C329 C334 1.418 . S
C330 H325 0.930 . S
C330 C333 1.404 . S
C330 C334 1.353 . S
N331 Co296 2.145 1_655 S
N331 C332 1.397 . S
N331 C333 1.334 . S
C332 H313 0.929 . S
C332 C329 1.388 . S
C332 N331 1.397 . S
C333 H314 0.929 . S
C333 C330 1.404 . S
C333 N331 1.334 . S
C334 H326 0.930 . S
C334 C329 1.418 . S
C334 C330 1.353 . S
C335 H305 0.930 . S
C335 N336 1.330 . S
C335 C337 1.446 . S
N336 Co295 2.151 . S
N336 C335 1.330 . S
N336 C340 1.418 . S
C337 H316 0.929 . S
C337 C335 1.446 . S
C337 C338 1.332 . S
C338 H318 0.931 . S
C338 C337 1.332 . S
C338 C339 1.267 . S
C339 H307 0.929 . S
C339 C338 1.267 . S
C339 C340 1.251 . S
C340 H310 0.929 . S
C340 N336 1.418 . S
C340 C339 1.251 . S
C341 H308 0.930 . S
C341 C343 1.406 . S
C341 C346 1.261 . S
C342 H309 0.930 . S
C342 N344 1.325 . S
C342 C345 1.357 . S
C343 H311 0.928 . S
C343 C341 1.406 . S
C343 N344 1.261 . S
N344 Co295 2.214 . S
N344 C342 1.325 . S
N344 C343 1.261 . S
C345 H315 0.931 . S
C345 C342 1.357 . S
C345 C346 1.312 . S
C346 H317 0.930 . S
C346 C341 1.261 . S
C346 C345 1.312 . S
C347 O319 1.214 . S
C347 O327 1.234 . S
C348 H320 0.929 . S
C348 C351 1.391 1_455 S
C348 C353 1.391 . S
C349 H321 0.929 . S
C349 C350 1.390 . S
C349 N352 1.391 . S
C350 H322 0.930 . S
C350 C349 1.390 . S
C350 C351 1.392 . S
C351 H323 0.929 . S
C351 C348 1.391 1_655 S
C351 C350 1.392 . S
N352 Co296 2.257 1_655 S
N352 C349 1.391 . S
N352 C353 1.388 1_655 S
C353 H324 0.930 . S
C353 C348 1.391 . S
C353 N352 1.388 1_455 S
Co354 O356 2.143 . S
Co354 O362 2.074 . S
Co354 O365 2.093 . S
Co354 O378 2.097 . S
Co354 N395 2.151 . S
Co354 N403 2.214 . S
Co355 O356 2.160 . S
Co355 O361 2.058 . S
Co355 O371 2.057 1_655 S
Co355 O386 2.037 . S
Co355 N390 2.145 1_655 S
Co355 N411 2.257 1_655 S
O356 Co354 2.143 . S
O356 Co355 2.160 . S
C357 O358 1.278 . S
C357 O365 1.224 . S
O358 C357 1.278 . S
C359 O360 1.245 . S
C359 O371 1.232 1_655 S
O360 C359 1.245 . S
O361 Co355 2.058 . S
O361 C387 1.269 . S
O362 Co354 2.074 . S
O362 C387 1.257 . S
H363 C388 0.930 . S
H364 C394 0.930 . S
O365 Co354 2.093 . S
O365 C357 1.224 . S
H366 C398 0.929 . S
H367 C400 0.930 . S
H368 C401 0.930 . S
H369 C399 0.929 . S
H370 C402 0.928 . S
O371 Co355 2.057 1_455 S
O371 C359 1.232 1_455 S
H372 C391 0.929 . S
H373 C392 0.929 . S
H374 C404 0.931 . S
H375 C396 0.929 . S
H376 C405 0.930 . S
H377 C397 0.931 . S
O378 Co354 2.097 . S
O378 C406 1.214 . S
H379 C407 0.929 . S
H380 C408 0.929 . S
H381 C409 0.930 . S
H382 C410 0.929 . S
H383 C412 0.930 . S
H384 C389 0.930 . S
H385 C393 0.930 . S
O386 Co355 2.037 . S
O386 C406 1.234 . S
C387 O361 1.269 . S
C387 O362 1.257 . S
C388 H363 0.930 . S
C388 C391 1.388 . S
C388 C393 1.418 . S
C389 H384 0.930 . S
C389 C392 1.404 . S
C389 C393 1.353 . S
N390 Co355 2.145 1_455 S
N390 C391 1.397 . S
N390 C392 1.334 . S
C391 H372 0.929 . S
C391 C388 1.388 . S
C391 N390 1.397 . S
C392 H373 0.929 . S
C392 C389 1.404 . S
C392 N390 1.334 . S
C393 H385 0.930 . S
C393 C388 1.418 . S
C393 C389 1.353 . S
C394 H364 0.930 . S
C394 N395 1.330 . S
C394 C396 1.446 . S
N395 Co354 2.151 . S
N395 C394 1.330 . S
N395 C399 1.418 . S
C396 H375 0.929 . S
C396 C394 1.446 . S
C396 C397 1.332 . S
C397 H377 0.931 . S
C397 C396 1.332 . S
C397 C398 1.267 . S
C398 H366 0.929 . S
C398 C397 1.267 . S
C398 C399 1.251 . S
C399 H369 0.929 . S
C399 N395 1.418 . S
C399 C398 1.251 . S
C400 H367 0.930 . S
C400 C402 1.406 . S
C400 C405 1.261 . S
C401 H368 0.930 . S
C401 N403 1.325 . S
C401 C404 1.357 . S
C402 H370 0.928 . S
C402 C400 1.406 . S
C402 N403 1.261 . S
N403 Co354 2.214 . S
N403 C401 1.325 . S
N403 C402 1.261 . S
C404 H374 0.931 . S
C404 C401 1.357 . S
C404 C405 1.312 . S
C405 H376 0.930 . S
C405 C400 1.261 . S
C405 C404 1.312 . S
C406 O378 1.214 . S
C406 O386 1.234 . S
C407 H379 0.929 . S
C407 C410 1.391 1_655 S
C407 C412 1.391 . S
C408 H380 0.929 . S
C408 C409 1.390 . S
C408 N411 1.391 . S
C409 H381 0.930 . S
C409 C408 1.390 . S
C409 C410 1.392 . S
C410 H382 0.929 . S
C410 C407 1.391 1_455 S
C410 C409 1.392 . S
N411 Co355 2.257 1_455 S
N411 C408 1.391 . S
N411 C412 1.388 1_455 S
C412 H383 0.930 . S
C412 C407 1.391 . S
C412 N411 1.388 1_655 S
Co413 O415 2.143 . S
Co413 O421 2.074 . S
Co413 O424 2.093 . S
Co413 O437 2.097 . S
Co413 N454 2.151 . S
Co413 N462 2.214 . S
Co414 O415 2.160 . S
Co414 O420 2.058 . S
Co414 O430 2.057 1_565 S
Co414 O445 2.037 . S
Co414 N449 2.145 1_565 S
Co414 N470 2.257 1_565 S
O415 Co413 2.143 . S
O415 Co414 2.160 . S
C416 O417 1.278 . S
C416 O424 1.224 . S
O417 C416 1.278 . S
C418 O419 1.245 . S
C418 O430 1.232 1_565 S
O419 C418 1.245 . S
O420 Co414 2.058 . S
O420 C446 1.269 . S
O421 Co413 2.074 . S
O421 C446 1.257 . S
H422 C447 0.930 . S
H423 C453 0.930 . S
O424 Co413 2.093 . S
O424 C416 1.224 . S
H425 C457 0.929 . S
H426 C459 0.930 . S
H427 C460 0.930 . S
H428 C458 0.929 . S
H429 C461 0.928 . S
O430 Co414 2.057 1_545 S
O430 C418 1.232 1_545 S
H431 C450 0.929 . S
H432 C451 0.929 . S
H433 C463 0.931 . S
H434 C455 0.929 . S
H435 C464 0.930 . S
H436 C456 0.931 . S
O437 Co413 2.097 . S
O437 C465 1.214 . S
H438 C466 0.929 . S
H439 C467 0.929 . S
H440 C468 0.930 . S
H441 C469 0.929 . S
H442 C471 0.930 . S
H443 C448 0.930 . S
H444 C452 0.930 . S
O445 Co414 2.037 . S
O445 C465 1.234 . S
C446 O420 1.269 . S
C446 O421 1.257 . S
C447 H422 0.930 . S
C447 C450 1.388 . S
C447 C452 1.418 . S
C448 H443 0.930 . S
C448 C451 1.404 . S
C448 C452 1.353 . S
N449 Co414 2.145 1_545 S
N449 C450 1.397 . S
N449 C451 1.334 . S
C450 H431 0.929 . S
C450 C447 1.388 . S
C450 N449 1.397 . S
C451 H432 0.929 . S
C451 C448 1.404 . S
C451 N449 1.334 . S
C452 H444 0.930 . S
C452 C447 1.418 . S
C452 C448 1.353 . S
C453 H423 0.930 . S
C453 N454 1.330 . S
C453 C455 1.446 . S
N454 Co413 2.151 . S
N454 C453 1.330 . S
N454 C458 1.418 . S
C455 H434 0.929 . S
C455 C453 1.446 . S
C455 C456 1.332 . S
C456 H436 0.931 . S
C456 C455 1.332 . S
C456 C457 1.267 . S
C457 H425 0.929 . S
C457 C456 1.267 . S
C457 C458 1.251 . S
C458 H428 0.929 . S
C458 N454 1.418 . S
C458 C457 1.251 . S
C459 H426 0.930 . S
C459 C461 1.406 . S
C459 C464 1.261 . S
C460 H427 0.930 . S
C460 N462 1.325 . S
C460 C463 1.357 . S
C461 H429 0.928 . S
C461 C459 1.406 . S
C461 N462 1.261 . S
N462 Co413 2.214 . S
N462 C460 1.325 . S
N462 C461 1.261 . S
C463 H433 0.931 . S
C463 C460 1.357 . S
C463 C464 1.312 . S
C464 H435 0.930 . S
C464 C459 1.261 . S
C464 C463 1.312 . S
C465 O437 1.214 . S
C465 O445 1.234 . S
C466 H438 0.929 . S
C466 C469 1.391 1_565 S
C466 C471 1.391 . S
C467 H439 0.929 . S
C467 C468 1.390 . S
C467 N470 1.391 . S
C468 H440 0.930 . S
C468 C467 1.390 . S
C468 C469 1.392 . S
C469 H441 0.929 . S
C469 C466 1.391 1_545 S
C469 C468 1.392 . S
N470 Co414 2.257 1_545 S
N470 C467 1.391 . S
N470 C471 1.388 1_545 S
C471 H442 0.930 . S
C471 C466 1.391 . S
C471 N470 1.388 1_565 S
Co472 O474 2.143 . S
Co472 O480 2.074 . S
Co472 O483 2.093 . S
Co472 O496 2.097 . S
Co472 N513 2.151 . S
Co472 N521 2.214 . S
Co473 O474 2.160 . S
Co473 O479 2.058 . S
Co473 O489 2.057 . S
Co473 O504 2.037 . S
Co473 N508 2.145 . S
Co473 N529 2.257 . S
O474 Co472 2.143 . S
O474 Co473 2.160 . S
C475 O476 1.278 . S
C475 O483 1.224 . S
O476 C475 1.278 . S
C477 O478 1.245 . S
C477 O489 1.232 . S
O478 C477 1.245 . S
O479 Co473 2.058 . S
O479 C505 1.269 . S
O480 Co472 2.074 . S
O480 C505 1.257 . S
H481 C506 0.930 . S
H482 C512 0.930 . S
O483 Co472 2.093 . S
O483 C475 1.224 . S
H484 C516 0.929 . S
H485 C518 0.930 . S
H486 C519 0.930 . S
H487 C517 0.929 . S
H488 C520 0.928 . S
O489 Co473 2.057 . S
O489 C477 1.232 . S
H490 C509 0.929 . S
H491 C510 0.929 . S
H492 C522 0.931 . S
H493 C514 0.929 . S
H494 C523 0.930 . S
H495 C515 0.931 . S
O496 Co472 2.097 . S
O496 C524 1.214 . S
H497 C525 0.929 . S
H498 C526 0.929 . S
H499 C527 0.930 . S
H500 C528 0.929 . S
H501 C530 0.930 . S
H502 C507 0.930 . S
H503 C511 0.930 . S
O504 Co473 2.037 . S
O504 C524 1.234 . S
C505 O479 1.269 . S
C505 O480 1.257 . S
C506 H481 0.930 . S
C506 C509 1.388 . S
C506 C511 1.418 . S
C507 H502 0.930 . S
C507 C510 1.404 . S
C507 C511 1.353 . S
N508 Co473 2.145 . S
N508 C509 1.397 . S
N508 C510 1.334 . S
C509 H490 0.929 . S
C509 C506 1.388 . S
C509 N508 1.397 . S
C510 H491 0.929 . S
C510 C507 1.404 . S
C510 N508 1.334 . S
C511 H503 0.930 . S
C511 C506 1.418 . S
C511 C507 1.353 . S
C512 H482 0.930 . S
C512 N513 1.330 . S
C512 C514 1.446 . S
N513 Co472 2.151 . S
N513 C512 1.330 . S
N513 C517 1.418 . S
C514 H493 0.929 . S
C514 C512 1.446 . S
C514 C515 1.332 . S
C515 H495 0.931 . S
C515 C514 1.332 . S
C515 C516 1.267 . S
C516 H484 0.929 . S
C516 C515 1.267 . S
C516 C517 1.251 . S
C517 H487 0.929 . S
C517 N513 1.418 . S
C517 C516 1.251 . S
C518 H485 0.930 . S
C518 C520 1.406 . S
C518 C523 1.261 . S
C519 H486 0.930 . S
C519 N521 1.325 . S
C519 C522 1.357 . S
C520 H488 0.928 . S
C520 C518 1.406 . S
C520 N521 1.261 . S
N521 Co472 2.214 . S
N521 C519 1.325 . S
N521 C520 1.261 . S
C522 H492 0.931 . S
C522 C519 1.357 . S
C522 C523 1.312 . S
C523 H494 0.930 . S
C523 C518 1.261 . S
C523 C522 1.312 . S
C524 O496 1.214 . S
C524 O504 1.234 . S
C525 H497 0.929 . S
C525 C528 1.391 . S
C525 C530 1.391 . S
C526 H498 0.929 . S
C526 C527 1.390 . S
C526 N529 1.391 . S
C527 H499 0.930 . S
C527 C526 1.390 . S
C527 C528 1.392 . S
C528 H500 0.929 . S
C528 C525 1.391 . S
C528 C527 1.392 . S
N529 Co473 2.257 . S
N529 C526 1.391 . S
N529 C530 1.388 . S
C530 H501 0.930 . S
C530 C525 1.391 . S
C530 N529 1.388 . S
Co531 O533 2.143 . S
Co531 O539 2.074 . S
Co531 O542 2.093 . S
Co531 O555 2.097 . S
Co531 N572 2.151 . S
Co531 N580 2.214 . S
Co532 O533 2.160 . S
Co532 O538 2.058 . S
Co532 O548 2.057 1_455 S
Co532 O563 2.037 . S
Co532 N567 2.145 1_455 S
Co532 N588 2.257 1_455 S
O533 Co531 2.143 . S
O533 Co532 2.160 . S
C534 O535 1.278 . S
C534 O542 1.224 . S
O535 C534 1.278 . S
C536 O537 1.245 . S
C536 O548 1.232 1_455 S
O537 C536 1.245 . S
O538 Co532 2.058 . S
O538 C564 1.269 . S
O539 Co531 2.074 . S
O539 C564 1.257 . S
H540 C565 0.930 . S
H541 C571 0.930 . S
O542 Co531 2.093 . S
O542 C534 1.224 . S
H543 C575 0.929 . S
H544 C577 0.930 . S
H545 C578 0.930 . S
H546 C576 0.929 . S
H547 C579 0.928 . S
O548 Co532 2.057 1_655 S
O548 C536 1.232 1_655 S
H549 C568 0.929 . S
H550 C569 0.929 . S
H551 C581 0.931 . S
H552 C573 0.929 . S
H553 C582 0.930 . S
H554 C574 0.931 . S
O555 Co531 2.097 . S
O555 C583 1.214 . S
H556 C584 0.929 . S
H557 C585 0.929 . S
H558 C586 0.930 . S
H559 C587 0.929 . S
H560 C589 0.930 . S
H561 C566 0.930 . S
H562 C570 0.930 . S
O563 Co532 2.037 . S
O563 C583 1.234 . S
C564 O538 1.269 . S
C564 O539 1.257 . S
C565 H540 0.930 . S
C565 C568 1.388 . S
C565 C570 1.418 . S
C566 H561 0.930 . S
C566 C569 1.404 . S
C566 C570 1.353 . S
N567 Co532 2.145 1_655 S
N567 C568 1.397 . S
N567 C569 1.334 . S
C568 H549 0.929 . S
C568 C565 1.388 . S
C568 N567 1.397 . S
C569 H550 0.929 . S
C569 C566 1.404 . S
C569 N567 1.334 . S
C570 H562 0.930 . S
C570 C565 1.418 . S
C570 C566 1.353 . S
C571 H541 0.930 . S
C571 N572 1.330 . S
C571 C573 1.446 . S
N572 Co531 2.151 . S
N572 C571 1.330 . S
N572 C576 1.418 . S
C573 H552 0.929 . S
C573 C571 1.446 . S
C573 C574 1.332 . S
C574 H554 0.931 . S
C574 C573 1.332 . S
C574 C575 1.267 . S
C575 H543 0.929 . S
C575 C574 1.267 . S
C575 C576 1.251 . S
C576 H546 0.929 . S
C576 N572 1.418 . S
C576 C575 1.251 . S
C577 H544 0.930 . S
C577 C579 1.406 . S
C577 C582 1.261 . S
C578 H545 0.930 . S
C578 N580 1.325 . S
C578 C581 1.357 . S
C579 H547 0.928 . S
C579 C577 1.406 . S
C579 N580 1.261 . S
N580 Co531 2.214 . S
N580 C578 1.325 . S
N580 C579 1.261 . S
C581 H551 0.931 . S
C581 C578 1.357 . S
C581 C582 1.312 . S
C582 H553 0.930 . S
C582 C577 1.261 . S
C582 C581 1.312 . S
C583 O555 1.214 . S
C583 O563 1.234 . S
C584 H556 0.929 . S
C584 C587 1.391 1_455 S
C584 C589 1.391 . S
C585 H557 0.929 . S
C585 C586 1.390 . S
C585 N588 1.391 . S
C586 H558 0.930 . S
C586 C585 1.390 . S
C586 C587 1.392 . S
C587 H559 0.929 . S
C587 C584 1.391 1_655 S
C587 C586 1.392 . S
N588 Co532 2.257 1_655 S
N588 C585 1.391 . S
N588 C589 1.388 1_655 S
C589 H560 0.930 . S
C589 C584 1.391 . S
C589 N588 1.388 1_455 S
Co590 O592 2.143 . S
Co590 O598 2.074 . S
Co590 O601 2.093 . S
Co590 O614 2.097 . S
Co590 N631 2.151 . S
Co590 N639 2.214 . S
Co591 O592 2.160 . S
Co591 O597 2.058 . S
Co591 O607 2.057 1_545 S
Co591 O622 2.037 . S
Co591 N626 2.145 1_545 S
Co591 N647 2.257 1_545 S
O592 Co590 2.143 . S
O592 Co591 2.160 . S
C593 O594 1.278 . S
C593 O601 1.224 . S
O594 C593 1.278 . S
C595 O596 1.245 . S
C595 O607 1.232 1_545 S
O596 C595 1.245 . S
O597 Co591 2.058 . S
O597 C623 1.269 . S
O598 Co590 2.074 . S
O598 C623 1.257 . S
H599 C624 0.930 . S
H600 C630 0.930 . S
O601 Co590 2.093 . S
O601 C593 1.224 . S
H602 C634 0.929 . S
H603 C636 0.930 . S
H604 C637 0.930 . S
H605 C635 0.929 . S
H606 C638 0.928 . S
O607 Co591 2.057 1_565 S
O607 C595 1.232 1_565 S
H608 C627 0.929 . S
H609 C628 0.929 . S
H610 C640 0.931 . S
H611 C632 0.929 . S
H612 C641 0.930 . S
H613 C633 0.931 . S
O614 Co590 2.097 . S
O614 C642 1.214 . S
H615 C643 0.929 . S
H616 C644 0.929 . S
H617 C645 0.930 . S
H618 C646 0.929 . S
H619 C648 0.930 . S
H620 C625 0.930 . S
H621 C629 0.930 . S
O622 Co591 2.037 . S
O622 C642 1.234 . S
C623 O597 1.269 . S
C623 O598 1.257 . S
C624 H599 0.930 . S
C624 C627 1.388 . S
C624 C629 1.418 . S
C625 H620 0.930 . S
C625 C628 1.404 . S
C625 C629 1.353 . S
N626 Co591 2.145 1_565 S
N626 C627 1.397 . S
N626 C628 1.334 . S
C627 H608 0.929 . S
C627 C624 1.388 . S
C627 N626 1.397 . S
C628 H609 0.929 . S
C628 C625 1.404 . S
C628 N626 1.334 . S
C629 H621 0.930 . S
C629 C624 1.418 . S
C629 C625 1.353 . S
C630 H600 0.930 . S
C630 N631 1.330 . S
C630 C632 1.446 . S
N631 Co590 2.151 . S
N631 C630 1.330 . S
N631 C635 1.418 . S
C632 H611 0.929 . S
C632 C630 1.446 . S
C632 C633 1.332 . S
C633 H613 0.931 . S
C633 C632 1.332 . S
C633 C634 1.267 . S
C634 H602 0.929 . S
C634 C633 1.267 . S
C634 C635 1.251 . S
C635 H605 0.929 . S
C635 N631 1.418 . S
C635 C634 1.251 . S
C636 H603 0.930 . S
C636 C638 1.406 . S
C636 C641 1.261 . S
C637 H604 0.930 . S
C637 N639 1.325 . S
C637 C640 1.357 . S
C638 H606 0.928 . S
C638 C636 1.406 . S
C638 N639 1.261 . S
N639 Co590 2.214 . S
N639 C637 1.325 . S
N639 C638 1.261 . S
C640 H610 0.931 . S
C640 C637 1.357 . S
C640 C641 1.312 . S
C641 H612 0.930 . S
C641 C636 1.261 . S
C641 C640 1.312 . S
C642 O614 1.214 . S
C642 O622 1.234 . S
C643 H615 0.929 . S
C643 C646 1.391 1_545 S
C643 C648 1.391 . S
C644 H616 0.929 . S
C644 C645 1.390 . S
C644 N647 1.391 . S
C645 H617 0.930 . S
C645 C644 1.390 . S
C645 C646 1.392 . S
C646 H618 0.929 . S
C646 C643 1.391 1_565 S
C646 C645 1.392 . S
N647 Co591 2.257 1_565 S
N647 C644 1.391 . S
N647 C648 1.388 1_565 S
C648 H619 0.930 . S
C648 C643 1.391 . S
C648 N647 1.388 1_545 S
Co649 O651 2.143 . S
Co649 O657 2.074 . S
Co649 O660 2.093 . S
Co649 O673 2.097 . S
Co649 N690 2.151 . S
Co649 N698 2.214 . S
Co650 O651 2.160 . S
Co650 O656 2.058 . S
Co650 O666 2.057 . S
Co650 O681 2.037 . S
Co650 N685 2.145 . S
Co650 N706 2.257 . S
O651 Co649 2.143 . S
O651 Co650 2.160 . S
C652 O653 1.278 . S
C652 O660 1.224 . S
O653 C652 1.278 . S
C654 O655 1.245 . S
C654 O666 1.232 . S
O655 C654 1.245 . S
O656 Co650 2.058 . S
O656 C682 1.269 . S
O657 Co649 2.074 . S
O657 C682 1.257 . S
H658 C683 0.930 . S
H659 C689 0.930 . S
O660 Co649 2.093 . S
O660 C652 1.224 . S
H661 C693 0.929 . S
H662 C695 0.930 . S
H663 C696 0.930 . S
H664 C694 0.929 . S
H665 C697 0.928 . S
O666 Co650 2.057 . S
O666 C654 1.232 . S
H667 C686 0.929 . S
H668 C687 0.929 . S
H669 C699 0.931 . S
H670 C691 0.929 . S
H671 C700 0.930 . S
H672 C692 0.931 . S
O673 Co649 2.097 . S
O673 C701 1.214 . S
H674 C702 0.929 . S
H675 C703 0.929 . S
H676 C704 0.930 . S
H677 C705 0.929 . S
H678 C707 0.930 . S
H679 C684 0.930 . S
H680 C688 0.930 . S
O681 Co650 2.037 . S
O681 C701 1.234 . S
C682 O656 1.269 . S
C682 O657 1.257 . S
C683 H658 0.930 . S
C683 C686 1.388 . S
C683 C688 1.418 . S
C684 H679 0.930 . S
C684 C687 1.404 . S
C684 C688 1.353 . S
N685 Co650 2.145 . S
N685 C686 1.397 . S
N685 C687 1.334 . S
C686 H667 0.929 . S
C686 C683 1.388 . S
C686 N685 1.397 . S
C687 H668 0.929 . S
C687 C684 1.404 . S
C687 N685 1.334 . S
C688 H680 0.930 . S
C688 C683 1.418 . S
C688 C684 1.353 . S
C689 H659 0.930 . S
C689 N690 1.330 . S
C689 C691 1.446 . S
N690 Co649 2.151 . S
N690 C689 1.330 . S
N690 C694 1.418 . S
C691 H670 0.929 . S
C691 C689 1.446 . S
C691 C692 1.332 . S
C692 H672 0.931 . S
C692 C691 1.332 . S
C692 C693 1.267 . S
C693 H661 0.929 . S
C693 C692 1.267 . S
C693 C694 1.251 . S
C694 H664 0.929 . S
C694 N690 1.418 . S
C694 C693 1.251 . S
C695 H662 0.930 . S
C695 C697 1.406 . S
C695 C700 1.261 . S
C696 H663 0.930 . S
C696 N698 1.325 . S
C696 C699 1.357 . S
C697 H665 0.928 . S
C697 C695 1.406 . S
C697 N698 1.261 . S
N698 Co649 2.214 . S
N698 C696 1.325 . S
N698 C697 1.261 . S
C699 H669 0.931 . S
C699 C696 1.357 . S
C699 C700 1.312 . S
C700 H671 0.930 . S
C700 C695 1.261 . S
C700 C699 1.312 . S
C701 O673 1.214 . S
C701 O681 1.234 . S
C702 H674 0.929 . S
C702 C705 1.391 . S
C702 C707 1.391 . S
C703 H675 0.929 . S
C703 C704 1.390 . S
C703 N706 1.391 . S
C704 H676 0.930 . S
C704 C703 1.390 . S
C704 C705 1.392 . S
C705 H677 0.929 . S
C705 C702 1.391 . S
C705 C704 1.392 . S
N706 Co650 2.257 . S
N706 C703 1.391 . S
N706 C707 1.388 . S
C707 H678 0.930 . S
C707 C702 1.391 . S
C707 N706 1.388 . S
Co708 O710 2.143 . S
Co708 O716 2.074 . S
Co708 O719 2.093 . S
Co708 O732 2.097 . S
Co708 N749 2.151 . S
Co708 N757 2.214 . S
Co709 O710 2.160 . S
Co709 O715 2.058 . S
Co709 O725 2.057 1_565 S
Co709 O740 2.037 . S
Co709 N744 2.145 1_565 S
Co709 N765 2.257 1_565 S
O710 Co708 2.143 . S
O710 Co709 2.160 . S
C711 O712 1.278 . S
C711 O719 1.224 . S
O712 C711 1.278 . S
C713 O714 1.245 . S
C713 O725 1.232 1_565 S
O714 C713 1.245 . S
O715 Co709 2.058 . S
O715 C741 1.269 . S
O716 Co708 2.074 . S
O716 C741 1.257 . S
H717 C742 0.930 . S
H718 C748 0.930 . S
O719 Co708 2.093 . S
O719 C711 1.224 . S
H720 C752 0.929 . S
H721 C754 0.930 . S
H722 C755 0.930 . S
H723 C753 0.929 . S
H724 C756 0.928 . S
O725 Co709 2.057 1_545 S
O725 C713 1.232 1_545 S
H726 C745 0.929 . S
H727 C746 0.929 . S
H728 C758 0.931 . S
H729 C750 0.929 . S
H730 C759 0.930 . S
H731 C751 0.931 . S
O732 Co708 2.097 . S
O732 C760 1.214 . S
H733 C761 0.929 . S
H734 C762 0.929 . S
H735 C763 0.930 . S
H736 C764 0.929 . S
H737 C766 0.930 . S
H738 C743 0.930 . S
H739 C747 0.930 . S
O740 Co709 2.037 . S
O740 C760 1.234 . S
C741 O715 1.269 . S
C741 O716 1.257 . S
C742 H717 0.930 . S
C742 C745 1.388 . S
C742 C747 1.418 . S
C743 H738 0.930 . S
C743 C746 1.404 . S
C743 C747 1.353 . S
N744 Co709 2.145 1_545 S
N744 C745 1.397 . S
N744 C746 1.334 . S
C745 H726 0.929 . S
C745 C742 1.388 . S
C745 N744 1.397 . S
C746 H727 0.929 . S
C746 C743 1.404 . S
C746 N744 1.334 . S
C747 H739 0.930 . S
C747 C742 1.418 . S
C747 C743 1.353 . S
C748 H718 0.930 . S
C748 N749 1.330 . S
C748 C750 1.446 . S
N749 Co708 2.151 . S
N749 C748 1.330 . S
N749 C753 1.418 . S
C750 H729 0.929 . S
C750 C748 1.446 . S
C750 C751 1.332 . S
C751 H731 0.931 . S
C751 C750 1.332 . S
C751 C752 1.267 . S
C752 H720 0.929 . S
C752 C751 1.267 . S
C752 C753 1.251 . S
C753 H723 0.929 . S
C753 N749 1.418 . S
C753 C752 1.251 . S
C754 H721 0.930 . S
C754 C756 1.406 . S
C754 C759 1.261 . S
C755 H722 0.930 . S
C755 N757 1.325 . S
C755 C758 1.357 . S
C756 H724 0.928 . S
C756 C754 1.406 . S
C756 N757 1.261 . S
N757 Co708 2.214 . S
N757 C755 1.325 . S
N757 C756 1.261 . S
C758 H728 0.931 . S
C758 C755 1.357 . S
C758 C759 1.312 . S
C759 H730 0.930 . S
C759 C754 1.261 . S
C759 C758 1.312 . S
C760 O732 1.214 . S
C760 O740 1.234 . S
C761 H733 0.929 . S
C761 C764 1.391 1_565 S
C761 C766 1.391 . S
C762 H734 0.929 . S
C762 C763 1.390 . S
C762 N765 1.391 . S
C763 H735 0.930 . S
C763 C762 1.390 . S
C763 C764 1.392 . S
C764 H736 0.929 . S
C764 C761 1.391 1_545 S
C764 C763 1.392 . S
N765 Co709 2.257 1_545 S
N765 C762 1.391 . S
N765 C766 1.388 1_545 S
C766 H737 0.930 . S
C766 C761 1.391 . S
C766 N765 1.388 1_565 S
Co767 O769 2.143 . S
Co767 O775 2.074 . S
Co767 O778 2.093 . S
Co767 O791 2.097 . S
Co767 N808 2.151 . S
Co767 N816 2.214 . S
Co768 O769 2.160 . S
Co768 O774 2.058 . S
Co768 O784 2.057 . S
Co768 O799 2.037 . S
Co768 N803 2.145 . S
Co768 N824 2.257 . S
O769 Co767 2.143 . S
O769 Co768 2.160 . S
C770 O771 1.278 . S
C770 O778 1.224 . S
O771 C770 1.278 . S
C772 O773 1.245 . S
C772 O784 1.232 . S
O773 C772 1.245 . S
O774 Co768 2.058 . S
O774 C800 1.269 . S
O775 Co767 2.074 . S
O775 C800 1.257 . S
H776 C801 0.930 . S
H777 C807 0.930 . S
O778 Co767 2.093 . S
O778 C770 1.224 . S
H779 C811 0.929 . S
H780 C813 0.930 . S
H781 C814 0.930 . S
H782 C812 0.929 . S
H783 C815 0.928 . S
O784 Co768 2.057 . S
O784 C772 1.232 . S
H785 C804 0.929 . S
H786 C805 0.929 . S
H787 C817 0.931 . S
H788 C809 0.929 . S
H789 C818 0.930 . S
H790 C810 0.931 . S
O791 Co767 2.097 . S
O791 C819 1.214 . S
H792 C820 0.929 . S
H793 C821 0.929 . S
H794 C822 0.930 . S
H795 C823 0.929 . S
H796 C825 0.930 . S
H797 C802 0.930 . S
H798 C806 0.930 . S
O799 Co768 2.037 . S
O799 C819 1.234 . S
C800 O774 1.269 . S
C800 O775 1.257 . S
C801 H776 0.930 . S
C801 C804 1.388 . S
C801 C806 1.418 . S
C802 H797 0.930 . S
C802 C805 1.404 . S
C802 C806 1.353 . S
N803 Co768 2.145 . S
N803 C804 1.397 . S
N803 C805 1.334 . S
C804 H785 0.929 . S
C804 C801 1.388 . S
C804 N803 1.397 . S
C805 H786 0.929 . S
C805 C802 1.404 . S
C805 N803 1.334 . S
C806 H798 0.930 . S
C806 C801 1.418 . S
C806 C802 1.353 . S
C807 H777 0.930 . S
C807 N808 1.330 . S
C807 C809 1.446 . S
N808 Co767 2.151 . S
N808 C807 1.330 . S
N808 C812 1.418 . S
C809 H788 0.929 . S
C809 C807 1.446 . S
C809 C810 1.332 . S
C810 H790 0.931 . S
C810 C809 1.332 . S
C810 C811 1.267 . S
C811 H779 0.929 . S
C811 C810 1.267 . S
C811 C812 1.251 . S
C812 H782 0.929 . S
C812 N808 1.418 . S
C812 C811 1.251 . S
C813 H780 0.930 . S
C813 C815 1.406 . S
C813 C818 1.261 . S
C814 H781 0.930 . S
C814 N816 1.325 . S
C814 C817 1.357 . S
C815 H783 0.928 . S
C815 C813 1.406 . S
C815 N816 1.261 . S
N816 Co767 2.214 . S
N816 C814 1.325 . S
N816 C815 1.261 . S
C817 H787 0.931 . S
C817 C814 1.357 . S
C817 C818 1.312 . S
C818 H789 0.930 . S
C818 C813 1.261 . S
C818 C817 1.312 . S
C819 O791 1.214 . S
C819 O799 1.234 . S
C820 H792 0.929 . S
C820 C823 1.391 . S
C820 C825 1.391 . S
C821 H793 0.929 . S
C821 C822 1.390 . S
C821 N824 1.391 . S
C822 H794 0.930 . S
C822 C821 1.390 . S
C822 C823 1.392 . S
C823 H795 0.929 . S
C823 C820 1.391 . S
C823 C822 1.392 . S
N824 Co768 2.257 . S
N824 C821 1.391 . S
N824 C825 1.388 . S
C825 H796 0.930 . S
C825 C820 1.391 . S
C825 N824 1.388 . S
Co826 O828 2.143 . S
Co826 O834 2.074 . S
Co826 O837 2.093 . S
Co826 O850 2.097 . S
Co826 N867 2.151 . S
Co826 N875 2.214 . S
Co827 O828 2.160 . S
Co827 O833 2.058 . S
Co827 O843 2.057 1_455 S
Co827 O858 2.037 . S
Co827 N862 2.145 1_455 S
Co827 N883 2.257 1_455 S
O828 Co826 2.143 . S
O828 Co827 2.160 . S
C829 O830 1.278 . S
C829 O837 1.224 . S
O830 C829 1.278 . S
C831 O832 1.245 . S
C831 O843 1.232 1_455 S
O832 C831 1.245 . S
O833 Co827 2.058 . S
O833 C859 1.269 . S
O834 Co826 2.074 . S
O834 C859 1.257 . S
H835 C860 0.930 . S
H836 C866 0.930 . S
O837 Co826 2.093 . S
O837 C829 1.224 . S
H838 C870 0.929 . S
H839 C872 0.930 . S
H840 C873 0.930 . S
H841 C871 0.929 . S
H842 C874 0.928 . S
O843 Co827 2.057 1_655 S
O843 C831 1.232 1_655 S
H844 C863 0.929 . S
H845 C864 0.929 . S
H846 C876 0.931 . S
H847 C868 0.929 . S
H848 C877 0.930 . S
H849 C869 0.931 . S
O850 Co826 2.097 . S
O850 C878 1.214 . S
H851 C879 0.929 . S
H852 C880 0.929 . S
H853 C881 0.930 . S
H854 C882 0.929 . S
H855 C884 0.930 . S
H856 C861 0.930 . S
H857 C865 0.930 . S
O858 Co827 2.037 . S
O858 C878 1.234 . S
C859 O833 1.269 . S
C859 O834 1.257 . S
C860 H835 0.930 . S
C860 C863 1.388 . S
C860 C865 1.418 . S
C861 H856 0.930 . S
C861 C864 1.404 . S
C861 C865 1.353 . S
N862 Co827 2.145 1_655 S
N862 C863 1.397 . S
N862 C864 1.334 . S
C863 H844 0.929 . S
C863 C860 1.388 . S
C863 N862 1.397 . S
C864 H845 0.929 . S
C864 C861 1.404 . S
C864 N862 1.334 . S
C865 H857 0.930 . S
C865 C860 1.418 . S
C865 C861 1.353 . S
C866 H836 0.930 . S
C866 N867 1.330 . S
C866 C868 1.446 . S
N867 Co826 2.151 . S
N867 C866 1.330 . S
N867 C871 1.418 . S
C868 H847 0.929 . S
C868 C866 1.446 . S
C868 C869 1.332 . S
C869 H849 0.931 . S
C869 C868 1.332 . S
C869 C870 1.267 . S
C870 H838 0.929 . S
C870 C869 1.267 . S
C870 C871 1.251 . S
C871 H841 0.929 . S
C871 N867 1.418 . S
C871 C870 1.251 . S
C872 H839 0.930 . S
C872 C874 1.406 . S
C872 C877 1.261 . S
C873 H840 0.930 . S
C873 N875 1.325 . S
C873 C876 1.357 . S
C874 H842 0.928 . S
C874 C872 1.406 . S
C874 N875 1.261 . S
N875 Co826 2.214 . S
N875 C873 1.325 . S
N875 C874 1.261 . S
C876 H846 0.931 . S
C876 C873 1.357 . S
C876 C877 1.312 . S
C877 H848 0.930 . S
C877 C872 1.261 . S
C877 C876 1.312 . S
C878 O850 1.214 . S
C878 O858 1.234 . S
C879 H851 0.929 . S
C879 C882 1.391 1_455 S
C879 C884 1.391 . S
C880 H852 0.929 . S
C880 C881 1.390 . S
C880 N883 1.391 . S
C881 H853 0.930 . S
C881 C880 1.390 . S
C881 C882 1.392 . S
C882 H854 0.929 . S
C882 C879 1.391 1_655 S
C882 C881 1.392 . S
N883 Co827 2.257 1_655 S
N883 C880 1.391 . S
N883 C884 1.388 1_655 S
C884 H855 0.930 . S
C884 C879 1.391 . S
C884 N883 1.388 1_455 S
Co885 O887 2.143 . S
Co885 O893 2.074 . S
Co885 O896 2.093 . S
Co885 O909 2.097 . S
Co885 N926 2.151 . S
Co885 N934 2.214 . S
Co886 O887 2.160 . S
Co886 O892 2.058 . S
Co886 O902 2.057 1_545 S
Co886 O917 2.037 . S
Co886 N921 2.145 1_545 S
Co886 N942 2.257 1_545 S
O887 Co885 2.143 . S
O887 Co886 2.160 . S
C888 O889 1.278 . S
C888 O896 1.224 . S
O889 C888 1.278 . S
C890 O891 1.245 . S
C890 O902 1.232 1_545 S
O891 C890 1.245 . S
O892 Co886 2.058 . S
O892 C918 1.269 . S
O893 Co885 2.074 . S
O893 C918 1.257 . S
H894 C919 0.930 . S
H895 C925 0.930 . S
O896 Co885 2.093 . S
O896 C888 1.224 . S
H897 C929 0.929 . S
H898 C931 0.930 . S
H899 C932 0.930 . S
H900 C930 0.929 . S
H901 C933 0.928 . S
O902 Co886 2.057 1_565 S
O902 C890 1.232 1_565 S
H903 C922 0.929 . S
H904 C923 0.929 . S
H905 C935 0.931 . S
H906 C927 0.929 . S
H907 C936 0.930 . S
H908 C928 0.931 . S
O909 Co885 2.097 . S
O909 C937 1.214 . S
H910 C938 0.929 . S
H911 C939 0.929 . S
H912 C940 0.930 . S
H913 C941 0.929 . S
H914 C943 0.930 . S
H915 C920 0.930 . S
H916 C924 0.930 . S
O917 Co886 2.037 . S
O917 C937 1.234 . S
C918 O892 1.269 . S
C918 O893 1.257 . S
C919 H894 0.930 . S
C919 C922 1.388 . S
C919 C924 1.418 . S
C920 H915 0.930 . S
C920 C923 1.404 . S
C920 C924 1.353 . S
N921 Co886 2.145 1_565 S
N921 C922 1.397 . S
N921 C923 1.334 . S
C922 H903 0.929 . S
C922 C919 1.388 . S
C922 N921 1.397 . S
C923 H904 0.929 . S
C923 C920 1.404 . S
C923 N921 1.334 . S
C924 H916 0.930 . S
C924 C919 1.418 . S
C924 C920 1.353 . S
C925 H895 0.930 . S
C925 N926 1.330 . S
C925 C927 1.446 . S
N926 Co885 2.151 . S
N926 C925 1.330 . S
N926 C930 1.418 . S
C927 H906 0.929 . S
C927 C925 1.446 . S
C927 C928 1.332 . S
C928 H908 0.931 . S
C928 C927 1.332 . S
C928 C929 1.267 . S
C929 H897 0.929 . S
C929 C928 1.267 . S
C929 C930 1.251 . S
C930 H900 0.929 . S
C930 N926 1.418 . S
C930 C929 1.251 . S
C931 H898 0.930 . S
C931 C933 1.406 . S
C931 C936 1.261 . S
C932 H899 0.930 . S
C932 N934 1.325 . S
C932 C935 1.357 . S
C933 H901 0.928 . S
C933 C931 1.406 . S
C933 N934 1.261 . S
N934 Co885 2.214 . S
N934 C932 1.325 . S
N934 C933 1.261 . S
C935 H905 0.931 . S
C935 C932 1.357 . S
C935 C936 1.312 . S
C936 H907 0.930 . S
C936 C931 1.261 . S
C936 C935 1.312 . S
C937 O909 1.214 . S
C937 O917 1.234 . S
C938 H910 0.929 . S
C938 C941 1.391 1_545 S
C938 C943 1.391 . S
C939 H911 0.929 . S
C939 C940 1.390 . S
C939 N942 1.391 . S
C940 H912 0.930 . S
C940 C939 1.390 . S
C940 C941 1.392 . S
C941 H913 0.929 . S
C941 C938 1.391 1_565 S
C941 C940 1.392 . S
N942 Co886 2.257 1_565 S
N942 C939 1.391 . S
N942 C943 1.388 1_565 S
C943 H914 0.930 . S
C943 C938 1.391 . S
C943 N942 1.388 1_545 S
Co944 O946 2.143 . S
Co944 O952 2.074 . S
Co944 O955 2.093 . S
Co944 O968 2.097 . S
Co944 N985 2.151 . S
Co944 N993 2.214 . S
Co945 O946 2.160 . S
Co945 O951 2.058 . S
Co945 O961 2.057 . S
Co945 O976 2.037 . S
Co945 N980 2.145 . S
Co945 N1001 2.257 . S
O946 Co944 2.143 . S
O946 Co945 2.160 . S
C947 O948 1.278 . S
C947 O955 1.224 . S
O948 C947 1.278 . S
C949 O950 1.245 . S
C949 O961 1.232 . S
O950 C949 1.245 . S
O951 Co945 2.058 . S
O951 C977 1.269 . S
O952 Co944 2.074 . S
O952 C977 1.257 . S
H953 C978 0.930 . S
H954 C984 0.930 . S
O955 Co944 2.093 . S
O955 C947 1.224 . S
H956 C988 0.929 . S
H957 C990 0.930 . S
H958 C991 0.930 . S
H959 C989 0.929 . S
H960 C992 0.928 . S
O961 Co945 2.057 . S
O961 C949 1.232 . S
H962 C981 0.929 . S
H963 C982 0.929 . S
H964 C994 0.931 . S
H965 C986 0.929 . S
H966 C995 0.930 . S
H967 C987 0.931 . S
O968 Co944 2.097 . S
O968 C996 1.214 . S
H969 C997 0.929 . S
H970 C998 0.929 . S
H971 C999 0.930 . S
H972 C1000 0.929 . S
H973 C1002 0.930 . S
H974 C979 0.930 . S
H975 C983 0.930 . S
O976 Co945 2.037 . S
O976 C996 1.234 . S
C977 O951 1.269 . S
C977 O952 1.257 . S
C978 H953 0.930 . S
C978 C981 1.388 . S
C978 C983 1.418 . S
C979 H974 0.930 . S
C979 C982 1.404 . S
C979 C983 1.353 . S
N980 Co945 2.145 . S
N980 C981 1.397 . S
N980 C982 1.334 . S
C981 H962 0.929 . S
C981 C978 1.388 . S
C981 N980 1.397 . S
C982 H963 0.929 . S
C982 C979 1.404 . S
C982 N980 1.334 . S
C983 H975 0.930 . S
C983 C978 1.418 . S
C983 C979 1.353 . S
C984 H954 0.930 . S
C984 N985 1.330 . S
C984 C986 1.446 . S
N985 Co944 2.151 . S
N985 C984 1.330 . S
N985 C989 1.418 . S
C986 H965 0.929 . S
C986 C984 1.446 . S
C986 C987 1.332 . S
C987 H967 0.931 . S
C987 C986 1.332 . S
C987 C988 1.267 . S
C988 H956 0.929 . S
C988 C987 1.267 . S
C988 C989 1.251 . S
C989 H959 0.929 . S
C989 N985 1.418 . S
C989 C988 1.251 . S
C990 H957 0.930 . S
C990 C992 1.406 . S
C990 C995 1.261 . S
C991 H958 0.930 . S
C991 N993 1.325 . S
C991 C994 1.357 . S
C992 H960 0.928 . S
C992 C990 1.406 . S
C992 N993 1.261 . S
N993 Co944 2.214 . S
N993 C991 1.325 . S
N993 C992 1.261 . S
C994 H964 0.931 . S
C994 C991 1.357 . S
C994 C995 1.312 . S
C995 H966 0.930 . S
C995 C990 1.261 . S
C995 C994 1.312 . S
C996 O968 1.214 . S
C996 O976 1.234 . S
C997 H969 0.929 . S
C997 C1000 1.391 . S
C997 C1002 1.391 . S
C998 H970 0.929 . S
C998 C999 1.390 . S
C998 N1001 1.391 . S
C999 H971 0.930 . S
C999 C998 1.390 . S
C999 C1000 1.392 . S
C1000 H972 0.929 . S
C1000 C997 1.391 . S
C1000 C999 1.392 . S
N1001 Co945 2.257 . S
N1001 C998 1.391 . S
N1001 C1002 1.388 . S
C1002 H973 0.930 . S
C1002 C997 1.391 . S
C1002 N1001 1.388 . S
Co1003 O1005 2.143 . S
Co1003 O1011 2.074 . S
Co1003 O1014 2.093 . S
Co1003 O1027 2.097 . S
Co1003 N1044 2.151 . S
Co1003 N1052 2.214 . S
Co1004 O1005 2.160 . S
Co1004 O1010 2.058 . S
Co1004 O1020 2.057 1_655 S
Co1004 O1035 2.037 . S
Co1004 N1039 2.145 1_655 S
Co1004 N1060 2.257 1_655 S
O1005 Co1003 2.143 . S
O1005 Co1004 2.160 . S
C1006 O1007 1.278 . S
C1006 O1014 1.224 . S
O1007 C1006 1.278 . S
C1008 O1009 1.245 . S
C1008 O1020 1.232 1_655 S
O1009 C1008 1.245 . S
O1010 Co1004 2.058 . S
O1010 C1036 1.269 . S
O1011 Co1003 2.074 . S
O1011 C1036 1.257 . S
H1012 C1037 0.930 . S
H1013 C1043 0.930 . S
O1014 Co1003 2.093 . S
O1014 C1006 1.224 . S
H1015 C1047 0.929 . S
H1016 C1049 0.930 . S
H1017 C1050 0.930 . S
H1018 C1048 0.929 . S
H1019 C1051 0.928 . S
O1020 Co1004 2.057 1_455 S
O1020 C1008 1.232 1_455 S
H1021 C1040 0.929 . S
H1022 C1041 0.929 . S
H1023 C1053 0.931 . S
H1024 C1045 0.929 . S
H1025 C1054 0.930 . S
H1026 C1046 0.931 . S
O1027 Co1003 2.097 . S
O1027 C1055 1.214 . S
H1028 C1056 0.929 . S
H1029 C1057 0.929 . S
H1030 C1058 0.930 . S
H1031 C1059 0.929 . S
H1032 C1061 0.930 . S
H1033 C1038 0.930 . S
H1034 C1042 0.930 . S
O1035 Co1004 2.037 . S
O1035 C1055 1.234 . S
C1036 O1010 1.269 . S
C1036 O1011 1.257 . S
C1037 H1012 0.930 . S
C1037 C1040 1.388 . S
C1037 C1042 1.418 . S
C1038 H1033 0.930 . S
C1038 C1041 1.404 . S
C1038 C1042 1.353 . S
N1039 Co1004 2.145 1_455 S
N1039 C1040 1.397 . S
N1039 C1041 1.334 . S
C1040 H1021 0.929 . S
C1040 C1037 1.388 . S
C1040 N1039 1.397 . S
C1041 H1022 0.929 . S
C1041 C1038 1.404 . S
C1041 N1039 1.334 . S
C1042 H1034 0.930 . S
C1042 C1037 1.418 . S
C1042 C1038 1.353 . S
C1043 H1013 0.930 . S
C1043 N1044 1.330 . S
C1043 C1045 1.446 . S
N1044 Co1003 2.151 . S
N1044 C1043 1.330 . S
N1044 C1048 1.418 . S
C1045 H1024 0.929 . S
C1045 C1043 1.446 . S
C1045 C1046 1.332 . S
C1046 H1026 0.931 . S
C1046 C1045 1.332 . S
C1046 C1047 1.267 . S
C1047 H1015 0.929 . S
C1047 C1046 1.267 . S
C1047 C1048 1.251 . S
C1048 H1018 0.929 . S
C1048 N1044 1.418 . S
C1048 C1047 1.251 . S
C1049 H1016 0.930 . S
C1049 C1051 1.406 . S
C1049 C1054 1.261 . S
C1050 H1017 0.930 . S
C1050 N1052 1.325 . S
C1050 C1053 1.357 . S
C1051 H1019 0.928 . S
C1051 C1049 1.406 . S
C1051 N1052 1.261 . S
N1052 Co1003 2.214 . S
N1052 C1050 1.325 . S
N1052 C1051 1.261 . S
C1053 H1023 0.931 . S
C1053 C1050 1.357 . S
C1053 C1054 1.312 . S
C1054 H1025 0.930 . S
C1054 C1049 1.261 . S
C1054 C1053 1.312 . S
C1055 O1027 1.214 . S
C1055 O1035 1.234 . S
C1056 H1028 0.929 . S
C1056 C1059 1.391 1_655 S
C1056 C1061 1.391 . S
C1057 H1029 0.929 . S
C1057 C1058 1.390 . S
C1057 N1060 1.391 . S
C1058 H1030 0.930 . S
C1058 C1057 1.390 . S
C1058 C1059 1.392 . S
C1059 H1031 0.929 . S
C1059 C1056 1.391 1_455 S
C1059 C1058 1.392 . S
N1060 Co1004 2.257 1_455 S
N1060 C1057 1.391 . S
N1060 C1061 1.388 1_455 S
C1061 H1032 0.930 . S
C1061 C1056 1.391 . S
C1061 N1060 1.388 1_655 S
Co1062 O1064 2.143 . S
Co1062 O1070 2.074 . S
Co1062 O1073 2.093 . S
Co1062 O1086 2.097 . S
Co1062 N1103 2.151 . S
Co1062 N1111 2.214 . S
Co1063 O1064 2.160 . S
Co1063 O1069 2.058 . S
Co1063 O1079 2.057 1_455 S
Co1063 O1094 2.037 . S
Co1063 N1098 2.145 1_455 S
Co1063 N1119 2.257 1_455 S
O1064 Co1062 2.143 . S
O1064 Co1063 2.160 . S
C1065 O1066 1.278 . S
C1065 O1073 1.224 . S
O1066 C1065 1.278 . S
C1067 O1068 1.245 . S
C1067 O1079 1.232 1_455 S
O1068 C1067 1.245 . S
O1069 Co1063 2.058 . S
O1069 C1095 1.269 . S
O1070 Co1062 2.074 . S
O1070 C1095 1.257 . S
H1071 C1096 0.930 . S
H1072 C1102 0.930 . S
O1073 Co1062 2.093 . S
O1073 C1065 1.224 . S
H1074 C1106 0.929 . S
H1075 C1108 0.930 . S
H1076 C1109 0.930 . S
H1077 C1107 0.929 . S
H1078 C1110 0.928 . S
O1079 Co1063 2.057 1_655 S
O1079 C1067 1.232 1_655 S
H1080 C1099 0.929 . S
H1081 C1100 0.929 . S
H1082 C1112 0.931 . S
H1083 C1104 0.929 . S
H1084 C1113 0.930 . S
H1085 C1105 0.931 . S
O1086 Co1062 2.097 . S
O1086 C1114 1.214 . S
H1087 C1115 0.929 . S
H1088 C1116 0.929 . S
H1089 C1117 0.930 . S
H1090 C1118 0.929 . S
H1091 C1120 0.930 . S
H1092 C1097 0.930 . S
H1093 C1101 0.930 . S
O1094 Co1063 2.037 . S
O1094 C1114 1.234 . S
C1095 O1069 1.269 . S
C1095 O1070 1.257 . S
C1096 H1071 0.930 . S
C1096 C1099 1.388 . S
C1096 C1101 1.418 . S
C1097 H1092 0.930 . S
C1097 C1100 1.404 . S
C1097 C1101 1.353 . S
N1098 Co1063 2.145 1_655 S
N1098 C1099 1.397 . S
N1098 C1100 1.334 . S
C1099 H1080 0.929 . S
C1099 C1096 1.388 . S
C1099 N1098 1.397 . S
C1100 H1081 0.929 . S
C1100 C1097 1.404 . S
C1100 N1098 1.334 . S
C1101 H1093 0.930 . S
C1101 C1096 1.418 . S
C1101 C1097 1.353 . S
C1102 H1072 0.930 . S
C1102 N1103 1.330 . S
C1102 C1104 1.446 . S
N1103 Co1062 2.151 . S
N1103 C1102 1.330 . S
N1103 C1107 1.418 . S
C1104 H1083 0.929 . S
C1104 C1102 1.446 . S
C1104 C1105 1.332 . S
C1105 H1085 0.931 . S
C1105 C1104 1.332 . S
C1105 C1106 1.267 . S
C1106 H1074 0.929 . S
C1106 C1105 1.267 . S
C1106 C1107 1.251 . S
C1107 H1077 0.929 . S
C1107 N1103 1.418 . S
C1107 C1106 1.251 . S
C1108 H1075 0.930 . S
C1108 C1110 1.406 . S
C1108 C1113 1.261 . S
C1109 H1076 0.930 . S
C1109 N1111 1.325 . S
C1109 C1112 1.357 . S
C1110 H1078 0.928 . S
C1110 C1108 1.406 . S
C1110 N1111 1.261 . S
N1111 Co1062 2.214 . S
N1111 C1109 1.325 . S
N1111 C1110 1.261 . S
C1112 H1082 0.931 . S
C1112 C1109 1.357 . S
C1112 C1113 1.312 . S
C1113 H1084 0.930 . S
C1113 C1108 1.261 . S
C1113 C1112 1.312 . S
C1114 O1086 1.214 . S
C1114 O1094 1.234 . S
C1115 H1087 0.929 . S
C1115 C1118 1.391 1_455 S
C1115 C1120 1.391 . S
C1116 H1088 0.929 . S
C1116 C1117 1.390 . S
C1116 N1119 1.391 . S
C1117 H1089 0.930 . S
C1117 C1116 1.390 . S
C1117 C1118 1.392 . S
C1118 H1090 0.929 . S
C1118 C1115 1.391 1_655 S
C1118 C1117 1.392 . S
N1119 Co1063 2.257 1_655 S
N1119 C1116 1.391 . S
N1119 C1120 1.388 1_655 S
C1120 H1091 0.930 . S
C1120 C1115 1.391 . S
C1120 N1119 1.388 1_455 S
Co1121 O1123 2.143 . S
Co1121 O1129 2.074 . S
Co1121 O1132 2.093 . S
Co1121 O1145 2.097 . S
Co1121 N1162 2.151 . S
Co1121 N1170 2.214 . S
Co1122 O1123 2.160 . S
Co1122 O1128 2.058 . S
Co1122 O1138 2.057 1_545 S
Co1122 O1153 2.037 . S
Co1122 N1157 2.145 1_545 S
Co1122 N1178 2.257 1_545 S
O1123 Co1121 2.143 . S
O1123 Co1122 2.160 . S
C1124 O1125 1.278 . S
C1124 O1132 1.224 . S
O1125 C1124 1.278 . S
C1126 O1127 1.245 . S
C1126 O1138 1.232 1_545 S
O1127 C1126 1.245 . S
O1128 Co1122 2.058 . S
O1128 C1154 1.269 . S
O1129 Co1121 2.074 . S
O1129 C1154 1.257 . S
H1130 C1155 0.930 . S
H1131 C1161 0.930 . S
O1132 Co1121 2.093 . S
O1132 C1124 1.224 . S
H1133 C1165 0.929 . S
H1134 C1167 0.930 . S
H1135 C1168 0.930 . S
H1136 C1166 0.929 . S
H1137 C1169 0.928 . S
O1138 Co1122 2.057 1_565 S
O1138 C1126 1.232 1_565 S
H1139 C1158 0.929 . S
H1140 C1159 0.929 . S
H1141 C1171 0.931 . S
H1142 C1163 0.929 . S
H1143 C1172 0.930 . S
H1144 C1164 0.931 . S
O1145 Co1121 2.097 . S
O1145 C1173 1.214 . S
H1146 C1174 0.929 . S
H1147 C1175 0.929 . S
H1148 C1176 0.930 . S
H1149 C1177 0.929 . S
H1150 C1179 0.930 . S
H1151 C1156 0.930 . S
H1152 C1160 0.930 . S
O1153 Co1122 2.037 . S
O1153 C1173 1.234 . S
C1154 O1128 1.269 . S
C1154 O1129 1.257 . S
C1155 H1130 0.930 . S
C1155 C1158 1.388 . S
C1155 C1160 1.418 . S
C1156 H1151 0.930 . S
C1156 C1159 1.404 . S
C1156 C1160 1.353 . S
N1157 Co1122 2.145 1_565 S
N1157 C1158 1.397 . S
N1157 C1159 1.334 . S
C1158 H1139 0.929 . S
C1158 C1155 1.388 . S
C1158 N1157 1.397 . S
C1159 H1140 0.929 . S
C1159 C1156 1.404 . S
C1159 N1157 1.334 . S
C1160 H1152 0.930 . S
C1160 C1155 1.418 . S
C1160 C1156 1.353 . S
C1161 H1131 0.930 . S
C1161 N1162 1.330 . S
C1161 C1163 1.446 . S
N1162 Co1121 2.151 . S
N1162 C1161 1.330 . S
N1162 C1166 1.418 . S
C1163 H1142 0.929 . S
C1163 C1161 1.446 . S
C1163 C1164 1.332 . S
C1164 H1144 0.931 . S
C1164 C1163 1.332 . S
C1164 C1165 1.267 . S
C1165 H1133 0.929 . S
C1165 C1164 1.267 . S
C1165 C1166 1.251 . S
C1166 H1136 0.929 . S
C1166 N1162 1.418 . S
C1166 C1165 1.251 . S
C1167 H1134 0.930 . S
C1167 C1169 1.406 . S
C1167 C1172 1.261 . S
C1168 H1135 0.930 . S
C1168 N1170 1.325 . S
C1168 C1171 1.357 . S
C1169 H1137 0.928 . S
C1169 C1167 1.406 . S
C1169 N1170 1.261 . S
N1170 Co1121 2.214 . S
N1170 C1168 1.325 . S
N1170 C1169 1.261 . S
C1171 H1141 0.931 . S
C1171 C1168 1.357 . S
C1171 C1172 1.312 . S
C1172 H1143 0.930 . S
C1172 C1167 1.261 . S
C1172 C1171 1.312 . S
C1173 O1145 1.214 . S
C1173 O1153 1.234 . S
C1174 H1146 0.929 . S
C1174 C1177 1.391 1_545 S
C1174 C1179 1.391 . S
C1175 H1147 0.929 . S
C1175 C1176 1.390 . S
C1175 N1178 1.391 . S
C1176 H1148 0.930 . S
C1176 C1175 1.390 . S
C1176 C1177 1.392 . S
C1177 H1149 0.929 . S
C1177 C1174 1.391 1_565 S
C1177 C1176 1.392 . S
N1178 Co1122 2.257 1_565 S
N1178 C1175 1.391 . S
N1178 C1179 1.388 1_565 S
C1179 H1150 0.930 . S
C1179 C1174 1.391 . S
C1179 N1178 1.388 1_545 S
Co1180 O1182 2.143 . S
Co1180 O1188 2.074 . S
Co1180 O1191 2.093 . S
Co1180 O1204 2.097 . S
Co1180 N1221 2.151 . S
Co1180 N1229 2.214 . S
Co1181 O1182 2.160 . S
Co1181 O1187 2.058 . S
Co1181 O1197 2.057 . S
Co1181 O1212 2.037 . S
Co1181 N1216 2.145 . S
Co1181 N1237 2.257 . S
O1182 Co1180 2.143 . S
O1182 Co1181 2.160 . S
C1183 O1184 1.278 . S
C1183 O1191 1.224 . S
O1184 C1183 1.278 . S
C1185 O1186 1.245 . S
C1185 O1197 1.232 . S
O1186 C1185 1.245 . S
O1187 Co1181 2.058 . S
O1187 C1213 1.269 . S
O1188 Co1180 2.074 . S
O1188 C1213 1.257 . S
H1189 C1214 0.930 . S
H1190 C1220 0.930 . S
O1191 Co1180 2.093 . S
O1191 C1183 1.224 . S
H1192 C1224 0.929 . S
H1193 C1226 0.930 . S
H1194 C1227 0.930 . S
H1195 C1225 0.929 . S
H1196 C1228 0.928 . S
O1197 Co1181 2.057 . S
O1197 C1185 1.232 . S
H1198 C1217 0.929 . S
H1199 C1218 0.929 . S
H1200 C1230 0.931 . S
H1201 C1222 0.929 . S
H1202 C1231 0.930 . S
H1203 C1223 0.931 . S
O1204 Co1180 2.097 . S
O1204 C1232 1.214 . S
H1205 C1233 0.929 . S
H1206 C1234 0.929 . S
H1207 C1235 0.930 . S
H1208 C1236 0.929 . S
H1209 C1238 0.930 . S
H1210 C1215 0.930 . S
H1211 C1219 0.930 . S
O1212 Co1181 2.037 . S
O1212 C1232 1.234 . S
C1213 O1187 1.269 . S
C1213 O1188 1.257 . S
C1214 H1189 0.930 . S
C1214 C1217 1.388 . S
C1214 C1219 1.418 . S
C1215 H1210 0.930 . S
C1215 C1218 1.404 . S
C1215 C1219 1.353 . S
N1216 Co1181 2.145 . S
N1216 C1217 1.397 . S
N1216 C1218 1.334 . S
C1217 H1198 0.929 . S
C1217 C1214 1.388 . S
C1217 N1216 1.397 . S
C1218 H1199 0.929 . S
C1218 C1215 1.404 . S
C1218 N1216 1.334 . S
C1219 H1211 0.930 . S
C1219 C1214 1.418 . S
C1219 C1215 1.353 . S
C1220 H1190 0.930 . S
C1220 N1221 1.330 . S
C1220 C1222 1.446 . S
N1221 Co1180 2.151 . S
N1221 C1220 1.330 . S
N1221 C1225 1.418 . S
C1222 H1201 0.929 . S
C1222 C1220 1.446 . S
C1222 C1223 1.332 . S
C1223 H1203 0.931 . S
C1223 C1222 1.332 . S
C1223 C1224 1.267 . S
C1224 H1192 0.929 . S
C1224 C1223 1.267 . S
C1224 C1225 1.251 . S
C1225 H1195 0.929 . S
C1225 N1221 1.418 . S
C1225 C1224 1.251 . S
C1226 H1193 0.930 . S
C1226 C1228 1.406 . S
C1226 C1231 1.261 . S
C1227 H1194 0.930 . S
C1227 N1229 1.325 . S
C1227 C1230 1.357 . S
C1228 H1196 0.928 . S
C1228 C1226 1.406 . S
C1228 N1229 1.261 . S
N1229 Co1180 2.214 . S
N1229 C1227 1.325 . S
N1229 C1228 1.261 . S
C1230 H1200 0.931 . S
C1230 C1227 1.357 . S
C1230 C1231 1.312 . S
C1231 H1202 0.930 . S
C1231 C1226 1.261 . S
C1231 C1230 1.312 . S
C1232 O1204 1.214 . S
C1232 O1212 1.234 . S
C1233 H1205 0.929 . S
C1233 C1236 1.391 . S
C1233 C1238 1.391 . S
C1234 H1206 0.929 . S
C1234 C1235 1.390 . S
C1234 N1237 1.391 . S
C1235 H1207 0.930 . S
C1235 C1234 1.390 . S
C1235 C1236 1.392 . S
C1236 H1208 0.929 . S
C1236 C1233 1.391 . S
C1236 C1235 1.392 . S
N1237 Co1181 2.257 . S
N1237 C1234 1.391 . S
N1237 C1238 1.388 . S
C1238 H1209 0.930 . S
C1238 C1233 1.391 . S
C1238 N1237 1.388 . S
Co1239 O1241 2.143 . S
Co1239 O1247 2.074 . S
Co1239 O1250 2.093 . S
Co1239 O1263 2.097 . S
Co1239 N1280 2.151 . S
Co1239 N1288 2.214 . S
Co1240 O1241 2.160 . S
Co1240 O1246 2.058 . S
Co1240 O1256 2.057 1_655 S
Co1240 O1271 2.037 . S
Co1240 N1275 2.145 1_655 S
Co1240 N1296 2.257 1_655 S
O1241 Co1239 2.143 . S
O1241 Co1240 2.160 . S
C1242 O1243 1.278 . S
C1242 O1250 1.224 . S
O1243 C1242 1.278 . S
C1244 O1245 1.245 . S
C1244 O1256 1.232 1_655 S
O1245 C1244 1.245 . S
O1246 Co1240 2.058 . S
O1246 C1272 1.269 . S
O1247 Co1239 2.074 . S
O1247 C1272 1.257 . S
H1248 C1273 0.930 . S
H1249 C1279 0.930 . S
O1250 Co1239 2.093 . S
O1250 C1242 1.224 . S
H1251 C1283 0.929 . S
H1252 C1285 0.930 . S
H1253 C1286 0.930 . S
H1254 C1284 0.929 . S
H1255 C1287 0.928 . S
O1256 Co1240 2.057 1_455 S
O1256 C1244 1.232 1_455 S
H1257 C1276 0.929 . S
H1258 C1277 0.929 . S
H1259 C1289 0.931 . S
H1260 C1281 0.929 . S
H1261 C1290 0.930 . S
H1262 C1282 0.931 . S
O1263 Co1239 2.097 . S
O1263 C1291 1.214 . S
H1264 C1292 0.929 . S
H1265 C1293 0.929 . S
H1266 C1294 0.930 . S
H1267 C1295 0.929 . S
H1268 C1297 0.930 . S
H1269 C1274 0.930 . S
H1270 C1278 0.930 . S
O1271 Co1240 2.037 . S
O1271 C1291 1.234 . S
C1272 O1246 1.269 . S
C1272 O1247 1.257 . S
C1273 H1248 0.930 . S
C1273 C1276 1.388 . S
C1273 C1278 1.418 . S
C1274 H1269 0.930 . S
C1274 C1277 1.404 . S
C1274 C1278 1.353 . S
N1275 Co1240 2.145 1_455 S
N1275 C1276 1.397 . S
N1275 C1277 1.334 . S
C1276 H1257 0.929 . S
C1276 C1273 1.388 . S
C1276 N1275 1.397 . S
C1277 H1258 0.929 . S
C1277 C1274 1.404 . S
C1277 N1275 1.334 . S
C1278 H1270 0.930 . S
C1278 C1273 1.418 . S
C1278 C1274 1.353 . S
C1279 H1249 0.930 . S
C1279 N1280 1.330 . S
C1279 C1281 1.446 . S
N1280 Co1239 2.151 . S
N1280 C1279 1.330 . S
N1280 C1284 1.418 . S
C1281 H1260 0.929 . S
C1281 C1279 1.446 . S
C1281 C1282 1.332 . S
C1282 H1262 0.931 . S
C1282 C1281 1.332 . S
C1282 C1283 1.267 . S
C1283 H1251 0.929 . S
C1283 C1282 1.267 . S
C1283 C1284 1.251 . S
C1284 H1254 0.929 . S
C1284 N1280 1.418 . S
C1284 C1283 1.251 . S
C1285 H1252 0.930 . S
C1285 C1287 1.406 . S
C1285 C1290 1.261 . S
C1286 H1253 0.930 . S
C1286 N1288 1.325 . S
C1286 C1289 1.357 . S
C1287 H1255 0.928 . S
C1287 C1285 1.406 . S
C1287 N1288 1.261 . S
N1288 Co1239 2.214 . S
N1288 C1286 1.325 . S
N1288 C1287 1.261 . S
C1289 H1259 0.931 . S
C1289 C1286 1.357 . S
C1289 C1290 1.312 . S
C1290 H1261 0.930 . S
C1290 C1285 1.261 . S
C1290 C1289 1.312 . S
C1291 O1263 1.214 . S
C1291 O1271 1.234 . S
C1292 H1264 0.929 . S
C1292 C1295 1.391 1_655 S
C1292 C1297 1.391 . S
C1293 H1265 0.929 . S
C1293 C1294 1.390 . S
C1293 N1296 1.391 . S
C1294 H1266 0.930 . S
C1294 C1293 1.390 . S
C1294 C1295 1.392 . S
C1295 H1267 0.929 . S
C1295 C1292 1.391 1_455 S
C1295 C1294 1.392 . S
N1296 Co1240 2.257 1_455 S
N1296 C1293 1.391 . S
N1296 C1297 1.388 1_455 S
C1297 H1268 0.930 . S
C1297 C1292 1.391 . S
C1297 N1296 1.388 1_655 S
Co1298 O1300 2.143 . S
Co1298 O1306 2.074 . S
Co1298 O1309 2.093 . S
Co1298 O1322 2.097 . S
Co1298 N1339 2.151 . S
Co1298 N1347 2.214 . S
Co1299 O1300 2.160 . S
Co1299 O1305 2.058 . S
Co1299 O1315 2.057 1_565 S
Co1299 O1330 2.037 . S
Co1299 N1334 2.145 1_565 S
Co1299 N1355 2.257 1_565 S
O1300 Co1298 2.143 . S
O1300 Co1299 2.160 . S
C1301 O1302 1.278 . S
C1301 O1309 1.224 . S
O1302 C1301 1.278 . S
C1303 O1304 1.245 . S
C1303 O1315 1.232 1_565 S
O1304 C1303 1.245 . S
O1305 Co1299 2.058 . S
O1305 C1331 1.269 . S
O1306 Co1298 2.074 . S
O1306 C1331 1.257 . S
H1307 C1332 0.930 . S
H1308 C1338 0.930 . S
O1309 Co1298 2.093 . S
O1309 C1301 1.224 . S
H1310 C1342 0.929 . S
H1311 C1344 0.930 . S
H1312 C1345 0.930 . S
H1313 C1343 0.929 . S
H1314 C1346 0.928 . S
O1315 Co1299 2.057 1_545 S
O1315 C1303 1.232 1_545 S
H1316 C1335 0.929 . S
H1317 C1336 0.929 . S
H1318 C1348 0.931 . S
H1319 C1340 0.929 . S
H1320 C1349 0.930 . S
H1321 C1341 0.931 . S
O1322 Co1298 2.097 . S
O1322 C1350 1.214 . S
H1323 C1351 0.929 . S
H1324 C1352 0.929 . S
H1325 C1353 0.930 . S
H1326 C1354 0.929 . S
H1327 C1356 0.930 . S
H1328 C1333 0.930 . S
H1329 C1337 0.930 . S
O1330 Co1299 2.037 . S
O1330 C1350 1.234 . S
C1331 O1305 1.269 . S
C1331 O1306 1.257 . S
C1332 H1307 0.930 . S
C1332 C1335 1.388 . S
C1332 C1337 1.418 . S
C1333 H1328 0.930 . S
C1333 C1336 1.404 . S
C1333 C1337 1.353 . S
N1334 Co1299 2.145 1_545 S
N1334 C1335 1.397 . S
N1334 C1336 1.334 . S
C1335 H1316 0.929 . S
C1335 C1332 1.388 . S
C1335 N1334 1.397 . S
C1336 H1317 0.929 . S
C1336 C1333 1.404 . S
C1336 N1334 1.334 . S
C1337 H1329 0.930 . S
C1337 C1332 1.418 . S
C1337 C1333 1.353 . S
C1338 H1308 0.930 . S
C1338 N1339 1.330 . S
C1338 C1340 1.446 . S
N1339 Co1298 2.151 . S
N1339 C1338 1.330 . S
N1339 C1343 1.418 . S
C1340 H1319 0.929 . S
C1340 C1338 1.446 . S
C1340 C1341 1.332 . S
C1341 H1321 0.931 . S
C1341 C1340 1.332 . S
C1341 C1342 1.267 . S
C1342 H1310 0.929 . S
C1342 C1341 1.267 . S
C1342 C1343 1.251 . S
C1343 H1313 0.929 . S
C1343 N1339 1.418 . S
C1343 C1342 1.251 . S
C1344 H1311 0.930 . S
C1344 C1346 1.406 . S
C1344 C1349 1.261 . S
C1345 H1312 0.930 . S
C1345 N1347 1.325 . S
C1345 C1348 1.357 . S
C1346 H1314 0.928 . S
C1346 C1344 1.406 . S
C1346 N1347 1.261 . S
N1347 Co1298 2.214 . S
N1347 C1345 1.325 . S
N1347 C1346 1.261 . S
C1348 H1318 0.931 . S
C1348 C1345 1.357 . S
C1348 C1349 1.312 . S
C1349 H1320 0.930 . S
C1349 C1344 1.261 . S
C1349 C1348 1.312 . S
C1350 O1322 1.214 . S
C1350 O1330 1.234 . S
C1351 H1323 0.929 . S
C1351 C1354 1.391 1_565 S
C1351 C1356 1.391 . S
C1352 H1324 0.929 . S
C1352 C1353 1.390 . S
C1352 N1355 1.391 . S
C1353 H1325 0.930 . S
C1353 C1352 1.390 . S
C1353 C1354 1.392 . S
C1354 H1326 0.929 . S
C1354 C1351 1.391 1_545 S
C1354 C1353 1.392 . S
N1355 Co1299 2.257 1_545 S
N1355 C1352 1.391 . S
N1355 C1356 1.388 1_545 S
C1356 H1327 0.930 . S
C1356 C1351 1.391 . S
C1356 N1355 1.388 1_565 S
Co1357 O1359 2.143 . S
Co1357 O1365 2.074 . S
Co1357 O1368 2.093 . S
Co1357 O1381 2.097 . S
Co1357 N1398 2.151 . S
Co1357 N1406 2.214 . S
Co1358 O1359 2.160 . S
Co1358 O1364 2.058 . S
Co1358 O1374 2.057 . S
Co1358 O1389 2.037 . S
Co1358 N1393 2.145 . S
Co1358 N1414 2.257 . S
O1359 Co1357 2.143 . S
O1359 Co1358 2.160 . S
C1360 O1361 1.278 . S
C1360 O1368 1.224 . S
O1361 C1360 1.278 . S
C1362 O1363 1.245 . S
C1362 O1374 1.232 . S
O1363 C1362 1.245 . S
O1364 Co1358 2.058 . S
O1364 C1390 1.269 . S
O1365 Co1357 2.074 . S
O1365 C1390 1.257 . S
H1366 C1391 0.930 . S
H1367 C1397 0.930 . S
O1368 Co1357 2.093 . S
O1368 C1360 1.224 . S
H1369 C1401 0.929 . S
H1370 C1403 0.930 . S
H1371 C1404 0.930 . S
H1372 C1402 0.929 . S
H1373 C1405 0.928 . S
O1374 Co1358 2.057 . S
O1374 C1362 1.232 . S
H1375 C1394 0.929 . S
H1376 C1395 0.929 . S
H1377 C1407 0.931 . S
H1378 C1399 0.929 . S
H1379 C1408 0.930 . S
H1380 C1400 0.931 . S
O1381 Co1357 2.097 . S
O1381 C1409 1.214 . S
H1382 C1410 0.929 . S
H1383 C1411 0.929 . S
H1384 C1412 0.930 . S
H1385 C1413 0.929 . S
H1386 C1415 0.930 . S
H1387 C1392 0.930 . S
H1388 C1396 0.930 . S
O1389 Co1358 2.037 . S
O1389 C1409 1.234 . S
C1390 O1364 1.269 . S
C1390 O1365 1.257 . S
C1391 H1366 0.930 . S
C1391 C1394 1.388 . S
C1391 C1396 1.418 . S
C1392 H1387 0.930 . S
C1392 C1395 1.404 . S
C1392 C1396 1.353 . S
N1393 Co1358 2.145 . S
N1393 C1394 1.397 . S
N1393 C1395 1.334 . S
C1394 H1375 0.929 . S
C1394 C1391 1.388 . S
C1394 N1393 1.397 . S
C1395 H1376 0.929 . S
C1395 C1392 1.404 . S
C1395 N1393 1.334 . S
C1396 H1388 0.930 . S
C1396 C1391 1.418 . S
C1396 C1392 1.353 . S
C1397 H1367 0.930 . S
C1397 N1398 1.330 . S
C1397 C1399 1.446 . S
N1398 Co1357 2.151 . S
N1398 C1397 1.330 . S
N1398 C1402 1.418 . S
C1399 H1378 0.929 . S
C1399 C1397 1.446 . S
C1399 C1400 1.332 . S
C1400 H1380 0.931 . S
C1400 C1399 1.332 . S
C1400 C1401 1.267 . S
C1401 H1369 0.929 . S
C1401 C1400 1.267 . S
C1401 C1402 1.251 . S
C1402 H1372 0.929 . S
C1402 N1398 1.418 . S
C1402 C1401 1.251 . S
C1403 H1370 0.930 . S
C1403 C1405 1.406 . S
C1403 C1408 1.261 . S
C1404 H1371 0.930 . S
C1404 N1406 1.325 . S
C1404 C1407 1.357 . S
C1405 H1373 0.928 . S
C1405 C1403 1.406 . S
C1405 N1406 1.261 . S
N1406 Co1357 2.214 . S
N1406 C1404 1.325 . S
N1406 C1405 1.261 . S
C1407 H1377 0.931 . S
C1407 C1404 1.357 . S
C1407 C1408 1.312 . S
C1408 H1379 0.930 . S
C1408 C1403 1.261 . S
C1408 C1407 1.312 . S
C1409 O1381 1.214 . S
C1409 O1389 1.234 . S
C1410 H1382 0.929 . S
C1410 C1413 1.391 . S
C1410 C1415 1.391 . S
C1411 H1383 0.929 . S
C1411 C1412 1.390 . S
C1411 N1414 1.391 . S
C1412 H1384 0.930 . S
C1412 C1411 1.390 . S
C1412 C1413 1.392 . S
C1413 H1385 0.929 . S
C1413 C1410 1.391 . S
C1413 C1412 1.392 . S
N1414 Co1358 2.257 . S
N1414 C1411 1.391 . S
N1414 C1415 1.388 . S
C1415 H1386 0.930 . S
C1415 C1410 1.391 . S
C1415 N1414 1.388 . S
C1416 C1417 1.398 . S
C1416 H1420 0.939 1_545 S
C1416 C1425 1.390 . S
C1417 C1416 1.398 . S
C1417 C1419 1.387 . S
H1418 C1425 0.938 1_565 S
C1419 C1417 1.387 . S
C1419 C1421 1.390 . S
C1419 H1423 0.950 . S
H1420 C1416 0.939 1_565 S
C1421 C1419 1.390 . S
C1421 C1422 1.387 . S
C1421 H1424 0.950 . S
C1422 C1421 1.387 . S
C1422 C1425 1.399 . S
H1423 C1419 0.950 . S
H1424 C1421 0.950 . S
C1425 C1416 1.390 . S
C1425 H1418 0.938 1_545 S
C1425 C1422 1.399 . S
C1426 C1427 1.387 . S
C1426 H1430 0.950 . S
C1426 C1435 1.390 . S
C1427 C1426 1.387 . S
C1427 C1429 1.387 . S
H1428 C1435 0.950 . S
C1429 C1427 1.387 . S
C1429 C1431 1.390 . S
C1429 H1433 0.950 . S
H1430 C1426 0.950 . S
C1431 C1429 1.390 . S
C1431 C1432 1.387 . S
C1431 H1434 0.950 . S
C1432 C1431 1.387 . S
C1432 C1435 1.387 . S
H1433 C1429 0.950 . S
H1434 C1431 0.950 . S
C1435 C1426 1.390 . S
C1435 H1428 0.950 . S
C1435 C1432 1.387 . S
C1436 C1437 1.387 . S
C1436 H1440 0.950 . S
C1436 C1445 1.390 . S
C1437 C1436 1.387 . S
C1437 C1439 1.387 . S
H1438 C1445 0.950 . S
C1439 C1437 1.387 . S
C1439 C1441 1.390 . S
C1439 H1443 0.950 . S
H1440 C1436 0.950 . S
C1441 C1439 1.390 . S
C1441 C1442 1.387 . S
C1441 H1444 0.950 . S
C1442 C1441 1.387 . S
C1442 C1445 1.387 . S
H1443 C1439 0.950 . S
H1444 C1441 0.950 . S
C1445 C1436 1.390 . S
C1445 H1438 0.950 . S
C1445 C1442 1.387 . S
C1446 C1447 1.387 . S
C1446 H1450 0.950 . S
C1446 C1455 1.390 . S
C1447 C1446 1.387 . S
C1447 C1449 1.387 . S
H1448 C1455 0.950 . S
C1449 C1447 1.387 . S
C1449 C1451 1.390 . S
C1449 H1453 0.950 . S
H1450 C1446 0.950 . S
C1451 C1449 1.390 . S
C1451 C1452 1.387 . S
C1451 H1454 0.950 . S
C1452 C1451 1.387 . S
C1452 C1455 1.387 . S
H1453 C1449 0.950 . S
H1454 C1451 0.950 . S
C1455 C1446 1.390 . S
C1455 H1448 0.950 . S
C1455 C1452 1.387 . S
C1456 C1457 1.387 . S
C1456 H1460 0.950 . S
C1456 C1465 1.390 . S
C1457 C1456 1.387 . S
C1457 C1459 1.387 . S
H1458 C1465 0.950 . S
C1459 C1457 1.387 . S
C1459 C1461 1.390 . S
C1459 H1463 0.950 . S
H1460 C1456 0.950 . S
C1461 C1459 1.390 . S
C1461 C1462 1.387 . S
C1461 H1464 0.950 . S
C1462 C1461 1.387 . S
C1462 C1465 1.387 . S
H1463 C1459 0.950 . S
H1464 C1461 0.950 . S
C1465 C1456 1.390 . S
C1465 H1458 0.950 . S
C1465 C1462 1.387 . S
C1466 C1467 1.387 . S
C1466 H1470 0.950 . S
C1466 C1475 1.390 . S
C1467 C1466 1.387 . S
C1467 C1469 1.387 . S
H1468 C1475 0.950 . S
C1469 C1467 1.387 . S
C1469 C1471 1.390 . S
C1469 H1473 0.950 . S
H1470 C1466 0.950 . S
C1471 C1469 1.390 . S
C1471 C1472 1.387 . S
C1471 H1474 0.950 . S
C1472 C1471 1.387 . S
C1472 C1475 1.387 . S
H1473 C1469 0.950 . S
H1474 C1471 0.950 . S
C1475 C1466 1.390 . S
C1475 H1468 0.950 . S
C1475 C1472 1.387 . S
C1476 C1477 1.387 . S
C1476 H1480 0.950 . S
C1476 C1485 1.390 . S
C1477 C1476 1.387 . S
C1477 C1479 1.387 . S
H1478 C1485 0.950 . S
C1479 C1477 1.387 . S
C1479 C1481 1.390 . S
C1479 H1483 0.950 . S
H1480 C1476 0.950 . S
C1481 C1479 1.390 . S
C1481 C1482 1.387 . S
C1481 H1484 0.950 . S
C1482 C1481 1.387 . S
C1482 C1485 1.387 . S
H1483 C1479 0.950 . S
H1484 C1481 0.950 . S
C1485 C1476 1.390 . S
C1485 H1478 0.950 . S
C1485 C1482 1.387 . S
C1486 C1487 1.387 . S
C1486 H1490 0.950 1_565 S
C1486 C1495 1.390 . S
C1487 C1486 1.387 . S
C1487 C1489 1.387 . S
H1488 C1495 0.950 1_545 S
C1489 C1487 1.387 . S
C1489 C1491 1.390 . S
C1489 H1493 0.950 . S
H1490 C1486 0.950 1_545 S
C1491 C1489 1.390 . S
C1491 C1492 1.387 . S
C1491 H1494 0.950 . S
C1492 C1491 1.387 . S
C1492 C1495 1.387 . S
H1493 C1489 0.950 . S
H1494 C1491 0.950 . S
C1495 C1486 1.390 . S
C1495 H1488 0.950 1_565 S
C1495 C1492 1.387 . S
C1496 C1497 1.387 . S
C1496 H1500 0.950 . S
C1496 C1505 1.390 . S
C1497 C1496 1.387 . S
C1497 C1499 1.387 . S
H1498 C1505 0.950 . S
C1499 C1497 1.387 . S
C1499 C1501 1.390 . S
C1499 H1503 0.950 . S
H1500 C1496 0.950 . S
C1501 C1499 1.390 . S
C1501 C1502 1.387 . S
C1501 H1504 0.950 . S
C1502 C1501 1.387 . S
C1502 C1505 1.387 . S
H1503 C1499 0.950 . S
H1504 C1501 0.950 . S
C1505 C1496 1.390 . S
C1505 H1498 0.950 . S
C1505 C1502 1.387 . S
C1506 C1507 1.387 . S
C1506 H1510 0.950 . S
C1506 C1515 1.390 . S
C1507 C1506 1.387 . S
C1507 C1509 1.387 . S
H1508 C1515 0.950 . S
C1509 C1507 1.387 . S
C1509 C1511 1.390 . S
C1509 H1513 0.950 1_455 S
H1510 C1506 0.950 . S
C1511 C1509 1.390 . S
C1511 C1512 1.387 . S
C1511 H1514 0.950 1_455 S
C1512 C1511 1.387 . S
C1512 C1515 1.387 . S
H1513 C1509 0.950 1_655 S
H1514 C1511 0.950 1_655 S
C1515 C1506 1.390 . S
C1515 H1508 0.950 . S
C1515 C1512 1.387 . S
C1516 C1517 1.387 . S
C1516 H1520 0.950 . S
C1516 C1525 1.390 . S
C1517 C1516 1.387 . S
C1517 C1519 1.387 . S
H1518 C1525 0.950 . S
C1519 C1517 1.387 . S
C1519 C1521 1.390 . S
C1519 H1523 0.950 . S
H1520 C1516 0.950 . S
C1521 C1519 1.390 . S
C1521 C1522 1.387 . S
C1521 H1524 0.950 . S
C1522 C1521 1.387 . S
C1522 C1525 1.387 . S
H1523 C1519 0.950 . S
H1524 C1521 0.950 . S
C1525 C1516 1.390 . S
C1525 H1518 0.950 . S
C1525 C1522 1.387 . S
C1526 C1527 1.387 . S
C1526 H1530 0.950 . S
C1526 C1535 1.390 . S
C1527 C1526 1.387 . S
C1527 C1529 1.387 . S
H1528 C1535 0.950 . S
C1529 C1527 1.387 . S
C1529 C1531 1.390 . S
C1529 H1533 0.950 . S
H1530 C1526 0.950 . S
C1531 C1529 1.390 . S
C1531 C1532 1.387 . S
C1531 H1534 0.950 . S
C1532 C1531 1.387 . S
C1532 C1535 1.387 . S
H1533 C1529 0.950 . S
H1534 C1531 0.950 . S
C1535 C1526 1.390 . S
C1535 H1528 0.950 . S
C1535 C1532 1.387 . S
C1536 C1537 1.387 . S
C1536 H1540 0.950 . S
C1536 C1545 1.390 . S
C1537 C1536 1.387 . S
C1537 C1539 1.387 . S
H1538 C1545 0.950 . S
C1539 C1537 1.387 . S
C1539 C1541 1.390 . S
C1539 H1543 0.950 . S
H1540 C1536 0.950 . S
C1541 C1539 1.390 . S
C1541 C1542 1.387 . S
C1541 H1544 0.950 . S
C1542 C1541 1.387 . S
C1542 C1545 1.387 . S
H1543 C1539 0.950 . S
H1544 C1541 0.950 . S
C1545 C1536 1.390 . S
C1545 H1538 0.950 . S
C1545 C1542 1.387 . S
C1546 C1547 1.387 . S
C1546 H1550 0.950 . S
C1546 C1555 1.390 . S
C1547 C1546 1.387 . S
C1547 C1549 1.387 . S
H1548 C1555 0.950 . S
C1549 C1547 1.387 . S
C1549 C1551 1.390 . S
C1549 H1553 0.950 . S
H1550 C1546 0.950 . S
C1551 C1549 1.390 . S
C1551 C1552 1.387 . S
C1551 H1554 0.950 . S
C1552 C1551 1.387 . S
C1552 C1555 1.387 . S
H1553 C1549 0.950 . S
H1554 C1551 0.950 . S
C1555 C1546 1.390 . S
C1555 H1548 0.950 . S
C1555 C1552 1.387 . S
C1556 C1557 1.387 . S
C1556 H1560 0.950 . S
C1556 C1565 1.390 . S
C1557 C1556 1.387 . S
C1557 C1559 1.387 . S
H1558 C1565 0.950 . S
C1559 C1557 1.387 . S
C1559 C1561 1.390 . S
C1559 H1563 0.950 . S
H1560 C1556 0.950 . S
C1561 C1559 1.390 . S
C1561 C1562 1.387 . S
C1561 H1564 0.950 . S
C1562 C1561 1.387 . S
C1562 C1565 1.387 . S
H1563 C1559 0.950 . S
H1564 C1561 0.950 . S
C1565 C1556 1.390 . S
C1565 H1558 0.950 . S
C1565 C1562 1.387 . S
C1566 C1567 1.387 . S
C1566 H1570 0.950 . S
C1566 C1575 1.390 . S
C1567 C1566 1.387 . S
C1567 C1569 1.387 . S
H1568 C1575 0.950 . S
C1569 C1567 1.387 . S
C1569 C1571 1.390 . S
C1569 H1573 0.950 . S
H1570 C1566 0.950 . S
C1571 C1569 1.390 . S
C1571 C1572 1.387 . S
C1571 H1574 0.950 . S
C1572 C1571 1.387 . S
C1572 C1575 1.387 . S
H1573 C1569 0.950 . S
H1574 C1571 0.950 . S
C1575 C1566 1.390 . S
C1575 H1568 0.950 . S
C1575 C1572 1.387 . S
C1576 C1577 1.387 . S
C1576 H1580 0.950 . S
C1576 C1585 1.390 . S
C1577 C1576 1.387 . S
C1577 C1579 1.387 . S
H1578 C1585 0.950 . S
C1579 C1577 1.387 . S
C1579 C1581 1.390 . S
C1579 H1583 0.950 . S
H1580 C1576 0.950 . S
C1581 C1579 1.390 . S
C1581 C1582 1.387 . S
C1581 H1584 0.950 . S
C1582 C1581 1.387 . S
C1582 C1585 1.387 . S
H1583 C1579 0.950 . S
H1584 C1581 0.950 . S
C1585 C1576 1.390 . S
C1585 H1578 0.950 . S
C1585 C1582 1.387 . S
C1586 C1587 1.387 . S
C1586 H1590 0.950 . S
C1586 C1595 1.390 . S
C1587 C1586 1.387 . S
C1587 C1589 1.387 . S
H1588 C1595 0.950 . S
C1589 C1587 1.387 . S
C1589 C1591 1.390 . S
C1589 H1593 0.950 . S
H1590 C1586 0.950 . S
C1591 C1589 1.390 . S
C1591 C1592 1.387 . S
C1591 H1594 0.950 . S
C1592 C1591 1.387 . S
C1592 C1595 1.387 . S
H1593 C1589 0.950 . S
H1594 C1591 0.950 . S
C1595 C1586 1.390 . S
C1595 H1588 0.950 . S
C1595 C1592 1.387 . S
C1596 C1597 1.387 . S
C1596 H1600 0.950 . S
C1596 C1605 1.390 . S
C1597 C1596 1.387 . S
C1597 C1599 1.387 . S
H1598 C1605 0.950 . S
C1599 C1597 1.387 . S
C1599 C1601 1.390 . S
C1599 H1603 0.950 . S
H1600 C1596 0.950 . S
C1601 C1599 1.390 . S
C1601 C1602 1.387 . S
C1601 H1604 0.950 . S
C1602 C1601 1.387 . S
C1602 C1605 1.387 . S
H1603 C1599 0.950 . S
H1604 C1601 0.950 . S
C1605 C1596 1.390 . S
C1605 H1598 0.950 . S
C1605 C1602 1.387 . S
C1606 C1607 1.387 . S
C1606 H1610 0.950 . S
C1606 C1615 1.390 . S
C1607 C1606 1.387 . S
C1607 C1609 1.387 . S
H1608 C1615 0.950 . S
C1609 C1607 1.387 . S
C1609 C1611 1.390 . S
C1609 H1613 0.950 . S
H1610 C1606 0.950 . S
C1611 C1609 1.390 . S
C1611 C1612 1.387 . S
C1611 H1614 0.950 . S
C1612 C1611 1.387 . S
C1612 C1615 1.387 . S
H1613 C1609 0.950 . S
H1614 C1611 0.950 . S
C1615 C1606 1.390 . S
C1615 H1608 0.950 . S
C1615 C1612 1.387 . S
C1616 C1617 1.387 . S
C1616 H1620 0.950 . S
C1616 C1625 1.390 . S
C1617 C1616 1.387 . S
C1617 C1619 1.387 . S
H1618 C1625 0.950 . S
C1619 C1617 1.387 . S
C1619 C1621 1.390 . S
C1619 H1623 0.950 . S
H1620 C1616 0.950 . S
C1621 C1619 1.390 . S
C1621 C1622 1.387 . S
C1621 H1624 0.950 . S
C1622 C1621 1.387 . S
C1622 C1625 1.387 . S
H1623 C1619 0.950 . S
H1624 C1621 0.950 . S
C1625 C1616 1.390 . S
C1625 H1618 0.950 . S
C1625 C1622 1.387 . S
C1626 C1627 1.387 . S
C1626 H1630 0.950 . S
C1626 C1635 1.390 . S
C1627 C1626 1.387 . S
C1627 C1629 1.387 . S
H1628 C1635 0.950 . S
C1629 C1627 1.387 . S
C1629 C1631 1.390 . S
C1629 H1633 0.950 . S
H1630 C1626 0.950 . S
C1631 C1629 1.390 . S
C1631 C1632 1.387 . S
C1631 H1634 0.950 . S
C1632 C1631 1.387 . S
C1632 C1635 1.387 . S
H1633 C1629 0.950 . S
H1634 C1631 0.950 . S
C1635 C1626 1.390 . S
C1635 H1628 0.950 . S
C1635 C1632 1.387 . S
C1636 C1637 1.387 . S
C1636 H1640 0.950 . S
C1636 C1645 1.390 . S
C1637 C1636 1.387 . S
C1637 C1639 1.387 . S
H1638 C1645 0.950 . S
C1639 C1637 1.387 . S
C1639 C1641 1.390 . S
C1639 H1643 0.950 . S
H1640 C1636 0.950 . S
C1641 C1639 1.390 . S
C1641 C1642 1.387 . S
C1641 H1644 0.950 . S
C1642 C1641 1.387 . S
C1642 C1645 1.387 . S
H1643 C1639 0.950 . S
H1644 C1641 0.950 . S
C1645 C1636 1.390 . S
C1645 H1638 0.950 . S
C1645 C1642 1.387 . S
C1646 C1647 1.387 . S
C1646 H1650 0.950 . S
C1646 C1655 1.390 . S
C1647 C1646 1.387 . S
C1647 C1649 1.387 . S
H1648 C1655 0.950 . S
C1649 C1647 1.387 . S
C1649 C1651 1.390 . S
C1649 H1653 0.950 . S
H1650 C1646 0.950 . S
C1651 C1649 1.390 . S
C1651 C1652 1.387 . S
C1651 H1654 0.950 . S
C1652 C1651 1.387 . S
C1652 C1655 1.387 . S
H1653 C1649 0.950 . S
H1654 C1651 0.950 . S
C1655 C1646 1.390 . S
C1655 H1648 0.950 . S
C1655 C1652 1.387 . S
C1656 C1657 1.390 . S
C1656 H1660 0.951 . S
C1656 C1665 1.390 1_566 S
C1657 C1656 1.390 . S
C1657 C1659 1.373 . S
H1658 C1665 0.966 . S
C1659 C1657 1.373 . S
C1659 C1661 1.390 1_566 S
C1659 H1663 0.966 . S
H1660 C1656 0.951 . S
C1661 C1659 1.390 1_544 S
C1661 C1662 1.390 . S
C1661 H1664 0.951 . S
C1662 C1661 1.390 . S
C1662 C1665 1.373 . S
H1663 C1659 0.966 . S
H1664 C1661 0.951 . S
C1665 C1656 1.390 1_544 S
C1665 H1658 0.966 . S
C1665 C1662 1.373 . S
C1666 C1667 1.387 . S
C1666 H1670 0.950 . S
C1666 C1675 1.390 . S
C1667 C1666 1.387 . S
C1667 C1669 1.387 . S
H1668 C1675 0.950 . S
C1669 C1667 1.387 . S
C1669 C1671 1.390 . S
C1669 H1673 0.950 . S
H1670 C1666 0.950 . S
C1671 C1669 1.390 . S
C1671 C1672 1.387 . S
C1671 H1674 0.950 . S
C1672 C1671 1.387 . S
C1672 C1675 1.387 . S
H1673 C1669 0.950 . S
H1674 C1671 0.950 . S
C1675 C1666 1.390 . S
C1675 H1668 0.950 . S
C1675 C1672 1.387 . S
C1676 C1677 1.387 . S
C1676 H1680 0.950 . S
C1676 C1685 1.390 1_556 S
C1677 C1676 1.387 . S
C1677 C1679 1.387 1_455 S
H1678 C1685 0.950 . S
C1679 C1677 1.387 1_655 S
C1679 C1681 1.390 1_556 S
C1679 H1683 0.950 . S
H1680 C1676 0.950 . S
C1681 C1679 1.390 1_554 S
C1681 C1682 1.387 . S
C1681 H1684 0.950 . S
C1682 C1681 1.387 . S
C1682 C1685 1.387 1_655 S
H1683 C1679 0.950 . S
H1684 C1681 0.950 . S
C1685 C1676 1.390 1_554 S
C1685 H1678 0.950 . S
C1685 C1682 1.387 1_455 S
C1686 C1687 1.378 . S
C1686 H1690 0.961 . S
C1686 C1695 1.389 1_545 S
C1687 C1686 1.378 . S
C1687 C1689 1.405 . S
H1688 C1695 0.935 . S
C1689 C1687 1.405 . S
C1689 C1691 1.389 1_545 S
C1689 H1693 0.935 . S
H1690 C1686 0.961 . S
C1691 C1689 1.389 1_565 S
C1691 C1692 1.378 . S
C1691 H1694 0.961 . S
C1692 C1691 1.378 . S
C1692 C1695 1.405 . S
H1693 C1689 0.935 . S
H1694 C1691 0.961 . S
C1695 C1686 1.389 1_565 S
C1695 H1688 0.935 . S
C1695 C1692 1.405 . S
C1696 C1697 1.387 . S
C1696 H1700 0.950 . S
C1696 C1705 1.390 1_554 S
C1697 C1696 1.387 . S
C1697 C1699 1.387 . S
H1698 C1705 0.950 . S
C1699 C1697 1.387 . S
C1699 C1701 1.390 1_554 S
C1699 H1703 0.950 . S
H1700 C1696 0.950 . S
C1701 C1699 1.390 1_556 S
C1701 C1702 1.387 . S
C1701 H1704 0.950 . S
C1702 C1701 1.387 . S
C1702 C1705 1.387 . S
H1703 C1699 0.950 . S
H1704 C1701 0.950 . S
C1705 C1696 1.390 1_556 S
C1705 H1698 0.950 . S
C1705 C1702 1.387 . S
C1706 C1707 1.387 . S
C1706 H1710 0.950 . S
C1706 C1715 1.390 . S
C1707 C1706 1.387 . S
C1707 C1709 1.387 1_455 S
H1708 C1715 0.950 . S
C1709 C1707 1.387 1_655 S
C1709 C1711 1.390 . S
C1709 H1713 0.950 . S
H1710 C1706 0.950 . S
C1711 C1709 1.390 . S
C1711 C1712 1.387 . S
C1711 H1714 0.950 . S
C1712 C1711 1.387 . S
C1712 C1715 1.387 1_655 S
H1713 C1709 0.950 . S
H1714 C1711 0.950 . S
C1715 C1706 1.390 . S
C1715 H1708 0.950 . S
C1715 C1712 1.387 1_455 S
C1716 C1717 1.387 1_545 S
C1716 H1720 0.950 . S
C1716 C1725 1.390 1_556 S
C1717 C1716 1.387 1_565 S
C1717 C1719 1.387 . S
H1718 C1725 0.950 . S
C1719 C1717 1.387 . S
C1719 C1721 1.390 1_556 S
C1719 H1723 0.950 . S
H1720 C1716 0.950 . S
C1721 C1719 1.390 1_554 S
C1721 C1722 1.387 1_565 S
C1721 H1724 0.950 . S
C1722 C1721 1.387 1_545 S
C1722 C1725 1.387 . S
H1723 C1719 0.950 . S
H1724 C1721 0.950 . S
C1725 C1716 1.390 1_554 S
C1725 H1718 0.950 . S
C1725 C1722 1.387 . S
C1726 C1727 1.387 . S
C1726 H1730 0.950 . S
C1726 C1735 1.390 . S
C1727 C1726 1.387 . S
C1727 C1729 1.387 . S
H1728 C1735 0.950 . S
C1729 C1727 1.387 . S
C1729 C1731 1.390 . S
C1729 H1733 0.950 . S
H1730 C1726 0.950 . S
C1731 C1729 1.390 . S
C1731 C1732 1.387 . S
C1731 H1734 0.950 . S
C1732 C1731 1.387 . S
C1732 C1735 1.387 . S
H1733 C1729 0.950 . S
H1734 C1731 0.950 . S
C1735 C1726 1.390 . S
C1735 H1728 0.950 . S
C1735 C1732 1.387 . S
C1736 C1737 1.387 1_455 S
C1736 H1740 0.950 . S
C1736 C1745 1.390 1_554 S
C1737 C1736 1.387 1_655 S
C1737 C1739 1.387 . S
H1738 C1745 0.950 . S
C1739 C1737 1.387 . S
C1739 C1741 1.390 1_554 S
C1739 H1743 0.950 . S
H1740 C1736 0.950 . S
C1741 C1739 1.390 1_556 S
C1741 C1742 1.387 1_655 S
C1741 H1744 0.950 . S
C1742 C1741 1.387 1_455 S
C1742 C1745 1.387 . S
H1743 C1739 0.950 . S
H1744 C1741 0.950 . S
C1745 C1736 1.390 1_556 S
C1745 H1738 0.950 . S
C1745 C1742 1.387 . S
C1746 C1747 1.387 . S
C1746 H1750 0.950 . S
C1746 C1755 1.390 1_565 S
C1747 C1746 1.387 . S
C1747 C1749 1.405 . S
H1748 C1755 0.934 . S
C1749 C1747 1.405 . S
C1749 C1751 1.390 1_565 S
C1749 H1753 0.934 . S
H1750 C1746 0.950 . S
C1751 C1749 1.390 1_545 S
C1751 C1752 1.387 . S
C1751 H1754 0.950 . S
C1752 C1751 1.387 . S
C1752 C1755 1.405 . S
H1753 C1749 0.934 . S
H1754 C1751 0.950 . S
C1755 C1746 1.390 1_545 S
C1755 H1748 0.934 . S
C1755 C1752 1.405 . S
C1756 C1757 1.387 . S
C1756 H1760 0.950 . S
C1756 C1765 1.390 1_554 S
C1757 C1756 1.387 . S
C1757 C1759 1.387 . S
H1758 C1765 0.950 . S
C1759 C1757 1.387 . S
C1759 C1761 1.390 1_554 S
C1759 H1763 0.950 . S
H1760 C1756 0.950 . S
C1761 C1759 1.390 1_556 S
C1761 C1762 1.387 . S
C1761 H1764 0.950 . S
C1762 C1761 1.387 . S
C1762 C1765 1.387 . S
H1763 C1759 0.950 . S
H1764 C1761 0.950 . S
C1765 C1756 1.390 1_556 S
C1765 H1758 0.950 . S
C1765 C1762 1.387 . S
C1766 C1767 1.387 1_655 S
C1766 H1770 0.950 . S
C1766 C1775 1.390 . S
C1767 C1766 1.387 1_455 S
C1767 C1769 1.387 . S
H1768 C1775 0.950 . S
C1769 C1767 1.387 . S
C1769 C1771 1.390 . S
C1769 H1773 0.950 . S
H1770 C1766 0.950 . S
C1771 C1769 1.390 . S
C1771 C1772 1.387 1_455 S
C1771 H1774 0.950 . S
C1772 C1771 1.387 1_655 S
C1772 C1775 1.387 . S
H1773 C1769 0.950 . S
H1774 C1771 0.950 . S
C1775 C1766 1.390 . S
C1775 H1768 0.950 . S
C1775 C1772 1.387 . S
C1776 C1777 1.387 . S
C1776 H1780 0.950 . S
C1776 C1785 1.390 . S
C1777 C1776 1.387 . S
C1777 C1779 1.387 . S
H1778 C1785 0.950 . S
C1779 C1777 1.387 . S
C1779 C1781 1.390 . S
C1779 H1783 0.950 . S
H1780 C1776 0.950 . S
C1781 C1779 1.390 . S
C1781 C1782 1.387 . S
C1781 H1784 0.950 . S
C1782 C1781 1.387 . S
C1782 C1785 1.387 . S
H1783 C1779 0.950 . S
H1784 C1781 0.950 . S
C1785 C1776 1.390 . S
C1785 H1778 0.950 . S
C1785 C1782 1.387 . S
C1786 C1787 1.387 . S
C1786 H1790 0.950 . S
C1786 C1795 1.390 . S
C1787 C1786 1.387 . S
C1787 C1789 1.387 . S
H1788 C1795 0.950 . S
C1789 C1787 1.387 . S
C1789 C1791 1.390 . S
C1789 H1793 0.950 . S
H1790 C1786 0.950 . S
C1791 C1789 1.390 . S
C1791 C1792 1.387 . S
C1791 H1794 0.950 . S
C1792 C1791 1.387 . S
C1792 C1795 1.387 . S
H1793 C1789 0.950 . S
H1794 C1791 0.950 . S
C1795 C1786 1.390 . S
C1795 H1788 0.950 . S
C1795 C1792 1.387 . S
C1796 C1797 1.387 . S
C1796 H1800 0.950 . S
C1796 C1805 1.390 . S
C1797 C1796 1.387 . S
C1797 C1799 1.387 . S
H1798 C1805 0.950 . S
C1799 C1797 1.387 . S
C1799 C1801 1.390 . S
C1799 H1803 0.950 . S
H1800 C1796 0.950 . S
C1801 C1799 1.390 . S
C1801 C1802 1.387 . S
C1801 H1804 0.950 . S
C1802 C1801 1.387 . S
C1802 C1805 1.387 . S
H1803 C1799 0.950 . S
H1804 C1801 0.950 . S
C1805 C1796 1.390 . S
C1805 H1798 0.950 . S
C1805 C1802 1.387 . S
C1806 C1807 1.387 . S
C1806 H1810 0.950 . S
C1806 C1815 1.390 . S
C1807 C1806 1.387 . S
C1807 C1809 1.387 . S
H1808 C1815 0.950 . S
C1809 C1807 1.387 . S
C1809 C1811 1.390 . S
C1809 H1813 0.950 1_565 S
H1810 C1806 0.950 . S
C1811 C1809 1.390 . S
C1811 C1812 1.387 . S
C1811 H1814 0.950 1_565 S
C1812 C1811 1.387 . S
C1812 C1815 1.387 . S
H1813 C1809 0.950 1_545 S
H1814 C1811 0.950 1_545 S
C1815 C1806 1.390 . S
C1815 H1808 0.950 . S
C1815 C1812 1.387 . S
C1816 C1817 1.387 . S
C1816 H1820 0.950 . S
C1816 C1825 1.390 . S
C1817 C1816 1.387 . S
C1817 C1819 1.387 . S
H1818 C1825 0.950 . S
C1819 C1817 1.387 . S
C1819 C1821 1.390 . S
C1819 H1823 0.950 . S
H1820 C1816 0.950 . S
C1821 C1819 1.390 . S
C1821 C1822 1.387 . S
C1821 H1824 0.950 . S
C1822 C1821 1.387 . S
C1822 C1825 1.387 . S
H1823 C1819 0.950 . S
H1824 C1821 0.950 . S
C1825 C1816 1.390 . S
C1825 H1818 0.950 . S
C1825 C1822 1.387 . S
C1826 C1827 1.387 . S
C1826 H1830 0.950 . S
C1826 C1835 1.390 . S
C1827 C1826 1.387 . S
C1827 C1829 1.387 . S
H1828 C1835 0.950 . S
C1829 C1827 1.387 . S
C1829 C1831 1.390 . S
C1829 H1833 0.950 . S
H1830 C1826 0.950 . S
C1831 C1829 1.390 . S
C1831 C1832 1.387 . S
C1831 H1834 0.950 . S
C1832 C1831 1.387 . S
C1832 C1835 1.387 . S
H1833 C1829 0.950 . S
H1834 C1831 0.950 . S
C1835 C1826 1.390 . S
C1835 H1828 0.950 . S
C1835 C1832 1.387 . S
C1836 C1837 1.387 . S
C1836 H1840 0.950 . S
C1836 C1845 1.390 . S
C1837 C1836 1.387 . S
C1837 C1839 1.387 . S
H1838 C1845 0.950 . S
C1839 C1837 1.387 . S
C1839 C1841 1.390 . S
C1839 H1843 0.950 . S
H1840 C1836 0.950 . S
C1841 C1839 1.390 . S
C1841 C1842 1.387 . S
C1841 H1844 0.950 . S
C1842 C1841 1.387 . S
C1842 C1845 1.387 . S
H1843 C1839 0.950 . S
H1844 C1841 0.950 . S
C1845 C1836 1.390 . S
C1845 H1838 0.950 . S
C1845 C1842 1.387 . S
C1846 C1847 1.387 . S
C1846 H1850 0.950 . S
C1846 C1855 1.390 . S
C1847 C1846 1.387 . S
C1847 C1849 1.387 . S
H1848 C1855 0.950 . S
C1849 C1847 1.387 . S
C1849 C1851 1.390 . S
C1849 H1853 0.950 . S
H1850 C1846 0.950 . S
C1851 C1849 1.390 . S
C1851 C1852 1.387 . S
C1851 H1854 0.950 . S
C1852 C1851 1.387 . S
C1852 C1855 1.387 . S
H1853 C1849 0.950 . S
H1854 C1851 0.950 . S
C1855 C1846 1.390 . S
C1855 H1848 0.950 . S
C1855 C1852 1.387 . S
C1856 C1857 1.387 . S
C1856 H1860 0.950 . S
C1856 C1865 1.390 . S
C1857 C1856 1.387 . S
C1857 C1859 1.387 . S
H1858 C1865 0.950 . S
C1859 C1857 1.387 . S
C1859 C1861 1.390 . S
C1859 H1863 0.950 . S
H1860 C1856 0.950 . S
C1861 C1859 1.390 . S
C1861 C1862 1.387 . S
C1861 H1864 0.950 . S
C1862 C1861 1.387 . S
C1862 C1865 1.387 . S
H1863 C1859 0.950 . S
H1864 C1861 0.950 . S
C1865 C1856 1.390 . S
C1865 H1858 0.950 . S
C1865 C1862 1.387 . S
C1866 C1867 1.387 . S
C1866 H1870 0.950 . S
C1866 C1875 1.390 . S
C1867 C1866 1.387 . S
C1867 C1869 1.387 . S
H1868 C1875 0.950 . S
C1869 C1867 1.387 . S
C1869 C1871 1.390 . S
C1869 H1873 0.950 . S
H1870 C1866 0.950 . S
C1871 C1869 1.390 . S
C1871 C1872 1.387 . S
C1871 H1874 0.950 . S
C1872 C1871 1.387 . S
C1872 C1875 1.387 . S
H1873 C1869 0.950 . S
H1874 C1871 0.950 . S
C1875 C1866 1.390 . S
C1875 H1868 0.950 . S
C1875 C1872 1.387 . S
C1876 C1877 1.387 . S
C1876 H1880 0.950 . S
C1876 C1885 1.390 . S
C1877 C1876 1.387 . S
C1877 C1879 1.387 . S
H1878 C1885 0.950 . S
C1879 C1877 1.387 . S
C1879 C1881 1.390 . S
C1879 H1883 0.950 . S
H1880 C1876 0.950 . S
C1881 C1879 1.390 . S
C1881 C1882 1.387 . S
C1881 H1884 0.950 . S
C1882 C1881 1.387 . S
C1882 C1885 1.387 . S
H1883 C1879 0.950 . S
H1884 C1881 0.950 . S
C1885 C1876 1.390 . S
C1885 H1878 0.950 . S
C1885 C1882 1.387 . S
C1886 C1887 1.387 . S
C1886 H1890 0.950 . S
C1886 C1895 1.390 . S
C1887 C1886 1.387 . S
C1887 C1889 1.387 . S
H1888 C1895 0.950 . S
C1889 C1887 1.387 . S
C1889 C1891 1.390 . S
C1889 H1893 0.950 . S
H1890 C1886 0.950 . S
C1891 C1889 1.390 . S
C1891 C1892 1.387 . S
C1891 H1894 0.950 . S
C1892 C1891 1.387 . S
C1892 C1895 1.387 . S
H1893 C1889 0.950 . S
H1894 C1891 0.950 . S
C1895 C1886 1.390 . S
C1895 H1888 0.950 . S
C1895 C1892 1.387 . S
C1417 C937 1.358 . S
C1422 C52 1.358 . S
C1427 C111 1.359 . S
C1432 C996 1.357 . S
C1437 C170 1.358 . S
C1442 C1055 1.357 . S
C1447 C229 1.357 . S
C1452 C760 1.359 . S
C1457 C819 1.358 . S
C1462 C288 1.359 . S
C1467 C347 1.357 . S
C1472 C878 1.359 . S
C1477 C1291 1.359 . S
C1482 C406 1.357 . S
C1487 C465 1.358 . S
C1492 C1350 1.357 . S
C1497 C524 1.359 . S
C1502 C1409 1.357 . S
C1507 C1114 1.359 . S
C1512 C583 1.358 . S
C1517 C642 1.357 . S
C1522 C1173 1.359 . S
C1527 C1232 1.359 . S
C1532 C701 1.357 . S
C1537 C3 1.681 . S
C1542 C1360 1.682 . S
C1547 C1065 1.681 . S
C1552 C62 1.682 . S
C1557 C121 1.682 . S
C1562 C1124 1.681 . S
C1567 C1183 1.682 . S
C1572 C180 1.681 . S
C1577 C239 1.681 . S
C1582 C1242 1.682 . S
C1587 C1301 1.681 . S
C1592 C298 1.682 . S
C1597 C357 1.681 . S
C1602 C770 1.682 . S
C1607 C829 1.682 . S
C1612 C416 1.681 . S
C1617 C888 1.681 . S
C1622 C475 1.682 . S
C1627 C947 1.681 . S
C1632 C534 1.682 . S
C1637 C593 1.682 . S
C1642 C1006 1.681 . S
C1647 C652 1.682 . S
C1652 C711 1.681 . S
C1657 C418 1.465 . S
C1662 C5 1.465 . S
C1667 C477 1.462 . S
C1672 C64 1.464 . S
C1677 C536 1.463 . S
C1682 C123 1.462 . S
C1687 C595 1.462 . S
C1692 C182 1.462 . S
C1697 C241 1.464 . S
C1702 C654 1.465 . S
C1707 C300 1.465 . S
C1712 C359 1.464 . S
C1717 C713 1.463 . S
C1722 C1126 1.462 . S
C1727 C772 1.464 . S
C1732 C1185 1.465 . S
C1737 C1244 1.463 . S
C1742 C831 1.462 . S
C1747 C1303 1.465 . S
C1752 C890 1.465 . S
C1757 C1362 1.462 . S
C1762 C949 1.463 . S
C1767 C1067 1.463 . S
C1772 C1008 1.462 . S
C1777 C33 1.774 . S
C1782 C1154 1.773 . S
C1787 C1213 1.774 . S
C1792 C92 1.773 . S
C1797 C151 1.773 . S
C1802 C1272 1.774 . S
C1807 C1331 1.774 . S
C1812 C210 1.774 . S
C1817 C269 1.774 . S
C1822 C1390 1.773 . S
C1827 C1095 1.773 . S
C1832 C328 1.774 . S
C1837 C387 1.773 . S
C1842 C1036 1.774 . S
C1847 C741 1.773 . S
C1852 C446 1.774 . S
C1857 C505 1.774 . S
C1862 C800 1.773 . S
C1867 C564 1.774 . S
C1872 C859 1.773 . S
C1877 C623 1.773 . S
C1882 C918 1.774 . S
C1887 C682 1.774 . S
C1892 C977 1.773 . S
