# Generated by pormake.
# Topology yft, (5)-cn, num edge types: 1
# Building blocks:
#     Node 0, Type 0, BuildingBlock: XOMCOT_clean_sbu_0, # of connection points: 5
#     Node 1, Type 0, BuildingBlock: XOMCOT_clean_sbu_0, # of connection points: 5
#     Node 2, Type 0, BuildingBlock: XOMCOT_clean_sbu_0, # of connection points: 5
#     Node 3, Type 0, BuildingBlock: XOMCOT_clean_sbu_0, # of connection points: 5
#     Node 4, Type 0, BuildingBlock: XOMCOT_clean_sbu_0, # of connection points: 5
#     Node 5, Type 0, BuildingBlock: XOMCOT_clean_sbu_0, # of connection points: 5
#     Node 6, Type 0, BuildingBlock: XOMCOT_clean_sbu_0, # of connection points: 5
#     Node 7, Type 0, BuildingBlock: XOMCOT_clean_sbu_0, # of connection points: 5
#     Node 8, Type 0, BuildingBlock: XOMCOT_clean_sbu_0, # of connection points: 5
#     Node 9, Type 0, BuildingBlock: XOMCOT_clean_sbu_0, # of connection points: 5
#     Node 10, Type 0, BuildingBlock: XOMCOT_clean_sbu_0, # of connection points: 5
#     Node 11, Type 0, BuildingBlock: XOMCOT_clean_sbu_0, # of connection points: 5
#     Node 12, Type 0, BuildingBlock: XOMCOT_clean_sbu_0, # of connection points: 5
#     Node 13, Type 0, BuildingBlock: XOMCOT_clean_sbu_0, # of connection points: 5
#     Node 14, Type 0, BuildingBlock: XOMCOT_clean_sbu_0, # of connection points: 5
#     Node 15, Type 0, BuildingBlock: XOMCOT_clean_sbu_0, # of connection points: 5
#     Node 16, Type 0, BuildingBlock: XOMCOT_clean_sbu_0, # of connection points: 5
#     Node 17, Type 0, BuildingBlock: XOMCOT_clean_sbu_0, # of connection points: 5
#     Node 18, Type 0, BuildingBlock: XOMCOT_clean_sbu_0, # of connection points: 5
#     Node 19, Type 0, BuildingBlock: XOMCOT_clean_sbu_0, # of connection points: 5
#     Node 20, Type 0, BuildingBlock: XOMCOT_clean_sbu_0, # of connection points: 5
#     Node 21, Type 0, BuildingBlock: XOMCOT_clean_sbu_0, # of connection points: 5
#     Node 22, Type 0, BuildingBlock: XOMCOT_clean_sbu_0, # of connection points: 5
#     Node 23, Type 0, BuildingBlock: XOMCOT_clean_sbu_0, # of connection points: 5
#     Node 24, Type 0, BuildingBlock: XOMCOT_clean_sbu_0, # of connection points: 5
#     Node 25, Type 0, BuildingBlock: XOMCOT_clean_sbu_0, # of connection points: 5
#     Node 26, Type 0, BuildingBlock: XOMCOT_clean_sbu_0, # of connection points: 5
#     Node 27, Type 0, BuildingBlock: XOMCOT_clean_sbu_0, # of connection points: 5
#     Node 28, Type 0, BuildingBlock: XOMCOT_clean_sbu_0, # of connection points: 5
#     Node 29, Type 0, BuildingBlock: XOMCOT_clean_sbu_0, # of connection points: 5
#     Node 30, Type 0, BuildingBlock: XOMCOT_clean_sbu_0, # of connection points: 5
#     Node 31, Type 0, BuildingBlock: XOMCOT_clean_sbu_0, # of connection points: 5
#     Edge 32, Type (0, 0), BuildingBlock: CIFDUS_clean_linker_0, # of connection points: 2
#     Edge 33, Type (0, 0), BuildingBlock: CIFDUS_clean_linker_0, # of connection points: 2
#     Edge 34, Type (0, 0), BuildingBlock: CIFDUS_clean_linker_0, # of connection points: 2
#     Edge 35, Type (0, 0), BuildingBlock: CIFDUS_clean_linker_0, # of connection points: 2
#     Edge 36, Type (0, 0), BuildingBlock: CIFDUS_clean_linker_0, # of connection points: 2
#     Edge 37, Type (0, 0), BuildingBlock: CIFDUS_clean_linker_0, # of connection points: 2
#     Edge 38, Type (0, 0), BuildingBlock: CIFDUS_clean_linker_0, # of connection points: 2
#     Edge 39, Type (0, 0), BuildingBlock: CIFDUS_clean_linker_0, # of connection points: 2
#     Edge 40, Type (0, 0), BuildingBlock: CIFDUS_clean_linker_0, # of connection points: 2
#     Edge 41, Type (0, 0), BuildingBlock: CIFDUS_clean_linker_0, # of connection points: 2
#     Edge 42, Type (0, 0), BuildingBlock: CIFDUS_clean_linker_0, # of connection points: 2
#     Edge 43, Type (0, 0), BuildingBlock: CIFDUS_clean_linker_0, # of connection points: 2
#     Edge 44, Type (0, 0), BuildingBlock: CIFDUS_clean_linker_0, # of connection points: 2
#     Edge 45, Type (0, 0), BuildingBlock: CIFDUS_clean_linker_0, # of connection points: 2
#     Edge 46, Type (0, 0), BuildingBlock: CIFDUS_clean_linker_0, # of connection points: 2
#     Edge 47, Type (0, 0), BuildingBlock: CIFDUS_clean_linker_0, # of connection points: 2
#     Edge 48, Type (0, 0), BuildingBlock: CIFDUS_clean_linker_0, # of connection points: 2
#     Edge 49, Type (0, 0), BuildingBlock: CIFDUS_clean_linker_0, # of connection points: 2
#     Edge 50, Type (0, 0), BuildingBlock: CIFDUS_clean_linker_0, # of connection points: 2
#     Edge 51, Type (0, 0), BuildingBlock: CIFDUS_clean_linker_0, # of connection points: 2
#     Edge 52, Type (0, 0), BuildingBlock: CIFDUS_clean_linker_0, # of connection points: 2
#     Edge 53, Type (0, 0), BuildingBlock: CIFDUS_clean_linker_0, # of connection points: 2
#     Edge 54, Type (0, 0), BuildingBlock: CIFDUS_clean_linker_0, # of connection points: 2
#     Edge 55, Type (0, 0), BuildingBlock: CIFDUS_clean_linker_0, # of connection points: 2
#     Edge 56, Type (0, 0), BuildingBlock: CIFDUS_clean_linker_0, # of connection points: 2
#     Edge 57, Type (0, 0), BuildingBlock: CIFDUS_clean_linker_0, # of connection points: 2
#     Edge 58, Type (0, 0), BuildingBlock: CIFDUS_clean_linker_0, # of connection points: 2
#     Edge 59, Type (0, 0), BuildingBlock: CIFDUS_clean_linker_0, # of connection points: 2
#     Edge 60, Type (0, 0), BuildingBlock: CIFDUS_clean_linker_0, # of connection points: 2
#     Edge 61, Type (0, 0), BuildingBlock: CIFDUS_clean_linker_0, # of connection points: 2
#     Edge 62, Type (0, 0), BuildingBlock: CIFDUS_clean_linker_0, # of connection points: 2
#     Edge 63, Type (0, 0), BuildingBlock: CIFDUS_clean_linker_0, # of connection points: 2
#     Edge 64, Type (0, 0), BuildingBlock: CIFDUS_clean_linker_0, # of connection points: 2
#     Edge 65, Type (0, 0), BuildingBlock: CIFDUS_clean_linker_0, # of connection points: 2
#     Edge 66, Type (0, 0), BuildingBlock: CIFDUS_clean_linker_0, # of connection points: 2
#     Edge 67, Type (0, 0), BuildingBlock: CIFDUS_clean_linker_0, # of connection points: 2
#     Edge 68, Type (0, 0), BuildingBlock: CIFDUS_clean_linker_0, # of connection points: 2
#     Edge 69, Type (0, 0), BuildingBlock: CIFDUS_clean_linker_0, # of connection points: 2
#     Edge 70, Type (0, 0), BuildingBlock: CIFDUS_clean_linker_0, # of connection points: 2
#     Edge 71, Type (0, 0), BuildingBlock: CIFDUS_clean_linker_0, # of connection points: 2
#     Edge 72, Type (0, 0), BuildingBlock: CIFDUS_clean_linker_0, # of connection points: 2
#     Edge 73, Type (0, 0), BuildingBlock: CIFDUS_clean_linker_0, # of connection points: 2
#     Edge 74, Type (0, 0), BuildingBlock: CIFDUS_clean_linker_0, # of connection points: 2
#     Edge 75, Type (0, 0), BuildingBlock: CIFDUS_clean_linker_0, # of connection points: 2
#     Edge 76, Type (0, 0), BuildingBlock: CIFDUS_clean_linker_0, # of connection points: 2
#     Edge 77, Type (0, 0), BuildingBlock: CIFDUS_clean_linker_0, # of connection points: 2
#     Edge 78, Type (0, 0), BuildingBlock: CIFDUS_clean_linker_0, # of connection points: 2
#     Edge 79, Type (0, 0), BuildingBlock: CIFDUS_clean_linker_0, # of connection points: 2
#     Edge 80, Type (0, 0), BuildingBlock: CIFDUS_clean_linker_0, # of connection points: 2
#     Edge 81, Type (0, 0), BuildingBlock: CIFDUS_clean_linker_0, # of connection points: 2
#     Edge 82, Type (0, 0), BuildingBlock: CIFDUS_clean_linker_0, # of connection points: 2
#     Edge 83, Type (0, 0), BuildingBlock: CIFDUS_clean_linker_0, # of connection points: 2
#     Edge 84, Type (0, 0), BuildingBlock: CIFDUS_clean_linker_0, # of connection points: 2
#     Edge 85, Type (0, 0), BuildingBlock: CIFDUS_clean_linker_0, # of connection points: 2
#     Edge 86, Type (0, 0), BuildingBlock: CIFDUS_clean_linker_0, # of connection points: 2
#     Edge 87, Type (0, 0), BuildingBlock: CIFDUS_clean_linker_0, # of connection points: 2
#     Edge 88, Type (0, 0), BuildingBlock: CIFDUS_clean_linker_0, # of connection points: 2
#     Edge 89, Type (0, 0), BuildingBlock: CIFDUS_clean_linker_0, # of connection points: 2
#     Edge 90, Type (0, 0), BuildingBlock: CIFDUS_clean_linker_0, # of connection points: 2
#     Edge 91, Type (0, 0), BuildingBlock: CIFDUS_clean_linker_0, # of connection points: 2
#     Edge 92, Type (0, 0), BuildingBlock: CIFDUS_clean_linker_0, # of connection points: 2
#     Edge 93, Type (0, 0), BuildingBlock: CIFDUS_clean_linker_0, # of connection points: 2
#     Edge 94, Type (0, 0), BuildingBlock: CIFDUS_clean_linker_0, # of connection points: 2
#     Edge 95, Type (0, 0), BuildingBlock: CIFDUS_clean_linker_0, # of connection points: 2
#     Edge 96, Type (0, 0), BuildingBlock: CIFDUS_clean_linker_0, # of connection points: 2
#     Edge 97, Type (0, 0), BuildingBlock: CIFDUS_clean_linker_0, # of connection points: 2
#     Edge 98, Type (0, 0), BuildingBlock: CIFDUS_clean_linker_0, # of connection points: 2
#     Edge 99, Type (0, 0), BuildingBlock: CIFDUS_clean_linker_0, # of connection points: 2
#     Edge 100, Type (0, 0), BuildingBlock: CIFDUS_clean_linker_0, # of connection points: 2
#     Edge 101, Type (0, 0), BuildingBlock: CIFDUS_clean_linker_0, # of connection points: 2
#     Edge 102, Type (0, 0), BuildingBlock: CIFDUS_clean_linker_0, # of connection points: 2
#     Edge 103, Type (0, 0), BuildingBlock: CIFDUS_clean_linker_0, # of connection points: 2
#     Edge 104, Type (0, 0), BuildingBlock: CIFDUS_clean_linker_0, # of connection points: 2
#     Edge 105, Type (0, 0), BuildingBlock: CIFDUS_clean_linker_0, # of connection points: 2
#     Edge 106, Type (0, 0), BuildingBlock: CIFDUS_clean_linker_0, # of connection points: 2
#     Edge 107, Type (0, 0), BuildingBlock: CIFDUS_clean_linker_0, # of connection points: 2
#     Edge 108, Type (0, 0), BuildingBlock: CIFDUS_clean_linker_0, # of connection points: 2
#     Edge 109, Type (0, 0), BuildingBlock: CIFDUS_clean_linker_0, # of connection points: 2
#     Edge 110, Type (0, 0), BuildingBlock: CIFDUS_clean_linker_0, # of connection points: 2
#     Edge 111, Type (0, 0), BuildingBlock: CIFDUS_clean_linker_0, # of connection points: 2
# Relax obj value: 0.372
# Max RMSD: 0.260
# Mean RMSD: 0.260
data_MOF--net-yft--node1-XOMCOT_clean_sbu_0--edge1-CIFDUS_clean_linker_0
_symmetry_space_group_name_H-M    P1
_symmetry_Int_Tables_number       1
_symmetry_cell_setting            triclinic
loop_
_symmetry_equiv_pos_as_xyz
'x, y, z'
_cell_length_a     38.563952
_cell_length_b     38.573348
_cell_length_c     87.266028
_cell_angle_alpha  90.020263
_cell_angle_beta   89.924111
_cell_angle_gamma 90.140988
loop_
_atom_site_label
_atom_site_type_symbol
_atom_site_fract_x
_atom_site_fract_y
_atom_site_fract_z
_atom_type_partial_charge
Co0 Co 0.29944 0.20966 0.15487 0.0
C1 C 0.23552 0.17516 0.14399 0.0
C2 C 0.2383 0.22784 0.13613 0.0
C3 C 0.20762 0.21345 0.13107 0.0
N4 N 0.25571 0.20386 0.14429 0.0
N5 N 0.20607 0.18038 0.13599 0.0
H6 H 0.24175 0.15118 0.14979 0.0
H7 H 0.24695 0.25407 0.13401 0.0
C8 C 0.31449 0.28626 0.15676 0.0
O9 O 0.32369 0.282 0.17113 0.0
N10 N 0.34322 0.21447 0.1654 0.0
C11 C 0.35342 0.19856 0.17841 0.0
C12 C 0.38791 0.20549 0.1808 0.0
C13 C 0.3719 0.2301 0.15986 0.0
N14 N 0.39924 0.22537 0.16916 0.0
C15 C 0.27138 0.18917 0.18406 0.0
C16 C 0.24905 0.25379 0.19339 0.0
C17 C 0.25047 0.22696 0.20419 0.0
C18 C 0.26007 0.19388 0.19916 0.0
C19 C 0.25962 0.2476 0.17824 0.0
N20 N 0.27399 0.21653 0.17417 0.0
H21 H 0.28003 0.16373 0.18066 0.0
H22 H 0.25699 0.26823 0.17002 0.0
H23 H 0.33779 0.18167 0.18541 0.0
H24 H 0.37299 0.24378 0.14903 0.0
O25 O 0.30651 0.15962 0.15547 0.0
O26 O 0.32423 0.19429 0.13684 0.0
O27 O 0.30078 0.26101 0.14935 0.0
C28 C 0.3233 0.16333 0.14262 0.0
H29 H 0.18805 0.2262 0.12422 0.0
H30 H 0.40363 0.19625 0.19021 0.0
H31 H 0.24001 0.27932 0.19665 0.0
H32 H 0.26041 0.17216 0.20702 0.0
Co33 Co 0.04369 0.05109 0.40488 0.0
C34 C 0.07936 0.98654 0.39598 0.0
C35 C 0.03143 0.99148 0.38382 0.0
C36 C 0.04865 0.96269 0.37838 0.0
N37 N 0.05048 0.0063 0.39504 0.0
N38 N 0.0789 0.9599 0.38594 0.0
H39 H 0.10115 0.99236 0.40334 0.0
H40 H 0.00801 0.00192 0.37898 0.0
C41 C 0.96558 0.04368 0.39373 0.0
O42 O 0.95652 0.01328 0.39925 0.0
N43 N 0.03814 0.09515 0.41488 0.0
C44 C 0.05104 0.10331 0.42879 0.0
C45 C 0.04015 0.13602 0.43266 0.0
C46 C 0.02004 0.12308 0.4103 0.0
N47 N 0.02084 0.14812 0.42103 0.0
C48 C 0.05158 0.01302 0.43318 0.0
C49 C 0.98702 0.0303 0.44469 0.0
C50 C 0.01142 0.01613 0.45478 0.0
C51 C 0.04377 0.0063 0.44867 0.0
C52 C 0.9961 0.03736 0.42954 0.0
N53 N 0.02818 0.0293 0.42392 0.0
H54 H 0.07737 0.00766 0.42897 0.0
H55 H 0.97813 0.05235 0.42289 0.0
H56 H 0.06689 0.08642 0.43573 0.0
H57 H 0.00635 0.12498 0.39953 0.0
O58 O 0.09406 0.05614 0.40804 0.0
O59 O 0.06473 0.07325 0.38771 0.0
O60 O 0.99576 0.05619 0.39611 0.0
C61 C 0.09417 0.07169 0.3947 0.0
H62 H 0.04078 0.94661 0.36882 0.0
H63 H 0.0459 0.14995 0.44313 0.0
H64 H 0.96147 0.03776 0.44863 0.0
H65 H 0.06372 0.99553 0.45596 0.0
Co66 Co 0.19382 0.79342 0.6573 0.0
C67 C 0.26495 0.81422 0.64785 0.0
C68 C 0.23601 0.79095 0.62957 0.0
C69 C 0.26595 0.80481 0.62357 0.0
N70 N 0.23536 0.79657 0.64483 0.0
N71 N 0.28403 0.81943 0.63507 0.0
H72 H 0.27096 0.82599 0.65875 0.0
H73 H 0.21491 0.77977 0.62306 0.0
C74 C 0.20171 0.71899 0.64491 0.0
O75 O 0.23453 0.72205 0.64114 0.0
N76 N 0.15214 0.79086 0.6694 0.0
C77 C 0.14719 0.80214 0.68388 0.0
C78 C 0.11432 0.79281 0.68848 0.0
C79 C 0.12213 0.77569 0.66523 0.0
N80 N 0.09883 0.77642 0.67671 0.0
C81 C 0.23444 0.80717 0.68415 0.0
C82 C 0.22879 0.74162 0.69666 0.0
C83 C 0.241 0.76865 0.70595 0.0
C84 C 0.24489 0.80157 0.69929 0.0
C85 C 0.2183 0.74835 0.68164 0.0
N86 N 0.22031 0.78104 0.6756 0.0
H87 H 0.23507 0.83332 0.67977 0.0
H88 H 0.20635 0.72738 0.67548 0.0
H89 H 0.1661 0.81584 0.69071 0.0
H90 H 0.11773 0.76359 0.65421 0.0
O91 O 0.19267 0.8439 0.65908 0.0
O92 O 0.1677 0.81293 0.64077 0.0
O93 O 0.18537 0.74369 0.6514 0.0
C94 C 0.17362 0.84315 0.64675 0.0
H95 H 0.27289 0.80601 0.61155 0.0
H96 H 0.10261 0.79769 0.69955 0.0
H97 H 0.22592 0.71558 0.70112 0.0
H98 H 0.25377 0.82349 0.70599 0.0
Co99 Co 0.45884 0.94382 0.90485 0.0
C100 C 0.43504 0.01375 0.8955 0.0
C101 C 0.46824 0.99014 0.87877 0.0
C102 C 0.45605 0.02074 0.87285 0.0
N103 N 0.45597 0.9862 0.89314 0.0
N104 N 0.43503 0.03541 0.88333 0.0
H105 H 0.41885 0.01706 0.90551 0.0
H106 H 0.48354 0.97112 0.87269 0.0
C107 C 0.53533 0.95605 0.89541 0.0
O108 O 0.53302 0.98976 0.89369 0.0
N109 N 0.46102 0.90136 0.91619 0.0
C110 C 0.44014 0.89132 0.92779 0.0
C111 C 0.44708 0.85715 0.93112 0.0
C112 C 0.48047 0.87363 0.91268 0.0
N113 N 0.47246 0.8465 0.92164 0.0
C114 C 0.44037 0.97936 0.9325 0.0
C115 C 0.50489 0.9752 0.94615 0.0
C116 C 0.47621 0.98337 0.95521 0.0
C117 C 0.44375 0.9864 0.94819 0.0
C118 C 0.50028 0.96737 0.93066 0.0
N119 N 0.46813 0.96856 0.92401 0.0
H120 H 0.41476 0.97975 0.92755 0.0
H121 H 0.52248 0.95761 0.92466 0.0
H122 H 0.42025 0.90718 0.93297 0.0
H123 H 0.49869 0.87262 0.90325 0.0
O124 O 0.40834 0.94055 0.90549 0.0
O125 O 0.44196 0.91859 0.88734 0.0
O126 O 0.50956 0.93784 0.89991 0.0
C127 C 0.41107 0.92237 0.89296 0.0
H128 H 0.46039 0.03033 0.86135 0.0
H129 H 0.4341 0.84113 0.93956 0.0
H130 H 0.5303 0.97217 0.95126 0.0
H131 H 0.42094 0.99254 0.95491 0.0
Co132 Co 0.30242 0.78781 0.34171 0.0
C133 C 0.23313 0.81167 0.3516 0.0
C134 C 0.25628 0.77782 0.36813 0.0
C135 C 0.22621 0.79105 0.37429 0.0
N136 N 0.26016 0.78989 0.35371 0.0
N137 N 0.21189 0.81236 0.3639 0.0
H138 H 0.23024 0.82845 0.34176 0.0
H139 H 0.27524 0.76238 0.37416 0.0
C140 C 0.29371 0.71122 0.35169 0.0
O141 O 0.25998 0.71216 0.35368 0.0
N142 N 0.34468 0.78673 0.33005 0.0
C143 C 0.35389 0.80774 0.31838 0.0
C144 C 0.38802 0.80123 0.31467 0.0
C145 C 0.37295 0.76778 0.33327 0.0
N146 N 0.3996 0.77603 0.32402 0.0
C147 C 0.26445 0.80392 0.31429 0.0
C148 C 0.26678 0.73816 0.30174 0.0
C149 C 0.25526 0.76557 0.29267 0.0
C150 C 0.25372 0.79879 0.2991 0.0
C151 C 0.27818 0.7445 0.31664 0.0
N152 N 0.27711 0.77709 0.32285 0.0
H153 H 0.2645 0.82996 0.31881 0.0
H154 H 0.28983 0.72313 0.32253 0.0
H155 H 0.33739 0.82721 0.31329 0.0
H156 H 0.37465 0.74955 0.34266 0.0
O157 O 0.30337 0.83833 0.34096 0.0
O158 O 0.32797 0.80559 0.3588 0.0
O159 O 0.31053 0.73757 0.34686 0.0
C160 C 0.32238 0.83623 0.35326 0.0
H161 H 0.21691 0.78735 0.38589 0.0
H162 H 0.40328 0.81415 0.30594 0.0
H163 H 0.2689 0.71224 0.29703 0.0
H164 H 0.24512 0.82067 0.29233 0.0
Co165 Co 0.46385 0.04675 0.59425 0.0
C166 C 0.43502 0.97874 0.60224 0.0
C167 C 0.46699 0.9987 0.6202 0.0
C168 C 0.44853 0.97083 0.62582 0.0
N169 N 0.45888 0.00346 0.60531 0.0
N170 N 0.42795 0.95864 0.61455 0.0
H171 H 0.4206 0.97755 0.5917 0.0
H172 H 0.48241 0.01646 0.62697 0.0
C173 C 0.53875 0.03441 0.60553 0.0
O174 O 0.53546 0.00096 0.60786 0.0
N175 N 0.46773 0.09008 0.58355 0.0
C176 C 0.45528 0.09807 0.5696 0.0
C177 C 0.46104 0.13275 0.56698 0.0
C178 C 0.4805 0.11979 0.58932 0.0
N179 N 0.4767 0.14642 0.57945 0.0
C180 C 0.44985 0.00938 0.56626 0.0
C181 C 0.51576 0.016 0.55406 0.0
C182 C 0.48945 0.0025 0.54479 0.0
C183 C 0.45622 0.99862 0.55118 0.0
C184 C 0.50838 0.0263 0.56904 0.0
N185 N 0.47573 0.02306 0.57509 0.0
H186 H 0.42349 0.00898 0.57041 0.0
H187 H 0.5289 0.03896 0.57519 0.0
H188 H 0.44217 0.08027 0.56198 0.0
H189 H 0.49102 0.12197 0.60076 0.0
O190 O 0.41315 0.05032 0.59271 0.0
O191 O 0.44562 0.07075 0.61158 0.0
O192 O 0.51389 0.05259 0.60027 0.0
C193 C 0.41515 0.06788 0.60547 0.0
H194 H 0.44767 0.96261 0.63767 0.0
H195 H 0.45396 0.14672 0.55671 0.0
H196 H 0.54181 0.01949 0.54966 0.0
H197 H 0.43482 0.98907 0.54434 0.0
Co198 Co 0.19891 0.21019 0.84669 0.0
C199 C 0.25739 0.17172 0.86066 0.0
C200 C 0.27161 0.22408 0.85527 0.0
C201 C 0.30014 0.20746 0.86121 0.0
N202 N 0.24473 0.20173 0.85498 0.0
N203 N 0.29117 0.1745 0.86458 0.0
H204 H 0.24269 0.1479 0.8614 0.0
H205 H 0.27102 0.25036 0.85107 0.0
C206 C 0.21164 0.29115 0.85154 0.0
O207 O 0.23175 0.3 0.84002 0.0
N208 N 0.15356 0.21771 0.83824 0.0
C209 C 0.14217 0.20375 0.82499 0.0
C210 C 0.10823 0.21289 0.82294 0.0
C211 C 0.12616 0.23426 0.84439 0.0
N212 N 0.09834 0.23179 0.83514 0.0
C213 C 0.23734 0.19254 0.81943 0.0
C214 C 0.21701 0.24994 0.80267 0.0
C215 C 0.23553 0.22369 0.79516 0.0
C216 C 0.24617 0.19487 0.80384 0.0
C217 C 0.20853 0.24646 0.81815 0.0
N218 N 0.21844 0.218 0.82635 0.0
H219 H 0.24434 0.1696 0.82583 0.0
H220 H 0.19157 0.2655 0.82323 0.0
H221 H 0.15745 0.18763 0.81743 0.0
H222 H 0.12647 0.24743 0.85535 0.0
O223 O 0.18764 0.1602 0.84634 0.0
O224 O 0.17856 0.19653 0.86551 0.0
O225 O 0.201 0.26009 0.85329 0.0
C226 C 0.17386 0.16595 0.85985 0.0
H227 H 0.32558 0.21878 0.86279 0.0
H228 H 0.0917 0.20557 0.81345 0.0
H229 H 0.20733 0.27218 0.79645 0.0
H230 H 0.26059 0.17397 0.79856 0.0
Co231 Co 0.04016 0.94458 0.09135 0.0
C232 C 0.07217 0.00925 0.10241 0.0
C233 C 0.03244 0.99201 0.11776 0.0
C234 C 0.04958 0.0196 0.12442 0.0
N235 N 0.04591 0.98612 0.10371 0.0
N236 N 0.07473 0.03007 0.11477 0.0
H237 H 0.09106 0.00909 0.09328 0.0
H238 H 0.01359 0.9756 0.12339 0.0
C239 C 0.96436 0.95743 0.10142 0.0
O240 O 0.96676 0.99133 0.10225 0.0
N241 N 0.03593 0.90317 0.07919 0.0
C242 C 0.0482 0.89879 0.06486 0.0
C243 C 0.04518 0.86449 0.06098 0.0
C244 C 0.02589 0.87147 0.08392 0.0
N245 N 0.03152 0.84728 0.07302 0.0
C246 C 0.0551 0.98813 0.06525 0.0
C247 C 0.99152 0.97925 0.05118 0.0
C248 C 0.01838 0.99486 0.04285 0.0
C249 C 0.05024 0.00021 0.05025 0.0
C250 C 0.9974 0.96758 0.0661 0.0
N251 N 0.02905 0.97157 0.07299 0.0
H252 H 0.08079 0.98942 0.07004 0.0
H253 H 0.97705 0.95276 0.07143 0.0
H254 H 0.06002 0.91874 0.0579 0.0
H255 H 0.01663 0.866 0.09539 0.0
O256 O 0.09044 0.94012 0.0895 0.0
O257 O 0.058 0.91781 0.10807 0.0
O258 O 0.98999 0.93878 0.09725 0.0
C259 C 0.08838 0.9214 0.10193 0.0
H260 H 0.04596 0.02912 0.13598 0.0
H261 H 0.05325 0.85301 0.05024 0.0
H262 H 0.96642 0.97467 0.04599 0.0
H263 H 0.072 0.01154 0.04418 0.0
Co264 Co 0.69446 0.78771 0.84486 0.0
C265 C 0.76422 0.81343 0.8541 0.0
C266 C 0.74247 0.77835 0.87055 0.0
C267 C 0.77341 0.79062 0.87621 0.0
N268 N 0.73721 0.79164 0.85643 0.0
N269 N 0.78684 0.81272 0.86587 0.0
H270 H 0.76658 0.83096 0.84454 0.0
H271 H 0.72421 0.76213 0.87667 0.0
C272 C 0.70969 0.71309 0.85415 0.0
O273 O 0.74332 0.71707 0.85252 0.0
N274 N 0.65151 0.78439 0.83381 0.0
C275 C 0.64453 0.79694 0.81977 0.0
C276 C 0.61018 0.79076 0.81659 0.0
C277 C 0.62147 0.77116 0.83907 0.0
N278 N 0.5956 0.77474 0.82878 0.0
C279 C 0.73535 0.80224 0.81805 0.0
C280 C 0.72449 0.7392 0.80376 0.0
C281 C 0.74078 0.76581 0.79548 0.0
C282 C 0.74676 0.79746 0.80296 0.0
C283 C 0.71353 0.74502 0.81883 0.0
N284 N 0.71897 0.77626 0.82588 0.0
H285 H 0.73737 0.82781 0.82293 0.0
H286 H 0.69843 0.72499 0.82428 0.0
H287 H 0.66292 0.81011 0.81243 0.0
H288 H 0.61856 0.76021 0.85041 0.0
O289 O 0.69199 0.83805 0.84312 0.0
O290 O 0.67005 0.80675 0.86208 0.0
O291 O 0.68866 0.73757 0.85098 0.0
C292 C 0.67447 0.83705 0.8559 0.0
H293 H 0.7841 0.78556 0.88746 0.0
H294 H 0.5971 0.79768 0.80607 0.0
H295 H 0.71918 0.71433 0.79849 0.0
H296 H 0.75833 0.81914 0.79694 0.0
Co297 Co 0.95913 0.94411 0.59481 0.0
C298 C 0.92845 0.00989 0.60643 0.0
C299 C 0.96597 0.98819 0.62171 0.0
C300 C 0.94935 0.01465 0.62914 0.0
N301 N 0.95364 0.98547 0.6073 0.0
N302 N 0.92526 0.02803 0.61969 0.0
H303 H 0.91058 0.01198 0.59694 0.0
H304 H 0.98357 0.97009 0.62704 0.0
C305 C 0.03347 0.95711 0.60598 0.0
O306 O 0.03077 0.99102 0.60553 0.0
N307 N 0.96379 0.90249 0.58283 0.0
C308 C 0.9527 0.89736 0.56835 0.0
C309 C 0.96277 0.86485 0.56371 0.0
C310 C 0.97964 0.87287 0.58698 0.0
N311 N 0.97948 0.84968 0.57545 0.0
C312 C 0.94922 0.98613 0.5677 0.0
C313 C 0.01398 0.97261 0.5555 0.0
C314 C 0.98832 0.98528 0.54569 0.0
C315 C 0.95593 0.99362 0.55216 0.0
C316 C 0.00605 0.9647 0.57067 0.0
N317 N 0.97369 0.97038 0.57662 0.0
H318 H 0.92327 0.98979 0.57205 0.0
H319 H 0.02536 0.95047 0.57684 0.0
H320 H 0.93851 0.91598 0.56159 0.0
H321 H 0.99153 0.8686 0.59805 0.0
O322 O 0.90902 0.94165 0.59173 0.0
O323 O 0.93795 0.91789 0.61097 0.0
O324 O 0.00839 0.9374 0.60199 0.0
C325 C 0.90848 0.92297 0.6042 0.0
H326 H 0.95337 0.02196 0.64098 0.0
H327 H 0.95796 0.85304 0.55265 0.0
H328 H 0.03965 0.96649 0.55125 0.0
H329 H 0.93513 0.00343 0.54507 0.0
Co330 Co 0.80311 0.20984 0.34346 0.0
C331 C 0.73726 0.17617 0.35182 0.0
C332 C 0.74546 0.22193 0.36522 0.0
C333 C 0.71708 0.20454 0.371 0.0
N334 N 0.75787 0.20445 0.35299 0.0
N335 N 0.71233 0.17557 0.36266 0.0
H336 H 0.74185 0.15501 0.34396 0.0
H337 H 0.75784 0.24387 0.37062 0.0
C338 C 0.78821 0.28592 0.35051 0.0
O339 O 0.75875 0.28558 0.34297 0.0
N340 N 0.84799 0.21388 0.33405 0.0
C341 C 0.85856 0.1954 0.3218 0.0
C342 C 0.89242 0.20377 0.3187 0.0
C343 C 0.87527 0.23357 0.3382 0.0
N344 N 0.90267 0.22771 0.32897 0.0
C345 C 0.76397 0.20163 0.31537 0.0
C346 C 0.78867 0.26189 0.30202 0.0
C347 C 0.77053 0.23832 0.29281 0.0
C348 C 0.75725 0.20819 0.2998 0.0
C349 C 0.79554 0.25396 0.31727 0.0
N350 N 0.78325 0.22424 0.32389 0.0
H351 H 0.75582 0.17722 0.3202 0.0
H352 H 0.81308 0.27081 0.32337 0.0
H353 H 0.84274 0.17689 0.31563 0.0
H354 H 0.87543 0.25102 0.34792 0.0
O355 O 0.80629 0.15967 0.34055 0.0
O356 O 0.82405 0.1887 0.36103 0.0
O357 O 0.80725 0.25895 0.35127 0.0
C358 C 0.82139 0.1593 0.35392 0.0
H359 H 0.70302 0.21103 0.38136 0.0
H360 H 0.90836 0.19319 0.30961 0.0
H361 H 0.79908 0.28574 0.29735 0.0
H362 H 0.74356 0.18883 0.29315 0.0
Co363 Co 0.53034 0.0472 0.09424 0.0
C364 C 0.56421 0.98121 0.10213 0.0
C365 C 0.52754 0.99674 0.11937 0.0
C366 C 0.54502 0.96787 0.12453 0.0
N367 N 0.53973 0.0051 0.10538 0.0
N368 N 0.56786 0.95817 0.11364 0.0
H369 H 0.58049 0.98191 0.09202 0.0
H370 H 0.5086 0.01165 0.12569 0.0
C371 C 0.4525 0.05371 0.09159 0.0
O372 O 0.45448 0.06175 0.07702 0.0
N373 N 0.52155 0.0899 0.08282 0.0
C374 C 0.51609 0.09322 0.06755 0.0
C375 C 0.51516 0.12754 0.06375 0.0
C376 C 0.52325 0.1229 0.08805 0.0
N377 N 0.51993 0.14606 0.0766 0.0
C378 C 0.55827 0.02438 0.06569 0.0
C379 C 0.49778 0.99544 0.05445 0.0
C380 C 0.52432 0.0043 0.04409 0.0
C381 C 0.55583 0.01639 0.05013 0.0
C382 C 0.5016 0.00326 0.07007 0.0
N383 N 0.53018 0.02084 0.07512 0.0
H384 H 0.58157 0.03685 0.06976 0.0
H385 H 0.48049 0.99748 0.07778 0.0
H386 H 0.51218 0.07252 0.05947 0.0
H387 H 0.52801 0.13011 0.09983 0.0
O388 O 0.57955 0.06015 0.09568 0.0
O389 O 0.53895 0.07336 0.11253 0.0
O390 O 0.47895 0.04176 0.09866 0.0
C391 C 0.57119 0.07564 0.10845 0.0
H392 H 0.54198 0.95554 0.13559 0.0
H393 H 0.51122 0.13818 0.05241 0.0
H394 H 0.47333 0.98497 0.05047 0.0
H395 H 0.5777 0.02202 0.04273 0.0
Co396 Co 0.69619 0.20747 0.65339 0.0
C397 C 0.76279 0.17615 0.64322 0.0
C398 C 0.75003 0.22154 0.63035 0.0
C399 C 0.77774 0.20566 0.62343 0.0
N400 N 0.74077 0.20352 0.64297 0.0
N401 N 0.78555 0.17679 0.63137 0.0
H402 H 0.76015 0.1545 0.651 0.0
H403 H 0.73577 0.2428 0.62543 0.0
C404 C 0.70927 0.28379 0.64635 0.0
O405 O 0.73965 0.28326 0.65312 0.0
N406 N 0.65161 0.21043 0.66321 0.0
C407 C 0.64315 0.19857 0.67727 0.0
C408 C 0.60832 0.20406 0.67963 0.0
C409 C 0.6219 0.22214 0.65703 0.0
N410 N 0.59525 0.21848 0.66685 0.0
C411 C 0.73863 0.20012 0.68058 0.0
C412 C 0.71618 0.26045 0.69458 0.0
C413 C 0.73727 0.23788 0.70292 0.0
C414 C 0.7486 0.20732 0.69576 0.0
C415 C 0.70599 0.25182 0.67971 0.0
N416 N 0.71758 0.22227 0.67269 0.0
H417 H 0.74635 0.17586 0.67548 0.0
H418 H 0.687 0.2681 0.67421 0.0
H419 H 0.66103 0.18663 0.6852 0.0
H420 H 0.61982 0.23305 0.64564 0.0
O421 O 0.69429 0.15744 0.65649 0.0
O422 O 0.67473 0.18551 0.63612 0.0
O423 O 0.69016 0.25672 0.64584 0.0
C424 C 0.67833 0.15628 0.64332 0.0
H425 H 0.78981 0.21381 0.61283 0.0
H426 H 0.5936 0.19773 0.68983 0.0
H427 H 0.70608 0.28383 0.69981 0.0
H428 H 0.76459 0.18896 0.70191 0.0
Co429 Co 0.53567 0.94783 0.40385 0.0
C430 C 0.57088 0.0127 0.39384 0.0
C431 C 0.51932 0.00859 0.38478 0.0
C432 C 0.53358 0.03923 0.37979 0.0
N433 N 0.5424 0.99217 0.39383 0.0
N434 N 0.5659 0.04172 0.38548 0.0
H435 H 0.5947 0.00669 0.39978 0.0
H436 H 0.49401 0.99893 0.38166 0.0
C437 C 0.45172 0.95655 0.39932 0.0
O438 O 0.43518 0.97995 0.40746 0.0
N439 N 0.52963 0.90385 0.41396 0.0
C440 C 0.54975 0.89264 0.42557 0.0
C441 C 0.54175 0.85866 0.4286 0.0
C442 C 0.50945 0.87666 0.41011 0.0
N443 N 0.51654 0.84878 0.41887 0.0
C444 C 0.56261 0.98329 0.4308 0.0
C445 C 0.50226 0.97586 0.44767 0.0
C446 C 0.53181 0.9885 0.45508 0.0
C447 C 0.5622 0.99303 0.44635 0.0
C448 C 0.5039 0.96603 0.43239 0.0
N449 N 0.53366 0.96973 0.42402 0.0
H450 H 0.58666 0.98477 0.42449 0.0
H451 H 0.48155 0.95305 0.42777 0.0
H452 H 0.56991 0.90774 0.43102 0.0
H453 H 0.49141 0.87651 0.40069 0.0
O454 O 0.58509 0.93691 0.40177 0.0
O455 O 0.54424 0.92469 0.38484 0.0
O456 O 0.48435 0.95322 0.40111 0.0
C457 C 0.57655 0.92237 0.38878 0.0
H458 H 0.52147 0.05795 0.37228 0.0
H459 H 0.55403 0.84217 0.43702 0.0
H460 H 0.47807 0.97225 0.4538 0.0
H461 H 0.58582 0.00238 0.45164 0.0
Co462 Co 0.80541 0.79236 0.1553 0.0
C463 C 0.73599 0.81688 0.14626 0.0
C464 C 0.76175 0.79105 0.12784 0.0
C465 C 0.73329 0.80806 0.12204 0.0
N466 N 0.76343 0.79633 0.14311 0.0
N467 N 0.71729 0.82482 0.13362 0.0
H468 H 0.73125 0.82807 0.15733 0.0
H469 H 0.78164 0.77834 0.12114 0.0
C470 C 0.79346 0.71815 0.14366 0.0
O471 O 0.76078 0.7233 0.14021 0.0
N472 N 0.84741 0.78989 0.16721 0.0
C473 C 0.85235 0.80376 0.18121 0.0
C474 C 0.88668 0.80092 0.18498 0.0
C475 C 0.87894 0.77906 0.16255 0.0
N476 N 0.90349 0.78577 0.17319 0.0
C477 C 0.76574 0.80891 0.18225 0.0
C478 C 0.77272 0.74504 0.19622 0.0
C479 C 0.76087 0.77304 0.20503 0.0
C480 C 0.75605 0.80494 0.19761 0.0
C481 C 0.78179 0.74998 0.18083 0.0
N482 N 0.77927 0.78191 0.17406 0.0
H483 H 0.76536 0.83468 0.17747 0.0
H484 H 0.79366 0.72851 0.17498 0.0
H485 H 0.83286 0.8166 0.18802 0.0
H486 H 0.88406 0.76836 0.15131 0.0
O487 O 0.8082 0.84291 0.15639 0.0
O488 O 0.83153 0.8102 0.13829 0.0
O489 O 0.81179 0.74184 0.14996 0.0
C490 C 0.8267 0.84096 0.14389 0.0
H491 H 0.72689 0.8104 0.11002 0.0
H492 H 0.89848 0.81017 0.19546 0.0
H493 H 0.77743 0.71999 0.2014 0.0
H494 H 0.7466 0.82732 0.20382 0.0
Co495 Co 0.95583 0.04935 0.90229 0.0
C496 C 0.92587 0.98196 0.89358 0.0
C497 C 0.96789 0.99579 0.87876 0.0
C498 C 0.95187 0.96672 0.87289 0.0
N499 N 0.95217 0.0049 0.892 0.0
N500 N 0.92548 0.95827 0.88225 0.0
H501 H 0.90517 0.98447 0.90185 0.0
H502 H 0.98726 0.01107 0.87287 0.0
C503 C 0.03228 0.03569 0.89408 0.0
O504 O 0.03099 0.00235 0.89707 0.0
N505 N 0.95832 0.09369 0.91228 0.0
C506 C 0.94218 0.10235 0.9254 0.0
C507 C 0.94722 0.13709 0.92799 0.0
C508 C 0.97271 0.12315 0.90695 0.0
N509 N 0.96642 0.1502 0.91639 0.0
C510 C 0.94315 0.00993 0.9298 0.0
C511 C 0.00502 0.02641 0.94406 0.0
C512 C 0.97966 0.00861 0.95251 0.0
C513 C 0.94855 -5e-05 0.94505 0.0
C514 C 0.99851 0.03609 0.92889 0.0
N515 N 0.96794 0.02772 0.92183 0.0
H516 H 0.91805 0.00532 0.92481 0.0
H517 H 0.01741 0.05232 0.92326 0.0
H518 H 0.92689 0.08483 0.93235 0.0
H519 H 0.98698 0.12471 0.89629 0.0
O520 O 0.90547 0.05176 0.90409 0.0
O521 O 0.93651 0.07119 0.88447 0.0
O522 O 0.00576 0.05503 0.89598 0.0
C523 C 0.90637 0.0674 0.89085 0.0
H524 H 0.95688 0.95492 0.86185 0.0
H525 H 0.93647 0.1517 0.93745 0.0
H526 H 0.02949 0.03372 0.94922 0.0
H527 H 0.9277 0.9871 0.95115 0.0
Co528 Co 0.802 0.71289 0.65493 0.0
C529 C 0.731 0.68929 0.64673 0.0
C530 C 0.75527 0.71854 0.62881 0.0
C531 C 0.72583 0.70327 0.623 0.0
N532 N 0.75855 0.71005 0.64375 0.0
N533 N 0.71067 0.68495 0.63429 0.0
H534 H 0.72764 0.67457 0.65712 0.0
H535 H 0.77459 0.73246 0.62222 0.0
C536 C 0.78814 0.7881 0.64555 0.0
O537 O 0.75461 0.78366 0.64394 0.0
N538 N 0.84549 0.71482 0.66563 0.0
C539 C 0.85314 0.70039 0.67924 0.0
C540 C 0.8875 0.70659 0.68236 0.0
C541 C 0.87519 0.72913 0.66054 0.0
N542 N 0.90151 0.72452 0.67055 0.0
C543 C 0.76393 0.69519 0.68229 0.0
C544 C 0.77203 0.75849 0.69673 0.0
C545 C 0.7575 0.73097 0.70502 0.0
C546 C 0.75286 0.69915 0.69749 0.0
C547 C 0.78247 0.75356 0.68154 0.0
N548 N 0.77845 0.72218 0.6744 0.0
H549 H 0.76287 0.66968 0.67725 0.0
H550 H 0.79584 0.77468 0.67606 0.0
H551 H 0.83519 0.68603 0.68634 0.0
H552 H 0.87741 0.74185 0.64954 0.0
O553 O 0.80464 0.6623 0.65525 0.0
O554 O 0.82561 0.69652 0.637 0.0
O555 O 0.80782 0.76366 0.65012 0.0
C556 C 0.82117 0.66545 0.64227 0.0
H557 H 0.71751 0.70356 0.61116 0.0
H558 H 0.90083 0.69844 0.69263 0.0
H559 H 0.77622 0.78351 0.70206 0.0
H560 H 0.74253 0.67689 0.70354 0.0
Co561 Co 0.5375 0.54952 0.90346 0.0
C562 C 0.57597 0.48816 0.89358 0.0
C563 C 0.52543 0.48867 0.88332 0.0
C564 C 0.54373 0.46075 0.87758 0.0
N565 N 0.5458 0.50577 0.89334 0.0
N566 N 0.5756 0.4608 0.88395 0.0
H567 H 0.59816 0.49572 0.90039 0.0
H568 H 0.4997 0.4966 0.87992 0.0
C569 C 0.4603 0.55925 0.90592 0.0
O570 O 0.46392 0.5686 0.92031 0.0
N571 N 0.53073 0.59367 0.91362 0.0
C572 C 0.54854 0.60581 0.92583 0.0
C573 C 0.54022 0.6398 0.92817 0.0
C574 C 0.51257 0.62114 0.9084 0.0
N575 N 0.51775 0.64935 0.91722 0.0
C576 C 0.55849 0.52692 0.93369 0.0
C577 C 0.49555 0.49778 0.94153 0.0
C578 C 0.51879 0.50638 0.95332 0.0
C579 C 0.55166 0.51897 0.94908 0.0
C580 C 0.50346 0.50651 0.92636 0.0
N581 N 0.53285 0.52477 0.92297 0.0
H582 H 0.58357 0.53734 0.93061 0.0
H583 H 0.48497 0.50013 0.91754 0.0
H584 H 0.56826 0.59232 0.9321 0.0
H585 H 0.49729 0.62098 0.898 0.0
O586 O 0.58741 0.56014 0.90277 0.0
O587 O 0.54889 0.57346 0.885 0.0
O588 O 0.48614 0.54687 0.89852 0.0
C589 C 0.58075 0.57475 0.88958 0.0
H590 H 0.53492 0.44289 0.86884 0.0
H591 H 0.5508 0.65665 0.93693 0.0
H592 H 0.47084 0.48562 0.94402 0.0
H593 H 0.57124 0.52472 0.95759 0.0
Co594 Co 0.69446 0.28695 0.1529 0.0
C595 C 0.7642 0.31378 0.14443 0.0
C596 C 0.7444 0.27786 0.12785 0.0
C597 C 0.77535 0.29087 0.1225 0.0
N598 N 0.73789 0.29125 0.14184 0.0
N599 N 0.7876 0.31352 0.1329 0.0
H600 H 0.76539 0.33143 0.15402 0.0
H601 H 0.72687 0.26137 0.12149 0.0
C602 C 0.70661 0.21174 0.14229 0.0
O603 O 0.7404 0.21297 0.14405 0.0
N604 N 0.6513 0.28356 0.16371 0.0
C605 C 0.64263 0.30081 0.17661 0.0
C606 C 0.60889 0.29274 0.18029 0.0
C607 C 0.6231 0.26519 0.15971 0.0
N608 N 0.59709 0.27033 0.16969 0.0
C609 C 0.73346 0.29674 0.18075 0.0
C610 C 0.71712 0.23278 0.19312 0.0
C611 C 0.73182 0.25793 0.20268 0.0
C612 C 0.74115 0.28993 0.19618 0.0
C613 C 0.70967 0.24065 0.1779 0.0
N614 N 0.71737 0.27246 0.17182 0.0
H615 H 0.73774 0.32259 0.17644 0.0
H616 H 0.69471 0.22188 0.17162 0.0
H617 H 0.6595 0.31842 0.18274 0.0
H618 H 0.62121 0.24927 0.14953 0.0
O619 O 0.69245 0.33716 0.15577 0.0
O620 O 0.67114 0.30818 0.13594 0.0
O621 O 0.68755 0.23774 0.14557 0.0
C622 C 0.67515 0.33757 0.14292 0.0
H623 H 0.78677 0.28598 0.11137 0.0
H624 H 0.59406 0.30258 0.18988 0.0
H625 H 0.7096 0.20765 0.19759 0.0
H626 H 0.75205 0.31039 0.20319 0.0
Co627 Co 0.95426 0.44376 0.40366 0.0
C628 C 0.9212 0.50913 0.39431 0.0
C629 C 0.96393 0.49721 0.3796 0.0
C630 C 0.94688 0.52571 0.37375 0.0
N631 N 0.94834 0.48728 0.39275 0.0
N632 N 0.91984 0.53284 0.38298 0.0
H633 H 0.90108 0.50622 0.40283 0.0
H634 H 0.98427 0.48305 0.37384 0.0
C635 C 0.03122 0.45606 0.39416 0.0
O636 O 0.03151 0.48998 0.39539 0.0
N637 N 0.95917 0.40051 0.4143 0.0
C638 C 0.94582 0.39207 0.42807 0.0
C639 C 0.95343 0.35792 0.43101 0.0
C640 C 0.97447 0.37164 0.40898 0.0
N641 N 0.97136 0.34517 0.41897 0.0
C642 C 0.9411 0.48366 0.43074 0.0
C643 C 0.0036 0.46982 0.44491 0.0
C644 C 0.97676 0.48443 0.45358 0.0
C645 C 0.94556 0.49235 0.44616 0.0
C646 C 0.99796 0.46117 0.42955 0.0
N647 N 0.96675 0.46753 0.42264 0.0
H648 H 0.91583 0.48722 0.42578 0.0
H649 H 0.01776 0.44644 0.4238 0.0
H650 H 0.93109 0.40934 0.43534 0.0
H651 H 0.98658 0.36981 0.39781 0.0
O652 O 0.90441 0.43955 0.40643 0.0
O653 O 0.93403 0.41955 0.38654 0.0
O654 O 0.00396 0.43835 0.39696 0.0
C655 C 0.90452 0.42233 0.39359 0.0
H656 H 0.95207 0.53823 0.36288 0.0
H657 H 0.94626 0.3436 0.4412 0.0
H658 H 0.02788 0.4626 0.45026 0.0
H659 H 0.92412 0.50362 0.45244 0.0
Co660 Co 0.8063 0.29239 0.84214 0.0
C661 C 0.73814 0.32 0.85198 0.0
C662 C 0.75468 0.27851 0.86655 0.0
C663 C 0.72373 0.29111 0.87208 0.0
N664 N 0.76329 0.2959 0.85365 0.0
N665 N 0.71357 0.31717 0.86293 0.0
H666 H 0.73838 0.34018 0.8434 0.0
H667 H 0.77059 0.25942 0.87219 0.0
C668 C 0.79801 0.21603 0.85207 0.0
O669 O 0.76629 0.2125 0.84683 0.0
N670 N 0.84883 0.29005 0.83064 0.0
C671 C 0.85275 0.30008 0.81597 0.0
C672 C 0.88706 0.29805 0.81214 0.0
C673 C 0.88095 0.28275 0.8357 0.0
N674 N 0.905 0.28756 0.82458 0.0
C675 C 0.76237 0.29927 0.81542 0.0
C676 C 0.77915 0.23577 0.8027 0.0
C677 C 0.76004 0.25921 0.79389 0.0
C678 C 0.75137 0.29127 0.80047 0.0
C679 C 0.79046 0.24512 0.81734 0.0
N680 N 0.7819 0.27642 0.8237 0.0
H681 H 0.75738 0.32487 0.81984 0.0
H682 H 0.80856 0.22811 0.82294 0.0
H683 H 0.83224 0.30922 0.80859 0.0
H684 H 0.88651 0.27551 0.84741 0.0
O685 O 0.80758 0.34278 0.83909 0.0
O686 O 0.83008 0.31458 0.85877 0.0
O687 O 0.81501 0.24416 0.85018 0.0
C688 C 0.82537 0.3438 0.85183 0.0
H689 H 0.7107 0.28315 0.8825 0.0
H690 H 0.89774 0.30425 0.80102 0.0
H691 H 0.78735 0.21119 0.79792 0.0
H692 H 0.73703 0.31036 0.79397 0.0
Co693 Co 0.95428 0.55333 0.0924 0.0
C694 C 0.9173 0.49303 0.10571 0.0
C695 C 0.97215 0.48453 0.10572 0.0
C696 C 0.95603 0.45603 0.11216 0.0
N697 N 0.94782 0.50788 0.10173 0.0
N698 N 0.92151 0.46156 0.11219 0.0
H699 H 0.89225 0.50455 0.10367 0.0
H700 H -0.00031 0.48761 0.10411 0.0
C701 C 0.03409 0.54865 0.10016 0.0
O702 O 0.04474 0.5269 0.08958 0.0
N703 N 0.95967 0.59835 0.08326 0.0
C704 C 0.94748 0.60802 0.06943 0.0
C705 C 0.95431 0.64267 0.0674 0.0
C706 C 0.97286 0.62723 0.08968 0.0
N707 N 0.96994 0.65445 0.08015 0.0
C708 C 0.94884 0.50714 0.06657 0.0
C709 C 0.00388 0.53483 0.05021 0.0
C710 C 0.98302 0.50968 0.04317 0.0
C711 C 0.95564 0.49521 0.05168 0.0
C712 C 0.99663 0.54552 0.06519 0.0
N713 N 0.96908 0.53213 0.07313 0.0
H714 H 0.92643 0.49727 0.07262 0.0
H715 H 0.0121 0.56609 0.0701 0.0
H716 H 0.93422 0.59108 0.06147 0.0
H717 H 0.98391 0.62841 0.10107 0.0
O718 O 0.90421 0.55838 0.08907 0.0
O719 O 0.93314 0.57443 0.1098 0.0
O720 O 0.00232 0.55752 0.10116 0.0
C721 C 0.90395 0.57354 0.10251 0.0
H722 H 0.96882 0.43325 0.11664 0.0
H723 H 0.94774 0.65825 0.0575 0.0
H724 H 0.02532 0.54661 0.04407 0.0
H725 H 0.93869 0.47594 0.04661 0.0
Co726 Co 0.69335 0.70905 0.34469 0.0
C727 C 0.76327 0.68306 0.35305 0.0
C728 C 0.74191 0.71597 0.37044 0.0
C729 C 0.77258 0.70234 0.3758 0.0
N730 N 0.73643 0.7046 0.356 0.0
N731 N 0.78585 0.68182 0.36482 0.0
H732 H 0.76532 0.66675 0.34306 0.0
H733 H 0.72385 0.73154 0.37695 0.0
C734 C 0.70871 0.78432 0.35438 0.0
O735 O 0.74252 0.78042 0.35439 0.0
N736 N 0.65058 0.71244 0.33354 0.0
C737 C 0.64132 0.69262 0.32149 0.0
C738 C 0.60803 0.701 0.31736 0.0
C739 C 0.6231 0.73278 0.33656 0.0
N740 N 0.59688 0.72625 0.3268 0.0
C741 C 0.73071 0.69144 0.31729 0.0
C742 C 0.72268 0.75474 0.30293 0.0
C743 C 0.73488 0.72665 0.29428 0.0
C744 C 0.7399 0.69495 0.30185 0.0
C745 C 0.71395 0.7502 0.31838 0.0
N746 N 0.71752 0.71869 0.32541 0.0
H747 H 0.73173 0.66594 0.32233 0.0
H748 H 0.7016 0.77155 0.32412 0.0
H749 H 0.65737 0.67287 0.31631 0.0
H750 H 0.62171 0.75088 0.34602 0.0
O751 O 0.68896 0.65861 0.3437 0.0
O752 O 0.66853 0.692 0.36227 0.0
O753 O 0.68861 0.75967 0.35026 0.0
C754 C 0.67147 0.66124 0.35645 0.0
H755 H 0.78318 0.70543 0.3872 0.0
H756 H 0.59297 0.68928 0.30826 0.0
H757 H 0.71753 0.77954 0.2976 0.0
H758 H 0.74944 0.67248 0.29573 0.0
Co759 Co 0.54395 0.44128 0.59445 0.0
C760 C 0.57921 0.50676 0.60288 0.0
C761 C 0.53516 0.49776 0.61723 0.0
C762 C 0.55239 0.52677 0.62245 0.0
N763 N 0.55164 0.48544 0.60475 0.0
N764 N 0.58034 0.53251 0.61344 0.0
H765 H 0.59916 0.50217 0.59448 0.0
H766 H 0.51343 0.48556 0.62287 0.0
C767 C 0.4679 0.4536 0.6043 0.0
O768 O 0.46427 0.48276 0.59672 0.0
N769 N 0.5375 0.39765 0.58416 0.0
C770 C 0.54964 0.39019 0.57003 0.0
C771 C 0.53805 0.35789 0.5659 0.0
C772 C 0.51936 0.36957 0.58865 0.0
N773 N 0.51918 0.3452 0.57759 0.0
C774 C 0.55059 0.48324 0.56733 0.0
C775 C 0.49043 0.45957 0.5536 0.0
C776 C 0.5146 0.47774 0.54474 0.0
C777 C 0.54447 0.49059 0.55184 0.0
C778 C 0.49743 0.4529 0.56905 0.0
N779 N 0.52763 0.46396 0.57573 0.0
H780 H 0.57535 0.49032 0.57205 0.0
H781 H 0.48019 0.43559 0.57511 0.0
H782 H 0.5653 0.40742 0.56309 0.0
H783 H 0.50621 0.3672 0.59957 0.0
O784 O 0.59333 0.43703 0.5899 0.0
O785 O 0.56726 0.41822 0.61098 0.0
O786 O 0.49623 0.43659 0.60386 0.0
C787 C 0.59546 0.4207 0.60296 0.0
H788 H 0.54549 0.54128 0.6326 0.0
H789 H 0.54321 0.34454 0.55522 0.0
H790 H 0.4674 0.44862 0.54838 0.0
H791 H 0.56404 0.50414 0.54522 0.0
Co792 Co 0.19672 0.29115 0.34418 0.0
C793 C 0.26363 0.31874 0.35576 0.0
C794 C 0.24244 0.2791 0.37018 0.0
C795 C 0.2698 0.2942 0.37766 0.0
N796 N 0.23887 0.29375 0.35625 0.0
N797 N 0.28284 0.31966 0.36876 0.0
H798 H 0.26518 0.33813 0.34684 0.0
H799 H 0.22437 0.26096 0.37525 0.0
C800 C 0.20788 0.21419 0.35307 0.0
O801 O 0.24187 0.2158 0.35338 0.0
N802 N 0.15449 0.28948 0.3326 0.0
C803 C 0.1452 0.31056 0.32099 0.0
C804 C 0.11117 0.30368 0.31726 0.0
C805 C 0.12644 0.27 0.33572 0.0
N806 N 0.09979 0.27813 0.32651 0.0
C807 C 0.23666 0.30759 0.31722 0.0
C808 C 0.22695 0.24454 0.30278 0.0
C809 C 0.24026 0.27215 0.2941 0.0
C810 C 0.24593 0.30384 0.30173 0.0
C811 C 0.21726 0.2496 0.31805 0.0
N812 N 0.22176 0.28091 0.32516 0.0
H813 H 0.23911 0.33282 0.32246 0.0
H814 H 0.20379 0.22862 0.32357 0.0
H815 H 0.16161 0.33032 0.31598 0.0
H816 H 0.12491 0.25145 0.34501 0.0
O817 O 0.19462 0.34182 0.34345 0.0
O818 O 0.17136 0.30875 0.36144 0.0
O819 O 0.18956 0.24045 0.34935 0.0
C820 C 0.17602 0.33963 0.35592 0.0
H821 H 0.27787 0.28825 0.38923 0.0
H822 H 0.09583 0.31663 0.30861 0.0
H823 H 0.22267 0.21928 0.29772 0.0
H824 H 0.25564 0.32629 0.29564 0.0
Co825 Co 0.46291 0.44477 0.09322 0.0
C826 C 0.42235 0.50534 0.10347 0.0
C827 C 0.47412 0.50681 0.11245 0.0
C828 C 0.45608 0.5348 0.11813 0.0
N829 N 0.45292 0.48834 0.10327 0.0
N830 N 0.42348 0.5337 0.11255 0.0
H831 H 0.39962 0.49703 0.09721 0.0
H832 H 0.50058 0.50016 0.1152 0.0
C833 C 0.53997 0.43564 0.09279 0.0
O834 O 0.53724 0.4265 0.07834 0.0
N835 N 0.47256 0.40063 0.08338 0.0
C836 C 0.47253 0.39206 0.06834 0.0
C837 C 0.48133 0.35787 0.06686 0.0
C838 C 0.48116 0.37115 0.09078 0.0
N839 N 0.48669 0.34484 0.08095 0.0
C840 C 0.44618 0.46858 0.06285 0.0
C841 C 0.50934 0.49933 0.05664 0.0
C842 C 0.48701 0.49197 0.04434 0.0
C843 C 0.45406 0.47845 0.04781 0.0
C844 C 0.50029 0.48903 0.07151 0.0
N845 N 0.47082 0.47016 0.07407 0.0
H846 H 0.42167 0.45591 0.06502 0.0
H847 H 0.51791 0.49475 0.08077 0.0
H848 H 0.46729 0.40879 0.05882 0.0
H849 H 0.4839 0.36907 0.10308 0.0
O850 O 0.41356 0.43434 0.09126 0.0
O851 O 0.44633 0.4204 0.11111 0.0
O852 O 0.51337 0.44711 0.09998 0.0
C853 C 0.41621 0.41915 0.10453 0.0
H854 H 0.46587 0.55377 0.12619 0.0
H855 H 0.48318 0.34351 0.05623 0.0
H856 H 0.53413 0.51189 0.05475 0.0
H857 H 0.43539 0.47296 0.03888 0.0
Co858 Co 0.30132 0.70936 0.84318 0.0
C859 C 0.23749 0.67528 0.85454 0.0
C860 C 0.24679 0.72362 0.86607 0.0
C861 C 0.21604 0.70984 0.87139 0.0
N862 N 0.26009 0.70206 0.85544 0.0
N863 N 0.2103 0.67948 0.86415 0.0
H864 H 0.24041 0.6536 0.84678 0.0
H865 H 0.25836 0.74781 0.8697 0.0
C866 C 0.31455 0.78641 0.84146 0.0
O867 O 0.32352 0.78296 0.82701 0.0
N868 N 0.34272 0.71604 0.8308 0.0
C869 C 0.34653 0.71133 0.81553 0.0
C870 C 0.37922 0.72155 0.81128 0.0
C871 C 0.37374 0.72812 0.83566 0.0
N872 N 0.39613 0.73205 0.82391 0.0
C873 C 0.26602 0.68652 0.81602 0.0
C874 C 0.24667 0.75133 0.80573 0.0
C875 C 0.24563 0.72333 0.79553 0.0
C876 C 0.25328 0.69021 0.80111 0.0
C877 C 0.25853 0.74623 0.8207 0.0
N878 N 0.27173 0.71491 0.82508 0.0
H879 H 0.27427 0.66115 0.81968 0.0
H880 H 0.25801 0.7679 0.82844 0.0
H881 H 0.32717 0.7019 0.80772 0.0
H882 H 0.37928 0.73538 0.84739 0.0
O883 O 0.30991 0.65959 0.84234 0.0
O884 O 0.32985 0.69515 0.86021 0.0
O885 O 0.30155 0.76065 0.84877 0.0
C886 C 0.32851 0.66403 0.85463 0.0
H887 H 0.19929 0.72113 0.88 0.0
H888 H 0.38978 0.72151 0.79978 0.0
H889 H 0.23915 0.77706 0.80204 0.0
H890 H 0.25186 0.66774 0.79369 0.0
Co891 Co 0.0396 0.55079 0.59293 0.0
C892 C 0.07305 0.48416 0.60099 0.0
C893 C 0.03226 0.49754 0.61665 0.0
C894 C 0.04821 0.46794 0.62187 0.0
N895 N 0.04778 0.50765 0.60355 0.0
N896 N 0.07385 0.4596 0.61202 0.0
H897 H 0.09176 0.48603 0.59179 0.0
H898 H 0.01175 0.51152 0.6224 0.0
C899 C 0.96297 0.56687 0.59608 0.0
O900 O 0.96227 0.58322 0.58288 0.0
N901 N 0.03213 0.59439 0.58247 0.0
C902 C 0.03808 0.60173 0.56758 0.0
C903 C 0.03203 0.63635 0.56518 0.0
C904 C 0.02318 0.62486 0.58896 0.0
N905 N 0.02272 0.65088 0.57862 0.0
C906 C 0.05991 0.51738 0.5651 0.0
C907 C 0.99475 0.51216 0.55226 0.0
C908 C 0.02383 0.50773 0.54273 0.0
C909 C 0.05664 0.50823 0.54968 0.0
C910 C 0.99919 0.52011 0.56781 0.0
N911 N 0.03152 0.52549 0.57375 0.0
H912 H 0.08567 0.52031 0.5697 0.0
H913 H 0.97636 0.52315 0.57469 0.0
H914 H 0.04673 0.58363 0.55898 0.0
H915 H 0.01752 0.62792 0.60103 0.0
O916 O 0.08937 0.55918 0.59127 0.0
O917 O 0.05617 0.57566 0.61059 0.0
O918 O 0.98952 0.54917 0.60004 0.0
C919 C 0.08671 0.57529 0.60434 0.0
H920 H 0.04193 0.45406 0.63229 0.0
H921 H 0.03417 0.64971 0.55431 0.0
H922 H 0.96867 0.51128 0.54773 0.0
H923 H 0.07997 0.50316 0.54316 0.0
Co924 Co 0.1982 0.71045 0.15354 0.0
C925 C 0.2627 0.67709 0.14251 0.0
C926 C 0.25966 0.73018 0.13527 0.0
C927 C 0.29048 0.71654 0.13012 0.0
N928 N 0.24222 0.70547 0.14306 0.0
N929 N 0.29226 0.68319 0.13464 0.0
H930 H 0.25655 0.65269 0.148 0.0
H931 H 0.25096 0.75646 0.13345 0.0
C932 C 0.18255 0.78691 0.15435 0.0
O933 O 0.1732 0.78407 0.16876 0.0
N934 N 0.15377 0.71535 0.16401 0.0
C935 C 0.14711 0.71723 0.17923 0.0
C936 C 0.1125 0.72344 0.18141 0.0
C937 C 0.12264 0.72022 0.15722 0.0
N938 N 0.09727 0.72514 0.16761 0.0
C939 C 0.22517 0.69343 0.18326 0.0
C940 C 0.25097 0.75839 0.19027 0.0
C941 C 0.24765 0.73388 0.20208 0.0
C942 C 0.23641 0.70039 0.19818 0.0
C943 C 0.2396 0.75019 0.17547 0.0
N944 N 0.22365 0.71922 0.17255 0.0
H945 H 0.21459 0.66811 0.18079 0.0
H946 H 0.24248 0.76939 0.16658 0.0
H947 H 0.1657 0.71636 0.18837 0.0
H948 H 0.11881 0.72176 0.14495 0.0
O949 O 0.1929 0.66021 0.15475 0.0
O950 O 0.17453 0.69316 0.13565 0.0
O951 O 0.19582 0.76104 0.14732 0.0
C952 C 0.17704 0.66253 0.14163 0.0
H953 H 0.30994 0.73 0.12342 0.0
H954 H 0.0996 0.72745 0.19229 0.0
H955 H 0.2607 0.78424 0.19254 0.0
H956 H 0.23496 0.68006 0.20671 0.0
Co957 Co 0.04078 0.44296 0.90323 0.0
C958 C 0.07313 0.50802 0.89285 0.0
C959 C 0.02496 0.50036 0.88122 0.0
C960 C 0.04155 0.52884 0.87491 0.0
N961 N 0.04454 0.48757 0.89273 0.0
N962 N 0.07195 0.53322 0.8822 0.0
H963 H 0.09568 0.50343 0.8999 0.0
H964 H 0.00177 0.48845 0.87672 0.0
C965 C 0.96359 0.45415 0.89708 0.0
O966 O 0.96354 0.48421 0.90414 0.0
N967 N 0.03912 0.39904 0.91372 0.0
C968 C 0.05645 0.39252 0.9268 0.0
C969 C 0.0485 0.35967 0.93162 0.0
C970 C 0.02119 0.36985 0.91054 0.0
N971 N 0.02638 0.34551 0.92144 0.0
C972 C 0.04735 0.4896 0.9292 0.0
C973 C 0.99231 0.46205 0.94558 0.0
C974 C 0.01332 0.48701 0.95264 0.0
C975 C 0.04072 0.50137 0.94414 0.0
C976 C 0.99933 0.45157 0.93055 0.0
N977 N 0.02675 0.46505 0.92251 0.0
H978 H 0.07008 0.49908 0.92338 0.0
H979 H 0.9837 0.4311 0.92567 0.0
H980 H 0.07326 0.41077 0.93259 0.0
H981 H 0.00424 0.36676 0.90076 0.0
O982 O 0.09113 0.44161 0.90563 0.0
O983 O 0.06167 0.42118 0.88574 0.0
O984 O 0.99118 0.43604 0.89617 0.0
C985 C 0.09135 0.42605 0.89235 0.0
H986 H 0.03328 0.54333 0.86495 0.0
H987 H 0.05831 0.34704 0.9418 0.0
H988 H 0.9709 0.45025 0.95173 0.0
H989 H 0.05793 0.52034 0.94925 0.0
Co990 Co 0.30531 0.2927 0.6559 0.0
C991 C 0.23667 0.31823 0.64697 0.0
C992 C 0.25401 0.27938 0.63127 0.0
C993 C 0.22389 0.2939 0.62563 0.0
N994 N 0.26169 0.29427 0.64483 0.0
N995 N 0.21314 0.31851 0.63554 0.0
H996 H 0.2375 0.33762 0.65584 0.0
H997 H 0.2704 0.2612 0.62526 0.0
C998 C 0.30082 0.21473 0.64567 0.0
O999 O 0.2671 0.21007 0.64631 0.0
N1000 N 0.34856 0.29249 0.66697 0.0
C1001 C 0.35342 0.30427 0.68135 0.0
C1002 C 0.38788 0.30153 0.68495 0.0
C1003 C 0.38028 0.28342 0.66187 0.0
N1004 N 0.40477 0.28858 0.67269 0.0
C1005 C 0.2644 0.30494 0.68298 0.0
C1006 C 0.27911 0.24272 0.69724 0.0
C1007 C 0.26291 0.26888 0.70582 0.0
C1008 C 0.25434 0.29978 0.69822 0.0
C1009 C 0.28833 0.24874 0.68191 0.0
N1010 N 0.2817 0.27989 0.675 0.0
H1011 H 0.26096 0.33036 0.67815 0.0
H1012 H 0.30351 0.22924 0.67619 0.0
H1013 H 0.3335 0.31473 0.68871 0.0
H1014 H 0.38556 0.27479 0.65033 0.0
O1015 O 0.30596 0.34345 0.65717 0.0
O1016 O 0.32818 0.31204 0.63832 0.0
O1017 O 0.31465 0.24343 0.64971 0.0
C1018 C 0.32284 0.34234 0.64419 0.0
H1019 H 0.21189 0.2879 0.61475 0.0
H1020 H 0.39959 0.30857 0.69578 0.0
H1021 H 0.28689 0.21861 0.70256 0.0
H1022 H 0.24149 0.32072 0.70421 0.0
Co1023 Co 0.45818 0.54999 0.40549 0.0
C1024 C 0.42651 0.48506 0.39414 0.0
C1025 C 0.47395 0.49721 0.38241 0.0
C1026 C 0.45819 0.4699 0.37501 0.0
N1027 N 0.4541 0.50677 0.39439 0.0
N1028 N 0.42825 0.46244 0.38231 0.0
H1029 H 0.4044 0.48748 0.40172 0.0
H1030 H 0.49707 0.5106 0.37861 0.0
C1031 C 0.53495 0.56482 0.40823 0.0
O1032 O 0.53015 0.57408 0.42257 0.0
N1033 N 0.46143 0.59399 0.41616 0.0
C1034 C 0.44196 0.6052 0.42805 0.0
C1035 C 0.44845 0.63984 0.43043 0.0
C1036 C 0.47872 0.62234 0.41122 0.0
N1037 N 0.47164 0.65029 0.41989 0.0
C1038 C 0.437 0.5241 0.43476 0.0
C1039 C 0.50115 0.50209 0.44475 0.0
C1040 C 0.47479 0.50761 0.45559 0.0
C1041 C 0.44183 0.51656 0.45024 0.0
C1042 C 0.49508 0.51009 0.42925 0.0
N1043 N 0.46435 0.52465 0.42482 0.0
H1044 H 0.41161 0.53225 0.43112 0.0
H1045 H 0.51574 0.50625 0.42109 0.0
H1046 H 0.42272 0.59027 0.43412 0.0
H1047 H 0.49504 0.62291 0.40112 0.0
O1048 O 0.40801 0.55501 0.40559 0.0
O1049 O 0.44298 0.57468 0.38747 0.0
O1050 O 0.50977 0.55192 0.40054 0.0
C1051 C 0.41163 0.57209 0.39284 0.0
H1052 H 0.46739 0.45739 0.36467 0.0
H1053 H 0.43659 0.65628 0.43901 0.0
H1054 H 0.52668 0.49369 0.4483 0.0
H1055 H 0.42024 0.51939 0.4581 0.0
H1056 H 0.53978 0.30504 0.16305 0.0
H1057 H 0.57946 0.20414 0.17424 0.0
H1058 H 0.52032 0.18024 0.17462 0.0
H1059 H 0.45739 0.18943 0.17301 0.0
H1060 H 0.41767 0.28964 0.16041 0.0
H1061 H 0.47687 0.31291 0.15901 0.0
C1062 C 0.53509 0.27784 0.16546 0.0
C1063 C 0.56308 0.25617 0.16882 0.0
C1064 C 0.50135 0.26448 0.16537 0.0
C1065 C 0.5577 0.2209 0.17173 0.0
C1066 C 0.52413 0.20743 0.17196 0.0
C1067 C 0.46194 0.21629 0.16993 0.0
C1068 C 0.43371 0.23808 0.16702 0.0
C1069 C 0.49578 0.22913 0.16901 0.0
C1070 C 0.43938 0.27264 0.16269 0.0
C1071 C 0.47304 0.28589 0.16197 0.0
H1072 H 0.04451 0.20304 0.40595 0.0
H1073 H 0.96267 0.16685 0.43538 0.0
H1074 H 0.93856 0.22565 0.4369 0.0
H1075 H 0.94294 0.28743 0.43078 0.0
H1076 H 0.02704 0.32445 0.40248 0.0
H1077 H 0.04821 0.26523 0.39937 0.0
C1078 C 0.02111 0.20831 0.41244 0.0
C1079 C 0.00488 0.18132 0.42042 0.0
C1080 C 0.00817 0.24213 0.41353 0.0
C1081 C 0.97502 0.18771 0.42909 0.0
C1082 C 0.9615 0.22115 0.43 0.0
C1083 C 0.96603 0.28258 0.42403 0.0
C1084 C 0.98348 0.31027 0.41694 0.0
C1085 C 0.97824 0.24863 0.42247 0.0
C1086 C 0.01297 0.30351 0.40794 0.0
C1087 C 0.02517 0.2697 0.40621 0.0
H1088 H 0.0475 0.79183 0.65741 0.0
H1089 H 0.0747 0.72839 0.69607 0.0
H1090 H 0.01576 0.70445 0.69693 0.0
H1091 H 0.95668 0.70352 0.68727 0.0
H1092 H 0.92746 0.77152 0.65011 0.0
H1093 H 0.98712 0.79138 0.64788 0.0
C1094 C 0.04026 0.77259 0.6659 0.0
C1095 C 0.06484 0.76165 0.67668 0.0
C1096 C 0.00615 0.75994 0.6666 0.0
C1097 C 0.05573 0.73706 0.68778 0.0
C1098 C 0.02221 0.72348 0.68824 0.0
C1099 C 0.96294 0.72293 0.67877 0.0
C1100 C 0.93708 0.73593 0.66896 0.0
C1101 C 0.9971 0.73513 0.67784 0.0
C1102 C 0.9465 0.7606 0.65778 0.0
C1103 C 0.98073 0.77223 0.65653 0.0
H1104 H 0.55414 0.70768 0.91916 0.0
H1105 H 0.4519 0.66716 0.9106 0.0
H1106 H 0.42801 0.72619 0.91108 0.0
H1107 H 0.43634 0.78892 0.91605 0.0
H1108 H 0.53919 0.82887 0.92353 0.0
H1109 H 0.56327 0.77021 0.92163 0.0
C1110 C 0.52669 0.71199 0.91731 0.0
C1111 C 0.50454 0.68358 0.91511 0.0
C1112 C 0.51346 0.74559 0.91767 0.0
C1113 C 0.46917 0.68899 0.91233 0.0
C1114 C 0.4556 0.72254 0.91274 0.0
C1115 C 0.46394 0.78441 0.91727 0.0
C1116 C 0.48616 0.8124 0.92024 0.0
C1117 C 0.47743 0.75091 0.91579 0.0
C1118 C 0.52196 0.80717 0.92142 0.0
C1119 C 0.53557 0.77387 0.9203 0.0
H1120 H 0.45918 0.81161 0.32447 0.0
H1121 H 0.41585 0.70869 0.32562 0.0
H1122 H 0.47413 0.68366 0.32667 0.0
H1123 H 0.53738 0.69138 0.32668 0.0
H1124 H 0.58107 0.79407 0.32771 0.0
H1125 H 0.52272 0.81941 0.32649 0.0
C1126 C 0.46279 0.78376 0.32485 0.0
C1127 C 0.43376 0.7618 0.32469 0.0
C1128 C 0.49623 0.76977 0.32588 0.0
C1129 C 0.43817 0.72579 0.32562 0.0
C1130 C 0.47132 0.71159 0.32622 0.0
C1131 C 0.53386 0.71927 0.32663 0.0
C1132 C 0.56295 0.74103 0.32705 0.0
C1133 C 0.50049 0.73334 0.32626 0.0
C1134 C 0.55867 0.77711 0.32734 0.0
C1135 C 0.52548 0.79145 0.32659 0.0
H1136 H 0.53711 0.29313 0.59583 0.0
H1137 H 0.46776 0.32286 0.55966 0.0
H1138 H 0.44621 0.26312 0.55765 0.0
H1139 H 0.45026 0.20233 0.56513 0.0
H1140 H 0.52409 0.1714 0.59967 0.0
H1141 H 0.5405 0.23173 0.60363 0.0
C1142 C 0.51678 0.28631 0.58778 0.0
C1143 C 0.50348 0.31176 0.57802 0.0
C1144 C 0.50571 0.25184 0.58634 0.0
C1145 C 0.47782 0.30323 0.56731 0.0
C1146 C 0.46578 0.26924 0.56614 0.0
C1147 C 0.47015 0.20859 0.57343 0.0
C1148 C 0.48598 0.18216 0.582 0.0
C1149 C 0.48014 0.24321 0.57536 0.0
C1150 C 0.51116 0.1911 0.59298 0.0
C1151 C 0.52074 0.22564 0.59522 0.0
H1152 H 0.06551 0.2742 0.81648 0.0
H1153 H 0.05533 0.2175 0.85862 0.0
H1154 H 0.99296 0.2308 0.8595 0.0
H1155 H 0.94121 0.25431 0.84681 0.0
H1156 H 0.95345 0.31323 0.80495 0.0
H1157 H 0.01521 0.30313 0.80538 0.0
C1158 C 0.04957 0.26562 0.82601 0.0
C1159 C 0.06433 0.24517 0.83747 0.0
C1160 C 0.01424 0.27327 0.82635 0.0
C1161 C 0.04407 0.23373 0.84982 0.0
C1162 C 0.00858 0.24109 0.85023 0.0
C1163 C 0.95728 0.26546 0.8379 0.0
C1164 C 0.94211 0.28382 0.82567 0.0
C1165 C 0.99326 0.26021 0.83834 0.0
C1166 C 0.96378 0.29801 0.81426 0.0
C1167 C -0.00062 0.29261 0.81455 0.0
H1168 H 0.98479 0.81349 0.09058 0.0
H1169 H 0.06852 0.7979 0.05845 0.0
H1170 H 0.05818 0.73571 0.05875 0.0
H1171 H 0.02251 0.68607 0.06662 0.0
H1172 H 0.94002 0.70021 0.09912 0.0
H1173 H 0.95282 0.76268 0.10052 0.0
C1174 C 0.00105 0.79641 0.08383 0.0
C1175 C 0.02686 0.8104 0.07424 0.0
C1176 C 0.99515 0.7605 0.08415 0.0
C1177 C 0.04776 0.78794 0.06555 0.0
C1178 C 0.04209 0.75232 0.06581 0.0
C1179 C 0.00796 0.70299 0.07418 0.0
C1180 C 0.98062 0.68931 0.08278 0.0
C1181 C 0.01544 0.73844 0.0748 0.0
C1182 C 0.96143 0.71077 0.09256 0.0
C1183 C 0.96861 0.74628 0.09325 0.0
H1184 H 0.54086 0.79955 0.81305 0.0
H1185 H 0.56895 0.72753 0.84881 0.0
H1186 H 0.50839 0.71044 0.85161 0.0
H1187 H 0.44751 0.71344 0.84276 0.0
H1188 H 0.42119 0.7818 0.80562 0.0
H1189 H 0.48107 0.80273 0.80436 0.0
C1190 C 0.53402 0.77985 0.82136 0.0
C1191 C 0.55973 0.76482 0.83062 0.0
C1192 C 0.49933 0.76948 0.82265 0.0
C1193 C 0.54986 0.73989 0.84159 0.0
C1194 C 0.51517 0.72991 0.84316 0.0
C1195 C 0.45507 0.73324 0.83459 0.0
C1196 C 0.43042 0.74624 0.8243 0.0
C1197 C 0.48973 0.74429 0.83365 0.0
C1198 C 0.4401 0.77151 0.81356 0.0
C1199 C 0.4742 0.78337 0.81284 0.0
H1200 H 0.04615 0.70567 0.56268 0.0
H1201 H 0.9799 0.6768 0.60047 0.0
H1202 H 0.96299 0.73738 0.60388 0.0
H1203 H 0.96412 0.79827 0.59484 0.0
H1204 H 0.02665 0.82541 0.55577 0.0
H1205 H 0.04815 0.76578 0.55403 0.0
C1206 C 0.02786 0.71254 0.57161 0.0
C1207 C 0.01413 0.6867 0.58122 0.0
C1208 C 0.01768 0.74714 0.57324 0.0
C1209 C 0.99109 0.69622 0.59299 0.0
C1210 C 0.98124 0.73082 0.59488 0.0
C1211 C 0.98279 0.79091 0.58612 0.0
C1212 C 0.99404 0.81566 0.57544 0.0
C1213 C 0.99403 0.75642 0.58494 0.0
C1214 C 0.01781 0.80635 0.56401 0.0
C1215 C 0.02995 0.77243 0.56304 0.0
H1216 H 0.96199 0.19302 0.32895 0.0
H1217 H 0.9185 0.29548 0.33119 0.0
H1218 H 0.97693 0.32104 0.33024 0.0
H1219 H 0.04039 0.31351 0.32778 0.0
H1220 H 0.0835 0.21069 0.32737 0.0
H1221 H 0.02517 0.18543 0.32854 0.0
C1222 C 0.96558 0.22091 0.3293 0.0
C1223 C 0.93654 0.24256 0.32998 0.0
C1224 C 0.99895 0.23507 0.32895 0.0
C1225 C 0.94088 0.27861 0.3307 0.0
C1226 C 0.9741 0.29308 0.33006 0.0
C1227 C 0.03671 0.28564 0.32787 0.0
C1228 C 0.06565 0.26376 0.32722 0.0
C1229 C 0.00329 0.27152 0.32897 0.0
C1230 C 0.06121 0.22771 0.32774 0.0
C1231 C 0.02805 0.21339 0.32842 0.0
H1232 H 0.49165 0.18768 0.09786 0.0
H1233 H 0.55439 0.18674 0.05698 0.0
H1234 H 0.55305 0.24991 0.05585 0.0
H1235 H 0.52893 0.30446 0.06485 0.0
H1236 H 0.46346 0.30657 0.10484 0.0
H1237 H 0.47147 0.24396 0.10832 0.0
C1238 C 0.50549 0.20156 0.08894 0.0
C1239 C 0.5227 0.18298 0.07739 0.0
C1240 C 0.50391 0.23787 0.08819 0.0
C1241 C 0.54053 0.20082 0.06579 0.0
C1242 C 0.53982 0.23679 0.06517 0.0
C1243 C 0.51666 0.29115 0.07438 0.0
C1244 C 0.4953 0.30964 0.08443 0.0
C1245 C 0.52072 0.25543 0.07602 0.0
C1246 C 0.48008 0.2926 0.09698 0.0
C1247 C 0.48444 0.25687 0.09888 0.0
H1248 H 0.565 0.2716 0.6805 0.0
H1249 H 0.54795 0.18881 0.64844 0.0
H1250 H 0.48615 0.20424 0.64661 0.0
H1251 H 0.43665 0.23955 0.65567 0.0
H1252 H 0.45545 0.32362 0.68725 0.0
H1253 H 0.51696 0.3098 0.68774 0.0
C1254 C 0.54758 0.25738 0.67303 0.0
C1255 C 0.56026 0.22928 0.66465 0.0
C1256 C 0.51259 0.26656 0.67205 0.0
C1257 C 0.53816 0.21068 0.6549 0.0
C1258 C 0.50304 0.21944 0.65393 0.0
C1259 C 0.45434 0.25513 0.66245 0.0
C1260 C 0.44142 0.2822 0.67162 0.0
C1261 C 0.48986 0.2471 0.66263 0.0
C1262 C 0.46461 0.30211 0.6804 0.0
C1263 C 0.49982 0.29437 0.68063 0.0
H1264 H 0.43485 0.70855 0.41779 0.0
H1265 H 0.53873 0.66808 0.41794 0.0
H1266 H 0.56248 0.72718 0.41725 0.0
H1267 H 0.55311 0.79026 0.418 0.0
H1268 H 0.44937 0.83092 0.41612 0.0
H1269 H 0.4256 0.77177 0.41587 0.0
C1270 C 0.46263 0.71296 0.41756 0.0
C1271 C 0.48522 0.68456 0.41809 0.0
C1272 C 0.47585 0.74679 0.41687 0.0
C1273 C 0.52115 0.68993 0.41755 0.0
C1274 C 0.5346 0.72355 0.41721 0.0
C1275 C 0.52533 0.78595 0.41748 0.0
C1276 C 0.50281 0.81445 0.41733 0.0
C1277 C 0.51215 0.75213 0.41709 0.0
C1278 C 0.46693 0.80906 0.4163 0.0
C1279 C 0.45347 0.7754 0.41622 0.0
H1280 H 0.06463 0.77911 0.17953 0.0
H1281 H 0.05119 0.69135 0.14974 0.0
H1282 H 0.98859 0.70325 0.14802 0.0
H1283 H 0.93732 0.73651 0.15696 0.0
H1284 H 0.95296 0.82521 0.18636 0.0
H1285 H 0.01507 0.81515 0.18636 0.0
C1286 C 0.04786 0.76291 0.17257 0.0
C1287 C 0.0619 0.73435 0.16489 0.0
C1288 C 0.0124 0.76991 0.17173 0.0
C1289 C 0.04052 0.71355 0.15568 0.0
C1290 C 0.00489 0.72025 0.15481 0.0
C1291 C 0.95442 0.75382 0.16318 0.0
C1292 C 0.94039 0.78106 0.17195 0.0
C1293 C 0.99042 0.74803 0.16305 0.0
C1294 C 0.96289 0.8034 0.17993 0.0
C1295 C 0.99849 0.79787 0.17984 0.0
H1296 H 0.01581 0.30043 0.89836 0.0
H1297 H 0.00422 0.31429 0.9471 0.0
H1298 H 0.98437 0.25452 0.94981 0.0
H1299 H 0.97318 0.19796 0.93861 0.0
H1300 H 0.98401 0.18296 0.88982 0.0
H1301 H 0.0022 0.24332 0.8869 0.0
C1302 C 0.00841 0.29034 0.90949 0.0
C1303 C 0.01153 0.31147 0.92253 0.0
C1304 C 0.99747 0.25571 0.91099 0.0
C1305 C 0.00232 0.29822 0.93696 0.0
C1306 C 0.99099 0.26413 0.93851 0.0
C1307 C 0.9789 0.20787 0.92727 0.0
C1308 C 0.97704 0.18581 0.91448 0.0
C1309 C 0.98892 0.24255 0.92564 0.0
C1310 C 0.98552 0.19912 0.89993 0.0
C1311 C 0.99565 0.23375 0.89821 0.0
H1312 H 0.45033 0.07389 0.12146 0.0
H1313 H 0.38609 0.06134 0.08142 0.0
H1314 H 0.33845 0.09131 0.09434 0.0
H1315 H 0.31766 0.12765 0.11586 0.0
H1316 H 0.38239 0.14105 0.15558 0.0
H1317 H 0.42739 0.10487 0.14395 0.0
C1318 C 0.4256 0.07689 0.1157 0.0
C1319 C 0.42178 0.06536 0.10047 0.0
C1320 C 0.39862 0.09498 0.12307 0.0
C1321 C 0.38974 0.07005 0.09311 0.0
C1322 C 0.36254 0.08735 0.10047 0.0
C1323 C 0.34126 0.12174 0.12207 0.0
C1324 C 0.34662 0.13634 0.13662 0.0
C1325 C 0.36704 0.10091 0.11526 0.0
C1326 C 0.37749 0.12928 0.14451 0.0
C1327 C 0.4033 0.10883 0.13781 0.0
H1328 H 0.21871 0.17209 0.37792 0.0
H1329 H 0.15396 0.18571 0.33812 0.0
H1330 H 0.116 0.139 0.34672 0.0
H1331 H 0.0978 0.09903 0.3665 0.0
H1332 H 0.15755 0.08793 0.40794 0.0
H1333 H 0.20141 0.12819 0.39765 0.0
C1334 C 0.19676 0.16409 0.371 0.0
C1335 C 0.18925 0.18205 0.35732 0.0
C1336 C 0.17409 0.13788 0.37637 0.0
C1337 C 0.16031 0.17212 0.34861 0.0
C1338 C 0.13855 0.14551 0.35356 0.0
C1339 C 0.1206 0.10494 0.37329 0.0
C1340 C 0.12424 0.0906 0.38805 0.0
C1341 C 0.14467 0.12891 0.36758 0.0
C1342 C 0.15413 0.09851 0.39655 0.0
C1343 C 0.17905 0.12174 0.39069 0.0
H1344 H 0.15231 0.85138 0.6178 0.0
H1345 H 0.15456 0.90306 0.66157 0.0
H1346 H 0.11414 0.94709 0.65194 0.0
H1347 H 0.07174 0.96562 0.63202 0.0
H1348 H 0.06758 0.90973 0.58926 0.0
H1349 H 0.11543 0.87296 0.59739 0.0
C1350 C 0.14449 0.87269 0.62515 0.0
C1351 C 0.1561 0.87391 0.64038 0.0
C1352 C 0.12068 0.89705 0.61969 0.0
C1353 C 0.14606 0.90174 0.64976 0.0
C1354 C 0.12271 0.9267 0.64429 0.0
C1355 C 0.0821 0.94598 0.62439 0.0
C1356 C 0.06644 0.94036 0.61005 0.0
C1357 C 0.10892 0.92393 0.62942 0.0
C1358 C 0.07941 0.91448 0.60032 0.0
C1359 C 0.10663 0.89337 0.60499 0.0
H1360 H 0.31881 0.79764 0.87243 0.0
H1361 H 0.33164 0.84851 0.82872 0.0
H1362 H 0.35845 0.89817 0.84129 0.0
H1363 H 0.38662 0.92297 0.86407 0.0
H1364 H 0.37403 0.87307 0.90783 0.0
H1365 H 0.3389 0.82732 0.89596 0.0
C1366 C 0.32669 0.81994 0.86569 0.0
C1367 C 0.32372 0.81901 0.84959 0.0
C1368 C 0.34261 0.84845 0.873 0.0
C1369 C 0.33407 0.84822 0.84108 0.0
C1370 C 0.34951 0.87668 0.84826 0.0
C1371 C 0.37506 0.9027 0.87104 0.0
C1372 C 0.3824 0.90144 0.88676 0.0
C1373 C 0.35514 0.87648 0.86411 0.0
C1374 C 0.36796 0.87487 0.89573 0.0
C1375 C 0.34824 0.84851 0.88891 0.0
H1376 H 0.38246 0.95743 0.39302 0.0
H1377 H 0.47832 0.90875 0.37939 0.0
H1378 H 0.44647 0.86809 0.36331 0.0
H1379 H 0.39095 0.84343 0.35476 0.0
H1380 H 0.29527 0.89438 0.36643 0.0
H1381 H 0.32747 0.93798 0.38133 0.0
C1382 C 0.39644 0.9381 0.38646 0.0
C1383 C 0.43267 0.93501 0.38804 0.0
C1384 C 0.37797 0.9155 0.37679 0.0
C1385 C 0.45038 0.91059 0.37902 0.0
C1386 C 0.4322 0.88756 0.36967 0.0
C1387 C 0.37733 0.86453 0.36038 0.0
C1388 C 0.34103 0.86594 0.3597 0.0
C1389 C 0.39596 0.88927 0.36877 0.0
C1390 C 0.32332 0.89319 0.36683 0.0
C1391 C 0.3417 0.91781 0.37541 0.0
H1392 H 0.4232 0.13108 0.61618 0.0
H1393 H 0.3442 0.05423 0.60813 0.0
H1394 H 0.30064 0.09249 0.62026 0.0
H1395 H 0.28621 0.14873 0.63378 0.0
H1396 H 0.36948 0.22231 0.64101 0.0
H1397 H 0.40982 0.18448 0.62865 0.0
C1398 C 0.39644 0.12247 0.61712 0.0
C1399 C 0.38693 0.08985 0.6115 0.0
C1400 C 0.37222 0.14419 0.62403 0.0
C1401 C 0.35206 0.0794 0.61241 0.0
C1402 C 0.3273 0.10121 0.61941 0.0
C1403 C 0.3132 0.15626 0.63273 0.0
C1404 C 0.32444 0.18865 0.63857 0.0
C1405 C 0.33718 0.13377 0.62542 0.0
C1406 C 0.35962 0.19784 0.63691 0.0
C1407 C 0.38304 0.17614 0.62972 0.0
H1408 H 0.04991 0.10231 0.89685 0.0
H1409 H 0.08575 0.00642 0.8772 0.0
H1410 H 0.1338 0.03753 0.86454 0.0
H1411 H 0.1638 0.09398 0.85805 0.0
H1412 H 0.12407 0.1879 0.87868 0.0
H1413 H 0.0793 0.15572 0.89153 0.0
C1414 C 0.06821 0.08803 0.88982 0.0
C1415 C 0.06406 0.05223 0.88785 0.0
C1416 C 0.0951 0.10594 0.88256 0.0
C1417 C 0.08846 0.03409 0.87894 0.0
C1418 C 0.11575 0.05194 0.8716 0.0
C1419 C 0.14543 0.10714 0.86543 0.0
C1420 C 0.14786 0.14336 0.86747 0.0
C1421 C 0.11909 0.08816 0.87314 0.0
C1422 C 0.12361 0.16006 0.87704 0.0
C1423 C 0.09765 0.14171 0.88443 0.0
H1424 H 0.17541 0.79489 0.12343 0.0
H1425 H 0.16955 0.85094 0.16616 0.0
H1426 H 0.14495 0.90086 0.15291 0.0
H1427 H 0.11671 0.92488 0.13 0.0
H1428 H 0.12079 0.86872 0.08742 0.0
H1429 H 0.15441 0.82257 0.09969 0.0
C1430 C 0.16951 0.81832 0.12978 0.0
C1431 C 0.1739 0.819 0.14582 0.0
C1432 C 0.1547 0.84679 0.12211 0.0
C1433 C 0.16598 0.84954 0.15387 0.0
C1434 C 0.15188 0.87811 0.1463 0.0
C1435 C 0.12626 0.90315 0.12332 0.0
C1436 C 0.11712 0.90037 0.10782 0.0
C1437 C 0.14495 0.87655 0.13054 0.0
C1438 C 0.12861 0.87179 0.09928 0.0
C1439 C 0.14735 0.8452 0.10636 0.0
H1440 H 0.57872 0.96482 0.87091 0.0
H1441 H 0.56328 0.90425 0.9119 0.0
H1442 H 0.60898 0.86448 0.90407 0.0
H1443 H 0.64743 0.84261 0.88421 0.0
H1444 H 0.6612 0.89982 0.8422 0.0
H1445 H 0.62262 0.94546 0.85181 0.0
C1446 C 0.58618 0.94347 0.87828 0.0
C1447 C 0.56778 0.93741 0.89196 0.0
C1448 C 0.61184 0.91986 0.87342 0.0
C1449 C 0.57714 0.90935 0.90132 0.0
C1450 C 0.60314 0.88652 0.89682 0.0
C1451 C 0.64247 0.86534 0.87723 0.0
C1452 C 0.65686 0.86769 0.86247 0.0
C1453 C 0.61975 0.89083 0.88266 0.0
C1454 C 0.65044 0.89743 0.85363 0.0
C1455 C 0.6282 0.92341 0.85909 0.0
H1456 H 0.89477 0.90676 0.63349 0.0
H1457 H 0.85279 0.89861 0.5879 0.0
H1458 H 0.80754 0.85902 0.59729 0.0
H1459 H 0.78503 0.82082 0.61802 0.0
H1460 H 0.83052 0.82713 0.66301 0.0
H1461 H 0.86874 0.87392 0.65448 0.0
C1462 C 0.87523 0.89688 0.62567 0.0
C1463 C 0.87706 0.90542 0.61005 0.0
C1464 C 0.84994 0.87376 0.6311 0.0
C1465 C 0.85163 0.89262 0.60002 0.0
C1466 C 0.82598 0.86976 0.60537 0.0
C1467 C 0.8026 0.83331 0.62601 0.0
C1468 C 0.80488 0.82097 0.64114 0.0
C1469 C 0.82549 0.85936 0.62082 0.0
C1470 C 0.82828 0.83652 0.65135 0.0
C1471 C 0.85025 0.86306 0.64645 0.0
H1472 H 0.88971 0.15697 0.3544 0.0
H1473 H 0.7993 0.097 0.36606 0.0
H1474 H 0.83614 0.05376 0.37901 0.0
H1475 H 0.89462 0.03628 0.38891 0.0
H1476 H 0.98358 0.09839 0.37609 0.0
H1477 H 0.9469 0.13736 0.36187 0.0
C1478 C 0.87819 0.13404 0.35955 0.0
C1479 C 0.84216 0.12984 0.3593 0.0
C1480 C 0.89931 0.10995 0.36702 0.0
C1481 C 0.8272 0.10035 0.36603 0.0
C1482 C 0.84824 0.0759 0.37353 0.0
C1483 C 0.90591 0.05814 0.38288 0.0
C1484 C 0.94187 0.06465 0.38399 0.0
C1485 C 0.88442 0.08085 0.37441 0.0
C1486 C 0.95602 0.093 0.37591 0.0
C1487 C 0.93508 0.11537 0.36761 0.0
H1488 H 0.64357 0.18767 0.14989 0.0
H1489 H 0.7306 0.16626 0.12042 0.0
H1490 H 0.69716 0.12041 0.10751 0.0
H1491 H 0.64071 0.08978 0.10332 0.0
H1492 H 0.5552 0.11253 0.13375 0.0
H1493 H 0.59035 0.15442 0.14739 0.0
C1494 C 0.65535 0.17279 0.14071 0.0
C1495 C 0.6893 0.18053 0.13599 0.0
C1496 C 0.63604 0.14682 0.13339 0.0
C1497 C 0.70448 0.16064 0.12429 0.0
C1498 C 0.68526 0.13464 0.11683 0.0
C1499 C 0.63002 0.1036 0.11305 0.0
C1500 C 0.59518 0.09805 0.11737 0.0
C1501 C 0.65065 0.12795 0.12107 0.0
C1502 C 0.5818 0.11619 0.13006 0.0
C1503 C 0.60188 0.1403 0.13793 0.0
H1504 H 0.65472 0.14563 0.61471 0.0
H1505 H 0.66089 0.09708 0.6591 0.0
H1506 H 0.62123 0.05119 0.65051 0.0
H1507 H 0.57875 0.02946 0.63128 0.0
H1508 H 0.57053 0.08199 0.58783 0.0
H1509 H 0.61724 0.12137 0.59502 0.0
C1510 C 0.64794 0.12465 0.62244 0.0
C1511 C 0.66059 0.12483 0.63753 0.0
C1512 C 0.62451 0.0991 0.61757 0.0
C1513 C 0.65167 0.0974 0.64738 0.0
C1514 C 0.62875 0.07132 0.6425 0.0
C1515 C 0.58799 0.04893 0.62328 0.0
C1516 C 0.57144 0.05276 0.60901 0.0
C1517 C 0.61417 0.07247 0.62775 0.0
C1518 C 0.583 0.07852 0.59884 0.0
C1519 C 0.60959 0.10115 0.60297 0.0
H1520 H 0.64767 0.81226 0.34594 0.0
H1521 H 0.73278 0.82719 0.37719 0.0
H1522 H 0.70047 0.87328 0.39033 0.0
H1523 H 0.64514 0.9056 0.39432 0.0
H1524 H 0.56137 0.88964 0.36223 0.0
H1525 H 0.59587 0.8479 0.34818 0.0
C1526 C 0.65936 0.8259 0.35551 0.0
C1527 C 0.69244 0.81615 0.36065 0.0
C1528 C 0.64063 0.85208 0.363 0.0
C1529 C 0.70741 0.83435 0.37295 0.0
C1530 C 0.68879 0.86051 0.38055 0.0
C1531 C 0.63474 0.8934 0.38411 0.0
C1532 C 0.60052 0.90074 0.37946 0.0
C1533 C 0.65497 0.86909 0.37589 0.0
C1534 C 0.58749 0.88458 0.36618 0.0
C1535 C 0.6072 0.86054 0.35809 0.0
H1536 H 0.85267 0.84457 0.11537 0.0
H1537 H 0.84084 0.90468 0.15668 0.0
H1538 H 0.87914 0.94973 0.14611 0.0
H1539 H 0.92224 0.96788 0.12631 0.0
H1540 H 0.93539 0.90448 0.08601 0.0
H1541 H 0.89009 0.86514 0.09486 0.0
C1542 C 0.85802 0.86778 0.122 0.0
C1543 C 0.84427 0.87115 0.13683 0.0
C1544 C 0.8805 0.89295 0.116 0.0
C1545 C 0.85113 0.90151 0.14521 0.0
C1546 C 0.87321 0.92715 0.1392 0.0
C1547 C 0.91436 0.946 0.11932 0.0
C1548 C 0.93202 0.93905 0.10552 0.0
C1549 C 0.88891 0.92265 0.12477 0.0
C1550 C 0.92211 0.91029 0.09666 0.0
C1551 C 0.89635 0.8877 0.10175 0.0
H1552 H 0.88694 0.13081 0.89895 0.0
H1553 H 0.86239 0.04763 0.86796 0.0
H1554 H 0.82249 0.08567 0.85384 0.0
H1555 H 0.80018 0.14516 0.84863 0.0
H1556 H 0.83091 0.22871 0.87858 0.0
H1557 H 0.86247 0.18834 0.89481 0.0
C1558 C 0.87191 0.12084 0.88939 0.0
C1559 C 0.87666 0.08649 0.88466 0.0
C1560 C 0.85057 0.14325 0.88099 0.0
C1561 C 0.85828 0.0739 0.87195 0.0
C1562 C 0.83584 0.09576 0.86381 0.0
C1563 C 0.8133 0.15422 0.85886 0.0
C1564 C 0.81334 0.18983 0.8624 0.0
C1565 C 0.83254 0.13085 0.86795 0.0
C1566 C 0.83076 0.20144 0.87558 0.0
C1567 C 0.84879 0.17839 0.88489 0.0
H1568 H 0.89516 0.58245 0.59101 0.0
H1569 H 0.97048 0.56966 0.62703 0.0
H1570 H 0.92998 0.59413 0.64562 0.0
H1571 H 0.87646 0.62732 0.65075 0.0
H1572 H 0.80202 0.64142 0.6146 0.0
H1573 H 0.83801 0.60727 0.59711 0.0
C1574 C 0.90231 0.58423 0.60301 0.0
C1575 C 0.9358 0.57442 0.60761 0.0
C1576 C 0.87889 0.59847 0.61365 0.0
C1577 C 0.94475 0.57676 0.6232 0.0
C1578 C 0.92167 0.59099 0.63384 0.0
C1579 C 0.86758 0.62154 0.63923 0.0
C1580 C 0.83656 0.63623 0.63394 0.0
C1581 C 0.88907 0.60294 0.62911 0.0
C1582 C 0.82565 0.62978 0.61888 0.0
C1583 C 0.84641 0.61065 0.60886 0.0
H1584 H 0.64543 0.59976 0.89786 0.0
H1585 H 0.57329 0.59375 0.86013 0.0
H1586 H 0.60842 0.63377 0.84535 0.0
H1587 H 0.6559 0.67552 0.84399 0.0
H1588 H 0.73025 0.68151 0.88062 0.0
H1589 H 0.69846 0.63655 0.89488 0.0
C1590 C 0.63791 0.60668 0.8863 0.0
C1591 C 0.60644 0.59413 0.88025 0.0
C1592 C 0.6585 0.62999 0.87767 0.0
C1593 C 0.59706 0.60336 0.86521 0.0
C1594 C 0.61715 0.62632 0.85669 0.0
C1595 C 0.66554 0.66631 0.85493 0.0
C1596 C 0.69525 0.68153 0.86126 0.0
C1597 C 0.64731 0.64054 0.86294 0.0
C1598 C 0.70758 0.66968 0.87547 0.0
C1599 C 0.68924 0.64422 0.88366 0.0
H1600 H 0.67749 0.36639 0.11493 0.0
H1601 H 0.62612 0.37333 0.15861 0.0
H1602 H 0.58033 0.40904 0.14723 0.0
H1603 H 0.55055 0.43003 0.12383 0.0
H1604 H 0.60296 0.42227 0.08021 0.0
H1605 H 0.65298 0.39615 0.0926 0.0
C1606 C 0.65697 0.37697 0.12204 0.0
C1607 C 0.65526 0.36774 0.13756 0.0
C1608 C 0.63062 0.39698 0.11536 0.0
C1609 C 0.62831 0.38089 0.14669 0.0
C1610 C 0.60188 0.40087 0.14012 0.0
C1611 C 0.57328 0.42349 0.1171 0.0
C1612 C 0.57265 0.42756 0.10104 0.0
C1613 C 0.60207 0.40794 0.12431 0.0
C1614 C 0.60242 0.41895 0.09254 0.0
C1615 C 0.63111 0.40392 0.09961 0.0
H1616 H 0.81353 0.29274 0.37901 0.0
H1617 H 0.79297 0.35037 0.33777 0.0
H1618 H 0.82503 0.40031 0.34806 0.0
H1619 H 0.8652 0.4244 0.3677 0.0
H1620 H 0.88173 0.36757 0.40953 0.0
H1621 H 0.84487 0.32045 0.40024 0.0
C1622 C 0.8155 0.31655 0.37244 0.0
C1623 C 0.80129 0.318 0.35765 0.0
C1624 C 0.83343 0.3451 0.37852 0.0
C1625 C 0.80368 0.34888 0.34922 0.0
C1626 C 0.82219 0.37727 0.35506 0.0
C1627 C 0.8597 0.40213 0.3749 0.0
C1628 C 0.87574 0.39934 0.38929 0.0
C1629 C 0.83802 0.37531 0.36953 0.0
C1630 C 0.86903 0.37036 0.39853 0.0
C1631 C 0.84826 0.34331 0.39316 0.0
H1632 H 0.83126 0.3661 0.88099 0.0
H1633 H 0.86552 0.38779 0.835 0.0
H1634 H 0.91102 0.42621 0.84497 0.0
H1635 H 0.94563 0.4475 0.86711 0.0
H1636 H 0.90977 0.42709 0.91299 0.0
H1637 H 0.86023 0.39444 0.90284 0.0
C1638 C 0.84795 0.38025 0.87315 0.0
C1639 C 0.84484 0.3745 0.85728 0.0
C1640 C 0.87412 0.40203 0.87901 0.0
C1641 C 0.8669 0.39248 0.84722 0.0
C1642 C 0.89326 0.41401 0.85296 0.0
C1643 C 0.92646 0.4365 0.87482 0.0
C1644 C 0.93114 0.43959 0.89077 0.0
C1645 C 0.89781 0.41809 0.86885 0.0
C1646 C 0.90641 0.42517 0.9007 0.0
C1647 C 0.87822 0.40642 0.89489 0.0
H1648 H 0.89824 0.59794 0.13118 0.0
H1649 H 0.84298 0.59314 0.0883 0.0
H1650 H 0.80025 0.63477 0.09821 0.0
H1651 H 0.78345 0.67828 0.11804 0.0
H1652 H 0.84371 0.68552 0.15955 0.0
H1653 H 0.87973 0.63725 0.1512 0.0
C1654 C 0.87658 0.60552 0.12401 0.0
C1655 C 0.87395 0.59262 0.10896 0.0
C1656 C 0.85323 0.63029 0.12954 0.0
C1657 C 0.84554 0.60257 0.09994 0.0
C1658 C 0.82132 0.62662 0.10557 0.0
C1659 C 0.80396 0.66866 0.12536 0.0
C1660 C 0.8109 0.68538 0.13942 0.0
C1661 C 0.82554 0.6415 0.1202 0.0
C1662 C 0.83792 0.6731 0.1487 0.0
C1663 C 0.85856 0.64555 0.14392 0.0
H1664 H 0.54854 0.56646 0.37734 0.0
H1665 H 0.5951 0.58673 0.42143 0.0
H1666 H 0.64458 0.61423 0.40896 0.0
H1667 H 0.6703 0.64034 0.38588 0.0
H1668 H 0.62474 0.6204 0.34175 0.0
H1669 H 0.57935 0.58497 0.35379 0.0
C1670 C 0.56986 0.57618 0.38422 0.0
C1671 C 0.56771 0.57498 0.40036 0.0
C1672 C 0.59828 0.59243 0.37694 0.0
C1673 C 0.59571 0.58769 0.40903 0.0
C1674 C 0.62407 0.60353 0.4019 0.0
C1675 C 0.65106 0.62721 0.3789 0.0
C1676 C 0.65092 0.63256 0.36299 0.0
C1677 C 0.62502 0.60718 0.38593 0.0
C1678 C 0.62571 0.61593 0.354 0.0
C1679 C 0.59953 0.59606 0.36092 0.0
H1680 H 0.69369 0.2963 0.61669 0.0
H1681 H 0.69349 0.34303 0.66151 0.0
H1682 H 0.66116 0.39287 0.65154 0.0
H1683 H 0.62664 0.41908 0.63068 0.0
H1684 H 0.62995 0.37417 0.58552 0.0
H1685 H 0.66794 0.32795 0.59482 0.0
C1686 C 0.68719 0.31785 0.62414 0.0
C1687 C 0.69565 0.31619 0.63978 0.0
C1688 C 0.66917 0.34659 0.61825 0.0
C1689 C 0.68727 0.34404 0.64941 0.0
C1690 C 0.66868 0.37238 0.64372 0.0
C1691 C 0.63675 0.39981 0.62281 0.0
C1692 C 0.62585 0.40001 0.60745 0.0
C1693 C 0.65868 0.37346 0.62826 0.0
C1694 C 0.63863 0.37482 0.59732 0.0
C1695 C 0.65995 0.34815 0.6027 0.0
H1696 H 0.07946 0.46735 0.37142 0.0
H1697 H 0.05338 0.39933 0.40896 0.0
H1698 H 0.09917 0.35952 0.40143 0.0
H1699 H 0.14192 0.3407 0.38282 0.0
H1700 H 0.16668 0.40511 0.34394 0.0
H1701 H 0.12683 0.44985 0.35343 0.0
C1702 C 0.08452 0.44424 0.37811 0.0
C1703 C 0.06315 0.43631 0.39075 0.0
C1704 C 0.11046 0.42064 0.3734 0.0
C1705 C 0.06949 0.40598 0.3992 0.0
C1706 C 0.09561 0.38312 0.39488 0.0
C1707 C 0.13907 0.36473 0.37649 0.0
C1708 C 0.1571 0.36944 0.36264 0.0
C1709 C 0.11554 0.38968 0.38178 0.0
C1710 C 0.15317 0.40085 0.35466 0.0
C1711 C 0.13019 0.42634 0.36005 0.0
H1712 H 0.39461 0.41842 0.13391 0.0
H1713 H 0.37688 0.37061 0.09003 0.0
H1714 H 0.34004 0.3264 0.10212 0.0
H1715 H 0.31884 0.2976 0.12574 0.0
H1716 H 0.33644 0.34681 0.1695 0.0
H1717 H 0.36634 0.39463 0.15689 0.0
C1718 C 0.3819 0.39879 0.12699 0.0
C1719 C 0.38826 0.39768 0.11116 0.0
C1720 C 0.36082 0.37361 0.13402 0.0
C1721 C 0.37186 0.37218 0.10223 0.0
C1722 C 0.35108 0.34674 0.10917 0.0
C1723 C 0.3285 0.31917 0.13249 0.0
C1724 C 0.3258 0.31823 0.14861 0.0
C1725 C 0.34614 0.34664 0.12514 0.0
C1726 C 0.3385 0.34651 0.15712 0.0
C1727 C 0.35574 0.3739 0.14992 0.0
H1728 H 0.32533 0.63377 0.88256 0.0
H1729 H 0.38421 0.63602 0.84064 0.0
H1730 H 0.42935 0.60013 0.85236 0.0
H1731 H 0.45454 0.57323 0.8754 0.0
H1732 H 0.39583 0.57178 0.91751 0.0
H1733 H 0.34762 0.60096 0.90476 0.0
C1734 C 0.34764 0.62548 0.87593 0.0
C1735 C 0.3514 0.6369 0.86075 0.0
C1736 C 0.37346 0.60495 0.88279 0.0
C1737 C 0.38055 0.62672 0.85225 0.0
C1738 C 0.40646 0.60648 0.859 0.0
C1739 C 0.43087 0.57849 0.8817 0.0
C1740 C 0.42888 0.57043 0.89744 0.0
C1741 C 0.40352 0.59603 0.87437 0.0
C1742 C 0.39814 0.57789 0.90544 0.0
C1743 C 0.3706 0.59472 0.89817 0.0
H1744 H 0.21222 0.67393 0.62102 0.0
H1745 H 0.14502 0.69432 0.65958 0.0
H1746 H 0.10528 0.6492 0.65108 0.0
H1747 H 0.08659 0.60819 0.63159 0.0
H1748 H 0.15125 0.58845 0.59221 0.0
H1749 H 0.19516 0.62858 0.60221 0.0
C1750 C 0.18928 0.66788 0.62772 0.0
C1751 C 0.18155 0.68756 0.64088 0.0
C1752 C 0.1659 0.64223 0.62255 0.0
C1753 C 0.1515 0.67972 0.64935 0.0
C1754 C 0.12867 0.65395 0.6445 0.0
C1755 C 0.11048 0.61225 0.62526 0.0
C1756 C 0.11554 0.59551 0.61113 0.0
C1757 C 0.13514 0.63572 0.63092 0.0
C1758 C 0.14671 0.60103 0.60312 0.0
C1759 C 0.17176 0.62409 0.60881 0.0
H1760 H 0.11174 0.64409 0.14764 0.0
H1761 H 0.19964 0.61775 0.11961 0.0
H1762 H 0.16382 0.57676 0.10487 0.0
H1763 H 0.10549 0.5533 0.09835 0.0
H1764 H 0.01788 0.58282 0.12634 0.0
H1765 H 0.05533 0.61745 0.1426 0.0
C1766 C 0.12313 0.62866 0.13853 0.0
C1767 C 0.15814 0.63331 0.13476 0.0
C1768 C 0.10221 0.60609 0.12993 0.0
C1769 C 0.17271 0.61399 0.12277 0.0
C1770 C 0.15217 0.59083 0.1143 0.0
C1771 C 0.09476 0.56681 0.10815 0.0
C1772 C 0.05875 0.56558 0.11094 0.0
C1773 C 0.11657 0.58732 0.11751 0.0
C1774 C 0.04535 0.58344 0.12373 0.0
C1775 C 0.06677 0.60333 0.13311 0.0
H1776 H 0.12753 0.37087 0.90201 0.0
H1777 H 0.12275 0.44742 0.86625 0.0
H1778 H 0.16477 0.41454 0.85095 0.0
H1779 H 0.19581 0.3594 0.8462 0.0
H1780 H 0.19557 0.28077 0.88134 0.0
H1781 H 0.16303 0.31873 0.89837 0.0
C1782 C 0.13678 0.38083 0.89111 0.0
C1783 C 0.12283 0.41167 0.88532 0.0
C1784 C 0.15957 0.36093 0.88211 0.0
C1785 C 0.1338 0.42393 0.87097 0.0
C1786 C 0.15752 0.40496 0.86218 0.0
C1787 C 0.18943 0.35105 0.85773 0.0
C1788 C 0.19803 0.31728 0.86246 0.0
C1789 C 0.16962 0.37273 0.86738 0.0
C1790 C 0.18911 0.30659 0.87738 0.0
C1791 C 0.17043 0.32826 0.88715 0.0
H1792 H 0.4004 0.43828 0.59747 0.0
H1793 H 0.47471 0.43853 0.63429 0.0
H1794 H 0.43307 0.40966 0.65113 0.0
H1795 H 0.37833 0.37764 0.65442 0.0
H1796 H 0.30662 0.3709 0.61683 0.0
H1797 H 0.34365 0.40908 0.60137 0.0
C1798 C 0.40699 0.43272 0.6093 0.0
C1799 C 0.44038 0.44083 0.61471 0.0
C1800 C 0.38325 0.41478 0.61878 0.0
C1801 C 0.44906 0.43271 0.62992 0.0
C1802 C 0.42528 0.41611 0.63955 0.0
C1803 C 0.37024 0.38583 0.64308 0.0
C1804 C 0.33931 0.37264 0.63692 0.0
C1805 C 0.39262 0.40624 0.63401 0.0
C1806 C 0.32983 0.38179 0.62193 0.0
C1807 C 0.35124 0.40322 0.61304 0.0
H1808 H 0.28389 0.66618 0.37548 0.0
H1809 H 0.35008 0.68733 0.3367 0.0
H1810 H 0.39106 0.64351 0.34533 0.0
H1811 H 0.41123 0.60389 0.36522 0.0
H1812 H 0.34692 0.58362 0.40469 0.0
H1813 H 0.30205 0.62195 0.39446 0.0
C1814 C 0.30684 0.66045 0.36875 0.0
C1815 C 0.31404 0.67999 0.35552 0.0
C1816 C 0.33087 0.63567 0.37401 0.0
C1817 C 0.34412 0.67274 0.34699 0.0
C1818 C 0.36762 0.64775 0.35193 0.0
C1819 C 0.38718 0.60742 0.37148 0.0
C1820 C 0.3825 0.59105 0.38571 0.0
C1821 C 0.36179 0.62982 0.36565 0.0
C1822 C 0.35114 0.59585 0.39367 0.0
C1823 C 0.32552 0.6179 0.38786 0.0
H1824 H 0.06913 0.09483 0.12558 0.0
H1825 H 0.14304 0.01745 0.11181 0.0
H1826 H 0.19107 0.05673 0.11806 0.0
H1827 H 0.21197 0.11392 0.1271 0.0
H1828 H 0.13785 0.1929 0.13877 0.0
H1829 H 0.08996 0.1526 0.13377 0.0
C1830 C 0.09581 0.08678 0.124 0.0
C1831 C 0.10271 0.0535 0.11826 0.0
C1832 C 0.12316 0.10984 0.12725 0.0
C1833 C 0.13728 0.04315 0.11609 0.0
C1834 C 0.16466 0.06553 0.11972 0.0
C1835 C 0.18529 0.12204 0.12863 0.0
C1836 C 0.17827 0.15613 0.13338 0.0
C1837 C 0.15794 0.09901 0.12527 0.0
C1838 C 0.14368 0.16675 0.13509 0.0
C1839 C 0.11638 0.14373 0.13225 0.0
H1840 H 0.21575 0.88111 0.36784 0.0
H1841 H 0.14512 0.79475 0.36712 0.0
H1842 H 0.09664 0.83323 0.37372 0.0
H1843 H 0.07475 0.89167 0.38015 0.0
H1844 H 0.14634 0.97723 0.38291 0.0
H1845 H 0.19416 0.93929 0.37518 0.0
C1846 C 0.18958 0.87107 0.36897 0.0
C1847 C 0.18351 0.83551 0.36674 0.0
C1848 C 0.16225 0.89319 0.37328 0.0
C1849 C 0.14991 0.82223 0.3686 0.0
C1850 C 0.12239 0.84416 0.37243 0.0
C1851 C 0.10087 0.90182 0.37906 0.0
C1852 C 0.10713 0.93706 0.38211 0.0
C1853 C 0.12827 0.87967 0.37488 0.0
C1854 C 0.14108 0.95006 0.3808 0.0
C1855 C 0.16832 0.92844 0.37628 0.0
H1856 H 0.29027 0.87118 0.61496 0.0
H1857 H 0.34302 0.81892 0.65165 0.0
H1858 H 0.39367 0.8571 0.64827 0.0
H1859 H 0.42268 0.90538 0.63458 0.0
H1860 H 0.36717 0.95926 0.59889 0.0
H1861 H 0.31807 0.92041 0.60206 0.0
C1862 C 0.313 0.86816 0.62213 0.0
C1863 C 0.31334 0.84222 0.63341 0.0
C1864 C 0.3415 0.89043 0.62025 0.0
C1865 C 0.34245 0.83882 0.64291 0.0
C1866 C 0.37129 0.86055 0.64093 0.0
C1867 C 0.39983 0.90862 0.62752 0.0
C1868 C 0.39914 0.93492 0.61631 0.0
C1869 C 0.37112 0.88647 0.62961 0.0
C1870 C 0.36916 0.93873 0.60727 0.0
C1871 C 0.34076 0.91668 0.60918 0.0
H1872 H 0.36039 0.16965 0.86087 0.0
H1873 H 0.27221 0.11762 0.88092 0.0
H1874 H 0.30962 0.07047 0.88954 0.0
H1875 H 0.36747 0.04285 0.89052 0.0
H1876 H 0.45477 0.09463 0.86981 0.0
H1877 H 0.41789 0.14347 0.86262 0.0
C1878 C 0.34936 0.14834 0.86733 0.0
C1879 C 0.31347 0.14731 0.87022 0.0
C1880 C 0.37099 0.12129 0.87221 0.0
C1881 C 0.29964 0.11896 0.87836 0.0
C1882 C 0.32107 0.09205 0.88338 0.0
C1883 C 0.37838 0.06518 0.88469 0.0
C1884 C 0.41375 0.06539 0.88074 0.0
C1885 C 0.35678 0.0928 0.88028 0.0
C1886 C 0.42758 0.09405 0.87291 0.0
C1887 C 0.40651 0.12187 0.86879 0.0
H1888 H 0.9263 0.88907 0.88142 0.0
H1889 H 0.86135 0.97817 0.87464 0.0
H1890 H 0.81233 0.94058 0.86773 0.0
H1891 H 0.78783 0.88192 0.86422 0.0
H1892 H 0.85115 0.79266 0.87329 0.0
H1893 H 0.90119 0.83023 0.87866 0.0
C1894 C 0.90132 0.89993 0.8784 0.0
C1895 C 0.89703 0.93598 0.87845 0.0
C1896 C 0.87323 0.8781 0.87483 0.0
C1897 C 0.86477 0.9503 0.87467 0.0
C1898 C 0.83695 0.92888 0.8707 0.0
C1899 C 0.81278 0.87094 0.86721 0.0
C1900 C 0.8163 0.83482 0.86819 0.0
C1901 C 0.84085 0.89273 0.87078 0.0
C1902 C 0.84828 0.82051 0.87241 0.0
C1903 C 0.8767 0.84193 0.8755 0.0
H1904 H 0.89027 0.07182 0.60105 0.0
H1905 H 0.89919 0.03917 0.64817 0.0
H1906 H 0.85672 0.08211 0.65592 0.0
H1907 H 0.81782 0.13039 0.6496 0.0
H1908 H 0.80722 0.16205 0.60244 0.0
H1909 H 0.84905 0.11842 0.59455 0.0
C1910 C 0.88271 0.07394 0.61298 0.0
C1911 C 0.89858 0.05255 0.62397 0.0
C1912 C 0.8579 0.0988 0.61744 0.0
C1913 C 0.88834 0.05577 0.63943 0.0
C1914 C 0.86372 0.08024 0.64391 0.0
C1915 C 0.82445 0.12758 0.63759 0.0
C1916 C 0.80961 0.14999 0.62673 0.0
C1917 C 0.84854 0.10216 0.63306 0.0
C1918 C 0.81872 0.14591 0.61118 0.0
C1919 C 0.84255 0.12068 0.6066 0.0
H1920 H 0.63316 0.0369 0.37765 0.0
H1921 H 0.55127 0.10948 0.38709 0.0
H1922 H 0.58994 0.15805 0.38112 0.0
H1923 H 0.64672 0.17978 0.3725 0.0
H1924 H 0.72778 0.1073 0.36149 0.0
H1925 H 0.69005 0.05878 0.36861 0.0
C1926 C 0.62412 0.06342 0.37853 0.0
C1927 C 0.58965 0.06985 0.38287 0.0
C1928 C 0.64625 0.09112 0.37463 0.0
C1929 C 0.57778 0.10416 0.38375 0.0
C1930 C 0.59983 0.13184 0.38033 0.0
C1931 C 0.65599 0.15332 0.3717 0.0
C1932 C 0.68977 0.14705 0.36642 0.0
C1933 C 0.63401 0.12562 0.37562 0.0
C1934 C 0.70162 0.11269 0.3653 0.0
C1935 C 0.68016 0.08498 0.36948 0.0
H1936 H 0.67113 0.83277 0.11042 0.0
H1937 H 0.70299 0.87717 0.15367 0.0
H1938 H 0.65901 0.92153 0.15135 0.0
H1939 H 0.61145 0.94873 0.13704 0.0
H1940 H 0.58222 0.90829 0.09297 0.0
H1941 H 0.62533 0.86178 0.09546 0.0
C1942 C 0.66866 0.85217 0.11932 0.0
C1943 C 0.6904 0.85087 0.13231 0.0
C1944 C 0.64369 0.87854 0.11774 0.0
C1945 C 0.68638 0.87644 0.14372 0.0
C1946 C 0.66129 0.90228 0.14235 0.0
C1947 C 0.61457 0.92957 0.12805 0.0
C1948 C 0.59368 0.93149 0.11492 0.0
C1949 C 0.63979 0.90355 0.12946 0.0
C1950 C 0.59818 0.90711 0.10315 0.0
C1951 C 0.62271 0.88058 0.10462 0.0
H1952 H 0.58212 0.58534 0.6343 0.0
H1953 H 0.64043 0.53997 0.59693 0.0
H1954 H 0.68505 0.58337 0.60007 0.0
H1955 H 0.70844 0.63455 0.61331 0.0
H1956 H 0.65288 0.67832 0.65141 0.0
H1957 H 0.60638 0.63522 0.64811 0.0
C1958 C 0.60447 0.58452 0.62682 0.0
C1959 C 0.60715 0.55876 0.61535 0.0
C1960 C 0.63074 0.60957 0.62879 0.0
C1961 C 0.63678 0.55902 0.60584 0.0
C1962 C 0.6627 0.58403 0.60761 0.0
C1963 C 0.68598 0.63461 0.62079 0.0
C1964 C 0.68363 0.65958 0.63246 0.0
C1965 C 0.65994 0.60943 0.619 0.0
C1966 C 0.65495 0.65923 0.64235 0.0
C1967 C 0.62849 0.63467 0.64043 0.0
H1968 H 0.71579 0.38553 0.86811 0.0
H1969 H 0.64673 0.29836 0.86407 0.0
H1970 H 0.59682 0.33565 0.86978 0.0
H1971 H 0.57326 0.39303 0.87666 0.0
H1972 H 0.64312 0.47941 0.88242 0.0
H1973 H 0.69234 0.44274 0.87557 0.0
C1974 C 0.68969 0.37503 0.86836 0.0
C1975 C 0.68452 0.33959 0.86552 0.0
C1976 C 0.66144 0.39643 0.87214 0.0
C1977 C 0.65091 0.32573 0.86616 0.0
C1978 C 0.62255 0.34699 0.86944 0.0
C1979 C 0.59925 0.40376 0.87632 0.0
C1980 C 0.60451 0.43883 0.88005 0.0
C1981 C 0.62752 0.38236 0.87256 0.0
C1982 C 0.63841 0.45238 0.87978 0.0
C1983 C 0.66656 0.43149 0.87576 0.0
H1984 H 0.92347 0.39169 0.11406 0.0
H1985 H 0.85824 0.48017 0.12294 0.0
H1986 H 0.81139 0.44196 0.13125 0.0
H1987 H 0.78788 0.38292 0.13507 0.0
H1988 H 0.85206 0.29467 0.12513 0.0
H1989 H 0.9007 0.33301 0.11859 0.0
C1990 C 0.89921 0.40265 0.11801 0.0
C1991 C 0.89447 0.43881 0.11777 0.0
C1992 C 0.87221 0.38047 0.12271 0.0
C1993 C 0.86254 0.45246 0.12274 0.0
C1994 C 0.83574 0.43062 0.12761 0.0
C1995 C 0.81277 0.3723 0.13172 0.0
C1996 C 0.81677 0.3362 0.13068 0.0
C1997 C 0.84015 0.39456 0.12752 0.0
C1998 C 0.84873 0.32247 0.12602 0.0
C1999 C 0.87637 0.34435 0.12224 0.0
H2000 H 0.78132 0.61489 0.3722 0.0
H2001 H 0.85352 0.69668 0.36194 0.0
H2002 H 0.9025 0.65708 0.36619 0.0
H2003 H 0.92448 0.59899 0.37346 0.0
H2004 H 0.85169 0.51839 0.38518 0.0
H2005 H 0.80318 0.55723 0.37977 0.0
C2006 C 0.80787 0.62368 0.37082 0.0
C2007 C 0.81422 0.65823 0.36664 0.0
C2008 C 0.83562 0.60099 0.37362 0.0
C2009 C 0.84844 0.66996 0.36504 0.0
C2010 C 0.87627 0.64739 0.36751 0.0
C2011 C 0.89794 0.59011 0.37477 0.0
C2012 C 0.89156 0.55605 0.37978 0.0
C2013 C 0.87018 0.61285 0.37188 0.0
C2014 C 0.85714 0.54468 0.38155 0.0
C2015 C 0.82944 0.56681 0.37838 0.0
H2016 H 0.32388 0.3593 0.35054 0.0
H2017 H 0.29733 0.34004 0.39786 0.0
H2018 H 0.33957 0.38274 0.40614 0.0
H2019 H 0.38509 0.42536 0.40021 0.0
H2020 H 0.41182 0.44547 0.3531 0.0
H2021 H 0.36848 0.4034 0.34455 0.0
C2022 C 0.32718 0.3646 0.36264 0.0
C2023 C 0.3076 0.34586 0.37348 0.0
C2024 C 0.35167 0.38956 0.36744 0.0
C2025 C 0.31244 0.35316 0.38917 0.0
C2026 C 0.3365 0.37794 0.39398 0.0
C2027 C 0.38124 0.42063 0.38809 0.0
C2028 C 0.40192 0.43826 0.37734 0.0
C2029 C 0.35642 0.39617 0.38325 0.0
C2030 C 0.39674 0.43175 0.36164 0.0
C2031 C 0.3718 0.4078 0.35673 0.0
H2032 H 0.4285 0.60123 0.11995 0.0
H2033 H 0.35492 0.51811 0.11372 0.0
H2034 H 0.30738 0.55697 0.12058 0.0
H2035 H 0.28664 0.61506 0.12826 0.0
H2036 H 0.36047 0.69807 0.13395 0.0
H2037 H 0.40803 0.6588 0.12763 0.0
C2038 C 0.4021 0.59156 0.1202 0.0
C2039 C 0.39535 0.55681 0.11631 0.0
C2040 C 0.37493 0.61406 0.12413 0.0
C2041 C 0.36085 0.54484 0.11646 0.0
C2042 C 0.33366 0.56699 0.12049 0.0
C2043 C 0.3132 0.62434 0.12825 0.0
C2044 C 0.32011 0.65937 0.13156 0.0
C2045 C 0.34038 0.60168 0.12436 0.0
C2046 C 0.35455 0.67129 0.1313 0.0
C2047 C 0.38172 0.64884 0.12772 0.0
H2048 H 0.2112 0.60984 0.86583 0.0
H2049 H 0.14355 0.69837 0.86759 0.0
H2050 H 0.09368 0.6605 0.87248 0.0
H2051 H 0.06952 0.60192 0.87721 0.0
H2052 H 0.13806 0.51405 0.87743 0.0
H2053 H 0.18722 0.55146 0.87077 0.0
C2054 C 0.18544 0.62066 0.86713 0.0
C2055 C 0.18095 0.65676 0.86631 0.0
C2056 C 0.15708 0.59876 0.87037 0.0
C2057 C 0.14757 0.67064 0.86827 0.0
C2058 C 0.11909 0.649 0.87103 0.0
C2059 C 0.09523 0.59116 0.87567 0.0
C2060 C 0.10031 0.55544 0.87778 0.0
C2061 C 0.12354 0.61303 0.87226 0.0
C2062 C 0.13373 0.54158 0.87596 0.0
C2063 C 0.16177 0.56293 0.87212 0.0
H2064 H 0.18437 0.34031 0.60885 0.0
H2065 H 0.17969 0.35371 0.65792 0.0
H2066 H 0.13623 0.39885 0.65492 0.0
H2067 H 0.10007 0.43529 0.63843 0.0
H2068 H 0.10404 0.42233 0.58942 0.0
H2069 H 0.14694 0.37601 0.59231 0.0
C2070 C 0.17352 0.35267 0.6189 0.0
C2071 C 0.18557 0.34351 0.6336 0.0
C2072 C 0.14837 0.37877 0.61711 0.0
C2073 C 0.1714 0.3604 0.64646 0.0
C2074 C 0.14637 0.38619 0.64477 0.0
C2075 C 0.11005 0.42206 0.6284 0.0
C2076 C 0.09883 0.43212 0.61373 0.0
C2077 C 0.13478 0.39569 0.63016 0.0
C2078 C 0.11253 0.41522 0.60082 0.0
C2079 C 0.13692 0.38867 0.60248 0.0
H2080 H 0.28282 0.27194 0.22348 0.0
H2081 H 0.20165 0.1951 0.22184 0.0
H2082 H 0.1907 0.20299 0.24928 0.0
H2083 H 0.20433 0.23145 0.27362 0.0
H2084 H 0.28949 0.30431 0.27593 0.0
H2085 H 0.29813 0.29885 0.24835 0.0
C2086 C 0.26253 0.25723 0.22915 0.0
C2087 C 0.24275 0.23326 0.22065 0.0
C2088 C 0.25708 0.26121 0.24504 0.0
C2089 C 0.21702 0.21381 0.22815 0.0
C2090 C 0.21083 0.2183 0.24383 0.0
C2091 C 0.22531 0.24575 0.26828 0.0
C2092 C 0.24624 0.26826 0.27714 0.0
C2093 C 0.23087 0.24174 0.25242 0.0
C2094 C 0.2725 0.28717 0.26959 0.0
C2095 C 0.27768 0.28388 0.25375 0.0
H2096 H 0.96666 0.0336 0.52455 0.0
H2097 H 0.02429 0.93822 0.52845 0.0
H2098 H 0.03703 0.93945 0.50118 0.0
H2099 H 0.03158 0.96703 0.47588 0.0
H2100 H 0.97443 0.06276 0.47199 0.0
H2101 H 0.96104 0.0611 0.49919 0.0
C2102 C 0.98179 0.01296 0.51943 0.0
C2103 C 0.99487 0.98624 0.52876 0.0
C2104 C 0.98891 0.01353 0.50355 0.0
C2105 C 0.01455 0.95975 0.52178 0.0
C2106 C 0.02168 0.96019 0.50608 0.0
C2107 C 0.01641 0.98769 0.48096 0.0
C2108 C 0.00377 0.01467 0.47165 0.0
C2109 C 0.00912 0.98701 0.49682 0.0
C2110 C 0.98389 0.04103 0.47861 0.0
C2111 C 0.97641 0.04037 0.49429 0.0
H2112 H 0.28109 0.76567 0.77642 0.0
H2113 H 0.19666 0.69235 0.77755 0.0
H2114 H 0.18785 0.69982 0.74992 0.0
H2115 H 0.20398 0.72755 0.72562 0.0
H2116 H 0.29133 0.79779 0.72417 0.0
H2117 H 0.29894 0.79147 0.75179 0.0
C2118 C 0.26057 0.75162 0.7706 0.0
C2119 C 0.23919 0.72887 0.77897 0.0
C2120 C 0.25628 0.75543 0.75469 0.0
C2121 C 0.21322 0.71016 0.77131 0.0
C2122 C 0.20826 0.7144 0.75554 0.0
C2123 C 0.22513 0.74105 0.73123 0.0
C2124 C 0.24703 0.76318 0.72269 0.0
C2125 C 0.22974 0.73687 0.7471 0.0
C2126 C 0.27373 0.78098 0.73038 0.0
C2127 C 0.27822 0.77727 0.7462 0.0
H2128 H 0.51177 0.02999 0.97248 0.0
H2129 H 0.44971 0.93731 0.97549 0.0
H2130 H 0.45971 0.93451 0.0032 0.0
H2131 H 0.48719 0.95796 0.02654 0.0
H2132 H 0.54652 0.05281 0.02352 0.0
H2133 H 0.53666 0.05513 0.99602 0.0
C2134 C 0.50018 0.00949 0.9793 0.0
C2135 C 0.47977 0.98411 0.9721 0.0
C2136 C 0.50582 0.00823 0.99522 0.0
C2137 C 0.46504 0.95743 0.98092 0.0
C2138 C 0.47095 0.95571 0.99672 0.0
C2139 C 0.49785 0.97921 0.01989 0.0
C2140 C 0.51825 0.0047 0.02717 0.0
C2141 C 0.49144 0.98091 0.00401 0.0
C2142 C 0.53173 0.03209 0.01826 0.0
C2143 C 0.52579 0.03373 0.0025 0.0
H2144 H 0.29017 0.78994 0.26792 0.0
H2145 H 0.20358 0.72571 0.28104 0.0
H2146 H 0.19345 0.71041 0.25415 0.0
H2147 H 0.21005 0.71432 0.22707 0.0
H2148 H 0.29883 0.77588 0.21392 0.0
H2149 H 0.30724 0.79333 0.2406 0.0
C2150 C 0.26882 0.77301 0.26479 0.0
C2151 C 0.24727 0.75931 0.27631 0.0
C2152 C 0.26379 0.76362 0.24935 0.0
C2153 C 0.22018 0.73677 0.27227 0.0
C2154 C 0.21454 0.72792 0.25694 0.0
C2155 C 0.23156 0.73118 0.23002 0.0
C2156 C 0.25387 0.74357 0.21843 0.0
C2157 C 0.23642 0.74087 0.24541 0.0
C2158 C 0.28107 0.76611 0.22253 0.0
C2159 C 0.28596 0.77605 0.23781 0.0
H2160 H 0.52789 0.03962 0.52409 0.0
H2161 H 0.46625 0.94657 0.52856 0.0
H2162 H 0.47569 0.93341 0.50152 0.0
H2163 H 0.50041 0.94855 0.47665 0.0
H2164 H 0.56067 0.04224 0.47155 0.0
H2165 H 0.55405 0.05417 0.49901 0.0
C2166 C 0.51689 0.01622 0.5192 0.0
C2167 C 0.49629 0.99412 0.52839 0.0
C2168 C 0.52239 0.0088 0.50359 0.0
C2169 C 0.4818 0.96423 0.52176 0.0
C2170 C 0.48737 0.95658 0.50631 0.0
C2171 C 0.5119 0.97181 0.48147 0.0
C2172 C 0.53057 0.99477 0.47195 0.0
C2173 C 0.50734 0.97881 0.49711 0.0
C2174 C 0.54621 0.02411 0.47857 0.0
C2175 C 0.5422 0.03105 0.49425 0.0
H2176 H 0.24597 0.21075 0.72273 0.0
H2177 H 0.27076 0.3195 0.72754 0.0
H2178 H 0.26494 0.31499 0.75519 0.0
H2179 H 0.25371 0.28044 0.77823 0.0
H2180 H 0.23 0.17155 0.77388 0.0
H2181 H 0.23579 0.17569 0.74603 0.0
C2182 C 0.2503 0.23346 0.7298 0.0
C2183 C 0.25831 0.26555 0.72284 0.0
C2184 C 0.2476 0.23061 0.74589 0.0
C2185 C 0.26358 0.29463 0.73235 0.0
C2186 C 0.26068 0.29203 0.74827 0.0
C2187 C 0.2497 0.25758 0.77121 0.0
C2188 C 0.24147 0.22572 0.77824 0.0
C2189 C 0.25272 0.2602 0.75517 0.0
C2190 C 0.23688 0.19632 0.76888 0.0
C2191 C 0.23986 0.19874 0.7529 0.0
H2192 H 0.98667 0.95514 0.02114 0.0
H2193 H 0.04074 0.05226 0.02706 0.0
H2194 H 0.03408 0.06478 -0.00027 0.0
H2195 H 0.01181 0.04868 0.97427 0.0
H2196 H 0.9589 0.95077 0.96839 0.0
H2197 H 0.9654 0.93858 0.99566 0.0
C2198 C 0.99665 0.97928 0.01651 0.0
C2199 C 0.01393 0.00288 0.02622 0.0
C2200 C 0.99279 0.98626 0.00078 0.0
C2201 C 0.02744 0.03358 0.01989 0.0
C2202 C 0.02353 0.0408 0.00425 0.0
C2203 C 0.00211 0.0244 0.97886 0.0
C2204 C 0.98483 0.00072 0.96915 0.0
C2205 C 0.00625 0.01732 0.99459 0.0
C2206 C 0.97187 0.96976 0.97551 0.0
C2207 C 0.97576 0.96264 0.99113 0.0
H2208 H 0.79624 0.7628 0.72708 0.0
H2209 H 0.70009 0.7075 0.72033 0.0
H2210 H 0.68679 0.71283 0.74764 0.0
H2211 H 0.7021 0.7338 0.77338 0.0
H2212 H 0.7986 0.78856 0.78017 0.0
H2213 H 0.81178 0.78339 0.75287 0.0
C2214 C 0.77219 0.75221 0.73155 0.0
C2215 C 0.74913 0.73486 0.72162 0.0
C2216 C 0.76476 0.7553 0.74728 0.0
C2217 C 0.71842 0.72074 0.7277 0.0
C2218 C 0.71075 0.72388 0.74332 0.0
C2219 C 0.72627 0.7442 0.76895 0.0
C2220 C 0.74937 0.76146 0.7789 0.0
C2221 C 0.73376 0.74102 0.75323 0.0
C2222 C 0.78018 0.77542 0.77281 0.0
C2223 C 0.78781 0.77236 0.75719 0.0
H2224 H 0.78494 0.27459 0.22213 0.0
H2225 H 0.68333 0.2276 0.22119 0.0
H2226 H 0.68617 0.2171 0.2487 0.0
H2227 H 0.71699 0.22208 0.27327 0.0
H2228 H 0.81963 0.26716 0.27394 0.0
H2229 H 0.81632 0.27831 0.2466 0.0
C2230 C 0.76337 0.2622 0.22796 0.0
C2231 C 0.73414 0.2517 0.21953 0.0
C2232 C 0.76511 0.25617 0.24387 0.0
C2233 C 0.7065 0.23542 0.2273 0.0
C2234 C 0.70795 0.22959 0.24309 0.0
C2235 C 0.73878 0.23405 0.26745 0.0
C2236 C 0.76823 0.24419 0.27588 0.0
C2237 C 0.73714 0.23983 0.25152 0.0
C2238 C 0.79609 0.2599 0.26799 0.0
C2239 C 0.79445 0.26603 0.25224 0.0
H2240 H 0.72472 0.19806 0.72817 0.0
H2241 H 0.76742 0.29639 0.71416 0.0
H2242 H 0.77713 0.31234 0.74098 0.0
H2243 H 0.77286 0.29862 0.76856 0.0
H2244 H 0.72979 0.20046 0.78264 0.0
H2245 H 0.72029 0.18439 0.75582 0.0
C2246 C 0.73651 0.22278 0.73103 0.0
C2247 C 0.74561 0.24592 0.71921 0.0
C2248 C 0.74142 0.23203 0.74653 0.0
C2249 C 0.76028 0.27815 0.72307 0.0
C2250 C 0.76571 0.28731 0.7384 0.0
C2251 C 0.76101 0.2739 0.76574 0.0
C2252 C 0.75183 0.25086 0.7776 0.0
C2253 C 0.75609 0.26463 0.75025 0.0
C2254 C 0.73709 0.21864 0.77374 0.0
C2255 C 0.73175 0.2094 0.75839 0.0
H2256 H 0.73629 0.71771 0.22168 0.0
H2257 H 0.77777 0.82112 0.22692 0.0
H2258 H 0.77382 0.81591 0.25467 0.0
H2259 H 0.75979 0.78173 0.27764 0.0
H2260 H 0.71848 0.67827 0.27242 0.0
H2261 H 0.72255 0.68341 0.24466 0.0
C2262 C 0.74464 0.73909 0.22886 0.0
C2263 C 0.75696 0.76991 0.22205 0.0
C2264 C 0.74289 0.73576 0.24492 0.0
C2265 C 0.76735 0.79736 0.23168 0.0
C2266 C 0.76549 0.79429 0.24763 0.0
C2267 C 0.7515 0.76033 0.27045 0.0
C2268 C 0.73908 0.72956 0.27727 0.0
C2269 C 0.75337 0.7636 0.25439 0.0
C2270 C 0.72888 0.70203 0.26765 0.0
C2271 C 0.73082 0.70506 0.2517 0.0
H2272 H 0.44919 0.51175 0.01915 0.0
H2273 H 0.55175 0.47927 0.03267 0.0
H2274 H 0.57064 0.48065 0.00603 0.0
H2275 H 0.55768 0.48886 0.97864 0.0
H2276 H 0.45492 0.52111 0.96525 0.0
H2277 H 0.43643 0.52058 0.9919 0.0
C2278 C 0.47566 0.50482 0.01632 0.0
C2279 C 0.49891 0.49558 0.02807 0.0
C2280 C 0.4863 0.50498 0.00087 0.0
C2281 C 0.53329 0.4872 0.02403 0.0
C2282 C 0.5441 0.48757 0.00871 0.0
C2283 C 0.53129 0.49598 0.98152 0.0
C2284 C 0.50776 0.5046 0.96977 0.0
C2285 C 0.52078 0.49616 0.997 0.0
C2286 C 0.47354 0.51345 0.97388 0.0
C2287 C 0.46294 0.51357 0.9892 0.0
H2288 H 0.97024 0.47933 0.5259 0.0
H2289 H 0.06921 0.53096 0.52065 0.0
H2290 H 0.06387 0.52763 0.49299 0.0
H2291 H 0.03074 0.51128 0.46999 0.0
H2292 H 0.93 0.46397 0.47519 0.0
H2293 H 0.93589 0.4658 0.50304 0.0
C2294 C 0.99056 0.4903 0.51881 0.0
C2295 C 0.02035 0.50491 0.52564 0.0
C2296 C 0.98683 0.48957 0.50276 0.0
C2297 C 0.04641 0.51846 0.51597 0.0
C2298 C 0.04323 0.51705 0.50004 0.0
C2299 C 0.01009 0.50145 0.47724 0.0
C2300 C 0.97993 0.48768 0.47051 0.0
C2301 C 0.01354 0.50274 0.49329 0.0
C2302 C 0.95328 0.4752 0.48007 0.0
C2303 C 0.95674 0.47597 0.49601 0.0
H2304 H 0.00581 0.44415 0.97724 0.0
H2305 H 0.00804 0.55216 0.96464 0.0
H2306 H 0.99901 0.56873 0.99145 0.0
H2307 H 0.9907 0.55247 0.01858 0.0
H2308 H 0.98848 0.44447 0.0312 0.0
H2309 H 0.9976 0.42788 0.00439 0.0
C2310 C 0.00414 0.4713 0.98038 0.0
C2311 C 0.00756 0.49692 0.96896 0.0
C2312 C 0.99921 0.48061 0.99585 0.0
C2313 C 0.00577 0.532 0.97322 0.0
C2314 C 0.00053 0.54146 0.98855 0.0
C2315 C 0.9924 0.52531 0.01544 0.0
C2316 C 0.98892 0.49971 0.02687 0.0
C2317 C 0.99738 0.516 -2e-05 0.0
C2318 C 0.99077 0.46462 0.02261 0.0
C2319 C 0.99606 0.45516 0.00729 0.0
H2320 H 0.50681 0.45735 0.4728 0.0
H2321 H 0.45829 0.55766 0.47607 0.0
H2322 H 0.46702 0.5581 0.50376 0.0
H2323 H 0.48709 0.52933 0.52739 0.0
H2324 H 0.53387 0.42837 0.52449 0.0
H2325 H 0.52731 0.42864 0.49653 0.0
C2326 C 0.49836 0.4793 0.4796 0.0
C2327 C 0.48165 0.50728 0.47239 0.0
C2328 C 0.50305 0.4792 0.49565 0.0
C2329 C 0.47074 0.53556 0.48137 0.0
C2330 C 0.47582 0.53591 0.49721 0.0
C2331 C 0.49589 0.50755 0.52056 0.0
C2332 C 0.51097 0.47892 0.52786 0.0
C2333 C 0.49165 0.50777 0.50452 0.0
C2334 C 0.52222 0.45068 0.51901 0.0
C2335 C 0.51846 0.45084 0.50305 0.0
loop_
_geom_bond_atom_site_label_1
_geom_bond_atom_site_label_2
_geom_bond_distance
_geom_bond_site_symmetry_2
_ccdc_geom_bond_type
Co0 N4 2.148 . S
Co0 N10 2.128 . S
Co0 N20 2.194 . S
Co0 O25 2.351 . S
Co0 O26 2.155 . S
Co0 O27 2.096 . S
C1 N4 1.301 . S
C1 N5 1.328 . S
C1 H6 0.930 . S
C2 C3 1.333 . S
C2 N4 1.317 . S
C2 H7 0.930 . S
C3 C2 1.333 . S
C3 N5 1.350 . S
C3 H29 0.931 . S
N4 Co0 2.148 . S
N4 C1 1.301 . S
N4 C2 1.317 . S
N5 C1 1.328 . S
N5 C3 1.350 . S
H6 C1 0.930 . S
H7 C2 0.930 . S
C8 O9 1.224 . S
C8 O27 1.247 . S
O9 C8 1.224 . S
N10 Co0 2.128 . S
N10 C11 1.355 . S
N10 C13 1.311 . S
C11 N10 1.355 . S
C11 C12 1.363 . S
C11 H23 0.929 . S
C12 C11 1.363 . S
C12 N14 1.375 . S
C12 H30 0.931 . S
C13 N10 1.311 . S
C13 N14 1.347 . S
C13 H24 0.929 . S
N14 C12 1.375 . S
N14 C13 1.347 . S
C15 C18 1.365 . S
C15 N20 1.328 . S
C15 H21 0.929 . S
C16 C17 1.362 . S
C16 C19 1.378 . S
C16 H31 0.929 . S
C17 C16 1.362 . S
C17 C18 1.366 . S
C18 C15 1.365 . S
C18 C17 1.366 . S
C18 H32 0.930 . S
C19 C16 1.378 . S
C19 N20 1.315 . S
C19 H22 0.930 . S
N20 Co0 2.194 . S
N20 C15 1.328 . S
N20 C19 1.315 . S
H21 C15 0.929 . S
H22 C19 0.930 . S
H23 C11 0.929 . S
H24 C13 0.929 . S
O25 Co0 2.351 . S
O25 C28 1.244 . S
O26 Co0 2.155 . S
O26 C28 1.240 . S
O27 Co0 2.096 . S
O27 C8 1.247 . S
C28 O25 1.244 . S
C28 O26 1.240 . S
H29 C3 0.931 . S
H30 C12 0.931 . S
H31 C16 0.929 . S
H32 C18 0.930 . S
Co33 N37 2.148 . S
Co33 N43 2.128 . S
Co33 N53 2.194 . S
Co33 O58 2.351 . S
Co33 O59 2.155 . S
Co33 O60 2.096 1_455 S
C34 N37 1.301 1_565 S
C34 N38 1.328 . S
C34 H39 0.930 1_565 S
C35 C36 1.342 . S
C35 N37 1.312 1_565 S
C35 H40 0.927 1_465 S
C36 C35 1.342 . S
C36 N38 1.350 . S
C36 H62 0.931 . S
N37 Co33 2.148 . S
N37 C34 1.301 1_545 S
N37 C35 1.312 1_545 S
N38 C34 1.328 . S
N38 C36 1.350 . S
H39 C34 0.930 1_545 S
H40 C35 0.927 1_645 S
C41 O42 1.224 . S
C41 O60 1.247 . S
O42 C41 1.224 . S
N43 Co33 2.128 . S
N43 C44 1.355 . S
N43 C46 1.311 1_455 S
C44 N43 1.355 . S
C44 C45 1.363 . S
C44 H56 0.929 . S
C45 C44 1.363 . S
C45 N47 1.375 1_455 S
C45 H63 0.931 . S
C46 N43 1.311 1_655 S
C46 N47 1.347 . S
C46 H57 0.929 . S
N47 C45 1.375 1_655 S
N47 C46 1.347 . S
C48 C51 1.365 . S
C48 N53 1.328 . S
C48 H54 0.929 . S
C49 C50 1.362 1_655 S
C49 C52 1.380 . S
C49 H64 0.929 . S
C50 C49 1.362 1_455 S
C50 C51 1.366 . S
C51 C48 1.365 . S
C51 C50 1.366 . S
C51 H65 0.930 . S
C52 C49 1.380 . S
C52 N53 1.296 1_655 S
C52 H55 0.949 . S
N53 Co33 2.194 . S
N53 C48 1.328 . S
N53 C52 1.296 1_455 S
H54 C48 0.929 . S
H55 C52 0.949 . S
H56 C44 0.929 . S
H57 C46 0.929 . S
O58 Co33 2.351 . S
O58 C61 1.244 . S
O59 Co33 2.155 . S
O59 C61 1.240 . S
O60 Co33 2.096 1_655 S
O60 C41 1.247 . S
C61 O58 1.244 . S
C61 O59 1.240 . S
H62 C36 0.931 . S
H63 C45 0.931 . S
H64 C49 0.929 . S
H65 C51 0.930 . S
Co66 N70 2.148 . S
Co66 N76 2.128 . S
Co66 N86 2.194 . S
Co66 O91 2.351 . S
Co66 O92 2.155 . S
Co66 O93 2.096 . S
C67 N70 1.301 . S
C67 N71 1.328 . S
C67 H72 0.930 . S
C68 C69 1.333 . S
C68 N70 1.317 . S
C68 H73 0.930 . S
C69 C68 1.333 . S
C69 N71 1.350 . S
C69 H95 0.931 . S
N70 Co66 2.148 . S
N70 C67 1.301 . S
N70 C68 1.317 . S
N71 C67 1.328 . S
N71 C69 1.350 . S
H72 C67 0.930 . S
H73 C68 0.930 . S
C74 O75 1.224 . S
C74 O93 1.247 . S
O75 C74 1.224 . S
N76 Co66 2.128 . S
N76 C77 1.355 . S
N76 C79 1.311 . S
C77 N76 1.355 . S
C77 C78 1.363 . S
C77 H89 0.929 . S
C78 C77 1.363 . S
C78 N80 1.375 . S
C78 H96 0.931 . S
C79 N76 1.311 . S
C79 N80 1.347 . S
C79 H90 0.929 . S
N80 C78 1.375 . S
N80 C79 1.347 . S
C81 C84 1.365 . S
C81 N86 1.328 . S
C81 H87 0.929 . S
C82 C83 1.362 . S
C82 C85 1.378 . S
C82 H97 0.929 . S
C83 C82 1.362 . S
C83 C84 1.366 . S
C84 C81 1.365 . S
C84 C83 1.366 . S
C84 H98 0.930 . S
C85 C82 1.378 . S
C85 N86 1.315 . S
C85 H88 0.930 . S
N86 Co66 2.194 . S
N86 C81 1.328 . S
N86 C85 1.315 . S
H87 C81 0.929 . S
H88 C85 0.930 . S
H89 C77 0.929 . S
H90 C79 0.929 . S
O91 Co66 2.351 . S
O91 C94 1.244 . S
O92 Co66 2.155 . S
O92 C94 1.240 . S
O93 Co66 2.096 . S
O93 C74 1.247 . S
C94 O91 1.244 . S
C94 O92 1.240 . S
H95 C69 0.931 . S
H96 C78 0.931 . S
H97 C82 0.929 . S
H98 C84 0.930 . S
Co99 N103 2.148 . S
Co99 N109 2.128 . S
Co99 N119 2.194 . S
Co99 O124 2.351 . S
Co99 O125 2.155 . S
Co99 O126 2.096 . S
C100 N103 1.301 1_545 S
C100 N104 1.328 . S
C100 H105 0.930 1_545 S
C101 C102 1.342 . S
C101 N103 1.312 1_545 S
C101 H106 0.927 1_545 S
C102 C101 1.342 . S
C102 N104 1.350 . S
C102 H128 0.931 . S
N103 Co99 2.148 . S
N103 C100 1.301 1_565 S
N103 C101 1.312 1_565 S
N104 C100 1.328 . S
N104 C102 1.350 . S
H105 C100 0.930 1_565 S
H106 C101 0.927 1_565 S
C107 O108 1.224 . S
C107 O126 1.247 . S
O108 C107 1.224 . S
N109 Co99 2.128 . S
N109 C110 1.355 . S
N109 C112 1.311 . S
C110 N109 1.355 . S
C110 C111 1.363 . S
C110 H122 0.929 . S
C111 C110 1.363 . S
C111 N113 1.375 . S
C111 H129 0.931 . S
C112 N109 1.311 . S
C112 N113 1.347 . S
C112 H123 0.929 . S
N113 C111 1.375 . S
N113 C112 1.347 . S
C114 C117 1.365 . S
C114 N119 1.328 . S
C114 H120 0.929 . S
C115 C116 1.362 . S
C115 C118 1.378 . S
C115 H130 0.929 . S
C116 C115 1.362 . S
C116 C117 1.366 . S
C117 C114 1.365 . S
C117 C116 1.366 . S
C117 H131 0.930 . S
C118 C115 1.378 . S
C118 N119 1.315 . S
C118 H121 0.930 . S
N119 Co99 2.194 . S
N119 C114 1.328 . S
N119 C118 1.315 . S
H120 C114 0.929 . S
H121 C118 0.930 . S
H122 C110 0.929 . S
H123 C112 0.929 . S
O124 Co99 2.351 . S
O124 C127 1.244 . S
O125 Co99 2.155 . S
O125 C127 1.240 . S
O126 Co99 2.096 . S
O126 C107 1.247 . S
C127 O124 1.244 . S
C127 O125 1.240 . S
H128 C102 0.931 . S
H129 C111 0.931 . S
H130 C115 0.929 . S
H131 C117 0.930 . S
Co132 N136 2.148 . S
Co132 N142 2.128 . S
Co132 N152 2.194 . S
Co132 O157 2.351 . S
Co132 O158 2.155 . S
Co132 O159 2.096 . S
C133 N136 1.301 . S
C133 N137 1.328 . S
C133 H138 0.930 . S
C134 C135 1.333 . S
C134 N136 1.317 . S
C134 H139 0.930 . S
C135 C134 1.333 . S
C135 N137 1.350 . S
C135 H161 0.931 . S
N136 Co132 2.148 . S
N136 C133 1.301 . S
N136 C134 1.317 . S
N137 C133 1.328 . S
N137 C135 1.350 . S
H138 C133 0.930 . S
H139 C134 0.930 . S
C140 O141 1.224 . S
C140 O159 1.247 . S
O141 C140 1.224 . S
N142 Co132 2.128 . S
N142 C143 1.355 . S
N142 C145 1.311 . S
C143 N142 1.355 . S
C143 C144 1.363 . S
C143 H155 0.929 . S
C144 C143 1.363 . S
C144 N146 1.375 . S
C144 H162 0.931 . S
C145 N142 1.311 . S
C145 N146 1.347 . S
C145 H156 0.929 . S
N146 C144 1.375 . S
N146 C145 1.347 . S
C147 C150 1.365 . S
C147 N152 1.328 . S
C147 H153 0.929 . S
C148 C149 1.362 . S
C148 C151 1.378 . S
C148 H163 0.929 . S
C149 C148 1.362 . S
C149 C150 1.366 . S
C150 C147 1.365 . S
C150 C149 1.366 . S
C150 H164 0.930 . S
C151 C148 1.378 . S
C151 N152 1.315 . S
C151 H154 0.930 . S
N152 Co132 2.194 . S
N152 C147 1.328 . S
N152 C151 1.315 . S
H153 C147 0.929 . S
H154 C151 0.930 . S
H155 C143 0.929 . S
H156 C145 0.929 . S
O157 Co132 2.351 . S
O157 C160 1.244 . S
O158 Co132 2.155 . S
O158 C160 1.240 . S
O159 Co132 2.096 . S
O159 C140 1.247 . S
C160 O157 1.244 . S
C160 O158 1.240 . S
H161 C135 0.931 . S
H162 C144 0.931 . S
H163 C148 0.929 . S
H164 C150 0.930 . S
Co165 N169 2.148 . S
Co165 N175 2.128 . S
Co165 N185 2.194 . S
Co165 O190 2.351 . S
Co165 O191 2.155 . S
Co165 O192 2.096 . S
C166 N169 1.301 1_565 S
C166 N170 1.328 . S
C166 H171 0.930 1_565 S
C167 C168 1.342 . S
C167 N169 1.312 1_565 S
C167 H172 0.927 1_565 S
C168 C167 1.342 . S
C168 N170 1.350 . S
C168 H194 0.931 . S
N169 Co165 2.148 . S
N169 C166 1.301 1_545 S
N169 C167 1.312 1_545 S
N170 C166 1.328 . S
N170 C168 1.350 . S
H171 C166 0.930 1_545 S
H172 C167 0.927 1_545 S
C173 O174 1.224 . S
C173 O192 1.247 . S
O174 C173 1.224 . S
N175 Co165 2.128 . S
N175 C176 1.355 . S
N175 C178 1.311 . S
C176 N175 1.355 . S
C176 C177 1.363 . S
C176 H188 0.929 . S
C177 C176 1.363 . S
C177 N179 1.375 . S
C177 H195 0.931 . S
C178 N175 1.311 . S
C178 N179 1.347 . S
C178 H189 0.929 . S
N179 C177 1.375 . S
N179 C178 1.347 . S
C180 C183 1.365 . S
C180 N185 1.328 . S
C180 H186 0.929 . S
C181 C182 1.362 . S
C181 C184 1.378 . S
C181 H196 0.929 . S
C182 C181 1.362 . S
C182 C183 1.366 . S
C183 C180 1.365 . S
C183 C182 1.366 . S
C183 H197 0.930 . S
C184 C181 1.378 . S
C184 N185 1.315 . S
C184 H187 0.930 . S
N185 Co165 2.194 . S
N185 C180 1.328 . S
N185 C184 1.315 . S
H186 C180 0.929 . S
H187 C184 0.930 . S
H188 C176 0.929 . S
H189 C178 0.929 . S
O190 Co165 2.351 . S
O190 C193 1.244 . S
O191 Co165 2.155 . S
O191 C193 1.240 . S
O192 Co165 2.096 . S
O192 C173 1.247 . S
C193 O190 1.244 . S
C193 O191 1.240 . S
H194 C168 0.931 . S
H195 C177 0.931 . S
H196 C181 0.929 . S
H197 C183 0.930 . S
Co198 N202 2.148 . S
Co198 N208 2.128 . S
Co198 N218 2.194 . S
Co198 O223 2.351 . S
Co198 O224 2.155 . S
Co198 O225 2.096 . S
C199 N202 1.301 . S
C199 N203 1.328 . S
C199 H204 0.930 . S
C200 C201 1.333 . S
C200 N202 1.317 . S
C200 H205 0.930 . S
C201 C200 1.333 . S
C201 N203 1.350 . S
C201 H227 0.931 . S
N202 Co198 2.148 . S
N202 C199 1.301 . S
N202 C200 1.317 . S
N203 C199 1.328 . S
N203 C201 1.350 . S
H204 C199 0.930 . S
H205 C200 0.930 . S
C206 O207 1.224 . S
C206 O225 1.247 . S
O207 C206 1.224 . S
N208 Co198 2.128 . S
N208 C209 1.355 . S
N208 C211 1.311 . S
C209 N208 1.355 . S
C209 C210 1.363 . S
C209 H221 0.929 . S
C210 C209 1.363 . S
C210 N212 1.375 . S
C210 H228 0.931 . S
C211 N208 1.311 . S
C211 N212 1.347 . S
C211 H222 0.929 . S
N212 C210 1.375 . S
N212 C211 1.347 . S
C213 C216 1.365 . S
C213 N218 1.328 . S
C213 H219 0.929 . S
C214 C215 1.362 . S
C214 C217 1.378 . S
C214 H229 0.929 . S
C215 C214 1.362 . S
C215 C216 1.366 . S
C216 C213 1.365 . S
C216 C215 1.366 . S
C216 H230 0.930 . S
C217 C214 1.378 . S
C217 N218 1.315 . S
C217 H220 0.930 . S
N218 Co198 2.194 . S
N218 C213 1.328 . S
N218 C217 1.315 . S
H219 C213 0.929 . S
H220 C217 0.930 . S
H221 C209 0.929 . S
H222 C211 0.929 . S
O223 Co198 2.351 . S
O223 C226 1.244 . S
O224 Co198 2.155 . S
O224 C226 1.240 . S
O225 Co198 2.096 . S
O225 C206 1.247 . S
C226 O223 1.244 . S
C226 O224 1.240 . S
H227 C201 0.931 . S
H228 C210 0.931 . S
H229 C214 0.929 . S
H230 C216 0.930 . S
Co231 N235 2.148 . S
Co231 N241 2.128 . S
Co231 N251 2.194 . S
Co231 O256 2.351 . S
Co231 O257 2.155 . S
Co231 O258 2.096 1_455 S
C232 N235 1.301 1_545 S
C232 N236 1.328 . S
C232 H237 0.930 1_545 S
C233 C234 1.342 . S
C233 N235 1.312 1_545 S
C233 H238 0.927 1_445 S
C234 C233 1.342 . S
C234 N236 1.350 . S
C234 H260 0.931 . S
N235 Co231 2.148 . S
N235 C232 1.301 1_565 S
N235 C233 1.312 1_565 S
N236 C232 1.328 . S
N236 C234 1.350 . S
H237 C232 0.930 1_565 S
H238 C233 0.927 1_665 S
C239 O240 1.224 . S
C239 O258 1.247 . S
O240 C239 1.224 . S
N241 Co231 2.128 . S
N241 C242 1.355 . S
N241 C244 1.311 1_455 S
C242 N241 1.355 . S
C242 C243 1.363 . S
C242 H254 0.929 . S
C243 C242 1.363 . S
C243 N245 1.375 1_455 S
C243 H261 0.931 . S
C244 N241 1.311 1_655 S
C244 N245 1.347 . S
C244 H255 0.929 . S
N245 C243 1.375 1_655 S
N245 C244 1.347 . S
C246 C249 1.365 . S
C246 N251 1.328 . S
C246 H252 0.929 . S
C247 C248 1.362 1_655 S
C247 C250 1.380 . S
C247 H262 0.929 . S
C248 C247 1.362 1_455 S
C248 C249 1.366 . S
C249 C246 1.365 . S
C249 C248 1.366 . S
C249 H263 0.930 . S
C250 C247 1.380 . S
C250 N251 1.296 1_655 S
C250 H253 0.949 . S
N251 Co231 2.194 . S
N251 C246 1.328 . S
N251 C250 1.296 1_455 S
H252 C246 0.929 . S
H253 C250 0.949 . S
H254 C242 0.929 . S
H255 C244 0.929 . S
O256 Co231 2.351 . S
O256 C259 1.244 . S
O257 Co231 2.155 . S
O257 C259 1.240 . S
O258 Co231 2.096 1_655 S
O258 C239 1.247 . S
C259 O256 1.244 . S
C259 O257 1.240 . S
H260 C234 0.931 . S
H261 C243 0.931 . S
H262 C247 0.929 . S
H263 C249 0.930 . S
Co264 N268 2.148 . S
Co264 N274 2.128 . S
Co264 N284 2.194 . S
Co264 O289 2.351 . S
Co264 O290 2.155 . S
Co264 O291 2.096 . S
C265 N268 1.301 . S
C265 N269 1.328 . S
C265 H270 0.930 . S
C266 C267 1.333 . S
C266 N268 1.317 . S
C266 H271 0.930 . S
C267 C266 1.333 . S
C267 N269 1.350 . S
C267 H293 0.931 . S
N268 Co264 2.148 . S
N268 C265 1.301 . S
N268 C266 1.317 . S
N269 C265 1.328 . S
N269 C267 1.350 . S
H270 C265 0.930 . S
H271 C266 0.930 . S
C272 O273 1.224 . S
C272 O291 1.247 . S
O273 C272 1.224 . S
N274 Co264 2.128 . S
N274 C275 1.355 . S
N274 C277 1.311 . S
C275 N274 1.355 . S
C275 C276 1.363 . S
C275 H287 0.929 . S
C276 C275 1.363 . S
C276 N278 1.375 . S
C276 H294 0.931 . S
C277 N274 1.311 . S
C277 N278 1.347 . S
C277 H288 0.929 . S
N278 C276 1.375 . S
N278 C277 1.347 . S
C279 C282 1.365 . S
C279 N284 1.328 . S
C279 H285 0.929 . S
C280 C281 1.362 . S
C280 C283 1.378 . S
C280 H295 0.929 . S
C281 C280 1.362 . S
C281 C282 1.366 . S
C282 C279 1.365 . S
C282 C281 1.366 . S
C282 H296 0.930 . S
C283 C280 1.378 . S
C283 N284 1.315 . S
C283 H286 0.930 . S
N284 Co264 2.194 . S
N284 C279 1.328 . S
N284 C283 1.315 . S
H285 C279 0.929 . S
H286 C283 0.930 . S
H287 C275 0.929 . S
H288 C277 0.929 . S
O289 Co264 2.351 . S
O289 C292 1.244 . S
O290 Co264 2.155 . S
O290 C292 1.240 . S
O291 Co264 2.096 . S
O291 C272 1.247 . S
C292 O289 1.244 . S
C292 O290 1.240 . S
H293 C267 0.931 . S
H294 C276 0.931 . S
H295 C280 0.929 . S
H296 C282 0.930 . S
Co297 N301 2.148 . S
Co297 N307 2.128 . S
Co297 N317 2.194 . S
Co297 O322 2.351 . S
Co297 O323 2.155 . S
Co297 O324 2.096 1_655 S
C298 N301 1.301 1_545 S
C298 N302 1.328 . S
C298 H303 0.930 1_545 S
C299 C300 1.342 . S
C299 N301 1.312 1_545 S
C299 H304 0.927 1_645 S
C300 C299 1.342 . S
C300 N302 1.350 . S
C300 H326 0.931 . S
N301 Co297 2.148 . S
N301 C298 1.301 1_565 S
N301 C299 1.312 1_565 S
N302 C298 1.328 . S
N302 C300 1.350 . S
H303 C298 0.930 1_565 S
H304 C299 0.927 1_465 S
C305 O306 1.224 . S
C305 O324 1.247 . S
O306 C305 1.224 . S
N307 Co297 2.128 . S
N307 C308 1.355 . S
N307 C310 1.311 1_655 S
C308 N307 1.355 . S
C308 C309 1.363 . S
C308 H320 0.929 . S
C309 C308 1.363 . S
C309 N311 1.375 1_655 S
C309 H327 0.931 . S
C310 N307 1.311 1_455 S
C310 N311 1.347 . S
C310 H321 0.929 . S
N311 C309 1.375 1_455 S
N311 C310 1.347 . S
C312 C315 1.365 . S
C312 N317 1.328 . S
C312 H318 0.929 . S
C313 C314 1.362 1_455 S
C313 C316 1.380 . S
C313 H328 0.929 . S
C314 C313 1.362 1_655 S
C314 C315 1.366 . S
C315 C312 1.365 . S
C315 C314 1.366 . S
C315 H329 0.930 . S
C316 C313 1.380 . S
C316 N317 1.296 1_455 S
C316 H319 0.949 . S
N317 Co297 2.194 . S
N317 C312 1.328 . S
N317 C316 1.296 1_655 S
H318 C312 0.929 . S
H319 C316 0.949 . S
H320 C308 0.929 . S
H321 C310 0.929 . S
O322 Co297 2.351 . S
O322 C325 1.244 . S
O323 Co297 2.155 . S
O323 C325 1.240 . S
O324 Co297 2.096 1_455 S
O324 C305 1.247 . S
C325 O322 1.244 . S
C325 O323 1.240 . S
H326 C300 0.931 . S
H327 C309 0.931 . S
H328 C313 0.929 . S
H329 C315 0.930 . S
Co330 N334 2.148 . S
Co330 N340 2.128 . S
Co330 N350 2.194 . S
Co330 O355 2.351 . S
Co330 O356 2.155 . S
Co330 O357 2.096 . S
C331 N334 1.301 . S
C331 N335 1.328 . S
C331 H336 0.930 . S
C332 C333 1.333 . S
C332 N334 1.317 . S
C332 H337 0.930 . S
C333 C332 1.333 . S
C333 N335 1.350 . S
C333 H359 0.931 . S
N334 Co330 2.148 . S
N334 C331 1.301 . S
N334 C332 1.317 . S
N335 C331 1.328 . S
N335 C333 1.350 . S
H336 C331 0.930 . S
H337 C332 0.930 . S
C338 O339 1.224 . S
C338 O357 1.247 . S
O339 C338 1.224 . S
N340 Co330 2.128 . S
N340 C341 1.355 . S
N340 C343 1.311 . S
C341 N340 1.355 . S
C341 C342 1.363 . S
C341 H353 0.929 . S
C342 C341 1.363 . S
C342 N344 1.375 . S
C342 H360 0.931 . S
C343 N340 1.311 . S
C343 N344 1.347 . S
C343 H354 0.929 . S
N344 C342 1.375 . S
N344 C343 1.347 . S
C345 C348 1.365 . S
C345 N350 1.328 . S
C345 H351 0.929 . S
C346 C347 1.362 . S
C346 C349 1.378 . S
C346 H361 0.929 . S
C347 C346 1.362 . S
C347 C348 1.366 . S
C348 C345 1.365 . S
C348 C347 1.366 . S
C348 H362 0.930 . S
C349 C346 1.378 . S
C349 N350 1.315 . S
C349 H352 0.930 . S
N350 Co330 2.194 . S
N350 C345 1.328 . S
N350 C349 1.315 . S
H351 C345 0.929 . S
H352 C349 0.930 . S
H353 C341 0.929 . S
H354 C343 0.929 . S
O355 Co330 2.351 . S
O355 C358 1.244 . S
O356 Co330 2.155 . S
O356 C358 1.240 . S
O357 Co330 2.096 . S
O357 C338 1.247 . S
C358 O355 1.244 . S
C358 O356 1.240 . S
H359 C333 0.931 . S
H360 C342 0.931 . S
H361 C346 0.929 . S
H362 C348 0.930 . S
Co363 N367 2.148 . S
Co363 N373 2.128 . S
Co363 N383 2.194 . S
Co363 O388 2.351 . S
Co363 O389 2.155 . S
Co363 O390 2.096 . S
C364 N367 1.301 1_565 S
C364 N368 1.328 . S
C364 H369 0.930 1_565 S
C365 C366 1.342 . S
C365 N367 1.312 1_565 S
C365 H370 0.927 1_565 S
C366 C365 1.342 . S
C366 N368 1.350 . S
C366 H392 0.931 . S
N367 Co363 2.148 . S
N367 C364 1.301 1_545 S
N367 C365 1.312 1_545 S
N368 C364 1.328 . S
N368 C366 1.350 . S
H369 C364 0.930 1_545 S
H370 C365 0.927 1_545 S
C371 O372 1.224 . S
C371 O390 1.247 . S
O372 C371 1.224 . S
N373 Co363 2.128 . S
N373 C374 1.355 . S
N373 C376 1.311 . S
C374 N373 1.355 . S
C374 C375 1.363 . S
C374 H386 0.929 . S
C375 C374 1.363 . S
C375 N377 1.375 . S
C375 H393 0.931 . S
C376 N373 1.311 . S
C376 N377 1.347 . S
C376 H387 0.929 . S
N377 C375 1.375 . S
N377 C376 1.347 . S
C378 C381 1.365 . S
C378 N383 1.328 . S
C378 H384 0.929 . S
C379 C380 1.362 . S
C379 C382 1.378 . S
C379 H394 0.929 . S
C380 C379 1.362 . S
C380 C381 1.366 . S
C381 C378 1.365 . S
C381 C380 1.366 . S
C381 H395 0.930 . S
C382 C379 1.378 . S
C382 N383 1.315 . S
C382 H385 0.930 . S
N383 Co363 2.194 . S
N383 C378 1.328 . S
N383 C382 1.315 . S
H384 C378 0.929 . S
H385 C382 0.930 . S
H386 C374 0.929 . S
H387 C376 0.929 . S
O388 Co363 2.351 . S
O388 C391 1.244 . S
O389 Co363 2.155 . S
O389 C391 1.240 . S
O390 Co363 2.096 . S
O390 C371 1.247 . S
C391 O388 1.244 . S
C391 O389 1.240 . S
H392 C366 0.931 . S
H393 C375 0.931 . S
H394 C379 0.929 . S
H395 C381 0.930 . S
Co396 N400 2.148 . S
Co396 N406 2.128 . S
Co396 N416 2.194 . S
Co396 O421 2.351 . S
Co396 O422 2.155 . S
Co396 O423 2.096 . S
C397 N400 1.301 . S
C397 N401 1.328 . S
C397 H402 0.930 . S
C398 C399 1.333 . S
C398 N400 1.317 . S
C398 H403 0.930 . S
C399 C398 1.333 . S
C399 N401 1.350 . S
C399 H425 0.931 . S
N400 Co396 2.148 . S
N400 C397 1.301 . S
N400 C398 1.317 . S
N401 C397 1.328 . S
N401 C399 1.350 . S
H402 C397 0.930 . S
H403 C398 0.930 . S
C404 O405 1.224 . S
C404 O423 1.247 . S
O405 C404 1.224 . S
N406 Co396 2.128 . S
N406 C407 1.355 . S
N406 C409 1.311 . S
C407 N406 1.355 . S
C407 C408 1.363 . S
C407 H419 0.929 . S
C408 C407 1.363 . S
C408 N410 1.375 . S
C408 H426 0.931 . S
C409 N406 1.311 . S
C409 N410 1.347 . S
C409 H420 0.929 . S
N410 C408 1.375 . S
N410 C409 1.347 . S
C411 C414 1.365 . S
C411 N416 1.328 . S
C411 H417 0.929 . S
C412 C413 1.362 . S
C412 C415 1.378 . S
C412 H427 0.929 . S
C413 C412 1.362 . S
C413 C414 1.366 . S
C414 C411 1.365 . S
C414 C413 1.366 . S
C414 H428 0.930 . S
C415 C412 1.378 . S
C415 N416 1.315 . S
C415 H418 0.930 . S
N416 Co396 2.194 . S
N416 C411 1.328 . S
N416 C415 1.315 . S
H417 C411 0.929 . S
H418 C415 0.930 . S
H419 C407 0.929 . S
H420 C409 0.929 . S
O421 Co396 2.351 . S
O421 C424 1.244 . S
O422 Co396 2.155 . S
O422 C424 1.240 . S
O423 Co396 2.096 . S
O423 C404 1.247 . S
C424 O421 1.244 . S
C424 O422 1.240 . S
H425 C399 0.931 . S
H426 C408 0.931 . S
H427 C412 0.929 . S
H428 C414 0.930 . S
Co429 N433 2.148 . S
Co429 N439 2.128 . S
Co429 N449 2.194 . S
Co429 O454 2.351 . S
Co429 O455 2.155 . S
Co429 O456 2.096 . S
C430 N433 1.301 1_545 S
C430 N434 1.328 . S
C430 H435 0.930 1_545 S
C431 C432 1.342 . S
C431 N433 1.312 1_545 S
C431 H436 0.927 1_545 S
C432 C431 1.342 . S
C432 N434 1.350 . S
C432 H458 0.931 . S
N433 Co429 2.148 . S
N433 C430 1.301 1_565 S
N433 C431 1.312 1_565 S
N434 C430 1.328 . S
N434 C432 1.350 . S
H435 C430 0.930 1_565 S
H436 C431 0.927 1_565 S
C437 O438 1.224 . S
C437 O456 1.247 . S
O438 C437 1.224 . S
N439 Co429 2.128 . S
N439 C440 1.355 . S
N439 C442 1.311 . S
C440 N439 1.355 . S
C440 C441 1.363 . S
C440 H452 0.929 . S
C441 C440 1.363 . S
C441 N443 1.375 . S
C441 H459 0.931 . S
C442 N439 1.311 . S
C442 N443 1.347 . S
C442 H453 0.929 . S
N443 C441 1.375 . S
N443 C442 1.347 . S
C444 C447 1.365 . S
C444 N449 1.328 . S
C444 H450 0.929 . S
C445 C446 1.362 . S
C445 C448 1.378 . S
C445 H460 0.929 . S
C446 C445 1.362 . S
C446 C447 1.366 . S
C447 C444 1.365 . S
C447 C446 1.366 . S
C447 H461 0.930 . S
C448 C445 1.378 . S
C448 N449 1.315 . S
C448 H451 0.930 . S
N449 Co429 2.194 . S
N449 C444 1.328 . S
N449 C448 1.315 . S
H450 C444 0.929 . S
H451 C448 0.930 . S
H452 C440 0.929 . S
H453 C442 0.929 . S
O454 Co429 2.351 . S
O454 C457 1.244 . S
O455 Co429 2.155 . S
O455 C457 1.240 . S
O456 Co429 2.096 . S
O456 C437 1.247 . S
C457 O454 1.244 . S
C457 O455 1.240 . S
H458 C432 0.931 . S
H459 C441 0.931 . S
H460 C445 0.929 . S
H461 C447 0.930 . S
Co462 N466 2.148 . S
Co462 N472 2.128 . S
Co462 N482 2.194 . S
Co462 O487 2.351 . S
Co462 O488 2.155 . S
Co462 O489 2.096 . S
C463 N466 1.301 . S
C463 N467 1.328 . S
C463 H468 0.930 . S
C464 C465 1.333 . S
C464 N466 1.317 . S
C464 H469 0.930 . S
C465 C464 1.333 . S
C465 N467 1.350 . S
C465 H491 0.931 . S
N466 Co462 2.148 . S
N466 C463 1.301 . S
N466 C464 1.317 . S
N467 C463 1.328 . S
N467 C465 1.350 . S
H468 C463 0.930 . S
H469 C464 0.930 . S
C470 O471 1.224 . S
C470 O489 1.247 . S
O471 C470 1.224 . S
N472 Co462 2.128 . S
N472 C473 1.355 . S
N472 C475 1.311 . S
C473 N472 1.355 . S
C473 C474 1.363 . S
C473 H485 0.929 . S
C474 C473 1.363 . S
C474 N476 1.375 . S
C474 H492 0.931 . S
C475 N472 1.311 . S
C475 N476 1.347 . S
C475 H486 0.929 . S
N476 C474 1.375 . S
N476 C475 1.347 . S
C477 C480 1.365 . S
C477 N482 1.328 . S
C477 H483 0.929 . S
C478 C479 1.362 . S
C478 C481 1.378 . S
C478 H493 0.929 . S
C479 C478 1.362 . S
C479 C480 1.366 . S
C480 C477 1.365 . S
C480 C479 1.366 . S
C480 H494 0.930 . S
C481 C478 1.378 . S
C481 N482 1.315 . S
C481 H484 0.930 . S
N482 Co462 2.194 . S
N482 C477 1.328 . S
N482 C481 1.315 . S
H483 C477 0.929 . S
H484 C481 0.930 . S
H485 C473 0.929 . S
H486 C475 0.929 . S
O487 Co462 2.351 . S
O487 C490 1.244 . S
O488 Co462 2.155 . S
O488 C490 1.240 . S
O489 Co462 2.096 . S
O489 C470 1.247 . S
C490 O487 1.244 . S
C490 O488 1.240 . S
H491 C465 0.931 . S
H492 C474 0.931 . S
H493 C478 0.929 . S
H494 C480 0.930 . S
Co495 N499 2.148 . S
Co495 N505 2.128 . S
Co495 N515 2.194 . S
Co495 O520 2.351 . S
Co495 O521 2.155 . S
Co495 O522 2.096 1_655 S
C496 N499 1.301 1_565 S
C496 N500 1.328 . S
C496 H501 0.930 1_565 S
C497 C498 1.342 . S
C497 N499 1.312 1_565 S
C497 H502 0.927 1_665 S
C498 C497 1.342 . S
C498 N500 1.350 . S
C498 H524 0.931 . S
N499 Co495 2.148 . S
N499 C496 1.301 1_545 S
N499 C497 1.312 1_545 S
N500 C496 1.328 . S
N500 C498 1.350 . S
H501 C496 0.930 1_545 S
H502 C497 0.927 1_445 S
C503 O504 1.224 . S
C503 O522 1.247 . S
O504 C503 1.224 . S
N505 Co495 2.128 . S
N505 C506 1.355 . S
N505 C508 1.311 1_655 S
C506 N505 1.355 . S
C506 C507 1.363 . S
C506 H518 0.929 . S
C507 C506 1.363 . S
C507 N509 1.375 1_655 S
C507 H525 0.931 . S
C508 N505 1.311 1_455 S
C508 N509 1.347 . S
C508 H519 0.929 . S
N509 C507 1.375 1_455 S
N509 C508 1.347 . S
C510 C513 1.365 . S
C510 N515 1.328 . S
C510 H516 0.929 . S
C511 C512 1.362 1_455 S
C511 C514 1.380 . S
C511 H526 0.929 . S
C512 C511 1.362 1_655 S
C512 C513 1.366 . S
C513 C510 1.365 . S
C513 C512 1.366 . S
C513 H527 0.930 . S
C514 C511 1.380 . S
C514 N515 1.296 1_455 S
C514 H517 0.949 . S
N515 Co495 2.194 . S
N515 C510 1.328 . S
N515 C514 1.296 1_655 S
H516 C510 0.929 . S
H517 C514 0.949 . S
H518 C506 0.929 . S
H519 C508 0.929 . S
O520 Co495 2.351 . S
O520 C523 1.244 . S
O521 Co495 2.155 . S
O521 C523 1.240 . S
O522 Co495 2.096 1_455 S
O522 C503 1.247 . S
C523 O520 1.244 . S
C523 O521 1.240 . S
H524 C498 0.931 . S
H525 C507 0.931 . S
H526 C511 0.929 . S
H527 C513 0.930 . S
Co528 N532 2.148 . S
Co528 N538 2.128 . S
Co528 N548 2.194 . S
Co528 O553 2.351 . S
Co528 O554 2.155 . S
Co528 O555 2.096 . S
C529 N532 1.301 . S
C529 N533 1.328 . S
C529 H534 0.930 . S
C530 C531 1.333 . S
C530 N532 1.317 . S
C530 H535 0.930 . S
C531 C530 1.333 . S
C531 N533 1.350 . S
C531 H557 0.931 . S
N532 Co528 2.148 . S
N532 C529 1.301 . S
N532 C530 1.317 . S
N533 C529 1.328 . S
N533 C531 1.350 . S
H534 C529 0.930 . S
H535 C530 0.930 . S
C536 O537 1.224 . S
C536 O555 1.247 . S
O537 C536 1.224 . S
N538 Co528 2.128 . S
N538 C539 1.355 . S
N538 C541 1.311 . S
C539 N538 1.355 . S
C539 C540 1.363 . S
C539 H551 0.929 . S
C540 C539 1.363 . S
C540 N542 1.375 . S
C540 H558 0.931 . S
C541 N538 1.311 . S
C541 N542 1.347 . S
C541 H552 0.929 . S
N542 C540 1.375 . S
N542 C541 1.347 . S
C543 C546 1.365 . S
C543 N548 1.328 . S
C543 H549 0.929 . S
C544 C545 1.362 . S
C544 C547 1.378 . S
C544 H559 0.929 . S
C545 C544 1.362 . S
C545 C546 1.366 . S
C546 C543 1.365 . S
C546 C545 1.366 . S
C546 H560 0.930 . S
C547 C544 1.378 . S
C547 N548 1.315 . S
C547 H550 0.930 . S
N548 Co528 2.194 . S
N548 C543 1.328 . S
N548 C547 1.315 . S
H549 C543 0.929 . S
H550 C547 0.930 . S
H551 C539 0.929 . S
H552 C541 0.929 . S
O553 Co528 2.351 . S
O553 C556 1.244 . S
O554 Co528 2.155 . S
O554 C556 1.240 . S
O555 Co528 2.096 . S
O555 C536 1.247 . S
C556 O553 1.244 . S
C556 O554 1.240 . S
H557 C531 0.931 . S
H558 C540 0.931 . S
H559 C544 0.929 . S
H560 C546 0.930 . S
Co561 N565 2.148 . S
Co561 N571 2.128 . S
Co561 N581 2.194 . S
Co561 O586 2.351 . S
Co561 O587 2.155 . S
Co561 O588 2.096 . S
C562 N565 1.301 . S
C562 N566 1.328 . S
C562 H567 0.930 . S
C563 C564 1.333 . S
C563 N565 1.317 . S
C563 H568 0.930 . S
C564 C563 1.333 . S
C564 N566 1.350 . S
C564 H590 0.931 . S
N565 Co561 2.148 . S
N565 C562 1.301 . S
N565 C563 1.317 . S
N566 C562 1.328 . S
N566 C564 1.350 . S
H567 C562 0.930 . S
H568 C563 0.930 . S
C569 O570 1.224 . S
C569 O588 1.247 . S
O570 C569 1.224 . S
N571 Co561 2.128 . S
N571 C572 1.355 . S
N571 C574 1.311 . S
C572 N571 1.355 . S
C572 C573 1.363 . S
C572 H584 0.929 . S
C573 C572 1.363 . S
C573 N575 1.375 . S
C573 H591 0.931 . S
C574 N571 1.311 . S
C574 N575 1.347 . S
C574 H585 0.929 . S
N575 C573 1.375 . S
N575 C574 1.347 . S
C576 C579 1.365 . S
C576 N581 1.328 . S
C576 H582 0.929 . S
C577 C578 1.362 . S
C577 C580 1.378 . S
C577 H592 0.929 . S
C578 C577 1.362 . S
C578 C579 1.366 . S
C579 C576 1.365 . S
C579 C578 1.366 . S
C579 H593 0.930 . S
C580 C577 1.378 . S
C580 N581 1.315 . S
C580 H583 0.930 . S
N581 Co561 2.194 . S
N581 C576 1.328 . S
N581 C580 1.315 . S
H582 C576 0.929 . S
H583 C580 0.930 . S
H584 C572 0.929 . S
H585 C574 0.929 . S
O586 Co561 2.351 . S
O586 C589 1.244 . S
O587 Co561 2.155 . S
O587 C589 1.240 . S
O588 Co561 2.096 . S
O588 C569 1.247 . S
C589 O586 1.244 . S
C589 O587 1.240 . S
H590 C564 0.931 . S
H591 C573 0.931 . S
H592 C577 0.929 . S
H593 C579 0.930 . S
Co594 N598 2.148 . S
Co594 N604 2.128 . S
Co594 N614 2.194 . S
Co594 O619 2.351 . S
Co594 O620 2.155 . S
Co594 O621 2.096 . S
C595 N598 1.301 . S
C595 N599 1.328 . S
C595 H600 0.930 . S
C596 C597 1.333 . S
C596 N598 1.317 . S
C596 H601 0.930 . S
C597 C596 1.333 . S
C597 N599 1.350 . S
C597 H623 0.931 . S
N598 Co594 2.148 . S
N598 C595 1.301 . S
N598 C596 1.317 . S
N599 C595 1.328 . S
N599 C597 1.350 . S
H600 C595 0.930 . S
H601 C596 0.930 . S
C602 O603 1.224 . S
C602 O621 1.247 . S
O603 C602 1.224 . S
N604 Co594 2.128 . S
N604 C605 1.355 . S
N604 C607 1.311 . S
C605 N604 1.355 . S
C605 C606 1.363 . S
C605 H617 0.929 . S
C606 C605 1.363 . S
C606 N608 1.375 . S
C606 H624 0.931 . S
C607 N604 1.311 . S
C607 N608 1.347 . S
C607 H618 0.929 . S
N608 C606 1.375 . S
N608 C607 1.347 . S
C609 C612 1.365 . S
C609 N614 1.328 . S
C609 H615 0.929 . S
C610 C611 1.362 . S
C610 C613 1.378 . S
C610 H625 0.929 . S
C611 C610 1.362 . S
C611 C612 1.366 . S
C612 C609 1.365 . S
C612 C611 1.366 . S
C612 H626 0.930 . S
C613 C610 1.378 . S
C613 N614 1.315 . S
C613 H616 0.930 . S
N614 Co594 2.194 . S
N614 C609 1.328 . S
N614 C613 1.315 . S
H615 C609 0.929 . S
H616 C613 0.930 . S
H617 C605 0.929 . S
H618 C607 0.929 . S
O619 Co594 2.351 . S
O619 C622 1.244 . S
O620 Co594 2.155 . S
O620 C622 1.240 . S
O621 Co594 2.096 . S
O621 C602 1.247 . S
C622 O619 1.244 . S
C622 O620 1.240 . S
H623 C597 0.931 . S
H624 C606 0.931 . S
H625 C610 0.929 . S
H626 C612 0.930 . S
Co627 N631 2.148 . S
Co627 N637 2.128 . S
Co627 N647 2.194 . S
Co627 O652 2.351 . S
Co627 O653 2.155 . S
Co627 O654 2.096 1_655 S
C628 N631 1.301 . S
C628 N632 1.328 . S
C628 H633 0.930 . S
C629 C630 1.333 . S
C629 N631 1.317 . S
C629 H634 0.930 1_655 S
C630 C629 1.333 . S
C630 N632 1.350 . S
C630 H656 0.931 . S
N631 Co627 2.148 . S
N631 C628 1.301 . S
N631 C629 1.317 . S
N632 C628 1.328 . S
N632 C630 1.350 . S
H633 C628 0.930 . S
H634 C629 0.930 1_455 S
C635 O636 1.224 . S
C635 O654 1.247 . S
O636 C635 1.224 . S
N637 Co627 2.128 . S
N637 C638 1.355 . S
N637 C640 1.311 1_655 S
C638 N637 1.355 . S
C638 C639 1.363 . S
C638 H650 0.929 . S
C639 C638 1.363 . S
C639 N641 1.375 1_655 S
C639 H657 0.931 . S
C640 N637 1.311 1_455 S
C640 N641 1.347 . S
C640 H651 0.929 . S
N641 C639 1.375 1_455 S
N641 C640 1.347 . S
C642 C645 1.365 . S
C642 N647 1.328 . S
C642 H648 0.929 . S
C643 C644 1.362 1_455 S
C643 C646 1.380 . S
C643 H658 0.929 . S
C644 C643 1.362 1_655 S
C644 C645 1.366 . S
C645 C642 1.365 . S
C645 C644 1.366 . S
C645 H659 0.930 . S
C646 C643 1.380 . S
C646 N647 1.296 1_455 S
C646 H649 0.949 . S
N647 Co627 2.194 . S
N647 C642 1.328 . S
N647 C646 1.296 1_655 S
H648 C642 0.929 . S
H649 C646 0.949 . S
H650 C638 0.929 . S
H651 C640 0.929 . S
O652 Co627 2.351 . S
O652 C655 1.244 . S
O653 Co627 2.155 . S
O653 C655 1.240 . S
O654 Co627 2.096 1_455 S
O654 C635 1.247 . S
C655 O652 1.244 . S
C655 O653 1.240 . S
H656 C630 0.931 . S
H657 C639 0.931 . S
H658 C643 0.929 . S
H659 C645 0.930 . S
Co660 N664 2.148 . S
Co660 N670 2.128 . S
Co660 N680 2.194 . S
Co660 O685 2.351 . S
Co660 O686 2.155 . S
Co660 O687 2.096 . S
C661 N664 1.301 . S
C661 N665 1.328 . S
C661 H666 0.930 . S
C662 C663 1.333 . S
C662 N664 1.317 . S
C662 H667 0.930 . S
C663 C662 1.333 . S
C663 N665 1.350 . S
C663 H689 0.931 . S
N664 Co660 2.148 . S
N664 C661 1.301 . S
N664 C662 1.317 . S
N665 C661 1.328 . S
N665 C663 1.350 . S
H666 C661 0.930 . S
H667 C662 0.930 . S
C668 O669 1.224 . S
C668 O687 1.247 . S
O669 C668 1.224 . S
N670 Co660 2.128 . S
N670 C671 1.355 . S
N670 C673 1.311 . S
C671 N670 1.355 . S
C671 C672 1.363 . S
C671 H683 0.929 . S
C672 C671 1.363 . S
C672 N674 1.375 . S
C672 H690 0.931 . S
C673 N670 1.311 . S
C673 N674 1.347 . S
C673 H684 0.929 . S
N674 C672 1.375 . S
N674 C673 1.347 . S
C675 C678 1.365 . S
C675 N680 1.328 . S
C675 H681 0.929 . S
C676 C677 1.362 . S
C676 C679 1.378 . S
C676 H691 0.929 . S
C677 C676 1.362 . S
C677 C678 1.366 . S
C678 C675 1.365 . S
C678 C677 1.366 . S
C678 H692 0.930 . S
C679 C676 1.378 . S
C679 N680 1.315 . S
C679 H682 0.930 . S
N680 Co660 2.194 . S
N680 C675 1.328 . S
N680 C679 1.315 . S
H681 C675 0.929 . S
H682 C679 0.930 . S
H683 C671 0.929 . S
H684 C673 0.929 . S
O685 Co660 2.351 . S
O685 C688 1.244 . S
O686 Co660 2.155 . S
O686 C688 1.240 . S
O687 Co660 2.096 . S
O687 C668 1.247 . S
C688 O685 1.244 . S
C688 O686 1.240 . S
H689 C663 0.931 . S
H690 C672 0.931 . S
H691 C676 0.929 . S
H692 C678 0.930 . S
Co693 N697 2.148 . S
Co693 N703 2.128 . S
Co693 N713 2.194 . S
Co693 O718 2.351 . S
Co693 O719 2.155 . S
Co693 O720 2.096 1_655 S
C694 N697 1.301 . S
C694 N698 1.328 . S
C694 H699 0.930 . S
C695 C696 1.333 . S
C695 N697 1.317 . S
C695 H700 0.930 1_655 S
C696 C695 1.333 . S
C696 N698 1.350 . S
C696 H722 0.931 . S
N697 Co693 2.148 . S
N697 C694 1.301 . S
N697 C695 1.317 . S
N698 C694 1.328 . S
N698 C696 1.350 . S
H699 C694 0.930 . S
H700 C695 0.930 1_455 S
C701 O702 1.224 . S
C701 O720 1.247 . S
O702 C701 1.224 . S
N703 Co693 2.128 . S
N703 C704 1.355 . S
N703 C706 1.311 1_655 S
C704 N703 1.355 . S
C704 C705 1.363 . S
C704 H716 0.929 . S
C705 C704 1.363 . S
C705 N707 1.375 1_655 S
C705 H723 0.931 . S
C706 N703 1.311 1_455 S
C706 N707 1.347 . S
C706 H717 0.929 . S
N707 C705 1.375 1_455 S
N707 C706 1.347 . S
C708 C711 1.365 . S
C708 N713 1.328 . S
C708 H714 0.929 . S
C709 C710 1.362 1_455 S
C709 C712 1.380 . S
C709 H724 0.929 . S
C710 C709 1.362 1_655 S
C710 C711 1.366 . S
C711 C708 1.365 . S
C711 C710 1.366 . S
C711 H725 0.930 . S
C712 C709 1.380 . S
C712 N713 1.296 1_455 S
C712 H715 0.949 . S
N713 Co693 2.194 . S
N713 C708 1.328 . S
N713 C712 1.296 1_655 S
H714 C708 0.929 . S
H715 C712 0.949 . S
H716 C704 0.929 . S
H717 C706 0.929 . S
O718 Co693 2.351 . S
O718 C721 1.244 . S
O719 Co693 2.155 . S
O719 C721 1.240 . S
O720 Co693 2.096 1_455 S
O720 C701 1.247 . S
C721 O718 1.244 . S
C721 O719 1.240 . S
H722 C696 0.931 . S
H723 C705 0.931 . S
H724 C709 0.929 . S
H725 C711 0.930 . S
Co726 N730 2.148 . S
Co726 N736 2.128 . S
Co726 N746 2.194 . S
Co726 O751 2.351 . S
Co726 O752 2.155 . S
Co726 O753 2.096 . S
C727 N730 1.301 . S
C727 N731 1.328 . S
C727 H732 0.930 . S
C728 C729 1.333 . S
C728 N730 1.317 . S
C728 H733 0.930 . S
C729 C728 1.333 . S
C729 N731 1.350 . S
C729 H755 0.931 . S
N730 Co726 2.148 . S
N730 C727 1.301 . S
N730 C728 1.317 . S
N731 C727 1.328 . S
N731 C729 1.350 . S
H732 C727 0.930 . S
H733 C728 0.930 . S
C734 O735 1.224 . S
C734 O753 1.247 . S
O735 C734 1.224 . S
N736 Co726 2.128 . S
N736 C737 1.355 . S
N736 C739 1.311 . S
C737 N736 1.355 . S
C737 C738 1.363 . S
C737 H749 0.929 . S
C738 C737 1.363 . S
C738 N740 1.375 . S
C738 H756 0.931 . S
C739 N736 1.311 . S
C739 N740 1.347 . S
C739 H750 0.929 . S
N740 C738 1.375 . S
N740 C739 1.347 . S
C741 C744 1.365 . S
C741 N746 1.328 . S
C741 H747 0.929 . S
C742 C743 1.362 . S
C742 C745 1.378 . S
C742 H757 0.929 . S
C743 C742 1.362 . S
C743 C744 1.366 . S
C744 C741 1.365 . S
C744 C743 1.366 . S
C744 H758 0.930 . S
C745 C742 1.378 . S
C745 N746 1.315 . S
C745 H748 0.930 . S
N746 Co726 2.194 . S
N746 C741 1.328 . S
N746 C745 1.315 . S
H747 C741 0.929 . S
H748 C745 0.930 . S
H749 C737 0.929 . S
H750 C739 0.929 . S
O751 Co726 2.351 . S
O751 C754 1.244 . S
O752 Co726 2.155 . S
O752 C754 1.240 . S
O753 Co726 2.096 . S
O753 C734 1.247 . S
C754 O751 1.244 . S
C754 O752 1.240 . S
H755 C729 0.931 . S
H756 C738 0.931 . S
H757 C742 0.929 . S
H758 C744 0.930 . S
Co759 N763 2.148 . S
Co759 N769 2.128 . S
Co759 N779 2.194 . S
Co759 O784 2.351 . S
Co759 O785 2.155 . S
Co759 O786 2.096 . S
C760 N763 1.301 . S
C760 N764 1.328 . S
C760 H765 0.930 . S
C761 C762 1.333 . S
C761 N763 1.317 . S
C761 H766 0.930 . S
C762 C761 1.333 . S
C762 N764 1.350 . S
C762 H788 0.931 . S
N763 Co759 2.148 . S
N763 C760 1.301 . S
N763 C761 1.317 . S
N764 C760 1.328 . S
N764 C762 1.350 . S
H765 C760 0.930 . S
H766 C761 0.930 . S
C767 O768 1.224 . S
C767 O786 1.247 . S
O768 C767 1.224 . S
N769 Co759 2.128 . S
N769 C770 1.355 . S
N769 C772 1.311 . S
C770 N769 1.355 . S
C770 C771 1.363 . S
C770 H782 0.929 . S
C771 C770 1.363 . S
C771 N773 1.375 . S
C771 H789 0.931 . S
C772 N769 1.311 . S
C772 N773 1.347 . S
C772 H783 0.929 . S
N773 C771 1.375 . S
N773 C772 1.347 . S
C774 C777 1.365 . S
C774 N779 1.328 . S
C774 H780 0.929 . S
C775 C776 1.362 . S
C775 C778 1.378 . S
C775 H790 0.929 . S
C776 C775 1.362 . S
C776 C777 1.366 . S
C777 C774 1.365 . S
C777 C776 1.366 . S
C777 H791 0.930 . S
C778 C775 1.378 . S
C778 N779 1.315 . S
C778 H781 0.930 . S
N779 Co759 2.194 . S
N779 C774 1.328 . S
N779 C778 1.315 . S
H780 C774 0.929 . S
H781 C778 0.930 . S
H782 C770 0.929 . S
H783 C772 0.929 . S
O784 Co759 2.351 . S
O784 C787 1.244 . S
O785 Co759 2.155 . S
O785 C787 1.240 . S
O786 Co759 2.096 . S
O786 C767 1.247 . S
C787 O784 1.244 . S
C787 O785 1.240 . S
H788 C762 0.931 . S
H789 C771 0.931 . S
H790 C775 0.929 . S
H791 C777 0.930 . S
Co792 N796 2.148 . S
Co792 N802 2.128 . S
Co792 N812 2.194 . S
Co792 O817 2.351 . S
Co792 O818 2.155 . S
Co792 O819 2.096 . S
C793 N796 1.301 . S
C793 N797 1.328 . S
C793 H798 0.930 . S
C794 C795 1.333 . S
C794 N796 1.317 . S
C794 H799 0.930 . S
C795 C794 1.333 . S
C795 N797 1.350 . S
C795 H821 0.931 . S
N796 Co792 2.148 . S
N796 C793 1.301 . S
N796 C794 1.317 . S
N797 C793 1.328 . S
N797 C795 1.350 . S
H798 C793 0.930 . S
H799 C794 0.930 . S
C800 O801 1.224 . S
C800 O819 1.247 . S
O801 C800 1.224 . S
N802 Co792 2.128 . S
N802 C803 1.355 . S
N802 C805 1.311 . S
C803 N802 1.355 . S
C803 C804 1.363 . S
C803 H815 0.929 . S
C804 C803 1.363 . S
C804 N806 1.375 . S
C804 H822 0.931 . S
C805 N802 1.311 . S
C805 N806 1.347 . S
C805 H816 0.929 . S
N806 C804 1.375 . S
N806 C805 1.347 . S
C807 C810 1.365 . S
C807 N812 1.328 . S
C807 H813 0.929 . S
C808 C809 1.362 . S
C808 C811 1.378 . S
C808 H823 0.929 . S
C809 C808 1.362 . S
C809 C810 1.366 . S
C810 C807 1.365 . S
C810 C809 1.366 . S
C810 H824 0.930 . S
C811 C808 1.378 . S
C811 N812 1.315 . S
C811 H814 0.930 . S
N812 Co792 2.194 . S
N812 C807 1.328 . S
N812 C811 1.315 . S
H813 C807 0.929 . S
H814 C811 0.930 . S
H815 C803 0.929 . S
H816 C805 0.929 . S
O817 Co792 2.351 . S
O817 C820 1.244 . S
O818 Co792 2.155 . S
O818 C820 1.240 . S
O819 Co792 2.096 . S
O819 C800 1.247 . S
C820 O817 1.244 . S
C820 O818 1.240 . S
H821 C795 0.931 . S
H822 C804 0.931 . S
H823 C808 0.929 . S
H824 C810 0.930 . S
Co825 N829 2.148 . S
Co825 N835 2.128 . S
Co825 N845 2.194 . S
Co825 O850 2.351 . S
Co825 O851 2.155 . S
Co825 O852 2.096 . S
C826 N829 1.301 . S
C826 N830 1.328 . S
C826 H831 0.930 . S
C827 C828 1.333 . S
C827 N829 1.317 . S
C827 H832 0.930 . S
C828 C827 1.333 . S
C828 N830 1.350 . S
C828 H854 0.931 . S
N829 Co825 2.148 . S
N829 C826 1.301 . S
N829 C827 1.317 . S
N830 C826 1.328 . S
N830 C828 1.350 . S
H831 C826 0.930 . S
H832 C827 0.930 . S
C833 O834 1.224 . S
C833 O852 1.247 . S
O834 C833 1.224 . S
N835 Co825 2.128 . S
N835 C836 1.355 . S
N835 C838 1.311 . S
C836 N835 1.355 . S
C836 C837 1.363 . S
C836 H848 0.929 . S
C837 C836 1.363 . S
C837 N839 1.375 . S
C837 H855 0.931 . S
C838 N835 1.311 . S
C838 N839 1.347 . S
C838 H849 0.929 . S
N839 C837 1.375 . S
N839 C838 1.347 . S
C840 C843 1.365 . S
C840 N845 1.328 . S
C840 H846 0.929 . S
C841 C842 1.362 . S
C841 C844 1.378 . S
C841 H856 0.929 . S
C842 C841 1.362 . S
C842 C843 1.366 . S
C843 C840 1.365 . S
C843 C842 1.366 . S
C843 H857 0.930 . S
C844 C841 1.378 . S
C844 N845 1.315 . S
C844 H847 0.930 . S
N845 Co825 2.194 . S
N845 C840 1.328 . S
N845 C844 1.315 . S
H846 C840 0.929 . S
H847 C844 0.930 . S
H848 C836 0.929 . S
H849 C838 0.929 . S
O850 Co825 2.351 . S
O850 C853 1.244 . S
O851 Co825 2.155 . S
O851 C853 1.240 . S
O852 Co825 2.096 . S
O852 C833 1.247 . S
C853 O850 1.244 . S
C853 O851 1.240 . S
H854 C828 0.931 . S
H855 C837 0.931 . S
H856 C841 0.929 . S
H857 C843 0.930 . S
Co858 N862 2.148 . S
Co858 N868 2.128 . S
Co858 N878 2.194 . S
Co858 O883 2.351 . S
Co858 O884 2.155 . S
Co858 O885 2.096 . S
C859 N862 1.301 . S
C859 N863 1.328 . S
C859 H864 0.930 . S
C860 C861 1.333 . S
C860 N862 1.317 . S
C860 H865 0.930 . S
C861 C860 1.333 . S
C861 N863 1.350 . S
C861 H887 0.931 . S
N862 Co858 2.148 . S
N862 C859 1.301 . S
N862 C860 1.317 . S
N863 C859 1.328 . S
N863 C861 1.350 . S
H864 C859 0.930 . S
H865 C860 0.930 . S
C866 O867 1.224 . S
C866 O885 1.247 . S
O867 C866 1.224 . S
N868 Co858 2.128 . S
N868 C869 1.355 . S
N868 C871 1.311 . S
C869 N868 1.355 . S
C869 C870 1.363 . S
C869 H881 0.929 . S
C870 C869 1.363 . S
C870 N872 1.375 . S
C870 H888 0.931 . S
C871 N868 1.311 . S
C871 N872 1.347 . S
C871 H882 0.929 . S
N872 C870 1.375 . S
N872 C871 1.347 . S
C873 C876 1.365 . S
C873 N878 1.328 . S
C873 H879 0.929 . S
C874 C875 1.362 . S
C874 C877 1.378 . S
C874 H889 0.929 . S
C875 C874 1.362 . S
C875 C876 1.366 . S
C876 C873 1.365 . S
C876 C875 1.366 . S
C876 H890 0.930 . S
C877 C874 1.378 . S
C877 N878 1.315 . S
C877 H880 0.930 . S
N878 Co858 2.194 . S
N878 C873 1.328 . S
N878 C877 1.315 . S
H879 C873 0.929 . S
H880 C877 0.930 . S
H881 C869 0.929 . S
H882 C871 0.929 . S
O883 Co858 2.351 . S
O883 C886 1.244 . S
O884 Co858 2.155 . S
O884 C886 1.240 . S
O885 Co858 2.096 . S
O885 C866 1.247 . S
C886 O883 1.244 . S
C886 O884 1.240 . S
H887 C861 0.931 . S
H888 C870 0.931 . S
H889 C874 0.929 . S
H890 C876 0.930 . S
Co891 N895 2.148 . S
Co891 N901 2.128 . S
Co891 N911 2.194 . S
Co891 O916 2.351 . S
Co891 O917 2.155 . S
Co891 O918 2.096 1_455 S
C892 N895 1.301 . S
C892 N896 1.328 . S
C892 H897 0.930 . S
C893 C894 1.333 . S
C893 N895 1.317 . S
C893 H898 0.930 1_455 S
C894 C893 1.333 . S
C894 N896 1.350 . S
C894 H920 0.931 . S
N895 Co891 2.148 . S
N895 C892 1.301 . S
N895 C893 1.317 . S
N896 C892 1.328 . S
N896 C894 1.350 . S
H897 C892 0.930 . S
H898 C893 0.930 1_655 S
C899 O900 1.224 . S
C899 O918 1.247 . S
O900 C899 1.224 . S
N901 Co891 2.128 . S
N901 C902 1.355 . S
N901 C904 1.311 1_455 S
C902 N901 1.355 . S
C902 C903 1.363 . S
C902 H914 0.929 . S
C903 C902 1.363 . S
C903 N905 1.375 1_455 S
C903 H921 0.931 . S
C904 N901 1.311 1_655 S
C904 N905 1.347 . S
C904 H915 0.929 . S
N905 C903 1.375 1_655 S
N905 C904 1.347 . S
C906 C909 1.365 . S
C906 N911 1.328 . S
C906 H912 0.929 . S
C907 C908 1.362 1_655 S
C907 C910 1.380 . S
C907 H922 0.929 . S
C908 C907 1.362 1_455 S
C908 C909 1.366 . S
C909 C906 1.365 . S
C909 C908 1.366 . S
C909 H923 0.930 . S
C910 C907 1.380 . S
C910 N911 1.296 1_655 S
C910 H913 0.949 . S
N911 Co891 2.194 . S
N911 C906 1.328 . S
N911 C910 1.296 1_455 S
H912 C906 0.929 . S
H913 C910 0.949 . S
H914 C902 0.929 . S
H915 C904 0.929 . S
O916 Co891 2.351 . S
O916 C919 1.244 . S
O917 Co891 2.155 . S
O917 C919 1.240 . S
O918 Co891 2.096 1_655 S
O918 C899 1.247 . S
C919 O916 1.244 . S
C919 O917 1.240 . S
H920 C894 0.931 . S
H921 C903 0.931 . S
H922 C907 0.929 . S
H923 C909 0.930 . S
Co924 N928 2.148 . S
Co924 N934 2.128 . S
Co924 N944 2.194 . S
Co924 O949 2.351 . S
Co924 O950 2.155 . S
Co924 O951 2.096 . S
C925 N928 1.301 . S
C925 N929 1.328 . S
C925 H930 0.930 . S
C926 C927 1.333 . S
C926 N928 1.317 . S
C926 H931 0.930 . S
C927 C926 1.333 . S
C927 N929 1.350 . S
C927 H953 0.931 . S
N928 Co924 2.148 . S
N928 C925 1.301 . S
N928 C926 1.317 . S
N929 C925 1.328 . S
N929 C927 1.350 . S
H930 C925 0.930 . S
H931 C926 0.930 . S
C932 O933 1.224 . S
C932 O951 1.247 . S
O933 C932 1.224 . S
N934 Co924 2.128 . S
N934 C935 1.355 . S
N934 C937 1.311 . S
C935 N934 1.355 . S
C935 C936 1.363 . S
C935 H947 0.929 . S
C936 C935 1.363 . S
C936 N938 1.375 . S
C936 H954 0.931 . S
C937 N934 1.311 . S
C937 N938 1.347 . S
C937 H948 0.929 . S
N938 C936 1.375 . S
N938 C937 1.347 . S
C939 C942 1.365 . S
C939 N944 1.328 . S
C939 H945 0.929 . S
C940 C941 1.362 . S
C940 C943 1.378 . S
C940 H955 0.929 . S
C941 C940 1.362 . S
C941 C942 1.366 . S
C942 C939 1.365 . S
C942 C941 1.366 . S
C942 H956 0.930 . S
C943 C940 1.378 . S
C943 N944 1.315 . S
C943 H946 0.930 . S
N944 Co924 2.194 . S
N944 C939 1.328 . S
N944 C943 1.315 . S
H945 C939 0.929 . S
H946 C943 0.930 . S
H947 C935 0.929 . S
H948 C937 0.929 . S
O949 Co924 2.351 . S
O949 C952 1.244 . S
O950 Co924 2.155 . S
O950 C952 1.240 . S
O951 Co924 2.096 . S
O951 C932 1.247 . S
C952 O949 1.244 . S
C952 O950 1.240 . S
H953 C927 0.931 . S
H954 C936 0.931 . S
H955 C940 0.929 . S
H956 C942 0.930 . S
Co957 N961 2.148 . S
Co957 N967 2.128 . S
Co957 N977 2.194 . S
Co957 O982 2.351 . S
Co957 O983 2.155 . S
Co957 O984 2.096 1_455 S
C958 N961 1.301 . S
C958 N962 1.328 . S
C958 H963 0.930 . S
C959 C960 1.333 . S
C959 N961 1.317 . S
C959 H964 0.930 1_455 S
C960 C959 1.333 . S
C960 N962 1.350 . S
C960 H986 0.931 . S
N961 Co957 2.148 . S
N961 C958 1.301 . S
N961 C959 1.317 . S
N962 C958 1.328 . S
N962 C960 1.350 . S
H963 C958 0.930 . S
H964 C959 0.930 1_655 S
C965 O966 1.224 . S
C965 O984 1.247 . S
O966 C965 1.224 . S
N967 Co957 2.128 . S
N967 C968 1.355 . S
N967 C970 1.311 1_455 S
C968 N967 1.355 . S
C968 C969 1.363 . S
C968 H980 0.929 . S
C969 C968 1.363 . S
C969 N971 1.375 1_455 S
C969 H987 0.931 . S
C970 N967 1.311 1_655 S
C970 N971 1.347 . S
C970 H981 0.929 . S
N971 C969 1.375 1_655 S
N971 C970 1.347 . S
C972 C975 1.365 . S
C972 N977 1.328 . S
C972 H978 0.929 . S
C973 C974 1.362 1_655 S
C973 C976 1.380 . S
C973 H988 0.929 . S
C974 C973 1.362 1_455 S
C974 C975 1.366 . S
C975 C972 1.365 . S
C975 C974 1.366 . S
C975 H989 0.930 . S
C976 C973 1.380 . S
C976 N977 1.296 1_655 S
C976 H979 0.949 . S
N977 Co957 2.194 . S
N977 C972 1.328 . S
N977 C976 1.296 1_455 S
H978 C972 0.929 . S
H979 C976 0.949 . S
H980 C968 0.929 . S
H981 C970 0.929 . S
O982 Co957 2.351 . S
O982 C985 1.244 . S
O983 Co957 2.155 . S
O983 C985 1.240 . S
O984 Co957 2.096 1_655 S
O984 C965 1.247 . S
C985 O982 1.244 . S
C985 O983 1.240 . S
H986 C960 0.931 . S
H987 C969 0.931 . S
H988 C973 0.929 . S
H989 C975 0.930 . S
Co990 N994 2.148 . S
Co990 N1000 2.128 . S
Co990 N1010 2.194 . S
Co990 O1015 2.351 . S
Co990 O1016 2.155 . S
Co990 O1017 2.096 . S
C991 N994 1.301 . S
C991 N995 1.328 . S
C991 H996 0.930 . S
C992 C993 1.333 . S
C992 N994 1.317 . S
C992 H997 0.930 . S
C993 C992 1.333 . S
C993 N995 1.350 . S
C993 H1019 0.931 . S
N994 Co990 2.148 . S
N994 C991 1.301 . S
N994 C992 1.317 . S
N995 C991 1.328 . S
N995 C993 1.350 . S
H996 C991 0.930 . S
H997 C992 0.930 . S
C998 O999 1.224 . S
C998 O1017 1.247 . S
O999 C998 1.224 . S
N1000 Co990 2.128 . S
N1000 C1001 1.355 . S
N1000 C1003 1.311 . S
C1001 N1000 1.355 . S
C1001 C1002 1.363 . S
C1001 H1013 0.929 . S
C1002 C1001 1.363 . S
C1002 N1004 1.375 . S
C1002 H1020 0.931 . S
C1003 N1000 1.311 . S
C1003 N1004 1.347 . S
C1003 H1014 0.929 . S
N1004 C1002 1.375 . S
N1004 C1003 1.347 . S
C1005 C1008 1.365 . S
C1005 N1010 1.328 . S
C1005 H1011 0.929 . S
C1006 C1007 1.362 . S
C1006 C1009 1.378 . S
C1006 H1021 0.929 . S
C1007 C1006 1.362 . S
C1007 C1008 1.366 . S
C1008 C1005 1.365 . S
C1008 C1007 1.366 . S
C1008 H1022 0.930 . S
C1009 C1006 1.378 . S
C1009 N1010 1.315 . S
C1009 H1012 0.930 . S
N1010 Co990 2.194 . S
N1010 C1005 1.328 . S
N1010 C1009 1.315 . S
H1011 C1005 0.929 . S
H1012 C1009 0.930 . S
H1013 C1001 0.929 . S
H1014 C1003 0.929 . S
O1015 Co990 2.351 . S
O1015 C1018 1.244 . S
O1016 Co990 2.155 . S
O1016 C1018 1.240 . S
O1017 Co990 2.096 . S
O1017 C998 1.247 . S
C1018 O1015 1.244 . S
C1018 O1016 1.240 . S
H1019 C993 0.931 . S
H1020 C1002 0.931 . S
H1021 C1006 0.929 . S
H1022 C1008 0.930 . S
Co1023 N1027 2.148 . S
Co1023 N1033 2.128 . S
Co1023 N1043 2.194 . S
Co1023 O1048 2.351 . S
Co1023 O1049 2.155 . S
Co1023 O1050 2.096 . S
C1024 N1027 1.301 . S
C1024 N1028 1.328 . S
C1024 H1029 0.930 . S
C1025 C1026 1.333 . S
C1025 N1027 1.317 . S
C1025 H1030 0.930 . S
C1026 C1025 1.333 . S
C1026 N1028 1.350 . S
C1026 H1052 0.931 . S
N1027 Co1023 2.148 . S
N1027 C1024 1.301 . S
N1027 C1025 1.317 . S
N1028 C1024 1.328 . S
N1028 C1026 1.350 . S
H1029 C1024 0.930 . S
H1030 C1025 0.930 . S
C1031 O1032 1.224 . S
C1031 O1050 1.247 . S
O1032 C1031 1.224 . S
N1033 Co1023 2.128 . S
N1033 C1034 1.355 . S
N1033 C1036 1.311 . S
C1034 N1033 1.355 . S
C1034 C1035 1.363 . S
C1034 H1046 0.929 . S
C1035 C1034 1.363 . S
C1035 N1037 1.375 . S
C1035 H1053 0.931 . S
C1036 N1033 1.311 . S
C1036 N1037 1.347 . S
C1036 H1047 0.929 . S
N1037 C1035 1.375 . S
N1037 C1036 1.347 . S
C1038 C1041 1.365 . S
C1038 N1043 1.328 . S
C1038 H1044 0.929 . S
C1039 C1040 1.362 . S
C1039 C1042 1.378 . S
C1039 H1054 0.929 . S
C1040 C1039 1.362 . S
C1040 C1041 1.366 . S
C1041 C1038 1.365 . S
C1041 C1040 1.366 . S
C1041 H1055 0.930 . S
C1042 C1039 1.378 . S
C1042 N1043 1.315 . S
C1042 H1045 0.930 . S
N1043 Co1023 2.194 . S
N1043 C1038 1.328 . S
N1043 C1042 1.315 . S
H1044 C1038 0.929 . S
H1045 C1042 0.930 . S
H1046 C1034 0.929 . S
H1047 C1036 0.929 . S
O1048 Co1023 2.351 . S
O1048 C1051 1.244 . S
O1049 Co1023 2.155 . S
O1049 C1051 1.240 . S
O1050 Co1023 2.096 . S
O1050 C1031 1.247 . S
C1051 O1048 1.244 . S
C1051 O1049 1.240 . S
H1052 C1026 0.931 . S
H1053 C1035 0.931 . S
H1054 C1039 0.929 . S
H1055 C1041 0.930 . S
H1056 C1062 0.930 . S
H1057 C1065 0.930 . S
H1058 C1066 0.930 . S
H1059 C1067 0.930 . S
H1060 C1070 0.930 . S
H1061 C1071 0.930 . S
C1062 H1056 0.930 . S
C1062 C1063 1.355 . S
C1062 C1064 1.415 . S
C1063 C1062 1.355 . S
C1063 C1065 1.419 . S
C1064 C1062 1.415 . S
C1064 C1069 1.425 . S
C1064 C1071 1.409 . S
C1065 H1057 0.930 . S
C1065 C1063 1.419 . S
C1065 C1066 1.362 . S
C1066 H1058 0.930 . S
C1066 C1065 1.362 . S
C1066 C1069 1.409 . S
C1067 H1059 0.930 . S
C1067 C1068 1.355 . S
C1067 C1069 1.415 . S
C1068 C1067 1.355 . S
C1068 C1070 1.419 . S
C1069 C1064 1.425 . S
C1069 C1066 1.409 . S
C1069 C1067 1.415 . S
C1070 H1060 0.930 . S
C1070 C1068 1.419 . S
C1070 C1071 1.362 . S
C1071 H1061 0.930 . S
C1071 C1064 1.409 . S
C1071 C1070 1.362 . S
H1072 C1078 0.930 . S
H1073 C1081 0.930 . S
H1074 C1082 0.930 . S
H1075 C1083 0.930 . S
H1076 C1086 0.930 . S
H1077 C1087 0.930 . S
C1078 H1072 0.930 . S
C1078 C1079 1.355 1_455 S
C1078 C1080 1.415 . S
C1079 C1078 1.355 1_655 S
C1079 C1081 1.419 . S
C1080 C1078 1.415 . S
C1080 C1085 1.425 1_455 S
C1080 C1087 1.409 . S
C1081 H1073 0.930 . S
C1081 C1079 1.419 . S
C1081 C1082 1.362 . S
C1082 H1074 0.930 . S
C1082 C1081 1.362 . S
C1082 C1085 1.409 . S
C1083 H1075 0.930 . S
C1083 C1084 1.355 1_655 S
C1083 C1085 1.415 . S
C1084 C1083 1.355 1_455 S
C1084 C1086 1.419 . S
C1085 C1080 1.425 1_655 S
C1085 C1082 1.409 . S
C1085 C1083 1.415 . S
C1086 H1076 0.930 . S
C1086 C1084 1.419 . S
C1086 C1087 1.362 . S
C1087 H1077 0.930 . S
C1087 C1080 1.409 . S
C1087 C1086 1.362 . S
H1088 C1094 0.930 . S
H1089 C1097 0.930 . S
H1090 C1098 0.930 1_655 S
H1091 C1099 0.930 . S
H1092 C1102 0.930 . S
H1093 C1103 0.930 1_455 S
C1094 H1088 0.930 . S
C1094 C1095 1.355 . S
C1094 C1096 1.415 . S
C1095 C1094 1.355 . S
C1095 C1097 1.419 . S
C1096 C1094 1.415 . S
C1096 C1101 1.425 1_455 S
C1096 C1103 1.409 1_455 S
C1097 H1089 0.930 . S
C1097 C1095 1.419 . S
C1097 C1098 1.362 . S
C1098 H1090 0.930 1_455 S
C1098 C1097 1.362 . S
C1098 C1101 1.409 1_455 S
C1099 H1091 0.930 . S
C1099 C1100 1.355 . S
C1099 C1101 1.415 . S
C1100 C1099 1.355 . S
C1100 C1102 1.419 . S
C1101 C1096 1.425 1_655 S
C1101 C1098 1.409 1_655 S
C1101 C1099 1.415 . S
C1102 H1092 0.930 . S
C1102 C1100 1.419 . S
C1102 C1103 1.362 . S
C1103 H1093 0.930 1_655 S
C1103 C1096 1.409 1_655 S
C1103 C1102 1.362 . S
H1104 C1110 0.930 . S
H1105 C1113 0.930 . S
H1106 C1114 0.930 . S
H1107 C1115 0.930 . S
H1108 C1118 0.930 . S
H1109 C1119 0.930 . S
C1110 H1104 0.930 . S
C1110 C1111 1.355 . S
C1110 C1112 1.415 . S
C1111 C1110 1.355 . S
C1111 C1113 1.419 . S
C1112 C1110 1.415 . S
C1112 C1117 1.425 . S
C1112 C1119 1.409 . S
C1113 H1105 0.930 . S
C1113 C1111 1.419 . S
C1113 C1114 1.362 . S
C1114 H1106 0.930 . S
C1114 C1113 1.362 . S
C1114 C1117 1.409 . S
C1115 H1107 0.930 . S
C1115 C1116 1.355 . S
C1115 C1117 1.415 . S
C1116 C1115 1.355 . S
C1116 C1118 1.419 . S
C1117 C1112 1.425 . S
C1117 C1114 1.409 . S
C1117 C1115 1.415 . S
C1118 H1108 0.930 . S
C1118 C1116 1.419 . S
C1118 C1119 1.362 . S
C1119 H1109 0.930 . S
C1119 C1112 1.409 . S
C1119 C1118 1.362 . S
H1120 C1126 0.930 . S
H1121 C1129 0.930 . S
H1122 C1130 0.930 . S
H1123 C1131 0.930 . S
H1124 C1134 0.930 . S
H1125 C1135 0.930 . S
C1126 H1120 0.930 . S
C1126 C1127 1.355 . S
C1126 C1128 1.415 . S
C1127 C1126 1.355 . S
C1127 C1129 1.419 . S
C1128 C1126 1.415 . S
C1128 C1133 1.425 . S
C1128 C1135 1.409 . S
C1129 H1121 0.930 . S
C1129 C1127 1.419 . S
C1129 C1130 1.362 . S
C1130 H1122 0.930 . S
C1130 C1129 1.362 . S
C1130 C1133 1.409 . S
C1131 H1123 0.930 . S
C1131 C1132 1.355 . S
C1131 C1133 1.415 . S
C1132 C1131 1.355 . S
C1132 C1134 1.419 . S
C1133 C1128 1.425 . S
C1133 C1130 1.409 . S
C1133 C1131 1.415 . S
C1134 H1124 0.930 . S
C1134 C1132 1.419 . S
C1134 C1135 1.362 . S
C1135 H1125 0.930 . S
C1135 C1128 1.409 . S
C1135 C1134 1.362 . S
H1136 C1142 0.930 . S
H1137 C1145 0.930 . S
H1138 C1146 0.930 . S
H1139 C1147 0.930 . S
H1140 C1150 0.930 . S
H1141 C1151 0.930 . S
C1142 H1136 0.930 . S
C1142 C1143 1.355 . S
C1142 C1144 1.415 . S
C1143 C1142 1.355 . S
C1143 C1145 1.419 . S
C1144 C1142 1.415 . S
C1144 C1149 1.425 . S
C1144 C1151 1.409 . S
C1145 H1137 0.930 . S
C1145 C1143 1.419 . S
C1145 C1146 1.362 . S
C1146 H1138 0.930 . S
C1146 C1145 1.362 . S
C1146 C1149 1.409 . S
C1147 H1139 0.930 . S
C1147 C1148 1.355 . S
C1147 C1149 1.415 . S
C1148 C1147 1.355 . S
C1148 C1150 1.419 . S
C1149 C1144 1.425 . S
C1149 C1146 1.409 . S
C1149 C1147 1.415 . S
C1150 H1140 0.930 . S
C1150 C1148 1.419 . S
C1150 C1151 1.362 . S
C1151 H1141 0.930 . S
C1151 C1144 1.409 . S
C1151 C1150 1.362 . S
H1152 C1158 0.930 . S
H1153 C1161 0.930 . S
H1154 C1162 0.930 . S
H1155 C1163 0.930 . S
H1156 C1166 0.930 . S
H1157 C1167 0.930 . S
C1158 H1152 0.930 . S
C1158 C1159 1.355 . S
C1158 C1160 1.415 . S
C1159 C1158 1.355 . S
C1159 C1161 1.419 . S
C1160 C1158 1.415 . S
C1160 C1165 1.425 1_455 S
C1160 C1167 1.409 1_455 S
C1161 H1153 0.930 . S
C1161 C1159 1.419 . S
C1161 C1162 1.362 . S
C1162 H1154 0.930 . S
C1162 C1161 1.362 . S
C1162 C1165 1.409 1_455 S
C1163 H1155 0.930 . S
C1163 C1164 1.355 . S
C1163 C1165 1.415 . S
C1164 C1163 1.355 . S
C1164 C1166 1.419 . S
C1165 C1160 1.425 1_655 S
C1165 C1162 1.409 1_655 S
C1165 C1163 1.415 . S
C1166 H1156 0.930 . S
C1166 C1164 1.419 . S
C1166 C1167 1.362 . S
C1167 H1157 0.930 . S
C1167 C1160 1.409 1_655 S
C1167 C1166 1.362 . S
H1168 C1174 0.930 . S
H1169 C1177 0.930 . S
H1170 C1178 0.930 . S
H1171 C1179 0.930 . S
H1172 C1182 0.930 . S
H1173 C1183 0.930 . S
C1174 H1168 0.930 . S
C1174 C1175 1.355 . S
C1174 C1176 1.415 . S
C1175 C1174 1.355 . S
C1175 C1177 1.419 1_655 S
C1176 C1174 1.415 . S
C1176 C1181 1.425 1_655 S
C1176 C1183 1.409 . S
C1177 H1169 0.930 . S
C1177 C1175 1.419 1_455 S
C1177 C1178 1.362 . S
C1178 H1170 0.930 . S
C1178 C1177 1.362 . S
C1178 C1181 1.409 . S
C1179 H1171 0.930 . S
C1179 C1180 1.355 . S
C1179 C1181 1.415 . S
C1180 C1179 1.355 . S
C1180 C1182 1.419 1_455 S
C1181 C1176 1.425 1_455 S
C1181 C1178 1.409 . S
C1181 C1179 1.415 . S
C1182 H1172 0.930 . S
C1182 C1180 1.419 1_655 S
C1182 C1183 1.362 . S
C1183 H1173 0.930 . S
C1183 C1176 1.409 . S
C1183 C1182 1.362 . S
H1184 C1190 0.930 . S
H1185 C1193 0.930 . S
H1186 C1194 0.930 . S
H1187 C1195 0.930 . S
H1188 C1198 0.930 . S
H1189 C1199 0.930 . S
C1190 H1184 0.930 . S
C1190 C1191 1.355 . S
C1190 C1192 1.415 . S
C1191 C1190 1.355 . S
C1191 C1193 1.419 . S
C1192 C1190 1.415 . S
C1192 C1197 1.425 . S
C1192 C1199 1.409 . S
C1193 H1185 0.930 . S
C1193 C1191 1.419 . S
C1193 C1194 1.362 . S
C1194 H1186 0.930 . S
C1194 C1193 1.362 . S
C1194 C1197 1.409 . S
C1195 H1187 0.930 . S
C1195 C1196 1.355 . S
C1195 C1197 1.415 . S
C1196 C1195 1.355 . S
C1196 C1198 1.419 . S
C1197 C1192 1.425 . S
C1197 C1194 1.409 . S
C1197 C1195 1.415 . S
C1198 H1188 0.930 . S
C1198 C1196 1.419 . S
C1198 C1199 1.362 . S
C1199 H1189 0.930 . S
C1199 C1192 1.409 . S
C1199 C1198 1.362 . S
H1200 C1206 0.930 . S
H1201 C1209 0.930 . S
H1202 C1210 0.930 . S
H1203 C1211 0.930 . S
H1204 C1214 0.930 . S
H1205 C1215 0.930 . S
C1206 H1200 0.930 . S
C1206 C1207 1.355 1_455 S
C1206 C1208 1.415 . S
C1207 C1206 1.355 1_655 S
C1207 C1209 1.419 . S
C1208 C1206 1.415 . S
C1208 C1213 1.425 1_455 S
C1208 C1215 1.409 . S
C1209 H1201 0.930 . S
C1209 C1207 1.419 . S
C1209 C1210 1.362 . S
C1210 H1202 0.930 . S
C1210 C1209 1.362 . S
C1210 C1213 1.409 . S
C1211 H1203 0.930 . S
C1211 C1212 1.355 1_655 S
C1211 C1213 1.415 . S
C1212 C1211 1.355 1_455 S
C1212 C1214 1.419 . S
C1213 C1208 1.425 1_655 S
C1213 C1210 1.409 . S
C1213 C1211 1.415 . S
C1214 H1204 0.930 . S
C1214 C1212 1.419 . S
C1214 C1215 1.362 . S
C1215 H1205 0.930 . S
C1215 C1208 1.409 . S
C1215 C1214 1.362 . S
H1216 C1222 0.930 . S
H1217 C1225 0.930 . S
H1218 C1226 0.930 1_455 S
H1219 C1227 0.930 . S
H1220 C1230 0.930 . S
H1221 C1231 0.930 1_655 S
C1222 H1216 0.930 . S
C1222 C1223 1.355 . S
C1222 C1224 1.415 . S
C1223 C1222 1.355 . S
C1223 C1225 1.419 . S
C1224 C1222 1.415 . S
C1224 C1229 1.425 1_655 S
C1224 C1231 1.409 1_655 S
C1225 H1217 0.930 . S
C1225 C1223 1.419 . S
C1225 C1226 1.362 . S
C1226 H1218 0.930 1_655 S
C1226 C1225 1.362 . S
C1226 C1229 1.409 1_655 S
C1227 H1219 0.930 . S
C1227 C1228 1.355 . S
C1227 C1229 1.415 . S
C1228 C1227 1.355 . S
C1228 C1230 1.419 . S
C1229 C1224 1.425 1_455 S
C1229 C1226 1.409 1_455 S
C1229 C1227 1.415 . S
C1230 H1220 0.930 . S
C1230 C1228 1.419 . S
C1230 C1231 1.362 . S
C1231 H1221 0.930 1_455 S
C1231 C1224 1.409 1_455 S
C1231 C1230 1.362 . S
H1232 C1238 0.930 . S
H1233 C1241 0.930 . S
H1234 C1242 0.930 . S
H1235 C1243 0.930 . S
H1236 C1246 0.930 . S
H1237 C1247 0.930 . S
C1238 H1232 0.930 . S
C1238 C1239 1.355 . S
C1238 C1240 1.415 . S
C1239 C1238 1.355 . S
C1239 C1241 1.419 . S
C1240 C1238 1.415 . S
C1240 C1245 1.425 . S
C1240 C1247 1.409 . S
C1241 H1233 0.930 . S
C1241 C1239 1.419 . S
C1241 C1242 1.362 . S
C1242 H1234 0.930 . S
C1242 C1241 1.362 . S
C1242 C1245 1.409 . S
C1243 H1235 0.930 . S
C1243 C1244 1.355 . S
C1243 C1245 1.415 . S
C1244 C1243 1.355 . S
C1244 C1246 1.419 . S
C1245 C1240 1.425 . S
C1245 C1242 1.409 . S
C1245 C1243 1.415 . S
C1246 H1236 0.930 . S
C1246 C1244 1.419 . S
C1246 C1247 1.362 . S
C1247 H1237 0.930 . S
C1247 C1240 1.409 . S
C1247 C1246 1.362 . S
H1248 C1254 0.930 . S
H1249 C1257 0.930 . S
H1250 C1258 0.930 . S
H1251 C1259 0.930 . S
H1252 C1262 0.930 . S
H1253 C1263 0.930 . S
C1254 H1248 0.930 . S
C1254 C1255 1.355 . S
C1254 C1256 1.415 . S
C1255 C1254 1.355 . S
C1255 C1257 1.419 . S
C1256 C1254 1.415 . S
C1256 C1261 1.425 . S
C1256 C1263 1.409 . S
C1257 H1249 0.930 . S
C1257 C1255 1.419 . S
C1257 C1258 1.362 . S
C1258 H1250 0.930 . S
C1258 C1257 1.362 . S
C1258 C1261 1.409 . S
C1259 H1251 0.930 . S
C1259 C1260 1.355 . S
C1259 C1261 1.415 . S
C1260 C1259 1.355 . S
C1260 C1262 1.419 . S
C1261 C1256 1.425 . S
C1261 C1258 1.409 . S
C1261 C1259 1.415 . S
C1262 H1252 0.930 . S
C1262 C1260 1.419 . S
C1262 C1263 1.362 . S
C1263 H1253 0.930 . S
C1263 C1256 1.409 . S
C1263 C1262 1.362 . S
H1264 C1270 0.930 . S
H1265 C1273 0.930 . S
H1266 C1274 0.930 . S
H1267 C1275 0.930 . S
H1268 C1278 0.930 . S
H1269 C1279 0.930 . S
C1270 H1264 0.930 . S
C1270 C1271 1.355 . S
C1270 C1272 1.415 . S
C1271 C1270 1.355 . S
C1271 C1273 1.419 . S
C1272 C1270 1.415 . S
C1272 C1277 1.425 . S
C1272 C1279 1.409 . S
C1273 H1265 0.930 . S
C1273 C1271 1.419 . S
C1273 C1274 1.362 . S
C1274 H1266 0.930 . S
C1274 C1273 1.362 . S
C1274 C1277 1.409 . S
C1275 H1267 0.930 . S
C1275 C1276 1.355 . S
C1275 C1277 1.415 . S
C1276 C1275 1.355 . S
C1276 C1278 1.419 . S
C1277 C1272 1.425 . S
C1277 C1274 1.409 . S
C1277 C1275 1.415 . S
C1278 H1268 0.930 . S
C1278 C1276 1.419 . S
C1278 C1279 1.362 . S
C1279 H1269 0.930 . S
C1279 C1272 1.409 . S
C1279 C1278 1.362 . S
H1280 C1286 0.930 . S
H1281 C1289 0.930 . S
H1282 C1290 0.930 . S
H1283 C1291 0.930 . S
H1284 C1294 0.930 . S
H1285 C1295 0.930 . S
C1286 H1280 0.930 . S
C1286 C1287 1.355 . S
C1286 C1288 1.423 . S
C1287 C1286 1.355 . S
C1287 C1289 1.419 . S
C1288 C1286 1.423 . S
C1288 C1293 1.425 1_455 S
C1288 C1295 1.401 1_455 S
C1289 H1281 0.930 . S
C1289 C1287 1.419 . S
C1289 C1290 1.362 . S
C1290 H1282 0.930 . S
C1290 C1289 1.362 . S
C1290 C1293 1.401 1_455 S
C1291 H1283 0.930 . S
C1291 C1292 1.355 . S
C1291 C1293 1.423 . S
C1292 C1291 1.355 . S
C1292 C1294 1.419 . S
C1293 C1288 1.425 1_655 S
C1293 C1290 1.401 1_655 S
C1293 C1291 1.423 . S
C1294 H1284 0.930 . S
C1294 C1292 1.419 . S
C1294 C1295 1.362 . S
C1295 H1285 0.930 . S
C1295 C1288 1.401 1_655 S
C1295 C1294 1.362 . S
H1296 C1302 0.930 . S
H1297 C1305 0.930 . S
H1298 C1306 0.930 . S
H1299 C1307 0.930 . S
H1300 C1310 0.930 . S
H1301 C1311 0.930 . S
C1302 H1296 0.930 . S
C1302 C1303 1.355 . S
C1302 C1304 1.415 . S
C1303 C1302 1.355 . S
C1303 C1305 1.419 . S
C1304 C1302 1.415 . S
C1304 C1309 1.425 1_655 S
C1304 C1311 1.409 . S
C1305 H1297 0.930 . S
C1305 C1303 1.419 . S
C1305 C1306 1.362 1_655 S
C1306 H1298 0.930 . S
C1306 C1305 1.362 1_455 S
C1306 C1309 1.409 . S
C1307 H1299 0.930 . S
C1307 C1308 1.355 . S
C1307 C1309 1.415 . S
C1308 C1307 1.355 . S
C1308 C1310 1.419 . S
C1309 C1304 1.425 1_455 S
C1309 C1306 1.409 . S
C1309 C1307 1.415 . S
C1310 H1300 0.930 . S
C1310 C1308 1.419 . S
C1310 C1311 1.362 1_455 S
C1311 H1301 0.930 . S
C1311 C1304 1.409 . S
C1311 C1310 1.362 1_655 S
H1312 C1318 0.930 . S
H1313 C1321 0.930 . S
H1314 C1322 0.930 . S
H1315 C1323 0.930 . S
H1316 C1326 0.930 . S
H1317 C1327 0.930 . S
C1318 H1312 0.930 . S
C1318 C1319 1.355 . S
C1318 C1320 1.415 . S
C1319 C1318 1.355 . S
C1319 C1321 1.419 . S
C1320 C1318 1.415 . S
C1320 C1325 1.425 . S
C1320 C1327 1.409 . S
C1321 H1313 0.930 . S
C1321 C1319 1.419 . S
C1321 C1322 1.362 . S
C1322 H1314 0.930 . S
C1322 C1321 1.362 . S
C1322 C1325 1.409 . S
C1323 H1315 0.930 . S
C1323 C1324 1.355 . S
C1323 C1325 1.415 . S
C1324 C1323 1.355 . S
C1324 C1326 1.419 . S
C1325 C1320 1.425 . S
C1325 C1322 1.409 . S
C1325 C1323 1.415 . S
C1326 H1316 0.930 . S
C1326 C1324 1.419 . S
C1326 C1327 1.362 . S
C1327 H1317 0.930 . S
C1327 C1320 1.409 . S
C1327 C1326 1.362 . S
H1328 C1334 0.930 . S
H1329 C1337 0.930 . S
H1330 C1338 0.930 . S
H1331 C1339 0.930 . S
H1332 C1342 0.930 . S
H1333 C1343 0.930 . S
C1334 H1328 0.930 . S
C1334 C1335 1.355 . S
C1334 C1336 1.415 . S
C1335 C1334 1.355 . S
C1335 C1337 1.419 . S
C1336 C1334 1.415 . S
C1336 C1341 1.425 . S
C1336 C1343 1.409 . S
C1337 H1329 0.930 . S
C1337 C1335 1.419 . S
C1337 C1338 1.362 . S
C1338 H1330 0.930 . S
C1338 C1337 1.362 . S
C1338 C1341 1.409 . S
C1339 H1331 0.930 . S
C1339 C1340 1.355 . S
C1339 C1341 1.415 . S
C1340 C1339 1.355 . S
C1340 C1342 1.419 . S
C1341 C1336 1.425 . S
C1341 C1338 1.409 . S
C1341 C1339 1.415 . S
C1342 H1332 0.930 . S
C1342 C1340 1.419 . S
C1342 C1343 1.362 . S
C1343 H1333 0.930 . S
C1343 C1336 1.409 . S
C1343 C1342 1.362 . S
H1344 C1350 0.930 . S
H1345 C1353 0.930 . S
H1346 C1354 0.930 . S
H1347 C1355 0.930 . S
H1348 C1358 0.930 . S
H1349 C1359 0.930 . S
C1350 H1344 0.930 . S
C1350 C1351 1.355 . S
C1350 C1352 1.415 . S
C1351 C1350 1.355 . S
C1351 C1353 1.419 . S
C1352 C1350 1.415 . S
C1352 C1357 1.425 . S
C1352 C1359 1.409 . S
C1353 H1345 0.930 . S
C1353 C1351 1.419 . S
C1353 C1354 1.362 . S
C1354 H1346 0.930 . S
C1354 C1353 1.362 . S
C1354 C1357 1.409 . S
C1355 H1347 0.930 . S
C1355 C1356 1.355 . S
C1355 C1357 1.415 . S
C1356 C1355 1.355 . S
C1356 C1358 1.419 . S
C1357 C1352 1.425 . S
C1357 C1354 1.409 . S
C1357 C1355 1.415 . S
C1358 H1348 0.930 . S
C1358 C1356 1.419 . S
C1358 C1359 1.362 . S
C1359 H1349 0.930 . S
C1359 C1352 1.409 . S
C1359 C1358 1.362 . S
H1360 C1366 0.930 . S
H1361 C1369 0.930 . S
H1362 C1370 0.930 . S
H1363 C1371 0.930 . S
H1364 C1374 0.930 . S
H1365 C1375 0.930 . S
C1366 H1360 0.930 . S
C1366 C1367 1.355 . S
C1366 C1368 1.415 . S
C1367 C1366 1.355 . S
C1367 C1369 1.419 . S
C1368 C1366 1.415 . S
C1368 C1373 1.425 . S
C1368 C1375 1.409 . S
C1369 H1361 0.930 . S
C1369 C1367 1.419 . S
C1369 C1370 1.362 . S
C1370 H1362 0.930 . S
C1370 C1369 1.362 . S
C1370 C1373 1.409 . S
C1371 H1363 0.930 . S
C1371 C1372 1.355 . S
C1371 C1373 1.415 . S
C1372 C1371 1.355 . S
C1372 C1374 1.419 . S
C1373 C1368 1.425 . S
C1373 C1370 1.409 . S
C1373 C1371 1.415 . S
C1374 H1364 0.930 . S
C1374 C1372 1.419 . S
C1374 C1375 1.362 . S
C1375 H1365 0.930 . S
C1375 C1368 1.409 . S
C1375 C1374 1.362 . S
H1376 C1382 0.930 . S
H1377 C1385 0.930 . S
H1378 C1386 0.930 . S
H1379 C1387 0.930 . S
H1380 C1390 0.930 . S
H1381 C1391 0.930 . S
C1382 H1376 0.930 . S
C1382 C1383 1.355 . S
C1382 C1384 1.415 . S
C1383 C1382 1.355 . S
C1383 C1385 1.419 . S
C1384 C1382 1.415 . S
C1384 C1389 1.425 . S
C1384 C1391 1.409 . S
C1385 H1377 0.930 . S
C1385 C1383 1.419 . S
C1385 C1386 1.362 . S
C1386 H1378 0.930 . S
C1386 C1385 1.362 . S
C1386 C1389 1.409 . S
C1387 H1379 0.930 . S
C1387 C1388 1.355 . S
C1387 C1389 1.415 . S
C1388 C1387 1.355 . S
C1388 C1390 1.419 . S
C1389 C1384 1.425 . S
C1389 C1386 1.409 . S
C1389 C1387 1.415 . S
C1390 H1380 0.930 . S
C1390 C1388 1.419 . S
C1390 C1391 1.362 . S
C1391 H1381 0.930 . S
C1391 C1384 1.409 . S
C1391 C1390 1.362 . S
H1392 C1398 0.930 . S
H1393 C1401 0.930 . S
H1394 C1402 0.930 . S
H1395 C1403 0.930 . S
H1396 C1406 0.930 . S
H1397 C1407 0.930 . S
C1398 H1392 0.930 . S
C1398 C1399 1.355 . S
C1398 C1400 1.415 . S
C1399 C1398 1.355 . S
C1399 C1401 1.419 . S
C1400 C1398 1.415 . S
C1400 C1405 1.425 . S
C1400 C1407 1.409 . S
C1401 H1393 0.930 . S
C1401 C1399 1.419 . S
C1401 C1402 1.362 . S
C1402 H1394 0.930 . S
C1402 C1401 1.362 . S
C1402 C1405 1.409 . S
C1403 H1395 0.930 . S
C1403 C1404 1.355 . S
C1403 C1405 1.415 . S
C1404 C1403 1.355 . S
C1404 C1406 1.419 . S
C1405 C1400 1.425 . S
C1405 C1402 1.409 . S
C1405 C1403 1.415 . S
C1406 H1396 0.930 . S
C1406 C1404 1.419 . S
C1406 C1407 1.362 . S
C1407 H1397 0.930 . S
C1407 C1400 1.409 . S
C1407 C1406 1.362 . S
H1408 C1414 0.930 . S
H1409 C1417 0.930 . S
H1410 C1418 0.930 . S
H1411 C1419 0.930 . S
H1412 C1422 0.930 . S
H1413 C1423 0.930 . S
C1414 H1408 0.930 . S
C1414 C1415 1.355 . S
C1414 C1416 1.415 . S
C1415 C1414 1.355 . S
C1415 C1417 1.419 . S
C1416 C1414 1.415 . S
C1416 C1421 1.425 . S
C1416 C1423 1.409 . S
C1417 H1409 0.930 . S
C1417 C1415 1.419 . S
C1417 C1418 1.362 . S
C1418 H1410 0.930 . S
C1418 C1417 1.362 . S
C1418 C1421 1.409 . S
C1419 H1411 0.930 . S
C1419 C1420 1.355 . S
C1419 C1421 1.415 . S
C1420 C1419 1.355 . S
C1420 C1422 1.419 . S
C1421 C1416 1.425 . S
C1421 C1418 1.409 . S
C1421 C1419 1.415 . S
C1422 H1412 0.930 . S
C1422 C1420 1.419 . S
C1422 C1423 1.362 . S
C1423 H1413 0.930 . S
C1423 C1416 1.409 . S
C1423 C1422 1.362 . S
H1424 C1430 0.930 . S
H1425 C1433 0.930 . S
H1426 C1434 0.930 . S
H1427 C1435 0.930 . S
H1428 C1438 0.930 . S
H1429 C1439 0.930 . S
C1430 H1424 0.930 . S
C1430 C1431 1.355 . S
C1430 C1432 1.415 . S
C1431 C1430 1.355 . S
C1431 C1433 1.419 . S
C1432 C1430 1.415 . S
C1432 C1437 1.425 . S
C1432 C1439 1.409 . S
C1433 H1425 0.930 . S
C1433 C1431 1.419 . S
C1433 C1434 1.362 . S
C1434 H1426 0.930 . S
C1434 C1433 1.362 . S
C1434 C1437 1.409 . S
C1435 H1427 0.930 . S
C1435 C1436 1.355 . S
C1435 C1437 1.415 . S
C1436 C1435 1.355 . S
C1436 C1438 1.419 . S
C1437 C1432 1.425 . S
C1437 C1434 1.409 . S
C1437 C1435 1.415 . S
C1438 H1428 0.930 . S
C1438 C1436 1.419 . S
C1438 C1439 1.362 . S
C1439 H1429 0.930 . S
C1439 C1432 1.409 . S
C1439 C1438 1.362 . S
H1440 C1446 0.930 . S
H1441 C1449 0.930 . S
H1442 C1450 0.930 . S
H1443 C1451 0.930 . S
H1444 C1454 0.930 . S
H1445 C1455 0.930 . S
C1446 H1440 0.930 . S
C1446 C1447 1.355 . S
C1446 C1448 1.415 . S
C1447 C1446 1.355 . S
C1447 C1449 1.419 . S
C1448 C1446 1.415 . S
C1448 C1453 1.425 . S
C1448 C1455 1.409 . S
C1449 H1441 0.930 . S
C1449 C1447 1.419 . S
C1449 C1450 1.362 . S
C1450 H1442 0.930 . S
C1450 C1449 1.362 . S
C1450 C1453 1.409 . S
C1451 H1443 0.930 . S
C1451 C1452 1.355 . S
C1451 C1453 1.415 . S
C1452 C1451 1.355 . S
C1452 C1454 1.419 . S
C1453 C1448 1.425 . S
C1453 C1450 1.409 . S
C1453 C1451 1.415 . S
C1454 H1444 0.930 . S
C1454 C1452 1.419 . S
C1454 C1455 1.362 . S
C1455 H1445 0.930 . S
C1455 C1448 1.409 . S
C1455 C1454 1.362 . S
H1456 C1462 0.930 . S
H1457 C1465 0.930 . S
H1458 C1466 0.930 . S
H1459 C1467 0.930 . S
H1460 C1470 0.930 . S
H1461 C1471 0.930 . S
C1462 H1456 0.930 . S
C1462 C1463 1.355 . S
C1462 C1464 1.415 . S
C1463 C1462 1.355 . S
C1463 C1465 1.419 . S
C1464 C1462 1.415 . S
C1464 C1469 1.425 . S
C1464 C1471 1.409 . S
C1465 H1457 0.930 . S
C1465 C1463 1.419 . S
C1465 C1466 1.362 . S
C1466 H1458 0.930 . S
C1466 C1465 1.362 . S
C1466 C1469 1.409 . S
C1467 H1459 0.930 . S
C1467 C1468 1.355 . S
C1467 C1469 1.415 . S
C1468 C1467 1.355 . S
C1468 C1470 1.419 . S
C1469 C1464 1.425 . S
C1469 C1466 1.409 . S
C1469 C1467 1.415 . S
C1470 H1460 0.930 . S
C1470 C1468 1.419 . S
C1470 C1471 1.362 . S
C1471 H1461 0.930 . S
C1471 C1464 1.409 . S
C1471 C1470 1.362 . S
H1472 C1478 0.930 . S
H1473 C1481 0.930 . S
H1474 C1482 0.930 . S
H1475 C1483 0.930 . S
H1476 C1486 0.930 . S
H1477 C1487 0.930 . S
C1478 H1472 0.930 . S
C1478 C1479 1.355 . S
C1478 C1480 1.415 . S
C1479 C1478 1.355 . S
C1479 C1481 1.419 . S
C1480 C1478 1.415 . S
C1480 C1485 1.425 . S
C1480 C1487 1.409 . S
C1481 H1473 0.930 . S
C1481 C1479 1.419 . S
C1481 C1482 1.362 . S
C1482 H1474 0.930 . S
C1482 C1481 1.362 . S
C1482 C1485 1.409 . S
C1483 H1475 0.930 . S
C1483 C1484 1.355 . S
C1483 C1485 1.415 . S
C1484 C1483 1.355 . S
C1484 C1486 1.419 . S
C1485 C1480 1.425 . S
C1485 C1482 1.409 . S
C1485 C1483 1.415 . S
C1486 H1476 0.930 . S
C1486 C1484 1.419 . S
C1486 C1487 1.362 . S
C1487 H1477 0.930 . S
C1487 C1480 1.409 . S
C1487 C1486 1.362 . S
H1488 C1494 0.930 . S
H1489 C1497 0.930 . S
H1490 C1498 0.930 . S
H1491 C1499 0.930 . S
H1492 C1502 0.930 . S
H1493 C1503 0.930 . S
C1494 H1488 0.930 . S
C1494 C1495 1.355 . S
C1494 C1496 1.415 . S
C1495 C1494 1.355 . S
C1495 C1497 1.419 . S
C1496 C1494 1.415 . S
C1496 C1501 1.425 . S
C1496 C1503 1.409 . S
C1497 H1489 0.930 . S
C1497 C1495 1.419 . S
C1497 C1498 1.362 . S
C1498 H1490 0.930 . S
C1498 C1497 1.362 . S
C1498 C1501 1.409 . S
C1499 H1491 0.930 . S
C1499 C1500 1.355 . S
C1499 C1501 1.415 . S
C1500 C1499 1.355 . S
C1500 C1502 1.419 . S
C1501 C1496 1.425 . S
C1501 C1498 1.409 . S
C1501 C1499 1.415 . S
C1502 H1492 0.930 . S
C1502 C1500 1.419 . S
C1502 C1503 1.362 . S
C1503 H1493 0.930 . S
C1503 C1496 1.409 . S
C1503 C1502 1.362 . S
H1504 C1510 0.930 . S
H1505 C1513 0.930 . S
H1506 C1514 0.930 . S
H1507 C1515 0.930 . S
H1508 C1518 0.930 . S
H1509 C1519 0.930 . S
C1510 H1504 0.930 . S
C1510 C1511 1.355 . S
C1510 C1512 1.415 . S
C1511 C1510 1.355 . S
C1511 C1513 1.419 . S
C1512 C1510 1.415 . S
C1512 C1517 1.425 . S
C1512 C1519 1.409 . S
C1513 H1505 0.930 . S
C1513 C1511 1.419 . S
C1513 C1514 1.362 . S
C1514 H1506 0.930 . S
C1514 C1513 1.362 . S
C1514 C1517 1.409 . S
C1515 H1507 0.930 . S
C1515 C1516 1.355 . S
C1515 C1517 1.415 . S
C1516 C1515 1.355 . S
C1516 C1518 1.419 . S
C1517 C1512 1.425 . S
C1517 C1514 1.409 . S
C1517 C1515 1.415 . S
C1518 H1508 0.930 . S
C1518 C1516 1.419 . S
C1518 C1519 1.362 . S
C1519 H1509 0.930 . S
C1519 C1512 1.409 . S
C1519 C1518 1.362 . S
H1520 C1526 0.930 . S
H1521 C1529 0.930 . S
H1522 C1530 0.930 . S
H1523 C1531 0.930 . S
H1524 C1534 0.930 . S
H1525 C1535 0.930 . S
C1526 H1520 0.930 . S
C1526 C1527 1.355 . S
C1526 C1528 1.415 . S
C1527 C1526 1.355 . S
C1527 C1529 1.419 . S
C1528 C1526 1.415 . S
C1528 C1533 1.425 . S
C1528 C1535 1.409 . S
C1529 H1521 0.930 . S
C1529 C1527 1.419 . S
C1529 C1530 1.362 . S
C1530 H1522 0.930 . S
C1530 C1529 1.362 . S
C1530 C1533 1.409 . S
C1531 H1523 0.930 . S
C1531 C1532 1.355 . S
C1531 C1533 1.415 . S
C1532 C1531 1.355 . S
C1532 C1534 1.419 . S
C1533 C1528 1.425 . S
C1533 C1530 1.409 . S
C1533 C1531 1.415 . S
C1534 H1524 0.930 . S
C1534 C1532 1.419 . S
C1534 C1535 1.362 . S
C1535 H1525 0.930 . S
C1535 C1528 1.409 . S
C1535 C1534 1.362 . S
H1536 C1542 0.930 . S
H1537 C1545 0.930 . S
H1538 C1546 0.930 . S
H1539 C1547 0.930 . S
H1540 C1550 0.930 . S
H1541 C1551 0.930 . S
C1542 H1536 0.930 . S
C1542 C1543 1.355 . S
C1542 C1544 1.415 . S
C1543 C1542 1.355 . S
C1543 C1545 1.419 . S
C1544 C1542 1.415 . S
C1544 C1549 1.425 . S
C1544 C1551 1.409 . S
C1545 H1537 0.930 . S
C1545 C1543 1.419 . S
C1545 C1546 1.362 . S
C1546 H1538 0.930 . S
C1546 C1545 1.362 . S
C1546 C1549 1.409 . S
C1547 H1539 0.930 . S
C1547 C1548 1.355 . S
C1547 C1549 1.415 . S
C1548 C1547 1.355 . S
C1548 C1550 1.419 . S
C1549 C1544 1.425 . S
C1549 C1546 1.409 . S
C1549 C1547 1.415 . S
C1550 H1540 0.930 . S
C1550 C1548 1.419 . S
C1550 C1551 1.362 . S
C1551 H1541 0.930 . S
C1551 C1544 1.409 . S
C1551 C1550 1.362 . S
H1552 C1558 0.930 . S
H1553 C1561 0.930 . S
H1554 C1562 0.930 . S
H1555 C1563 0.930 . S
H1556 C1566 0.930 . S
H1557 C1567 0.930 . S
C1558 H1552 0.930 . S
C1558 C1559 1.355 . S
C1558 C1560 1.415 . S
C1559 C1558 1.355 . S
C1559 C1561 1.419 . S
C1560 C1558 1.415 . S
C1560 C1565 1.425 . S
C1560 C1567 1.409 . S
C1561 H1553 0.930 . S
C1561 C1559 1.419 . S
C1561 C1562 1.362 . S
C1562 H1554 0.930 . S
C1562 C1561 1.362 . S
C1562 C1565 1.409 . S
C1563 H1555 0.930 . S
C1563 C1564 1.355 . S
C1563 C1565 1.415 . S
C1564 C1563 1.355 . S
C1564 C1566 1.419 . S
C1565 C1560 1.425 . S
C1565 C1562 1.409 . S
C1565 C1563 1.415 . S
C1566 H1556 0.930 . S
C1566 C1564 1.419 . S
C1566 C1567 1.362 . S
C1567 H1557 0.930 . S
C1567 C1560 1.409 . S
C1567 C1566 1.362 . S
H1568 C1574 0.930 . S
H1569 C1577 0.930 . S
H1570 C1578 0.930 . S
H1571 C1579 0.930 . S
H1572 C1582 0.930 . S
H1573 C1583 0.930 . S
C1574 H1568 0.930 . S
C1574 C1575 1.355 . S
C1574 C1576 1.415 . S
C1575 C1574 1.355 . S
C1575 C1577 1.419 . S
C1576 C1574 1.415 . S
C1576 C1581 1.425 . S
C1576 C1583 1.409 . S
C1577 H1569 0.930 . S
C1577 C1575 1.419 . S
C1577 C1578 1.362 . S
C1578 H1570 0.930 . S
C1578 C1577 1.362 . S
C1578 C1581 1.409 . S
C1579 H1571 0.930 . S
C1579 C1580 1.355 . S
C1579 C1581 1.415 . S
C1580 C1579 1.355 . S
C1580 C1582 1.419 . S
C1581 C1576 1.425 . S
C1581 C1578 1.409 . S
C1581 C1579 1.415 . S
C1582 H1572 0.930 . S
C1582 C1580 1.419 . S
C1582 C1583 1.362 . S
C1583 H1573 0.930 . S
C1583 C1576 1.409 . S
C1583 C1582 1.362 . S
H1584 C1590 0.930 . S
H1585 C1593 0.930 . S
H1586 C1594 0.930 . S
H1587 C1595 0.930 . S
H1588 C1598 0.930 . S
H1589 C1599 0.930 . S
C1590 H1584 0.930 . S
C1590 C1591 1.355 . S
C1590 C1592 1.415 . S
C1591 C1590 1.355 . S
C1591 C1593 1.419 . S
C1592 C1590 1.415 . S
C1592 C1597 1.425 . S
C1592 C1599 1.409 . S
C1593 H1585 0.930 . S
C1593 C1591 1.419 . S
C1593 C1594 1.362 . S
C1594 H1586 0.930 . S
C1594 C1593 1.362 . S
C1594 C1597 1.409 . S
C1595 H1587 0.930 . S
C1595 C1596 1.355 . S
C1595 C1597 1.415 . S
C1596 C1595 1.355 . S
C1596 C1598 1.419 . S
C1597 C1592 1.425 . S
C1597 C1594 1.409 . S
C1597 C1595 1.415 . S
C1598 H1588 0.930 . S
C1598 C1596 1.419 . S
C1598 C1599 1.362 . S
C1599 H1589 0.930 . S
C1599 C1592 1.409 . S
C1599 C1598 1.362 . S
H1600 C1606 0.930 . S
H1601 C1609 0.930 . S
H1602 C1610 0.930 . S
H1603 C1611 0.930 . S
H1604 C1614 0.930 . S
H1605 C1615 0.930 . S
C1606 H1600 0.930 . S
C1606 C1607 1.355 . S
C1606 C1608 1.415 . S
C1607 C1606 1.355 . S
C1607 C1609 1.419 . S
C1608 C1606 1.415 . S
C1608 C1613 1.425 . S
C1608 C1615 1.409 . S
C1609 H1601 0.930 . S
C1609 C1607 1.419 . S
C1609 C1610 1.362 . S
C1610 H1602 0.930 . S
C1610 C1609 1.362 . S
C1610 C1613 1.409 . S
C1611 H1603 0.930 . S
C1611 C1612 1.355 . S
C1611 C1613 1.415 . S
C1612 C1611 1.355 . S
C1612 C1614 1.419 . S
C1613 C1608 1.425 . S
C1613 C1610 1.409 . S
C1613 C1611 1.415 . S
C1614 H1604 0.930 . S
C1614 C1612 1.419 . S
C1614 C1615 1.362 . S
C1615 H1605 0.930 . S
C1615 C1608 1.409 . S
C1615 C1614 1.362 . S
H1616 C1622 0.930 . S
H1617 C1625 0.930 . S
H1618 C1626 0.930 . S
H1619 C1627 0.930 . S
H1620 C1630 0.930 . S
H1621 C1631 0.930 . S
C1622 H1616 0.930 . S
C1622 C1623 1.355 . S
C1622 C1624 1.415 . S
C1623 C1622 1.355 . S
C1623 C1625 1.419 . S
C1624 C1622 1.415 . S
C1624 C1629 1.425 . S
C1624 C1631 1.409 . S
C1625 H1617 0.930 . S
C1625 C1623 1.419 . S
C1625 C1626 1.362 . S
C1626 H1618 0.930 . S
C1626 C1625 1.362 . S
C1626 C1629 1.409 . S
C1627 H1619 0.930 . S
C1627 C1628 1.355 . S
C1627 C1629 1.415 . S
C1628 C1627 1.355 . S
C1628 C1630 1.419 . S
C1629 C1624 1.425 . S
C1629 C1626 1.409 . S
C1629 C1627 1.415 . S
C1630 H1620 0.930 . S
C1630 C1628 1.419 . S
C1630 C1631 1.362 . S
C1631 H1621 0.930 . S
C1631 C1624 1.409 . S
C1631 C1630 1.362 . S
H1632 C1638 0.930 . S
H1633 C1641 0.930 . S
H1634 C1642 0.930 . S
H1635 C1643 0.930 . S
H1636 C1646 0.930 . S
H1637 C1647 0.930 . S
C1638 H1632 0.930 . S
C1638 C1639 1.355 . S
C1638 C1640 1.415 . S
C1639 C1638 1.355 . S
C1639 C1641 1.419 . S
C1640 C1638 1.415 . S
C1640 C1645 1.425 . S
C1640 C1647 1.409 . S
C1641 H1633 0.930 . S
C1641 C1639 1.419 . S
C1641 C1642 1.362 . S
C1642 H1634 0.930 . S
C1642 C1641 1.362 . S
C1642 C1645 1.409 . S
C1643 H1635 0.930 . S
C1643 C1644 1.355 . S
C1643 C1645 1.415 . S
C1644 C1643 1.355 . S
C1644 C1646 1.419 . S
C1645 C1640 1.425 . S
C1645 C1642 1.409 . S
C1645 C1643 1.415 . S
C1646 H1636 0.930 . S
C1646 C1644 1.419 . S
C1646 C1647 1.362 . S
C1647 H1637 0.930 . S
C1647 C1640 1.409 . S
C1647 C1646 1.362 . S
H1648 C1654 0.930 . S
H1649 C1657 0.930 . S
H1650 C1658 0.930 . S
H1651 C1659 0.930 . S
H1652 C1662 0.930 . S
H1653 C1663 0.930 . S
C1654 H1648 0.930 . S
C1654 C1655 1.355 . S
C1654 C1656 1.415 . S
C1655 C1654 1.355 . S
C1655 C1657 1.419 . S
C1656 C1654 1.415 . S
C1656 C1661 1.425 . S
C1656 C1663 1.409 . S
C1657 H1649 0.930 . S
C1657 C1655 1.419 . S
C1657 C1658 1.362 . S
C1658 H1650 0.930 . S
C1658 C1657 1.362 . S
C1658 C1661 1.409 . S
C1659 H1651 0.930 . S
C1659 C1660 1.355 . S
C1659 C1661 1.415 . S
C1660 C1659 1.355 . S
C1660 C1662 1.419 . S
C1661 C1656 1.425 . S
C1661 C1658 1.409 . S
C1661 C1659 1.415 . S
C1662 H1652 0.930 . S
C1662 C1660 1.419 . S
C1662 C1663 1.362 . S
C1663 H1653 0.930 . S
C1663 C1656 1.409 . S
C1663 C1662 1.362 . S
H1664 C1670 0.930 . S
H1665 C1673 0.930 . S
H1666 C1674 0.930 . S
H1667 C1675 0.930 . S
H1668 C1678 0.930 . S
H1669 C1679 0.930 . S
C1670 H1664 0.930 . S
C1670 C1671 1.355 . S
C1670 C1672 1.415 . S
C1671 C1670 1.355 . S
C1671 C1673 1.419 . S
C1672 C1670 1.415 . S
C1672 C1677 1.425 . S
C1672 C1679 1.409 . S
C1673 H1665 0.930 . S
C1673 C1671 1.419 . S
C1673 C1674 1.362 . S
C1674 H1666 0.930 . S
C1674 C1673 1.362 . S
C1674 C1677 1.409 . S
C1675 H1667 0.930 . S
C1675 C1676 1.355 . S
C1675 C1677 1.415 . S
C1676 C1675 1.355 . S
C1676 C1678 1.419 . S
C1677 C1672 1.425 . S
C1677 C1674 1.409 . S
C1677 C1675 1.415 . S
C1678 H1668 0.930 . S
C1678 C1676 1.419 . S
C1678 C1679 1.362 . S
C1679 H1669 0.930 . S
C1679 C1672 1.409 . S
C1679 C1678 1.362 . S
H1680 C1686 0.930 . S
H1681 C1689 0.930 . S
H1682 C1690 0.930 . S
H1683 C1691 0.930 . S
H1684 C1694 0.930 . S
H1685 C1695 0.930 . S
C1686 H1680 0.930 . S
C1686 C1687 1.355 . S
C1686 C1688 1.415 . S
C1687 C1686 1.355 . S
C1687 C1689 1.419 . S
C1688 C1686 1.415 . S
C1688 C1693 1.425 . S
C1688 C1695 1.409 . S
C1689 H1681 0.930 . S
C1689 C1687 1.419 . S
C1689 C1690 1.362 . S
C1690 H1682 0.930 . S
C1690 C1689 1.362 . S
C1690 C1693 1.409 . S
C1691 H1683 0.930 . S
C1691 C1692 1.355 . S
C1691 C1693 1.415 . S
C1692 C1691 1.355 . S
C1692 C1694 1.419 . S
C1693 C1688 1.425 . S
C1693 C1690 1.409 . S
C1693 C1691 1.415 . S
C1694 H1684 0.930 . S
C1694 C1692 1.419 . S
C1694 C1695 1.362 . S
C1695 H1685 0.930 . S
C1695 C1688 1.409 . S
C1695 C1694 1.362 . S
H1696 C1702 0.930 . S
H1697 C1705 0.930 . S
H1698 C1706 0.930 . S
H1699 C1707 0.930 . S
H1700 C1710 0.930 . S
H1701 C1711 0.930 . S
C1702 H1696 0.930 . S
C1702 C1703 1.355 . S
C1702 C1704 1.415 . S
C1703 C1702 1.355 . S
C1703 C1705 1.419 . S
C1704 C1702 1.415 . S
C1704 C1709 1.425 . S
C1704 C1711 1.409 . S
C1705 H1697 0.930 . S
C1705 C1703 1.419 . S
C1705 C1706 1.362 . S
C1706 H1698 0.930 . S
C1706 C1705 1.362 . S
C1706 C1709 1.409 . S
C1707 H1699 0.930 . S
C1707 C1708 1.355 . S
C1707 C1709 1.415 . S
C1708 C1707 1.355 . S
C1708 C1710 1.419 . S
C1709 C1704 1.425 . S
C1709 C1706 1.409 . S
C1709 C1707 1.415 . S
C1710 H1700 0.930 . S
C1710 C1708 1.419 . S
C1710 C1711 1.362 . S
C1711 H1701 0.930 . S
C1711 C1704 1.409 . S
C1711 C1710 1.362 . S
H1712 C1718 0.930 . S
H1713 C1721 0.930 . S
H1714 C1722 0.930 . S
H1715 C1723 0.930 . S
H1716 C1726 0.930 . S
H1717 C1727 0.930 . S
C1718 H1712 0.930 . S
C1718 C1719 1.355 . S
C1718 C1720 1.415 . S
C1719 C1718 1.355 . S
C1719 C1721 1.419 . S
C1720 C1718 1.415 . S
C1720 C1725 1.425 . S
C1720 C1727 1.409 . S
C1721 H1713 0.930 . S
C1721 C1719 1.419 . S
C1721 C1722 1.362 . S
C1722 H1714 0.930 . S
C1722 C1721 1.362 . S
C1722 C1725 1.409 . S
C1723 H1715 0.930 . S
C1723 C1724 1.355 . S
C1723 C1725 1.415 . S
C1724 C1723 1.355 . S
C1724 C1726 1.419 . S
C1725 C1720 1.425 . S
C1725 C1722 1.409 . S
C1725 C1723 1.415 . S
C1726 H1716 0.930 . S
C1726 C1724 1.419 . S
C1726 C1727 1.362 . S
C1727 H1717 0.930 . S
C1727 C1720 1.409 . S
C1727 C1726 1.362 . S
H1728 C1734 0.930 . S
H1729 C1737 0.930 . S
H1730 C1738 0.930 . S
H1731 C1739 0.930 . S
H1732 C1742 0.930 . S
H1733 C1743 0.930 . S
C1734 H1728 0.930 . S
C1734 C1735 1.355 . S
C1734 C1736 1.415 . S
C1735 C1734 1.355 . S
C1735 C1737 1.419 . S
C1736 C1734 1.415 . S
C1736 C1741 1.425 . S
C1736 C1743 1.409 . S
C1737 H1729 0.930 . S
C1737 C1735 1.419 . S
C1737 C1738 1.362 . S
C1738 H1730 0.930 . S
C1738 C1737 1.362 . S
C1738 C1741 1.409 . S
C1739 H1731 0.930 . S
C1739 C1740 1.355 . S
C1739 C1741 1.415 . S
C1740 C1739 1.355 . S
C1740 C1742 1.419 . S
C1741 C1736 1.425 . S
C1741 C1738 1.409 . S
C1741 C1739 1.415 . S
C1742 H1732 0.930 . S
C1742 C1740 1.419 . S
C1742 C1743 1.362 . S
C1743 H1733 0.930 . S
C1743 C1736 1.409 . S
C1743 C1742 1.362 . S
H1744 C1750 0.930 . S
H1745 C1753 0.930 . S
H1746 C1754 0.930 . S
H1747 C1755 0.930 . S
H1748 C1758 0.930 . S
H1749 C1759 0.930 . S
C1750 H1744 0.930 . S
C1750 C1751 1.355 . S
C1750 C1752 1.415 . S
C1751 C1750 1.355 . S
C1751 C1753 1.419 . S
C1752 C1750 1.415 . S
C1752 C1757 1.425 . S
C1752 C1759 1.409 . S
C1753 H1745 0.930 . S
C1753 C1751 1.419 . S
C1753 C1754 1.362 . S
C1754 H1746 0.930 . S
C1754 C1753 1.362 . S
C1754 C1757 1.409 . S
C1755 H1747 0.930 . S
C1755 C1756 1.355 . S
C1755 C1757 1.415 . S
C1756 C1755 1.355 . S
C1756 C1758 1.419 . S
C1757 C1752 1.425 . S
C1757 C1754 1.409 . S
C1757 C1755 1.415 . S
C1758 H1748 0.930 . S
C1758 C1756 1.419 . S
C1758 C1759 1.362 . S
C1759 H1749 0.930 . S
C1759 C1752 1.409 . S
C1759 C1758 1.362 . S
H1760 C1766 0.930 . S
H1761 C1769 0.930 . S
H1762 C1770 0.930 . S
H1763 C1771 0.930 . S
H1764 C1774 0.930 . S
H1765 C1775 0.930 . S
C1766 H1760 0.930 . S
C1766 C1767 1.355 . S
C1766 C1768 1.415 . S
C1767 C1766 1.355 . S
C1767 C1769 1.419 . S
C1768 C1766 1.415 . S
C1768 C1773 1.425 . S
C1768 C1775 1.409 . S
C1769 H1761 0.930 . S
C1769 C1767 1.419 . S
C1769 C1770 1.362 . S
C1770 H1762 0.930 . S
C1770 C1769 1.362 . S
C1770 C1773 1.409 . S
C1771 H1763 0.930 . S
C1771 C1772 1.355 . S
C1771 C1773 1.415 . S
C1772 C1771 1.355 . S
C1772 C1774 1.419 . S
C1773 C1768 1.425 . S
C1773 C1770 1.409 . S
C1773 C1771 1.415 . S
C1774 H1764 0.930 . S
C1774 C1772 1.419 . S
C1774 C1775 1.362 . S
C1775 H1765 0.930 . S
C1775 C1768 1.409 . S
C1775 C1774 1.362 . S
H1776 C1782 0.930 . S
H1777 C1785 0.930 . S
H1778 C1786 0.930 . S
H1779 C1787 0.930 . S
H1780 C1790 0.930 . S
H1781 C1791 0.930 . S
C1782 H1776 0.930 . S
C1782 C1783 1.355 . S
C1782 C1784 1.415 . S
C1783 C1782 1.355 . S
C1783 C1785 1.419 . S
C1784 C1782 1.415 . S
C1784 C1789 1.425 . S
C1784 C1791 1.409 . S
C1785 H1777 0.930 . S
C1785 C1783 1.419 . S
C1785 C1786 1.362 . S
C1786 H1778 0.930 . S
C1786 C1785 1.362 . S
C1786 C1789 1.409 . S
C1787 H1779 0.930 . S
C1787 C1788 1.355 . S
C1787 C1789 1.415 . S
C1788 C1787 1.355 . S
C1788 C1790 1.419 . S
C1789 C1784 1.425 . S
C1789 C1786 1.409 . S
C1789 C1787 1.415 . S
C1790 H1780 0.930 . S
C1790 C1788 1.419 . S
C1790 C1791 1.362 . S
C1791 H1781 0.930 . S
C1791 C1784 1.409 . S
C1791 C1790 1.362 . S
H1792 C1798 0.930 . S
H1793 C1801 0.930 . S
H1794 C1802 0.930 . S
H1795 C1803 0.930 . S
H1796 C1806 0.930 . S
H1797 C1807 0.930 . S
C1798 H1792 0.930 . S
C1798 C1799 1.355 . S
C1798 C1800 1.415 . S
C1799 C1798 1.355 . S
C1799 C1801 1.419 . S
C1800 C1798 1.415 . S
C1800 C1805 1.425 . S
C1800 C1807 1.409 . S
C1801 H1793 0.930 . S
C1801 C1799 1.419 . S
C1801 C1802 1.362 . S
C1802 H1794 0.930 . S
C1802 C1801 1.362 . S
C1802 C1805 1.409 . S
C1803 H1795 0.930 . S
C1803 C1804 1.355 . S
C1803 C1805 1.415 . S
C1804 C1803 1.355 . S
C1804 C1806 1.419 . S
C1805 C1800 1.425 . S
C1805 C1802 1.409 . S
C1805 C1803 1.415 . S
C1806 H1796 0.930 . S
C1806 C1804 1.419 . S
C1806 C1807 1.362 . S
C1807 H1797 0.930 . S
C1807 C1800 1.409 . S
C1807 C1806 1.362 . S
H1808 C1814 0.930 . S
H1809 C1817 0.930 . S
H1810 C1818 0.930 . S
H1811 C1819 0.930 . S
H1812 C1822 0.930 . S
H1813 C1823 0.930 . S
C1814 H1808 0.930 . S
C1814 C1815 1.355 . S
C1814 C1816 1.415 . S
C1815 C1814 1.355 . S
C1815 C1817 1.419 . S
C1816 C1814 1.415 . S
C1816 C1821 1.425 . S
C1816 C1823 1.409 . S
C1817 H1809 0.930 . S
C1817 C1815 1.419 . S
C1817 C1818 1.362 . S
C1818 H1810 0.930 . S
C1818 C1817 1.362 . S
C1818 C1821 1.409 . S
C1819 H1811 0.930 . S
C1819 C1820 1.355 . S
C1819 C1821 1.415 . S
C1820 C1819 1.355 . S
C1820 C1822 1.419 . S
C1821 C1816 1.425 . S
C1821 C1818 1.409 . S
C1821 C1819 1.415 . S
C1822 H1812 0.930 . S
C1822 C1820 1.419 . S
C1822 C1823 1.362 . S
C1823 H1813 0.930 . S
C1823 C1816 1.409 . S
C1823 C1822 1.362 . S
H1824 C1830 0.930 . S
H1825 C1833 0.930 . S
H1826 C1834 0.930 . S
H1827 C1835 0.930 . S
H1828 C1838 0.930 . S
H1829 C1839 0.930 . S
C1830 H1824 0.930 . S
C1830 C1831 1.355 . S
C1830 C1832 1.415 . S
C1831 C1830 1.355 . S
C1831 C1833 1.419 . S
C1832 C1830 1.415 . S
C1832 C1837 1.425 . S
C1832 C1839 1.409 . S
C1833 H1825 0.930 . S
C1833 C1831 1.419 . S
C1833 C1834 1.362 . S
C1834 H1826 0.930 . S
C1834 C1833 1.362 . S
C1834 C1837 1.409 . S
C1835 H1827 0.930 . S
C1835 C1836 1.355 . S
C1835 C1837 1.415 . S
C1836 C1835 1.355 . S
C1836 C1838 1.419 . S
C1837 C1832 1.425 . S
C1837 C1834 1.409 . S
C1837 C1835 1.415 . S
C1838 H1828 0.930 . S
C1838 C1836 1.419 . S
C1838 C1839 1.362 . S
C1839 H1829 0.930 . S
C1839 C1832 1.409 . S
C1839 C1838 1.362 . S
H1840 C1846 0.930 . S
H1841 C1849 0.930 . S
H1842 C1850 0.930 . S
H1843 C1851 0.930 . S
H1844 C1854 0.930 . S
H1845 C1855 0.930 . S
C1846 H1840 0.930 . S
C1846 C1847 1.355 . S
C1846 C1848 1.415 . S
C1847 C1846 1.355 . S
C1847 C1849 1.419 . S
C1848 C1846 1.415 . S
C1848 C1853 1.425 . S
C1848 C1855 1.409 . S
C1849 H1841 0.930 . S
C1849 C1847 1.419 . S
C1849 C1850 1.362 . S
C1850 H1842 0.930 . S
C1850 C1849 1.362 . S
C1850 C1853 1.409 . S
C1851 H1843 0.930 . S
C1851 C1852 1.355 . S
C1851 C1853 1.415 . S
C1852 C1851 1.355 . S
C1852 C1854 1.419 . S
C1853 C1848 1.425 . S
C1853 C1850 1.409 . S
C1853 C1851 1.415 . S
C1854 H1844 0.930 . S
C1854 C1852 1.419 . S
C1854 C1855 1.362 . S
C1855 H1845 0.930 . S
C1855 C1848 1.409 . S
C1855 C1854 1.362 . S
H1856 C1862 0.930 . S
H1857 C1865 0.930 . S
H1858 C1866 0.930 . S
H1859 C1867 0.930 . S
H1860 C1870 0.930 . S
H1861 C1871 0.930 . S
C1862 H1856 0.930 . S
C1862 C1863 1.355 . S
C1862 C1864 1.415 . S
C1863 C1862 1.355 . S
C1863 C1865 1.419 . S
C1864 C1862 1.415 . S
C1864 C1869 1.425 . S
C1864 C1871 1.409 . S
C1865 H1857 0.930 . S
C1865 C1863 1.419 . S
C1865 C1866 1.362 . S
C1866 H1858 0.930 . S
C1866 C1865 1.362 . S
C1866 C1869 1.409 . S
C1867 H1859 0.930 . S
C1867 C1868 1.355 . S
C1867 C1869 1.415 . S
C1868 C1867 1.355 . S
C1868 C1870 1.419 . S
C1869 C1864 1.425 . S
C1869 C1866 1.409 . S
C1869 C1867 1.415 . S
C1870 H1860 0.930 . S
C1870 C1868 1.419 . S
C1870 C1871 1.362 . S
C1871 H1861 0.930 . S
C1871 C1864 1.409 . S
C1871 C1870 1.362 . S
H1872 C1878 0.930 . S
H1873 C1881 0.930 . S
H1874 C1882 0.930 . S
H1875 C1883 0.930 . S
H1876 C1886 0.930 . S
H1877 C1887 0.930 . S
C1878 H1872 0.930 . S
C1878 C1879 1.355 . S
C1878 C1880 1.415 . S
C1879 C1878 1.355 . S
C1879 C1881 1.419 . S
C1880 C1878 1.415 . S
C1880 C1885 1.425 . S
C1880 C1887 1.409 . S
C1881 H1873 0.930 . S
C1881 C1879 1.419 . S
C1881 C1882 1.362 . S
C1882 H1874 0.930 . S
C1882 C1881 1.362 . S
C1882 C1885 1.409 . S
C1883 H1875 0.930 . S
C1883 C1884 1.355 . S
C1883 C1885 1.415 . S
C1884 C1883 1.355 . S
C1884 C1886 1.419 . S
C1885 C1880 1.425 . S
C1885 C1882 1.409 . S
C1885 C1883 1.415 . S
C1886 H1876 0.930 . S
C1886 C1884 1.419 . S
C1886 C1887 1.362 . S
C1887 H1877 0.930 . S
C1887 C1880 1.409 . S
C1887 C1886 1.362 . S
H1888 C1894 0.930 . S
H1889 C1897 0.930 . S
H1890 C1898 0.930 . S
H1891 C1899 0.930 . S
H1892 C1902 0.930 . S
H1893 C1903 0.930 . S
C1894 H1888 0.930 . S
C1894 C1895 1.355 . S
C1894 C1896 1.415 . S
C1895 C1894 1.355 . S
C1895 C1897 1.419 . S
C1896 C1894 1.415 . S
C1896 C1901 1.425 . S
C1896 C1903 1.409 . S
C1897 H1889 0.930 . S
C1897 C1895 1.419 . S
C1897 C1898 1.362 . S
C1898 H1890 0.930 . S
C1898 C1897 1.362 . S
C1898 C1901 1.409 . S
C1899 H1891 0.930 . S
C1899 C1900 1.355 . S
C1899 C1901 1.415 . S
C1900 C1899 1.355 . S
C1900 C1902 1.419 . S
C1901 C1896 1.425 . S
C1901 C1898 1.409 . S
C1901 C1899 1.415 . S
C1902 H1892 0.930 . S
C1902 C1900 1.419 . S
C1902 C1903 1.362 . S
C1903 H1893 0.930 . S
C1903 C1896 1.409 . S
C1903 C1902 1.362 . S
H1904 C1910 0.930 . S
H1905 C1913 0.930 . S
H1906 C1914 0.930 . S
H1907 C1915 0.930 . S
H1908 C1918 0.930 . S
H1909 C1919 0.930 . S
C1910 H1904 0.930 . S
C1910 C1911 1.355 . S
C1910 C1912 1.415 . S
C1911 C1910 1.355 . S
C1911 C1913 1.419 . S
C1912 C1910 1.415 . S
C1912 C1917 1.425 . S
C1912 C1919 1.409 . S
C1913 H1905 0.930 . S
C1913 C1911 1.419 . S
C1913 C1914 1.362 . S
C1914 H1906 0.930 . S
C1914 C1913 1.362 . S
C1914 C1917 1.409 . S
C1915 H1907 0.930 . S
C1915 C1916 1.355 . S
C1915 C1917 1.415 . S
C1916 C1915 1.355 . S
C1916 C1918 1.419 . S
C1917 C1912 1.425 . S
C1917 C1914 1.409 . S
C1917 C1915 1.415 . S
C1918 H1908 0.930 . S
C1918 C1916 1.419 . S
C1918 C1919 1.362 . S
C1919 H1909 0.930 . S
C1919 C1912 1.409 . S
C1919 C1918 1.362 . S
H1920 C1926 0.930 . S
H1921 C1929 0.930 . S
H1922 C1930 0.930 . S
H1923 C1931 0.930 . S
H1924 C1934 0.930 . S
H1925 C1935 0.930 . S
C1926 H1920 0.930 . S
C1926 C1927 1.355 . S
C1926 C1928 1.415 . S
C1927 C1926 1.355 . S
C1927 C1929 1.419 . S
C1928 C1926 1.415 . S
C1928 C1933 1.425 . S
C1928 C1935 1.409 . S
C1929 H1921 0.930 . S
C1929 C1927 1.419 . S
C1929 C1930 1.362 . S
C1930 H1922 0.930 . S
C1930 C1929 1.362 . S
C1930 C1933 1.409 . S
C1931 H1923 0.930 . S
C1931 C1932 1.355 . S
C1931 C1933 1.415 . S
C1932 C1931 1.355 . S
C1932 C1934 1.419 . S
C1933 C1928 1.425 . S
C1933 C1930 1.409 . S
C1933 C1931 1.415 . S
C1934 H1924 0.930 . S
C1934 C1932 1.419 . S
C1934 C1935 1.362 . S
C1935 H1925 0.930 . S
C1935 C1928 1.409 . S
C1935 C1934 1.362 . S
H1936 C1942 0.930 . S
H1937 C1945 0.930 . S
H1938 C1946 0.930 . S
H1939 C1947 0.930 . S
H1940 C1950 0.930 . S
H1941 C1951 0.930 . S
C1942 H1936 0.930 . S
C1942 C1943 1.355 . S
C1942 C1944 1.415 . S
C1943 C1942 1.355 . S
C1943 C1945 1.419 . S
C1944 C1942 1.415 . S
C1944 C1949 1.425 . S
C1944 C1951 1.409 . S
C1945 H1937 0.930 . S
C1945 C1943 1.419 . S
C1945 C1946 1.362 . S
C1946 H1938 0.930 . S
C1946 C1945 1.362 . S
C1946 C1949 1.409 . S
C1947 H1939 0.930 . S
C1947 C1948 1.355 . S
C1947 C1949 1.415 . S
C1948 C1947 1.355 . S
C1948 C1950 1.419 . S
C1949 C1944 1.425 . S
C1949 C1946 1.409 . S
C1949 C1947 1.415 . S
C1950 H1940 0.930 . S
C1950 C1948 1.419 . S
C1950 C1951 1.362 . S
C1951 H1941 0.930 . S
C1951 C1944 1.409 . S
C1951 C1950 1.362 . S
H1952 C1958 0.930 . S
H1953 C1961 0.930 . S
H1954 C1962 0.930 . S
H1955 C1963 0.930 . S
H1956 C1966 0.930 . S
H1957 C1967 0.930 . S
C1958 H1952 0.930 . S
C1958 C1959 1.355 . S
C1958 C1960 1.415 . S
C1959 C1958 1.355 . S
C1959 C1961 1.419 . S
C1960 C1958 1.415 . S
C1960 C1965 1.425 . S
C1960 C1967 1.409 . S
C1961 H1953 0.930 . S
C1961 C1959 1.419 . S
C1961 C1962 1.362 . S
C1962 H1954 0.930 . S
C1962 C1961 1.362 . S
C1962 C1965 1.409 . S
C1963 H1955 0.930 . S
C1963 C1964 1.355 . S
C1963 C1965 1.415 . S
C1964 C1963 1.355 . S
C1964 C1966 1.419 . S
C1965 C1960 1.425 . S
C1965 C1962 1.409 . S
C1965 C1963 1.415 . S
C1966 H1956 0.930 . S
C1966 C1964 1.419 . S
C1966 C1967 1.362 . S
C1967 H1957 0.930 . S
C1967 C1960 1.409 . S
C1967 C1966 1.362 . S
H1968 C1974 0.930 . S
H1969 C1977 0.930 . S
H1970 C1978 0.930 . S
H1971 C1979 0.930 . S
H1972 C1982 0.930 . S
H1973 C1983 0.930 . S
C1974 H1968 0.930 . S
C1974 C1975 1.355 . S
C1974 C1976 1.415 . S
C1975 C1974 1.355 . S
C1975 C1977 1.419 . S
C1976 C1974 1.415 . S
C1976 C1981 1.425 . S
C1976 C1983 1.409 . S
C1977 H1969 0.930 . S
C1977 C1975 1.419 . S
C1977 C1978 1.362 . S
C1978 H1970 0.930 . S
C1978 C1977 1.362 . S
C1978 C1981 1.409 . S
C1979 H1971 0.930 . S
C1979 C1980 1.355 . S
C1979 C1981 1.415 . S
C1980 C1979 1.355 . S
C1980 C1982 1.419 . S
C1981 C1976 1.425 . S
C1981 C1978 1.409 . S
C1981 C1979 1.415 . S
C1982 H1972 0.930 . S
C1982 C1980 1.419 . S
C1982 C1983 1.362 . S
C1983 H1973 0.930 . S
C1983 C1976 1.409 . S
C1983 C1982 1.362 . S
H1984 C1990 0.930 . S
H1985 C1993 0.930 . S
H1986 C1994 0.930 . S
H1987 C1995 0.930 . S
H1988 C1998 0.930 . S
H1989 C1999 0.930 . S
C1990 H1984 0.930 . S
C1990 C1991 1.355 . S
C1990 C1992 1.415 . S
C1991 C1990 1.355 . S
C1991 C1993 1.419 . S
C1992 C1990 1.415 . S
C1992 C1997 1.425 . S
C1992 C1999 1.409 . S
C1993 H1985 0.930 . S
C1993 C1991 1.419 . S
C1993 C1994 1.362 . S
C1994 H1986 0.930 . S
C1994 C1993 1.362 . S
C1994 C1997 1.409 . S
C1995 H1987 0.930 . S
C1995 C1996 1.355 . S
C1995 C1997 1.415 . S
C1996 C1995 1.355 . S
C1996 C1998 1.419 . S
C1997 C1992 1.425 . S
C1997 C1994 1.409 . S
C1997 C1995 1.415 . S
C1998 H1988 0.930 . S
C1998 C1996 1.419 . S
C1998 C1999 1.362 . S
C1999 H1989 0.930 . S
C1999 C1992 1.409 . S
C1999 C1998 1.362 . S
H2000 C2006 0.930 . S
H2001 C2009 0.930 . S
H2002 C2010 0.930 . S
H2003 C2011 0.930 . S
H2004 C2014 0.930 . S
H2005 C2015 0.930 . S
C2006 H2000 0.930 . S
C2006 C2007 1.355 . S
C2006 C2008 1.415 . S
C2007 C2006 1.355 . S
C2007 C2009 1.419 . S
C2008 C2006 1.415 . S
C2008 C2013 1.425 . S
C2008 C2015 1.409 . S
C2009 H2001 0.930 . S
C2009 C2007 1.419 . S
C2009 C2010 1.362 . S
C2010 H2002 0.930 . S
C2010 C2009 1.362 . S
C2010 C2013 1.409 . S
C2011 H2003 0.930 . S
C2011 C2012 1.355 . S
C2011 C2013 1.415 . S
C2012 C2011 1.355 . S
C2012 C2014 1.419 . S
C2013 C2008 1.425 . S
C2013 C2010 1.409 . S
C2013 C2011 1.415 . S
C2014 H2004 0.930 . S
C2014 C2012 1.419 . S
C2014 C2015 1.362 . S
C2015 H2005 0.930 . S
C2015 C2008 1.409 . S
C2015 C2014 1.362 . S
H2016 C2022 0.930 . S
H2017 C2025 0.930 . S
H2018 C2026 0.930 . S
H2019 C2027 0.930 . S
H2020 C2030 0.930 . S
H2021 C2031 0.930 . S
C2022 H2016 0.930 . S
C2022 C2023 1.355 . S
C2022 C2024 1.415 . S
C2023 C2022 1.355 . S
C2023 C2025 1.419 . S
C2024 C2022 1.415 . S
C2024 C2029 1.425 . S
C2024 C2031 1.409 . S
C2025 H2017 0.930 . S
C2025 C2023 1.419 . S
C2025 C2026 1.362 . S
C2026 H2018 0.930 . S
C2026 C2025 1.362 . S
C2026 C2029 1.409 . S
C2027 H2019 0.930 . S
C2027 C2028 1.355 . S
C2027 C2029 1.415 . S
C2028 C2027 1.355 . S
C2028 C2030 1.419 . S
C2029 C2024 1.425 . S
C2029 C2026 1.409 . S
C2029 C2027 1.415 . S
C2030 H2020 0.930 . S
C2030 C2028 1.419 . S
C2030 C2031 1.362 . S
C2031 H2021 0.930 . S
C2031 C2024 1.409 . S
C2031 C2030 1.362 . S
H2032 C2038 0.930 . S
H2033 C2041 0.930 . S
H2034 C2042 0.930 . S
H2035 C2043 0.930 . S
H2036 C2046 0.930 . S
H2037 C2047 0.930 . S
C2038 H2032 0.930 . S
C2038 C2039 1.355 . S
C2038 C2040 1.415 . S
C2039 C2038 1.355 . S
C2039 C2041 1.419 . S
C2040 C2038 1.415 . S
C2040 C2045 1.425 . S
C2040 C2047 1.409 . S
C2041 H2033 0.930 . S
C2041 C2039 1.419 . S
C2041 C2042 1.362 . S
C2042 H2034 0.930 . S
C2042 C2041 1.362 . S
C2042 C2045 1.409 . S
C2043 H2035 0.930 . S
C2043 C2044 1.355 . S
C2043 C2045 1.415 . S
C2044 C2043 1.355 . S
C2044 C2046 1.419 . S
C2045 C2040 1.425 . S
C2045 C2042 1.409 . S
C2045 C2043 1.415 . S
C2046 H2036 0.930 . S
C2046 C2044 1.419 . S
C2046 C2047 1.362 . S
C2047 H2037 0.930 . S
C2047 C2040 1.409 . S
C2047 C2046 1.362 . S
H2048 C2054 0.930 . S
H2049 C2057 0.930 . S
H2050 C2058 0.930 . S
H2051 C2059 0.930 . S
H2052 C2062 0.930 . S
H2053 C2063 0.930 . S
C2054 H2048 0.930 . S
C2054 C2055 1.355 . S
C2054 C2056 1.415 . S
C2055 C2054 1.355 . S
C2055 C2057 1.419 . S
C2056 C2054 1.415 . S
C2056 C2061 1.425 . S
C2056 C2063 1.409 . S
C2057 H2049 0.930 . S
C2057 C2055 1.419 . S
C2057 C2058 1.362 . S
C2058 H2050 0.930 . S
C2058 C2057 1.362 . S
C2058 C2061 1.409 . S
C2059 H2051 0.930 . S
C2059 C2060 1.355 . S
C2059 C2061 1.415 . S
C2060 C2059 1.355 . S
C2060 C2062 1.419 . S
C2061 C2056 1.425 . S
C2061 C2058 1.409 . S
C2061 C2059 1.415 . S
C2062 H2052 0.930 . S
C2062 C2060 1.419 . S
C2062 C2063 1.362 . S
C2063 H2053 0.930 . S
C2063 C2056 1.409 . S
C2063 C2062 1.362 . S
H2064 C2070 0.930 . S
H2065 C2073 0.930 . S
H2066 C2074 0.930 . S
H2067 C2075 0.930 . S
H2068 C2078 0.930 . S
H2069 C2079 0.930 . S
C2070 H2064 0.930 . S
C2070 C2071 1.355 . S
C2070 C2072 1.415 . S
C2071 C2070 1.355 . S
C2071 C2073 1.419 . S
C2072 C2070 1.415 . S
C2072 C2077 1.425 . S
C2072 C2079 1.409 . S
C2073 H2065 0.930 . S
C2073 C2071 1.419 . S
C2073 C2074 1.362 . S
C2074 H2066 0.930 . S
C2074 C2073 1.362 . S
C2074 C2077 1.409 . S
C2075 H2067 0.930 . S
C2075 C2076 1.355 . S
C2075 C2077 1.415 . S
C2076 C2075 1.355 . S
C2076 C2078 1.419 . S
C2077 C2072 1.425 . S
C2077 C2074 1.409 . S
C2077 C2075 1.415 . S
C2078 H2068 0.930 . S
C2078 C2076 1.419 . S
C2078 C2079 1.362 . S
C2079 H2069 0.930 . S
C2079 C2072 1.409 . S
C2079 C2078 1.362 . S
H2080 C2086 0.930 . S
H2081 C2089 0.930 . S
H2082 C2090 0.930 . S
H2083 C2091 0.930 . S
H2084 C2094 0.930 . S
H2085 C2095 0.930 . S
C2086 H2080 0.930 . S
C2086 C2087 1.355 . S
C2086 C2088 1.415 . S
C2087 C2086 1.355 . S
C2087 C2089 1.419 . S
C2088 C2086 1.415 . S
C2088 C2093 1.425 . S
C2088 C2095 1.409 . S
C2089 H2081 0.930 . S
C2089 C2087 1.419 . S
C2089 C2090 1.362 . S
C2090 H2082 0.930 . S
C2090 C2089 1.362 . S
C2090 C2093 1.409 . S
C2091 H2083 0.930 . S
C2091 C2092 1.355 . S
C2091 C2093 1.415 . S
C2092 C2091 1.355 . S
C2092 C2094 1.419 . S
C2093 C2088 1.425 . S
C2093 C2090 1.409 . S
C2093 C2091 1.415 . S
C2094 H2084 0.930 . S
C2094 C2092 1.419 . S
C2094 C2095 1.362 . S
C2095 H2085 0.930 . S
C2095 C2088 1.409 . S
C2095 C2094 1.362 . S
H2096 C2102 0.930 . S
H2097 C2105 0.930 . S
H2098 C2106 0.930 . S
H2099 C2107 0.930 . S
H2100 C2110 0.930 . S
H2101 C2111 0.930 . S
C2102 H2096 0.930 . S
C2102 C2103 1.355 . S
C2102 C2104 1.414 . S
C2103 C2102 1.355 . S
C2103 C2105 1.419 1_655 S
C2104 C2102 1.414 . S
C2104 C2109 1.425 1_665 S
C2104 C2111 1.410 1_565 S
C2105 H2097 0.930 . S
C2105 C2103 1.419 1_455 S
C2105 C2106 1.362 . S
C2106 H2098 0.930 . S
C2106 C2105 1.362 . S
C2106 C2109 1.410 1_565 S
C2107 H2099 0.930 . S
C2107 C2108 1.355 . S
C2107 C2109 1.414 . S
C2108 C2107 1.355 . S
C2108 C2110 1.419 1_455 S
C2109 C2104 1.425 1_445 S
C2109 C2106 1.410 1_545 S
C2109 C2107 1.414 . S
C2110 H2100 0.930 . S
C2110 C2108 1.419 1_655 S
C2110 C2111 1.362 . S
C2111 H2101 0.930 . S
C2111 C2104 1.410 1_545 S
C2111 C2110 1.362 . S
H2112 C2118 0.930 . S
H2113 C2121 0.930 . S
H2114 C2122 0.930 . S
H2115 C2123 0.930 . S
H2116 C2126 0.930 . S
H2117 C2127 0.930 . S
C2118 H2112 0.930 . S
C2118 C2119 1.355 . S
C2118 C2120 1.415 . S
C2119 C2118 1.355 . S
C2119 C2121 1.419 . S
C2120 C2118 1.415 . S
C2120 C2125 1.425 . S
C2120 C2127 1.409 . S
C2121 H2113 0.930 . S
C2121 C2119 1.419 . S
C2121 C2122 1.362 . S
C2122 H2114 0.930 . S
C2122 C2121 1.362 . S
C2122 C2125 1.409 . S
C2123 H2115 0.930 . S
C2123 C2124 1.355 . S
C2123 C2125 1.415 . S
C2124 C2123 1.355 . S
C2124 C2126 1.419 . S
C2125 C2120 1.425 . S
C2125 C2122 1.409 . S
C2125 C2123 1.415 . S
C2126 H2116 0.930 . S
C2126 C2124 1.419 . S
C2126 C2127 1.362 . S
C2127 H2117 0.930 . S
C2127 C2120 1.409 . S
C2127 C2126 1.362 . S
H2128 C2134 0.930 . S
H2129 C2137 0.930 . S
H2130 C2138 0.930 . S
H2131 C2139 0.930 . S
H2132 C2142 0.930 . S
H2133 C2143 0.930 . S
C2134 H2128 0.930 . S
C2134 C2135 1.355 1_545 S
C2134 C2136 1.415 . S
C2135 C2134 1.355 1_565 S
C2135 C2137 1.419 . S
C2136 C2134 1.415 . S
C2136 C2141 1.425 1_546 S
C2136 C2143 1.409 1_556 S
C2137 H2129 0.930 . S
C2137 C2135 1.419 . S
C2137 C2138 1.362 . S
C2138 H2130 0.930 . S
C2138 C2137 1.362 . S
C2138 C2141 1.409 1_556 S
C2139 H2131 0.930 . S
C2139 C2140 1.355 1_565 S
C2139 C2141 1.415 . S
C2140 C2139 1.355 1_545 S
C2140 C2142 1.419 . S
C2141 C2136 1.425 1_564 S
C2141 C2138 1.409 1_554 S
C2141 C2139 1.415 . S
C2142 H2132 0.930 . S
C2142 C2140 1.419 . S
C2142 C2143 1.362 . S
C2143 H2133 0.930 . S
C2143 C2136 1.409 1_554 S
C2143 C2142 1.362 . S
H2144 C2150 0.930 . S
H2145 C2153 0.930 . S
H2146 C2154 0.930 . S
H2147 C2155 0.930 . S
H2148 C2158 0.930 . S
H2149 C2159 0.930 . S
C2150 H2144 0.930 . S
C2150 C2151 1.355 . S
C2150 C2152 1.415 . S
C2151 C2150 1.355 . S
C2151 C2153 1.419 . S
C2152 C2150 1.415 . S
C2152 C2157 1.425 . S
C2152 C2159 1.409 . S
C2153 H2145 0.930 . S
C2153 C2151 1.419 . S
C2153 C2154 1.362 . S
C2154 H2146 0.930 . S
C2154 C2153 1.362 . S
C2154 C2157 1.409 . S
C2155 H2147 0.930 . S
C2155 C2156 1.355 . S
C2155 C2157 1.415 . S
C2156 C2155 1.355 . S
C2156 C2158 1.419 . S
C2157 C2152 1.425 . S
C2157 C2154 1.409 . S
C2157 C2155 1.415 . S
C2158 H2148 0.930 . S
C2158 C2156 1.419 . S
C2158 C2159 1.362 . S
C2159 H2149 0.930 . S
C2159 C2152 1.409 . S
C2159 C2158 1.362 . S
H2160 C2166 0.930 . S
H2161 C2169 0.930 . S
H2162 C2170 0.930 . S
H2163 C2171 0.930 . S
H2164 C2174 0.930 . S
H2165 C2175 0.930 . S
C2166 H2160 0.930 . S
C2166 C2167 1.355 . S
C2166 C2168 1.415 . S
C2167 C2166 1.355 . S
C2167 C2169 1.419 1_545 S
C2168 C2166 1.415 . S
C2168 C2173 1.425 1_545 S
C2168 C2175 1.409 . S
C2169 H2161 0.930 . S
C2169 C2167 1.419 1_565 S
C2169 C2170 1.362 . S
C2170 H2162 0.930 . S
C2170 C2169 1.362 . S
C2170 C2173 1.409 . S
C2171 H2163 0.930 . S
C2171 C2172 1.355 . S
C2171 C2173 1.415 . S
C2172 C2171 1.355 . S
C2172 C2174 1.419 1_565 S
C2173 C2168 1.425 1_565 S
C2173 C2170 1.409 . S
C2173 C2171 1.415 . S
C2174 H2164 0.930 . S
C2174 C2172 1.419 1_545 S
C2174 C2175 1.362 . S
C2175 H2165 0.930 . S
C2175 C2168 1.409 . S
C2175 C2174 1.362 . S
H2176 C2182 0.930 . S
H2177 C2185 0.930 . S
H2178 C2186 0.930 . S
H2179 C2187 0.930 . S
H2180 C2190 0.930 . S
H2181 C2191 0.930 . S
C2182 H2176 0.930 . S
C2182 C2183 1.355 . S
C2182 C2184 1.415 . S
C2183 C2182 1.355 . S
C2183 C2185 1.419 . S
C2184 C2182 1.415 . S
C2184 C2189 1.425 . S
C2184 C2191 1.409 . S
C2185 H2177 0.930 . S
C2185 C2183 1.419 . S
C2185 C2186 1.362 . S
C2186 H2178 0.930 . S
C2186 C2185 1.362 . S
C2186 C2189 1.409 . S
C2187 H2179 0.930 . S
C2187 C2188 1.355 . S
C2187 C2189 1.415 . S
C2188 C2187 1.355 . S
C2188 C2190 1.419 . S
C2189 C2184 1.425 . S
C2189 C2186 1.409 . S
C2189 C2187 1.415 . S
C2190 H2180 0.930 . S
C2190 C2188 1.419 . S
C2190 C2191 1.362 . S
C2191 H2181 0.930 . S
C2191 C2184 1.409 . S
C2191 C2190 1.362 . S
H2192 C2198 0.930 1_655 S
H2193 C2201 0.930 . S
H2194 C2202 0.930 . S
H2195 C2203 0.930 1_455 S
H2196 C2206 0.930 . S
H2197 C2207 0.930 . S
C2198 H2192 0.930 1_455 S
C2198 C2199 1.355 . S
C2198 C2200 1.415 1_455 S
C2199 C2198 1.355 . S
C2199 C2201 1.419 1_565 S
C2200 C2198 1.415 1_655 S
C2200 C2205 1.425 1_664 S
C2200 C2207 1.409 1_554 S
C2201 H2193 0.930 . S
C2201 C2199 1.419 1_545 S
C2201 C2202 1.362 . S
C2202 H2194 0.930 . S
C2202 C2201 1.362 . S
C2202 C2205 1.409 1_554 S
C2203 H2195 0.930 1_655 S
C2203 C2204 1.355 . S
C2203 C2205 1.415 1_655 S
C2204 C2203 1.355 . S
C2204 C2206 1.419 1_545 S
C2205 C2200 1.425 1_446 S
C2205 C2202 1.409 1_556 S
C2205 C2203 1.415 1_455 S
C2206 H2196 0.930 . S
C2206 C2204 1.419 1_565 S
C2206 C2207 1.362 . S
C2207 H2197 0.930 . S
C2207 C2200 1.409 1_556 S
C2207 C2206 1.362 . S
H2208 C2214 0.930 . S
H2209 C2217 0.930 . S
H2210 C2218 0.930 . S
H2211 C2219 0.930 . S
H2212 C2222 0.930 . S
H2213 C2223 0.930 . S
C2214 H2208 0.930 . S
C2214 C2215 1.355 . S
C2214 C2216 1.415 . S
C2215 C2214 1.355 . S
C2215 C2217 1.419 . S
C2216 C2214 1.415 . S
C2216 C2221 1.425 . S
C2216 C2223 1.409 . S
C2217 H2209 0.930 . S
C2217 C2215 1.419 . S
C2217 C2218 1.362 . S
C2218 H2210 0.930 . S
C2218 C2217 1.362 . S
C2218 C2221 1.409 . S
C2219 H2211 0.930 . S
C2219 C2220 1.355 . S
C2219 C2221 1.415 . S
C2220 C2219 1.355 . S
C2220 C2222 1.419 . S
C2221 C2216 1.425 . S
C2221 C2218 1.409 . S
C2221 C2219 1.415 . S
C2222 H2212 0.930 . S
C2222 C2220 1.419 . S
C2222 C2223 1.362 . S
C2223 H2213 0.930 . S
C2223 C2216 1.409 . S
C2223 C2222 1.362 . S
H2224 C2230 0.930 . S
H2225 C2233 0.930 . S
H2226 C2234 0.930 . S
H2227 C2235 0.930 . S
H2228 C2238 0.930 . S
H2229 C2239 0.930 . S
C2230 H2224 0.930 . S
C2230 C2231 1.355 . S
C2230 C2232 1.415 . S
C2231 C2230 1.355 . S
C2231 C2233 1.419 . S
C2232 C2230 1.415 . S
C2232 C2237 1.425 . S
C2232 C2239 1.409 . S
C2233 H2225 0.930 . S
C2233 C2231 1.419 . S
C2233 C2234 1.362 . S
C2234 H2226 0.930 . S
C2234 C2233 1.362 . S
C2234 C2237 1.409 . S
C2235 H2227 0.930 . S
C2235 C2236 1.355 . S
C2235 C2237 1.415 . S
C2236 C2235 1.355 . S
C2236 C2238 1.419 . S
C2237 C2232 1.425 . S
C2237 C2234 1.409 . S
C2237 C2235 1.415 . S
C2238 H2228 0.930 . S
C2238 C2236 1.419 . S
C2238 C2239 1.362 . S
C2239 H2229 0.930 . S
C2239 C2232 1.409 . S
C2239 C2238 1.362 . S
H2240 C2246 0.930 . S
H2241 C2249 0.930 . S
H2242 C2250 0.930 . S
H2243 C2251 0.930 . S
H2244 C2254 0.930 . S
H2245 C2255 0.930 . S
C2246 H2240 0.930 . S
C2246 C2247 1.355 . S
C2246 C2248 1.415 . S
C2247 C2246 1.355 . S
C2247 C2249 1.419 . S
C2248 C2246 1.415 . S
C2248 C2253 1.425 . S
C2248 C2255 1.409 . S
C2249 H2241 0.930 . S
C2249 C2247 1.419 . S
C2249 C2250 1.362 . S
C2250 H2242 0.930 . S
C2250 C2249 1.362 . S
C2250 C2253 1.409 . S
C2251 H2243 0.930 . S
C2251 C2252 1.355 . S
C2251 C2253 1.415 . S
C2252 C2251 1.355 . S
C2252 C2254 1.419 . S
C2253 C2248 1.425 . S
C2253 C2250 1.409 . S
C2253 C2251 1.415 . S
C2254 H2244 0.930 . S
C2254 C2252 1.419 . S
C2254 C2255 1.362 . S
C2255 H2245 0.930 . S
C2255 C2248 1.409 . S
C2255 C2254 1.362 . S
H2256 C2262 0.930 . S
H2257 C2265 0.930 . S
H2258 C2266 0.930 . S
H2259 C2267 0.930 . S
H2260 C2270 0.930 . S
H2261 C2271 0.930 . S
C2262 H2256 0.930 . S
C2262 C2263 1.355 . S
C2262 C2264 1.415 . S
C2263 C2262 1.355 . S
C2263 C2265 1.419 . S
C2264 C2262 1.415 . S
C2264 C2269 1.425 . S
C2264 C2271 1.409 . S
C2265 H2257 0.930 . S
C2265 C2263 1.419 . S
C2265 C2266 1.362 . S
C2266 H2258 0.930 . S
C2266 C2265 1.362 . S
C2266 C2269 1.409 . S
C2267 H2259 0.930 . S
C2267 C2268 1.355 . S
C2267 C2269 1.415 . S
C2268 C2267 1.355 . S
C2268 C2270 1.419 . S
C2269 C2264 1.425 . S
C2269 C2266 1.409 . S
C2269 C2267 1.415 . S
C2270 H2260 0.930 . S
C2270 C2268 1.419 . S
C2270 C2271 1.362 . S
C2271 H2261 0.930 . S
C2271 C2264 1.409 . S
C2271 C2270 1.362 . S
H2272 C2278 0.930 . S
H2273 C2281 0.930 . S
H2274 C2282 0.930 . S
H2275 C2283 0.930 . S
H2276 C2286 0.930 . S
H2277 C2287 0.930 . S
C2278 H2272 0.930 . S
C2278 C2279 1.355 . S
C2278 C2280 1.439 . S
C2279 C2278 1.355 . S
C2279 C2281 1.419 . S
C2280 C2278 1.439 . S
C2280 C2285 1.424 1_554 S
C2280 C2287 1.386 1_554 S
C2281 H2273 0.930 . S
C2281 C2279 1.419 . S
C2281 C2282 1.362 . S
C2282 H2274 0.930 . S
C2282 C2281 1.362 . S
C2282 C2285 1.386 1_554 S
C2283 H2275 0.930 . S
C2283 C2284 1.355 . S
C2283 C2285 1.439 . S
C2284 C2283 1.355 . S
C2284 C2286 1.419 . S
C2285 C2280 1.424 1_556 S
C2285 C2282 1.386 1_556 S
C2285 C2283 1.439 . S
C2286 H2276 0.930 . S
C2286 C2284 1.419 . S
C2286 C2287 1.362 . S
C2287 H2277 0.930 . S
C2287 C2280 1.386 1_556 S
C2287 C2286 1.362 . S
H2288 C2294 0.930 . S
H2289 C2297 0.930 . S
H2290 C2298 0.930 . S
H2291 C2299 0.930 . S
H2292 C2302 0.930 . S
H2293 C2303 0.930 . S
C2294 H2288 0.930 . S
C2294 C2295 1.355 1_655 S
C2294 C2296 1.415 . S
C2295 C2294 1.355 1_455 S
C2295 C2297 1.419 . S
C2296 C2294 1.415 . S
C2296 C2301 1.425 1_655 S
C2296 C2303 1.409 . S
C2297 H2289 0.930 . S
C2297 C2295 1.419 . S
C2297 C2298 1.362 . S
C2298 H2290 0.930 . S
C2298 C2297 1.362 . S
C2298 C2301 1.409 . S
C2299 H2291 0.930 . S
C2299 C2300 1.355 1_455 S
C2299 C2301 1.415 . S
C2300 C2299 1.355 1_655 S
C2300 C2302 1.419 . S
C2301 C2296 1.425 1_455 S
C2301 C2298 1.409 . S
C2301 C2299 1.415 . S
C2302 H2292 0.930 . S
C2302 C2300 1.419 . S
C2302 C2303 1.362 . S
C2303 H2293 0.930 . S
C2303 C2296 1.409 . S
C2303 C2302 1.362 . S
H2304 C2310 0.930 . S
H2305 C2313 0.930 . S
H2306 C2314 0.930 . S
H2307 C2315 0.930 . S
H2308 C2318 0.930 . S
H2309 C2319 0.930 . S
C2310 H2304 0.930 . S
C2310 C2311 1.355 . S
C2310 C2312 1.458 . S
C2311 C2310 1.355 . S
C2311 C2313 1.419 1_455 S
C2312 C2310 1.458 . S
C2312 C2317 1.421 1_456 S
C2312 C2319 1.370 1_556 S
C2313 H2305 0.930 . S
C2313 C2311 1.419 1_655 S
C2313 C2314 1.362 . S
C2314 H2306 0.930 . S
C2314 C2313 1.362 . S
C2314 C2317 1.370 1_556 S
C2315 H2307 0.930 . S
C2315 C2316 1.355 . S
C2315 C2317 1.458 . S
C2316 C2315 1.355 . S
C2316 C2318 1.419 1_655 S
C2317 C2312 1.421 1_654 S
C2317 C2314 1.370 1_554 S
C2317 C2315 1.458 . S
C2318 H2308 0.930 . S
C2318 C2316 1.419 1_455 S
C2318 C2319 1.362 . S
C2319 H2309 0.930 . S
C2319 C2312 1.370 1_554 S
C2319 C2318 1.362 . S
H2320 C2326 0.930 . S
H2321 C2329 0.930 . S
H2322 C2330 0.930 . S
H2323 C2331 0.930 . S
H2324 C2334 0.930 . S
H2325 C2335 0.930 . S
C2326 H2320 0.930 . S
C2326 C2327 1.355 . S
C2326 C2328 1.415 . S
C2327 C2326 1.355 . S
C2327 C2329 1.419 . S
C2328 C2326 1.415 . S
C2328 C2333 1.425 . S
C2328 C2335 1.409 . S
C2329 H2321 0.930 . S
C2329 C2327 1.419 . S
C2329 C2330 1.362 . S
C2330 H2322 0.930 . S
C2330 C2329 1.362 . S
C2330 C2333 1.409 . S
C2331 H2323 0.930 . S
C2331 C2332 1.355 . S
C2331 C2333 1.415 . S
C2332 C2331 1.355 . S
C2332 C2334 1.419 . S
C2333 C2328 1.425 . S
C2333 C2330 1.409 . S
C2333 C2331 1.415 . S
C2334 H2324 0.930 . S
C2334 C2332 1.419 . S
C2334 C2335 1.362 . S
C2335 H2325 0.930 . S
C2335 C2328 1.409 . S
C2335 C2334 1.362 . S
C1063 N608 1.184 . S
C1068 N14 1.181 . S
C1079 N47 1.171 . S
C1084 N641 1.167 . S
C1095 N80 1.152 . S
C1100 N542 1.147 . S
C1111 N575 1.192 . S
C1116 N113 1.191 . S
C1127 N146 1.191 . S
C1132 N740 1.190 . S
C1143 N773 1.153 . S
C1148 N179 1.148 . S
C1159 N212 1.072 . S
C1164 N674 1.078 . S
C1175 N245 1.031 . S
C1180 N707 1.031 . S
C1191 N278 1.132 . S
C1196 N872 1.138 . S
C1207 N905 1.165 . S
C1212 N311 1.169 . S
C1223 N344 1.187 . S
C1228 N806 1.189 . S
C1239 N377 1.059 . S
C1244 N839 1.054 . S
C1255 N410 1.032 . S
C1260 N1004 1.031 . S
C1271 N1037 1.188 . S
C1276 N443 1.190 . S
C1287 N938 1.032 . S
C1292 N476 1.031 . S
C1303 N971 1.127 . S
C1308 N509 1.121 . S
C1319 C371 1.062 . S
C1324 C28 0.955 . S
C1335 C800 0.970 . S
C1340 C61 1.051 . S
C1351 C94 1.026 . S
C1356 C305 0.991 . S
C1367 C866 1.060 . S
C1372 C127 0.956 . S
C1383 C437 0.965 . S
C1388 C160 1.059 . S
C1399 C193 1.062 . S
C1404 C998 0.969 . S
C1415 C503 1.058 . S
C1420 C226 0.970 . S
C1431 C932 1.064 . S
C1436 C259 0.957 . S
C1447 C107 0.967 . S
C1452 C292 1.057 . S
C1463 C325 0.988 . S
C1468 C536 1.026 . S
C1479 C358 1.058 . S
C1484 C41 0.966 . S
C1495 C602 1.064 . S
C1500 C391 0.955 . S
C1511 C424 1.000 . S
C1516 C173 1.015 . S
C1527 C734 1.062 . S
C1532 C457 0.964 . S
C1543 C490 1.029 . S
C1548 C239 0.988 . S
C1559 C523 1.051 . S
C1564 C668 0.985 . S
C1575 C899 0.969 . S
C1580 C556 1.062 . S
C1591 C589 0.982 . S
C1596 C272 1.050 . S
C1607 C622 0.983 . S
C1612 C833 1.031 . S
C1623 C338 1.046 . S
C1628 C655 0.968 . S
C1639 C688 1.024 . S
C1644 C965 0.993 . S
C1655 C721 1.062 . S
C1660 C470 0.964 . S
C1671 C1031 1.056 . S
C1676 C754 0.959 . S
C1687 C404 1.035 . S
C1692 C787 0.978 . S
C1703 C635 0.965 . S
C1708 C820 1.063 . S
C1719 C853 0.956 . S
C1724 C8 1.060 . S
C1735 C886 0.955 . S
C1740 C569 1.064 . S
C1751 C74 0.965 . S
C1756 C919 1.063 . S
C1767 C952 1.057 . S
C1772 C701 0.978 . S
C1783 C985 1.044 . S
C1788 C206 0.993 . S
C1799 C767 1.030 . S
C1804 C1018 1.006 . S
C1815 C140 0.972 . S
C1820 C1051 1.049 . S
C1831 N236 1.839 . S
C1836 N5 1.843 . S
C1847 N137 1.830 . S
C1852 N38 1.827 . S
C1863 N71 1.839 . S
C1868 N170 1.835 . S
C1879 N203 1.830 . S
C1884 N104 1.834 . S
C1895 N500 1.826 . S
C1900 N269 1.829 . S
C1911 N302 1.826 . S
C1916 N401 1.825 . S
C1927 N434 1.841 . S
C1932 N335 1.837 . S
C1943 N467 1.838 . S
C1948 N368 1.842 . S
C1959 N764 1.844 . S
C1964 N533 1.847 . S
C1975 N665 1.837 . S
C1980 N566 1.833 . S
C1991 N698 1.836 . S
C1996 N599 1.840 . S
C2007 N731 1.836 . S
C2012 N632 1.832 . S
C2023 N797 1.828 . S
C2028 N1028 1.826 . S
C2039 N830 1.833 . S
C2044 N929 1.837 . S
C2055 N863 1.837 . S
C2060 N962 1.833 . S
C2071 N995 1.840 . S
C2076 N896 1.844 . S
C2087 C17 1.450 . S
C2092 C809 1.450 . S
C2103 C314 1.411 . S
C2108 C50 1.411 . S
C2119 C875 1.443 . S
C2124 C83 1.443 . S
C2135 C116 1.414 . S
C2140 C380 1.414 . S
C2151 C149 1.440 . S
C2156 C941 1.440 . S
C2167 C182 1.450 . S
C2172 C446 1.450 . S
C2183 C1007 1.449 . S
C2188 C215 1.449 . S
C2199 C248 1.450 . S
C2204 C512 1.450 . S
C2215 C545 1.450 . S
C2220 C281 1.450 . S
C2231 C611 1.411 . S
C2236 C347 1.411 . S
C2247 C413 1.423 . S
C2252 C677 1.423 . S
C2263 C479 1.445 . S
C2268 C743 1.445 . S
C2279 C842 1.411 . S
C2284 C578 1.411 . S
C2295 C908 1.448 . S
C2300 C644 1.448 . S
C2311 C974 1.426 . S
C2316 C710 1.426 . S
C2327 C1040 1.427 . S
C2332 C776 1.427 . S
