# Generated by pormake.
# Topology uom, (4)-cn, num edge types: 1
# Building blocks:
#     Node 0, Type 0, BuildingBlock: ESEHIV_clean_sbu_0, # of connection points: 4
#     Node 1, Type 0, BuildingBlock: ESEHIV_clean_sbu_0, # of connection points: 4
#     Node 2, Type 0, BuildingBlock: ESEHIV_clean_sbu_0, # of connection points: 4
#     Node 3, Type 0, BuildingBlock: ESEHIV_clean_sbu_0, # of connection points: 4
#     Node 4, Type 0, BuildingBlock: ESEHIV_clean_sbu_0, # of connection points: 4
#     Node 5, Type 0, BuildingBlock: ESEHIV_clean_sbu_0, # of connection points: 4
#     Edge 6, Type (0, 0), BuildingBlock: UVAHIK_clean_linker_0, # of connection points: 2
#     Edge 7, Type (0, 0), BuildingBlock: UVAHIK_clean_linker_0, # of connection points: 2
#     Edge 8, Type (0, 0), BuildingBlock: UVAHIK_clean_linker_0, # of connection points: 2
#     Edge 9, Type (0, 0), BuildingBlock: UVAHIK_clean_linker_0, # of connection points: 2
#     Edge 10, Type (0, 0), BuildingBlock: UVAHIK_clean_linker_0, # of connection points: 2
#     Edge 11, Type (0, 0), BuildingBlock: UVAHIK_clean_linker_0, # of connection points: 2
#     Edge 12, Type (0, 0), BuildingBlock: UVAHIK_clean_linker_0, # of connection points: 2
#     Edge 13, Type (0, 0), BuildingBlock: UVAHIK_clean_linker_0, # of connection points: 2
#     Edge 14, Type (0, 0), BuildingBlock: UVAHIK_clean_linker_0, # of connection points: 2
#     Edge 15, Type (0, 0), BuildingBlock: UVAHIK_clean_linker_0, # of connection points: 2
#     Edge 16, Type (0, 0), BuildingBlock: UVAHIK_clean_linker_0, # of connection points: 2
#     Edge 17, Type (0, 0), BuildingBlock: UVAHIK_clean_linker_0, # of connection points: 2
# Relax obj value: 0.105
# Max RMSD: 0.200
# Mean RMSD: 0.160
data_MOF--net-uom--node1-ESEHIV_clean_sbu_0--edge1-UVAHIK_clean_linker_0
_symmetry_space_group_name_H-M    P1
_symmetry_Int_Tables_number       1
_symmetry_cell_setting            triclinic
loop_
_symmetry_equiv_pos_as_xyz
'x, y, z'
_cell_length_a     38.746853
_cell_length_b     36.604744
_cell_length_c     59.685997
_cell_angle_alpha  89.89582
_cell_angle_beta   90.062903
_cell_angle_gamma 125.53735
loop_
_atom_site_label
_atom_site_type_symbol
_atom_site_fract_x
_atom_site_fract_y
_atom_site_fract_z
_atom_type_partial_charge
Cu0 Cu 0.38057 0.07398 0.02652 0.0
N1 N 0.38916 0.09156 0.99626 0.0
N2 N 0.3799 0.08359 0.95909 0.0
C3 C 0.3753 0.06299 0.97879 0.0
C4 C 0.3976 0.12692 0.96434 0.0
C5 C 0.40336 0.13177 0.98724 0.0
O6 O 0.41106 0.04666 0.03214 0.0
C7 C 0.30224 0.05726 0.02486 0.0
O8 O 0.32685 0.09766 1.0162 0.0
H9 H 0.35982 0.02724 0.98067 0.0
H10 H 0.41479 0.16194 0.99668 0.0
N11 N 0.40193 0.122 0.04652 0.0
N12 N 0.40668 0.15753 0.07812 0.0
C13 C 0.38578 0.118 0.06709 0.0
C14 C 0.43449 0.1656 0.04447 0.0
C15 C 0.43733 0.18765 0.0639 0.0
C16 C 0.4508 0.07267 0.02795 0.0
O17 O 0.46628 0.11315 0.02036 0.0
H18 H 0.3587 0.08667 0.07369 0.0
H19 H 0.45501 0.18035 0.03003 0.0
O20 O 0.31887 0.03735 0.03123 0.0
H21 H 0.40478 0.15296 0.95255 0.0
H22 H 0.46056 0.22294 0.06742 0.0
Cu23 Cu 0.32076 0.26273 0.36256 0.0
N24 N 0.30831 0.25663 0.33193 0.0
N25 N 0.31057 0.24675 0.2951 0.0
C26 C 0.31879 0.23874 0.31589 0.0
C27 C 0.29415 0.27028 0.2983 0.0
C28 C 0.29302 0.27649 0.32093 0.0
O29 O 0.36989 0.32355 0.36711 0.0
C30 C 0.31567 0.18745 0.38328 0.0
O31 O 0.33393 0.1682 0.38976 0.0
H32 H 0.33438 0.22257 0.31931 0.0
H33 H 0.28354 0.29596 0.3288 0.0
N34 N 0.27601 0.25424 0.37963 0.0
N35 N 0.23664 0.24767 0.4089 0.0
C36 C 0.27427 0.25695 0.40209 0.0
C37 C 0.23845 0.24334 0.37198 0.0
C38 C 0.21415 0.23921 0.38993 0.0
C39 C 0.40621 0.33333 0.36206 0.0
O40 O 0.40913 0.30195 0.35384 0.0
H41 H 0.30004 0.26533 0.41316 0.0
H42 H 0.22878 0.23738 0.35461 0.0
O43 O 0.33685 0.22331 0.37172 0.0
H44 H 0.28462 0.28313 0.28517 0.0
H45 H 0.18193 0.22945 0.38905 0.0
Cu46 Cu 0.05802 0.23807 0.69186 0.0
N47 N 0.01609 0.19109 0.71001 0.0
N48 N 0.97955 0.14897 0.73982 0.0
C49 C 0.01522 0.18772 0.73256 0.0
C50 C 0.95745 0.12718 0.72115 0.0
C51 C 0.98005 0.15307 0.70286 0.0
O52 O 0.05723 0.29035 0.69412 0.0
C53 C 0.1281 0.23803 0.71056 0.0
O54 O 0.16795 0.26143 0.71696 0.0
H55 H 0.03995 0.21333 0.7434 0.0
H56 H 0.9709 0.14448 0.68552 0.0
N57 N 0.04938 0.22197 0.66156 0.0
N58 N 0.06136 0.21719 0.62536 0.0
C59 C 0.07796 0.22808 0.64627 0.0
C60 C 1.01374 0.20696 0.64994 0.0
C61 C 0.02089 0.20372 0.6277 0.0
C62 C 0.02599 0.29132 0.6994 0.0
O63 O 0.98953 0.25393 0.70483 0.0
H64 H 0.11069 0.24211 0.65026 0.0
H65 H 0.98496 0.20034 0.65707 0.0
O66 O 0.11461 0.25876 0.70121 0.0
H67 H 0.92731 0.09449 0.72073 0.0
H68 H 0.99817 0.19297 0.61425 0.0
Cu69 Cu 0.82792 0.96853 0.02779 0.0
N70 N 0.8185 0.95516 0.99722 0.0
N71 N 0.82843 0.96375 0.96012 0.0
C72 C 0.84302 0.98301 0.98044 0.0
C73 C 0.79325 0.92221 0.96433 0.0
C74 C 0.78709 0.9171 0.98721 0.0
O75 O 0.79514 0.992 0.0362 0.0
C76 C 0.91003 0.0123 0.04863 0.0
O77 O 0.88962 -0.00085 0.06778 0.0
H78 H 0.87136 0.01653 0.98315 0.0
H79 H 0.76151 0.88772 0.99592 0.0
N80 N 0.80964 0.91663 0.04439 0.0
N81 N 0.8025 0.87483 0.07392 0.0
C82 C 0.80662 0.91234 0.06689 0.0
C83 C 0.80613 0.88 0.03688 0.0
C84 C 0.80156 0.85412 0.05497 0.0
C85 C 0.7549 0.96318 0.03719 0.0
O86 O 0.73917 0.9207 0.03396 0.0
H87 H 0.81106 0.93816 0.07794 0.0
H88 H 0.80971 0.87407 1.01958 0.0
O89 O 0.88986 0.00799 0.03077 0.0
H90 H 0.77303 0.89751 0.95176 0.0
H91 H 0.79997 0.82365 0.05422 0.0
Cu92 Cu 0.89848 0.80186 0.3629 0.0
N93 N 0.90907 0.80399 0.3322 0.0
N94 N 0.90425 0.8094 0.29512 0.0
C95 C 0.88694 0.80597 0.31537 0.0
C96 C 0.93864 0.80974 0.29948 0.0
C97 C 0.94163 0.80663 0.32231 0.0
O98 O 0.83988 0.75427 0.36869 0.0
C99 C 0.90633 0.86975 0.39066 0.0
O100 O 0.88337 0.83763 0.40537 0.0
H101 H 0.85883 0.80508 0.31798 0.0
H102 H 0.96642 0.80734 0.3311 0.0
N103 N 0.93205 0.78987 0.37943 0.0
N104 N 0.96898 0.78795 0.40786 0.0
C105 C 0.94886 0.80563 0.39995 0.0
C106 C 0.94177 0.76118 0.37411 0.0
C107 C 0.96464 0.76008 0.39147 0.0
C108 C 0.80908 0.75744 0.36657 0.0
O109 O 0.81643 0.79592 0.36056 0.0
H110 H 0.94523 0.82857 0.40913 0.0
H111 H 0.93217 0.74173 0.35884 0.0
O112 O 0.91334 0.86006 0.37155 0.0
H113 H 0.96087 0.81338 0.28713 0.0
H114 H 0.97674 0.73989 0.39191 0.0
Cu115 Cu 0.13846 0.81498 0.69382 0.0
N116 N 0.18511 0.84091 0.71338 0.0
N117 N 0.22521 0.87185 0.74411 0.0
C118 C 0.18814 0.85755 0.73402 0.0
C119 C 0.24617 0.8635 0.72935 0.0
C120 C 0.22141 0.84447 0.71045 0.0
O121 O 0.10967 0.7503 0.69436 0.0
C122 C 0.11972 0.87377 0.70633 0.0
O123 O 0.16085 0.90192 0.70328 0.0
H124 H 0.1633 0.85838 0.74168 0.0
H125 H 0.22928 0.83373 0.69565 0.0
N126 N 0.15491 0.83546 0.66433 0.0
N127 N 0.14927 0.84403 0.62758 0.0
C128 C 0.12832 0.82417 0.64693 0.0
C129 C 0.19413 0.86365 0.65588 0.0
C130 C 0.19081 0.8689 0.63327 0.0
C131 C 0.12771 0.73491 0.68438 0.0
O132 O 0.16357 0.76308 0.67382 0.0
H133 H 0.09421 0.80207 0.64866 0.0
H134 H 0.22313 0.87923 0.66544 0.0
O135 O 0.10176 0.83206 0.70316 0.0
H136 H 0.27735 0.87104 0.73194 0.0
H137 H 0.21719 0.88914 0.62196 0.0
C138 C 0.38048 0.13195 0.11683 0.0
C139 C 0.39774 0.16566 0.10031 0.0
C140 C 0.37126 0.1396 0.13826 0.0
C141 C 0.34612 0.20894 0.16822 0.0
H142 H 0.37964 0.17635 0.22159 0.0
C143 C 0.33239 0.26567 0.25549 0.0
C144 C 0.32089 0.23659 0.27383 0.0
C145 C 0.34169 0.25586 0.23471 0.0
C146 C 0.36944 0.18506 0.2069 0.0
H147 H 0.41858 0.23373 0.09337 0.0
H148 H 0.40222 0.24704 0.13072 0.0
H149 H 0.39574 0.16121 0.18464 0.0
H150 H 0.31035 0.17444 0.28473 0.0
H151 H 0.32563 0.1565 0.2482 0.0
H152 H 0.31906 0.23194 0.1902 0.0
C153 C 0.3959 0.21469 0.12708 0.0
C154 C 0.37884 0.17651 0.18571 0.0
C155 C 0.40562 0.20723 0.10575 0.0
C156 C 0.31936 0.19759 0.27094 0.0
C157 C 0.32825 0.18744 0.25 0.0
C158 C 0.33632 0.21704 0.18934 0.0
C159 C 0.37856 0.18095 0.14358 0.0
C160 C 0.36767 0.1888 0.16613 0.0
C161 C 0.33931 0.21637 0.23154 0.0
C162 C 0.34827 0.20574 0.20902 0.0
H163 H 0.37443 0.09973 0.11324 0.0
H164 H 0.35772 0.11287 0.15056 0.0
H165 H 0.33638 0.21804 0.15346 0.0
H166 H 0.33482 0.2965 0.25727 0.0
H167 H 0.3512 0.27965 0.22117 0.0
C168 C 0.23987 0.23757 0.44984 0.0
C169 C 0.22271 0.24628 0.43154 0.0
C170 C 0.22588 0.23596 0.47172 0.0
C171 C 0.17087 0.27285 0.50546 0.0
H172 H 0.14886 0.18007 0.54706 0.0
C173 C 0.06978 0.23077 0.5845 0.0
C174 C 0.08283 0.22216 0.60459 0.0
C175 C 0.09017 0.23547 0.56431 0.0
C176 C 0.1554 0.20655 0.53574 0.0
H177 H 0.17749 0.26037 0.42207 0.0
H178 H 0.1527 0.25677 0.45988 0.0
H179 H 0.17827 0.18478 0.51005 0.0
H180 H 0.1276 0.21151 0.61912 0.0
H181 H 0.16349 0.21984 0.58368 0.0
H182 H 0.14742 0.29419 0.53091 0.0
C183 C 0.17735 0.25172 0.45746 0.0
C184 C 0.17227 0.20928 0.51453 0.0
C185 C 0.19122 0.25323 0.43567 0.0
C186 C 0.11697 0.21842 0.60397 0.0
C187 C 0.13726 0.22281 0.58365 0.0
C188 C 0.15395 0.27005 0.52657 0.0
C189 C 0.19457 0.24326 0.4758 0.0
C190 C 0.17954 0.24202 0.49898 0.0
C191 C 0.12416 0.23157 0.56359 0.0
C192 C 0.14533 0.23643 0.54185 0.0
H193 H 0.26376 0.23147 0.44727 0.0
H194 H 0.23996 0.22953 0.48545 0.0
H195 H 0.177 0.29918 0.49414 0.0
H196 H 0.04401 0.23443 0.58436 0.0
H197 H 0.07891 0.24167 0.54915 0.0
C198 C 0.8418 0.95634 0.92042 0.0
C199 C 0.84645 0.98342 0.93849 0.0
C200 C 0.85864 0.97519 0.89936 0.0
C201 C 0.93466 0.08432 0.87016 0.0
H202 H 0.86957 0.01606 0.81791 0.0
C203 C 0.99685 0.14302 0.77908 0.0
C204 C 0.96682 0.13358 0.76258 0.0
C205 C 0.98381 0.12576 0.80085 0.0
C206 C 0.88805 0.03591 0.83228 0.0
H207 H 0.87236 0.05164 0.94852 0.0
H208 H 0.90089 0.0845 0.91171 0.0
H209 H 0.84363 0.98461 0.85496 0.0
H210 H 0.89989 0.10044 0.75619 0.0
H211 H 0.87718 0.07141 0.79402 0.0
H212 H 0.97824 0.1364 0.84735 0.0
C213 C 0.88514 0.04877 0.91388 0.0
C214 C 0.87344 0.01747 0.85363 0.0
C215 C 0.86865 0.02992 0.93502 0.0
C216 C 0.92369 0.10758 0.76843 0.0
C217 C 0.9107 0.09077 0.79015 0.0
C218 C 0.94915 0.10296 0.84875 0.0
C219 C 0.88019 0.02164 0.8957 0.0
C220 C 0.89645 0.04137 0.87291 0.0
C221 C 0.94045 0.09901 0.80661 0.0
C222 C 0.9259 0.07909 0.8295 0.0
H223 H 0.82553 0.92054 0.92264 0.0
H224 H 0.85495 0.95325 0.88597 0.0
H225 H 0.95359 0.10359 0.88454 0.0
H226 H 0.03028 0.16263 0.77497 0.0
H227 H 1.00765 0.13249 0.81297 0.0
C228 C 0.82511 0.84077 0.10071 0.0
C229 C 0.8073 0.86444 0.09661 0.0
C230 C 0.8332 0.83396 0.12257 0.0
C231 C 0.80649 0.83299 0.1821 0.0
H232 H 0.91479 0.85228 0.19239 0.0
C233 C 0.86796 0.83297 0.27116 0.0
C234 C 0.89034 0.81367 0.27341 0.0
C235 C 0.85628 0.83885 0.24995 0.0
C236 C 0.88416 0.84615 0.18981 0.0
H237 H 0.78273 0.8981 0.11254 0.0
H238 H 0.7971 0.88634 0.15082 0.0
H239 H 0.89671 0.8625 0.15499 0.0
H240 H 0.91633 0.78376 0.2551 0.0
H241 H 0.89571 0.79349 0.21831 0.0
H242 H 0.79391 0.81634 0.21699 0.0
C243 C 0.8047 0.87303 0.13701 0.0
C244 C 0.87381 0.85209 0.16833 0.0
C245 C 0.79676 0.88006 0.11506 0.0
C246 C 0.89989 0.79954 0.25398 0.0
C247 C 0.8881 0.80522 0.23284 0.0
C248 C 0.8168 0.82685 0.20365 0.0
C249 C 0.82367 0.8505 0.14099 0.0
C250 C 0.83472 0.84522 0.16413 0.0
C251 C 0.86656 0.82543 0.23048 0.0
C252 C 0.85566 0.83299 0.20774 0.0
H253 H 0.83416 0.82866 0.08703 0.0
H254 H 0.84727 0.81591 0.12503 0.0
H255 H 0.77601 0.82715 0.1794 0.0
H256 H 0.86047 0.84468 0.28573 0.0
H257 H 0.84012 0.85495 0.24879 0.0
C258 C 0.15601 0.86928 0.58806 0.0
C259 C 0.13121 0.83942 0.60556 0.0
C260 C 0.13871 0.86447 0.56674 0.0
C261 C 0.04772 0.78132 0.53058 0.0
H262 H 0.08367 0.88644 0.49491 0.0
C263 C 0.99802 0.76585 0.43792 0.0
C264 C 0.98863 0.79523 0.42966 0.0
C265 C 0.01597 0.77213 0.45916 0.0
C266 C 0.07289 0.85667 0.50469 0.0
H267 H 0.06809 0.78082 0.61379 0.0
H268 H 0.03787 0.77358 0.57713 0.0
H269 H 0.11235 0.89565 0.53243 0.0
H270 H 0.99209 0.85519 0.43766 0.0
H271 H 0.02181 0.86504 0.47481 0.0
H272 H 1.00716 0.74234 0.50322 0.0
C273 C 0.07106 0.80026 0.57976 0.0
C274 C 0.08986 0.86196 0.52616 0.0
C275 C 0.08841 0.80484 0.60103 0.0
C276 C 0.99818 0.83137 0.44333 0.0
C277 C 0.01586 0.83743 0.46467 0.0
C278 C 0.03055 0.77604 0.5092 0.0
C279 C 0.09599 0.82985 0.56225 0.0
C280 C 0.07761 0.82435 0.53941 0.0
C281 C 0.02484 0.80777 0.47295 0.0
C282 C 0.04299 0.81361 0.49588 0.0
H283 H 0.18888 0.89665 0.59071 0.0
H284 H 0.15915 0.88762 0.55368 0.0
H285 H 0.03784 0.75149 0.54007 0.0
H286 H 0.99108 0.73745 0.42819 0.0
H287 H 0.02308 0.749 0.46471 0.0
C288 C 0.34808 0.07765 0.92213 0.0
C289 C 0.36496 0.06269 0.93741 0.0
C290 C 0.33243 0.05656 0.90135 0.0
C291 C 0.29765 0.95146 0.87038 0.0
H292 H 0.30792 0.02158 0.81873 0.0
C293 C 0.26525 0.88476 0.77905 0.0
C294 C 0.2396 0.89207 0.76597 0.0
C295 C 0.27963 0.90478 0.80015 0.0
C296 C 0.30456 0.00151 0.83305 0.0
H297 H 0.37944 0.01448 0.94274 0.0
H298 H 0.35375 0.97866 0.90621 0.0
H299 H 0.33602 0.05845 0.85479 0.0
H300 H 0.20927 0.92647 0.76466 0.0
H301 H 0.23499 0.9621 0.80142 0.0
H302 H 0.26735 0.89481 0.84822 0.0
C303 C 0.35122 0.00576 0.91043 0.0
C304 C 0.3205 0.02258 0.85381 0.0
C305 C 0.36623 0.02643 0.93137 0.0
C306 C 0.2287 0.91994 0.77444 0.0
C307 C 0.24369 0.94059 0.79538 0.0
C308 C 0.28233 0.93057 0.84952 0.0
C309 C 0.33384 0.02033 0.89512 0.0
C310 C 0.31718 -0.00213 0.87285 0.0
C311 C 0.26927 0.93318 0.80847 0.0
C312 C 0.28548 0.95533 0.83065 0.0
H313 H 0.34601 0.10501 0.92647 0.0
H314 H 0.31852 0.06828 0.89037 0.0
H315 H 0.29359 0.93094 0.88461 0.0
H316 H 0.27387 0.86319 0.77305 0.0
H317 H 0.29948 0.89865 0.80981 0.0
C318 C 0.23585 0.04114 1.00883 0.0
C319 C 0.25666 0.03789 0.02715 0.0
C320 C 0.19695 0.03488 1.01158 0.0
C321 C 0.10722 -0.00326 0.05097 0.0
H322 H 0.09962 0.08289 1.01759 0.0
C323 C 0.97241 0.0189 0.0663 0.0
C324 C 0.95319 0.0224 0.04717 0.0
C325 C 1.00985 0.0215 0.06453 0.0
C326 C 0.10093 0.05829 0.02689 0.0
H327 H 0.25251 0.02403 0.06265 0.0
H328 H 0.18425 0.01336 0.06768 0.0
H329 H 0.16152 0.0821 1.01319 0.0
H330 H 0.95951 0.03302 1.01122 0.0
H331 H 0.02481 0.03787 1.00815 0.0
H332 H 0.04652 0.97329 0.06479 0.0
C333 C 0.19768 0.01998 0.05102 0.0
C334 C 0.13648 0.05768 0.02432 0.0
C335 C 0.23664 0.02575 0.04816 0.0
C336 C 0.97343 0.03042 0.02634 0.0
C337 C 1.01098 0.0332 0.02459 0.0
C338 C 0.0716 -0.00255 0.0536 0.0
C339 C 0.17812 0.02614 0.03288 0.0
C340 C 0.14003 0.02661 0.03612 0.0
C341 C 0.02928 0.02792 0.0436 0.0
C342 C 0.06784 0.02806 0.04146 0.0
H343 H 0.25075 0.05071 0.99247 0.0
H344 H 0.1824 0.03857 0.99708 0.0
H345 H 0.10862 0.97218 0.06024 0.0
H346 H 0.95782 0.01269 0.08264 0.0
H347 H 0.02339 0.01808 0.07958 0.0
C348 C 0.9473 0.92802 0.42018 0.0
C349 C 0.93394 0.91711 0.39779 0.0
C350 C 0.98371 0.97044 0.42555 0.0
C351 C 0.07065 0.08089 0.40026 0.0
H352 H 0.14258 0.05446 0.43028 0.0
C353 C 0.24109 0.15657 0.37355 0.0
C354 C 0.27169 0.16762 0.38987 0.0
C355 C 0.1989 0.13623 0.37976 0.0
C356 C 0.12302 0.063 0.42231 0.0
H357 H 0.94411 0.94363 0.36409 0.0
H358 H 1.00735 0.01687 0.37324 0.0
H359 H 0.06623 0.00206 0.43328 0.0
H360 H 0.28293 0.16571 0.42524 0.0
H361 H 0.20893 0.13037 0.43623 0.0
H362 H 0.12799 0.14036 0.38791 0.0
C363 C 0.99032 0.99324 0.38679 0.0
C364 C 0.07904 0.03299 0.42412 0.0
C365 C 0.95409 0.95098 0.38145 0.0
C366 C 0.25966 0.15768 0.41244 0.0
C367 C 0.2175 0.13759 0.41869 0.0
C368 C 0.11471 0.11078 0.39831 0.0
C369 C 1.00715 0.00246 0.4086 0.0
C370 C 0.05229 0.04043 0.41219 0.0
C371 C 0.18666 0.12653 0.40239 0.0
C372 C 0.14119 0.10097 0.40846 0.0
H373 H 0.93219 0.90265 0.43318 0.0
H374 H 0.99534 0.97688 0.44262 0.0
H375 H 0.05097 0.08808 0.39124 0.0
H376 H 0.24976 0.16334 0.356 0.0
H377 H 0.17568 0.12712 0.36676 0.0
C378 C 0.10858 0.17146 0.73305 0.0
C379 C 0.10113 0.18902 0.71427 0.0
C380 C 0.08915 0.12542 0.735 0.0
C381 C 0.04935 0.02917 0.69767 0.0
H382 H 0.04118 0.97199 0.75411 0.0
C383 C 0.05809 0.878 0.70109 0.0
C384 C 0.09548 0.89162 0.7125 0.0
C385 C 0.04034 0.90189 0.70384 0.0
C386 C 0.04248 0.98708 0.73821 0.0
H387 H 0.06625 0.17194 0.68321 0.0
H388 H 0.03061 0.09128 0.68695 0.0
H389 H 0.04116 0.0387 0.75395 0.0
H390 H 0.14179 0.93792 0.73691 0.0
H391 H 0.11014 0.97857 0.7423 0.0
H392 H 0.05211 0.97833 0.68208 0.0
C393 C 0.05203 0.11311 0.70009 0.0
C394 C 0.04288 0.02552 0.73809 0.0
C395 C 0.07199 0.15937 0.69805 0.0
C396 C 0.11293 0.92692 0.72795 0.0
C397 C 0.09465 0.94993 0.73113 0.0
C398 C 0.04818 0.99031 0.69779 0.0
C399 C 0.06168 0.09568 0.71816 0.0
C400 C 0.04889 0.04859 0.71792 0.0
C401 C 0.05916 0.93877 0.71849 0.0
C402 C 0.04705 0.97038 0.71813 0.0
H403 H 0.13105 0.1936 0.7458 0.0
H404 H 0.09808 0.11374 0.74901 0.0
H405 H 0.05428 0.04589 0.6818 0.0
H406 H 0.04436 0.85103 0.68896 0.0
H407 H 1.01311 0.89288 0.69383 0.0
C408 C 0.6819 0.94257 0.04434 0.0
C409 C 0.72508 0.97613 0.04012 0.0
C410 C 0.65224 0.95272 0.04502 0.0
C411 C 0.64081 0.04686 0.04958 0.0
H412 H 0.53108 0.96093 0.02243 0.0
C413 C 0.52415 0.09163 0.02827 0.0
C414 C 0.48028 0.05934 0.03137 0.0
C415 C 0.55289 0.08058 0.03092 0.0
C416 C 0.56127 0.98502 0.03038 0.0
H417 H 0.77093 0.0472 0.03387 0.0
H418 H 0.71899 0.06507 0.03482 0.0
H419 H 0.58384 0.9448 0.0239 0.0
H420 H 0.43249 0.98972 0.03984 0.0
H421 H 0.48299 0.97017 0.04449 0.0
H422 H 0.61835 0.08734 0.05576 0.0
C423 C 0.70813 0.03076 0.03785 0.0
C424 C 0.59171 0.97581 0.03123 0.0
C425 C 0.73801 0.02057 0.03727 0.0
C426 C 0.46598 0.01543 0.03731 0.0
C427 C 0.49496 0.00423 0.03987 0.0
C428 C 0.6104 0.05611 0.04868 0.0
C429 C 0.66463 -0.00322 0.04138 0.0
C430 C 0.63205 0.00665 0.04077 0.0
C431 C 0.53889 0.03677 0.03672 0.0
C432 C 0.57027 0.02548 0.03892 0.0
H433 H 0.6707 0.908 0.04685 0.0
H434 H 0.61939 0.92578 0.04835 0.0
H435 H 0.67109 0.07113 0.05741 0.0
H436 H 0.53659 0.12583 0.02365 0.0
H437 H 0.58621 0.1064 0.02795 0.0
C438 C 0.73029 0.71926 0.36845 0.0
C439 C 0.76526 0.71705 0.36981 0.0
C440 C 0.68896 0.6803 0.37072 0.0
C441 C 0.62911 0.56159 0.39021 0.0
H442 H 0.5431 0.54217 0.34851 0.0
C443 C 0.48478 0.38672 0.36557 0.0
C444 C 0.44485 0.37915 0.36552 0.0
C445 C 0.52155 0.42986 0.36873 0.0
C446 C 0.56665 0.54744 0.36046 0.0
H447 H 0.78422 0.67224 0.37477 0.0
H448 H 0.71276 0.60479 0.37815 0.0
H449 H 0.61213 0.61496 0.34944 0.0
H450 H 0.41205 0.41081 0.36861 0.0
H451 H 0.47686 0.4868 0.37365 0.0
H452 H 0.58424 0.49333 0.40042 0.0
C453 C 0.71696 0.63651 0.37587 0.0
C454 C 0.60614 0.58913 0.36107 0.0
C455 C 0.75807 0.67528 0.37374 0.0
C456 C 0.44243 0.41567 0.36863 0.0
C457 C 0.47939 0.45907 0.37144 0.0
C458 C 0.58991 0.51987 0.38941 0.0
C459 C 0.68184 0.63841 0.37433 0.0
C460 C 0.63819 0.59632 0.37558 0.0
C461 C 0.51923 0.46644 0.3716 0.0
C462 C 0.55868 0.51213 0.3742 0.0
H463 H 0.7348 0.75098 0.3655 0.0
H464 H 0.66261 0.683 0.36964 0.0
H465 H 0.65266 0.5663 0.40199 0.0
H466 H 0.48768 0.35927 0.36326 0.0
H467 H 0.55195 0.43475 0.36853 0.0
C468 C 0.07227 0.65524 0.6966 0.0
C469 C 0.11019 0.68657 0.68519 0.0
C470 C 0.05709 0.60991 0.69767 0.0
C471 C 0.06925 0.52684 0.67017 0.0
H472 H 0.02769 0.46222 0.72649 0.0
C473 C 0.06741 0.37236 0.68869 0.0
C474 C 0.03076 0.33452 0.6983 0.0
C475 C 0.07195 0.41293 0.68685 0.0
C476 C 0.03868 0.47967 0.71058 0.0
H477 H 0.16181 0.69474 0.66597 0.0
H478 H 0.13594 0.61664 0.66814 0.0
H479 H 0.04458 0.53772 0.72343 0.0
H480 H 0.97039 0.30998 0.7139 0.0
H481 H 0.97873 0.38159 0.71092 0.0
H482 H 0.06477 0.46955 0.65755 0.0
C483 C 0.11732 0.62656 0.6759 0.0
C484 C 0.04828 0.52285 0.70879 0.0
C485 C 0.13236 0.67158 0.6748 0.0
C486 C 0.99896 0.33848 0.70637 0.0
C487 C 1.00376 0.37944 0.70474 0.0
C488 C 0.06 0.48399 0.67201 0.0
C489 C 0.07951 0.59507 0.68732 0.0
C490 C 0.06463 0.54735 0.6887 0.0
C491 C 0.04014 0.41692 0.69473 0.0
C492 C 0.04551 0.46033 0.69235 0.0
H493 H 0.05444 0.66573 0.70478 0.0
H494 H 0.02771 0.58648 0.70648 0.0
H495 H 0.08074 0.54423 0.65427 0.0
H496 H 0.0926 0.37064 0.68232 0.0
H497 H 0.10063 0.44142 0.67937 0.0
loop_
_geom_bond_atom_site_label_1
_geom_bond_atom_site_label_2
_geom_bond_distance
_geom_bond_site_symmetry_2
_ccdc_geom_bond_type
Cu0 N1 1.999 1_554 S
Cu0 O6 1.974 . S
Cu0 N11 1.985 . S
Cu0 O20 1.959 . S
N1 Cu0 1.999 1_556 S
N1 C3 1.263 . S
N1 C5 1.389 . S
N2 C3 1.358 . S
N2 C4 1.400 . S
C3 N1 1.263 . S
C3 N2 1.358 . S
C3 H9 0.930 1_545 S
C4 N2 1.400 . S
C4 C5 1.351 . S
C4 H21 0.930 . S
C5 N1 1.389 . S
C5 C4 1.351 . S
C5 H10 0.930 . S
O6 Cu0 1.974 . S
O6 C16 1.282 . S
C7 O8 1.261 1_545 S
C7 O20 1.251 . S
O8 C7 1.261 1_565 S
H9 C3 0.930 1_565 S
H10 C5 0.930 . S
N11 Cu0 1.985 . S
N11 C13 1.335 . S
N11 C14 1.390 . S
N12 C13 1.345 . S
N12 C15 1.336 . S
C13 N11 1.335 . S
C13 N12 1.345 . S
C13 H18 0.930 . S
C14 N11 1.390 . S
C14 C15 1.346 . S
C14 H19 0.930 . S
C15 N12 1.336 . S
C15 C14 1.346 . S
C15 H22 0.929 . S
C16 O6 1.282 . S
C16 O17 1.216 1_545 S
O17 C16 1.216 1_565 S
H18 C13 0.930 . S
H19 C14 0.930 . S
O20 Cu0 1.959 . S
O20 C7 1.251 . S
H21 C4 0.930 . S
H22 C15 0.929 . S
Cu23 N24 1.999 . S
Cu23 O29 1.974 . S
Cu23 N34 1.985 . S
Cu23 O43 1.959 . S
N24 Cu23 1.999 . S
N24 C26 1.263 . S
N24 C28 1.389 . S
N25 C26 1.358 . S
N25 C27 1.400 . S
C26 N24 1.263 . S
C26 N25 1.358 . S
C26 H32 0.930 . S
C27 N25 1.400 . S
C27 C28 1.351 . S
C27 H44 0.930 . S
C28 N24 1.389 . S
C28 C27 1.351 . S
C28 H33 0.930 . S
O29 Cu23 1.974 . S
O29 C39 1.282 . S
C30 O31 1.261 . S
C30 O43 1.251 . S
O31 C30 1.261 . S
H32 C26 0.930 . S
H33 C28 0.930 . S
N34 Cu23 1.985 . S
N34 C36 1.335 . S
N34 C37 1.390 . S
N35 C36 1.345 . S
N35 C38 1.336 . S
C36 N34 1.335 . S
C36 N35 1.345 . S
C36 H41 0.930 . S
C37 N34 1.390 . S
C37 C38 1.346 . S
C37 H42 0.930 . S
C38 N35 1.336 . S
C38 C37 1.346 . S
C38 H45 0.929 . S
C39 O29 1.282 . S
C39 O40 1.216 . S
O40 C39 1.216 . S
H41 C36 0.930 . S
H42 C37 0.930 . S
O43 Cu23 1.959 . S
O43 C30 1.251 . S
H44 C27 0.930 . S
H45 C38 0.929 . S
Cu46 N47 1.999 . S
Cu46 O52 1.974 . S
Cu46 N57 1.985 . S
Cu46 O66 1.959 . S
N47 Cu46 1.999 . S
N47 C49 1.263 1_455 S
N47 C51 1.389 . S
N48 C49 1.358 . S
N48 C50 1.400 . S
C49 N47 1.263 1_655 S
C49 N48 1.358 . S
C49 H55 0.930 . S
C50 N48 1.400 . S
C50 C51 1.351 1_655 S
C50 H67 0.930 1_655 S
C51 N47 1.389 . S
C51 C50 1.351 1_455 S
C51 H56 0.930 . S
O52 Cu46 1.974 . S
O52 C62 1.282 1_455 S
C53 O54 1.261 . S
C53 O66 1.251 1_655 S
O54 C53 1.261 . S
H55 C49 0.930 . S
H56 C51 0.930 . S
N57 Cu46 1.985 . S
N57 C59 1.335 . S
N57 C60 1.390 . S
N58 C59 1.345 . S
N58 C61 1.336 . S
C59 N57 1.335 . S
C59 N58 1.345 . S
C59 H64 0.930 . S
C60 N57 1.390 . S
C60 C61 1.346 . S
C60 H65 0.930 . S
C61 N58 1.336 . S
C61 C60 1.346 . S
C61 H68 0.929 . S
C62 O52 1.282 1_655 S
C62 O63 1.216 . S
O63 C62 1.216 . S
H64 C59 0.930 . S
H65 C60 0.930 . S
O66 Cu46 1.959 . S
O66 C53 1.251 1_455 S
H67 C50 0.930 1_455 S
H68 C61 0.929 . S
Cu69 N70 1.999 1_554 S
Cu69 O75 1.974 . S
Cu69 N80 1.985 . S
Cu69 O89 1.959 . S
N70 Cu69 1.999 1_556 S
N70 C72 1.263 . S
N70 C74 1.389 . S
N71 C72 1.358 . S
N71 C73 1.400 . S
C72 N70 1.263 . S
C72 N71 1.358 . S
C72 H78 0.930 . S
C73 N71 1.400 . S
C73 C74 1.351 . S
C73 H90 0.930 . S
C74 N70 1.389 . S
C74 C73 1.351 . S
C74 H79 0.930 1_545 S
O75 Cu69 1.974 . S
O75 C85 1.282 . S
C76 O77 1.261 . S
C76 O89 1.251 . S
O77 C76 1.261 . S
H78 C72 0.930 . S
H79 C74 0.930 1_565 S
N80 Cu69 1.985 . S
N80 C82 1.335 1_545 S
N80 C83 1.390 . S
N81 C82 1.345 . S
N81 C84 1.314 1_565 S
C82 N80 1.335 1_565 S
C82 N81 1.345 . S
C82 H87 0.930 . S
C83 N80 1.390 . S
C83 C84 1.356 . S
C83 H88 0.930 . S
C84 N81 1.314 1_545 S
C84 C83 1.356 . S
C84 H91 0.941 . S
C85 O75 1.282 . S
C85 O86 1.216 . S
O86 C85 1.216 . S
H87 C82 0.930 . S
H88 C83 0.930 . S
O89 Cu69 1.959 . S
O89 C76 1.251 . S
H90 C73 0.930 . S
H91 C84 0.941 . S
Cu92 N93 1.999 . S
Cu92 O98 1.974 . S
Cu92 N103 1.985 . S
Cu92 O112 1.959 . S
N93 Cu92 1.999 . S
N93 C95 1.263 . S
N93 C97 1.389 . S
N94 C95 1.358 . S
N94 C96 1.400 . S
C95 N93 1.263 . S
C95 N94 1.358 . S
C95 H101 0.930 . S
C96 N94 1.400 . S
C96 C97 1.351 . S
C96 H113 0.930 . S
C97 N93 1.389 . S
C97 C96 1.351 . S
C97 H102 0.930 . S
O98 Cu92 1.974 . S
O98 C108 1.282 . S
C99 O100 1.261 . S
C99 O112 1.251 . S
O100 C99 1.261 . S
H101 C95 0.930 . S
H102 C97 0.930 . S
N103 Cu92 1.985 . S
N103 C105 1.335 . S
N103 C106 1.390 . S
N104 C105 1.345 . S
N104 C107 1.336 . S
C105 N103 1.335 . S
C105 N104 1.345 . S
C105 H110 0.930 . S
C106 N103 1.390 . S
C106 C107 1.346 . S
C106 H111 0.930 . S
C107 N104 1.336 . S
C107 C106 1.346 . S
C107 H114 0.929 . S
C108 O98 1.282 . S
C108 O109 1.216 . S
O109 C108 1.216 . S
H110 C105 0.930 . S
H111 C106 0.930 . S
O112 Cu92 1.959 . S
O112 C99 1.251 . S
H113 C96 0.930 . S
H114 C107 0.929 . S
Cu115 N116 1.999 . S
Cu115 O121 1.974 . S
Cu115 N126 1.985 . S
Cu115 O135 1.959 . S
N116 Cu115 1.999 . S
N116 C118 1.263 . S
N116 C120 1.389 . S
N117 C118 1.358 . S
N117 C119 1.400 . S
C118 N116 1.263 . S
C118 N117 1.358 . S
C118 H124 0.930 . S
C119 N117 1.400 . S
C119 C120 1.351 . S
C119 H136 0.930 . S
C120 N116 1.389 . S
C120 C119 1.351 . S
C120 H125 0.930 . S
O121 Cu115 1.974 . S
O121 C131 1.282 . S
C122 O123 1.261 . S
C122 O135 1.251 . S
O123 C122 1.261 . S
H124 C118 0.930 . S
H125 C120 0.930 . S
N126 Cu115 1.985 . S
N126 C128 1.335 . S
N126 C129 1.390 . S
N127 C128 1.345 . S
N127 C130 1.336 . S
C128 N126 1.335 . S
C128 N127 1.345 . S
C128 H133 0.930 . S
C129 N126 1.390 . S
C129 C130 1.346 . S
C129 H134 0.930 . S
C130 N127 1.336 . S
C130 C129 1.346 . S
C130 H137 0.929 . S
C131 O121 1.282 . S
C131 O132 1.216 . S
O132 C131 1.216 . S
H133 C128 0.930 . S
H134 C129 0.930 . S
O135 Cu115 1.959 . S
O135 C122 1.251 . S
H136 C119 0.930 . S
H137 C130 0.929 . S
C138 C139 1.349 . S
C138 C140 1.327 . S
C138 H163 0.950 . S
C139 C138 1.349 . S
C139 C155 1.349 . S
C140 C138 1.327 . S
C140 C159 1.429 . S
C140 H164 0.950 . S
C141 C158 1.574 . S
C141 C160 1.368 . S
C141 H165 0.949 . S
H142 C146 0.949 . S
C143 C144 1.349 . S
C143 C145 1.327 . S
C143 H166 0.950 . S
C144 C143 1.349 . S
C144 C156 1.349 . S
C145 C143 1.327 . S
C145 C161 1.429 . S
C145 H167 0.950 . S
C146 H142 0.949 . S
C146 C154 1.574 . S
C146 C162 1.368 . S
H147 C155 0.950 . S
H148 C153 0.950 . S
H149 C154 0.949 . S
H150 C156 0.950 . S
H151 C157 0.950 . S
H152 C158 0.949 . S
C153 H148 0.950 . S
C153 C155 1.327 . S
C153 C159 1.429 . S
C154 C146 1.574 . S
C154 H149 0.949 . S
C154 C160 1.368 . S
C155 C139 1.349 . S
C155 H147 0.950 . S
C155 C153 1.327 . S
C156 C144 1.349 . S
C156 H150 0.950 . S
C156 C157 1.327 . S
C157 H151 0.950 . S
C157 C156 1.327 . S
C157 C161 1.429 . S
C158 C141 1.574 . S
C158 H152 0.949 . S
C158 C162 1.368 . S
C159 C140 1.429 . S
C159 C153 1.429 . S
C159 C160 1.523 . S
C160 C141 1.368 . S
C160 C154 1.368 . S
C160 C159 1.523 . S
C161 C145 1.429 . S
C161 C157 1.429 . S
C161 C162 1.523 . S
C162 C146 1.368 . S
C162 C158 1.368 . S
C162 C161 1.523 . S
H163 C138 0.950 . S
H164 C140 0.950 . S
H165 C141 0.949 . S
H166 C143 0.950 . S
H167 C145 0.950 . S
C168 C169 1.349 . S
C168 C170 1.327 . S
C168 H193 0.950 . S
C169 C168 1.349 . S
C169 C185 1.349 . S
C170 C168 1.327 . S
C170 C189 1.429 . S
C170 H194 0.950 . S
C171 C188 1.574 . S
C171 C190 1.368 . S
C171 H195 0.949 . S
H172 C176 0.949 . S
C173 C174 1.349 . S
C173 C175 1.327 . S
C173 H196 0.950 . S
C174 C173 1.349 . S
C174 C186 1.349 . S
C175 C173 1.327 . S
C175 C191 1.429 . S
C175 H197 0.950 . S
C176 H172 0.949 . S
C176 C184 1.574 . S
C176 C192 1.368 . S
H177 C185 0.950 . S
H178 C183 0.950 . S
H179 C184 0.949 . S
H180 C186 0.950 . S
H181 C187 0.950 . S
H182 C188 0.949 . S
C183 H178 0.950 . S
C183 C185 1.327 . S
C183 C189 1.429 . S
C184 C176 1.574 . S
C184 H179 0.949 . S
C184 C190 1.368 . S
C185 C169 1.349 . S
C185 H177 0.950 . S
C185 C183 1.327 . S
C186 C174 1.349 . S
C186 H180 0.950 . S
C186 C187 1.327 . S
C187 H181 0.950 . S
C187 C186 1.327 . S
C187 C191 1.429 . S
C188 C171 1.574 . S
C188 H182 0.949 . S
C188 C192 1.368 . S
C189 C170 1.429 . S
C189 C183 1.429 . S
C189 C190 1.523 . S
C190 C171 1.368 . S
C190 C184 1.368 . S
C190 C189 1.523 . S
C191 C175 1.429 . S
C191 C187 1.429 . S
C191 C192 1.523 . S
C192 C176 1.368 . S
C192 C188 1.368 . S
C192 C191 1.523 . S
H193 C168 0.950 . S
H194 C170 0.950 . S
H195 C171 0.949 . S
H196 C173 0.950 . S
H197 C175 0.950 . S
C198 C199 1.349 . S
C198 C200 1.327 . S
C198 H223 0.950 . S
C199 C198 1.349 . S
C199 C215 1.349 . S
C200 C198 1.327 . S
C200 C219 1.429 . S
C200 H224 0.950 . S
C201 C218 1.574 . S
C201 C220 1.368 . S
C201 H225 0.949 . S
H202 C206 0.949 . S
C203 C204 1.349 . S
C203 C205 1.327 . S
C203 H226 0.950 . S
C204 C203 1.349 . S
C204 C216 1.349 . S
C205 C203 1.327 . S
C205 C221 1.429 . S
C205 H227 0.950 . S
C206 H202 0.949 . S
C206 C214 1.574 . S
C206 C222 1.368 . S
H207 C215 0.950 . S
H208 C213 0.950 . S
H209 C214 0.949 . S
H210 C216 0.950 . S
H211 C217 0.950 . S
H212 C218 0.949 . S
C213 H208 0.950 . S
C213 C215 1.327 . S
C213 C219 1.429 . S
C214 C206 1.574 . S
C214 H209 0.949 . S
C214 C220 1.368 . S
C215 C199 1.349 . S
C215 H207 0.950 . S
C215 C213 1.327 . S
C216 C204 1.349 . S
C216 H210 0.950 . S
C216 C217 1.327 . S
C217 H211 0.950 . S
C217 C216 1.327 . S
C217 C221 1.429 . S
C218 C201 1.574 . S
C218 H212 0.949 . S
C218 C222 1.368 . S
C219 C200 1.429 . S
C219 C213 1.429 . S
C219 C220 1.523 . S
C220 C201 1.368 . S
C220 C214 1.368 . S
C220 C219 1.523 . S
C221 C205 1.429 . S
C221 C217 1.429 . S
C221 C222 1.523 . S
C222 C206 1.368 . S
C222 C218 1.368 . S
C222 C221 1.523 . S
H223 C198 0.950 . S
H224 C200 0.950 . S
H225 C201 0.949 . S
H226 C203 0.950 . S
H227 C205 0.950 . S
C228 C229 1.349 . S
C228 C230 1.327 . S
C228 H253 0.950 . S
C229 C228 1.349 . S
C229 C245 1.349 . S
C230 C228 1.327 . S
C230 C249 1.429 . S
C230 H254 0.950 . S
C231 C248 1.574 . S
C231 C250 1.368 . S
C231 H255 0.949 . S
H232 C236 0.949 . S
C233 C234 1.349 . S
C233 C235 1.327 . S
C233 H256 0.950 . S
C234 C233 1.349 . S
C234 C246 1.349 . S
C235 C233 1.327 . S
C235 C251 1.429 . S
C235 H257 0.950 . S
C236 H232 0.949 . S
C236 C244 1.574 . S
C236 C252 1.368 . S
H237 C245 0.950 1_545 S
H238 C243 0.950 . S
H239 C244 0.949 . S
H240 C246 0.950 . S
H241 C247 0.950 . S
H242 C248 0.949 . S
C243 H238 0.950 . S
C243 C245 1.327 . S
C243 C249 1.429 . S
C244 C236 1.574 . S
C244 H239 0.949 . S
C244 C250 1.368 . S
C245 C229 1.349 . S
C245 H237 0.950 1_565 S
C245 C243 1.327 . S
C246 C234 1.349 . S
C246 H240 0.950 . S
C246 C247 1.327 . S
C247 H241 0.950 . S
C247 C246 1.327 . S
C247 C251 1.429 . S
C248 C231 1.574 . S
C248 H242 0.949 . S
C248 C252 1.368 . S
C249 C230 1.429 . S
C249 C243 1.429 . S
C249 C250 1.523 . S
C250 C231 1.368 . S
C250 C244 1.368 . S
C250 C249 1.523 . S
C251 C235 1.429 . S
C251 C247 1.429 . S
C251 C252 1.523 . S
C252 C236 1.368 . S
C252 C248 1.368 . S
C252 C251 1.523 . S
H253 C228 0.950 . S
H254 C230 0.950 . S
H255 C231 0.949 . S
H256 C233 0.950 . S
H257 C235 0.950 . S
C258 C259 1.349 . S
C258 C260 1.327 . S
C258 H283 0.950 . S
C259 C258 1.349 . S
C259 C275 1.349 . S
C260 C258 1.327 . S
C260 C279 1.429 . S
C260 H284 0.950 . S
C261 C278 1.574 . S
C261 C280 1.368 1_655 S
C261 H285 0.949 . S
H262 C266 0.949 . S
C263 C264 1.349 . S
C263 C265 1.327 . S
C263 H286 0.950 . S
C264 C263 1.349 . S
C264 C276 1.349 . S
C265 C263 1.327 . S
C265 C281 1.429 . S
C265 H287 0.950 . S
C266 H262 0.949 . S
C266 C274 1.574 . S
C266 C282 1.368 1_455 S
H267 C275 0.950 . S
H268 C273 0.950 . S
H269 C274 0.949 . S
H270 C276 0.950 . S
H271 C277 0.950 1_455 S
H272 C278 0.949 . S
C273 H268 0.950 . S
C273 C275 1.327 . S
C273 C279 1.429 . S
C274 C266 1.574 . S
C274 H269 0.949 . S
C274 C280 1.368 . S
C275 C259 1.349 . S
C275 H267 0.950 . S
C275 C273 1.327 . S
C276 C264 1.349 . S
C276 H270 0.950 . S
C276 C277 1.327 . S
C277 H271 0.950 1_655 S
C277 C276 1.327 . S
C277 C281 1.429 . S
C278 C261 1.574 . S
C278 H272 0.949 . S
C278 C282 1.368 . S
C279 C260 1.429 . S
C279 C273 1.429 . S
C279 C280 1.523 . S
C280 C261 1.368 1_455 S
C280 C274 1.368 . S
C280 C279 1.523 . S
C281 C265 1.429 . S
C281 C277 1.429 . S
C281 C282 1.523 . S
C282 C266 1.368 1_655 S
C282 C278 1.368 . S
C282 C281 1.523 . S
H283 C258 0.950 . S
H284 C260 0.950 . S
H285 C261 0.949 . S
H286 C263 0.950 . S
H287 C265 0.950 . S
C288 C289 1.349 1_545 S
C288 C290 1.327 1_545 S
C288 H313 0.950 . S
C289 C288 1.349 1_565 S
C289 C305 1.349 . S
C290 C288 1.327 1_565 S
C290 C309 1.429 . S
C290 H314 0.950 1_565 S
C291 C308 1.574 . S
C291 C310 1.368 . S
C291 H315 0.949 . S
H292 C296 0.949 . S
C293 C294 1.349 . S
C293 C295 1.327 . S
C293 H316 0.950 . S
C294 C293 1.349 . S
C294 C306 1.349 . S
C295 C293 1.327 . S
C295 C311 1.429 . S
C295 H317 0.950 . S
C296 H292 0.949 . S
C296 C304 1.574 . S
C296 C312 1.368 . S
H297 C305 0.950 . S
H298 C303 0.950 . S
H299 C304 0.949 . S
H300 C306 0.950 . S
H301 C307 0.950 . S
H302 C308 0.949 . S
C303 H298 0.950 . S
C303 C305 1.327 . S
C303 C309 1.429 . S
C304 C296 1.574 . S
C304 H299 0.949 . S
C304 C310 1.368 . S
C305 C289 1.349 . S
C305 H297 0.950 . S
C305 C303 1.327 . S
C306 C294 1.349 . S
C306 H300 0.950 . S
C306 C307 1.327 . S
C307 H301 0.950 . S
C307 C306 1.327 . S
C307 C311 1.429 . S
C308 C291 1.574 . S
C308 H302 0.949 . S
C308 C312 1.368 . S
C309 C290 1.429 . S
C309 C303 1.429 . S
C309 C310 1.523 . S
C310 C291 1.368 . S
C310 C304 1.368 . S
C310 C309 1.523 . S
C311 C295 1.429 . S
C311 C307 1.429 . S
C311 C312 1.523 . S
C312 C296 1.368 . S
C312 C308 1.368 . S
C312 C311 1.523 . S
H313 C288 0.950 . S
H314 C290 0.950 1_545 S
H315 C291 0.949 . S
H316 C293 0.950 . S
H317 C295 0.950 . S
C318 C319 1.349 1_565 S
C318 C320 1.322 1_565 S
C318 H343 0.950 1_554 S
C319 C318 1.349 1_545 S
C319 C335 1.349 . S
C320 C318 1.322 1_545 S
C320 C339 1.435 . S
C320 H344 0.949 1_544 S
C321 C338 1.574 . S
C321 C340 1.368 . S
C321 H345 0.949 . S
H322 C326 0.949 1_566 S
C323 C324 1.349 . S
C323 C325 1.327 1_655 S
C323 H346 0.950 . S
C324 C323 1.349 . S
C324 C336 1.349 . S
C325 C323 1.327 1_455 S
C325 C341 1.429 . S
C325 H347 0.950 . S
C326 H322 0.949 1_544 S
C326 C334 1.574 . S
C326 C342 1.368 . S
H327 C335 0.950 . S
H328 C333 0.950 . S
H329 C334 0.949 1_566 S
H330 C336 0.950 1_556 S
H331 C337 0.950 1_566 S
H332 C338 0.949 . S
C333 H328 0.950 . S
C333 C335 1.327 . S
C333 C339 1.429 . S
C334 C326 1.574 . S
C334 H329 0.949 1_544 S
C334 C340 1.368 . S
C335 C319 1.349 . S
C335 H327 0.950 . S
C335 C333 1.327 . S
C336 C324 1.349 . S
C336 H330 0.950 1_554 S
C336 C337 1.327 . S
C337 H331 0.950 1_544 S
C337 C336 1.327 . S
C337 C341 1.429 1_655 S
C338 C321 1.574 . S
C338 H332 0.949 . S
C338 C342 1.368 . S
C339 C320 1.435 . S
C339 C333 1.429 . S
C339 C340 1.523 . S
C340 C321 1.368 . S
C340 C334 1.368 . S
C340 C339 1.523 . S
C341 C325 1.429 . S
C341 C337 1.429 1_455 S
C341 C342 1.523 . S
C342 C326 1.368 . S
C342 C338 1.368 . S
C342 C341 1.523 . S
H343 C318 0.950 1_556 S
H344 C320 0.949 1_566 S
H345 C321 0.949 . S
H346 C323 0.950 . S
H347 C325 0.950 . S
C348 C349 1.349 . S
C348 C350 1.327 . S
C348 H373 0.950 . S
C349 C348 1.349 . S
C349 C365 1.349 . S
C350 C348 1.327 . S
C350 C369 1.429 1_655 S
C350 H374 0.950 1_655 S
C351 C368 1.574 . S
C351 C370 1.368 1_545 S
C351 H375 0.949 . S
H352 C356 0.949 . S
C353 C354 1.349 . S
C353 C355 1.327 . S
C353 H376 0.950 . S
C354 C353 1.349 . S
C354 C366 1.349 . S
C355 C353 1.327 . S
C355 C371 1.429 . S
C355 H377 0.950 . S
C356 H352 0.949 . S
C356 C364 1.574 1_545 S
C356 C372 1.368 . S
H357 C365 0.950 . S
H358 C363 0.950 . S
H359 C364 0.949 . S
H360 C366 0.950 . S
H361 C367 0.950 . S
H362 C368 0.949 . S
C363 H358 0.950 . S
C363 C365 1.327 . S
C363 C369 1.429 1_655 S
C364 C356 1.574 1_565 S
C364 H359 0.949 . S
C364 C370 1.368 . S
C365 C349 1.349 . S
C365 H357 0.950 . S
C365 C363 1.327 . S
C366 C354 1.349 . S
C366 H360 0.950 . S
C366 C367 1.327 . S
C367 H361 0.950 . S
C367 C366 1.327 . S
C367 C371 1.429 . S
C368 C351 1.574 . S
C368 H362 0.949 . S
C368 C372 1.368 . S
C369 C350 1.429 1_455 S
C369 C363 1.429 1_455 S
C369 C370 1.523 . S
C370 C351 1.368 1_565 S
C370 C364 1.368 . S
C370 C369 1.523 . S
C371 C355 1.429 . S
C371 C367 1.429 . S
C371 C372 1.523 . S
C372 C356 1.368 . S
C372 C368 1.368 . S
C372 C371 1.523 . S
H373 C348 0.950 . S
H374 C350 0.950 1_455 S
H375 C351 0.949 . S
H376 C353 0.950 . S
H377 C355 0.950 . S
C378 C379 1.349 1_655 S
C378 C380 1.327 1_655 S
C378 H403 0.950 . S
C379 C378 1.349 1_455 S
C379 C395 1.349 . S
C380 C378 1.327 1_455 S
C380 C399 1.429 . S
C380 H404 0.950 . S
C381 C398 1.574 . S
C381 C400 1.368 . S
C381 H405 0.949 . S
H382 C386 0.949 . S
C383 C384 1.349 . S
C383 C385 1.347 . S
C383 H406 0.950 . S
C384 C383 1.349 . S
C384 C396 1.349 . S
C385 C383 1.347 . S
C385 C401 1.423 . S
C385 H407 0.935 1_565 S
C386 H382 0.949 . S
C386 C394 1.574 1_565 S
C386 C402 1.368 1_565 S
H387 C395 0.950 . S
H388 C393 0.950 . S
H389 C394 0.949 . S
H390 C396 0.950 . S
H391 C397 0.950 . S
H392 C398 0.949 . S
C393 H388 0.950 . S
C393 C395 1.327 . S
C393 C399 1.429 . S
C394 C386 1.574 1_545 S
C394 H389 0.949 . S
C394 C400 1.368 . S
C395 C379 1.349 . S
C395 H387 0.950 . S
C395 C393 1.327 . S
C396 C384 1.349 . S
C396 H390 0.950 . S
C396 C397 1.327 . S
C397 H391 0.950 . S
C397 C396 1.327 . S
C397 C401 1.429 . S
C398 C381 1.574 . S
C398 H392 0.949 . S
C398 C402 1.368 . S
C399 C380 1.429 . S
C399 C393 1.429 . S
C399 C400 1.523 . S
C400 C381 1.368 . S
C400 C394 1.368 . S
C400 C399 1.523 . S
C401 C385 1.423 . S
C401 C397 1.429 . S
C401 C402 1.523 1_565 S
C402 C386 1.368 1_545 S
C402 C398 1.368 . S
C402 C401 1.523 1_545 S
H403 C378 0.950 . S
H404 C380 0.950 . S
H405 C381 0.949 . S
H406 C383 0.950 . S
H407 C385 0.935 1_545 S
C408 C409 1.349 . S
C408 C410 1.327 . S
C408 H433 0.950 . S
C409 C408 1.349 . S
C409 C425 1.349 1_554 S
C410 C408 1.327 . S
C410 C429 1.429 . S
C410 H434 0.950 . S
C411 C428 1.574 . S
C411 C430 1.368 1_556 S
C411 H435 0.949 1_545 S
H412 C416 0.949 . S
C413 C414 1.349 1_566 S
C413 C415 1.327 . S
C413 H436 0.950 . S
C414 C413 1.349 1_544 S
C414 C426 1.349 . S
C415 C413 1.327 . S
C415 C431 1.429 1_566 S
C415 H437 0.950 . S
C416 H412 0.949 . S
C416 C424 1.574 . S
C416 C432 1.368 . S
H417 C425 0.950 . S
H418 C423 0.950 1_565 S
H419 C424 0.949 . S
H420 C426 0.950 . S
H421 C427 0.950 . S
H422 C428 0.949 1_565 S
C423 H418 0.950 1_545 S
C423 C425 1.327 . S
C423 C429 1.429 1_556 S
C424 C416 1.574 . S
C424 H419 0.949 . S
C424 C430 1.368 . S
C425 C409 1.349 1_556 S
C425 H417 0.950 . S
C425 C423 1.327 . S
C426 C414 1.349 . S
C426 H420 0.950 . S
C426 C427 1.327 . S
C427 H421 0.950 . S
C427 C426 1.327 . S
C427 C431 1.429 . S
C428 C411 1.574 . S
C428 H422 0.949 1_545 S
C428 C432 1.368 1_556 S
C429 C410 1.429 . S
C429 C423 1.429 1_554 S
C429 C430 1.523 . S
C430 C411 1.368 1_554 S
C430 C424 1.368 . S
C430 C429 1.523 . S
C431 C415 1.429 1_544 S
C431 C427 1.429 . S
C431 C432 1.523 . S
C432 C416 1.368 . S
C432 C428 1.368 1_554 S
C432 C431 1.523 . S
H433 C408 0.950 . S
H434 C410 0.950 . S
H435 C411 0.949 1_565 S
H436 C413 0.950 . S
H437 C415 0.950 . S
C438 C439 1.349 . S
C438 C440 1.327 . S
C438 H463 0.950 . S
C439 C438 1.349 . S
C439 C455 1.349 . S
C440 C438 1.327 . S
C440 C459 1.429 . S
C440 H464 0.950 . S
C441 C458 1.574 . S
C441 C460 1.368 . S
C441 H465 0.949 . S
H442 C446 0.949 . S
C443 C444 1.349 . S
C443 C445 1.327 . S
C443 H466 0.950 . S
C444 C443 1.349 . S
C444 C456 1.349 . S
C445 C443 1.327 . S
C445 C461 1.429 . S
C445 H467 0.950 . S
C446 H442 0.949 . S
C446 C454 1.574 . S
C446 C462 1.368 . S
H447 C455 0.950 . S
H448 C453 0.950 . S
H449 C454 0.949 . S
H450 C456 0.950 . S
H451 C457 0.950 . S
H452 C458 0.949 . S
C453 H448 0.950 . S
C453 C455 1.327 . S
C453 C459 1.429 . S
C454 C446 1.574 . S
C454 H449 0.949 . S
C454 C460 1.368 . S
C455 C439 1.349 . S
C455 H447 0.950 . S
C455 C453 1.327 . S
C456 C444 1.349 . S
C456 H450 0.950 . S
C456 C457 1.327 . S
C457 H451 0.950 . S
C457 C456 1.327 . S
C457 C461 1.429 . S
C458 C441 1.574 . S
C458 H452 0.949 . S
C458 C462 1.368 . S
C459 C440 1.429 . S
C459 C453 1.429 . S
C459 C460 1.523 . S
C460 C441 1.368 . S
C460 C454 1.368 . S
C460 C459 1.523 . S
C461 C445 1.429 . S
C461 C457 1.429 . S
C461 C462 1.523 . S
C462 C446 1.368 . S
C462 C458 1.368 . S
C462 C461 1.523 . S
H463 C438 0.950 . S
H464 C440 0.950 . S
H465 C441 0.949 . S
H466 C443 0.950 . S
H467 C445 0.950 . S
C468 C469 1.349 . S
C468 C470 1.327 . S
C468 H493 0.950 . S
C469 C468 1.349 . S
C469 C485 1.349 . S
C470 C468 1.327 . S
C470 C489 1.429 . S
C470 H494 0.950 . S
C471 C488 1.574 . S
C471 C490 1.368 . S
C471 H495 0.949 . S
H472 C476 0.949 . S
C473 C474 1.349 . S
C473 C475 1.327 . S
C473 H496 0.950 . S
C474 C473 1.349 . S
C474 C486 1.349 1_455 S
C475 C473 1.327 . S
C475 C491 1.429 . S
C475 H497 0.950 . S
C476 H472 0.949 . S
C476 C484 1.574 . S
C476 C492 1.368 . S
H477 C485 0.950 . S
H478 C483 0.950 . S
H479 C484 0.949 . S
H480 C486 0.950 . S
H481 C487 0.950 . S
H482 C488 0.949 . S
C483 H478 0.950 . S
C483 C485 1.327 . S
C483 C489 1.429 . S
C484 C476 1.574 . S
C484 H479 0.949 . S
C484 C490 1.368 . S
C485 C469 1.349 . S
C485 H477 0.950 . S
C485 C483 1.327 . S
C486 C474 1.349 1_655 S
C486 H480 0.950 . S
C486 C487 1.327 1_655 S
C487 H481 0.950 . S
C487 C486 1.327 1_455 S
C487 C491 1.429 . S
C488 C471 1.574 . S
C488 H482 0.949 . S
C488 C492 1.368 . S
C489 C470 1.429 . S
C489 C483 1.429 . S
C489 C490 1.523 . S
C490 C471 1.368 . S
C490 C484 1.368 . S
C490 C489 1.523 . S
C491 C475 1.429 . S
C491 C487 1.429 . S
C491 C492 1.523 . S
C492 C476 1.368 . S
C492 C488 1.368 . S
C492 C491 1.523 . S
H493 C468 0.950 . S
H494 C470 0.950 . S
H495 C471 0.949 . S
H496 C473 0.950 . S
H497 C475 0.950 . S
C139 N12 1.741 . S
C144 N25 1.646 . S
C169 N35 1.709 . S
C174 N58 1.699 . S
C199 N71 1.737 . S
C204 N48 1.713 . S
C229 N81 1.741 . S
C234 N94 1.646 . S
C259 N127 1.702 . S
C264 N104 1.709 . S
C289 N2 1.737 1_565 S
C294 N117 1.711 . S
C319 C7 1.778 . S
C324 C76 1.778 . S
C349 C99 0.350 . S
C354 C30 0.350 . S
C379 C53 1.421 1_455 S
C384 C122 1.418 . S
C409 C85 1.836 . S
C414 C16 1.836 . S
C439 C108 1.159 . S
C444 C39 1.159 . S
C469 C131 2.027 . S
C474 C62 2.029 1_455 S
