# Generated by pormake.
# Topology qtz, (4)-cn, num edge types: 1
# Building blocks:
#     Node 0, Type 0, BuildingBlock: UXUYUI_clean_sbu_0, # of connection points: 4
#     Node 1, Type 0, BuildingBlock: UXUYUI_clean_sbu_0, # of connection points: 4
#     Node 2, Type 0, BuildingBlock: UXUYUI_clean_sbu_0, # of connection points: 4
#     Edge 3, Type (0, 0), BuildingBlock: FUNLAD_clean_linker_1, # of connection points: 2
#     Edge 4, Type (0, 0), BuildingBlock: FUNLAD_clean_linker_1, # of connection points: 2
#     Edge 5, Type (0, 0), BuildingBlock: FUNLAD_clean_linker_1, # of connection points: 2
#     Edge 6, Type (0, 0), BuildingBlock: FUNLAD_clean_linker_1, # of connection points: 2
#     Edge 7, Type (0, 0), BuildingBlock: FUNLAD_clean_linker_1, # of connection points: 2
#     Edge 8, Type (0, 0), BuildingBlock: FUNLAD_clean_linker_1, # of connection points: 2
# Relax obj value: 0.181
# Max RMSD: 0.212
# Mean RMSD: 0.212
data_MOF--net-qtz--node1-UXUYUI_clean_sbu_0--edge1-FUNLAD_clean_linker_1
_symmetry_space_group_name_H-M    P1
_symmetry_Int_Tables_number       1
_symmetry_cell_setting            triclinic
loop_
_symmetry_equiv_pos_as_xyz
'x, y, z'
_cell_length_a     35.191545
_cell_length_b     35.218911
_cell_length_c     41.958759
_cell_angle_alpha  89.995002
_cell_angle_beta   89.916596
_cell_angle_gamma 119.97715
loop_
_atom_site_label
_atom_site_type_symbol
_atom_site_fract_x
_atom_site_fract_y
_atom_site_fract_z
_atom_type_partial_charge
Li0 Li 0.02586 0.48601 0.14346 0.0
Li1 Li 0.0284 0.5327 0.18524 0.0
Li2 Li 0.96925 0.458 0.18287 0.0
Li3 Li 0.97247 0.51423 0.14461 0.0
C4 C 0.06307 0.46658 0.1884 0.0
N5 N 0.1265 0.44241 0.18382 0.0
C6 C 0.1071 0.49727 0.19419 0.0
C7 C 0.05134 0.42357 0.18034 0.0
C8 C 0.13866 0.4844 0.19178 0.0
C9 C 0.08388 0.41202 0.1781 0.0
C10 C 0.06712 0.59084 0.13708 0.0
C11 C 0.08547 0.66492 0.12443 0.0
N12 N 0.12778 0.67925 0.13294 0.0
C13 C 0.11083 0.60631 0.14561 0.0
C14 C 0.05431 0.62035 0.12635 0.0
C15 C 0.14097 0.65112 0.14341 0.0
C16 C 0.03831 0.43821 0.09382 0.0
N17 N 0.05918 0.47229 0.11444 0.0
C18 C 0.12882 0.49033 0.09233 0.0
C19 C 0.10351 0.49831 0.11393 0.0
C20 C 0.10823 0.45528 0.07075 0.0
C21 C 0.06236 0.42923 0.07155 0.0
H22 H 0.00295 0.41847 0.09428 0.0
H23 H 0.1193 0.52565 0.13006 0.0
C24 C 0.07622 0.56257 0.2417 0.0
N25 N 0.06385 0.57687 0.21576 0.0
C26 C 0.1014 0.5918 0.2656 0.0
C27 C 0.09949 0.64994 0.23637 0.0
C28 C 0.07386 0.6194 0.21319 0.0
C29 C 0.11412 0.63622 0.26276 0.0
H30 H 0.06624 0.52825 0.24392 0.0
H31 H 0.06153 0.62965 0.19342 0.0
C32 C 0.92372 0.41411 0.13322 0.0
N33 N 0.84673 0.33439 0.13059 0.0
C34 C 0.88378 0.41258 0.12788 0.0
C35 C 0.92455 0.37509 0.13696 0.0
C36 C 0.84521 0.37195 0.12668 0.0
C37 C 0.88526 0.33513 0.13564 0.0
C38 C 0.96394 0.53237 0.21763 0.0
C39 C 0.9631 0.51479 0.24766 0.0
C40 C 0.96591 0.5729 0.21524 0.0
C41 C 0.96446 0.53826 0.27489 0.0
C42 C 0.96721 0.59533 0.24304 0.0
N43 N 0.96649 0.57771 0.27204 0.0
C44 C 0.94242 0.38576 0.22504 0.0
C45 C 0.8875 0.40269 0.21061 0.0
C46 C 0.91334 0.35273 0.24559 0.0
N47 N 0.92906 0.40986 0.20814 0.0
C48 C 0.85735 0.37004 0.2308 0.0
C49 C 0.87011 0.34478 0.24893 0.0
H50 H 0.97597 0.3929 0.22324 0.0
H51 H 0.87809 0.42304 0.19736 0.0
C52 C 0.94474 0.53536 0.08805 0.0
N53 N 0.93866 0.53145 0.12012 0.0
C54 C 0.91823 0.54508 0.06898 0.0
C55 C 0.88038 0.5474 0.11646 0.0
C56 C 0.90746 0.5374 0.13458 0.0
C57 C 0.88499 0.55046 0.0832 0.0
H58 H 0.96989 0.53039 0.07731 0.0
H59 H 0.90294 0.53338 0.16009 0.0
O60 O 0.0317 0.47866 0.19023 0.0
O61 O 0.0371 0.54704 0.13872 0.0
O62 O 0.96173 0.45361 0.13515 0.0
O63 O 0.96383 0.51045 0.19072 0.0
H64 H 0.11699 0.53086 0.19997 0.0
H65 H 0.01755 0.39948 0.1755 0.0
H66 H 0.17285 0.50787 0.19604 0.0
H67 H 0.07527 0.37891 0.17172 0.0
H68 H 0.07599 0.68812 0.11622 0.0
H69 H 0.12119 0.58419 0.1546 0.0
H70 H 0.02066 0.60904 0.11966 0.0
H71 H 0.1748 0.66357 0.15019 0.0
H72 H 0.1639 0.51245 0.09196 0.0
H73 H 0.04529 0.40237 0.05497 0.0
H74 H 0.11137 0.5799 0.28592 0.0
H75 H 0.10696 0.68356 0.23387 0.0
H76 H 0.88247 0.4424 0.12498 0.0
H77 H 0.95515 0.37567 0.14111 0.0
H78 H 0.81404 0.37028 0.12272 0.0
H79 H 0.8854 0.3047 0.1387 0.0
H80 H 0.96195 0.48363 0.24991 0.0
H81 H 0.9672 0.58722 0.19215 0.0
H82 H 0.96406 0.52518 0.2983 0.0
H83 H 0.96904 0.62687 0.24157 0.0
H84 H 0.92539 0.33471 0.25893 0.0
H85 H 0.82451 0.3652 0.23271 0.0
H86 H 0.92386 0.54831 0.04352 0.0
H87 H 0.85518 0.55139 0.12824 0.0
Li88 Li 0.54138 0.02913 0.4803 0.0
Li89 Li 0.4869 0.02828 0.51721 0.0
Li90 Li 0.50936 0.97088 0.51909 0.0
Li91 Li 0.46202 0.97062 0.47619 0.0
C92 C 0.58673 0.06829 0.53299 0.0
N93 N 0.67114 0.1364 0.54298 0.0
C94 C 0.59403 0.10982 0.54136 0.0
C95 C 0.62231 0.06125 0.53017 0.0
C96 C 0.63696 0.14387 0.5462 0.0
C97 C 0.66474 0.09614 0.53516 0.0
C98 C 0.47233 0.06031 0.45972 0.0
C99 C 0.4101 0.06913 0.44788 0.0
N100 N 0.43781 0.11116 0.43863 0.0
C101 C 0.50016 0.1034 0.44965 0.0
C102 C 0.42692 0.04285 0.45845 0.0
C103 C 0.48209 0.12866 0.43925 0.0
C104 C 0.60629 0.04617 0.43436 0.0
N105 N 0.59226 0.06561 0.45564 0.0
C106 C 0.64845 0.13668 0.43901 0.0
C107 C 0.61263 0.10994 0.4584 0.0
C108 C 0.66304 0.11747 0.41622 0.0
C109 C 0.64198 0.07162 0.41449 0.0
H110 H 0.58925 0.01088 0.43234 0.0
H111 H 0.60071 0.12463 0.47537 0.0
C112 C 0.44773 0.04313 0.57018 0.0
N113 N 0.47028 0.06209 0.54296 0.0
C114 C 0.43546 0.06631 0.5907 0.0
C115 C 0.47057 0.12853 0.55514 0.0
C116 C 0.48185 0.10397 0.53517 0.0
C117 C 0.44746 0.10976 0.58355 0.0
H118 H 0.4397 0.01008 0.57617 0.0
H119 H 0.50066 0.11872 0.51384 0.0
C120 C 0.52577 0.93273 0.47006 0.0
N121 N 0.54609 0.86653 0.46629 0.0
C122 C 0.4946 0.89121 0.45905 0.0
C123 C 0.56748 0.94075 0.4787 0.0
C124 C 0.50545 0.85814 0.45742 0.0
C125 C 0.57706 0.90681 0.47676 0.0
C126 C 0.40619 0.9386 0.52963 0.0
C127 C 0.38951 0.89618 0.54169 0.0
C128 C 0.37807 0.95548 0.52538 0.0
C129 C 0.34476 0.87098 0.54853 0.0
C130 C 0.33354 0.92929 0.53253 0.0
N131 N 0.31792 0.8879 0.54381 0.0
C132 C 0.5479 0.95297 0.57159 0.0
C133 C 0.49576 0.8901 0.54339 0.0
C134 C 0.5538 0.92674 0.5937 0.0
N135 N 0.51922 0.93431 0.5471 0.0
C136 C 0.50079 0.86264 0.56481 0.0
C137 C 0.53019 0.88099 0.59044 0.0
H138 H 0.56552 0.98818 0.57435 0.0
H139 H 0.47232 0.87607 0.52421 0.0
C140 C 0.41509 0.95229 0.41872 0.0
N141 N 0.4162 0.93511 0.44747 0.0
C142 C 0.38285 0.92688 0.39649 0.0
C143 C 0.35402 0.86628 0.4336 0.0
C144 C 0.38677 0.89291 0.45512 0.0
C145 C 0.35162 0.88335 0.40381 0.0
H146 H 0.43961 0.98562 0.41292 0.0
H147 H 0.38949 0.87943 0.47753 0.0
O148 O 0.54495 0.03464 0.5279 0.0
O149 O 0.48954 0.03513 0.46997 0.0
O150 O 0.51559 0.96541 0.47213 0.0
O151 O 0.44997 0.96368 0.52274 0.0
H152 H 0.5669 0.1158 0.5439 0.0
H153 H 0.61722 0.02922 0.52416 0.0
H154 H 0.6431 0.17624 0.55249 0.0
H155 H 0.69259 0.0912 0.53287 0.0
H156 H 0.37501 0.05602 0.44687 0.0
H157 H 0.53534 0.11734 0.45005 0.0
H158 H 0.40482 0.00921 0.46511 0.0
H159 H 0.50328 0.16216 0.43165 0.0
H160 H 0.66425 0.17182 0.44202 0.0
H161 H 0.65232 0.05558 0.39734 0.0
H162 H 0.41773 0.0508 0.61239 0.0
H163 H 0.47984 0.16166 0.54828 0.0
H164 H 0.46233 0.88451 0.45196 0.0
H165 H 0.59215 0.97279 0.48687 0.0
H166 H 0.48156 0.82578 0.44912 0.0
H167 H 0.60913 0.91251 0.48357 0.0
H168 H 0.41079 0.88272 0.54555 0.0
H169 H 0.39055 0.98865 0.51711 0.0
H170 H 0.33139 0.83799 0.55763 0.0
H171 H 0.31143 0.94196 0.52927 0.0
H172 H 0.57628 0.94204 0.61338 0.0
H173 H 0.4806 0.82756 0.56183 0.0
H174 H 0.38257 0.94104 0.37362 0.0
H175 H 0.33204 0.8325 0.44011 0.0
Li176 Li 0.48918 0.45574 0.81206 0.0
Li177 Li 0.54105 0.50663 0.85097 0.0
Li178 Li 0.46062 0.48332 0.85221 0.0
Li179 Li 0.50884 0.53434 0.81129 0.0
C180 C 0.48081 0.40543 0.86098 0.0
N181 N 0.46414 0.32005 0.86329 0.0
C182 C 0.51474 0.39686 0.86749 0.0
C183 C 0.4383 0.37059 0.85605 0.0
C184 C 0.50567 0.35346 0.86846 0.0
C185 C 0.43057 0.32765 0.85718 0.0
C186 C 0.58891 0.53287 0.79244 0.0
C187 C 0.65453 0.60276 0.78445 0.0
N188 N 0.67325 0.58234 0.76891 0.0
C189 C 0.60861 0.51266 0.77601 0.0
C190 C 0.61189 0.57834 0.7964 0.0
C191 C 0.65135 0.53819 0.76446 0.0
C192 C 0.44315 0.38841 0.7664 0.0
N193 N 0.47882 0.4078 0.78574 0.0
C194 C 0.50549 0.3623 0.7652 0.0
C195 C 0.50964 0.39536 0.7856 0.0
C196 C 0.46929 0.3418 0.7447 0.0
C197 C 0.43763 0.35508 0.74555 0.0
H198 H 0.41957 0.39954 0.7666 0.0
H199 H 0.53791 0.41172 0.80101 0.0
C200 C 0.59354 0.53463 0.90616 0.0
N201 N 0.59092 0.51945 0.87601 0.0
C202 C 0.62867 0.54218 0.92579 0.0
C203 C 0.65745 0.5179 0.88299 0.0
C204 C 0.6218 0.51083 0.86425 0.0
C205 C 0.66132 0.53376 0.91419 0.0
H206 H 0.56789 0.54018 0.91514 0.0
H207 H 0.61818 0.49732 0.84063 0.0
C208 C 0.40856 0.47279 0.80244 0.0
N209 N 0.3235 0.45676 0.79757 0.0
C210 C 0.40059 0.50625 0.79303 0.0
C211 C 0.37327 0.43104 0.80898 0.0
C212 C 0.35734 0.49752 0.79079 0.0
C213 C 0.33051 0.42364 0.80651 0.0
C214 C 0.53035 0.58459 0.8696 0.0
C215 C 0.50303 0.59959 0.88138 0.0
C216 C 0.57584 0.6123 0.87036 0.0
C217 C 0.5216 0.6424 0.89294 0.0
C218 C 0.59317 0.65487 0.88213 0.0
N219 N 0.56591 0.66895 0.89304 0.0
C220 C 0.40111 0.43919 0.90263 0.0
C221 C 0.39175 0.49395 0.87708 0.0
C222 C 0.36744 0.43081 0.92414 0.0
N223 N 0.41258 0.4704 0.87975 0.0
C224 C 0.35785 0.48657 0.89795 0.0
C225 C 0.34528 0.45456 0.92195 0.0
H226 H 0.41866 0.42139 0.90458 0.0
H227 H 0.4021 0.51922 0.85914 0.0
C228 C 0.52966 0.57746 0.75292 0.0
N229 N 0.51942 0.58132 0.78354 0.0
C230 C 0.53627 0.60934 0.73041 0.0
C231 C 0.52171 0.64871 0.77133 0.0
C232 C 0.51542 0.61604 0.79308 0.0
C233 C 0.53166 0.6452 0.73934 0.0
H234 H 0.53225 0.54927 0.74594 0.0
H235 H 0.50663 0.61812 0.81736 0.0
O236 O 0.48919 0.44772 0.85936 0.0
O237 O 0.54701 0.50824 0.80388 0.0
O238 O 0.45069 0.48081 0.80499 0.0
O239 O 0.51261 0.54257 0.85843 0.0
H240 H 0.54778 0.42341 0.87151 0.0
H241 H 0.41163 0.37665 0.85124 0.0
H242 H 0.53167 0.34634 0.87328 0.0
H243 H 0.39788 0.30038 0.85321 0.0
H244 H 0.67265 0.63798 0.78741 0.0
H245 H 0.59119 0.4776 0.77231 0.0
H246 H 0.59679 0.59475 0.8081 0.0
H247 H 0.66706 0.52291 0.75189 0.0
H248 H 0.53072 0.35323 0.76514 0.0
H249 H 0.40968 0.34125 0.72973 0.0
H250 H 0.62911 0.55322 0.94987 0.0
H251 H 0.68148 0.51036 0.8733 0.0
H252 H 0.42746 0.53868 0.78771 0.0
H253 H 0.37884 0.40472 0.81607 0.0
H254 H 0.35069 0.52316 0.78372 0.0
H255 H 0.3029 0.39157 0.81171 0.0
H256 H 0.46783 0.57858 0.88142 0.0
H257 H 0.59768 0.60101 0.86234 0.0
H258 H 0.50078 0.65449 0.90188 0.0
H259 H 0.6283 0.67664 0.88275 0.0
H260 H 0.35914 0.40633 0.94256 0.0
H261 H 0.34306 0.50697 0.89584 0.0
H262 H 0.54404 0.60551 0.70605 0.0
H263 H 0.5188 0.67617 0.77973 0.0
H264 H 0.31344 0.43372 0.96921 0.0
C265 C 0.31188 0.44764 0.94643 0.0
H266 H 0.27767 0.47214 0.91971 0.0
H267 H 0.14381 0.37543 0.04266 0.0
H268 H 0.1305 0.30702 0.01894 0.0
H269 H 0.17227 0.30691 0.97169 0.0
H270 H 0.22803 0.37523 0.94813 0.0
C271 C 0.28076 0.45866 0.94217 0.0
C272 C 0.25313 0.45802 0.96921 0.0
C273 C 0.21984 0.4178 0.98209 0.0
C274 C 0.19472 0.41789 0.00867 0.0
C275 C 0.1629 0.37728 0.02189 0.0
C276 C 0.15509 0.33777 0.0086 0.0
C277 C 0.1787 0.3377 0.98205 0.0
C278 C 0.21073 0.37715 0.96885 0.0
H279 H 0.11675 0.43233 0.02357 0.0
C280 C 0.1334 0.44745 0.04575 0.0
H281 H 0.1932 0.47369 0.07111 0.0
H282 H 0.31453 0.54086 0.95017 0.0
H283 H 0.32655 0.60922 0.97298 0.0
H284 H 0.28159 0.60943 0.01806 0.0
H285 H 0.22451 0.54132 0.0407 0.0
C286 C 0.17587 0.45917 0.04908 0.0
C287 C 0.20217 0.45822 0.02166 0.0
C288 C 0.2352 0.49841 0.00856 0.0
C289 C 0.2607 0.4983 0.98231 0.0
C290 C 0.29382 0.53896 0.96991 0.0
C291 C 0.30114 0.57849 0.98279 0.0
C292 C 0.27587 0.57861 0.00819 0.0
C293 C 0.24324 0.5392 0.021 0.0
H294 H 0.806 0.31034 0.27349 0.0
C295 C 0.83776 0.31223 0.27171 0.0
H296 H 0.87652 0.28699 0.291 0.0
H297 H 0.77407 0.23608 0.42214 0.0
H298 H 0.84556 0.29527 0.43819 0.0
H299 H 0.90244 0.33814 0.39809 0.0
H300 H 0.88831 0.32201 0.34174 0.0
C301 C 0.8453 0.28604 0.29086 0.0
C302 C 0.81209 0.25782 0.31499 0.0
C303 C 0.82104 0.26766 0.34783 0.0
C304 C 0.78814 0.24327 0.37093 0.0
C305 C 0.79782 0.25381 0.40359 0.0
C306 C 0.83872 0.28766 0.41313 0.0
C307 C 0.87075 0.31178 0.39055 0.0
C308 C 0.8622 0.30212 0.35826 0.0
H309 H 0.715 0.1277 0.38172 0.0
C310 C 0.69938 0.1438 0.39362 0.0
H311 H 0.69647 0.2025 0.39591 0.0
H312 H 0.7866 0.22621 0.25445 0.0
H313 H 0.71482 0.16771 0.23834 0.0
H314 H 0.65626 0.12831 0.2781 0.0
H315 H 0.66933 0.14669 0.3342 0.0
C316 C 0.71162 0.18522 0.38533 0.0
C317 C 0.74645 0.20913 0.36115 0.0
C318 C 0.73775 0.19866 0.32835 0.0
C319 C 0.77093 0.2225 0.30529 0.0
C320 C 0.76205 0.21023 0.27283 0.0
C321 C 0.72108 0.17651 0.26328 0.0
C322 C 0.68816 0.15425 0.28567 0.0
C323 C 0.69618 0.16504 0.31785 0.0
H324 H 0.54575 0.8679 0.63883 0.0
C325 C 0.53458 0.85353 0.61534 0.0
H326 H 0.51461 0.79671 0.58723 0.0
H327 H 0.60329 0.76298 0.71725 0.0
H328 H 0.6724 0.82307 0.6982 0.0
H329 H 0.67509 0.86507 0.65034 0.0
H330 H 0.60858 0.84767 0.62158 0.0
C331 C 0.52528 0.81205 0.61041 0.0
C332 C 0.52489 0.78432 0.63727 0.0
C333 C 0.56433 0.79395 0.65305 0.0
C334 C 0.56301 0.76858 0.67984 0.0
C335 C 0.60257 0.7802 0.69612 0.0
C336 C 0.64246 0.81478 0.68554 0.0
C337 C 0.64395 0.83851 0.65866 0.0
C338 C 0.60547 0.82835 0.64249 0.0
H339 H 0.55269 0.67742 0.69224 0.0
C340 C 0.53698 0.67762 0.71455 0.0
H341 H 0.50191 0.70393 0.73802 0.0
H342 H 0.44337 0.75683 0.61207 0.0
H343 H 0.37473 0.69495 0.62983 0.0
H344 H 0.37283 0.64924 0.67503 0.0
H345 H 0.43953 0.66533 0.70288 0.0
C346 C 0.52076 0.70487 0.71726 0.0
C347 C 0.52248 0.73261 0.68997 0.0
C348 C 0.48319 0.72251 0.67381 0.0
C349 C 0.48439 0.74844 0.64746 0.0
C350 C 0.44453 0.73795 0.63201 0.0
C351 C 0.40482 0.70253 0.64198 0.0
C352 C 0.40375 0.67683 0.66744 0.0
C353 C 0.44233 0.68651 0.68326 0.0
H354 H 0.71674 0.52325 0.92532 0.0
C355 C 0.69828 0.53835 0.93411 0.0
H356 H 0.69305 0.57502 0.97238 0.0
H357 H 0.77272 0.49037 0.06621 0.0
H358 H 0.69657 0.4522 0.08263 0.0
H359 H 0.64141 0.46229 0.05351 0.0
H360 H 0.66215 0.5104 0.00755 0.0
C361 C 0.71003 0.55929 0.96228 0.0
C362 C 0.74445 0.55794 0.9819 0.0
C363 C 0.73207 0.53099 0.0094 0.0
C364 C 0.76408 0.52601 0.02663 0.0
C365 C 0.75024 0.49674 0.05287 0.0
C366 C 0.70646 0.47426 0.06243 0.0
C367 C 0.6754 0.47988 0.046 0.0
C368 C 0.68779 0.50766 0.01968 0.0
H369 H 0.83774 0.57381 0.07602 0.0
C370 C 0.8541 0.55838 0.06422 0.0
H371 H 0.8571 0.52716 0.02188 0.0
H372 H 0.77956 0.61543 0.93207 0.0
H373 H 0.85605 0.65467 0.9159 0.0
H374 H 0.91172 0.64624 0.94579 0.0
H375 H 0.89129 0.5986 0.99205 0.0
C376 C 0.84234 0.54365 0.03427 0.0
C377 C 0.80868 0.54921 0.01684 0.0
C378 C 0.82117 0.57692 0.98974 0.0
C379 C 0.78904 0.58149 0.97234 0.0
C380 C 0.80252 0.61008 0.94574 0.0
C381 C 0.84634 0.633 0.93632 0.0
C382 C 0.87769 0.62827 0.95316 0.0
C383 C 0.86549 0.60073 0.97963 0.0
H384 H 0.32563 0.86819 0.35464 0.0
C385 C 0.3191 0.85629 0.37909 0.0
H386 H 0.27386 0.80472 0.40903 0.0
H387 H 0.14532 0.76521 0.28546 0.0
H388 H 0.13935 0.82694 0.30486 0.0
H389 H 0.18571 0.87259 0.34915 0.0
H390 H 0.23828 0.85671 0.37437 0.0
C391 C 0.28251 0.81799 0.38512 0.0
C392 C 0.25427 0.7906 0.35862 0.0
C393 C 0.22388 0.80044 0.34412 0.0
C394 C 0.19718 0.77411 0.31861 0.0
C395 C 0.16663 0.78428 0.3048 0.0
C396 C 0.16282 0.81959 0.31574 0.0
C397 C 0.18892 0.8453 0.34067 0.0
C398 C 0.21906 0.83592 0.35486 0.0
H399 H 0.14113 0.65365 0.31146 0.0
C400 C 0.14213 0.66696 0.28788 0.0
H401 H 0.17402 0.72358 0.25875 0.0
H402 H 0.30936 0.76313 0.38146 0.0
H403 H 0.31776 0.70342 0.36074 0.0
H404 H 0.27432 0.66011 0.31463 0.0
H405 H 0.22191 0.67583 0.28928 0.0
C406 C 0.17138 0.7093 0.28215 0.0
C407 C 0.20095 0.73801 0.30776 0.0
C408 C 0.23248 0.72911 0.32162 0.0
C409 C 0.25852 0.75493 0.34753 0.0
C410 C 0.28901 0.74478 0.3615 0.0
C411 C 0.29423 0.71065 0.34983 0.0
C412 C 0.2697 0.6862 0.32392 0.0
C413 C 0.23935 0.69532 0.30978 0.0
H414 H 0.49772 0.30808 0.71783 0.0
C415 C 0.46754 0.30889 0.72176 0.0
H416 H 0.40039 0.27918 0.70877 0.0
H417 H 0.43609 0.22027 0.57427 0.0
H418 H 0.41447 0.27317 0.5588 0.0
H419 H 0.40183 0.31641 0.59934 0.0
H420 H 0.41041 0.30682 0.65561 0.0
C421 C 0.43142 0.28006 0.70578 0.0
C422 C 0.43409 0.25039 0.68176 0.0
C423 C 0.42874 0.25633 0.64901 0.0
C424 C 0.43659 0.23183 0.62562 0.0
C425 C 0.43101 0.23837 0.59303 0.0
C426 C 0.41854 0.26858 0.58381 0.0
C427 C 0.4114 0.2929 0.60664 0.0
C428 C 0.41644 0.28705 0.63888 0.0
H429 H 0.40851 0.11604 0.62251 0.0
C430 C 0.43604 0.13453 0.60646 0.0
H431 H 0.48884 0.19765 0.5952 0.0
H432 H 0.43895 0.22514 0.74263 0.0
H433 H 0.4622 0.17356 0.75829 0.0
H434 H 0.48215 0.13575 0.71778 0.0
H435 H 0.47803 0.14848 0.66152 0.0
C436 C 0.46055 0.17815 0.61027 0.0
C437 C 0.4499 0.20159 0.63504 0.0
C438 C 0.4543 0.19493 0.66789 0.0
C439 C 0.44512 0.21846 0.69127 0.0
C440 C 0.44741 0.20954 0.72391 0.0
C441 C 0.46042 0.1798 0.73323 0.0
C442 C 0.47147 0.15838 0.71042 0.0
C443 C 0.46862 0.16579 0.67813 0.0
loop_
_geom_bond_atom_site_label_1
_geom_bond_atom_site_label_2
_geom_bond_distance
_geom_bond_site_symmetry_2
_ccdc_geom_bond_type
Li0 N17 1.990 . S
Li0 O60 1.956 . S
Li0 O61 1.970 . S
Li0 O62 1.961 1_455 S
Li1 N25 1.990 . S
Li1 O60 1.970 . S
Li1 O61 1.956 . S
Li1 O63 1.961 1_455 S
Li2 N47 1.990 . S
Li2 O60 1.961 1_655 S
Li2 O62 1.956 . S
Li2 O63 1.970 . S
Li3 N53 1.990 . S
Li3 O61 1.961 1_655 S
Li3 O62 1.970 . S
Li3 O63 1.956 . S
C4 C6 1.348 . S
C4 C7 1.356 . S
C4 O60 1.325 . S
N5 C8 1.314 . S
N5 C9 1.279 . S
C6 C4 1.348 . S
C6 C8 1.353 . S
C6 H64 0.929 . S
C7 C4 1.356 . S
C7 C9 1.358 . S
C7 H65 0.930 . S
C8 N5 1.314 . S
C8 C6 1.353 . S
C8 H66 0.930 . S
C9 N5 1.279 . S
C9 C7 1.358 . S
C9 H67 0.930 . S
C10 C13 1.348 . S
C10 C14 1.356 . S
C10 O61 1.325 . S
C11 N12 1.279 . S
C11 C14 1.358 . S
C11 H68 0.930 . S
N12 C11 1.279 . S
N12 C15 1.314 . S
C13 C10 1.348 . S
C13 C15 1.353 . S
C13 H69 0.929 . S
C14 C10 1.356 . S
C14 C11 1.358 . S
C14 H70 0.930 . S
C15 N12 1.314 . S
C15 C13 1.353 . S
C15 H71 0.930 . S
C16 N17 1.314 . S
C16 C21 1.353 . S
C16 H22 0.930 . S
N17 Li0 1.990 . S
N17 C16 1.314 . S
N17 C19 1.279 . S
C18 C19 1.358 . S
C18 C20 1.356 . S
C18 H72 0.930 . S
C19 N17 1.279 . S
C19 C18 1.358 . S
C19 H23 0.930 . S
C20 C18 1.356 . S
C20 C21 1.348 . S
C21 C16 1.353 . S
C21 C20 1.348 . S
C21 H73 0.929 . S
H22 C16 0.930 . S
H23 C19 0.930 . S
C24 N25 1.314 . S
C24 C26 1.353 . S
C24 H30 0.930 . S
N25 Li1 1.990 . S
N25 C24 1.314 . S
N25 C28 1.279 . S
C26 C24 1.353 . S
C26 C29 1.348 . S
C26 H74 0.929 . S
C27 C28 1.358 . S
C27 C29 1.356 . S
C27 H75 0.930 . S
C28 N25 1.279 . S
C28 C27 1.358 . S
C28 H31 0.930 . S
C29 C26 1.348 . S
C29 C27 1.356 . S
H30 C24 0.930 . S
H31 C28 0.930 . S
C32 C34 1.348 . S
C32 C35 1.356 . S
C32 O62 1.325 . S
N33 C36 1.314 . S
N33 C37 1.279 . S
C34 C32 1.348 . S
C34 C36 1.353 . S
C34 H76 0.929 . S
C35 C32 1.356 . S
C35 C37 1.358 . S
C35 H77 0.930 . S
C36 N33 1.314 . S
C36 C34 1.353 . S
C36 H78 0.930 . S
C37 N33 1.279 . S
C37 C35 1.358 . S
C37 H79 0.930 . S
C38 C39 1.348 . S
C38 C40 1.356 . S
C38 O63 1.325 . S
C39 C38 1.348 . S
C39 C41 1.353 . S
C39 H80 0.929 . S
C40 C38 1.356 . S
C40 C42 1.358 . S
C40 H81 0.930 . S
C41 C39 1.353 . S
C41 N43 1.314 . S
C41 H82 0.930 . S
C42 C40 1.358 . S
C42 N43 1.279 . S
C42 H83 0.930 . S
N43 C41 1.314 . S
N43 C42 1.279 . S
C44 C46 1.353 . S
C44 N47 1.314 . S
C44 H50 0.930 . S
C45 N47 1.279 . S
C45 C48 1.358 . S
C45 H51 0.930 . S
C46 C44 1.353 . S
C46 C49 1.348 . S
C46 H84 0.929 . S
N47 Li2 1.990 . S
N47 C44 1.314 . S
N47 C45 1.279 . S
C48 C45 1.358 . S
C48 C49 1.356 . S
C48 H85 0.930 . S
C49 C46 1.348 . S
C49 C48 1.356 . S
H50 C44 0.930 . S
H51 C45 0.930 . S
C52 N53 1.314 . S
C52 C54 1.353 . S
C52 H58 0.930 . S
N53 Li3 1.990 . S
N53 C52 1.314 . S
N53 C56 1.279 . S
C54 C52 1.353 . S
C54 C57 1.348 . S
C54 H86 0.929 . S
C55 C56 1.358 . S
C55 C57 1.356 . S
C55 H87 0.930 . S
C56 N53 1.279 . S
C56 C55 1.358 . S
C56 H59 0.930 . S
C57 C54 1.348 . S
C57 C55 1.356 . S
H58 C52 0.930 . S
H59 C56 0.930 . S
O60 Li0 1.956 . S
O60 Li1 1.970 . S
O60 Li2 1.961 1_455 S
O60 C4 1.325 . S
O61 Li0 1.970 . S
O61 Li1 1.956 . S
O61 Li3 1.961 1_455 S
O61 C10 1.325 . S
O62 Li0 1.961 1_655 S
O62 Li2 1.956 . S
O62 Li3 1.970 . S
O62 C32 1.325 . S
O63 Li1 1.961 1_655 S
O63 Li2 1.970 . S
O63 Li3 1.956 . S
O63 C38 1.325 . S
H64 C6 0.929 . S
H65 C7 0.930 . S
H66 C8 0.930 . S
H67 C9 0.930 . S
H68 C11 0.930 . S
H69 C13 0.929 . S
H70 C14 0.930 . S
H71 C15 0.930 . S
H72 C18 0.930 . S
H73 C21 0.929 . S
H74 C26 0.929 . S
H75 C27 0.930 . S
H76 C34 0.929 . S
H77 C35 0.930 . S
H78 C36 0.930 . S
H79 C37 0.930 . S
H80 C39 0.929 . S
H81 C40 0.930 . S
H82 C41 0.930 . S
H83 C42 0.930 . S
H84 C46 0.929 . S
H85 C48 0.930 . S
H86 C54 0.929 . S
H87 C55 0.930 . S
Li88 N105 1.990 . S
Li88 O148 1.956 . S
Li88 O149 1.970 . S
Li88 O150 1.961 1_545 S
Li89 N113 1.990 . S
Li89 O148 1.970 . S
Li89 O149 1.956 . S
Li89 O151 1.961 1_545 S
Li90 N135 1.990 . S
Li90 O148 1.961 1_565 S
Li90 O150 1.956 . S
Li90 O151 1.970 . S
Li91 N141 1.990 . S
Li91 O149 1.961 1_565 S
Li91 O150 1.970 . S
Li91 O151 1.956 . S
C92 C94 1.348 . S
C92 C95 1.356 . S
C92 O148 1.325 . S
N93 C96 1.314 . S
N93 C97 1.279 . S
C94 C92 1.348 . S
C94 C96 1.353 . S
C94 H152 0.929 . S
C95 C92 1.356 . S
C95 C97 1.358 . S
C95 H153 0.930 . S
C96 N93 1.314 . S
C96 C94 1.353 . S
C96 H154 0.930 . S
C97 N93 1.279 . S
C97 C95 1.358 . S
C97 H155 0.930 . S
C98 C101 1.348 . S
C98 C102 1.356 . S
C98 O149 1.325 . S
C99 N100 1.279 . S
C99 C102 1.358 . S
C99 H156 0.930 . S
N100 C99 1.279 . S
N100 C103 1.314 . S
C101 C98 1.348 . S
C101 C103 1.353 . S
C101 H157 0.929 . S
C102 C98 1.356 . S
C102 C99 1.358 . S
C102 H158 0.930 . S
C103 N100 1.314 . S
C103 C101 1.353 . S
C103 H159 0.930 . S
C104 N105 1.314 . S
C104 C109 1.353 . S
C104 H110 0.930 . S
N105 Li88 1.990 . S
N105 C104 1.314 . S
N105 C107 1.279 . S
C106 C107 1.358 . S
C106 C108 1.356 . S
C106 H160 0.930 . S
C107 N105 1.279 . S
C107 C106 1.358 . S
C107 H111 0.930 . S
C108 C106 1.356 . S
C108 C109 1.348 . S
C109 C104 1.353 . S
C109 C108 1.348 . S
C109 H161 0.929 . S
H110 C104 0.930 . S
H111 C107 0.930 . S
C112 N113 1.314 . S
C112 C114 1.353 . S
C112 H118 0.930 . S
N113 Li89 1.990 . S
N113 C112 1.314 . S
N113 C116 1.279 . S
C114 C112 1.353 . S
C114 C117 1.348 . S
C114 H162 0.929 . S
C115 C116 1.358 . S
C115 C117 1.356 . S
C115 H163 0.930 . S
C116 N113 1.279 . S
C116 C115 1.358 . S
C116 H119 0.930 . S
C117 C114 1.348 . S
C117 C115 1.356 . S
H118 C112 0.930 . S
H119 C116 0.930 . S
C120 C122 1.348 . S
C120 C123 1.356 . S
C120 O150 1.325 . S
N121 C124 1.314 . S
N121 C125 1.279 . S
C122 C120 1.348 . S
C122 C124 1.353 . S
C122 H164 0.929 . S
C123 C120 1.356 . S
C123 C125 1.358 . S
C123 H165 0.930 . S
C124 N121 1.314 . S
C124 C122 1.353 . S
C124 H166 0.930 . S
C125 N121 1.279 . S
C125 C123 1.358 . S
C125 H167 0.930 . S
C126 C127 1.348 . S
C126 C128 1.356 . S
C126 O151 1.325 . S
C127 C126 1.348 . S
C127 C129 1.353 . S
C127 H168 0.929 . S
C128 C126 1.356 . S
C128 C130 1.358 . S
C128 H169 0.930 . S
C129 C127 1.353 . S
C129 N131 1.314 . S
C129 H170 0.930 . S
C130 C128 1.358 . S
C130 N131 1.279 . S
C130 H171 0.930 . S
N131 C129 1.314 . S
N131 C130 1.279 . S
C132 C134 1.353 . S
C132 N135 1.314 . S
C132 H138 0.930 . S
C133 N135 1.279 . S
C133 C136 1.358 . S
C133 H139 0.930 . S
C134 C132 1.353 . S
C134 C137 1.348 . S
C134 H172 0.929 . S
N135 Li90 1.990 . S
N135 C132 1.314 . S
N135 C133 1.279 . S
C136 C133 1.358 . S
C136 C137 1.356 . S
C136 H173 0.930 . S
C137 C134 1.348 . S
C137 C136 1.356 . S
H138 C132 0.930 . S
H139 C133 0.930 . S
C140 N141 1.314 . S
C140 C142 1.353 . S
C140 H146 0.930 . S
N141 Li91 1.990 . S
N141 C140 1.314 . S
N141 C144 1.279 . S
C142 C140 1.353 . S
C142 C145 1.348 . S
C142 H174 0.929 . S
C143 C144 1.358 . S
C143 C145 1.356 . S
C143 H175 0.930 . S
C144 N141 1.279 . S
C144 C143 1.358 . S
C144 H147 0.930 . S
C145 C142 1.348 . S
C145 C143 1.356 . S
H146 C140 0.930 . S
H147 C144 0.930 . S
O148 Li88 1.956 . S
O148 Li89 1.970 . S
O148 Li90 1.961 1_545 S
O148 C92 1.325 . S
O149 Li88 1.970 . S
O149 Li89 1.956 . S
O149 Li91 1.961 1_545 S
O149 C98 1.325 . S
O150 Li88 1.961 1_565 S
O150 Li90 1.956 . S
O150 Li91 1.970 . S
O150 C120 1.325 . S
O151 Li89 1.961 1_565 S
O151 Li90 1.970 . S
O151 Li91 1.956 . S
O151 C126 1.325 . S
H152 C94 0.929 . S
H153 C95 0.930 . S
H154 C96 0.930 . S
H155 C97 0.930 . S
H156 C99 0.930 . S
H157 C101 0.929 . S
H158 C102 0.930 . S
H159 C103 0.930 . S
H160 C106 0.930 . S
H161 C109 0.929 . S
H162 C114 0.929 . S
H163 C115 0.930 . S
H164 C122 0.929 . S
H165 C123 0.930 . S
H166 C124 0.930 . S
H167 C125 0.930 . S
H168 C127 0.929 . S
H169 C128 0.930 . S
H170 C129 0.930 . S
H171 C130 0.930 . S
H172 C134 0.929 . S
H173 C136 0.930 . S
H174 C142 0.929 . S
H175 C143 0.930 . S
Li176 N193 1.990 . S
Li176 O236 1.956 . S
Li176 O237 1.970 . S
Li176 O238 1.961 . S
Li177 N201 1.990 . S
Li177 O236 1.970 . S
Li177 O237 1.956 . S
Li177 O239 1.961 . S
Li178 N223 1.990 . S
Li178 O236 1.961 . S
Li178 O238 1.956 . S
Li178 O239 1.970 . S
Li179 N229 1.990 . S
Li179 O237 1.961 . S
Li179 O238 1.970 . S
Li179 O239 1.956 . S
C180 C182 1.348 . S
C180 C183 1.356 . S
C180 O236 1.325 . S
N181 C184 1.314 . S
N181 C185 1.279 . S
C182 C180 1.348 . S
C182 C184 1.353 . S
C182 H240 0.929 . S
C183 C180 1.356 . S
C183 C185 1.358 . S
C183 H241 0.930 . S
C184 N181 1.314 . S
C184 C182 1.353 . S
C184 H242 0.930 . S
C185 N181 1.279 . S
C185 C183 1.358 . S
C185 H243 0.930 . S
C186 C189 1.348 . S
C186 C190 1.356 . S
C186 O237 1.325 . S
C187 N188 1.279 . S
C187 C190 1.358 . S
C187 H244 0.930 . S
N188 C187 1.279 . S
N188 C191 1.314 . S
C189 C186 1.348 . S
C189 C191 1.353 . S
C189 H245 0.929 . S
C190 C186 1.356 . S
C190 C187 1.358 . S
C190 H246 0.930 . S
C191 N188 1.314 . S
C191 C189 1.353 . S
C191 H247 0.930 . S
C192 N193 1.314 . S
C192 C197 1.353 . S
C192 H198 0.930 . S
N193 Li176 1.990 . S
N193 C192 1.314 . S
N193 C195 1.279 . S
C194 C195 1.358 . S
C194 C196 1.356 . S
C194 H248 0.930 . S
C195 N193 1.279 . S
C195 C194 1.358 . S
C195 H199 0.930 . S
C196 C194 1.356 . S
C196 C197 1.348 . S
C197 C192 1.353 . S
C197 C196 1.348 . S
C197 H249 0.929 . S
H198 C192 0.930 . S
H199 C195 0.930 . S
C200 N201 1.314 . S
C200 C202 1.353 . S
C200 H206 0.930 . S
N201 Li177 1.990 . S
N201 C200 1.314 . S
N201 C204 1.279 . S
C202 C200 1.353 . S
C202 C205 1.348 . S
C202 H250 0.929 . S
C203 C204 1.358 . S
C203 C205 1.356 . S
C203 H251 0.930 . S
C204 N201 1.279 . S
C204 C203 1.358 . S
C204 H207 0.930 . S
C205 C202 1.348 . S
C205 C203 1.356 . S
H206 C200 0.930 . S
H207 C204 0.930 . S
C208 C210 1.348 . S
C208 C211 1.356 . S
C208 O238 1.325 . S
N209 C212 1.314 . S
N209 C213 1.279 . S
C210 C208 1.348 . S
C210 C212 1.353 . S
C210 H252 0.929 . S
C211 C208 1.356 . S
C211 C213 1.358 . S
C211 H253 0.930 . S
C212 N209 1.314 . S
C212 C210 1.353 . S
C212 H254 0.930 . S
C213 N209 1.279 . S
C213 C211 1.358 . S
C213 H255 0.930 . S
C214 C215 1.348 . S
C214 C216 1.356 . S
C214 O239 1.325 . S
C215 C214 1.348 . S
C215 C217 1.353 . S
C215 H256 0.929 . S
C216 C214 1.356 . S
C216 C218 1.358 . S
C216 H257 0.930 . S
C217 C215 1.353 . S
C217 N219 1.314 . S
C217 H258 0.930 . S
C218 C216 1.358 . S
C218 N219 1.279 . S
C218 H259 0.930 . S
N219 C217 1.314 . S
N219 C218 1.279 . S
C220 C222 1.353 . S
C220 N223 1.314 . S
C220 H226 0.930 . S
C221 N223 1.279 . S
C221 C224 1.358 . S
C221 H227 0.930 . S
C222 C220 1.353 . S
C222 C225 1.348 . S
C222 H260 0.929 . S
N223 Li178 1.990 . S
N223 C220 1.314 . S
N223 C221 1.279 . S
C224 C221 1.358 . S
C224 C225 1.356 . S
C224 H261 0.930 . S
C225 C222 1.348 . S
C225 C224 1.356 . S
H226 C220 0.930 . S
H227 C221 0.930 . S
C228 N229 1.314 . S
C228 C230 1.353 . S
C228 H234 0.930 . S
N229 Li179 1.990 . S
N229 C228 1.314 . S
N229 C232 1.279 . S
C230 C228 1.353 . S
C230 C233 1.348 . S
C230 H262 0.929 . S
C231 C232 1.358 . S
C231 C233 1.356 . S
C231 H263 0.930 . S
C232 N229 1.279 . S
C232 C231 1.358 . S
C232 H235 0.930 . S
C233 C230 1.348 . S
C233 C231 1.356 . S
H234 C228 0.930 . S
H235 C232 0.930 . S
O236 Li176 1.956 . S
O236 Li177 1.970 . S
O236 Li178 1.961 . S
O236 C180 1.325 . S
O237 Li176 1.970 . S
O237 Li177 1.956 . S
O237 Li179 1.961 . S
O237 C186 1.325 . S
O238 Li176 1.961 . S
O238 Li178 1.956 . S
O238 Li179 1.970 . S
O238 C208 1.325 . S
O239 Li177 1.961 . S
O239 Li178 1.970 . S
O239 Li179 1.956 . S
O239 C214 1.325 . S
H240 C182 0.929 . S
H241 C183 0.930 . S
H242 C184 0.930 . S
H243 C185 0.930 . S
H244 C187 0.930 . S
H245 C189 0.929 . S
H246 C190 0.930 . S
H247 C191 0.930 . S
H248 C194 0.930 . S
H249 C197 0.929 . S
H250 C202 0.929 . S
H251 C203 0.930 . S
H252 C210 0.929 . S
H253 C211 0.930 . S
H254 C212 0.930 . S
H255 C213 0.930 . S
H256 C215 0.929 . S
H257 C216 0.930 . S
H258 C217 0.930 . S
H259 C218 0.930 . S
H260 C222 0.929 . S
H261 C224 0.930 . S
H262 C230 0.929 . S
H263 C231 0.930 . S
H264 C265 0.951 . S
C265 H264 0.951 . S
C265 C271 1.265 . S
H266 C271 0.950 . S
H267 C275 0.949 . S
H268 C276 0.943 1_554 S
H269 C277 0.951 . S
H270 C278 0.951 . S
C271 C265 1.265 . S
C271 H266 0.950 . S
C271 C272 1.478 . S
C272 C271 1.478 . S
C272 C273 1.397 . S
C272 C289 1.394 . S
C273 C272 1.397 . S
C273 C274 1.438 1_556 S
C273 C278 1.429 . S
C274 C273 1.438 1_554 S
C274 C275 1.428 . S
C274 C287 1.394 . S
C275 H267 0.949 . S
C275 C274 1.428 . S
C275 C276 1.329 1_554 S
C276 H268 0.943 1_556 S
C276 C275 1.329 1_556 S
C276 C277 1.447 . S
C277 H269 0.951 . S
C277 C276 1.447 . S
C277 C278 1.347 . S
C278 H270 0.951 . S
C278 C273 1.429 . S
C278 C277 1.347 . S
H279 C280 0.951 . S
C280 H279 0.951 . S
C280 C286 1.265 . S
H281 C286 0.950 . S
H282 C290 0.949 . S
H283 C291 0.943 1_556 S
H284 C292 0.951 . S
H285 C293 0.951 . S
C286 C280 1.265 . S
C286 H281 0.950 . S
C286 C287 1.478 . S
C287 C274 1.394 . S
C287 C286 1.478 . S
C287 C288 1.397 . S
C288 C287 1.397 . S
C288 C289 1.438 1_554 S
C288 C293 1.429 . S
C289 C272 1.394 . S
C289 C288 1.438 1_556 S
C289 C290 1.428 . S
C290 H282 0.949 . S
C290 C289 1.428 . S
C290 C291 1.329 1_556 S
C291 H283 0.943 1_554 S
C291 C290 1.329 1_554 S
C291 C292 1.448 . S
C292 H284 0.951 . S
C292 C291 1.448 . S
C292 C293 1.347 . S
C293 H285 0.951 . S
C293 C288 1.429 . S
C293 C292 1.347 . S
H294 C295 0.951 . S
C295 H294 0.951 . S
C295 C301 1.265 . S
H296 C301 0.950 . S
H297 C305 0.949 . S
H298 C306 0.950 . S
H299 C307 0.951 . S
H300 C308 0.951 . S
C301 C295 1.265 . S
C301 H296 0.950 . S
C301 C302 1.478 . S
C302 C301 1.478 . S
C302 C303 1.397 . S
C302 C319 1.394 . S
C303 C302 1.397 . S
C303 C304 1.438 . S
C303 C308 1.429 . S
C304 C303 1.438 . S
C304 C305 1.428 . S
C304 C317 1.394 . S
C305 H297 0.949 . S
C305 C304 1.428 . S
C305 C306 1.345 . S
C306 H298 0.950 . S
C306 C305 1.345 . S
C306 C307 1.424 . S
C307 H299 0.951 . S
C307 C306 1.424 . S
C307 C308 1.347 . S
C308 H300 0.951 . S
C308 C303 1.429 . S
C308 C307 1.347 . S
H309 C310 0.951 . S
C310 H309 0.951 . S
C310 C316 1.265 . S
H311 C316 0.950 . S
H312 C320 0.949 . S
H313 C321 0.950 . S
H314 C322 0.951 . S
H315 C323 0.951 . S
C316 C310 1.265 . S
C316 H311 0.950 . S
C316 C317 1.478 . S
C317 C304 1.394 . S
C317 C316 1.478 . S
C317 C318 1.397 . S
C318 C317 1.397 . S
C318 C319 1.438 . S
C318 C323 1.429 . S
C319 C302 1.394 . S
C319 C318 1.438 . S
C319 C320 1.428 . S
C320 H312 0.949 . S
C320 C319 1.428 . S
C320 C321 1.345 . S
C321 H313 0.950 . S
C321 C320 1.345 . S
C321 C322 1.424 . S
C322 H314 0.951 . S
C322 C321 1.424 . S
C322 C323 1.347 . S
C323 H315 0.951 . S
C323 C318 1.429 . S
C323 C322 1.347 . S
H324 C325 0.951 . S
C325 H324 0.951 . S
C325 C331 1.265 . S
H326 C331 0.950 . S
H327 C335 0.949 . S
H328 C336 0.950 . S
H329 C337 0.951 . S
H330 C338 0.951 . S
C331 C325 1.265 . S
C331 H326 0.950 . S
C331 C332 1.478 . S
C332 C331 1.478 . S
C332 C333 1.397 . S
C332 C349 1.394 . S
C333 C332 1.397 . S
C333 C334 1.438 . S
C333 C338 1.429 . S
C334 C333 1.438 . S
C334 C335 1.428 . S
C334 C347 1.394 . S
C335 H327 0.949 . S
C335 C334 1.428 . S
C335 C336 1.345 . S
C336 H328 0.950 . S
C336 C335 1.345 . S
C336 C337 1.424 . S
C337 H329 0.951 . S
C337 C336 1.424 . S
C337 C338 1.347 . S
C338 H330 0.951 . S
C338 C333 1.429 . S
C338 C337 1.347 . S
H339 C340 0.951 . S
C340 H339 0.951 . S
C340 C346 1.265 . S
H341 C346 0.950 . S
H342 C350 0.949 . S
H343 C351 0.950 . S
H344 C352 0.951 . S
H345 C353 0.951 . S
C346 C340 1.265 . S
C346 H341 0.950 . S
C346 C347 1.478 . S
C347 C334 1.394 . S
C347 C346 1.478 . S
C347 C348 1.397 . S
C348 C347 1.397 . S
C348 C349 1.438 . S
C348 C353 1.429 . S
C349 C332 1.394 . S
C349 C348 1.438 . S
C349 C350 1.428 . S
C350 H342 0.949 . S
C350 C349 1.428 . S
C350 C351 1.345 . S
C351 H343 0.950 . S
C351 C350 1.345 . S
C351 C352 1.424 . S
C352 H344 0.951 . S
C352 C351 1.424 . S
C352 C353 1.347 . S
C353 H345 0.951 . S
C353 C348 1.429 . S
C353 C352 1.347 . S
H354 C355 0.951 . S
C355 H354 0.951 . S
C355 C361 1.265 . S
H356 C361 0.950 . S
H357 C365 0.949 . S
H358 C366 0.950 . S
H359 C367 0.951 . S
H360 C368 0.951 . S
C361 C355 1.265 . S
C361 H356 0.950 . S
C361 C362 1.478 . S
C362 C361 1.478 . S
C362 C363 1.397 1_556 S
C362 C379 1.394 . S
C363 C362 1.397 1_554 S
C363 C364 1.438 . S
C363 C368 1.429 . S
C364 C363 1.438 . S
C364 C365 1.428 . S
C364 C377 1.394 . S
C365 H357 0.949 . S
C365 C364 1.428 . S
C365 C366 1.345 . S
C366 H358 0.950 . S
C366 C365 1.345 . S
C366 C367 1.424 . S
C367 H359 0.951 . S
C367 C366 1.424 . S
C367 C368 1.347 . S
C368 H360 0.951 . S
C368 C363 1.429 . S
C368 C367 1.347 . S
H369 C370 0.951 . S
C370 H369 0.951 . S
C370 C376 1.265 . S
H371 C376 0.950 . S
H372 C380 0.949 . S
H373 C381 0.950 . S
H374 C382 0.951 . S
H375 C383 0.951 . S
C376 C370 1.265 . S
C376 H371 0.950 . S
C376 C377 1.478 . S
C377 C364 1.394 . S
C377 C376 1.478 . S
C377 C378 1.397 1_554 S
C378 C377 1.397 1_556 S
C378 C379 1.438 . S
C378 C383 1.429 . S
C379 C362 1.394 . S
C379 C378 1.438 . S
C379 C380 1.428 . S
C380 H372 0.949 . S
C380 C379 1.428 . S
C380 C381 1.345 . S
C381 H373 0.950 . S
C381 C380 1.345 . S
C381 C382 1.424 . S
C382 H374 0.951 . S
C382 C381 1.424 . S
C382 C383 1.347 . S
C383 H375 0.951 . S
C383 C378 1.429 . S
C383 C382 1.347 . S
H384 C385 0.951 . S
C385 H384 0.951 . S
C385 C391 1.265 . S
H386 C391 0.950 . S
H387 C395 0.949 . S
H388 C396 0.950 . S
H389 C397 0.951 . S
H390 C398 0.951 . S
C391 C385 1.265 . S
C391 H386 0.950 . S
C391 C392 1.478 . S
C392 C391 1.478 . S
C392 C393 1.397 . S
C392 C409 1.394 . S
C393 C392 1.397 . S
C393 C394 1.438 . S
C393 C398 1.429 . S
C394 C393 1.438 . S
C394 C395 1.428 . S
C394 C407 1.394 . S
C395 H387 0.949 . S
C395 C394 1.428 . S
C395 C396 1.345 . S
C396 H388 0.950 . S
C396 C395 1.345 . S
C396 C397 1.424 . S
C397 H389 0.951 . S
C397 C396 1.424 . S
C397 C398 1.347 . S
C398 H390 0.951 . S
C398 C393 1.429 . S
C398 C397 1.347 . S
H399 C400 0.951 . S
C400 H399 0.951 . S
C400 C406 1.265 . S
H401 C406 0.950 . S
H402 C410 0.949 . S
H403 C411 0.950 . S
H404 C412 0.951 . S
H405 C413 0.951 . S
C406 C400 1.265 . S
C406 H401 0.950 . S
C406 C407 1.478 . S
C407 C394 1.394 . S
C407 C406 1.478 . S
C407 C408 1.397 . S
C408 C407 1.397 . S
C408 C409 1.438 . S
C408 C413 1.429 . S
C409 C392 1.394 . S
C409 C408 1.438 . S
C409 C410 1.428 . S
C410 H402 0.949 . S
C410 C409 1.428 . S
C410 C411 1.345 . S
C411 H403 0.950 . S
C411 C410 1.345 . S
C411 C412 1.424 . S
C412 H404 0.951 . S
C412 C411 1.424 . S
C412 C413 1.347 . S
C413 H405 0.951 . S
C413 C408 1.429 . S
C413 C412 1.347 . S
H414 C415 0.951 . S
C415 H414 0.951 . S
C415 C421 1.265 . S
H416 C421 0.950 . S
H417 C425 0.949 . S
H418 C426 0.950 . S
H419 C427 0.951 . S
H420 C428 0.951 . S
C421 C415 1.265 . S
C421 H416 0.950 . S
C421 C422 1.478 . S
C422 C421 1.478 . S
C422 C423 1.397 . S
C422 C439 1.394 . S
C423 C422 1.397 . S
C423 C424 1.438 . S
C423 C428 1.429 . S
C424 C423 1.438 . S
C424 C425 1.428 . S
C424 C437 1.394 . S
C425 H417 0.949 . S
C425 C424 1.428 . S
C425 C426 1.345 . S
C426 H418 0.950 . S
C426 C425 1.345 . S
C426 C427 1.424 . S
C427 H419 0.951 . S
C427 C426 1.424 . S
C427 C428 1.347 . S
C428 H420 0.951 . S
C428 C423 1.429 . S
C428 C427 1.347 . S
H429 C430 0.951 . S
C430 H429 0.951 . S
C430 C436 1.265 . S
H431 C436 0.950 . S
H432 C440 0.949 . S
H433 C441 0.950 . S
H434 C442 0.951 . S
H435 C443 0.951 . S
C436 C430 1.265 . S
C436 H431 0.950 . S
C436 C437 1.478 . S
C437 C424 1.394 . S
C437 C436 1.478 . S
C437 C438 1.397 . S
C438 C437 1.397 . S
C438 C439 1.438 . S
C438 C443 1.429 . S
C439 C422 1.394 . S
C439 C438 1.438 . S
C439 C440 1.428 . S
C440 H432 0.949 . S
C440 C439 1.428 . S
C440 C441 1.345 . S
C441 H433 0.950 . S
C441 C440 1.345 . S
C441 C442 1.424 . S
C442 H434 0.951 . S
C442 C441 1.424 . S
C442 C443 1.347 . S
C443 H435 0.951 . S
C443 C438 1.429 . S
C443 C442 1.347 . S
C265 C225 1.174 . S
C280 C20 1.178 . S
C295 C49 1.163 . S
C310 C108 1.204 . S
C325 C137 1.163 . S
C340 C233 1.194 . S
C355 C205 1.174 . S
C370 C57 1.204 . S
C385 C145 1.162 . S
C400 C29 1.198 . S
C415 C196 1.163 . S
C430 C117 1.203 . S
