# Generated by pormake.
# Topology atn, (4)-cn, num edge types: 1
# Building blocks:
#     Node 0, Type 0, BuildingBlock: AZAVOO_clean_sbu_0, # of connection points: 4
#     Node 1, Type 0, BuildingBlock: AZAVOO_clean_sbu_0, # of connection points: 4
#     Node 2, Type 0, BuildingBlock: AZAVOO_clean_sbu_0, # of connection points: 4
#     Node 3, Type 0, BuildingBlock: AZAVOO_clean_sbu_0, # of connection points: 4
#     Node 4, Type 0, BuildingBlock: AZAVOO_clean_sbu_0, # of connection points: 4
#     Node 5, Type 0, BuildingBlock: AZAVOO_clean_sbu_0, # of connection points: 4
#     Node 6, Type 0, BuildingBlock: AZAVOO_clean_sbu_0, # of connection points: 4
#     Node 7, Type 0, BuildingBlock: AZAVOO_clean_sbu_0, # of connection points: 4
#     Node 8, Type 0, BuildingBlock: AZAVOO_clean_sbu_0, # of connection points: 4
#     Node 9, Type 0, BuildingBlock: AZAVOO_clean_sbu_0, # of connection points: 4
#     Node 10, Type 0, BuildingBlock: AZAVOO_clean_sbu_0, # of connection points: 4
#     Node 11, Type 0, BuildingBlock: AZAVOO_clean_sbu_0, # of connection points: 4
#     Node 12, Type 0, BuildingBlock: AZAVOO_clean_sbu_0, # of connection points: 4
#     Node 13, Type 0, BuildingBlock: AZAVOO_clean_sbu_0, # of connection points: 4
#     Node 14, Type 0, BuildingBlock: AZAVOO_clean_sbu_0, # of connection points: 4
#     Node 15, Type 0, BuildingBlock: AZAVOO_clean_sbu_0, # of connection points: 4
#     Edge 16, Type (0, 0), BuildingBlock: EZIPEK_clean_linker_0, # of connection points: 2
#     Edge 17, Type (0, 0), BuildingBlock: EZIPEK_clean_linker_0, # of connection points: 2
#     Edge 18, Type (0, 0), BuildingBlock: EZIPEK_clean_linker_0, # of connection points: 2
#     Edge 19, Type (0, 0), BuildingBlock: EZIPEK_clean_linker_0, # of connection points: 2
#     Edge 20, Type (0, 0), BuildingBlock: EZIPEK_clean_linker_0, # of connection points: 2
#     Edge 21, Type (0, 0), BuildingBlock: EZIPEK_clean_linker_0, # of connection points: 2
#     Edge 22, Type (0, 0), BuildingBlock: EZIPEK_clean_linker_0, # of connection points: 2
#     Edge 23, Type (0, 0), BuildingBlock: EZIPEK_clean_linker_0, # of connection points: 2
#     Edge 24, Type (0, 0), BuildingBlock: EZIPEK_clean_linker_0, # of connection points: 2
#     Edge 25, Type (0, 0), BuildingBlock: EZIPEK_clean_linker_0, # of connection points: 2
#     Edge 26, Type (0, 0), BuildingBlock: EZIPEK_clean_linker_0, # of connection points: 2
#     Edge 27, Type (0, 0), BuildingBlock: EZIPEK_clean_linker_0, # of connection points: 2
#     Edge 28, Type (0, 0), BuildingBlock: EZIPEK_clean_linker_0, # of connection points: 2
#     Edge 29, Type (0, 0), BuildingBlock: EZIPEK_clean_linker_0, # of connection points: 2
#     Edge 30, Type (0, 0), BuildingBlock: EZIPEK_clean_linker_0, # of connection points: 2
#     Edge 31, Type (0, 0), BuildingBlock: EZIPEK_clean_linker_0, # of connection points: 2
#     Edge 32, Type (0, 0), BuildingBlock: EZIPEK_clean_linker_0, # of connection points: 2
#     Edge 33, Type (0, 0), BuildingBlock: EZIPEK_clean_linker_0, # of connection points: 2
#     Edge 34, Type (0, 0), BuildingBlock: EZIPEK_clean_linker_0, # of connection points: 2
#     Edge 35, Type (0, 0), BuildingBlock: EZIPEK_clean_linker_0, # of connection points: 2
#     Edge 36, Type (0, 0), BuildingBlock: EZIPEK_clean_linker_0, # of connection points: 2
#     Edge 37, Type (0, 0), BuildingBlock: EZIPEK_clean_linker_0, # of connection points: 2
#     Edge 38, Type (0, 0), BuildingBlock: EZIPEK_clean_linker_0, # of connection points: 2
#     Edge 39, Type (0, 0), BuildingBlock: EZIPEK_clean_linker_0, # of connection points: 2
#     Edge 40, Type (0, 0), BuildingBlock: EZIPEK_clean_linker_0, # of connection points: 2
#     Edge 41, Type (0, 0), BuildingBlock: EZIPEK_clean_linker_0, # of connection points: 2
#     Edge 42, Type (0, 0), BuildingBlock: EZIPEK_clean_linker_0, # of connection points: 2
#     Edge 43, Type (0, 0), BuildingBlock: EZIPEK_clean_linker_0, # of connection points: 2
#     Edge 44, Type (0, 0), BuildingBlock: EZIPEK_clean_linker_0, # of connection points: 2
#     Edge 45, Type (0, 0), BuildingBlock: EZIPEK_clean_linker_0, # of connection points: 2
#     Edge 46, Type (0, 0), BuildingBlock: EZIPEK_clean_linker_0, # of connection points: 2
#     Edge 47, Type (0, 0), BuildingBlock: EZIPEK_clean_linker_0, # of connection points: 2
# Relax obj value: 0.122
# Max RMSD: 0.132
# Mean RMSD: 0.132
data_MOF--net-atn--node1-AZAVOO_clean_sbu_0--edge1-EZIPEK_clean_linker_0
_symmetry_space_group_name_H-M    P1
_symmetry_Int_Tables_number       1
_symmetry_cell_setting            triclinic
loop_
_symmetry_equiv_pos_as_xyz
'x, y, z'
_cell_length_a     44.507174
_cell_length_b     44.490686
_cell_length_c     19.666604
_cell_angle_alpha  90.01176
_cell_angle_beta   89.965441
_cell_angle_gamma 89.983364
loop_
_atom_site_label
_atom_site_type_symbol
_atom_site_fract_x
_atom_site_fract_y
_atom_site_fract_z
_atom_type_partial_charge
Mg0 Mg 0.21992 0.36622 0.92832 0.0
O1 O 0.26125 0.33723 0.94581 0.0
O2 O 0.29762 0.35342 0.87648 0.0
Mg3 Mg 0.2765 0.38689 0.80122 0.0
C4 C 0.28819 0.33618 0.92382 0.0
C5 C 0.18192 0.33298 0.04008 0.0
O6 O 0.17141 0.31877 0.98661 0.0
O7 O 0.24291 0.4077 0.97087 0.0
O8 O 0.27136 0.42322 0.88349 0.0
O9 O 0.20085 0.33304 0.85534 0.0
O10 O 0.23135 0.37011 0.82702 0.0
C11 C 0.25968 0.42723 0.94212 0.0
C12 C 0.21521 0.34763 0.80851 0.0
O13 O 0.20164 0.35338 0.03267 0.0
Mg14 Mg 0.63126 0.17944 0.04175 0.0
O15 O 0.63744 0.23002 0.05136 0.0
O16 O 0.62788 0.25159 0.95214 0.0
Mg17 Mg 0.61682 0.21396 0.87644 0.0
C18 C 0.63422 0.25357 0.01518 0.0
C19 C 0.63791 0.14836 0.17887 0.0
O20 O 0.63569 0.12563 0.13649 0.0
O21 O 0.58043 0.1858 0.04009 0.0
O22 O 0.57313 0.20461 0.93533 0.0
O23 O 0.67881 0.17343 0.00962 0.0
O24 O 0.64072 0.18062 0.9389 0.0
C25 C 0.56325 0.19518 0.9925 0.0
C26 C 0.66902 0.17633 0.94801 0.0
O27 O 0.63441 0.17491 0.15653 0.0
Mg28 Mg 0.77315 0.61767 0.03938 0.0
O29 O 0.73155 0.64786 0.03766 0.0
O30 O 0.70893 0.64177 0.93715 0.0
Mg31 Mg 0.73893 0.61207 0.87084 0.0
C32 C 0.71016 0.65343 -0.00364 0.0
C33 C 0.80456 0.62253 0.17247 0.0
O34 O 0.82545 0.61605 0.12756 0.0
O35 O 0.74455 0.57511 0.04481 0.0
O36 O 0.7273 0.57163 0.93786 0.0
O37 O 0.80137 0.65507 0.00101 0.0
O38 O 0.77799 0.62167 0.93592 0.0
C39 C 0.7303 0.56116 -0.00205 0.0
C40 C 0.79464 0.64517 0.94105 0.0
O41 O 0.77729 0.62337 0.15347 0.0
Mg42 Mg 0.36498 0.80955 0.04675 0.0
O43 O 0.35749 0.7588 0.04861 0.0
O44 O 0.37122 0.73968 0.94909 0.0
Mg45 Mg 0.38666 0.77877 0.88173 0.0
C46 C 0.36191 0.73618 0.00993 0.0
C47 C 0.36071 0.83942 0.18443 0.0
O48 O 0.37024 0.86098 0.1442 0.0
O49 O 0.41512 0.80211 0.05618 0.0
O50 O 0.42751 0.78565 0.95185 0.0
O51 O 0.31934 0.8175 0.00546 0.0
O52 O 0.3602 0.8107 0.94266 0.0
C53 C 0.43447 0.79351 0.01233 0.0
C54 C 0.33174 0.81552 0.94606 0.0
O55 O 0.35775 0.81303 0.16066 0.0
Mg56 Mg 0.22062 0.61389 0.0129 0.0
O57 O 0.26532 0.63815 0.02768 0.0
O58 O 0.28437 0.62229 0.12672 0.0
Mg59 Mg 0.24938 0.59261 0.17967 0.0
C60 C 0.28594 0.63819 0.07279 0.0
C61 C 0.19267 0.62179 0.87816 0.0
O62 O 0.17123 0.61313 0.91969 0.0
O63 O 0.24361 0.56906 -0.00407 0.0
O64 O 0.25561 0.55456 0.10167 0.0
O65 O 0.19663 0.65235 0.05919 0.0
O66 O 0.21405 0.61285 0.11598 0.0
C67 C 0.25355 0.54956 0.0379 0.0
C68 C 0.20088 0.63862 0.11643 0.0
O69 O 0.2193 0.62438 0.90057 0.0
Mg70 Mg 0.36778 0.16398 0.99305 0.0
O71 O 0.35239 0.21277 -0.00532 0.0
O72 O 0.36567 0.23384 0.09318 0.0
Mg73 Mg 0.38523 0.19612 0.1594 0.0
C74 C 0.35372 0.23542 0.03433 0.0
C75 C 0.34962 0.13705 0.85962 0.0
O76 O 0.34728 0.11497 0.90367 0.0
O77 O 0.41695 0.1781 0.98416 0.0
O78 O 0.42671 0.19406 0.09021 0.0
O79 O 0.32353 0.1498 0.03307 0.0
O80 O 0.36296 0.16132 0.09723 0.0
C81 C 0.43499 0.18793 0.0296 0.0
C82 C 0.33514 0.15362 0.09273 0.0
O83 O 0.36 0.16218 0.87931 0.0
Mg84 Mg 0.7637 0.38637 0.09596 0.0
O85 O 0.72319 0.35508 0.09351 0.0
O86 O 0.69159 0.36967 0.17566 0.0
Mg87 Mg 0.71473 0.40674 0.23758 0.0
C88 C 0.69836 0.35277 0.12548 0.0
C89 C 0.80488 0.37483 0.97462 0.0
O90 O 0.82347 0.38562 0.02038 0.0
O91 O 0.73501 0.42456 0.05648 0.0
O92 O 0.70893 0.4392 0.14727 0.0
O93 O 0.78852 0.3556 0.16402 0.0
O94 O 0.75912 0.39279 0.19917 0.0
C95 C 0.7162 0.44229 0.08477 0.0
C96 C 0.77653 0.3706 0.21354 0.0
O97 O 0.77727 0.37177 0.98967 0.0
Mg98 Mg 0.62737 0.8199 0.09092 0.0
O99 O 0.63918 0.77052 0.07542 0.0
O100 O 0.62041 0.74373 0.16066 0.0
Mg101 Mg 0.59871 0.77651 0.23589 0.0
C102 C 0.63372 0.7452 0.10334 0.0
C103 C 0.6542 0.85487 0.96953 0.0
O104 O 0.65937 0.8737 0.01961 0.0
O105 O 0.57902 0.80934 0.06251 0.0
O106 O 0.56222 0.78568 0.15609 0.0
O107 O 0.66884 0.82876 0.15172 0.0
O108 O 0.62553 0.81347 0.19445 0.0
C109 C 0.55812 0.79682 0.09694 0.0
C110 C 0.65294 0.82134 0.20428 0.0
O111 O 0.64078 0.83021 0.98153 0.0
Mg112 Mg 0.71985 0.88588 0.55603 0.0
O113 O 0.76485 0.86177 0.56308 0.0
O114 O 0.78728 0.86262 0.46245 0.0
Mg115 Mg 0.75566 0.88672 0.38854 0.0
C116 C 0.78751 0.85609 0.52558 0.0
C117 C 0.68903 0.88066 0.69263 0.0
O118 O 0.66697 0.87894 0.6485 0.0
O119 O 0.7439 0.93107 0.55252 0.0
O120 O 0.76323 0.93078 0.44699 0.0
O121 O 0.69673 0.84369 0.52461 0.0
O122 O 0.71665 0.87672 0.45338 0.0
C123 C 0.75828 0.9437 0.50397 0.0
C124 C 0.70242 0.85194 0.4628 0.0
O125 O 0.71564 0.88519 0.67143 0.0
Mg126 Mg 0.12418 0.67794 0.48335 0.0
O127 O 0.14304 0.72496 0.49443 0.0
O128 O 0.12592 0.75371 0.41 0.0
Mg129 Mg 0.10084 0.72243 0.33653 0.0
C130 C 0.14101 0.75028 0.46461 0.0
C131 C 0.15481 0.64764 0.60411 0.0
O132 O 0.16514 0.63186 0.55275 0.0
O133 O 0.07719 0.69391 0.50956 0.0
O134 O 0.06261 0.71741 0.41406 0.0
O135 O 0.16482 0.66439 0.42699 0.0
O136 O 0.1233 0.68226 0.37899 0.0
C137 C 0.05746 0.70753 0.47389 0.0
C138 C 0.15045 0.67261 0.37293 0.0
O139 O 0.13617 0.66873 0.59334 0.0
Mg140 Mg 0.26567 0.10814 0.46361 0.0
O141 O 0.22418 0.13827 0.45954 0.0
O142 O 0.1958 0.12199 0.37311 0.0
Mg143 Mg 0.22194 0.0856 0.31553 0.0
C144 C 0.20034 0.13947 0.42357 0.0
C145 C 0.30235 0.11455 0.59086 0.0
O146 O 0.31959 0.09922 0.54913 0.0
O147 O 0.23703 0.06931 0.49939 0.0
O148 O 0.21408 0.05339 0.40561 0.0
O149 O 0.29131 0.14004 0.40036 0.0
O150 O 0.2642 0.10207 0.3602 0.0
C151 C 0.21945 0.05099 0.46918 0.0
C152 C 0.28109 0.12504 0.3489 0.0
O153 O 0.27635 0.12255 0.57129 0.0
Mg154 Mg 0.8652 0.33249 0.56528 0.0
O155 O 0.85093 0.28353 0.5491 0.0
O156 O 0.86282 0.27089 0.44217 0.0
Mg157 Mg 0.88109 0.31256 0.38803 0.0
C158 C 0.8522 0.26443 0.50068 0.0
C159 C 0.85294 0.354 0.70556 0.0
O160 O 0.85497 0.37808 0.66714 0.0
O161 O 0.91477 0.31847 0.56633 0.0
O162 O 0.92302 0.31021 0.45518 0.0
O163 O 0.82 0.34821 0.53214 0.0
O164 O 0.85893 0.3412 0.4635 0.0
C165 C 0.9322 0.31209 0.51654 0.0
C166 C 0.83099 0.34775 0.47125 0.0
O167 O 0.85861 0.32849 0.67943 0.0
Mg168 Mg 0.72609 0.12362 0.57282 0.0
O169 O 0.7675 0.15287 0.55542 0.0
O170 O 0.80078 0.14254 0.63608 0.0
Mg171 Mg 0.77924 0.10917 0.71052 0.0
C172 C 0.79366 0.15593 0.58103 0.0
C173 C 0.682 0.12862 0.45231 0.0
O174 O 0.66402 0.11881 0.50042 0.0
O175 O 0.75248 0.0828 0.53889 0.0
O176 O 0.78147 0.07235 0.62797 0.0
O177 O 0.7038 0.15812 0.63761 0.0
O178 O 0.73444 0.12277 0.67552 0.0
C179 C 0.77203 0.06624 0.56815 0.0
C180 C 0.71718 0.14524 0.68834 0.0
O181 O 0.7096 0.13302 0.46556 0.0
Mg182 Mg 0.86676 0.6855 0.56938 0.0
O183 O 0.85291 0.73496 0.57463 0.0
O184 O 0.87469 0.75508 0.66668 0.0
Mg185 Mg 0.89917 0.71777 0.72434 0.0
C186 C 0.8583 0.75726 0.61365 0.0
C187 C 0.8469 0.65466 0.44054 0.0
O188 O 0.85324 0.63247 0.4822 0.0
O189 O 0.91414 0.69867 0.53893 0.0
O190 O 0.93365 0.71457 0.63791 0.0
O191 O 0.8267 0.67228 0.62901 0.0
O192 O 0.87099 0.68425 0.67326 0.0
C193 C 0.93608 0.70819 0.57482 0.0
C194 C 0.8434 0.6766 0.68201 0.0
O195 O 0.85078 0.68156 0.4604 0.0
Mg196 Mg 0.27739 0.8807 0.57684 0.0
O197 O 0.23768 0.84922 0.56131 0.0
O198 O 0.2046 0.85667 0.64512 0.0
Mg199 Mg 0.22597 0.88919 0.72122 0.0
C200 C 0.21258 0.84376 0.59003 0.0
C201 C 0.31964 0.86943 0.45556 0.0
O202 O 0.33897 0.8722 0.50563 0.0
O203 O 0.24899 0.92167 0.55041 0.0
O204 O 0.22072 0.92744 0.64408 0.0
O205 O 0.30166 0.84551 0.63494 0.0
O206 O 0.27099 0.87924 0.68048 0.0
C207 C 0.22976 0.93626 0.58573 0.0
C208 C 0.28857 0.85655 0.68823 0.0
O209 O 0.29176 0.87269 0.46747 0.0
Mg210 Mg 0.127 0.31271 0.46451 0.0
O211 O 0.13314 0.26173 0.46523 0.0
O212 O 0.12735 0.24517 0.57091 0.0
Mg213 Mg 0.11862 0.2858 0.63981 0.0
C214 C 0.1316 0.24012 0.50778 0.0
C215 C 0.14996 0.30681 0.31832 0.0
O216 O 0.17286 0.29725 0.35438 0.0
O217 O 0.07625 0.30683 0.47788 0.0
O218 O 0.07305 0.29339 0.58784 0.0
O219 O 0.17576 0.3201 0.48714 0.0
O220 O 0.14021 0.31529 0.56505 0.0
C221 C 0.06098 0.30019 0.53096 0.0
C222 C 0.1681 0.31896 0.5505 0.0
O223 O 0.12542 0.31324 0.34826 0.0
C224 C 0.28412 0.50314 0.01308 0.0
C225 C 0.25599 0.51816 0.01437 0.0
C226 C 0.23136 0.47426 0.9649 0.0
C227 C 0.25886 0.45821 0.96882 0.0
N228 N 0.31074 0.45557 0.00267 0.0
N229 N 0.20181 0.51577 0.00692 0.0
C230 C 0.28515 0.47215 -0.00541 0.0
C231 C 0.22931 0.50308 -0.0053 0.0
N232 N 0.30976 0.51874 0.02766 0.0
N233 N 0.20746 0.4626 0.92992 0.0
H234 H 0.19902 0.53676 0.02968 0.0
H235 H 0.18164 0.5042 0.00073 0.0
H236 H 0.20785 0.44167 0.90603 0.0
H237 H 0.18818 0.47494 0.9188 0.0
H238 H 0.33128 0.51001 0.02133 0.0
H239 H 0.30956 0.54135 0.04178 0.0
H240 H 0.3299 0.46349 0.02714 0.0
H241 H 0.31207 0.43294 0.989 0.0
C242 C 0.48145 0.21841 0.01083 0.0
C243 C 0.46741 0.18985 0.01428 0.0
C244 C 0.51603 0.16495 -0.00156 0.0
C245 C 0.53038 0.19338 0.00158 0.0
N246 N 0.52782 0.247 0.01792 0.0
N247 N 0.47117 0.13578 0.0208 0.0
C248 C 0.51337 0.22013 0.00949 0.0
C249 C 0.48462 0.16304 0.01031 0.0
N250 N 0.46417 0.24377 0.00722 0.0
N251 N 0.53229 0.13988 0.98194 0.0
H252 H 0.44813 0.13328 0.02858 0.0
H253 H 0.48308 0.11582 0.02687 0.0
H254 H 0.55544 0.14025 0.97373 0.0
H255 H 0.52256 0.11916 0.971 0.0
H256 H 0.4728 0.26511 -0.00214 0.0
H257 H 0.44072 0.24316 0.00795 0.0
H258 H 0.51693 0.26689 0.03098 0.0
H259 H 0.55117 0.24904 0.01699 0.0
C260 C 0.69237 0.49403 0.08259 0.0
C261 C 0.7075 0.47049 0.04809 0.0
C262 C 0.73018 0.50615 0.96981 0.0
C263 C 0.71956 0.53021 0.01118 0.0
N264 N 0.6871 0.54788 0.10095 0.0
N265 N 0.72316 0.45418 0.9372 0.0
C266 C 0.69923 0.52441 0.06545 0.0
C267 C 0.72063 0.47656 0.98431 0.0
N268 N 0.6702 0.48707 0.12793 0.0
N269 N 0.75136 0.51092 0.92057 0.0
H270 H 0.71389 0.43292 0.94538 0.0
H271 H 0.73058 0.45786 0.88762 0.0
H272 H 0.76081 0.53183 0.91024 0.0
H273 H 0.76187 0.49343 0.89452 0.0
H274 H 0.65711 0.50286 0.1533 0.0
H275 H 0.66257 0.46505 0.13405 0.0
H276 H 0.67476 0.54547 0.14554 0.0
H277 H 0.69 0.57021 0.08628 0.0
C278 C 0.51063 0.82335 0.06566 0.0
C279 C 0.52738 0.79627 0.06926 0.0
C280 C 0.48282 0.76711 0.03794 0.0
C281 C 0.46653 0.79433 0.0309 0.0
N282 N 0.46597 0.84848 0.02424 0.0
N283 N 0.53163 0.74314 0.0475 0.0
C284 C 0.48075 0.82252 0.04072 0.0
C285 C 0.51411 0.76833 0.05199 0.0
N286 N 0.52279 0.84965 0.08892 0.0
N287 N 0.46814 0.74017 0.03379 0.0
H288 H 0.55469 0.74336 0.05722 0.0
H289 H 0.52398 0.72268 0.02857 0.0
H290 H 0.44522 0.73844 0.02339 0.0
H291 H 0.47806 0.71965 0.04576 0.0
H292 H 0.51045 0.86934 0.09522 0.0
H293 H 0.54474 0.85134 0.10706 0.0
H294 H 0.4763 0.86948 0.02307 0.0
H295 H 0.44399 0.84883 0.00588 0.0
C296 C 0.76535 0.02784 0.47568 0.0
C297 C 0.77951 0.03639 0.53697 0.0
C298 C 0.7885 0.98336 0.56406 0.0
C299 C 0.76793 0.97532 0.51189 0.0
N300 N 0.73547 0.99033 0.41887 0.0
N301 N 0.81865 0.02292 0.61538 0.0
C302 C 0.75651 -0.00244 0.46682 0.0
C303 C 0.79544 0.0143 0.57442 0.0
N304 N 0.76172 0.04843 0.42489 0.0
N305 N 0.80087 0.96154 0.60418 0.0
H306 H 0.82653 0.045 0.61596 0.0
H307 H 0.8325 0.00804 0.6415 0.0
H308 H 0.79796 0.93864 0.59481 0.0
H309 H 0.81312 0.96598 0.6481 0.0
H310 H 0.75362 0.04292 0.37677 0.0
H311 H 0.77079 0.07002 0.4282 0.0
H312 H 0.72413 0.00644 0.39023 0.0
H313 H 0.72718 0.96866 0.41183 0.0
C314 C 0.98055 0.68077 0.52909 0.0
C315 C 0.96642 0.70849 0.54486 0.0
C316 C 0.01286 0.7357 0.51863 0.0
C317 C 0.02624 0.70816 0.49868 0.0
N318 N 0.02128 0.65549 0.47111 0.0
N319 N 0.96687 0.76264 0.5454 0.0
C320 C 0.00964 0.68096 0.4999 0.0
C321 C 0.98194 0.73611 0.537 0.0
N322 N 0.9668 0.65416 0.54495 0.0
N323 N 0.02997 0.76118 0.52197 0.0
H324 H 0.94418 0.7636 0.55865 0.0
H325 H 0.97603 0.78356 0.53396 0.0
H326 H 0.05264 0.76159 0.50841 0.0
H327 H 0.02242 0.78133 0.5428 0.0
H328 H 0.97757 0.63342 0.54215 0.0
H329 H 0.94544 0.65283 0.56657 0.0
H330 H 0.00881 0.63598 0.46343 0.0
H331 H 0.04262 0.65455 0.44923 0.0
C332 C 0.21725 0.02056 0.57618 0.0
C333 C 0.20949 0.02348 0.50693 0.0
C334 C 0.20469 0.96877 0.49787 0.0
C335 C 0.2197 0.96605 0.56135 0.0
N336 N 0.24187 0.98996 0.66032 0.0
N337 N 0.17956 0.0019 0.41763 0.0
C338 C 0.22576 0.99203 0.6013 0.0
C339 C 0.19825 -0.00202 0.47194 0.0
N340 N 0.21543 0.04494 0.61815 0.0
N341 N 0.1972 0.94351 0.46212 0.0
H342 H 0.17118 0.02301 0.40451 0.0
H343 H 0.16919 0.98442 0.39153 0.0
H344 H 0.19957 0.92192 0.48206 0.0
H345 H 0.18961 0.94377 0.4121 0.0
H346 H 0.21855 0.04369 0.67059 0.0
H347 H 0.20681 0.06547 0.60133 0.0
H348 H 0.24961 0.00873 0.68674 0.0
H349 H 0.25009 0.9698 0.67977 0.0
C350 C 0.01423 0.32964 0.55328 0.0
C351 C 0.02793 0.3029 0.52901 0.0
C352 C 0.9784 0.28025 0.51112 0.0
C353 C 0.96478 0.30809 0.52829 0.0
N354 N 0.96953 0.36065 0.55709 0.0
N355 N 0.02394 0.25354 0.47956 0.0
C356 C 0.98259 0.33311 0.54775 0.0
C357 C 0.01025 0.27837 0.50643 0.0
N358 N 0.03147 0.35169 0.58206 0.0
N359 N 0.96079 0.25544 0.50127 0.0
H360 H 0.04724 0.25115 0.47712 0.0
H361 H 0.01237 0.23623 0.45545 0.0
H362 H 0.93742 0.25603 0.50551 0.0
H363 H 0.96928 0.23382 0.49494 0.0
H364 H 0.02253 0.36998 0.60818 0.0
H365 H 0.05487 0.35071 0.58413 0.0
H366 H 0.9817 0.38046 0.56302 0.0
H367 H 0.94644 0.36428 0.55381 0.0
C368 C 0.30889 0.30873 0.0249 0.0
C369 C 0.30869 0.31329 0.95347 0.0
C370 C 0.34577 0.27305 0.94149 0.0
C371 C 0.34077 0.26431 0.00997 0.0
N372 N 0.31295 0.27214 0.11477 0.0
N373 N 0.3232 0.295 0.84192 0.0
C374 C 0.3213 0.28181 0.05159 0.0
C375 C 0.32632 0.29436 0.91103 0.0
N376 N 0.29774 0.3303 0.06747 0.0
N377 N 0.36937 0.26137 0.90571 0.0
H378 H 0.30769 0.30854 0.81676 0.0
H379 H 0.33367 0.27947 0.81003 0.0
H380 H 0.38508 0.24685 0.92748 0.0
H381 H 0.37527 0.26895 0.85734 0.0
H382 H 0.29974 0.32907 0.1202 0.0
H383 H 0.28972 0.35094 0.04996 0.0
H384 H 0.29626 0.28273 0.14326 0.0
H385 H 0.32023 0.25206 0.13623 0.0
C386 C 0.66547 0.33251 0.03256 0.0
C387 C 0.67601 0.33064 0.10074 0.0
C388 C 0.64573 0.28539 0.11808 0.0
C389 C 0.64103 0.28356 0.04691 0.0
N390 N 0.63057 0.31377 0.94793 0.0
N391 N 0.67617 0.30508 0.20934 0.0
C392 C 0.64627 0.30957 0.00684 0.0
C393 C 0.66566 0.30738 0.14428 0.0
N394 N 0.67396 0.35611 0.99235 0.0
N395 N 0.62941 0.26751 0.16081 0.0
H396 H 0.69062 0.32071 0.23122 0.0
H397 H 0.6723 0.2864 0.24004 0.0
H398 H 0.61207 0.25379 0.14315 0.0
H399 H 0.63 0.26946 0.21358 0.0
H400 H 0.67078 0.35665 0.93993 0.0
H401 H 0.68531 0.37489 0.01105 0.0
H402 H 0.63201 0.33303 0.91813 0.0
H403 H 0.6125 0.30017 0.9343 0.0
C404 C 0.67801 0.69936 0.978 0.0
C405 C 0.6857 0.67399 0.01838 0.0
C406 C 0.64838 0.68948 0.10394 0.0
C407 C 0.64498 0.7172 0.06887 0.0
N408 N 0.64144 0.73836 0.95653 0.0
N409 N 0.67626 0.64295 0.11694 0.0
C410 C 0.6552 0.71911 0.00081 0.0
C411 C 0.67018 0.6684 0.08046 0.0
N412 N 0.69364 0.70592 0.92003 0.0
N413 N 0.62871 0.68188 0.15447 0.0
H414 H 0.68922 0.62533 0.09799 0.0
H415 H 0.66935 0.63965 0.16695 0.0
H416 H 0.60907 0.69392 0.16376 0.0
H417 H 0.62889 0.66137 0.17981 0.0
H418 H 0.69139 0.72624 0.89417 0.0
H419 H 0.71062 0.6924 0.90051 0.0
H420 H 0.64619 0.73894 0.90465 0.0
H421 H 0.62226 0.75051 0.96991 0.0
C422 C 0.31821 0.68099 0.11387 0.0
C423 C 0.31177 0.65887 0.06364 0.0
C424 C 0.35053 0.68068 0.98947 0.0
C425 C 0.35238 0.70561 0.03433 0.0
N426 N 0.35375 0.71822 0.15324 0.0
N427 N 0.32427 0.63497 0.95716 0.0
C428 C 0.34115 0.70229 0.10119 0.0
C429 C 0.32895 0.65773 0.00265 0.0
N430 N 0.30115 0.68333 0.17145 0.0
N431 N 0.37119 0.67763 0.93854 0.0
H432 H 0.31084 0.61637 0.96809 0.0
H433 H 0.33291 0.63484 0.90798 0.0
H434 H 0.39005 0.69144 0.93515 0.0
H435 H 0.37228 0.65925 0.90594 0.0
H436 H 0.30275 0.70147 0.2048 0.0
H437 H 0.28366 0.66878 0.18353 0.0
H438 H 0.34809 0.71492 0.20412 0.0
H439 H 0.3729 0.73141 0.14622 0.0
C440 C 0.82573 0.80161 0.64296 0.0
C441 C 0.84516 0.78686 0.59625 0.0
C442 C 0.83659 0.82712 0.51303 0.0
C443 C 0.8131 0.83825 0.55489 0.0
N444 N 0.80048 0.84799 0.67197 0.0
N445 N 0.87203 0.78694 0.48952 0.0
C446 C 0.8122 0.82917 0.62391 0.0
C447 C 0.85166 0.80018 0.53216 0.0
N448 N 0.81865 0.7886 0.70384 0.0
N449 N 0.84639 0.84387 0.4592 0.0
H450 H 0.88561 0.76898 0.50425 0.0
H451 H 0.87478 0.79301 0.43879 0.0
H452 H 0.83911 0.86586 0.45115 0.0
H453 H 0.8646 0.83808 0.42871 0.0
H454 H 0.80164 0.79664 0.73541 0.0
H455 H 0.82799 0.76849 0.72073 0.0
H456 H 0.8013 0.84355 0.72395 0.0
H457 H 0.79416 0.87001 0.66061 0.0
C458 C 0.17794 0.79902 0.59824 0.0
C459 C 0.19222 0.82139 0.55815 0.0
C460 C 0.17399 0.79651 0.45505 0.0
C461 C 0.15684 0.77633 0.4955 0.0
N462 N 0.1355 0.76549 0.60604 0.0
N463 N 0.19584 0.84611 0.44884 0.0
C464 C 0.15658 0.77981 0.5673 0.0
C465 C 0.18776 0.82164 0.48663 0.0
N466 N 0.18584 0.79471 0.66467 0.0
N467 N 0.17882 0.79105 0.38755 0.0
H468 H 0.2045 0.86569 0.47034 0.0
H469 H 0.1906 0.84819 0.39739 0.0
H470 H 0.17093 0.77202 0.36247 0.0
H471 H 0.19361 0.8038 0.35827 0.0
H472 H 0.17777 0.77675 0.69343 0.0
H473 H 0.20298 0.80664 0.68859 0.0
H474 H 0.13317 0.76932 0.65809 0.0
H475 H 0.11812 0.7528 0.58504 0.0
C476 C 0.16567 0.18222 0.3936 0.0
C477 C 0.17673 0.16149 0.44254 0.0
C478 C 0.14523 0.1853 0.53017 0.0
C479 C 0.13902 0.20892 0.48377 0.0
N480 N 0.12651 0.21794 0.36669 0.0
N481 N 0.17382 0.14011 0.5553 0.0
C482 C 0.144 0.20374 0.41375 0.0
C483 C 0.16534 0.16194 0.51026 0.0
N484 N 0.17723 0.18298 0.32923 0.0
N485 N 0.12966 0.18368 0.58994 0.0
H486 H 0.18559 0.12088 0.54075 0.0
H487 H 0.16988 0.14126 0.60739 0.0
H488 H 0.11123 0.19746 0.59997 0.0
H489 H 0.13187 0.16637 0.62511 0.0
H490 H 0.17199 0.19988 0.29452 0.0
H491 H 0.19398 0.16849 0.3121 0.0
H492 H 0.12699 0.21252 0.31513 0.0
H493 H 0.10853 0.23168 0.38073 0.0
C494 C 0.85391 0.21617 0.56705 0.0
C495 C 0.84128 0.23342 0.51328 0.0
C496 C 0.80733 0.19179 0.48631 0.0
C497 C 0.8151 0.17786 0.54868 0.0
N498 N 0.85727 0.16749 0.62192 0.0
N499 N 0.80531 0.23771 0.42137 0.0
C500 C 0.84179 0.18729 0.58204 0.0
C501 C 0.81819 0.22105 0.47194 0.0
N502 N 0.87744 0.22741 0.60381 0.0
N503 N 0.79166 0.17602 0.43841 0.0
H504 H 0.81252 0.25915 0.40803 0.0
H505 H 0.78585 0.23111 0.39601 0.0
H506 H 0.78694 0.15317 0.44397 0.0
H507 H 0.78744 0.1841 0.38963 0.0
H508 H 0.88482 0.21811 0.6494 0.0
H509 H 0.88902 0.24686 0.59007 0.0
H510 H 0.87784 0.17225 0.64458 0.0
H511 H 0.85205 0.14468 0.62364 0.0
C512 C 0.16484 0.28927 0.20208 0.0
C513 C 0.15427 0.31275 0.24473 0.0
C514 C 0.15652 0.34781 0.14863 0.0
C515 C 0.17088 0.32538 0.10899 0.0
N516 N 0.19238 0.27571 0.10033 0.0
N517 N 0.1447 0.36577 0.26155 0.0
C518 C 0.17582 0.29624 0.13607 0.0
C519 C 0.15106 0.34238 0.21875 0.0
N520 N 0.16387 0.26021 0.22435 0.0
N521 N 0.14751 0.37408 0.11893 0.0
H522 H 0.14123 0.36317 0.3136 0.0
H523 H 0.1456 0.3882 0.24655 0.0
H524 H 0.15089 0.37875 0.0675 0.0
H525 H 0.13413 0.38992 0.14357 0.0
H526 H 0.16828 0.24177 0.19325 0.0
H527 H 0.15589 0.25439 0.27238 0.0
H528 H 0.19964 0.25537 0.12075 0.0
H529 H 0.20114 0.27998 0.05211 0.0
C530 C 0.68429 0.11891 0.32687 0.0
C531 C 0.67037 0.13358 0.38261 0.0
C532 C 0.63289 0.15533 0.30545 0.0
C533 C 0.64888 0.14336 0.24917 0.0
N534 N 0.69424 0.1201 0.20623 0.0
N535 N 0.63487 0.17044 0.42368 0.0
C536 C 0.67582 0.12687 0.25976 0.0
C537 C 0.64555 0.15308 0.37166 0.0
N538 N 0.70479 0.09654 0.33779 0.0
N539 N 0.60519 0.16793 0.29613 0.0
H540 H 0.64398 0.17005 0.4725 0.0
H541 H 0.61893 0.18732 0.41682 0.0
H542 H 0.59496 0.16956 0.24858 0.0
H543 H 0.5912 0.17418 0.33619 0.0
H544 H 0.71326 0.08307 0.29888 0.0
H545 H 0.71097 0.08928 0.38622 0.0
H546 H 0.71554 0.11076 0.21236 0.0
H547 H 0.68986 0.12683 0.15644 0.0
C548 C 0.8484 0.6605 0.31345 0.0
C549 C 0.83463 0.6481 0.37212 0.0
C550 C 0.80114 0.61813 0.29994 0.0
C551 C 0.81339 0.6323 0.24162 0.0
N552 N 0.84256 0.67314 0.19469 0.0
N553 N 0.79282 0.62113 0.42136 0.0
C554 C 0.8352 0.65536 0.24888 0.0
C555 C 0.80947 0.62866 0.36547 0.0
N556 N 0.87485 0.67594 0.3186 0.0
N557 N 0.78259 0.59384 0.29309 0.0
H558 H 0.79746 0.62932 0.46992 0.0
H559 H 0.7726 0.60942 0.41841 0.0
H560 H 0.77625 0.58512 0.24603 0.0
H561 H 0.77569 0.5807 0.33407 0.0
H562 H 0.88733 0.68264 0.2764 0.0
H563 H 0.88595 0.67945 0.36458 0.0
H564 H 0.85616 0.69211 0.199 0.0
H565 H 0.83243 0.67102 0.14711 0.0
C566 C 0.34872 0.83599 0.37609 0.0
C567 C 0.33021 0.86165 0.38626 0.0
C568 C 0.3285 0.86984 0.26329 0.0
C569 C 0.3501 0.84668 0.25396 0.0
N570 N 0.38478 0.81106 0.30304 0.0
N571 N 0.30752 0.90661 0.34039 0.0
C572 C 0.36135 0.83064 0.31081 0.0
C573 C 0.32149 0.87962 0.33009 0.0
N574 N 0.35314 0.81593 0.42778 0.0
N575 N 0.31354 0.88156 0.20868 0.0
H576 H 0.30273 0.91511 0.38861 0.0
H577 H 0.30352 0.92195 0.30139 0.0
H578 H 0.31686 0.8741 0.15898 0.0
H579 H 0.29547 0.89631 0.21352 0.0
H580 H 0.36388 0.79534 0.42103 0.0
H581 H 0.34341 0.81833 0.4757 0.0
H582 H 0.39591 0.80118 0.34393 0.0
H583 H 0.39499 0.80687 0.25625 0.0
C584 C 0.16016 0.61215 0.70191 0.0
C585 C 0.16525 0.64104 0.67377 0.0
C586 C 0.18851 0.65768 0.78021 0.0
C587 C 0.18539 0.62812 0.80638 0.0
N588 N 0.17407 0.57575 0.78788 0.0
N589 N 0.18936 0.68959 0.68039 0.0
C590 C 0.17292 0.6049 0.76592 0.0
C591 C 0.18089 0.66337 0.71126 0.0
N592 N 0.14202 0.59207 0.66897 0.0
N593 N 0.19747 0.68059 0.8219 0.0
H594 H 0.18444 0.69453 0.62976 0.0
H595 H 0.20355 0.70528 0.70298 0.0
H596 H 0.20329 0.67741 0.87274 0.0
H597 H 0.19681 0.70313 0.80773 0.0
H598 H 0.13485 0.57195 0.69059 0.0
H599 H 0.13176 0.5967 0.62246 0.0
H600 H 0.16816 0.5575 0.75756 0.0
H601 H 0.18372 0.56953 0.83413 0.0
C602 C 0.2967 0.114 0.71793 0.0
C603 C 0.31345 0.12234 0.65956 0.0
C604 C 0.35472 0.13966 0.73224 0.0
C605 C 0.33696 0.1335 0.79048 0.0
N606 N 0.28795 0.12274 0.83758 0.0
N607 N 0.35514 0.14979 0.61131 0.0
C608 C 0.307 0.12301 0.78302 0.0
C609 C 0.34153 0.13717 0.66672 0.0
N610 N 0.27177 0.09625 0.71183 0.0
N611 N 0.38448 0.14658 0.73909 0.0
H612 H 0.34572 0.14928 0.56277 0.0
H613 H 0.37411 0.16341 0.61473 0.0
H614 H 0.39519 0.14813 0.7861 0.0
H615 H 0.39918 0.14808 0.69797 0.0
H616 H 0.26071 0.08692 0.75351 0.0
H617 H 0.26384 0.08832 0.66531 0.0
H618 H 0.26509 0.11805 0.83335 0.0
H619 H 0.29415 0.13044 0.88566 0.0
C620 C 0.80214 0.38063 0.84776 0.0
C621 C 0.81599 0.36751 0.90552 0.0
C622 C 0.85475 0.34522 0.83229 0.0
C623 C 0.83955 0.35655 0.77436 0.0
N624 N 0.79405 0.37731 0.72656 0.0
N625 N 0.85125 0.33156 0.95129 0.0
C626 C 0.81179 0.37192 0.78197 0.0
C627 C 0.84108 0.34807 0.89739 0.0
N628 N 0.7809 0.40259 0.85533 0.0
N629 N 0.88274 0.33291 0.82575 0.0
H630 H 0.84128 0.33239 -0.00072 0.0
H631 H 0.86752 0.31485 0.94673 0.0
H632 H 0.89362 0.33063 0.77907 0.0
H633 H 0.8962 0.32733 0.86718 0.0
H634 H 0.7725 0.41502 0.81464 0.0
H635 H 0.7739 0.41066 0.9025 0.0
H636 H 0.77231 0.38588 0.73034 0.0
H637 H 0.79961 0.37007 0.6777 0.0
C638 C 0.65196 0.88745 0.86558 0.0
C639 C 0.66434 0.86224 0.89977 0.0
C640 C 0.6938 0.84934 0.79838 0.0
C641 C 0.6827 0.87553 0.76563 0.0
N642 N 0.6561 0.92262 0.77183 0.0
N643 N 0.70129 0.82261 0.90447 0.0
C644 C 0.66321 0.89553 0.80044 0.0
C645 C 0.68652 0.84415 0.86783 0.0
N646 N 0.62851 0.90286 0.89397 0.0
N647 N 0.71011 0.82869 0.76237 0.0
H648 H 0.69665 0.81818 0.95549 0.0
H649 H 0.71991 0.81093 0.88624 0.0
H650 H 0.71608 0.83161 0.71153 0.0
H651 H 0.71576 0.80756 0.78119 0.0
H652 H 0.61633 0.91928 0.86825 0.0
H653 H 0.61944 0.8975 0.94135 0.0
H654 H 0.64456 0.93952 0.79753 0.0
H655 H 0.66417 0.92934 0.72439 0.0
C656 C 0.845 0.64687 0.78869 0.0
C657 C 0.83197 0.67066 0.75076 0.0
C658 C 0.79613 0.68064 0.84257 0.0
C659 C 0.80949 0.65708 0.88022 0.0
N660 N 0.8506 0.62275 0.89823 0.0
N661 N 0.79824 0.7129 0.7429 0.0
C662 C 0.83527 0.64185 0.85615 0.0
C663 C 0.80838 0.68842 0.77809 0.0
N664 N 0.86529 0.62786 0.75882 0.0
N665 N 0.77157 0.69512 0.86836 0.0
H666 H 0.80655 0.71885 0.69516 0.0
H667 H 0.78296 0.72843 0.76214 0.0
H668 H 0.76358 0.69104 0.9174 0.0
H669 H 0.75864 0.71045 0.8412 0.0
H670 H 0.87286 0.6081 0.7814 0.0
H671 H 0.87267 0.63018 0.70876 0.0
H672 H 0.87141 0.61348 0.88613 0.0
H673 H 0.84392 0.61835 0.94812 0.0
C674 C 0.29294 0.81506 0.77416 0.0
C675 C 0.2963 0.84585 0.75693 0.0
C676 C 0.31495 0.85676 0.87112 0.0
C677 C 0.31572 0.82554 0.88486 0.0
N678 N 0.30734 0.77438 0.84988 0.0
N679 N 0.31597 0.89511 0.78459 0.0
C680 C 0.30515 0.80444 0.83656 0.0
C681 C 0.30841 0.8666 0.80442 0.0
N682 N 0.2774 0.79629 0.73188 0.0
N683 N 0.32097 0.87709 0.9215 0.0
H684 H 0.3132 0.90314 0.73522 0.0
H685 H 0.32802 0.90994 0.81518 0.0
H686 H 0.32697 0.87091 0.97078 0.0
H687 H 0.31736 0.90011 0.91609 0.0
H688 H 0.27182 0.77426 0.74449 0.0
H689 H 0.26774 0.8036 0.68646 0.0
H690 H 0.30318 0.75777 0.81379 0.0
H691 H 0.31492 0.7661 0.89648 0.0
C692 C 0.19468 0.35592 0.62188 0.0
C693 C 0.18953 0.32547 0.60547 0.0
C694 C 0.2118 0.31019 0.71369 0.0
C695 C 0.21053 0.34055 0.73579 0.0
N696 N 0.1965 0.39234 0.71222 0.0
N697 N 0.194 0.27302 0.63269 0.0
C698 C 0.20154 0.36363 0.68992 0.0
C699 C 0.19866 0.30234 0.65025 0.0
N700 N 0.19186 0.37758 0.57304 0.0
N701 N 0.22592 0.28914 0.75289 0.0
H702 H 0.18622 0.26684 0.58461 0.0
H703 H 0.19678 0.25513 0.66624 0.0
H704 H 0.23656 0.29459 0.79855 0.0
H705 H 0.22962 0.2671 0.73716 0.0
H706 H 0.19816 0.39988 0.58076 0.0
H707 H 0.18627 0.37264 0.52279 0.0
H708 H 0.1867 0.40888 0.68204 0.0
H709 H 0.19887 0.3992 0.76249 0.0
C710 C 0.69718 0.19208 0.84348 0.0
C711 C 0.68813 0.16917 0.88907 0.0
C712 C 0.69947 0.13069 0.80458 0.0
C713 C 0.70969 0.15341 0.75925 0.0
N714 N 0.72481 0.20481 0.74095 0.0
N715 N 0.68848 0.11673 0.92064 0.0
C716 C 0.71058 0.18391 0.78038 0.0
C717 C 0.69229 0.13852 0.87236 0.0
N718 N 0.6924 0.22151 0.86004 0.0
N719 N 0.69383 0.10218 0.78174 0.0
H720 H 0.68222 0.12136 0.97062 0.0
H721 H 0.69442 0.09434 0.91276 0.0
H722 H 0.69634 0.0955 0.73133 0.0
H723 H 0.68323 0.08586 0.8112 0.0
H724 H 0.69521 0.23917 0.82588 0.0
H725 H 0.68422 0.22807 0.90753 0.0
H726 H 0.72845 0.22691 0.75629 0.0
H727 H 0.73549 0.19928 0.69538 0.0
C728 C 0.78988 0.3364 0.38769 0.0
C729 C 0.8128 0.35587 0.41162 0.0
C730 C 0.80989 0.38605 0.30824 0.0
C731 C 0.78732 0.3664 0.28346 0.0
N732 N 0.75218 0.32611 0.30104 0.0
N733 N 0.8387 0.4033 0.40508 0.0
C734 C 0.77605 0.34259 0.32391 0.0
C735 C 0.82095 0.382 0.37502 0.0
N736 N 0.78225 0.31156 0.42476 0.0
N737 N 0.82178 0.40772 0.26678 0.0
H738 H 0.84685 0.40117 0.4546 0.0
H739 H 0.84292 0.42432 0.38389 0.0
H740 H 0.81404 0.41191 0.21765 0.0
H741 H 0.84082 0.42018 0.27903 0.0
H742 H 0.76755 0.29498 0.40802 0.0
H743 H 0.79168 0.30673 0.47203 0.0
H744 H 0.74097 0.31003 0.32984 0.0
H745 H 0.74235 0.32984 0.25367 0.0
C746 C 0.69269 0.81261 0.29319 0.0
C747 C 0.66456 0.82508 0.2742 0.0
C748 C 0.65804 0.84501 0.3892 0.0
C749 C 0.68812 0.8372 0.40416 0.0
N750 N 0.73493 0.81439 0.37131 0.0
N751 N 0.62321 0.85863 0.3008 0.0
C752 C 0.70571 0.82106 0.35648 0.0
C753 C 0.64768 0.84238 0.32153 0.0
N754 N 0.70649 0.79218 0.25172 0.0
N755 N 0.63957 0.85586 0.43908 0.0
H756 H 0.61587 0.85963 0.25059 0.0
H757 H 0.6122 0.87406 0.33192 0.0
H758 H 0.64651 0.85899 0.48918 0.0
H759 H 0.61655 0.85889 0.43221 0.0
H760 H 0.72574 0.78036 0.2655 0.0
H761 H 0.69709 0.78498 0.20594 0.0
H762 H 0.75004 0.80582 0.33578 0.0
H763 H 0.74438 0.81878 0.41885 0.0
C764 C 0.15144 0.63988 0.27129 0.0
C765 C 0.16256 0.66561 0.30549 0.0
C766 C 0.19866 0.67483 0.21394 0.0
C767 C 0.18681 0.64958 0.17913 0.0
N768 N 0.14767 0.61254 0.16542 0.0
N769 N 0.19346 0.70999 0.30798 0.0
C770 C 0.16192 0.63343 0.20508 0.0
C771 C 0.18525 0.68389 0.27636 0.0
N772 N 0.13181 0.62086 0.30326 0.0
N773 N 0.22314 0.68947 0.18815 0.0
H774 H 0.18433 0.71675 0.35442 0.0
H775 H 0.2078 0.72587 0.28666 0.0
H776 H 0.23275 0.68387 0.14143 0.0
H777 H 0.2349 0.70609 0.21413 0.0
H778 H 0.12586 0.59987 0.28406 0.0
H779 H 0.12324 0.62477 0.35183 0.0
H780 H 0.12738 0.60247 0.1787 0.0
H781 H 0.15453 0.60729 0.11608 0.0
C782 C 0.31309 0.11116 0.25033 0.0
C783 C 0.29222 0.13139 0.28006 0.0
C784 C 0.29799 0.16605 0.18423 0.0
C785 C 0.31832 0.14543 0.1542 0.0
N786 N 0.34007 0.09583 0.14924 0.0
N787 N 0.26108 0.17553 0.27295 0.0
C788 C 0.32423 0.11716 0.18435 0.0
C789 C 0.28351 0.15814 0.24623 0.0
N790 N 0.3236 0.08711 0.28665 0.0
N791 N 0.29324 0.19336 0.15428 0.0
H792 H 0.25039 0.17033 0.31869 0.0
H793 H 0.25159 0.19384 0.24803 0.0
H794 H 0.3027 0.1992 0.10756 0.0
H795 H 0.28115 0.21075 0.17676 0.0
H796 H 0.34154 0.0738 0.27086 0.0
H797 H 0.31616 0.08173 0.33543 0.0
H798 H 0.34221 0.07364 0.16535 0.0
H799 H 0.34886 0.0995 0.10075 0.0
loop_
_geom_bond_atom_site_label_1
_geom_bond_atom_site_label_2
_geom_bond_distance
_geom_bond_site_symmetry_2
_ccdc_geom_bond_type
Mg0 O1 2.028 . S
Mg0 O7 1.986 . S
Mg0 O9 2.114 1_554 S
Mg0 O10 2.251 1_554 S
Mg0 O13 2.010 . S
O1 Mg0 2.028 . S
O1 C4 1.250 . S
O2 Mg3 2.028 . S
O2 C4 1.248 1_556 S
Mg3 O2 2.028 . S
Mg3 O8 2.032 . S
Mg3 O10 2.079 . S
C4 O1 1.250 . S
C4 O2 1.248 1_554 S
C5 O6 1.264 . S
C5 O13 1.249 . S
O6 C5 1.264 . S
O7 Mg0 1.986 . S
O7 C11 1.246 . S
O8 Mg3 2.032 . S
O8 C11 1.259 1_556 S
O9 Mg0 2.114 1_556 S
O9 C12 1.252 . S
O10 Mg0 2.251 1_556 S
O10 Mg3 2.079 . S
O10 C12 1.273 . S
C11 O7 1.246 . S
C11 O8 1.259 1_554 S
C12 O9 1.252 . S
C12 O10 1.273 . S
O13 Mg0 2.010 . S
O13 C5 1.249 . S
Mg14 O15 2.028 . S
Mg14 O21 1.986 . S
Mg14 O23 2.114 1_554 S
Mg14 O24 2.251 1_554 S
Mg14 O27 2.010 . S
O15 Mg14 2.028 . S
O15 C18 1.250 . S
O16 Mg17 2.028 . S
O16 C18 1.248 1_556 S
Mg17 O16 2.028 . S
Mg17 O22 2.032 . S
Mg17 O24 2.079 . S
C18 O15 1.250 . S
C18 O16 1.248 1_554 S
C19 O20 1.264 . S
C19 O27 1.249 . S
O20 C19 1.264 . S
O21 Mg14 1.986 . S
O21 C25 1.246 . S
O22 Mg17 2.032 . S
O22 C25 1.259 1_556 S
O23 Mg14 2.114 1_556 S
O23 C26 1.252 . S
O24 Mg14 2.251 1_556 S
O24 Mg17 2.079 . S
O24 C26 1.273 . S
C25 O21 1.246 . S
C25 O22 1.259 1_554 S
C26 O23 1.252 . S
C26 O24 1.273 . S
O27 Mg14 2.010 . S
O27 C19 1.249 . S
Mg28 O29 2.028 . S
Mg28 O35 1.986 . S
Mg28 O37 2.114 1_554 S
Mg28 O38 2.251 1_554 S
Mg28 O41 2.010 . S
O29 Mg28 2.028 . S
O29 C32 1.250 . S
O30 Mg31 2.028 . S
O30 C32 1.248 1_556 S
Mg31 O30 2.028 . S
Mg31 O36 2.032 . S
Mg31 O38 2.079 . S
C32 O29 1.250 . S
C32 O30 1.248 1_554 S
C33 O34 1.264 . S
C33 O41 1.249 . S
O34 C33 1.264 . S
O35 Mg28 1.986 . S
O35 C39 1.246 . S
O36 Mg31 2.032 . S
O36 C39 1.259 1_556 S
O37 Mg28 2.114 1_556 S
O37 C40 1.252 . S
O38 Mg28 2.251 1_556 S
O38 Mg31 2.079 . S
O38 C40 1.273 . S
C39 O35 1.246 . S
C39 O36 1.259 1_554 S
C40 O37 1.252 . S
C40 O38 1.273 . S
O41 Mg28 2.010 . S
O41 C33 1.249 . S
Mg42 O43 2.028 . S
Mg42 O49 1.986 . S
Mg42 O51 2.114 1_554 S
Mg42 O52 2.251 1_554 S
Mg42 O55 2.010 . S
O43 Mg42 2.028 . S
O43 C46 1.250 . S
O44 Mg45 2.028 . S
O44 C46 1.248 1_556 S
Mg45 O44 2.028 . S
Mg45 O50 2.032 . S
Mg45 O52 2.079 . S
C46 O43 1.250 . S
C46 O44 1.248 1_554 S
C47 O48 1.264 . S
C47 O55 1.249 . S
O48 C47 1.264 . S
O49 Mg42 1.986 . S
O49 C53 1.246 . S
O50 Mg45 2.032 . S
O50 C53 1.259 1_556 S
O51 Mg42 2.114 1_556 S
O51 C54 1.252 . S
O52 Mg42 2.251 1_556 S
O52 Mg45 2.079 . S
O52 C54 1.273 . S
C53 O49 1.246 . S
C53 O50 1.259 1_554 S
C54 O51 1.252 . S
C54 O52 1.273 . S
O55 Mg42 2.010 . S
O55 C47 1.249 . S
Mg56 O57 2.028 . S
Mg56 O63 1.986 . S
Mg56 O65 2.114 . S
Mg56 O66 2.251 . S
Mg56 O69 2.010 1_554 S
O57 Mg56 2.028 . S
O57 C60 1.250 . S
O58 Mg59 2.028 . S
O58 C60 1.248 . S
Mg59 O58 2.028 . S
Mg59 O64 2.032 . S
Mg59 O66 2.079 . S
C60 O57 1.250 . S
C60 O58 1.248 . S
C61 O62 1.264 . S
C61 O69 1.249 . S
O62 C61 1.264 . S
O63 Mg56 1.986 . S
O63 C67 1.246 . S
O64 Mg59 2.032 . S
O64 C67 1.259 . S
O65 Mg56 2.114 . S
O65 C68 1.252 . S
O66 Mg56 2.251 . S
O66 Mg59 2.079 . S
O66 C68 1.273 . S
C67 O63 1.246 . S
C67 O64 1.259 . S
C68 O65 1.252 . S
C68 O66 1.273 . S
O69 Mg56 2.010 1_556 S
O69 C61 1.249 . S
Mg70 O71 2.028 . S
Mg70 O77 1.986 . S
Mg70 O79 2.114 . S
Mg70 O80 2.251 . S
Mg70 O83 2.010 1_554 S
O71 Mg70 2.028 . S
O71 C74 1.250 . S
O72 Mg73 2.028 . S
O72 C74 1.248 . S
Mg73 O72 2.028 . S
Mg73 O78 2.032 . S
Mg73 O80 2.079 . S
C74 O71 1.250 . S
C74 O72 1.248 . S
C75 O76 1.264 . S
C75 O83 1.249 . S
O76 C75 1.264 . S
O77 Mg70 1.986 . S
O77 C81 1.246 . S
O78 Mg73 2.032 . S
O78 C81 1.259 . S
O79 Mg70 2.114 . S
O79 C82 1.252 . S
O80 Mg70 2.251 . S
O80 Mg73 2.079 . S
O80 C82 1.273 . S
C81 O77 1.246 . S
C81 O78 1.259 . S
C82 O79 1.252 . S
C82 O80 1.273 . S
O83 Mg70 2.010 1_556 S
O83 C75 1.249 . S
Mg84 O85 2.028 . S
Mg84 O91 1.986 . S
Mg84 O93 2.114 . S
Mg84 O94 2.251 . S
Mg84 O97 2.010 1_554 S
O85 Mg84 2.028 . S
O85 C88 1.250 . S
O86 Mg87 2.028 . S
O86 C88 1.248 . S
Mg87 O86 2.028 . S
Mg87 O92 2.032 . S
Mg87 O94 2.079 . S
C88 O85 1.250 . S
C88 O86 1.248 . S
C89 O90 1.264 . S
C89 O97 1.249 . S
O90 C89 1.264 . S
O91 Mg84 1.986 . S
O91 C95 1.246 . S
O92 Mg87 2.032 . S
O92 C95 1.259 . S
O93 Mg84 2.114 . S
O93 C96 1.252 . S
O94 Mg84 2.251 . S
O94 Mg87 2.079 . S
O94 C96 1.273 . S
C95 O91 1.246 . S
C95 O92 1.259 . S
C96 O93 1.252 . S
C96 O94 1.273 . S
O97 Mg84 2.010 1_556 S
O97 C89 1.249 . S
Mg98 O99 2.028 . S
Mg98 O105 1.986 . S
Mg98 O107 2.114 . S
Mg98 O108 2.251 . S
Mg98 O111 2.010 1_554 S
O99 Mg98 2.028 . S
O99 C102 1.250 . S
O100 Mg101 2.028 . S
O100 C102 1.248 . S
Mg101 O100 2.028 . S
Mg101 O106 2.032 . S
Mg101 O108 2.079 . S
C102 O99 1.250 . S
C102 O100 1.248 . S
C103 O104 1.264 . S
C103 O111 1.249 . S
O104 C103 1.264 . S
O105 Mg98 1.986 . S
O105 C109 1.246 . S
O106 Mg101 2.032 . S
O106 C109 1.259 . S
O107 Mg98 2.114 . S
O107 C110 1.252 . S
O108 Mg98 2.251 . S
O108 Mg101 2.079 . S
O108 C110 1.273 . S
C109 O105 1.246 . S
C109 O106 1.259 . S
C110 O107 1.252 . S
C110 O108 1.273 . S
O111 Mg98 2.010 1_556 S
O111 C103 1.249 . S
Mg112 O113 2.028 . S
Mg112 O119 1.986 . S
Mg112 O121 2.114 . S
Mg112 O122 2.251 . S
Mg112 O125 2.010 . S
O113 Mg112 2.028 . S
O113 C116 1.250 . S
O114 Mg115 2.028 . S
O114 C116 1.248 . S
Mg115 O114 2.028 . S
Mg115 O120 2.032 . S
Mg115 O122 2.079 . S
C116 O113 1.250 . S
C116 O114 1.248 . S
C117 O118 1.264 . S
C117 O125 1.249 . S
O118 C117 1.264 . S
O119 Mg112 1.986 . S
O119 C123 1.246 . S
O120 Mg115 2.032 . S
O120 C123 1.259 . S
O121 Mg112 2.114 . S
O121 C124 1.252 . S
O122 Mg112 2.251 . S
O122 Mg115 2.079 . S
O122 C124 1.273 . S
C123 O119 1.246 . S
C123 O120 1.259 . S
C124 O121 1.252 . S
C124 O122 1.273 . S
O125 Mg112 2.010 . S
O125 C117 1.249 . S
Mg126 O127 2.028 . S
Mg126 O133 1.986 . S
Mg126 O135 2.114 . S
Mg126 O136 2.251 . S
Mg126 O139 2.010 . S
O127 Mg126 2.028 . S
O127 C130 1.250 . S
O128 Mg129 2.028 . S
O128 C130 1.248 . S
Mg129 O128 2.028 . S
Mg129 O134 2.032 . S
Mg129 O136 2.079 . S
C130 O127 1.250 . S
C130 O128 1.248 . S
C131 O132 1.264 . S
C131 O139 1.249 . S
O132 C131 1.264 . S
O133 Mg126 1.986 . S
O133 C137 1.246 . S
O134 Mg129 2.032 . S
O134 C137 1.259 . S
O135 Mg126 2.114 . S
O135 C138 1.252 . S
O136 Mg126 2.251 . S
O136 Mg129 2.079 . S
O136 C138 1.273 . S
C137 O133 1.246 . S
C137 O134 1.259 . S
C138 O135 1.252 . S
C138 O136 1.273 . S
O139 Mg126 2.010 . S
O139 C131 1.249 . S
Mg140 O141 2.028 . S
Mg140 O147 1.986 . S
Mg140 O149 2.114 . S
Mg140 O150 2.251 . S
Mg140 O153 2.010 . S
O141 Mg140 2.028 . S
O141 C144 1.250 . S
O142 Mg143 2.028 . S
O142 C144 1.248 . S
Mg143 O142 2.028 . S
Mg143 O148 2.032 . S
Mg143 O150 2.079 . S
C144 O141 1.250 . S
C144 O142 1.248 . S
C145 O146 1.264 . S
C145 O153 1.249 . S
O146 C145 1.264 . S
O147 Mg140 1.986 . S
O147 C151 1.246 . S
O148 Mg143 2.032 . S
O148 C151 1.259 . S
O149 Mg140 2.114 . S
O149 C152 1.252 . S
O150 Mg140 2.251 . S
O150 Mg143 2.079 . S
O150 C152 1.273 . S
C151 O147 1.246 . S
C151 O148 1.259 . S
C152 O149 1.252 . S
C152 O150 1.273 . S
O153 Mg140 2.010 . S
O153 C145 1.249 . S
Mg154 O155 2.028 . S
Mg154 O161 1.986 . S
Mg154 O163 2.114 . S
Mg154 O164 2.251 . S
Mg154 O167 2.010 . S
O155 Mg154 2.028 . S
O155 C158 1.250 . S
O156 Mg157 2.028 . S
O156 C158 1.248 . S
Mg157 O156 2.028 . S
Mg157 O162 2.032 . S
Mg157 O164 2.079 . S
C158 O155 1.250 . S
C158 O156 1.248 . S
C159 O160 1.264 . S
C159 O167 1.249 . S
O160 C159 1.264 . S
O161 Mg154 1.986 . S
O161 C165 1.246 . S
O162 Mg157 2.032 . S
O162 C165 1.259 . S
O163 Mg154 2.114 . S
O163 C166 1.252 . S
O164 Mg154 2.251 . S
O164 Mg157 2.079 . S
O164 C166 1.273 . S
C165 O161 1.246 . S
C165 O162 1.259 . S
C166 O163 1.252 . S
C166 O164 1.273 . S
O167 Mg154 2.010 . S
O167 C159 1.249 . S
Mg168 O169 2.028 . S
Mg168 O175 1.986 . S
Mg168 O177 2.114 . S
Mg168 O178 2.251 . S
Mg168 O181 2.010 . S
O169 Mg168 2.028 . S
O169 C172 1.250 . S
O170 Mg171 2.028 . S
O170 C172 1.248 . S
Mg171 O170 2.028 . S
Mg171 O176 2.032 . S
Mg171 O178 2.079 . S
C172 O169 1.250 . S
C172 O170 1.248 . S
C173 O174 1.264 . S
C173 O181 1.249 . S
O174 C173 1.264 . S
O175 Mg168 1.986 . S
O175 C179 1.246 . S
O176 Mg171 2.032 . S
O176 C179 1.259 . S
O177 Mg168 2.114 . S
O177 C180 1.252 . S
O178 Mg168 2.251 . S
O178 Mg171 2.079 . S
O178 C180 1.273 . S
C179 O175 1.246 . S
C179 O176 1.259 . S
C180 O177 1.252 . S
C180 O178 1.273 . S
O181 Mg168 2.010 . S
O181 C173 1.249 . S
Mg182 O183 2.028 . S
Mg182 O189 1.986 . S
Mg182 O191 2.114 . S
Mg182 O192 2.251 . S
Mg182 O195 2.010 . S
O183 Mg182 2.028 . S
O183 C186 1.250 . S
O184 Mg185 2.028 . S
O184 C186 1.248 . S
Mg185 O184 2.028 . S
Mg185 O190 2.032 . S
Mg185 O192 2.079 . S
C186 O183 1.250 . S
C186 O184 1.248 . S
C187 O188 1.264 . S
C187 O195 1.249 . S
O188 C187 1.264 . S
O189 Mg182 1.986 . S
O189 C193 1.246 . S
O190 Mg185 2.032 . S
O190 C193 1.259 . S
O191 Mg182 2.114 . S
O191 C194 1.252 . S
O192 Mg182 2.251 . S
O192 Mg185 2.079 . S
O192 C194 1.273 . S
C193 O189 1.246 . S
C193 O190 1.259 . S
C194 O191 1.252 . S
C194 O192 1.273 . S
O195 Mg182 2.010 . S
O195 C187 1.249 . S
Mg196 O197 2.028 . S
Mg196 O203 1.986 . S
Mg196 O205 2.114 . S
Mg196 O206 2.251 . S
Mg196 O209 2.010 . S
O197 Mg196 2.028 . S
O197 C200 1.250 . S
O198 Mg199 2.028 . S
O198 C200 1.248 . S
Mg199 O198 2.028 . S
Mg199 O204 2.032 . S
Mg199 O206 2.079 . S
C200 O197 1.250 . S
C200 O198 1.248 . S
C201 O202 1.264 . S
C201 O209 1.249 . S
O202 C201 1.264 . S
O203 Mg196 1.986 . S
O203 C207 1.246 . S
O204 Mg199 2.032 . S
O204 C207 1.259 . S
O205 Mg196 2.114 . S
O205 C208 1.252 . S
O206 Mg196 2.251 . S
O206 Mg199 2.079 . S
O206 C208 1.273 . S
C207 O203 1.246 . S
C207 O204 1.259 . S
C208 O205 1.252 . S
C208 O206 1.273 . S
O209 Mg196 2.010 . S
O209 C201 1.249 . S
Mg210 O211 2.028 . S
Mg210 O217 1.986 . S
Mg210 O219 2.114 . S
Mg210 O220 2.251 . S
Mg210 O223 2.010 . S
O211 Mg210 2.028 . S
O211 C214 1.250 . S
O212 Mg213 2.028 . S
O212 C214 1.248 . S
Mg213 O212 2.028 . S
Mg213 O218 2.032 . S
Mg213 O220 2.079 . S
C214 O211 1.250 . S
C214 O212 1.248 . S
C215 O216 1.264 . S
C215 O223 1.249 . S
O216 C215 1.264 . S
O217 Mg210 1.986 . S
O217 C221 1.246 . S
O218 Mg213 2.032 . S
O218 C221 1.259 . S
O219 Mg210 2.114 . S
O219 C222 1.252 . S
O220 Mg210 2.251 . S
O220 Mg213 2.079 . S
O220 C222 1.273 . S
C221 O217 1.246 . S
C221 O218 1.259 . S
C222 O219 1.252 . S
C222 O220 1.273 . S
O223 Mg210 2.010 . S
O223 C215 1.249 . S
C224 C225 1.363 . S
C224 C230 1.379 . S
C224 N232 1.356 . S
C225 C224 1.363 . S
C225 C231 1.363 1_554 S
C226 C227 1.363 1_556 S
C226 C231 1.379 . S
C226 N233 1.356 . S
C227 C226 1.363 1_554 S
C227 C230 1.363 . S
N228 C230 1.356 . S
N228 H240 0.984 . S
N228 H241 0.985 . S
N229 C231 1.356 . S
N229 H234 0.984 . S
N229 H235 0.985 . S
C230 C224 1.379 . S
C230 C227 1.363 . S
C230 N228 1.356 . S
C231 C225 1.363 1_556 S
C231 C226 1.379 . S
C231 N229 1.356 . S
N232 C224 1.356 . S
N232 H238 0.984 . S
N232 H239 0.984 . S
N233 C226 1.356 . S
N233 H236 0.984 . S
N233 H237 0.985 . S
H234 N229 0.984 . S
H235 N229 0.985 . S
H236 N233 0.984 . S
H237 N233 0.985 . S
H238 N232 0.984 . S
H239 N232 0.984 . S
H240 N228 0.984 . S
H241 N228 0.985 . S
C242 C243 1.363 . S
C242 C248 1.377 1_554 S
C242 N250 1.356 1_554 S
C243 C242 1.363 . S
C243 C249 1.363 . S
C244 C245 1.363 . S
C244 C249 1.379 . S
C244 N251 1.356 . S
C245 C244 1.363 . S
C245 C248 1.356 1_554 S
N246 C248 1.363 . S
N246 H258 0.984 . S
N246 H259 0.985 . S
N247 C249 1.356 . S
N247 H252 0.984 . S
N247 H253 0.985 . S
C248 C242 1.377 1_556 S
C248 C245 1.356 1_556 S
C248 N246 1.363 . S
C249 C243 1.363 . S
C249 C244 1.379 . S
C249 N247 1.356 . S
N250 C242 1.356 1_556 S
N250 H256 0.984 . S
N250 H257 0.984 . S
N251 C244 1.356 . S
N251 H254 0.984 . S
N251 H255 0.985 . S
H252 N247 0.984 . S
H253 N247 0.985 . S
H254 N251 0.984 . S
H255 N251 0.985 . S
H256 N250 0.984 . S
H257 N250 0.984 . S
H258 N246 0.984 . S
H259 N246 0.985 . S
C260 C261 1.363 . S
C260 C266 1.379 . S
C260 N268 1.356 . S
C261 C260 1.363 . S
C261 C267 1.363 1_554 S
C262 C263 1.363 1_556 S
C262 C267 1.379 . S
C262 N269 1.356 . S
C263 C262 1.363 1_554 S
C263 C266 1.363 . S
N264 C266 1.356 . S
N264 H276 0.984 . S
N264 H277 0.985 . S
N265 C267 1.356 . S
N265 H270 0.984 . S
N265 H271 0.985 . S
C266 C260 1.379 . S
C266 C263 1.363 . S
C266 N264 1.356 . S
C267 C261 1.363 1_556 S
C267 C262 1.379 . S
C267 N265 1.356 . S
N268 C260 1.356 . S
N268 H274 0.984 . S
N268 H275 0.984 . S
N269 C262 1.356 . S
N269 H272 0.984 . S
N269 H273 0.985 . S
H270 N265 0.984 . S
H271 N265 0.985 . S
H272 N269 0.984 . S
H273 N269 0.985 . S
H274 N268 0.984 . S
H275 N268 0.984 . S
H276 N264 0.984 . S
H277 N264 0.985 . S
C278 C279 1.363 . S
C278 C284 1.379 . S
C278 N286 1.356 . S
C279 C278 1.363 . S
C279 C285 1.363 . S
C280 C281 1.357 1_556 S
C280 C285 1.377 1_556 S
C280 N287 1.363 . S
C281 C280 1.357 1_554 S
C281 C284 1.363 . S
N282 C284 1.356 . S
N282 H294 0.984 . S
N282 H295 0.985 . S
N283 C285 1.356 1_556 S
N283 H288 0.984 . S
N283 H289 0.985 . S
C284 C278 1.379 . S
C284 C281 1.363 . S
C284 N282 1.356 . S
C285 C279 1.363 . S
C285 C280 1.377 1_554 S
C285 N283 1.356 1_554 S
N286 C278 1.356 . S
N286 H292 0.984 . S
N286 H293 0.984 . S
N287 C280 1.363 . S
N287 H290 0.984 . S
N287 H291 0.985 . S
H288 N283 0.984 . S
H289 N283 0.985 . S
H290 N287 0.984 . S
H291 N287 0.985 . S
H292 N286 0.984 . S
H293 N286 0.984 . S
H294 N282 0.984 . S
H295 N282 0.985 . S
C296 C297 1.363 . S
C296 C302 1.379 1_545 S
C296 N304 1.356 . S
C297 C296 1.363 . S
C297 C303 1.363 . S
C298 C299 1.363 . S
C298 C303 1.379 1_565 S
C298 N305 1.356 . S
C299 C298 1.363 . S
C299 C302 1.363 . S
N300 C302 1.356 . S
N300 H312 0.984 . S
N300 H313 0.985 . S
N301 C303 1.356 . S
N301 H306 0.984 . S
N301 H307 0.985 . S
C302 C296 1.379 1_565 S
C302 C299 1.363 . S
C302 N300 1.356 . S
C303 C297 1.363 . S
C303 C298 1.379 1_545 S
C303 N301 1.356 . S
N304 C296 1.356 . S
N304 H310 0.984 . S
N304 H311 0.984 . S
N305 C298 1.356 . S
N305 H308 0.984 . S
N305 H309 0.985 . S
H306 N301 0.984 . S
H307 N301 0.985 . S
H308 N305 0.984 . S
H309 N305 0.985 . S
H310 N304 0.984 . S
H311 N304 0.984 . S
H312 N300 0.984 . S
H313 N300 0.985 . S
C314 C315 1.363 . S
C314 C320 1.379 1_655 S
C314 N322 1.356 . S
C315 C314 1.363 . S
C315 C321 1.363 . S
C316 C317 1.363 . S
C316 C321 1.379 1_455 S
C316 N323 1.356 . S
C317 C316 1.363 . S
C317 C320 1.363 . S
N318 C320 1.356 . S
N318 H330 0.984 . S
N318 H331 0.985 . S
N319 C321 1.356 . S
N319 H324 0.984 . S
N319 H325 0.985 . S
C320 C314 1.379 1_455 S
C320 C317 1.363 . S
C320 N318 1.356 . S
C321 C315 1.363 . S
C321 C316 1.379 1_655 S
C321 N319 1.356 . S
N322 C314 1.356 . S
N322 H328 0.984 . S
N322 H329 0.984 . S
N323 C316 1.356 . S
N323 H326 0.984 . S
N323 H327 0.985 . S
H324 N319 0.984 . S
H325 N319 0.985 . S
H326 N323 0.984 . S
H327 N323 0.985 . S
H328 N322 0.984 . S
H329 N322 0.984 . S
H330 N318 0.984 . S
H331 N318 0.985 . S
C332 C333 1.363 . S
C332 C338 1.379 1_545 S
C332 N340 1.356 . S
C333 C332 1.363 . S
C333 C339 1.363 . S
C334 C335 1.363 . S
C334 C339 1.379 1_565 S
C334 N341 1.356 . S
C335 C334 1.363 . S
C335 C338 1.363 . S
N336 C338 1.356 . S
N336 H348 0.984 . S
N336 H349 0.985 . S
N337 C339 1.356 . S
N337 H342 0.984 . S
N337 H343 0.985 . S
C338 C332 1.379 1_565 S
C338 C335 1.363 . S
C338 N336 1.356 . S
C339 C333 1.363 . S
C339 C334 1.379 1_545 S
C339 N337 1.356 . S
N340 C332 1.356 . S
N340 H346 0.984 . S
N340 H347 0.984 . S
N341 C334 1.356 . S
N341 H344 0.984 . S
N341 H345 0.985 . S
H342 N337 0.984 . S
H343 N337 0.985 . S
H344 N341 0.984 . S
H345 N341 0.985 . S
H346 N340 0.984 . S
H347 N340 0.984 . S
H348 N336 0.984 . S
H349 N336 0.985 . S
C350 C351 1.363 . S
C350 C356 1.379 1_455 S
C350 N358 1.356 . S
C351 C350 1.363 . S
C351 C357 1.363 . S
C352 C353 1.363 . S
C352 C357 1.379 1_655 S
C352 N359 1.356 . S
C353 C352 1.363 . S
C353 C356 1.363 . S
N354 C356 1.356 . S
N354 H366 0.984 . S
N354 H367 0.985 . S
N355 C357 1.356 . S
N355 H360 0.984 . S
N355 H361 0.985 . S
C356 C350 1.379 1_655 S
C356 C353 1.363 . S
C356 N354 1.356 . S
C357 C351 1.363 . S
C357 C352 1.379 1_455 S
C357 N355 1.356 . S
N358 C350 1.356 . S
N358 H364 0.984 . S
N358 H365 0.984 . S
N359 C352 1.356 . S
N359 H362 0.984 . S
N359 H363 0.985 . S
H360 N355 0.984 . S
H361 N355 0.985 . S
H362 N359 0.984 . S
H363 N359 0.985 . S
H364 N358 0.984 . S
H365 N358 0.984 . S
H366 N354 0.984 . S
H367 N354 0.985 . S
C368 C369 1.363 . S
C368 C374 1.379 . S
C368 N376 1.356 . S
C369 C368 1.363 . S
C369 C375 1.363 1_554 S
C370 C371 1.363 1_556 S
C370 C375 1.379 . S
C370 N377 1.356 . S
C371 C370 1.363 1_554 S
C371 C374 1.363 . S
N372 C374 1.356 . S
N372 H384 0.984 . S
N372 H385 0.985 . S
N373 C375 1.356 . S
N373 H378 0.984 . S
N373 H379 0.985 . S
C374 C368 1.379 . S
C374 C371 1.363 . S
C374 N372 1.356 . S
C375 C369 1.363 1_556 S
C375 C370 1.379 . S
C375 N373 1.356 . S
N376 C368 1.356 . S
N376 H382 0.984 . S
N376 H383 0.984 . S
N377 C370 1.356 . S
N377 H380 0.984 . S
N377 H381 0.985 . S
H378 N373 0.984 . S
H379 N373 0.985 . S
H380 N377 0.984 . S
H381 N377 0.985 . S
H382 N376 0.984 . S
H383 N376 0.984 . S
H384 N372 0.984 . S
H385 N372 0.985 . S
C386 C387 1.363 1_556 S
C386 C392 1.379 . S
C386 N394 1.356 . S
C387 C386 1.363 1_554 S
C387 C393 1.363 . S
C388 C389 1.363 . S
C388 C393 1.379 . S
C388 N395 1.356 . S
C389 C388 1.363 . S
C389 C392 1.363 1_554 S
N390 C392 1.356 . S
N390 H402 0.984 . S
N390 H403 0.985 . S
N391 C393 1.356 . S
N391 H396 0.984 . S
N391 H397 0.985 . S
C392 C386 1.379 . S
C392 C389 1.363 1_556 S
C392 N390 1.356 . S
C393 C387 1.363 . S
C393 C388 1.379 . S
C393 N391 1.356 . S
N394 C386 1.356 . S
N394 H400 0.984 . S
N394 H401 0.984 . S
N395 C388 1.356 . S
N395 H398 0.984 . S
N395 H399 0.985 . S
H396 N391 0.984 . S
H397 N391 0.985 . S
H398 N395 0.984 . S
H399 N395 0.985 . S
H400 N394 0.984 . S
H401 N394 0.984 . S
H402 N390 0.984 . S
H403 N390 0.985 . S
C404 C405 1.363 1_556 S
C404 C410 1.379 . S
C404 N412 1.356 . S
C405 C404 1.363 1_554 S
C405 C411 1.363 . S
C406 C407 1.363 . S
C406 C411 1.379 . S
C406 N413 1.356 . S
C407 C406 1.363 . S
C407 C410 1.363 1_554 S
N408 C410 1.356 . S
N408 H420 0.984 . S
N408 H421 0.985 . S
N409 C411 1.356 . S
N409 H414 0.984 . S
N409 H415 0.985 . S
C410 C404 1.379 . S
C410 C407 1.363 1_556 S
C410 N408 1.356 . S
C411 C405 1.363 . S
C411 C406 1.379 . S
C411 N409 1.356 . S
N412 C404 1.356 . S
N412 H418 0.984 . S
N412 H419 0.984 . S
N413 C406 1.356 . S
N413 H416 0.984 . S
N413 H417 0.985 . S
H414 N409 0.984 . S
H415 N409 0.985 . S
H416 N413 0.984 . S
H417 N413 0.985 . S
H418 N412 0.984 . S
H419 N412 0.984 . S
H420 N408 0.984 . S
H421 N408 0.985 . S
C422 C423 1.363 . S
C422 C428 1.379 . S
C422 N430 1.356 . S
C423 C422 1.363 . S
C423 C429 1.363 1_554 S
C424 C425 1.363 1_556 S
C424 C429 1.379 . S
C424 N431 1.356 . S
C425 C424 1.363 1_554 S
C425 C428 1.363 . S
N426 C428 1.356 . S
N426 H438 0.984 . S
N426 H439 0.985 . S
N427 C429 1.356 . S
N427 H432 0.984 . S
N427 H433 0.985 . S
C428 C422 1.379 . S
C428 C425 1.363 . S
C428 N426 1.356 . S
C429 C423 1.363 1_556 S
C429 C424 1.379 . S
C429 N427 1.356 . S
N430 C422 1.356 . S
N430 H436 0.984 . S
N430 H437 0.984 . S
N431 C424 1.356 . S
N431 H434 0.984 . S
N431 H435 0.985 . S
H432 N427 0.984 . S
H433 N427 0.985 . S
H434 N431 0.984 . S
H435 N431 0.985 . S
H436 N430 0.984 . S
H437 N430 0.984 . S
H438 N426 0.984 . S
H439 N426 0.985 . S
C440 C441 1.363 . S
C440 C446 1.379 . S
C440 N448 1.356 . S
C441 C440 1.363 . S
C441 C447 1.363 . S
C442 C443 1.363 . S
C442 C447 1.379 . S
C442 N449 1.356 . S
C443 C442 1.363 . S
C443 C446 1.363 . S
N444 C446 1.356 . S
N444 H456 0.984 . S
N444 H457 0.985 . S
N445 C447 1.356 . S
N445 H450 0.984 . S
N445 H451 0.985 . S
C446 C440 1.379 . S
C446 C443 1.363 . S
C446 N444 1.356 . S
C447 C441 1.363 . S
C447 C442 1.379 . S
C447 N445 1.356 . S
N448 C440 1.356 . S
N448 H454 0.984 . S
N448 H455 0.984 . S
N449 C442 1.356 . S
N449 H452 0.984 . S
N449 H453 0.985 . S
H450 N445 0.984 . S
H451 N445 0.985 . S
H452 N449 0.984 . S
H453 N449 0.985 . S
H454 N448 0.984 . S
H455 N448 0.984 . S
H456 N444 0.984 . S
H457 N444 0.985 . S
C458 C459 1.363 . S
C458 C464 1.379 . S
C458 N466 1.356 . S
C459 C458 1.363 . S
C459 C465 1.363 . S
C460 C461 1.363 . S
C460 C465 1.379 . S
C460 N467 1.356 . S
C461 C460 1.363 . S
C461 C464 1.363 . S
N462 C464 1.356 . S
N462 H474 0.984 . S
N462 H475 0.985 . S
N463 C465 1.356 . S
N463 H468 0.984 . S
N463 H469 0.985 . S
C464 C458 1.379 . S
C464 C461 1.363 . S
C464 N462 1.356 . S
C465 C459 1.363 . S
C465 C460 1.379 . S
C465 N463 1.356 . S
N466 C458 1.356 . S
N466 H472 0.984 . S
N466 H473 0.984 . S
N467 C460 1.356 . S
N467 H470 0.984 . S
N467 H471 0.985 . S
H468 N463 0.984 . S
H469 N463 0.985 . S
H470 N467 0.984 . S
H471 N467 0.985 . S
H472 N466 0.984 . S
H473 N466 0.984 . S
H474 N462 0.984 . S
H475 N462 0.985 . S
C476 C477 1.363 . S
C476 C482 1.379 . S
C476 N484 1.356 . S
C477 C476 1.363 . S
C477 C483 1.363 . S
C478 C479 1.363 . S
C478 C483 1.379 . S
C478 N485 1.356 . S
C479 C478 1.363 . S
C479 C482 1.363 . S
N480 C482 1.356 . S
N480 H492 0.984 . S
N480 H493 0.985 . S
N481 C483 1.356 . S
N481 H486 0.984 . S
N481 H487 0.985 . S
C482 C476 1.379 . S
C482 C479 1.363 . S
C482 N480 1.356 . S
C483 C477 1.363 . S
C483 C478 1.379 . S
C483 N481 1.356 . S
N484 C476 1.356 . S
N484 H490 0.984 . S
N484 H491 0.984 . S
N485 C478 1.356 . S
N485 H488 0.984 . S
N485 H489 0.985 . S
H486 N481 0.984 . S
H487 N481 0.985 . S
H488 N485 0.984 . S
H489 N485 0.985 . S
H490 N484 0.984 . S
H491 N484 0.984 . S
H492 N480 0.984 . S
H493 N480 0.985 . S
C494 C495 1.363 . S
C494 C500 1.379 . S
C494 N502 1.356 . S
C495 C494 1.363 . S
C495 C501 1.363 . S
C496 C497 1.363 . S
C496 C501 1.379 . S
C496 N503 1.356 . S
C497 C496 1.363 . S
C497 C500 1.363 . S
N498 C500 1.356 . S
N498 H510 0.984 . S
N498 H511 0.985 . S
N499 C501 1.356 . S
N499 H504 0.984 . S
N499 H505 0.985 . S
C500 C494 1.379 . S
C500 C497 1.363 . S
C500 N498 1.356 . S
C501 C495 1.363 . S
C501 C496 1.379 . S
C501 N499 1.356 . S
N502 C494 1.356 . S
N502 H508 0.984 . S
N502 H509 0.984 . S
N503 C496 1.356 . S
N503 H506 0.984 . S
N503 H507 0.985 . S
H504 N499 0.984 . S
H505 N499 0.985 . S
H506 N503 0.984 . S
H507 N503 0.985 . S
H508 N502 0.984 . S
H509 N502 0.984 . S
H510 N498 0.984 . S
H511 N498 0.985 . S
C512 C513 1.363 . S
C512 C518 1.379 . S
C512 N520 1.356 . S
C513 C512 1.363 . S
C513 C519 1.363 . S
C514 C515 1.363 . S
C514 C519 1.379 . S
C514 N521 1.356 . S
C515 C514 1.363 . S
C515 C518 1.363 . S
N516 C518 1.356 . S
N516 H528 0.984 . S
N516 H529 0.985 . S
N517 C519 1.356 . S
N517 H522 0.984 . S
N517 H523 0.985 . S
C518 C512 1.379 . S
C518 C515 1.363 . S
C518 N516 1.356 . S
C519 C513 1.363 . S
C519 C514 1.379 . S
C519 N517 1.356 . S
N520 C512 1.356 . S
N520 H526 0.984 . S
N520 H527 0.984 . S
N521 C514 1.356 . S
N521 H524 0.984 . S
N521 H525 0.985 . S
H522 N517 0.984 . S
H523 N517 0.985 . S
H524 N521 0.984 . S
H525 N521 0.985 . S
H526 N520 0.984 . S
H527 N520 0.984 . S
H528 N516 0.984 . S
H529 N516 0.985 . S
C530 C531 1.363 . S
C530 C536 1.379 . S
C530 N538 1.356 . S
C531 C530 1.363 . S
C531 C537 1.363 . S
C532 C533 1.363 . S
C532 C537 1.379 . S
C532 N539 1.356 . S
C533 C532 1.363 . S
C533 C536 1.363 . S
N534 C536 1.356 . S
N534 H546 0.984 . S
N534 H547 0.985 . S
N535 C537 1.356 . S
N535 H540 0.984 . S
N535 H541 0.985 . S
C536 C530 1.379 . S
C536 C533 1.363 . S
C536 N534 1.356 . S
C537 C531 1.363 . S
C537 C532 1.379 . S
C537 N535 1.356 . S
N538 C530 1.356 . S
N538 H544 0.984 . S
N538 H545 0.984 . S
N539 C532 1.356 . S
N539 H542 0.984 . S
N539 H543 0.985 . S
H540 N535 0.984 . S
H541 N535 0.985 . S
H542 N539 0.984 . S
H543 N539 0.985 . S
H544 N538 0.984 . S
H545 N538 0.984 . S
H546 N534 0.984 . S
H547 N534 0.985 . S
C548 C549 1.363 . S
C548 C554 1.379 . S
C548 N556 1.356 . S
C549 C548 1.363 . S
C549 C555 1.363 . S
C550 C551 1.363 . S
C550 C555 1.379 . S
C550 N557 1.356 . S
C551 C550 1.363 . S
C551 C554 1.363 . S
N552 C554 1.356 . S
N552 H564 0.984 . S
N552 H565 0.985 . S
N553 C555 1.356 . S
N553 H558 0.984 . S
N553 H559 0.985 . S
C554 C548 1.379 . S
C554 C551 1.363 . S
C554 N552 1.356 . S
C555 C549 1.363 . S
C555 C550 1.379 . S
C555 N553 1.356 . S
N556 C548 1.356 . S
N556 H562 0.984 . S
N556 H563 0.984 . S
N557 C550 1.356 . S
N557 H560 0.984 . S
N557 H561 0.985 . S
H558 N553 0.984 . S
H559 N553 0.985 . S
H560 N557 0.984 . S
H561 N557 0.985 . S
H562 N556 0.984 . S
H563 N556 0.984 . S
H564 N552 0.984 . S
H565 N552 0.985 . S
C566 C567 1.363 . S
C566 C572 1.379 . S
C566 N574 1.356 . S
C567 C566 1.363 . S
C567 C573 1.363 . S
C568 C569 1.363 . S
C568 C573 1.379 . S
C568 N575 1.356 . S
C569 C568 1.363 . S
C569 C572 1.363 . S
N570 C572 1.356 . S
N570 H582 0.984 . S
N570 H583 0.985 . S
N571 C573 1.356 . S
N571 H576 0.984 . S
N571 H577 0.985 . S
C572 C566 1.379 . S
C572 C569 1.363 . S
C572 N570 1.356 . S
C573 C567 1.363 . S
C573 C568 1.379 . S
C573 N571 1.356 . S
N574 C566 1.356 . S
N574 H580 0.984 . S
N574 H581 0.984 . S
N575 C568 1.356 . S
N575 H578 0.984 . S
N575 H579 0.985 . S
H576 N571 0.984 . S
H577 N571 0.985 . S
H578 N575 0.984 . S
H579 N575 0.985 . S
H580 N574 0.984 . S
H581 N574 0.984 . S
H582 N570 0.984 . S
H583 N570 0.985 . S
C584 C585 1.363 . S
C584 C590 1.379 . S
C584 N592 1.356 . S
C585 C584 1.363 . S
C585 C591 1.363 . S
C586 C587 1.363 . S
C586 C591 1.379 . S
C586 N593 1.356 . S
C587 C586 1.363 . S
C587 C590 1.363 . S
N588 C590 1.356 . S
N588 H600 0.984 . S
N588 H601 0.985 . S
N589 C591 1.356 . S
N589 H594 0.984 . S
N589 H595 0.985 . S
C590 C584 1.379 . S
C590 C587 1.363 . S
C590 N588 1.356 . S
C591 C585 1.363 . S
C591 C586 1.379 . S
C591 N589 1.356 . S
N592 C584 1.356 . S
N592 H598 0.984 . S
N592 H599 0.984 . S
N593 C586 1.356 . S
N593 H596 0.984 . S
N593 H597 0.985 . S
H594 N589 0.984 . S
H595 N589 0.985 . S
H596 N593 0.984 . S
H597 N593 0.985 . S
H598 N592 0.984 . S
H599 N592 0.984 . S
H600 N588 0.984 . S
H601 N588 0.985 . S
C602 C603 1.363 . S
C602 C608 1.379 . S
C602 N610 1.356 . S
C603 C602 1.363 . S
C603 C609 1.363 . S
C604 C605 1.363 . S
C604 C609 1.379 . S
C604 N611 1.356 . S
C605 C604 1.363 . S
C605 C608 1.363 . S
N606 C608 1.356 . S
N606 H618 0.984 . S
N606 H619 0.985 . S
N607 C609 1.356 . S
N607 H612 0.984 . S
N607 H613 0.985 . S
C608 C602 1.379 . S
C608 C605 1.363 . S
C608 N606 1.356 . S
C609 C603 1.363 . S
C609 C604 1.379 . S
C609 N607 1.356 . S
N610 C602 1.356 . S
N610 H616 0.984 . S
N610 H617 0.984 . S
N611 C604 1.356 . S
N611 H614 0.984 . S
N611 H615 0.985 . S
H612 N607 0.984 . S
H613 N607 0.985 . S
H614 N611 0.984 . S
H615 N611 0.985 . S
H616 N610 0.984 . S
H617 N610 0.984 . S
H618 N606 0.984 . S
H619 N606 0.985 . S
C620 C621 1.363 . S
C620 C626 1.379 . S
C620 N628 1.356 . S
C621 C620 1.363 . S
C621 C627 1.363 . S
C622 C623 1.363 . S
C622 C627 1.379 . S
C622 N629 1.356 . S
C623 C622 1.363 . S
C623 C626 1.363 . S
N624 C626 1.356 . S
N624 H636 0.984 . S
N624 H637 0.985 . S
N625 C627 1.356 . S
N625 H630 0.984 . S
N625 H631 0.985 . S
C626 C620 1.379 . S
C626 C623 1.363 . S
C626 N624 1.356 . S
C627 C621 1.363 . S
C627 C622 1.379 . S
C627 N625 1.356 . S
N628 C620 1.356 . S
N628 H634 0.984 . S
N628 H635 0.984 . S
N629 C622 1.356 . S
N629 H632 0.984 . S
N629 H633 0.985 . S
H630 N625 0.984 . S
H631 N625 0.985 . S
H632 N629 0.984 . S
H633 N629 0.985 . S
H634 N628 0.984 . S
H635 N628 0.984 . S
H636 N624 0.984 . S
H637 N624 0.985 . S
C638 C639 1.363 . S
C638 C644 1.379 . S
C638 N646 1.356 . S
C639 C638 1.363 . S
C639 C645 1.363 . S
C640 C641 1.363 . S
C640 C645 1.379 . S
C640 N647 1.356 . S
C641 C640 1.363 . S
C641 C644 1.363 . S
N642 C644 1.356 . S
N642 H654 0.984 . S
N642 H655 0.985 . S
N643 C645 1.356 . S
N643 H648 0.984 . S
N643 H649 0.985 . S
C644 C638 1.379 . S
C644 C641 1.363 . S
C644 N642 1.356 . S
C645 C639 1.363 . S
C645 C640 1.379 . S
C645 N643 1.356 . S
N646 C638 1.356 . S
N646 H652 0.984 . S
N646 H653 0.984 . S
N647 C640 1.356 . S
N647 H650 0.984 . S
N647 H651 0.985 . S
H648 N643 0.984 . S
H649 N643 0.985 . S
H650 N647 0.984 . S
H651 N647 0.985 . S
H652 N646 0.984 . S
H653 N646 0.984 . S
H654 N642 0.984 . S
H655 N642 0.985 . S
C656 C657 1.363 . S
C656 C662 1.379 . S
C656 N664 1.356 . S
C657 C656 1.363 . S
C657 C663 1.363 . S
C658 C659 1.363 . S
C658 C663 1.379 . S
C658 N665 1.356 . S
C659 C658 1.363 . S
C659 C662 1.363 . S
N660 C662 1.356 . S
N660 H672 0.984 . S
N660 H673 0.985 . S
N661 C663 1.356 . S
N661 H666 0.984 . S
N661 H667 0.985 . S
C662 C656 1.379 . S
C662 C659 1.363 . S
C662 N660 1.356 . S
C663 C657 1.363 . S
C663 C658 1.379 . S
C663 N661 1.356 . S
N664 C656 1.356 . S
N664 H670 0.984 . S
N664 H671 0.984 . S
N665 C658 1.356 . S
N665 H668 0.984 . S
N665 H669 0.985 . S
H666 N661 0.984 . S
H667 N661 0.985 . S
H668 N665 0.984 . S
H669 N665 0.985 . S
H670 N664 0.984 . S
H671 N664 0.984 . S
H672 N660 0.984 . S
H673 N660 0.985 . S
C674 C675 1.363 . S
C674 C680 1.379 . S
C674 N682 1.356 . S
C675 C674 1.363 . S
C675 C681 1.363 . S
C676 C677 1.363 . S
C676 C681 1.379 . S
C676 N683 1.356 . S
C677 C676 1.363 . S
C677 C680 1.363 . S
N678 C680 1.356 . S
N678 H690 0.984 . S
N678 H691 0.985 . S
N679 C681 1.356 . S
N679 H684 0.984 . S
N679 H685 0.985 . S
C680 C674 1.379 . S
C680 C677 1.363 . S
C680 N678 1.356 . S
C681 C675 1.363 . S
C681 C676 1.379 . S
C681 N679 1.356 . S
N682 C674 1.356 . S
N682 H688 0.984 . S
N682 H689 0.984 . S
N683 C676 1.356 . S
N683 H686 0.984 . S
N683 H687 0.985 . S
H684 N679 0.984 . S
H685 N679 0.985 . S
H686 N683 0.984 . S
H687 N683 0.985 . S
H688 N682 0.984 . S
H689 N682 0.984 . S
H690 N678 0.984 . S
H691 N678 0.985 . S
C692 C693 1.363 . S
C692 C698 1.379 . S
C692 N700 1.356 . S
C693 C692 1.363 . S
C693 C699 1.363 . S
C694 C695 1.363 . S
C694 C699 1.379 . S
C694 N701 1.356 . S
C695 C694 1.363 . S
C695 C698 1.363 . S
N696 C698 1.356 . S
N696 H708 0.984 . S
N696 H709 0.985 . S
N697 C699 1.356 . S
N697 H702 0.984 . S
N697 H703 0.985 . S
C698 C692 1.379 . S
C698 C695 1.363 . S
C698 N696 1.356 . S
C699 C693 1.363 . S
C699 C694 1.379 . S
C699 N697 1.356 . S
N700 C692 1.356 . S
N700 H706 0.984 . S
N700 H707 0.984 . S
N701 C694 1.356 . S
N701 H704 0.984 . S
N701 H705 0.985 . S
H702 N697 0.984 . S
H703 N697 0.985 . S
H704 N701 0.984 . S
H705 N701 0.985 . S
H706 N700 0.984 . S
H707 N700 0.984 . S
H708 N696 0.984 . S
H709 N696 0.985 . S
C710 C711 1.363 . S
C710 C716 1.379 . S
C710 N718 1.356 . S
C711 C710 1.363 . S
C711 C717 1.363 . S
C712 C713 1.363 . S
C712 C717 1.379 . S
C712 N719 1.356 . S
C713 C712 1.363 . S
C713 C716 1.363 . S
N714 C716 1.356 . S
N714 H726 0.984 . S
N714 H727 0.985 . S
N715 C717 1.356 . S
N715 H720 0.984 . S
N715 H721 0.985 . S
C716 C710 1.379 . S
C716 C713 1.363 . S
C716 N714 1.356 . S
C717 C711 1.363 . S
C717 C712 1.379 . S
C717 N715 1.356 . S
N718 C710 1.356 . S
N718 H724 0.984 . S
N718 H725 0.984 . S
N719 C712 1.356 . S
N719 H722 0.984 . S
N719 H723 0.985 . S
H720 N715 0.984 . S
H721 N715 0.985 . S
H722 N719 0.984 . S
H723 N719 0.985 . S
H724 N718 0.984 . S
H725 N718 0.984 . S
H726 N714 0.984 . S
H727 N714 0.985 . S
C728 C729 1.363 . S
C728 C734 1.379 . S
C728 N736 1.356 . S
C729 C728 1.363 . S
C729 C735 1.363 . S
C730 C731 1.363 . S
C730 C735 1.379 . S
C730 N737 1.356 . S
C731 C730 1.363 . S
C731 C734 1.363 . S
N732 C734 1.356 . S
N732 H744 0.984 . S
N732 H745 0.985 . S
N733 C735 1.356 . S
N733 H738 0.984 . S
N733 H739 0.985 . S
C734 C728 1.379 . S
C734 C731 1.363 . S
C734 N732 1.356 . S
C735 C729 1.363 . S
C735 C730 1.379 . S
C735 N733 1.356 . S
N736 C728 1.356 . S
N736 H742 0.984 . S
N736 H743 0.984 . S
N737 C730 1.356 . S
N737 H740 0.984 . S
N737 H741 0.985 . S
H738 N733 0.984 . S
H739 N733 0.985 . S
H740 N737 0.984 . S
H741 N737 0.985 . S
H742 N736 0.984 . S
H743 N736 0.984 . S
H744 N732 0.984 . S
H745 N732 0.985 . S
C746 C747 1.363 . S
C746 C752 1.379 . S
C746 N754 1.356 . S
C747 C746 1.363 . S
C747 C753 1.363 . S
C748 C749 1.363 . S
C748 C753 1.379 . S
C748 N755 1.356 . S
C749 C748 1.363 . S
C749 C752 1.363 . S
N750 C752 1.356 . S
N750 H762 0.984 . S
N750 H763 0.985 . S
N751 C753 1.356 . S
N751 H756 0.984 . S
N751 H757 0.985 . S
C752 C746 1.379 . S
C752 C749 1.363 . S
C752 N750 1.356 . S
C753 C747 1.363 . S
C753 C748 1.379 . S
C753 N751 1.356 . S
N754 C746 1.356 . S
N754 H760 0.984 . S
N754 H761 0.984 . S
N755 C748 1.356 . S
N755 H758 0.984 . S
N755 H759 0.985 . S
H756 N751 0.984 . S
H757 N751 0.985 . S
H758 N755 0.984 . S
H759 N755 0.985 . S
H760 N754 0.984 . S
H761 N754 0.984 . S
H762 N750 0.984 . S
H763 N750 0.985 . S
C764 C765 1.363 . S
C764 C770 1.379 . S
C764 N772 1.356 . S
C765 C764 1.363 . S
C765 C771 1.363 . S
C766 C767 1.363 . S
C766 C771 1.379 . S
C766 N773 1.356 . S
C767 C766 1.363 . S
C767 C770 1.363 . S
N768 C770 1.356 . S
N768 H780 0.984 . S
N768 H781 0.985 . S
N769 C771 1.356 . S
N769 H774 0.984 . S
N769 H775 0.985 . S
C770 C764 1.379 . S
C770 C767 1.363 . S
C770 N768 1.356 . S
C771 C765 1.363 . S
C771 C766 1.379 . S
C771 N769 1.356 . S
N772 C764 1.356 . S
N772 H778 0.984 . S
N772 H779 0.984 . S
N773 C766 1.356 . S
N773 H776 0.984 . S
N773 H777 0.985 . S
H774 N769 0.984 . S
H775 N769 0.985 . S
H776 N773 0.984 . S
H777 N773 0.985 . S
H778 N772 0.984 . S
H779 N772 0.984 . S
H780 N768 0.984 . S
H781 N768 0.985 . S
C782 C783 1.363 . S
C782 C788 1.379 . S
C782 N790 1.356 . S
C783 C782 1.363 . S
C783 C789 1.363 . S
C784 C785 1.363 . S
C784 C789 1.379 . S
C784 N791 1.356 . S
C785 C784 1.363 . S
C785 C788 1.363 . S
N786 C788 1.356 . S
N786 H798 0.984 . S
N786 H799 0.985 . S
N787 C789 1.356 . S
N787 H792 0.984 . S
N787 H793 0.985 . S
C788 C782 1.379 . S
C788 C785 1.363 . S
C788 N786 1.356 . S
C789 C783 1.363 . S
C789 C784 1.379 . S
C789 N787 1.356 . S
N790 C782 1.356 . S
N790 H796 0.984 . S
N790 H797 0.984 . S
N791 C784 1.356 . S
N791 H794 0.984 . S
N791 H795 0.985 . S
H792 N787 0.984 . S
H793 N787 0.985 . S
H794 N791 0.984 . S
H795 N791 0.985 . S
H796 N790 0.984 . S
H797 N790 0.984 . S
H798 N786 0.984 . S
H799 N786 0.985 . S
C225 C67 1.313 . S
C227 C11 1.313 . S
C243 C81 1.313 . S
C245 C25 1.313 . S
C261 C95 1.313 . S
C263 C39 1.313 . S
C279 C109 1.313 . S
C281 C53 1.313 . S
C297 C179 1.313 . S
C299 C123 1.313 . S
C315 C193 1.313 . S
C317 C137 1.313 . S
C333 C151 1.313 . S
C335 C207 1.313 . S
C351 C221 1.313 . S
C353 C165 1.313 . S
C369 C4 1.226 . S
C371 C74 1.226 . S
C387 C88 1.226 . S
C389 C18 1.226 . S
C405 C32 1.226 . S
C407 C102 1.226 . S
C423 C60 1.226 . S
C425 C46 1.226 . S
C441 C186 1.226 . S
C443 C116 1.226 . S
C459 C200 1.226 . S
C461 C130 1.226 . S
C477 C144 1.226 . S
C479 C214 1.226 . S
C495 C158 1.226 . S
C497 C172 1.226 . S
C513 C215 1.215 . S
C515 C5 1.215 . S
C531 C173 1.215 . S
C533 C19 1.215 . S
C549 C187 1.215 . S
C551 C33 1.215 . S
C567 C201 1.215 . S
C569 C47 1.215 . S
C585 C131 1.215 . S
C587 C61 1.215 . S
C603 C145 1.215 . S
C605 C75 1.215 . S
C621 C89 1.215 . S
C623 C159 1.215 . S
C639 C103 1.215 . S
C641 C117 1.215 . S
C657 C194 1.654 . S
C659 C40 1.654 . S
C675 C208 1.654 . S
C677 C54 1.654 . S
C693 C222 1.654 . S
C695 C12 1.654 . S
C711 C26 1.654 . S
C713 C180 1.654 . S
C729 C166 1.654 . S
C731 C96 1.654 . S
C747 C110 1.654 . S
C749 C124 1.654 . S
C765 C138 1.654 . S
C767 C68 1.654 . S
C783 C152 1.654 . S
C785 C82 1.654 . S
