# Generated by pormake.
# Topology unv, (4)-cn, num edge types: 1
# Building blocks:
#     Node 0, Type 0, BuildingBlock: TATPOV_clean_sbu_0, # of connection points: 4
#     Node 1, Type 0, BuildingBlock: TATPOV_clean_sbu_0, # of connection points: 4
#     Node 2, Type 0, BuildingBlock: TATPOV_clean_sbu_0, # of connection points: 4
#     Node 3, Type 0, BuildingBlock: TATPOV_clean_sbu_0, # of connection points: 4
#     Node 4, Type 0, BuildingBlock: TATPOV_clean_sbu_0, # of connection points: 4
#     Node 5, Type 0, BuildingBlock: TATPOV_clean_sbu_0, # of connection points: 4
#     Node 6, Type 0, BuildingBlock: TATPOV_clean_sbu_0, # of connection points: 4
#     Node 7, Type 0, BuildingBlock: TATPOV_clean_sbu_0, # of connection points: 4
#     Node 8, Type 0, BuildingBlock: TATPOV_clean_sbu_0, # of connection points: 4
#     Node 9, Type 0, BuildingBlock: TATPOV_clean_sbu_0, # of connection points: 4
#     Node 10, Type 0, BuildingBlock: TATPOV_clean_sbu_0, # of connection points: 4
#     Node 11, Type 0, BuildingBlock: TATPOV_clean_sbu_0, # of connection points: 4
#     Node 12, Type 0, BuildingBlock: TATPOV_clean_sbu_0, # of connection points: 4
#     Node 13, Type 0, BuildingBlock: TATPOV_clean_sbu_0, # of connection points: 4
#     Node 14, Type 0, BuildingBlock: TATPOV_clean_sbu_0, # of connection points: 4
#     Node 15, Type 0, BuildingBlock: TATPOV_clean_sbu_0, # of connection points: 4
#     Node 16, Type 0, BuildingBlock: TATPOV_clean_sbu_0, # of connection points: 4
#     Node 17, Type 0, BuildingBlock: TATPOV_clean_sbu_0, # of connection points: 4
#     Node 18, Type 0, BuildingBlock: TATPOV_clean_sbu_0, # of connection points: 4
#     Node 19, Type 0, BuildingBlock: TATPOV_clean_sbu_0, # of connection points: 4
#     Node 20, Type 0, BuildingBlock: TATPOV_clean_sbu_0, # of connection points: 4
#     Node 21, Type 0, BuildingBlock: TATPOV_clean_sbu_0, # of connection points: 4
#     Node 22, Type 0, BuildingBlock: TATPOV_clean_sbu_0, # of connection points: 4
#     Node 23, Type 0, BuildingBlock: TATPOV_clean_sbu_0, # of connection points: 4
#     Edge 24, Type (0, 0), BuildingBlock: MIFKUJ_clean_linker_0, # of connection points: 2
#     Edge 25, Type (0, 0), BuildingBlock: MIFKUJ_clean_linker_0, # of connection points: 2
#     Edge 26, Type (0, 0), BuildingBlock: MIFKUJ_clean_linker_0, # of connection points: 2
#     Edge 27, Type (0, 0), BuildingBlock: MIFKUJ_clean_linker_0, # of connection points: 2
#     Edge 28, Type (0, 0), BuildingBlock: MIFKUJ_clean_linker_0, # of connection points: 2
#     Edge 29, Type (0, 0), BuildingBlock: MIFKUJ_clean_linker_0, # of connection points: 2
#     Edge 30, Type (0, 0), BuildingBlock: MIFKUJ_clean_linker_0, # of connection points: 2
#     Edge 31, Type (0, 0), BuildingBlock: MIFKUJ_clean_linker_0, # of connection points: 2
#     Edge 32, Type (0, 0), BuildingBlock: MIFKUJ_clean_linker_0, # of connection points: 2
#     Edge 33, Type (0, 0), BuildingBlock: MIFKUJ_clean_linker_0, # of connection points: 2
#     Edge 34, Type (0, 0), BuildingBlock: MIFKUJ_clean_linker_0, # of connection points: 2
#     Edge 35, Type (0, 0), BuildingBlock: MIFKUJ_clean_linker_0, # of connection points: 2
#     Edge 36, Type (0, 0), BuildingBlock: MIFKUJ_clean_linker_0, # of connection points: 2
#     Edge 37, Type (0, 0), BuildingBlock: MIFKUJ_clean_linker_0, # of connection points: 2
#     Edge 38, Type (0, 0), BuildingBlock: MIFKUJ_clean_linker_0, # of connection points: 2
#     Edge 39, Type (0, 0), BuildingBlock: MIFKUJ_clean_linker_0, # of connection points: 2
#     Edge 40, Type (0, 0), BuildingBlock: MIFKUJ_clean_linker_0, # of connection points: 2
#     Edge 41, Type (0, 0), BuildingBlock: MIFKUJ_clean_linker_0, # of connection points: 2
#     Edge 42, Type (0, 0), BuildingBlock: MIFKUJ_clean_linker_0, # of connection points: 2
#     Edge 43, Type (0, 0), BuildingBlock: MIFKUJ_clean_linker_0, # of connection points: 2
#     Edge 44, Type (0, 0), BuildingBlock: MIFKUJ_clean_linker_0, # of connection points: 2
#     Edge 45, Type (0, 0), BuildingBlock: MIFKUJ_clean_linker_0, # of connection points: 2
#     Edge 46, Type (0, 0), BuildingBlock: MIFKUJ_clean_linker_0, # of connection points: 2
#     Edge 47, Type (0, 0), BuildingBlock: MIFKUJ_clean_linker_0, # of connection points: 2
#     Edge 48, Type (0, 0), BuildingBlock: MIFKUJ_clean_linker_0, # of connection points: 2
#     Edge 49, Type (0, 0), BuildingBlock: MIFKUJ_clean_linker_0, # of connection points: 2
#     Edge 50, Type (0, 0), BuildingBlock: MIFKUJ_clean_linker_0, # of connection points: 2
#     Edge 51, Type (0, 0), BuildingBlock: MIFKUJ_clean_linker_0, # of connection points: 2
#     Edge 52, Type (0, 0), BuildingBlock: MIFKUJ_clean_linker_0, # of connection points: 2
#     Edge 53, Type (0, 0), BuildingBlock: MIFKUJ_clean_linker_0, # of connection points: 2
#     Edge 54, Type (0, 0), BuildingBlock: MIFKUJ_clean_linker_0, # of connection points: 2
#     Edge 55, Type (0, 0), BuildingBlock: MIFKUJ_clean_linker_0, # of connection points: 2
#     Edge 56, Type (0, 0), BuildingBlock: MIFKUJ_clean_linker_0, # of connection points: 2
#     Edge 57, Type (0, 0), BuildingBlock: MIFKUJ_clean_linker_0, # of connection points: 2
#     Edge 58, Type (0, 0), BuildingBlock: MIFKUJ_clean_linker_0, # of connection points: 2
#     Edge 59, Type (0, 0), BuildingBlock: MIFKUJ_clean_linker_0, # of connection points: 2
#     Edge 60, Type (0, 0), BuildingBlock: MIFKUJ_clean_linker_0, # of connection points: 2
#     Edge 61, Type (0, 0), BuildingBlock: MIFKUJ_clean_linker_0, # of connection points: 2
#     Edge 62, Type (0, 0), BuildingBlock: MIFKUJ_clean_linker_0, # of connection points: 2
#     Edge 63, Type (0, 0), BuildingBlock: MIFKUJ_clean_linker_0, # of connection points: 2
#     Edge 64, Type (0, 0), BuildingBlock: MIFKUJ_clean_linker_0, # of connection points: 2
#     Edge 65, Type (0, 0), BuildingBlock: MIFKUJ_clean_linker_0, # of connection points: 2
#     Edge 66, Type (0, 0), BuildingBlock: MIFKUJ_clean_linker_0, # of connection points: 2
#     Edge 67, Type (0, 0), BuildingBlock: MIFKUJ_clean_linker_0, # of connection points: 2
#     Edge 68, Type (0, 0), BuildingBlock: MIFKUJ_clean_linker_0, # of connection points: 2
#     Edge 69, Type (0, 0), BuildingBlock: MIFKUJ_clean_linker_0, # of connection points: 2
#     Edge 70, Type (0, 0), BuildingBlock: MIFKUJ_clean_linker_0, # of connection points: 2
#     Edge 71, Type (0, 0), BuildingBlock: MIFKUJ_clean_linker_0, # of connection points: 2
# Relax obj value: 0.319
# Max RMSD: 0.272
# Mean RMSD: 0.267
data_MOF--net-unv--node1-TATPOV_clean_sbu_0--edge1-MIFKUJ_clean_linker_0
_symmetry_space_group_name_H-M    P1
_symmetry_Int_Tables_number       1
_symmetry_cell_setting            triclinic
loop_
_symmetry_equiv_pos_as_xyz
'x, y, z'
_cell_length_a     62.597973
_cell_length_b     62.490785
_cell_length_c     62.572079
_cell_angle_alpha  90.0409
_cell_angle_beta   90.029067
_cell_angle_gamma 89.999297
loop_
_atom_site_label
_atom_site_type_symbol
_atom_site_fract_x
_atom_site_fract_y
_atom_site_fract_z
_atom_type_partial_charge
Zn0 Zn 0.03218 0.05369 0.34861 0.0
Zn1 Zn 0.01755 0.09244 0.34813 0.0
O2 O 0.04083 0.09133 0.37183 0.0
O3 O 0.0531 0.05842 0.37199 0.0
O4 O 0.01058 0.12392 0.34802 0.0
O5 O 0.04194 0.05462 0.31853 0.0
O6 O 0.02434 0.08502 0.31624 0.0
C7 C 0.05319 0.07713 0.37964 0.0
C8 C 0.98697 0.0575 0.35969 0.0
O9 O 0.99028 0.07754 0.3582 0.0
O10 O 0.00191 0.04438 0.35568 0.0
C11 C 0.00699 0.13274 0.36599 0.0
O12 O 0.00666 0.12078 0.38325 0.0
C13 C 0.03481 0.06988 0.3074 0.0
Zn14 Zn 0.92218 0.41938 0.37537 0.0
Zn15 Zn 0.95595 0.39352 0.37167 0.0
O16 O 0.9337 0.37877 0.39083 0.0
O17 O 0.90436 0.39796 0.39163 0.0
O18 O 0.9768 0.36932 0.36805 0.0
O19 O 0.91976 0.42225 0.34344 0.0
O20 O 0.94907 0.40296 0.34094 0.0
C21 C 0.91458 0.38141 0.39718 0.0
C22 C 0.96306 0.43505 0.39404 0.0
O23 O 0.97112 0.41757 0.38733 0.0
O24 O 0.94333 0.43893 0.39122 0.0
C25 C 0.98307 0.3596 0.38476 0.0
O26 O 0.97807 0.36757 0.40354 0.0
C27 C 0.93448 0.41416 0.33218 0.0
Zn28 Zn 0.02261 0.94754 0.10214 0.0
Zn29 Zn -0.00159 0.88244 0.12253 0.0
O30 O 0.02384 0.87895 0.10126 0.0
O31 O 0.02301 0.9134 0.1042 0.0
O32 O 0.98979 0.85247 0.13057 0.0
O33 O 0.01506 0.92272 0.12451 0.0
O34 O 0.00632 0.9005 0.1496 0.0
C35 C 0.03132 0.89687 0.09543 0.0
C36 C 0.9802 0.91722 0.10068 0.0
O37 O 0.97398 0.89881 0.10683 0.0
O38 O -0.00035 0.9221 0.10471 0.0
C39 C 0.98752 0.83963 0.11497 0.0
O40 O 0.9888 0.84724 0.09543 0.0
C41 C 0.01298 0.91906 0.14454 0.0
Zn42 Zn 0.95771 0.55404 0.10611 0.0
Zn43 Zn 0.98776 0.57863 0.12337 0.0
O44 O 0.96852 0.59725 0.10413 0.0
O45 O 0.94139 0.57822 0.09275 0.0
O46 O 0.00543 0.60261 0.13541 0.0
O47 O 0.94977 0.54298 0.13519 0.0
O48 O 0.97538 0.56259 0.14937 0.0
C49 C 0.95116 0.59589 0.09365 0.0
C50 C 0.00203 0.54455 0.09297 0.0
O51 O 0.00741 0.55908 0.1062 0.0
O52 O 0.98244 0.54023 0.0899 0.0
C53 C 0.01426 0.61409 0.12117 0.0
O54 O 0.01532 0.60655 0.10158 0.0
C55 C 0.9604 0.54889 0.15136 0.0
Zn56 Zn 0.37845 0.97295 0.05575 0.0
Zn57 Zn 0.36631 0.9671 0.09516 0.0
O58 O 0.39165 0.98846 0.09567 0.0
O59 O 0.39857 0.99687 0.06234 0.0
O60 O 0.35947 0.96633 0.12678 0.0
O61 O 0.34846 0.97834 0.04649 0.0
O62 O 0.33845 0.97788 0.08028 0.0
C63 C 0.40231 -0.0008 0.08206 0.0
C64 C 0.38546 0.93004 0.07055 0.0
O65 O 0.3751 0.93601 0.08705 0.0
O66 O 0.38966 0.94316 0.05576 0.0
C67 C 0.37546 0.96454 0.13923 0.0
O68 O 0.39442 0.96108 0.1309 0.0
C69 C 0.3341 0.98053 0.06051 0.0
Zn70 Zn 0.64025 0.46965 0.0478 0.0
Zn71 Zn 0.64551 0.49439 0.08189 0.0
O72 O 0.62288 0.47179 0.08993 0.0
O73 O 0.62005 0.44962 0.06279 0.0
O74 O 0.65062 0.50768 0.11052 0.0
O75 O 0.67137 0.46247 0.04604 0.0
O76 O 0.67582 0.48591 0.07192 0.0
C77 C 0.61476 0.45516 0.08148 0.0
C78 C 0.62801 0.51553 0.04331 0.0
O79 O 0.63318 0.5175 0.06287 0.0
O80 O 0.62966 0.49751 0.03402 0.0
C81 C 0.63451 0.51311 0.1216 0.0
O82 O 0.61547 0.51251 0.11276 0.0
C83 C 0.68362 0.47311 0.05809 0.0
Zn84 Zn 0.38284 0.01842 0.44017 0.0
Zn85 Zn 0.36817 0.02308 0.4032 0.0
O86 O 0.39702 0.00685 0.39975 0.0
O87 O 0.41224 0.01023 0.43114 0.0
O88 O 0.35865 0.02344 0.37242 0.0
O89 O 0.3616 0.99597 0.44795 0.0
O90 O 0.34398 0.00707 0.41966 0.0
C91 C 0.41321 0.00437 0.41184 0.0
C92 C 0.37231 0.06185 0.43139 0.0
O93 O 0.37078 0.05499 0.41226 0.0
O94 O 0.37585 0.04894 0.44654 0.0
C95 C 0.37219 0.03046 0.359 0.0
O96 O 0.39005 0.03888 0.36617 0.0
C97 C 0.34473 0.99608 0.43685 0.0
Zn98 Zn 0.63423 0.48232 0.45459 0.0
Zn99 Zn 0.65151 0.46878 0.38555 0.0
O100 O 0.62724 0.49123 0.38697 0.0
O101 O 0.63231 0.48672 0.4209 0.0
O102 O 0.65761 0.46491 0.35442 0.0
O103 O 0.65526 0.48085 0.42753 0.0
O104 O 0.67836 0.47955 0.40172 0.0
C105 C 0.62168 0.49575 0.40593 0.0
C106 C 0.63477 0.44413 0.41887 0.0
O107 O 0.64017 0.44092 0.39952 0.0
O108 O 0.63836 0.46284 0.42646 0.0
C109 C 0.64125 0.46192 0.34278 0.0
O110 O 0.62261 0.45923 0.35206 0.0
C111 C 0.67455 0.48366 0.42127 0.0
Zn112 Zn 0.03751 0.35369 0.99414 0.0
Zn113 Zn 0.10355 0.33035 0.97598 0.0
O114 O 0.10594 0.35411 -0.00121 0.0
O115 O 0.07145 0.35218 0.9968 0.0
O116 O 0.13379 0.32123 0.97069 0.0
O117 O 0.06228 0.33014 0.99042 0.0
O118 O 0.08557 0.30465 0.9874 0.0
C119 C 0.08795 0.36145 0.00457 0.0
C120 C 0.0704 0.35123 0.95432 0.0
O121 O 0.08911 0.34481 0.94952 0.0
O122 O 0.06374 0.3468 0.97313 0.0
C123 C 0.14639 0.33377 0.9609 0.0
O124 O 0.1386 0.35112 0.95197 0.0
C125 C 0.06679 0.31025 0.99275 0.0
Zn126 Zn 0.03974 0.62908 0.5088 0.0
Zn127 Zn 0.11206 0.6336 0.50898 0.0
O128 O 0.10229 0.6095 0.48822 0.0
O129 O 0.07123 0.62053 0.49873 0.0
O130 O 0.14417 0.63555 0.50781 0.0
O131 O 0.07 0.64428 0.50393 0.0
O132 O 0.09891 0.663 0.5002 0.0
C133 C 0.08214 0.60722 0.48763 0.0
C134 C 0.08109 0.62444 0.53999 0.0
O135 O 0.10139 0.62544 0.53947 0.0
O136 O 0.07125 0.62849 0.52251 0.0
C137 C 0.15496 0.619 0.50298 0.0
O138 O 0.14495 0.60077 0.49999 0.0
C139 C 0.07863 0.66231 0.49945 0.0
Zn140 Zn 0.95886 0.89798 0.51787 0.0
Zn141 Zn 0.91972 0.8821 0.52412 0.0
O142 O 0.9164 0.90722 0.50273 0.0
O143 O 0.94889 0.91876 0.49581 0.0
O144 O 0.88937 0.87154 0.52477 0.0
O145 O 0.96919 0.86913 0.50834 0.0
O146 O 0.93707 0.85583 0.51392 0.0
C147 C 0.92897 0.9197 0.49272 0.0
C148 C 0.94359 0.90033 0.56189 0.0
O149 O 0.92711 0.89058 0.555 0.0
O150 O 0.95861 0.90545 0.54933 0.0
C151 C 0.87496 0.88561 0.52744 0.0
O152 O 0.88074 0.90532 0.53199 0.0
C153 C 0.9565 0.85337 0.50825 0.0
Zn154 Zn 0.44316 0.6215 0.54635 0.0
Zn155 Zn 0.41528 0.63141 0.51602 0.0
O156 O 0.39973 0.61279 0.53826 0.0
O157 O 0.42072 0.60946 0.56617 0.0
O158 O 0.39034 0.63937 0.49755 0.0
O159 O 0.45285 0.65221 0.5484 0.0
O160 O 0.42893 0.66026 0.52395 0.0
C161 C 0.40296 0.606 0.55716 0.0
C162 C 0.45128 0.60244 0.50395 0.0
O163 O 0.4356 0.61382 0.49773 0.0
O164 O 0.45668 0.60226 0.52352 0.0
C165 C 0.38093 0.62471 0.48708 0.0
O166 O 0.3896 0.60557 0.48639 0.0
C167 C 0.44396 0.66593 0.53648 0.0
Zn168 Zn 0.50015 0.56388 0.8564 0.0
Zn169 Zn 0.48616 0.60275 0.85143 0.0
O170 O 0.51009 0.60406 0.87443 0.0
O171 O 0.52104 0.571 0.87922 0.0
O172 O 0.48081 0.63428 0.84778 0.0
O173 O 0.51046 0.56172 0.82653 0.0
O174 O 0.4933 0.59192 0.82068 0.0
C175 C 0.52216 0.59064 0.88384 0.0
C176 C 0.45459 0.56979 0.86539 0.0
O177 O 0.45821 0.58964 0.86254 0.0
O178 O 0.46948 0.55622 0.86314 0.0
C179 C 0.47833 0.64513 0.86479 0.0
O180 O 0.47674 0.63496 0.8831 0.0
C181 C 0.50378 0.57583 0.81373 0.0
Zn182 Zn 0.48756 0.94492 0.88163 0.0
Zn183 Zn 0.50814 0.91051 0.87269 0.0
O184 O 0.48493 0.90182 0.89471 0.0
O185 O 0.47031 0.93194 0.90516 0.0
O186 O 0.5191 0.88127 0.86495 0.0
O187 O 0.47517 0.94778 0.85244 0.0
O188 O 0.49912 0.92362 0.84349 0.0
C189 C 0.47193 0.91184 0.90675 0.0
C190 C 0.53328 0.94718 0.8898 0.0
O191 O 0.53306 0.9271 0.88629 0.0
O192 O 0.5164 0.95815 0.88765 0.0
C193 C 0.52337 0.86857 0.88023 0.0
O194 O 0.52329 0.87604 0.89987 0.0
C195 C 0.48512 0.93748 0.83819 0.0
Zn196 Zn 0.48943 0.43633 0.5907 0.0
Zn197 Zn 0.47928 0.40062 0.61076 0.0
O198 O 0.50068 0.39308 0.58648 0.0
O199 O 0.51126 0.42322 0.57179 0.0
O200 O 0.47526 0.37096 0.62257 0.0
O201 O 0.4988 0.44896 0.61867 0.0
O202 O 0.48999 0.41935 0.63573 0.0
C203 C 0.51228 0.40309 0.5731 0.0
C204 C 0.44418 0.42637 0.58974 0.0
O205 O 0.44947 0.41097 0.60195 0.0
O206 O 0.45837 0.43845 0.5818 0.0
C207 C 0.46936 0.35747 0.60853 0.0
O208 O 0.4639 0.36455 0.58952 0.0
C209 C 0.49716 0.43846 0.63587 0.0
Zn210 Zn 0.45481 0.07112 0.61807 0.0
Zn211 Zn 0.48711 0.09755 0.62212 0.0
O212 O 0.46452 0.11207 0.60297 0.0
O213 O 0.43685 0.09078 0.60001 0.0
O214 O 0.50591 0.12306 0.62724 0.0
O215 O 0.45013 0.0686 0.64957 0.0
O216 O 0.48052 0.08601 0.65242 0.0
C217 C 0.44603 0.10822 0.59548 0.0
C218 C 0.49664 0.05665 0.60063 0.0
O219 O 0.50377 0.0751 0.60552 0.0
O220 O 0.4774 0.05161 0.60464 0.0
C221 C 0.51114 0.1337 0.61076 0.0
O222 O 0.50814 0.12499 0.59187 0.0
C223 C 0.46543 0.0753 0.66097 0.0
Zn224 Zn 0.90034 0.48255 0.55716 0.0
Zn225 Zn 0.88003 0.47924 0.59339 0.0
O226 O 0.90701 0.49763 0.59951 0.0
O227 O 0.92096 0.50433 0.56795 0.0
O228 O 0.86725 0.47892 0.6228 0.0
O229 O 0.87316 0.49226 0.54305 0.0
O230 O 0.85674 0.49249 0.57414 0.0
C231 C 0.92087 0.50702 0.58796 0.0
C232 C 0.89676 0.43913 0.57156 0.0
O233 O 0.88466 0.44756 0.58559 0.0
O234 O 0.90692 0.45092 0.5586 0.0
C235 C 0.87752 0.46884 0.63713 0.0
O236 O 0.89438 0.45765 0.63152 0.0
C237 C 0.85654 0.49578 0.55402 0.0
Zn238 Zn 0.12698 0.95012 0.5793 0.0
Zn239 Zn 0.13942 0.97991 0.60674 0.0
O240 O 0.12017 0.95848 0.62268 0.0
O241 O 0.11246 0.9318 0.6013 0.0
O242 O 0.14717 0.99875 0.63163 0.0
O243 O 0.15743 0.94502 0.57053 0.0
O244 O 0.16771 0.97055 0.59254 0.0
C245 C 0.11102 0.94059 0.61944 0.0
C246 C 0.11184 0.99358 0.56989 0.0
O247 O 0.12286 0.9989 0.58615 0.0
O248 O 0.11055 0.97407 0.56438 0.0
C249 C 0.13129 0.00757 0.64076 0.0
O250 O 0.11234 0.00582 0.63187 0.0
C251 C 0.17208 0.95671 0.57818 0.0
Zn252 Zn 0.89797 0.5411 0.96209 0.0
Zn253 Zn 0.88735 0.53775 0.89927 0.0
O254 O 0.91349 0.52235 0.91538 0.0
O255 O 0.92241 0.52271 0.95045 0.0
O256 O 0.88855 0.53026 0.86813 0.0
O257 O 0.87737 0.53417 0.93794 0.0
O258 O 0.85836 0.52614 0.91067 0.0
C259 C 0.92576 0.51676 0.93105 0.0
C260 C 0.8906 0.57252 0.92337 0.0
O261 O 0.88872 0.57088 0.90331 0.0
O262 O 0.89099 0.55508 0.93358 0.0
C263 C 0.87452 0.5376 0.85542 0.0
O264 O 0.86001 0.55089 0.86277 0.0
C265 C 0.86027 0.52612 0.93079 0.0
Zn266 Zn 0.11426 0.06661 0.94657 0.0
Zn267 Zn 0.12333 0.05151 0.90929 0.0
O268 O 0.10257 0.07738 0.90509 0.0
O269 O 0.09959 0.09278 0.93645 0.0
O270 O 0.13051 0.04385 0.8788 0.0
O271 O 0.14452 0.068 0.95606 0.0
O272 O 0.15271 0.05434 0.92468 0.0
C273 C 0.09514 0.09237 0.91676 0.0
C274 C 0.0978 0.02369 0.93858 0.0
O275 O 0.10792 0.02529 0.92102 0.0
O276 O 0.09734 0.0393 0.95154 0.0
C277 C 0.11506 0.0423 0.86568 0.0
O278 O 0.09546 0.04482 0.87276 0.0
C279 C 0.15835 0.06086 0.9432 0.0
Zn280 Zn 0.54694 0.87268 0.46545 0.0
Zn281 Zn 0.61707 0.85816 0.45685 0.0
O282 O 0.61352 0.88342 0.47828 0.0
O283 O 0.58028 0.87695 0.4711 0.0
O284 O 0.64866 0.85281 0.45477 0.0
O285 O 0.5751 0.85326 0.46701 0.0
O286 O 0.6016 0.83108 0.46911 0.0
C287 C 0.59407 0.88858 0.48073 0.0
C288 C 0.58389 0.87118 0.42972 0.0
O289 O 0.6038 0.86783 0.42746 0.0
O290 O 0.57615 0.86804 0.44834 0.0
C291 C 0.6604 0.86928 0.45287 0.0
O292 O 0.65122 0.88802 0.45032 0.0
C293 C 0.58188 0.8347 0.47242 0.0
Zn294 Zn 0.53078 0.14516 0.04234 0.0
Zn295 Zn 0.59388 0.14861 0.04326 0.0
O296 O 0.57511 0.1269 0.02575 0.0
O297 O 0.53987 0.12098 0.02185 0.0
O298 O 0.6242 0.14212 0.03527 0.0
O299 O 0.55769 0.16372 0.03996 0.0
O300 O 0.58695 0.18 0.03361 0.0
C301 C 0.55943 0.11651 0.01751 0.0
C302 C 0.56694 0.14122 0.07525 0.0
O303 O 0.5872 0.14094 0.07495 0.0
O304 O 0.55815 0.15075 0.05968 0.0
C305 C 0.62785 0.13992 0.01538 0.0
O306 O 0.61199 0.14217 0.00181 0.0
C307 C 0.56678 0.18023 0.03251 0.0
Zn308 Zn 0.44062 0.39225 0.96283 0.0
Zn309 Zn 0.40777 0.37253 0.98022 0.0
O310 O 0.39519 0.3985 0.96403 0.0
O311 O 0.42191 0.41122 0.9451 0.0
O312 O 0.38087 0.35707 0.98806 0.0
O313 O 0.45268 0.36508 0.95063 0.0
O314 O 0.42455 0.34916 0.96432 0.0
C315 C 0.40236 0.41154 0.95016 0.0
C316 C 0.4394 0.39257 0.00985 0.0
O317 O 0.42322 0.38038 0.00792 0.0
O318 O 0.44839 0.40036 0.99342 0.0
C319 C 0.3674 0.36444 0.00132 0.0
O320 O 0.37207 0.38189 0.01208 0.0
C321 C 0.44206 0.34819 0.95397 0.0
Zn322 Zn 0.9277 0.12956 0.06512 0.0
Zn323 Zn 0.87612 0.14447 0.03273 0.0
O324 O 0.8655 0.11954 0.05175 0.0
O325 O 0.89514 0.12891 0.06557 0.0
O326 O 0.85236 0.14887 0.0118 0.0
O327 O 0.90244 0.15047 0.06314 0.0
O328 O 0.88292 0.17349 0.04722 0.0
C329 C 0.88113 0.11438 0.0634 0.0
C330 C 0.92374 0.12799 0.01643 0.0
O331 O 0.90421 0.13463 0.01653 0.0
O332 O 0.93467 0.12501 0.03354 0.0
C333 C 0.84664 0.13321 0.00016 0.0
O334 O 0.85806 0.11557 0.00051 0.0
C335 C 0.89965 0.16996 0.05801 0.0
H336 H 0.08332 0.98778 0.53752 0.0
H337 H 0.07317 0.01363 0.51025 0.0
H338 H 0.10867 0.06283 0.54315 0.0
H339 H 0.11919 0.03686 0.57052 0.0
H340 H 0.05314 0.05139 0.50701 0.0
H341 H 0.13517 0.0915 0.50356 0.0
H342 H 0.17246 0.085 0.51471 0.0
H343 H 0.16253 0.0172 0.5097 0.0
H344 H 0.1253 0.02331 0.49822 0.0
H345 H 0.04467 0.10723 0.41033 0.0
H346 H 0.05651 0.10571 0.44763 0.0
H347 H 0.09887 0.05354 0.43198 0.0
H348 H 0.08733 0.0551 0.39489 0.0
H349 H 0.11498 0.07682 0.4644 0.0
H350 H 0.047 0.04373 0.44437 0.0
H351 H 0.01015 0.04458 0.43034 0.0
H352 H 0.99253 0.09008 0.47869 0.0
H353 H 0.02939 0.08968 0.49281 0.0
C354 C 0.08868 0.00418 0.53921 0.0
C355 C 0.10238 0.01018 0.55597 0.0
C356 C 0.08274 0.019 0.52366 0.0
C357 C 0.09042 0.04008 0.52451 0.0
C358 C 0.10277 0.04657 0.54209 0.0
C359 C 0.10871 0.03172 0.55773 0.0
C360 C 0.08741 0.05413 0.50567 0.0
C361 C 0.06663 0.05743 0.49795 0.0
C362 C 0.10502 0.06179 0.4937 0.0
C363 C 0.12741 0.05788 0.50036 0.0
C364 C 0.14098 0.07522 0.50482 0.0
C365 C 0.16209 0.07159 0.51117 0.0
C366 C 0.16982 0.05069 0.51299 0.0
C367 C 0.15649 0.03337 0.50835 0.0
C368 C 0.13539 0.0369 0.50193 0.0
C369 C 0.05715 0.09604 0.41468 0.0
C370 C 0.06479 0.08098 0.39982 0.0
C371 C 0.06382 0.09513 0.43603 0.0
C372 C 0.07821 0.0792 0.44265 0.0
C373 C 0.08768 0.0659 0.42727 0.0
C374 C 0.08099 0.06673 0.40605 0.0
C375 C 0.08075 0.0736 0.46552 0.0
C376 C 0.10143 0.07179 0.47397 0.0
C377 C 0.06309 0.06668 0.47787 0.0
C378 C 0.04096 0.0669 0.46945 0.0
C379 C 0.03529 0.05402 0.4519 0.0
C380 C 0.01441 0.05441 0.44395 0.0
C381 C -0.00098 0.06743 0.45358 0.0
C382 C 0.00448 0.08005 0.47121 0.0
C383 C 0.02535 0.07976 0.47919 0.0
H384 H 0.98286 0.06769 0.44742 0.0
H385 H 0.18616 0.04792 0.51794 0.0
H386 H 0.93744 0.36036 0.42731 0.0
H387 H 0.92458 0.34991 0.46213 0.0
H388 H 0.85952 0.36028 0.44141 0.0
H389 H 0.87277 0.3728 0.40685 0.0
H390 H 0.86447 0.38341 0.47151 0.0
H391 H 0.87911 0.31064 0.46805 0.0
H392 H 0.89746 0.27695 0.45901 0.0
H393 H 0.95047 0.29477 0.49876 0.0
H394 H 0.93268 0.32873 0.50779 0.0
H395 H 0.86227 0.4128 0.57566 0.0
H396 H 0.85597 0.38152 0.55302 0.0
H397 H 0.92191 0.3826 0.53319 0.0
H398 H 0.92821 0.41387 0.55554 0.0
H399 H 0.90148 0.34127 0.52747 0.0
H400 H 0.89 0.41935 0.51254 0.0
H401 H 0.87179 0.45356 0.52004 0.0
H402 H 0.81082 0.42288 0.51272 0.0
H403 H 0.82873 0.38838 0.50584 0.0
C404 C 0.92033 0.35967 0.42986 0.0
C405 C 0.90613 0.36791 0.41458 0.0
C406 C 0.91287 0.35336 0.44989 0.0
C407 C 0.89095 0.3544 0.45476 0.0
C408 C 0.87653 0.35965 0.43829 0.0
C409 C 0.88408 0.36677 0.41849 0.0
C410 C 0.88416 0.35563 0.4776 0.0
C411 C 0.87183 0.37343 0.48363 0.0
C412 C 0.89358 0.34284 0.49381 0.0
C413 C 0.90446 0.3223 0.48865 0.0
C414 C 0.89472 0.30745 0.47482 0.0
C415 C 0.90504 0.28828 0.46969 0.0
C416 C 0.92511 0.28372 0.47832 0.0
C417 C 0.93489 0.2983 0.49213 0.0
C418 C 0.92465 0.3175 0.49732 0.0
C419 C 0.87572 0.40559 0.56748 0.0
C420 C 0.8956 0.41605 0.56683 0.0
C421 C 0.87208 0.38767 0.55454 0.0
C422 C 0.88834 0.38012 0.54102 0.0
C423 C 0.9091 0.38824 0.54339 0.0
C424 C 0.91268 0.40624 0.55609 0.0
C425 C 0.88303 0.36942 0.52056 0.0
C426 C 0.89314 0.35012 0.51513 0.0
C427 C 0.87135 0.38058 0.50475 0.0
C428 C 0.86065 0.40127 0.5091 0.0
C429 C 0.87271 0.41989 0.51281 0.0
C430 C 0.86245 0.43932 0.51698 0.0
C431 C 0.84015 0.44037 0.51709 0.0
C432 C 0.82808 0.42202 0.51292 0.0
C433 C 0.83827 0.40251 0.50895 0.0
H434 H 0.83223 0.45542 0.5203 0.0
H435 H 0.93308 0.26888 0.4743 0.0
H436 H 0.05911 0.92905 0.08812 0.0
H437 H 0.07518 0.93843 0.05391 0.0
H438 H 0.05054 0.88023 0.02613 0.0
H439 H 0.03459 0.87058 0.06066 0.0
H440 H 0.10194 0.92171 0.02193 0.0
H441 H 0.02521 0.89785 0.98052 0.0
H442 H 0.988 0.88797 0.98923 0.0
H443 H 0.98947 0.92956 0.04388 0.0
H444 H 0.02654 0.93986 0.0353 0.0
H445 H 0.11083 0.98346 0.9273 0.0
H446 H 0.10139 0.95005 0.94563 0.0
H447 H 0.05527 0.9843 0.9838 0.0
H448 H 0.06464 0.01751 0.96572 0.0
H449 H 0.04182 0.94355 0.975 0.0
H450 H 0.10605 0.98099 -5e-05 0.0
H451 H 0.14259 0.9952 0.99583 0.0
H452 H 0.16541 0.93246 0.97959 0.0
H453 H 0.12888 0.91796 0.98329 0.0
C454 C 0.05779 0.91788 0.07493 0.0
C455 C 0.04548 0.89925 0.07687 0.0
C456 C 0.06707 0.92318 0.05543 0.0
C457 C 0.06386 0.91011 0.03748 0.0
C458 C 0.05318 0.89049 0.03984 0.0
C459 C 0.04412 0.885 0.05954 0.0
C460 C 0.06814 0.91926 0.01614 0.0
C461 C 0.08895 0.92591 0.01124 0.0
C462 C 0.05109 0.92501 0.00244 0.0
C463 C 0.02866 0.91939 0.0074 0.0
C464 C 0.01753 0.90491 0.99434 0.0
C465 C 0.99648 0.89925 -0.00074 0.0
C466 C 0.9864 0.90808 0.01714 0.0
C467 C 0.99731 0.92269 0.03008 0.0
C468 C 0.01832 0.92845 0.02519 0.0
C469 C 0.09817 0.98366 0.9391 0.0
C470 C 0.08866 0.00307 0.94537 0.0
C471 C 0.09286 0.96461 0.94958 0.0
C472 C 0.07784 0.96478 0.96624 0.0
C473 C 0.0669 0.9838 0.97099 0.0
C474 C 0.07236 0.0028 0.96074 0.0
C475 C 0.07559 0.94646 0.98103 0.0
C476 C 0.05509 0.93824 0.98483 0.0
C477 C 0.09286 0.93971 0.99404 0.0
C478 C 0.11472 0.94847 0.99155 0.0
C479 C 0.11882 0.97028 0.99528 0.0
C480 C 0.13953 0.97838 0.99306 0.0
C481 C 0.1563 0.96475 0.98737 0.0
C482 C 0.15239 0.943 0.98391 0.0
C483 C 0.13169 0.93485 0.98603 0.0
H484 H 0.17234 0.97103 0.98573 0.0
H485 H 0.97013 0.90364 0.02095 0.0
H486 H 0.97549 0.62889 0.07838 0.0
H487 H 0.96725 0.65067 0.04695 0.0
H488 H 0.90355 0.62428 0.0456 0.0
H489 H 0.91171 0.60253 0.07668 0.0
H490 H 0.96049 0.62828 0.0117 0.0
H491 H 0.8695 0.65202 0.01953 0.0
H492 H 0.84721 0.67276 0.04445 0.0
H493 H 0.90268 0.70613 0.06718 0.0
H494 H 0.92534 0.68595 0.04209 0.0
H495 H 0.87308 0.5835 0.96077 0.0
H496 H 0.88429 0.61224 0.98442 0.0
H497 H 0.92728 0.63572 0.93588 0.0
H498 H 0.91563 0.60675 0.91179 0.0
H499 H 0.8906 0.65673 0.98759 0.0
H500 H 0.97333 0.64155 0.96144 0.0
H501 H 0.99482 0.61722 0.93888 0.0
H502 H 0.95498 0.56435 0.95717 0.0
H503 H 0.93345 0.58837 0.97996 0.0
C504 C 0.95944 0.62843 0.0719 0.0
C505 C 0.94436 0.61363 0.07963 0.0
C506 C 0.95476 0.64095 0.05396 0.0
C507 C 0.93483 0.63911 0.04382 0.0
C508 C 0.91897 0.62627 0.05322 0.0
C509 C 0.92371 0.61359 0.07091 0.0
C510 C 0.93209 0.64541 0.02113 0.0
C511 C 0.94569 0.63553 0.00627 0.0
C512 C 0.91291 0.65497 0.01391 0.0
C513 C 0.89917 0.66748 0.02875 0.0
C514 C 0.87697 0.66397 0.02959 0.0
C515 C 0.86426 0.6756 0.04383 0.0
C516 C 0.87352 0.69079 0.05735 0.0
C517 C 0.89553 0.69439 0.05667 0.0
C518 C 0.90832 0.68283 0.04245 0.0
C519 C 0.88434 0.59527 0.95486 0.0
C520 C 0.89374 0.59287 0.93469 0.0
C521 C 0.89059 0.61184 0.96829 0.0
C522 C 0.90673 0.62607 0.96199 0.0
C523 C 0.91474 0.62494 0.941 0.0
C524 C 0.90816 0.60841 0.92731 0.0
C525 C 0.91806 0.63785 0.97913 0.0
C526 C 0.90612 0.65108 0.99282 0.0
C527 C 0.93872 0.63127 0.98547 0.0
C528 C 0.95178 0.61672 0.97219 0.0
C529 C 0.96925 0.62472 0.96065 0.0
C530 C 0.98141 0.611 0.94784 0.0
C531 C 0.97625 0.58927 0.94656 0.0
C532 C 0.95896 0.58118 0.95817 0.0
C533 C 0.94681 0.59482 0.97104 0.0
H534 H 0.98565 0.57869 0.9366 0.0
H535 H 0.86365 0.69974 0.06839 0.0
H536 H 0.41994 0.00292 0.12216 0.0
H537 H 0.45193 0.02336 0.13215 0.0
H538 H 0.45681 0.04703 0.06758 0.0
H539 H 0.4253 0.02665 0.05746 0.0
H540 H 0.49445 0.03159 0.08156 0.0
H541 H 0.43726 0.07796 0.10847 0.0
H542 H 0.40634 0.08558 0.13171 0.0
H543 H 0.44428 0.0719 0.18724 0.0
H544 H 0.47537 0.06399 0.16427 0.0
H545 H 0.52492 0.14429 0.08392 0.0
H546 H 0.50166 0.11632 0.09755 0.0
H547 H 0.5565 0.07637 0.11 0.0
H548 H 0.58001 0.10435 0.09558 0.0
H549 H 0.49494 0.09227 0.13267 0.0
H550 H 0.54856 0.03429 0.0977 0.0
H551 H 0.57586 0.02775 0.0699 0.0
H552 H 0.54049 0.06665 0.02581 0.0
H553 H 0.51354 0.07405 0.05356 0.0
C554 C 0.42774 0.01266 0.11017 0.0
C555 C 0.42015 0.01309 0.08897 0.0
C556 C 0.44602 0.02427 0.1159 0.0
C557 C 0.45683 0.03654 0.10055 0.0
C558 C 0.44887 0.03744 0.07961 0.0
C559 C 0.43076 0.02586 0.07388 0.0
C560 C 0.47662 0.04847 0.10571 0.0
C561 C 0.49473 0.04455 0.09312 0.0
C562 C 0.47712 0.06519 0.12093 0.0
C563 C 0.45852 0.07014 0.13468 0.0
C564 C 0.43895 0.07644 0.12563 0.0
C565 C 0.42141 0.08083 0.13874 0.0
C566 C 0.42332 0.07915 0.16093 0.0
C567 C 0.44281 0.07315 0.17005 0.0
C568 C 0.46039 0.06872 0.157 0.0
C569 C 0.5321 0.12972 0.08995 0.0
C570 C 0.5542 0.12632 0.08833 0.0
C571 C 0.51878 0.11377 0.0979 0.0
C572 C 0.52727 0.09406 0.10442 0.0
C573 C 0.54957 0.0913 0.10464 0.0
C574 C 0.563 0.10735 0.09659 0.0
C575 C 0.51234 0.07595 0.10779 0.0
C576 C 0.49511 0.0786 0.12196 0.0
C577 C 0.51244 0.05815 0.09383 0.0
C578 C 0.5293 0.0549 0.07768 0.0
C579 C 0.54685 0.04166 0.08213 0.0
C580 C 0.56229 0.03789 0.06642 0.0
C581 C 0.56007 0.047 0.04614 0.0
C582 C 0.54246 0.05997 0.04159 0.0
C583 C 0.52716 0.06404 0.05732 0.0
H584 H 0.5719 0.04388 0.03392 0.0
H585 H 0.40973 0.08254 0.17106 0.0
H586 H 0.57758 0.47361 0.09236 0.0
H587 H 0.54384 0.4554 0.098 0.0
H588 H 0.57685 0.39462 0.09989 0.0
H589 H 0.61043 0.41302 0.09181 0.0
H590 H 0.54994 0.39006 0.07367 0.0
H591 H 0.54048 0.41581 0.14281 0.0
H592 H 0.541 0.44036 0.17363 0.0
H593 H 0.49512 0.48093 0.14268 0.0
H594 H 0.49455 0.45687 0.1115 0.0
H595 H 0.44289 0.36426 0.04297 0.0
H596 H 0.46788 0.36707 0.07318 0.0
H597 H 0.4842 0.43116 0.05361 0.0
H598 H 0.45976 0.42829 0.02337 0.0
H599 H 0.48291 0.42065 0.10267 0.0
H600 H 0.52567 0.39846 0.03102 0.0
H601 H 0.528 0.37269 0.00112 0.0
H602 H 0.50949 0.32166 0.04317 0.0
H603 H 0.50701 0.34721 0.07324 0.0
C604 C 0.57766 0.45643 0.09471 0.0
C605 C 0.5964 0.44463 0.09153 0.0
C606 C 0.55831 0.44593 0.09823 0.0
C607 C 0.55749 0.42344 0.0995 0.0
C608 C 0.57683 0.41191 0.09874 0.0
C609 C 0.59606 0.42238 0.09424 0.0
C610 C 0.53662 0.41219 0.09672 0.0
C611 C 0.53546 0.39622 0.08092 0.0
C612 C 0.51735 0.41979 0.106 0.0
C613 C 0.51746 0.43443 0.12476 0.0
C614 C 0.53056 0.43001 0.1425 0.0
C615 C 0.53086 0.44386 0.16005 0.0
C616 C 0.51809 0.46218 0.16012 0.0
C617 C 0.50496 0.4667 0.14263 0.0
C618 C 0.5046 0.45291 0.12503 0.0
C619 C 0.45125 0.37919 0.04563 0.0
C620 C 0.44959 0.39602 0.03081 0.0
C621 C 0.4655 0.38076 0.06285 0.0
C622 C 0.47784 0.39933 0.06557 0.0
C623 C 0.47466 0.41679 0.05188 0.0
C624 C 0.4608 0.4151 0.03455 0.0
C625 C 0.49692 0.39957 0.07946 0.0
C626 C 0.49768 0.41369 0.09687 0.0
C627 C 0.51589 0.38975 0.07239 0.0
C628 C 0.51609 0.37465 0.05422 0.0
C629 C 0.52198 0.38175 0.03378 0.0
C630 C 0.52335 0.36721 0.01685 0.0
C631 C 0.51898 0.34555 0.02027 0.0
C632 C 0.51292 0.33843 0.04056 0.0
C633 C 0.51146 0.35293 0.05753 0.0
H634 H 0.52039 0.3343 0.00721 0.0
H635 H 0.51836 0.47289 0.17372 0.0
H636 H 0.58839 0.91065 0.41231 0.0
H637 H 0.55885 0.93197 0.39777 0.0
H638 H 0.51869 0.87591 0.39735 0.0
H639 H 0.54782 0.85492 0.41285 0.0
H640 H 0.52621 0.93133 0.36369 0.0
H641 H 0.48386 0.88264 0.41916 0.0
H642 H 0.48416 0.86202 0.45283 0.0
H643 H 0.52287 0.9104 0.48238 0.0
H644 H 0.52342 0.93092 0.44862 0.0
H645 H 0.41779 0.97856 0.37647 0.0
H646 H 0.44838 0.95522 0.36839 0.0
H647 H 0.48272 0.98202 0.42186 0.0
H648 H 0.45249 0.00506 0.43008 0.0
H649 H 0.47532 0.93778 0.42413 0.0
H650 H 0.49951 0.99149 0.3729 0.0
H651 H 0.49466 0.01345 0.34053 0.0
H652 H 0.48784 0.95657 0.3026 0.0
H653 H 0.49232 0.93427 0.33481 0.0
C654 C 0.57358 0.90273 0.4081 0.0
C655 C 0.57031 0.88119 0.41348 0.0
C656 C 0.55667 0.91491 0.39992 0.0
C657 C 0.53646 0.90559 0.39693 0.0
C658 C 0.53404 0.88348 0.39991 0.0
C659 C 0.55074 0.87144 0.40849 0.0
C660 C 0.5174 0.91947 0.39482 0.0
C661 C 0.51488 0.93259 0.37674 0.0
C662 C 0.50257 0.9211 0.41177 0.0
C663 C 0.50403 0.90801 0.43136 0.0
C664 C 0.49274 0.88865 0.43277 0.0
C665 C 0.49275 0.87701 0.45184 0.0
C666 C 0.50359 0.88488 0.46971 0.0
C667 C 0.5146 0.9043 0.46848 0.0
C668 C 0.51496 0.91581 0.44933 0.0
C669 C 0.43208 0.97979 0.38616 0.0
C670 C 0.43261 0.99329 0.40419 0.0
C671 C 0.44952 0.96651 0.38149 0.0
C672 C 0.46767 0.96681 0.39467 0.0
C673 C 0.46878 0.98148 0.41159 0.0
C674 C 0.45145 0.99458 0.41631 0.0
C675 C 0.48423 0.95 0.39323 0.0
C676 C 0.48631 0.9363 0.41079 0.0
C677 C 0.49825 0.94778 0.37566 0.0
C678 C 0.49606 0.96122 0.35629 0.0
C679 C 0.49683 0.98367 0.35768 0.0
C680 C 0.49417 0.99618 0.33936 0.0
C681 C 0.49088 0.98642 0.31953 0.0
C682 C 0.49036 0.96412 0.31797 0.0
C683 C 0.49298 0.95154 0.33625 0.0
H684 H 0.48877 0.99612 0.30536 0.0
H685 H 0.50353 0.87588 0.48448 0.0
H686 H 0.45588 0.61017 0.46118 0.0
H687 H 0.48064 0.59237 0.43647 0.0
H688 H 0.50022 0.54954 0.4868 0.0
H689 H 0.47595 0.56744 0.51162 0.0
H690 H 0.52591 0.59019 0.44421 0.0
H691 H 0.50953 0.50036 0.46227 0.0
H692 H 0.47891 0.47689 0.47027 0.0
H693 H 0.43667 0.52064 0.43844 0.0
H694 H 0.46707 0.5442 0.42992 0.0
H695 H 0.61269 0.51698 0.44276 0.0
H696 H 0.58009 0.53687 0.45138 0.0
H697 H 0.55496 0.52331 0.38865 0.0
H698 H 0.58785 0.50386 0.37964 0.0
H699 H 0.52784 0.51253 0.42762 0.0
H700 H 0.56476 0.56942 0.39243 0.0
H701 H 0.59569 0.59254 0.38457 0.0
H702 H 0.59618 0.61472 0.44953 0.0
H703 H 0.56546 0.59146 0.45788 0.0
C704 C 0.46523 0.59674 0.46685 0.0
C705 C 0.46411 0.59025 0.48834 0.0
C706 C 0.47936 0.58666 0.45276 0.0
C707 C 0.49213 0.56963 0.45984 0.0
C708 C 0.49035 0.56254 0.48102 0.0
C709 C 0.47656 0.57284 0.49519 0.0
C710 C 0.50878 0.56034 0.44589 0.0
C711 C 0.5262 0.57328 0.44028 0.0
C712 C 0.50899 0.53832 0.44067 0.0
C713 C 0.4906 0.52414 0.4456 0.0
C714 C 0.49373 0.50493 0.45688 0.0
C715 C 0.4764 0.49161 0.46152 0.0
C716 C 0.45585 0.4973 0.45492 0.0
C717 C 0.45259 0.51629 0.44361 0.0
C718 C 0.46986 0.52965 0.43891 0.0
C719 C 0.60031 0.51844 0.43073 0.0
C720 C 0.60274 0.50893 0.41055 0.0
C721 C 0.58178 0.52981 0.43565 0.0
C722 C 0.56525 0.53151 0.42061 0.0
C723 C 0.56764 0.52217 0.40039 0.0
C724 C 0.58641 0.51117 0.39527 0.0
C725 C 0.54516 0.54226 0.42667 0.0
C726 C 0.52724 0.52955 0.43102 0.0
C727 C 0.54447 0.56447 0.43075 0.0
C728 C 0.56289 0.57858 0.4258 0.0
C729 C 0.57158 0.57909 0.40509 0.0
C730 C 0.58905 0.59225 0.40054 0.0
C731 C 0.59792 0.60506 0.41655 0.0
C732 C 0.5893 0.60477 0.43714 0.0
C733 C 0.57183 0.59163 0.44179 0.0
H734 H 0.61144 0.61524 0.413 0.0
H735 H 0.44245 0.48697 0.45854 0.0
H736 H 0.11786 0.39287 0.0091 0.0
H737 H 0.11308 0.4279 0.02618 0.0
H738 H 0.04925 0.40999 0.04491 0.0
H739 H 0.0537 0.37522 0.02743 0.0
H740 H 0.07901 0.45706 0.01403 0.0
H741 H 0.04268 0.43201 0.09562 0.0
H742 H 0.04737 0.40347 0.12241 0.0
H743 H 0.11214 0.39423 0.10185 0.0
H744 H 0.10797 0.42293 0.07517 0.0
H745 H 0.99713 0.52065 0.05696 0.0
H746 H 0.02204 0.49452 0.04229 0.0
H747 H 0.06866 0.51193 0.09003 0.0
H748 H 0.04371 0.53835 0.10482 0.0
H749 H 0.05962 0.46915 0.08988 0.0
H750 H 0.07904 0.52168 0.03867 0.0
H751 H 0.07428 0.54938 0.01106 0.0
H752 H 0.04383 0.50359 0.96989 0.0
H753 H 0.04794 0.47573 0.99738 0.0
C754 C 0.10295 0.39629 0.01718 0.0
C755 C 0.08612 0.38139 0.01699 0.0
C756 C 0.10025 0.41628 0.02686 0.0
C757 C 0.0809 0.42136 0.03691 0.0
C758 C 0.06438 0.4062 0.03741 0.0
C759 C 0.06691 0.38642 0.02738 0.0
C760 C 0.07698 0.44309 0.04531 0.0
C761 C 0.07495 0.45986 0.03061 0.0
C762 C 0.07223 0.44666 0.06706 0.0
C763 C 0.07495 0.42956 0.0833 0.0
C764 C 0.05797 0.42399 0.0969 0.0
C765 C 0.06053 0.40775 0.11205 0.0
C766 C 0.08002 0.39701 0.1138 0.0
C767 C 0.09703 0.40251 0.10043 0.0
C768 C 0.09456 0.41874 0.08527 0.0
C769 C 0.01284 0.51925 0.06409 0.0
C770 C 0.0184 0.5314 0.08217 0.0
C771 C 0.02713 0.50441 0.05558 0.0
C772 C 0.04722 0.50135 0.06502 0.0
C773 C 0.05324 0.51415 0.08247 0.0
C774 C 0.03901 0.52924 0.09086 0.0
C775 C 0.06047 0.48292 0.05831 0.0
C776 C 0.06414 0.46664 0.07333 0.0
C777 C 0.06655 0.47975 0.03675 0.0
C778 C 0.0637 0.49661 0.02023 0.0
C779 C 0.07111 0.51755 0.02384 0.0
C780 C 0.06855 0.53329 0.00817 0.0
C781 C 0.05872 0.52827 0.98875 0.0
C782 C 0.05142 0.50748 0.98495 0.0
C783 C 0.05387 0.49171 0.00058 0.0
H784 H 0.05679 0.54047 0.97664 0.0
H785 H 0.08196 0.38444 0.12553 0.0
H786 H 0.00648 0.43396 0.40016 0.0
H787 H 0.0291 0.46226 0.41502 0.0
H788 H 0.97336 0.50137 0.42588 0.0
H789 H 0.95073 0.47342 0.41084 0.0
H790 H 0.00418 0.52387 0.40692 0.0
H791 H -0.00099 0.47585 0.46696 0.0
H792 H 0.00235 0.4413 0.48568 0.0
H793 H 0.06971 0.44038 0.47279 0.0
H794 H 0.06672 0.47481 0.45373 0.0
H795 H 0.03966 0.60177 0.48006 0.0
H796 H 0.02221 0.57155 0.4626 0.0
H797 H 0.08353 0.54202 0.45169 0.0
H798 H 0.1012 0.57232 0.46931 0.0
H799 H 0.05339 0.51383 0.46829 0.0
H800 H 0.05865 0.56362 0.41067 0.0
H801 H 0.05498 0.5986 0.39284 0.0
H802 H 0.98701 0.59642 0.40176 0.0
H803 H 0.9903 0.56157 0.41994 0.0
C804 C -0.00098 0.44852 0.40586 0.0
C805 C 0.97678 0.45142 0.40429 0.0
C806 C 0.01197 0.46466 0.41439 0.0
C807 C 0.0029 0.4839 0.42162 0.0
C808 C 0.9807 0.48669 0.42032 0.0
C809 C 0.96778 0.47063 0.41178 0.0
C810 C 0.01644 0.50147 0.43004 0.0
C811 C 0.01479 0.52171 0.42047 0.0
C812 C 0.03078 0.49849 0.44728 0.0
C813 C 0.0326 0.47777 0.45869 0.0
C814 C 0.0145 0.46818 0.46794 0.0
C815 C 0.01634 0.44864 0.47865 0.0
C816 C 0.03622 0.43862 0.48036 0.0
C817 C 0.05432 0.44814 0.47141 0.0
C818 C 0.05256 0.46767 0.46066 0.0
C819 C 0.04947 0.58892 0.47388 0.0
C820 C 0.0718 0.58943 0.47603 0.0
C821 C 0.03947 0.57169 0.46384 0.0
C822 C 0.0516 0.55464 0.45572 0.0
C823 C 0.07391 0.55507 0.45782 0.0
C824 C 0.08397 0.57241 0.46778 0.0
C825 C 0.04075 0.53627 0.44544 0.0
C826 C 0.04293 0.5159 0.45461 0.0
C827 C 0.02683 0.53912 0.42787 0.0
C828 C 0.02475 0.56004 0.41682 0.0
C829 C 0.04294 0.57067 0.40898 0.0
C830 C 0.04092 0.59047 0.39878 0.0
C831 C 0.02078 0.59975 0.39621 0.0
C832 C 0.0026 0.58922 0.40378 0.0
C833 C 0.00453 0.56943 0.41401 0.0
H834 H 0.01925 0.61507 0.38831 0.0
H835 H 0.03761 0.42349 0.48867 0.0
H836 H 0.94452 0.92705 0.45335 0.0
H837 H 0.93457 0.95576 0.42886 0.0
H838 H 0.88581 0.9768 0.4728 0.0
H839 H 0.89524 0.94723 0.49718 0.0
H840 H 0.89169 0.97176 0.41009 0.0
H841 H 0.89867 0.02918 0.47487 0.0
H842 H 0.91158 0.0332 0.512 0.0
H843 H 0.96642 0.99457 0.49736 0.0
H844 H 0.95382 0.99048 0.46015 0.0
H845 H 0.95613 0.07882 0.38257 0.0
H846 H 0.92633 0.06253 0.40215 0.0
H847 H 0.94272 0.00096 0.37542 0.0
H848 H 0.97181 0.01707 0.35572 0.0
H849 H 0.93254 0.03593 0.43265 0.0
H850 H 0.90646 0.96576 0.37473 0.0
H851 H 0.89421 0.96201 0.33752 0.0
H852 H 0.87567 0.02814 0.33656 0.0
H853 H 0.88746 0.03227 0.37391 0.0
C854 C 0.9313 0.93745 0.45751 0.0
C855 C 0.92067 0.93511 0.47707 0.0
C856 C 0.92551 0.9537 0.44348 0.0
C857 C 0.90938 0.96824 0.449 0.0
C858 C 0.8981 0.96551 0.46819 0.0
C859 C 0.90353 0.94875 0.48207 0.0
C860 C 0.90739 0.98786 0.43605 0.0
C861 C 0.90013 0.98612 0.41493 0.0
C862 C 0.91748 0.00688 0.44279 0.0
C863 C 0.92529 0.00948 0.46491 0.0
C864 C 0.91349 0.02162 0.47963 0.0
C865 C 0.92074 0.02389 0.50065 0.0
C866 C 0.9398 0.01412 0.50704 0.0
C867 C 0.95167 0.0021 0.4924 0.0
C868 C 0.94449 -0.00018 0.47136 0.0
C869 C 0.95283 0.06195 0.38034 0.0
C870 C 0.96647 0.04914 0.36787 0.0
C871 C 0.93581 0.05266 0.39153 0.0
C872 C 0.93208 0.03051 0.3902 0.0
C873 C 0.94478 0.01813 0.37642 0.0
C874 C 0.96171 0.02734 0.36534 0.0
C875 C 0.91824 0.01934 0.40592 0.0
C876 C 0.92271 0.02251 0.42769 0.0
C877 C 0.90518 0.00187 0.39973 0.0
C878 C 0.89781 -0.00069 0.37726 0.0
C879 C 0.89955 0.97947 0.36673 0.0
C880 C 0.89275 0.97729 0.34555 0.0
C881 C 0.88416 0.99482 0.33469 0.0
C882 C 0.88235 0.01458 0.34499 0.0
C883 C 0.88912 0.01685 0.36616 0.0
H884 H 0.87892 0.9931 0.31829 0.0
H885 H 0.94537 0.01588 0.52332 0.0
H886 H 0.37889 0.57669 0.5362 0.0
H887 H 0.36566 0.54349 0.55116 0.0
H888 H 0.37945 0.56656 0.61477 0.0
H889 H 0.39455 0.59924 0.59949 0.0
H890 H 0.40037 0.53434 0.61 0.0
H891 H 0.32834 0.54474 0.59833 0.0
H892 H 0.2938 0.55472 0.58237 0.0
H893 H 0.30268 0.50802 0.53285 0.0
H894 H 0.33761 0.49821 0.54799 0.0
H895 H 0.41526 0.42719 0.62203 0.0
H896 H 0.38685 0.45386 0.62494 0.0
H897 H 0.39487 0.46974 0.55841 0.0
H898 H 0.42366 0.4436 0.55559 0.0
H899 H 0.35126 0.48038 0.57897 0.0
H900 H 0.43126 0.49188 0.58535 0.0
H901 H 0.46587 0.48276 0.60198 0.0
H902 H 0.4379 0.4889 0.66434 0.0
H903 H 0.40305 0.49786 0.64799 0.0
C904 C 0.37835 0.57506 0.55343 0.0
C905 C 0.38817 0.5903 0.56669 0.0
C906 C 0.37047 0.55605 0.56207 0.0
C907 C 0.3716 0.55224 0.58419 0.0
C908 C 0.37862 0.5689 0.59763 0.0
C909 C 0.38724 0.58761 0.58893 0.0
C910 C 0.37112 0.52975 0.59213 0.0
C911 C 0.38891 0.52281 0.60395 0.0
C912 C 0.35642 0.5143 0.58431 0.0
C913 C 0.33573 0.52067 0.57443 0.0
C914 C 0.3231 0.53673 0.5839 0.0
C915 C 0.3034 0.54235 0.575 0.0
C916 C 0.29599 0.53191 0.5567 0.0
C917 C 0.30837 0.51598 0.54713 0.0
C918 C 0.32817 0.51041 0.55586 0.0
C919 C 0.41006 0.43541 0.6077 0.0
C920 C 0.42185 0.43369 0.58867 0.0
C921 C 0.39377 0.45065 0.6094 0.0
C922 C 0.38902 0.46395 0.59197 0.0
C923 C 0.39828 0.45959 0.57203 0.0
C924 C 0.41482 0.4447 0.57043 0.0
C925 C 0.38073 0.4858 0.59564 0.0
C926 C 0.36166 0.49239 0.58591 0.0
C927 C 0.39393 0.50114 0.60565 0.0
C928 C 0.41462 0.49533 0.6155 0.0
C929 C 0.4325 0.49112 0.6026 0.0
C930 C 0.45213 0.48601 0.61196 0.0
C931 C 0.45406 0.48528 0.63419 0.0
C932 C 0.43635 0.48947 0.64712 0.0
C933 C 0.41666 0.49455 0.63783 0.0
H934 H 0.46933 0.48163 0.64139 0.0
H935 H 0.28072 0.53628 0.54984 0.0
H936 H 0.6113 0.55327 0.05857 0.0
H937 H 0.59687 0.5831 0.03734 0.0
H938 H 0.61361 0.54965 0.97938 0.0
H939 H 0.6277 0.52001 0.00023 0.0
H940 H 0.62261 0.5943 0.97806 0.0
H941 H 0.56453 0.54388 -0.00026 0.0
H942 H 0.54226 0.52699 0.02757 0.0
H943 H 0.52447 0.58898 0.0513 0.0
H944 H 0.54684 0.6062 0.02371 0.0
H945 H 0.56076 0.57372 0.8928 0.0
H946 H 0.58229 0.5797 0.92457 0.0
H947 H 0.538 0.62813 0.94594 0.0
H948 H 0.51635 0.62233 0.91357 0.0
H949 H 0.54346 0.59602 0.97511 0.0
H950 H 0.58906 0.64351 0.94065 0.0
H951 H 0.61038 0.65944 0.91165 0.0
H952 H 0.65179 0.60468 0.91154 0.0
H953 H 0.63057 0.58822 0.94029 0.0
C954 C 0.61208 0.55245 0.04129 0.0
C955 C 0.6204 0.53422 0.03103 0.0
C956 C 0.60392 0.5695 0.02924 0.0
C957 C 0.6043 0.56859 0.00683 0.0
C958 C 0.61336 0.55076 0.99667 0.0
C959 C 0.62119 0.53371 0.00861 0.0
C960 C 0.59341 0.58472 0.99342 0.0
C961 C 0.60531 0.5951 0.97751 0.0
C962 C 0.57092 0.58664 0.99343 0.0
C963 C 0.55751 0.57628 0.00991 0.0
C964 C 0.55596 0.55387 0.011 0.0
C965 C 0.54332 0.54425 0.0267 0.0
C966 C 0.53202 0.5569 0.04124 0.0
C967 C 0.53328 0.5792 0.04007 0.0
C968 C 0.54594 0.5889 0.02442 0.0
C969 C 0.55592 0.58607 0.90396 0.0
C970 C 0.53687 0.59745 0.90089 0.0
C971 C 0.56834 0.58965 0.92204 0.0
C972 C 0.56187 0.60452 0.93756 0.0
C973 C 0.54337 0.61676 0.93404 0.0
C974 C 0.53107 0.61344 0.9156 0.0
C975 C 0.57263 0.60404 0.95864 0.0
C976 C 0.56075 0.59655 0.97612 0.0
C977 C 0.59516 0.6049 0.96007 0.0
C978 C 0.6082 0.61465 0.94276 0.0
C979 C 0.60266 0.6348 0.9344 0.0
C980 C 0.61474 0.64394 0.91799 0.0
C981 C 0.63245 0.6331 0.90978 0.0
C982 C 0.63811 0.61309 0.91797 0.0
C983 C 0.62609 0.60388 0.93438 0.0
H984 H 0.64177 0.64019 0.89707 0.0
H985 H 0.52223 0.54943 0.05338 0.0
H986 H 0.3606 0.89504 0.0631 0.0
H987 H 0.37175 0.86632 0.03895 0.0
H988 H 0.43688 0.8889 0.04336 0.0
H989 H 0.42584 0.91629 0.06809 0.0
H990 H 0.38045 0.87784 0.00347 0.0
H991 H 0.47347 0.86492 0.01972 0.0
H992 H 0.49554 0.84844 0.04778 0.0
H993 H 0.44106 0.81386 0.07102 0.0
H994 H 0.41864 0.82981 0.04287 0.0
H995 H 0.44324 0.92899 0.93444 0.0
H996 H 0.42442 0.91132 0.96325 0.0
H997 H 0.45309 0.85099 0.9458 0.0
H998 H 0.47263 0.86889 0.91679 0.0
H999 H 0.45486 0.85592 0.98763 0.0
H1000 H 0.39884 0.85656 0.93952 0.0
H1001 H 0.37538 0.86939 0.91059 0.0
H1002 H 0.35348 0.92074 0.95058 0.0
H1003 H 0.37703 0.90848 0.97964 0.0
C1004 C 0.37749 0.8927 0.06013 0.0
C1005 C 0.3924 0.90788 0.06722 0.0
C1006 C 0.38388 0.87644 0.04606 0.0
C1007 C 0.40513 0.87557 0.03867 0.0
C1008 C 0.42044 0.8887 0.04868 0.0
C1009 C 0.4141 0.90461 0.06293 0.0
C1010 C 0.41019 0.86672 0.01706 0.0
C1011 C 0.39657 0.8725 0.00013 0.0
C1012 C 0.43067 0.85835 0.01217 0.0
C1013 C 0.44431 0.84854 0.02901 0.0
C1014 C 0.46618 0.8536 0.03059 0.0
C1015 C 0.47877 0.8444 0.04661 0.0
C1016 C 0.46972 0.8301 0.06116 0.0
C1017 C 0.44805 0.82496 0.05974 0.0
C1018 C 0.43538 0.83411 0.04377 0.0
C1019 C 0.44543 0.91191 0.93645 0.0
C1020 C 0.45941 0.90037 0.92323 0.0
C1021 C 0.43448 0.90175 0.9529 0.0
C1022 C 0.43692 0.87969 0.95644 0.0
C1023 C 0.45077 0.86797 0.94321 0.0
C1024 C 0.46187 0.87822 0.92665 0.0
C1025 C 0.42605 0.86989 0.97512 0.0
C1026 C 0.4385 0.86035 0.99116 0.0
C1027 C 0.40422 0.87403 0.97914 0.0
C1028 C 0.38967 0.88147 0.96185 0.0
C1029 C 0.38906 0.87061 0.94215 0.0
C1030 C 0.37575 0.87781 0.92571 0.0
C1031 C 0.36292 0.89584 0.92876 0.0
C1032 C 0.36337 0.90672 0.94827 0.0
C1033 C 0.37665 0.8996 0.96477 0.0
H1034 H 0.35265 0.9014 0.916 0.0
H1035 H 0.47949 0.82301 0.07355 0.0
H1036 H 0.50383 0.36729 0.54942 0.0
H1037 H 0.52569 0.35351 0.51969 0.0
H1038 H 0.57485 0.39944 0.53502 0.0
H1039 H 0.55295 0.41354 0.56394 0.0
H1040 H 0.53559 0.38206 0.48673 0.0
H1041 H 0.62226 0.38067 0.5229 0.0
H1042 H 0.6402 0.36525 0.55435 0.0
H1043 H 0.59097 0.31774 0.55971 0.0
H1044 H 0.57288 0.33259 0.52804 0.0
H1045 H 0.61251 0.45086 0.45531 0.0
H1046 H 0.5924 0.42504 0.47615 0.0
H1047 H 0.61052 0.37475 0.43258 0.0
H1048 H 0.63084 0.4009 0.41114 0.0
H1049 H 0.6141 0.37129 0.48593 0.0
H1050 H 0.56715 0.37592 0.42582 0.0
H1051 H 0.5495 0.39471 0.396 0.0
H1052 H 0.51926 0.43753 0.44035 0.0
H1053 H 0.53697 0.41921 0.4704 0.0
C1054 C 0.51961 0.3739 0.54674 0.0
C1055 C 0.52676 0.39155 0.55869 0.0
C1056 C 0.53204 0.36602 0.52986 0.0
C1057 C 0.55196 0.3753 0.52531 0.0
C1058 C 0.55972 0.39176 0.53847 0.0
C1059 C 0.54714 0.39995 0.55487 0.0
C1060 C 0.56295 0.37149 0.50473 0.0
C1061 C 0.55263 0.37889 0.48627 0.0
C1062 C 0.58508 0.36697 0.50409 0.0
C1063 C 0.59622 0.35773 0.52295 0.0
C1064 C 0.61536 0.36677 0.53058 0.0
C1065 C 0.62553 0.35817 0.54852 0.0
C1066 C 0.61674 0.34052 0.55901 0.0
C1067 C 0.59776 0.33142 0.55158 0.0
C1068 C 0.58753 0.33994 0.53363 0.0
C1069 C 0.6125 0.43431 0.45017 0.0
C1070 C 0.62339 0.42789 0.43164 0.0
C1071 C 0.6009 0.4196 0.46207 0.0
C1072 C 0.6 0.3981 0.45582 0.0
C1073 C 0.61109 0.39135 0.43756 0.0
C1074 C 0.62261 0.40625 0.42538 0.0
C1075 C 0.58691 0.38344 0.46882 0.0
C1076 C 0.59685 0.37295 0.48593 0.0
C1077 C 0.56443 0.38523 0.46833 0.0
C1078 C 0.55338 0.39613 0.45037 0.0
C1079 C 0.5568 0.38939 0.42921 0.0
C1080 C 0.54678 0.39996 0.41226 0.0
C1081 C 0.53325 0.41729 0.41628 0.0
C1082 C 0.5297 0.42406 0.43726 0.0
C1083 C 0.53969 0.41355 0.45426 0.0
H1084 H 0.52553 0.42546 0.40313 0.0
H1085 H 0.62463 0.33391 0.57291 0.0
H1086 H 0.46705 0.13715 0.57034 0.0
H1087 H 0.45418 0.15183 0.53646 0.0
H1088 H 0.39179 0.12522 0.5487 0.0
H1089 H 0.40456 0.11036 0.58232 0.0
H1090 H 0.44251 0.122 0.50741 0.0
H1091 H 0.35418 0.14934 0.5214 0.0
H1092 H 0.33469 0.17298 0.54617 0.0
H1093 H 0.39211 0.20858 0.55821 0.0
H1094 H 0.41186 0.18539 0.53316 0.0
H1095 H 0.34877 0.08065 0.46194 0.0
H1096 H 0.36043 0.11156 0.48231 0.0
H1097 H 0.40787 0.12546 0.43425 0.0
H1098 H 0.39637 0.09389 0.41396 0.0
H1099 H 0.37244 0.15229 0.4861 0.0
H1100 H 0.45429 0.12773 0.45823 0.0
H1101 H 0.47229 0.09942 0.43729 0.0
H1102 H 0.42609 0.05345 0.45891 0.0
H1103 H 0.40804 0.08145 0.48012 0.0
C1104 C 0.45038 0.13509 0.56617 0.0
C1105 C 0.4369 0.1222 0.57874 0.0
C1106 C 0.44305 0.14355 0.54681 0.0
C1107 C 0.42205 0.1396 0.53999 0.0
C1108 C 0.40798 0.12874 0.5537 0.0
C1109 C 0.41536 0.12005 0.57287 0.0
C1110 C 0.41612 0.14187 0.51714 0.0
C1111 C 0.42766 0.12948 0.50245 0.0
C1112 C 0.39659 0.15129 0.51076 0.0
C1113 C 0.38455 0.16559 0.52541 0.0
C1114 C 0.36262 0.16234 0.52914 0.0
C1115 C 0.35153 0.17563 0.54328 0.0
C1116 C 0.36215 0.19226 0.55378 0.0
C1117 C 0.3839 0.19567 0.55011 0.0
C1118 C 0.39506 0.18244 0.53597 0.0
C1119 C 0.36088 0.091 0.45512 0.0
C1120 C 0.37201 0.08474 0.43671 0.0
C1121 C 0.36754 0.10877 0.46677 0.0
C1122 C 0.38558 0.12038 0.46022 0.0
C1123 C 0.39419 0.11643 0.43981 0.0
C1124 C 0.38752 0.09847 0.42812 0.0
C1125 C 0.39823 0.13137 0.47708 0.0
C1126 C 0.38797 0.14608 0.49064 0.0
C1127 C 0.41874 0.12362 0.48282 0.0
C1128 C 0.42974 0.10667 0.47048 0.0
C1129 C 0.44806 0.11156 0.45852 0.0
C1130 C 0.45825 0.09558 0.44663 0.0
C1131 C 0.4503 0.07467 0.44672 0.0
C1132 C 0.43222 0.06965 0.45882 0.0
C1133 C 0.42204 0.08554 0.4708 0.0
H1134 H 0.45816 0.06235 0.43744 0.0
H1135 H 0.35354 0.20251 0.56474 0.0
H1136 H 0.09524 0.60005 0.57369 0.0
H1137 H 0.07266 0.58218 0.60041 0.0
H1138 H 0.01729 0.61444 0.57483 0.0
H1139 H 0.03963 0.63247 0.54876 0.0
H1140 H 0.01209 0.60808 0.61653 0.0
H1141 H 0.03485 0.56579 0.55397 0.0
H1142 H 0.0623 0.54866 0.53141 0.0
H1143 H 0.0852 0.51327 0.58562 0.0
H1144 H 0.05796 0.53041 0.60851 0.0
H1145 H 0.93041 0.54703 0.57535 0.0
H1146 H 0.96096 0.56866 0.58639 0.0
H1147 H 0.97921 0.52005 0.63179 0.0
H1148 H 0.94786 0.49857 0.62124 0.0
H1149 H 0.00994 0.53088 0.59817 0.0
H1150 H 0.97186 0.56484 0.65355 0.0
H1151 H 0.94106 0.58206 0.67106 0.0
H1152 H 0.94361 0.63366 0.62587 0.0
H1153 H 0.9742 0.61662 0.60786 0.0
C1154 C 0.07835 0.60377 0.57429 0.0
C1155 C 0.06904 0.6172 0.55888 0.0
C1156 C 0.06548 0.59355 0.58951 0.0
C1157 C 0.04322 0.59668 0.58938 0.0
C1158 C 0.03438 0.61171 0.57527 0.0
C1159 C 0.04715 0.62183 0.56017 0.0
C1160 C 0.02847 0.58213 0.6009 0.0
C1161 C 0.01174 0.59111 0.61289 0.0
C1162 C 0.02833 0.55987 0.59666 0.0
C1163 C 0.04463 0.54955 0.58296 0.0
C1164 C 0.04583 0.55444 0.56107 0.0
C1165 C 0.06133 0.54473 0.54823 0.0
C1166 C 0.07554 0.52994 0.5571 0.0
C1167 C 0.07423 0.52478 0.5788 0.0
C1168 C 0.05878 0.53449 0.59171 0.0
C1169 C 0.94057 0.54129 0.58816 0.0
C1170 C 0.93694 0.52124 0.59748 0.0
C1171 C 0.95791 0.55368 0.59455 0.0
C1172 C 0.97222 0.54601 0.61002 0.0
C1173 C 0.96816 0.52631 0.62003 0.0
C1174 C 0.95034 0.51411 0.61402 0.0
C1175 C 0.9929 0.55713 0.61252 0.0
C1176 C 0.01079 0.54754 0.60305 0.0
C1177 C 0.99376 0.57891 0.61854 0.0
C1178 C 0.97541 0.58942 0.62936 0.0
C1179 C 0.9658 0.57981 0.64727 0.0
C1180 C 0.94837 0.58955 0.65729 0.0
C1181 C 0.9404 0.60895 0.64959 0.0
C1182 C 0.94985 0.61865 0.63185 0.0
C1183 C 0.96728 0.60898 0.62176 0.0
H1184 H 0.9269 0.61645 0.65737 0.0
H1185 H 0.08752 0.52243 0.54714 0.0
H1186 H 0.96147 0.8717 0.58814 0.0
H1187 H 0.98151 0.88046 0.62012 0.0
H1188 H 0.95524 0.94441 0.61922 0.0
H1189 H 0.93622 0.93577 0.58607 0.0
H1190 H 0.99393 0.94813 0.6162 0.0
H1191 H 0.95539 0.91017 0.6671 0.0
H1192 H 0.93378 0.88157 0.68342 0.0
H1193 H 0.98635 0.83784 0.6777 0.0
H1194 H 0.00821 0.866 0.66102 0.0
H1195 H 0.09401 0.96181 0.65376 0.0
H1196 H 0.05832 0.95536 0.66798 0.0
H1197 H 0.05542 0.8955 0.63386 0.0
H1198 H 0.091 0.90177 0.61956 0.0
H1199 H 0.02499 0.8998 0.67085 0.0
H1200 H 0.0467 0.93615 0.60076 0.0
H1201 H 0.06948 0.96357 0.58376 0.0
H1202 H 0.0473 0.01045 0.62881 0.0
H1203 H 0.02446 0.9832 0.64607 0.0
C1204 C 0.95913 0.88726 0.59543 0.0
C1205 C 0.94737 0.90306 0.58482 0.0
C1206 C 0.97052 0.8923 0.61392 0.0
C1207 C 0.97007 0.91321 0.62229 0.0
C1208 C 0.956 0.92821 0.6131 0.0
C1209 C 0.945 0.92327 0.59425 0.0
C1210 C 0.98807 0.92047 0.63614 0.0
C1211 C 5e-05 0.93806 0.62893 0.0
C1212 C 0.99649 0.9075 0.65275 0.0
C1213 C 0.9835 0.89032 0.66282 0.0
C1214 C 0.96235 0.89443 0.66922 0.0
C1215 C 0.95004 0.87828 0.67854 0.0
C1216 C 0.95869 0.85791 0.68161 0.0
C1217 C 0.97969 0.85365 0.67537 0.0
C1218 C 0.99208 0.86974 0.66603 0.0
C1219 C 0.08628 0.94672 0.65017 0.0
C1220 C 0.0949 0.93268 0.63481 0.0
C1221 C 0.06588 0.94301 0.65847 0.0
C1222 C 0.05404 0.92526 0.65148 0.0
C1223 C 0.06424 0.90939 0.63933 0.0
C1224 C 0.08455 0.91311 0.63096 0.0
C1225 C 0.03049 0.92655 0.65003 0.0
C1226 C 0.01783 0.91053 0.65927 0.0
C1227 C 0.02111 0.94113 0.63554 0.0
C1228 C 0.03394 0.95775 0.62463 0.0
C1229 C 0.04662 0.95236 0.60691 0.0
C1230 C 0.05957 0.96783 0.59729 0.0
C1231 C 0.05984 0.98875 0.6052 0.0
C1232 C 0.04706 0.99425 0.62269 0.0
C1233 C 0.03409 0.97882 0.63238 0.0
H1234 H 0.06993 0.00069 0.59779 0.0
H1235 H 0.94913 0.84543 0.68883 0.0
H1236 H 0.08491 0.38149 0.92609 0.0
H1237 H 0.06372 0.41103 0.91106 0.0
H1238 H 0.00651 0.38338 0.93782 0.0
H1239 H 0.02748 0.35414 0.95275 0.0
H1240 H 0.99806 0.4028 0.89995 0.0
H1241 H 0.0356 0.41739 0.96639 0.0
H1242 H 0.06781 0.42095 0.98876 0.0
H1243 H 0.09192 0.46974 0.94694 0.0
H1244 H 0.05998 0.46613 0.92402 0.0
H1245 H 0.95172 0.498 0.96058 0.0
H1246 H 0.97963 0.47177 0.95467 0.0
H1247 H 0.96973 0.47602 0.88655 0.0
H1248 H 0.941 0.50205 0.89239 0.0
H1249 H 0.01631 0.47103 0.93621 0.0
H1250 H 0.98055 0.42648 0.86471 0.0
H1251 H 0.94577 0.42049 0.84705 0.0
H1252 H 0.91354 0.42911 0.90702 0.0
H1253 H 0.94814 0.43492 0.92503 0.0
C1254 C 0.06772 0.38139 0.92806 0.0
C1255 C 0.05779 0.36572 0.94071 0.0
C1256 C 0.05566 0.39828 0.91958 0.0
C1257 C 0.03358 0.39951 0.92355 0.0
C1258 C 0.0235 0.38276 0.93452 0.0
C1259 C 0.03551 0.36611 0.94314 0.0
C1260 C 0.02126 0.41933 0.91929 0.0
C1261 C 0.00224 0.41788 0.90747 0.0
C1262 C 0.02654 0.43889 0.92942 0.0
C1263 C 0.04564 0.44118 0.94326 0.0
C1264 C 0.04788 0.42871 0.96183 0.0
C1265 C 0.06608 0.43074 0.97462 0.0
C1266 C 0.082 0.44543 0.96917 0.0
C1267 C 0.07965 0.45826 0.95104 0.0
C1268 C 0.06152 0.4562 0.93812 0.0
C1269 C 0.95546 0.49354 0.94427 0.0
C1270 C 0.94391 0.50205 0.92697 0.0
C1271 C 0.97159 0.47856 0.94092 0.0
C1272 C 0.97673 0.47175 0.92018 0.0
C1273 C 0.96585 0.48079 0.90273 0.0
C1274 C 0.94946 0.49571 0.90609 0.0
C1275 C 0.9927 0.45435 0.91742 0.0
C1276 C 0.01245 0.45626 0.92792 0.0
C1277 C 0.98774 0.435 0.9067 0.0
C1278 C 0.96687 0.43143 0.89611 0.0
C1279 C 0.96602 0.42708 0.8741 0.0
C1280 C 0.94635 0.42371 0.86404 0.0
C1281 C 0.92745 0.42451 0.87589 0.0
C1282 C 0.92818 0.42859 0.89784 0.0
C1283 C 0.94781 0.43194 0.90798 0.0
H1284 H 0.91224 0.42191 0.86807 0.0
H1285 H 0.09611 0.44694 0.97906 0.0
H1286 H 0.08143 0.12968 0.93431 0.0
H1287 H 0.04463 0.14158 0.93365 0.0
H1288 H 0.03139 0.09846 0.88139 0.0
H1289 H 0.0683 0.0857 0.88266 0.0
H1290 H 0.01037 0.15482 0.91483 0.0
H1291 H 0.98991 0.06928 0.89401 0.0
H1292 H 0.0071 0.03392 0.88964 0.0
H1293 H 0.05309 0.05004 0.938 0.0
H1294 H 0.03604 0.08536 0.94274 0.0
H1295 H 0.9135 0.14393 0.97661 0.0
H1296 H 0.93526 0.14143 0.94396 0.0
H1297 H 0.9808 0.10204 0.97765 0.0
H1298 H 0.95933 0.10421 0.00975 0.0
H1299 H 0.97579 0.08755 0.93871 0.0
H1300 H 0.9853 0.15697 0.97336 0.0
H1301 H 0.97368 0.19267 0.98536 0.0
H1302 H 0.95756 0.20963 0.92091 0.0
H1303 H 0.96845 0.17371 0.90856 0.0
C1304 C 0.07096 0.12335 0.92204 0.0
C1305 C 0.07746 0.10609 0.9092 0.0
C1306 C 0.04983 0.13029 0.92157 0.0
C1307 C 0.03496 0.12019 0.90813 0.0
C1308 C 0.04246 0.10599 0.89237 0.0
C1309 C 0.06365 0.09879 0.89302 0.0
C1310 C 0.01214 0.1204 0.9147 0.0
C1311 C 0.00242 0.1401 0.91947 0.0
C1312 C 0.00181 0.10123 0.92104 0.0
C1313 C 0.01188 0.07995 0.91851 0.0
C1314 C 0.00366 0.0652 0.9037 0.0
C1315 C 0.01338 0.0452 0.90117 0.0
C1316 C 0.03122 0.03977 0.91349 0.0
C1317 C 0.03931 0.05427 0.92845 0.0
C1318 C 0.02962 0.07426 0.93108 0.0
C1319 C 0.92795 0.13441 0.97685 0.0
C1320 C 0.93482 0.12447 0.99583 0.0
C1321 C 0.94039 0.13307 0.95823 0.0
C1322 C 0.95974 0.12168 0.95839 0.0
C1323 C 0.96592 0.11088 0.97705 0.0
C1324 C 0.95367 0.11229 0.99552 0.0
C1325 C 0.97484 0.12197 0.94009 0.0
C1326 C 0.98294 0.10229 0.93296 0.0
C1327 C 0.98425 0.14117 0.9326 0.0
C1328 C 0.97724 0.16252 0.94011 0.0
C1329 C 0.97896 0.16819 0.96179 0.0
C1330 C 0.97256 0.18848 0.96866 0.0
C1331 C 0.96485 0.20341 0.95395 0.0
C1332 C 0.96345 0.19803 0.93231 0.0
C1333 C 0.96964 0.17767 0.92538 0.0
H1334 H 0.96006 0.21916 0.95931 0.0
H1335 H 0.03875 0.0243 0.91147 0.0
H1336 H 0.4973 0.01438 0.60929 0.0
H1337 H 0.51836 0.98666 0.59178 0.0
H1338 H 0.54755 0.03449 0.55142 0.0
H1339 H 0.52736 0.06251 0.57007 0.0
H1340 H 0.51558 0.9735 0.5548 0.0
H1341 H 0.59422 0.01677 0.53032 0.0
H1342 H 0.6187 0.04424 0.54456 0.0
H1343 H 0.59802 0.03013 0.60843 0.0
H1344 H 0.57362 0.0024 0.59461 0.0
H1345 H 0.56115 0.91496 0.47223 0.0
H1346 H 0.54811 0.94475 0.49392 0.0
H1347 H 0.59895 0.93395 0.53934 0.0
H1348 H 0.61246 0.90451 0.51705 0.0
H1349 H 0.59249 0.97493 0.53591 0.0
H1350 H 0.54783 0.91478 0.54783 0.0
H1351 H 0.52417 0.88434 0.53953 0.0
H1352 H 0.47889 0.92706 0.51063 0.0
H1353 H 0.50247 0.95773 0.51839 0.0
C1354 C 0.50847 0.01898 0.59689 0.0
C1355 C 0.51068 0.04049 0.59089 0.0
C1356 C 0.52048 0.00314 0.58685 0.0
C1357 C 0.53458 0.00837 0.5702 0.0
C1358 C 0.53712 0.03001 0.56447 0.0
C1359 C 0.5255 0.046 0.575 0.0
C1360 C 0.54514 0.99096 0.5579 0.0
C1361 C 0.53243 0.97386 0.55078 0.0
C1362 C 0.56721 0.99109 0.55291 0.0
C1363 C 0.58193 0.00766 0.56139 0.0
C1364 C 0.59495 0.01948 0.54741 0.0
C1365 C 0.6088 0.03511 0.55541 0.0
C1366 C 0.60986 0.03898 0.57738 0.0
C1367 C 0.59712 0.02718 0.59141 0.0
C1368 C 0.58325 0.01153 0.5835 0.0
C1369 C 0.56947 0.91898 0.48688 0.0
C1370 C 0.58744 0.90727 0.49332 0.0
C1371 C 0.56207 0.93599 0.49923 0.0
C1372 C 0.57221 0.94123 0.51856 0.0
C1373 C 0.59079 0.9301 0.52455 0.0
C1374 C 0.59845 0.91329 0.51191 0.0
C1375 C 0.56282 0.95773 0.5328 0.0
C1376 C 0.57568 0.97464 0.54011 0.0
C1377 C 0.54102 0.95703 0.53879 0.0
C1378 C 0.52701 0.93855 0.53358 0.0
C1379 C 0.53293 0.91767 0.53952 0.0
C1380 C 0.5195 0.90038 0.53496 0.0
C1381 C 0.5 0.90379 0.52465 0.0
C1382 C 0.49395 0.92447 0.51872 0.0
C1383 C 0.50736 0.94181 0.52316 0.0
H1384 H 0.48959 0.89039 0.52121 0.0
H1385 H 0.62059 0.05109 0.58354 0.0
H1386 H 0.59546 0.0919 0.01719 0.0
H1387 H 0.6018 0.05933 0.99639 0.0
H1388 H 0.54078 0.06746 0.96525 0.0
H1389 H 0.53407 0.09953 0.9865 0.0
H1390 H 0.54484 0.0282 0.97908 0.0
H1391 H 0.59104 0.07886 0.9414 0.0
H1392 H 0.62109 0.10439 0.94011 0.0
H1393 H 0.66429 0.05497 0.96019 0.0
H1394 H 0.63443 0.02924 0.962 0.0
H1395 H 0.55066 0.98434 0.87646 0.0
H1396 H 0.57009 0.00919 0.89938 0.0
H1397 H 0.57604 0.96015 0.94745 0.0
H1398 H 0.55681 0.93504 0.92428 0.0
H1399 H 0.60587 0.01561 0.92998 0.0
H1400 H 0.54741 0.97902 0.98694 0.0
H1401 H 0.51644 0.95447 0.98708 0.0
H1402 H 0.49654 0.97873 0.92604 0.0
H1403 H 0.52725 0.00353 0.9257 0.0
C1404 C 0.58352 0.08684 0.00571 0.0
C1405 C 0.56419 0.09815 0.00351 0.0
C1406 C 0.58719 0.06825 0.99383 0.0
C1407 C 0.57179 0.06097 0.97924 0.0
C1408 C 0.55282 0.0727 0.97655 0.0
C1409 C 0.54901 0.09105 0.98862 0.0
C1410 C 0.57469 0.04072 0.96724 0.0
C1411 C 0.55837 0.02541 0.96859 0.0
C1412 C 0.59248 0.03683 0.95376 0.0
C1413 C 0.61047 0.05218 0.95203 0.0
C1414 C 0.60693 0.07347 0.94564 0.0
C1415 C 0.62393 0.08798 0.94484 0.0
C1416 C 0.64457 0.08132 0.95015 0.0
C1417 C 0.64828 0.06012 0.95616 0.0
C1418 C 0.63133 0.04557 0.95707 0.0
C1419 C 0.55725 0.97851 0.89138 0.0
C1420 C 0.55207 0.95797 0.89882 0.0
C1421 C 0.56847 0.99269 0.90443 0.0
C1422 C 0.57416 0.9866 0.92523 0.0
C1423 C 0.57178 0.9651 0.93141 0.0
C1424 C 0.56078 0.95077 0.91818 0.0
C1425 C 0.5758 0.00359 0.9416 0.0
C1426 C 0.5928 0.01823 0.94105 0.0
C1427 C 0.55856 0.00714 0.95577 0.0
C1428 C 0.53965 0.99291 0.95623 0.0
C1429 C 0.53634 0.97914 0.97363 0.0
C1430 C 0.51887 0.96519 0.97372 0.0
C1431 C 0.50458 0.96499 0.95654 0.0
C1432 C 0.50764 0.97886 0.9393 0.0
C1433 C 0.52506 0.99286 0.93916 0.0
H1434 H 0.49111 0.95412 0.9566 0.0
H1435 H 0.6577 0.09257 0.94954 0.0
H1436 H 0.4246 0.58916 0.89115 0.0
H1437 H 0.39306 0.57167 0.90693 0.0
H1438 H 0.40579 0.5152 0.86923 0.0
H1439 H 0.43677 0.53243 0.85364 0.0
H1440 H 0.36302 0.51971 0.87592 0.0
H1441 H 0.43118 0.52322 0.91988 0.0
H1442 H 0.4576 0.54481 0.93979 0.0
H1443 H 0.40699 0.57461 0.97534 0.0
H1444 H 0.38031 0.55325 0.95548 0.0
H1445 H 0.40255 0.42656 0.90971 0.0
H1446 H 0.38756 0.46028 0.8974 0.0
H1447 H 0.35768 0.46976 0.95884 0.0
H1448 H 0.37242 0.43542 0.97109 0.0
H1449 H 0.38646 0.50074 0.94918 0.0
H1450 H 0.32544 0.47504 0.91571 0.0
H1451 H 0.30228 0.45044 0.89541 0.0
H1452 H 0.34026 0.46038 0.83918 0.0
H1453 H 0.36387 0.48475 0.85915 0.0
C1454 C 0.42014 0.57328 0.88581 0.0
C1455 C 0.43328 0.56192 0.87155 0.0
C1456 C 0.40216 0.56333 0.8948 0.0
C1457 C 0.39717 0.54203 0.88944 0.0
C1458 C 0.40918 0.53164 0.8736 0.0
C1459 C 0.42709 0.54142 0.86486 0.0
C1460 C 0.38274 0.52865 0.90264 0.0
C1461 C 0.36764 0.51574 0.89215 0.0
C1462 C 0.38791 0.52415 0.92419 0.0
C1463 C 0.40384 0.53686 0.93614 0.0
C1464 C 0.42575 0.53442 0.93193 0.0
C1465 C 0.44074 0.54661 0.94317 0.0
C1466 C 0.43397 0.56111 0.95879 0.0
C1467 C 0.4122 0.56341 0.96321 0.0
C1468 C 0.39715 0.55129 0.95197 0.0
C1469 C 0.39207 0.43541 0.92029 0.0
C1470 C 0.38874 0.42857 0.94134 0.0
C1471 C 0.38331 0.45462 0.91321 0.0
C1472 C 0.37136 0.46755 0.92716 0.0
C1473 C 0.36664 0.45993 0.94775 0.0
C1474 C 0.37507 0.44036 0.95472 0.0
C1475 C 0.36862 0.49042 0.92156 0.0
C1476 C 0.38042 0.50526 0.93356 0.0
C1477 C 0.36057 0.49647 0.90133 0.0
C1478 C 0.34638 0.48191 0.88897 0.0
C1479 C 0.32891 0.47196 0.89903 0.0
C1480 C 0.3157 0.45802 0.88757 0.0
C1481 C 0.31977 0.45389 0.86601 0.0
C1482 C 0.33707 0.46367 0.85587 0.0
C1483 C 0.35034 0.47762 0.86724 0.0
H1484 H 0.30953 0.44308 0.85718 0.0
H1485 H 0.4456 0.57053 0.96748 0.0
H1486 H 0.91747 0.09738 0.08072 0.0
H1487 H 0.92726 0.05966 0.08286 0.0
H1488 H 0.86539 0.04178 0.05848 0.0
H1489 H 0.85563 0.07969 0.05544 0.0
H1490 H 0.88928 0.01869 0.10046 0.0
H1491 H 0.8907 0.03396 0.024 0.0
H1492 H 0.89962 0.0572 0.99344 0.0
H1493 H 0.96591 0.05536 0.01096 0.0
H1494 H 0.95732 0.03236 0.04187 0.0
H1495 H 0.9365 0.91515 0.09623 0.0
H1496 H 0.91269 0.94419 0.08471 0.0
H1497 H 0.96752 0.98432 0.07275 0.0
H1498 H 0.99106 0.95542 0.08322 0.0
H1499 H 0.93897 0.9927 0.04436 0.0
H1500 H 0.9397 0.98287 0.12091 0.0
H1501 H 0.93387 0.96348 0.15475 0.0
H1502 H 0.86698 0.9581 0.14042 0.0
H1503 H 0.87252 0.97728 0.10638 0.0
C1504 C 0.90591 0.08553 0.07576 0.0
C1505 C 0.88597 0.09158 0.06743 0.0
C1506 C 0.9115 0.06397 0.07713 0.0
C1507 C 0.89709 0.0481 0.07062 0.0
C1508 C 0.8767 0.05391 0.06347 0.0
C1509 C 0.87121 0.07554 0.06174 0.0
C1510 C 0.90413 0.0256 0.07028 0.0
C1511 C 0.89964 0.01263 0.08794 0.0
C1512 C 0.91803 0.01816 0.05415 0.0
C1513 C 0.92334 0.03156 0.03532 0.0
C1514 C 0.90715 0.03864 0.02143 0.0
C1515 C 0.91215 0.05174 0.00403 0.0
C1516 C 0.93331 0.05775 0.00027 0.0
C1517 C 0.94953 0.05066 0.01389 0.0
C1518 C 0.9446 0.03757 0.03134 0.0
C1519 C 0.94341 0.93004 0.09073 0.0
C1520 C 0.96565 0.93317 0.09109 0.0
C1521 C 0.92981 0.94664 0.08422 0.0
C1522 C 0.9383 0.9666 0.07826 0.0
C1523 C 0.96053 0.96914 0.07734 0.0
C1524 C 0.97403 0.95261 0.0836 0.0
C1525 C 0.9245 0.98563 0.07485 0.0
C1526 C 0.92791 0.99819 0.05653 0.0
C1527 C 0.90992 0.99285 0.09063 0.0
C1528 C 0.90658 0.98125 0.11102 0.0
C1529 C 0.92378 0.97743 0.12495 0.0
C1530 C 0.92053 0.9665 0.14415 0.0
C1531 C 0.90007 0.9595 0.1497 0.0
C1532 C 0.88282 0.96348 0.13607 0.0
C1533 C 0.88602 0.97437 0.11682 0.0
H1534 H 0.89757 0.95105 0.16458 0.0
H1535 H 0.93715 0.06785 0.98676 0.0
H1536 H 0.00345 0.15645 0.40246 0.0
H1537 H 0.00196 0.19531 0.40572 0.0
H1538 H 0.00426 0.20132 0.33708 0.0
H1539 H 0.00623 0.16234 0.33367 0.0
H1540 H 0.03078 0.22925 0.35554 0.0
H1541 H 0.95758 0.20859 0.36512 0.0
H1542 H 0.92741 0.18888 0.38104 0.0
H1543 H 0.94177 0.21594 0.44249 0.0
H1544 H 0.97224 0.23556 0.427 0.0
H1545 H 0.99258 0.33699 0.34846 0.0
H1546 H 0.00029 0.29875 0.34586 0.0
H1547 H 0.00029 0.29397 0.41463 0.0
H1548 H 0.99244 0.33214 0.41739 0.0
H1549 H 0.97346 0.2655 0.39657 0.0
H1550 H 0.04605 0.28709 0.3867 0.0
H1551 H 0.07584 0.30719 0.37057 0.0
H1552 H 0.0622 0.27897 0.30948 0.0
H1553 H 0.03212 0.25891 0.32519 0.0
C1554 C 0.0035 0.16599 0.38802 0.0
C1555 C 0.00488 0.15627 0.36779 0.0
C1556 C 0.0026 0.18824 0.38992 0.0
C1557 C 0.00278 0.20124 0.37164 0.0
C1558 C 0.0041 0.1916 0.3514 0.0
C1559 C 0.00512 0.16932 0.34948 0.0
C1560 C 0.00186 0.22489 0.37369 0.0
C1561 C 0.01809 0.23721 0.36427 0.0
C1562 C 0.98561 0.23524 0.38555 0.0
C1563 C 0.96734 0.22337 0.39493 0.0
C1564 C 0.95443 0.21019 0.38206 0.0
C1565 C 0.93725 0.19906 0.39101 0.0
C1566 C 0.93272 0.20111 0.41278 0.0
C1567 C 0.94533 0.21433 0.42564 0.0
C1568 C 0.96255 0.22547 0.41678 0.0
C1569 C 0.99467 0.32792 0.36305 0.0
C1570 C 0.9917 0.3376 0.38313 0.0
C1571 C -0.00086 0.30605 0.36153 0.0
C1572 C 0.00081 0.2935 0.38006 0.0
C1573 C -0.00102 0.30335 0.40013 0.0
C1574 C 0.99458 0.32521 0.40167 0.0
C1575 C 0.00239 0.26987 0.37847 0.0
C1576 C 0.98621 0.25755 0.38793 0.0
C1577 C 0.01864 0.25957 0.36661 0.0
C1578 C 0.03669 0.27165 0.35709 0.0
C1579 C 0.04928 0.28531 0.36979 0.0
C1580 C 0.06624 0.29667 0.36073 0.0
C1581 C 0.07088 0.2944 0.339 0.0
C1582 C 0.05858 0.28073 0.3263 0.0
C1583 C 0.04158 0.26934 0.33528 0.0
H1584 H 0.08402 0.3032 0.33202 0.0
H1585 H 0.9194 0.19249 0.41967 0.0
H1586 H 0.025 0.64433 0.09175 0.0
H1587 H 0.02059 0.68292 0.09516 0.0
H1588 H 0.00457 0.6756 0.16174 0.0
H1589 H 0.00864 0.6367 0.15847 0.0
H1590 H 0.97936 0.69934 0.10813 0.0
H1591 H 0.02177 0.72646 0.18454 0.0
H1592 H 0.05275 0.71663 0.20688 0.0
H1593 H 0.08468 0.69088 0.15185 0.0
H1594 H 0.05403 0.70083 0.12915 0.0
H1595 H 0.98574 0.81798 0.15312 0.0
H1596 H 0.98838 0.77924 0.15854 0.0
H1597 H 0.99131 0.76991 0.09025 0.0
H1598 H 0.98802 0.80826 0.08475 0.0
H1599 H 0.01968 0.7535 0.14976 0.0
H1600 H 0.97251 0.7222 0.07499 0.0
H1601 H 0.93989 0.73096 0.05471 0.0
H1602 H 0.91456 0.76424 0.10913 0.0
H1603 H 0.94683 0.75536 0.12989 0.0
C1604 C 0.02105 0.65087 0.10729 0.0
C1605 C 0.0169 0.63737 0.12478 0.0
C1606 C 0.01845 0.67295 0.10916 0.0
C1607 C 0.01204 0.68202 0.12861 0.0
C1608 C 0.00952 0.66885 0.14658 0.0
C1609 C 0.01191 0.64664 0.14468 0.0
C1610 C 0.00588 0.70486 0.1293 0.0
C1611 C 0.98826 0.71129 0.11704 0.0
C1612 C 0.01688 0.72009 0.14182 0.0
C1613 C 0.03548 0.71413 0.15523 0.0
C1614 C 0.03542 0.71873 0.17722 0.0
C1615 C 0.05292 0.71314 0.18994 0.0
C1616 C 0.07063 0.70305 0.18081 0.0
C1617 C 0.0709 0.69859 0.15892 0.0
C1618 C 0.05345 0.70416 0.14613 0.0
C1619 C 0.98654 0.80761 0.13927 0.0
C1620 C 0.98666 0.81622 0.1185 0.0
C1621 C 0.98814 0.78548 0.14239 0.0
C1622 C 0.98987 0.77158 0.12482 0.0
C1623 C 0.98953 0.78018 0.10409 0.0
C1624 C 0.98775 0.8022 0.10096 0.0
C1625 C 0.99349 0.74828 0.12791 0.0
C1626 C 0.01054 0.74164 0.14098 0.0
C1627 C 0.98171 0.73273 0.11638 0.0
C1628 C 0.96224 0.73828 0.10395 0.0
C1629 C 0.95997 0.73133 0.08267 0.0
C1630 C 0.94153 0.73633 0.07107 0.0
C1631 C 0.92521 0.74823 0.08059 0.0
C1632 C 0.92726 0.75511 0.10174 0.0
C1633 C 0.94564 0.75013 0.11342 0.0
H1634 H 0.91094 0.75205 0.07159 0.0
H1635 H 0.08416 0.69874 0.19068 0.0
H1636 H 0.33911 0.96537 0.1638 0.0
H1637 H 0.33622 0.97551 0.20153 0.0
H1638 H 0.40439 0.98574 0.20401 0.0
H1639 H 0.40744 0.97466 0.16685 0.0
H1640 H 0.3937 0.96869 0.23883 0.0
H1641 H 0.36619 0.02773 0.19879 0.0
H1642 H 0.34307 0.0462 0.17275 0.0
H1643 H 0.28754 0.02816 0.20876 0.0
H1644 H 0.31034 0.00934 0.23489 0.0
H1645 H 0.4011 0.03795 0.32728 0.0
H1646 H 0.39901 0.02656 0.29003 0.0
H1647 H 0.33568 0.00171 0.30082 0.0
H1648 H 0.33763 0.01297 0.33833 0.0
H1649 H 0.34193 0.02479 0.26052 0.0
H1650 H 0.37408 0.96795 0.30269 0.0
H1651 H 0.4005 0.95445 0.32867 0.0
H1652 H 0.45161 0.97388 0.28726 0.0
H1653 H 0.42551 0.98782 0.26122 0.0
C1654 C 0.35347 0.96958 0.1725 0.0
C1655 C 0.37349 0.96923 0.16234 0.0
C1656 C 0.35181 0.97554 0.19403 0.0
C1657 C 0.37005 0.9818 0.20561 0.0
C1658 C 0.39007 0.98097 0.19553 0.0
C1659 C 0.39179 0.97463 0.17421 0.0
C1660 C 0.36845 0.98958 0.22807 0.0
C1661 C 0.38245 0.98106 0.24344 0.0
C1662 C 0.3537 0.00565 0.23432 0.0
C1663 C 0.33994 0.01691 0.21864 0.0
C1664 C 0.34903 0.02756 0.20106 0.0
C1665 C 0.33599 0.03811 0.1863 0.0
C1666 C 0.31385 0.03829 0.18906 0.0
C1667 C 0.3047 0.02796 0.20662 0.0
C1668 C 0.31767 0.01736 0.22141 0.0
C1669 C 0.38657 0.03035 0.32173 0.0
C1670 C 0.36959 0.0262 0.33585 0.0
C1671 C 0.38544 0.02381 0.30043 0.0
C1672 C 0.36731 0.01306 0.2928 0.0
C1673 C 0.34984 0.00992 0.30647 0.0
C1674 C 0.351 0.01634 0.32789 0.0
C1675 C 0.36725 0.00399 0.27093 0.0
C1676 C 0.35297 0.01226 0.25578 0.0
C1677 C 0.38216 0.98817 0.26471 0.0
C1678 C 0.39783 0.97906 0.28006 0.0
C1679 C 0.39096 0.96943 0.29917 0.0
C1680 C 0.40588 0.9617 0.31391 0.0
C1681 C 0.42773 0.96334 0.30965 0.0
C1682 C 0.43469 0.97262 0.29057 0.0
C1683 C 0.41984 0.98042 0.2758 0.0
H1684 H 0.43926 0.95741 0.32111 0.0
H1685 H 0.30377 0.04647 0.17762 0.0
H1686 H 0.67132 0.51499 0.14509 0.0
H1687 H 0.67468 0.50981 0.18364 0.0
H1688 H 0.60603 0.50906 0.18962 0.0
H1689 H 0.6025 0.51471 0.1512 0.0
H1690 H 0.62405 0.52751 0.22391 0.0
H1691 H 0.63353 0.46279 0.18324 0.0
H1692 H 0.64993 0.44012 0.15545 0.0
H1693 H 0.71105 0.4464 0.186 0.0
H1694 H 0.69506 0.46939 0.21382 0.0
H1695 H 0.60815 0.46323 0.31448 0.0
H1696 H 0.60941 0.47424 0.2771 0.0
H1697 H 0.67798 0.47972 0.28079 0.0
H1698 H 0.67692 0.46875 0.31835 0.0
H1699 H 0.66262 0.46058 0.24243 0.0
H1700 H 0.65087 0.52335 0.28534 0.0
H1701 H 0.63269 0.54457 0.31314 0.0
H1702 H 0.57375 0.54032 0.27827 0.0
H1703 H 0.59151 0.51877 0.25041 0.0
C1704 C 0.65693 0.51424 0.15467 0.0
C1705 C 0.63664 0.51487 0.14505 0.0
C1706 C 0.65889 0.51119 0.17668 0.0
C1707 C 0.6406 0.50848 0.18936 0.0
C1708 C 0.62035 0.51095 0.18008 0.0
C1709 C 0.61837 0.51416 0.15809 0.0
C1710 C 0.64246 0.50105 0.21175 0.0
C1711 C 0.63239 0.51284 0.22795 0.0
C1712 C 0.65354 0.48199 0.21703 0.0
C1713 C 0.66315 0.468 0.20046 0.0
C1714 C 0.6505 0.45946 0.18394 0.0
C1715 C 0.65971 0.44654 0.1682 0.0
C1716 C 0.68153 0.44187 0.16893 0.0
C1717 C 0.69416 0.45006 0.18544 0.0
C1718 C 0.68503 0.46303 0.2012 0.0
C1719 C 0.62355 0.46645 0.30731 0.0
C1720 C 0.64243 0.46533 0.31945 0.0
C1721 C 0.62422 0.47284 0.28598 0.0
C1722 C 0.64375 0.47814 0.27639 0.0
C1723 C 0.66275 0.47582 0.28802 0.0
C1724 C 0.6621 0.46956 0.30945 0.0
C1725 C 0.64412 0.48697 0.2545 0.0
C1726 C 0.65453 0.4754 0.23841 0.0
C1727 C 0.63314 0.50607 0.24929 0.0
C1728 C 0.62249 0.5193 0.26587 0.0
C1729 C 0.634 0.52681 0.28367 0.0
C1730 C 0.62377 0.53892 0.29943 0.0
C1731 C 0.60207 0.54375 0.2975 0.0
C1732 C 0.59056 0.53655 0.27976 0.0
C1733 C 0.6007 0.52441 0.26396 0.0
H1734 H 0.59418 0.55312 0.30973 0.0
H1735 H 0.68864 0.43187 0.15672 0.0
H1736 H 0.33479 0.37462 0.02865 0.0
H1737 H 0.29728 0.36411 0.02549 0.0
H1738 H 0.31271 0.32521 0.9706 0.0
H1739 H 0.35016 0.33492 0.97418 0.0
H1740 H 0.27188 0.37379 0.9954 0.0
H1741 H 0.27679 0.28664 0.96189 0.0
H1742 H 0.2983 0.25404 0.96738 0.0
H1743 H 0.31473 0.27515 0.0306 0.0
H1744 H 0.29308 0.30772 0.02562 0.0
H1745 H 0.17797 0.35476 0.93929 0.0
H1746 H 0.21606 0.3552 0.94788 0.0
H1747 H 0.20555 0.30861 0.99764 0.0
H1748 H 0.16763 0.30749 0.98862 0.0
H1749 H 0.24267 0.30153 0.98034 0.0
H1750 H 0.20718 0.36264 0.00888 0.0
H1751 H 0.18437 0.39481 0.00821 0.0
H1752 H 0.22739 0.42491 0.96406 0.0
H1753 H 0.2503 0.39278 0.96421 0.0
C1754 C 0.33025 0.36344 0.01622 0.0
C1755 C 0.34544 0.35571 0.00161 0.0
C1756 C 0.30879 0.35749 0.01438 0.0
C1757 C 0.30211 0.34382 0.99783 0.0
C1758 C 0.31744 0.33543 0.98376 0.0
C1759 C 0.3389 0.34112 0.98577 0.0
C1760 C 0.279 0.34007 0.99386 0.0
C1761 C 0.26552 0.35795 0.99226 0.0
C1762 C 0.27051 0.31939 0.9901 0.0
C1763 C 0.28343 0.29972 0.99329 0.0
C1764 C 0.2849 0.28428 0.977 0.0
C1765 C 0.29714 0.26581 0.98002 0.0
C1766 C 0.30792 0.26255 -0.0007 0.0
C1767 C 0.30644 0.27773 0.01564 0.0
C1768 C 0.29421 0.29622 0.01271 0.0
C1769 C 0.18385 0.34429 0.95177 0.0
C1770 C 0.16975 0.3313 0.96345 0.0
C1771 C 0.2056 0.34465 0.95676 0.0
C1772 C 0.21356 0.33238 0.97381 0.0
C1773 C 0.19976 0.31833 0.98453 0.0
C1774 C 0.17806 0.31772 0.97934 0.0
C1775 C 0.23585 0.3353 0.98138 0.0
C1776 C 0.24911 0.31731 0.98362 0.0
C1777 C 0.24401 0.35581 0.98647 0.0
C1778 C 0.23035 0.37523 0.98642 0.0
C1779 C 0.2117 0.37607 -0.00108 0.0
C1780 C 0.19876 0.3943 -0.00136 0.0
C1781 C 0.2044 0.41188 0.98606 0.0
C1782 C 0.22303 0.41128 0.97377 0.0
C1783 C 0.236 0.39306 0.97396 0.0
H1784 H 0.19437 0.42598 0.98587 0.0
H1785 H 0.3174 0.24825 0.0016 0.0
H1786 H 0.18113 0.6535 0.50974 0.0
H1787 H 0.21948 0.65595 0.50272 0.0
H1788 H 0.2197 0.59055 0.48056 0.0
H1789 H 0.18154 0.5878 0.488 0.0
H1790 H 0.25257 0.59732 0.50569 0.0
H1791 H 0.22179 0.6336 0.44554 0.0
H1792 H 0.19907 0.66017 0.42732 0.0
H1793 H 0.23409 0.7112 0.4571 0.0
H1794 H 0.25685 0.68492 0.47574 0.0
H1795 H 0.35565 0.59653 0.46528 0.0
H1796 H 0.31678 0.59779 0.46214 0.0
H1797 H 0.31624 0.66028 0.49141 0.0
H1798 H 0.35514 0.65938 0.49424 0.0
H1799 H 0.2836 0.65501 0.46086 0.0
H1800 H 0.31115 0.61867 0.52384 0.0
H1801 H 0.33534 0.59251 0.54076 0.0
H1802 H 0.30672 0.54185 0.50422 0.0
H1803 H 0.28233 0.56776 0.48713 0.0
C1804 C 0.18936 0.63963 0.50341 0.0
C1805 C 0.17828 0.62046 0.4994 0.0
C1806 C 0.21125 0.6411 0.49926 0.0
C1807 C 0.22241 0.62354 0.49078 0.0
C1808 C 0.21142 0.60433 0.48704 0.0
C1809 C 0.18959 0.60279 0.49131 0.0
C1810 C 0.24564 0.62496 0.48626 0.0
C1811 C 0.25923 0.60977 0.49561 0.0
C1812 C 0.25449 0.64144 0.47345 0.0
C1813 C 0.2409 0.65728 0.46219 0.0
C1814 C 0.22455 0.65048 0.44833 0.0
C1815 C 0.21168 0.66549 0.4379 0.0
C1816 C 0.2151 0.68736 0.44109 0.0
C1817 C 0.23144 0.69426 0.45467 0.0
C1818 C 0.24434 0.67931 0.46515 0.0
C1819 C 0.34734 0.61081 0.4705 0.0
C1820 C 0.35844 0.62766 0.48042 0.0
C1821 C 0.32512 0.61149 0.46871 0.0
C1822 C 0.31365 0.62892 0.47701 0.0
C1823 C 0.32481 0.64665 0.48502 0.0
C1824 C 0.34706 0.64605 0.48668 0.0
C1825 C 0.29026 0.62733 0.48017 0.0
C1826 C 0.27675 0.64252 0.47075 0.0
C1827 C 0.28139 0.61089 0.49291 0.0
C1828 C 0.29505 0.59513 0.50414 0.0
C1829 C 0.31 0.60194 0.51948 0.0
C1830 C 0.32376 0.58717 0.52907 0.0
C1831 C 0.32266 0.56556 0.52345 0.0
C1832 C 0.30759 0.55861 0.50849 0.0
C1833 C 0.29372 0.5733 0.49893 0.0
H1834 H 0.33343 0.55418 0.53073 0.0
H1835 H 0.20512 0.69895 0.43301 0.0
H1836 H 0.68867 0.9023 0.45555 0.0
H1837 H 0.72601 0.90076 0.46614 0.0
H1838 H 0.72258 0.83186 0.46928 0.0
H1839 H 0.68477 0.83333 0.45926 0.0
H1840 H 0.74131 0.84644 0.5036 0.0
H1841 H 0.75152 0.85779 0.4295 0.0
H1842 H 0.74635 0.87424 0.39407 0.0
H1843 H 0.76925 0.93436 0.41819 0.0
H1844 H 0.77427 0.91836 0.45386 0.0
H1845 H 0.85682 0.84657 0.51874 0.0
H1846 H 0.82073 0.83982 0.50497 0.0
H1847 H 0.80662 0.90724 0.50895 0.0
H1848 H 0.84236 0.91412 0.52289 0.0
H1849 H 0.79865 0.88817 0.46821 0.0
H1850 H 0.78471 0.87585 0.54356 0.0
H1851 H 0.79045 0.85797 0.57821 0.0
H1852 H 0.77575 0.79719 0.54973 0.0
H1853 H 0.7702 0.81469 0.51482 0.0
C1854 C 0.69588 0.88677 0.45817 0.0
C1855 C 0.68371 0.86793 0.45658 0.0
C1856 C 0.71733 0.8859 0.46414 0.0
C1857 C 0.72723 0.86617 0.46829 0.0
C1858 C 0.71529 0.84726 0.46614 0.0
C1859 C 0.69372 0.84812 0.46032 0.0
C1860 C 0.74961 0.86562 0.47618 0.0
C1861 C 0.75395 0.85518 0.49559 0.0
C1862 C 0.76612 0.87715 0.46586 0.0
C1863 C 0.76314 0.88689 0.44441 0.0
C1864 C 0.75531 0.87456 0.4273 0.0
C1865 C 0.75243 0.8838 0.40716 0.0
C1866 C 0.75743 0.90534 0.40389 0.0
C1867 C 0.76537 0.91767 0.42075 0.0
C1868 C 0.76827 0.90852 0.44093 0.0
C1869 C 0.84591 0.8599 0.51699 0.0
C1870 C 0.85248 0.88089 0.52183 0.0
C1871 C 0.82533 0.85602 0.50912 0.0
C1872 C 0.81113 0.87307 0.50584 0.0
C1873 C 0.81743 0.8939 0.51128 0.0
C1874 C 0.83784 0.89777 0.51935 0.0
C1875 C 0.79002 0.86956 0.4958 0.0
C1876 C 0.78602 0.87919 0.47597 0.0
C1877 C 0.77397 0.85704 0.50556 0.0
C1878 C 0.77731 0.84654 0.52653 0.0
C1879 C 0.78291 0.85865 0.54464 0.0
C1880 C 0.78608 0.84859 0.56434 0.0
C1881 C 0.78354 0.82645 0.56616 0.0
C1882 C 0.77776 0.81433 0.54829 0.0
C1883 C 0.77459 0.82431 0.52855 0.0
H1884 H 0.786 0.81869 0.58142 0.0
H1885 H 0.75519 0.91246 0.38829 0.0
H1886 H 0.52564 0.83688 0.9101 0.0
H1887 H 0.52052 0.79868 0.90449 0.0
H1888 H 0.51727 0.80884 0.83636 0.0
H1889 H 0.52186 0.84733 0.8419 0.0
H1890 H 0.48483 0.78544 0.84884 0.0
H1891 H 0.55994 0.78223 0.85997 0.0
H1892 H 0.59436 0.78922 0.87782 0.0
H1893 H 0.57239 0.75641 0.93393 0.0
H1894 H 0.53771 0.74947 0.91653 0.0
H1895 H 0.48263 0.67148 0.83001 0.0
H1896 H 0.49171 0.70961 0.83017 0.0
H1897 H 0.48976 0.70995 0.89906 0.0
H1898 H 0.48065 0.67198 0.89909 0.0
H1899 H 0.52699 0.72745 0.88271 0.0
H1900 H 0.45086 0.73337 0.87179 0.0
H1901 H 0.41675 0.72627 0.85337 0.0
H1902 H 0.44173 0.75379 0.7957 0.0
H1903 H 0.47611 0.76079 0.81371 0.0
C1904 C 0.52426 0.831 0.89387 0.0
C1905 C 0.52406 0.84519 0.87645 0.0
C1906 C 0.5214 0.80908 0.89068 0.0
C1907 C 0.51861 0.80082 0.86998 0.0
C1908 C 0.51935 0.81485 0.85247 0.0
C1909 C 0.52208 0.83683 0.85566 0.0
C1910 C 0.51319 0.77789 0.86691 0.0
C1911 C 0.49432 0.77274 0.85587 0.0
C1912 C 0.52531 0.7613 0.87642 0.0
C1913 C 0.54615 0.76547 0.88698 0.0
C1914 C 0.56238 0.77665 0.87618 0.0
C1915 C 0.58195 0.78058 0.88621 0.0
C1916 C 0.58554 0.77331 0.90701 0.0
C1917 C 0.56958 0.76205 0.91782 0.0
C1918 C 0.54997 0.75808 0.90787 0.0
C1919 C 0.48381 0.67975 0.84518 0.0
C1920 C 0.48098 0.66867 0.86454 0.0
C1921 C 0.48901 0.70152 0.84524 0.0
C1922 C 0.49148 0.71254 0.86464 0.0
C1923 C 0.48803 0.70168 0.88393 0.0
C1924 C 0.4827 0.68 0.88389 0.0
C1925 C 0.49853 0.73517 0.86499 0.0
C1926 C 0.5177 0.7402 0.8755 0.0
C1927 C 0.48678 0.75161 0.85487 0.0
C1928 C 0.46614 0.74737 0.84403 0.0
C1929 C 0.44915 0.73772 0.85512 0.0
C1930 C 0.42975 0.73376 0.84477 0.0
C1931 C 0.4271 0.73951 0.82336 0.0
C1932 C 0.44382 0.7493 0.81227 0.0
C1933 C 0.46326 0.75328 0.82255 0.0
H1934 H 0.41206 0.73644 0.81538 0.0
H1935 H 0.60071 0.77636 0.91474 0.0
H1936 H 0.48191 0.33673 0.6452 0.0
H1937 H 0.49051 0.29867 0.64906 0.0
H1938 H 0.47294 0.288 0.58319 0.0
H1939 H 0.4637 0.32559 0.57946 0.0
H1940 H 0.4593 0.25652 0.60559 0.0
H1941 H 0.52619 0.29391 0.60014 0.0
H1942 H 0.55351 0.32047 0.6103 0.0
H1943 H 0.55909 0.29152 0.67227 0.0
H1944 H 0.5316 0.26492 0.66254 0.0
H1945 H 0.51263 0.16275 0.57827 0.0
H1946 H 0.508 0.20138 0.58132 0.0
H1947 H 0.51092 0.19669 0.64998 0.0
H1948 H 0.51538 0.15784 0.64717 0.0
H1949 H 0.53165 0.23512 0.63007 0.0
H1950 H 0.46487 0.19534 0.63161 0.0
H1951 H 0.43884 0.16906 0.61786 0.0
H1952 H 0.43511 0.20338 0.55856 0.0
H1953 H 0.46132 0.22961 0.57179 0.0
C1954 C 0.4796 0.32619 0.63166 0.0
C1955 C 0.47221 0.33422 0.612 0.0
C1956 C 0.48469 0.30447 0.63382 0.0
C1957 C 0.48276 0.29052 0.61629 0.0
C1958 C 0.47462 0.29842 0.59695 0.0
C1959 C 0.46934 0.31998 0.59484 0.0
C1960 C 0.48953 0.26776 0.61769 0.0
C1961 C 0.47517 0.25193 0.61085 0.0
C1962 C 0.51015 0.26163 0.62481 0.0
C1963 C 0.52666 0.2776 0.63071 0.0
C1964 C 0.53312 0.29332 0.61599 0.0
C1965 C 0.54866 0.30836 0.62166 0.0
C1966 C 0.55798 0.30773 0.64194 0.0
C1967 C 0.55182 0.29202 0.65658 0.0
C1968 C 0.53628 0.27695 0.651 0.0
C1969 C 0.5129 0.16992 0.59404 0.0
C1970 C 0.51404 0.15715 0.6125 0.0
C1971 C 0.51019 0.19202 0.59572 0.0
C1972 C 0.50877 0.20174 0.61587 0.0
C1973 C 0.5119 0.18939 0.6343 0.0
C1974 C 0.51443 0.16721 0.63264 0.0
C1975 C 0.50153 0.2242 0.61758 0.0
C1976 C 0.51574 0.23984 0.62505 0.0
C1977 C 0.48092 0.23028 0.6106 0.0
C1978 C 0.46516 0.21439 0.60266 0.0
C1979 C 0.45863 0.19717 0.61557 0.0
C1980 C 0.44379 0.1823 0.60788 0.0
C1981 C 0.43523 0.18459 0.58738 0.0
C1982 C 0.44163 0.20164 0.57446 0.0
C1983 C 0.45648 0.21652 0.58205 0.0
H1984 H 0.42361 0.17317 0.58152 0.0
H1985 H 0.57001 0.31939 0.6463 0.0
H1986 H 0.89772 0.50549 0.83705 0.0
H1987 H 0.89581 0.49271 0.80026 0.0
H1988 H 0.84812 0.54047 0.78597 0.0
H1989 H 0.84951 0.553 0.82301 0.0
H1990 H 0.8373 0.5033 0.76858 0.0
H1991 H 0.90047 0.54649 0.76988 0.0
H1992 H 0.93549 0.55876 0.78315 0.0
H1993 H 0.96219 0.49665 0.77096 0.0
H1994 H 0.92724 0.48392 0.75786 0.0
H1995 H 0.84917 0.49729 0.65464 0.0
H1996 H 0.84606 0.50728 0.69227 0.0
H1997 H 0.89235 0.45896 0.70901 0.0
H1998 H 0.89584 0.44912 0.67141 0.0
H1999 H 0.90316 0.49695 0.72499 0.0
H2000 H 0.83917 0.4543 0.72274 0.0
H2001 H 0.804 0.44314 0.70888 0.0
H2002 H 0.7787 0.50566 0.72192 0.0
H2003 H 0.81381 0.51729 0.7356 0.0
C2004 C 0.88688 0.51335 0.82608 0.0
C2005 C 0.87386 0.53035 0.83292 0.0
C2006 C 0.88584 0.50605 0.80502 0.0
C2007 C 0.87203 0.51582 0.79027 0.0
C2008 C 0.8589 0.53271 0.79708 0.0
C2009 C 0.85979 0.53991 0.81822 0.0
C2010 C 0.87135 0.50837 0.76775 0.0
C2011 C 0.85166 0.50216 0.75894 0.0
C2012 C 0.89012 0.50656 0.75529 0.0
C2013 C 0.91118 0.5142 0.76307 0.0
C2014 C 0.91377 0.5354 0.77017 0.0
C2015 C 0.93361 0.54245 0.77763 0.0
C2016 C 0.95104 0.52848 0.77794 0.0
C2017 C 0.94867 0.50745 0.77073 0.0
C2018 C 0.92885 0.50031 0.76326 0.0
C2019 C 0.85838 0.4885 0.66637 0.0
C2020 C 0.87289 0.47252 0.66002 0.0
C2021 C 0.85654 0.49421 0.6879 0.0
C2022 C 0.86898 0.48387 0.70346 0.0
C2023 C 0.88267 0.46721 0.69725 0.0
C2024 C 0.8846 0.46157 0.67575 0.0
C2025 C 0.86917 0.49158 0.72587 0.0
C2026 C 0.8888 0.49799 0.73464 0.0
C2027 C 0.85032 0.49372 0.73816 0.0
C2028 C 0.82918 0.48672 0.73001 0.0
C2029 C 0.82616 0.46572 0.72249 0.0
C2030 C 0.80622 0.4593 0.7147 0.0
C2031 C 0.78915 0.4737 0.71447 0.0
C2032 C 0.79195 0.49453 0.72209 0.0
C2033 C 0.81186 0.50104 0.72988 0.0
H2034 H 0.77373 0.46869 0.70843 0.0
H2035 H 0.96639 0.53397 0.78373 0.0
H2036 H 0.16634 0.00704 0.66711 0.0
H2037 H 0.16726 0.01588 0.70523 0.0
H2038 H 0.10128 0.03556 0.70236 0.0
H2039 H 0.10027 0.02706 0.66432 0.0
H2040 H 0.12387 0.06143 0.72839 0.0
H2041 H 0.11399 0.98589 0.71818 0.0
H2042 H 0.12303 0.95015 0.70411 0.0
H2043 H 0.18274 0.95163 0.73792 0.0
H2044 H 0.17418 0.98757 0.75191 0.0
H2045 H 0.0861 0.045 0.83324 0.0
H2046 H 0.09265 0.04144 0.79495 0.0
H2047 H 0.15925 0.02881 0.80727 0.0
H2048 H 0.15287 0.03246 0.84579 0.0
H2049 H 0.14025 0.00078 0.77692 0.0
H2050 H 0.14678 0.0762 0.79006 0.0
H2051 H 0.13529 0.11116 0.80427 0.0
H2052 H 0.079 0.10893 0.76509 0.0
H2053 H 0.09 0.07379 0.75087 0.0
C2054 C 0.15215 0.01365 0.6745 0.0
C2055 C 0.13316 0.01614 0.66273 0.0
C2056 C 0.15268 0.01859 0.6963 0.0
C2057 C 0.13422 0.02602 0.70669 0.0
C2058 C 0.11568 0.02978 0.69468 0.0
C2059 C 0.11513 0.02485 0.67293 0.0
C2060 C 0.13364 0.02844 0.73028 0.0
C2061 C 0.12738 0.04816 0.73899 0.0
C2062 C 0.13846 0.01118 0.74412 0.0
C2063 C 0.14357 0.98951 0.73588 0.0
C2064 C 0.12913 0.97866 0.72248 0.0
C2065 C 0.13415 0.95837 0.71453 0.0
C2066 C 0.15348 0.94865 0.72007 0.0
C2067 C 0.16779 0.9592 0.73361 0.0
C2068 C 0.16287 0.97953 0.74155 0.0
C2069 C 0.10215 0.04138 0.82787 0.0
C2070 C 0.119 0.0391 0.84257 0.0
C2071 C 0.10587 0.03944 0.80596 0.0
C2072 C 0.12647 0.03511 0.7983 0.0
C2073 C 0.14325 0.03225 0.8129 0.0
C2074 C 0.13958 0.03438 0.83487 0.0
C2075 C 0.13034 0.03372 0.77498 0.0
C2076 C 0.13711 0.01416 0.76632 0.0
C2077 C 0.1257 0.05103 0.76117 0.0
C2078 C 0.11915 0.07228 0.76952 0.0
C2079 C 0.13188 0.08309 0.78459 0.0
C2080 C 0.12546 0.10295 0.79263 0.0
C2081 C 0.1064 0.11224 0.78562 0.0
C2082 C 0.09375 0.10171 0.77051 0.0
C2083 C 0.10008 0.08183 0.76244 0.0
H2084 H 0.10146 0.12762 0.79187 0.0
H2085 H 0.15734 0.93293 0.71391 0.0
H2086 H 0.82737 0.10095 0.97762 0.0
H2087 H 0.78959 0.09847 0.96798 0.0
H2088 H 0.77947 0.16256 0.99167 0.0
H2089 H 0.81711 0.16534 0.00075 0.0
H2090 H 0.75912 0.0978 0.99528 0.0
H2091 H 0.73718 0.18606 0.97157 0.0
H2092 H 0.75188 0.21478 0.94896 0.0
H2093 H 0.7866 0.1684 0.91212 0.0
H2094 H 0.77187 0.13935 0.93429 0.0
H2095 H 0.66404 0.13398 0.03902 0.0
H2096 H 0.70028 0.12821 0.02592 0.0
H2097 H 0.67742 0.13002 0.9609 0.0
H2098 H 0.64099 0.13585 0.97387 0.0
H2099 H 0.7124 0.15481 0.966 0.0
H2100 H 0.69349 0.08355 0.98004 0.0
H2101 H 0.67816 0.05316 -0.0001 0.0
H2102 H 0.72441 0.06198 0.04982 0.0
H2103 H 0.7398 0.09268 0.03048 0.0
C2104 C 0.81721 0.11474 0.98019 0.0
C2105 C 0.82519 0.13325 0.99021 0.0
C2106 C 0.7956 0.11327 0.97472 0.0
C2107 C 0.78164 0.13031 0.97908 0.0
C2108 C 0.78992 0.14931 0.98777 0.0
C2109 C 0.8115 0.15083 0.99312 0.0
C2110 C 0.75814 0.1274 0.97759 0.0
C2111 C 0.74892 0.11011 0.98857 0.0
C2112 C 0.74472 0.14306 0.96825 0.0
C2113 C 0.75345 0.1605 0.95468 0.0
C2114 C 0.74782 0.18195 0.95855 0.0
C2115 C 0.7562 0.1983 0.94583 0.0
C2116 C 0.77019 0.19342 0.92914 0.0
C2117 C 0.7758 0.17217 0.9251 0.0
C2118 C 0.76747 0.15575 0.93776 0.0
C2119 C 0.66666 0.13301 0.02194 0.0
C2120 C 0.64966 0.13548 0.0075 0.0
C2121 C 0.68737 0.1296 0.01447 0.0
C2122 C 0.69149 0.1285 0.99243 0.0
C2123 C 0.67455 0.13079 0.97795 0.0
C2124 C 0.65377 0.13411 0.98542 0.0
C2125 C 0.71374 0.12602 0.98482 0.0
C2126 C 0.72264 0.14225 0.97216 0.0
C2127 C 0.72683 0.1091 0.99211 0.0
C2128 C 0.71778 0.0905 0.00381 0.0
C2129 C 0.70033 0.07911 0.99531 0.0
C2130 C 0.69163 0.06181 0.00647 0.0
C2131 C 0.7003 0.05565 0.0261 0.0
C2132 C 0.71772 0.06676 0.0346 0.0
C2133 C 0.72646 0.0841 0.02353 0.0
H2134 H 0.69354 0.04225 0.03472 0.0
H2135 H 0.77666 0.20611 0.91932 0.0
H2136 H -0.00013 0.92039 0.18633 0.0
H2137 H 0.00268 0.95072 0.21107 0.0
H2138 H 0.03625 0.98698 0.16298 0.0
H2139 H 0.03322 0.95703 0.13825 0.0
H2140 H 0.03471 0.97042 0.22853 0.0
H2141 H 0.02484 0.03877 0.16608 0.0
H2142 H 0.00504 0.04562 0.13263 0.0
H2143 H 0.95773 -0.00063 0.15084 0.0
H2144 H 0.97724 0.99218 0.18423 0.0
H2145 H 0.06824 0.05803 0.28267 0.0
H2146 H 0.06488 0.03781 0.24942 0.0
H2147 H 0.99748 0.05206 0.24756 0.0
H2148 H 0.00102 0.07304 0.28043 0.0
H2149 H 0.01301 0.04386 0.2073 0.0
H2150 H 0.01293 0.01097 0.27627 0.0
H2151 H 0.02691 0.00377 0.3124 0.0
H2152 H 0.08409 0.97718 0.28533 0.0
H2153 H 0.07058 0.9846 0.24901 0.0
C2154 C 0.00795 0.9348 0.18112 0.0
C2155 C 0.01618 0.93638 0.16031 0.0
C2156 C 0.00949 0.95214 0.19522 0.0
C2157 C 0.01931 0.9713 0.18874 0.0
C2158 C 0.0281 0.97261 0.16817 0.0
C2159 C 0.02646 0.95539 0.15408 0.0
C2160 C 0.02094 0.98978 0.2036 0.0
C2161 C 0.02997 0.98644 0.22382 0.0
C2162 C 0.01431 0.01066 0.19773 0.0
C2163 C 0.00262 0.0148 0.17754 0.0
C2164 C 0.01021 0.03006 0.1629 0.0
C2165 C -0.00093 0.03395 0.14392 0.0
C2166 C 0.9802 0.02282 0.13951 0.0
C2167 C 0.97244 0.00781 0.1541 0.0
C2168 C 0.98357 0.00377 0.17303 0.0
C2169 C 0.05299 0.05789 0.27446 0.0
C2170 C 0.03486 0.06689 0.28411 0.0
C2171 C 0.05103 0.04619 0.25558 0.0
C2172 C 0.03079 0.04285 0.24648 0.0
C2173 C 0.01321 0.05431 0.25444 0.0
C2174 C 0.01527 0.06641 0.27316 0.0
C2175 C 0.02737 0.02449 0.23184 0.0
C2176 C 0.01791 0.02783 0.21181 0.0
C2177 C 0.03283 0.00341 0.23816 0.0
C2178 C 0.04084 0.99852 0.25995 0.0
C2179 C 0.02854 0.0037 0.27803 0.0
C2180 C 0.03637 -0.00042 0.29854 0.0
C2181 C 0.0564 0.99006 0.30116 0.0
C2182 C 0.0686 0.98458 0.28327 0.0
C2183 C 0.06086 0.98874 0.26272 0.0
H2184 H 0.06245 0.98689 0.31705 0.0
H2185 H 0.97155 0.02588 0.12484 0.0
H2186 H 0.97127 0.41727 0.30918 0.0
H2187 H 0.97641 0.4381 0.27648 0.0
H2188 H 0.90849 0.4486 0.27222 0.0
H2189 H 0.90321 0.42826 0.30524 0.0
H2190 H 0.93387 0.44046 0.2307 0.0
H2191 H 0.93049 0.48432 0.29578 0.0
H2192 H 0.94233 0.49298 0.33238 0.0
H2193 H 0.00675 0.50064 0.31011 0.0
H2194 H 0.99532 0.49165 0.27341 0.0
H2195 H 0.92388 0.52998 0.16539 0.0
H2196 H 0.92007 0.50569 0.19568 0.0
H2197 H 0.98601 0.51653 0.21279 0.0
H2198 H 0.98959 0.54165 0.18299 0.0
H2199 H 0.96418 0.51202 0.24735 0.0
H2200 H 0.96993 0.47184 0.18322 0.0
H2201 H 0.96164 0.46088 0.14628 0.0
H2202 H 0.89805 0.44353 0.16527 0.0
H2203 H 0.90586 0.45469 0.20229 0.0
C2204 C 0.95735 0.42339 0.30091 0.0
C2205 C 0.93684 0.42129 0.30983 0.0
C2206 C 0.96034 0.43536 0.28231 0.0
C2207 C 0.94284 0.445 0.27218 0.0
C2208 C 0.92216 0.44125 0.2799 0.0
C2209 C 0.91918 0.42965 0.29873 0.0
C2210 C 0.94625 0.46108 0.25526 0.0
C2211 C 0.9403 0.45619 0.23427 0.0
C2212 C 0.95534 0.48125 0.25997 0.0
C2213 C 0.9621 0.48707 0.28192 0.0
C2214 C 0.94721 0.48767 0.29873 0.0
C2215 C 0.95384 0.49266 0.31948 0.0
C2216 C 0.97529 0.49729 0.32358 0.0
C2217 C 0.99014 0.49701 0.30691 0.0
C2218 C 0.9836 0.49198 0.28614 0.0
C2219 C 0.93743 0.52751 0.17588 0.0
C2220 C 0.95707 0.53757 0.17177 0.0
C2221 C 0.93531 0.51347 0.19306 0.0
C2222 C 0.95295 0.50872 0.2061 0.0
C2223 C 0.97222 0.51978 0.20283 0.0
C2224 C 0.97424 0.53419 0.18585 0.0
C2225 C 0.95144 0.49168 0.22257 0.0
C2226 C 0.9578 0.49632 0.24357 0.0
C2227 C 0.94321 0.47106 0.21773 0.0
C2228 C 0.93843 0.46429 0.19549 0.0
C2229 C 0.95412 0.46584 0.17949 0.0
C2230 C 0.94952 0.45957 0.15854 0.0
C2231 C 0.92931 0.45156 0.15342 0.0
C2232 C 0.91369 0.44976 0.16926 0.0
C2233 C 0.9182 0.45604 0.19023 0.0
H2234 H 0.92578 0.44671 0.13719 0.0
H2235 H 0.98039 0.50115 0.33966 0.0
H2236 H 0.1794 0.08267 0.97436 0.0
H2237 H 0.21009 0.06992 0.9949 0.0
H2238 H 0.21586 0.0156 0.95275 0.0
H2239 H 0.18525 0.02842 0.93194 0.0
H2240 H 0.21123 0.00484 0.99616 0.0
H2241 H 0.25418 0.0508 0.95265 0.0
H2242 H 0.26449 0.08471 0.93539 0.0
H2243 H 0.27157 0.1144 0.99689 0.0
H2244 H 0.261 0.08073 0.01453 0.0
H2245 H 0.31181 0.96281 0.02821 0.0
H2246 H 0.27997 0.97726 0.0108 0.0
H2247 H 0.27713 0.02779 0.05771 0.0
H2248 H 0.30887 0.01288 0.07563 0.0
H2249 H 0.27909 0.04168 0.01416 0.0
H2250 H 0.23866 0.99479 0.05777 0.0
H2251 H 0.22767 0.96112 0.07501 0.0
H2252 H 0.2151 0.93319 0.01357 0.0
H2253 H 0.22645 0.96655 0.99589 0.0
C2254 C 0.18766 0.06839 0.96905 0.0
C2255 C 0.17996 0.05653 0.95156 0.0
C2256 C 0.20514 0.0611 0.98083 0.0
C2257 C 0.2151 0.04175 0.97543 0.0
C2258 C 0.20831 0.03056 0.95718 0.0
C2259 C 0.19099 0.03802 0.94517 0.0
C2260 C 0.23113 0.03225 0.99001 0.0
C2261 C 0.22625 0.01268 -0.00014 0.0
C2262 C 0.25023 0.04301 0.99545 0.0
C2263 C 0.25656 0.0633 0.98491 0.0
C2264 C 0.25773 0.06462 0.96249 0.0
C2265 C 0.26367 0.08378 0.95264 0.0
C2266 C 0.26862 0.10171 0.96503 0.0
C2267 C 0.2677 0.1005 0.98731 0.0
C2268 C 0.26175 0.08137 0.99725 0.0
C2269 C 0.30398 0.97661 0.03518 0.0
C2270 C 0.31262 0.98672 0.05326 0.0
C2271 C 0.28583 0.98485 0.02523 0.0
C2272 C 0.27625 0.00359 0.03296 0.0
C2273 C 0.2843 0.01325 0.05159 0.0
C2274 C 0.30227 0.00468 0.06187 0.0
C2275 C 0.25937 0.01406 0.0201 0.0
C2276 C 0.26405 0.03384 0.01056 0.0
C2277 C 0.24007 0.00347 0.01494 0.0
C2278 C 0.2337 0.98314 0.02547 0.0
C2279 C 0.23386 0.98139 0.04789 0.0
C2280 C 0.22749 0.96236 0.05776 0.0
C2281 C 0.22076 0.945 0.04539 0.0
C2282 C 0.22037 0.94664 0.02313 0.0
C2283 C 0.22678 0.9656 0.01318 0.0
H2284 H 0.21579 0.93031 0.05306 0.0
H2285 H 0.27323 0.11654 0.95737 0.0
H2286 H 0.70798 0.44063 0.04229 0.0
H2287 H 0.74326 0.44399 0.02587 0.0
H2288 H 0.74503 0.51072 0.04388 0.0
H2289 H 0.71058 0.50695 0.06147 0.0
H2290 H 0.75104 0.46436 0.99307 0.0
H2291 H 0.7928 0.53254 0.04201 0.0
H2292 H 0.79819 0.54267 0.07972 0.0
H2293 H 0.78782 0.47757 0.099 0.0
H2294 H 0.78267 0.46697 0.0614 0.0
H2295 H 0.81714 0.52394 0.92504 0.0
H2296 H 0.79063 0.51045 0.9504 0.0
H2297 H 0.84126 0.49255 0.99382 0.0
H2298 H 0.86753 0.5075 0.96917 0.0
H2299 H 0.81291 0.5082 0.01604 0.0
H2300 H 0.81051 0.45482 0.96219 0.0
H2301 H 0.80782 0.4398 0.92583 0.0
H2302 H 0.74473 0.46597 0.91932 0.0
H2303 H 0.74715 0.48139 0.95553 0.0
C2304 C 0.71635 0.45576 0.04344 0.0
C2305 C 0.70662 0.47352 0.05314 0.0
C2306 C 0.73643 0.45774 0.03391 0.0
C2307 C 0.7469 0.47763 0.03349 0.0
C2308 C 0.73766 0.49505 0.04433 0.0
C2309 C 0.71786 0.49291 0.05437 0.0
C2310 C 0.76582 0.48094 0.01948 0.0
C2311 C 0.76469 0.47371 0.99823 0.0
C2312 C 0.78393 0.49275 0.02617 0.0
C2313 C 0.7872 0.49899 0.04885 0.0
C2314 C 0.79179 0.52035 0.05427 0.0
C2315 C 0.79477 0.52619 0.07564 0.0
C2316 C 0.7933 0.51079 0.09175 0.0
C2317 C 0.78889 0.4895 0.08652 0.0
C2318 C 0.7859 0.48358 0.06517 0.0
C2319 C 0.82252 0.517 0.93997 0.0
C2320 C 0.84429 0.5167 0.9452 0.0
C2321 C 0.80741 0.50914 0.95441 0.0
C2322 C 0.81389 0.50006 0.97396 0.0
C2323 C 0.83576 0.49949 0.97894 0.0
C2324 C 0.85078 0.50795 0.96482 0.0
C2325 C 0.79787 0.49199 0.98957 0.0
C2326 C 0.79948 0.49845 0.01104 0.0
C2327 C 0.78066 0.47867 0.98333 0.0
C2328 C 0.77908 0.46938 0.96154 0.0
C2329 C 0.79611 0.45748 0.95296 0.0
C2330 C 0.79463 0.44888 0.93238 0.0
C2331 C 0.77613 0.45196 0.92026 0.0
C2332 C 0.75905 0.4636 0.92872 0.0
C2333 C 0.76046 0.47225 0.94928 0.0
H2334 H 0.77501 0.44529 0.90433 0.0
H2335 H 0.7956 0.51534 0.10828 0.0
H2336 H 0.30318 0.00879 0.43199 0.0
H2337 H 0.27331 0.99888 0.4553 0.0
H2338 H 0.31293 0.95155 0.48608 0.0
H2339 H 0.34288 0.96176 0.46331 0.0
H2340 H 0.24979 0.96489 0.46719 0.0
H2341 H 0.3073 0.95564 0.53942 0.0
H2342 H 0.34284 0.96844 0.55077 0.0
H2343 H 0.33582 0.02416 0.51125 0.0
H2344 H 0.30013 0.01186 0.49994 0.0
H2345 H 0.18888 0.9258 0.55235 0.0
H2346 H 0.21899 0.9297 0.52787 0.0
H2347 H 0.23219 0.99225 0.55393 0.0
H2348 H 0.20237 0.98827 0.57883 0.0
H2349 H 0.26821 0.97315 0.54397 0.0
H2350 H 0.2019 0.98645 0.50873 0.0
H2351 H 0.16507 0.97868 0.49703 0.0
H2352 H 0.18723 0.92386 0.46211 0.0
H2353 H 0.22416 0.93107 0.47388 0.0
C2354 C 0.30528 0.99581 0.44327 0.0
C2355 C 0.3254 0.98623 0.44606 0.0
C2356 C 0.28823 0.99021 0.45663 0.0
C2357 C 0.2911 0.97489 0.47282 0.0
C2358 C 0.31053 0.96378 0.47405 0.0
C2359 C 0.32759 0.96954 0.46095 0.0
C2360 C 0.27475 0.97206 0.48975 0.0
C2361 C 0.25382 0.96657 0.48398 0.0
C2362 C 0.27985 0.97497 0.51164 0.0
C2363 C 0.30115 0.98269 0.51867 0.0
C2364 C 0.31331 0.97067 0.53323 0.0
C2365 C 0.33348 0.97783 0.53965 0.0
C2366 C 0.34161 0.99707 0.53168 0.0
C2367 C 0.32954 0.00923 0.51736 0.0
C2368 C 0.30935 0.00216 0.51093 0.0
C2369 C 0.19852 0.94017 0.55325 0.0
C2370 C 0.19311 0.95682 0.56739 0.0
C2371 C 0.21561 0.94245 0.53912 0.0
C2372 C 0.22744 0.96152 0.53864 0.0
C2373 C 0.22315 0.97746 0.55388 0.0
C2374 C 0.20616 0.97512 0.56819 0.0
C2375 C 0.24335 0.96535 0.52148 0.0
C2376 C 0.2642 0.97122 0.52721 0.0
C2377 C 0.23796 0.9635 0.49954 0.0
C2378 C 0.21577 0.95918 0.49236 0.0
C2379 C 0.1989 0.97264 0.49869 0.0
C2380 C 0.17801 0.96836 0.49203 0.0
C2381 C 0.17381 0.95078 0.47888 0.0
C2382 C 0.19051 0.93746 0.47232 0.0
C2383 C 0.21142 0.94164 0.47897 0.0
H2384 H 0.15763 0.94749 0.47374 0.0
H2385 H 0.35724 0.00256 0.53664 0.0
H2386 H 0.81705 0.50431 0.57142 0.0
H2387 H 0.78344 0.5097 0.55202 0.0
H2388 H 0.81728 0.50516 0.49212 0.0
H2389 H 0.85073 0.50063 0.51119 0.0
H2390 H 0.7871 0.53395 0.48882 0.0
H2391 H 0.79196 0.46139 0.51756 0.0
H2392 H 0.79487 0.43528 0.54706 0.0
H2393 H 0.73685 0.45942 0.57451 0.0
H2394 H 0.73389 0.486 0.54551 0.0
H2395 H 0.71715 0.4885 0.41298 0.0
H2396 H 0.74541 0.49737 0.43846 0.0
H2397 H 0.69869 0.50289 0.48883 0.0
H2398 H 0.67041 0.49378 0.46353 0.0
H2399 H 0.73141 0.47887 0.50122 0.0
H2400 H 0.72335 0.54736 0.46927 0.0
H2401 H 0.72021 0.57347 0.43992 0.0
H2402 H 0.78325 0.55724 0.4183 0.0
H2403 H 0.78667 0.5308 0.44734 0.0
C2404 C 0.81735 0.50486 0.55413 0.0
C2405 C 0.83655 0.50181 0.54287 0.0
C2406 C 0.79812 0.50784 0.54306 0.0
C2407 C 0.79777 0.50742 0.52059 0.0
C2408 C 0.8171 0.50553 0.50943 0.0
C2409 C 0.83626 0.50285 0.52042 0.0
C2410 C 0.7774 0.50734 0.50842 0.0
C2411 C 0.77493 0.52188 0.49149 0.0
C2412 C 0.76119 0.49201 0.5123 0.0
C2413 C 0.76287 0.47584 0.52955 0.0
C2414 C 0.77993 0.46121 0.52999 0.0
C2415 C 0.78158 0.44634 0.5466 0.0
C2416 C 0.76607 0.44571 0.56263 0.0
C2417 C 0.74887 0.45995 0.5621 0.0
C2418 C 0.74722 0.47495 0.54561 0.0
C2419 C 0.71286 0.4918 0.42946 0.0
C2420 C 0.69154 0.49036 0.43626 0.0
C2421 C 0.72903 0.49699 0.44396 0.0
C2422 C 0.72414 0.501 0.46552 0.0
C2423 C 0.70281 0.49989 0.47227 0.0
C2424 C 0.68664 0.49468 0.45778 0.0
C2425 C 0.74148 0.50502 0.48117 0.0
C2426 C 0.74335 0.49121 0.49876 0.0
C2427 C 0.75713 0.521 0.47788 0.0
C2428 C 0.75521 0.53698 0.46043 0.0
C2429 C 0.73649 0.54924 0.45817 0.0
C2430 C 0.73467 0.56412 0.4416 0.0
C2431 C 0.75151 0.56699 0.42723 0.0
C2432 C 0.77022 0.555 0.42944 0.0
C2433 C 0.77212 0.54009 0.44598 0.0
H2434 H 0.75006 0.57851 0.41441 0.0
H2435 H 0.76737 0.43417 0.57546 0.0
H2436 H 0.07287 0.26855 0.005 0.0
H2437 H 0.04606 0.2439 0.01948 0.0
H2438 H 0.99776 0.29273 0.01283 0.0
H2439 H 0.02439 0.31738 -0.00112 0.0
H2440 H 0.99373 0.27518 0.04979 0.0
H2441 H 0.00122 0.24923 0.97852 0.0
H2442 H 0.01789 0.23452 0.946 0.0
H2443 H 0.03854 0.17922 0.98106 0.0
H2444 H 0.02226 0.19377 0.0139 0.0
H2445 H 0.89868 0.21155 0.04471 0.0
H2446 H 0.92919 0.23526 0.03878 0.0
H2447 H 0.97169 0.18696 0.06351 0.0
H2448 H 0.94128 0.16343 0.07014 0.0
H2449 H 0.98116 0.20226 0.02124 0.0
H2450 H 0.96749 0.22891 0.09152 0.0
H2451 H 0.9455 0.2436 0.12072 0.0
H2452 H 0.93105 0.29886 0.08262 0.0
H2453 H 0.95271 0.28435 0.05305 0.0
C2454 C 0.05651 0.27396 0.0066 0.0
C2455 C 0.05077 0.29494 0.00092 0.0
C2456 C 0.04119 0.25985 0.01479 0.0
C2457 C 0.01984 0.26642 0.01718 0.0
C2458 C 0.01413 0.28732 0.01129 0.0
C2459 C 0.02941 0.30141 0.00329 0.0
C2460 C 0.00343 0.25188 0.02625 0.0
C2461 C 0.99085 0.25932 0.04332 0.0
C2462 C -8e-05 0.23099 0.01817 0.0
C2463 C 0.01086 0.2228 -0.00122 0.0
C2464 C 0.00966 0.23413 0.9794 0.0
C2465 C 0.01896 0.22577 0.96088 0.0
C2466 C 0.02937 0.206 0.96149 0.0
C2467 C 0.03057 0.19458 0.98064 0.0
C2468 C 0.02133 0.20289 -0.00078 0.0
C2469 C 0.91446 0.20611 0.04927 0.0
C2470 C 0.91757 0.1854 0.05749 0.0
C2471 C 0.93186 0.21969 0.04592 0.0
C2472 C 0.95265 0.21277 0.05063 0.0
C2473 C 0.95574 0.19252 0.05972 0.0
C2474 C 0.93831 0.17906 0.0634 0.0
C2475 C 0.97118 0.22587 0.0441 0.0
C2476 C 0.9842 0.2181 0.02763 0.0
C2477 C 0.97463 0.24666 0.05223 0.0
C2478 C 0.96159 0.25544 0.06999 0.0
C2479 C 0.95947 0.2441 0.08928 0.0
C2480 C 0.94709 0.25242 0.10592 0.0
C2481 C 0.93684 0.27213 0.10351 0.0
C2482 C 0.93898 0.28359 0.08446 0.0
C2483 C 0.95133 0.27533 0.06777 0.0
H2484 H 0.92727 0.27854 0.11641 0.0
H2485 H 0.03643 0.19948 0.94709 0.0
H2486 H 0.08925 0.70415 0.50638 0.0
H2487 H 0.06527 0.7352 0.5045 0.0
H2488 H 0.01422 0.69449 0.48239 0.0
H2489 H 0.03788 0.66337 0.48472 0.0
H2490 H 0.01967 0.73671 0.46021 0.0
H2491 H 0.01076 0.70365 0.52941 0.0
H2492 H 0.02392 0.68866 0.56339 0.0
H2493 H 0.05196 0.74925 0.57962 0.0
H2494 H 0.03928 0.76449 0.54551 0.0
H2495 H 0.94065 0.81421 0.51991 0.0
H2496 H 0.95782 0.77926 0.51467 0.0
H2497 H 0.00861 0.80952 0.47928 0.0
H2498 H 0.99177 0.84435 0.4846 0.0
H2499 H -0.00084 0.76941 0.52957 0.0
H2500 H 0.0253 0.77365 0.44081 0.0
H2501 H 0.01207 0.78823 0.40665 0.0
H2502 H 0.94754 0.78438 0.42957 0.0
H2503 H 0.96035 0.7695 0.46373 0.0
C2504 C 0.07302 0.70192 0.50081 0.0
C2505 C 0.06534 0.68141 0.49581 0.0
C2506 C 0.05936 0.7196 0.4998 0.0
C2507 C 0.03802 0.71701 0.49339 0.0
C2508 C 0.03065 0.69674 0.48734 0.0
C2509 C 0.04414 0.67901 0.48877 0.0
C2510 C 0.02301 0.73521 0.4944 0.0
C2511 C 0.01514 0.74391 0.47532 0.0
C2512 C 0.01684 0.74418 0.51419 0.0
C2513 C 0.02426 0.73514 0.53481 0.0
C2514 C 0.0199 0.71372 0.54013 0.0
C2515 C 0.02724 0.70519 0.55943 0.0
C2516 C 0.03881 0.71798 0.57364 0.0
C2517 C 0.04302 0.73935 0.56859 0.0
C2518 C 0.03575 0.74794 0.54928 0.0
C2519 C 0.95526 0.81332 0.51068 0.0
C2520 C 0.96494 0.83199 0.50275 0.0
C2521 C 0.96508 0.79341 0.50779 0.0
C2522 C 0.98443 0.79186 0.49656 0.0
C2523 C 0.99359 0.81036 0.48784 0.0
C2524 C 0.98399 0.83025 0.49097 0.0
C2525 C 0.99609 0.77131 0.49531 0.0
C2526 C 0.00348 0.76217 0.5144 0.0
C2527 C 0.00172 0.76192 0.47552 0.0
C2528 C 0.99382 0.77062 0.45491 0.0
C2529 C 0.00828 0.77582 0.43853 0.0
C2530 C 0.00086 0.78415 0.41917 0.0
C2531 C 0.97899 0.78728 0.41597 0.0
C2532 C 0.96449 0.78202 0.4321 0.0
C2533 C 0.97182 0.77367 0.45148 0.0
H2534 H 0.97327 0.79375 0.40097 0.0
H2535 H 0.04448 0.71135 0.58857 0.0
H2536 H 0.58768 0.79135 0.47585 0.0
H2537 H 0.56184 0.76502 0.48931 0.0
H2538 H 0.51726 0.81582 0.50309 0.0
H2539 H 0.54281 0.84206 0.48971 0.0
H2540 H 0.51957 0.78567 0.53567 0.0
H2541 H 0.50982 0.78883 0.45969 0.0
H2542 H 0.52136 0.7876 0.42204 0.0
H2543 H 0.5426 0.72278 0.43027 0.0
H2544 H 0.53148 0.72375 0.4681 0.0
H2545 H 0.43263 0.69795 0.50884 0.0
H2546 H 0.45305 0.73029 0.5008 0.0
H2547 H 0.49767 0.71473 0.551 0.0
H2548 H 0.47723 0.68263 0.55938 0.0
H2549 H 0.49279 0.72982 0.48603 0.0
H2550 H 0.52209 0.75986 0.56886 0.0
H2551 H 0.50871 0.76271 0.60583 0.0
H2552 H 0.44413 0.76406 0.58268 0.0
H2553 H 0.45713 0.76152 0.54558 0.0
C2554 C 0.57243 0.79686 0.48189 0.0
C2555 C 0.56716 0.8187 0.48153 0.0
C2556 C 0.5577 0.78185 0.48952 0.0
C2557 C 0.53762 0.78852 0.49705 0.0
C2558 C 0.53266 0.81037 0.49735 0.0
C2559 C 0.54723 0.82531 0.48954 0.0
C2560 C 0.52139 0.77271 0.50382 0.0
C2561 C 0.51371 0.7734 0.52488 0.0
C2562 C 0.51341 0.75712 0.48953 0.0
C2563 C 0.52002 0.75644 0.46678 0.0
C2564 C 0.51712 0.77438 0.45352 0.0
C2565 C 0.52355 0.77372 0.43214 0.0
C2566 C 0.53276 0.75514 0.42378 0.0
C2567 C 0.5355 0.73717 0.43678 0.0
C2568 C 0.52912 0.73776 0.45819 0.0
C2569 C 0.44646 0.7017 0.51856 0.0
C2570 C 0.45339 0.68759 0.53464 0.0
C2571 C 0.45818 0.72013 0.51385 0.0
C2572 C 0.47693 0.72487 0.52522 0.0
C2573 C 0.48314 0.71152 0.54214 0.0
C2574 C 0.47143 0.69312 0.54688 0.0
C2575 C 0.49114 0.74244 0.51807 0.0
C2576 C 0.49854 0.74208 0.49689 0.0
C2577 C 0.49858 0.75851 0.53218 0.0
C2578 C 0.4906 0.76031 0.55444 0.0
C2579 C 0.50504 0.76086 0.57165 0.0
C2580 C 0.49752 0.76241 0.59263 0.0
C2581 C 0.47558 0.76351 0.5966 0.0
C2582 C 0.46112 0.76313 0.57959 0.0
C2583 C 0.46855 0.7616 0.55858 0.0
H2584 H 0.46979 0.76469 0.61286 0.0
H2585 H 0.53772 0.75466 0.40722 0.0
H2586 H 0.53837 0.56176 0.79195 0.0
H2587 H 0.5375 0.54191 0.7582 0.0
H2588 H 0.47047 0.5562 0.75149 0.0
H2589 H 0.47147 0.57683 0.78487 0.0
H2590 H 0.49419 0.50711 0.75918 0.0
H2591 H 0.48319 0.57119 0.71512 0.0
H2592 H 0.49347 0.60726 0.70289 0.0
H2593 H 0.55492 0.5835 0.68371 0.0
H2594 H 0.54509 0.54735 0.69616 0.0
H2595 H 0.47095 0.44004 0.67027 0.0
H2596 H 0.47238 0.46622 0.69924 0.0
H2597 H 0.53319 0.48892 0.67575 0.0
H2598 H 0.53076 0.46389 0.64579 0.0
H2599 H 0.51137 0.52113 0.68314 0.0
H2600 H 0.52512 0.45853 0.72514 0.0
H2601 H 0.51909 0.42215 0.73916 0.0
H2602 H 0.45842 0.44167 0.76455 0.0
H2603 H 0.46397 0.47811 0.75045 0.0
C2604 C 0.52375 0.56159 0.78268 0.0
C2605 C 0.50503 0.57093 0.79081 0.0
C2606 C 0.52324 0.55018 0.76351 0.0
C2607 C 0.50394 0.54767 0.75246 0.0
C2608 C 0.48556 0.55827 0.75971 0.0
C2609 C 0.48618 0.57015 0.77866 0.0
C2610 C 0.50233 0.53101 0.73584 0.0
C2611 C 0.49757 0.51012 0.74243 0.0
C2612 C 0.50764 0.53497 0.71434 0.0
C2613 C 0.51351 0.55666 0.70683 0.0
C2614 C 0.49899 0.57372 0.70855 0.0
C2615 C 0.5047 0.59416 0.70151 0.0
C2616 C 0.52486 0.59769 0.6926 0.0
C2617 C 0.53932 0.58076 0.69065 0.0
C2618 C 0.53368 0.56029 0.69768 0.0
C2619 C 0.48491 0.45019 0.67175 0.0
C2620 C 0.50089 0.44986 0.65606 0.0
C2621 C 0.48573 0.46522 0.68829 0.0
C2622 C 0.50301 0.47955 0.6899 0.0
C2623 C 0.51961 0.47822 0.67484 0.0
C2624 C 0.51839 0.46374 0.6579 0.0
C2625 C 0.50317 0.49682 0.70631 0.0
C2626 C 0.50781 0.51789 0.69979 0.0
C2627 C 0.49824 0.4929 0.72806 0.0
C2628 C 0.49487 0.47099 0.73656 0.0
C2629 C 0.51042 0.45502 0.73358 0.0
C2630 C 0.50711 0.4344 0.74157 0.0
C2631 C 0.48836 0.42959 0.75269 0.0
C2632 C 0.47292 0.44541 0.7559 0.0
C2633 C 0.47615 0.46605 0.74794 0.0
H2634 H 0.48583 0.41361 0.75885 0.0
H2635 H 0.52926 0.61352 0.68715 0.0
H2636 H 0.51667 0.9415 0.80856 0.0
H2637 H 0.51499 0.96363 0.77623 0.0
H2638 H 0.44739 0.9727 0.7858 0.0
H2639 H 0.44907 0.95113 0.81837 0.0
H2640 H 0.4623 0.96795 0.74062 0.0
H2641 H 0.47575 0.00721 0.80722 0.0
H2642 H 0.4965 0.01344 0.84016 0.0
H2643 H 0.55318 0.02364 0.80291 0.0
H2644 H 0.5328 0.01708 0.76975 0.0
H2645 H 0.43412 0.06002 0.68707 0.0
H2646 H 0.43915 0.03601 0.71741 0.0
H2647 H 0.50736 0.04499 0.71344 0.0
H2648 H 0.5024 0.06957 0.68346 0.0
H2649 H 0.49582 0.03878 0.75396 0.0
H2650 H 0.48425 0.00352 0.68777 0.0
H2651 H 0.4662 0.99556 0.65365 0.0
H2652 H 0.41003 0.97562 0.68761 0.0
H2653 H 0.42763 0.98381 0.72195 0.0
C2654 C 0.50132 0.94753 0.80329 0.0
C2655 C 0.48299 0.94472 0.81592 0.0
C2656 C 0.50042 0.96026 0.78493 0.0
C2657 C 0.48111 0.96993 0.77887 0.0
C2658 C 0.46241 0.96535 0.79028 0.0
C2659 C 0.46338 0.95304 0.80884 0.0
C2660 C 0.48074 0.98697 0.76253 0.0
C2661 C 0.4695 0.98348 0.74352 0.0
C2662 C 0.49072 0.00696 0.76617 0.0
C2663 C 0.50282 0.01142 0.78605 0.0
C2664 C 0.49267 0.01062 0.80607 0.0
C2665 C 0.50435 0.01423 0.82478 0.0
C2666 C 0.52616 0.01887 0.82364 0.0
C2667 C 0.5363 0.02 0.80377 0.0
C2668 C 0.52469 0.01635 0.78502 0.0
C2669 C 0.45014 0.05744 0.6931 0.0
C2670 C 0.46788 0.06644 0.6827 0.0
C2671 C 0.45301 0.04357 0.71032 0.0
C2672 C 0.47368 0.03814 0.71717 0.0
C2673 C 0.49129 0.04877 0.70824 0.0
C2674 C 0.48841 0.06291 0.69116 0.0
C2675 C 0.47687 0.02001 0.73212 0.0
C2676 C 0.48871 0.02325 0.75088 0.0
C2677 C 0.46782 -0.0004 0.72803 0.0
C2678 C 0.4572 0.99446 0.70743 0.0
C2679 C 0.46799 0.99758 0.68796 0.0
C2680 C 0.45785 0.99302 0.66858 0.0
C2681 C 0.43696 0.98513 0.66846 0.0
C2682 C 0.4262 0.98175 0.68773 0.0
C2683 C 0.43626 0.98634 0.70716 0.0
H2684 H 0.42913 0.9816 0.65344 0.0
H2685 H 0.53519 0.02163 0.83814 0.0
H2686 H 0.42567 0.3085 0.96249 0.0
H2687 H 0.44675 0.27628 0.96869 0.0
H2688 H 0.50274 0.30796 0.94408 0.0
H2689 H 0.48179 0.34019 0.93754 0.0
H2690 H 0.50403 0.26307 0.93869 0.0
H2691 H 0.48974 0.31592 0.99241 0.0
H2692 H 0.46732 0.33891 0.01521 0.0
H2693 H 0.43924 0.28327 0.04398 0.0
H2694 H 0.46116 0.25993 0.02094 0.0
H2695 H 0.58178 0.21312 0.00756 0.0
H2696 H 0.56034 0.23994 0.98842 0.0
H2697 H 0.5027 0.21176 0.0136 0.0
H2698 H 0.52383 0.18517 0.03266 0.0
H2699 H 0.50322 0.25515 0.01764 0.0
H2700 H 0.51684 0.20226 0.9632 0.0
H2701 H 0.53968 0.17943 0.9406 0.0
H2702 H 0.56972 0.23523 0.91419 0.0
H2703 H 0.54726 0.2584 0.93688 0.0
C2704 C 0.44225 0.30838 0.95756 0.0
C2705 C 0.45223 0.32715 0.95022 0.0
C2706 C 0.45427 0.28992 0.96111 0.0
C2707 C 0.4764 0.29006 0.95747 0.0
C2708 C 0.48572 0.30766 0.94721 0.0
C2709 C 0.47369 0.32612 0.94357 0.0
C2710 C 0.49021 0.27416 0.96819 0.0
C2711 C 0.50396 0.26137 0.95594 0.0
C2712 C 0.49012 0.2721 0.99075 0.0
C2713 C 0.47699 0.28615 0.00476 0.0
C2714 C 0.47868 0.30857 0.00346 0.0
C2715 C 0.46603 0.32168 0.01642 0.0
C2716 C 0.45184 0.31255 0.03102 0.0
C2717 C 0.45024 0.29031 0.03265 0.0
C2718 C 0.46275 0.27714 0.01961 0.0
C2719 C 0.56455 0.21275 0.00903 0.0
C2720 C 0.55446 0.19707 0.02155 0.0
C2721 C 0.55234 0.22795 0.99802 0.0
C2722 C 0.52994 0.22767 -0.00052 0.0
C2723 C 0.51995 0.21221 0.01224 0.0
C2724 C 0.53206 0.19702 0.02308 0.0
C2725 C 0.51669 0.24364 0.98814 0.0
C2726 C 0.50319 0.25669 0.00036 0.0
C2727 C 0.51711 0.24595 0.96565 0.0
C2728 C 0.53054 0.23206 0.95191 0.0
C2729 C 0.52845 0.20966 0.95271 0.0
C2730 C 0.5413 0.19665 0.93986 0.0
C2731 C 0.55619 0.20587 0.92601 0.0
C2732 C 0.55821 0.22811 0.92495 0.0
C2733 C 0.54541 0.24119 0.93779 0.0
H2734 H 0.56612 0.19577 0.91607 0.0
H2735 H 0.44211 0.32271 0.04109 0.0
loop_
_geom_bond_atom_site_label_1
_geom_bond_atom_site_label_2
_geom_bond_distance
_geom_bond_site_symmetry_2
_ccdc_geom_bond_type
Zn0 O3 2.031 . S
Zn0 O5 2.049 . S
Zn0 O10 2.067 1_455 S
Zn1 O2 1.962 . S
Zn1 O4 1.986 1_455 S
Zn1 O6 1.996 . S
Zn1 O9 1.943 1_455 S
O2 Zn1 1.962 . S
O2 C7 1.254 . S
O3 Zn0 2.031 . S
O3 C7 1.269 . S
O4 Zn1 1.986 1_655 S
O4 C11 1.262 . S
O5 Zn0 2.049 . S
O5 C13 1.260 . S
O6 Zn1 1.996 . S
O6 C13 1.257 . S
C7 O2 1.254 . S
C7 O3 1.269 . S
C8 O9 1.249 . S
C8 O10 1.270 . S
O9 Zn1 1.943 1_655 S
O9 C8 1.249 . S
O10 Zn0 2.067 1_655 S
O10 C8 1.270 . S
C11 O4 1.262 . S
C11 O12 1.232 . S
O12 C11 1.232 . S
C13 O5 1.260 . S
C13 O6 1.257 . S
Zn14 O17 2.031 . S
Zn14 O19 2.049 . S
Zn14 O24 2.067 1_655 S
Zn15 O16 1.962 . S
Zn15 O18 1.986 1_655 S
Zn15 O20 1.996 . S
Zn15 O23 1.943 1_655 S
O16 Zn15 1.962 . S
O16 C21 1.254 . S
O17 Zn14 2.031 . S
O17 C21 1.269 . S
O18 Zn15 1.986 1_455 S
O18 C25 1.262 . S
O19 Zn14 2.049 . S
O19 C27 1.260 . S
O20 Zn15 1.996 . S
O20 C27 1.257 . S
C21 O16 1.254 . S
C21 O17 1.269 . S
C22 O23 1.249 . S
C22 O24 1.270 . S
O23 Zn15 1.943 1_455 S
O23 C22 1.249 . S
O24 Zn14 2.067 1_455 S
O24 C22 1.270 . S
C25 O18 1.262 . S
C25 O26 1.232 . S
O26 C25 1.232 . S
C27 O19 1.260 . S
C27 O20 1.257 . S
Zn28 O31 2.031 . S
Zn28 O33 2.049 . S
Zn28 O38 2.067 1_455 S
Zn29 O30 1.962 . S
Zn29 O32 1.986 1_455 S
Zn29 O34 1.996 . S
Zn29 O37 1.943 1_455 S
O30 Zn29 1.962 . S
O30 C35 1.254 . S
O31 Zn28 2.031 . S
O31 C35 1.269 . S
O32 Zn29 1.986 1_655 S
O32 C39 1.262 . S
O33 Zn28 2.049 . S
O33 C41 1.260 . S
O34 Zn29 1.996 . S
O34 C41 1.257 . S
C35 O30 1.254 . S
C35 O31 1.269 . S
C36 O37 1.249 . S
C36 O38 1.270 . S
O37 Zn29 1.943 1_655 S
O37 C36 1.249 . S
O38 Zn28 2.067 1_655 S
O38 C36 1.270 . S
C39 O32 1.262 . S
C39 O40 1.232 . S
O40 C39 1.232 . S
C41 O33 1.260 . S
C41 O34 1.257 . S
Zn42 O45 2.031 . S
Zn42 O47 2.049 . S
Zn42 O52 2.067 1_655 S
Zn43 O44 1.962 . S
Zn43 O46 1.986 1_655 S
Zn43 O48 1.996 . S
Zn43 O51 1.943 1_655 S
O44 Zn43 1.962 . S
O44 C49 1.254 . S
O45 Zn42 2.031 . S
O45 C49 1.269 . S
O46 Zn43 1.986 1_455 S
O46 C53 1.262 . S
O47 Zn42 2.049 . S
O47 C55 1.260 . S
O48 Zn43 1.996 . S
O48 C55 1.257 . S
C49 O44 1.254 . S
C49 O45 1.269 . S
C50 O51 1.249 . S
C50 O52 1.270 . S
O51 Zn43 1.943 1_455 S
O51 C50 1.249 . S
O52 Zn42 2.067 1_455 S
O52 C50 1.270 . S
C53 O46 1.262 . S
C53 O54 1.232 . S
O54 C53 1.232 . S
C55 O47 1.260 . S
C55 O48 1.257 . S
Zn56 O59 2.031 . S
Zn56 O61 2.049 . S
Zn56 O66 2.067 1_545 S
Zn57 O58 1.962 . S
Zn57 O60 1.986 1_545 S
Zn57 O62 1.996 . S
Zn57 O65 1.943 1_545 S
O58 Zn57 1.962 . S
O58 C63 1.254 . S
O59 Zn56 2.031 . S
O59 C63 1.269 . S
O60 Zn57 1.986 1_565 S
O60 C67 1.262 . S
O61 Zn56 2.049 . S
O61 C69 1.260 . S
O62 Zn57 1.996 . S
O62 C69 1.257 . S
C63 O58 1.254 . S
C63 O59 1.269 . S
C64 O65 1.249 . S
C64 O66 1.270 . S
O65 Zn57 1.943 1_565 S
O65 C64 1.249 . S
O66 Zn56 2.067 1_565 S
O66 C64 1.270 . S
C67 O60 1.262 . S
C67 O68 1.232 . S
O68 C67 1.232 . S
C69 O61 1.260 . S
C69 O62 1.257 . S
Zn70 O73 2.031 . S
Zn70 O75 2.049 . S
Zn70 O80 2.067 . S
Zn71 O72 1.962 . S
Zn71 O74 1.986 . S
Zn71 O76 1.996 . S
Zn71 O79 1.943 . S
O72 Zn71 1.962 . S
O72 C77 1.254 . S
O73 Zn70 2.031 . S
O73 C77 1.269 . S
O74 Zn71 1.986 . S
O74 C81 1.262 . S
O75 Zn70 2.049 . S
O75 C83 1.260 . S
O76 Zn71 1.996 . S
O76 C83 1.257 . S
C77 O72 1.254 . S
C77 O73 1.269 . S
C78 O79 1.249 . S
C78 O80 1.270 . S
O79 Zn71 1.943 . S
O79 C78 1.249 . S
O80 Zn70 2.067 . S
O80 C78 1.270 . S
C81 O74 1.262 . S
C81 O82 1.232 . S
O82 C81 1.232 . S
C83 O75 1.260 . S
C83 O76 1.257 . S
Zn84 O87 2.031 . S
Zn84 O89 2.049 . S
Zn84 O94 2.067 1_565 S
Zn85 O86 1.962 . S
Zn85 O88 1.986 1_565 S
Zn85 O90 1.996 . S
Zn85 O93 1.943 1_565 S
O86 Zn85 1.962 . S
O86 C91 1.254 . S
O87 Zn84 2.031 . S
O87 C91 1.269 . S
O88 Zn85 1.986 1_545 S
O88 C95 1.262 . S
O89 Zn84 2.049 . S
O89 C97 1.260 . S
O90 Zn85 1.996 . S
O90 C97 1.257 . S
C91 O86 1.254 . S
C91 O87 1.269 . S
C92 O93 1.249 . S
C92 O94 1.270 . S
O93 Zn85 1.943 1_545 S
O93 C92 1.249 . S
O94 Zn84 2.067 1_545 S
O94 C92 1.270 . S
C95 O88 1.262 . S
C95 O96 1.232 . S
O96 C95 1.232 . S
C97 O89 1.260 . S
C97 O90 1.257 . S
Zn98 O101 2.031 . S
Zn98 O103 2.049 . S
Zn98 O108 2.067 . S
Zn99 O100 1.962 . S
Zn99 O102 1.986 . S
Zn99 O104 1.996 . S
Zn99 O107 1.943 . S
O100 Zn99 1.962 . S
O100 C105 1.254 . S
O101 Zn98 2.031 . S
O101 C105 1.269 . S
O102 Zn99 1.986 . S
O102 C109 1.262 . S
O103 Zn98 2.049 . S
O103 C111 1.260 . S
O104 Zn99 1.996 . S
O104 C111 1.257 . S
C105 O100 1.254 . S
C105 O101 1.269 . S
C106 O107 1.249 . S
C106 O108 1.270 . S
O107 Zn99 1.943 . S
O107 C106 1.249 . S
O108 Zn98 2.067 . S
O108 C106 1.270 . S
C109 O102 1.262 . S
C109 O110 1.232 . S
O110 C109 1.232 . S
C111 O103 1.260 . S
C111 O104 1.257 . S
Zn112 O115 2.031 . S
Zn112 O117 2.049 . S
Zn112 O122 2.067 1_554 S
Zn113 O114 1.962 . S
Zn113 O116 1.986 1_554 S
Zn113 O118 1.996 . S
Zn113 O121 1.943 1_554 S
O114 Zn113 1.962 . S
O114 C119 1.254 . S
O115 Zn112 2.031 . S
O115 C119 1.269 . S
O116 Zn113 1.986 1_556 S
O116 C123 1.262 . S
O117 Zn112 2.049 . S
O117 C125 1.260 . S
O118 Zn113 1.996 . S
O118 C125 1.257 . S
C119 O114 1.254 . S
C119 O115 1.269 . S
C120 O121 1.249 . S
C120 O122 1.270 . S
O121 Zn113 1.943 1_556 S
O121 C120 1.249 . S
O122 Zn112 2.067 1_556 S
O122 C120 1.270 . S
C123 O116 1.262 . S
C123 O124 1.232 . S
O124 C123 1.232 . S
C125 O117 1.260 . S
C125 O118 1.257 . S
Zn126 O129 2.031 . S
Zn126 O131 2.049 . S
Zn126 O136 2.067 . S
Zn127 O128 1.962 . S
Zn127 O130 1.986 . S
Zn127 O132 1.996 . S
Zn127 O135 1.943 . S
O128 Zn127 1.962 . S
O128 C133 1.254 . S
O129 Zn126 2.031 . S
O129 C133 1.269 . S
O130 Zn127 1.986 . S
O130 C137 1.262 . S
O131 Zn126 2.049 . S
O131 C139 1.260 . S
O132 Zn127 1.996 . S
O132 C139 1.257 . S
C133 O128 1.254 . S
C133 O129 1.269 . S
C134 O135 1.249 . S
C134 O136 1.270 . S
O135 Zn127 1.943 . S
O135 C134 1.249 . S
O136 Zn126 2.067 . S
O136 C134 1.270 . S
C137 O130 1.262 . S
C137 O138 1.232 . S
O138 C137 1.232 . S
C139 O131 1.260 . S
C139 O132 1.257 . S
Zn140 O143 2.031 . S
Zn140 O145 2.049 . S
Zn140 O150 2.067 . S
Zn141 O142 1.962 . S
Zn141 O144 1.986 . S
Zn141 O146 1.996 . S
Zn141 O149 1.943 . S
O142 Zn141 1.962 . S
O142 C147 1.254 . S
O143 Zn140 2.031 . S
O143 C147 1.269 . S
O144 Zn141 1.986 . S
O144 C151 1.262 . S
O145 Zn140 2.049 . S
O145 C153 1.260 . S
O146 Zn141 1.996 . S
O146 C153 1.257 . S
C147 O142 1.254 . S
C147 O143 1.269 . S
C148 O149 1.249 . S
C148 O150 1.270 . S
O149 Zn141 1.943 . S
O149 C148 1.249 . S
O150 Zn140 2.067 . S
O150 C148 1.270 . S
C151 O144 1.262 . S
C151 O152 1.232 . S
O152 C151 1.232 . S
C153 O145 1.260 . S
C153 O146 1.257 . S
Zn154 O157 2.031 . S
Zn154 O159 2.049 . S
Zn154 O164 2.067 . S
Zn155 O156 1.962 . S
Zn155 O158 1.986 . S
Zn155 O160 1.996 . S
Zn155 O163 1.943 . S
O156 Zn155 1.962 . S
O156 C161 1.254 . S
O157 Zn154 2.031 . S
O157 C161 1.269 . S
O158 Zn155 1.986 . S
O158 C165 1.262 . S
O159 Zn154 2.049 . S
O159 C167 1.260 . S
O160 Zn155 1.996 . S
O160 C167 1.257 . S
C161 O156 1.254 . S
C161 O157 1.269 . S
C162 O163 1.249 . S
C162 O164 1.270 . S
O163 Zn155 1.943 . S
O163 C162 1.249 . S
O164 Zn154 2.067 . S
O164 C162 1.270 . S
C165 O158 1.262 . S
C165 O166 1.232 . S
O166 C165 1.232 . S
C167 O159 1.260 . S
C167 O160 1.257 . S
Zn168 O171 2.031 . S
Zn168 O173 2.049 . S
Zn168 O178 2.067 . S
Zn169 O170 1.962 . S
Zn169 O172 1.986 . S
Zn169 O174 1.996 . S
Zn169 O177 1.943 . S
O170 Zn169 1.962 . S
O170 C175 1.254 . S
O171 Zn168 2.031 . S
O171 C175 1.269 . S
O172 Zn169 1.986 . S
O172 C179 1.262 . S
O173 Zn168 2.049 . S
O173 C181 1.260 . S
O174 Zn169 1.996 . S
O174 C181 1.257 . S
C175 O170 1.254 . S
C175 O171 1.269 . S
C176 O177 1.249 . S
C176 O178 1.270 . S
O177 Zn169 1.943 . S
O177 C176 1.249 . S
O178 Zn168 2.067 . S
O178 C176 1.270 . S
C179 O172 1.262 . S
C179 O180 1.232 . S
O180 C179 1.232 . S
C181 O173 1.260 . S
C181 O174 1.257 . S
Zn182 O185 2.031 . S
Zn182 O187 2.049 . S
Zn182 O192 2.067 . S
Zn183 O184 1.962 . S
Zn183 O186 1.986 . S
Zn183 O188 1.996 . S
Zn183 O191 1.943 . S
O184 Zn183 1.962 . S
O184 C189 1.254 . S
O185 Zn182 2.031 . S
O185 C189 1.269 . S
O186 Zn183 1.986 . S
O186 C193 1.262 . S
O187 Zn182 2.049 . S
O187 C195 1.260 . S
O188 Zn183 1.996 . S
O188 C195 1.257 . S
C189 O184 1.254 . S
C189 O185 1.269 . S
C190 O191 1.249 . S
C190 O192 1.270 . S
O191 Zn183 1.943 . S
O191 C190 1.249 . S
O192 Zn182 2.067 . S
O192 C190 1.270 . S
C193 O186 1.262 . S
C193 O194 1.232 . S
O194 C193 1.232 . S
C195 O187 1.260 . S
C195 O188 1.257 . S
Zn196 O199 2.031 . S
Zn196 O201 2.049 . S
Zn196 O206 2.067 . S
Zn197 O198 1.962 . S
Zn197 O200 1.986 . S
Zn197 O202 1.996 . S
Zn197 O205 1.943 . S
O198 Zn197 1.962 . S
O198 C203 1.254 . S
O199 Zn196 2.031 . S
O199 C203 1.269 . S
O200 Zn197 1.986 . S
O200 C207 1.262 . S
O201 Zn196 2.049 . S
O201 C209 1.260 . S
O202 Zn197 1.996 . S
O202 C209 1.257 . S
C203 O198 1.254 . S
C203 O199 1.269 . S
C204 O205 1.249 . S
C204 O206 1.270 . S
O205 Zn197 1.943 . S
O205 C204 1.249 . S
O206 Zn196 2.067 . S
O206 C204 1.270 . S
C207 O200 1.262 . S
C207 O208 1.232 . S
O208 C207 1.232 . S
C209 O201 1.260 . S
C209 O202 1.257 . S
Zn210 O213 2.031 . S
Zn210 O215 2.049 . S
Zn210 O220 2.067 . S
Zn211 O212 1.962 . S
Zn211 O214 1.986 . S
Zn211 O216 1.996 . S
Zn211 O219 1.943 . S
O212 Zn211 1.962 . S
O212 C217 1.254 . S
O213 Zn210 2.031 . S
O213 C217 1.269 . S
O214 Zn211 1.986 . S
O214 C221 1.262 . S
O215 Zn210 2.049 . S
O215 C223 1.260 . S
O216 Zn211 1.996 . S
O216 C223 1.257 . S
C217 O212 1.254 . S
C217 O213 1.269 . S
C218 O219 1.249 . S
C218 O220 1.270 . S
O219 Zn211 1.943 . S
O219 C218 1.249 . S
O220 Zn210 2.067 . S
O220 C218 1.270 . S
C221 O214 1.262 . S
C221 O222 1.232 . S
O222 C221 1.232 . S
C223 O215 1.260 . S
C223 O216 1.257 . S
Zn224 O227 2.031 . S
Zn224 O229 2.049 . S
Zn224 O234 2.067 . S
Zn225 O226 1.962 . S
Zn225 O228 1.986 . S
Zn225 O230 1.996 . S
Zn225 O233 1.943 . S
O226 Zn225 1.962 . S
O226 C231 1.254 . S
O227 Zn224 2.031 . S
O227 C231 1.269 . S
O228 Zn225 1.986 . S
O228 C235 1.262 . S
O229 Zn224 2.049 . S
O229 C237 1.260 . S
O230 Zn225 1.996 . S
O230 C237 1.257 . S
C231 O226 1.254 . S
C231 O227 1.269 . S
C232 O233 1.249 . S
C232 O234 1.270 . S
O233 Zn225 1.943 . S
O233 C232 1.249 . S
O234 Zn224 2.067 . S
O234 C232 1.270 . S
C235 O228 1.262 . S
C235 O236 1.232 . S
O236 C235 1.232 . S
C237 O229 1.260 . S
C237 O230 1.257 . S
Zn238 O241 2.031 . S
Zn238 O243 2.049 . S
Zn238 O248 2.067 1_565 S
Zn239 O240 1.962 . S
Zn239 O242 1.986 1_565 S
Zn239 O244 1.996 . S
Zn239 O247 1.943 1_565 S
O240 Zn239 1.962 . S
O240 C245 1.254 . S
O241 Zn238 2.031 . S
O241 C245 1.269 . S
O242 Zn239 1.986 1_545 S
O242 C249 1.262 . S
O243 Zn238 2.049 . S
O243 C251 1.260 . S
O244 Zn239 1.996 . S
O244 C251 1.257 . S
C245 O240 1.254 . S
C245 O241 1.269 . S
C246 O247 1.249 . S
C246 O248 1.270 . S
O247 Zn239 1.943 1_545 S
O247 C246 1.249 . S
O248 Zn238 2.067 1_545 S
O248 C246 1.270 . S
C249 O242 1.262 . S
C249 O250 1.232 . S
O250 C249 1.232 . S
C251 O243 1.260 . S
C251 O244 1.257 . S
Zn252 O255 2.031 . S
Zn252 O257 2.049 . S
Zn252 O262 2.067 . S
Zn253 O254 1.962 . S
Zn253 O256 1.986 . S
Zn253 O258 1.996 . S
Zn253 O261 1.943 . S
O254 Zn253 1.962 . S
O254 C259 1.254 . S
O255 Zn252 2.031 . S
O255 C259 1.269 . S
O256 Zn253 1.986 . S
O256 C263 1.262 . S
O257 Zn252 2.049 . S
O257 C265 1.260 . S
O258 Zn253 1.996 . S
O258 C265 1.257 . S
C259 O254 1.254 . S
C259 O255 1.269 . S
C260 O261 1.249 . S
C260 O262 1.270 . S
O261 Zn253 1.943 . S
O261 C260 1.249 . S
O262 Zn252 2.067 . S
O262 C260 1.270 . S
C263 O256 1.262 . S
C263 O264 1.232 . S
O264 C263 1.232 . S
C265 O257 1.260 . S
C265 O258 1.257 . S
Zn266 O269 2.031 . S
Zn266 O271 2.049 . S
Zn266 O276 2.067 1_545 S
Zn267 O268 1.962 . S
Zn267 O270 1.986 1_545 S
Zn267 O272 1.996 . S
Zn267 O275 1.943 1_545 S
O268 Zn267 1.962 . S
O268 C273 1.254 . S
O269 Zn266 2.031 . S
O269 C273 1.269 . S
O270 Zn267 1.986 1_565 S
O270 C277 1.262 . S
O271 Zn266 2.049 . S
O271 C279 1.260 . S
O272 Zn267 1.996 . S
O272 C279 1.257 . S
C273 O268 1.254 . S
C273 O269 1.269 . S
C274 O275 1.249 . S
C274 O276 1.270 . S
O275 Zn267 1.943 1_565 S
O275 C274 1.249 . S
O276 Zn266 2.067 1_565 S
O276 C274 1.270 . S
C277 O270 1.262 . S
C277 O278 1.232 . S
O278 C277 1.232 . S
C279 O271 1.260 . S
C279 O272 1.257 . S
Zn280 O283 2.031 . S
Zn280 O285 2.049 . S
Zn280 O290 2.067 . S
Zn281 O282 1.962 . S
Zn281 O284 1.986 . S
Zn281 O286 1.996 . S
Zn281 O289 1.943 . S
O282 Zn281 1.962 . S
O282 C287 1.254 . S
O283 Zn280 2.031 . S
O283 C287 1.269 . S
O284 Zn281 1.986 . S
O284 C291 1.262 . S
O285 Zn280 2.049 . S
O285 C293 1.260 . S
O286 Zn281 1.996 . S
O286 C293 1.257 . S
C287 O282 1.254 . S
C287 O283 1.269 . S
C288 O289 1.249 . S
C288 O290 1.270 . S
O289 Zn281 1.943 . S
O289 C288 1.249 . S
O290 Zn280 2.067 . S
O290 C288 1.270 . S
C291 O284 1.262 . S
C291 O292 1.232 . S
O292 C291 1.232 . S
C293 O285 1.260 . S
C293 O286 1.257 . S
Zn294 O297 2.031 . S
Zn294 O299 2.049 . S
Zn294 O304 2.067 1_556 S
Zn295 O296 1.962 . S
Zn295 O298 1.986 1_556 S
Zn295 O300 1.996 . S
Zn295 O303 1.943 1_556 S
O296 Zn295 1.962 . S
O296 C301 1.254 . S
O297 Zn294 2.031 . S
O297 C301 1.269 . S
O298 Zn295 1.986 1_554 S
O298 C305 1.262 . S
O299 Zn294 2.049 . S
O299 C307 1.260 . S
O300 Zn295 1.996 . S
O300 C307 1.257 . S
C301 O296 1.254 . S
C301 O297 1.269 . S
C302 O303 1.249 . S
C302 O304 1.270 . S
O303 Zn295 1.943 1_554 S
O303 C302 1.249 . S
O304 Zn294 2.067 1_554 S
O304 C302 1.270 . S
C305 O298 1.262 . S
C305 O306 1.232 . S
O306 C305 1.232 . S
C307 O299 1.260 . S
C307 O300 1.257 . S
Zn308 O311 2.031 . S
Zn308 O313 2.049 . S
Zn308 O318 2.067 1_556 S
Zn309 O310 1.962 . S
Zn309 O312 1.986 1_556 S
Zn309 O314 1.996 . S
Zn309 O317 1.943 1_556 S
O310 Zn309 1.962 . S
O310 C315 1.254 . S
O311 Zn308 2.031 . S
O311 C315 1.269 . S
O312 Zn309 1.986 1_554 S
O312 C319 1.262 . S
O313 Zn308 2.049 . S
O313 C321 1.260 . S
O314 Zn309 1.996 . S
O314 C321 1.257 . S
C315 O310 1.254 . S
C315 O311 1.269 . S
C316 O317 1.249 . S
C316 O318 1.270 . S
O317 Zn309 1.943 1_554 S
O317 C316 1.249 . S
O318 Zn308 2.067 1_554 S
O318 C316 1.270 . S
C319 O312 1.262 . S
C319 O320 1.232 . S
O320 C319 1.232 . S
C321 O313 1.260 . S
C321 O314 1.257 . S
Zn322 O325 2.031 . S
Zn322 O327 2.049 . S
Zn322 O332 2.067 1_554 S
Zn323 O324 1.962 . S
Zn323 O326 1.986 1_554 S
Zn323 O328 1.996 . S
Zn323 O331 1.943 1_554 S
O324 Zn323 1.962 . S
O324 C329 1.254 . S
O325 Zn322 2.031 . S
O325 C329 1.269 . S
O326 Zn323 1.986 1_556 S
O326 C333 1.262 . S
O327 Zn322 2.049 . S
O327 C335 1.260 . S
O328 Zn323 1.996 . S
O328 C335 1.257 . S
C329 O324 1.254 . S
C329 O325 1.269 . S
C330 O331 1.249 . S
C330 O332 1.270 . S
O331 Zn323 1.943 1_556 S
O331 C330 1.249 . S
O332 Zn322 2.067 1_556 S
O332 C330 1.270 . S
C333 O326 1.262 . S
C333 O334 1.232 . S
O334 C333 1.232 . S
C335 O327 1.260 . S
C335 O328 1.257 . S
H336 C354 0.951 . S
H337 C356 0.951 . S
H338 C358 0.950 . S
H339 C359 0.950 . S
H340 C361 0.950 . S
H341 C364 0.950 . S
H342 C365 0.950 . S
H343 C367 0.950 . S
H344 C368 0.950 . S
H345 C369 0.951 . S
H346 C371 0.951 . S
H347 C373 0.950 . S
H348 C374 0.950 . S
H349 C376 0.950 . S
H350 C379 0.950 . S
H351 C380 0.926 1_655 S
H352 C382 0.950 . S
H353 C383 0.950 . S
C354 H336 0.951 . S
C354 C355 1.366 . S
C354 C356 1.388 . S
C355 C354 1.366 . S
C355 C359 1.385 . S
C356 H337 0.951 . S
C356 C354 1.388 . S
C356 C357 1.366 . S
C357 C356 1.366 . S
C357 C358 1.414 . S
C357 C360 1.499 . S
C358 H338 0.950 . S
C358 C357 1.414 . S
C358 C359 1.374 . S
C359 H339 0.950 . S
C359 C355 1.385 . S
C359 C358 1.374 . S
C360 C357 1.499 . S
C360 C361 1.373 . S
C360 C362 1.389 . S
C361 H340 0.950 . S
C361 C360 1.373 . S
C361 C377 1.377 . S
C362 C360 1.389 . S
C362 C363 1.524 . S
C362 C376 1.377 . S
C363 C362 1.524 . S
C363 C364 1.397 . S
C363 C368 1.363 . S
C364 H341 0.950 . S
C364 C363 1.397 . S
C364 C365 1.334 . S
C365 H342 0.950 . S
C365 C364 1.334 . S
C365 C366 1.287 . S
C366 C365 1.287 . S
C366 C367 1.524 1_545 S
C366 H385 0.913 1_545 S
C367 H343 0.950 . S
C367 C366 1.524 1_565 S
C367 C368 1.415 1_565 S
C368 H344 0.950 . S
C368 C363 1.363 . S
C368 C367 1.415 1_545 S
C369 H345 0.951 . S
C369 C370 1.366 . S
C369 C371 1.388 . S
C370 C369 1.366 . S
C370 C374 1.385 . S
C371 H346 0.951 . S
C371 C369 1.388 . S
C371 C372 1.366 . S
C372 C371 1.366 . S
C372 C373 1.414 . S
C372 C375 1.499 . S
C373 H347 0.950 . S
C373 C372 1.414 . S
C373 C374 1.374 . S
C374 H348 0.950 . S
C374 C370 1.385 . S
C374 C373 1.374 . S
C375 C372 1.499 . S
C375 C376 1.373 . S
C375 C377 1.389 . S
C376 H349 0.950 . S
C376 C362 1.377 . S
C376 C375 1.373 . S
C377 C361 1.377 . S
C377 C375 1.389 . S
C377 C378 1.524 . S
C378 C377 1.524 . S
C378 C379 1.397 . S
C378 C383 1.363 . S
C379 H350 0.950 . S
C379 C378 1.397 . S
C379 C380 1.357 . S
C380 H351 0.926 1_455 S
C380 C379 1.357 . S
C380 C381 1.289 . S
C381 C380 1.289 . S
C381 C382 1.524 . S
C381 H384 0.999 1_455 S
C382 H352 0.950 . S
C382 C381 1.524 . S
C382 C383 1.415 . S
C383 H353 0.950 . S
C383 C378 1.363 . S
C383 C382 1.415 . S
H384 C381 0.999 1_655 S
H385 C366 0.913 1_565 S
H386 C404 0.951 . S
H387 C406 0.951 . S
H388 C408 0.950 . S
H389 C409 0.950 . S
H390 C411 0.950 . S
H391 C414 0.950 . S
H392 C415 0.950 . S
H393 C417 0.950 . S
H394 C418 0.950 . S
H395 C419 0.951 . S
H396 C421 0.951 . S
H397 C423 0.950 . S
H398 C424 0.950 . S
H399 C426 0.950 . S
H400 C429 0.950 . S
H401 C430 0.950 . S
H402 C432 0.950 . S
H403 C433 0.950 . S
C404 H386 0.951 . S
C404 C405 1.366 . S
C404 C406 1.388 . S
C405 C404 1.366 . S
C405 C409 1.385 . S
C406 H387 0.951 . S
C406 C404 1.388 . S
C406 C407 1.366 . S
C407 C406 1.366 . S
C407 C408 1.414 . S
C407 C410 1.499 . S
C408 H388 0.950 . S
C408 C407 1.414 . S
C408 C409 1.374 . S
C409 H389 0.950 . S
C409 C405 1.385 . S
C409 C408 1.374 . S
C410 C407 1.499 . S
C410 C411 1.373 . S
C410 C412 1.389 . S
C411 H390 0.950 . S
C411 C410 1.373 . S
C411 C427 1.377 . S
C412 C410 1.389 . S
C412 C413 1.524 . S
C412 C426 1.377 . S
C413 C412 1.524 . S
C413 C414 1.397 . S
C413 C418 1.363 . S
C414 H391 0.950 . S
C414 C413 1.397 . S
C414 C415 1.334 . S
C415 H392 0.950 . S
C415 C414 1.334 . S
C415 C416 1.287 . S
C416 C415 1.287 . S
C416 C417 1.524 . S
C416 H435 0.913 . S
C417 H393 0.950 . S
C417 C416 1.524 . S
C417 C418 1.415 . S
C418 H394 0.950 . S
C418 C413 1.363 . S
C418 C417 1.415 . S
C419 H395 0.951 . S
C419 C420 1.366 . S
C419 C421 1.388 . S
C420 C419 1.366 . S
C420 C424 1.385 . S
C421 H396 0.951 . S
C421 C419 1.388 . S
C421 C422 1.366 . S
C422 C421 1.366 . S
C422 C423 1.414 . S
C422 C425 1.499 . S
C423 H397 0.950 . S
C423 C422 1.414 . S
C423 C424 1.374 . S
C424 H398 0.950 . S
C424 C420 1.385 . S
C424 C423 1.374 . S
C425 C422 1.499 . S
C425 C426 1.373 . S
C425 C427 1.389 . S
C426 H399 0.950 . S
C426 C412 1.377 . S
C426 C425 1.373 . S
C427 C411 1.377 . S
C427 C425 1.389 . S
C427 C428 1.524 . S
C428 C427 1.524 . S
C428 C429 1.397 . S
C428 C433 1.363 . S
C429 H400 0.950 . S
C429 C428 1.397 . S
C429 C430 1.334 . S
C430 H401 0.950 . S
C430 C429 1.334 . S
C430 C431 1.287 . S
C431 C430 1.287 . S
C431 C432 1.524 . S
C431 H434 0.999 . S
C432 H402 0.950 . S
C432 C431 1.524 . S
C432 C433 1.415 . S
C433 H403 0.950 . S
C433 C428 1.363 . S
C433 C432 1.415 . S
H434 C431 0.999 . S
H435 C416 0.913 . S
H436 C454 0.951 . S
H437 C456 0.951 . S
H438 C458 0.950 . S
H439 C459 0.950 . S
H440 C461 0.950 . S
H441 C464 0.950 . S
H442 C465 0.950 . S
H443 C467 0.950 . S
H444 C468 0.950 . S
H445 C469 0.951 . S
H446 C471 0.951 . S
H447 C473 0.950 . S
H448 C474 0.950 . S
H449 C476 0.950 . S
H450 C479 0.950 . S
H451 C480 0.950 . S
H452 C482 0.950 . S
H453 C483 0.950 . S
C454 H436 0.951 . S
C454 C455 1.366 . S
C454 C456 1.388 . S
C455 C454 1.366 . S
C455 C459 1.385 . S
C456 H437 0.951 . S
C456 C454 1.388 . S
C456 C457 1.366 . S
C457 C456 1.366 . S
C457 C458 1.414 . S
C457 C460 1.499 . S
C458 H438 0.950 . S
C458 C457 1.414 . S
C458 C459 1.374 . S
C459 H439 0.950 . S
C459 C455 1.385 . S
C459 C458 1.374 . S
C460 C457 1.499 . S
C460 C461 1.373 . S
C460 C462 1.389 . S
C461 H440 0.950 . S
C461 C460 1.373 . S
C461 C477 1.377 . S
C462 C460 1.389 . S
C462 C463 1.524 . S
C462 C476 1.377 1_554 S
C463 C462 1.524 . S
C463 C464 1.397 . S
C463 C468 1.363 . S
C464 H441 0.950 . S
C464 C463 1.397 . S
C464 C465 1.334 1_455 S
C465 H442 0.950 . S
C465 C464 1.334 1_655 S
C465 C466 1.287 . S
C466 C465 1.287 . S
C466 C467 1.524 . S
C466 H485 0.913 . S
C467 H443 0.950 . S
C467 C466 1.524 . S
C467 C468 1.415 1_655 S
C468 H444 0.950 . S
C468 C463 1.363 . S
C468 C467 1.415 1_455 S
C469 H445 0.951 . S
C469 C470 1.366 . S
C469 C471 1.388 . S
C470 C469 1.366 . S
C470 C474 1.385 . S
C471 H446 0.951 . S
C471 C469 1.388 . S
C471 C472 1.366 . S
C472 C471 1.366 . S
C472 C473 1.414 . S
C472 C475 1.499 . S
C473 H447 0.950 . S
C473 C472 1.414 . S
C473 C474 1.374 . S
C474 H448 0.950 . S
C474 C470 1.385 . S
C474 C473 1.374 . S
C475 C472 1.499 . S
C475 C476 1.373 . S
C475 C477 1.389 1_556 S
C476 H449 0.950 . S
C476 C462 1.377 1_556 S
C476 C475 1.373 . S
C477 C461 1.377 . S
C477 C475 1.389 1_554 S
C477 C478 1.524 . S
C478 C477 1.524 . S
C478 C479 1.397 . S
C478 C483 1.363 . S
C479 H450 0.950 . S
C479 C478 1.397 . S
C479 C480 1.334 . S
C480 H451 0.950 . S
C480 C479 1.334 . S
C480 C481 1.287 . S
C481 C480 1.287 . S
C481 C482 1.524 . S
C481 H484 0.999 . S
C482 H452 0.950 . S
C482 C481 1.524 . S
C482 C483 1.415 . S
C483 H453 0.950 . S
C483 C478 1.363 . S
C483 C482 1.415 . S
H484 C481 0.999 . S
H485 C466 0.913 . S
H486 C504 0.951 . S
H487 C506 0.951 . S
H488 C508 0.950 . S
H489 C509 0.950 . S
H490 C511 0.950 . S
H491 C514 0.950 . S
H492 C515 0.950 . S
H493 C517 0.950 . S
H494 C518 0.950 . S
H495 C519 0.951 . S
H496 C521 0.951 . S
H497 C523 0.950 . S
H498 C524 0.950 . S
H499 C526 0.950 1_556 S
H500 C529 0.950 . S
H501 C530 0.950 . S
H502 C532 0.956 . S
H503 C533 0.950 . S
C504 H486 0.951 . S
C504 C505 1.366 . S
C504 C506 1.388 . S
C505 C504 1.366 . S
C505 C509 1.385 . S
C506 H487 0.951 . S
C506 C504 1.388 . S
C506 C507 1.366 . S
C507 C506 1.366 . S
C507 C508 1.414 . S
C507 C510 1.499 . S
C508 H488 0.950 . S
C508 C507 1.414 . S
C508 C509 1.374 . S
C509 H489 0.950 . S
C509 C505 1.385 . S
C509 C508 1.374 . S
C510 C507 1.499 . S
C510 C511 1.373 . S
C510 C512 1.389 . S
C511 H490 0.950 . S
C511 C510 1.373 . S
C511 C527 1.377 . S
C512 C510 1.389 . S
C512 C513 1.524 . S
C512 C526 1.377 . S
C513 C512 1.524 . S
C513 C514 1.397 . S
C513 C518 1.363 . S
C514 H491 0.950 . S
C514 C513 1.397 . S
C514 C515 1.334 . S
C515 H492 0.950 . S
C515 C514 1.334 . S
C515 C516 1.287 . S
C516 C515 1.287 . S
C516 C517 1.524 . S
C516 H535 0.913 . S
C517 H493 0.950 . S
C517 C516 1.524 . S
C517 C518 1.415 . S
C518 H494 0.950 . S
C518 C513 1.363 . S
C518 C517 1.415 . S
C519 H495 0.951 . S
C519 C520 1.366 . S
C519 C521 1.388 . S
C520 C519 1.366 . S
C520 C524 1.385 . S
C521 H496 0.951 . S
C521 C519 1.388 . S
C521 C522 1.366 . S
C522 C521 1.366 . S
C522 C523 1.414 . S
C522 C525 1.499 . S
C523 H497 0.950 . S
C523 C522 1.414 . S
C523 C524 1.374 . S
C524 H498 0.950 . S
C524 C520 1.385 . S
C524 C523 1.374 . S
C525 C522 1.499 . S
C525 C526 1.373 1_556 S
C525 C527 1.389 1_556 S
C526 H499 0.950 1_554 S
C526 C512 1.377 . S
C526 C525 1.373 1_554 S
C527 C511 1.377 . S
C527 C525 1.389 1_554 S
C527 C528 1.524 1_554 S
C528 C527 1.524 1_556 S
C528 C529 1.397 . S
C528 C533 1.363 1_556 S
C529 H500 0.950 . S
C529 C528 1.397 . S
C529 C530 1.334 . S
C530 H501 0.950 . S
C530 C529 1.334 . S
C530 C531 1.287 . S
C531 C530 1.287 . S
C531 C532 1.512 1_556 S
C531 H534 0.999 . S
C532 H502 0.956 . S
C532 C531 1.512 1_554 S
C532 C533 1.420 . S
C533 H503 0.950 . S
C533 C528 1.363 1_554 S
C533 C532 1.420 . S
H534 C531 0.999 . S
H535 C516 0.913 . S
H536 C554 0.951 . S
H537 C556 0.951 . S
H538 C558 0.950 . S
H539 C559 0.950 . S
H540 C561 0.950 . S
H541 C564 0.950 . S
H542 C565 0.950 . S
H543 C567 0.950 . S
H544 C568 0.950 . S
H545 C569 0.951 . S
H546 C571 0.951 . S
H547 C573 0.950 . S
H548 C574 0.950 . S
H549 C576 0.950 . S
H550 C579 0.950 . S
H551 C580 0.950 . S
H552 C582 0.950 . S
H553 C583 0.950 . S
C554 H536 0.951 . S
C554 C555 1.366 . S
C554 C556 1.388 . S
C555 C554 1.366 . S
C555 C559 1.385 . S
C556 H537 0.951 . S
C556 C554 1.388 . S
C556 C557 1.366 . S
C557 C556 1.366 . S
C557 C558 1.414 . S
C557 C560 1.499 . S
C558 H538 0.950 . S
C558 C557 1.414 . S
C558 C559 1.374 . S
C559 H539 0.950 . S
C559 C555 1.385 . S
C559 C558 1.374 . S
C560 C557 1.499 . S
C560 C561 1.373 . S
C560 C562 1.389 . S
C561 H540 0.950 . S
C561 C560 1.373 . S
C561 C577 1.377 . S
C562 C560 1.389 . S
C562 C563 1.524 . S
C562 C576 1.377 . S
C563 C562 1.524 . S
C563 C564 1.397 . S
C563 C568 1.363 . S
C564 H541 0.950 . S
C564 C563 1.397 . S
C564 C565 1.334 . S
C565 H542 0.950 . S
C565 C564 1.334 . S
C565 C566 1.287 . S
C566 C565 1.287 . S
C566 C567 1.524 . S
C566 H585 0.913 . S
C567 H543 0.950 . S
C567 C566 1.524 . S
C567 C568 1.415 . S
C568 H544 0.950 . S
C568 C563 1.363 . S
C568 C567 1.415 . S
C569 H545 0.951 . S
C569 C570 1.366 . S
C569 C571 1.388 . S
C570 C569 1.366 . S
C570 C574 1.385 . S
C571 H546 0.951 . S
C571 C569 1.388 . S
C571 C572 1.366 . S
C572 C571 1.366 . S
C572 C573 1.414 . S
C572 C575 1.499 . S
C573 H547 0.950 . S
C573 C572 1.414 . S
C573 C574 1.374 . S
C574 H548 0.950 . S
C574 C570 1.385 . S
C574 C573 1.374 . S
C575 C572 1.499 . S
C575 C576 1.373 . S
C575 C577 1.389 . S
C576 H549 0.950 . S
C576 C562 1.377 . S
C576 C575 1.373 . S
C577 C561 1.377 . S
C577 C575 1.389 . S
C577 C578 1.524 . S
C578 C577 1.524 . S
C578 C579 1.397 . S
C578 C583 1.363 1_554 S
C579 H550 0.950 . S
C579 C578 1.397 . S
C579 C580 1.334 1_554 S
C580 H551 0.950 . S
C580 C579 1.334 1_556 S
C580 C581 1.287 . S
C581 C580 1.287 . S
C581 C582 1.524 . S
C581 H584 0.999 . S
C582 H552 0.950 . S
C582 C581 1.524 . S
C582 C583 1.415 . S
C583 H553 0.950 . S
C583 C578 1.363 1_556 S
C583 C582 1.415 . S
H584 C581 0.999 . S
H585 C566 0.913 . S
H586 C604 0.951 . S
H587 C606 0.951 . S
H588 C608 0.950 . S
H589 C609 0.950 . S
H590 C611 0.950 . S
H591 C614 0.950 . S
H592 C615 0.950 . S
H593 C617 0.950 . S
H594 C618 0.950 . S
H595 C619 0.951 . S
H596 C621 0.951 . S
H597 C623 0.950 . S
H598 C624 0.950 . S
H599 C626 0.950 . S
H600 C629 0.943 1_554 S
H601 C630 0.950 . S
H602 C632 0.950 . S
H603 C633 0.950 . S
C604 H586 0.951 . S
C604 C605 1.366 . S
C604 C606 1.388 . S
C605 C604 1.366 . S
C605 C609 1.385 . S
C606 H587 0.951 . S
C606 C604 1.388 . S
C606 C607 1.366 . S
C607 C606 1.366 . S
C607 C608 1.414 . S
C607 C610 1.499 . S
C608 H588 0.950 . S
C608 C607 1.414 . S
C608 C609 1.374 . S
C609 H589 0.950 . S
C609 C605 1.385 . S
C609 C608 1.374 . S
C610 C607 1.499 . S
C610 C611 1.373 . S
C610 C612 1.389 . S
C611 H590 0.950 . S
C611 C610 1.373 . S
C611 C627 1.377 . S
C612 C610 1.389 . S
C612 C613 1.524 . S
C612 C626 1.377 . S
C613 C612 1.524 . S
C613 C614 1.397 . S
C613 C618 1.363 . S
C614 H591 0.950 . S
C614 C613 1.397 . S
C614 C615 1.334 . S
C615 H592 0.950 . S
C615 C614 1.334 . S
C615 C616 1.287 . S
C616 C615 1.287 . S
C616 C617 1.524 . S
C616 H635 0.913 . S
C617 H593 0.950 . S
C617 C616 1.524 . S
C617 C618 1.415 . S
C618 H594 0.950 . S
C618 C613 1.363 . S
C618 C617 1.415 . S
C619 H595 0.951 . S
C619 C620 1.366 . S
C619 C621 1.388 . S
C620 C619 1.366 . S
C620 C624 1.385 . S
C621 H596 0.951 . S
C621 C619 1.388 . S
C621 C622 1.366 . S
C622 C621 1.366 . S
C622 C623 1.414 . S
C622 C625 1.499 . S
C623 H597 0.950 . S
C623 C622 1.414 . S
C623 C624 1.374 . S
C624 H598 0.950 . S
C624 C620 1.385 . S
C624 C623 1.374 . S
C625 C622 1.499 . S
C625 C626 1.373 . S
C625 C627 1.389 . S
C626 H599 0.950 . S
C626 C612 1.377 . S
C626 C625 1.373 . S
C627 C611 1.377 . S
C627 C625 1.389 . S
C627 C628 1.524 . S
C628 C627 1.524 . S
C628 C629 1.382 1_554 S
C628 C633 1.363 . S
C629 H600 0.943 1_556 S
C629 C628 1.382 1_556 S
C629 C630 1.355 . S
C630 H601 0.950 . S
C630 C629 1.355 . S
C630 C631 1.287 . S
C631 C630 1.287 . S
C631 C632 1.524 . S
C631 H634 0.999 . S
C632 H602 0.950 . S
C632 C631 1.524 . S
C632 C633 1.415 1_556 S
C633 H603 0.950 . S
C633 C628 1.363 . S
C633 C632 1.415 1_554 S
H634 C631 0.999 . S
H635 C616 0.913 . S
H636 C654 0.951 . S
H637 C656 0.951 . S
H638 C658 0.950 . S
H639 C659 0.950 . S
H640 C661 0.950 . S
H641 C664 0.950 . S
H642 C665 0.950 . S
H643 C667 0.950 . S
H644 C668 0.950 . S
H645 C669 0.951 . S
H646 C671 0.951 . S
H647 C673 0.950 . S
H648 C674 0.950 . S
H649 C676 0.950 . S
H650 C679 0.950 . S
H651 C680 0.950 . S
H652 C682 0.950 . S
H653 C683 0.950 . S
C654 H636 0.951 . S
C654 C655 1.366 . S
C654 C656 1.388 . S
C655 C654 1.366 . S
C655 C659 1.385 . S
C656 H637 0.951 . S
C656 C654 1.388 . S
C656 C657 1.366 . S
C657 C656 1.366 . S
C657 C658 1.414 . S
C657 C660 1.499 . S
C658 H638 0.950 . S
C658 C657 1.414 . S
C658 C659 1.374 . S
C659 H639 0.950 . S
C659 C655 1.385 . S
C659 C658 1.374 . S
C660 C657 1.499 . S
C660 C661 1.373 . S
C660 C662 1.389 . S
C661 H640 0.950 . S
C661 C660 1.373 . S
C661 C677 1.377 . S
C662 C660 1.389 . S
C662 C663 1.524 . S
C662 C676 1.377 . S
C663 C662 1.524 . S
C663 C664 1.397 . S
C663 C668 1.363 . S
C664 H641 0.950 . S
C664 C663 1.397 . S
C664 C665 1.334 . S
C665 H642 0.950 . S
C665 C664 1.334 . S
C665 C666 1.287 . S
C666 C665 1.287 . S
C666 C667 1.524 . S
C666 H685 0.913 . S
C667 H643 0.950 . S
C667 C666 1.524 . S
C667 C668 1.415 . S
C668 H644 0.950 . S
C668 C663 1.363 . S
C668 C667 1.415 . S
C669 H645 0.951 . S
C669 C670 1.366 . S
C669 C671 1.388 . S
C670 C669 1.366 . S
C670 C674 1.385 . S
C671 H646 0.951 . S
C671 C669 1.388 . S
C671 C672 1.366 . S
C672 C671 1.366 . S
C672 C673 1.414 . S
C672 C675 1.499 . S
C673 H647 0.950 . S
C673 C672 1.414 . S
C673 C674 1.374 . S
C674 H648 0.950 . S
C674 C670 1.385 . S
C674 C673 1.374 . S
C675 C672 1.499 . S
C675 C676 1.373 . S
C675 C677 1.389 . S
C676 H649 0.950 . S
C676 C662 1.377 . S
C676 C675 1.373 . S
C677 C661 1.377 . S
C677 C675 1.389 . S
C677 C678 1.524 . S
C678 C677 1.524 . S
C678 C679 1.397 . S
C678 C683 1.363 . S
C679 H650 0.950 . S
C679 C678 1.397 . S
C679 C680 1.334 . S
C680 H651 0.950 . S
C680 C679 1.334 . S
C680 C681 1.287 . S
C681 C680 1.287 . S
C681 C682 1.524 . S
C681 H684 0.999 . S
C682 H652 0.950 . S
C682 C681 1.524 . S
C682 C683 1.415 . S
C683 H653 0.950 . S
C683 C678 1.363 . S
C683 C682 1.415 . S
H684 C681 0.999 . S
H685 C666 0.913 . S
H686 C704 0.951 . S
H687 C706 0.951 . S
H688 C708 0.950 . S
H689 C709 0.950 . S
H690 C711 0.950 . S
H691 C714 0.950 . S
H692 C715 0.950 . S
H693 C717 0.950 . S
H694 C718 0.950 . S
H695 C719 0.951 . S
H696 C721 0.951 . S
H697 C723 0.950 . S
H698 C724 0.950 . S
H699 C726 0.950 . S
H700 C729 0.950 . S
H701 C730 0.950 . S
H702 C732 0.950 . S
H703 C733 0.950 . S
C704 H686 0.951 . S
C704 C705 1.366 . S
C704 C706 1.388 . S
C705 C704 1.366 . S
C705 C709 1.385 . S
C706 H687 0.951 . S
C706 C704 1.388 . S
C706 C707 1.366 . S
C707 C706 1.366 . S
C707 C708 1.414 . S
C707 C710 1.499 . S
C708 H688 0.950 . S
C708 C707 1.414 . S
C708 C709 1.374 . S
C709 H689 0.950 . S
C709 C705 1.385 . S
C709 C708 1.374 . S
C710 C707 1.499 . S
C710 C711 1.373 . S
C710 C712 1.389 . S
C711 H690 0.950 . S
C711 C710 1.373 . S
C711 C727 1.377 . S
C712 C710 1.389 . S
C712 C713 1.524 . S
C712 C726 1.377 . S
C713 C712 1.524 . S
C713 C714 1.397 . S
C713 C718 1.363 . S
C714 H691 0.950 . S
C714 C713 1.397 . S
C714 C715 1.334 . S
C715 H692 0.950 . S
C715 C714 1.334 . S
C715 C716 1.287 . S
C716 C715 1.287 . S
C716 C717 1.524 . S
C716 H735 0.913 . S
C717 H693 0.950 . S
C717 C716 1.524 . S
C717 C718 1.415 . S
C718 H694 0.950 . S
C718 C713 1.363 . S
C718 C717 1.415 . S
C719 H695 0.951 . S
C719 C720 1.366 . S
C719 C721 1.388 . S
C720 C719 1.366 . S
C720 C724 1.385 . S
C721 H696 0.951 . S
C721 C719 1.388 . S
C721 C722 1.366 . S
C722 C721 1.366 . S
C722 C723 1.414 . S
C722 C725 1.499 . S
C723 H697 0.950 . S
C723 C722 1.414 . S
C723 C724 1.374 . S
C724 H698 0.950 . S
C724 C720 1.385 . S
C724 C723 1.374 . S
C725 C722 1.499 . S
C725 C726 1.373 . S
C725 C727 1.389 . S
C726 H699 0.950 . S
C726 C712 1.377 . S
C726 C725 1.373 . S
C727 C711 1.377 . S
C727 C725 1.389 . S
C727 C728 1.524 . S
C728 C727 1.524 . S
C728 C729 1.397 . S
C728 C733 1.363 . S
C729 H700 0.950 . S
C729 C728 1.397 . S
C729 C730 1.334 . S
C730 H701 0.950 . S
C730 C729 1.334 . S
C730 C731 1.287 . S
C731 C730 1.287 . S
C731 C732 1.524 . S
C731 H734 0.999 . S
C732 H702 0.950 . S
C732 C731 1.524 . S
C732 C733 1.415 . S
C733 H703 0.950 . S
C733 C728 1.363 . S
C733 C732 1.415 . S
H734 C731 0.999 . S
H735 C716 0.913 . S
H736 C754 0.951 . S
H737 C756 0.951 . S
H738 C758 0.950 . S
H739 C759 0.950 . S
H740 C761 0.950 . S
H741 C764 0.950 . S
H742 C765 0.950 . S
H743 C767 0.950 . S
H744 C768 0.950 . S
H745 C769 0.951 . S
H746 C771 0.951 . S
H747 C773 0.950 . S
H748 C774 0.950 . S
H749 C776 0.950 . S
H750 C779 0.950 . S
H751 C780 0.950 . S
H752 C782 0.950 1_556 S
H753 C783 0.950 . S
C754 H736 0.951 . S
C754 C755 1.366 . S
C754 C756 1.388 . S
C755 C754 1.366 . S
C755 C759 1.385 . S
C756 H737 0.951 . S
C756 C754 1.388 . S
C756 C757 1.366 . S
C757 C756 1.366 . S
C757 C758 1.414 . S
C757 C760 1.499 . S
C758 H738 0.950 . S
C758 C757 1.414 . S
C758 C759 1.374 . S
C759 H739 0.950 . S
C759 C755 1.385 . S
C759 C758 1.374 . S
C760 C757 1.499 . S
C760 C761 1.373 . S
C760 C762 1.389 . S
C761 H740 0.950 . S
C761 C760 1.373 . S
C761 C777 1.377 . S
C762 C760 1.389 . S
C762 C763 1.524 . S
C762 C776 1.377 . S
C763 C762 1.524 . S
C763 C764 1.397 . S
C763 C768 1.363 . S
C764 H741 0.950 . S
C764 C763 1.397 . S
C764 C765 1.334 . S
C765 H742 0.950 . S
C765 C764 1.334 . S
C765 C766 1.287 . S
C766 C765 1.287 . S
C766 C767 1.524 . S
C766 H785 0.913 . S
C767 H743 0.950 . S
C767 C766 1.524 . S
C767 C768 1.415 . S
C768 H744 0.950 . S
C768 C763 1.363 . S
C768 C767 1.415 . S
C769 H745 0.951 . S
C769 C770 1.366 . S
C769 C771 1.388 . S
C770 C769 1.366 . S
C770 C774 1.385 . S
C771 H746 0.951 . S
C771 C769 1.388 . S
C771 C772 1.366 . S
C772 C771 1.366 . S
C772 C773 1.414 . S
C772 C775 1.499 . S
C773 H747 0.950 . S
C773 C772 1.414 . S
C773 C774 1.374 . S
C774 H748 0.950 . S
C774 C770 1.385 . S
C774 C773 1.374 . S
C775 C772 1.499 . S
C775 C776 1.373 . S
C775 C777 1.389 . S
C776 H749 0.950 . S
C776 C762 1.377 . S
C776 C775 1.373 . S
C777 C761 1.377 . S
C777 C775 1.389 . S
C777 C778 1.524 . S
C778 C777 1.524 . S
C778 C779 1.397 . S
C778 C783 1.363 . S
C779 H750 0.950 . S
C779 C778 1.397 . S
C779 C780 1.334 . S
C780 H751 0.950 . S
C780 C779 1.334 . S
C780 C781 1.287 . S
C781 C780 1.287 . S
C781 C782 1.524 . S
C781 H784 0.999 . S
C782 H752 0.950 1_554 S
C782 C781 1.524 . S
C782 C783 1.415 . S
C783 H753 0.950 . S
C783 C778 1.363 . S
C783 C782 1.415 . S
H784 C781 0.999 . S
H785 C766 0.913 . S
H786 C804 0.951 . S
H787 C806 0.951 . S
H788 C808 0.950 . S
H789 C809 0.950 . S
H790 C811 0.950 . S
H791 C814 0.950 . S
H792 C815 0.950 . S
H793 C817 0.950 . S
H794 C818 0.950 . S
H795 C819 0.951 . S
H796 C821 0.951 . S
H797 C823 0.950 . S
H798 C824 0.950 . S
H799 C826 0.950 . S
H800 C829 0.950 . S
H801 C830 0.950 . S
H802 C832 1.004 . S
H803 C833 0.950 . S
C804 H786 0.951 . S
C804 C805 1.366 . S
C804 C806 1.388 . S
C805 C804 1.366 . S
C805 C809 1.385 . S
C806 H787 0.951 . S
C806 C804 1.388 . S
C806 C807 1.366 . S
C807 C806 1.366 . S
C807 C808 1.414 . S
C807 C810 1.499 . S
C808 H788 0.950 . S
C808 C807 1.414 . S
C808 C809 1.374 . S
C809 H789 0.950 . S
C809 C805 1.385 . S
C809 C808 1.374 . S
C810 C807 1.499 . S
C810 C811 1.373 . S
C810 C812 1.389 . S
C811 H790 0.950 . S
C811 C810 1.373 . S
C811 C827 1.377 . S
C812 C810 1.389 . S
C812 C813 1.524 . S
C812 C826 1.377 . S
C813 C812 1.524 . S
C813 C814 1.397 . S
C813 C818 1.363 . S
C814 H791 0.950 . S
C814 C813 1.397 . S
C814 C815 1.334 . S
C815 H792 0.950 . S
C815 C814 1.334 . S
C815 C816 1.287 . S
C816 C815 1.287 . S
C816 C817 1.524 . S
C816 H835 0.913 . S
C817 H793 0.950 . S
C817 C816 1.524 . S
C817 C818 1.415 . S
C818 H794 0.950 . S
C818 C813 1.363 . S
C818 C817 1.415 . S
C819 H795 0.951 . S
C819 C820 1.366 . S
C819 C821 1.388 . S
C820 C819 1.366 . S
C820 C824 1.385 . S
C821 H796 0.951 . S
C821 C819 1.388 . S
C821 C822 1.366 . S
C822 C821 1.366 . S
C822 C823 1.414 . S
C822 C825 1.499 . S
C823 H797 0.950 . S
C823 C822 1.414 . S
C823 C824 1.374 . S
C824 H798 0.950 . S
C824 C820 1.385 . S
C824 C823 1.374 . S
C825 C822 1.499 . S
C825 C826 1.373 . S
C825 C827 1.389 . S
C826 H799 0.950 . S
C826 C812 1.377 . S
C826 C825 1.373 . S
C827 C811 1.377 . S
C827 C825 1.389 . S
C827 C828 1.524 . S
C828 C827 1.524 . S
C828 C829 1.397 . S
C828 C833 1.363 . S
C829 H800 0.950 . S
C829 C828 1.397 . S
C829 C830 1.334 . S
C830 H801 0.950 . S
C830 C829 1.334 . S
C830 C831 1.287 . S
C831 C830 1.287 . S
C831 C832 1.489 1_455 S
C831 H834 0.999 . S
C832 H802 1.004 . S
C832 C831 1.489 1_655 S
C832 C833 1.388 1_655 S
C833 H803 0.950 . S
C833 C828 1.363 . S
C833 C832 1.388 1_455 S
H834 C831 0.999 . S
H835 C816 0.913 . S
H836 C854 0.951 . S
H837 C856 0.951 . S
H838 C858 0.950 . S
H839 C859 0.950 . S
H840 C861 0.950 . S
H841 C864 0.950 . S
H842 C865 0.950 . S
H843 C867 1.000 . S
H844 C868 0.950 . S
H845 C869 0.951 . S
H846 C871 0.951 . S
H847 C873 0.950 . S
H848 C874 0.950 . S
H849 C876 0.950 1_545 S
H850 C879 0.947 1_565 S
H851 C880 0.950 . S
H852 C882 0.950 . S
H853 C883 0.950 . S
C854 H836 0.951 . S
C854 C855 1.366 . S
C854 C856 1.388 . S
C855 C854 1.366 . S
C855 C859 1.385 . S
C856 H837 0.951 . S
C856 C854 1.388 . S
C856 C857 1.366 . S
C857 C856 1.366 . S
C857 C858 1.414 . S
C857 C860 1.499 . S
C858 H838 0.950 . S
C858 C857 1.414 . S
C858 C859 1.374 . S
C859 H839 0.950 . S
C859 C855 1.385 . S
C859 C858 1.374 . S
C860 C857 1.499 . S
C860 C861 1.373 . S
C860 C862 1.389 . S
C861 H840 0.950 . S
C861 C860 1.373 . S
C861 C877 1.377 . S
C862 C860 1.389 . S
C862 C863 1.524 . S
C862 C876 1.377 . S
C863 C862 1.524 . S
C863 C864 1.397 . S
C863 C868 1.363 . S
C864 H841 0.950 . S
C864 C863 1.397 . S
C864 C865 1.334 . S
C865 H842 0.950 . S
C865 C864 1.334 . S
C865 C866 1.287 . S
C866 C865 1.287 . S
C866 C867 1.493 1_655 S
C866 H885 0.913 . S
C867 H843 1.000 . S
C867 C866 1.493 1_455 S
C867 C868 1.390 1_455 S
C868 H844 0.950 . S
C868 C863 1.363 . S
C868 C867 1.390 1_655 S
C869 H845 0.951 . S
C869 C870 1.366 . S
C869 C871 1.388 . S
C870 C869 1.366 . S
C870 C874 1.385 . S
C871 H846 0.951 . S
C871 C869 1.388 . S
C871 C872 1.366 . S
C872 C871 1.366 . S
C872 C873 1.414 . S
C872 C875 1.499 . S
C873 H847 0.950 . S
C873 C872 1.414 . S
C873 C874 1.374 . S
C874 H848 0.950 . S
C874 C870 1.385 . S
C874 C873 1.374 . S
C875 C872 1.499 . S
C875 C876 1.373 1_545 S
C875 C877 1.389 1_545 S
C876 H849 0.950 1_565 S
C876 C862 1.377 . S
C876 C875 1.373 1_565 S
C877 C861 1.377 . S
C877 C875 1.389 1_565 S
C877 C878 1.524 . S
C878 C877 1.524 . S
C878 C879 1.396 1_565 S
C878 C883 1.363 . S
C879 H850 0.947 1_545 S
C879 C878 1.396 1_545 S
C879 C880 1.336 . S
C880 H851 0.950 . S
C880 C879 1.336 . S
C880 C881 1.287 . S
C881 C880 1.287 . S
C881 C882 1.524 . S
C881 H884 0.999 . S
C882 H852 0.950 . S
C882 C881 1.524 . S
C882 C883 1.415 1_545 S
C883 H853 0.950 . S
C883 C878 1.363 . S
C883 C882 1.415 1_565 S
H884 C881 0.999 . S
H885 C866 0.913 . S
H886 C904 0.951 . S
H887 C906 0.951 . S
H888 C908 0.950 . S
H889 C909 0.950 . S
H890 C911 0.950 . S
H891 C914 0.950 . S
H892 C915 0.950 . S
H893 C917 0.950 . S
H894 C918 0.950 . S
H895 C919 0.951 . S
H896 C921 0.951 . S
H897 C923 0.950 . S
H898 C924 0.950 . S
H899 C926 0.950 . S
H900 C929 0.950 . S
H901 C930 0.950 . S
H902 C932 0.950 . S
H903 C933 0.950 . S
C904 H886 0.951 . S
C904 C905 1.366 . S
C904 C906 1.388 . S
C905 C904 1.366 . S
C905 C909 1.385 . S
C906 H887 0.951 . S
C906 C904 1.388 . S
C906 C907 1.366 . S
C907 C906 1.366 . S
C907 C908 1.414 . S
C907 C910 1.499 . S
C908 H888 0.950 . S
C908 C907 1.414 . S
C908 C909 1.374 . S
C909 H889 0.950 . S
C909 C905 1.385 . S
C909 C908 1.374 . S
C910 C907 1.499 . S
C910 C911 1.373 . S
C910 C912 1.389 . S
C911 H890 0.950 . S
C911 C910 1.373 . S
C911 C927 1.377 . S
C912 C910 1.389 . S
C912 C913 1.524 . S
C912 C926 1.377 . S
C913 C912 1.524 . S
C913 C914 1.397 . S
C913 C918 1.363 . S
C914 H891 0.950 . S
C914 C913 1.397 . S
C914 C915 1.334 . S
C915 H892 0.950 . S
C915 C914 1.334 . S
C915 C916 1.287 . S
C916 C915 1.287 . S
C916 C917 1.524 . S
C916 H935 0.913 . S
C917 H893 0.950 . S
C917 C916 1.524 . S
C917 C918 1.415 . S
C918 H894 0.950 . S
C918 C913 1.363 . S
C918 C917 1.415 . S
C919 H895 0.951 . S
C919 C920 1.366 . S
C919 C921 1.388 . S
C920 C919 1.366 . S
C920 C924 1.385 . S
C921 H896 0.951 . S
C921 C919 1.388 . S
C921 C922 1.366 . S
C922 C921 1.366 . S
C922 C923 1.414 . S
C922 C925 1.499 . S
C923 H897 0.950 . S
C923 C922 1.414 . S
C923 C924 1.374 . S
C924 H898 0.950 . S
C924 C920 1.385 . S
C924 C923 1.374 . S
C925 C922 1.499 . S
C925 C926 1.373 . S
C925 C927 1.389 . S
C926 H899 0.950 . S
C926 C912 1.377 . S
C926 C925 1.373 . S
C927 C911 1.377 . S
C927 C925 1.389 . S
C927 C928 1.524 . S
C928 C927 1.524 . S
C928 C929 1.397 . S
C928 C933 1.363 . S
C929 H900 0.950 . S
C929 C928 1.397 . S
C929 C930 1.334 . S
C930 H901 0.950 . S
C930 C929 1.334 . S
C930 C931 1.287 . S
C931 C930 1.287 . S
C931 C932 1.524 . S
C931 H934 0.999 . S
C932 H902 0.950 . S
C932 C931 1.524 . S
C932 C933 1.415 . S
C933 H903 0.950 . S
C933 C928 1.363 . S
C933 C932 1.415 . S
H934 C931 0.999 . S
H935 C916 0.913 . S
H936 C954 0.951 . S
H937 C956 0.951 . S
H938 C958 0.950 . S
H939 C959 0.950 . S
H940 C961 0.950 . S
H941 C964 0.950 . S
H942 C965 0.950 . S
H943 C967 0.950 . S
H944 C968 0.950 . S
H945 C969 0.951 . S
H946 C971 0.951 . S
H947 C973 0.950 . S
H948 C974 0.950 . S
H949 C976 0.950 . S
H950 C979 0.950 . S
H951 C980 0.950 . S
H952 C982 0.950 . S
H953 C983 0.950 . S
C954 H936 0.951 . S
C954 C955 1.366 . S
C954 C956 1.388 . S
C955 C954 1.366 . S
C955 C959 1.385 . S
C956 H937 0.951 . S
C956 C954 1.388 . S
C956 C957 1.366 . S
C957 C956 1.366 . S
C957 C958 1.414 . S
C957 C960 1.499 . S
C958 H938 0.950 . S
C958 C957 1.414 . S
C958 C959 1.374 . S
C959 H939 0.950 . S
C959 C955 1.385 . S
C959 C958 1.374 . S
C960 C957 1.499 . S
C960 C961 1.373 1_554 S
C960 C962 1.392 . S
C961 H940 0.950 . S
C961 C960 1.373 1_556 S
C961 C977 1.377 . S
C962 C960 1.392 . S
C962 C963 1.535 . S
C962 C976 1.362 1_554 S
C963 C962 1.535 . S
C963 C964 1.397 . S
C963 C968 1.363 . S
C964 H941 0.950 . S
C964 C963 1.397 . S
C964 C965 1.334 . S
C965 H942 0.950 . S
C965 C964 1.334 . S
C965 C966 1.287 . S
C966 C965 1.287 . S
C966 C967 1.524 . S
C966 H985 0.913 . S
C967 H943 0.950 . S
C967 C966 1.524 . S
C967 C968 1.415 . S
C968 H944 0.950 . S
C968 C963 1.363 . S
C968 C967 1.415 . S
C969 H945 0.951 . S
C969 C970 1.366 . S
C969 C971 1.388 . S
C970 C969 1.366 . S
C970 C974 1.385 . S
C971 H946 0.951 . S
C971 C969 1.388 . S
C971 C972 1.366 . S
C972 C971 1.366 . S
C972 C973 1.414 . S
C972 C975 1.499 . S
C973 H947 0.950 . S
C973 C972 1.414 . S
C973 C974 1.374 . S
C974 H948 0.950 . S
C974 C970 1.385 . S
C974 C973 1.374 . S
C975 C972 1.499 . S
C975 C976 1.373 . S
C975 C977 1.389 . S
C976 H949 0.950 . S
C976 C962 1.362 1_556 S
C976 C975 1.373 . S
C977 C961 1.377 . S
C977 C975 1.389 . S
C977 C978 1.524 . S
C978 C977 1.524 . S
C978 C979 1.397 . S
C978 C983 1.363 . S
C979 H950 0.950 . S
C979 C978 1.397 . S
C979 C980 1.334 . S
C980 H951 0.950 . S
C980 C979 1.334 . S
C980 C981 1.287 . S
C981 C980 1.287 . S
C981 C982 1.524 . S
C981 H984 0.999 . S
C982 H952 0.950 . S
C982 C981 1.524 . S
C982 C983 1.415 . S
C983 H953 0.950 . S
C983 C978 1.363 . S
C983 C982 1.415 . S
H984 C981 0.999 . S
H985 C966 0.913 . S
H986 C1004 0.951 . S
H987 C1006 0.951 . S
H988 C1008 0.950 . S
H989 C1009 0.950 . S
H990 C1011 0.950 . S
H991 C1014 0.950 . S
H992 C1015 0.950 . S
H993 C1017 0.950 . S
H994 C1018 0.918 1_556 S
H995 C1019 0.951 . S
H996 C1021 0.951 . S
H997 C1023 0.950 . S
H998 C1024 0.950 . S
H999 C1026 0.950 . S
H1000 C1029 0.950 . S
H1001 C1030 0.950 . S
H1002 C1032 0.950 . S
H1003 C1033 0.956 . S
C1004 H986 0.951 . S
C1004 C1005 1.366 . S
C1004 C1006 1.388 . S
C1005 C1004 1.366 . S
C1005 C1009 1.385 . S
C1006 H987 0.951 . S
C1006 C1004 1.388 . S
C1006 C1007 1.366 . S
C1007 C1006 1.366 . S
C1007 C1008 1.414 . S
C1007 C1010 1.499 . S
C1008 H988 0.950 . S
C1008 C1007 1.414 . S
C1008 C1009 1.374 . S
C1009 H989 0.950 . S
C1009 C1005 1.385 . S
C1009 C1008 1.374 . S
C1010 C1007 1.499 . S
C1010 C1011 1.373 1_554 S
C1010 C1012 1.389 . S
C1011 H990 0.950 . S
C1011 C1010 1.373 1_556 S
C1011 C1027 1.377 . S
C1012 C1010 1.389 . S
C1012 C1013 1.523 . S
C1012 C1026 1.379 1_554 S
C1013 C1012 1.523 . S
C1013 C1014 1.397 . S
C1013 C1018 1.363 . S
C1014 H991 0.950 . S
C1014 C1013 1.397 . S
C1014 C1015 1.334 . S
C1015 H992 0.950 . S
C1015 C1014 1.334 . S
C1015 C1016 1.287 . S
C1016 C1015 1.287 . S
C1016 C1017 1.524 . S
C1016 H1035 0.913 . S
C1017 H993 0.950 . S
C1017 C1016 1.524 . S
C1017 C1018 1.415 . S
C1018 H994 0.918 1_554 S
C1018 C1013 1.363 . S
C1018 C1017 1.415 . S
C1019 H995 0.951 . S
C1019 C1020 1.366 . S
C1019 C1021 1.388 . S
C1020 C1019 1.366 . S
C1020 C1024 1.385 . S
C1021 H996 0.951 . S
C1021 C1019 1.388 . S
C1021 C1022 1.366 . S
C1022 C1021 1.366 . S
C1022 C1023 1.414 . S
C1022 C1025 1.499 . S
C1023 H997 0.950 . S
C1023 C1022 1.414 . S
C1023 C1024 1.374 . S
C1024 H998 0.950 . S
C1024 C1020 1.385 . S
C1024 C1023 1.374 . S
C1025 C1022 1.499 . S
C1025 C1026 1.373 . S
C1025 C1027 1.389 . S
C1026 H999 0.950 . S
C1026 C1012 1.379 1_556 S
C1026 C1025 1.373 . S
C1027 C1011 1.377 . S
C1027 C1025 1.389 . S
C1027 C1028 1.524 . S
C1028 C1027 1.524 . S
C1028 C1029 1.397 . S
C1028 C1033 1.363 . S
C1029 H1000 0.950 . S
C1029 C1028 1.397 . S
C1029 C1030 1.334 . S
C1030 H1001 0.950 . S
C1030 C1029 1.334 . S
C1030 C1031 1.287 1_565 S
C1031 C1030 1.287 1_545 S
C1031 C1032 1.524 . S
C1031 H1034 0.999 . S
C1032 H1002 0.950 . S
C1032 C1031 1.524 . S
C1032 C1033 1.415 1_545 S
C1033 H1003 0.956 . S
C1033 C1028 1.363 . S
C1033 C1032 1.415 1_565 S
H1034 C1031 0.999 . S
H1035 C1016 0.913 . S
H1036 C1054 0.951 . S
H1037 C1056 0.951 . S
H1038 C1058 0.950 . S
H1039 C1059 0.950 . S
H1040 C1061 0.950 . S
H1041 C1064 0.950 . S
H1042 C1065 0.950 . S
H1043 C1067 0.950 . S
H1044 C1068 0.950 . S
H1045 C1069 0.951 . S
H1046 C1071 0.951 . S
H1047 C1073 0.950 . S
H1048 C1074 0.950 . S
H1049 C1076 0.950 . S
H1050 C1079 0.950 . S
H1051 C1080 0.950 . S
H1052 C1082 0.950 . S
H1053 C1083 0.950 . S
C1054 H1036 0.951 . S
C1054 C1055 1.366 . S
C1054 C1056 1.388 . S
C1055 C1054 1.366 . S
C1055 C1059 1.385 . S
C1056 H1037 0.951 . S
C1056 C1054 1.388 . S
C1056 C1057 1.366 . S
C1057 C1056 1.366 . S
C1057 C1058 1.414 . S
C1057 C1060 1.499 . S
C1058 H1038 0.950 . S
C1058 C1057 1.414 . S
C1058 C1059 1.374 . S
C1059 H1039 0.950 . S
C1059 C1055 1.385 . S
C1059 C1058 1.374 . S
C1060 C1057 1.499 . S
C1060 C1061 1.373 . S
C1060 C1062 1.389 . S
C1061 H1040 0.950 . S
C1061 C1060 1.373 . S
C1061 C1077 1.377 . S
C1062 C1060 1.389 . S
C1062 C1063 1.524 . S
C1062 C1076 1.377 . S
C1063 C1062 1.524 . S
C1063 C1064 1.397 . S
C1063 C1068 1.363 . S
C1064 H1041 0.950 . S
C1064 C1063 1.397 . S
C1064 C1065 1.334 . S
C1065 H1042 0.950 . S
C1065 C1064 1.334 . S
C1065 C1066 1.287 . S
C1066 C1065 1.287 . S
C1066 C1067 1.524 . S
C1066 H1085 0.913 . S
C1067 H1043 0.950 . S
C1067 C1066 1.524 . S
C1067 C1068 1.415 . S
C1068 H1044 0.950 . S
C1068 C1063 1.363 . S
C1068 C1067 1.415 . S
C1069 H1045 0.951 . S
C1069 C1070 1.366 . S
C1069 C1071 1.388 . S
C1070 C1069 1.366 . S
C1070 C1074 1.385 . S
C1071 H1046 0.951 . S
C1071 C1069 1.388 . S
C1071 C1072 1.366 . S
C1072 C1071 1.366 . S
C1072 C1073 1.414 . S
C1072 C1075 1.499 . S
C1073 H1047 0.950 . S
C1073 C1072 1.414 . S
C1073 C1074 1.374 . S
C1074 H1048 0.950 . S
C1074 C1070 1.385 . S
C1074 C1073 1.374 . S
C1075 C1072 1.499 . S
C1075 C1076 1.373 . S
C1075 C1077 1.389 . S
C1076 H1049 0.950 . S
C1076 C1062 1.377 . S
C1076 C1075 1.373 . S
C1077 C1061 1.377 . S
C1077 C1075 1.389 . S
C1077 C1078 1.524 . S
C1078 C1077 1.524 . S
C1078 C1079 1.397 . S
C1078 C1083 1.363 . S
C1079 H1050 0.950 . S
C1079 C1078 1.397 . S
C1079 C1080 1.334 . S
C1080 H1051 0.950 . S
C1080 C1079 1.334 . S
C1080 C1081 1.287 . S
C1081 C1080 1.287 . S
C1081 C1082 1.524 . S
C1081 H1084 0.999 . S
C1082 H1052 0.950 . S
C1082 C1081 1.524 . S
C1082 C1083 1.415 . S
C1083 H1053 0.950 . S
C1083 C1078 1.363 . S
C1083 C1082 1.415 . S
H1084 C1081 0.999 . S
H1085 C1066 0.913 . S
H1086 C1104 0.951 . S
H1087 C1106 0.951 . S
H1088 C1108 0.950 . S
H1089 C1109 0.950 . S
H1090 C1111 0.950 . S
H1091 C1114 0.950 . S
H1092 C1115 0.950 . S
H1093 C1117 0.950 . S
H1094 C1118 0.950 . S
H1095 C1119 0.951 . S
H1096 C1121 0.951 . S
H1097 C1123 0.950 . S
H1098 C1124 0.950 . S
H1099 C1126 0.950 . S
H1100 C1129 0.950 . S
H1101 C1130 0.950 . S
H1102 C1132 0.950 . S
H1103 C1133 0.950 1_545 S
C1104 H1086 0.951 . S
C1104 C1105 1.366 . S
C1104 C1106 1.388 . S
C1105 C1104 1.366 . S
C1105 C1109 1.385 . S
C1106 H1087 0.951 . S
C1106 C1104 1.388 . S
C1106 C1107 1.366 . S
C1107 C1106 1.366 . S
C1107 C1108 1.414 . S
C1107 C1110 1.499 . S
C1108 H1088 0.950 . S
C1108 C1107 1.414 . S
C1108 C1109 1.374 . S
C1109 H1089 0.950 . S
C1109 C1105 1.385 . S
C1109 C1108 1.374 . S
C1110 C1107 1.499 . S
C1110 C1111 1.373 . S
C1110 C1112 1.389 . S
C1111 H1090 0.950 . S
C1111 C1110 1.373 . S
C1111 C1127 1.377 . S
C1112 C1110 1.389 . S
C1112 C1113 1.524 . S
C1112 C1126 1.377 . S
C1113 C1112 1.524 . S
C1113 C1114 1.397 . S
C1113 C1118 1.363 . S
C1114 H1091 0.950 . S
C1114 C1113 1.397 . S
C1114 C1115 1.334 . S
C1115 H1092 0.950 . S
C1115 C1114 1.334 . S
C1115 C1116 1.287 . S
C1116 C1115 1.287 . S
C1116 C1117 1.524 . S
C1116 H1135 0.913 . S
C1117 H1093 0.950 . S
C1117 C1116 1.524 . S
C1117 C1118 1.415 . S
C1118 H1094 0.950 . S
C1118 C1113 1.363 . S
C1118 C1117 1.415 . S
C1119 H1095 0.951 . S
C1119 C1120 1.366 . S
C1119 C1121 1.388 . S
C1120 C1119 1.366 . S
C1120 C1124 1.385 . S
C1121 H1096 0.951 . S
C1121 C1119 1.388 . S
C1121 C1122 1.366 . S
C1122 C1121 1.366 . S
C1122 C1123 1.414 . S
C1122 C1125 1.499 . S
C1123 H1097 0.950 . S
C1123 C1122 1.414 . S
C1123 C1124 1.374 . S
C1124 H1098 0.950 . S
C1124 C1120 1.385 . S
C1124 C1123 1.374 . S
C1125 C1122 1.499 . S
C1125 C1126 1.373 . S
C1125 C1127 1.389 . S
C1126 H1099 0.950 . S
C1126 C1112 1.377 . S
C1126 C1125 1.373 . S
C1127 C1111 1.377 . S
C1127 C1125 1.389 . S
C1127 C1128 1.524 . S
C1128 C1127 1.524 . S
C1128 C1129 1.397 . S
C1128 C1133 1.363 1_545 S
C1129 H1100 0.950 . S
C1129 C1128 1.397 . S
C1129 C1130 1.334 1_545 S
C1130 H1101 0.950 . S
C1130 C1129 1.334 1_565 S
C1130 C1131 1.287 . S
C1131 C1130 1.287 . S
C1131 C1132 1.524 . S
C1131 H1134 0.999 . S
C1132 H1102 0.950 . S
C1132 C1131 1.524 . S
C1132 C1133 1.415 . S
C1133 H1103 0.950 1_565 S
C1133 C1128 1.363 1_565 S
C1133 C1132 1.415 . S
H1134 C1131 0.999 . S
H1135 C1116 0.913 . S
H1136 C1154 0.951 . S
H1137 C1156 0.951 . S
H1138 C1158 0.950 . S
H1139 C1159 0.950 . S
H1140 C1161 0.950 . S
H1141 C1164 0.950 . S
H1142 C1165 0.950 . S
H1143 C1167 0.950 . S
H1144 C1168 0.950 . S
H1145 C1169 0.951 . S
H1146 C1171 0.951 . S
H1147 C1173 0.950 . S
H1148 C1174 0.950 . S
H1149 C1176 0.950 . S
H1150 C1179 0.950 . S
H1151 C1180 0.950 . S
H1152 C1182 0.950 . S
H1153 C1183 0.950 . S
C1154 H1136 0.951 . S
C1154 C1155 1.366 . S
C1154 C1156 1.388 . S
C1155 C1154 1.366 . S
C1155 C1159 1.385 . S
C1156 H1137 0.951 . S
C1156 C1154 1.388 . S
C1156 C1157 1.366 . S
C1157 C1156 1.366 . S
C1157 C1158 1.414 . S
C1157 C1160 1.499 . S
C1158 H1138 0.950 . S
C1158 C1157 1.414 . S
C1158 C1159 1.374 . S
C1159 H1139 0.950 . S
C1159 C1155 1.385 . S
C1159 C1158 1.374 . S
C1160 C1157 1.499 . S
C1160 C1161 1.373 1_455 S
C1160 C1162 1.389 1_455 S
C1161 H1140 0.950 . S
C1161 C1160 1.373 1_655 S
C1161 C1177 1.377 . S
C1162 C1160 1.389 1_655 S
C1162 C1163 1.524 1_655 S
C1162 C1176 1.377 . S
C1163 C1162 1.524 1_455 S
C1163 C1164 1.397 . S
C1163 C1168 1.363 . S
C1164 H1141 0.950 . S
C1164 C1163 1.397 . S
C1164 C1165 1.334 . S
C1165 H1142 0.950 . S
C1165 C1164 1.334 . S
C1165 C1166 1.287 . S
C1166 C1165 1.287 . S
C1166 C1167 1.524 . S
C1166 H1185 0.913 . S
C1167 H1143 0.950 . S
C1167 C1166 1.524 . S
C1167 C1168 1.415 . S
C1168 H1144 0.950 . S
C1168 C1163 1.363 . S
C1168 C1167 1.415 . S
C1169 H1145 0.951 . S
C1169 C1170 1.366 . S
C1169 C1171 1.388 . S
C1170 C1169 1.366 . S
C1170 C1174 1.385 . S
C1171 H1146 0.951 . S
C1171 C1169 1.388 . S
C1171 C1172 1.366 . S
C1172 C1171 1.366 . S
C1172 C1173 1.414 . S
C1172 C1175 1.499 . S
C1173 H1147 0.950 . S
C1173 C1172 1.414 . S
C1173 C1174 1.374 . S
C1174 H1148 0.950 . S
C1174 C1170 1.385 . S
C1174 C1173 1.374 . S
C1175 C1172 1.499 . S
C1175 C1176 1.373 . S
C1175 C1177 1.389 . S
C1176 H1149 0.950 . S
C1176 C1162 1.377 . S
C1176 C1175 1.373 . S
C1177 C1161 1.377 . S
C1177 C1175 1.389 . S
C1177 C1178 1.524 . S
C1178 C1177 1.524 . S
C1178 C1179 1.397 . S
C1178 C1183 1.363 . S
C1179 H1150 0.950 . S
C1179 C1178 1.397 . S
C1179 C1180 1.334 . S
C1180 H1151 0.950 . S
C1180 C1179 1.334 . S
C1180 C1181 1.287 . S
C1181 C1180 1.287 . S
C1181 C1182 1.524 . S
C1181 H1184 0.999 . S
C1182 H1152 0.950 . S
C1182 C1181 1.524 . S
C1182 C1183 1.415 . S
C1183 H1153 0.950 . S
C1183 C1178 1.363 . S
C1183 C1182 1.415 . S
H1184 C1181 0.999 . S
H1185 C1166 0.913 . S
H1186 C1204 0.951 . S
H1187 C1206 0.951 . S
H1188 C1208 0.950 . S
H1189 C1209 0.950 . S
H1190 C1211 0.950 1_655 S
H1191 C1214 0.950 . S
H1192 C1215 0.950 . S
H1193 C1217 0.951 1_455 S
H1194 C1218 0.950 . S
H1195 C1219 0.951 . S
H1196 C1221 0.951 . S
H1197 C1223 0.950 . S
H1198 C1224 0.950 . S
H1199 C1226 0.950 . S
H1200 C1229 0.950 . S
H1201 C1230 0.950 . S
H1202 C1232 0.950 . S
H1203 C1233 0.950 . S
C1204 H1186 0.951 . S
C1204 C1205 1.366 . S
C1204 C1206 1.388 . S
C1205 C1204 1.366 . S
C1205 C1209 1.385 . S
C1206 H1187 0.951 . S
C1206 C1204 1.388 . S
C1206 C1207 1.366 . S
C1207 C1206 1.366 . S
C1207 C1208 1.414 . S
C1207 C1210 1.499 . S
C1208 H1188 0.950 . S
C1208 C1207 1.414 . S
C1208 C1209 1.374 . S
C1209 H1189 0.950 . S
C1209 C1205 1.385 . S
C1209 C1208 1.374 . S
C1210 C1207 1.499 . S
C1210 C1211 1.373 1_655 S
C1210 C1212 1.389 1_655 S
C1211 H1190 0.950 1_455 S
C1211 C1210 1.373 1_455 S
C1211 C1227 1.377 . S
C1212 C1210 1.389 1_455 S
C1212 C1213 1.524 1_455 S
C1212 C1226 1.377 . S
C1213 C1212 1.524 1_655 S
C1213 C1214 1.397 . S
C1213 C1218 1.363 1_655 S
C1214 H1191 0.950 . S
C1214 C1213 1.397 . S
C1214 C1215 1.334 . S
C1215 H1192 0.950 . S
C1215 C1214 1.334 . S
C1215 C1216 1.287 . S
C1216 C1215 1.287 . S
C1216 C1217 1.524 . S
C1216 H1235 0.913 . S
C1217 H1193 0.951 1_655 S
C1217 C1216 1.524 . S
C1217 C1218 1.415 1_655 S
C1218 H1194 0.950 . S
C1218 C1213 1.363 1_455 S
C1218 C1217 1.415 1_455 S
C1219 H1195 0.951 . S
C1219 C1220 1.366 . S
C1219 C1221 1.388 . S
C1220 C1219 1.366 . S
C1220 C1224 1.385 . S
C1221 H1196 0.951 . S
C1221 C1219 1.388 . S
C1221 C1222 1.366 . S
C1222 C1221 1.366 . S
C1222 C1223 1.414 . S
C1222 C1225 1.499 . S
C1223 H1197 0.950 . S
C1223 C1222 1.414 . S
C1223 C1224 1.374 . S
C1224 H1198 0.950 . S
C1224 C1220 1.385 . S
C1224 C1223 1.374 . S
C1225 C1222 1.499 . S
C1225 C1226 1.373 . S
C1225 C1227 1.389 . S
C1226 H1199 0.950 . S
C1226 C1212 1.377 . S
C1226 C1225 1.373 . S
C1227 C1211 1.377 . S
C1227 C1225 1.389 . S
C1227 C1228 1.524 . S
C1228 C1227 1.524 . S
C1228 C1229 1.397 . S
C1228 C1233 1.363 . S
C1229 H1200 0.950 . S
C1229 C1228 1.397 . S
C1229 C1230 1.334 . S
C1230 H1201 0.950 . S
C1230 C1229 1.334 . S
C1230 C1231 1.287 . S
C1231 C1230 1.287 . S
C1231 C1232 1.524 . S
C1231 H1234 0.999 . S
C1232 H1202 0.950 . S
C1232 C1231 1.524 . S
C1232 C1233 1.415 . S
C1233 H1203 0.950 . S
C1233 C1228 1.363 . S
C1233 C1232 1.415 . S
H1234 C1231 0.999 . S
H1235 C1216 0.913 . S
H1236 C1254 0.951 . S
H1237 C1256 0.951 . S
H1238 C1258 0.950 . S
H1239 C1259 0.950 . S
H1240 C1261 0.950 . S
H1241 C1264 0.950 . S
H1242 C1265 0.950 . S
H1243 C1267 0.950 . S
H1244 C1268 0.950 . S
H1245 C1269 0.951 . S
H1246 C1271 0.951 . S
H1247 C1273 0.950 . S
H1248 C1274 0.950 . S
H1249 C1276 0.950 . S
H1250 C1279 0.950 . S
H1251 C1280 0.950 . S
H1252 C1282 0.950 . S
H1253 C1283 0.950 . S
C1254 H1236 0.951 . S
C1254 C1255 1.366 . S
C1254 C1256 1.388 . S
C1255 C1254 1.366 . S
C1255 C1259 1.385 . S
C1256 H1237 0.951 . S
C1256 C1254 1.388 . S
C1256 C1257 1.366 . S
C1257 C1256 1.366 . S
C1257 C1258 1.414 . S
C1257 C1260 1.499 . S
C1258 H1238 0.950 . S
C1258 C1257 1.414 . S
C1258 C1259 1.374 . S
C1259 H1239 0.950 . S
C1259 C1255 1.385 . S
C1259 C1258 1.374 . S
C1260 C1257 1.499 . S
C1260 C1261 1.373 1_455 S
C1260 C1262 1.389 . S
C1261 H1240 0.950 . S
C1261 C1260 1.373 1_655 S
C1261 C1277 1.377 . S
C1262 C1260 1.389 . S
C1262 C1263 1.524 . S
C1262 C1276 1.377 1_455 S
C1263 C1262 1.524 . S
C1263 C1264 1.397 . S
C1263 C1268 1.363 . S
C1264 H1241 0.950 . S
C1264 C1263 1.397 . S
C1264 C1265 1.334 . S
C1265 H1242 0.950 . S
C1265 C1264 1.334 . S
C1265 C1266 1.287 . S
C1266 C1265 1.287 . S
C1266 C1267 1.524 . S
C1266 H1285 0.913 . S
C1267 H1243 0.950 . S
C1267 C1266 1.524 . S
C1267 C1268 1.415 . S
C1268 H1244 0.950 . S
C1268 C1263 1.363 . S
C1268 C1267 1.415 . S
C1269 H1245 0.951 . S
C1269 C1270 1.366 . S
C1269 C1271 1.388 . S
C1270 C1269 1.366 . S
C1270 C1274 1.385 . S
C1271 H1246 0.951 . S
C1271 C1269 1.388 . S
C1271 C1272 1.366 . S
C1272 C1271 1.366 . S
C1272 C1273 1.414 . S
C1272 C1275 1.499 . S
C1273 H1247 0.950 . S
C1273 C1272 1.414 . S
C1273 C1274 1.374 . S
C1274 H1248 0.950 . S
C1274 C1270 1.385 . S
C1274 C1273 1.374 . S
C1275 C1272 1.499 . S
C1275 C1276 1.373 . S
C1275 C1277 1.389 . S
C1276 H1249 0.950 . S
C1276 C1262 1.377 1_655 S
C1276 C1275 1.373 . S
C1277 C1261 1.377 . S
C1277 C1275 1.389 . S
C1277 C1278 1.524 . S
C1278 C1277 1.524 . S
C1278 C1279 1.397 . S
C1278 C1283 1.363 . S
C1279 H1250 0.950 . S
C1279 C1278 1.397 . S
C1279 C1280 1.334 . S
C1280 H1251 0.950 . S
C1280 C1279 1.334 . S
C1280 C1281 1.287 . S
C1281 C1280 1.287 . S
C1281 C1282 1.524 . S
C1281 H1284 0.999 . S
C1282 H1252 0.950 . S
C1282 C1281 1.524 . S
C1282 C1283 1.415 . S
C1283 H1253 0.950 . S
C1283 C1278 1.363 . S
C1283 C1282 1.415 . S
H1284 C1281 0.999 . S
H1285 C1266 0.913 . S
H1286 C1304 0.951 . S
H1287 C1306 0.951 . S
H1288 C1308 0.950 . S
H1289 C1309 0.950 . S
H1290 C1311 0.950 . S
H1291 C1314 0.950 . S
H1292 C1315 0.950 . S
H1293 C1317 0.950 1_655 S
H1294 C1318 0.950 1_655 S
H1295 C1319 0.951 . S
H1296 C1321 0.951 . S
H1297 C1323 0.950 . S
H1298 C1324 0.950 . S
H1299 C1326 0.950 . S
H1300 C1329 0.988 . S
H1301 C1330 0.950 . S
H1302 C1332 0.950 . S
H1303 C1333 0.950 . S
C1304 H1286 0.951 . S
C1304 C1305 1.366 . S
C1304 C1306 1.388 . S
C1305 C1304 1.366 . S
C1305 C1309 1.385 . S
C1306 H1287 0.951 . S
C1306 C1304 1.388 . S
C1306 C1307 1.366 . S
C1307 C1306 1.366 . S
C1307 C1308 1.414 . S
C1307 C1310 1.499 . S
C1308 H1288 0.950 . S
C1308 C1307 1.414 . S
C1308 C1309 1.374 . S
C1309 H1289 0.950 . S
C1309 C1305 1.385 . S
C1309 C1308 1.374 . S
C1310 C1307 1.499 . S
C1310 C1311 1.373 . S
C1310 C1312 1.389 . S
C1311 H1290 0.950 . S
C1311 C1310 1.373 . S
C1311 C1327 1.377 . S
C1312 C1310 1.389 . S
C1312 C1313 1.524 . S
C1312 C1326 1.377 1_455 S
C1313 C1312 1.524 . S
C1313 C1314 1.397 . S
C1313 C1318 1.363 . S
C1314 H1291 0.950 . S
C1314 C1313 1.397 . S
C1314 C1315 1.334 . S
C1315 H1292 0.950 . S
C1315 C1314 1.334 . S
C1315 C1316 1.287 . S
C1316 C1315 1.287 . S
C1316 C1317 1.524 . S
C1316 H1335 0.913 . S
C1317 H1293 0.950 1_455 S
C1317 C1316 1.524 . S
C1317 C1318 1.415 . S
C1318 H1294 0.950 1_455 S
C1318 C1313 1.363 . S
C1318 C1317 1.415 . S
C1319 H1295 0.951 . S
C1319 C1320 1.366 . S
C1319 C1321 1.388 . S
C1320 C1319 1.366 . S
C1320 C1324 1.385 . S
C1321 H1296 0.951 . S
C1321 C1319 1.388 . S
C1321 C1322 1.366 . S
C1322 C1321 1.366 . S
C1322 C1323 1.414 . S
C1322 C1325 1.499 . S
C1323 H1297 0.950 . S
C1323 C1322 1.414 . S
C1323 C1324 1.374 . S
C1324 H1298 0.950 . S
C1324 C1320 1.385 . S
C1324 C1323 1.374 . S
C1325 C1322 1.499 . S
C1325 C1326 1.373 . S
C1325 C1327 1.389 1_655 S
C1326 H1299 0.950 . S
C1326 C1312 1.377 1_655 S
C1326 C1325 1.373 . S
C1327 C1311 1.377 . S
C1327 C1325 1.389 1_455 S
C1327 C1328 1.524 . S
C1328 C1327 1.524 . S
C1328 C1329 1.391 1_455 S
C1328 C1333 1.363 . S
C1329 H1300 0.988 . S
C1329 C1328 1.391 1_655 S
C1329 C1330 1.306 1_556 S
C1330 H1301 0.950 . S
C1330 C1329 1.306 1_554 S
C1330 C1331 1.287 1_655 S
C1331 C1330 1.287 1_455 S
C1331 C1332 1.524 . S
C1331 H1334 0.999 . S
C1332 H1302 0.950 . S
C1332 C1331 1.524 . S
C1332 C1333 1.415 1_554 S
C1333 H1303 0.950 . S
C1333 C1328 1.363 . S
C1333 C1332 1.415 1_556 S
H1334 C1331 0.999 . S
H1335 C1316 0.913 . S
H1336 C1354 0.951 . S
H1337 C1356 0.951 . S
H1338 C1358 0.950 . S
H1339 C1359 0.950 . S
H1340 C1361 0.950 . S
H1341 C1364 0.950 . S
H1342 C1365 0.950 . S
H1343 C1367 0.950 . S
H1344 C1368 0.950 . S
H1345 C1369 0.951 . S
H1346 C1371 0.951 . S
H1347 C1373 0.950 . S
H1348 C1374 0.950 . S
H1349 C1376 0.950 . S
H1350 C1379 0.950 . S
H1351 C1380 0.950 . S
H1352 C1382 0.950 . S
H1353 C1383 0.950 . S
C1354 H1336 0.951 . S
C1354 C1355 1.366 . S
C1354 C1356 1.388 . S
C1355 C1354 1.366 . S
C1355 C1359 1.385 . S
C1356 H1337 0.951 . S
C1356 C1354 1.388 . S
C1356 C1357 1.366 . S
C1357 C1356 1.366 . S
C1357 C1358 1.414 . S
C1357 C1360 1.499 . S
C1358 H1338 0.950 . S
C1358 C1357 1.414 . S
C1358 C1359 1.374 . S
C1359 H1339 0.950 . S
C1359 C1355 1.385 . S
C1359 C1358 1.374 . S
C1360 C1357 1.499 . S
C1360 C1361 1.373 1_545 S
C1360 C1362 1.397 . S
C1361 H1340 0.950 . S
C1361 C1360 1.373 1_565 S
C1361 C1377 1.377 . S
C1362 C1360 1.397 . S
C1362 C1363 1.549 . S
C1362 C1376 1.345 1_545 S
C1363 C1362 1.549 . S
C1363 C1364 1.397 . S
C1363 C1368 1.363 . S
C1364 H1341 0.950 . S
C1364 C1363 1.397 . S
C1364 C1365 1.334 . S
C1365 H1342 0.950 . S
C1365 C1364 1.334 . S
C1365 C1366 1.287 . S
C1366 C1365 1.287 . S
C1366 C1367 1.524 . S
C1366 H1385 0.913 . S
C1367 H1343 0.950 . S
C1367 C1366 1.524 . S
C1367 C1368 1.415 . S
C1368 H1344 0.950 . S
C1368 C1363 1.363 . S
C1368 C1367 1.415 . S
C1369 H1345 0.951 . S
C1369 C1370 1.366 . S
C1369 C1371 1.388 . S
C1370 C1369 1.366 . S
C1370 C1374 1.385 . S
C1371 H1346 0.951 . S
C1371 C1369 1.388 . S
C1371 C1372 1.366 . S
C1372 C1371 1.366 . S
C1372 C1373 1.414 . S
C1372 C1375 1.499 . S
C1373 H1347 0.950 . S
C1373 C1372 1.414 . S
C1373 C1374 1.374 . S
C1374 H1348 0.950 . S
C1374 C1370 1.385 . S
C1374 C1373 1.374 . S
C1375 C1372 1.499 . S
C1375 C1376 1.373 . S
C1375 C1377 1.389 . S
C1376 H1349 0.950 . S
C1376 C1362 1.345 1_565 S
C1376 C1375 1.373 . S
C1377 C1361 1.377 . S
C1377 C1375 1.389 . S
C1377 C1378 1.524 . S
C1378 C1377 1.524 . S
C1378 C1379 1.397 . S
C1378 C1383 1.363 . S
C1379 H1350 0.950 . S
C1379 C1378 1.397 . S
C1379 C1380 1.334 . S
C1380 H1351 0.950 . S
C1380 C1379 1.334 . S
C1380 C1381 1.287 . S
C1381 C1380 1.287 . S
C1381 C1382 1.524 . S
C1381 H1384 0.999 . S
C1382 H1352 0.950 . S
C1382 C1381 1.524 . S
C1382 C1383 1.415 . S
C1383 H1353 0.950 . S
C1383 C1378 1.363 . S
C1383 C1382 1.415 . S
H1384 C1381 0.999 . S
H1385 C1366 0.913 . S
H1386 C1404 0.951 . S
H1387 C1406 0.951 . S
H1388 C1408 0.950 . S
H1389 C1409 0.950 . S
H1390 C1411 0.950 . S
H1391 C1414 0.950 . S
H1392 C1415 0.950 . S
H1393 C1417 0.944 1_564 S
H1394 C1418 0.950 1_565 S
H1395 C1419 0.951 . S
H1396 C1421 0.951 . S
H1397 C1423 0.950 . S
H1398 C1424 0.950 . S
H1399 C1426 0.950 . S
H1400 C1429 0.950 1_565 S
H1401 C1430 0.950 1_565 S
H1402 C1432 0.950 . S
H1403 C1433 0.950 . S
C1404 H1386 0.951 . S
C1404 C1405 1.366 . S
C1404 C1406 1.388 . S
C1405 C1404 1.366 . S
C1405 C1409 1.385 . S
C1406 H1387 0.951 . S
C1406 C1404 1.388 . S
C1406 C1407 1.366 . S
C1407 C1406 1.366 . S
C1407 C1408 1.414 . S
C1407 C1410 1.499 . S
C1408 H1388 0.950 . S
C1408 C1407 1.414 . S
C1408 C1409 1.374 . S
C1409 H1389 0.950 . S
C1409 C1405 1.385 . S
C1409 C1408 1.374 . S
C1410 C1407 1.499 . S
C1410 C1411 1.373 . S
C1410 C1412 1.389 . S
C1411 H1390 0.950 . S
C1411 C1410 1.373 . S
C1411 C1427 1.377 . S
C1412 C1410 1.389 . S
C1412 C1413 1.524 . S
C1412 C1426 1.377 1_545 S
C1413 C1412 1.524 . S
C1413 C1414 1.397 . S
C1413 C1418 1.363 . S
C1414 H1391 0.950 . S
C1414 C1413 1.397 . S
C1414 C1415 1.334 . S
C1415 H1392 0.950 . S
C1415 C1414 1.334 . S
C1415 C1416 1.287 . S
C1416 C1415 1.287 . S
C1416 C1417 1.530 . S
C1416 H1435 0.913 1_556 S
C1417 H1393 0.944 1_546 S
C1417 C1416 1.530 . S
C1417 C1418 1.416 . S
C1418 H1394 0.950 1_545 S
C1418 C1413 1.363 . S
C1418 C1417 1.416 . S
C1419 H1395 0.951 . S
C1419 C1420 1.366 . S
C1419 C1421 1.388 . S
C1420 C1419 1.366 . S
C1420 C1424 1.385 . S
C1421 H1396 0.951 . S
C1421 C1419 1.388 . S
C1421 C1422 1.366 . S
C1422 C1421 1.366 . S
C1422 C1423 1.414 . S
C1422 C1425 1.499 . S
C1423 H1397 0.950 . S
C1423 C1422 1.414 . S
C1423 C1424 1.374 . S
C1424 H1398 0.950 . S
C1424 C1420 1.385 . S
C1424 C1423 1.374 . S
C1425 C1422 1.499 . S
C1425 C1426 1.373 . S
C1425 C1427 1.389 1_565 S
C1426 H1399 0.950 . S
C1426 C1412 1.377 1_565 S
C1426 C1425 1.373 . S
C1427 C1411 1.377 . S
C1427 C1425 1.389 1_545 S
C1427 C1428 1.524 . S
C1428 C1427 1.524 . S
C1428 C1429 1.397 . S
C1428 C1433 1.363 . S
C1429 H1400 0.950 1_545 S
C1429 C1428 1.397 . S
C1429 C1430 1.334 . S
C1430 H1401 0.950 1_545 S
C1430 C1429 1.334 . S
C1430 C1431 1.287 . S
C1431 C1430 1.287 . S
C1431 C1432 1.524 . S
C1431 H1434 0.999 . S
C1432 H1402 0.950 . S
C1432 C1431 1.524 . S
C1432 C1433 1.415 . S
C1433 H1403 0.950 . S
C1433 C1428 1.363 . S
C1433 C1432 1.415 . S
H1434 C1431 0.999 . S
H1435 C1416 0.913 1_554 S
H1436 C1454 0.951 . S
H1437 C1456 0.951 . S
H1438 C1458 0.950 . S
H1439 C1459 0.950 . S
H1440 C1461 0.950 . S
H1441 C1464 0.950 . S
H1442 C1465 0.950 . S
H1443 C1467 0.950 . S
H1444 C1468 0.950 . S
H1445 C1469 0.951 . S
H1446 C1471 0.951 . S
H1447 C1473 0.950 . S
H1448 C1474 0.950 . S
H1449 C1476 0.950 . S
H1450 C1479 0.950 . S
H1451 C1480 0.950 . S
H1452 C1482 0.950 . S
H1453 C1483 0.950 . S
C1454 H1436 0.951 . S
C1454 C1455 1.366 . S
C1454 C1456 1.388 . S
C1455 C1454 1.366 . S
C1455 C1459 1.385 . S
C1456 H1437 0.951 . S
C1456 C1454 1.388 . S
C1456 C1457 1.366 . S
C1457 C1456 1.366 . S
C1457 C1458 1.414 . S
C1457 C1460 1.499 . S
C1458 H1438 0.950 . S
C1458 C1457 1.414 . S
C1458 C1459 1.374 . S
C1459 H1439 0.950 . S
C1459 C1455 1.385 . S
C1459 C1458 1.374 . S
C1460 C1457 1.499 . S
C1460 C1461 1.373 . S
C1460 C1462 1.389 . S
C1461 H1440 0.950 . S
C1461 C1460 1.373 . S
C1461 C1477 1.377 . S
C1462 C1460 1.389 . S
C1462 C1463 1.524 . S
C1462 C1476 1.377 . S
C1463 C1462 1.524 . S
C1463 C1464 1.397 . S
C1463 C1468 1.363 . S
C1464 H1441 0.950 . S
C1464 C1463 1.397 . S
C1464 C1465 1.334 . S
C1465 H1442 0.950 . S
C1465 C1464 1.334 . S
C1465 C1466 1.287 . S
C1466 C1465 1.287 . S
C1466 C1467 1.524 . S
C1466 H1485 0.913 . S
C1467 H1443 0.950 . S
C1467 C1466 1.524 . S
C1467 C1468 1.415 . S
C1468 H1444 0.950 . S
C1468 C1463 1.363 . S
C1468 C1467 1.415 . S
C1469 H1445 0.951 . S
C1469 C1470 1.366 . S
C1469 C1471 1.388 . S
C1470 C1469 1.366 . S
C1470 C1474 1.385 . S
C1471 H1446 0.951 . S
C1471 C1469 1.388 . S
C1471 C1472 1.366 . S
C1472 C1471 1.366 . S
C1472 C1473 1.414 . S
C1472 C1475 1.499 . S
C1473 H1447 0.950 . S
C1473 C1472 1.414 . S
C1473 C1474 1.374 . S
C1474 H1448 0.950 . S
C1474 C1470 1.385 . S
C1474 C1473 1.374 . S
C1475 C1472 1.499 . S
C1475 C1476 1.373 . S
C1475 C1477 1.389 . S
C1476 H1449 0.950 . S
C1476 C1462 1.377 . S
C1476 C1475 1.373 . S
C1477 C1461 1.377 . S
C1477 C1475 1.389 . S
C1477 C1478 1.524 . S
C1478 C1477 1.524 . S
C1478 C1479 1.397 . S
C1478 C1483 1.363 . S
C1479 H1450 0.950 . S
C1479 C1478 1.397 . S
C1479 C1480 1.334 . S
C1480 H1451 0.950 . S
C1480 C1479 1.334 . S
C1480 C1481 1.287 . S
C1481 C1480 1.287 . S
C1481 C1482 1.524 . S
C1481 H1484 0.999 . S
C1482 H1452 0.950 . S
C1482 C1481 1.524 . S
C1482 C1483 1.415 . S
C1483 H1453 0.950 . S
C1483 C1478 1.363 . S
C1483 C1482 1.415 . S
H1484 C1481 0.999 . S
H1485 C1466 0.913 . S
H1486 C1504 0.951 . S
H1487 C1506 0.951 . S
H1488 C1508 0.950 . S
H1489 C1509 0.950 . S
H1490 C1511 0.950 . S
H1491 C1514 0.950 . S
H1492 C1515 0.950 1_556 S
H1493 C1517 0.950 . S
H1494 C1518 0.955 . S
H1495 C1519 0.951 . S
H1496 C1521 0.951 . S
H1497 C1523 0.950 . S
H1498 C1524 0.950 . S
H1499 C1526 0.950 1_565 S
H1500 C1529 0.950 . S
H1501 C1530 0.950 . S
H1502 C1532 0.950 . S
H1503 C1533 0.950 . S
C1504 H1486 0.951 . S
C1504 C1505 1.366 . S
C1504 C1506 1.388 . S
C1505 C1504 1.366 . S
C1505 C1509 1.385 . S
C1506 H1487 0.951 . S
C1506 C1504 1.388 . S
C1506 C1507 1.366 . S
C1507 C1506 1.366 . S
C1507 C1508 1.414 . S
C1507 C1510 1.499 . S
C1508 H1488 0.950 . S
C1508 C1507 1.414 . S
C1508 C1509 1.374 . S
C1509 H1489 0.950 . S
C1509 C1505 1.385 . S
C1509 C1508 1.374 . S
C1510 C1507 1.499 . S
C1510 C1511 1.373 . S
C1510 C1512 1.389 . S
C1511 H1490 0.950 . S
C1511 C1510 1.373 . S
C1511 C1527 1.377 . S
C1512 C1510 1.389 . S
C1512 C1513 1.524 . S
C1512 C1526 1.377 . S
C1513 C1512 1.524 . S
C1513 C1514 1.397 . S
C1513 C1518 1.363 . S
C1514 H1491 0.950 . S
C1514 C1513 1.397 . S
C1514 C1515 1.334 . S
C1515 H1492 0.950 1_554 S
C1515 C1514 1.334 . S
C1515 C1516 1.287 1_655 S
C1516 C1515 1.287 1_455 S
C1516 C1517 1.524 . S
C1516 H1535 0.913 . S
C1517 H1493 0.950 . S
C1517 C1516 1.524 . S
C1517 C1518 1.415 1_455 S
C1518 H1494 0.955 . S
C1518 C1513 1.363 . S
C1518 C1517 1.415 1_655 S
C1519 H1495 0.951 . S
C1519 C1520 1.366 . S
C1519 C1521 1.388 . S
C1520 C1519 1.366 . S
C1520 C1524 1.385 . S
C1521 H1496 0.951 . S
C1521 C1519 1.388 . S
C1521 C1522 1.366 . S
C1522 C1521 1.366 . S
C1522 C1523 1.414 . S
C1522 C1525 1.499 . S
C1523 H1497 0.950 . S
C1523 C1522 1.414 . S
C1523 C1524 1.374 . S
C1524 H1498 0.950 . S
C1524 C1520 1.385 . S
C1524 C1523 1.374 . S
C1525 C1522 1.499 . S
C1525 C1526 1.373 1_565 S
C1525 C1527 1.389 1_565 S
C1526 H1499 0.950 1_545 S
C1526 C1512 1.377 . S
C1526 C1525 1.373 1_545 S
C1527 C1511 1.377 . S
C1527 C1525 1.389 1_545 S
C1527 C1528 1.524 1_545 S
C1528 C1527 1.524 1_565 S
C1528 C1529 1.397 . S
C1528 C1533 1.363 . S
C1529 H1500 0.950 . S
C1529 C1528 1.397 . S
C1529 C1530 1.334 . S
C1530 H1501 0.950 . S
C1530 C1529 1.334 . S
C1530 C1531 1.287 . S
C1531 C1530 1.287 . S
C1531 C1532 1.524 . S
C1531 H1534 0.999 . S
C1532 H1502 0.950 . S
C1532 C1531 1.524 . S
C1532 C1533 1.415 . S
C1533 H1503 0.950 . S
C1533 C1528 1.363 . S
C1533 C1532 1.415 . S
H1534 C1531 0.999 . S
H1535 C1516 0.913 . S
H1536 C1554 0.951 . S
H1537 C1556 0.951 . S
H1538 C1558 0.950 . S
H1539 C1559 0.950 . S
H1540 C1561 0.950 . S
H1541 C1564 0.950 . S
H1542 C1565 0.950 . S
H1543 C1567 0.950 . S
H1544 C1568 0.950 . S
H1545 C1569 0.951 . S
H1546 C1571 0.951 . S
H1547 C1573 0.950 . S
H1548 C1574 0.950 . S
H1549 C1576 0.950 . S
H1550 C1579 0.950 . S
H1551 C1580 0.950 . S
H1552 C1582 0.950 . S
H1553 C1583 0.950 . S
C1554 H1536 0.951 . S
C1554 C1555 1.366 . S
C1554 C1556 1.388 . S
C1555 C1554 1.366 . S
C1555 C1559 1.385 1_655 S
C1556 H1537 0.951 . S
C1556 C1554 1.388 . S
C1556 C1557 1.366 . S
C1557 C1556 1.366 . S
C1557 C1558 1.414 1_655 S
C1557 C1560 1.499 . S
C1558 H1538 0.950 . S
C1558 C1557 1.414 1_455 S
C1558 C1559 1.374 . S
C1559 H1539 0.950 . S
C1559 C1555 1.385 1_455 S
C1559 C1558 1.374 . S
C1560 C1557 1.499 . S
C1560 C1561 1.373 1_655 S
C1560 C1562 1.389 . S
C1561 H1540 0.950 . S
C1561 C1560 1.373 1_455 S
C1561 C1577 1.377 . S
C1562 C1560 1.389 . S
C1562 C1563 1.524 . S
C1562 C1576 1.377 . S
C1563 C1562 1.524 . S
C1563 C1564 1.397 . S
C1563 C1568 1.363 . S
C1564 H1541 0.950 . S
C1564 C1563 1.397 . S
C1564 C1565 1.334 . S
C1565 H1542 0.950 . S
C1565 C1564 1.334 . S
C1565 C1566 1.287 . S
C1566 C1565 1.287 . S
C1566 C1567 1.524 . S
C1566 H1585 0.913 . S
C1567 H1543 0.950 . S
C1567 C1566 1.524 . S
C1567 C1568 1.415 . S
C1568 H1544 0.950 . S
C1568 C1563 1.363 . S
C1568 C1567 1.415 . S
C1569 H1545 0.951 . S
C1569 C1570 1.366 . S
C1569 C1571 1.388 . S
C1570 C1569 1.366 . S
C1570 C1574 1.385 1_455 S
C1571 H1546 0.951 . S
C1571 C1569 1.388 . S
C1571 C1572 1.366 . S
C1572 C1571 1.366 . S
C1572 C1573 1.414 1_455 S
C1572 C1575 1.499 . S
C1573 H1547 0.950 . S
C1573 C1572 1.414 1_655 S
C1573 C1574 1.374 . S
C1574 H1548 0.950 . S
C1574 C1570 1.385 1_655 S
C1574 C1573 1.374 . S
C1575 C1572 1.499 . S
C1575 C1576 1.373 1_455 S
C1575 C1577 1.389 . S
C1576 H1549 0.950 . S
C1576 C1562 1.377 . S
C1576 C1575 1.373 1_655 S
C1577 C1561 1.377 . S
C1577 C1575 1.389 . S
C1577 C1578 1.524 . S
C1578 C1577 1.524 . S
C1578 C1579 1.397 . S
C1578 C1583 1.363 . S
C1579 H1550 0.950 . S
C1579 C1578 1.397 . S
C1579 C1580 1.334 . S
C1580 H1551 0.950 . S
C1580 C1579 1.334 . S
C1580 C1581 1.287 . S
C1581 C1580 1.287 . S
C1581 C1582 1.524 . S
C1581 H1584 0.999 . S
C1582 H1552 0.950 . S
C1582 C1581 1.524 . S
C1582 C1583 1.415 . S
C1583 H1553 0.950 . S
C1583 C1578 1.363 . S
C1583 C1582 1.415 . S
H1584 C1581 0.999 . S
H1585 C1566 0.913 . S
H1586 C1604 0.951 . S
H1587 C1606 0.951 . S
H1588 C1608 0.950 . S
H1589 C1609 0.950 . S
H1590 C1611 0.950 . S
H1591 C1614 0.950 . S
H1592 C1615 0.950 . S
H1593 C1617 0.950 . S
H1594 C1618 0.950 . S
H1595 C1619 0.951 . S
H1596 C1621 0.951 . S
H1597 C1623 0.950 . S
H1598 C1624 0.950 . S
H1599 C1626 0.950 . S
H1600 C1629 0.950 . S
H1601 C1630 0.950 . S
H1602 C1632 0.950 . S
H1603 C1633 0.950 . S
C1604 H1586 0.951 . S
C1604 C1605 1.366 . S
C1604 C1606 1.388 . S
C1605 C1604 1.366 . S
C1605 C1609 1.385 1_455 S
C1606 H1587 0.951 . S
C1606 C1604 1.388 . S
C1606 C1607 1.366 . S
C1607 C1606 1.366 . S
C1607 C1608 1.414 1_455 S
C1607 C1610 1.499 . S
C1608 H1588 0.950 . S
C1608 C1607 1.414 1_655 S
C1608 C1609 1.374 . S
C1609 H1589 0.950 . S
C1609 C1605 1.385 1_655 S
C1609 C1608 1.374 . S
C1610 C1607 1.499 . S
C1610 C1611 1.373 1_455 S
C1610 C1612 1.389 . S
C1611 H1590 0.950 . S
C1611 C1610 1.373 1_655 S
C1611 C1627 1.377 . S
C1612 C1610 1.389 . S
C1612 C1613 1.524 . S
C1612 C1626 1.377 . S
C1613 C1612 1.524 . S
C1613 C1614 1.397 . S
C1613 C1618 1.363 . S
C1614 H1591 0.950 . S
C1614 C1613 1.397 . S
C1614 C1615 1.334 . S
C1615 H1592 0.950 . S
C1615 C1614 1.334 . S
C1615 C1616 1.287 . S
C1616 C1615 1.287 . S
C1616 C1617 1.524 . S
C1616 H1635 0.913 . S
C1617 H1593 0.950 . S
C1617 C1616 1.524 . S
C1617 C1618 1.415 . S
C1618 H1594 0.950 . S
C1618 C1613 1.363 . S
C1618 C1617 1.415 . S
C1619 H1595 0.951 . S
C1619 C1620 1.366 . S
C1619 C1621 1.388 . S
C1620 C1619 1.366 . S
C1620 C1624 1.385 1_655 S
C1621 H1596 0.951 . S
C1621 C1619 1.388 . S
C1621 C1622 1.366 . S
C1622 C1621 1.366 . S
C1622 C1623 1.414 1_655 S
C1622 C1625 1.499 . S
C1623 H1597 0.950 . S
C1623 C1622 1.414 1_455 S
C1623 C1624 1.374 . S
C1624 H1598 0.950 . S
C1624 C1620 1.385 1_455 S
C1624 C1623 1.374 . S
C1625 C1622 1.499 . S
C1625 C1626 1.373 1_655 S
C1625 C1627 1.389 . S
C1626 H1599 0.950 . S
C1626 C1612 1.377 . S
C1626 C1625 1.373 1_455 S
C1627 C1611 1.377 . S
C1627 C1625 1.389 . S
C1627 C1628 1.524 . S
C1628 C1627 1.524 . S
C1628 C1629 1.397 . S
C1628 C1633 1.363 . S
C1629 H1600 0.950 . S
C1629 C1628 1.397 . S
C1629 C1630 1.334 . S
C1630 H1601 0.950 . S
C1630 C1629 1.334 . S
C1630 C1631 1.287 . S
C1631 C1630 1.287 . S
C1631 C1632 1.524 . S
C1631 H1634 0.999 . S
C1632 H1602 0.950 . S
C1632 C1631 1.524 . S
C1632 C1633 1.415 . S
C1633 H1603 0.950 . S
C1633 C1628 1.363 . S
C1633 C1632 1.415 . S
H1634 C1631 0.999 . S
H1635 C1616 0.913 . S
H1636 C1654 0.951 . S
H1637 C1656 0.951 . S
H1638 C1658 0.950 . S
H1639 C1659 0.952 1_545 S
H1640 C1661 0.950 . S
H1641 C1664 0.950 . S
H1642 C1665 0.950 . S
H1643 C1667 0.950 . S
H1644 C1668 0.934 1_565 S
H1645 C1669 0.951 . S
H1646 C1671 0.951 . S
H1647 C1673 0.950 . S
H1648 C1674 0.942 1_565 S
H1649 C1676 0.950 . S
H1650 C1679 0.950 . S
H1651 C1680 0.950 . S
H1652 C1682 0.950 . S
H1653 C1683 0.914 1_545 S
C1654 H1636 0.951 . S
C1654 C1655 1.366 . S
C1654 C1656 1.388 . S
C1655 C1654 1.366 . S
C1655 C1659 1.382 . S
C1656 H1637 0.951 . S
C1656 C1654 1.388 . S
C1656 C1657 1.366 . S
C1657 C1656 1.366 . S
C1657 C1658 1.414 1_565 S
C1657 C1660 1.506 . S
C1658 H1638 0.950 . S
C1658 C1657 1.414 1_545 S
C1658 C1659 1.374 1_545 S
C1659 H1639 0.952 1_565 S
C1659 C1655 1.382 . S
C1659 C1658 1.374 1_565 S
C1660 C1657 1.506 . S
C1660 C1661 1.389 . S
C1660 C1662 1.373 1_565 S
C1661 H1640 0.950 . S
C1661 C1660 1.389 . S
C1661 C1677 1.377 . S
C1662 C1660 1.373 1_545 S
C1662 C1663 1.524 . S
C1662 C1676 1.377 . S
C1663 C1662 1.524 . S
C1663 C1664 1.397 . S
C1663 C1668 1.363 . S
C1664 H1641 0.950 . S
C1664 C1663 1.397 . S
C1664 C1665 1.334 . S
C1665 H1642 0.950 . S
C1665 C1664 1.334 . S
C1665 C1666 1.287 . S
C1666 C1665 1.287 . S
C1666 C1667 1.524 . S
C1666 H1685 0.913 . S
C1667 H1643 0.950 . S
C1667 C1666 1.524 . S
C1667 C1668 1.415 . S
C1668 H1644 0.934 1_545 S
C1668 C1663 1.363 . S
C1668 C1667 1.415 . S
C1669 H1645 0.951 . S
C1669 C1670 1.366 . S
C1669 C1671 1.388 . S
C1670 C1669 1.366 . S
C1670 C1674 1.397 . S
C1671 H1646 0.951 . S
C1671 C1669 1.388 . S
C1671 C1672 1.366 . S
C1672 C1671 1.366 . S
C1672 C1673 1.414 1_545 S
C1672 C1675 1.499 . S
C1673 H1647 0.950 . S
C1673 C1672 1.414 1_565 S
C1673 C1674 1.371 1_565 S
C1674 H1648 0.942 1_545 S
C1674 C1670 1.397 . S
C1674 C1673 1.371 1_545 S
C1675 C1672 1.499 . S
C1675 C1676 1.373 . S
C1675 C1677 1.389 1_545 S
C1676 H1649 0.950 . S
C1676 C1662 1.377 . S
C1676 C1675 1.373 . S
C1677 C1661 1.377 . S
C1677 C1675 1.389 1_565 S
C1677 C1678 1.524 . S
C1678 C1677 1.524 . S
C1678 C1679 1.397 . S
C1678 C1683 1.363 . S
C1679 H1650 0.950 . S
C1679 C1678 1.397 . S
C1679 C1680 1.334 . S
C1680 H1651 0.950 . S
C1680 C1679 1.334 . S
C1680 C1681 1.287 . S
C1681 C1680 1.287 . S
C1681 C1682 1.524 . S
C1681 H1684 0.999 . S
C1682 H1652 0.950 . S
C1682 C1681 1.524 . S
C1682 C1683 1.415 . S
C1683 H1653 0.914 1_565 S
C1683 C1678 1.363 . S
C1683 C1682 1.415 . S
H1684 C1681 0.999 . S
H1685 C1666 0.913 . S
H1686 C1704 0.951 . S
H1687 C1706 0.951 . S
H1688 C1708 0.950 . S
H1689 C1709 0.950 . S
H1690 C1711 0.950 . S
H1691 C1714 0.950 . S
H1692 C1715 0.950 . S
H1693 C1717 0.950 . S
H1694 C1718 0.950 . S
H1695 C1719 0.951 . S
H1696 C1721 0.951 . S
H1697 C1723 0.950 . S
H1698 C1724 0.950 . S
H1699 C1726 0.950 . S
H1700 C1729 0.950 . S
H1701 C1730 0.950 . S
H1702 C1732 0.950 . S
H1703 C1733 0.950 . S
C1704 H1686 0.951 . S
C1704 C1705 1.366 . S
C1704 C1706 1.388 . S
C1705 C1704 1.366 . S
C1705 C1709 1.385 . S
C1706 H1687 0.951 . S
C1706 C1704 1.388 . S
C1706 C1707 1.366 . S
C1707 C1706 1.366 . S
C1707 C1708 1.414 . S
C1707 C1710 1.499 . S
C1708 H1688 0.950 . S
C1708 C1707 1.414 . S
C1708 C1709 1.374 . S
C1709 H1689 0.950 . S
C1709 C1705 1.385 . S
C1709 C1708 1.374 . S
C1710 C1707 1.499 . S
C1710 C1711 1.373 . S
C1710 C1712 1.389 . S
C1711 H1690 0.950 . S
C1711 C1710 1.373 . S
C1711 C1727 1.377 . S
C1712 C1710 1.389 . S
C1712 C1713 1.524 . S
C1712 C1726 1.377 . S
C1713 C1712 1.524 . S
C1713 C1714 1.397 . S
C1713 C1718 1.363 . S
C1714 H1691 0.950 . S
C1714 C1713 1.397 . S
C1714 C1715 1.334 . S
C1715 H1692 0.950 . S
C1715 C1714 1.334 . S
C1715 C1716 1.287 . S
C1716 C1715 1.287 . S
C1716 C1717 1.524 . S
C1716 H1735 0.913 . S
C1717 H1693 0.950 . S
C1717 C1716 1.524 . S
C1717 C1718 1.415 . S
C1718 H1694 0.950 . S
C1718 C1713 1.363 . S
C1718 C1717 1.415 . S
C1719 H1695 0.951 . S
C1719 C1720 1.366 . S
C1719 C1721 1.388 . S
C1720 C1719 1.366 . S
C1720 C1724 1.385 . S
C1721 H1696 0.951 . S
C1721 C1719 1.388 . S
C1721 C1722 1.366 . S
C1722 C1721 1.366 . S
C1722 C1723 1.414 . S
C1722 C1725 1.499 . S
C1723 H1697 0.950 . S
C1723 C1722 1.414 . S
C1723 C1724 1.374 . S
C1724 H1698 0.950 . S
C1724 C1720 1.385 . S
C1724 C1723 1.374 . S
C1725 C1722 1.499 . S
C1725 C1726 1.373 . S
C1725 C1727 1.389 . S
C1726 H1699 0.950 . S
C1726 C1712 1.377 . S
C1726 C1725 1.373 . S
C1727 C1711 1.377 . S
C1727 C1725 1.389 . S
C1727 C1728 1.524 . S
C1728 C1727 1.524 . S
C1728 C1729 1.397 . S
C1728 C1733 1.363 . S
C1729 H1700 0.950 . S
C1729 C1728 1.397 . S
C1729 C1730 1.334 . S
C1730 H1701 0.950 . S
C1730 C1729 1.334 . S
C1730 C1731 1.287 . S
C1731 C1730 1.287 . S
C1731 C1732 1.524 . S
C1731 H1734 0.999 . S
C1732 H1702 0.950 . S
C1732 C1731 1.524 . S
C1732 C1733 1.415 . S
C1733 H1703 0.950 . S
C1733 C1728 1.363 . S
C1733 C1732 1.415 . S
H1734 C1731 0.999 . S
H1735 C1716 0.913 . S
H1736 C1754 0.951 . S
H1737 C1756 0.951 . S
H1738 C1758 0.950 . S
H1739 C1759 0.950 . S
H1740 C1761 0.950 . S
H1741 C1764 0.950 1_556 S
H1742 C1765 0.950 . S
H1743 C1767 0.950 . S
H1744 C1768 0.950 . S
H1745 C1769 0.951 . S
H1746 C1771 0.951 . S
H1747 C1773 0.950 . S
H1748 C1774 0.950 . S
H1749 C1776 0.950 . S
H1750 C1779 0.950 1_554 S
H1751 C1780 0.950 . S
H1752 C1782 0.950 . S
H1753 C1783 0.950 . S
C1754 H1736 0.951 . S
C1754 C1755 1.366 . S
C1754 C1756 1.388 . S
C1755 C1754 1.366 . S
C1755 C1759 1.385 1_554 S
C1756 H1737 0.951 . S
C1756 C1754 1.388 . S
C1756 C1757 1.366 . S
C1757 C1756 1.366 . S
C1757 C1758 1.414 1_554 S
C1757 C1760 1.499 . S
C1758 H1738 0.950 . S
C1758 C1757 1.414 1_556 S
C1758 C1759 1.374 . S
C1759 H1739 0.950 . S
C1759 C1755 1.385 1_556 S
C1759 C1758 1.374 . S
C1760 C1757 1.499 . S
C1760 C1761 1.373 1_554 S
C1760 C1762 1.389 . S
C1761 H1740 0.950 . S
C1761 C1760 1.373 1_556 S
C1761 C1777 1.377 . S
C1762 C1760 1.389 . S
C1762 C1763 1.524 . S
C1762 C1776 1.377 . S
C1763 C1762 1.524 . S
C1763 C1764 1.397 . S
C1763 C1768 1.363 . S
C1764 H1741 0.950 1_554 S
C1764 C1763 1.397 . S
C1764 C1765 1.334 . S
C1765 H1742 0.950 . S
C1765 C1764 1.334 . S
C1765 C1766 1.287 . S
C1766 C1765 1.287 . S
C1766 C1767 1.524 . S
C1766 H1785 0.913 . S
C1767 H1743 0.950 . S
C1767 C1766 1.524 . S
C1767 C1768 1.415 . S
C1768 H1744 0.950 . S
C1768 C1763 1.363 . S
C1768 C1767 1.415 . S
C1769 H1745 0.951 . S
C1769 C1770 1.366 . S
C1769 C1771 1.388 . S
C1770 C1769 1.366 . S
C1770 C1774 1.385 1_556 S
C1771 H1746 0.951 . S
C1771 C1769 1.388 . S
C1771 C1772 1.366 . S
C1772 C1771 1.366 . S
C1772 C1773 1.414 1_556 S
C1772 C1775 1.499 . S
C1773 H1747 0.950 . S
C1773 C1772 1.414 1_554 S
C1773 C1774 1.374 . S
C1774 H1748 0.950 . S
C1774 C1770 1.385 1_554 S
C1774 C1773 1.374 . S
C1775 C1772 1.499 . S
C1775 C1776 1.373 1_556 S
C1775 C1777 1.389 . S
C1776 H1749 0.950 . S
C1776 C1762 1.377 . S
C1776 C1775 1.373 1_554 S
C1777 C1761 1.377 . S
C1777 C1775 1.389 . S
C1777 C1778 1.524 . S
C1778 C1777 1.524 . S
C1778 C1779 1.397 . S
C1778 C1783 1.363 . S
C1779 H1750 0.950 1_556 S
C1779 C1778 1.397 . S
C1779 C1780 1.334 . S
C1780 H1751 0.950 . S
C1780 C1779 1.334 . S
C1780 C1781 1.287 . S
C1781 C1780 1.287 . S
C1781 C1782 1.524 . S
C1781 H1784 0.999 . S
C1782 H1752 0.950 . S
C1782 C1781 1.524 . S
C1782 C1783 1.415 . S
C1783 H1753 0.950 . S
C1783 C1778 1.363 . S
C1783 C1782 1.415 . S
H1784 C1781 0.999 . S
H1785 C1766 0.913 . S
H1786 C1804 0.951 . S
H1787 C1806 0.951 . S
H1788 C1808 0.950 . S
H1789 C1809 0.950 . S
H1790 C1811 0.950 . S
H1791 C1814 0.950 . S
H1792 C1815 0.950 . S
H1793 C1817 0.950 . S
H1794 C1818 0.950 . S
H1795 C1819 0.951 . S
H1796 C1821 0.951 . S
H1797 C1823 0.950 . S
H1798 C1824 0.950 . S
H1799 C1826 0.950 . S
H1800 C1829 0.950 . S
H1801 C1830 0.950 . S
H1802 C1832 0.950 . S
H1803 C1833 0.950 . S
C1804 H1786 0.951 . S
C1804 C1805 1.366 . S
C1804 C1806 1.388 . S
C1805 C1804 1.366 . S
C1805 C1809 1.385 . S
C1806 H1787 0.951 . S
C1806 C1804 1.388 . S
C1806 C1807 1.366 . S
C1807 C1806 1.366 . S
C1807 C1808 1.414 . S
C1807 C1810 1.499 . S
C1808 H1788 0.950 . S
C1808 C1807 1.414 . S
C1808 C1809 1.374 . S
C1809 H1789 0.950 . S
C1809 C1805 1.385 . S
C1809 C1808 1.374 . S
C1810 C1807 1.499 . S
C1810 C1811 1.373 . S
C1810 C1812 1.389 . S
C1811 H1790 0.950 . S
C1811 C1810 1.373 . S
C1811 C1827 1.377 . S
C1812 C1810 1.389 . S
C1812 C1813 1.524 . S
C1812 C1826 1.377 . S
C1813 C1812 1.524 . S
C1813 C1814 1.397 . S
C1813 C1818 1.363 . S
C1814 H1791 0.950 . S
C1814 C1813 1.397 . S
C1814 C1815 1.334 . S
C1815 H1792 0.950 . S
C1815 C1814 1.334 . S
C1815 C1816 1.287 . S
C1816 C1815 1.287 . S
C1816 C1817 1.524 . S
C1816 H1835 0.913 . S
C1817 H1793 0.950 . S
C1817 C1816 1.524 . S
C1817 C1818 1.415 . S
C1818 H1794 0.950 . S
C1818 C1813 1.363 . S
C1818 C1817 1.415 . S
C1819 H1795 0.951 . S
C1819 C1820 1.366 . S
C1819 C1821 1.388 . S
C1820 C1819 1.366 . S
C1820 C1824 1.385 . S
C1821 H1796 0.951 . S
C1821 C1819 1.388 . S
C1821 C1822 1.366 . S
C1822 C1821 1.366 . S
C1822 C1823 1.414 . S
C1822 C1825 1.499 . S
C1823 H1797 0.950 . S
C1823 C1822 1.414 . S
C1823 C1824 1.374 . S
C1824 H1798 0.950 . S
C1824 C1820 1.385 . S
C1824 C1823 1.374 . S
C1825 C1822 1.499 . S
C1825 C1826 1.373 . S
C1825 C1827 1.389 . S
C1826 H1799 0.950 . S
C1826 C1812 1.377 . S
C1826 C1825 1.373 . S
C1827 C1811 1.377 . S
C1827 C1825 1.389 . S
C1827 C1828 1.524 . S
C1828 C1827 1.524 . S
C1828 C1829 1.397 . S
C1828 C1833 1.363 . S
C1829 H1800 0.950 . S
C1829 C1828 1.397 . S
C1829 C1830 1.334 . S
C1830 H1801 0.950 . S
C1830 C1829 1.334 . S
C1830 C1831 1.287 . S
C1831 C1830 1.287 . S
C1831 C1832 1.524 . S
C1831 H1834 0.999 . S
C1832 H1802 0.950 . S
C1832 C1831 1.524 . S
C1832 C1833 1.415 . S
C1833 H1803 0.950 . S
C1833 C1828 1.363 . S
C1833 C1832 1.415 . S
H1834 C1831 0.999 . S
H1835 C1816 0.913 . S
H1836 C1854 0.951 . S
H1837 C1856 0.951 . S
H1838 C1858 0.950 . S
H1839 C1859 0.950 . S
H1840 C1861 0.950 . S
H1841 C1864 0.950 . S
H1842 C1865 0.950 . S
H1843 C1867 0.950 . S
H1844 C1868 0.950 . S
H1845 C1869 0.951 . S
H1846 C1871 0.951 . S
H1847 C1873 0.950 . S
H1848 C1874 0.950 . S
H1849 C1876 0.950 . S
H1850 C1879 0.950 . S
H1851 C1880 0.950 . S
H1852 C1882 0.950 . S
H1853 C1883 0.950 . S
C1854 H1836 0.951 . S
C1854 C1855 1.366 . S
C1854 C1856 1.388 . S
C1855 C1854 1.366 . S
C1855 C1859 1.385 . S
C1856 H1837 0.951 . S
C1856 C1854 1.388 . S
C1856 C1857 1.366 . S
C1857 C1856 1.366 . S
C1857 C1858 1.414 . S
C1857 C1860 1.499 . S
C1858 H1838 0.950 . S
C1858 C1857 1.414 . S
C1858 C1859 1.374 . S
C1859 H1839 0.950 . S
C1859 C1855 1.385 . S
C1859 C1858 1.374 . S
C1860 C1857 1.499 . S
C1860 C1861 1.373 . S
C1860 C1862 1.389 . S
C1861 H1840 0.950 . S
C1861 C1860 1.373 . S
C1861 C1877 1.377 . S
C1862 C1860 1.389 . S
C1862 C1863 1.524 . S
C1862 C1876 1.377 . S
C1863 C1862 1.524 . S
C1863 C1864 1.397 . S
C1863 C1868 1.363 . S
C1864 H1841 0.950 . S
C1864 C1863 1.397 . S
C1864 C1865 1.334 . S
C1865 H1842 0.950 . S
C1865 C1864 1.334 . S
C1865 C1866 1.287 . S
C1866 C1865 1.287 . S
C1866 C1867 1.524 . S
C1866 H1885 0.913 . S
C1867 H1843 0.950 . S
C1867 C1866 1.524 . S
C1867 C1868 1.415 . S
C1868 H1844 0.950 . S
C1868 C1863 1.363 . S
C1868 C1867 1.415 . S
C1869 H1845 0.951 . S
C1869 C1870 1.366 . S
C1869 C1871 1.388 . S
C1870 C1869 1.366 . S
C1870 C1874 1.385 . S
C1871 H1846 0.951 . S
C1871 C1869 1.388 . S
C1871 C1872 1.366 . S
C1872 C1871 1.366 . S
C1872 C1873 1.414 . S
C1872 C1875 1.499 . S
C1873 H1847 0.950 . S
C1873 C1872 1.414 . S
C1873 C1874 1.374 . S
C1874 H1848 0.950 . S
C1874 C1870 1.385 . S
C1874 C1873 1.374 . S
C1875 C1872 1.499 . S
C1875 C1876 1.373 . S
C1875 C1877 1.389 . S
C1876 H1849 0.950 . S
C1876 C1862 1.377 . S
C1876 C1875 1.373 . S
C1877 C1861 1.377 . S
C1877 C1875 1.389 . S
C1877 C1878 1.524 . S
C1878 C1877 1.524 . S
C1878 C1879 1.397 . S
C1878 C1883 1.363 . S
C1879 H1850 0.950 . S
C1879 C1878 1.397 . S
C1879 C1880 1.334 . S
C1880 H1851 0.950 . S
C1880 C1879 1.334 . S
C1880 C1881 1.287 . S
C1881 C1880 1.287 . S
C1881 C1882 1.524 . S
C1881 H1884 0.999 . S
C1882 H1852 0.950 . S
C1882 C1881 1.524 . S
C1882 C1883 1.415 . S
C1883 H1853 0.950 . S
C1883 C1878 1.363 . S
C1883 C1882 1.415 . S
H1884 C1881 0.999 . S
H1885 C1866 0.913 . S
H1886 C1904 0.951 . S
H1887 C1906 0.951 . S
H1888 C1908 0.950 . S
H1889 C1909 0.950 . S
H1890 C1911 0.950 . S
H1891 C1914 0.950 . S
H1892 C1915 0.950 . S
H1893 C1917 0.950 . S
H1894 C1918 0.950 . S
H1895 C1919 0.951 . S
H1896 C1921 0.951 . S
H1897 C1923 0.950 . S
H1898 C1924 0.950 . S
H1899 C1926 0.950 . S
H1900 C1929 0.950 . S
H1901 C1930 0.950 . S
H1902 C1932 0.950 . S
H1903 C1933 0.950 . S
C1904 H1886 0.951 . S
C1904 C1905 1.366 . S
C1904 C1906 1.388 . S
C1905 C1904 1.366 . S
C1905 C1909 1.385 . S
C1906 H1887 0.951 . S
C1906 C1904 1.388 . S
C1906 C1907 1.366 . S
C1907 C1906 1.366 . S
C1907 C1908 1.414 . S
C1907 C1910 1.499 . S
C1908 H1888 0.950 . S
C1908 C1907 1.414 . S
C1908 C1909 1.374 . S
C1909 H1889 0.950 . S
C1909 C1905 1.385 . S
C1909 C1908 1.374 . S
C1910 C1907 1.499 . S
C1910 C1911 1.373 . S
C1910 C1912 1.389 . S
C1911 H1890 0.950 . S
C1911 C1910 1.373 . S
C1911 C1927 1.377 . S
C1912 C1910 1.389 . S
C1912 C1913 1.524 . S
C1912 C1926 1.377 . S
C1913 C1912 1.524 . S
C1913 C1914 1.397 . S
C1913 C1918 1.363 . S
C1914 H1891 0.950 . S
C1914 C1913 1.397 . S
C1914 C1915 1.334 . S
C1915 H1892 0.950 . S
C1915 C1914 1.334 . S
C1915 C1916 1.287 . S
C1916 C1915 1.287 . S
C1916 C1917 1.524 . S
C1916 H1935 0.913 . S
C1917 H1893 0.950 . S
C1917 C1916 1.524 . S
C1917 C1918 1.415 . S
C1918 H1894 0.950 . S
C1918 C1913 1.363 . S
C1918 C1917 1.415 . S
C1919 H1895 0.951 . S
C1919 C1920 1.366 . S
C1919 C1921 1.388 . S
C1920 C1919 1.366 . S
C1920 C1924 1.385 . S
C1921 H1896 0.951 . S
C1921 C1919 1.388 . S
C1921 C1922 1.366 . S
C1922 C1921 1.366 . S
C1922 C1923 1.414 . S
C1922 C1925 1.499 . S
C1923 H1897 0.950 . S
C1923 C1922 1.414 . S
C1923 C1924 1.374 . S
C1924 H1898 0.950 . S
C1924 C1920 1.385 . S
C1924 C1923 1.374 . S
C1925 C1922 1.499 . S
C1925 C1926 1.373 . S
C1925 C1927 1.389 . S
C1926 H1899 0.950 . S
C1926 C1912 1.377 . S
C1926 C1925 1.373 . S
C1927 C1911 1.377 . S
C1927 C1925 1.389 . S
C1927 C1928 1.524 . S
C1928 C1927 1.524 . S
C1928 C1929 1.397 . S
C1928 C1933 1.363 . S
C1929 H1900 0.950 . S
C1929 C1928 1.397 . S
C1929 C1930 1.334 . S
C1930 H1901 0.950 . S
C1930 C1929 1.334 . S
C1930 C1931 1.287 . S
C1931 C1930 1.287 . S
C1931 C1932 1.524 . S
C1931 H1934 0.999 . S
C1932 H1902 0.950 . S
C1932 C1931 1.524 . S
C1932 C1933 1.415 . S
C1933 H1903 0.950 . S
C1933 C1928 1.363 . S
C1933 C1932 1.415 . S
H1934 C1931 0.999 . S
H1935 C1916 0.913 . S
H1936 C1954 0.951 . S
H1937 C1956 0.951 . S
H1938 C1958 0.950 . S
H1939 C1959 0.950 . S
H1940 C1961 0.950 . S
H1941 C1964 0.950 . S
H1942 C1965 0.950 . S
H1943 C1967 0.950 . S
H1944 C1968 0.950 . S
H1945 C1969 0.951 . S
H1946 C1971 0.951 . S
H1947 C1973 0.950 . S
H1948 C1974 0.950 . S
H1949 C1976 0.950 . S
H1950 C1979 0.950 . S
H1951 C1980 0.950 . S
H1952 C1982 0.950 . S
H1953 C1983 0.950 . S
C1954 H1936 0.951 . S
C1954 C1955 1.366 . S
C1954 C1956 1.388 . S
C1955 C1954 1.366 . S
C1955 C1959 1.385 . S
C1956 H1937 0.951 . S
C1956 C1954 1.388 . S
C1956 C1957 1.366 . S
C1957 C1956 1.366 . S
C1957 C1958 1.414 . S
C1957 C1960 1.499 . S
C1958 H1938 0.950 . S
C1958 C1957 1.414 . S
C1958 C1959 1.374 . S
C1959 H1939 0.950 . S
C1959 C1955 1.385 . S
C1959 C1958 1.374 . S
C1960 C1957 1.499 . S
C1960 C1961 1.373 . S
C1960 C1962 1.389 . S
C1961 H1940 0.950 . S
C1961 C1960 1.373 . S
C1961 C1977 1.377 . S
C1962 C1960 1.389 . S
C1962 C1963 1.524 . S
C1962 C1976 1.377 . S
C1963 C1962 1.524 . S
C1963 C1964 1.397 . S
C1963 C1968 1.363 . S
C1964 H1941 0.950 . S
C1964 C1963 1.397 . S
C1964 C1965 1.334 . S
C1965 H1942 0.950 . S
C1965 C1964 1.334 . S
C1965 C1966 1.287 . S
C1966 C1965 1.287 . S
C1966 C1967 1.524 . S
C1966 H1985 0.913 . S
C1967 H1943 0.950 . S
C1967 C1966 1.524 . S
C1967 C1968 1.415 . S
C1968 H1944 0.950 . S
C1968 C1963 1.363 . S
C1968 C1967 1.415 . S
C1969 H1945 0.951 . S
C1969 C1970 1.366 . S
C1969 C1971 1.388 . S
C1970 C1969 1.366 . S
C1970 C1974 1.385 . S
C1971 H1946 0.951 . S
C1971 C1969 1.388 . S
C1971 C1972 1.366 . S
C1972 C1971 1.366 . S
C1972 C1973 1.414 . S
C1972 C1975 1.499 . S
C1973 H1947 0.950 . S
C1973 C1972 1.414 . S
C1973 C1974 1.374 . S
C1974 H1948 0.950 . S
C1974 C1970 1.385 . S
C1974 C1973 1.374 . S
C1975 C1972 1.499 . S
C1975 C1976 1.373 . S
C1975 C1977 1.389 . S
C1976 H1949 0.950 . S
C1976 C1962 1.377 . S
C1976 C1975 1.373 . S
C1977 C1961 1.377 . S
C1977 C1975 1.389 . S
C1977 C1978 1.524 . S
C1978 C1977 1.524 . S
C1978 C1979 1.397 . S
C1978 C1983 1.363 . S
C1979 H1950 0.950 . S
C1979 C1978 1.397 . S
C1979 C1980 1.334 . S
C1980 H1951 0.950 . S
C1980 C1979 1.334 . S
C1980 C1981 1.287 . S
C1981 C1980 1.287 . S
C1981 C1982 1.524 . S
C1981 H1984 0.999 . S
C1982 H1952 0.950 . S
C1982 C1981 1.524 . S
C1982 C1983 1.415 . S
C1983 H1953 0.950 . S
C1983 C1978 1.363 . S
C1983 C1982 1.415 . S
H1984 C1981 0.999 . S
H1985 C1966 0.913 . S
H1986 C2004 0.951 . S
H1987 C2006 0.951 . S
H1988 C2008 0.950 . S
H1989 C2009 0.950 . S
H1990 C2011 0.950 . S
H1991 C2014 0.950 . S
H1992 C2015 0.950 . S
H1993 C2017 0.950 . S
H1994 C2018 0.950 . S
H1995 C2019 0.951 . S
H1996 C2021 0.951 . S
H1997 C2023 0.950 . S
H1998 C2024 0.950 . S
H1999 C2026 0.950 . S
H2000 C2029 0.950 . S
H2001 C2030 0.950 . S
H2002 C2032 0.950 . S
H2003 C2033 0.950 . S
C2004 H1986 0.951 . S
C2004 C2005 1.366 . S
C2004 C2006 1.388 . S
C2005 C2004 1.366 . S
C2005 C2009 1.385 . S
C2006 H1987 0.951 . S
C2006 C2004 1.388 . S
C2006 C2007 1.366 . S
C2007 C2006 1.366 . S
C2007 C2008 1.414 . S
C2007 C2010 1.499 . S
C2008 H1988 0.950 . S
C2008 C2007 1.414 . S
C2008 C2009 1.374 . S
C2009 H1989 0.950 . S
C2009 C2005 1.385 . S
C2009 C2008 1.374 . S
C2010 C2007 1.499 . S
C2010 C2011 1.373 . S
C2010 C2012 1.389 . S
C2011 H1990 0.950 . S
C2011 C2010 1.373 . S
C2011 C2027 1.377 . S
C2012 C2010 1.389 . S
C2012 C2013 1.524 . S
C2012 C2026 1.377 . S
C2013 C2012 1.524 . S
C2013 C2014 1.397 . S
C2013 C2018 1.363 . S
C2014 H1991 0.950 . S
C2014 C2013 1.397 . S
C2014 C2015 1.334 . S
C2015 H1992 0.950 . S
C2015 C2014 1.334 . S
C2015 C2016 1.287 . S
C2016 C2015 1.287 . S
C2016 C2017 1.524 . S
C2016 H2035 0.913 . S
C2017 H1993 0.950 . S
C2017 C2016 1.524 . S
C2017 C2018 1.415 . S
C2018 H1994 0.950 . S
C2018 C2013 1.363 . S
C2018 C2017 1.415 . S
C2019 H1995 0.951 . S
C2019 C2020 1.366 . S
C2019 C2021 1.388 . S
C2020 C2019 1.366 . S
C2020 C2024 1.385 . S
C2021 H1996 0.951 . S
C2021 C2019 1.388 . S
C2021 C2022 1.366 . S
C2022 C2021 1.366 . S
C2022 C2023 1.414 . S
C2022 C2025 1.499 . S
C2023 H1997 0.950 . S
C2023 C2022 1.414 . S
C2023 C2024 1.374 . S
C2024 H1998 0.950 . S
C2024 C2020 1.385 . S
C2024 C2023 1.374 . S
C2025 C2022 1.499 . S
C2025 C2026 1.373 . S
C2025 C2027 1.389 . S
C2026 H1999 0.950 . S
C2026 C2012 1.377 . S
C2026 C2025 1.373 . S
C2027 C2011 1.377 . S
C2027 C2025 1.389 . S
C2027 C2028 1.524 . S
C2028 C2027 1.524 . S
C2028 C2029 1.397 . S
C2028 C2033 1.363 . S
C2029 H2000 0.950 . S
C2029 C2028 1.397 . S
C2029 C2030 1.334 . S
C2030 H2001 0.950 . S
C2030 C2029 1.334 . S
C2030 C2031 1.287 . S
C2031 C2030 1.287 . S
C2031 C2032 1.524 . S
C2031 H2034 0.999 . S
C2032 H2002 0.950 . S
C2032 C2031 1.524 . S
C2032 C2033 1.415 . S
C2033 H2003 0.950 . S
C2033 C2028 1.363 . S
C2033 C2032 1.415 . S
H2034 C2031 0.999 . S
H2035 C2016 0.913 . S
H2036 C2054 0.951 1_565 S
H2037 C2056 0.951 . S
H2038 C2058 0.950 . S
H2039 C2059 0.950 . S
H2040 C2061 0.950 . S
H2041 C2064 0.950 . S
H2042 C2065 0.950 . S
H2043 C2067 0.950 . S
H2044 C2068 0.950 . S
H2045 C2069 0.951 1_545 S
H2046 C2071 0.951 . S
H2047 C2073 0.950 . S
H2048 C2074 0.950 . S
H2049 C2076 0.950 . S
H2050 C2079 0.950 . S
H2051 C2080 0.950 . S
H2052 C2082 0.950 . S
H2053 C2083 0.950 . S
C2054 H2036 0.951 1_545 S
C2054 C2055 1.366 . S
C2054 C2056 1.388 1_545 S
C2055 C2054 1.366 . S
C2055 C2059 1.385 . S
C2056 H2037 0.951 . S
C2056 C2054 1.388 1_565 S
C2056 C2057 1.366 1_565 S
C2057 C2056 1.366 1_545 S
C2057 C2058 1.414 . S
C2057 C2060 1.499 . S
C2058 H2038 0.950 . S
C2058 C2057 1.414 . S
C2058 C2059 1.374 . S
C2059 H2039 0.950 . S
C2059 C2055 1.385 . S
C2059 C2058 1.374 . S
C2060 C2057 1.499 . S
C2060 C2061 1.373 . S
C2060 C2062 1.389 1_545 S
C2061 H2040 0.950 . S
C2061 C2060 1.373 . S
C2061 C2077 1.377 . S
C2062 C2060 1.389 1_565 S
C2062 C2063 1.524 . S
C2062 C2076 1.377 . S
C2063 C2062 1.524 . S
C2063 C2064 1.397 . S
C2063 C2068 1.363 . S
C2064 H2041 0.950 . S
C2064 C2063 1.397 . S
C2064 C2065 1.334 . S
C2065 H2042 0.950 . S
C2065 C2064 1.334 . S
C2065 C2066 1.287 . S
C2066 C2065 1.287 . S
C2066 C2067 1.524 . S
C2066 H2085 0.913 . S
C2067 H2043 0.950 . S
C2067 C2066 1.524 . S
C2067 C2068 1.415 . S
C2068 H2044 0.950 . S
C2068 C2063 1.363 . S
C2068 C2067 1.415 . S
C2069 H2045 0.951 1_565 S
C2069 C2070 1.366 . S
C2069 C2071 1.388 1_565 S
C2070 C2069 1.366 . S
C2070 C2074 1.385 . S
C2071 H2046 0.951 . S
C2071 C2069 1.388 1_545 S
C2071 C2072 1.366 1_545 S
C2072 C2071 1.366 1_565 S
C2072 C2073 1.414 . S
C2072 C2075 1.499 . S
C2073 H2047 0.950 . S
C2073 C2072 1.414 . S
C2073 C2074 1.374 . S
C2074 H2048 0.950 . S
C2074 C2070 1.385 . S
C2074 C2073 1.374 . S
C2075 C2072 1.499 . S
C2075 C2076 1.373 . S
C2075 C2077 1.389 1_565 S
C2076 H2049 0.950 . S
C2076 C2062 1.377 . S
C2076 C2075 1.373 . S
C2077 C2061 1.377 . S
C2077 C2075 1.389 1_545 S
C2077 C2078 1.524 . S
C2078 C2077 1.524 . S
C2078 C2079 1.397 . S
C2078 C2083 1.363 . S
C2079 H2050 0.950 . S
C2079 C2078 1.397 . S
C2079 C2080 1.334 . S
C2080 H2051 0.950 . S
C2080 C2079 1.334 . S
C2080 C2081 1.287 . S
C2081 C2080 1.287 . S
C2081 C2082 1.524 . S
C2081 H2084 0.999 . S
C2082 H2052 0.950 . S
C2082 C2081 1.524 . S
C2082 C2083 1.415 . S
C2083 H2053 0.950 . S
C2083 C2078 1.363 . S
C2083 C2082 1.415 . S
H2084 C2081 0.999 . S
H2085 C2066 0.913 . S
H2086 C2104 0.951 . S
H2087 C2106 0.951 . S
H2088 C2108 0.950 . S
H2089 C2109 0.950 . S
H2090 C2111 0.950 . S
H2091 C2114 0.950 . S
H2092 C2115 0.950 . S
H2093 C2117 0.950 . S
H2094 C2118 0.950 . S
H2095 C2119 0.951 . S
H2096 C2121 0.951 . S
H2097 C2123 0.950 . S
H2098 C2124 0.950 . S
H2099 C2126 0.950 . S
H2100 C2129 0.950 . S
H2101 C2130 0.950 . S
H2102 C2132 0.950 . S
H2103 C2133 0.950 . S
C2104 H2086 0.951 . S
C2104 C2105 1.366 . S
C2104 C2106 1.388 . S
C2105 C2104 1.366 . S
C2105 C2109 1.385 1_556 S
C2106 H2087 0.951 . S
C2106 C2104 1.388 . S
C2106 C2107 1.366 . S
C2107 C2106 1.366 . S
C2107 C2108 1.414 1_556 S
C2107 C2110 1.499 . S
C2108 H2088 0.950 . S
C2108 C2107 1.414 1_554 S
C2108 C2109 1.374 . S
C2109 H2089 0.950 . S
C2109 C2105 1.385 1_554 S
C2109 C2108 1.374 . S
C2110 C2107 1.499 . S
C2110 C2111 1.373 1_556 S
C2110 C2112 1.389 . S
C2111 H2090 0.950 . S
C2111 C2110 1.373 1_554 S
C2111 C2127 1.377 . S
C2112 C2110 1.389 . S
C2112 C2113 1.524 . S
C2112 C2126 1.377 . S
C2113 C2112 1.524 . S
C2113 C2114 1.397 . S
C2113 C2118 1.363 . S
C2114 H2091 0.950 . S
C2114 C2113 1.397 . S
C2114 C2115 1.334 . S
C2115 H2092 0.950 . S
C2115 C2114 1.334 . S
C2115 C2116 1.287 . S
C2116 C2115 1.287 . S
C2116 C2117 1.524 . S
C2116 H2135 0.913 . S
C2117 H2093 0.950 . S
C2117 C2116 1.524 . S
C2117 C2118 1.415 . S
C2118 H2094 0.950 . S
C2118 C2113 1.363 . S
C2118 C2117 1.415 . S
C2119 H2095 0.951 . S
C2119 C2120 1.366 . S
C2119 C2121 1.388 . S
C2120 C2119 1.366 . S
C2120 C2124 1.385 1_554 S
C2121 H2096 0.951 . S
C2121 C2119 1.388 . S
C2121 C2122 1.366 . S
C2122 C2121 1.366 . S
C2122 C2123 1.414 1_554 S
C2122 C2125 1.499 . S
C2123 H2097 0.950 . S
C2123 C2122 1.414 1_556 S
C2123 C2124 1.374 . S
C2124 H2098 0.950 . S
C2124 C2120 1.385 1_556 S
C2124 C2123 1.374 . S
C2125 C2122 1.499 . S
C2125 C2126 1.373 1_554 S
C2125 C2127 1.389 . S
C2126 H2099 0.950 . S
C2126 C2112 1.377 . S
C2126 C2125 1.373 1_556 S
C2127 C2111 1.377 . S
C2127 C2125 1.389 . S
C2127 C2128 1.524 . S
C2128 C2127 1.524 . S
C2128 C2129 1.397 . S
C2128 C2133 1.363 . S
C2129 H2100 0.950 . S
C2129 C2128 1.397 . S
C2129 C2130 1.334 . S
C2130 H2101 0.950 . S
C2130 C2129 1.334 . S
C2130 C2131 1.287 . S
C2131 C2130 1.287 . S
C2131 C2132 1.524 . S
C2131 H2134 0.999 . S
C2132 H2102 0.950 . S
C2132 C2131 1.524 . S
C2132 C2133 1.415 . S
C2133 H2103 0.950 . S
C2133 C2128 1.363 . S
C2133 C2132 1.415 . S
H2134 C2131 0.999 . S
H2135 C2116 0.913 . S
H2136 C2154 0.949 1_655 S
H2137 C2156 0.951 1_655 S
H2138 C2158 0.950 . S
H2139 C2159 0.950 . S
H2140 C2161 0.950 . S
H2141 C2164 0.950 . S
H2142 C2165 0.950 . S
H2143 C2167 0.950 . S
H2144 C2168 0.950 . S
H2145 C2169 0.951 . S
H2146 C2171 0.951 . S
H2147 C2173 0.946 1_655 S
H2148 C2174 0.945 1_655 S
H2149 C2176 0.950 . S
H2150 C2179 0.950 . S
H2151 C2180 0.950 . S
H2152 C2182 0.950 . S
H2153 C2183 0.950 . S
C2154 H2136 0.949 1_455 S
C2154 C2155 1.366 . S
C2154 C2156 1.388 . S
C2155 C2154 1.366 . S
C2155 C2159 1.385 . S
C2156 H2137 0.951 1_455 S
C2156 C2154 1.388 . S
C2156 C2157 1.366 . S
C2157 C2156 1.366 . S
C2157 C2158 1.414 . S
C2157 C2160 1.499 . S
C2158 H2138 0.950 . S
C2158 C2157 1.414 . S
C2158 C2159 1.374 . S
C2159 H2139 0.950 . S
C2159 C2155 1.385 . S
C2159 C2158 1.374 . S
C2160 C2157 1.499 . S
C2160 C2161 1.373 . S
C2160 C2162 1.389 1_455 S
C2161 H2140 0.950 . S
C2161 C2160 1.373 . S
C2161 C2177 1.377 1_565 S
C2162 C2160 1.389 1_655 S
C2162 C2163 1.524 . S
C2162 C2176 1.373 1_565 S
C2163 C2162 1.524 . S
C2163 C2164 1.397 . S
C2163 C2168 1.363 . S
C2164 H2141 0.950 . S
C2164 C2163 1.397 . S
C2164 C2165 1.334 . S
C2165 H2142 0.950 . S
C2165 C2164 1.334 . S
C2165 C2166 1.287 . S
C2166 C2165 1.287 . S
C2166 C2167 1.524 . S
C2166 H2185 0.913 . S
C2167 H2143 0.950 . S
C2167 C2166 1.524 . S
C2167 C2168 1.415 . S
C2168 H2144 0.950 . S
C2168 C2163 1.363 . S
C2168 C2167 1.415 . S
C2169 H2145 0.951 . S
C2169 C2170 1.366 . S
C2169 C2171 1.388 . S
C2170 C2169 1.366 . S
C2170 C2174 1.385 . S
C2171 H2146 0.951 . S
C2171 C2169 1.388 . S
C2171 C2172 1.366 . S
C2172 C2171 1.366 . S
C2172 C2173 1.414 . S
C2172 C2175 1.499 . S
C2173 H2147 0.946 1_455 S
C2173 C2172 1.414 . S
C2173 C2174 1.374 . S
C2174 H2148 0.945 1_455 S
C2174 C2170 1.385 . S
C2174 C2173 1.374 . S
C2175 C2172 1.499 . S
C2175 C2176 1.377 1_455 S
C2175 C2177 1.389 . S
C2176 H2149 0.950 . S
C2176 C2162 1.373 1_545 S
C2176 C2175 1.377 1_655 S
C2177 C2161 1.377 1_545 S
C2177 C2175 1.389 . S
C2177 C2178 1.524 . S
C2178 C2177 1.524 . S
C2178 C2179 1.397 . S
C2178 C2183 1.363 . S
C2179 H2150 0.950 . S
C2179 C2178 1.397 . S
C2179 C2180 1.334 . S
C2180 H2151 0.950 . S
C2180 C2179 1.334 . S
C2180 C2181 1.287 . S
C2181 C2180 1.287 . S
C2181 C2182 1.524 . S
C2181 H2184 0.999 . S
C2182 H2152 0.950 . S
C2182 C2181 1.524 . S
C2182 C2183 1.415 . S
C2183 H2153 0.950 . S
C2183 C2178 1.363 . S
C2183 C2182 1.415 . S
H2184 C2181 0.999 . S
H2185 C2166 0.913 . S
H2186 C2204 0.951 . S
H2187 C2206 0.951 . S
H2188 C2208 0.950 . S
H2189 C2209 0.950 . S
H2190 C2211 0.950 . S
H2191 C2214 0.950 . S
H2192 C2215 0.950 . S
H2193 C2217 0.950 . S
H2194 C2218 0.950 . S
H2195 C2219 0.951 . S
H2196 C2221 0.951 . S
H2197 C2223 0.950 . S
H2198 C2224 0.950 . S
H2199 C2226 0.950 . S
H2200 C2229 0.950 . S
H2201 C2230 0.950 . S
H2202 C2232 0.950 . S
H2203 C2233 0.950 . S
C2204 H2186 0.951 . S
C2204 C2205 1.366 1_455 S
C2204 C2206 1.388 . S
C2205 C2204 1.366 1_655 S
C2205 C2209 1.385 . S
C2206 H2187 0.951 . S
C2206 C2204 1.388 . S
C2206 C2207 1.366 1_455 S
C2207 C2206 1.366 1_655 S
C2207 C2208 1.414 . S
C2207 C2210 1.499 . S
C2208 H2188 0.950 . S
C2208 C2207 1.414 . S
C2208 C2209 1.374 . S
C2209 H2189 0.950 . S
C2209 C2205 1.385 . S
C2209 C2208 1.374 . S
C2210 C2207 1.499 . S
C2210 C2211 1.373 . S
C2210 C2212 1.389 1_655 S
C2211 H2190 0.950 . S
C2211 C2210 1.373 . S
C2211 C2227 1.377 . S
C2212 C2210 1.389 1_455 S
C2212 C2213 1.524 . S
C2212 C2226 1.377 . S
C2213 C2212 1.524 . S
C2213 C2214 1.397 . S
C2213 C2218 1.363 . S
C2214 H2191 0.950 . S
C2214 C2213 1.397 . S
C2214 C2215 1.334 . S
C2215 H2192 0.950 . S
C2215 C2214 1.334 . S
C2215 C2216 1.287 . S
C2216 C2215 1.287 . S
C2216 C2217 1.524 . S
C2216 H2235 0.913 . S
C2217 H2193 0.950 . S
C2217 C2216 1.524 . S
C2217 C2218 1.415 . S
C2218 H2194 0.950 . S
C2218 C2213 1.363 . S
C2218 C2217 1.415 . S
C2219 H2195 0.951 . S
C2219 C2220 1.366 . S
C2219 C2221 1.388 . S
C2220 C2219 1.366 . S
C2220 C2224 1.385 1_655 S
C2221 H2196 0.951 . S
C2221 C2219 1.388 . S
C2221 C2222 1.366 . S
C2222 C2221 1.366 . S
C2222 C2223 1.414 1_655 S
C2222 C2225 1.499 . S
C2223 H2197 0.950 . S
C2223 C2222 1.414 1_455 S
C2223 C2224 1.374 . S
C2224 H2198 0.950 . S
C2224 C2220 1.385 1_455 S
C2224 C2223 1.374 . S
C2225 C2222 1.499 . S
C2225 C2226 1.373 1_655 S
C2225 C2227 1.389 . S
C2226 H2199 0.950 . S
C2226 C2212 1.377 . S
C2226 C2225 1.373 1_455 S
C2227 C2211 1.377 . S
C2227 C2225 1.389 . S
C2227 C2228 1.524 . S
C2228 C2227 1.524 . S
C2228 C2229 1.397 . S
C2228 C2233 1.363 . S
C2229 H2200 0.950 . S
C2229 C2228 1.397 . S
C2229 C2230 1.334 . S
C2230 H2201 0.950 . S
C2230 C2229 1.334 . S
C2230 C2231 1.287 . S
C2231 C2230 1.287 . S
C2231 C2232 1.524 . S
C2231 H2234 0.999 . S
C2232 H2202 0.950 . S
C2232 C2231 1.524 . S
C2232 C2233 1.415 . S
C2233 H2203 0.950 . S
C2233 C2228 1.363 . S
C2233 C2232 1.415 . S
H2234 C2231 0.999 . S
H2235 C2216 0.913 . S
H2236 C2254 0.951 . S
H2237 C2256 0.951 . S
H2238 C2258 0.950 . S
H2239 C2259 0.950 . S
H2240 C2261 0.950 . S
H2241 C2264 0.950 . S
H2242 C2265 0.950 . S
H2243 C2267 0.950 . S
H2244 C2268 0.950 . S
H2245 C2269 0.951 . S
H2246 C2271 0.951 . S
H2247 C2273 0.950 . S
H2248 C2274 0.950 . S
H2249 C2276 0.952 . S
H2250 C2279 0.950 . S
H2251 C2280 0.950 . S
H2252 C2282 0.950 . S
H2253 C2283 0.950 . S
C2254 H2236 0.951 . S
C2254 C2255 1.366 . S
C2254 C2256 1.388 . S
C2255 C2254 1.366 . S
C2255 C2259 1.385 1_545 S
C2256 H2237 0.951 . S
C2256 C2254 1.388 . S
C2256 C2257 1.366 . S
C2257 C2256 1.366 . S
C2257 C2258 1.414 1_545 S
C2257 C2260 1.499 . S
C2258 H2238 0.950 . S
C2258 C2257 1.414 1_565 S
C2258 C2259 1.374 . S
C2259 H2239 0.950 . S
C2259 C2255 1.385 1_565 S
C2259 C2258 1.374 . S
C2260 C2257 1.499 . S
C2260 C2261 1.394 1_545 S
C2260 C2262 1.389 . S
C2261 H2240 0.950 . S
C2261 C2260 1.394 1_565 S
C2261 C2277 1.356 1_556 S
C2262 C2260 1.389 . S
C2262 C2263 1.524 . S
C2262 C2276 1.408 . S
C2263 C2262 1.524 . S
C2263 C2264 1.397 . S
C2263 C2268 1.363 . S
C2264 H2241 0.950 . S
C2264 C2263 1.397 . S
C2264 C2265 1.334 . S
C2265 H2242 0.950 . S
C2265 C2264 1.334 . S
C2265 C2266 1.287 . S
C2266 C2265 1.287 . S
C2266 C2267 1.524 . S
C2266 H2285 0.913 . S
C2267 H2243 0.950 . S
C2267 C2266 1.524 . S
C2267 C2268 1.415 . S
C2268 H2244 0.950 . S
C2268 C2263 1.363 . S
C2268 C2267 1.415 . S
C2269 H2245 0.951 . S
C2269 C2270 1.366 1_565 S
C2269 C2271 1.388 . S
C2270 C2269 1.366 1_545 S
C2270 C2274 1.385 . S
C2271 H2246 0.951 . S
C2271 C2269 1.388 . S
C2271 C2272 1.366 1_565 S
C2272 C2271 1.366 1_545 S
C2272 C2273 1.414 . S
C2272 C2275 1.499 . S
C2273 H2247 0.950 . S
C2273 C2272 1.414 . S
C2273 C2274 1.374 . S
C2274 H2248 0.950 . S
C2274 C2270 1.385 . S
C2274 C2273 1.374 . S
C2275 C2272 1.499 . S
C2275 C2276 1.341 1_554 S
C2275 C2277 1.389 1_545 S
C2276 H2249 0.952 . S
C2276 C2262 1.408 . S
C2276 C2275 1.341 1_556 S
C2277 C2261 1.356 1_554 S
C2277 C2275 1.389 1_565 S
C2277 C2278 1.524 . S
C2278 C2277 1.524 . S
C2278 C2279 1.397 . S
C2278 C2283 1.363 . S
C2279 H2250 0.950 . S
C2279 C2278 1.397 . S
C2279 C2280 1.334 . S
C2280 H2251 0.950 . S
C2280 C2279 1.334 . S
C2280 C2281 1.287 . S
C2281 C2280 1.287 . S
C2281 C2282 1.524 . S
C2281 H2284 0.999 . S
C2282 H2252 0.950 . S
C2282 C2281 1.524 . S
C2282 C2283 1.415 . S
C2283 H2253 0.950 . S
C2283 C2278 1.363 . S
C2283 C2282 1.415 . S
H2284 C2281 0.999 . S
H2285 C2266 0.913 . S
H2286 C2304 0.951 . S
H2287 C2306 0.951 . S
H2288 C2308 0.950 . S
H2289 C2309 0.950 . S
H2290 C2311 0.950 . S
H2291 C2314 0.950 . S
H2292 C2315 0.950 . S
H2293 C2317 0.950 . S
H2294 C2318 0.950 . S
H2295 C2319 0.951 . S
H2296 C2321 0.951 . S
H2297 C2323 0.950 . S
H2298 C2324 0.950 . S
H2299 C2326 0.950 . S
H2300 C2329 0.950 . S
H2301 C2330 0.950 . S
H2302 C2332 0.950 . S
H2303 C2333 0.950 . S
C2304 H2286 0.951 . S
C2304 C2305 1.366 . S
C2304 C2306 1.388 . S
C2305 C2304 1.366 . S
C2305 C2309 1.385 . S
C2306 H2287 0.951 . S
C2306 C2304 1.388 . S
C2306 C2307 1.366 . S
C2307 C2306 1.366 . S
C2307 C2308 1.414 . S
C2307 C2310 1.499 . S
C2308 H2288 0.950 . S
C2308 C2307 1.414 . S
C2308 C2309 1.374 . S
C2309 H2289 0.950 . S
C2309 C2305 1.385 . S
C2309 C2308 1.374 . S
C2310 C2307 1.499 . S
C2310 C2311 1.373 1_554 S
C2310 C2312 1.389 . S
C2311 H2290 0.950 . S
C2311 C2310 1.373 1_556 S
C2311 C2327 1.377 . S
C2312 C2310 1.389 . S
C2312 C2313 1.524 . S
C2312 C2326 1.377 . S
C2313 C2312 1.524 . S
C2313 C2314 1.397 . S
C2313 C2318 1.363 . S
C2314 H2291 0.950 . S
C2314 C2313 1.397 . S
C2314 C2315 1.334 . S
C2315 H2292 0.950 . S
C2315 C2314 1.334 . S
C2315 C2316 1.287 . S
C2316 C2315 1.287 . S
C2316 C2317 1.524 . S
C2316 H2335 0.913 . S
C2317 H2293 0.950 . S
C2317 C2316 1.524 . S
C2317 C2318 1.415 . S
C2318 H2294 0.950 . S
C2318 C2313 1.363 . S
C2318 C2317 1.415 . S
C2319 H2295 0.951 . S
C2319 C2320 1.366 . S
C2319 C2321 1.388 . S
C2320 C2319 1.366 . S
C2320 C2324 1.385 . S
C2321 H2296 0.951 . S
C2321 C2319 1.388 . S
C2321 C2322 1.366 . S
C2322 C2321 1.366 . S
C2322 C2323 1.414 . S
C2322 C2325 1.499 . S
C2323 H2297 0.950 . S
C2323 C2322 1.414 . S
C2323 C2324 1.374 . S
C2324 H2298 0.950 . S
C2324 C2320 1.385 . S
C2324 C2323 1.374 . S
C2325 C2322 1.499 . S
C2325 C2326 1.373 1_556 S
C2325 C2327 1.389 . S
C2326 H2299 0.950 . S
C2326 C2312 1.377 . S
C2326 C2325 1.373 1_554 S
C2327 C2311 1.377 . S
C2327 C2325 1.389 . S
C2327 C2328 1.524 . S
C2328 C2327 1.524 . S
C2328 C2329 1.397 . S
C2328 C2333 1.363 . S
C2329 H2300 0.950 . S
C2329 C2328 1.397 . S
C2329 C2330 1.334 . S
C2330 H2301 0.950 . S
C2330 C2329 1.334 . S
C2330 C2331 1.287 . S
C2331 C2330 1.287 . S
C2331 C2332 1.524 . S
C2331 H2334 0.999 . S
C2332 H2302 0.950 . S
C2332 C2331 1.524 . S
C2332 C2333 1.415 . S
C2333 H2303 0.950 . S
C2333 C2328 1.363 . S
C2333 C2332 1.415 . S
H2334 C2331 0.999 . S
H2335 C2316 0.913 . S
H2336 C2354 0.951 . S
H2337 C2356 0.951 . S
H2338 C2358 0.950 . S
H2339 C2359 0.950 . S
H2340 C2361 0.950 . S
H2341 C2364 0.981 . S
H2342 C2365 0.950 . S
H2343 C2367 0.950 . S
H2344 C2368 0.950 . S
H2345 C2369 0.951 . S
H2346 C2371 0.951 . S
H2347 C2373 0.950 . S
H2348 C2374 0.950 . S
H2349 C2376 0.950 . S
H2350 C2379 0.950 . S
H2351 C2380 0.950 . S
H2352 C2382 0.950 . S
H2353 C2383 0.950 . S
C2354 H2336 0.951 . S
C2354 C2355 1.366 1_545 S
C2354 C2356 1.388 . S
C2355 C2354 1.366 1_565 S
C2355 C2359 1.385 . S
C2356 H2337 0.951 . S
C2356 C2354 1.388 . S
C2356 C2357 1.366 1_545 S
C2357 C2356 1.366 1_565 S
C2357 C2358 1.414 . S
C2357 C2360 1.499 . S
C2358 H2338 0.950 . S
C2358 C2357 1.414 . S
C2358 C2359 1.374 . S
C2359 H2339 0.950 . S
C2359 C2355 1.385 . S
C2359 C2358 1.374 . S
C2360 C2357 1.499 . S
C2360 C2361 1.373 . S
C2360 C2362 1.389 1_565 S
C2361 H2340 0.950 . S
C2361 C2360 1.373 . S
C2361 C2377 1.377 . S
C2362 C2360 1.389 1_545 S
C2362 C2363 1.524 . S
C2362 C2376 1.377 . S
C2363 C2362 1.524 . S
C2363 C2364 1.397 . S
C2363 C2368 1.363 . S
C2364 H2341 0.981 . S
C2364 C2363 1.397 . S
C2364 C2365 1.334 . S
C2365 H2342 0.950 . S
C2365 C2364 1.334 . S
C2365 C2366 1.287 . S
C2366 C2365 1.287 . S
C2366 C2367 1.524 . S
C2366 H2385 0.913 . S
C2367 H2343 0.950 . S
C2367 C2366 1.524 . S
C2367 C2368 1.415 . S
C2368 H2344 0.950 . S
C2368 C2363 1.363 . S
C2368 C2367 1.415 . S
C2369 H2345 0.951 . S
C2369 C2370 1.366 . S
C2369 C2371 1.388 . S
C2370 C2369 1.366 . S
C2370 C2374 1.385 1_565 S
C2371 H2346 0.951 . S
C2371 C2369 1.388 . S
C2371 C2372 1.366 . S
C2372 C2371 1.366 . S
C2372 C2373 1.414 1_565 S
C2372 C2375 1.499 . S
C2373 H2347 0.950 . S
C2373 C2372 1.414 1_545 S
C2373 C2374 1.374 . S
C2374 H2348 0.950 . S
C2374 C2370 1.385 1_545 S
C2374 C2373 1.374 . S
C2375 C2372 1.499 . S
C2375 C2376 1.373 1_565 S
C2375 C2377 1.389 . S
C2376 H2349 0.950 . S
C2376 C2362 1.377 . S
C2376 C2375 1.373 1_545 S
C2377 C2361 1.377 . S
C2377 C2375 1.389 . S
C2377 C2378 1.524 . S
C2378 C2377 1.524 . S
C2378 C2379 1.397 . S
C2378 C2383 1.363 . S
C2379 H2350 0.950 . S
C2379 C2378 1.397 . S
C2379 C2380 1.334 . S
C2380 H2351 0.950 . S
C2380 C2379 1.334 . S
C2380 C2381 1.287 . S
C2381 C2380 1.287 . S
C2381 C2382 1.524 . S
C2381 H2384 0.999 . S
C2382 H2352 0.950 . S
C2382 C2381 1.524 . S
C2382 C2383 1.415 . S
C2383 H2353 0.950 . S
C2383 C2378 1.363 . S
C2383 C2382 1.415 . S
H2384 C2381 0.999 . S
H2385 C2366 0.913 . S
H2386 C2404 0.951 . S
H2387 C2406 0.951 . S
H2388 C2408 0.950 . S
H2389 C2409 0.950 . S
H2390 C2411 0.950 . S
H2391 C2414 0.950 . S
H2392 C2415 0.950 . S
H2393 C2417 0.950 . S
H2394 C2418 0.950 . S
H2395 C2419 0.951 . S
H2396 C2421 0.951 . S
H2397 C2423 0.950 . S
H2398 C2424 0.950 . S
H2399 C2426 0.950 . S
H2400 C2429 0.950 . S
H2401 C2430 0.950 . S
H2402 C2432 0.950 . S
H2403 C2433 0.950 . S
C2404 H2386 0.951 . S
C2404 C2405 1.366 . S
C2404 C2406 1.388 . S
C2405 C2404 1.366 . S
C2405 C2409 1.385 . S
C2406 H2387 0.951 . S
C2406 C2404 1.388 . S
C2406 C2407 1.366 . S
C2407 C2406 1.366 . S
C2407 C2408 1.414 . S
C2407 C2410 1.499 . S
C2408 H2388 0.950 . S
C2408 C2407 1.414 . S
C2408 C2409 1.374 . S
C2409 H2389 0.950 . S
C2409 C2405 1.385 . S
C2409 C2408 1.374 . S
C2410 C2407 1.499 . S
C2410 C2411 1.373 . S
C2410 C2412 1.389 . S
C2411 H2390 0.950 . S
C2411 C2410 1.373 . S
C2411 C2427 1.377 . S
C2412 C2410 1.389 . S
C2412 C2413 1.524 . S
C2412 C2426 1.377 . S
C2413 C2412 1.524 . S
C2413 C2414 1.397 . S
C2413 C2418 1.363 . S
C2414 H2391 0.950 . S
C2414 C2413 1.397 . S
C2414 C2415 1.334 . S
C2415 H2392 0.950 . S
C2415 C2414 1.334 . S
C2415 C2416 1.287 . S
C2416 C2415 1.287 . S
C2416 C2417 1.524 . S
C2416 H2435 0.913 . S
C2417 H2393 0.950 . S
C2417 C2416 1.524 . S
C2417 C2418 1.415 . S
C2418 H2394 0.950 . S
C2418 C2413 1.363 . S
C2418 C2417 1.415 . S
C2419 H2395 0.951 . S
C2419 C2420 1.366 . S
C2419 C2421 1.388 . S
C2420 C2419 1.366 . S
C2420 C2424 1.385 . S
C2421 H2396 0.951 . S
C2421 C2419 1.388 . S
C2421 C2422 1.366 . S
C2422 C2421 1.366 . S
C2422 C2423 1.414 . S
C2422 C2425 1.499 . S
C2423 H2397 0.950 . S
C2423 C2422 1.414 . S
C2423 C2424 1.374 . S
C2424 H2398 0.950 . S
C2424 C2420 1.385 . S
C2424 C2423 1.374 . S
C2425 C2422 1.499 . S
C2425 C2426 1.373 . S
C2425 C2427 1.389 . S
C2426 H2399 0.950 . S
C2426 C2412 1.377 . S
C2426 C2425 1.373 . S
C2427 C2411 1.377 . S
C2427 C2425 1.389 . S
C2427 C2428 1.524 . S
C2428 C2427 1.524 . S
C2428 C2429 1.397 . S
C2428 C2433 1.363 . S
C2429 H2400 0.950 . S
C2429 C2428 1.397 . S
C2429 C2430 1.334 . S
C2430 H2401 0.950 . S
C2430 C2429 1.334 . S
C2430 C2431 1.287 . S
C2431 C2430 1.287 . S
C2431 C2432 1.524 . S
C2431 H2434 0.999 . S
C2432 H2402 0.950 . S
C2432 C2431 1.524 . S
C2432 C2433 1.415 . S
C2433 H2403 0.950 . S
C2433 C2428 1.363 . S
C2433 C2432 1.415 . S
H2434 C2431 0.999 . S
H2435 C2416 0.913 . S
H2436 C2454 0.951 . S
H2437 C2456 0.951 . S
H2438 C2458 0.950 . S
H2439 C2459 0.950 . S
H2440 C2461 0.950 . S
H2441 C2464 0.950 . S
H2442 C2465 0.950 . S
H2443 C2467 0.950 . S
H2444 C2468 0.950 . S
H2445 C2469 0.951 . S
H2446 C2471 0.951 . S
H2447 C2473 0.950 . S
H2448 C2474 0.950 . S
H2449 C2476 0.950 . S
H2450 C2479 0.950 . S
H2451 C2480 0.950 . S
H2452 C2482 0.950 . S
H2453 C2483 0.950 . S
C2454 H2436 0.951 . S
C2454 C2455 1.366 . S
C2454 C2456 1.388 . S
C2455 C2454 1.366 . S
C2455 C2459 1.385 . S
C2456 H2437 0.951 . S
C2456 C2454 1.388 . S
C2456 C2457 1.366 . S
C2457 C2456 1.366 . S
C2457 C2458 1.414 . S
C2457 C2460 1.499 . S
C2458 H2438 0.950 . S
C2458 C2457 1.414 . S
C2458 C2459 1.374 . S
C2459 H2439 0.950 . S
C2459 C2455 1.385 . S
C2459 C2458 1.374 . S
C2460 C2457 1.499 . S
C2460 C2461 1.373 1_455 S
C2460 C2462 1.389 1_554 S
C2461 H2440 0.950 . S
C2461 C2460 1.373 1_655 S
C2461 C2477 1.377 . S
C2462 C2460 1.389 1_556 S
C2462 C2463 1.524 . S
C2462 C2476 1.377 . S
C2463 C2462 1.524 . S
C2463 C2464 1.397 . S
C2463 C2468 1.363 . S
C2464 H2441 0.950 . S
C2464 C2463 1.397 . S
C2464 C2465 1.334 . S
C2465 H2442 0.950 . S
C2465 C2464 1.334 . S
C2465 C2466 1.287 . S
C2466 C2465 1.287 . S
C2466 C2467 1.524 . S
C2466 H2485 0.913 . S
C2467 H2443 0.950 . S
C2467 C2466 1.524 . S
C2467 C2468 1.415 . S
C2468 H2444 0.950 . S
C2468 C2463 1.363 . S
C2468 C2467 1.415 . S
C2469 H2445 0.951 . S
C2469 C2470 1.366 . S
C2469 C2471 1.388 . S
C2470 C2469 1.366 . S
C2470 C2474 1.385 . S
C2471 H2446 0.951 . S
C2471 C2469 1.388 . S
C2471 C2472 1.366 . S
C2472 C2471 1.366 . S
C2472 C2473 1.414 . S
C2472 C2475 1.499 . S
C2473 H2447 0.950 . S
C2473 C2472 1.414 . S
C2473 C2474 1.374 . S
C2474 H2448 0.950 . S
C2474 C2470 1.385 . S
C2474 C2473 1.374 . S
C2475 C2472 1.499 . S
C2475 C2476 1.373 1_654 S
C2475 C2477 1.389 . S
C2476 H2449 0.950 . S
C2476 C2462 1.377 . S
C2476 C2475 1.373 1_456 S
C2477 C2461 1.377 . S
C2477 C2475 1.389 . S
C2477 C2478 1.524 . S
C2478 C2477 1.524 . S
C2478 C2479 1.397 . S
C2478 C2483 1.363 . S
C2479 H2450 0.950 . S
C2479 C2478 1.397 . S
C2479 C2480 1.334 . S
C2480 H2451 0.950 . S
C2480 C2479 1.334 . S
C2480 C2481 1.287 . S
C2481 C2480 1.287 . S
C2481 C2482 1.524 . S
C2481 H2484 0.999 . S
C2482 H2452 0.950 . S
C2482 C2481 1.524 . S
C2482 C2483 1.415 . S
C2483 H2453 0.950 . S
C2483 C2478 1.363 . S
C2483 C2482 1.415 . S
H2484 C2481 0.999 . S
H2485 C2466 0.913 . S
H2486 C2504 0.951 . S
H2487 C2506 0.951 . S
H2488 C2508 0.950 . S
H2489 C2509 0.950 . S
H2490 C2511 0.950 . S
H2491 C2514 0.950 1_655 S
H2492 C2515 0.950 . S
H2493 C2517 0.950 . S
H2494 C2518 0.950 . S
H2495 C2519 0.951 . S
H2496 C2521 0.951 . S
H2497 C2523 0.950 . S
H2498 C2524 0.950 . S
H2499 C2526 0.950 . S
H2500 C2529 0.948 1_455 S
H2501 C2530 0.950 . S
H2502 C2532 0.950 . S
H2503 C2533 0.950 . S
C2504 H2486 0.951 . S
C2504 C2505 1.366 . S
C2504 C2506 1.388 . S
C2505 C2504 1.366 . S
C2505 C2509 1.385 . S
C2506 H2487 0.951 . S
C2506 C2504 1.388 . S
C2506 C2507 1.366 . S
C2507 C2506 1.366 . S
C2507 C2508 1.414 . S
C2507 C2510 1.499 . S
C2508 H2488 0.950 . S
C2508 C2507 1.414 . S
C2508 C2509 1.374 . S
C2509 H2489 0.950 . S
C2509 C2505 1.385 . S
C2509 C2508 1.374 . S
C2510 C2507 1.499 . S
C2510 C2511 1.373 . S
C2510 C2512 1.389 . S
C2511 H2490 0.950 . S
C2511 C2510 1.373 . S
C2511 C2527 1.377 1_455 S
C2512 C2510 1.389 . S
C2512 C2513 1.524 . S
C2512 C2526 1.377 1_455 S
C2513 C2512 1.524 . S
C2513 C2514 1.397 . S
C2513 C2518 1.363 . S
C2514 H2491 0.950 1_455 S
C2514 C2513 1.397 . S
C2514 C2515 1.334 . S
C2515 H2492 0.950 . S
C2515 C2514 1.334 . S
C2515 C2516 1.287 . S
C2516 C2515 1.287 . S
C2516 C2517 1.524 . S
C2516 H2535 0.913 . S
C2517 H2493 0.950 . S
C2517 C2516 1.524 . S
C2517 C2518 1.415 . S
C2518 H2494 0.950 . S
C2518 C2513 1.363 . S
C2518 C2517 1.415 . S
C2519 H2495 0.951 . S
C2519 C2520 1.366 . S
C2519 C2521 1.388 . S
C2520 C2519 1.366 . S
C2520 C2524 1.385 . S
C2521 H2496 0.951 . S
C2521 C2519 1.388 . S
C2521 C2522 1.366 . S
C2522 C2521 1.366 . S
C2522 C2523 1.414 . S
C2522 C2525 1.499 . S
C2523 H2497 0.950 . S
C2523 C2522 1.414 . S
C2523 C2524 1.374 . S
C2524 H2498 0.950 . S
C2524 C2520 1.385 . S
C2524 C2523 1.374 . S
C2525 C2522 1.499 . S
C2525 C2526 1.373 . S
C2525 C2527 1.389 . S
C2526 H2499 0.950 . S
C2526 C2512 1.377 1_655 S
C2526 C2525 1.373 . S
C2527 C2511 1.377 1_655 S
C2527 C2525 1.389 . S
C2527 C2528 1.524 . S
C2528 C2527 1.524 . S
C2528 C2529 1.397 . S
C2528 C2533 1.363 . S
C2529 H2500 0.948 1_655 S
C2529 C2528 1.397 . S
C2529 C2530 1.334 . S
C2530 H2501 0.950 . S
C2530 C2529 1.334 . S
C2530 C2531 1.287 . S
C2531 C2530 1.287 . S
C2531 C2532 1.524 . S
C2531 H2534 0.999 . S
C2532 H2502 0.950 . S
C2532 C2531 1.524 . S
C2532 C2533 1.415 . S
C2533 H2503 0.950 . S
C2533 C2528 1.363 . S
C2533 C2532 1.415 . S
H2534 C2531 0.999 . S
H2535 C2516 0.913 . S
H2536 C2554 0.951 . S
H2537 C2556 0.951 . S
H2538 C2558 0.950 . S
H2539 C2559 0.950 . S
H2540 C2561 0.950 . S
H2541 C2564 0.950 . S
H2542 C2565 0.950 . S
H2543 C2567 0.950 . S
H2544 C2568 0.950 . S
H2545 C2569 0.951 . S
H2546 C2571 0.951 . S
H2547 C2573 0.950 . S
H2548 C2574 0.950 . S
H2549 C2576 0.950 . S
H2550 C2579 0.950 . S
H2551 C2580 0.950 . S
H2552 C2582 0.950 . S
H2553 C2583 0.950 . S
C2554 H2536 0.951 . S
C2554 C2555 1.366 . S
C2554 C2556 1.388 . S
C2555 C2554 1.366 . S
C2555 C2559 1.385 . S
C2556 H2537 0.951 . S
C2556 C2554 1.388 . S
C2556 C2557 1.366 . S
C2557 C2556 1.366 . S
C2557 C2558 1.414 . S
C2557 C2560 1.499 . S
C2558 H2538 0.950 . S
C2558 C2557 1.414 . S
C2558 C2559 1.374 . S
C2559 H2539 0.950 . S
C2559 C2555 1.385 . S
C2559 C2558 1.374 . S
C2560 C2557 1.499 . S
C2560 C2561 1.373 . S
C2560 C2562 1.389 . S
C2561 H2540 0.950 . S
C2561 C2560 1.373 . S
C2561 C2577 1.377 . S
C2562 C2560 1.389 . S
C2562 C2563 1.524 . S
C2562 C2576 1.377 . S
C2563 C2562 1.524 . S
C2563 C2564 1.397 . S
C2563 C2568 1.363 . S
C2564 H2541 0.950 . S
C2564 C2563 1.397 . S
C2564 C2565 1.334 . S
C2565 H2542 0.950 . S
C2565 C2564 1.334 . S
C2565 C2566 1.287 . S
C2566 C2565 1.287 . S
C2566 C2567 1.524 . S
C2566 H2585 0.913 . S
C2567 H2543 0.950 . S
C2567 C2566 1.524 . S
C2567 C2568 1.415 . S
C2568 H2544 0.950 . S
C2568 C2563 1.363 . S
C2568 C2567 1.415 . S
C2569 H2545 0.951 . S
C2569 C2570 1.366 . S
C2569 C2571 1.388 . S
C2570 C2569 1.366 . S
C2570 C2574 1.385 . S
C2571 H2546 0.951 . S
C2571 C2569 1.388 . S
C2571 C2572 1.366 . S
C2572 C2571 1.366 . S
C2572 C2573 1.414 . S
C2572 C2575 1.499 . S
C2573 H2547 0.950 . S
C2573 C2572 1.414 . S
C2573 C2574 1.374 . S
C2574 H2548 0.950 . S
C2574 C2570 1.385 . S
C2574 C2573 1.374 . S
C2575 C2572 1.499 . S
C2575 C2576 1.373 . S
C2575 C2577 1.389 . S
C2576 H2549 0.950 . S
C2576 C2562 1.377 . S
C2576 C2575 1.373 . S
C2577 C2561 1.377 . S
C2577 C2575 1.389 . S
C2577 C2578 1.524 . S
C2578 C2577 1.524 . S
C2578 C2579 1.397 . S
C2578 C2583 1.363 . S
C2579 H2550 0.950 . S
C2579 C2578 1.397 . S
C2579 C2580 1.334 . S
C2580 H2551 0.950 . S
C2580 C2579 1.334 . S
C2580 C2581 1.287 . S
C2581 C2580 1.287 . S
C2581 C2582 1.524 . S
C2581 H2584 0.999 . S
C2582 H2552 0.950 . S
C2582 C2581 1.524 . S
C2582 C2583 1.415 . S
C2583 H2553 0.950 . S
C2583 C2578 1.363 . S
C2583 C2582 1.415 . S
H2584 C2581 0.999 . S
H2585 C2566 0.913 . S
H2586 C2604 0.951 . S
H2587 C2606 0.951 . S
H2588 C2608 0.950 . S
H2589 C2609 0.950 . S
H2590 C2611 0.950 . S
H2591 C2614 0.950 . S
H2592 C2615 0.950 . S
H2593 C2617 0.950 . S
H2594 C2618 0.950 . S
H2595 C2619 0.951 . S
H2596 C2621 0.951 . S
H2597 C2623 0.950 . S
H2598 C2624 0.950 . S
H2599 C2626 0.950 . S
H2600 C2629 0.950 . S
H2601 C2630 0.950 . S
H2602 C2632 0.950 . S
H2603 C2633 0.950 . S
C2604 H2586 0.951 . S
C2604 C2605 1.366 . S
C2604 C2606 1.388 . S
C2605 C2604 1.366 . S
C2605 C2609 1.385 . S
C2606 H2587 0.951 . S
C2606 C2604 1.388 . S
C2606 C2607 1.366 . S
C2607 C2606 1.366 . S
C2607 C2608 1.414 . S
C2607 C2610 1.499 . S
C2608 H2588 0.950 . S
C2608 C2607 1.414 . S
C2608 C2609 1.374 . S
C2609 H2589 0.950 . S
C2609 C2605 1.385 . S
C2609 C2608 1.374 . S
C2610 C2607 1.499 . S
C2610 C2611 1.373 . S
C2610 C2612 1.389 . S
C2611 H2590 0.950 . S
C2611 C2610 1.373 . S
C2611 C2627 1.377 . S
C2612 C2610 1.389 . S
C2612 C2613 1.524 . S
C2612 C2626 1.377 . S
C2613 C2612 1.524 . S
C2613 C2614 1.397 . S
C2613 C2618 1.363 . S
C2614 H2591 0.950 . S
C2614 C2613 1.397 . S
C2614 C2615 1.334 . S
C2615 H2592 0.950 . S
C2615 C2614 1.334 . S
C2615 C2616 1.287 . S
C2616 C2615 1.287 . S
C2616 C2617 1.524 . S
C2616 H2635 0.913 . S
C2617 H2593 0.950 . S
C2617 C2616 1.524 . S
C2617 C2618 1.415 . S
C2618 H2594 0.950 . S
C2618 C2613 1.363 . S
C2618 C2617 1.415 . S
C2619 H2595 0.951 . S
C2619 C2620 1.366 . S
C2619 C2621 1.388 . S
C2620 C2619 1.366 . S
C2620 C2624 1.385 . S
C2621 H2596 0.951 . S
C2621 C2619 1.388 . S
C2621 C2622 1.366 . S
C2622 C2621 1.366 . S
C2622 C2623 1.414 . S
C2622 C2625 1.499 . S
C2623 H2597 0.950 . S
C2623 C2622 1.414 . S
C2623 C2624 1.374 . S
C2624 H2598 0.950 . S
C2624 C2620 1.385 . S
C2624 C2623 1.374 . S
C2625 C2622 1.499 . S
C2625 C2626 1.373 . S
C2625 C2627 1.389 . S
C2626 H2599 0.950 . S
C2626 C2612 1.377 . S
C2626 C2625 1.373 . S
C2627 C2611 1.377 . S
C2627 C2625 1.389 . S
C2627 C2628 1.524 . S
C2628 C2627 1.524 . S
C2628 C2629 1.397 . S
C2628 C2633 1.363 . S
C2629 H2600 0.950 . S
C2629 C2628 1.397 . S
C2629 C2630 1.334 . S
C2630 H2601 0.950 . S
C2630 C2629 1.334 . S
C2630 C2631 1.287 . S
C2631 C2630 1.287 . S
C2631 C2632 1.524 . S
C2631 H2634 0.999 . S
C2632 H2602 0.950 . S
C2632 C2631 1.524 . S
C2632 C2633 1.415 . S
C2633 H2603 0.950 . S
C2633 C2628 1.363 . S
C2633 C2632 1.415 . S
H2634 C2631 0.999 . S
H2635 C2616 0.913 . S
H2636 C2654 0.951 . S
H2637 C2656 0.951 . S
H2638 C2658 0.950 . S
H2639 C2659 0.950 . S
H2640 C2661 0.950 . S
H2641 C2664 0.950 . S
H2642 C2665 0.950 . S
H2643 C2667 0.950 . S
H2644 C2668 0.950 . S
H2645 C2669 0.951 . S
H2646 C2671 0.951 . S
H2647 C2673 0.950 . S
H2648 C2674 0.950 . S
H2649 C2676 0.950 . S
H2650 C2679 0.950 . S
H2651 C2680 0.950 . S
H2652 C2682 0.950 . S
H2653 C2683 0.950 . S
C2654 H2636 0.951 . S
C2654 C2655 1.366 . S
C2654 C2656 1.388 . S
C2655 C2654 1.366 . S
C2655 C2659 1.385 . S
C2656 H2637 0.951 . S
C2656 C2654 1.388 . S
C2656 C2657 1.366 . S
C2657 C2656 1.366 . S
C2657 C2658 1.414 . S
C2657 C2660 1.499 . S
C2658 H2638 0.950 . S
C2658 C2657 1.414 . S
C2658 C2659 1.374 . S
C2659 H2639 0.950 . S
C2659 C2655 1.385 . S
C2659 C2658 1.374 . S
C2660 C2657 1.499 . S
C2660 C2661 1.373 . S
C2660 C2662 1.389 1_565 S
C2661 H2640 0.950 . S
C2661 C2660 1.373 . S
C2661 C2677 1.377 . S
C2662 C2660 1.389 1_545 S
C2662 C2663 1.524 . S
C2662 C2676 1.377 . S
C2663 C2662 1.524 . S
C2663 C2664 1.397 . S
C2663 C2668 1.363 . S
C2664 H2641 0.950 . S
C2664 C2663 1.397 . S
C2664 C2665 1.334 . S
C2665 H2642 0.950 . S
C2665 C2664 1.334 . S
C2665 C2666 1.287 . S
C2666 C2665 1.287 . S
C2666 C2667 1.524 . S
C2666 H2685 0.913 . S
C2667 H2643 0.950 . S
C2667 C2666 1.524 . S
C2667 C2668 1.415 . S
C2668 H2644 0.950 . S
C2668 C2663 1.363 . S
C2668 C2667 1.415 . S
C2669 H2645 0.951 . S
C2669 C2670 1.366 . S
C2669 C2671 1.388 . S
C2670 C2669 1.366 . S
C2670 C2674 1.385 . S
C2671 H2646 0.951 . S
C2671 C2669 1.388 . S
C2671 C2672 1.366 . S
C2672 C2671 1.366 . S
C2672 C2673 1.414 . S
C2672 C2675 1.499 . S
C2673 H2647 0.950 . S
C2673 C2672 1.414 . S
C2673 C2674 1.374 . S
C2674 H2648 0.950 . S
C2674 C2670 1.385 . S
C2674 C2673 1.374 . S
C2675 C2672 1.499 . S
C2675 C2676 1.373 . S
C2675 C2677 1.389 1_545 S
C2676 H2649 0.950 . S
C2676 C2662 1.377 . S
C2676 C2675 1.373 . S
C2677 C2661 1.377 . S
C2677 C2675 1.389 1_565 S
C2677 C2678 1.524 . S
C2678 C2677 1.524 . S
C2678 C2679 1.397 . S
C2678 C2683 1.363 . S
C2679 H2650 0.950 . S
C2679 C2678 1.397 . S
C2679 C2680 1.334 . S
C2680 H2651 0.950 . S
C2680 C2679 1.334 . S
C2680 C2681 1.287 . S
C2681 C2680 1.287 . S
C2681 C2682 1.524 . S
C2681 H2684 0.999 . S
C2682 H2652 0.950 . S
C2682 C2681 1.524 . S
C2682 C2683 1.415 . S
C2683 H2653 0.950 . S
C2683 C2678 1.363 . S
C2683 C2682 1.415 . S
H2684 C2681 0.999 . S
H2685 C2666 0.913 . S
H2686 C2704 0.951 . S
H2687 C2706 0.951 . S
H2688 C2708 0.950 . S
H2689 C2709 0.950 . S
H2690 C2711 0.950 . S
H2691 C2714 0.950 . S
H2692 C2715 0.950 . S
H2693 C2717 0.950 . S
H2694 C2718 0.950 . S
H2695 C2719 0.951 . S
H2696 C2721 0.951 . S
H2697 C2723 0.950 . S
H2698 C2724 0.950 . S
H2699 C2726 0.950 1_554 S
H2700 C2729 0.950 . S
H2701 C2730 0.950 . S
H2702 C2732 0.950 . S
H2703 C2733 0.950 . S
C2704 H2686 0.951 . S
C2704 C2705 1.366 1_554 S
C2704 C2706 1.388 . S
C2705 C2704 1.366 1_556 S
C2705 C2709 1.385 . S
C2706 H2687 0.951 . S
C2706 C2704 1.388 . S
C2706 C2707 1.366 1_554 S
C2707 C2706 1.366 1_556 S
C2707 C2708 1.414 . S
C2707 C2710 1.499 . S
C2708 H2688 0.950 . S
C2708 C2707 1.414 . S
C2708 C2709 1.374 . S
C2709 H2689 0.950 . S
C2709 C2705 1.385 . S
C2709 C2708 1.374 . S
C2710 C2707 1.499 . S
C2710 C2711 1.373 . S
C2710 C2712 1.389 . S
C2711 H2690 0.950 . S
C2711 C2710 1.373 . S
C2711 C2727 1.377 . S
C2712 C2710 1.389 . S
C2712 C2713 1.530 . S
C2712 C2726 1.377 . S
C2713 C2712 1.530 . S
C2713 C2714 1.430 . S
C2713 C2718 1.328 1_556 S
C2714 H2691 0.950 . S
C2714 C2713 1.430 . S
C2714 C2715 1.334 . S
C2715 H2692 0.950 . S
C2715 C2714 1.334 . S
C2715 C2716 1.287 . S
C2716 C2715 1.287 . S
C2716 C2717 1.524 1_556 S
C2716 H2735 0.914 . S
C2717 H2693 0.950 . S
C2717 C2716 1.524 1_554 S
C2717 C2718 1.415 . S
C2718 H2694 0.950 . S
C2718 C2713 1.328 1_554 S
C2718 C2717 1.415 . S
C2719 H2695 0.951 . S
C2719 C2720 1.366 . S
C2719 C2721 1.388 . S
C2720 C2719 1.366 . S
C2720 C2724 1.385 1_556 S
C2721 H2696 0.951 . S
C2721 C2719 1.388 . S
C2721 C2722 1.366 . S
C2722 C2721 1.366 . S
C2722 C2723 1.414 1_556 S
C2722 C2725 1.499 . S
C2723 H2697 0.950 . S
C2723 C2722 1.414 1_554 S
C2723 C2724 1.374 . S
C2724 H2698 0.950 . S
C2724 C2720 1.385 1_554 S
C2724 C2723 1.374 . S
C2725 C2722 1.499 . S
C2725 C2726 1.373 . S
C2725 C2727 1.389 . S
C2726 H2699 0.950 1_556 S
C2726 C2712 1.377 . S
C2726 C2725 1.373 . S
C2727 C2711 1.377 . S
C2727 C2725 1.389 . S
C2727 C2728 1.524 . S
C2728 C2727 1.524 . S
C2728 C2729 1.397 1_556 S
C2728 C2733 1.363 . S
C2729 H2700 0.950 . S
C2729 C2728 1.397 1_554 S
C2729 C2730 1.334 . S
C2730 H2701 0.950 . S
C2730 C2729 1.334 . S
C2730 C2731 1.287 1_554 S
C2731 C2730 1.287 1_556 S
C2731 C2732 1.524 . S
C2731 H2734 0.999 . S
C2732 H2702 0.950 . S
C2732 C2731 1.524 . S
C2732 C2733 1.415 . S
C2733 H2703 0.950 . S
C2733 C2728 1.363 . S
C2733 C2732 1.415 . S
H2734 C2731 0.999 . S
H2735 C2716 0.914 . S
C355 C246 0.598 . S
C370 C7 0.361 . S
C405 C21 0.361 . S
C420 C232 0.608 . S
C455 C35 0.391 . S
C470 C274 0.598 . S
C505 C49 0.382 . S
C520 C260 0.605 . S
C555 C63 0.366 . S
C570 C302 0.598 . S
C605 C77 0.376 . S
C620 C316 0.598 . S
C655 C288 0.612 . S
C670 C91 0.357 . S
C705 C162 0.605 . S
C720 C105 0.371 . S
C755 C119 0.368 . S
C770 C50 0.595 . S
C805 C22 0.590 . S
C820 C133 0.375 . S
C855 C147 0.404 . S
C870 C8 0.599 . S
C905 C161 0.371 . S
C920 C204 0.607 . S
C955 C78 0.606 . S
C970 C175 0.396 . S
C1005 C64 0.591 . S
C1020 C189 0.401 . S
C1055 C203 0.371 . S
C1070 C106 0.606 . S
C1105 C217 0.376 . S
C1120 C92 0.598 . S
C1155 C134 0.607 . S
C1170 C231 0.396 . S
C1205 C148 0.606 . S
C1220 C245 0.379 . S
C1255 C120 0.593 . S
C1270 C259 0.399 . S
C1305 C273 0.389 . S
C1320 C330 0.599 . S
C1355 C218 0.604 . S
C1370 C287 0.397 . S
C1405 C301 0.383 . S
C1420 C190 0.607 . S
C1455 C176 0.612 . S
C1470 C315 0.356 . S
C1505 C329 0.391 . S
C1520 C36 0.596 . S
C1555 C11 1.583 . S
C1570 C25 1.582 . S
C1605 C53 1.565 . S
C1620 C39 1.568 . S
C1655 C67 1.584 . S
C1670 C95 1.583 . S
C1705 C81 1.604 . S
C1720 C109 1.602 . S
C1755 C319 1.581 . S
C1770 C123 1.585 . S
C1805 C137 1.604 . S
C1820 C165 1.602 . S
C1855 C291 1.583 . S
C1870 C151 1.585 . S
C1905 C193 1.585 . S
C1920 C179 1.583 . S
C1955 C207 1.602 . S
C1970 C221 1.604 . S
C2005 C263 1.586 . S
C2020 C235 1.583 . S
C2055 C249 1.565 . S
C2070 C277 1.569 . S
C2105 C333 1.567 . S
C2120 C305 1.566 . S
C2155 C41 1.139 . S
C2170 C13 1.140 . S
C2205 C27 1.168 . S
C2220 C55 1.168 . S
C2255 C279 1.138 . S
C2270 C69 1.138 . S
C2305 C83 1.151 . S
C2320 C265 1.151 . S
C2355 C97 1.168 . S
C2370 C251 1.168 . S
C2405 C237 1.179 . S
C2420 C111 1.180 . S
C2455 C125 1.139 . S
C2470 C335 1.139 . S
C2505 C139 1.153 . S
C2520 C153 1.153 . S
C2555 C293 1.180 . S
C2570 C167 1.181 . S
C2605 C181 1.179 . S
C2620 C209 1.179 . S
C2655 C195 1.153 . S
C2670 C223 1.153 . S
C2705 C321 1.169 . S
C2720 C307 1.168 . S
