# Generated by pormake.
# Topology smb, (6)-cn, num edge types: 1
# Building blocks:
#     Node 0, Type 0, BuildingBlock: OJICUG_clean_sbu_0, # of connection points: 6
#     Node 1, Type 0, BuildingBlock: OJICUG_clean_sbu_0, # of connection points: 6
#     Node 2, Type 0, BuildingBlock: OJICUG_clean_sbu_0, # of connection points: 6
#     Node 3, Type 0, BuildingBlock: OJICUG_clean_sbu_0, # of connection points: 6
#     Node 4, Type 0, BuildingBlock: OJICUG_clean_sbu_0, # of connection points: 6
#     Node 5, Type 0, BuildingBlock: OJICUG_clean_sbu_0, # of connection points: 6
#     Node 6, Type 0, BuildingBlock: OJICUG_clean_sbu_0, # of connection points: 6
#     Node 7, Type 0, BuildingBlock: OJICUG_clean_sbu_0, # of connection points: 6
#     Node 8, Type 0, BuildingBlock: OJICUG_clean_sbu_0, # of connection points: 6
#     Edge 9, Type (0, 0), BuildingBlock: TEMPAE_clean_linker_10, # of connection points: 2
#     Edge 10, Type (0, 0), BuildingBlock: TEMPAE_clean_linker_10, # of connection points: 2
#     Edge 11, Type (0, 0), BuildingBlock: TEMPAE_clean_linker_10, # of connection points: 2
#     Edge 12, Type (0, 0), BuildingBlock: TEMPAE_clean_linker_10, # of connection points: 2
#     Edge 13, Type (0, 0), BuildingBlock: TEMPAE_clean_linker_10, # of connection points: 2
#     Edge 14, Type (0, 0), BuildingBlock: TEMPAE_clean_linker_10, # of connection points: 2
#     Edge 15, Type (0, 0), BuildingBlock: TEMPAE_clean_linker_10, # of connection points: 2
#     Edge 16, Type (0, 0), BuildingBlock: TEMPAE_clean_linker_10, # of connection points: 2
#     Edge 17, Type (0, 0), BuildingBlock: TEMPAE_clean_linker_10, # of connection points: 2
#     Edge 18, Type (0, 0), BuildingBlock: TEMPAE_clean_linker_10, # of connection points: 2
#     Edge 19, Type (0, 0), BuildingBlock: TEMPAE_clean_linker_10, # of connection points: 2
#     Edge 20, Type (0, 0), BuildingBlock: TEMPAE_clean_linker_10, # of connection points: 2
#     Edge 21, Type (0, 0), BuildingBlock: TEMPAE_clean_linker_10, # of connection points: 2
#     Edge 22, Type (0, 0), BuildingBlock: TEMPAE_clean_linker_10, # of connection points: 2
#     Edge 23, Type (0, 0), BuildingBlock: TEMPAE_clean_linker_10, # of connection points: 2
#     Edge 24, Type (0, 0), BuildingBlock: TEMPAE_clean_linker_10, # of connection points: 2
#     Edge 25, Type (0, 0), BuildingBlock: TEMPAE_clean_linker_10, # of connection points: 2
#     Edge 26, Type (0, 0), BuildingBlock: TEMPAE_clean_linker_10, # of connection points: 2
#     Edge 27, Type (0, 0), BuildingBlock: TEMPAE_clean_linker_10, # of connection points: 2
#     Edge 28, Type (0, 0), BuildingBlock: TEMPAE_clean_linker_10, # of connection points: 2
#     Edge 29, Type (0, 0), BuildingBlock: TEMPAE_clean_linker_10, # of connection points: 2
#     Edge 30, Type (0, 0), BuildingBlock: TEMPAE_clean_linker_10, # of connection points: 2
#     Edge 31, Type (0, 0), BuildingBlock: TEMPAE_clean_linker_10, # of connection points: 2
#     Edge 32, Type (0, 0), BuildingBlock: TEMPAE_clean_linker_10, # of connection points: 2
#     Edge 33, Type (0, 0), BuildingBlock: TEMPAE_clean_linker_10, # of connection points: 2
#     Edge 34, Type (0, 0), BuildingBlock: TEMPAE_clean_linker_10, # of connection points: 2
#     Edge 35, Type (0, 0), BuildingBlock: TEMPAE_clean_linker_10, # of connection points: 2
# Relax obj value: 0.341
# Max RMSD: 0.254
# Mean RMSD: 0.254
data_MOF--net-smb--node1-OJICUG_clean_sbu_0--edge1-TEMPAE_clean_linker_10
_symmetry_space_group_name_H-M    P1
_symmetry_Int_Tables_number       1
_symmetry_cell_setting            triclinic
loop_
_symmetry_equiv_pos_as_xyz
'x, y, z'
_cell_length_a     40.375746
_cell_length_b     40.313022
_cell_length_c     28.398649
_cell_angle_alpha  89.93739
_cell_angle_beta   90.015733
_cell_angle_gamma 119.93294
loop_
_atom_site_label
_atom_site_type_symbol
_atom_site_fract_x
_atom_site_fract_y
_atom_site_fract_z
_atom_type_partial_charge
Sc0 Sc 0.33645 0.15723 0.00363 0.0
Sc1 Sc 0.42345 0.19635 0.94019 0.0
Sc2 Sc 0.42452 0.19936 0.0636 0.0
O3 O 0.39474 0.18424 0.00237 0.0
C4 C 0.36101 0.22224 0.0819 0.0
C5 C 0.3561 0.2135 0.91632 0.0
C6 C 0.47563 0.27156 0.99795 0.0
C7 C 0.35367 0.11248 0.9231 0.0
C8 C 0.35373 0.11792 0.08997 0.0
C9 C 0.47211 0.17111 0.00461 0.0
O10 O 0.33585 0.19741 0.05458 0.0
O11 O 0.38831 0.21636 0.90795 0.0
O12 O 0.46597 0.2548 0.03758 0.0
O13 O 0.33134 0.11567 0.95202 0.0
O14 O 0.38663 0.14636 0.09751 0.0
O15 O 0.4631 0.17937 0.96521 0.0
O16 O 0.33228 0.11667 0.0565 0.0
O17 O 0.3879 0.13872 0.91573 0.0
O18 O 0.45893 0.17467 0.04369 0.0
O19 O 0.33436 0.19358 0.94978 0.0
O20 O 0.39372 0.22587 0.0881 0.0
O21 O 0.46213 0.25468 0.95908 0.0
Sc22 Sc 0.83702 0.15837 0.01221 0.0
Sc23 Sc 0.79195 0.20427 0.95833 0.0
Sc24 Sc 0.79557 0.20075 0.08201 0.0
O25 O 0.8082 0.18781 0.0175 0.0
C26 C 0.77957 0.11572 0.09713 0.0
C27 C 0.77565 0.12093 0.92997 0.0
C28 C 0.71927 0.17724 0.02476 0.0
C29 C 0.8753 0.22088 0.93092 0.0
C30 C 0.88002 0.2157 0.09704 0.0
C31 C 0.81807 0.27701 0.02489 0.0
O32 O 0.8005 0.11609 0.06347 0.0
O33 O 0.77029 0.14922 0.92523 0.0
O34 O 0.73756 0.18306 0.06309 0.0
O35 O 0.87517 0.19643 0.95933 0.0
O36 O 0.85192 0.22 0.10782 0.0
O37 O 0.81128 0.26105 0.98475 0.0
O38 O 0.87938 0.19463 0.06339 0.0
O39 O 0.84763 0.22721 0.92665 0.0
O40 O 0.81359 0.25904 0.06326 0.0
O41 O 0.79894 0.12024 0.95948 0.0
O42 O 0.77581 0.14417 0.10792 0.0
O43 O 0.73485 0.1833 0.98441 0.0
Sc44 Sc 0.83257 0.65829 0.0077 0.0
Sc45 Sc 0.78789 0.56993 0.94816 0.0
Sc46 Sc 0.79447 0.57178 0.07088 0.0
O47 O 0.80507 0.60016 0.00882 0.0
C48 C 0.87671 0.64382 0.08999 0.0
C49 C 0.87076 0.63738 0.92224 0.0
C50 C 0.8175 0.52251 0.00896 0.0
C51 C 0.77175 0.63833 0.92644 0.0
C52 C 0.77253 0.63527 0.09255 0.0
C53 C 0.7181 0.51894 0.01277 0.0
O54 O 0.87673 0.66324 0.05483 0.0
O55 O 0.84418 0.60274 0.91847 0.0
O56 O 0.8206 0.53956 0.04767 0.0
O57 O 0.79282 0.66 0.95913 0.0
O58 O 0.76768 0.60186 0.09771 0.0
O59 O 0.73071 0.53524 0.97338 0.0
O60 O 0.79645 0.65994 0.06379 0.0
O61 O 0.76858 0.6061 0.91705 0.0
O62 O 0.73887 0.52667 0.04928 0.0
O63 O 0.86951 0.66114 0.95076 0.0
O64 O 0.8481 0.61206 0.10155 0.0
O65 O 0.80339 0.52846 0.97195 0.0
Sc66 Sc 0.00378 0.49531 0.33707 0.0
Sc67 Sc 0.09418 0.53979 0.28147 0.0
Sc68 Sc 0.08811 0.53655 0.40517 0.0
O69 O 0.06202 0.52386 0.34118 0.0
C70 C 0.0203 0.55417 0.42098 0.0
C71 C 0.02693 0.5559 0.25384 0.0
C72 C 0.14185 0.61245 0.34672 0.0
C73 C 0.02676 0.4561 0.2557 0.0
C74 C 0.01797 0.4529 0.42279 0.0
C75 C 0.14101 0.51345 0.34728 0.0
O76 O -0.00092 0.53279 0.388 0.0
O77 O 0.06061 0.56158 0.24882 0.0
O78 O 0.12891 0.59437 0.38516 0.0
O79 O 0.00296 0.45643 0.28473 0.0
O80 O 0.05067 0.48082 0.4326 0.0
O81 O 0.13242 0.5214 0.30742 0.0
O82 O -0.00252 0.45327 0.38909 0.0
O83 O 0.06065 0.4838 0.2506 0.0
O84 O 0.12672 0.51647 0.38579 0.0
O85 O 0.00331 0.53273 0.2837 0.0
O86 O 0.05251 0.5577 0.43117 0.0
O87 O 0.13157 0.59672 0.30656 0.0
Sc88 Sc 0.50025 0.48563 0.36388 0.0
Sc89 Sc 0.45725 0.53109 0.30393 0.0
Sc90 Sc 0.45957 0.53144 0.42799 0.0
O91 O 0.47238 0.5161 0.36523 0.0
C92 C 0.44156 0.44647 0.44871 0.0
C93 C 0.43928 0.44587 0.28153 0.0
C94 C 0.38431 0.50863 0.3683 0.0
C95 C 0.54038 0.5451 0.27953 0.0
C96 C 0.54316 0.54477 0.44674 0.0
C97 C 0.48393 0.60621 0.36678 0.0
O98 O 0.46332 0.44575 0.4169 0.0
O99 O 0.43542 0.47481 0.27336 0.0
O100 O 0.40241 0.5154 0.40693 0.0
O101 O 0.53912 0.52116 0.30969 0.0
O102 O 0.51514 0.54961 0.45609 0.0
O103 O 0.47686 0.58896 0.32741 0.0
O104 O 0.54273 0.52317 0.41393 0.0
O105 O 0.51328 0.55215 0.2736 0.0
O106 O 0.47958 0.5894 0.40606 0.0
O107 O 0.46154 0.44581 0.31311 0.0
O108 O 0.43766 0.4753 0.45655 0.0
O109 O 0.39986 0.51206 0.32828 0.0
Sc110 Sc 0.50559 0.99224 0.34048 0.0
Sc111 Sc 0.45679 0.90142 0.28694 0.0
Sc112 Sc 0.46916 0.90843 0.40929 0.0
O113 O 0.47727 0.93415 0.3455 0.0
C114 C 0.55286 0.98001 0.42107 0.0
C115 C 0.53929 0.96649 0.25496 0.0
C116 C 0.48656 0.85426 0.348 0.0
C117 C 0.44195 0.97029 0.26238 0.0
C118 C 0.45045 0.9748 0.4293 0.0
C119 C 0.38947 0.85522 0.35765 0.0
O120 O 0.55124 -0.00116 0.38621 0.0
O121 O 0.51205 0.93196 0.25333 0.0
O122 O 0.49156 0.87274 0.38603 0.0
O123 O 0.46483 0.99306 0.29298 0.0
O124 O 0.44624 0.94191 0.43734 0.0
O125 O 0.40064 0.8689 0.31667 0.0
O126 O 0.47193 0.99708 0.39692 0.0
O127 O 0.43721 0.93716 0.25498 0.0
O128 O 0.4117 0.86432 0.39291 0.0
O129 O 0.53982 0.99159 0.28267 0.0
O130 O 0.52501 0.94831 0.43424 0.0
O131 O 0.47191 0.85988 0.31132 0.0
Sc132 Sc 0.66821 0.8282 0.67493 0.0
Sc133 Sc 0.75993 0.87044 0.62376 0.0
Sc134 Sc 0.75047 0.87056 0.74666 0.0
O135 O 0.72615 0.85638 0.68172 0.0
C136 C 0.68064 0.88577 0.75804 0.0
C137 C 0.69569 0.88892 0.59074 0.0
C138 C 0.80526 0.94481 0.68872 0.0
C139 C 0.69174 0.78744 0.59692 0.0
C140 C 0.68172 0.78627 0.76237 0.0
C141 C 0.8045 0.8456 0.69364 0.0
O142 O 0.66224 0.86696 0.72204 0.0
O143 O 0.72983 0.89527 0.5894 0.0
O144 O 0.78794 0.92906 0.72672 0.0
O145 O 0.66804 0.78764 0.6261 0.0
O146 O 0.71496 0.81361 0.77167 0.0
O147 O 0.79308 0.84721 0.65253 0.0
O148 O 0.66067 0.78752 0.72984 0.0
O149 O 0.72531 0.81543 0.59117 0.0
O150 O 0.79353 0.85547 0.73031 0.0
O151 O 0.67029 0.86473 0.61836 0.0
O152 O 0.71139 0.88769 0.77184 0.0
O153 O 0.79952 0.92673 0.65014 0.0
Sc154 Sc 0.16513 0.82383 0.66453 0.0
Sc155 Sc 0.12605 0.8765 0.61287 0.0
Sc156 Sc 0.12336 0.86464 0.7356 0.0
O157 O 0.13827 0.85502 0.67089 0.0
C158 C 0.1058 0.77879 0.74619 0.0
C159 C 0.10591 0.79326 0.57895 0.0
C160 C 0.05082 0.84823 0.67611 0.0
C161 C 0.20852 0.88858 0.58739 0.0
C162 C 0.20624 0.8773 0.75351 0.0
C163 C 0.15046 0.94495 0.68432 0.0
O164 O 0.12494 0.779 0.71063 0.0
O165 O 0.10057 0.82177 0.57745 0.0
O166 O 0.0657 0.84544 0.71422 0.0
O167 O 0.20693 0.86388 0.61644 0.0
O168 O 0.17937 0.88409 0.76214 0.0
O169 O 0.14963 0.93284 0.6428 0.0
O170 O 0.20517 0.85538 0.72058 0.0
O171 O 0.1815 0.89573 0.58145 0.0
O172 O 0.13995 0.9232 0.72019 0.0
O173 O 0.12909 0.79081 0.6071 0.0
O174 O 0.10447 0.80794 0.76 0.0
O175 O 0.06958 0.86093 0.63797 0.0
Sc176 Sc 0.16584 0.3264 0.67885 0.0
Sc177 Sc 0.11393 0.23493 0.62746 0.0
Sc178 Sc 0.1271 0.24357 0.74984 0.0
O179 O 0.13559 0.26838 0.68535 0.0
C180 C 0.2127 0.31218 0.75841 0.0
C181 C 0.19689 0.29755 0.5939 0.0
C182 C 0.1417 0.18676 0.68925 0.0
C183 C 0.10163 0.30521 0.60172 0.0
C184 C 0.11334 0.31332 0.76903 0.0
C185 C 0.0462 0.19209 0.6995 0.0
O186 O 0.21126 0.33132 0.72376 0.0
O187 O 0.1689 0.26343 0.59305 0.0
O188 O 0.1462 0.20497 0.72736 0.0
O189 O 0.1253 0.32811 0.63165 0.0
O190 O 0.10777 0.28004 0.77782 0.0
O191 O 0.05793 0.20387 0.65798 0.0
O192 O 0.13433 0.3342 0.73548 0.0
O193 O 0.09566 0.27153 0.59519 0.0
O194 O 0.06832 0.20186 0.735 0.0
O195 O 0.19859 0.3235 0.62093 0.0
O196 O 0.18422 0.28137 0.77271 0.0
O197 O 0.12802 0.1929 0.6521 0.0
C198 C 0.3022 0.05814 0.87892 0.0
C199 C 0.33925 0.07631 0.89723 0.0
C200 C 0.2878 0.02351 0.85451 0.0
C201 C 0.31064 0.00603 0.84985 0.0
C202 C 0.3481 0.02421 0.86856 0.0
C203 C 0.36222 0.05957 0.8915 0.0
C204 C 0.24801 0.00558 0.83394 0.0
C205 C 0.37274 0.00588 0.86552 0.0
C206 C 0.24271 0.90213 0.82707 0.0
C207 C 0.24225 0.90194 0.77785 0.0
C208 C 0.26906 0.93483 0.85175 0.0
C209 C 0.29422 0.96826 0.82623 0.0
C210 C 0.29678 0.96654 0.77664 0.0
C211 C 0.27088 0.93298 0.75296 0.0
C212 C 0.26649 0.93505 0.90474 0.0
C213 C 0.32288 0.00154 0.74797 0.0
H214 H 0.28466 0.07135 0.88316 0.0
H215 H 0.39082 0.07362 0.9062 0.0
H216 H 0.24867 -0.00041 0.79592 0.0
H217 H 0.22912 0.97788 0.85166 0.0
H218 H 0.23515 0.0242 0.83793 0.0
H219 H 0.40217 0.02504 0.87876 0.0
H220 H 0.35963 0.97915 0.88668 0.0
H221 H 0.37445 -0.00219 0.82866 0.0
H222 H 0.22026 0.87807 0.84612 0.0
H223 H 0.26999 0.93286 0.71477 0.0
H224 H 0.24948 0.94858 0.91517 0.0
H225 H 0.29528 0.95191 0.92072 0.0
H226 H 0.25235 0.90556 0.91942 0.0
H227 H 0.30977 0.01995 0.74469 0.0
H228 H 0.32741 0.99377 0.71197 0.0
H229 H 0.35103 0.01867 0.76533 0.0
C230 C 0.92718 0.22538 0.88009 0.0
C231 C 0.9099 0.24361 0.90268 0.0
C232 C 0.96197 0.24662 0.85642 0.0
C233 C 0.98055 0.28719 0.8569 0.0
C234 C 0.96268 0.30574 0.87874 0.0
C235 C 0.92716 0.28358 0.90099 0.0
C236 C 0.97943 0.22554 0.8323 0.0
C237 C 0.98186 0.34881 0.88097 0.0
C238 C 0.08447 0.31997 0.84242 0.0
C239 C 0.08794 0.32384 0.79346 0.0
C240 C 0.05087 0.31344 0.86493 0.0
C241 C 0.0198 0.30929 0.83734 0.0
C242 C 0.02509 0.31801 0.78865 0.0
C243 C 0.05953 0.32567 0.76725 0.0
C244 C 0.04692 0.30595 0.91727 0.0
C245 C 0.99279 0.314 0.75795 0.0
H246 H 0.91353 0.19442 0.88128 0.0
H247 H 0.91377 0.29757 0.91901 0.0
H248 H 0.98757 0.23591 0.7956 0.0
H249 H 0.0058 0.23112 0.85111 0.0
H250 H 0.95961 0.19411 0.83141 0.0
H251 H 0.96138 0.35854 0.89045 0.0
H252 H 0.00466 0.35951 0.90811 0.0
H253 H 0.99559 0.36202 0.84692 0.0
H254 H 0.10656 0.31853 0.86255 0.0
H255 H 0.06217 0.32829 0.72922 0.0
H256 H 0.0309 0.2746 0.92365 0.0
H257 H 0.03069 0.31839 0.93387 0.0
H258 H 0.07524 0.31799 0.93471 0.0
H259 H 0.97347 0.28325 0.74995 0.0
H260 H 0.00349 0.3296 0.72409 0.0
H261 H 0.97568 0.32472 0.77615 0.0
C262 C 0.67134 0.74759 0.83396 0.0
C263 C 0.6713 0.74966 0.78483 0.0
C264 C 0.67778 0.72037 0.85648 0.0
C265 C 0.68593 0.69605 0.82892 0.0
C266 C 0.68139 0.69513 0.7794 0.0
C267 C 0.67361 0.72184 0.75788 0.0
C268 C 0.68079 0.72115 0.90948 0.0
C269 C 0.69005 0.66992 0.74859 0.0
C270 C 0.76837 0.68852 0.88006 0.0
C271 C 0.74992 0.65139 0.89833 0.0
C272 C 0.74791 0.70254 0.85541 0.0
C273 C 0.70773 0.67924 0.85054 0.0
C274 C 0.68898 0.6414 0.86844 0.0
C275 C 0.71051 0.62768 0.89167 0.0
C276 C 0.76929 0.74269 0.83557 0.0
C277 C 0.64618 0.61612 0.86506 0.0
H278 H 0.66975 0.76936 0.85462 0.0
H279 H 0.67409 0.72394 0.71976 0.0
H280 H 0.66865 0.69176 0.92388 0.0
H281 H 0.71134 0.73755 0.91983 0.0
H282 H 0.66579 0.73506 0.92576 0.0
H283 H 0.6772 0.66625 0.71302 0.0
H284 H 0.72148 0.68335 0.74441 0.0
H285 H 0.67949 0.64132 0.76472 0.0
H286 H 0.79894 0.7066 0.88508 0.0
H287 H 0.69635 0.599 0.90635 0.0
H288 H 0.76069 0.76125 0.85452 0.0
H289 H 0.7621 0.74262 0.79784 0.0
H290 H 0.80077 0.7556 0.83876 0.0
H291 H 0.63226 0.62681 0.88963 0.0
H292 H 0.6368 0.58591 0.8743 0.0
H293 H 0.63594 0.61702 0.8291 0.0
C294 C 0.04532 0.71776 0.74221 0.0
C295 C 0.07798 0.74251 0.76798 0.0
C296 C 0.01102 0.6929 0.76537 0.0
C297 C 0.01003 0.69249 0.81525 0.0
C298 C 0.04439 0.71362 0.84099 0.0
C299 C 0.07795 0.73899 0.81697 0.0
C300 C 0.97507 0.67118 0.73653 0.0
C301 C 0.04482 0.71307 0.89412 0.0
C302 C 0.92489 0.6884 0.8767 0.0
C303 C 0.90515 0.65055 0.89277 0.0
C304 C 0.95829 0.70181 0.84994 0.0
C305 C 0.9729 0.67702 0.84021 0.0
C306 C 0.9529 0.63863 0.85601 0.0
C307 C 0.91891 0.62568 0.88171 0.0
C308 C 0.97829 0.74279 0.83278 0.0
C309 C 0.968 0.61168 0.84711 0.0
H310 H 0.04532 0.72108 0.70429 0.0
H311 H 0.10325 0.7585 0.83676 0.0
H312 H 0.95602 0.6424 0.7516 0.0
H313 H 0.9592 0.6871 0.73675 0.0
H314 H 0.98157 0.66794 0.69936 0.0
H315 H 0.07423 0.72447 0.9081 0.0
H316 H 0.03332 0.73107 0.90786 0.0
H317 H 0.02647 0.68359 0.90773 0.0
H318 H 0.91404 0.70751 0.88486 0.0
H319 H 0.90375 0.59643 0.89449 0.0
H320 H 0.9835 0.74383 0.79431 0.0
H321 H 0.00651 0.75921 0.85028 0.0
H322 H 0.96154 0.75725 0.84006 0.0
H323 H 0.97437 0.6114 0.80917 0.0
H324 H 0.94755 0.58195 0.8585 0.0
H325 H 0.99521 0.62179 0.86656 0.0
C326 C 0.2554 0.32266 0.82577 0.0
C327 C 0.24981 0.32035 0.77704 0.0
C328 C 0.28192 0.31415 0.84606 0.0
C329 C 0.3019 0.30157 0.81683 0.0
C330 C 0.29949 0.30352 0.76725 0.0
C331 C 0.27366 0.31346 0.74785 0.0
C332 C 0.28484 0.31394 0.89903 0.0
C333 C 0.3199 0.29002 0.73473 0.0
C334 C 0.36909 0.27364 0.8756 0.0
C335 C 0.34365 0.23525 0.88685 0.0
C336 C 0.35633 0.29575 0.85176 0.0
C337 C 0.31755 0.27856 0.83799 0.0
C338 C 0.29234 0.23917 0.8472 0.0
C339 C 0.30557 0.21819 0.87228 0.0
C340 C 0.38379 0.33775 0.84352 0.0
C341 C 0.25098 0.21937 0.8319 0.0
H342 H 0.23668 0.3278 0.8482 0.0
H343 H 0.26881 0.31115 0.7101 0.0
H344 H 0.26736 0.28416 0.91217 0.0
H345 H 0.31481 0.32462 0.9102 0.0
H346 H 0.27423 0.33175 0.91583 0.0
H347 H 0.32211 0.30128 0.69842 0.0
H348 H 0.34899 0.29873 0.7478 0.0
H349 H 0.30361 0.25827 0.7331 0.0
H350 H 0.39853 0.28682 0.88734 0.0
H351 H 0.28608 0.18838 0.88073 0.0
H352 H 0.37658 0.35489 0.86759 0.0
H353 H 0.38131 0.34605 0.807 0.0
H354 H 0.41391 0.34538 0.85003 0.0
H355 H 0.23535 0.23061 0.85245 0.0
H356 H 0.23647 0.18787 0.83707 0.0
H357 H 0.24888 0.22526 0.79418 0.0
C358 C 0.67702 0.94477 0.75375 0.0
C359 C 0.67128 0.91293 0.78001 0.0
C360 C 0.68563 0.97909 0.77635 0.0
C361 C 0.68752 0.98086 0.82616 0.0
C362 C 0.67593 0.94698 0.85255 0.0
C363 C 0.66868 0.91346 0.82907 0.0
C364 C 0.69799 0.0145 0.74681 0.0
C365 C 0.6761 0.94729 0.90569 0.0
C366 C 0.77066 0.06665 0.88337 0.0
C367 C 0.75339 0.08684 0.90053 0.0
C368 C 0.74965 0.03294 0.85754 0.0
C369 C 0.71006 0.01846 0.84988 0.0
C370 C 0.69252 0.03904 0.86662 0.0
C371 C 0.7146 0.07338 0.89138 0.0
C372 C 0.76976 0.01239 0.83933 0.0
C373 C 0.65029 0.02405 0.86022 0.0
H374 H 0.67949 0.94437 0.71574 0.0
H375 H 0.66437 0.88874 0.84924 0.0
H376 H 0.6881 0.03327 0.76234 0.0
H377 H 0.72969 0.03105 0.74541 0.0
H378 H 0.68706 0.00716 0.71018 0.0
H379 H 0.65872 0.91798 0.92038 0.0
H380 H 0.70588 0.95929 0.9185 0.0
H381 H 0.66494 0.96558 0.91945 0.0
H382 H 0.80074 0.07731 0.89019 0.0
H383 H 0.70121 0.08891 0.90517 0.0
H384 H 0.76417 0.00651 0.80115 0.0
H385 H 0.75854 0.98444 0.85752 0.0
H386 H 0.80116 0.02912 0.84492 0.0
H387 H 0.64149 0.01461 0.8234 0.0
H388 H 0.64217 0.04583 0.86942 0.0
H389 H 0.63401 -0.00129 0.88321 0.0
C390 C 0.94465 0.27168 0.09154 0.0
C391 C 0.91648 0.24249 0.11924 0.0
C392 C 0.97139 0.3066 0.11196 0.0
C393 C 0.9701 0.31165 0.16114 0.0
C394 C 0.9454 0.28008 0.18975 0.0
C395 C 0.91825 0.24596 0.16828 0.0
C396 C -0.00283 0.33945 0.08012 0.0
C397 C 0.94417 0.28383 0.2425 0.0
C398 C 0.03788 0.40517 0.2226 0.0
C399 C 0.01436 0.42134 0.22743 0.0
C400 C 0.02443 0.36973 0.2 0.0
C401 C 0.98704 0.35083 0.181 0.0
C402 C 0.96406 0.36828 0.18372 0.0
C403 C 0.97781 0.40302 0.20763 0.0
C404 C 0.04942 0.35172 0.19872 0.0
C405 C 0.92438 0.34968 0.1627 0.0
H406 H 0.94288 0.26902 0.05348 0.0
H407 H 0.89629 0.22328 0.18955 0.0
H408 H 0.9842 0.35775 0.07413 0.0
H409 H 0.02562 0.35755 0.0964 0.0
H410 H 0.001 0.32917 0.04537 0.0
H411 H 0.92967 0.2554 0.26008 0.0
H412 H 0.97343 0.30097 0.25711 0.0
H413 H 0.9282 0.29884 0.25111 0.0
H414 H 0.0661 0.41935 0.23839 0.0
H415 H 0.95985 0.41583 0.21114 0.0
H416 H 0.0483 0.33909 0.16368 0.0
H417 H 0.03875 0.32816 0.22491 0.0
H418 H 0.07965 0.3727 0.20728 0.0
H419 H 0.92505 0.34179 0.12543 0.0
H420 H 0.91181 0.36869 0.16408 0.0
H421 H 0.90524 0.32297 0.18219 0.0
C422 C 0.58778 0.60319 0.23474 0.0
C423 C 0.57519 0.56572 0.25038 0.0
C424 C 0.62172 0.62334 0.20855 0.0
C425 C 0.64286 0.60513 0.19681 0.0
C426 C 0.62985 0.56707 0.21198 0.0
C427 C 0.5965 0.54808 0.23907 0.0
C428 C 0.63518 0.66411 0.19393 0.0
C429 C 0.65103 0.54621 0.19936 0.0
C430 C 0.70911 0.6293 0.09287 0.0
C431 C 0.74411 0.64212 0.11576 0.0
C432 C 0.67599 0.62033 0.11846 0.0
C433 C 0.67831 0.62498 0.168 0.0
C434 C 0.71451 0.6422 0.19038 0.0
C435 C 0.74703 0.64991 0.16402 0.0
C436 C 0.63805 0.60146 0.09315 0.0
C437 C 0.71837 0.64871 0.24289 0.0
H438 H 0.57155 0.61706 0.2439 0.0
H439 H 0.58673 0.51905 0.25088 0.0
H440 H 0.66428 0.68324 0.208 0.0
H441 H 0.63709 0.66661 0.15501 0.0
H442 H 0.61584 0.67439 0.20663 0.0
H443 H 0.63638 0.51629 0.21264 0.0
H444 H 0.65388 0.54561 0.16055 0.0
H445 H 0.68029 0.5615 0.21433 0.0
H446 H 0.70689 0.62251 0.05562 0.0
H447 H 0.77407 0.6592 0.18171 0.0
H448 H 0.61943 0.61243 0.10612 0.0
H449 H 0.6231 0.57019 0.10012 0.0
H450 H 0.64162 0.60597 0.05446 0.0
H451 H 0.69962 0.65969 0.25544 0.0
H452 H 0.74833 0.66923 0.25315 0.0
H453 H 0.70941 0.62114 0.2611 0.0
C454 C 0.34361 0.05244 0.09139 0.0
C455 C 0.34443 0.08291 0.116 0.0
C456 C 0.3511 0.02616 0.11467 0.0
C457 C 0.35856 0.03021 0.16368 0.0
C458 C 0.35392 0.05769 0.18945 0.0
C459 C 0.34767 0.08432 0.16508 0.0
C460 C 0.35603 -0.00246 0.08575 0.0
C461 C 0.36023 0.06203 0.24199 0.0
C462 C 0.38046 0.96171 0.23104 0.0
C463 C 0.42037 0.98346 0.23396 0.0
C464 C 0.35958 0.97611 0.20762 0.0
C465 C 0.37938 0.01252 0.18578 0.0
C466 C 0.4199 0.03366 0.18698 0.0
C467 C 0.43982 0.01912 0.21179 0.0
C468 C 0.31649 0.95323 0.20816 0.0
C469 C 0.44228 0.07212 0.16294 0.0
H470 H 0.34161 0.05178 0.05326 0.0
H471 H 0.34845 0.10808 0.18394 0.0
H472 H 0.38697 0.00875 0.07951 0.0
H473 H 0.34465 0.96984 0.10453 0.0
H474 H 0.34162 0.99243 0.05101 0.0
H475 H 0.34793 0.07873 0.25775 0.0
H476 H 0.34735 0.03364 0.25945 0.0
H477 H 0.39136 0.07728 0.24941 0.0
H478 H 0.36556 0.93422 0.24874 0.0
H479 H 0.47075 0.03566 0.21397 0.0
H480 H 0.3047 0.9523 0.1726 0.0
H481 H 0.30542 0.96728 0.23197 0.0
H482 H 0.30568 0.92345 0.22069 0.0
H483 H 0.43378 0.06975 0.12539 0.0
H484 H 0.47363 0.08358 0.16469 0.0
H485 H 0.43588 0.09311 0.17977 0.0
C486 C 0.72474 0.05009 0.09149 0.0
C487 C 0.75254 0.07929 0.11951 0.0
C488 C 0.68969 0.02269 0.11106 0.0
C489 C 0.68305 0.02443 0.15972 0.0
C490 C 0.71332 0.05044 0.18899 0.0
C491 C 0.7476 0.07809 0.16834 0.0
C492 C 0.6583 0.99538 0.07862 0.0
C493 C 0.7079 0.05231 0.24132 0.0
C494 C 0.58968 0.01378 0.20235 0.0
C495 C 0.57292 0.97817 0.22479 0.0
C496 C 0.62437 0.02785 0.17829 0.0
C497 C 0.64333 0.00622 0.17802 0.0
C498 C 0.6257 0.96946 0.19902 0.0
C499 C 0.59033 0.95563 0.22185 0.0
C500 C 0.64157 0.06676 0.15513 0.0
C501 C 0.64516 0.94579 0.20009 0.0
H502 H 0.72851 0.05133 0.05358 0.0
H503 H 0.76921 0.10079 0.18988 0.0
H504 H 0.6407 0.96702 0.0955 0.0
H505 H 0.63921 0.00705 0.07039 0.0
H506 H 0.66998 0.99151 0.04495 0.0
H507 H 0.73569 0.06848 0.25997 0.0
H508 H 0.69118 0.0669 0.24775 0.0
H509 H 0.69173 0.02315 0.25664 0.0
H510 H 0.57593 0.03097 0.20442 0.0
H511 H 0.57737 0.92816 0.23965 0.0
H512 H 0.65026 0.06539 0.11845 0.0
H513 H 0.66759 0.08746 0.17461 0.0
H514 H 0.62139 0.07796 0.1544 0.0
H515 H 0.65916 0.94727 0.16593 0.0
H516 H 0.62476 0.91532 0.20853 0.0
H517 H 0.66775 0.95731 0.2275 0.0
C518 C 0.03658 0.61734 0.22047 0.0
C519 C 0.01435 0.57745 0.22429 0.0
C520 C 0.02234 0.63844 0.19723 0.0
C521 C 0.98553 0.61885 0.17663 0.0
C522 C 0.96405 0.57829 0.17822 0.0
C523 C 0.97851 0.55816 0.20274 0.0
C524 C 0.04573 0.68156 0.19714 0.0
C525 C 0.92511 0.55612 0.15548 0.0
C526 C 0.91359 0.65089 0.16239 0.0
C527 C 0.91283 0.65352 0.11334 0.0
C528 C 0.94115 0.64484 0.18451 0.0
C529 C 0.96742 0.63995 0.15652 0.0
C530 C 0.96953 0.64715 0.10748 0.0
C531 C 0.94228 0.65434 0.08642 0.0
C532 C 0.9389 0.63881 0.23714 0.0
C533 C -0.00295 0.64224 0.07636 0.0
H534 H 0.06423 0.63214 0.23766 0.0
H535 H 0.96159 0.52724 0.20555 0.0
H536 H 0.04461 0.6934 0.16227 0.0
H537 H 0.03369 0.69305 0.22336 0.0
H538 H 0.07607 0.69194 0.20643 0.0
H539 H 0.91357 0.5247 0.15687 0.0
H540 H 0.90465 0.56258 0.17363 0.0
H541 H 0.92661 0.56479 0.11809 0.0
H542 H 0.89071 0.65028 0.18307 0.0
H543 H 0.94137 0.65602 0.04835 0.0
H544 H 0.9679 0.65193 0.25279 0.0
H545 H 0.92411 0.60766 0.24481 0.0
H546 H 0.92276 0.65108 0.25449 0.0
H547 H 0.0253 0.65353 0.0936 0.0
H548 H 0.00101 0.65681 0.04187 0.0
H549 H 0.98558 0.61127 0.0697 0.0
C550 C 0.33197 0.24651 0.14052 0.0
C551 C 0.35599 0.25296 0.10198 0.0
C552 C 0.33672 0.27739 0.16856 0.0
C553 C 0.36658 0.31496 0.15793 0.0
C554 C 0.38827 0.32162 0.11629 0.0
C555 C 0.38252 0.29049 0.08875 0.0
C556 C 0.3123 0.26936 0.2119 0.0
C557 C 0.42062 0.36099 0.10365 0.0
C558 C 0.38865 0.40658 0.2217 0.0
C559 C 0.41769 0.41082 0.25261 0.0
C560 C 0.36968 0.37415 0.19263 0.0
C561 C 0.3805 0.34574 0.194 0.0
C562 C 0.4087 0.34919 0.22643 0.0
C563 C 0.42671 0.38147 0.25544 0.0
C564 C 0.33919 0.37107 0.15926 0.0
C565 C 0.42146 0.31977 0.22882 0.0
H566 H 0.31167 0.21738 0.15083 0.0
H567 H 0.40114 0.29522 0.05886 0.0
H568 H 0.32839 0.26869 0.24322 0.0
H569 H 0.30501 0.2922 0.21757 0.0
H570 H 0.28547 0.24132 0.20941 0.0
H571 H 0.43206 0.36187 0.0678 0.0
H572 H 0.41108 0.38241 0.10552 0.0
H573 H 0.44426 0.36967 0.12933 0.0
H574 H 0.38103 0.4288 0.21972 0.0
H575 H 0.44887 0.38422 0.27935 0.0
H576 H 0.31446 0.34147 0.15895 0.0
H577 H 0.35088 0.37784 0.12298 0.0
H578 H 0.32896 0.39118 0.16873 0.0
H579 H 0.39649 0.29075 0.23406 0.0
H580 H 0.44216 0.32561 0.25778 0.0
H581 H 0.43517 0.31951 0.19505 0.0
C582 C 0.64421 0.73477 0.54742 0.0
C583 C 0.67977 0.75239 0.56969 0.0
C584 C 0.63033 0.69932 0.52526 0.0
C585 C 0.65207 0.6805 0.52701 0.0
C586 C 0.68863 0.69879 0.54833 0.0
C587 C 0.70231 0.73493 0.56906 0.0
C588 C 0.59162 0.68137 0.50166 0.0
C589 C 0.71229 0.67942 0.55187 0.0
C590 C 0.5799 0.57647 0.51842 0.0
C591 C 0.57937 0.57123 0.46971 0.0
C592 C 0.60769 0.61067 0.53905 0.0
C593 C 0.63436 0.64052 0.50977 0.0
C594 C 0.63685 0.63338 0.46146 0.0
C595 C 0.60935 0.59838 0.44197 0.0
C596 C 0.60518 0.61661 0.59111 0.0
C597 C 0.66497 0.66434 0.42909 0.0
H598 H 0.62705 0.74861 0.54785 0.0
H599 H 0.72972 0.74864 0.58688 0.0
H600 H 0.59333 0.67186 0.46553 0.0
H601 H 0.5709 0.65573 0.52179 0.0
H602 H 0.58031 0.70142 0.49938 0.0
H603 H 0.74276 0.70026 0.55949 0.0
H604 H 0.70102 0.65817 0.58093 0.0
H605 H 0.71062 0.66379 0.51903 0.0
H606 H 0.55665 0.55528 0.53974 0.0
H607 H 0.60865 0.59429 0.40415 0.0
H608 H 0.59047 0.63335 0.59649 0.0
H609 H 0.6341 0.633 0.60686 0.0
H610 H 0.58883 0.58894 0.6101 0.0
H611 H 0.65396 0.68384 0.41987 0.0
H612 H 0.66907 0.65221 0.39594 0.0
H613 H 0.69308 0.68168 0.4465 0.0
C614 C 0.41858 0.97811 0.50205 0.0
C615 C 0.42347 0.98343 0.45334 0.0
C616 C 0.38475 0.97194 0.52364 0.0
C617 C 0.35474 0.96959 0.49537 0.0
C618 C 0.36121 0.97895 0.44689 0.0
C619 C 0.39588 0.98624 0.42647 0.0
C620 C 0.37955 0.96349 0.57575 0.0
C621 C 0.32998 0.97653 0.41538 0.0
C622 C 0.25904 0.88961 0.53707 0.0
C623 C 0.24365 0.90973 0.55946 0.0
C624 C 0.29422 0.909 0.51375 0.0
C625 C 0.31514 0.94958 0.51434 0.0
C626 C 0.29919 0.97009 0.53591 0.0
C627 C 0.26322 0.94981 0.55781 0.0
C628 C 0.30957 0.8859 0.4899 0.0
C629 C 0.32088 0.01324 0.53812 0.0
H630 H 0.43997 0.97582 0.52268 0.0
H631 H 0.39952 0.98983 0.38861 0.0
H632 H 0.36436 0.97703 0.59235 0.0
H633 H 0.36193 0.93211 0.58122 0.0
H634 H 0.40735 0.97374 0.59392 0.0
H635 H 0.34164 0.99218 0.38174 0.0
H636 H 0.30982 0.94603 0.40699 0.0
H637 H 0.31349 0.98815 0.43312 0.0
H638 H 0.24361 0.85857 0.53819 0.0
H639 H 0.25127 0.96525 0.5756 0.0
H640 H 0.33513 0.88958 0.5091 0.0
H641 H 0.31854 0.89618 0.45332 0.0
H642 H 0.28815 0.85487 0.48874 0.0
H643 H 0.34466 0.0227 0.56373 0.0
H644 H 0.30234 0.0249 0.54937 0.0
H645 H 0.3337 0.02574 0.50345 0.0
C646 C 0.04119 0.29583 0.56558 0.0
C647 C 0.08064 0.31881 0.57276 0.0
C648 C 0.02077 0.30984 0.54037 0.0
C649 C 0.04065 0.34716 0.52101 0.0
C650 C 0.08082 0.36976 0.5267 0.0
C651 C 0.10018 0.35551 0.55323 0.0
C652 C 0.97794 0.28536 0.53601 0.0
C653 C 0.10339 0.40931 0.5054 0.0
C654 C 0.00992 0.38831 0.4227 0.0
C655 C 0.00736 0.41701 0.44729 0.0
C656 C 0.01669 0.3619 0.44684 0.0
C657 C 0.02009 0.36409 0.49653 0.0
C658 C 0.01192 0.38954 0.52157 0.0
C659 C 0.00638 0.41633 0.4965 0.0
C660 C 0.02542 0.33544 0.41871 0.0
C661 C 0.01392 0.39186 0.57462 0.0
H662 H 0.02617 0.26747 0.58111 0.0
H663 H 0.13078 0.37299 0.55849 0.0
H664 H 0.96407 0.29786 0.55774 0.0
H665 H 0.96874 0.28478 0.49908 0.0
H666 H 0.96746 0.2555 0.54799 0.0
H667 H 0.13468 0.42193 0.51043 0.0
H668 H 0.0975 0.40822 0.46709 0.0
H669 H 0.09457 0.42869 0.52173 0.0
H670 H 0.01119 0.38934 0.38453 0.0
H671 H 0.0046 0.43878 0.51533 0.0
H672 H 0.01388 0.30719 0.43617 0.0
H673 H 0.05688 0.34818 0.41598 0.0
H674 H 0.01356 0.33109 0.38248 0.0
H675 H 0.00102 0.36288 0.59049 0.0
H676 H -0.0009 0.40669 0.58875 0.0
H677 H 0.04429 0.40809 0.58577 0.0
C678 C 0.24648 0.34107 0.53796 0.0
C679 C 0.23053 0.30752 0.56471 0.0
C680 C 0.28221 0.35505 0.51657 0.0
C681 C 0.30294 0.33555 0.52354 0.0
C682 C 0.28598 0.30048 0.54855 0.0
C683 C 0.2496 0.28662 0.56859 0.0
C684 C 0.29876 0.39208 0.4891 0.0
C685 C 0.30718 0.27908 0.55737 0.0
C686 C 0.38935 0.37917 0.44475 0.0
C687 C 0.41411 0.41076 0.47226 0.0
C688 C 0.35389 0.3512 0.46276 0.0
C689 C 0.34375 0.35494 0.50935 0.0
C690 C 0.37119 0.38368 0.53913 0.0
C691 C 0.40594 0.41172 0.51993 0.0
C692 C 0.32563 0.32071 0.4301 0.0
C693 C 0.36206 0.38775 0.58961 0.0
H694 H 0.23148 0.35703 0.53509 0.0
H695 H 0.23726 0.26085 0.58992 0.0
H696 H 0.32298 0.41513 0.50895 0.0
H697 H 0.30999 0.38908 0.45468 0.0
H698 H 0.27732 0.40118 0.48258 0.0
H699 H 0.28723 0.24848 0.56572 0.0
H700 H 0.32491 0.28081 0.52662 0.0
H701 H 0.32659 0.29212 0.5879 0.0
H702 H 0.39567 0.3786 0.40773 0.0
H703 H 0.42531 0.43614 0.54115 0.0
H704 H 0.30539 0.32957 0.41668 0.0
H705 H 0.30871 0.29309 0.44887 0.0
H706 H 0.34011 0.31632 0.39945 0.0
H707 H 0.34311 0.40036 0.59039 0.0
H708 H 0.38827 0.40665 0.61007 0.0
H709 H 0.34673 0.3594 0.60715 0.0
C710 C 0.61744 0.98842 0.41546 0.0
C711 C 0.58978 0.99072 0.44271 0.0
C712 C 0.64439 0.98093 0.43681 0.0
C713 C 0.64364 0.9764 0.48632 0.0
C714 C 0.61961 0.98478 0.51409 0.0
C715 C 0.5924 0.99123 0.49182 0.0
C716 C 0.66975 0.97259 0.40592 0.0
C717 C 0.6189 0.98166 0.56709 0.0
C718 C 0.64863 0.89291 0.5386 0.0
C719 C 0.68478 0.911 0.5595 0.0
C720 C 0.63602 0.91379 0.51221 0.0
C721 C 0.65983 0.954 0.50781 0.0
C722 C 0.69701 0.97226 0.52743 0.0
C723 C 0.70925 0.95036 0.55278 0.0
C724 C 0.59654 0.89289 0.49063 0.0
C725 C 0.72301 0.01502 0.52401 0.0
H726 H 0.61509 0.98773 0.37737 0.0
H727 H 0.57085 0.99301 0.51272 0.0
H728 H 0.69817 0.98293 0.4223 0.0
H729 H 0.65633 0.94116 0.40113 0.0
H730 H 0.67369 0.98594 0.37058 0.0
H731 H 0.60478 0.99639 0.58355 0.0
H732 H 0.6028 0.95101 0.57737 0.0
H733 H 0.64827 0.99405 0.5814 0.0
H734 H 0.62998 0.86236 0.54339 0.0
H735 H 0.73721 0.96432 0.56924 0.0
H736 H 0.59789 0.90017 0.45273 0.0
H737 H 0.57776 0.90189 0.50822 0.0
H738 H 0.58311 0.86131 0.49397 0.0
H739 H 0.72155 0.02578 0.48855 0.0
H740 H 0.75319 0.0235 0.53178 0.0
H741 H 0.71369 0.02929 0.5499 0.0
C742 C 0.00485 0.6064 0.41697 0.0
C743 C 0.011 0.58102 0.44432 0.0
C744 C 0.01088 0.64112 0.43612 0.0
C745 C 0.02278 0.64998 0.48361 0.0
C746 C 0.02368 0.6219 0.51273 0.0
C747 C 0.01823 0.58787 0.49253 0.0
C748 C 0.00922 0.67007 0.40399 0.0
C749 C 0.03506 0.62963 0.56393 0.0
C750 C 0.10308 0.74675 0.52023 0.0
C751 C 0.08384 0.76065 0.54744 0.0
C752 C 0.08294 0.7122 0.49573 0.0
C753 C 0.04261 0.69036 0.50006 0.0
C754 C 0.02285 0.70541 0.52538 0.0
C755 C 0.04382 0.74077 0.54857 0.0
C756 C 0.10526 0.69792 0.46799 0.0
C757 C 0.98 0.6831 0.53102 0.0
H758 H -0.0005 0.60117 0.37953 0.0
H759 H 0.0228 0.56806 0.51362 0.0
H760 H -0.00229 0.68631 0.42268 0.0
H761 H 0.03857 0.6909 0.39198 0.0
H762 H 0.99138 0.65623 0.3724 0.0
H763 H 0.02782 0.60292 0.58338 0.0
H764 H 0.06638 0.64926 0.56645 0.0
H765 H 0.02077 0.64373 0.5814 0.0
H766 H 0.13408 0.76242 0.51932 0.0
H767 H 0.02907 0.7516 0.57001 0.0
H768 H 0.09128 0.68569 0.43376 0.0
H769 H 0.10652 0.67498 0.48815 0.0
H770 H 0.13493 0.72116 0.46099 0.0
H771 H 0.96581 0.66772 0.49814 0.0
H772 H 0.96845 0.70198 0.54114 0.0
H773 H 0.97248 0.66137 0.55916 0.0
C774 C 0.50275 0.13557 0.03811 0.0
C775 C 0.50292 0.1617 0.00541 0.0
C776 C 0.5343 0.12998 0.04212 0.0
C777 C 0.56723 0.15249 0.01438 0.0
C778 C 0.56696 0.17814 0.98045 0.0
C779 C 0.53447 0.18184 0.97578 0.0
C780 C 0.53269 0.1012 0.07741 0.0
C781 C 0.60183 0.20354 0.95109 0.0
C782 C 0.6665 0.18379 0.05936 0.0
C783 C 0.67861 0.16581 0.02714 0.0
C784 C 0.62932 0.17798 0.05737 0.0
C785 C 0.60345 0.15258 0.02337 0.0
C786 C 0.6146 0.13168 0.99368 0.0
C787 C 0.65247 0.13923 0.99515 0.0
C788 C 0.61869 0.20118 0.08926 0.0
C789 C 0.58706 0.10271 0.95898 0.0
H790 H 0.47815 0.11982 0.06083 0.0
H791 H 0.5347 0.20234 0.95083 0.0
H792 H 0.55035 0.08857 0.06618 0.0
H793 H 0.54367 0.11556 0.1118 0.0
H794 H 0.50283 0.07771 0.08284 0.0
H795 H 0.59669 0.22171 0.92607 0.0
H796 H 0.62594 0.22252 0.97449 0.0
H797 H 0.61084 0.18596 0.9307 0.0
H798 H 0.68685 0.20433 0.0841 0.0
H799 H 0.66182 0.12484 0.97082 0.0
H800 H 0.59229 0.18202 0.10911 0.0
H801 H 0.61276 0.22064 0.06775 0.0
H802 H 0.64169 0.21867 0.11484 0.0
H803 H 0.559 0.08411 0.97604 0.0
H804 H 0.59802 0.08444 0.94444 0.0
H805 H 0.58222 0.11769 0.9293 0.0
C806 C 0.80307 0.45803 0.98276 0.0
C807 C 0.82645 0.49128 0.00845 0.0
C808 C 0.80734 0.42575 0.9866 0.0
C809 C 0.83662 0.42726 0.01558 0.0
C810 C 0.86186 0.46161 0.0394 0.0
C811 C 0.85592 0.49304 0.03637 0.0
C812 C 0.77917 0.38941 0.96155 0.0
C813 C 0.89425 0.46493 0.0694 0.0
C814 C 0.81321 0.33011 0.06236 0.0
C815 C 0.82853 0.3176 0.02696 0.0
C816 C 0.81744 0.36677 0.06054 0.0
C817 C 0.83848 0.39177 0.02319 0.0
C818 C 0.85684 0.3804 0.98972 0.0
C819 C 0.85101 0.34307 0.99145 0.0
C820 C 0.79703 0.37764 0.09657 0.0
C821 C 0.88108 0.40699 0.95084 0.0
H822 H 0.78 0.45651 0.96159 0.0
H823 H 0.87413 0.51887 0.0561 0.0
H824 H 0.79448 0.37968 0.93792 0.0
H825 H 0.76331 0.36633 0.98773 0.0
H826 H 0.75815 0.39314 0.94027 0.0
H827 H 0.91716 0.49526 0.07336 0.0
H828 H 0.88329 0.4534 0.10503 0.0
H829 H 0.90688 0.44837 0.05426 0.0
H830 H 0.7958 0.31036 0.08981 0.0
H831 H 0.86339 0.33354 0.9645 0.0
H832 H 0.77447 0.38124 0.07895 0.0
H833 H 0.81726 0.40538 0.11313 0.0
H834 H 0.7835 0.35573 0.12471 0.0
H835 H 0.86246 0.40999 0.92449 0.0
H836 H 0.89822 0.39625 0.9326 0.0
H837 H 0.90072 0.43593 0.96516 0.0
C838 C 0.64988 0.48788 0.98807 0.0
C839 C 0.67857 0.48711 0.01497 0.0
C840 C 0.61305 0.45585 0.98621 0.0
C841 C 0.60549 0.4221 0.01045 0.0
C842 C 0.63411 0.4217 0.03886 0.0
C843 C 0.67021 0.45451 0.04134 0.0
C844 C 0.58276 0.45765 0.95696 0.0
C845 C 0.62739 0.38595 0.06439 0.0
C846 C 0.50783 0.33669 0.03312 0.0
C847 C 0.50575 0.31191 0.99723 0.0
C848 C 0.53898 0.374 0.0359 0.0
C849 C 0.56909 0.38602 0.00293 0.0
C850 C 0.56623 0.36157 0.96544 0.0
C851 C 0.53419 0.32488 0.96267 0.0
C852 C 0.54049 0.39984 0.07529 0.0
C853 C 0.59815 0.3731 0.93016 0.0
H854 H 0.65641 0.51336 0.96805 0.0
H855 H 0.69257 0.45392 0.06185 0.0
H856 H 0.5773 0.44027 0.92463 0.0
H857 H 0.55546 0.44546 0.97675 0.0
H858 H 0.59143 0.48744 0.94636 0.0
H859 H 0.6523 0.39087 0.08617 0.0
H860 H 0.60198 0.3752 0.08755 0.0
H861 H 0.62155 0.3631 0.03843 0.0
H862 H 0.4854 0.32665 0.05945 0.0
H863 H 0.53251 0.30553 0.93507 0.0
H864 H 0.54915 0.42882 0.06155 0.0
H865 H 0.56222 0.40301 0.10156 0.0
H866 H 0.51254 0.38834 0.09352 0.0
H867 H 0.60579 0.40106 0.91396 0.0
H868 H 0.59045 0.3516 0.90168 0.0
H869 H 0.62401 0.37655 0.94839 0.0
C870 C 0.3338 0.51944 0.40205 0.0
C871 C 0.34432 0.50002 0.36989 0.0
C872 C 0.29759 0.51608 0.40006 0.0
C873 C 0.27088 0.49169 0.36608 0.0
C874 C 0.28036 0.46966 0.336 0.0
C875 C 0.31737 0.47472 0.33754 0.0
C876 C 0.28894 0.54068 0.43211 0.0
C877 C 0.25193 0.44194 0.30098 0.0
C878 C 0.17125 0.47778 0.38181 0.0
C879 C 0.172 0.50426 0.34919 0.0
C880 C 0.20233 0.4714 0.38577 0.0
C881 C 0.2354 0.49338 0.358 0.0
C882 C 0.23589 0.5197 0.32454 0.0
C883 C 0.20388 0.52425 0.31996 0.0
C884 C 0.20005 0.4421 0.42073 0.0
C885 C 0.27096 0.5446 0.29525 0.0
H886 H 0.35473 0.53911 0.42699 0.0
H887 H 0.3254 0.45927 0.31313 0.0
H888 H 0.28465 0.5613 0.41072 0.0
H889 H 0.26213 0.52272 0.45187 0.0
H890 H 0.31228 0.55703 0.45778 0.0
H891 H 0.26152 0.42281 0.28559 0.0
H892 H 0.22371 0.42412 0.31807 0.0
H893 H 0.2479 0.458 0.27193 0.0
H894 H 0.14644 0.46217 0.40425 0.0
H895 H 0.20458 0.54503 0.29509 0.0
H896 H 0.21406 0.45664 0.45407 0.0
H897 H 0.21493 0.42711 0.40741 0.0
H898 H 0.16992 0.42048 0.42886 0.0
H899 H 0.29538 0.56277 0.31872 0.0
H900 H 0.26652 0.56353 0.27075 0.0
H901 H 0.27912 0.52658 0.27433 0.0
C902 C 0.46967 0.78868 0.32311 0.0
C903 C 0.49421 0.82209 0.3479 0.0
C904 C 0.47315 0.75591 0.32677 0.0
C905 C 0.50278 0.75698 0.35464 0.0
C906 C 0.529 0.79135 0.37773 0.0
C907 C 0.5239 0.82334 0.37489 0.0
C908 C 0.44388 0.71957 0.30267 0.0
C909 C 0.56169 0.79411 0.40657 0.0
C910 C 0.47949 0.66009 0.40266 0.0
C911 C 0.49404 0.64681 0.36716 0.0
C912 C 0.48369 0.69673 0.40018 0.0
C913 C 0.50402 0.72109 0.36203 0.0
C914 C 0.52134 0.70888 0.32806 0.0
C915 C 0.51548 0.67152 0.33049 0.0
C916 C 0.46405 0.70825 0.43656 0.0
C917 C 0.54466 0.73469 0.2881 0.0
H918 H 0.44642 0.78751 0.30267 0.0
H919 H 0.543 0.84927 0.39392 0.0
H920 H 0.45822 0.70908 0.27853 0.0
H921 H 0.42824 0.69688 0.32937 0.0
H922 H 0.42276 0.72366 0.28213 0.0
H923 H 0.58408 0.82436 0.41273 0.0
H924 H 0.55085 0.78035 0.44131 0.0
H925 H 0.57492 0.779 0.38897 0.0
H926 H 0.46275 0.64096 0.43095 0.0
H927 H 0.52719 0.66142 0.30335 0.0
H928 H 0.44121 0.71166 0.41942 0.0
H929 H 0.48462 0.73622 0.45235 0.0
H930 H 0.451 0.68678 0.46526 0.0
H931 H 0.52547 0.73755 0.26251 0.0
H932 H 0.56102 0.72336 0.26921 0.0
H933 H 0.56494 0.76377 0.30148 0.0
C934 C 0.31983 0.82681 0.34195 0.0
C935 C 0.34979 0.82443 0.3634 0.0
C936 C 0.28244 0.79559 0.34316 0.0
C937 C 0.27559 0.76095 0.36441 0.0
C938 C 0.30562 0.75907 0.38772 0.0
C939 C 0.34232 0.79117 0.38761 0.0
C940 C 0.25064 0.79911 0.3202 0.0
C941 C 0.29952 0.72249 0.41034 0.0
C942 C 0.17776 0.6753 0.38842 0.0
C943 C 0.17309 0.65256 0.34886 0.0
C944 C 0.21018 0.71175 0.39307 0.0
C945 C 0.23854 0.72534 0.35752 0.0
C946 C 0.23322 0.703 0.31679 0.0
C947 C 0.20032 0.66709 0.31272 0.0
C948 C 0.21422 0.73536 0.43622 0.0
C949 C 0.26339 0.71593 0.2788 0.0
H950 H 0.32576 0.85289 0.32378 0.0
H951 H 0.36569 0.78948 0.40404 0.0
H952 H 0.2414 0.78181 0.28749 0.0
H953 H 0.22549 0.78777 0.34398 0.0
H954 H 0.2596 0.82925 0.31107 0.0
H955 H 0.32559 0.72626 0.42839 0.0
H956 H 0.27595 0.71201 0.43639 0.0
H957 H 0.29108 0.69998 0.38306 0.0
H958 H 0.1564 0.66432 0.41609 0.0
H959 H 0.19696 0.64949 0.28224 0.0
H960 H 0.2081 0.75842 0.42639 0.0
H961 H 0.2437 0.74927 0.45048 0.0
H962 H 0.19414 0.71782 0.46459 0.0
H963 H 0.27015 0.74437 0.26504 0.0
H964 H 0.25436 0.69552 0.24886 0.0
H965 H 0.29013 0.71891 0.29384 0.0
C966 C 0.98456 0.81148 0.7085 0.0
C967 C 0.01071 0.83924 0.67739 0.0
C968 C 0.94731 0.80536 0.71305 0.0
C969 C 0.93667 0.8286 0.68714 0.0
C970 C 0.96275 0.85602 0.65487 0.0
C971 C -0.00071 0.86058 0.64988 0.0
C972 C 0.92011 0.77504 0.74683 0.0
C973 C 0.95275 0.88185 0.62715 0.0
C974 C 0.83654 0.81006 0.6657 0.0
C975 C 0.83458 0.83527 0.69804 0.0
C976 C 0.86839 0.80489 0.66452 0.0
C977 C 0.89935 0.82641 0.69536 0.0
C978 C 0.89636 0.84997 0.73009 0.0
C979 C 0.8637 0.85374 0.73139 0.0
C980 C 0.86984 0.7781 0.62857 0.0
C981 C 0.92887 0.87348 0.76349 0.0
H982 H 0.99334 0.79476 0.72959 0.0
H983 H 0.01959 0.88227 0.6261 0.0
H984 H 0.92123 0.78846 0.78132 0.0
H985 H 0.89021 0.76115 0.73389 0.0
H986 H 0.92802 0.75262 0.75267 0.0
H987 H 0.97622 0.90148 0.60329 0.0
H988 H 0.92675 0.86449 0.60572 0.0
H989 H 0.94634 0.89933 0.6517 0.0
H990 H 0.81366 0.79523 0.64041 0.0
H991 H 0.86218 0.87323 0.75643 0.0
H992 H 0.8803 0.76004 0.64501 0.0
H993 H 0.89015 0.79498 0.60012 0.0
H994 H 0.84141 0.75919 0.61248 0.0
H995 H 0.93798 0.85503 0.78171 0.0
H996 H 0.92101 0.88833 0.79042 0.0
H997 H 0.9538 0.89533 0.74329 0.0
C998 C 0.18185 0.01301 0.65679 0.0
C999 C 0.16012 0.98519 0.69062 0.0
C1000 C 0.18612 0.04973 0.65894 0.0
C1001 C 0.16726 0.05828 0.69489 0.0
C1002 C 0.14744 0.03114 0.73082 0.0
C1003 C 0.1445 0.99506 0.72854 0.0
C1004 C 0.209 0.07864 0.62131 0.0
C1005 C 0.12675 0.03907 0.7696 0.0
C1006 C 0.18062 0.15745 0.71523 0.0
C1007 C 0.15031 0.1553 0.68875 0.0
C1008 C 0.18787 0.12679 0.71592 0.0
C1009 C 0.16319 0.0928 0.69107 0.0
C1010 C 0.13269 0.09074 0.66409 0.0
C1011 C 0.12705 0.12226 0.66267 0.0
C1012 C 0.2213 0.13065 0.74414 0.0
C1013 C 0.10512 0.05473 0.63798 0.0
H1014 H 0.19459 0.00573 0.62789 0.0
H1015 H 0.12778 0.97373 0.75492 0.0
H1016 H 0.18933 0.08175 0.59677 0.0
H1017 H 0.22786 0.10712 0.63729 0.0
H1018 H 0.22681 0.06998 0.60066 0.0
H1019 H 0.11508 0.01613 0.79673 0.0
H1020 H 0.14622 0.06667 0.78701 0.0
H1021 H 0.10273 0.04149 0.75432 0.0
H1022 H 0.19878 0.18317 0.73513 0.0
H1023 H 0.1034 0.12049 0.64252 0.0
H1024 H 0.23479 0.11568 0.72685 0.0
H1025 H 0.21116 0.11763 0.7794 0.0
H1026 H 0.24335 0.16117 0.74928 0.0
H1027 H 0.12078 0.04709 0.6121 0.0
H1028 H 0.08276 0.05782 0.61895 0.0
H1029 H 0.09087 0.03052 0.66313 0.0
C1030 C 0.86811 -0.00242 0.66205 0.0
C1031 C 0.83563 0.98524 0.69026 0.0
C1032 C 0.8993 0.03463 0.66645 0.0
C1033 C 0.89743 0.06036 0.69884 0.0
C1034 C 0.86378 0.04875 0.72554 0.0
C1035 C 0.83349 0.01095 0.7216 0.0
C1036 C 0.93493 0.04559 0.63795 0.0
C1037 C 0.85999 0.07547 0.75945 0.0
C1038 C -0.00424 0.13415 0.74008 0.0
C1039 C 0.00579 0.1626 0.70577 0.0
C1040 C 0.95925 0.10166 0.74052 0.0
C1041 C 0.93204 0.09816 0.70654 0.0
C1042 C 0.94077 0.12871 0.67515 0.0
C1043 C 0.97786 0.1604 0.67456 0.0
C1044 C 0.95095 0.0697 0.77468 0.0
C1045 C 0.91167 0.12682 0.64027 0.0
H1046 H 0.8699 0.97762 0.63805 0.0
H1047 H 0.80819 0.00146 0.74317 0.0
H1048 H 0.94232 0.0712 0.61616 0.0
H1049 H 0.95937 0.05307 0.66195 0.0
H1050 H 0.9316 0.02218 0.61431 0.0
H1051 H 0.87056 0.07296 0.79459 0.0
H1052 H 0.87681 0.10576 0.74793 0.0
H1053 H 0.82962 0.06783 0.76348 0.0
H1054 H 0.01725 0.13589 0.76445 0.0
H1055 H 0.98537 0.18284 0.64866 0.0
H1056 H 0.94751 0.04438 0.75502 0.0
H1057 H 0.92379 0.06091 0.7936 0.0
H1058 H 0.97413 0.07804 0.80102 0.0
H1059 H 0.90791 0.10651 0.61166 0.0
H1060 H 0.92057 0.15521 0.62423 0.0
H1061 H 0.88351 0.1161 0.65763 0.0
loop_
_geom_bond_atom_site_label_1
_geom_bond_atom_site_label_2
_geom_bond_distance
_geom_bond_site_symmetry_2
_ccdc_geom_bond_type
Sc0 O3 2.025 . S
Sc0 O10 2.105 . S
Sc0 O13 2.105 1_554 S
Sc0 O16 2.105 . S
Sc0 O19 2.105 1_554 S
Sc1 O3 2.025 1_556 S
Sc1 O11 2.105 . S
Sc1 O15 2.105 . S
Sc1 O17 2.105 . S
Sc1 O21 2.105 . S
Sc2 O3 2.025 . S
Sc2 O12 2.105 . S
Sc2 O14 2.105 . S
Sc2 O18 2.105 . S
Sc2 O20 2.105 . S
O3 Sc0 2.025 . S
O3 Sc1 2.025 1_554 S
O3 Sc2 2.025 . S
C4 O10 1.268 . S
C4 O20 1.268 . S
C5 O11 1.268 . S
C5 O19 1.268 . S
C6 O12 1.268 1_556 S
C6 O21 1.268 . S
C7 O13 1.268 . S
C7 O17 1.268 . S
C8 O14 1.268 . S
C8 O16 1.268 . S
C9 O15 1.268 . S
C9 O18 1.268 1_556 S
O10 Sc0 2.105 . S
O10 C4 1.268 . S
O11 Sc1 2.105 . S
O11 C5 1.268 . S
O12 Sc2 2.105 . S
O12 C6 1.268 1_554 S
O13 Sc0 2.105 1_556 S
O13 C7 1.268 . S
O14 Sc2 2.105 . S
O14 C8 1.268 . S
O15 Sc1 2.105 . S
O15 C9 1.268 . S
O16 Sc0 2.105 . S
O16 C8 1.268 . S
O17 Sc1 2.105 . S
O17 C7 1.268 . S
O18 Sc2 2.105 . S
O18 C9 1.268 1_554 S
O19 Sc0 2.105 1_556 S
O19 C5 1.268 . S
O20 Sc2 2.105 . S
O20 C4 1.268 . S
O21 Sc1 2.105 . S
O21 C6 1.268 . S
Sc22 O25 2.025 . S
Sc22 O32 2.105 . S
Sc22 O35 2.105 1_554 S
Sc22 O38 2.105 . S
Sc22 O41 2.105 1_554 S
Sc23 O25 2.025 1_556 S
Sc23 O33 2.105 . S
Sc23 O37 2.105 . S
Sc23 O39 2.105 . S
Sc23 O43 2.105 . S
Sc24 O25 2.025 . S
Sc24 O34 2.105 . S
Sc24 O36 2.105 . S
Sc24 O40 2.105 . S
Sc24 O42 2.105 . S
O25 Sc22 2.025 . S
O25 Sc23 2.025 1_554 S
O25 Sc24 2.025 . S
C26 O32 1.268 . S
C26 O42 1.268 . S
C27 O33 1.268 . S
C27 O41 1.268 . S
C28 O34 1.268 1_556 S
C28 O43 1.268 . S
C29 O35 1.268 . S
C29 O39 1.268 . S
C30 O36 1.268 . S
C30 O38 1.268 . S
C31 O37 1.268 . S
C31 O40 1.268 1_556 S
O32 Sc22 2.105 . S
O32 C26 1.268 . S
O33 Sc23 2.105 . S
O33 C27 1.268 . S
O34 Sc24 2.105 . S
O34 C28 1.268 1_554 S
O35 Sc22 2.105 1_556 S
O35 C29 1.268 . S
O36 Sc24 2.105 . S
O36 C30 1.268 . S
O37 Sc23 2.105 . S
O37 C31 1.268 . S
O38 Sc22 2.105 . S
O38 C30 1.268 . S
O39 Sc23 2.105 . S
O39 C29 1.268 . S
O40 Sc24 2.105 . S
O40 C31 1.268 1_554 S
O41 Sc22 2.105 1_556 S
O41 C27 1.268 . S
O42 Sc24 2.105 . S
O42 C26 1.268 . S
O43 Sc23 2.105 . S
O43 C28 1.268 . S
Sc44 O47 2.025 . S
Sc44 O54 2.105 . S
Sc44 O57 2.105 1_554 S
Sc44 O60 2.105 . S
Sc44 O63 2.105 1_554 S
Sc45 O47 2.025 1_556 S
Sc45 O55 2.105 . S
Sc45 O59 2.105 . S
Sc45 O61 2.105 . S
Sc45 O65 2.105 . S
Sc46 O47 2.025 . S
Sc46 O56 2.105 . S
Sc46 O58 2.105 . S
Sc46 O62 2.105 . S
Sc46 O64 2.105 . S
O47 Sc44 2.025 . S
O47 Sc45 2.025 1_554 S
O47 Sc46 2.025 . S
C48 O54 1.268 . S
C48 O64 1.268 . S
C49 O55 1.268 . S
C49 O63 1.268 . S
C50 O56 1.268 1_556 S
C50 O65 1.268 . S
C51 O57 1.268 . S
C51 O61 1.268 . S
C52 O58 1.268 . S
C52 O60 1.268 . S
C53 O59 1.268 . S
C53 O62 1.268 1_556 S
O54 Sc44 2.105 . S
O54 C48 1.268 . S
O55 Sc45 2.105 . S
O55 C49 1.268 . S
O56 Sc46 2.105 . S
O56 C50 1.268 1_554 S
O57 Sc44 2.105 1_556 S
O57 C51 1.268 . S
O58 Sc46 2.105 . S
O58 C52 1.268 . S
O59 Sc45 2.105 . S
O59 C53 1.268 . S
O60 Sc44 2.105 . S
O60 C52 1.268 . S
O61 Sc45 2.105 . S
O61 C51 1.268 . S
O62 Sc46 2.105 . S
O62 C53 1.268 1_554 S
O63 Sc44 2.105 1_556 S
O63 C49 1.268 . S
O64 Sc46 2.105 . S
O64 C48 1.268 . S
O65 Sc45 2.105 . S
O65 C50 1.268 . S
Sc66 O69 2.025 . S
Sc66 O76 2.105 . S
Sc66 O79 2.105 . S
Sc66 O82 2.105 . S
Sc66 O85 2.105 . S
Sc67 O69 2.025 . S
Sc67 O77 2.105 . S
Sc67 O81 2.105 . S
Sc67 O83 2.105 . S
Sc67 O87 2.105 . S
Sc68 O69 2.025 . S
Sc68 O78 2.105 . S
Sc68 O80 2.105 . S
Sc68 O84 2.105 . S
Sc68 O86 2.105 . S
O69 Sc66 2.025 . S
O69 Sc67 2.025 . S
O69 Sc68 2.025 . S
C70 O76 1.268 . S
C70 O86 1.268 . S
C71 O77 1.268 . S
C71 O85 1.268 . S
C72 O78 1.268 . S
C72 O87 1.268 . S
C73 O79 1.268 . S
C73 O83 1.268 . S
C74 O80 1.268 . S
C74 O82 1.268 . S
C75 O81 1.268 . S
C75 O84 1.268 . S
O76 Sc66 2.105 . S
O76 C70 1.268 . S
O77 Sc67 2.105 . S
O77 C71 1.268 . S
O78 Sc68 2.105 . S
O78 C72 1.268 . S
O79 Sc66 2.105 . S
O79 C73 1.268 . S
O80 Sc68 2.105 . S
O80 C74 1.268 . S
O81 Sc67 2.105 . S
O81 C75 1.268 . S
O82 Sc66 2.105 . S
O82 C74 1.268 . S
O83 Sc67 2.105 . S
O83 C73 1.268 . S
O84 Sc68 2.105 . S
O84 C75 1.268 . S
O85 Sc66 2.105 . S
O85 C71 1.268 . S
O86 Sc68 2.105 . S
O86 C70 1.268 . S
O87 Sc67 2.105 . S
O87 C72 1.268 . S
Sc88 O91 2.025 . S
Sc88 O98 2.105 . S
Sc88 O101 2.105 . S
Sc88 O104 2.105 . S
Sc88 O107 2.105 . S
Sc89 O91 2.025 . S
Sc89 O99 2.105 . S
Sc89 O103 2.105 . S
Sc89 O105 2.105 . S
Sc89 O109 2.105 . S
Sc90 O91 2.025 . S
Sc90 O100 2.105 . S
Sc90 O102 2.105 . S
Sc90 O106 2.105 . S
Sc90 O108 2.105 . S
O91 Sc88 2.025 . S
O91 Sc89 2.025 . S
O91 Sc90 2.025 . S
C92 O98 1.268 . S
C92 O108 1.268 . S
C93 O99 1.268 . S
C93 O107 1.268 . S
C94 O100 1.268 . S
C94 O109 1.268 . S
C95 O101 1.268 . S
C95 O105 1.268 . S
C96 O102 1.268 . S
C96 O104 1.268 . S
C97 O103 1.268 . S
C97 O106 1.268 . S
O98 Sc88 2.105 . S
O98 C92 1.268 . S
O99 Sc89 2.105 . S
O99 C93 1.268 . S
O100 Sc90 2.105 . S
O100 C94 1.268 . S
O101 Sc88 2.105 . S
O101 C95 1.268 . S
O102 Sc90 2.105 . S
O102 C96 1.268 . S
O103 Sc89 2.105 . S
O103 C97 1.268 . S
O104 Sc88 2.105 . S
O104 C96 1.268 . S
O105 Sc89 2.105 . S
O105 C95 1.268 . S
O106 Sc90 2.105 . S
O106 C97 1.268 . S
O107 Sc88 2.105 . S
O107 C93 1.268 . S
O108 Sc90 2.105 . S
O108 C92 1.268 . S
O109 Sc89 2.105 . S
O109 C94 1.268 . S
Sc110 O113 2.025 . S
Sc110 O120 2.105 . S
Sc110 O123 2.105 . S
Sc110 O126 2.105 . S
Sc110 O129 2.105 . S
Sc111 O113 2.025 . S
Sc111 O121 2.105 . S
Sc111 O125 2.105 . S
Sc111 O127 2.105 . S
Sc111 O131 2.105 . S
Sc112 O113 2.025 . S
Sc112 O122 2.105 . S
Sc112 O124 2.105 . S
Sc112 O128 2.105 . S
Sc112 O130 2.105 . S
O113 Sc110 2.025 . S
O113 Sc111 2.025 . S
O113 Sc112 2.025 . S
C114 O120 1.268 . S
C114 O130 1.268 . S
C115 O121 1.268 . S
C115 O129 1.268 . S
C116 O122 1.268 . S
C116 O131 1.268 . S
C117 O123 1.268 . S
C117 O127 1.268 . S
C118 O124 1.268 . S
C118 O126 1.268 . S
C119 O125 1.268 . S
C119 O128 1.268 . S
O120 Sc110 2.105 . S
O120 C114 1.268 . S
O121 Sc111 2.105 . S
O121 C115 1.268 . S
O122 Sc112 2.105 . S
O122 C116 1.268 . S
O123 Sc110 2.105 . S
O123 C117 1.268 . S
O124 Sc112 2.105 . S
O124 C118 1.268 . S
O125 Sc111 2.105 . S
O125 C119 1.268 . S
O126 Sc110 2.105 . S
O126 C118 1.268 . S
O127 Sc111 2.105 . S
O127 C117 1.268 . S
O128 Sc112 2.105 . S
O128 C119 1.268 . S
O129 Sc110 2.105 . S
O129 C115 1.268 . S
O130 Sc112 2.105 . S
O130 C114 1.268 . S
O131 Sc111 2.105 . S
O131 C116 1.268 . S
Sc132 O135 2.025 . S
Sc132 O142 2.105 . S
Sc132 O145 2.105 . S
Sc132 O148 2.105 . S
Sc132 O151 2.105 . S
Sc133 O135 2.025 . S
Sc133 O143 2.105 . S
Sc133 O147 2.105 . S
Sc133 O149 2.105 . S
Sc133 O153 2.105 . S
Sc134 O135 2.025 . S
Sc134 O144 2.105 . S
Sc134 O146 2.105 . S
Sc134 O150 2.105 . S
Sc134 O152 2.105 . S
O135 Sc132 2.025 . S
O135 Sc133 2.025 . S
O135 Sc134 2.025 . S
C136 O142 1.268 . S
C136 O152 1.268 . S
C137 O143 1.268 . S
C137 O151 1.268 . S
C138 O144 1.268 . S
C138 O153 1.268 . S
C139 O145 1.268 . S
C139 O149 1.268 . S
C140 O146 1.268 . S
C140 O148 1.268 . S
C141 O147 1.268 . S
C141 O150 1.268 . S
O142 Sc132 2.105 . S
O142 C136 1.268 . S
O143 Sc133 2.105 . S
O143 C137 1.268 . S
O144 Sc134 2.105 . S
O144 C138 1.268 . S
O145 Sc132 2.105 . S
O145 C139 1.268 . S
O146 Sc134 2.105 . S
O146 C140 1.268 . S
O147 Sc133 2.105 . S
O147 C141 1.268 . S
O148 Sc132 2.105 . S
O148 C140 1.268 . S
O149 Sc133 2.105 . S
O149 C139 1.268 . S
O150 Sc134 2.105 . S
O150 C141 1.268 . S
O151 Sc132 2.105 . S
O151 C137 1.268 . S
O152 Sc134 2.105 . S
O152 C136 1.268 . S
O153 Sc133 2.105 . S
O153 C138 1.268 . S
Sc154 O157 2.025 . S
Sc154 O164 2.105 . S
Sc154 O167 2.105 . S
Sc154 O170 2.105 . S
Sc154 O173 2.105 . S
Sc155 O157 2.025 . S
Sc155 O165 2.105 . S
Sc155 O169 2.105 . S
Sc155 O171 2.105 . S
Sc155 O175 2.105 . S
Sc156 O157 2.025 . S
Sc156 O166 2.105 . S
Sc156 O168 2.105 . S
Sc156 O172 2.105 . S
Sc156 O174 2.105 . S
O157 Sc154 2.025 . S
O157 Sc155 2.025 . S
O157 Sc156 2.025 . S
C158 O164 1.268 . S
C158 O174 1.268 . S
C159 O165 1.268 . S
C159 O173 1.268 . S
C160 O166 1.268 . S
C160 O175 1.268 . S
C161 O167 1.268 . S
C161 O171 1.268 . S
C162 O168 1.268 . S
C162 O170 1.268 . S
C163 O169 1.268 . S
C163 O172 1.268 . S
O164 Sc154 2.105 . S
O164 C158 1.268 . S
O165 Sc155 2.105 . S
O165 C159 1.268 . S
O166 Sc156 2.105 . S
O166 C160 1.268 . S
O167 Sc154 2.105 . S
O167 C161 1.268 . S
O168 Sc156 2.105 . S
O168 C162 1.268 . S
O169 Sc155 2.105 . S
O169 C163 1.268 . S
O170 Sc154 2.105 . S
O170 C162 1.268 . S
O171 Sc155 2.105 . S
O171 C161 1.268 . S
O172 Sc156 2.105 . S
O172 C163 1.268 . S
O173 Sc154 2.105 . S
O173 C159 1.268 . S
O174 Sc156 2.105 . S
O174 C158 1.268 . S
O175 Sc155 2.105 . S
O175 C160 1.268 . S
Sc176 O179 2.025 . S
Sc176 O186 2.105 . S
Sc176 O189 2.105 . S
Sc176 O192 2.105 . S
Sc176 O195 2.105 . S
Sc177 O179 2.025 . S
Sc177 O187 2.105 . S
Sc177 O191 2.105 . S
Sc177 O193 2.105 . S
Sc177 O197 2.105 . S
Sc178 O179 2.025 . S
Sc178 O188 2.105 . S
Sc178 O190 2.105 . S
Sc178 O194 2.105 . S
Sc178 O196 2.105 . S
O179 Sc176 2.025 . S
O179 Sc177 2.025 . S
O179 Sc178 2.025 . S
C180 O186 1.268 . S
C180 O196 1.268 . S
C181 O187 1.268 . S
C181 O195 1.268 . S
C182 O188 1.268 . S
C182 O197 1.268 . S
C183 O189 1.268 . S
C183 O193 1.268 . S
C184 O190 1.268 . S
C184 O192 1.268 . S
C185 O191 1.268 . S
C185 O194 1.268 . S
O186 Sc176 2.105 . S
O186 C180 1.268 . S
O187 Sc177 2.105 . S
O187 C181 1.268 . S
O188 Sc178 2.105 . S
O188 C182 1.268 . S
O189 Sc176 2.105 . S
O189 C183 1.268 . S
O190 Sc178 2.105 . S
O190 C184 1.268 . S
O191 Sc177 2.105 . S
O191 C185 1.268 . S
O192 Sc176 2.105 . S
O192 C184 1.268 . S
O193 Sc177 2.105 . S
O193 C183 1.268 . S
O194 Sc178 2.105 . S
O194 C185 1.268 . S
O195 Sc176 2.105 . S
O195 C181 1.268 . S
O196 Sc178 2.105 . S
O196 C180 1.268 . S
O197 Sc177 2.105 . S
O197 C182 1.268 . S
C198 C199 1.391 . S
C198 C200 1.394 . S
C198 H214 0.931 . S
C199 C198 1.391 . S
C199 C203 1.376 . S
C200 C198 1.394 . S
C200 C201 1.369 . S
C200 C204 1.531 . S
C201 C200 1.369 . S
C201 C202 1.410 . S
C201 C209 1.503 1_545 S
C202 C201 1.410 . S
C202 C203 1.392 . S
C202 C205 1.511 1_545 S
C203 C199 1.376 . S
C203 C202 1.392 . S
C203 H215 0.929 . S
C204 C200 1.531 . S
C204 H216 0.960 . S
C204 H217 0.962 . S
C204 H218 0.960 . S
C205 C202 1.511 1_565 S
C205 H219 0.961 . S
C205 H220 0.961 . S
C205 H221 0.961 . S
C206 C207 1.370 . S
C206 C208 1.363 . S
C206 H222 0.931 . S
C207 C206 1.370 . S
C207 C211 1.408 . S
C208 C206 1.363 . S
C208 C209 1.370 . S
C208 C212 1.524 . S
C209 C201 1.503 1_565 S
C209 C208 1.370 . S
C209 C210 1.403 . S
C210 C209 1.403 . S
C210 C211 1.404 . S
C210 C213 1.539 1_565 S
C211 C207 1.408 . S
C211 C210 1.404 . S
C211 H223 0.930 . S
C212 C208 1.524 . S
C212 H224 0.956 1_565 S
C212 H225 0.961 . S
C212 H226 0.961 . S
C213 C210 1.539 1_545 S
C213 H227 0.958 . S
C213 H228 0.961 1_545 S
C213 H229 0.960 . S
H214 C198 0.931 . S
H215 C203 0.929 . S
H216 C204 0.960 . S
H217 C204 0.962 . S
H218 C204 0.960 . S
H219 C205 0.961 . S
H220 C205 0.961 . S
H221 C205 0.961 . S
H222 C206 0.931 . S
H223 C211 0.930 . S
H224 C212 0.956 1_545 S
H225 C212 0.961 . S
H226 C212 0.961 . S
H227 C213 0.958 . S
H228 C213 0.961 1_565 S
H229 C213 0.960 . S
C230 C231 1.391 . S
C230 C232 1.394 . S
C230 H246 0.931 . S
C231 C230 1.391 . S
C231 C235 1.376 . S
C232 C230 1.394 . S
C232 C233 1.369 . S
C232 C236 1.531 . S
C233 C232 1.369 . S
C233 C234 1.410 . S
C233 C241 1.503 1_655 S
C234 C233 1.410 . S
C234 C235 1.392 . S
C234 C237 1.511 . S
C235 C231 1.376 . S
C235 C234 1.392 . S
C235 H247 0.929 . S
C236 C232 1.531 . S
C236 H248 0.960 . S
C236 H249 0.962 . S
C236 H250 0.960 . S
C237 C234 1.511 . S
C237 H251 0.961 . S
C237 H252 0.961 1_655 S
C237 H253 0.961 . S
C238 C239 1.370 . S
C238 C240 1.363 . S
C238 H254 0.931 . S
C239 C238 1.370 . S
C239 C243 1.408 . S
C240 C238 1.363 . S
C240 C241 1.370 . S
C240 C244 1.524 . S
C241 C233 1.503 1_455 S
C241 C240 1.370 . S
C241 C242 1.404 1_455 S
C242 C241 1.404 1_655 S
C242 C243 1.392 1_655 S
C242 C245 1.550 . S
C243 C239 1.408 . S
C243 C242 1.392 1_455 S
C243 H255 0.930 . S
C244 C240 1.524 . S
C244 H256 0.956 . S
C244 H257 0.961 . S
C244 H258 0.961 . S
C245 C242 1.550 . S
C245 H259 0.958 . S
C245 H260 0.961 . S
C245 H261 0.960 . S
H246 C230 0.931 . S
H247 C235 0.929 . S
H248 C236 0.960 . S
H249 C236 0.962 . S
H250 C236 0.960 . S
H251 C237 0.961 . S
H252 C237 0.961 1_455 S
H253 C237 0.961 . S
H254 C238 0.931 . S
H255 C243 0.930 . S
H256 C244 0.956 . S
H257 C244 0.961 . S
H258 C244 0.961 . S
H259 C245 0.958 . S
H260 C245 0.961 . S
H261 C245 0.960 . S
C262 C263 1.391 . S
C262 C264 1.394 . S
C262 H278 0.931 . S
C263 C262 1.391 . S
C263 C267 1.376 . S
C264 C262 1.394 . S
C264 C265 1.369 . S
C264 C268 1.531 . S
C265 C264 1.369 . S
C265 C266 1.410 . S
C265 C273 1.503 . S
C266 C265 1.410 . S
C266 C267 1.392 . S
C266 C269 1.511 . S
C267 C263 1.376 . S
C267 C266 1.392 . S
C267 H279 0.929 . S
C268 C264 1.531 . S
C268 H280 0.960 . S
C268 H281 0.962 . S
C268 H282 0.960 . S
C269 C266 1.511 . S
C269 H283 0.961 . S
C269 H284 0.961 . S
C269 H285 0.961 . S
C270 C271 1.370 . S
C270 C272 1.363 . S
C270 H286 0.931 . S
C271 C270 1.370 . S
C271 C275 1.408 . S
C272 C270 1.363 . S
C272 C273 1.370 . S
C272 C276 1.524 . S
C273 C265 1.503 . S
C273 C272 1.370 . S
C273 C274 1.403 . S
C274 C273 1.403 . S
C274 C275 1.404 . S
C274 C277 1.539 . S
C275 C271 1.408 . S
C275 C274 1.404 . S
C275 H287 0.930 . S
C276 C272 1.524 . S
C276 H288 0.956 . S
C276 H289 0.961 . S
C276 H290 0.961 . S
C277 C274 1.539 . S
C277 H291 0.958 . S
C277 H292 0.961 . S
C277 H293 0.960 . S
H278 C262 0.931 . S
H279 C267 0.929 . S
H280 C268 0.960 . S
H281 C268 0.962 . S
H282 C268 0.960 . S
H283 C269 0.961 . S
H284 C269 0.961 . S
H285 C269 0.961 . S
H286 C270 0.931 . S
H287 C275 0.930 . S
H288 C276 0.956 . S
H289 C276 0.961 . S
H290 C276 0.961 . S
H291 C277 0.958 . S
H292 C277 0.961 . S
H293 C277 0.960 . S
C294 C295 1.391 . S
C294 C296 1.405 . S
C294 H310 0.931 . S
C295 C294 1.391 . S
C295 C299 1.376 . S
C296 C294 1.405 . S
C296 C297 1.378 . S
C296 C300 1.510 1_455 S
C297 C296 1.378 . S
C297 C298 1.410 . S
C297 C305 1.503 1_455 S
C298 C297 1.410 . S
C298 C299 1.392 . S
C298 C301 1.511 . S
C299 C295 1.376 . S
C299 C298 1.392 . S
C299 H311 0.929 . S
C300 C296 1.510 1_655 S
C300 H312 0.960 . S
C300 H313 0.962 . S
C300 H314 0.960 . S
C301 C298 1.511 . S
C301 H315 0.961 . S
C301 H316 0.961 . S
C301 H317 0.961 . S
C302 C303 1.370 . S
C302 C304 1.363 . S
C302 H318 0.931 . S
C303 C302 1.370 . S
C303 C307 1.408 . S
C304 C302 1.363 . S
C304 C305 1.370 . S
C304 C308 1.524 . S
C305 C297 1.503 1_655 S
C305 C304 1.370 . S
C305 C306 1.403 . S
C306 C305 1.403 . S
C306 C307 1.404 . S
C306 C309 1.539 . S
C307 C303 1.408 . S
C307 C306 1.404 . S
C307 H319 0.930 . S
C308 C304 1.524 . S
C308 H320 0.956 . S
C308 H321 0.961 1_655 S
C308 H322 0.961 . S
C309 C306 1.539 . S
C309 H323 0.958 . S
C309 H324 0.961 . S
C309 H325 0.960 . S
H310 C294 0.931 . S
H311 C299 0.929 . S
H312 C300 0.960 . S
H313 C300 0.962 . S
H314 C300 0.960 . S
H315 C301 0.961 . S
H316 C301 0.961 . S
H317 C301 0.961 . S
H318 C302 0.931 . S
H319 C307 0.930 . S
H320 C308 0.956 . S
H321 C308 0.961 1_455 S
H322 C308 0.961 . S
H323 C309 0.958 . S
H324 C309 0.961 . S
H325 C309 0.960 . S
C326 C327 1.391 . S
C326 C328 1.394 . S
C326 H342 0.931 . S
C327 C326 1.391 . S
C327 C331 1.376 . S
C328 C326 1.394 . S
C328 C329 1.369 . S
C328 C332 1.531 . S
C329 C328 1.369 . S
C329 C330 1.410 . S
C329 C337 1.503 . S
C330 C329 1.410 . S
C330 C331 1.392 . S
C330 C333 1.511 . S
C331 C327 1.376 . S
C331 C330 1.392 . S
C331 H343 0.929 . S
C332 C328 1.531 . S
C332 H344 0.960 . S
C332 H345 0.962 . S
C332 H346 0.960 . S
C333 C330 1.511 . S
C333 H347 0.961 . S
C333 H348 0.961 . S
C333 H349 0.961 . S
C334 C335 1.370 . S
C334 C336 1.363 . S
C334 H350 0.931 . S
C335 C334 1.370 . S
C335 C339 1.408 . S
C336 C334 1.363 . S
C336 C337 1.370 . S
C336 C340 1.524 . S
C337 C329 1.503 . S
C337 C336 1.370 . S
C337 C338 1.403 . S
C338 C337 1.403 . S
C338 C339 1.404 . S
C338 C341 1.539 . S
C339 C335 1.408 . S
C339 C338 1.404 . S
C339 H351 0.930 . S
C340 C336 1.524 . S
C340 H352 0.956 . S
C340 H353 0.961 . S
C340 H354 0.961 . S
C341 C338 1.539 . S
C341 H355 0.958 . S
C341 H356 0.961 . S
C341 H357 0.960 . S
H342 C326 0.931 . S
H343 C331 0.929 . S
H344 C332 0.960 . S
H345 C332 0.962 . S
H346 C332 0.960 . S
H347 C333 0.961 . S
H348 C333 0.961 . S
H349 C333 0.961 . S
H350 C334 0.931 . S
H351 C339 0.930 . S
H352 C340 0.956 . S
H353 C340 0.961 . S
H354 C340 0.961 . S
H355 C341 0.958 . S
H356 C341 0.961 . S
H357 C341 0.960 . S
C358 C359 1.391 . S
C358 C360 1.394 . S
C358 H374 0.931 . S
C359 C358 1.391 . S
C359 C363 1.376 . S
C360 C358 1.394 . S
C360 C361 1.369 . S
C360 C364 1.531 . S
C361 C360 1.369 . S
C361 C362 1.410 . S
C361 C369 1.503 1_565 S
C362 C361 1.410 . S
C362 C363 1.392 . S
C362 C365 1.511 1_565 S
C363 C359 1.376 . S
C363 C362 1.392 . S
C363 H375 0.929 . S
C364 C360 1.531 . S
C364 H376 0.960 . S
C364 H377 0.962 . S
C364 H378 0.960 . S
C365 C362 1.511 1_545 S
C365 H379 0.961 . S
C365 H380 0.961 . S
C365 H381 0.961 1_545 S
C366 C367 1.370 . S
C366 C368 1.363 . S
C366 H382 0.931 . S
C367 C366 1.370 . S
C367 C371 1.408 . S
C368 C366 1.363 . S
C368 C369 1.370 . S
C368 C372 1.524 . S
C369 C361 1.503 1_545 S
C369 C368 1.370 . S
C369 C370 1.403 . S
C370 C369 1.403 . S
C370 C371 1.404 . S
C370 C373 1.539 1_545 S
C371 C367 1.408 . S
C371 C370 1.404 . S
C371 H383 0.930 . S
C372 C368 1.524 . S
C372 H384 0.956 . S
C372 H385 0.961 . S
C372 H386 0.961 . S
C373 C370 1.539 1_565 S
C373 H387 0.958 . S
C373 H388 0.961 . S
C373 H389 0.960 . S
H374 C358 0.931 . S
H375 C363 0.929 . S
H376 C364 0.960 . S
H377 C364 0.962 . S
H378 C364 0.960 . S
H379 C365 0.961 . S
H380 C365 0.961 . S
H381 C365 0.961 1_565 S
H382 C366 0.931 . S
H383 C371 0.930 . S
H384 C372 0.956 . S
H385 C372 0.961 . S
H386 C372 0.961 . S
H387 C373 0.958 . S
H388 C373 0.961 . S
H389 C373 0.960 . S
C390 C391 1.391 . S
C390 C392 1.394 . S
C390 H406 0.931 . S
C391 C390 1.391 . S
C391 C395 1.376 . S
C392 C390 1.394 . S
C392 C393 1.369 . S
C392 C396 1.531 . S
C393 C392 1.369 . S
C393 C394 1.410 . S
C393 C401 1.503 . S
C394 C393 1.410 . S
C394 C395 1.392 . S
C394 C397 1.511 . S
C395 C391 1.376 . S
C395 C394 1.392 . S
C395 H407 0.929 . S
C396 C392 1.531 . S
C396 H408 0.960 . S
C396 H409 0.962 . S
C396 H410 0.960 . S
C397 C394 1.511 . S
C397 H411 0.961 . S
C397 H412 0.961 . S
C397 H413 0.961 . S
C398 C399 1.370 . S
C398 C400 1.363 1_455 S
C398 H414 0.931 . S
C399 C398 1.370 . S
C399 C403 1.408 1_455 S
C400 C398 1.363 1_655 S
C400 C401 1.370 . S
C400 C404 1.524 1_655 S
C401 C393 1.503 . S
C401 C400 1.370 . S
C401 C402 1.403 . S
C402 C401 1.403 . S
C402 C403 1.404 . S
C402 C405 1.539 . S
C403 C399 1.408 1_655 S
C403 C402 1.404 . S
C403 H415 0.930 . S
C404 C400 1.524 1_455 S
C404 H416 0.956 1_455 S
C404 H417 0.961 . S
C404 H418 0.961 . S
C405 C402 1.539 . S
C405 H419 0.958 . S
C405 H420 0.961 . S
C405 H421 0.960 . S
H406 C390 0.931 . S
H407 C395 0.929 . S
H408 C396 0.960 . S
H409 C396 0.962 . S
H410 C396 0.960 . S
H411 C397 0.961 . S
H412 C397 0.961 . S
H413 C397 0.961 . S
H414 C398 0.931 . S
H415 C403 0.930 . S
H416 C404 0.956 1_655 S
H417 C404 0.961 . S
H418 C404 0.961 . S
H419 C405 0.958 . S
H420 C405 0.961 . S
H421 C405 0.960 . S
C422 C423 1.391 . S
C422 C424 1.394 . S
C422 H438 0.931 . S
C423 C422 1.391 . S
C423 C427 1.376 . S
C424 C422 1.394 . S
C424 C425 1.369 . S
C424 C428 1.531 . S
C425 C424 1.369 . S
C425 C426 1.410 . S
C425 C433 1.503 . S
C426 C425 1.410 . S
C426 C427 1.392 . S
C426 C429 1.511 . S
C427 C423 1.376 . S
C427 C426 1.392 . S
C427 H439 0.929 . S
C428 C424 1.531 . S
C428 H440 0.960 . S
C428 H441 0.962 . S
C428 H442 0.960 . S
C429 C426 1.511 . S
C429 H443 0.961 . S
C429 H444 0.961 . S
C429 H445 0.961 . S
C430 C431 1.370 . S
C430 C432 1.363 . S
C430 H446 0.931 . S
C431 C430 1.370 . S
C431 C435 1.408 . S
C432 C430 1.363 . S
C432 C433 1.370 . S
C432 C436 1.524 . S
C433 C425 1.503 . S
C433 C432 1.370 . S
C433 C434 1.403 . S
C434 C433 1.403 . S
C434 C435 1.404 . S
C434 C437 1.539 . S
C435 C431 1.408 . S
C435 C434 1.404 . S
C435 H447 0.930 . S
C436 C432 1.524 . S
C436 H448 0.956 . S
C436 H449 0.961 . S
C436 H450 0.961 . S
C437 C434 1.539 . S
C437 H451 0.958 . S
C437 H452 0.961 . S
C437 H453 0.960 . S
H438 C422 0.931 . S
H439 C427 0.929 . S
H440 C428 0.960 . S
H441 C428 0.962 . S
H442 C428 0.960 . S
H443 C429 0.961 . S
H444 C429 0.961 . S
H445 C429 0.961 . S
H446 C430 0.931 . S
H447 C435 0.930 . S
H448 C436 0.956 . S
H449 C436 0.961 . S
H450 C436 0.961 . S
H451 C437 0.958 . S
H452 C437 0.961 . S
H453 C437 0.960 . S
C454 C455 1.391 . S
C454 C456 1.394 . S
C454 H470 0.931 . S
C455 C454 1.391 . S
C455 C459 1.376 . S
C456 C454 1.394 . S
C456 C457 1.369 . S
C456 C460 1.531 . S
C457 C456 1.369 . S
C457 C458 1.410 . S
C457 C465 1.503 . S
C458 C457 1.410 . S
C458 C459 1.392 . S
C458 C461 1.511 . S
C459 C455 1.376 . S
C459 C458 1.392 . S
C459 H471 0.929 . S
C460 C456 1.531 . S
C460 H472 0.960 . S
C460 H473 0.962 . S
C460 H474 0.960 . S
C461 C458 1.511 . S
C461 H475 0.961 . S
C461 H476 0.961 . S
C461 H477 0.961 . S
C462 C463 1.370 . S
C462 C464 1.363 1_565 S
C462 H478 0.931 . S
C463 C462 1.370 . S
C463 C467 1.408 1_565 S
C464 C462 1.363 1_545 S
C464 C465 1.370 . S
C464 C468 1.524 1_545 S
C465 C457 1.503 . S
C465 C464 1.370 . S
C465 C466 1.403 . S
C466 C465 1.403 . S
C466 C467 1.404 . S
C466 C469 1.539 . S
C467 C463 1.408 1_545 S
C467 C466 1.404 . S
C467 H479 0.930 . S
C468 C464 1.524 1_565 S
C468 H480 0.956 . S
C468 H481 0.961 1_565 S
C468 H482 0.961 . S
C469 C466 1.539 . S
C469 H483 0.958 . S
C469 H484 0.961 . S
C469 H485 0.960 . S
H470 C454 0.931 . S
H471 C459 0.929 . S
H472 C460 0.960 . S
H473 C460 0.962 . S
H474 C460 0.960 . S
H475 C461 0.961 . S
H476 C461 0.961 . S
H477 C461 0.961 . S
H478 C462 0.931 . S
H479 C467 0.930 . S
H480 C468 0.956 . S
H481 C468 0.961 1_545 S
H482 C468 0.961 . S
H483 C469 0.958 . S
H484 C469 0.961 . S
H485 C469 0.960 . S
C486 C487 1.391 . S
C486 C488 1.394 . S
C486 H502 0.931 . S
C487 C486 1.391 . S
C487 C491 1.376 . S
C488 C486 1.394 . S
C488 C489 1.369 . S
C488 C492 1.531 . S
C489 C488 1.369 . S
C489 C490 1.410 . S
C489 C497 1.503 . S
C490 C489 1.410 . S
C490 C491 1.392 . S
C490 C493 1.511 . S
C491 C487 1.376 . S
C491 C490 1.392 . S
C491 H503 0.929 . S
C492 C488 1.531 . S
C492 H504 0.960 . S
C492 H505 0.962 . S
C492 H506 0.960 . S
C493 C490 1.511 . S
C493 H507 0.961 . S
C493 H508 0.961 . S
C493 H509 0.961 . S
C494 C495 1.370 1_545 S
C494 C496 1.363 . S
C494 H510 0.931 . S
C495 C494 1.370 1_565 S
C495 C499 1.408 . S
C496 C494 1.363 . S
C496 C497 1.370 . S
C496 C500 1.524 . S
C497 C489 1.503 . S
C497 C496 1.370 . S
C497 C498 1.403 1_545 S
C498 C497 1.403 1_565 S
C498 C499 1.404 . S
C498 C501 1.539 . S
C499 C495 1.408 . S
C499 C498 1.404 . S
C499 H511 0.930 . S
C500 C496 1.524 . S
C500 H512 0.956 . S
C500 H513 0.961 . S
C500 H514 0.961 . S
C501 C498 1.539 . S
C501 H515 0.958 . S
C501 H516 0.961 . S
C501 H517 0.960 . S
H502 C486 0.931 . S
H503 C491 0.929 . S
H504 C492 0.960 . S
H505 C492 0.962 . S
H506 C492 0.960 . S
H507 C493 0.961 . S
H508 C493 0.961 . S
H509 C493 0.961 . S
H510 C494 0.931 . S
H511 C499 0.930 . S
H512 C500 0.956 . S
H513 C500 0.961 . S
H514 C500 0.961 . S
H515 C501 0.958 . S
H516 C501 0.961 . S
H517 C501 0.960 . S
C518 C519 1.391 1_655 S
C518 C520 1.394 . S
C518 H534 0.931 . S
C519 C518 1.391 1_455 S
C519 C523 1.376 . S
C520 C518 1.394 . S
C520 C521 1.369 . S
C520 C524 1.531 . S
C521 C520 1.369 . S
C521 C522 1.410 . S
C521 C529 1.503 . S
C522 C521 1.410 . S
C522 C523 1.392 1_655 S
C522 C525 1.511 . S
C523 C519 1.376 . S
C523 C522 1.392 1_455 S
C523 H535 0.929 . S
C524 C520 1.531 . S
C524 H536 0.960 . S
C524 H537 0.962 . S
C524 H538 0.960 . S
C525 C522 1.511 . S
C525 H539 0.961 . S
C525 H540 0.961 . S
C525 H541 0.961 1_655 S
C526 C527 1.370 . S
C526 C528 1.363 . S
C526 H542 0.931 . S
C527 C526 1.370 . S
C527 C531 1.408 . S
C528 C526 1.363 . S
C528 C529 1.370 . S
C528 C532 1.524 . S
C529 C521 1.503 . S
C529 C528 1.370 . S
C529 C530 1.403 . S
C530 C529 1.403 . S
C530 C531 1.404 . S
C530 C533 1.539 . S
C531 C527 1.408 . S
C531 C530 1.404 . S
C531 H543 0.930 . S
C532 C528 1.524 . S
C532 H544 0.956 . S
C532 H545 0.961 . S
C532 H546 0.961 . S
C533 C530 1.539 . S
C533 H547 0.958 . S
C533 H548 0.961 . S
C533 H549 0.960 1_655 S
H534 C518 0.931 . S
H535 C523 0.929 . S
H536 C524 0.960 . S
H537 C524 0.962 . S
H538 C524 0.960 . S
H539 C525 0.961 . S
H540 C525 0.961 . S
H541 C525 0.961 1_455 S
H542 C526 0.931 . S
H543 C531 0.930 . S
H544 C532 0.956 . S
H545 C532 0.961 . S
H546 C532 0.961 . S
H547 C533 0.958 . S
H548 C533 0.961 . S
H549 C533 0.960 1_455 S
C550 C551 1.391 . S
C550 C552 1.394 . S
C550 H566 0.931 . S
C551 C550 1.391 . S
C551 C555 1.376 . S
C552 C550 1.394 . S
C552 C553 1.369 . S
C552 C556 1.531 . S
C553 C552 1.369 . S
C553 C554 1.410 . S
C553 C561 1.503 . S
C554 C553 1.410 . S
C554 C555 1.392 . S
C554 C557 1.511 . S
C555 C551 1.376 . S
C555 C554 1.392 . S
C555 H567 0.929 . S
C556 C552 1.531 . S
C556 H568 0.960 . S
C556 H569 0.962 . S
C556 H570 0.960 . S
C557 C554 1.511 . S
C557 H571 0.961 . S
C557 H572 0.961 . S
C557 H573 0.961 . S
C558 C559 1.370 . S
C558 C560 1.363 . S
C558 H574 0.931 . S
C559 C558 1.370 . S
C559 C563 1.408 . S
C560 C558 1.363 . S
C560 C561 1.370 . S
C560 C564 1.524 . S
C561 C553 1.503 . S
C561 C560 1.370 . S
C561 C562 1.403 . S
C562 C561 1.403 . S
C562 C563 1.404 . S
C562 C565 1.539 . S
C563 C559 1.408 . S
C563 C562 1.404 . S
C563 H575 0.930 . S
C564 C560 1.524 . S
C564 H576 0.956 . S
C564 H577 0.961 . S
C564 H578 0.961 . S
C565 C562 1.539 . S
C565 H579 0.958 . S
C565 H580 0.961 . S
C565 H581 0.960 . S
H566 C550 0.931 . S
H567 C555 0.929 . S
H568 C556 0.960 . S
H569 C556 0.962 . S
H570 C556 0.960 . S
H571 C557 0.961 . S
H572 C557 0.961 . S
H573 C557 0.961 . S
H574 C558 0.931 . S
H575 C563 0.930 . S
H576 C564 0.956 . S
H577 C564 0.961 . S
H578 C564 0.961 . S
H579 C565 0.958 . S
H580 C565 0.961 . S
H581 C565 0.960 . S
C582 C583 1.391 . S
C582 C584 1.394 . S
C582 H598 0.931 . S
C583 C582 1.391 . S
C583 C587 1.376 . S
C584 C582 1.394 . S
C584 C585 1.369 . S
C584 C588 1.531 . S
C585 C584 1.369 . S
C585 C586 1.410 . S
C585 C593 1.503 . S
C586 C585 1.410 . S
C586 C587 1.392 . S
C586 C589 1.511 . S
C587 C583 1.376 . S
C587 C586 1.392 . S
C587 H599 0.929 . S
C588 C584 1.531 . S
C588 H600 0.960 . S
C588 H601 0.962 . S
C588 H602 0.960 . S
C589 C586 1.511 . S
C589 H603 0.961 . S
C589 H604 0.961 . S
C589 H605 0.961 . S
C590 C591 1.370 . S
C590 C592 1.363 . S
C590 H606 0.931 . S
C591 C590 1.370 . S
C591 C595 1.408 . S
C592 C590 1.363 . S
C592 C593 1.370 . S
C592 C596 1.524 . S
C593 C585 1.503 . S
C593 C592 1.370 . S
C593 C594 1.403 . S
C594 C593 1.403 . S
C594 C595 1.404 . S
C594 C597 1.539 . S
C595 C591 1.408 . S
C595 C594 1.404 . S
C595 H607 0.930 . S
C596 C592 1.524 . S
C596 H608 0.956 . S
C596 H609 0.961 . S
C596 H610 0.961 . S
C597 C594 1.539 . S
C597 H611 0.958 . S
C597 H612 0.961 . S
C597 H613 0.960 . S
H598 C582 0.931 . S
H599 C587 0.929 . S
H600 C588 0.960 . S
H601 C588 0.962 . S
H602 C588 0.960 . S
H603 C589 0.961 . S
H604 C589 0.961 . S
H605 C589 0.961 . S
H606 C590 0.931 . S
H607 C595 0.930 . S
H608 C596 0.956 . S
H609 C596 0.961 . S
H610 C596 0.961 . S
H611 C597 0.958 . S
H612 C597 0.961 . S
H613 C597 0.960 . S
C614 C615 1.391 . S
C614 C616 1.394 . S
C614 H630 0.931 . S
C615 C614 1.391 . S
C615 C619 1.376 . S
C616 C614 1.394 . S
C616 C617 1.369 . S
C616 C620 1.531 . S
C617 C616 1.369 . S
C617 C618 1.410 . S
C617 C625 1.503 . S
C618 C617 1.410 . S
C618 C619 1.392 . S
C618 C621 1.511 . S
C619 C615 1.376 . S
C619 C618 1.392 . S
C619 H631 0.929 . S
C620 C616 1.531 . S
C620 H632 0.960 . S
C620 H633 0.962 . S
C620 H634 0.960 . S
C621 C618 1.511 . S
C621 H635 0.961 . S
C621 H636 0.961 . S
C621 H637 0.961 . S
C622 C623 1.370 . S
C622 C624 1.363 . S
C622 H638 0.931 . S
C623 C622 1.370 . S
C623 C627 1.408 . S
C624 C622 1.363 . S
C624 C625 1.370 . S
C624 C628 1.524 . S
C625 C617 1.503 . S
C625 C624 1.370 . S
C625 C626 1.403 . S
C626 C625 1.403 . S
C626 C627 1.404 . S
C626 C629 1.539 . S
C627 C623 1.408 . S
C627 C626 1.404 . S
C627 H639 0.930 . S
C628 C624 1.524 . S
C628 H640 0.956 . S
C628 H641 0.961 . S
C628 H642 0.961 . S
C629 C626 1.539 . S
C629 H643 0.958 1_565 S
C629 H644 0.961 . S
C629 H645 0.960 . S
H630 C614 0.931 . S
H631 C619 0.929 . S
H632 C620 0.960 . S
H633 C620 0.962 . S
H634 C620 0.960 . S
H635 C621 0.961 . S
H636 C621 0.961 . S
H637 C621 0.961 . S
H638 C622 0.931 . S
H639 C627 0.930 . S
H640 C628 0.956 . S
H641 C628 0.961 . S
H642 C628 0.961 . S
H643 C629 0.958 1_545 S
H644 C629 0.961 . S
H645 C629 0.960 . S
C646 C647 1.391 . S
C646 C648 1.394 . S
C646 H662 0.931 . S
C647 C646 1.391 . S
C647 C651 1.376 . S
C648 C646 1.394 . S
C648 C649 1.369 . S
C648 C652 1.531 . S
C649 C648 1.369 . S
C649 C650 1.410 . S
C649 C657 1.503 . S
C650 C649 1.410 . S
C650 C651 1.392 . S
C650 C653 1.511 . S
C651 C647 1.376 . S
C651 C650 1.392 . S
C651 H663 0.929 . S
C652 C648 1.531 . S
C652 H664 0.960 . S
C652 H665 0.962 . S
C652 H666 0.960 . S
C653 C650 1.511 . S
C653 H667 0.961 . S
C653 H668 0.961 . S
C653 H669 0.961 . S
C654 C655 1.370 . S
C654 C656 1.363 . S
C654 H670 0.931 . S
C655 C654 1.370 . S
C655 C659 1.408 . S
C656 C654 1.363 . S
C656 C657 1.370 . S
C656 C660 1.524 . S
C657 C649 1.503 . S
C657 C656 1.370 . S
C657 C658 1.403 . S
C658 C657 1.403 . S
C658 C659 1.404 . S
C658 C661 1.539 . S
C659 C655 1.408 . S
C659 C658 1.404 . S
C659 H671 0.930 . S
C660 C656 1.524 . S
C660 H672 0.956 . S
C660 H673 0.961 . S
C660 H674 0.961 . S
C661 C658 1.539 . S
C661 H675 0.958 . S
C661 H676 0.961 . S
C661 H677 0.960 . S
H662 C646 0.931 . S
H663 C651 0.929 . S
H664 C652 0.960 . S
H665 C652 0.962 . S
H666 C652 0.960 . S
H667 C653 0.961 . S
H668 C653 0.961 . S
H669 C653 0.961 . S
H670 C654 0.931 . S
H671 C659 0.930 . S
H672 C660 0.956 . S
H673 C660 0.961 . S
H674 C660 0.961 . S
H675 C661 0.958 . S
H676 C661 0.961 . S
H677 C661 0.960 . S
C678 C679 1.391 . S
C678 C680 1.394 . S
C678 H694 0.931 . S
C679 C678 1.391 . S
C679 C683 1.376 . S
C680 C678 1.394 . S
C680 C681 1.369 . S
C680 C684 1.531 . S
C681 C680 1.369 . S
C681 C682 1.410 . S
C681 C689 1.503 . S
C682 C681 1.410 . S
C682 C683 1.392 . S
C682 C685 1.511 . S
C683 C679 1.376 . S
C683 C682 1.392 . S
C683 H695 0.929 . S
C684 C680 1.531 . S
C684 H696 0.960 . S
C684 H697 0.962 . S
C684 H698 0.960 . S
C685 C682 1.511 . S
C685 H699 0.961 . S
C685 H700 0.961 . S
C685 H701 0.961 . S
C686 C687 1.370 . S
C686 C688 1.363 . S
C686 H702 0.931 . S
C687 C686 1.370 . S
C687 C691 1.408 . S
C688 C686 1.363 . S
C688 C689 1.370 . S
C688 C692 1.524 . S
C689 C681 1.503 . S
C689 C688 1.370 . S
C689 C690 1.403 . S
C690 C689 1.403 . S
C690 C691 1.404 . S
C690 C693 1.539 . S
C691 C687 1.408 . S
C691 C690 1.404 . S
C691 H703 0.930 . S
C692 C688 1.524 . S
C692 H704 0.956 . S
C692 H705 0.961 . S
C692 H706 0.961 . S
C693 C690 1.539 . S
C693 H707 0.958 . S
C693 H708 0.961 . S
C693 H709 0.960 . S
H694 C678 0.931 . S
H695 C683 0.929 . S
H696 C684 0.960 . S
H697 C684 0.962 . S
H698 C684 0.960 . S
H699 C685 0.961 . S
H700 C685 0.961 . S
H701 C685 0.961 . S
H702 C686 0.931 . S
H703 C691 0.930 . S
H704 C692 0.956 . S
H705 C692 0.961 . S
H706 C692 0.961 . S
H707 C693 0.958 . S
H708 C693 0.961 . S
H709 C693 0.960 . S
C710 C711 1.391 . S
C710 C712 1.394 . S
C710 H726 0.931 . S
C711 C710 1.391 . S
C711 C715 1.376 . S
C712 C710 1.394 . S
C712 C713 1.369 . S
C712 C716 1.531 . S
C713 C712 1.369 . S
C713 C714 1.410 . S
C713 C721 1.503 . S
C714 C713 1.410 . S
C714 C715 1.392 . S
C714 C717 1.511 . S
C715 C711 1.376 . S
C715 C714 1.392 . S
C715 H727 0.929 . S
C716 C712 1.531 . S
C716 H728 0.960 . S
C716 H729 0.962 . S
C716 H730 0.960 . S
C717 C714 1.511 . S
C717 H731 0.961 . S
C717 H732 0.961 . S
C717 H733 0.961 . S
C718 C719 1.370 . S
C718 C720 1.363 . S
C718 H734 0.931 . S
C719 C718 1.370 . S
C719 C723 1.408 . S
C720 C718 1.363 . S
C720 C721 1.370 . S
C720 C724 1.524 . S
C721 C713 1.503 . S
C721 C720 1.370 . S
C721 C722 1.403 . S
C722 C721 1.403 . S
C722 C723 1.404 . S
C722 C725 1.539 . S
C723 C719 1.408 . S
C723 C722 1.404 . S
C723 H735 0.930 . S
C724 C720 1.524 . S
C724 H736 0.956 . S
C724 H737 0.961 . S
C724 H738 0.961 . S
C725 C722 1.539 . S
C725 H739 0.958 1_565 S
C725 H740 0.961 1_565 S
C725 H741 0.960 . S
H726 C710 0.931 . S
H727 C715 0.929 . S
H728 C716 0.960 . S
H729 C716 0.962 . S
H730 C716 0.960 . S
H731 C717 0.961 . S
H732 C717 0.961 . S
H733 C717 0.961 . S
H734 C718 0.931 . S
H735 C723 0.930 . S
H736 C724 0.956 . S
H737 C724 0.961 . S
H738 C724 0.961 . S
H739 C725 0.958 1_545 S
H740 C725 0.961 1_545 S
H741 C725 0.960 . S
C742 C743 1.391 . S
C742 C744 1.394 . S
C742 H758 0.931 . S
C743 C742 1.391 . S
C743 C747 1.376 . S
C744 C742 1.394 . S
C744 C745 1.369 . S
C744 C748 1.531 . S
C745 C744 1.369 . S
C745 C746 1.410 . S
C745 C753 1.503 . S
C746 C745 1.410 . S
C746 C747 1.392 . S
C746 C749 1.511 . S
C747 C743 1.376 . S
C747 C746 1.392 . S
C747 H759 0.929 . S
C748 C744 1.531 . S
C748 H760 0.960 . S
C748 H761 0.962 1_455 S
C748 H762 0.960 1_455 S
C749 C746 1.511 . S
C749 H763 0.961 . S
C749 H764 0.961 . S
C749 H765 0.961 . S
C750 C751 1.370 . S
C750 C752 1.363 . S
C750 H766 0.931 . S
C751 C750 1.370 . S
C751 C755 1.408 . S
C752 C750 1.363 . S
C752 C753 1.370 . S
C752 C756 1.524 . S
C753 C745 1.503 . S
C753 C752 1.370 . S
C753 C754 1.403 . S
C754 C753 1.403 . S
C754 C755 1.404 . S
C754 C757 1.539 . S
C755 C751 1.408 . S
C755 C754 1.404 . S
C755 H767 0.930 . S
C756 C752 1.524 . S
C756 H768 0.956 . S
C756 H769 0.961 . S
C756 H770 0.961 . S
C757 C754 1.539 . S
C757 H771 0.958 . S
C757 H772 0.961 . S
C757 H773 0.960 . S
H758 C742 0.931 . S
H759 C747 0.929 . S
H760 C748 0.960 . S
H761 C748 0.962 1_655 S
H762 C748 0.960 1_655 S
H763 C749 0.961 . S
H764 C749 0.961 . S
H765 C749 0.961 . S
H766 C750 0.931 . S
H767 C755 0.930 . S
H768 C756 0.956 . S
H769 C756 0.961 . S
H770 C756 0.961 . S
H771 C757 0.958 . S
H772 C757 0.961 . S
H773 C757 0.960 . S
C774 C775 1.391 1_554 S
C774 C776 1.394 . S
C774 H790 0.931 . S
C775 C774 1.391 1_556 S
C775 C779 1.376 . S
C776 C774 1.394 . S
C776 C777 1.369 1_554 S
C776 C780 1.531 . S
C777 C776 1.369 1_556 S
C777 C778 1.410 . S
C777 C785 1.503 . S
C778 C777 1.410 . S
C778 C779 1.392 . S
C778 C781 1.511 . S
C779 C775 1.376 . S
C779 C778 1.392 . S
C779 H791 0.929 . S
C780 C776 1.531 . S
C780 H792 0.960 . S
C780 H793 0.962 . S
C780 H794 0.960 . S
C781 C778 1.511 . S
C781 H795 0.961 . S
C781 H796 0.961 . S
C781 H797 0.961 . S
C782 C783 1.370 . S
C782 C784 1.363 . S
C782 H798 0.931 1_556 S
C783 C782 1.370 . S
C783 C787 1.408 . S
C784 C782 1.363 . S
C784 C785 1.370 . S
C784 C788 1.524 1_556 S
C785 C777 1.503 . S
C785 C784 1.370 . S
C785 C786 1.403 . S
C786 C785 1.403 . S
C786 C787 1.404 . S
C786 C789 1.539 . S
C787 C783 1.408 . S
C787 C786 1.404 . S
C787 H799 0.930 . S
C788 C784 1.524 1_554 S
C788 H800 0.956 . S
C788 H801 0.961 1_554 S
C788 H802 0.961 . S
C789 C786 1.539 . S
C789 H803 0.958 . S
C789 H804 0.961 . S
C789 H805 0.960 . S
H790 C774 0.931 . S
H791 C779 0.929 . S
H792 C780 0.960 . S
H793 C780 0.962 . S
H794 C780 0.960 . S
H795 C781 0.961 . S
H796 C781 0.961 . S
H797 C781 0.961 . S
H798 C782 0.931 1_554 S
H799 C787 0.930 . S
H800 C788 0.956 . S
H801 C788 0.961 1_556 S
H802 C788 0.961 . S
H803 C789 0.958 . S
H804 C789 0.961 . S
H805 C789 0.960 . S
C806 C807 1.391 . S
C806 C808 1.394 . S
C806 H822 0.931 . S
C807 C806 1.391 . S
C807 C811 1.376 . S
C808 C806 1.394 . S
C808 C809 1.369 . S
C808 C812 1.531 . S
C809 C808 1.369 . S
C809 C810 1.410 . S
C809 C817 1.503 . S
C810 C809 1.410 . S
C810 C811 1.392 . S
C810 C813 1.511 1_556 S
C811 C807 1.376 . S
C811 C810 1.392 . S
C811 H823 0.929 1_556 S
C812 C808 1.531 . S
C812 H824 0.960 . S
C812 H825 0.962 . S
C812 H826 0.960 . S
C813 C810 1.511 1_554 S
C813 H827 0.961 . S
C813 H828 0.961 . S
C813 H829 0.961 1_554 S
C814 C815 1.370 1_554 S
C814 C816 1.363 . S
C814 H830 0.931 . S
C815 C814 1.370 1_556 S
C815 C819 1.408 . S
C816 C814 1.363 . S
C816 C817 1.370 1_554 S
C816 C820 1.524 . S
C817 C809 1.503 . S
C817 C816 1.370 1_556 S
C817 C818 1.403 . S
C818 C817 1.403 . S
C818 C819 1.404 . S
C818 C821 1.539 . S
C819 C815 1.408 . S
C819 C818 1.404 . S
C819 H831 0.930 . S
C820 C816 1.524 . S
C820 H832 0.956 . S
C820 H833 0.961 . S
C820 H834 0.961 . S
C821 C818 1.539 . S
C821 H835 0.958 . S
C821 H836 0.961 . S
C821 H837 0.960 . S
H822 C806 0.931 . S
H823 C811 0.929 1_554 S
H824 C812 0.960 . S
H825 C812 0.962 . S
H826 C812 0.960 . S
H827 C813 0.961 . S
H828 C813 0.961 . S
H829 C813 0.961 1_556 S
H830 C814 0.931 . S
H831 C819 0.930 . S
H832 C820 0.956 . S
H833 C820 0.961 . S
H834 C820 0.961 . S
H835 C821 0.958 . S
H836 C821 0.961 . S
H837 C821 0.960 . S
C838 C839 1.391 . S
C838 C840 1.394 . S
C838 H854 0.931 . S
C839 C838 1.391 . S
C839 C843 1.376 . S
C840 C838 1.394 . S
C840 C841 1.369 . S
C840 C844 1.531 . S
C841 C840 1.369 . S
C841 C842 1.410 . S
C841 C849 1.503 . S
C842 C841 1.410 . S
C842 C843 1.392 . S
C842 C845 1.511 1_556 S
C843 C839 1.376 . S
C843 C842 1.392 . S
C843 H855 0.929 1_556 S
C844 C840 1.531 . S
C844 H856 0.960 . S
C844 H857 0.962 . S
C844 H858 0.960 . S
C845 C842 1.511 1_554 S
C845 H859 0.961 . S
C845 H860 0.961 . S
C845 H861 0.961 1_554 S
C846 C847 1.370 1_554 S
C846 C848 1.363 . S
C846 H862 0.931 . S
C847 C846 1.370 1_556 S
C847 C851 1.408 . S
C848 C846 1.363 . S
C848 C849 1.370 1_554 S
C848 C852 1.524 . S
C849 C841 1.503 . S
C849 C848 1.370 1_556 S
C849 C850 1.403 . S
C850 C849 1.403 . S
C850 C851 1.404 . S
C850 C853 1.539 . S
C851 C847 1.408 . S
C851 C850 1.404 . S
C851 H863 0.930 . S
C852 C848 1.524 . S
C852 H864 0.956 . S
C852 H865 0.961 . S
C852 H866 0.961 . S
C853 C850 1.539 . S
C853 H867 0.958 . S
C853 H868 0.961 . S
C853 H869 0.960 . S
H854 C838 0.931 . S
H855 C843 0.929 1_554 S
H856 C844 0.960 . S
H857 C844 0.962 . S
H858 C844 0.960 . S
H859 C845 0.961 . S
H860 C845 0.961 . S
H861 C845 0.961 1_556 S
H862 C846 0.931 . S
H863 C851 0.930 . S
H864 C852 0.956 . S
H865 C852 0.961 . S
H866 C852 0.961 . S
H867 C853 0.958 . S
H868 C853 0.961 . S
H869 C853 0.960 . S
C870 C871 1.391 . S
C870 C872 1.394 . S
C870 H886 0.931 . S
C871 C870 1.391 . S
C871 C875 1.376 . S
C872 C870 1.394 . S
C872 C873 1.369 . S
C872 C876 1.531 . S
C873 C872 1.369 . S
C873 C874 1.410 . S
C873 C881 1.503 . S
C874 C873 1.410 . S
C874 C875 1.392 . S
C874 C877 1.511 . S
C875 C871 1.376 . S
C875 C874 1.392 . S
C875 H887 0.929 . S
C876 C872 1.531 . S
C876 H888 0.960 . S
C876 H889 0.962 . S
C876 H890 0.960 . S
C877 C874 1.511 . S
C877 H891 0.961 . S
C877 H892 0.961 . S
C877 H893 0.961 . S
C878 C879 1.370 . S
C878 C880 1.363 . S
C878 H894 0.931 . S
C879 C878 1.370 . S
C879 C883 1.408 . S
C880 C878 1.363 . S
C880 C881 1.370 . S
C880 C884 1.524 . S
C881 C873 1.503 . S
C881 C880 1.370 . S
C881 C882 1.403 . S
C882 C881 1.403 . S
C882 C883 1.404 . S
C882 C885 1.539 . S
C883 C879 1.408 . S
C883 C882 1.404 . S
C883 H895 0.930 . S
C884 C880 1.524 . S
C884 H896 0.956 . S
C884 H897 0.961 . S
C884 H898 0.961 . S
C885 C882 1.539 . S
C885 H899 0.958 . S
C885 H900 0.961 . S
C885 H901 0.960 . S
H886 C870 0.931 . S
H887 C875 0.929 . S
H888 C876 0.960 . S
H889 C876 0.962 . S
H890 C876 0.960 . S
H891 C877 0.961 . S
H892 C877 0.961 . S
H893 C877 0.961 . S
H894 C878 0.931 . S
H895 C883 0.930 . S
H896 C884 0.956 . S
H897 C884 0.961 . S
H898 C884 0.961 . S
H899 C885 0.958 . S
H900 C885 0.961 . S
H901 C885 0.960 . S
C902 C903 1.391 . S
C902 C904 1.394 . S
C902 H918 0.931 . S
C903 C902 1.391 . S
C903 C907 1.376 . S
C904 C902 1.394 . S
C904 C905 1.369 . S
C904 C908 1.531 . S
C905 C904 1.369 . S
C905 C906 1.410 . S
C905 C913 1.503 . S
C906 C905 1.410 . S
C906 C907 1.392 . S
C906 C909 1.511 . S
C907 C903 1.376 . S
C907 C906 1.392 . S
C907 H919 0.929 . S
C908 C904 1.531 . S
C908 H920 0.960 . S
C908 H921 0.962 . S
C908 H922 0.960 . S
C909 C906 1.511 . S
C909 H923 0.961 . S
C909 H924 0.961 . S
C909 H925 0.961 . S
C910 C911 1.370 . S
C910 C912 1.363 . S
C910 H926 0.931 . S
C911 C910 1.370 . S
C911 C915 1.408 . S
C912 C910 1.363 . S
C912 C913 1.370 . S
C912 C916 1.524 . S
C913 C905 1.503 . S
C913 C912 1.370 . S
C913 C914 1.403 . S
C914 C913 1.403 . S
C914 C915 1.404 . S
C914 C917 1.539 . S
C915 C911 1.408 . S
C915 C914 1.404 . S
C915 H927 0.930 . S
C916 C912 1.524 . S
C916 H928 0.956 . S
C916 H929 0.961 . S
C916 H930 0.961 . S
C917 C914 1.539 . S
C917 H931 0.958 . S
C917 H932 0.961 . S
C917 H933 0.960 . S
H918 C902 0.931 . S
H919 C907 0.929 . S
H920 C908 0.960 . S
H921 C908 0.962 . S
H922 C908 0.960 . S
H923 C909 0.961 . S
H924 C909 0.961 . S
H925 C909 0.961 . S
H926 C910 0.931 . S
H927 C915 0.930 . S
H928 C916 0.956 . S
H929 C916 0.961 . S
H930 C916 0.961 . S
H931 C917 0.958 . S
H932 C917 0.961 . S
H933 C917 0.960 . S
C934 C935 1.391 . S
C934 C936 1.394 . S
C934 H950 0.931 . S
C935 C934 1.391 . S
C935 C939 1.376 . S
C936 C934 1.394 . S
C936 C937 1.369 . S
C936 C940 1.531 . S
C937 C936 1.369 . S
C937 C938 1.410 . S
C937 C945 1.503 . S
C938 C937 1.410 . S
C938 C939 1.392 . S
C938 C941 1.511 . S
C939 C935 1.376 . S
C939 C938 1.392 . S
C939 H951 0.929 . S
C940 C936 1.531 . S
C940 H952 0.960 . S
C940 H953 0.962 . S
C940 H954 0.960 . S
C941 C938 1.511 . S
C941 H955 0.961 . S
C941 H956 0.961 . S
C941 H957 0.961 . S
C942 C943 1.370 . S
C942 C944 1.363 . S
C942 H958 0.931 . S
C943 C942 1.370 . S
C943 C947 1.408 . S
C944 C942 1.363 . S
C944 C945 1.370 . S
C944 C948 1.524 . S
C945 C937 1.503 . S
C945 C944 1.370 . S
C945 C946 1.403 . S
C946 C945 1.403 . S
C946 C947 1.404 . S
C946 C949 1.539 . S
C947 C943 1.408 . S
C947 C946 1.404 . S
C947 H959 0.930 . S
C948 C944 1.524 . S
C948 H960 0.956 . S
C948 H961 0.961 . S
C948 H962 0.961 . S
C949 C946 1.539 . S
C949 H963 0.958 . S
C949 H964 0.961 . S
C949 H965 0.960 . S
H950 C934 0.931 . S
H951 C939 0.929 . S
H952 C940 0.960 . S
H953 C940 0.962 . S
H954 C940 0.960 . S
H955 C941 0.961 . S
H956 C941 0.961 . S
H957 C941 0.961 . S
H958 C942 0.931 . S
H959 C947 0.930 . S
H960 C948 0.956 . S
H961 C948 0.961 . S
H962 C948 0.961 . S
H963 C949 0.958 . S
H964 C949 0.961 . S
H965 C949 0.960 . S
C966 C967 1.391 1_655 S
C966 C968 1.394 . S
C966 H982 0.931 . S
C967 C966 1.391 1_455 S
C967 C971 1.376 . S
C968 C966 1.394 . S
C968 C969 1.369 . S
C968 C972 1.531 . S
C969 C968 1.369 . S
C969 C970 1.410 . S
C969 C977 1.503 . S
C970 C969 1.410 . S
C970 C971 1.392 1_655 S
C970 C973 1.511 . S
C971 C967 1.376 . S
C971 C970 1.392 1_455 S
C971 H983 0.929 . S
C972 C968 1.531 . S
C972 H984 0.960 . S
C972 H985 0.962 . S
C972 H986 0.960 . S
C973 C970 1.511 . S
C973 H987 0.961 1_655 S
C973 H988 0.961 . S
C973 H989 0.961 . S
C974 C975 1.370 . S
C974 C976 1.363 . S
C974 H990 0.931 . S
C975 C974 1.370 . S
C975 C979 1.408 . S
C976 C974 1.363 . S
C976 C977 1.370 . S
C976 C980 1.524 . S
C977 C969 1.503 . S
C977 C976 1.370 . S
C977 C978 1.403 . S
C978 C977 1.403 . S
C978 C979 1.404 . S
C978 C981 1.539 . S
C979 C975 1.408 . S
C979 C978 1.404 . S
C979 H991 0.930 . S
C980 C976 1.524 . S
C980 H992 0.956 . S
C980 H993 0.961 . S
C980 H994 0.961 . S
C981 C978 1.539 . S
C981 H995 0.958 . S
C981 H996 0.961 . S
C981 H997 0.960 . S
H982 C966 0.931 . S
H983 C971 0.929 . S
H984 C972 0.960 . S
H985 C972 0.962 . S
H986 C972 0.960 . S
H987 C973 0.961 1_455 S
H988 C973 0.961 . S
H989 C973 0.961 . S
H990 C974 0.931 . S
H991 C979 0.930 . S
H992 C980 0.956 . S
H993 C980 0.961 . S
H994 C980 0.961 . S
H995 C981 0.958 . S
H996 C981 0.961 . S
H997 C981 0.960 . S
C998 C999 1.391 1_545 S
C998 C1000 1.394 . S
C998 H1014 0.931 1_545 S
C999 C998 1.391 1_565 S
C999 C1003 1.376 . S
C1000 C998 1.394 . S
C1000 C1001 1.369 . S
C1000 C1004 1.531 . S
C1001 C1000 1.369 . S
C1001 C1002 1.410 . S
C1001 C1009 1.503 . S
C1002 C1001 1.410 . S
C1002 C1003 1.392 1_545 S
C1002 C1005 1.511 . S
C1003 C999 1.376 . S
C1003 C1002 1.392 1_565 S
C1003 H1015 0.929 . S
C1004 C1000 1.531 . S
C1004 H1016 0.960 . S
C1004 H1017 0.962 . S
C1004 H1018 0.960 . S
C1005 C1002 1.511 . S
C1005 H1019 0.961 . S
C1005 H1020 0.961 . S
C1005 H1021 0.961 . S
C1006 C1007 1.370 . S
C1006 C1008 1.363 . S
C1006 H1022 0.931 . S
C1007 C1006 1.370 . S
C1007 C1011 1.408 . S
C1008 C1006 1.363 . S
C1008 C1009 1.370 . S
C1008 C1012 1.524 . S
C1009 C1001 1.503 . S
C1009 C1008 1.370 . S
C1009 C1010 1.403 . S
C1010 C1009 1.403 . S
C1010 C1011 1.404 . S
C1010 C1013 1.539 . S
C1011 C1007 1.408 . S
C1011 C1010 1.404 . S
C1011 H1023 0.930 . S
C1012 C1008 1.524 . S
C1012 H1024 0.956 . S
C1012 H1025 0.961 . S
C1012 H1026 0.961 . S
C1013 C1010 1.539 . S
C1013 H1027 0.958 . S
C1013 H1028 0.961 . S
C1013 H1029 0.960 . S
H1014 C998 0.931 1_565 S
H1015 C1003 0.929 . S
H1016 C1004 0.960 . S
H1017 C1004 0.962 . S
H1018 C1004 0.960 . S
H1019 C1005 0.961 . S
H1020 C1005 0.961 . S
H1021 C1005 0.961 . S
H1022 C1006 0.931 . S
H1023 C1011 0.930 . S
H1024 C1012 0.956 . S
H1025 C1012 0.961 . S
H1026 C1012 0.961 . S
H1027 C1013 0.958 . S
H1028 C1013 0.961 . S
H1029 C1013 0.960 . S
C1030 C1031 1.391 . S
C1030 C1032 1.394 1_565 S
C1030 H1046 0.931 . S
C1031 C1030 1.391 . S
C1031 C1035 1.376 1_565 S
C1032 C1030 1.394 1_545 S
C1032 C1033 1.369 . S
C1032 C1036 1.531 . S
C1033 C1032 1.369 . S
C1033 C1034 1.410 . S
C1033 C1041 1.503 . S
C1034 C1033 1.410 . S
C1034 C1035 1.392 . S
C1034 C1037 1.511 . S
C1035 C1031 1.376 1_545 S
C1035 C1034 1.392 . S
C1035 H1047 0.929 . S
C1036 C1032 1.531 . S
C1036 H1048 0.960 . S
C1036 H1049 0.962 . S
C1036 H1050 0.960 . S
C1037 C1034 1.511 . S
C1037 H1051 0.961 . S
C1037 H1052 0.961 . S
C1037 H1053 0.961 . S
C1038 C1039 1.370 . S
C1038 C1040 1.363 1_455 S
C1038 H1054 0.931 . S
C1039 C1038 1.370 . S
C1039 C1043 1.408 1_455 S
C1040 C1038 1.363 1_655 S
C1040 C1041 1.370 . S
C1040 C1044 1.524 . S
C1041 C1033 1.503 . S
C1041 C1040 1.370 . S
C1041 C1042 1.403 . S
C1042 C1041 1.403 . S
C1042 C1043 1.404 . S
C1042 C1045 1.539 . S
C1043 C1039 1.408 1_655 S
C1043 C1042 1.404 . S
C1043 H1055 0.930 . S
C1044 C1040 1.524 . S
C1044 H1056 0.956 . S
C1044 H1057 0.961 . S
C1044 H1058 0.961 . S
C1045 C1042 1.539 . S
C1045 H1059 0.958 . S
C1045 H1060 0.961 . S
C1045 H1061 0.960 . S
H1046 C1030 0.931 . S
H1047 C1035 0.929 . S
H1048 C1036 0.960 . S
H1049 C1036 0.962 . S
H1050 C1036 0.960 . S
H1051 C1037 0.961 . S
H1052 C1037 0.961 . S
H1053 C1037 0.961 . S
H1054 C1038 0.931 . S
H1055 C1043 0.930 . S
H1056 C1044 0.956 . S
H1057 C1044 0.961 . S
H1058 C1044 0.961 . S
H1059 C1045 0.958 . S
H1060 C1045 0.961 . S
H1061 C1045 0.960 . S
C199 C7 1.188 . S
C207 C162 1.204 . S
C231 C29 1.153 . S
C239 C184 1.196 . S
C263 C140 1.214 . S
C271 C51 1.190 . S
C295 C158 1.212 . S
C303 C49 1.186 . S
C327 C180 1.169 . S
C335 C5 1.167 . S
C359 C136 1.191 . S
C367 C27 1.184 . S
C391 C30 1.176 . S
C399 C73 1.179 . S
C423 C95 1.209 . S
C431 C52 1.203 . S
C455 C8 1.169 . S
C463 C117 1.168 . S
C487 C26 1.215 . S
C495 C115 1.191 . S
C519 C71 1.204 . S
C527 C48 1.205 . S
C551 C4 1.185 . S
C559 C93 1.180 . S
C583 C139 1.151 . S
C591 C96 1.195 . S
C615 C118 1.215 . S
C623 C161 1.187 . S
C647 C183 1.166 . S
C655 C74 1.186 . S
C679 C181 1.149 . S
C687 C92 1.186 . S
C711 C114 1.213 . S
C719 C137 1.193 . S
C743 C70 1.182 . S
C751 C159 1.179 . S
C775 C9 1.164 . S
C783 C28 1.142 . S
C807 C50 1.150 . S
C815 C31 1.139 . S
C839 C53 1.114 . S
C847 C6 1.119 . S
C871 C94 1.085 . S
C879 C75 1.111 . S
C903 C116 1.155 . S
C911 C97 1.140 . S
C935 C119 1.150 . S
C943 C72 1.135 . S
C967 C160 1.103 . S
C975 C141 1.114 . S
C999 C163 1.087 . S
C1007 C182 1.109 . S
C1031 C138 1.157 . S
C1039 C185 1.141 . S
