# Generated by pormake.
# Topology npo, (4)-cn, num edge types: 1
# Building blocks:
#     Node 0, Type 0, BuildingBlock: ICAMEG_clean_sbu_1, # of connection points: 4
#     Node 1, Type 0, BuildingBlock: ICAMEG_clean_sbu_1, # of connection points: 4
#     Node 2, Type 0, BuildingBlock: ICAMEG_clean_sbu_1, # of connection points: 4
#     Node 3, Type 0, BuildingBlock: ICAMEG_clean_sbu_1, # of connection points: 4
#     Node 4, Type 0, BuildingBlock: ICAMEG_clean_sbu_1, # of connection points: 4
#     Node 5, Type 0, BuildingBlock: ICAMEG_clean_sbu_1, # of connection points: 4
#     Edge 6, Type (0, 0), BuildingBlock: XIVTED_clean_linker_0, # of connection points: 2
#     Edge 7, Type (0, 0), BuildingBlock: XIVTED_clean_linker_0, # of connection points: 2
#     Edge 8, Type (0, 0), BuildingBlock: XIVTED_clean_linker_0, # of connection points: 2
#     Edge 9, Type (0, 0), BuildingBlock: XIVTED_clean_linker_0, # of connection points: 2
#     Edge 10, Type (0, 0), BuildingBlock: XIVTED_clean_linker_0, # of connection points: 2
#     Edge 11, Type (0, 0), BuildingBlock: XIVTED_clean_linker_0, # of connection points: 2
#     Edge 12, Type (0, 0), BuildingBlock: XIVTED_clean_linker_0, # of connection points: 2
#     Edge 13, Type (0, 0), BuildingBlock: XIVTED_clean_linker_0, # of connection points: 2
#     Edge 14, Type (0, 0), BuildingBlock: XIVTED_clean_linker_0, # of connection points: 2
#     Edge 15, Type (0, 0), BuildingBlock: XIVTED_clean_linker_0, # of connection points: 2
#     Edge 16, Type (0, 0), BuildingBlock: XIVTED_clean_linker_0, # of connection points: 2
#     Edge 17, Type (0, 0), BuildingBlock: XIVTED_clean_linker_0, # of connection points: 2
# Relax obj value: 0.242
# Max RMSD: 0.245
# Mean RMSD: 0.244
data_MOF--net-npo--node1-ICAMEG_clean_sbu_1--edge1-XIVTED_clean_linker_0
_symmetry_space_group_name_H-M    P1
_symmetry_Int_Tables_number       1
_symmetry_cell_setting            triclinic
loop_
_symmetry_equiv_pos_as_xyz
'x, y, z'
_cell_length_a     46.366293
_cell_length_b     46.347617
_cell_length_c     26.300725
_cell_angle_alpha  90.075014
_cell_angle_beta   90.066652
_cell_angle_gamma 119.99981
loop_
_atom_site_label
_atom_site_type_symbol
_atom_site_fract_x
_atom_site_fract_y
_atom_site_fract_z
_atom_type_partial_charge
Co0 Co 0.56638 0.12472 0.19432 0.0
Co1 Co 0.56246 0.12597 0.32544 0.0
O2 O 0.55212 0.10127 0.2603 0.0
C3 C 0.49785 0.06479 0.17119 0.0
O4 O 0.49218 0.05486 0.21867 0.0
C5 C 0.56932 0.0653 0.35062 0.0
O6 O 0.56424 0.05445 0.30353 0.0
O7 O 0.61076 0.15103 0.30817 0.0
O8 O 0.60885 0.15999 0.22495 0.0
H9 H 0.6179 0.22941 0.43331 0.0
H10 H 0.54694 0.05299 0.20111 0.0
O11 O 0.52474 0.09086 0.15864 0.0
H12 H 0.66143 0.11007 0.13423 0.0
H13 H 0.5818 0.13356 0.00413 0.0
H14 H 0.59784 0.19568 0.16389 0.0
H15 H 0.63313 0.14171 0.15385 0.0
H16 H 0.56467 0.10397 0.08605 0.0
O17 O 0.56955 0.09208 0.36226 0.0
H18 H 0.60353 0.19733 0.35332 0.0
H19 H 0.54427 0.10742 0.43444 0.0
H20 H 0.61559 0.22625 0.08282 0.0
H21 H 0.57404 0.02032 0.18127 0.0
H22 H 0.60759 0.19515 1.00216 0.0
H23 H 0.63179 0.04884 0.14765 0.0
O24 O 0.54426 0.15104 0.21067 0.0
H25 H 0.4492 0.02358 0.34216 0.0
H26 H 0.51432 0.14532 0.36552 0.0
H27 H 0.45458 0.11532 0.38637 0.0
H28 H 0.42157 0.05393 0.375 0.0
H29 H 0.50881 0.05462 0.32105 0.0
H30 H 0.55826 0.13852 0.51531 0.0
H31 H 0.59521 0.19998 0.51508 0.0
O32 O 0.55596 0.16133 0.29357 0.0
C33 C 0.62458 0.16584 0.26685 0.0
C34 C 0.60169 0.20264 0.43389 0.0
C35 C 0.56826 0.15163 0.47992 0.0
N36 N 0.57292 0.15055 0.38908 0.0
C37 C 0.5934 0.18435 0.3887 0.0
C38 C 0.5605 0.13415 0.43398 0.0
C39 C 0.58898 0.18611 0.47976 0.0
C40 C 0.57182 0.06561 0.18591 0.0
N41 N 0.58818 0.09926 0.17824 0.0
C42 C 0.58717 0.04696 0.175 0.0
C43 C 0.61959 0.06298 0.15625 0.0
C44 C 0.63623 0.09732 0.14876 0.0
C45 C 0.62009 0.11515 0.16013 0.0
C46 C 0.58546 0.14739 0.03903 0.0
C47 C 0.59443 0.18196 0.12901 0.0
C48 C 0.57573 0.13077 0.08555 0.0
N49 N 0.58042 0.14809 0.12984 0.0
C50 C 0.60446 0.19941 0.08319 0.0
C51 C 0.59994 0.18195 0.03795 0.0
C52 C 0.54594 0.16672 0.25147 0.0
C53 C 0.46334 0.05031 0.34754 0.0
C54 C 0.50018 0.11867 0.36013 0.0
C55 C 0.46633 0.10178 0.37219 0.0
C56 C 0.44784 0.06735 0.36586 0.0
N57 N 0.51532 0.10178 0.34246 0.0
C58 C 0.49725 0.06804 0.33591 0.0
Co59 Co 0.43077 0.55739 0.68569 0.0
Co60 Co 0.42985 0.56128 0.81585 0.0
O61 O 0.44504 0.55029 0.7528 0.0
C62 C 0.41047 0.49371 0.63198 0.0
O63 O 0.38034 0.48948 0.62844 0.0
C64 C 0.50104 0.57821 0.83881 0.0
O65 O 0.50651 0.57285 0.79175 0.0
O66 O 0.44706 0.60773 0.79111 0.0
O67 O 0.42926 0.59742 0.71037 0.0
H68 H 0.37296 0.61122 0.91526 0.0
H69 H 0.49097 0.55054 0.69136 0.0
O70 O 0.43261 0.51778 0.65838 0.0
H71 H 0.52952 0.66187 0.61839 0.0
H72 H 0.43391 0.56482 0.49418 0.0
H73 H 0.37917 0.57264 0.65002 0.0
H74 H 0.47048 0.62545 0.64058 0.0
H75 H 0.45221 0.55686 0.5784 0.0
O76 O 0.47335 0.57567 0.85134 0.0
H77 H 0.39201 0.59585 0.83769 0.0
H78 H 0.43603 0.55171 0.92707 0.0
H79 H 0.36013 0.58085 0.56658 0.0
H80 H 0.55017 0.586 0.66898 0.0
H81 H 0.38754 0.57693 0.48786 0.0
H82 H 0.56983 0.64215 0.63235 0.0
O83 O 0.38317 0.52875 0.7055 0.0
H84 H 0.43476 0.45635 0.84409 0.0
H85 H 0.36708 0.5103 0.86579 0.0
H86 H 0.34494 0.45251 0.89468 0.0
H87 H 0.37897 0.42518 0.88423 0.0
H88 H 0.45566 0.51383 0.81504 0.0
H89 H 0.41776 0.56694 0.00556 0.0
H90 H 0.38584 0.59676 0.99997 0.0
O91 O 0.38535 0.54705 0.78502 0.0
C92 C 0.44043 0.61669 0.74884 0.0
C93 C 0.38678 0.59815 0.91819 0.0
C94 C 0.41197 0.57335 0.96887 0.0
N95 N 0.41496 0.57273 0.87774 0.0
C96 C 0.39757 0.58931 0.87439 0.0
C97 C 0.42235 0.5649 0.92426 0.0
C98 C 0.39404 0.59006 0.96571 0.0
C99 C 0.49926 0.57485 0.67514 0.0
N100 N 0.47723 0.58586 0.66739 0.0
C101 C 0.53285 0.59486 0.66267 0.0
C102 C 0.54387 0.62638 0.64218 0.0
C103 C 0.52128 0.63747 0.6344 0.0
C104 C 0.48788 0.61678 0.64732 0.0
C105 C 0.42172 0.56654 0.52819 0.0
C106 C 0.39119 0.57081 0.61598 0.0
C107 C 0.43194 0.562 0.57601 0.0
N108 N 0.41665 0.56406 0.61918 0.0
C109 C 0.38032 0.57553 0.56881 0.0
C110 C 0.39571 0.57334 0.52467 0.0
C111 C 0.36913 0.53148 0.74545 0.0
C112 C 0.41978 0.46805 0.84917 0.0
C113 C 0.38201 0.49862 0.86087 0.0
C114 C 0.36936 0.46587 0.87744 0.0
C115 C 0.38845 0.45055 0.8716 0.0
N116 N 0.41293 0.51582 0.83938 0.0
C117 C 0.43161 0.50078 0.83305 0.0
Co118 Co 0.87424 0.43848 0.33594 0.0
Co119 Co 0.88147 0.44143 0.20527 0.0
O120 O 0.90146 0.4528 0.27376 0.0
C121 C 0.93018 0.50868 0.36074 0.0
O122 O 0.94129 0.51442 0.31388 0.0
C123 C 0.91954 0.41471 0.1523 0.0
O124 O 0.89146 0.3864 0.14725 0.0
O125 O 0.85656 0.39299 0.22304 0.0
O126 O 0.84257 0.39503 0.30392 0.0
H127 H 0.78766 0.38122 0.08057 0.0
H128 H 0.9467 0.46098 0.3387 0.0
O129 O 0.90462 0.48114 0.37258 0.0
H130 H 0.89105 0.3486 0.4137 0.0
H131 H 0.85398 0.42532 0.525 0.0
H132 H 0.80158 0.404 0.35549 0.0
H133 H 0.85824 0.37381 0.38401 0.0
H134 H 0.88847 0.44271 0.44759 0.0
O135 O 0.92052 0.43785 0.17998 0.0
H136 H 0.81354 0.39634 0.16554 0.0
H137 H 0.90713 0.46315 0.09938 0.0
H138 H 0.76617 0.3859 0.43195 0.0
H139 H 0.98049 0.43698 0.3686 0.0
H140 H 0.79236 0.39655 0.51748 0.0
H141 H 0.9527 0.38033 0.4064 0.0
O142 O 0.84718 0.45815 0.3108 0.0
H143 H 0.98278 0.55553 0.19504 0.0
H144 H 0.86251 0.48867 0.15918 0.0
H145 H 0.89252 0.54855 0.13897 0.0
H146 H 0.95317 0.58242 0.15665 0.0
H147 H 0.95165 0.49564 0.21552 0.0
H148 H 0.88229 0.44866 0.01371 0.0
H149 H 0.82211 0.4074 1.00386 0.0
O150 O 0.84264 0.44542 0.22781 0.0
C151 C 0.83963 0.37914 0.26296 0.0
C152 C 0.81392 0.39917 0.08435 0.0
C153 C 0.86702 0.43702 0.04683 0.0
N154 N 0.86189 0.43042 0.13753 0.0
C155 C 0.82874 0.40781 0.13239 0.0
C156 C 0.88097 0.44508 0.09547 0.0
C157 C 0.83326 0.41388 0.04133 0.0
C158 C 0.93435 0.43654 0.35562 0.0
N159 N 0.90046 0.41908 0.36016 0.0
C160 C 0.95366 0.42296 0.37225 0.0
C161 C 0.93805 0.39117 0.39337 0.0
C162 C 0.90347 0.37335 0.39745 0.0
C163 C 0.88499 0.38773 0.38041 0.0
C164 C 0.84228 0.42051 0.48794 0.0
C165 C 0.81318 0.40859 0.39255 0.0
C166 C 0.86168 0.4304 0.44394 0.0
N167 N 0.84707 0.42425 0.39696 0.0
C168 C 0.79299 0.39834 0.43572 0.0
C169 C 0.8077 0.40435 0.4837 0.0
C170 C 0.83383 0.45509 0.26717 0.0
C171 C 0.95637 0.54104 0.18711 0.0
C172 C 0.88877 0.50325 0.16766 0.0
C173 C 0.9057 0.53715 0.1558 0.0
C174 C 0.93973 0.55612 0.16565 0.0
N175 N 0.90525 0.4886 0.18869 0.0
C176 C 0.93861 0.50708 0.19846 0.0
Co177 Co 0.45345 0.88072 0.82124 0.0
Co178 Co 0.42572 0.88131 0.69934 0.0
O179 O 0.45158 0.9045 0.76044 0.0
C180 C 0.42947 0.92636 0.8627 0.0
O181 O 0.42381 0.93393 0.8171 0.0
C182 C 0.49553 0.92639 0.6581 0.0
O183 O 0.50877 0.93463 0.7037 0.0
O184 O 0.43762 0.8451 0.70525 0.0
O185 O 0.46641 0.85446 0.77776 0.0
H186 H 0.34165 0.78085 0.60176 0.0
H187 H 0.49133 0.95486 0.81868 0.0
O188 O 0.44056 0.9064 0.86846 0.0
H189 H 0.57562 0.92117 0.84501 0.0
H190 H 0.48351 0.87067 1.00203 0.0
H191 H 0.43172 0.81 0.8432 0.0
H192 H 0.51618 0.87886 0.83724 0.0
H193 H 0.48053 0.90066 0.92668 0.0
O194 O 0.46448 0.90638 0.65238 0.0
H195 H 0.37564 0.81103 0.67641 0.0
H196 H 0.41932 0.90201 0.59419 0.0
H197 H 0.43453 0.77912 0.91748 0.0
H198 H 0.55039 0.99796 0.82691 0.0
H199 H 0.46055 0.80947 0.99766 0.0
H200 H 0.59306 0.98123 0.84009 0.0
O201 O 0.40509 0.84529 0.81475 0.0
H202 H 0.44857 0.9995 0.69582 0.0
H203 H 0.36197 0.8811 0.68317 0.0
H204 H 0.34607 0.92434 0.67611 0.0
H205 H 0.38955 0.98406 0.68219 0.0
H206 H 0.4633 0.95549 0.70333 0.0
H207 H 0.38608 0.87271 0.51847 0.0
H208 H 0.34678 0.81172 0.52202 0.0
O209 O 0.38631 0.85563 0.74248 0.0
C210 C 0.45519 0.83894 0.73612 0.0
C211 C 0.35863 0.80744 0.59977 0.0
C212 C 0.38359 0.85899 0.55301 0.0
N213 N 0.3993 0.85828 0.63985 0.0
C214 C 0.37787 0.82469 0.64198 0.0
C215 C 0.40243 0.87542 0.59599 0.0
C216 C 0.36154 0.82477 0.55503 0.0
C217 C 0.5096 0.94732 0.82514 0.0
N218 N 0.50015 0.91434 0.82822 0.0
C219 C 0.54308 0.97187 0.82944 0.0
C220 C 0.56702 0.96247 0.83673 0.0
C221 C 0.55725 0.92878 0.83946 0.0
C222 C 0.52354 0.90493 0.83494 0.0
C223 C 0.47214 0.85717 0.96729 0.0
C224 C 0.44326 0.82344 0.87783 0.0
C225 C 0.47029 0.874 0.92452 0.0
N226 N 0.4561 0.85714 0.88043 0.0
C227 C 0.4447 0.80579 0.91983 0.0
C228 C 0.45927 0.82283 0.96481 0.0
C229 C 0.3816 0.83978 0.78378 0.0
C230 C 0.42942 0.97357 0.69276 0.0
C231 C 0.38106 0.90701 0.68594 0.0
C232 C 0.37189 0.9314 0.68184 0.0
C233 C 0.3963 0.9649 0.68522 0.0
N234 N 0.41366 0.91571 0.69288 0.0
C235 C 0.43767 0.9485 0.69662 0.0
Co236 Co 0.56064 0.43478 0.16178 0.0
Co237 Co 0.55863 0.44135 0.2925 0.0
O238 O 0.54836 0.45023 0.22351 0.0
C239 C 0.57477 0.50449 0.13477 0.0
O240 O 0.57169 0.51159 0.18202 0.0
C241 C 0.49425 0.41356 0.34689 0.0
O242 O 0.49543 0.38608 0.35351 0.0
O243 O 0.53666 0.39249 0.27762 0.0
O244 O 0.55005 0.39235 0.19581 0.0
H245 H 0.5981 0.38801 0.42019 0.0
H246 H 0.51036 0.45671 0.15807 0.0
O247 O 0.57166 0.4764 0.12325 0.0
H248 H 0.45304 0.34219 0.09013 0.0
H249 H 0.56466 0.41715 0.97329 0.0
H250 H 0.59925 0.40061 0.14306 0.0
H251 H 0.5116 0.36863 0.11775 0.0
H252 H 0.5486 0.43614 0.05021 0.0
O253 O 0.51556 0.43651 0.31817 0.0
H254 H 0.58499 0.39977 0.33451 0.0
H255 H 0.55487 0.46507 0.39713 0.0
H256 H 0.61556 0.38095 0.06713 0.0
H257 H 0.45197 0.43146 0.13019 0.0
H258 H 0.59825 0.38919 0.98147 0.0
H259 H 0.42284 0.37374 0.09597 0.0
O260 O 0.60786 0.45555 0.18529 0.0
H261 H 0.56617 0.55336 0.29718 0.0
H262 H 0.6248 0.49181 0.33532 0.0
H263 H 0.65272 0.55212 0.35231 0.0
H264 H 0.6233 0.58332 0.33349 0.0
H265 H 0.53943 0.49312 0.27981 0.0
H266 H 0.56752 0.45391 0.48346 0.0
H267 H 0.58932 0.41513 0.49545 0.0
O268 O 0.60185 0.44662 0.26942 0.0
C269 C 0.53889 0.37769 0.2381 0.0
C270 C 0.58854 0.4049 0.41548 0.0
C271 C 0.57138 0.44187 0.45099 0.0
N272 N 0.56891 0.43288 0.36073 0.0
C273 C 0.58102 0.41163 0.36704 0.0
C274 C 0.56418 0.44804 0.40198 0.0
C275 C 0.58362 0.42012 0.45769 0.0
C276 C 0.49807 0.43176 0.14276 0.0
N277 N 0.51462 0.41435 0.13911 0.0
C278 C 0.46489 0.4175 0.12724 0.0
C279 C 0.44855 0.3851 0.10812 0.0
C280 C 0.46547 0.36739 0.10487 0.0
C281 C 0.49863 0.38246 0.12075 0.0
C282 C 0.57233 0.41339 0.01041 0.0
C283 C 0.59147 0.40415 0.10595 0.0
C284 C 0.5634 0.42419 0.05412 0.0
N285 N 0.57284 0.41936 0.10118 0.0
C286 C 0.60085 0.39303 0.06307 0.0
C287 C 0.59116 0.39769 0.01502 0.0
C288 C 0.61933 0.45472 0.22911 0.0
C289 C 0.57924 0.54005 0.30561 0.0
C290 C 0.61199 0.50522 0.32632 0.0
C291 C 0.62785 0.53937 0.33637 0.0
C292 C 0.61131 0.55685 0.32589 0.0
N293 N 0.58051 0.48888 0.30642 0.0
C294 C 0.56417 0.50588 0.29605 0.0
Co295 Co 0.12934 0.5658 0.68207 0.0
Co296 Co 0.12316 0.55913 0.81186 0.0
O297 O 0.10242 0.55331 0.74441 0.0
C298 C 0.07475 0.58235 0.65949 0.0
O299 O 0.06319 0.5758 0.70609 0.0
C300 C 0.07967 0.49466 0.86276 0.0
O301 O 0.10564 0.4905 0.86573 0.0
O302 O 0.14233 0.53094 0.79041 0.0
O303 O 0.15954 0.55125 0.71219 0.0
H304 H 0.21612 0.57998 0.93187 0.0
H305 H 0.05622 0.51778 0.68026 0.0
O306 O 0.10037 0.58058 0.64722 0.0
H307 H 0.10744 0.45919 0.5969 0.0
H308 H 0.14939 0.57578 0.49284 0.0
H309 H 0.20199 0.60139 0.66243 0.0
H310 H 0.1423 0.51635 0.62916 0.0
H311 H 0.11495 0.5585 0.5703 0.0
O312 O 0.08155 0.51897 0.83725 0.0
H313 H 0.1896 0.57342 0.84813 0.0
H314 H 0.10037 0.55683 0.91917 0.0
H315 H 0.23735 0.61881 0.5859 0.0
H316 H 0.02041 0.46091 0.64784 0.0
H317 H 0.21106 0.60603 0.50033 0.0
H318 H 0.04595 0.43111 0.6058 0.0
O319 O 0.15793 0.61176 0.70942 0.0
H320 H 0.03204 0.5872 0.82993 0.0
H321 H 0.1509 0.62626 0.86063 0.0
H322 H 0.12792 0.66212 0.88468 0.0
H323 H 0.06804 0.6426 0.86957 0.0
H324 H 0.05616 0.5523 0.80575 0.0
H325 H 0.1259 0.56313 1.00367 0.0
H326 H 0.18421 0.5748 0.01044 0.0
O327 O 0.16488 0.59968 0.78931 0.0
C328 C 0.15961 0.53463 0.7507 0.0
C329 C 0.19068 0.57485 0.92943 0.0
C330 C 0.14006 0.5654 0.96973 0.0
N331 N 0.14339 0.56456 0.87864 0.0
C332 C 0.17551 0.57107 0.88209 0.0
C333 C 0.12571 0.56181 0.92174 0.0
C334 C 0.17277 0.57194 0.97349 0.0
C335 C 0.06762 0.50534 0.66146 0.0
N336 N 0.10141 0.52081 0.65595 0.0
C337 C 0.04716 0.47295 0.64342 0.0
C338 C 0.0615 0.45622 0.61993 0.0
C339 C 0.09598 0.47195 0.61495 0.0
C340 C 0.11563 0.50435 0.63343 0.0
C341 C 0.16114 0.58147 0.52991 0.0
C342 C 0.19034 0.59557 0.62535 0.0
C343 C 0.14177 0.57185 0.57395 0.0
N344 N 0.15643 0.57878 0.62094 0.0
C345 C 0.2105 0.60557 0.58214 0.0
C346 C 0.19574 0.59842 0.53414 0.0
C347 C 0.17313 0.61985 0.7521 0.0
C348 C 0.05817 0.59598 0.83675 0.0
C349 C 0.1249 0.61768 0.85339 0.0
C350 C 0.11199 0.63805 0.86737 0.0
C351 C 0.07838 0.62707 0.85894 0.0
N352 N 0.1049 0.58717 0.83167 0.0
C353 C 0.07195 0.57628 0.82327 0.0
H354 H 0.54239 0.20217 0.33223 0.0
H355 H 0.53009 0.33576 0.15913 0.0
H356 H 0.53124 0.19373 0.16888 0.0
H357 H 0.53042 0.33934 0.32324 0.0
H358 H 0.52528 0.28131 0.16282 0.0
H359 H 0.53345 0.24954 0.33029 0.0
C360 C 0.5377 0.20997 0.29587 0.0
C361 C 0.53771 0.19382 0.25051 0.0
C362 C 0.52598 0.29371 0.1981 0.0
C363 C 0.52774 0.24867 0.24824 0.0
C364 C 0.52863 0.32494 0.19612 0.0
C365 C 0.53088 0.34248 0.24102 0.0
C366 C 0.526 0.27979 0.24533 0.0
C367 C 0.52887 0.32688 0.28765 0.0
C368 C 0.53258 0.23714 0.29491 0.0
C369 C 0.53153 0.20534 0.20476 0.0
N370 N 0.527 0.29659 0.28859 0.0
N371 N 0.52711 0.23224 0.20478 0.0
H372 H 0.32612 0.51269 0.66368 0.0
H373 H 0.18164 0.51227 0.83076 0.0
H374 H 0.32954 0.52371 0.82705 0.0
H375 H 0.19284 0.52942 0.66874 0.0
H376 H 0.22786 0.50083 0.82905 0.0
H377 H 0.26909 0.50303 0.66453 0.0
C378 C 0.31475 0.51242 0.69976 0.0
C379 C 0.33293 0.51955 0.74524 0.0
C380 C 0.2197 0.50654 0.7938 0.0
C381 C 0.26781 0.50845 0.74649 0.0
C382 C 0.19329 0.513 0.79474 0.0
C383 C 0.18354 0.52227 0.74998 0.0
C384 C 0.23622 0.5091 0.74773 0.0
C385 C 0.19954 0.52267 0.70434 0.0
C386 C 0.28224 0.507 0.70022 0.0
C387 C 0.31675 0.51867 0.79093 0.0
N388 N 0.22522 0.51652 0.70449 0.0
N389 N 0.2853 0.51361 0.79032 0.0
H390 H 0.66665 0.19447 0.34875 0.0
H391 H 0.81167 0.3374 0.18014 0.0
H392 H 0.66333 0.19909 0.18492 0.0
H393 H 0.80648 0.33973 0.34395 0.0
H394 H 0.76237 0.28144 0.18081 0.0
H395 H 0.72306 0.24268 0.34723 0.0
C396 C 0.67785 0.20526 0.31246 0.0
C397 C 0.65999 0.19273 0.267 0.0
C398 C 0.7724 0.29414 0.21659 0.0
C399 C 0.72452 0.24801 0.26494 0.0
C400 C 0.80063 0.32603 0.21622 0.0
C401 C 0.81319 0.34355 0.26197 0.0
C402 C 0.75683 0.2797 0.26304 0.0
C403 C 0.79774 0.32745 0.30762 0.0
C404 C 0.71005 0.23286 0.31159 0.0
C405 C 0.67593 0.20786 0.22106 0.0
N406 N 0.77034 0.29666 0.30693 0.0
N407 N 0.70711 0.23478 0.22126 0.0
H408 H 0.4975 0.82376 0.78615 0.0
H409 H 0.4191 0.64041 0.6708 0.0
H410 H 0.42165 0.78638 0.66944 0.0
H411 H 0.47205 0.67037 0.81383 0.0
H412 H 0.42654 0.69604 0.66143 0.0
H413 H 0.49614 0.77064 0.78638 0.0
C414 C 0.48089 0.80458 0.75987 0.0
C415 C 0.45935 0.80955 0.72804 0.0
C416 C 0.43657 0.69046 0.69479 0.0
C417 C 0.45763 0.7483 0.72859 0.0
C418 C 0.43238 0.65867 0.7003 0.0
C419 C 0.44491 0.65055 0.74339 0.0
C420 C 0.45371 0.71458 0.73232 0.0
C421 C 0.46185 0.67538 0.78015 0.0
C422 C 0.48002 0.77413 0.76036 0.0
C423 C 0.43867 0.78374 0.69462 0.0
N424 N 0.4658 0.70629 0.77371 0.0
N425 N 0.4381 0.75408 0.69609 0.0
H426 H 0.65388 0.46181 0.31699 0.0
H427 H 0.80341 0.45642 0.17875 0.0
H428 H 0.66386 0.46225 0.15363 0.0
H429 H 0.79906 0.46711 0.34136 0.0
H430 H 0.75441 0.46202 0.1688 0.0
H431 H 0.70852 0.46739 0.3262 0.0
C432 C 0.66767 0.46348 0.28287 0.0
C433 C 0.65402 0.46147 0.2343 0.0
C434 C 0.7643 0.46349 0.20663 0.0
C435 C 0.71689 0.46742 0.24495 0.0
C436 C 0.79243 0.46032 0.2125 0.0
C437 C 0.80554 0.46124 0.26114 0.0
C438 C 0.74872 0.46727 0.24968 0.0
C439 C 0.78992 0.46623 0.30317 0.0
C440 C 0.69898 0.46663 0.28831 0.0
C441 C 0.67328 0.46369 0.19178 0.0
N442 N 0.76215 0.46876 0.29649 0.0
N443 N 0.70361 0.46623 0.19813 0.0
H444 H 0.36186 0.78629 0.84834 0.0
H445 H 0.19547 0.67479 0.69016 0.0
H446 H 0.32451 0.82586 0.73353 0.0
H447 H 0.21729 0.64212 0.83145 0.0
H448 H 0.24376 0.7302 0.70457 0.0
H449 H 0.30911 0.73334 0.84415 0.0
C450 C 0.34238 0.78417 0.82316 0.0
C451 C 0.34786 0.81053 0.7909 0.0
C452 C 0.23781 0.7109 0.73254 0.0
C453 C 0.28789 0.74984 0.78496 0.0
C454 C 0.21035 0.67922 0.72415 0.0
C455 C 0.20225 0.65367 0.7595 0.0
C456 C 0.25757 0.717 0.77629 0.0
C457 C 0.22247 0.66097 0.80304 0.0
C458 C 0.31237 0.75384 0.82045 0.0
C459 C 0.32168 0.80617 0.75872 0.0
N460 N 0.24925 0.69184 0.81001 0.0
N461 N 0.29312 0.77632 0.75605 0.0
H462 H 0.43425 0.98794 0.86835 0.0
H463 H 0.45559 0.9969 0.17174 0.0
H464 H 0.42263 0.9062 0.96137 0.0
H465 H 0.49245 0.0832 0.07485 0.0
H466 H 0.4298 0.96117 0.09717 0.0
H467 H 0.44208 0.02069 0.94589 0.0
C468 C 0.43261 0.97663 0.90504 0.0
C469 C 0.42816 0.94445 0.90838 0.0
C470 C 0.44307 0.98796 0.09245 0.0
C471 C 0.43718 0.98169 0.99706 0.0
C472 C 0.45758 0.00836 0.13507 0.0
C473 C 0.47649 0.04305 0.12944 0.0
C474 C 0.4473 0.00241 0.04402 0.0
C475 C 0.4784 0.05653 0.08086 0.0
C476 C 0.43728 0.99538 0.94926 0.0
C477 C 0.42641 0.93108 0.95699 0.0
N478 N 0.46429 0.03622 0.04003 0.0
N479 N 0.43118 0.94982 0.99931 0.0
H480 H 0.44196 0.37156 0.40854 0.0
H481 H 0.47383 0.51405 0.60032 0.0
H482 H 0.50501 0.47549 0.3713 0.0
H483 H 0.37193 0.43629 0.57695 0.0
H484 H 0.4906 0.49254 0.52841 0.0
H485 H 0.41905 0.3881 0.48013 0.0
C486 C 0.45059 0.39774 0.41481 0.0
C487 C 0.47552 0.42215 0.38382 0.0
C488 C 0.46463 0.48003 0.53945 0.0
C489 C 0.45042 0.44099 0.46629 0.0
C490 C 0.45501 0.49203 0.58083 0.0
C491 C 0.42132 0.47704 0.59466 0.0
C492 C 0.44061 0.45235 0.51228 0.0
C493 C 0.39813 0.44866 0.56746 0.0
C494 C 0.4376 0.40707 0.45567 0.0
C495 C 0.48585 0.45573 0.39391 0.0
N496 N 0.40821 0.4371 0.52749 0.0
N497 N 0.47375 0.46415 0.4348 0.0
H498 H 0.03599 0.51414 0.89482 0.0
H499 H 0.93078 0.37288 0.09148 0.0
H500 H 0.06198 0.43769 0.91791 0.0
H501 H 0.96871 0.47696 0.12508 0.0
H502 H 0.96905 0.38932 0.01848 0.0
H503 H 0.9986 0.49282 0.96763 0.0
C504 C 0.03336 0.49243 0.91443 0.0
C505 C 0.05238 0.47781 0.90028 0.0
C506 C 0.96909 0.40837 0.04244 0.0
C507 C 0.00943 0.45333 0.98375 0.0
C508 C 0.94745 0.39909 0.08411 0.0
C509 C 0.94643 0.42355 0.11451 0.0
C510 C 0.98898 0.44222 0.03042 0.0
C511 C 0.96854 0.45717 0.10297 0.0
C512 C 0.01226 0.48053 0.95633 0.0
C513 C 0.0479 0.44979 0.92763 0.0
N514 N 0.98839 0.46547 0.06135 0.0
N515 N 0.02679 0.43835 0.96816 0.0
H516 H 0.59423 0.08489 0.4463 0.0
H517 H 0.48248 0.90454 0.56011 0.0
H518 H 0.54168 0.99714 0.35254 0.0
H519 H 0.55184 0.98826 0.65112 0.0
H520 H 0.50783 0.93679 0.48333 0.0
H521 H 0.5835 0.04943 0.52055 0.0
C522 C 0.58092 0.05809 0.44117 0.0
C523 C 0.56858 0.04395 0.39312 0.0
C524 C 0.51795 0.948 0.51997 0.0
C525 C 0.55568 0.0031 0.47845 0.0
C526 C 0.50346 0.9296 0.56392 0.0
C527 C 0.51488 0.94384 0.61218 0.0
C528 C 0.54376 0.98121 0.52409 0.0
C529 C 0.54223 0.9763 0.61474 0.0
C530 C 0.5748 0.03784 0.48368 0.0
C531 C 0.55166 0.00911 0.38879 0.0
N532 N 0.55537 0.9941 0.57131 0.0
N533 N 0.5452 0.98988 0.43106 0.0
H534 H 0.50362 0.60011 0.93602 0.0
H535 H 0.59397 0.50437 0.03684 0.0
H536 H 0.54815 0.5587 0.83754 0.0
H537 H 0.55691 0.55291 0.13556 0.0
H538 H 0.58529 0.53154 0.96387 0.0
H539 H 0.53067 0.59099 0.00887 0.0
C540 C 0.51964 0.58967 0.92956 0.0
C541 C 0.52326 0.57974 0.88059 0.0
C542 C 0.57953 0.53674 1.0015 0.0
C543 C 0.55398 0.56874 0.96426 0.0
C544 C 0.5845 0.52121 0.04329 0.0
C545 C 0.57573 0.52602 0.0924 0.0
C546 C 0.56529 0.55698 0.00859 0.0
C547 C 0.56389 0.54837 0.09842 0.0
C548 C 0.53505 0.58442 0.97129 0.0
C549 C 0.54454 0.56663 0.87456 0.0
N550 N 0.55848 0.56258 0.0569 0.0
N551 N 0.55863 0.56097 0.91602 0.0
H552 H 0.09508 0.60576 0.56331 0.0
H553 H 0.90983 0.51077 0.45727 0.0
H554 H 0.00795 0.56218 0.65905 0.0
H555 H 0.99679 0.55612 0.36123 0.0
H556 H 0.94502 0.53822 0.5309 0.0
H557 H 0.05968 0.59699 0.48954 0.0
C558 C 0.06851 0.59492 0.569 0.0
C559 C 0.05442 0.58424 0.61745 0.0
C560 C 0.95643 0.54266 0.4937 0.0
C561 C 0.01359 0.57368 0.53269 0.0
C562 C 0.93632 0.527 0.45151 0.0
C563 C 0.95044 0.53076 0.403 0.0
C564 C 0.99106 0.56203 0.48763 0.0
C565 C 0.98484 0.55237 0.39788 0.0
C566 C 0.04828 0.58985 0.52673 0.0
C567 C 0.0199 0.57067 0.62247 0.0
N568 N 0.00405 0.56675 0.43981 0.0
N569 N 0.00061 0.56525 0.58049 0.0
loop_
_geom_bond_atom_site_label_1
_geom_bond_atom_site_label_2
_geom_bond_distance
_geom_bond_site_symmetry_2
_ccdc_geom_bond_type
Co0 O2 2.143 . S
Co0 O8 2.074 . S
Co0 O11 2.093 . S
Co0 O24 2.097 . S
Co0 N41 2.151 . S
Co0 N49 2.214 . S
Co1 O2 2.160 . S
Co1 O7 2.058 . S
Co1 O17 2.057 . S
Co1 O32 2.037 . S
Co1 N36 2.145 . S
Co1 N57 2.257 . S
O2 Co0 2.143 . S
O2 Co1 2.160 . S
C3 O4 1.278 . S
C3 O11 1.224 . S
O4 C3 1.278 . S
C5 O6 1.245 . S
C5 O17 1.232 . S
O6 C5 1.245 . S
O7 Co1 2.058 . S
O7 C33 1.269 . S
O8 Co0 2.074 . S
O8 C33 1.257 . S
H9 C34 0.930 . S
H10 C40 0.930 . S
O11 Co0 2.093 . S
O11 C3 1.224 . S
H12 C44 0.929 . S
H13 C46 0.930 . S
H14 C47 0.930 . S
H15 C45 0.929 . S
H16 C48 0.928 . S
O17 Co1 2.057 . S
O17 C5 1.232 . S
H18 C37 0.929 . S
H19 C38 0.929 . S
H20 C50 0.931 . S
H21 C42 0.929 . S
H22 C51 0.930 . S
H23 C43 0.931 . S
O24 Co0 2.097 . S
O24 C52 1.214 . S
H25 C53 0.929 . S
H26 C54 0.929 . S
H27 C55 0.930 . S
H28 C56 0.929 . S
H29 C58 0.930 . S
H30 C35 0.930 . S
H31 C39 0.930 . S
O32 Co1 2.037 . S
O32 C52 1.234 . S
C33 O7 1.269 . S
C33 O8 1.257 . S
C34 H9 0.930 . S
C34 C37 1.388 . S
C34 C39 1.418 . S
C35 H30 0.930 . S
C35 C38 1.404 . S
C35 C39 1.353 . S
N36 Co1 2.145 . S
N36 C37 1.397 . S
N36 C38 1.334 . S
C37 H18 0.929 . S
C37 C34 1.388 . S
C37 N36 1.397 . S
C38 H19 0.929 . S
C38 C35 1.404 . S
C38 N36 1.334 . S
C39 H31 0.930 . S
C39 C34 1.418 . S
C39 C35 1.353 . S
C40 H10 0.930 . S
C40 N41 1.330 . S
C40 C42 1.446 . S
N41 Co0 2.151 . S
N41 C40 1.330 . S
N41 C45 1.418 . S
C42 H21 0.929 . S
C42 C40 1.446 . S
C42 C43 1.332 . S
C43 H23 0.931 . S
C43 C42 1.332 . S
C43 C44 1.267 . S
C44 H12 0.929 . S
C44 C43 1.267 . S
C44 C45 1.251 . S
C45 H15 0.929 . S
C45 N41 1.418 . S
C45 C44 1.251 . S
C46 H13 0.930 . S
C46 C48 1.406 . S
C46 C51 1.261 . S
C47 H14 0.930 . S
C47 N49 1.325 . S
C47 C50 1.357 . S
C48 H16 0.928 . S
C48 C46 1.406 . S
C48 N49 1.261 . S
N49 Co0 2.214 . S
N49 C47 1.325 . S
N49 C48 1.261 . S
C50 H20 0.931 . S
C50 C47 1.357 . S
C50 C51 1.312 . S
C51 H22 0.930 . S
C51 C46 1.261 . S
C51 C50 1.312 . S
C52 O24 1.214 . S
C52 O32 1.234 . S
C53 H25 0.929 . S
C53 C56 1.391 . S
C53 C58 1.391 . S
C54 H26 0.929 . S
C54 C55 1.390 . S
C54 N57 1.391 . S
C55 H27 0.930 . S
C55 C54 1.390 . S
C55 C56 1.392 . S
C56 H28 0.929 . S
C56 C53 1.391 . S
C56 C55 1.392 . S
N57 Co1 2.257 . S
N57 C54 1.391 . S
N57 C58 1.388 . S
C58 H29 0.930 . S
C58 C53 1.391 . S
C58 N57 1.388 . S
Co59 O61 2.143 . S
Co59 O67 2.074 . S
Co59 O70 2.093 . S
Co59 O83 2.097 . S
Co59 N100 2.151 . S
Co59 N108 2.214 . S
Co60 O61 2.160 . S
Co60 O66 2.058 . S
Co60 O76 2.057 . S
Co60 O91 2.037 . S
Co60 N95 2.145 . S
Co60 N116 2.257 . S
O61 Co59 2.143 . S
O61 Co60 2.160 . S
C62 O63 1.278 . S
C62 O70 1.224 . S
O63 C62 1.278 . S
C64 O65 1.245 . S
C64 O76 1.232 . S
O65 C64 1.245 . S
O66 Co60 2.058 . S
O66 C92 1.269 . S
O67 Co59 2.074 . S
O67 C92 1.257 . S
H68 C93 0.930 . S
H69 C99 0.930 . S
O70 Co59 2.093 . S
O70 C62 1.224 . S
H71 C103 0.929 . S
H72 C105 0.930 . S
H73 C106 0.930 . S
H74 C104 0.929 . S
H75 C107 0.928 . S
O76 Co60 2.057 . S
O76 C64 1.232 . S
H77 C96 0.929 . S
H78 C97 0.929 . S
H79 C109 0.931 . S
H80 C101 0.929 . S
H81 C110 0.930 . S
H82 C102 0.931 . S
O83 Co59 2.097 . S
O83 C111 1.214 . S
H84 C112 0.929 . S
H85 C113 0.929 . S
H86 C114 0.930 . S
H87 C115 0.929 . S
H88 C117 0.930 . S
H89 C94 0.930 . S
H90 C98 0.930 . S
O91 Co60 2.037 . S
O91 C111 1.234 . S
C92 O66 1.269 . S
C92 O67 1.257 . S
C93 H68 0.930 . S
C93 C96 1.388 . S
C93 C98 1.418 . S
C94 H89 0.930 . S
C94 C97 1.404 . S
C94 C98 1.353 . S
N95 Co60 2.145 . S
N95 C96 1.397 . S
N95 C97 1.334 . S
C96 H77 0.929 . S
C96 C93 1.388 . S
C96 N95 1.397 . S
C97 H78 0.929 . S
C97 C94 1.404 . S
C97 N95 1.334 . S
C98 H90 0.930 . S
C98 C93 1.418 . S
C98 C94 1.353 . S
C99 H69 0.930 . S
C99 N100 1.330 . S
C99 C101 1.446 . S
N100 Co59 2.151 . S
N100 C99 1.330 . S
N100 C104 1.418 . S
C101 H80 0.929 . S
C101 C99 1.446 . S
C101 C102 1.332 . S
C102 H82 0.931 . S
C102 C101 1.332 . S
C102 C103 1.267 . S
C103 H71 0.929 . S
C103 C102 1.267 . S
C103 C104 1.251 . S
C104 H74 0.929 . S
C104 N100 1.418 . S
C104 C103 1.251 . S
C105 H72 0.930 . S
C105 C107 1.406 . S
C105 C110 1.261 . S
C106 H73 0.930 . S
C106 N108 1.325 . S
C106 C109 1.357 . S
C107 H75 0.928 . S
C107 C105 1.406 . S
C107 N108 1.261 . S
N108 Co59 2.214 . S
N108 C106 1.325 . S
N108 C107 1.261 . S
C109 H79 0.931 . S
C109 C106 1.357 . S
C109 C110 1.312 . S
C110 H81 0.930 . S
C110 C105 1.261 . S
C110 C109 1.312 . S
C111 O83 1.214 . S
C111 O91 1.234 . S
C112 H84 0.929 . S
C112 C115 1.391 . S
C112 C117 1.391 . S
C113 H85 0.929 . S
C113 C114 1.390 . S
C113 N116 1.391 . S
C114 H86 0.930 . S
C114 C113 1.390 . S
C114 C115 1.392 . S
C115 H87 0.929 . S
C115 C112 1.391 . S
C115 C114 1.392 . S
N116 Co60 2.257 . S
N116 C113 1.391 . S
N116 C117 1.388 . S
C117 H88 0.930 . S
C117 C112 1.391 . S
C117 N116 1.388 . S
Co118 O120 2.143 . S
Co118 O126 2.074 . S
Co118 O129 2.093 . S
Co118 O142 2.097 . S
Co118 N159 2.151 . S
Co118 N167 2.214 . S
Co119 O120 2.160 . S
Co119 O125 2.058 . S
Co119 O135 2.057 . S
Co119 O150 2.037 . S
Co119 N154 2.145 . S
Co119 N175 2.257 . S
O120 Co118 2.143 . S
O120 Co119 2.160 . S
C121 O122 1.278 . S
C121 O129 1.224 . S
O122 C121 1.278 . S
C123 O124 1.245 . S
C123 O135 1.232 . S
O124 C123 1.245 . S
O125 Co119 2.058 . S
O125 C151 1.269 . S
O126 Co118 2.074 . S
O126 C151 1.257 . S
H127 C152 0.930 . S
H128 C158 0.930 . S
O129 Co118 2.093 . S
O129 C121 1.224 . S
H130 C162 0.929 . S
H131 C164 0.930 . S
H132 C165 0.930 . S
H133 C163 0.929 . S
H134 C166 0.928 . S
O135 Co119 2.057 . S
O135 C123 1.232 . S
H136 C155 0.929 . S
H137 C156 0.929 . S
H138 C168 0.931 . S
H139 C160 0.929 . S
H140 C169 0.930 . S
H141 C161 0.931 . S
O142 Co118 2.097 . S
O142 C170 1.214 . S
H143 C171 0.929 . S
H144 C172 0.929 . S
H145 C173 0.930 . S
H146 C174 0.929 . S
H147 C176 0.930 . S
H148 C153 0.930 . S
H149 C157 0.930 . S
O150 Co119 2.037 . S
O150 C170 1.234 . S
C151 O125 1.269 . S
C151 O126 1.257 . S
C152 H127 0.930 . S
C152 C155 1.388 . S
C152 C157 1.418 . S
C153 H148 0.930 . S
C153 C156 1.404 . S
C153 C157 1.353 . S
N154 Co119 2.145 . S
N154 C155 1.397 . S
N154 C156 1.334 . S
C155 H136 0.929 . S
C155 C152 1.388 . S
C155 N154 1.397 . S
C156 H137 0.929 . S
C156 C153 1.404 . S
C156 N154 1.334 . S
C157 H149 0.930 . S
C157 C152 1.418 . S
C157 C153 1.353 . S
C158 H128 0.930 . S
C158 N159 1.330 . S
C158 C160 1.446 . S
N159 Co118 2.151 . S
N159 C158 1.330 . S
N159 C163 1.418 . S
C160 H139 0.929 . S
C160 C158 1.446 . S
C160 C161 1.332 . S
C161 H141 0.931 . S
C161 C160 1.332 . S
C161 C162 1.267 . S
C162 H130 0.929 . S
C162 C161 1.267 . S
C162 C163 1.251 . S
C163 H133 0.929 . S
C163 N159 1.418 . S
C163 C162 1.251 . S
C164 H131 0.930 . S
C164 C166 1.406 . S
C164 C169 1.261 . S
C165 H132 0.930 . S
C165 N167 1.325 . S
C165 C168 1.357 . S
C166 H134 0.928 . S
C166 C164 1.406 . S
C166 N167 1.261 . S
N167 Co118 2.214 . S
N167 C165 1.325 . S
N167 C166 1.261 . S
C168 H138 0.931 . S
C168 C165 1.357 . S
C168 C169 1.312 . S
C169 H140 0.930 . S
C169 C164 1.261 . S
C169 C168 1.312 . S
C170 O142 1.214 . S
C170 O150 1.234 . S
C171 H143 0.929 . S
C171 C174 1.391 . S
C171 C176 1.391 . S
C172 H144 0.929 . S
C172 C173 1.390 . S
C172 N175 1.391 . S
C173 H145 0.930 . S
C173 C172 1.390 . S
C173 C174 1.392 . S
C174 H146 0.929 . S
C174 C171 1.391 . S
C174 C173 1.392 . S
N175 Co119 2.257 . S
N175 C172 1.391 . S
N175 C176 1.388 . S
C176 H147 0.930 . S
C176 C171 1.391 . S
C176 N175 1.388 . S
Co177 O179 2.143 . S
Co177 O185 2.074 . S
Co177 O188 2.093 . S
Co177 O201 2.097 . S
Co177 N218 2.151 . S
Co177 N226 2.214 . S
Co178 O179 2.160 . S
Co178 O184 2.058 . S
Co178 O194 2.057 . S
Co178 O209 2.037 . S
Co178 N213 2.145 . S
Co178 N234 2.257 . S
O179 Co177 2.143 . S
O179 Co178 2.160 . S
C180 O181 1.278 . S
C180 O188 1.224 . S
O181 C180 1.278 . S
C182 O183 1.245 . S
C182 O194 1.232 . S
O183 C182 1.245 . S
O184 Co178 2.058 . S
O184 C210 1.269 . S
O185 Co177 2.074 . S
O185 C210 1.257 . S
H186 C211 0.930 . S
H187 C217 0.930 . S
O188 Co177 2.093 . S
O188 C180 1.224 . S
H189 C221 0.929 . S
H190 C223 0.930 . S
H191 C224 0.930 . S
H192 C222 0.929 . S
H193 C225 0.928 . S
O194 Co178 2.057 . S
O194 C182 1.232 . S
H195 C214 0.929 . S
H196 C215 0.929 . S
H197 C227 0.931 . S
H198 C219 0.929 . S
H199 C228 0.930 . S
H200 C220 0.931 . S
O201 Co177 2.097 . S
O201 C229 1.214 . S
H202 C230 0.929 . S
H203 C231 0.929 . S
H204 C232 0.930 . S
H205 C233 0.929 . S
H206 C235 0.930 . S
H207 C212 0.930 . S
H208 C216 0.930 . S
O209 Co178 2.037 . S
O209 C229 1.234 . S
C210 O184 1.269 . S
C210 O185 1.257 . S
C211 H186 0.930 . S
C211 C214 1.388 . S
C211 C216 1.418 . S
C212 H207 0.930 . S
C212 C215 1.404 . S
C212 C216 1.353 . S
N213 Co178 2.145 . S
N213 C214 1.397 . S
N213 C215 1.334 . S
C214 H195 0.929 . S
C214 C211 1.388 . S
C214 N213 1.397 . S
C215 H196 0.929 . S
C215 C212 1.404 . S
C215 N213 1.334 . S
C216 H208 0.930 . S
C216 C211 1.418 . S
C216 C212 1.353 . S
C217 H187 0.930 . S
C217 N218 1.330 . S
C217 C219 1.446 . S
N218 Co177 2.151 . S
N218 C217 1.330 . S
N218 C222 1.418 . S
C219 H198 0.929 . S
C219 C217 1.446 . S
C219 C220 1.332 . S
C220 H200 0.931 . S
C220 C219 1.332 . S
C220 C221 1.267 . S
C221 H189 0.929 . S
C221 C220 1.267 . S
C221 C222 1.251 . S
C222 H192 0.929 . S
C222 N218 1.418 . S
C222 C221 1.251 . S
C223 H190 0.930 . S
C223 C225 1.406 . S
C223 C228 1.261 . S
C224 H191 0.930 . S
C224 N226 1.325 . S
C224 C227 1.357 . S
C225 H193 0.928 . S
C225 C223 1.406 . S
C225 N226 1.261 . S
N226 Co177 2.214 . S
N226 C224 1.325 . S
N226 C225 1.261 . S
C227 H197 0.931 . S
C227 C224 1.357 . S
C227 C228 1.312 . S
C228 H199 0.930 . S
C228 C223 1.261 . S
C228 C227 1.312 . S
C229 O201 1.214 . S
C229 O209 1.234 . S
C230 H202 0.929 . S
C230 C233 1.391 . S
C230 C235 1.391 . S
C231 H203 0.929 . S
C231 C232 1.390 . S
C231 N234 1.391 . S
C232 H204 0.930 . S
C232 C231 1.390 . S
C232 C233 1.392 . S
C233 H205 0.929 . S
C233 C230 1.391 . S
C233 C232 1.392 . S
N234 Co178 2.257 . S
N234 C231 1.391 . S
N234 C235 1.388 . S
C235 H206 0.930 . S
C235 C230 1.391 . S
C235 N234 1.388 . S
Co236 O238 2.143 . S
Co236 O244 2.074 . S
Co236 O247 2.093 . S
Co236 O260 2.097 . S
Co236 N277 2.151 . S
Co236 N285 2.214 . S
Co237 O238 2.160 . S
Co237 O243 2.058 . S
Co237 O253 2.057 . S
Co237 O268 2.037 . S
Co237 N272 2.145 . S
Co237 N293 2.257 . S
O238 Co236 2.143 . S
O238 Co237 2.160 . S
C239 O240 1.278 . S
C239 O247 1.224 . S
O240 C239 1.278 . S
C241 O242 1.245 . S
C241 O253 1.232 . S
O242 C241 1.245 . S
O243 Co237 2.058 . S
O243 C269 1.269 . S
O244 Co236 2.074 . S
O244 C269 1.257 . S
H245 C270 0.930 . S
H246 C276 0.930 . S
O247 Co236 2.093 . S
O247 C239 1.224 . S
H248 C280 0.929 . S
H249 C282 0.930 . S
H250 C283 0.930 . S
H251 C281 0.929 . S
H252 C284 0.928 . S
O253 Co237 2.057 . S
O253 C241 1.232 . S
H254 C273 0.929 . S
H255 C274 0.929 . S
H256 C286 0.931 . S
H257 C278 0.929 . S
H258 C287 0.930 . S
H259 C279 0.931 . S
O260 Co236 2.097 . S
O260 C288 1.214 . S
H261 C289 0.929 . S
H262 C290 0.929 . S
H263 C291 0.930 . S
H264 C292 0.929 . S
H265 C294 0.930 . S
H266 C271 0.930 . S
H267 C275 0.930 . S
O268 Co237 2.037 . S
O268 C288 1.234 . S
C269 O243 1.269 . S
C269 O244 1.257 . S
C270 H245 0.930 . S
C270 C273 1.388 . S
C270 C275 1.418 . S
C271 H266 0.930 . S
C271 C274 1.404 . S
C271 C275 1.353 . S
N272 Co237 2.145 . S
N272 C273 1.397 . S
N272 C274 1.334 . S
C273 H254 0.929 . S
C273 C270 1.388 . S
C273 N272 1.397 . S
C274 H255 0.929 . S
C274 C271 1.404 . S
C274 N272 1.334 . S
C275 H267 0.930 . S
C275 C270 1.418 . S
C275 C271 1.353 . S
C276 H246 0.930 . S
C276 N277 1.330 . S
C276 C278 1.446 . S
N277 Co236 2.151 . S
N277 C276 1.330 . S
N277 C281 1.418 . S
C278 H257 0.929 . S
C278 C276 1.446 . S
C278 C279 1.332 . S
C279 H259 0.931 . S
C279 C278 1.332 . S
C279 C280 1.267 . S
C280 H248 0.929 . S
C280 C279 1.267 . S
C280 C281 1.251 . S
C281 H251 0.929 . S
C281 N277 1.418 . S
C281 C280 1.251 . S
C282 H249 0.930 . S
C282 C284 1.406 . S
C282 C287 1.261 . S
C283 H250 0.930 . S
C283 N285 1.325 . S
C283 C286 1.357 . S
C284 H252 0.928 . S
C284 C282 1.406 . S
C284 N285 1.261 . S
N285 Co236 2.214 . S
N285 C283 1.325 . S
N285 C284 1.261 . S
C286 H256 0.931 . S
C286 C283 1.357 . S
C286 C287 1.312 . S
C287 H258 0.930 . S
C287 C282 1.261 . S
C287 C286 1.312 . S
C288 O260 1.214 . S
C288 O268 1.234 . S
C289 H261 0.929 . S
C289 C292 1.391 . S
C289 C294 1.391 . S
C290 H262 0.929 . S
C290 C291 1.390 . S
C290 N293 1.391 . S
C291 H263 0.930 . S
C291 C290 1.390 . S
C291 C292 1.392 . S
C292 H264 0.929 . S
C292 C289 1.391 . S
C292 C291 1.392 . S
N293 Co237 2.257 . S
N293 C290 1.391 . S
N293 C294 1.388 . S
C294 H265 0.930 . S
C294 C289 1.391 . S
C294 N293 1.388 . S
Co295 O297 2.143 . S
Co295 O303 2.074 . S
Co295 O306 2.093 . S
Co295 O319 2.097 . S
Co295 N336 2.151 . S
Co295 N344 2.214 . S
Co296 O297 2.160 . S
Co296 O302 2.058 . S
Co296 O312 2.057 . S
Co296 O327 2.037 . S
Co296 N331 2.145 . S
Co296 N352 2.257 . S
O297 Co295 2.143 . S
O297 Co296 2.160 . S
C298 O299 1.278 . S
C298 O306 1.224 . S
O299 C298 1.278 . S
C300 O301 1.245 . S
C300 O312 1.232 . S
O301 C300 1.245 . S
O302 Co296 2.058 . S
O302 C328 1.269 . S
O303 Co295 2.074 . S
O303 C328 1.257 . S
H304 C329 0.930 . S
H305 C335 0.930 . S
O306 Co295 2.093 . S
O306 C298 1.224 . S
H307 C339 0.929 . S
H308 C341 0.930 . S
H309 C342 0.930 . S
H310 C340 0.929 . S
H311 C343 0.928 . S
O312 Co296 2.057 . S
O312 C300 1.232 . S
H313 C332 0.929 . S
H314 C333 0.929 . S
H315 C345 0.931 . S
H316 C337 0.929 . S
H317 C346 0.930 . S
H318 C338 0.931 . S
O319 Co295 2.097 . S
O319 C347 1.214 . S
H320 C348 0.929 . S
H321 C349 0.929 . S
H322 C350 0.930 . S
H323 C351 0.929 . S
H324 C353 0.930 . S
H325 C330 0.930 . S
H326 C334 0.930 . S
O327 Co296 2.037 . S
O327 C347 1.234 . S
C328 O302 1.269 . S
C328 O303 1.257 . S
C329 H304 0.930 . S
C329 C332 1.388 . S
C329 C334 1.418 . S
C330 H325 0.930 . S
C330 C333 1.404 . S
C330 C334 1.353 . S
N331 Co296 2.145 . S
N331 C332 1.397 . S
N331 C333 1.334 . S
C332 H313 0.929 . S
C332 C329 1.388 . S
C332 N331 1.397 . S
C333 H314 0.929 . S
C333 C330 1.404 . S
C333 N331 1.334 . S
C334 H326 0.930 . S
C334 C329 1.418 . S
C334 C330 1.353 . S
C335 H305 0.930 . S
C335 N336 1.330 . S
C335 C337 1.446 . S
N336 Co295 2.151 . S
N336 C335 1.330 . S
N336 C340 1.418 . S
C337 H316 0.929 . S
C337 C335 1.446 . S
C337 C338 1.332 . S
C338 H318 0.931 . S
C338 C337 1.332 . S
C338 C339 1.267 . S
C339 H307 0.929 . S
C339 C338 1.267 . S
C339 C340 1.251 . S
C340 H310 0.929 . S
C340 N336 1.418 . S
C340 C339 1.251 . S
C341 H308 0.930 . S
C341 C343 1.406 . S
C341 C346 1.261 . S
C342 H309 0.930 . S
C342 N344 1.325 . S
C342 C345 1.357 . S
C343 H311 0.928 . S
C343 C341 1.406 . S
C343 N344 1.261 . S
N344 Co295 2.214 . S
N344 C342 1.325 . S
N344 C343 1.261 . S
C345 H315 0.931 . S
C345 C342 1.357 . S
C345 C346 1.312 . S
C346 H317 0.930 . S
C346 C341 1.261 . S
C346 C345 1.312 . S
C347 O319 1.214 . S
C347 O327 1.234 . S
C348 H320 0.929 . S
C348 C351 1.391 . S
C348 C353 1.391 . S
C349 H321 0.929 . S
C349 C350 1.390 . S
C349 N352 1.391 . S
C350 H322 0.930 . S
C350 C349 1.390 . S
C350 C351 1.392 . S
C351 H323 0.929 . S
C351 C348 1.391 . S
C351 C350 1.392 . S
N352 Co296 2.257 . S
N352 C349 1.391 . S
N352 C353 1.388 . S
C353 H324 0.930 . S
C353 C348 1.391 . S
C353 N352 1.388 . S
H354 C360 0.930 . S
H355 C364 0.930 . S
H356 C369 0.929 . S
H357 C367 0.929 . S
H358 C362 0.929 . S
H359 C368 0.929 . S
C360 H354 0.930 . S
C360 C361 1.367 . S
C360 C368 1.378 . S
C361 C360 1.367 . S
C361 C369 1.433 . S
C362 H358 0.929 . S
C362 C364 1.378 . S
C362 C366 1.350 . S
C363 C366 1.463 . S
C363 C368 1.350 . S
C363 N371 1.427 . S
C364 H355 0.930 . S
C364 C362 1.378 . S
C364 C365 1.367 . S
C365 C364 1.367 . S
C365 C367 1.433 . S
C366 C362 1.350 . S
C366 C363 1.463 . S
C366 N370 1.427 . S
C367 H357 0.929 . S
C367 C365 1.433 . S
C367 N370 1.384 . S
C368 H359 0.929 . S
C368 C360 1.378 . S
C368 C363 1.350 . S
C369 H356 0.929 . S
C369 C361 1.433 . S
C369 N371 1.384 . S
N370 C366 1.427 . S
N370 C367 1.384 . S
N371 C363 1.427 . S
N371 C369 1.384 . S
H372 C378 0.930 . S
H373 C382 0.930 . S
H374 C387 0.929 . S
H375 C385 0.929 . S
H376 C380 0.929 . S
H377 C386 0.929 . S
C378 H372 0.930 . S
C378 C379 1.367 . S
C378 C386 1.378 . S
C379 C378 1.367 . S
C379 C387 1.433 . S
C380 H376 0.929 . S
C380 C382 1.378 . S
C380 C384 1.350 . S
C381 C384 1.463 . S
C381 C386 1.350 . S
C381 N389 1.427 . S
C382 H373 0.930 . S
C382 C380 1.378 . S
C382 C383 1.367 . S
C383 C382 1.367 . S
C383 C385 1.433 . S
C384 C380 1.350 . S
C384 C381 1.463 . S
C384 N388 1.427 . S
C385 H375 0.929 . S
C385 C383 1.433 . S
C385 N388 1.384 . S
C386 H377 0.929 . S
C386 C378 1.378 . S
C386 C381 1.350 . S
C387 H374 0.929 . S
C387 C379 1.433 . S
C387 N389 1.384 . S
N388 C384 1.427 . S
N388 C385 1.384 . S
N389 C381 1.427 . S
N389 C387 1.384 . S
H390 C396 0.930 . S
H391 C400 0.930 . S
H392 C405 0.929 . S
H393 C403 0.929 . S
H394 C398 0.929 . S
H395 C404 0.929 . S
C396 H390 0.930 . S
C396 C397 1.367 . S
C396 C404 1.378 . S
C397 C396 1.367 . S
C397 C405 1.433 . S
C398 H394 0.929 . S
C398 C400 1.378 . S
C398 C402 1.350 . S
C399 C402 1.463 . S
C399 C404 1.350 . S
C399 N407 1.427 . S
C400 H391 0.930 . S
C400 C398 1.378 . S
C400 C401 1.367 . S
C401 C400 1.367 . S
C401 C403 1.433 . S
C402 C398 1.350 . S
C402 C399 1.463 . S
C402 N406 1.427 . S
C403 H393 0.929 . S
C403 C401 1.433 . S
C403 N406 1.384 . S
C404 H395 0.929 . S
C404 C396 1.378 . S
C404 C399 1.350 . S
C405 H392 0.929 . S
C405 C397 1.433 . S
C405 N407 1.384 . S
N406 C402 1.427 . S
N406 C403 1.384 . S
N407 C399 1.427 . S
N407 C405 1.384 . S
H408 C414 0.930 . S
H409 C418 0.930 . S
H410 C423 0.929 . S
H411 C421 0.929 . S
H412 C416 0.929 . S
H413 C422 0.929 . S
C414 H408 0.930 . S
C414 C415 1.367 . S
C414 C422 1.378 . S
C415 C414 1.367 . S
C415 C423 1.433 . S
C416 H412 0.929 . S
C416 C418 1.378 . S
C416 C420 1.350 . S
C417 C420 1.463 . S
C417 C422 1.350 . S
C417 N425 1.427 . S
C418 H409 0.930 . S
C418 C416 1.378 . S
C418 C419 1.367 . S
C419 C418 1.367 . S
C419 C421 1.433 . S
C420 C416 1.350 . S
C420 C417 1.463 . S
C420 N424 1.427 . S
C421 H411 0.929 . S
C421 C419 1.433 . S
C421 N424 1.384 . S
C422 H413 0.929 . S
C422 C414 1.378 . S
C422 C417 1.350 . S
C423 H410 0.929 . S
C423 C415 1.433 . S
C423 N425 1.384 . S
N424 C420 1.427 . S
N424 C421 1.384 . S
N425 C417 1.427 . S
N425 C423 1.384 . S
H426 C432 0.930 . S
H427 C436 0.930 . S
H428 C441 0.929 . S
H429 C439 0.929 . S
H430 C434 0.929 . S
H431 C440 0.929 . S
C432 H426 0.930 . S
C432 C433 1.367 . S
C432 C440 1.378 . S
C433 C432 1.367 . S
C433 C441 1.433 . S
C434 H430 0.929 . S
C434 C436 1.378 . S
C434 C438 1.350 . S
C435 C438 1.463 . S
C435 C440 1.350 . S
C435 N443 1.427 . S
C436 H427 0.930 . S
C436 C434 1.378 . S
C436 C437 1.367 . S
C437 C436 1.367 . S
C437 C439 1.433 . S
C438 C434 1.350 . S
C438 C435 1.463 . S
C438 N442 1.427 . S
C439 H429 0.929 . S
C439 C437 1.433 . S
C439 N442 1.384 . S
C440 H431 0.929 . S
C440 C432 1.378 . S
C440 C435 1.350 . S
C441 H428 0.929 . S
C441 C433 1.433 . S
C441 N443 1.384 . S
N442 C438 1.427 . S
N442 C439 1.384 . S
N443 C435 1.427 . S
N443 C441 1.384 . S
H444 C450 0.930 . S
H445 C454 0.930 . S
H446 C459 0.929 . S
H447 C457 0.929 . S
H448 C452 0.929 . S
H449 C458 0.929 . S
C450 H444 0.930 . S
C450 C451 1.367 . S
C450 C458 1.378 . S
C451 C450 1.367 . S
C451 C459 1.433 . S
C452 H448 0.929 . S
C452 C454 1.378 . S
C452 C456 1.350 . S
C453 C456 1.463 . S
C453 C458 1.350 . S
C453 N461 1.427 . S
C454 H445 0.930 . S
C454 C452 1.378 . S
C454 C455 1.367 . S
C455 C454 1.367 . S
C455 C457 1.433 . S
C456 C452 1.350 . S
C456 C453 1.463 . S
C456 N460 1.427 . S
C457 H447 0.929 . S
C457 C455 1.433 . S
C457 N460 1.384 . S
C458 H449 0.929 . S
C458 C450 1.378 . S
C458 C453 1.350 . S
C459 H446 0.929 . S
C459 C451 1.433 . S
C459 N461 1.384 . S
N460 C456 1.427 . S
N460 C457 1.384 . S
N461 C453 1.427 . S
N461 C459 1.384 . S
H462 C468 0.930 . S
H463 C472 0.930 . S
H464 C477 0.929 . S
H465 C475 0.929 . S
H466 C470 0.929 . S
H467 C476 0.929 . S
C468 H462 0.930 . S
C468 C469 1.367 . S
C468 C476 1.378 1_565 S
C469 C468 1.367 . S
C469 C477 1.433 . S
C470 H466 0.929 . S
C470 C472 1.378 1_565 S
C470 C474 1.350 1_565 S
C471 C474 1.463 1_566 S
C471 C476 1.350 1_565 S
C471 N479 1.427 . S
C472 H463 0.930 . S
C472 C470 1.378 1_545 S
C472 C473 1.367 . S
C473 C472 1.367 . S
C473 C475 1.433 . S
C474 C470 1.350 1_545 S
C474 C471 1.463 1_544 S
C474 N478 1.427 . S
C475 H465 0.929 . S
C475 C473 1.433 . S
C475 N478 1.384 . S
C476 H467 0.929 . S
C476 C468 1.378 1_545 S
C476 C471 1.350 1_545 S
C477 H464 0.929 . S
C477 C469 1.433 . S
C477 N479 1.384 . S
N478 C474 1.427 . S
N478 C475 1.384 . S
N479 C471 1.427 . S
N479 C477 1.384 . S
H480 C486 0.930 . S
H481 C490 0.930 . S
H482 C495 0.929 . S
H483 C493 0.929 . S
H484 C488 0.929 . S
H485 C494 0.929 . S
C486 H480 0.930 . S
C486 C487 1.367 . S
C486 C494 1.378 . S
C487 C486 1.367 . S
C487 C495 1.433 . S
C488 H484 0.929 . S
C488 C490 1.378 . S
C488 C492 1.350 . S
C489 C492 1.463 . S
C489 C494 1.350 . S
C489 N497 1.427 . S
C490 H481 0.930 . S
C490 C488 1.378 . S
C490 C491 1.367 . S
C491 C490 1.367 . S
C491 C493 1.433 . S
C492 C488 1.350 . S
C492 C489 1.463 . S
C492 N496 1.427 . S
C493 H483 0.929 . S
C493 C491 1.433 . S
C493 N496 1.384 . S
C494 H485 0.929 . S
C494 C486 1.378 . S
C494 C489 1.350 . S
C495 H482 0.929 . S
C495 C487 1.433 . S
C495 N497 1.384 . S
N496 C492 1.427 . S
N496 C493 1.384 . S
N497 C489 1.427 . S
N497 C495 1.384 . S
H498 C504 0.930 . S
H499 C508 0.930 . S
H500 C513 0.929 . S
H501 C511 0.929 . S
H502 C506 0.929 1_556 S
H503 C512 0.918 1_554 S
C504 H498 0.930 . S
C504 C505 1.367 . S
C504 C512 1.378 . S
C505 C504 1.367 . S
C505 C513 1.433 . S
C506 H502 0.929 1_554 S
C506 C508 1.378 . S
C506 C510 1.350 . S
C507 C510 1.463 1_456 S
C507 C512 1.350 . S
C507 N515 1.427 . S
C508 H499 0.930 . S
C508 C506 1.378 . S
C508 C509 1.367 . S
C509 C508 1.367 . S
C509 C511 1.433 . S
C510 C506 1.350 . S
C510 C507 1.463 1_654 S
C510 N514 1.427 . S
C511 H501 0.929 . S
C511 C509 1.433 . S
C511 N514 1.384 . S
C512 H503 0.918 1_556 S
C512 C504 1.378 . S
C512 C507 1.350 . S
C513 H500 0.929 . S
C513 C505 1.433 . S
C513 N515 1.384 . S
N514 C510 1.427 . S
N514 C511 1.384 . S
N515 C507 1.427 . S
N515 C513 1.384 . S
H516 C522 0.930 . S
H517 C526 0.930 . S
H518 C531 0.929 . S
H519 C529 0.929 . S
H520 C524 0.929 . S
H521 C530 0.929 . S
C522 H516 0.930 . S
C522 C523 1.367 . S
C522 C530 1.378 . S
C523 C522 1.367 . S
C523 C531 1.433 . S
C524 H520 0.929 . S
C524 C526 1.378 . S
C524 C528 1.350 . S
C525 C528 1.463 1_545 S
C525 C530 1.350 . S
C525 N533 1.421 1_545 S
C526 H517 0.930 . S
C526 C524 1.378 . S
C526 C527 1.367 . S
C527 C526 1.367 . S
C527 C529 1.433 . S
C528 C524 1.350 . S
C528 C525 1.463 1_565 S
C528 N532 1.420 1_565 S
C529 H519 0.929 . S
C529 C527 1.433 . S
C529 N532 1.377 1_565 S
C530 H521 0.929 . S
C530 C522 1.378 . S
C530 C525 1.350 . S
C531 H518 0.929 . S
C531 C523 1.433 . S
C531 N533 1.378 1_545 S
N532 C528 1.420 1_545 S
N532 C529 1.377 1_545 S
N533 C525 1.421 1_565 S
N533 C531 1.378 1_565 S
H534 C540 0.930 . S
H535 C544 0.930 . S
H536 C549 0.929 . S
H537 C547 0.929 . S
H538 C542 0.929 1_556 S
H539 C548 0.929 1_554 S
C540 H534 0.930 . S
C540 C541 1.367 . S
C540 C548 1.378 . S
C541 C540 1.367 . S
C541 C549 1.433 . S
C542 H538 0.929 1_554 S
C542 C544 1.378 . S
C542 C546 1.350 . S
C543 C546 1.463 1_556 S
C543 C548 1.350 . S
C543 N551 1.427 . S
C544 H535 0.930 . S
C544 C542 1.378 . S
C544 C545 1.367 . S
C545 C544 1.367 . S
C545 C547 1.433 . S
C546 C542 1.350 . S
C546 C543 1.463 1_554 S
C546 N550 1.427 . S
C547 H537 0.929 . S
C547 C545 1.433 . S
C547 N550 1.384 . S
C548 H539 0.929 1_556 S
C548 C540 1.378 . S
C548 C543 1.350 . S
C549 H536 0.929 . S
C549 C541 1.433 . S
C549 N551 1.384 . S
N550 C546 1.427 . S
N550 C547 1.384 . S
N551 C543 1.427 . S
N551 C549 1.384 . S
H552 C558 0.930 . S
H553 C562 0.930 . S
H554 C567 0.929 . S
H555 C565 0.929 . S
H556 C560 0.929 . S
H557 C566 0.929 . S
C558 H552 0.930 . S
C558 C559 1.367 . S
C558 C566 1.378 . S
C559 C558 1.367 . S
C559 C567 1.433 . S
C560 H556 0.929 . S
C560 C562 1.378 . S
C560 C564 1.350 . S
C561 C564 1.463 1_455 S
C561 C566 1.350 . S
C561 N569 1.427 1_455 S
C562 H553 0.930 . S
C562 C560 1.378 . S
C562 C563 1.367 . S
C563 C562 1.367 . S
C563 C565 1.433 . S
C564 C560 1.350 . S
C564 C561 1.463 1_655 S
C564 N568 1.427 1_655 S
C565 H555 0.929 . S
C565 C563 1.433 . S
C565 N568 1.384 1_655 S
C566 H557 0.929 . S
C566 C558 1.378 . S
C566 C561 1.350 . S
C567 H554 0.929 . S
C567 C559 1.433 . S
C567 N569 1.384 1_455 S
N568 C564 1.427 1_455 S
N568 C565 1.384 1_455 S
N569 C561 1.427 1_655 S
N569 C567 1.384 1_655 S
C361 C52 1.300 . S
C365 C269 1.298 . S
C379 C111 1.308 . S
C383 C328 1.305 . S
C397 C33 1.304 . S
C401 C151 1.297 . S
C415 C210 1.304 . S
C419 C92 1.297 . S
C433 C288 1.300 . S
C437 C170 1.298 . S
C451 C229 1.309 . S
C455 C347 1.312 . S
C469 C180 1.490 . S
C473 C3 1.490 . S
C487 C241 1.496 . S
C491 C62 1.485 . S
C505 C300 1.493 . S
C509 C123 1.495 . S
C523 C5 1.493 . S
C527 C182 1.495 . S
C541 C64 1.493 . S
C545 C239 1.482 . S
C559 C298 1.482 . S
C563 C121 1.482 . S
