# Generated by pormake.
# Topology svk, (7)-cn, num edge types: 1
# Building blocks:
#     Node 0, Type 0, BuildingBlock: HICVOG_clean_sbu_0, # of connection points: 7
#     Node 1, Type 0, BuildingBlock: HICVOG_clean_sbu_0, # of connection points: 7
#     Node 2, Type 0, BuildingBlock: HICVOG_clean_sbu_0, # of connection points: 7
#     Node 3, Type 0, BuildingBlock: HICVOG_clean_sbu_0, # of connection points: 7
#     Edge 4, Type (0, 0), BuildingBlock: UVAHIK_clean_linker_0, # of connection points: 2
#     Edge 5, Type (0, 0), BuildingBlock: UVAHIK_clean_linker_0, # of connection points: 2
#     Edge 6, Type (0, 0), BuildingBlock: UVAHIK_clean_linker_0, # of connection points: 2
#     Edge 7, Type (0, 0), BuildingBlock: UVAHIK_clean_linker_0, # of connection points: 2
#     Edge 8, Type (0, 0), BuildingBlock: UVAHIK_clean_linker_0, # of connection points: 2
#     Edge 9, Type (0, 0), BuildingBlock: UVAHIK_clean_linker_0, # of connection points: 2
#     Edge 10, Type (0, 0), BuildingBlock: UVAHIK_clean_linker_0, # of connection points: 2
#     Edge 11, Type (0, 0), BuildingBlock: UVAHIK_clean_linker_0, # of connection points: 2
#     Edge 12, Type (0, 0), BuildingBlock: UVAHIK_clean_linker_0, # of connection points: 2
#     Edge 13, Type (0, 0), BuildingBlock: UVAHIK_clean_linker_0, # of connection points: 2
#     Edge 14, Type (0, 0), BuildingBlock: UVAHIK_clean_linker_0, # of connection points: 2
#     Edge 15, Type (0, 0), BuildingBlock: UVAHIK_clean_linker_0, # of connection points: 2
#     Edge 16, Type (0, 0), BuildingBlock: UVAHIK_clean_linker_0, # of connection points: 2
#     Edge 17, Type (0, 0), BuildingBlock: UVAHIK_clean_linker_0, # of connection points: 2
# Relax obj value: 0.236
# Max RMSD: 0.239
# Mean RMSD: 0.239
data_MOF--net-svk--node1-HICVOG_clean_sbu_0--edge1-UVAHIK_clean_linker_0
_symmetry_space_group_name_H-M    P1
_symmetry_Int_Tables_number       1
_symmetry_cell_setting            triclinic
loop_
_symmetry_equiv_pos_as_xyz
'x, y, z'
_cell_length_a     21.965012
_cell_length_b     68.058938
_cell_length_c     24.989954
_cell_angle_alpha  90.844657
_cell_angle_beta   90.005769
_cell_angle_gamma 89.912376
loop_
_atom_site_label
_atom_site_type_symbol
_atom_site_fract_x
_atom_site_fract_y
_atom_site_fract_z
_atom_type_partial_charge
Zn0 Zn 0.05643 0.38201 0.07188 0.0
C1 C 0.94421 0.34008 0.01446 0.0
N2 N 0.97475 0.32865 0.04855 0.0
C3 C 0.01847 0.34071 0.06725 0.0
N4 N 0.01498 0.35871 0.0452 0.0
N5 N 0.96851 0.35821 0.01146 0.0
C6 C 0.82978 0.37908 0.98281 0.0
O7 O 0.85992 0.38479 0.02571 0.0
O8 O 0.148 0.37782 0.07801 0.0
Zn9 Zn 0.95137 0.37605 0.9537 0.0
N10 N 0.01473 0.3885 0.13853 0.0
C11 C 0.92341 0.40367 0.16973 0.0
C12 C 0.96277 0.39869 0.12835 0.0
C13 C 0.02873 0.3828 0.18926 0.0
N14 N 0.93685 0.39798 0.21996 0.0
C15 C 0.98818 0.38763 0.23144 0.0
O16 O 0.97167 0.4049 0.96797 0.0
C17 C 0.01094 0.41483 0.99438 0.0
O18 O 0.04541 0.40692 0.02893 0.0
H19 H 0.95115 0.40256 0.08792 0.0
H20 H 0.06929 0.37416 0.19621 0.0
C21 C 0.99066 0.37118 0.84093 0.0
C22 C 0.03286 0.36482 0.8016 0.0
C23 C 0.09227 0.3499 0.86917 0.0
C24 C 0.05114 0.35636 0.90774 0.0
N25 N 1.00107 0.36684 0.89332 0.0
N26 N 0.08238 0.35434 0.81733 0.0
H27 H 0.95136 0.37992 0.83046 0.0
C28 C 0.17544 0.37868 0.03316 0.0
O29 O 0.14291 0.3816 0.98986 0.0
O30 O 0.85996 0.37443 0.94094 0.0
H31 H 0.05999 0.35319 0.94911 0.0
H32 H 0.88195 0.41174 0.16196 0.0
H33 H 0.13225 0.34161 0.88038 0.0
Zn34 Zn 0.05412 0.65999 0.93168 0.0
C35 C 0.94179 0.7021 0.9885 0.0
N36 N 0.97216 0.71342 0.9541 0.0
C37 C 0.01585 0.70128 0.93553 0.0
N38 N 0.01253 0.68334 0.95796 0.0
N39 N 0.96616 0.68397 0.9918 0.0
C40 C 0.82752 0.66307 0.02062 0.0
O41 O 0.85777 0.65723 0.97789 0.0
O42 O 0.14564 0.66416 0.92549 0.0
Zn43 Zn 0.94908 0.66629 0.04992 0.0
N44 N 0.01254 0.65333 0.86506 0.0
C45 C 0.92201 0.63778 0.83374 0.0
C46 C 0.96115 0.64289 0.87515 0.0
C47 C 0.02613 0.65919 0.81438 0.0
N48 N 0.93505 0.64362 0.78357 0.0
C49 C 0.98577 0.65424 0.77218 0.0
O50 O 0.96989 0.63743 0.03633 0.0
C51 C 0.00912 0.62741 0.01002 0.0
O52 O 0.04337 0.6352 0.97517 0.0
H53 H 0.94976 0.63891 0.91554 0.0
H54 H 0.06618 0.66804 0.80751 0.0
C55 C 0.98791 0.67142 0.16274 0.0
C56 C 0.02974 0.67796 0.20213 0.0
C57 C 0.08882 0.69295 0.13453 0.0
C58 C 0.04807 0.68631 0.09591 0.0
N59 N 0.99833 0.67571 0.11032 0.0
N60 N 0.07891 0.68857 0.1864 0.0
H61 H 0.94889 0.66259 0.1732 0.0
C62 C 0.17307 0.66355 0.9704 0.0
O63 O 0.14055 0.66087 0.01381 0.0
O64 O 0.85761 0.66789 0.0624 0.0
H65 H 0.05694 0.68943 0.05452 0.0
H66 H 0.88101 0.62951 0.84145 0.0
H67 H 0.12852 0.70133 0.12334 0.0
Zn68 Zn 0.55338 0.88224 0.06287 0.0
C69 C 0.44116 0.84021 0.00597 0.0
N70 N 0.47157 0.82887 0.04037 0.0
C71 C 0.5152 0.84098 0.05897 0.0
N72 N 0.51181 0.85892 0.03655 0.0
N73 N 0.46546 0.85834 0.0027 0.0
C74 C 0.32675 0.87932 0.97376 0.0
O75 O 0.35692 0.88518 0.01649 0.0
O76 O 0.64493 0.87804 0.06901 0.0
Zn77 Zn 0.44834 0.87606 0.94464 0.0
N78 N 0.51178 0.88892 0.12947 0.0
C79 C 0.42102 0.90445 0.16065 0.0
C80 C 0.46018 0.89929 0.11927 0.0
C81 C 0.52558 0.88319 0.18023 0.0
N82 N 0.43427 0.89874 0.21089 0.0
C83 C 0.4852 0.88819 0.2224 0.0
O84 O 0.46887 0.90492 0.95844 0.0
C85 C 0.50816 0.91488 0.98476 0.0
O86 O 0.5425 0.90703 0.01948 0.0
H87 H 0.44865 0.90317 0.07883 0.0
H88 H 0.56581 0.8744 0.18719 0.0
C89 C 0.48751 0.87107 0.83188 0.0
C90 C 0.52942 0.86454 0.7925 0.0
C91 C 0.58823 0.84934 0.86001 0.0
C92 C 0.5474 0.85596 0.89863 0.0
N93 N 0.49776 0.86667 0.88426 0.0
N94 N 0.57849 0.85383 0.80818 0.0
H95 H 0.44857 0.87999 0.82146 0.0
C96 C 0.67232 0.87864 0.02409 0.0
O97 O 0.63974 0.88131 0.98069 0.0
O98 O 0.3569 0.87448 0.93203 0.0
H99 H 0.55614 0.85275 0.93998 0.0
H100 H 0.37985 0.91267 0.15285 0.0
H101 H 0.62786 0.84087 0.87118 0.0
Zn102 Zn 0.55768 0.16016 0.93146 0.0
C103 C 0.44417 0.20204 0.98836 0.0
N104 N 0.47443 0.21346 0.95413 0.0
C105 C 0.51825 0.2014 0.93538 0.0
N106 N 0.51498 0.1834 0.95743 0.0
N107 N 0.46871 0.18392 0.9914 0.0
C108 C 0.32978 0.16344 0.02043 0.0
O109 O 0.35943 0.15796 0.97705 0.0
O110 O 0.64914 0.16436 0.92722 0.0
Zn111 Zn 0.45165 0.16615 0.0494 0.0
N112 N 0.51876 0.1533 0.86392 0.0
C113 C 0.42874 0.13777 0.83148 0.0
C114 C 0.4643 0.14459 0.87366 0.0
C115 C 0.53875 0.15598 0.81279 0.0
N116 N 0.44871 0.14009 0.78079 0.0
C117 C 0.50255 0.14904 0.7697 0.0
O118 O 0.47214 0.13728 0.03538 0.0
C119 C 0.51095 0.12733 0.00841 0.0
O120 O 0.54514 0.13526 0.97377 0.0
H121 H 0.44875 0.14285 0.91429 0.0
H122 H 0.58213 0.16303 0.80593 0.0
C123 C 0.48692 0.17272 0.16263 0.0
C124 C 0.52589 0.1806 0.20252 0.0
C125 C 0.58878 0.19383 0.13473 0.0
C126 C 0.55073 0.18591 0.09571 0.0
N127 N 0.50018 0.17571 0.10999 0.0
N128 N 0.57552 0.19102 0.18692 0.0
H129 H 0.44653 0.16454 0.17306 0.0
C130 C 0.67607 0.16317 0.97223 0.0
O131 O 0.6432 0.1598 0.01504 0.0
O132 O 0.36036 0.16779 0.06227 0.0
H133 H 0.56168 0.188 0.05416 0.0
H134 H 0.38556 0.13069 0.83888 0.0
H135 H 0.62881 0.20207 0.12369 0.0
C136 C 0.0661 0.44703 0.00105 0.0
C137 C 0.01238 0.43657 0.98989 0.0
C138 C 0.06632 0.46762 0.00218 0.0
C139 C 0.97071 0.51191 0.96874 0.0
H140 H 0.08379 0.53809 0.06521 0.0
C141 C 0.95743 0.59512 0.02656 0.0
C142 C 0.01074 0.60568 0.01504 0.0
C143 C 0.9574 0.57451 0.02474 0.0
C144 C 0.05203 0.53095 0.03807 0.0
H145 H 0.91664 0.43957 0.9711 0.0
H146 H 0.91597 0.47532 0.9755 0.0
H147 H 0.08353 0.50235 0.05854 0.0
H148 H 0.10625 0.60285 0.99449 0.0
H149 H 0.10668 0.56685 0.99367 0.0
H150 H 0.93775 0.54078 0.95044 0.0
C151 C 0.95882 0.46781 0.9815 0.0
C152 C 0.05215 0.5104 0.03367 0.0
C153 C 0.959 0.4472 0.97909 0.0
C154 C 0.06449 0.59515 0.00365 0.0
C155 C 0.06479 0.57456 0.0032 0.0
C156 C 0.9697 0.53245 0.97415 0.0
C157 C 0.01239 0.47841 0.99363 0.0
C158 C 0.01183 0.50048 0.99856 0.0
C159 C 0.011 0.56402 0.01273 0.0
C160 C 0.01062 0.54218 0.00858 0.0
H161 H 0.10809 0.43926 0.00925 0.0
H162 H 0.10905 0.475 0.01004 0.0
H163 H 0.93968 0.5051 0.94044 0.0
H164 H 0.91515 0.60279 0.03491 0.0
H165 H 0.91538 0.56673 0.03247 0.0
C166 C 0.45871 0.09501 0.02287 0.0
C167 C 0.51218 0.10557 0.01233 0.0
C168 C 0.45825 0.07441 0.01957 0.0
C169 C 0.55078 0.03197 0.96491 0.0
H170 H 0.43674 1.00123 0.04723 0.0
C171 C 0.56346 0.94708 0.99135 0.0
C172 C 0.50964 0.93662 0.98009 0.0
C173 C 0.56364 0.96767 0.99246 0.0
C174 C 0.46857 1.00967 0.02375 0.0
H175 H 0.60778 0.10277 0.99259 0.0
H176 H 0.60828 0.06704 0.99026 0.0
H177 H 0.43892 0.03685 0.05887 0.0
H178 H 0.41384 0.93963 0.96107 0.0
H179 H 0.41389 0.97568 0.96461 0.0
H180 H 0.58208 1.00443 0.93193 0.0
C181 C 0.56568 0.07447 0.99858 0.0
C182 C 0.46972 0.03017 0.03012 0.0
C183 C 0.56573 0.09505 0.00061 0.0
C184 C 0.45616 0.94725 0.96929 0.0
C185 C 0.45603 0.96786 0.97175 0.0
C186 C 0.55051 1.01144 0.95954 0.0
C187 C 0.51163 0.06376 0.00676 0.0
C188 C 0.51078 0.04173 0.0007 0.0
C189 C 0.5097 0.97826 0.98371 0.0
C190 C 0.50925 1.00008 0.98871 0.0
H191 H 0.41647 0.10269 0.03128 0.0
H192 H 0.41534 0.06696 0.02535 0.0
H193 H 0.58206 0.04013 0.94029 0.0
H194 H 0.60534 0.93931 -2e-05 0.0
H195 H 0.60559 0.97531 0.00192 0.0
C196 C 0.97002 0.36976 0.71809 0.0
C197 C 0.02685 0.36928 0.74388 0.0
C198 C 0.9667 0.37173 0.66236 0.0
C199 C 0.06053 0.36423 0.54 0.0
H200 H 0.93421 0.39498 0.47258 0.0
C201 C 0.05515 0.38193 0.31212 0.0
C202 C 0.99746 0.38175 0.28777 0.0
C203 C 0.06056 0.37944 0.36761 0.0
C204 C 0.96946 0.38616 0.49077 0.0
H205 H 0.12442 0.37141 0.73173 0.0
H206 H 0.11852 0.37524 0.63545 0.0
H207 H 0.93864 0.3935 0.56983 0.0
H208 H 0.90093 0.37745 0.30179 0.0
H209 H 0.91051 0.37288 0.39754 0.0
H210 H 0.09147 0.35701 0.4607 0.0
C211 C 0.07659 0.37356 0.6577 0.0
C212 C 0.97192 0.3853 0.54657 0.0
C213 C 0.0799 0.3715 0.71306 0.0
C214 C 0.94598 0.37797 0.31942 0.0
C215 C 0.95137 0.37547 0.37442 0.0
C216 C 0.05817 0.36514 0.48413 0.0
C217 C 0.0201 0.37332 0.63143 0.0
C218 C 0.01739 0.37429 0.57194 0.0
C219 C 0.0084 0.37673 0.39949 0.0
C220 C 0.01237 0.37602 0.45886 0.0
H221 H 0.92834 0.3678 0.74049 0.0
H222 H 0.9224 0.37132 0.64337 0.0
H223 H 0.09565 0.35534 0.55813 0.0
H224 H 0.09559 0.385 0.28894 0.0
H225 H 0.10519 0.3805 0.38582 0.0
C226 C 0.96687 0.67281 0.28553 0.0
C227 C 0.02375 0.67355 0.2599 0.0
C228 C 0.96347 0.67084 0.34126 0.0
C229 C 0.0565 0.67869 0.46397 0.0
H230 H 0.93191 0.64718 0.53082 0.0
C231 C 0.05227 0.66048 0.69154 0.0
C232 C 0.9946 0.66028 0.71592 0.0
C233 C 0.05746 0.66313 0.63609 0.0
C234 C 0.96666 0.65622 0.5128 0.0
H235 H 0.12139 0.6719 0.27237 0.0
H236 H 0.11537 0.66807 0.36863 0.0
H237 H 0.93635 0.64886 0.4336 0.0
H238 H 0.8978 0.66404 0.70198 0.0
H239 H 0.90698 0.66889 0.60632 0.0
H240 H 0.08696 0.68592 0.5434 0.0
C241 C 0.07342 0.66955 0.34625 0.0
C242 C 0.96912 0.65719 0.45701 0.0
C243 C 0.07681 0.67161 0.2909 0.0
C244 C 0.94286 0.66382 0.68433 0.0
C245 C 0.94802 0.66649 0.62937 0.0
C246 C 0.05415 0.67766 0.51983 0.0
C247 C 0.01684 0.6695 0.37236 0.0
C248 C 0.014 0.66846 0.43184 0.0
C249 C 0.0051 0.66562 0.60426 0.0
C250 C 0.00897 0.6665 0.5449 0.0
H251 H 0.92516 0.67456 0.263 0.0
H252 H 0.91909 0.67102 0.36012 0.0
H253 H 0.09114 0.68778 0.446 0.0
H254 H 0.09293 0.6576 0.71464 0.0
H255 H 0.10214 0.66237 0.61785 0.0
C256 C 0.46676 0.86993 0.70906 0.0
C257 C 0.52358 0.86906 0.73478 0.0
C258 C 0.46348 0.87198 0.65336 0.0
C259 C 0.55665 0.86407 0.53075 0.0
H260 H 0.43217 0.89575 0.4639 0.0
C261 C 0.55197 0.8821 0.30303 0.0
C262 C 0.49423 0.88229 0.27876 0.0
C263 C 0.55733 0.87954 0.3585 0.0
C264 C 0.46689 0.88668 0.48193 0.0
H265 H 0.62125 0.87057 0.72248 0.0
H266 H 0.61545 0.87454 0.62625 0.0
H267 H 0.43664 0.89408 0.56112 0.0
H268 H 0.39748 0.87861 0.29296 0.0
H269 H 0.40696 0.87393 0.38866 0.0
H270 H 0.58702 0.85679 0.45132 0.0
C271 C 0.57345 0.8731 0.64855 0.0
C272 C 0.46937 0.88571 0.53771 0.0
C273 C 0.57672 0.87096 0.70388 0.0
C274 C 0.44259 0.87884 0.31051 0.0
C275 C 0.44793 0.87627 0.36549 0.0
C276 C 0.55427 0.8651 0.47489 0.0
C277 C 0.51692 0.87327 0.62235 0.0
C278 C 0.51419 0.87436 0.56288 0.0
C279 C 0.50508 0.87714 0.39047 0.0
C280 C 0.50912 0.87631 0.44983 0.0
H281 H 0.42499 0.86822 0.7315 0.0
H282 H 0.41914 0.87189 0.63442 0.0
H283 H 0.59124 0.85493 0.54871 0.0
H284 H 0.59256 0.88491 0.2798 0.0
H285 H 0.60206 0.88029 0.37664 0.0
C286 C 0.54447 0.16858 0.69293 0.0
C287 C 0.51924 0.15115 0.71261 0.0
C288 C 0.54855 0.17151 0.63755 0.0
C289 C 0.47371 0.15483 0.51243 0.0
H290 H 0.60787 0.18075 0.44203 0.0
C291 C 0.49228 0.16037 0.28126 0.0
C292 C 0.5164 0.17785 0.26079 0.0
C293 C 0.49175 0.15719 0.33659 0.0
C294 C 0.56966 0.17369 0.46118 0.0
H295 H 0.48265 0.12265 0.68997 0.0
H296 H 0.49091 0.12757 0.59415 0.0
H297 H 0.61298 0.17491 0.53806 0.0
H298 H 0.55614 0.20601 0.2826 0.0
H299 H 0.55412 0.20063 0.37846 0.0
H300 H 0.43018 0.15368 0.43579 0.0
C301 C 0.50596 0.13921 0.62106 0.0
C302 C 0.57271 0.17032 0.51624 0.0
C303 C 0.50168 0.13633 0.67603 0.0
C304 C 0.53776 0.1923 0.29694 0.0
C305 C 0.53704 0.18916 0.35198 0.0
C306 C 0.47061 0.15821 0.45746 0.0
C307 C 0.52753 0.15706 0.60104 0.0
C308 C 0.52485 0.16079 0.54251 0.0
C309 C 0.51525 0.17142 0.37253 0.0
C310 C 0.51851 0.1677 0.43109 0.0
H311 H 0.55768 0.18036 0.7201 0.0
H312 H 0.56532 0.18546 0.6234 0.0
H313 H 0.43544 0.14778 0.53157 0.0
H314 H 0.47642 0.14878 0.25461 0.0
H315 H 0.47501 0.14328 0.35103 0.0
C316 C 0.72761 0.37232 0.93996 0.0
C317 C 0.76251 0.37716 0.98544 0.0
C318 C 0.66403 0.37072 0.9437 0.0
C319 C 0.53912 0.36317 0.04105 0.0
H320 H 0.43876 0.38957 0.93676 0.0
C321 C 0.28044 0.37658 0.07358 0.0
C322 C 0.24233 0.37606 0.02843 0.0
C323 C 0.34386 0.37521 0.06774 0.0
C324 C 0.46587 0.38182 0.96584 0.0
H325 H 0.75786 0.38368 0.07067 0.0
H326 H 0.64792 0.38086 0.07698 0.0
H327 H 0.549 0.38934 0.92619 0.0
H328 H 0.24088 0.37279 0.94192 0.0
H329 H 0.35046 0.36992 0.93193 0.0
H330 H 0.45617 0.35558 0.08071 0.0
C331 C 0.66938 0.37825 0.0385 0.0
C332 C 0.52922 0.38171 0.95971 0.0
C333 C 0.73254 0.38003 0.0347 0.0
C334 C 0.26888 0.37353 0.97758 0.0
C335 C 0.33197 0.372 0.97178 0.0
C336 C 0.47571 0.36314 0.047 0.0
C337 C 0.63423 0.37367 0.99309 0.0
C338 C 0.56666 0.37257 0.99753 0.0
C339 C 0.37054 0.37313 0.01662 0.0
C340 C 0.43816 0.37261 0.00971 0.0
H341 H 0.74932 0.36988 0.90152 0.0
H342 H 0.63821 0.36702 0.90803 0.0
H343 H 0.56666 0.35577 0.07056 0.0
H344 H 0.26141 0.37851 0.1133 0.0
H345 H 0.37199 0.37631 0.10323 0.0
C346 C 0.73026 0.66185 0.96877 0.0
C347 C 0.76022 0.66497 0.01792 0.0
C348 C 0.66708 0.66362 0.9649 0.0
C349 C 0.52693 0.66064 0.04386 0.0
H350 H 0.45373 0.68618 0.92184 0.0
C351 C 0.26653 0.66892 0.02577 0.0
C352 C 0.23996 0.66615 0.97502 0.0
C353 C 0.32962 0.67044 0.03149 0.0
C354 C 0.47331 0.67879 0.95586 0.0
H355 H 0.74698 0.67267 0.10157 0.0
H356 H 0.63586 0.67552 0.09496 0.0
H357 H 0.56423 0.68595 0.93196 0.0
H358 H 0.25901 0.66324 0.89023 0.0
H359 H 0.36958 0.66541 0.90019 0.0
H360 H 0.43649 0.65298 0.06718 0.0
C361 C 0.6617 0.67163 0.05943 0.0
C362 C 0.53672 0.67874 0.96177 0.0
C363 C 0.72529 0.67004 0.06322 0.0
C364 C 0.27805 0.66537 0.92987 0.0
C365 C 0.34147 0.66672 0.93565 0.0
C366 C 0.46357 0.66056 0.03777 0.0
C367 C 0.6319 0.66843 0.01014 0.0
C368 C 0.56432 0.66955 0.00567 0.0
C369 C 0.36817 0.66905 0.98667 0.0
C370 C 0.4358 0.66955 0.99354 0.0
H371 H 0.7556 0.65801 0.93293 0.0
H372 H 0.64563 0.66081 0.92652 0.0
H373 H 0.54674 0.65319 0.07769 0.0
H374 H 0.23855 0.66987 0.06141 0.0
H375 H 0.34813 0.67271 0.07126 0.0
C376 C 0.22944 0.88064 0.02552 0.0
C377 C 0.25946 0.87744 0.97642 0.0
C378 C 0.16628 0.87886 0.02937 0.0
C379 C 0.02607 0.88162 0.95037 0.0
H380 H 0.95334 0.85623 0.07271 0.0
C381 C 0.76578 0.87323 0.9687 0.0
C382 C 0.73924 0.87606 0.01944 0.0
C383 C 0.82889 0.87175 0.96294 0.0
C384 C 0.97278 0.86358 0.0386 0.0
H385 H 0.24635 0.86959 0.89286 0.0
H386 H 0.13526 0.86672 0.89946 0.0
H387 H 0.06382 0.8565 0.06257 0.0
H388 H 0.75834 0.87909 0.10419 0.0
H389 H 0.86892 0.87697 0.09418 0.0
H390 H 0.9355 0.88919 0.92699 0.0
C391 C 0.16103 0.87068 0.93495 0.0
C392 C 0.03619 0.86366 0.03267 0.0
C393 C 0.22461 0.87228 0.93117 0.0
C394 C 0.77736 0.87692 0.06455 0.0
C395 C 0.8408 0.87559 0.05875 0.0
C396 C 0.96272 0.88167 0.95648 0.0
C397 C 0.13118 0.87395 0.98418 0.0
C398 C 0.06362 0.87279 0.98867 0.0
C399 C 0.86748 0.87321 0.00772 0.0
C400 C 0.93511 0.87273 0.00082 0.0
H401 H 0.25471 0.88455 0.06133 0.0
H402 H 0.14478 0.88172 0.06771 0.0
H403 H 0.04575 0.88903 0.91645 0.0
H404 H 0.73777 0.87223 0.93308 0.0
H405 H 0.84739 0.86943 0.92318 0.0
C406 C 0.22811 0.16958 0.06475 0.0
C407 C 0.26256 0.1655 0.01849 0.0
C408 C 0.16451 0.17123 0.06171 0.0
C409 C 0.03855 0.18037 0.96663 0.0
H410 H 0.93997 0.15152 0.06713 0.0
C411 C 0.78095 0.16633 0.93246 0.0
C412 C 0.74281 0.16587 0.97754 0.0
C413 C 0.84424 0.16789 0.93855 0.0
C414 C 0.96659 0.15996 0.03918 0.0
H415 H 0.2572 0.16044 0.93261 0.0
H416 H 0.14716 0.16337 0.92749 0.0
H417 H 0.05027 0.15194 0.07728 0.0
H418 H 0.74109 0.16754 0.06432 0.0
H419 H 0.85054 0.17072 0.07482 0.0
H420 H 0.95506 0.18844 0.92849 0.0
C421 C 0.169 0.16532 0.96606 0.0
C422 C 0.02995 0.16016 0.04507 0.0
C423 C 0.23218 0.16348 0.96916 0.0
C424 C 0.76915 0.16758 0.02868 0.0
C425 C 0.83214 0.16929 0.03476 0.0
C426 C 0.97514 0.18029 0.96095 0.0
C427 C 0.13429 0.1691 0.01225 0.0
C428 C 0.06672 0.17018 0.0085 0.0
C429 C 0.87074 0.16919 0.98987 0.0
C430 C 0.93827 0.16992 0.99684 0.0
H431 H 0.25018 0.17134 0.10328 0.0
H432 H 0.13898 0.17429 0.09797 0.0
H433 H 0.06562 0.18843 0.93816 0.0
H434 H 0.76207 0.16505 0.89252 0.0
H435 H 0.87244 0.16757 0.90302 0.0
C436 C 0.41748 0.22095 0.07054 0.0
C437 C 0.39836 0.21042 0.0249 0.0
C438 C 0.37779 0.23407 0.09648 0.0
C439 C 0.21735 0.25139 0.10421 0.0
H440 H 0.28932 0.30339 0.11198 0.0
C441 C 0.12799 0.33241 0.06392 0.0
C442 C 0.07303 0.33232 0.09244 0.0
C443 C 0.17368 0.31875 0.07501 0.0
C444 C 0.26871 0.28894 0.11079 0.0
H445 H 0.32299 0.20469 0.97136 0.0
H446 H 0.25279 0.2271 0.01745 0.0
H447 H 0.35418 0.27473 0.09589 0.0
H448 H 0.02319 0.31831 0.15595 0.0
H449 H 0.10303 0.29429 0.17552 0.0
H450 H 0.13151 0.26569 0.11623 0.0
C451 C 0.29805 0.22516 0.03376 0.0
C452 C 0.30587 0.27249 0.10194 0.0
C453 C 0.33804 0.21226 0.00744 0.0
C454 C 0.06594 0.31904 0.13443 0.0
C455 C 0.11129 0.30516 0.14515 0.0
C456 C 0.18027 0.26782 0.1136 0.0
C457 C 0.3183 0.23685 0.07714 0.0
C458 C 0.28035 0.25359 0.09678 0.0
C459 C 0.16451 0.30432 0.11391 0.0
C460 C 0.2053 0.28685 0.11523 0.0
H461 H 0.46437 0.2201 0.08378 0.0
H462 H 0.39458 0.24279 0.12995 0.0
H463 H 0.19642 0.23702 0.1007 0.0
H464 H 0.13292 0.34145 0.02897 0.0
H465 H 0.21351 0.31828 0.04946 0.0
C466 C 0.62466 0.83259 0.05637 0.0
C467 C 0.56957 0.83269 0.08469 0.0
C468 C 0.67028 0.819 0.06831 0.0
C469 C 0.67696 0.76837 0.10982 0.0
H470 H 0.85084 0.77529 0.09206 0.0
C471 C 0.9149 0.72153 0.06967 0.0
C472 C 0.89586 0.71057 0.02476 0.0
C473 C 0.87498 0.73477 0.0949 0.0
C474 C 0.80254 0.77305 0.09816 0.0
H475 H 0.51936 0.81909 0.14866 0.0
H476 H 0.59911 0.79522 0.16976 0.0
H477 H 0.78574 0.804 0.10634 0.0
H478 H 0.82043 0.70418 0.97184 0.0
H479 H 0.74987 0.7268 0.01666 0.0
H480 H 0.69339 0.7375 0.09884 0.0
C481 C 0.60751 0.80588 0.13886 0.0
C482 C 0.76524 0.78953 0.10595 0.0
C483 C 0.56221 0.81968 0.12728 0.0
C484 C 0.83542 0.71209 0.0074 0.0
C485 C 0.79522 0.72512 0.03299 0.0
C486 C 0.7142 0.7519 0.10151 0.0
C487 C 0.66092 0.80484 0.10791 0.0
C488 C 0.70182 0.78742 0.11036 0.0
C489 C 0.81538 0.73725 0.07552 0.0
C490 C 0.7772 0.7541 0.09407 0.0
H491 H 0.62977 0.8414 0.02101 0.0
H492 H 0.71025 0.81838 0.04294 0.0
H493 H 0.62821 0.76623 0.11247 0.0
H494 H 0.96186 0.72092 0.08281 0.0
H495 H 0.8917 0.74381 0.12775 0.0
C496 C 0.41446 0.82076 0.92484 0.0
C497 C 0.39531 0.83176 0.96967 0.0
C498 C 0.37467 0.8075 0.89967 0.0
C499 C 0.21404 0.79036 0.89308 0.0
H500 H 0.28611 0.73826 0.88851 0.0
C501 C 0.12525 0.70965 0.93822 0.0
C502 C 0.07019 0.70954 0.90983 0.0
C503 C 0.17075 0.72324 0.92634 0.0
C504 C 0.26546 0.75273 0.88884 0.0
H505 H 0.31977 0.83821 0.02248 0.0
H506 H 0.24943 0.81556 0.97776 0.0
H507 H 0.35091 0.76698 0.90274 0.0
H508 H 0.01994 0.72315 0.84581 0.0
H509 H 0.09947 0.74703 0.82483 0.0
H510 H 0.12821 0.77603 0.8821 0.0
C511 C 0.29479 0.81722 0.96145 0.0
C512 C 0.30259 0.76922 0.8966 0.0
C513 C 0.33485 0.83027 0.98698 0.0
C514 C 0.06277 0.72256 0.86725 0.0
C515 C 0.10794 0.73637 0.85573 0.0
C516 C 0.17698 0.77389 0.8848 0.0
C517 C 0.31507 0.80504 0.91902 0.0
C518 C 0.27707 0.78817 0.90057 0.0
C519 C 0.1613 0.73741 0.88675 0.0
C520 C 0.20203 0.75483 0.88435 0.0
H521 H 0.46143 0.82135 0.91174 0.0
H522 H 0.39149 0.79842 0.8669 0.0
H523 H 0.19309 0.80476 0.89567 0.0
H524 H 0.13041 0.70083 0.97357 0.0
H525 H 0.21068 0.72387 0.95175 0.0
C526 C 0.62776 0.20964 0.93903 0.0
C527 C 0.57283 0.20983 0.91044 0.0
C528 C 0.67339 0.22332 0.92831 0.0
C529 C 0.68001 0.27436 0.89029 0.0
H530 H 0.85389 0.26727 0.90812 0.0
C531 C 0.91742 0.321 0.93267 0.0
C532 C 0.89833 0.33171 0.97803 0.0
C533 C 0.87767 0.30786 0.90702 0.0
C534 C 0.80559 0.26957 0.90205 0.0
H535 H 0.52304 0.22406 0.84716 0.0
H536 H 0.6028 0.24809 0.8282 0.0
H537 H 0.78904 0.23868 0.89204 0.0
H538 H 0.82295 0.33775 0.03135 0.0
H539 H 0.75264 0.3153 0.98579 0.0
H540 H 0.69618 0.30515 0.90304 0.0
C541 C 0.61105 0.23714 0.85838 0.0
C542 C 0.76843 0.25315 0.89322 0.0
C543 C 0.56575 0.22325 0.86873 0.0
C544 C 0.83798 0.33004 0.99547 0.0
C545 C 0.79793 0.31711 0.96946 0.0
C546 C 0.7171 0.29076 0.89964 0.0
C547 C 0.66422 0.23787 0.8897 0.0
C548 C 0.70502 0.25531 0.88868 0.0
C549 C 0.81815 0.30523 0.92639 0.0
C550 C 0.7801 0.28849 0.90707 0.0
H551 H 0.63269 0.20049 0.97377 0.0
H552 H 0.71317 0.22369 0.95392 0.0
H553 H 0.63126 0.27654 0.88759 0.0
H554 H 0.96432 0.32174 0.91944 0.0
H555 H 0.89443 0.29901 0.87376 0.0
loop_
_geom_bond_atom_site_label_1
_geom_bond_atom_site_label_2
_geom_bond_distance
_geom_bond_site_symmetry_2
_ccdc_geom_bond_type
Zn0 N4 2.020 . S
Zn0 O8 2.019 . S
Zn0 N10 2.119 . S
Zn0 O18 1.975 . S
C1 N2 1.334 1_656 S
C1 N5 1.336 . S
N2 C1 1.334 1_454 S
N2 C3 1.334 . S
C3 N2 1.334 . S
C3 N4 1.336 . S
N4 Zn0 2.020 . S
N4 C3 1.336 . S
N4 N5 1.354 1_454 S
N5 C1 1.336 . S
N5 N4 1.354 1_656 S
N5 Zn9 2.020 . S
C6 O7 1.244 1_556 S
C6 O30 1.257 . S
O7 C6 1.244 1_554 S
O8 Zn0 2.019 . S
O8 C28 1.257 . S
Zn9 N5 2.020 . S
Zn9 O16 1.975 . S
Zn9 N25 2.119 . S
Zn9 O30 2.019 . S
N10 Zn0 2.119 . S
N10 C12 1.334 1_455 S
N10 C13 1.328 . S
C11 C12 1.391 . S
C11 N14 1.330 1_655 S
C11 H32 0.930 . S
C12 N10 1.334 1_655 S
C12 C11 1.391 . S
C12 H19 0.930 . S
C13 N10 1.328 . S
C13 C15 1.392 . S
C13 H20 0.930 . S
N14 C11 1.330 1_455 S
N14 C15 1.330 . S
C15 C13 1.392 . S
C15 N14 1.330 . S
O16 Zn9 1.975 . S
O16 C17 1.252 1_656 S
C17 O16 1.252 1_454 S
C17 O18 1.252 . S
O18 Zn0 1.975 . S
O18 C17 1.252 . S
H19 C12 0.930 . S
H20 C13 0.930 . S
C21 C22 1.392 . S
C21 N25 1.328 . S
C21 H27 0.930 . S
C22 C21 1.392 . S
C22 N26 1.330 1_655 S
C23 C24 1.391 . S
C23 N26 1.330 . S
C23 H33 0.930 . S
C24 C23 1.391 . S
C24 N25 1.334 1_455 S
C24 H31 0.930 . S
N25 Zn9 2.119 . S
N25 C21 1.328 . S
N25 C24 1.334 1_655 S
N26 C22 1.330 1_455 S
N26 C23 1.330 . S
H27 C21 0.930 . S
C28 O8 1.257 . S
C28 O29 1.244 1_554 S
O29 C28 1.244 1_556 S
O30 C6 1.257 . S
O30 Zn9 2.019 . S
H31 C24 0.930 . S
H32 C11 0.930 . S
H33 C23 0.930 . S
Zn34 N38 2.020 . S
Zn34 O42 2.019 . S
Zn34 N44 2.119 . S
Zn34 O52 1.975 . S
C35 N36 1.334 1_655 S
C35 N39 1.336 . S
N36 C35 1.334 1_455 S
N36 C37 1.334 1_554 S
C37 N36 1.334 1_556 S
C37 N38 1.336 . S
N38 Zn34 2.020 . S
N38 C37 1.336 . S
N38 N39 1.354 1_456 S
N39 C35 1.336 . S
N39 N38 1.354 1_654 S
N39 Zn43 2.020 . S
C40 O41 1.244 1_554 S
C40 O64 1.257 . S
O41 C40 1.244 1_556 S
O42 Zn34 2.019 . S
O42 C62 1.257 . S
Zn43 N39 2.020 . S
Zn43 O50 1.975 . S
Zn43 N59 2.119 . S
Zn43 O64 2.019 . S
N44 Zn34 2.119 . S
N44 C46 1.334 1_455 S
N44 C47 1.328 . S
C45 C46 1.391 . S
C45 N48 1.330 1_655 S
C45 H66 0.930 . S
C46 N44 1.334 1_655 S
C46 C45 1.391 . S
C46 H53 0.930 . S
C47 N44 1.328 . S
C47 C49 1.392 . S
C47 H54 0.930 . S
N48 C45 1.330 1_455 S
N48 C49 1.330 . S
C49 C47 1.392 . S
C49 N48 1.330 . S
O50 Zn43 1.975 . S
O50 C51 1.252 1_655 S
C51 O50 1.252 1_455 S
C51 O52 1.252 1_554 S
O52 Zn34 1.975 . S
O52 C51 1.252 1_556 S
H53 C46 0.930 . S
H54 C47 0.930 . S
C55 C56 1.392 . S
C55 N59 1.328 . S
C55 H61 0.930 . S
C56 C55 1.392 . S
C56 N60 1.330 1_655 S
C57 C58 1.391 . S
C57 N60 1.330 . S
C57 H67 0.930 . S
C58 C57 1.391 . S
C58 N59 1.334 1_455 S
C58 H65 0.930 . S
N59 Zn43 2.119 . S
N59 C55 1.328 . S
N59 C58 1.334 1_655 S
N60 C56 1.330 1_455 S
N60 C57 1.330 . S
H61 C55 0.930 . S
C62 O42 1.257 . S
C62 O63 1.244 1_556 S
O63 C62 1.244 1_554 S
O64 C40 1.257 . S
O64 Zn43 2.019 . S
H65 C58 0.930 . S
H66 C45 0.930 . S
H67 C57 0.930 . S
Zn68 N72 2.020 . S
Zn68 O76 2.019 . S
Zn68 N78 2.119 . S
Zn68 O86 1.975 . S
C69 N70 1.334 1_556 S
C69 N73 1.336 . S
N70 C69 1.334 1_554 S
N70 C71 1.334 . S
C71 N70 1.334 . S
C71 N72 1.336 . S
N72 Zn68 2.020 . S
N72 C71 1.336 . S
N72 N73 1.354 1_554 S
N73 C69 1.336 . S
N73 N72 1.354 1_556 S
N73 Zn77 2.020 . S
C74 O75 1.244 1_556 S
C74 O98 1.257 . S
O75 C74 1.244 1_554 S
O76 Zn68 2.019 . S
O76 C96 1.257 . S
Zn77 N73 2.020 . S
Zn77 O84 1.975 . S
Zn77 N93 2.119 . S
Zn77 O98 2.019 . S
N78 Zn68 2.119 . S
N78 C80 1.334 . S
N78 C81 1.328 . S
C79 C80 1.391 . S
C79 N82 1.329 . S
C79 H100 0.930 . S
C80 N78 1.334 . S
C80 C79 1.391 . S
C80 H87 0.930 . S
C81 N78 1.328 . S
C81 C83 1.392 . S
C81 H88 0.930 . S
N82 C79 1.329 . S
N82 C83 1.331 . S
C83 C81 1.392 . S
C83 N82 1.331 . S
O84 Zn77 1.975 . S
O84 C85 1.252 1_556 S
C85 O84 1.252 1_554 S
C85 O86 1.252 . S
O86 Zn68 1.975 . S
O86 C85 1.252 . S
H87 C80 0.930 . S
H88 C81 0.930 . S
C89 C90 1.392 . S
C89 N93 1.328 . S
C89 H95 0.930 . S
C90 C89 1.392 . S
C90 N94 1.331 . S
C91 C92 1.391 . S
C91 N94 1.329 . S
C91 H101 0.930 . S
C92 C91 1.391 . S
C92 N93 1.334 . S
C92 H99 0.930 . S
N93 Zn77 2.119 . S
N93 C89 1.328 . S
N93 C92 1.334 . S
N94 C90 1.331 . S
N94 C91 1.329 . S
H95 C89 0.930 . S
C96 O76 1.257 . S
C96 O97 1.244 1_554 S
O97 C96 1.244 1_556 S
O98 C74 1.257 . S
O98 Zn77 2.019 . S
H99 C92 0.930 . S
H100 C79 0.930 . S
H101 C91 0.930 . S
Zn102 N106 2.020 . S
Zn102 O110 2.019 . S
Zn102 N112 2.119 . S
Zn102 O120 1.975 . S
C103 N104 1.334 . S
C103 N107 1.336 . S
N104 C103 1.334 . S
N104 C105 1.334 1_554 S
C105 N104 1.334 1_556 S
C105 N106 1.336 . S
N106 Zn102 2.020 . S
N106 C105 1.336 . S
N106 N107 1.354 1_556 S
N107 C103 1.336 . S
N107 N106 1.354 1_554 S
N107 Zn111 2.020 . S
C108 O109 1.244 1_554 S
C108 O132 1.257 . S
O109 C108 1.244 1_556 S
O110 Zn102 2.019 . S
O110 C130 1.257 . S
Zn111 N107 2.020 . S
Zn111 O118 1.975 . S
Zn111 N127 2.119 . S
Zn111 O132 2.019 . S
N112 Zn102 2.119 . S
N112 C114 1.334 . S
N112 C115 1.328 . S
C113 C114 1.391 . S
C113 N116 1.329 . S
C113 H134 0.930 . S
C114 N112 1.334 . S
C114 C113 1.391 . S
C114 H121 0.930 . S
C115 N112 1.328 . S
C115 C117 1.392 . S
C115 H122 0.930 . S
N116 C113 1.329 . S
N116 C117 1.331 . S
C117 C115 1.392 . S
C117 N116 1.331 . S
O118 Zn111 1.975 . S
O118 C119 1.252 . S
C119 O118 1.252 . S
C119 O120 1.252 1_554 S
O120 Zn102 1.975 . S
O120 C119 1.252 1_556 S
H121 C114 0.930 . S
H122 C115 0.930 . S
C123 C124 1.392 . S
C123 N127 1.328 . S
C123 H129 0.930 . S
C124 C123 1.392 . S
C124 N128 1.331 . S
C125 C126 1.391 . S
C125 N128 1.329 . S
C125 H135 0.930 . S
C126 C125 1.391 . S
C126 N127 1.334 . S
C126 H133 0.930 . S
N127 Zn111 2.119 . S
N127 C123 1.328 . S
N127 C126 1.334 . S
N128 C124 1.331 . S
N128 C125 1.329 . S
H129 C123 0.930 . S
C130 O110 1.257 . S
C130 O131 1.244 1_556 S
O131 C130 1.244 1_554 S
O132 C108 1.257 . S
O132 Zn111 2.019 . S
H133 C126 0.930 . S
H134 C113 0.930 . S
H135 C125 0.930 . S
C136 C137 1.349 . S
C136 C138 1.327 . S
C136 H161 0.950 . S
C137 C136 1.349 . S
C137 C153 1.349 1_454 S
C138 C136 1.327 . S
C138 C157 1.429 . S
C138 H162 0.950 . S
C139 C156 1.574 . S
C139 C158 1.368 1_656 S
C139 H163 0.949 . S
H140 C144 0.949 . S
C141 C142 1.349 1_656 S
C141 C143 1.327 . S
C141 H164 0.950 . S
C142 C141 1.349 1_454 S
C142 C154 1.349 . S
C143 C141 1.327 . S
C143 C159 1.429 1_656 S
C143 H165 0.950 . S
C144 H140 0.949 . S
C144 C152 1.574 . S
C144 C160 1.368 . S
H145 C153 0.950 . S
H146 C151 0.950 . S
H147 C152 0.949 . S
H148 C154 0.950 . S
H149 C155 0.950 . S
H150 C156 0.949 . S
C151 H146 0.950 . S
C151 C153 1.327 . S
C151 C157 1.429 1_656 S
C152 C144 1.574 . S
C152 H147 0.949 . S
C152 C158 1.368 . S
C153 C137 1.349 1_656 S
C153 H145 0.950 . S
C153 C151 1.327 . S
C154 C142 1.349 . S
C154 H148 0.950 . S
C154 C155 1.327 . S
C155 H149 0.950 . S
C155 C154 1.327 . S
C155 C159 1.429 . S
C156 C139 1.574 . S
C156 H150 0.949 . S
C156 C160 1.368 1_656 S
C157 C138 1.429 . S
C157 C151 1.429 1_454 S
C157 C158 1.523 . S
C158 C139 1.368 1_454 S
C158 C152 1.368 . S
C158 C157 1.523 . S
C159 C143 1.429 1_454 S
C159 C155 1.429 . S
C159 C160 1.523 . S
C160 C144 1.368 . S
C160 C156 1.368 1_454 S
C160 C159 1.523 . S
H161 C136 0.950 . S
H162 C138 0.950 . S
H163 C139 0.949 . S
H164 C141 0.950 . S
H165 C143 0.950 . S
C166 C167 1.349 . S
C166 C168 1.327 . S
C166 H191 0.950 . S
C167 C166 1.349 . S
C167 C183 1.349 1_554 S
C168 C166 1.327 . S
C168 C187 1.429 . S
C168 H192 0.950 . S
C169 C186 1.574 1_545 S
C169 C188 1.368 1_556 S
C169 H193 0.949 . S
H170 C174 0.949 . S
C171 C172 1.349 1_556 S
C171 C173 1.327 . S
C171 H194 0.950 . S
C172 C171 1.349 1_554 S
C172 C184 1.349 . S
C173 C171 1.327 . S
C173 C189 1.429 1_556 S
C173 H195 0.950 . S
C174 H170 0.949 . S
C174 C182 1.574 1_565 S
C174 C190 1.368 . S
H175 C183 0.950 . S
H176 C181 0.950 . S
H177 C182 0.949 . S
H178 C184 0.950 . S
H179 C185 0.950 . S
H180 C186 0.949 . S
C181 H176 0.950 . S
C181 C183 1.327 . S
C181 C187 1.429 1_556 S
C182 C174 1.574 1_545 S
C182 H177 0.949 . S
C182 C188 1.368 . S
C183 C167 1.349 1_556 S
C183 H175 0.950 . S
C183 C181 1.327 . S
C184 C172 1.349 . S
C184 H178 0.950 . S
C184 C185 1.327 . S
C185 H179 0.950 . S
C185 C184 1.327 . S
C185 C189 1.429 . S
C186 C169 1.574 1_565 S
C186 H180 0.949 . S
C186 C190 1.368 1_556 S
C187 C168 1.429 . S
C187 C181 1.429 1_554 S
C187 C188 1.523 . S
C188 C169 1.368 1_554 S
C188 C182 1.368 . S
C188 C187 1.523 . S
C189 C173 1.429 1_554 S
C189 C185 1.429 . S
C189 C190 1.523 . S
C190 C174 1.368 . S
C190 C186 1.368 1_554 S
C190 C189 1.523 . S
H191 C166 0.950 . S
H192 C168 0.950 . S
H193 C169 0.949 . S
H194 C171 0.950 . S
H195 C173 0.950 . S
C196 C197 1.349 . S
C196 C198 1.327 . S
C196 H221 0.950 . S
C197 C196 1.349 . S
C197 C213 1.349 . S
C198 C196 1.327 . S
C198 C217 1.429 . S
C198 H222 0.950 . S
C199 C216 1.574 . S
C199 C218 1.368 1_455 S
C199 H223 0.949 . S
H200 C204 0.949 . S
C201 C202 1.349 . S
C201 C203 1.327 . S
C201 H224 0.950 . S
C202 C201 1.349 . S
C202 C214 1.349 . S
C203 C201 1.327 . S
C203 C219 1.429 . S
C203 H225 0.950 . S
C204 H200 0.949 . S
C204 C212 1.574 . S
C204 C220 1.368 1_655 S
H205 C213 0.950 . S
H206 C211 0.950 1_455 S
H207 C212 0.949 . S
H208 C214 0.950 . S
H209 C215 0.950 1_655 S
H210 C216 0.949 . S
C211 H206 0.950 1_655 S
C211 C213 1.327 . S
C211 C217 1.429 . S
C212 C204 1.574 . S
C212 H207 0.949 . S
C212 C218 1.368 . S
C213 C197 1.349 . S
C213 H205 0.950 . S
C213 C211 1.327 . S
C214 C202 1.349 . S
C214 H208 0.950 . S
C214 C215 1.327 . S
C215 H209 0.950 1_455 S
C215 C214 1.327 . S
C215 C219 1.429 . S
C216 C199 1.574 . S
C216 H210 0.949 . S
C216 C220 1.368 . S
C217 C198 1.429 . S
C217 C211 1.429 . S
C217 C218 1.523 . S
C218 C199 1.368 1_655 S
C218 C212 1.368 . S
C218 C217 1.523 . S
C219 C203 1.429 . S
C219 C215 1.429 . S
C219 C220 1.523 . S
C220 C204 1.368 1_455 S
C220 C216 1.368 . S
C220 C219 1.523 . S
H221 C196 0.950 . S
H222 C198 0.950 . S
H223 C199 0.949 . S
H224 C201 0.950 . S
H225 C203 0.950 . S
C226 C227 1.349 . S
C226 C228 1.327 . S
C226 H251 0.950 . S
C227 C226 1.349 . S
C227 C243 1.349 . S
C228 C226 1.327 . S
C228 C247 1.429 . S
C228 H252 0.950 . S
C229 C246 1.574 . S
C229 C248 1.368 1_455 S
C229 H253 0.949 . S
H230 C234 0.949 . S
C231 C232 1.349 . S
C231 C233 1.327 . S
C231 H254 0.950 . S
C232 C231 1.349 . S
C232 C244 1.349 . S
C233 C231 1.327 . S
C233 C249 1.429 . S
C233 H255 0.950 . S
C234 H230 0.949 . S
C234 C242 1.574 . S
C234 C250 1.368 1_655 S
H235 C243 0.950 . S
H236 C241 0.950 1_455 S
H237 C242 0.949 . S
H238 C244 0.950 . S
H239 C245 0.950 1_655 S
H240 C246 0.949 . S
C241 H236 0.950 1_655 S
C241 C243 1.327 . S
C241 C247 1.429 . S
C242 C234 1.574 . S
C242 H237 0.949 . S
C242 C248 1.368 . S
C243 C227 1.349 . S
C243 H235 0.950 . S
C243 C241 1.327 . S
C244 C232 1.349 . S
C244 H238 0.950 . S
C244 C245 1.327 . S
C245 H239 0.950 1_455 S
C245 C244 1.327 . S
C245 C249 1.429 . S
C246 C229 1.574 . S
C246 H240 0.949 . S
C246 C250 1.368 . S
C247 C228 1.429 . S
C247 C241 1.429 . S
C247 C248 1.523 . S
C248 C229 1.368 1_655 S
C248 C242 1.368 . S
C248 C247 1.523 . S
C249 C233 1.429 . S
C249 C245 1.429 . S
C249 C250 1.523 . S
C250 C234 1.368 1_455 S
C250 C246 1.368 . S
C250 C249 1.523 . S
H251 C226 0.950 . S
H252 C228 0.950 . S
H253 C229 0.949 . S
H254 C231 0.950 . S
H255 C233 0.950 . S
C256 C257 1.349 . S
C256 C258 1.327 . S
C256 H281 0.950 . S
C257 C256 1.349 . S
C257 C273 1.349 . S
C258 C256 1.327 . S
C258 C277 1.429 . S
C258 H282 0.950 . S
C259 C276 1.574 . S
C259 C278 1.368 . S
C259 H283 0.949 . S
H260 C264 0.949 . S
C261 C262 1.349 . S
C261 C263 1.327 . S
C261 H284 0.950 . S
C262 C261 1.349 . S
C262 C274 1.349 . S
C263 C261 1.327 . S
C263 C279 1.429 . S
C263 H285 0.950 . S
C264 H260 0.949 . S
C264 C272 1.574 . S
C264 C280 1.368 . S
H265 C273 0.950 . S
H266 C271 0.950 . S
H267 C272 0.949 . S
H268 C274 0.950 . S
H269 C275 0.950 . S
H270 C276 0.949 . S
C271 H266 0.950 . S
C271 C273 1.327 . S
C271 C277 1.429 . S
C272 C264 1.574 . S
C272 H267 0.949 . S
C272 C278 1.368 . S
C273 C257 1.349 . S
C273 H265 0.950 . S
C273 C271 1.327 . S
C274 C262 1.349 . S
C274 H268 0.950 . S
C274 C275 1.327 . S
C275 H269 0.950 . S
C275 C274 1.327 . S
C275 C279 1.429 . S
C276 C259 1.574 . S
C276 H270 0.949 . S
C276 C280 1.368 . S
C277 C258 1.429 . S
C277 C271 1.429 . S
C277 C278 1.523 . S
C278 C259 1.368 . S
C278 C272 1.368 . S
C278 C277 1.523 . S
C279 C263 1.429 . S
C279 C275 1.429 . S
C279 C280 1.523 . S
C280 C264 1.368 . S
C280 C276 1.368 . S
C280 C279 1.523 . S
H281 C256 0.950 . S
H282 C258 0.950 . S
H283 C259 0.949 . S
H284 C261 0.950 . S
H285 C263 0.950 . S
C286 C287 1.349 . S
C286 C288 1.327 . S
C286 H311 0.950 . S
C287 C286 1.349 . S
C287 C303 1.349 . S
C288 C286 1.327 . S
C288 C307 1.429 . S
C288 H312 0.950 . S
C289 C306 1.574 . S
C289 C308 1.368 . S
C289 H313 0.949 . S
H290 C294 0.949 . S
C291 C292 1.349 . S
C291 C293 1.327 . S
C291 H314 0.950 . S
C292 C291 1.349 . S
C292 C304 1.349 . S
C293 C291 1.327 . S
C293 C309 1.429 . S
C293 H315 0.950 . S
C294 H290 0.949 . S
C294 C302 1.574 . S
C294 C310 1.368 . S
H295 C303 0.950 . S
H296 C301 0.950 . S
H297 C302 0.949 . S
H298 C304 0.950 . S
H299 C305 0.950 . S
H300 C306 0.949 . S
C301 H296 0.950 . S
C301 C303 1.327 . S
C301 C307 1.429 . S
C302 C294 1.574 . S
C302 H297 0.949 . S
C302 C308 1.368 . S
C303 C287 1.349 . S
C303 H295 0.950 . S
C303 C301 1.327 . S
C304 C292 1.349 . S
C304 H298 0.950 . S
C304 C305 1.327 . S
C305 H299 0.950 . S
C305 C304 1.327 . S
C305 C309 1.429 . S
C306 C289 1.574 . S
C306 H300 0.949 . S
C306 C310 1.368 . S
C307 C288 1.429 . S
C307 C301 1.429 . S
C307 C308 1.523 . S
C308 C289 1.368 . S
C308 C302 1.368 . S
C308 C307 1.523 . S
C309 C293 1.429 . S
C309 C305 1.429 . S
C309 C310 1.523 . S
C310 C294 1.368 . S
C310 C306 1.368 . S
C310 C309 1.523 . S
H311 C286 0.950 . S
H312 C288 0.950 . S
H313 C289 0.949 . S
H314 C291 0.950 . S
H315 C293 0.950 . S
C316 C317 1.349 . S
C316 C318 1.327 . S
C316 H341 0.950 . S
C317 C316 1.349 . S
C317 C333 1.349 1_556 S
C318 C316 1.327 . S
C318 C337 1.429 . S
C318 H342 0.950 . S
C319 C336 1.574 . S
C319 C338 1.368 1_554 S
C319 H343 0.949 . S
H320 C324 0.949 . S
C321 C322 1.349 . S
C321 C323 1.327 . S
C321 H344 0.950 . S
C322 C321 1.349 . S
C322 C334 1.349 1_554 S
C323 C321 1.327 . S
C323 C339 1.429 . S
C323 H345 0.950 . S
C324 H320 0.949 . S
C324 C332 1.574 . S
C324 C340 1.368 1_556 S
H325 C333 0.950 . S
H326 C331 0.950 . S
H327 C332 0.949 . S
H328 C334 0.950 . S
H329 C335 0.950 . S
H330 C336 0.949 . S
C331 H326 0.950 . S
C331 C333 1.327 . S
C331 C337 1.429 1_554 S
C332 C324 1.574 . S
C332 H327 0.949 . S
C332 C338 1.368 . S
C333 C317 1.349 1_554 S
C333 H325 0.950 . S
C333 C331 1.327 . S
C334 C322 1.349 1_556 S
C334 H328 0.950 . S
C334 C335 1.327 . S
C335 H329 0.950 . S
C335 C334 1.327 . S
C335 C339 1.429 1_556 S
C336 C319 1.574 . S
C336 H330 0.949 . S
C336 C340 1.368 . S
C337 C318 1.429 . S
C337 C331 1.429 1_556 S
C337 C338 1.523 . S
C338 C319 1.368 1_556 S
C338 C332 1.368 . S
C338 C337 1.523 . S
C339 C323 1.429 . S
C339 C335 1.429 1_554 S
C339 C340 1.523 . S
C340 C324 1.368 1_554 S
C340 C336 1.368 . S
C340 C339 1.523 . S
H341 C316 0.950 . S
H342 C318 0.950 . S
H343 C319 0.949 . S
H344 C321 0.950 . S
H345 C323 0.950 . S
C346 C347 1.349 1_556 S
C346 C348 1.327 . S
C346 H371 0.950 . S
C347 C346 1.349 1_554 S
C347 C363 1.349 . S
C348 C346 1.327 . S
C348 C367 1.429 1_556 S
C348 H372 0.950 . S
C349 C366 1.574 . S
C349 C368 1.368 . S
C349 H373 0.949 . S
H350 C354 0.949 . S
C351 C352 1.349 1_554 S
C351 C353 1.327 . S
C351 H374 0.950 . S
C352 C351 1.349 1_556 S
C352 C364 1.349 . S
C353 C351 1.327 . S
C353 C369 1.429 1_554 S
C353 H375 0.950 . S
C354 H350 0.949 . S
C354 C362 1.574 . S
C354 C370 1.368 . S
H355 C363 0.950 . S
H356 C361 0.950 . S
H357 C362 0.949 . S
H358 C364 0.950 . S
H359 C365 0.950 . S
H360 C366 0.949 . S
C361 H356 0.950 . S
C361 C363 1.327 . S
C361 C367 1.429 . S
C362 C354 1.574 . S
C362 H357 0.949 . S
C362 C368 1.368 1_556 S
C363 C347 1.349 . S
C363 H355 0.950 . S
C363 C361 1.327 . S
C364 C352 1.349 . S
C364 H358 0.950 . S
C364 C365 1.327 . S
C365 H359 0.950 . S
C365 C364 1.327 . S
C365 C369 1.429 . S
C366 C349 1.574 . S
C366 H360 0.949 . S
C366 C370 1.368 1_554 S
C367 C348 1.429 1_554 S
C367 C361 1.429 . S
C367 C368 1.523 . S
C368 C349 1.368 . S
C368 C362 1.368 1_554 S
C368 C367 1.523 . S
C369 C353 1.429 1_556 S
C369 C365 1.429 . S
C369 C370 1.523 . S
C370 C354 1.368 . S
C370 C366 1.368 1_556 S
C370 C369 1.523 . S
H371 C346 0.950 . S
H372 C348 0.950 . S
H373 C349 0.949 . S
H374 C351 0.950 . S
H375 C353 0.950 . S
C376 C377 1.349 1_554 S
C376 C378 1.327 . S
C376 H401 0.950 . S
C377 C376 1.349 1_556 S
C377 C393 1.349 . S
C378 C376 1.327 . S
C378 C397 1.429 1_554 S
C378 H402 0.950 . S
C379 C396 1.574 1_455 S
C379 C398 1.368 . S
C379 H403 0.949 . S
H380 C384 0.949 . S
C381 C382 1.349 1_556 S
C381 C383 1.327 . S
C381 H404 0.950 . S
C382 C381 1.349 1_554 S
C382 C394 1.349 . S
C383 C381 1.327 . S
C383 C399 1.429 1_556 S
C383 H405 0.950 . S
C384 H380 0.949 . S
C384 C392 1.574 1_655 S
C384 C400 1.368 . S
H385 C393 0.950 . S
H386 C391 0.950 . S
H387 C392 0.949 . S
H388 C394 0.950 . S
H389 C395 0.950 . S
H390 C396 0.949 . S
C391 H386 0.950 . S
C391 C393 1.327 . S
C391 C397 1.429 . S
C392 C384 1.574 1_455 S
C392 H387 0.949 . S
C392 C398 1.368 1_554 S
C393 C377 1.349 . S
C393 H385 0.950 . S
C393 C391 1.327 . S
C394 C382 1.349 . S
C394 H388 0.950 . S
C394 C395 1.327 . S
C395 H389 0.950 . S
C395 C394 1.327 . S
C395 C399 1.429 . S
C396 C379 1.574 1_655 S
C396 H390 0.949 . S
C396 C400 1.368 1_556 S
C397 C378 1.429 1_556 S
C397 C391 1.429 . S
C397 C398 1.523 . S
C398 C379 1.368 . S
C398 C392 1.368 1_556 S
C398 C397 1.523 . S
C399 C383 1.429 1_554 S
C399 C395 1.429 . S
C399 C400 1.523 . S
C400 C384 1.368 . S
C400 C396 1.368 1_554 S
C400 C399 1.523 . S
H401 C376 0.950 . S
H402 C378 0.950 . S
H403 C379 0.949 . S
H404 C381 0.950 . S
H405 C383 0.950 . S
C406 C407 1.349 . S
C406 C408 1.327 . S
C406 H431 0.950 . S
C407 C406 1.349 . S
C407 C423 1.349 1_554 S
C408 C406 1.327 . S
C408 C427 1.429 . S
C408 H432 0.950 . S
C409 C426 1.574 1_455 S
C409 C428 1.368 1_556 S
C409 H433 0.949 . S
H410 C414 0.949 . S
C411 C412 1.349 . S
C411 C413 1.327 . S
C411 H434 0.950 . S
C412 C411 1.349 . S
C412 C424 1.349 1_556 S
C413 C411 1.327 . S
C413 C429 1.429 . S
C413 H435 0.950 . S
C414 H410 0.949 . S
C414 C422 1.574 1_655 S
C414 C430 1.368 1_554 S
H415 C423 0.950 . S
H416 C421 0.950 . S
H417 C422 0.949 . S
H418 C424 0.950 . S
H419 C425 0.950 . S
H420 C426 0.949 . S
C421 H416 0.950 . S
C421 C423 1.327 . S
C421 C427 1.429 1_556 S
C422 C414 1.574 1_455 S
C422 H417 0.949 . S
C422 C428 1.368 . S
C423 C407 1.349 1_556 S
C423 H415 0.950 . S
C423 C421 1.327 . S
C424 C412 1.349 1_554 S
C424 H418 0.950 . S
C424 C425 1.327 . S
C425 H419 0.950 . S
C425 C424 1.327 . S
C425 C429 1.429 1_554 S
C426 C409 1.574 1_655 S
C426 H420 0.949 . S
C426 C430 1.368 . S
C427 C408 1.429 . S
C427 C421 1.429 1_554 S
C427 C428 1.523 . S
C428 C409 1.368 1_554 S
C428 C422 1.368 . S
C428 C427 1.523 . S
C429 C413 1.429 . S
C429 C425 1.429 1_556 S
C429 C430 1.523 . S
C430 C414 1.368 1_556 S
C430 C426 1.368 . S
C430 C429 1.523 . S
H431 C406 0.950 . S
H432 C408 0.950 . S
H433 C409 0.949 . S
H434 C411 0.950 . S
H435 C413 0.950 . S
C436 C437 1.349 . S
C436 C438 1.327 . S
C436 H461 0.950 . S
C437 C436 1.349 . S
C437 C453 1.349 1_554 S
C438 C436 1.327 . S
C438 C457 1.429 . S
C438 H462 0.950 . S
C439 C456 1.574 . S
C439 C458 1.368 1_556 S
C439 H463 0.949 . S
H440 C444 0.949 . S
C441 C442 1.349 1_556 S
C441 C443 1.327 . S
C441 H464 0.950 . S
C442 C441 1.349 1_554 S
C442 C454 1.349 . S
C443 C441 1.327 . S
C443 C459 1.429 1_556 S
C443 H465 0.950 . S
C444 H440 0.949 . S
C444 C452 1.574 . S
C444 C460 1.368 . S
H445 C453 0.950 . S
H446 C451 0.950 . S
H447 C452 0.949 . S
H448 C454 0.950 . S
H449 C455 0.950 . S
H450 C456 0.949 . S
C451 H446 0.950 . S
C451 C453 1.327 . S
C451 C457 1.429 1_556 S
C452 C444 1.574 . S
C452 H447 0.949 . S
C452 C458 1.368 . S
C453 C437 1.349 1_556 S
C453 H445 0.950 . S
C453 C451 1.327 . S
C454 C442 1.349 . S
C454 H448 0.950 . S
C454 C455 1.327 . S
C455 H449 0.950 . S
C455 C454 1.327 . S
C455 C459 1.429 . S
C456 C439 1.574 . S
C456 H450 0.949 . S
C456 C460 1.368 1_556 S
C457 C438 1.429 . S
C457 C451 1.429 1_554 S
C457 C458 1.523 . S
C458 C439 1.368 1_554 S
C458 C452 1.368 . S
C458 C457 1.523 . S
C459 C443 1.429 1_554 S
C459 C455 1.429 . S
C459 C460 1.523 . S
C460 C444 1.368 . S
C460 C456 1.368 1_554 S
C460 C459 1.523 . S
H461 C436 0.950 . S
H462 C438 0.950 . S
H463 C439 0.949 . S
H464 C441 0.950 . S
H465 C443 0.950 . S
C466 C467 1.349 1_556 S
C466 C468 1.327 . S
C466 H491 0.950 . S
C467 C466 1.349 1_554 S
C467 C483 1.349 . S
C468 C466 1.327 . S
C468 C487 1.429 1_556 S
C468 H492 0.950 . S
C469 C486 1.574 . S
C469 C488 1.368 . S
C469 H493 0.949 . S
H470 C474 0.949 . S
C471 C472 1.349 . S
C471 C473 1.327 . S
C471 H494 0.950 . S
C472 C471 1.349 . S
C472 C484 1.349 1_554 S
C473 C471 1.327 . S
C473 C489 1.429 . S
C473 H495 0.950 . S
C474 H470 0.949 . S
C474 C482 1.574 . S
C474 C490 1.368 1_556 S
H475 C483 0.950 . S
H476 C481 0.950 . S
H477 C482 0.949 . S
H478 C484 0.950 . S
H479 C485 0.950 . S
H480 C486 0.949 . S
C481 H476 0.950 . S
C481 C483 1.327 . S
C481 C487 1.429 . S
C482 C474 1.574 . S
C482 H477 0.949 . S
C482 C488 1.368 1_556 S
C483 C467 1.349 . S
C483 H475 0.950 . S
C483 C481 1.327 . S
C484 C472 1.349 1_556 S
C484 H478 0.950 . S
C484 C485 1.327 . S
C485 H479 0.950 . S
C485 C484 1.327 . S
C485 C489 1.429 1_556 S
C486 C469 1.574 . S
C486 H480 0.949 . S
C486 C490 1.368 . S
C487 C468 1.429 1_554 S
C487 C481 1.429 . S
C487 C488 1.523 . S
C488 C469 1.368 . S
C488 C482 1.368 1_554 S
C488 C487 1.523 . S
C489 C473 1.429 . S
C489 C485 1.429 1_554 S
C489 C490 1.523 . S
C490 C474 1.368 1_554 S
C490 C486 1.368 . S
C490 C489 1.523 . S
H491 C466 0.950 . S
H492 C468 0.950 . S
H493 C469 0.949 . S
H494 C471 0.950 . S
H495 C473 0.950 . S
C496 C497 1.349 . S
C496 C498 1.327 . S
C496 H521 0.950 . S
C497 C496 1.349 . S
C497 C513 1.349 1_556 S
C498 C496 1.327 . S
C498 C517 1.429 . S
C498 H522 0.950 . S
C499 C516 1.574 . S
C499 C518 1.368 1_554 S
C499 H523 0.949 . S
H500 C504 0.949 . S
C501 C502 1.349 1_554 S
C501 C503 1.327 . S
C501 H524 0.950 . S
C502 C501 1.349 1_556 S
C502 C514 1.349 . S
C503 C501 1.327 . S
C503 C519 1.429 1_554 S
C503 H525 0.950 . S
C504 H500 0.949 . S
C504 C512 1.574 . S
C504 C520 1.368 . S
H505 C513 0.950 . S
H506 C511 0.950 . S
H507 C512 0.949 . S
H508 C514 0.950 . S
H509 C515 0.950 . S
H510 C516 0.949 . S
C511 H506 0.950 . S
C511 C513 1.327 . S
C511 C517 1.429 1_554 S
C512 C504 1.574 . S
C512 H507 0.949 . S
C512 C518 1.368 . S
C513 C497 1.349 1_554 S
C513 H505 0.950 . S
C513 C511 1.327 . S
C514 C502 1.349 . S
C514 H508 0.950 . S
C514 C515 1.327 . S
C515 H509 0.950 . S
C515 C514 1.327 . S
C515 C519 1.429 . S
C516 C499 1.574 . S
C516 H510 0.949 . S
C516 C520 1.368 1_554 S
C517 C498 1.429 . S
C517 C511 1.429 1_556 S
C517 C518 1.523 . S
C518 C499 1.368 1_556 S
C518 C512 1.368 . S
C518 C517 1.523 . S
C519 C503 1.429 1_556 S
C519 C515 1.429 . S
C519 C520 1.523 . S
C520 C504 1.368 . S
C520 C516 1.368 1_556 S
C520 C519 1.523 . S
H521 C496 0.950 . S
H522 C498 0.950 . S
H523 C499 0.949 . S
H524 C501 0.950 . S
H525 C503 0.950 . S
C526 C527 1.349 1_554 S
C526 C528 1.327 . S
C526 H551 0.950 . S
C527 C526 1.349 1_556 S
C527 C543 1.349 . S
C528 C526 1.327 . S
C528 C547 1.429 1_554 S
C528 H552 0.950 . S
C529 C546 1.574 . S
C529 C548 1.368 . S
C529 H553 0.949 . S
H530 C534 0.949 . S
C531 C532 1.349 . S
C531 C533 1.327 . S
C531 H554 0.950 . S
C532 C531 1.349 . S
C532 C544 1.349 1_556 S
C533 C531 1.327 . S
C533 C549 1.429 . S
C533 H555 0.950 . S
C534 H530 0.949 . S
C534 C542 1.574 . S
C534 C550 1.368 1_554 S
H535 C543 0.950 . S
H536 C541 0.950 . S
H537 C542 0.949 . S
H538 C544 0.950 . S
H539 C545 0.950 . S
H540 C546 0.949 . S
C541 H536 0.950 . S
C541 C543 1.327 . S
C541 C547 1.429 . S
C542 C534 1.574 . S
C542 H537 0.949 . S
C542 C548 1.368 1_554 S
C543 C527 1.349 . S
C543 H535 0.950 . S
C543 C541 1.327 . S
C544 C532 1.349 1_554 S
C544 H538 0.950 . S
C544 C545 1.327 . S
C545 H539 0.950 . S
C545 C544 1.327 . S
C545 C549 1.429 1_554 S
C546 C529 1.574 . S
C546 H540 0.949 . S
C546 C550 1.368 . S
C547 C528 1.429 1_556 S
C547 C541 1.429 . S
C547 C548 1.523 . S
C548 C529 1.368 . S
C548 C542 1.368 1_556 S
C548 C547 1.523 . S
C549 C533 1.429 . S
C549 C545 1.429 1_556 S
C549 C550 1.523 . S
C550 C534 1.368 1_556 S
C550 C546 1.368 . S
C550 C549 1.523 . S
H551 C526 0.950 . S
H552 C528 0.950 . S
H553 C529 0.949 . S
H554 C531 0.950 . S
H555 C533 0.950 . S
C137 C17 1.526 . S
C142 C51 1.526 . S
C167 C119 1.526 . S
C172 C85 1.526 . S
C197 C22 1.766 . S
C202 C15 1.766 . S
C227 C56 1.766 . S
C232 C49 1.766 . S
C257 C90 1.766 . S
C262 C83 1.766 . S
C287 C117 1.766 . S
C292 C124 1.766 . S
C317 C6 1.267 . S
C322 C28 1.267 . S
C347 C40 1.267 . S
C352 C62 1.267 . S
C377 C74 1.267 . S
C382 C96 1.267 . S
C407 C108 1.267 . S
C412 C130 1.267 . S
C437 C103 1.690 . S
C442 C3 1.688 . S
C467 C71 1.690 . S
C472 C35 1.691 . S
C497 C69 1.690 . S
C502 C37 1.688 . S
C527 C105 1.690 . S
C532 C1 1.691 . S
