# Generated by pormake.
# Topology wme, (6)-cn, num edge types: 1
# Building blocks:
#     Node 0, Type 0, BuildingBlock: INOVEN_clean_sbu_0, # of connection points: 6
#     Node 1, Type 0, BuildingBlock: INOVEN_clean_sbu_0, # of connection points: 6
#     Node 2, Type 0, BuildingBlock: INOVEN_clean_sbu_0, # of connection points: 6
#     Node 3, Type 0, BuildingBlock: INOVEN_clean_sbu_0, # of connection points: 6
#     Node 4, Type 0, BuildingBlock: INOVEN_clean_sbu_0, # of connection points: 6
#     Node 5, Type 0, BuildingBlock: INOVEN_clean_sbu_0, # of connection points: 6
#     Node 6, Type 0, BuildingBlock: INOVEN_clean_sbu_0, # of connection points: 6
#     Node 7, Type 0, BuildingBlock: INOVEN_clean_sbu_0, # of connection points: 6
#     Node 8, Type 0, BuildingBlock: INOVEN_clean_sbu_0, # of connection points: 6
#     Node 9, Type 0, BuildingBlock: INOVEN_clean_sbu_0, # of connection points: 6
#     Node 10, Type 0, BuildingBlock: INOVEN_clean_sbu_0, # of connection points: 6
#     Node 11, Type 0, BuildingBlock: INOVEN_clean_sbu_0, # of connection points: 6
#     Edge 12, Type (0, 0), BuildingBlock: CIFDUS_clean_linker_0, # of connection points: 2
#     Edge 13, Type (0, 0), BuildingBlock: CIFDUS_clean_linker_0, # of connection points: 2
#     Edge 14, Type (0, 0), BuildingBlock: CIFDUS_clean_linker_0, # of connection points: 2
#     Edge 15, Type (0, 0), BuildingBlock: CIFDUS_clean_linker_0, # of connection points: 2
#     Edge 16, Type (0, 0), BuildingBlock: CIFDUS_clean_linker_0, # of connection points: 2
#     Edge 17, Type (0, 0), BuildingBlock: CIFDUS_clean_linker_0, # of connection points: 2
#     Edge 18, Type (0, 0), BuildingBlock: CIFDUS_clean_linker_0, # of connection points: 2
#     Edge 19, Type (0, 0), BuildingBlock: CIFDUS_clean_linker_0, # of connection points: 2
#     Edge 20, Type (0, 0), BuildingBlock: CIFDUS_clean_linker_0, # of connection points: 2
#     Edge 21, Type (0, 0), BuildingBlock: CIFDUS_clean_linker_0, # of connection points: 2
#     Edge 22, Type (0, 0), BuildingBlock: CIFDUS_clean_linker_0, # of connection points: 2
#     Edge 23, Type (0, 0), BuildingBlock: CIFDUS_clean_linker_0, # of connection points: 2
#     Edge 24, Type (0, 0), BuildingBlock: CIFDUS_clean_linker_0, # of connection points: 2
#     Edge 25, Type (0, 0), BuildingBlock: CIFDUS_clean_linker_0, # of connection points: 2
#     Edge 26, Type (0, 0), BuildingBlock: CIFDUS_clean_linker_0, # of connection points: 2
#     Edge 27, Type (0, 0), BuildingBlock: CIFDUS_clean_linker_0, # of connection points: 2
#     Edge 28, Type (0, 0), BuildingBlock: CIFDUS_clean_linker_0, # of connection points: 2
#     Edge 29, Type (0, 0), BuildingBlock: CIFDUS_clean_linker_0, # of connection points: 2
#     Edge 30, Type (0, 0), BuildingBlock: CIFDUS_clean_linker_0, # of connection points: 2
#     Edge 31, Type (0, 0), BuildingBlock: CIFDUS_clean_linker_0, # of connection points: 2
#     Edge 32, Type (0, 0), BuildingBlock: CIFDUS_clean_linker_0, # of connection points: 2
#     Edge 33, Type (0, 0), BuildingBlock: CIFDUS_clean_linker_0, # of connection points: 2
#     Edge 34, Type (0, 0), BuildingBlock: CIFDUS_clean_linker_0, # of connection points: 2
#     Edge 35, Type (0, 0), BuildingBlock: CIFDUS_clean_linker_0, # of connection points: 2
#     Edge 36, Type (0, 0), BuildingBlock: CIFDUS_clean_linker_0, # of connection points: 2
#     Edge 37, Type (0, 0), BuildingBlock: CIFDUS_clean_linker_0, # of connection points: 2
#     Edge 38, Type (0, 0), BuildingBlock: CIFDUS_clean_linker_0, # of connection points: 2
#     Edge 39, Type (0, 0), BuildingBlock: CIFDUS_clean_linker_0, # of connection points: 2
#     Edge 40, Type (0, 0), BuildingBlock: CIFDUS_clean_linker_0, # of connection points: 2
#     Edge 41, Type (0, 0), BuildingBlock: CIFDUS_clean_linker_0, # of connection points: 2
#     Edge 42, Type (0, 0), BuildingBlock: CIFDUS_clean_linker_0, # of connection points: 2
#     Edge 43, Type (0, 0), BuildingBlock: CIFDUS_clean_linker_0, # of connection points: 2
#     Edge 44, Type (0, 0), BuildingBlock: CIFDUS_clean_linker_0, # of connection points: 2
#     Edge 45, Type (0, 0), BuildingBlock: CIFDUS_clean_linker_0, # of connection points: 2
#     Edge 46, Type (0, 0), BuildingBlock: CIFDUS_clean_linker_0, # of connection points: 2
#     Edge 47, Type (0, 0), BuildingBlock: CIFDUS_clean_linker_0, # of connection points: 2
# Relax obj value: 0.100
# Max RMSD: 0.214
# Mean RMSD: 0.214
data_MOF--net-wme--node1-INOVEN_clean_sbu_0--edge1-CIFDUS_clean_linker_0
_symmetry_space_group_name_H-M    P1
_symmetry_Int_Tables_number       1
_symmetry_cell_setting            triclinic
loop_
_symmetry_equiv_pos_as_xyz
'x, y, z'
_cell_length_a     36.741007
_cell_length_b     36.748723
_cell_length_c     44.781459
_cell_angle_alpha  90.123129
_cell_angle_beta   89.860655
_cell_angle_gamma 120.16845
loop_
_atom_site_label
_atom_site_type_symbol
_atom_site_fract_x
_atom_site_fract_y
_atom_site_fract_z
_atom_type_partial_charge
Gd0 Gd 0.21489 0.37451 0.10712 0.0
Gd1 Gd 0.25692 0.32764 0.1326 0.0
C2 C 0.31257 0.42722 0.12601 0.0
C3 C 0.1919 0.4282 0.09155 0.0
C4 C 0.19853 0.47105 0.09696 0.0
C5 C 0.19901 0.49506 0.07242 0.0
C6 C 0.20043 0.48687 0.12594 0.0
C7 C 0.19988 0.54814 0.10553 0.0
C8 C 0.20093 0.52505 0.13017 0.0
C9 C 0.19985 0.53328 0.07664 0.0
C10 C 0.24188 0.33591 0.0672 0.0
C11 C 0.15324 0.2808 0.1258 0.0
C12 C 0.27514 0.26867 0.12801 0.0
C13 C 0.25087 0.22216 0.13209 0.0
C14 C 0.25531 0.20322 0.158 0.0
C15 C 0.22429 0.19596 0.10913 0.0
C16 C 0.2098 0.13341 0.13687 0.0
C17 C 0.20386 0.15217 0.11159 0.0
C18 C 0.23518 0.15923 0.16027 0.0
C19 C 0.23005 0.35109 0.18061 0.0
O20 O 0.27631 0.42641 0.12473 0.0
O21 O 0.31475 0.3922 0.12688 0.0
O22 O 0.22172 0.42502 0.07794 0.0
O23 O 0.17324 0.39986 0.11245 0.0
O24 O 0.20627 0.33507 0.06464 0.0
O25 O 0.26033 0.35721 0.08987 0.0
O26 O 0.18738 0.27803 0.13011 0.0
O27 O 0.1552 0.31616 0.11799 0.0
O28 O 0.28549 0.29315 0.15167 0.0
O29 O 0.26301 0.28274 0.10563 0.0
O30 O 0.2518 0.33217 0.18158 0.0
O31 O 0.22482 0.35937 0.15369 0.0
H32 H 0.19746 0.48358 0.04988 0.0
H33 H 0.2004 0.46925 0.14531 0.0
H34 H 0.20152 0.53626 0.15265 0.0
H35 H 0.19925 0.55067 0.05732 0.0
H36 H 0.27529 0.22235 0.17611 0.0
H37 H 0.22009 0.20914 0.08872 0.0
H38 H 0.18508 0.13299 0.09304 0.0
H39 H 0.2403 0.14534 0.17997 0.0
Gd40 Gd 0.8632 0.208 0.6083 0.0
Gd41 Gd 0.95227 0.25039 0.63472 0.0
C42 C 0.90531 0.3032 0.63308 0.0
C43 C 0.78632 0.18354 0.59204 0.0
C44 C 0.74964 0.1897 0.5964 0.0
C45 C 0.72703 0.18947 0.57115 0.0
C46 C 0.73451 0.19205 0.62485 0.0
C47 C 0.67322 0.19095 0.60241 0.0
C48 C 0.69661 0.19259 0.62781 0.0
C49 C 0.68943 0.19012 0.57406 0.0
C50 C 0.93059 0.23969 0.56939 0.0
C51 C 0.89796 0.14828 0.62277 0.0
C52 C 0.0311 0.2728 0.63307 0.0
C53 C 0.05377 0.24862 0.63218 0.0
C54 C 0.06814 0.23871 0.65833 0.0
C55 C 0.062 0.23588 0.60454 0.0
C56 C 0.10074 0.20637 0.62886 0.0
C57 C 0.08509 0.21519 0.6029 0.0
C58 C 0.0913 0.21779 0.65669 0.0
C59 C 0.90027 0.21897 0.68185 0.0
O60 O 0.87051 0.26673 0.6291 0.0
O61 O 0.9433 0.30704 0.63326 0.0
O62 O 0.81941 0.21313 0.57828 0.0
O63 O 0.79596 0.16581 0.61353 0.0
O64 O 0.89698 0.20308 0.56583 0.0
O65 O 0.92606 0.25579 0.59276 0.0
O66 O 0.93515 0.18296 0.62481 0.0
O67 O 0.86316 0.14946 0.61912 0.0
O68 O 1.01215 0.27299 0.65787 0.0
O69 O 1.00893 0.26939 0.6094 0.0
O70 O 0.94091 0.24107 0.68333 0.0
O71 O 0.88762 0.21544 0.65484 0.0
H72 H 0.73779 0.1874 0.549 0.0
H73 H 0.75139 0.1925 0.64477 0.0
H74 H 0.68543 0.19392 0.64996 0.0
H75 H 0.67224 0.18836 0.55399 0.0
H76 H 0.06204 0.24761 0.68003 0.0
H77 H 0.0514 0.24273 0.58386 0.0
H78 H 0.09201 0.20761 0.58101 0.0
H79 H 0.10211 0.21092 0.67725 0.0
Gd80 Gd 0.6782 0.85283 0.10851 0.0
Gd81 Gd 0.72181 0.93738 0.13379 0.0
C82 C 0.62226 0.89106 0.12922 0.0
C83 C 0.62533 0.7754 0.09302 0.0
C84 C 0.58263 0.73929 0.09886 0.0
C85 C 0.56396 0.70755 0.07722 0.0
C86 C 0.56159 0.73419 0.12612 0.0
C87 C 0.50628 0.6635 0.1112 0.0
C88 C 0.52365 0.69682 0.13213 0.0
C89 C 0.5264 0.67014 0.08327 0.0
C90 C 0.71448 0.91689 0.06685 0.0
C91 C 0.77286 0.88661 0.11985 0.0
C92 C 0.7791 1.01472 0.14459 0.0
C93 C 0.82566 0.03911 0.14163 0.0
C94 C 0.85031 0.0638 0.16562 0.0
C95 C 0.8458 0.04001 0.1146 0.0
C96 C 0.91309 0.09461 0.13434 0.0
C97 C 0.88904 0.06773 0.11096 0.0
C98 C 0.89369 0.09118 0.16208 0.0
C99 C 0.6864 0.8808 0.1777 0.0
O100 O 0.62667 0.85787 0.13005 0.0
O101 O 0.65616 0.92924 0.12706 0.0
O102 O 0.62819 0.80808 0.07936 0.0
O103 O 0.65349 0.78578 0.11404 0.0
O104 O 0.7148 0.88179 0.06521 0.0
O105 O 0.69422 0.91582 0.08982 0.0
O106 O 0.77432 0.92319 0.12269 0.0
O107 O 0.73687 0.8517 0.11633 0.0
O108 O 0.76349 0.98589 0.16527 0.0
O109 O 0.75744 1.00241 0.11995 0.0
O110 O 0.68663 0.91618 0.17625 0.0
O111 O 0.70429 0.87576 0.15475 0.0
H112 H 0.57948 0.7109 0.05596 0.0
H113 H 0.57512 0.75847 0.14309 0.0
H114 H 0.5086 0.69365 0.15354 0.0
H115 H 0.51459 0.6456 0.0665 0.0
H116 H 0.83567 0.06323 0.18678 0.0
H117 H 0.82792 1.02061 0.09585 0.0
H118 H 0.90343 0.06943 0.08946 0.0
H119 H 0.91154 0.11155 0.18045 0.0
Gd120 Gd 0.83968 0.6623 0.60906 0.0
Gd121 Gd 0.81042 0.71523 0.63628 0.0
C122 C 0.74646 0.61642 0.63136 0.0
C123 C 0.85872 0.60615 0.59237 0.0
C124 C 0.85284 0.56355 0.59636 0.0
C125 C 0.85121 0.54072 0.57079 0.0
C126 C 0.85467 0.54779 0.62456 0.0
C127 C 0.85964 0.49032 0.60102 0.0
C128 C 0.85793 0.51143 0.62686 0.0
C129 C 0.85436 0.50446 0.57305 0.0
C130 C 0.80635 0.69673 0.57025 0.0
C131 C 0.91149 0.75512 0.62051 0.0
C132 C 0.80016 0.77955 0.63488 0.0
C133 C 0.81995 0.82525 0.64016 0.0
C134 C 0.8081 0.8407 0.66472 0.0
C135 C 0.84559 0.85359 0.61775 0.0
C136 C 0.84259 0.91051 0.64253 0.0
C137 C 0.85694 0.89585 0.61903 0.0
C138 C 0.81932 0.88309 0.66587 0.0
C139 C 0.82754 0.67731 0.67974 0.0
O140 O 0.78139 0.61491 0.63264 0.0
O141 O 0.74871 0.65353 0.62812 0.0
O142 O 0.82847 0.60982 0.58016 0.0
O143 O 0.87895 0.63422 0.61312 0.0
O144 O 0.84045 0.69562 0.56455 0.0
O145 O 0.79339 0.68023 0.59516 0.0
O146 O 0.88154 0.76031 0.63263 0.0
O147 O 0.9029 0.71895 0.60892 0.0
O148 O 0.78592 0.75264 0.65723 0.0
O149 O 0.81777 0.76914 0.61374 0.0
O150 O 0.79831 0.68745 0.68107 0.0
O151 O 0.84964 0.69093 0.65568 0.0
H152 H 0.8497 0.55217 0.54881 0.0
H153 H 0.85577 0.56469 0.6447 0.0
H154 H 0.86179 0.5015 0.6488 0.0
H155 H 0.85436 0.48847 0.55271 0.0
H156 H 0.78822 0.81963 0.68214 0.0
H157 H 0.85487 0.84281 0.59818 0.0
H158 H 0.87444 0.91635 0.6006 0.0
H159 H 0.80814 0.89407 0.68426 0.0
Gd160 Gd 0.19814 0.83259 0.10869 0.0
Gd161 Gd 0.11504 0.79847 0.13404 0.0
C162 C 0.15221 0.73698 0.1278 0.0
C163 C 0.27433 0.85539 0.09153 0.0
C164 C 0.31136 0.84995 0.09508 0.0
C165 C 0.3388 0.85991 0.07073 0.0
C166 C 0.32311 0.8412 0.12288 0.0
C167 C 0.39178 0.85878 0.10259 0.0
C168 C 0.36302 0.84527 0.12653 0.0
C169 C 0.37866 0.86449 0.07445 0.0
C170 C 0.13395 0.81018 0.06799 0.0
C171 C 0.17426 0.90085 0.12293 0.0
C172 C 0.03758 0.77961 0.14101 0.0
C173 C 1.01329 0.80179 0.14193 0.0
C174 C 0.9874 0.79603 0.16663 0.0
C175 C 1.0122 0.82512 0.11735 0.0
C176 C 0.95529 0.83065 0.1404 0.0
C177 C 0.98338 0.83945 0.11661 0.0
C178 C 0.95852 0.81019 0.16583 0.0
C179 C 0.1711 0.81691 0.17847 0.0
O180 O 0.18839 0.7724 0.12784 0.0
O181 O 0.11646 0.73769 0.1272 0.0
O182 O 0.24088 0.82599 0.07807 0.0
O183 O 0.26538 0.87284 0.11361 0.0
O184 O 0.16893 0.8459 0.06763 0.0
O185 O 0.13453 0.78949 0.09003 0.0
O186 O 0.13568 0.86854 0.12716 0.0
O187 O 0.20563 0.89467 0.11723 0.0
O188 O 0.06253 0.78521 0.16346 0.0
O189 O 0.05372 0.77831 0.11528 0.0
O190 O 0.13399 0.78343 0.17737 0.0
O191 O 0.17775 0.83926 0.15503 0.0
H192 H 0.33039 0.86667 0.04911 0.0
H193 H 0.30243 0.83338 0.14203 0.0
H194 H 0.37237 0.8405 0.14843 0.0
H195 H 0.40003 0.87437 0.05559 0.0
H196 H 0.98789 0.77854 0.18591 0.0
H197 H 0.03204 0.83053 0.09809 0.0
H198 H 0.98113 0.85486 0.09667 0.0
H199 H 0.93706 0.80314 0.18442 0.0
Gd200 Gd 0.38495 0.18932 0.60817 0.0
Gd201 Gd 0.33772 0.10399 0.63409 0.0
C202 C 0.43665 0.14319 0.62627 0.0
C203 C 0.43766 0.26805 0.5959 0.0
C204 C 0.48192 0.30295 0.59858 0.0
C205 C 0.49906 0.33297 0.57565 0.0
C206 C 0.50533 0.30989 0.62492 0.0
C207 C 0.56027 0.37833 0.60633 0.0
C208 C 0.54413 0.34711 0.6287 0.0
C209 C 0.5377 0.37023 0.57947 0.0
C210 C 0.34518 0.12456 0.56753 0.0
C211 C 0.29056 0.15905 0.6219 0.0
C212 C 0.27907 0.0268 0.64298 0.0
C213 C 0.23219 1.00341 0.64213 0.0
C214 C 0.20864 0.98904 0.6687 0.0
C215 C 0.21045 0.99337 0.61478 0.0
C216 C 0.14339 0.95308 0.64033 0.0
C217 C 0.16661 0.96845 0.61388 0.0
C218 C 0.16459 0.96418 0.66781 0.0
C219 C 0.37508 0.1629 0.67727 0.0
O220 O 0.43735 0.17906 0.62262 0.0
O221 O 0.40068 0.10702 0.62897 0.0
O222 O 0.42891 0.23742 0.57715 0.0
O223 O 0.41558 0.25506 0.62048 0.0
O224 O 0.34761 0.16095 0.56486 0.0
O225 O 0.3657 0.1256 0.59023 0.0
O226 O 0.28662 0.12149 0.6258 0.0
O227 O 0.32729 0.19243 0.61676 0.0
O228 O 0.29715 0.05384 0.66469 0.0
O229 O 0.29886 0.0405 0.6175 0.0
O230 O 0.37432 0.12718 0.67647 0.0
O231 O 0.35716 0.16627 0.6539 0.0
H232 H 0.48166 0.32838 0.55515 0.0
H233 H 0.49291 0.28736 0.64304 0.0
H234 H 0.56054 0.35228 0.64973 0.0
H235 H 0.5495 0.39314 0.56157 0.0
H236 H 0.22436 0.99603 0.69013 0.0
H237 H 0.22727 1.00349 0.59393 0.0
H238 H 0.15087 0.96012 0.59242 0.0
H239 H 0.14724 0.95214 0.68847 0.0
Gd240 Gd 0.67265 0.83158 0.41998 0.0
Gd241 Gd 0.72417 0.80108 0.39336 0.0
C242 C 0.62506 0.73779 0.39825 0.0
C243 C 0.61706 0.85141 0.43687 0.0
C244 C 0.57437 0.84462 0.43172 0.0
C245 C 0.55124 0.84557 0.45639 0.0
C246 C 0.55812 0.84161 0.40283 0.0
C247 C 0.49796 0.84394 0.42352 0.0
C248 C 0.52019 0.84147 0.39877 0.0
C249 C 0.51327 0.84506 0.45235 0.0
C250 C 0.7066 0.79821 0.45922 0.0
C251 C 0.7651 0.90306 0.4064 0.0
C252 C 0.78804 0.79005 0.39429 0.0
C253 C 0.83369 0.80977 0.38875 0.0
C254 C 0.84891 0.79739 0.36433 0.0
C255 C 0.86222 0.83581 0.41092 0.0
C256 C 0.91874 0.83192 0.38638 0.0
C257 C 0.90438 0.84689 0.40965 0.0
C258 C 0.89125 0.80832 0.36321 0.0
C259 C 0.6881 0.81914 0.34906 0.0
O260 O 0.62398 0.77298 0.39716 0.0
O261 O 0.66205 0.73965 0.4011 0.0
O262 O 0.6205 0.82102 0.44902 0.0
O263 O 0.64547 0.87169 0.41635 0.0
O264 O 0.70701 0.83325 0.46422 0.0
O265 O 0.68952 0.78477 0.43457 0.0
O266 O 0.77035 0.87222 0.39617 0.0
O267 O 0.7289 0.89532 0.41746 0.0
O268 O 0.76092 0.776 0.37209 0.0
O269 O 0.77796 0.80773 0.41556 0.0
O270 O 0.69585 0.78821 0.34886 0.0
O271 O 0.70112 0.84093 0.37329 0.0
H272 H 0.56331 0.84818 0.47883 0.0
H273 H 0.57531 0.84071 0.38343 0.0
H274 H 0.5086 0.84025 0.37636 0.0
H275 H 0.49655 0.847 0.4717 0.0
H276 H 0.82769 0.77724 0.34708 0.0
H277 H 0.85166 0.84556 0.43037 0.0
H278 H 0.92507 0.86465 0.42792 0.0
H279 H 0.9021 0.79661 0.34507 0.0
Gd280 Gd 0.86286 0.66835 0.91927 0.0
Gd281 Gd 0.9473 0.71421 0.89416 0.0
C282 C 0.9064 0.61547 0.90133 0.0
C283 C 0.78529 0.6151 0.93453 0.0
C284 C 0.75015 0.57113 0.93081 0.0
C285 C 0.72048 0.55282 0.9539 0.0
C286 C 0.74319 0.54875 0.90389 0.0
C287 C 0.67541 0.49245 0.92244 0.0
C288 C 0.70626 0.50964 0.89982 0.0
C289 C 0.6835 0.51408 0.94976 0.0
C290 C 0.92908 0.70406 0.95961 0.0
C291 C 0.89522 0.76337 0.90989 0.0
C292 C 1.02493 0.77112 0.88512 0.0
C293 C 0.04948 0.81761 0.88808 0.0
C294 C 0.07161 0.84252 0.86338 0.0
C295 C 0.0532 0.8374 0.91579 0.0
C296 C 0.1056 0.90482 0.89497 0.0
C297 C 0.08123 0.88052 0.91921 0.0
C298 C 0.0993 0.88584 0.86675 0.0
C299 C 0.88988 0.67826 0.85016 0.0
O300 O 0.87091 0.61605 0.90006 0.0
O301 O 0.94283 0.65129 0.90305 0.0
O302 O 0.81779 0.62165 0.95043 0.0
O303 O 0.79584 0.63987 0.91133 0.0
O304 O 0.89544 0.70711 0.96229 0.0
O305 O 0.92514 0.68331 0.93658 0.0
O306 O 0.93239 0.76585 0.90759 0.0
O307 O 0.86056 0.72677 0.91177 0.0
O308 O 0.99719 0.75569 0.86364 0.0
O309 O 1.01148 0.74949 0.90986 0.0
O310 O 0.92506 0.67807 0.85179 0.0
O311 O 0.88569 0.69626 0.87333 0.0
H312 H 0.72518 0.56932 0.97489 0.0
H313 H 0.76556 0.56208 0.88569 0.0
H314 H 0.70096 0.49377 0.87851 0.0
H315 H 0.66075 0.50139 0.96777 0.0
H316 H 0.06886 0.82815 0.84173 0.0
H317 H 0.03586 0.81936 0.93517 0.0
H318 H 0.08521 0.89462 0.94111 0.0
H319 H 0.11774 0.90396 0.84773 0.0
Gd320 Gd 0.21836 0.85511 0.41861 0.0
Gd321 Gd 0.2589 0.94114 0.39546 0.0
C322 C 0.31611 0.90024 0.40208 0.0
C323 C 0.1919 0.77686 0.432 0.0
C324 C 0.19862 0.74034 0.42975 0.0
C325 C 0.19002 0.71467 0.45497 0.0
C326 C 0.20714 0.72707 0.4024 0.0
C327 C 0.19153 0.66019 0.42482 0.0
C328 C 0.20392 0.68737 0.40003 0.0
C329 C 0.18636 0.67501 0.45253 0.0
C330 C 0.24248 0.91759 0.46104 0.0
C331 C 0.15637 0.88771 0.40617 0.0
C332 C 0.27808 1.0188 0.39137 0.0
C333 C 0.25408 0.04128 0.38969 0.0
C334 C 0.25768 0.06477 0.36411 0.0
C335 C 0.23041 0.04255 0.41415 0.0
C336 C 0.22075 0.09567 0.38907 0.0
C337 C 0.21382 0.06956 0.41379 0.0
C338 C 0.24122 0.09172 0.3638 0.0
C339 C 0.23788 0.88594 0.34996 0.0
O340 O 0.27985 0.86475 0.40172 0.0
O341 O 0.3175 0.93694 0.40283 0.0
O342 O 0.21639 0.80822 0.44947 0.0
O343 O 0.18082 0.78883 0.4079 0.0
O344 O 0.20665 0.88257 0.46119 0.0
O345 O 0.26334 0.91729 0.43883 0.0
O346 O 0.19097 0.92449 0.40236 0.0
O347 O 0.15808 0.8534 0.4109 0.0
O348 O 0.27685 0.99656 0.36814 0.0
O349 O 0.27648 1.00047 0.41667 0.0
O350 O 0.27227 0.92235 0.35134 0.0
O351 O 0.21537 0.87993 0.37329 0.0
H352 H 0.18354 0.72421 0.47631 0.0
H353 H 0.21407 0.74632 0.38258 0.0
H354 H 0.20835 0.67684 0.37842 0.0
H355 H 0.17751 0.65504 0.4721 0.0
H356 H 0.27525 0.06404 0.34488 0.0
H357 H 0.2265 0.02438 0.43415 0.0
H358 H 0.19835 0.07228 0.4336 0.0
H359 H 0.24678 0.11152 0.34445 0.0
Gd360 Gd 0.3845 0.20756 0.92048 0.0
Gd361 Gd 0.33704 0.24808 0.89567 0.0
C362 C 0.43649 0.30549 0.90206 0.0
C363 C 0.43737 0.18408 0.93692 0.0
C364 C 0.47921 0.18856 0.93134 0.0
C365 C 0.50008 0.18233 0.95527 0.0
C366 C 0.49605 0.19342 0.90239 0.0
C367 C 0.55021 0.17954 0.92111 0.0
C368 C 0.53146 0.18905 0.89734 0.0
C369 C 0.53516 0.17772 0.95021 0.0
C370 C 0.34286 0.23001 0.96108 0.0
C371 C 0.29095 0.14511 0.90189 0.0
C372 C 0.27885 0.26758 0.8982 0.0
C373 C 0.23244 0.24334 0.89409 0.0
C374 C 0.21345 0.24079 0.8663 0.0
C375 C 0.20641 0.22324 0.91888 0.0
C376 C 0.14376 0.20274 0.88917 0.0
C377 C 0.16279 0.20306 0.91639 0.0
C378 C 0.16939 0.22056 0.86385 0.0
C379 C 0.36093 0.22217 0.84714 0.0
O380 O 0.43649 0.2696 0.90341 0.0
O381 O 0.40085 0.30645 0.9013 0.0
O382 O 0.43577 0.21549 0.94933 0.0
O383 O 0.40835 0.16461 0.91659 0.0
O384 O 0.34192 0.19427 0.96153 0.0
O385 O 0.36489 0.25082 0.93919 0.0
O386 O 0.2873 0.17894 0.89927 0.0
O387 O 0.32713 0.14769 0.90795 0.0
O388 O 0.30336 0.27622 0.87474 0.0
O389 O 0.2926 0.25661 0.92138 0.0
O390 O 0.34146 0.24332 0.84665 0.0
O391 O 0.36954 0.21682 0.87388 0.0
H392 H 0.48782 0.17869 0.97777 0.0
H393 H 0.48071 0.19855 0.88356 0.0
H394 H 0.54282 0.19091 0.87474 0.0
H395 H 0.5494 0.1708 0.96888 0.0
H396 H 0.23257 0.25548 0.8467 0.0
H397 H 0.21969 0.22402 0.94061 0.0
H398 H 0.14385 0.18891 0.93617 0.0
H399 H 0.15554 0.22071 0.84256 0.0
Gd400 Gd 0.19945 0.37239 0.41916 0.0
Gd401 Gd 0.11378 0.33034 0.39527 0.0
C402 C 0.15993 0.4294 0.40082 0.0
C403 C 0.27817 0.42366 0.43265 0.0
C404 C 0.31353 0.46777 0.42967 0.0
C405 C 0.34426 0.48437 0.45216 0.0
C406 C 0.31948 0.49213 0.40394 0.0
C407 C 0.38806 0.54711 0.42238 0.0
C408 C 0.35627 0.53157 0.40045 0.0
C409 C 0.38115 0.52339 0.44852 0.0
C410 C 0.13592 0.33553 0.46104 0.0
C411 C 0.16348 0.27752 0.40741 0.0
C412 C 0.03571 0.27335 0.38667 0.0
C413 C 1.01194 0.2264 0.38698 0.0
C414 C 0.98664 0.20396 0.36253 0.0
C415 C 1.01312 0.20352 0.41179 0.0
C416 C 0.96129 0.13734 0.38888 0.0
C417 C 0.98818 0.15953 0.41272 0.0
C418 C 0.96139 0.15994 0.36353 0.0
C419 C 0.17139 0.36358 0.3507 0.0
O420 O 0.19352 0.42547 0.40096 0.0
O421 O 0.12174 0.39553 0.40221 0.0
O422 O 0.24691 0.41628 0.45041 0.0
O423 O 0.26579 0.40052 0.40852 0.0
O424 O 0.16927 0.33184 0.46088 0.0
O425 O 0.13779 0.35768 0.43908 0.0
O426 O 0.12711 0.27671 0.40504 0.0
O427 O 0.19889 0.31323 0.41035 0.0
O428 O 0.06244 0.29155 0.36483 0.0
O429 O 0.05015 0.29254 0.41222 0.0
O430 O 0.1372 0.3657 0.3524 0.0
O431 O 0.17418 0.34484 0.37382 0.0
H432 H 0.3404 0.46637 0.47224 0.0
H433 H 0.29634 0.48018 0.3862 0.0
H434 H 0.36066 0.54912 0.38006 0.0
H435 H 0.40467 0.53476 0.46601 0.0
H436 H 0.98558 0.22058 0.34291 0.0
H437 H 0.03259 0.2196 0.43078 0.0
H438 H 0.98865 0.14303 0.4326 0.0
H439 H 0.94134 0.14357 0.34467 0.0
Gd440 Gd 0.84726 0.19106 0.92182 0.0
Gd441 Gd 0.80779 0.10705 0.89381 0.0
C442 C 0.75216 0.15105 0.90082 0.0
C443 C 0.87145 0.269 0.93511 0.0
C444 C 0.86198 0.30331 0.92946 0.0
C445 C 0.86552 0.32999 0.95311 0.0
C446 C 0.85339 0.31242 0.90071 0.0
C447 C 0.85647 0.37688 0.91909 0.0
C448 C 0.8507 0.34876 0.89559 0.0
C449 C 0.86261 0.36609 0.94808 0.0
C450 C 0.81999 0.125 0.96175 0.0
C451 C 0.90992 0.15983 0.91108 0.0
C452 C 0.78947 0.03098 0.87981 0.0
C453 C 0.81067 1.00536 0.88171 0.0
C454 C 0.81754 0.98876 0.85544 0.0
C455 C 0.82208 0.9951 0.90914 0.0
C456 C 0.84062 0.94738 0.88413 0.0
C457 C 0.83679 0.9664 0.91035 0.0
C458 C 0.83248 0.96041 0.8566 0.0
C459 C 0.83133 0.16757 0.85225 0.0
O460 O 0.78946 0.18473 0.90218 0.0
O461 O 0.74858 0.11308 0.90014 0.0
O462 O 0.84507 0.23713 0.95152 0.0
O463 O 0.88697 0.25772 0.913 0.0
O464 O 0.85313 0.16184 0.96552 0.0
O465 O 0.80132 0.12634 0.93857 0.0
O466 O 0.87595 0.12326 0.90436 0.0
O467 O 0.90748 0.19334 0.91703 0.0
O468 O 0.80483 0.06202 0.86075 0.0
O469 O 0.77727 0.04048 0.90454 0.0
O470 O 0.79518 0.13295 0.85279 0.0
O471 O 0.85254 0.16975 0.87549 0.0
H472 H 0.87192 0.32361 0.97551 0.0
H473 H 0.85022 0.29233 0.88198 0.0
H474 H 0.84603 0.35568 0.87291 0.0
H475 H 0.86601 0.38598 0.96697 0.0
H476 H 0.80995 0.9966 0.83391 0.0
H477 H 0.81844 1.008 0.92983 0.0
H478 H 0.843 0.9575 0.93196 0.0
H479 H 0.83627 0.94753 0.83583 0.0
H480 H 0.12168 0.93478 0.12403 0.0
H481 H 0.252 0.96752 0.13158 0.0
H482 H 0.27327 0.04066 0.13852 0.0
H483 H 0.2565 0.09659 0.14138 0.0
H484 H 0.12848 0.06815 0.13071 0.0
H485 H 0.10475 0.99266 0.12651 0.0
C486 C 0.15461 0.95797 0.12729 0.0
C487 C 0.18498 0.94528 0.12716 0.0
C488 C 0.16721 1.00097 0.13096 0.0
C489 C 0.22768 0.97596 0.13128 0.0
C490 C 0.24012 1.01809 0.13543 0.0
C491 C 0.22332 0.07373 0.1386 0.0
C492 C 0.19418 0.08757 0.13686 0.0
C493 C 0.21032 0.03099 0.13524 0.0
C494 C 0.15139 0.05793 0.13241 0.0
C495 C 0.13791 1.01489 0.12989 0.0
H496 H 0.21492 0.12826 0.59305 0.0
H497 H 0.2884 0.207 0.66624 0.0
H498 H 0.23454 0.22562 0.67686 0.0
H499 H 0.16976 0.22457 0.66272 0.0
H500 H 0.09586 0.14681 0.58901 0.0
H501 H 0.14681 0.12371 0.58085 0.0
C502 C 0.21861 0.14895 0.61153 0.0
C503 C 0.25529 0.16607 0.62898 0.0
C504 C 0.18783 0.16044 0.61707 0.0
C505 C 0.26027 0.19343 0.65259 0.0
C506 C 0.22956 0.20418 0.65862 0.0
C507 C 0.1641 0.20181 0.64529 0.0
C508 C 0.12895 0.18794 0.62639 0.0
C509 C 0.19357 0.18853 0.64067 0.0
C510 C 0.12293 0.15887 0.60362 0.0
C511 C 0.152 0.14536 0.59898 0.0
H512 H 0.9861 0.11489 0.16413 0.0
H513 H 0.93655 0.15403 0.09171 0.0
H514 H 1.00587 0.21558 0.08304 0.0
H515 H 0.08053 0.25914 0.09643 0.0
H516 H 0.13217 0.21784 0.16609 0.0
H517 H 0.06253 0.15657 0.1755 0.0
C518 C 0.99073 0.13685 0.14637 0.0
C519 C 0.95635 0.12996 0.12851 0.0
C520 C 0.03106 0.17188 0.14109 0.0
C521 C 0.96267 0.1585 0.10551 0.0
C522 C 1.00224 0.19381 0.10065 0.0
C523 C 0.0765 0.23664 0.11362 0.0
C524 C 0.11136 0.24301 0.13059 0.0
C525 C 0.03664 0.20095 0.11835 0.0
C526 C 0.1058 0.21343 0.1526 0.0
C527 C 0.06597 0.17847 0.15806 0.0
H528 H 0.91454 0.98596 0.63616 0.0
H529 H 0.77962 0.92796 0.64275 0.0
H530 H 0.78458 0.99621 0.63568 0.0
H531 H 0.82712 0.07203 0.62807 0.0
H532 H 0.96259 0.13147 0.62353 0.0
H533 H 0.95766 0.06303 0.62941 0.0
C534 C 0.88643 0.9886 0.63628 0.0
C535 C 0.84685 0.95245 0.64039 0.0
C536 C 0.88959 0.02801 0.63249 0.0
C537 C 0.81043 0.95575 0.64026 0.0
C538 C 0.81324 0.99461 0.63599 0.0
C539 C 0.85564 0.07013 0.62822 0.0
C540 C 0.89515 0.10684 0.62524 0.0
C541 C 0.85264 0.03092 0.63214 0.0
C542 C 0.93173 0.10369 0.62572 0.0
C543 C 0.92897 0.06458 0.62913 0.0
H544 H 0.95239 0.90354 0.13626 0.0
H545 H 0.87523 0.76833 0.13558 0.0
H546 H 0.81224 0.77353 0.12778 0.0
H547 H 0.77903 0.81611 0.1217 0.0
H548 H 0.85445 0.95166 0.12467 0.0
H549 H 0.91806 0.94687 0.13118 0.0
C550 C 0.92167 0.87543 0.13446 0.0
C551 C 0.9181 0.83559 0.13659 0.0
C552 C 0.88538 0.87871 0.13038 0.0
C553 C 0.87838 0.79923 0.13426 0.0
C554 C 0.84247 0.80221 0.12971 0.0
C555 C 0.80935 0.84474 0.12354 0.0
C556 C 0.8119 0.88423 0.12239 0.0
C557 C 0.84557 0.84173 0.12777 0.0
C558 C 0.85154 0.92084 0.12522 0.0
C559 C 0.88796 0.91812 0.12903 0.0
H560 H 0.94485 0.83603 0.64199 0.0
H561 H 0.97961 0.75074 0.60175 0.0
H562 H 0.05343 0.80432 0.60425 0.0
H563 H 0.10887 0.87514 0.6179 0.0
H564 H 0.07673 0.96101 0.65941 0.0
H565 H 1.00141 0.90792 0.65614 0.0
C566 C 0.96857 0.82926 0.63368 0.0
C567 C 0.95633 0.78927 0.62157 0.0
C568 C 1.01157 0.86041 0.63534 0.0
C569 C 0.98771 0.78114 0.61102 0.0
C570 C 1.03016 0.81179 0.61247 0.0
C571 C 0.08524 0.88211 0.62617 0.0
C572 C 0.09794 0.92164 0.63881 0.0
C573 C 0.04245 0.85143 0.62456 0.0
C574 C 0.06739 0.93053 0.64971 0.0
C575 C 1.02446 0.90025 0.64778 0.0
H576 H 0.0793 0.81701 0.40821 0.0
H577 H 0.14046 0.95165 0.39592 0.0
H578 H 0.07229 0.94634 0.38797 0.0
H579 H 0.99487 0.90329 0.38467 0.0
H580 H 0.9345 0.76882 0.39525 0.0
H581 H 1.00274 0.77412 0.40391 0.0
C582 C 0.0778 0.84527 0.40395 0.0
C583 C 0.11495 0.88469 0.40286 0.0
C584 C 0.03861 0.84196 0.39897 0.0
C585 C 0.11233 0.92091 0.39709 0.0
C586 C 0.07337 0.91793 0.39244 0.0
C587 C 0.99703 0.8753 0.38853 0.0
C588 C 0.96032 0.83571 0.38888 0.0
C589 C 0.03633 0.87863 0.39326 0.0
C590 C 0.96282 0.79946 0.39428 0.0
C591 C 1.00166 0.80254 0.39944 0.0
H592 H 0.12238 0.97827 0.86757 0.0
H593 H 0.16944 0.92728 0.93371 0.0
H594 H 0.23148 0.99659 0.94127 0.0
H595 H 0.27306 0.0717 0.92868 0.0
H596 H 0.22408 0.12457 0.8655 0.0
H597 H 0.16235 0.05497 0.85714 0.0
C598 C 0.14621 0.9826 0.8837 0.0
C599 C 0.14145 0.94788 0.90012 0.0
C600 C 0.18153 0.02287 0.88838 0.0
C601 C 0.17235 0.95372 0.92105 0.0
C602 C 0.20791 0.99327 0.92527 0.0
C603 C 0.24884 0.06792 0.91309 0.0
C604 C 0.25318 0.10311 0.8976 0.0
C605 C 0.21295 0.02805 0.909 0.0
C606 C 0.22133 0.09791 0.87776 0.0
C607 C 0.18608 0.05811 0.87291 0.0
H608 H 0.23299 0.27176 0.39874 0.0
H609 H 0.09859 0.1952 0.41069 0.0
H610 H 0.10377 0.13129 0.40645 0.0
H611 H 0.14759 0.09735 0.39935 0.0
H612 H 0.2812 0.17644 0.38508 0.0
H613 H 0.27528 0.2392 0.39036 0.0
C614 C 0.20469 0.24117 0.4006 0.0
C615 C 0.16549 0.2383 0.40529 0.0
C616 C 0.20786 0.20495 0.39766 0.0
C617 C 0.1292 0.19829 0.40719 0.0
C618 C 0.13218 0.16176 0.40477 0.0
C619 C 0.17518 0.12842 0.39735 0.0
C620 C 0.21478 0.13247 0.39164 0.0
C621 C 0.17143 0.16469 0.39999 0.0
C622 C 0.25041 0.17272 0.38909 0.0
C623 C 0.24708 0.20858 0.39223 0.0
H624 H 0.10173 0.22341 0.92824 0.0
H625 H 0.08346 0.1504 0.84851 0.0
H626 H 1.00786 0.12714 0.84923 0.0
H627 H 0.94699 0.12934 0.87261 0.0
H628 H 0.9691 0.20492 0.95171 0.0
H629 H 0.04292 0.22473 0.95148 0.0
C630 C 0.08115 0.20187 0.91122 0.0
C631 C 0.098 0.18817 0.88862 0.0
C632 C 0.03825 0.18886 0.91183 0.0
C633 C 0.07115 0.16135 0.86618 0.0
C634 C 1.02794 0.14792 0.8667 0.0
C635 C 0.96789 0.14922 0.89013 0.0
C636 C 0.95246 0.16504 0.91247 0.0
C637 C 1.01104 0.16145 0.88951 0.0
C638 C 0.98011 0.19195 0.93451 0.0
C639 C 1.02241 0.20353 0.93432 0.0
H640 H 0.87706 0.09801 0.38143 0.0
H641 H 0.97711 0.07391 0.40323 0.0
H642 H 0.92579 0.99866 0.40943 0.0
H643 H 0.85137 0.93954 0.40961 0.0
H644 H 0.75216 0.96686 0.39196 0.0
H645 H 0.80389 0.04053 0.38307 0.0
C646 C 0.88763 0.07617 0.38724 0.0
C647 C 0.93079 0.09137 0.3915 0.0
C648 C 0.85792 0.0334 0.39166 0.0
C649 C 0.94401 0.06289 0.39969 0.0
C650 C 0.91467 1.0199 0.40325 0.0
C651 C 0.84127 0.96173 0.4038 0.0
C652 C 0.79794 0.9477 0.40155 0.0
C653 C 0.87139 1.00473 0.39947 0.0
C654 C 0.78525 0.97685 0.39417 0.0
C655 C 0.81483 1.01903 0.38895 0.0
H656 H 0.84299 0.77628 0.87519 0.0
H657 H 0.93954 0.83651 0.94185 0.0
H658 H 0.93118 0.89887 0.94057 0.0
H659 H 0.89587 0.93631 0.92001 0.0
H660 H 0.80198 0.87552 0.85122 0.0
H661 H 0.81068 0.81431 0.85322 0.0
C662 C 0.86227 0.80316 0.88939 0.0
C663 C 0.89175 0.80187 0.90866 0.0
C664 C 0.85807 0.83915 0.88786 0.0
C665 C 0.91683 0.83697 0.92671 0.0
C666 C 0.91193 0.87254 0.926 0.0
C667 C 0.87732 0.90967 0.90548 0.0
C668 C 0.8484 0.91101 0.88534 0.0
C669 C 0.88261 0.87407 0.9066 0.0
C670 C 0.82498 0.87607 0.86657 0.0
C671 C 0.82963 0.84068 0.86786 0.0
H672 H 0.22002 0.72881 0.11501 0.0
H673 H 0.08739 0.65529 0.13538 0.0
H674 H 0.09085 0.59048 0.13108 0.0
H675 H 0.13183 0.55464 0.12119 0.0
H676 H 0.26326 0.62885 0.09842 0.0
H677 H 0.26017 0.69365 0.1041 0.0
C678 C 0.19176 0.6987 0.11881 0.0
C679 C 0.15346 0.69709 0.12599 0.0
C680 C 0.19391 0.66171 0.11583 0.0
C681 C 0.11726 0.65757 0.13012 0.0
C682 C 0.11927 0.62051 0.12762 0.0
C683 C 0.15973 0.58512 0.11769 0.0
C684 C 0.19787 0.58721 0.10976 0.0
C685 C 0.15742 0.62218 0.12051 0.0
C686 C 0.23375 0.62665 0.10476 0.0
C687 C 0.2319 0.6636 0.10797 0.0
H688 H 0.60875 0.1442 0.64168 0.0
H689 H 0.64302 0.2318 0.5685 0.0
H690 H 0.57286 0.22344 0.56909 0.0
H691 H 0.50144 0.19078 0.58973 0.0
H692 H 0.46508 0.10165 0.6618 0.0
H693 H 0.53639 0.11132 0.66257 0.0
C694 C 0.60105 0.16188 0.62613 0.0
C695 C 0.63136 0.1885 0.60499 0.0
C696 C 0.56014 0.15644 0.62628 0.0
C697 C 0.62043 0.21075 0.58479 0.0
C698 C 0.58024 0.20604 0.58512 0.0
C699 C 0.50906 0.17324 0.60552 0.0
C700 C 0.478 0.14526 0.62557 0.0
C701 C 0.54977 0.17871 0.60555 0.0
C702 C 0.48824 0.12275 0.64583 0.0
C703 C 0.52909 0.12859 0.64639 0.0
H704 H 0.44306 0.60534 0.0749 0.0
H705 H 0.48771 0.62442 0.16593 0.0
H706 H 0.43344 0.55306 0.17851 0.0
H707 H 0.37397 0.48345 0.16359 0.0
H708 H 0.33118 0.46405 0.07245 0.0
H709 H 0.38454 0.5363 0.05988 0.0
C710 C 0.44139 0.59397 0.09746 0.0
C711 C 0.47007 0.62083 0.11928 0.0
C712 C 0.41077 0.55215 0.10447 0.0
C713 C 0.46603 0.60525 0.14858 0.0
C714 C 0.43522 0.56399 0.1558 0.0
C715 C 0.37726 0.49489 0.14088 0.0
C716 C 0.34983 0.46821 0.11872 0.0
C717 C 0.40781 0.53686 0.13388 0.0
C718 C 0.35301 0.48379 0.08961 0.0
C719 C 0.38317 0.52522 0.0825 0.0
H720 H 0.83475 0.42716 0.64258 0.0
H721 H 0.91159 0.47819 0.56364 0.0
H722 H 0.93531 0.4274 0.56796 0.0
H723 H 0.93546 0.36869 0.59456 0.0
H724 H 0.85705 0.316 0.67224 0.0
H725 H 0.83394 0.36777 0.66864 0.0
C726 C 0.85693 0.42743 0.62645 0.0
C727 C 0.87133 0.45681 0.6029 0.0
C728 C 0.87113 0.39839 0.62928 0.0
C729 C 0.89936 0.45578 0.58182 0.0
C730 C 0.91349 0.427 0.58446 0.0
C731 C 0.91452 0.36969 0.61126 0.0
C732 C 0.89952 0.34004 0.63451 0.0
C733 C 0.90012 0.39855 0.60833 0.0
C734 C 0.87032 0.33978 0.65494 0.0
C735 C 0.85664 0.36895 0.6526 0.0
H736 H 0.59033 0.94282 0.11366 0.0
H737 H 0.55303 0.81695 0.14326 0.0
H738 H 0.47972 0.79548 0.1371 0.0
H739 H 0.42448 0.81117 0.12294 0.0
H740 H 0.45972 0.93579 0.09284 0.0
H741 H 0.53426 0.95882 0.10011 0.0
C742 C 0.56615 0.91105 0.11935 0.0
C743 C 0.57782 0.882 0.12915 0.0
C744 C 0.52305 0.89833 0.11571 0.0
C745 C 0.54562 0.8405 0.1358 0.0
C746 C 0.50325 0.82784 0.13224 0.0
C747 C 0.44856 0.84337 0.11814 0.0
C748 C 0.43673 0.87175 0.10737 0.0
C749 C 0.49145 0.85633 0.12213 0.0
C750 C 0.46822 0.91331 0.10096 0.0
C751 C 0.51085 0.92654 0.1052 0.0
H752 H 0.73198 0.53844 0.64495 0.0
H753 H 0.67296 0.60271 0.60534 0.0
H754 H 0.61153 0.53477 0.59213 0.0
H755 H 0.57414 0.45691 0.59262 0.0
H756 H 0.63401 0.3935 0.63238 0.0
H757 H 0.69568 0.46136 0.64453 0.0
C758 C 0.70544 0.5377 0.63379 0.0
C759 C 0.70674 0.57577 0.62679 0.0
C760 C 0.67048 0.49861 0.62609 0.0
C761 C 0.67234 0.57402 0.61182 0.0
C762 C 0.63741 0.53513 0.60394 0.0
C763 C 0.60084 0.4579 0.60368 0.0
C764 C 0.59915 0.41992 0.61173 0.0
C765 C 0.63609 0.49719 0.61102 0.0
C766 C 0.63405 0.42203 0.62628 0.0
C767 C 0.66939 0.46088 0.63322 0.0
H768 H 0.32094 0.83141 0.41675 0.0
H769 H 0.39818 0.96203 0.39198 0.0
H770 H 0.46129 0.95548 0.39544 0.0
H771 H 0.49441 0.9124 0.40588 0.0
H772 H 0.41683 0.78327 0.43317 0.0
H773 H 0.35356 0.78925 0.42819 0.0
C774 C 0.35151 0.85852 0.41182 0.0
C775 C 0.35479 0.89715 0.40369 0.0
C776 C 0.38745 0.85463 0.4143 0.0
C777 C 0.39477 0.93197 0.39808 0.0
C778 C 0.4308 0.92819 0.40006 0.0
C779 C 0.4635 0.88562 0.41046 0.0
C780 C 0.45986 0.84728 0.41945 0.0
C781 C 0.42751 0.88967 0.40812 0.0
C782 C 0.42003 0.81286 0.42594 0.0
C783 C 0.38403 0.81636 0.42316 0.0
H784 H 0.59729 0.48041 0.93372 0.0
H785 H 0.66033 0.41722 0.89871 0.0
H786 H 0.59213 0.3542 0.88872 0.0
H787 H 0.51445 0.31723 0.88973 0.0
H788 H 0.45164 0.38181 0.92279 0.0
H789 H 0.51977 0.44408 0.93361 0.0
C790 C 0.5961 0.45275 0.92405 0.0
C791 C 0.63394 0.45355 0.91704 0.0
C792 C 0.55677 0.41702 0.91772 0.0
C793 C 0.63177 0.41757 0.90417 0.0
C794 C 0.59275 0.38153 0.89846 0.0
C795 C 0.51564 0.34513 0.89894 0.0
C796 C 0.47781 0.34497 0.90504 0.0
C797 C 0.55503 0.381 0.90495 0.0
C798 C 0.48009 0.38129 0.91725 0.0
C799 C 0.5191 0.41681 0.92372 0.0
H800 H 0.23718 0.62691 0.40089 0.0
H801 H 0.11731 0.59211 0.44085 0.0
H802 H 0.09466 0.51751 0.43509 0.0
H803 H 0.10965 0.46131 0.41987 0.0
H804 H 0.23082 0.4976 0.38093 0.0
H805 H 0.25192 0.5713 0.38533 0.0
C806 C 0.20609 0.60292 0.40821 0.0
C807 C 0.17903 0.61503 0.42135 0.0
C808 C 0.19332 0.55993 0.40503 0.0
C809 C 0.13892 0.58357 0.43096 0.0
C810 C 0.12583 0.54084 0.42753 0.0
C811 C 0.14021 0.48533 0.41176 0.0
C812 C 0.16821 0.47348 0.39984 0.0
C813 C 0.15274 0.52846 0.41463 0.0
C814 C 0.20825 0.50538 0.39009 0.0
C815 C 0.22062 0.54787 0.39265 0.0
H816 H 0.66457 0.09617 0.90481 0.0
H817 H 0.75953 0.22805 0.89826 0.0
H818 H 0.70728 0.24817 0.90428 0.0
H819 H 0.6343 0.2303 0.91241 0.0
H820 H 0.53719 0.1003 0.9177 0.0
H821 H 0.58948 0.07806 0.91062 0.0
C822 C 0.67367 0.12915 0.90424 0.0
C823 C 0.7165 0.15999 0.90111 0.0
C824 C 0.64275 0.14137 0.90744 0.0
C825 C 0.72723 0.20285 0.90068 0.0
C826 C 0.69719 0.2149 0.90416 0.0
C827 C 0.62471 0.19714 0.91177 0.0
C828 C 0.58216 0.16692 0.9155 0.0
C829 C 0.65491 0.18464 0.90772 0.0
C830 C 0.57 0.12405 0.91488 0.0
C831 C 0.5999 0.11136 0.91085 0.0
H832 H 0.4671 0.5587 0.42777 0.0
H833 H 0.40127 0.62458 0.40586 0.0
H834 H 0.46854 0.68898 0.39633 0.0
H835 H 0.54584 0.726 0.39311 0.0
H836 H 0.61195 0.65974 0.41363 0.0
H837 H 0.54482 0.59599 0.42445 0.0
C838 C 0.46753 0.58723 0.42101 0.0
C839 C 0.42913 0.58675 0.41745 0.0
C840 C 0.50635 0.62389 0.4149 0.0
C841 C 0.43025 0.62394 0.40849 0.0
C842 C 0.46874 0.66076 0.40305 0.0
C843 C 0.54573 0.69753 0.39961 0.0
C844 C 0.5842 0.69768 0.40204 0.0
C845 C 0.50696 0.66096 0.40582 0.0
C846 C 0.58304 0.66049 0.41098 0.0
C847 C 0.54459 0.62406 0.41741 0.0
H848 H 0.85491 0.54054 0.87393 0.0
H849 H 0.94911 0.59769 0.94257 0.0
H850 H 0.93904 0.52874 0.95609 0.0
H851 H 0.90617 0.45287 0.94683 0.0
H852 H 0.81232 0.39516 0.87765 0.0
H853 H 0.82054 0.46359 0.86538 0.0
C854 C 0.87375 0.53786 0.89146 0.0
C855 C 0.90371 0.57435 0.90661 0.0
C856 C 0.86814 0.49802 0.89885 0.0
C857 C 0.92709 0.57036 0.92982 0.0
C858 C 0.92097 0.53083 0.93776 0.0
C859 C 0.88687 0.45483 0.92936 0.0
C860 C 0.85881 0.41833 0.91314 0.0
C861 C 0.89191 0.49447 0.92224 0.0
C862 C 0.83477 0.42239 0.89028 0.0
C863 C 0.8393 0.46165 0.88328 0.0
H864 H 0.21263 0.42123 0.30609 0.0
H865 H 0.15304 0.28901 0.32673 0.0
H866 H 0.16022 0.27325 0.27474 0.0
H867 H 0.18499 0.29674 0.22366 0.0
H868 H 0.24743 0.42855 0.20201 0.0
H869 H 0.23811 0.44506 0.25384 0.0
C870 C 0.20211 0.38915 0.2992 0.0
C871 C 0.18341 0.35641 0.32047 0.0
C872 C 0.20641 0.38026 0.26898 0.0
C873 C 0.16889 0.31485 0.31111 0.0
C874 C 0.17245 0.30577 0.28126 0.0
C875 C 0.19553 0.32901 0.23013 0.0
C876 C 0.21559 0.36125 0.20878 0.0
C877 C 0.19108 0.33813 0.26002 0.0
C878 C 0.23029 0.40304 0.21765 0.0
C879 C 0.22561 0.41246 0.24745 0.0
H880 H 0.91915 0.18667 0.72812 0.0
H881 H 0.82831 0.2204 0.69924 0.0
H882 H 0.80054 0.21062 0.75065 0.0
H883 H 0.80432 0.19432 0.80462 0.0
H884 H 0.89955 0.16558 0.83205 0.0
H885 H 0.92358 0.17171 0.78053 0.0
C886 C 0.89266 0.1911 0.73294 0.0
C887 C 0.87529 0.20345 0.7098 0.0
C888 C 0.87839 0.18721 0.7625 0.0
C889 C 0.84137 0.2096 0.71641 0.0
C890 C 0.82609 0.20476 0.74594 0.0
C891 C 0.83107 0.19058 0.79928 0.0
C892 C 0.85105 0.18087 0.82234 0.0
C893 C 0.84491 0.19428 0.76931 0.0
C894 C 0.88478 0.17476 0.81504 0.0
C895 C 0.89806 0.17754 0.78546 0.0
H896 H 0.69376 0.91742 0.23167 0.0
H897 H 0.67454 0.80249 0.19103 0.0
H898 H 0.6703 0.77266 0.24087 0.0
H899 H 0.67291 0.77984 0.29555 0.0
H900 H 0.69698 0.89659 0.33602 0.0
H901 H 0.69803 0.92521 0.28632 0.0
C902 C 0.68836 0.88568 0.23359 0.0
C903 C 0.68398 0.86194 0.20754 0.0
C904 C 0.6867 0.8692 0.26222 0.0
C905 C 0.67786 0.82128 0.21061 0.0
C906 C 0.67537 0.80429 0.23911 0.0
C907 C 0.67806 0.8115 0.29364 0.0
C908 C 0.68444 0.83593 0.31966 0.0
C909 C 0.67974 0.82799 0.26501 0.0
C910 C 0.69136 0.87692 0.31656 0.0
C911 C 0.69227 0.89333 0.2881 0.0
H912 H 0.88376 0.7355 0.71814 0.0
H913 H 0.79881 0.60261 0.70729 0.0
H914 H 0.80708 0.59084 0.76009 0.0
H915 H 0.83784 0.61874 0.81006 0.0
H916 H 0.91955 0.75224 0.82135 0.0
H917 H 0.9135 0.76357 0.76815 0.0
C918 C 0.86837 0.70384 0.72718 0.0
C919 C 0.84236 0.66963 0.70849 0.0
C920 C 0.87191 0.69763 0.75795 0.0
C921 C 0.82063 0.62908 0.72087 0.0
C922 C 0.82474 0.62249 0.75122 0.0
C923 C 0.85337 0.65034 0.80092 0.0
C924 C 0.87801 0.68474 0.8198 0.0
C925 C 0.84987 0.65656 0.77012 0.0
C926 C 0.89913 0.72544 0.8075 0.0
C927 C 0.89621 0.73185 0.77696 0.0
H928 H 0.14327 0.78179 0.23357 0.0
H929 H 0.24224 0.89267 0.19073 0.0
H930 H 0.27157 0.92294 0.23978 0.0
H931 H 0.26883 0.91823 0.29479 0.0
H932 H 0.16756 0.80932 0.33782 0.0
H933 H 0.13938 0.77796 0.28872 0.0
C934 C 0.17151 0.81246 0.23485 0.0
C935 C 0.19083 0.83462 0.20821 0.0
C936 C 0.18772 0.83002 0.26323 0.0
C937 C 0.227 0.87462 0.21062 0.0
C938 C 0.24367 0.892 0.23874 0.0
C939 C 0.24071 0.88745 0.29355 0.0
C940 C 0.22066 0.86594 0.32021 0.0
C941 C 0.22431 0.87001 0.2652 0.0
C942 C 0.18383 0.82647 0.31787 0.0
C943 C 0.16772 0.80857 0.28973 0.0
H944 H 0.30843 0.18745 0.80121 0.0
H945 H 0.43527 0.22722 0.82855 0.0
H946 H 0.45228 0.21559 0.77737 0.0
H947 H 0.43046 0.1946 0.72417 0.0
H948 H 0.30348 0.15717 0.69818 0.0
H949 H 0.28693 0.16697 0.74933 0.0
C950 C 0.33966 0.19287 0.79608 0.0
C951 C 0.37034 0.20742 0.81876 0.0
C952 C 0.34922 0.18704 0.76665 0.0
C953 C 0.41077 0.21481 0.81175 0.0
C954 C 0.42058 0.20874 0.78236 0.0
C955 C 0.39953 0.18961 0.7297 0.0
C956 C 0.36864 0.17659 0.70711 0.0
C957 C 0.39014 0.19527 0.75949 0.0
C958 C 0.32828 0.16893 0.71475 0.0
C959 C 0.31861 0.17388 0.74415 0.0
H960 H 0.36111 0.31 0.9764 0.0
H961 H 0.26976 0.17951 0.99153 0.0
H962 H 0.22844 0.20002 0.02322 0.0
H963 H 0.21821 0.25559 0.04749 0.0
H964 H 0.31433 0.38549 0.03713 0.0
H965 H 0.35313 0.36511 1.00287 0.0
C966 C 0.33218 0.28603 0.98667 0.0
C967 C 0.31865 0.2431 0.98138 0.0
C968 C 0.30901 0.29815 1.00566 0.0
C969 C 0.28117 0.21267 0.99519 0.0
C970 C 0.25734 0.22446 1.01327 0.0
C971 C 0.24737 0.27939 0.0374 0.0
C972 C 0.2627 0.32226 0.04436 0.0
C973 C 0.27081 0.26714 0.0187 0.0
C974 C 0.30131 0.35247 0.03178 0.0
C975 C 0.32371 0.34075 1.01228 0.0
H976 H 0.09878 0.36571 0.49914 0.0
H977 H 0.08718 0.25017 0.46673 0.0
H978 H 1.02078 0.20948 0.49446 0.0
H979 H 0.96542 0.20675 0.52913 0.0
H980 H 0.98418 0.32329 0.5663 0.0
H981 H 0.04804 0.36287 0.53683 0.0
C982 C 0.08182 0.3316 0.4983 0.0
C983 C 0.09761 0.31106 0.48032 0.0
C984 C 0.04467 0.30835 0.51559 0.0
C985 C 0.07554 0.2668 0.48006 0.0
C986 C 0.0375 0.24351 0.49602 0.0
C987 C 0.98324 0.2408 0.53048 0.0
C988 C 0.96897 0.26184 0.5496 0.0
C989 C 1.02146 0.26385 0.51392 0.0
C990 C 0.99357 0.30604 0.55155 0.0
C991 C 0.03042 0.3289 0.53468 0.0
H992 H 0.73323 0.99987 0.07149 0.0
H993 H 0.73056 0.91056 1.00799 0.0
H994 H 0.75964 0.96566 0.96975 0.0
H995 H 0.79115 0.04079 0.95558 0.0
H996 H 0.80669 0.13243 0.02132 0.0
H997 H 0.77179 0.07626 0.05869 0.0
C998 C 0.74099 0.99269 0.04994 0.0
C999 C 0.73128 0.95102 0.04343 0.0
C1000 C 0.76105 0.02549 0.02863 0.0
C1001 C 0.73846 0.94223 0.01412 0.0
C1002 C 0.75529 0.97391 0.99219 0.0
C1003 C 0.7863 0.04838 0.97776 0.0
C1004 C 0.80059 0.09084 0.98505 0.0
C1005 C 0.76747 1.01586 0.99931 0.0
C1006 C 0.79572 0.10017 0.01475 0.0
C1007 C 0.77553 0.0679 0.03613 0.0
H1008 H 0.80541 0.70911 0.50884 0.0
H1009 H 0.75202 0.72093 0.59114 0.0
H1010 H 0.72799 0.76438 0.56705 0.0
H1011 H 0.71903 0.79729 0.52068 0.0
H1012 H 0.7296 0.74288 0.43853 0.0
H1013 H 0.77279 0.7185 0.46253 0.0
C1014 C 0.78905 0.72171 0.52153 0.0
C1015 C 0.78613 0.71698 0.55282 0.0
C1016 C 0.76774 0.73971 0.50654 0.0
C1017 C 0.76026 0.72922 0.56799 0.0
C1018 C 0.74507 0.753 0.55394 0.0
C1019 C 0.73133 0.78066 0.50801 0.0
C1020 C 0.72658 0.77776 0.47672 0.0
C1021 C 0.7489 0.75894 0.52301 0.0
C1022 C 0.73822 0.75136 0.46161 0.0
C1023 C 0.76175 0.73589 0.47563 0.0
H1024 H 0.96586 0.77315 0.99904 0.0
H1025 H 0.97931 0.67082 0.96463 0.0
H1026 H 0.04247 0.69366 0.99429 0.0
H1027 H 0.09448 0.74195 0.03104 0.0
H1028 H 0.08808 0.84967 0.06133 0.0
H1029 H 1.02228 0.82555 0.03332 0.0
C1030 C 0.98234 0.75562 0.99836 0.0
C1031 C 0.96673 0.71945 0.97994 0.0
C1032 C 1.02033 0.76998 0.01501 0.0
C1033 C 0.98971 0.69819 0.97881 0.0
C1034 C 1.02619 0.71134 0.9958 0.0
C1035 C 0.07885 0.76033 0.0313 0.0
C1036 C 0.09614 0.79748 0.04852 0.0
C1037 C 0.04187 0.74708 0.01409 0.0
C1038 C 0.07556 0.82102 0.04829 0.0
C1039 C 0.03777 0.8071 0.03226 0.0
H1040 H 0.3188 0.99226 0.46504 0.0
H1041 H 0.19649 0.92426 0.50651 0.0
H1042 H 0.21609 0.98227 0.54154 0.0
H1043 H 0.2684 0.05356 0.56091 0.0
H1044 H 0.39122 0.12047 0.52095 0.0
H1045 H 0.37106 0.06329 0.4846 0.0
C1046 C 0.29637 0.99015 0.4817 0.0
C1047 C 0.25589 0.95356 0.4828 0.0
C1048 C 0.30801 0.02406 0.50205 0.0
C1049 C 0.22768 0.95168 0.50488 0.0
C1050 C 0.23894 0.98508 0.52503 0.0
C1051 C 0.29065 0.05527 0.54435 0.0
C1052 C 0.33124 0.09128 0.54376 0.0
C1053 C 0.27898 0.02153 0.5239 0.0
C1054 C 0.3597 0.09342 0.52183 0.0
C1055 C 0.34819 0.06047 0.50112 0.0
loop_
_geom_bond_atom_site_label_1
_geom_bond_atom_site_label_2
_geom_bond_distance
_geom_bond_site_symmetry_2
_ccdc_geom_bond_type
Gd0 C3 2.818 . S
Gd0 O20 2.377 . S
Gd0 O22 2.448 . S
Gd0 O23 2.506 . S
Gd0 O24 2.435 . S
Gd0 O25 2.717 . S
Gd0 O27 2.395 . S
Gd0 O31 2.327 . S
Gd1 C12 2.818 . S
Gd1 O21 2.395 . S
Gd1 O25 2.327 . S
Gd1 O26 2.377 . S
Gd1 O28 2.448 . S
Gd1 O29 2.506 . S
Gd1 O30 2.435 . S
Gd1 O31 2.717 . S
C2 O20 1.240 . S
C2 O21 1.240 . S
C3 Gd0 2.818 . S
C3 C4 1.510 . S
C3 O22 1.249 . S
C3 O23 1.252 . S
C4 C3 1.510 . S
C4 C5 1.404 . S
C4 C6 1.352 . S
C5 C4 1.404 . S
C5 C9 1.389 . S
C5 H32 0.930 . S
C6 C4 1.352 . S
C6 C8 1.374 . S
C6 H33 0.931 . S
C7 C8 1.359 . S
C7 C9 1.364 . S
C8 C6 1.374 . S
C8 C7 1.359 . S
C8 H34 0.931 . S
C9 C5 1.389 . S
C9 C7 1.364 . S
C9 H35 0.931 . S
C10 O24 1.256 . S
C10 O25 1.257 . S
C11 O26 1.240 . S
C11 O27 1.240 . S
C12 Gd1 2.818 . S
C12 C13 1.510 . S
C12 O28 1.249 . S
C12 O29 1.252 . S
C13 C12 1.510 . S
C13 C14 1.404 . S
C13 C15 1.352 . S
C14 C13 1.404 . S
C14 C18 1.389 . S
C14 H36 0.930 . S
C15 C13 1.352 . S
C15 C17 1.374 . S
C15 H37 0.931 . S
C16 C17 1.359 . S
C16 C18 1.364 . S
C17 C15 1.374 . S
C17 C16 1.359 . S
C17 H38 0.931 . S
C18 C14 1.389 . S
C18 C16 1.364 . S
C18 H39 0.931 . S
C19 O30 1.256 . S
C19 O31 1.257 . S
O20 Gd0 2.377 . S
O20 C2 1.240 . S
O21 Gd1 2.395 . S
O21 C2 1.240 . S
O22 Gd0 2.448 . S
O22 C3 1.249 . S
O23 Gd0 2.506 . S
O23 C3 1.252 . S
O24 Gd0 2.435 . S
O24 C10 1.256 . S
O25 Gd0 2.717 . S
O25 Gd1 2.327 . S
O25 C10 1.257 . S
O26 Gd1 2.377 . S
O26 C11 1.240 . S
O27 Gd0 2.395 . S
O27 C11 1.240 . S
O28 Gd1 2.448 . S
O28 C12 1.249 . S
O29 Gd1 2.506 . S
O29 C12 1.252 . S
O30 Gd1 2.435 . S
O30 C19 1.256 . S
O31 Gd0 2.327 . S
O31 Gd1 2.717 . S
O31 C19 1.257 . S
H32 C5 0.930 . S
H33 C6 0.931 . S
H34 C8 0.931 . S
H35 C9 0.931 . S
H36 C14 0.930 . S
H37 C15 0.931 . S
H38 C17 0.931 . S
H39 C18 0.931 . S
Gd40 C43 2.818 . S
Gd40 O60 2.377 . S
Gd40 O62 2.448 . S
Gd40 O63 2.506 . S
Gd40 O64 2.435 . S
Gd40 O65 2.717 . S
Gd40 O67 2.395 . S
Gd40 O71 2.327 . S
Gd41 C52 2.818 . S
Gd41 O61 2.395 . S
Gd41 O65 2.327 . S
Gd41 O66 2.377 . S
Gd41 O68 2.448 . S
Gd41 O69 2.506 . S
Gd41 O70 2.435 . S
Gd41 O71 2.717 . S
C42 O60 1.240 . S
C42 O61 1.240 . S
C43 Gd40 2.818 . S
C43 C44 1.510 . S
C43 O62 1.249 . S
C43 O63 1.252 . S
C44 C43 1.510 . S
C44 C45 1.404 . S
C44 C46 1.352 . S
C45 C44 1.404 . S
C45 C49 1.389 . S
C45 H72 0.930 . S
C46 C44 1.352 . S
C46 C48 1.374 . S
C46 H73 0.931 . S
C47 C48 1.359 . S
C47 C49 1.364 . S
C48 C46 1.374 . S
C48 C47 1.359 . S
C48 H74 0.931 . S
C49 C45 1.389 . S
C49 C47 1.364 . S
C49 H75 0.931 . S
C50 O64 1.256 . S
C50 O65 1.257 . S
C51 O66 1.240 . S
C51 O67 1.240 . S
C52 Gd41 2.818 . S
C52 C53 1.510 1_655 S
C52 O68 1.249 . S
C52 O69 1.252 . S
C53 C52 1.510 1_455 S
C53 C54 1.404 . S
C53 C55 1.352 . S
C54 C53 1.404 . S
C54 C58 1.389 . S
C54 H76 0.930 . S
C55 C53 1.352 . S
C55 C57 1.374 . S
C55 H77 0.931 . S
C56 C57 1.359 . S
C56 C58 1.364 . S
C57 C55 1.374 . S
C57 C56 1.359 . S
C57 H78 0.931 . S
C58 C54 1.389 . S
C58 C56 1.364 . S
C58 H79 0.931 . S
C59 O70 1.256 . S
C59 O71 1.257 . S
O60 Gd40 2.377 . S
O60 C42 1.240 . S
O61 Gd41 2.395 . S
O61 C42 1.240 . S
O62 Gd40 2.448 . S
O62 C43 1.249 . S
O63 Gd40 2.506 . S
O63 C43 1.252 . S
O64 Gd40 2.435 . S
O64 C50 1.256 . S
O65 Gd40 2.717 . S
O65 Gd41 2.327 . S
O65 C50 1.257 . S
O66 Gd41 2.377 . S
O66 C51 1.240 . S
O67 Gd40 2.395 . S
O67 C51 1.240 . S
O68 Gd41 2.448 . S
O68 C52 1.249 . S
O69 Gd41 2.506 . S
O69 C52 1.252 . S
O70 Gd41 2.435 . S
O70 C59 1.256 . S
O71 Gd40 2.327 . S
O71 Gd41 2.717 . S
O71 C59 1.257 . S
H72 C45 0.930 . S
H73 C46 0.931 . S
H74 C48 0.931 . S
H75 C49 0.931 . S
H76 C54 0.930 . S
H77 C55 0.931 . S
H78 C57 0.931 . S
H79 C58 0.931 . S
Gd80 C83 2.818 . S
Gd80 O100 2.377 . S
Gd80 O102 2.448 . S
Gd80 O103 2.506 . S
Gd80 O104 2.435 . S
Gd80 O105 2.717 . S
Gd80 O107 2.395 . S
Gd80 O111 2.327 . S
Gd81 C92 2.818 . S
Gd81 O101 2.395 . S
Gd81 O105 2.327 . S
Gd81 O106 2.377 . S
Gd81 O108 2.448 . S
Gd81 O109 2.506 . S
Gd81 O110 2.435 . S
Gd81 O111 2.717 . S
C82 O100 1.240 . S
C82 O101 1.240 . S
C83 Gd80 2.818 . S
C83 C84 1.510 . S
C83 O102 1.249 . S
C83 O103 1.252 . S
C84 C83 1.510 . S
C84 C85 1.404 . S
C84 C86 1.352 . S
C85 C84 1.404 . S
C85 C89 1.389 . S
C85 H112 0.930 . S
C86 C84 1.352 . S
C86 C88 1.374 . S
C86 H113 0.931 . S
C87 C88 1.359 . S
C87 C89 1.364 . S
C88 C86 1.374 . S
C88 C87 1.359 . S
C88 H114 0.931 . S
C89 C85 1.389 . S
C89 C87 1.364 . S
C89 H115 0.931 . S
C90 O104 1.256 . S
C90 O105 1.257 . S
C91 O106 1.240 . S
C91 O107 1.240 . S
C92 Gd81 2.818 . S
C92 C93 1.510 1_565 S
C92 O108 1.249 . S
C92 O109 1.252 . S
C93 C92 1.510 1_545 S
C93 C94 1.404 . S
C93 C95 1.352 . S
C94 C93 1.404 . S
C94 C98 1.389 . S
C94 H116 0.930 . S
C95 C93 1.352 . S
C95 C97 1.374 . S
C95 H117 0.931 . S
C96 C97 1.359 . S
C96 C98 1.364 . S
C97 C95 1.374 . S
C97 C96 1.359 . S
C97 H118 0.931 . S
C98 C94 1.389 . S
C98 C96 1.364 . S
C98 H119 0.931 . S
C99 O110 1.256 . S
C99 O111 1.257 . S
O100 Gd80 2.377 . S
O100 C82 1.240 . S
O101 Gd81 2.395 . S
O101 C82 1.240 . S
O102 Gd80 2.448 . S
O102 C83 1.249 . S
O103 Gd80 2.506 . S
O103 C83 1.252 . S
O104 Gd80 2.435 . S
O104 C90 1.256 . S
O105 Gd80 2.717 . S
O105 Gd81 2.327 . S
O105 C90 1.257 . S
O106 Gd81 2.377 . S
O106 C91 1.240 . S
O107 Gd80 2.395 . S
O107 C91 1.240 . S
O108 Gd81 2.448 . S
O108 C92 1.249 . S
O109 Gd81 2.506 . S
O109 C92 1.252 . S
O110 Gd81 2.435 . S
O110 C99 1.256 . S
O111 Gd80 2.327 . S
O111 Gd81 2.717 . S
O111 C99 1.257 . S
H112 C85 0.930 . S
H113 C86 0.931 . S
H114 C88 0.931 . S
H115 C89 0.931 . S
H116 C94 0.930 . S
H117 C95 0.931 . S
H118 C97 0.931 . S
H119 C98 0.931 . S
Gd120 C123 2.818 . S
Gd120 O140 2.377 . S
Gd120 O142 2.448 . S
Gd120 O143 2.506 . S
Gd120 O144 2.435 . S
Gd120 O145 2.717 . S
Gd120 O147 2.395 . S
Gd120 O151 2.327 . S
Gd121 C132 2.818 . S
Gd121 O141 2.395 . S
Gd121 O145 2.327 . S
Gd121 O146 2.377 . S
Gd121 O148 2.448 . S
Gd121 O149 2.506 . S
Gd121 O150 2.435 . S
Gd121 O151 2.717 . S
C122 O140 1.240 . S
C122 O141 1.240 . S
C123 Gd120 2.818 . S
C123 C124 1.510 . S
C123 O142 1.249 . S
C123 O143 1.252 . S
C124 C123 1.510 . S
C124 C125 1.404 . S
C124 C126 1.352 . S
C125 C124 1.404 . S
C125 C129 1.389 . S
C125 H152 0.930 . S
C126 C124 1.352 . S
C126 C128 1.374 . S
C126 H153 0.931 . S
C127 C128 1.359 . S
C127 C129 1.364 . S
C128 C126 1.374 . S
C128 C127 1.359 . S
C128 H154 0.931 . S
C129 C125 1.389 . S
C129 C127 1.364 . S
C129 H155 0.931 . S
C130 O144 1.256 . S
C130 O145 1.257 . S
C131 O146 1.240 . S
C131 O147 1.240 . S
C132 Gd121 2.818 . S
C132 C133 1.510 . S
C132 O148 1.249 . S
C132 O149 1.252 . S
C133 C132 1.510 . S
C133 C134 1.404 . S
C133 C135 1.352 . S
C134 C133 1.404 . S
C134 C138 1.389 . S
C134 H156 0.930 . S
C135 C133 1.352 . S
C135 C137 1.374 . S
C135 H157 0.931 . S
C136 C137 1.359 . S
C136 C138 1.364 . S
C137 C135 1.374 . S
C137 C136 1.359 . S
C137 H158 0.931 . S
C138 C134 1.389 . S
C138 C136 1.364 . S
C138 H159 0.931 . S
C139 O150 1.256 . S
C139 O151 1.257 . S
O140 Gd120 2.377 . S
O140 C122 1.240 . S
O141 Gd121 2.395 . S
O141 C122 1.240 . S
O142 Gd120 2.448 . S
O142 C123 1.249 . S
O143 Gd120 2.506 . S
O143 C123 1.252 . S
O144 Gd120 2.435 . S
O144 C130 1.256 . S
O145 Gd120 2.717 . S
O145 Gd121 2.327 . S
O145 C130 1.257 . S
O146 Gd121 2.377 . S
O146 C131 1.240 . S
O147 Gd120 2.395 . S
O147 C131 1.240 . S
O148 Gd121 2.448 . S
O148 C132 1.249 . S
O149 Gd121 2.506 . S
O149 C132 1.252 . S
O150 Gd121 2.435 . S
O150 C139 1.256 . S
O151 Gd120 2.327 . S
O151 Gd121 2.717 . S
O151 C139 1.257 . S
H152 C125 0.930 . S
H153 C126 0.931 . S
H154 C128 0.931 . S
H155 C129 0.931 . S
H156 C134 0.930 . S
H157 C135 0.931 . S
H158 C137 0.931 . S
H159 C138 0.931 . S
Gd160 C163 2.818 . S
Gd160 O180 2.377 . S
Gd160 O182 2.448 . S
Gd160 O183 2.506 . S
Gd160 O184 2.435 . S
Gd160 O185 2.717 . S
Gd160 O187 2.395 . S
Gd160 O191 2.327 . S
Gd161 C172 2.818 . S
Gd161 O181 2.395 . S
Gd161 O185 2.327 . S
Gd161 O186 2.377 . S
Gd161 O188 2.448 . S
Gd161 O189 2.506 . S
Gd161 O190 2.435 . S
Gd161 O191 2.717 . S
C162 O180 1.240 . S
C162 O181 1.240 . S
C163 Gd160 2.818 . S
C163 C164 1.510 . S
C163 O182 1.249 . S
C163 O183 1.252 . S
C164 C163 1.510 . S
C164 C165 1.404 . S
C164 C166 1.352 . S
C165 C164 1.404 . S
C165 C169 1.389 . S
C165 H192 0.930 . S
C166 C164 1.352 . S
C166 C168 1.374 . S
C166 H193 0.931 . S
C167 C168 1.359 . S
C167 C169 1.364 . S
C168 C166 1.374 . S
C168 C167 1.359 . S
C168 H194 0.931 . S
C169 C165 1.389 . S
C169 C167 1.364 . S
C169 H195 0.931 . S
C170 O184 1.256 . S
C170 O185 1.257 . S
C171 O186 1.240 . S
C171 O187 1.240 . S
C172 Gd161 2.818 . S
C172 C173 1.510 1_455 S
C172 O188 1.249 . S
C172 O189 1.252 . S
C173 C172 1.510 1_655 S
C173 C174 1.404 . S
C173 C175 1.352 . S
C174 C173 1.404 . S
C174 C178 1.389 . S
C174 H196 0.930 . S
C175 C173 1.352 . S
C175 C177 1.374 . S
C175 H197 0.931 . S
C176 C177 1.359 . S
C176 C178 1.364 . S
C177 C175 1.374 . S
C177 C176 1.359 . S
C177 H198 0.931 . S
C178 C174 1.389 . S
C178 C176 1.364 . S
C178 H199 0.931 . S
C179 O190 1.256 . S
C179 O191 1.257 . S
O180 Gd160 2.377 . S
O180 C162 1.240 . S
O181 Gd161 2.395 . S
O181 C162 1.240 . S
O182 Gd160 2.448 . S
O182 C163 1.249 . S
O183 Gd160 2.506 . S
O183 C163 1.252 . S
O184 Gd160 2.435 . S
O184 C170 1.256 . S
O185 Gd160 2.717 . S
O185 Gd161 2.327 . S
O185 C170 1.257 . S
O186 Gd161 2.377 . S
O186 C171 1.240 . S
O187 Gd160 2.395 . S
O187 C171 1.240 . S
O188 Gd161 2.448 . S
O188 C172 1.249 . S
O189 Gd161 2.506 . S
O189 C172 1.252 . S
O190 Gd161 2.435 . S
O190 C179 1.256 . S
O191 Gd160 2.327 . S
O191 Gd161 2.717 . S
O191 C179 1.257 . S
H192 C165 0.930 . S
H193 C166 0.931 . S
H194 C168 0.931 . S
H195 C169 0.931 . S
H196 C174 0.930 . S
H197 C175 0.931 . S
H198 C177 0.931 . S
H199 C178 0.931 . S
Gd200 C203 2.818 . S
Gd200 O220 2.377 . S
Gd200 O222 2.448 . S
Gd200 O223 2.506 . S
Gd200 O224 2.435 . S
Gd200 O225 2.717 . S
Gd200 O227 2.395 . S
Gd200 O231 2.327 . S
Gd201 C212 2.818 . S
Gd201 O221 2.395 . S
Gd201 O225 2.327 . S
Gd201 O226 2.377 . S
Gd201 O228 2.448 . S
Gd201 O229 2.506 . S
Gd201 O230 2.435 . S
Gd201 O231 2.717 . S
C202 O220 1.240 . S
C202 O221 1.240 . S
C203 Gd200 2.818 . S
C203 C204 1.510 . S
C203 O222 1.249 . S
C203 O223 1.252 . S
C204 C203 1.510 . S
C204 C205 1.404 . S
C204 C206 1.352 . S
C205 C204 1.404 . S
C205 C209 1.389 . S
C205 H232 0.930 . S
C206 C204 1.352 . S
C206 C208 1.374 . S
C206 H233 0.931 . S
C207 C208 1.359 . S
C207 C209 1.364 . S
C208 C206 1.374 . S
C208 C207 1.359 . S
C208 H234 0.931 . S
C209 C205 1.389 . S
C209 C207 1.364 . S
C209 H235 0.931 . S
C210 O224 1.256 . S
C210 O225 1.257 . S
C211 O226 1.240 . S
C211 O227 1.240 . S
C212 Gd201 2.818 . S
C212 C213 1.510 1_545 S
C212 O228 1.249 . S
C212 O229 1.252 . S
C213 C212 1.510 1_565 S
C213 C214 1.404 . S
C213 C215 1.352 . S
C214 C213 1.404 . S
C214 C218 1.389 . S
C214 H236 0.930 . S
C215 C213 1.352 . S
C215 C217 1.374 . S
C215 H237 0.931 . S
C216 C217 1.359 . S
C216 C218 1.364 . S
C217 C215 1.374 . S
C217 C216 1.359 . S
C217 H238 0.931 . S
C218 C214 1.389 . S
C218 C216 1.364 . S
C218 H239 0.931 . S
C219 O230 1.256 . S
C219 O231 1.257 . S
O220 Gd200 2.377 . S
O220 C202 1.240 . S
O221 Gd201 2.395 . S
O221 C202 1.240 . S
O222 Gd200 2.448 . S
O222 C203 1.249 . S
O223 Gd200 2.506 . S
O223 C203 1.252 . S
O224 Gd200 2.435 . S
O224 C210 1.256 . S
O225 Gd200 2.717 . S
O225 Gd201 2.327 . S
O225 C210 1.257 . S
O226 Gd201 2.377 . S
O226 C211 1.240 . S
O227 Gd200 2.395 . S
O227 C211 1.240 . S
O228 Gd201 2.448 . S
O228 C212 1.249 . S
O229 Gd201 2.506 . S
O229 C212 1.252 . S
O230 Gd201 2.435 . S
O230 C219 1.256 . S
O231 Gd200 2.327 . S
O231 Gd201 2.717 . S
O231 C219 1.257 . S
H232 C205 0.930 . S
H233 C206 0.931 . S
H234 C208 0.931 . S
H235 C209 0.931 . S
H236 C214 0.930 . S
H237 C215 0.931 . S
H238 C217 0.931 . S
H239 C218 0.931 . S
Gd240 C243 2.818 . S
Gd240 O260 2.377 . S
Gd240 O262 2.448 . S
Gd240 O263 2.506 . S
Gd240 O264 2.435 . S
Gd240 O265 2.717 . S
Gd240 O267 2.395 . S
Gd240 O271 2.327 . S
Gd241 C252 2.818 . S
Gd241 O261 2.395 . S
Gd241 O265 2.327 . S
Gd241 O266 2.377 . S
Gd241 O268 2.448 . S
Gd241 O269 2.506 . S
Gd241 O270 2.435 . S
Gd241 O271 2.717 . S
C242 O260 1.240 . S
C242 O261 1.240 . S
C243 Gd240 2.818 . S
C243 C244 1.510 . S
C243 O262 1.249 . S
C243 O263 1.252 . S
C244 C243 1.510 . S
C244 C245 1.404 . S
C244 C246 1.352 . S
C245 C244 1.404 . S
C245 C249 1.389 . S
C245 H272 0.930 . S
C246 C244 1.352 . S
C246 C248 1.374 . S
C246 H273 0.931 . S
C247 C248 1.359 . S
C247 C249 1.364 . S
C248 C246 1.374 . S
C248 C247 1.359 . S
C248 H274 0.931 . S
C249 C245 1.389 . S
C249 C247 1.364 . S
C249 H275 0.931 . S
C250 O264 1.256 . S
C250 O265 1.257 . S
C251 O266 1.240 . S
C251 O267 1.240 . S
C252 Gd241 2.818 . S
C252 C253 1.510 . S
C252 O268 1.249 . S
C252 O269 1.252 . S
C253 C252 1.510 . S
C253 C254 1.404 . S
C253 C255 1.352 . S
C254 C253 1.404 . S
C254 C258 1.389 . S
C254 H276 0.930 . S
C255 C253 1.352 . S
C255 C257 1.374 . S
C255 H277 0.931 . S
C256 C257 1.359 . S
C256 C258 1.364 . S
C257 C255 1.374 . S
C257 C256 1.359 . S
C257 H278 0.931 . S
C258 C254 1.389 . S
C258 C256 1.364 . S
C258 H279 0.931 . S
C259 O270 1.256 . S
C259 O271 1.257 . S
O260 Gd240 2.377 . S
O260 C242 1.240 . S
O261 Gd241 2.395 . S
O261 C242 1.240 . S
O262 Gd240 2.448 . S
O262 C243 1.249 . S
O263 Gd240 2.506 . S
O263 C243 1.252 . S
O264 Gd240 2.435 . S
O264 C250 1.256 . S
O265 Gd240 2.717 . S
O265 Gd241 2.327 . S
O265 C250 1.257 . S
O266 Gd241 2.377 . S
O266 C251 1.240 . S
O267 Gd240 2.395 . S
O267 C251 1.240 . S
O268 Gd241 2.448 . S
O268 C252 1.249 . S
O269 Gd241 2.506 . S
O269 C252 1.252 . S
O270 Gd241 2.435 . S
O270 C259 1.256 . S
O271 Gd240 2.327 . S
O271 Gd241 2.717 . S
O271 C259 1.257 . S
H272 C245 0.930 . S
H273 C246 0.931 . S
H274 C248 0.931 . S
H275 C249 0.931 . S
H276 C254 0.930 . S
H277 C255 0.931 . S
H278 C257 0.931 . S
H279 C258 0.931 . S
Gd280 C283 2.818 . S
Gd280 O300 2.377 . S
Gd280 O302 2.448 . S
Gd280 O303 2.506 . S
Gd280 O304 2.435 . S
Gd280 O305 2.717 . S
Gd280 O307 2.395 . S
Gd280 O311 2.327 . S
Gd281 C292 2.818 . S
Gd281 O301 2.395 . S
Gd281 O305 2.327 . S
Gd281 O306 2.377 . S
Gd281 O308 2.448 . S
Gd281 O309 2.506 . S
Gd281 O310 2.435 . S
Gd281 O311 2.717 . S
C282 O300 1.240 . S
C282 O301 1.240 . S
C283 Gd280 2.818 . S
C283 C284 1.510 . S
C283 O302 1.249 . S
C283 O303 1.252 . S
C284 C283 1.510 . S
C284 C285 1.404 . S
C284 C286 1.352 . S
C285 C284 1.404 . S
C285 C289 1.389 . S
C285 H312 0.930 . S
C286 C284 1.352 . S
C286 C288 1.374 . S
C286 H313 0.931 . S
C287 C288 1.359 . S
C287 C289 1.364 . S
C288 C286 1.374 . S
C288 C287 1.359 . S
C288 H314 0.931 . S
C289 C285 1.389 . S
C289 C287 1.364 . S
C289 H315 0.931 . S
C290 O304 1.256 . S
C290 O305 1.257 . S
C291 O306 1.240 . S
C291 O307 1.240 . S
C292 Gd281 2.818 . S
C292 C293 1.510 1_655 S
C292 O308 1.249 . S
C292 O309 1.252 . S
C293 C292 1.510 1_455 S
C293 C294 1.404 . S
C293 C295 1.352 . S
C294 C293 1.404 . S
C294 C298 1.389 . S
C294 H316 0.930 . S
C295 C293 1.352 . S
C295 C297 1.374 . S
C295 H317 0.931 . S
C296 C297 1.359 . S
C296 C298 1.364 . S
C297 C295 1.374 . S
C297 C296 1.359 . S
C297 H318 0.931 . S
C298 C294 1.389 . S
C298 C296 1.364 . S
C298 H319 0.931 . S
C299 O310 1.256 . S
C299 O311 1.257 . S
O300 Gd280 2.377 . S
O300 C282 1.240 . S
O301 Gd281 2.395 . S
O301 C282 1.240 . S
O302 Gd280 2.448 . S
O302 C283 1.249 . S
O303 Gd280 2.506 . S
O303 C283 1.252 . S
O304 Gd280 2.435 . S
O304 C290 1.256 . S
O305 Gd280 2.717 . S
O305 Gd281 2.327 . S
O305 C290 1.257 . S
O306 Gd281 2.377 . S
O306 C291 1.240 . S
O307 Gd280 2.395 . S
O307 C291 1.240 . S
O308 Gd281 2.448 . S
O308 C292 1.249 . S
O309 Gd281 2.506 . S
O309 C292 1.252 . S
O310 Gd281 2.435 . S
O310 C299 1.256 . S
O311 Gd280 2.327 . S
O311 Gd281 2.717 . S
O311 C299 1.257 . S
H312 C285 0.930 . S
H313 C286 0.931 . S
H314 C288 0.931 . S
H315 C289 0.931 . S
H316 C294 0.930 . S
H317 C295 0.931 . S
H318 C297 0.931 . S
H319 C298 0.931 . S
Gd320 C323 2.818 . S
Gd320 O340 2.377 . S
Gd320 O342 2.448 . S
Gd320 O343 2.506 . S
Gd320 O344 2.435 . S
Gd320 O345 2.717 . S
Gd320 O347 2.395 . S
Gd320 O351 2.327 . S
Gd321 C332 2.818 . S
Gd321 O341 2.395 . S
Gd321 O345 2.327 . S
Gd321 O346 2.377 . S
Gd321 O348 2.448 . S
Gd321 O349 2.506 . S
Gd321 O350 2.435 . S
Gd321 O351 2.717 . S
C322 O340 1.240 . S
C322 O341 1.240 . S
C323 Gd320 2.818 . S
C323 C324 1.510 . S
C323 O342 1.249 . S
C323 O343 1.252 . S
C324 C323 1.510 . S
C324 C325 1.404 . S
C324 C326 1.352 . S
C325 C324 1.404 . S
C325 C329 1.389 . S
C325 H352 0.930 . S
C326 C324 1.352 . S
C326 C328 1.374 . S
C326 H353 0.931 . S
C327 C328 1.359 . S
C327 C329 1.364 . S
C328 C326 1.374 . S
C328 C327 1.359 . S
C328 H354 0.931 . S
C329 C325 1.389 . S
C329 C327 1.364 . S
C329 H355 0.931 . S
C330 O344 1.256 . S
C330 O345 1.257 . S
C331 O346 1.240 . S
C331 O347 1.240 . S
C332 Gd321 2.818 . S
C332 C333 1.510 1_565 S
C332 O348 1.249 . S
C332 O349 1.252 . S
C333 C332 1.510 1_545 S
C333 C334 1.404 . S
C333 C335 1.352 . S
C334 C333 1.404 . S
C334 C338 1.389 . S
C334 H356 0.930 . S
C335 C333 1.352 . S
C335 C337 1.374 . S
C335 H357 0.931 . S
C336 C337 1.359 . S
C336 C338 1.364 . S
C337 C335 1.374 . S
C337 C336 1.359 . S
C337 H358 0.931 . S
C338 C334 1.389 . S
C338 C336 1.364 . S
C338 H359 0.931 . S
C339 O350 1.256 . S
C339 O351 1.257 . S
O340 Gd320 2.377 . S
O340 C322 1.240 . S
O341 Gd321 2.395 . S
O341 C322 1.240 . S
O342 Gd320 2.448 . S
O342 C323 1.249 . S
O343 Gd320 2.506 . S
O343 C323 1.252 . S
O344 Gd320 2.435 . S
O344 C330 1.256 . S
O345 Gd320 2.717 . S
O345 Gd321 2.327 . S
O345 C330 1.257 . S
O346 Gd321 2.377 . S
O346 C331 1.240 . S
O347 Gd320 2.395 . S
O347 C331 1.240 . S
O348 Gd321 2.448 . S
O348 C332 1.249 . S
O349 Gd321 2.506 . S
O349 C332 1.252 . S
O350 Gd321 2.435 . S
O350 C339 1.256 . S
O351 Gd320 2.327 . S
O351 Gd321 2.717 . S
O351 C339 1.257 . S
H352 C325 0.930 . S
H353 C326 0.931 . S
H354 C328 0.931 . S
H355 C329 0.931 . S
H356 C334 0.930 . S
H357 C335 0.931 . S
H358 C337 0.931 . S
H359 C338 0.931 . S
Gd360 C363 2.818 . S
Gd360 O380 2.377 . S
Gd360 O382 2.448 . S
Gd360 O383 2.506 . S
Gd360 O384 2.435 . S
Gd360 O385 2.717 . S
Gd360 O387 2.395 . S
Gd360 O391 2.327 . S
Gd361 C372 2.818 . S
Gd361 O381 2.395 . S
Gd361 O385 2.327 . S
Gd361 O386 2.377 . S
Gd361 O388 2.448 . S
Gd361 O389 2.506 . S
Gd361 O390 2.435 . S
Gd361 O391 2.717 . S
C362 O380 1.240 . S
C362 O381 1.240 . S
C363 Gd360 2.818 . S
C363 C364 1.510 . S
C363 O382 1.249 . S
C363 O383 1.252 . S
C364 C363 1.510 . S
C364 C365 1.404 . S
C364 C366 1.352 . S
C365 C364 1.404 . S
C365 C369 1.389 . S
C365 H392 0.930 . S
C366 C364 1.352 . S
C366 C368 1.374 . S
C366 H393 0.931 . S
C367 C368 1.359 . S
C367 C369 1.364 . S
C368 C366 1.374 . S
C368 C367 1.359 . S
C368 H394 0.931 . S
C369 C365 1.389 . S
C369 C367 1.364 . S
C369 H395 0.931 . S
C370 O384 1.256 . S
C370 O385 1.257 . S
C371 O386 1.240 . S
C371 O387 1.240 . S
C372 Gd361 2.818 . S
C372 C373 1.510 . S
C372 O388 1.249 . S
C372 O389 1.252 . S
C373 C372 1.510 . S
C373 C374 1.404 . S
C373 C375 1.352 . S
C374 C373 1.404 . S
C374 C378 1.389 . S
C374 H396 0.930 . S
C375 C373 1.352 . S
C375 C377 1.374 . S
C375 H397 0.931 . S
C376 C377 1.359 . S
C376 C378 1.364 . S
C377 C375 1.374 . S
C377 C376 1.359 . S
C377 H398 0.931 . S
C378 C374 1.389 . S
C378 C376 1.364 . S
C378 H399 0.931 . S
C379 O390 1.256 . S
C379 O391 1.257 . S
O380 Gd360 2.377 . S
O380 C362 1.240 . S
O381 Gd361 2.395 . S
O381 C362 1.240 . S
O382 Gd360 2.448 . S
O382 C363 1.249 . S
O383 Gd360 2.506 . S
O383 C363 1.252 . S
O384 Gd360 2.435 . S
O384 C370 1.256 . S
O385 Gd360 2.717 . S
O385 Gd361 2.327 . S
O385 C370 1.257 . S
O386 Gd361 2.377 . S
O386 C371 1.240 . S
O387 Gd360 2.395 . S
O387 C371 1.240 . S
O388 Gd361 2.448 . S
O388 C372 1.249 . S
O389 Gd361 2.506 . S
O389 C372 1.252 . S
O390 Gd361 2.435 . S
O390 C379 1.256 . S
O391 Gd360 2.327 . S
O391 Gd361 2.717 . S
O391 C379 1.257 . S
H392 C365 0.930 . S
H393 C366 0.931 . S
H394 C368 0.931 . S
H395 C369 0.931 . S
H396 C374 0.930 . S
H397 C375 0.931 . S
H398 C377 0.931 . S
H399 C378 0.931 . S
Gd400 C403 2.818 . S
Gd400 O420 2.377 . S
Gd400 O422 2.448 . S
Gd400 O423 2.506 . S
Gd400 O424 2.435 . S
Gd400 O425 2.717 . S
Gd400 O427 2.395 . S
Gd400 O431 2.327 . S
Gd401 C412 2.818 . S
Gd401 O421 2.395 . S
Gd401 O425 2.327 . S
Gd401 O426 2.377 . S
Gd401 O428 2.448 . S
Gd401 O429 2.506 . S
Gd401 O430 2.435 . S
Gd401 O431 2.717 . S
C402 O420 1.240 . S
C402 O421 1.240 . S
C403 Gd400 2.818 . S
C403 C404 1.510 . S
C403 O422 1.249 . S
C403 O423 1.252 . S
C404 C403 1.510 . S
C404 C405 1.404 . S
C404 C406 1.352 . S
C405 C404 1.404 . S
C405 C409 1.389 . S
C405 H432 0.930 . S
C406 C404 1.352 . S
C406 C408 1.374 . S
C406 H433 0.931 . S
C407 C408 1.359 . S
C407 C409 1.364 . S
C408 C406 1.374 . S
C408 C407 1.359 . S
C408 H434 0.931 . S
C409 C405 1.389 . S
C409 C407 1.364 . S
C409 H435 0.931 . S
C410 O424 1.256 . S
C410 O425 1.257 . S
C411 O426 1.240 . S
C411 O427 1.240 . S
C412 Gd401 2.818 . S
C412 C413 1.510 1_455 S
C412 O428 1.249 . S
C412 O429 1.252 . S
C413 C412 1.510 1_655 S
C413 C414 1.404 . S
C413 C415 1.352 . S
C414 C413 1.404 . S
C414 C418 1.389 . S
C414 H436 0.930 . S
C415 C413 1.352 . S
C415 C417 1.374 . S
C415 H437 0.931 . S
C416 C417 1.359 . S
C416 C418 1.364 . S
C417 C415 1.374 . S
C417 C416 1.359 . S
C417 H438 0.931 . S
C418 C414 1.389 . S
C418 C416 1.364 . S
C418 H439 0.931 . S
C419 O430 1.256 . S
C419 O431 1.257 . S
O420 Gd400 2.377 . S
O420 C402 1.240 . S
O421 Gd401 2.395 . S
O421 C402 1.240 . S
O422 Gd400 2.448 . S
O422 C403 1.249 . S
O423 Gd400 2.506 . S
O423 C403 1.252 . S
O424 Gd400 2.435 . S
O424 C410 1.256 . S
O425 Gd400 2.717 . S
O425 Gd401 2.327 . S
O425 C410 1.257 . S
O426 Gd401 2.377 . S
O426 C411 1.240 . S
O427 Gd400 2.395 . S
O427 C411 1.240 . S
O428 Gd401 2.448 . S
O428 C412 1.249 . S
O429 Gd401 2.506 . S
O429 C412 1.252 . S
O430 Gd401 2.435 . S
O430 C419 1.256 . S
O431 Gd400 2.327 . S
O431 Gd401 2.717 . S
O431 C419 1.257 . S
H432 C405 0.930 . S
H433 C406 0.931 . S
H434 C408 0.931 . S
H435 C409 0.931 . S
H436 C414 0.930 . S
H437 C415 0.931 . S
H438 C417 0.931 . S
H439 C418 0.931 . S
Gd440 C443 2.818 . S
Gd440 O460 2.377 . S
Gd440 O462 2.448 . S
Gd440 O463 2.506 . S
Gd440 O464 2.435 . S
Gd440 O465 2.717 . S
Gd440 O467 2.395 . S
Gd440 O471 2.327 . S
Gd441 C452 2.818 . S
Gd441 O461 2.395 . S
Gd441 O465 2.327 . S
Gd441 O466 2.377 . S
Gd441 O468 2.448 . S
Gd441 O469 2.506 . S
Gd441 O470 2.435 . S
Gd441 O471 2.717 . S
C442 O460 1.240 . S
C442 O461 1.240 . S
C443 Gd440 2.818 . S
C443 C444 1.510 . S
C443 O462 1.249 . S
C443 O463 1.252 . S
C444 C443 1.510 . S
C444 C445 1.404 . S
C444 C446 1.352 . S
C445 C444 1.404 . S
C445 C449 1.389 . S
C445 H472 0.930 . S
C446 C444 1.352 . S
C446 C448 1.374 . S
C446 H473 0.931 . S
C447 C448 1.359 . S
C447 C449 1.364 . S
C448 C446 1.374 . S
C448 C447 1.359 . S
C448 H474 0.931 . S
C449 C445 1.389 . S
C449 C447 1.364 . S
C449 H475 0.931 . S
C450 O464 1.256 . S
C450 O465 1.257 . S
C451 O466 1.240 . S
C451 O467 1.240 . S
C452 Gd441 2.818 . S
C452 C453 1.510 1_545 S
C452 O468 1.249 . S
C452 O469 1.252 . S
C453 C452 1.510 1_565 S
C453 C454 1.404 . S
C453 C455 1.352 . S
C454 C453 1.404 . S
C454 C458 1.389 . S
C454 H476 0.930 . S
C455 C453 1.352 . S
C455 C457 1.374 . S
C455 H477 0.931 . S
C456 C457 1.359 . S
C456 C458 1.364 . S
C457 C455 1.374 . S
C457 C456 1.359 . S
C457 H478 0.931 . S
C458 C454 1.389 . S
C458 C456 1.364 . S
C458 H479 0.931 . S
C459 O470 1.256 . S
C459 O471 1.257 . S
O460 Gd440 2.377 . S
O460 C442 1.240 . S
O461 Gd441 2.395 . S
O461 C442 1.240 . S
O462 Gd440 2.448 . S
O462 C443 1.249 . S
O463 Gd440 2.506 . S
O463 C443 1.252 . S
O464 Gd440 2.435 . S
O464 C450 1.256 . S
O465 Gd440 2.717 . S
O465 Gd441 2.327 . S
O465 C450 1.257 . S
O466 Gd441 2.377 . S
O466 C451 1.240 . S
O467 Gd440 2.395 . S
O467 C451 1.240 . S
O468 Gd441 2.448 . S
O468 C452 1.249 . S
O469 Gd441 2.506 . S
O469 C452 1.252 . S
O470 Gd441 2.435 . S
O470 C459 1.256 . S
O471 Gd440 2.327 . S
O471 Gd441 2.717 . S
O471 C459 1.257 . S
H472 C445 0.930 . S
H473 C446 0.931 . S
H474 C448 0.931 . S
H475 C449 0.931 . S
H476 C454 0.930 . S
H477 C455 0.931 . S
H478 C457 0.931 . S
H479 C458 0.931 . S
H480 C486 0.930 . S
H481 C489 0.930 . S
H482 C490 0.933 . S
H483 C491 0.930 . S
H484 C494 0.930 . S
H485 C495 0.930 . S
C486 H480 0.930 . S
C486 C487 1.355 . S
C486 C488 1.415 . S
C487 C486 1.355 . S
C487 C489 1.419 . S
C488 C486 1.415 . S
C488 C493 1.426 . S
C488 C495 1.409 . S
C489 H481 0.930 . S
C489 C487 1.419 . S
C489 C490 1.362 . S
C490 H482 0.933 . S
C490 C489 1.362 . S
C490 C493 1.414 . S
C491 H483 0.930 . S
C491 C492 1.355 . S
C491 C493 1.410 1_545 S
C492 C491 1.355 . S
C492 C494 1.419 . S
C493 C488 1.426 . S
C493 C490 1.414 . S
C493 C491 1.410 1_565 S
C494 H484 0.930 . S
C494 C492 1.419 . S
C494 C495 1.362 1_545 S
C495 H485 0.930 . S
C495 C488 1.409 . S
C495 C494 1.362 1_565 S
H496 C502 0.930 . S
H497 C505 0.930 . S
H498 C506 0.930 . S
H499 C507 0.930 . S
H500 C510 0.930 . S
H501 C511 0.930 . S
C502 H496 0.930 . S
C502 C503 1.355 . S
C502 C504 1.415 . S
C503 C502 1.355 . S
C503 C505 1.419 . S
C504 C502 1.415 . S
C504 C509 1.425 . S
C504 C511 1.409 . S
C505 H497 0.930 . S
C505 C503 1.419 . S
C505 C506 1.362 . S
C506 H498 0.930 . S
C506 C505 1.362 . S
C506 C509 1.409 . S
C507 H499 0.930 . S
C507 C508 1.355 . S
C507 C509 1.415 . S
C508 C507 1.355 . S
C508 C510 1.419 . S
C509 C504 1.425 . S
C509 C506 1.409 . S
C509 C507 1.415 . S
C510 H500 0.930 . S
C510 C508 1.419 . S
C510 C511 1.362 . S
C511 H501 0.930 . S
C511 C504 1.409 . S
C511 C510 1.362 . S
H512 C518 0.930 . S
H513 C521 0.930 . S
H514 C522 0.930 . S
H515 C523 0.930 . S
H516 C526 0.930 . S
H517 C527 0.930 . S
C518 H512 0.930 . S
C518 C519 1.355 . S
C518 C520 1.415 1_655 S
C519 C518 1.355 . S
C519 C521 1.419 . S
C520 C518 1.415 1_455 S
C520 C525 1.425 . S
C520 C527 1.409 . S
C521 H513 0.930 . S
C521 C519 1.419 . S
C521 C522 1.362 . S
C522 H514 0.930 . S
C522 C521 1.362 . S
C522 C525 1.409 1_655 S
C523 H515 0.930 . S
C523 C524 1.355 . S
C523 C525 1.415 . S
C524 C523 1.355 . S
C524 C526 1.419 . S
C525 C520 1.425 . S
C525 C522 1.409 1_455 S
C525 C523 1.415 . S
C526 H516 0.930 . S
C526 C524 1.419 . S
C526 C527 1.362 . S
C527 H517 0.930 . S
C527 C520 1.409 . S
C527 C526 1.362 . S
H528 C534 0.930 . S
H529 C537 0.930 . S
H530 C538 0.930 . S
H531 C539 0.930 . S
H532 C542 0.930 . S
H533 C543 0.930 . S
C534 H528 0.930 . S
C534 C535 1.355 . S
C534 C536 1.415 1_565 S
C535 C534 1.355 . S
C535 C537 1.419 . S
C536 C534 1.415 1_545 S
C536 C541 1.425 . S
C536 C543 1.409 . S
C537 H529 0.930 . S
C537 C535 1.419 . S
C537 C538 1.362 . S
C538 H530 0.930 . S
C538 C537 1.362 . S
C538 C541 1.409 1_565 S
C539 H531 0.930 . S
C539 C540 1.355 . S
C539 C541 1.415 . S
C540 C539 1.355 . S
C540 C542 1.419 . S
C541 C536 1.425 . S
C541 C538 1.409 1_545 S
C541 C539 1.415 . S
C542 H532 0.930 . S
C542 C540 1.419 . S
C542 C543 1.362 . S
C543 H533 0.930 . S
C543 C536 1.409 . S
C543 C542 1.362 . S
H544 C550 0.930 . S
H545 C553 0.930 . S
H546 C554 0.930 . S
H547 C555 0.930 . S
H548 C558 0.930 . S
H549 C559 0.930 . S
C550 H544 0.930 . S
C550 C551 1.355 . S
C550 C552 1.415 . S
C551 C550 1.355 . S
C551 C553 1.419 . S
C552 C550 1.415 . S
C552 C557 1.425 . S
C552 C559 1.409 . S
C553 H545 0.930 . S
C553 C551 1.419 . S
C553 C554 1.362 . S
C554 H546 0.930 . S
C554 C553 1.362 . S
C554 C557 1.409 . S
C555 H547 0.930 . S
C555 C556 1.355 . S
C555 C557 1.415 . S
C556 C555 1.355 . S
C556 C558 1.419 . S
C557 C552 1.425 . S
C557 C554 1.409 . S
C557 C555 1.415 . S
C558 H548 0.930 . S
C558 C556 1.419 . S
C558 C559 1.362 . S
C559 H549 0.930 . S
C559 C552 1.409 . S
C559 C558 1.362 . S
H560 C566 0.930 . S
H561 C569 0.930 . S
H562 C570 0.930 1_455 S
H563 C571 0.930 . S
H564 C574 0.930 . S
H565 C575 0.930 . S
C566 H560 0.930 . S
C566 C567 1.355 . S
C566 C568 1.415 . S
C567 C566 1.355 . S
C567 C569 1.419 . S
C568 C566 1.415 . S
C568 C573 1.425 1_655 S
C568 C575 1.409 . S
C569 H561 0.930 . S
C569 C567 1.419 . S
C569 C570 1.362 . S
C570 H562 0.930 1_655 S
C570 C569 1.362 . S
C570 C573 1.409 1_655 S
C571 H563 0.930 . S
C571 C572 1.355 . S
C571 C573 1.415 . S
C572 C571 1.355 . S
C572 C574 1.419 . S
C573 C568 1.425 1_455 S
C573 C570 1.409 1_455 S
C573 C571 1.415 . S
C574 H564 0.930 . S
C574 C572 1.419 . S
C574 C575 1.362 1_455 S
C575 H565 0.930 . S
C575 C568 1.409 . S
C575 C574 1.362 1_655 S
H576 C582 0.930 . S
H577 C585 0.930 . S
H578 C586 0.930 . S
H579 C587 0.930 . S
H580 C590 0.930 . S
H581 C591 0.930 . S
C582 H576 0.930 . S
C582 C583 1.355 . S
C582 C584 1.415 . S
C583 C582 1.355 . S
C583 C585 1.419 . S
C584 C582 1.415 . S
C584 C589 1.425 . S
C584 C591 1.409 1_455 S
C585 H577 0.930 . S
C585 C583 1.419 . S
C585 C586 1.362 . S
C586 H578 0.930 . S
C586 C585 1.362 . S
C586 C589 1.409 . S
C587 H579 0.930 . S
C587 C588 1.355 . S
C587 C589 1.415 1_655 S
C588 C587 1.355 . S
C588 C590 1.419 . S
C589 C584 1.425 . S
C589 C586 1.409 . S
C589 C587 1.415 1_455 S
C590 H580 0.930 . S
C590 C588 1.419 . S
C590 C591 1.362 . S
C591 H581 0.930 . S
C591 C584 1.409 1_655 S
C591 C590 1.362 . S
H592 C598 0.930 . S
H593 C601 0.930 . S
H594 C602 0.930 . S
H595 C603 0.930 . S
H596 C606 0.930 . S
H597 C607 0.930 . S
C598 H592 0.930 . S
C598 C599 1.355 . S
C598 C600 1.415 1_565 S
C599 C598 1.355 . S
C599 C601 1.419 . S
C600 C598 1.415 1_545 S
C600 C605 1.425 . S
C600 C607 1.409 . S
C601 H593 0.930 . S
C601 C599 1.419 . S
C601 C602 1.362 . S
C602 H594 0.930 . S
C602 C601 1.362 . S
C602 C605 1.409 1_565 S
C603 H595 0.930 . S
C603 C604 1.355 . S
C603 C605 1.415 . S
C604 C603 1.355 . S
C604 C606 1.419 . S
C605 C600 1.425 . S
C605 C602 1.409 1_545 S
C605 C603 1.415 . S
C606 H596 0.930 . S
C606 C604 1.419 . S
C606 C607 1.362 . S
C607 H597 0.930 . S
C607 C600 1.409 . S
C607 C606 1.362 . S
H608 C614 0.930 . S
H609 C617 0.930 . S
H610 C618 0.930 . S
H611 C619 0.930 . S
H612 C622 0.930 . S
H613 C623 0.930 . S
C614 H608 0.930 . S
C614 C615 1.355 . S
C614 C616 1.415 . S
C615 C614 1.355 . S
C615 C617 1.419 . S
C616 C614 1.415 . S
C616 C621 1.425 . S
C616 C623 1.409 . S
C617 H609 0.930 . S
C617 C615 1.419 . S
C617 C618 1.362 . S
C618 H610 0.930 . S
C618 C617 1.362 . S
C618 C621 1.409 . S
C619 H611 0.930 . S
C619 C620 1.355 . S
C619 C621 1.415 . S
C620 C619 1.355 . S
C620 C622 1.419 . S
C621 C616 1.425 . S
C621 C618 1.409 . S
C621 C619 1.415 . S
C622 H612 0.930 . S
C622 C620 1.419 . S
C622 C623 1.362 . S
C623 H613 0.930 . S
C623 C616 1.409 . S
C623 C622 1.362 . S
H624 C630 0.930 . S
H625 C633 0.930 . S
H626 C634 0.930 . S
H627 C635 0.930 . S
H628 C638 0.930 . S
H629 C639 0.930 1_455 S
C630 H624 0.930 . S
C630 C631 1.355 . S
C630 C632 1.415 . S
C631 C630 1.355 . S
C631 C633 1.419 . S
C632 C630 1.415 . S
C632 C637 1.425 1_455 S
C632 C639 1.409 1_455 S
C633 H625 0.930 . S
C633 C631 1.419 . S
C633 C634 1.362 1_455 S
C634 H626 0.930 . S
C634 C633 1.362 1_655 S
C634 C637 1.409 . S
C635 H627 0.930 . S
C635 C636 1.355 . S
C635 C637 1.415 . S
C636 C635 1.355 . S
C636 C638 1.419 . S
C637 C632 1.425 1_655 S
C637 C634 1.409 . S
C637 C635 1.415 . S
C638 H628 0.930 . S
C638 C636 1.419 . S
C638 C639 1.362 . S
C639 H629 0.930 1_655 S
C639 C632 1.409 1_655 S
C639 C638 1.362 . S
H640 C646 0.930 . S
H641 C649 0.930 . S
H642 C650 0.930 . S
H643 C651 0.930 . S
H644 C654 0.930 . S
H645 C655 0.930 . S
C646 H640 0.930 . S
C646 C647 1.355 . S
C646 C648 1.415 1_545 S
C647 C646 1.355 . S
C647 C649 1.419 . S
C648 C646 1.415 1_565 S
C648 C653 1.425 . S
C648 C655 1.409 . S
C649 H641 0.930 . S
C649 C647 1.419 . S
C649 C650 1.362 1_545 S
C650 H642 0.930 . S
C650 C649 1.362 1_565 S
C650 C653 1.409 . S
C651 H643 0.930 . S
C651 C652 1.355 . S
C651 C653 1.415 . S
C652 C651 1.355 . S
C652 C654 1.419 . S
C653 C648 1.425 . S
C653 C650 1.409 . S
C653 C651 1.415 . S
C654 H644 0.930 . S
C654 C652 1.419 . S
C654 C655 1.362 . S
C655 H645 0.930 . S
C655 C648 1.409 . S
C655 C654 1.362 . S
H656 C662 0.930 . S
H657 C665 0.930 . S
H658 C666 0.930 . S
H659 C667 0.930 . S
H660 C670 0.930 . S
H661 C671 0.930 . S
C662 H656 0.930 . S
C662 C663 1.355 . S
C662 C664 1.415 . S
C663 C662 1.355 . S
C663 C665 1.419 . S
C664 C662 1.415 . S
C664 C669 1.425 . S
C664 C671 1.409 . S
C665 H657 0.930 . S
C665 C663 1.419 . S
C665 C666 1.362 . S
C666 H658 0.930 . S
C666 C665 1.362 . S
C666 C669 1.409 . S
C667 H659 0.930 . S
C667 C668 1.355 . S
C667 C669 1.415 . S
C668 C667 1.355 . S
C668 C670 1.419 . S
C669 C664 1.425 . S
C669 C666 1.409 . S
C669 C667 1.415 . S
C670 H660 0.930 . S
C670 C668 1.419 . S
C670 C671 1.362 . S
C671 H661 0.930 . S
C671 C664 1.409 . S
C671 C670 1.362 . S
H672 C678 0.930 . S
H673 C681 0.930 . S
H674 C682 0.930 . S
H675 C683 0.930 . S
H676 C686 0.930 . S
H677 C687 0.930 . S
C678 H672 0.930 . S
C678 C679 1.355 . S
C678 C680 1.415 . S
C679 C678 1.355 . S
C679 C681 1.419 . S
C680 C678 1.415 . S
C680 C685 1.425 . S
C680 C687 1.409 . S
C681 H673 0.930 . S
C681 C679 1.419 . S
C681 C682 1.362 . S
C682 H674 0.930 . S
C682 C681 1.362 . S
C682 C685 1.409 . S
C683 H675 0.930 . S
C683 C684 1.355 . S
C683 C685 1.415 . S
C684 C683 1.355 . S
C684 C686 1.419 . S
C685 C680 1.425 . S
C685 C682 1.409 . S
C685 C683 1.415 . S
C686 H676 0.930 . S
C686 C684 1.419 . S
C686 C687 1.362 . S
C687 H677 0.930 . S
C687 C680 1.409 . S
C687 C686 1.362 . S
H688 C694 0.930 . S
H689 C697 0.930 . S
H690 C698 0.930 . S
H691 C699 0.930 . S
H692 C702 0.930 . S
H693 C703 0.930 . S
C694 H688 0.930 . S
C694 C695 1.355 . S
C694 C696 1.415 . S
C695 C694 1.355 . S
C695 C697 1.419 . S
C696 C694 1.415 . S
C696 C701 1.425 . S
C696 C703 1.409 . S
C697 H689 0.930 . S
C697 C695 1.419 . S
C697 C698 1.362 . S
C698 H690 0.930 . S
C698 C697 1.362 . S
C698 C701 1.409 . S
C699 H691 0.930 . S
C699 C700 1.355 . S
C699 C701 1.415 . S
C700 C699 1.355 . S
C700 C702 1.419 . S
C701 C696 1.425 . S
C701 C698 1.409 . S
C701 C699 1.415 . S
C702 H692 0.930 . S
C702 C700 1.419 . S
C702 C703 1.362 . S
C703 H693 0.930 . S
C703 C696 1.409 . S
C703 C702 1.362 . S
H704 C710 0.930 . S
H705 C713 0.930 . S
H706 C714 0.930 . S
H707 C715 0.930 . S
H708 C718 0.930 . S
H709 C719 0.930 . S
C710 H704 0.930 . S
C710 C711 1.355 . S
C710 C712 1.415 . S
C711 C710 1.355 . S
C711 C713 1.419 . S
C712 C710 1.415 . S
C712 C717 1.425 . S
C712 C719 1.409 . S
C713 H705 0.930 . S
C713 C711 1.419 . S
C713 C714 1.362 . S
C714 H706 0.930 . S
C714 C713 1.362 . S
C714 C717 1.409 . S
C715 H707 0.930 . S
C715 C716 1.355 . S
C715 C717 1.415 . S
C716 C715 1.355 . S
C716 C718 1.419 . S
C717 C712 1.425 . S
C717 C714 1.409 . S
C717 C715 1.415 . S
C718 H708 0.930 . S
C718 C716 1.419 . S
C718 C719 1.362 . S
C719 H709 0.930 . S
C719 C712 1.409 . S
C719 C718 1.362 . S
H720 C726 0.930 . S
H721 C729 0.930 . S
H722 C730 0.930 . S
H723 C731 0.930 . S
H724 C734 0.930 . S
H725 C735 0.930 . S
C726 H720 0.930 . S
C726 C727 1.355 . S
C726 C728 1.415 . S
C727 C726 1.355 . S
C727 C729 1.419 . S
C728 C726 1.415 . S
C728 C733 1.425 . S
C728 C735 1.409 . S
C729 H721 0.930 . S
C729 C727 1.419 . S
C729 C730 1.362 . S
C730 H722 0.930 . S
C730 C729 1.362 . S
C730 C733 1.409 . S
C731 H723 0.930 . S
C731 C732 1.355 . S
C731 C733 1.415 . S
C732 C731 1.355 . S
C732 C734 1.419 . S
C733 C728 1.425 . S
C733 C730 1.409 . S
C733 C731 1.415 . S
C734 H724 0.930 . S
C734 C732 1.419 . S
C734 C735 1.362 . S
C735 H725 0.930 . S
C735 C728 1.409 . S
C735 C734 1.362 . S
H736 C742 0.930 . S
H737 C745 0.930 . S
H738 C746 0.930 . S
H739 C747 0.930 . S
H740 C750 0.930 . S
H741 C751 0.930 . S
C742 H736 0.930 . S
C742 C743 1.355 . S
C742 C744 1.415 . S
C743 C742 1.355 . S
C743 C745 1.419 . S
C744 C742 1.415 . S
C744 C749 1.425 . S
C744 C751 1.409 . S
C745 H737 0.930 . S
C745 C743 1.419 . S
C745 C746 1.362 . S
C746 H738 0.930 . S
C746 C745 1.362 . S
C746 C749 1.409 . S
C747 H739 0.930 . S
C747 C748 1.355 . S
C747 C749 1.415 . S
C748 C747 1.355 . S
C748 C750 1.419 . S
C749 C744 1.425 . S
C749 C746 1.409 . S
C749 C747 1.415 . S
C750 H740 0.930 . S
C750 C748 1.419 . S
C750 C751 1.362 . S
C751 H741 0.930 . S
C751 C744 1.409 . S
C751 C750 1.362 . S
H752 C758 0.930 . S
H753 C761 0.930 . S
H754 C762 0.930 . S
H755 C763 0.930 . S
H756 C766 0.930 . S
H757 C767 0.930 . S
C758 H752 0.930 . S
C758 C759 1.355 . S
C758 C760 1.415 . S
C759 C758 1.355 . S
C759 C761 1.419 . S
C760 C758 1.415 . S
C760 C765 1.425 . S
C760 C767 1.409 . S
C761 H753 0.930 . S
C761 C759 1.419 . S
C761 C762 1.362 . S
C762 H754 0.930 . S
C762 C761 1.362 . S
C762 C765 1.409 . S
C763 H755 0.930 . S
C763 C764 1.355 . S
C763 C765 1.415 . S
C764 C763 1.355 . S
C764 C766 1.419 . S
C765 C760 1.425 . S
C765 C762 1.409 . S
C765 C763 1.415 . S
C766 H756 0.930 . S
C766 C764 1.419 . S
C766 C767 1.362 . S
C767 H757 0.930 . S
C767 C760 1.409 . S
C767 C766 1.362 . S
H768 C774 0.930 . S
H769 C777 0.930 . S
H770 C778 0.930 . S
H771 C779 0.930 . S
H772 C782 0.930 . S
H773 C783 0.930 . S
C774 H768 0.930 . S
C774 C775 1.355 . S
C774 C776 1.415 . S
C775 C774 1.355 . S
C775 C777 1.419 . S
C776 C774 1.415 . S
C776 C781 1.425 . S
C776 C783 1.409 . S
C777 H769 0.930 . S
C777 C775 1.419 . S
C777 C778 1.362 . S
C778 H770 0.930 . S
C778 C777 1.362 . S
C778 C781 1.409 . S
C779 H771 0.930 . S
C779 C780 1.355 . S
C779 C781 1.415 . S
C780 C779 1.355 . S
C780 C782 1.419 . S
C781 C776 1.425 . S
C781 C778 1.409 . S
C781 C779 1.415 . S
C782 H772 0.930 . S
C782 C780 1.419 . S
C782 C783 1.362 . S
C783 H773 0.930 . S
C783 C776 1.409 . S
C783 C782 1.362 . S
H784 C790 0.930 . S
H785 C793 0.930 . S
H786 C794 0.930 . S
H787 C795 0.930 . S
H788 C798 0.930 . S
H789 C799 0.930 . S
C790 H784 0.930 . S
C790 C791 1.355 . S
C790 C792 1.415 . S
C791 C790 1.355 . S
C791 C793 1.419 . S
C792 C790 1.415 . S
C792 C797 1.425 . S
C792 C799 1.409 . S
C793 H785 0.930 . S
C793 C791 1.419 . S
C793 C794 1.362 . S
C794 H786 0.930 . S
C794 C793 1.362 . S
C794 C797 1.409 . S
C795 H787 0.930 . S
C795 C796 1.355 . S
C795 C797 1.415 . S
C796 C795 1.355 . S
C796 C798 1.419 . S
C797 C792 1.425 . S
C797 C794 1.409 . S
C797 C795 1.415 . S
C798 H788 0.930 . S
C798 C796 1.419 . S
C798 C799 1.362 . S
C799 H789 0.930 . S
C799 C792 1.409 . S
C799 C798 1.362 . S
H800 C806 0.930 . S
H801 C809 0.930 . S
H802 C810 0.930 . S
H803 C811 0.930 . S
H804 C814 0.930 . S
H805 C815 0.930 . S
C806 H800 0.930 . S
C806 C807 1.355 . S
C806 C808 1.415 . S
C807 C806 1.355 . S
C807 C809 1.419 . S
C808 C806 1.415 . S
C808 C813 1.425 . S
C808 C815 1.409 . S
C809 H801 0.930 . S
C809 C807 1.419 . S
C809 C810 1.362 . S
C810 H802 0.930 . S
C810 C809 1.362 . S
C810 C813 1.409 . S
C811 H803 0.930 . S
C811 C812 1.355 . S
C811 C813 1.415 . S
C812 C811 1.355 . S
C812 C814 1.419 . S
C813 C808 1.425 . S
C813 C810 1.409 . S
C813 C811 1.415 . S
C814 H804 0.930 . S
C814 C812 1.419 . S
C814 C815 1.362 . S
C815 H805 0.930 . S
C815 C808 1.409 . S
C815 C814 1.362 . S
H816 C822 0.930 . S
H817 C825 0.930 . S
H818 C826 0.930 . S
H819 C827 0.930 . S
H820 C830 0.930 . S
H821 C831 0.930 . S
C822 H816 0.930 . S
C822 C823 1.355 . S
C822 C824 1.415 . S
C823 C822 1.355 . S
C823 C825 1.419 . S
C824 C822 1.415 . S
C824 C829 1.425 . S
C824 C831 1.409 . S
C825 H817 0.930 . S
C825 C823 1.419 . S
C825 C826 1.362 . S
C826 H818 0.930 . S
C826 C825 1.362 . S
C826 C829 1.409 . S
C827 H819 0.930 . S
C827 C828 1.355 . S
C827 C829 1.415 . S
C828 C827 1.355 . S
C828 C830 1.419 . S
C829 C824 1.425 . S
C829 C826 1.409 . S
C829 C827 1.415 . S
C830 H820 0.930 . S
C830 C828 1.419 . S
C830 C831 1.362 . S
C831 H821 0.930 . S
C831 C824 1.409 . S
C831 C830 1.362 . S
H832 C838 0.930 . S
H833 C841 0.930 . S
H834 C842 0.930 . S
H835 C843 0.930 . S
H836 C846 0.930 . S
H837 C847 0.930 . S
C838 H832 0.930 . S
C838 C839 1.355 . S
C838 C840 1.415 . S
C839 C838 1.355 . S
C839 C841 1.419 . S
C840 C838 1.415 . S
C840 C845 1.425 . S
C840 C847 1.409 . S
C841 H833 0.930 . S
C841 C839 1.419 . S
C841 C842 1.362 . S
C842 H834 0.930 . S
C842 C841 1.362 . S
C842 C845 1.409 . S
C843 H835 0.930 . S
C843 C844 1.355 . S
C843 C845 1.415 . S
C844 C843 1.355 . S
C844 C846 1.419 . S
C845 C840 1.425 . S
C845 C842 1.409 . S
C845 C843 1.415 . S
C846 H836 0.930 . S
C846 C844 1.419 . S
C846 C847 1.362 . S
C847 H837 0.930 . S
C847 C840 1.409 . S
C847 C846 1.362 . S
H848 C854 0.930 . S
H849 C857 0.930 . S
H850 C858 0.930 . S
H851 C859 0.930 . S
H852 C862 0.930 . S
H853 C863 0.930 . S
C854 H848 0.930 . S
C854 C855 1.355 . S
C854 C856 1.415 . S
C855 C854 1.355 . S
C855 C857 1.419 . S
C856 C854 1.415 . S
C856 C861 1.425 . S
C856 C863 1.409 . S
C857 H849 0.930 . S
C857 C855 1.419 . S
C857 C858 1.362 . S
C858 H850 0.930 . S
C858 C857 1.362 . S
C858 C861 1.409 . S
C859 H851 0.930 . S
C859 C860 1.355 . S
C859 C861 1.415 . S
C860 C859 1.355 . S
C860 C862 1.419 . S
C861 C856 1.425 . S
C861 C858 1.409 . S
C861 C859 1.415 . S
C862 H852 0.930 . S
C862 C860 1.419 . S
C862 C863 1.362 . S
C863 H853 0.930 . S
C863 C856 1.409 . S
C863 C862 1.362 . S
H864 C870 0.930 . S
H865 C873 0.930 . S
H866 C874 0.930 . S
H867 C875 0.930 . S
H868 C878 0.930 . S
H869 C879 0.930 . S
C870 H864 0.930 . S
C870 C871 1.355 . S
C870 C872 1.415 . S
C871 C870 1.355 . S
C871 C873 1.419 . S
C872 C870 1.415 . S
C872 C877 1.425 . S
C872 C879 1.409 . S
C873 H865 0.930 . S
C873 C871 1.419 . S
C873 C874 1.362 . S
C874 H866 0.930 . S
C874 C873 1.362 . S
C874 C877 1.409 . S
C875 H867 0.930 . S
C875 C876 1.355 . S
C875 C877 1.415 . S
C876 C875 1.355 . S
C876 C878 1.419 . S
C877 C872 1.425 . S
C877 C874 1.409 . S
C877 C875 1.415 . S
C878 H868 0.930 . S
C878 C876 1.419 . S
C878 C879 1.362 . S
C879 H869 0.930 . S
C879 C872 1.409 . S
C879 C878 1.362 . S
H880 C886 0.930 . S
H881 C889 0.930 . S
H882 C890 0.930 . S
H883 C891 0.930 . S
H884 C894 0.930 . S
H885 C895 0.930 . S
C886 H880 0.930 . S
C886 C887 1.355 . S
C886 C888 1.415 . S
C887 C886 1.355 . S
C887 C889 1.419 . S
C888 C886 1.415 . S
C888 C893 1.425 . S
C888 C895 1.409 . S
C889 H881 0.930 . S
C889 C887 1.419 . S
C889 C890 1.362 . S
C890 H882 0.930 . S
C890 C889 1.362 . S
C890 C893 1.409 . S
C891 H883 0.930 . S
C891 C892 1.355 . S
C891 C893 1.415 . S
C892 C891 1.355 . S
C892 C894 1.419 . S
C893 C888 1.425 . S
C893 C890 1.409 . S
C893 C891 1.415 . S
C894 H884 0.930 . S
C894 C892 1.419 . S
C894 C895 1.362 . S
C895 H885 0.930 . S
C895 C888 1.409 . S
C895 C894 1.362 . S
H896 C902 0.930 . S
H897 C905 0.930 . S
H898 C906 0.930 . S
H899 C907 0.930 . S
H900 C910 0.930 . S
H901 C911 0.930 . S
C902 H896 0.930 . S
C902 C903 1.355 . S
C902 C904 1.415 . S
C903 C902 1.355 . S
C903 C905 1.419 . S
C904 C902 1.415 . S
C904 C909 1.425 . S
C904 C911 1.409 . S
C905 H897 0.930 . S
C905 C903 1.419 . S
C905 C906 1.362 . S
C906 H898 0.930 . S
C906 C905 1.362 . S
C906 C909 1.409 . S
C907 H899 0.930 . S
C907 C908 1.355 . S
C907 C909 1.415 . S
C908 C907 1.355 . S
C908 C910 1.419 . S
C909 C904 1.425 . S
C909 C906 1.409 . S
C909 C907 1.415 . S
C910 H900 0.930 . S
C910 C908 1.419 . S
C910 C911 1.362 . S
C911 H901 0.930 . S
C911 C904 1.409 . S
C911 C910 1.362 . S
H912 C918 0.930 . S
H913 C921 0.930 . S
H914 C922 0.930 . S
H915 C923 0.930 . S
H916 C926 0.930 . S
H917 C927 0.930 . S
C918 H912 0.930 . S
C918 C919 1.355 . S
C918 C920 1.415 . S
C919 C918 1.355 . S
C919 C921 1.419 . S
C920 C918 1.415 . S
C920 C925 1.425 . S
C920 C927 1.409 . S
C921 H913 0.930 . S
C921 C919 1.419 . S
C921 C922 1.362 . S
C922 H914 0.930 . S
C922 C921 1.362 . S
C922 C925 1.409 . S
C923 H915 0.930 . S
C923 C924 1.355 . S
C923 C925 1.415 . S
C924 C923 1.355 . S
C924 C926 1.419 . S
C925 C920 1.425 . S
C925 C922 1.409 . S
C925 C923 1.415 . S
C926 H916 0.930 . S
C926 C924 1.419 . S
C926 C927 1.362 . S
C927 H917 0.930 . S
C927 C920 1.409 . S
C927 C926 1.362 . S
H928 C934 0.930 . S
H929 C937 0.930 . S
H930 C938 0.930 . S
H931 C939 0.930 . S
H932 C942 0.930 . S
H933 C943 0.930 . S
C934 H928 0.930 . S
C934 C935 1.355 . S
C934 C936 1.415 . S
C935 C934 1.355 . S
C935 C937 1.419 . S
C936 C934 1.415 . S
C936 C941 1.425 . S
C936 C943 1.409 . S
C937 H929 0.930 . S
C937 C935 1.419 . S
C937 C938 1.362 . S
C938 H930 0.930 . S
C938 C937 1.362 . S
C938 C941 1.409 . S
C939 H931 0.930 . S
C939 C940 1.355 . S
C939 C941 1.415 . S
C940 C939 1.355 . S
C940 C942 1.419 . S
C941 C936 1.425 . S
C941 C938 1.409 . S
C941 C939 1.415 . S
C942 H932 0.930 . S
C942 C940 1.419 . S
C942 C943 1.362 . S
C943 H933 0.930 . S
C943 C936 1.409 . S
C943 C942 1.362 . S
H944 C950 0.930 . S
H945 C953 0.930 . S
H946 C954 0.930 . S
H947 C955 0.930 . S
H948 C958 0.930 . S
H949 C959 0.930 . S
C950 H944 0.930 . S
C950 C951 1.355 . S
C950 C952 1.415 . S
C951 C950 1.355 . S
C951 C953 1.419 . S
C952 C950 1.415 . S
C952 C957 1.425 . S
C952 C959 1.409 . S
C953 H945 0.930 . S
C953 C951 1.419 . S
C953 C954 1.362 . S
C954 H946 0.930 . S
C954 C953 1.362 . S
C954 C957 1.409 . S
C955 H947 0.930 . S
C955 C956 1.355 . S
C955 C957 1.415 . S
C956 C955 1.355 . S
C956 C958 1.419 . S
C957 C952 1.425 . S
C957 C954 1.409 . S
C957 C955 1.415 . S
C958 H948 0.930 . S
C958 C956 1.419 . S
C958 C959 1.362 . S
C959 H949 0.930 . S
C959 C952 1.409 . S
C959 C958 1.362 . S
H960 C966 0.930 . S
H961 C969 0.930 . S
H962 C970 0.926 1_554 S
H963 C971 0.930 . S
H964 C974 0.930 . S
H965 C975 0.926 1_556 S
C966 H960 0.930 . S
C966 C967 1.355 . S
C966 C968 1.415 . S
C967 C966 1.355 . S
C967 C969 1.419 . S
C968 C966 1.415 . S
C968 C973 1.425 1_556 S
C968 C975 1.407 1_556 S
C969 H961 0.930 . S
C969 C967 1.419 . S
C969 C970 1.369 . S
C970 H962 0.926 1_556 S
C970 C969 1.369 . S
C970 C973 1.407 1_556 S
C971 H963 0.930 . S
C971 C972 1.355 . S
C971 C973 1.415 . S
C972 C971 1.355 . S
C972 C974 1.419 . S
C973 C968 1.425 1_554 S
C973 C970 1.407 1_554 S
C973 C971 1.415 . S
C974 H964 0.930 . S
C974 C972 1.419 . S
C974 C975 1.369 . S
C975 H965 0.926 1_554 S
C975 C968 1.407 1_554 S
C975 C974 1.369 . S
H976 C982 0.930 . S
H977 C985 0.930 . S
H978 C986 0.930 1_655 S
H979 C987 0.930 . S
H980 C990 0.930 . S
H981 C991 0.930 1_455 S
C982 H976 0.930 . S
C982 C983 1.355 . S
C982 C984 1.415 . S
C983 C982 1.355 . S
C983 C985 1.419 . S
C984 C982 1.415 . S
C984 C989 1.425 1_455 S
C984 C991 1.409 1_455 S
C985 H977 0.930 . S
C985 C983 1.419 . S
C985 C986 1.362 . S
C986 H978 0.930 1_455 S
C986 C985 1.362 . S
C986 C989 1.409 1_455 S
C987 H979 0.930 . S
C987 C988 1.355 . S
C987 C989 1.415 . S
C988 C987 1.355 . S
C988 C990 1.419 . S
C989 C984 1.425 1_655 S
C989 C986 1.409 1_655 S
C989 C987 1.415 . S
C990 H980 0.930 . S
C990 C988 1.419 . S
C990 C991 1.362 . S
C991 H981 0.930 1_655 S
C991 C984 1.409 1_655 S
C991 C990 1.362 . S
H992 C998 0.930 . S
H993 C1001 0.930 . S
H994 C1002 0.930 . S
H995 C1003 0.930 . S
H996 C1006 0.930 . S
H997 C1007 0.930 . S
C998 H992 0.930 . S
C998 C999 1.355 . S
C998 C1000 1.415 1_565 S
C999 C998 1.355 . S
C999 C1001 1.419 1_554 S
C1000 C998 1.415 1_545 S
C1000 C1005 1.425 1_544 S
C1000 C1007 1.409 . S
C1001 H993 0.930 . S
C1001 C999 1.419 1_556 S
C1001 C1002 1.362 . S
C1002 H994 0.930 . S
C1002 C1001 1.362 . S
C1002 C1005 1.409 . S
C1003 H995 0.930 . S
C1003 C1004 1.355 . S
C1003 C1005 1.415 1_545 S
C1004 C1003 1.355 . S
C1004 C1006 1.419 1_556 S
C1005 C1000 1.425 1_566 S
C1005 C1002 1.409 . S
C1005 C1003 1.415 1_565 S
C1006 H996 0.930 . S
C1006 C1004 1.419 1_554 S
C1006 C1007 1.362 . S
C1007 H997 0.930 . S
C1007 C1000 1.409 . S
C1007 C1006 1.362 . S
H1008 C1014 0.930 . S
H1009 C1017 0.930 . S
H1010 C1018 0.930 . S
H1011 C1019 0.930 . S
H1012 C1022 0.930 . S
H1013 C1023 0.930 . S
C1014 H1008 0.930 . S
C1014 C1015 1.355 . S
C1014 C1016 1.415 . S
C1015 C1014 1.355 . S
C1015 C1017 1.419 . S
C1016 C1014 1.415 . S
C1016 C1021 1.425 . S
C1016 C1023 1.409 . S
C1017 H1009 0.930 . S
C1017 C1015 1.419 . S
C1017 C1018 1.362 . S
C1018 H1010 0.930 . S
C1018 C1017 1.362 . S
C1018 C1021 1.409 . S
C1019 H1011 0.930 . S
C1019 C1020 1.355 . S
C1019 C1021 1.415 . S
C1020 C1019 1.355 . S
C1020 C1022 1.419 . S
C1021 C1016 1.425 . S
C1021 C1018 1.409 . S
C1021 C1019 1.415 . S
C1022 H1012 0.930 . S
C1022 C1020 1.419 . S
C1022 C1023 1.362 . S
C1023 H1013 0.930 . S
C1023 C1016 1.409 . S
C1023 C1022 1.362 . S
H1024 C1030 0.931 1_554 S
H1025 C1033 0.930 . S
H1026 C1034 0.930 1_455 S
H1027 C1035 0.931 1_556 S
H1028 C1038 0.930 . S
H1029 C1039 0.930 1_655 S
C1030 H1024 0.931 1_556 S
C1030 C1031 1.355 . S
C1030 C1032 1.415 1_556 S
C1031 C1030 1.355 . S
C1031 C1033 1.419 . S
C1032 C1030 1.415 1_554 S
C1032 C1037 1.425 1_654 S
C1032 C1039 1.409 1_655 S
C1033 H1025 0.930 . S
C1033 C1031 1.419 . S
C1033 C1034 1.362 . S
C1034 H1026 0.930 1_655 S
C1034 C1033 1.362 . S
C1034 C1037 1.409 1_655 S
C1035 H1027 0.931 1_554 S
C1035 C1036 1.355 . S
C1035 C1037 1.415 1_554 S
C1036 C1035 1.355 . S
C1036 C1038 1.419 . S
C1037 C1032 1.425 1_456 S
C1037 C1034 1.409 1_455 S
C1037 C1035 1.415 1_556 S
C1038 H1028 0.930 . S
C1038 C1036 1.419 . S
C1038 C1039 1.362 . S
C1039 H1029 0.930 1_455 S
C1039 C1032 1.409 1_455 S
C1039 C1038 1.362 . S
H1040 C1046 0.930 . S
H1041 C1049 0.930 . S
H1042 C1050 0.930 . S
H1043 C1051 0.930 . S
H1044 C1054 0.930 . S
H1045 C1055 0.930 . S
C1046 H1040 0.930 . S
C1046 C1047 1.355 . S
C1046 C1048 1.422 . S
C1047 C1046 1.355 . S
C1047 C1049 1.419 . S
C1048 C1046 1.422 . S
C1048 C1053 1.419 1_565 S
C1048 C1055 1.405 1_565 S
C1049 H1041 0.930 . S
C1049 C1047 1.419 . S
C1049 C1050 1.362 . S
C1050 H1042 0.930 . S
C1050 C1049 1.362 . S
C1050 C1053 1.405 1_565 S
C1051 H1043 0.930 . S
C1051 C1052 1.355 . S
C1051 C1053 1.422 . S
C1052 C1051 1.355 . S
C1052 C1054 1.419 . S
C1053 C1048 1.419 1_545 S
C1053 C1050 1.405 1_545 S
C1053 C1051 1.422 . S
C1054 H1044 0.930 . S
C1054 C1052 1.419 . S
C1054 C1055 1.362 . S
C1055 H1045 0.930 . S
C1055 C1048 1.405 1_545 S
C1055 C1054 1.362 . S
C487 C171 1.330 . S
C492 C16 1.382 . S
C503 C211 1.309 . S
C508 C56 1.355 . S
C519 C96 1.367 . S
C524 C11 1.354 . S
C535 C136 1.389 . S
C540 C51 1.382 . S
C551 C176 1.388 . S
C556 C91 1.381 . S
C567 C131 1.345 . S
C572 C216 1.392 . S
C583 C331 1.353 . S
C588 C256 1.366 . S
C599 C296 1.370 . S
C604 C371 1.359 . S
C615 C411 1.365 . S
C620 C336 1.374 . S
C631 C376 1.391 . S
C636 C451 1.343 . S
C647 C416 1.361 . S
C652 C251 1.310 . S
C663 C291 1.389 . S
C668 C456 1.398 . S
C679 C162 1.796 . S
C684 C7 1.785 . S
C695 C47 1.789 . S
C700 C202 1.816 . S
C711 C87 1.744 . S
C716 C2 1.771 . S
C727 C127 1.752 . S
C732 C42 1.798 . S
C743 C82 1.794 . S
C748 C167 1.747 . S
C759 C122 1.780 . S
C764 C207 1.765 . S
C775 C322 1.797 . S
C780 C247 1.786 . S
C791 C287 1.786 . S
C796 C362 1.797 . S
C807 C327 1.737 . S
C812 C402 1.782 . S
C823 C442 1.790 . S
C828 C367 1.743 . S
C839 C407 1.790 . S
C844 C242 1.802 . S
C855 C282 1.771 . S
C860 C447 1.743 . S
C871 C419 1.582 . S
C876 C19 1.618 . S
C887 C59 1.656 . S
C892 C459 1.611 . S
C903 C99 1.662 . S
C908 C259 1.662 . S
C919 C139 1.639 . S
C924 C299 1.593 . S
C935 C179 1.647 . S
C940 C339 1.668 . S
C951 C379 1.652 . S
C956 C219 1.606 . S
C967 C370 2.295 . S
C972 C10 2.293 . S
C983 C410 2.283 . S
C988 C50 2.281 . S
C999 C90 2.300 . S
C1004 C450 2.301 . S
C1015 C130 2.275 . S
C1020 C250 2.274 . S
C1031 C290 2.276 . S
C1036 C170 2.277 . S
C1047 C330 2.300 . S
C1052 C210 2.298 . S
