# Generated by pormake.
# Topology fns, (5)-cn, num edge types: 1
# Building blocks:
#     Node 0, Type 0, BuildingBlock: BEQFEK_clean_sbu_0, # of connection points: 5
#     Node 1, Type 0, BuildingBlock: BEQFEK_clean_sbu_0, # of connection points: 5
#     Node 2, Type 0, BuildingBlock: BEQFEK_clean_sbu_0, # of connection points: 5
#     Node 3, Type 0, BuildingBlock: BEQFEK_clean_sbu_0, # of connection points: 5
#     Node 4, Type 0, BuildingBlock: BEQFEK_clean_sbu_0, # of connection points: 5
#     Node 5, Type 0, BuildingBlock: BEQFEK_clean_sbu_0, # of connection points: 5
#     Edge 6, Type (0, 0), BuildingBlock: KIFKEQ_clean_linker_1, # of connection points: 2
#     Edge 7, Type (0, 0), BuildingBlock: KIFKEQ_clean_linker_1, # of connection points: 2
#     Edge 8, Type (0, 0), BuildingBlock: KIFKEQ_clean_linker_1, # of connection points: 2
#     Edge 9, Type (0, 0), BuildingBlock: KIFKEQ_clean_linker_1, # of connection points: 2
#     Edge 10, Type (0, 0), BuildingBlock: KIFKEQ_clean_linker_1, # of connection points: 2
#     Edge 11, Type (0, 0), BuildingBlock: KIFKEQ_clean_linker_1, # of connection points: 2
#     Edge 12, Type (0, 0), BuildingBlock: KIFKEQ_clean_linker_1, # of connection points: 2
#     Edge 13, Type (0, 0), BuildingBlock: KIFKEQ_clean_linker_1, # of connection points: 2
#     Edge 14, Type (0, 0), BuildingBlock: KIFKEQ_clean_linker_1, # of connection points: 2
#     Edge 15, Type (0, 0), BuildingBlock: KIFKEQ_clean_linker_1, # of connection points: 2
#     Edge 16, Type (0, 0), BuildingBlock: KIFKEQ_clean_linker_1, # of connection points: 2
#     Edge 17, Type (0, 0), BuildingBlock: KIFKEQ_clean_linker_1, # of connection points: 2
#     Edge 18, Type (0, 0), BuildingBlock: KIFKEQ_clean_linker_1, # of connection points: 2
#     Edge 19, Type (0, 0), BuildingBlock: KIFKEQ_clean_linker_1, # of connection points: 2
#     Edge 20, Type (0, 0), BuildingBlock: KIFKEQ_clean_linker_1, # of connection points: 2
# Relax obj value: 0.268
# Max RMSD: 0.257
# Mean RMSD: 0.257
data_MOF--net-fns--node1-BEQFEK_clean_sbu_0--edge1-KIFKEQ_clean_linker_1
_symmetry_space_group_name_H-M    P1
_symmetry_Int_Tables_number       1
_symmetry_cell_setting            triclinic
loop_
_symmetry_equiv_pos_as_xyz
'x, y, z'
_cell_length_a     55.719251
_cell_length_b     55.737796
_cell_length_c     18.879168
_cell_angle_alpha  90.008479
_cell_angle_beta   90.081237
_cell_angle_gamma 120.04066
loop_
_atom_site_label
_atom_site_type_symbol
_atom_site_fract_x
_atom_site_fract_y
_atom_site_fract_z
_atom_type_partial_charge
Co0 Co 0.17513 0.62398 0.09715 0.0
Co1 Co 0.17314 0.59548 0.24133 0.0
C2 C 0.20738 0.65785 0.21776 0.0
O3 O 0.19924 0.65769 0.15456 0.0
O4 O 0.19913 0.63542 0.2518 0.0
C5 C 0.19096 0.64322 0.95914 0.0
O6 O 0.21543 0.65082 0.98666 0.0
C7 C 0.16307 0.5927 0.39216 0.0
C8 C 0.17288 0.5609 0.42818 0.0
C9 C 0.16619 0.58033 0.45254 0.0
N10 N 0.16771 0.58117 0.33512 0.0
N11 N 0.17315 0.56186 0.35685 0.0
C12 C 0.15836 0.61688 0.38843 0.0
H13 H 0.15996 0.62431 0.33332 0.0
H14 H 0.13718 0.6105 0.40737 0.0
H15 H 0.17342 0.63392 0.42299 0.0
C16 C 0.11446 0.58904 0.11224 0.0
N17 N 0.14025 0.60061 0.13934 0.0
N18 N 0.13939 0.58883 0.20037 0.0
C19 C 0.11296 0.56979 0.21505 0.0
C20 C 0.09624 0.56899 0.15929 0.0
C21 C 0.10859 0.59375 0.03766 0.0
H22 H 0.11568 0.61606 0.03015 0.0
H23 H 0.08635 0.58122 0.02368 0.0
H24 H 0.12058 0.58822 0.00089 0.0
O25 O 0.19358 0.60205 0.08261 0.0
O26 O 0.19041 0.57894 0.1811 0.0
H27 H 0.11377 0.53841 0.27867 0.0
H28 H 0.08146 0.53887 0.28411 0.0
C29 C 0.1043 0.55182 0.27971 0.0
H30 H 0.11198 0.56506 0.32748 0.0
H31 H 0.17858 0.55047 0.32328 0.0
O32 O 0.17007 0.63355 -0.0001 0.0
C33 C 0.19779 0.58479 0.11659 0.0
Co34 Co 0.54883 0.1749 0.40629 0.0
Co35 Co 0.57457 0.17635 0.55394 0.0
C36 C 0.54481 0.20799 0.52219 0.0
O37 O 0.53923 0.20006 0.45807 0.0
O38 O 0.55817 0.20034 0.56174 0.0
C39 C 0.54118 0.18864 0.27 0.0
O40 O 0.55564 0.21362 0.29723 0.0
C41 C 0.5673 0.16627 0.70415 0.0
C42 C 0.60955 0.17885 0.74157 0.0
C43 C 0.58284 0.17025 0.76488 0.0
N44 N 0.58398 0.17221 0.64779 0.0
N45 N 0.60915 0.17931 0.67026 0.0
C46 C 0.53777 0.1597 0.69951 0.0
H47 H 0.53177 0.16061 0.64407 0.0
H48 H 0.52387 0.13839 0.71912 0.0
H49 H 0.53467 0.17427 0.73311 0.0
C50 C 0.52338 0.1147 0.42993 0.0
N51 N 0.53749 0.14103 0.45352 0.0
N52 N 0.54908 0.14163 0.51471 0.0
C53 C 0.54278 0.11574 0.53221 0.0
C54 C 0.5264 0.09781 0.47891 0.0
C55 C 0.51141 0.10687 0.35694 0.0
H56 H 0.49732 0.11522 0.34736 0.0
H57 H 0.49992 0.08411 0.34897 0.0
H58 H 0.52845 0.11641 0.31764 0.0
O59 O 0.58928 0.19325 0.39075 0.0
O60 O 0.60856 0.19497 0.49515 0.0
H61 H 0.57694 0.12144 0.59659 0.0
H62 H 0.5475 0.08644 0.59846 0.0
C63 C 0.55397 0.10874 0.59623 0.0
H64 H 0.54616 0.11387 0.64445 0.0
H65 H 0.62631 0.18589 0.6372 0.0
O66 O 0.53333 0.16784 0.31035 0.0
C67 C 0.61055 0.19984 0.42886 0.0
Co68 Co 0.36853 0.55166 0.75461 0.0
Co69 Co 0.39727 0.57833 0.89878 0.0
C70 C 0.33491 0.55077 0.87444 0.0
O71 O 0.33485 0.54264 0.81133 0.0
O72 O 0.35742 0.56473 0.90852 0.0
C73 C 0.34935 0.54818 0.61642 0.0
O74 O 0.34178 0.56506 0.64376 0.0
C75 C 0.39983 0.571 0.0498 0.0
C76 C 0.43178 0.61256 0.08604 0.0
C77 C 0.41225 0.58645 0.11027 0.0
N78 N 0.41145 0.58717 0.99282 0.0
N79 N 0.43084 0.6119 0.0147 0.0
C80 C 0.37559 0.5421 0.04596 0.0
H81 H 0.35872 0.54001 0.08119 0.0
H82 H 0.36792 0.5364 0.99096 0.0
H83 H 0.38205 0.52726 0.06412 0.0
C84 C 0.40247 0.52486 0.77187 0.0
N85 N 0.39151 0.53979 0.79775 0.0
N86 N 0.40344 0.55088 0.8586 0.0
C87 C 0.422 0.54297 0.87431 0.0
C88 C 0.42229 0.52646 0.81949 0.0
C89 C 0.39732 0.51358 0.69797 0.0
H90 H 0.40336 0.53087 0.66004 0.0
H91 H 0.37484 0.49884 0.69079 0.0
H92 H 0.40922 0.50309 0.68531 0.0
O93 O 0.39086 0.59202 0.73982 0.0
O94 O 0.41413 0.61206 0.83821 0.0
H95 H 0.45346 0.57505 0.93834 0.0
H96 H 0.45266 0.54213 0.94424 0.0
C97 C 0.43989 0.55218 0.93928 0.0
H98 H 0.42658 0.54669 0.98678 0.0
H99 H 0.44233 0.62872 0.9812 0.0
O100 O 0.35899 0.53695 0.65735 0.0
C101 C 0.40827 0.61352 0.77362 0.0
Co102 Co 0.81646 0.37054 0.06931 0.0
Co103 Co 0.81654 0.39597 0.21631 0.0
C104 C 0.78267 0.33445 0.1854 0.0
O105 O 0.791 0.33619 0.12189 0.0
O106 O 0.7908 0.35579 0.22401 0.0
C107 C 0.80162 0.34995 0.93282 0.0
O108 O 0.77688 0.34085 0.96025 0.0
C109 C 0.82568 0.39819 0.36716 0.0
C110 C 0.81645 0.43042 0.40298 0.0
C111 C 0.82296 0.41087 0.42725 0.0
N112 N 0.82114 0.40975 0.31013 0.0
N113 N 0.81599 0.42928 0.33166 0.0
C114 C 0.82994 0.37371 0.36376 0.0
H115 H 0.82907 0.3667 0.30848 0.0
H116 H 0.85067 0.37946 0.38513 0.0
H117 H 0.81411 0.35654 0.39651 0.0
C118 C 0.87696 0.40507 0.09054 0.0
N119 N 0.8508 0.39302 0.11519 0.0
N120 N 0.85083 0.40356 0.17752 0.0
C121 C 0.87705 0.42224 0.19548 0.0
C122 C 0.89451 0.42413 0.14059 0.0
C123 C 0.88394 0.40169 0.01599 0.0
H124 H 0.87745 0.37961 0.00648 0.0
H125 H 0.90633 0.41481 0.00434 0.0
H126 H 0.8721 0.40735 0.97894 0.0
O127 O 0.79827 0.39265 0.05437 0.0
O128 O 0.79944 0.41286 0.15656 0.0
H129 H 0.87498 0.4518 0.2639 0.0
H130 H 0.90764 0.45204 0.26878 0.0
C131 C 0.88489 0.4388 0.26263 0.0
H132 H 0.87717 0.42453 0.30838 0.0
H133 H 0.81082 0.44084 0.29794 0.0
O134 O 0.82263 0.36155 0.97321 0.0
C135 C 0.79317 0.40872 0.091 0.0
Co136 Co 0.44177 0.8172 0.41095 0.0
Co137 Co 0.42016 0.8233 0.55923 0.0
C138 C 0.4442 0.78562 0.53161 0.0
O139 O 0.45098 0.79261 0.46729 0.0
O140 O 0.43195 0.79558 0.56738 0.0
C141 C 0.47309 0.82478 0.27435 0.0
O142 O 0.49722 0.83488 0.30609 0.0
C143 C 0.4342 0.83723 0.70717 0.0
C144 C 0.3955 0.83205 0.753 0.0
C145 C 0.42196 0.83753 0.77115 0.0
N146 N 0.4158 0.83164 0.65466 0.0
N147 N 0.39282 0.82897 0.68218 0.0
C148 C 0.46218 0.84027 0.69556 0.0
H149 H 0.46542 0.82661 0.73232 0.0
H150 H 0.46473 0.83552 0.64012 0.0
H151 H 0.47841 0.86206 0.70568 0.0
C152 C 0.4724 0.87907 0.42328 0.0
N153 N 0.45661 0.85338 0.45014 0.0
N154 N 0.4473 0.85548 0.5126 0.0
C155 C 0.4571 0.88237 0.52785 0.0
C156 C 0.47344 0.89818 0.47207 0.0
C157 C 0.4845 0.88516 0.35041 0.0
H158 H 0.46831 0.87218 0.31122 0.0
H159 H 0.5013 0.88007 0.34803 0.0
H160 H 0.49343 0.90733 0.33636 0.0
O161 O 0.40117 0.80068 0.40582 0.0
O162 O 0.38444 0.80667 0.50664 0.0
H163 H 0.42502 0.87915 0.59665 0.0
H164 H 0.45284 0.91424 0.58294 0.0
C165 C 0.44774 0.89242 0.58973 0.0
H166 H 0.45809 0.89097 0.6384 0.0
H167 H 0.37494 0.82383 0.65309 0.0
O168 O 0.45124 0.81773 0.30991 0.0
C169 C 0.38094 0.7981 0.44279 0.0
Co170 Co 0.6147 0.43691 0.75166 0.0
Co171 Co 0.58829 0.41161 0.89806 0.0
C172 C 0.65003 0.43897 0.87009 0.0
O173 O 0.64885 0.44596 0.80653 0.0
O174 O 0.6282 0.42558 0.90684 0.0
C175 C 0.63517 0.44195 0.61502 0.0
O176 O 0.64346 0.42565 0.64249 0.0
C177 C 0.58604 0.41897 0.04879 0.0
C178 C 0.55372 0.37758 0.08483 0.0
C179 C 0.57343 0.40363 0.10903 0.0
N180 N 0.57433 0.40281 0.99182 0.0
N181 N 0.55473 0.37819 0.01351 0.0
C182 C 0.61059 0.4477 0.04519 0.0
H183 H 0.61783 0.45359 0.99 0.0
H184 H 0.60474 0.46276 0.0652 0.0
H185 H 0.62762 0.44922 0.07899 0.0
C186 C 0.58089 0.46362 0.77024 0.0
N187 N 0.59233 0.4491 0.7959 0.0
N188 N 0.58126 0.43856 0.85776 0.0
C189 C 0.56283 0.44655 0.87447 0.0
C190 C 0.5617 0.46245 0.8192 0.0
C191 C 0.58489 0.47401 0.69558 0.0
H192 H 0.57942 0.45649 0.65876 0.0
H193 H 0.60707 0.48955 0.68718 0.0
H194 H 0.57193 0.48331 0.68246 0.0
O195 O 0.5917 0.39657 0.73643 0.0
O196 O 0.57164 0.37755 0.83899 0.0
H197 H 0.53237 0.41522 0.94178 0.0
H198 H 0.53324 0.44819 0.94653 0.0
C199 C 0.54594 0.43808 0.94098 0.0
H200 H 0.55996 0.44413 0.98729 0.0
H201 H 0.54308 0.36141 0.97992 0.0
O202 O 0.62427 0.45203 0.65541 0.0
C203 C 0.57554 0.3755 0.77331 0.0
H204 H 0.21374 0.59144 0.97829 0.0
H205 H 0.21383 0.54901 0.16996 0.0
H206 H 0.24112 0.57481 0.91914 0.0
H207 H 0.24086 0.53161 0.10948 0.0
H208 H 0.32686 0.5536 0.01507 0.0
H209 H 0.28842 0.5543 0.07212 0.0
H210 H 0.24539 0.53686 0.87146 0.0
H211 H 0.28465 0.5368 0.8134 0.0
C212 C 0.21924 0.57818 0.00766 0.0
C213 C 0.212 0.57199 0.07945 0.0
C214 C 0.23469 0.56832 0.97321 0.0
C215 C 0.24329 0.55193 0.00952 0.0
C216 C 0.23483 0.54449 0.08027 0.0
C217 C 0.21934 0.55443 0.11493 0.0
C218 C 0.30903 0.5494 0.98306 0.0
C219 C 0.30903 0.54564 0.90939 0.0
C220 C 0.28677 0.54953 0.0161 0.0
C221 C 0.26389 0.54592 0.97635 0.0
C222 C 0.26294 0.54013 0.90338 0.0
C223 C 0.28531 0.53992 0.87016 0.0
H224 H 0.65929 0.23986 0.48533 0.0
H225 H 0.6234 0.19208 0.2953 0.0
H226 H 0.7029 0.26776 0.4237 0.0
H227 H 0.66757 0.2184 0.23448 0.0
H228 H 0.73412 0.29748 0.12331 0.0
H229 H 0.69376 0.26072 0.18273 0.0
H230 H 0.74283 0.27444 0.37242 0.0
H231 H 0.78239 0.31269 0.31379 0.0
C232 C 0.66106 0.23488 0.43081 0.0
C233 C 0.63799 0.21412 0.39478 0.0
C234 C 0.68617 0.25071 0.3953 0.0
C235 C 0.68898 0.24562 0.3234 0.0
C236 C 0.66617 0.22358 0.28899 0.0
C237 C 0.64086 0.20829 0.32397 0.0
C238 C 0.73631 0.29204 0.17709 0.0
C239 C 0.76114 0.30786 0.21428 0.0
C240 C 0.71317 0.27089 0.21148 0.0
C241 C 0.71466 0.26474 0.28333 0.0
C242 C 0.74046 0.27909 0.31807 0.0
C243 C 0.7633 0.30076 0.28429 0.0
H244 H 0.44272 0.77527 0.67246 0.0
H245 H 0.45587 0.74794 0.46939 0.0
H246 H 0.44121 0.73565 0.72917 0.0
H247 H 0.45517 0.70826 0.52709 0.0
H248 H 0.40066 0.62278 0.63592 0.0
H249 H 0.41744 0.66676 0.57658 0.0
H250 H 0.46272 0.70969 0.76507 0.0
H251 H 0.44512 0.66529 0.82584 0.0
C252 C 0.44591 0.76107 0.64001 0.0
C253 C 0.44884 0.76444 0.56609 0.0
C254 C 0.44534 0.73843 0.67284 0.0
C255 C 0.44775 0.71855 0.63268 0.0
C256 C 0.45277 0.72299 0.55937 0.0
C257 C 0.45336 0.74578 0.52633 0.0
C258 C 0.4144 0.64152 0.66484 0.0
C259 C 0.42113 0.64049 0.73624 0.0
C260 C 0.42434 0.66683 0.63027 0.0
C261 C 0.44138 0.69183 0.666 0.0
C262 C 0.44932 0.6908 0.73631 0.0
C263 C 0.43927 0.66537 0.77114 0.0
H264 H 0.66036 0.43584 0.00931 0.0
H265 H 0.69967 0.45454 0.80377 0.0
H266 H 0.7003 0.4363 0.06089 0.0
H267 H 0.74047 0.45581 0.85638 0.0
H268 H 0.77657 0.40339 0.95319 0.0
H269 H 0.74752 0.41916 0.89912 0.0
H270 H 0.74808 0.45992 0.09442 0.0
H271 H 0.77668 0.44328 0.14977 0.0
C272 C 0.67784 0.44068 0.97528 0.0
C273 C 0.6766 0.44461 0.90208 0.0
C274 C 0.70097 0.44124 0.00519 0.0
C275 C 0.72354 0.44582 0.96274 0.0
C276 C 0.7232 0.45178 0.89033 0.0
C277 C 0.69992 0.45122 0.86023 0.0
C278 C 0.77083 0.41599 0.98464 0.0
C279 C 0.77853 0.4216 0.05638 0.0
C280 C 0.75437 0.42535 0.95317 0.0
C281 C 0.74527 0.44067 0.99247 0.0
C282 C 0.75439 0.44777 0.06299 0.0
C283 C 0.77081 0.43829 0.0947 0.0
H284 H 0.36849 0.78446 0.30401 0.0
H285 H 0.33026 0.78016 0.50628 0.0
H286 H 0.32333 0.75616 0.25104 0.0
H287 H 0.28449 0.75216 0.4521 0.0
H288 H 0.22132 0.66555 0.35724 0.0
H289 H 0.26042 0.70499 0.41192 0.0
H290 H 0.27924 0.74939 0.21342 0.0
H291 H 0.24016 0.70915 0.15755 0.0
C292 C 0.35038 0.77786 0.33708 0.0
C293 C 0.35303 0.78411 0.40988 0.0
C294 C 0.32435 0.76187 0.30625 0.0
C295 C 0.30021 0.7517 0.34727 0.0
C296 C 0.30273 0.75937 0.41922 0.0
C297 C 0.32892 0.77545 0.45026 0.0
C298 C 0.23348 0.68384 0.32524 0.0
C299 C 0.22798 0.68397 0.25251 0.0
C300 C 0.25581 0.70668 0.35702 0.0
C301 C 0.27323 0.7303 0.31698 0.0
C302 C 0.26647 0.73129 0.24546 0.0
C303 C 0.24402 0.70832 0.21348 0.0
H304 H 0.52073 0.20569 0.64827 0.0
H305 H 0.5554 0.25662 0.46287 0.0
H306 H 0.51938 0.24364 0.70849 0.0
H307 H 0.55638 0.29546 0.52413 0.0
H308 H 0.5554 0.36354 0.63926 0.0
H309 H 0.53842 0.31998 0.57583 0.0
H310 H 0.551 0.28331 0.76435 0.0
H311 H 0.56578 0.3263 0.82844 0.0
C312 C 0.52764 0.225 0.62017 0.0
C313 C 0.53816 0.22841 0.55121 0.0
C314 C 0.52729 0.24693 0.65491 0.0
C315 C 0.53844 0.27307 0.62229 0.0
C316 C 0.5473 0.27573 0.55124 0.0
C317 C 0.54684 0.25348 0.5158 0.0
C318 C 0.5539 0.34587 0.66723 0.0
C319 C 0.56203 0.3482 0.73846 0.0
C320 C 0.54441 0.32093 0.63077 0.0
C321 C 0.5437 0.29799 0.66411 0.0
C322 C 0.55073 0.30016 0.73663 0.0
C323 C 0.55945 0.32491 0.7736 0.0
H324 H 0.23073 0.65973 0.85693 0.0
H325 H 0.1419 0.61747 0.88612 0.0
H326 H 0.22401 0.64591 0.73286 0.0
H327 H 0.13522 0.60291 0.76274 0.0
H328 H 0.13298 0.59622 0.52179 0.0
H329 H 0.13962 0.61587 0.64029 0.0
H330 H 0.20899 0.60268 0.67206 0.0
H331 H 0.20329 0.58459 0.55202 0.0
C332 C 0.20976 0.6478 0.8367 0.0
C333 C 0.18687 0.63945 0.88164 0.0
C334 C 0.20592 0.63962 0.76574 0.0
C335 C 0.17909 0.62279 0.73822 0.0
C336 C 0.15617 0.6159 0.78209 0.0
C337 C 0.16001 0.62423 0.85299 0.0
C338 C 0.15001 0.5981 0.55343 0.0
C339 C 0.16811 0.58961 0.52681 0.0
C340 C 0.15356 0.60897 0.62185 0.0
C341 C 0.17513 0.61131 0.66534 0.0
C342 C 0.19262 0.60189 0.63937 0.0
C343 C 0.18911 0.59113 0.57094 0.0
H344 H 0.61271 0.20901 0.86405 0.0
H345 H 0.53479 0.1334 0.83254 0.0
H346 H 0.59844 0.21294 0.98337 0.0
H347 H 0.51979 0.13807 0.95044 0.0
H348 H 0.52209 0.14008 0.19709 0.0
H349 H 0.53016 0.13493 0.07298 0.0
H350 H 0.56602 0.22318 0.04285 0.0
H351 H 0.55869 0.2285 0.16772 0.0
C352 C 0.59247 0.19328 0.88262 0.0
C353 C 0.57461 0.17123 0.83855 0.0
C354 C 0.58411 0.19575 0.9505 0.0
C355 C 0.55773 0.17613 0.97581 0.0
C356 C 0.54016 0.15362 0.93231 0.0
C357 C 0.54859 0.15114 0.86441 0.0
C358 C 0.53121 0.15834 0.16376 0.0
C359 C 0.5402 0.18478 0.1925 0.0
C360 C 0.53578 0.15536 0.09248 0.0
C361 C 0.54925 0.17873 0.04847 0.0
C362 C 0.55626 0.20488 0.07598 0.0
C363 C 0.55182 0.20789 0.14734 0.0
H364 H 0.33283 0.57138 0.51395 0.0
H365 H 0.37508 0.52488 0.54373 0.0
H366 H 0.34667 0.57851 0.38998 0.0
H367 H 0.38963 0.53274 0.4204 0.0
H368 H 0.40818 0.61929 0.20988 0.0
H369 H 0.39007 0.60682 0.32979 0.0
H370 H 0.37655 0.52417 0.29766 0.0
H371 H 0.39617 0.53723 0.17922 0.0
C372 C 0.34476 0.56236 0.49387 0.0
C373 C 0.35311 0.54783 0.53895 0.0
C374 C 0.35295 0.5667 0.42297 0.0
C375 C 0.36977 0.55672 0.39564 0.0
C376 C 0.37665 0.54069 0.43962 0.0
C377 C 0.36833 0.53621 0.51048 0.0
C378 C 0.40156 0.59853 0.22869 0.0
C379 C 0.40298 0.57904 0.18448 0.0
C380 C 0.39079 0.59124 0.29704 0.0
C381 C 0.38128 0.56429 0.32286 0.0
C382 C 0.38352 0.54505 0.27932 0.0
C383 C 0.39439 0.5524 0.21096 0.0
H384 H 0.76151 0.3304 0.83067 0.0
H385 H 0.85039 0.37729 0.85996 0.0
H386 H 0.76742 0.34357 0.70616 0.0
H387 H 0.85619 0.39113 0.73628 0.0
H388 H 0.85796 0.3974 0.496 0.0
H389 H 0.85221 0.37771 0.61417 0.0
H390 H 0.78027 0.38667 0.64604 0.0
H391 H 0.78515 0.40479 0.52618 0.0
C392 C 0.78232 0.34318 0.81035 0.0
C393 C 0.80544 0.3531 0.85537 0.0
C394 C 0.78568 0.35095 0.7392 0.0
C395 C 0.81222 0.36889 0.71176 0.0
C396 C 0.83547 0.37726 0.75568 0.0
C397 C 0.83212 0.36935 0.82672 0.0
C398 C 0.84059 0.39457 0.52767 0.0
C399 C 0.82153 0.40185 0.50129 0.0
C400 C 0.83752 0.38367 0.59578 0.0
C401 C 0.8155 0.38017 0.63908 0.0
C402 C 0.79702 0.3884 0.61334 0.0
C403 C 0.80004 0.39917 0.54517 0.0
H404 H 0.43489 0.78421 0.19155 0.0
H405 H 0.50533 0.867 0.18421 0.0
H406 H 0.42482 0.78766 0.06778 0.0
H407 H 0.49443 0.87142 0.06101 0.0
H408 H 0.47584 0.86429 0.8241 0.0
H409 H 0.49093 0.85923 0.94083 0.0
H410 H 0.40533 0.80972 0.00544 0.0
H411 H 0.39037 0.8126 0.88686 0.0
C412 C 0.44843 0.80304 0.16276 0.0
C413 C 0.47091 0.82528 0.19685 0.0
C414 C 0.44245 0.80525 0.09217 0.0
C415 C 0.45833 0.8301 0.05458 0.0
C416 C 0.48178 0.8519 0.08793 0.0
C417 C 0.48814 0.84941 0.15842 0.0
C418 C 0.4602 0.85156 0.86215 0.0
C419 C 0.43184 0.83781 0.84455 0.0
C420 C 0.46891 0.84916 0.93004 0.0
C421 C 0.44943 0.83348 0.98252 0.0
C422 C 0.42105 0.8211 0.96591 0.0
C423 C 0.41241 0.82314 0.8979 0.0
H424 H 0.58851 0.45255 0.17785 0.0
H425 H 0.57852 0.37127 0.2081 0.0
H426 H 0.60842 0.46606 0.29606 0.0
H427 H 0.59686 0.38413 0.32793 0.0
H428 H 0.65348 0.42029 0.5129 0.0
H429 H 0.64021 0.41335 0.38836 0.0
H430 H 0.5951 0.45701 0.41822 0.0
H431 H 0.60908 0.46472 0.54194 0.0
C432 C 0.59081 0.43766 0.2095 0.0
C433 C 0.58271 0.41113 0.18309 0.0
C434 C 0.60184 0.44526 0.27767 0.0
C435 C 0.60468 0.42633 0.32102 0.0
C436 C 0.59566 0.39946 0.29524 0.0
C437 C 0.58475 0.39194 0.22703 0.0
C438 C 0.64123 0.42892 0.49252 0.0
C439 C 0.63203 0.44272 0.53751 0.0
C440 C 0.63338 0.42469 0.42134 0.0
C441 C 0.61609 0.43408 0.39379 0.0
C442 C 0.60846 0.44953 0.43767 0.0
C443 C 0.61645 0.4539 0.50876 0.0
H444 H 0.93746 0.41675 0.10138 0.0
H445 H 0.91751 0.47966 0.1583 0.0
H446 H 0.98626 0.45203 0.09162 0.0
H447 H 0.96623 0.51447 0.15703 0.0
H448 H 0.05418 0.57734 0.11754 0.0
H449 H 0.00582 0.54246 0.09777 0.0
H450 H 0.0241 0.47843 0.15959 0.0
H451 H 0.0727 0.51309 0.17064 0.0
C452 C 0.94364 0.43818 0.11208 0.0
C453 C 0.92393 0.4455 0.13175 0.0
C454 C 0.97165 0.45841 0.1076 0.0
C455 C 0.98057 0.48627 0.12468 0.0
C456 C 0.96047 0.49348 0.14248 0.0
C457 C 0.93247 0.47341 0.14469 0.0
C458 C 0.04776 0.5557 0.12539 0.0
C459 C 0.06697 0.54788 0.14653 0.0
C460 C 0.01996 0.53566 0.11513 0.0
C461 C 0.01065 0.50741 0.128 0.0
C462 C 0.03024 0.49975 0.148 0.0
C463 C 0.05811 0.51971 0.15593 0.0
H464 H 0.47546 0.0525 0.45964 0.0
H465 H 0.56242 0.0786 0.47388 0.0
H466 H 0.46429 0.00414 0.44875 0.0
H467 H 0.55142 0.03039 0.46368 0.0
H468 H 0.51285 0.9399 0.55043 0.0
H469 H 0.52694 0.98909 0.54429 0.0
H470 H 0.47139 0.97213 0.36731 0.0
H471 H 0.45734 0.92287 0.374 0.0
C472 C 0.49211 0.04779 0.45982 0.0
C473 C 0.51967 0.06893 0.46856 0.0
C474 C 0.48581 0.02027 0.45332 0.0
C475 C 0.50702 0.0136 0.45578 0.0
C476 C 0.53467 0.03496 0.46254 0.0
C477 C 0.54095 0.06243 0.46847 0.0
C478 C 0.50417 0.94694 0.50949 0.0
C479 C 0.48438 0.92801 0.46214 0.0
C480 C 0.51218 0.97495 0.50584 0.0
C481 C 0.50021 0.98434 0.45529 0.0
C482 C 0.48079 0.96537 0.40695 0.0
C483 C 0.47298 0.93737 0.41027 0.0
H484 H 0.47829 0.55749 0.83094 0.0
H485 H 0.41219 0.47503 0.78173 0.0
H486 H 0.51167 0.54181 0.82533 0.0
H487 H 0.44587 0.4597 0.76718 0.0
H488 H 0.50588 0.43176 0.83641 0.0
H489 H 0.47245 0.44738 0.83054 0.0
H490 H 0.53745 0.52838 0.76279 0.0
H491 H 0.57129 0.51329 0.77762 0.0
C492 C 0.47101 0.53598 0.81809 0.0
C493 C 0.44267 0.51727 0.80847 0.0
C494 C 0.49024 0.52703 0.81333 0.0
C495 C 0.48169 0.4993 0.79617 0.0
C496 C 0.45332 0.48099 0.78258 0.0
C497 C 0.43398 0.4898 0.78975 0.0
C498 C 0.513 0.45305 0.82156 0.0
C499 C 0.54119 0.47155 0.80918 0.0
C500 C 0.49371 0.46193 0.81658 0.0
C501 C 0.50202 0.48933 0.79648 0.0
C502 C 0.5302 0.50739 0.78044 0.0
C503 C 0.54962 0.49869 0.78782 0.0
loop_
_geom_bond_atom_site_label_1
_geom_bond_atom_site_label_2
_geom_bond_distance
_geom_bond_site_symmetry_2
_ccdc_geom_bond_type
Co0 O3 1.970 . S
Co0 N17 1.989 . S
Co0 O25 1.967 . S
Co0 O32 1.920 1_554 S
Co1 O4 1.966 . S
Co1 N10 2.022 . S
Co1 N18 1.993 . S
Co1 O26 1.941 . S
C2 O3 1.258 . S
C2 O4 1.263 . S
O3 Co0 1.970 . S
O3 C2 1.258 . S
O4 Co1 1.966 . S
O4 C2 1.263 . S
C5 O6 1.235 . S
C5 O32 1.289 . S
O6 C5 1.235 . S
C7 C9 1.400 . S
C7 N10 1.351 . S
C7 C12 1.501 . S
C8 C9 1.387 . S
C8 N11 1.341 . S
C9 C7 1.400 . S
C9 C8 1.387 . S
N10 Co1 2.022 . S
N10 C7 1.351 . S
N10 N11 1.365 . S
N11 C8 1.341 . S
N11 N10 1.365 . S
N11 H31 0.862 . S
C12 C7 1.501 . S
C12 H13 0.961 . S
C12 H14 0.961 . S
C12 H15 0.960 . S
H13 C12 0.961 . S
H14 C12 0.961 . S
H15 C12 0.960 . S
C16 N17 1.342 . S
C16 C20 1.401 . S
C16 C21 1.499 . S
N17 Co0 1.989 . S
N17 C16 1.342 . S
N17 N18 1.388 . S
N18 Co1 1.993 . S
N18 N17 1.388 . S
N18 C19 1.346 . S
C19 N18 1.346 . S
C19 C20 1.396 . S
C19 C29 1.510 . S
C20 C16 1.401 . S
C20 C19 1.396 . S
C21 C16 1.499 . S
C21 H22 0.959 1_554 S
C21 H23 0.960 . S
C21 H24 0.961 1_554 S
H22 C21 0.959 1_556 S
H23 C21 0.960 . S
H24 C21 0.961 1_556 S
O25 Co0 1.967 . S
O25 C33 1.258 . S
O26 Co1 1.941 . S
O26 C33 1.266 . S
H27 C29 0.959 . S
H28 C29 0.961 . S
C29 C19 1.510 . S
C29 H27 0.959 . S
C29 H28 0.961 . S
C29 H30 0.960 . S
H30 C29 0.960 . S
H31 N11 0.862 . S
O32 Co0 1.920 1_556 S
O32 C5 1.289 . S
C33 O25 1.258 . S
C33 O26 1.266 . S
Co34 O37 1.970 . S
Co34 N51 1.989 . S
Co34 O59 1.967 . S
Co34 O66 1.920 . S
Co35 O38 1.966 . S
Co35 N44 2.022 . S
Co35 N52 1.993 . S
Co35 O60 1.941 . S
C36 O37 1.258 . S
C36 O38 1.263 . S
O37 Co34 1.970 . S
O37 C36 1.258 . S
O38 Co35 1.966 . S
O38 C36 1.263 . S
C39 O40 1.235 . S
C39 O66 1.289 . S
O40 C39 1.235 . S
C41 C43 1.400 . S
C41 N44 1.351 . S
C41 C46 1.501 . S
C42 C43 1.387 . S
C42 N45 1.341 . S
C43 C41 1.400 . S
C43 C42 1.387 . S
N44 Co35 2.022 . S
N44 C41 1.351 . S
N44 N45 1.365 . S
N45 C42 1.341 . S
N45 N44 1.365 . S
N45 H65 0.862 . S
C46 C41 1.501 . S
C46 H47 0.961 . S
C46 H48 0.961 . S
C46 H49 0.960 . S
H47 C46 0.961 . S
H48 C46 0.961 . S
H49 C46 0.960 . S
C50 N51 1.342 . S
C50 C54 1.401 . S
C50 C55 1.499 . S
N51 Co34 1.989 . S
N51 C50 1.342 . S
N51 N52 1.388 . S
N52 Co35 1.993 . S
N52 N51 1.388 . S
N52 C53 1.346 . S
C53 N52 1.346 . S
C53 C54 1.396 . S
C53 C63 1.510 . S
C54 C50 1.401 . S
C54 C53 1.396 . S
C55 C50 1.499 . S
C55 H56 0.959 . S
C55 H57 0.960 . S
C55 H58 0.961 . S
H56 C55 0.959 . S
H57 C55 0.960 . S
H58 C55 0.961 . S
O59 Co34 1.967 . S
O59 C67 1.258 . S
O60 Co35 1.941 . S
O60 C67 1.266 . S
H61 C63 0.959 . S
H62 C63 0.961 . S
C63 C53 1.510 . S
C63 H61 0.959 . S
C63 H62 0.961 . S
C63 H64 0.960 . S
H64 C63 0.960 . S
H65 N45 0.862 . S
O66 Co34 1.920 . S
O66 C39 1.289 . S
C67 O59 1.258 . S
C67 O60 1.266 . S
Co68 O71 1.970 . S
Co68 N85 1.989 . S
Co68 O93 1.967 . S
Co68 O100 1.920 . S
Co69 O72 1.966 . S
Co69 N78 2.022 1_556 S
Co69 N86 1.993 . S
Co69 O94 1.941 . S
C70 O71 1.258 . S
C70 O72 1.263 . S
O71 Co68 1.970 . S
O71 C70 1.258 . S
O72 Co69 1.966 . S
O72 C70 1.263 . S
C73 O74 1.235 . S
C73 O100 1.289 . S
O74 C73 1.235 . S
C75 C77 1.400 . S
C75 N78 1.351 . S
C75 C80 1.501 . S
C76 C77 1.387 . S
C76 N79 1.341 . S
C77 C75 1.400 . S
C77 C76 1.387 . S
N78 Co69 2.022 1_554 S
N78 C75 1.351 . S
N78 N79 1.365 . S
N79 C76 1.341 . S
N79 N78 1.365 . S
N79 H99 0.870 . S
C80 C75 1.501 . S
C80 H81 0.961 . S
C80 H82 0.961 . S
C80 H83 0.960 . S
H81 C80 0.961 . S
H82 C80 0.961 . S
H83 C80 0.960 . S
C84 N85 1.342 . S
C84 C88 1.401 . S
C84 C89 1.499 . S
N85 Co68 1.989 . S
N85 C84 1.342 . S
N85 N86 1.388 . S
N86 Co69 1.993 . S
N86 N85 1.388 . S
N86 C87 1.346 . S
C87 N86 1.346 . S
C87 C88 1.396 . S
C87 C97 1.510 . S
C88 C84 1.401 . S
C88 C87 1.396 . S
C89 C84 1.499 . S
C89 H90 0.959 . S
C89 H91 0.960 . S
C89 H92 0.961 . S
H90 C89 0.959 . S
H91 C89 0.960 . S
H92 C89 0.961 . S
O93 Co68 1.967 . S
O93 C101 1.258 . S
O94 Co69 1.941 . S
O94 C101 1.266 . S
H95 C97 0.959 . S
H96 C97 0.961 . S
C97 C87 1.510 . S
C97 H95 0.959 . S
C97 H96 0.961 . S
C97 H98 0.960 . S
H98 C97 0.960 . S
H99 N79 0.870 . S
O100 Co68 1.920 . S
O100 C73 1.289 . S
C101 O93 1.258 . S
C101 O94 1.266 . S
Co102 O105 1.970 . S
Co102 N119 1.989 . S
Co102 O127 1.967 . S
Co102 O134 1.920 1_554 S
Co103 O106 1.966 . S
Co103 N112 2.022 . S
Co103 N120 1.993 . S
Co103 O128 1.941 . S
C104 O105 1.258 . S
C104 O106 1.263 . S
O105 Co102 1.970 . S
O105 C104 1.258 . S
O106 Co103 1.966 . S
O106 C104 1.263 . S
C107 O108 1.235 . S
C107 O134 1.289 . S
O108 C107 1.235 . S
C109 C111 1.400 . S
C109 N112 1.351 . S
C109 C114 1.501 . S
C110 C111 1.387 . S
C110 N113 1.341 . S
C111 C109 1.400 . S
C111 C110 1.387 . S
N112 Co103 2.022 . S
N112 C109 1.351 . S
N112 N113 1.365 . S
N113 C110 1.341 . S
N113 N112 1.365 . S
N113 H133 0.862 . S
C114 C109 1.501 . S
C114 H115 0.961 . S
C114 H116 0.961 . S
C114 H117 0.960 . S
H115 C114 0.961 . S
H116 C114 0.961 . S
H117 C114 0.960 . S
C118 N119 1.342 . S
C118 C122 1.401 . S
C118 C123 1.499 . S
N119 Co102 1.989 . S
N119 C118 1.342 . S
N119 N120 1.388 . S
N120 Co103 1.993 . S
N120 N119 1.388 . S
N120 C121 1.346 . S
C121 N120 1.346 . S
C121 C122 1.396 . S
C121 C131 1.510 . S
C122 C118 1.401 . S
C122 C121 1.396 . S
C123 C118 1.499 . S
C123 H124 0.959 1_554 S
C123 H125 0.960 . S
C123 H126 0.961 1_554 S
H124 C123 0.959 1_556 S
H125 C123 0.960 . S
H126 C123 0.961 1_556 S
O127 Co102 1.967 . S
O127 C135 1.258 . S
O128 Co103 1.941 . S
O128 C135 1.266 . S
H129 C131 0.959 . S
H130 C131 0.961 . S
C131 C121 1.510 . S
C131 H129 0.959 . S
C131 H130 0.961 . S
C131 H132 0.960 . S
H132 C131 0.960 . S
H133 N113 0.862 . S
O134 Co102 1.920 1_556 S
O134 C107 1.289 . S
C135 O127 1.258 . S
C135 O128 1.266 . S
Co136 O139 1.970 . S
Co136 N153 1.989 . S
Co136 O161 1.967 . S
Co136 O168 1.920 . S
Co137 O140 1.966 . S
Co137 N146 2.022 . S
Co137 N154 1.993 . S
Co137 O162 1.941 . S
C138 O139 1.258 . S
C138 O140 1.263 . S
O139 Co136 1.970 . S
O139 C138 1.258 . S
O140 Co137 1.966 . S
O140 C138 1.263 . S
C141 O142 1.235 . S
C141 O168 1.289 . S
O142 C141 1.235 . S
C143 C145 1.400 . S
C143 N146 1.351 . S
C143 C148 1.501 . S
C144 C145 1.387 . S
C144 N147 1.341 . S
C145 C143 1.400 . S
C145 C144 1.387 . S
N146 Co137 2.022 . S
N146 C143 1.351 . S
N146 N147 1.365 . S
N147 C144 1.341 . S
N147 N146 1.365 . S
N147 H167 0.862 . S
C148 C143 1.501 . S
C148 H149 0.961 . S
C148 H150 0.961 . S
C148 H151 0.960 . S
H149 C148 0.961 . S
H150 C148 0.961 . S
H151 C148 0.960 . S
C152 N153 1.342 . S
C152 C156 1.401 . S
C152 C157 1.499 . S
N153 Co136 1.989 . S
N153 C152 1.342 . S
N153 N154 1.388 . S
N154 Co137 1.993 . S
N154 N153 1.388 . S
N154 C155 1.346 . S
C155 N154 1.346 . S
C155 C156 1.396 . S
C155 C165 1.510 . S
C156 C152 1.401 . S
C156 C155 1.396 . S
C157 C152 1.499 . S
C157 H158 0.959 . S
C157 H159 0.960 . S
C157 H160 0.961 . S
H158 C157 0.959 . S
H159 C157 0.960 . S
H160 C157 0.961 . S
O161 Co136 1.967 . S
O161 C169 1.258 . S
O162 Co137 1.941 . S
O162 C169 1.266 . S
H163 C165 0.959 . S
H164 C165 0.961 . S
C165 C155 1.510 . S
C165 H163 0.959 . S
C165 H164 0.961 . S
C165 H166 0.960 . S
H166 C165 0.960 . S
H167 N147 0.862 . S
O168 Co136 1.920 . S
O168 C141 1.289 . S
C169 O161 1.258 . S
C169 O162 1.266 . S
Co170 O173 1.970 . S
Co170 N187 1.989 . S
Co170 O195 1.967 . S
Co170 O202 1.920 . S
Co171 O174 1.966 . S
Co171 N180 2.022 1_556 S
Co171 N188 1.993 . S
Co171 O196 1.941 . S
C172 O173 1.258 . S
C172 O174 1.263 . S
O173 Co170 1.970 . S
O173 C172 1.258 . S
O174 Co171 1.966 . S
O174 C172 1.263 . S
C175 O176 1.235 . S
C175 O202 1.289 . S
O176 C175 1.235 . S
C177 C179 1.400 . S
C177 N180 1.351 . S
C177 C182 1.501 . S
C178 C179 1.387 . S
C178 N181 1.341 . S
C179 C177 1.400 . S
C179 C178 1.387 . S
N180 Co171 2.022 1_554 S
N180 C177 1.351 . S
N180 N181 1.365 . S
N181 C178 1.341 . S
N181 N180 1.365 . S
N181 H201 0.870 . S
C182 C177 1.501 . S
C182 H183 0.961 . S
C182 H184 0.961 . S
C182 H185 0.960 . S
H183 C182 0.961 . S
H184 C182 0.961 . S
H185 C182 0.960 . S
C186 N187 1.342 . S
C186 C190 1.401 . S
C186 C191 1.499 . S
N187 Co170 1.989 . S
N187 C186 1.342 . S
N187 N188 1.388 . S
N188 Co171 1.993 . S
N188 N187 1.388 . S
N188 C189 1.346 . S
C189 N188 1.346 . S
C189 C190 1.396 . S
C189 C199 1.510 . S
C190 C186 1.401 . S
C190 C189 1.396 . S
C191 C186 1.499 . S
C191 H192 0.959 . S
C191 H193 0.960 . S
C191 H194 0.961 . S
H192 C191 0.959 . S
H193 C191 0.960 . S
H194 C191 0.961 . S
O195 Co170 1.967 . S
O195 C203 1.258 . S
O196 Co171 1.941 . S
O196 C203 1.266 . S
H197 C199 0.959 . S
H198 C199 0.961 . S
C199 C189 1.510 . S
C199 H197 0.959 . S
C199 H198 0.961 . S
C199 H200 0.960 . S
H200 C199 0.960 . S
H201 N181 0.870 . S
O202 Co170 1.920 . S
O202 C175 1.289 . S
C203 O195 1.258 . S
C203 O196 1.266 . S
H204 C212 0.950 . S
H205 C217 0.950 . S
H206 C214 0.950 . S
H207 C216 0.950 . S
H208 C218 0.950 . S
H209 C220 0.950 1_554 S
H210 C222 0.950 . S
H211 C223 0.950 . S
C212 H204 0.950 . S
C212 C213 1.386 . S
C212 C214 1.391 1_554 S
C213 C212 1.386 . S
C213 C217 1.393 . S
C214 H206 0.950 . S
C214 C212 1.391 1_556 S
C214 C215 1.400 1_556 S
C215 C214 1.400 1_554 S
C215 C216 1.398 . S
C215 C221 1.491 1_554 S
C216 H207 0.950 . S
C216 C215 1.398 . S
C216 C217 1.391 . S
C217 H205 0.950 . S
C217 C213 1.393 . S
C217 C216 1.391 . S
C218 H208 0.950 . S
C218 C219 1.386 . S
C218 C220 1.391 . S
C219 C218 1.386 . S
C219 C223 1.393 . S
C220 H209 0.950 1_556 S
C220 C218 1.391 . S
C220 C221 1.400 . S
C221 C215 1.491 1_556 S
C221 C220 1.400 . S
C221 C222 1.398 . S
C222 H210 0.950 . S
C222 C221 1.398 . S
C222 C223 1.391 . S
C223 H211 0.950 . S
C223 C219 1.393 . S
C223 C222 1.391 . S
H224 C232 0.950 . S
H225 C237 0.950 . S
H226 C234 0.950 . S
H227 C236 0.950 . S
H228 C238 0.950 . S
H229 C240 0.950 . S
H230 C242 0.950 . S
H231 C243 0.950 . S
C232 H224 0.950 . S
C232 C233 1.386 . S
C232 C234 1.391 . S
C233 C232 1.386 . S
C233 C237 1.393 . S
C234 H226 0.950 . S
C234 C232 1.391 . S
C234 C235 1.400 . S
C235 C234 1.400 . S
C235 C236 1.398 . S
C235 C241 1.491 . S
C236 H227 0.950 . S
C236 C235 1.398 . S
C236 C237 1.391 . S
C237 H225 0.950 . S
C237 C233 1.393 . S
C237 C236 1.391 . S
C238 H228 0.950 . S
C238 C239 1.386 . S
C238 C240 1.391 . S
C239 C238 1.386 . S
C239 C243 1.393 . S
C240 H229 0.950 . S
C240 C238 1.391 . S
C240 C241 1.400 . S
C241 C235 1.491 . S
C241 C240 1.400 . S
C241 C242 1.398 . S
C242 H230 0.950 . S
C242 C241 1.398 . S
C242 C243 1.391 . S
C243 H231 0.950 . S
C243 C239 1.393 . S
C243 C242 1.391 . S
H244 C252 0.950 . S
H245 C257 0.950 . S
H246 C254 0.950 . S
H247 C256 0.950 . S
H248 C258 0.950 . S
H249 C260 0.950 . S
H250 C262 0.950 . S
H251 C263 0.950 . S
C252 H244 0.950 . S
C252 C253 1.386 . S
C252 C254 1.391 . S
C253 C252 1.386 . S
C253 C257 1.393 . S
C254 H246 0.950 . S
C254 C252 1.391 . S
C254 C255 1.400 . S
C255 C254 1.400 . S
C255 C256 1.398 . S
C255 C261 1.491 . S
C256 H247 0.950 . S
C256 C255 1.398 . S
C256 C257 1.391 . S
C257 H245 0.950 . S
C257 C253 1.393 . S
C257 C256 1.391 . S
C258 H248 0.950 . S
C258 C259 1.386 . S
C258 C260 1.391 . S
C259 C258 1.386 . S
C259 C263 1.393 . S
C260 H249 0.950 . S
C260 C258 1.391 . S
C260 C261 1.400 . S
C261 C255 1.491 . S
C261 C260 1.400 . S
C261 C262 1.398 . S
C262 H250 0.950 . S
C262 C261 1.398 . S
C262 C263 1.391 . S
C263 H251 0.950 . S
C263 C259 1.393 . S
C263 C262 1.391 . S
H264 C272 0.950 . S
H265 C277 0.950 . S
H266 C274 0.950 . S
H267 C276 0.950 . S
H268 C278 0.950 . S
H269 C280 0.951 . S
H270 C282 0.950 . S
H271 C283 0.950 . S
C272 H264 0.950 . S
C272 C273 1.386 . S
C272 C274 1.391 . S
C273 C272 1.386 . S
C273 C277 1.393 . S
C274 H266 0.950 . S
C274 C272 1.391 . S
C274 C275 1.400 . S
C275 C274 1.400 . S
C275 C276 1.398 . S
C275 C281 1.491 1_556 S
C276 H267 0.950 . S
C276 C275 1.398 . S
C276 C277 1.391 . S
C277 H265 0.950 . S
C277 C273 1.393 . S
C277 C276 1.391 . S
C278 H268 0.950 . S
C278 C279 1.386 . S
C278 C280 1.391 1_554 S
C279 C278 1.386 . S
C279 C283 1.393 . S
C280 H269 0.951 . S
C280 C278 1.391 1_556 S
C280 C281 1.400 1_556 S
C281 C275 1.491 1_554 S
C281 C280 1.400 1_554 S
C281 C282 1.398 . S
C282 H270 0.950 . S
C282 C281 1.398 . S
C282 C283 1.391 . S
C283 H271 0.950 . S
C283 C279 1.393 . S
C283 C282 1.391 . S
H284 C292 0.950 . S
H285 C297 0.950 . S
H286 C294 0.950 . S
H287 C296 0.950 . S
H288 C298 0.950 . S
H289 C300 0.950 . S
H290 C302 0.950 . S
H291 C303 0.950 . S
C292 H284 0.950 . S
C292 C293 1.386 . S
C292 C294 1.391 . S
C293 C292 1.386 . S
C293 C297 1.393 . S
C294 H286 0.950 . S
C294 C292 1.391 . S
C294 C295 1.400 . S
C295 C294 1.400 . S
C295 C296 1.398 . S
C295 C301 1.491 . S
C296 H287 0.950 . S
C296 C295 1.398 . S
C296 C297 1.391 . S
C297 H285 0.950 . S
C297 C293 1.393 . S
C297 C296 1.391 . S
C298 H288 0.950 . S
C298 C299 1.386 . S
C298 C300 1.391 . S
C299 C298 1.386 . S
C299 C303 1.393 . S
C300 H289 0.950 . S
C300 C298 1.391 . S
C300 C301 1.400 . S
C301 C295 1.491 . S
C301 C300 1.400 . S
C301 C302 1.398 . S
C302 H290 0.950 . S
C302 C301 1.398 . S
C302 C303 1.391 . S
C303 H291 0.950 . S
C303 C299 1.393 . S
C303 C302 1.391 . S
H304 C312 0.950 . S
H305 C317 0.950 . S
H306 C314 0.950 . S
H307 C316 0.950 . S
H308 C318 0.950 . S
H309 C320 0.950 . S
H310 C322 0.950 . S
H311 C323 0.950 . S
C312 H304 0.950 . S
C312 C313 1.386 . S
C312 C314 1.391 . S
C313 C312 1.386 . S
C313 C317 1.393 . S
C314 H306 0.950 . S
C314 C312 1.391 . S
C314 C315 1.400 . S
C315 C314 1.400 . S
C315 C316 1.398 . S
C315 C321 1.491 . S
C316 H307 0.950 . S
C316 C315 1.398 . S
C316 C317 1.391 . S
C317 H305 0.950 . S
C317 C313 1.393 . S
C317 C316 1.391 . S
C318 H308 0.950 . S
C318 C319 1.386 . S
C318 C320 1.391 . S
C319 C318 1.386 . S
C319 C323 1.393 . S
C320 H309 0.950 . S
C320 C318 1.391 . S
C320 C321 1.400 . S
C321 C315 1.491 . S
C321 C320 1.400 . S
C321 C322 1.398 . S
C322 H310 0.950 . S
C322 C321 1.398 . S
C322 C323 1.391 . S
C323 H311 0.950 . S
C323 C319 1.393 . S
C323 C322 1.391 . S
H324 C332 0.950 . S
H325 C337 0.950 . S
H326 C334 0.950 . S
H327 C336 0.950 . S
H328 C338 0.950 . S
H329 C340 0.950 . S
H330 C342 0.950 . S
H331 C343 0.950 . S
C332 H324 0.950 . S
C332 C333 1.386 . S
C332 C334 1.391 . S
C333 C332 1.386 . S
C333 C337 1.393 . S
C334 H326 0.950 . S
C334 C332 1.391 . S
C334 C335 1.400 . S
C335 C334 1.400 . S
C335 C336 1.398 . S
C335 C341 1.491 . S
C336 H327 0.950 . S
C336 C335 1.398 . S
C336 C337 1.391 . S
C337 H325 0.950 . S
C337 C333 1.393 . S
C337 C336 1.391 . S
C338 H328 0.950 . S
C338 C339 1.386 . S
C338 C340 1.391 . S
C339 C338 1.386 . S
C339 C343 1.393 . S
C340 H329 0.950 . S
C340 C338 1.391 . S
C340 C341 1.400 . S
C341 C335 1.491 . S
C341 C340 1.400 . S
C341 C342 1.398 . S
C342 H330 0.950 . S
C342 C341 1.398 . S
C342 C343 1.391 . S
C343 H331 0.950 . S
C343 C339 1.393 . S
C343 C342 1.391 . S
H344 C352 0.950 . S
H345 C357 0.950 . S
H346 C354 0.950 . S
H347 C356 0.950 1_554 S
H348 C358 0.950 . S
H349 C360 0.950 . S
H350 C362 0.950 . S
H351 C363 0.950 . S
C352 H344 0.950 . S
C352 C353 1.386 . S
C352 C354 1.391 . S
C353 C352 1.386 . S
C353 C357 1.393 . S
C354 H346 0.950 . S
C354 C352 1.391 . S
C354 C355 1.400 . S
C355 C354 1.400 . S
C355 C356 1.398 . S
C355 C361 1.491 1_556 S
C356 H347 0.950 1_556 S
C356 C355 1.398 . S
C356 C357 1.391 . S
C357 H345 0.950 . S
C357 C353 1.393 . S
C357 C356 1.391 . S
C358 H348 0.950 . S
C358 C359 1.386 . S
C358 C360 1.391 . S
C359 C358 1.386 . S
C359 C363 1.393 . S
C360 H349 0.950 . S
C360 C358 1.391 . S
C360 C361 1.400 . S
C361 C355 1.491 1_554 S
C361 C360 1.400 . S
C361 C362 1.398 . S
C362 H350 0.950 . S
C362 C361 1.398 . S
C362 C363 1.391 . S
C363 H351 0.950 . S
C363 C359 1.393 . S
C363 C362 1.391 . S
H364 C372 0.950 . S
H365 C377 0.950 . S
H366 C374 0.950 . S
H367 C376 0.950 . S
H368 C378 0.950 . S
H369 C380 0.950 . S
H370 C382 0.950 . S
H371 C383 0.950 . S
C372 H364 0.950 . S
C372 C373 1.386 . S
C372 C374 1.391 . S
C373 C372 1.386 . S
C373 C377 1.393 . S
C374 H366 0.950 . S
C374 C372 1.391 . S
C374 C375 1.400 . S
C375 C374 1.400 . S
C375 C376 1.398 . S
C375 C381 1.491 . S
C376 H367 0.950 . S
C376 C375 1.398 . S
C376 C377 1.391 . S
C377 H365 0.950 . S
C377 C373 1.393 . S
C377 C376 1.391 . S
C378 H368 0.950 . S
C378 C379 1.386 . S
C378 C380 1.391 . S
C379 C378 1.386 . S
C379 C383 1.393 . S
C380 H369 0.950 . S
C380 C378 1.391 . S
C380 C381 1.400 . S
C381 C375 1.491 . S
C381 C380 1.400 . S
C381 C382 1.398 . S
C382 H370 0.950 . S
C382 C381 1.398 . S
C382 C383 1.391 . S
C383 H371 0.950 . S
C383 C379 1.393 . S
C383 C382 1.391 . S
H384 C392 0.950 . S
H385 C397 0.950 . S
H386 C394 0.950 . S
H387 C396 0.950 . S
H388 C398 0.950 . S
H389 C400 0.950 . S
H390 C402 0.950 . S
H391 C403 0.950 . S
C392 H384 0.950 . S
C392 C393 1.386 . S
C392 C394 1.391 . S
C393 C392 1.386 . S
C393 C397 1.393 . S
C394 H386 0.950 . S
C394 C392 1.391 . S
C394 C395 1.400 . S
C395 C394 1.400 . S
C395 C396 1.398 . S
C395 C401 1.491 . S
C396 H387 0.950 . S
C396 C395 1.398 . S
C396 C397 1.391 . S
C397 H385 0.950 . S
C397 C393 1.393 . S
C397 C396 1.391 . S
C398 H388 0.950 . S
C398 C399 1.386 . S
C398 C400 1.391 . S
C399 C398 1.386 . S
C399 C403 1.393 . S
C400 H389 0.950 . S
C400 C398 1.391 . S
C400 C401 1.400 . S
C401 C395 1.491 . S
C401 C400 1.400 . S
C401 C402 1.398 . S
C402 H390 0.950 . S
C402 C401 1.398 . S
C402 C403 1.391 . S
C403 H391 0.950 . S
C403 C399 1.393 . S
C403 C402 1.391 . S
H404 C412 0.950 . S
H405 C417 0.950 . S
H406 C414 0.950 . S
H407 C416 0.950 . S
H408 C418 0.950 . S
H409 C420 0.950 . S
H410 C422 0.950 . S
H411 C423 0.950 . S
C412 H404 0.950 . S
C412 C413 1.386 . S
C412 C414 1.391 . S
C413 C412 1.386 . S
C413 C417 1.393 . S
C414 H406 0.950 . S
C414 C412 1.391 . S
C414 C415 1.400 . S
C415 C414 1.400 . S
C415 C416 1.398 . S
C415 C421 1.491 1_554 S
C416 H407 0.950 . S
C416 C415 1.398 . S
C416 C417 1.391 . S
C417 H405 0.950 . S
C417 C413 1.393 . S
C417 C416 1.391 . S
C418 H408 0.950 . S
C418 C419 1.386 . S
C418 C420 1.391 . S
C419 C418 1.386 . S
C419 C423 1.393 . S
C420 H409 0.950 . S
C420 C418 1.391 . S
C420 C421 1.400 . S
C421 C415 1.491 1_556 S
C421 C420 1.400 . S
C421 C422 1.398 . S
C422 H410 0.950 . S
C422 C421 1.398 . S
C422 C423 1.391 . S
C423 H411 0.950 . S
C423 C419 1.393 . S
C423 C422 1.391 . S
H424 C432 0.950 . S
H425 C437 0.950 . S
H426 C434 0.950 . S
H427 C436 0.950 . S
H428 C438 0.950 . S
H429 C440 0.950 . S
H430 C442 0.950 . S
H431 C443 0.950 . S
C432 H424 0.950 . S
C432 C433 1.386 . S
C432 C434 1.391 . S
C433 C432 1.386 . S
C433 C437 1.393 . S
C434 H426 0.950 . S
C434 C432 1.391 . S
C434 C435 1.400 . S
C435 C434 1.400 . S
C435 C436 1.398 . S
C435 C441 1.491 . S
C436 H427 0.950 . S
C436 C435 1.398 . S
C436 C437 1.391 . S
C437 H425 0.950 . S
C437 C433 1.393 . S
C437 C436 1.391 . S
C438 H428 0.950 . S
C438 C439 1.386 . S
C438 C440 1.391 . S
C439 C438 1.386 . S
C439 C443 1.393 . S
C440 H429 0.950 . S
C440 C438 1.391 . S
C440 C441 1.400 . S
C441 C435 1.491 . S
C441 C440 1.400 . S
C441 C442 1.398 . S
C442 H430 0.950 . S
C442 C441 1.398 . S
C442 C443 1.391 . S
C443 H431 0.950 . S
C443 C439 1.393 . S
C443 C442 1.391 . S
H444 C452 0.950 . S
H445 C457 0.950 . S
H446 C454 0.950 . S
H447 C456 0.950 . S
H448 C458 0.950 . S
H449 C460 0.950 . S
H450 C462 0.950 . S
H451 C463 0.950 . S
C452 H444 0.950 . S
C452 C453 1.386 . S
C452 C454 1.391 . S
C453 C452 1.386 . S
C453 C457 1.393 . S
C454 H446 0.950 . S
C454 C452 1.391 . S
C454 C455 1.400 . S
C455 C454 1.400 . S
C455 C456 1.398 . S
C455 C461 1.491 1_655 S
C456 H447 0.950 . S
C456 C455 1.398 . S
C456 C457 1.391 . S
C457 H445 0.950 . S
C457 C453 1.393 . S
C457 C456 1.391 . S
C458 H448 0.950 . S
C458 C459 1.386 . S
C458 C460 1.391 . S
C459 C458 1.386 . S
C459 C463 1.393 . S
C460 H449 0.950 . S
C460 C458 1.391 . S
C460 C461 1.400 . S
C461 C455 1.491 1_455 S
C461 C460 1.400 . S
C461 C462 1.398 . S
C462 H450 0.950 . S
C462 C461 1.398 . S
C462 C463 1.391 . S
C463 H451 0.950 . S
C463 C459 1.393 . S
C463 C462 1.391 . S
H464 C472 0.950 . S
H465 C477 0.950 . S
H466 C474 0.950 . S
H467 C476 0.950 . S
H468 C478 0.950 . S
H469 C480 0.950 . S
H470 C482 0.950 . S
H471 C483 0.950 . S
C472 H464 0.950 . S
C472 C473 1.386 . S
C472 C474 1.391 . S
C473 C472 1.386 . S
C473 C477 1.393 . S
C474 H466 0.950 . S
C474 C472 1.391 . S
C474 C475 1.400 . S
C475 C474 1.400 . S
C475 C476 1.398 . S
C475 C481 1.491 1_545 S
C476 H467 0.950 . S
C476 C475 1.398 . S
C476 C477 1.391 . S
C477 H465 0.950 . S
C477 C473 1.393 . S
C477 C476 1.391 . S
C478 H468 0.950 . S
C478 C479 1.386 . S
C478 C480 1.391 . S
C479 C478 1.386 . S
C479 C483 1.393 . S
C480 H469 0.950 . S
C480 C478 1.391 . S
C480 C481 1.400 . S
C481 C475 1.491 1_565 S
C481 C480 1.400 . S
C481 C482 1.398 . S
C482 H470 0.950 . S
C482 C481 1.398 . S
C482 C483 1.391 . S
C483 H471 0.950 . S
C483 C479 1.393 . S
C483 C482 1.391 . S
H484 C492 0.950 . S
H485 C497 0.950 . S
H486 C494 0.950 . S
H487 C496 0.950 . S
H488 C498 0.950 . S
H489 C500 0.950 . S
H490 C502 0.950 . S
H491 C503 0.950 . S
C492 H484 0.950 . S
C492 C493 1.386 . S
C492 C494 1.391 . S
C493 C492 1.386 . S
C493 C497 1.393 . S
C494 H486 0.950 . S
C494 C492 1.391 . S
C494 C495 1.400 . S
C495 C494 1.400 . S
C495 C496 1.398 . S
C495 C501 1.491 . S
C496 H487 0.950 . S
C496 C495 1.398 . S
C496 C497 1.391 . S
C497 H485 0.950 . S
C497 C493 1.393 . S
C497 C496 1.391 . S
C498 H488 0.950 . S
C498 C499 1.386 . S
C498 C500 1.391 . S
C499 C498 1.386 . S
C499 C503 1.393 . S
C500 H489 0.950 . S
C500 C498 1.391 . S
C500 C501 1.400 . S
C501 C495 1.491 . S
C501 C500 1.400 . S
C501 C502 1.398 . S
C502 H490 0.950 . S
C502 C501 1.398 . S
C502 C503 1.391 . S
C503 H491 0.950 . S
C503 C499 1.393 . S
C503 C502 1.391 . S
C213 C33 1.489 . S
C219 C70 1.451 . S
C233 C67 1.485 . S
C239 C104 1.424 . S
C253 C138 1.425 . S
C259 C101 1.482 . S
C273 C172 1.441 . S
C279 C135 1.492 . S
C293 C169 1.478 . S
C299 C2 1.438 . S
C313 C36 1.428 . S
C319 C203 1.489 . S
C333 C5 1.202 . S
C339 C9 1.225 . S
C353 C43 1.224 . S
C359 C39 1.208 . S
C373 C73 1.210 . S
C379 C77 1.224 . S
C393 C107 1.202 . S
C399 C111 1.225 . S
C413 C141 1.201 . S
C419 C145 1.214 . S
C433 C179 1.209 . S
C439 C175 1.214 . S
C453 C122 1.528 . S
C459 C20 1.528 . S
C473 C54 1.528 . S
C479 C156 1.527 . S
C493 C88 1.531 . S
C499 C190 1.531 . S
