# Generated by pormake.
# Topology mok, (4)-cn, num edge types: 1
# Building blocks:
#     Node 0, Type 0, BuildingBlock: GALJAG_clean_sbu_0, # of connection points: 4
#     Node 1, Type 0, BuildingBlock: GALJAG_clean_sbu_0, # of connection points: 4
#     Node 2, Type 0, BuildingBlock: GALJAG_clean_sbu_0, # of connection points: 4
#     Node 3, Type 0, BuildingBlock: GALJAG_clean_sbu_0, # of connection points: 4
#     Node 4, Type 0, BuildingBlock: GALJAG_clean_sbu_0, # of connection points: 4
#     Node 5, Type 0, BuildingBlock: GALJAG_clean_sbu_0, # of connection points: 4
#     Node 6, Type 0, BuildingBlock: GALJAG_clean_sbu_0, # of connection points: 4
#     Node 7, Type 0, BuildingBlock: GALJAG_clean_sbu_0, # of connection points: 4
#     Edge 8, Type (0, 0), BuildingBlock: UVAHIK_clean_linker_0, # of connection points: 2
#     Edge 9, Type (0, 0), BuildingBlock: UVAHIK_clean_linker_0, # of connection points: 2
#     Edge 10, Type (0, 0), BuildingBlock: UVAHIK_clean_linker_0, # of connection points: 2
#     Edge 11, Type (0, 0), BuildingBlock: UVAHIK_clean_linker_0, # of connection points: 2
#     Edge 12, Type (0, 0), BuildingBlock: UVAHIK_clean_linker_0, # of connection points: 2
#     Edge 13, Type (0, 0), BuildingBlock: UVAHIK_clean_linker_0, # of connection points: 2
#     Edge 14, Type (0, 0), BuildingBlock: UVAHIK_clean_linker_0, # of connection points: 2
#     Edge 15, Type (0, 0), BuildingBlock: UVAHIK_clean_linker_0, # of connection points: 2
#     Edge 16, Type (0, 0), BuildingBlock: UVAHIK_clean_linker_0, # of connection points: 2
#     Edge 17, Type (0, 0), BuildingBlock: UVAHIK_clean_linker_0, # of connection points: 2
#     Edge 18, Type (0, 0), BuildingBlock: UVAHIK_clean_linker_0, # of connection points: 2
#     Edge 19, Type (0, 0), BuildingBlock: UVAHIK_clean_linker_0, # of connection points: 2
#     Edge 20, Type (0, 0), BuildingBlock: UVAHIK_clean_linker_0, # of connection points: 2
#     Edge 21, Type (0, 0), BuildingBlock: UVAHIK_clean_linker_0, # of connection points: 2
#     Edge 22, Type (0, 0), BuildingBlock: UVAHIK_clean_linker_0, # of connection points: 2
#     Edge 23, Type (0, 0), BuildingBlock: UVAHIK_clean_linker_0, # of connection points: 2
# Relax obj value: 0.070
# Max RMSD: 0.103
# Mean RMSD: 0.103
data_MOF--net-mok--node1-GALJAG_clean_sbu_0--edge1-UVAHIK_clean_linker_0
_symmetry_space_group_name_H-M    P1
_symmetry_Int_Tables_number       1
_symmetry_cell_setting            triclinic
loop_
_symmetry_equiv_pos_as_xyz
'x, y, z'
_cell_length_a     71.281706
_cell_length_b     17.994572
_cell_length_c     37.059385
_cell_angle_alpha  90.018519
_cell_angle_beta   90.175887
_cell_angle_gamma 89.995273
loop_
_atom_site_label
_atom_site_type_symbol
_atom_site_fract_x
_atom_site_fract_y
_atom_site_fract_z
_atom_type_partial_charge
In0 In 0.60484 0.31286 0.01095 0.0
O1 O 0.59997 0.41081 0.9726 0.0
O2 O 0.60487 0.30327 0.95032 0.0
C3 C 0.59986 0.36332 0.07843 0.0
C4 C 0.57475 0.22376 0.00862 0.0
C5 C 0.64208 0.28931 0.01224 0.0
O6 O 0.59848 0.40586 0.05133 0.0
O7 O 0.60381 0.29665 0.07119 0.0
O8 O 0.63046 0.23625 0.01046 0.0
O9 O 0.63483 0.35323 0.01336 0.0
C10 C 0.6016 0.37114 0.94455 0.0
O11 O 0.59129 0.19806 0.0097 0.0
O12 O 0.57359 0.29377 0.00859 0.0
In13 In 0.37982 0.675 0.01301 0.0
O14 O 0.39291 0.79073 0.01126 0.0
O15 O 0.41095 0.69635 0.01531 0.0
C16 C 0.34257 0.69561 0.0079 0.0
C17 C 0.38565 0.61325 0.94808 0.0
C18 C 0.38288 0.62835 0.08161 0.0
O19 O 0.35394 0.7496 0.00821 0.0
O20 O 0.35005 0.63229 0.01039 0.0
O21 O 0.38606 0.58548 0.05522 0.0
O22 O 0.378 0.69345 0.07313 0.0
C23 C 0.40953 0.76617 0.01335 0.0
O24 O 0.38566 0.57467 0.97665 0.0
O25 O 0.38272 0.68174 0.95262 0.0
In26 In 0.60616 0.6803 0.50996 0.0
O27 O 0.60133 0.58677 0.55076 0.0
O28 O 0.6074 0.69561 0.57031 0.0
C29 C 0.60052 0.62195 0.44413 0.0
C30 C 0.57596 0.76885 0.5116 0.0
C31 C 0.64332 0.70454 0.50653 0.0
O32 O 0.59986 0.58244 0.47237 0.0
O33 O 0.60409 0.68977 0.44941 0.0
O34 O 0.63163 0.75745 0.50701 0.0
O35 O 0.63619 0.64043 0.5077 0.0
C36 C 0.60372 0.62882 0.57779 0.0
O37 O 0.59244 0.79491 0.51013 0.0
O38 O 0.57491 0.69884 0.51218 0.0
In39 In 0.38023 0.31337 0.51286 0.0
O40 O 0.39363 0.19824 0.51172 0.0
O41 O 0.41143 0.29324 0.51592 0.0
C42 C 0.34311 0.28912 0.50776 0.0
C43 C 0.38277 0.36125 0.58135 0.0
C44 C 0.38609 0.37549 0.44799 0.0
O45 O 0.35483 0.23632 0.50834 0.0
O46 O 0.35019 0.35324 0.50974 0.0
O47 O 0.38581 0.41399 0.47659 0.0
O48 O 0.38341 0.30682 0.45245 0.0
C49 C 0.41018 0.22335 0.51422 0.0
O50 O 0.38594 0.40392 0.5549 0.0
O51 O 0.37818 0.2958 0.57297 0.0
In52 In 0.10542 0.81427 0.01057 0.0
O53 O 0.09182 0.69955 0.00935 0.0
O54 O 0.07429 0.79477 0.01571 0.0
C55 C 0.14241 0.78904 0.00353 0.0
C56 C 0.09844 0.8768 0.94614 0.0
C57 C 0.10419 0.86229 0.07914 0.0
O58 O 0.13063 0.73655 0.00496 0.0
O59 O 0.13546 0.85336 0.00566 0.0
O60 O 0.10071 0.90504 0.05283 0.0
O61 O 0.10843 0.79657 0.07059 0.0
C62 C 0.07538 0.72495 0.01319 0.0
O63 O 0.09916 0.9151 0.97478 0.0
O64 O 0.10127 0.80815 0.95034 0.0
In65 In 0.87998 0.17898 0.00842 0.0
O66 O 0.88595 0.08788 0.96694 0.0
O67 O 0.87979 0.19728 0.94822 0.0
C68 C 0.885 0.11852 0.07394 0.0
C69 C 0.90982 0.26939 0.00973 0.0
C70 C 0.84267 0.20023 0.00995 0.0
O71 O 0.88605 0.07989 0.04545 0.0
O72 O 0.88134 0.18636 0.06904 0.0
O73 O 0.8541 0.25402 0.01063 0.0
O74 O 0.85013 0.13674 0.00849 0.0
C75 C 0.88392 0.13112 0.94026 0.0
O76 O 0.89323 0.29437 0.01117 0.0
O77 O 0.91114 0.19956 0.00761 0.0
In78 In 0.1055 0.17423 0.51204 0.0
O79 O 0.0987 0.08487 0.55396 0.0
O80 O 0.10609 0.19351 0.57212 0.0
C81 C 0.10106 0.11288 0.44657 0.0
C82 C 0.07561 0.26434 0.51042 0.0
C83 C 0.14277 0.19583 0.51011 0.0
O84 O 0.1005 0.07404 0.47505 0.0
O85 O 0.10382 0.18138 0.45149 0.0
O86 O 0.1313 0.24946 0.50897 0.0
O87 O 0.13537 0.13234 0.51242 0.0
C88 C 0.10123 0.12833 0.58042 0.0
O89 O 0.0922 0.28947 0.5098 0.0
O90 O 0.0743 0.19441 0.51173 0.0
In91 In 0.88116 0.81606 0.50817 0.0
O92 O 0.89429 0.70048 0.51064 0.0
O93 O 0.91233 0.79506 0.50823 0.0
C94 C 0.84383 0.79506 0.50856 0.0
C95 C 0.88576 0.87621 0.57389 0.0
C96 C 0.88545 0.86401 0.44012 0.0
O97 O 0.85524 0.7412 0.50939 0.0
O98 O 0.85133 0.85854 0.50767 0.0
O99 O 0.88737 0.90727 0.46684 0.0
O100 O 0.88129 0.79786 0.44801 0.0
C101 C 0.91092 0.7252 0.5098 0.0
O102 O 0.88706 0.91489 0.54547 0.0
O103 O 0.88207 0.80842 0.56883 0.0
C104 C 0.81033 0.14736 0.00966 0.0
C105 C 0.82211 0.20993 0.01074 0.0
C106 C 0.79088 0.15562 0.01026 0.0
C107 C 0.75347 0.28654 0.03564 0.0
H108 H 0.72282 0.16483 0.97227 0.0
C109 C 0.67457 0.34032 0.01469 0.0
C110 C 0.6626 0.27842 0.01281 0.0
C111 C 0.694 0.33102 0.01504 0.0
C112 C 0.73116 0.19854 0.99046 0.0
H113 H 0.8228 0.33022 0.01334 0.0
H114 H 0.78869 0.3448 0.01413 0.0
H115 H 0.75685 0.15153 0.97137 0.0
H116 H 0.66153 0.15819 0.00996 0.0
H117 H 0.69559 0.14177 0.01086 0.0
H118 H 0.72778 0.33362 0.0547 0.0
C119 C 0.79454 0.2893 0.01318 0.0
C120 C 0.75066 0.19102 0.9899 0.0
C121 C 0.81405 0.28101 0.01254 0.0
C122 C 0.67044 0.20691 0.01135 0.0
C123 C 0.68992 0.19757 0.01168 0.0
C124 C 0.73397 0.29404 0.03621 0.0
C125 C 0.78275 0.22663 0.01196 0.0
C126 C 0.76204 0.23501 0.01245 0.0
C127 C 0.70191 0.2596 0.01353 0.0
C128 C 0.7226 0.25025 0.01355 0.0
H129 H 0.81613 0.0918 0.00841 0.0
H130 H 0.7822 0.10621 0.00982 0.0
H131 H 0.76183 0.32038 0.05375 0.0
H132 H 0.66895 0.39619 0.01573 0.0
H133 H 0.70283 0.37998 0.01594 0.0
C134 C 0.17501 0.83811 -0.0015 0.0
C135 C 0.16281 0.77693 0.00029 0.0
C136 C 0.19437 0.82751 -0.00339 0.0
C137 C 0.231 0.69142 0.01877 0.0
H138 H 0.26212 0.81621 0.95812 0.0
C139 C 0.31037 0.64198 0.00413 0.0
C140 C 0.32205 0.70486 0.00487 0.0
C141 C 0.29094 0.6498 0.00166 0.0
C142 C 0.25363 0.78143 0.97544 0.0
H143 H 0.16124 0.65664 0.00083 0.0
H144 H 0.19517 0.638 -0.00268 0.0
H145 H 0.22807 0.83028 0.95639 0.0
H146 H 0.32259 0.82524 0.00327 0.0
H147 H 0.28852 0.83904 -0.00067 0.0
H148 H 0.25652 0.64302 0.03808 0.0
C149 C 0.18974 0.69419 -0.00222 0.0
C150 C 0.23414 0.78938 0.97441 0.0
C151 C 0.17033 0.70483 -0.00038 0.0
C152 C 0.31392 0.7758 0.00275 0.0
C153 C 0.29443 0.78365 0.00028 0.0
C154 C 0.25048 0.68348 0.0198 0.0
C155 C 0.20197 0.75549 -0.0035 0.0
C156 C 0.22262 0.74473 -0.00377 0.0
C157 C 0.28273 0.72067 -0.0001 0.0
C158 C 0.26202 0.72861 -0.00172 0.0
H159 H 0.16963 0.89438 -0.00102 0.0
H160 H 0.20341 0.87589 -0.00387 0.0
H161 H 0.22255 0.65703 0.03635 0.0
H162 H 0.31623 0.58653 0.0055 0.0
H163 H 0.28235 0.60017 0.00087 0.0
C164 C 0.81519 0.71431 0.50805 0.0
C165 C 0.82327 0.78545 0.5083 0.0
C166 C 0.79568 0.70608 0.50734 0.0
C167 C 0.75173 0.80641 0.52737 0.0
H168 H 0.72913 0.65839 0.46486 0.0
C169 C 0.67155 0.78757 0.50502 0.0
C170 C 0.66382 0.71582 0.50519 0.0
C171 C 0.69102 0.79729 0.50447 0.0
C172 C 0.73524 0.69954 0.4827 0.0
H173 H 0.81734 0.90372 0.50803 0.0
H174 H 0.78339 0.88935 0.50657 0.0
H175 H 0.76317 0.67178 0.46647 0.0
H176 H 0.67032 0.59803 0.50474 0.0
H177 H 0.70417 0.61495 0.50412 0.0
H178 H 0.72381 0.83398 0.54371 0.0
C179 C 0.79205 0.83992 0.50732 0.0
C180 C 0.75473 0.7071 0.48366 0.0
C181 C 0.81151 0.84812 0.50796 0.0
C182 C 0.67587 0.65408 0.50453 0.0
C183 C 0.69528 0.66375 0.50394 0.0
C184 C 0.73224 0.79882 0.52643 0.0
C185 C 0.78391 0.76885 0.50697 0.0
C186 C 0.7632 0.76052 0.50606 0.0
C187 C 0.70309 0.73541 0.50401 0.0
C188 C 0.72377 0.74513 0.50417 0.0
H189 H 0.82392 0.66504 0.50836 0.0
H190 H 0.7898 0.65057 0.50749 0.0
H191 H 0.75785 0.84744 0.54527 0.0
H192 H 0.66258 0.83616 0.50543 0.0
H193 H 0.69662 0.85323 0.50414 0.0
C194 C 0.17512 0.14317 0.5093 0.0
C195 C 0.16331 0.20566 0.50865 0.0
C196 C 0.19456 0.15152 0.50789 0.0
C197 C 0.23174 0.28324 0.48169 0.0
H198 H 0.26286 0.1607 0.54378 0.0
C199 C 0.31053 0.33909 0.50393 0.0
C200 C 0.32264 0.27757 0.50549 0.0
C201 C 0.29114 0.32906 0.50268 0.0
C202 C 0.25438 0.19461 0.52592 0.0
H203 H 0.16255 0.32593 0.50595 0.0
H204 H 0.19663 0.34072 0.5039 0.0
H205 H 0.22887 0.1468 0.54532 0.0
H206 H 0.324 0.15727 0.5065 0.0
H207 H 0.28999 0.13958 0.50419 0.0
H208 H 0.25728 0.33143 0.46252 0.0
C209 C 0.19082 0.28517 0.50506 0.0
C210 C 0.2349 0.18674 0.52683 0.0
C211 C 0.17132 0.27678 0.50645 0.0
C212 C 0.31499 0.20569 0.50541 0.0
C213 C 0.29554 0.19562 0.50427 0.0
C214 C 0.25123 0.29117 0.48082 0.0
C215 C 0.20265 0.22257 0.50586 0.0
C216 C 0.22335 0.23107 0.50478 0.0
C217 C 0.28341 0.25726 0.50305 0.0
C218 C 0.26275 0.2471 0.50301 0.0
H219 H 0.16935 0.08756 0.51079 0.0
H220 H 0.20325 0.10214 0.50801 0.0
H221 H 0.22325 0.31737 0.46396 0.0
H222 H 0.31603 0.39522 0.50398 0.0
H223 H 0.28218 0.37767 0.50222 0.0
C224 C 0.5953 0.46431 0.12425 0.0
C225 C 0.59727 0.3886 0.11597 0.0
C226 C 0.59365 0.48736 0.16017 0.0
C227 C 0.60445 0.42435 0.25283 0.0
H228 H 0.57209 0.58761 0.2807 0.0
C229 C 0.5961 0.5152 0.40143 0.0
C230 C 0.59763 0.59199 0.40747 0.0
C231 C 0.5942 0.48765 0.36629 0.0
C232 C 0.58123 0.54207 0.27326 0.0
H233 H 0.59845 0.27745 0.13854 0.0
H234 H 0.59524 0.31738 0.20087 0.0
H235 H 0.57226 0.54528 0.21809 0.0
H236 H 0.59789 0.70027 0.38172 0.0
H237 H 0.59462 0.65229 0.32064 0.0
H238 H 0.6135 0.42148 0.30791 0.0
C239 C 0.59539 0.35922 0.17987 0.0
C240 C 0.58138 0.51801 0.2374 0.0
C241 C 0.59713 0.33632 0.1441 0.0
C242 C 0.59678 0.64074 0.3779 0.0
C243 C 0.59477 0.61332 0.34291 0.0
C244 C 0.60423 0.4482 0.28867 0.0
C245 C 0.59387 0.43504 0.18841 0.0
C246 C 0.59312 0.45927 0.22671 0.0
C247 C 0.59364 0.53649 0.33667 0.0
C248 C 0.59277 0.50778 0.29919 0.0
H249 H 0.59538 0.50578 0.10307 0.0
H250 H 0.59269 0.54628 0.16585 0.0
H251 H 0.61389 0.37976 0.24543 0.0
H252 H 0.59665 0.4764 0.42375 0.0
H253 H 0.5932 0.42815 0.36228 0.0
C254 C 0.38265 0.65796 0.14732 0.0
C255 C 0.38494 0.6054 0.11964 0.0
C256 C 0.38457 0.63726 0.18341 0.0
C257 C 0.40394 0.49007 0.24254 0.0
H258 H 0.36835 0.56865 0.31173 0.0
C259 C 0.39157 0.35996 0.38212 0.0
C260 C 0.38883 0.40743 0.41173 0.0
C261 C 0.39311 0.38869 0.34734 0.0
C262 C 0.37858 0.54718 0.29286 0.0
H263 H 0.3911 0.48998 0.10796 0.0
H264 H 0.39409 0.45318 0.17118 0.0
H265 H 0.36673 0.60855 0.24899 0.0
H266 H 0.38598 0.52232 0.42837 0.0
H267 H 0.38855 0.57288 0.36717 0.0
H268 H 0.41545 0.4272 0.2864 0.0
C269 C 0.39112 0.51079 0.16494 0.0
C270 C 0.37766 0.56995 0.25688 0.0
C271 C 0.38928 0.53166 0.12875 0.0
C272 C 0.38806 0.4845 0.406 0.0
C273 C 0.38945 0.51332 0.37103 0.0
C274 C 0.4048 0.46703 0.2785 0.0
C275 C 0.38873 0.56337 0.1927 0.0
C276 C 0.39021 0.54112 0.23121 0.0
C277 C 0.39183 0.46555 0.34133 0.0
C278 C 0.392 0.49476 0.30394 0.0
H279 H 0.37943 0.71541 0.14113 0.0
H280 H 0.38293 0.67939 0.20403 0.0
H281 H 0.41405 0.46787 0.22362 0.0
H282 H 0.39226 0.30027 0.38572 0.0
H283 H 0.39472 0.35043 0.32498 0.0
C284 C 0.38761 0.50464 0.90581 0.0
C285 C 0.38834 0.58166 0.91174 0.0
C286 C 0.38889 0.47622 0.87074 0.0
C287 C 0.40402 0.52353 0.77827 0.0
H288 H 0.36593 0.38223 0.7486 0.0
C289 C 0.38875 0.45861 0.62841 0.0
C290 C 0.38456 0.3847 0.61936 0.0
C291 C 0.39042 0.47978 0.66461 0.0
C292 C 0.37685 0.42081 0.75652 0.0
H293 H 0.39163 0.68913 0.886 0.0
H294 H 0.39394 0.63965 0.82509 0.0
H295 H 0.3676 0.4217 0.81142 0.0
H296 H 0.37908 0.27476 0.64094 0.0
H297 H 0.38228 0.31132 0.70382 0.0
H298 H 0.41323 0.52303 0.72336 0.0
C299 C 0.39242 0.60114 0.84736 0.0
C300 C 0.3778 0.44332 0.79254 0.0
C301 C 0.39096 0.62948 0.88223 0.0
C302 C 0.3822 0.33232 0.64708 0.0
C303 C 0.38394 0.35334 0.68316 0.0
C304 C 0.40314 0.50075 0.74227 0.0
C305 C 0.39115 0.52434 0.84116 0.0
C306 C 0.39125 0.49557 0.80369 0.0
C307 C 0.38799 0.42734 0.69239 0.0
C308 C 0.3894 0.44975 0.73089 0.0
H309 H 0.38561 0.46658 0.9281 0.0
H310 H 0.38801 0.41669 0.86671 0.0
H311 H 0.41468 0.56327 0.78621 0.0
H312 H 0.39062 0.50013 0.60758 0.0
H313 H 0.39331 0.53747 0.67081 0.0
C314 C 0.59928 0.47766 0.90111 0.0
C315 C 0.59998 0.40082 0.90757 0.0
C316 C 0.59844 0.50471 0.86574 0.0
C317 C 0.58619 0.45054 0.77263 0.0
H318 H 0.62058 0.60729 0.74509 0.0
C319 C 0.59989 0.52745 0.62359 0.0
C320 C 0.60225 0.60304 0.61547 0.0
C321 C 0.59878 0.50397 0.65951 0.0
C322 C 0.61069 0.56422 0.7524 0.0
H323 H 0.6 0.29204 0.88227 0.0
H324 H 0.59849 0.33918 0.8208 0.0
H325 H 0.61948 0.56619 0.80769 0.0
H326 H 0.60497 0.7135 0.63839 0.0
H327 H 0.60266 0.6729 0.70076 0.0
H328 H 0.57735 0.44855 0.71741 0.0
C329 C 0.5985 0.37854 0.84292 0.0
C330 C 0.61007 0.54074 0.78829 0.0
C331 C 0.5995 0.35161 0.87814 0.0
C332 C 0.60328 0.65473 0.64382 0.0
C333 C 0.60207 0.6314 0.67961 0.0
C334 C 0.58672 0.47432 0.73677 0.0
C335 C 0.5981 0.45532 0.83631 0.0
C336 C 0.59793 0.48327 0.7987 0.0
C337 C 0.59991 0.55573 0.68794 0.0
C338 C 0.59907 0.53112 0.72617 0.0
H339 H 0.59962 0.5168 0.92332 0.0
H340 H 0.59802 0.56421 0.86139 0.0
H341 H 0.57654 0.40665 0.78 0.0
H342 H 0.5991 0.48641 0.60225 0.0
H343 H 0.59735 0.44514 0.665 0.0
C344 C 0.10555 0.83358 0.14489 0.0
C345 C 0.10299 0.88592 0.11719 0.0
C346 C 0.10416 0.85472 0.181 0.0
C347 C 0.08525 0.00247 0.23998 0.0
H348 H 0.12058 0.92227 0.30965 0.0
C349 C 0.09691 0.12985 0.38043 0.0
C350 C 0.09903 0.08167 0.40997 0.0
C351 C 0.09585 0.1019 0.34541 0.0
C352 C 0.11045 0.94424 0.2906 0.0
H353 H 0.09708 0.00154 0.10548 0.0
H354 H 0.09501 0.03909 0.16871 0.0
H355 H 0.12228 0.88307 0.24675 0.0
H356 H 0.10145 0.96638 0.42619 0.0
H357 H 0.09977 0.91716 0.36454 0.0
H358 H 0.07373 0.06498 0.2838 0.0
C359 C 0.09776 0.98131 0.16249 0.0
C360 C 0.11142 0.9219 0.25456 0.0
C361 C 0.09907 0.96001 0.12629 0.0
C362 C 0.09981 0.00471 0.40388 0.0
C363 C 0.09894 0.97666 0.36867 0.0
C364 C 0.08435 0.02509 0.27598 0.0
C365 C 0.10026 0.92883 0.19026 0.0
C366 C 0.09893 0.95123 0.22876 0.0
C367 C 0.09704 0.02514 0.3391 0.0
C368 C 0.09705 -0.00327 0.30158 0.0
H369 H 0.10849 0.77589 0.13871 0.0
H370 H 0.10589 0.81268 0.20165 0.0
H371 H 0.07518 0.025 0.22097 0.0
H372 H 0.09624 0.18947 0.38429 0.0
H373 H 0.09463 0.14066 0.32317 0.0
C374 C 0.89025 0.96309 0.39352 0.0
C375 C 0.88776 0.8879 0.40232 0.0
C376 C 0.89183 0.98492 0.35743 0.0
C377 C 0.88029 0.92095 0.26519 0.0
H378 H 0.91376 0.07996 0.23649 0.0
C379 C 0.88892 0.01084 0.11629 0.0
C380 C 0.88771 0.08779 0.11048 0.0
C381 C 0.89072 0.9828 0.15135 0.0
C382 C 0.90432 0.03556 0.24416 0.0
H383 H 0.88551 0.77634 0.3805 0.0
H384 H 0.88862 0.81413 0.31782 0.0
H385 H 0.91349 0.03846 0.29919 0.0
H386 H 0.88789 0.1958 0.13654 0.0
H387 H 0.89103 0.147 0.19745 0.0
H388 H 0.87105 0.91843 0.21019 0.0
C389 C 0.88894 0.85654 0.33856 0.0
C390 C 0.90411 0.01201 0.28007 0.0
C391 C 0.88725 0.83486 0.37452 0.0
C392 C 0.88874 0.13616 0.14018 0.0
C393 C 0.89069 0.10827 0.17507 0.0
C394 C 0.88058 0.94425 0.22926 0.0
C395 C 0.89106 0.93188 0.32952 0.0
C396 C 0.89193 0.95499 0.29109 0.0
C397 C 0.89153 0.03134 0.18109 0.0
C398 C 0.89242 0.00241 0.21848 0.0
H399 H 0.89067 0.00513 0.41443 0.0
H400 H 0.89323 0.04353 0.35137 0.0
H401 H 0.87053 0.87763 0.27283 0.0
H402 H 0.88819 0.97235 0.09385 0.0
H403 H 0.89146 0.92321 0.15524 0.0
C404 C 0.88899 0.85853 0.64024 0.0
C405 C 0.88818 0.9069 0.61053 0.0
C406 C 0.89065 0.88643 0.67519 0.0
C407 C 0.88002 0.05035 0.72915 0.0
H408 H 0.91254 0.95678 0.79991 0.0
C409 C 0.88568 0.16015 0.87462 0.0
C410 C 0.88622 0.1072 0.90245 0.0
C411 C 0.88751 0.13841 0.83868 0.0
C412 C 0.90326 0.98304 0.78056 0.0
H413 H 0.88875 0.02236 0.59396 0.0
H414 H 0.89149 0.0715 0.65545 0.0
H415 H 0.91327 0.91513 0.73725 0.0
H416 H 0.88927 0.99006 0.9146 0.0
H417 H 0.89207 0.95157 0.8516 0.0
H418 H 0.86961 0.11691 0.77245 0.0
C419 C 0.89081 0.01191 0.65152 0.0
C420 C 0.90374 0.9594 0.74467 0.0
C421 C 0.88931 0.98386 0.6164 0.0
C422 C 0.88882 0.03204 0.89368 0.0
C423 C 0.89055 0.01015 0.85761 0.0
C424 C 0.87945 0.07373 0.76506 0.0
C425 C 0.8914 0.96338 0.68126 0.0
C426 C 0.89199 0.99233 0.71868 0.0
C427 C 0.8898 0.06311 0.82968 0.0
C428 C 0.89095 0.03992 0.79127 0.0
H429 H 0.88819 0.79889 0.63655 0.0
H430 H 0.89083 0.84772 0.69757 0.0
H431 H 0.87061 0.07601 0.70982 0.0
H432 H 0.88384 0.21864 0.88057 0.0
H433 H 0.8872 0.18078 0.81793 0.0
C434 C 0.09538 0.98614 0.90457 0.0
C435 C 0.0951 0.90895 0.91009 0.0
C436 C 0.09351 0.01524 0.86972 0.0
C437 C 0.07814 0.96818 0.77694 0.0
H438 H 0.1154 0.11317 0.74807 0.0
C439 C 0.09449 0.03208 0.62755 0.0
C440 C 0.09855 0.10599 0.61837 0.0
C441 C 0.09226 0.01177 0.66372 0.0
C442 C 0.10469 0.0736 0.75577 0.0
H443 H 0.09195 0.80184 0.88385 0.0
H444 H 0.08872 0.85245 0.82333 0.0
H445 H 0.1139 0.07335 0.81077 0.0
H446 H 0.10302 0.21698 0.63964 0.0
H447 H 0.09886 0.18188 0.70246 0.0
H448 H 0.06906 0.96776 0.72182 0.0
C449 C 0.09029 0.89061 0.84575 0.0
C450 C 0.10383 0.05089 0.79174 0.0
C451 C 0.09229 0.86162 0.88041 0.0
C452 C 0.10006 0.15936 0.6459 0.0
C453 C 0.09775 0.13921 0.68194 0.0
C454 C 0.07895 0.9911 0.74096 0.0
C455 C 0.09115 0.96762 0.83993 0.0
C456 C 0.09073 -0.00285 0.80259 0.0
C457 C 0.09398 0.0651 0.69134 0.0
C458 C 0.0924 0.04334 0.72987 0.0
H459 H 0.09748 0.02386 0.927 0.0
H460 H 0.09408 0.0749 0.86602 0.0
H461 H 0.06774 0.92731 0.78464 0.0
H462 H 0.09325 0.98982 0.60686 0.0
H463 H 0.08958 0.95401 0.67008 0.0
C464 C 0.42445 0.89212 0.0106 0.0
C465 C 0.42621 0.8146 0.01318 0.0
C466 C 0.44043 0.93717 0.01012 0.0
C467 C 0.49072 0.93704 0.03452 0.0
H468 H 0.49372 0.10144 0.96718 0.0
C469 C 0.55944 0.09855 0.00985 0.0
C470 C 0.55791 0.17622 0.00798 0.0
C471 C 0.54334 0.05424 0.01007 0.0
C472 C 0.49302 0.05613 0.98636 0.0
H473 H 0.446 0.72334 0.01725 0.0
H474 H 0.47379 0.80163 0.01607 0.0
H475 H 0.46539 0.0255 0.96914 0.0
H476 H 0.5384 0.26852 0.00461 0.0
H477 H 0.51035 0.19137 0.0052 0.0
H478 H 0.51835 0.96755 0.05168 0.0
C479 C 0.46012 0.82786 0.01491 0.0
C480 C 0.47679 0.01277 0.98753 0.0
C481 C 0.44419 0.78297 0.01537 0.0
C482 C 0.54002 0.20875 0.006 0.0
C483 C 0.52395 0.16455 0.00613 0.0
C484 C 0.50695 0.98032 0.03331 0.0
C485 C 0.45844 0.90543 0.01229 0.0
C486 C 0.47548 0.95266 0.01158 0.0
C487 C 0.52542 0.08686 0.0083 0.0
C488 C 0.50828 0.04028 0.0092 0.0
H489 H 0.41075 0.91796 0.00893 0.0
H490 H 0.43869 -0.00314 0.00845 0.0
H491 H 0.49003 0.89178 0.05373 0.0
H492 H 0.57307 0.07201 0.01132 0.0
H493 H 0.54491 0.99444 0.01135 0.0
C494 C 0.54119 0.78281 0.51289 0.0
C495 C 0.55904 0.81594 0.51255 0.0
C496 C 0.52506 0.82656 0.51368 0.0
C497 C 0.50797 0.01257 0.53773 0.0
H498 H 0.46608 0.96112 0.47547 0.0
C499 C 0.44487 0.20739 0.51676 0.0
C500 C 0.42693 0.17532 0.51499 0.0
C501 C 0.46085 0.16273 0.51727 0.0
C502 C 0.47755 0.97563 0.49337 0.0
H503 H 0.57404 0.92071 0.5129 0.0
H504 H 0.54573 -0.00248 0.51415 0.0
H505 H 0.49444 0.88544 0.47451 0.0
H506 H 0.41158 0.07146 0.51263 0.0
H507 H 0.43958 0.99303 0.51392 0.0
H508 H 0.49108 0.10268 0.55665 0.0
C509 C 0.54427 0.93761 0.51408 0.0
C510 C 0.49381 0.93239 0.49276 0.0
C511 C 0.56045 0.89373 0.51317 0.0
C512 C 0.42525 0.09764 0.51389 0.0
C513 C 0.44127 0.05283 0.51445 0.0
C514 C 0.49169 0.05572 0.53841 0.0
C515 C 0.52641 0.90439 0.51423 0.0
C516 C 0.5092 0.95052 0.51487 0.0
C517 C 0.45925 0.08497 0.5161 0.0
C518 C 0.47633 0.03787 0.51614 0.0
H519 H 0.53966 0.72294 0.51255 0.0
H520 H 0.5115 0.79936 0.51427 0.0
H521 H 0.5195 0.02719 0.55547 0.0
H522 H 0.44661 0.26716 0.51753 0.0
H523 H 0.47449 0.18925 0.51799 0.0
C524 C 0.04075 0.70957 0.01846 0.0
C525 C 0.05856 0.67735 0.0142 0.0
C526 C 0.02469 0.66535 0.01875 0.0
C527 C 0.00707 0.48314 0.98928 0.0
H528 H 0.96683 0.52403 0.0567 0.0
C529 C 0.9445 0.28544 0.00763 0.0
C530 C 0.92658 0.31738 0.01049 0.0
C531 C 0.9605 0.32993 0.0083 0.0
C532 C 0.97786 0.51251 0.03745 0.0
H533 H 0.07359 0.57363 0.00729 0.0
H534 H 0.04546 0.49598 0.00811 0.0
H535 H -0.00474 0.59951 0.05826 0.0
H536 H 0.91131 0.42082 0.01639 0.0
H537 H 0.9394 0.49902 0.01741 0.0
H538 H 0.98969 0.39611 0.9685 0.0
C539 C 0.04393 0.5556 0.01078 0.0
C540 C -0.00585 0.55562 0.03837 0.0
C541 C 0.06003 0.59994 0.01051 0.0
C542 C 0.92496 0.39476 0.01415 0.0
C543 C 0.94102 0.4394 0.01493 0.0
C544 C 0.99081 0.44001 0.9884 0.0
C545 C 0.02609 0.58793 0.01479 0.0
C546 C 0.00893 0.54138 0.01428 0.0
C547 C 0.95895 0.40736 0.0119 0.0
C548 C 0.97604 0.45418 0.0125 0.0
H549 H 0.03918 0.76915 0.02129 0.0
H550 H 0.01114 0.69203 0.0214 0.0
H551 H 0.01807 0.47163 0.96996 0.0
H552 H 0.9462 0.2259 0.0049 0.0
H553 H 0.97412 0.30352 0.00644 0.0
C554 C 0.04089 0.28029 0.51074 0.0
C555 C 0.05885 0.31236 0.50989 0.0
C556 C 0.02491 0.32496 0.51059 0.0
C557 C 0.00871 0.51417 0.53121 0.0
H558 H 0.96577 0.45818 0.47265 0.0
C559 C 0.94561 0.7085 0.50947 0.0
C560 C 0.92761 0.6768 0.51038 0.0
C561 C 0.96153 0.66352 0.50973 0.0
C562 C 0.97756 0.47403 0.48947 0.0
H563 H 0.07422 0.41621 0.50807 0.0
H564 H 0.0462 0.49461 0.50751 0.0
H565 H -0.00602 0.38153 0.47175 0.0
H566 H 0.9121 0.57327 0.51241 0.0
H567 H 0.94004 0.49431 0.51312 0.0
H568 H 0.9923 0.60669 0.54891 0.0
C569 C 0.04451 0.43485 0.50868 0.0
C570 C -0.00627 0.43023 0.48891 0.0
C571 C 0.06054 0.39004 0.50881 0.0
C572 C 0.92582 0.59916 0.51162 0.0
C573 C 0.94179 0.55402 0.51184 0.0
C574 C 0.99255 0.55796 0.53175 0.0
C575 C 0.02653 0.4027 0.50959 0.0
C576 C 0.00948 0.44984 0.50978 0.0
C577 C 0.95981 0.58583 0.5109 0.0
C578 C 0.97682 0.53841 0.51086 0.0
H579 H 0.03915 0.22054 0.5117 0.0
H580 H 0.01127 0.29854 0.51181 0.0
H581 H 0.02051 0.53004 0.54802 0.0
H582 H 0.94743 0.76821 0.50839 0.0
H583 H 0.9752 0.68966 0.50846 0.0
loop_
_geom_bond_atom_site_label_1
_geom_bond_atom_site_label_2
_geom_bond_distance
_geom_bond_site_symmetry_2
_ccdc_geom_bond_type
In0 O1 2.294 1_554 S
In0 O2 2.326 1_554 S
In0 O6 2.266 . S
In0 O7 2.326 . S
In0 O8 2.266 . S
In0 O9 2.326 . S
In0 O11 2.294 . S
In0 O12 2.326 . S
O1 In0 2.294 1_556 S
O1 C10 1.240 . S
O2 In0 2.326 1_556 S
O2 C10 1.252 . S
C3 O6 1.252 . S
C3 O7 1.260 . S
C4 O11 1.240 . S
C4 O12 1.252 . S
C5 O8 1.252 . S
C5 O9 1.260 . S
O6 In0 2.266 . S
O6 C3 1.252 . S
O7 In0 2.326 . S
O7 C3 1.260 . S
O8 In0 2.266 . S
O8 C5 1.252 . S
O9 In0 2.326 . S
O9 C5 1.260 . S
C10 O1 1.240 . S
C10 O2 1.252 . S
O11 In0 2.294 . S
O11 C4 1.240 . S
O12 In0 2.326 . S
O12 C4 1.252 . S
In13 O14 2.294 . S
In13 O15 2.326 . S
In13 O19 2.266 . S
In13 O20 2.326 . S
In13 O21 2.266 . S
In13 O22 2.326 . S
In13 O24 2.294 1_554 S
In13 O25 2.326 1_554 S
O14 In13 2.294 . S
O14 C23 1.240 . S
O15 In13 2.326 . S
O15 C23 1.252 . S
C16 O19 1.252 . S
C16 O20 1.260 . S
C17 O24 1.240 . S
C17 O25 1.252 . S
C18 O21 1.252 . S
C18 O22 1.260 . S
O19 In13 2.266 . S
O19 C16 1.252 . S
O20 In13 2.326 . S
O20 C16 1.260 . S
O21 In13 2.266 . S
O21 C18 1.252 . S
O22 In13 2.326 . S
O22 C18 1.260 . S
C23 O14 1.240 . S
C23 O15 1.252 . S
O24 In13 2.294 1_556 S
O24 C17 1.240 . S
O25 In13 2.326 1_556 S
O25 C17 1.252 . S
In26 O27 2.294 . S
In26 O28 2.326 . S
In26 O32 2.266 . S
In26 O33 2.326 . S
In26 O34 2.266 . S
In26 O35 2.326 . S
In26 O37 2.294 . S
In26 O38 2.326 . S
O27 In26 2.294 . S
O27 C36 1.240 . S
O28 In26 2.326 . S
O28 C36 1.252 . S
C29 O32 1.252 . S
C29 O33 1.260 . S
C30 O37 1.240 . S
C30 O38 1.252 . S
C31 O34 1.252 . S
C31 O35 1.260 . S
O32 In26 2.266 . S
O32 C29 1.252 . S
O33 In26 2.326 . S
O33 C29 1.260 . S
O34 In26 2.266 . S
O34 C31 1.252 . S
O35 In26 2.326 . S
O35 C31 1.260 . S
C36 O27 1.240 . S
C36 O28 1.252 . S
O37 In26 2.294 . S
O37 C30 1.240 . S
O38 In26 2.326 . S
O38 C30 1.252 . S
In39 O40 2.294 . S
In39 O41 2.326 . S
In39 O45 2.266 . S
In39 O46 2.326 . S
In39 O47 2.266 . S
In39 O48 2.326 . S
In39 O50 2.294 . S
In39 O51 2.326 . S
O40 In39 2.294 . S
O40 C49 1.240 . S
O41 In39 2.326 . S
O41 C49 1.252 . S
C42 O45 1.252 . S
C42 O46 1.260 . S
C43 O50 1.240 . S
C43 O51 1.252 . S
C44 O47 1.252 . S
C44 O48 1.260 . S
O45 In39 2.266 . S
O45 C42 1.252 . S
O46 In39 2.326 . S
O46 C42 1.260 . S
O47 In39 2.266 . S
O47 C44 1.252 . S
O48 In39 2.326 . S
O48 C44 1.260 . S
C49 O40 1.240 . S
C49 O41 1.252 . S
O50 In39 2.294 . S
O50 C43 1.240 . S
O51 In39 2.326 . S
O51 C43 1.252 . S
In52 O53 2.294 . S
In52 O54 2.326 . S
In52 O58 2.266 . S
In52 O59 2.326 . S
In52 O60 2.266 . S
In52 O61 2.326 . S
In52 O63 2.294 1_554 S
In52 O64 2.326 1_554 S
O53 In52 2.294 . S
O53 C62 1.240 . S
O54 In52 2.326 . S
O54 C62 1.252 . S
C55 O58 1.252 . S
C55 O59 1.260 . S
C56 O63 1.240 . S
C56 O64 1.252 . S
C57 O60 1.252 . S
C57 O61 1.260 . S
O58 In52 2.266 . S
O58 C55 1.252 . S
O59 In52 2.326 . S
O59 C55 1.260 . S
O60 In52 2.266 . S
O60 C57 1.252 . S
O61 In52 2.326 . S
O61 C57 1.260 . S
C62 O53 1.240 . S
C62 O54 1.252 . S
O63 In52 2.294 1_556 S
O63 C56 1.240 . S
O64 In52 2.326 1_556 S
O64 C56 1.252 . S
In65 O66 2.294 1_554 S
In65 O67 2.326 1_554 S
In65 O71 2.266 . S
In65 O72 2.326 . S
In65 O73 2.266 . S
In65 O74 2.326 . S
In65 O76 2.294 . S
In65 O77 2.326 . S
O66 In65 2.294 1_556 S
O66 C75 1.240 . S
O67 In65 2.326 1_556 S
O67 C75 1.252 . S
C68 O71 1.252 . S
C68 O72 1.260 . S
C69 O76 1.240 . S
C69 O77 1.252 . S
C70 O73 1.252 . S
C70 O74 1.260 . S
O71 In65 2.266 . S
O71 C68 1.252 . S
O72 In65 2.326 . S
O72 C68 1.260 . S
O73 In65 2.266 . S
O73 C70 1.252 . S
O74 In65 2.326 . S
O74 C70 1.260 . S
C75 O66 1.240 . S
C75 O67 1.252 . S
O76 In65 2.294 . S
O76 C69 1.240 . S
O77 In65 2.326 . S
O77 C69 1.252 . S
In78 O79 2.294 . S
In78 O80 2.326 . S
In78 O84 2.266 . S
In78 O85 2.326 . S
In78 O86 2.266 . S
In78 O87 2.326 . S
In78 O89 2.294 . S
In78 O90 2.326 . S
O79 In78 2.294 . S
O79 C88 1.240 . S
O80 In78 2.326 . S
O80 C88 1.252 . S
C81 O84 1.252 . S
C81 O85 1.260 . S
C82 O89 1.240 . S
C82 O90 1.252 . S
C83 O86 1.252 . S
C83 O87 1.260 . S
O84 In78 2.266 . S
O84 C81 1.252 . S
O85 In78 2.326 . S
O85 C81 1.260 . S
O86 In78 2.266 . S
O86 C83 1.252 . S
O87 In78 2.326 . S
O87 C83 1.260 . S
C88 O79 1.240 . S
C88 O80 1.252 . S
O89 In78 2.294 . S
O89 C82 1.240 . S
O90 In78 2.326 . S
O90 C82 1.252 . S
In91 O92 2.294 . S
In91 O93 2.326 . S
In91 O97 2.266 . S
In91 O98 2.326 . S
In91 O99 2.266 . S
In91 O100 2.326 . S
In91 O102 2.294 . S
In91 O103 2.326 . S
O92 In91 2.294 . S
O92 C101 1.240 . S
O93 In91 2.326 . S
O93 C101 1.252 . S
C94 O97 1.252 . S
C94 O98 1.260 . S
C95 O102 1.240 . S
C95 O103 1.252 . S
C96 O99 1.252 . S
C96 O100 1.260 . S
O97 In91 2.266 . S
O97 C94 1.252 . S
O98 In91 2.326 . S
O98 C94 1.260 . S
O99 In91 2.266 . S
O99 C96 1.252 . S
O100 In91 2.326 . S
O100 C96 1.260 . S
C101 O92 1.240 . S
C101 O93 1.252 . S
O102 In91 2.294 . S
O102 C95 1.240 . S
O103 In91 2.326 . S
O103 C95 1.252 . S
C104 C105 1.349 . S
C104 C106 1.328 . S
C104 H129 0.950 1_554 S
C105 C104 1.349 . S
C105 C121 1.349 . S
C106 C104 1.328 . S
C106 C125 1.448 . S
C106 H130 0.930 1_554 S
C107 C124 1.574 . S
C107 C126 1.368 . S
C107 H131 0.949 . S
H108 C112 0.960 . S
C109 C110 1.349 . S
C109 C111 1.327 . S
C109 H132 0.950 . S
C110 C109 1.349 . S
C110 C122 1.349 . S
C111 C109 1.327 . S
C111 C127 1.429 . S
C111 H133 0.950 . S
C112 H108 0.960 . S
C112 C120 1.574 . S
C112 C128 1.356 1_556 S
H113 C121 0.950 . S
H114 C119 0.950 . S
H115 C120 0.960 . S
H116 C122 0.950 1_556 S
H117 C123 0.930 1_556 S
H118 C124 0.949 . S
C119 H114 0.950 . S
C119 C121 1.327 . S
C119 C125 1.429 . S
C120 C112 1.574 . S
C120 H115 0.960 . S
C120 C126 1.356 1_556 S
C121 C105 1.349 . S
C121 H113 0.950 . S
C121 C119 1.327 . S
C122 C110 1.349 . S
C122 H116 0.950 1_554 S
C122 C123 1.328 . S
C123 H117 0.930 1_554 S
C123 C122 1.328 . S
C123 C127 1.448 . S
C124 C107 1.574 . S
C124 H118 0.949 . S
C124 C128 1.368 . S
C125 C106 1.448 . S
C125 C119 1.429 . S
C125 C126 1.523 . S
C126 C107 1.368 . S
C126 C120 1.356 1_554 S
C126 C125 1.523 . S
C127 C111 1.429 . S
C127 C123 1.448 . S
C127 C128 1.523 . S
C128 C112 1.356 1_554 S
C128 C124 1.368 . S
C128 C127 1.523 . S
H129 C104 0.950 1_556 S
H130 C106 0.930 1_556 S
H131 C107 0.949 . S
H132 C109 0.950 . S
H133 C111 0.950 . S
C134 C135 1.349 . S
C134 C136 1.328 . S
C134 H159 0.950 1_554 S
C135 C134 1.349 . S
C135 C151 1.349 . S
C136 C134 1.328 . S
C136 C155 1.448 . S
C136 H160 0.930 1_554 S
C137 C154 1.574 . S
C137 C156 1.368 . S
C137 H161 0.949 . S
H138 C142 0.960 . S
C139 C140 1.349 . S
C139 C141 1.327 . S
C139 H162 0.950 . S
C140 C139 1.349 . S
C140 C152 1.349 . S
C141 C139 1.327 . S
C141 C157 1.429 . S
C141 H163 0.950 . S
C142 H138 0.960 . S
C142 C150 1.574 . S
C142 C158 1.356 1_556 S
H143 C151 0.950 . S
H144 C149 0.950 . S
H145 C150 0.960 . S
H146 C152 0.950 1_556 S
H147 C153 0.930 1_556 S
H148 C154 0.949 . S
C149 H144 0.950 . S
C149 C151 1.327 . S
C149 C155 1.429 . S
C150 C142 1.574 . S
C150 H145 0.960 . S
C150 C156 1.356 1_556 S
C151 C135 1.349 . S
C151 H143 0.950 . S
C151 C149 1.327 . S
C152 C140 1.349 . S
C152 H146 0.950 1_554 S
C152 C153 1.328 . S
C153 H147 0.930 1_554 S
C153 C152 1.328 . S
C153 C157 1.448 . S
C154 C137 1.574 . S
C154 H148 0.949 . S
C154 C158 1.368 . S
C155 C136 1.448 . S
C155 C149 1.429 . S
C155 C156 1.523 . S
C156 C137 1.368 . S
C156 C150 1.356 1_554 S
C156 C155 1.523 . S
C157 C141 1.429 . S
C157 C153 1.448 . S
C157 C158 1.523 . S
C158 C142 1.356 1_554 S
C158 C154 1.368 . S
C158 C157 1.523 . S
H159 C134 0.950 1_556 S
H160 C136 0.930 1_556 S
H161 C137 0.949 . S
H162 C139 0.950 . S
H163 C141 0.950 . S
C164 C165 1.349 . S
C164 C166 1.327 . S
C164 H189 0.950 . S
C165 C164 1.349 . S
C165 C181 1.349 . S
C166 C164 1.327 . S
C166 C185 1.429 . S
C166 H190 0.950 . S
C167 C184 1.574 . S
C167 C186 1.368 . S
C167 H191 0.949 . S
H168 C172 0.949 . S
C169 C170 1.349 . S
C169 C171 1.327 . S
C169 H192 0.950 . S
C170 C169 1.349 . S
C170 C182 1.349 . S
C171 C169 1.327 . S
C171 C187 1.429 . S
C171 H193 0.950 . S
C172 H168 0.949 . S
C172 C180 1.574 . S
C172 C188 1.368 . S
H173 C181 0.950 . S
H174 C179 0.950 . S
H175 C180 0.949 . S
H176 C182 0.950 . S
H177 C183 0.950 . S
H178 C184 0.949 . S
C179 H174 0.950 . S
C179 C181 1.327 . S
C179 C185 1.429 . S
C180 C172 1.574 . S
C180 H175 0.949 . S
C180 C186 1.368 . S
C181 C165 1.349 . S
C181 H173 0.950 . S
C181 C179 1.327 . S
C182 C170 1.349 . S
C182 H176 0.950 . S
C182 C183 1.327 . S
C183 H177 0.950 . S
C183 C182 1.327 . S
C183 C187 1.429 . S
C184 C167 1.574 . S
C184 H178 0.949 . S
C184 C188 1.368 . S
C185 C166 1.429 . S
C185 C179 1.429 . S
C185 C186 1.523 . S
C186 C167 1.368 . S
C186 C180 1.368 . S
C186 C185 1.523 . S
C187 C171 1.429 . S
C187 C183 1.429 . S
C187 C188 1.523 . S
C188 C172 1.368 . S
C188 C184 1.368 . S
C188 C187 1.523 . S
H189 C164 0.950 . S
H190 C166 0.950 . S
H191 C167 0.949 . S
H192 C169 0.950 . S
H193 C171 0.950 . S
C194 C195 1.349 . S
C194 C196 1.327 . S
C194 H219 0.950 . S
C195 C194 1.349 . S
C195 C211 1.349 . S
C196 C194 1.327 . S
C196 C215 1.429 . S
C196 H220 0.950 . S
C197 C214 1.574 . S
C197 C216 1.368 . S
C197 H221 0.949 . S
H198 C202 0.949 . S
C199 C200 1.349 . S
C199 C201 1.327 . S
C199 H222 0.950 . S
C200 C199 1.349 . S
C200 C212 1.349 . S
C201 C199 1.327 . S
C201 C217 1.429 . S
C201 H223 0.950 . S
C202 H198 0.949 . S
C202 C210 1.574 . S
C202 C218 1.368 . S
H203 C211 0.950 . S
H204 C209 0.950 . S
H205 C210 0.949 . S
H206 C212 0.950 . S
H207 C213 0.950 . S
H208 C214 0.949 . S
C209 H204 0.950 . S
C209 C211 1.327 . S
C209 C215 1.429 . S
C210 C202 1.574 . S
C210 H205 0.949 . S
C210 C216 1.368 . S
C211 C195 1.349 . S
C211 H203 0.950 . S
C211 C209 1.327 . S
C212 C200 1.349 . S
C212 H206 0.950 . S
C212 C213 1.327 . S
C213 H207 0.950 . S
C213 C212 1.327 . S
C213 C217 1.429 . S
C214 C197 1.574 . S
C214 H208 0.949 . S
C214 C218 1.368 . S
C215 C196 1.429 . S
C215 C209 1.429 . S
C215 C216 1.523 . S
C216 C197 1.368 . S
C216 C210 1.368 . S
C216 C215 1.523 . S
C217 C201 1.429 . S
C217 C213 1.429 . S
C217 C218 1.523 . S
C218 C202 1.368 . S
C218 C214 1.368 . S
C218 C217 1.523 . S
H219 C194 0.950 . S
H220 C196 0.950 . S
H221 C197 0.949 . S
H222 C199 0.950 . S
H223 C201 0.950 . S
C224 C225 1.349 . S
C224 C226 1.327 . S
C224 H249 0.950 . S
C225 C224 1.349 . S
C225 C241 1.349 . S
C226 C224 1.327 . S
C226 C245 1.429 . S
C226 H250 0.950 . S
C227 C244 1.574 . S
C227 C246 1.368 . S
C227 H251 0.949 . S
H228 C232 0.949 . S
C229 C230 1.349 . S
C229 C231 1.327 . S
C229 H252 0.950 . S
C230 C229 1.349 . S
C230 C242 1.349 . S
C231 C229 1.327 . S
C231 C247 1.429 . S
C231 H253 0.950 . S
C232 H228 0.949 . S
C232 C240 1.574 . S
C232 C248 1.368 . S
H233 C241 0.950 . S
H234 C239 0.950 . S
H235 C240 0.949 . S
H236 C242 0.950 . S
H237 C243 0.950 . S
H238 C244 0.949 . S
C239 H234 0.950 . S
C239 C241 1.327 . S
C239 C245 1.429 . S
C240 C232 1.574 . S
C240 H235 0.949 . S
C240 C246 1.368 . S
C241 C225 1.349 . S
C241 H233 0.950 . S
C241 C239 1.327 . S
C242 C230 1.349 . S
C242 H236 0.950 . S
C242 C243 1.327 . S
C243 H237 0.950 . S
C243 C242 1.327 . S
C243 C247 1.429 . S
C244 C227 1.574 . S
C244 H238 0.949 . S
C244 C248 1.368 . S
C245 C226 1.429 . S
C245 C239 1.429 . S
C245 C246 1.523 . S
C246 C227 1.368 . S
C246 C240 1.368 . S
C246 C245 1.523 . S
C247 C231 1.429 . S
C247 C243 1.429 . S
C247 C248 1.523 . S
C248 C232 1.368 . S
C248 C244 1.368 . S
C248 C247 1.523 . S
H249 C224 0.950 . S
H250 C226 0.950 . S
H251 C227 0.949 . S
H252 C229 0.950 . S
H253 C231 0.950 . S
C254 C255 1.349 . S
C254 C256 1.327 . S
C254 H279 0.950 . S
C255 C254 1.349 . S
C255 C271 1.349 . S
C256 C254 1.327 . S
C256 C275 1.429 . S
C256 H280 0.950 . S
C257 C274 1.574 . S
C257 C276 1.368 . S
C257 H281 0.949 . S
H258 C262 0.949 . S
C259 C260 1.349 . S
C259 C261 1.327 . S
C259 H282 0.950 . S
C260 C259 1.349 . S
C260 C272 1.349 . S
C261 C259 1.327 . S
C261 C277 1.429 . S
C261 H283 0.950 . S
C262 H258 0.949 . S
C262 C270 1.574 . S
C262 C278 1.368 . S
H263 C271 0.950 . S
H264 C269 0.950 . S
H265 C270 0.949 . S
H266 C272 0.950 . S
H267 C273 0.950 . S
H268 C274 0.949 . S
C269 H264 0.950 . S
C269 C271 1.327 . S
C269 C275 1.429 . S
C270 C262 1.574 . S
C270 H265 0.949 . S
C270 C276 1.368 . S
C271 C255 1.349 . S
C271 H263 0.950 . S
C271 C269 1.327 . S
C272 C260 1.349 . S
C272 H266 0.950 . S
C272 C273 1.327 . S
C273 H267 0.950 . S
C273 C272 1.327 . S
C273 C277 1.429 . S
C274 C257 1.574 . S
C274 H268 0.949 . S
C274 C278 1.368 . S
C275 C256 1.429 . S
C275 C269 1.429 . S
C275 C276 1.523 . S
C276 C257 1.368 . S
C276 C270 1.368 . S
C276 C275 1.523 . S
C277 C261 1.429 . S
C277 C273 1.429 . S
C277 C278 1.523 . S
C278 C262 1.368 . S
C278 C274 1.368 . S
C278 C277 1.523 . S
H279 C254 0.950 . S
H280 C256 0.950 . S
H281 C257 0.949 . S
H282 C259 0.950 . S
H283 C261 0.950 . S
C284 C285 1.349 . S
C284 C286 1.327 . S
C284 H309 0.950 . S
C285 C284 1.349 . S
C285 C301 1.349 . S
C286 C284 1.327 . S
C286 C305 1.429 . S
C286 H310 0.950 . S
C287 C304 1.574 . S
C287 C306 1.368 . S
C287 H311 0.949 . S
H288 C292 0.949 . S
C289 C290 1.349 . S
C289 C291 1.327 . S
C289 H312 0.950 . S
C290 C289 1.349 . S
C290 C302 1.349 . S
C291 C289 1.327 . S
C291 C307 1.429 . S
C291 H313 0.950 . S
C292 H288 0.949 . S
C292 C300 1.574 . S
C292 C308 1.368 . S
H293 C301 0.950 . S
H294 C299 0.950 . S
H295 C300 0.949 . S
H296 C302 0.950 . S
H297 C303 0.950 . S
H298 C304 0.949 . S
C299 H294 0.950 . S
C299 C301 1.327 . S
C299 C305 1.429 . S
C300 C292 1.574 . S
C300 H295 0.949 . S
C300 C306 1.368 . S
C301 C285 1.349 . S
C301 H293 0.950 . S
C301 C299 1.327 . S
C302 C290 1.349 . S
C302 H296 0.950 . S
C302 C303 1.327 . S
C303 H297 0.950 . S
C303 C302 1.327 . S
C303 C307 1.429 . S
C304 C287 1.574 . S
C304 H298 0.949 . S
C304 C308 1.368 . S
C305 C286 1.429 . S
C305 C299 1.429 . S
C305 C306 1.523 . S
C306 C287 1.368 . S
C306 C300 1.368 . S
C306 C305 1.523 . S
C307 C291 1.429 . S
C307 C303 1.429 . S
C307 C308 1.523 . S
C308 C292 1.368 . S
C308 C304 1.368 . S
C308 C307 1.523 . S
H309 C284 0.950 . S
H310 C286 0.950 . S
H311 C287 0.949 . S
H312 C289 0.950 . S
H313 C291 0.950 . S
C314 C315 1.349 . S
C314 C316 1.327 . S
C314 H339 0.950 . S
C315 C314 1.349 . S
C315 C331 1.349 . S
C316 C314 1.327 . S
C316 C335 1.429 . S
C316 H340 0.950 . S
C317 C334 1.574 . S
C317 C336 1.368 . S
C317 H341 0.949 . S
H318 C322 0.949 . S
C319 C320 1.349 . S
C319 C321 1.327 . S
C319 H342 0.950 . S
C320 C319 1.349 . S
C320 C332 1.349 . S
C321 C319 1.327 . S
C321 C337 1.429 . S
C321 H343 0.950 . S
C322 H318 0.949 . S
C322 C330 1.574 . S
C322 C338 1.368 . S
H323 C331 0.950 . S
H324 C329 0.950 . S
H325 C330 0.949 . S
H326 C332 0.950 . S
H327 C333 0.950 . S
H328 C334 0.949 . S
C329 H324 0.950 . S
C329 C331 1.327 . S
C329 C335 1.429 . S
C330 C322 1.574 . S
C330 H325 0.949 . S
C330 C336 1.368 . S
C331 C315 1.349 . S
C331 H323 0.950 . S
C331 C329 1.327 . S
C332 C320 1.349 . S
C332 H326 0.950 . S
C332 C333 1.327 . S
C333 H327 0.950 . S
C333 C332 1.327 . S
C333 C337 1.429 . S
C334 C317 1.574 . S
C334 H328 0.949 . S
C334 C338 1.368 . S
C335 C316 1.429 . S
C335 C329 1.429 . S
C335 C336 1.523 . S
C336 C317 1.368 . S
C336 C330 1.368 . S
C336 C335 1.523 . S
C337 C321 1.429 . S
C337 C333 1.429 . S
C337 C338 1.523 . S
C338 C322 1.368 . S
C338 C334 1.368 . S
C338 C337 1.523 . S
H339 C314 0.950 . S
H340 C316 0.950 . S
H341 C317 0.949 . S
H342 C319 0.950 . S
H343 C321 0.950 . S
C344 C345 1.349 . S
C344 C346 1.327 . S
C344 H369 0.950 . S
C345 C344 1.349 . S
C345 C361 1.349 . S
C346 C344 1.327 . S
C346 C365 1.429 . S
C346 H370 0.950 . S
C347 C364 1.574 . S
C347 C366 1.368 1_545 S
C347 H371 0.949 . S
H348 C352 0.949 . S
C349 C350 1.349 . S
C349 C351 1.327 . S
C349 H372 0.950 . S
C350 C349 1.349 . S
C350 C362 1.349 . S
C351 C349 1.327 . S
C351 C367 1.429 . S
C351 H373 0.950 . S
C352 H348 0.949 . S
C352 C360 1.574 . S
C352 C368 1.368 1_565 S
H353 C361 0.950 . S
H354 C359 0.950 1_545 S
H355 C360 0.949 . S
H356 C362 0.950 . S
H357 C363 0.950 1_565 S
H358 C364 0.949 . S
C359 H354 0.950 1_565 S
C359 C361 1.327 . S
C359 C365 1.429 . S
C360 C352 1.574 . S
C360 H355 0.949 . S
C360 C366 1.368 . S
C361 C345 1.349 . S
C361 H353 0.950 . S
C361 C359 1.327 . S
C362 C350 1.349 . S
C362 H356 0.950 . S
C362 C363 1.327 . S
C363 H357 0.950 1_545 S
C363 C362 1.327 . S
C363 C367 1.429 . S
C364 C347 1.574 . S
C364 H358 0.949 . S
C364 C368 1.368 . S
C365 C346 1.429 . S
C365 C359 1.429 . S
C365 C366 1.523 . S
C366 C347 1.368 1_565 S
C366 C360 1.368 . S
C366 C365 1.523 . S
C367 C351 1.429 . S
C367 C363 1.429 . S
C367 C368 1.523 . S
C368 C352 1.368 1_545 S
C368 C364 1.368 . S
C368 C367 1.523 . S
H369 C344 0.950 . S
H370 C346 0.950 . S
H371 C347 0.949 . S
H372 C349 0.950 . S
H373 C351 0.950 . S
C374 C375 1.349 . S
C374 C376 1.331 . S
C374 H399 0.950 1_565 S
C375 C374 1.349 . S
C375 C391 1.349 . S
C376 C374 1.331 . S
C376 C395 1.436 . S
C376 H400 0.938 1_565 S
C377 C394 1.574 . S
C377 C396 1.368 . S
C377 H401 0.949 . S
H378 C382 0.949 . S
C379 C380 1.349 . S
C379 C381 1.331 . S
C379 H402 0.950 1_545 S
C380 C379 1.349 . S
C380 C392 1.349 . S
C381 C379 1.331 . S
C381 C397 1.436 . S
C381 H403 0.938 1_545 S
C382 H378 0.949 . S
C382 C390 1.574 . S
C382 C398 1.368 . S
H383 C391 0.950 . S
H384 C389 0.950 . S
H385 C390 0.949 . S
H386 C392 0.950 . S
H387 C393 0.950 . S
H388 C394 0.949 . S
C389 H384 0.950 . S
C389 C391 1.327 . S
C389 C395 1.429 . S
C390 C382 1.574 . S
C390 H385 0.949 . S
C390 C396 1.368 1_545 S
C391 C375 1.349 . S
C391 H383 0.950 . S
C391 C389 1.327 . S
C392 C380 1.349 . S
C392 H386 0.950 . S
C392 C393 1.327 . S
C393 H387 0.950 . S
C393 C392 1.327 . S
C393 C397 1.429 . S
C394 C377 1.574 . S
C394 H388 0.949 . S
C394 C398 1.368 1_565 S
C395 C376 1.436 . S
C395 C389 1.429 . S
C395 C396 1.523 . S
C396 C377 1.368 . S
C396 C390 1.368 1_565 S
C396 C395 1.523 . S
C397 C381 1.436 . S
C397 C393 1.429 . S
C397 C398 1.523 . S
C398 C382 1.368 . S
C398 C394 1.368 1_545 S
C398 C397 1.523 . S
H399 C374 0.950 1_545 S
H400 C376 0.938 1_545 S
H401 C377 0.949 . S
H402 C379 0.950 1_565 S
H403 C381 0.938 1_565 S
C404 C405 1.349 . S
C404 C406 1.327 . S
C404 H429 0.950 . S
C405 C404 1.349 . S
C405 C421 1.349 . S
C406 C404 1.327 . S
C406 C425 1.429 . S
C406 H430 0.950 . S
C407 C424 1.574 . S
C407 C426 1.368 1_545 S
C407 H431 0.949 . S
H408 C412 0.949 . S
C409 C410 1.349 . S
C409 C411 1.327 . S
C409 H432 0.950 . S
C410 C409 1.349 . S
C410 C422 1.349 . S
C411 C409 1.327 . S
C411 C427 1.429 . S
C411 H433 0.950 . S
C412 H408 0.949 . S
C412 C420 1.574 . S
C412 C428 1.368 1_565 S
H413 C421 0.950 . S
H414 C419 0.950 1_545 S
H415 C420 0.949 . S
H416 C422 0.950 . S
H417 C423 0.950 1_565 S
H418 C424 0.949 . S
C419 H414 0.950 1_565 S
C419 C421 1.327 . S
C419 C425 1.429 . S
C420 C412 1.574 . S
C420 H415 0.949 . S
C420 C426 1.368 . S
C421 C405 1.349 . S
C421 H413 0.950 . S
C421 C419 1.327 . S
C422 C410 1.349 . S
C422 H416 0.950 . S
C422 C423 1.327 . S
C423 H417 0.950 1_545 S
C423 C422 1.327 . S
C423 C427 1.429 . S
C424 C407 1.574 . S
C424 H418 0.949 . S
C424 C428 1.368 . S
C425 C406 1.429 . S
C425 C419 1.429 . S
C425 C426 1.523 . S
C426 C407 1.368 1_565 S
C426 C420 1.368 . S
C426 C425 1.523 . S
C427 C411 1.429 . S
C427 C423 1.429 . S
C427 C428 1.523 . S
C428 C412 1.368 1_545 S
C428 C424 1.368 . S
C428 C427 1.523 . S
H429 C404 0.950 . S
H430 C406 0.950 . S
H431 C407 0.949 . S
H432 C409 0.950 . S
H433 C411 0.950 . S
C434 C435 1.349 . S
C434 C436 1.327 . S
C434 H459 0.950 . S
C435 C434 1.349 . S
C435 C451 1.349 . S
C436 C434 1.327 . S
C436 C455 1.429 . S
C436 H460 0.950 1_565 S
C437 C454 1.574 . S
C437 C456 1.368 . S
C437 H461 0.949 . S
H438 C442 0.949 . S
C439 C440 1.349 . S
C439 C441 1.327 . S
C439 H462 0.950 . S
C440 C439 1.349 . S
C440 C452 1.349 . S
C441 C439 1.327 . S
C441 C457 1.429 . S
C441 H463 0.950 1_545 S
C442 H438 0.949 . S
C442 C450 1.574 . S
C442 C458 1.368 . S
H443 C451 0.950 . S
H444 C449 0.950 . S
H445 C450 0.949 . S
H446 C452 0.950 . S
H447 C453 0.950 . S
H448 C454 0.949 . S
C449 H444 0.950 . S
C449 C451 1.327 . S
C449 C455 1.429 . S
C450 C442 1.574 . S
C450 H445 0.949 . S
C450 C456 1.368 1_545 S
C451 C435 1.349 . S
C451 H443 0.950 . S
C451 C449 1.327 . S
C452 C440 1.349 . S
C452 H446 0.950 . S
C452 C453 1.327 . S
C453 H447 0.950 . S
C453 C452 1.327 . S
C453 C457 1.429 . S
C454 C437 1.574 . S
C454 H448 0.949 . S
C454 C458 1.368 1_565 S
C455 C436 1.429 . S
C455 C449 1.429 . S
C455 C456 1.523 . S
C456 C437 1.368 . S
C456 C450 1.368 1_565 S
C456 C455 1.523 . S
C457 C441 1.429 . S
C457 C453 1.429 . S
C457 C458 1.523 . S
C458 C442 1.368 . S
C458 C454 1.368 1_545 S
C458 C457 1.523 . S
H459 C434 0.950 . S
H460 C436 0.950 1_545 S
H461 C437 0.949 . S
H462 C439 0.950 . S
H463 C441 0.950 1_565 S
C464 C465 1.349 1_556 S
C464 C466 1.327 . S
C464 H489 0.950 . S
C465 C464 1.349 1_554 S
C465 C481 1.349 . S
C466 C464 1.327 . S
C466 C485 1.429 1_556 S
C466 H490 0.950 . S
C467 C484 1.574 . S
C467 C486 1.368 . S
C467 H491 0.949 . S
H468 C472 0.949 . S
C469 C470 1.349 . S
C469 C471 1.327 . S
C469 H492 0.950 . S
C470 C469 1.349 . S
C470 C482 1.349 1_554 S
C471 C469 1.327 . S
C471 C487 1.429 . S
C471 H493 0.950 . S
C472 H468 0.949 . S
C472 C480 1.574 . S
C472 C488 1.368 1_556 S
H473 C481 0.950 . S
H474 C479 0.950 . S
H475 C480 0.949 . S
H476 C482 0.950 . S
H477 C483 0.950 . S
H478 C484 0.949 . S
C479 H474 0.950 . S
C479 C481 1.327 . S
C479 C485 1.429 . S
C480 C472 1.574 . S
C480 H475 0.949 . S
C480 C486 1.368 1_546 S
C481 C465 1.349 . S
C481 H473 0.950 . S
C481 C479 1.327 . S
C482 C470 1.349 1_556 S
C482 H476 0.950 . S
C482 C483 1.327 . S
C483 H477 0.950 . S
C483 C482 1.327 . S
C483 C487 1.429 1_556 S
C484 C467 1.574 . S
C484 H478 0.949 . S
C484 C488 1.368 1_565 S
C485 C466 1.429 1_554 S
C485 C479 1.429 . S
C485 C486 1.523 . S
C486 C467 1.368 . S
C486 C480 1.368 1_564 S
C486 C485 1.523 . S
C487 C471 1.429 . S
C487 C483 1.429 1_554 S
C487 C488 1.523 . S
C488 C472 1.368 1_554 S
C488 C484 1.368 1_545 S
C488 C487 1.523 . S
H489 C464 0.950 . S
H490 C466 0.950 . S
H491 C467 0.949 . S
H492 C469 0.950 . S
H493 C471 0.950 . S
C494 C495 1.349 . S
C494 C496 1.327 . S
C494 H519 0.950 . S
C495 C494 1.349 . S
C495 C511 1.349 . S
C496 C494 1.327 . S
C496 C515 1.429 . S
C496 H520 0.950 . S
C497 C514 1.574 . S
C497 C516 1.368 1_545 S
C497 H521 0.949 . S
H498 C502 0.949 . S
C499 C500 1.349 . S
C499 C501 1.327 . S
C499 H522 0.950 . S
C500 C499 1.349 . S
C500 C512 1.349 . S
C501 C499 1.327 . S
C501 C517 1.429 . S
C501 H523 0.950 . S
C502 H498 0.949 . S
C502 C510 1.574 . S
C502 C518 1.368 1_565 S
H503 C511 0.950 . S
H504 C509 0.950 . S
H505 C510 0.949 . S
H506 C512 0.950 . S
H507 C513 0.950 . S
H508 C514 0.949 . S
C509 H504 0.950 . S
C509 C511 1.327 . S
C509 C515 1.429 . S
C510 C502 1.574 . S
C510 H505 0.949 . S
C510 C516 1.368 . S
C511 C495 1.349 . S
C511 H503 0.950 . S
C511 C509 1.327 . S
C512 C500 1.349 . S
C512 H506 0.950 . S
C512 C513 1.327 . S
C513 H507 0.950 . S
C513 C512 1.327 . S
C513 C517 1.429 . S
C514 C497 1.574 . S
C514 H508 0.949 . S
C514 C518 1.368 . S
C515 C496 1.429 . S
C515 C509 1.429 . S
C515 C516 1.523 . S
C516 C497 1.368 1_565 S
C516 C510 1.368 . S
C516 C515 1.523 . S
C517 C501 1.429 . S
C517 C513 1.429 . S
C517 C518 1.523 . S
C518 C502 1.368 1_545 S
C518 C514 1.368 . S
C518 C517 1.523 . S
H519 C494 0.950 . S
H520 C496 0.950 . S
H521 C497 0.949 . S
H522 C499 0.950 . S
H523 C501 0.950 . S
C524 C525 1.349 . S
C524 C526 1.327 . S
C524 H549 0.950 . S
C525 C524 1.349 . S
C525 C541 1.349 1_554 S
C526 C524 1.327 . S
C526 C545 1.429 . S
C526 H550 0.950 . S
C527 C544 1.574 1_455 S
C527 C546 1.368 1_556 S
C527 H551 0.949 . S
H528 C532 0.949 . S
C529 C530 1.349 1_556 S
C529 C531 1.327 . S
C529 H552 0.950 . S
C530 C529 1.349 1_554 S
C530 C542 1.349 . S
C531 C529 1.327 . S
C531 C547 1.429 1_556 S
C531 H553 0.950 . S
C532 H528 0.949 . S
C532 C540 1.574 1_655 S
C532 C548 1.368 . S
H533 C541 0.950 . S
H534 C539 0.950 . S
H535 C540 0.949 . S
H536 C542 0.950 . S
H537 C543 0.950 . S
H538 C544 0.949 . S
C539 H534 0.950 . S
C539 C541 1.327 . S
C539 C545 1.429 1_556 S
C540 C532 1.574 1_455 S
C540 H535 0.949 . S
C540 C546 1.368 . S
C541 C525 1.349 1_556 S
C541 H533 0.950 . S
C541 C539 1.327 . S
C542 C530 1.349 . S
C542 H536 0.950 . S
C542 C543 1.327 . S
C543 H537 0.950 . S
C543 C542 1.327 . S
C543 C547 1.429 . S
C544 C527 1.574 1_655 S
C544 H538 0.949 . S
C544 C548 1.368 1_556 S
C545 C526 1.429 . S
C545 C539 1.429 1_554 S
C545 C546 1.523 . S
C546 C527 1.368 1_554 S
C546 C540 1.368 . S
C546 C545 1.523 . S
C547 C531 1.429 1_554 S
C547 C543 1.429 . S
C547 C548 1.523 . S
C548 C532 1.368 . S
C548 C544 1.368 1_554 S
C548 C547 1.523 . S
H549 C524 0.950 . S
H550 C526 0.950 . S
H551 C527 0.949 . S
H552 C529 0.950 . S
H553 C531 0.950 . S
C554 C555 1.349 . S
C554 C556 1.327 . S
C554 H579 0.950 . S
C555 C554 1.349 . S
C555 C571 1.349 . S
C556 C554 1.327 . S
C556 C575 1.429 . S
C556 H580 0.950 . S
C557 C574 1.574 1_455 S
C557 C576 1.368 . S
C557 H581 0.949 . S
H558 C562 0.949 . S
C559 C560 1.349 . S
C559 C561 1.327 . S
C559 H582 0.950 . S
C560 C559 1.349 . S
C560 C572 1.349 . S
C561 C559 1.327 . S
C561 C577 1.429 . S
C561 H583 0.950 . S
C562 H558 0.949 . S
C562 C570 1.574 1_655 S
C562 C578 1.368 . S
H563 C571 0.950 . S
H564 C569 0.950 . S
H565 C570 0.949 . S
H566 C572 0.950 . S
H567 C573 0.950 . S
H568 C574 0.949 . S
C569 H564 0.950 . S
C569 C571 1.327 . S
C569 C575 1.429 . S
C570 C562 1.574 1_455 S
C570 H565 0.949 . S
C570 C576 1.368 . S
C571 C555 1.349 . S
C571 H563 0.950 . S
C571 C569 1.327 . S
C572 C560 1.349 . S
C572 H566 0.950 . S
C572 C573 1.327 . S
C573 H567 0.950 . S
C573 C572 1.327 . S
C573 C577 1.429 . S
C574 C557 1.574 1_655 S
C574 H568 0.949 . S
C574 C578 1.368 . S
C575 C556 1.429 . S
C575 C569 1.429 . S
C575 C576 1.523 . S
C576 C557 1.368 . S
C576 C570 1.368 . S
C576 C575 1.523 . S
C577 C561 1.429 . S
C577 C573 1.429 . S
C577 C578 1.523 . S
C578 C562 1.368 . S
C578 C574 1.368 . S
C578 C577 1.523 . S
H579 C554 0.950 . S
H580 C556 0.950 . S
H581 C557 0.949 . S
H582 C559 0.950 . S
H583 C561 0.950 . S
C105 C70 1.515 . S
C110 C5 1.515 . S
C135 C55 1.515 . S
C140 C16 1.515 . S
C165 C94 1.515 . S
C170 C31 1.515 . S
C195 C83 1.515 . S
C200 C42 1.515 . S
C225 C3 1.390 . S
C230 C29 1.390 . S
C255 C18 1.390 . S
C260 C44 1.390 . S
C285 C17 1.433 . S
C290 C43 1.433 . S
C315 C10 1.433 . S
C320 C36 1.433 . S
C345 C57 1.390 . S
C350 C81 1.390 . S
C375 C96 1.390 . S
C380 C68 1.390 . S
C405 C95 1.433 . S
C410 C75 1.433 . S
C435 C56 1.433 . S
C440 C88 1.433 . S
C465 C23 1.514 . S
C470 C4 1.514 . S
C495 C30 1.514 . S
C500 C49 1.514 . S
C525 C62 1.514 . S
C530 C69 1.514 . S
C555 C82 1.514 . S
C560 C101 1.514 . S
