# Generated by pormake.
# Topology zni, (4)-cn, num edge types: 1
# Building blocks:
#     Node 0, Type 0, BuildingBlock: TATPOV_clean_sbu_0, # of connection points: 4
#     Node 1, Type 0, BuildingBlock: TATPOV_clean_sbu_0, # of connection points: 4
#     Node 2, Type 0, BuildingBlock: TATPOV_clean_sbu_0, # of connection points: 4
#     Node 3, Type 0, BuildingBlock: TATPOV_clean_sbu_0, # of connection points: 4
#     Node 4, Type 0, BuildingBlock: TATPOV_clean_sbu_0, # of connection points: 4
#     Node 5, Type 0, BuildingBlock: TATPOV_clean_sbu_0, # of connection points: 4
#     Node 6, Type 0, BuildingBlock: TATPOV_clean_sbu_0, # of connection points: 4
#     Node 7, Type 0, BuildingBlock: TATPOV_clean_sbu_0, # of connection points: 4
#     Node 8, Type 0, BuildingBlock: TATPOV_clean_sbu_0, # of connection points: 4
#     Node 9, Type 0, BuildingBlock: TATPOV_clean_sbu_0, # of connection points: 4
#     Node 10, Type 0, BuildingBlock: TATPOV_clean_sbu_0, # of connection points: 4
#     Node 11, Type 0, BuildingBlock: TATPOV_clean_sbu_0, # of connection points: 4
#     Node 12, Type 0, BuildingBlock: TATPOV_clean_sbu_0, # of connection points: 4
#     Node 13, Type 0, BuildingBlock: TATPOV_clean_sbu_0, # of connection points: 4
#     Node 14, Type 0, BuildingBlock: TATPOV_clean_sbu_0, # of connection points: 4
#     Node 15, Type 0, BuildingBlock: TATPOV_clean_sbu_0, # of connection points: 4
#     Node 16, Type 0, BuildingBlock: TATPOV_clean_sbu_0, # of connection points: 4
#     Node 17, Type 0, BuildingBlock: TATPOV_clean_sbu_0, # of connection points: 4
#     Node 18, Type 0, BuildingBlock: TATPOV_clean_sbu_0, # of connection points: 4
#     Node 19, Type 0, BuildingBlock: TATPOV_clean_sbu_0, # of connection points: 4
#     Node 20, Type 0, BuildingBlock: TATPOV_clean_sbu_0, # of connection points: 4
#     Node 21, Type 0, BuildingBlock: TATPOV_clean_sbu_0, # of connection points: 4
#     Node 22, Type 0, BuildingBlock: TATPOV_clean_sbu_0, # of connection points: 4
#     Node 23, Type 0, BuildingBlock: TATPOV_clean_sbu_0, # of connection points: 4
#     Node 24, Type 0, BuildingBlock: TATPOV_clean_sbu_0, # of connection points: 4
#     Node 25, Type 0, BuildingBlock: TATPOV_clean_sbu_0, # of connection points: 4
#     Node 26, Type 0, BuildingBlock: TATPOV_clean_sbu_0, # of connection points: 4
#     Node 27, Type 0, BuildingBlock: TATPOV_clean_sbu_0, # of connection points: 4
#     Node 28, Type 0, BuildingBlock: TATPOV_clean_sbu_0, # of connection points: 4
#     Node 29, Type 0, BuildingBlock: TATPOV_clean_sbu_0, # of connection points: 4
#     Node 30, Type 0, BuildingBlock: TATPOV_clean_sbu_0, # of connection points: 4
#     Node 31, Type 0, BuildingBlock: TATPOV_clean_sbu_0, # of connection points: 4
#     Edge 32, Type (0, 0), None
#     Edge 33, Type (0, 0), None
#     Edge 34, Type (0, 0), None
#     Edge 35, Type (0, 0), None
#     Edge 36, Type (0, 0), None
#     Edge 37, Type (0, 0), None
#     Edge 38, Type (0, 0), None
#     Edge 39, Type (0, 0), None
#     Edge 40, Type (0, 0), None
#     Edge 41, Type (0, 0), None
#     Edge 42, Type (0, 0), None
#     Edge 43, Type (0, 0), None
#     Edge 44, Type (0, 0), None
#     Edge 45, Type (0, 0), None
#     Edge 46, Type (0, 0), None
#     Edge 47, Type (0, 0), None
#     Edge 48, Type (0, 0), None
#     Edge 49, Type (0, 0), None
#     Edge 50, Type (0, 0), None
#     Edge 51, Type (0, 0), None
#     Edge 52, Type (0, 0), None
#     Edge 53, Type (0, 0), None
#     Edge 54, Type (0, 0), None
#     Edge 55, Type (0, 0), None
#     Edge 56, Type (0, 0), None
#     Edge 57, Type (0, 0), None
#     Edge 58, Type (0, 0), None
#     Edge 59, Type (0, 0), None
#     Edge 60, Type (0, 0), None
#     Edge 61, Type (0, 0), None
#     Edge 62, Type (0, 0), None
#     Edge 63, Type (0, 0), None
#     Edge 64, Type (0, 0), None
#     Edge 65, Type (0, 0), None
#     Edge 66, Type (0, 0), None
#     Edge 67, Type (0, 0), None
#     Edge 68, Type (0, 0), None
#     Edge 69, Type (0, 0), None
#     Edge 70, Type (0, 0), None
#     Edge 71, Type (0, 0), None
#     Edge 72, Type (0, 0), None
#     Edge 73, Type (0, 0), None
#     Edge 74, Type (0, 0), None
#     Edge 75, Type (0, 0), None
#     Edge 76, Type (0, 0), None
#     Edge 77, Type (0, 0), None
#     Edge 78, Type (0, 0), None
#     Edge 79, Type (0, 0), None
#     Edge 80, Type (0, 0), None
#     Edge 81, Type (0, 0), None
#     Edge 82, Type (0, 0), None
#     Edge 83, Type (0, 0), None
#     Edge 84, Type (0, 0), None
#     Edge 85, Type (0, 0), None
#     Edge 86, Type (0, 0), None
#     Edge 87, Type (0, 0), None
#     Edge 88, Type (0, 0), None
#     Edge 89, Type (0, 0), None
#     Edge 90, Type (0, 0), None
#     Edge 91, Type (0, 0), None
#     Edge 92, Type (0, 0), None
#     Edge 93, Type (0, 0), None
#     Edge 94, Type (0, 0), None
#     Edge 95, Type (0, 0), None
# Relax obj value: 0.189
# Max RMSD: 0.117
# Mean RMSD: 0.117
data_MOF--net-zni--node1-TATPOV_clean_sbu_0--edge1-none
_symmetry_space_group_name_H-M    P1
_symmetry_Int_Tables_number       1
_symmetry_cell_setting            triclinic
loop_
_symmetry_equiv_pos_as_xyz
'x, y, z'
_cell_length_a     24.837427
_cell_length_b     24.837231
_cell_length_c     15.468846
_cell_angle_alpha  90.0
_cell_angle_beta   90.0
_cell_angle_gamma 90.000133
loop_
_atom_site_label
_atom_site_type_symbol
_atom_site_fract_x
_atom_site_fract_y
_atom_site_fract_z
_atom_type_partial_charge
Zn0 Zn 0.11653 0.16885 0.46058 0.0
Zn1 Zn 0.15438 0.11035 0.34291 0.0
O2 O 0.16461 0.07734 0.46646 0.0
O3 O 0.19263 0.15335 0.51015 0.0
O4 O 0.18113 0.05604 0.25448 0.0
O5 O 0.04568 0.12306 0.45184 0.0
O6 O 0.07484 0.1098 0.32016 0.0
C7 C 0.18515 0.10469 0.52726 0.0
C8 C 0.15464 0.23308 0.32951 0.0
O9 O 0.17982 0.18967 0.30949 0.0
O10 O 0.11853 0.23242 0.38693 0.0
C11 C 0.19749 1.00946 0.27642 0.0
O12 O 0.20314 0.99814 0.35862 0.0
C13 C 0.03602 0.11077 0.37368 0.0
Zn14 Zn 0.10855 0.86649 0.71052 0.0
Zn15 Zn 0.16706 0.90441 0.59291 0.0
O16 O 0.20005 0.91463 0.71648 0.0
O17 O 0.12401 0.94257 0.76019 0.0
O18 O 0.22137 0.93118 0.5045 0.0
O19 O 0.15435 0.79565 0.70177 0.0
O20 O 0.16762 0.82488 0.57013 0.0
C21 C 0.17268 0.93514 0.77729 0.0
C22 C 0.04434 0.90465 0.57946 0.0
O23 O 0.08774 0.92986 0.5595 0.0
O24 O 0.04499 0.8685 0.63682 0.0
C25 C 0.26797 0.94748 0.52645 0.0
O26 O 0.27931 0.95307 0.60866 0.0
C27 C 0.16665 0.78603 0.6236 0.0
Zn28 Zn 0.41087 0.85856 -0.03942 0.0
Zn29 Zn 0.37302 0.91706 0.84291 0.0
O30 O 0.36279 0.95006 -0.03354 0.0
O31 O 0.33477 0.87406 0.01015 0.0
O32 O 0.34627 0.97137 0.75448 0.0
O33 O 0.48172 0.90435 0.95184 0.0
O34 O 0.45256 0.91761 0.82016 0.0
C35 C 0.34225 0.92272 0.02726 0.0
C36 C 0.37276 0.79433 0.82951 0.0
O37 O 0.34758 0.83774 0.80949 0.0
O38 O 0.40887 0.79498 0.88693 0.0
C39 C 0.32991 0.01795 0.77642 0.0
O40 O 0.32426 0.02927 0.85862 0.0
C41 C 0.49138 0.91664 0.87368 0.0
Zn42 Zn 0.41885 0.16092 0.21052 0.0
Zn43 Zn 0.36034 0.123 0.09291 0.0
O44 O 0.32736 0.11277 0.21648 0.0
O45 O 0.40339 0.08484 0.26019 0.0
O46 O 0.30603 0.09623 0.0045 0.0
O47 O 0.37305 0.23176 0.20177 0.0
O48 O 0.35978 0.20253 0.07013 0.0
C49 C 0.35472 0.09227 0.27729 0.0
C50 C 0.48306 0.12276 0.07946 0.0
O51 O 0.43966 0.09755 0.0595 0.0
O52 O 0.48241 0.15891 0.13682 0.0
C53 C 0.25943 0.07993 0.02645 0.0
O54 O 0.24809 0.07434 0.10866 0.0
C55 C 0.36075 0.24138 0.1236 0.0
Zn56 Zn 0.1097 0.85706 0.95643 0.0
Zn57 Zn 0.1543 0.91587 0.05619 0.0
O58 O 0.17127 0.94184 0.9296 0.0
O59 O 0.16866 0.8634 0.86818 0.0
O60 O 0.18192 0.97436 0.13611 0.0
O61 O 0.03742 0.89782 -0.0411 0.0
O62 O 0.07384 0.91968 0.08239 0.0
C63 C 0.18027 0.91258 0.86341 0.0
C64 C 0.15484 0.79584 0.08714 0.0
O65 O 0.18043 0.83977 0.10093 0.0
O66 O 0.11723 0.79443 0.03241 0.0
C67 C 0.19756 0.96536 0.21296 0.0
O68 O 0.20246 0.91546 0.23988 0.0
C69 C 0.03208 0.91547 0.03522 0.0
Zn70 Zn 0.42031 0.85969 0.20643 0.0
Zn71 Zn 0.36152 0.90434 0.30617 0.0
O72 O 0.33556 0.9213 0.17957 0.0
O73 O 0.41399 0.91862 0.11815 0.0
O74 O 0.30305 0.93197 0.3861 0.0
O75 O 0.37955 0.78742 0.20893 0.0
O76 O 0.35772 0.82387 0.33241 0.0
C77 C 0.36482 0.93027 0.11338 0.0
C78 C 0.48155 0.90486 0.3371 0.0
O79 O 0.43763 0.93046 0.35087 0.0
O80 O 0.48295 0.86722 0.28241 0.0
C81 C 0.31207 0.94755 0.46297 0.0
O82 O 0.36197 0.9524 0.48989 0.0
C83 C 0.36191 0.7821 0.28526 0.0
Zn84 Zn 0.4177 0.17035 0.45643 0.0
Zn85 Zn 0.3731 0.11154 0.55619 0.0
O86 O 0.35613 0.08557 0.4296 0.0
O87 O 0.35874 0.16401 0.36818 0.0
O88 O 0.34548 0.05305 0.63611 0.0
O89 O 0.48998 0.12959 0.4589 0.0
O90 O 0.45356 0.10773 0.58239 0.0
C91 C 0.34713 0.11483 0.36341 0.0
C92 C 0.37256 0.23157 0.58714 0.0
O93 O 0.34698 0.18764 0.60093 0.0
O94 O 0.41017 0.23298 0.53241 0.0
C95 C 0.32984 0.06205 0.71296 0.0
O96 O 0.32494 0.11195 0.73988 0.0
C97 C 0.49532 0.11194 0.53522 0.0
Zn98 Zn 0.10709 0.16772 0.70643 0.0
Zn99 Zn 0.16588 0.12307 0.80617 0.0
O100 O 0.19184 0.10611 0.67957 0.0
O101 O 0.11341 0.10879 0.61815 0.0
O102 O 0.22435 0.09544 0.8861 0.0
O103 O 0.14785 0.23999 0.70893 0.0
O104 O 0.16968 0.20354 0.83241 0.0
C105 C 0.16258 0.09713 0.61338 0.0
C106 C 0.04585 0.12255 0.8371 0.0
O107 O 0.08977 0.09694 0.85087 0.0
O108 O 0.04445 0.16019 0.78241 0.0
C109 C 0.21533 0.07986 -0.03703 0.0
O110 O 0.16544 0.07501 -0.01011 0.0
C111 C 0.16549 0.24531 0.78526 0.0
Zn112 Zn 0.91005 0.85874 0.45528 0.0
Zn113 Zn 0.87318 0.91738 0.57445 0.0
O114 O 0.86316 0.95068 0.45104 0.0
O115 O 0.83354 0.87524 0.40788 0.0
O116 O 0.84651 0.97159 0.66306 0.0
O117 O 0.98121 0.90415 0.4649 0.0
O118 O 0.95268 0.91778 0.59689 0.0
C119 C 0.84201 0.92367 0.39041 0.0
C120 C 0.87235 0.7944 0.58658 0.0
O121 O 0.84786 0.83799 0.60782 0.0
O122 O 0.90779 0.79489 0.52809 0.0
C123 C 0.82985 0.0181 0.64126 0.0
O124 O 0.82387 0.0294 0.55911 0.0
C125 C 0.99123 0.91656 0.54292 0.0
Zn126 Zn 0.91862 0.16008 0.20535 0.0
Zn127 Zn 0.86001 0.12314 0.32444 0.0
O128 O 0.82671 0.11316 0.20102 0.0
O129 O 0.90217 0.08357 0.15786 0.0
O130 O 0.8058 0.09645 0.41304 0.0
O131 O 0.8732 0.23122 0.21502 0.0
O132 O 0.85963 0.20263 0.34696 0.0
C133 C 0.85374 0.09203 0.14039 0.0
C134 C 0.98298 0.12234 0.33659 0.0
O135 O 0.93941 0.09781 0.3578 0.0
O136 O 0.98248 0.15781 0.27815 0.0
C137 C 0.75928 0.07985 0.39123 0.0
O138 O 0.74797 0.07393 0.30907 0.0
C139 C 0.86084 0.24123 0.29306 0.0
Zn140 Zn 0.61735 0.16867 0.95528 0.0
Zn141 Zn 0.65422 0.11002 0.07445 0.0
O142 O 0.66425 0.07673 0.95104 0.0
O143 O 0.69386 0.15217 0.90788 0.0
O144 O 0.68089 0.05582 0.16306 0.0
O145 O 0.54619 0.12326 -0.0351 0.0
O146 O 0.57472 0.10963 0.09689 0.0
C147 C 0.6854 0.10374 0.89041 0.0
C148 C 0.65505 0.233 0.08658 0.0
O149 O 0.67954 0.18942 0.10782 0.0
O150 O 0.61961 0.23252 0.02809 0.0
C151 C 0.69755 1.00931 0.14126 0.0
O152 O 0.70353 0.99801 0.05911 0.0
C153 C 0.53617 0.11085 0.04292 0.0
Zn154 Zn 0.60878 0.86733 0.70535 0.0
Zn155 Zn 0.66739 0.90427 0.82444 0.0
O156 O 0.70069 0.91425 0.70102 0.0
O157 O 0.62523 0.94384 0.65786 0.0
O158 O 0.7216 0.93096 0.91304 0.0
O159 O 0.6542 0.79618 0.71502 0.0
O160 O 0.66777 0.82478 0.84696 0.0
C161 C 0.67367 0.93538 0.64039 0.0
C162 C 0.54442 0.90507 0.83659 0.0
O163 O 0.58799 0.9296 0.8578 0.0
O164 O 0.54492 0.8696 0.77815 0.0
C165 C 0.76812 0.94756 0.89123 0.0
O166 O 0.77943 0.95348 0.80907 0.0
C167 C 0.66656 0.78618 0.79306 0.0
Zn168 Zn 0.91783 0.17037 -0.03862 0.0
Zn169 Zn 0.87313 0.11163 0.86153 0.0
O170 O 0.85568 0.08573 -0.01201 0.0
O171 O 0.85915 0.16399 0.04998 0.0
O172 O 0.84559 0.05319 0.78151 0.0
O173 O 0.99016 0.12975 -0.04107 0.0
O174 O 0.95365 0.10767 0.83558 0.0
C175 C 0.84692 0.11494 0.05432 0.0
C176 C 0.87259 0.23164 0.83064 0.0
O177 O 0.84708 0.1877 0.81667 0.0
O178 O 0.91014 0.23306 0.8855 0.0
C179 C 0.82977 0.06217 0.70475 0.0
O180 O 0.82461 0.11206 0.67792 0.0
C181 C 0.99542 0.11193 0.88271 0.0
Zn182 Zn 0.60711 0.16781 0.71135 0.0
Zn183 Zn 0.66579 0.12308 0.61155 0.0
O184 O 0.69171 0.10566 0.73801 0.0
O185 O 0.61344 0.10915 0.79999 0.0
O186 O 0.72421 0.09553 0.53151 0.0
O187 O 0.64775 0.24014 0.70888 0.0
O188 O 0.66971 0.2036 0.58553 0.0
C189 C 0.66249 0.09692 0.80434 0.0
C190 C 0.54578 0.12257 0.5807 0.0
O191 O 0.58971 0.09702 0.56676 0.0
O192 O 0.54441 0.16015 0.6355 0.0
C193 C 0.71521 0.07976 0.45473 0.0
O194 O 0.66532 0.07466 0.4279 0.0
C195 C 0.66549 0.2454 0.63261 0.0
Zn196 Zn 0.60957 0.85704 0.46138 0.0
Zn197 Zn 0.65427 0.91578 0.36153 0.0
O198 O 0.67172 0.94168 0.48799 0.0
O199 O 0.66825 0.86342 0.54998 0.0
O200 O 0.68181 0.97422 0.28151 0.0
O201 O 0.53724 0.89766 0.45893 0.0
O202 O 0.57375 0.91974 0.33558 0.0
C203 C 0.68048 0.91247 0.55432 0.0
C204 C 0.65481 0.79577 0.33064 0.0
O205 O 0.68032 0.83971 0.31667 0.0
O206 O 0.61727 0.79435 0.3855 0.0
C207 C 0.69763 0.96524 0.20475 0.0
O208 O 0.70279 0.91535 0.17792 0.0
C209 C 0.53198 0.91548 0.38271 0.0
Zn210 Zn 0.92029 0.85959 0.21135 0.0
Zn211 Zn 0.86161 0.90433 0.11155 0.0
O212 O 0.8357 0.92175 0.23801 0.0
O213 O 0.91396 0.91826 0.29999 0.0
O214 O 0.80319 0.93188 0.03151 0.0
O215 O 0.87965 0.78727 0.20888 0.0
O216 O 0.85769 0.82381 0.08553 0.0
C217 C 0.86491 0.93049 0.30434 0.0
C218 C 0.98162 0.90484 0.0807 0.0
O219 O 0.93769 0.93039 0.06676 0.0
O220 O 0.98299 0.86726 0.1355 0.0
C221 C 0.81219 0.94765 0.95473 0.0
O222 O 0.86208 0.95275 0.9279 0.0
C223 C 0.86191 0.78201 0.13261 0.0
Zn224 Zn 0.61663 0.66882 -0.03923 0.0
Zn225 Zn 0.65439 0.61031 0.84287 0.0
O226 O 0.66457 0.57725 -0.0336 0.0
O227 O 0.69279 0.65318 0.01002 0.0
O228 O 0.68115 0.55602 0.75441 0.0
O229 O 0.54573 0.62309 0.95182 0.0
O230 O 0.57487 0.60978 0.82013 0.0
C231 C 0.68518 0.60456 0.02718 0.0
C232 C 0.65471 0.73307 0.82967 0.0
O233 O 0.67981 0.68964 0.80948 0.0
O234 O 0.61869 0.73244 0.88723 0.0
C235 C 0.69753 0.50944 0.77633 0.0
O236 O 0.7032 0.49811 0.85852 0.0
C237 C 0.53606 0.61078 0.87367 0.0
Zn238 Zn 0.60852 0.36655 0.21063 0.0
Zn239 Zn 0.66706 0.40438 0.09282 0.0
O240 O 0.70007 0.41461 0.21637 0.0
O241 O 0.62409 0.44269 0.26004 0.0
O242 O 0.72137 0.43113 0.00439 0.0
O243 O 0.65428 0.29569 0.20182 0.0
O244 O 0.66763 0.32484 0.07012 0.0
C245 C 0.67274 0.43517 0.27716 0.0
C246 C 0.54431 0.40465 0.07949 0.0
O247 O 0.58773 0.4298 0.0594 0.0
O248 O 0.54495 0.36858 0.13697 0.0
C249 C 0.76795 0.44749 0.02633 0.0
O250 O 0.77927 0.45315 0.10853 0.0
C251 C 0.66663 0.28605 0.12367 0.0
Zn252 Zn 0.91077 0.35859 0.46077 0.0
Zn253 Zn 0.87301 0.4171 0.34287 0.0
O254 O 0.86283 0.45016 0.4664 0.0
O255 O 0.83461 0.37423 0.51002 0.0
O256 O 0.84625 0.47139 0.25441 0.0
O257 O 0.98167 0.40432 0.45182 0.0
O258 O 0.95253 0.41763 0.32013 0.0
C259 C 0.84222 0.42285 0.52718 0.0
C260 C 0.87269 0.29434 0.32967 0.0
O261 O 0.84759 0.33776 0.30948 0.0
O262 O 0.90871 0.29497 0.38723 0.0
C263 C 0.82987 0.51797 0.27633 0.0
O264 O 0.8242 0.5293 0.35852 0.0
C265 C 0.99134 0.41663 0.37367 0.0
Zn266 Zn 0.91888 0.66086 0.71063 0.0
Zn267 Zn 0.86034 0.62303 0.59282 0.0
O268 O 0.82733 0.6128 0.71637 0.0
O269 O 0.90331 0.58472 0.76004 0.0
O270 O 0.80603 0.59628 0.50439 0.0
O271 O 0.87312 0.73172 0.70182 0.0
O272 O 0.85977 0.70257 0.57012 0.0
C273 C 0.85466 0.59224 0.77716 0.0
C274 C 0.98309 0.62276 0.57949 0.0
O275 O 0.93967 0.59761 0.5594 0.0
O276 O 0.98245 0.65883 0.63697 0.0
C277 C 0.75945 0.57992 0.52633 0.0
O278 O 0.74813 0.57426 0.60853 0.0
C279 C 0.86077 0.74136 0.62367 0.0
Zn280 Zn 0.60969 0.35707 0.45633 0.0
Zn281 Zn 0.65434 0.41586 0.55608 0.0
O282 O 0.67132 0.44182 0.42948 0.0
O283 O 0.66859 0.36341 0.368 0.0
O284 O 0.68196 0.47434 0.636 0.0
O285 O 0.5374 0.3978 0.45887 0.0
O286 O 0.57388 0.41966 0.58232 0.0
C287 C 0.68027 0.41258 0.36327 0.0
C288 C 0.65489 0.29583 0.58699 0.0
O289 O 0.68047 0.33976 0.6008 0.0
O290 O 0.61727 0.29442 0.53227 0.0
C291 C 0.6976 0.46534 0.71285 0.0
O292 O 0.70251 0.41545 0.73976 0.0
C293 C 0.5321 0.41546 0.5352 0.0
Zn294 Zn 0.92039 0.35968 0.7063 0.0
Zn295 Zn 0.86155 0.40431 0.8061 0.0
O296 O 0.83562 0.42136 0.67951 0.0
O297 O 0.91401 0.41856 0.61796 0.0
O298 O 0.80306 0.43192 0.88602 0.0
O299 O 0.8797 0.28737 0.70881 0.0
O300 O 0.85771 0.32384 0.83226 0.0
C301 C 0.86486 0.4303 0.61328 0.0
C302 C 0.98159 0.40487 0.83704 0.0
O303 O 0.93764 0.43041 0.85089 0.0
O304 O 0.98303 0.36729 0.78225 0.0
C305 C 0.81206 0.44756 -0.03713 0.0
O306 O 0.86195 0.45248 -0.0102 0.0
C307 C 0.86196 0.28208 0.78509 0.0
Zn308 Zn 0.91771 0.67034 0.95633 0.0
Zn309 Zn 0.87306 0.61155 0.05608 0.0
O310 O 0.85609 0.58558 0.92948 0.0
O311 O 0.85881 0.664 0.868 0.0
O312 O 0.84544 0.55307 0.136 0.0
O313 O 0.99 0.6296 -0.04113 0.0
O314 O 0.95352 0.60774 0.08232 0.0
C315 C 0.84713 0.61483 0.86327 0.0
C316 C 0.87251 0.73158 0.08699 0.0
O317 O 0.84693 0.68765 0.1008 0.0
O318 O 0.91013 0.73298 0.03227 0.0
C319 C 0.8298 0.56207 0.21285 0.0
O320 O 0.82489 0.61196 0.23976 0.0
C321 C 0.9953 0.61195 0.0352 0.0
Zn322 Zn 0.60701 0.66773 0.2063 0.0
Zn323 Zn 0.66585 0.6231 0.3061 0.0
O324 O 0.69178 0.60605 0.17951 0.0
O325 O 0.61339 0.60885 0.11796 0.0
O326 O 0.72434 0.59549 0.38602 0.0
O327 O 0.6477 0.74004 0.20881 0.0
O328 O 0.66969 0.70357 0.33226 0.0
C329 C 0.66254 0.59711 0.11328 0.0
C330 C 0.54581 0.62254 0.33704 0.0
O331 O 0.58976 0.597 0.35089 0.0
O332 O 0.54437 0.66012 0.28225 0.0
C333 C 0.71535 0.57985 0.46287 0.0
O334 O 0.66545 0.57493 0.4898 0.0
C335 C 0.66544 0.74533 0.28509 0.0
Zn336 Zn 0.40997 0.35877 0.95512 0.0
Zn337 Zn 0.37316 0.41743 0.07447 0.0
O338 O 0.36319 0.45077 0.95109 0.0
O339 O 0.3334 0.37539 0.90798 0.0
O340 O 0.34649 0.47162 0.16312 0.0
O341 O 0.48117 0.40412 -0.03507 0.0
O342 O 0.45265 0.41781 0.09692 0.0
C343 C 0.34198 0.4238 0.89047 0.0
C344 C 0.37228 0.29441 0.08644 0.0
O345 O 0.34787 0.33801 0.10783 0.0
O346 O 0.40764 0.29488 0.02782 0.0
C347 C 0.32982 0.51812 0.14134 0.0
O348 O 0.32383 0.52942 0.05919 0.0
C349 C 0.4912 0.41655 0.04294 0.0
Zn350 Zn 0.41866 0.66002 0.70527 0.0
Zn351 Zn 0.36002 0.62317 0.82452 0.0
O352 O 0.3267 0.61318 0.70112 0.0
O353 O 0.40211 0.58347 0.65799 0.0
O354 O 0.30581 0.5965 0.91314 0.0
O355 O 0.37327 0.73119 0.71497 0.0
O356 O 0.35962 0.70267 0.84696 0.0
C357 C 0.35369 0.592 0.6405 0.0
C358 C 0.48301 0.62234 0.83657 0.0
O359 O 0.43943 0.59788 0.85789 0.0
O360 O 0.48252 0.65774 0.77802 0.0
C361 C 0.25931 0.57984 0.89133 0.0
O362 O 0.24802 0.57385 0.80918 0.0
C363 C 0.36086 0.74122 0.79298 0.0
Zn364 Zn 0.11744 0.66864 0.45512 0.0
Zn365 Zn 0.15424 0.60998 0.57447 0.0
O366 O 0.16421 0.57664 0.45109 0.0
O367 O 0.194 0.65202 0.40798 0.0
O368 O 0.18091 0.55579 0.66312 0.0
O369 O 0.04623 0.62329 0.46493 0.0
O370 O 0.07475 0.6096 0.59692 0.0
C371 C 0.18542 0.60361 0.39047 0.0
C372 C 0.15512 0.733 0.58644 0.0
O373 O 0.17953 0.6894 0.60783 0.0
O374 O 0.11976 0.73253 0.52782 0.0
C375 C 0.19758 0.50929 0.64134 0.0
O376 O 0.20357 0.49799 0.55919 0.0
C377 C 0.03621 0.61086 0.54294 0.0
Zn378 Zn 0.10875 0.36739 0.20527 0.0
Zn379 Zn 0.16738 0.40424 0.32452 0.0
O380 O 0.2007 0.41423 0.20112 0.0
O381 O 0.1253 0.44394 0.15799 0.0
O382 O 0.22159 0.43091 0.41314 0.0
O383 O 0.15413 0.29622 0.21497 0.0
O384 O 0.16778 0.32474 0.34696 0.0
C385 C 0.17371 0.43541 0.1405 0.0
C386 C 0.04439 0.40507 0.33657 0.0
O387 O 0.08797 0.42953 0.35789 0.0
O388 O 0.04488 0.36967 0.27802 0.0
C389 C 0.26809 0.44757 0.39133 0.0
O390 O 0.27939 0.45356 0.30918 0.0
C391 C 0.16655 0.28619 0.29298 0.0
Zn392 Zn 0.41783 0.67035 0.46146 0.0
Zn393 Zn 0.37309 0.61164 0.36162 0.0
O394 O 0.35564 0.58573 0.48808 0.0
O395 O 0.35921 0.66397 0.55013 0.0
O396 O 0.34555 0.5532 0.28159 0.0
O397 O 0.49018 0.62976 0.45894 0.0
O398 O 0.45361 0.60768 0.33563 0.0
C399 C 0.34692 0.61494 0.55444 0.0
C400 C 0.37255 0.73165 0.33078 0.0
O401 O 0.34703 0.68771 0.31679 0.0
O402 O 0.4101 0.73305 0.38562 0.0
C403 C 0.32973 0.56219 0.20484 0.0
O404 O 0.32458 0.61208 0.17801 0.0
C405 C 0.4954 0.61194 0.38271 0.0
Zn406 Zn 0.10704 0.66782 0.21148 0.0
Zn407 Zn 0.16576 0.62312 0.1116 0.0
O408 O 0.19165 0.60561 0.23805 0.0
O409 O 0.11342 0.60919 0.30014 0.0
O410 O 0.2242 0.59559 0.03157 0.0
O411 O 0.14761 0.74018 0.209 0.0
O412 O 0.16973 0.70364 0.08567 0.0
C413 C 0.16246 0.59689 0.30441 0.0
C414 C 0.04575 0.62257 0.08075 0.0
O415 O 0.0897 0.59708 0.06672 0.0
O416 O 0.04433 0.66009 0.13565 0.0
C417 C 0.21523 0.57975 0.95482 0.0
O418 O 0.16534 0.57458 0.92798 0.0
C419 C 0.16545 0.74542 0.13278 0.0
Zn420 Zn 0.10957 0.35706 -0.03854 0.0
Zn421 Zn 0.15431 0.41577 0.86162 0.0
O422 O 0.17176 0.44168 -0.01192 0.0
O423 O 0.16819 0.36343 0.05013 0.0
O424 O 0.18186 0.47421 0.78159 0.0
O425 O 0.03722 0.39765 -0.04106 0.0
O426 O 0.07379 0.41973 0.83563 0.0
C427 C 0.18048 0.41247 0.05444 0.0
C428 C 0.15485 0.29576 0.83078 0.0
O429 O 0.18037 0.3397 0.81679 0.0
O430 O 0.1173 0.29436 0.88562 0.0
C431 C 0.19767 0.46522 0.70484 0.0
O432 O 0.20282 0.41533 0.67801 0.0
C433 C 0.032 0.41547 0.88271 0.0
Zn434 Zn 0.42036 0.35959 0.71148 0.0
Zn435 Zn 0.36164 0.40429 0.6116 0.0
O436 O 0.33575 0.4218 0.73805 0.0
O437 O 0.41398 0.41822 0.80014 0.0
O438 O 0.3032 0.43182 0.53157 0.0
O439 O 0.37979 0.28723 0.709 0.0
O440 O 0.35767 0.32377 0.58567 0.0
C441 C 0.36494 0.43052 0.80441 0.0
C442 C 0.48165 0.40484 0.58075 0.0
O443 O 0.4377 0.43033 0.56672 0.0
O444 O 0.48307 0.36732 0.63565 0.0
C445 C 0.31217 0.44766 0.45482 0.0
O446 O 0.36206 0.45283 0.42798 0.0
C447 C 0.36195 0.28199 0.63278 0.0
loop_
_geom_bond_atom_site_label_1
_geom_bond_atom_site_label_2
_geom_bond_distance
_geom_bond_site_symmetry_2
_ccdc_geom_bond_type
Zn0 O3 2.031 . S
Zn0 O5 2.049 1_455 S
Zn0 O10 2.067 . S
Zn1 O2 1.962 . S
Zn1 O4 1.986 . S
Zn1 O6 1.996 . S
Zn1 O9 1.943 . S
O2 Zn1 1.962 . S
O2 C7 1.254 . S
O3 Zn0 2.031 . S
O3 C7 1.269 . S
O4 Zn1 1.986 . S
O4 C11 1.262 . S
O5 Zn0 2.049 1_655 S
O5 C13 1.260 . S
O6 Zn1 1.996 . S
O6 C13 1.257 1_455 S
C7 O2 1.254 . S
C7 O3 1.269 . S
C8 O9 1.249 . S
C8 O10 1.270 . S
O9 Zn1 1.943 . S
O9 C8 1.249 . S
O10 Zn0 2.067 . S
O10 C8 1.270 . S
C11 O4 1.262 . S
C11 O12 1.232 . S
O12 C11 1.232 . S
C13 O5 1.260 . S
C13 O6 1.257 1_655 S
Zn14 O17 2.031 . S
Zn14 O19 2.049 . S
Zn14 O24 2.067 . S
Zn15 O16 1.962 . S
Zn15 O18 1.986 . S
Zn15 O20 1.996 . S
Zn15 O23 1.943 . S
O16 Zn15 1.962 . S
O16 C21 1.254 . S
O17 Zn14 2.031 . S
O17 C21 1.269 . S
O18 Zn15 1.986 . S
O18 C25 1.262 . S
O19 Zn14 2.049 . S
O19 C27 1.260 . S
O20 Zn15 1.996 . S
O20 C27 1.257 . S
C21 O16 1.254 . S
C21 O17 1.269 . S
C22 O23 1.249 . S
C22 O24 1.270 . S
O23 Zn15 1.943 . S
O23 C22 1.249 . S
O24 Zn14 2.067 . S
O24 C22 1.270 . S
C25 O18 1.262 . S
C25 O26 1.232 . S
O26 C25 1.232 . S
C27 O19 1.260 . S
C27 O20 1.257 . S
Zn28 O31 2.031 . S
Zn28 O33 2.049 1_554 S
Zn28 O38 2.067 1_554 S
Zn29 O30 1.962 1_556 S
Zn29 O32 1.986 . S
Zn29 O34 1.996 . S
Zn29 O37 1.943 . S
O30 Zn29 1.962 1_554 S
O30 C35 1.254 . S
O31 Zn28 2.031 . S
O31 C35 1.269 . S
O32 Zn29 1.986 . S
O32 C39 1.262 . S
O33 Zn28 2.049 1_556 S
O33 C41 1.260 . S
O34 Zn29 1.996 . S
O34 C41 1.257 . S
C35 O30 1.254 . S
C35 O31 1.269 . S
C36 O37 1.249 . S
C36 O38 1.270 . S
O37 Zn29 1.943 . S
O37 C36 1.249 . S
O38 Zn28 2.067 1_556 S
O38 C36 1.270 . S
C39 O32 1.262 . S
C39 O40 1.232 . S
O40 C39 1.232 . S
C41 O33 1.260 . S
C41 O34 1.257 . S
Zn42 O45 2.031 . S
Zn42 O47 2.049 . S
Zn42 O52 2.067 . S
Zn43 O44 1.962 . S
Zn43 O46 1.986 . S
Zn43 O48 1.996 . S
Zn43 O51 1.943 . S
O44 Zn43 1.962 . S
O44 C49 1.254 . S
O45 Zn42 2.031 . S
O45 C49 1.269 . S
O46 Zn43 1.986 . S
O46 C53 1.262 . S
O47 Zn42 2.049 . S
O47 C55 1.260 . S
O48 Zn43 1.996 . S
O48 C55 1.257 . S
C49 O44 1.254 . S
C49 O45 1.269 . S
C50 O51 1.249 . S
C50 O52 1.270 . S
O51 Zn43 1.943 . S
O51 C50 1.249 . S
O52 Zn42 2.067 . S
O52 C50 1.270 . S
C53 O46 1.262 . S
C53 O54 1.232 . S
O54 C53 1.232 . S
C55 O47 1.260 . S
C55 O48 1.257 . S
Zn56 O59 2.031 . S
Zn56 O61 2.049 1_456 S
Zn56 O66 2.067 1_556 S
Zn57 O58 1.962 1_554 S
Zn57 O60 1.986 . S
Zn57 O62 1.996 . S
Zn57 O65 1.943 . S
O58 Zn57 1.962 1_556 S
O58 C63 1.254 . S
O59 Zn56 2.031 . S
O59 C63 1.269 . S
O60 Zn57 1.986 . S
O60 C67 1.262 . S
O61 Zn56 2.049 1_654 S
O61 C69 1.260 . S
O62 Zn57 1.996 . S
O62 C69 1.257 1_455 S
C63 O58 1.254 . S
C63 O59 1.269 . S
C64 O65 1.249 . S
C64 O66 1.270 . S
O65 Zn57 1.943 . S
O65 C64 1.249 . S
O66 Zn56 2.067 1_554 S
O66 C64 1.270 . S
C67 O60 1.262 . S
C67 O68 1.232 . S
O68 C67 1.232 . S
C69 O61 1.260 . S
C69 O62 1.257 1_655 S
Zn70 O73 2.031 . S
Zn70 O75 2.049 . S
Zn70 O80 2.067 . S
Zn71 O72 1.962 . S
Zn71 O74 1.986 . S
Zn71 O76 1.996 . S
Zn71 O79 1.943 . S
O72 Zn71 1.962 . S
O72 C77 1.254 . S
O73 Zn70 2.031 . S
O73 C77 1.269 . S
O74 Zn71 1.986 . S
O74 C81 1.262 . S
O75 Zn70 2.049 . S
O75 C83 1.260 . S
O76 Zn71 1.996 . S
O76 C83 1.257 . S
C77 O72 1.254 . S
C77 O73 1.269 . S
C78 O79 1.249 . S
C78 O80 1.270 . S
O79 Zn71 1.943 . S
O79 C78 1.249 . S
O80 Zn70 2.067 . S
O80 C78 1.270 . S
C81 O74 1.262 . S
C81 O82 1.232 . S
O82 C81 1.232 . S
C83 O75 1.260 . S
C83 O76 1.257 . S
Zn84 O87 2.031 . S
Zn84 O89 2.049 . S
Zn84 O94 2.067 . S
Zn85 O86 1.962 . S
Zn85 O88 1.986 . S
Zn85 O90 1.996 . S
Zn85 O93 1.943 . S
O86 Zn85 1.962 . S
O86 C91 1.254 . S
O87 Zn84 2.031 . S
O87 C91 1.269 . S
O88 Zn85 1.986 . S
O88 C95 1.262 . S
O89 Zn84 2.049 . S
O89 C97 1.260 . S
O90 Zn85 1.996 . S
O90 C97 1.257 . S
C91 O86 1.254 . S
C91 O87 1.269 . S
C92 O93 1.249 . S
C92 O94 1.270 . S
O93 Zn85 1.943 . S
O93 C92 1.249 . S
O94 Zn84 2.067 . S
O94 C92 1.270 . S
C95 O88 1.262 . S
C95 O96 1.232 . S
O96 C95 1.232 . S
C97 O89 1.260 . S
C97 O90 1.257 . S
Zn98 O101 2.031 . S
Zn98 O103 2.049 . S
Zn98 O108 2.067 . S
Zn99 O100 1.962 . S
Zn99 O102 1.986 . S
Zn99 O104 1.996 . S
Zn99 O107 1.943 . S
O100 Zn99 1.962 . S
O100 C105 1.254 . S
O101 Zn98 2.031 . S
O101 C105 1.269 . S
O102 Zn99 1.986 . S
O102 C109 1.262 . S
O103 Zn98 2.049 . S
O103 C111 1.260 . S
O104 Zn99 1.996 . S
O104 C111 1.257 . S
C105 O100 1.254 . S
C105 O101 1.269 . S
C106 O107 1.249 . S
C106 O108 1.270 . S
O107 Zn99 1.943 . S
O107 C106 1.249 . S
O108 Zn98 2.067 . S
O108 C106 1.270 . S
C109 O102 1.262 . S
C109 O110 1.232 . S
O110 C109 1.232 . S
C111 O103 1.260 . S
C111 O104 1.257 . S
Zn112 O115 2.031 . S
Zn112 O117 2.049 1_655 S
Zn112 O122 2.067 . S
Zn113 O114 1.962 . S
Zn113 O116 1.986 . S
Zn113 O118 1.996 . S
Zn113 O121 1.943 . S
O114 Zn113 1.962 . S
O114 C119 1.254 . S
O115 Zn112 2.031 . S
O115 C119 1.269 . S
O116 Zn113 1.986 . S
O116 C123 1.262 . S
O117 Zn112 2.049 1_455 S
O117 C125 1.260 . S
O118 Zn113 1.996 . S
O118 C125 1.257 1_655 S
C119 O114 1.254 . S
C119 O115 1.269 . S
C120 O121 1.249 . S
C120 O122 1.270 . S
O121 Zn113 1.943 . S
O121 C120 1.249 . S
O122 Zn112 2.067 . S
O122 C120 1.270 . S
C123 O116 1.262 . S
C123 O124 1.232 . S
O124 C123 1.232 . S
C125 O117 1.260 . S
C125 O118 1.257 1_455 S
Zn126 O129 2.031 . S
Zn126 O131 2.049 . S
Zn126 O136 2.067 . S
Zn127 O128 1.962 . S
Zn127 O130 1.986 . S
Zn127 O132 1.996 . S
Zn127 O135 1.943 . S
O128 Zn127 1.962 . S
O128 C133 1.254 . S
O129 Zn126 2.031 . S
O129 C133 1.269 . S
O130 Zn127 1.986 . S
O130 C137 1.262 . S
O131 Zn126 2.049 . S
O131 C139 1.260 . S
O132 Zn127 1.996 . S
O132 C139 1.257 . S
C133 O128 1.254 . S
C133 O129 1.269 . S
C134 O135 1.249 . S
C134 O136 1.270 . S
O135 Zn127 1.943 . S
O135 C134 1.249 . S
O136 Zn126 2.067 . S
O136 C134 1.270 . S
C137 O130 1.262 . S
C137 O138 1.232 . S
O138 C137 1.232 . S
C139 O131 1.260 . S
C139 O132 1.257 . S
Zn140 O143 2.031 . S
Zn140 O145 2.049 1_556 S
Zn140 O150 2.067 1_556 S
Zn141 O142 1.962 1_554 S
Zn141 O144 1.986 . S
Zn141 O146 1.996 . S
Zn141 O149 1.943 . S
O142 Zn141 1.962 1_556 S
O142 C147 1.254 . S
O143 Zn140 2.031 . S
O143 C147 1.269 . S
O144 Zn141 1.986 . S
O144 C151 1.262 . S
O145 Zn140 2.049 1_554 S
O145 C153 1.260 . S
O146 Zn141 1.996 . S
O146 C153 1.257 . S
C147 O142 1.254 . S
C147 O143 1.269 . S
C148 O149 1.249 . S
C148 O150 1.270 . S
O149 Zn141 1.943 . S
O149 C148 1.249 . S
O150 Zn140 2.067 1_554 S
O150 C148 1.270 . S
C151 O144 1.262 . S
C151 O152 1.232 . S
O152 C151 1.232 . S
C153 O145 1.260 . S
C153 O146 1.257 . S
Zn154 O157 2.031 . S
Zn154 O159 2.049 . S
Zn154 O164 2.067 . S
Zn155 O156 1.962 . S
Zn155 O158 1.986 . S
Zn155 O160 1.996 . S
Zn155 O163 1.943 . S
O156 Zn155 1.962 . S
O156 C161 1.254 . S
O157 Zn154 2.031 . S
O157 C161 1.269 . S
O158 Zn155 1.986 . S
O158 C165 1.262 . S
O159 Zn154 2.049 . S
O159 C167 1.260 . S
O160 Zn155 1.996 . S
O160 C167 1.257 . S
C161 O156 1.254 . S
C161 O157 1.269 . S
C162 O163 1.249 . S
C162 O164 1.270 . S
O163 Zn155 1.943 . S
O163 C162 1.249 . S
O164 Zn154 2.067 . S
O164 C162 1.270 . S
C165 O158 1.262 . S
C165 O166 1.232 . S
O166 C165 1.232 . S
C167 O159 1.260 . S
C167 O160 1.257 . S
Zn168 O171 2.031 . S
Zn168 O173 2.049 1_654 S
Zn168 O178 2.067 1_554 S
Zn169 O170 1.962 1_556 S
Zn169 O172 1.986 . S
Zn169 O174 1.996 . S
Zn169 O177 1.943 . S
O170 Zn169 1.962 1_554 S
O170 C175 1.254 . S
O171 Zn168 2.031 . S
O171 C175 1.269 . S
O172 Zn169 1.986 . S
O172 C179 1.262 . S
O173 Zn168 2.049 1_456 S
O173 C181 1.260 . S
O174 Zn169 1.996 . S
O174 C181 1.257 1_655 S
C175 O170 1.254 . S
C175 O171 1.269 . S
C176 O177 1.249 . S
C176 O178 1.270 . S
O177 Zn169 1.943 . S
O177 C176 1.249 . S
O178 Zn168 2.067 1_556 S
O178 C176 1.270 . S
C179 O172 1.262 . S
C179 O180 1.232 . S
O180 C179 1.232 . S
C181 O173 1.260 . S
C181 O174 1.257 1_455 S
Zn182 O185 2.031 . S
Zn182 O187 2.049 . S
Zn182 O192 2.067 . S
Zn183 O184 1.962 . S
Zn183 O186 1.986 . S
Zn183 O188 1.996 . S
Zn183 O191 1.943 . S
O184 Zn183 1.962 . S
O184 C189 1.254 . S
O185 Zn182 2.031 . S
O185 C189 1.269 . S
O186 Zn183 1.986 . S
O186 C193 1.262 . S
O187 Zn182 2.049 . S
O187 C195 1.260 . S
O188 Zn183 1.996 . S
O188 C195 1.257 . S
C189 O184 1.254 . S
C189 O185 1.269 . S
C190 O191 1.249 . S
C190 O192 1.270 . S
O191 Zn183 1.943 . S
O191 C190 1.249 . S
O192 Zn182 2.067 . S
O192 C190 1.270 . S
C193 O186 1.262 . S
C193 O194 1.232 . S
O194 C193 1.232 . S
C195 O187 1.260 . S
C195 O188 1.257 . S
Zn196 O199 2.031 . S
Zn196 O201 2.049 . S
Zn196 O206 2.067 . S
Zn197 O198 1.962 . S
Zn197 O200 1.986 . S
Zn197 O202 1.996 . S
Zn197 O205 1.943 . S
O198 Zn197 1.962 . S
O198 C203 1.254 . S
O199 Zn196 2.031 . S
O199 C203 1.269 . S
O200 Zn197 1.986 . S
O200 C207 1.262 . S
O201 Zn196 2.049 . S
O201 C209 1.260 . S
O202 Zn197 1.996 . S
O202 C209 1.257 . S
C203 O198 1.254 . S
C203 O199 1.269 . S
C204 O205 1.249 . S
C204 O206 1.270 . S
O205 Zn197 1.943 . S
O205 C204 1.249 . S
O206 Zn196 2.067 . S
O206 C204 1.270 . S
C207 O200 1.262 . S
C207 O208 1.232 . S
O208 C207 1.232 . S
C209 O201 1.260 . S
C209 O202 1.257 . S
Zn210 O213 2.031 . S
Zn210 O215 2.049 . S
Zn210 O220 2.067 . S
Zn211 O212 1.962 . S
Zn211 O214 1.986 . S
Zn211 O216 1.996 . S
Zn211 O219 1.943 . S
O212 Zn211 1.962 . S
O212 C217 1.254 . S
O213 Zn210 2.031 . S
O213 C217 1.269 . S
O214 Zn211 1.986 . S
O214 C221 1.262 . S
O215 Zn210 2.049 . S
O215 C223 1.260 . S
O216 Zn211 1.996 . S
O216 C223 1.257 . S
C217 O212 1.254 . S
C217 O213 1.269 . S
C218 O219 1.249 . S
C218 O220 1.270 . S
O219 Zn211 1.943 . S
O219 C218 1.249 . S
O220 Zn210 2.067 . S
O220 C218 1.270 . S
C221 O214 1.262 . S
C221 O222 1.232 . S
O222 C221 1.232 . S
C223 O215 1.260 . S
C223 O216 1.257 . S
Zn224 O227 2.031 . S
Zn224 O229 2.049 1_554 S
Zn224 O234 2.067 1_554 S
Zn225 O226 1.962 1_556 S
Zn225 O228 1.986 . S
Zn225 O230 1.996 . S
Zn225 O233 1.943 . S
O226 Zn225 1.962 1_554 S
O226 C231 1.254 . S
O227 Zn224 2.031 . S
O227 C231 1.269 . S
O228 Zn225 1.986 . S
O228 C235 1.262 . S
O229 Zn224 2.049 1_556 S
O229 C237 1.260 . S
O230 Zn225 1.996 . S
O230 C237 1.257 . S
C231 O226 1.254 . S
C231 O227 1.269 . S
C232 O233 1.249 . S
C232 O234 1.270 . S
O233 Zn225 1.943 . S
O233 C232 1.249 . S
O234 Zn224 2.067 1_556 S
O234 C232 1.270 . S
C235 O228 1.262 . S
C235 O236 1.232 . S
O236 C235 1.232 . S
C237 O229 1.260 . S
C237 O230 1.257 . S
Zn238 O241 2.031 . S
Zn238 O243 2.049 . S
Zn238 O248 2.067 . S
Zn239 O240 1.962 . S
Zn239 O242 1.986 . S
Zn239 O244 1.996 . S
Zn239 O247 1.943 . S
O240 Zn239 1.962 . S
O240 C245 1.254 . S
O241 Zn238 2.031 . S
O241 C245 1.269 . S
O242 Zn239 1.986 . S
O242 C249 1.262 . S
O243 Zn238 2.049 . S
O243 C251 1.260 . S
O244 Zn239 1.996 . S
O244 C251 1.257 . S
C245 O240 1.254 . S
C245 O241 1.269 . S
C246 O247 1.249 . S
C246 O248 1.270 . S
O247 Zn239 1.943 . S
O247 C246 1.249 . S
O248 Zn238 2.067 . S
O248 C246 1.270 . S
C249 O242 1.262 . S
C249 O250 1.232 . S
O250 C249 1.232 . S
C251 O243 1.260 . S
C251 O244 1.257 . S
Zn252 O255 2.031 . S
Zn252 O257 2.049 1_655 S
Zn252 O262 2.067 . S
Zn253 O254 1.962 . S
Zn253 O256 1.986 . S
Zn253 O258 1.996 . S
Zn253 O261 1.943 . S
O254 Zn253 1.962 . S
O254 C259 1.254 . S
O255 Zn252 2.031 . S
O255 C259 1.269 . S
O256 Zn253 1.986 . S
O256 C263 1.262 . S
O257 Zn252 2.049 1_455 S
O257 C265 1.260 . S
O258 Zn253 1.996 . S
O258 C265 1.257 1_655 S
C259 O254 1.254 . S
C259 O255 1.269 . S
C260 O261 1.249 . S
C260 O262 1.270 . S
O261 Zn253 1.943 . S
O261 C260 1.249 . S
O262 Zn252 2.067 . S
O262 C260 1.270 . S
C263 O256 1.262 . S
C263 O264 1.232 . S
O264 C263 1.232 . S
C265 O257 1.260 . S
C265 O258 1.257 1_455 S
Zn266 O269 2.031 . S
Zn266 O271 2.049 . S
Zn266 O276 2.067 . S
Zn267 O268 1.962 . S
Zn267 O270 1.986 . S
Zn267 O272 1.996 . S
Zn267 O275 1.943 . S
O268 Zn267 1.962 . S
O268 C273 1.254 . S
O269 Zn266 2.031 . S
O269 C273 1.269 . S
O270 Zn267 1.986 . S
O270 C277 1.262 . S
O271 Zn266 2.049 . S
O271 C279 1.260 . S
O272 Zn267 1.996 . S
O272 C279 1.257 . S
C273 O268 1.254 . S
C273 O269 1.269 . S
C274 O275 1.249 . S
C274 O276 1.270 . S
O275 Zn267 1.943 . S
O275 C274 1.249 . S
O276 Zn266 2.067 . S
O276 C274 1.270 . S
C277 O270 1.262 . S
C277 O278 1.232 . S
O278 C277 1.232 . S
C279 O271 1.260 . S
C279 O272 1.257 . S
Zn280 O283 2.031 . S
Zn280 O285 2.049 . S
Zn280 O290 2.067 . S
Zn281 O282 1.962 . S
Zn281 O284 1.986 . S
Zn281 O286 1.996 . S
Zn281 O289 1.943 . S
O282 Zn281 1.962 . S
O282 C287 1.254 . S
O283 Zn280 2.031 . S
O283 C287 1.269 . S
O284 Zn281 1.986 . S
O284 C291 1.262 . S
O285 Zn280 2.049 . S
O285 C293 1.260 . S
O286 Zn281 1.996 . S
O286 C293 1.257 . S
C287 O282 1.254 . S
C287 O283 1.269 . S
C288 O289 1.249 . S
C288 O290 1.270 . S
O289 Zn281 1.943 . S
O289 C288 1.249 . S
O290 Zn280 2.067 . S
O290 C288 1.270 . S
C291 O284 1.262 . S
C291 O292 1.232 . S
O292 C291 1.232 . S
C293 O285 1.260 . S
C293 O286 1.257 . S
Zn294 O297 2.031 . S
Zn294 O299 2.049 . S
Zn294 O304 2.067 . S
Zn295 O296 1.962 . S
Zn295 O298 1.986 . S
Zn295 O300 1.996 . S
Zn295 O303 1.943 . S
O296 Zn295 1.962 . S
O296 C301 1.254 . S
O297 Zn294 2.031 . S
O297 C301 1.269 . S
O298 Zn295 1.986 . S
O298 C305 1.262 . S
O299 Zn294 2.049 . S
O299 C307 1.260 . S
O300 Zn295 1.996 . S
O300 C307 1.257 . S
C301 O296 1.254 . S
C301 O297 1.269 . S
C302 O303 1.249 . S
C302 O304 1.270 . S
O303 Zn295 1.943 . S
O303 C302 1.249 . S
O304 Zn294 2.067 . S
O304 C302 1.270 . S
C305 O298 1.262 . S
C305 O306 1.232 . S
O306 C305 1.232 . S
C307 O299 1.260 . S
C307 O300 1.257 . S
Zn308 O311 2.031 . S
Zn308 O313 2.049 1_656 S
Zn308 O318 2.067 1_556 S
Zn309 O310 1.962 1_554 S
Zn309 O312 1.986 . S
Zn309 O314 1.996 . S
Zn309 O317 1.943 . S
O310 Zn309 1.962 1_556 S
O310 C315 1.254 . S
O311 Zn308 2.031 . S
O311 C315 1.269 . S
O312 Zn309 1.986 . S
O312 C319 1.262 . S
O313 Zn308 2.049 1_454 S
O313 C321 1.260 . S
O314 Zn309 1.996 . S
O314 C321 1.257 1_655 S
C315 O310 1.254 . S
C315 O311 1.269 . S
C316 O317 1.249 . S
C316 O318 1.270 . S
O317 Zn309 1.943 . S
O317 C316 1.249 . S
O318 Zn308 2.067 1_554 S
O318 C316 1.270 . S
C319 O312 1.262 . S
C319 O320 1.232 . S
O320 C319 1.232 . S
C321 O313 1.260 . S
C321 O314 1.257 1_455 S
Zn322 O325 2.031 . S
Zn322 O327 2.049 . S
Zn322 O332 2.067 . S
Zn323 O324 1.962 . S
Zn323 O326 1.986 . S
Zn323 O328 1.996 . S
Zn323 O331 1.943 . S
O324 Zn323 1.962 . S
O324 C329 1.254 . S
O325 Zn322 2.031 . S
O325 C329 1.269 . S
O326 Zn323 1.986 . S
O326 C333 1.262 . S
O327 Zn322 2.049 . S
O327 C335 1.260 . S
O328 Zn323 1.996 . S
O328 C335 1.257 . S
C329 O324 1.254 . S
C329 O325 1.269 . S
C330 O331 1.249 . S
C330 O332 1.270 . S
O331 Zn323 1.943 . S
O331 C330 1.249 . S
O332 Zn322 2.067 . S
O332 C330 1.270 . S
C333 O326 1.262 . S
C333 O334 1.232 . S
O334 C333 1.232 . S
C335 O327 1.260 . S
C335 O328 1.257 . S
Zn336 O339 2.031 . S
Zn336 O341 2.049 1_556 S
Zn336 O346 2.067 1_556 S
Zn337 O338 1.962 1_554 S
Zn337 O340 1.986 . S
Zn337 O342 1.996 . S
Zn337 O345 1.943 . S
O338 Zn337 1.962 1_556 S
O338 C343 1.254 . S
O339 Zn336 2.031 . S
O339 C343 1.269 . S
O340 Zn337 1.986 . S
O340 C347 1.262 . S
O341 Zn336 2.049 1_554 S
O341 C349 1.260 . S
O342 Zn337 1.996 . S
O342 C349 1.257 . S
C343 O338 1.254 . S
C343 O339 1.269 . S
C344 O345 1.249 . S
C344 O346 1.270 . S
O345 Zn337 1.943 . S
O345 C344 1.249 . S
O346 Zn336 2.067 1_554 S
O346 C344 1.270 . S
C347 O340 1.262 . S
C347 O348 1.232 . S
O348 C347 1.232 . S
C349 O341 1.260 . S
C349 O342 1.257 . S
Zn350 O353 2.031 . S
Zn350 O355 2.049 . S
Zn350 O360 2.067 . S
Zn351 O352 1.962 . S
Zn351 O354 1.986 . S
Zn351 O356 1.996 . S
Zn351 O359 1.943 . S
O352 Zn351 1.962 . S
O352 C357 1.254 . S
O353 Zn350 2.031 . S
O353 C357 1.269 . S
O354 Zn351 1.986 . S
O354 C361 1.262 . S
O355 Zn350 2.049 . S
O355 C363 1.260 . S
O356 Zn351 1.996 . S
O356 C363 1.257 . S
C357 O352 1.254 . S
C357 O353 1.269 . S
C358 O359 1.249 . S
C358 O360 1.270 . S
O359 Zn351 1.943 . S
O359 C358 1.249 . S
O360 Zn350 2.067 . S
O360 C358 1.270 . S
C361 O354 1.262 . S
C361 O362 1.232 . S
O362 C361 1.232 . S
C363 O355 1.260 . S
C363 O356 1.257 . S
Zn364 O367 2.031 . S
Zn364 O369 2.049 1_455 S
Zn364 O374 2.067 . S
Zn365 O366 1.962 . S
Zn365 O368 1.986 . S
Zn365 O370 1.996 . S
Zn365 O373 1.943 . S
O366 Zn365 1.962 . S
O366 C371 1.254 . S
O367 Zn364 2.031 . S
O367 C371 1.269 . S
O368 Zn365 1.986 . S
O368 C375 1.262 . S
O369 Zn364 2.049 1_655 S
O369 C377 1.260 . S
O370 Zn365 1.996 . S
O370 C377 1.257 1_455 S
C371 O366 1.254 . S
C371 O367 1.269 . S
C372 O373 1.249 . S
C372 O374 1.270 . S
O373 Zn365 1.943 . S
O373 C372 1.249 . S
O374 Zn364 2.067 . S
O374 C372 1.270 . S
C375 O368 1.262 . S
C375 O376 1.232 . S
O376 C375 1.232 . S
C377 O369 1.260 . S
C377 O370 1.257 1_655 S
Zn378 O381 2.031 . S
Zn378 O383 2.049 . S
Zn378 O388 2.067 . S
Zn379 O380 1.962 . S
Zn379 O382 1.986 . S
Zn379 O384 1.996 . S
Zn379 O387 1.943 . S
O380 Zn379 1.962 . S
O380 C385 1.254 . S
O381 Zn378 2.031 . S
O381 C385 1.269 . S
O382 Zn379 1.986 . S
O382 C389 1.262 . S
O383 Zn378 2.049 . S
O383 C391 1.260 . S
O384 Zn379 1.996 . S
O384 C391 1.257 . S
C385 O380 1.254 . S
C385 O381 1.269 . S
C386 O387 1.249 . S
C386 O388 1.270 . S
O387 Zn379 1.943 . S
O387 C386 1.249 . S
O388 Zn378 2.067 . S
O388 C386 1.270 . S
C389 O382 1.262 . S
C389 O390 1.232 . S
O390 C389 1.232 . S
C391 O383 1.260 . S
C391 O384 1.257 . S
Zn392 O395 2.031 . S
Zn392 O397 2.049 . S
Zn392 O402 2.067 . S
Zn393 O394 1.962 . S
Zn393 O396 1.986 . S
Zn393 O398 1.996 . S
Zn393 O401 1.943 . S
O394 Zn393 1.962 . S
O394 C399 1.254 . S
O395 Zn392 2.031 . S
O395 C399 1.269 . S
O396 Zn393 1.986 . S
O396 C403 1.262 . S
O397 Zn392 2.049 . S
O397 C405 1.260 . S
O398 Zn393 1.996 . S
O398 C405 1.257 . S
C399 O394 1.254 . S
C399 O395 1.269 . S
C400 O401 1.249 . S
C400 O402 1.270 . S
O401 Zn393 1.943 . S
O401 C400 1.249 . S
O402 Zn392 2.067 . S
O402 C400 1.270 . S
C403 O396 1.262 . S
C403 O404 1.232 . S
O404 C403 1.232 . S
C405 O397 1.260 . S
C405 O398 1.257 . S
Zn406 O409 2.031 . S
Zn406 O411 2.049 . S
Zn406 O416 2.067 . S
Zn407 O408 1.962 . S
Zn407 O410 1.986 . S
Zn407 O412 1.996 . S
Zn407 O415 1.943 . S
O408 Zn407 1.962 . S
O408 C413 1.254 . S
O409 Zn406 2.031 . S
O409 C413 1.269 . S
O410 Zn407 1.986 . S
O410 C417 1.262 . S
O411 Zn406 2.049 . S
O411 C419 1.260 . S
O412 Zn407 1.996 . S
O412 C419 1.257 . S
C413 O408 1.254 . S
C413 O409 1.269 . S
C414 O415 1.249 . S
C414 O416 1.270 . S
O415 Zn407 1.943 . S
O415 C414 1.249 . S
O416 Zn406 2.067 . S
O416 C414 1.270 . S
C417 O410 1.262 . S
C417 O418 1.232 . S
O418 C417 1.232 . S
C419 O411 1.260 . S
C419 O412 1.257 . S
Zn420 O423 2.031 . S
Zn420 O425 2.049 1_454 S
Zn420 O430 2.067 1_554 S
Zn421 O422 1.962 1_556 S
Zn421 O424 1.986 . S
Zn421 O426 1.996 . S
Zn421 O429 1.943 . S
O422 Zn421 1.962 1_554 S
O422 C427 1.254 . S
O423 Zn420 2.031 . S
O423 C427 1.269 . S
O424 Zn421 1.986 . S
O424 C431 1.262 . S
O425 Zn420 2.049 1_656 S
O425 C433 1.260 . S
O426 Zn421 1.996 . S
O426 C433 1.257 1_455 S
C427 O422 1.254 . S
C427 O423 1.269 . S
C428 O429 1.249 . S
C428 O430 1.270 . S
O429 Zn421 1.943 . S
O429 C428 1.249 . S
O430 Zn420 2.067 1_556 S
O430 C428 1.270 . S
C431 O424 1.262 . S
C431 O432 1.232 . S
O432 C431 1.232 . S
C433 O425 1.260 . S
C433 O426 1.257 1_655 S
Zn434 O437 2.031 . S
Zn434 O439 2.049 . S
Zn434 O444 2.067 . S
Zn435 O436 1.962 . S
Zn435 O438 1.986 . S
Zn435 O440 1.996 . S
Zn435 O443 1.943 . S
O436 Zn435 1.962 . S
O436 C441 1.254 . S
O437 Zn434 2.031 . S
O437 C441 1.269 . S
O438 Zn435 1.986 . S
O438 C445 1.262 . S
O439 Zn434 2.049 . S
O439 C447 1.260 . S
O440 Zn435 1.996 . S
O440 C447 1.257 . S
C441 O436 1.254 . S
C441 O437 1.269 . S
C442 O443 1.249 . S
C442 O444 1.270 . S
O443 Zn435 1.943 . S
O443 C442 1.249 . S
O444 Zn434 2.067 . S
O444 C442 1.270 . S
C445 O438 1.262 . S
C445 O446 1.232 . S
O446 C445 1.232 . S
C447 O439 1.260 . S
C447 O440 1.257 . S
C11 C67 1.575 1_545 S
C25 C81 1.574 . S
C95 C39 1.575 1_545 S
C109 C53 1.574 1_556 S
C123 C179 1.575 1_565 S
C137 C193 1.574 . S
C207 C151 1.575 1_565 S
C165 C221 1.574 1_556 S
C291 C235 1.575 . S
C305 C249 1.574 1_556 S
C263 C319 1.575 . S
C333 C277 1.574 . S
C347 C403 1.575 . S
C417 C361 1.574 1_554 S
C431 C375 1.575 . S
C389 C445 1.574 . S
C8 C391 1.211 . S
C125 C22 1.211 . S
C36 C363 1.211 . S
C50 C153 1.211 . S
C419 C64 1.211 . S
C209 C78 1.211 . S
C92 C447 1.211 . S
C106 C181 1.211 . S
C279 C120 1.211 . S
C134 C13 1.211 . S
C251 C148 1.211 . S
C162 C41 1.211 . S
C307 C176 1.211 . S
C190 C97 1.211 . S
C335 C204 1.211 . S
C218 C69 1.211 . S
C167 C232 1.211 . S
C349 C246 1.211 . S
C139 C260 1.211 . S
C274 C377 1.211 . S
C195 C288 1.211 . S
C433 C302 1.211 . S
C223 C316 1.211 . S
C330 C405 1.211 . S
C344 C55 1.211 . S
C358 C237 1.211 . S
C372 C27 1.211 . S
C386 C265 1.211 . S
C400 C83 1.211 . S
C321 C414 1.211 . S
C111 C428 1.211 . S
C442 C293 1.211 . S
C7 C105 1.158 . S
C21 C63 1.158 . S
C35 C77 1.158 . S
C91 C49 1.158 . S
C217 C119 1.158 . S
C175 C133 1.158 . S
C189 C147 1.158 . S
C203 C161 1.158 . S
C231 C329 1.158 . S
C287 C245 1.158 . S
C301 C259 1.158 . S
C315 C273 1.158 . S
C441 C343 1.158 . S
C357 C399 1.158 . S
C371 C413 1.158 . S
C385 C427 1.158 . S
