# Generated by pormake.
# Topology loh, (5)-cn, num edge types: 1
# Building blocks:
#     Node 0, Type 0, BuildingBlock: XOMCOT_clean_sbu_0, # of connection points: 5
#     Node 1, Type 0, BuildingBlock: XOMCOT_clean_sbu_0, # of connection points: 5
#     Node 2, Type 0, BuildingBlock: XOMCOT_clean_sbu_0, # of connection points: 5
#     Node 3, Type 0, BuildingBlock: XOMCOT_clean_sbu_0, # of connection points: 5
#     Node 4, Type 0, BuildingBlock: XOMCOT_clean_sbu_0, # of connection points: 5
#     Node 5, Type 0, BuildingBlock: XOMCOT_clean_sbu_0, # of connection points: 5
#     Node 6, Type 0, BuildingBlock: XOMCOT_clean_sbu_0, # of connection points: 5
#     Node 7, Type 0, BuildingBlock: XOMCOT_clean_sbu_0, # of connection points: 5
#     Edge 8, Type (0, 0), BuildingBlock: XUDNAN_clean_linker_2, # of connection points: 2
#     Edge 9, Type (0, 0), BuildingBlock: XUDNAN_clean_linker_2, # of connection points: 2
#     Edge 10, Type (0, 0), BuildingBlock: XUDNAN_clean_linker_2, # of connection points: 2
#     Edge 11, Type (0, 0), BuildingBlock: XUDNAN_clean_linker_2, # of connection points: 2
#     Edge 12, Type (0, 0), BuildingBlock: XUDNAN_clean_linker_2, # of connection points: 2
#     Edge 13, Type (0, 0), BuildingBlock: XUDNAN_clean_linker_2, # of connection points: 2
#     Edge 14, Type (0, 0), BuildingBlock: XUDNAN_clean_linker_2, # of connection points: 2
#     Edge 15, Type (0, 0), BuildingBlock: XUDNAN_clean_linker_2, # of connection points: 2
#     Edge 16, Type (0, 0), BuildingBlock: XUDNAN_clean_linker_2, # of connection points: 2
#     Edge 17, Type (0, 0), BuildingBlock: XUDNAN_clean_linker_2, # of connection points: 2
#     Edge 18, Type (0, 0), BuildingBlock: XUDNAN_clean_linker_2, # of connection points: 2
#     Edge 19, Type (0, 0), BuildingBlock: XUDNAN_clean_linker_2, # of connection points: 2
#     Edge 20, Type (0, 0), BuildingBlock: XUDNAN_clean_linker_2, # of connection points: 2
#     Edge 21, Type (0, 0), BuildingBlock: XUDNAN_clean_linker_2, # of connection points: 2
#     Edge 22, Type (0, 0), BuildingBlock: XUDNAN_clean_linker_2, # of connection points: 2
#     Edge 23, Type (0, 0), BuildingBlock: XUDNAN_clean_linker_2, # of connection points: 2
#     Edge 24, Type (0, 0), BuildingBlock: XUDNAN_clean_linker_2, # of connection points: 2
#     Edge 25, Type (0, 0), BuildingBlock: XUDNAN_clean_linker_2, # of connection points: 2
#     Edge 26, Type (0, 0), BuildingBlock: XUDNAN_clean_linker_2, # of connection points: 2
#     Edge 27, Type (0, 0), BuildingBlock: XUDNAN_clean_linker_2, # of connection points: 2
# Relax obj value: 0.189
# Max RMSD: 0.132
# Mean RMSD: 0.132
data_MOF--net-loh--node1-XOMCOT_clean_sbu_0--edge1-XUDNAN_clean_linker_2
_symmetry_space_group_name_H-M    P1
_symmetry_Int_Tables_number       1
_symmetry_cell_setting            triclinic
loop_
_symmetry_equiv_pos_as_xyz
'x, y, z'
_cell_length_a     26.989968
_cell_length_b     24.326305
_cell_length_c     41.288563
_cell_angle_alpha  90.027683
_cell_angle_beta   90.543298
_cell_angle_gamma 90.522784
loop_
_atom_site_label
_atom_site_type_symbol
_atom_site_fract_x
_atom_site_fract_y
_atom_site_fract_z
_atom_type_partial_charge
Co0 Co 0.07537 0.27109 0.17288 0.0
C1 C 0.05545 0.15627 0.19476 0.0
C2 C 0.1313 0.1689 0.18171 0.0
C3 C 0.12617 0.11676 0.1942 0.0
N4 N 0.08683 0.19354 0.18144 0.0
N5 N 0.07847 0.10871 0.20274 0.0
H6 H 1.01744 0.16509 0.20059 0.0
H7 H 0.16584 0.18837 0.17495 0.0
C8 C 0.14806 0.24348 0.11737 0.0
O9 O 0.126 0.19671 0.10998 0.0
N10 N 0.06356 0.3484 0.16513 0.0
C11 C 1.02785 0.37952 0.17846 0.0
C12 C 1.02837 0.43046 0.16418 0.0
C13 C 0.08474 0.38075 0.14262 0.0
N14 N 0.06388 0.43072 0.14157 0.0
C15 C 0.97699 0.24132 0.15096 0.0
C16 C 0.98909 0.27376 0.08745 0.0
C17 C 0.94074 0.2628 0.09816 0.0
C18 C 0.93538 0.24476 0.1303 0.0
C19 C 1.02935 0.27088 0.10894 0.0
N20 N 1.0234 0.25512 0.14048 0.0
H21 H 0.97102 0.23158 0.1761 0.0
H22 H 0.06443 0.28581 0.10037 0.0
H23 H 1.00098 0.36554 0.19589 0.0
H24 H 0.11268 0.36751 0.12585 0.0
O25 O 1.03551 0.27629 0.21182 0.0
O26 O 0.11633 0.29062 0.20981 0.0
O27 O 0.13122 0.27375 0.14006 0.0
C28 C 0.07596 0.29254 0.22662 0.0
H29 H 0.15596 0.08785 0.19761 0.0
H30 H 1.00205 0.46307 0.16813 0.0
H31 H 0.99597 0.28693 0.06285 0.0
H32 H 0.89907 0.23654 0.14019 0.0
Co33 Co 0.51825 0.7827 0.66543 0.0
C34 C 0.53776 0.88696 0.70249 0.0
C35 C 0.47884 0.89598 0.66779 0.0
C36 C 0.48489 0.94489 0.68407 0.0
N37 N 0.5115 0.85906 0.67946 0.0
N38 N 0.52185 0.93941 0.70592 0.0
H39 H 0.56754 0.86927 0.71664 0.0
H40 H 0.45251 0.88903 0.64842 0.0
C41 C 0.41901 0.78962 0.6331 0.0
O42 O 0.39945 0.78663 0.66205 0.0
N43 N 0.52577 0.7075 0.65137 0.0
C44 C 0.56708 0.67729 0.65467 0.0
C45 C 0.5613 0.6298 0.63693 0.0
C46 C 0.49521 0.67766 0.63211 0.0
N47 N 0.51623 0.63038 0.62248 0.0
C48 C 0.6189 0.80964 0.64834 0.0
C49 C 0.60572 0.79773 0.58229 0.0
C50 C 0.65436 0.79902 0.59465 0.0
C51 C 0.66058 0.80747 0.62814 0.0
C52 C 0.56535 0.79917 0.6032 0.0
N53 N 0.572 0.80307 0.63601 0.0
H54 H 0.62466 0.81273 0.6742 0.0
H55 H 0.52914 0.79334 0.59262 0.0
H56 H 0.60036 0.69046 0.66736 0.0
H57 H 0.4592 0.69101 0.62407 0.0
O58 O 0.55674 0.76473 0.70405 0.0
O59 O 0.47544 0.75724 0.69993 0.0
O60 O 0.46617 0.79314 0.6302 0.0
C61 C 0.51535 0.74838 0.71692 0.0
H62 H 0.46433 0.98217 0.6796 0.0
H63 H 0.5897 0.59948 0.63296 0.0
H64 H 0.5986 0.79307 0.55658 0.0
H65 H 0.69723 0.80897 0.63899 0.0
Co66 Co 0.05983 0.77888 0.89281 0.0
C67 C 0.04861 0.8857 0.85766 0.0
C68 C 0.113 0.88552 0.88846 0.0
C69 C 0.11034 0.93566 0.87336 0.0
N70 N 0.07456 0.85367 0.87856 0.0
N71 N 0.06999 0.93596 0.85391 0.0
H72 H 1.0151 0.87247 0.84525 0.0
H73 H 0.14115 0.87427 0.90582 0.0
C74 C 0.16065 0.77218 0.92362 0.0
O75 O 0.17829 0.76273 0.89465 0.0
N76 N 1.04412 0.70512 0.90722 0.0
C77 C 0.99955 0.67987 0.90425 0.0
C78 C 0.99742 0.6369 0.92592 0.0
C79 C 0.06866 0.67625 0.92992 0.0
N80 N 1.04086 0.63532 0.9421 0.0
C81 C 0.96396 0.81618 0.91159 0.0
C82 C 0.97701 0.79549 0.97683 0.0
C83 C 0.92845 0.79903 0.96456 0.0
C84 C 0.92241 0.8127 0.93172 0.0
C85 C 1.01733 0.79854 0.95589 0.0
N86 N 1.01043 0.80548 0.9233 0.0
H87 H 0.958 0.82234 0.88596 0.0
H88 H 0.05337 0.79026 0.96595 0.0
H89 H 0.96871 0.69531 0.89016 0.0
H90 H 0.10379 0.68811 0.94043 0.0
O91 O 1.01706 0.76653 0.85564 0.0
O92 O 0.09682 0.74774 0.85697 0.0
O93 O 0.11467 0.78359 0.9269 0.0
C94 C 0.05465 0.7443 0.8415 0.0
H95 H 0.1358 0.96979 0.87701 0.0
H96 H 0.96464 0.61334 0.93213 0.0
H97 H 0.98389 0.78694 1.00221 0.0
H98 H 0.88583 0.81638 0.92101 0.0
Co99 Co 0.5517 0.24984 0.39632 0.0
C100 C 0.56784 0.14531 0.35952 0.0
C101 C 0.49629 0.14948 0.38161 0.0
C102 C 0.49902 0.1011 0.36469 0.0
N103 N 0.53938 0.17716 0.37864 0.0
N104 N 0.5438 0.09831 0.3505 0.0
H105 H 0.60455 0.15709 0.35165 0.0
H106 H 0.46437 0.164 0.39457 0.0
C107 C 0.50172 0.24933 0.4626 0.0
O108 O 0.53679 0.28056 0.47535 0.0
N109 N 0.56242 0.32315 0.41336 0.0
C110 C 0.60532 0.35147 0.41696 0.0
C111 C 0.59571 0.39992 0.43271 0.0
C112 C 0.52708 0.35645 0.42497 0.0
N113 N 0.5466 0.40272 0.43775 0.0
C114 C 0.65615 0.23384 0.40513 0.0
C115 C 0.65376 0.19789 0.46846 0.0
C116 C 0.69919 0.21617 0.45587 0.0
C117 C 0.7002 0.23147 0.42313 0.0
C118 C 0.61046 0.20046 0.44935 0.0
N119 N 0.61135 0.22344 0.41912 0.0
H120 H 0.65812 0.24899 0.38064 0.0
H121 H 0.57648 0.18517 0.45948 0.0
H122 H 0.64146 0.33775 0.40989 0.0
H123 H 0.48841 0.34477 0.42683 0.0
O124 O 0.58146 0.2741 0.35619 0.0
O125 O 0.50183 0.2801 0.36733 0.0
O126 O 0.50526 0.23139 0.4335 0.0
C127 C 0.53782 0.29135 0.34761 0.0
H128 H 0.46982 0.07045 0.36301 0.0
H129 H 0.62301 0.429 0.4419 0.0
H130 H 0.65145 0.18267 0.49305 0.0
H131 H 0.73424 0.24507 0.41188 0.0
Co132 Co 0.5668 0.74855 0.14903 0.0
C133 C 0.55046 0.64447 0.18676 0.0
C134 C 0.62366 0.65267 0.16734 0.0
C135 C 0.62093 0.60423 0.18414 0.0
N136 N 0.5796 0.67786 0.1687 0.0
N137 N 0.5751 0.59884 0.19669 0.0
H138 H 0.51264 0.65397 0.19297 0.0
H139 H 0.65605 0.66872 0.15524 0.0
C140 C 0.6158 0.73976 0.08254 0.0
O141 O 0.57806 0.76335 0.06812 0.0
N142 N 0.55596 0.82014 0.12967 0.0
C143 C 0.51347 0.84852 0.12682 0.0
C144 C 0.52138 0.8922 0.10636 0.0
C145 C 0.58979 0.84977 0.1132 0.0
N146 N 0.56925 0.89235 0.09745 0.0
C147 C 0.46239 0.73242 0.13934 0.0
C148 C 0.46551 0.68309 0.07925 0.0
C149 C 0.42015 0.70446 0.08977 0.0
C150 C 0.41884 0.72687 0.12106 0.0
C151 C 0.50843 0.68918 0.09868 0.0
N152 N 0.50732 0.71867 0.12689 0.0
H153 H 0.46002 0.75223 0.16261 0.0
H154 H 0.54244 0.67146 0.09036 0.0
H155 H 0.47834 0.83722 0.13716 0.0
H156 H 0.6277 0.83709 0.10979 0.0
O157 O 0.53648 0.77523 0.1884 0.0
O158 O 0.61612 0.78268 0.17733 0.0
O159 O 0.61408 0.72804 0.11277 0.0
C160 C 0.57994 0.79427 0.1967 0.0
H161 H 0.65081 0.57519 0.18664 0.0
H162 H 0.49301 0.91828 0.09607 0.0
H163 H 0.46804 0.66256 0.05606 0.0
H164 H 0.38496 0.74322 0.13087 0.0
Co165 Co 0.05063 0.2754 0.65418 0.0
C166 C 1.04628 0.38055 0.69206 0.0
C167 C 0.08278 0.3906 0.64649 0.0
C168 C 0.08368 0.44031 0.66235 0.0
N169 N 0.06026 0.35263 0.6653 0.0
N170 N 0.0607 0.43394 0.69087 0.0
H171 H 1.02605 0.36258 0.71198 0.0
H172 H 0.09714 0.38315 0.62255 0.0
C173 C 0.95904 0.30647 0.61836 0.0
O174 O 0.93804 0.31292 0.64664 0.0
N175 N 1.04097 0.19921 0.6428 0.0
C176 C 0.0756 0.15973 0.64325 0.0
C177 C 0.05734 0.11505 0.62634 0.0
C178 C 1.00178 0.1774 0.62689 0.0
N179 N 1.01096 0.12649 0.61615 0.0
C180 C 0.15411 0.28644 0.6387 0.0
C181 C 0.14434 0.25645 0.57432 0.0
C182 C 0.19222 0.26369 0.58733 0.0
C183 C 0.19671 0.28007 0.61987 0.0
C184 C 0.10291 0.26312 0.59389 0.0
N185 N 0.10798 0.27755 0.62573 0.0
H186 H 0.15814 0.29708 0.66402 0.0
H187 H 0.0669 0.25379 0.58369 0.0
H188 H 0.11307 0.16516 0.65229 0.0
H189 H 0.96906 0.19986 0.62014 0.0
O190 O 0.08348 0.25206 0.69352 0.0
O191 O 1.00274 0.26455 0.68852 0.0
O192 O 1.00546 0.2969 0.61709 0.0
C193 C 1.0397 0.24677 0.70605 0.0
H194 H 0.0986 0.4787 0.65323 0.0
H195 H 0.07845 0.07967 0.61887 0.0
H196 H 0.13873 0.2444 0.54929 0.0
H197 H 0.2328 0.28565 0.63113 0.0
Co198 Co 0.57075 0.2855 0.90502 0.0
C199 C 0.55136 0.39459 0.87419 0.0
C200 C 0.62586 0.38688 0.89216 0.0
C201 C 0.62147 0.43707 0.87722 0.0
N202 N 0.582 0.36026 0.89046 0.0
N203 N 0.57475 0.44206 0.86567 0.0
H204 H 0.51346 0.38418 0.86777 0.0
H205 H 0.65935 0.37036 0.9027 0.0
C206 C 0.62932 0.27563 0.96884 0.0
O207 O 0.59555 0.24259 0.98104 0.0
N208 N 0.5603 0.21018 0.91836 0.0
C209 C 0.51843 0.18008 0.91428 0.0
C210 C 0.52881 0.12587 0.91985 0.0
C211 C 0.59593 0.17328 0.9252 0.0
N212 N 0.57747 0.12176 0.92668 0.0
C213 C 0.46784 0.29858 0.92124 0.0
C214 C 0.48208 0.33754 0.98339 0.0
C215 C 0.43423 0.31975 0.97416 0.0
C216 C 0.42726 0.30222 0.94206 0.0
C217 C 0.5217 0.33295 0.96176 0.0
N218 N 0.51502 0.30947 0.93192 0.0
H219 H 0.46131 0.28424 0.89683 0.0
H220 H 0.5577 0.34735 0.96958 0.0
H221 H 0.48308 0.19529 0.90621 0.0
H222 H 0.63474 0.18366 0.92845 0.0
O223 O 0.53561 0.26713 0.8649 0.0
O224 O 0.61615 0.25852 0.87281 0.0
O225 O 0.62248 0.29766 0.9409 0.0
C226 C 0.57783 0.2494 0.8542 0.0
H227 H 0.65081 0.46737 0.87489 0.0
H228 H 0.5024 0.09209 0.91951 0.0
H229 H 0.48946 0.35307 1.00755 0.0
H230 H 0.39079 0.29065 0.93311 0.0
Co231 Co 1.0161 0.76676 0.40004 0.0
C232 C 1.03557 0.65496 0.37251 0.0
C233 C 0.95989 0.66685 0.38624 0.0
C234 C 0.96409 0.61515 0.37332 0.0
N235 N 1.00454 0.69183 0.38591 0.0
N236 N 1.01155 0.60746 0.36446 0.0
H237 H 0.07434 0.66329 0.36801 0.0
H238 H 0.92618 0.68535 0.39481 0.0
C239 C 0.95959 0.77703 0.46374 0.0
O240 O 0.99463 0.80876 0.47608 0.0
N241 N 1.02562 0.84223 0.41336 0.0
C242 C 0.06764 0.87217 0.41635 0.0
C243 C 0.05557 0.92396 0.42681 0.0
C244 C 0.98868 0.8771 0.4201 0.0
N245 N 1.00582 0.92678 0.42962 0.0
C246 C 0.11883 0.75263 0.41536 0.0
C247 C 0.10935 0.71534 0.4781 0.0
C248 C 0.15675 0.73059 0.4672 0.0
C249 C 0.16096 0.74767 0.43491 0.0
C250 C 0.06779 0.72082 0.45746 0.0
N251 N 0.07243 0.74322 0.42722 0.0
H252 H 0.12387 0.76769 0.39108 0.0
H253 H 1.03221 0.70754 0.46623 0.0
H254 H 0.10463 0.85789 0.41194 0.0
H255 H 0.94997 0.86516 0.41956 0.0
O256 O 0.05144 0.78391 0.3606 0.0
O257 O 0.97089 0.79345 0.36662 0.0
O258 O 0.96493 0.75516 0.43567 0.0
C259 C 1.00975 0.80132 0.3487 0.0
H260 H 0.9342 0.58549 0.37074 0.0
H261 H 0.08184 0.95567 0.43397 0.0
H262 H 0.1043 0.69954 0.50237 0.0
H263 H 0.19638 0.75978 0.42496 0.0
H264 H 0.35942 0.24175 0.98052 0.0
H265 H 0.41359 0.39541 1.02174 0.0
H266 H 0.34677 0.39217 0.06207 0.0
H267 H 0.22792 0.26987 0.99067 0.0
H268 H 0.2124 0.1997 1.00062 0.0
H269 H 0.26404 0.21438 0.97456 0.0
H270 H 0.32182 0.15958 1.01287 0.0
H271 H 0.27043 0.14493 0.03911 0.0
H272 H 0.32552 0.17783 0.05515 0.0
H273 H 0.27486 0.3719 0.09862 0.0
H274 H 0.203 0.33674 0.12863 0.0
H275 H 0.19337 0.19618 0.06388 0.0
C276 C 0.35693 0.27517 0.99773 0.0
C277 C 0.39223 0.31889 0.99779 0.0
C278 C 0.38776 0.36111 1.02126 0.0
C279 C 0.34963 0.35979 0.04423 0.0
C280 C 0.31589 0.316 0.0436 0.0
C281 C 0.31903 0.27449 1.02093 0.0
C282 C 0.27825 0.23174 1.0259 0.0
C283 C 0.2436 0.22876 0.99617 0.0
C284 C 0.30034 0.17517 0.03373 0.0
C285 C 0.25188 0.25554 0.05505 0.0
C286 C 0.27424 0.30426 0.06474 0.0
C287 C 0.25701 0.33389 0.09114 0.0
C288 C 0.21592 0.31343 0.10808 0.0
C289 C 0.19199 0.26358 0.09875 0.0
C290 C 0.21055 0.23435 0.07176 0.0
H291 H 0.317 0.79672 0.62833 0.0
H292 H 0.44797 0.7631 0.57168 0.0
H293 H 0.395 0.73977 0.52463 0.0
H294 H 0.23913 0.69039 0.5953 0.0
H295 H 0.1837 0.73116 0.59446 0.0
H296 H 0.23156 0.74535 0.62409 0.0
H297 H 0.23718 0.84637 0.60458 0.0
H298 H 0.18884 0.83269 0.57521 0.0
H299 H 0.24755 0.8605 0.56231 0.0
H300 H 0.32793 0.71523 0.4845 0.0
H301 H 0.2522 0.70301 0.45156 0.0
H302 H 0.1637 0.7587 0.53234 0.0
C303 C 0.33457 0.78491 0.60595 0.0
C304 C 0.38688 0.78164 0.60387 0.0
C305 C 0.4082 0.76626 0.574 0.0
C306 C 0.37832 0.7525 0.54712 0.0
C307 C 0.327 0.75514 0.55017 0.0
C308 C 0.30522 0.77195 0.57861 0.0
C309 C 0.2491 0.77298 0.57498 0.0
C310 C 0.22443 0.73256 0.59861 0.0
C311 C 0.22952 0.83162 0.57953 0.0
C312 C 0.24277 0.75383 0.54012 0.0
C313 C 0.28824 0.74317 0.52648 0.0
C314 C 0.29218 0.72427 0.49479 0.0
C315 C 0.24876 0.71768 0.47618 0.0
C316 C 0.20162 0.73071 0.48896 0.0
C317 C 0.19884 0.74801 0.52172 0.0
H318 H 0.41415 0.72435 1.02365 0.0
H319 H 0.32285 0.68888 0.10727 0.0
H320 H 0.2478 0.7044 0.0743 0.0
H321 H 0.34064 0.83024 0.99034 0.0
H322 H 0.34855 0.81033 0.94867 0.0
H323 H 0.39578 0.79463 0.97827 0.0
H324 H 0.39001 0.69143 0.96318 0.0
H325 H 0.34326 0.70691 0.93318 0.0
H326 H 0.33074 0.65671 0.96422 0.0
H327 H 0.18235 0.7306 0.03352 0.0
H328 H 0.13088 0.75456 0.98611 0.0
H329 H 0.26299 0.7675 0.92735 0.0
C330 C 0.37842 0.71864 0.03491 0.0
C331 C 0.37486 0.70599 0.06838 0.0
C332 C 0.32703 0.69968 0.082 0.0
C333 C 0.28397 0.70821 0.06339 0.0
C334 C 0.28888 0.7224 1.03089 0.0
C335 C 0.3348 0.72655 1.01654 0.0
C336 C 0.32946 0.74221 0.98102 0.0
C337 C 0.35514 0.79765 0.97419 0.0
C338 C 0.34955 0.69659 0.95911 0.0
C339 C 0.27346 0.74674 0.97781 0.0
C340 C 0.25088 0.73559 1.00699 0.0
C341 C 0.19965 0.7389 1.01047 0.0
C342 C 0.17065 0.75298 0.98335 0.0
C343 C 0.1926 0.76291 0.95281 0.0
C344 C 0.24489 0.75996 0.95024 0.0
H345 H 0.465 0.30731 0.51427 0.0
H346 H 0.43338 0.16757 0.45175 0.0
H347 H 0.35283 0.15423 0.47853 0.0
H348 H 0.40365 0.25197 0.58749 0.0
H349 H 0.38125 0.31876 0.59889 0.0
H350 H 0.43815 0.31283 0.5767 0.0
H351 H 0.40201 0.3788 0.5328 0.0
H352 H 0.34509 0.38316 0.55501 0.0
H353 H 0.34398 0.3612 0.51331 0.0
H354 H 0.27444 0.15824 0.51007 0.0
H355 H 0.20284 0.17913 0.54423 0.0
H356 H 0.28293 0.31851 0.58556 0.0
C357 C 0.44157 0.27318 0.50668 0.0
C358 C 0.45571 0.23819 0.481 0.0
C359 C 0.42344 0.19485 0.47133 0.0
C360 C 0.37762 0.18687 0.48645 0.0
C361 C 0.36438 0.22266 0.51122 0.0
C362 C 0.39539 0.26487 0.52139 0.0
C363 C 0.37101 0.29906 0.54749 0.0
C364 C 0.40025 0.29545 0.57955 0.0
C365 C 0.36518 0.3591 0.53649 0.0
C366 C 0.32113 0.26999 0.54999 0.0
C367 C 0.31842 0.22576 0.52902 0.0
C368 C 0.2761 0.19283 0.52656 0.0
C369 C 0.23536 0.20541 0.54592 0.0
C370 C 0.23671 0.25092 0.56744 0.0
C371 C 0.2806 0.28328 0.56957 0.0
H372 H 0.64933 0.8026 0.0318 0.0
H373 H 0.6918 0.66957 0.09594 0.0
H374 H 0.77527 0.66938 0.0718 0.0
H375 H 0.72009 0.76034 0.96116 0.0
H376 H 0.73754 0.82971 0.9506 0.0
H377 H 0.68001 0.81667 0.97113 0.0
H378 H 0.70602 0.88454 1.01653 0.0
H379 H 0.7635 0.89805 0.99609 0.0
H380 H 0.76406 0.87513 0.03761 0.0
H381 H 0.85459 0.6855 0.04221 0.0
H382 H 0.92488 0.71595 1.00916 0.0
H383 H 0.83321 0.84249 0.96564 0.0
C384 C 0.67581 0.7726 0.04026 0.0
C385 C 0.66379 0.7355 0.0655 0.0
C386 C 0.70005 0.69802 0.07651 0.0
C387 C 0.74756 0.69768 0.06295 0.0
C388 C 0.75852 0.73548 0.0386 0.0
C389 C 0.72374 0.77228 1.02731 0.0
C390 C 0.74601 0.81059 1.00216 0.0
C391 C 0.71932 0.80389 0.96931 0.0
C392 C 0.74484 0.87063 1.0138 0.0
C393 C 0.79874 0.78934 1.00093 0.0
C394 C 0.80496 0.74597 1.02216 0.0
C395 C 0.85023 0.7196 1.02564 0.0
C396 C 0.89022 0.73776 1.00692 0.0
C397 C 0.88524 0.7824 0.985 0.0
C398 C 0.83852 0.80829 0.98203 0.0
H399 H 0.85697 0.31149 0.61245 0.0
H400 H 0.98952 0.27607 0.55769 0.0
H401 H 0.93775 0.24617 0.51144 0.0
H402 H 0.78487 0.19778 0.58418 0.0
H403 H 0.72738 0.23476 0.58177 0.0
H404 H 0.7745 0.25555 0.61056 0.0
H405 H 0.77492 0.35405 0.58674 0.0
H406 H 0.72722 0.3338 0.55824 0.0
H407 H 0.78436 0.36355 0.54393 0.0
H408 H 0.87156 0.21532 0.4718 0.0
H409 H 0.79597 0.19482 0.43981 0.0
H410 H 0.70582 0.25267 0.5192 0.0
C411 C 0.87521 0.29832 0.59057 0.0
C412 C 0.92762 0.29637 0.58893 0.0
C413 C 0.94967 0.27829 0.55977 0.0
C414 C 0.92049 0.26082 0.53331 0.0
C415 C 0.86909 0.26195 0.53606 0.0
C416 C 0.84657 0.28099 0.56376 0.0
C417 C 0.7905 0.27811 0.56032 0.0
C418 C 0.768 0.23923 0.58572 0.0
C419 C 0.76793 0.33581 0.56242 0.0
C420 C 0.78506 0.25437 0.52643 0.0
C421 C 0.83089 0.24503 0.51298 0.0
C422 C 0.83548 0.22302 0.48199 0.0
C423 C 0.79221 0.2116 0.46394 0.0
C424 C 0.74464 0.22235 0.47674 0.0
C425 C 0.74137 0.24329 0.5087 0.0
H426 H 0.84848 0.20978 0.09597 0.0
H427 H 0.93141 0.3438 0.05186 0.0
H428 H 0.861 0.36236 1.01563 0.0
H429 H 0.78504 0.16135 1.02508 0.0
H430 H 0.72778 0.14849 0.04604 0.0
H431 H 0.7857 0.14535 0.06775 0.0
H432 H 0.75112 0.21655 0.10846 0.0
H433 H 0.694 0.21994 0.08561 0.0
H434 H 0.72929 0.28179 0.09365 0.0
H435 H 0.78252 0.36515 0.98245 0.0
H436 H 0.70123 0.35251 0.95559 0.0
H437 H 0.6662 0.22026 1.02236 0.0
C438 C 0.8519 0.24338 0.07895 0.0
C439 C 0.89663 0.27432 0.07665 0.0
C440 C 0.89878 0.31787 0.05372 0.0
C441 C 0.85851 0.32937 0.03314 0.0
C442 C 0.81548 0.2978 0.03586 0.0
C443 C 0.81164 0.25604 0.05837 0.0
C444 C 0.76082 0.22869 0.05633 0.0
C445 C 0.76522 0.1673 0.04828 0.0
C446 C 0.73212 0.23727 0.08789 0.0
C447 C 0.73738 0.2604 1.02846 0.0
C448 C 0.76952 0.3004 1.01723 0.0
C449 C 0.75693 0.33415 0.99119 0.0
C450 C 0.71055 0.32657 0.976 0.0
C451 C 0.67692 0.28554 0.98677 0.0
C452 C 0.69065 0.25241 1.01364 0.0
H453 H 0.7504 0.84314 0.59579 0.0
H454 H 0.65646 0.72541 0.54448 0.0
H455 H 0.72447 0.70558 0.50733 0.0
H456 H 0.81598 0.89695 0.52712 0.0
H457 H 0.87419 0.90141 0.54892 0.0
H458 H 0.81685 0.90604 0.57049 0.0
H459 H 0.84779 0.82582 0.60701 0.0
H460 H 0.90362 0.82062 0.58363 0.0
H461 H 0.86391 0.7613 0.58855 0.0
H462 H 0.80114 0.69978 0.47428 0.0
H463 H 0.88201 0.70874 0.44752 0.0
H464 H 0.92894 0.82815 0.52007 0.0
C465 C 0.74419 0.81294 0.5769 0.0
C466 C 0.69724 0.78685 0.57289 0.0
C467 C 0.69118 0.74747 0.54771 0.0
C468 C 0.72991 0.73533 0.52656 0.0
C469 C 0.7752 0.76224 0.53087 0.0
C470 C 0.78279 0.79999 0.55548 0.0
C471 C 0.83543 0.82287 0.55452 0.0
C472 C 0.83553 0.88556 0.54994 0.0
C473 C 0.86439 0.80667 0.58526 0.0
C474 C 0.85541 0.79354 0.52485 0.0
C475 C 0.8201 0.75823 0.51191 0.0
C476 C 0.82921 0.72712 0.48427 0.0
C477 C 0.8754 0.73254 0.46919 0.0
C478 C 0.91222 0.76895 0.48159 0.0
C479 C 0.90194 0.7995 0.51005 0.0
H480 H 0.99499 0.34024 0.2541 0.0
H481 H 0.15425 0.32553 0.26482 0.0
H482 H 0.15481 0.40147 0.30463 0.0
H483 H 0.99513 0.48131 0.2519 0.0
H484 H 0.93782 0.49033 0.27326 0.0
H485 H 0.94812 0.42823 0.25074 0.0
H486 H 0.93219 0.36957 0.30202 0.0
H487 H 0.92079 0.43145 0.32467 0.0
H488 H 0.96704 0.38375 0.3386 0.0
H489 H 0.13902 0.48793 0.33791 0.0
H490 H 0.10733 0.57201 0.36418 0.0
H491 H 0.95956 0.53216 0.32854 0.0
C492 C 1.02975 0.35144 0.26575 0.0
C493 C 0.07452 0.32638 0.25656 0.0
C494 C 0.11938 0.34357 0.27175 0.0
C495 C 0.12009 0.38697 0.29428 0.0
C496 C 0.07563 0.41295 0.30138 0.0
C497 C 1.03119 0.39531 0.2878 0.0
C498 C 0.98934 0.43333 0.29676 0.0
C499 C 0.96627 0.45986 0.26636 0.0
C500 C 0.95002 0.40269 0.31671 0.0
C501 C 1.01715 0.47544 0.31717 0.0
C502 C 0.06683 0.46301 0.31976 0.0
C503 C 0.10001 0.4976 0.33634 0.0
C504 C 0.08178 0.54561 0.35095 0.0
C505 C 1.03081 0.55884 0.34884 0.0
C506 C 0.99847 0.52302 0.33146 0.0
H507 H 0.59435 0.69814 0.74636 0.0
H508 H 0.4344 0.71119 0.75044 0.0
H509 H 0.43196 0.63627 0.79092 0.0
H510 H 0.5979 0.55512 0.74867 0.0
H511 H 0.65348 0.55087 0.77305 0.0
H512 H 0.64332 0.60987 0.74766 0.0
H513 H 0.65339 0.67439 0.79728 0.0
H514 H 0.66425 0.61559 0.82282 0.0
H515 H 0.61567 0.66304 0.8325 0.0
H516 H 0.44689 0.55314 0.82762 0.0
H517 H 0.47838 0.47385 0.85906 0.0
H518 H 0.62793 0.51463 0.82914 0.0
C519 C 0.55891 0.6865 0.7565 0.0
C520 C 0.5146 0.7112 0.74551 0.0
C521 C 0.46891 0.69344 0.75875 0.0
C522 C 0.46714 0.65068 0.78168 0.0
C523 C 0.51139 0.62594 0.79118 0.0
C524 C 0.55648 0.64366 0.7792 0.0
C525 C 0.59841 0.6082 0.79166 0.0
C526 C 0.62481 0.57931 0.76359 0.0
C527 C 0.63509 0.64235 0.8123 0.0
C528 C 0.56994 0.5674 0.81226 0.0
C529 C 0.51981 0.57822 0.81182 0.0
C530 C 0.48618 0.54468 0.82831 0.0
C531 C 0.50435 0.4994 0.84594 0.0
C532 C 0.55574 0.48786 0.84697 0.0
C533 C 0.5886 0.52256 0.82963 0.0
H534 H 0.1274 0.50372 0.71844 0.0
H535 H 0.97124 0.4623 0.71362 0.0
H536 H 0.95242 0.54317 0.74794 0.0
H537 H 0.12654 0.54523 0.80311 0.0
H538 H 0.17209 0.599 0.79769 0.0
H539 H 0.1724 0.53935 0.77186 0.0
H540 H 0.16714 0.60266 0.72152 0.0
H541 H 0.16593 0.66247 0.74726 0.0
H542 H 0.11702 0.65083 0.71795 0.0
H543 H 0.95072 0.63086 0.78017 0.0
H544 H 0.96606 0.70888 0.81695 0.0
H545 H 0.12466 0.68953 0.8053 0.0
C546 C 0.08936 0.51178 0.72489 0.0
C547 C 0.05055 0.47724 0.7135 0.0
C548 C 1.00124 0.48831 0.72242 0.0
C549 C 0.99032 0.53432 0.74157 0.0
C550 C 1.02935 0.5682 0.75202 0.0
C551 C 0.07801 0.55674 0.74469 0.0
C552 C 0.11323 0.5977 0.76077 0.0
C553 C 0.14811 0.56858 0.78479 0.0
C554 C 0.14256 0.63035 0.73535 0.0
C555 C 0.07677 0.6342 0.77821 0.0
C556 C 1.02856 0.61704 0.7722 0.0
C557 C 0.98831 0.6444 0.78523 0.0
C558 C 0.9975 0.68909 0.80594 0.0
C559 C 1.04662 0.70557 0.81407 0.0
C560 C 0.08672 0.67827 0.79942 0.0
H561 H 0.61063 0.34231 0.31306 0.0
H562 H 0.4509 0.33175 0.32208 0.0
H563 H 0.44187 0.40782 0.2826 0.0
H564 H 0.61751 0.48569 0.3118 0.0
H565 H 0.66783 0.48936 0.28347 0.0
H566 H 0.66112 0.4302 0.30924 0.0
H567 H 0.65912 0.36625 0.25898 0.0
H568 H 0.66639 0.42523 0.23303 0.0
H569 H 0.61481 0.37866 0.22692 0.0
H570 H 0.45168 0.49066 0.24409 0.0
H571 H 0.47924 0.56886 0.21009 0.0
H572 H 0.63229 0.52596 0.2302 0.0
C573 C 0.57363 0.35487 0.30612 0.0
C574 C 0.53143 0.33047 0.32033 0.0
C575 C 0.48377 0.34935 0.3112 0.0
C576 C 0.4783 0.39269 0.28887 0.0
C577 C 0.52087 0.41693 0.276 0.0
C578 C 0.56759 0.39833 0.28428 0.0
C579 C 0.60766 0.43319 0.26893 0.0
C580 C 0.64043 0.46127 0.29491 0.0
C581 C 0.63882 0.39878 0.24557 0.0
C582 C 0.57639 0.47457 0.25083 0.0
C583 C 0.52641 0.46463 0.25492 0.0
C584 C 0.49081 0.49852 0.24066 0.0
C585 C 0.50684 0.5432 0.22154 0.0
C586 C 0.55806 0.55389 0.21695 0.0
C587 C 0.59287 0.51893 0.23224 0.0
H588 H 0.50698 0.84429 0.23119 0.0
H589 H 0.66669 0.83752 0.22171 0.0
H590 H 0.67579 0.91355 0.26133 0.0
H591 H 0.49954 0.98837 0.23389 0.0
H592 H 0.4496 0.98983 0.26255 0.0
H593 H 0.45617 0.93171 0.236 0.0
H594 H 0.45897 0.8662 0.28546 0.0
H595 H 0.45193 0.92412 0.31218 0.0
H596 H 0.5037 0.87858 0.31741 0.0
H597 H 0.6663 0.99523 0.30034 0.0
H598 H 0.6392 0.07147 0.33563 0.0
H599 H 0.48591 0.02543 0.31661 0.0
C600 C 0.54398 0.85783 0.23797 0.0
C601 C 0.58617 0.8344 0.22361 0.0
C602 C 0.63383 0.85441 0.23263 0.0
C603 C 0.63934 0.89774 0.25506 0.0
C604 C 0.59683 0.92083 0.26817 0.0
C605 C 0.55008 0.90126 0.26 0.0
C606 C 0.51013 0.93467 0.27604 0.0
C607 C 0.47692 0.96281 0.2506 0.0
C608 C 0.47938 0.89874 0.29915 0.0
C609 C 0.54153 0.97626 0.29447 0.0
C610 C 0.59145 0.96775 0.28982 0.0
C611 C 0.62723 1.00199 0.30421 0.0
C612 C 0.61148 0.04553 0.32407 0.0
C613 C 0.56036 0.05466 0.32935 0.0
C614 C 0.52529 0.01943 0.31394 0.0
H615 H 0.12884 1.01363 0.82638 0.0
H616 H 0.97558 0.9615 0.83541 0.0
H617 H 0.94942 0.04185 0.80267 0.0
H618 H 0.10835 0.16026 0.83144 0.0
H619 H 0.15517 0.17648 0.80201 0.0
H620 H 0.16114 0.11611 0.82696 0.0
H621 H 0.16812 0.05516 0.77568 0.0
H622 H 0.1629 0.11539 0.75067 0.0
H623 H 0.12049 0.0585 0.74485 0.0
H624 H 0.941 0.12861 0.76763 0.0
H625 H 0.95164 0.20629 0.72955 0.0
H626 H 0.11073 0.20054 0.74473 0.0
C627 C 0.08967 0.01933 0.82189 0.0
C628 C 0.05422 0.98138 0.8338 0.0
C629 C 1.00344 0.98978 0.82648 0.0
C630 C 0.98825 0.03563 0.80815 0.0
C631 C 1.0243 0.07267 0.79724 0.0
C632 C 0.07402 0.06454 0.80367 0.0
C633 C 0.10589 0.1084 0.78797 0.0
C634 C 0.13431 0.14231 0.81363 0.0
C635 C 0.14142 0.08283 0.76333 0.0
C636 C 0.0665 0.14245 0.77134 0.0
C637 C 1.01956 0.12171 0.77719 0.0
C638 C 0.9776 0.1453 0.76314 0.0
C639 C 0.98397 0.18979 0.74171 0.0
C640 C 1.03199 0.21001 0.73433 0.0
C641 C 0.07347 0.18675 0.75016 0.0
H642 H 0.46814 0.01982 0.73435 0.0
H643 H 0.61699 0.95628 0.72623 0.0
H644 H 0.64872 0.03351 0.76002 0.0
H645 H 0.49929 0.16383 0.73127 0.0
H646 H 0.45398 0.18339 0.76082 0.0
H647 H 0.44324 0.12377 0.73572 0.0
H648 H 0.43184 0.06323 0.78681 0.0
H649 H 0.44179 0.12282 0.812 0.0
H650 H 0.47968 0.06288 0.81759 0.0
H651 H 0.66392 0.11937 0.79415 0.0
H652 H 0.66054 0.19927 0.8309 0.0
H653 H 0.50103 0.20556 0.81763 0.0
C654 C 0.50748 0.02227 0.73955 0.0
C655 C 0.54021 0.98214 0.72741 0.0
C656 C 0.59125 0.98628 0.73537 0.0
C657 C 0.60959 0.0303 0.75431 0.0
C658 C 0.57635 0.06965 0.76538 0.0
C659 C 0.52623 0.06552 0.75866 0.0
C660 C 0.4979 0.11173 0.77459 0.0
C661 C 0.47208 0.14781 0.74907 0.0
C662 C 0.46061 0.08878 0.79921 0.0
C663 C 0.53985 0.14277 0.79134 0.0
C664 C 0.58488 0.11817 0.78545 0.0
C665 C 0.62884 0.13888 0.79885 0.0
C666 C 0.62654 0.18464 0.81957 0.0
C667 C 0.58058 0.20925 0.82703 0.0
C668 C 0.53686 0.18846 0.81209 0.0
H669 H 0.1294 0.03001 0.23647 0.0
H670 H 0.98084 0.07935 0.20847 0.0
H671 H 0.94648 1.00089 0.23917 0.0
H672 H 0.10742 0.88196 0.23157 0.0
H673 H 0.14671 0.86798 0.26608 0.0
H674 H 0.1594 0.92659 0.2407 0.0
H675 H 0.15609 0.99075 0.29078 0.0
H676 H 0.14368 0.93238 0.31627 0.0
H677 H 0.10187 0.98972 0.31596 0.0
H678 H 0.92829 0.91911 0.27647 0.0
H679 H 0.92857 0.84407 0.31703 0.0
H680 H 0.08925 0.84687 0.31778 0.0
C681 C 0.08967 0.02417 0.23608 0.0
C682 C 0.05805 0.06149 0.21974 0.0
C683 C 1.0061 0.05211 0.22089 0.0
C684 C 0.98617 1.00723 0.23812 0.0
C685 C 1.01854 0.97154 0.25397 0.0
C686 C 0.06923 0.97956 0.25295 0.0
C687 C 0.09619 0.93681 0.27298 0.0
C688 C 0.12939 0.90123 0.25155 0.0
C689 C 0.1262 0.96405 0.30063 0.0
C690 C 0.05279 0.90382 0.28588 0.0
C691 C 1.00822 0.92424 0.27462 0.0
C692 C 0.96305 0.90238 0.28501 0.0
C693 C 0.96354 0.85957 0.30798 0.0
C694 C 1.00887 0.83882 0.32026 0.0
C695 C 0.05392 0.86073 0.30838 0.0
H696 H 0.04892 0.52875 0.95948 0.0
H697 H 0.04754 0.6954 0.99621 0.0
H698 H 0.06013 0.66116 0.05198 0.0
H699 H 0.98351 0.46665 1.0244 0.0
H700 H 1.01969 0.40475 1.02503 0.0
H701 H 1.01259 0.44277 0.98792 0.0
H702 H 0.10822 0.44961 0.9829 0.0
H703 H 0.11553 0.41198 1.02021 0.0
H704 H 0.14432 0.47865 1.01576 0.0
H705 H 0.06598 0.609 0.10346 0.0
H706 H 0.06671 0.54083 0.14811 0.0
H707 H 0.06889 0.40856 0.07789 0.0
C708 C 0.05147 0.55755 0.97943 0.0
C709 C 0.04751 0.61436 0.97407 0.0
C710 C 0.0509 0.65165 1.00031 0.0
C711 C 0.05809 0.63264 0.03187 0.0
C712 C 0.06224 0.57629 0.03654 0.0
C713 C 0.0593 0.5392 1.01112 0.0
C714 C 0.06393 0.48071 1.02302 0.0
C715 C 1.01714 0.44675 1.0146 0.0
C716 C 0.11079 0.45366 1.00967 0.0
C717 C 0.06855 0.49084 0.05906 0.0
C718 C 0.06764 0.54624 0.06635 0.0
C719 C 0.06766 0.5655 0.09815 0.0
C720 C 0.068 0.52684 0.12323 0.0
C721 C 0.06884 0.47007 0.11616 0.0
C722 C 0.06983 0.45196 0.08375 0.0
H723 H 0.54328 0.52496 0.61215 0.0
H724 H 0.45333 0.65632 0.57286 0.0
H725 H 0.43853 0.60245 0.52341 0.0
H726 H 0.60709 0.50069 0.54505 0.0
H727 H 0.61068 0.42697 0.54871 0.0
H728 H 0.60334 0.4684 0.58427 0.0
H729 H 0.52466 0.41296 0.59915 0.0
H730 H 0.53065 0.37122 0.56329 0.0
H731 H 0.47402 0.40777 0.57055 0.0
H732 H 0.44776 0.54366 0.47411 0.0
H733 H 0.47939 0.48335 0.43034 0.0
H734 H 0.56483 0.3926 0.50096 0.0
C735 C 0.51934 0.54172 0.59353 0.0
C736 C 0.4996 0.59492 0.59653 0.0
C737 C 0.46839 0.61542 0.57155 0.0
C738 C 0.45977 0.58504 0.5432 0.0
C739 C 0.48205 0.53392 0.54032 0.0
C740 C 0.51064 0.51203 0.56506 0.0
C741 C 0.53579 0.45982 0.55451 0.0
C742 C 0.59255 0.46431 0.55835 0.0
C743 C 0.51505 0.40996 0.57297 0.0
C744 C 0.52008 0.45823 0.51933 0.0
C745 C 0.48786 0.50026 0.51172 0.0
C746 C 0.47203 0.50983 0.47991 0.0
C747 C 0.49021 0.47593 0.45526 0.0
C748 C 0.52431 0.43418 0.46277 0.0
C749 C 0.53848 0.42448 0.4951 0.0
H750 H 0.63982 0.11857 0.97754 0.0
H751 H 0.56452 0.0178 0.90598 0.0
H752 H 0.578 0.93591 0.93967 0.0
H753 H 0.7234 0.99291 1.01437 0.0
H754 H 0.71826 0.02754 0.05277 0.0
H755 H 0.72419 0.06656 1.01573 0.0
H756 H 0.64293 0.11793 0.03388 0.0
H757 H 0.63668 0.07392 0.06831 0.0
H758 H 0.587 0.07792 0.03891 0.0
H759 H 0.56614 0.87988 0.98652 0.0
H760 H 0.5429 0.84793 0.04078 0.0
H761 H 0.62915 0.97901 0.08466 0.0
C762 C 0.62945 0.07848 0.96821 0.0
C763 C 0.60106 0.07394 0.9395 0.0
C764 C 0.58628 0.02161 0.92805 0.0
C765 C 0.59406 0.97495 0.947 0.0
C766 C 0.61727 0.98143 0.97708 0.0
C767 C 0.63659 0.03158 0.98724 0.0
C768 C 0.65085 0.02995 1.02286 0.0
C769 C 0.70751 0.02921 1.02674 0.0
C770 C 0.62796 0.07771 0.04207 0.0
C771 C 0.62865 0.97499 0.03222 0.0
C772 C 0.61161 0.94664 1.00512 0.0
C773 C 0.58162 0.90004 1.00772 0.0
C774 C 0.56833 0.88231 0.03855 0.0
C775 C 0.58566 0.91034 0.06642 0.0
C776 C 0.61699 0.95643 0.06339 0.0
H777 H 1.03204 0.03288 0.4398 0.0
H778 H 0.92078 0.91012 0.46356 0.0
H779 H 0.89345 0.9667 0.50874 0.0
H780 H 0.07724 0.0481 0.50968 0.0
H781 H 0.08828 0.1213 0.51099 0.0
H782 H 0.08497 0.08679 0.47276 0.0
H783 H 1.015 0.15128 0.45348 0.0
H784 H 1.01835 0.18714 0.49171 0.0
H785 H 0.96013 0.15877 0.47756 0.0
H786 H 0.90056 1.01305 0.56142 0.0
H787 H 0.93335 0.05599 0.61197 0.0
H788 H 1.03984 0.14862 0.55629 0.0
C789 C 1.0006 0.01914 0.45377 0.0
C790 C 0.97943 0.96669 0.44841 0.0
C791 C 0.93792 0.95008 0.46691 0.0
C792 C 0.92209 0.98197 0.49294 0.0
C793 C 0.94764 0.03051 0.49998 0.0
C794 C 0.98498 0.05021 0.48018 0.0
C795 C 1.01265 0.09767 0.49597 0.0
C796 C 0.06905 0.08776 0.49745 0.0
C797 C 1.0008 0.15194 0.47865 0.0
C798 C 0.98977 0.0962 0.5292 0.0
C799 C 0.95092 0.0588 0.53075 0.0
C800 C 0.92948 0.04407 0.56025 0.0
C801 C 0.94854 0.06781 0.58879 0.0
C802 C 0.98884 0.10484 0.58734 0.0
C803 C 1.0086 0.12042 0.55733 0.0
loop_
_geom_bond_atom_site_label_1
_geom_bond_atom_site_label_2
_geom_bond_distance
_geom_bond_site_symmetry_2
_ccdc_geom_bond_type
Co0 N4 2.148 . S
Co0 N10 2.128 . S
Co0 N20 2.194 1_455 S
Co0 O25 2.351 1_455 S
Co0 O26 2.155 . S
Co0 O27 2.096 . S
C1 N4 1.301 . S
C1 N5 1.328 . S
C1 H6 0.930 1_455 S
C2 C3 1.333 . S
C2 N4 1.317 . S
C2 H7 0.930 . S
C3 C2 1.333 . S
C3 N5 1.350 . S
C3 H29 0.931 . S
N4 Co0 2.148 . S
N4 C1 1.301 . S
N4 C2 1.317 . S
N5 C1 1.328 . S
N5 C3 1.350 . S
H6 C1 0.930 1_655 S
H7 C2 0.930 . S
C8 O9 1.224 . S
C8 O27 1.247 . S
O9 C8 1.224 . S
N10 Co0 2.128 . S
N10 C11 1.355 1_455 S
N10 C13 1.311 . S
C11 N10 1.355 1_655 S
C11 C12 1.363 . S
C11 H23 0.929 . S
C12 C11 1.363 . S
C12 N14 1.375 1_655 S
C12 H30 0.931 . S
C13 N10 1.311 . S
C13 N14 1.347 . S
C13 H24 0.929 . S
N14 C12 1.375 1_455 S
N14 C13 1.347 . S
C15 C18 1.365 . S
C15 N20 1.328 . S
C15 H21 0.929 . S
C16 C17 1.362 . S
C16 C19 1.378 . S
C16 H31 0.929 . S
C17 C16 1.362 . S
C17 C18 1.366 . S
C18 C15 1.365 . S
C18 C17 1.366 . S
C18 H32 0.930 . S
C19 C16 1.378 . S
C19 N20 1.315 . S
C19 H22 0.930 . S
N20 Co0 2.194 1_655 S
N20 C15 1.328 . S
N20 C19 1.315 . S
H21 C15 0.929 . S
H22 C19 0.930 . S
H23 C11 0.929 . S
H24 C13 0.929 . S
O25 Co0 2.351 1_655 S
O25 C28 1.244 1_655 S
O26 Co0 2.155 . S
O26 C28 1.240 . S
O27 Co0 2.096 . S
O27 C8 1.247 . S
C28 O25 1.244 1_455 S
C28 O26 1.240 . S
H29 C3 0.931 . S
H30 C12 0.931 . S
H31 C16 0.929 . S
H32 C18 0.930 . S
Co33 N37 2.148 . S
Co33 N43 2.128 . S
Co33 N53 2.194 . S
Co33 O58 2.351 . S
Co33 O59 2.155 . S
Co33 O60 2.096 . S
C34 N37 1.301 . S
C34 N38 1.328 . S
C34 H39 0.930 . S
C35 C36 1.333 . S
C35 N37 1.317 . S
C35 H40 0.930 . S
C36 C35 1.333 . S
C36 N38 1.350 . S
C36 H62 0.931 . S
N37 Co33 2.148 . S
N37 C34 1.301 . S
N37 C35 1.317 . S
N38 C34 1.328 . S
N38 C36 1.350 . S
H39 C34 0.930 . S
H40 C35 0.930 . S
C41 O42 1.224 . S
C41 O60 1.247 . S
O42 C41 1.224 . S
N43 Co33 2.128 . S
N43 C44 1.355 . S
N43 C46 1.311 . S
C44 N43 1.355 . S
C44 C45 1.363 . S
C44 H56 0.929 . S
C45 C44 1.363 . S
C45 N47 1.375 . S
C45 H63 0.931 . S
C46 N43 1.311 . S
C46 N47 1.347 . S
C46 H57 0.929 . S
N47 C45 1.375 . S
N47 C46 1.347 . S
C48 C51 1.365 . S
C48 N53 1.328 . S
C48 H54 0.929 . S
C49 C50 1.362 . S
C49 C52 1.378 . S
C49 H64 0.929 . S
C50 C49 1.362 . S
C50 C51 1.366 . S
C51 C48 1.365 . S
C51 C50 1.366 . S
C51 H65 0.930 . S
C52 C49 1.378 . S
C52 N53 1.315 . S
C52 H55 0.930 . S
N53 Co33 2.194 . S
N53 C48 1.328 . S
N53 C52 1.315 . S
H54 C48 0.929 . S
H55 C52 0.930 . S
H56 C44 0.929 . S
H57 C46 0.929 . S
O58 Co33 2.351 . S
O58 C61 1.244 . S
O59 Co33 2.155 . S
O59 C61 1.240 . S
O60 Co33 2.096 . S
O60 C41 1.247 . S
C61 O58 1.244 . S
C61 O59 1.240 . S
H62 C36 0.931 . S
H63 C45 0.931 . S
H64 C49 0.929 . S
H65 C51 0.930 . S
Co66 N70 2.148 . S
Co66 N76 2.128 . S
Co66 N86 2.194 1_455 S
Co66 O91 2.351 1_455 S
Co66 O92 2.155 . S
Co66 O93 2.096 . S
C67 N70 1.301 . S
C67 N71 1.328 . S
C67 H72 0.930 1_455 S
C68 C69 1.333 . S
C68 N70 1.317 . S
C68 H73 0.930 . S
C69 C68 1.333 . S
C69 N71 1.350 . S
C69 H95 0.931 . S
N70 Co66 2.148 . S
N70 C67 1.301 . S
N70 C68 1.317 . S
N71 C67 1.328 . S
N71 C69 1.350 . S
H72 C67 0.930 1_655 S
H73 C68 0.930 . S
C74 O75 1.224 . S
C74 O93 1.247 . S
O75 C74 1.224 . S
N76 Co66 2.128 . S
N76 C77 1.355 1_455 S
N76 C79 1.311 . S
C77 N76 1.355 1_655 S
C77 C78 1.363 . S
C77 H89 0.929 . S
C78 C77 1.363 . S
C78 N80 1.375 1_655 S
C78 H96 0.931 . S
C79 N76 1.311 . S
C79 N80 1.347 . S
C79 H90 0.929 . S
N80 C78 1.375 1_455 S
N80 C79 1.347 . S
C81 C84 1.365 . S
C81 N86 1.328 . S
C81 H87 0.929 . S
C82 C83 1.362 . S
C82 C85 1.378 . S
C82 H97 0.929 . S
C83 C82 1.362 . S
C83 C84 1.366 . S
C84 C81 1.365 . S
C84 C83 1.366 . S
C84 H98 0.930 . S
C85 C82 1.378 . S
C85 N86 1.315 . S
C85 H88 0.930 . S
N86 Co66 2.194 1_655 S
N86 C81 1.328 . S
N86 C85 1.315 . S
H87 C81 0.929 . S
H88 C85 0.930 . S
H89 C77 0.929 . S
H90 C79 0.929 . S
O91 Co66 2.351 1_655 S
O91 C94 1.244 1_655 S
O92 Co66 2.155 . S
O92 C94 1.240 . S
O93 Co66 2.096 . S
O93 C74 1.247 . S
C94 O91 1.244 1_455 S
C94 O92 1.240 . S
H95 C69 0.931 . S
H96 C78 0.931 . S
H97 C82 0.929 . S
H98 C84 0.930 . S
Co99 N103 2.148 . S
Co99 N109 2.128 . S
Co99 N119 2.194 . S
Co99 O124 2.351 . S
Co99 O125 2.155 . S
Co99 O126 2.096 . S
C100 N103 1.301 . S
C100 N104 1.328 . S
C100 H105 0.930 . S
C101 C102 1.333 . S
C101 N103 1.317 . S
C101 H106 0.930 . S
C102 C101 1.333 . S
C102 N104 1.350 . S
C102 H128 0.931 . S
N103 Co99 2.148 . S
N103 C100 1.301 . S
N103 C101 1.317 . S
N104 C100 1.328 . S
N104 C102 1.350 . S
H105 C100 0.930 . S
H106 C101 0.930 . S
C107 O108 1.224 . S
C107 O126 1.247 . S
O108 C107 1.224 . S
N109 Co99 2.128 . S
N109 C110 1.355 . S
N109 C112 1.311 . S
C110 N109 1.355 . S
C110 C111 1.363 . S
C110 H122 0.929 . S
C111 C110 1.363 . S
C111 N113 1.375 . S
C111 H129 0.931 . S
C112 N109 1.311 . S
C112 N113 1.347 . S
C112 H123 0.929 . S
N113 C111 1.375 . S
N113 C112 1.347 . S
C114 C117 1.365 . S
C114 N119 1.328 . S
C114 H120 0.929 . S
C115 C116 1.362 . S
C115 C118 1.378 . S
C115 H130 0.929 . S
C116 C115 1.362 . S
C116 C117 1.366 . S
C117 C114 1.365 . S
C117 C116 1.366 . S
C117 H131 0.930 . S
C118 C115 1.378 . S
C118 N119 1.315 . S
C118 H121 0.930 . S
N119 Co99 2.194 . S
N119 C114 1.328 . S
N119 C118 1.315 . S
H120 C114 0.929 . S
H121 C118 0.930 . S
H122 C110 0.929 . S
H123 C112 0.929 . S
O124 Co99 2.351 . S
O124 C127 1.244 . S
O125 Co99 2.155 . S
O125 C127 1.240 . S
O126 Co99 2.096 . S
O126 C107 1.247 . S
C127 O124 1.244 . S
C127 O125 1.240 . S
H128 C102 0.931 . S
H129 C111 0.931 . S
H130 C115 0.929 . S
H131 C117 0.930 . S
Co132 N136 2.148 . S
Co132 N142 2.128 . S
Co132 N152 2.194 . S
Co132 O157 2.351 . S
Co132 O158 2.155 . S
Co132 O159 2.096 . S
C133 N136 1.301 . S
C133 N137 1.328 . S
C133 H138 0.930 . S
C134 C135 1.333 . S
C134 N136 1.317 . S
C134 H139 0.930 . S
C135 C134 1.333 . S
C135 N137 1.350 . S
C135 H161 0.931 . S
N136 Co132 2.148 . S
N136 C133 1.301 . S
N136 C134 1.317 . S
N137 C133 1.328 . S
N137 C135 1.350 . S
H138 C133 0.930 . S
H139 C134 0.930 . S
C140 O141 1.224 . S
C140 O159 1.247 . S
O141 C140 1.224 . S
N142 Co132 2.128 . S
N142 C143 1.355 . S
N142 C145 1.311 . S
C143 N142 1.355 . S
C143 C144 1.363 . S
C143 H155 0.929 . S
C144 C143 1.363 . S
C144 N146 1.375 . S
C144 H162 0.931 . S
C145 N142 1.311 . S
C145 N146 1.347 . S
C145 H156 0.929 . S
N146 C144 1.375 . S
N146 C145 1.347 . S
C147 C150 1.365 . S
C147 N152 1.328 . S
C147 H153 0.929 . S
C148 C149 1.362 . S
C148 C151 1.378 . S
C148 H163 0.929 . S
C149 C148 1.362 . S
C149 C150 1.366 . S
C150 C147 1.365 . S
C150 C149 1.366 . S
C150 H164 0.930 . S
C151 C148 1.378 . S
C151 N152 1.315 . S
C151 H154 0.930 . S
N152 Co132 2.194 . S
N152 C147 1.328 . S
N152 C151 1.315 . S
H153 C147 0.929 . S
H154 C151 0.930 . S
H155 C143 0.929 . S
H156 C145 0.929 . S
O157 Co132 2.351 . S
O157 C160 1.244 . S
O158 Co132 2.155 . S
O158 C160 1.240 . S
O159 Co132 2.096 . S
O159 C140 1.247 . S
C160 O157 1.244 . S
C160 O158 1.240 . S
H161 C135 0.931 . S
H162 C144 0.931 . S
H163 C148 0.929 . S
H164 C150 0.930 . S
Co165 N169 2.148 . S
Co165 N175 2.128 . S
Co165 N185 2.194 1_655 S
Co165 O190 2.351 1_655 S
Co165 O191 2.155 . S
Co165 O192 2.096 . S
C166 N169 1.301 1_455 S
C166 N170 1.328 1_455 S
C166 H171 0.930 . S
C167 C168 1.333 . S
C167 N169 1.317 . S
C167 H172 0.930 . S
C168 C167 1.333 . S
C168 N170 1.350 . S
C168 H194 0.931 . S
N169 Co165 2.148 . S
N169 C166 1.301 1_655 S
N169 C167 1.317 . S
N170 C166 1.328 1_655 S
N170 C168 1.350 . S
H171 C166 0.930 . S
H172 C167 0.930 . S
C173 O174 1.224 . S
C173 O192 1.247 . S
O174 C173 1.224 . S
N175 Co165 2.128 . S
N175 C176 1.355 1_655 S
N175 C178 1.311 . S
C176 N175 1.355 1_455 S
C176 C177 1.363 . S
C176 H188 0.929 . S
C177 C176 1.363 . S
C177 N179 1.375 1_455 S
C177 H195 0.931 . S
C178 N175 1.311 . S
C178 N179 1.347 . S
C178 H189 0.929 . S
N179 C177 1.375 1_655 S
N179 C178 1.347 . S
C180 C183 1.365 . S
C180 N185 1.328 . S
C180 H186 0.929 . S
C181 C182 1.362 . S
C181 C184 1.378 . S
C181 H196 0.929 . S
C182 C181 1.362 . S
C182 C183 1.366 . S
C183 C180 1.365 . S
C183 C182 1.366 . S
C183 H197 0.930 . S
C184 C181 1.378 . S
C184 N185 1.315 . S
C184 H187 0.930 . S
N185 Co165 2.194 1_455 S
N185 C180 1.328 . S
N185 C184 1.315 . S
H186 C180 0.929 . S
H187 C184 0.930 . S
H188 C176 0.929 . S
H189 C178 0.929 . S
O190 Co165 2.351 1_455 S
O190 C193 1.244 1_455 S
O191 Co165 2.155 . S
O191 C193 1.240 . S
O192 Co165 2.096 . S
O192 C173 1.247 . S
C193 O190 1.244 1_655 S
C193 O191 1.240 . S
H194 C168 0.931 . S
H195 C177 0.931 . S
H196 C181 0.929 . S
H197 C183 0.930 . S
Co198 N202 2.148 . S
Co198 N208 2.128 . S
Co198 N218 2.194 . S
Co198 O223 2.351 . S
Co198 O224 2.155 . S
Co198 O225 2.096 . S
C199 N202 1.301 . S
C199 N203 1.328 . S
C199 H204 0.930 . S
C200 C201 1.333 . S
C200 N202 1.317 . S
C200 H205 0.930 . S
C201 C200 1.333 . S
C201 N203 1.350 . S
C201 H227 0.931 . S
N202 Co198 2.148 . S
N202 C199 1.301 . S
N202 C200 1.317 . S
N203 C199 1.328 . S
N203 C201 1.350 . S
H204 C199 0.930 . S
H205 C200 0.930 . S
C206 O207 1.224 . S
C206 O225 1.247 . S
O207 C206 1.224 . S
N208 Co198 2.128 . S
N208 C209 1.355 . S
N208 C211 1.311 . S
C209 N208 1.355 . S
C209 C210 1.363 . S
C209 H221 0.929 . S
C210 C209 1.363 . S
C210 N212 1.375 . S
C210 H228 0.931 . S
C211 N208 1.311 . S
C211 N212 1.347 . S
C211 H222 0.929 . S
N212 C210 1.375 . S
N212 C211 1.347 . S
C213 C216 1.365 . S
C213 N218 1.328 . S
C213 H219 0.929 . S
C214 C215 1.362 . S
C214 C217 1.378 . S
C214 H229 0.929 . S
C215 C214 1.362 . S
C215 C216 1.366 . S
C216 C213 1.365 . S
C216 C215 1.366 . S
C216 H230 0.930 . S
C217 C214 1.378 . S
C217 N218 1.315 . S
C217 H220 0.930 . S
N218 Co198 2.194 . S
N218 C213 1.328 . S
N218 C217 1.315 . S
H219 C213 0.929 . S
H220 C217 0.930 . S
H221 C209 0.929 . S
H222 C211 0.929 . S
O223 Co198 2.351 . S
O223 C226 1.244 . S
O224 Co198 2.155 . S
O224 C226 1.240 . S
O225 Co198 2.096 . S
O225 C206 1.247 . S
C226 O223 1.244 . S
C226 O224 1.240 . S
H227 C201 0.931 . S
H228 C210 0.931 . S
H229 C214 0.929 . S
H230 C216 0.930 . S
Co231 N235 2.148 . S
Co231 N241 2.128 . S
Co231 N251 2.194 1_655 S
Co231 O256 2.351 1_655 S
Co231 O257 2.155 . S
Co231 O258 2.096 . S
C232 N235 1.301 1_455 S
C232 N236 1.328 1_455 S
C232 H237 0.930 . S
C233 C234 1.333 . S
C233 N235 1.317 . S
C233 H238 0.930 . S
C234 C233 1.333 . S
C234 N236 1.350 . S
C234 H260 0.931 . S
N235 Co231 2.148 . S
N235 C232 1.301 1_655 S
N235 C233 1.317 . S
N236 C232 1.328 1_655 S
N236 C234 1.350 . S
H237 C232 0.930 . S
H238 C233 0.930 . S
C239 O240 1.224 . S
C239 O258 1.247 . S
O240 C239 1.224 . S
N241 Co231 2.128 . S
N241 C242 1.355 1_655 S
N241 C244 1.311 . S
C242 N241 1.355 1_455 S
C242 C243 1.363 . S
C242 H254 0.929 . S
C243 C242 1.363 . S
C243 N245 1.375 1_455 S
C243 H261 0.931 . S
C244 N241 1.311 . S
C244 N245 1.347 . S
C244 H255 0.929 . S
N245 C243 1.375 1_655 S
N245 C244 1.347 . S
C246 C249 1.365 . S
C246 N251 1.328 . S
C246 H252 0.929 . S
C247 C248 1.362 . S
C247 C250 1.378 . S
C247 H262 0.929 . S
C248 C247 1.362 . S
C248 C249 1.366 . S
C249 C246 1.365 . S
C249 C248 1.366 . S
C249 H263 0.930 . S
C250 C247 1.378 . S
C250 N251 1.315 . S
C250 H253 0.930 . S
N251 Co231 2.194 1_455 S
N251 C246 1.328 . S
N251 C250 1.315 . S
H252 C246 0.929 . S
H253 C250 0.930 . S
H254 C242 0.929 . S
H255 C244 0.929 . S
O256 Co231 2.351 1_455 S
O256 C259 1.244 1_455 S
O257 Co231 2.155 . S
O257 C259 1.240 . S
O258 Co231 2.096 . S
O258 C239 1.247 . S
C259 O256 1.244 1_655 S
C259 O257 1.240 . S
H260 C234 0.931 . S
H261 C243 0.931 . S
H262 C247 0.929 . S
H263 C249 0.930 . S
H264 C276 0.930 . S
H265 C278 0.930 . S
H266 C279 0.930 1_554 S
H267 C283 0.959 . S
H268 C283 0.959 . S
H269 C283 0.961 . S
H270 C284 0.960 1_556 S
H271 C284 0.961 . S
H272 C284 0.959 . S
H273 C287 0.929 . S
H274 C288 0.931 . S
H275 C290 0.930 . S
C276 H264 0.930 . S
C276 C277 1.399 . S
C276 C281 1.399 . S
C277 C276 1.399 . S
C277 C278 1.376 . S
C278 H265 0.930 . S
C278 C277 1.376 . S
C278 C279 1.388 . S
C279 H266 0.930 1_556 S
C279 C278 1.388 . S
C279 C280 1.386 1_556 S
C280 C279 1.386 1_554 S
C280 C281 1.380 1_554 S
C280 C286 1.481 . S
C281 C276 1.399 . S
C281 C280 1.380 1_556 S
C281 C282 1.516 . S
C282 C281 1.516 . S
C282 C283 1.502 . S
C282 C284 1.561 1_556 S
C282 C285 1.526 1_556 S
C283 H267 0.959 . S
C283 H268 0.959 . S
C283 H269 0.961 . S
C283 C282 1.502 . S
C284 H270 0.960 1_554 S
C284 H271 0.961 . S
C284 H272 0.959 . S
C284 C282 1.561 1_554 S
C285 C282 1.526 1_554 S
C285 C286 1.396 . S
C285 C290 1.390 . S
C286 C280 1.481 . S
C286 C285 1.396 . S
C286 C287 1.399 . S
C287 H273 0.929 . S
C287 C286 1.399 . S
C287 C288 1.385 . S
C288 H274 0.931 . S
C288 C287 1.385 . S
C288 C289 1.389 . S
C289 C288 1.389 . S
C289 C290 1.387 . S
C290 H275 0.930 . S
C290 C285 1.390 . S
C290 C289 1.387 . S
H291 C303 0.930 . S
H292 C305 0.930 . S
H293 C306 0.930 . S
H294 C310 0.959 . S
H295 C310 0.959 . S
H296 C310 0.961 . S
H297 C311 0.960 . S
H298 C311 0.961 . S
H299 C311 0.959 . S
H300 C314 0.929 . S
H301 C315 0.931 . S
H302 C317 0.930 . S
C303 H291 0.930 . S
C303 C304 1.399 . S
C303 C308 1.399 . S
C304 C303 1.399 . S
C304 C305 1.376 . S
C305 H292 0.930 . S
C305 C304 1.376 . S
C305 C306 1.388 . S
C306 H293 0.930 . S
C306 C305 1.388 . S
C306 C307 1.390 . S
C307 C306 1.390 . S
C307 C308 1.394 . S
C307 C313 1.465 . S
C308 C303 1.399 . S
C308 C307 1.394 . S
C308 C309 1.516 . S
C309 C308 1.516 . S
C309 C310 1.502 . S
C309 C311 1.561 . S
C309 C312 1.526 . S
C310 H294 0.959 . S
C310 H295 0.959 . S
C310 H296 0.961 . S
C310 C309 1.502 . S
C311 H297 0.960 . S
C311 H298 0.961 . S
C311 H299 0.959 . S
C311 C309 1.561 . S
C312 C309 1.526 . S
C312 C313 1.396 . S
C312 C317 1.390 . S
C313 C307 1.465 . S
C313 C312 1.396 . S
C313 C314 1.399 . S
C314 H300 0.929 . S
C314 C313 1.399 . S
C314 C315 1.385 . S
C315 H301 0.931 . S
C315 C314 1.385 . S
C315 C316 1.389 . S
C316 C315 1.389 . S
C316 C317 1.387 . S
C317 H302 0.930 . S
C317 C312 1.390 . S
C317 C316 1.387 . S
H318 C330 0.930 . S
H319 C332 0.930 . S
H320 C333 0.930 . S
H321 C337 0.959 1_554 S
H322 C337 0.959 . S
H323 C337 0.961 . S
H324 C338 0.960 . S
H325 C338 0.961 . S
H326 C338 0.959 . S
H327 C341 0.929 . S
H328 C342 0.931 . S
H329 C344 0.930 . S
C330 H318 0.930 . S
C330 C331 1.399 . S
C330 C335 1.399 . S
C331 C330 1.399 . S
C331 C332 1.376 . S
C332 H319 0.930 . S
C332 C331 1.376 . S
C332 C333 1.388 . S
C333 H320 0.930 . S
C333 C332 1.388 . S
C333 C334 1.390 . S
C334 C333 1.390 . S
C334 C335 1.394 . S
C334 C340 1.465 1_554 S
C335 C330 1.399 . S
C335 C334 1.394 . S
C335 C336 1.516 1_554 S
C336 C335 1.516 1_556 S
C336 C337 1.502 . S
C336 C338 1.561 . S
C336 C339 1.526 . S
C337 H321 0.959 1_556 S
C337 H322 0.959 . S
C337 H323 0.961 . S
C337 C336 1.502 . S
C338 H324 0.960 . S
C338 H325 0.961 . S
C338 H326 0.959 . S
C338 C336 1.561 . S
C339 C336 1.526 . S
C339 C340 1.396 . S
C339 C344 1.390 . S
C340 C334 1.465 1_556 S
C340 C339 1.396 . S
C340 C341 1.399 . S
C341 H327 0.929 . S
C341 C340 1.399 . S
C341 C342 1.385 . S
C342 H328 0.931 . S
C342 C341 1.385 . S
C342 C343 1.389 . S
C343 C342 1.389 . S
C343 C344 1.387 . S
C344 H329 0.930 . S
C344 C339 1.390 . S
C344 C343 1.387 . S
H345 C357 0.930 . S
H346 C359 0.930 . S
H347 C360 0.930 . S
H348 C364 0.959 . S
H349 C364 0.959 . S
H350 C364 0.961 . S
H351 C365 0.960 . S
H352 C365 0.961 . S
H353 C365 0.959 . S
H354 C368 0.929 . S
H355 C369 0.931 . S
H356 C371 0.930 . S
C357 H345 0.930 . S
C357 C358 1.399 . S
C357 C362 1.399 . S
C358 C357 1.399 . S
C358 C359 1.376 . S
C359 H346 0.930 . S
C359 C358 1.376 . S
C359 C360 1.388 . S
C360 H347 0.930 . S
C360 C359 1.388 . S
C360 C361 1.390 . S
C361 C360 1.390 . S
C361 C362 1.394 . S
C361 C367 1.465 . S
C362 C357 1.399 . S
C362 C361 1.394 . S
C362 C363 1.516 . S
C363 C362 1.516 . S
C363 C364 1.502 . S
C363 C365 1.561 . S
C363 C366 1.526 . S
C364 H348 0.959 . S
C364 H349 0.959 . S
C364 H350 0.961 . S
C364 C363 1.502 . S
C365 H351 0.960 . S
C365 H352 0.961 . S
C365 H353 0.959 . S
C365 C363 1.561 . S
C366 C363 1.526 . S
C366 C367 1.396 . S
C366 C371 1.390 . S
C367 C361 1.465 . S
C367 C366 1.396 . S
C367 C368 1.399 . S
C368 H354 0.929 . S
C368 C367 1.399 . S
C368 C369 1.385 . S
C369 H355 0.931 . S
C369 C368 1.385 . S
C369 C370 1.389 . S
C370 C369 1.389 . S
C370 C371 1.387 . S
C371 H356 0.930 . S
C371 C366 1.390 . S
C371 C370 1.387 . S
H372 C384 0.930 . S
H373 C386 0.930 . S
H374 C387 0.930 . S
H375 C391 0.959 . S
H376 C391 0.959 . S
H377 C391 0.961 . S
H378 C392 0.960 . S
H379 C392 0.961 . S
H380 C392 0.959 . S
H381 C395 0.929 . S
H382 C396 0.931 . S
H383 C398 0.930 . S
C384 H372 0.930 . S
C384 C385 1.399 . S
C384 C389 1.399 . S
C385 C384 1.399 . S
C385 C386 1.376 . S
C386 H373 0.930 . S
C386 C385 1.376 . S
C386 C387 1.388 . S
C387 H374 0.930 . S
C387 C386 1.388 . S
C387 C388 1.390 . S
C388 C387 1.390 . S
C388 C389 1.394 . S
C388 C394 1.465 . S
C389 C384 1.399 . S
C389 C388 1.394 . S
C389 C390 1.516 1_554 S
C390 C389 1.516 1_556 S
C390 C391 1.502 . S
C390 C392 1.561 . S
C390 C393 1.526 . S
C391 H375 0.959 . S
C391 H376 0.959 . S
C391 H377 0.961 . S
C391 C390 1.502 . S
C392 H378 0.960 . S
C392 H379 0.961 . S
C392 H380 0.959 . S
C392 C390 1.561 . S
C393 C390 1.526 . S
C393 C394 1.396 1_556 S
C393 C398 1.390 . S
C394 C388 1.465 . S
C394 C393 1.396 1_554 S
C394 C395 1.399 . S
C395 H381 0.929 . S
C395 C394 1.399 . S
C395 C396 1.385 1_554 S
C396 H382 0.931 . S
C396 C395 1.385 1_556 S
C396 C397 1.389 . S
C397 C396 1.389 . S
C397 C398 1.387 . S
C398 H383 0.930 . S
C398 C393 1.390 . S
C398 C397 1.387 . S
H399 C411 0.930 . S
H400 C413 0.930 . S
H401 C414 0.930 . S
H402 C418 0.959 . S
H403 C418 0.959 . S
H404 C418 0.961 . S
H405 C419 0.960 . S
H406 C419 0.961 . S
H407 C419 0.959 . S
H408 C422 0.929 . S
H409 C423 0.931 . S
H410 C425 0.930 . S
C411 H399 0.930 . S
C411 C412 1.399 . S
C411 C416 1.399 . S
C412 C411 1.399 . S
C412 C413 1.376 . S
C413 H400 0.930 . S
C413 C412 1.376 . S
C413 C414 1.388 . S
C414 H401 0.930 . S
C414 C413 1.388 . S
C414 C415 1.390 . S
C415 C414 1.390 . S
C415 C416 1.394 . S
C415 C421 1.465 . S
C416 C411 1.399 . S
C416 C415 1.394 . S
C416 C417 1.516 . S
C417 C416 1.516 . S
C417 C418 1.502 . S
C417 C419 1.561 . S
C417 C420 1.526 . S
C418 H402 0.959 . S
C418 H403 0.959 . S
C418 H404 0.961 . S
C418 C417 1.502 . S
C419 H405 0.960 . S
C419 H406 0.961 . S
C419 H407 0.959 . S
C419 C417 1.561 . S
C420 C417 1.526 . S
C420 C421 1.396 . S
C420 C425 1.390 . S
C421 C415 1.465 . S
C421 C420 1.396 . S
C421 C422 1.399 . S
C422 H408 0.929 . S
C422 C421 1.399 . S
C422 C423 1.385 . S
C423 H409 0.931 . S
C423 C422 1.385 . S
C423 C424 1.389 . S
C424 C423 1.389 . S
C424 C425 1.387 . S
C425 H410 0.930 . S
C425 C420 1.390 . S
C425 C424 1.387 . S
H426 C438 0.930 . S
H427 C440 0.930 . S
H428 C441 0.930 . S
H429 C445 0.959 . S
H430 C445 0.959 . S
H431 C445 0.961 . S
H432 C446 0.964 . S
H433 C446 0.961 . S
H434 C446 0.959 1_554 S
H435 C449 0.929 1_554 S
H436 C450 0.931 . S
H437 C452 0.930 . S
C438 H426 0.930 . S
C438 C439 1.399 . S
C438 C443 1.399 . S
C439 C438 1.399 . S
C439 C440 1.376 . S
C440 H427 0.930 . S
C440 C439 1.376 . S
C440 C441 1.388 . S
C441 H428 0.930 . S
C441 C440 1.388 . S
C441 C442 1.390 . S
C442 C441 1.390 . S
C442 C443 1.394 . S
C442 C448 1.465 1_554 S
C443 C438 1.399 . S
C443 C442 1.394 . S
C443 C444 1.516 1_554 S
C444 C443 1.516 1_556 S
C444 C445 1.502 . S
C444 C446 1.561 . S
C444 C447 1.526 . S
C445 H429 0.959 . S
C445 H430 0.959 . S
C445 H431 0.961 . S
C445 C444 1.502 . S
C446 H432 0.964 . S
C446 H433 0.961 . S
C446 H434 0.959 1_556 S
C446 C444 1.561 . S
C447 C444 1.526 . S
C447 C448 1.396 . S
C447 C452 1.390 . S
C448 C442 1.465 1_556 S
C448 C447 1.396 . S
C448 C449 1.399 . S
C449 H435 0.929 1_556 S
C449 C448 1.399 . S
C449 C450 1.385 . S
C450 H436 0.931 . S
C450 C449 1.385 . S
C450 C451 1.389 . S
C451 C450 1.389 . S
C451 C452 1.387 . S
C452 H437 0.930 . S
C452 C447 1.390 . S
C452 C451 1.387 . S
H453 C465 0.930 . S
H454 C467 0.930 . S
H455 C468 0.930 . S
H456 C472 0.959 . S
H457 C472 0.959 . S
H458 C472 0.961 . S
H459 C473 0.960 . S
H460 C473 0.961 . S
H461 C473 0.959 . S
H462 C476 0.929 . S
H463 C477 0.931 . S
H464 C479 0.930 . S
C465 H453 0.930 . S
C465 C466 1.399 . S
C465 C470 1.399 . S
C466 C465 1.399 . S
C466 C467 1.376 . S
C467 H454 0.930 . S
C467 C466 1.376 . S
C467 C468 1.388 . S
C468 H455 0.930 . S
C468 C467 1.388 . S
C468 C469 1.390 . S
C469 C468 1.390 . S
C469 C470 1.394 . S
C469 C475 1.465 . S
C470 C465 1.399 . S
C470 C469 1.394 . S
C470 C471 1.516 . S
C471 C470 1.516 . S
C471 C472 1.502 . S
C471 C473 1.561 . S
C471 C474 1.526 . S
C472 H456 0.959 . S
C472 H457 0.959 . S
C472 H458 0.961 . S
C472 C471 1.502 . S
C473 H459 0.960 . S
C473 H460 0.961 . S
C473 H461 0.959 . S
C473 C471 1.561 . S
C474 C471 1.526 . S
C474 C475 1.396 . S
C474 C479 1.390 . S
C475 C469 1.465 . S
C475 C474 1.396 . S
C475 C476 1.399 . S
C476 H462 0.929 . S
C476 C475 1.399 . S
C476 C477 1.385 . S
C477 H463 0.931 . S
C477 C476 1.385 . S
C477 C478 1.389 . S
C478 C477 1.389 . S
C478 C479 1.387 . S
C479 H464 0.930 . S
C479 C474 1.390 . S
C479 C478 1.387 . S
H480 C492 0.930 . S
H481 C494 0.930 . S
H482 C495 0.930 . S
H483 C499 0.959 . S
H484 C499 0.959 . S
H485 C499 0.961 . S
H486 C500 0.960 . S
H487 C500 0.961 . S
H488 C500 0.959 . S
H489 C503 0.929 . S
H490 C504 0.931 . S
H491 C506 0.930 . S
C492 H480 0.930 . S
C492 C493 1.399 1_655 S
C492 C497 1.399 . S
C493 C492 1.399 1_455 S
C493 C494 1.376 . S
C494 H481 0.930 . S
C494 C493 1.376 . S
C494 C495 1.388 . S
C495 H482 0.930 . S
C495 C494 1.388 . S
C495 C496 1.390 . S
C496 C495 1.390 . S
C496 C497 1.394 1_455 S
C496 C502 1.465 . S
C497 C492 1.399 . S
C497 C496 1.394 1_655 S
C497 C498 1.516 . S
C498 C497 1.516 . S
C498 C499 1.502 . S
C498 C500 1.561 . S
C498 C501 1.526 . S
C499 H483 0.959 . S
C499 H484 0.959 . S
C499 H485 0.961 . S
C499 C498 1.502 . S
C500 H486 0.960 . S
C500 H487 0.961 . S
C500 H488 0.959 . S
C500 C498 1.561 . S
C501 C498 1.526 . S
C501 C502 1.396 1_655 S
C501 C506 1.390 . S
C502 C496 1.465 . S
C502 C501 1.396 1_455 S
C502 C503 1.399 . S
C503 H489 0.929 . S
C503 C502 1.399 . S
C503 C504 1.385 . S
C504 H490 0.931 . S
C504 C503 1.385 . S
C504 C505 1.389 . S
C505 C504 1.389 . S
C505 C506 1.387 1_455 S
C506 H491 0.930 . S
C506 C501 1.390 . S
C506 C505 1.387 1_655 S
H507 C519 0.930 . S
H508 C521 0.930 . S
H509 C522 0.930 . S
H510 C526 0.959 . S
H511 C526 0.959 . S
H512 C526 0.961 . S
H513 C527 0.960 . S
H514 C527 0.961 . S
H515 C527 0.959 . S
H516 C530 0.929 . S
H517 C531 0.931 . S
H518 C533 0.930 . S
C519 H507 0.930 . S
C519 C520 1.399 . S
C519 C524 1.399 . S
C520 C519 1.399 . S
C520 C521 1.376 . S
C521 H508 0.930 . S
C521 C520 1.376 . S
C521 C522 1.388 . S
C522 H509 0.930 . S
C522 C521 1.388 . S
C522 C523 1.390 . S
C523 C522 1.390 . S
C523 C524 1.394 . S
C523 C529 1.465 . S
C524 C519 1.399 . S
C524 C523 1.394 . S
C524 C525 1.516 . S
C525 C524 1.516 . S
C525 C526 1.502 . S
C525 C527 1.561 . S
C525 C528 1.526 . S
C526 H510 0.959 . S
C526 H511 0.959 . S
C526 H512 0.961 . S
C526 C525 1.502 . S
C527 H513 0.960 . S
C527 H514 0.961 . S
C527 H515 0.959 . S
C527 C525 1.561 . S
C528 C525 1.526 . S
C528 C529 1.396 . S
C528 C533 1.390 . S
C529 C523 1.465 . S
C529 C528 1.396 . S
C529 C530 1.399 . S
C530 H516 0.929 . S
C530 C529 1.399 . S
C530 C531 1.385 . S
C531 H517 0.931 . S
C531 C530 1.385 . S
C531 C532 1.389 . S
C532 C531 1.389 . S
C532 C533 1.387 . S
C533 H518 0.930 . S
C533 C528 1.390 . S
C533 C532 1.387 . S
H534 C546 0.930 . S
H535 C548 0.930 . S
H536 C549 0.930 . S
H537 C553 0.959 . S
H538 C553 0.959 . S
H539 C553 0.961 . S
H540 C554 0.960 . S
H541 C554 0.961 . S
H542 C554 0.959 1_655 S
H543 C557 0.929 . S
H544 C558 0.931 . S
H545 C560 0.930 . S
C546 H534 0.930 . S
C546 C547 1.399 1_455 S
C546 C551 1.399 . S
C547 C546 1.399 1_655 S
C547 C548 1.376 . S
C548 H535 0.930 . S
C548 C547 1.376 . S
C548 C549 1.388 . S
C549 H536 0.930 . S
C549 C548 1.388 . S
C549 C550 1.390 . S
C550 C549 1.390 . S
C550 C551 1.394 1_655 S
C550 C556 1.465 . S
C551 C546 1.399 . S
C551 C550 1.394 1_455 S
C551 C552 1.516 . S
C552 C551 1.516 . S
C552 C553 1.502 . S
C552 C554 1.561 . S
C552 C555 1.526 . S
C553 H537 0.959 . S
C553 H538 0.959 . S
C553 H539 0.961 . S
C553 C552 1.502 . S
C554 H540 0.960 . S
C554 H541 0.961 . S
C554 H542 0.959 1_455 S
C554 C552 1.561 . S
C555 C552 1.526 . S
C555 C556 1.396 1_455 S
C555 C560 1.390 . S
C556 C550 1.465 . S
C556 C555 1.396 1_655 S
C556 C557 1.399 . S
C557 H543 0.929 . S
C557 C556 1.399 . S
C557 C558 1.385 . S
C558 H544 0.931 . S
C558 C557 1.385 . S
C558 C559 1.389 1_655 S
C559 C558 1.389 1_455 S
C559 C560 1.387 . S
C560 H545 0.930 . S
C560 C555 1.390 . S
C560 C559 1.387 . S
H561 C573 0.930 . S
H562 C575 0.930 . S
H563 C576 0.930 . S
H564 C580 0.959 . S
H565 C580 0.959 . S
H566 C580 0.961 . S
H567 C581 0.960 . S
H568 C581 0.961 . S
H569 C581 0.959 . S
H570 C584 0.929 . S
H571 C585 0.931 . S
H572 C587 0.930 . S
C573 H561 0.930 . S
C573 C574 1.399 . S
C573 C578 1.399 . S
C574 C573 1.399 . S
C574 C575 1.376 . S
C575 H562 0.930 . S
C575 C574 1.376 . S
C575 C576 1.388 . S
C576 H563 0.930 . S
C576 C575 1.388 . S
C576 C577 1.390 . S
C577 C576 1.390 . S
C577 C578 1.394 . S
C577 C583 1.465 . S
C578 C573 1.399 . S
C578 C577 1.394 . S
C578 C579 1.516 . S
C579 C578 1.516 . S
C579 C580 1.502 . S
C579 C581 1.561 . S
C579 C582 1.526 . S
C580 H564 0.959 . S
C580 H565 0.959 . S
C580 H566 0.961 . S
C580 C579 1.502 . S
C581 H567 0.960 . S
C581 H568 0.961 . S
C581 H569 0.959 . S
C581 C579 1.561 . S
C582 C579 1.526 . S
C582 C583 1.396 . S
C582 C587 1.390 . S
C583 C577 1.465 . S
C583 C582 1.396 . S
C583 C584 1.399 . S
C584 H570 0.929 . S
C584 C583 1.399 . S
C584 C585 1.385 . S
C585 H571 0.931 . S
C585 C584 1.385 . S
C585 C586 1.389 . S
C586 C585 1.389 . S
C586 C587 1.387 . S
C587 H572 0.930 . S
C587 C582 1.390 . S
C587 C586 1.387 . S
H588 C600 0.930 . S
H589 C602 0.930 . S
H590 C603 0.930 . S
H591 C607 0.959 . S
H592 C607 0.959 . S
H593 C607 0.961 . S
H594 C608 0.960 . S
H595 C608 0.961 . S
H596 C608 0.959 . S
H597 C611 0.929 1_565 S
H598 C612 0.931 . S
H599 C614 0.930 . S
C600 H588 0.930 . S
C600 C601 1.399 . S
C600 C605 1.399 . S
C601 C600 1.399 . S
C601 C602 1.376 . S
C602 H589 0.930 . S
C602 C601 1.376 . S
C602 C603 1.388 . S
C603 H590 0.930 . S
C603 C602 1.388 . S
C603 C604 1.390 . S
C604 C603 1.390 . S
C604 C605 1.394 . S
C604 C610 1.465 1_565 S
C605 C600 1.399 . S
C605 C604 1.394 . S
C605 C606 1.516 1_565 S
C606 C605 1.516 1_545 S
C606 C607 1.502 . S
C606 C608 1.561 . S
C606 C609 1.526 . S
C607 H591 0.959 . S
C607 H592 0.959 . S
C607 H593 0.961 . S
C607 C606 1.502 . S
C608 H594 0.960 . S
C608 H595 0.961 . S
C608 H596 0.959 . S
C608 C606 1.561 . S
C609 C606 1.526 . S
C609 C610 1.396 . S
C609 C614 1.390 . S
C610 C604 1.465 1_545 S
C610 C609 1.396 . S
C610 C611 1.399 . S
C611 H597 0.929 1_545 S
C611 C610 1.399 . S
C611 C612 1.385 . S
C612 H598 0.931 . S
C612 C611 1.385 . S
C612 C613 1.389 . S
C613 C612 1.389 . S
C613 C614 1.387 . S
C614 H599 0.930 . S
C614 C609 1.390 . S
C614 C613 1.387 . S
H615 C627 0.930 . S
H616 C629 0.930 . S
H617 C630 0.930 . S
H618 C634 0.959 1_545 S
H619 C634 0.959 1_545 S
H620 C634 0.961 . S
H621 C635 0.960 . S
H622 C635 0.961 . S
H623 C635 0.959 . S
H624 C638 0.929 . S
H625 C639 0.931 . S
H626 C641 0.930 . S
C627 H615 0.930 . S
C627 C628 1.399 . S
C627 C632 1.399 . S
C628 C627 1.399 . S
C628 C629 1.376 1_455 S
C629 H616 0.930 . S
C629 C628 1.376 1_655 S
C629 C630 1.388 . S
C630 H617 0.930 . S
C630 C629 1.388 . S
C630 C631 1.390 . S
C631 C630 1.390 . S
C631 C632 1.394 1_655 S
C631 C637 1.465 1_565 S
C632 C627 1.399 . S
C632 C631 1.394 1_455 S
C632 C633 1.516 . S
C633 C632 1.516 . S
C633 C634 1.502 . S
C633 C635 1.561 . S
C633 C636 1.526 1_565 S
C634 H618 0.959 1_565 S
C634 H619 0.959 1_565 S
C634 H620 0.961 . S
C634 C633 1.502 . S
C635 H621 0.960 . S
C635 H622 0.961 . S
C635 H623 0.959 . S
C635 C633 1.561 . S
C636 C633 1.526 1_545 S
C636 C637 1.396 1_455 S
C636 C641 1.390 . S
C637 C631 1.465 1_545 S
C637 C636 1.396 1_655 S
C637 C638 1.399 . S
C638 H624 0.929 . S
C638 C637 1.399 . S
C638 C639 1.385 . S
C639 H625 0.931 . S
C639 C638 1.385 . S
C639 C640 1.389 . S
C640 C639 1.389 . S
C640 C641 1.387 1_655 S
C641 H626 0.930 . S
C641 C636 1.390 . S
C641 C640 1.387 1_455 S
H642 C654 0.930 . S
H643 C656 0.930 . S
H644 C657 0.930 . S
H645 C661 0.959 . S
H646 C661 0.959 . S
H647 C661 0.961 . S
H648 C662 0.960 . S
H649 C662 0.961 . S
H650 C662 0.959 . S
H651 C665 0.929 1_565 S
H652 C666 0.931 . S
H653 C668 0.930 . S
C654 H642 0.930 . S
C654 C655 1.399 . S
C654 C659 1.399 . S
C655 C654 1.399 . S
C655 C656 1.376 . S
C656 H643 0.930 . S
C656 C655 1.376 . S
C656 C657 1.388 . S
C657 H644 0.930 . S
C657 C656 1.388 . S
C657 C658 1.390 . S
C658 C657 1.390 . S
C658 C659 1.394 . S
C658 C664 1.465 1_565 S
C659 C654 1.399 . S
C659 C658 1.394 . S
C659 C660 1.516 1_565 S
C660 C659 1.516 1_545 S
C660 C661 1.502 . S
C660 C662 1.561 . S
C660 C663 1.526 . S
C661 H645 0.959 . S
C661 H646 0.959 . S
C661 H647 0.961 . S
C661 C660 1.502 . S
C662 H648 0.960 . S
C662 H649 0.961 . S
C662 H650 0.959 . S
C662 C660 1.561 . S
C663 C660 1.526 . S
C663 C664 1.396 . S
C663 C668 1.390 . S
C664 C658 1.465 1_545 S
C664 C663 1.396 . S
C664 C665 1.399 . S
C665 H651 0.929 1_545 S
C665 C664 1.399 . S
C665 C666 1.385 . S
C666 H652 0.931 . S
C666 C665 1.385 . S
C666 C667 1.389 . S
C667 C666 1.389 . S
C667 C668 1.387 . S
C668 H653 0.930 . S
C668 C663 1.390 . S
C668 C667 1.387 . S
H669 C681 0.930 . S
H670 C683 0.930 . S
H671 C684 0.930 1_565 S
H672 C688 0.959 . S
H673 C688 0.959 . S
H674 C688 0.961 . S
H675 C689 0.960 . S
H676 C689 0.961 . S
H677 C689 0.959 . S
H678 C692 0.929 . S
H679 C693 0.931 . S
H680 C695 0.930 . S
C681 H669 0.930 . S
C681 C682 1.399 . S
C681 C686 1.401 . S
C682 C681 1.399 . S
C682 C683 1.376 . S
C683 H670 0.930 . S
C683 C682 1.376 . S
C683 C684 1.388 . S
C684 H671 0.930 1_545 S
C684 C683 1.388 . S
C684 C685 1.390 . S
C685 C684 1.390 . S
C685 C686 1.394 . S
C685 C691 1.465 1_545 S
C686 C681 1.401 . S
C686 C685 1.394 . S
C686 C687 1.515 1_455 S
C687 C686 1.515 1_655 S
C687 C688 1.502 1_655 S
C687 C689 1.561 . S
C687 C690 1.526 1_545 S
C688 H672 0.959 . S
C688 H673 0.959 . S
C688 H674 0.961 . S
C688 C687 1.502 1_455 S
C689 H675 0.960 . S
C689 H676 0.961 . S
C689 H677 0.959 . S
C689 C687 1.561 . S
C690 C687 1.526 1_565 S
C690 C691 1.396 1_655 S
C690 C695 1.390 . S
C691 C685 1.465 1_565 S
C691 C690 1.396 1_455 S
C691 C692 1.399 . S
C692 H678 0.929 . S
C692 C691 1.399 . S
C692 C693 1.385 . S
C693 H679 0.931 . S
C693 C692 1.385 . S
C693 C694 1.390 . S
C694 C693 1.390 . S
C694 C695 1.386 1_455 S
C695 H680 0.930 . S
C695 C690 1.390 . S
C695 C694 1.386 1_655 S
H696 C708 0.930 . S
H697 C710 0.930 . S
H698 C711 0.930 . S
H699 C715 0.959 . S
H700 C715 0.959 . S
H701 C715 0.961 . S
H702 C716 0.960 . S
H703 C716 0.961 . S
H704 C716 0.959 . S
H705 C719 0.929 . S
H706 C720 0.931 . S
H707 C722 0.930 . S
C708 H696 0.930 . S
C708 C709 1.399 . S
C708 C713 1.399 . S
C709 C708 1.399 . S
C709 C710 1.376 . S
C710 H697 0.930 . S
C710 C709 1.376 . S
C710 C711 1.388 1_556 S
C711 H698 0.930 . S
C711 C710 1.388 1_554 S
C711 C712 1.396 . S
C712 C711 1.396 . S
C712 C713 1.365 1_554 S
C712 C718 1.485 . S
C713 C708 1.399 . S
C713 C712 1.365 1_556 S
C713 C714 1.516 . S
C714 C713 1.516 . S
C714 C715 1.502 1_455 S
C714 C716 1.561 . S
C714 C717 1.526 1_556 S
C715 H699 0.959 . S
C715 H700 0.959 . S
C715 H701 0.961 . S
C715 C714 1.502 1_655 S
C716 H702 0.960 . S
C716 H703 0.961 . S
C716 H704 0.959 . S
C716 C714 1.561 . S
C717 C714 1.526 1_554 S
C717 C718 1.396 . S
C717 C722 1.390 . S
C718 C712 1.485 . S
C718 C717 1.396 . S
C718 C719 1.399 . S
C719 H705 0.929 . S
C719 C718 1.399 . S
C719 C720 1.385 . S
C720 H706 0.931 . S
C720 C719 1.385 . S
C720 C721 1.389 . S
C721 C720 1.389 . S
C721 C722 1.387 . S
C722 H707 0.930 . S
C722 C717 1.390 . S
C722 C721 1.387 . S
H723 C735 0.930 . S
H724 C737 0.930 . S
H725 C738 0.930 . S
H726 C742 0.959 . S
H727 C742 0.959 . S
H728 C742 0.961 . S
H729 C743 0.960 . S
H730 C743 0.961 . S
H731 C743 0.959 . S
H732 C746 0.929 . S
H733 C747 0.931 . S
H734 C749 0.930 . S
C735 H723 0.930 . S
C735 C736 1.399 . S
C735 C740 1.399 . S
C736 C735 1.399 . S
C736 C737 1.376 . S
C737 H724 0.930 . S
C737 C736 1.376 . S
C737 C738 1.388 . S
C738 H725 0.930 . S
C738 C737 1.388 . S
C738 C739 1.390 . S
C739 C738 1.390 . S
C739 C740 1.394 . S
C739 C745 1.465 . S
C740 C735 1.399 . S
C740 C739 1.394 . S
C740 C741 1.516 . S
C741 C740 1.516 . S
C741 C742 1.502 . S
C741 C743 1.561 . S
C741 C744 1.526 . S
C742 H726 0.959 . S
C742 H727 0.959 . S
C742 H728 0.961 . S
C742 C741 1.502 . S
C743 H729 0.960 . S
C743 H730 0.961 . S
C743 H731 0.959 . S
C743 C741 1.561 . S
C744 C741 1.526 . S
C744 C745 1.396 . S
C744 C749 1.390 . S
C745 C739 1.465 . S
C745 C744 1.396 . S
C745 C746 1.399 . S
C746 H732 0.929 . S
C746 C745 1.399 . S
C746 C747 1.385 . S
C747 H733 0.931 . S
C747 C746 1.385 . S
C747 C748 1.389 . S
C748 C747 1.389 . S
C748 C749 1.387 . S
C749 H734 0.930 . S
C749 C744 1.390 . S
C749 C748 1.387 . S
H750 C762 0.930 . S
H751 C764 0.930 . S
H752 C765 0.920 1_565 S
H753 C769 0.959 . S
H754 C769 0.959 . S
H755 C769 0.961 . S
H756 C770 0.960 . S
H757 C770 0.961 . S
H758 C770 0.959 . S
H759 C773 0.903 1_556 S
H760 C774 0.931 . S
H761 C776 0.930 . S
C762 H750 0.930 . S
C762 C763 1.399 . S
C762 C767 1.399 . S
C763 C762 1.399 . S
C763 C764 1.376 . S
C764 H751 0.930 . S
C764 C763 1.376 . S
C764 C765 1.388 . S
C765 H752 0.920 1_545 S
C765 C764 1.388 . S
C765 C766 1.390 . S
C766 C765 1.390 . S
C766 C767 1.394 . S
C766 C772 1.465 1_546 S
C767 C762 1.399 . S
C767 C766 1.394 . S
C767 C768 1.516 1_556 S
C768 C767 1.516 1_554 S
C768 C769 1.502 . S
C768 C770 1.561 . S
C768 C771 1.526 1_545 S
C769 H753 0.959 . S
C769 H754 0.959 . S
C769 H755 0.961 . S
C769 C768 1.502 . S
C770 H756 0.960 . S
C770 H757 0.961 . S
C770 H758 0.959 . S
C770 C768 1.561 . S
C771 C768 1.526 1_565 S
C771 C772 1.396 . S
C771 C776 1.390 . S
C772 C766 1.465 1_564 S
C772 C771 1.396 . S
C772 C773 1.401 . S
C773 H759 0.903 1_554 S
C773 C772 1.401 . S
C773 C774 1.411 . S
C774 H760 0.931 . S
C774 C773 1.411 . S
C774 C775 1.389 . S
C775 C774 1.389 . S
C775 C776 1.387 . S
C776 H761 0.930 . S
C776 C771 1.390 . S
C776 C775 1.387 . S
H777 C789 0.930 . S
H778 C791 0.930 . S
H779 C792 0.930 . S
H780 C796 0.959 1_565 S
H781 C796 0.959 . S
H782 C796 0.961 1_565 S
H783 C797 0.960 . S
H784 C797 0.961 . S
H785 C797 0.959 1_655 S
H786 C800 0.929 . S
H787 C801 0.931 . S
H788 C803 0.930 . S
C789 H777 0.930 . S
C789 C790 1.399 1_455 S
C789 C794 1.399 1_455 S
C790 C789 1.399 1_655 S
C790 C791 1.376 . S
C791 H778 0.930 . S
C791 C790 1.376 . S
C791 C792 1.388 . S
C792 H779 0.930 . S
C792 C791 1.388 . S
C792 C793 1.390 . S
C793 C792 1.390 . S
C793 C794 1.394 . S
C793 C799 1.465 1_565 S
C794 C789 1.399 1_655 S
C794 C793 1.394 . S
C794 C795 1.516 1_665 S
C795 C794 1.516 1_445 S
C795 C796 1.502 . S
C795 C797 1.561 . S
C795 C798 1.526 1_455 S
C796 H780 0.959 1_545 S
C796 H781 0.959 . S
C796 H782 0.961 1_545 S
C796 C795 1.502 . S
C797 H783 0.960 . S
C797 H784 0.961 . S
C797 H785 0.959 1_455 S
C797 C795 1.561 . S
C798 C795 1.526 1_655 S
C798 C799 1.396 . S
C798 C803 1.390 1_655 S
C799 C793 1.465 1_545 S
C799 C798 1.396 . S
C799 C800 1.399 . S
C800 H786 0.929 . S
C800 C799 1.399 . S
C800 C801 1.385 . S
C801 H787 0.931 . S
C801 C800 1.385 . S
C801 C802 1.389 . S
C802 C801 1.389 . S
C802 C803 1.387 1_655 S
C803 H788 0.930 . S
C803 C798 1.390 1_455 S
C803 C802 1.387 1_455 S
C277 C215 1.812 . S
C289 C8 1.793 . S
C304 C41 1.784 . S
C316 C248 1.825 . S
C331 C149 1.825 . S
C343 C74 1.783 . S
C358 C107 1.821 . S
C370 C182 1.789 . S
C385 C140 1.817 . S
C397 C83 1.788 . S
C412 C173 1.782 . S
C424 C116 1.826 . S
C439 C17 1.799 . S
C451 C206 1.812 . S
C466 C50 1.800 . S
C478 C239 1.812 . S
C493 C28 1.939 . S
C505 N236 1.943 1_455 S
C520 C61 1.953 . S
C532 N203 1.903 . S
C547 N170 1.910 . S
C559 C94 1.928 . S
C574 C127 1.929 . S
C586 N137 1.946 . S
C601 C160 1.955 . S
C613 N104 1.906 . S
C628 N71 1.941 . S
C640 C193 1.944 . S
C655 N38 1.920 . S
C667 C226 1.922 . S
C682 N5 1.918 . S
C694 C259 1.956 1_455 S
C709 N80 0.706 . S
C721 N14 0.611 . S
C736 N47 0.708 . S
C748 N113 0.629 . S
C763 N212 0.535 . S
C775 N146 0.601 . S
C790 N245 0.700 . S
C802 N179 0.669 . S
