# Generated by pormake.
# Topology wna, (6)-cn, num edge types: 1
# Building blocks:
#     Node 0, Type 0, BuildingBlock: BETDIP_clean_sbu_0, # of connection points: 6
#     Node 1, Type 0, BuildingBlock: BETDIP_clean_sbu_0, # of connection points: 6
#     Node 2, Type 0, BuildingBlock: BETDIP_clean_sbu_0, # of connection points: 6
#     Node 3, Type 0, BuildingBlock: BETDIP_clean_sbu_0, # of connection points: 6
#     Node 4, Type 0, BuildingBlock: BETDIP_clean_sbu_0, # of connection points: 6
#     Node 5, Type 0, BuildingBlock: BETDIP_clean_sbu_0, # of connection points: 6
#     Node 6, Type 0, BuildingBlock: BETDIP_clean_sbu_0, # of connection points: 6
#     Node 7, Type 0, BuildingBlock: BETDIP_clean_sbu_0, # of connection points: 6
#     Node 8, Type 0, BuildingBlock: BETDIP_clean_sbu_0, # of connection points: 6
#     Node 9, Type 0, BuildingBlock: BETDIP_clean_sbu_0, # of connection points: 6
#     Node 10, Type 0, BuildingBlock: BETDIP_clean_sbu_0, # of connection points: 6
#     Node 11, Type 0, BuildingBlock: BETDIP_clean_sbu_0, # of connection points: 6
#     Node 12, Type 0, BuildingBlock: BETDIP_clean_sbu_0, # of connection points: 6
#     Node 13, Type 0, BuildingBlock: BETDIP_clean_sbu_0, # of connection points: 6
#     Node 14, Type 0, BuildingBlock: BETDIP_clean_sbu_0, # of connection points: 6
#     Node 15, Type 0, BuildingBlock: BETDIP_clean_sbu_0, # of connection points: 6
#     Node 16, Type 0, BuildingBlock: BETDIP_clean_sbu_0, # of connection points: 6
#     Node 17, Type 0, BuildingBlock: BETDIP_clean_sbu_0, # of connection points: 6
#     Node 18, Type 0, BuildingBlock: BETDIP_clean_sbu_0, # of connection points: 6
#     Node 19, Type 0, BuildingBlock: BETDIP_clean_sbu_0, # of connection points: 6
#     Node 20, Type 0, BuildingBlock: BETDIP_clean_sbu_0, # of connection points: 6
#     Node 21, Type 0, BuildingBlock: BETDIP_clean_sbu_0, # of connection points: 6
#     Node 22, Type 0, BuildingBlock: BETDIP_clean_sbu_0, # of connection points: 6
#     Node 23, Type 0, BuildingBlock: BETDIP_clean_sbu_0, # of connection points: 6
#     Node 24, Type 0, BuildingBlock: BETDIP_clean_sbu_0, # of connection points: 6
#     Node 25, Type 0, BuildingBlock: BETDIP_clean_sbu_0, # of connection points: 6
#     Node 26, Type 0, BuildingBlock: BETDIP_clean_sbu_0, # of connection points: 6
#     Node 27, Type 0, BuildingBlock: BETDIP_clean_sbu_0, # of connection points: 6
#     Node 28, Type 0, BuildingBlock: BETDIP_clean_sbu_0, # of connection points: 6
#     Node 29, Type 0, BuildingBlock: BETDIP_clean_sbu_0, # of connection points: 6
#     Node 30, Type 0, BuildingBlock: BETDIP_clean_sbu_0, # of connection points: 6
#     Node 31, Type 0, BuildingBlock: BETDIP_clean_sbu_0, # of connection points: 6
#     Node 32, Type 0, BuildingBlock: BETDIP_clean_sbu_0, # of connection points: 6
#     Node 33, Type 0, BuildingBlock: BETDIP_clean_sbu_0, # of connection points: 6
#     Node 34, Type 0, BuildingBlock: BETDIP_clean_sbu_0, # of connection points: 6
#     Node 35, Type 0, BuildingBlock: BETDIP_clean_sbu_0, # of connection points: 6
#     Edge 36, Type (0, 0), BuildingBlock: EZIPEK_clean_linker_0, # of connection points: 2
#     Edge 37, Type (0, 0), BuildingBlock: EZIPEK_clean_linker_0, # of connection points: 2
#     Edge 38, Type (0, 0), BuildingBlock: EZIPEK_clean_linker_0, # of connection points: 2
#     Edge 39, Type (0, 0), BuildingBlock: EZIPEK_clean_linker_0, # of connection points: 2
#     Edge 40, Type (0, 0), BuildingBlock: EZIPEK_clean_linker_0, # of connection points: 2
#     Edge 41, Type (0, 0), BuildingBlock: EZIPEK_clean_linker_0, # of connection points: 2
#     Edge 42, Type (0, 0), BuildingBlock: EZIPEK_clean_linker_0, # of connection points: 2
#     Edge 43, Type (0, 0), BuildingBlock: EZIPEK_clean_linker_0, # of connection points: 2
#     Edge 44, Type (0, 0), BuildingBlock: EZIPEK_clean_linker_0, # of connection points: 2
#     Edge 45, Type (0, 0), BuildingBlock: EZIPEK_clean_linker_0, # of connection points: 2
#     Edge 46, Type (0, 0), BuildingBlock: EZIPEK_clean_linker_0, # of connection points: 2
#     Edge 47, Type (0, 0), BuildingBlock: EZIPEK_clean_linker_0, # of connection points: 2
#     Edge 48, Type (0, 0), BuildingBlock: EZIPEK_clean_linker_0, # of connection points: 2
#     Edge 49, Type (0, 0), BuildingBlock: EZIPEK_clean_linker_0, # of connection points: 2
#     Edge 50, Type (0, 0), BuildingBlock: EZIPEK_clean_linker_0, # of connection points: 2
#     Edge 51, Type (0, 0), BuildingBlock: EZIPEK_clean_linker_0, # of connection points: 2
#     Edge 52, Type (0, 0), BuildingBlock: EZIPEK_clean_linker_0, # of connection points: 2
#     Edge 53, Type (0, 0), BuildingBlock: EZIPEK_clean_linker_0, # of connection points: 2
#     Edge 54, Type (0, 0), BuildingBlock: EZIPEK_clean_linker_0, # of connection points: 2
#     Edge 55, Type (0, 0), BuildingBlock: EZIPEK_clean_linker_0, # of connection points: 2
#     Edge 56, Type (0, 0), BuildingBlock: EZIPEK_clean_linker_0, # of connection points: 2
#     Edge 57, Type (0, 0), BuildingBlock: EZIPEK_clean_linker_0, # of connection points: 2
#     Edge 58, Type (0, 0), BuildingBlock: EZIPEK_clean_linker_0, # of connection points: 2
#     Edge 59, Type (0, 0), BuildingBlock: EZIPEK_clean_linker_0, # of connection points: 2
#     Edge 60, Type (0, 0), BuildingBlock: EZIPEK_clean_linker_0, # of connection points: 2
#     Edge 61, Type (0, 0), BuildingBlock: EZIPEK_clean_linker_0, # of connection points: 2
#     Edge 62, Type (0, 0), BuildingBlock: EZIPEK_clean_linker_0, # of connection points: 2
#     Edge 63, Type (0, 0), BuildingBlock: EZIPEK_clean_linker_0, # of connection points: 2
#     Edge 64, Type (0, 0), BuildingBlock: EZIPEK_clean_linker_0, # of connection points: 2
#     Edge 65, Type (0, 0), BuildingBlock: EZIPEK_clean_linker_0, # of connection points: 2
#     Edge 66, Type (0, 0), BuildingBlock: EZIPEK_clean_linker_0, # of connection points: 2
#     Edge 67, Type (0, 0), BuildingBlock: EZIPEK_clean_linker_0, # of connection points: 2
#     Edge 68, Type (0, 0), BuildingBlock: EZIPEK_clean_linker_0, # of connection points: 2
#     Edge 69, Type (0, 0), BuildingBlock: EZIPEK_clean_linker_0, # of connection points: 2
#     Edge 70, Type (0, 0), BuildingBlock: EZIPEK_clean_linker_0, # of connection points: 2
#     Edge 71, Type (0, 0), BuildingBlock: EZIPEK_clean_linker_0, # of connection points: 2
#     Edge 72, Type (0, 0), BuildingBlock: EZIPEK_clean_linker_0, # of connection points: 2
#     Edge 73, Type (0, 0), BuildingBlock: EZIPEK_clean_linker_0, # of connection points: 2
#     Edge 74, Type (0, 0), BuildingBlock: EZIPEK_clean_linker_0, # of connection points: 2
#     Edge 75, Type (0, 0), BuildingBlock: EZIPEK_clean_linker_0, # of connection points: 2
#     Edge 76, Type (0, 0), BuildingBlock: EZIPEK_clean_linker_0, # of connection points: 2
#     Edge 77, Type (0, 0), BuildingBlock: EZIPEK_clean_linker_0, # of connection points: 2
#     Edge 78, Type (0, 0), BuildingBlock: EZIPEK_clean_linker_0, # of connection points: 2
#     Edge 79, Type (0, 0), BuildingBlock: EZIPEK_clean_linker_0, # of connection points: 2
#     Edge 80, Type (0, 0), BuildingBlock: EZIPEK_clean_linker_0, # of connection points: 2
#     Edge 81, Type (0, 0), BuildingBlock: EZIPEK_clean_linker_0, # of connection points: 2
#     Edge 82, Type (0, 0), BuildingBlock: EZIPEK_clean_linker_0, # of connection points: 2
#     Edge 83, Type (0, 0), BuildingBlock: EZIPEK_clean_linker_0, # of connection points: 2
#     Edge 84, Type (0, 0), BuildingBlock: EZIPEK_clean_linker_0, # of connection points: 2
#     Edge 85, Type (0, 0), BuildingBlock: EZIPEK_clean_linker_0, # of connection points: 2
#     Edge 86, Type (0, 0), BuildingBlock: EZIPEK_clean_linker_0, # of connection points: 2
#     Edge 87, Type (0, 0), BuildingBlock: EZIPEK_clean_linker_0, # of connection points: 2
#     Edge 88, Type (0, 0), BuildingBlock: EZIPEK_clean_linker_0, # of connection points: 2
#     Edge 89, Type (0, 0), BuildingBlock: EZIPEK_clean_linker_0, # of connection points: 2
#     Edge 90, Type (0, 0), BuildingBlock: EZIPEK_clean_linker_0, # of connection points: 2
#     Edge 91, Type (0, 0), BuildingBlock: EZIPEK_clean_linker_0, # of connection points: 2
#     Edge 92, Type (0, 0), BuildingBlock: EZIPEK_clean_linker_0, # of connection points: 2
#     Edge 93, Type (0, 0), BuildingBlock: EZIPEK_clean_linker_0, # of connection points: 2
#     Edge 94, Type (0, 0), BuildingBlock: EZIPEK_clean_linker_0, # of connection points: 2
#     Edge 95, Type (0, 0), BuildingBlock: EZIPEK_clean_linker_0, # of connection points: 2
#     Edge 96, Type (0, 0), BuildingBlock: EZIPEK_clean_linker_0, # of connection points: 2
#     Edge 97, Type (0, 0), BuildingBlock: EZIPEK_clean_linker_0, # of connection points: 2
#     Edge 98, Type (0, 0), BuildingBlock: EZIPEK_clean_linker_0, # of connection points: 2
#     Edge 99, Type (0, 0), BuildingBlock: EZIPEK_clean_linker_0, # of connection points: 2
#     Edge 100, Type (0, 0), BuildingBlock: EZIPEK_clean_linker_0, # of connection points: 2
#     Edge 101, Type (0, 0), BuildingBlock: EZIPEK_clean_linker_0, # of connection points: 2
#     Edge 102, Type (0, 0), BuildingBlock: EZIPEK_clean_linker_0, # of connection points: 2
#     Edge 103, Type (0, 0), BuildingBlock: EZIPEK_clean_linker_0, # of connection points: 2
#     Edge 104, Type (0, 0), BuildingBlock: EZIPEK_clean_linker_0, # of connection points: 2
#     Edge 105, Type (0, 0), BuildingBlock: EZIPEK_clean_linker_0, # of connection points: 2
#     Edge 106, Type (0, 0), BuildingBlock: EZIPEK_clean_linker_0, # of connection points: 2
#     Edge 107, Type (0, 0), BuildingBlock: EZIPEK_clean_linker_0, # of connection points: 2
#     Edge 108, Type (0, 0), BuildingBlock: EZIPEK_clean_linker_0, # of connection points: 2
#     Edge 109, Type (0, 0), BuildingBlock: EZIPEK_clean_linker_0, # of connection points: 2
#     Edge 110, Type (0, 0), BuildingBlock: EZIPEK_clean_linker_0, # of connection points: 2
#     Edge 111, Type (0, 0), BuildingBlock: EZIPEK_clean_linker_0, # of connection points: 2
#     Edge 112, Type (0, 0), BuildingBlock: EZIPEK_clean_linker_0, # of connection points: 2
#     Edge 113, Type (0, 0), BuildingBlock: EZIPEK_clean_linker_0, # of connection points: 2
#     Edge 114, Type (0, 0), BuildingBlock: EZIPEK_clean_linker_0, # of connection points: 2
#     Edge 115, Type (0, 0), BuildingBlock: EZIPEK_clean_linker_0, # of connection points: 2
#     Edge 116, Type (0, 0), BuildingBlock: EZIPEK_clean_linker_0, # of connection points: 2
#     Edge 117, Type (0, 0), BuildingBlock: EZIPEK_clean_linker_0, # of connection points: 2
#     Edge 118, Type (0, 0), BuildingBlock: EZIPEK_clean_linker_0, # of connection points: 2
#     Edge 119, Type (0, 0), BuildingBlock: EZIPEK_clean_linker_0, # of connection points: 2
#     Edge 120, Type (0, 0), BuildingBlock: EZIPEK_clean_linker_0, # of connection points: 2
#     Edge 121, Type (0, 0), BuildingBlock: EZIPEK_clean_linker_0, # of connection points: 2
#     Edge 122, Type (0, 0), BuildingBlock: EZIPEK_clean_linker_0, # of connection points: 2
#     Edge 123, Type (0, 0), BuildingBlock: EZIPEK_clean_linker_0, # of connection points: 2
#     Edge 124, Type (0, 0), BuildingBlock: EZIPEK_clean_linker_0, # of connection points: 2
#     Edge 125, Type (0, 0), BuildingBlock: EZIPEK_clean_linker_0, # of connection points: 2
#     Edge 126, Type (0, 0), BuildingBlock: EZIPEK_clean_linker_0, # of connection points: 2
#     Edge 127, Type (0, 0), BuildingBlock: EZIPEK_clean_linker_0, # of connection points: 2
#     Edge 128, Type (0, 0), BuildingBlock: EZIPEK_clean_linker_0, # of connection points: 2
#     Edge 129, Type (0, 0), BuildingBlock: EZIPEK_clean_linker_0, # of connection points: 2
#     Edge 130, Type (0, 0), BuildingBlock: EZIPEK_clean_linker_0, # of connection points: 2
#     Edge 131, Type (0, 0), BuildingBlock: EZIPEK_clean_linker_0, # of connection points: 2
#     Edge 132, Type (0, 0), BuildingBlock: EZIPEK_clean_linker_0, # of connection points: 2
#     Edge 133, Type (0, 0), BuildingBlock: EZIPEK_clean_linker_0, # of connection points: 2
#     Edge 134, Type (0, 0), BuildingBlock: EZIPEK_clean_linker_0, # of connection points: 2
#     Edge 135, Type (0, 0), BuildingBlock: EZIPEK_clean_linker_0, # of connection points: 2
#     Edge 136, Type (0, 0), BuildingBlock: EZIPEK_clean_linker_0, # of connection points: 2
#     Edge 137, Type (0, 0), BuildingBlock: EZIPEK_clean_linker_0, # of connection points: 2
#     Edge 138, Type (0, 0), BuildingBlock: EZIPEK_clean_linker_0, # of connection points: 2
#     Edge 139, Type (0, 0), BuildingBlock: EZIPEK_clean_linker_0, # of connection points: 2
#     Edge 140, Type (0, 0), BuildingBlock: EZIPEK_clean_linker_0, # of connection points: 2
#     Edge 141, Type (0, 0), BuildingBlock: EZIPEK_clean_linker_0, # of connection points: 2
#     Edge 142, Type (0, 0), BuildingBlock: EZIPEK_clean_linker_0, # of connection points: 2
#     Edge 143, Type (0, 0), BuildingBlock: EZIPEK_clean_linker_0, # of connection points: 2
# Relax obj value: 0.155
# Max RMSD: 0.235
# Mean RMSD: 0.217
data_MOF--net-wna--node1-BETDIP_clean_sbu_0--edge1-EZIPEK_clean_linker_0
_symmetry_space_group_name_H-M    P1
_symmetry_Int_Tables_number       1
_symmetry_cell_setting            triclinic
loop_
_symmetry_equiv_pos_as_xyz
'x, y, z'
_cell_length_a     29.97107
_cell_length_b     30.0182
_cell_length_c     128.18692
_cell_angle_alpha  89.877208
_cell_angle_beta   90.159535
_cell_angle_gamma 119.97903
loop_
_atom_site_label
_atom_site_type_symbol
_atom_site_fract_x
_atom_site_fract_y
_atom_site_fract_z
_atom_type_partial_charge
Tb0 Tb 0.13301 0.26475 0.17489 0.0
Tb1 Tb 0.13978 0.26736 0.19797 0.0
C2 C 0.11397 0.27576 0.15615 0.0
C3 C 0.13685 0.29356 0.14559 0.0
C4 C 0.154 0.34453 0.14239 0.0
C5 C 0.16732 0.35934 0.13197 0.0
C6 C 0.16364 0.32356 0.1245 0.0
C7 C 0.14832 0.27315 0.12769 0.0
C8 C 0.13489 0.25824 0.13812 0.0
C9 C 0.17119 0.20738 0.18232 0.0
C10 C 0.24249 0.33348 0.18533 0.0
C11 C 0.13968 0.25718 0.21763 0.0
C12 C 0.11514 0.22914 0.22746 0.0
C13 C 0.14709 0.22921 0.23551 0.0
C14 C 0.12808 0.21403 0.24565 0.0
C15 C 0.07649 0.19816 0.24802 0.0
C16 C 0.04355 0.19513 0.23985 0.0
C17 C 0.06275 0.21077 0.22968 0.0
C18 C 0.12242 0.33934 0.18913 0.0
C19 C 0.03454 0.18272 0.18753 0.0
O20 O 0.12587 0.31065 0.16341 0.0
O21 O 0.10996 0.2332 0.15986 0.0
O22 O 0.13613 0.21365 0.18636 0.0
O23 O 0.184 0.23258 0.1736 0.0
O24 O 0.212 0.33021 0.17745 0.0
O25 O 0.22222 0.30653 0.19396 0.0
O26 O 0.16183 0.24013 0.21124 0.0
O27 O 0.11795 0.27942 0.2127 0.0
O28 O 0.10355 0.29271 0.18673 0.0
O29 O 0.15369 0.34695 0.19679 0.0
O30 O 0.06127 0.20142 0.19628 0.0
O31 O 0.05393 0.20354 0.17832 0.0
H32 H 0.15518 0.37259 0.14785 0.0
H33 H 0.17873 0.39833 0.12965 0.0
H34 H 0.14487 0.24486 0.12203 0.0
H35 H 0.12103 0.21851 0.14024 0.0
H36 H 0.1877 0.24381 0.23408 0.0
H37 H 0.15427 0.21671 0.25179 0.0
H38 H 1.00362 0.18299 0.24147 0.0
H39 H 0.03722 0.21073 0.22368 0.0
Tb40 Tb 0.78193 0.88863 0.17404 0.0
Tb41 Tb 0.78633 0.88997 0.19919 0.0
C42 C 0.7533 0.85395 0.15585 0.0
C43 C 0.73793 0.86482 0.14549 0.0
C44 C 0.68816 0.83213 0.14169 0.0
C45 C 0.67405 0.83782 0.13155 0.0
C46 C 0.70837 0.87811 0.12484 0.0
C47 C 0.75972 0.90799 0.12856 0.0
C48 C 0.77384 0.90232 0.13872 0.0
C49 C 0.85018 0.98246 0.18142 0.0
C50 C 0.72191 0.93412 0.18644 0.0
C51 C 0.80781 0.91565 0.21812 0.0
C52 C 0.81422 0.8974 0.22853 0.0
C53 C 0.84291 0.87232 0.22993 0.0
C54 C 0.85266 0.86048 0.24 0.0
C55 C 0.83403 0.87355 0.24887 0.0
C56 C 0.80461 0.8977 0.24745 0.0
C57 C 0.79489 0.90951 0.2374 0.0
C58 C 0.72105 0.79487 0.19153 0.0
C59 C 0.86423 0.86817 0.18598 0.0
O60 O 0.72137 0.84316 0.16369 0.0
O61 O 0.80169 0.88183 0.1587 0.0
O62 O 0.82078 0.94135 0.18637 0.0
O63 O 0.83942 0.97094 0.17159 0.0
O64 O 0.72853 0.91656 0.1774 0.0
O65 O 0.74294 0.93029 0.19539 0.0
O66 O 0.84214 0.92364 0.21096 0.0
O67 O 0.7611 0.89547 0.21424 0.0
O68 O 0.749 0.83689 0.18683 0.0
O69 O 0.72979 0.80668 0.20134 0.0
O70 O 0.84963 0.8758 0.19529 0.0
O71 O 0.83931 0.86528 0.17718 0.0
H72 H 0.66039 0.80057 0.14645 0.0
H73 H 0.63646 0.80842 0.12898 0.0
H74 H 0.79064 0.93459 0.12361 0.0
H75 H 0.81359 0.92627 0.14112 0.0
H76 H 0.85859 0.86269 0.22326 0.0
H77 H 0.87534 0.84174 0.2409 0.0
H78 H 0.78975 0.90803 0.25415 0.0
H79 H 0.77309 0.92922 0.23657 0.0
Tb80 Tb 0.15719 0.91099 0.17378 0.0
Tb81 Tb 0.15794 0.91385 0.19703 0.0
C82 C 0.18522 0.92301 0.15489 0.0
C83 C 0.17956 0.89922 0.14442 0.0
C84 C 0.22428 0.91113 0.13873 0.0
C85 C 0.22119 0.89488 0.12836 0.0
C86 C 0.17322 0.86622 0.12342 0.0
C87 C 0.12827 0.85302 0.12916 0.0
C88 C 0.13136 0.86949 0.13955 0.0
C89 C 0.06356 0.87656 0.18197 0.0
C90 C 0.11692 0.80575 0.18612 0.0
C91 C 0.15516 0.9305 0.2162 0.0
C92 C 0.15597 0.94211 0.22753 0.0
C93 C 0.11097 0.91794 0.23364 0.0
C94 C 0.11194 0.9316 0.24417 0.0
C95 C 0.15796 0.96952 0.24881 0.0
C96 C 0.2029 0.99323 0.24274 0.0
C97 C 0.20193 0.97976 0.23225 0.0
C98 C 0.24551 0.92665 0.1882 0.0
C99 C 0.17305 1.0132 0.18462 0.0
O100 O 0.20761 0.91109 0.16232 0.0
O101 O 0.14762 0.92916 0.1584 0.0
O102 O 0.10589 0.91291 0.18532 0.0
O103 O 0.07352 0.85978 0.17344 0.0
O104 O 0.14093 0.83221 0.1776 0.0
O105 O 0.11409 0.82973 0.19458 0.0
O106 O 0.11584 0.89316 0.21129 0.0
O107 O 0.19555 0.95687 0.21032 0.0
O108 O 0.21708 0.94418 0.18525 0.0
O109 O 0.22366 0.89974 0.19647 0.0
O110 O 0.1628 0.98821 0.19362 0.0
O111 O 0.175 0.99127 0.17579 0.0
H112 H 0.26193 0.9344 0.14224 0.0
H113 H 0.25634 0.90553 0.12412 0.0
H114 H 0.0908 0.83089 0.12552 0.0
H115 H 0.0962 0.85993 0.14367 0.0
H116 H 0.07489 0.88907 0.23024 0.0
H117 H 0.07674 0.9129 0.24869 0.0
H118 H 0.2388 0.02256 0.24613 0.0
H119 H 0.2373 0.99931 0.2278 0.0
Tb120 Tb 0.26186 0.12183 0.36339 0.0
Tb121 Tb 0.26451 0.12656 0.34051 0.0
C122 C 0.27229 0.10471 0.38232 0.0
C123 C 0.28869 0.1287 0.39283 0.0
C124 C 0.34112 0.15971 0.39546 0.0
C125 C 0.35608 0.17493 0.40583 0.0
C126 C 0.31904 0.15934 0.41378 0.0
C127 C 0.26669 0.1301 0.41112 0.0
C128 C 0.2517 0.11486 0.40077 0.0
C129 C 0.20779 0.1634 0.35553 0.0
C130 C 0.33236 0.2292 0.35289 0.0
C131 C 0.25279 0.12402 0.32083 0.0
C132 C 0.22818 0.09088 0.31149 0.0
C133 C 0.18134 0.08359 0.30737 0.0
C134 C 0.16325 0.05975 0.29762 0.0
C135 C 0.19208 0.04356 0.2917 0.0
C136 C 0.23786 0.04933 0.29596 0.0
C137 C 0.25567 0.07264 0.3057 0.0
C138 C 0.33499 0.1072 0.34943 0.0
C139 C 0.17899 0.02244 0.35108 0.0
O140 O 0.30769 0.11631 0.37518 0.0
O141 O 0.22973 0.09975 0.37839 0.0
O142 O 0.21188 0.1265 0.35187 0.0
O143 O 0.23434 0.1772 0.36412 0.0
O144 O 0.32986 0.19826 0.36054 0.0
O145 O 0.30378 0.20919 0.34441 0.0
O146 O 0.22509 0.13342 0.32738 0.0
O147 O 0.28824 0.11874 0.32563 0.0
O148 O 0.28826 0.08904 0.35183 0.0
O149 O 0.34351 0.13906 0.34187 0.0
O150 O 0.20023 0.0468 0.34223 0.0
O151 O 0.19703 0.04432 0.36028 0.0
H152 H 0.37074 0.17067 0.38959 0.0
H153 H 0.39669 0.19729 0.40772 0.0
H154 H 0.23751 0.11739 0.41713 0.0
H155 H 0.21113 0.09043 0.39904 0.0
H156 H 0.15956 0.09785 0.31151 0.0
H157 H 0.12773 0.05562 0.29451 0.0
H158 H 0.26075 0.03713 0.29158 0.0
H159 H 0.29225 0.07822 0.3085 0.0
Tb160 Tb 0.9061 0.13496 0.36326 0.0
Tb161 Tb 0.91007 0.13551 0.33859 0.0
C162 C 0.90623 0.16422 0.38175 0.0
C163 C 0.88179 0.15537 0.39225 0.0
C164 C 0.86324 0.18754 0.39574 0.0
C165 C 0.85081 0.18796 0.40628 0.0
C166 C 0.85693 0.15645 0.4136 0.0
C167 C 0.87304 0.12248 0.41006 0.0
C168 C 0.88539 0.12195 0.39952 0.0
C169 C 0.89238 0.04762 0.35502 0.0
C170 C 0.80047 0.09464 0.35058 0.0
C171 C 0.90871 0.11058 0.31971 0.0
C172 C 0.93978 0.12777 0.30992 0.0
C173 C 0.95304 0.09457 0.3049 0.0
C174 C 0.98018 0.10836 0.29543 0.0
C175 C 0.99808 0.15742 0.29081 0.0
C176 C 0.97911 0.18778 0.29541 0.0
C177 C 0.95194 0.17403 0.30489 0.0
C178 C 0.9436 0.23115 0.34626 0.0
C179 C 1.01118 0.16141 0.35186 0.0
O180 O 0.88682 0.17672 0.37383 0.0
O181 O 0.92593 0.13576 0.37895 0.0
O182 O 0.88033 0.07875 0.35087 0.0
O183 O 0.90206 0.06039 0.36479 0.0
O184 O 0.82409 0.10569 0.35982 0.0
O185 O 0.82603 0.10227 0.3416 0.0
O186 O 0.92654 0.09477 0.32735 0.0
O187 O 0.88773 0.13718 0.3231 0.0
O188 O 0.92878 0.18899 0.35095 0.0
O189 O 0.93902 0.21917 0.33645 0.0
O190 O 0.98798 0.15077 0.34261 0.0
O191 O 0.98842 0.16413 0.36051 0.0
H192 H 0.86091 0.21441 0.39043 0.0
H193 H 0.83869 0.21466 0.40883 0.0
H194 H 0.87829 0.09801 0.41556 0.0
H195 H 0.90021 0.09716 0.39718 0.0
H196 H 0.94118 0.05698 0.30819 0.0
H197 H 0.98508 0.07893 0.29171 0.0
H198 H 0.98328 0.22181 0.29165 0.0
H199 H 0.93947 0.19927 0.30815 0.0
Tb200 Tb 0.89155 0.76808 0.36318 0.0
Tb201 Tb 0.89188 0.76097 0.33988 0.0
C202 C 0.861 0.75449 0.38189 0.0
C203 C 0.86831 0.73735 0.39239 0.0
C204 C 0.83492 0.68695 0.3958 0.0
C205 C 0.83771 0.67159 0.40601 0.0
C206 C 0.87569 0.70516 0.41321 0.0
C207 C 0.90585 0.75709 0.40989 0.0
C208 C 0.90307 0.77251 0.39966 0.0
C209 C 0.98501 0.82767 0.35501 0.0
C210 C 0.93833 0.70334 0.35278 0.0
C211 C 0.89806 0.77077 0.32019 0.0
C212 C 0.89353 0.79812 0.31088 0.0
C213 C 0.9314 0.81479 0.30306 0.0
C214 C 0.92345 0.83093 0.29329 0.0
C215 C 0.87732 0.83059 0.29109 0.0
C216 C 0.84037 0.81623 0.29904 0.0
C217 C 0.84835 0.80016 0.30883 0.0
C218 C 0.80421 0.69005 0.34936 0.0
C219 C 0.86968 0.84534 0.35008 0.0
O220 O 0.84006 0.71939 0.37457 0.0
O221 O 0.89735 0.79865 0.37822 0.0
O222 O 0.94195 0.81707 0.35108 0.0
O223 O 0.97538 0.80798 0.36433 0.0
O224 O 0.91468 0.70877 0.36106 0.0
O225 O 0.93836 0.72487 0.34373 0.0
O226 O 0.93793 0.79419 0.32641 0.0
O227 O 0.85591 0.7408 0.32529 0.0
O228 O 0.83253 0.73703 0.35152 0.0
O229 O 0.82692 0.68152 0.34168 0.0
O230 O 0.87536 0.82441 0.34142 0.0
O231 O 0.87195 0.82784 0.35948 0.0
H232 H 0.80502 0.65953 0.39067 0.0
H233 H 0.80791 0.63353 0.4082 0.0
H234 H 0.93043 0.78739 0.41518 0.0
H235 H 0.92702 0.81265 0.39758 0.0
H236 H 0.96622 0.813 0.30434 0.0
H237 H 0.95248 0.84181 0.28729 0.0
H238 H 0.80453 0.81569 0.29754 0.0
H239 H 0.81814 0.78723 0.31462 0.0
Tb240 Tb 0.91214 0.76604 0.83924 0.0
Tb241 Tb 0.9104 0.76326 0.86352 0.0
C242 C 0.92329 0.79108 0.82011 0.0
C243 C 0.94398 0.78856 0.80969 0.0
C244 C 0.99716 0.81788 0.80757 0.0
C245 C 1.01555 0.82423 0.79731 0.0
C246 C 0.98135 0.8015 0.78892 0.0
C247 C 0.92852 0.77022 0.79103 0.0
C248 C 0.91002 0.76408 0.8013 0.0
C249 C 0.93553 0.69837 0.84816 0.0
C250 C 1.00685 0.85317 0.85226 0.0
C251 C 0.91774 0.73566 0.88177 0.0
C252 C 0.89343 0.72017 0.89222 0.0
C253 C 0.90444 0.68834 0.89848 0.0
C254 C 0.88783 0.67803 0.90888 0.0
C255 C 0.85977 0.69933 0.91324 0.0
C256 C 0.84732 0.72995 0.9069 0.0
C257 C 0.86411 0.74042 0.89648 0.0
C258 C 0.87597 0.82533 0.85652 0.0
C259 C 0.8049 0.70074 0.85086 0.0
O260 O 0.95653 0.81706 0.82743 0.0
O261 O 0.88227 0.75077 0.82382 0.0
O262 O 0.94625 0.74241 0.85136 0.0
O263 O 0.91542 0.69419 0.83901 0.0
O264 O 0.98061 0.8393 0.8434 0.0
O265 O 0.98951 0.82577 0.86094 0.0
O266 O 0.89692 0.7033 0.87397 0.0
O267 O 0.93538 0.7836 0.87894 0.0
O268 O 0.89038 0.79859 0.85146 0.0
O269 O 0.88018 0.81621 0.8663 0.0
O270 O 0.83086 0.70354 0.85952 0.0
O271 O 0.82868 0.72723 0.84231 0.0
H272 H 0.02456 0.83794 0.81377 0.0
H273 H 0.05643 0.84846 0.79588 0.0
H274 H 0.90141 0.75225 0.78469 0.0
H275 H 0.86886 0.74203 0.80262 0.0
H276 H 0.92734 0.67263 0.89541 0.0
H277 H 0.89785 0.65433 0.9136 0.0
H278 H 0.82565 0.74674 0.9101 0.0
H279 H 0.85533 0.76533 0.89186 0.0
Tb280 Tb 0.26408 0.14039 0.83917 0.0
Tb281 Tb 0.26561 0.13856 0.8632 0.0
C282 C 0.23834 0.119 0.82026 0.0
C283 C 0.2297 0.14209 0.81065 0.0
C284 C 0.17972 0.12946 0.80762 0.0
C285 C 0.17083 0.14822 0.79826 0.0
C286 C 0.21178 0.18285 0.79172 0.0
C287 C 0.26119 0.19058 0.79439 0.0
C288 C 0.27013 0.17177 0.80374 0.0
C289 C 0.33146 0.23561 0.84657 0.0
C290 C 0.19052 0.17006 0.85218 0.0
C291 C 0.28963 0.15224 0.88209 0.0
C292 C 0.30363 0.15891 0.8933 0.0
C293 C 0.31662 0.20508 0.89847 0.0
C294 C 0.32795 0.21034 0.90917 0.0
C295 C 0.32687 0.1697 0.91484 0.0
C296 C 0.31469 0.12388 0.90964 0.0
C297 C 0.30293 0.11844 0.89899 0.0
C298 C 0.18593 0.05821 0.85469 0.0
C299 C 0.3302 0.09721 0.85039 0.0
O300 O 0.20525 0.10693 0.82792 0.0
O301 O 0.28579 0.13836 0.82368 0.0
O302 O 0.30359 0.19413 0.85143 0.0
O303 O 0.32195 0.22322 0.83683 0.0
O304 O 0.20201 0.15614 0.8432 0.0
O305 O 0.21242 0.1679 0.86104 0.0
O306 O 0.30015 0.19061 0.87574 0.0
O307 O 0.26606 0.10675 0.87773 0.0
O308 O 0.2317 0.08116 0.85109 0.0
O309 O 0.18537 0.07904 0.86349 0.0
O310 O 0.32121 0.11301 0.85941 0.0
O311 O 0.31035 0.10258 0.84151 0.0
H312 H 0.14695 0.10365 0.81236 0.0
H313 H 0.13103 0.13322 0.79615 0.0
H314 H 0.29355 0.20949 0.78917 0.0
H315 H 0.30878 0.17939 0.8054 0.0
H316 H 0.31734 0.23683 0.89429 0.0
H317 H 0.33734 0.24603 0.91304 0.0
H318 H 0.31386 0.09219 0.91387 0.0
H319 H 0.29323 0.08247 0.89521 0.0
Tb320 Tb 0.89729 0.12131 0.83915 0.0
Tb321 Tb 0.89521 0.11568 0.86319 0.0
C322 C 0.92246 0.12388 0.82022 0.0
C323 C 0.90544 0.09925 0.80978 0.0
C324 C 0.94118 0.09416 0.80355 0.0
C325 C 0.92792 0.07277 0.79352 0.0
C326 C 0.87846 0.05583 0.78945 0.0
C327 C 0.84235 0.06054 0.79568 0.0
C328 C 0.85571 0.08211 0.80576 0.0
C329 C 0.7996 0.08532 0.84628 0.0
C330 C 0.87403 0.01676 0.85074 0.0
C331 C 0.87115 0.11324 0.88218 0.0
C332 C 0.87718 0.13983 0.89234 0.0
C333 C 0.83917 0.15103 0.8957 0.0
C334 C 0.83796 0.1652 0.90608 0.0
C335 C 0.87447 0.16808 0.91337 0.0
C336 C 0.91387 0.1593 0.90994 0.0
C337 C 0.91521 0.14529 0.89955 0.0
C338 C 0.98369 0.13234 0.85474 0.0
C339 C 0.93855 0.22697 0.85218 0.0
O340 O 0.92959 0.09717 0.82746 0.0
O341 O 0.90232 0.1506 0.82397 0.0
O342 O 0.84083 0.09749 0.85113 0.0
O343 O 0.81378 0.09405 0.83661 0.0
O344 O 0.88962 0.04552 0.8422 0.0
O345 O 0.86529 0.03437 0.85953 0.0
O346 O 0.84648 0.12036 0.87448 0.0
O347 O 0.90903 0.10716 0.8789 0.0
O348 O 0.95523 0.14991 0.85152 0.0
O349 O 0.96183 0.10491 0.86298 0.0
O350 O 0.92589 0.19955 0.86099 0.0
O351 O 0.93216 0.20451 0.84287 0.0
H352 H 0.97979 0.10717 0.80643 0.0
H353 H 0.95644 0.0696 0.78891 0.0
H354 H 0.80392 0.04766 0.79273 0.0
H355 H 0.82734 0.08552 0.81037 0.0
H356 H 0.80873 0.14629 0.89045 0.0
H357 H 0.80709 0.1716 0.90856 0.0
H358 H 0.9423 0.16107 0.91542 0.0
H359 H 0.94458 0.13618 0.89733 0.0
Tb360 Tb 0.78725 0.90226 0.69778 0.0
Tb361 Tb 0.78077 0.90435 0.67325 0.0
C362 C 0.8121 0.89975 0.71654 0.0
C363 C 0.8193 0.92666 0.72678 0.0
C364 C 0.86645 0.97068 0.7294 0.0
C365 C 0.87468 0.99243 0.73943 0.0
C366 C 0.83614 0.97064 0.7471 0.0
C367 C 0.78881 0.92726 0.74447 0.0
C368 C 0.78057 0.90547 0.73446 0.0
C369 C 0.72323 0.93676 0.69128 0.0
C370 C 0.85974 1.00473 0.68512 0.0
C371 C 0.7515 0.90739 0.65488 0.0
C372 C 0.73692 0.88342 0.64442 0.0
C373 C 0.705 0.89418 0.63812 0.0
C374 C 0.69561 0.8783 0.62769 0.0
C375 C 0.71791 0.8512 0.62333 0.0
C376 C 0.74853 0.83883 0.62971 0.0
C377 C 0.75815 0.85499 0.64017 0.0
C378 C 0.85502 0.88847 0.68074 0.0
C379 C 0.71688 0.79593 0.68499 0.0
O380 O 0.84556 0.92426 0.70908 0.0
O381 O 0.76495 0.87237 0.71293 0.0
O382 O 0.7508 0.92387 0.68619 0.0
O383 O 0.73259 0.93094 0.7009 0.0
O384 O 0.85528 0.97605 0.6934 0.0
O385 O 0.82571 0.98616 0.67743 0.0
O386 O 0.7196 0.88534 0.66268 0.0
O387 O 0.79978 0.9275 0.6577 0.0
O388 O 0.81157 0.87458 0.6848 0.0
O389 O 0.85459 0.90582 0.67147 0.0
O390 O 0.72593 0.82236 0.67613 0.0
O391 O 0.7387 0.8188 0.69404 0.0
H392 H 0.89751 0.98779 0.72379 0.0
H393 H 0.91157 0.02578 0.74127 0.0
H394 H 0.75851 0.90965 0.75024 0.0
H395 H 0.74411 0.8712 0.73281 0.0
H396 H 0.68857 0.91643 0.6412 0.0
H397 H 0.67186 0.88818 0.62293 0.0
H398 H 0.76602 0.81784 0.6265 0.0
H399 H 0.78317 0.8465 0.64484 0.0
Tb400 Tb 0.13795 0.89033 0.69881 0.0
Tb401 Tb 0.13421 0.88489 0.67433 0.0
C402 C 0.14578 0.91763 0.71766 0.0
C403 C 0.11916 0.8969 0.72773 0.0
C404 C 0.13253 0.9299 0.73636 0.0
C405 C 0.10812 0.91162 0.746 0.0
C406 C 0.0698 0.85988 0.74721 0.0
C407 C 0.05618 0.82672 0.73857 0.0
C408 C 0.08068 0.8451 0.72889 0.0
C409 C 0.10722 0.79388 0.69187 0.0
C410 C 0.03369 0.86502 0.68771 0.0
C411 C 0.11402 0.85115 0.65586 0.0
C412 C 0.13513 0.8572 0.64509 0.0
C413 C 0.15456 0.82578 0.64157 0.0
C414 C 0.16662 0.82538 0.63101 0.0
C415 C 0.15916 0.85606 0.62371 0.0
C416 C 0.14132 0.88863 0.62723 0.0
C417 C 0.12935 0.88914 0.63779 0.0
C418 C 0.16701 0.97835 0.68213 0.0
C419 C 0.24274 0.9314 0.68539 0.0
O420 O 0.12048 0.92776 0.71059 0.0
O421 O 0.1703 0.89581 0.71364 0.0
O422 O 0.12216 0.83534 0.68697 0.0
O423 O 0.11051 0.80708 0.70158 0.0
O424 O 0.05825 0.87146 0.69668 0.0
O425 O 0.05514 0.86725 0.67848 0.0
O426 O 0.13041 0.83184 0.66313 0.0
O427 O 0.10633 0.88759 0.65946 0.0
O428 O 0.13422 0.93554 0.68603 0.0
O429 O 0.18062 0.96861 0.67313 0.0
O430 O 0.21568 0.9085 0.67684 0.0
O431 O 0.2204 0.93282 0.69426 0.0
H432 H 0.16197 0.96999 0.73564 0.0
H433 H 0.11913 0.93788 0.75253 0.0
H434 H 0.02661 0.78672 0.73932 0.0
H435 H 0.06961 0.81898 0.72233 0.0
H436 H 0.15866 0.80002 0.64691 0.0
H437 H 0.18009 0.79975 0.62846 0.0
H438 H 0.13499 0.91239 0.62173 0.0
H439 H 0.11367 0.91318 0.64014 0.0
Tb440 Tb 0.14543 0.24924 0.69875 0.0
Tb441 Tb 0.15068 0.26127 0.67458 0.0
C442 C 0.11921 0.22455 0.71759 0.0
C443 C 0.14045 0.22386 0.72813 0.0
C444 C 0.13774 0.17851 0.73198 0.0
C445 C 0.15185 0.17556 0.74232 0.0
C446 C 0.16868 0.21775 0.74907 0.0
C447 C 0.17232 0.26332 0.74522 0.0
C448 C 0.15827 0.26634 0.73489 0.0
C449 C 0.24326 0.31625 0.69243 0.0
C450 C 0.16545 0.17202 0.68555 0.0
C451 C 0.18114 0.27926 0.65583 0.0
C452 C 0.17421 0.29794 0.64546 0.0
C453 C 0.21232 0.34565 0.6416 0.0
C454 C 0.20973 0.36131 0.63139 0.0
C455 C 0.16754 0.33109 0.62465 0.0
C456 C 0.13197 0.28114 0.6284 0.0
C457 C 0.13451 0.26547 0.63862 0.0
C458 C 0.0559 0.20075 0.68206 0.0
C459 C 0.10825 0.32143 0.68731 0.0
O460 O 0.11875 0.19289 0.71053 0.0
O461 O 0.13026 0.26908 0.71354 0.0
O462 O 0.20204 0.29225 0.68729 0.0
O463 O 0.22908 0.30256 0.70197 0.0
O464 O 0.15531 0.18402 0.69484 0.0
O465 O 0.16835 0.19846 0.67696 0.0
O466 O 0.2027 0.31272 0.66343 0.0
O467 O 0.1442 0.23484 0.65921 0.0
O468 O 0.09783 0.20599 0.68558 0.0
O469 O 0.06733 0.2307 0.67394 0.0
O470 O 0.13263 0.32141 0.67867 0.0
O471 O 0.10433 0.29226 0.6955 0.0
H472 H 0.12338 0.14472 0.72708 0.0
H473 H 0.14849 0.13994 0.74512 0.0
H474 H 0.18499 0.29629 0.7503 0.0
H475 H 0.16014 0.3016 0.7323 0.0
H476 H 0.24557 0.37029 0.64636 0.0
H477 H 0.24278 0.39651 0.6288 0.0
H478 H 0.10297 0.25218 0.62344 0.0
H479 H 0.10625 0.22686 0.64101 0.0
Tb480 Tb 0.79474 0.59073 0.50667 0.0
Tb481 Tb 0.79914 0.59106 0.53187 0.0
C482 C 0.78336 0.61877 0.48875 0.0
C483 C 0.80543 0.63307 0.47811 0.0
C484 C 0.79163 0.66265 0.47181 0.0
C485 C 0.80826 0.67373 0.46143 0.0
C486 C 0.83913 0.65549 0.45714 0.0
C487 C 0.85389 0.62671 0.4635 0.0
C488 C 0.8371 0.61548 0.4739 0.0
C489 C 0.8205 0.52295 0.51375 0.0
C490 C 0.90406 0.65213 0.5183 0.0
C491 C 0.8048 0.56995 0.55072 0.0
C492 C 0.77823 0.56162 0.56096 0.0
C493 C 0.7639 0.516 0.56653 0.0
C494 C 0.74265 0.50848 0.57655 0.0
C495 C 0.7353 0.5465 0.58128 0.0
C496 C 0.74879 0.59187 0.57569 0.0
C497 C 0.77009 0.59942 0.56563 0.0
C498 C 0.768 0.65508 0.52407 0.0
C499 C 0.69349 0.51387 0.52016 0.0
O500 O 0.80803 0.65097 0.49638 0.0
O501 O 0.76398 0.57056 0.49158 0.0
O502 O 0.81135 0.55366 0.5189 0.0
O503 O 0.81714 0.53206 0.50391 0.0
O504 O 0.87773 0.64321 0.50939 0.0
O505 O 0.88155 0.63375 0.52751 0.0
O506 O 0.78103 0.53499 0.54349 0.0
O507 O 0.82902 0.61682 0.54688 0.0
O508 O 0.78007 0.62544 0.51953 0.0
O509 O 0.77432 0.64931 0.53391 0.0
O510 O 0.71953 0.5312 0.52902 0.0
O511 O 0.71478 0.53304 0.5109 0.0
H512 H 0.76706 0.67643 0.47487 0.0
H513 H 0.79646 0.69599 0.45669 0.0
H514 H 0.87776 0.61231 0.46034 0.0
H515 H 0.84815 0.59248 0.47859 0.0
H516 H 0.77003 0.48637 0.56318 0.0
H517 H 0.7325 0.47318 0.5807 0.0
H518 H 0.74334 0.62167 0.57916 0.0
H519 H 0.7808 0.63509 0.56159 0.0
Tb520 Tb 0.45169 0.21726 0.50788 0.0
Tb521 Tb 0.45031 0.22086 0.53197 0.0
C522 C 0.42444 0.18904 0.48925 0.0
C523 C 0.405 0.19515 0.47896 0.0
C524 C 0.35746 0.15524 0.4753 0.0
C525 C 0.34269 0.15392 0.46487 0.0
C526 C 0.37517 0.19246 0.45785 0.0
C527 C 0.42157 0.23379 0.46158 0.0
C528 C 0.43645 0.2351 0.47203 0.0
C529 C 0.52773 0.30328 0.51602 0.0
C530 C 0.38755 0.26375 0.51901 0.0
C531 C 0.46867 0.24451 0.55102 0.0
C532 C 0.4727 0.22236 0.56118 0.0
C533 C 0.52139 0.23574 0.56533 0.0
C534 C 0.52604 0.21936 0.57533 0.0
C535 C 0.48218 0.18947 0.58145 0.0
C536 C 0.43343 0.17519 0.57729 0.0
C537 C 0.42872 0.19159 0.56729 0.0
C538 C 0.38734 0.12314 0.52508 0.0
C539 C 0.52556 0.18991 0.52068 0.0
O540 O 0.39272 0.17172 0.49718 0.0
O541 O 0.47156 0.22246 0.49206 0.0
O542 O 0.48192 0.27745 0.51952 0.0
O543 O 0.52945 0.28302 0.5072 0.0
O544 O 0.40278 0.25254 0.51013 0.0
O545 O 0.40242 0.2558 0.52828 0.0
O546 O 0.50451 0.25482 0.54405 0.0
O547 O 0.42289 0.22559 0.54676 0.0
O548 O 0.41531 0.16415 0.52011 0.0
O549 O 0.39544 0.13754 0.53473 0.0
O550 O 0.5169 0.21129 0.52887 0.0
O551 O 0.49906 0.18273 0.51192 0.0
H552 H 0.33282 0.12345 0.48037 0.0
H553 H 0.30692 0.12153 0.46215 0.0
H554 H 0.44733 0.26377 0.45628 0.0
H555 H 0.47361 0.26609 0.47453 0.0
H556 H 0.5561 0.25987 0.56093 0.0
H557 H 0.56402 0.23087 0.57838 0.0
H558 H 0.39908 0.15216 0.58188 0.0
H559 H 0.39065 0.18099 0.56443 0.0
Tb560 Tb 0.81998 0.24032 0.50831 0.0
Tb561 Tb 0.81982 0.2369 0.53118 0.0
C562 C 0.84413 0.24131 0.48935 0.0
C563 C 0.83649 0.21422 0.47918 0.0
C564 C 0.87302 0.20111 0.47572 0.0
C565 C 0.87303 0.18627 0.46534 0.0
C566 C 0.83677 0.1846 0.45814 0.0
C567 C 0.79877 0.19528 0.46166 0.0
C568 C 0.79864 0.20998 0.47205 0.0
C569 C 0.72973 0.22061 0.51621 0.0
C570 C 0.77741 0.13043 0.5196 0.0
C571 C 0.80731 0.24236 0.55063 0.0
C572 C 0.82973 0.26952 0.56063 0.0
C573 C 0.80156 0.28646 0.56653 0.0
C574 C 0.81786 0.30708 0.57652 0.0
C575 C 0.86279 0.31126 0.58089 0.0
C576 C 0.89186 0.29549 0.57494 0.0
C577 C 0.87538 0.27458 0.56491 0.0
C578 C 0.91169 0.26202 0.52246 0.0
C579 C 0.83557 0.33838 0.5198 0.0
O580 O 0.86674 0.23172 0.4971 0.0
O581 O 0.80839 0.25083 0.49257 0.0
O582 O 0.75866 0.20431 0.51971 0.0
O583 O 0.75015 0.2457 0.50767 0.0
O584 O 0.79652 0.15801 0.51094 0.0
O585 O 0.77688 0.15341 0.52839 0.0
O586 O 0.79626 0.26664 0.54354 0.0
O587 O 0.82466 0.21418 0.54651 0.0
O588 O 0.88022 0.27622 0.5197 0.0
O589 O 0.89312 0.23663 0.53101 0.0
O590 O 0.82201 0.31026 0.52839 0.0
O591 O 0.84577 0.32144 0.51113 0.0
H592 H 0.9033 0.20485 0.48091 0.0
H593 H 0.90285 0.17842 0.4628 0.0
H594 H 0.77056 0.19448 0.45625 0.0
H595 H 0.77039 0.22053 0.47433 0.0
H596 H 0.76598 0.28252 0.56349 0.0
H597 H 0.79487 0.31903 0.58094 0.0
H598 H 0.92676 0.29853 0.57814 0.0
H599 H 0.89778 0.26157 0.5606 0.0
Tb600 Tb 0.92645 0.46156 0.69598 0.0
Tb601 Tb 0.9351 0.46456 0.67337 0.0
C602 C 0.94133 0.45773 0.71531 0.0
C603 C 0.96893 0.48042 0.72527 0.0
C604 C 0.99263 0.45644 0.7305 0.0
C605 C 1.00949 0.46924 0.74083 0.0
C606 C 1.003 0.50631 0.7462 0.0
C607 C 0.98172 0.53231 0.74085 0.0
C608 C 0.96456 0.5193 0.7305 0.0
C609 C 0.85572 0.47762 0.68682 0.0
C610 C 0.99785 0.57042 0.68515 0.0
C611 C 0.92143 0.45899 0.65375 0.0
C612 C 0.91715 0.43002 0.64399 0.0
C613 C 0.86852 0.39188 0.64033 0.0
C614 C 0.86285 0.37091 0.63031 0.0
C615 C 0.90557 0.3877 0.62369 0.0
C616 C 0.95446 0.42434 0.62744 0.0
C617 C 0.96016 0.44546 0.63745 0.0
C618 C 0.99953 0.43904 0.6828 0.0
C619 C 0.84759 0.361 0.68435 0.0
O620 O 0.96373 0.44492 0.7081 0.0
O621 O 0.91117 0.47334 0.71139 0.0
O622 O 0.90239 0.49642 0.68397 0.0
O623 O 0.84908 0.45074 0.69519 0.0
O624 O 0.9894 0.54208 0.69368 0.0
O625 O 0.97449 0.548 0.6763 0.0
O626 O 0.88434 0.43744 0.66058 0.0
O627 O 0.96644 0.48541 0.65824 0.0
O628 O 0.95359 0.42526 0.68526 0.0
O629 O 1.0097 0.46735 0.67457 0.0
O630 O 0.86853 0.38649 0.6756 0.0
O631 O 0.8668 0.38212 0.69349 0.0
H632 H 0.99582 0.42581 0.72676 0.0
H633 H 0.02582 0.44873 0.74478 0.0
H634 H 0.97647 0.56115 0.74484 0.0
H635 H 0.94594 0.53814 0.72676 0.0
H636 H 0.83438 0.37961 0.64504 0.0
H637 H 0.82477 0.34277 0.62759 0.0
H638 H 0.98794 0.43791 0.62247 0.0
H639 H 0.99801 0.47532 0.63991 0.0
Tb640 Tb 0.58109 0.47901 0.69559 0.0
Tb641 Tb 0.57185 0.47942 0.67291 0.0
C642 C 0.58518 0.50074 0.71475 0.0
C643 C 0.55752 0.49486 0.72474 0.0
C644 C 0.5457 0.53266 0.72791 0.0
C645 C 0.53049 0.53381 0.7382 0.0
C646 C 0.52712 0.49743 0.74554 0.0
C647 C 0.53629 0.45813 0.74228 0.0
C648 C 0.55142 0.45689 0.73199 0.0
C649 C 0.5693 0.39401 0.68699 0.0
C650 C 0.4678 0.43377 0.68553 0.0
C651 C 0.57321 0.46789 0.65332 0.0
C652 C 0.60497 0.48756 0.64364 0.0
C653 C 0.63982 0.47116 0.64074 0.0
C654 C 0.66334 0.48338 0.63087 0.0
C655 C 0.65231 0.51192 0.62366 0.0
C656 C 0.61873 0.52953 0.62663 0.0
C657 C 0.59527 0.5174 0.63649 0.0
C658 C 0.59516 0.56946 0.68205 0.0
C659 C 0.68186 0.50834 0.68297 0.0
O660 O 0.58152 0.5285 0.70725 0.0
O661 O 0.58761 0.46126 0.71117 0.0
O662 O 0.54635 0.41801 0.68414 0.0
O663 O 0.59577 0.4152 0.69533 0.0
O664 O 0.49734 0.45212 0.69398 0.0
O665 O 0.48897 0.43618 0.67633 0.0
O666 O 0.58523 0.44338 0.66019 0.0
O667 O 0.55742 0.49665 0.65777 0.0
O668 O 0.61221 0.53971 0.68426 0.0
O669 O 0.56453 0.54869 0.67419 0.0
O670 O 0.65189 0.49518 0.6746 0.0
O671 O 0.66269 0.50974 0.69217 0.0
H672 H 0.55082 0.563 0.72261 0.0
H673 H 0.52386 0.56463 0.74058 0.0
H674 H 0.53421 0.42989 0.74783 0.0
H675 H 0.56101 0.42774 0.7299 0.0
H676 H 0.64767 0.44744 0.64595 0.0
H677 H 0.68901 0.46927 0.62874 0.0
H678 H 0.60954 0.55148 0.6212 0.0
H679 H 0.56803 0.52991 0.63836 0.0
Tb680 Tb 0.55979 0.10781 0.69577 0.0
Tb681 Tb 0.56108 0.10338 0.67294 0.0
C682 C 0.53309 0.08384 0.71462 0.0
C683 C 0.53945 0.06172 0.72459 0.0
C684 C 0.50024 1.01363 0.72804 0.0
C685 C 0.50146 0.99552 0.73808 0.0
C686 C 0.54325 0.02356 0.74505 0.0
C687 C 0.5804 0.07371 0.74168 0.0
C688 C 0.5792 0.09182 0.73163 0.0
C689 C 0.65031 0.17751 0.68806 0.0
C690 C 0.60254 0.03944 0.68507 0.0
C691 C 0.57384 0.12118 0.65348 0.0
C692 C 0.55182 0.12877 0.64366 0.0
C693 C 0.57953 0.17592 0.63836 0.0
C694 C 0.56373 0.18311 0.62852 0.0
C695 C 0.51986 0.14327 0.6237 0.0
C696 C 0.49118 0.09638 0.62906 0.0
C697 C 0.50711 0.08908 0.63894 0.0
C698 C 0.46881 0.03886 0.6814 0.0
C699 C 0.54489 0.19011 0.68385 0.0
O700 O 0.50978 0.05305 0.70673 0.0
O701 O 0.57064 0.12854 0.71158 0.0
O702 O 0.6218 0.13243 0.68449 0.0
O703 O 0.62996 0.1821 0.69661 0.0
O704 O 0.58399 0.04936 0.69362 0.0
O705 O 0.60245 0.06147 0.67608 0.0
O706 O 0.5881 0.1567 0.6606 0.0
O707 O 0.5535 0.07524 0.65758 0.0
O708 O 0.50046 0.08434 0.68417 0.0
O709 O 0.48808 0.02979 0.67325 0.0
O710 O 0.5571 0.1738 0.67533 0.0
O711 O 0.53587 0.16462 0.69274 0.0
H712 H 0.46701 0.9908 0.72312 0.0
H713 H 0.46757 0.96037 0.74038 0.0
H714 H 0.60957 0.10114 0.74684 0.0
H715 H 0.60837 0.13063 0.72957 0.0
H716 H 0.61443 0.20698 0.64173 0.0
H717 H 0.58642 0.21956 0.62456 0.0
H718 H 0.45711 0.06515 0.62549 0.0
H719 H 0.48509 0.05216 0.64276 0.0
Tb720 Tb 0.58105 0.11298 0.17362 0.0
Tb721 Tb 0.58074 0.10822 0.1969 0.0
C722 C 0.59018 0.13885 0.15449 0.0
C723 C 0.60678 0.13624 0.1437 0.0
C724 C 0.59555 0.16138 0.13574 0.0
C725 C 0.61395 0.16426 0.12558 0.0
C726 C 0.64405 0.14192 0.1231 0.0
C727 C 0.65454 0.11569 0.13102 0.0
C728 C 0.63626 0.11308 0.14126 0.0
C729 C 0.60784 0.04599 0.18166 0.0
C730 C 0.67705 0.19854 0.18624 0.0
C731 C 0.58325 0.0782 0.21523 0.0
C732 C 0.55759 0.05833 0.22544 0.0
C733 C 0.56901 0.02511 0.23111 0.0
C734 C 0.55299 1.01227 0.24149 0.0
C735 C 0.52509 0.03234 0.24642 0.0
C736 C 0.5118 0.06396 0.24064 0.0
C737 C 0.52805 0.07702 0.23025 0.0
C738 C 0.55881 0.17873 0.19003 0.0
C739 C 0.4728 0.04211 0.18474 0.0
O740 O 0.62586 0.16265 0.16152 0.0
O741 O 0.54944 0.09915 0.15838 0.0
O742 O 0.61902 0.08984 0.185 0.0
O743 O 0.58507 0.04155 0.17282 0.0
O744 O 0.64694 0.18833 0.17799 0.0
O745 O 0.66196 0.16657 0.19427 0.0
O746 O 0.56828 0.04753 0.20711 0.0
O747 O 0.59649 0.12551 0.21274 0.0
O748 O 0.54676 0.13641 0.18559 0.0
O749 O 0.57652 0.17792 0.19924 0.0
O750 O 0.49913 0.04945 0.19357 0.0
O751 O 0.49656 0.06797 0.17614 0.0
H752 H 0.5733 0.17993 0.13744 0.0
H753 H 0.60534 0.1847 0.11966 0.0
H754 H 0.67764 0.09811 0.1293 0.0
H755 H 0.64578 0.0938 0.14728 0.0
H756 H 0.59223 1.01069 0.22763 0.0
H757 H 0.56365 0.98785 0.24579 0.0
H758 H 0.49023 0.07982 0.24428 0.0
H759 H 0.51904 0.10304 0.2261 0.0
Tb760 Tb 0.93685 0.48619 0.1744 0.0
Tb761 Tb 0.93583 0.48999 0.19703 0.0
C762 C 0.91619 0.47068 0.15509 0.0
C763 C 0.90332 0.49065 0.14555 0.0
C764 C 0.85165 0.47103 0.14248 0.0
C765 C 0.83952 0.48331 0.13269 0.0
C766 C 0.87876 0.51522 0.12573 0.0
C767 C 0.9303 0.53623 0.12888 0.0
C768 C 0.94247 0.52398 0.13866 0.0
C769 C 1.00637 0.57869 0.18233 0.0
C770 C 0.85846 0.51371 0.18587 0.0
C771 C 0.95792 0.51269 0.21607 0.0
C772 C 0.97488 0.50199 0.22624 0.0
C773 C 0.02537 0.53471 0.22985 0.0
C774 C 0.03872 0.53256 0.24027 0.0
C775 C 1.00179 0.4979 0.24731 0.0
C776 C 0.95209 0.46344 0.24363 0.0
C777 C 0.93873 0.46548 0.23321 0.0
C778 C 0.86117 0.40071 0.18936 0.0
C779 C 1.00332 0.44737 0.18633 0.0
O780 O 0.88173 0.45058 0.16248 0.0
O781 O 0.9628 0.49692 0.15887 0.0
O782 O 0.96074 0.54906 0.18538 0.0
O783 O 1.01288 0.557 0.17425 0.0
O784 O 0.86916 0.4957 0.17736 0.0
O785 O 0.88974 0.52669 0.19397 0.0
O786 O 0.99135 0.53368 0.20848 0.0
O787 O 0.91195 0.47971 0.21263 0.0
O788 O 0.90694 0.42628 0.18593 0.0
O789 O 0.85871 0.42254 0.19781 0.0
O790 O 0.99634 0.46914 0.19469 0.0
O791 O 0.97811 0.44386 0.17757 0.0
H792 H 0.82048 0.44463 0.14748 0.0
H793 H 0.79949 0.46658 0.13041 0.0
H794 H 0.96117 0.5608 0.12363 0.0
H795 H 0.98264 0.53918 0.14066 0.0
H796 H 0.0539 0.56388 0.22478 0.0
H797 H 0.07722 0.55967 0.24296 0.0
H798 H 0.92294 0.4366 0.24894 0.0
H799 H 0.89928 0.4402 0.23079 0.0
Tb800 Tb 0.55695 0.46386 0.17386 0.0
Tb801 Tb 0.56293 0.46503 0.19663 0.0
C802 C 0.55595 0.45606 0.15415 0.0
C803 C 0.55695 0.42885 0.14454 0.0
C804 C 0.59246 0.45707 0.13664 0.0
C805 C 0.58717 0.43648 0.12659 0.0
C806 C 0.54612 0.38724 0.12423 0.0
C807 C 0.51213 0.35783 0.13224 0.0
C808 C 0.51742 0.3784 0.1423 0.0
C809 C 0.47097 0.45018 0.18359 0.0
C810 C 0.54429 0.36325 0.18514 0.0
C811 C 0.53887 0.4505 0.21575 0.0
C812 C 0.54603 0.47251 0.22646 0.0
C813 C 0.52141 0.49986 0.22957 0.0
C814 C 0.52019 0.5117 0.24012 0.0
C815 C 0.54323 0.49622 0.2478 0.0
C816 C 0.5695 0.47072 0.24468 0.0
C817 C 0.5708 0.45892 0.23414 0.0
C818 C 0.65562 0.50108 0.18779 0.0
C819 C 0.60081 0.57131 0.18515 0.0
O820 O 0.59806 0.4835 0.15956 0.0
O821 O 0.51522 0.43369 0.16006 0.0
O822 O 0.4993 0.43163 0.18597 0.0
O823 O 0.49325 0.48009 0.17572 0.0
O824 O 0.54666 0.38645 0.17616 0.0
O825 O 0.54851 0.38652 0.19417 0.0
O826 O 0.51468 0.46257 0.20875 0.0
O827 O 0.57601 0.44538 0.21167 0.0
O828 O 0.61299 0.46415 0.18459 0.0
O829 O 0.64598 0.51847 0.19626 0.0
O830 O 0.57849 0.54415 0.19369 0.0
O831 O 0.60147 0.54755 0.1765 0.0
H832 H 0.62277 0.49624 0.13807 0.0
H833 H 0.61383 0.45984 0.12054 0.0
H834 H 0.4802 0.31976 0.13059 0.0
H835 H 0.48903 0.35572 0.14815 0.0
H836 H 0.50124 0.5103 0.22393 0.0
H837 H 0.49954 0.53124 0.24236 0.0
H838 H 0.58731 0.45817 0.25046 0.0
H839 H 0.58926 0.43704 0.23206 0.0
Tb840 Tb 0.44908 0.23885 0.03179 0.0
Tb841 Tb 0.44281 0.24379 1.00904 0.0
C842 C 0.4749 0.24183 0.05078 0.0
C843 C 0.4854 0.27044 0.06082 0.0
C844 C 0.53648 0.30161 0.0643 0.0
C845 C 0.54692 0.32246 0.07439 0.0
C846 C 0.50653 0.31232 0.08128 0.0
C847 C 0.45551 0.28231 0.07776 0.0
C848 C 0.44503 0.26148 0.06767 0.0
C849 C 0.37875 0.26406 0.02505 0.0
C850 C 0.52652 0.34265 0.01988 0.0
C851 C 0.41549 0.24899 0.99067 0.0
C852 C 0.39562 0.22451 0.98043 0.0
C853 C 0.35936 0.23364 0.97536 0.0
C854 C 0.34647 0.21984 0.96492 0.0
C855 C 0.36954 0.1965 0.95935 0.0
C856 C 0.40388 0.18488 0.96454 0.0
C857 C 0.41705 0.19899 0.975 0.0
C858 C 0.51842 0.2271 1.01533 0.0
C859 C 0.37787 0.13361 0.01993 0.0
O860 O 0.50771 0.26304 0.04314 0.0
O861 O 0.4275 0.21662 0.04737 0.0
O862 O 0.42296 0.2785 0.02139 0.0
O863 O 0.37576 0.23903 0.03345 0.0
O864 O 0.51957 0.3127 0.02805 0.0
O865 O 0.49137 0.32589 1.01243 0.0
O866 O 0.38402 0.23419 0.99863 0.0
O867 O 0.46223 0.26048 0.99329 0.0
O868 O 0.47419 0.20867 0.01945 0.0
O869 O 0.51757 0.24976 1.00678 0.0
O870 O 0.38406 0.16193 1.01151 0.0
O871 O 0.40444 0.15534 0.02856 0.0
H872 H 0.56849 0.30858 0.05932 0.0
H873 H 0.58656 0.34554 0.07693 0.0
H874 H 0.42376 0.27402 0.08294 0.0
H875 H 0.40524 0.23706 0.06535 0.0
H876 H 0.34275 0.25369 0.97936 0.0
H877 H 0.31985 0.22903 0.96107 0.0
H878 H 0.42192 0.16672 0.96036 0.0
H879 H 0.44536 0.19178 0.97871 0.0
Tb880 Tb 0.80011 0.21715 0.03083 0.0
Tb881 Tb 0.79643 0.21503 1.00793 0.0
C882 C 0.79717 0.23084 0.05033 0.0
C883 C 0.76722 0.21059 0.06019 0.0
C884 C 0.75804 0.24381 0.06638 0.0
C885 C 0.73627 0.22893 0.07635 0.0
C886 C 0.72306 0.18036 0.0804 0.0
C887 C 0.73086 0.14639 0.07414 0.0
C888 C 0.75283 0.16136 0.06414 0.0
C889 C 0.77375 0.12464 0.02257 0.0
C890 C 0.69585 0.19454 0.01907 0.0
C891 C 0.79441 0.19142 0.98891 0.0
C892 C 0.82069 0.19849 0.97867 0.0
C893 C 0.83945 0.16576 0.97568 0.0
C894 C 0.85354 0.16446 0.96529 0.0
C895 C 0.84873 0.19548 0.95765 0.0
C896 C 0.83233 0.22987 0.9607 0.0
C897 C 0.81842 0.23133 0.97108 0.0
C898 C 0.81111 0.30363 1.01585 0.0
C899 C 0.90602 0.2571 1.01882 0.0
O900 O 0.7798 0.2497 0.04325 0.0
O901 O 0.81814 0.20605 0.04615 0.0
O902 O 0.76022 0.15615 0.01952 0.0
O903 O 0.80211 0.14469 0.03073 0.0
O904 O 0.72324 0.20869 0.02782 0.0
O905 O 0.71407 0.18338 1.01072 0.0
O906 O 0.80351 0.16805 0.99658 0.0
O907 O 0.78623 0.22784 0.99224 0.0
O908 O 0.83052 0.27736 0.01934 0.0
O909 O 0.78988 0.28417 1.007 0.0
O910 O 0.87685 0.23292 1.01063 0.0
O911 O 0.8839 0.26152 0.02743 0.0
H912 H 0.76925 0.28215 0.06363 0.0
H913 H 0.73074 0.25583 0.08102 0.0
H914 H 0.72106 0.10876 0.07709 0.0
H915 H 0.75972 0.13493 0.05963 0.0
H916 H 0.84083 0.13926 0.98124 0.0
H917 H 0.86593 0.13748 0.96311 0.0
H918 H 0.8281 0.25398 0.95494 0.0
H919 H 0.80329 0.25635 0.97302 0.0
Tb920 Tb 0.82356 0.59474 0.03085 0.0
Tb921 Tb 0.8183 0.59342 1.00786 0.0
C922 C 0.82759 0.58019 0.05009 0.0
C923 C 0.83237 0.57168 0.0614 0.0
C924 C 0.79396 0.56457 0.0686 0.0
C925 C 0.79887 0.55571 0.07921 0.0
C926 C 0.84224 0.55375 0.0828 0.0
C927 C 0.8806 0.56099 0.07564 0.0
C928 C 0.87578 0.56989 0.06508 0.0
C929 C 0.91008 0.66775 0.02147 0.0
C930 C 0.83253 0.50665 1.01873 0.0
C931 C 0.84218 0.6072 0.98873 0.0
C932 C 0.8337 0.62469 0.97836 0.0
C933 C 0.86827 0.67433 0.97473 0.0
C934 C 0.8652 0.68923 0.96449 0.0
C935 C 0.82585 0.65603 0.95748 0.0
C936 C 0.79402 0.60478 0.96104 0.0
C937 C 0.79711 0.58984 0.9713 0.0
C938 C 0.72514 0.53654 1.01665 0.0
C939 C 0.78002 0.65963 0.02016 0.0
O940 O 0.78836 0.58139 0.04584 0.0
O941 O 0.86384 0.5877 0.0435 0.0
O942 O 0.88102 0.62164 1.01872 0.0
O943 O 0.88876 0.67424 0.02963 0.0
O944 O 0.82313 0.52259 0.02765 0.0
O945 O 0.83559 0.53066 1.00985 0.0
O946 O 0.86619 0.64199 0.99598 0.0
O947 O 0.80573 0.56372 0.99259 0.0
O948 O 0.76777 0.54206 0.01978 0.0
O949 O 0.73486 0.56311 1.00809 0.0
O950 O 0.80275 0.65622 1.01154 0.0
O951 O 0.7793 0.63435 0.02871 0.0
H952 H 0.76004 0.56562 0.06602 0.0
H953 H 0.76873 0.55004 0.08461 0.0
H954 H 0.91428 0.55951 0.07823 0.0
H955 H 0.90609 0.57509 0.05977 0.0
H956 H 0.89946 0.7013 0.97968 0.0
H957 H 0.89597 0.72643 0.96212 0.0
H958 H 0.76794 0.57446 0.95592 0.0
H959 H 0.77208 0.5501 0.97354 0.0
Tb960 Tb 0.47086 0.92213 0.83959 0.0
Tb961 Tb 0.46597 0.91153 0.86397 0.0
C962 C 0.45643 0.93987 0.82097 0.0
C963 C 0.47964 0.95582 0.81042 0.0
C964 C 0.46906 0.98892 0.80447 0.0
C965 C 0.4843 0.99948 0.79399 0.0
C966 C 0.51044 0.97707 0.78923 0.0
C967 C 0.52243 0.94513 0.79522 0.0
C968 C 0.50714 0.93452 0.80572 0.0
C969 C 0.5038 0.86077 0.84718 0.0
C970 C 0.57522 0.98221 0.85205 0.0
C971 C 0.46864 0.88654 0.88278 0.0
C972 C 0.44345 0.8787 0.89321 0.0
C973 C 0.42075 0.82973 0.89791 0.0
C974 C 0.40087 0.82174 0.90808 0.0
C975 C 0.40338 0.8626 0.91388 0.0
C976 C 0.42547 0.91152 0.90919 0.0
C977 C 0.44537 0.91955 0.89898 0.0
C978 C 0.43498 0.97808 0.85726 0.0
C979 C 0.36677 0.83475 0.85103 0.0
O980 O 0.47253 0.97466 0.82839 0.0
O981 O 0.44684 0.89479 0.82442 0.0
O982 O 0.46843 0.86771 0.85078 0.0
O983 O 0.52122 0.88878 0.83879 0.0
O984 O 0.5503 0.98062 0.84333 0.0
O985 O 0.55013 0.95508 0.86049 0.0
O986 O 0.44225 0.85366 0.87541 0.0
O987 O 0.49639 0.93345 0.87915 0.0
O988 O 0.45259 0.95395 0.85235 0.0
O989 O 0.4346 0.96431 0.86686 0.0
O990 O 0.38994 0.8467 0.86026 0.0
O991 O 0.3897 0.86142 0.84242 0.0
H992 H 0.44749 1.00542 0.80785 0.0
H993 H 0.47462 0.02416 0.78952 0.0
H994 H 0.54257 0.92744 0.7917 0.0
H995 H 0.51561 0.90861 0.81006 0.0
H996 H 0.41924 0.7976 0.89375 0.0
H997 H 0.38407 0.78369 0.91149 0.0
H998 H 0.42783 0.94367 0.91348 0.0
H999 H 0.46292 0.95786 0.89569 0.0
Tb1000 Tb 0.11044 0.54309 0.84073 0.0
Tb1001 Tb 0.12239 0.55084 0.86496 0.0
C1002 C 0.09298 0.50958 0.82226 0.0
C1003 C 0.07541 0.51446 0.8117 0.0
C1004 C 0.04665 0.46963 0.80578 0.0
C1005 C 0.03449 0.47251 0.79534 0.0
C1006 C 0.05083 0.52036 0.79057 0.0
C1007 C 0.07832 0.56536 0.79656 0.0
C1008 C 0.09071 0.56247 0.80704 0.0
C1009 C 0.17156 0.63834 0.84787 0.0
C1010 C 0.04959 0.58642 0.85293 0.0
C1011 C 0.14776 0.58007 0.88366 0.0
C1012 C 0.15602 0.56322 0.89415 0.0
C1013 C 0.20619 0.57738 0.89754 0.0
C1014 C 0.21538 0.56707 0.90778 0.0
C1015 C 0.17474 0.54265 0.91494 0.0
C1016 C 0.12451 0.52787 0.91157 0.0
C1017 C 0.11526 0.53816 0.90132 0.0
C1018 C 0.05623 0.4521 0.85877 0.0
C1019 C 0.19872 0.52786 0.85218 0.0
O1020 O 0.05866 0.49007 0.82975 0.0
O1021 O 0.13746 0.54702 0.82552 0.0
O1022 O 0.16566 0.59666 0.85164 0.0
O1023 O 0.14273 0.62651 0.83957 0.0
O1024 O 0.05022 0.56167 0.8444 0.0
O1025 O 0.07846 0.59082 0.86125 0.0
O1026 O 0.18058 0.58678 0.87626 0.0
O1027 O 0.10061 0.56022 0.88006 0.0
O1028 O 0.07975 0.4933 0.85362 0.0
O1029 O 0.07041 0.46695 0.86829 0.0
O1030 O 0.18738 0.53982 0.86137 0.0
O1031 O 0.17157 0.52347 0.8436 0.0
H1032 H 0.03479 0.43223 0.80916 0.0
H1033 H 1.01315 0.43734 0.7909 0.0
H1034 H 0.0911 0.60267 0.79305 0.0
H1035 H 0.11316 0.59769 0.81141 0.0
H1036 H 0.2387 0.59758 0.89234 0.0
H1037 H 0.25444 0.57889 0.91017 0.0
H1038 H 0.09252 0.50902 0.91694 0.0
H1039 H 0.07628 0.52742 0.8991 0.0
Tb1040 Tb 0.4887 0.5635 0.84054 0.0
Tb1041 Tb 0.48936 0.56795 0.86349 0.0
C1042 C 0.51305 0.57467 0.8215 0.0
C1043 C 0.50327 0.55041 0.81099 0.0
C1044 C 0.52986 0.52533 0.80769 0.0
C1045 C 0.52885 0.51178 0.7972 0.0
C1046 C 0.50147 0.52322 0.78978 0.0
C1047 C 0.473 0.54609 0.7931 0.0
C1048 C 0.47398 0.55966 0.8036 0.0
C1049 C 0.39425 0.52805 0.84849 0.0
C1050 C 0.4507 0.45969 0.85295 0.0
C1051 C 0.49089 0.58864 0.88254 0.0
C1052 C 0.49433 0.60406 0.8937 0.0
C1053 C 0.46097 0.56984 0.90131 0.0
C1054 C 0.46537 0.58515 0.91181 0.0
C1055 C 0.50301 0.63502 0.91487 0.0
C1056 C 0.53598 0.66925 0.90727 0.0
C1057 C 0.53177 0.65397 0.89682 0.0
C1058 C 0.57826 0.58309 0.8549 0.0
C1059 C 0.50201 0.66472 0.85095 0.0
O1060 O 0.53512 0.56061 0.82863 0.0
O1061 O 0.47847 0.5843 0.82545 0.0
O1062 O 0.43603 0.5652 0.8518 0.0
O1063 O 0.40532 0.50994 0.84034 0.0
O1064 O 0.47578 0.48642 0.84455 0.0
O1065 O 0.44657 0.48375 0.86128 0.0
O1066 O 0.45318 0.54656 0.87843 0.0
O1067 O 0.52703 0.61754 0.87594 0.0
O1068 O 0.54883 0.59897 0.8518 0.0
O1069 O 0.55652 0.55595 0.86312 0.0
O1070 O 0.48517 0.63729 0.85962 0.0
O1071 O 0.51203 0.64509 0.84264 0.0
H1072 H 0.55348 0.51832 0.81311 0.0
H1073 H 0.55134 0.49446 0.79477 0.0
H1074 H 0.45194 0.55558 0.78749 0.0
H1075 H 0.45379 0.57969 0.80581 0.0
H1076 H 0.43172 0.53121 0.89916 0.0
H1077 H 0.43946 0.55815 0.91755 0.0
H1078 H 0.56518 0.70788 0.90944 0.0
H1079 H 0.55795 0.68148 0.89118 0.0
Tb1080 Tb 0.59752 0.79389 0.03093 0.0
Tb1081 Tb 0.59208 0.78979 1.00629 0.0
C1082 C 0.62848 0.79334 0.04926 0.0
C1083 C 0.6453 0.81877 0.05957 0.0
C1084 C 0.6777 0.80807 0.06572 0.0
C1085 C 0.68815 0.82432 0.07613 0.0
C1086 C 0.66649 0.85179 0.0806 0.0
C1087 C 0.63564 0.86434 0.07434 0.0
C1088 C 0.62491 0.84777 0.06392 0.0
C1089 C 0.52272 0.80712 0.02296 0.0
C1090 C 0.66084 0.8991 1.01818 0.0
C1091 C 0.56884 0.79094 0.98737 0.0
C1092 C 0.55877 0.76165 0.97741 0.0
C1093 C 0.509 0.72139 0.97487 0.0
C1094 C 0.49848 0.69792 0.96501 0.0
C1095 C 0.53736 0.71435 0.95743 0.0
C1096 C 0.58719 0.75385 0.95998 0.0
C1097 C 0.59774 0.77734 0.96982 0.0
C1098 C 0.65629 0.75826 1.01382 0.0
C1099 C 0.51708 0.68956 0.01964 0.0
O1100 O 0.6596 0.8124 0.04125 0.0
O1101 O 0.58012 0.77494 0.04668 0.0
O1102 O 0.56569 0.81951 1.01869 0.0
O1103 O 0.52668 0.79728 0.03268 0.0
O1104 O 0.64993 0.87575 0.02743 0.0
O1105 O 0.64126 0.87363 1.00926 0.0
O1106 O 0.53483 0.77021 0.99488 0.0
O1107 O 0.61627 0.8151 0.99095 0.0
O1108 O 0.62793 0.77161 1.0185 0.0
O1109 O 0.64823 0.76246 1.00403 0.0
O1110 O 0.52848 0.71301 1.01043 0.0
O1111 O 0.545 0.71149 0.02812 0.0
H1112 H 0.69343 0.78531 0.06258 0.0
H1113 H 0.71205 0.81428 0.08079 0.0
H1114 H 0.61861 0.8856 0.07763 0.0
H1115 H 0.59948 0.85618 0.05938 0.0
H1116 H 0.47778 0.70873 0.98042 0.0
H1117 H 0.45974 0.66759 0.96321 0.0
H1118 H 0.61773 0.76724 0.95425 0.0
H1119 H 0.63624 0.80872 0.97141 0.0
Tb1120 Tb 0.24506 0.817 0.02943 0.0
Tb1121 Tb 0.24416 0.82109 1.00611 0.0
C1122 C 0.25861 0.84286 0.04848 0.0
C1123 C 0.23289 0.83616 0.05882 0.0
C1124 C 0.21579 0.86988 0.06196 0.0
C1125 C 0.19728 0.86798 0.0721 0.0
C1126 C 0.19247 0.83058 0.0795 0.0
C1127 C 0.21432 0.8001 0.07646 0.0
C1128 C 0.23291 0.802 0.06631 0.0
C1129 C 0.21185 0.725 0.02049 0.0
C1130 C 0.13784 0.77749 1.01793 0.0
C1131 C 0.25173 0.81936 0.9864 0.0
C1132 C 0.28072 0.81953 0.9769 0.0
C1133 C 0.25583 0.78079 0.96934 0.0
C1134 C 0.27744 0.78557 0.95938 0.0
C1135 C 0.32438 0.82941 0.95672 0.0
C1136 C 0.35051 0.86709 0.9644 0.0
C1137 C 0.32897 0.86228 0.97436 0.0
C1138 C 0.25908 0.90705 1.01602 0.0
C1139 C 0.34627 0.83654 1.01749 0.0
O1140 O 0.24913 0.8676 0.04115 0.0
O1141 O 0.26313 0.80475 0.0447 0.0
O1142 O 0.24646 0.76844 1.01722 0.0
O1143 O 0.19615 0.73307 0.02937 0.0
O1144 O 0.1655 0.80066 0.02639 0.0
O1145 O 0.16065 0.77572 1.00922 0.0
O1146 O 0.22679 0.77773 0.99209 0.0
O1147 O 0.2712 0.86106 0.99204 0.0
O1148 O 0.27696 0.87811 1.01826 0.0
O1149 O 0.22974 0.88611 1.00798 0.0
O1150 O 0.3216 0.83138 1.00854 0.0
O1151 O 0.32475 0.83484 0.02663 0.0
H1152 H 0.2186 0.89944 0.05669 0.0
H1153 H 0.18917 0.8981 0.07408 0.0
H1154 H 0.21986 0.77597 0.08193 0.0
H1155 H 0.24928 0.77793 0.06446 0.0
H1156 H 0.21833 0.74784 0.97095 0.0
H1157 H 0.25653 0.75593 0.95362 0.0
H1158 H 0.38674 0.90122 0.96256 0.0
H1159 H 0.34912 0.89323 0.97991 0.0
Tb1160 Tb 0.22181 0.4436 0.03034 0.0
Tb1161 Tb 0.2242 0.43956 1.0076 0.0
C1162 C 0.19284 0.4333 0.04913 0.0
C1163 C 0.1981 0.41518 0.05965 0.0
C1164 C 0.16929 0.36275 0.06239 0.0
C1165 C 0.16733 0.34701 0.07277 0.0
C1166 C 0.19395 0.38329 0.08064 0.0
C1167 C 0.2243 0.43533 0.07789 0.0
C1168 C 0.22623 0.45113 0.06752 0.0
C1169 C 0.31784 0.49715 0.02283 0.0
C1170 C 0.26057 0.37329 0.02044 0.0
C1171 C 0.2279 0.44632 0.98782 0.0
C1172 C 0.22902 0.4743 0.9781 0.0
C1173 C 0.25974 0.47548 0.96971 0.0
C1174 C 0.25338 0.49068 0.9597 0.0
C1175 C 0.21603 0.50503 0.95783 0.0
C1176 C 0.18699 0.50639 0.9663 0.0
C1177 C 0.19333 0.49113 0.97633 0.0
C1178 C 0.13453 0.36905 1.01658 0.0
C1179 C 0.21092 0.52933 1.01788 0.0
O1180 O 0.16871 0.39867 0.04187 0.0
O1181 O 0.23185 0.47531 0.04539 0.0
O1182 O 0.27737 0.49363 1.01887 0.0
O1183 O 0.30414 0.46981 0.03128 0.0
O1184 O 0.23229 0.37648 0.02802 0.0
O1185 O 0.26733 0.39975 1.01169 0.0
O1186 O 0.26899 0.46259 0.99368 0.0
O1187 O 0.18582 0.42627 0.99333 0.0
O1188 O 0.16261 0.41597 1.01879 0.0
O1189 O 0.15844 0.36021 1.00921 0.0
O1190 O 0.21847 0.50999 1.00919 0.0
O1191 O 0.2087 0.50804 0.02708 0.0
H1192 H 0.14654 0.33399 0.05659 0.0
H1193 H 0.14349 0.30671 0.07473 0.0
H1194 H 0.24486 0.46396 0.08385 0.0
H1195 H 0.24809 0.49181 0.06573 0.0
H1196 H 0.28692 0.462 0.97077 0.0
H1197 H 0.27622 0.48928 0.95331 0.0
H1198 H 0.15796 0.51729 0.96507 0.0
H1199 H 0.16862 0.49022 0.98258 0.0
Tb1200 Tb 0.24523 0.43954 0.50668 0.0
Tb1201 Tb 0.24711 0.4394 0.52975 0.0
C1202 C 0.2531 0.46006 0.48724 0.0
C1203 C 0.27525 0.45812 0.4769 0.0
C1204 C 0.32034 0.50139 0.47315 0.0
C1205 C 0.33658 0.50352 0.46278 0.0
C1206 C 0.30799 0.4626 0.45589 0.0
C1207 C 0.26383 0.4188 0.45967 0.0
C1208 C 0.24756 0.41662 0.47003 0.0
C1209 C 0.27101 0.37283 0.51492 0.0
C1210 C 0.34596 0.52321 0.51867 0.0
C1211 C 0.24894 0.41417 0.54855 0.0
C1212 C 0.2235 0.39581 0.55888 0.0
C1213 C 0.23213 0.36057 0.56454 0.0
C1214 C 0.21738 0.34959 0.57504 0.0
C1215 C 0.19361 0.37362 0.58013 0.0
C1216 C 0.18298 0.40725 0.57438 0.0
C1217 C 0.19788 0.41839 0.56387 0.0
C1218 C 0.22791 0.5108 0.5221 0.0
C1219 C 0.13784 0.37403 0.51819 0.0
O1220 O 0.2841 0.49125 0.49436 0.0
O1221 O 0.21664 0.41753 0.49135 0.0
O1222 O 0.28398 0.41743 0.5181 0.0
O1223 O 0.24526 0.36623 0.50643 0.0
O1224 O 0.3169 0.51169 0.51019 0.0
O1225 O 0.32883 0.49363 0.52705 0.0
O1226 O 0.23625 0.38189 0.54074 0.0
O1227 O 0.2602 0.46022 0.5455 0.0
O1228 O 0.21263 0.46653 0.51831 0.0
O1229 O 0.24965 0.51323 0.531 0.0
O1230 O 0.16506 0.3806 0.52685 0.0
O1231 O 0.16132 0.39932 0.50953 0.0
H1232 H 0.34212 0.53455 0.47812 0.0
H1233 H 0.3706 0.5378 0.46005 0.0
H1234 H 0.241 0.38683 0.45449 0.0
H1235 H 0.21218 0.38313 0.47252 0.0
H1236 H 0.25242 0.34317 0.56095 0.0
H1237 H 0.226 0.32357 0.57929 0.0
H1238 H 0.16464 0.42622 0.57814 0.0
H1239 H 0.1911 0.44607 0.55978 0.0
Tb1240 Tb 0.59522 0.81334 0.50507 0.0
Tb1241 Tb 0.60091 0.81399 0.53017 0.0
C1242 C 0.57509 0.79239 0.48594 0.0
C1243 C 0.5763 0.81584 0.47565 0.0
C1244 C 0.5902 0.79844 0.46673 0.0
C1245 C 0.58375 0.81346 0.45673 0.0
C1246 C 0.56305 0.84602 0.45545 0.0
C1247 C 0.55102 0.86514 0.46436 0.0
C1248 C 0.55768 0.85031 0.47437 0.0
C1249 C 0.65762 0.90865 0.51288 0.0
C1250 C 0.51258 0.82568 0.51866 0.0
C1251 C 0.62966 0.84897 0.54833 0.0
C1252 C 0.64578 0.83824 0.55861 0.0
C1253 C 0.69554 0.87137 0.56237 0.0
C1254 C 0.71019 0.86566 0.57246 0.0
C1255 C 0.67645 0.82495 0.57915 0.0
C1256 C 0.62508 0.79453 0.57549 0.0
C1257 C 0.61044 0.80021 0.56538 0.0
C1258 C 0.5368 0.71898 0.52292 0.0
C1259 C 0.66253 0.77164 0.51732 0.0
O1260 O 0.54241 0.79161 0.49277 0.0
O1261 O 0.61892 0.80234 0.49024 0.0
O1262 O 0.63062 0.86633 0.51747 0.0
O1263 O 0.64993 0.89726 0.50308 0.0
O1264 O 0.52559 0.81557 0.50944 0.0
O1265 O 0.53974 0.83251 0.52732 0.0
O1266 O 0.66144 0.86066 0.54043 0.0
O1267 O 0.58128 0.82023 0.54554 0.0
O1268 O 0.56331 0.76052 0.51784 0.0
O1269 O 0.54804 0.73099 0.53272 0.0
O1270 O 0.65663 0.78953 0.5264 0.0
O1271 O 0.63997 0.77422 0.50849 0.0
H1272 H 0.60415 0.77152 0.46748 0.0
H1273 H 0.5931 0.79815 0.44996 0.0
H1274 H 0.53492 0.89023 0.46354 0.0
H1275 H 0.54644 0.86428 0.48108 0.0
H1276 H 0.72285 0.90326 0.55762 0.0
H1277 H 0.74768 0.89535 0.575 0.0
H1278 H 0.5945 0.76746 0.58044 0.0
H1279 H 0.57069 0.77583 0.56303 0.0
Tb1280 Tb 0.22528 0.79244 0.50667 0.0
Tb1281 Tb 0.21742 0.78742 0.52957 0.0
C1282 C 0.24613 0.79053 0.48757 0.0
C1283 C 0.2287 0.7598 0.47776 0.0
C1284 C 0.26316 0.74935 0.47232 0.0
C1285 C 0.25099 0.7273 0.46233 0.0
C1286 C 0.20411 0.71532 0.45753 0.0
C1287 C 0.16888 0.72425 0.46305 0.0
C1288 C 0.18102 0.7463 0.47306 0.0
C1289 C 0.13066 0.76551 0.51385 0.0
C1290 C 0.20011 0.68726 0.51777 0.0
C1291 C 0.1827 0.7844 0.54767 0.0
C1292 C 0.1886 0.80972 0.55798 0.0
C1293 C 0.14981 0.81939 0.56149 0.0
C1294 C 0.14814 0.83222 0.57194 0.0
C1295 C 0.18503 0.83529 0.57914 0.0
C1296 C 0.22533 0.82826 0.57556 0.0
C1297 C 0.22714 0.81563 0.5651 0.0
C1298 C 0.30682 0.80025 0.52362 0.0
C1299 C 0.2673 0.89902 0.51845 0.0
O1300 O 0.26428 0.77473 0.49512 0.0
O1301 O 0.21873 0.81005 0.4911 0.0
O1302 O 0.16174 0.75235 0.51738 0.0
O1303 O 0.15216 0.7933 0.50569 0.0
O1304 O 0.21009 0.71381 0.50901 0.0
O1305 O 0.19503 0.70671 0.52668 0.0
O1306 O 0.16867 0.80063 0.53946 0.0
O1307 O 0.2153 0.76907 0.54534 0.0
O1308 O 0.28268 0.81994 0.51903 0.0
O1309 O 0.28454 0.78062 0.53243 0.0
O1310 O 0.25027 0.8717 0.52721 0.0
O1311 O 0.26298 0.87554 0.50947 0.0
H1312 H 0.30037 0.75985 0.47566 0.0
H1313 H 0.27876 0.72078 0.45822 0.0
H1314 H 0.13246 0.71525 0.45952 0.0
H1315 H 0.15367 0.75411 0.47697 0.0
H1316 H 0.11914 0.81436 0.55627 0.0
H1317 H 0.11664 0.83737 0.57454 0.0
H1318 H 0.25414 0.83035 0.58097 0.0
H1319 H 0.25733 0.80798 0.56273 0.0
Tb1320 Tb 0.11396 0.56007 0.36508 0.0
Tb1321 Tb 0.1188 0.56358 0.34224 0.0
C1322 C 0.12615 0.56163 0.38474 0.0
C1323 C 0.13775 0.59222 0.39456 0.0
C1324 C 0.18869 0.62831 0.39745 0.0
C1325 C 0.19974 0.65052 0.40744 0.0
C1326 C 0.16022 0.63691 0.41478 0.0
C1327 C 0.10929 0.602 0.41184 0.0
C1328 C 0.09821 0.57987 0.40186 0.0
C1329 C 0.04752 0.58456 0.35605 0.0
C1330 C 0.19959 0.6636 0.35384 0.0
C1331 C 0.09664 0.56647 0.32328 0.0
C1332 C 0.07796 0.54068 0.313 0.0
C1333 C 0.02747 0.52515 0.30966 0.0
C1334 C 1.01307 0.51218 0.2992 0.0
C1335 C 0.04895 0.51485 0.29182 0.0
C1336 C 0.09852 0.52768 0.29522 0.0
C1337 C 0.11291 0.54051 0.30568 0.0
C1338 C 0.18898 0.54441 0.35051 0.0
C1339 C 0.04979 0.45365 0.35313 0.0
O1340 O 0.16293 0.57393 0.37797 0.0
O1341 O 0.08189 0.54644 0.38017 0.0
O1342 O 0.09382 0.59993 0.35348 0.0
O1343 O 0.03856 0.55553 0.36412 0.0
O1344 O 0.18269 0.63728 0.36268 0.0
O1345 O 0.17557 0.64436 0.34492 0.0
O1346 O 0.06393 0.55564 0.33095 0.0
O1347 O 0.14188 0.57601 0.32658 0.0
O1348 O 0.1437 0.52812 0.35394 0.0
O1349 O 0.19205 0.56504 0.34146 0.0
O1350 O 0.05989 0.4814 0.34446 0.0
O1351 O 0.07163 0.47642 0.36208 0.0
H1352 H 0.22028 0.63818 0.39212 0.0
H1353 H 0.23934 0.67729 0.40955 0.0
H1354 H 0.07821 0.59086 0.41737 0.0
H1355 H 0.05874 0.55157 0.39999 0.0
H1356 H 0.99986 0.52574 0.31501 0.0
H1357 H 0.97469 0.50261 0.29674 0.0
H1358 H 0.12687 0.53023 0.28966 0.0
H1359 H 0.15234 0.55305 0.3079 0.0
Tb1360 Tb 0.4745 0.54672 0.36473 0.0
Tb1361 Tb 0.46407 0.54586 0.34219 0.0
C1362 C 0.47232 0.558 0.38434 0.0
C1363 C 0.43932 0.53484 0.39379 0.0
C1364 C 0.40492 0.55079 0.39711 0.0
C1365 C 0.37765 0.53278 0.40653 0.0
C1366 C 0.38133 0.49578 0.41285 0.0
C1367 C 0.42007 0.48431 0.40985 0.0
C1368 C 0.44737 0.5023 0.40044 0.0
C1369 C 0.45198 0.45628 0.35588 0.0
C1370 C 0.36346 0.51531 0.35488 0.0
C1371 C 0.46009 0.52959 0.32272 0.0
C1372 C 0.486 0.52976 0.31279 0.0
C1373 C 0.48764 0.48582 0.30952 0.0
C1374 C 0.5018 0.482 0.29926 0.0
C1375 C 0.51419 0.52179 0.29202 0.0
C1376 C 0.51479 0.56655 0.29539 0.0
C1377 C 0.50081 0.57047 0.30564 0.0
C1378 C 0.47476 0.63103 0.35093 0.0
C1379 C 0.5763 0.58672 0.35204 0.0
O1380 O 0.45784 0.58037 0.37743 0.0
O1381 O 0.49209 0.53268 0.37988 0.0
O1382 O 0.43417 0.48525 0.35352 0.0
O1383 O 0.48253 0.47786 0.36371 0.0
O1384 O 0.39418 0.52981 0.36314 0.0
O1385 O 0.38215 0.51409 0.34561 0.0
O1386 O 0.45083 0.49452 0.3298 0.0
O1387 O 0.47112 0.57365 0.32687 0.0
O1388 O 0.49932 0.60817 0.35349 0.0
O1389 O 0.44594 0.60761 0.34299 0.0
O1390 O 0.5448 0.56212 0.34413 0.0
O1391 O 0.55682 0.59213 0.36089 0.0
H1392 H 0.40026 0.57879 0.39261 0.0
H1393 H 0.35551 0.55035 0.40888 0.0
H1394 H 0.4318 0.46312 0.41486 0.0
H1395 H 0.47631 0.49204 0.39856 0.0
H1396 H 0.47567 0.45334 0.31472 0.0
H1397 H 0.50093 0.44703 0.29683 0.0
H1398 H 0.52399 0.59763 0.28995 0.0
H1399 H 0.49911 0.60445 0.3078 0.0
Tb1400 Tb 0.4812 0.92041 0.36472 0.0
Tb1401 Tb 0.48296 0.91862 0.34017 0.0
C1402 C 0.45757 0.90461 0.38378 0.0
C1403 C 0.4793 0.89919 0.39385 0.0
C1404 C 0.48907 0.85851 0.39566 0.0
C1405 C 0.50519 0.85165 0.40553 0.0
C1406 C 0.51196 0.88527 0.41377 0.0
C1407 C 0.50334 0.92648 0.41193 0.0
C1408 C 0.48706 0.93327 0.40208 0.0
C1409 C 0.57729 0.98315 0.35712 0.0
C1410 C 0.50107 0.83698 0.35373 0.0
C1411 C 0.51453 0.93278 0.32153 0.0
C1412 C 0.50687 0.95024 0.3111 0.0
C1413 C 0.5413 1.00006 0.30755 0.0
C1414 C 0.5374 0.01568 0.29742 0.0
C1415 C 0.49731 0.98303 0.29049 0.0
C1416 C 0.46614 0.9314 0.29389 0.0
C1417 C 0.47 0.91574 0.30403 0.0
C1418 C 0.39005 0.86087 0.3487 0.0
C1419 C 0.43916 0.98369 0.35122 0.0
O1420 O 0.44388 0.8679 0.37687 0.0
O1421 O 0.47969 0.95036 0.37947 0.0
O1422 O 0.53472 0.95713 0.35249 0.0
O1423 O 0.56547 0.97421 0.3669 0.0
O1424 O 0.49583 0.85653 0.36263 0.0
O1425 O 0.5006 0.85693 0.34441 0.0
O1426 O 0.53568 0.96754 0.32891 0.0
O1427 O 0.47788 0.88863 0.32513 0.0
O1428 O 0.43346 0.87114 0.35235 0.0
O1429 O 0.39892 0.88042 0.33932 0.0
O1430 O 0.45905 0.97657 0.34252 0.0
O1431 O 0.44012 0.96209 0.36026 0.0
H1432 H 0.48334 0.83137 0.38953 0.0
H1433 H 0.51147 0.81951 0.4068 0.0
H1434 H 0.50809 0.9527 0.41819 0.0
H1435 H 0.47944 0.96465 0.40096 0.0
H1436 H 0.57266 0.02677 0.31249 0.0
H1437 H 0.56784 0.05313 0.29508 0.0
H1438 H 0.43977 0.90145 0.28873 0.0
H1439 H 0.44502 0.87589 0.30619 0.0
C1440 C 0.12749 0.11043 0.18072 0.0
C1441 C 0.17229 0.15796 0.18312 0.0
C1442 C 0.2203 0.11128 0.18517 0.0
C1443 C 0.17359 0.06353 0.18424 0.0
N1444 N 0.08083 0.01871 0.1836 0.0
N1445 N 0.26151 0.20357 0.18828 0.0
C1446 C 0.12665 0.0635 0.18279 0.0
C1447 C 0.21885 0.15835 0.18554 0.0
N1448 N 0.08668 0.10977 0.17581 0.0
N1449 N 0.26604 0.11169 0.18544 0.0
H1450 H 0.26194 0.23854 0.1884 0.0
H1451 H 0.29521 0.20596 0.19113 0.0
H1452 H 0.26801 0.07803 0.18509 0.0
H1453 H 0.30183 0.14514 0.18514 0.0
H1454 H 0.05503 0.07614 0.17305 0.0
H1455 H 0.08715 0.1431 0.17338 0.0
H1456 H 0.0453 0.01711 0.18341 0.0
H1457 H 0.07866 0.9841 0.1856 0.0
C1458 C 0.93958 0.1296 0.18297 0.0
C1459 C 0.98395 0.13299 0.18778 0.0
C1460 C 0.93417 0.03993 0.19147 0.0
C1461 C 0.89231 0.03478 0.18525 0.0
N1462 N 0.85505 0.07618 0.17521 0.0
N1463 N 0.02455 0.08982 0.19604 0.0
C1464 C 0.89504 0.08023 0.18109 0.0
C1465 C 0.9812 0.08792 0.19205 0.0
N1466 N 0.93947 0.17391 0.18054 0.0
N1467 N 0.92955 0.99862 0.19675 0.0
H1468 H 0.06028 0.12313 0.1965 0.0
H1469 H 0.02682 0.0575 0.19813 0.0
H1470 H 0.89733 0.96311 0.19599 0.0
H1471 H 0.95484 1.0004 0.20253 0.0
H1472 H 0.90702 0.17496 0.17798 0.0
H1473 H 0.97092 0.21033 0.18202 0.0
H1474 H 0.85702 0.10616 0.17077 0.0
H1475 H 0.81997 0.04201 0.17451 0.0
C1476 C 0.97993 0.84914 0.19182 0.0
C1477 C 1.01316 0.87558 0.18331 0.0
C1478 C 0.95198 0.90294 0.17762 0.0
C1479 C 0.91512 0.86973 0.18509 0.0
N1480 N 0.89215 0.80474 0.19833 0.0
N1481 N 0.02767 0.92434 0.16739 0.0
C1482 C 0.92867 0.84115 0.19196 0.0
C1483 C 0.99778 0.90073 0.17592 0.0
N1484 N 0.99753 0.83256 0.19992 0.0
N1485 N 0.94571 0.93999 0.17273 0.0
H1486 H 0.06446 0.92967 0.16637 0.0
H1487 H 1.01475 0.93683 0.16108 0.0
H1488 H 0.91534 0.94636 0.1743 0.0
H1489 H 0.97399 0.96877 0.1681 0.0
H1490 H 0.97701 0.81772 0.20681 0.0
H1491 H 0.03469 0.83812 0.2001 0.0
H1492 H 0.8985 0.7793 0.20277 0.0
H1493 H 0.85394 0.79641 0.19837 0.0
C1494 C 0.11781 0.13636 0.36181 0.0
C1495 C 0.15848 0.16491 0.35465 0.0
C1496 C 0.10514 0.19701 0.34638 0.0
C1497 C 0.06275 0.16414 0.35286 0.0
N1498 N 0.02657 0.09253 0.36488 0.0
N1499 N 0.18874 0.21805 0.33929 0.0
C1500 C 0.06874 0.13161 0.36015 0.0
C1501 C 0.15144 0.19391 0.34667 0.0
N1502 N 0.12507 0.11201 0.3701 0.0
N1503 N 0.10201 0.23271 0.34028 0.0
H1504 H 0.22342 0.21788 0.33947 0.0
H1505 H 0.18387 0.23507 0.33263 0.0
H1506 H 0.06945 0.23682 0.34009 0.0
H1507 H 0.13309 0.26122 0.33615 0.0
H1508 H 0.09989 0.09795 0.37642 0.0
H1509 H 0.15709 0.10762 0.37097 0.0
H1510 H 0.02747 0.06406 0.36938 0.0
H1511 H 0.98953 0.08445 0.36324 0.0
C1512 C 0.82887 0.90031 0.35369 0.0
C1513 C 0.86983 0.89537 0.34937 0.0
C1514 C 0.91684 0.98837 0.34568 0.0
C1515 C 0.8794 0.99477 0.35124 0.0
N1516 N 0.79874 0.95655 0.36043 0.0
N1517 N 0.95437 0.93554 0.3415 0.0
C1518 C 0.83477 0.95043 0.35511 0.0
C1519 C 0.91368 0.93944 0.34523 0.0
N1520 N 0.78388 0.85679 0.35619 0.0
N1521 N 0.95624 0.0296 0.34087 0.0
H1522 H 0.95465 0.90118 0.34088 0.0
H1523 H 0.99014 0.96689 0.33968 0.0
H1524 H 0.96117 0.06582 0.34168 0.0
H1525 H 0.98099 0.02758 0.33546 0.0
H1526 H 0.75057 0.85664 0.35852 0.0
H1527 H 0.77857 0.81999 0.35512 0.0
H1528 H 0.7683 0.92727 0.36454 0.0
H1529 H 0.80035 0.992 0.36101 0.0
C1530 C 0.07746 0.87821 0.34844 0.0
C1531 C 0.03392 0.87759 0.35303 0.0
C1532 C 0.08327 0.97199 0.35396 0.0
C1533 C 0.12878 0.97238 0.35083 0.0
N1534 N 0.17043 0.9251 0.34572 0.0
N1535 N 1.00017 0.92458 0.36225 0.0
C1536 C 0.12618 0.92521 0.34818 0.0
C1537 C 0.0382 0.92468 0.35638 0.0
N1538 N 0.07208 0.83408 0.34421 0.0
N1539 N 0.08227 0.0169 0.35419 0.0
H1540 H 0.9668 0.89107 0.3644 0.0
H1541 H 1.00393 0.9576 0.36576 0.0
H1542 H 0.11367 0.05176 0.35188 0.0
H1543 H 0.0486 0.01831 0.35534 0.0
H1544 H 0.10075 0.83265 0.33991 0.0
H1545 H 0.03722 0.79947 0.3443 0.0
H1546 H 0.1724 0.89169 0.34478 0.0
H1547 H 0.2061 0.95879 0.34531 0.0
C1548 C 0.89407 0.90148 0.8448 0.0
C1549 C 0.86447 0.86656 0.85279 0.0
C1550 C 0.82786 0.92259 0.8564 0.0
C1551 C 0.86812 0.96348 0.85064 0.0
N1552 N 0.94581 0.99128 0.84039 0.0
N1553 N 0.79802 0.84233 0.86575 0.0
C1554 C 0.90269 0.95273 0.845 0.0
C1555 C 0.82992 0.87681 0.85849 0.0
N1556 N 0.91334 0.88582 0.83694 0.0
N1557 N 0.78582 0.92591 0.85925 0.0
H1558 H 0.79362 0.80578 0.86661 0.0
H1559 H 0.77694 0.85067 0.87106 0.0
H1560 H 0.78064 0.95598 0.85673 0.0
H1561 H 0.75335 0.89591 0.86276 0.0
H1562 H 0.93308 0.90912 0.83059 0.0
H1563 H 0.90182 0.84719 0.83599 0.0
H1564 H 0.97335 0.98492 0.83682 0.0
H1565 H 0.95782 0.03012 0.84127 0.0
C1566 C 0.09245 0.99842 0.85163 0.0
C1567 C 0.14283 1.00533 0.85208 0.0
C1568 C 0.10426 0.91085 0.85173 0.0
C1569 C 0.05438 0.90492 0.85267 0.0
N1570 N 1.00347 0.9444 0.85651 0.0
N1571 N 0.19569 0.9664 0.85488 0.0
C1572 C 0.04918 0.94911 0.85345 0.0
C1573 C 0.14871 0.96107 0.85266 0.0
N1574 N 0.08579 0.03914 0.84938 0.0
N1575 N 0.10926 0.86868 0.85004 0.0
H1576 H 0.22856 1.00196 0.8561 0.0
H1577 H 0.20109 0.93534 0.85644 0.0
H1578 H 0.07762 0.8315 0.84966 0.0
H1579 H 0.14433 0.87115 0.84826 0.0
H1580 H 0.04981 0.03586 0.8483 0.0
H1581 H 0.11648 0.07486 0.84734 0.0
H1582 H 0.99899 0.97584 0.85825 0.0
H1583 H 0.97203 0.90914 0.85858 0.0
C1584 C 0.06582 0.1668 0.84379 0.0
C1585 C 0.04185 0.1596 0.85367 0.0
C1586 C 0.12606 0.18708 0.86208 0.0
C1587 C 0.1453 0.17998 0.85247 0.0
N1588 N 0.14472 0.19407 0.83398 0.0
N1589 N 0.0534 0.17842 0.87208 0.0
C1590 C 0.11841 0.17873 0.84318 0.0
C1591 C 0.07342 0.17459 0.86278 0.0
N1592 N 0.03848 0.16311 0.83503 0.0
N1593 N 0.15937 0.21094 0.87016 0.0
H1594 H 1.01936 0.17979 0.87254 0.0
H1595 H 0.07044 0.18057 0.87929 0.0
H1596 H 0.19913 0.22878 0.86924 0.0
H1597 H 0.14902 0.21986 0.87726 0.0
H1598 H 0.04947 0.15973 0.82751 0.0
H1599 H 1.00497 0.16521 0.83544 0.0
H1600 H 0.12858 0.19584 0.82691 0.0
H1601 H 0.18476 0.21175 0.83366 0.0
C1602 C 0.94903 0.92486 0.68546 0.0
C1603 C 0.89846 0.88148 0.68484 0.0
C1604 C 0.93606 0.8251 0.68702 0.0
C1605 C 0.98592 0.86894 0.68785 0.0
N1606 N 0.03625 0.95964 0.69167 0.0
N1607 N 0.84367 0.79083 0.68821 0.0
C1608 C 0.99118 0.91844 0.68832 0.0
C1609 C 0.89181 0.83164 0.68665 0.0
N1610 N 0.95757 0.97259 0.683 0.0
N1611 N 0.93099 0.77738 0.68649 0.0
H1612 H 0.81134 0.79501 0.68862 0.0
H1613 H 0.83654 0.75429 0.69029 0.0
H1614 H 0.96238 0.77157 0.68728 0.0
H1615 H 0.89642 0.74423 0.68472 0.0
H1616 H 0.9941 1.00461 0.68209 0.0
H1617 H 0.92789 0.9791 0.6811 0.0
H1618 H 0.04027 0.99555 0.69321 0.0
H1619 H 0.06796 0.95682 0.69404 0.0
C1620 C 0.13036 0.08286 0.67794 0.0
C1621 C 0.16635 0.12262 0.68459 0.0
C1622 C 0.19452 0.06329 0.69119 0.0
C1623 C 0.16399 0.02645 0.68353 0.0
N1624 N 0.10329 1.00164 0.66927 0.0
N1625 N 0.23782 0.15284 0.69655 0.0
C1626 C 0.13238 0.03664 0.67675 0.0
C1627 C 0.19971 0.11331 0.69098 0.0
N1628 N 0.0918 0.08764 0.6733 0.0
N1629 N 0.21751 0.05011 0.69885 0.0
H1630 H 0.24359 0.19011 0.69639 0.0
H1631 H 0.26662 0.14989 0.70051 0.0
H1632 H 0.21344 1.01359 0.69934 0.0
H1633 H 0.23619 0.07344 0.70525 0.0
H1634 H 0.06136 0.05819 0.6692 0.0
H1635 H 0.087 0.11933 0.67439 0.0
H1636 H 0.08553 1.00983 0.66316 0.0
H1637 H 0.09846 0.96484 0.66887 0.0
C1638 C 0.92699 0.09108 0.69265 0.0
C1639 C 0.9076 0.05718 0.68394 0.0
C1640 C 0.98382 0.11931 0.67376 0.0
C1641 C 1.0053 0.15079 0.68278 0.0
N1642 N 1.00029 0.16213 0.70125 0.0
N1643 N 0.92317 0.03685 0.66645 0.0
C1644 C 0.97777 0.13514 0.69235 0.0
C1645 C 0.93696 0.07121 0.6745 0.0
N1646 N 0.8957 0.08271 0.70104 0.0
N1647 N 1.00899 0.13406 0.66442 0.0
H1648 H 0.89085 1.00052 0.66642 0.0
H1649 H 0.9468 0.04175 0.66011 0.0
H1650 H 0.04797 0.16074 0.66369 0.0
H1651 H 0.99075 0.11974 0.65728 0.0
H1652 H 0.90536 0.10847 0.70721 0.0
H1653 H 0.85762 0.0527 0.70132 0.0
H1654 H 0.98518 0.14944 0.70867 0.0
H1655 H 0.03627 0.19541 0.70129 0.0
C1656 C 0.79091 0.38999 0.52304 0.0
C1657 C 0.83524 0.38831 0.51967 0.0
C1658 C 0.87294 0.47781 0.5135 0.0
C1659 C 0.82994 0.48055 0.51745 0.0
N1660 N 0.75386 0.44165 0.52818 0.0
N1661 N 0.9239 0.43544 0.51427 0.0
C1662 C 0.79122 0.43762 0.52302 0.0
C1663 C 0.8779 0.43372 0.51566 0.0
N1664 N 0.74672 0.34559 0.52556 0.0
N1665 N 0.90878 0.5169 0.50748 0.0
H1666 H 0.92927 0.40473 0.51624 0.0
H1667 H 0.95783 0.46888 0.51231 0.0
H1668 H 0.90855 0.55108 0.50618 0.0
H1669 H 0.93725 0.51429 0.50334 0.0
H1670 H 0.71146 0.34375 0.52676 0.0
H1671 H 0.74343 0.30947 0.52544 0.0
H1672 H 0.72805 0.41391 0.53334 0.0
H1673 H 0.75248 0.47524 0.52814 0.0
C1674 C 0.59593 0.37636 0.52689 0.0
C1675 C 0.56342 0.35966 0.51801 0.0
C1676 C 0.60711 0.44964 0.51165 0.0
C1677 C 0.64057 0.46541 0.52049 0.0
N1678 N 0.64247 0.44652 0.53884 0.0
N1679 N 0.53073 0.3824 0.50291 0.0
C1680 C 0.62757 0.42981 0.52886 0.0
C1681 C 0.56678 0.39703 0.51067 0.0
N1682 N 0.59918 0.34155 0.53322 0.0
N1683 N 0.61296 0.48536 0.50437 0.0
H1684 H 0.50031 0.34481 0.5021 0.0
H1685 H 0.52796 0.40779 0.49778 0.0
H1686 H 0.63465 0.52466 0.50586 0.0
H1687 H 0.596 0.47647 0.49701 0.0
H1688 H 0.62594 0.35234 0.53927 0.0
H1689 H 0.5796 0.30241 0.53161 0.0
H1690 H 0.6315 0.42146 0.54519 0.0
H1691 H 0.65731 0.48479 0.54101 0.0
C1692 C 0.58423 0.16268 0.5117 0.0
C1693 C 0.57091 0.18011 0.52084 0.0
C1694 C 0.65444 0.19821 0.52845 0.0
C1695 C 0.67273 0.19684 0.51833 0.0
N1696 N 0.65138 0.16661 0.50059 0.0
N1697 N 0.58769 0.19683 0.53933 0.0
C1698 C 0.63647 0.17577 0.51002 0.0
C1699 C 0.60435 0.1926 0.52968 0.0
N1700 N 0.54626 0.12936 0.50513 0.0
N1701 N 0.68365 0.20159 0.5369 0.0
H1702 H 0.54873 0.1795 0.54119 0.0
H1703 H 0.61228 0.21521 0.54559 0.0
H1704 H 0.71674 0.19895 0.53614 0.0
H1705 H 0.67233 0.20028 0.54461 0.0
H1706 H 0.5529 0.11236 0.4987 0.0
H1707 H 0.50741 0.11236 0.50708 0.0
H1708 H 0.62917 0.15862 0.49384 0.0
H1709 H 0.68629 0.1675 0.4995 0.0
C1710 C 0.80852 0.52364 0.69294 0.0
C1711 C 0.82248 0.50144 0.6847 0.0
C1712 C 0.75577 0.50271 0.67358 0.0
C1713 C 0.73675 0.51757 0.68237 0.0
N1714 N 0.76486 0.57014 0.69782 0.0
N1715 N 0.82603 0.49452 0.66618 0.0
C1716 C 0.76908 0.53644 0.69132 0.0
C1717 C 0.80098 0.49821 0.67469 0.0
N1718 N 0.83372 0.53369 0.70229 0.0
N1719 N 0.73218 0.4943 0.66409 0.0
H1720 H 0.86245 0.49864 0.66689 0.0
H1721 H 0.81489 0.49502 0.6585 0.0
H1722 H 0.70981 0.51039 0.66194 0.0
H1723 H 0.73732 0.47369 0.65815 0.0
H1724 H 0.82069 0.54296 0.70902 0.0
H1725 H 0.86731 0.53189 0.70332 0.0
H1726 H 0.78968 0.58835 0.70406 0.0
H1727 H 0.74131 0.58554 0.69604 0.0
C1728 C 0.59077 0.28507 0.6794 0.0
C1729 C 0.54664 0.24111 0.68356 0.0
C1730 C 0.51217 0.29722 0.68882 0.0
C1731 C 0.5551 0.34018 0.68412 0.0
N1732 N 0.62772 0.37142 0.67259 0.0
N1733 N 0.4601 0.20411 0.69019 0.0
C1734 C 0.59164 0.33269 0.67861 0.0
C1735 C 0.50566 0.24681 0.68765 0.0
N1736 N 0.63394 0.28291 0.67695 0.0
N1737 N 0.4788 0.30477 0.69477 0.0
H1738 H 0.45388 0.1669 0.68933 0.0
H1739 H 0.42712 0.20535 0.69223 0.0
H1740 H 0.48163 0.34067 0.69557 0.0
H1741 H 0.45028 0.27618 0.69938 0.0
H1742 H 0.6691 0.31534 0.67518 0.0
H1743 H 0.63664 0.25002 0.67783 0.0
H1744 H 0.65219 0.36675 0.66752 0.0
H1745 H 0.62906 0.40647 0.67182 0.0
C1746 C 0.76361 0.29024 0.67595 0.0
C1747 C 0.80144 0.30719 0.68406 0.0
C1748 C 0.7439 0.22802 0.69383 0.0
C1749 C 0.70663 0.21241 0.68576 0.0
N1750 N 0.69604 0.21477 0.66732 0.0
N1751 N 0.83447 0.27856 0.69827 0.0
C1752 C 0.72159 0.23886 0.67618 0.0
C1753 C 0.79377 0.27193 0.6923 0.0
N1754 N 0.76461 0.32313 0.66846 0.0
N1755 N 0.73211 0.20046 0.70288 0.0
H1756 H 0.87232 0.30683 0.69667 0.0
H1757 H 0.83163 0.25199 0.70385 0.0
H1758 H 0.69825 0.16521 0.70377 0.0
H1759 H 0.75533 0.21344 0.70951 0.0
H1760 H 0.73562 0.31189 0.66287 0.0
H1761 H 0.7896 0.36263 0.6686 0.0
H1762 H 0.70683 0.23158 0.65995 0.0
H1763 H 0.66993 0.17539 0.6674 0.0
C1764 C 0.51272 0.22844 0.19417 0.0
C1765 C 0.54205 0.21691 0.18709 0.0
C1766 C 0.571 0.29988 0.17839 0.0
C1767 C 0.54049 0.31117 0.18521 0.0
N1768 N 0.46993 0.27765 0.19744 0.0
N1769 N 0.58045 0.23265 0.17013 0.0
C1770 C 0.50757 0.27282 0.19247 0.0
C1771 C 0.56483 0.24962 0.1784 0.0
N1772 N 0.48965 0.19699 0.20252 0.0
N1773 N 0.60874 0.33765 0.17244 0.0
H1774 H 0.57165 0.19453 0.1697 0.0
H1775 H 0.59465 0.25366 0.16325 0.0
H1776 H 0.61824 0.37605 0.17277 0.0
H1777 H 0.63484 0.33184 0.16813 0.0
H1778 H 0.47343 0.2067 0.20866 0.0
H1779 H 0.48838 0.16185 0.20348 0.0
H1780 H 0.44185 0.24885 0.20209 0.0
H1781 H 0.46318 0.30797 0.19597 0.0
C1782 C 0.82151 0.3035 0.18564 0.0
C1783 C 0.81739 0.34878 0.18598 0.0
C1784 C 0.72357 0.29508 0.18754 0.0
C1785 C 0.72637 0.24952 0.18675 0.0
N1786 N 0.77796 0.21008 0.18356 0.0
N1787 N 0.76213 0.38393 0.18276 0.0
C1788 C 0.77547 0.25362 0.18535 0.0
C1789 C 0.76766 0.34325 0.18557 0.0
N1790 N 0.86905 0.30801 0.1857 0.0
N1791 N 0.67928 0.29306 0.1907 0.0
H1792 H 0.79318 0.4175 0.18003 0.0
H1793 H 0.72654 0.38142 0.18151 0.0
H1794 H 0.64775 0.25908 0.19313 0.0
H1795 H 0.67651 0.32565 0.1923 0.0
H1796 H 0.87532 0.27721 0.18681 0.0
H1797 H 0.90253 0.34328 0.18472 0.0
H1798 H 0.81161 0.21027 0.1815 0.0
H1799 H 0.74532 0.17349 0.18356 0.0
C1800 C 0.77311 0.4879 0.19517 0.0
C1801 C 0.80754 0.51335 0.18664 0.0
C1802 C 0.7381 0.5224 0.178 0.0
C1803 C 0.70584 0.50091 0.18684 0.0
N1804 N 0.69066 0.45915 0.20352 0.0
N1805 N 0.8236 0.55997 0.17045 0.0
C1806 C 0.72294 0.48248 0.19528 0.0
C1807 C 0.78993 0.53157 0.17816 0.0
N1808 N 0.78653 0.46563 0.20295 0.0
N1809 N 0.71863 0.53288 0.1693 0.0
H1810 H 0.86156 0.56798 0.17028 0.0
H1811 H 0.8156 0.57949 0.16469 0.0
H1812 H 0.68151 0.52738 0.16906 0.0
H1813 H 0.73723 0.54287 0.16212 0.0
H1814 H 0.76021 0.43752 0.20796 0.0
H1815 H 0.82373 0.47371 0.20443 0.0
H1816 H 0.70277 0.4541 0.21083 0.0
H1817 H 0.65117 0.44504 0.20307 0.0
C1818 C 0.6468 0.23529 1.01143 0.0
C1819 C 0.64738 0.19819 1.01825 0.0
C1820 C 0.55997 0.17708 0.02409 0.0
C1821 C 0.56318 0.21867 1.01804 0.0
N1822 N 0.62359 0.30089 1.01058 0.0
N1823 N 0.60684 0.14068 0.03279 0.0
C1824 C 0.61091 0.25191 1.01316 0.0
C1825 C 0.60479 0.17138 0.02517 0.0
N1826 N 0.67951 0.25482 1.00316 0.0
N1827 N 0.51478 0.14238 0.02866 0.0
H1828 H 0.63789 0.13456 0.03367 0.0
H1829 H 0.57956 0.12463 0.03872 0.0
H1830 H 0.48232 0.14622 0.02867 0.0
H1831 H 0.50883 0.10809 0.03197 0.0
H1832 H 0.67781 0.28036 0.99786 0.0
H1833 H 0.70215 0.23992 1.00059 0.0
H1834 H 0.65955 0.32761 1.00759 0.0
H1835 H 0.60127 0.31649 1.01303 0.0
C1836 C 0.86903 0.40117 1.01515 0.0
C1837 C 0.82373 0.35724 0.0189 0.0
C1838 C 0.78445 0.41113 0.0219 0.0
C1839 C 0.83021 0.45556 1.01858 0.0
N1840 N 0.91923 0.49455 1.01351 0.0
N1841 N 0.74618 0.32544 0.02892 0.0
C1842 C 0.87353 0.45108 1.01562 0.0
C1843 C 0.78386 0.36388 0.02317 0.0
N1844 N 0.90726 0.39491 1.01094 0.0
N1845 N 0.74044 0.41322 0.02346 0.0
H1846 H 0.74849 0.29332 0.03091 0.0
H1847 H 0.71796 0.32881 0.03299 0.0
H1848 H 0.73864 0.44665 0.02253 0.0
H1849 H 0.70449 0.38078 0.02468 0.0
H1850 H 0.93857 0.42351 1.00689 0.0
H1851 H 0.90649 0.35991 1.01134 0.0
H1852 H 0.95371 0.49482 1.01233 0.0
H1853 H 0.92339 0.53118 1.01363 0.0
C1854 C 0.59532 0.4284 0.02757 0.0
C1855 C 0.57588 0.39419 1.01887 0.0
C1856 C 0.65645 0.45119 1.00933 0.0
C1857 C 0.67486 0.4864 1.01778 0.0
N1858 N 0.66747 0.50258 0.03585 0.0
N1859 N 0.58589 0.37991 1.00055 0.0
C1860 C 0.64579 0.47328 0.02716 0.0
C1861 C 0.60552 0.40796 1.00947 0.0
N1862 N 0.56392 0.42001 0.03595 0.0
N1863 N 0.68972 0.45576 1.00156 0.0
H1864 H 0.55255 0.34438 1.00018 0.0
H1865 H 0.60202 0.39349 0.99322 0.0
H1866 H 0.72859 0.48369 1.00159 0.0
H1867 H 0.68095 0.42793 0.99585 0.0
H1868 H 0.57311 0.44559 0.04212 0.0
H1869 H 0.52604 0.38968 0.03628 0.0
H1870 H 0.65161 0.49269 0.04328 0.0
H1871 H 0.70398 0.53511 0.03575 0.0
C1872 C 0.48447 0.77393 0.83986 0.0
C1873 C 0.5025 0.81015 0.84823 0.0
C1874 C 0.5241 0.75272 0.85811 0.0
C1875 C 0.50245 0.715 0.85009 0.0
N1876 N 0.44716 0.68475 0.83494 0.0
N1877 N 0.52766 0.82712 0.86632 0.0
C1878 C 0.47884 0.72436 0.84138 0.0
C1879 C 0.51851 0.7973 0.85767 0.0
N1880 N 0.47147 0.7857 0.83044 0.0
N1881 N 0.552 0.74734 0.86595 0.0
H1882 H 0.52445 0.86009 0.8663 0.0
H1883 H 0.53389 0.81667 0.8737 0.0
H1884 H 0.55811 0.71619 0.86648 0.0
H1885 H 0.57326 0.77619 0.87136 0.0
H1886 H 0.46607 0.76385 0.82375 0.0
H1887 H 0.46763 0.81773 0.82907 0.0
H1888 H 0.42407 0.68786 0.82922 0.0
H1889 H 0.43876 0.6471 0.83613 0.0
C1890 C 0.25855 0.70563 0.84048 0.0
C1891 C 0.2216 0.68864 0.8487 0.0
C1892 C 0.27656 0.77114 0.8577 0.0
C1893 C 0.31588 0.7853 0.85008 0.0
N1894 N 0.34873 0.75544 0.83619 0.0
N1895 N 0.20279 0.70141 0.86637 0.0
C1896 C 0.30801 0.74983 0.84197 0.0
C1897 C 0.23296 0.72017 0.85771 0.0
N1898 N 0.24763 0.67956 0.83125 0.0
N1899 N 0.27955 0.80681 0.86468 0.0
H1900 H 0.17107 0.66439 0.86671 0.0
H1901 H 0.21215 0.72082 0.87348 0.0
H1902 H 0.30924 0.84502 0.86459 0.0
H1903 H 0.24972 0.79989 0.86978 0.0
H1904 H 0.27085 0.69467 0.82467 0.0
H1905 H 0.21474 0.64434 0.82989 0.0
H1906 H 0.34606 0.72767 0.83095 0.0
H1907 H 0.38647 0.78407 0.83761 0.0
C1908 C 0.32619 0.54699 0.84121 0.0
C1909 C 0.34375 0.52726 0.84939 0.0
C1910 C 0.26244 0.50114 0.85874 0.0
C1911 C 0.24795 0.52623 0.85116 0.0
N1912 N 0.27696 0.58821 0.8371 0.0
N1913 N 0.33278 0.49704 0.86717 0.0
C1914 C 0.28266 0.5531 0.84288 0.0
C1915 C 0.3132 0.50794 0.85855 0.0
N1916 N 0.35093 0.56089 0.83183 0.0
N1917 N 0.22732 0.46918 0.86591 0.0
H1918 H 0.36982 0.50225 0.86737 0.0
H1919 H 0.31414 0.48758 0.87436 0.0
H1920 H 0.18922 0.46119 0.86599 0.0
H1921 H 0.23447 0.44635 0.871 0.0
H1922 H 0.33538 0.56922 0.82533 0.0
H1923 H 0.38506 0.56132 0.83024 0.0
H1924 H 0.3043 0.61276 0.83172 0.0
H1925 H 0.24885 0.59786 0.83867 0.0
C1926 C 0.43889 0.78478 1.01384 0.0
C1927 C 0.48311 0.82119 0.01947 0.0
C1928 C 0.44106 0.87355 0.02189 0.0
C1929 C 0.39488 0.83377 1.0174 0.0
N1930 N 0.34808 0.74779 1.01027 0.0
N1931 N 0.52489 0.89932 0.02955 0.0
C1932 C 0.39357 0.78875 1.01357 0.0
C1933 C 0.4839 0.86559 0.02363 0.0
N1934 N 0.43987 0.74575 1.00871 0.0
N1935 N 0.44425 0.91939 0.02429 0.0
H1936 H 0.55775 0.89616 0.03056 0.0
H1937 H 0.52551 0.929 0.03385 0.0
H1938 H 0.41371 0.92618 0.02307 0.0
H1939 H 0.47818 0.95191 0.02662 0.0
H1940 H 0.41214 0.72184 1.00332 0.0
H1941 H 0.47133 0.74082 1.00912 0.0
H1942 H 0.3429 0.71125 1.009 0.0
H1943 H 0.31386 0.74842 1.00961 0.0
C1944 C 0.18397 0.63971 1.0113 0.0
C1945 C 0.21492 0.67683 0.01892 0.0
C1946 C 0.25089 0.62172 0.02385 0.0
C1947 C 0.21338 0.58083 1.01765 0.0
N1948 N 0.14116 0.55009 1.00588 0.0
N1949 N 0.27727 0.7018 0.03287 0.0
C1950 C 0.1793 0.58973 1.01141 0.0
C1951 C 0.24804 0.66728 0.02534 0.0
N1952 N 0.16022 0.65264 1.00376 0.0
N1953 N 0.29155 0.61851 0.02779 0.0
H1954 H 0.27994 0.7375 0.03375 0.0
H1955 H 0.29676 0.69373 0.03865 0.0
H1956 H 0.2966 0.58729 0.02629 0.0
H1957 H 0.32323 0.6491 0.03138 0.0
H1958 H 0.14097 0.62913 0.99742 0.0
H1959 H 0.16427 0.68917 1.00331 0.0
H1960 H 0.11177 0.55264 1.00208 0.0
H1961 H 0.13652 0.51328 1.0058 0.0
C1962 C 0.38661 0.58294 0.03017 0.0
C1963 C 0.36978 0.54538 0.02211 0.0
C1964 C 0.45386 0.59826 1.01335 0.0
C1965 C 0.4676 0.63854 0.02072 0.0
N1966 N 0.43869 0.67196 0.03473 0.0
N1967 N 0.38629 0.51951 1.00547 0.0
C1968 C 0.43202 0.63135 0.02881 0.0
C1969 C 0.40308 0.55389 1.01351 0.0
N1970 N 0.35893 0.57364 0.03917 0.0
N1971 N 0.4901 0.60115 1.00652 0.0
H1972 H 0.35086 0.48555 1.0056 0.0
H1973 H 0.4059 0.5262 0.99843 0.0
H1974 H 0.52797 0.63166 1.0065 0.0
H1975 H 0.48431 0.57114 1.0016 0.0
H1976 H 0.37416 0.59573 0.04589 0.0
H1977 H 0.32163 0.54344 0.04015 0.0
H1978 H 0.41077 0.6705 0.03977 0.0
H1979 H 0.4692 0.70881 0.03378 0.0
C1980 C 0.17745 0.55536 0.52694 0.0
C1981 C 0.20646 0.54535 0.51952 0.0
C1982 C 0.22767 0.625 0.51044 0.0
C1983 C 0.19783 0.63564 0.51769 0.0
N1984 N 0.12924 0.59889 0.53043 0.0
N1985 N 0.23575 0.55774 0.50185 0.0
C1986 C 0.16806 0.59715 0.52524 0.0
C1987 C 0.22319 0.57564 0.51043 0.0
N1988 N 0.1582 0.52458 0.53551 0.0
N1989 N 0.26427 0.66257 0.50426 0.0
H1990 H 0.22871 0.52015 0.50162 0.0
H1991 H 0.24561 0.57723 0.49473 0.0
H1992 H 0.27667 0.70147 0.50507 0.0
H1993 H 0.28834 0.65606 0.49942 0.0
H1994 H 0.14226 0.53355 0.54182 0.0
H1995 H 0.15977 0.49083 0.53641 0.0
H1996 H 0.10385 0.56975 0.5354 0.0
H1997 H 0.11826 0.62605 0.52878 0.0
C1998 C 0.45241 0.662 0.51348 0.0
C1999 C 0.49435 0.66651 0.5194 0.0
C2000 C 0.4425 0.57299 0.52296 0.0
C2001 C 0.3977 0.572 0.51888 0.0
N2002 N 0.36016 0.62168 0.51235 0.0
N2003 N 0.52976 0.62433 0.5297 0.0
C2004 C 0.40276 0.61813 0.51465 0.0
C2005 C 0.48942 0.62126 0.52413 0.0
N2006 N 0.46003 0.69919 0.50653 0.0
N2007 N 0.44107 0.52791 0.52533 0.0
H2008 H 0.56602 0.65743 0.52981 0.0
H2009 H 0.52676 0.59474 0.53444 0.0
H2010 H 0.40827 0.49204 0.52431 0.0
H2011 H 0.47361 0.52571 0.52733 0.0
H2012 H 0.4316 0.69689 0.50149 0.0
H2013 H 0.49711 0.72732 0.50476 0.0
H2014 H 0.36217 0.65594 0.51004 0.0
H2015 H 0.32302 0.59259 0.51409 0.0
C2016 C 0.41941 0.77443 0.52375 0.0
C2017 C 0.46054 0.82068 0.51968 0.0
C2018 C 0.40249 0.85659 0.51882 0.0
C2019 C 0.35955 0.80774 0.52137 0.0
N2020 N 0.32791 0.7177 0.52516 0.0
N2021 N 0.48999 0.90432 0.51215 0.0
C2022 C 0.36838 0.76603 0.52347 0.0
C2023 C 0.45152 0.8611 0.51672 0.0
N2024 N 0.42908 0.73887 0.52829 0.0
N2025 N 0.39824 0.89962 0.51949 0.0
H2026 H 0.52679 0.90969 0.51093 0.0
H2027 H 0.48408 0.93288 0.50892 0.0
H2028 H 0.36483 0.89853 0.52209 0.0
H2029 H 0.42955 0.93671 0.51873 0.0
H2030 H 0.4018 0.70736 0.53252 0.0
H2031 H 0.46566 0.7433 0.52875 0.0
H2032 H 0.33138 0.68488 0.52539 0.0
H2033 H 0.29002 0.70938 0.5255 0.0
C2034 C 0.25949 0.54601 0.36192 0.0
C2035 C 0.22456 0.52449 0.35343 0.0
C2036 C 0.27182 0.48091 0.34771 0.0
C2037 C 0.30883 0.50614 0.35579 0.0
N2038 N 0.31598 0.53468 0.37368 0.0
N2039 N 0.18883 0.45992 0.34004 0.0
C2040 C 0.29595 0.52989 0.3639 0.0
C2041 C 0.22801 0.48812 0.34688 0.0
N2042 N 0.26017 0.584 0.36781 0.0
N2043 N 0.27793 0.44905 0.34101 0.0
H2044 H 0.15607 0.46363 0.33954 0.0
H2045 H 0.18643 0.43014 0.3355 0.0
H2046 H 0.30377 0.43609 0.34253 0.0
H2047 H 0.25713 0.43481 0.33413 0.0
H2048 H 0.28856 0.60464 0.37337 0.0
H2049 H 0.23558 0.59823 0.36636 0.0
H2050 H 0.30535 0.54948 0.37994 0.0
H2051 H 0.33572 0.5159 0.37596 0.0
C2052 C 0.53158 0.7282 0.34878 0.0
C2053 C 0.48859 0.68544 0.35353 0.0
C2054 C 0.45497 0.74231 0.35868 0.0
C2055 C 0.4987 0.78555 0.35418 0.0
N2056 N 0.58403 0.82122 0.34711 0.0
N2057 N 0.41608 0.6547 0.36507 0.0
C2058 C 0.53863 0.77889 0.34987 0.0
C2059 C 0.45258 0.69363 0.35914 0.0
N2060 N 0.56469 0.72016 0.34286 0.0
N2061 N 0.41398 0.74664 0.362 0.0
H2062 H 0.41357 0.619 0.36559 0.0
H2063 H 0.3921 0.65929 0.37029 0.0
H2064 H 0.41309 0.78082 0.36182 0.0
H2065 H 0.37863 0.7153 0.3641 0.0
H2066 H 0.59312 0.74824 0.33815 0.0
H2067 H 0.56162 0.68418 0.34221 0.0
H2068 H 0.61661 0.81977 0.34484 0.0
H2069 H 0.59059 0.85846 0.3481 0.0
C2070 C 0.25291 0.76032 0.35743 0.0
C2071 C 0.24951 0.71426 0.35362 0.0
C2072 C 0.33686 0.76493 0.34632 0.0
C2073 C 0.34205 0.81057 0.35076 0.0
N2074 N 0.30777 0.85086 0.36183 0.0
N2075 N 0.29527 0.67274 0.34732 0.0
C2076 C 0.30087 0.80798 0.35673 0.0
C2077 C 0.29348 0.71668 0.34888 0.0
N2078 N 0.20995 0.75883 0.36139 0.0
N2079 N 0.37301 0.76727 0.33951 0.0
H2080 H 0.26601 0.6374 0.34981 0.0
H2081 H 0.32825 0.67221 0.34496 0.0
H2082 H 0.40631 0.80123 0.33755 0.0
H2083 H 0.36781 0.73586 0.33511 0.0
H2084 H 0.20799 0.79151 0.36328 0.0
H2085 H 0.17497 0.72464 0.36213 0.0
H2086 H 0.28136 0.85073 0.36711 0.0
H2087 H 0.34195 0.88603 0.36136 0.0
C2088 C 0.33014 0.40614 0.19184 0.0
C2089 C 0.30106 0.3663 0.18446 0.0
C2090 C 0.3833 0.37713 0.17762 0.0
C2091 C 0.41248 0.41979 0.18435 0.0
N2092 N 0.41315 0.47869 0.1971 0.0
N2093 N 0.30285 0.32347 0.16863 0.0
C2094 C 0.38561 0.43529 0.19124 0.0
C2095 C 0.32852 0.35484 0.17684 0.0
N2096 N 0.30471 0.41647 0.19944 0.0
N2097 N 0.40753 0.35633 0.17215 0.0
H2098 H 0.26348 0.30704 0.16748 0.0
H2099 H 0.32142 0.31843 0.16226 0.0
H2100 H 0.44702 0.37055 0.17251 0.0
H2101 H 0.38788 0.3216 0.16814 0.0
H2102 H 0.32298 0.44004 0.20582 0.0
H2103 H 0.26472 0.39959 0.19961 0.0
H2104 H 0.39647 0.49584 0.20142 0.0
H2105 H 0.45334 0.49961 0.19711 0.0
C2106 C 0.61138 0.96227 0.18098 0.0
C2107 C 0.63235 1.01367 0.18479 0.0
C2108 C 0.71049 1.01146 0.19032 0.0
C2109 C 0.69003 0.96057 0.18642 0.0
N2110 N 0.61546 0.88318 0.18044 0.0
N2111 N 0.69157 0.07487 0.19733 0.0
C2112 C 0.63889 0.93482 0.18239 0.0
C2113 C 0.67884 0.03471 0.19072 0.0
N2114 N 0.56418 0.9388 0.17625 0.0
N2115 N 0.76093 0.03883 0.19333 0.0
H2116 H 0.66612 0.08766 0.19914 0.0
H2117 H 0.7232 0.08942 0.20234 0.0
H2118 H 0.78569 0.02388 0.19318 0.0
H2119 H 0.77944 0.07801 0.19502 0.0
H2120 H 0.55031 0.90558 0.17177 0.0
H2121 H 0.53861 0.95268 0.1768 0.0
H2122 H 0.57673 0.86051 0.17849 0.0
H2123 H 0.63356 0.86164 0.1817 0.0
C2124 C 0.11592 0.71958 0.18673 0.0
C2125 C 0.08879 0.74715 0.18581 0.0
C2126 C 1.00991 0.66521 0.18153 0.0
C2127 C 0.03512 0.63676 0.18359 0.0
N2128 N 0.11201 0.63694 0.1891 0.0
N2129 N 1.00613 0.74236 0.18465 0.0
C2130 C 0.08825 0.66409 0.18643 0.0
C2131 C 0.03466 0.71868 0.18397 0.0
N2132 N 0.16825 0.74643 0.18781 0.0
N2133 N 0.96355 0.64219 0.17648 0.0
H2134 H 0.02243 0.78082 0.18654 0.0
H2135 H 0.96598 0.72262 0.18449 0.0
H2136 H 0.94662 0.60474 0.17366 0.0
H2137 H 0.94551 0.66215 0.17387 0.0
H2138 H 0.19131 0.72963 0.18737 0.0
H2139 H 0.18901 0.78636 0.18856 0.0
H2140 H 0.14892 0.65367 0.19226 0.0
H2141 H 0.09324 0.59685 0.18884 0.0
C2142 C 0.40111 0.31731 0.34591 0.0
C2143 C 0.36561 0.2875 0.35395 0.0
C2144 C 0.38353 0.36892 0.36256 0.0
C2145 C 0.42112 0.39834 0.35491 0.0
N2146 N 0.47043 0.40073 0.33998 0.0
N2147 N 0.33236 0.28728 0.37123 0.0
C2148 C 0.43104 0.37249 0.34675 0.0
C2149 C 0.35971 0.31397 0.36265 0.0
N2150 N 0.40692 0.29283 0.33749 0.0
N2151 N 0.36908 0.39342 0.36963 0.0
H2152 H 0.31319 0.24758 0.37187 0.0
H2153 H 0.33267 0.30487 0.37825 0.0
H2154 H 0.38594 0.43329 0.37004 0.0
H2155 H 0.33714 0.37423 0.37447 0.0
H2156 H 0.42624 0.31165 0.33072 0.0
H2157 H 0.39094 0.25305 0.33711 0.0
H2158 H 0.48395 0.38477 0.33451 0.0
H2159 H 0.49218 0.44079 0.34027 0.0
C2160 C 0.65549 0.99575 0.34653 0.0
C2161 C 0.63199 0.01627 0.35309 0.0
C2162 C 0.718 0.09399 0.35554 0.0
C2163 C 0.74218 0.06942 0.35052 0.0
N2164 N 0.73304 0.99328 0.34217 0.0
N2165 N 0.64137 0.08686 0.36362 0.0
C2166 C 0.71063 0.01963 0.34612 0.0
C2167 C 0.66356 0.0661 0.35749 0.0
N2168 N 0.62532 0.95342 0.34064 0.0
N2169 N 0.74697 0.14481 0.35815 0.0
H2170 H 0.60156 0.07062 0.36432 0.0
H2171 H 0.66228 0.11917 0.36829 0.0
H2172 H 0.78639 0.16649 0.35665 0.0
H2173 H 0.73149 0.16681 0.36089 0.0
H2174 H 0.63978 0.93956 0.3349 0.0
H2175 H 0.5854 0.93534 0.34076 0.0
H2176 H 0.71224 0.95466 0.34004 0.0
H2177 H 0.77277 1.00839 0.34187 0.0
C2178 C 1.01248 0.69119 0.35962 0.0
C2179 C 0.96639 0.67263 0.35359 0.0
C2180 C 0.97711 0.59892 0.34816 0.0
C2181 C 1.02081 0.61591 0.35482 0.0
N2182 N 0.07303 0.67293 0.36856 0.0
N2183 N 0.90166 0.60475 0.34305 0.0
C2184 C 0.03634 0.66049 0.36101 0.0
C2185 C 0.94807 0.62543 0.34807 0.0
N2186 N 0.03555 0.73969 0.36361 0.0
N2187 N 0.96343 0.55737 0.34187 0.0
H2188 H 0.87958 0.62275 0.34284 0.0
H2189 H 0.88302 0.56816 0.33977 0.0
H2190 H 0.98197 0.53581 0.34214 0.0
H2191 H 0.93603 0.54604 0.33596 0.0
H2192 H 0.07226 0.758 0.3669 0.0
H2193 H 1.02042 0.76368 0.36259 0.0
H2194 H 0.08128 0.70086 0.37422 0.0
H2195 H 0.09244 0.65262 0.36975 0.0
C2196 C 0.66497 0.58681 0.85273 0.0
C2197 C 0.63648 0.61298 0.85364 0.0
C2198 C 0.71737 0.69532 0.85091 0.0
C2199 C 0.74664 0.66986 0.85112 0.0
N2200 N 0.74823 0.59093 0.85323 0.0
N2201 N 0.64064 0.6943 0.85696 0.0
C2202 C 0.72033 0.61544 0.85237 0.0
C2203 C 0.66398 0.66783 0.85358 0.0
N2204 N 0.63908 0.53446 0.85191 0.0
N2205 N 0.74032 0.74613 0.84827 0.0
H2206 H 0.60387 0.67641 0.86015 0.0
H2207 H 0.66023 0.73404 0.85801 0.0
H2208 H 0.77923 0.76831 0.84649 0.0
H2209 H 0.71962 0.765 0.84691 0.0
H2210 H 0.65671 0.51315 0.85006 0.0
H2211 H 0.59909 0.51247 0.8523 0.0
H2212 H 0.73229 0.55252 0.8554 0.0
H2213 H 0.78814 0.60987 0.85234 0.0
C2214 C 0.40852 0.09167 0.85639 0.0
C2215 C 0.36194 0.07033 0.85052 0.0
C2216 C 0.37466 0.99686 0.84611 0.0
C2217 C 0.41525 1.0134 0.85353 0.0
N2218 N 0.47154 0.07838 0.86575 0.0
N2219 N 0.29789 0.99795 0.84055 0.0
C2220 C 0.43226 0.06137 0.85866 0.0
C2221 C 0.34464 0.022 0.84546 0.0
N2222 N 0.43163 0.14204 0.8594 0.0
N2223 N 0.36466 0.95723 0.83957 0.0
H2224 H 0.27402 1.01368 0.83983 0.0
H2225 H 0.28036 0.95999 0.83798 0.0
H2226 H 0.38648 0.93923 0.83964 0.0
H2227 H 0.33924 0.94659 0.83328 0.0
H2228 H 0.46803 0.16166 0.86281 0.0
H2229 H 0.41696 0.16601 0.85745 0.0
H2230 H 0.48095 0.10882 0.87084 0.0
H2231 H 0.49364 0.06073 0.86682 0.0
C2232 C 0.94434 0.31045 0.85867 0.0
C2233 C 0.96615 0.28549 0.8529 0.0
C2234 C 0.03932 0.37166 0.84835 0.0
C2235 C 1.0217 0.39616 0.85539 0.0
N2236 N 0.95625 0.38739 0.86747 0.0
N2237 N 0.04043 0.29374 0.84384 0.0
C2238 C 0.97385 0.36492 0.86061 0.0
C2239 C 1.01506 0.31655 0.84809 0.0
N2240 N 0.89439 0.28241 0.86194 0.0
N2241 N 0.07913 0.40079 0.8418 0.0
H2242 H 0.02577 0.25412 0.84389 0.0
H2243 H 0.07844 0.31432 0.84128 0.0
H2244 H 0.09604 0.44047 0.8415 0.0
H2245 H 0.09076 0.3854 0.83582 0.0
H2246 H 0.8741 0.29867 0.86522 0.0
H2247 H 0.87142 0.24314 0.86048 0.0
H2248 H 0.92599 0.36663 0.87262 0.0
H2249 H 0.97327 0.42715 0.8683 0.0
C2250 C 0.66938 0.65588 0.67625 0.0
C2251 C 0.62708 0.62729 0.68308 0.0
C2252 C 0.64138 0.70922 0.69076 0.0
C2253 C 0.68587 0.73765 0.68442 0.0
N2254 N 0.74635 0.7365 0.67212 0.0
N2255 N 0.57502 0.62612 0.69742 0.0
C2256 C 0.70079 0.71049 0.67741 0.0
C2257 C 0.6139 0.6539 0.69052 0.0
N2258 N 0.67882 0.63101 0.66837 0.0
N2259 N 0.62362 0.73518 0.6966 0.0
H2260 H 0.55229 0.58617 0.69706 0.0
H2261 H 0.56713 0.64205 0.70387 0.0
H2262 H 0.64191 0.77522 0.69683 0.0
H2263 H 0.58865 0.71748 0.70054 0.0
H2264 H 0.70415 0.64993 0.66226 0.0
H2265 H 0.65856 0.5912 0.66744 0.0
H2266 H 0.76295 0.71843 0.66807 0.0
H2267 H 0.77029 0.77621 0.67243 0.0
C2268 C 0.38323 0.03734 0.68034 0.0
C2269 C 0.41127 1.01228 0.68301 0.0
C2270 C 0.32846 0.93268 0.68661 0.0
C2271 C 0.30103 0.95937 0.68486 0.0
N2272 N 0.30502 0.04094 0.68233 0.0
N2273 N 0.4109 0.93748 0.68993 0.0
C2274 C 0.32931 1.01283 0.68244 0.0
C2275 C 0.38385 0.96024 0.68649 0.0
N2276 N 0.40713 0.08333 0.67516 0.0
N2277 N 0.30153 0.88075 0.68824 0.0
H2278 H 0.45106 0.95629 0.68988 0.0
H2279 H 0.39397 0.9017 0.69356 0.0
H2280 H 0.26141 0.85991 0.68872 0.0
H2281 H 0.31848 0.85779 0.68844 0.0
H2282 H 0.38736 0.10055 0.67201 0.0
H2283 H 0.44577 0.10181 0.673 0.0
H2284 H 0.32444 0.08094 0.68183 0.0
H2285 H 0.26603 0.02469 0.68383 0.0
C2286 C 0.08084 0.43469 0.68664 0.0
C2287 C 0.02659 0.4085 0.68486 0.0
C2288 C 0.02539 0.32598 0.68697 0.0
C2289 C 0.08023 0.35183 0.68737 0.0
N2290 N 0.16065 0.43179 0.6868 0.0
N2291 N 0.9506 0.32788 0.68046 0.0
C2292 C 0.10804 0.40653 0.68695 0.0
C2293 C 0.99964 0.35376 0.68434 0.0
N2294 N 0.10634 0.48656 0.68832 0.0
N2295 N 0.99729 0.27456 0.68903 0.0
H2296 H 0.93173 0.34615 0.67743 0.0
H2297 H 0.93108 0.2885 0.67896 0.0
H2298 H 1.01398 0.25248 0.69089 0.0
H2299 H 0.95742 0.25504 0.68996 0.0
H2300 H 0.14461 0.50741 0.69073 0.0
H2301 H 0.08789 0.5082 0.6882 0.0
H2302 H 0.18333 0.47091 0.68523 0.0
H2303 H 0.18174 0.41295 0.68769 0.0
C2304 C 0.98939 0.73582 0.51569 0.0
C2305 C 0.96233 0.68211 0.51785 0.0
C2306 C 0.04441 0.682 0.5165 0.0
C2307 C 0.07263 0.73659 0.51545 0.0
N2308 N 0.07127 0.81621 0.51581 0.0
N2309 N 0.9675 0.60733 0.52295 0.0
C2310 C 0.04479 0.76367 0.51552 0.0
C2311 C 0.99101 0.65645 0.51918 0.0
N2312 N 0.96222 0.76043 0.51381 0.0
N2313 N 0.06691 0.65355 0.51402 0.0
H2314 H 0.92845 0.58656 0.52478 0.0
H2315 H 0.98786 0.58893 0.52507 0.0
H2316 H 0.10356 0.66953 0.51081 0.0
H2317 H 0.04665 0.61348 0.51375 0.0
H2318 H 0.97899 0.79795 0.511 0.0
H2319 H 0.92221 0.74216 0.51445 0.0
H2320 H 0.05369 0.83822 0.51695 0.0
H2321 H 0.1114 0.83783 0.51588 0.0
C2322 C 0.30384 0.26606 0.52042 0.0
C2323 C 0.3578 0.29208 0.51856 0.0
C2324 C 0.35491 0.37064 0.51406 0.0
C2325 C 0.30167 0.346 0.51666 0.0
N2326 N 0.22708 0.27217 0.52377 0.0
N2327 N 0.43631 0.3728 0.51633 0.0
C2328 C 0.27664 0.29418 0.52026 0.0
C2329 C 0.38375 0.34546 0.51618 0.0
N2330 N 0.27831 0.21416 0.52209 0.0
N2331 N 0.37769 0.41704 0.50904 0.0
H2332 H 0.45843 0.35606 0.51827 0.0
H2333 H 0.45753 0.41273 0.51569 0.0
H2334 H 0.35808 0.43633 0.50704 0.0
H2335 H 0.4148 0.43409 0.50598 0.0
H2336 H 0.23835 0.19165 0.52237 0.0
H2337 H 0.29713 0.19287 0.52249 0.0
H2338 H 0.20802 0.23658 0.52748 0.0
H2339 H 0.20627 0.29151 0.52373 0.0
C2340 C 0.67173 0.98806 0.52274 0.0
C2341 C 0.69258 0.96233 0.51702 0.0
C2342 C 0.7733 0.0459 0.51492 0.0
C2343 C 0.74894 0.0723 0.51906 0.0
N2344 N 0.67034 0.06723 0.52526 0.0
N2345 N 0.76432 0.96698 0.50767 0.0
C2346 C 0.69708 0.04301 0.52264 0.0
C2347 C 0.74382 0.99147 0.51314 0.0
N2348 N 0.62754 0.96009 0.52828 0.0
N2349 N 0.82509 0.07254 0.51303 0.0
H2350 H 0.74605 0.927 0.50708 0.0
H2351 H 0.79837 0.98621 0.50342 0.0
H2352 H 0.84786 0.11192 0.51441 0.0
H2353 H 0.84636 0.05509 0.511 0.0
H2354 H 0.61258 0.97648 0.53333 0.0
H2355 H 0.60976 0.92034 0.52883 0.0
H2356 H 0.63096 0.04763 0.5268 0.0
H2357 H 0.68579 0.10686 0.52477 0.0
C2358 C 0.10491 0.7081 0.69236 0.0
C2359 C 0.08525 0.73887 0.68813 0.0
C2360 C 1.00833 0.65945 0.68206 0.0
C2361 C 0.0289 0.62867 0.68586 0.0
N2362 N 0.10267 0.62595 0.69254 0.0
N2363 N 0.02525 0.74339 0.67627 0.0
C2364 C 0.07892 0.65373 0.69043 0.0
C2365 C 0.03941 0.71439 0.68207 0.0
N2366 N 0.14873 0.73092 0.69828 0.0
N2367 N 0.95775 0.6367 0.67913 0.0
H2368 H 0.04769 0.78312 0.67588 0.0
H2369 H 0.99486 0.72776 0.67095 0.0
H2370 H 0.93248 0.59723 0.67956 0.0
H2371 H 0.9393 0.65745 0.67741 0.0
H2372 H 0.16132 0.71038 0.70278 0.0
H2373 H 0.1716 0.77073 0.69902 0.0
H2374 H 0.14101 0.64244 0.69486 0.0
H2375 H 0.08554 0.5867 0.69102 0.0
C2376 C 0.32336 0.33151 0.68227 0.0
C2377 C 0.29885 0.35045 0.68896 0.0
C2378 C 0.38429 0.42845 0.69189 0.0
C2379 C 0.4094 0.40564 0.68653 0.0
N2380 N 0.40139 0.32974 0.67821 0.0
N2381 N 0.30721 0.41759 0.70048 0.0
C2382 C 0.37848 0.35581 0.68207 0.0
C2383 C 0.32986 0.3991 0.69388 0.0
N2384 N 0.2942 0.29031 0.67602 0.0
N2385 N 0.41198 0.4791 0.69469 0.0
H2386 H 0.26737 0.4003 0.70134 0.0
H2387 H 0.32796 0.44884 0.70542 0.0
H2388 H 0.45116 0.50215 0.69311 0.0
H2389 H 0.39535 0.49969 0.69765 0.0
H2390 H 0.30967 0.27761 0.67025 0.0
H2391 H 0.25439 0.27291 0.67573 0.0
H2392 H 0.38081 0.29123 0.676 0.0
H2393 H 0.44105 0.34442 0.67827 0.0
C2394 C 0.70107 0.99464 0.68042 0.0
C2395 C 0.68595 0.9543 0.68777 0.0
C2396 C 0.60888 0.96204 0.69152 0.0
C2397 C 0.63046 1.00917 0.68587 0.0
N2398 N 0.70534 0.07563 0.67686 0.0
N2399 N 0.62207 0.89714 0.70007 0.0
C2400 C 0.67873 0.02685 0.6808 0.0
C2401 C 0.63886 0.93746 0.69328 0.0
N2402 N 0.73527 1.00131 0.67279 0.0
N2403 N 0.55888 0.9393 0.69479 0.0
H2404 H 0.63868 0.87383 0.70051 0.0
H2405 H 0.59248 0.8876 0.7054 0.0
H2406 H 0.53517 0.95476 0.69328 0.0
H2407 H 0.53925 0.90267 0.69807 0.0
H2408 H 0.74547 0.02853 0.66686 0.0
H2409 H 0.74575 0.97374 0.67141 0.0
H2410 H 0.74259 0.09128 0.67391 0.0
H2411 H 0.69341 0.10257 0.67775 0.0
C2412 C 0.33297 1.0086 0.19008 0.0
C2413 C 0.30378 0.956 0.18705 0.0
C2414 C 0.38606 0.95842 0.18302 0.0
C2415 C 0.41436 1.01219 0.18509 0.0
N2416 N 0.41204 0.09008 0.18828 0.0
N2417 N 0.30277 0.88228 0.17946 0.0
C2418 C 0.38692 0.03764 0.18792 0.0
C2419 C 0.33052 0.93132 0.1832 0.0
N2420 N 0.31004 0.03056 0.1956 0.0
N2421 N 0.4123 0.93305 0.18102 0.0
H2422 H 0.26259 0.86158 0.17955 0.0
H2423 H 0.31915 0.86354 0.17558 0.0
H2424 H 0.4524 0.95193 0.18053 0.0
H2425 H 0.39481 0.89319 0.18053 0.0
H2426 H 0.33061 0.0667 0.19906 0.0
H2427 H 0.27129 1.01096 0.19765 0.0
H2428 H 0.39318 0.11106 0.18918 0.0
H2429 H 0.451 0.11271 0.18658 0.0
C2430 C 0.07906 0.43616 0.18085 0.0
C2431 C 0.0348 0.42067 0.18722 0.0
C2432 C 0.04927 0.35342 0.19514 0.0
C2433 C 0.09202 0.36723 0.1884 0.0
N2434 N 0.14493 0.41861 0.17418 0.0
N2435 N 0.97499 0.36129 0.19986 0.0
C2436 C 0.10609 0.40779 0.18107 0.0
C2437 C 1.01952 0.3787 0.19427 0.0
N2438 N 0.09669 0.47963 0.17491 0.0
N2439 N 0.03738 0.31635 0.20255 0.0
H2440 H 0.95293 0.37924 0.19983 0.0
H2441 H 0.95745 0.32688 0.204 0.0
H2442 H 0.05455 0.29367 0.20285 0.0
H2443 H 1.01233 0.30945 0.20873 0.0
H2444 H 0.13143 0.4966 0.17089 0.0
H2445 H 0.07833 0.50136 0.17463 0.0
H2446 H 0.15362 0.44317 0.16782 0.0
H2447 H 0.16684 0.40042 0.17444 0.0
C2448 C 0.60534 0.65631 0.19014 0.0
C2449 C 0.62882 0.63001 0.18551 0.0
C2450 C 0.70403 0.71521 0.18118 0.0
C2451 C 0.68513 0.74066 0.18754 0.0
N2452 N 0.61587 0.73459 0.19807 0.0
N2453 N 0.70671 0.63706 0.17834 0.0
C2454 C 0.63514 0.71079 0.19201 0.0
C2455 C 0.67962 0.66023 0.18137 0.0
N2456 N 0.55388 0.62974 0.19235 0.0
N2457 N 0.74539 0.74333 0.17489 0.0
H2458 H 0.69259 0.59787 0.17915 0.0
H2459 H 0.74547 0.65745 0.17626 0.0
H2460 H 0.7616 0.78287 0.17413 0.0
H2461 H 0.75859 0.72686 0.16945 0.0
H2462 H 0.53324 0.64723 0.19481 0.0
H2463 H 0.53054 0.59074 0.19069 0.0
H2464 H 0.58325 0.71474 0.20272 0.0
H2465 H 0.63376 0.77452 0.19873 0.0
C2466 C 0.27068 0.99125 0.02342 0.0
C2467 C 0.28999 0.96511 1.01728 0.0
C2468 C 0.36824 0.04901 1.01359 0.0
C2469 C 0.34729 0.07548 0.01909 0.0
N2470 N 0.27635 0.07237 0.02843 0.0
N2471 N 0.35486 0.9705 1.00538 0.0
C2472 C 0.29793 0.04663 0.02382 0.0
C2473 C 0.33824 0.99444 1.01209 0.0
N2474 N 0.22674 0.96293 0.02908 0.0
N2475 N 0.41784 0.07589 1.01006 0.0
H2476 H 0.33563 0.93091 1.00426 0.0
H2477 H 0.38575 0.99005 1.0003 0.0
H2478 H 0.44045 0.11573 1.01061 0.0
H2479 H 0.43815 0.05858 1.00729 0.0
H2480 H 0.21306 0.97856 0.03459 0.0
H2481 H 0.20558 0.92284 0.0288 0.0
H2482 H 0.23851 0.05468 0.03107 0.0
H2483 H 0.29543 0.11239 0.02898 0.0
C2484 C 0.04656 0.35262 1.01032 0.0
C2485 C 0.07606 0.3405 1.01728 0.0
C2486 C 0.99435 0.27442 0.02547 0.0
C2487 C 0.9647 0.28418 1.01801 0.0
N2488 N 0.96493 0.32668 1.00187 0.0
N2489 N 0.07768 0.2852 0.03067 0.0
C2490 C 0.9915 0.32131 1.01 0.0
C2491 C 0.04972 0.30008 0.02464 0.0
N2492 N 0.07094 0.3955 1.00419 0.0
N2493 N 0.96957 0.24002 0.03334 0.0
H2494 H 0.11781 0.30367 0.03042 0.0
H2495 H 0.06136 0.25265 0.0354 0.0
H2496 H 0.92963 0.21684 0.03367 0.0
H2497 H 0.98832 0.2358 0.03978 0.0
H2498 H 0.05159 0.4105 1.0 0.0
H2499 H 0.11075 0.41917 1.00402 0.0
H2500 H 0.98274 0.34744 0.99514 0.0
H2501 H 0.92503 0.3077 1.00133 0.0
C2502 C 0.77396 0.73902 1.01501 0.0
C2503 C 0.75171 0.68991 0.01994 0.0
C2504 C 0.67725 0.70001 0.0247 0.0
C2505 C 0.69396 0.74249 1.01787 0.0
N2506 N 0.76098 0.80475 1.00679 0.0
N2507 N 0.67513 0.61972 0.02773 0.0
C2508 C 0.74321 0.7626 1.0131 0.0
C2509 C 0.70166 0.66957 0.02443 0.0
N2510 N 0.82514 0.76435 1.01258 0.0
N2511 N 0.63837 0.68872 0.03154 0.0
H2512 H 0.68872 0.59429 0.02676 0.0
H2513 H 0.63685 0.60192 0.03016 0.0
H2514 H 0.62379 0.71333 0.03257 0.0
H2515 H 0.62675 0.66006 0.0372 0.0
H2516 H 0.84487 0.80208 1.00986 0.0
H2517 H 0.84919 0.74964 1.01436 0.0
H2518 H 0.79289 0.81717 1.00194 0.0
H2519 H 0.74265 0.82645 1.00618 0.0
C2520 C 0.71926 0.02438 0.85684 0.0
C2521 C 0.745 0.06737 0.85011 0.0
C2522 C 0.6607 0.06296 0.84735 0.0
C2523 C 0.63408 1.01327 0.85205 0.0
N2524 N 0.64158 0.94309 0.8595 0.0
N2525 N 0.73913 0.13018 0.83934 0.0
C2526 C 0.66433 0.99327 0.85645 0.0
C2527 C 0.71522 0.08728 0.84546 0.0
N2528 N 0.74679 1.01315 0.86375 0.0
N2529 N 0.6345 0.08826 0.84515 0.0
H2530 H 0.77912 0.15277 0.83886 0.0
H2531 H 0.71924 0.14249 0.83456 0.0
H2532 H 0.59571 0.07327 0.84698 0.0
H2533 H 0.6523 0.12628 0.8426 0.0
H2534 H 0.72949 0.98473 0.86944 0.0
H2535 H 0.78639 0.03633 0.86455 0.0
H2536 H 0.66256 0.92572 0.8619 0.0
H2537 H 0.60274 0.91722 0.8583 0.0
C2538 C 0.93745 0.61389 0.84847 0.0
C2539 C 0.96013 0.6666 0.85153 0.0
C2540 C 0.04037 0.66617 0.85569 0.0
C2541 C 1.01787 0.61332 0.85287 0.0
N2542 N 0.94003 0.53402 0.84907 0.0
N2543 N 0.02557 0.73279 0.86243 0.0
C2544 C 0.96492 0.58638 0.84995 0.0
C2545 C 1.00911 0.68962 0.85652 0.0
N2546 N 0.88899 0.58952 0.84431 0.0
N2547 N 0.09237 0.69546 0.85697 0.0
H2548 H 1.00172 0.74734 0.86441 0.0
H2549 H 0.0596 0.74895 0.86676 0.0
H2550 H 0.11706 0.68117 0.85569 0.0
H2551 H 0.11125 0.73521 0.858 0.0
H2552 H 0.87312 0.55424 0.84049 0.0
H2553 H 0.8648 0.60516 0.8445 0.0
H2554 H 0.90043 0.51125 0.848 0.0
H2555 H 0.9582 0.51263 0.85043 0.0
C2556 C 0.41727 0.32002 0.84636 0.0
C2557 C 0.36649 0.29029 0.85045 0.0
C2558 C 0.37089 0.37097 0.85609 0.0
C2559 C 0.42281 0.40098 0.85258 0.0
N2560 N 0.49882 0.40061 0.8466 0.0
N2561 N 0.30377 0.28862 0.86233 0.0
C2562 C 0.44697 0.37441 0.84835 0.0
C2563 C 0.34642 0.31615 0.85637 0.0
N2564 N 0.43741 0.29626 0.84053 0.0
N2565 N 0.34279 0.39408 0.85833 0.0
H2566 H 0.28718 0.24921 0.86312 0.0
H2567 H 0.28991 0.30554 0.86752 0.0
H2568 H 0.35687 0.43304 0.85718 0.0
H2569 H 0.30345 0.37366 0.85993 0.0
H2570 H 0.47102 0.31619 0.83617 0.0
H2571 H 0.41919 0.25637 0.83973 0.0
H2572 H 0.51973 0.38289 0.84449 0.0
H2573 H 0.52185 0.4395 0.84833 0.0
C2574 C 0.74494 0.98436 0.01999 0.0
C2575 C 0.69102 0.95712 1.01803 0.0
C2576 C 0.69024 0.03859 0.0195 0.0
C2577 C 0.74498 0.06702 0.02055 0.0
N2578 N 0.82506 0.06639 0.01978 0.0
N2579 N 0.61503 0.96102 1.01337 0.0
C2580 C 0.77247 0.03961 0.02022 0.0
C2581 C 0.66478 0.98524 1.01686 0.0
N2582 N 0.76994 0.95745 0.02172 0.0
N2583 N 0.66156 0.06081 0.022 0.0
H2584 H 0.59441 0.92193 1.01161 0.0
H2585 H 0.59587 0.98075 1.01135 0.0
H2586 H 0.67755 0.09731 0.0252 0.0
H2587 H 0.62145 0.04055 0.02232 0.0
H2588 H 0.80777 0.97437 0.02439 0.0
H2589 H 0.75168 0.91749 0.02108 0.0
H2590 H 0.84725 0.0491 1.01849 0.0
H2591 H 0.84646 0.10647 0.01972 0.0
C2592 C 0.99661 0.67004 0.02206 0.0
C2593 C 0.96843 0.69605 0.02034 0.0
C2594 C 0.05198 0.77713 1.01797 0.0
C2595 C 0.07926 0.74965 1.01849 0.0
N2596 N 0.07444 0.66702 0.01899 0.0
N2597 N 0.9699 0.77434 1.01557 0.0
C2598 C 0.05051 0.69528 0.01986 0.0
C2599 C 0.99645 0.74972 1.01802 0.0
N2600 N 0.97308 0.6223 0.02654 0.0
N2601 N 0.07915 0.82961 1.01751 0.0
H2602 H 0.9298 0.75569 1.0156 0.0
H2603 H 0.9872 0.81183 1.01273 0.0
H2604 H 0.11927 0.85051 1.01705 0.0
H2605 H 0.06236 0.85255 1.01827 0.0
H2606 H 0.99305 0.60398 0.02898 0.0
H2607 H 0.93498 0.60335 0.02902 0.0
H2608 H 0.05468 0.62698 1.01861 0.0
H2609 H 0.11357 0.68376 1.01765 0.0
C2610 C 0.28176 0.30381 1.01468 0.0
C2611 C 0.28824 0.3425 0.02198 0.0
C2612 C 0.35836 0.3336 0.03034 0.0
C2613 C 0.34899 0.29233 0.02361 0.0
N2614 N 0.29348 0.2308 1.01086 0.0
N2615 N 0.32416 0.38203 0.03874 0.0
C2616 C 0.30844 0.2755 1.01617 0.0
C2617 C 0.32394 0.35379 0.03039 0.0
N2618 N 0.24924 0.29312 1.00639 0.0
N2619 N 0.40084 0.35438 0.03666 0.0
H2620 H 0.29821 0.39495 0.0397 0.0
H2621 H 0.34579 0.38695 0.04546 0.0
H2622 H 0.42646 0.34044 0.03699 0.0
H2623 H 0.41334 0.38844 0.0408 0.0
H2624 H 0.24773 0.27041 1.00011 0.0
H2625 H 0.22536 0.3089 1.00553 0.0
H2626 H 0.26101 0.21335 1.00609 0.0
H2627 H 0.31085 0.20851 1.01201 0.0
C2628 C 0.05337 0.2911 0.52191 0.0
C2629 C 0.07949 0.34329 0.51855 0.0
C2630 C 0.99497 0.33445 0.51423 0.0
C2631 C 0.96858 0.28636 0.5195 0.0
N2632 N 0.97344 0.21491 0.52694 0.0
N2633 N 0.07301 0.41713 0.51321 0.0
C2634 C 0.99818 0.26364 0.52295 0.0
C2635 C 0.04968 0.36554 0.51515 0.0
N2636 N 0.08109 0.26683 0.52357 0.0
N2637 N 0.96875 0.34946 0.50776 0.0
H2638 H 0.11239 0.44199 0.51419 0.0
H2639 H 0.05234 0.43597 0.51176 0.0
H2640 H 0.93045 0.32518 0.50573 0.0
H2641 H 0.98694 0.38245 0.50315 0.0
H2642 H 0.06465 0.22761 0.525 0.0
H2643 H 0.12094 0.28518 0.52267 0.0
H2644 H 0.99187 0.19906 0.53115 0.0
H2645 H 0.93402 0.18997 0.52598 0.0
C2646 C 0.74392 0.76938 0.52202 0.0
C2647 C 0.69424 0.74513 0.5173 0.0
C2648 C 0.7051 0.67059 0.51327 0.0
C2649 C 0.74907 0.69001 0.51985 0.0
N2650 N 0.81267 0.76061 0.53008 0.0
N2651 N 0.62454 0.66798 0.50964 0.0
C2652 C 0.76913 0.74033 0.52408 0.0
C2653 C 0.67426 0.69472 0.51312 0.0
N2654 N 0.768 0.82084 0.52416 0.0
N2655 N 0.6929 0.62952 0.507 0.0
H2656 H 0.59953 0.68261 0.50975 0.0
H2657 H 0.60642 0.62916 0.50764 0.0
H2658 H 0.7162 0.61316 0.50651 0.0
H2659 H 0.66413 0.61667 0.50133 0.0
H2660 H 0.80604 0.8421 0.52668 0.0
H2661 H 0.75168 0.84356 0.52238 0.0
H2662 H 0.82537 0.79355 0.5346 0.0
H2663 H 0.83543 0.74346 0.53075 0.0
C2664 C 0.34071 0.98931 0.51304 0.0
C2665 C 0.29456 0.95767 0.51883 0.0
C2666 C 0.30421 0.03685 0.52703 0.0
C2667 C 0.35092 0.06809 0.52145 0.0
N2668 N 0.40066 0.07385 0.50628 0.0
N2669 N 0.22463 0.95484 0.52859 0.0
C2670 C 0.365 0.04429 0.51356 0.0
C2671 C 0.27422 0.98253 0.52507 0.0
N2672 N 0.36358 0.96769 0.50737 0.0
N2673 N 0.28753 0.0593 0.5341 0.0
H2674 H 0.20039 0.91617 0.52677 0.0
H2675 H 0.20542 0.97117 0.53231 0.0
H2676 H 0.30282 0.09898 0.53456 0.0
H2677 H 0.25905 0.03859 0.53961 0.0
H2678 H 0.40071 0.9889 0.50436 0.0
H2679 H 0.34838 0.92845 0.50637 0.0
H2680 H 0.40852 0.05893 0.49965 0.0
H2681 H 0.41733 0.11343 0.50611 0.0
C2682 C 0.96991 0.37066 0.3473 0.0
C2683 C 1.01838 0.39541 0.35252 0.0
C2684 C 1.00462 0.30939 0.3572 0.0
C2685 C 0.96203 0.28523 0.35029 0.0
N2686 N 0.90213 0.2935 0.33901 0.0
N2687 N 0.08598 0.38614 0.36081 0.0
C2688 C 0.94418 0.31623 0.34542 0.0
C2689 C 0.03668 0.36417 0.35711 0.0
N2690 N 0.94726 0.39875 0.34452 0.0
N2691 N 1.01404 0.28032 0.36404 0.0
H2692 H 0.11223 0.42538 0.3603 0.0
H2693 H 0.10264 0.36462 0.36326 0.0
H2694 H 0.98799 0.24142 0.36502 0.0
H2695 H 0.04262 0.29602 0.36975 0.0
H2696 H 0.90989 0.3825 0.34161 0.0
H2697 H 0.96388 0.43796 0.34607 0.0
H2698 H 0.89131 0.31405 0.33407 0.0
H2699 H 0.87874 0.25367 0.33845 0.0
C2700 C 0.71847 0.62237 0.35727 0.0
C2701 C 0.74576 0.66293 0.35 0.0
C2702 C 0.66199 0.64808 0.34301 0.0
C2703 C 0.63457 0.61077 0.35093 0.0
N2704 N 0.63767 0.56355 0.3659 0.0
N2705 N 0.74298 0.71932 0.3369 0.0
C2706 C 0.66327 0.59851 0.35816 0.0
C2707 C 0.71728 0.67698 0.34314 0.0
N2708 N 0.74534 0.60565 0.36315 0.0
N2709 N 0.63555 0.6558 0.33518 0.0
H2710 H 0.78292 0.74058 0.33639 0.0
H2711 H 0.72498 0.73611 0.33285 0.0
H2712 H 0.59564 0.63785 0.33483 0.0
H2713 H 0.65305 0.67699 0.32848 0.0
H2714 H 0.72818 0.57287 0.36781 0.0
H2715 H 0.78538 0.62282 0.36286 0.0
H2716 H 0.65585 0.55764 0.37224 0.0
H2717 H 0.59763 0.54142 0.36622 0.0
C2718 C 0.40648 0.09191 0.35633 0.0
C2719 C 0.3621 0.07606 0.34995 0.0
C2720 C 0.36548 0.99801 0.34526 0.0
C2721 C 0.41266 0.01578 0.35082 0.0
N2722 N 0.48118 0.08349 0.36076 0.0
N2723 N 0.30589 0.01851 0.33665 0.0
C2724 C 0.43389 0.06382 0.35614 0.0
C2725 C 0.34368 0.03051 0.34392 0.0
N2726 N 0.42194 0.13338 0.36275 0.0
N2727 N 0.33927 0.94856 0.34176 0.0
H2728 H 0.28798 0.04023 0.3355 0.0
H2729 H 0.29538 0.98947 0.33114 0.0
H2730 H 0.35216 0.92287 0.34307 0.0
H2731 H 0.30201 0.93138 0.33875 0.0
H2732 H 0.45026 0.14394 0.36845 0.0
H2733 H 0.40372 0.15529 0.36286 0.0
H2734 H 0.50158 0.12048 0.36382 0.0
H2735 H 0.50198 0.06413 0.36082 0.0
C2736 C 0.22461 0.36163 0.0973 0.0
C2737 C 0.18642 0.36737 0.09186 0.0
C2738 C 0.1316 0.33934 0.10748 0.0
C2739 C 0.17153 0.33783 0.11319 0.0
N2740 N 0.25837 0.35314 0.114 0.0
N2741 N 0.10706 0.36953 0.09214 0.0
C2742 C 0.21872 0.35046 0.10821 0.0
C2743 C 0.14083 0.35831 0.09706 0.0
N2744 N 0.26585 0.36559 0.09196 0.0
N2745 N 0.08422 0.32118 0.11195 0.0
H2746 H 0.11209 0.38305 0.08449 0.0
H2747 H 0.0763 0.36954 0.09589 0.0
H2748 H 0.07598 0.30741 0.11959 0.0
H2749 H 0.05183 0.31567 0.10784 0.0
H2750 H 0.29228 0.35651 0.09515 0.0
H2751 H 0.27162 0.37437 0.08402 0.0
H2752 H 0.29556 0.36747 0.11115 0.0
H2753 H 0.25503 0.34438 0.12194 0.0
C2754 C 0.6338 0.8377 0.09918 0.0
C2755 C 0.67435 0.86539 0.09195 0.0
C2756 C 0.72795 0.91966 0.1064 0.0
C2757 C 0.69251 0.88375 0.1137 0.0
N2758 N 0.60069 0.84149 0.11608 0.0
N2759 N 0.76014 0.93591 0.08868 0.0
C2760 C 0.64167 0.85168 0.1099 0.0
C2761 C 0.72146 0.90748 0.09555 0.0
N2762 N 0.58819 0.79701 0.09593 0.0
N2763 N 0.76159 0.9686 0.10956 0.0
H2764 H 0.75605 0.92994 0.08063 0.0
H2765 H 0.79707 0.96337 0.09108 0.0
H2766 H 0.75951 0.98128 0.11702 0.0
H2767 H 0.78534 0.99795 0.10444 0.0
H2768 H 0.55962 0.77271 0.10114 0.0
H2769 H 0.58059 0.78523 0.08816 0.0
H2770 H 0.56273 0.82223 0.11341 0.0
H2771 H 0.60574 0.859 0.12336 0.0
C2772 C 0.17587 0.80893 0.10917 0.0
C2773 C 0.17012 0.85138 0.11214 0.0
C2774 C 0.15278 0.86141 0.09378 0.0
C2775 C 0.17168 0.82851 0.09062 0.0
N2776 N 0.15608 0.7449 0.09585 0.0
N2777 N 0.15284 0.91879 0.10699 0.0
C2778 C 0.171 0.79445 0.09844 0.0
C2779 C 0.1581 0.8776 0.10437 0.0
N2780 N 0.18588 0.78219 0.11654 0.0
N2781 N 0.12198 0.86989 0.0872 0.0
H2782 H 0.15626 0.932 0.11464 0.0
H2783 H 0.14913 0.94206 0.10141 0.0
H2784 H 0.10919 0.8502 0.08013 0.0
H2785 H 0.10324 0.88974 0.08941 0.0
H2786 H 0.19589 0.75458 0.11462 0.0
H2787 H 0.18723 0.78984 0.1245 0.0
H2788 H 0.15031 0.71682 0.10133 0.0
H2789 H 0.14162 0.73037 0.08844 0.0
C2790 C 0.3413 0.21387 0.44158 0.0
C2791 C 0.36288 0.18634 0.44644 0.0
C2792 C 0.35345 0.13978 0.43007 0.0
C2793 C 0.33506 0.16964 0.425 0.0
N2794 N 0.31812 0.24003 0.42542 0.0
N2795 N 0.39857 0.1303 0.44487 0.0
C2796 C 0.33088 0.20815 0.43062 0.0
C2797 C 0.37161 0.15141 0.44054 0.0
N2798 N 0.32942 0.24431 0.4475 0.0
N2799 N 0.35169 0.09886 0.42501 0.0
H2800 H 0.41231 0.13757 0.45253 0.0
H2801 H 0.4113 0.10923 0.44064 0.0
H2802 H 0.33887 0.08902 0.41733 0.0
H2803 H 0.35875 0.07199 0.42867 0.0
H2804 H 0.30863 0.26115 0.44473 0.0
H2805 H 0.33737 0.24998 0.45547 0.0
H2806 H 0.31937 0.27217 0.42877 0.0
H2807 H 0.30992 0.23659 0.41745 0.0
C2808 C 0.88978 0.20728 0.43028 0.0
C2809 C 0.85144 0.16276 0.42505 0.0
C2810 C 0.80584 0.12984 0.44175 0.0
C2811 C 0.84161 0.17657 0.44673 0.0
N2812 N 0.9122 0.2637 0.44525 0.0
N2813 N 0.76931 0.08448 0.42547 0.0
C2814 C 0.8821 0.21637 0.44085 0.0
C2815 C 0.80843 0.12473 0.43071 0.0
N2816 N 0.93457 0.24016 0.42525 0.0
N2817 N 0.7703 0.08981 0.44763 0.0
H2818 H 0.77015 0.07943 0.41744 0.0
H2819 H 0.73441 0.05838 0.42891 0.0
H2820 H 0.76722 0.09234 0.45569 0.0
H2821 H 0.74669 0.05296 0.4447 0.0
H2822 H 0.96631 0.26998 0.42899 0.0
H2823 H 0.94198 0.2349 0.41754 0.0
H2824 H 0.93839 0.29586 0.44102 0.0
H2825 H 0.9078 0.27223 0.45293 0.0
C2826 C 0.91214 0.72224 0.43211 0.0
C2827 C 0.87849 0.68775 0.42439 0.0
C2828 C 0.82975 0.62625 0.43835 0.0
C2829 C 0.85501 0.66564 0.44591 0.0
N2830 N 0.92321 0.75147 0.45002 0.0
N2831 N 0.83834 0.59659 0.4214 0.0
C2832 C 0.89723 0.71374 0.44281 0.0
C2833 C 0.8462 0.6362 0.42777 0.0
N2834 N 0.9617 0.75701 0.42951 0.0
N2835 N 0.7892 0.57966 0.44115 0.0
H2836 H 0.85787 0.60318 0.41433 0.0
H2837 H 0.81903 0.55825 0.42379 0.0
H2838 H 0.77604 0.57049 0.44881 0.0
H2839 H 0.76644 0.55174 0.43568 0.0
H2840 H 0.98951 0.78018 0.43496 0.0
H2841 H 0.97656 0.75647 0.42218 0.0
H2842 H 0.95063 0.78894 0.44795 0.0
H2843 H 0.91511 0.74606 0.45798 0.0
C2844 C 0.87284 0.73099 0.9319 0.0
C2845 C 0.84508 0.6911 0.92455 0.0
C2846 C 0.78766 0.63824 0.93871 0.0
C2847 C 0.82312 0.67266 0.94621 0.0
N2848 N 0.86795 0.76439 0.94868 0.0
N2849 N 0.77324 0.60657 0.92094 0.0
C2850 C 0.8573 0.72322 0.94254 0.0
C2851 C 0.80152 0.64467 0.92794 0.0
N2852 N 0.91488 0.77595 0.92884 0.0
N2853 N 0.73783 0.60584 0.94155 0.0
H2854 H 0.78062 0.61062 0.91295 0.0
H2855 H 0.74453 0.56999 0.92323 0.0
H2856 H 0.72428 0.60821 0.94891 0.0
H2857 H 0.70892 0.58302 0.93625 0.0
H2858 H 0.93919 0.8039 0.93415 0.0
H2859 H 0.9276 0.7835 0.92113 0.0
H2860 H 0.88884 0.80232 0.94608 0.0
H2861 H 0.84924 0.75983 0.9558 0.0
C2862 C 0.29829 0.14658 0.93353 0.0
C2863 C 0.33832 0.17503 0.92625 0.0
C2864 C 0.39859 0.2187 0.94067 0.0
C2865 C 0.35967 0.18724 0.94793 0.0
N2866 N 0.27545 0.11464 0.95124 0.0
N2867 N 0.42886 0.2304 0.92282 0.0
C2868 C 0.31036 0.14914 0.94434 0.0
C2869 C 0.3892 0.20882 0.9298 0.0
N2870 N 0.24839 0.11875 0.93017 0.0
N2871 N 0.44375 0.25949 0.94412 0.0
H2872 H 0.42359 0.22385 0.9148 0.0
H2873 H 0.46746 0.25091 0.92503 0.0
H2874 H 0.45215 0.26844 0.952 0.0
H2875 H 0.47102 0.28714 0.93915 0.0
H2876 H 0.217 0.10178 0.93521 0.0
H2877 H 0.23786 0.11632 0.92234 0.0
H2878 H 0.24088 0.0827 0.94896 0.0
H2879 H 0.28313 0.11525 0.9592 0.0
C2880 C 0.82829 0.13499 0.93052 0.0
C2881 C 0.86862 0.1755 0.92474 0.0
C2882 C 0.89946 0.22722 0.94081 0.0
C2883 C 0.85622 0.18864 0.94632 0.0
N2884 N 0.77412 0.11 0.94588 0.0
N2885 N 0.93862 0.26301 0.92402 0.0
C2886 C 0.81916 0.14366 0.94102 0.0
C2887 C 0.9032 0.22244 0.9298 0.0
N2888 N 0.79972 0.08748 0.92609 0.0
N2889 N 0.9377 0.26768 0.94616 0.0
H2890 H 0.9425 0.26079 0.91598 0.0
H2891 H 0.96128 0.29992 0.927 0.0
H2892 H 0.93614 0.27238 0.95419 0.0
H2893 H 0.97273 0.29424 0.94284 0.0
H2894 H 0.77376 0.055 0.93027 0.0
H2895 H 0.8053 0.07926 0.91846 0.0
H2896 H 0.74322 0.07971 0.94203 0.0
H2897 H 0.76556 0.11496 0.95352 0.0
C2898 C 0.74342 0.85209 0.59405 0.0
C2899 C 0.69273 0.81934 0.59025 0.0
C2900 C 0.66394 0.79486 0.60837 0.0
C2901 C 0.71058 0.83749 0.61199 0.0
N2902 N 0.79633 0.90684 0.60808 0.0
N2903 N 0.6248 0.73381 0.59432 0.0
C2904 C 0.75106 0.86582 0.60479 0.0
C2905 C 0.65772 0.78287 0.59752 0.0
N2906 N 0.7846 0.86322 0.58786 0.0
N2907 N 0.62542 0.76579 0.61523 0.0
H2908 H 0.62711 0.72154 0.58683 0.0
H2909 H 0.60147 0.70415 0.59942 0.0
H2910 H 0.62936 0.77169 0.62328 0.0
H2911 H 0.58872 0.73784 0.61281 0.0
H2912 H 0.82256 0.88304 0.59052 0.0
H2913 H 0.77984 0.84598 0.58056 0.0
H2914 H 0.82475 0.93159 0.60289 0.0
H2915 H 0.80378 0.91833 0.61586 0.0
C2916 C 0.21265 0.88781 0.59581 0.0
C2917 C 0.17883 0.84118 0.59058 0.0
C2918 C 0.12982 0.8065 0.60682 0.0
C2919 C 0.16627 0.8512 0.61228 0.0
N2920 N 0.24665 0.93141 0.61234 0.0
N2921 N 0.11123 0.75242 0.59157 0.0
C2922 C 0.20892 0.8911 0.60687 0.0
C2923 C 0.13906 0.79948 0.59622 0.0
N2924 N 0.24733 0.92945 0.59017 0.0
N2925 N 0.08532 0.77143 0.61165 0.0
H2926 H 0.11695 0.74539 0.58386 0.0
H2927 H 0.08579 0.7192 0.59561 0.0
H2928 H 0.07687 0.77513 0.61938 0.0
H2929 H 0.05471 0.74116 0.60775 0.0
H2930 H 0.26933 0.9661 0.59332 0.0
H2931 H 0.25118 0.92834 0.58211 0.0
H2932 H 0.28139 0.9589 0.60907 0.0
H2933 H 0.24506 0.93512 0.6204 0.0
C2934 C 0.1371 0.32189 0.59531 0.0
C2935 C 0.18235 0.36581 0.5916 0.0
C2936 C 0.20213 0.39793 0.60962 0.0
C2937 C 0.16488 0.34872 0.61346 0.0
N2938 N 0.0761 0.28866 0.60948 0.0
N2939 N 0.25882 0.44679 0.59546 0.0
C2940 C 0.12591 0.31671 0.60621 0.0
C2941 C 0.21494 0.40436 0.59882 0.0
N2942 N 0.10459 0.28502 0.58848 0.0
N2943 N 0.21861 0.44007 0.61584 0.0
H2944 H 0.26966 0.45334 0.58763 0.0
H2945 H 0.28625 0.47325 0.6006 0.0
H2946 H 0.2022 0.43757 0.62315 0.0
H2947 H 0.24215 0.47757 0.61319 0.0
H2948 H 0.07403 0.24982 0.59094 0.0
H2949 H 0.1102 0.28834 0.58042 0.0
H2950 H 0.04521 0.26809 0.60442 0.0
H2951 H 0.06531 0.293 0.61698 0.0
C2952 C 0.06793 0.53938 0.76092 0.0
C2953 C 1.01576 0.5152 0.7576 0.0
C2954 C 0.98819 0.50476 0.77595 0.0
C2955 C 0.03964 0.52258 0.77924 0.0
N2956 N 0.12811 0.55122 0.77479 0.0
N2957 N 0.92538 0.46831 0.76199 0.0
C2958 C 0.07954 0.53875 0.7717 0.0
C2959 C 0.97561 0.49642 0.76513 0.0
N2960 N 0.10644 0.56382 0.75377 0.0
N2961 N 0.95143 0.49665 0.78317 0.0
H2962 H 0.91434 0.46088 0.75418 0.0
H2963 H 0.89483 0.44863 0.76714 0.0
H2964 H 0.95936 0.50258 0.79114 0.0
H2965 H 0.91447 0.48882 0.78121 0.0
H2966 H 0.14508 0.58667 0.75579 0.0
H2967 H 0.09926 0.56512 0.74583 0.0
H2968 H 0.15734 0.55753 0.76959 0.0
H2969 H 0.13827 0.55129 0.78258 0.0
C2970 C 0.56117 0.5428 0.76268 0.0
C2971 C 0.51967 0.50378 0.75686 0.0
C2972 C 0.46708 0.47461 0.77281 0.0
C2973 C 0.50714 0.51633 0.7784 0.0
N2974 N 0.5886 0.59565 0.77824 0.0
N2975 N 0.43087 0.43658 0.75595 0.0
C2976 C 0.55314 0.55199 0.77321 0.0
C2977 C 0.47193 0.47073 0.76181 0.0
N2978 N 0.60897 0.56991 0.75827 0.0
N2979 N 0.42507 0.43799 0.77808 0.0
H2980 H 0.43328 0.43256 0.74792 0.0
H2981 H 0.39359 0.41505 0.75884 0.0
H2982 H 0.42011 0.44006 0.78609 0.0
H2983 H 0.39707 0.40377 0.77473 0.0
H2984 H 0.64199 0.59459 0.76248 0.0
H2985 H 0.61671 0.56443 0.7506 0.0
H2986 H 0.61995 0.62591 0.77451 0.0
H2987 H 0.5844 0.60386 0.78596 0.0
C2988 C 0.50477 0.95493 0.7597 0.0
C2989 C 0.54393 1.00385 0.75614 0.0
C2990 C 0.5701 0.02824 0.77442 0.0
C2991 C 0.52336 0.98524 0.77784 0.0
N2992 N 0.44583 0.90597 0.77357 0.0
N2993 N 0.63291 0.06057 0.76057 0.0
C2994 C 0.49073 0.94788 0.77044 0.0
C2995 C 0.58263 0.03395 0.76359 0.0
N2996 N 0.4874 0.9133 0.7533 0.0
N2997 N 0.60262 0.06389 0.78144 0.0
H2998 H 0.64404 0.05657 0.75307 0.0
H2999 H 0.66343 0.07955 0.76579 0.0
H3000 H 0.59575 0.06024 0.78946 0.0
H3001 H 0.63452 0.09855 0.77917 0.0
H3002 H 0.4623 0.87578 0.75575 0.0
H3003 H 0.50437 0.9159 0.74605 0.0
H3004 H 0.41839 0.88055 0.7683 0.0
H3005 H 0.43441 0.89879 0.78136 0.0
C3006 C 0.54028 0.06134 0.26525 0.0
C3007 C 0.51199 0.02231 0.25777 0.0
C3008 C 0.45685 0.96703 0.27194 0.0
C3009 C 0.49297 1.0008 0.27943 0.0
N3010 N 0.53698 0.09215 0.28243 0.0
N3011 N 0.44065 0.9377 0.25401 0.0
C3012 C 0.5261 0.05198 0.27595 0.0
C3013 C 0.46936 0.97505 0.26111 0.0
N3014 N 0.58159 0.107 0.26225 0.0
N3015 N 0.40751 0.93373 0.27494 0.0
H3016 H 0.447 0.9429 0.24599 0.0
H3017 H 0.41267 0.90063 0.2562 0.0
H3018 H 0.39466 0.93501 0.28243 0.0
H3019 H 0.37811 0.91125 0.2697 0.0
H3020 H 0.6063 0.1344 0.26761 0.0
H3021 H 0.59343 0.1157 0.2545 0.0
H3022 H 0.55707 0.13043 0.28002 0.0
H3023 H 0.51917 0.08637 0.28969 0.0
C3024 C 0.03362 0.54993 0.27516 0.0
C3025 C 0.03646 0.50969 0.28042 0.0
C3026 C 1.02088 0.46331 0.26377 0.0
C3027 C 1.01358 0.50144 0.25874 0.0
N3028 N 1.00311 0.57588 0.2601 0.0
N3029 N 0.02601 0.42476 0.2801 0.0
C3030 C 1.01716 0.5433 0.26457 0.0
C3031 C 0.02822 0.4654 0.27481 0.0
N3032 N 0.04853 0.59544 0.28018 0.0
N3033 N 0.02225 0.42597 0.25793 0.0
H3034 H 0.03147 0.42517 0.28815 0.0
H3035 H 1.01485 0.38926 0.27669 0.0
H3036 H 1.01666 0.42316 0.24987 0.0
H3037 H 0.03281 0.40026 0.26091 0.0
H3038 H 0.05293 0.62816 0.27641 0.0
H3039 H 0.06117 0.60218 0.2879 0.0
H3040 H 0.99928 0.60347 0.26429 0.0
H3041 H 0.9906 0.57238 0.25239 0.0
C3042 C 0.48772 0.47127 0.26394 0.0
C3043 C 0.53632 0.50297 0.25917 0.0
C3044 C 0.57204 0.54331 0.27619 0.0
C3045 C 0.52226 0.51498 0.28072 0.0
N3046 N 0.43077 0.459 0.27841 0.0
N3047 N 0.6231 0.57422 0.26036 0.0
C3048 C 0.47956 0.48085 0.27445 0.0
C3049 C 0.5781 0.54041 0.2652 0.0
N3050 N 0.4497 0.43078 0.25855 0.0
N3051 N 0.61376 0.57185 0.28245 0.0
H3052 H 0.62892 0.57301 0.25237 0.0
H3053 H 0.65309 0.60591 0.26407 0.0
H3054 H 0.61071 0.57484 0.29049 0.0
H3055 H 0.65167 0.58908 0.27984 0.0
H3056 H 0.4156 0.40285 0.26197 0.0
H3057 H 0.45402 0.42228 0.25086 0.0
H3058 H 0.39775 0.43853 0.27388 0.0
H3059 H 0.42291 0.46518 0.28602 0.0
C3060 C 0.04648 0.22216 0.27583 0.0
C3061 C 0.03046 0.17387 0.28071 0.0
C3062 C 0.05468 0.14579 0.26469 0.0
C3063 C 0.05905 0.18895 0.2592 0.0
N3064 N 0.06004 0.26996 0.2598 0.0
N3065 N 0.06412 0.1159 0.28155 0.0
C3066 C 0.05497 0.22753 0.26484 0.0
C3067 C 0.04671 0.14208 0.27569 0.0
N3068 N 0.06338 0.26507 0.28185 0.0
N3069 N 0.05774 0.10789 0.25943 0.0
H3070 H 0.06953 0.12154 0.28959 0.0
H3071 H 0.08085 0.09584 0.27833 0.0
H3072 H 0.06359 0.10909 0.25139 0.0
H3073 H 0.05011 0.07349 0.26298 0.0
H3074 H 0.07995 0.30216 0.27879 0.0
H3075 H 0.06838 0.26401 0.28989 0.0
H3076 H 0.05163 0.29607 0.26338 0.0
H3077 H 0.06937 0.27735 0.25192 0.0
C3078 C 0.89009 0.89333 0.27657 0.0
C3079 C 0.86629 0.84186 0.28027 0.0
C3080 C 0.81883 0.81156 0.26366 0.0
C3081 C 0.84563 0.8625 0.25966 0.0
N3082 N 0.91258 0.95088 0.26169 0.0
N3083 N 0.81452 0.75103 0.27677 0.0
C3084 C 0.88289 0.90315 0.26596 0.0
C3085 C 0.83243 0.8007 0.27365 0.0
N3086 N 0.91841 0.93296 0.28329 0.0
N3087 N 0.77913 0.77374 0.25806 0.0
H3088 H 0.82329 0.7414 0.28401 0.0
H3089 H 0.79454 0.71944 0.27187 0.0
H3090 H 0.76832 0.78003 0.2507 0.0
H3091 H 0.75421 0.73725 0.26102 0.0
H3092 H 0.93213 0.97145 0.28145 0.0
H3093 H 0.92481 0.92718 0.29105 0.0
H3094 H 0.94411 0.98077 0.26546 0.0
H3095 H 0.90836 0.95954 0.25399 0.0
C3096 C 0.17917 0.05503 0.2725 0.0
C3097 C 0.17621 0.0224 0.28086 0.0
C3098 C 0.15869 0.95367 0.26824 0.0
C3099 C 0.15968 0.98562 0.25995 0.0
N3100 N 0.15826 0.0617 0.25446 0.0
N3101 N 0.15121 0.93705 0.2869 0.0
C3102 C 0.16588 0.03474 0.26219 0.0
C3103 C 0.1622 0.97052 0.27878 0.0
N3104 N 0.19736 0.10615 0.27428 0.0
N3105 N 0.15666 0.90815 0.26606 0.0
H3106 H 0.15281 0.948 0.29467 0.0
H3107 H 0.13582 0.89762 0.28592 0.0
H3108 H 0.15367 0.89427 0.25849 0.0
H3109 H 0.16184 0.886 0.27167 0.0
H3110 H 0.20585 0.13289 0.26833 0.0
H3111 H 0.20816 0.12291 0.28164 0.0
H3112 H 0.15677 0.09514 0.25582 0.0
H3113 H 0.14843 0.04797 0.24684 0.0
C3114 C 0.0318 0.7934 0.77396 0.0
C3115 C 1.00088 0.81312 0.77791 0.0
C3116 C 1.00806 0.85569 0.76105 0.0
C3117 C 0.04386 0.84108 0.75756 0.0
N3118 N 0.09485 0.80112 0.76115 0.0
N3119 N 0.96558 0.86939 0.77575 0.0
C3120 C 0.05693 0.81108 0.76413 0.0
C3121 C 0.99039 0.8458 0.77158 0.0
N3122 N 0.03612 0.75676 0.77949 0.0
N3123 N 0.99008 0.87813 0.75422 0.0
H3124 H 0.9524 0.8637 0.78342 0.0
H3125 H 0.96192 0.89801 0.77191 0.0
H3126 H 1.00214 0.88596 0.74647 0.0
H3127 H 0.95988 0.88467 0.75593 0.0
H3128 H 0.05359 0.73688 0.77657 0.0
H3129 H 1.01815 0.74286 0.78667 0.0
H3130 H 0.11034 0.78464 0.76607 0.0
H3131 H 0.11378 0.81294 0.754 0.0
C3132 C 0.23219 0.23639 0.7638 0.0
C3133 C 0.18038 0.21392 0.76031 0.0
C3134 C 0.15209 0.19422 0.77857 0.0
C3135 C 0.20219 0.20492 0.78162 0.0
N3136 N 0.28853 0.27432 0.77859 0.0
N3137 N 0.08992 0.17204 0.76463 0.0
C3138 C 0.2427 0.23687 0.77466 0.0
C3139 C 0.13998 0.19299 0.76778 0.0
N3140 N 0.27158 0.25687 0.75676 0.0
N3141 N 0.11948 0.1949 0.78589 0.0
H3142 H 0.07933 0.17211 0.75687 0.0
H3143 H 0.059 0.15157 0.76968 0.0
H3144 H 0.13165 0.20661 0.79354 0.0
H3145 H 0.08419 0.19191 0.78405 0.0
H3146 H 0.30964 0.26913 0.75885 0.0
H3147 H 0.26563 0.25789 0.74876 0.0
H3148 H 0.31794 0.30183 0.77395 0.0
H3149 H 0.2935 0.28253 0.78656 0.0
C3150 C 0.85869 0.98362 0.77676 0.0
C3151 C 0.86505 0.03311 0.77866 0.0
C3152 C 0.84727 0.03939 0.76006 0.0
C3153 C 0.84586 0.99218 0.758 0.0
N3154 N 0.85856 0.92333 0.76414 0.0
N3155 N 0.87302 0.11162 0.77182 0.0
C3156 C 0.85377 0.96534 0.7663 0.0
C3157 C 0.86128 0.06192 0.77022 0.0
N3158 N 0.8559 0.95337 0.785 0.0
N3159 N 0.83377 0.06206 0.75237 0.0
H3160 H 0.88312 0.12935 0.77911 0.0
H3161 H 0.87682 0.13663 0.7658 0.0
H3162 H 0.8236 0.04693 0.74486 0.0
H3163 H 0.82847 0.09335 0.75365 0.0
H3164 H 0.84582 0.91492 0.78425 0.0
H3165 H 0.85914 0.96529 0.79274 0.0
H3166 H 0.87015 0.90554 0.76964 0.0
H3167 H 0.85534 0.90881 0.75662 0.0
C3168 C 0.72591 0.55916 0.61092 0.0
C3169 C 0.67378 0.5212 0.61279 0.0
C3170 C 0.66075 0.50399 0.59391 0.0
C3171 C 0.71392 0.53872 0.59214 0.0
N3172 N 0.79896 0.59378 0.59911 0.0
N3173 N 0.59357 0.4516 0.6063 0.0
C3174 C 0.74701 0.56486 0.60069 0.0
C3175 C 0.64173 0.49202 0.60434 0.0
N3176 N 0.75488 0.5908 0.61886 0.0
N3177 N 0.62805 0.48355 0.58559 0.0
H3178 H 0.5782 0.44169 0.6138 0.0
H3179 H 0.57048 0.42524 0.60064 0.0
H3180 H 0.64052 0.49128 0.57787 0.0
H3181 H 0.58813 0.46253 0.5863 0.0
H3182 H 0.79119 0.62291 0.61779 0.0
H3183 H 0.74095 0.5874 0.62645 0.0
H3184 H 0.82575 0.60909 0.60515 0.0
H3185 H 0.8158 0.59913 0.59177 0.0
C3186 C 0.48544 0.18467 0.61135 0.0
C3187 C 0.50529 0.15098 0.61292 0.0
C3188 C 0.50146 0.13604 0.59397 0.0
C3189 C 0.48774 0.17448 0.59234 0.0
N3190 N 0.47274 0.24023 0.59942 0.0
N3191 N 0.53835 0.0992 0.60564 0.0
C3192 C 0.48109 0.19994 0.60103 0.0
C3193 C 0.51467 0.12762 0.6042 0.0
N3194 N 0.46969 0.20122 0.61975 0.0
N3195 N 0.50078 0.10676 0.58575 0.0
H3196 H 0.54849 0.09194 0.61297 0.0
H3197 H 0.55163 0.08617 0.59952 0.0
H3198 H 0.49142 0.11194 0.57817 0.0
H3199 H 0.50497 0.07453 0.58658 0.0
H3200 H 0.44994 0.22144 0.6191 0.0
H3201 H 0.47216 0.19065 0.6274 0.0
H3202 H 0.47347 0.26413 0.60537 0.0
H3203 H 0.46918 0.25255 0.59201 0.0
C3204 C 0.90163 0.4019 0.60432 0.0
C3205 C 0.89837 0.36898 0.61264 0.0
C3206 C 0.87196 0.29783 0.60015 0.0
C3207 C 0.8784 0.33165 0.59177 0.0
N3208 N 0.9095 0.41817 0.58567 0.0
N3209 N 0.89007 0.28859 0.61827 0.0
C3210 C 0.89636 0.38443 0.59381 0.0
C3211 C 0.88645 0.3178 0.61048 0.0
N3212 N 0.90749 0.44913 0.60647 0.0
N3213 N 0.84984 0.24621 0.59834 0.0
H3214 H 0.90044 0.30193 0.62589 0.0
H3215 H 0.88728 0.25303 0.61699 0.0
H3216 H 0.83878 0.23005 0.59093 0.0
H3217 H 0.83869 0.21893 0.60426 0.0
H3218 H 0.9042 0.47242 0.60085 0.0
H3219 H 0.9113 0.46338 0.61403 0.0
H3220 H 0.92789 0.4579 0.58662 0.0
H3221 H 0.90641 0.4068 0.57789 0.0
C3222 C 0.64961 0.1345 0.09328 0.0
C3223 C 0.70317 0.16644 0.09137 0.0
C3224 C 0.71846 0.1816 0.11028 0.0
C3225 C 0.66524 0.14759 0.11224 0.0
N3226 N 0.58192 0.08399 0.10576 0.0
N3227 N 0.78981 0.21195 0.09811 0.0
C3228 C 0.63136 0.12174 0.10376 0.0
C3229 C 0.73794 0.18734 0.09991 0.0
N3230 N 0.61592 0.11783 0.08507 0.0
N3231 N 0.75009 0.21043 0.11825 0.0
H3232 H 0.80544 0.21718 0.09064 0.0
H3233 H 0.81719 0.22313 0.10403 0.0
H3234 H 0.73756 0.20755 0.12593 0.0
H3235 H 0.78772 0.24019 0.11713 0.0
H3236 H 0.5761 0.09956 0.08594 0.0
H3237 H 0.62786 0.12558 0.07732 0.0
H3238 H 0.55669 0.06004 0.10004 0.0
H3239 H 0.56747 0.07346 0.11331 0.0
C3240 C 0.85097 0.48511 0.10722 0.0
C3241 C 0.86616 0.52425 0.11488 0.0
C3242 C 0.86546 0.58306 0.10154 0.0
C3243 C 0.84756 0.543 0.09402 0.0
N3244 N 0.81405 0.45339 0.09008 0.0
N3245 N 0.87939 0.60733 0.11984 0.0
C3246 C 0.83751 0.49323 0.09699 0.0
C3247 C 0.87089 0.57235 0.11218 0.0
N3248 N 0.85144 0.4409 0.10958 0.0
N3249 N 0.87903 0.6318 0.09843 0.0
H3250 H 0.88385 0.60085 0.12768 0.0
H3251 H 0.87786 0.64083 0.11861 0.0
H3252 H 0.87471 0.64089 0.09077 0.0
H3253 H 0.8979 0.6639 0.10324 0.0
H3254 H 0.84661 0.41351 0.10404 0.0
H3255 H 0.8608 0.43329 0.11696 0.0
H3256 H 0.80054 0.41514 0.09209 0.0
H3257 H 0.80395 0.45797 0.08252 0.0
C3258 C 0.51525 0.38829 0.10592 0.0
C3259 C 0.53648 0.36811 0.1132 0.0
C3260 C 0.53459 0.30872 0.09976 0.0
C3261 C 0.51753 0.33199 0.09227 0.0
N3262 N 0.49966 0.3995 0.08777 0.0
N3263 N 0.57345 0.31449 0.11674 0.0
C3264 C 0.51012 0.37337 0.09523 0.0
C3265 C 0.54815 0.32978 0.11003 0.0
N3266 N 0.49826 0.42042 0.10929 0.0
N3267 N 0.53612 0.26533 0.09718 0.0
H3268 H 0.58348 0.3287 0.12432 0.0
H3269 H 0.58814 0.29093 0.11456 0.0
H3270 H 0.52661 0.24883 0.08977 0.0
H3271 H 0.54271 0.24326 0.10257 0.0
H3272 H 0.47718 0.4318 0.10464 0.0
H3273 H 0.5013 0.43231 0.11703 0.0
H3274 H 0.49949 0.43352 0.08923 0.0
H3275 H 0.49547 0.38965 0.07988 0.0
C3276 C 0.41025 0.84567 0.93309 0.0
C3277 C 0.38318 0.85407 0.92488 0.0
C3278 C 0.32008 0.85029 0.93768 0.0
C3279 C 0.34456 0.83744 0.94572 0.0
N3280 N 0.40837 0.81506 0.95075 0.0
N3281 N 0.30734 0.85551 0.9191 0.0
C3282 C 0.38842 0.83296 0.94332 0.0
C3283 C 0.33668 0.85392 0.92712 0.0
N3284 N 0.45776 0.85158 0.93118 0.0
N3285 N 0.28206 0.86091 0.94019 0.0
H3286 H 0.3181 0.8582 0.91129 0.0
H3287 H 0.27032 0.84967 0.9201 0.0
H3288 H 0.26885 0.85886 0.94779 0.0
H3289 H 0.26671 0.87608 0.9349 0.0
H3290 H 0.48202 0.85171 0.93703 0.0
H3291 H 0.47498 0.86081 0.92384 0.0
H3292 H 0.4367 0.80557 0.94921 0.0
H3293 H 0.39355 0.80555 0.95829 0.0
C3294 C 0.22257 0.56605 0.94338 0.0
C3295 C 0.20492 0.51498 0.94689 0.0
C3296 C 0.17083 0.48251 0.92928 0.0
C3297 C 0.18493 0.5331 0.92599 0.0
N3298 N 0.21695 0.62207 0.93036 0.0
N3299 N 0.15437 0.42377 0.94371 0.0
C3300 C 0.20885 0.57464 0.93318 0.0
C3301 C 0.17682 0.47298 0.93997 0.0
N3302 N 0.25374 0.60647 0.9497 0.0
N3303 N 0.15332 0.44373 0.9221 0.0
H3304 H 0.15791 0.41513 0.95144 0.0
H3305 H 0.12862 0.39171 0.9394 0.0
H3306 H 0.14827 0.44907 0.91423 0.0
H3307 H 0.14791 0.40736 0.92373 0.0
H3308 H 0.27265 0.64464 0.94723 0.0
H3309 H 0.26399 0.60162 0.95722 0.0
H3310 H 0.22903 0.65262 0.93555 0.0
H3311 H 0.20752 0.62985 0.923 0.0
C3312 C 0.48737 0.68284 0.92927 0.0
C3313 C 0.50843 0.65198 0.92601 0.0
C3314 C 0.54223 0.65632 0.94375 0.0
C3315 C 0.52576 0.69142 0.9467 0.0
N3316 N 0.48816 0.7433 0.94193 0.0
N3317 N 0.56082 0.61373 0.92973 0.0
C3318 C 0.49956 0.7059 0.93937 0.0
C3319 C 0.53706 0.63975 0.93316 0.0
N3320 N 0.45488 0.68933 0.92274 0.0
N3321 N 0.56167 0.6378 0.95117 0.0
H3322 H 0.55701 0.60001 0.92212 0.0
H3323 H 0.5872 0.60885 0.93417 0.0
H3324 H 0.56623 0.64926 0.95896 0.0
H3325 H 0.56933 0.60809 0.94982 0.0
H3326 H 0.43379 0.70665 0.925 0.0
H3327 H 0.4456 0.67351 0.91527 0.0
H3328 H 0.47444 0.7598 0.93659 0.0
H3329 H 0.49617 0.76091 0.94923 0.0
C3330 C 0.30494 0.49058 0.43736 0.0
C3331 C 0.32224 0.46636 0.44456 0.0
C3332 C 0.35646 0.44043 0.42978 0.0
C3333 C 0.35043 0.47499 0.42308 0.0
N3334 N 0.28162 0.49213 0.4194 0.0
N3335 N 0.36469 0.41712 0.4475 0.0
C3336 C 0.31417 0.48933 0.42648 0.0
C3337 C 0.34791 0.44079 0.44072 0.0
N3338 N 0.2794 0.51468 0.44083 0.0
N3339 N 0.36079 0.4011 0.42557 0.0
H3340 H 0.35856 0.41583 0.45553 0.0
H3341 H 0.38803 0.40233 0.44517 0.0
H3342 H 0.35604 0.39342 0.41758 0.0
H3343 H 0.36077 0.372 0.43002 0.0
H3344 H 0.27082 0.53737 0.43599 0.0
H3345 H 0.26999 0.51486 0.44866 0.0
H3346 H 0.25128 0.49788 0.42148 0.0
H3347 H 0.28012 0.48045 0.41167 0.0
C3348 C 0.57698 0.90405 0.42815 0.0
C3349 C 0.52538 0.87572 0.42448 0.0
C3350 C 0.49941 0.82618 0.44084 0.0
C3351 C 0.55022 0.85679 0.4448 0.0
N3352 N 0.63591 0.92912 0.4429 0.0
N3353 N 0.43581 0.81557 0.42783 0.0
C3354 C 0.58864 0.89698 0.43863 0.0
C3355 C 0.48613 0.83835 0.43097 0.0
N3356 N 0.61504 0.93669 0.42152 0.0
N3357 N 0.46414 0.78449 0.44641 0.0
H3358 H 0.42456 0.82289 0.42062 0.0
H3359 H 0.40481 0.79257 0.43266 0.0
H3360 H 0.47193 0.7749 0.45375 0.0
H3361 H 0.42845 0.7571 0.44345 0.0
H3362 H 0.65413 0.95444 0.42329 0.0
H3363 H 0.60775 0.94332 0.41388 0.0
H3364 H 0.66392 0.9625 0.43929 0.0
H3365 H 0.64594 0.92441 0.45046 0.0
C3366 C 0.17895 0.64338 0.44447 0.0
C3367 C 0.19282 0.69519 0.44655 0.0
C3368 C 0.18228 0.70799 0.4279 0.0
C3369 C 0.17222 0.65742 0.42572 0.0
N3370 N 0.16925 0.57971 0.43164 0.0
N3371 N 0.21606 0.77949 0.44006 0.0
C3372 C 0.17288 0.62587 0.43394 0.0
C3373 C 0.19676 0.72824 0.4382 0.0
N3374 N 0.16998 0.61038 0.4526 0.0
N3375 N 0.17656 0.73619 0.42016 0.0
H3376 H 0.22691 0.79573 0.44747 0.0
H3377 H 0.22536 0.80666 0.43418 0.0
H3378 H 0.16677 0.72297 0.41252 0.0
H3379 H 0.17754 0.77088 0.42148 0.0
H3380 H 0.15428 0.57088 0.45168 0.0
H3381 H 0.17428 0.62183 0.46039 0.0
H3382 H 0.17528 0.55751 0.4371 0.0
H3383 H 0.16444 0.56545 0.42406 0.0
loop_
_geom_bond_atom_site_label_1
_geom_bond_atom_site_label_2
_geom_bond_distance
_geom_bond_site_symmetry_2
_ccdc_geom_bond_type
Tb0 C2 2.809 . S
Tb0 O20 2.484 . S
Tb0 O21 2.440 . S
Tb0 O22 2.658 . S
Tb0 O23 2.409 . S
Tb0 O24 2.378 . S
Tb0 O28 2.325 . S
Tb0 O31 2.341 . S
Tb1 C11 2.809 . S
Tb1 O22 2.325 . S
Tb1 O25 2.341 . S
Tb1 O26 2.484 . S
Tb1 O27 2.440 . S
Tb1 O28 2.658 . S
Tb1 O29 2.409 . S
Tb1 O30 2.378 . S
C2 Tb0 2.809 . S
C2 C3 1.514 . S
C2 O20 1.248 . S
C2 O21 1.266 . S
C3 C2 1.514 . S
C3 C4 1.359 . S
C3 C8 1.348 . S
C4 C3 1.359 . S
C4 C5 1.380 . S
C4 H32 0.929 . S
C5 C4 1.380 . S
C5 C6 1.347 . S
C5 H33 0.931 . S
C6 C5 1.347 . S
C6 C7 1.369 . S
C7 C6 1.369 . S
C7 C8 1.408 . S
C7 H34 0.930 . S
C8 C3 1.348 . S
C8 C7 1.408 . S
C8 H35 0.930 . S
C9 O22 1.281 . S
C9 O23 1.254 . S
C10 O24 1.236 . S
C10 O25 1.266 . S
C11 Tb1 2.809 . S
C11 C12 1.514 . S
C11 O26 1.248 . S
C11 O27 1.266 . S
C12 C11 1.514 . S
C12 C13 1.359 . S
C12 C17 1.348 . S
C13 C12 1.359 . S
C13 C14 1.380 . S
C13 H36 0.929 . S
C14 C13 1.380 . S
C14 C15 1.347 . S
C14 H37 0.931 . S
C15 C14 1.347 . S
C15 C16 1.369 . S
C16 C15 1.369 . S
C16 C17 1.408 . S
C16 H38 0.930 . S
C17 C12 1.348 . S
C17 C16 1.408 . S
C17 H39 0.930 . S
C18 O28 1.281 . S
C18 O29 1.254 . S
C19 O30 1.236 . S
C19 O31 1.266 . S
O20 Tb0 2.484 . S
O20 C2 1.248 . S
O21 Tb0 2.440 . S
O21 C2 1.266 . S
O22 Tb0 2.658 . S
O22 Tb1 2.325 . S
O22 C9 1.281 . S
O23 Tb0 2.409 . S
O23 C9 1.254 . S
O24 Tb0 2.378 . S
O24 C10 1.236 . S
O25 Tb1 2.341 . S
O25 C10 1.266 . S
O26 Tb1 2.484 . S
O26 C11 1.248 . S
O27 Tb1 2.440 . S
O27 C11 1.266 . S
O28 Tb0 2.325 . S
O28 Tb1 2.658 . S
O28 C18 1.281 . S
O29 Tb1 2.409 . S
O29 C18 1.254 . S
O30 Tb1 2.378 . S
O30 C19 1.236 . S
O31 Tb0 2.341 . S
O31 C19 1.266 . S
H32 C4 0.929 . S
H33 C5 0.931 . S
H34 C7 0.930 . S
H35 C8 0.930 . S
H36 C13 0.929 . S
H37 C14 0.931 . S
H38 C16 0.930 . S
H39 C17 0.930 . S
Tb40 C42 2.809 . S
Tb40 O60 2.484 . S
Tb40 O61 2.440 . S
Tb40 O62 2.658 . S
Tb40 O63 2.409 . S
Tb40 O64 2.378 . S
Tb40 O68 2.325 . S
Tb40 O71 2.341 . S
Tb41 C51 2.809 . S
Tb41 O62 2.325 . S
Tb41 O65 2.341 . S
Tb41 O66 2.484 . S
Tb41 O67 2.440 . S
Tb41 O68 2.658 . S
Tb41 O69 2.409 . S
Tb41 O70 2.378 . S
C42 Tb40 2.809 . S
C42 C43 1.514 . S
C42 O60 1.248 . S
C42 O61 1.266 . S
C43 C42 1.514 . S
C43 C44 1.359 . S
C43 C48 1.348 . S
C44 C43 1.359 . S
C44 C45 1.380 . S
C44 H72 0.929 . S
C45 C44 1.380 . S
C45 C46 1.347 . S
C45 H73 0.931 . S
C46 C45 1.347 . S
C46 C47 1.369 . S
C47 C46 1.369 . S
C47 C48 1.408 . S
C47 H74 0.930 . S
C48 C43 1.348 . S
C48 C47 1.408 . S
C48 H75 0.930 . S
C49 O62 1.281 . S
C49 O63 1.254 . S
C50 O64 1.236 . S
C50 O65 1.266 . S
C51 Tb41 2.809 . S
C51 C52 1.514 . S
C51 O66 1.248 . S
C51 O67 1.266 . S
C52 C51 1.514 . S
C52 C53 1.359 . S
C52 C57 1.348 . S
C53 C52 1.359 . S
C53 C54 1.380 . S
C53 H76 0.929 . S
C54 C53 1.380 . S
C54 C55 1.347 . S
C54 H77 0.931 . S
C55 C54 1.347 . S
C55 C56 1.369 . S
C56 C55 1.369 . S
C56 C57 1.408 . S
C56 H78 0.930 . S
C57 C52 1.348 . S
C57 C56 1.408 . S
C57 H79 0.930 . S
C58 O68 1.281 . S
C58 O69 1.254 . S
C59 O70 1.236 . S
C59 O71 1.266 . S
O60 Tb40 2.484 . S
O60 C42 1.248 . S
O61 Tb40 2.440 . S
O61 C42 1.266 . S
O62 Tb40 2.658 . S
O62 Tb41 2.325 . S
O62 C49 1.281 . S
O63 Tb40 2.409 . S
O63 C49 1.254 . S
O64 Tb40 2.378 . S
O64 C50 1.236 . S
O65 Tb41 2.341 . S
O65 C50 1.266 . S
O66 Tb41 2.484 . S
O66 C51 1.248 . S
O67 Tb41 2.440 . S
O67 C51 1.266 . S
O68 Tb40 2.325 . S
O68 Tb41 2.658 . S
O68 C58 1.281 . S
O69 Tb41 2.409 . S
O69 C58 1.254 . S
O70 Tb41 2.378 . S
O70 C59 1.236 . S
O71 Tb40 2.341 . S
O71 C59 1.266 . S
H72 C44 0.929 . S
H73 C45 0.931 . S
H74 C47 0.930 . S
H75 C48 0.930 . S
H76 C53 0.929 . S
H77 C54 0.931 . S
H78 C56 0.930 . S
H79 C57 0.930 . S
Tb80 C82 2.809 . S
Tb80 O100 2.484 . S
Tb80 O101 2.440 . S
Tb80 O102 2.658 . S
Tb80 O103 2.409 . S
Tb80 O104 2.378 . S
Tb80 O108 2.325 . S
Tb80 O111 2.341 . S
Tb81 C91 2.809 . S
Tb81 O102 2.325 . S
Tb81 O105 2.341 . S
Tb81 O106 2.484 . S
Tb81 O107 2.440 . S
Tb81 O108 2.658 . S
Tb81 O109 2.409 . S
Tb81 O110 2.378 . S
C82 Tb80 2.809 . S
C82 C83 1.514 . S
C82 O100 1.248 . S
C82 O101 1.266 . S
C83 C82 1.514 . S
C83 C84 1.359 . S
C83 C88 1.348 . S
C84 C83 1.359 . S
C84 C85 1.380 . S
C84 H112 0.929 . S
C85 C84 1.380 . S
C85 C86 1.347 . S
C85 H113 0.931 . S
C86 C85 1.347 . S
C86 C87 1.369 . S
C87 C86 1.369 . S
C87 C88 1.408 . S
C87 H114 0.930 . S
C88 C83 1.348 . S
C88 C87 1.408 . S
C88 H115 0.930 . S
C89 O102 1.281 . S
C89 O103 1.254 . S
C90 O104 1.236 . S
C90 O105 1.266 . S
C91 Tb81 2.809 . S
C91 C92 1.514 . S
C91 O106 1.248 . S
C91 O107 1.266 . S
C92 C91 1.514 . S
C92 C93 1.359 . S
C92 C97 1.348 . S
C93 C92 1.359 . S
C93 C94 1.380 . S
C93 H116 0.929 . S
C94 C93 1.380 . S
C94 C95 1.347 . S
C94 H117 0.931 . S
C95 C94 1.347 . S
C95 C96 1.369 . S
C96 C95 1.369 . S
C96 C97 1.408 . S
C96 H118 0.930 . S
C97 C92 1.348 . S
C97 C96 1.408 . S
C97 H119 0.930 . S
C98 O108 1.281 . S
C98 O109 1.254 . S
C99 O110 1.236 . S
C99 O111 1.266 . S
O100 Tb80 2.484 . S
O100 C82 1.248 . S
O101 Tb80 2.440 . S
O101 C82 1.266 . S
O102 Tb80 2.658 . S
O102 Tb81 2.325 . S
O102 C89 1.281 . S
O103 Tb80 2.409 . S
O103 C89 1.254 . S
O104 Tb80 2.378 . S
O104 C90 1.236 . S
O105 Tb81 2.341 . S
O105 C90 1.266 . S
O106 Tb81 2.484 . S
O106 C91 1.248 . S
O107 Tb81 2.440 . S
O107 C91 1.266 . S
O108 Tb80 2.325 . S
O108 Tb81 2.658 . S
O108 C98 1.281 . S
O109 Tb81 2.409 . S
O109 C98 1.254 . S
O110 Tb81 2.378 . S
O110 C99 1.236 . S
O111 Tb80 2.341 . S
O111 C99 1.266 . S
H112 C84 0.929 . S
H113 C85 0.931 . S
H114 C87 0.930 . S
H115 C88 0.930 . S
H116 C93 0.929 . S
H117 C94 0.931 . S
H118 C96 0.930 . S
H119 C97 0.930 . S
Tb120 C122 2.809 . S
Tb120 O140 2.484 . S
Tb120 O141 2.440 . S
Tb120 O142 2.658 . S
Tb120 O143 2.409 . S
Tb120 O144 2.378 . S
Tb120 O148 2.325 . S
Tb120 O151 2.341 . S
Tb121 C131 2.809 . S
Tb121 O142 2.325 . S
Tb121 O145 2.341 . S
Tb121 O146 2.484 . S
Tb121 O147 2.440 . S
Tb121 O148 2.658 . S
Tb121 O149 2.409 . S
Tb121 O150 2.378 . S
C122 Tb120 2.809 . S
C122 C123 1.514 . S
C122 O140 1.248 . S
C122 O141 1.266 . S
C123 C122 1.514 . S
C123 C124 1.359 . S
C123 C128 1.348 . S
C124 C123 1.359 . S
C124 C125 1.380 . S
C124 H152 0.929 . S
C125 C124 1.380 . S
C125 C126 1.347 . S
C125 H153 0.931 . S
C126 C125 1.347 . S
C126 C127 1.369 . S
C127 C126 1.369 . S
C127 C128 1.408 . S
C127 H154 0.930 . S
C128 C123 1.348 . S
C128 C127 1.408 . S
C128 H155 0.930 . S
C129 O142 1.281 . S
C129 O143 1.254 . S
C130 O144 1.236 . S
C130 O145 1.266 . S
C131 Tb121 2.809 . S
C131 C132 1.514 . S
C131 O146 1.248 . S
C131 O147 1.266 . S
C132 C131 1.514 . S
C132 C133 1.359 . S
C132 C137 1.348 . S
C133 C132 1.359 . S
C133 C134 1.380 . S
C133 H156 0.929 . S
C134 C133 1.380 . S
C134 C135 1.347 . S
C134 H157 0.931 . S
C135 C134 1.347 . S
C135 C136 1.369 . S
C136 C135 1.369 . S
C136 C137 1.408 . S
C136 H158 0.930 . S
C137 C132 1.348 . S
C137 C136 1.408 . S
C137 H159 0.930 . S
C138 O148 1.281 . S
C138 O149 1.254 . S
C139 O150 1.236 . S
C139 O151 1.266 . S
O140 Tb120 2.484 . S
O140 C122 1.248 . S
O141 Tb120 2.440 . S
O141 C122 1.266 . S
O142 Tb120 2.658 . S
O142 Tb121 2.325 . S
O142 C129 1.281 . S
O143 Tb120 2.409 . S
O143 C129 1.254 . S
O144 Tb120 2.378 . S
O144 C130 1.236 . S
O145 Tb121 2.341 . S
O145 C130 1.266 . S
O146 Tb121 2.484 . S
O146 C131 1.248 . S
O147 Tb121 2.440 . S
O147 C131 1.266 . S
O148 Tb120 2.325 . S
O148 Tb121 2.658 . S
O148 C138 1.281 . S
O149 Tb121 2.409 . S
O149 C138 1.254 . S
O150 Tb121 2.378 . S
O150 C139 1.236 . S
O151 Tb120 2.341 . S
O151 C139 1.266 . S
H152 C124 0.929 . S
H153 C125 0.931 . S
H154 C127 0.930 . S
H155 C128 0.930 . S
H156 C133 0.929 . S
H157 C134 0.931 . S
H158 C136 0.930 . S
H159 C137 0.930 . S
Tb160 C162 2.809 . S
Tb160 O180 2.484 . S
Tb160 O181 2.440 . S
Tb160 O182 2.658 . S
Tb160 O183 2.409 . S
Tb160 O184 2.378 . S
Tb160 O188 2.325 . S
Tb160 O191 2.341 . S
Tb161 C171 2.809 . S
Tb161 O182 2.325 . S
Tb161 O185 2.341 . S
Tb161 O186 2.484 . S
Tb161 O187 2.440 . S
Tb161 O188 2.658 . S
Tb161 O189 2.409 . S
Tb161 O190 2.378 . S
C162 Tb160 2.809 . S
C162 C163 1.514 . S
C162 O180 1.248 . S
C162 O181 1.266 . S
C163 C162 1.514 . S
C163 C164 1.359 . S
C163 C168 1.348 . S
C164 C163 1.359 . S
C164 C165 1.380 . S
C164 H192 0.929 . S
C165 C164 1.380 . S
C165 C166 1.347 . S
C165 H193 0.931 . S
C166 C165 1.347 . S
C166 C167 1.369 . S
C167 C166 1.369 . S
C167 C168 1.408 . S
C167 H194 0.930 . S
C168 C163 1.348 . S
C168 C167 1.408 . S
C168 H195 0.930 . S
C169 O182 1.281 . S
C169 O183 1.254 . S
C170 O184 1.236 . S
C170 O185 1.266 . S
C171 Tb161 2.809 . S
C171 C172 1.514 . S
C171 O186 1.248 . S
C171 O187 1.266 . S
C172 C171 1.514 . S
C172 C173 1.359 . S
C172 C177 1.348 . S
C173 C172 1.359 . S
C173 C174 1.380 . S
C173 H196 0.929 . S
C174 C173 1.380 . S
C174 C175 1.347 . S
C174 H197 0.931 . S
C175 C174 1.347 . S
C175 C176 1.369 . S
C176 C175 1.369 . S
C176 C177 1.408 . S
C176 H198 0.930 . S
C177 C172 1.348 . S
C177 C176 1.408 . S
C177 H199 0.930 . S
C178 O188 1.281 . S
C178 O189 1.254 . S
C179 O190 1.236 . S
C179 O191 1.266 . S
O180 Tb160 2.484 . S
O180 C162 1.248 . S
O181 Tb160 2.440 . S
O181 C162 1.266 . S
O182 Tb160 2.658 . S
O182 Tb161 2.325 . S
O182 C169 1.281 . S
O183 Tb160 2.409 . S
O183 C169 1.254 . S
O184 Tb160 2.378 . S
O184 C170 1.236 . S
O185 Tb161 2.341 . S
O185 C170 1.266 . S
O186 Tb161 2.484 . S
O186 C171 1.248 . S
O187 Tb161 2.440 . S
O187 C171 1.266 . S
O188 Tb160 2.325 . S
O188 Tb161 2.658 . S
O188 C178 1.281 . S
O189 Tb161 2.409 . S
O189 C178 1.254 . S
O190 Tb161 2.378 . S
O190 C179 1.236 . S
O191 Tb160 2.341 . S
O191 C179 1.266 . S
H192 C164 0.929 . S
H193 C165 0.931 . S
H194 C167 0.930 . S
H195 C168 0.930 . S
H196 C173 0.929 . S
H197 C174 0.931 . S
H198 C176 0.930 . S
H199 C177 0.930 . S
Tb200 C202 2.809 . S
Tb200 O220 2.484 . S
Tb200 O221 2.440 . S
Tb200 O222 2.658 . S
Tb200 O223 2.409 . S
Tb200 O224 2.378 . S
Tb200 O228 2.325 . S
Tb200 O231 2.341 . S
Tb201 C211 2.809 . S
Tb201 O222 2.325 . S
Tb201 O225 2.341 . S
Tb201 O226 2.484 . S
Tb201 O227 2.440 . S
Tb201 O228 2.658 . S
Tb201 O229 2.409 . S
Tb201 O230 2.378 . S
C202 Tb200 2.809 . S
C202 C203 1.514 . S
C202 O220 1.248 . S
C202 O221 1.266 . S
C203 C202 1.514 . S
C203 C204 1.359 . S
C203 C208 1.348 . S
C204 C203 1.359 . S
C204 C205 1.380 . S
C204 H232 0.929 . S
C205 C204 1.380 . S
C205 C206 1.347 . S
C205 H233 0.931 . S
C206 C205 1.347 . S
C206 C207 1.369 . S
C207 C206 1.369 . S
C207 C208 1.408 . S
C207 H234 0.930 . S
C208 C203 1.348 . S
C208 C207 1.408 . S
C208 H235 0.930 . S
C209 O222 1.281 . S
C209 O223 1.254 . S
C210 O224 1.236 . S
C210 O225 1.266 . S
C211 Tb201 2.809 . S
C211 C212 1.514 . S
C211 O226 1.248 . S
C211 O227 1.266 . S
C212 C211 1.514 . S
C212 C213 1.359 . S
C212 C217 1.348 . S
C213 C212 1.359 . S
C213 C214 1.380 . S
C213 H236 0.929 . S
C214 C213 1.380 . S
C214 C215 1.347 . S
C214 H237 0.931 . S
C215 C214 1.347 . S
C215 C216 1.369 . S
C216 C215 1.369 . S
C216 C217 1.408 . S
C216 H238 0.930 . S
C217 C212 1.348 . S
C217 C216 1.408 . S
C217 H239 0.930 . S
C218 O228 1.281 . S
C218 O229 1.254 . S
C219 O230 1.236 . S
C219 O231 1.266 . S
O220 Tb200 2.484 . S
O220 C202 1.248 . S
O221 Tb200 2.440 . S
O221 C202 1.266 . S
O222 Tb200 2.658 . S
O222 Tb201 2.325 . S
O222 C209 1.281 . S
O223 Tb200 2.409 . S
O223 C209 1.254 . S
O224 Tb200 2.378 . S
O224 C210 1.236 . S
O225 Tb201 2.341 . S
O225 C210 1.266 . S
O226 Tb201 2.484 . S
O226 C211 1.248 . S
O227 Tb201 2.440 . S
O227 C211 1.266 . S
O228 Tb200 2.325 . S
O228 Tb201 2.658 . S
O228 C218 1.281 . S
O229 Tb201 2.409 . S
O229 C218 1.254 . S
O230 Tb201 2.378 . S
O230 C219 1.236 . S
O231 Tb200 2.341 . S
O231 C219 1.266 . S
H232 C204 0.929 . S
H233 C205 0.931 . S
H234 C207 0.930 . S
H235 C208 0.930 . S
H236 C213 0.929 . S
H237 C214 0.931 . S
H238 C216 0.930 . S
H239 C217 0.930 . S
Tb240 C242 2.809 . S
Tb240 O260 2.484 . S
Tb240 O261 2.440 . S
Tb240 O262 2.658 . S
Tb240 O263 2.409 . S
Tb240 O264 2.378 . S
Tb240 O268 2.325 . S
Tb240 O271 2.341 . S
Tb241 C251 2.809 . S
Tb241 O262 2.325 . S
Tb241 O265 2.341 . S
Tb241 O266 2.484 . S
Tb241 O267 2.440 . S
Tb241 O268 2.658 . S
Tb241 O269 2.409 . S
Tb241 O270 2.378 . S
C242 Tb240 2.809 . S
C242 C243 1.514 . S
C242 O260 1.248 . S
C242 O261 1.266 . S
C243 C242 1.514 . S
C243 C244 1.359 . S
C243 C248 1.348 . S
C244 C243 1.359 . S
C244 C245 1.380 . S
C244 H272 0.929 . S
C245 C244 1.380 . S
C245 C246 1.347 . S
C245 H273 0.931 . S
C246 C245 1.347 . S
C246 C247 1.369 . S
C247 C246 1.369 . S
C247 C248 1.408 . S
C247 H274 0.930 . S
C248 C243 1.348 . S
C248 C247 1.408 . S
C248 H275 0.930 . S
C249 O262 1.281 . S
C249 O263 1.254 . S
C250 O264 1.236 . S
C250 O265 1.266 . S
C251 Tb241 2.809 . S
C251 C252 1.514 . S
C251 O266 1.248 . S
C251 O267 1.266 . S
C252 C251 1.514 . S
C252 C253 1.359 . S
C252 C257 1.348 . S
C253 C252 1.359 . S
C253 C254 1.380 . S
C253 H276 0.929 . S
C254 C253 1.380 . S
C254 C255 1.347 . S
C254 H277 0.931 . S
C255 C254 1.347 . S
C255 C256 1.369 . S
C256 C255 1.369 . S
C256 C257 1.408 . S
C256 H278 0.930 . S
C257 C252 1.348 . S
C257 C256 1.408 . S
C257 H279 0.930 . S
C258 O268 1.281 . S
C258 O269 1.254 . S
C259 O270 1.236 . S
C259 O271 1.266 . S
O260 Tb240 2.484 . S
O260 C242 1.248 . S
O261 Tb240 2.440 . S
O261 C242 1.266 . S
O262 Tb240 2.658 . S
O262 Tb241 2.325 . S
O262 C249 1.281 . S
O263 Tb240 2.409 . S
O263 C249 1.254 . S
O264 Tb240 2.378 . S
O264 C250 1.236 . S
O265 Tb241 2.341 . S
O265 C250 1.266 . S
O266 Tb241 2.484 . S
O266 C251 1.248 . S
O267 Tb241 2.440 . S
O267 C251 1.266 . S
O268 Tb240 2.325 . S
O268 Tb241 2.658 . S
O268 C258 1.281 . S
O269 Tb241 2.409 . S
O269 C258 1.254 . S
O270 Tb241 2.378 . S
O270 C259 1.236 . S
O271 Tb240 2.341 . S
O271 C259 1.266 . S
H272 C244 0.929 . S
H273 C245 0.931 . S
H274 C247 0.930 . S
H275 C248 0.930 . S
H276 C253 0.929 . S
H277 C254 0.931 . S
H278 C256 0.930 . S
H279 C257 0.930 . S
Tb280 C282 2.809 . S
Tb280 O300 2.484 . S
Tb280 O301 2.440 . S
Tb280 O302 2.658 . S
Tb280 O303 2.409 . S
Tb280 O304 2.378 . S
Tb280 O308 2.325 . S
Tb280 O311 2.341 . S
Tb281 C291 2.809 . S
Tb281 O302 2.325 . S
Tb281 O305 2.341 . S
Tb281 O306 2.484 . S
Tb281 O307 2.440 . S
Tb281 O308 2.658 . S
Tb281 O309 2.409 . S
Tb281 O310 2.378 . S
C282 Tb280 2.809 . S
C282 C283 1.514 . S
C282 O300 1.248 . S
C282 O301 1.266 . S
C283 C282 1.514 . S
C283 C284 1.359 . S
C283 C288 1.348 . S
C284 C283 1.359 . S
C284 C285 1.380 . S
C284 H312 0.929 . S
C285 C284 1.380 . S
C285 C286 1.347 . S
C285 H313 0.931 . S
C286 C285 1.347 . S
C286 C287 1.369 . S
C287 C286 1.369 . S
C287 C288 1.408 . S
C287 H314 0.930 . S
C288 C283 1.348 . S
C288 C287 1.408 . S
C288 H315 0.930 . S
C289 O302 1.281 . S
C289 O303 1.254 . S
C290 O304 1.236 . S
C290 O305 1.266 . S
C291 Tb281 2.809 . S
C291 C292 1.514 . S
C291 O306 1.248 . S
C291 O307 1.266 . S
C292 C291 1.514 . S
C292 C293 1.359 . S
C292 C297 1.348 . S
C293 C292 1.359 . S
C293 C294 1.380 . S
C293 H316 0.929 . S
C294 C293 1.380 . S
C294 C295 1.347 . S
C294 H317 0.931 . S
C295 C294 1.347 . S
C295 C296 1.369 . S
C296 C295 1.369 . S
C296 C297 1.408 . S
C296 H318 0.930 . S
C297 C292 1.348 . S
C297 C296 1.408 . S
C297 H319 0.930 . S
C298 O308 1.281 . S
C298 O309 1.254 . S
C299 O310 1.236 . S
C299 O311 1.266 . S
O300 Tb280 2.484 . S
O300 C282 1.248 . S
O301 Tb280 2.440 . S
O301 C282 1.266 . S
O302 Tb280 2.658 . S
O302 Tb281 2.325 . S
O302 C289 1.281 . S
O303 Tb280 2.409 . S
O303 C289 1.254 . S
O304 Tb280 2.378 . S
O304 C290 1.236 . S
O305 Tb281 2.341 . S
O305 C290 1.266 . S
O306 Tb281 2.484 . S
O306 C291 1.248 . S
O307 Tb281 2.440 . S
O307 C291 1.266 . S
O308 Tb280 2.325 . S
O308 Tb281 2.658 . S
O308 C298 1.281 . S
O309 Tb281 2.409 . S
O309 C298 1.254 . S
O310 Tb281 2.378 . S
O310 C299 1.236 . S
O311 Tb280 2.341 . S
O311 C299 1.266 . S
H312 C284 0.929 . S
H313 C285 0.931 . S
H314 C287 0.930 . S
H315 C288 0.930 . S
H316 C293 0.929 . S
H317 C294 0.931 . S
H318 C296 0.930 . S
H319 C297 0.930 . S
Tb320 C322 2.809 . S
Tb320 O340 2.484 . S
Tb320 O341 2.440 . S
Tb320 O342 2.658 . S
Tb320 O343 2.409 . S
Tb320 O344 2.378 . S
Tb320 O348 2.325 . S
Tb320 O351 2.341 . S
Tb321 C331 2.809 . S
Tb321 O342 2.325 . S
Tb321 O345 2.341 . S
Tb321 O346 2.484 . S
Tb321 O347 2.440 . S
Tb321 O348 2.658 . S
Tb321 O349 2.409 . S
Tb321 O350 2.378 . S
C322 Tb320 2.809 . S
C322 C323 1.514 . S
C322 O340 1.248 . S
C322 O341 1.266 . S
C323 C322 1.514 . S
C323 C324 1.359 . S
C323 C328 1.348 . S
C324 C323 1.359 . S
C324 C325 1.380 . S
C324 H352 0.929 . S
C325 C324 1.380 . S
C325 C326 1.347 . S
C325 H353 0.931 . S
C326 C325 1.347 . S
C326 C327 1.369 . S
C327 C326 1.369 . S
C327 C328 1.408 . S
C327 H354 0.930 . S
C328 C323 1.348 . S
C328 C327 1.408 . S
C328 H355 0.930 . S
C329 O342 1.281 . S
C329 O343 1.254 . S
C330 O344 1.236 . S
C330 O345 1.266 . S
C331 Tb321 2.809 . S
C331 C332 1.514 . S
C331 O346 1.248 . S
C331 O347 1.266 . S
C332 C331 1.514 . S
C332 C333 1.359 . S
C332 C337 1.348 . S
C333 C332 1.359 . S
C333 C334 1.380 . S
C333 H356 0.929 . S
C334 C333 1.380 . S
C334 C335 1.347 . S
C334 H357 0.931 . S
C335 C334 1.347 . S
C335 C336 1.369 . S
C336 C335 1.369 . S
C336 C337 1.408 . S
C336 H358 0.930 . S
C337 C332 1.348 . S
C337 C336 1.408 . S
C337 H359 0.930 . S
C338 O348 1.281 . S
C338 O349 1.254 . S
C339 O350 1.236 . S
C339 O351 1.266 . S
O340 Tb320 2.484 . S
O340 C322 1.248 . S
O341 Tb320 2.440 . S
O341 C322 1.266 . S
O342 Tb320 2.658 . S
O342 Tb321 2.325 . S
O342 C329 1.281 . S
O343 Tb320 2.409 . S
O343 C329 1.254 . S
O344 Tb320 2.378 . S
O344 C330 1.236 . S
O345 Tb321 2.341 . S
O345 C330 1.266 . S
O346 Tb321 2.484 . S
O346 C331 1.248 . S
O347 Tb321 2.440 . S
O347 C331 1.266 . S
O348 Tb320 2.325 . S
O348 Tb321 2.658 . S
O348 C338 1.281 . S
O349 Tb321 2.409 . S
O349 C338 1.254 . S
O350 Tb321 2.378 . S
O350 C339 1.236 . S
O351 Tb320 2.341 . S
O351 C339 1.266 . S
H352 C324 0.929 . S
H353 C325 0.931 . S
H354 C327 0.930 . S
H355 C328 0.930 . S
H356 C333 0.929 . S
H357 C334 0.931 . S
H358 C336 0.930 . S
H359 C337 0.930 . S
Tb360 C362 2.809 . S
Tb360 O380 2.484 . S
Tb360 O381 2.440 . S
Tb360 O382 2.658 . S
Tb360 O383 2.409 . S
Tb360 O384 2.378 . S
Tb360 O388 2.325 . S
Tb360 O391 2.341 . S
Tb361 C371 2.809 . S
Tb361 O382 2.325 . S
Tb361 O385 2.341 . S
Tb361 O386 2.484 . S
Tb361 O387 2.440 . S
Tb361 O388 2.658 . S
Tb361 O389 2.409 . S
Tb361 O390 2.378 . S
C362 Tb360 2.809 . S
C362 C363 1.514 . S
C362 O380 1.248 . S
C362 O381 1.266 . S
C363 C362 1.514 . S
C363 C364 1.359 . S
C363 C368 1.348 . S
C364 C363 1.359 . S
C364 C365 1.380 . S
C364 H392 0.929 . S
C365 C364 1.380 . S
C365 C366 1.347 . S
C365 H393 0.931 . S
C366 C365 1.347 . S
C366 C367 1.369 . S
C367 C366 1.369 . S
C367 C368 1.408 . S
C367 H394 0.930 . S
C368 C363 1.348 . S
C368 C367 1.408 . S
C368 H395 0.930 . S
C369 O382 1.281 . S
C369 O383 1.254 . S
C370 O384 1.236 . S
C370 O385 1.266 . S
C371 Tb361 2.809 . S
C371 C372 1.514 . S
C371 O386 1.248 . S
C371 O387 1.266 . S
C372 C371 1.514 . S
C372 C373 1.359 . S
C372 C377 1.348 . S
C373 C372 1.359 . S
C373 C374 1.380 . S
C373 H396 0.929 . S
C374 C373 1.380 . S
C374 C375 1.347 . S
C374 H397 0.931 . S
C375 C374 1.347 . S
C375 C376 1.369 . S
C376 C375 1.369 . S
C376 C377 1.408 . S
C376 H398 0.930 . S
C377 C372 1.348 . S
C377 C376 1.408 . S
C377 H399 0.930 . S
C378 O388 1.281 . S
C378 O389 1.254 . S
C379 O390 1.236 . S
C379 O391 1.266 . S
O380 Tb360 2.484 . S
O380 C362 1.248 . S
O381 Tb360 2.440 . S
O381 C362 1.266 . S
O382 Tb360 2.658 . S
O382 Tb361 2.325 . S
O382 C369 1.281 . S
O383 Tb360 2.409 . S
O383 C369 1.254 . S
O384 Tb360 2.378 . S
O384 C370 1.236 . S
O385 Tb361 2.341 . S
O385 C370 1.266 . S
O386 Tb361 2.484 . S
O386 C371 1.248 . S
O387 Tb361 2.440 . S
O387 C371 1.266 . S
O388 Tb360 2.325 . S
O388 Tb361 2.658 . S
O388 C378 1.281 . S
O389 Tb361 2.409 . S
O389 C378 1.254 . S
O390 Tb361 2.378 . S
O390 C379 1.236 . S
O391 Tb360 2.341 . S
O391 C379 1.266 . S
H392 C364 0.929 . S
H393 C365 0.931 . S
H394 C367 0.930 . S
H395 C368 0.930 . S
H396 C373 0.929 . S
H397 C374 0.931 . S
H398 C376 0.930 . S
H399 C377 0.930 . S
Tb400 C402 2.809 . S
Tb400 O420 2.484 . S
Tb400 O421 2.440 . S
Tb400 O422 2.658 . S
Tb400 O423 2.409 . S
Tb400 O424 2.378 . S
Tb400 O428 2.325 . S
Tb400 O431 2.341 . S
Tb401 C411 2.809 . S
Tb401 O422 2.325 . S
Tb401 O425 2.341 . S
Tb401 O426 2.484 . S
Tb401 O427 2.440 . S
Tb401 O428 2.658 . S
Tb401 O429 2.409 . S
Tb401 O430 2.378 . S
C402 Tb400 2.809 . S
C402 C403 1.514 . S
C402 O420 1.248 . S
C402 O421 1.266 . S
C403 C402 1.514 . S
C403 C404 1.359 . S
C403 C408 1.348 . S
C404 C403 1.359 . S
C404 C405 1.380 . S
C404 H432 0.929 . S
C405 C404 1.380 . S
C405 C406 1.347 . S
C405 H433 0.931 . S
C406 C405 1.347 . S
C406 C407 1.369 . S
C407 C406 1.369 . S
C407 C408 1.408 . S
C407 H434 0.930 . S
C408 C403 1.348 . S
C408 C407 1.408 . S
C408 H435 0.930 . S
C409 O422 1.281 . S
C409 O423 1.254 . S
C410 O424 1.236 . S
C410 O425 1.266 . S
C411 Tb401 2.809 . S
C411 C412 1.514 . S
C411 O426 1.248 . S
C411 O427 1.266 . S
C412 C411 1.514 . S
C412 C413 1.359 . S
C412 C417 1.348 . S
C413 C412 1.359 . S
C413 C414 1.380 . S
C413 H436 0.929 . S
C414 C413 1.380 . S
C414 C415 1.347 . S
C414 H437 0.931 . S
C415 C414 1.347 . S
C415 C416 1.369 . S
C416 C415 1.369 . S
C416 C417 1.408 . S
C416 H438 0.930 . S
C417 C412 1.348 . S
C417 C416 1.408 . S
C417 H439 0.930 . S
C418 O428 1.281 . S
C418 O429 1.254 . S
C419 O430 1.236 . S
C419 O431 1.266 . S
O420 Tb400 2.484 . S
O420 C402 1.248 . S
O421 Tb400 2.440 . S
O421 C402 1.266 . S
O422 Tb400 2.658 . S
O422 Tb401 2.325 . S
O422 C409 1.281 . S
O423 Tb400 2.409 . S
O423 C409 1.254 . S
O424 Tb400 2.378 . S
O424 C410 1.236 . S
O425 Tb401 2.341 . S
O425 C410 1.266 . S
O426 Tb401 2.484 . S
O426 C411 1.248 . S
O427 Tb401 2.440 . S
O427 C411 1.266 . S
O428 Tb400 2.325 . S
O428 Tb401 2.658 . S
O428 C418 1.281 . S
O429 Tb401 2.409 . S
O429 C418 1.254 . S
O430 Tb401 2.378 . S
O430 C419 1.236 . S
O431 Tb400 2.341 . S
O431 C419 1.266 . S
H432 C404 0.929 . S
H433 C405 0.931 . S
H434 C407 0.930 . S
H435 C408 0.930 . S
H436 C413 0.929 . S
H437 C414 0.931 . S
H438 C416 0.930 . S
H439 C417 0.930 . S
Tb440 C442 2.809 . S
Tb440 O460 2.484 . S
Tb440 O461 2.440 . S
Tb440 O462 2.658 . S
Tb440 O463 2.409 . S
Tb440 O464 2.378 . S
Tb440 O468 2.325 . S
Tb440 O471 2.341 . S
Tb441 C451 2.809 . S
Tb441 O462 2.325 . S
Tb441 O465 2.341 . S
Tb441 O466 2.484 . S
Tb441 O467 2.440 . S
Tb441 O468 2.658 . S
Tb441 O469 2.409 . S
Tb441 O470 2.378 . S
C442 Tb440 2.809 . S
C442 C443 1.514 . S
C442 O460 1.248 . S
C442 O461 1.266 . S
C443 C442 1.514 . S
C443 C444 1.359 . S
C443 C448 1.348 . S
C444 C443 1.359 . S
C444 C445 1.380 . S
C444 H472 0.929 . S
C445 C444 1.380 . S
C445 C446 1.347 . S
C445 H473 0.931 . S
C446 C445 1.347 . S
C446 C447 1.369 . S
C447 C446 1.369 . S
C447 C448 1.408 . S
C447 H474 0.930 . S
C448 C443 1.348 . S
C448 C447 1.408 . S
C448 H475 0.930 . S
C449 O462 1.281 . S
C449 O463 1.254 . S
C450 O464 1.236 . S
C450 O465 1.266 . S
C451 Tb441 2.809 . S
C451 C452 1.514 . S
C451 O466 1.248 . S
C451 O467 1.266 . S
C452 C451 1.514 . S
C452 C453 1.359 . S
C452 C457 1.348 . S
C453 C452 1.359 . S
C453 C454 1.380 . S
C453 H476 0.929 . S
C454 C453 1.380 . S
C454 C455 1.347 . S
C454 H477 0.931 . S
C455 C454 1.347 . S
C455 C456 1.369 . S
C456 C455 1.369 . S
C456 C457 1.408 . S
C456 H478 0.930 . S
C457 C452 1.348 . S
C457 C456 1.408 . S
C457 H479 0.930 . S
C458 O468 1.281 . S
C458 O469 1.254 . S
C459 O470 1.236 . S
C459 O471 1.266 . S
O460 Tb440 2.484 . S
O460 C442 1.248 . S
O461 Tb440 2.440 . S
O461 C442 1.266 . S
O462 Tb440 2.658 . S
O462 Tb441 2.325 . S
O462 C449 1.281 . S
O463 Tb440 2.409 . S
O463 C449 1.254 . S
O464 Tb440 2.378 . S
O464 C450 1.236 . S
O465 Tb441 2.341 . S
O465 C450 1.266 . S
O466 Tb441 2.484 . S
O466 C451 1.248 . S
O467 Tb441 2.440 . S
O467 C451 1.266 . S
O468 Tb440 2.325 . S
O468 Tb441 2.658 . S
O468 C458 1.281 . S
O469 Tb441 2.409 . S
O469 C458 1.254 . S
O470 Tb441 2.378 . S
O470 C459 1.236 . S
O471 Tb440 2.341 . S
O471 C459 1.266 . S
H472 C444 0.929 . S
H473 C445 0.931 . S
H474 C447 0.930 . S
H475 C448 0.930 . S
H476 C453 0.929 . S
H477 C454 0.931 . S
H478 C456 0.930 . S
H479 C457 0.930 . S
Tb480 C482 2.809 . S
Tb480 O500 2.484 . S
Tb480 O501 2.440 . S
Tb480 O502 2.658 . S
Tb480 O503 2.409 . S
Tb480 O504 2.378 . S
Tb480 O508 2.325 . S
Tb480 O511 2.341 . S
Tb481 C491 2.809 . S
Tb481 O502 2.325 . S
Tb481 O505 2.341 . S
Tb481 O506 2.484 . S
Tb481 O507 2.440 . S
Tb481 O508 2.658 . S
Tb481 O509 2.409 . S
Tb481 O510 2.378 . S
C482 Tb480 2.809 . S
C482 C483 1.514 . S
C482 O500 1.248 . S
C482 O501 1.266 . S
C483 C482 1.514 . S
C483 C484 1.359 . S
C483 C488 1.348 . S
C484 C483 1.359 . S
C484 C485 1.380 . S
C484 H512 0.929 . S
C485 C484 1.380 . S
C485 C486 1.347 . S
C485 H513 0.931 . S
C486 C485 1.347 . S
C486 C487 1.369 . S
C487 C486 1.369 . S
C487 C488 1.408 . S
C487 H514 0.930 . S
C488 C483 1.348 . S
C488 C487 1.408 . S
C488 H515 0.930 . S
C489 O502 1.281 . S
C489 O503 1.254 . S
C490 O504 1.236 . S
C490 O505 1.266 . S
C491 Tb481 2.809 . S
C491 C492 1.514 . S
C491 O506 1.248 . S
C491 O507 1.266 . S
C492 C491 1.514 . S
C492 C493 1.359 . S
C492 C497 1.348 . S
C493 C492 1.359 . S
C493 C494 1.380 . S
C493 H516 0.929 . S
C494 C493 1.380 . S
C494 C495 1.347 . S
C494 H517 0.931 . S
C495 C494 1.347 . S
C495 C496 1.369 . S
C496 C495 1.369 . S
C496 C497 1.408 . S
C496 H518 0.930 . S
C497 C492 1.348 . S
C497 C496 1.408 . S
C497 H519 0.930 . S
C498 O508 1.281 . S
C498 O509 1.254 . S
C499 O510 1.236 . S
C499 O511 1.266 . S
O500 Tb480 2.484 . S
O500 C482 1.248 . S
O501 Tb480 2.440 . S
O501 C482 1.266 . S
O502 Tb480 2.658 . S
O502 Tb481 2.325 . S
O502 C489 1.281 . S
O503 Tb480 2.409 . S
O503 C489 1.254 . S
O504 Tb480 2.378 . S
O504 C490 1.236 . S
O505 Tb481 2.341 . S
O505 C490 1.266 . S
O506 Tb481 2.484 . S
O506 C491 1.248 . S
O507 Tb481 2.440 . S
O507 C491 1.266 . S
O508 Tb480 2.325 . S
O508 Tb481 2.658 . S
O508 C498 1.281 . S
O509 Tb481 2.409 . S
O509 C498 1.254 . S
O510 Tb481 2.378 . S
O510 C499 1.236 . S
O511 Tb480 2.341 . S
O511 C499 1.266 . S
H512 C484 0.929 . S
H513 C485 0.931 . S
H514 C487 0.930 . S
H515 C488 0.930 . S
H516 C493 0.929 . S
H517 C494 0.931 . S
H518 C496 0.930 . S
H519 C497 0.930 . S
Tb520 C522 2.809 . S
Tb520 O540 2.484 . S
Tb520 O541 2.440 . S
Tb520 O542 2.658 . S
Tb520 O543 2.409 . S
Tb520 O544 2.378 . S
Tb520 O548 2.325 . S
Tb520 O551 2.341 . S
Tb521 C531 2.809 . S
Tb521 O542 2.325 . S
Tb521 O545 2.341 . S
Tb521 O546 2.484 . S
Tb521 O547 2.440 . S
Tb521 O548 2.658 . S
Tb521 O549 2.409 . S
Tb521 O550 2.378 . S
C522 Tb520 2.809 . S
C522 C523 1.514 . S
C522 O540 1.248 . S
C522 O541 1.266 . S
C523 C522 1.514 . S
C523 C524 1.359 . S
C523 C528 1.348 . S
C524 C523 1.359 . S
C524 C525 1.380 . S
C524 H552 0.929 . S
C525 C524 1.380 . S
C525 C526 1.347 . S
C525 H553 0.931 . S
C526 C525 1.347 . S
C526 C527 1.369 . S
C527 C526 1.369 . S
C527 C528 1.408 . S
C527 H554 0.930 . S
C528 C523 1.348 . S
C528 C527 1.408 . S
C528 H555 0.930 . S
C529 O542 1.281 . S
C529 O543 1.254 . S
C530 O544 1.236 . S
C530 O545 1.266 . S
C531 Tb521 2.809 . S
C531 C532 1.514 . S
C531 O546 1.248 . S
C531 O547 1.266 . S
C532 C531 1.514 . S
C532 C533 1.359 . S
C532 C537 1.348 . S
C533 C532 1.359 . S
C533 C534 1.380 . S
C533 H556 0.929 . S
C534 C533 1.380 . S
C534 C535 1.347 . S
C534 H557 0.931 . S
C535 C534 1.347 . S
C535 C536 1.369 . S
C536 C535 1.369 . S
C536 C537 1.408 . S
C536 H558 0.930 . S
C537 C532 1.348 . S
C537 C536 1.408 . S
C537 H559 0.930 . S
C538 O548 1.281 . S
C538 O549 1.254 . S
C539 O550 1.236 . S
C539 O551 1.266 . S
O540 Tb520 2.484 . S
O540 C522 1.248 . S
O541 Tb520 2.440 . S
O541 C522 1.266 . S
O542 Tb520 2.658 . S
O542 Tb521 2.325 . S
O542 C529 1.281 . S
O543 Tb520 2.409 . S
O543 C529 1.254 . S
O544 Tb520 2.378 . S
O544 C530 1.236 . S
O545 Tb521 2.341 . S
O545 C530 1.266 . S
O546 Tb521 2.484 . S
O546 C531 1.248 . S
O547 Tb521 2.440 . S
O547 C531 1.266 . S
O548 Tb520 2.325 . S
O548 Tb521 2.658 . S
O548 C538 1.281 . S
O549 Tb521 2.409 . S
O549 C538 1.254 . S
O550 Tb521 2.378 . S
O550 C539 1.236 . S
O551 Tb520 2.341 . S
O551 C539 1.266 . S
H552 C524 0.929 . S
H553 C525 0.931 . S
H554 C527 0.930 . S
H555 C528 0.930 . S
H556 C533 0.929 . S
H557 C534 0.931 . S
H558 C536 0.930 . S
H559 C537 0.930 . S
Tb560 C562 2.809 . S
Tb560 O580 2.484 . S
Tb560 O581 2.440 . S
Tb560 O582 2.658 . S
Tb560 O583 2.409 . S
Tb560 O584 2.378 . S
Tb560 O588 2.325 . S
Tb560 O591 2.341 . S
Tb561 C571 2.809 . S
Tb561 O582 2.325 . S
Tb561 O585 2.341 . S
Tb561 O586 2.484 . S
Tb561 O587 2.440 . S
Tb561 O588 2.658 . S
Tb561 O589 2.409 . S
Tb561 O590 2.378 . S
C562 Tb560 2.809 . S
C562 C563 1.514 . S
C562 O580 1.248 . S
C562 O581 1.266 . S
C563 C562 1.514 . S
C563 C564 1.359 . S
C563 C568 1.348 . S
C564 C563 1.359 . S
C564 C565 1.380 . S
C564 H592 0.929 . S
C565 C564 1.380 . S
C565 C566 1.347 . S
C565 H593 0.931 . S
C566 C565 1.347 . S
C566 C567 1.369 . S
C567 C566 1.369 . S
C567 C568 1.408 . S
C567 H594 0.930 . S
C568 C563 1.348 . S
C568 C567 1.408 . S
C568 H595 0.930 . S
C569 O582 1.281 . S
C569 O583 1.254 . S
C570 O584 1.236 . S
C570 O585 1.266 . S
C571 Tb561 2.809 . S
C571 C572 1.514 . S
C571 O586 1.248 . S
C571 O587 1.266 . S
C572 C571 1.514 . S
C572 C573 1.359 . S
C572 C577 1.348 . S
C573 C572 1.359 . S
C573 C574 1.380 . S
C573 H596 0.929 . S
C574 C573 1.380 . S
C574 C575 1.347 . S
C574 H597 0.931 . S
C575 C574 1.347 . S
C575 C576 1.369 . S
C576 C575 1.369 . S
C576 C577 1.408 . S
C576 H598 0.930 . S
C577 C572 1.348 . S
C577 C576 1.408 . S
C577 H599 0.930 . S
C578 O588 1.281 . S
C578 O589 1.254 . S
C579 O590 1.236 . S
C579 O591 1.266 . S
O580 Tb560 2.484 . S
O580 C562 1.248 . S
O581 Tb560 2.440 . S
O581 C562 1.266 . S
O582 Tb560 2.658 . S
O582 Tb561 2.325 . S
O582 C569 1.281 . S
O583 Tb560 2.409 . S
O583 C569 1.254 . S
O584 Tb560 2.378 . S
O584 C570 1.236 . S
O585 Tb561 2.341 . S
O585 C570 1.266 . S
O586 Tb561 2.484 . S
O586 C571 1.248 . S
O587 Tb561 2.440 . S
O587 C571 1.266 . S
O588 Tb560 2.325 . S
O588 Tb561 2.658 . S
O588 C578 1.281 . S
O589 Tb561 2.409 . S
O589 C578 1.254 . S
O590 Tb561 2.378 . S
O590 C579 1.236 . S
O591 Tb560 2.341 . S
O591 C579 1.266 . S
H592 C564 0.929 . S
H593 C565 0.931 . S
H594 C567 0.930 . S
H595 C568 0.930 . S
H596 C573 0.929 . S
H597 C574 0.931 . S
H598 C576 0.930 . S
H599 C577 0.930 . S
Tb600 C602 2.809 . S
Tb600 O620 2.484 . S
Tb600 O621 2.440 . S
Tb600 O622 2.658 . S
Tb600 O623 2.409 . S
Tb600 O624 2.378 . S
Tb600 O628 2.325 . S
Tb600 O631 2.341 . S
Tb601 C611 2.809 . S
Tb601 O622 2.325 . S
Tb601 O625 2.341 . S
Tb601 O626 2.484 . S
Tb601 O627 2.440 . S
Tb601 O628 2.658 . S
Tb601 O629 2.409 . S
Tb601 O630 2.378 . S
C602 Tb600 2.809 . S
C602 C603 1.514 . S
C602 O620 1.248 . S
C602 O621 1.266 . S
C603 C602 1.514 . S
C603 C604 1.359 1_655 S
C603 C608 1.348 . S
C604 C603 1.359 1_455 S
C604 C605 1.380 . S
C604 H632 0.929 . S
C605 C604 1.380 . S
C605 C606 1.347 . S
C605 H633 0.931 . S
C606 C605 1.347 . S
C606 C607 1.369 1_455 S
C607 C606 1.369 1_655 S
C607 C608 1.408 . S
C607 H634 0.930 . S
C608 C603 1.348 . S
C608 C607 1.408 . S
C608 H635 0.930 . S
C609 O622 1.281 . S
C609 O623 1.254 . S
C610 O624 1.236 . S
C610 O625 1.266 . S
C611 Tb601 2.809 . S
C611 C612 1.514 . S
C611 O626 1.248 . S
C611 O627 1.266 . S
C612 C611 1.514 . S
C612 C613 1.359 . S
C612 C617 1.348 . S
C613 C612 1.359 . S
C613 C614 1.380 . S
C613 H636 0.929 . S
C614 C613 1.380 . S
C614 C615 1.347 . S
C614 H637 0.931 . S
C615 C614 1.347 . S
C615 C616 1.369 . S
C616 C615 1.369 . S
C616 C617 1.408 . S
C616 H638 0.930 . S
C617 C612 1.348 . S
C617 C616 1.408 . S
C617 H639 0.930 . S
C618 O628 1.281 . S
C618 O629 1.254 . S
C619 O630 1.236 . S
C619 O631 1.266 . S
O620 Tb600 2.484 . S
O620 C602 1.248 . S
O621 Tb600 2.440 . S
O621 C602 1.266 . S
O622 Tb600 2.658 . S
O622 Tb601 2.325 . S
O622 C609 1.281 . S
O623 Tb600 2.409 . S
O623 C609 1.254 . S
O624 Tb600 2.378 . S
O624 C610 1.236 . S
O625 Tb601 2.341 . S
O625 C610 1.266 . S
O626 Tb601 2.484 . S
O626 C611 1.248 . S
O627 Tb601 2.440 . S
O627 C611 1.266 . S
O628 Tb600 2.325 . S
O628 Tb601 2.658 . S
O628 C618 1.281 . S
O629 Tb601 2.409 . S
O629 C618 1.254 . S
O630 Tb601 2.378 . S
O630 C619 1.236 . S
O631 Tb600 2.341 . S
O631 C619 1.266 . S
H632 C604 0.929 . S
H633 C605 0.931 . S
H634 C607 0.930 . S
H635 C608 0.930 . S
H636 C613 0.929 . S
H637 C614 0.931 . S
H638 C616 0.930 . S
H639 C617 0.930 . S
Tb640 C642 2.809 . S
Tb640 O660 2.484 . S
Tb640 O661 2.440 . S
Tb640 O662 2.658 . S
Tb640 O663 2.409 . S
Tb640 O664 2.378 . S
Tb640 O668 2.325 . S
Tb640 O671 2.341 . S
Tb641 C651 2.809 . S
Tb641 O662 2.325 . S
Tb641 O665 2.341 . S
Tb641 O666 2.484 . S
Tb641 O667 2.440 . S
Tb641 O668 2.658 . S
Tb641 O669 2.409 . S
Tb641 O670 2.378 . S
C642 Tb640 2.809 . S
C642 C643 1.514 . S
C642 O660 1.248 . S
C642 O661 1.266 . S
C643 C642 1.514 . S
C643 C644 1.359 . S
C643 C648 1.348 . S
C644 C643 1.359 . S
C644 C645 1.380 . S
C644 H672 0.929 . S
C645 C644 1.380 . S
C645 C646 1.347 . S
C645 H673 0.931 . S
C646 C645 1.347 . S
C646 C647 1.369 . S
C647 C646 1.369 . S
C647 C648 1.408 . S
C647 H674 0.930 . S
C648 C643 1.348 . S
C648 C647 1.408 . S
C648 H675 0.930 . S
C649 O662 1.281 . S
C649 O663 1.254 . S
C650 O664 1.236 . S
C650 O665 1.266 . S
C651 Tb641 2.809 . S
C651 C652 1.514 . S
C651 O666 1.248 . S
C651 O667 1.266 . S
C652 C651 1.514 . S
C652 C653 1.359 . S
C652 C657 1.348 . S
C653 C652 1.359 . S
C653 C654 1.380 . S
C653 H676 0.929 . S
C654 C653 1.380 . S
C654 C655 1.347 . S
C654 H677 0.931 . S
C655 C654 1.347 . S
C655 C656 1.369 . S
C656 C655 1.369 . S
C656 C657 1.408 . S
C656 H678 0.930 . S
C657 C652 1.348 . S
C657 C656 1.408 . S
C657 H679 0.930 . S
C658 O668 1.281 . S
C658 O669 1.254 . S
C659 O670 1.236 . S
C659 O671 1.266 . S
O660 Tb640 2.484 . S
O660 C642 1.248 . S
O661 Tb640 2.440 . S
O661 C642 1.266 . S
O662 Tb640 2.658 . S
O662 Tb641 2.325 . S
O662 C649 1.281 . S
O663 Tb640 2.409 . S
O663 C649 1.254 . S
O664 Tb640 2.378 . S
O664 C650 1.236 . S
O665 Tb641 2.341 . S
O665 C650 1.266 . S
O666 Tb641 2.484 . S
O666 C651 1.248 . S
O667 Tb641 2.440 . S
O667 C651 1.266 . S
O668 Tb640 2.325 . S
O668 Tb641 2.658 . S
O668 C658 1.281 . S
O669 Tb641 2.409 . S
O669 C658 1.254 . S
O670 Tb641 2.378 . S
O670 C659 1.236 . S
O671 Tb640 2.341 . S
O671 C659 1.266 . S
H672 C644 0.929 . S
H673 C645 0.931 . S
H674 C647 0.930 . S
H675 C648 0.930 . S
H676 C653 0.929 . S
H677 C654 0.931 . S
H678 C656 0.930 . S
H679 C657 0.930 . S
Tb680 C682 2.809 . S
Tb680 O700 2.484 . S
Tb680 O701 2.440 . S
Tb680 O702 2.658 . S
Tb680 O703 2.409 . S
Tb680 O704 2.378 . S
Tb680 O708 2.325 . S
Tb680 O711 2.341 . S
Tb681 C691 2.809 . S
Tb681 O702 2.325 . S
Tb681 O705 2.341 . S
Tb681 O706 2.484 . S
Tb681 O707 2.440 . S
Tb681 O708 2.658 . S
Tb681 O709 2.409 . S
Tb681 O710 2.378 . S
C682 Tb680 2.809 . S
C682 C683 1.514 . S
C682 O700 1.248 . S
C682 O701 1.266 . S
C683 C682 1.514 . S
C683 C684 1.359 1_545 S
C683 C688 1.348 . S
C684 C683 1.359 1_565 S
C684 C685 1.380 . S
C684 H712 0.929 . S
C685 C684 1.380 . S
C685 C686 1.347 . S
C685 H713 0.931 . S
C686 C685 1.347 . S
C686 C687 1.369 1_565 S
C687 C686 1.369 1_545 S
C687 C688 1.408 . S
C687 H714 0.930 . S
C688 C683 1.348 . S
C688 C687 1.408 . S
C688 H715 0.930 . S
C689 O702 1.281 . S
C689 O703 1.254 . S
C690 O704 1.236 . S
C690 O705 1.266 . S
C691 Tb681 2.809 . S
C691 C692 1.514 . S
C691 O706 1.248 . S
C691 O707 1.266 . S
C692 C691 1.514 . S
C692 C693 1.359 . S
C692 C697 1.348 . S
C693 C692 1.359 . S
C693 C694 1.380 . S
C693 H716 0.929 . S
C694 C693 1.380 . S
C694 C695 1.347 . S
C694 H717 0.931 . S
C695 C694 1.347 . S
C695 C696 1.369 . S
C696 C695 1.369 . S
C696 C697 1.408 . S
C696 H718 0.930 . S
C697 C692 1.348 . S
C697 C696 1.408 . S
C697 H719 0.930 . S
C698 O708 1.281 . S
C698 O709 1.254 . S
C699 O710 1.236 . S
C699 O711 1.266 . S
O700 Tb680 2.484 . S
O700 C682 1.248 . S
O701 Tb680 2.440 . S
O701 C682 1.266 . S
O702 Tb680 2.658 . S
O702 Tb681 2.325 . S
O702 C689 1.281 . S
O703 Tb680 2.409 . S
O703 C689 1.254 . S
O704 Tb680 2.378 . S
O704 C690 1.236 . S
O705 Tb681 2.341 . S
O705 C690 1.266 . S
O706 Tb681 2.484 . S
O706 C691 1.248 . S
O707 Tb681 2.440 . S
O707 C691 1.266 . S
O708 Tb680 2.325 . S
O708 Tb681 2.658 . S
O708 C698 1.281 . S
O709 Tb681 2.409 . S
O709 C698 1.254 . S
O710 Tb681 2.378 . S
O710 C699 1.236 . S
O711 Tb680 2.341 . S
O711 C699 1.266 . S
H712 C684 0.929 . S
H713 C685 0.931 . S
H714 C687 0.930 . S
H715 C688 0.930 . S
H716 C693 0.929 . S
H717 C694 0.931 . S
H718 C696 0.930 . S
H719 C697 0.930 . S
Tb720 C722 2.809 . S
Tb720 O740 2.484 . S
Tb720 O741 2.440 . S
Tb720 O742 2.658 . S
Tb720 O743 2.409 . S
Tb720 O744 2.378 . S
Tb720 O748 2.325 . S
Tb720 O751 2.341 . S
Tb721 C731 2.809 . S
Tb721 O742 2.325 . S
Tb721 O745 2.341 . S
Tb721 O746 2.484 . S
Tb721 O747 2.440 . S
Tb721 O748 2.658 . S
Tb721 O749 2.409 . S
Tb721 O750 2.378 . S
C722 Tb720 2.809 . S
C722 C723 1.514 . S
C722 O740 1.248 . S
C722 O741 1.266 . S
C723 C722 1.514 . S
C723 C724 1.359 . S
C723 C728 1.348 . S
C724 C723 1.359 . S
C724 C725 1.380 . S
C724 H752 0.929 . S
C725 C724 1.380 . S
C725 C726 1.347 . S
C725 H753 0.931 . S
C726 C725 1.347 . S
C726 C727 1.369 . S
C727 C726 1.369 . S
C727 C728 1.408 . S
C727 H754 0.930 . S
C728 C723 1.348 . S
C728 C727 1.408 . S
C728 H755 0.930 . S
C729 O742 1.281 . S
C729 O743 1.254 . S
C730 O744 1.236 . S
C730 O745 1.266 . S
C731 Tb721 2.809 . S
C731 C732 1.514 . S
C731 O746 1.248 . S
C731 O747 1.266 . S
C732 C731 1.514 . S
C732 C733 1.359 1_545 S
C732 C737 1.348 . S
C733 C732 1.359 1_565 S
C733 C734 1.380 . S
C733 H756 0.929 . S
C734 C733 1.380 . S
C734 C735 1.347 . S
C734 H757 0.931 . S
C735 C734 1.347 . S
C735 C736 1.369 1_565 S
C736 C735 1.369 1_545 S
C736 C737 1.408 . S
C736 H758 0.930 . S
C737 C732 1.348 . S
C737 C736 1.408 . S
C737 H759 0.930 . S
C738 O748 1.281 . S
C738 O749 1.254 . S
C739 O750 1.236 . S
C739 O751 1.266 . S
O740 Tb720 2.484 . S
O740 C722 1.248 . S
O741 Tb720 2.440 . S
O741 C722 1.266 . S
O742 Tb720 2.658 . S
O742 Tb721 2.325 . S
O742 C729 1.281 . S
O743 Tb720 2.409 . S
O743 C729 1.254 . S
O744 Tb720 2.378 . S
O744 C730 1.236 . S
O745 Tb721 2.341 . S
O745 C730 1.266 . S
O746 Tb721 2.484 . S
O746 C731 1.248 . S
O747 Tb721 2.440 . S
O747 C731 1.266 . S
O748 Tb720 2.325 . S
O748 Tb721 2.658 . S
O748 C738 1.281 . S
O749 Tb721 2.409 . S
O749 C738 1.254 . S
O750 Tb721 2.378 . S
O750 C739 1.236 . S
O751 Tb720 2.341 . S
O751 C739 1.266 . S
H752 C724 0.929 . S
H753 C725 0.931 . S
H754 C727 0.930 . S
H755 C728 0.930 . S
H756 C733 0.929 . S
H757 C734 0.931 . S
H758 C736 0.930 . S
H759 C737 0.930 . S
Tb760 C762 2.809 . S
Tb760 O780 2.484 . S
Tb760 O781 2.440 . S
Tb760 O782 2.658 . S
Tb760 O783 2.409 . S
Tb760 O784 2.378 . S
Tb760 O788 2.325 . S
Tb760 O791 2.341 . S
Tb761 C771 2.809 . S
Tb761 O782 2.325 . S
Tb761 O785 2.341 . S
Tb761 O786 2.484 . S
Tb761 O787 2.440 . S
Tb761 O788 2.658 . S
Tb761 O789 2.409 . S
Tb761 O790 2.378 . S
C762 Tb760 2.809 . S
C762 C763 1.514 . S
C762 O780 1.248 . S
C762 O781 1.266 . S
C763 C762 1.514 . S
C763 C764 1.359 . S
C763 C768 1.348 . S
C764 C763 1.359 . S
C764 C765 1.380 . S
C764 H792 0.929 . S
C765 C764 1.380 . S
C765 C766 1.347 . S
C765 H793 0.931 . S
C766 C765 1.347 . S
C766 C767 1.369 . S
C767 C766 1.369 . S
C767 C768 1.408 . S
C767 H794 0.930 . S
C768 C763 1.348 . S
C768 C767 1.408 . S
C768 H795 0.930 . S
C769 O782 1.281 . S
C769 O783 1.254 . S
C770 O784 1.236 . S
C770 O785 1.266 . S
C771 Tb761 2.809 . S
C771 C772 1.514 . S
C771 O786 1.248 . S
C771 O787 1.266 . S
C772 C771 1.514 . S
C772 C773 1.359 1_655 S
C772 C777 1.348 . S
C773 C772 1.359 1_455 S
C773 C774 1.380 . S
C773 H796 0.929 . S
C774 C773 1.380 . S
C774 C775 1.347 . S
C774 H797 0.931 . S
C775 C774 1.347 . S
C775 C776 1.369 1_455 S
C776 C775 1.369 1_655 S
C776 C777 1.408 . S
C776 H798 0.930 . S
C777 C772 1.348 . S
C777 C776 1.408 . S
C777 H799 0.930 . S
C778 O788 1.281 . S
C778 O789 1.254 . S
C779 O790 1.236 . S
C779 O791 1.266 . S
O780 Tb760 2.484 . S
O780 C762 1.248 . S
O781 Tb760 2.440 . S
O781 C762 1.266 . S
O782 Tb760 2.658 . S
O782 Tb761 2.325 . S
O782 C769 1.281 . S
O783 Tb760 2.409 . S
O783 C769 1.254 . S
O784 Tb760 2.378 . S
O784 C770 1.236 . S
O785 Tb761 2.341 . S
O785 C770 1.266 . S
O786 Tb761 2.484 . S
O786 C771 1.248 . S
O787 Tb761 2.440 . S
O787 C771 1.266 . S
O788 Tb760 2.325 . S
O788 Tb761 2.658 . S
O788 C778 1.281 . S
O789 Tb761 2.409 . S
O789 C778 1.254 . S
O790 Tb761 2.378 . S
O790 C779 1.236 . S
O791 Tb760 2.341 . S
O791 C779 1.266 . S
H792 C764 0.929 . S
H793 C765 0.931 . S
H794 C767 0.930 . S
H795 C768 0.930 . S
H796 C773 0.929 . S
H797 C774 0.931 . S
H798 C776 0.930 . S
H799 C777 0.930 . S
Tb800 C802 2.809 . S
Tb800 O820 2.484 . S
Tb800 O821 2.440 . S
Tb800 O822 2.658 . S
Tb800 O823 2.409 . S
Tb800 O824 2.378 . S
Tb800 O828 2.325 . S
Tb800 O831 2.341 . S
Tb801 C811 2.809 . S
Tb801 O822 2.325 . S
Tb801 O825 2.341 . S
Tb801 O826 2.484 . S
Tb801 O827 2.440 . S
Tb801 O828 2.658 . S
Tb801 O829 2.409 . S
Tb801 O830 2.378 . S
C802 Tb800 2.809 . S
C802 C803 1.514 . S
C802 O820 1.248 . S
C802 O821 1.266 . S
C803 C802 1.514 . S
C803 C804 1.359 . S
C803 C808 1.348 . S
C804 C803 1.359 . S
C804 C805 1.380 . S
C804 H832 0.929 . S
C805 C804 1.380 . S
C805 C806 1.347 . S
C805 H833 0.931 . S
C806 C805 1.347 . S
C806 C807 1.369 . S
C807 C806 1.369 . S
C807 C808 1.408 . S
C807 H834 0.930 . S
C808 C803 1.348 . S
C808 C807 1.408 . S
C808 H835 0.930 . S
C809 O822 1.281 . S
C809 O823 1.254 . S
C810 O824 1.236 . S
C810 O825 1.266 . S
C811 Tb801 2.809 . S
C811 C812 1.514 . S
C811 O826 1.248 . S
C811 O827 1.266 . S
C812 C811 1.514 . S
C812 C813 1.359 . S
C812 C817 1.348 . S
C813 C812 1.359 . S
C813 C814 1.380 . S
C813 H836 0.929 . S
C814 C813 1.380 . S
C814 C815 1.347 . S
C814 H837 0.931 . S
C815 C814 1.347 . S
C815 C816 1.369 . S
C816 C815 1.369 . S
C816 C817 1.408 . S
C816 H838 0.930 . S
C817 C812 1.348 . S
C817 C816 1.408 . S
C817 H839 0.930 . S
C818 O828 1.281 . S
C818 O829 1.254 . S
C819 O830 1.236 . S
C819 O831 1.266 . S
O820 Tb800 2.484 . S
O820 C802 1.248 . S
O821 Tb800 2.440 . S
O821 C802 1.266 . S
O822 Tb800 2.658 . S
O822 Tb801 2.325 . S
O822 C809 1.281 . S
O823 Tb800 2.409 . S
O823 C809 1.254 . S
O824 Tb800 2.378 . S
O824 C810 1.236 . S
O825 Tb801 2.341 . S
O825 C810 1.266 . S
O826 Tb801 2.484 . S
O826 C811 1.248 . S
O827 Tb801 2.440 . S
O827 C811 1.266 . S
O828 Tb800 2.325 . S
O828 Tb801 2.658 . S
O828 C818 1.281 . S
O829 Tb801 2.409 . S
O829 C818 1.254 . S
O830 Tb801 2.378 . S
O830 C819 1.236 . S
O831 Tb800 2.341 . S
O831 C819 1.266 . S
H832 C804 0.929 . S
H833 C805 0.931 . S
H834 C807 0.930 . S
H835 C808 0.930 . S
H836 C813 0.929 . S
H837 C814 0.931 . S
H838 C816 0.930 . S
H839 C817 0.930 . S
Tb840 C842 2.809 . S
Tb840 O860 2.484 . S
Tb840 O861 2.440 . S
Tb840 O862 2.658 1_554 S
Tb840 O863 2.409 . S
Tb840 O864 2.378 . S
Tb840 O868 2.325 . S
Tb840 O871 2.341 . S
Tb841 C851 2.809 . S
Tb841 O862 2.325 . S
Tb841 O865 2.341 . S
Tb841 O866 2.484 . S
Tb841 O867 2.440 . S
Tb841 O868 2.658 1_556 S
Tb841 O869 2.409 . S
Tb841 O870 2.378 . S
C842 Tb840 2.809 . S
C842 C843 1.514 . S
C842 O860 1.248 . S
C842 O861 1.266 . S
C843 C842 1.514 . S
C843 C844 1.359 . S
C843 C848 1.348 . S
C844 C843 1.359 . S
C844 C845 1.380 . S
C844 H872 0.929 . S
C845 C844 1.380 . S
C845 C846 1.347 . S
C845 H873 0.931 . S
C846 C845 1.347 . S
C846 C847 1.369 . S
C847 C846 1.369 . S
C847 C848 1.408 . S
C847 H874 0.930 . S
C848 C843 1.348 . S
C848 C847 1.408 . S
C848 H875 0.930 . S
C849 O862 1.281 1_554 S
C849 O863 1.254 . S
C850 O864 1.236 . S
C850 O865 1.266 1_554 S
C851 Tb841 2.809 . S
C851 C852 1.514 . S
C851 O866 1.248 . S
C851 O867 1.266 . S
C852 C851 1.514 . S
C852 C853 1.359 . S
C852 C857 1.348 . S
C853 C852 1.359 . S
C853 C854 1.380 . S
C853 H876 0.929 . S
C854 C853 1.380 . S
C854 C855 1.347 . S
C854 H877 0.931 . S
C855 C854 1.347 . S
C855 C856 1.369 . S
C856 C855 1.369 . S
C856 C857 1.408 . S
C856 H878 0.930 . S
C857 C852 1.348 . S
C857 C856 1.408 . S
C857 H879 0.930 . S
C858 O868 1.281 1_556 S
C858 O869 1.254 . S
C859 O870 1.236 . S
C859 O871 1.266 1_556 S
O860 Tb840 2.484 . S
O860 C842 1.248 . S
O861 Tb840 2.440 . S
O861 C842 1.266 . S
O862 Tb840 2.658 1_556 S
O862 Tb841 2.325 . S
O862 C849 1.281 1_556 S
O863 Tb840 2.409 . S
O863 C849 1.254 . S
O864 Tb840 2.378 . S
O864 C850 1.236 . S
O865 Tb841 2.341 . S
O865 C850 1.266 1_556 S
O866 Tb841 2.484 . S
O866 C851 1.248 . S
O867 Tb841 2.440 . S
O867 C851 1.266 . S
O868 Tb840 2.325 . S
O868 Tb841 2.658 1_554 S
O868 C858 1.281 1_554 S
O869 Tb841 2.409 . S
O869 C858 1.254 . S
O870 Tb841 2.378 . S
O870 C859 1.236 . S
O871 Tb840 2.341 . S
O871 C859 1.266 1_554 S
H872 C844 0.929 . S
H873 C845 0.931 . S
H874 C847 0.930 . S
H875 C848 0.930 . S
H876 C853 0.929 . S
H877 C854 0.931 . S
H878 C856 0.930 . S
H879 C857 0.930 . S
Tb880 C882 2.809 . S
Tb880 O900 2.484 . S
Tb880 O901 2.440 . S
Tb880 O902 2.658 1_554 S
Tb880 O903 2.409 . S
Tb880 O904 2.378 . S
Tb880 O908 2.325 . S
Tb880 O911 2.341 . S
Tb881 C891 2.809 . S
Tb881 O902 2.325 . S
Tb881 O905 2.341 . S
Tb881 O906 2.484 . S
Tb881 O907 2.440 . S
Tb881 O908 2.658 1_556 S
Tb881 O909 2.409 . S
Tb881 O910 2.378 . S
C882 Tb880 2.809 . S
C882 C883 1.514 . S
C882 O900 1.248 . S
C882 O901 1.266 . S
C883 C882 1.514 . S
C883 C884 1.359 . S
C883 C888 1.348 . S
C884 C883 1.359 . S
C884 C885 1.380 . S
C884 H912 0.929 . S
C885 C884 1.380 . S
C885 C886 1.347 . S
C885 H913 0.931 . S
C886 C885 1.347 . S
C886 C887 1.369 . S
C887 C886 1.369 . S
C887 C888 1.408 . S
C887 H914 0.930 . S
C888 C883 1.348 . S
C888 C887 1.408 . S
C888 H915 0.930 . S
C889 O902 1.281 1_554 S
C889 O903 1.254 . S
C890 O904 1.236 . S
C890 O905 1.266 1_554 S
C891 Tb881 2.809 . S
C891 C892 1.514 . S
C891 O906 1.248 . S
C891 O907 1.266 . S
C892 C891 1.514 . S
C892 C893 1.359 . S
C892 C897 1.348 . S
C893 C892 1.359 . S
C893 C894 1.380 . S
C893 H916 0.929 . S
C894 C893 1.380 . S
C894 C895 1.347 . S
C894 H917 0.931 . S
C895 C894 1.347 . S
C895 C896 1.369 . S
C896 C895 1.369 . S
C896 C897 1.408 . S
C896 H918 0.930 . S
C897 C892 1.348 . S
C897 C896 1.408 . S
C897 H919 0.930 . S
C898 O908 1.281 1_556 S
C898 O909 1.254 . S
C899 O910 1.236 . S
C899 O911 1.266 1_556 S
O900 Tb880 2.484 . S
O900 C882 1.248 . S
O901 Tb880 2.440 . S
O901 C882 1.266 . S
O902 Tb880 2.658 1_556 S
O902 Tb881 2.325 . S
O902 C889 1.281 1_556 S
O903 Tb880 2.409 . S
O903 C889 1.254 . S
O904 Tb880 2.378 . S
O904 C890 1.236 . S
O905 Tb881 2.341 . S
O905 C890 1.266 1_556 S
O906 Tb881 2.484 . S
O906 C891 1.248 . S
O907 Tb881 2.440 . S
O907 C891 1.266 . S
O908 Tb880 2.325 . S
O908 Tb881 2.658 1_554 S
O908 C898 1.281 1_554 S
O909 Tb881 2.409 . S
O909 C898 1.254 . S
O910 Tb881 2.378 . S
O910 C899 1.236 . S
O911 Tb880 2.341 . S
O911 C899 1.266 1_554 S
H912 C884 0.929 . S
H913 C885 0.931 . S
H914 C887 0.930 . S
H915 C888 0.930 . S
H916 C893 0.929 . S
H917 C894 0.931 . S
H918 C896 0.930 . S
H919 C897 0.930 . S
Tb920 C922 2.809 . S
Tb920 O940 2.484 . S
Tb920 O941 2.440 . S
Tb920 O942 2.658 1_554 S
Tb920 O943 2.409 . S
Tb920 O944 2.378 . S
Tb920 O948 2.325 . S
Tb920 O951 2.341 . S
Tb921 C931 2.809 . S
Tb921 O942 2.325 . S
Tb921 O945 2.341 . S
Tb921 O946 2.484 . S
Tb921 O947 2.440 . S
Tb921 O948 2.658 1_556 S
Tb921 O949 2.409 . S
Tb921 O950 2.378 . S
C922 Tb920 2.809 . S
C922 C923 1.514 . S
C922 O940 1.248 . S
C922 O941 1.266 . S
C923 C922 1.514 . S
C923 C924 1.359 . S
C923 C928 1.348 . S
C924 C923 1.359 . S
C924 C925 1.380 . S
C924 H952 0.929 . S
C925 C924 1.380 . S
C925 C926 1.347 . S
C925 H953 0.931 . S
C926 C925 1.347 . S
C926 C927 1.369 . S
C927 C926 1.369 . S
C927 C928 1.408 . S
C927 H954 0.930 . S
C928 C923 1.348 . S
C928 C927 1.408 . S
C928 H955 0.930 . S
C929 O942 1.281 1_554 S
C929 O943 1.254 . S
C930 O944 1.236 . S
C930 O945 1.266 1_554 S
C931 Tb921 2.809 . S
C931 C932 1.514 . S
C931 O946 1.248 . S
C931 O947 1.266 . S
C932 C931 1.514 . S
C932 C933 1.359 . S
C932 C937 1.348 . S
C933 C932 1.359 . S
C933 C934 1.380 . S
C933 H956 0.929 . S
C934 C933 1.380 . S
C934 C935 1.347 . S
C934 H957 0.931 . S
C935 C934 1.347 . S
C935 C936 1.369 . S
C936 C935 1.369 . S
C936 C937 1.408 . S
C936 H958 0.930 . S
C937 C932 1.348 . S
C937 C936 1.408 . S
C937 H959 0.930 . S
C938 O948 1.281 1_556 S
C938 O949 1.254 . S
C939 O950 1.236 . S
C939 O951 1.266 1_556 S
O940 Tb920 2.484 . S
O940 C922 1.248 . S
O941 Tb920 2.440 . S
O941 C922 1.266 . S
O942 Tb920 2.658 1_556 S
O942 Tb921 2.325 . S
O942 C929 1.281 1_556 S
O943 Tb920 2.409 . S
O943 C929 1.254 . S
O944 Tb920 2.378 . S
O944 C930 1.236 . S
O945 Tb921 2.341 . S
O945 C930 1.266 1_556 S
O946 Tb921 2.484 . S
O946 C931 1.248 . S
O947 Tb921 2.440 . S
O947 C931 1.266 . S
O948 Tb920 2.325 . S
O948 Tb921 2.658 1_554 S
O948 C938 1.281 1_554 S
O949 Tb921 2.409 . S
O949 C938 1.254 . S
O950 Tb921 2.378 . S
O950 C939 1.236 . S
O951 Tb920 2.341 . S
O951 C939 1.266 1_554 S
H952 C924 0.929 . S
H953 C925 0.931 . S
H954 C927 0.930 . S
H955 C928 0.930 . S
H956 C933 0.929 . S
H957 C934 0.931 . S
H958 C936 0.930 . S
H959 C937 0.930 . S
Tb960 C962 2.809 . S
Tb960 O980 2.484 . S
Tb960 O981 2.440 . S
Tb960 O982 2.658 . S
Tb960 O983 2.409 . S
Tb960 O984 2.378 . S
Tb960 O988 2.325 . S
Tb960 O991 2.341 . S
Tb961 C971 2.809 . S
Tb961 O982 2.325 . S
Tb961 O985 2.341 . S
Tb961 O986 2.484 . S
Tb961 O987 2.440 . S
Tb961 O988 2.658 . S
Tb961 O989 2.409 . S
Tb961 O990 2.378 . S
C962 Tb960 2.809 . S
C962 C963 1.514 . S
C962 O980 1.248 . S
C962 O981 1.266 . S
C963 C962 1.514 . S
C963 C964 1.359 1_565 S
C963 C968 1.348 . S
C964 C963 1.359 1_545 S
C964 C965 1.380 . S
C964 H992 0.929 . S
C965 C964 1.380 . S
C965 C966 1.347 . S
C965 H993 0.931 . S
C966 C965 1.347 . S
C966 C967 1.369 1_545 S
C967 C966 1.369 1_565 S
C967 C968 1.408 . S
C967 H994 0.930 . S
C968 C963 1.348 . S
C968 C967 1.408 . S
C968 H995 0.930 . S
C969 O982 1.281 . S
C969 O983 1.254 . S
C970 O984 1.236 . S
C970 O985 1.266 . S
C971 Tb961 2.809 . S
C971 C972 1.514 . S
C971 O986 1.248 . S
C971 O987 1.266 . S
C972 C971 1.514 . S
C972 C973 1.359 . S
C972 C977 1.348 . S
C973 C972 1.359 . S
C973 C974 1.380 . S
C973 H996 0.929 . S
C974 C973 1.380 . S
C974 C975 1.347 . S
C974 H997 0.931 . S
C975 C974 1.347 . S
C975 C976 1.369 . S
C976 C975 1.369 . S
C976 C977 1.408 . S
C976 H998 0.930 . S
C977 C972 1.348 . S
C977 C976 1.408 . S
C977 H999 0.930 . S
C978 O988 1.281 . S
C978 O989 1.254 . S
C979 O990 1.236 . S
C979 O991 1.266 . S
O980 Tb960 2.484 . S
O980 C962 1.248 . S
O981 Tb960 2.440 . S
O981 C962 1.266 . S
O982 Tb960 2.658 . S
O982 Tb961 2.325 . S
O982 C969 1.281 . S
O983 Tb960 2.409 . S
O983 C969 1.254 . S
O984 Tb960 2.378 . S
O984 C970 1.236 . S
O985 Tb961 2.341 . S
O985 C970 1.266 . S
O986 Tb961 2.484 . S
O986 C971 1.248 . S
O987 Tb961 2.440 . S
O987 C971 1.266 . S
O988 Tb960 2.325 . S
O988 Tb961 2.658 . S
O988 C978 1.281 . S
O989 Tb961 2.409 . S
O989 C978 1.254 . S
O990 Tb961 2.378 . S
O990 C979 1.236 . S
O991 Tb960 2.341 . S
O991 C979 1.266 . S
H992 C964 0.929 . S
H993 C965 0.931 . S
H994 C967 0.930 . S
H995 C968 0.930 . S
H996 C973 0.929 . S
H997 C974 0.931 . S
H998 C976 0.930 . S
H999 C977 0.930 . S
Tb1000 C1002 2.809 . S
Tb1000 O1020 2.484 . S
Tb1000 O1021 2.440 . S
Tb1000 O1022 2.658 . S
Tb1000 O1023 2.409 . S
Tb1000 O1024 2.378 . S
Tb1000 O1028 2.325 . S
Tb1000 O1031 2.341 . S
Tb1001 C1011 2.809 . S
Tb1001 O1022 2.325 . S
Tb1001 O1025 2.341 . S
Tb1001 O1026 2.484 . S
Tb1001 O1027 2.440 . S
Tb1001 O1028 2.658 . S
Tb1001 O1029 2.409 . S
Tb1001 O1030 2.378 . S
C1002 Tb1000 2.809 . S
C1002 C1003 1.514 . S
C1002 O1020 1.248 . S
C1002 O1021 1.266 . S
C1003 C1002 1.514 . S
C1003 C1004 1.359 1_455 S
C1003 C1008 1.348 . S
C1004 C1003 1.359 1_655 S
C1004 C1005 1.380 . S
C1004 H1032 0.929 . S
C1005 C1004 1.380 . S
C1005 C1006 1.347 . S
C1005 H1033 0.931 . S
C1006 C1005 1.347 . S
C1006 C1007 1.369 1_655 S
C1007 C1006 1.369 1_455 S
C1007 C1008 1.408 . S
C1007 H1034 0.930 . S
C1008 C1003 1.348 . S
C1008 C1007 1.408 . S
C1008 H1035 0.930 . S
C1009 O1022 1.281 . S
C1009 O1023 1.254 . S
C1010 O1024 1.236 . S
C1010 O1025 1.266 . S
C1011 Tb1001 2.809 . S
C1011 C1012 1.514 . S
C1011 O1026 1.248 . S
C1011 O1027 1.266 . S
C1012 C1011 1.514 . S
C1012 C1013 1.359 . S
C1012 C1017 1.348 . S
C1013 C1012 1.359 . S
C1013 C1014 1.380 . S
C1013 H1036 0.929 . S
C1014 C1013 1.380 . S
C1014 C1015 1.347 . S
C1014 H1037 0.931 . S
C1015 C1014 1.347 . S
C1015 C1016 1.369 . S
C1016 C1015 1.369 . S
C1016 C1017 1.408 . S
C1016 H1038 0.930 . S
C1017 C1012 1.348 . S
C1017 C1016 1.408 . S
C1017 H1039 0.930 . S
C1018 O1028 1.281 . S
C1018 O1029 1.254 . S
C1019 O1030 1.236 . S
C1019 O1031 1.266 . S
O1020 Tb1000 2.484 . S
O1020 C1002 1.248 . S
O1021 Tb1000 2.440 . S
O1021 C1002 1.266 . S
O1022 Tb1000 2.658 . S
O1022 Tb1001 2.325 . S
O1022 C1009 1.281 . S
O1023 Tb1000 2.409 . S
O1023 C1009 1.254 . S
O1024 Tb1000 2.378 . S
O1024 C1010 1.236 . S
O1025 Tb1001 2.341 . S
O1025 C1010 1.266 . S
O1026 Tb1001 2.484 . S
O1026 C1011 1.248 . S
O1027 Tb1001 2.440 . S
O1027 C1011 1.266 . S
O1028 Tb1000 2.325 . S
O1028 Tb1001 2.658 . S
O1028 C1018 1.281 . S
O1029 Tb1001 2.409 . S
O1029 C1018 1.254 . S
O1030 Tb1001 2.378 . S
O1030 C1019 1.236 . S
O1031 Tb1000 2.341 . S
O1031 C1019 1.266 . S
H1032 C1004 0.929 . S
H1033 C1005 0.931 . S
H1034 C1007 0.930 . S
H1035 C1008 0.930 . S
H1036 C1013 0.929 . S
H1037 C1014 0.931 . S
H1038 C1016 0.930 . S
H1039 C1017 0.930 . S
Tb1040 C1042 2.809 . S
Tb1040 O1060 2.484 . S
Tb1040 O1061 2.440 . S
Tb1040 O1062 2.658 . S
Tb1040 O1063 2.409 . S
Tb1040 O1064 2.378 . S
Tb1040 O1068 2.325 . S
Tb1040 O1071 2.341 . S
Tb1041 C1051 2.809 . S
Tb1041 O1062 2.325 . S
Tb1041 O1065 2.341 . S
Tb1041 O1066 2.484 . S
Tb1041 O1067 2.440 . S
Tb1041 O1068 2.658 . S
Tb1041 O1069 2.409 . S
Tb1041 O1070 2.378 . S
C1042 Tb1040 2.809 . S
C1042 C1043 1.514 . S
C1042 O1060 1.248 . S
C1042 O1061 1.266 . S
C1043 C1042 1.514 . S
C1043 C1044 1.359 . S
C1043 C1048 1.348 . S
C1044 C1043 1.359 . S
C1044 C1045 1.380 . S
C1044 H1072 0.929 . S
C1045 C1044 1.380 . S
C1045 C1046 1.347 . S
C1045 H1073 0.931 . S
C1046 C1045 1.347 . S
C1046 C1047 1.369 . S
C1047 C1046 1.369 . S
C1047 C1048 1.408 . S
C1047 H1074 0.930 . S
C1048 C1043 1.348 . S
C1048 C1047 1.408 . S
C1048 H1075 0.930 . S
C1049 O1062 1.281 . S
C1049 O1063 1.254 . S
C1050 O1064 1.236 . S
C1050 O1065 1.266 . S
C1051 Tb1041 2.809 . S
C1051 C1052 1.514 . S
C1051 O1066 1.248 . S
C1051 O1067 1.266 . S
C1052 C1051 1.514 . S
C1052 C1053 1.359 . S
C1052 C1057 1.348 . S
C1053 C1052 1.359 . S
C1053 C1054 1.380 . S
C1053 H1076 0.929 . S
C1054 C1053 1.380 . S
C1054 C1055 1.347 . S
C1054 H1077 0.931 . S
C1055 C1054 1.347 . S
C1055 C1056 1.369 . S
C1056 C1055 1.369 . S
C1056 C1057 1.408 . S
C1056 H1078 0.930 . S
C1057 C1052 1.348 . S
C1057 C1056 1.408 . S
C1057 H1079 0.930 . S
C1058 O1068 1.281 . S
C1058 O1069 1.254 . S
C1059 O1070 1.236 . S
C1059 O1071 1.266 . S
O1060 Tb1040 2.484 . S
O1060 C1042 1.248 . S
O1061 Tb1040 2.440 . S
O1061 C1042 1.266 . S
O1062 Tb1040 2.658 . S
O1062 Tb1041 2.325 . S
O1062 C1049 1.281 . S
O1063 Tb1040 2.409 . S
O1063 C1049 1.254 . S
O1064 Tb1040 2.378 . S
O1064 C1050 1.236 . S
O1065 Tb1041 2.341 . S
O1065 C1050 1.266 . S
O1066 Tb1041 2.484 . S
O1066 C1051 1.248 . S
O1067 Tb1041 2.440 . S
O1067 C1051 1.266 . S
O1068 Tb1040 2.325 . S
O1068 Tb1041 2.658 . S
O1068 C1058 1.281 . S
O1069 Tb1041 2.409 . S
O1069 C1058 1.254 . S
O1070 Tb1041 2.378 . S
O1070 C1059 1.236 . S
O1071 Tb1040 2.341 . S
O1071 C1059 1.266 . S
H1072 C1044 0.929 . S
H1073 C1045 0.931 . S
H1074 C1047 0.930 . S
H1075 C1048 0.930 . S
H1076 C1053 0.929 . S
H1077 C1054 0.931 . S
H1078 C1056 0.930 . S
H1079 C1057 0.930 . S
Tb1080 C1082 2.809 . S
Tb1080 O1100 2.484 . S
Tb1080 O1101 2.440 . S
Tb1080 O1102 2.658 1_554 S
Tb1080 O1103 2.409 . S
Tb1080 O1104 2.378 . S
Tb1080 O1108 2.325 . S
Tb1080 O1111 2.341 . S
Tb1081 C1091 2.809 . S
Tb1081 O1102 2.325 . S
Tb1081 O1105 2.341 . S
Tb1081 O1106 2.484 . S
Tb1081 O1107 2.440 . S
Tb1081 O1108 2.658 1_556 S
Tb1081 O1109 2.409 . S
Tb1081 O1110 2.378 . S
C1082 Tb1080 2.809 . S
C1082 C1083 1.514 . S
C1082 O1100 1.248 . S
C1082 O1101 1.266 . S
C1083 C1082 1.514 . S
C1083 C1084 1.359 . S
C1083 C1088 1.348 . S
C1084 C1083 1.359 . S
C1084 C1085 1.380 . S
C1084 H1112 0.929 . S
C1085 C1084 1.380 . S
C1085 C1086 1.347 . S
C1085 H1113 0.931 . S
C1086 C1085 1.347 . S
C1086 C1087 1.369 . S
C1087 C1086 1.369 . S
C1087 C1088 1.408 . S
C1087 H1114 0.930 . S
C1088 C1083 1.348 . S
C1088 C1087 1.408 . S
C1088 H1115 0.930 . S
C1089 O1102 1.281 1_554 S
C1089 O1103 1.254 . S
C1090 O1104 1.236 . S
C1090 O1105 1.266 1_554 S
C1091 Tb1081 2.809 . S
C1091 C1092 1.514 . S
C1091 O1106 1.248 . S
C1091 O1107 1.266 . S
C1092 C1091 1.514 . S
C1092 C1093 1.359 . S
C1092 C1097 1.348 . S
C1093 C1092 1.359 . S
C1093 C1094 1.380 . S
C1093 H1116 0.929 . S
C1094 C1093 1.380 . S
C1094 C1095 1.347 . S
C1094 H1117 0.931 . S
C1095 C1094 1.347 . S
C1095 C1096 1.369 . S
C1096 C1095 1.369 . S
C1096 C1097 1.408 . S
C1096 H1118 0.930 . S
C1097 C1092 1.348 . S
C1097 C1096 1.408 . S
C1097 H1119 0.930 . S
C1098 O1108 1.281 1_556 S
C1098 O1109 1.254 . S
C1099 O1110 1.236 . S
C1099 O1111 1.266 1_556 S
O1100 Tb1080 2.484 . S
O1100 C1082 1.248 . S
O1101 Tb1080 2.440 . S
O1101 C1082 1.266 . S
O1102 Tb1080 2.658 1_556 S
O1102 Tb1081 2.325 . S
O1102 C1089 1.281 1_556 S
O1103 Tb1080 2.409 . S
O1103 C1089 1.254 . S
O1104 Tb1080 2.378 . S
O1104 C1090 1.236 . S
O1105 Tb1081 2.341 . S
O1105 C1090 1.266 1_556 S
O1106 Tb1081 2.484 . S
O1106 C1091 1.248 . S
O1107 Tb1081 2.440 . S
O1107 C1091 1.266 . S
O1108 Tb1080 2.325 . S
O1108 Tb1081 2.658 1_554 S
O1108 C1098 1.281 1_554 S
O1109 Tb1081 2.409 . S
O1109 C1098 1.254 . S
O1110 Tb1081 2.378 . S
O1110 C1099 1.236 . S
O1111 Tb1080 2.341 . S
O1111 C1099 1.266 1_554 S
H1112 C1084 0.929 . S
H1113 C1085 0.931 . S
H1114 C1087 0.930 . S
H1115 C1088 0.930 . S
H1116 C1093 0.929 . S
H1117 C1094 0.931 . S
H1118 C1096 0.930 . S
H1119 C1097 0.930 . S
Tb1120 C1122 2.809 . S
Tb1120 O1140 2.484 . S
Tb1120 O1141 2.440 . S
Tb1120 O1142 2.658 1_554 S
Tb1120 O1143 2.409 . S
Tb1120 O1144 2.378 . S
Tb1120 O1148 2.325 . S
Tb1120 O1151 2.341 . S
Tb1121 C1131 2.809 . S
Tb1121 O1142 2.325 . S
Tb1121 O1145 2.341 . S
Tb1121 O1146 2.484 . S
Tb1121 O1147 2.440 . S
Tb1121 O1148 2.658 1_556 S
Tb1121 O1149 2.409 . S
Tb1121 O1150 2.378 . S
C1122 Tb1120 2.809 . S
C1122 C1123 1.514 . S
C1122 O1140 1.248 . S
C1122 O1141 1.266 . S
C1123 C1122 1.514 . S
C1123 C1124 1.359 . S
C1123 C1128 1.348 . S
C1124 C1123 1.359 . S
C1124 C1125 1.380 . S
C1124 H1152 0.929 . S
C1125 C1124 1.380 . S
C1125 C1126 1.347 . S
C1125 H1153 0.931 . S
C1126 C1125 1.347 . S
C1126 C1127 1.369 . S
C1127 C1126 1.369 . S
C1127 C1128 1.408 . S
C1127 H1154 0.930 . S
C1128 C1123 1.348 . S
C1128 C1127 1.408 . S
C1128 H1155 0.930 . S
C1129 O1142 1.281 1_554 S
C1129 O1143 1.254 . S
C1130 O1144 1.236 . S
C1130 O1145 1.266 1_554 S
C1131 Tb1121 2.809 . S
C1131 C1132 1.514 . S
C1131 O1146 1.248 . S
C1131 O1147 1.266 . S
C1132 C1131 1.514 . S
C1132 C1133 1.359 . S
C1132 C1137 1.348 . S
C1133 C1132 1.359 . S
C1133 C1134 1.380 . S
C1133 H1156 0.929 . S
C1134 C1133 1.380 . S
C1134 C1135 1.347 . S
C1134 H1157 0.931 . S
C1135 C1134 1.347 . S
C1135 C1136 1.369 . S
C1136 C1135 1.369 . S
C1136 C1137 1.408 . S
C1136 H1158 0.930 . S
C1137 C1132 1.348 . S
C1137 C1136 1.408 . S
C1137 H1159 0.930 . S
C1138 O1148 1.281 1_556 S
C1138 O1149 1.254 . S
C1139 O1150 1.236 . S
C1139 O1151 1.266 1_556 S
O1140 Tb1120 2.484 . S
O1140 C1122 1.248 . S
O1141 Tb1120 2.440 . S
O1141 C1122 1.266 . S
O1142 Tb1120 2.658 1_556 S
O1142 Tb1121 2.325 . S
O1142 C1129 1.281 1_556 S
O1143 Tb1120 2.409 . S
O1143 C1129 1.254 . S
O1144 Tb1120 2.378 . S
O1144 C1130 1.236 . S
O1145 Tb1121 2.341 . S
O1145 C1130 1.266 1_556 S
O1146 Tb1121 2.484 . S
O1146 C1131 1.248 . S
O1147 Tb1121 2.440 . S
O1147 C1131 1.266 . S
O1148 Tb1120 2.325 . S
O1148 Tb1121 2.658 1_554 S
O1148 C1138 1.281 1_554 S
O1149 Tb1121 2.409 . S
O1149 C1138 1.254 . S
O1150 Tb1121 2.378 . S
O1150 C1139 1.236 . S
O1151 Tb1120 2.341 . S
O1151 C1139 1.266 1_554 S
H1152 C1124 0.929 . S
H1153 C1125 0.931 . S
H1154 C1127 0.930 . S
H1155 C1128 0.930 . S
H1156 C1133 0.929 . S
H1157 C1134 0.931 . S
H1158 C1136 0.930 . S
H1159 C1137 0.930 . S
Tb1160 C1162 2.809 . S
Tb1160 O1180 2.484 . S
Tb1160 O1181 2.440 . S
Tb1160 O1182 2.658 1_554 S
Tb1160 O1183 2.409 . S
Tb1160 O1184 2.378 . S
Tb1160 O1188 2.325 . S
Tb1160 O1191 2.341 . S
Tb1161 C1171 2.809 . S
Tb1161 O1182 2.325 . S
Tb1161 O1185 2.341 . S
Tb1161 O1186 2.484 . S
Tb1161 O1187 2.440 . S
Tb1161 O1188 2.658 1_556 S
Tb1161 O1189 2.409 . S
Tb1161 O1190 2.378 . S
C1162 Tb1160 2.809 . S
C1162 C1163 1.514 . S
C1162 O1180 1.248 . S
C1162 O1181 1.266 . S
C1163 C1162 1.514 . S
C1163 C1164 1.359 . S
C1163 C1168 1.348 . S
C1164 C1163 1.359 . S
C1164 C1165 1.380 . S
C1164 H1192 0.929 . S
C1165 C1164 1.380 . S
C1165 C1166 1.347 . S
C1165 H1193 0.931 . S
C1166 C1165 1.347 . S
C1166 C1167 1.369 . S
C1167 C1166 1.369 . S
C1167 C1168 1.408 . S
C1167 H1194 0.930 . S
C1168 C1163 1.348 . S
C1168 C1167 1.408 . S
C1168 H1195 0.930 . S
C1169 O1182 1.281 1_554 S
C1169 O1183 1.254 . S
C1170 O1184 1.236 . S
C1170 O1185 1.266 1_554 S
C1171 Tb1161 2.809 . S
C1171 C1172 1.514 . S
C1171 O1186 1.248 . S
C1171 O1187 1.266 . S
C1172 C1171 1.514 . S
C1172 C1173 1.359 . S
C1172 C1177 1.348 . S
C1173 C1172 1.359 . S
C1173 C1174 1.380 . S
C1173 H1196 0.929 . S
C1174 C1173 1.380 . S
C1174 C1175 1.347 . S
C1174 H1197 0.931 . S
C1175 C1174 1.347 . S
C1175 C1176 1.369 . S
C1176 C1175 1.369 . S
C1176 C1177 1.408 . S
C1176 H1198 0.930 . S
C1177 C1172 1.348 . S
C1177 C1176 1.408 . S
C1177 H1199 0.930 . S
C1178 O1188 1.281 1_556 S
C1178 O1189 1.254 . S
C1179 O1190 1.236 . S
C1179 O1191 1.266 1_556 S
O1180 Tb1160 2.484 . S
O1180 C1162 1.248 . S
O1181 Tb1160 2.440 . S
O1181 C1162 1.266 . S
O1182 Tb1160 2.658 1_556 S
O1182 Tb1161 2.325 . S
O1182 C1169 1.281 1_556 S
O1183 Tb1160 2.409 . S
O1183 C1169 1.254 . S
O1184 Tb1160 2.378 . S
O1184 C1170 1.236 . S
O1185 Tb1161 2.341 . S
O1185 C1170 1.266 1_556 S
O1186 Tb1161 2.484 . S
O1186 C1171 1.248 . S
O1187 Tb1161 2.440 . S
O1187 C1171 1.266 . S
O1188 Tb1160 2.325 . S
O1188 Tb1161 2.658 1_554 S
O1188 C1178 1.281 1_554 S
O1189 Tb1161 2.409 . S
O1189 C1178 1.254 . S
O1190 Tb1161 2.378 . S
O1190 C1179 1.236 . S
O1191 Tb1160 2.341 . S
O1191 C1179 1.266 1_554 S
H1192 C1164 0.929 . S
H1193 C1165 0.931 . S
H1194 C1167 0.930 . S
H1195 C1168 0.930 . S
H1196 C1173 0.929 . S
H1197 C1174 0.931 . S
H1198 C1176 0.930 . S
H1199 C1177 0.930 . S
Tb1200 C1202 2.809 . S
Tb1200 O1220 2.484 . S
Tb1200 O1221 2.440 . S
Tb1200 O1222 2.658 . S
Tb1200 O1223 2.409 . S
Tb1200 O1224 2.378 . S
Tb1200 O1228 2.325 . S
Tb1200 O1231 2.341 . S
Tb1201 C1211 2.809 . S
Tb1201 O1222 2.325 . S
Tb1201 O1225 2.341 . S
Tb1201 O1226 2.484 . S
Tb1201 O1227 2.440 . S
Tb1201 O1228 2.658 . S
Tb1201 O1229 2.409 . S
Tb1201 O1230 2.378 . S
C1202 Tb1200 2.809 . S
C1202 C1203 1.514 . S
C1202 O1220 1.248 . S
C1202 O1221 1.266 . S
C1203 C1202 1.514 . S
C1203 C1204 1.359 . S
C1203 C1208 1.348 . S
C1204 C1203 1.359 . S
C1204 C1205 1.380 . S
C1204 H1232 0.929 . S
C1205 C1204 1.380 . S
C1205 C1206 1.347 . S
C1205 H1233 0.931 . S
C1206 C1205 1.347 . S
C1206 C1207 1.369 . S
C1207 C1206 1.369 . S
C1207 C1208 1.408 . S
C1207 H1234 0.930 . S
C1208 C1203 1.348 . S
C1208 C1207 1.408 . S
C1208 H1235 0.930 . S
C1209 O1222 1.281 . S
C1209 O1223 1.254 . S
C1210 O1224 1.236 . S
C1210 O1225 1.266 . S
C1211 Tb1201 2.809 . S
C1211 C1212 1.514 . S
C1211 O1226 1.248 . S
C1211 O1227 1.266 . S
C1212 C1211 1.514 . S
C1212 C1213 1.359 . S
C1212 C1217 1.348 . S
C1213 C1212 1.359 . S
C1213 C1214 1.380 . S
C1213 H1236 0.929 . S
C1214 C1213 1.380 . S
C1214 C1215 1.347 . S
C1214 H1237 0.931 . S
C1215 C1214 1.347 . S
C1215 C1216 1.369 . S
C1216 C1215 1.369 . S
C1216 C1217 1.408 . S
C1216 H1238 0.930 . S
C1217 C1212 1.348 . S
C1217 C1216 1.408 . S
C1217 H1239 0.930 . S
C1218 O1228 1.281 . S
C1218 O1229 1.254 . S
C1219 O1230 1.236 . S
C1219 O1231 1.266 . S
O1220 Tb1200 2.484 . S
O1220 C1202 1.248 . S
O1221 Tb1200 2.440 . S
O1221 C1202 1.266 . S
O1222 Tb1200 2.658 . S
O1222 Tb1201 2.325 . S
O1222 C1209 1.281 . S
O1223 Tb1200 2.409 . S
O1223 C1209 1.254 . S
O1224 Tb1200 2.378 . S
O1224 C1210 1.236 . S
O1225 Tb1201 2.341 . S
O1225 C1210 1.266 . S
O1226 Tb1201 2.484 . S
O1226 C1211 1.248 . S
O1227 Tb1201 2.440 . S
O1227 C1211 1.266 . S
O1228 Tb1200 2.325 . S
O1228 Tb1201 2.658 . S
O1228 C1218 1.281 . S
O1229 Tb1201 2.409 . S
O1229 C1218 1.254 . S
O1230 Tb1201 2.378 . S
O1230 C1219 1.236 . S
O1231 Tb1200 2.341 . S
O1231 C1219 1.266 . S
H1232 C1204 0.929 . S
H1233 C1205 0.931 . S
H1234 C1207 0.930 . S
H1235 C1208 0.930 . S
H1236 C1213 0.929 . S
H1237 C1214 0.931 . S
H1238 C1216 0.930 . S
H1239 C1217 0.930 . S
Tb1240 C1242 2.809 . S
Tb1240 O1260 2.484 . S
Tb1240 O1261 2.440 . S
Tb1240 O1262 2.658 . S
Tb1240 O1263 2.409 . S
Tb1240 O1264 2.378 . S
Tb1240 O1268 2.325 . S
Tb1240 O1271 2.341 . S
Tb1241 C1251 2.809 . S
Tb1241 O1262 2.325 . S
Tb1241 O1265 2.341 . S
Tb1241 O1266 2.484 . S
Tb1241 O1267 2.440 . S
Tb1241 O1268 2.658 . S
Tb1241 O1269 2.409 . S
Tb1241 O1270 2.378 . S
C1242 Tb1240 2.809 . S
C1242 C1243 1.514 . S
C1242 O1260 1.248 . S
C1242 O1261 1.266 . S
C1243 C1242 1.514 . S
C1243 C1244 1.359 . S
C1243 C1248 1.348 . S
C1244 C1243 1.359 . S
C1244 C1245 1.380 . S
C1244 H1272 0.929 . S
C1245 C1244 1.380 . S
C1245 C1246 1.347 . S
C1245 H1273 0.931 . S
C1246 C1245 1.347 . S
C1246 C1247 1.369 . S
C1247 C1246 1.369 . S
C1247 C1248 1.408 . S
C1247 H1274 0.930 . S
C1248 C1243 1.348 . S
C1248 C1247 1.408 . S
C1248 H1275 0.930 . S
C1249 O1262 1.281 . S
C1249 O1263 1.254 . S
C1250 O1264 1.236 . S
C1250 O1265 1.266 . S
C1251 Tb1241 2.809 . S
C1251 C1252 1.514 . S
C1251 O1266 1.248 . S
C1251 O1267 1.266 . S
C1252 C1251 1.514 . S
C1252 C1253 1.359 . S
C1252 C1257 1.348 . S
C1253 C1252 1.359 . S
C1253 C1254 1.380 . S
C1253 H1276 0.929 . S
C1254 C1253 1.380 . S
C1254 C1255 1.347 . S
C1254 H1277 0.931 . S
C1255 C1254 1.347 . S
C1255 C1256 1.369 . S
C1256 C1255 1.369 . S
C1256 C1257 1.408 . S
C1256 H1278 0.930 . S
C1257 C1252 1.348 . S
C1257 C1256 1.408 . S
C1257 H1279 0.930 . S
C1258 O1268 1.281 . S
C1258 O1269 1.254 . S
C1259 O1270 1.236 . S
C1259 O1271 1.266 . S
O1260 Tb1240 2.484 . S
O1260 C1242 1.248 . S
O1261 Tb1240 2.440 . S
O1261 C1242 1.266 . S
O1262 Tb1240 2.658 . S
O1262 Tb1241 2.325 . S
O1262 C1249 1.281 . S
O1263 Tb1240 2.409 . S
O1263 C1249 1.254 . S
O1264 Tb1240 2.378 . S
O1264 C1250 1.236 . S
O1265 Tb1241 2.341 . S
O1265 C1250 1.266 . S
O1266 Tb1241 2.484 . S
O1266 C1251 1.248 . S
O1267 Tb1241 2.440 . S
O1267 C1251 1.266 . S
O1268 Tb1240 2.325 . S
O1268 Tb1241 2.658 . S
O1268 C1258 1.281 . S
O1269 Tb1241 2.409 . S
O1269 C1258 1.254 . S
O1270 Tb1241 2.378 . S
O1270 C1259 1.236 . S
O1271 Tb1240 2.341 . S
O1271 C1259 1.266 . S
H1272 C1244 0.929 . S
H1273 C1245 0.931 . S
H1274 C1247 0.930 . S
H1275 C1248 0.930 . S
H1276 C1253 0.929 . S
H1277 C1254 0.931 . S
H1278 C1256 0.930 . S
H1279 C1257 0.930 . S
Tb1280 C1282 2.809 . S
Tb1280 O1300 2.484 . S
Tb1280 O1301 2.440 . S
Tb1280 O1302 2.658 . S
Tb1280 O1303 2.409 . S
Tb1280 O1304 2.378 . S
Tb1280 O1308 2.325 . S
Tb1280 O1311 2.341 . S
Tb1281 C1291 2.809 . S
Tb1281 O1302 2.325 . S
Tb1281 O1305 2.341 . S
Tb1281 O1306 2.484 . S
Tb1281 O1307 2.440 . S
Tb1281 O1308 2.658 . S
Tb1281 O1309 2.409 . S
Tb1281 O1310 2.378 . S
C1282 Tb1280 2.809 . S
C1282 C1283 1.514 . S
C1282 O1300 1.248 . S
C1282 O1301 1.266 . S
C1283 C1282 1.514 . S
C1283 C1284 1.359 . S
C1283 C1288 1.348 . S
C1284 C1283 1.359 . S
C1284 C1285 1.380 . S
C1284 H1312 0.929 . S
C1285 C1284 1.380 . S
C1285 C1286 1.347 . S
C1285 H1313 0.931 . S
C1286 C1285 1.347 . S
C1286 C1287 1.369 . S
C1287 C1286 1.369 . S
C1287 C1288 1.408 . S
C1287 H1314 0.930 . S
C1288 C1283 1.348 . S
C1288 C1287 1.408 . S
C1288 H1315 0.930 . S
C1289 O1302 1.281 . S
C1289 O1303 1.254 . S
C1290 O1304 1.236 . S
C1290 O1305 1.266 . S
C1291 Tb1281 2.809 . S
C1291 C1292 1.514 . S
C1291 O1306 1.248 . S
C1291 O1307 1.266 . S
C1292 C1291 1.514 . S
C1292 C1293 1.359 . S
C1292 C1297 1.348 . S
C1293 C1292 1.359 . S
C1293 C1294 1.380 . S
C1293 H1316 0.929 . S
C1294 C1293 1.380 . S
C1294 C1295 1.347 . S
C1294 H1317 0.931 . S
C1295 C1294 1.347 . S
C1295 C1296 1.369 . S
C1296 C1295 1.369 . S
C1296 C1297 1.408 . S
C1296 H1318 0.930 . S
C1297 C1292 1.348 . S
C1297 C1296 1.408 . S
C1297 H1319 0.930 . S
C1298 O1308 1.281 . S
C1298 O1309 1.254 . S
C1299 O1310 1.236 . S
C1299 O1311 1.266 . S
O1300 Tb1280 2.484 . S
O1300 C1282 1.248 . S
O1301 Tb1280 2.440 . S
O1301 C1282 1.266 . S
O1302 Tb1280 2.658 . S
O1302 Tb1281 2.325 . S
O1302 C1289 1.281 . S
O1303 Tb1280 2.409 . S
O1303 C1289 1.254 . S
O1304 Tb1280 2.378 . S
O1304 C1290 1.236 . S
O1305 Tb1281 2.341 . S
O1305 C1290 1.266 . S
O1306 Tb1281 2.484 . S
O1306 C1291 1.248 . S
O1307 Tb1281 2.440 . S
O1307 C1291 1.266 . S
O1308 Tb1280 2.325 . S
O1308 Tb1281 2.658 . S
O1308 C1298 1.281 . S
O1309 Tb1281 2.409 . S
O1309 C1298 1.254 . S
O1310 Tb1281 2.378 . S
O1310 C1299 1.236 . S
O1311 Tb1280 2.341 . S
O1311 C1299 1.266 . S
H1312 C1284 0.929 . S
H1313 C1285 0.931 . S
H1314 C1287 0.930 . S
H1315 C1288 0.930 . S
H1316 C1293 0.929 . S
H1317 C1294 0.931 . S
H1318 C1296 0.930 . S
H1319 C1297 0.930 . S
Tb1320 C1322 2.809 . S
Tb1320 O1340 2.484 . S
Tb1320 O1341 2.440 . S
Tb1320 O1342 2.658 . S
Tb1320 O1343 2.409 . S
Tb1320 O1344 2.378 . S
Tb1320 O1348 2.325 . S
Tb1320 O1351 2.341 . S
Tb1321 C1331 2.809 . S
Tb1321 O1342 2.325 . S
Tb1321 O1345 2.341 . S
Tb1321 O1346 2.484 . S
Tb1321 O1347 2.440 . S
Tb1321 O1348 2.658 . S
Tb1321 O1349 2.409 . S
Tb1321 O1350 2.378 . S
C1322 Tb1320 2.809 . S
C1322 C1323 1.514 . S
C1322 O1340 1.248 . S
C1322 O1341 1.266 . S
C1323 C1322 1.514 . S
C1323 C1324 1.359 . S
C1323 C1328 1.348 . S
C1324 C1323 1.359 . S
C1324 C1325 1.380 . S
C1324 H1352 0.929 . S
C1325 C1324 1.380 . S
C1325 C1326 1.347 . S
C1325 H1353 0.931 . S
C1326 C1325 1.347 . S
C1326 C1327 1.369 . S
C1327 C1326 1.369 . S
C1327 C1328 1.408 . S
C1327 H1354 0.930 . S
C1328 C1323 1.348 . S
C1328 C1327 1.408 . S
C1328 H1355 0.930 . S
C1329 O1342 1.281 . S
C1329 O1343 1.254 . S
C1330 O1344 1.236 . S
C1330 O1345 1.266 . S
C1331 Tb1321 2.809 . S
C1331 C1332 1.514 . S
C1331 O1346 1.248 . S
C1331 O1347 1.266 . S
C1332 C1331 1.514 . S
C1332 C1333 1.359 1_455 S
C1332 C1337 1.348 . S
C1333 C1332 1.359 1_655 S
C1333 C1334 1.380 . S
C1333 H1356 0.929 . S
C1334 C1333 1.380 . S
C1334 C1335 1.347 . S
C1334 H1357 0.931 . S
C1335 C1334 1.347 . S
C1335 C1336 1.369 1_655 S
C1336 C1335 1.369 1_455 S
C1336 C1337 1.408 . S
C1336 H1358 0.930 . S
C1337 C1332 1.348 . S
C1337 C1336 1.408 . S
C1337 H1359 0.930 . S
C1338 O1348 1.281 . S
C1338 O1349 1.254 . S
C1339 O1350 1.236 . S
C1339 O1351 1.266 . S
O1340 Tb1320 2.484 . S
O1340 C1322 1.248 . S
O1341 Tb1320 2.440 . S
O1341 C1322 1.266 . S
O1342 Tb1320 2.658 . S
O1342 Tb1321 2.325 . S
O1342 C1329 1.281 . S
O1343 Tb1320 2.409 . S
O1343 C1329 1.254 . S
O1344 Tb1320 2.378 . S
O1344 C1330 1.236 . S
O1345 Tb1321 2.341 . S
O1345 C1330 1.266 . S
O1346 Tb1321 2.484 . S
O1346 C1331 1.248 . S
O1347 Tb1321 2.440 . S
O1347 C1331 1.266 . S
O1348 Tb1320 2.325 . S
O1348 Tb1321 2.658 . S
O1348 C1338 1.281 . S
O1349 Tb1321 2.409 . S
O1349 C1338 1.254 . S
O1350 Tb1321 2.378 . S
O1350 C1339 1.236 . S
O1351 Tb1320 2.341 . S
O1351 C1339 1.266 . S
H1352 C1324 0.929 . S
H1353 C1325 0.931 . S
H1354 C1327 0.930 . S
H1355 C1328 0.930 . S
H1356 C1333 0.929 . S
H1357 C1334 0.931 . S
H1358 C1336 0.930 . S
H1359 C1337 0.930 . S
Tb1360 C1362 2.809 . S
Tb1360 O1380 2.484 . S
Tb1360 O1381 2.440 . S
Tb1360 O1382 2.658 . S
Tb1360 O1383 2.409 . S
Tb1360 O1384 2.378 . S
Tb1360 O1388 2.325 . S
Tb1360 O1391 2.341 . S
Tb1361 C1371 2.809 . S
Tb1361 O1382 2.325 . S
Tb1361 O1385 2.341 . S
Tb1361 O1386 2.484 . S
Tb1361 O1387 2.440 . S
Tb1361 O1388 2.658 . S
Tb1361 O1389 2.409 . S
Tb1361 O1390 2.378 . S
C1362 Tb1360 2.809 . S
C1362 C1363 1.514 . S
C1362 O1380 1.248 . S
C1362 O1381 1.266 . S
C1363 C1362 1.514 . S
C1363 C1364 1.359 . S
C1363 C1368 1.348 . S
C1364 C1363 1.359 . S
C1364 C1365 1.380 . S
C1364 H1392 0.929 . S
C1365 C1364 1.380 . S
C1365 C1366 1.347 . S
C1365 H1393 0.931 . S
C1366 C1365 1.347 . S
C1366 C1367 1.369 . S
C1367 C1366 1.369 . S
C1367 C1368 1.408 . S
C1367 H1394 0.930 . S
C1368 C1363 1.348 . S
C1368 C1367 1.408 . S
C1368 H1395 0.930 . S
C1369 O1382 1.281 . S
C1369 O1383 1.254 . S
C1370 O1384 1.236 . S
C1370 O1385 1.266 . S
C1371 Tb1361 2.809 . S
C1371 C1372 1.514 . S
C1371 O1386 1.248 . S
C1371 O1387 1.266 . S
C1372 C1371 1.514 . S
C1372 C1373 1.359 . S
C1372 C1377 1.348 . S
C1373 C1372 1.359 . S
C1373 C1374 1.380 . S
C1373 H1396 0.929 . S
C1374 C1373 1.380 . S
C1374 C1375 1.347 . S
C1374 H1397 0.931 . S
C1375 C1374 1.347 . S
C1375 C1376 1.369 . S
C1376 C1375 1.369 . S
C1376 C1377 1.408 . S
C1376 H1398 0.930 . S
C1377 C1372 1.348 . S
C1377 C1376 1.408 . S
C1377 H1399 0.930 . S
C1378 O1388 1.281 . S
C1378 O1389 1.254 . S
C1379 O1390 1.236 . S
C1379 O1391 1.266 . S
O1380 Tb1360 2.484 . S
O1380 C1362 1.248 . S
O1381 Tb1360 2.440 . S
O1381 C1362 1.266 . S
O1382 Tb1360 2.658 . S
O1382 Tb1361 2.325 . S
O1382 C1369 1.281 . S
O1383 Tb1360 2.409 . S
O1383 C1369 1.254 . S
O1384 Tb1360 2.378 . S
O1384 C1370 1.236 . S
O1385 Tb1361 2.341 . S
O1385 C1370 1.266 . S
O1386 Tb1361 2.484 . S
O1386 C1371 1.248 . S
O1387 Tb1361 2.440 . S
O1387 C1371 1.266 . S
O1388 Tb1360 2.325 . S
O1388 Tb1361 2.658 . S
O1388 C1378 1.281 . S
O1389 Tb1361 2.409 . S
O1389 C1378 1.254 . S
O1390 Tb1361 2.378 . S
O1390 C1379 1.236 . S
O1391 Tb1360 2.341 . S
O1391 C1379 1.266 . S
H1392 C1364 0.929 . S
H1393 C1365 0.931 . S
H1394 C1367 0.930 . S
H1395 C1368 0.930 . S
H1396 C1373 0.929 . S
H1397 C1374 0.931 . S
H1398 C1376 0.930 . S
H1399 C1377 0.930 . S
Tb1400 C1402 2.809 . S
Tb1400 O1420 2.484 . S
Tb1400 O1421 2.440 . S
Tb1400 O1422 2.658 . S
Tb1400 O1423 2.409 . S
Tb1400 O1424 2.378 . S
Tb1400 O1428 2.325 . S
Tb1400 O1431 2.341 . S
Tb1401 C1411 2.809 . S
Tb1401 O1422 2.325 . S
Tb1401 O1425 2.341 . S
Tb1401 O1426 2.484 . S
Tb1401 O1427 2.440 . S
Tb1401 O1428 2.658 . S
Tb1401 O1429 2.409 . S
Tb1401 O1430 2.378 . S
C1402 Tb1400 2.809 . S
C1402 C1403 1.514 . S
C1402 O1420 1.248 . S
C1402 O1421 1.266 . S
C1403 C1402 1.514 . S
C1403 C1404 1.359 . S
C1403 C1408 1.348 . S
C1404 C1403 1.359 . S
C1404 C1405 1.380 . S
C1404 H1432 0.929 . S
C1405 C1404 1.380 . S
C1405 C1406 1.347 . S
C1405 H1433 0.931 . S
C1406 C1405 1.347 . S
C1406 C1407 1.369 . S
C1407 C1406 1.369 . S
C1407 C1408 1.408 . S
C1407 H1434 0.930 . S
C1408 C1403 1.348 . S
C1408 C1407 1.408 . S
C1408 H1435 0.930 . S
C1409 O1422 1.281 . S
C1409 O1423 1.254 . S
C1410 O1424 1.236 . S
C1410 O1425 1.266 . S
C1411 Tb1401 2.809 . S
C1411 C1412 1.514 . S
C1411 O1426 1.248 . S
C1411 O1427 1.266 . S
C1412 C1411 1.514 . S
C1412 C1413 1.359 1_565 S
C1412 C1417 1.348 . S
C1413 C1412 1.359 1_545 S
C1413 C1414 1.380 . S
C1413 H1436 0.929 . S
C1414 C1413 1.380 . S
C1414 C1415 1.347 . S
C1414 H1437 0.931 . S
C1415 C1414 1.347 . S
C1415 C1416 1.369 1_545 S
C1416 C1415 1.369 1_565 S
C1416 C1417 1.408 . S
C1416 H1438 0.930 . S
C1417 C1412 1.348 . S
C1417 C1416 1.408 . S
C1417 H1439 0.930 . S
C1418 O1428 1.281 . S
C1418 O1429 1.254 . S
C1419 O1430 1.236 . S
C1419 O1431 1.266 . S
O1420 Tb1400 2.484 . S
O1420 C1402 1.248 . S
O1421 Tb1400 2.440 . S
O1421 C1402 1.266 . S
O1422 Tb1400 2.658 . S
O1422 Tb1401 2.325 . S
O1422 C1409 1.281 . S
O1423 Tb1400 2.409 . S
O1423 C1409 1.254 . S
O1424 Tb1400 2.378 . S
O1424 C1410 1.236 . S
O1425 Tb1401 2.341 . S
O1425 C1410 1.266 . S
O1426 Tb1401 2.484 . S
O1426 C1411 1.248 . S
O1427 Tb1401 2.440 . S
O1427 C1411 1.266 . S
O1428 Tb1400 2.325 . S
O1428 Tb1401 2.658 . S
O1428 C1418 1.281 . S
O1429 Tb1401 2.409 . S
O1429 C1418 1.254 . S
O1430 Tb1401 2.378 . S
O1430 C1419 1.236 . S
O1431 Tb1400 2.341 . S
O1431 C1419 1.266 . S
H1432 C1404 0.929 . S
H1433 C1405 0.931 . S
H1434 C1407 0.930 . S
H1435 C1408 0.930 . S
H1436 C1413 0.929 . S
H1437 C1414 0.931 . S
H1438 C1416 0.930 . S
H1439 C1417 0.930 . S
C1440 C1441 1.363 . S
C1440 C1446 1.379 . S
C1440 N1448 1.356 . S
C1441 C1440 1.363 . S
C1441 C1447 1.363 . S
C1442 C1443 1.363 . S
C1442 C1447 1.379 . S
C1442 N1449 1.356 . S
C1443 C1442 1.363 . S
C1443 C1446 1.363 . S
N1444 C1446 1.356 1_565 S
N1444 H1456 0.984 . S
N1444 H1457 0.985 . S
N1445 C1447 1.356 . S
N1445 H1450 0.984 . S
N1445 H1451 0.985 . S
C1446 C1440 1.379 . S
C1446 C1443 1.363 . S
C1446 N1444 1.356 1_545 S
C1447 C1441 1.363 . S
C1447 C1442 1.379 . S
C1447 N1445 1.356 . S
N1448 C1440 1.356 . S
N1448 H1454 0.984 . S
N1448 H1455 0.984 . S
N1449 C1442 1.356 . S
N1449 H1452 0.984 1_545 S
N1449 H1453 0.985 . S
H1450 N1445 0.984 . S
H1451 N1445 0.985 . S
H1452 N1449 0.984 1_565 S
H1453 N1449 0.985 . S
H1454 N1448 0.984 . S
H1455 N1448 0.984 . S
H1456 N1444 0.984 . S
H1457 N1444 0.985 . S
C1458 C1459 1.363 . S
C1458 C1464 1.379 . S
C1458 N1466 1.356 . S
C1459 C1458 1.363 . S
C1459 C1465 1.363 . S
C1460 C1461 1.363 . S
C1460 C1465 1.379 . S
C1460 N1467 1.356 1_545 S
C1461 C1460 1.363 . S
C1461 C1464 1.363 . S
N1462 C1464 1.356 . S
N1462 H1474 0.984 . S
N1462 H1475 0.985 . S
N1463 C1465 1.356 1_455 S
N1463 H1468 0.984 . S
N1463 H1469 0.985 . S
C1464 C1458 1.379 . S
C1464 C1461 1.363 . S
C1464 N1462 1.356 . S
C1465 C1459 1.363 . S
C1465 C1460 1.379 . S
C1465 N1463 1.356 1_655 S
N1466 C1458 1.356 . S
N1466 H1472 0.984 . S
N1466 H1473 0.984 1_655 S
N1467 C1460 1.356 1_565 S
N1467 H1470 0.984 . S
N1467 H1471 0.985 . S
H1468 N1463 0.984 . S
H1469 N1463 0.985 . S
H1470 N1467 0.984 . S
H1471 N1467 0.985 . S
H1472 N1466 0.984 . S
H1473 N1466 0.984 1_455 S
H1474 N1462 0.984 . S
H1475 N1462 0.985 . S
C1476 C1477 1.363 . S
C1476 C1482 1.379 . S
C1476 N1484 1.356 . S
C1477 C1476 1.363 . S
C1477 C1483 1.363 . S
C1478 C1479 1.363 . S
C1478 C1483 1.379 . S
C1478 N1485 1.356 . S
C1479 C1478 1.363 . S
C1479 C1482 1.363 . S
N1480 C1482 1.356 . S
N1480 H1492 0.984 . S
N1480 H1493 0.985 . S
N1481 C1483 1.356 . S
N1481 H1486 0.984 . S
N1481 H1487 0.985 . S
C1482 C1476 1.379 . S
C1482 C1479 1.363 . S
C1482 N1480 1.356 . S
C1483 C1477 1.363 . S
C1483 C1478 1.379 . S
C1483 N1481 1.356 . S
N1484 C1476 1.356 . S
N1484 H1490 0.984 . S
N1484 H1491 0.984 . S
N1485 C1478 1.356 . S
N1485 H1488 0.984 . S
N1485 H1489 0.985 . S
H1486 N1481 0.984 . S
H1487 N1481 0.985 . S
H1488 N1485 0.984 . S
H1489 N1485 0.985 . S
H1490 N1484 0.984 . S
H1491 N1484 0.984 . S
H1492 N1480 0.984 . S
H1493 N1480 0.985 . S
C1494 C1495 1.363 . S
C1494 C1500 1.379 . S
C1494 N1502 1.356 . S
C1495 C1494 1.363 . S
C1495 C1501 1.363 . S
C1496 C1497 1.363 . S
C1496 C1501 1.379 . S
C1496 N1503 1.356 . S
C1497 C1496 1.363 . S
C1497 C1500 1.363 . S
N1498 C1500 1.356 1_655 S
N1498 H1510 0.984 . S
N1498 H1511 0.985 . S
N1499 C1501 1.356 . S
N1499 H1504 0.984 . S
N1499 H1505 0.985 . S
C1500 C1494 1.379 . S
C1500 C1497 1.363 . S
C1500 N1498 1.356 1_455 S
C1501 C1495 1.363 . S
C1501 C1496 1.379 . S
C1501 N1499 1.356 . S
N1502 C1494 1.356 . S
N1502 H1508 0.984 . S
N1502 H1509 0.984 . S
N1503 C1496 1.356 . S
N1503 H1506 0.984 1_455 S
N1503 H1507 0.985 . S
H1504 N1499 0.984 . S
H1505 N1499 0.985 . S
H1506 N1503 0.984 1_655 S
H1507 N1503 0.985 . S
H1508 N1502 0.984 . S
H1509 N1502 0.984 . S
H1510 N1498 0.984 . S
H1511 N1498 0.985 . S
C1512 C1513 1.363 . S
C1512 C1518 1.379 . S
C1512 N1520 1.356 . S
C1513 C1512 1.363 . S
C1513 C1519 1.363 . S
C1514 C1515 1.363 . S
C1514 C1519 1.379 . S
C1514 N1521 1.356 1_565 S
C1515 C1514 1.363 . S
C1515 C1518 1.363 . S
N1516 C1518 1.356 . S
N1516 H1528 0.984 . S
N1516 H1529 0.985 . S
N1517 C1519 1.356 . S
N1517 H1522 0.984 . S
N1517 H1523 0.985 . S
C1518 C1512 1.379 . S
C1518 C1515 1.363 . S
C1518 N1516 1.356 . S
C1519 C1513 1.363 . S
C1519 C1514 1.379 . S
C1519 N1517 1.356 . S
N1520 C1512 1.356 . S
N1520 H1526 0.984 . S
N1520 H1527 0.984 . S
N1521 C1514 1.356 1_545 S
N1521 H1524 0.984 . S
N1521 H1525 0.985 . S
H1522 N1517 0.984 . S
H1523 N1517 0.985 . S
H1524 N1521 0.984 . S
H1525 N1521 0.985 . S
H1526 N1520 0.984 . S
H1527 N1520 0.984 . S
H1528 N1516 0.984 . S
H1529 N1516 0.985 . S
C1530 C1531 1.363 . S
C1530 C1536 1.379 . S
C1530 N1538 1.356 . S
C1531 C1530 1.363 . S
C1531 C1537 1.363 . S
C1532 C1533 1.363 . S
C1532 C1537 1.379 . S
C1532 N1539 1.356 1_565 S
C1533 C1532 1.363 . S
C1533 C1536 1.363 . S
N1534 C1536 1.356 . S
N1534 H1546 0.984 . S
N1534 H1547 0.985 1_565 S
N1535 C1537 1.356 . S
N1535 H1540 0.984 1_455 S
N1535 H1541 0.985 . S
C1536 C1530 1.379 . S
C1536 C1533 1.363 . S
C1536 N1534 1.356 . S
C1537 C1531 1.363 . S
C1537 C1532 1.379 . S
C1537 N1535 1.356 . S
N1538 C1530 1.356 . S
N1538 H1544 0.984 . S
N1538 H1545 0.984 . S
N1539 C1532 1.356 1_545 S
N1539 H1542 0.984 . S
N1539 H1543 0.985 . S
H1540 N1535 0.984 1_655 S
H1541 N1535 0.985 . S
H1542 N1539 0.984 . S
H1543 N1539 0.985 . S
H1544 N1538 0.984 . S
H1545 N1538 0.984 . S
H1546 N1534 0.984 . S
H1547 N1534 0.985 1_545 S
C1548 C1549 1.363 . S
C1548 C1554 1.379 . S
C1548 N1556 1.356 . S
C1549 C1548 1.363 . S
C1549 C1555 1.363 . S
C1550 C1551 1.363 . S
C1550 C1555 1.379 . S
C1550 N1557 1.356 . S
C1551 C1550 1.363 . S
C1551 C1554 1.363 . S
N1552 C1554 1.368 . S
N1552 H1564 0.994 . S
N1552 H1565 0.964 1_565 S
N1553 C1555 1.356 . S
N1553 H1558 0.984 . S
N1553 H1559 0.985 . S
C1554 C1548 1.379 . S
C1554 C1551 1.363 . S
C1554 N1552 1.368 . S
C1555 C1549 1.363 . S
C1555 C1550 1.379 . S
C1555 N1553 1.356 . S
N1556 C1548 1.356 . S
N1556 H1562 0.984 . S
N1556 H1563 0.984 . S
N1557 C1550 1.356 . S
N1557 H1560 0.984 1_565 S
N1557 H1561 0.985 . S
H1558 N1553 0.984 . S
H1559 N1553 0.985 . S
H1560 N1557 0.984 1_545 S
H1561 N1557 0.985 . S
H1562 N1556 0.984 . S
H1563 N1556 0.984 . S
H1564 N1552 0.994 . S
H1565 N1552 0.964 1_545 S
C1566 C1567 1.363 . S
C1566 C1572 1.379 . S
C1566 N1574 1.356 . S
C1567 C1566 1.363 . S
C1567 C1573 1.363 . S
C1568 C1569 1.363 . S
C1568 C1573 1.379 . S
C1568 N1575 1.356 . S
C1569 C1568 1.363 . S
C1569 C1572 1.363 . S
N1570 C1572 1.356 . S
N1570 H1582 0.984 . S
N1570 H1583 0.985 1_455 S
N1571 C1573 1.356 . S
N1571 H1576 0.984 . S
N1571 H1577 0.985 . S
C1572 C1566 1.379 . S
C1572 C1569 1.363 . S
C1572 N1570 1.356 . S
C1573 C1567 1.363 . S
C1573 C1568 1.379 . S
C1573 N1571 1.356 . S
N1574 C1566 1.356 . S
N1574 H1580 0.984 . S
N1574 H1581 0.984 1_565 S
N1575 C1568 1.356 . S
N1575 H1578 0.984 1_455 S
N1575 H1579 0.985 . S
H1576 N1571 0.984 . S
H1577 N1571 0.985 . S
H1578 N1575 0.984 1_655 S
H1579 N1575 0.985 . S
H1580 N1574 0.984 . S
H1581 N1574 0.984 1_545 S
H1582 N1570 0.984 . S
H1583 N1570 0.985 1_655 S
C1584 C1585 1.363 . S
C1584 C1590 1.379 . S
C1584 N1592 1.356 . S
C1585 C1584 1.363 . S
C1585 C1591 1.363 . S
C1586 C1587 1.363 . S
C1586 C1591 1.379 . S
C1586 N1593 1.356 . S
C1587 C1586 1.363 . S
C1587 C1590 1.363 . S
N1588 C1590 1.356 . S
N1588 H1600 0.984 . S
N1588 H1601 0.985 . S
N1589 C1591 1.356 . S
N1589 H1594 0.984 . S
N1589 H1595 0.985 . S
C1590 C1584 1.379 . S
C1590 C1587 1.363 . S
C1590 N1588 1.356 . S
C1591 C1585 1.363 . S
C1591 C1586 1.379 . S
C1591 N1589 1.356 . S
N1592 C1584 1.356 . S
N1592 H1598 0.984 . S
N1592 H1599 0.984 . S
N1593 C1586 1.356 . S
N1593 H1596 0.984 . S
N1593 H1597 0.985 . S
H1594 N1589 0.984 . S
H1595 N1589 0.985 . S
H1596 N1593 0.984 . S
H1597 N1593 0.985 . S
H1598 N1592 0.984 . S
H1599 N1592 0.984 . S
H1600 N1588 0.984 . S
H1601 N1588 0.985 . S
C1602 C1603 1.363 . S
C1602 C1608 1.379 . S
C1602 N1610 1.356 . S
C1603 C1602 1.363 . S
C1603 C1609 1.363 . S
C1604 C1605 1.363 . S
C1604 C1609 1.379 . S
C1604 N1611 1.356 . S
C1605 C1604 1.363 . S
C1605 C1608 1.363 . S
N1606 C1608 1.356 1_455 S
N1606 H1618 0.984 . S
N1606 H1619 0.985 . S
N1607 C1609 1.356 . S
N1607 H1612 0.984 . S
N1607 H1613 0.985 . S
C1608 C1602 1.379 . S
C1608 C1605 1.363 . S
C1608 N1606 1.356 1_655 S
C1609 C1603 1.363 . S
C1609 C1604 1.379 . S
C1609 N1607 1.356 . S
N1610 C1602 1.356 . S
N1610 H1616 0.984 . S
N1610 H1617 0.984 . S
N1611 C1604 1.356 . S
N1611 H1614 0.984 1_655 S
N1611 H1615 0.985 . S
H1612 N1607 0.984 . S
H1613 N1607 0.985 . S
H1614 N1611 0.984 1_455 S
H1615 N1611 0.985 . S
H1616 N1610 0.984 . S
H1617 N1610 0.984 . S
H1618 N1606 0.984 . S
H1619 N1606 0.985 . S
C1620 C1621 1.363 . S
C1620 C1626 1.379 . S
C1620 N1628 1.356 . S
C1621 C1620 1.363 . S
C1621 C1627 1.363 . S
C1622 C1623 1.363 . S
C1622 C1627 1.379 . S
C1622 N1629 1.356 . S
C1623 C1622 1.363 . S
C1623 C1626 1.363 . S
N1624 C1626 1.356 . S
N1624 H1636 0.984 . S
N1624 H1637 0.985 . S
N1625 C1627 1.356 . S
N1625 H1630 0.984 . S
N1625 H1631 0.985 . S
C1626 C1620 1.379 . S
C1626 C1623 1.363 . S
C1626 N1624 1.356 . S
C1627 C1621 1.363 . S
C1627 C1622 1.379 . S
C1627 N1625 1.356 . S
N1628 C1620 1.356 . S
N1628 H1634 0.984 . S
N1628 H1635 0.984 . S
N1629 C1622 1.356 . S
N1629 H1632 0.984 . S
N1629 H1633 0.985 . S
H1630 N1625 0.984 . S
H1631 N1625 0.985 . S
H1632 N1629 0.984 . S
H1633 N1629 0.985 . S
H1634 N1628 0.984 . S
H1635 N1628 0.984 . S
H1636 N1624 0.984 . S
H1637 N1624 0.985 . S
C1638 C1639 1.363 . S
C1638 C1644 1.379 . S
C1638 N1646 1.356 . S
C1639 C1638 1.363 . S
C1639 C1645 1.363 . S
C1640 C1641 1.363 . S
C1640 C1645 1.379 . S
C1640 N1647 1.356 . S
C1641 C1640 1.363 . S
C1641 C1644 1.363 . S
N1642 C1644 1.356 . S
N1642 H1654 0.984 . S
N1642 H1655 0.985 . S
N1643 C1645 1.356 1_565 S
N1643 H1648 0.984 . S
N1643 H1649 0.985 . S
C1644 C1638 1.379 . S
C1644 C1641 1.363 . S
C1644 N1642 1.356 . S
C1645 C1639 1.363 . S
C1645 C1640 1.379 . S
C1645 N1643 1.356 1_545 S
N1646 C1638 1.356 . S
N1646 H1652 0.984 . S
N1646 H1653 0.984 1_545 S
N1647 C1640 1.356 . S
N1647 H1650 0.984 1_655 S
N1647 H1651 0.985 . S
H1648 N1643 0.984 . S
H1649 N1643 0.985 . S
H1650 N1647 0.984 1_455 S
H1651 N1647 0.985 . S
H1652 N1646 0.984 . S
H1653 N1646 0.984 1_565 S
H1654 N1642 0.984 . S
H1655 N1642 0.985 . S
C1656 C1657 1.363 . S
C1656 C1662 1.379 . S
C1656 N1664 1.356 . S
C1657 C1656 1.363 . S
C1657 C1663 1.363 . S
C1658 C1659 1.363 . S
C1658 C1663 1.379 . S
C1658 N1665 1.356 . S
C1659 C1658 1.363 . S
C1659 C1662 1.363 . S
N1660 C1662 1.356 . S
N1660 H1672 0.984 . S
N1660 H1673 0.985 . S
N1661 C1663 1.356 . S
N1661 H1666 0.984 . S
N1661 H1667 0.985 . S
C1662 C1656 1.379 . S
C1662 C1659 1.363 . S
C1662 N1660 1.356 . S
C1663 C1657 1.363 . S
C1663 C1658 1.379 . S
C1663 N1661 1.356 . S
N1664 C1656 1.356 . S
N1664 H1670 0.984 . S
N1664 H1671 0.984 . S
N1665 C1658 1.356 . S
N1665 H1668 0.984 . S
N1665 H1669 0.985 . S
H1666 N1661 0.984 . S
H1667 N1661 0.985 . S
H1668 N1665 0.984 . S
H1669 N1665 0.985 . S
H1670 N1664 0.984 . S
H1671 N1664 0.984 . S
H1672 N1660 0.984 . S
H1673 N1660 0.985 . S
C1674 C1675 1.363 . S
C1674 C1680 1.379 . S
C1674 N1682 1.356 . S
C1675 C1674 1.363 . S
C1675 C1681 1.363 . S
C1676 C1677 1.363 . S
C1676 C1681 1.379 . S
C1676 N1683 1.356 . S
C1677 C1676 1.363 . S
C1677 C1680 1.363 . S
N1678 C1680 1.356 . S
N1678 H1690 0.984 . S
N1678 H1691 0.985 . S
N1679 C1681 1.356 . S
N1679 H1684 0.984 . S
N1679 H1685 0.985 . S
C1680 C1674 1.379 . S
C1680 C1677 1.363 . S
C1680 N1678 1.356 . S
C1681 C1675 1.363 . S
C1681 C1676 1.379 . S
C1681 N1679 1.356 . S
N1682 C1674 1.356 . S
N1682 H1688 0.984 . S
N1682 H1689 0.984 . S
N1683 C1676 1.356 . S
N1683 H1686 0.984 . S
N1683 H1687 0.985 . S
H1684 N1679 0.984 . S
H1685 N1679 0.985 . S
H1686 N1683 0.984 . S
H1687 N1683 0.985 . S
H1688 N1682 0.984 . S
H1689 N1682 0.984 . S
H1690 N1678 0.984 . S
H1691 N1678 0.985 . S
C1692 C1693 1.363 . S
C1692 C1698 1.379 . S
C1692 N1700 1.356 . S
C1693 C1692 1.363 . S
C1693 C1699 1.363 . S
C1694 C1695 1.363 . S
C1694 C1699 1.379 . S
C1694 N1701 1.356 . S
C1695 C1694 1.363 . S
C1695 C1698 1.363 . S
N1696 C1698 1.356 . S
N1696 H1708 0.984 . S
N1696 H1709 0.985 . S
N1697 C1699 1.356 . S
N1697 H1702 0.984 . S
N1697 H1703 0.985 . S
C1698 C1692 1.379 . S
C1698 C1695 1.363 . S
C1698 N1696 1.356 . S
C1699 C1693 1.363 . S
C1699 C1694 1.379 . S
C1699 N1697 1.356 . S
N1700 C1692 1.356 . S
N1700 H1706 0.984 . S
N1700 H1707 0.984 . S
N1701 C1694 1.356 . S
N1701 H1704 0.984 . S
N1701 H1705 0.985 . S
H1702 N1697 0.984 . S
H1703 N1697 0.985 . S
H1704 N1701 0.984 . S
H1705 N1701 0.985 . S
H1706 N1700 0.984 . S
H1707 N1700 0.984 . S
H1708 N1696 0.984 . S
H1709 N1696 0.985 . S
C1710 C1711 1.363 . S
C1710 C1716 1.379 . S
C1710 N1718 1.356 . S
C1711 C1710 1.363 . S
C1711 C1717 1.363 . S
C1712 C1713 1.363 . S
C1712 C1717 1.379 . S
C1712 N1719 1.356 . S
C1713 C1712 1.363 . S
C1713 C1716 1.363 . S
N1714 C1716 1.356 . S
N1714 H1726 0.984 . S
N1714 H1727 0.985 . S
N1715 C1717 1.356 . S
N1715 H1720 0.984 . S
N1715 H1721 0.985 . S
C1716 C1710 1.379 . S
C1716 C1713 1.363 . S
C1716 N1714 1.356 . S
C1717 C1711 1.363 . S
C1717 C1712 1.379 . S
C1717 N1715 1.356 . S
N1718 C1710 1.356 . S
N1718 H1724 0.984 . S
N1718 H1725 0.984 . S
N1719 C1712 1.356 . S
N1719 H1722 0.984 . S
N1719 H1723 0.985 . S
H1720 N1715 0.984 . S
H1721 N1715 0.985 . S
H1722 N1719 0.984 . S
H1723 N1719 0.985 . S
H1724 N1718 0.984 . S
H1725 N1718 0.984 . S
H1726 N1714 0.984 . S
H1727 N1714 0.985 . S
C1728 C1729 1.363 . S
C1728 C1734 1.379 . S
C1728 N1736 1.356 . S
C1729 C1728 1.363 . S
C1729 C1735 1.363 . S
C1730 C1731 1.363 . S
C1730 C1735 1.379 . S
C1730 N1737 1.356 . S
C1731 C1730 1.363 . S
C1731 C1734 1.363 . S
N1732 C1734 1.356 . S
N1732 H1744 0.984 . S
N1732 H1745 0.985 . S
N1733 C1735 1.356 . S
N1733 H1738 0.984 . S
N1733 H1739 0.985 . S
C1734 C1728 1.379 . S
C1734 C1731 1.363 . S
C1734 N1732 1.356 . S
C1735 C1729 1.363 . S
C1735 C1730 1.379 . S
C1735 N1733 1.356 . S
N1736 C1728 1.356 . S
N1736 H1742 0.984 . S
N1736 H1743 0.984 . S
N1737 C1730 1.356 . S
N1737 H1740 0.984 . S
N1737 H1741 0.985 . S
H1738 N1733 0.984 . S
H1739 N1733 0.985 . S
H1740 N1737 0.984 . S
H1741 N1737 0.985 . S
H1742 N1736 0.984 . S
H1743 N1736 0.984 . S
H1744 N1732 0.984 . S
H1745 N1732 0.985 . S
C1746 C1747 1.363 . S
C1746 C1752 1.379 . S
C1746 N1754 1.356 . S
C1747 C1746 1.363 . S
C1747 C1753 1.363 . S
C1748 C1749 1.363 . S
C1748 C1753 1.379 . S
C1748 N1755 1.356 . S
C1749 C1748 1.363 . S
C1749 C1752 1.363 . S
N1750 C1752 1.356 . S
N1750 H1762 0.984 . S
N1750 H1763 0.985 . S
N1751 C1753 1.356 . S
N1751 H1756 0.984 . S
N1751 H1757 0.985 . S
C1752 C1746 1.379 . S
C1752 C1749 1.363 . S
C1752 N1750 1.356 . S
C1753 C1747 1.363 . S
C1753 C1748 1.379 . S
C1753 N1751 1.356 . S
N1754 C1746 1.356 . S
N1754 H1760 0.984 . S
N1754 H1761 0.984 . S
N1755 C1748 1.356 . S
N1755 H1758 0.984 . S
N1755 H1759 0.985 . S
H1756 N1751 0.984 . S
H1757 N1751 0.985 . S
H1758 N1755 0.984 . S
H1759 N1755 0.985 . S
H1760 N1754 0.984 . S
H1761 N1754 0.984 . S
H1762 N1750 0.984 . S
H1763 N1750 0.985 . S
C1764 C1765 1.363 . S
C1764 C1770 1.379 . S
C1764 N1772 1.356 . S
C1765 C1764 1.363 . S
C1765 C1771 1.363 . S
C1766 C1767 1.363 . S
C1766 C1771 1.379 . S
C1766 N1773 1.356 . S
C1767 C1766 1.363 . S
C1767 C1770 1.363 . S
N1768 C1770 1.356 . S
N1768 H1780 0.984 . S
N1768 H1781 0.985 . S
N1769 C1771 1.356 . S
N1769 H1774 0.984 . S
N1769 H1775 0.985 . S
C1770 C1764 1.379 . S
C1770 C1767 1.363 . S
C1770 N1768 1.356 . S
C1771 C1765 1.363 . S
C1771 C1766 1.379 . S
C1771 N1769 1.356 . S
N1772 C1764 1.356 . S
N1772 H1778 0.984 . S
N1772 H1779 0.984 . S
N1773 C1766 1.356 . S
N1773 H1776 0.984 . S
N1773 H1777 0.985 . S
H1774 N1769 0.984 . S
H1775 N1769 0.985 . S
H1776 N1773 0.984 . S
H1777 N1773 0.985 . S
H1778 N1772 0.984 . S
H1779 N1772 0.984 . S
H1780 N1768 0.984 . S
H1781 N1768 0.985 . S
C1782 C1783 1.363 . S
C1782 C1788 1.379 . S
C1782 N1790 1.356 . S
C1783 C1782 1.363 . S
C1783 C1789 1.363 . S
C1784 C1785 1.363 . S
C1784 C1789 1.379 . S
C1784 N1791 1.356 . S
C1785 C1784 1.363 . S
C1785 C1788 1.363 . S
N1786 C1788 1.356 . S
N1786 H1798 0.984 . S
N1786 H1799 0.985 . S
N1787 C1789 1.356 . S
N1787 H1792 0.984 . S
N1787 H1793 0.985 . S
C1788 C1782 1.379 . S
C1788 C1785 1.363 . S
C1788 N1786 1.356 . S
C1789 C1783 1.363 . S
C1789 C1784 1.379 . S
C1789 N1787 1.356 . S
N1790 C1782 1.356 . S
N1790 H1796 0.984 . S
N1790 H1797 0.984 . S
N1791 C1784 1.356 . S
N1791 H1794 0.984 . S
N1791 H1795 0.985 . S
H1792 N1787 0.984 . S
H1793 N1787 0.985 . S
H1794 N1791 0.984 . S
H1795 N1791 0.985 . S
H1796 N1790 0.984 . S
H1797 N1790 0.984 . S
H1798 N1786 0.984 . S
H1799 N1786 0.985 . S
C1800 C1801 1.363 . S
C1800 C1806 1.379 . S
C1800 N1808 1.356 . S
C1801 C1800 1.363 . S
C1801 C1807 1.363 . S
C1802 C1803 1.363 . S
C1802 C1807 1.379 . S
C1802 N1809 1.356 . S
C1803 C1802 1.363 . S
C1803 C1806 1.363 . S
N1804 C1806 1.356 . S
N1804 H1816 0.984 . S
N1804 H1817 0.985 . S
N1805 C1807 1.356 . S
N1805 H1810 0.984 . S
N1805 H1811 0.985 . S
C1806 C1800 1.379 . S
C1806 C1803 1.363 . S
C1806 N1804 1.356 . S
C1807 C1801 1.363 . S
C1807 C1802 1.379 . S
C1807 N1805 1.356 . S
N1808 C1800 1.356 . S
N1808 H1814 0.984 . S
N1808 H1815 0.984 . S
N1809 C1802 1.356 . S
N1809 H1812 0.984 . S
N1809 H1813 0.985 . S
H1810 N1805 0.984 . S
H1811 N1805 0.985 . S
H1812 N1809 0.984 . S
H1813 N1809 0.985 . S
H1814 N1808 0.984 . S
H1815 N1808 0.984 . S
H1816 N1804 0.984 . S
H1817 N1804 0.985 . S
C1818 C1819 1.345 1_556 S
C1818 C1824 1.384 . S
C1818 N1826 1.366 . S
C1819 C1818 1.345 1_554 S
C1819 C1825 1.363 . S
C1820 C1821 1.363 . S
C1820 C1825 1.379 . S
C1820 N1827 1.356 . S
C1821 C1820 1.363 . S
C1821 C1824 1.363 1_554 S
N1822 C1824 1.356 . S
N1822 H1834 0.984 . S
N1822 H1835 0.985 . S
N1823 C1825 1.356 . S
N1823 H1828 0.984 . S
N1823 H1829 0.985 . S
C1824 C1818 1.384 . S
C1824 C1821 1.363 1_556 S
C1824 N1822 1.356 . S
C1825 C1819 1.363 . S
C1825 C1820 1.379 . S
C1825 N1823 1.356 . S
N1826 C1818 1.366 . S
N1826 H1832 0.984 . S
N1826 H1833 1.015 . S
N1827 C1820 1.356 . S
N1827 H1830 0.984 . S
N1827 H1831 0.985 . S
H1828 N1823 0.984 . S
H1829 N1823 0.985 . S
H1830 N1827 0.984 . S
H1831 N1827 0.985 . S
H1832 N1826 0.984 . S
H1833 N1826 1.015 . S
H1834 N1822 0.984 . S
H1835 N1822 0.985 . S
C1836 C1837 1.363 1_556 S
C1836 C1842 1.379 . S
C1836 N1844 1.356 . S
C1837 C1836 1.363 1_554 S
C1837 C1843 1.363 . S
C1838 C1839 1.363 . S
C1838 C1843 1.379 . S
C1838 N1845 1.356 . S
C1839 C1838 1.363 . S
C1839 C1842 1.363 1_554 S
N1840 C1842 1.356 . S
N1840 H1852 0.984 . S
N1840 H1853 0.985 . S
N1841 C1843 1.356 . S
N1841 H1846 0.984 . S
N1841 H1847 0.985 . S
C1842 C1836 1.379 . S
C1842 C1839 1.363 1_556 S
C1842 N1840 1.356 . S
C1843 C1837 1.363 . S
C1843 C1838 1.379 . S
C1843 N1841 1.356 . S
N1844 C1836 1.356 . S
N1844 H1850 0.984 . S
N1844 H1851 0.984 . S
N1845 C1838 1.356 . S
N1845 H1848 0.984 . S
N1845 H1849 0.985 . S
H1846 N1841 0.984 . S
H1847 N1841 0.985 . S
H1848 N1845 0.984 . S
H1849 N1845 0.985 . S
H1850 N1844 0.984 . S
H1851 N1844 0.984 . S
H1852 N1840 0.984 . S
H1853 N1840 0.985 . S
C1854 C1855 1.363 . S
C1854 C1860 1.379 . S
C1854 N1862 1.356 . S
C1855 C1854 1.363 . S
C1855 C1861 1.363 1_554 S
C1856 C1857 1.363 1_556 S
C1856 C1861 1.379 . S
C1856 N1863 1.356 . S
C1857 C1856 1.363 1_554 S
C1857 C1860 1.363 . S
N1858 C1860 1.356 . S
N1858 H1870 0.984 . S
N1858 H1871 0.985 . S
N1859 C1861 1.356 . S
N1859 H1864 0.984 . S
N1859 H1865 0.985 . S
C1860 C1854 1.379 . S
C1860 C1857 1.363 . S
C1860 N1858 1.356 . S
C1861 C1855 1.363 1_556 S
C1861 C1856 1.379 . S
C1861 N1859 1.356 . S
N1862 C1854 1.356 . S
N1862 H1868 0.984 . S
N1862 H1869 0.984 . S
N1863 C1856 1.356 . S
N1863 H1866 0.984 . S
N1863 H1867 0.985 . S
H1864 N1859 0.984 . S
H1865 N1859 0.985 . S
H1866 N1863 0.984 . S
H1867 N1863 0.985 . S
H1868 N1862 0.984 . S
H1869 N1862 0.984 . S
H1870 N1858 0.984 . S
H1871 N1858 0.985 . S
C1872 C1873 1.363 . S
C1872 C1878 1.379 . S
C1872 N1880 1.356 . S
C1873 C1872 1.363 . S
C1873 C1879 1.363 . S
C1874 C1875 1.363 . S
C1874 C1879 1.379 . S
C1874 N1881 1.356 . S
C1875 C1874 1.363 . S
C1875 C1878 1.363 . S
N1876 C1878 1.356 . S
N1876 H1888 0.984 . S
N1876 H1889 0.985 . S
N1877 C1879 1.356 . S
N1877 H1882 0.984 . S
N1877 H1883 0.985 . S
C1878 C1872 1.379 . S
C1878 C1875 1.363 . S
C1878 N1876 1.356 . S
C1879 C1873 1.363 . S
C1879 C1874 1.379 . S
C1879 N1877 1.356 . S
N1880 C1872 1.356 . S
N1880 H1886 0.984 . S
N1880 H1887 0.984 . S
N1881 C1874 1.356 . S
N1881 H1884 0.984 . S
N1881 H1885 0.985 . S
H1882 N1877 0.984 . S
H1883 N1877 0.985 . S
H1884 N1881 0.984 . S
H1885 N1881 0.985 . S
H1886 N1880 0.984 . S
H1887 N1880 0.984 . S
H1888 N1876 0.984 . S
H1889 N1876 0.985 . S
C1890 C1891 1.363 . S
C1890 C1896 1.379 . S
C1890 N1898 1.356 . S
C1891 C1890 1.363 . S
C1891 C1897 1.363 . S
C1892 C1893 1.363 . S
C1892 C1897 1.379 . S
C1892 N1899 1.356 . S
C1893 C1892 1.363 . S
C1893 C1896 1.363 . S
N1894 C1896 1.356 . S
N1894 H1906 0.984 . S
N1894 H1907 0.985 . S
N1895 C1897 1.356 . S
N1895 H1900 0.984 . S
N1895 H1901 0.985 . S
C1896 C1890 1.379 . S
C1896 C1893 1.363 . S
C1896 N1894 1.356 . S
C1897 C1891 1.363 . S
C1897 C1892 1.379 . S
C1897 N1895 1.356 . S
N1898 C1890 1.356 . S
N1898 H1904 0.984 . S
N1898 H1905 0.984 . S
N1899 C1892 1.356 . S
N1899 H1902 0.984 . S
N1899 H1903 0.985 . S
H1900 N1895 0.984 . S
H1901 N1895 0.985 . S
H1902 N1899 0.984 . S
H1903 N1899 0.985 . S
H1904 N1898 0.984 . S
H1905 N1898 0.984 . S
H1906 N1894 0.984 . S
H1907 N1894 0.985 . S
C1908 C1909 1.363 . S
C1908 C1914 1.379 . S
C1908 N1916 1.356 . S
C1909 C1908 1.363 . S
C1909 C1915 1.363 . S
C1910 C1911 1.363 . S
C1910 C1915 1.379 . S
C1910 N1917 1.356 . S
C1911 C1910 1.363 . S
C1911 C1914 1.363 . S
N1912 C1914 1.356 . S
N1912 H1924 0.984 . S
N1912 H1925 0.985 . S
N1913 C1915 1.356 . S
N1913 H1918 0.984 . S
N1913 H1919 0.985 . S
C1914 C1908 1.379 . S
C1914 C1911 1.363 . S
C1914 N1912 1.356 . S
C1915 C1909 1.363 . S
C1915 C1910 1.379 . S
C1915 N1913 1.356 . S
N1916 C1908 1.356 . S
N1916 H1922 0.984 . S
N1916 H1923 0.984 . S
N1917 C1910 1.356 . S
N1917 H1920 0.984 . S
N1917 H1921 0.985 . S
H1918 N1913 0.984 . S
H1919 N1913 0.985 . S
H1920 N1917 0.984 . S
H1921 N1917 0.985 . S
H1922 N1916 0.984 . S
H1923 N1916 0.984 . S
H1924 N1912 0.984 . S
H1925 N1912 0.985 . S
C1926 C1927 1.363 . S
C1926 C1932 1.379 . S
C1926 N1934 1.356 . S
C1927 C1926 1.363 . S
C1927 C1933 1.363 1_556 S
C1928 C1929 1.363 1_554 S
C1928 C1933 1.379 . S
C1928 N1935 1.356 . S
C1929 C1928 1.363 1_556 S
C1929 C1932 1.363 . S
N1930 C1932 1.356 . S
N1930 H1942 0.984 . S
N1930 H1943 0.985 . S
N1931 C1933 1.356 . S
N1931 H1936 0.984 . S
N1931 H1937 0.985 . S
C1932 C1926 1.379 . S
C1932 C1929 1.363 . S
C1932 N1930 1.356 . S
C1933 C1927 1.363 1_554 S
C1933 C1928 1.379 . S
C1933 N1931 1.356 . S
N1934 C1926 1.356 . S
N1934 H1940 0.984 . S
N1934 H1941 0.984 . S
N1935 C1928 1.356 . S
N1935 H1938 0.984 . S
N1935 H1939 0.985 . S
H1936 N1931 0.984 . S
H1937 N1931 0.985 . S
H1938 N1935 0.984 . S
H1939 N1935 0.985 . S
H1940 N1934 0.984 . S
H1941 N1934 0.984 . S
H1942 N1930 0.984 . S
H1943 N1930 0.985 . S
C1944 C1945 1.363 . S
C1944 C1950 1.379 . S
C1944 N1952 1.356 . S
C1945 C1944 1.363 . S
C1945 C1951 1.363 1_556 S
C1946 C1947 1.363 1_554 S
C1946 C1951 1.379 . S
C1946 N1953 1.356 . S
C1947 C1946 1.363 1_556 S
C1947 C1950 1.363 . S
N1948 C1950 1.356 . S
N1948 H1960 0.984 . S
N1948 H1961 0.985 . S
N1949 C1951 1.356 . S
N1949 H1954 0.984 . S
N1949 H1955 0.985 . S
C1950 C1944 1.379 . S
C1950 C1947 1.363 . S
C1950 N1948 1.356 . S
C1951 C1945 1.363 1_554 S
C1951 C1946 1.379 . S
C1951 N1949 1.356 . S
N1952 C1944 1.356 . S
N1952 H1958 0.984 . S
N1952 H1959 0.984 . S
N1953 C1946 1.356 . S
N1953 H1956 0.984 . S
N1953 H1957 0.985 . S
H1954 N1949 0.984 . S
H1955 N1949 0.985 . S
H1956 N1953 0.984 . S
H1957 N1953 0.985 . S
H1958 N1952 0.984 . S
H1959 N1952 0.984 . S
H1960 N1948 0.984 . S
H1961 N1948 0.985 . S
C1962 C1963 1.363 1_554 S
C1962 C1968 1.379 . S
C1962 N1970 1.356 . S
C1963 C1962 1.363 1_556 S
C1963 C1969 1.363 . S
C1964 C1965 1.363 . S
C1964 C1969 1.379 . S
C1964 N1971 1.356 . S
C1965 C1964 1.363 . S
C1965 C1968 1.363 1_556 S
N1966 C1968 1.356 . S
N1966 H1978 0.984 . S
N1966 H1979 0.985 . S
N1967 C1969 1.356 . S
N1967 H1972 0.984 . S
N1967 H1973 0.985 . S
C1968 C1962 1.379 . S
C1968 C1965 1.363 1_554 S
C1968 N1966 1.356 . S
C1969 C1963 1.363 . S
C1969 C1964 1.379 . S
C1969 N1967 1.356 . S
N1970 C1962 1.356 . S
N1970 H1976 0.984 . S
N1970 H1977 0.984 . S
N1971 C1964 1.356 . S
N1971 H1974 0.984 . S
N1971 H1975 0.985 . S
H1972 N1967 0.984 . S
H1973 N1967 0.985 . S
H1974 N1971 0.984 . S
H1975 N1971 0.985 . S
H1976 N1970 0.984 . S
H1977 N1970 0.984 . S
H1978 N1966 0.984 . S
H1979 N1966 0.985 . S
C1980 C1981 1.363 . S
C1980 C1986 1.379 . S
C1980 N1988 1.356 . S
C1981 C1980 1.363 . S
C1981 C1987 1.363 . S
C1982 C1983 1.363 . S
C1982 C1987 1.379 . S
C1982 N1989 1.356 . S
C1983 C1982 1.363 . S
C1983 C1986 1.363 . S
N1984 C1986 1.356 . S
N1984 H1996 0.984 . S
N1984 H1997 0.985 . S
N1985 C1987 1.356 . S
N1985 H1990 0.984 . S
N1985 H1991 0.985 . S
C1986 C1980 1.379 . S
C1986 C1983 1.363 . S
C1986 N1984 1.356 . S
C1987 C1981 1.363 . S
C1987 C1982 1.379 . S
C1987 N1985 1.356 . S
N1988 C1980 1.356 . S
N1988 H1994 0.984 . S
N1988 H1995 0.984 . S
N1989 C1982 1.356 . S
N1989 H1992 0.984 . S
N1989 H1993 0.985 . S
H1990 N1985 0.984 . S
H1991 N1985 0.985 . S
H1992 N1989 0.984 . S
H1993 N1989 0.985 . S
H1994 N1988 0.984 . S
H1995 N1988 0.984 . S
H1996 N1984 0.984 . S
H1997 N1984 0.985 . S
C1998 C1999 1.363 . S
C1998 C2004 1.379 . S
C1998 N2006 1.356 . S
C1999 C1998 1.363 . S
C1999 C2005 1.363 . S
C2000 C2001 1.363 . S
C2000 C2005 1.379 . S
C2000 N2007 1.356 . S
C2001 C2000 1.363 . S
C2001 C2004 1.363 . S
N2002 C2004 1.356 . S
N2002 H2014 0.984 . S
N2002 H2015 0.985 . S
N2003 C2005 1.356 . S
N2003 H2008 0.984 . S
N2003 H2009 0.985 . S
C2004 C1998 1.379 . S
C2004 C2001 1.363 . S
C2004 N2002 1.356 . S
C2005 C1999 1.363 . S
C2005 C2000 1.379 . S
C2005 N2003 1.356 . S
N2006 C1998 1.356 . S
N2006 H2012 0.984 . S
N2006 H2013 0.984 . S
N2007 C2000 1.356 . S
N2007 H2010 0.984 . S
N2007 H2011 0.985 . S
H2008 N2003 0.984 . S
H2009 N2003 0.985 . S
H2010 N2007 0.984 . S
H2011 N2007 0.985 . S
H2012 N2006 0.984 . S
H2013 N2006 0.984 . S
H2014 N2002 0.984 . S
H2015 N2002 0.985 . S
C2016 C2017 1.363 . S
C2016 C2022 1.379 . S
C2016 N2024 1.356 . S
C2017 C2016 1.363 . S
C2017 C2023 1.363 . S
C2018 C2019 1.363 . S
C2018 C2023 1.379 . S
C2018 N2025 1.356 . S
C2019 C2018 1.363 . S
C2019 C2022 1.363 . S
N2020 C2022 1.356 . S
N2020 H2032 0.984 . S
N2020 H2033 0.985 . S
N2021 C2023 1.356 . S
N2021 H2026 0.984 . S
N2021 H2027 0.985 . S
C2022 C2016 1.379 . S
C2022 C2019 1.363 . S
C2022 N2020 1.356 . S
C2023 C2017 1.363 . S
C2023 C2018 1.379 . S
C2023 N2021 1.356 . S
N2024 C2016 1.356 . S
N2024 H2030 0.984 . S
N2024 H2031 0.984 . S
N2025 C2018 1.356 . S
N2025 H2028 0.984 . S
N2025 H2029 0.985 . S
H2026 N2021 0.984 . S
H2027 N2021 0.985 . S
H2028 N2025 0.984 . S
H2029 N2025 0.985 . S
H2030 N2024 0.984 . S
H2031 N2024 0.984 . S
H2032 N2020 0.984 . S
H2033 N2020 0.985 . S
C2034 C2035 1.363 . S
C2034 C2040 1.379 . S
C2034 N2042 1.356 . S
C2035 C2034 1.363 . S
C2035 C2041 1.363 . S
C2036 C2037 1.363 . S
C2036 C2041 1.379 . S
C2036 N2043 1.356 . S
C2037 C2036 1.363 . S
C2037 C2040 1.363 . S
N2038 C2040 1.356 . S
N2038 H2050 0.984 . S
N2038 H2051 0.985 . S
N2039 C2041 1.356 . S
N2039 H2044 0.984 . S
N2039 H2045 0.985 . S
C2040 C2034 1.379 . S
C2040 C2037 1.363 . S
C2040 N2038 1.356 . S
C2041 C2035 1.363 . S
C2041 C2036 1.379 . S
C2041 N2039 1.356 . S
N2042 C2034 1.356 . S
N2042 H2048 0.984 . S
N2042 H2049 0.984 . S
N2043 C2036 1.356 . S
N2043 H2046 0.984 . S
N2043 H2047 0.985 . S
H2044 N2039 0.984 . S
H2045 N2039 0.985 . S
H2046 N2043 0.984 . S
H2047 N2043 0.985 . S
H2048 N2042 0.984 . S
H2049 N2042 0.984 . S
H2050 N2038 0.984 . S
H2051 N2038 0.985 . S
C2052 C2053 1.363 . S
C2052 C2058 1.379 . S
C2052 N2060 1.356 . S
C2053 C2052 1.363 . S
C2053 C2059 1.363 . S
C2054 C2055 1.363 . S
C2054 C2059 1.379 . S
C2054 N2061 1.356 . S
C2055 C2054 1.363 . S
C2055 C2058 1.363 . S
N2056 C2058 1.356 . S
N2056 H2068 0.984 . S
N2056 H2069 0.985 . S
N2057 C2059 1.356 . S
N2057 H2062 0.984 . S
N2057 H2063 0.985 . S
C2058 C2052 1.379 . S
C2058 C2055 1.363 . S
C2058 N2056 1.356 . S
C2059 C2053 1.363 . S
C2059 C2054 1.379 . S
C2059 N2057 1.356 . S
N2060 C2052 1.356 . S
N2060 H2066 0.984 . S
N2060 H2067 0.984 . S
N2061 C2054 1.356 . S
N2061 H2064 0.984 . S
N2061 H2065 0.985 . S
H2062 N2057 0.984 . S
H2063 N2057 0.985 . S
H2064 N2061 0.984 . S
H2065 N2061 0.985 . S
H2066 N2060 0.984 . S
H2067 N2060 0.984 . S
H2068 N2056 0.984 . S
H2069 N2056 0.985 . S
C2070 C2071 1.363 . S
C2070 C2076 1.379 . S
C2070 N2078 1.356 . S
C2071 C2070 1.363 . S
C2071 C2077 1.363 . S
C2072 C2073 1.363 . S
C2072 C2077 1.379 . S
C2072 N2079 1.356 . S
C2073 C2072 1.363 . S
C2073 C2076 1.363 . S
N2074 C2076 1.356 . S
N2074 H2086 0.984 . S
N2074 H2087 0.985 . S
N2075 C2077 1.356 . S
N2075 H2080 0.984 . S
N2075 H2081 0.985 . S
C2076 C2070 1.379 . S
C2076 C2073 1.363 . S
C2076 N2074 1.356 . S
C2077 C2071 1.363 . S
C2077 C2072 1.379 . S
C2077 N2075 1.356 . S
N2078 C2070 1.356 . S
N2078 H2084 0.984 . S
N2078 H2085 0.984 . S
N2079 C2072 1.356 . S
N2079 H2082 0.984 . S
N2079 H2083 0.985 . S
H2080 N2075 0.984 . S
H2081 N2075 0.985 . S
H2082 N2079 0.984 . S
H2083 N2079 0.985 . S
H2084 N2078 0.984 . S
H2085 N2078 0.984 . S
H2086 N2074 0.984 . S
H2087 N2074 0.985 . S
C2088 C2089 1.363 . S
C2088 C2094 1.379 . S
C2088 N2096 1.356 . S
C2089 C2088 1.363 . S
C2089 C2095 1.363 . S
C2090 C2091 1.363 . S
C2090 C2095 1.379 . S
C2090 N2097 1.356 . S
C2091 C2090 1.363 . S
C2091 C2094 1.363 . S
N2092 C2094 1.356 . S
N2092 H2104 0.984 . S
N2092 H2105 0.985 . S
N2093 C2095 1.356 . S
N2093 H2098 0.984 . S
N2093 H2099 0.985 . S
C2094 C2088 1.379 . S
C2094 C2091 1.363 . S
C2094 N2092 1.356 . S
C2095 C2089 1.363 . S
C2095 C2090 1.379 . S
C2095 N2093 1.356 . S
N2096 C2088 1.356 . S
N2096 H2102 0.984 . S
N2096 H2103 0.984 . S
N2097 C2090 1.356 . S
N2097 H2100 0.984 . S
N2097 H2101 0.985 . S
H2098 N2093 0.984 . S
H2099 N2093 0.985 . S
H2100 N2097 0.984 . S
H2101 N2097 0.985 . S
H2102 N2096 0.984 . S
H2103 N2096 0.984 . S
H2104 N2092 0.984 . S
H2105 N2092 0.985 . S
C2106 C2107 1.363 . S
C2106 C2112 1.379 . S
C2106 N2114 1.356 . S
C2107 C2106 1.363 . S
C2107 C2113 1.363 1_565 S
C2108 C2109 1.363 . S
C2108 C2113 1.379 1_565 S
C2108 N2115 1.356 . S
C2109 C2108 1.363 . S
C2109 C2112 1.363 . S
N2110 C2112 1.356 . S
N2110 H2122 0.984 . S
N2110 H2123 0.985 . S
N2111 C2113 1.356 . S
N2111 H2116 0.984 . S
N2111 H2117 0.985 . S
C2112 C2106 1.379 . S
C2112 C2109 1.363 . S
C2112 N2110 1.356 . S
C2113 C2107 1.363 1_545 S
C2113 C2108 1.379 1_545 S
C2113 N2111 1.356 . S
N2114 C2106 1.356 . S
N2114 H2120 0.984 . S
N2114 H2121 0.984 . S
N2115 C2108 1.356 . S
N2115 H2118 0.984 . S
N2115 H2119 0.985 1_565 S
H2116 N2111 0.984 . S
H2117 N2111 0.985 . S
H2118 N2115 0.984 . S
H2119 N2115 0.985 1_545 S
H2120 N2114 0.984 . S
H2121 N2114 0.984 . S
H2122 N2110 0.984 . S
H2123 N2110 0.985 . S
C2124 C2125 1.363 . S
C2124 C2130 1.379 . S
C2124 N2132 1.356 . S
C2125 C2124 1.363 . S
C2125 C2131 1.363 . S
C2126 C2127 1.363 1_655 S
C2126 C2131 1.379 1_655 S
C2126 N2133 1.356 . S
C2127 C2126 1.363 1_455 S
C2127 C2130 1.363 . S
N2128 C2130 1.356 . S
N2128 H2140 0.984 . S
N2128 H2141 0.985 . S
N2129 C2131 1.356 . S
N2129 H2134 0.984 . S
N2129 H2135 0.985 1_455 S
C2130 C2124 1.379 . S
C2130 C2127 1.363 . S
C2130 N2128 1.356 . S
C2131 C2125 1.363 . S
C2131 C2126 1.379 1_455 S
C2131 N2129 1.356 . S
N2132 C2124 1.356 . S
N2132 H2138 0.984 . S
N2132 H2139 0.984 . S
N2133 C2126 1.356 . S
N2133 H2136 0.984 . S
N2133 H2137 0.985 . S
H2134 N2129 0.984 . S
H2135 N2129 0.985 1_655 S
H2136 N2133 0.984 . S
H2137 N2133 0.985 . S
H2138 N2132 0.984 . S
H2139 N2132 0.984 . S
H2140 N2128 0.984 . S
H2141 N2128 0.985 . S
C2142 C2143 1.363 . S
C2142 C2148 1.379 . S
C2142 N2150 1.356 . S
C2143 C2142 1.363 . S
C2143 C2149 1.363 . S
C2144 C2145 1.363 . S
C2144 C2149 1.379 . S
C2144 N2151 1.356 . S
C2145 C2144 1.363 . S
C2145 C2148 1.363 . S
N2146 C2148 1.356 . S
N2146 H2158 0.984 . S
N2146 H2159 0.985 . S
N2147 C2149 1.356 . S
N2147 H2152 0.984 . S
N2147 H2153 0.985 . S
C2148 C2142 1.379 . S
C2148 C2145 1.363 . S
C2148 N2146 1.356 . S
C2149 C2143 1.363 . S
C2149 C2144 1.379 . S
C2149 N2147 1.356 . S
N2150 C2142 1.356 . S
N2150 H2156 0.984 . S
N2150 H2157 0.984 . S
N2151 C2144 1.356 . S
N2151 H2154 0.984 . S
N2151 H2155 0.985 . S
H2152 N2147 0.984 . S
H2153 N2147 0.985 . S
H2154 N2151 0.984 . S
H2155 N2151 0.985 . S
H2156 N2150 0.984 . S
H2157 N2150 0.984 . S
H2158 N2146 0.984 . S
H2159 N2146 0.985 . S
C2160 C2161 1.363 . S
C2160 C2166 1.379 . S
C2160 N2168 1.356 1_545 S
C2161 C2160 1.363 . S
C2161 C2167 1.363 . S
C2162 C2163 1.363 . S
C2162 C2167 1.379 . S
C2162 N2169 1.356 . S
C2163 C2162 1.363 . S
C2163 C2166 1.363 . S
N2164 C2166 1.356 . S
N2164 H2176 0.984 . S
N2164 H2177 0.985 . S
N2165 C2167 1.356 . S
N2165 H2170 0.984 . S
N2165 H2171 0.985 . S
C2166 C2160 1.379 . S
C2166 C2163 1.363 . S
C2166 N2164 1.356 . S
C2167 C2161 1.363 . S
C2167 C2162 1.379 . S
C2167 N2165 1.356 . S
N2168 C2160 1.356 1_565 S
N2168 H2174 0.984 . S
N2168 H2175 0.984 . S
N2169 C2162 1.356 . S
N2169 H2172 0.984 . S
N2169 H2173 0.985 . S
H2170 N2165 0.984 . S
H2171 N2165 0.985 . S
H2172 N2169 0.984 . S
H2173 N2169 0.985 . S
H2174 N2168 0.984 . S
H2175 N2168 0.984 . S
H2176 N2164 0.984 . S
H2177 N2164 0.985 . S
C2178 C2179 1.363 . S
C2178 C2184 1.379 1_655 S
C2178 N2186 1.356 1_655 S
C2179 C2178 1.363 . S
C2179 C2185 1.363 . S
C2180 C2181 1.363 . S
C2180 C2185 1.379 . S
C2180 N2187 1.356 . S
C2181 C2180 1.363 . S
C2181 C2184 1.363 1_655 S
N2182 C2184 1.356 . S
N2182 H2194 0.984 . S
N2182 H2195 0.985 . S
N2183 C2185 1.356 . S
N2183 H2188 0.984 . S
N2183 H2189 0.985 . S
C2184 C2178 1.379 1_455 S
C2184 C2181 1.363 1_455 S
C2184 N2182 1.356 . S
C2185 C2179 1.363 . S
C2185 C2180 1.379 . S
C2185 N2183 1.356 . S
N2186 C2178 1.356 1_455 S
N2186 H2192 0.984 . S
N2186 H2193 0.984 1_455 S
N2187 C2180 1.356 . S
N2187 H2190 0.984 . S
N2187 H2191 0.985 . S
H2188 N2183 0.984 . S
H2189 N2183 0.985 . S
H2190 N2187 0.984 . S
H2191 N2187 0.985 . S
H2192 N2186 0.984 . S
H2193 N2186 0.984 1_655 S
H2194 N2182 0.984 . S
H2195 N2182 0.985 . S
C2196 C2197 1.363 . S
C2196 C2202 1.379 . S
C2196 N2204 1.356 . S
C2197 C2196 1.363 . S
C2197 C2203 1.363 . S
C2198 C2199 1.363 . S
C2198 C2203 1.379 . S
C2198 N2205 1.356 . S
C2199 C2198 1.363 . S
C2199 C2202 1.363 . S
N2200 C2202 1.356 . S
N2200 H2212 0.984 . S
N2200 H2213 0.985 . S
N2201 C2203 1.356 . S
N2201 H2206 0.984 . S
N2201 H2207 0.985 . S
C2202 C2196 1.379 . S
C2202 C2199 1.363 . S
C2202 N2200 1.356 . S
C2203 C2197 1.363 . S
C2203 C2198 1.379 . S
C2203 N2201 1.356 . S
N2204 C2196 1.356 . S
N2204 H2210 0.984 . S
N2204 H2211 0.984 . S
N2205 C2198 1.356 . S
N2205 H2208 0.984 . S
N2205 H2209 0.985 . S
H2206 N2201 0.984 . S
H2207 N2201 0.985 . S
H2208 N2205 0.984 . S
H2209 N2205 0.985 . S
H2210 N2204 0.984 . S
H2211 N2204 0.984 . S
H2212 N2200 0.984 . S
H2213 N2200 0.985 . S
C2214 C2215 1.363 . S
C2214 C2220 1.379 . S
C2214 N2222 1.356 . S
C2215 C2214 1.363 . S
C2215 C2221 1.363 . S
C2216 C2217 1.363 1_565 S
C2216 C2221 1.379 1_565 S
C2216 N2223 1.356 . S
C2217 C2216 1.363 1_545 S
C2217 C2220 1.363 . S
N2218 C2220 1.356 . S
N2218 H2230 0.984 . S
N2218 H2231 0.985 . S
N2219 C2221 1.356 1_565 S
N2219 H2224 0.984 1_565 S
N2219 H2225 0.985 . S
C2220 C2214 1.379 . S
C2220 C2217 1.363 . S
C2220 N2218 1.356 . S
C2221 C2215 1.363 . S
C2221 C2216 1.379 1_545 S
C2221 N2219 1.356 1_545 S
N2222 C2214 1.356 . S
N2222 H2228 0.984 . S
N2222 H2229 0.984 . S
N2223 C2216 1.356 . S
N2223 H2226 0.984 . S
N2223 H2227 0.985 . S
H2224 N2219 0.984 1_545 S
H2225 N2219 0.985 . S
H2226 N2223 0.984 . S
H2227 N2223 0.985 . S
H2228 N2222 0.984 . S
H2229 N2222 0.984 . S
H2230 N2218 0.984 . S
H2231 N2218 0.985 . S
C2232 C2233 1.363 . S
C2232 C2238 1.379 . S
C2232 N2240 1.356 . S
C2233 C2232 1.363 . S
C2233 C2239 1.363 . S
C2234 C2235 1.363 1_455 S
C2234 C2239 1.379 1_455 S
C2234 N2241 1.356 . S
C2235 C2234 1.363 1_655 S
C2235 C2238 1.363 . S
N2236 C2238 1.356 . S
N2236 H2248 0.984 . S
N2236 H2249 0.985 . S
N2237 C2239 1.356 . S
N2237 H2242 0.984 . S
N2237 H2243 0.985 1_655 S
C2238 C2232 1.379 . S
C2238 C2235 1.363 . S
C2238 N2236 1.356 . S
C2239 C2233 1.363 . S
C2239 C2234 1.379 1_655 S
C2239 N2237 1.356 . S
N2240 C2232 1.356 . S
N2240 H2246 0.984 . S
N2240 H2247 0.984 . S
N2241 C2234 1.356 . S
N2241 H2244 0.984 . S
N2241 H2245 0.985 . S
H2242 N2237 0.984 . S
H2243 N2237 0.985 1_455 S
H2244 N2241 0.984 . S
H2245 N2241 0.985 . S
H2246 N2240 0.984 . S
H2247 N2240 0.984 . S
H2248 N2236 0.984 . S
H2249 N2236 0.985 . S
C2250 C2251 1.363 . S
C2250 C2256 1.379 . S
C2250 N2258 1.356 . S
C2251 C2250 1.363 . S
C2251 C2257 1.363 . S
C2252 C2253 1.363 . S
C2252 C2257 1.379 . S
C2252 N2259 1.356 . S
C2253 C2252 1.363 . S
C2253 C2256 1.363 . S
N2254 C2256 1.356 . S
N2254 H2266 0.984 . S
N2254 H2267 0.985 . S
N2255 C2257 1.356 . S
N2255 H2260 0.984 . S
N2255 H2261 0.985 . S
C2256 C2250 1.379 . S
C2256 C2253 1.363 . S
C2256 N2254 1.356 . S
C2257 C2251 1.363 . S
C2257 C2252 1.379 . S
C2257 N2255 1.356 . S
N2258 C2250 1.356 . S
N2258 H2264 0.984 . S
N2258 H2265 0.984 . S
N2259 C2252 1.356 . S
N2259 H2262 0.984 . S
N2259 H2263 0.985 . S
H2260 N2255 0.984 . S
H2261 N2255 0.985 . S
H2262 N2259 0.984 . S
H2263 N2259 0.985 . S
H2264 N2258 0.984 . S
H2265 N2258 0.984 . S
H2266 N2254 0.984 . S
H2267 N2254 0.985 . S
C2268 C2269 1.363 1_545 S
C2268 C2274 1.379 1_545 S
C2268 N2276 1.356 . S
C2269 C2268 1.363 1_565 S
C2269 C2275 1.363 . S
C2270 C2271 1.363 . S
C2270 C2275 1.379 . S
C2270 N2277 1.356 . S
C2271 C2270 1.363 . S
C2271 C2274 1.363 . S
N2272 C2274 1.356 . S
N2272 H2284 0.984 1_565 S
N2272 H2285 0.985 . S
N2273 C2275 1.356 . S
N2273 H2278 0.984 . S
N2273 H2279 0.985 . S
C2274 C2268 1.379 1_565 S
C2274 C2271 1.363 . S
C2274 N2272 1.356 . S
C2275 C2269 1.363 . S
C2275 C2270 1.379 . S
C2275 N2273 1.356 . S
N2276 C2268 1.356 . S
N2276 H2282 0.984 . S
N2276 H2283 0.984 . S
N2277 C2270 1.356 . S
N2277 H2280 0.984 . S
N2277 H2281 0.985 . S
H2278 N2273 0.984 . S
H2279 N2273 0.985 . S
H2280 N2277 0.984 . S
H2281 N2277 0.985 . S
H2282 N2276 0.984 . S
H2283 N2276 0.984 . S
H2284 N2272 0.984 1_545 S
H2285 N2272 0.985 . S
C2286 C2287 1.363 . S
C2286 C2292 1.379 . S
C2286 N2294 1.356 . S
C2287 C2286 1.363 . S
C2287 C2293 1.363 1_455 S
C2288 C2289 1.363 . S
C2288 C2293 1.379 1_455 S
C2288 N2295 1.356 . S
C2289 C2288 1.363 . S
C2289 C2292 1.363 . S
N2290 C2292 1.356 . S
N2290 H2302 0.984 . S
N2290 H2303 0.985 . S
N2291 C2293 1.356 . S
N2291 H2296 0.984 . S
N2291 H2297 0.985 . S
C2292 C2286 1.379 . S
C2292 C2289 1.363 . S
C2292 N2290 1.356 . S
C2293 C2287 1.363 1_655 S
C2293 C2288 1.379 1_655 S
C2293 N2291 1.356 . S
N2294 C2286 1.356 . S
N2294 H2300 0.984 . S
N2294 H2301 0.984 . S
N2295 C2288 1.356 . S
N2295 H2298 0.984 . S
N2295 H2299 0.985 1_455 S
H2296 N2291 0.984 . S
H2297 N2291 0.985 . S
H2298 N2295 0.984 . S
H2299 N2295 0.985 1_655 S
H2300 N2294 0.984 . S
H2301 N2294 0.984 . S
H2302 N2290 0.984 . S
H2303 N2290 0.985 . S
C2304 C2305 1.363 1_455 S
C2304 C2310 1.379 . S
C2304 N2312 1.356 1_455 S
C2305 C2304 1.363 1_655 S
C2305 C2311 1.363 1_655 S
C2306 C2307 1.363 . S
C2306 C2311 1.379 . S
C2306 N2313 1.356 . S
C2307 C2306 1.363 . S
C2307 C2310 1.363 . S
N2308 C2310 1.356 . S
N2308 H2320 0.984 . S
N2308 H2321 0.985 . S
N2309 C2311 1.356 1_655 S
N2309 H2314 0.984 . S
N2309 H2315 0.985 . S
C2310 C2304 1.379 . S
C2310 C2307 1.363 . S
C2310 N2308 1.356 . S
C2311 C2305 1.363 1_455 S
C2311 C2306 1.379 . S
C2311 N2309 1.356 1_455 S
N2312 C2304 1.356 1_655 S
N2312 H2318 0.984 . S
N2312 H2319 0.984 . S
N2313 C2306 1.356 . S
N2313 H2316 0.984 . S
N2313 H2317 0.985 . S
H2314 N2309 0.984 . S
H2315 N2309 0.985 . S
H2316 N2313 0.984 . S
H2317 N2313 0.985 . S
H2318 N2312 0.984 . S
H2319 N2312 0.984 . S
H2320 N2308 0.984 . S
H2321 N2308 0.985 . S
C2322 C2323 1.363 . S
C2322 C2328 1.379 . S
C2322 N2330 1.356 . S
C2323 C2322 1.363 . S
C2323 C2329 1.363 . S
C2324 C2325 1.363 . S
C2324 C2329 1.379 . S
C2324 N2331 1.356 . S
C2325 C2324 1.363 . S
C2325 C2328 1.363 . S
N2326 C2328 1.356 . S
N2326 H2338 0.984 . S
N2326 H2339 0.985 . S
N2327 C2329 1.356 . S
N2327 H2332 0.984 . S
N2327 H2333 0.985 . S
C2328 C2322 1.379 . S
C2328 C2325 1.363 . S
C2328 N2326 1.356 . S
C2329 C2323 1.363 . S
C2329 C2324 1.379 . S
C2329 N2327 1.356 . S
N2330 C2322 1.356 . S
N2330 H2336 0.984 . S
N2330 H2337 0.984 . S
N2331 C2324 1.356 . S
N2331 H2334 0.984 . S
N2331 H2335 0.985 . S
H2332 N2327 0.984 . S
H2333 N2327 0.985 . S
H2334 N2331 0.984 . S
H2335 N2331 0.985 . S
H2336 N2330 0.984 . S
H2337 N2330 0.984 . S
H2338 N2326 0.984 . S
H2339 N2326 0.985 . S
C2340 C2341 1.363 . S
C2340 C2346 1.379 . S
C2340 N2348 1.356 . S
C2341 C2340 1.363 . S
C2341 C2347 1.363 . S
C2342 C2343 1.363 . S
C2342 C2347 1.379 1_545 S
C2342 N2349 1.356 . S
C2343 C2342 1.363 . S
C2343 C2346 1.363 1_545 S
N2344 C2346 1.356 1_545 S
N2344 H2356 0.984 . S
N2344 H2357 0.985 . S
N2345 C2347 1.356 . S
N2345 H2350 0.984 . S
N2345 H2351 0.985 . S
C2346 C2340 1.379 . S
C2346 C2343 1.363 1_565 S
C2346 N2344 1.356 1_565 S
C2347 C2341 1.363 . S
C2347 C2342 1.379 1_565 S
C2347 N2345 1.356 . S
N2348 C2340 1.356 . S
N2348 H2354 0.984 . S
N2348 H2355 0.984 . S
N2349 C2342 1.356 . S
N2349 H2352 0.984 . S
N2349 H2353 0.985 . S
H2350 N2345 0.984 . S
H2351 N2345 0.985 . S
H2352 N2349 0.984 . S
H2353 N2349 0.985 . S
H2354 N2348 0.984 . S
H2355 N2348 0.984 . S
H2356 N2344 0.984 . S
H2357 N2344 0.985 . S
C2358 C2359 1.363 . S
C2358 C2364 1.379 . S
C2358 N2366 1.356 . S
C2359 C2358 1.363 . S
C2359 C2365 1.363 . S
C2360 C2361 1.363 . S
C2360 C2365 1.379 . S
C2360 N2367 1.356 1_455 S
C2361 C2360 1.363 . S
C2361 C2364 1.363 . S
N2362 C2364 1.356 . S
N2362 H2374 0.984 . S
N2362 H2375 0.985 . S
N2363 C2365 1.356 . S
N2363 H2368 0.984 . S
N2363 H2369 0.985 . S
C2364 C2358 1.379 . S
C2364 C2361 1.363 . S
C2364 N2362 1.356 . S
C2365 C2359 1.363 . S
C2365 C2360 1.379 . S
C2365 N2363 1.356 . S
N2366 C2358 1.356 . S
N2366 H2372 0.984 . S
N2366 H2373 0.984 . S
N2367 C2360 1.356 1_655 S
N2367 H2370 0.984 . S
N2367 H2371 0.985 . S
H2368 N2363 0.984 . S
H2369 N2363 0.985 . S
H2370 N2367 0.984 . S
H2371 N2367 0.985 . S
H2372 N2366 0.984 . S
H2373 N2366 0.984 . S
H2374 N2362 0.984 . S
H2375 N2362 0.985 . S
C2376 C2377 1.363 . S
C2376 C2382 1.379 . S
C2376 N2384 1.356 . S
C2377 C2376 1.363 . S
C2377 C2383 1.363 . S
C2378 C2379 1.363 . S
C2378 C2383 1.379 . S
C2378 N2385 1.356 . S
C2379 C2378 1.363 . S
C2379 C2382 1.363 . S
N2380 C2382 1.356 . S
N2380 H2392 0.984 . S
N2380 H2393 0.985 . S
N2381 C2383 1.356 . S
N2381 H2386 0.984 . S
N2381 H2387 0.985 . S
C2382 C2376 1.379 . S
C2382 C2379 1.363 . S
C2382 N2380 1.356 . S
C2383 C2377 1.363 . S
C2383 C2378 1.379 . S
C2383 N2381 1.356 . S
N2384 C2376 1.356 . S
N2384 H2390 0.984 . S
N2384 H2391 0.984 . S
N2385 C2378 1.356 . S
N2385 H2388 0.984 . S
N2385 H2389 0.985 . S
H2386 N2381 0.984 . S
H2387 N2381 0.985 . S
H2388 N2385 0.984 . S
H2389 N2385 0.985 . S
H2390 N2384 0.984 . S
H2391 N2384 0.984 . S
H2392 N2380 0.984 . S
H2393 N2380 0.985 . S
C2394 C2395 1.363 . S
C2394 C2400 1.379 . S
C2394 N2402 1.356 . S
C2395 C2394 1.363 . S
C2395 C2401 1.363 . S
C2396 C2397 1.363 . S
C2396 C2401 1.379 . S
C2396 N2403 1.356 . S
C2397 C2396 1.363 . S
C2397 C2400 1.363 . S
N2398 C2400 1.356 . S
N2398 H2410 0.987 1_565 S
N2398 H2411 0.985 1_565 S
N2399 C2401 1.356 . S
N2399 H2404 0.984 . S
N2399 H2405 0.985 . S
C2400 C2394 1.379 . S
C2400 C2397 1.363 . S
C2400 N2398 1.356 . S
C2401 C2395 1.363 . S
C2401 C2396 1.379 . S
C2401 N2399 1.356 . S
N2402 C2394 1.356 . S
N2402 H2408 0.984 . S
N2402 H2409 0.984 . S
N2403 C2396 1.356 . S
N2403 H2406 0.984 . S
N2403 H2407 0.985 . S
H2404 N2399 0.984 . S
H2405 N2399 0.985 . S
H2406 N2403 0.984 . S
H2407 N2403 0.985 . S
H2408 N2402 0.984 . S
H2409 N2402 0.984 . S
H2410 N2398 0.987 1_545 S
H2411 N2398 0.985 1_545 S
C2412 C2413 1.363 . S
C2412 C2418 1.379 . S
C2412 N2420 1.356 . S
C2413 C2412 1.363 . S
C2413 C2419 1.363 . S
C2414 C2415 1.363 . S
C2414 C2419 1.379 . S
C2414 N2421 1.356 . S
C2415 C2414 1.363 . S
C2415 C2418 1.363 . S
N2416 C2418 1.356 1_545 S
N2416 H2428 0.984 . S
N2416 H2429 0.985 . S
N2417 C2419 1.356 . S
N2417 H2422 0.984 . S
N2417 H2423 0.985 . S
C2418 C2412 1.379 . S
C2418 C2415 1.363 . S
C2418 N2416 1.356 1_565 S
C2419 C2413 1.363 . S
C2419 C2414 1.379 . S
C2419 N2417 1.356 . S
N2420 C2412 1.356 . S
N2420 H2426 0.984 . S
N2420 H2427 0.984 . S
N2421 C2414 1.356 . S
N2421 H2424 0.984 . S
N2421 H2425 0.985 . S
H2422 N2417 0.984 . S
H2423 N2417 0.985 . S
H2424 N2421 0.984 . S
H2425 N2421 0.985 . S
H2426 N2420 0.984 . S
H2427 N2420 0.984 . S
H2428 N2416 0.984 . S
H2429 N2416 0.985 . S
C2430 C2431 1.363 . S
C2430 C2436 1.379 . S
C2430 N2438 1.356 . S
C2431 C2430 1.363 . S
C2431 C2437 1.363 . S
C2432 C2433 1.363 . S
C2432 C2437 1.379 . S
C2432 N2439 1.356 . S
C2433 C2432 1.363 . S
C2433 C2436 1.363 . S
N2434 C2436 1.356 . S
N2434 H2446 0.984 . S
N2434 H2447 0.985 . S
N2435 C2437 1.356 1_655 S
N2435 H2440 0.984 . S
N2435 H2441 0.985 . S
C2436 C2430 1.379 . S
C2436 C2433 1.363 . S
C2436 N2434 1.356 . S
C2437 C2431 1.363 . S
C2437 C2432 1.379 . S
C2437 N2435 1.356 1_455 S
N2438 C2430 1.356 . S
N2438 H2444 0.984 . S
N2438 H2445 0.984 . S
N2439 C2432 1.356 . S
N2439 H2442 0.984 . S
N2439 H2443 0.985 . S
H2440 N2435 0.984 . S
H2441 N2435 0.985 . S
H2442 N2439 0.984 . S
H2443 N2439 0.985 . S
H2444 N2438 0.984 . S
H2445 N2438 0.984 . S
H2446 N2434 0.984 . S
H2447 N2434 0.985 . S
C2448 C2449 1.363 . S
C2448 C2454 1.379 . S
C2448 N2456 1.356 . S
C2449 C2448 1.363 . S
C2449 C2455 1.363 . S
C2450 C2451 1.363 . S
C2450 C2455 1.379 . S
C2450 N2457 1.356 . S
C2451 C2450 1.363 . S
C2451 C2454 1.363 . S
N2452 C2454 1.356 . S
N2452 H2464 0.984 . S
N2452 H2465 0.985 . S
N2453 C2455 1.356 . S
N2453 H2458 0.984 . S
N2453 H2459 0.985 . S
C2454 C2448 1.379 . S
C2454 C2451 1.363 . S
C2454 N2452 1.356 . S
C2455 C2449 1.363 . S
C2455 C2450 1.379 . S
C2455 N2453 1.356 . S
N2456 C2448 1.356 . S
N2456 H2462 0.984 . S
N2456 H2463 0.984 . S
N2457 C2450 1.356 . S
N2457 H2460 0.984 . S
N2457 H2461 0.985 . S
H2458 N2453 0.984 . S
H2459 N2453 0.985 . S
H2460 N2457 0.984 . S
H2461 N2457 0.985 . S
H2462 N2456 0.984 . S
H2463 N2456 0.984 . S
H2464 N2452 0.984 . S
H2465 N2452 0.985 . S
C2466 C2467 1.346 1_554 S
C2466 C2472 1.379 1_565 S
C2466 N2474 1.356 . S
C2467 C2466 1.346 1_556 S
C2467 C2473 1.385 . S
C2468 C2469 1.363 1_565 S
C2468 C2473 1.379 . S
C2468 N2475 1.356 1_565 S
C2469 C2468 1.363 1_545 S
C2469 C2472 1.363 1_556 S
N2470 C2472 1.356 . S
N2470 H2482 0.984 . S
N2470 H2483 0.985 . S
N2471 C2473 1.356 . S
N2471 H2476 0.984 . S
N2471 H2477 0.985 . S
C2472 C2466 1.379 1_545 S
C2472 C2469 1.363 1_554 S
C2472 N2470 1.356 . S
C2473 C2467 1.385 . S
C2473 C2468 1.379 . S
C2473 N2471 1.356 . S
N2474 C2466 1.356 . S
N2474 H2480 0.984 . S
N2474 H2481 0.984 . S
N2475 C2468 1.356 1_545 S
N2475 H2478 0.984 . S
N2475 H2479 0.985 . S
H2476 N2471 0.984 . S
H2477 N2471 0.985 . S
H2478 N2475 0.984 . S
H2479 N2475 0.985 . S
H2480 N2474 0.984 . S
H2481 N2474 0.984 . S
H2482 N2470 0.984 . S
H2483 N2470 0.985 . S
C2484 C2485 1.387 . S
C2484 C2490 1.379 . S
C2484 N2492 1.356 . S
C2485 C2484 1.387 . S
C2485 C2491 1.345 1_556 S
C2486 C2487 1.363 1_554 S
C2486 C2491 1.379 1_655 S
C2486 N2493 1.356 . S
C2487 C2486 1.363 1_556 S
C2487 C2490 1.363 1_655 S
N2488 C2490 1.356 1_655 S
N2488 H2500 0.984 . S
N2488 H2501 0.985 . S
N2489 C2491 1.356 . S
N2489 H2494 0.984 . S
N2489 H2495 0.985 . S
C2490 C2484 1.379 . S
C2490 C2487 1.363 1_455 S
C2490 N2488 1.356 1_455 S
C2491 C2485 1.345 1_554 S
C2491 C2486 1.379 1_455 S
C2491 N2489 1.356 . S
N2492 C2484 1.356 . S
N2492 H2498 0.984 . S
N2492 H2499 0.984 . S
N2493 C2486 1.356 . S
N2493 H2496 0.984 . S
N2493 H2497 0.985 . S
H2494 N2489 0.984 . S
H2495 N2489 0.985 . S
H2496 N2493 0.984 . S
H2497 N2493 0.985 . S
H2498 N2492 0.984 . S
H2499 N2492 0.984 . S
H2500 N2488 0.984 . S
H2501 N2488 0.985 . S
C2502 C2503 1.363 . S
C2502 C2508 1.379 . S
C2502 N2510 1.356 . S
C2503 C2502 1.363 . S
C2503 C2509 1.363 1_556 S
C2504 C2505 1.335 1_554 S
C2504 C2509 1.379 . S
C2504 N2511 1.356 . S
C2505 C2504 1.335 1_556 S
C2505 C2508 1.402 . S
N2506 C2508 1.356 . S
N2506 H2518 0.984 . S
N2506 H2519 0.985 . S
N2507 C2509 1.356 . S
N2507 H2512 0.984 . S
N2507 H2513 0.985 . S
C2508 C2502 1.379 . S
C2508 C2505 1.402 . S
C2508 N2506 1.356 . S
C2509 C2503 1.363 1_554 S
C2509 C2504 1.379 . S
C2509 N2507 1.356 . S
N2510 C2502 1.356 . S
N2510 H2516 0.984 . S
N2510 H2517 0.984 . S
N2511 C2504 1.356 . S
N2511 H2514 0.984 . S
N2511 H2515 0.985 . S
H2512 N2507 0.984 . S
H2513 N2507 0.985 . S
H2514 N2511 0.984 . S
H2515 N2511 0.985 . S
H2516 N2510 0.984 . S
H2517 N2510 0.984 . S
H2518 N2506 0.984 . S
H2519 N2506 0.985 . S
C2520 C2521 1.363 . S
C2520 C2526 1.379 . S
C2520 N2528 1.356 . S
C2521 C2520 1.363 . S
C2521 C2527 1.363 . S
C2522 C2523 1.363 . S
C2522 C2527 1.379 . S
C2522 N2529 1.356 . S
C2523 C2522 1.363 . S
C2523 C2526 1.363 . S
N2524 C2526 1.356 1_565 S
N2524 H2536 0.984 . S
N2524 H2537 0.985 . S
N2525 C2527 1.356 . S
N2525 H2530 0.984 . S
N2525 H2531 0.985 . S
C2526 C2520 1.379 . S
C2526 C2523 1.363 . S
C2526 N2524 1.356 1_545 S
C2527 C2521 1.363 . S
C2527 C2522 1.379 . S
C2527 N2525 1.356 . S
N2528 C2520 1.356 . S
N2528 H2534 0.984 . S
N2528 H2535 0.984 . S
N2529 C2522 1.356 . S
N2529 H2532 0.984 . S
N2529 H2533 0.985 . S
H2530 N2525 0.984 . S
H2531 N2525 0.985 . S
H2532 N2529 0.984 . S
H2533 N2529 0.985 . S
H2534 N2528 0.984 . S
H2535 N2528 0.984 . S
H2536 N2524 0.984 . S
H2537 N2524 0.985 . S
C2538 C2539 1.363 . S
C2538 C2544 1.379 . S
C2538 N2546 1.356 . S
C2539 C2538 1.363 . S
C2539 C2545 1.363 . S
C2540 C2541 1.363 . S
C2540 C2545 1.379 . S
C2540 N2547 1.356 1_655 S
C2541 C2540 1.363 . S
C2541 C2544 1.363 . S
N2542 C2544 1.356 . S
N2542 H2554 0.984 . S
N2542 H2555 0.985 . S
N2543 C2545 1.356 . S
N2543 H2548 0.984 . S
N2543 H2549 0.985 . S
C2544 C2538 1.379 . S
C2544 C2541 1.363 . S
C2544 N2542 1.356 . S
C2545 C2539 1.363 . S
C2545 C2540 1.379 . S
C2545 N2543 1.356 . S
N2546 C2538 1.356 . S
N2546 H2552 0.984 . S
N2546 H2553 0.984 . S
N2547 C2540 1.356 1_455 S
N2547 H2550 0.984 . S
N2547 H2551 0.985 . S
H2548 N2543 0.984 . S
H2549 N2543 0.985 . S
H2550 N2547 0.984 . S
H2551 N2547 0.985 . S
H2552 N2546 0.984 . S
H2553 N2546 0.984 . S
H2554 N2542 0.984 . S
H2555 N2542 0.985 . S
C2556 C2557 1.363 . S
C2556 C2562 1.379 . S
C2556 N2564 1.356 . S
C2557 C2556 1.363 . S
C2557 C2563 1.363 . S
C2558 C2559 1.363 . S
C2558 C2563 1.379 . S
C2558 N2565 1.356 . S
C2559 C2558 1.363 . S
C2559 C2562 1.363 . S
N2560 C2562 1.356 . S
N2560 H2572 0.984 . S
N2560 H2573 0.985 . S
N2561 C2563 1.356 . S
N2561 H2566 0.984 . S
N2561 H2567 0.985 . S
C2562 C2556 1.379 . S
C2562 C2559 1.363 . S
C2562 N2560 1.356 . S
C2563 C2557 1.363 . S
C2563 C2558 1.379 . S
C2563 N2561 1.356 . S
N2564 C2556 1.356 . S
N2564 H2570 0.984 . S
N2564 H2571 0.984 . S
N2565 C2558 1.356 . S
N2565 H2568 0.984 . S
N2565 H2569 0.985 . S
H2566 N2561 0.984 . S
H2567 N2561 0.985 . S
H2568 N2565 0.984 . S
H2569 N2565 0.985 . S
H2570 N2564 0.984 . S
H2571 N2564 0.984 . S
H2572 N2560 0.984 . S
H2573 N2560 0.985 . S
C2574 C2575 1.363 1_556 S
C2574 C2580 1.379 1_565 S
C2574 N2582 1.356 . S
C2575 C2574 1.363 1_554 S
C2575 C2581 1.363 1_565 S
C2576 C2577 1.402 . S
C2576 C2581 1.379 . S
C2576 N2583 1.356 . S
C2577 C2576 1.402 . S
C2577 C2580 1.334 1_554 S
N2578 C2580 1.356 . S
N2578 H2590 0.984 . S
N2578 H2591 0.985 . S
N2579 C2581 1.356 1_565 S
N2579 H2584 0.984 . S
N2579 H2585 0.985 . S
C2580 C2574 1.379 1_545 S
C2580 C2577 1.334 1_556 S
C2580 N2578 1.356 . S
C2581 C2575 1.363 1_545 S
C2581 C2576 1.379 . S
C2581 N2579 1.356 1_545 S
N2582 C2574 1.356 . S
N2582 H2588 0.984 . S
N2582 H2589 0.984 . S
N2583 C2576 1.356 . S
N2583 H2586 0.984 . S
N2583 H2587 0.985 . S
H2584 N2579 0.984 . S
H2585 N2579 0.985 . S
H2586 N2583 0.984 . S
H2587 N2583 0.985 . S
H2588 N2582 0.984 . S
H2589 N2582 0.984 . S
H2590 N2578 0.984 . S
H2591 N2578 0.985 . S
C2592 C2593 1.390 . S
C2592 C2598 1.379 . S
C2592 N2600 1.356 . S
C2593 C2592 1.390 . S
C2593 C2599 1.341 1_554 S
C2594 C2595 1.363 1_556 S
C2594 C2599 1.379 1_455 S
C2594 N2601 1.356 . S
C2595 C2594 1.363 1_554 S
C2595 C2598 1.363 1_455 S
N2596 C2598 1.356 1_455 S
N2596 H2608 0.984 . S
N2596 H2609 0.985 . S
N2597 C2599 1.356 . S
N2597 H2602 0.984 . S
N2597 H2603 0.985 . S
C2598 C2592 1.379 . S
C2598 C2595 1.363 1_655 S
C2598 N2596 1.356 1_655 S
C2599 C2593 1.341 1_556 S
C2599 C2594 1.379 1_655 S
C2599 N2597 1.356 . S
N2600 C2592 1.356 . S
N2600 H2606 0.984 . S
N2600 H2607 0.984 . S
N2601 C2594 1.356 . S
N2601 H2604 0.984 . S
N2601 H2605 0.985 . S
H2602 N2597 0.984 . S
H2603 N2597 0.985 . S
H2604 N2601 0.984 . S
H2605 N2601 0.985 . S
H2606 N2600 0.984 . S
H2607 N2600 0.984 . S
H2608 N2596 0.984 . S
H2609 N2596 0.985 . S
C2610 C2611 1.363 1_556 S
C2610 C2616 1.379 . S
C2610 N2618 1.356 . S
C2611 C2610 1.363 1_554 S
C2611 C2617 1.363 . S
C2612 C2613 1.402 . S
C2612 C2617 1.379 . S
C2612 N2619 1.356 . S
C2613 C2612 1.402 . S
C2613 C2616 1.335 1_554 S
N2614 C2616 1.356 . S
N2614 H2626 0.984 . S
N2614 H2627 0.985 . S
N2615 C2617 1.356 . S
N2615 H2620 0.984 . S
N2615 H2621 0.985 . S
C2616 C2610 1.379 . S
C2616 C2613 1.335 1_556 S
C2616 N2614 1.356 . S
C2617 C2611 1.363 . S
C2617 C2612 1.379 . S
C2617 N2615 1.356 . S
N2618 C2610 1.356 . S
N2618 H2624 0.984 . S
N2618 H2625 0.984 . S
N2619 C2612 1.356 . S
N2619 H2622 0.984 . S
N2619 H2623 0.985 . S
H2620 N2615 0.984 . S
H2621 N2615 0.985 . S
H2622 N2619 0.984 . S
H2623 N2619 0.985 . S
H2624 N2618 0.984 . S
H2625 N2618 0.984 . S
H2626 N2614 0.984 . S
H2627 N2614 0.985 . S
C2628 C2629 1.363 . S
C2628 C2634 1.379 1_455 S
C2628 N2636 1.356 . S
C2629 C2628 1.363 . S
C2629 C2635 1.363 1_455 S
C2630 C2631 1.363 . S
C2630 C2635 1.379 . S
C2630 N2637 1.356 . S
C2631 C2630 1.363 . S
C2631 C2634 1.363 . S
N2632 C2634 1.356 . S
N2632 H2644 0.984 . S
N2632 H2645 0.985 . S
N2633 C2635 1.356 1_455 S
N2633 H2638 0.984 . S
N2633 H2639 0.985 . S
C2634 C2628 1.379 1_655 S
C2634 C2631 1.363 . S
C2634 N2632 1.356 . S
C2635 C2629 1.363 1_655 S
C2635 C2630 1.379 . S
C2635 N2633 1.356 1_655 S
N2636 C2628 1.356 . S
N2636 H2642 0.984 . S
N2636 H2643 0.984 . S
N2637 C2630 1.356 . S
N2637 H2640 0.984 . S
N2637 H2641 0.985 . S
H2638 N2633 0.984 . S
H2639 N2633 0.985 . S
H2640 N2637 0.984 . S
H2641 N2637 0.985 . S
H2642 N2636 0.984 . S
H2643 N2636 0.984 . S
H2644 N2632 0.984 . S
H2645 N2632 0.985 . S
C2646 C2647 1.363 . S
C2646 C2652 1.379 . S
C2646 N2654 1.356 . S
C2647 C2646 1.363 . S
C2647 C2653 1.363 . S
C2648 C2649 1.363 . S
C2648 C2653 1.379 . S
C2648 N2655 1.356 . S
C2649 C2648 1.363 . S
C2649 C2652 1.363 . S
N2650 C2652 1.356 . S
N2650 H2662 0.984 . S
N2650 H2663 0.985 . S
N2651 C2653 1.356 . S
N2651 H2656 0.984 . S
N2651 H2657 0.985 . S
C2652 C2646 1.379 . S
C2652 C2649 1.363 . S
C2652 N2650 1.356 . S
C2653 C2647 1.363 . S
C2653 C2648 1.379 . S
C2653 N2651 1.356 . S
N2654 C2646 1.356 . S
N2654 H2660 0.984 . S
N2654 H2661 0.984 . S
N2655 C2648 1.356 . S
N2655 H2658 0.984 . S
N2655 H2659 0.985 . S
H2656 N2651 0.984 . S
H2657 N2651 0.985 . S
H2658 N2655 0.984 . S
H2659 N2655 0.985 . S
H2660 N2654 0.984 . S
H2661 N2654 0.984 . S
H2662 N2650 0.984 . S
H2663 N2650 0.985 . S
C2664 C2665 1.363 1_545 S
C2664 C2670 1.379 . S
C2664 N2672 1.356 1_545 S
C2665 C2664 1.363 1_565 S
C2665 C2671 1.363 . S
C2666 C2667 1.363 . S
C2666 C2671 1.379 1_545 S
C2666 N2673 1.356 . S
C2667 C2666 1.363 . S
C2667 C2670 1.363 . S
N2668 C2670 1.356 . S
N2668 H2680 0.984 . S
N2668 H2681 0.985 . S
N2669 C2671 1.356 . S
N2669 H2674 0.984 . S
N2669 H2675 0.985 . S
C2670 C2664 1.379 . S
C2670 C2667 1.363 . S
C2670 N2668 1.356 . S
C2671 C2665 1.363 . S
C2671 C2666 1.379 1_565 S
C2671 N2669 1.356 . S
N2672 C2664 1.356 1_565 S
N2672 H2678 0.984 . S
N2672 H2679 0.984 . S
N2673 C2666 1.356 . S
N2673 H2676 0.984 . S
N2673 H2677 0.985 . S
H2674 N2669 0.984 . S
H2675 N2669 0.985 . S
H2676 N2673 0.984 . S
H2677 N2673 0.985 . S
H2678 N2672 0.984 . S
H2679 N2672 0.984 . S
H2680 N2668 0.984 . S
H2681 N2668 0.985 . S
C2682 C2683 1.363 . S
C2682 C2688 1.379 . S
C2682 N2690 1.356 . S
C2683 C2682 1.363 . S
C2683 C2689 1.363 . S
C2684 C2685 1.363 . S
C2684 C2689 1.379 . S
C2684 N2691 1.356 . S
C2685 C2684 1.363 . S
C2685 C2688 1.363 . S
N2686 C2688 1.356 . S
N2686 H2698 0.984 . S
N2686 H2699 0.985 . S
N2687 C2689 1.356 1_455 S
N2687 H2692 0.984 . S
N2687 H2693 0.985 . S
C2688 C2682 1.379 . S
C2688 C2685 1.363 . S
C2688 N2686 1.356 . S
C2689 C2683 1.363 . S
C2689 C2684 1.379 . S
C2689 N2687 1.356 1_655 S
N2690 C2682 1.356 . S
N2690 H2696 0.984 . S
N2690 H2697 0.984 . S
N2691 C2684 1.356 . S
N2691 H2694 0.984 . S
N2691 H2695 0.985 . S
H2692 N2687 0.984 . S
H2693 N2687 0.985 . S
H2694 N2691 0.984 . S
H2695 N2691 0.985 . S
H2696 N2690 0.984 . S
H2697 N2690 0.984 . S
H2698 N2686 0.984 . S
H2699 N2686 0.985 . S
C2700 C2701 1.363 . S
C2700 C2706 1.379 . S
C2700 N2708 1.356 . S
C2701 C2700 1.363 . S
C2701 C2707 1.363 . S
C2702 C2703 1.363 . S
C2702 C2707 1.379 . S
C2702 N2709 1.356 . S
C2703 C2702 1.363 . S
C2703 C2706 1.363 . S
N2704 C2706 1.356 . S
N2704 H2716 0.984 . S
N2704 H2717 0.985 . S
N2705 C2707 1.356 . S
N2705 H2710 0.984 . S
N2705 H2711 0.985 . S
C2706 C2700 1.379 . S
C2706 C2703 1.363 . S
C2706 N2704 1.356 . S
C2707 C2701 1.363 . S
C2707 C2702 1.379 . S
C2707 N2705 1.356 . S
N2708 C2700 1.356 . S
N2708 H2714 0.984 . S
N2708 H2715 0.984 . S
N2709 C2702 1.356 . S
N2709 H2712 0.984 . S
N2709 H2713 0.985 . S
H2710 N2705 0.984 . S
H2711 N2705 0.985 . S
H2712 N2709 0.984 . S
H2713 N2709 0.985 . S
H2714 N2708 0.984 . S
H2715 N2708 0.984 . S
H2716 N2704 0.984 . S
H2717 N2704 0.985 . S
C2718 C2719 1.363 . S
C2718 C2724 1.379 . S
C2718 N2726 1.356 . S
C2719 C2718 1.363 . S
C2719 C2725 1.363 . S
C2720 C2721 1.363 . S
C2720 C2725 1.379 . S
C2720 N2727 1.356 1_545 S
C2721 C2720 1.363 . S
C2721 C2724 1.363 . S
N2722 C2724 1.356 . S
N2722 H2734 0.984 . S
N2722 H2735 0.985 . S
N2723 C2725 1.356 . S
N2723 H2728 0.984 . S
N2723 H2729 0.985 . S
C2724 C2718 1.379 . S
C2724 C2721 1.363 . S
C2724 N2722 1.356 . S
C2725 C2719 1.363 . S
C2725 C2720 1.379 . S
C2725 N2723 1.356 . S
N2726 C2718 1.356 . S
N2726 H2732 0.984 . S
N2726 H2733 0.984 . S
N2727 C2720 1.356 1_565 S
N2727 H2730 0.984 . S
N2727 H2731 0.985 . S
H2728 N2723 0.984 . S
H2729 N2723 0.985 . S
H2730 N2727 0.984 . S
H2731 N2727 0.985 . S
H2732 N2726 0.984 . S
H2733 N2726 0.984 . S
H2734 N2722 0.984 . S
H2735 N2722 0.985 . S
C2736 C2737 1.363 . S
C2736 C2742 1.379 . S
C2736 N2744 1.356 . S
C2737 C2736 1.363 . S
C2737 C2743 1.363 . S
C2738 C2739 1.363 . S
C2738 C2743 1.379 . S
C2738 N2745 1.356 . S
C2739 C2738 1.363 . S
C2739 C2742 1.363 . S
N2740 C2742 1.356 . S
N2740 H2752 0.984 . S
N2740 H2753 0.985 . S
N2741 C2743 1.356 . S
N2741 H2746 0.984 . S
N2741 H2747 0.985 . S
C2742 C2736 1.379 . S
C2742 C2739 1.363 . S
C2742 N2740 1.356 . S
C2743 C2737 1.363 . S
C2743 C2738 1.379 . S
C2743 N2741 1.356 . S
N2744 C2736 1.356 . S
N2744 H2750 0.984 . S
N2744 H2751 0.984 . S
N2745 C2738 1.356 . S
N2745 H2748 0.984 . S
N2745 H2749 0.985 . S
H2746 N2741 0.984 . S
H2747 N2741 0.985 . S
H2748 N2745 0.984 . S
H2749 N2745 0.985 . S
H2750 N2744 0.984 . S
H2751 N2744 0.984 . S
H2752 N2740 0.984 . S
H2753 N2740 0.985 . S
C2754 C2755 1.363 . S
C2754 C2760 1.379 . S
C2754 N2762 1.356 . S
C2755 C2754 1.363 . S
C2755 C2761 1.363 . S
C2756 C2757 1.363 . S
C2756 C2761 1.379 . S
C2756 N2763 1.356 . S
C2757 C2756 1.363 . S
C2757 C2760 1.363 . S
N2758 C2760 1.356 . S
N2758 H2770 0.984 . S
N2758 H2771 0.985 . S
N2759 C2761 1.356 1_545 S
N2759 H2764 0.984 1_545 S
N2759 H2765 0.985 . S
C2760 C2754 1.379 . S
C2760 C2757 1.363 . S
C2760 N2758 1.356 . S
C2761 C2755 1.363 . S
C2761 C2756 1.379 . S
C2761 N2759 1.356 1_565 S
N2762 C2754 1.356 . S
N2762 H2768 0.984 . S
N2762 H2769 0.984 . S
N2763 C2756 1.356 . S
N2763 H2766 0.984 . S
N2763 H2767 0.985 1_565 S
H2764 N2759 0.984 1_565 S
H2765 N2759 0.985 . S
H2766 N2763 0.984 . S
H2767 N2763 0.985 1_545 S
H2768 N2762 0.984 . S
H2769 N2762 0.984 . S
H2770 N2758 0.984 . S
H2771 N2758 0.985 . S
C2772 C2773 1.363 . S
C2772 C2778 1.379 . S
C2772 N2780 1.356 . S
C2773 C2772 1.363 . S
C2773 C2779 1.363 . S
C2774 C2775 1.363 . S
C2774 C2779 1.379 . S
C2774 N2781 1.356 . S
C2775 C2774 1.363 . S
C2775 C2778 1.363 . S
N2776 C2778 1.356 . S
N2776 H2788 0.984 . S
N2776 H2789 0.985 . S
N2777 C2779 1.356 . S
N2777 H2782 0.984 . S
N2777 H2783 0.985 . S
C2778 C2772 1.379 . S
C2778 C2775 1.363 . S
C2778 N2776 1.356 . S
C2779 C2773 1.363 . S
C2779 C2774 1.379 . S
C2779 N2777 1.356 . S
N2780 C2772 1.356 . S
N2780 H2786 0.984 . S
N2780 H2787 0.984 . S
N2781 C2774 1.356 . S
N2781 H2784 0.984 . S
N2781 H2785 0.985 . S
H2782 N2777 0.984 . S
H2783 N2777 0.985 . S
H2784 N2781 0.984 . S
H2785 N2781 0.985 . S
H2786 N2780 0.984 . S
H2787 N2780 0.984 . S
H2788 N2776 0.984 . S
H2789 N2776 0.985 . S
C2790 C2791 1.363 . S
C2790 C2796 1.379 . S
C2790 N2798 1.356 . S
C2791 C2790 1.363 . S
C2791 C2797 1.363 . S
C2792 C2793 1.363 . S
C2792 C2797 1.379 . S
C2792 N2799 1.356 . S
C2793 C2792 1.363 . S
C2793 C2796 1.363 . S
N2794 C2796 1.356 . S
N2794 H2806 0.984 . S
N2794 H2807 0.985 . S
N2795 C2797 1.356 . S
N2795 H2800 0.984 . S
N2795 H2801 0.985 . S
C2796 C2790 1.379 . S
C2796 C2793 1.363 . S
C2796 N2794 1.356 . S
C2797 C2791 1.363 . S
C2797 C2792 1.379 . S
C2797 N2795 1.356 . S
N2798 C2790 1.356 . S
N2798 H2804 0.984 . S
N2798 H2805 0.984 . S
N2799 C2792 1.356 . S
N2799 H2802 0.984 . S
N2799 H2803 0.985 . S
H2800 N2795 0.984 . S
H2801 N2795 0.985 . S
H2802 N2799 0.984 . S
H2803 N2799 0.985 . S
H2804 N2798 0.984 . S
H2805 N2798 0.984 . S
H2806 N2794 0.984 . S
H2807 N2794 0.985 . S
C2808 C2809 1.363 . S
C2808 C2814 1.379 . S
C2808 N2816 1.356 . S
C2809 C2808 1.363 . S
C2809 C2815 1.363 . S
C2810 C2811 1.363 . S
C2810 C2815 1.379 . S
C2810 N2817 1.356 . S
C2811 C2810 1.363 . S
C2811 C2814 1.363 . S
N2812 C2814 1.356 . S
N2812 H2824 0.984 . S
N2812 H2825 0.985 . S
N2813 C2815 1.356 . S
N2813 H2818 0.984 . S
N2813 H2819 0.985 1_545 S
C2814 C2808 1.379 . S
C2814 C2811 1.363 . S
C2814 N2812 1.356 . S
C2815 C2809 1.363 . S
C2815 C2810 1.379 . S
C2815 N2813 1.356 . S
N2816 C2808 1.356 . S
N2816 H2822 0.984 . S
N2816 H2823 0.984 . S
N2817 C2810 1.356 . S
N2817 H2820 0.984 . S
N2817 H2821 0.985 1_545 S
H2818 N2813 0.984 . S
H2819 N2813 0.985 1_565 S
H2820 N2817 0.984 . S
H2821 N2817 0.985 1_565 S
H2822 N2816 0.984 . S
H2823 N2816 0.984 . S
H2824 N2812 0.984 . S
H2825 N2812 0.985 . S
C2826 C2827 1.363 . S
C2826 C2832 1.379 . S
C2826 N2834 1.356 1_655 S
C2827 C2826 1.363 . S
C2827 C2833 1.363 . S
C2828 C2829 1.363 . S
C2828 C2833 1.379 . S
C2828 N2835 1.356 . S
C2829 C2828 1.363 . S
C2829 C2832 1.363 . S
N2830 C2832 1.356 1_455 S
N2830 H2842 0.984 . S
N2830 H2843 0.985 . S
N2831 C2833 1.356 . S
N2831 H2836 0.984 . S
N2831 H2837 0.985 . S
C2832 C2826 1.379 . S
C2832 C2829 1.363 . S
C2832 N2830 1.356 1_655 S
C2833 C2827 1.363 . S
C2833 C2828 1.379 . S
C2833 N2831 1.356 . S
N2834 C2826 1.356 1_455 S
N2834 H2840 0.984 . S
N2834 H2841 0.984 1_455 S
N2835 C2828 1.356 . S
N2835 H2838 0.984 . S
N2835 H2839 0.985 . S
H2836 N2831 0.984 . S
H2837 N2831 0.985 . S
H2838 N2835 0.984 . S
H2839 N2835 0.985 . S
H2840 N2834 0.984 . S
H2841 N2834 0.984 1_655 S
H2842 N2830 0.984 . S
H2843 N2830 0.985 . S
C2844 C2845 1.363 . S
C2844 C2850 1.379 . S
C2844 N2852 1.356 . S
C2845 C2844 1.363 . S
C2845 C2851 1.363 . S
C2846 C2847 1.363 . S
C2846 C2851 1.379 . S
C2846 N2853 1.356 . S
C2847 C2846 1.363 . S
C2847 C2850 1.363 . S
N2848 C2850 1.356 . S
N2848 H2860 0.984 . S
N2848 H2861 0.985 . S
N2849 C2851 1.356 . S
N2849 H2854 0.984 . S
N2849 H2855 0.985 . S
C2850 C2844 1.379 . S
C2850 C2847 1.363 . S
C2850 N2848 1.356 . S
C2851 C2845 1.363 . S
C2851 C2846 1.379 . S
C2851 N2849 1.356 . S
N2852 C2844 1.356 . S
N2852 H2858 0.984 . S
N2852 H2859 0.984 . S
N2853 C2846 1.356 . S
N2853 H2856 0.984 . S
N2853 H2857 0.985 . S
H2854 N2849 0.984 . S
H2855 N2849 0.985 . S
H2856 N2853 0.984 . S
H2857 N2853 0.985 . S
H2858 N2852 0.984 . S
H2859 N2852 0.984 . S
H2860 N2848 0.984 . S
H2861 N2848 0.985 . S
C2862 C2863 1.363 . S
C2862 C2868 1.379 . S
C2862 N2870 1.356 . S
C2863 C2862 1.363 . S
C2863 C2869 1.363 . S
C2864 C2865 1.363 . S
C2864 C2869 1.379 . S
C2864 N2871 1.356 . S
C2865 C2864 1.363 . S
C2865 C2868 1.363 . S
N2866 C2868 1.356 . S
N2866 H2878 0.984 1_545 S
N2866 H2879 0.985 . S
N2867 C2869 1.356 . S
N2867 H2872 0.984 . S
N2867 H2873 0.985 . S
C2868 C2862 1.379 . S
C2868 C2865 1.363 . S
C2868 N2866 1.356 . S
C2869 C2863 1.363 . S
C2869 C2864 1.379 . S
C2869 N2867 1.356 . S
N2870 C2862 1.356 . S
N2870 H2876 0.984 1_545 S
N2870 H2877 0.984 . S
N2871 C2864 1.356 . S
N2871 H2874 0.984 . S
N2871 H2875 0.985 . S
H2872 N2867 0.984 . S
H2873 N2867 0.985 . S
H2874 N2871 0.984 . S
H2875 N2871 0.985 . S
H2876 N2870 0.984 1_565 S
H2877 N2870 0.984 . S
H2878 N2866 0.984 1_565 S
H2879 N2866 0.985 . S
C2880 C2881 1.363 . S
C2880 C2886 1.379 . S
C2880 N2888 1.356 . S
C2881 C2880 1.363 . S
C2881 C2887 1.363 . S
C2882 C2883 1.363 . S
C2882 C2887 1.379 . S
C2882 N2889 1.356 1_655 S
C2883 C2882 1.363 . S
C2883 C2886 1.363 . S
N2884 C2886 1.356 . S
N2884 H2896 0.984 . S
N2884 H2897 0.985 . S
N2885 C2887 1.356 1_455 S
N2885 H2890 0.984 1_455 S
N2885 H2891 0.985 . S
C2886 C2880 1.379 . S
C2886 C2883 1.363 . S
C2886 N2884 1.356 . S
C2887 C2881 1.363 . S
C2887 C2882 1.379 . S
C2887 N2885 1.356 1_655 S
N2888 C2880 1.356 . S
N2888 H2894 0.984 . S
N2888 H2895 0.984 . S
N2889 C2882 1.356 1_455 S
N2889 H2892 0.984 . S
N2889 H2893 0.985 . S
H2890 N2885 0.984 1_655 S
H2891 N2885 0.985 . S
H2892 N2889 0.984 . S
H2893 N2889 0.985 . S
H2894 N2888 0.984 . S
H2895 N2888 0.984 . S
H2896 N2884 0.984 . S
H2897 N2884 0.985 . S
C2898 C2899 1.363 . S
C2898 C2904 1.379 . S
C2898 N2906 1.356 . S
C2899 C2898 1.363 . S
C2899 C2905 1.363 . S
C2900 C2901 1.363 . S
C2900 C2905 1.379 . S
C2900 N2907 1.356 . S
C2901 C2900 1.363 . S
C2901 C2904 1.363 . S
N2902 C2904 1.356 . S
N2902 H2914 0.984 . S
N2902 H2915 0.985 . S
N2903 C2905 1.356 . S
N2903 H2908 0.984 . S
N2903 H2909 0.985 . S
C2904 C2898 1.379 . S
C2904 C2901 1.363 . S
C2904 N2902 1.356 . S
C2905 C2899 1.363 . S
C2905 C2900 1.379 . S
C2905 N2903 1.356 . S
N2906 C2898 1.356 . S
N2906 H2912 0.984 . S
N2906 H2913 0.984 . S
N2907 C2900 1.356 . S
N2907 H2910 0.984 . S
N2907 H2911 0.985 . S
H2908 N2903 0.984 . S
H2909 N2903 0.985 . S
H2910 N2907 0.984 . S
H2911 N2907 0.985 . S
H2912 N2906 0.984 . S
H2913 N2906 0.984 . S
H2914 N2902 0.984 . S
H2915 N2902 0.985 . S
C2916 C2917 1.363 . S
C2916 C2922 1.379 . S
C2916 N2924 1.356 1_565 S
C2917 C2916 1.363 . S
C2917 C2923 1.363 . S
C2918 C2919 1.363 . S
C2918 C2923 1.379 . S
C2918 N2925 1.356 . S
C2919 C2918 1.363 . S
C2919 C2922 1.363 . S
N2920 C2922 1.356 . S
N2920 H2932 0.984 1_565 S
N2920 H2933 0.985 . S
N2921 C2923 1.356 . S
N2921 H2926 0.984 . S
N2921 H2927 0.985 . S
C2922 C2916 1.379 . S
C2922 C2919 1.363 . S
C2922 N2920 1.356 . S
C2923 C2917 1.363 . S
C2923 C2918 1.379 . S
C2923 N2921 1.356 . S
N2924 C2916 1.356 1_545 S
N2924 H2930 0.984 . S
N2924 H2931 0.984 1_545 S
N2925 C2918 1.356 . S
N2925 H2928 0.984 . S
N2925 H2929 0.985 . S
H2926 N2921 0.984 . S
H2927 N2921 0.985 . S
H2928 N2925 0.984 . S
H2929 N2925 0.985 . S
H2930 N2924 0.984 . S
H2931 N2924 0.984 1_565 S
H2932 N2920 0.984 1_545 S
H2933 N2920 0.985 . S
C2934 C2935 1.363 . S
C2934 C2940 1.379 . S
C2934 N2942 1.356 1_455 S
C2935 C2934 1.363 . S
C2935 C2941 1.363 . S
C2936 C2937 1.363 . S
C2936 C2941 1.379 . S
C2936 N2943 1.356 . S
C2937 C2936 1.363 . S
C2937 C2940 1.363 . S
N2938 C2940 1.356 1_655 S
N2938 H2950 0.984 . S
N2938 H2951 0.985 1_655 S
N2939 C2941 1.356 . S
N2939 H2944 0.984 . S
N2939 H2945 0.985 . S
C2940 C2934 1.379 . S
C2940 C2937 1.363 . S
C2940 N2938 1.356 1_455 S
C2941 C2935 1.363 . S
C2941 C2936 1.379 . S
C2941 N2939 1.356 . S
N2942 C2934 1.356 1_655 S
N2942 H2948 0.984 . S
N2942 H2949 0.984 . S
N2943 C2936 1.356 . S
N2943 H2946 0.984 . S
N2943 H2947 0.985 . S
H2944 N2939 0.984 . S
H2945 N2939 0.985 . S
H2946 N2943 0.984 . S
H2947 N2943 0.985 . S
H2948 N2942 0.984 . S
H2949 N2942 0.984 . S
H2950 N2938 0.984 . S
H2951 N2938 0.985 1_455 S
C2952 C2953 1.363 . S
C2952 C2958 1.379 . S
C2952 N2960 1.356 . S
C2953 C2952 1.363 . S
C2953 C2959 1.363 1_455 S
C2954 C2955 1.363 . S
C2954 C2959 1.379 . S
C2954 N2961 1.356 . S
C2955 C2954 1.363 . S
C2955 C2958 1.363 1_655 S
N2956 C2958 1.356 . S
N2956 H2968 0.984 . S
N2956 H2969 0.985 . S
N2957 C2959 1.356 . S
N2957 H2962 0.984 . S
N2957 H2963 0.985 . S
C2958 C2952 1.379 . S
C2958 C2955 1.363 1_455 S
C2958 N2956 1.356 . S
C2959 C2953 1.363 1_655 S
C2959 C2954 1.379 . S
C2959 N2957 1.356 . S
N2960 C2952 1.356 . S
N2960 H2966 0.984 . S
N2960 H2967 0.984 . S
N2961 C2954 1.356 . S
N2961 H2964 0.984 . S
N2961 H2965 0.985 . S
H2962 N2957 0.984 . S
H2963 N2957 0.985 . S
H2964 N2961 0.984 . S
H2965 N2961 0.985 . S
H2966 N2960 0.984 . S
H2967 N2960 0.984 . S
H2968 N2956 0.984 . S
H2969 N2956 0.985 . S
C2970 C2971 1.363 . S
C2970 C2976 1.379 . S
C2970 N2978 1.356 . S
C2971 C2970 1.363 . S
C2971 C2977 1.363 . S
C2972 C2973 1.363 . S
C2972 C2977 1.379 . S
C2972 N2979 1.356 . S
C2973 C2972 1.363 . S
C2973 C2976 1.363 . S
N2974 C2976 1.356 . S
N2974 H2986 0.984 . S
N2974 H2987 0.985 . S
N2975 C2977 1.356 . S
N2975 H2980 0.984 . S
N2975 H2981 0.985 . S
C2976 C2970 1.379 . S
C2976 C2973 1.363 . S
C2976 N2974 1.356 . S
C2977 C2971 1.363 . S
C2977 C2972 1.379 . S
C2977 N2975 1.356 . S
N2978 C2970 1.356 . S
N2978 H2984 0.984 . S
N2978 H2985 0.984 . S
N2979 C2972 1.356 . S
N2979 H2982 0.984 . S
N2979 H2983 0.985 . S
H2980 N2975 0.984 . S
H2981 N2975 0.985 . S
H2982 N2979 0.984 . S
H2983 N2979 0.985 . S
H2984 N2978 0.984 . S
H2985 N2978 0.984 . S
H2986 N2974 0.984 . S
H2987 N2974 0.985 . S
C2988 C2989 1.363 . S
C2988 C2994 1.379 . S
C2988 N2996 1.356 . S
C2989 C2988 1.363 . S
C2989 C2995 1.363 1_565 S
C2990 C2991 1.363 . S
C2990 C2995 1.379 . S
C2990 N2997 1.356 . S
C2991 C2990 1.363 . S
C2991 C2994 1.363 1_545 S
N2992 C2994 1.356 . S
N2992 H3004 0.984 . S
N2992 H3005 0.985 . S
N2993 C2995 1.356 . S
N2993 H2998 0.984 . S
N2993 H2999 0.985 . S
C2994 C2988 1.379 . S
C2994 C2991 1.363 1_565 S
C2994 N2992 1.356 . S
C2995 C2989 1.363 1_545 S
C2995 C2990 1.379 . S
C2995 N2993 1.356 . S
N2996 C2988 1.356 . S
N2996 H3002 0.984 . S
N2996 H3003 0.984 . S
N2997 C2990 1.356 . S
N2997 H3000 0.984 . S
N2997 H3001 0.985 . S
H2998 N2993 0.984 . S
H2999 N2993 0.985 . S
H3000 N2997 0.984 . S
H3001 N2997 0.985 . S
H3002 N2996 0.984 . S
H3003 N2996 0.984 . S
H3004 N2992 0.984 . S
H3005 N2992 0.985 . S
C3006 C3007 1.363 1_545 S
C3006 C3012 1.379 . S
C3006 N3014 1.356 . S
C3007 C3006 1.363 1_565 S
C3007 C3013 1.363 . S
C3008 C3009 1.363 1_565 S
C3008 C3013 1.379 . S
C3008 N3015 1.356 . S
C3009 C3008 1.363 1_545 S
C3009 C3012 1.363 . S
N3010 C3012 1.356 . S
N3010 H3022 0.984 . S
N3010 H3023 0.985 . S
N3011 C3013 1.356 . S
N3011 H3016 0.984 . S
N3011 H3017 0.985 . S
C3012 C3006 1.379 . S
C3012 C3009 1.363 . S
C3012 N3010 1.356 . S
C3013 C3007 1.363 . S
C3013 C3008 1.379 . S
C3013 N3011 1.356 . S
N3014 C3006 1.356 . S
N3014 H3020 0.984 . S
N3014 H3021 0.984 . S
N3015 C3008 1.356 . S
N3015 H3018 0.984 . S
N3015 H3019 0.985 . S
H3016 N3011 0.984 . S
H3017 N3011 0.985 . S
H3018 N3015 0.984 . S
H3019 N3015 0.985 . S
H3020 N3014 0.984 . S
H3021 N3014 0.984 . S
H3022 N3010 0.984 . S
H3023 N3010 0.985 . S
C3024 C3025 1.363 . S
C3024 C3030 1.379 . S
C3024 N3032 1.356 . S
C3025 C3024 1.363 . S
C3025 C3031 1.363 . S
C3026 C3027 1.363 . S
C3026 C3031 1.379 1_455 S
C3026 N3033 1.356 . S
C3027 C3026 1.363 . S
C3027 C3030 1.363 1_455 S
N3028 C3030 1.356 . S
N3028 H3040 0.984 . S
N3028 H3041 0.985 1_655 S
N3029 C3031 1.356 . S
N3029 H3034 0.984 . S
N3029 H3035 0.985 . S
C3030 C3024 1.379 . S
C3030 C3027 1.363 1_655 S
C3030 N3028 1.356 . S
C3031 C3025 1.363 . S
C3031 C3026 1.379 1_655 S
C3031 N3029 1.356 . S
N3032 C3024 1.356 . S
N3032 H3038 0.984 . S
N3032 H3039 0.984 . S
N3033 C3026 1.356 . S
N3033 H3036 0.984 . S
N3033 H3037 0.985 . S
H3034 N3029 0.984 . S
H3035 N3029 0.985 . S
H3036 N3033 0.984 . S
H3037 N3033 0.985 . S
H3038 N3032 0.984 . S
H3039 N3032 0.984 . S
H3040 N3028 0.984 . S
H3041 N3028 0.985 1_455 S
C3042 C3043 1.363 . S
C3042 C3048 1.379 . S
C3042 N3050 1.356 . S
C3043 C3042 1.363 . S
C3043 C3049 1.363 . S
C3044 C3045 1.363 . S
C3044 C3049 1.379 . S
C3044 N3051 1.356 . S
C3045 C3044 1.363 . S
C3045 C3048 1.363 . S
N3046 C3048 1.356 . S
N3046 H3058 0.984 . S
N3046 H3059 0.985 . S
N3047 C3049 1.356 . S
N3047 H3052 0.984 . S
N3047 H3053 0.985 . S
C3048 C3042 1.379 . S
C3048 C3045 1.363 . S
C3048 N3046 1.356 . S
C3049 C3043 1.363 . S
C3049 C3044 1.379 . S
C3049 N3047 1.356 . S
N3050 C3042 1.356 . S
N3050 H3056 0.984 . S
N3050 H3057 0.984 . S
N3051 C3044 1.356 . S
N3051 H3054 0.984 . S
N3051 H3055 0.985 . S
H3052 N3047 0.984 . S
H3053 N3047 0.985 . S
H3054 N3051 0.984 . S
H3055 N3051 0.985 . S
H3056 N3050 0.984 . S
H3057 N3050 0.984 . S
H3058 N3046 0.984 . S
H3059 N3046 0.985 . S
C3060 C3061 1.363 . S
C3060 C3066 1.379 1_655 S
C3060 N3068 1.356 . S
C3061 C3060 1.363 . S
C3061 C3067 1.363 . S
C3062 C3063 1.363 . S
C3062 C3067 1.379 1_455 S
C3062 N3069 1.356 . S
C3063 C3062 1.363 . S
C3063 C3066 1.363 . S
N3064 C3066 1.356 . S
N3064 H3076 0.984 . S
N3064 H3077 0.985 . S
N3065 C3067 1.356 . S
N3065 H3070 0.984 . S
N3065 H3071 0.985 . S
C3066 C3060 1.379 1_455 S
C3066 C3063 1.363 . S
C3066 N3064 1.356 . S
C3067 C3061 1.363 . S
C3067 C3062 1.379 1_655 S
C3067 N3065 1.356 . S
N3068 C3060 1.356 . S
N3068 H3074 0.984 . S
N3068 H3075 0.984 . S
N3069 C3062 1.356 . S
N3069 H3072 0.984 . S
N3069 H3073 0.985 . S
H3070 N3065 0.984 . S
H3071 N3065 0.985 . S
H3072 N3069 0.984 . S
H3073 N3069 0.985 . S
H3074 N3068 0.984 . S
H3075 N3068 0.984 . S
H3076 N3064 0.984 . S
H3077 N3064 0.985 . S
C3078 C3079 1.363 . S
C3078 C3084 1.379 . S
C3078 N3086 1.356 . S
C3079 C3078 1.363 . S
C3079 C3085 1.363 . S
C3080 C3081 1.363 . S
C3080 C3085 1.379 . S
C3080 N3087 1.356 . S
C3081 C3080 1.363 . S
C3081 C3084 1.363 . S
N3082 C3084 1.356 . S
N3082 H3094 0.984 . S
N3082 H3095 0.985 . S
N3083 C3085 1.356 . S
N3083 H3088 0.984 . S
N3083 H3089 0.985 . S
C3084 C3078 1.379 . S
C3084 C3081 1.363 . S
C3084 N3082 1.356 . S
C3085 C3079 1.363 . S
C3085 C3080 1.379 . S
C3085 N3083 1.356 . S
N3086 C3078 1.356 . S
N3086 H3092 0.984 . S
N3086 H3093 0.984 . S
N3087 C3080 1.356 . S
N3087 H3090 0.984 . S
N3087 H3091 0.985 . S
H3088 N3083 0.984 . S
H3089 N3083 0.985 . S
H3090 N3087 0.984 . S
H3091 N3087 0.985 . S
H3092 N3086 0.984 . S
H3093 N3086 0.984 . S
H3094 N3082 0.984 . S
H3095 N3082 0.985 . S
C3096 C3097 1.363 . S
C3096 C3102 1.379 . S
C3096 N3104 1.356 . S
C3097 C3096 1.363 . S
C3097 C3103 1.363 1_545 S
C3098 C3099 1.363 . S
C3098 C3103 1.379 . S
C3098 N3105 1.356 . S
C3099 C3098 1.363 . S
C3099 C3102 1.363 1_565 S
N3100 C3102 1.356 . S
N3100 H3112 0.984 . S
N3100 H3113 0.985 . S
N3101 C3103 1.356 . S
N3101 H3106 0.984 . S
N3101 H3107 0.985 . S
C3102 C3096 1.379 . S
C3102 C3099 1.363 1_545 S
C3102 N3100 1.356 . S
C3103 C3097 1.363 1_565 S
C3103 C3098 1.379 . S
C3103 N3101 1.356 . S
N3104 C3096 1.356 . S
N3104 H3110 0.984 . S
N3104 H3111 0.984 . S
N3105 C3098 1.356 . S
N3105 H3108 0.984 . S
N3105 H3109 0.985 . S
H3106 N3101 0.984 . S
H3107 N3101 0.985 . S
H3108 N3105 0.984 . S
H3109 N3105 0.985 . S
H3110 N3104 0.984 . S
H3111 N3104 0.984 . S
H3112 N3100 0.984 . S
H3113 N3100 0.985 . S
C3114 C3115 1.367 . S
C3114 C3120 1.377 1_655 S
C3114 N3122 1.355 . S
C3115 C3114 1.367 . S
C3115 C3121 1.363 . S
C3116 C3117 1.375 . S
C3116 C3121 1.375 1_455 S
C3116 N3123 1.351 . S
C3117 C3116 1.375 . S
C3117 C3120 1.363 . S
N3118 C3120 1.356 . S
N3118 H3130 0.984 . S
N3118 H3131 0.985 . S
N3119 C3121 1.356 . S
N3119 H3124 0.984 . S
N3119 H3125 0.985 . S
C3120 C3114 1.377 1_455 S
C3120 C3117 1.363 . S
C3120 N3118 1.356 . S
C3121 C3115 1.363 . S
C3121 C3116 1.375 1_655 S
C3121 N3119 1.356 . S
N3122 C3114 1.355 . S
N3122 H3128 0.984 1_655 S
N3122 H3129 0.984 . S
N3123 C3116 1.351 . S
N3123 H3126 0.984 . S
N3123 H3127 0.985 1_455 S
H3124 N3119 0.984 . S
H3125 N3119 0.985 . S
H3126 N3123 0.984 . S
H3127 N3123 0.985 1_655 S
H3128 N3122 0.984 1_455 S
H3129 N3122 0.984 . S
H3130 N3118 0.984 . S
H3131 N3118 0.985 . S
C3132 C3133 1.363 . S
C3132 C3138 1.379 . S
C3132 N3140 1.356 . S
C3133 C3132 1.363 . S
C3133 C3139 1.363 . S
C3134 C3135 1.363 . S
C3134 C3139 1.379 . S
C3134 N3141 1.356 . S
C3135 C3134 1.363 . S
C3135 C3138 1.363 . S
N3136 C3138 1.356 . S
N3136 H3148 0.984 . S
N3136 H3149 0.985 . S
N3137 C3139 1.356 . S
N3137 H3142 0.984 . S
N3137 H3143 0.985 . S
C3138 C3132 1.379 . S
C3138 C3135 1.363 . S
C3138 N3136 1.356 . S
C3139 C3133 1.363 . S
C3139 C3134 1.379 . S
C3139 N3137 1.356 . S
N3140 C3132 1.356 . S
N3140 H3146 0.984 . S
N3140 H3147 0.984 . S
N3141 C3134 1.356 . S
N3141 H3144 0.984 . S
N3141 H3145 0.985 . S
H3142 N3137 0.984 . S
H3143 N3137 0.985 . S
H3144 N3141 0.984 . S
H3145 N3141 0.985 . S
H3146 N3140 0.984 . S
H3147 N3140 0.984 . S
H3148 N3136 0.984 . S
H3149 N3136 0.985 . S
C3150 C3151 1.363 1_565 S
C3150 C3156 1.379 . S
C3150 N3158 1.356 . S
C3151 C3150 1.363 1_545 S
C3151 C3157 1.363 . S
C3152 C3153 1.363 1_545 S
C3152 C3157 1.379 . S
C3152 N3159 1.356 . S
C3153 C3152 1.363 1_565 S
C3153 C3156 1.363 . S
N3154 C3156 1.356 . S
N3154 H3166 0.984 . S
N3154 H3167 0.985 . S
N3155 C3157 1.356 . S
N3155 H3160 0.984 . S
N3155 H3161 0.985 . S
C3156 C3150 1.379 . S
C3156 C3153 1.363 . S
C3156 N3154 1.356 . S
C3157 C3151 1.363 . S
C3157 C3152 1.379 . S
C3157 N3155 1.356 . S
N3158 C3150 1.356 . S
N3158 H3164 0.984 . S
N3158 H3165 0.984 . S
N3159 C3152 1.356 . S
N3159 H3162 0.984 . S
N3159 H3163 0.985 . S
H3160 N3155 0.984 . S
H3161 N3155 0.985 . S
H3162 N3159 0.984 . S
H3163 N3159 0.985 . S
H3164 N3158 0.984 . S
H3165 N3158 0.984 . S
H3166 N3154 0.984 . S
H3167 N3154 0.985 . S
C3168 C3169 1.363 . S
C3168 C3174 1.379 . S
C3168 N3176 1.356 . S
C3169 C3168 1.363 . S
C3169 C3175 1.363 . S
C3170 C3171 1.363 . S
C3170 C3175 1.379 . S
C3170 N3177 1.356 . S
C3171 C3170 1.363 . S
C3171 C3174 1.363 . S
N3172 C3174 1.356 . S
N3172 H3184 0.984 . S
N3172 H3185 0.985 . S
N3173 C3175 1.356 . S
N3173 H3178 0.984 . S
N3173 H3179 0.985 . S
C3174 C3168 1.379 . S
C3174 C3171 1.363 . S
C3174 N3172 1.356 . S
C3175 C3169 1.363 . S
C3175 C3170 1.379 . S
C3175 N3173 1.356 . S
N3176 C3168 1.356 . S
N3176 H3182 0.984 . S
N3176 H3183 0.984 . S
N3177 C3170 1.356 . S
N3177 H3180 0.984 . S
N3177 H3181 0.985 . S
H3178 N3173 0.984 . S
H3179 N3173 0.985 . S
H3180 N3177 0.984 . S
H3181 N3177 0.985 . S
H3182 N3176 0.984 . S
H3183 N3176 0.984 . S
H3184 N3172 0.984 . S
H3185 N3172 0.985 . S
C3186 C3187 1.363 . S
C3186 C3192 1.379 . S
C3186 N3194 1.356 . S
C3187 C3186 1.363 . S
C3187 C3193 1.363 . S
C3188 C3189 1.363 . S
C3188 C3193 1.379 . S
C3188 N3195 1.356 . S
C3189 C3188 1.363 . S
C3189 C3192 1.363 . S
N3190 C3192 1.356 . S
N3190 H3202 0.984 . S
N3190 H3203 0.985 . S
N3191 C3193 1.356 . S
N3191 H3196 0.984 . S
N3191 H3197 0.985 . S
C3192 C3186 1.379 . S
C3192 C3189 1.363 . S
C3192 N3190 1.356 . S
C3193 C3187 1.363 . S
C3193 C3188 1.379 . S
C3193 N3191 1.356 . S
N3194 C3186 1.356 . S
N3194 H3200 0.984 . S
N3194 H3201 0.984 . S
N3195 C3188 1.356 . S
N3195 H3198 0.984 . S
N3195 H3199 0.985 . S
H3196 N3191 0.984 . S
H3197 N3191 0.985 . S
H3198 N3195 0.984 . S
H3199 N3195 0.985 . S
H3200 N3194 0.984 . S
H3201 N3194 0.984 . S
H3202 N3190 0.984 . S
H3203 N3190 0.985 . S
C3204 C3205 1.363 . S
C3204 C3210 1.379 . S
C3204 N3212 1.356 . S
C3205 C3204 1.363 . S
C3205 C3211 1.363 . S
C3206 C3207 1.363 . S
C3206 C3211 1.379 . S
C3206 N3213 1.356 . S
C3207 C3206 1.363 . S
C3207 C3210 1.363 . S
N3208 C3210 1.356 . S
N3208 H3220 0.984 . S
N3208 H3221 0.985 . S
N3209 C3211 1.356 . S
N3209 H3214 0.984 . S
N3209 H3215 0.985 . S
C3210 C3204 1.379 . S
C3210 C3207 1.363 . S
C3210 N3208 1.356 . S
C3211 C3205 1.363 . S
C3211 C3206 1.379 . S
C3211 N3209 1.356 . S
N3212 C3204 1.356 . S
N3212 H3218 0.984 . S
N3212 H3219 0.984 . S
N3213 C3206 1.356 . S
N3213 H3216 0.984 . S
N3213 H3217 0.985 . S
H3214 N3209 0.984 . S
H3215 N3209 0.985 . S
H3216 N3213 0.984 . S
H3217 N3213 0.985 . S
H3218 N3212 0.984 . S
H3219 N3212 0.984 . S
H3220 N3208 0.984 . S
H3221 N3208 0.985 . S
C3222 C3223 1.363 . S
C3222 C3228 1.379 . S
C3222 N3230 1.356 . S
C3223 C3222 1.363 . S
C3223 C3229 1.363 . S
C3224 C3225 1.363 . S
C3224 C3229 1.379 . S
C3224 N3231 1.356 . S
C3225 C3224 1.363 . S
C3225 C3228 1.363 . S
N3226 C3228 1.356 . S
N3226 H3238 0.984 . S
N3226 H3239 0.985 . S
N3227 C3229 1.356 . S
N3227 H3232 0.984 . S
N3227 H3233 0.985 . S
C3228 C3222 1.379 . S
C3228 C3225 1.363 . S
C3228 N3226 1.356 . S
C3229 C3223 1.363 . S
C3229 C3224 1.379 . S
C3229 N3227 1.356 . S
N3230 C3222 1.356 . S
N3230 H3236 0.984 . S
N3230 H3237 0.984 . S
N3231 C3224 1.356 . S
N3231 H3234 0.984 . S
N3231 H3235 0.985 . S
H3232 N3227 0.984 . S
H3233 N3227 0.985 . S
H3234 N3231 0.984 . S
H3235 N3231 0.985 . S
H3236 N3230 0.984 . S
H3237 N3230 0.984 . S
H3238 N3226 0.984 . S
H3239 N3226 0.985 . S
C3240 C3241 1.363 . S
C3240 C3246 1.379 . S
C3240 N3248 1.356 . S
C3241 C3240 1.363 . S
C3241 C3247 1.363 . S
C3242 C3243 1.363 . S
C3242 C3247 1.379 . S
C3242 N3249 1.356 . S
C3243 C3242 1.363 . S
C3243 C3246 1.363 . S
N3244 C3246 1.356 . S
N3244 H3256 0.984 . S
N3244 H3257 0.985 . S
N3245 C3247 1.356 . S
N3245 H3250 0.984 . S
N3245 H3251 0.985 . S
C3246 C3240 1.379 . S
C3246 C3243 1.363 . S
C3246 N3244 1.356 . S
C3247 C3241 1.363 . S
C3247 C3242 1.379 . S
C3247 N3245 1.356 . S
N3248 C3240 1.356 . S
N3248 H3254 0.984 . S
N3248 H3255 0.984 . S
N3249 C3242 1.356 . S
N3249 H3252 0.984 . S
N3249 H3253 0.985 . S
H3250 N3245 0.984 . S
H3251 N3245 0.985 . S
H3252 N3249 0.984 . S
H3253 N3249 0.985 . S
H3254 N3248 0.984 . S
H3255 N3248 0.984 . S
H3256 N3244 0.984 . S
H3257 N3244 0.985 . S
C3258 C3259 1.363 . S
C3258 C3264 1.379 . S
C3258 N3266 1.356 . S
C3259 C3258 1.363 . S
C3259 C3265 1.363 . S
C3260 C3261 1.363 . S
C3260 C3265 1.379 . S
C3260 N3267 1.356 . S
C3261 C3260 1.363 . S
C3261 C3264 1.363 . S
N3262 C3264 1.356 . S
N3262 H3274 0.984 . S
N3262 H3275 0.985 . S
N3263 C3265 1.356 . S
N3263 H3268 0.984 . S
N3263 H3269 0.985 . S
C3264 C3258 1.379 . S
C3264 C3261 1.363 . S
C3264 N3262 1.356 . S
C3265 C3259 1.363 . S
C3265 C3260 1.379 . S
C3265 N3263 1.356 . S
N3266 C3258 1.356 . S
N3266 H3272 0.984 . S
N3266 H3273 0.984 . S
N3267 C3260 1.356 . S
N3267 H3270 0.984 . S
N3267 H3271 0.985 . S
H3268 N3263 0.984 . S
H3269 N3263 0.985 . S
H3270 N3267 0.984 . S
H3271 N3267 0.985 . S
H3272 N3266 0.984 . S
H3273 N3266 0.984 . S
H3274 N3262 0.984 . S
H3275 N3262 0.985 . S
C3276 C3277 1.363 . S
C3276 C3282 1.379 . S
C3276 N3284 1.356 . S
C3277 C3276 1.363 . S
C3277 C3283 1.363 . S
C3278 C3279 1.363 . S
C3278 C3283 1.379 . S
C3278 N3285 1.356 . S
C3279 C3278 1.363 . S
C3279 C3282 1.363 . S
N3280 C3282 1.356 . S
N3280 H3292 0.984 . S
N3280 H3293 0.985 . S
N3281 C3283 1.356 . S
N3281 H3286 0.984 . S
N3281 H3287 0.985 . S
C3282 C3276 1.379 . S
C3282 C3279 1.363 . S
C3282 N3280 1.356 . S
C3283 C3277 1.363 . S
C3283 C3278 1.379 . S
C3283 N3281 1.356 . S
N3284 C3276 1.356 . S
N3284 H3290 0.984 . S
N3284 H3291 0.984 . S
N3285 C3278 1.356 . S
N3285 H3288 0.984 . S
N3285 H3289 0.985 . S
H3286 N3281 0.984 . S
H3287 N3281 0.985 . S
H3288 N3285 0.984 . S
H3289 N3285 0.985 . S
H3290 N3284 0.984 . S
H3291 N3284 0.984 . S
H3292 N3280 0.984 . S
H3293 N3280 0.985 . S
C3294 C3295 1.363 . S
C3294 C3300 1.379 . S
C3294 N3302 1.356 . S
C3295 C3294 1.363 . S
C3295 C3301 1.363 . S
C3296 C3297 1.363 . S
C3296 C3301 1.379 . S
C3296 N3303 1.356 . S
C3297 C3296 1.363 . S
C3297 C3300 1.363 . S
N3298 C3300 1.356 . S
N3298 H3310 0.984 . S
N3298 H3311 0.985 . S
N3299 C3301 1.356 . S
N3299 H3304 0.984 . S
N3299 H3305 0.985 . S
C3300 C3294 1.379 . S
C3300 C3297 1.363 . S
C3300 N3298 1.356 . S
C3301 C3295 1.363 . S
C3301 C3296 1.379 . S
C3301 N3299 1.356 . S
N3302 C3294 1.356 . S
N3302 H3308 0.984 . S
N3302 H3309 0.984 . S
N3303 C3296 1.356 . S
N3303 H3306 0.984 . S
N3303 H3307 0.985 . S
H3304 N3299 0.984 . S
H3305 N3299 0.985 . S
H3306 N3303 0.984 . S
H3307 N3303 0.985 . S
H3308 N3302 0.984 . S
H3309 N3302 0.984 . S
H3310 N3298 0.984 . S
H3311 N3298 0.985 . S
C3312 C3313 1.363 . S
C3312 C3318 1.379 . S
C3312 N3320 1.356 . S
C3313 C3312 1.363 . S
C3313 C3319 1.363 . S
C3314 C3315 1.363 . S
C3314 C3319 1.379 . S
C3314 N3321 1.356 . S
C3315 C3314 1.363 . S
C3315 C3318 1.363 . S
N3316 C3318 1.356 . S
N3316 H3328 0.984 . S
N3316 H3329 0.985 . S
N3317 C3319 1.356 . S
N3317 H3322 0.984 . S
N3317 H3323 0.985 . S
C3318 C3312 1.379 . S
C3318 C3315 1.363 . S
C3318 N3316 1.356 . S
C3319 C3313 1.363 . S
C3319 C3314 1.379 . S
C3319 N3317 1.356 . S
N3320 C3312 1.356 . S
N3320 H3326 0.984 . S
N3320 H3327 0.984 . S
N3321 C3314 1.356 . S
N3321 H3324 0.984 . S
N3321 H3325 0.985 . S
H3322 N3317 0.984 . S
H3323 N3317 0.985 . S
H3324 N3321 0.984 . S
H3325 N3321 0.985 . S
H3326 N3320 0.984 . S
H3327 N3320 0.984 . S
H3328 N3316 0.984 . S
H3329 N3316 0.985 . S
C3330 C3331 1.363 . S
C3330 C3336 1.379 . S
C3330 N3338 1.356 . S
C3331 C3330 1.363 . S
C3331 C3337 1.363 . S
C3332 C3333 1.363 . S
C3332 C3337 1.379 . S
C3332 N3339 1.356 . S
C3333 C3332 1.363 . S
C3333 C3336 1.363 . S
N3334 C3336 1.356 . S
N3334 H3346 0.984 . S
N3334 H3347 0.985 . S
N3335 C3337 1.356 . S
N3335 H3340 0.984 . S
N3335 H3341 0.985 . S
C3336 C3330 1.379 . S
C3336 C3333 1.363 . S
C3336 N3334 1.356 . S
C3337 C3331 1.363 . S
C3337 C3332 1.379 . S
C3337 N3335 1.356 . S
N3338 C3330 1.356 . S
N3338 H3344 0.984 . S
N3338 H3345 0.984 . S
N3339 C3332 1.356 . S
N3339 H3342 0.984 . S
N3339 H3343 0.985 . S
H3340 N3335 0.984 . S
H3341 N3335 0.985 . S
H3342 N3339 0.984 . S
H3343 N3339 0.985 . S
H3344 N3338 0.984 . S
H3345 N3338 0.984 . S
H3346 N3334 0.984 . S
H3347 N3334 0.985 . S
C3348 C3349 1.363 . S
C3348 C3354 1.379 . S
C3348 N3356 1.356 . S
C3349 C3348 1.363 . S
C3349 C3355 1.363 . S
C3350 C3351 1.363 . S
C3350 C3355 1.379 . S
C3350 N3357 1.356 . S
C3351 C3350 1.363 . S
C3351 C3354 1.363 . S
N3352 C3354 1.356 . S
N3352 H3364 0.984 . S
N3352 H3365 0.985 . S
N3353 C3355 1.356 . S
N3353 H3358 0.984 . S
N3353 H3359 0.985 . S
C3354 C3348 1.379 . S
C3354 C3351 1.363 . S
C3354 N3352 1.356 . S
C3355 C3349 1.363 . S
C3355 C3350 1.379 . S
C3355 N3353 1.356 . S
N3356 C3348 1.356 . S
N3356 H3362 0.984 . S
N3356 H3363 0.984 . S
N3357 C3350 1.356 . S
N3357 H3360 0.984 . S
N3357 H3361 0.985 . S
H3358 N3353 0.984 . S
H3359 N3353 0.985 . S
H3360 N3357 0.984 . S
H3361 N3357 0.985 . S
H3362 N3356 0.984 . S
H3363 N3356 0.984 . S
H3364 N3352 0.984 . S
H3365 N3352 0.985 . S
C3366 C3367 1.363 . S
C3366 C3372 1.379 . S
C3366 N3374 1.356 . S
C3367 C3366 1.363 . S
C3367 C3373 1.363 . S
C3368 C3369 1.363 . S
C3368 C3373 1.379 . S
C3368 N3375 1.356 . S
C3369 C3368 1.363 . S
C3369 C3372 1.363 . S
N3370 C3372 1.356 . S
N3370 H3382 0.984 . S
N3370 H3383 0.985 . S
N3371 C3373 1.356 . S
N3371 H3376 0.984 . S
N3371 H3377 0.985 . S
C3372 C3366 1.379 . S
C3372 C3369 1.363 . S
C3372 N3370 1.356 . S
C3373 C3367 1.363 . S
C3373 C3368 1.379 . S
C3373 N3371 1.356 . S
N3374 C3366 1.356 . S
N3374 H3380 0.984 . S
N3374 H3381 0.984 . S
N3375 C3368 1.356 . S
N3375 H3378 0.984 . S
N3375 H3379 0.985 . S
H3376 N3371 0.984 . S
H3377 N3371 0.985 . S
H3378 N3375 0.984 . S
H3379 N3375 0.985 . S
H3380 N3374 0.984 . S
H3381 N3374 0.984 . S
H3382 N3370 0.984 . S
H3383 N3370 0.985 . S
C1441 C9 1.755 . S
C1443 C99 1.854 1_545 S
C1459 C19 1.853 1_655 S
C1461 C49 1.754 1_545 S
C1477 C89 1.754 1_655 S
C1479 C59 1.853 . S
C1495 C129 1.821 . S
C1497 C179 1.919 1_455 S
C1513 C219 1.919 . S
C1515 C169 1.821 1_565 S
C1531 C209 1.820 1_455 S
C1533 C139 1.919 1_565 S
C1549 C258 1.755 . S
C1551 C330 1.854 1_565 S
C1567 C298 1.754 1_565 S
C1569 C250 1.853 1_455 S
C1585 C338 1.754 1_455 S
C1587 C290 1.853 . S
C1603 C378 1.821 . S
C1605 C410 1.919 1_655 S
C1621 C450 1.919 . S
C1623 C418 1.821 1_545 S
C1639 C370 1.919 1_545 S
C1641 C458 1.820 1_655 S
C1657 C579 1.910 . S
C1659 C489 1.810 . S
C1675 C529 1.811 . S
C1677 C499 1.911 . S
C1693 C539 1.910 . S
C1695 C569 1.810 . S
C1711 C609 1.837 . S
C1713 C659 1.935 . S
C1729 C699 1.935 . S
C1731 C649 1.837 . S
C1747 C619 1.934 . S
C1749 C689 1.836 . S
C1765 C738 1.781 . S
C1767 C810 1.880 . S
C1783 C778 1.781 . S
C1785 C730 1.880 . S
C1801 C770 1.880 . S
C1803 C818 1.782 . S
C1819 C890 1.778 . S
C1821 C858 1.696 1_554 S
C1837 C898 1.696 1_554 S
C1839 C930 1.778 . S
C1855 C850 1.778 . S
C1857 C938 1.697 1_554 S
C1873 C969 1.781 . S
C1875 C1059 1.880 . S
C1891 C1009 1.781 . S
C1893 C979 1.880 . S
C1909 C1049 1.782 . S
C1911 C1019 1.880 . S
C1927 C1089 1.696 1_556 S
C1929 C1139 1.778 . S
C1945 C1129 1.696 1_556 S
C1947 C1179 1.778 . S
C1963 C1169 1.697 1_556 S
C1965 C1099 1.778 . S
C1981 C1218 1.810 . S
C1983 C1290 1.910 . S
C1999 C1258 1.811 . S
C2001 C1210 1.911 . S
C2017 C1250 1.910 . S
C2019 C1298 1.810 . S
C2035 C1338 1.837 . S
C2037 C1370 1.935 . S
C2053 C1378 1.837 . S
C2055 C1410 1.935 . S
C2071 C1330 1.934 . S
C2073 C1418 1.836 . S
C2089 C10 1.887 . S
C2091 C809 1.860 . S
C2107 C729 1.861 1_565 S
C2109 C50 1.888 . S
C2125 C90 1.888 . S
C2127 C769 1.860 1_455 S
C2143 C130 1.806 . S
C2145 C1369 1.770 . S
C2161 C1409 1.770 1_545 S
C2163 C170 1.807 . S
C2179 C210 1.807 . S
C2181 C1329 1.770 1_655 S
C2197 C1058 1.860 . S
C2199 C259 1.887 . S
C2215 C299 1.888 . S
C2217 C978 1.861 1_545 S
C2233 C339 1.888 . S
C2235 C1018 1.860 1_655 S
C2251 C658 1.770 . S
C2253 C379 1.806 . S
C2269 C698 1.770 1_565 S
C2271 C419 1.807 . S
C2287 C618 1.770 1_455 S
C2289 C459 1.807 . S
C2305 C490 1.848 . S
C2307 C1289 1.816 . S
C2323 C530 1.847 . S
C2325 C1209 1.815 . S
C2341 C1249 1.816 . S
C2343 C570 1.848 . S
C2359 C409 1.806 . S
C2361 C610 1.840 1_455 S
C2377 C449 1.806 . S
C2379 C650 1.840 . S
C2395 C369 1.806 . S
C2397 C690 1.840 1_565 S
C2413 C98 1.856 . S
C2415 C739 1.881 1_565 S
C2431 C779 1.881 1_455 S
C2433 C18 1.856 . S
C2449 C819 1.882 . S
C2451 C58 1.857 . S
C2467 C1138 1.827 . S
C2469 C859 1.873 . S
C2485 C1178 1.827 . S
C2487 C899 1.874 . S
C2503 C939 1.873 . S
C2505 C1098 1.826 . S
C2521 C329 1.856 . S
C2523 C970 1.881 1_545 S
C2539 C249 1.856 . S
C2541 C1010 1.881 1_655 S
C2557 C289 1.857 . S
C2559 C1050 1.882 . S
C2575 C1090 1.873 . S
C2577 C889 1.827 . S
C2593 C929 1.827 . S
C2595 C1130 1.874 . S
C2611 C1170 1.873 . S
C2613 C849 1.826 . S
C2629 C1219 1.848 . S
C2631 C578 1.816 . S
C2647 C1259 1.847 . S
C2649 C498 1.815 . S
C2665 C1299 1.848 . S
C2667 C538 1.816 . S
C2683 C1339 1.840 1_655 S
C2685 C178 1.806 . S
C2701 C218 1.806 . S
C2703 C1379 1.840 . S
C2719 C138 1.806 . S
C2721 C1419 1.840 1_545 S
C2737 C1166 2.296 . S
C2739 C6 2.289 . S
C2755 C1086 2.296 . S
C2757 C46 2.289 . S
C2773 C86 2.302 . S
C2775 C1126 2.283 . S
C2791 C526 2.464 . S
C2793 C126 2.462 . S
C2809 C166 2.462 . S
C2811 C566 2.464 . S
C2827 C206 2.462 . S
C2829 C486 2.464 . S
C2845 C255 2.302 . S
C2847 C935 2.283 . S
C2863 C295 2.302 . S
C2865 C855 2.283 . S
C2881 C335 2.302 . S
C2883 C895 2.283 . S
C2899 C1255 2.464 . S
C2901 C375 2.462 . S
C2917 C1295 2.464 . S
C2919 C415 2.462 . S
C2935 C1215 2.464 . S
C2937 C455 2.462 . S
C2953 C606 2.494 . S
C2955 C1006 2.498 . S
C2971 C646 2.494 . S
C2973 C1046 2.498 . S
C2989 C686 2.494 . S
C2991 C966 2.498 . S
C3007 C735 2.498 . S
C3009 C1415 2.494 . S
C3025 C1335 2.494 . S
C3027 C775 2.498 . S
C3043 C815 2.498 . S
C3045 C1375 2.494 . S
C3061 C175 1.251 . S
C3063 C15 1.253 . S
C3079 C215 1.251 . S
C3081 C55 1.253 . S
C3097 C135 1.251 . S
C3099 C95 1.253 . S
C3115 C246 1.253 . S
C3117 C406 1.251 . S
C3133 C446 1.251 . S
C3135 C286 1.252 . S
C3151 C326 1.253 . S
C3153 C366 1.251 . S
C3169 C655 1.317 . S
C3171 C495 1.318 . S
C3187 C695 1.317 . S
C3189 C535 1.318 . S
C3205 C615 1.317 . S
C3207 C575 1.318 . S
C3223 C886 1.543 . S
C3225 C726 1.576 . S
C3241 C766 1.563 . S
C3243 C926 1.556 . S
C3259 C806 1.563 . S
C3261 C846 1.556 . S
C3277 C975 1.563 . S
C3279 C1135 1.556 . S
C3295 C1175 1.543 . S
C3297 C1015 1.575 . S
C3313 C1055 1.563 . S
C3315 C1095 1.556 . S
C3331 C1206 1.318 . S
C3333 C1366 1.317 . S
C3349 C1406 1.317 . S
C3351 C1246 1.318 . S
C3367 C1286 1.318 . S
C3369 C1326 1.317 . S
