# Generated by pormake.
# Topology swd, (7)-cn, num edge types: 1
# Building blocks:
#     Node 0, Type 0, BuildingBlock: HICVOG_clean_sbu_0, # of connection points: 7
#     Node 1, Type 0, BuildingBlock: HICVOG_clean_sbu_0, # of connection points: 7
#     Node 2, Type 0, BuildingBlock: HICVOG_clean_sbu_0, # of connection points: 7
#     Node 3, Type 0, BuildingBlock: HICVOG_clean_sbu_0, # of connection points: 7
#     Node 4, Type 0, BuildingBlock: HICVOG_clean_sbu_0, # of connection points: 7
#     Node 5, Type 0, BuildingBlock: HICVOG_clean_sbu_0, # of connection points: 7
#     Node 6, Type 0, BuildingBlock: HICVOG_clean_sbu_0, # of connection points: 7
#     Node 7, Type 0, BuildingBlock: HICVOG_clean_sbu_0, # of connection points: 7
#     Node 8, Type 0, BuildingBlock: HICVOG_clean_sbu_0, # of connection points: 7
#     Node 9, Type 0, BuildingBlock: HICVOG_clean_sbu_0, # of connection points: 7
#     Node 10, Type 0, BuildingBlock: HICVOG_clean_sbu_0, # of connection points: 7
#     Node 11, Type 0, BuildingBlock: HICVOG_clean_sbu_0, # of connection points: 7
#     Node 12, Type 0, BuildingBlock: HICVOG_clean_sbu_0, # of connection points: 7
#     Node 13, Type 0, BuildingBlock: HICVOG_clean_sbu_0, # of connection points: 7
#     Node 14, Type 0, BuildingBlock: HICVOG_clean_sbu_0, # of connection points: 7
#     Node 15, Type 0, BuildingBlock: HICVOG_clean_sbu_0, # of connection points: 7
#     Node 16, Type 0, BuildingBlock: HICVOG_clean_sbu_0, # of connection points: 7
#     Node 17, Type 0, BuildingBlock: HICVOG_clean_sbu_0, # of connection points: 7
#     Edge 18, Type (0, 0), BuildingBlock: KIFKEQ_clean_linker_1, # of connection points: 2
#     Edge 19, Type (0, 0), BuildingBlock: KIFKEQ_clean_linker_1, # of connection points: 2
#     Edge 20, Type (0, 0), BuildingBlock: KIFKEQ_clean_linker_1, # of connection points: 2
#     Edge 21, Type (0, 0), BuildingBlock: KIFKEQ_clean_linker_1, # of connection points: 2
#     Edge 22, Type (0, 0), BuildingBlock: KIFKEQ_clean_linker_1, # of connection points: 2
#     Edge 23, Type (0, 0), BuildingBlock: KIFKEQ_clean_linker_1, # of connection points: 2
#     Edge 24, Type (0, 0), BuildingBlock: KIFKEQ_clean_linker_1, # of connection points: 2
#     Edge 25, Type (0, 0), BuildingBlock: KIFKEQ_clean_linker_1, # of connection points: 2
#     Edge 26, Type (0, 0), BuildingBlock: KIFKEQ_clean_linker_1, # of connection points: 2
#     Edge 27, Type (0, 0), BuildingBlock: KIFKEQ_clean_linker_1, # of connection points: 2
#     Edge 28, Type (0, 0), BuildingBlock: KIFKEQ_clean_linker_1, # of connection points: 2
#     Edge 29, Type (0, 0), BuildingBlock: KIFKEQ_clean_linker_1, # of connection points: 2
#     Edge 30, Type (0, 0), BuildingBlock: KIFKEQ_clean_linker_1, # of connection points: 2
#     Edge 31, Type (0, 0), BuildingBlock: KIFKEQ_clean_linker_1, # of connection points: 2
#     Edge 32, Type (0, 0), BuildingBlock: KIFKEQ_clean_linker_1, # of connection points: 2
#     Edge 33, Type (0, 0), BuildingBlock: KIFKEQ_clean_linker_1, # of connection points: 2
#     Edge 34, Type (0, 0), BuildingBlock: KIFKEQ_clean_linker_1, # of connection points: 2
#     Edge 35, Type (0, 0), BuildingBlock: KIFKEQ_clean_linker_1, # of connection points: 2
#     Edge 36, Type (0, 0), BuildingBlock: KIFKEQ_clean_linker_1, # of connection points: 2
#     Edge 37, Type (0, 0), BuildingBlock: KIFKEQ_clean_linker_1, # of connection points: 2
#     Edge 38, Type (0, 0), BuildingBlock: KIFKEQ_clean_linker_1, # of connection points: 2
#     Edge 39, Type (0, 0), BuildingBlock: KIFKEQ_clean_linker_1, # of connection points: 2
#     Edge 40, Type (0, 0), BuildingBlock: KIFKEQ_clean_linker_1, # of connection points: 2
#     Edge 41, Type (0, 0), BuildingBlock: KIFKEQ_clean_linker_1, # of connection points: 2
#     Edge 42, Type (0, 0), BuildingBlock: KIFKEQ_clean_linker_1, # of connection points: 2
#     Edge 43, Type (0, 0), BuildingBlock: KIFKEQ_clean_linker_1, # of connection points: 2
#     Edge 44, Type (0, 0), BuildingBlock: KIFKEQ_clean_linker_1, # of connection points: 2
#     Edge 45, Type (0, 0), BuildingBlock: KIFKEQ_clean_linker_1, # of connection points: 2
#     Edge 46, Type (0, 0), BuildingBlock: KIFKEQ_clean_linker_1, # of connection points: 2
#     Edge 47, Type (0, 0), BuildingBlock: KIFKEQ_clean_linker_1, # of connection points: 2
#     Edge 48, Type (0, 0), BuildingBlock: KIFKEQ_clean_linker_1, # of connection points: 2
#     Edge 49, Type (0, 0), BuildingBlock: KIFKEQ_clean_linker_1, # of connection points: 2
#     Edge 50, Type (0, 0), BuildingBlock: KIFKEQ_clean_linker_1, # of connection points: 2
#     Edge 51, Type (0, 0), BuildingBlock: KIFKEQ_clean_linker_1, # of connection points: 2
#     Edge 52, Type (0, 0), BuildingBlock: KIFKEQ_clean_linker_1, # of connection points: 2
#     Edge 53, Type (0, 0), BuildingBlock: KIFKEQ_clean_linker_1, # of connection points: 2
#     Edge 54, Type (0, 0), BuildingBlock: KIFKEQ_clean_linker_1, # of connection points: 2
#     Edge 55, Type (0, 0), BuildingBlock: KIFKEQ_clean_linker_1, # of connection points: 2
#     Edge 56, Type (0, 0), BuildingBlock: KIFKEQ_clean_linker_1, # of connection points: 2
#     Edge 57, Type (0, 0), BuildingBlock: KIFKEQ_clean_linker_1, # of connection points: 2
#     Edge 58, Type (0, 0), BuildingBlock: KIFKEQ_clean_linker_1, # of connection points: 2
#     Edge 59, Type (0, 0), BuildingBlock: KIFKEQ_clean_linker_1, # of connection points: 2
#     Edge 60, Type (0, 0), BuildingBlock: KIFKEQ_clean_linker_1, # of connection points: 2
#     Edge 61, Type (0, 0), BuildingBlock: KIFKEQ_clean_linker_1, # of connection points: 2
#     Edge 62, Type (0, 0), BuildingBlock: KIFKEQ_clean_linker_1, # of connection points: 2
#     Edge 63, Type (0, 0), BuildingBlock: KIFKEQ_clean_linker_1, # of connection points: 2
#     Edge 64, Type (0, 0), BuildingBlock: KIFKEQ_clean_linker_1, # of connection points: 2
#     Edge 65, Type (0, 0), BuildingBlock: KIFKEQ_clean_linker_1, # of connection points: 2
#     Edge 66, Type (0, 0), BuildingBlock: KIFKEQ_clean_linker_1, # of connection points: 2
#     Edge 67, Type (0, 0), BuildingBlock: KIFKEQ_clean_linker_1, # of connection points: 2
#     Edge 68, Type (0, 0), BuildingBlock: KIFKEQ_clean_linker_1, # of connection points: 2
#     Edge 69, Type (0, 0), BuildingBlock: KIFKEQ_clean_linker_1, # of connection points: 2
#     Edge 70, Type (0, 0), BuildingBlock: KIFKEQ_clean_linker_1, # of connection points: 2
#     Edge 71, Type (0, 0), BuildingBlock: KIFKEQ_clean_linker_1, # of connection points: 2
#     Edge 72, Type (0, 0), BuildingBlock: KIFKEQ_clean_linker_1, # of connection points: 2
#     Edge 73, Type (0, 0), BuildingBlock: KIFKEQ_clean_linker_1, # of connection points: 2
#     Edge 74, Type (0, 0), BuildingBlock: KIFKEQ_clean_linker_1, # of connection points: 2
#     Edge 75, Type (0, 0), BuildingBlock: KIFKEQ_clean_linker_1, # of connection points: 2
#     Edge 76, Type (0, 0), BuildingBlock: KIFKEQ_clean_linker_1, # of connection points: 2
#     Edge 77, Type (0, 0), BuildingBlock: KIFKEQ_clean_linker_1, # of connection points: 2
#     Edge 78, Type (0, 0), BuildingBlock: KIFKEQ_clean_linker_1, # of connection points: 2
#     Edge 79, Type (0, 0), BuildingBlock: KIFKEQ_clean_linker_1, # of connection points: 2
#     Edge 80, Type (0, 0), BuildingBlock: KIFKEQ_clean_linker_1, # of connection points: 2
# Relax obj value: 0.424
# Max RMSD: 0.305
# Mean RMSD: 0.304
data_MOF--net-swd--node1-HICVOG_clean_sbu_0--edge1-KIFKEQ_clean_linker_1
_symmetry_space_group_name_H-M    P1
_symmetry_Int_Tables_number       1
_symmetry_cell_setting            triclinic
loop_
_symmetry_equiv_pos_as_xyz
'x, y, z'
_cell_length_a     50.352357
_cell_length_b     50.363169
_cell_length_c     34.505323
_cell_angle_alpha  90.030125
_cell_angle_beta   89.897815
_cell_angle_gamma 120.08867
loop_
_atom_site_label
_atom_site_type_symbol
_atom_site_fract_x
_atom_site_fract_y
_atom_site_fract_z
_atom_type_partial_charge
Zn0 Zn 0.2317 0.15858 0.37254 0.0
C1 C 0.22546 0.10543 0.46202 0.0
N2 N 0.22547 0.12757 0.4837 0.0
C3 C 0.23165 0.14979 0.45772 0.0
N4 N 0.23456 0.14149 0.42146 0.0
N5 N 0.23184 0.11405 0.42448 0.0
C6 C 0.20484 0.03349 0.35192 0.0
O7 O 0.22373 0.04525 0.32239 0.0
O8 O 0.2435 0.20322 0.37662 0.0
Zn9 Zn 0.24326 0.09403 0.38574 0.0
N10 N 0.19023 0.13283 0.35366 0.0
C11 C 0.15406 0.08341 0.32954 0.0
C12 C 0.18297 0.10375 0.34424 0.0
C13 C 0.16934 0.1423 0.34975 0.0
N14 N 0.13327 0.09279 0.32539 0.0
C15 C 0.13986 0.12164 0.33529 0.0
O16 O 0.25523 0.11252 0.3317 0.0
C17 C 0.26426 0.13832 0.31541 0.0
O18 O 0.25975 0.15866 0.33081 0.0
H19 H 0.19957 0.09642 0.34813 0.0
H20 H 0.17575 0.16559 0.35741 0.0
C21 C 0.29447 0.08571 0.38095 0.0
C22 C 0.32491 0.0934 0.38762 0.0
C23 C 0.32817 0.1263 0.43874 0.0
C24 C 0.29809 0.11916 0.43144 0.0
N25 N 0.28184 0.09893 0.40273 0.0
N26 N 0.34105 0.11357 0.41637 0.0
H27 H 0.28146 0.07074 0.35727 0.0
C28 C 0.27144 0.22112 0.38556 0.0
O29 O 0.28847 0.20904 0.39462 0.0
O30 O 0.2095 0.04969 0.38211 0.0
H31 H 0.28828 0.13046 0.44773 0.0
H32 H 0.1481 0.06026 0.3217 0.0
H33 H 0.34146 0.14244 0.4613 0.0
Zn34 Zn 0.90455 0.14968 0.37382 0.0
C35 C 0.84072 0.09499 0.45203 0.0
N36 N 0.86156 0.11441 0.47759 0.0
C37 C 0.88544 0.13268 0.45485 0.0
N38 N 0.87925 0.12518 0.41695 0.0
N39 N 0.85134 0.10086 0.41519 0.0
C40 C 0.77009 0.0631 0.36967 0.0
O41 O 0.78424 0.09309 0.366 0.0
O42 O 0.93738 0.13901 0.36149 0.0
Zn43 Zn 0.83221 0.07785 0.36792 0.0
N44 N 0.9252 0.19138 0.39211 0.0
C45 C 0.92588 0.22976 0.43297 0.0
C46 C 0.90996 0.20091 0.41572 0.0
C47 C 0.95525 0.21016 0.38323 0.0
N48 N 0.95598 0.24848 0.42428 0.0
C49 C 0.97107 0.23955 0.39944 0.0
O50 O 0.83678 0.10569 0.32325 0.0
C51 C 0.85574 0.13176 0.30903 0.0
O52 O 0.88133 0.14939 0.3254 0.0
H53 H 0.88593 0.18576 0.4222 0.0
H54 H 0.96671 0.20232 0.36376 0.0
C55 C 0.83879 0.02373 0.35301 0.0
C56 C 0.85415 0.00988 0.33562 0.0
C57 C 0.89447 0.05898 0.31655 0.0
C58 C 0.87901 0.07254 0.33317 0.0
N59 N 0.85163 0.05487 0.35109 0.0
N60 N 0.8816 0.02805 0.31785 0.0
H61 H 0.8165 0.00992 0.36636 0.0
C62 C 0.95314 0.14575 0.33052 0.0
O63 O 0.94658 0.1585 0.30169 0.0
O64 O 0.7861 0.05015 0.37317 0.0
H65 H 0.8882 0.09696 0.3309 0.0
H66 H 0.91435 0.23739 0.45269 0.0
H67 H 0.91625 0.07285 0.30206 0.0
Zn68 Zn 0.92186 0.76967 0.35068 0.0
C69 C 0.88286 0.79579 0.43289 0.0
N70 N 0.90618 0.79875 0.4548 0.0
C71 C 0.92047 0.78872 0.43111 0.0
N72 N 0.90643 0.77964 0.39644 0.0
N73 N 0.88222 0.78332 0.39787 0.0
C74 C 0.83667 0.80392 0.33445 0.0
O75 O 0.85782 0.80319 0.3129 0.0
O76 O 0.94782 0.75102 0.3642 0.0
Zn77 Zn 0.84424 0.7582 0.37041 0.0
N78 N 0.94645 0.80745 0.32247 0.0
C79 C 0.94755 0.84239 0.27535 0.0
C80 C 0.9315 0.81508 0.29598 0.0
C81 C 0.97703 0.82597 0.3291 0.0
N82 N 0.97789 0.86116 0.2824 0.0
C83 C 0.99332 0.85397 0.30893 0.0
O84 O 0.84488 0.73796 0.31893 0.0
C85 C 0.86251 0.73058 0.3013 0.0
O86 O 0.88985 0.74021 0.31278 0.0
H87 H 0.90726 0.8 0.29097 0.0
H88 H 0.9884 0.81869 0.34941 0.0
C89 C 0.79194 0.70258 0.39299 0.0
C90 C 0.7748 0.67599 0.41524 0.0
C91 C 0.81525 0.69392 0.46073 0.0
C92 C 0.83261 0.71981 0.43787 0.0
N93 N 0.82034 0.72403 0.40488 0.0
N94 N 0.78672 0.67258 0.44896 0.0
H95 H 0.78302 0.70627 0.36626 0.0
C96 C 0.93356 0.72213 0.36913 0.0
O97 O 0.9034 0.70721 0.36907 0.0
O98 O 0.82455 0.78433 0.36158 0.0
H99 H 0.85582 0.73589 0.44632 0.0
H100 H 0.93596 0.84878 0.25413 0.0
H101 H 0.8246 0.69055 0.48727 0.0
Zn102 Zn 0.14395 0.24193 0.67297 0.0
C103 C 0.08939 0.23834 0.58476 0.0
N104 N 0.11238 0.24162 0.56184 0.0
C105 C 0.13354 0.24381 0.58732 0.0
N106 N 0.12396 0.24171 0.62442 0.0
N107 N 0.09647 0.2391 0.62277 0.0
C108 C 0.04161 0.17366 0.67603 0.0
O109 O 0.06259 0.17476 0.65233 0.0
O110 O 0.18912 0.25544 0.66653 0.0
Zn111 Zn 0.07343 0.24088 0.66708 0.0
N112 N 0.12237 0.20271 0.70033 0.0
C113 C 0.08814 0.17511 0.75213 0.0
C114 C 0.10268 0.20097 0.72859 0.0
C115 C 0.12808 0.1792 0.69472 0.0
N116 N 0.09415 0.15198 0.74698 0.0
C117 C 0.11368 0.15319 0.71887 0.0
O118 O 0.09928 0.26982 0.71075 0.0
C119 C 0.12662 0.28146 0.72349 0.0
O120 O 0.14501 0.27336 0.71006 0.0
H121 H 0.09823 0.21954 0.73302 0.0
H122 H 0.14441 0.18117 0.67291 0.0
C123 C 0.01947 0.24483 0.65914 0.0
C124 C 0.00131 0.25641 0.64447 0.0
C125 C 0.04428 0.29343 0.60826 0.0
C126 C 0.06236 0.28247 0.62399 0.0
N127 N 0.04943 0.2581 0.64851 0.0
N128 N 0.0144 0.28036 0.61907 0.0
H129 H 0.01014 0.22538 0.67851 0.0
C130 C 0.20695 0.2843 0.66389 0.0
O131 O 0.19489 0.30208 0.6611 0.0
O132 O 0.04318 0.19848 0.68712 0.0
H133 H 0.08628 0.29267 0.61597 0.0
H134 H 0.07241 0.17355 0.77461 0.0
H135 H 0.05395 0.31242 0.58806 0.0
Zn136 Zn 0.74409 0.84006 0.64844 0.0
C137 C 0.75213 0.90855 0.5811 0.0
N138 N 0.75892 0.89411 0.55342 0.0
C139 C 0.76194 0.87309 0.57374 0.0
N140 N 0.75611 0.87389 0.61192 0.0
N141 N 0.75131 0.89722 0.61675 0.0
C142 C 0.71285 0.93689 0.6639 0.0
O143 O 0.69595 0.907 0.65965 0.0
O144 O 0.77989 0.83306 0.65751 0.0
Zn145 Zn 0.75463 0.91628 0.66649 0.0
N146 N 0.71058 0.8042 0.62433 0.0
C147 C 0.67304 0.77885 0.57512 0.0
C148 C 0.69923 0.80472 0.5887 0.0
C149 C 0.69601 0.77911 0.64741 0.0
N150 N 0.65843 0.75389 0.5983 0.0
C151 C 0.66903 0.75329 0.63436 0.0
O152 O 0.72706 0.88688 0.70703 0.0
C153 C 0.71833 0.8599 0.71897 0.0
O154 O 0.72512 0.8421 0.70066 0.0
H155 H 0.70935 0.8251 0.57126 0.0
H156 H 0.70469 0.78016 0.67635 0.0
C157 C 0.81916 0.96068 0.68539 0.0
C158 C 0.84882 0.96761 0.69739 0.0
C159 C 0.83001 0.91435 0.70729 0.0
C160 C 0.8011 0.90774 0.69506 0.0
N161 N 0.79612 0.93084 0.68446 0.0
N162 N 0.85303 0.94392 0.70805 0.0
H163 H 0.81418 0.97837 0.67696 0.0
C164 C 0.78759 0.82661 0.6897 0.0
O165 O 0.77092 0.82306 0.72068 0.0
O166 O 0.74189 0.94883 0.66534 0.0
H167 H 0.78267 0.88426 0.69368 0.0
H168 H 0.66385 0.77892 0.54683 0.0
H169 H 0.83426 0.89614 0.7158 0.0
Zn170 Zn 0.13975 0.91575 0.67109 0.0
C171 C 0.08784 0.85207 0.59098 0.0
N172 N 0.1071 0.87356 0.56586 0.0
C173 C 0.12464 0.89744 0.5889 0.0
N174 N 0.11677 0.89069 0.62672 0.0
N175 N 0.0931 0.86234 0.62798 0.0
C176 C 0.05348 0.78046 0.66076 0.0
O177 O 0.08318 0.79395 0.6544 0.0
O178 O 0.12816 0.948 0.68377 0.0
Zn179 Zn 0.07076 0.8425 0.67532 0.0
N180 N 0.1818 0.93748 0.65436 0.0
C181 C 0.22191 0.93824 0.61722 0.0
C182 C 0.1921 0.9225 0.63157 0.0
C183 C 0.2004 0.96725 0.6647 0.0
N184 N 0.24062 0.96785 0.62784 0.0
C185 C 0.23093 0.98291 0.65166 0.0
O186 O 0.09933 0.84488 0.71822 0.0
C187 C 0.12456 0.86507 0.73325 0.0
O188 O 0.14003 0.89187 0.71872 0.0
H189 H 0.17705 0.89868 0.62407 0.0
H190 H 0.19141 0.97835 0.68296 0.0
C191 C 0.0178 0.85035 0.69094 0.0
C192 C 0.00392 0.866 0.70779 0.0
C193 C 0.05283 0.90438 0.73062 0.0
C194 C 0.06624 0.8887 0.71428 0.0
N195 N 0.04871 0.86228 0.6945 0.0
N196 N 0.02217 0.89269 0.72706 0.0
H197 H 0.00432 0.82866 0.67626 0.0
C198 C 0.1317 0.96244 0.71527 0.0
O199 O 0.14116 0.95463 0.7464 0.0
O200 O 0.04167 0.79704 0.66838 0.0
H201 H 0.09042 0.89715 0.71782 0.0
H202 H 0.23035 0.9269 0.59841 0.0
H203 H 0.06656 0.92548 0.74646 0.0
Zn204 Zn 0.90166 0.48853 0.69596 0.0
C205 C 0.9036 0.43702 0.78368 0.0
N206 N 0.91017 0.4612 0.80627 0.0
C207 C 0.91207 0.48226 0.78061 0.0
N208 N 0.90647 0.4713 0.74393 0.0
N209 N 0.90197 0.44314 0.74595 0.0
C210 C 0.84849 0.36472 0.66504 0.0
O211 O 0.86914 0.36702 0.63986 0.0
O212 O 0.91613 0.53383 0.69997 0.0
Zn213 Zn 0.90048 0.4172 0.70366 0.0
N214 N 0.85944 0.46581 0.67844 0.0
C215 C 0.82316 0.42275 0.64197 0.0
C216 C 0.85225 0.44006 0.65793 0.0
C217 C 0.83854 0.47521 0.68358 0.0
N218 N 0.80245 0.43218 0.64662 0.0
C219 C 0.80917 0.45798 0.66697 0.0
O220 O 0.92519 0.44042 0.65517 0.0
C221 C 0.93453 0.46656 0.63931 0.0
O222 O 0.9275 0.48569 0.65314 0.0
H223 H 0.86925 0.43334 0.65344 0.0
H224 H 0.84503 0.49624 0.69914 0.0
C225 C 0.9067 0.36598 0.72713 0.0
C226 C 0.92173 0.35215 0.74508 0.0
C227 C 0.96393 0.40175 0.75901 0.0
C228 C 0.94934 0.41519 0.73993 0.0
N229 N 0.92103 0.39705 0.72459 0.0
N230 N 0.95 0.37072 0.76075 0.0
H231 H 0.88382 0.35248 0.71572 0.0
C232 C 0.94449 0.55178 0.70665 0.0
O233 O 0.962 0.53985 0.71356 0.0
O234 O 0.85655 0.38429 0.69222 0.0
H235 H 0.96 0.4399 0.73824 0.0
H236 H 0.81717 0.40219 0.62556 0.0
H237 H 0.9863 0.4158 0.77191 0.0
Zn238 Zn 0.56749 0.47498 0.72071 0.0
C239 C 0.51265 0.39378 0.77091 0.0
N240 N 0.53597 0.40209 0.79571 0.0
C241 C 0.55839 0.42825 0.7801 0.0
N242 N 0.54863 0.43587 0.74742 0.0
N243 N 0.52008 0.41364 0.7414 0.0
C244 C 0.43636 0.38934 0.70661 0.0
O245 O 0.45097 0.4192 0.7118 0.0
O246 O 0.61211 0.48765 0.71146 0.0
Zn247 Zn 0.49772 0.40462 0.69344 0.0
N248 N 0.56206 0.5023 0.75514 0.0
C249 C 0.54406 0.51329 0.81354 0.0
C250 C 0.54801 0.49286 0.79028 0.0
C251 C 0.57115 0.53085 0.74179 0.0
N252 N 0.5534 0.54201 0.80025 0.0
C253 C 0.56645 0.55116 0.76462 0.0
O254 O 0.50171 0.4409 0.66429 0.0
C255 C 0.52325 0.4669 0.65319 0.0
O256 O 0.54976 0.47929 0.66878 0.0
H257 H 0.54002 0.46979 0.80037 0.0
H258 H 0.58197 0.53754 0.71358 0.0
C259 C 0.50629 0.35567 0.66401 0.0
C260 C 0.5188 0.34265 0.63897 0.0
C261 C 0.54469 0.38972 0.60447 0.0
C262 C 0.5326 0.40257 0.62964 0.0
N263 N 0.51364 0.38538 0.6589 0.0
N264 N 0.53758 0.36021 0.60973 0.0
H265 H 0.49061 0.34242 0.68693 0.0
C266 C 0.61554 0.46727 0.69418 0.0
O267 O 0.59094 0.44217 0.6825 0.0
O268 O 0.45194 0.37615 0.70088 0.0
H269 H 0.53851 0.42614 0.62584 0.0
H270 H 0.53339 0.50628 0.84177 0.0
H271 H 0.55979 0.40315 0.58107 0.0
Zn272 Zn 0.57371 0.09039 0.70424 0.0
C273 C 0.52093 0.08816 0.79412 0.0
N274 N 0.5408 0.0846 0.81619 0.0
C275 C 0.55997 0.08355 0.78975 0.0
N276 N 0.55243 0.08664 0.75311 0.0
N277 N 0.52733 0.08872 0.75599 0.0
C278 C 0.49641 0.13315 0.66996 0.0
O279 O 0.47796 0.10991 0.64785 0.0
O280 O 0.60488 0.07588 0.70769 0.0
Zn281 Zn 0.50026 0.08629 0.71476 0.0
N282 N 0.5922 0.13204 0.68423 0.0
C283 C 0.58235 0.16619 0.64762 0.0
C284 C 0.57211 0.13783 0.6651 0.0
C285 C 0.62264 0.15358 0.68615 0.0
N286 N 0.61257 0.18758 0.64924 0.0
C287 C 0.63326 0.18227 0.66793 0.0
O288 O 0.49913 0.06104 0.66805 0.0
C289 C 0.51691 0.05354 0.65108 0.0
O290 O 0.54414 0.06316 0.66298 0.0
H291 H 0.54836 0.12018 0.66282 0.0
H292 H 0.63839 0.14807 0.70039 0.0
C293 C 0.44122 0.0771 0.73645 0.0
C294 C 0.41254 0.06176 0.7551 0.0
C295 C 0.42356 0.0231 0.77531 0.0
C296 C 0.45147 0.03799 0.75576 0.0
N297 N 0.45981 0.06476 0.73707 0.0
N298 N 0.40477 0.03514 0.77423 0.0
H299 H 0.44922 0.09883 0.72222 0.0
C300 C 0.59336 0.0469 0.70648 0.0
O301 O 0.56333 0.02941 0.70677 0.0
O302 O 0.50913 0.12846 0.69883 0.0
H303 H 0.46684 0.02883 0.7563 0.0
H304 H 0.56651 0.17105 0.63235 0.0
H305 H 0.41669 0.00199 0.79088 0.0
Zn306 Zn 0.74954 0.56013 0.99517 0.0
C307 C 0.803 0.54073 0.9323 0.0
N308 N 0.77946 0.53 0.90733 0.0
C309 C 0.75683 0.52882 0.92918 0.0
N310 N 0.76642 0.53939 0.96554 0.0
N311 N 0.7953 0.54596 0.96774 0.0
C312 C 0.87745 0.60446 0.99747 0.0
O313 O 0.86083 0.61786 0.99542 0.0
O314 O 0.70383 0.53123 1.00112 0.0
Zn315 Zn 0.81898 0.55555 1.01461 0.0
N316 N 0.75714 0.59471 0.96343 0.0
C317 C 0.78248 0.63019 0.91207 0.0
C318 C 0.77516 0.603 0.93115 0.0
C319 C 0.74685 0.6129 0.97785 0.0
N320 N 0.77265 0.64869 0.92697 0.0
C321 C 0.75537 0.64105 0.95985 0.0
O322 O 0.8147 0.58427 0.05144 0.0
C323 C 0.79501 0.59096 0.06395 0.0
O324 O 0.76888 0.58038 0.04773 0.0
H325 H 0.78456 0.58928 0.92066 0.0
H326 H 0.7327 0.60544 1.00362 0.0
C327 C 0.81875 0.50004 0.03721 0.0
C328 C 0.80886 0.47342 0.05958 0.0
C329 C 0.77426 0.48436 0.09307 0.0
C330 C 0.78377 0.51048 0.07038 0.0
N331 N 0.80597 0.51797 0.04316 0.0
N332 N 0.78699 0.46648 0.08718 0.0
H333 H 0.83681 0.50673 1.01603 0.0
C334 C 0.69049 0.52215 0.03374 0.0
O335 O 0.70658 0.53325 0.0656 0.0
O336 O 0.86405 0.57571 1.00327 0.0
H337 H 0.77373 0.52486 0.07465 0.0
H338 H 0.79659 0.63698 0.88624 0.0
H339 H 0.75682 0.47826 0.11508 0.0
Zn340 Zn 0.41717 0.24424 1.00479 0.0
C341 C 0.41534 0.18738 0.92107 0.0
N342 N 0.40882 0.20434 0.89725 0.0
C343 C 0.40744 0.22454 0.92157 0.0
N344 N 0.41315 0.22035 0.95866 0.0
N345 N 0.4174 0.19645 0.95838 0.0
C346 C 0.47173 0.17645 0.04435 0.0
O347 O 0.45201 0.16181 0.07235 0.0
O348 O 0.40035 0.27302 0.99812 0.0
Zn349 Zn 0.41918 0.17348 1.00261 0.0
N350 N 0.45944 0.26608 0.02209 0.0
C351 C 0.49776 0.25986 0.05389 0.0
C352 C 0.46829 0.24753 0.03914 0.0
C353 C 0.47871 0.29706 0.02017 0.0
N354 N 0.51702 0.29056 0.05199 0.0
C355 C 0.50858 0.30992 0.03586 0.0
O356 O 0.39582 0.17442 0.05073 0.0
C357 C 0.38611 0.19145 0.06476 0.0
O358 O 0.39241 0.21675 0.0489 0.0
H359 H 0.45215 0.22338 0.04185 0.0
H360 H 0.47043 0.31125 1.00777 0.0
C361 C 0.41129 0.11394 0.9886 0.0
C362 C 0.39621 0.08405 0.97352 0.0
C363 C 0.35586 0.09181 0.95148 0.0
C364 C 0.37049 0.12104 0.96763 0.0
N365 N 0.39801 0.13159 0.98544 0.0
N366 N 0.36888 0.07401 0.95508 0.0
H367 H 0.43346 0.12338 1.00219 0.0
C368 C 0.37134 0.26058 1.00101 0.0
O369 O 0.35482 0.23057 1.00403 0.0
O370 O 0.4629 0.18445 1.01434 0.0
H371 H 0.36052 0.13564 0.96508 0.0
H372 H 0.50516 0.24528 0.06737 0.0
H373 H 0.33418 0.08318 0.9366 0.0
Zn374 Zn 0.74281 0.1745 1.00112 0.0
C375 C 0.7901 0.2311 0.91393 0.0
N376 N 0.76711 0.21037 0.89188 0.0
C377 C 0.75132 0.18713 0.91678 0.0
N378 N 0.76337 0.19347 0.95274 0.0
N379 N 0.78848 0.22074 0.95048 0.0
C380 C 0.83651 0.29123 0.02637 0.0
O381 O 0.82813 0.27214 0.05577 0.0
O382 O 0.7102 0.12984 0.99565 0.0
Zn383 Zn 0.8228 0.23631 0.98506 0.0
N384 N 0.72605 0.19884 0.0212 0.0
C385 C 0.73827 0.24671 0.04946 0.0
C386 C 0.74748 0.22728 0.03336 0.0
C387 C 0.69552 0.189 0.02395 0.0
N388 N 0.70788 0.23699 0.05236 0.0
C389 C 0.68605 0.2087 0.03986 0.0
O390 O 0.8168 0.21491 0.03693 0.0
C391 C 0.79732 0.1915 0.05584 0.0
O392 O 0.77015 0.17449 0.04349 0.0
H393 H 0.77156 0.23462 0.03068 0.0
H394 H 0.67899 0.16608 1.01444 0.0
C395 C 0.88012 0.23948 0.97591 0.0
C396 C 0.90037 0.23012 0.96185 0.0
C397 C 0.86326 0.19893 0.91506 0.0
C398 C 0.84289 0.20735 0.93015 0.0
N399 N 0.85191 0.22779 0.95993 0.0
N400 N 0.89139 0.21033 0.93135 0.0
H401 H 0.88618 0.2555 0.99965 0.0
C402 C 0.71965 0.11158 0.98625 0.0
O403 O 0.74877 0.12315 0.97724 0.0
O404 O 0.83826 0.28171 0.99284 0.0
H405 H 0.81997 0.19722 0.91852 0.0
H406 H 0.7551 0.26936 0.05948 0.0
H407 H 0.85656 0.18294 0.89116 0.0
Zn408 Zn 0.56505 0.82207 0.02938 0.0
C409 C 0.56096 0.7699 0.11948 0.0
N410 N 0.56286 0.79287 0.14115 0.0
C411 C 0.56762 0.8143 0.11449 0.0
N412 N 0.56804 0.80475 0.07809 0.0
N413 N 0.56476 0.77711 0.08138 0.0
C414 C 0.53967 0.70366 1.00519 0.0
O415 O 0.54991 0.72171 0.97476 0.0
O416 O 0.57642 0.86654 0.03439 0.0
Zn417 Zn 0.58148 0.75967 0.046 0.0
N418 N 0.52365 0.79666 1.01051 0.0
C419 C 0.48853 0.74865 0.98205 0.0
C420 C 0.51741 0.76878 0.99704 0.0
C421 C 0.50191 0.80519 1.01025 0.0
N422 N 0.46686 0.7571 0.98149 0.0
C423 C 0.47251 0.78478 0.99537 0.0
O424 O 0.59716 0.78055 0.99364 0.0
C425 C 0.60229 0.8044 0.97482 0.0
O426 O 0.5931 0.82223 0.98719 0.0
H427 H 0.53491 0.76241 0.99793 0.0
H428 H 0.50763 0.82763 0.02096 0.0
C429 C 0.63229 0.75126 0.0564 0.0
C430 C 0.66173 0.75904 0.06949 0.0
C431 C 0.66062 0.79479 0.11327 0.0
C432 C 0.63217 0.7881 0.09875 0.0
N433 N 0.61836 0.76612 0.07102 0.0
N434 N 0.67485 0.78036 0.09811 0.0
H435 H 0.62057 0.73419 0.03417 0.0
C436 C 0.60438 0.88472 0.04297 0.0
O437 O 0.62181 0.87299 0.05153 0.0
O438 O 0.55109 0.71442 0.03827 0.0
H439 H 0.62181 0.8011 0.10883 0.0
H440 H 0.48333 0.72643 0.97102 0.0
H441 H 0.67177 0.81202 0.13553 0.0
Zn442 Zn 0.24059 0.81894 0.04373 0.0
C443 C 0.17516 0.765 0.12083 0.0
N444 N 0.19622 0.78385 0.14664 0.0
C445 C 0.22032 0.80201 0.12408 0.0
N446 N 0.21417 0.79488 0.08621 0.0
N447 N 0.18603 0.77113 0.08409 0.0
C448 C 0.10599 0.73305 0.03768 0.0
O449 O 0.11912 0.76309 0.03635 0.0
O450 O 0.2718 0.80605 0.03143 0.0
Zn451 Zn 0.16827 0.75006 0.03591 0.0
N452 N 0.26307 0.85988 0.06407 0.0
C453 C 0.2631 0.89948 0.10143 0.0
C454 C 0.24727 0.8707 0.08419 0.0
C455 C 0.29402 0.87687 0.05969 0.0
N456 N 0.29388 0.91678 0.09626 0.0
C457 C 0.31001 0.90654 0.07541 0.0
O458 O 0.17211 0.77973 0.9943 0.0
C459 C 0.19158 0.80568 0.9803 0.0
O460 O 0.21814 0.82176 0.99538 0.0
H461 H 0.22264 0.85673 0.08747 0.0
H462 H 0.30579 0.86731 0.04399 0.0
C463 C 0.17829 0.69852 0.02069 0.0
C464 C 0.19383 0.68531 1.00227 0.0
C465 C 0.23035 0.73418 0.97747 0.0
C466 C 0.2147 0.74709 0.99531 0.0
N467 N 0.18913 0.72921 1.01661 0.0
N468 N 0.21947 0.70366 0.98114 0.0
H469 H 0.15731 0.68445 0.03666 0.0
C470 C 0.28849 0.81417 1.00119 0.0
O471 O 0.28384 0.82972 0.97411 0.0
O472 O 0.12277 0.72089 0.03997 0.0
H473 H 0.22245 0.77112 0.9915 0.0
H474 H 0.251 0.90829 0.11813 0.0
H475 H 0.2507 0.7482 0.96036 0.0
Zn476 Zn 0.18266 0.43033 0.04295 0.0
C477 C 0.26005 0.45842 0.10211 0.0
N478 N 0.24836 0.47124 0.1257 0.0
C479 C 0.22336 0.46688 0.10637 0.0
N480 N 0.2197 0.45147 0.07275 0.0
N481 N 0.24324 0.44682 0.06983 0.0
C482 C 0.26607 0.38519 0.03618 0.0
O483 O 0.23603 0.37118 0.03334 0.0
O484 O 0.16579 0.45909 0.03779 0.0
Zn485 Zn 0.25741 0.43588 0.02381 0.0
N486 N 0.15669 0.39296 0.07105 0.0
C487 C 0.14866 0.35697 0.12081 0.0
C488 C 0.16696 0.38541 0.10334 0.0
C489 C 0.12922 0.37308 0.05515 0.0
N490 N 0.12123 0.33691 0.10468 0.0
C491 C 0.11106 0.34399 0.07191 0.0
O492 O 0.22493 0.40912 0.985 0.0
C493 C 0.19955 0.40479 0.97165 0.0
O494 O 0.1843 0.41523 0.9888 0.0
H495 H 0.18922 0.40113 0.11533 0.0
H496 H 0.12199 0.38014 0.02958 0.0
C497 C 0.31452 0.49119 1.00304 0.0
C498 C 0.33229 0.51728 0.98001 0.0
C499 C 0.28786 0.50648 0.94408 0.0
C500 C 0.2703 0.4808 0.96706 0.0
N501 N 0.2839 0.47341 0.99578 0.0
N502 N 0.31836 0.52402 0.95098 0.0
H503 H 0.32497 0.4847 0.02571 0.0
C504 C 0.18421 0.48287 1.01866 0.0
O505 O 0.20893 0.48425 1.00382 0.0
O506 O 0.2812 0.41436 0.03584 0.0
H507 H 0.24599 0.46668 0.96175 0.0
H508 H 0.15636 0.35069 0.14665 0.0
H509 H 0.27735 0.51246 0.92092 0.0
Zn510 Zn 0.41604 0.91097 0.32874 0.0
C511 C 0.45518 0.8682 0.2763 0.0
N512 N 0.43037 0.85715 0.25338 0.0
C513 C 0.41386 0.86823 0.27009 0.0
N514 N 0.42804 0.88536 0.30174 0.0
N515 N 0.45396 0.88499 0.30582 0.0
C516 C 0.5388 0.94333 0.34436 0.0
O517 O 0.52355 0.95792 0.34955 0.0
O518 O 0.36952 0.88685 0.32988 0.0
Zn519 Zn 0.47818 0.89297 0.35214 0.0
N520 N 0.43264 0.94795 0.29857 0.0
C521 C 0.47361 0.98607 0.26068 0.0
C522 C 0.46023 0.95828 0.28074 0.0
C523 C 0.41773 0.96403 0.29689 0.0
N524 N 0.45908 0.00262 0.25981 0.0
C525 C 0.43128 0.9921 0.27712 0.0
O526 O 0.47161 0.91729 0.3935 0.0
C527 C 0.45442 0.92768 0.40426 0.0
O528 O 0.43262 0.92515 0.38307 0.0
H529 H 0.47199 0.94532 0.28263 0.0
H530 H 0.39617 0.95558 0.31218 0.0
C531 C 0.47966 0.83747 0.37112 0.0
C532 C 0.46832 0.80904 0.39011 0.0
C533 C 0.42784 0.81467 0.41675 0.0
C534 C 0.43907 0.84266 0.39785 0.0
N535 N 0.46479 0.8536 0.37574 0.0
N536 N 0.44269 0.79864 0.41252 0.0
H537 H 0.50018 0.84699 0.35345 0.0
C538 C 0.35452 0.87706 0.36133 0.0
O539 O 0.36922 0.88656 0.39439 0.0
O540 O 0.5239 0.91421 0.34196 0.0
H541 H 0.42748 0.85573 0.40082 0.0
H542 H 0.49566 0.99473 0.24664 0.0
H543 H 0.40748 0.80571 0.43464 0.0
Zn544 Zn 0.09332 0.5903 0.33724 0.0
C545 C 0.09878 0.54245 0.24711 0.0
N546 N 0.09253 0.56072 0.22543 0.0
C547 C 0.08762 0.57722 0.25221 0.0
N548 N 0.09108 0.56969 0.28872 0.0
N549 N 0.09709 0.54704 0.28543 0.0
C550 C 0.14874 0.52737 0.37253 0.0
O551 O 0.13226 0.52421 0.40356 0.0
O552 O 0.07346 0.6165 0.33368 0.0
Zn553 Zn 0.09583 0.5196 0.32608 0.0
N554 N 0.13577 0.61484 0.35267 0.0
C555 C 0.17835 0.61297 0.37903 0.0
C556 C 0.14816 0.59816 0.36607 0.0
C557 C 0.15229 0.64611 0.35192 0.0
N558 N 0.19492 0.64405 0.37828 0.0
C559 C 0.18291 0.6613 0.36504 0.0
O560 O 0.07152 0.51699 0.3751 0.0
C561 C 0.06377 0.53408 0.3934 0.0
O562 O 0.07114 0.56071 0.38106 0.0
H563 H 0.13428 0.57352 0.36705 0.0
H564 H 0.14151 0.65885 0.34218 0.0
C565 C 0.08459 0.45936 0.31597 0.0
C566 C 0.07215 0.43041 0.29868 0.0
C567 C 0.04273 0.44299 0.25688 0.0
C568 C 0.05435 0.47135 0.27516 0.0
N569 N 0.07564 0.47923 0.30364 0.0
N570 N 0.05171 0.42311 0.26918 0.0
H571 H 0.10109 0.466 0.33925 0.0
C572 C 0.04472 0.60316 0.33988 0.0
O573 O 0.02951 0.57331 0.34526 0.0
O574 O 0.1382 0.52752 0.33919 0.0
H575 H 0.04698 0.48718 0.26612 0.0
H576 H 0.1885 0.59992 0.38986 0.0
H577 H 0.02632 0.43661 0.23354 0.0
Zn578 Zn 0.48738 0.57628 0.33102 0.0
C579 C 0.41302 0.52364 0.26801 0.0
N580 N 0.42543 0.54678 0.2424 0.0
C581 C 0.44954 0.56879 0.26179 0.0
N582 N 0.45206 0.55894 0.29752 0.0
N583 N 0.42835 0.53094 0.30175 0.0
C584 C 0.38842 0.44841 0.33277 0.0
O585 O 0.41708 0.45967 0.32173 0.0
O586 O 0.50063 0.62105 0.33668 0.0
Zn587 Zn 0.41289 0.51119 0.35085 0.0
N588 N 0.5174 0.5699 0.30445 0.0
C589 C 0.53398 0.54997 0.25328 0.0
C590 C 0.51187 0.55547 0.26956 0.0
C591 C 0.54353 0.57808 0.32425 0.0
N592 N 0.56042 0.55861 0.27288 0.0
C593 C 0.56594 0.57257 0.30814 0.0
O594 O 0.44428 0.51037 0.38593 0.0
C595 C 0.46987 0.53061 0.39991 0.0
O596 O 0.48523 0.55714 0.38453 0.0
H597 H 0.49049 0.54804 0.25457 0.0
H598 H 0.54594 0.58787 0.35277 0.0
C599 C 0.36674 0.52649 0.37353 0.0
C600 C 0.35541 0.54225 0.39544 0.0
C601 C 0.40401 0.57123 0.42543 0.0
C602 C 0.41522 0.55574 0.40351 0.0
N603 N 0.39634 0.53337 0.37842 0.0
N604 N 0.3744 0.56406 0.42105 0.0
H605 H 0.35207 0.5086 0.35349 0.0
C606 C 0.51312 0.63821 0.36583 0.0
O607 O 0.52011 0.62718 0.39617 0.0
O608 O 0.37988 0.46682 0.34477 0.0
H609 H 0.43875 0.56148 0.40681 0.0
H610 H 0.53009 0.53869 0.22547 0.0
H611 H 0.41873 0.58884 0.44576 0.0
H612 H 0.296 0.19371 0.27851 0.0
H613 H 0.27157 0.09864 0.26793 0.0
H614 H 0.32516 0.20553 0.2186 0.0
H615 H 0.29979 0.11021 0.20695 0.0
H616 H 0.35025 0.21371 0.09225 0.0
H617 H 0.31997 0.1997 0.15131 0.0
H618 H 0.34939 0.13466 0.17869 0.0
H619 H 0.37884 0.14791 0.11841 0.0
C620 C 0.29654 0.17521 0.26317 0.0
C621 C 0.28129 0.14519 0.27809 0.0
C622 C 0.31318 0.18196 0.22854 0.0
C623 C 0.3148 0.15883 0.20752 0.0
C624 C 0.29947 0.12875 0.22245 0.0
C625 C 0.28305 0.12204 0.25735 0.0
C626 C 0.35026 0.19636 0.11079 0.0
C627 C 0.36713 0.18204 0.1006 0.0
C628 C 0.33299 0.18843 0.14493 0.0
C629 C 0.33236 0.16622 0.17026 0.0
C630 C 0.34897 0.15161 0.15982 0.0
C631 C 0.36602 0.15931 0.12531 0.0
H632 H 0.88467 0.18868 0.27452 0.0
H633 H 0.80884 0.09637 0.25954 0.0
H634 H 0.87081 0.20398 0.2142 0.0
H635 H 0.79579 0.11121 0.19879 0.0
H636 H 0.75978 0.15194 0.11165 0.0
H637 H 0.77418 0.13895 0.17287 0.0
H638 H 0.86998 0.19965 0.14576 0.0
H639 H 0.85538 0.21362 0.08501 0.0
C640 C 0.86517 0.17159 0.25826 0.0
C641 C 0.8478 0.14132 0.27208 0.0
C642 C 0.85731 0.18032 0.22347 0.0
C643 C 0.83204 0.15892 0.20145 0.0
C644 C 0.81497 0.12858 0.21519 0.0
C645 C 0.82261 0.11997 0.25007 0.0
C646 C 0.78393 0.16257 0.11871 0.0
C647 C 0.8064 0.18377 0.09328 0.0
C648 C 0.79225 0.15495 0.15384 0.0
C649 C 0.82332 0.168 0.1644 0.0
C650 C 0.84582 0.18939 0.13901 0.0
C651 C 0.83745 0.19729 0.10399 0.0
H652 H 0.81205 0.71569 0.25533 0.0
H653 H 0.88684 0.69785 0.26937 0.0
H654 H 0.79492 0.68275 0.19791 0.0
H655 H 0.86912 0.66401 0.21369 0.0
H656 H 0.75709 0.60005 0.11373 0.0
H657 H 0.77199 0.63299 0.17121 0.0
H658 H 0.86735 0.66351 0.14719 0.0
H659 H 0.85237 0.6298 0.09155 0.0
C660 C 0.82472 0.70458 0.24636 0.0
C661 C 0.85109 0.70982 0.26683 0.0
C662 C 0.81477 0.68545 0.21348 0.0
C663 C 0.83071 0.67073 0.20041 0.0
C664 C 0.85661 0.67548 0.22172 0.0
C665 C 0.86675 0.69486 0.25407 0.0
C666 C 0.78121 0.61379 0.12089 0.0
C667 C 0.80344 0.61186 0.09818 0.0
C668 C 0.78985 0.63289 0.15382 0.0
C669 C 0.82099 0.65087 0.16463 0.0
C670 C 0.8431 0.64948 0.14098 0.0
C671 C 0.83448 0.63017 0.10863 0.0
H672 H 0.18534 0.32048 0.74691 0.0
H673 H 0.09105 0.2906 0.7763 0.0
H674 H 0.20238 0.35176 0.80513 0.0
H675 H 0.10804 0.32109 0.83564 0.0
H676 H 0.15133 0.39786 0.9267 0.0
H677 H 0.13369 0.37061 0.86511 0.0
H678 H 0.20332 0.3446 0.87226 0.0
H679 H 0.22151 0.37256 0.93268 0.0
C680 C 0.1682 0.32062 0.76582 0.0
C681 C 0.1368 0.30284 0.75701 0.0
C682 C 0.17797 0.3384 0.79949 0.0
C683 C 0.15662 0.33864 0.82568 0.0
C684 C 0.12521 0.32171 0.81615 0.0
C685 C 0.11543 0.30412 0.78212 0.0
C686 C 0.1629 0.38637 0.91503 0.0
C687 C 0.18801 0.38765 0.93461 0.0
C688 C 0.15268 0.37059 0.87975 0.0
C689 C 0.16719 0.35554 0.8633 0.0
C690 C 0.19199 0.3565 0.88333 0.0
C691 C 0.20233 0.37241 0.9183 0.0
H692 H 0.68324 0.88153 0.7503 0.0
H693 H 0.71179 0.8149 0.76995 0.0
H694 H 0.65472 0.86687 0.81066 0.0
H695 H 0.68449 0.80119 0.83194 0.0
H696 H 0.61124 0.76563 0.92762 0.0
H697 H 0.63789 0.77736 0.86541 0.0
H698 H 0.6604 0.87192 0.87675 0.0
H699 H 0.63239 0.85968 0.93758 0.0
C700 C 0.68363 0.86385 0.76777 0.0
C701 C 0.69999 0.84953 0.75534 0.0
C702 C 0.66742 0.85558 0.80276 0.0
C703 C 0.66751 0.83311 0.82698 0.0
C704 C 0.6835 0.81837 0.81416 0.0
C705 C 0.69933 0.82631 0.77862 0.0
C706 C 0.62186 0.78891 0.9167 0.0
C707 C 0.61943 0.81165 0.9375 0.0
C708 C 0.63737 0.79573 0.88103 0.0
C709 C 0.65129 0.82562 0.86544 0.0
C710 C 0.64936 0.84843 0.8869 0.0
C711 C 0.63343 0.84149 0.92213 0.0
H712 H 0.13414 0.78391 0.95086 0.0
H713 H 0.22897 0.85191 0.92965 0.0
H714 H 0.11913 0.79929 0.89213 0.0
H715 H 0.21398 0.86676 0.86962 0.0
H716 H 0.17132 0.90393 0.78178 0.0
H717 H 0.18815 0.89104 0.84161 0.0
H718 H 0.12087 0.79538 0.82448 0.0
H719 H 0.10344 0.80839 0.76568 0.0
C720 C 0.1519 0.80211 0.93353 0.0
C721 C 0.18285 0.81654 0.94501 0.0
C722 C 0.14326 0.81081 0.89951 0.0
C723 C 0.16531 0.83403 0.87554 0.0
C724 C 0.19627 0.84894 0.88737 0.0
C725 C 0.20492 0.84037 0.92177 0.0
C726 C 0.16015 0.88014 0.79078 0.0
C727 C 0.13583 0.85725 0.76894 0.0
C728 C 0.16994 0.8727 0.82507 0.0
C729 C 0.15578 0.84215 0.83831 0.0
C730 C 0.13191 0.81925 0.8159 0.0
C731 C 0.12199 0.8267 0.78189 0.0
H732 H 0.05574 0.56846 0.44822 0.0
H733 H 0.03117 0.47504 0.42209 0.0
H734 H 0.0259 0.55152 0.50745 0.0
H735 H -0.00017 0.45765 0.48094 0.0
H736 H 0.96613 0.43995 0.608 0.0
H737 H -0.00193 0.45552 0.54958 0.0
H738 H 0.97576 0.52683 0.52954 0.0
H739 H 0.94534 0.51224 0.58832 0.0
C740 C 0.04372 0.54418 0.45495 0.0
C741 C 0.04578 0.52313 0.4301 0.0
C742 C 0.0263 0.53435 0.48898 0.0
C743 C 0.00985 0.50304 0.49909 0.0
C744 C 0.01228 0.48196 0.47451 0.0
C745 C 0.03015 0.49191 0.44056 0.0
C746 C 0.96816 0.45899 0.59109 0.0
C747 C 0.95336 0.475 0.60319 0.0
C748 C 0.98636 0.46785 0.55738 0.0
C749 C 0.98995 0.49275 0.53469 0.0
C750 C 0.97446 0.50816 0.54654 0.0
C751 C 0.95671 0.4996 0.58033 0.0
H752 H 0.46788 0.45391 0.624 0.0
H753 H 0.56521 0.51144 0.60374 0.0
H754 H 0.45713 0.47154 0.56384 0.0
H755 H 0.55434 0.52871 0.54237 0.0
H756 H 0.44608 0.47493 0.43549 0.0
H757 H 0.46085 0.46261 0.4967 0.0
H758 H 0.53256 0.55708 0.50973 0.0
H759 H 0.51809 0.56944 0.44733 0.0
C760 C 0.48708 0.47044 0.60672 0.0
C761 C 0.51745 0.48095 0.61861 0.0
C762 C 0.48088 0.48042 0.57194 0.0
C763 C 0.50483 0.50105 0.54763 0.0
C764 C 0.5353 0.51279 0.5603 0.0
C765 C 0.54155 0.50288 0.59548 0.0
C766 C 0.46508 0.49319 0.45118 0.0
C767 C 0.48066 0.52329 0.43646 0.0
C768 C 0.47345 0.48613 0.4866 0.0
C769 C 0.49757 0.50893 0.50872 0.0
C770 C 0.51389 0.53892 0.49353 0.0
C771 C 0.50552 0.54602 0.45779 0.0
H772 H 0.55046 0.0383 0.60319 0.0
H773 H 0.45911 0.0242 0.61903 0.0
H774 H 0.53382 0.00732 0.54486 0.0
H775 H 0.44209 0.99212 0.56102 0.0
H776 H 0.43242 0.96429 0.43161 0.0
H777 H 0.4463 0.99378 0.49177 0.0
H778 H 0.50397 0.95628 0.5231 0.0
H779 H 0.49099 0.92781 0.46265 0.0
C780 C 0.52669 0.02835 0.59446 0.0
C781 C 0.50615 0.0338 0.61596 0.0
C782 C 0.51706 0.01032 0.561 0.0
C783 C 0.4865 0.99693 0.54816 0.0
C784 C 0.46587 0.0023 0.56971 0.0
C785 C 0.47559 0.02056 0.60316 0.0
C786 C 0.44793 0.96223 0.45148 0.0
C787 C 0.46078 0.94387 0.44208 0.0
C788 C 0.4558 0.97906 0.48611 0.0
C789 C 0.47654 0.97773 0.51229 0.0
C790 C 0.48853 0.95853 0.50333 0.0
C791 C 0.4809 0.94199 0.46867 0.0
H792 H 0.24483 0.06279 0.45107 0.0
H793 H 0.17643 0.07646 0.50827 0.0
H794 H 0.2244 0.01298 0.48267 0.0
H795 H 0.15526 0.02664 0.53855 0.0
H796 H 0.13782 0.95281 0.61788 0.0
H797 H 0.16652 0.00282 0.58819 0.0
H798 H 0.18216 0.9612 0.48766 0.0
H799 H 0.156 0.91136 0.5203 0.0
C800 C 0.22527 0.05513 0.46981 0.0
C801 C 0.21252 0.07383 0.47731 0.0
C802 C 0.21347 0.02646 0.48807 0.0
C803 C 0.18855 0.01593 0.51399 0.0
C804 C 0.17516 0.03428 0.52002 0.0
C805 C 0.18715 0.06284 0.50229 0.0
C806 C 0.14889 0.95456 0.59077 0.0
C807 C 0.14554 0.9283 0.57251 0.0
C808 C 0.16458 0.98317 0.57283 0.0
C809 C 0.17619 0.98613 0.53499 0.0
C810 C 0.17373 0.95995 0.51688 0.0
C811 C 0.15859 0.93134 0.53551 0.0
H812 H 0.07823 0.25582 0.51509 0.0
H813 H 0.03212 0.20105 0.61543 0.0
H814 H 0.02877 0.23568 0.48223 0.0
H815 H 0.98273 0.18187 0.58351 0.0
H816 H 0.89657 0.16748 0.51967 0.0
H817 H 0.94598 0.19905 0.55223 0.0
H818 H 0.99153 0.17859 0.46077 0.0
H819 H 0.94211 0.14576 0.43002 0.0
C820 C 0.05748 0.2401 0.5306 0.0
C821 C 0.05907 0.23035 0.56829 0.0
C822 C 0.02923 0.22861 0.51176 0.0
C823 C 0.00195 0.20731 0.53038 0.0
C824 C 0.00336 0.19861 0.56865 0.0
C825 C 0.03168 0.20967 0.5871 0.0
C826 C 0.91726 0.17018 0.50628 0.0
C827 C 0.91567 0.15501 0.47139 0.0
C828 C 0.94545 0.18822 0.52488 0.0
C829 C 0.97259 0.19155 0.50875 0.0
C830 C 0.97108 0.17706 0.47337 0.0
C831 C 0.94284 0.15857 0.45532 0.0
H832 H 0.8073 0.86322 0.59901 0.0
H833 H 0.74484 0.84421 0.50416 0.0
H834 H 0.83179 0.83912 0.56326 0.0
H835 H 0.77012 0.82122 0.46762 0.0
H836 H 0.8621 0.83317 0.40694 0.0
H837 H 0.82756 0.84659 0.44099 0.0
H838 H 0.81795 0.78519 0.53404 0.0
H839 H 0.85161 0.77118 0.49939 0.0
C840 C 0.7977 0.85228 0.57156 0.0
C841 C 0.77311 0.85399 0.55534 0.0
C842 C 0.81205 0.83905 0.55077 0.0
C843 C 0.8025 0.82787 0.51301 0.0
C844 C 0.77778 0.82944 0.49679 0.0
C845 C 0.76323 0.84237 0.51778 0.0
C846 C 0.85125 0.8214 0.43361 0.0
C847 C 0.85832 0.80013 0.44966 0.0
C848 C 0.83184 0.82932 0.45334 0.0
C849 C 0.81983 0.81665 0.48994 0.0
C850 C 0.82672 0.79514 0.50578 0.0
C851 C 0.84579 0.78701 0.48586 0.0
H852 H 0.81528 0.0366 0.42523 0.0
H853 H 0.80514 0.09254 0.51198 0.0
H854 H 0.77904 0.99051 0.46034 0.0
H855 H 0.77008 0.0464 0.54846 0.0
H856 H 0.78516 0.96612 0.61068 0.0
H857 H 0.7931 0.0127 0.57835 0.0
H858 H 0.72391 0.95768 0.494 0.0
H859 H 0.71525 0.91117 0.52731 0.0
C860 C 0.80392 0.03892 0.45053 0.0
C861 C 0.81249 0.06793 0.46552 0.0
C862 C 0.78339 0.0126 0.47092 0.0
C863 C 0.77192 0.01508 0.50712 0.0
C864 C 0.77857 0.04401 0.52056 0.0
C865 C 0.79857 0.07027 0.4997 0.0
C866 C 0.77027 0.96412 0.58689 0.0
C867 C 0.74934 0.93533 0.5717 0.0
C868 C 0.77488 0.9907 0.56819 0.0
C869 C 0.75915 0.98858 0.53361 0.0
C870 C 0.73616 0.95978 0.52066 0.0
C871 C 0.73124 0.93331 0.5397 0.0
H872 H 0.02813 0.82802 0.61279 0.0
H873 H 0.08741 0.81579 0.53351 0.0
H874 H 0.98453 0.79774 0.57016 0.0
H875 H 0.04408 0.78643 0.49013 0.0
H876 H 0.91101 0.74637 0.48464 0.0
H877 H 0.95015 0.7473 0.52755 0.0
H878 H 0.02083 0.81851 0.45701 0.0
H879 H 0.98155 0.81848 0.41553 0.0
C880 C 0.03143 0.81722 0.58755 0.0
C881 C 0.06098 0.82411 0.57642 0.0
C882 C 0.00656 0.80012 0.56287 0.0
C883 C 0.01118 0.79022 0.52661 0.0
C884 C 0.04003 0.79396 0.51782 0.0
C885 C 0.06471 0.8106 0.54273 0.0
C886 C 0.93502 0.76117 0.47741 0.0
C887 C 0.94353 0.78194 0.44638 0.0
C888 C 0.95729 0.76176 0.502 0.0
C889 C 0.98839 0.78288 0.49551 0.0
C890 C -0.00302 0.80157 0.46221 0.0
C891 C 0.97462 0.8014 0.4381 0.0
H892 H 0.15887 0.21123 0.61606 0.0
H893 H 0.16818 0.27423 0.52547 0.0
H894 H 0.19452 0.19991 0.58177 0.0
H895 H 0.20282 0.26199 0.49017 0.0
H896 H 0.26257 0.18709 0.51671 0.0
H897 H 0.24907 0.22136 0.55053 0.0
H898 H 0.18384 0.20712 0.46042 0.0
H899 H 0.1968 0.17211 0.4273 0.0
C900 C 0.16982 0.22384 0.58993 0.0
C901 C 0.16129 0.24393 0.57379 0.0
C902 C 0.18997 0.21718 0.57 0.0
C903 C 0.20122 0.23002 0.53321 0.0
C904 C 0.1944 0.25181 0.51842 0.0
C905 C 0.17471 0.25883 0.53868 0.0
C906 C 0.24628 0.19237 0.50339 0.0
C907 C 0.23097 0.17745 0.4692 0.0
C908 C 0.23851 0.21181 0.5228 0.0
C909 C 0.21538 0.21671 0.50816 0.0
C910 C 0.20208 0.20402 0.47203 0.0
C911 C 0.20962 0.1842 0.45285 0.0
H912 H 0.77087 0.26758 0.88469 0.0
H913 H 0.85383 0.26614 0.91063 0.0
H914 H 0.8008 0.31707 0.85315 0.0
H915 H 0.88412 0.31561 0.87812 0.0
H916 H 0.92625 0.42019 0.84495 0.0
H917 H 0.901 0.37075 0.87908 0.0
H918 H 0.82831 0.33525 0.794 0.0
H919 H 0.8524 0.38501 0.76239 0.0
C920 C 0.79564 0.27805 0.88394 0.0
C921 C 0.80996 0.26299 0.90037 0.0
C922 C 0.81281 0.30627 0.86545 0.0
C923 C 0.84488 0.32009 0.86224 0.0
C924 C 0.85946 0.30564 0.88008 0.0
C925 C 0.84211 0.27729 0.89898 0.0
C926 C 0.90516 0.4015 0.83333 0.0
C927 C 0.89176 0.406 0.80013 0.0
C928 C 0.89074 0.3732 0.85276 0.0
C929 C 0.86245 0.34904 0.83956 0.0
C930 C 0.84984 0.3534 0.80542 0.0
C931 C 0.86408 0.38165 0.7864 0.0
H932 H 0.74596 0.55038 0.86299 0.0
H933 H 0.70058 0.48512 0.95501 0.0
H934 H 0.69834 0.52746 0.82599 0.0
H935 H 0.6525 0.4623 0.91855 0.0
H936 H 0.5849 0.40455 0.82548 0.0
H937 H 0.63159 0.43102 0.86332 0.0
H938 H 0.64735 0.51789 0.81877 0.0
H939 H 0.60109 0.49119 0.78032 0.0
C940 C 0.72538 0.53175 0.87584 0.0
C941 C 0.72666 0.51997 0.91225 0.0
C942 C 0.69807 0.51854 0.85462 0.0
C943 C 0.67144 0.49289 0.86909 0.0
C944 C 0.67259 0.48182 0.90623 0.0
C945 C 0.69993 0.49524 0.92758 0.0
C946 C 0.59835 0.42934 0.8235 0.0
C947 C 0.58887 0.44563 0.79951 0.0
C948 C 0.62508 0.44459 0.84564 0.0
C949 C 0.64316 0.47675 0.84479 0.0
C950 C 0.63416 0.49308 0.82013 0.0
C951 C 0.6074 0.47768 0.79778 0.0
H952 H 0.3909 0.14869 0.85952 0.0
H953 H 0.46221 0.17948 0.94535 0.0
H954 H 0.41126 0.11878 0.82799 0.0
H955 H 0.48101 0.14788 0.91605 0.0
H956 H 0.48694 0.06514 0.85994 0.0
H957 H 0.45573 0.08345 0.89281 0.0
H958 H 0.47488 0.14804 0.80014 0.0
H959 H 0.50762 0.13131 0.76906 0.0
C960 C 0.41019 0.14813 0.87253 0.0
C961 C 0.42426 0.16543 0.90601 0.0
C962 C 0.42172 0.13102 0.85457 0.0
C963 C 0.44727 0.13066 0.87013 0.0
C964 C 0.46074 0.14715 0.90417 0.0
C965 C 0.4497 0.16484 0.92142 0.0
C966 C 0.48399 0.08286 0.84634 0.0
C967 C 0.49872 0.09602 0.81104 0.0
C968 C 0.46614 0.09322 0.86505 0.0
C969 C 0.46252 0.11667 0.8485 0.0
C970 C 0.47671 0.12936 0.81291 0.0
C971 C 0.49512 0.11954 0.7948 0.0
H972 H 0.47326 0.401 0.81577 0.0
H973 H 0.48496 0.33334 0.75366 0.0
H974 H 0.43309 0.36039 0.85562 0.0
H975 H 0.44372 0.29269 0.79152 0.0
H976 H 0.44173 0.28449 0.94304 0.0
H977 H 0.45319 0.328 0.90117 0.0
H978 H 0.38443 0.26708 0.82006 0.0
H979 H 0.37194 0.22376 0.86288 0.0
C980 C 0.46573 0.37725 0.80895 0.0
C981 C 0.48155 0.37 0.78123 0.0
C982 C 0.44294 0.35416 0.83181 0.0
C983 C 0.43536 0.32357 0.82645 0.0
C984 C 0.4488 0.31611 0.79568 0.0
C985 C 0.4722 0.33927 0.77366 0.0
C986 C 0.42753 0.28073 0.9178 0.0
C987 C 0.40589 0.25092 0.90623 0.0
C988 C 0.43421 0.30559 0.89362 0.0
C989 C 0.41977 0.30067 0.85733 0.0
C990 C 0.39571 0.27135 0.84794 0.0
C991 C 0.38866 0.24666 0.87242 0.0
H992 H 0.61714 0.11864 0.75979 0.0
H993 H 0.56647 0.0531 0.84979 0.0
H994 H 0.66508 0.13219 0.79272 0.0
H995 H 0.61438 0.06756 0.88382 0.0
H996 H 0.7481 0.15209 0.85664 0.0
H997 H 0.70143 0.11472 0.82309 0.0
H998 H 0.64671 0.12292 0.91372 0.0
H999 H 0.69351 0.16095 0.94655 0.0
C1000 C 0.61643 0.10593 0.78539 0.0
C1001 C 0.58833 0.08458 0.80195 0.0
C1002 C 0.6438 0.11384 0.80453 0.0
C1003 C 0.64325 0.10097 0.84091 0.0
C1004 C 0.6153 0.07776 0.85585 0.0
C1005 C 0.58802 0.06951 0.83636 0.0
C1006 C 0.72602 0.14493 0.87002 0.0
C1007 C 0.72409 0.15889 0.90429 0.0
C1008 C 0.69947 0.12365 0.85086 0.0
C1009 C 0.67064 0.11605 0.86584 0.0
C1010 C 0.66874 0.12806 0.90193 0.0
C1011 C 0.6954 0.14968 0.92086 0.0
H1012 H 0.83794 0.51577 0.95168 0.0
H1013 H 0.83529 0.58391 0.87915 0.0
H1014 H 0.8797 0.51866 0.91265 0.0
H1015 H 0.87625 0.58599 0.83869 0.0
H1016 H 0.87604 0.50524 0.75758 0.0
H1017 H 0.86279 0.53649 0.79814 0.0
H1018 H 0.93385 0.55014 0.87904 0.0
H1019 H 0.94778 0.51972 0.83749 0.0
C1020 C 0.84768 0.53275 0.92896 0.0
C1021 C 0.83401 0.55 0.91881 0.0
C1022 C 0.8714 0.5343 0.90625 0.0
C1023 C 0.88106 0.55251 0.87253 0.0
C1024 C 0.86927 0.5719 0.86457 0.0
C1025 C 0.84595 0.57071 0.8877 0.0
C1026 C 0.89025 0.51677 0.78243 0.0
C1027 C 0.91294 0.51025 0.79436 0.0
C1028 C 0.88256 0.5345 0.80595 0.0
C1029 C 0.8971 0.54533 0.84199 0.0
C1030 C 0.92229 0.54194 0.85149 0.0
C1031 C 0.93025 0.52462 0.82767 0.0
H1032 H 0.51266 0.61036 0.26879 0.0
H1033 H 0.43028 0.59728 0.21339 0.0
H1034 H 0.54289 0.65741 0.23212 0.0
H1035 H 0.46002 0.64459 0.17776 0.0
H1036 H 0.51771 0.71433 0.09192 0.0
H1037 H 0.49429 0.66537 0.12584 0.0
H1038 H 0.55459 0.70916 0.22326 0.0
H1039 H 0.57954 0.75756 0.18753 0.0
C1040 C 0.50083 0.61753 0.24938 0.0
C1041 C 0.46895 0.59966 0.24411 0.0
C1042 C 0.51825 0.64469 0.22812 0.0
C1043 C 0.5041 0.65467 0.20117 0.0
C1044 C 0.47205 0.63729 0.1971 0.0
C1045 C 0.45487 0.6102 0.218 0.0
C1046 C 0.52723 0.71301 0.11945 0.0
C1047 C 0.55129 0.73942 0.13633 0.0
C1048 C 0.51314 0.68515 0.13962 0.0
C1049 C 0.52218 0.68323 0.1777 0.0
C1050 C 0.54715 0.70952 0.19394 0.0
C1051 C 0.56146 0.7373 0.17349 0.0
H1052 H 0.27139 0.8009 0.10292 0.0
H1053 H 0.23781 0.84155 0.18516 0.0
H1054 H 0.31931 0.82136 0.13885 0.0
H1055 H 0.28585 0.86174 0.22202 0.0
H1056 H 0.39438 0.9091 0.25193 0.0
H1057 H 0.34843 0.89821 0.21502 0.0
H1058 H 0.32292 0.80275 0.209 0.0
H1059 H 0.36806 0.81352 0.24698 0.0
C1060 C 0.27492 0.81554 0.12754 0.0
C1061 C 0.25133 0.8204 0.1406 0.0
C1062 C 0.30206 0.82671 0.14864 0.0
C1063 C 0.3061 0.84289 0.18335 0.0
C1064 C 0.28332 0.84946 0.19524 0.0
C1065 C 0.25595 0.83797 0.17421 0.0
C1066 C 0.37834 0.88572 0.24417 0.0
C1067 C 0.38433 0.86206 0.25335 0.0
C1068 C 0.35229 0.87953 0.22251 0.0
C1069 C 0.33241 0.84972 0.20883 0.0
C1070 C 0.33813 0.82602 0.21875 0.0
C1071 C 0.36378 0.83214 0.24073 0.0
H1072 H 0.15957 0.43658 0.1077 0.0
H1073 H 0.24022 0.51921 0.14526 0.0
H1074 H 0.1272 0.45133 0.14315 0.0
H1075 H 0.20802 0.53436 0.18044 0.0
H1076 H 0.1492 0.54097 0.27131 0.0
H1077 H 0.17669 0.51957 0.2376 0.0
H1078 H 0.10961 0.48852 0.14554 0.0
H1079 H 0.08104 0.50823 0.18122 0.0
C1080 C 0.17044 0.45814 0.12271 0.0
C1081 C 0.20252 0.47675 0.12316 0.0
C1082 C 0.15182 0.46661 0.14333 0.0
C1083 C 0.16496 0.49384 0.16519 0.0
C1084 C 0.19705 0.51284 0.16475 0.0
C1085 C 0.21553 0.50431 0.14422 0.0
C1086 C 0.13934 0.5279 0.24522 0.0
C1087 C 0.11232 0.52507 0.22983 0.0
C1088 C 0.15562 0.5165 0.22509 0.0
C1089 C 0.14558 0.5026 0.18854 0.0
C1090 C 0.11789 0.49883 0.17372 0.0
C1091 C 0.10154 0.51013 0.19409 0.0
H1092 H 0.11845 0.63514 0.28116 0.0
H1093 H 0.05298 0.5791 0.19411 0.0
H1094 H 0.1265 0.68128 0.24784 0.0
H1095 H 0.06179 0.62525 0.15969 0.0
H1096 H 0.13923 0.76099 0.1813 0.0
H1097 H 0.10485 0.71416 0.21705 0.0
H1098 H 0.1153 0.66019 0.12748 0.0
H1099 H 0.15067 0.70701 0.09301 0.0
C1100 C 0.10446 0.63274 0.25624 0.0
C1101 C 0.0848 0.60374 0.24057 0.0
C1102 C 0.10921 0.65912 0.23685 0.0
C1103 C 0.09485 0.65673 0.20103 0.0
C1104 C 0.07311 0.62765 0.18721 0.0
C1105 C 0.06806 0.60134 0.20693 0.0
C1106 C 0.1331 0.73898 0.16854 0.0
C1107 C 0.14714 0.73744 0.13403 0.0
C1108 C 0.11352 0.71229 0.18903 0.0
C1109 C 0.10749 0.68366 0.17504 0.0
C1110 C 0.11913 0.68196 0.13859 0.0
C1111 C 0.13914 0.70872 0.11851 0.0
H1112 H 0.41896 0.48502 0.2206 0.0
H1113 H 0.35241 0.49683 0.28541 0.0
H1114 H 0.37926 0.45207 0.17451 0.0
H1115 H 0.31236 0.46279 0.24042 0.0
H1116 H 0.24784 0.41029 0.14693 0.0
H1117 H 0.2839 0.40898 0.19341 0.0
H1118 H 0.35813 0.48864 0.13836 0.0
H1119 H 0.32181 0.49099 0.09376 0.0
C1120 C 0.39535 0.47866 0.22656 0.0
C1121 C 0.3885 0.49328 0.25636 0.0
C1122 C 0.37274 0.45991 0.20014 0.0
C1123 C 0.343 0.45523 0.20386 0.0
C1124 C 0.33516 0.46587 0.23725 0.0
C1125 C 0.35798 0.48521 0.26321 0.0
C1126 C 0.27216 0.42645 0.14359 0.0
C1127 C 0.28239 0.45047 0.11657 0.0
C1128 C 0.29265 0.42569 0.17016 0.0
C1129 C 0.32364 0.44856 0.1692 0.0
C1130 C 0.33436 0.47038 0.13912 0.0
C1131 C 0.31372 0.47167 0.11335 0.0
H1132 H 0.45858 0.81855 0.25631 0.0
H1133 H 0.51163 0.91732 0.26317 0.0
H1134 H 0.49561 0.81882 0.21035 0.0
H1135 H 0.54914 0.91757 0.21713 0.0
H1136 H 0.60359 0.8572 0.16617 0.0
H1137 H 0.58333 0.88044 0.21079 0.0
H1138 H 0.50536 0.85256 0.13577 0.0
H1139 H 0.52556 0.82921 0.09133 0.0
C1140 C 0.47897 0.84015 0.24933 0.0
C1141 C 0.48262 0.86783 0.26344 0.0
C1142 C 0.49979 0.84038 0.22266 0.0
C1143 C 0.52446 0.8683 0.20967 0.0
C1144 C 0.52998 0.89589 0.22662 0.0
C1145 C 0.50895 0.89565 0.25343 0.0
C1146 C 0.58325 0.85802 0.15793 0.0
C1147 C 0.56589 0.84135 0.12566 0.0
C1148 C 0.57163 0.87114 0.18356 0.0
C1149 C 0.54268 0.86763 0.1768 0.0
C1150 C 0.52781 0.85539 0.14135 0.0
C1151 C 0.5395 0.84236 0.11567 0.0
H1152 H 0.09587 0.10201 0.27983 0.0
H1153 H 0.12789 0.15846 0.38261 0.0
H1154 H 0.05163 0.10945 0.27703 0.0
H1155 H 0.08368 0.16609 0.37952 0.0
H1156 H 0.97997 0.13287 0.39064 0.0
H1157 H 0.02706 0.13048 0.38975 0.0
H1158 H 0.03676 0.14987 0.26703 0.0
H1159 H 0.98943 0.15234 0.26779 0.0
C1160 C 0.09369 0.11638 0.3015 0.0
C1161 C 0.11545 0.12972 0.33135 0.0
C1162 C 0.06844 0.12076 0.29975 0.0
C1163 C 0.06413 0.13822 0.32814 0.0
C1164 C 0.08632 0.15231 0.35741 0.0
C1165 C 0.11182 0.14823 0.35891 0.0
C1166 C 0.992 0.1365 0.36337 0.0
C1167 C 0.98087 0.1427 0.32921 0.0
C1168 C 0.01918 0.13545 0.36299 0.0
C1169 C 0.03573 0.14025 0.32841 0.0
C1170 C 0.02443 0.14603 0.2941 0.0
C1171 C -0.00264 0.14743 0.29455 0.0
H1172 H 0.79682 0.81555 0.3763 0.0
H1173 H 0.86523 0.85259 0.28563 0.0
H1174 H 0.79381 0.86264 0.37558 0.0
H1175 H 0.86284 0.89928 0.28547 0.0
H1176 H 0.84579 0.9754 0.27215 0.0
H1177 H 0.83384 0.92225 0.26946 0.0
H1178 H 0.82423 0.91603 0.39419 0.0
H1179 H 0.83466 0.96911 0.39631 0.0
C1180 C 0.81094 0.83354 0.35595 0.0
C1181 C 0.83137 0.83031 0.33115 0.0
C1182 C 0.80937 0.86061 0.3557 0.0
C1183 C 0.82803 0.88489 0.33043 0.0
C1184 C 0.84761 0.88101 0.30483 0.0
C1185 C 0.84914 0.85413 0.30507 0.0
C1186 C 0.84037 0.96237 0.29886 0.0
C1187 C 0.84127 0.97629 0.33441 0.0
C1188 C 0.8338 0.93198 0.29743 0.0
C1189 C 0.82881 0.91495 0.33169 0.0
C1190 C 0.82782 0.92833 0.36719 0.0
C1191 C 0.83384 0.95874 0.36849 0.0
H1192 H 0.02733 0.86348 0.37592 0.0
H1193 H 0.03418 0.89581 0.25823 0.0
H1194 H 0.0804 0.90316 0.38742 0.0
H1195 H 0.08663 0.93599 0.27025 0.0
H1196 H 0.18723 0.99349 0.29103 0.0
H1197 H 0.13812 0.94663 0.28194 0.0
H1198 H 0.10864 0.95858 0.39505 0.0
H1199 H 0.15807 0.00503 0.40458 0.0
C1200 C 0.04019 0.8786 0.35224 0.0
C1201 C 0.02639 0.8762 0.31595 0.0
C1202 C 0.07057 0.90166 0.35906 0.0
C1203 C 0.08785 0.92281 0.32979 0.0
C1204 C 0.07425 0.91987 0.29331 0.0
C1205 C 0.04398 0.89693 0.28653 0.0
C1206 C 0.17044 0.98592 0.31419 0.0
C1207 C 0.17646 0.00322 0.34833 0.0
C1208 C 0.14219 0.95912 0.30888 0.0
C1209 C 0.11923 0.94901 0.33753 0.0
C1210 C 0.12583 0.96553 0.37247 0.0
C1211 C 0.15414 0.99231 0.37784 0.0
H1212 H 0.10502 0.11648 0.6564 0.0
H1213 H 0.13492 0.13179 0.77535 0.0
H1214 H 0.10829 0.06971 0.65519 0.0
H1215 H 0.14048 0.08652 0.77385 0.0
H1216 H 0.13988 -0.00015 0.65425 0.0
H1217 H 0.13818 0.04716 0.65398 0.0
H1218 H 0.11315 0.03398 0.77545 0.0
H1219 H 0.11706 0.98765 0.77596 0.0
C1220 C 0.1131 0.11016 0.68192 0.0
C1221 C 0.11985 0.12761 0.71589 0.0
C1222 C 0.11507 0.08339 0.68135 0.0
C1223 C 0.12443 0.07388 0.71458 0.0
C1224 C 0.13232 0.09234 0.74803 0.0
C1225 C 0.1296 0.11858 0.74881 0.0
C1226 C 0.13392 0.00707 0.68086 0.0
C1227 C 0.12859 0.99009 0.71516 0.0
C1228 C 0.13278 0.03421 0.6807 0.0
C1229 C 0.12557 0.04477 0.71469 0.0
C1230 C 0.11957 0.02723 0.74885 0.0
C1231 C 0.12147 0.00044 0.74918 0.0
H1232 H 0.85734 0.02082 0.66075 0.0
H1233 H 0.90277 0.98669 0.73531 0.0
H1234 H 0.90376 0.0709 0.6599 0.0
H1235 H 0.94914 0.03656 0.73323 0.0
H1236 H 0.98555 0.16402 0.69877 0.0
H1237 H 0.93817 0.11487 0.70647 0.0
H1238 H 0.98723 0.06724 0.67962 0.0
H1239 H 0.03468 0.11643 0.67165 0.0
C1240 C 0.87676 0.02384 0.67753 0.0
C1241 C 0.8759 -0.00069 0.69827 0.0
C1242 C 0.90351 0.05266 0.67683 0.0
C1243 C 0.93005 0.05751 0.69633 0.0
C1244 C 0.92911 0.03335 0.71755 0.0
C1245 C 0.90239 0.00473 0.71869 0.0
C1246 C 0.98633 0.14306 0.69501 0.0
C1247 C 0.01382 0.14401 0.68462 0.0
C1248 C 0.95914 0.11497 0.69907 0.0
C1249 C 0.95903 0.08732 0.69346 0.0
C1250 C 0.98672 0.08826 0.6843 0.0
C1251 C 0.01383 0.11635 0.67964 0.0
H1252 H 0.9705 0.87875 0.75841 0.0
H1253 H 0.96092 0.82782 0.65337 0.0
H1254 H 0.91708 0.86483 0.75446 0.0
H1255 H 0.90675 0.81271 0.65046 0.0
H1256 H 0.82618 0.83123 0.63115 0.0
H1257 H 0.87668 0.83635 0.63619 0.0
H1258 H 0.86514 0.82455 0.7603 0.0
H1259 H 0.81499 0.82063 0.75516 0.0
C1260 C 0.95694 0.86421 0.73468 0.0
C1261 C 0.97029 0.85449 0.70625 0.0
C1262 C 0.92605 0.8559 0.73269 0.0
C1263 C 0.90744 0.83753 0.70222 0.0
C1264 C 0.92047 0.8271 0.6742 0.0
C1265 C 0.95155 0.83548 0.67615 0.0
C1266 C 0.83437 0.82966 0.65945 0.0
C1267 C 0.81672 0.82608 0.69271 0.0
C1268 C 0.86326 0.83225 0.66236 0.0
C1269 C 0.87523 0.83114 0.69871 0.0
C1270 C 0.85693 0.8261 0.73188 0.0
C1271 C 0.82805 0.82365 0.72892 0.0
H1272 H 0.67108 0.51146 0.72399 0.0
H1273 H 0.62915 0.42955 0.65345 0.0
H1274 H 0.72101 0.51448 0.71657 0.0
H1275 H 0.67823 0.43209 0.64695 0.0
H1276 H 0.79346 0.48096 0.73008 0.0
H1277 H 0.74837 0.48728 0.73595 0.0
H1278 H 0.7267 0.46189 0.61563 0.0
H1279 H 0.77081 0.45471 0.61029 0.0
C1280 C 0.67255 0.49426 0.70673 0.0
C1281 C 0.64619 0.4704 0.68904 0.0
C1282 C 0.70107 0.49586 0.70274 0.0
C1283 C 0.70374 0.47373 0.68082 0.0
C1284 C 0.67727 0.44996 0.66328 0.0
C1285 C 0.64897 0.44836 0.66726 0.0
C1286 C 0.77932 0.47734 0.70479 0.0
C1287 C 0.7854 0.467 0.66983 0.0
C1288 C 0.75352 0.48097 0.70811 0.0
C1289 C 0.73356 0.4745 0.67645 0.0
C1290 C 0.74104 0.46622 0.6409 0.0
C1291 C 0.76643 0.46226 0.63775 0.0
H1292 H 0.51765 0.30465 0.58225 0.0
H1293 H 0.50719 0.30876 0.70614 0.0
H1294 H 0.51195 0.25394 0.58917 0.0
H1295 H 0.50059 0.25763 0.71279 0.0
H1296 H 0.52974 0.18465 0.71363 0.0
H1297 H 0.53335 0.23444 0.70615 0.0
H1298 H 0.47392 0.20074 0.60623 0.0
H1299 H 0.47056 0.15092 0.61337 0.0
C1300 C 0.51378 0.29461 0.61092 0.0
C1301 C 0.51265 0.31076 0.64355 0.0
C1302 C 0.51031 0.26545 0.61482 0.0
C1303 C 0.50586 0.25179 0.65151 0.0
C1304 C 0.50426 0.26768 0.68415 0.0
C1305 C 0.5076 0.29684 0.68024 0.0
C1306 C 0.51754 0.18786 0.68993 0.0
C1307 C 0.49988 0.16381 0.66404 0.0
C1308 C 0.5194 0.21633 0.68587 0.0
C1309 C 0.50374 0.22145 0.65578 0.0
C1310 C 0.48642 0.19755 0.62956 0.0
C1311 C 0.48446 0.169 0.63369 0.0
H1312 H 0.8212 0.32171 0.6079 0.0
H1313 H 0.80499 0.34586 0.72217 0.0
H1314 H 0.77031 0.27578 0.60894 0.0
H1315 H 0.75424 0.29993 0.72316 0.0
H1316 H 0.67701 0.1985 0.72521 0.0
H1317 H 0.7298 0.24185 0.72433 0.0
H1318 H 0.71592 0.26484 0.60847 0.0
H1319 H 0.66353 0.22175 0.60922 0.0
C1320 C 0.80678 0.31729 0.63317 0.0
C1321 C 0.81711 0.33758 0.66482 0.0
C1322 C 0.77764 0.29099 0.63376 0.0
C1323 C 0.75833 0.28418 0.66621 0.0
C1324 C 0.76873 0.30436 0.69795 0.0
C1325 C 0.7977 0.33085 0.69717 0.0
C1326 C 0.68542 0.21251 0.69936 0.0
C1327 C 0.6661 0.20662 0.66722 0.0
C1328 C 0.71552 0.2375 0.699 0.0
C1329 C 0.72698 0.25677 0.66632 0.0
C1330 C 0.70789 0.2503 0.63392 0.0
C1331 C 0.6778 0.22569 0.63448 0.0
H1332 H 0.82925 0.44949 0.11431 0.0
H1333 H 0.81477 0.44944 0.9912 0.0
H1334 H 0.84299 0.40987 0.10615 0.0
H1335 H 0.82631 0.40814 0.98291 0.0
H1336 H 0.85902 0.3396 0.97511 0.0
H1337 H 0.85905 0.38788 0.98282 0.0
H1338 H 0.81717 0.35799 0.09589 0.0
H1339 H 0.81889 0.31121 0.08903 0.0
C1340 C 0.82915 0.44097 0.08544 0.0
C1341 C 0.82089 0.45236 0.05344 0.0
C1342 C 0.83671 0.41801 0.08069 0.0
C1343 C 0.83512 0.40507 0.04394 0.0
C1344 C 0.82811 0.41756 1.01163 0.0
C1345 C 0.82135 0.44117 1.01631 0.0
C1346 C 0.85038 0.34375 1.00186 0.0
C1347 C 0.83913 0.32164 0.03154 0.0
C1348 C 0.85012 0.37132 1.00618 0.0
C1349 C 0.83816 0.37714 0.04005 0.0
C1350 C 0.82736 0.35502 0.06979 0.0
C1351 C 0.82811 0.32787 0.06575 0.0
H1352 H 0.65026 0.49409 0.97397 0.0
H1353 H 0.65814 0.49092 0.09813 0.0
H1354 H 0.60309 0.44448 0.97543 0.0
H1355 H 0.60981 0.44261 0.10019 0.0
H1356 H 0.55746 0.33932 0.08383 0.0
H1357 H 0.59697 0.3925 0.08421 0.0
H1358 H 0.55068 0.4114 0.99218 0.0
H1359 H 0.51151 0.35719 0.99017 0.0
C1360 C 0.64172 0.48292 1.00161 0.0
C1361 C 0.65867 0.49577 0.03565 0.0
C1362 C 0.61433 0.45467 1.00258 0.0
C1363 C 0.60293 0.43897 0.03786 0.0
C1364 C 0.61842 0.45343 0.07232 0.0
C1365 C 0.64605 0.48136 0.07121 0.0
C1366 C 0.55543 0.35462 0.06355 0.0
C1367 C 0.53102 0.34355 0.03696 0.0
C1368 C 0.57807 0.38547 0.06421 0.0
C1369 C 0.57704 0.40656 0.03851 0.0
C1370 C 0.55234 0.39582 1.01231 0.0
C1371 C 0.52959 0.36465 1.01148 0.0
H1372 H 0.6595 0.2251 0.09642 0.0
H1373 H 0.6388 0.17366 0.98962 0.0
H1374 H 0.60708 0.21581 0.09889 0.0
H1375 H 0.58625 0.16418 0.99236 0.0
H1376 H 0.51286 0.19374 0.98487 0.0
H1377 H 0.56343 0.19851 0.98532 0.0
H1378 H 0.55204 0.17305 0.10624 0.0
H1379 H 0.50115 0.16815 0.1059 0.0
C1380 C 0.64364 0.21149 0.07372 0.0
C1381 C 0.6533 0.20002 0.04294 0.0
C1382 C 0.61359 0.20604 0.07528 0.0
C1383 C 0.59262 0.18937 0.04577 0.0
C1384 C 0.60202 0.1773 1.01538 0.0
C1385 C 0.63202 0.18244 1.01405 0.0
C1386 C 0.52111 0.18926 1.01166 0.0
C1387 C 0.503 0.18066 0.04543 0.0
C1388 C 0.54998 0.19171 1.01176 0.0
C1389 C 0.56158 0.18593 0.04572 0.0
C1390 C 0.54368 0.17771 0.07966 0.0
C1391 C 0.51458 0.17489 0.07946 0.0
H1392 H 0.32533 0.82256 0.93855 0.0
H1393 H 0.3124 0.79558 0.05909 0.0
H1394 H 0.37119 0.81758 0.9363 0.0
H1395 H 0.35816 0.79068 0.05674 0.0
H1396 H 0.45954 0.81751 0.04863 0.0
H1397 H 0.41539 0.82536 0.04889 0.0
H1398 H 0.38394 0.77532 0.94134 0.0
H1399 H 0.42809 0.76766 0.94083 0.0
C1400 C 0.33216 0.81543 0.96448 0.0
C1401 C 0.31516 0.80939 0.99894 0.0
C1402 C 0.35839 0.81256 0.96317 0.0
C1403 C 0.36836 0.80396 0.99642 0.0
C1404 C 0.35127 0.79776 0.0308 0.0
C1405 C 0.32488 0.80028 0.032 0.0
C1406 C 0.44354 0.80869 0.02467 0.0
C1407 C 0.44743 0.79213 0.99454 0.0
C1408 C 0.41807 0.81288 0.02506 0.0
C1409 C 0.39618 0.80087 0.99518 0.0
C1410 C 0.40053 0.78504 0.9646 0.0
C1411 C 0.42573 0.78053 0.96444 0.0
H1412 H 0.14273 0.49415 0.05696 0.0
H1413 H 0.21602 0.5324 0.97243 0.0
H1414 H 0.1383 0.54043 0.0523 0.0
H1415 H 0.21223 0.57828 0.9686 0.0
H1416 H 0.18899 0.6487 0.94249 0.0
H1417 H 0.17998 0.59657 0.94521 0.0
H1418 H 0.16743 0.59536 0.06928 0.0
H1419 H 0.17522 0.64746 0.06607 0.0
C1420 C 0.15764 0.51224 0.03715 0.0
C1421 C 0.1796 0.50954 1.01487 0.0
C1422 C 0.15526 0.53881 0.03471 0.0
C1423 C 0.17468 0.56298 1.00976 0.0
C1424 C 0.19637 0.55992 0.98741 0.0
C1425 C 0.19874 0.53361 0.98987 0.0
C1426 C 0.18369 0.63705 0.97023 0.0
C1427 C 0.18309 0.65213 1.00409 0.0
C1428 C 0.17871 0.60725 0.97187 0.0
C1429 C 0.17374 0.59203 1.0076 0.0
C1430 C 0.17114 0.60639 0.04128 0.0
C1431 C 0.17564 0.63621 0.0395 0.0
H1432 H 0.50144 0.68 0.9434 0.0
H1433 H 0.51579 0.65733 0.05925 0.0
H1434 H 0.45379 0.63169 0.93921 0.0
H1435 H 0.46825 0.60789 0.0546 0.0
H1436 H 0.37721 0.538 0.92608 0.0
H1437 H 0.43028 0.57892 0.93296 0.0
H1438 H 0.41436 0.58648 0.05468 0.0
H1439 H 0.36165 0.54405 0.04785 0.0
C1440 C 0.49474 0.66435 0.96774 0.0
C1441 C 0.51241 0.67258 1.00168 0.0
C1442 C 0.46736 0.63638 0.96527 0.0
C1443 C 0.45701 0.61554 0.99648 0.0
C1444 C 0.4752 0.62343 0.03014 0.0
C1445 C 0.50255 0.6517 0.03276 0.0
C1446 C 0.38538 0.54798 0.95446 0.0
C1447 C 0.36545 0.53803 0.98638 0.0
C1448 C 0.4157 0.57168 0.9584 0.0
C1449 C 0.42658 0.58671 0.99418 0.0
C1450 C 0.40699 0.57546 0.0267 0.0
C1451 C 0.37674 0.55117 0.02287 0.0
H1452 H 0.53278 0.67914 0.4261 0.0
H1453 H 0.49874 0.66642 0.30868 0.0
H1454 H 0.5295 0.72573 0.43128 0.0
H1455 H 0.49471 0.71237 0.31423 0.0
H1456 H 0.5003 0.80367 0.32807 0.0
H1457 H 0.51903 0.76755 0.32159 0.0
H1458 H 0.48629 0.73355 0.43704 0.0
H1459 H 0.46863 0.77011 0.44401 0.0
C1460 C 0.52497 0.68646 0.40124 0.0
C1461 C 0.51557 0.66877 0.36723 0.0
C1462 C 0.52294 0.71309 0.40427 0.0
C1463 C 0.51142 0.72258 0.37337 0.0
C1464 C 0.50387 0.70591 0.33852 0.0
C1465 C 0.50596 0.67935 0.33547 0.0
C1466 C 0.49786 0.78909 0.35246 0.0
C1467 C 0.48297 0.78985 0.38665 0.0
C1468 C 0.5083 0.76813 0.34857 0.0
C1469 C 0.50414 0.74759 0.37876 0.0
C1470 C 0.49033 0.74927 0.41338 0.0
C1471 C 0.47987 0.77006 0.41723 0.0
H1472 H 0.31608 0.85015 0.42288 0.0
H1473 H 0.32144 0.84302 0.29868 0.0
H1474 H 0.2693 0.80027 0.42416 0.0
H1475 H 0.27507 0.7927 0.30009 0.0
H1476 H 0.18342 0.70408 0.31412 0.0
H1477 H 0.21965 0.75944 0.31335 0.0
H1478 H 0.26373 0.75001 0.41551 0.0
H1479 H 0.2275 0.69535 0.41677 0.0
C1480 C 0.30702 0.8382 0.39574 0.0
C1481 C 0.32288 0.85032 0.36079 0.0
C1482 C 0.28027 0.8095 0.3965 0.0
C1483 C 0.26882 0.79216 0.36237 0.0
C1484 C 0.28322 0.80541 0.32694 0.0
C1485 C 0.30995 0.83425 0.32615 0.0
C1486 C 0.2004 0.71398 0.3369 0.0
C1487 C 0.20249 0.69526 0.36562 0.0
C1488 C 0.22133 0.74565 0.33624 0.0
C1489 C 0.24451 0.75923 0.36447 0.0
C1490 C 0.24588 0.74053 0.39371 0.0
C1491 C 0.22525 0.70904 0.3942 0.0
H1492 H 0.31499 0.53242 0.45305 0.0
H1493 H 0.32507 0.53944 0.32877 0.0
H1494 H 0.26419 0.52665 0.44764 0.0
H1495 H 0.27525 0.53606 0.32301 0.0
H1496 H 0.1747 0.50684 0.32034 0.0
H1497 H 0.22293 0.50713 0.32598 0.0
H1498 H 0.23932 0.55339 0.43662 0.0
H1499 H 0.18984 0.55082 0.43191 0.0
C1500 C 0.30619 0.53274 0.42453 0.0
C1501 C 0.3237 0.53614 0.39133 0.0
C1502 C 0.27721 0.52985 0.42135 0.0
C1503 C 0.26545 0.53127 0.38489 0.0
C1504 C 0.28305 0.53429 0.35158 0.0
C1505 C 0.31171 0.53634 0.35476 0.0
C1506 C 0.18869 0.51702 0.34587 0.0
C1507 C 0.17861 0.52879 0.37575 0.0
C1508 C 0.21652 0.51739 0.34905 0.0
C1509 C 0.23537 0.5303 0.38178 0.0
C1510 C 0.22528 0.54251 0.41139 0.0
C1511 C 0.19702 0.54136 0.40864 0.0
H1512 H 0.30267 0.03397 0.36697 0.0
H1513 H 0.38064 0.12502 0.35316 0.0
H1514 H 0.3289 0.01283 0.33018 0.0
H1515 H 0.40647 0.10436 0.31394 0.0
H1516 H 0.45763 0.04967 0.30505 0.0
H1517 H 0.43148 0.07708 0.32431 0.0
H1518 H 0.34763 0.00596 0.27206 0.0
H1519 H 0.37371 0.97764 0.25549 0.0
C1520 C 0.32523 0.04948 0.35519 0.0
C1521 C 0.33988 0.08097 0.36304 0.0
C1522 C 0.34021 0.03748 0.33369 0.0
C1523 C 0.36992 0.05687 0.31892 0.0
C1524 C 0.38391 0.08866 0.32547 0.0
C1525 C 0.36917 0.10054 0.34781 0.0
C1526 C 0.43381 0.04042 0.29695 0.0
C1527 C 0.41742 0.01156 0.27941 0.0
C1528 C 0.41876 0.05613 0.30779 0.0
C1529 C 0.38718 0.04347 0.30046 0.0
C1530 C 0.37167 0.01591 0.27932 0.0
C1531 C 0.38657 -0.00017 0.26943 0.0
H1532 H 0.08276 0.38936 0.26002 0.0
H1533 H 0.07217 0.41698 0.3747 0.0
H1534 H 0.0767 0.34171 0.28639 0.0
H1535 H 0.06362 0.36914 0.40067 0.0
H1536 H 0.02019 0.27952 0.44286 0.0
H1537 H 0.06426 0.32676 0.41926 0.0
H1538 H 0.03255 0.29907 0.30151 0.0
H1539 H 0.99083 0.25151 0.32515 0.0
C1540 C 0.07977 0.38543 0.291 0.0
C1541 C 0.07726 0.40641 0.31523 0.0
C1542 C 0.07602 0.35804 0.30619 0.0
C1543 C 0.06809 0.35054 0.3455 0.0
C1544 C 0.06948 0.37347 0.37028 0.0
C1545 C 0.07422 0.40117 0.3553 0.0
C1546 C 0.02366 0.28325 0.41189 0.0
C1547 C 0.00188 0.26242 0.38581 0.0
C1548 C 0.0487 0.31042 0.39825 0.0
C1549 C 0.0513 0.31784 0.35849 0.0
C1550 C 0.03164 0.29483 0.33233 0.0
C1551 C 0.00731 0.26731 0.34591 0.0
H1552 H 0.60422 0.54961 0.2966 0.0
H1553 H 0.59476 0.61666 0.36496 0.0
H1554 H 0.65411 0.56659 0.32665 0.0
H1555 H 0.64329 0.63208 0.39556 0.0
H1556 H 0.75626 0.65336 0.34241 0.0
H1557 H 0.7036 0.62028 0.32065 0.0
H1558 H 0.67152 0.61168 0.43867 0.0
H1559 H 0.72437 0.64496 0.46054 0.0
C1560 C 0.61235 0.56748 0.31838 0.0
C1561 C 0.59506 0.58139 0.32851 0.0
C1562 C 0.64074 0.57695 0.33569 0.0
C1563 C 0.65209 0.6002 0.36374 0.0
C1564 C 0.63455 0.61348 0.37473 0.0
C1565 C 0.60653 0.60445 0.35707 0.0
C1566 C 0.73797 0.64405 0.36372 0.0
C1567 C 0.74404 0.65228 0.40294 0.0
C1568 C 0.70798 0.62481 0.35136 0.0
C1569 C 0.68371 0.61377 0.37805 0.0
C1570 C 0.69001 0.62015 0.41766 0.0
C1571 C 0.72009 0.63912 0.43009 0.0
H1572 H 0.95673 0.26257 0.60864 0.0
H1573 H 0.97377 0.22657 0.71357 0.0
H1574 H 0.91586 0.26553 0.64061 0.0
H1575 H 0.9313 0.22747 0.7448 0.0
H1576 H 0.87747 0.30818 0.69588 0.0
H1577 H 0.87542 0.26109 0.67704 0.0
H1578 H 0.9386 0.27319 0.76922 0.0
H1579 H 0.93892 0.3189 0.7898 0.0
C1580 C 0.95099 0.2541 0.63809 0.0
C1581 C 0.96982 0.24609 0.65899 0.0
C1582 C 0.92699 0.25531 0.65652 0.0
C1583 C 0.92129 0.2484 0.6963 0.0
C1584 C 0.93607 0.23445 0.71472 0.0
C1585 C 0.96052 0.23375 0.69648 0.0
C1586 C 0.88985 0.30027 0.71349 0.0
C1587 C 0.91005 0.3186 0.74303 0.0
C1588 C 0.88875 0.27306 0.70236 0.0
C1589 C 0.90858 0.26444 0.71962 0.0
C1590 C 0.92369 0.27937 0.75405 0.0
C1591 C 0.9243 0.30616 0.76569 0.0
H1592 H 0.59592 0.60472 0.80473 0.0
H1593 H 0.55757 0.56691 0.69257 0.0
H1594 H 0.61748 0.6567 0.77827 0.0
H1595 H 0.57919 0.61844 0.66619 0.0
H1596 H 0.69016 0.73053 0.69169 0.0
H1597 H 0.6604 0.68381 0.729 0.0
H1598 H 0.57789 0.66731 0.67006 0.0
H1599 H 0.6075 0.71434 0.63286 0.0
C1600 C 0.59172 0.60761 0.77466 0.0
C1601 C 0.57577 0.58207 0.75038 0.0
C1602 C 0.60408 0.63719 0.75956 0.0
C1603 C 0.60012 0.64144 0.72021 0.0
C1604 C 0.58241 0.61579 0.69668 0.0
C1605 C 0.57038 0.58635 0.71163 0.0
C1606 C 0.66558 0.71749 0.68733 0.0
C1607 C 0.65119 0.72616 0.65922 0.0
C1608 C 0.64854 0.69073 0.70881 0.0
C1609 C 0.61691 0.67209 0.70236 0.0
C1610 C 0.60232 0.68127 0.67533 0.0
C1611 C 0.61931 0.70805 0.65394 0.0
H1612 H 0.41102 0.10409 0.70369 0.0
H1613 H 0.36026 0.04189 0.79741 0.0
H1614 H 0.36541 0.10454 0.68395 0.0
H1615 H 0.31435 0.04074 0.77584 0.0
H1616 H 0.28317 0.0252 0.61594 0.0
H1617 H 0.32868 0.06377 0.64798 0.0
H1618 H 0.27661 0.05034 0.75324 0.0
H1619 H 0.23128 0.01018 0.72166 0.0
C1620 C 0.39058 0.09105 0.72096 0.0
C1621 C 0.3891 0.07135 0.75097 0.0
C1622 C 0.36415 0.0913 0.70932 0.0
C1623 C 0.3357 0.07126 0.72665 0.0
C1624 C 0.33554 0.05601 0.7609 0.0
C1625 C 0.36202 0.05623 0.77303 0.0
C1626 C 0.28116 0.03106 0.64561 0.0
C1627 C 0.25391 0.01356 0.66658 0.0
C1628 C 0.30735 0.05367 0.66408 0.0
C1629 C 0.30677 0.05929 0.70398 0.0
C1630 C 0.27816 0.0457 0.72293 0.0
C1631 C 0.25195 0.02271 0.70454 0.0
H1632 H 0.6553 0.91568 0.69079 0.0
H1633 H 0.73588 -0.00091 0.6538 0.0
H1634 H 0.62879 0.94373 0.70286 0.0
H1635 H 0.70853 0.02749 0.66425 0.0
H1636 H 0.65539 0.07181 0.72014 0.0
H1637 H 0.68615 0.04687 0.71055 0.0
H1638 H 0.60561 0.9659 0.66775 0.0
H1639 H 0.57515 0.99001 0.67893 0.0
C1640 C 0.66727 0.94008 0.68471 0.0
C1641 C 0.69758 0.95509 0.67087 0.0
C1642 C 0.65195 0.95623 0.69149 0.0
C1643 C 0.66618 0.98789 0.68386 0.0
C1644 C 0.69684 0.00317 0.67064 0.0
C1645 C 0.71247 0.98692 0.66441 0.0
C1646 C 0.64439 0.04861 0.70888 0.0
C1647 C 0.61275 0.03272 0.70084 0.0
C1648 C 0.66202 0.03439 0.70312 0.0
C1649 C 0.64837 0.00412 0.68884 0.0
C1650 C 0.61688 0.9888 0.67991 0.0
C1651 C 0.59932 0.00273 0.68618 0.0
H1652 H 0.00345 0.59577 0.72232 0.0
H1653 H 0.91717 0.58407 0.68142 0.0
H1654 H 0.02796 0.6506 0.71016 0.0
H1655 H 0.94198 0.63912 0.66835 0.0
H1656 H 0.99394 0.74512 0.68571 0.0
H1657 H 0.96623 0.68988 0.69802 0.0
H1658 H 0.04367 0.68402 0.65462 0.0
H1659 H 0.07151 0.73909 0.64322 0.0
C1660 C 0.98966 0.6049 0.71081 0.0
C1661 C 0.95839 0.58547 0.70259 0.0
C1662 C 0.00379 0.63636 0.70351 0.0
C1663 C 0.98709 0.64925 0.68764 0.0
C1664 C 0.95552 0.62998 0.68067 0.0
C1665 C 0.94131 0.59842 0.6881 0.0
C1666 C 0.0049 0.73196 0.67846 0.0
C1667 C 0.03506 0.74657 0.66383 0.0
C1668 C 0.98899 0.70028 0.68545 0.0
C1669 C 0.00289 0.68256 0.6779 0.0
C1670 C 0.03254 0.69706 0.66172 0.0
C1671 C 0.04844 0.72865 0.65486 0.0
H1672 H 0.24369 0.25937 0.64908 0.0
H1673 H 0.24559 0.34061 0.69282 0.0
H1674 H 0.29922 0.28367 0.65943 0.0
H1675 H 0.29997 0.364 0.70534 0.0
H1676 H 0.40102 0.4135 0.68639 0.0
H1677 H 0.34643 0.38714 0.67432 0.0
H1678 H 0.33997 0.30072 0.70445 0.0
H1679 H 0.39567 0.32742 0.71432 0.0
C1680 C 0.25598 0.28232 0.66108 0.0
C1681 C 0.24043 0.29828 0.66957 0.0
C1682 C 0.28774 0.29619 0.66735 0.0
C1683 C 0.30442 0.32607 0.68289 0.0
C1684 C 0.28839 0.34146 0.69219 0.0
C1685 C 0.25701 0.32794 0.68516 0.0
C1686 C 0.38799 0.38889 0.69073 0.0
C1687 C 0.40262 0.37258 0.70168 0.0
C1688 C 0.35647 0.37367 0.68396 0.0
C1689 C 0.33838 0.34169 0.6889 0.0
C1690 C 0.35307 0.32528 0.69994 0.0
C1691 C 0.38494 0.34057 0.70595 0.0
H1692 H 0.98959 0.58444 0.37427 0.0
H1693 H 0.06444 0.66232 0.31699 0.0
H1694 H 0.96399 0.61375 0.38491 0.0
H1695 H 0.03807 0.6915 0.32607 0.0
H1696 H 0.99535 0.74473 0.37816 0.0
H1697 H 0.0229 0.71643 0.37255 0.0
H1698 H 0.93696 0.63293 0.35143 0.0
H1699 H 0.90961 0.66082 0.35868 0.0
C1700 C 0.0004 0.60776 0.36346 0.0
C1701 C 0.02895 0.62103 0.34461 0.0
C1702 C 0.98564 0.62459 0.36946 0.0
C1703 C -0.0012 0.65501 0.35619 0.0
C1704 C 0.02744 0.66831 0.33722 0.0
C1705 C 0.04245 0.65153 0.33169 0.0
C1706 C 0.98241 0.72025 0.37277 0.0
C1707 C 0.95031 0.70499 0.36898 0.0
C1708 C -0.0018 0.70407 0.36919 0.0
C1709 C 0.98223 0.67235 0.36139 0.0
C1710 C 0.95006 0.65717 0.35814 0.0
C1711 C 0.93431 0.67323 0.36217 0.0
H1712 H 0.24506 0.25429 0.35974 0.0
H1713 H 0.33072 0.26428 0.40048 0.0
H1714 H 0.27123 0.30929 0.34494 0.0
H1715 H 0.35653 0.31881 0.38606 0.0
H1716 H 0.40107 0.40368 0.31223 0.0
H1717 H 0.3707 0.34899 0.32554 0.0
H1718 H 0.29926 0.36184 0.37554 0.0
H1719 H 0.32967 0.4169 0.36185 0.0
C1720 C 0.26933 0.26823 0.36598 0.0
C1721 C 0.28587 0.25482 0.38092 0.0
C1722 C 0.28429 0.29971 0.35753 0.0
C1723 C 0.31605 0.31826 0.36367 0.0
C1724 C 0.33219 0.305 0.38012 0.0
C1725 C 0.3173 0.27373 0.38867 0.0
C1726 C 0.37877 0.39491 0.32569 0.0
C1727 C 0.36798 0.41476 0.33636 0.0
C1728 C 0.36144 0.36355 0.33357 0.0
C1729 C 0.33283 0.35118 0.35226 0.0
C1730 C 0.32124 0.37071 0.36116 0.0
C1731 C 0.33869 0.40223 0.35336 0.0
H1732 H 0.57597 0.00308 0.36441 0.0
H1733 H 0.57853 0.92226 0.32823 0.0
H1734 H 0.63129 0.03081 0.3714 0.0
H1735 H 0.63451 0.95057 0.3338 0.0
H1736 H 0.73168 0.00215 0.38692 0.0
H1737 H 0.67581 0.97262 0.37982 0.0
H1738 H 0.67684 0.05336 0.33531 0.0
H1739 H 0.732 0.08281 0.34383 0.0
C1740 C 0.58841 0.99133 0.35735 0.0
C1741 C 0.5728 0.96046 0.34567 0.0
C1742 C 0.62028 0.00732 0.36123 0.0
C1743 C 0.63756 0.99306 0.35303 0.0
C1744 C 0.62196 0.9622 0.34089 0.0
C1745 C 0.5899 0.94604 0.33736 0.0
C1746 C 0.71984 0.01352 0.3758 0.0
C1747 C 0.73624 0.04487 0.36624 0.0
C1748 C 0.68786 0.99657 0.37143 0.0
C1749 C 0.67166 0.01058 0.35711 0.0
C1750 C 0.6883 0.04188 0.34722 0.0
C1751 C 0.72006 0.05881 0.35198 0.0
H1752 H 0.65671 0.73549 0.9959 0.0
H1753 H 0.70751 0.75348 0.10308 0.0
H1754 H 0.6832 0.7106 0.97002 0.0
H1755 H 0.73586 0.73053 0.07571 0.0
H1756 H 0.7443 0.64835 0.03617 0.0
H1757 H 0.72493 0.68014 0.06124 0.0
H1758 H 0.73057 0.71751 0.94672 0.0
H1759 H 0.74784 0.68372 0.92083 0.0
C1760 C 0.67334 0.734 1.01418 0.0
C1761 C 0.67906 0.74543 0.0523 0.0
C1762 C 0.68916 0.72037 0.99883 0.0
C1763 C 0.71149 0.71839 0.0209 0.0
C1764 C 0.71831 0.73115 0.05828 0.0
C1765 C 0.70219 0.74445 0.07386 0.0
C1766 C 0.74084 0.66279 1.01602 0.0
C1767 C 0.74636 0.6625 0.9761 0.0
C1768 C 0.73041 0.68164 0.03067 0.0
C1769 C 0.72589 0.70111 1.0059 0.0
C1770 C 0.73317 0.70221 0.96638 0.0
C1771 C 0.74325 0.68302 0.9516 0.0
H1772 H 0.34969 0.95767 0.11545 0.0
H1773 H 0.34485 0.90587 1.01301 0.0
H1774 H 0.39217 0.00275 0.08763 0.0
H1775 H 0.38885 0.95064 0.98627 0.0
H1776 H 0.38228 0.03277 0.93223 0.0
H1777 H 0.38113 0.98775 0.95764 0.0
H1778 H 0.43535 0.04002 0.05594 0.0
H1779 H 0.43466 0.08469 0.03183 0.0
C1780 C 0.35849 0.9555 0.08767 0.0
C1781 C 0.34259 0.92854 0.06572 0.0
C1782 C 0.38339 0.98147 0.07171 0.0
C1783 C 0.39295 0.98089 0.03348 0.0
C1784 C 0.38108 0.95227 1.01499 0.0
C1785 C 0.35576 0.92634 0.03067 0.0
C1786 C 0.39467 0.03495 0.95879 0.0
C1787 C 0.40694 0.06192 0.98092 0.0
C1788 C 0.39446 0.00904 0.97328 0.0
C1789 C 0.40669 0.0097 1.0102 0.0
C1790 C 0.4244 0.03834 0.02834 0.0
C1791 C 0.42415 0.0642 1.01418 0.0
H1792 H 0.91879 0.24923 0.03698 0.0
H1793 H 0.95086 0.23423 0.92716 0.0
H1794 H 0.97011 0.27172 0.06284 0.0
H1795 H 0.00202 0.25475 0.95426 0.0
H1796 H 0.09303 0.33697 0.99552 0.0
H1797 H 0.04195 0.30455 0.97028 0.0
H1798 H 0.01078 0.26444 0.08383 0.0
H1799 H 0.06169 0.29872 0.10991 0.0
C1800 C 0.93674 0.25077 1.0182 0.0
C1801 C 0.93091 0.24111 0.97934 0.0
C1802 C 0.96614 0.26301 0.03345 0.0
C1803 C 0.99027 0.26533 1.01049 0.0
C1804 C 0.98405 0.25389 0.97243 0.0
C1805 C 0.95468 0.24198 0.95699 0.0
C1806 C 0.07527 0.32164 1.01537 0.0
C1807 C 0.08112 0.32141 0.05516 0.0
C1808 C 0.04604 0.30245 1.00062 0.0
C1809 C 0.02215 0.28218 0.02515 0.0
C1810 C 0.02855 0.28035 0.06438 0.0
C1811 C 0.05776 0.29983 0.07925 0.0
H1812 H 0.31424 0.24195 0.02897 0.0
H1813 H 0.395 0.32173 0.98434 0.0
H1814 H 0.29006 0.27245 0.04021 0.0
H1815 H 0.37011 0.35233 0.99395 0.0
H1816 H 0.32702 0.40481 0.04906 0.0
H1817 H 0.35312 0.37523 0.04111 0.0
H1818 H 0.26712 0.29605 1.00749 0.0
H1819 H 0.24113 0.325 1.01711 0.0
C1820 C 0.32668 0.26598 0.02096 0.0
C1821 C 0.35648 0.27938 1.00553 0.0
C1822 C 0.31273 0.28353 0.0273 0.0
C1823 C 0.32795 0.31492 1.01777 0.0
C1824 C 0.35781 0.32835 1.00215 0.0
C1825 C 0.372 0.31078 0.99629 0.0
C1826 C 0.31373 0.38097 0.04039 0.0
C1827 C 0.28197 0.36721 0.03398 0.0
C1828 C 0.32872 0.36408 0.03545 0.0
C1829 C 0.31231 0.33315 0.02363 0.0
C1830 C 0.28051 0.31954 1.01739 0.0
C1831 C 0.26554 0.33624 0.0228 0.0
H1832 H 0.66295 0.92864 0.06008 0.0
H1833 H 0.57789 0.91704 1.01449 0.0
H1834 H 0.68843 0.98307 0.04505 0.0
H1835 H 0.60374 0.97189 0.99898 0.0
H1836 H 0.6601 0.07958 1.01269 0.0
H1837 H 0.63014 0.02472 0.02774 0.0
H1838 H 0.70409 0.01282 0.98471 0.0
H1839 H 0.73401 0.06731 0.97017 0.0
C1840 C 0.64959 0.93773 0.04707 0.0
C1841 C 0.61843 0.91839 0.03816 0.0
C1842 C 0.66429 0.96894 0.03817 0.0
C1843 C 0.64827 0.98172 0.02012 0.0
C1844 C 0.61672 0.96273 1.01284 0.0
C1845 C 0.60194 0.93132 0.02172 0.0
C1846 C 0.66978 0.06516 1.00605 0.0
C1847 C 0.69961 0.07792 0.99064 0.0
C1848 C 0.6526 0.03373 1.01463 0.0
C1849 C 0.66497 0.01453 1.0081 0.0
C1850 C 0.69419 0.02711 0.99099 0.0
C1851 C 0.71127 0.05837 0.98237 0.0
H1852 H 0.91143 0.66548 1.0122 0.0
H1853 H 0.91956 0.58567 0.98816 0.0
H1854 H 0.96631 0.69577 0.02247 0.0
H1855 H 0.97515 0.6165 0.99655 0.0
H1856 H 0.06866 0.67242 0.05605 0.0
H1857 H 0.01348 0.64101 0.04456 0.0
H1858 H 0.01375 0.71907 0.99185 0.0
H1859 H 0.06815 0.75049 1.00517 0.0
C1860 C 0.9251 0.65456 1.00828 0.0
C1861 C 0.91121 0.62321 0.99935 0.0
C1862 C 0.95669 0.67199 1.01406 0.0
C1863 C 0.97535 0.65868 1.01034 0.0
C1864 C 0.96149 0.62741 1.00037 0.0
C1865 C 0.92969 0.6098 0.99518 0.0
C1866 C 0.05674 0.68277 0.04225 0.0
C1867 C 0.07258 0.71393 0.03186 0.0
C1868 C 0.0252 0.66476 0.03531 0.0
C1869 C 0.00901 0.67745 1.01729 0.0
C1870 C 0.02516 0.70859 1.00657 0.0
C1871 C 0.05645 0.72665 1.01411 0.0
loop_
_geom_bond_atom_site_label_1
_geom_bond_atom_site_label_2
_geom_bond_distance
_geom_bond_site_symmetry_2
_ccdc_geom_bond_type
Zn0 N4 2.020 . S
Zn0 O8 2.019 . S
Zn0 N10 2.119 . S
Zn0 O18 1.975 . S
C1 N2 1.334 . S
C1 N5 1.336 . S
N2 C1 1.334 . S
N2 C3 1.334 . S
C3 N2 1.334 . S
C3 N4 1.336 . S
N4 Zn0 2.020 . S
N4 C3 1.336 . S
N4 N5 1.354 . S
N5 C1 1.336 . S
N5 N4 1.354 . S
N5 Zn9 2.020 . S
C6 O7 1.244 . S
C6 O30 1.257 . S
O7 C6 1.244 . S
O8 Zn0 2.019 . S
O8 C28 1.257 . S
Zn9 N5 2.020 . S
Zn9 O16 1.975 . S
Zn9 N25 2.119 . S
Zn9 O30 2.019 . S
N10 Zn0 2.119 . S
N10 C12 1.334 . S
N10 C13 1.328 . S
C11 C12 1.391 . S
C11 N14 1.329 . S
C11 H32 0.930 . S
C12 N10 1.334 . S
C12 C11 1.391 . S
C12 H19 0.930 . S
C13 N10 1.328 . S
C13 C15 1.392 . S
C13 H20 0.930 . S
N14 C11 1.329 . S
N14 C15 1.331 . S
C15 C13 1.392 . S
C15 N14 1.331 . S
O16 Zn9 1.975 . S
O16 C17 1.252 . S
C17 O16 1.252 . S
C17 O18 1.252 . S
O18 Zn0 1.975 . S
O18 C17 1.252 . S
H19 C12 0.930 . S
H20 C13 0.930 . S
C21 C22 1.392 . S
C21 N25 1.328 . S
C21 H27 0.930 . S
C22 C21 1.392 . S
C22 N26 1.331 . S
C23 C24 1.391 . S
C23 N26 1.329 . S
C23 H33 0.930 . S
C24 C23 1.391 . S
C24 N25 1.334 . S
C24 H31 0.930 . S
N25 Zn9 2.119 . S
N25 C21 1.328 . S
N25 C24 1.334 . S
N26 C22 1.331 . S
N26 C23 1.329 . S
H27 C21 0.930 . S
C28 O8 1.257 . S
C28 O29 1.244 . S
O29 C28 1.244 . S
O30 C6 1.257 . S
O30 Zn9 2.019 . S
H31 C24 0.930 . S
H32 C11 0.930 . S
H33 C23 0.930 . S
Zn34 N38 2.020 . S
Zn34 O42 2.019 . S
Zn34 N44 2.119 . S
Zn34 O52 1.975 . S
C35 N36 1.334 . S
C35 N39 1.336 . S
N36 C35 1.334 . S
N36 C37 1.334 . S
C37 N36 1.334 . S
C37 N38 1.336 . S
N38 Zn34 2.020 . S
N38 C37 1.336 . S
N38 N39 1.354 . S
N39 C35 1.336 . S
N39 N38 1.354 . S
N39 Zn43 2.020 . S
C40 O41 1.244 . S
C40 O64 1.257 . S
O41 C40 1.244 . S
O42 Zn34 2.019 . S
O42 C62 1.257 . S
Zn43 N39 2.020 . S
Zn43 O50 1.975 . S
Zn43 N59 2.119 . S
Zn43 O64 2.019 . S
N44 Zn34 2.119 . S
N44 C46 1.334 . S
N44 C47 1.328 . S
C45 C46 1.391 . S
C45 N48 1.329 . S
C45 H66 0.930 . S
C46 N44 1.334 . S
C46 C45 1.391 . S
C46 H53 0.930 . S
C47 N44 1.328 . S
C47 C49 1.392 . S
C47 H54 0.930 . S
N48 C45 1.329 . S
N48 C49 1.331 . S
C49 C47 1.392 . S
C49 N48 1.331 . S
O50 Zn43 1.975 . S
O50 C51 1.252 . S
C51 O50 1.252 . S
C51 O52 1.252 . S
O52 Zn34 1.975 . S
O52 C51 1.252 . S
H53 C46 0.930 . S
H54 C47 0.930 . S
C55 C56 1.392 1_545 S
C55 N59 1.328 . S
C55 H61 0.930 . S
C56 C55 1.392 1_565 S
C56 N60 1.331 . S
C57 C58 1.391 . S
C57 N60 1.329 1_545 S
C57 H67 0.930 . S
C58 C57 1.391 . S
C58 N59 1.334 . S
C58 H65 0.930 . S
N59 Zn43 2.119 . S
N59 C55 1.328 . S
N59 C58 1.334 . S
N60 C56 1.331 . S
N60 C57 1.329 1_565 S
H61 C55 0.930 . S
C62 O42 1.257 . S
C62 O63 1.244 . S
O63 C62 1.244 . S
O64 C40 1.257 . S
O64 Zn43 2.019 . S
H65 C58 0.930 . S
H66 C45 0.930 . S
H67 C57 0.930 . S
Zn68 N72 2.020 . S
Zn68 O76 2.019 . S
Zn68 N78 2.119 . S
Zn68 O86 1.975 . S
C69 N70 1.334 . S
C69 N73 1.336 . S
N70 C69 1.334 . S
N70 C71 1.334 . S
C71 N70 1.334 . S
C71 N72 1.336 . S
N72 Zn68 2.020 . S
N72 C71 1.336 . S
N72 N73 1.354 . S
N73 C69 1.336 . S
N73 N72 1.354 . S
N73 Zn77 2.020 . S
C74 O75 1.244 . S
C74 O98 1.257 . S
O75 C74 1.244 . S
O76 Zn68 2.019 . S
O76 C96 1.257 . S
Zn77 N73 2.020 . S
Zn77 O84 1.975 . S
Zn77 N93 2.119 . S
Zn77 O98 2.019 . S
N78 Zn68 2.119 . S
N78 C80 1.334 . S
N78 C81 1.328 . S
C79 C80 1.391 . S
C79 N82 1.329 1_655 S
C79 H100 0.930 . S
C80 N78 1.334 . S
C80 C79 1.391 . S
C80 H87 0.930 . S
C81 N78 1.328 . S
C81 C83 1.392 1_655 S
C81 H88 0.930 . S
N82 C79 1.329 1_455 S
N82 C83 1.331 . S
C83 C81 1.392 1_455 S
C83 N82 1.331 . S
O84 Zn77 1.975 . S
O84 C85 1.252 . S
C85 O84 1.252 . S
C85 O86 1.252 . S
O86 Zn68 1.975 . S
O86 C85 1.252 . S
H87 C80 0.930 . S
H88 C81 0.930 . S
C89 C90 1.392 . S
C89 N93 1.328 . S
C89 H95 0.930 . S
C90 C89 1.392 . S
C90 N94 1.331 . S
C91 C92 1.391 . S
C91 N94 1.329 . S
C91 H101 0.930 . S
C92 C91 1.391 . S
C92 N93 1.334 . S
C92 H99 0.930 . S
N93 Zn77 2.119 . S
N93 C89 1.328 . S
N93 C92 1.334 . S
N94 C90 1.331 . S
N94 C91 1.329 . S
H95 C89 0.930 . S
C96 O76 1.257 . S
C96 O97 1.244 . S
O97 C96 1.244 . S
O98 C74 1.257 . S
O98 Zn77 2.019 . S
H99 C92 0.930 . S
H100 C79 0.930 . S
H101 C91 0.930 . S
Zn102 N106 2.020 . S
Zn102 O110 2.019 . S
Zn102 N112 2.119 . S
Zn102 O120 1.975 . S
C103 N104 1.334 . S
C103 N107 1.336 . S
N104 C103 1.334 . S
N104 C105 1.334 . S
C105 N104 1.334 . S
C105 N106 1.336 . S
N106 Zn102 2.020 . S
N106 C105 1.336 . S
N106 N107 1.354 . S
N107 C103 1.336 . S
N107 N106 1.354 . S
N107 Zn111 2.020 . S
C108 O109 1.244 . S
C108 O132 1.257 . S
O109 C108 1.244 . S
O110 Zn102 2.019 . S
O110 C130 1.257 . S
Zn111 N107 2.020 . S
Zn111 O118 1.975 . S
Zn111 N127 2.119 . S
Zn111 O132 2.019 . S
N112 Zn102 2.119 . S
N112 C114 1.334 . S
N112 C115 1.328 . S
C113 C114 1.391 . S
C113 N116 1.329 . S
C113 H134 0.930 . S
C114 N112 1.334 . S
C114 C113 1.391 . S
C114 H121 0.930 . S
C115 N112 1.328 . S
C115 C117 1.392 . S
C115 H122 0.930 . S
N116 C113 1.329 . S
N116 C117 1.331 . S
C117 C115 1.392 . S
C117 N116 1.331 . S
O118 Zn111 1.975 . S
O118 C119 1.252 . S
C119 O118 1.252 . S
C119 O120 1.252 . S
O120 Zn102 1.975 . S
O120 C119 1.252 . S
H121 C114 0.930 . S
H122 C115 0.930 . S
C123 C124 1.392 . S
C123 N127 1.328 . S
C123 H129 0.930 . S
C124 C123 1.392 . S
C124 N128 1.331 . S
C125 C126 1.391 . S
C125 N128 1.329 . S
C125 H135 0.930 . S
C126 C125 1.391 . S
C126 N127 1.334 . S
C126 H133 0.930 . S
N127 Zn111 2.119 . S
N127 C123 1.328 . S
N127 C126 1.334 . S
N128 C124 1.331 . S
N128 C125 1.329 . S
H129 C123 0.930 . S
C130 O110 1.257 . S
C130 O131 1.244 . S
O131 C130 1.244 . S
O132 C108 1.257 . S
O132 Zn111 2.019 . S
H133 C126 0.930 . S
H134 C113 0.930 . S
H135 C125 0.930 . S
Zn136 N140 2.020 . S
Zn136 O144 2.019 . S
Zn136 N146 2.119 . S
Zn136 O154 1.975 . S
C137 N138 1.334 . S
C137 N141 1.336 . S
N138 C137 1.334 . S
N138 C139 1.334 . S
C139 N138 1.334 . S
C139 N140 1.336 . S
N140 Zn136 2.020 . S
N140 C139 1.336 . S
N140 N141 1.354 . S
N141 C137 1.336 . S
N141 N140 1.354 . S
N141 Zn145 2.020 . S
C142 O143 1.244 . S
C142 O166 1.257 . S
O143 C142 1.244 . S
O144 Zn136 2.019 . S
O144 C164 1.257 . S
Zn145 N141 2.020 . S
Zn145 O152 1.975 . S
Zn145 N161 2.119 . S
Zn145 O166 2.019 . S
N146 Zn136 2.119 . S
N146 C148 1.334 . S
N146 C149 1.328 . S
C147 C148 1.391 . S
C147 N150 1.329 . S
C147 H168 0.930 . S
C148 N146 1.334 . S
C148 C147 1.391 . S
C148 H155 0.930 . S
C149 N146 1.328 . S
C149 C151 1.392 . S
C149 H156 0.930 . S
N150 C147 1.329 . S
N150 C151 1.331 . S
C151 C149 1.392 . S
C151 N150 1.331 . S
O152 Zn145 1.975 . S
O152 C153 1.252 . S
C153 O152 1.252 . S
C153 O154 1.252 . S
O154 Zn136 1.975 . S
O154 C153 1.252 . S
H155 C148 0.930 . S
H156 C149 0.930 . S
C157 C158 1.392 1_565 S
C157 N161 1.328 . S
C157 H163 0.930 . S
C158 C157 1.392 1_545 S
C158 N162 1.331 . S
C159 C160 1.391 . S
C159 N162 1.329 1_565 S
C159 H169 0.930 . S
C160 C159 1.391 . S
C160 N161 1.334 . S
C160 H167 0.930 . S
N161 Zn145 2.119 . S
N161 C157 1.328 . S
N161 C160 1.334 . S
N162 C158 1.331 . S
N162 C159 1.329 1_545 S
H163 C157 0.930 . S
C164 O144 1.257 . S
C164 O165 1.244 . S
O165 C164 1.244 . S
O166 C142 1.257 . S
O166 Zn145 2.019 . S
H167 C160 0.930 . S
H168 C147 0.930 . S
H169 C159 0.930 . S
Zn170 N174 2.020 . S
Zn170 O178 2.019 . S
Zn170 N180 2.119 . S
Zn170 O188 1.975 . S
C171 N172 1.334 . S
C171 N175 1.336 . S
N172 C171 1.334 . S
N172 C173 1.334 . S
C173 N172 1.334 . S
C173 N174 1.336 . S
N174 Zn170 2.020 . S
N174 C173 1.336 . S
N174 N175 1.354 . S
N175 C171 1.336 . S
N175 N174 1.354 . S
N175 Zn179 2.020 . S
C176 O177 1.244 . S
C176 O200 1.257 . S
O177 C176 1.244 . S
O178 Zn170 2.019 . S
O178 C198 1.257 . S
Zn179 N175 2.020 . S
Zn179 O186 1.975 . S
Zn179 N195 2.119 . S
Zn179 O200 2.019 . S
N180 Zn170 2.119 . S
N180 C182 1.334 . S
N180 C183 1.328 . S
C181 C182 1.391 . S
C181 N184 1.329 . S
C181 H202 0.930 . S
C182 N180 1.334 . S
C182 C181 1.391 . S
C182 H189 0.930 . S
C183 N180 1.328 . S
C183 C185 1.392 . S
C183 H190 0.930 . S
N184 C181 1.329 . S
N184 C185 1.331 . S
C185 C183 1.392 . S
C185 N184 1.331 . S
O186 Zn179 1.975 . S
O186 C187 1.252 . S
C187 O186 1.252 . S
C187 O188 1.252 . S
O188 Zn170 1.975 . S
O188 C187 1.252 . S
H189 C182 0.930 . S
H190 C183 0.930 . S
C191 C192 1.392 1_455 S
C191 N195 1.328 . S
C191 H197 0.930 . S
C192 C191 1.392 1_655 S
C192 N196 1.331 . S
C193 C194 1.391 . S
C193 N196 1.329 1_455 S
C193 H203 0.930 . S
C194 C193 1.391 . S
C194 N195 1.334 . S
C194 H201 0.930 . S
N195 Zn179 2.119 . S
N195 C191 1.328 . S
N195 C194 1.334 . S
N196 C192 1.331 . S
N196 C193 1.329 1_655 S
H197 C191 0.930 . S
C198 O178 1.257 . S
C198 O199 1.244 . S
O199 C198 1.244 . S
O200 C176 1.257 . S
O200 Zn179 2.019 . S
H201 C194 0.930 . S
H202 C181 0.930 . S
H203 C193 0.930 . S
Zn204 N208 2.020 . S
Zn204 O212 2.019 . S
Zn204 N214 2.119 . S
Zn204 O222 1.975 . S
C205 N206 1.334 . S
C205 N209 1.336 . S
N206 C205 1.334 . S
N206 C207 1.334 . S
C207 N206 1.334 . S
C207 N208 1.336 . S
N208 Zn204 2.020 . S
N208 C207 1.336 . S
N208 N209 1.354 . S
N209 C205 1.336 . S
N209 N208 1.354 . S
N209 Zn213 2.020 . S
C210 O211 1.244 . S
C210 O234 1.257 . S
O211 C210 1.244 . S
O212 Zn204 2.019 . S
O212 C232 1.257 . S
Zn213 N209 2.020 . S
Zn213 O220 1.975 . S
Zn213 N229 2.119 . S
Zn213 O234 2.019 . S
N214 Zn204 2.119 . S
N214 C216 1.334 . S
N214 C217 1.328 . S
C215 C216 1.391 . S
C215 N218 1.329 . S
C215 H236 0.930 . S
C216 N214 1.334 . S
C216 C215 1.391 . S
C216 H223 0.930 . S
C217 N214 1.328 . S
C217 C219 1.392 . S
C217 H224 0.930 . S
N218 C215 1.329 . S
N218 C219 1.331 . S
C219 C217 1.392 . S
C219 N218 1.331 . S
O220 Zn213 1.975 . S
O220 C221 1.252 . S
C221 O220 1.252 . S
C221 O222 1.252 . S
O222 Zn204 1.975 . S
O222 C221 1.252 . S
H223 C216 0.930 . S
H224 C217 0.930 . S
C225 C226 1.392 . S
C225 N229 1.328 . S
C225 H231 0.930 . S
C226 C225 1.392 . S
C226 N230 1.331 1_655 S
C227 C228 1.391 1_455 S
C227 N230 1.329 . S
C227 H237 0.930 . S
C228 C227 1.391 1_655 S
C228 N229 1.334 . S
C228 H235 0.930 . S
N229 Zn213 2.119 . S
N229 C225 1.328 . S
N229 C228 1.334 . S
N230 C226 1.331 1_455 S
N230 C227 1.329 . S
H231 C225 0.930 . S
C232 O212 1.257 . S
C232 O233 1.244 . S
O233 C232 1.244 . S
O234 C210 1.257 . S
O234 Zn213 2.019 . S
H235 C228 0.930 . S
H236 C215 0.930 . S
H237 C227 0.930 . S
Zn238 N242 2.020 . S
Zn238 O246 2.019 . S
Zn238 N248 2.119 . S
Zn238 O256 1.975 . S
C239 N240 1.334 . S
C239 N243 1.336 . S
N240 C239 1.334 . S
N240 C241 1.334 . S
C241 N240 1.334 . S
C241 N242 1.336 . S
N242 Zn238 2.020 . S
N242 C241 1.336 . S
N242 N243 1.354 . S
N243 C239 1.336 . S
N243 N242 1.354 . S
N243 Zn247 2.020 . S
C244 O245 1.244 . S
C244 O268 1.257 . S
O245 C244 1.244 . S
O246 Zn238 2.019 . S
O246 C266 1.257 . S
Zn247 N243 2.020 . S
Zn247 O254 1.975 . S
Zn247 N263 2.119 . S
Zn247 O268 2.019 . S
N248 Zn238 2.119 . S
N248 C250 1.334 . S
N248 C251 1.328 . S
C249 C250 1.391 . S
C249 N252 1.329 . S
C249 H270 0.930 . S
C250 N248 1.334 . S
C250 C249 1.391 . S
C250 H257 0.930 . S
C251 N248 1.328 . S
C251 C253 1.392 . S
C251 H258 0.930 . S
N252 C249 1.329 . S
N252 C253 1.331 . S
C253 C251 1.392 . S
C253 N252 1.331 . S
O254 Zn247 1.975 . S
O254 C255 1.252 . S
C255 O254 1.252 . S
C255 O256 1.252 . S
O256 Zn238 1.975 . S
O256 C255 1.252 . S
H257 C250 0.930 . S
H258 C251 0.930 . S
C259 C260 1.392 . S
C259 N263 1.328 . S
C259 H265 0.930 . S
C260 C259 1.392 . S
C260 N264 1.331 . S
C261 C262 1.391 . S
C261 N264 1.329 . S
C261 H271 0.930 . S
C262 C261 1.391 . S
C262 N263 1.334 . S
C262 H269 0.930 . S
N263 Zn247 2.119 . S
N263 C259 1.328 . S
N263 C262 1.334 . S
N264 C260 1.331 . S
N264 C261 1.329 . S
H265 C259 0.930 . S
C266 O246 1.257 . S
C266 O267 1.244 . S
O267 C266 1.244 . S
O268 C244 1.257 . S
O268 Zn247 2.019 . S
H269 C262 0.930 . S
H270 C249 0.930 . S
H271 C261 0.930 . S
Zn272 N276 2.020 . S
Zn272 O280 2.019 . S
Zn272 N282 2.119 . S
Zn272 O290 1.975 . S
C273 N274 1.334 . S
C273 N277 1.336 . S
N274 C273 1.334 . S
N274 C275 1.334 . S
C275 N274 1.334 . S
C275 N276 1.336 . S
N276 Zn272 2.020 . S
N276 C275 1.336 . S
N276 N277 1.354 . S
N277 C273 1.336 . S
N277 N276 1.354 . S
N277 Zn281 2.020 . S
C278 O279 1.244 . S
C278 O302 1.257 . S
O279 C278 1.244 . S
O280 Zn272 2.019 . S
O280 C300 1.257 . S
Zn281 N277 2.020 . S
Zn281 O288 1.975 . S
Zn281 N297 2.119 . S
Zn281 O302 2.019 . S
N282 Zn272 2.119 . S
N282 C284 1.334 . S
N282 C285 1.328 . S
C283 C284 1.391 . S
C283 N286 1.329 . S
C283 H304 0.930 . S
C284 N282 1.334 . S
C284 C283 1.391 . S
C284 H291 0.930 . S
C285 N282 1.328 . S
C285 C287 1.392 . S
C285 H292 0.930 . S
N286 C283 1.329 . S
N286 C287 1.331 . S
C287 C285 1.392 . S
C287 N286 1.331 . S
O288 Zn281 1.975 . S
O288 C289 1.252 . S
C289 O288 1.252 . S
C289 O290 1.252 . S
O290 Zn272 1.975 . S
O290 C289 1.252 . S
H291 C284 0.930 . S
H292 C285 0.930 . S
C293 C294 1.392 . S
C293 N297 1.328 . S
C293 H299 0.930 . S
C294 C293 1.392 . S
C294 N298 1.331 1_545 S
C295 C296 1.391 1_565 S
C295 N298 1.329 . S
C295 H305 0.930 . S
C296 C295 1.391 1_545 S
C296 N297 1.334 . S
C296 H303 0.930 . S
N297 Zn281 2.119 . S
N297 C293 1.328 . S
N297 C296 1.334 . S
N298 C294 1.331 1_565 S
N298 C295 1.329 . S
H299 C293 0.930 . S
C300 O280 1.257 . S
C300 O301 1.244 . S
O301 C300 1.244 . S
O302 C278 1.257 . S
O302 Zn281 2.019 . S
H303 C296 0.930 . S
H304 C283 0.930 . S
H305 C295 0.930 . S
Zn306 N310 2.020 1_554 S
Zn306 O314 2.019 . S
Zn306 N316 2.118 1_554 S
Zn306 O324 1.975 . S
C307 N308 1.334 . S
C307 N311 1.336 . S
N308 C307 1.334 . S
N308 C309 1.334 . S
C309 N308 1.334 . S
C309 N310 1.336 . S
N310 Zn306 2.020 1_556 S
N310 C309 1.336 . S
N310 N311 1.354 . S
N311 C307 1.336 . S
N311 N310 1.354 . S
N311 Zn315 2.020 1_556 S
C312 O313 1.244 . S
C312 O336 1.257 1_556 S
O313 C312 1.244 . S
O314 Zn306 2.019 . S
O314 C334 1.257 . S
Zn315 N311 2.020 1_554 S
Zn315 O322 1.975 . S
Zn315 N331 2.119 . S
Zn315 O336 2.019 . S
N316 Zn306 2.118 1_556 S
N316 C318 1.334 . S
N316 C319 1.328 . S
C317 C318 1.391 . S
C317 N320 1.329 . S
C317 H338 0.930 . S
C318 N316 1.334 . S
C318 C317 1.391 . S
C318 H325 0.930 . S
C319 N316 1.328 . S
C319 C321 1.393 . S
C319 H326 0.929 1_556 S
N320 C317 1.329 . S
N320 C321 1.331 . S
C321 C319 1.393 . S
C321 N320 1.331 . S
O322 Zn315 1.975 . S
O322 C323 1.252 . S
C323 O322 1.252 . S
C323 O324 1.252 . S
O324 Zn306 1.975 . S
O324 C323 1.252 . S
H325 C318 0.930 . S
H326 C319 0.929 1_554 S
C327 C328 1.392 . S
C327 N331 1.328 . S
C327 H333 0.930 . S
C328 C327 1.392 . S
C328 N332 1.331 . S
C329 C330 1.391 . S
C329 N332 1.329 . S
C329 H339 0.930 . S
C330 C329 1.391 . S
C330 N331 1.334 . S
C330 H337 0.930 . S
N331 Zn315 2.119 . S
N331 C327 1.328 . S
N331 C330 1.334 . S
N332 C328 1.331 . S
N332 C329 1.329 . S
H333 C327 0.930 . S
C334 O314 1.257 . S
C334 O335 1.244 . S
O335 C334 1.244 . S
O336 C312 1.257 1_554 S
O336 Zn315 2.019 . S
H337 C330 0.930 . S
H338 C317 0.930 . S
H339 C329 0.930 . S
Zn340 N344 2.020 1_554 S
Zn340 O348 2.019 . S
Zn340 N350 2.119 . S
Zn340 O358 1.975 . S
C341 N342 1.334 . S
C341 N345 1.336 . S
N342 C341 1.334 . S
N342 C343 1.334 . S
C343 N342 1.334 . S
C343 N344 1.336 . S
N344 Zn340 2.020 1_556 S
N344 C343 1.336 . S
N344 N345 1.354 . S
N345 C341 1.336 . S
N345 N344 1.354 . S
N345 Zn349 2.020 1_556 S
C346 O347 1.244 . S
C346 O370 1.257 . S
O347 C346 1.244 . S
O348 Zn340 2.019 . S
O348 C368 1.257 1_554 S
Zn349 N345 2.020 1_554 S
Zn349 O356 1.975 . S
Zn349 N365 2.118 1_554 S
Zn349 O370 2.019 . S
N350 Zn340 2.119 . S
N350 C352 1.334 . S
N350 C353 1.328 . S
C351 C352 1.391 . S
C351 N354 1.329 . S
C351 H372 0.930 . S
C352 N350 1.334 . S
C352 C351 1.391 . S
C352 H359 0.930 . S
C353 N350 1.328 . S
C353 C355 1.392 . S
C353 H360 0.930 . S
N354 C351 1.329 . S
N354 C355 1.331 . S
C355 C353 1.392 . S
C355 N354 1.331 . S
O356 Zn349 1.975 . S
O356 C357 1.252 . S
C357 O356 1.252 . S
C357 O358 1.252 . S
O358 Zn340 1.975 . S
O358 C357 1.252 . S
H359 C352 0.930 . S
H360 C353 0.930 . S
C361 C362 1.393 . S
C361 N365 1.328 . S
C361 H367 0.929 1_556 S
C362 C361 1.393 . S
C362 N366 1.331 . S
C363 C364 1.391 . S
C363 N366 1.329 . S
C363 H373 0.930 . S
C364 C363 1.391 . S
C364 N365 1.334 . S
C364 H371 0.930 . S
N365 Zn349 2.118 1_556 S
N365 C361 1.328 . S
N365 C364 1.334 . S
N366 C362 1.331 . S
N366 C363 1.329 . S
H367 C361 0.929 1_554 S
C368 O348 1.257 1_556 S
C368 O369 1.244 . S
O369 C368 1.244 . S
O370 C346 1.257 . S
O370 Zn349 2.019 . S
H371 C364 0.930 . S
H372 C351 0.930 . S
H373 C363 0.930 . S
Zn374 N378 2.020 1_554 S
Zn374 O382 2.019 . S
Zn374 N384 2.119 . S
Zn374 O392 1.975 . S
C375 N376 1.334 . S
C375 N379 1.336 . S
N376 C375 1.334 . S
N376 C377 1.334 . S
C377 N376 1.334 . S
C377 N378 1.336 . S
N378 Zn374 2.020 1_556 S
N378 C377 1.336 . S
N378 N379 1.354 . S
N379 C375 1.336 . S
N379 N378 1.354 . S
N379 Zn383 2.020 1_556 S
C380 O381 1.244 . S
C380 O404 1.257 . S
O381 C380 1.244 . S
O382 Zn374 2.019 . S
O382 C402 1.257 1_554 S
Zn383 N379 2.020 1_554 S
Zn383 O390 1.975 . S
Zn383 N399 2.118 1_554 S
Zn383 O404 2.019 . S
N384 Zn374 2.119 . S
N384 C386 1.334 . S
N384 C387 1.328 . S
C385 C386 1.391 . S
C385 N388 1.329 . S
C385 H406 0.930 . S
C386 N384 1.334 . S
C386 C385 1.391 . S
C386 H393 0.930 . S
C387 N384 1.328 . S
C387 C389 1.392 . S
C387 H394 0.930 . S
N388 C385 1.329 . S
N388 C389 1.331 . S
C389 C387 1.392 . S
C389 N388 1.331 . S
O390 Zn383 1.975 . S
O390 C391 1.252 . S
C391 O390 1.252 . S
C391 O392 1.252 . S
O392 Zn374 1.975 . S
O392 C391 1.252 . S
H393 C386 0.930 . S
H394 C387 0.930 . S
C395 C396 1.393 . S
C395 N399 1.328 . S
C395 H401 0.929 1_556 S
C396 C395 1.393 . S
C396 N400 1.331 . S
C397 C398 1.391 . S
C397 N400 1.329 . S
C397 H407 0.930 . S
C398 C397 1.391 . S
C398 N399 1.334 . S
C398 H405 0.930 . S
N399 Zn383 2.118 1_556 S
N399 C395 1.328 . S
N399 C398 1.334 . S
N400 C396 1.331 . S
N400 C397 1.329 . S
H401 C395 0.929 1_554 S
C402 O382 1.257 1_556 S
C402 O403 1.244 . S
O403 C402 1.244 . S
O404 C380 1.257 . S
O404 Zn383 2.019 . S
H405 C398 0.930 . S
H406 C385 0.930 . S
H407 C397 0.930 . S
Zn408 N412 2.020 1_556 S
Zn408 O416 2.019 . S
Zn408 N418 2.119 . S
Zn408 O426 1.975 . S
C409 N410 1.334 . S
C409 N413 1.336 . S
N410 C409 1.334 . S
N410 C411 1.334 . S
C411 N410 1.334 . S
C411 N412 1.336 . S
N412 Zn408 2.020 1_554 S
N412 C411 1.336 . S
N412 N413 1.354 . S
N413 C409 1.336 . S
N413 N412 1.354 . S
N413 Zn417 2.020 1_554 S
C414 O415 1.244 . S
C414 O438 1.257 . S
O415 C414 1.244 . S
O416 Zn408 2.019 . S
O416 C436 1.257 1_556 S
Zn417 N413 2.020 1_556 S
Zn417 O424 1.975 . S
Zn417 N433 2.118 1_556 S
Zn417 O438 2.019 . S
N418 Zn408 2.119 . S
N418 C420 1.334 . S
N418 C421 1.328 . S
C419 C420 1.391 . S
C419 N422 1.329 . S
C419 H440 0.930 . S
C420 N418 1.334 . S
C420 C419 1.391 . S
C420 H427 0.930 . S
C421 N418 1.328 . S
C421 C423 1.392 . S
C421 H428 0.930 . S
N422 C419 1.329 . S
N422 C423 1.331 . S
C423 C421 1.392 . S
C423 N422 1.331 . S
O424 Zn417 1.975 . S
O424 C425 1.252 . S
C425 O424 1.252 . S
C425 O426 1.252 . S
O426 Zn408 1.975 . S
O426 C425 1.252 . S
H427 C420 0.930 . S
H428 C421 0.930 . S
C429 C430 1.393 . S
C429 N433 1.328 . S
C429 H435 0.929 1_554 S
C430 C429 1.393 . S
C430 N434 1.331 . S
C431 C432 1.391 . S
C431 N434 1.329 . S
C431 H441 0.930 . S
C432 C431 1.391 . S
C432 N433 1.334 . S
C432 H439 0.930 . S
N433 Zn417 2.118 1_554 S
N433 C429 1.328 . S
N433 C432 1.334 . S
N434 C430 1.331 . S
N434 C431 1.329 . S
H435 C429 0.929 1_556 S
C436 O416 1.257 1_554 S
C436 O437 1.244 . S
O437 C436 1.244 . S
O438 C414 1.257 . S
O438 Zn417 2.019 . S
H439 C432 0.930 . S
H440 C419 0.930 . S
H441 C431 0.930 . S
Zn442 N446 2.020 1_556 S
Zn442 O450 2.019 . S
Zn442 N452 2.118 1_556 S
Zn442 O460 1.975 . S
C443 N444 1.334 . S
C443 N447 1.336 . S
N444 C443 1.334 . S
N444 C445 1.334 . S
C445 N444 1.334 . S
C445 N446 1.336 . S
N446 Zn442 2.020 1_554 S
N446 C445 1.336 . S
N446 N447 1.354 . S
N447 C443 1.336 . S
N447 N446 1.354 . S
N447 Zn451 2.020 1_554 S
C448 O449 1.244 . S
C448 O472 1.257 1_554 S
O449 C448 1.244 . S
O450 Zn442 2.019 . S
O450 C470 1.257 . S
Zn451 N447 2.020 1_556 S
Zn451 O458 1.975 . S
Zn451 N467 2.119 . S
Zn451 O472 2.019 . S
N452 Zn442 2.118 1_554 S
N452 C454 1.334 . S
N452 C455 1.328 . S
C453 C454 1.391 . S
C453 N456 1.329 . S
C453 H474 0.930 . S
C454 N452 1.334 . S
C454 C453 1.391 . S
C454 H461 0.930 . S
C455 N452 1.328 . S
C455 C457 1.393 . S
C455 H462 0.929 1_554 S
N456 C453 1.329 . S
N456 C457 1.331 . S
C457 C455 1.393 . S
C457 N456 1.331 . S
O458 Zn451 1.975 . S
O458 C459 1.252 . S
C459 O458 1.252 . S
C459 O460 1.252 . S
O460 Zn442 1.975 . S
O460 C459 1.252 . S
H461 C454 0.930 . S
H462 C455 0.929 1_556 S
C463 C464 1.392 . S
C463 N467 1.328 . S
C463 H469 0.930 . S
C464 C463 1.392 . S
C464 N468 1.331 . S
C465 C466 1.391 . S
C465 N468 1.329 . S
C465 H475 0.930 . S
C466 C465 1.391 . S
C466 N467 1.334 . S
C466 H473 0.930 . S
N467 Zn451 2.119 . S
N467 C463 1.328 . S
N467 C466 1.334 . S
N468 C464 1.331 . S
N468 C465 1.329 . S
H469 C463 0.930 . S
C470 O450 1.257 . S
C470 O471 1.244 . S
O471 C470 1.244 . S
O472 C448 1.257 1_556 S
O472 Zn451 2.019 . S
H473 C466 0.930 . S
H474 C453 0.930 . S
H475 C465 0.930 . S
Zn476 N480 2.020 1_556 S
Zn476 O484 2.019 . S
Zn476 N486 2.118 1_556 S
Zn476 O494 1.975 . S
C477 N478 1.334 . S
C477 N481 1.336 . S
N478 C477 1.334 . S
N478 C479 1.334 . S
C479 N478 1.334 . S
C479 N480 1.336 . S
N480 Zn476 2.020 1_554 S
N480 C479 1.336 . S
N480 N481 1.354 . S
N481 C477 1.336 . S
N481 N480 1.354 . S
N481 Zn485 2.020 1_554 S
C482 O483 1.244 . S
C482 O506 1.257 1_554 S
O483 C482 1.244 . S
O484 Zn476 2.019 . S
O484 C504 1.257 . S
Zn485 N481 2.020 1_556 S
Zn485 O492 1.975 . S
Zn485 N501 2.119 . S
Zn485 O506 2.019 . S
N486 Zn476 2.118 1_554 S
N486 C488 1.334 . S
N486 C489 1.328 . S
C487 C488 1.391 . S
C487 N490 1.329 . S
C487 H508 0.930 . S
C488 N486 1.334 . S
C488 C487 1.391 . S
C488 H495 0.930 . S
C489 N486 1.328 . S
C489 C491 1.393 . S
C489 H496 0.929 1_554 S
N490 C487 1.329 . S
N490 C491 1.331 . S
C491 C489 1.393 . S
C491 N490 1.331 . S
O492 Zn485 1.975 . S
O492 C493 1.252 . S
C493 O492 1.252 . S
C493 O494 1.252 . S
O494 Zn476 1.975 . S
O494 C493 1.252 . S
H495 C488 0.930 . S
H496 C489 0.929 1_556 S
C497 C498 1.392 . S
C497 N501 1.328 . S
C497 H503 0.930 . S
C498 C497 1.392 . S
C498 N502 1.331 . S
C499 C500 1.391 . S
C499 N502 1.329 . S
C499 H509 0.930 . S
C500 C499 1.391 . S
C500 N501 1.334 . S
C500 H507 0.930 . S
N501 Zn485 2.119 . S
N501 C497 1.328 . S
N501 C500 1.334 . S
N502 C498 1.331 . S
N502 C499 1.329 . S
H503 C497 0.930 . S
C504 O484 1.257 . S
C504 O505 1.244 . S
O505 C504 1.244 . S
O506 C482 1.257 1_556 S
O506 Zn485 2.019 . S
H507 C500 0.930 . S
H508 C487 0.930 . S
H509 C499 0.930 . S
Zn510 N514 2.020 . S
Zn510 O518 2.019 . S
Zn510 N520 2.119 . S
Zn510 O528 1.975 . S
C511 N512 1.334 . S
C511 N515 1.336 . S
N512 C511 1.334 . S
N512 C513 1.334 . S
C513 N512 1.334 . S
C513 N514 1.336 . S
N514 Zn510 2.020 . S
N514 C513 1.336 . S
N514 N515 1.354 . S
N515 C511 1.336 . S
N515 N514 1.354 . S
N515 Zn519 2.020 . S
C516 O517 1.244 . S
C516 O540 1.257 . S
O517 C516 1.244 . S
O518 Zn510 2.019 . S
O518 C538 1.257 . S
Zn519 N515 2.020 . S
Zn519 O526 1.975 . S
Zn519 N535 2.119 . S
Zn519 O540 2.019 . S
N520 Zn510 2.119 . S
N520 C522 1.334 . S
N520 C523 1.328 . S
C521 C522 1.391 1_545 S
C521 N524 1.329 . S
C521 H542 0.930 . S
C522 N520 1.334 . S
C522 C521 1.391 1_565 S
C522 H529 0.930 . S
C523 N520 1.328 . S
C523 C525 1.392 . S
C523 H530 0.930 . S
N524 C521 1.329 . S
N524 C525 1.331 1_545 S
C525 C523 1.392 . S
C525 N524 1.331 1_565 S
O526 Zn519 1.975 . S
O526 C527 1.252 . S
C527 O526 1.252 . S
C527 O528 1.252 . S
O528 Zn510 1.975 . S
O528 C527 1.252 . S
H529 C522 0.930 . S
H530 C523 0.930 . S
C531 C532 1.392 . S
C531 N535 1.328 . S
C531 H537 0.930 . S
C532 C531 1.392 . S
C532 N536 1.331 . S
C533 C534 1.391 . S
C533 N536 1.329 . S
C533 H543 0.930 . S
C534 C533 1.391 . S
C534 N535 1.334 . S
C534 H541 0.930 . S
N535 Zn519 2.119 . S
N535 C531 1.328 . S
N535 C534 1.334 . S
N536 C532 1.331 . S
N536 C533 1.329 . S
H537 C531 0.930 . S
C538 O518 1.257 . S
C538 O539 1.244 . S
O539 C538 1.244 . S
O540 C516 1.257 . S
O540 Zn519 2.019 . S
H541 C534 0.930 . S
H542 C521 0.930 . S
H543 C533 0.930 . S
Zn544 N548 2.020 . S
Zn544 O552 2.019 . S
Zn544 N554 2.119 . S
Zn544 O562 1.975 . S
C545 N546 1.334 . S
C545 N549 1.336 . S
N546 C545 1.334 . S
N546 C547 1.334 . S
C547 N546 1.334 . S
C547 N548 1.336 . S
N548 Zn544 2.020 . S
N548 C547 1.336 . S
N548 N549 1.354 . S
N549 C545 1.336 . S
N549 N548 1.354 . S
N549 Zn553 2.020 . S
C550 O551 1.244 . S
C550 O574 1.257 . S
O551 C550 1.244 . S
O552 Zn544 2.019 . S
O552 C572 1.257 . S
Zn553 N549 2.020 . S
Zn553 O560 1.975 . S
Zn553 N569 2.119 . S
Zn553 O574 2.019 . S
N554 Zn544 2.119 . S
N554 C556 1.334 . S
N554 C557 1.328 . S
C555 C556 1.391 . S
C555 N558 1.329 . S
C555 H576 0.930 . S
C556 N554 1.334 . S
C556 C555 1.391 . S
C556 H563 0.930 . S
C557 N554 1.328 . S
C557 C559 1.392 . S
C557 H564 0.930 . S
N558 C555 1.329 . S
N558 C559 1.331 . S
C559 C557 1.392 . S
C559 N558 1.331 . S
O560 Zn553 1.975 . S
O560 C561 1.252 . S
C561 O560 1.252 . S
C561 O562 1.252 . S
O562 Zn544 1.975 . S
O562 C561 1.252 . S
H563 C556 0.930 . S
H564 C557 0.930 . S
C565 C566 1.392 . S
C565 N569 1.328 . S
C565 H571 0.930 . S
C566 C565 1.392 . S
C566 N570 1.331 1_455 S
C567 C568 1.391 1_655 S
C567 N570 1.329 . S
C567 H577 0.930 . S
C568 C567 1.391 1_455 S
C568 N569 1.334 . S
C568 H575 0.930 . S
N569 Zn553 2.119 . S
N569 C565 1.328 . S
N569 C568 1.334 . S
N570 C566 1.331 1_655 S
N570 C567 1.329 . S
H571 C565 0.930 . S
C572 O552 1.257 . S
C572 O573 1.244 . S
O573 C572 1.244 . S
O574 C550 1.257 . S
O574 Zn553 2.019 . S
H575 C568 0.930 . S
H576 C555 0.930 . S
H577 C567 0.930 . S
Zn578 N582 2.020 . S
Zn578 O586 2.019 . S
Zn578 N588 2.119 . S
Zn578 O596 1.975 . S
C579 N580 1.334 . S
C579 N583 1.336 . S
N580 C579 1.334 . S
N580 C581 1.334 . S
C581 N580 1.334 . S
C581 N582 1.336 . S
N582 Zn578 2.020 . S
N582 C581 1.336 . S
N582 N583 1.354 . S
N583 C579 1.336 . S
N583 N582 1.354 . S
N583 Zn587 2.020 . S
C584 O585 1.244 . S
C584 O608 1.257 . S
O585 C584 1.244 . S
O586 Zn578 2.019 . S
O586 C606 1.257 . S
Zn587 N583 2.020 . S
Zn587 O594 1.975 . S
Zn587 N603 2.119 . S
Zn587 O608 2.019 . S
N588 Zn578 2.119 . S
N588 C590 1.334 . S
N588 C591 1.328 . S
C589 C590 1.391 . S
C589 N592 1.329 . S
C589 H610 0.930 . S
C590 N588 1.334 . S
C590 C589 1.391 . S
C590 H597 0.930 . S
C591 N588 1.328 . S
C591 C593 1.392 . S
C591 H598 0.930 . S
N592 C589 1.329 . S
N592 C593 1.331 . S
C593 C591 1.392 . S
C593 N592 1.331 . S
O594 Zn587 1.975 . S
O594 C595 1.252 . S
C595 O594 1.252 . S
C595 O596 1.252 . S
O596 Zn578 1.975 . S
O596 C595 1.252 . S
H597 C590 0.930 . S
H598 C591 0.930 . S
C599 C600 1.392 . S
C599 N603 1.328 . S
C599 H605 0.930 . S
C600 C599 1.392 . S
C600 N604 1.331 . S
C601 C602 1.391 . S
C601 N604 1.329 . S
C601 H611 0.930 . S
C602 C601 1.391 . S
C602 N603 1.334 . S
C602 H609 0.930 . S
N603 Zn587 2.119 . S
N603 C599 1.328 . S
N603 C602 1.334 . S
N604 C600 1.331 . S
N604 C601 1.329 . S
H605 C599 0.930 . S
C606 O586 1.257 . S
C606 O607 1.244 . S
O607 C606 1.244 . S
O608 C584 1.257 . S
O608 Zn587 2.019 . S
H609 C602 0.930 . S
H610 C589 0.930 . S
H611 C601 0.930 . S
H612 C620 0.950 . S
H613 C625 0.950 . S
H614 C622 0.950 . S
H615 C624 0.950 . S
H616 C626 0.950 . S
H617 C628 0.950 . S
H618 C630 0.950 . S
H619 C631 0.950 . S
C620 H612 0.950 . S
C620 C621 1.386 . S
C620 C622 1.391 . S
C621 C620 1.386 . S
C621 C625 1.393 . S
C622 H614 0.950 . S
C622 C620 1.391 . S
C622 C623 1.400 . S
C623 C622 1.400 . S
C623 C624 1.398 . S
C623 C629 1.491 . S
C624 H615 0.950 . S
C624 C623 1.398 . S
C624 C625 1.391 . S
C625 H613 0.950 . S
C625 C621 1.393 . S
C625 C624 1.391 . S
C626 H616 0.950 . S
C626 C627 1.386 . S
C626 C628 1.391 . S
C627 C626 1.386 . S
C627 C631 1.393 . S
C628 H617 0.950 . S
C628 C626 1.391 . S
C628 C629 1.400 . S
C629 C623 1.491 . S
C629 C628 1.400 . S
C629 C630 1.398 . S
C630 H618 0.950 . S
C630 C629 1.398 . S
C630 C631 1.391 . S
C631 H619 0.950 . S
C631 C627 1.393 . S
C631 C630 1.391 . S
H632 C640 0.950 . S
H633 C645 0.950 . S
H634 C642 0.950 . S
H635 C644 0.950 . S
H636 C646 0.950 . S
H637 C648 0.950 . S
H638 C650 0.950 . S
H639 C651 0.950 . S
C640 H632 0.950 . S
C640 C641 1.386 . S
C640 C642 1.391 . S
C641 C640 1.386 . S
C641 C645 1.393 . S
C642 H634 0.950 . S
C642 C640 1.391 . S
C642 C643 1.400 . S
C643 C642 1.400 . S
C643 C644 1.398 . S
C643 C649 1.491 . S
C644 H635 0.950 . S
C644 C643 1.398 . S
C644 C645 1.391 . S
C645 H633 0.950 . S
C645 C641 1.393 . S
C645 C644 1.391 . S
C646 H636 0.950 . S
C646 C647 1.386 . S
C646 C648 1.391 . S
C647 C646 1.386 . S
C647 C651 1.393 . S
C648 H637 0.950 . S
C648 C646 1.391 . S
C648 C649 1.400 . S
C649 C643 1.491 . S
C649 C648 1.400 . S
C649 C650 1.398 . S
C650 H638 0.950 . S
C650 C649 1.398 . S
C650 C651 1.391 . S
C651 H639 0.950 . S
C651 C647 1.393 . S
C651 C650 1.391 . S
H652 C660 0.950 . S
H653 C665 0.950 . S
H654 C662 0.950 . S
H655 C664 0.950 . S
H656 C666 0.950 . S
H657 C668 0.950 . S
H658 C670 0.950 . S
H659 C671 0.950 . S
C660 H652 0.950 . S
C660 C661 1.386 . S
C660 C662 1.391 . S
C661 C660 1.386 . S
C661 C665 1.393 . S
C662 H654 0.950 . S
C662 C660 1.391 . S
C662 C663 1.400 . S
C663 C662 1.400 . S
C663 C664 1.398 . S
C663 C669 1.491 . S
C664 H655 0.950 . S
C664 C663 1.398 . S
C664 C665 1.391 . S
C665 H653 0.950 . S
C665 C661 1.393 . S
C665 C664 1.391 . S
C666 H656 0.950 . S
C666 C667 1.386 . S
C666 C668 1.391 . S
C667 C666 1.386 . S
C667 C671 1.393 . S
C668 H657 0.950 . S
C668 C666 1.391 . S
C668 C669 1.400 . S
C669 C663 1.491 . S
C669 C668 1.400 . S
C669 C670 1.398 . S
C670 H658 0.950 . S
C670 C669 1.398 . S
C670 C671 1.391 . S
C671 H659 0.950 . S
C671 C667 1.393 . S
C671 C670 1.391 . S
H672 C680 0.950 . S
H673 C685 0.950 . S
H674 C682 0.950 . S
H675 C684 0.950 . S
H676 C686 0.950 . S
H677 C688 0.950 . S
H678 C690 0.950 . S
H679 C691 0.950 . S
C680 H672 0.950 . S
C680 C681 1.386 . S
C680 C682 1.391 . S
C681 C680 1.386 . S
C681 C685 1.393 . S
C682 H674 0.950 . S
C682 C680 1.391 . S
C682 C683 1.400 . S
C683 C682 1.400 . S
C683 C684 1.398 . S
C683 C689 1.491 . S
C684 H675 0.950 . S
C684 C683 1.398 . S
C684 C685 1.391 . S
C685 H673 0.950 . S
C685 C681 1.393 . S
C685 C684 1.391 . S
C686 H676 0.950 . S
C686 C687 1.386 . S
C686 C688 1.391 . S
C687 C686 1.386 . S
C687 C691 1.393 . S
C688 H677 0.950 . S
C688 C686 1.391 . S
C688 C689 1.400 . S
C689 C683 1.491 . S
C689 C688 1.400 . S
C689 C690 1.398 . S
C690 H678 0.950 . S
C690 C689 1.398 . S
C690 C691 1.391 . S
C691 H679 0.950 . S
C691 C687 1.393 . S
C691 C690 1.391 . S
H692 C700 0.950 . S
H693 C705 0.950 . S
H694 C702 0.950 . S
H695 C704 0.950 . S
H696 C706 0.950 . S
H697 C708 0.950 . S
H698 C710 0.950 . S
H699 C711 0.950 . S
C700 H692 0.950 . S
C700 C701 1.386 . S
C700 C702 1.391 . S
C701 C700 1.386 . S
C701 C705 1.393 . S
C702 H694 0.950 . S
C702 C700 1.391 . S
C702 C703 1.400 . S
C703 C702 1.400 . S
C703 C704 1.398 . S
C703 C709 1.491 . S
C704 H695 0.950 . S
C704 C703 1.398 . S
C704 C705 1.391 . S
C705 H693 0.950 . S
C705 C701 1.393 . S
C705 C704 1.391 . S
C706 H696 0.950 . S
C706 C707 1.386 . S
C706 C708 1.391 . S
C707 C706 1.386 . S
C707 C711 1.393 . S
C708 H697 0.950 . S
C708 C706 1.391 . S
C708 C709 1.400 . S
C709 C703 1.491 . S
C709 C708 1.400 . S
C709 C710 1.398 . S
C710 H698 0.950 . S
C710 C709 1.398 . S
C710 C711 1.391 . S
C711 H699 0.950 . S
C711 C707 1.393 . S
C711 C710 1.391 . S
H712 C720 0.950 . S
H713 C725 0.950 . S
H714 C722 0.950 . S
H715 C724 0.950 . S
H716 C726 0.950 . S
H717 C728 0.950 . S
H718 C730 0.950 . S
H719 C731 0.950 . S
C720 H712 0.950 . S
C720 C721 1.386 . S
C720 C722 1.391 . S
C721 C720 1.386 . S
C721 C725 1.393 . S
C722 H714 0.950 . S
C722 C720 1.391 . S
C722 C723 1.400 . S
C723 C722 1.400 . S
C723 C724 1.398 . S
C723 C729 1.491 . S
C724 H715 0.950 . S
C724 C723 1.398 . S
C724 C725 1.391 . S
C725 H713 0.950 . S
C725 C721 1.393 . S
C725 C724 1.391 . S
C726 H716 0.950 . S
C726 C727 1.386 . S
C726 C728 1.391 . S
C727 C726 1.386 . S
C727 C731 1.393 . S
C728 H717 0.950 . S
C728 C726 1.391 . S
C728 C729 1.400 . S
C729 C723 1.491 . S
C729 C728 1.400 . S
C729 C730 1.398 . S
C730 H718 0.950 . S
C730 C729 1.398 . S
C730 C731 1.391 . S
C731 H719 0.950 . S
C731 C727 1.393 . S
C731 C730 1.391 . S
H732 C740 0.950 . S
H733 C745 0.950 . S
H734 C742 0.950 . S
H735 C744 0.950 . S
H736 C746 0.950 . S
H737 C748 0.950 . S
H738 C750 0.950 . S
H739 C751 0.950 . S
C740 H732 0.950 . S
C740 C741 1.386 . S
C740 C742 1.391 . S
C741 C740 1.386 . S
C741 C745 1.393 . S
C742 H734 0.950 . S
C742 C740 1.391 . S
C742 C743 1.400 . S
C743 C742 1.400 . S
C743 C744 1.398 . S
C743 C749 1.491 1_455 S
C744 H735 0.950 . S
C744 C743 1.398 . S
C744 C745 1.391 . S
C745 H733 0.950 . S
C745 C741 1.393 . S
C745 C744 1.391 . S
C746 H736 0.950 . S
C746 C747 1.386 . S
C746 C748 1.391 . S
C747 C746 1.386 . S
C747 C751 1.393 . S
C748 H737 0.950 . S
C748 C746 1.391 . S
C748 C749 1.400 . S
C749 C743 1.491 1_655 S
C749 C748 1.400 . S
C749 C750 1.398 . S
C750 H738 0.950 . S
C750 C749 1.398 . S
C750 C751 1.391 . S
C751 H739 0.950 . S
C751 C747 1.393 . S
C751 C750 1.391 . S
H752 C760 0.950 . S
H753 C765 0.950 . S
H754 C762 0.950 . S
H755 C764 0.950 . S
H756 C766 0.950 . S
H757 C768 0.950 . S
H758 C770 0.950 . S
H759 C771 0.950 . S
C760 H752 0.950 . S
C760 C761 1.386 . S
C760 C762 1.391 . S
C761 C760 1.386 . S
C761 C765 1.393 . S
C762 H754 0.950 . S
C762 C760 1.391 . S
C762 C763 1.400 . S
C763 C762 1.400 . S
C763 C764 1.398 . S
C763 C769 1.491 . S
C764 H755 0.950 . S
C764 C763 1.398 . S
C764 C765 1.391 . S
C765 H753 0.950 . S
C765 C761 1.393 . S
C765 C764 1.391 . S
C766 H756 0.950 . S
C766 C767 1.386 . S
C766 C768 1.391 . S
C767 C766 1.386 . S
C767 C771 1.393 . S
C768 H757 0.950 . S
C768 C766 1.391 . S
C768 C769 1.400 . S
C769 C763 1.491 . S
C769 C768 1.400 . S
C769 C770 1.398 . S
C770 H758 0.950 . S
C770 C769 1.398 . S
C770 C771 1.391 . S
C771 H759 0.950 . S
C771 C767 1.393 . S
C771 C770 1.391 . S
H772 C780 0.950 . S
H773 C785 0.950 . S
H774 C782 0.950 . S
H775 C784 0.950 . S
H776 C786 0.950 . S
H777 C788 0.950 . S
H778 C790 0.950 . S
H779 C791 0.950 . S
C780 H772 0.950 . S
C780 C781 1.386 . S
C780 C782 1.391 . S
C781 C780 1.386 . S
C781 C785 1.393 . S
C782 H774 0.950 . S
C782 C780 1.391 . S
C782 C783 1.400 . S
C783 C782 1.400 . S
C783 C784 1.398 . S
C783 C789 1.491 1_545 S
C784 H775 0.950 . S
C784 C783 1.398 . S
C784 C785 1.391 . S
C785 H773 0.950 . S
C785 C781 1.393 . S
C785 C784 1.391 . S
C786 H776 0.950 . S
C786 C787 1.386 . S
C786 C788 1.391 . S
C787 C786 1.386 . S
C787 C791 1.393 . S
C788 H777 0.950 . S
C788 C786 1.391 . S
C788 C789 1.400 . S
C789 C783 1.491 1_565 S
C789 C788 1.400 . S
C789 C790 1.398 . S
C790 H778 0.950 . S
C790 C789 1.398 . S
C790 C791 1.391 . S
C791 H779 0.950 . S
C791 C787 1.393 . S
C791 C790 1.391 . S
H792 C800 0.950 . S
H793 C805 0.950 . S
H794 C802 0.950 1_565 S
H795 C804 0.950 . S
H796 C806 0.950 . S
H797 C808 0.950 1_545 S
H798 C810 0.950 . S
H799 C811 0.950 . S
C800 H792 0.950 . S
C800 C801 1.386 . S
C800 C802 1.391 . S
C801 C800 1.386 . S
C801 C805 1.393 . S
C802 H794 0.950 1_545 S
C802 C800 1.391 . S
C802 C803 1.400 . S
C803 C802 1.400 . S
C803 C804 1.398 . S
C803 C809 1.491 1_545 S
C804 H795 0.950 . S
C804 C803 1.398 . S
C804 C805 1.391 . S
C805 H793 0.950 . S
C805 C801 1.393 . S
C805 C804 1.391 . S
C806 H796 0.950 . S
C806 C807 1.386 . S
C806 C808 1.391 . S
C807 C806 1.386 . S
C807 C811 1.393 . S
C808 H797 0.950 1_565 S
C808 C806 1.391 . S
C808 C809 1.400 . S
C809 C803 1.491 1_565 S
C809 C808 1.400 . S
C809 C810 1.398 . S
C810 H798 0.950 . S
C810 C809 1.398 . S
C810 C811 1.391 . S
C811 H799 0.950 . S
C811 C807 1.393 . S
C811 C810 1.391 . S
H812 C820 0.950 . S
H813 C825 0.950 . S
H814 C822 0.950 . S
H815 C824 0.950 1_655 S
H816 C826 0.950 . S
H817 C828 0.950 . S
H818 C830 0.950 1_455 S
H819 C831 0.950 . S
C820 H812 0.950 . S
C820 C821 1.386 . S
C820 C822 1.391 . S
C821 C820 1.386 . S
C821 C825 1.393 . S
C822 H814 0.950 . S
C822 C820 1.391 . S
C822 C823 1.400 . S
C823 C822 1.400 . S
C823 C824 1.398 . S
C823 C829 1.491 1_455 S
C824 H815 0.950 1_455 S
C824 C823 1.398 . S
C824 C825 1.391 . S
C825 H813 0.950 . S
C825 C821 1.393 . S
C825 C824 1.391 . S
C826 H816 0.950 . S
C826 C827 1.386 . S
C826 C828 1.391 . S
C827 C826 1.386 . S
C827 C831 1.393 . S
C828 H817 0.950 . S
C828 C826 1.391 . S
C828 C829 1.400 . S
C829 C823 1.491 1_655 S
C829 C828 1.400 . S
C829 C830 1.398 . S
C830 H818 0.950 1_655 S
C830 C829 1.398 . S
C830 C831 1.391 . S
C831 H819 0.950 . S
C831 C827 1.393 . S
C831 C830 1.391 . S
H832 C840 0.950 . S
H833 C845 0.950 . S
H834 C842 0.950 . S
H835 C844 0.950 . S
H836 C846 0.950 . S
H837 C848 0.950 . S
H838 C850 0.950 . S
H839 C851 0.950 . S
C840 H832 0.950 . S
C840 C841 1.386 . S
C840 C842 1.391 . S
C841 C840 1.386 . S
C841 C845 1.393 . S
C842 H834 0.950 . S
C842 C840 1.391 . S
C842 C843 1.400 . S
C843 C842 1.400 . S
C843 C844 1.398 . S
C843 C849 1.491 . S
C844 H835 0.950 . S
C844 C843 1.398 . S
C844 C845 1.391 . S
C845 H833 0.950 . S
C845 C841 1.393 . S
C845 C844 1.391 . S
C846 H836 0.950 . S
C846 C847 1.386 . S
C846 C848 1.391 . S
C847 C846 1.386 . S
C847 C851 1.393 . S
C848 H837 0.950 . S
C848 C846 1.391 . S
C848 C849 1.400 . S
C849 C843 1.491 . S
C849 C848 1.400 . S
C849 C850 1.398 . S
C850 H838 0.950 . S
C850 C849 1.398 . S
C850 C851 1.391 . S
C851 H839 0.950 . S
C851 C847 1.393 . S
C851 C850 1.391 . S
H852 C860 0.950 . S
H853 C865 0.950 . S
H854 C862 0.950 1_565 S
H855 C864 0.950 . S
H856 C866 0.950 . S
H857 C868 0.950 1_545 S
H858 C870 0.950 . S
H859 C871 0.950 . S
C860 H852 0.950 . S
C860 C861 1.386 . S
C860 C862 1.391 . S
C861 C860 1.386 . S
C861 C865 1.393 . S
C862 H854 0.950 1_545 S
C862 C860 1.391 . S
C862 C863 1.400 . S
C863 C862 1.400 . S
C863 C864 1.398 . S
C863 C869 1.491 1_545 S
C864 H855 0.950 . S
C864 C863 1.398 . S
C864 C865 1.391 . S
C865 H853 0.950 . S
C865 C861 1.393 . S
C865 C864 1.391 . S
C866 H856 0.950 . S
C866 C867 1.386 . S
C866 C868 1.391 . S
C867 C866 1.386 . S
C867 C871 1.393 . S
C868 H857 0.950 1_565 S
C868 C866 1.391 . S
C868 C869 1.400 . S
C869 C863 1.491 1_565 S
C869 C868 1.400 . S
C869 C870 1.398 . S
C870 H858 0.950 . S
C870 C869 1.398 . S
C870 C871 1.391 . S
C871 H859 0.950 . S
C871 C867 1.393 . S
C871 C870 1.391 . S
H872 C880 0.950 . S
H873 C885 0.950 . S
H874 C882 0.950 1_655 S
H875 C884 0.950 . S
H876 C886 0.950 . S
H877 C888 0.950 1_455 S
H878 C890 0.950 . S
H879 C891 0.950 . S
C880 H872 0.950 . S
C880 C881 1.386 . S
C880 C882 1.391 . S
C881 C880 1.386 . S
C881 C885 1.393 . S
C882 H874 0.950 1_455 S
C882 C880 1.391 . S
C882 C883 1.400 . S
C883 C882 1.400 . S
C883 C884 1.398 . S
C883 C889 1.491 1_455 S
C884 H875 0.950 . S
C884 C883 1.398 . S
C884 C885 1.391 . S
C885 H873 0.950 . S
C885 C881 1.393 . S
C885 C884 1.391 . S
C886 H876 0.950 . S
C886 C887 1.386 . S
C886 C888 1.391 . S
C887 C886 1.386 . S
C887 C891 1.393 . S
C888 H877 0.950 1_655 S
C888 C886 1.391 . S
C888 C889 1.400 . S
C889 C883 1.491 1_655 S
C889 C888 1.400 . S
C889 C890 1.398 . S
C890 H878 0.950 . S
C890 C889 1.398 . S
C890 C891 1.391 . S
C891 H879 0.950 . S
C891 C887 1.393 . S
C891 C890 1.391 . S
H892 C900 0.950 . S
H893 C905 0.950 . S
H894 C902 0.950 . S
H895 C904 0.950 . S
H896 C906 0.950 . S
H897 C908 0.950 . S
H898 C910 0.950 . S
H899 C911 0.950 . S
C900 H892 0.950 . S
C900 C901 1.386 . S
C900 C902 1.391 . S
C901 C900 1.386 . S
C901 C905 1.393 . S
C902 H894 0.950 . S
C902 C900 1.391 . S
C902 C903 1.400 . S
C903 C902 1.400 . S
C903 C904 1.398 . S
C903 C909 1.491 . S
C904 H895 0.950 . S
C904 C903 1.398 . S
C904 C905 1.391 . S
C905 H893 0.950 . S
C905 C901 1.393 . S
C905 C904 1.391 . S
C906 H896 0.950 . S
C906 C907 1.386 . S
C906 C908 1.391 . S
C907 C906 1.386 . S
C907 C911 1.393 . S
C908 H897 0.950 . S
C908 C906 1.391 . S
C908 C909 1.400 . S
C909 C903 1.491 . S
C909 C908 1.400 . S
C909 C910 1.398 . S
C910 H898 0.950 . S
C910 C909 1.398 . S
C910 C911 1.391 . S
C911 H899 0.950 . S
C911 C907 1.393 . S
C911 C910 1.391 . S
H912 C920 0.950 . S
H913 C925 0.950 . S
H914 C922 0.950 . S
H915 C924 0.950 . S
H916 C926 0.950 . S
H917 C928 0.950 . S
H918 C930 0.950 . S
H919 C931 0.950 . S
C920 H912 0.950 . S
C920 C921 1.386 . S
C920 C922 1.391 . S
C921 C920 1.386 . S
C921 C925 1.393 . S
C922 H914 0.950 . S
C922 C920 1.391 . S
C922 C923 1.400 . S
C923 C922 1.400 . S
C923 C924 1.398 . S
C923 C929 1.491 . S
C924 H915 0.950 . S
C924 C923 1.398 . S
C924 C925 1.391 . S
C925 H913 0.950 . S
C925 C921 1.393 . S
C925 C924 1.391 . S
C926 H916 0.950 . S
C926 C927 1.386 . S
C926 C928 1.391 . S
C927 C926 1.386 . S
C927 C931 1.393 . S
C928 H917 0.950 . S
C928 C926 1.391 . S
C928 C929 1.400 . S
C929 C923 1.491 . S
C929 C928 1.400 . S
C929 C930 1.398 . S
C930 H918 0.950 . S
C930 C929 1.398 . S
C930 C931 1.391 . S
C931 H919 0.950 . S
C931 C927 1.393 . S
C931 C930 1.391 . S
H932 C940 0.950 . S
H933 C945 0.950 . S
H934 C942 0.950 . S
H935 C944 0.950 . S
H936 C946 0.950 . S
H937 C948 0.950 . S
H938 C950 0.950 . S
H939 C951 0.950 . S
C940 H932 0.950 . S
C940 C941 1.386 . S
C940 C942 1.391 . S
C941 C940 1.386 . S
C941 C945 1.393 . S
C942 H934 0.950 . S
C942 C940 1.391 . S
C942 C943 1.400 . S
C943 C942 1.400 . S
C943 C944 1.398 . S
C943 C949 1.491 . S
C944 H935 0.950 . S
C944 C943 1.398 . S
C944 C945 1.391 . S
C945 H933 0.950 . S
C945 C941 1.393 . S
C945 C944 1.391 . S
C946 H936 0.950 . S
C946 C947 1.386 . S
C946 C948 1.391 . S
C947 C946 1.386 . S
C947 C951 1.393 . S
C948 H937 0.950 . S
C948 C946 1.391 . S
C948 C949 1.400 . S
C949 C943 1.491 . S
C949 C948 1.400 . S
C949 C950 1.398 . S
C950 H938 0.950 . S
C950 C949 1.398 . S
C950 C951 1.391 . S
C951 H939 0.950 . S
C951 C947 1.393 . S
C951 C950 1.391 . S
H952 C960 0.950 . S
H953 C965 0.950 . S
H954 C962 0.950 . S
H955 C964 0.950 . S
H956 C966 0.950 . S
H957 C968 0.950 . S
H958 C970 0.950 . S
H959 C971 0.950 . S
C960 H952 0.950 . S
C960 C961 1.386 . S
C960 C962 1.391 . S
C961 C960 1.386 . S
C961 C965 1.393 . S
C962 H954 0.950 . S
C962 C960 1.391 . S
C962 C963 1.400 . S
C963 C962 1.400 . S
C963 C964 1.398 . S
C963 C969 1.491 . S
C964 H955 0.950 . S
C964 C963 1.398 . S
C964 C965 1.391 . S
C965 H953 0.950 . S
C965 C961 1.393 . S
C965 C964 1.391 . S
C966 H956 0.950 . S
C966 C967 1.386 . S
C966 C968 1.391 . S
C967 C966 1.386 . S
C967 C971 1.393 . S
C968 H957 0.950 . S
C968 C966 1.391 . S
C968 C969 1.400 . S
C969 C963 1.491 . S
C969 C968 1.400 . S
C969 C970 1.398 . S
C970 H958 0.950 . S
C970 C969 1.398 . S
C970 C971 1.391 . S
C971 H959 0.950 . S
C971 C967 1.393 . S
C971 C970 1.391 . S
H972 C980 0.950 . S
H973 C985 0.950 . S
H974 C982 0.950 . S
H975 C984 0.950 . S
H976 C986 0.950 . S
H977 C988 0.950 . S
H978 C990 0.950 . S
H979 C991 0.950 . S
C980 H972 0.950 . S
C980 C981 1.386 . S
C980 C982 1.391 . S
C981 C980 1.386 . S
C981 C985 1.393 . S
C982 H974 0.950 . S
C982 C980 1.391 . S
C982 C983 1.400 . S
C983 C982 1.400 . S
C983 C984 1.398 . S
C983 C989 1.491 . S
C984 H975 0.950 . S
C984 C983 1.398 . S
C984 C985 1.391 . S
C985 H973 0.950 . S
C985 C981 1.393 . S
C985 C984 1.391 . S
C986 H976 0.950 . S
C986 C987 1.386 . S
C986 C988 1.391 . S
C987 C986 1.386 . S
C987 C991 1.393 . S
C988 H977 0.950 . S
C988 C986 1.391 . S
C988 C989 1.400 . S
C989 C983 1.491 . S
C989 C988 1.400 . S
C989 C990 1.398 . S
C990 H978 0.950 . S
C990 C989 1.398 . S
C990 C991 1.391 . S
C991 H979 0.950 . S
C991 C987 1.393 . S
C991 C990 1.391 . S
H992 C1000 0.950 . S
H993 C1005 0.950 . S
H994 C1002 0.950 . S
H995 C1004 0.950 . S
H996 C1006 0.950 . S
H997 C1008 0.950 . S
H998 C1010 0.950 . S
H999 C1011 0.950 . S
C1000 H992 0.950 . S
C1000 C1001 1.386 . S
C1000 C1002 1.391 . S
C1001 C1000 1.386 . S
C1001 C1005 1.393 . S
C1002 H994 0.950 . S
C1002 C1000 1.391 . S
C1002 C1003 1.400 . S
C1003 C1002 1.400 . S
C1003 C1004 1.398 . S
C1003 C1009 1.491 . S
C1004 H995 0.950 . S
C1004 C1003 1.398 . S
C1004 C1005 1.391 . S
C1005 H993 0.950 . S
C1005 C1001 1.393 . S
C1005 C1004 1.391 . S
C1006 H996 0.950 . S
C1006 C1007 1.386 . S
C1006 C1008 1.391 . S
C1007 C1006 1.386 . S
C1007 C1011 1.393 . S
C1008 H997 0.950 . S
C1008 C1006 1.391 . S
C1008 C1009 1.400 . S
C1009 C1003 1.491 . S
C1009 C1008 1.400 . S
C1009 C1010 1.398 . S
C1010 H998 0.950 . S
C1010 C1009 1.398 . S
C1010 C1011 1.391 . S
C1011 H999 0.950 . S
C1011 C1007 1.393 . S
C1011 C1010 1.391 . S
H1012 C1020 0.950 . S
H1013 C1025 0.950 . S
H1014 C1022 0.950 . S
H1015 C1024 0.950 . S
H1016 C1026 0.950 . S
H1017 C1028 0.950 . S
H1018 C1030 0.950 . S
H1019 C1031 0.950 . S
C1020 H1012 0.950 . S
C1020 C1021 1.386 . S
C1020 C1022 1.391 . S
C1021 C1020 1.386 . S
C1021 C1025 1.393 . S
C1022 H1014 0.950 . S
C1022 C1020 1.391 . S
C1022 C1023 1.400 . S
C1023 C1022 1.400 . S
C1023 C1024 1.398 . S
C1023 C1029 1.491 . S
C1024 H1015 0.950 . S
C1024 C1023 1.398 . S
C1024 C1025 1.391 . S
C1025 H1013 0.950 . S
C1025 C1021 1.393 . S
C1025 C1024 1.391 . S
C1026 H1016 0.950 . S
C1026 C1027 1.386 . S
C1026 C1028 1.391 . S
C1027 C1026 1.386 . S
C1027 C1031 1.393 . S
C1028 H1017 0.950 . S
C1028 C1026 1.391 . S
C1028 C1029 1.400 . S
C1029 C1023 1.491 . S
C1029 C1028 1.400 . S
C1029 C1030 1.398 . S
C1030 H1018 0.950 . S
C1030 C1029 1.398 . S
C1030 C1031 1.391 . S
C1031 H1019 0.950 . S
C1031 C1027 1.393 . S
C1031 C1030 1.391 . S
H1032 C1040 0.950 . S
H1033 C1045 0.950 . S
H1034 C1042 0.950 . S
H1035 C1044 0.950 . S
H1036 C1046 0.950 . S
H1037 C1048 0.950 . S
H1038 C1050 0.950 . S
H1039 C1051 0.950 . S
C1040 H1032 0.950 . S
C1040 C1041 1.386 . S
C1040 C1042 1.391 . S
C1041 C1040 1.386 . S
C1041 C1045 1.393 . S
C1042 H1034 0.950 . S
C1042 C1040 1.391 . S
C1042 C1043 1.400 . S
C1043 C1042 1.400 . S
C1043 C1044 1.398 . S
C1043 C1049 1.491 . S
C1044 H1035 0.950 . S
C1044 C1043 1.398 . S
C1044 C1045 1.391 . S
C1045 H1033 0.950 . S
C1045 C1041 1.393 . S
C1045 C1044 1.391 . S
C1046 H1036 0.950 . S
C1046 C1047 1.386 . S
C1046 C1048 1.391 . S
C1047 C1046 1.386 . S
C1047 C1051 1.393 . S
C1048 H1037 0.950 . S
C1048 C1046 1.391 . S
C1048 C1049 1.400 . S
C1049 C1043 1.491 . S
C1049 C1048 1.400 . S
C1049 C1050 1.398 . S
C1050 H1038 0.950 . S
C1050 C1049 1.398 . S
C1050 C1051 1.391 . S
C1051 H1039 0.950 . S
C1051 C1047 1.393 . S
C1051 C1050 1.391 . S
H1052 C1060 0.950 . S
H1053 C1065 0.950 . S
H1054 C1062 0.950 . S
H1055 C1064 0.950 . S
H1056 C1066 0.950 . S
H1057 C1068 0.950 . S
H1058 C1070 0.950 . S
H1059 C1071 0.950 . S
C1060 H1052 0.950 . S
C1060 C1061 1.386 . S
C1060 C1062 1.391 . S
C1061 C1060 1.386 . S
C1061 C1065 1.393 . S
C1062 H1054 0.950 . S
C1062 C1060 1.391 . S
C1062 C1063 1.400 . S
C1063 C1062 1.400 . S
C1063 C1064 1.398 . S
C1063 C1069 1.491 . S
C1064 H1055 0.950 . S
C1064 C1063 1.398 . S
C1064 C1065 1.391 . S
C1065 H1053 0.950 . S
C1065 C1061 1.393 . S
C1065 C1064 1.391 . S
C1066 H1056 0.950 . S
C1066 C1067 1.386 . S
C1066 C1068 1.391 . S
C1067 C1066 1.386 . S
C1067 C1071 1.393 . S
C1068 H1057 0.950 . S
C1068 C1066 1.391 . S
C1068 C1069 1.400 . S
C1069 C1063 1.491 . S
C1069 C1068 1.400 . S
C1069 C1070 1.398 . S
C1070 H1058 0.950 . S
C1070 C1069 1.398 . S
C1070 C1071 1.391 . S
C1071 H1059 0.950 . S
C1071 C1067 1.393 . S
C1071 C1070 1.391 . S
H1072 C1080 0.950 . S
H1073 C1085 0.950 . S
H1074 C1082 0.950 . S
H1075 C1084 0.950 . S
H1076 C1086 0.950 . S
H1077 C1088 0.950 . S
H1078 C1090 0.950 . S
H1079 C1091 0.950 . S
C1080 H1072 0.950 . S
C1080 C1081 1.386 . S
C1080 C1082 1.391 . S
C1081 C1080 1.386 . S
C1081 C1085 1.393 . S
C1082 H1074 0.950 . S
C1082 C1080 1.391 . S
C1082 C1083 1.400 . S
C1083 C1082 1.400 . S
C1083 C1084 1.398 . S
C1083 C1089 1.491 . S
C1084 H1075 0.950 . S
C1084 C1083 1.398 . S
C1084 C1085 1.391 . S
C1085 H1073 0.950 . S
C1085 C1081 1.393 . S
C1085 C1084 1.391 . S
C1086 H1076 0.950 . S
C1086 C1087 1.386 . S
C1086 C1088 1.391 . S
C1087 C1086 1.386 . S
C1087 C1091 1.393 . S
C1088 H1077 0.950 . S
C1088 C1086 1.391 . S
C1088 C1089 1.400 . S
C1089 C1083 1.491 . S
C1089 C1088 1.400 . S
C1089 C1090 1.398 . S
C1090 H1078 0.950 . S
C1090 C1089 1.398 . S
C1090 C1091 1.391 . S
C1091 H1079 0.950 . S
C1091 C1087 1.393 . S
C1091 C1090 1.391 . S
H1092 C1100 0.950 . S
H1093 C1105 0.950 . S
H1094 C1102 0.950 . S
H1095 C1104 0.950 . S
H1096 C1106 0.950 . S
H1097 C1108 0.950 . S
H1098 C1110 0.950 . S
H1099 C1111 0.950 . S
C1100 H1092 0.950 . S
C1100 C1101 1.386 . S
C1100 C1102 1.391 . S
C1101 C1100 1.386 . S
C1101 C1105 1.393 . S
C1102 H1094 0.950 . S
C1102 C1100 1.391 . S
C1102 C1103 1.400 . S
C1103 C1102 1.400 . S
C1103 C1104 1.398 . S
C1103 C1109 1.491 . S
C1104 H1095 0.950 . S
C1104 C1103 1.398 . S
C1104 C1105 1.391 . S
C1105 H1093 0.950 . S
C1105 C1101 1.393 . S
C1105 C1104 1.391 . S
C1106 H1096 0.950 . S
C1106 C1107 1.386 . S
C1106 C1108 1.391 . S
C1107 C1106 1.386 . S
C1107 C1111 1.393 . S
C1108 H1097 0.950 . S
C1108 C1106 1.391 . S
C1108 C1109 1.400 . S
C1109 C1103 1.491 . S
C1109 C1108 1.400 . S
C1109 C1110 1.398 . S
C1110 H1098 0.950 . S
C1110 C1109 1.398 . S
C1110 C1111 1.391 . S
C1111 H1099 0.950 . S
C1111 C1107 1.393 . S
C1111 C1110 1.391 . S
H1112 C1120 0.950 . S
H1113 C1125 0.950 . S
H1114 C1122 0.950 . S
H1115 C1124 0.950 . S
H1116 C1126 0.950 . S
H1117 C1128 0.950 . S
H1118 C1130 0.950 . S
H1119 C1131 0.950 . S
C1120 H1112 0.950 . S
C1120 C1121 1.386 . S
C1120 C1122 1.391 . S
C1121 C1120 1.386 . S
C1121 C1125 1.393 . S
C1122 H1114 0.950 . S
C1122 C1120 1.391 . S
C1122 C1123 1.400 . S
C1123 C1122 1.400 . S
C1123 C1124 1.398 . S
C1123 C1129 1.491 . S
C1124 H1115 0.950 . S
C1124 C1123 1.398 . S
C1124 C1125 1.391 . S
C1125 H1113 0.950 . S
C1125 C1121 1.393 . S
C1125 C1124 1.391 . S
C1126 H1116 0.950 . S
C1126 C1127 1.386 . S
C1126 C1128 1.391 . S
C1127 C1126 1.386 . S
C1127 C1131 1.393 . S
C1128 H1117 0.950 . S
C1128 C1126 1.391 . S
C1128 C1129 1.400 . S
C1129 C1123 1.491 . S
C1129 C1128 1.400 . S
C1129 C1130 1.398 . S
C1130 H1118 0.950 . S
C1130 C1129 1.398 . S
C1130 C1131 1.391 . S
C1131 H1119 0.950 . S
C1131 C1127 1.393 . S
C1131 C1130 1.391 . S
H1132 C1140 0.950 . S
H1133 C1145 0.950 . S
H1134 C1142 0.950 . S
H1135 C1144 0.950 . S
H1136 C1146 0.950 . S
H1137 C1148 0.950 . S
H1138 C1150 0.950 . S
H1139 C1151 0.950 . S
C1140 H1132 0.950 . S
C1140 C1141 1.386 . S
C1140 C1142 1.391 . S
C1141 C1140 1.386 . S
C1141 C1145 1.393 . S
C1142 H1134 0.950 . S
C1142 C1140 1.391 . S
C1142 C1143 1.400 . S
C1143 C1142 1.400 . S
C1143 C1144 1.398 . S
C1143 C1149 1.491 . S
C1144 H1135 0.950 . S
C1144 C1143 1.398 . S
C1144 C1145 1.391 . S
C1145 H1133 0.950 . S
C1145 C1141 1.393 . S
C1145 C1144 1.391 . S
C1146 H1136 0.950 . S
C1146 C1147 1.386 . S
C1146 C1148 1.391 . S
C1147 C1146 1.386 . S
C1147 C1151 1.393 . S
C1148 H1137 0.950 . S
C1148 C1146 1.391 . S
C1148 C1149 1.400 . S
C1149 C1143 1.491 . S
C1149 C1148 1.400 . S
C1149 C1150 1.398 . S
C1150 H1138 0.950 . S
C1150 C1149 1.398 . S
C1150 C1151 1.391 . S
C1151 H1139 0.950 . S
C1151 C1147 1.393 . S
C1151 C1150 1.391 . S
H1152 C1160 0.950 . S
H1153 C1165 0.950 . S
H1154 C1162 0.950 . S
H1155 C1164 0.950 . S
H1156 C1166 0.950 1_655 S
H1157 C1168 0.950 . S
H1158 C1170 0.950 . S
H1159 C1171 0.950 . S
C1160 H1152 0.950 . S
C1160 C1161 1.386 . S
C1160 C1162 1.391 . S
C1161 C1160 1.386 . S
C1161 C1165 1.393 . S
C1162 H1154 0.950 . S
C1162 C1160 1.391 . S
C1162 C1163 1.400 . S
C1163 C1162 1.400 . S
C1163 C1164 1.398 . S
C1163 C1169 1.491 . S
C1164 H1155 0.950 . S
C1164 C1163 1.398 . S
C1164 C1165 1.391 . S
C1165 H1153 0.950 . S
C1165 C1161 1.393 . S
C1165 C1164 1.391 . S
C1166 H1156 0.950 1_455 S
C1166 C1167 1.366 1_455 S
C1166 C1168 1.391 . S
C1167 C1166 1.366 1_655 S
C1167 C1171 1.379 1_655 S
C1168 H1157 0.950 . S
C1168 C1166 1.391 . S
C1168 C1169 1.400 . S
C1169 C1163 1.491 . S
C1169 C1168 1.400 . S
C1169 C1170 1.398 . S
C1170 H1158 0.950 . S
C1170 C1169 1.398 . S
C1170 C1171 1.391 . S
C1171 H1159 0.950 . S
C1171 C1167 1.379 1_455 S
C1171 C1170 1.391 . S
H1172 C1180 0.950 . S
H1173 C1185 0.950 . S
H1174 C1182 0.950 . S
H1175 C1184 0.950 . S
H1176 C1186 0.950 . S
H1177 C1188 0.950 . S
H1178 C1190 0.950 . S
H1179 C1191 0.950 . S
C1180 H1172 0.950 . S
C1180 C1181 1.386 . S
C1180 C1182 1.391 . S
C1181 C1180 1.386 . S
C1181 C1185 1.393 . S
C1182 H1174 0.950 . S
C1182 C1180 1.391 . S
C1182 C1183 1.400 . S
C1183 C1182 1.400 . S
C1183 C1184 1.398 . S
C1183 C1189 1.491 . S
C1184 H1175 0.950 . S
C1184 C1183 1.398 . S
C1184 C1185 1.391 . S
C1185 H1173 0.950 . S
C1185 C1181 1.393 . S
C1185 C1184 1.391 . S
C1186 H1176 0.950 . S
C1186 C1187 1.386 . S
C1186 C1188 1.391 . S
C1187 C1186 1.386 . S
C1187 C1191 1.393 . S
C1188 H1177 0.950 . S
C1188 C1186 1.391 . S
C1188 C1189 1.400 . S
C1189 C1183 1.491 . S
C1189 C1188 1.400 . S
C1189 C1190 1.398 . S
C1190 H1178 0.950 . S
C1190 C1189 1.398 . S
C1190 C1191 1.391 . S
C1191 H1179 0.950 . S
C1191 C1187 1.393 . S
C1191 C1190 1.391 . S
H1192 C1200 0.950 . S
H1193 C1205 0.950 . S
H1194 C1202 0.950 . S
H1195 C1204 0.950 . S
H1196 C1206 0.950 . S
H1197 C1208 0.950 . S
H1198 C1210 0.950 . S
H1199 C1211 0.950 . S
C1200 H1192 0.950 . S
C1200 C1201 1.386 . S
C1200 C1202 1.391 . S
C1201 C1200 1.386 . S
C1201 C1205 1.393 . S
C1202 H1194 0.950 . S
C1202 C1200 1.391 . S
C1202 C1203 1.400 . S
C1203 C1202 1.400 . S
C1203 C1204 1.398 . S
C1203 C1209 1.491 . S
C1204 H1195 0.950 . S
C1204 C1203 1.398 . S
C1204 C1205 1.391 . S
C1205 H1193 0.950 . S
C1205 C1201 1.393 . S
C1205 C1204 1.391 . S
C1206 H1196 0.950 . S
C1206 C1207 1.386 1_565 S
C1206 C1208 1.391 . S
C1207 C1206 1.386 1_545 S
C1207 C1211 1.393 1_545 S
C1208 H1197 0.950 . S
C1208 C1206 1.391 . S
C1208 C1209 1.400 . S
C1209 C1203 1.491 . S
C1209 C1208 1.400 . S
C1209 C1210 1.398 . S
C1210 H1198 0.950 . S
C1210 C1209 1.398 . S
C1210 C1211 1.391 . S
C1211 H1199 0.950 . S
C1211 C1207 1.393 1_565 S
C1211 C1210 1.391 . S
H1212 C1220 0.950 . S
H1213 C1225 0.950 . S
H1214 C1222 0.950 . S
H1215 C1224 0.950 . S
H1216 C1226 0.950 . S
H1217 C1228 0.950 . S
H1218 C1230 0.950 . S
H1219 C1231 0.950 1_565 S
C1220 H1212 0.950 . S
C1220 C1221 1.386 . S
C1220 C1222 1.391 . S
C1221 C1220 1.386 . S
C1221 C1225 1.393 . S
C1222 H1214 0.950 . S
C1222 C1220 1.391 . S
C1222 C1223 1.400 . S
C1223 C1222 1.400 . S
C1223 C1224 1.398 . S
C1223 C1229 1.491 . S
C1224 H1215 0.950 . S
C1224 C1223 1.398 . S
C1224 C1225 1.391 . S
C1225 H1213 0.950 . S
C1225 C1221 1.393 . S
C1225 C1224 1.391 . S
C1226 H1216 0.950 . S
C1226 C1227 1.386 1_545 S
C1226 C1228 1.391 . S
C1227 C1226 1.386 1_565 S
C1227 C1231 1.393 1_565 S
C1228 H1217 0.950 . S
C1228 C1226 1.391 . S
C1228 C1229 1.400 . S
C1229 C1223 1.491 . S
C1229 C1228 1.400 . S
C1229 C1230 1.398 . S
C1230 H1218 0.950 . S
C1230 C1229 1.398 . S
C1230 C1231 1.391 . S
C1231 H1219 0.950 1_545 S
C1231 C1227 1.393 1_545 S
C1231 C1230 1.391 . S
H1232 C1240 0.950 . S
H1233 C1245 0.950 . S
H1234 C1242 0.950 . S
H1235 C1244 0.950 . S
H1236 C1246 0.950 . S
H1237 C1248 0.950 . S
H1238 C1250 0.950 . S
H1239 C1251 0.950 1_455 S
C1240 H1232 0.950 . S
C1240 C1241 1.386 . S
C1240 C1242 1.391 . S
C1241 C1240 1.386 . S
C1241 C1245 1.393 . S
C1242 H1234 0.950 . S
C1242 C1240 1.391 . S
C1242 C1243 1.400 . S
C1243 C1242 1.400 . S
C1243 C1244 1.398 . S
C1243 C1249 1.491 . S
C1244 H1235 0.950 . S
C1244 C1243 1.398 . S
C1244 C1245 1.391 . S
C1245 H1233 0.950 . S
C1245 C1241 1.393 . S
C1245 C1244 1.391 . S
C1246 H1236 0.950 . S
C1246 C1247 1.386 1_655 S
C1246 C1248 1.391 . S
C1247 C1246 1.386 1_455 S
C1247 C1251 1.393 1_455 S
C1248 H1237 0.950 . S
C1248 C1246 1.391 . S
C1248 C1249 1.400 . S
C1249 C1243 1.491 . S
C1249 C1248 1.400 . S
C1249 C1250 1.398 . S
C1250 H1238 0.950 . S
C1250 C1249 1.398 . S
C1250 C1251 1.391 . S
C1251 H1239 0.950 1_655 S
C1251 C1247 1.393 1_655 S
C1251 C1250 1.391 . S
H1252 C1260 0.950 . S
H1253 C1265 0.950 . S
H1254 C1262 0.950 . S
H1255 C1264 0.950 . S
H1256 C1266 0.950 . S
H1257 C1268 0.950 . S
H1258 C1270 0.950 . S
H1259 C1271 0.950 . S
C1260 H1252 0.950 . S
C1260 C1261 1.386 . S
C1260 C1262 1.391 . S
C1261 C1260 1.386 . S
C1261 C1265 1.393 . S
C1262 H1254 0.950 . S
C1262 C1260 1.391 . S
C1262 C1263 1.400 . S
C1263 C1262 1.400 . S
C1263 C1264 1.398 . S
C1263 C1269 1.491 . S
C1264 H1255 0.950 . S
C1264 C1263 1.398 . S
C1264 C1265 1.391 . S
C1265 H1253 0.950 . S
C1265 C1261 1.393 . S
C1265 C1264 1.391 . S
C1266 H1256 0.950 . S
C1266 C1267 1.386 . S
C1266 C1268 1.391 . S
C1267 C1266 1.386 . S
C1267 C1271 1.393 . S
C1268 H1257 0.950 . S
C1268 C1266 1.391 . S
C1268 C1269 1.400 . S
C1269 C1263 1.491 . S
C1269 C1268 1.400 . S
C1269 C1270 1.398 . S
C1270 H1258 0.950 . S
C1270 C1269 1.398 . S
C1270 C1271 1.391 . S
C1271 H1259 0.950 . S
C1271 C1267 1.393 . S
C1271 C1270 1.391 . S
H1272 C1280 0.950 . S
H1273 C1285 0.950 . S
H1274 C1282 0.950 . S
H1275 C1284 0.950 . S
H1276 C1286 0.950 . S
H1277 C1288 0.950 . S
H1278 C1290 0.950 . S
H1279 C1291 0.950 . S
C1280 H1272 0.950 . S
C1280 C1281 1.386 . S
C1280 C1282 1.391 . S
C1281 C1280 1.386 . S
C1281 C1285 1.393 . S
C1282 H1274 0.950 . S
C1282 C1280 1.391 . S
C1282 C1283 1.400 . S
C1283 C1282 1.400 . S
C1283 C1284 1.398 . S
C1283 C1289 1.491 . S
C1284 H1275 0.950 . S
C1284 C1283 1.398 . S
C1284 C1285 1.391 . S
C1285 H1273 0.950 . S
C1285 C1281 1.393 . S
C1285 C1284 1.391 . S
C1286 H1276 0.950 . S
C1286 C1287 1.386 . S
C1286 C1288 1.391 . S
C1287 C1286 1.386 . S
C1287 C1291 1.393 . S
C1288 H1277 0.950 . S
C1288 C1286 1.391 . S
C1288 C1289 1.400 . S
C1289 C1283 1.491 . S
C1289 C1288 1.400 . S
C1289 C1290 1.398 . S
C1290 H1278 0.950 . S
C1290 C1289 1.398 . S
C1290 C1291 1.391 . S
C1291 H1279 0.950 . S
C1291 C1287 1.393 . S
C1291 C1290 1.391 . S
H1292 C1300 0.950 . S
H1293 C1305 0.950 . S
H1294 C1302 0.950 . S
H1295 C1304 0.950 . S
H1296 C1306 0.950 . S
H1297 C1308 0.950 . S
H1298 C1310 0.950 . S
H1299 C1311 0.950 . S
C1300 H1292 0.950 . S
C1300 C1301 1.386 . S
C1300 C1302 1.391 . S
C1301 C1300 1.386 . S
C1301 C1305 1.393 . S
C1302 H1294 0.950 . S
C1302 C1300 1.391 . S
C1302 C1303 1.400 . S
C1303 C1302 1.400 . S
C1303 C1304 1.398 . S
C1303 C1309 1.491 . S
C1304 H1295 0.950 . S
C1304 C1303 1.398 . S
C1304 C1305 1.391 . S
C1305 H1293 0.950 . S
C1305 C1301 1.393 . S
C1305 C1304 1.391 . S
C1306 H1296 0.950 . S
C1306 C1307 1.386 . S
C1306 C1308 1.391 . S
C1307 C1306 1.386 . S
C1307 C1311 1.393 . S
C1308 H1297 0.950 . S
C1308 C1306 1.391 . S
C1308 C1309 1.400 . S
C1309 C1303 1.491 . S
C1309 C1308 1.400 . S
C1309 C1310 1.398 . S
C1310 H1298 0.950 . S
C1310 C1309 1.398 . S
C1310 C1311 1.391 . S
C1311 H1299 0.950 . S
C1311 C1307 1.393 . S
C1311 C1310 1.391 . S
H1312 C1320 0.950 . S
H1313 C1325 0.950 . S
H1314 C1322 0.950 . S
H1315 C1324 0.950 . S
H1316 C1326 0.950 . S
H1317 C1328 0.950 . S
H1318 C1330 0.950 . S
H1319 C1331 0.950 . S
C1320 H1312 0.950 . S
C1320 C1321 1.386 . S
C1320 C1322 1.391 . S
C1321 C1320 1.386 . S
C1321 C1325 1.393 . S
C1322 H1314 0.950 . S
C1322 C1320 1.391 . S
C1322 C1323 1.400 . S
C1323 C1322 1.400 . S
C1323 C1324 1.398 . S
C1323 C1329 1.491 . S
C1324 H1315 0.950 . S
C1324 C1323 1.398 . S
C1324 C1325 1.391 . S
C1325 H1313 0.950 . S
C1325 C1321 1.393 . S
C1325 C1324 1.391 . S
C1326 H1316 0.950 . S
C1326 C1327 1.386 . S
C1326 C1328 1.391 . S
C1327 C1326 1.386 . S
C1327 C1331 1.393 . S
C1328 H1317 0.950 . S
C1328 C1326 1.391 . S
C1328 C1329 1.400 . S
C1329 C1323 1.491 . S
C1329 C1328 1.400 . S
C1329 C1330 1.398 . S
C1330 H1318 0.950 . S
C1330 C1329 1.398 . S
C1330 C1331 1.391 . S
C1331 H1319 0.950 . S
C1331 C1327 1.393 . S
C1331 C1330 1.391 . S
H1332 C1340 0.950 . S
H1333 C1345 0.950 . S
H1334 C1342 0.950 . S
H1335 C1344 0.950 . S
H1336 C1346 0.950 . S
H1337 C1348 0.950 . S
H1338 C1350 0.950 . S
H1339 C1351 0.950 . S
C1340 H1332 0.950 . S
C1340 C1341 1.386 . S
C1340 C1342 1.391 . S
C1341 C1340 1.386 . S
C1341 C1345 1.393 . S
C1342 H1334 0.950 . S
C1342 C1340 1.391 . S
C1342 C1343 1.400 . S
C1343 C1342 1.400 . S
C1343 C1344 1.398 . S
C1343 C1349 1.491 . S
C1344 H1335 0.950 . S
C1344 C1343 1.398 . S
C1344 C1345 1.391 . S
C1345 H1333 0.950 . S
C1345 C1341 1.393 . S
C1345 C1344 1.391 . S
C1346 H1336 0.950 . S
C1346 C1347 1.386 . S
C1346 C1348 1.391 . S
C1347 C1346 1.386 . S
C1347 C1351 1.393 . S
C1348 H1337 0.950 . S
C1348 C1346 1.391 . S
C1348 C1349 1.400 . S
C1349 C1343 1.491 . S
C1349 C1348 1.400 . S
C1349 C1350 1.398 . S
C1350 H1338 0.950 . S
C1350 C1349 1.398 . S
C1350 C1351 1.391 . S
C1351 H1339 0.950 . S
C1351 C1347 1.393 . S
C1351 C1350 1.391 . S
H1352 C1360 0.950 1_556 S
H1353 C1365 0.950 . S
H1354 C1362 0.950 1_556 S
H1355 C1364 0.950 . S
H1356 C1366 0.950 . S
H1357 C1368 0.950 . S
H1358 C1370 0.950 1_556 S
H1359 C1371 0.950 1_556 S
C1360 H1352 0.950 1_554 S
C1360 C1361 1.386 . S
C1360 C1362 1.391 . S
C1361 C1360 1.386 . S
C1361 C1365 1.393 . S
C1362 H1354 0.950 1_554 S
C1362 C1360 1.391 . S
C1362 C1363 1.400 . S
C1363 C1362 1.400 . S
C1363 C1364 1.398 . S
C1363 C1369 1.491 . S
C1364 H1355 0.950 . S
C1364 C1363 1.398 . S
C1364 C1365 1.391 . S
C1365 H1353 0.950 . S
C1365 C1361 1.393 . S
C1365 C1364 1.391 . S
C1366 H1356 0.950 . S
C1366 C1367 1.386 . S
C1366 C1368 1.391 . S
C1367 C1366 1.386 . S
C1367 C1371 1.393 . S
C1368 H1357 0.950 . S
C1368 C1366 1.391 . S
C1368 C1369 1.400 . S
C1369 C1363 1.491 . S
C1369 C1368 1.400 . S
C1369 C1370 1.398 . S
C1370 H1358 0.950 1_554 S
C1370 C1369 1.398 . S
C1370 C1371 1.391 . S
C1371 H1359 0.950 1_554 S
C1371 C1367 1.393 . S
C1371 C1370 1.391 . S
H1372 C1380 0.950 . S
H1373 C1385 0.950 . S
H1374 C1382 0.950 . S
H1375 C1384 0.950 . S
H1376 C1386 0.950 1_556 S
H1377 C1388 0.950 1_556 S
H1378 C1390 0.950 . S
H1379 C1391 0.950 . S
C1380 H1372 0.950 . S
C1380 C1381 1.386 . S
C1380 C1382 1.391 . S
C1381 C1380 1.386 . S
C1381 C1385 1.393 . S
C1382 H1374 0.950 . S
C1382 C1380 1.391 . S
C1382 C1383 1.400 . S
C1383 C1382 1.400 . S
C1383 C1384 1.398 . S
C1383 C1389 1.491 . S
C1384 H1375 0.950 . S
C1384 C1383 1.398 . S
C1384 C1385 1.391 . S
C1385 H1373 0.950 . S
C1385 C1381 1.393 . S
C1385 C1384 1.391 . S
C1386 H1376 0.950 1_554 S
C1386 C1387 1.386 . S
C1386 C1388 1.391 . S
C1387 C1386 1.386 . S
C1387 C1391 1.393 . S
C1388 H1377 0.950 1_554 S
C1388 C1386 1.391 . S
C1388 C1389 1.400 . S
C1389 C1383 1.491 . S
C1389 C1388 1.400 . S
C1389 C1390 1.398 . S
C1390 H1378 0.950 . S
C1390 C1389 1.398 . S
C1390 C1391 1.391 . S
C1391 H1379 0.950 . S
C1391 C1387 1.393 . S
C1391 C1390 1.391 . S
H1392 C1400 0.950 . S
H1393 C1405 0.950 1_554 S
H1394 C1402 0.950 . S
H1395 C1404 0.950 1_554 S
H1396 C1406 0.950 1_554 S
H1397 C1408 0.950 1_554 S
H1398 C1410 0.950 . S
H1399 C1411 0.950 . S
C1400 H1392 0.950 . S
C1400 C1401 1.386 . S
C1400 C1402 1.391 . S
C1401 C1400 1.386 . S
C1401 C1405 1.393 . S
C1402 H1394 0.950 . S
C1402 C1400 1.391 . S
C1402 C1403 1.400 . S
C1403 C1402 1.400 . S
C1403 C1404 1.398 . S
C1403 C1409 1.491 . S
C1404 H1395 0.950 1_556 S
C1404 C1403 1.398 . S
C1404 C1405 1.391 . S
C1405 H1393 0.950 1_556 S
C1405 C1401 1.393 . S
C1405 C1404 1.391 . S
C1406 H1396 0.950 1_556 S
C1406 C1407 1.386 . S
C1406 C1408 1.391 . S
C1407 C1406 1.386 . S
C1407 C1411 1.393 . S
C1408 H1397 0.950 1_556 S
C1408 C1406 1.391 . S
C1408 C1409 1.400 . S
C1409 C1403 1.491 . S
C1409 C1408 1.400 . S
C1409 C1410 1.398 . S
C1410 H1398 0.950 . S
C1410 C1409 1.398 . S
C1410 C1411 1.391 . S
C1411 H1399 0.950 . S
C1411 C1407 1.393 . S
C1411 C1410 1.391 . S
H1412 C1420 0.959 . S
H1413 C1425 0.950 . S
H1414 C1422 0.950 . S
H1415 C1424 0.950 . S
H1416 C1426 0.950 . S
H1417 C1428 0.950 . S
H1418 C1430 0.950 . S
H1419 C1431 0.950 . S
C1420 H1412 0.959 . S
C1420 C1421 1.386 . S
C1420 C1422 1.391 . S
C1421 C1420 1.386 . S
C1421 C1425 1.393 . S
C1422 H1414 0.950 . S
C1422 C1420 1.391 . S
C1422 C1423 1.400 . S
C1423 C1422 1.400 . S
C1423 C1424 1.398 . S
C1423 C1429 1.491 . S
C1424 H1415 0.950 . S
C1424 C1423 1.398 . S
C1424 C1425 1.391 . S
C1425 H1413 0.950 . S
C1425 C1421 1.393 . S
C1425 C1424 1.391 . S
C1426 H1416 0.950 . S
C1426 C1427 1.386 . S
C1426 C1428 1.391 . S
C1427 C1426 1.386 . S
C1427 C1431 1.393 . S
C1428 H1417 0.950 . S
C1428 C1426 1.391 . S
C1428 C1429 1.400 . S
C1429 C1423 1.491 . S
C1429 C1428 1.400 . S
C1429 C1430 1.398 . S
C1430 H1418 0.950 . S
C1430 C1429 1.398 . S
C1430 C1431 1.391 . S
C1431 H1419 0.950 . S
C1431 C1427 1.393 . S
C1431 C1430 1.391 . S
H1432 C1440 0.950 . S
H1433 C1445 0.950 . S
H1434 C1442 0.950 . S
H1435 C1444 0.950 . S
H1436 C1446 0.950 . S
H1437 C1448 0.950 . S
H1438 C1450 0.950 . S
H1439 C1451 0.950 . S
C1440 H1432 0.950 . S
C1440 C1441 1.386 . S
C1440 C1442 1.391 . S
C1441 C1440 1.386 . S
C1441 C1445 1.393 . S
C1442 H1434 0.950 . S
C1442 C1440 1.391 . S
C1442 C1443 1.400 . S
C1443 C1442 1.400 . S
C1443 C1444 1.398 . S
C1443 C1449 1.491 . S
C1444 H1435 0.950 . S
C1444 C1443 1.398 . S
C1444 C1445 1.391 . S
C1445 H1433 0.950 . S
C1445 C1441 1.393 . S
C1445 C1444 1.391 . S
C1446 H1436 0.950 . S
C1446 C1447 1.386 . S
C1446 C1448 1.391 . S
C1447 C1446 1.386 . S
C1447 C1451 1.393 . S
C1448 H1437 0.950 . S
C1448 C1446 1.391 . S
C1448 C1449 1.400 . S
C1449 C1443 1.491 . S
C1449 C1448 1.400 . S
C1449 C1450 1.398 . S
C1450 H1438 0.950 . S
C1450 C1449 1.398 . S
C1450 C1451 1.391 . S
C1451 H1439 0.950 . S
C1451 C1447 1.393 . S
C1451 C1450 1.391 . S
H1452 C1460 0.950 . S
H1453 C1465 0.950 . S
H1454 C1462 0.950 . S
H1455 C1464 0.950 . S
H1456 C1466 0.950 . S
H1457 C1468 0.950 . S
H1458 C1470 0.950 . S
H1459 C1471 0.950 . S
C1460 H1452 0.950 . S
C1460 C1461 1.386 . S
C1460 C1462 1.391 . S
C1461 C1460 1.386 . S
C1461 C1465 1.393 . S
C1462 H1454 0.950 . S
C1462 C1460 1.391 . S
C1462 C1463 1.400 . S
C1463 C1462 1.400 . S
C1463 C1464 1.398 . S
C1463 C1469 1.491 . S
C1464 H1455 0.950 . S
C1464 C1463 1.398 . S
C1464 C1465 1.391 . S
C1465 H1453 0.950 . S
C1465 C1461 1.393 . S
C1465 C1464 1.391 . S
C1466 H1456 0.950 . S
C1466 C1467 1.386 . S
C1466 C1468 1.391 . S
C1467 C1466 1.386 . S
C1467 C1471 1.393 . S
C1468 H1457 0.950 . S
C1468 C1466 1.391 . S
C1468 C1469 1.400 . S
C1469 C1463 1.491 . S
C1469 C1468 1.400 . S
C1469 C1470 1.398 . S
C1470 H1458 0.950 . S
C1470 C1469 1.398 . S
C1470 C1471 1.391 . S
C1471 H1459 0.950 . S
C1471 C1467 1.393 . S
C1471 C1470 1.391 . S
H1472 C1480 0.950 . S
H1473 C1485 0.950 . S
H1474 C1482 0.950 . S
H1475 C1484 0.950 . S
H1476 C1486 0.950 . S
H1477 C1488 0.950 . S
H1478 C1490 0.950 . S
H1479 C1491 0.950 . S
C1480 H1472 0.950 . S
C1480 C1481 1.386 . S
C1480 C1482 1.391 . S
C1481 C1480 1.386 . S
C1481 C1485 1.393 . S
C1482 H1474 0.950 . S
C1482 C1480 1.391 . S
C1482 C1483 1.400 . S
C1483 C1482 1.400 . S
C1483 C1484 1.398 . S
C1483 C1489 1.491 . S
C1484 H1475 0.950 . S
C1484 C1483 1.398 . S
C1484 C1485 1.391 . S
C1485 H1473 0.950 . S
C1485 C1481 1.393 . S
C1485 C1484 1.391 . S
C1486 H1476 0.950 . S
C1486 C1487 1.386 . S
C1486 C1488 1.391 . S
C1487 C1486 1.386 . S
C1487 C1491 1.393 . S
C1488 H1477 0.950 . S
C1488 C1486 1.391 . S
C1488 C1489 1.400 . S
C1489 C1483 1.491 . S
C1489 C1488 1.400 . S
C1489 C1490 1.398 . S
C1490 H1478 0.950 . S
C1490 C1489 1.398 . S
C1490 C1491 1.391 . S
C1491 H1479 0.950 . S
C1491 C1487 1.393 . S
C1491 C1490 1.391 . S
H1492 C1500 0.950 . S
H1493 C1505 0.950 . S
H1494 C1502 0.950 . S
H1495 C1504 0.950 . S
H1496 C1506 0.950 . S
H1497 C1508 0.950 . S
H1498 C1510 0.950 . S
H1499 C1511 0.950 . S
C1500 H1492 0.950 . S
C1500 C1501 1.386 . S
C1500 C1502 1.391 . S
C1501 C1500 1.386 . S
C1501 C1505 1.393 . S
C1502 H1494 0.950 . S
C1502 C1500 1.391 . S
C1502 C1503 1.400 . S
C1503 C1502 1.400 . S
C1503 C1504 1.398 . S
C1503 C1509 1.491 . S
C1504 H1495 0.950 . S
C1504 C1503 1.398 . S
C1504 C1505 1.391 . S
C1505 H1493 0.950 . S
C1505 C1501 1.393 . S
C1505 C1504 1.391 . S
C1506 H1496 0.950 . S
C1506 C1507 1.386 . S
C1506 C1508 1.391 . S
C1507 C1506 1.386 . S
C1507 C1511 1.393 . S
C1508 H1497 0.950 . S
C1508 C1506 1.391 . S
C1508 C1509 1.400 . S
C1509 C1503 1.491 . S
C1509 C1508 1.400 . S
C1509 C1510 1.398 . S
C1510 H1498 0.950 . S
C1510 C1509 1.398 . S
C1510 C1511 1.391 . S
C1511 H1499 0.950 . S
C1511 C1507 1.393 . S
C1511 C1510 1.391 . S
H1512 C1520 0.950 . S
H1513 C1525 0.950 . S
H1514 C1522 0.950 . S
H1515 C1524 0.950 . S
H1516 C1526 0.950 . S
H1517 C1528 0.950 . S
H1518 C1530 0.950 . S
H1519 C1531 0.950 . S
C1520 H1512 0.950 . S
C1520 C1521 1.386 . S
C1520 C1522 1.391 . S
C1521 C1520 1.386 . S
C1521 C1525 1.393 . S
C1522 H1514 0.950 . S
C1522 C1520 1.391 . S
C1522 C1523 1.400 . S
C1523 C1522 1.400 . S
C1523 C1524 1.398 . S
C1523 C1529 1.491 . S
C1524 H1515 0.950 . S
C1524 C1523 1.398 . S
C1524 C1525 1.391 . S
C1525 H1513 0.950 . S
C1525 C1521 1.393 . S
C1525 C1524 1.391 . S
C1526 H1516 0.950 . S
C1526 C1527 1.386 1_545 S
C1526 C1528 1.391 . S
C1527 C1526 1.386 1_565 S
C1527 C1531 1.393 . S
C1528 H1517 0.950 . S
C1528 C1526 1.391 . S
C1528 C1529 1.400 . S
C1529 C1523 1.491 . S
C1529 C1528 1.400 . S
C1529 C1530 1.398 1_545 S
C1530 H1518 0.950 . S
C1530 C1529 1.398 1_565 S
C1530 C1531 1.391 . S
C1531 H1519 0.950 . S
C1531 C1527 1.393 . S
C1531 C1530 1.391 . S
H1532 C1540 0.950 . S
H1533 C1545 0.950 . S
H1534 C1542 0.950 . S
H1535 C1544 0.950 . S
H1536 C1546 0.950 . S
H1537 C1548 0.950 . S
H1538 C1550 0.950 . S
H1539 C1551 0.950 . S
C1540 H1532 0.950 . S
C1540 C1541 1.386 1_655 S
C1540 C1542 1.391 . S
C1541 C1540 1.386 1_455 S
C1541 C1545 1.393 . S
C1542 H1534 0.950 . S
C1542 C1540 1.391 . S
C1542 C1543 1.400 . S
C1543 C1542 1.400 . S
C1543 C1544 1.398 1_655 S
C1543 C1549 1.491 . S
C1544 H1535 0.950 . S
C1544 C1543 1.398 1_455 S
C1544 C1545 1.391 . S
C1545 H1533 0.950 . S
C1545 C1541 1.393 . S
C1545 C1544 1.391 . S
C1546 H1536 0.950 . S
C1546 C1547 1.386 . S
C1546 C1548 1.391 . S
C1547 C1546 1.386 . S
C1547 C1551 1.393 . S
C1548 H1537 0.950 . S
C1548 C1546 1.391 . S
C1548 C1549 1.400 . S
C1549 C1543 1.491 . S
C1549 C1548 1.400 . S
C1549 C1550 1.398 . S
C1550 H1538 0.950 . S
C1550 C1549 1.398 . S
C1550 C1551 1.391 . S
C1551 H1539 0.950 . S
C1551 C1547 1.393 . S
C1551 C1550 1.391 . S
H1552 C1560 0.950 . S
H1553 C1565 0.950 . S
H1554 C1562 0.950 . S
H1555 C1564 0.950 . S
H1556 C1566 0.950 . S
H1557 C1568 0.950 . S
H1558 C1570 0.950 . S
H1559 C1571 0.950 . S
C1560 H1552 0.950 . S
C1560 C1561 1.386 . S
C1560 C1562 1.391 . S
C1561 C1560 1.386 . S
C1561 C1565 1.393 . S
C1562 H1554 0.950 . S
C1562 C1560 1.391 . S
C1562 C1563 1.400 . S
C1563 C1562 1.400 . S
C1563 C1564 1.398 . S
C1563 C1569 1.491 . S
C1564 H1555 0.950 . S
C1564 C1563 1.398 . S
C1564 C1565 1.391 . S
C1565 H1553 0.950 . S
C1565 C1561 1.393 . S
C1565 C1564 1.391 . S
C1566 H1556 0.950 . S
C1566 C1567 1.386 . S
C1566 C1568 1.391 . S
C1567 C1566 1.386 . S
C1567 C1571 1.393 . S
C1568 H1557 0.950 . S
C1568 C1566 1.391 . S
C1568 C1569 1.400 . S
C1569 C1563 1.491 . S
C1569 C1568 1.400 . S
C1569 C1570 1.398 . S
C1570 H1558 0.950 . S
C1570 C1569 1.398 . S
C1570 C1571 1.391 . S
C1571 H1559 0.950 . S
C1571 C1567 1.393 . S
C1571 C1570 1.391 . S
H1572 C1580 0.950 . S
H1573 C1585 0.950 . S
H1574 C1582 0.950 . S
H1575 C1584 0.919 1_655 S
H1576 C1586 0.950 . S
H1577 C1588 0.950 . S
H1578 C1590 0.950 . S
H1579 C1591 0.950 . S
C1580 H1572 0.950 . S
C1580 C1581 1.386 . S
C1580 C1582 1.391 . S
C1581 C1580 1.386 . S
C1581 C1585 1.393 . S
C1582 H1574 0.950 . S
C1582 C1580 1.391 . S
C1582 C1583 1.400 . S
C1583 C1582 1.400 . S
C1583 C1584 1.398 . S
C1583 C1589 1.491 . S
C1584 H1575 0.919 1_455 S
C1584 C1583 1.398 . S
C1584 C1585 1.391 . S
C1585 H1573 0.950 . S
C1585 C1581 1.393 . S
C1585 C1584 1.391 . S
C1586 H1576 0.950 . S
C1586 C1587 1.386 . S
C1586 C1588 1.391 . S
C1587 C1586 1.386 . S
C1587 C1591 1.393 1_655 S
C1588 H1577 0.950 . S
C1588 C1586 1.391 . S
C1588 C1589 1.400 1_655 S
C1589 C1583 1.491 . S
C1589 C1588 1.400 1_455 S
C1589 C1590 1.398 . S
C1590 H1578 0.950 . S
C1590 C1589 1.398 . S
C1590 C1591 1.391 . S
C1591 H1579 0.950 . S
C1591 C1587 1.393 1_455 S
C1591 C1590 1.391 . S
H1592 C1600 0.950 . S
H1593 C1605 0.950 . S
H1594 C1602 0.950 . S
H1595 C1604 0.950 . S
H1596 C1606 0.950 . S
H1597 C1608 0.950 . S
H1598 C1610 0.950 . S
H1599 C1611 0.950 . S
C1600 H1592 0.950 . S
C1600 C1601 1.386 . S
C1600 C1602 1.391 . S
C1601 C1600 1.386 . S
C1601 C1605 1.393 . S
C1602 H1594 0.950 . S
C1602 C1600 1.391 . S
C1602 C1603 1.400 . S
C1603 C1602 1.400 . S
C1603 C1604 1.398 . S
C1603 C1609 1.491 . S
C1604 H1595 0.950 . S
C1604 C1603 1.398 . S
C1604 C1605 1.391 . S
C1605 H1593 0.950 . S
C1605 C1601 1.393 . S
C1605 C1604 1.391 . S
C1606 H1596 0.950 . S
C1606 C1607 1.386 . S
C1606 C1608 1.391 . S
C1607 C1606 1.386 . S
C1607 C1611 1.393 . S
C1608 H1597 0.950 . S
C1608 C1606 1.391 . S
C1608 C1609 1.400 . S
C1609 C1603 1.491 . S
C1609 C1608 1.400 . S
C1609 C1610 1.398 . S
C1610 H1598 0.950 . S
C1610 C1609 1.398 . S
C1610 C1611 1.391 . S
C1611 H1599 0.950 . S
C1611 C1607 1.393 . S
C1611 C1610 1.391 . S
H1612 C1620 0.950 . S
H1613 C1625 0.950 . S
H1614 C1622 0.953 . S
H1615 C1624 0.950 . S
H1616 C1626 0.950 . S
H1617 C1628 0.950 . S
H1618 C1630 0.950 . S
H1619 C1631 0.950 . S
C1620 H1612 0.950 . S
C1620 C1621 1.386 . S
C1620 C1622 1.391 . S
C1621 C1620 1.386 . S
C1621 C1625 1.393 1_545 S
C1622 H1614 0.953 . S
C1622 C1620 1.391 . S
C1622 C1623 1.397 1_545 S
C1623 C1622 1.397 1_565 S
C1623 C1624 1.398 . S
C1623 C1629 1.491 . S
C1624 H1615 0.950 . S
C1624 C1623 1.398 . S
C1624 C1625 1.391 . S
C1625 H1613 0.950 . S
C1625 C1621 1.393 1_565 S
C1625 C1624 1.391 . S
C1626 H1616 0.950 . S
C1626 C1627 1.386 . S
C1626 C1628 1.391 . S
C1627 C1626 1.386 . S
C1627 C1631 1.393 . S
C1628 H1617 0.950 . S
C1628 C1626 1.391 . S
C1628 C1629 1.400 . S
C1629 C1623 1.491 . S
C1629 C1628 1.400 . S
C1629 C1630 1.398 . S
C1630 H1618 0.950 . S
C1630 C1629 1.398 . S
C1630 C1631 1.391 . S
C1631 H1619 0.950 . S
C1631 C1627 1.393 . S
C1631 C1630 1.391 . S
H1632 C1640 0.950 . S
H1633 C1645 0.950 . S
H1634 C1642 0.950 . S
H1635 C1644 0.950 1_545 S
H1636 C1646 0.950 . S
H1637 C1648 0.950 . S
H1638 C1650 0.950 . S
H1639 C1651 0.950 . S
C1640 H1632 0.950 . S
C1640 C1641 1.386 . S
C1640 C1642 1.391 . S
C1641 C1640 1.386 . S
C1641 C1645 1.393 . S
C1642 H1634 0.950 . S
C1642 C1640 1.391 . S
C1642 C1643 1.400 . S
C1643 C1642 1.400 . S
C1643 C1644 1.398 . S
C1643 C1649 1.491 . S
C1644 H1635 0.950 1_565 S
C1644 C1643 1.398 . S
C1644 C1645 1.391 . S
C1645 H1633 0.950 . S
C1645 C1641 1.393 . S
C1645 C1644 1.391 . S
C1646 H1636 0.950 . S
C1646 C1647 1.386 . S
C1646 C1648 1.391 . S
C1647 C1646 1.386 . S
C1647 C1651 1.393 . S
C1648 H1637 0.950 . S
C1648 C1646 1.391 . S
C1648 C1649 1.400 1_545 S
C1649 C1643 1.491 . S
C1649 C1648 1.400 1_565 S
C1649 C1650 1.398 . S
C1650 H1638 0.950 . S
C1650 C1649 1.398 . S
C1650 C1651 1.391 1_565 S
C1651 H1639 0.950 . S
C1651 C1647 1.393 . S
C1651 C1650 1.391 1_545 S
H1652 C1660 0.950 . S
H1653 C1665 0.950 . S
H1654 C1662 0.942 1_455 S
H1655 C1664 0.950 . S
H1656 C1666 0.950 . S
H1657 C1668 0.950 . S
H1658 C1670 0.950 . S
H1659 C1671 0.950 . S
C1660 H1652 0.950 . S
C1660 C1661 1.386 . S
C1660 C1662 1.391 . S
C1661 C1660 1.386 . S
C1661 C1665 1.393 . S
C1662 H1654 0.942 1_655 S
C1662 C1660 1.391 . S
C1662 C1663 1.409 1_655 S
C1663 C1662 1.409 1_455 S
C1663 C1664 1.398 1_455 S
C1663 C1669 1.491 . S
C1664 H1655 0.950 . S
C1664 C1663 1.398 1_655 S
C1664 C1665 1.391 . S
C1665 H1653 0.950 . S
C1665 C1661 1.393 . S
C1665 C1664 1.391 . S
C1666 H1656 0.950 . S
C1666 C1667 1.386 . S
C1666 C1668 1.391 . S
C1667 C1666 1.386 . S
C1667 C1671 1.393 . S
C1668 H1657 0.950 . S
C1668 C1666 1.391 . S
C1668 C1669 1.400 . S
C1669 C1663 1.491 . S
C1669 C1668 1.400 . S
C1669 C1670 1.398 . S
C1670 H1658 0.950 . S
C1670 C1669 1.398 . S
C1670 C1671 1.391 . S
C1671 H1659 0.950 . S
C1671 C1667 1.393 . S
C1671 C1670 1.391 . S
H1672 C1680 0.950 . S
H1673 C1685 0.950 . S
H1674 C1682 0.950 . S
H1675 C1684 0.950 . S
H1676 C1686 0.950 . S
H1677 C1688 0.950 . S
H1678 C1690 0.950 . S
H1679 C1691 0.950 . S
C1680 H1672 0.950 . S
C1680 C1681 1.386 . S
C1680 C1682 1.391 . S
C1681 C1680 1.386 . S
C1681 C1685 1.393 . S
C1682 H1674 0.950 . S
C1682 C1680 1.391 . S
C1682 C1683 1.400 . S
C1683 C1682 1.400 . S
C1683 C1684 1.398 . S
C1683 C1689 1.491 . S
C1684 H1675 0.950 . S
C1684 C1683 1.398 . S
C1684 C1685 1.391 . S
C1685 H1673 0.950 . S
C1685 C1681 1.393 . S
C1685 C1684 1.391 . S
C1686 H1676 0.950 . S
C1686 C1687 1.386 . S
C1686 C1688 1.391 . S
C1687 C1686 1.386 . S
C1687 C1691 1.393 . S
C1688 H1677 0.950 . S
C1688 C1686 1.391 . S
C1688 C1689 1.400 . S
C1689 C1683 1.491 . S
C1689 C1688 1.400 . S
C1689 C1690 1.398 . S
C1690 H1678 0.950 . S
C1690 C1689 1.398 . S
C1690 C1691 1.391 . S
C1691 H1679 0.950 . S
C1691 C1687 1.393 . S
C1691 C1690 1.391 . S
H1692 C1700 0.950 1_655 S
H1693 C1705 0.950 . S
H1694 C1702 0.950 . S
H1695 C1704 0.950 . S
H1696 C1706 0.950 . S
H1697 C1708 0.950 1_455 S
H1698 C1710 0.950 . S
H1699 C1711 0.950 . S
C1700 H1692 0.950 1_455 S
C1700 C1701 1.386 . S
C1700 C1702 1.391 1_455 S
C1701 C1700 1.386 . S
C1701 C1705 1.393 . S
C1702 H1694 0.950 . S
C1702 C1700 1.391 1_655 S
C1702 C1703 1.400 . S
C1703 C1702 1.400 . S
C1703 C1704 1.398 1_655 S
C1703 C1709 1.491 . S
C1704 H1695 0.950 . S
C1704 C1703 1.398 1_455 S
C1704 C1705 1.391 . S
C1705 H1693 0.950 . S
C1705 C1701 1.393 . S
C1705 C1704 1.391 . S
C1706 H1696 0.950 . S
C1706 C1707 1.386 . S
C1706 C1708 1.391 . S
C1707 C1706 1.386 . S
C1707 C1711 1.393 . S
C1708 H1697 0.950 1_655 S
C1708 C1706 1.391 . S
C1708 C1709 1.400 . S
C1709 C1703 1.491 . S
C1709 C1708 1.400 . S
C1709 C1710 1.398 . S
C1710 H1698 0.950 . S
C1710 C1709 1.398 . S
C1710 C1711 1.391 . S
C1711 H1699 0.950 . S
C1711 C1707 1.393 . S
C1711 C1710 1.391 . S
H1712 C1720 0.950 . S
H1713 C1725 0.950 . S
H1714 C1722 0.950 . S
H1715 C1724 0.950 . S
H1716 C1726 0.950 . S
H1717 C1728 0.950 . S
H1718 C1730 0.950 . S
H1719 C1731 0.950 . S
C1720 H1712 0.950 . S
C1720 C1721 1.386 . S
C1720 C1722 1.391 . S
C1721 C1720 1.386 . S
C1721 C1725 1.393 . S
C1722 H1714 0.950 . S
C1722 C1720 1.391 . S
C1722 C1723 1.400 . S
C1723 C1722 1.400 . S
C1723 C1724 1.398 . S
C1723 C1729 1.491 . S
C1724 H1715 0.950 . S
C1724 C1723 1.398 . S
C1724 C1725 1.391 . S
C1725 H1713 0.950 . S
C1725 C1721 1.393 . S
C1725 C1724 1.391 . S
C1726 H1716 0.950 . S
C1726 C1727 1.386 . S
C1726 C1728 1.391 . S
C1727 C1726 1.386 . S
C1727 C1731 1.393 . S
C1728 H1717 0.950 . S
C1728 C1726 1.391 . S
C1728 C1729 1.400 . S
C1729 C1723 1.491 . S
C1729 C1728 1.400 . S
C1729 C1730 1.398 . S
C1730 H1718 0.950 . S
C1730 C1729 1.398 . S
C1730 C1731 1.391 . S
C1731 H1719 0.950 . S
C1731 C1727 1.393 . S
C1731 C1730 1.391 . S
H1732 C1740 0.950 1_545 S
H1733 C1745 0.950 . S
H1734 C1742 0.950 . S
H1735 C1744 0.950 . S
H1736 C1746 0.950 . S
H1737 C1748 0.950 1_565 S
H1738 C1750 0.950 . S
H1739 C1751 0.950 . S
C1740 H1732 0.950 1_565 S
C1740 C1741 1.386 . S
C1740 C1742 1.391 1_565 S
C1741 C1740 1.386 . S
C1741 C1745 1.393 . S
C1742 H1734 0.950 . S
C1742 C1740 1.391 1_545 S
C1742 C1743 1.400 . S
C1743 C1742 1.400 . S
C1743 C1744 1.398 1_545 S
C1743 C1749 1.491 . S
C1744 H1735 0.950 . S
C1744 C1743 1.398 1_565 S
C1744 C1745 1.391 . S
C1745 H1733 0.950 . S
C1745 C1741 1.393 . S
C1745 C1744 1.391 . S
C1746 H1736 0.950 . S
C1746 C1747 1.386 . S
C1746 C1748 1.391 . S
C1747 C1746 1.386 . S
C1747 C1751 1.393 . S
C1748 H1737 0.950 1_545 S
C1748 C1746 1.391 . S
C1748 C1749 1.400 . S
C1749 C1743 1.491 . S
C1749 C1748 1.400 . S
C1749 C1750 1.398 . S
C1750 H1738 0.950 . S
C1750 C1749 1.398 . S
C1750 C1751 1.391 . S
C1751 H1739 0.950 . S
C1751 C1747 1.393 . S
C1751 C1750 1.391 . S
H1752 C1760 0.950 . S
H1753 C1765 0.950 . S
H1754 C1762 0.950 . S
H1755 C1764 0.950 . S
H1756 C1766 0.950 . S
H1757 C1768 0.950 . S
H1758 C1770 0.950 . S
H1759 C1771 0.950 . S
C1760 H1752 0.950 . S
C1760 C1761 1.386 1_556 S
C1760 C1762 1.391 . S
C1761 C1760 1.386 1_554 S
C1761 C1765 1.393 . S
C1762 H1754 0.950 . S
C1762 C1760 1.391 . S
C1762 C1763 1.395 1_556 S
C1763 C1762 1.395 1_554 S
C1763 C1764 1.404 . S
C1763 C1769 1.490 1_554 S
C1764 H1755 0.950 . S
C1764 C1763 1.404 . S
C1764 C1765 1.391 . S
C1765 H1753 0.950 . S
C1765 C1761 1.393 . S
C1765 C1764 1.391 . S
C1766 H1756 0.950 . S
C1766 C1767 1.386 1_554 S
C1766 C1768 1.391 . S
C1767 C1766 1.386 1_556 S
C1767 C1771 1.393 . S
C1768 H1757 0.950 . S
C1768 C1766 1.391 . S
C1768 C1769 1.398 1_554 S
C1769 C1763 1.490 1_556 S
C1769 C1768 1.398 1_556 S
C1769 C1770 1.400 . S
C1770 H1758 0.950 . S
C1770 C1769 1.400 . S
C1770 C1771 1.391 . S
C1771 H1759 0.950 . S
C1771 C1767 1.393 . S
C1771 C1770 1.391 . S
H1772 C1780 0.950 . S
H1773 C1785 0.950 . S
H1774 C1782 0.950 . S
H1775 C1784 0.950 . S
H1776 C1786 0.950 . S
H1777 C1788 0.950 . S
H1778 C1790 0.950 . S
H1779 C1791 0.950 . S
C1780 H1772 0.950 . S
C1780 C1781 1.386 1_556 S
C1780 C1782 1.391 . S
C1781 C1780 1.386 1_554 S
C1781 C1785 1.393 . S
C1782 H1774 0.950 . S
C1782 C1780 1.391 . S
C1782 C1783 1.396 1_556 S
C1783 C1782 1.396 1_554 S
C1783 C1784 1.402 . S
C1783 C1789 1.490 1_564 S
C1784 H1775 0.950 . S
C1784 C1783 1.402 . S
C1784 C1785 1.391 . S
C1785 H1773 0.950 . S
C1785 C1781 1.393 . S
C1785 C1784 1.391 . S
C1786 H1776 0.950 . S
C1786 C1787 1.386 1_554 S
C1786 C1788 1.391 . S
C1787 C1786 1.386 1_556 S
C1787 C1791 1.393 . S
C1788 H1777 0.950 . S
C1788 C1786 1.391 . S
C1788 C1789 1.399 1_554 S
C1789 C1783 1.490 1_546 S
C1789 C1788 1.399 1_556 S
C1789 C1790 1.399 . S
C1790 H1778 0.950 . S
C1790 C1789 1.399 . S
C1790 C1791 1.391 . S
C1791 H1779 0.950 . S
C1791 C1787 1.393 . S
C1791 C1790 1.391 . S
H1792 C1800 0.950 . S
H1793 C1805 0.950 . S
H1794 C1802 0.950 . S
H1795 C1804 0.950 . S
H1796 C1806 0.950 . S
H1797 C1808 0.950 . S
H1798 C1810 0.950 . S
H1799 C1811 0.950 . S
C1800 H1792 0.950 . S
C1800 C1801 1.386 1_554 S
C1800 C1802 1.391 . S
C1801 C1800 1.386 1_556 S
C1801 C1805 1.393 . S
C1802 H1794 0.950 . S
C1802 C1800 1.391 . S
C1802 C1803 1.392 1_554 S
C1803 C1802 1.392 1_556 S
C1803 C1804 1.407 . S
C1803 C1809 1.490 1_656 S
C1804 H1795 0.950 . S
C1804 C1803 1.407 . S
C1804 C1805 1.391 . S
C1805 H1793 0.950 . S
C1805 C1801 1.393 . S
C1805 C1804 1.391 . S
C1806 H1796 0.950 . S
C1806 C1807 1.386 1_556 S
C1806 C1808 1.391 . S
C1807 C1806 1.386 1_554 S
C1807 C1811 1.393 . S
C1808 H1797 0.950 . S
C1808 C1806 1.391 . S
C1808 C1809 1.396 1_556 S
C1809 C1803 1.490 1_454 S
C1809 C1808 1.396 1_554 S
C1809 C1810 1.403 . S
C1810 H1798 0.950 . S
C1810 C1809 1.403 . S
C1810 C1811 1.391 . S
C1811 H1799 0.950 . S
C1811 C1807 1.393 . S
C1811 C1810 1.391 . S
H1812 C1820 0.950 . S
H1813 C1825 0.950 . S
H1814 C1822 0.950 . S
H1815 C1824 0.950 . S
H1816 C1826 0.950 . S
H1817 C1828 0.950 . S
H1818 C1830 0.950 . S
H1819 C1831 0.950 . S
C1820 H1812 0.950 . S
C1820 C1821 1.386 . S
C1820 C1822 1.391 . S
C1821 C1820 1.386 . S
C1821 C1825 1.393 1_556 S
C1822 H1814 0.950 . S
C1822 C1820 1.391 . S
C1822 C1823 1.410 . S
C1823 C1822 1.410 . S
C1823 C1824 1.389 1_556 S
C1823 C1829 1.490 1_556 S
C1824 H1815 0.950 . S
C1824 C1823 1.389 1_554 S
C1824 C1825 1.391 . S
C1825 H1813 0.950 . S
C1825 C1821 1.393 1_554 S
C1825 C1824 1.391 . S
C1826 H1816 0.950 . S
C1826 C1827 1.386 . S
C1826 C1828 1.391 . S
C1827 C1826 1.386 . S
C1827 C1831 1.393 1_554 S
C1828 H1817 0.950 . S
C1828 C1826 1.391 . S
C1828 C1829 1.404 . S
C1829 C1823 1.490 1_554 S
C1829 C1828 1.404 . S
C1829 C1830 1.395 1_554 S
C1830 H1818 0.950 . S
C1830 C1829 1.395 1_556 S
C1830 C1831 1.391 . S
C1831 H1819 0.950 . S
C1831 C1827 1.393 1_556 S
C1831 C1830 1.391 . S
H1832 C1840 0.950 . S
H1833 C1845 0.950 . S
H1834 C1842 0.950 . S
H1835 C1844 0.950 . S
H1836 C1846 0.950 . S
H1837 C1848 0.950 . S
H1838 C1850 0.950 . S
H1839 C1851 0.950 . S
C1840 H1832 0.950 . S
C1840 C1841 1.386 . S
C1840 C1842 1.391 . S
C1841 C1840 1.386 . S
C1841 C1845 1.393 1_554 S
C1842 H1834 0.950 . S
C1842 C1840 1.391 . S
C1842 C1843 1.400 . S
C1843 C1842 1.400 . S
C1843 C1844 1.398 1_554 S
C1843 C1849 1.491 1_565 S
C1844 H1835 0.950 . S
C1844 C1843 1.398 1_556 S
C1844 C1845 1.391 . S
C1845 H1833 0.950 . S
C1845 C1841 1.393 1_556 S
C1845 C1844 1.391 . S
C1846 H1836 0.950 . S
C1846 C1847 1.386 . S
C1846 C1848 1.391 . S
C1847 C1846 1.386 . S
C1847 C1851 1.393 1_556 S
C1848 H1837 0.950 . S
C1848 C1846 1.391 . S
C1848 C1849 1.400 1_556 S
C1849 C1843 1.491 1_545 S
C1849 C1848 1.400 1_554 S
C1849 C1850 1.398 . S
C1850 H1838 0.950 . S
C1850 C1849 1.398 . S
C1850 C1851 1.391 . S
C1851 H1839 0.950 . S
C1851 C1847 1.393 1_554 S
C1851 C1850 1.391 . S
H1852 C1860 0.950 . S
H1853 C1865 0.950 . S
H1854 C1862 0.950 . S
H1855 C1864 0.950 . S
H1856 C1866 0.950 . S
H1857 C1868 0.950 . S
H1858 C1870 0.950 . S
H1859 C1871 0.950 . S
C1860 H1852 0.950 . S
C1860 C1861 1.386 1_554 S
C1860 C1862 1.391 . S
C1861 C1860 1.386 1_556 S
C1861 C1865 1.393 . S
C1862 H1854 0.950 . S
C1862 C1860 1.391 . S
C1862 C1863 1.396 1_554 S
C1863 C1862 1.396 1_556 S
C1863 C1864 1.402 . S
C1863 C1869 1.491 1_656 S
C1864 H1855 0.950 . S
C1864 C1863 1.402 . S
C1864 C1865 1.391 . S
C1865 H1853 0.950 . S
C1865 C1861 1.393 . S
C1865 C1864 1.391 . S
C1866 H1856 0.950 . S
C1866 C1867 1.386 1_556 S
C1866 C1868 1.391 . S
C1867 C1866 1.386 1_554 S
C1867 C1871 1.393 . S
C1868 H1857 0.950 . S
C1868 C1866 1.391 . S
C1868 C1869 1.400 1_556 S
C1869 C1863 1.491 1_454 S
C1869 C1868 1.400 1_554 S
C1869 C1870 1.398 . S
C1870 H1858 0.950 . S
C1870 C1869 1.398 . S
C1870 C1871 1.391 . S
C1871 H1859 0.950 . S
C1871 C1867 1.393 . S
C1871 C1870 1.391 . S
C621 C17 1.484 . S
C627 C357 1.486 . S
C641 C51 1.493 . S
C647 C391 1.494 . S
C661 C85 1.482 . S
C667 C323 1.483 . S
C681 C119 1.467 . S
C687 C493 1.468 . S
C701 C153 1.476 . S
C707 C425 1.478 . S
C721 C459 1.466 . S
C727 C187 1.471 . S
C741 C561 1.338 . S
C747 C221 1.338 . S
C761 C255 1.353 . S
C767 C595 1.354 . S
C781 C289 1.336 . S
C787 C527 1.336 . S
C801 C1 2.080 . S
C807 C173 2.075 . S
C821 C103 2.083 . S
C827 C37 2.093 . S
C841 C139 2.089 . S
C847 C69 2.079 . S
C861 C35 1.601 . S
C867 C137 1.623 . S
C881 C171 1.601 . S
C887 C71 1.614 . S
C901 C105 1.601 . S
C907 C3 1.613 . S
C921 C375 2.049 . S
C927 C205 2.049 . S
C941 C309 2.032 . S
C947 C241 2.032 . S
C961 C341 2.034 . S
C967 C273 2.043 . S
C981 C239 1.582 . S
C987 C343 1.561 . S
C1001 C275 1.567 . S
C1007 C377 1.549 . S
C1021 C307 1.552 . S
C1027 C207 1.577 . S
C1041 C581 2.036 . S
C1047 C409 2.029 . S
C1061 C445 2.051 . S
C1067 C513 2.041 . S
C1081 C479 2.033 . S
C1087 C545 2.031 . S
C1101 C547 1.557 . S
C1107 C443 1.556 . S
C1121 C579 1.582 . S
C1127 C477 1.560 . S
C1141 C511 1.554 . S
C1147 C411 1.562 . S
C1161 C15 1.256 . S
C1167 C62 1.464 . S
C1181 C74 1.417 . S
C1187 C56 1.290 . S
C1201 C83 1.301 . S
C1207 C6 1.418 . S
C1221 C117 1.283 . S
C1227 C198 1.428 . S
C1241 C158 1.292 . S
C1247 C108 1.424 . S
C1261 C192 1.257 . S
C1267 C164 1.430 . S
C1281 C266 1.416 . S
C1287 C219 1.283 . S
C1301 C260 1.259 . S
C1307 C278 1.425 . S
C1321 C210 1.422 . S
C1327 C287 1.266 . S
C1341 C328 1.253 . S
C1347 C380 1.425 . S
C1361 C334 1.412 . S
C1367 C355 1.285 . S
C1381 C389 1.250 . S
C1387 C346 1.419 . S
C1401 C470 1.421 . S
C1407 C423 1.246 . S
C1421 C504 1.406 . S
C1427 C464 1.286 . S
C1441 C414 1.421 . S
C1447 C498 1.265 . S
C1461 C606 1.428 . S
C1467 C532 1.254 . S
C1481 C538 1.432 . S
C1487 C559 1.261 . S
C1501 C600 1.265 . S
C1507 C550 1.431 . S
C1521 C22 0.704 . S
C1527 C525 0.726 . S
C1541 C566 0.708 . S
C1547 C49 0.721 . S
C1561 C593 0.706 . S
C1567 C90 0.722 . S
C1581 C124 0.717 . S
C1587 C226 0.712 . S
C1601 C253 0.723 . S
C1607 C151 0.706 . S
C1621 C294 0.729 . S
C1627 C185 0.701 . S
C1641 C142 1.069 . S
C1647 C300 1.076 . S
C1661 C232 1.076 . S
C1667 C176 1.069 . S
C1681 C130 1.075 . S
C1687 C244 1.073 . S
C1701 C572 1.070 . S
C1707 C96 1.075 . S
C1721 C28 1.069 . S
C1727 C584 1.077 . S
C1741 C516 1.069 . S
C1747 C40 1.075 . S
C1761 C430 0.704 . S
C1767 C321 0.727 . S
C1781 C457 0.705 . S
C1787 C362 0.725 . S
C1801 C396 0.702 . S
C1807 C491 0.729 . S
C1821 C368 1.072 . S
C1827 C482 1.065 . S
C1841 C436 1.067 . S
C1847 C402 1.067 . S
C1861 C312 1.065 . S
C1867 C448 1.071 . S
