# Generated by pormake.
# Topology sxb, (6)-cn, num edge types: 1
# Building blocks:
#     Node 0, Type 0, BuildingBlock: KUMJIN_clean_sbu_0, # of connection points: 6
#     Node 1, Type 0, BuildingBlock: KUMJIN_clean_sbu_0, # of connection points: 6
#     Node 2, Type 0, BuildingBlock: KUMJIN_clean_sbu_0, # of connection points: 6
#     Node 3, Type 0, BuildingBlock: KUMJIN_clean_sbu_0, # of connection points: 6
#     Edge 4, Type (0, 0), BuildingBlock: ZUJKAS_clean_linker_0, # of connection points: 2
#     Edge 5, Type (0, 0), BuildingBlock: ZUJKAS_clean_linker_0, # of connection points: 2
#     Edge 6, Type (0, 0), BuildingBlock: ZUJKAS_clean_linker_0, # of connection points: 2
#     Edge 7, Type (0, 0), BuildingBlock: ZUJKAS_clean_linker_0, # of connection points: 2
#     Edge 8, Type (0, 0), BuildingBlock: ZUJKAS_clean_linker_0, # of connection points: 2
#     Edge 9, Type (0, 0), BuildingBlock: ZUJKAS_clean_linker_0, # of connection points: 2
#     Edge 10, Type (0, 0), BuildingBlock: ZUJKAS_clean_linker_0, # of connection points: 2
#     Edge 11, Type (0, 0), BuildingBlock: ZUJKAS_clean_linker_0, # of connection points: 2
#     Edge 12, Type (0, 0), BuildingBlock: ZUJKAS_clean_linker_0, # of connection points: 2
#     Edge 13, Type (0, 0), BuildingBlock: ZUJKAS_clean_linker_0, # of connection points: 2
#     Edge 14, Type (0, 0), BuildingBlock: ZUJKAS_clean_linker_0, # of connection points: 2
#     Edge 15, Type (0, 0), BuildingBlock: ZUJKAS_clean_linker_0, # of connection points: 2
# Relax obj value: 0.194
# Max RMSD: 0.109
# Mean RMSD: 0.106
data_MOF--net-sxb--node1-KUMJIN_clean_sbu_0--edge1-ZUJKAS_clean_linker_0
_symmetry_space_group_name_H-M    P1
_symmetry_Int_Tables_number       1
_symmetry_cell_setting            triclinic
loop_
_symmetry_equiv_pos_as_xyz
'x, y, z'
_cell_length_a     21.851465
_cell_length_b     42.352255
_cell_length_c     39.635171
_cell_angle_alpha  100.58909
_cell_angle_beta   113.78317
_cell_angle_gamma 73.736734
loop_
_atom_site_label
_atom_site_type_symbol
_atom_site_fract_x
_atom_site_fract_y
_atom_site_fract_z
_atom_type_partial_charge
Eu0 Eu 0.9601 1.02248 0.9528 0.0
C1 C 0.08505 0.11129 0.05528 0.0
C2 C 0.08668 0.15025 0.01778 0.0
C3 C 0.06092 0.17042 0.07305 0.0
C4 C 0.09373 0.11742 0.0243 0.0
C5 C 0.07025 0.13788 0.08036 0.0
C6 C 0.06905 0.17659 0.04186 0.0
C7 C 0.08335 0.09842 0.12086 0.0
N8 N 0.09459 0.07955 0.06204 0.0
C9 C 0.09926 0.073 0.09574 0.0
C10 C 0.0673 0.13104 0.11279 0.0
Eu11 Eu 0.11897 0.03831 0.01635 0.0
N12 N 0.10973 0.09157 0.00082 0.0
C13 C 0.12508 0.09697 0.97245 0.0
C14 C 0.09762 0.15579 -0.01281 0.0
C15 C 0.11778 0.12901 0.96475 0.0
H16 H 0.11648 0.04813 0.10402 0.0
H17 H 0.12892 0.13298 0.94181 0.0
H18 H 0.06248 0.20186 0.03685 0.0
H19 H 0.08498 0.0928 0.14682 0.0
H20 H 0.1453 0.07692 0.95616 0.0
H21 H 0.97019 0.92166 0.026 0.0
H22 H 0.09224 0.1806 0.98119 0.0
H23 H 0.94279 1.01871 0.86234 0.0
H24 H 0.94765 0.97896 0.01377 0.0
H25 H 0.95793 0.97664 0.81333 0.0
H26 H 0.04868 0.19101 0.09178 0.0
H27 H 0.99972 0.87661 0.98201 0.0
H28 H 1.01569 0.85924 0.92198 0.0
H29 H 0.05586 0.15076 0.13256 0.0
H30 H 1.0139 0.87416 0.86458 0.0
N31 N 0.97393 0.96768 0.96588 0.0
C32 C 0.96526 0.96011 -0.00447 0.0
C33 C 0.99205 0.90201 0.97703 0.0
C34 C 0.99539 0.90978 0.94515 0.0
C35 C 0.9759 0.92733 0.00203 0.0
C36 C 0.98576 0.94331 0.94007 0.0
H37 H 0.99223 0.91762 0.82387 0.0
N38 N 0.9735 0.98416 0.90259 0.0
C39 C 0.9679 0.96928 0.84002 0.0
C40 C 0.98602 0.95173 0.90782 0.0
C41 C 0.96014 0.99309 0.86832 0.0
C42 C 0.9868 0.936 0.84606 0.0
C43 C 0.99427 0.92679 0.87983 0.0
O44 O 0.86815 0.03306 0.90286 0.0
O45 O 1.00742 0.06624 -0.01439 0.0
O46 O 0.07042 1.01895 0.04631 0.0
O47 O 0.95509 0.03408 0.01037 0.0
O48 O 0.90892 0.0782 0.9495 0.0
O49 O 0.86177 1.01729 0.95002 0.0
O50 O 0.20278 0.03017 0.06989 0.0
O51 O 0.07202 0.99435 0.98342 0.0
O52 O 1.01144 0.03897 0.92194 0.0
O53 O 0.12661 1.02517 0.95941 0.0
O54 O 0.17252 0.9829 0.01745 0.0
O55 O 0.22089 0.04321 0.02486 0.0
C56 C 0.95566 0.09195 0.97417 0.0
C57 C 0.77296 0.06119 0.91881 0.0
C58 C 0.71145 0.10238 0.95333 0.0
C59 C 0.75744 0.07204 0.95061 0.0
C60 C 0.68163 0.12216 0.92328 0.0
C61 C 0.74087 0.08084 0.88873 0.0
C62 C 0.69583 0.11123 0.89112 0.0
C63 C 1.00543 0.02683 0.04238 0.0
C64 C 0.82764 0.03118 0.91878 0.0
C65 C 1.00661 0.89351 0.88561 0.0
C66 C 1.00729 0.88503 0.9182 0.0
C67 C 0.12499 0.96889 -0.00606 0.0
C68 C 0.30784 1.0033 0.06382 0.0
C69 C 0.32562 0.98599 0.0341 0.0
C70 C 0.38367 0.95935 0.03949 0.0
C71 C 0.41828 0.94809 0.0754 0.0
C72 C 0.34528 0.9925 0.09931 0.0
C73 C 0.39922 0.9646 0.10484 0.0
C74 C 0.07693 0.03076 0.92674 0.0
C75 C 0.24865 0.03191 0.05761 0.0
H76 H 0.7799 0.05594 0.97289 0.0
H77 H 0.64575 0.14556 0.92411 0.0
H78 H 0.75169 0.07303 0.86371 0.0
H79 H 0.6715 0.12631 0.86786 0.0
H80 H 0.29493 0.99468 0.0071 0.0
H81 H 0.46202 0.92741 0.08181 0.0
H82 H 0.33221 1.00539 0.12263 0.0
H83 H 0.42768 0.95617 0.1323 0.0
Eu84 Eu 1.02449 0.99057 0.47251 0.0
C85 C 0.91506 0.12884 0.49481 0.0
C86 C 0.82682 0.13487 0.43351 0.0
C87 C 0.81812 0.17659 0.48324 0.0
C88 C 0.89046 0.11765 0.45785 0.0
C89 C 0.87838 0.15818 0.50799 0.0
C90 C 0.79232 0.16493 0.44605 0.0
C91 C 0.96066 0.14807 0.56973 0.0
N92 N 0.97207 0.10998 0.51839 0.0
C93 C 0.99514 0.11926 0.55548 0.0
C94 C 0.90223 0.16775 0.54587 0.0
Eu95 Eu 1.03523 0.06429 0.49219 0.0
N96 N 0.92398 0.08796 0.44683 0.0
C97 C 0.88897 0.0718 0.41429 0.0
C98 C 0.79702 0.12025 0.39806 0.0
C99 C 0.82709 0.08805 0.38891 0.0
H100 H 1.04112 0.10493 0.57437 0.0
H101 H 0.80151 0.07527 0.36283 0.0
H102 H 0.74401 0.17859 0.4276 0.0
H103 H 0.97955 0.15519 0.59913 0.0
H104 H 0.90649 0.04588 0.40809 0.0
H105 H 0.26294 0.97312 0.59929 0.0
H106 H 0.74821 0.13258 0.37868 0.0
H107 H 1.01241 0.95285 0.38807 0.0
H108 H 0.15844 1.00525 0.55626 0.0
H109 H 0.06802 0.90204 0.3609 0.0
H110 H 0.78973 0.19926 0.49285 0.0
H111 H 0.30999 0.91558 0.58061 0.0
H112 H 0.30726 0.87068 0.52988 0.0
H113 H 0.87541 0.19003 0.55701 0.0
H114 H 0.25674 0.85227 0.46416 0.0
N115 N 0.13591 0.96472 0.51581 0.0
C116 C 0.17366 0.97938 0.54874 0.0
C117 C 0.26165 0.92919 0.56213 0.0
C118 C 0.22896 0.916 0.52633 0.0
C119 C 0.2351 0.96154 0.57287 0.0
C120 C 0.16617 0.93489 0.50319 0.0
H121 H 0.16967 0.86437 0.40097 0.0
N122 N 0.08331 0.94545 0.44338 0.0
C123 C 0.08893 0.90828 0.39043 0.0
C124 C 0.13913 0.92506 0.46586 0.0
C125 C 0.0582 0.93747 0.40604 0.0
C126 C 0.14586 0.88698 0.41315 0.0
C127 C 0.17214 0.89534 0.45126 0.0
O128 O 0.93831 0.97652 0.42574 0.0
O129 O 0.94945 0.03672 0.48345 0.0
O130 O 1.0403 0.04726 0.5457 0.0
O131 O 1.03658 0.992 0.53213 0.0
O132 O 0.94793 0.03657 0.48345 0.0
O133 O 0.98326 0.95058 0.47563 0.0
O134 O 0.11756 0.07715 0.54074 0.0
O135 O 0.1108 1.0181 0.48189 0.0
O136 O 1.02243 1.00782 0.41943 0.0
O137 O 1.02743 0.06301 0.43345 0.0
O138 O 0.11236 1.01826 0.4819 0.0
O139 O 0.078 0.10595 0.49222 0.0
C140 C 0.8871 0.0462 0.4869 0.0
C141 C 0.93945 0.9197 0.41823 0.0
C142 C 0.95435 0.86028 0.4156 0.0
C143 C 0.96987 0.89002 0.43514 0.0
C144 C 0.91948 0.85982 0.37685 0.0
C145 C 0.90332 0.91895 0.37981 0.0
C146 C 0.89595 0.8889 0.35909 0.0
C147 C 1.04024 1.01883 0.55544 0.0
C148 C 0.94077 0.95131 0.44113 0.0
C149 C 0.23123 0.87527 0.47487 0.0
C150 C 0.25973 0.88564 0.51233 0.0
C151 C 0.17342 1.00865 0.47873 0.0
C152 C 0.16795 0.12241 0.54891 0.0
C153 C 0.19845 0.13656 0.53251 0.0
C154 C 0.24315 0.157 0.55399 0.0
C155 C 0.25791 0.16264 0.59232 0.0
C156 C 0.18307 0.12808 0.58716 0.0
C157 C 0.22807 0.14811 0.60875 0.0
C158 C 1.02505 0.03607 0.41028 0.0
C159 C 0.12109 0.1014 0.52624 0.0
H160 H 1.0009 0.8906 0.4644 0.0
H161 H 0.90586 0.83774 0.36026 0.0
H162 H 0.88013 0.94154 0.36589 0.0
H163 H 0.86796 0.88842 0.32948 0.0
H164 H 0.187 0.13182 0.503 0.0
H165 H 0.29058 0.17916 0.60939 0.0
H166 H 0.15973 0.11727 0.6003 0.0
H167 H 0.23898 0.15282 0.63815 0.0
Eu168 Eu 0.46429 0.52218 0.95346 0.0
C169 C 0.58739 0.61567 0.04463 0.0
C170 C 0.59096 0.65092 0.00384 0.0
C171 C 0.56256 0.67553 0.05749 0.0
C172 C 0.59776 0.61905 0.01312 0.0
C173 C 0.57137 0.64401 0.06751 0.0
C174 C 0.57194 0.67897 0.02566 0.0
C175 C 0.5789 0.60835 0.1105 0.0
N176 N 0.59528 0.58492 0.05375 0.0
C177 C 0.59571 0.5811 0.08746 0.0
C178 C 0.56545 0.63998 0.10019 0.0
Eu179 Eu 0.62401 0.54025 0.01231 0.0
N180 N 0.6166 0.59151 -0.0077 0.0
C181 C 0.63655 0.59448 0.96462 0.0
C182 C 0.60491 0.6538 0.97327 0.0
C183 C 0.62904 0.62545 0.95403 0.0
H184 H 0.61149 0.55713 0.09775 0.0
H185 H 0.64347 0.62742 0.93152 0.0
H186 H 0.56579 0.7035 0.01858 0.0
H187 H 0.57797 0.6049 0.13665 0.0
H188 H 0.66069 0.57336 0.95104 0.0
H189 H 0.3985 0.4506 0.03202 0.0
H190 H 0.59991 0.67779 0.96523 0.0
H191 H 0.48842 0.49476 0.87231 0.0
H192 H 0.39365 0.50065 0.00759 0.0
H193 H 0.52774 0.44253 0.84082 0.0
H194 H 0.54926 0.69743 0.07446 0.0
H195 H 0.45321 0.39603 0.00985 0.0
H196 H 0.5054 0.36271 0.96529 0.0
H197 H 0.55304 0.6611 0.1183 0.0
H198 H 0.53894 0.36042 0.91265 0.0
N199 N 0.45507 0.47567 0.9758 0.0
C200 C 0.42192 0.4774 -0.00077 0.0
C201 C 0.45348 0.41814 -0.00014 0.0
C202 C 0.47988 0.41615 0.97257 0.0
C203 C 0.42279 0.44887 0.01253 0.0
C204 C 0.47947 0.4457 0.96058 0.0
H205 H 0.54678 0.38985 0.86593 0.0
N206 N 0.49621 0.47295 0.91872 0.0
C207 C 0.52165 0.44261 0.86662 0.0
C208 C 0.49912 0.44434 0.93088 0.0
C209 C 0.50168 0.47243 0.88544 0.0
C210 C 0.5317 0.41297 0.88069 0.0
C211 C 0.51842 0.41351 0.9125 0.0
O212 O 0.39041 0.53949 0.89969 0.0
O213 O 0.51014 0.56669 0.98415 0.0
O214 O 0.57965 0.52007 0.04441 0.0
O215 O 0.46287 0.5353 0.01138 0.0
O216 O 0.40591 0.57637 0.96034 0.0
O217 O 0.3637 0.51084 0.92932 0.0
O218 O 0.70239 0.53549 0.06776 0.0
O219 O 0.57798 0.49566 0.98138 0.0
O220 O 0.51203 0.53747 0.91982 0.0
O221 O 0.62848 0.52691 0.95497 0.0
O222 O 0.68034 0.48505 0.01166 0.0
O223 O 0.72861 0.54324 0.02319 0.0
C224 C 0.45528 0.59148 0.97759 0.0
C225 C 0.27826 0.55618 0.90056 0.0
C226 C 0.19456 0.58551 0.92865 0.0
C227 C 0.25393 0.56139 0.92928 0.0
C228 C 0.16061 0.60566 0.89892 0.0
C229 C 0.24353 0.57622 0.87091 0.0
C230 C 0.18523 0.60104 0.87031 0.0
C231 C 0.5155 0.52695 0.04224 0.0
C232 C 0.34087 0.53028 0.90275 0.0
C233 C 0.52268 0.38423 0.92591 0.0
C234 C 0.50373 0.38554 0.95595 0.0
C235 C 0.63174 0.4705 -0.00919 0.0
C236 C 0.81172 0.5074 0.06882 0.0
C237 C 0.83363 0.48543 0.04261 0.0
C238 C 0.88914 0.45763 0.05318 0.0
C239 C 0.91942 0.45182 0.09114 0.0
C240 C 0.84489 0.50159 0.10627 0.0
C241 C 0.89791 0.47377 0.11724 0.0
C242 C 0.57647 0.53174 0.923 0.0
C243 C 0.75173 0.53538 0.05729 0.0
H244 H 0.27967 0.54512 0.95145 0.0
H245 H 0.11412 0.62424 0.89721 0.0
H246 H 0.26138 0.57268 0.84836 0.0
H247 H 0.15823 0.61632 0.84725 0.0
H248 H 0.80759 0.49109 0.01415 0.0
H249 H 0.9612 0.431 0.10159 0.0
H250 H 0.82893 0.51829 0.12697 0.0
H251 H 0.92302 0.46929 0.14625 0.0
Eu252 Eu 0.55409 0.48525 0.47252 0.0
C253 C 0.42924 0.61946 0.49577 0.0
C254 C 0.34469 0.62557 0.43346 0.0
C255 C 0.32865 0.66541 0.48333 0.0
C256 C 0.40838 0.60907 0.45844 0.0
C257 C 0.38885 0.64748 0.50861 0.0
C258 C 0.30651 0.65443 0.44583 0.0
C259 C 0.46792 0.63722 0.57095 0.0
N260 N 0.48644 0.60108 0.51984 0.0
C261 C 0.50624 0.60974 0.55706 0.0
C262 C 0.40917 0.65632 0.54663 0.0
Eu263 Eu 0.55683 0.5589 0.49413 0.0
N264 N 0.44567 0.58061 0.4474 0.0
C265 C 0.41429 0.56442 0.41401 0.0
C266 C 0.3186 0.61134 0.3974 0.0
C267 C 0.35236 0.57999 0.38809 0.0
H268 H 0.55289 0.59609 0.5764 0.0
H269 H 0.3297 0.56734 0.36136 0.0
H270 H 0.25818 0.6676 0.42688 0.0
H271 H 0.48423 0.64385 0.60044 0.0
H272 H 0.43505 0.53898 0.40739 0.0
H273 H 0.77954 0.47521 0.6059 0.0
H274 H 0.26986 0.62313 0.37752 0.0
H275 H 0.56102 0.44744 0.39107 0.0
H276 H 0.67711 0.50434 0.55883 0.0
H277 H 0.62802 0.39836 0.36779 0.0
H278 H 0.29752 0.68713 0.4927 0.0
H279 H 0.83583 0.41818 0.59108 0.0
H280 H 0.84608 0.37267 0.54241 0.0
H281 H 0.37949 0.67761 0.55749 0.0
H282 H 0.80762 0.35284 0.47665 0.0
N283 N 0.66352 0.46218 0.51976 0.0
C284 C 0.69589 0.47848 0.55287 0.0
C285 C 0.78805 0.43034 0.57083 0.0
C286 C 0.76166 0.4158 0.53495 0.0
C287 C 0.75631 0.46241 0.57937 0.0
C288 C 0.69921 0.43281 0.50949 0.0
H289 H 0.72861 0.36305 0.41142 0.0
N290 N 0.62323 0.44104 0.44802 0.0
C291 C 0.64286 0.40469 0.39729 0.0
C292 C 0.67866 0.42208 0.47237 0.0
C293 C 0.6052 0.43277 0.4108 0.0
C294 C 0.69931 0.38473 0.42198 0.0
C295 C 0.71834 0.39344 0.45997 0.0
O296 O 0.47718 0.47224 0.42026 0.0
O297 O 0.47359 0.52939 0.48291 0.0
O298 O 0.55879 0.53928 0.54577 0.0
O299 O 0.55784 0.48375 0.53011 0.0
O300 O 0.47222 0.52907 0.48287 0.0
O301 O 0.51467 0.44184 0.46632 0.0
O302 O 0.63425 0.5756 0.54441 0.0
O303 O 0.63837 0.51469 0.48474 0.0
O304 O 0.55601 0.50437 0.42172 0.0
O305 O 0.55161 0.56034 0.43639 0.0
O306 O 0.63983 0.51505 0.4848 0.0
O307 O 0.58656 0.60423 0.49552 0.0
C308 C 0.41159 0.53805 0.4866 0.0
C309 C 0.39974 0.4453 0.42326 0.0
C310 C 0.31994 0.42762 0.43995 0.0
C311 C 0.37962 0.4392 0.45022 0.0
C312 C 0.2742 0.42829 0.40265 0.0
C313 C 0.35437 0.44546 0.38621 0.0
C314 C 0.29076 0.43803 0.37621 0.0
C315 C 0.55751 0.51031 0.55383 0.0
C316 C 0.47048 0.44759 0.43273 0.0
C317 C 0.77704 0.37502 0.48567 0.0
C318 C 0.7987 0.38619 0.52313 0.0
C319 C 0.70077 0.50566 0.48146 0.0
C320 C 0.66619 0.62735 0.55087 0.0
C321 C 0.65335 0.65615 0.53441 0.0
C322 C 0.68917 0.68075 0.55329 0.0
C323 C 0.73458 0.67729 0.59034 0.0
C324 C 0.71157 0.62408 0.58777 0.0
C325 C 0.74498 0.64922 0.60752 0.0
C326 C 0.55472 0.5336 0.41327 0.0
C327 C 0.62667 0.60258 0.53038 0.0
H328 H 0.41361 0.44071 0.47897 0.0
H329 H 0.22791 0.41922 0.39315 0.0
H330 H 0.36895 0.45037 0.36493 0.0
H331 H 0.25623 0.43768 0.34751 0.0
H332 H 0.61605 0.65922 0.50645 0.0
H333 H 0.76422 0.69548 0.60562 0.0
H334 H 0.72062 0.60237 0.60145 0.0
H335 H 0.78013 0.64665 0.63595 0.0
H336 H 0.41959 0.6356 0.03447 0.0
H337 H 0.36695 0.69537 0.03627 0.0
H338 H 0.37901 0.69949 0.93184 0.0
H339 H 0.43332 0.64013 0.93077 0.0
H340 H 0.3915 0.75765 0.03868 0.0
H341 H 0.18163 0.74865 0.90356 0.0
H342 H 0.23867 0.71245 0.92643 0.0
H343 H 0.26514 0.73351 0.90097 0.0
C344 C 0.41393 0.64908 0.01228 0.0
C345 C 0.43716 0.63113 0.98365 0.0
C346 C 0.38181 0.68429 0.01303 0.0
C347 C 0.36574 0.70468 0.98405 0.0
C348 C 0.38792 0.68656 0.95511 0.0
H349 H 0.14536 0.92414 0.93256 0.0
H350 H 0.1991 0.86441 0.93023 0.0
C351 C 0.42139 0.65158 0.95483 0.0
C352 C 0.32632 0.74345 0.98387 0.0
H353 H 0.18969 0.8028 0.93065 0.0
C354 C 0.34713 0.76687 0.01475 0.0
C355 C 0.26725 0.75843 0.95348 0.0
C356 C 0.23613 0.73707 0.91931 0.0
C357 C 0.31445 0.80213 0.01576 0.0
C358 C 0.2547 0.81709 -0.01445 0.0
C359 C 0.23404 0.79364 0.9546 0.0
C360 C 0.21455 0.85582 -0.01431 0.0
C361 C 0.34763 0.82341 0.04951 0.0
C362 C 0.19941 0.87431 0.01659 0.0
C363 C 0.16619 0.9092 0.01748 0.0
C364 C 0.14257 0.9293 -0.01268 0.0
C365 C 0.15741 0.91097 0.95623 0.0
C366 C 0.1903 0.87578 0.95515 0.0
H367 H 0.40307 0.81215 0.06354 0.0
H368 H 0.34278 0.84836 0.04234 0.0
H369 H 0.32244 0.82594 0.06951 0.0
H370 H 0.21378 0.86179 0.04102 0.0
H371 H 0.16042 0.92092 0.04305 0.0
H372 H 0.68155 0.42741 0.93846 0.0
H373 H 0.73317 0.36772 0.93678 0.0
H374 H 0.69312 0.36198 0.03275 0.0
H375 H 0.63921 0.42106 0.03308 0.0
H376 H 0.83247 0.32256 0.96523 0.0
H377 H 0.65173 0.2778 -0.00175 0.0
H378 H 0.63284 0.31965 -0.01289 0.0
H379 H 0.68746 0.30793 0.03335 0.0
C380 C 0.68033 0.41346 0.9584 0.0
C381 C 0.64922 0.43093 0.98418 0.0
C382 C 0.71205 0.37822 0.95789 0.0
C383 C 0.71788 0.35689 0.98384 0.0
C384 C 0.68876 0.37478 0.01043 0.0
H385 H 0.91577 0.13504 0.03054 0.0
H386 H 0.8636 0.19483 0.03288 0.0
C387 C 0.65658 0.40993 0.01068 0.0
C388 C 0.75594 0.31775 0.98387 0.0
H389 H 0.75606 0.2396 0.00226 0.0
C390 C 0.81415 0.30494 0.97321 0.0
C391 C 0.73656 0.29191 -0.00597 0.0
C392 C 0.67342 0.29982 0.00347 0.0
C393 C 0.85148 0.27031 0.97323 0.0
C394 C 0.8322 0.24453 0.98348 0.0
C395 C 0.77416 0.25729 -0.00576 0.0
C396 C 0.87008 0.20545 0.9831 0.0
C397 C 0.91412 0.26217 0.9633 0.0
C398 C 0.89423 0.18759 0.95472 0.0
C399 C 0.92597 0.15247 0.95378 0.0
C400 C 0.93866 0.13148 0.98151 0.0
C401 C 0.91297 0.14897 0.00942 0.0
C402 C 0.88089 0.18421 0.01036 0.0
H403 H 0.9363 0.28402 0.96855 0.0
H404 H 0.95455 0.24205 0.97925 0.0
H405 H 0.89928 0.25424 0.93335 0.0
H406 H 0.88607 0.20049 0.93161 0.0
H407 H 0.93913 0.14133 0.93001 0.0
H408 H 0.37082 0.16954 0.57789 0.0
H409 H 0.39833 0.21361 0.55821 0.0
H410 H 0.19937 0.22976 0.46977 0.0
H411 H 0.17036 0.18684 0.48972 0.0
H412 H 0.36465 0.23895 0.47515 0.0
H413 H 0.22207 0.30668 0.56597 0.0
H414 H 0.26807 0.26408 0.57093 0.0
H415 H 0.18853 0.27464 0.5326 0.0
C416 C 0.33377 0.18191 0.55365 0.0
C417 C 0.26781 0.17556 0.53603 0.0
C418 C 0.34988 0.20666 0.54223 0.0
C419 C 0.30025 0.22486 0.51305 0.0
C420 C 0.23797 0.2157 0.49239 0.0
H421 H 0.2033 0.41641 0.44282 0.0
H422 H 0.20079 0.36806 0.46722 0.0
C423 C 0.2216 0.19117 0.5039 0.0
C424 C 0.30601 0.25758 0.50987 0.0
H425 H 0.25285 0.33872 0.53535 0.0
C426 C 0.3409 0.26083 0.48843 0.0
C427 C 0.27436 0.28569 0.52735 0.0
C428 C 0.2363 0.28285 0.55069 0.0
C429 C 0.34365 0.29209 0.48322 0.0
C430 C 0.31172 0.32032 0.50066 0.0
C431 C 0.27748 0.3169 0.5224 0.0
C432 C 0.31115 0.35362 0.49504 0.0
C433 C 0.3788 0.29466 0.45823 0.0
C434 C 0.37329 0.36267 0.50551 0.0
C435 C 0.37538 0.38926 0.49053 0.0
C436 C 0.3147 0.40782 0.46557 0.0
C437 C 0.25123 0.40179 0.46036 0.0
C438 C 0.24955 0.37443 0.47462 0.0
H439 H 0.38621 0.27148 0.44046 0.0
H440 H 0.34878 0.31524 0.44017 0.0
H441 H 0.43021 0.29959 0.47541 0.0
H442 H 0.42102 0.34724 0.52227 0.0
H443 H 0.42581 0.39255 0.4958 0.0
H444 H 0.96084 0.7936 0.39283 0.0
H445 H 0.91614 0.75858 0.4155 0.0
H446 H 0.91837 0.82852 0.50945 0.0
H447 H 0.95614 0.86468 0.48655 0.0
H448 H 0.94524 0.74663 0.5101 0.0
H449 H 0.70681 0.82283 0.4137 0.0
H450 H 0.78216 0.80664 0.40204 0.0
H451 H 0.78246 0.83918 0.43803 0.0
C452 C 0.95288 0.80146 0.41859 0.0
C453 C 0.95864 0.83316 0.43631 0.0
C454 C 0.92844 0.78109 0.43174 0.0
C455 C 0.91258 0.79177 0.46343 0.0
C456 C 0.93 0.82028 0.48468 0.0
H457 H 0.69747 0.74519 0.57793 0.0
H458 H 0.73474 0.7799 0.55038 0.0
C459 C 0.95235 0.84099 0.47121 0.0
C460 C 0.86443 0.77825 0.47018 0.0
H461 H 0.69309 0.79078 0.45168 0.0
C462 C 0.89017 0.75585 0.49712 0.0
C463 C 0.79285 0.79122 0.45348 0.0
C464 C 0.76389 0.81633 0.42516 0.0
C465 C 0.84552 0.74586 0.50792 0.0
C466 C 0.77401 0.75911 0.49155 0.0
C467 C 0.74813 0.78125 0.4643 0.0
C468 C 0.7263 0.74732 0.50064 0.0
C469 C 0.87472 0.72107 0.53663 0.0
C470 C 0.70464 0.71926 0.4802 0.0
C471 C 0.6857 0.69897 0.49617 0.0
C472 C 0.68718 0.70694 0.53258 0.0
C473 C 0.69837 0.73786 0.55045 0.0
C474 C 0.71847 0.75796 0.53457 0.0
H475 H 0.93134 0.71216 0.54538 0.0
H476 H 0.86253 0.73244 0.5614 0.0
H477 H 0.85091 0.6995 0.52554 0.0
H478 H 0.71063 0.7109 0.45393 0.0
H479 H 0.67757 0.67542 0.48135 0.0
H480 H 0.33378 0.97649 0.96534 0.0
H481 H 0.40947 0.99587 0.9483 0.0
H482 H 0.58393 0.93152 0.02165 0.0
H483 H 0.50876 0.91437 0.04188 0.0
H484 H 0.57652 0.99267 0.05161 0.0
H485 H 0.54558 0.99561 0.90765 0.0
H486 H 0.46189 1.00765 0.90971 0.0
H487 H 0.51335 0.96653 0.92032 0.0
C488 C 0.38818 0.96648 0.97861 0.0
C489 C 0.41605 0.94922 0.01079 0.0
C490 C 0.43177 0.97676 0.9674 0.0
C491 C 0.50303 0.96713 -0.01397 0.0
C492 C 0.52899 0.94095 0.00873 0.0
H493 H 0.78076 0.08741 0.02661 0.0
H494 H 0.72762 0.05699 0.04891 0.0
C495 C 0.48531 0.93166 0.02085 0.0
C496 C 0.54498 0.99117 -0.00779 0.0
H497 H 0.56914 0.04563 0.94829 0.0
C498 C 0.57608 1.00384 0.02897 0.0
C499 C 0.54405 1.00601 0.96291 0.0
C500 C 0.51486 0.99289 0.92303 0.0
C501 C 0.60216 0.03219 0.03702 0.0
C502 C 0.59724 0.04815 0.00752 0.0
C503 C 0.57015 0.03425 0.97096 0.0
C504 C 0.62375 0.07795 0.01288 0.0
C505 C 0.63257 0.0452 0.07685 0.0
C506 C 0.58299 0.10344 -0.01034 0.0
C507 C 0.6138 0.11884 0.97469 0.0
C508 C 0.68525 0.109 0.98392 0.0
C509 C 0.7252 0.09282 0.0166 0.0
C510 C 0.69473 0.07566 0.02992 0.0
H511 H 0.61155 0.03741 0.09445 0.0
H512 H 0.68895 0.03499 0.08755 0.0
H513 H 0.62296 0.07254 0.0797 0.0
H514 H 0.52763 0.10675 0.97762 0.0
H515 H 0.58072 0.13317 0.95131 0.0
H516 H 0.29811 1.01876 0.53983 0.0
H517 H 0.40862 1.02302 0.54031 0.0
H518 H 0.31621 0.03092 0.42335 0.0
H519 H 0.2067 0.0278 0.42366 0.0
H520 H 0.51789 1.00036 0.52912 0.0
H521 H 0.42643 0.08193 0.41756 0.0
H522 H 0.36966 0.0777 0.43817 0.0
H523 H 0.38805 0.04707 0.40313 0.0
C524 C 0.29843 1.02381 0.51412 0.0
C525 C 0.23427 0.02635 0.48235 0.0
C526 C 0.36553 1.02535 0.51414 0.0
C527 C 0.3788 0.02859 0.48206 0.0
C528 C 0.31495 0.03032 0.45015 0.0
H529 H 0.76178 0.03665 0.42588 0.0
H530 H 0.65136 0.03242 0.42554 0.0
C531 C 0.24814 0.0289 0.45032 0.0
C532 C 0.45604 0.02855 0.482 0.0
H533 H 0.54245 0.05473 0.43676 0.0
C534 C 0.52103 1.01274 0.50848 0.0
C535 C 0.46962 0.04393 0.45636 0.0
C536 C 0.41014 0.0639 0.42736 0.0
C537 C 0.59075 1.01115 0.50953 0.0
C538 C 0.60433 0.02651 0.48387 0.0
C539 C 0.53933 0.04233 0.4574 0.0
C540 C 0.68155 0.02646 0.48373 0.0
C541 C 0.65022 0.99123 0.53858 0.0
C542 C 0.74559 1.02451 0.51555 0.0
C543 C 0.81237 0.02589 0.51528 0.0
C544 C 0.82601 0.02861 0.48322 0.0
C545 C 0.76165 0.03141 0.45157 0.0
C546 C 0.6946 0.02991 0.45164 0.0
H547 H 0.63391 0.97328 0.54849 0.0
H548 H 0.69064 0.97734 0.52776 0.0
H549 H 0.67239 1.00811 0.56274 0.0
H550 H 0.74458 1.02374 0.54236 0.0
H551 H 0.854 0.02677 0.54189 0.0
H552 H 1.0122 0.40811 0.06505 0.0
H553 H 0.08919 0.40822 0.03571 0.0
H554 H 0.92131 0.46186 0.94858 0.0
H555 H 0.84258 0.45909 0.97538 0.0
H556 H 0.08821 0.47134 0.04943 0.0
H557 H 0.06239 0.44015 0.90487 0.0
H558 H 0.9774 0.4566 0.90455 0.0
H559 H 1.02799 0.4188 0.92617 0.0
C560 C 0.99013 0.41941 0.03923 0.0
C561 C 0.92253 0.43914 0.02631 0.0
C562 C 1.03489 0.41862 0.02187 0.0
C563 C 1.01227 0.43766 -0.0081 0.0
C564 C 0.94131 0.44842 0.97297 0.0
H565 H 0.25786 0.57303 0.0024 0.0
H566 H 0.22152 0.53519 0.02557 0.0
C567 C 0.8962 0.44814 -0.01038 0.0
C568 C 0.05738 0.45741 -0.00934 0.0
H569 H 0.07797 0.49713 0.93024 0.0
C570 C 0.08751 0.47639 0.02341 0.0
C571 C 0.05709 0.46405 0.95703 0.0
C572 C 1.02992 0.44345 0.92136 0.0
C573 C 0.10964 0.50418 0.02273 0.0
C574 C 0.10296 0.51267 -0.01159 0.0
C575 C 0.0801 0.49152 0.95638 0.0
C576 C 0.11816 0.54326 0.98405 0.0
C577 C 0.13561 0.5251 0.0584 0.0
C578 C 0.0707 0.56276 0.95523 0.0
C579 C 0.0929 0.58271 0.94035 0.0
C580 C 0.16257 0.58365 0.95477 0.0
C581 C 0.20479 0.57101 -0.01064 0.0
C582 C 0.18388 0.54949 0.00299 0.0
H583 H 0.11763 0.52104 0.07945 0.0
H584 H 0.19261 0.51818 0.07001 0.0
H585 H 0.11897 0.55176 0.05389 0.0
H586 H 1.01876 0.55926 0.94116 0.0
H587 H 0.05789 0.59308 0.91452 0.0
H588 H 0.37622 0.52031 0.54142 0.0
H589 H 0.26486 0.51719 0.54038 0.0
H590 H 0.18026 0.52057 0.42266 0.0
H591 H 0.29098 0.52486 0.42437 0.0
H592 H 0.16526 0.49279 0.52929 0.0
H593 H 1.00797 0.57458 0.41748 0.0
H594 H 0.0614 0.5388 0.40312 0.0
H595 H 0.09982 0.56914 0.43776 0.0
C596 C 0.33563 0.51876 0.51451 0.0
C597 C 0.35126 0.52015 0.48268 0.0
C598 C 0.26814 0.51775 0.51399 0.0
C599 C 0.2055 0.51946 0.48158 0.0
C600 C 0.22117 0.52028 0.44951 0.0
H601 H 0.7363 0.52288 0.42625 0.0
H602 H 0.84788 0.52544 0.42704 0.0
C603 C 0.28879 0.52141 0.45022 0.0
C604 C 0.12821 0.5206 0.48192 0.0
H605 H 0.94788 0.54949 0.43795 0.0
C606 C 0.11876 0.50563 0.50888 0.0
C607 C 0.06101 0.53677 0.45661 0.0
C608 C 0.05743 0.55603 0.42728 0.0
C609 C 0.05212 0.50551 0.51064 0.0
C610 C 0.98491 0.52174 0.48537 0.0
C611 C 0.99437 0.53667 0.45838 0.0
C612 C 0.90757 0.52305 0.4858 0.0
C613 C 0.05574 0.48617 0.53991 0.0
C614 C 0.89203 0.52226 0.51792 0.0
C615 C 0.82425 0.52157 0.51737 0.0
C616 C 0.76146 0.5232 0.48503 0.0
C617 C 0.77706 0.52434 0.45311 0.0
C618 C 0.84471 0.52498 0.45348 0.0
H619 H 0.10508 0.46751 0.54953 0.0
H620 H 0.05212 0.50331 0.56418 0.0
H621 H 1.01318 0.47317 0.52944 0.0
H622 H 0.93318 0.52167 0.5447 0.0
H623 H 0.82221 0.51806 0.54324 0.0
H624 H 0.04942 0.98499 0.36046 0.0
H625 H 1.03395 0.98741 0.29643 0.0
H626 H 0.97189 0.09352 0.30838 0.0
H627 H 0.98708 0.09124 0.37275 0.0
H628 H 0.9158 1.01288 0.23751 0.0
H629 H 0.12169 0.07838 0.2664 0.0
H630 H 0.11495 0.05982 0.30189 0.0
H631 H 0.0588 0.09872 0.28644 0.0
C632 C 1.03208 1.00886 0.34955 0.0
C633 C 1.01909 0.03788 0.37185 0.0
C634 C 1.02345 1.01022 0.31284 0.0
C635 C 1.0021 0.04064 0.29748 0.0
C636 C 0.98943 0.06975 0.31968 0.0
H637 H 0.90603 0.07029 0.06407 0.0
H638 H 0.89575 0.0757 0.12473 0.0
C639 C 0.99813 0.0684 0.35653 0.0
C640 C 0.99284 0.04152 0.25819 0.0
H641 H 0.05558 0.06653 0.20366 0.0
C642 C 0.94596 1.02488 0.23013 0.0
C643 C 1.03236 0.05705 0.24844 0.0
C644 C 0.08523 0.0743 0.27731 0.0
C645 C 0.93826 1.02305 0.19283 0.0
C646 C 0.97847 0.03811 0.1833 0.0
C647 C 1.02434 0.05527 0.2111 0.0
C648 C 0.97882 0.03348 0.14529 0.0
C649 C 0.88865 1.00429 0.16377 0.0
C650 C 1.02775 1.00762 0.13659 0.0
C651 C 1.03344 1.00446 0.10219 0.0
C652 C 0.99015 0.02706 0.07566 0.0
C653 C 0.93907 0.05218 0.08373 0.0
C654 C 0.93368 0.05547 0.11844 0.0
H655 H 0.85845 0.9953 0.17525 0.0
H656 H 0.85269 1.02032 0.14124 0.0
H657 H 0.91747 0.98279 0.15132 0.0
H658 H 0.06293 0.99038 0.15689 0.0
H659 H 0.07332 0.9849 0.09674 0.0
H660 H 0.04564 0.07889 0.88188 0.0
H661 H 0.05345 0.07217 0.82073 0.0
H662 H 0.14691 0.9688 0.83372 0.0
H663 H 0.14102 0.97574 0.89557 0.0
H664 H 0.20024 1.01968 0.79924 0.0
H665 H 0.92501 1.01629 0.73548 0.0
H666 H 0.96783 1.02274 0.78483 0.0
H667 H 0.9785 0.98185 0.7619 0.0
C668 C 0.06961 0.05498 0.87206 0.0
C669 C 0.09374 0.02796 0.89354 0.0
C670 C 0.07378 0.05112 0.83713 0.0
C671 C 0.1005 1.01998 0.82261 0.0
C672 C 0.12664 0.99309 0.84451 0.0
H673 H 1.02814 0.96872 0.58625 0.0
H674 H 0.0498 0.96549 0.65146 0.0
C675 C 0.12374 0.99711 0.87988 0.0
C676 C 0.09629 1.01547 0.78363 0.0
H677 H 0.9846 1.0065 0.6943 0.0
C678 C 0.15323 1.01669 0.77626 0.0
C679 C 1.03511 1.01134 0.75363 0.0
C680 C 0.97306 1.00825 0.75943 0.0
C681 C 0.15001 1.01458 0.73967 0.0
C682 C 0.0879 1.01158 0.70965 0.0
C683 C 1.03194 1.00922 0.71717 0.0
C684 C 0.07836 1.01251 0.67032 0.0
C685 C 0.21333 1.01536 0.73352 0.0
C686 C 0.08622 0.04013 0.65896 0.0
C687 C 0.07359 0.04208 0.6218 0.0
C688 C 0.05215 1.0166 0.5948 0.0
C689 C 0.04435 0.98886 0.60618 0.0
C690 C 0.05689 0.98695 0.6435 0.0
H691 H 0.26083 1.00716 0.75771 0.0
H692 H 0.21703 0.99944 0.7085 0.0
H693 H 0.21083 0.04104 0.72963 0.0
H694 H 0.10115 0.06053 0.6788 0.0
H695 H 0.08125 0.0636 0.61441 0.0
H696 H 0.48743 0.58637 0.37086 0.0
H697 H 0.46612 0.58748 0.30527 0.0
H698 H 0.58925 0.48815 0.30482 0.0
H699 H 0.60839 0.48657 0.36966 0.0
H700 H 0.54467 0.58188 0.26714 0.0
H701 H 0.41914 0.47669 0.21872 0.0
H702 H 0.43823 0.49593 0.26522 0.0
H703 H 0.50355 0.46515 0.25306 0.0
C704 C 0.51028 0.56489 0.35676 0.0
C705 C 0.5489 0.53622 0.37525 0.0
C706 C 0.4978 0.56547 0.31921 0.0
C707 C 0.52416 0.5375 0.29957 0.0
C708 C 0.56591 0.50957 0.31875 0.0
H709 H 0.59617 0.48873 0.09936 0.0
H710 H 0.5876 0.49311 0.15978 0.0
C711 C 0.5774 0.50879 0.35598 0.0
C712 C 0.50922 0.53748 0.2593 0.0
H713 H 0.45837 0.49163 0.17636 0.0
C714 C 0.52462 0.56246 0.24722 0.0
C715 C 0.48231 0.51234 0.23297 0.0
C716 C 0.45915 0.48625 0.24309 0.0
C717 C 0.51739 0.56196 0.21019 0.0
C718 C 0.49431 0.53582 0.18454 0.0
C719 C 0.47643 0.51155 0.19616 0.0
C720 C 0.49464 0.53172 0.14655 0.0
C721 C 0.53761 0.58845 0.19894 0.0
C722 C 0.4439 0.55132 0.11863 0.0
C723 C 0.44821 0.54858 0.08374 0.0
C724 C 0.50382 0.52648 0.07652 0.0
C725 C 0.55291 0.50608 0.10415 0.0
C726 C 0.54816 0.50857 0.1387 0.0
H727 H 0.55527 0.60699 0.22225 0.0
H728 H 0.5795 0.57701 0.18841 0.0
H729 H 0.49321 0.60134 0.17617 0.0
H730 H 0.40196 0.56923 0.12411 0.0
H731 H 0.4099 0.56477 0.06307 0.0
H732 H 0.60747 0.45527 0.59326 0.0
H733 H 0.62395 0.45332 0.65811 0.0
H734 H 0.53543 0.55779 0.66491 0.0
H735 H 0.51816 0.55978 0.60058 0.0
H736 H 0.6635 0.53688 0.72439 0.0
H737 H 0.47508 0.46222 0.70165 0.0
H738 H 0.53754 0.44576 0.68039 0.0
H739 H 0.47323 0.48265 0.66496 0.0
C740 C 0.59069 0.4777 0.60847 0.0
C741 C 0.56215 0.50779 0.59179 0.0
C742 C 0.60031 0.47658 0.64557 0.0
C743 C 0.58114 0.50547 0.66649 0.0
C744 C 0.55132 0.53526 0.64953 0.0
H745 H 0.48813 0.55997 0.85949 0.0
H746 H 0.49939 0.55083 0.79949 0.0
C747 C 0.54168 0.53637 0.61267 0.0
C748 C 0.59228 0.5053 0.70616 0.0
H749 H 0.53316 0.48126 0.76294 0.0
C750 C 0.63581 0.52431 0.73293 0.0
C751 C 0.55585 0.48905 0.71727 0.0
C752 C 0.50738 0.46889 0.68968 0.0
C753 C 0.64245 0.52815 0.77022 0.0
C754 C 0.60452 0.51268 0.78105 0.0
C755 C 0.56252 0.49293 0.75456 0.0
C756 C 0.60168 0.51957 0.81865 0.0
C757 C 0.68743 0.54992 0.79759 0.0
C758 C 0.65629 0.50559 0.84973 0.0
C759 C 0.65006 0.51082 0.88442 0.0
C760 C 0.58896 0.52997 0.8884 0.0
C761 C 0.53574 0.5449 0.85742 0.0
C762 C 0.54194 0.53964 0.823 0.0
H763 H 0.71124 0.56145 0.78445 0.0
H764 H 0.6567 0.56972 0.81077 0.0
H765 H 0.72891 0.53511 0.81982 0.0
H766 H 0.70284 0.48994 0.84693 0.0
H767 H 0.69172 0.49876 0.90764 0.0
loop_
_geom_bond_atom_site_label_1
_geom_bond_atom_site_label_2
_geom_bond_distance
_geom_bond_site_symmetry_2
_ccdc_geom_bond_type
Eu0 N31 2.657 . S
Eu0 N38 2.609 . S
Eu0 O44 2.558 . S
Eu0 O45 2.612 1_566 S
Eu0 O47 2.339 1_556 S
Eu0 O48 2.563 1_565 S
Eu0 O49 2.419 . S
Eu0 O51 2.380 1_655 S
Eu0 O52 2.432 . S
Eu0 C64 2.848 . S
C1 C4 1.429 . S
C1 C5 1.411 . S
C1 N8 1.377 . S
C2 C4 1.420 . S
C2 C6 1.423 . S
C2 C14 1.392 1_554 S
C3 C5 1.420 . S
C3 C6 1.351 . S
C3 H26 0.931 . S
C4 C1 1.429 . S
C4 C2 1.420 . S
C4 N12 1.362 . S
C5 C1 1.411 . S
C5 C3 1.420 . S
C5 C10 1.395 . S
C6 C2 1.423 . S
C6 C3 1.351 . S
C6 H18 0.930 . S
C7 C9 1.400 . S
C7 C10 1.386 . S
C7 H19 0.930 . S
N8 C1 1.377 . S
N8 C9 1.321 . S
N8 Eu11 2.609 . S
C9 C7 1.400 . S
C9 N8 1.321 . S
C9 H16 0.930 . S
C10 C5 1.395 . S
C10 C7 1.386 . S
C10 H29 0.930 . S
Eu11 N8 2.609 . S
Eu11 N12 2.657 . S
Eu11 O45 2.380 1_455 S
Eu11 O46 2.432 . S
Eu11 O50 2.558 . S
Eu11 O51 2.612 1_544 S
Eu11 O53 2.339 1_554 S
Eu11 O54 2.563 1_545 S
Eu11 O55 2.419 . S
Eu11 C75 2.848 . S
N12 C4 1.362 . S
N12 Eu11 2.657 . S
N12 C13 1.334 1_554 S
C13 N12 1.334 1_556 S
C13 C15 1.413 . S
C13 H20 0.929 . S
C14 C2 1.392 1_556 S
C14 C15 1.367 . S
C14 H22 0.930 . S
C15 C13 1.413 . S
C15 C14 1.367 . S
C15 H17 0.930 1_455 S
H16 C9 0.930 . S
H17 C15 0.930 1_655 S
H18 C6 0.930 . S
H19 C7 0.930 . S
H20 C13 0.929 . S
H21 C35 0.930 1_455 S
H22 C14 0.930 . S
H23 C41 0.930 . S
H24 C32 0.929 . S
H25 C39 0.930 . S
H26 C3 0.931 . S
H27 C33 0.930 . S
H28 C66 0.930 . S
H29 C10 0.930 . S
H30 C65 0.931 . S
N31 Eu0 2.657 . S
N31 C32 1.334 1_556 S
N31 C36 1.362 . S
C32 H24 0.929 . S
C32 N31 1.334 1_554 S
C32 C35 1.413 . S
C33 H27 0.930 . S
C33 C34 1.392 1_554 S
C33 C35 1.367 . S
C34 C33 1.392 1_556 S
C34 C36 1.420 . S
C34 C66 1.423 . S
C35 H21 0.930 1_655 S
C35 C32 1.413 . S
C35 C33 1.367 . S
C36 N31 1.362 . S
C36 C34 1.420 . S
C36 C40 1.429 . S
H37 C42 0.930 . S
N38 Eu0 2.609 . S
N38 C40 1.377 . S
N38 C41 1.321 . S
C39 H25 0.930 . S
C39 C41 1.400 . S
C39 C42 1.386 . S
C40 C36 1.429 . S
C40 N38 1.377 . S
C40 C43 1.411 . S
C41 H23 0.930 . S
C41 N38 1.321 . S
C41 C39 1.400 . S
C42 H37 0.930 . S
C42 C39 1.386 . S
C42 C43 1.395 . S
C43 C40 1.411 . S
C43 C42 1.395 . S
C43 C65 1.420 . S
O44 Eu0 2.558 . S
O44 C64 1.257 . S
O45 Eu0 2.612 1_544 S
O45 Eu11 2.380 1_655 S
O45 C56 1.277 1_554 S
O46 Eu11 2.432 . S
O46 C63 1.271 . S
O47 Eu0 2.339 1_554 S
O47 C63 1.244 1_665 S
O48 Eu0 2.563 1_545 S
O48 C56 1.236 . S
O49 Eu0 2.419 . S
O49 C64 1.249 . S
O50 Eu11 2.558 . S
O50 C75 1.257 . S
O51 Eu0 2.380 1_455 S
O51 Eu11 2.612 1_566 S
O51 C67 1.279 1_556 S
O52 Eu0 2.432 . S
O52 C74 1.264 1_565 S
O53 Eu11 2.339 1_556 S
O53 C74 1.254 1_455 S
O54 Eu11 2.563 1_565 S
O54 C67 1.238 . S
O55 Eu11 2.419 . S
O55 C75 1.249 . S
C56 O45 1.277 1_556 S
C56 O48 1.236 . S
C57 C59 1.390 1_565 S
C57 C61 1.395 . S
C57 C64 1.492 . S
C58 C59 1.392 . S
C58 C60 1.386 1_545 S
C59 C57 1.390 1_545 S
C59 C58 1.392 . S
C59 H76 0.934 1_556 S
C60 C58 1.386 1_565 S
C60 C62 1.395 . S
C60 H77 0.930 1_565 S
C61 C57 1.395 . S
C61 C62 1.379 . S
C61 H78 0.930 . S
C62 C60 1.395 . S
C62 C61 1.379 . S
C62 H79 0.930 . S
C63 O46 1.271 . S
C63 O47 1.244 1_445 S
C64 Eu0 2.848 . S
C64 O44 1.257 . S
C64 O49 1.249 . S
C64 C57 1.492 . S
C65 H30 0.931 . S
C65 C43 1.420 . S
C65 C66 1.351 . S
C66 H28 0.930 . S
C66 C34 1.423 . S
C66 C65 1.351 . S
C67 O51 1.279 1_554 S
C67 O54 1.238 . S
C68 C69 1.393 . S
C68 C72 1.395 . S
C68 C75 1.492 . S
C69 C68 1.393 . S
C69 C70 1.392 1_545 S
C69 H80 0.930 1_544 S
C70 C69 1.392 1_565 S
C70 C71 1.386 1_565 S
C71 C70 1.386 1_545 S
C71 C73 1.395 . S
C71 H81 0.929 . S
C72 C68 1.395 . S
C72 C73 1.379 . S
C72 H82 0.930 . S
C73 C71 1.395 . S
C73 C72 1.379 . S
C73 H83 0.930 . S
C74 O52 1.264 1_545 S
C74 O53 1.254 1_655 S
C75 Eu11 2.848 . S
C75 O50 1.257 . S
C75 O55 1.249 . S
C75 C68 1.492 . S
H76 C59 0.934 1_554 S
H77 C60 0.930 1_545 S
H78 C61 0.930 . S
H79 C62 0.930 . S
H80 C69 0.930 1_566 S
H81 C71 0.929 . S
H82 C72 0.930 . S
H83 C73 0.930 . S
Eu84 N115 2.651 1_655 S
Eu84 N122 2.604 1_655 S
Eu84 O128 2.562 . S
Eu84 O129 2.616 1_565 S
Eu84 O131 2.340 1_655 S
Eu84 O132 2.572 . S
Eu84 O133 2.423 . S
Eu84 O135 2.374 1_655 S
Eu84 O136 2.430 . S
Eu84 C148 2.852 . S
C85 C88 1.429 . S
C85 C89 1.411 . S
C85 N92 1.377 . S
C86 C88 1.420 . S
C86 C90 1.423 . S
C86 C98 1.392 . S
C87 C89 1.420 . S
C87 C90 1.351 . S
C87 H110 0.931 . S
C88 C85 1.429 . S
C88 C86 1.420 . S
C88 N96 1.362 . S
C89 C85 1.411 . S
C89 C87 1.420 . S
C89 C94 1.395 . S
C90 C86 1.423 . S
C90 C87 1.351 . S
C90 H102 0.930 . S
C91 C93 1.400 . S
C91 C94 1.386 . S
C91 H103 0.930 . S
N92 C85 1.377 . S
N92 C93 1.321 . S
N92 Eu95 2.598 1_655 S
C93 C91 1.400 . S
C93 N92 1.321 . S
C93 H100 0.930 1_655 S
C94 C89 1.395 . S
C94 C91 1.386 . S
C94 H113 0.930 . S
Eu95 N92 2.598 1_455 S
Eu95 N96 2.644 1_455 S
Eu95 O129 2.368 1_455 S
Eu95 O130 2.429 . S
Eu95 O134 2.566 . S
Eu95 O135 2.621 1_545 S
Eu95 O137 2.341 1_455 S
Eu95 O138 2.580 . S
Eu95 O139 2.428 . S
Eu95 C159 2.857 . S
N96 C88 1.362 . S
N96 Eu95 2.644 1_655 S
N96 C97 1.334 . S
C97 N96 1.334 . S
C97 C99 1.413 . S
C97 H104 0.929 . S
C98 C86 1.392 . S
C98 C99 1.367 . S
C98 H106 0.930 . S
C99 C97 1.413 . S
C99 C98 1.367 . S
C99 H101 0.930 . S
H100 C93 0.930 1_455 S
H101 C99 0.930 . S
H102 C90 0.930 . S
H103 C91 0.930 . S
H104 C97 0.929 . S
H105 C119 0.930 . S
H106 C98 0.930 . S
H107 C125 0.930 1_655 S
H108 C116 0.929 . S
H109 C123 0.930 . S
H110 C87 0.931 . S
H111 C117 0.930 . S
H112 C150 0.930 . S
H113 C94 0.930 . S
H114 C149 0.931 . S
N115 Eu84 2.651 1_455 S
N115 C116 1.334 . S
N115 C120 1.362 . S
C116 H108 0.929 . S
C116 N115 1.334 . S
C116 C119 1.413 . S
C117 H111 0.930 . S
C117 C118 1.392 . S
C117 C119 1.367 . S
C118 C117 1.392 . S
C118 C120 1.420 . S
C118 C150 1.423 . S
C119 H105 0.930 . S
C119 C116 1.413 . S
C119 C117 1.367 . S
C120 N115 1.362 . S
C120 C118 1.420 . S
C120 C124 1.429 . S
H121 C126 0.930 . S
N122 Eu84 2.604 1_455 S
N122 C124 1.377 . S
N122 C125 1.321 . S
C123 H109 0.930 . S
C123 C125 1.400 . S
C123 C126 1.386 . S
C124 C120 1.429 . S
C124 N122 1.377 . S
C124 C127 1.411 . S
C125 H107 0.930 1_455 S
C125 N122 1.321 . S
C125 C123 1.400 . S
C126 H121 0.930 . S
C126 C123 1.386 . S
C126 C127 1.395 . S
C127 C124 1.411 . S
C127 C126 1.395 . S
C127 C149 1.420 . S
O128 Eu84 2.562 . S
O128 C148 1.257 . S
O129 Eu84 2.616 1_545 S
O129 Eu95 2.368 1_655 S
O129 C140 1.276 1_545 S
O130 Eu95 2.429 . S
O130 C147 1.264 1_545 S
O131 Eu84 2.340 1_455 S
O131 C147 1.254 . S
O132 Eu84 2.572 . S
O132 C140 1.235 . S
O133 Eu84 2.423 . S
O133 C148 1.249 . S
O134 Eu95 2.566 . S
O134 C159 1.257 . S
O135 Eu84 2.374 1_455 S
O135 Eu95 2.621 1_565 S
O135 C151 1.276 1_565 S
O136 Eu84 2.430 . S
O136 C158 1.264 1_565 S
O137 Eu95 2.341 1_655 S
O137 C158 1.254 . S
O138 Eu95 2.580 . S
O138 C151 1.235 . S
O139 Eu95 2.428 . S
O139 C159 1.249 . S
C140 O129 1.276 1_565 S
C140 O132 1.235 . S
C141 C143 1.393 . S
C141 C145 1.395 . S
C141 C148 1.492 . S
C142 C143 1.392 . S
C142 C144 1.386 . S
C143 C141 1.393 . S
C143 C142 1.392 . S
C143 H160 0.930 . S
C144 C142 1.386 . S
C144 C146 1.395 . S
C144 H161 0.930 . S
C145 C141 1.395 . S
C145 C146 1.379 . S
C145 H162 0.930 . S
C146 C144 1.395 . S
C146 C145 1.379 . S
C146 H163 0.930 . S
C147 O130 1.264 1_565 S
C147 O131 1.254 . S
C148 Eu84 2.852 . S
C148 O128 1.257 . S
C148 O133 1.249 . S
C148 C141 1.492 . S
C149 H114 0.931 . S
C149 C127 1.420 . S
C149 C150 1.351 . S
C150 H112 0.930 . S
C150 C118 1.423 . S
C150 C149 1.351 . S
C151 O135 1.276 1_545 S
C151 O138 1.235 . S
C152 C153 1.393 . S
C152 C156 1.395 . S
C152 C159 1.492 . S
C153 C152 1.393 . S
C153 C154 1.392 . S
C153 H164 0.930 . S
C154 C153 1.392 . S
C154 C155 1.386 . S
C155 C154 1.386 . S
C155 C157 1.395 . S
C155 H165 0.930 . S
C156 C152 1.395 . S
C156 C157 1.379 . S
C156 H166 0.930 . S
C157 C155 1.395 . S
C157 C156 1.379 . S
C157 H167 0.930 . S
C158 O136 1.264 1_545 S
C158 O137 1.254 . S
C159 Eu95 2.857 . S
C159 O134 1.257 . S
C159 O139 1.249 . S
C159 C152 1.492 . S
H160 C143 0.930 . S
H161 C144 0.930 . S
H162 C145 0.930 . S
H163 C146 0.930 . S
H164 C153 0.930 . S
H165 C155 0.930 . S
H166 C156 0.930 . S
H167 C157 0.930 . S
Eu168 N199 2.657 . S
Eu168 N206 2.609 . S
Eu168 O212 2.558 . S
Eu168 O213 2.612 1_556 S
Eu168 O215 2.339 1_556 S
Eu168 O216 2.563 . S
Eu168 O217 2.419 . S
Eu168 O219 2.380 . S
Eu168 O220 2.432 . S
Eu168 C232 2.848 . S
C169 C172 1.429 . S
C169 C173 1.411 . S
C169 N176 1.377 . S
C170 C172 1.420 . S
C170 C174 1.423 . S
C170 C182 1.392 1_554 S
C171 C173 1.420 . S
C171 C174 1.351 . S
C171 H194 0.931 . S
C172 C169 1.429 . S
C172 C170 1.420 . S
C172 N180 1.362 . S
C173 C169 1.411 . S
C173 C171 1.420 . S
C173 C178 1.395 . S
C174 C170 1.423 . S
C174 C171 1.351 . S
C174 H186 0.930 . S
C175 C177 1.400 . S
C175 C178 1.386 . S
C175 H187 0.930 . S
N176 C169 1.377 . S
N176 C177 1.321 . S
N176 Eu179 2.609 . S
C177 C175 1.400 . S
C177 N176 1.321 . S
C177 H184 0.930 . S
C178 C173 1.395 . S
C178 C175 1.386 . S
C178 H197 0.930 . S
Eu179 N176 2.609 . S
Eu179 N180 2.657 . S
Eu179 O213 2.380 . S
Eu179 O214 2.432 . S
Eu179 O218 2.558 . S
Eu179 O219 2.612 1_554 S
Eu179 O221 2.339 1_554 S
Eu179 O222 2.563 . S
Eu179 O223 2.419 . S
Eu179 C243 2.848 . S
N180 C172 1.362 . S
N180 Eu179 2.657 . S
N180 C181 1.334 1_554 S
C181 N180 1.334 1_556 S
C181 C183 1.413 . S
C181 H188 0.929 . S
C182 C170 1.392 1_556 S
C182 C183 1.367 . S
C182 H190 0.930 . S
C183 C181 1.413 . S
C183 C182 1.367 . S
C183 H185 0.930 . S
H184 C177 0.930 . S
H185 C183 0.930 . S
H186 C174 0.930 . S
H187 C175 0.930 . S
H188 C181 0.929 . S
H189 C203 0.930 . S
H190 C182 0.930 . S
H191 C209 0.930 . S
H192 C200 0.929 . S
H193 C207 0.930 . S
H194 C171 0.931 . S
H195 C201 0.930 . S
H196 C234 0.930 . S
H197 C178 0.930 . S
H198 C233 0.931 . S
N199 Eu168 2.657 . S
N199 C200 1.334 1_556 S
N199 C204 1.362 . S
C200 H192 0.929 . S
C200 N199 1.334 1_554 S
C200 C203 1.413 . S
C201 H195 0.930 . S
C201 C202 1.392 1_554 S
C201 C203 1.367 . S
C202 C201 1.392 1_556 S
C202 C204 1.420 . S
C202 C234 1.423 . S
C203 H189 0.930 . S
C203 C200 1.413 . S
C203 C201 1.367 . S
C204 N199 1.362 . S
C204 C202 1.420 . S
C204 C208 1.429 . S
H205 C210 0.930 . S
N206 Eu168 2.609 . S
N206 C208 1.377 . S
N206 C209 1.321 . S
C207 H193 0.930 . S
C207 C209 1.400 . S
C207 C210 1.386 . S
C208 C204 1.429 . S
C208 N206 1.377 . S
C208 C211 1.411 . S
C209 H191 0.930 . S
C209 N206 1.321 . S
C209 C207 1.400 . S
C210 H205 0.930 . S
C210 C207 1.386 . S
C210 C211 1.395 . S
C211 C208 1.411 . S
C211 C210 1.395 . S
C211 C233 1.420 . S
O212 Eu168 2.558 . S
O212 C232 1.257 . S
O213 Eu168 2.612 1_554 S
O213 Eu179 2.380 . S
O213 C224 1.277 1_554 S
O214 Eu179 2.432 . S
O214 C231 1.264 . S
O215 Eu168 2.339 1_554 S
O215 C231 1.254 . S
O216 Eu168 2.563 . S
O216 C224 1.236 . S
O217 Eu168 2.419 . S
O217 C232 1.249 . S
O218 Eu179 2.558 . S
O218 C243 1.257 . S
O219 Eu168 2.380 . S
O219 Eu179 2.612 1_556 S
O219 C235 1.279 1_556 S
O220 Eu168 2.432 . S
O220 C242 1.264 . S
O221 Eu179 2.339 1_556 S
O221 C242 1.254 . S
O222 Eu179 2.563 . S
O222 C235 1.238 . S
O223 Eu179 2.419 . S
O223 C243 1.249 . S
C224 O213 1.277 1_556 S
C224 O216 1.236 . S
C225 C227 1.393 . S
C225 C229 1.395 . S
C225 C232 1.492 . S
C226 C227 1.392 . S
C226 C228 1.386 . S
C227 C225 1.393 . S
C227 C226 1.392 . S
C227 H244 0.930 1_556 S
C228 C226 1.386 . S
C228 C230 1.395 . S
C228 H245 0.930 . S
C229 C225 1.395 . S
C229 C230 1.379 . S
C229 H246 0.930 . S
C230 C228 1.395 . S
C230 C229 1.379 . S
C230 H247 0.930 . S
C231 O214 1.264 . S
C231 O215 1.254 . S
C232 Eu168 2.848 . S
C232 O212 1.257 . S
C232 O217 1.249 . S
C232 C225 1.492 . S
C233 H198 0.931 . S
C233 C211 1.420 . S
C233 C234 1.351 . S
C234 H196 0.930 . S
C234 C202 1.423 . S
C234 C233 1.351 . S
C235 O219 1.279 1_554 S
C235 O222 1.238 . S
C236 C237 1.393 . S
C236 C240 1.395 . S
C236 C243 1.492 . S
C237 C236 1.393 . S
C237 C238 1.392 . S
C237 H248 0.930 1_554 S
C238 C237 1.392 . S
C238 C239 1.386 . S
C239 C238 1.386 . S
C239 C241 1.395 . S
C239 H249 0.930 . S
C240 C236 1.395 . S
C240 C241 1.379 . S
C240 H250 0.930 . S
C241 C239 1.395 . S
C241 C240 1.379 . S
C241 H251 0.930 . S
C242 O220 1.264 . S
C242 O221 1.254 . S
C243 Eu179 2.848 . S
C243 O218 1.257 . S
C243 O223 1.249 . S
C243 C236 1.492 . S
H244 C227 0.930 1_554 S
H245 C228 0.930 . S
H246 C229 0.930 . S
H247 C230 0.930 . S
H248 C237 0.930 1_556 S
H249 C239 0.930 . S
H250 C240 0.930 . S
H251 C241 0.930 . S
Eu252 N283 2.657 . S
Eu252 N290 2.609 . S
Eu252 O296 2.558 . S
Eu252 O297 2.612 . S
Eu252 O299 2.339 . S
Eu252 O300 2.563 . S
Eu252 O301 2.419 . S
Eu252 O303 2.380 . S
Eu252 O304 2.432 . S
Eu252 C316 2.848 . S
C253 C256 1.429 . S
C253 C257 1.411 . S
C253 N260 1.377 . S
C254 C256 1.420 . S
C254 C258 1.423 . S
C254 C266 1.392 . S
C255 C257 1.420 . S
C255 C258 1.351 . S
C255 H278 0.931 . S
C256 C253 1.429 . S
C256 C254 1.420 . S
C256 N264 1.362 . S
C257 C253 1.411 . S
C257 C255 1.420 . S
C257 C262 1.395 . S
C258 C254 1.423 . S
C258 C255 1.351 . S
C258 H270 0.930 . S
C259 C261 1.400 . S
C259 C262 1.386 . S
C259 H271 0.930 . S
N260 C253 1.377 . S
N260 C261 1.321 . S
N260 Eu263 2.609 . S
C261 C259 1.400 . S
C261 N260 1.321 . S
C261 H268 0.930 . S
C262 C257 1.395 . S
C262 C259 1.386 . S
C262 H281 0.930 . S
Eu263 N260 2.609 . S
Eu263 N264 2.657 . S
Eu263 O297 2.380 . S
Eu263 O298 2.432 . S
Eu263 O302 2.558 . S
Eu263 O303 2.612 . S
Eu263 O305 2.339 . S
Eu263 O306 2.563 . S
Eu263 O307 2.419 . S
Eu263 C327 2.848 . S
N264 C256 1.362 . S
N264 Eu263 2.657 . S
N264 C265 1.334 . S
C265 N264 1.334 . S
C265 C267 1.413 . S
C265 H272 0.929 . S
C266 C254 1.392 . S
C266 C267 1.367 . S
C266 H274 0.930 . S
C267 C265 1.413 . S
C267 C266 1.367 . S
C267 H269 0.930 . S
H268 C261 0.930 . S
H269 C267 0.930 . S
H270 C258 0.930 . S
H271 C259 0.930 . S
H272 C265 0.929 . S
H273 C287 0.930 . S
H274 C266 0.930 . S
H275 C293 0.930 . S
H276 C284 0.929 . S
H277 C291 0.930 . S
H278 C255 0.931 . S
H279 C285 0.930 . S
H280 C318 0.930 . S
H281 C262 0.930 . S
H282 C317 0.931 . S
N283 Eu252 2.657 . S
N283 C284 1.334 . S
N283 C288 1.362 . S
C284 H276 0.929 . S
C284 N283 1.334 . S
C284 C287 1.413 . S
C285 H279 0.930 . S
C285 C286 1.392 . S
C285 C287 1.367 . S
C286 C285 1.392 . S
C286 C288 1.420 . S
C286 C318 1.423 . S
C287 H273 0.930 . S
C287 C284 1.413 . S
C287 C285 1.367 . S
C288 N283 1.362 . S
C288 C286 1.420 . S
C288 C292 1.429 . S
H289 C294 0.930 . S
N290 Eu252 2.609 . S
N290 C292 1.377 . S
N290 C293 1.321 . S
C291 H277 0.930 . S
C291 C293 1.400 . S
C291 C294 1.386 . S
C292 C288 1.429 . S
C292 N290 1.377 . S
C292 C295 1.411 . S
C293 H275 0.930 . S
C293 N290 1.321 . S
C293 C291 1.400 . S
C294 H289 0.930 . S
C294 C291 1.386 . S
C294 C295 1.395 . S
C295 C292 1.411 . S
C295 C294 1.395 . S
C295 C317 1.420 . S
O296 Eu252 2.558 . S
O296 C316 1.257 . S
O297 Eu252 2.612 . S
O297 Eu263 2.380 . S
O297 C308 1.276 . S
O298 Eu263 2.432 . S
O298 C315 1.264 . S
O299 Eu252 2.339 . S
O299 C315 1.254 . S
O300 Eu252 2.563 . S
O300 C308 1.235 . S
O301 Eu252 2.419 . S
O301 C316 1.249 . S
O302 Eu263 2.558 . S
O302 C327 1.257 . S
O303 Eu252 2.380 . S
O303 Eu263 2.612 . S
O303 C319 1.276 . S
O304 Eu252 2.432 . S
O304 C326 1.264 . S
O305 Eu263 2.339 . S
O305 C326 1.254 . S
O306 Eu263 2.563 . S
O306 C319 1.235 . S
O307 Eu263 2.419 . S
O307 C327 1.249 . S
C308 O297 1.276 . S
C308 O300 1.235 . S
C309 C311 1.393 . S
C309 C313 1.395 . S
C309 C316 1.492 . S
C310 C311 1.392 . S
C310 C312 1.386 . S
C311 C309 1.393 . S
C311 C310 1.392 . S
C311 H328 0.930 . S
C312 C310 1.386 . S
C312 C314 1.395 . S
C312 H329 0.930 . S
C313 C309 1.395 . S
C313 C314 1.379 . S
C313 H330 0.930 . S
C314 C312 1.395 . S
C314 C313 1.379 . S
C314 H331 0.930 . S
C315 O298 1.264 . S
C315 O299 1.254 . S
C316 Eu252 2.848 . S
C316 O296 1.257 . S
C316 O301 1.249 . S
C316 C309 1.492 . S
C317 H282 0.931 . S
C317 C295 1.420 . S
C317 C318 1.351 . S
C318 H280 0.930 . S
C318 C286 1.423 . S
C318 C317 1.351 . S
C319 O303 1.276 . S
C319 O306 1.235 . S
C320 C321 1.393 . S
C320 C324 1.395 . S
C320 C327 1.492 . S
C321 C320 1.393 . S
C321 C322 1.392 . S
C321 H332 0.930 . S
C322 C321 1.392 . S
C322 C323 1.386 . S
C323 C322 1.386 . S
C323 C325 1.395 . S
C323 H333 0.930 . S
C324 C320 1.395 . S
C324 C325 1.379 . S
C324 H334 0.930 . S
C325 C323 1.395 . S
C325 C324 1.379 . S
C325 H335 0.930 . S
C326 O304 1.264 . S
C326 O305 1.254 . S
C327 Eu263 2.848 . S
C327 O302 1.257 . S
C327 O307 1.249 . S
C327 C320 1.492 . S
H328 C311 0.930 . S
H329 C312 0.930 . S
H330 C313 0.930 . S
H331 C314 0.930 . S
H332 C321 0.930 . S
H333 C323 0.930 . S
H334 C324 0.930 . S
H335 C325 0.930 . S
H336 C344 0.929 . S
H337 C346 0.930 . S
H338 C348 0.930 . S
H339 C351 0.929 . S
H340 C354 0.930 . S
H341 C356 0.960 . S
H342 C356 0.960 1_554 S
H343 C356 0.960 . S
C344 H336 0.929 . S
C344 C345 1.377 . S
C344 C346 1.384 . S
C345 C344 1.377 . S
C345 C351 1.390 1_554 S
C346 H337 0.930 . S
C346 C344 1.384 . S
C346 C347 1.372 . S
C347 C346 1.372 . S
C347 C348 1.400 1_554 S
C347 C352 1.490 . S
C348 H338 0.930 . S
C348 C347 1.400 1_556 S
C348 C351 1.386 . S
H349 C365 0.930 . S
H350 C366 0.931 . S
C351 H339 0.929 . S
C351 C345 1.390 1_556 S
C351 C348 1.386 . S
C352 C347 1.490 . S
C352 C354 1.395 . S
C352 C355 1.403 1_554 S
H353 C359 0.930 . S
C354 H340 0.930 . S
C354 C352 1.395 . S
C354 C357 1.403 . S
C355 C352 1.403 1_556 S
C355 C356 1.524 . S
C355 C359 1.400 . S
C356 H341 0.960 . S
C356 H342 0.960 1_556 S
C356 H343 0.960 . S
C356 C355 1.524 . S
C357 C354 1.403 . S
C357 C358 1.392 . S
C357 C361 1.495 . S
C358 C357 1.392 . S
C358 C359 1.385 1_554 S
C358 C360 1.477 . S
C359 H353 0.930 . S
C359 C355 1.400 . S
C359 C358 1.385 1_556 S
C360 C358 1.477 . S
C360 C362 1.389 . S
C360 C366 1.375 1_554 S
C361 C357 1.495 . S
C361 H367 0.959 . S
C361 H368 0.961 . S
C361 H369 0.960 . S
C362 C360 1.389 . S
C362 C363 1.394 . S
C362 H370 0.930 . S
C363 C362 1.394 . S
C363 C364 1.383 1_554 S
C363 H371 0.929 . S
C364 C363 1.383 1_556 S
C364 C365 1.377 . S
C365 H349 0.930 . S
C365 C364 1.377 . S
C365 C366 1.379 . S
C366 H350 0.931 . S
C366 C360 1.375 1_556 S
C366 C365 1.379 . S
H367 C361 0.959 . S
H368 C361 0.961 . S
H369 C361 0.960 . S
H370 C362 0.930 . S
H371 C363 0.929 . S
H372 C380 0.929 . S
H373 C382 0.930 . S
H374 C384 0.930 . S
H375 C387 0.929 . S
H376 C390 0.930 . S
H377 C392 0.960 . S
H378 C392 0.960 . S
H379 C392 0.960 1_554 S
C380 H372 0.929 . S
C380 C381 1.377 . S
C380 C382 1.384 . S
C381 C380 1.377 . S
C381 C387 1.390 1_556 S
C382 H373 0.930 . S
C382 C380 1.384 . S
C382 C383 1.372 . S
C383 C382 1.372 . S
C383 C384 1.400 1_556 S
C383 C388 1.490 . S
C384 H374 0.930 . S
C384 C383 1.400 1_554 S
C384 C387 1.386 . S
H385 C401 0.930 . S
H386 C402 0.931 . S
C387 H375 0.929 . S
C387 C381 1.390 1_554 S
C387 C384 1.386 . S
C388 C383 1.490 . S
C388 C390 1.395 1_556 S
C388 C391 1.403 . S
H389 C395 0.930 . S
C390 H376 0.930 . S
C390 C388 1.395 1_554 S
C390 C393 1.403 . S
C391 C388 1.403 . S
C391 C392 1.524 . S
C391 C395 1.400 . S
C392 H377 0.960 . S
C392 H378 0.960 . S
C392 H379 0.960 1_556 S
C392 C391 1.524 . S
C393 C390 1.403 . S
C393 C394 1.392 . S
C393 C397 1.495 . S
C394 C393 1.392 . S
C394 C395 1.385 1_554 S
C394 C396 1.478 . S
C395 H389 0.930 . S
C395 C391 1.400 . S
C395 C394 1.385 1_556 S
C396 C394 1.478 . S
C396 C398 1.381 1_554 S
C396 C402 1.383 . S
C397 C393 1.495 . S
C397 H403 0.959 . S
C397 H404 0.961 . S
C397 H405 0.960 1_554 S
C398 C396 1.381 1_556 S
C398 C399 1.394 . S
C398 H406 0.930 . S
C399 C398 1.394 . S
C399 C400 1.383 1_556 S
C399 H407 0.929 . S
C400 C399 1.383 1_554 S
C400 C401 1.377 . S
C401 H385 0.930 . S
C401 C400 1.377 . S
C401 C402 1.379 . S
C402 H386 0.931 . S
C402 C396 1.383 . S
C402 C401 1.379 . S
H403 C397 0.959 . S
H404 C397 0.961 . S
H405 C397 0.960 1_556 S
H406 C398 0.930 . S
H407 C399 0.929 . S
H408 C416 0.929 . S
H409 C418 0.930 . S
H410 C420 0.930 . S
H411 C423 0.929 . S
H412 C426 0.930 . S
H413 C428 0.960 . S
H414 C428 0.960 . S
H415 C428 0.960 . S
C416 H408 0.929 . S
C416 C417 1.377 . S
C416 C418 1.384 . S
C417 C416 1.377 . S
C417 C423 1.390 . S
C418 H409 0.930 . S
C418 C416 1.384 . S
C418 C419 1.372 . S
C419 C418 1.372 . S
C419 C420 1.400 . S
C419 C424 1.490 . S
C420 H410 0.930 . S
C420 C419 1.400 . S
C420 C423 1.386 . S
H421 C437 0.930 . S
H422 C438 0.931 . S
C423 H411 0.929 . S
C423 C417 1.390 . S
C423 C420 1.386 . S
C424 C419 1.490 . S
C424 C426 1.395 . S
C424 C427 1.403 . S
H425 C431 0.930 . S
C426 H412 0.930 . S
C426 C424 1.395 . S
C426 C429 1.403 . S
C427 C424 1.403 . S
C427 C428 1.524 . S
C427 C431 1.400 . S
C428 H413 0.960 . S
C428 H414 0.960 . S
C428 H415 0.960 . S
C428 C427 1.524 . S
C429 C426 1.403 . S
C429 C430 1.392 . S
C429 C433 1.495 . S
C430 C429 1.392 . S
C430 C431 1.385 . S
C430 C432 1.478 . S
C431 H425 0.930 . S
C431 C427 1.400 . S
C431 C430 1.385 . S
C432 C430 1.478 . S
C432 C434 1.381 . S
C432 C438 1.383 . S
C433 C429 1.495 . S
C433 H439 0.959 . S
C433 H440 0.961 . S
C433 H441 0.960 . S
C434 C432 1.381 . S
C434 C435 1.394 . S
C434 H442 0.930 . S
C435 C434 1.394 . S
C435 C436 1.383 . S
C435 H443 0.929 . S
C436 C435 1.383 . S
C436 C437 1.377 . S
C437 H421 0.930 . S
C437 C436 1.377 . S
C437 C438 1.379 . S
C438 H422 0.931 . S
C438 C432 1.383 . S
C438 C437 1.379 . S
H439 C433 0.959 . S
H440 C433 0.961 . S
H441 C433 0.960 . S
H442 C434 0.930 . S
H443 C435 0.929 . S
H444 C452 0.929 . S
H445 C454 0.930 . S
H446 C456 0.930 . S
H447 C459 0.929 . S
H448 C462 0.930 . S
H449 C464 0.960 . S
H450 C464 0.960 . S
H451 C464 0.960 . S
C452 H444 0.929 . S
C452 C453 1.377 . S
C452 C454 1.384 . S
C453 C452 1.377 . S
C453 C459 1.390 . S
C454 H445 0.930 . S
C454 C452 1.384 . S
C454 C455 1.372 . S
C455 C454 1.372 . S
C455 C456 1.400 . S
C455 C460 1.490 . S
C456 H446 0.930 . S
C456 C455 1.400 . S
C456 C459 1.386 . S
H457 C473 0.930 . S
H458 C474 0.931 . S
C459 H447 0.929 . S
C459 C453 1.390 . S
C459 C456 1.386 . S
C460 C455 1.490 . S
C460 C462 1.395 . S
C460 C463 1.403 . S
H461 C467 0.930 . S
C462 H448 0.930 . S
C462 C460 1.395 . S
C462 C465 1.403 . S
C463 C460 1.403 . S
C463 C464 1.524 . S
C463 C467 1.400 . S
C464 H449 0.960 . S
C464 H450 0.960 . S
C464 H451 0.960 . S
C464 C463 1.524 . S
C465 C462 1.403 . S
C465 C466 1.392 . S
C465 C469 1.495 . S
C466 C465 1.392 . S
C466 C467 1.385 . S
C466 C468 1.478 . S
C467 H461 0.930 . S
C467 C463 1.400 . S
C467 C466 1.385 . S
C468 C466 1.478 . S
C468 C470 1.381 . S
C468 C474 1.383 . S
C469 C465 1.495 . S
C469 H475 0.959 . S
C469 H476 0.961 . S
C469 H477 0.960 . S
C470 C468 1.381 . S
C470 C471 1.394 . S
C470 H478 0.930 . S
C471 C470 1.394 . S
C471 C472 1.383 . S
C471 H479 0.929 . S
C472 C471 1.383 . S
C472 C473 1.377 . S
C473 H457 0.930 . S
C473 C472 1.377 . S
C473 C474 1.379 . S
C474 H458 0.931 . S
C474 C468 1.383 . S
C474 C473 1.379 . S
H475 C469 0.959 . S
H476 C469 0.961 . S
H477 C469 0.960 . S
H478 C470 0.930 . S
H479 C471 0.929 . S
H480 C488 0.929 . S
H481 C490 0.930 . S
H482 C492 0.930 . S
H483 C495 0.929 . S
H484 C498 0.930 . S
H485 C500 0.960 . S
H486 C500 0.960 . S
H487 C500 0.960 1_565 S
C488 H480 0.929 . S
C488 C489 1.377 1_545 S
C488 C490 1.384 . S
C489 C488 1.377 1_565 S
C489 C495 1.390 1_554 S
C490 H481 0.930 . S
C490 C488 1.384 . S
C490 C491 1.372 1_545 S
C491 C490 1.372 1_565 S
C491 C492 1.400 1_554 S
C491 C496 1.490 . S
C492 H482 0.930 . S
C492 C491 1.400 1_556 S
C492 C495 1.386 . S
H493 C509 0.930 . S
H494 C510 0.931 . S
C495 H483 0.929 . S
C495 C489 1.390 1_556 S
C495 C492 1.386 . S
C496 C491 1.490 . S
C496 C498 1.395 . S
C496 C499 1.403 1_564 S
H497 C503 0.930 . S
C498 H484 0.930 . S
C498 C496 1.395 . S
C498 C501 1.403 . S
C499 C496 1.403 1_546 S
C499 C500 1.524 . S
C499 C503 1.400 . S
C500 H485 0.960 . S
C500 H486 0.960 . S
C500 H487 0.960 1_545 S
C500 C499 1.524 . S
C501 C498 1.403 . S
C501 C502 1.392 1_565 S
C501 C505 1.495 . S
C502 C501 1.392 1_545 S
C502 C503 1.385 1_554 S
C502 C504 1.478 . S
C503 H497 0.930 . S
C503 C499 1.400 . S
C503 C502 1.385 1_556 S
C504 C502 1.478 . S
C504 C506 1.381 . S
C504 C510 1.383 1_544 S
C505 C501 1.495 . S
C505 H511 0.959 . S
C505 H512 0.961 . S
C505 H513 0.960 1_565 S
C506 C504 1.381 . S
C506 C507 1.394 . S
C506 H514 0.930 . S
C507 C506 1.394 . S
C507 C508 1.383 1_554 S
C507 H515 0.929 . S
C508 C507 1.383 1_556 S
C508 C509 1.377 1_545 S
C509 H493 0.930 . S
C509 C508 1.377 1_565 S
C509 C510 1.379 . S
C510 H494 0.931 . S
C510 C504 1.383 1_566 S
C510 C509 1.379 . S
H511 C505 0.959 . S
H512 C505 0.961 . S
H513 C505 0.960 1_545 S
H514 C506 0.930 . S
H515 C507 0.929 . S
H516 C524 0.929 . S
H517 C526 0.930 . S
H518 C528 0.930 . S
H519 C531 0.929 . S
H520 C534 0.930 . S
H521 C536 0.960 . S
H522 C536 0.960 . S
H523 C536 0.960 . S
C524 H516 0.929 . S
C524 C525 1.377 1_545 S
C524 C526 1.384 . S
C525 C524 1.377 1_565 S
C525 C531 1.390 . S
C526 H517 0.930 . S
C526 C524 1.384 . S
C526 C527 1.370 1_545 S
C527 C526 1.370 1_565 S
C527 C528 1.406 . S
C527 C532 1.488 . S
C528 H518 0.930 . S
C528 C527 1.406 . S
C528 C531 1.386 . S
H529 C545 0.930 . S
H530 C546 0.931 . S
C531 H519 0.929 . S
C531 C525 1.390 . S
C531 C528 1.386 . S
C532 C527 1.488 . S
C532 C534 1.402 . S
C532 C535 1.393 1_565 S
H533 C539 0.930 . S
C534 H520 0.930 . S
C534 C532 1.402 . S
C534 C537 1.403 . S
C535 C532 1.393 1_545 S
C535 C536 1.524 . S
C535 C539 1.400 . S
C536 H521 0.960 . S
C536 H522 0.960 . S
C536 H523 0.960 . S
C536 C535 1.524 . S
C537 C534 1.403 . S
C537 C538 1.392 . S
C537 C541 1.495 . S
C538 C537 1.392 . S
C538 C539 1.385 1_565 S
C538 C540 1.478 . S
C539 H533 0.930 . S
C539 C535 1.400 . S
C539 C538 1.385 1_545 S
C540 C538 1.478 . S
C540 C542 1.381 1_565 S
C540 C546 1.383 . S
C541 C537 1.495 . S
C541 H547 0.959 . S
C541 H548 0.961 . S
C541 H549 0.960 . S
C542 C540 1.381 1_545 S
C542 C543 1.394 . S
C542 H550 0.930 . S
C543 C542 1.394 . S
C543 C544 1.383 . S
C543 H551 0.929 . S
C544 C543 1.383 . S
C544 C545 1.377 1_545 S
C545 H529 0.930 . S
C545 C544 1.377 1_565 S
C545 C546 1.379 . S
C546 H530 0.931 . S
C546 C540 1.383 . S
C546 C545 1.379 . S
H547 C541 0.959 . S
H548 C541 0.961 . S
H549 C541 0.960 . S
H550 C542 0.930 . S
H551 C543 0.929 . S
H552 C560 0.929 . S
H553 C562 0.930 . S
H554 C564 0.930 . S
H555 C567 0.929 . S
H556 C570 0.930 . S
H557 C572 0.960 . S
H558 C572 0.960 . S
H559 C572 0.960 . S
C560 H552 0.929 . S
C560 C561 1.377 . S
C560 C562 1.384 . S
C561 C560 1.377 . S
C561 C567 1.390 1_554 S
C562 H553 0.930 . S
C562 C560 1.384 . S
C562 C563 1.372 . S
C563 C562 1.372 . S
C563 C564 1.400 1_554 S
C563 C568 1.490 . S
C564 H554 0.930 . S
C564 C563 1.400 1_556 S
C564 C567 1.386 . S
H565 C581 0.930 . S
H566 C582 0.931 . S
C567 H555 0.929 . S
C567 C561 1.390 1_556 S
C567 C564 1.386 . S
C568 C563 1.490 . S
C568 C570 1.395 1_655 S
C568 C571 1.403 1_554 S
H569 C575 0.930 . S
C570 H556 0.930 . S
C570 C568 1.395 1_455 S
C570 C573 1.403 . S
C571 C568 1.403 1_556 S
C571 C572 1.524 . S
C571 C575 1.400 1_655 S
C572 H557 0.960 . S
C572 H558 0.960 . S
C572 H559 0.960 . S
C572 C571 1.524 . S
C573 C570 1.403 . S
C573 C574 1.392 . S
C573 C577 1.495 . S
C574 C573 1.392 . S
C574 C575 1.385 1_554 S
C574 C576 1.478 . S
C575 H569 0.930 . S
C575 C571 1.400 1_455 S
C575 C574 1.385 1_556 S
C576 C574 1.478 . S
C576 C578 1.381 . S
C576 C582 1.383 1_554 S
C577 C573 1.495 . S
C577 H583 0.959 . S
C577 H584 0.961 . S
C577 H585 0.960 . S
C578 C576 1.381 . S
C578 C579 1.394 . S
C578 H586 0.930 . S
C579 C578 1.394 . S
C579 C580 1.383 1_554 S
C579 H587 0.929 . S
C580 C579 1.383 1_556 S
C580 C581 1.377 . S
C581 H565 0.930 . S
C581 C580 1.377 . S
C581 C582 1.379 . S
C582 H566 0.931 . S
C582 C576 1.383 1_556 S
C582 C581 1.379 . S
H583 C577 0.959 . S
H584 C577 0.961 . S
H585 C577 0.960 . S
H586 C578 0.930 . S
H587 C579 0.929 . S
H588 C596 0.929 . S
H589 C598 0.930 . S
H590 C600 0.930 . S
H591 C603 0.929 . S
H592 C606 0.930 . S
H593 C608 0.960 . S
H594 C608 0.960 1_455 S
H595 C608 0.960 1_455 S
C596 H588 0.929 . S
C596 C597 1.377 . S
C596 C598 1.384 . S
C597 C596 1.377 . S
C597 C603 1.390 . S
C598 H589 0.930 . S
C598 C596 1.384 . S
C598 C599 1.372 . S
C599 C598 1.372 . S
C599 C600 1.400 . S
C599 C604 1.490 . S
C600 H590 0.930 . S
C600 C599 1.400 . S
C600 C603 1.386 . S
H601 C617 0.930 . S
H602 C618 0.931 . S
C603 H591 0.929 . S
C603 C597 1.390 . S
C603 C600 1.386 . S
C604 C599 1.490 . S
C604 C606 1.395 . S
C604 C607 1.400 1_455 S
H605 C611 0.930 . S
C606 H592 0.930 . S
C606 C604 1.395 . S
C606 C609 1.403 . S
C607 C604 1.400 1_655 S
C607 C608 1.522 . S
C607 C611 1.404 . S
C608 H593 0.960 . S
C608 H594 0.960 1_655 S
C608 H595 0.960 1_655 S
C608 C607 1.522 . S
C609 C606 1.403 . S
C609 C610 1.392 1_455 S
C609 C613 1.495 . S
C610 C609 1.392 1_655 S
C610 C611 1.385 . S
C610 C612 1.478 . S
C611 H605 0.930 . S
C611 C607 1.404 . S
C611 C610 1.385 . S
C612 C610 1.478 . S
C612 C614 1.381 . S
C612 C618 1.383 . S
C613 C609 1.495 . S
C613 H619 0.959 . S
C613 H620 0.961 1_455 S
C613 H621 0.960 1_455 S
C614 C612 1.381 . S
C614 C615 1.394 . S
C614 H622 0.930 . S
C615 C614 1.394 . S
C615 C616 1.383 . S
C615 H623 0.929 . S
C616 C615 1.383 . S
C616 C617 1.377 . S
C617 H601 0.930 . S
C617 C616 1.377 . S
C617 C618 1.379 . S
C618 H602 0.931 . S
C618 C612 1.383 . S
C618 C617 1.379 . S
H619 C613 0.959 . S
H620 C613 0.961 1_655 S
H621 C613 0.960 1_655 S
H622 C614 0.930 . S
H623 C615 0.929 . S
H624 C632 0.929 . S
H625 C634 0.930 . S
H626 C636 0.930 . S
H627 C639 0.929 . S
H628 C642 0.930 . S
H629 C644 0.960 . S
H630 C644 0.960 . S
H631 C644 0.960 . S
C632 H624 0.929 . S
C632 C633 1.377 1_465 S
C632 C634 1.384 . S
C633 C632 1.377 1_645 S
C633 C639 1.390 . S
C634 H625 0.930 . S
C634 C632 1.384 . S
C634 C635 1.372 1_465 S
C635 C634 1.372 1_645 S
C635 C636 1.400 . S
C635 C640 1.490 . S
C636 H626 0.930 . S
C636 C635 1.400 . S
C636 C639 1.386 . S
H637 C653 0.930 . S
H638 C654 0.931 . S
C639 H627 0.929 . S
C639 C633 1.390 . S
C639 C636 1.386 . S
C640 C635 1.490 . S
C640 C642 1.395 1_545 S
C640 C643 1.403 1_655 S
H641 C647 0.930 . S
C642 H628 0.930 . S
C642 C640 1.395 1_565 S
C642 C645 1.403 . S
C643 C640 1.403 1_455 S
C643 C644 1.524 . S
C643 C647 1.400 . S
C644 H629 0.960 . S
C644 H630 0.960 . S
C644 H631 0.960 . S
C644 C643 1.524 . S
C645 C642 1.403 . S
C645 C646 1.392 1_565 S
C645 C649 1.495 . S
C646 C645 1.392 1_545 S
C646 C647 1.385 1_655 S
C646 C648 1.478 . S
C647 H641 0.930 . S
C647 C643 1.400 . S
C647 C646 1.385 1_455 S
C648 C646 1.478 . S
C648 C650 1.381 1_645 S
C648 C654 1.383 . S
C649 C645 1.495 . S
C649 H655 0.959 . S
C649 H656 0.961 . S
C649 H657 0.960 . S
C650 C648 1.381 1_465 S
C650 C651 1.394 . S
C650 H658 0.930 . S
C651 C650 1.394 . S
C651 C652 1.383 1_465 S
C651 H659 0.929 . S
C652 C651 1.383 1_645 S
C652 C653 1.377 . S
C653 H637 0.930 . S
C653 C652 1.377 . S
C653 C654 1.379 . S
C654 H638 0.931 . S
C654 C648 1.383 . S
C654 C653 1.379 . S
H655 C649 0.959 . S
H656 C649 0.961 . S
H657 C649 0.960 . S
H658 C650 0.930 . S
H659 C651 0.929 . S
H660 C668 0.929 . S
H661 C670 0.930 . S
H662 C672 0.930 . S
H663 C675 0.929 . S
H664 C678 0.929 . S
H665 C680 0.960 . S
H666 C680 0.960 1_545 S
H667 C680 0.960 . S
C668 H660 0.929 . S
C668 C669 1.377 1_545 S
C668 C670 1.384 . S
C669 C668 1.377 1_565 S
C669 C675 1.390 1_455 S
C670 H661 0.930 . S
C670 C668 1.384 . S
C670 C671 1.372 1_545 S
C671 C670 1.372 1_565 S
C671 C672 1.400 1_455 S
C671 C676 1.490 . S
C672 H662 0.930 . S
C672 C671 1.400 1_655 S
C672 C675 1.386 . S
H673 C689 0.929 1_655 S
H674 C690 0.931 . S
C675 H663 0.929 . S
C675 C669 1.390 1_655 S
C675 C672 1.386 . S
C676 C671 1.490 . S
C676 C678 1.395 . S
C676 C679 1.403 1_455 S
H677 C683 0.930 . S
C678 H664 0.929 . S
C678 C676 1.395 . S
C678 C681 1.403 . S
C679 C676 1.403 1_655 S
C679 C680 1.524 . S
C679 C683 1.400 . S
C680 H665 0.960 . S
C680 H666 0.960 1_565 S
C680 H667 0.960 . S
C680 C679 1.524 . S
C681 C678 1.403 . S
C681 C682 1.392 . S
C681 C685 1.492 1_565 S
C682 C681 1.392 . S
C682 C683 1.385 1_455 S
C682 C684 1.478 . S
C683 H677 0.930 . S
C683 C679 1.400 . S
C683 C682 1.385 1_655 S
C684 C682 1.478 . S
C684 C686 1.381 1_565 S
C684 C690 1.383 . S
C685 C681 1.492 1_545 S
C685 H691 0.960 . S
C685 H692 0.952 1_545 S
C685 H693 0.972 . S
C686 C684 1.381 1_545 S
C686 C687 1.394 . S
C686 H694 0.930 . S
C687 C686 1.394 . S
C687 C688 1.383 1_545 S
C687 H695 0.929 . S
C688 C687 1.383 1_565 S
C688 C689 1.377 . S
C689 H673 0.929 1_455 S
C689 C688 1.377 . S
C689 C690 1.379 . S
C690 H674 0.931 . S
C690 C684 1.383 . S
C690 C689 1.379 . S
H691 C685 0.960 . S
H692 C685 0.952 1_565 S
H693 C685 0.972 . S
H694 C686 0.930 . S
H695 C687 0.929 . S
H696 C704 0.929 . S
H697 C706 0.930 . S
H698 C708 0.930 . S
H699 C711 0.929 . S
H700 C714 0.930 . S
H701 C716 0.960 . S
H702 C716 0.960 . S
H703 C716 0.960 . S
C704 H696 0.929 . S
C704 C705 1.377 . S
C704 C706 1.384 . S
C705 C704 1.377 . S
C705 C711 1.390 . S
C706 H697 0.930 . S
C706 C704 1.384 . S
C706 C707 1.372 . S
C707 C706 1.372 . S
C707 C708 1.400 . S
C707 C712 1.490 . S
C708 H698 0.930 . S
C708 C707 1.400 . S
C708 C711 1.386 . S
H709 C725 0.930 . S
H710 C726 0.931 . S
C711 H699 0.929 . S
C711 C705 1.390 . S
C711 C708 1.386 . S
C712 C707 1.490 . S
C712 C714 1.395 . S
C712 C715 1.403 . S
H713 C719 0.930 . S
C714 H700 0.930 . S
C714 C712 1.395 . S
C714 C717 1.403 . S
C715 C712 1.403 . S
C715 C716 1.524 . S
C715 C719 1.400 . S
C716 H701 0.960 . S
C716 H702 0.960 . S
C716 H703 0.960 . S
C716 C715 1.524 . S
C717 C714 1.403 . S
C717 C718 1.392 . S
C717 C721 1.495 . S
C718 C717 1.392 . S
C718 C719 1.385 . S
C718 C720 1.478 . S
C719 H713 0.930 . S
C719 C715 1.400 . S
C719 C718 1.385 . S
C720 C718 1.478 . S
C720 C722 1.381 . S
C720 C726 1.383 . S
C721 C717 1.495 . S
C721 H727 0.959 . S
C721 H728 0.961 . S
C721 H729 0.960 . S
C722 C720 1.381 . S
C722 C723 1.394 . S
C722 H730 0.930 . S
C723 C722 1.394 . S
C723 C724 1.383 . S
C723 H731 0.929 . S
C724 C723 1.383 . S
C724 C725 1.377 . S
C725 H709 0.930 . S
C725 C724 1.377 . S
C725 C726 1.379 . S
C726 H710 0.931 . S
C726 C720 1.383 . S
C726 C725 1.379 . S
H727 C721 0.959 . S
H728 C721 0.961 . S
H729 C721 0.960 . S
H730 C722 0.930 . S
H731 C723 0.929 . S
H732 C740 0.929 . S
H733 C742 0.930 . S
H734 C744 0.930 . S
H735 C747 0.929 . S
H736 C750 0.930 . S
H737 C752 0.960 . S
H738 C752 0.960 . S
H739 C752 0.960 . S
C740 H732 0.929 . S
C740 C741 1.377 . S
C740 C742 1.384 . S
C741 C740 1.377 . S
C741 C747 1.390 . S
C742 H733 0.930 . S
C742 C740 1.384 . S
C742 C743 1.372 . S
C743 C742 1.372 . S
C743 C744 1.400 . S
C743 C748 1.490 . S
C744 H734 0.930 . S
C744 C743 1.400 . S
C744 C747 1.386 . S
H745 C761 0.930 . S
H746 C762 0.931 . S
C747 H735 0.929 . S
C747 C741 1.390 . S
C747 C744 1.386 . S
C748 C743 1.490 . S
C748 C750 1.395 . S
C748 C751 1.403 . S
H749 C755 0.930 . S
C750 H736 0.930 . S
C750 C748 1.395 . S
C750 C753 1.403 . S
C751 C748 1.403 . S
C751 C752 1.524 . S
C751 C755 1.400 . S
C752 H737 0.960 . S
C752 H738 0.960 . S
C752 H739 0.960 . S
C752 C751 1.524 . S
C753 C750 1.403 . S
C753 C754 1.392 . S
C753 C757 1.495 . S
C754 C753 1.392 . S
C754 C755 1.385 . S
C754 C756 1.478 . S
C755 H749 0.930 . S
C755 C751 1.400 . S
C755 C754 1.385 . S
C756 C754 1.478 . S
C756 C758 1.381 . S
C756 C762 1.383 . S
C757 C753 1.495 . S
C757 H763 0.959 . S
C757 H764 0.961 . S
C757 H765 0.960 . S
C758 C756 1.381 . S
C758 C759 1.394 . S
C758 H766 0.930 . S
C759 C758 1.394 . S
C759 C760 1.383 . S
C759 H767 0.929 . S
C760 C759 1.383 . S
C760 C761 1.377 . S
C761 H745 0.930 . S
C761 C760 1.377 . S
C761 C762 1.379 . S
C762 H746 0.931 . S
C762 C756 1.383 . S
C762 C761 1.379 . S
H763 C757 0.959 . S
H764 C757 0.961 . S
H765 C757 0.960 . S
H766 C758 0.930 . S
H767 C759 0.929 . S
C345 C224 3.235 1_554 S
C364 C67 3.218 1_556 S
C381 C235 3.235 1_556 S
C400 C56 3.239 1_554 S
C417 C154 0.653 . S
C436 C310 0.649 . S
C453 C142 0.658 . S
C472 C322 0.704 . S
C489 C70 1.456 . S
C508 C58 1.494 . S
C525 C151 4.211 1_565 S
C544 C140 4.201 1_545 S
C561 C238 1.454 . S
C580 C226 1.483 . S
C597 C308 4.211 . S
C616 C319 4.208 . S
C633 C158 1.496 . S
C652 C63 1.467 1_655 S
C669 C74 1.469 1_465 S
C688 C147 1.474 . S
C705 C326 1.490 . S
C724 C231 1.489 . S
C741 C315 1.493 . S
C760 C242 1.462 . S
