# Generated by pormake.
# Topology umc, (4)-cn, num edge types: 1
# Building blocks:
#     Node 0, Type 0, BuildingBlock: CEKHIL_clean_sbu_0, # of connection points: 4
#     Node 1, Type 0, BuildingBlock: CEKHIL_clean_sbu_0, # of connection points: 4
#     Node 2, Type 0, BuildingBlock: CEKHIL_clean_sbu_0, # of connection points: 4
#     Node 3, Type 0, BuildingBlock: CEKHIL_clean_sbu_0, # of connection points: 4
#     Node 4, Type 0, BuildingBlock: CEKHIL_clean_sbu_0, # of connection points: 4
#     Node 5, Type 0, BuildingBlock: CEKHIL_clean_sbu_0, # of connection points: 4
#     Node 6, Type 0, BuildingBlock: CEKHIL_clean_sbu_0, # of connection points: 4
#     Node 7, Type 0, BuildingBlock: CEKHIL_clean_sbu_0, # of connection points: 4
#     Node 8, Type 0, BuildingBlock: CEKHIL_clean_sbu_0, # of connection points: 4
#     Node 9, Type 0, BuildingBlock: CEKHIL_clean_sbu_0, # of connection points: 4
#     Node 10, Type 0, BuildingBlock: CEKHIL_clean_sbu_0, # of connection points: 4
#     Node 11, Type 0, BuildingBlock: CEKHIL_clean_sbu_0, # of connection points: 4
#     Node 12, Type 0, BuildingBlock: CEKHIL_clean_sbu_0, # of connection points: 4
#     Node 13, Type 0, BuildingBlock: CEKHIL_clean_sbu_0, # of connection points: 4
#     Node 14, Type 0, BuildingBlock: CEKHIL_clean_sbu_0, # of connection points: 4
#     Node 15, Type 0, BuildingBlock: CEKHIL_clean_sbu_0, # of connection points: 4
#     Edge 16, Type (0, 0), BuildingBlock: ZUJKAS_clean_linker_0, # of connection points: 2
#     Edge 17, Type (0, 0), BuildingBlock: ZUJKAS_clean_linker_0, # of connection points: 2
#     Edge 18, Type (0, 0), BuildingBlock: ZUJKAS_clean_linker_0, # of connection points: 2
#     Edge 19, Type (0, 0), BuildingBlock: ZUJKAS_clean_linker_0, # of connection points: 2
#     Edge 20, Type (0, 0), BuildingBlock: ZUJKAS_clean_linker_0, # of connection points: 2
#     Edge 21, Type (0, 0), BuildingBlock: ZUJKAS_clean_linker_0, # of connection points: 2
#     Edge 22, Type (0, 0), BuildingBlock: ZUJKAS_clean_linker_0, # of connection points: 2
#     Edge 23, Type (0, 0), BuildingBlock: ZUJKAS_clean_linker_0, # of connection points: 2
#     Edge 24, Type (0, 0), BuildingBlock: ZUJKAS_clean_linker_0, # of connection points: 2
#     Edge 25, Type (0, 0), BuildingBlock: ZUJKAS_clean_linker_0, # of connection points: 2
#     Edge 26, Type (0, 0), BuildingBlock: ZUJKAS_clean_linker_0, # of connection points: 2
#     Edge 27, Type (0, 0), BuildingBlock: ZUJKAS_clean_linker_0, # of connection points: 2
#     Edge 28, Type (0, 0), BuildingBlock: ZUJKAS_clean_linker_0, # of connection points: 2
#     Edge 29, Type (0, 0), BuildingBlock: ZUJKAS_clean_linker_0, # of connection points: 2
#     Edge 30, Type (0, 0), BuildingBlock: ZUJKAS_clean_linker_0, # of connection points: 2
#     Edge 31, Type (0, 0), BuildingBlock: ZUJKAS_clean_linker_0, # of connection points: 2
#     Edge 32, Type (0, 0), BuildingBlock: ZUJKAS_clean_linker_0, # of connection points: 2
#     Edge 33, Type (0, 0), BuildingBlock: ZUJKAS_clean_linker_0, # of connection points: 2
#     Edge 34, Type (0, 0), BuildingBlock: ZUJKAS_clean_linker_0, # of connection points: 2
#     Edge 35, Type (0, 0), BuildingBlock: ZUJKAS_clean_linker_0, # of connection points: 2
#     Edge 36, Type (0, 0), BuildingBlock: ZUJKAS_clean_linker_0, # of connection points: 2
#     Edge 37, Type (0, 0), BuildingBlock: ZUJKAS_clean_linker_0, # of connection points: 2
#     Edge 38, Type (0, 0), BuildingBlock: ZUJKAS_clean_linker_0, # of connection points: 2
#     Edge 39, Type (0, 0), BuildingBlock: ZUJKAS_clean_linker_0, # of connection points: 2
#     Edge 40, Type (0, 0), BuildingBlock: ZUJKAS_clean_linker_0, # of connection points: 2
#     Edge 41, Type (0, 0), BuildingBlock: ZUJKAS_clean_linker_0, # of connection points: 2
#     Edge 42, Type (0, 0), BuildingBlock: ZUJKAS_clean_linker_0, # of connection points: 2
#     Edge 43, Type (0, 0), BuildingBlock: ZUJKAS_clean_linker_0, # of connection points: 2
#     Edge 44, Type (0, 0), BuildingBlock: ZUJKAS_clean_linker_0, # of connection points: 2
#     Edge 45, Type (0, 0), BuildingBlock: ZUJKAS_clean_linker_0, # of connection points: 2
#     Edge 46, Type (0, 0), BuildingBlock: ZUJKAS_clean_linker_0, # of connection points: 2
#     Edge 47, Type (0, 0), BuildingBlock: ZUJKAS_clean_linker_0, # of connection points: 2
# Relax obj value: 0.084
# Max RMSD: 0.170
# Mean RMSD: 0.170
data_MOF--net-umc--node1-CEKHIL_clean_sbu_0--edge1-ZUJKAS_clean_linker_0
_symmetry_space_group_name_H-M    P1
_symmetry_Int_Tables_number       1
_symmetry_cell_setting            triclinic
loop_
_symmetry_equiv_pos_as_xyz
'x, y, z'
_cell_length_a     58.814575
_cell_length_b     42.596216
_cell_length_c     72.430054
_cell_angle_alpha  90.028733
_cell_angle_beta   89.99672
_cell_angle_gamma 90.036816
loop_
_atom_site_label
_atom_site_type_symbol
_atom_site_fract_x
_atom_site_fract_y
_atom_site_fract_z
_atom_type_partial_charge
Co0 Co 0.34091 0.06615 0.36881 0.0
O1 O 0.31238 0.08786 0.36849 0.0
O2 O 0.3438 0.10684 0.38101 0.0
C3 C 0.34047 0.05167 0.33895 0.0
O4 O 0.37359 0.04949 0.37098 0.0
Co5 Co 0.33984 0.99422 0.36168 0.0
O6 O 0.37327 0.99964 0.36052 0.0
C7 C 0.32521 0.0184 0.39769 0.0
C8 C 0.32229 0.11053 0.37725 0.0
C9 C 0.38389 0.02385 0.36632 0.0
O10 O 0.33217 0.04583 0.39288 0.0
O11 O 0.32511 0.99485 0.38671 0.0
O12 O 0.34745 0.07948 0.34365 0.0
O13 O 0.33176 0.03509 0.35211 0.0
Co14 Co 0.66846 0.93476 0.36872 0.0
O15 O 0.69624 0.91164 0.36629 0.0
O16 O 0.66551 0.89365 0.38032 0.0
C17 C 0.6665 0.95115 0.33934 0.0
O18 O 0.63647 0.95271 0.373 0.0
Co19 Co 0.67095 0.00689 0.36346 0.0
O20 O 0.63739 0.00363 0.36451 0.0
C21 C 0.6874 0.97971 0.39803 0.0
C22 C 0.68654 0.88908 0.3753 0.0
C23 C 0.62661 0.97931 0.3699 0.0
O24 O 0.67978 0.95294 0.39265 0.0
O25 O 0.68696 0.0043 0.3879 0.0
O26 O 0.65924 0.92338 0.34384 0.0
O27 O 0.67703 0.96645 0.35219 0.0
Co28 Co 0.34018 0.93401 0.12072 0.0
O29 O 0.31132 0.91313 0.1203 0.0
O30 O 0.34287 0.89336 0.10844 0.0
C31 C 0.339 0.94815 0.15062 0.0
O32 O 0.37319 0.94982 0.11943 0.0
Co33 Co 0.33987 0.00591 0.12815 0.0
O34 O 0.37302 0.99909 0.1308 0.0
C35 C 0.32622 0.98252 0.09169 0.0
C36 C 0.32119 0.89024 0.11172 0.0
C37 C 0.3836 0.97488 0.12498 0.0
O38 O 0.33261 0.95486 0.09655 0.0
O39 O 0.32611 0.00596 0.10277 0.0
O40 O 0.34562 0.92016 0.14597 0.0
O41 O 0.33099 0.9651 0.13734 0.0
Co42 Co 0.66754 0.06748 0.12156 0.0
O43 O 0.69543 0.09051 0.12365 0.0
O44 O 0.66458 0.1084 0.10975 0.0
C45 C 0.6658 0.05163 0.15105 0.0
O46 O 0.63548 0.04961 0.11754 0.0
Co47 Co 0.66983 0.99543 0.12726 0.0
O48 O 0.63629 0.99855 0.12577 0.0
C49 C 0.68612 0.02193 0.09245 0.0
C50 C 0.68568 0.11296 0.1146 0.0
C51 C 0.62559 0.02296 0.12046 0.0
O52 O 0.67856 0.0488 0.09767 0.0
O53 O 0.6858 0.99759 0.10278 0.0
O54 O 0.6586 0.07935 0.14642 0.0
O55 O 0.67616 0.03604 0.13824 0.0
Co56 Co 0.667 0.9331 0.6214 0.0
O57 O 0.6943 0.90908 0.62408 0.0
O58 O 0.66363 0.89239 0.60934 0.0
C59 C 0.66512 0.94902 0.65093 0.0
O60 O 0.63534 0.95202 0.61701 0.0
Co61 Co 0.67041 0.00511 0.6272 0.0
O62 O 0.63681 0.00199 0.62715 0.0
C63 C 0.68682 0.9781 0.59252 0.0
C64 C 0.68437 0.88696 0.61486 0.0
C65 C 0.6257 0.97839 0.62112 0.0
O66 O 0.67887 0.95142 0.5977 0.0
O67 O 0.68655 0.00255 0.6028 0.0
O68 O 0.65749 0.92153 0.64622 0.0
O69 O 0.67576 0.96427 0.63814 0.0
Co70 Co 0.34021 0.06566 0.62012 0.0
O71 O 0.31182 0.08779 0.61986 0.0
O72 O 0.34377 0.10595 0.60777 0.0
C73 C 0.33896 0.05165 0.65002 0.0
O74 O 0.37286 0.04888 0.61859 0.0
Co75 Co 0.33929 0.99391 0.62752 0.0
O76 O 0.3725 1.00006 0.63054 0.0
C77 C 0.32523 0.01754 0.59122 0.0
C78 C 0.32223 0.11016 0.61119 0.0
C79 C 0.38316 0.024 0.62444 0.0
O80 O 0.33195 0.04507 0.59605 0.0
O81 O 0.32519 0.99403 0.60223 0.0
O82 O 0.34611 0.07936 0.6453 0.0
O83 O 0.3306 0.03482 0.6368 0.0
Co84 Co 0.66576 0.06965 0.86837 0.0
O85 O 0.69406 0.0919 0.8678 0.0
O86 O 0.66251 0.11046 0.88036 0.0
C87 C 0.66597 0.0546 0.83865 0.0
O88 O 0.63326 0.05226 0.8707 0.0
Co89 Co 0.66788 0.99762 0.862 0.0
O90 O 0.63445 0.0024 0.86031 0.0
C91 C 0.68221 0.02309 0.89769 0.0
C92 C 0.68399 0.11443 0.87656 0.0
C93 C 0.6234 0.02633 0.86592 0.0
O94 O 0.67493 0.05012 0.89251 0.0
O95 O 0.6824 0.99902 0.8871 0.0
O96 O 0.65887 0.08241 0.84321 0.0
O97 O 0.67509 0.03847 0.85183 0.0
Co98 Co 0.33794 0.93665 0.86872 0.0
O99 O 0.30968 0.91419 0.86893 0.0
O100 O 0.34163 0.89631 0.88109 0.0
C101 C 0.33674 0.95051 0.83879 0.0
O102 O 0.3705 0.95405 0.87025 0.0
Co103 Co 0.33613 0.00835 0.86125 0.0
O104 O 0.36939 0.00291 0.85839 0.0
C105 C 0.32281 0.98465 0.89771 0.0
C106 C 0.32011 0.8919 0.87761 0.0
C107 C 0.38043 0.97928 0.86444 0.0
O108 O 0.32952 0.95716 0.89279 0.0
O109 O 0.32255 0.00818 0.88671 0.0
O110 O 0.34409 0.92295 0.84359 0.0
O111 O 0.32809 0.9672 0.85195 0.0
Co112 Co 0.84005 0.56556 0.37081 0.0
O113 O 0.81201 0.58826 0.36929 0.0
O114 O 0.84301 0.60629 0.38297 0.0
C115 C 0.84116 0.55071 0.34106 0.0
O116 O 0.87225 0.54783 0.37427 0.0
Co117 Co 0.83787 0.49372 0.36414 0.0
O118 O 0.87143 0.49717 0.3652 0.0
C119 C 0.82156 0.51902 0.39933 0.0
C120 C 0.8218 0.61062 0.37841 0.0
C121 C 0.88217 0.52138 0.37081 0.0
O122 O 0.82946 0.54601 0.39462 0.0
O123 O 0.82159 0.49528 0.3885 0.0
O124 O 0.84848 0.57827 0.34594 0.0
O125 O 0.8312 0.53465 0.35386 0.0
Co126 Co 0.1676 0.43259 0.36751 0.0
O127 O 0.19605 0.41063 0.36675 0.0
O128 O 0.16485 0.39201 0.37979 0.0
C129 C 0.16739 0.44706 0.3377 0.0
O130 O 0.135 0.44936 0.37013 0.0
Co131 Co 0.16854 0.50453 0.3604 0.0
O132 O 0.13511 0.49905 0.35947 0.0
C133 C 0.18341 0.48049 0.39635 0.0
C134 C 0.18624 0.38804 0.37566 0.0
C135 C 0.12461 0.47492 0.36548 0.0
O136 O 0.17685 0.45292 0.39142 0.0
O137 O 0.18305 0.50421 0.38551 0.0
O138 O 0.16049 0.41925 0.34246 0.0
O139 O 0.17643 0.46362 0.35073 0.0
Co140 Co 0.8374 0.43854 0.12203 0.0
O141 O 0.80943 0.41566 0.12356 0.0
O142 O 0.84072 0.39738 0.11046 0.0
C143 C 0.83813 0.45467 0.15151 0.0
O144 O 0.86959 0.45653 0.11874 0.0
Co145 Co 0.83467 0.51058 0.1274 0.0
O146 O 0.86819 0.50661 0.12868 0.0
C147 C 0.81986 0.48363 0.09226 0.0
C148 C 0.81943 0.39306 0.11481 0.0
C149 C 0.87934 0.48273 0.12313 0.0
O150 O 0.8272 0.45687 0.09784 0.0
O151 O 0.81987 0.5082 0.10243 0.0
O152 O 0.84548 0.42692 0.14711 0.0
O153 O 0.82815 0.47011 0.13844 0.0
Co154 Co 0.16546 0.56957 0.12078 0.0
O155 O 0.19403 0.59125 0.12086 0.0
O156 O 0.16241 0.61034 0.10878 0.0
C157 C 0.16633 0.55465 0.15051 0.0
O158 O 0.13267 0.55305 0.11902 0.0
Co159 Co 0.16637 0.49747 0.12753 0.0
O160 O 0.13317 0.50377 0.13034 0.0
C161 C 0.18027 0.52206 0.09145 0.0
C162 C 0.18399 0.61403 0.11232 0.0
C163 C 0.12244 0.52785 0.12454 0.0
O164 O 0.17367 0.54949 0.09656 0.0
O165 O 0.18032 0.49824 0.10222 0.0
O166 O 0.15946 0.58264 0.14609 0.0
O167 O 0.17475 0.53824 0.13715 0.0
Co168 Co 0.16853 0.43163 0.62012 0.0
O169 O 0.19767 0.4115 0.61988 0.0
O170 O 0.16641 0.39104 0.60784 0.0
C171 C 0.16931 0.44588 0.64997 0.0
O172 O 0.13533 0.44626 0.61852 0.0
Co173 Co 0.16679 0.50344 0.62755 0.0
O174 O 0.13405 0.49442 0.63139 0.0
C175 C 0.18118 0.48073 0.59109 0.0
C176 C 0.18809 0.38839 0.61125 0.0
C177 C 0.12424 0.47007 0.62492 0.0
O178 O 0.17599 0.45267 0.59607 0.0
O179 O 0.1801 0.50438 0.60198 0.0
O180 O 0.16313 0.41768 0.64532 0.0
O181 O 0.17703 0.46317 0.63671 0.0
Co182 Co 0.84082 0.56774 0.62035 0.0
O183 O 0.81279 0.59032 0.62224 0.0
O184 O 0.84328 0.6081 0.60774 0.0
C185 C 0.84238 0.5536 0.65022 0.0
O186 O 0.87307 0.55032 0.61676 0.0
Co187 Co 0.83967 0.496 0.62759 0.0
O188 O 0.87295 0.50239 0.62993 0.0
C189 C 0.82309 0.52003 0.59212 0.0
C190 C 0.82233 0.6127 0.61297 0.0
C191 C 0.88345 0.52576 0.62297 0.0
O192 O 0.83008 0.5475 0.59681 0.0
O193 O 0.82391 0.49632 0.60295 0.0
O194 O 0.84939 0.58117 0.64508 0.0
O195 O 0.83254 0.53704 0.63755 0.0
Co196 Co 0.16925 0.56666 0.86737 0.0
O197 O 0.19761 0.58878 0.86691 0.0
O198 O 0.16607 0.60746 0.87938 0.0
C199 C 0.16968 0.55166 0.83765 0.0
O200 O 0.1367 0.5495 0.86965 0.0
Co201 Co 0.1709 0.49461 0.86076 0.0
O202 O 0.13746 0.49963 0.85926 0.0
C203 C 0.18496 0.51965 0.89668 0.0
C204 C 0.18756 0.6114 0.87561 0.0
C205 C 0.12662 0.52369 0.86496 0.0
O206 O 0.17811 0.54692 0.89152 0.0
O207 O 0.18509 0.49571 0.88599 0.0
O208 O 0.16256 0.57948 0.84217 0.0
O209 O 0.17859 0.53545 0.85087 0.0
Co210 Co 0.84145 0.43478 0.86781 0.0
O211 O 0.81314 0.41274 0.86563 0.0
O212 O 0.8437 0.39352 0.87933 0.0
C213 C 0.84322 0.45123 0.83837 0.0
O214 O 0.87385 0.45153 0.87181 0.0
Co215 Co 0.84024 0.50713 0.86256 0.0
O216 O 0.87371 0.50273 0.86381 0.0
C217 C 0.82371 0.48034 0.89726 0.0
C218 C 0.82252 0.38974 0.87448 0.0
C219 C 0.88409 0.47797 0.86897 0.0
O220 O 0.8309 0.45335 0.89188 0.0
O221 O 0.82433 0.50484 0.88706 0.0
O222 O 0.84987 0.42313 0.84275 0.0
O223 O 0.83339 0.46686 0.85142 0.0
H224 H 0.32199 0.0627 0.42489 0.0
H225 H 0.31413 0.0543 0.45754 0.0
H226 H 0.30422 0.95547 0.44748 0.0
H227 H 0.31242 0.96344 0.41467 0.0
H228 H 0.27622 0.0275 0.47654 0.0
H229 H 0.35598 0.95865 0.48589 0.0
H230 H 0.35074 0.98179 0.46547 0.0
H231 H 0.33635 0.94501 0.46863 0.0
C232 C 0.318 0.03915 0.42952 0.0
C233 C 0.31816 0.01367 0.41715 0.0
C234 C 0.31341 0.03445 0.4482 0.0
C235 C 0.30892 0.00422 0.45493 0.0
C236 C 0.30801 0.97891 0.44256 0.0
H237 H 0.31529 0.96207 0.57355 0.0
H238 H 0.30655 0.95466 0.54077 0.0
C239 C 0.31263 0.98356 0.42382 0.0
C240 C 0.3066 0.99942 0.47506 0.0
H241 H 0.33528 0.97117 0.51247 0.0
C242 C 0.28892 0.01478 0.48441 0.0
C243 C 0.32312 0.98263 0.48524 0.0
C244 C 0.34274 0.96619 0.4759 0.0
C245 C 0.28785 0.01489 0.50376 0.0
C246 C 0.30516 0.99972 0.51395 0.0
C247 C 0.32206 0.98281 0.50459 0.0
C248 C 0.30767 0.00415 0.53412 0.0
C249 C 0.26849 0.03181 0.51311 0.0
C250 C 0.31118 0.0344 0.54121 0.0
C251 C 0.31623 0.03874 0.55984 0.0
C252 C 0.31806 0.01284 0.5718 0.0
C253 C 0.31399 0.98254 0.56475 0.0
C254 C 0.30897 0.97824 0.54603 0.0
H255 H 0.25317 0.03243 0.50414 0.0
H256 H 0.26394 0.02053 0.52642 0.0
H257 H 0.27362 0.05643 0.5159 0.0
H258 H 0.31082 0.05467 0.53218 0.0
H259 H 0.31922 0.06241 0.56475 0.0
H260 H 0.69764 0.93046 0.56896 0.0
H261 H 0.70543 0.93426 0.53599 0.0
H262 H 0.70199 0.03522 0.53924 0.0
H263 H 0.69439 0.03175 0.57241 0.0
H264 H 0.67262 0.96234 0.51313 0.0
H265 H 0.75717 0.01923 0.50477 0.0
H266 H 0.74866 0.99987 0.52588 0.0
H267 H 0.73771 0.03806 0.52041 0.0
C268 C 0.69896 0.95355 0.56278 0.0
C269 C 0.69511 0.98082 0.57329 0.0
C270 C 0.70352 0.95565 0.54394 0.0
C271 C 0.70438 0.985 0.53522 0.0
C272 C 0.70178 0.01237 0.54579 0.0
H273 H 0.6926 0.03306 0.41889 0.0
H274 H 0.69955 0.0358 0.45222 0.0
C275 C 0.69731 0.01032 0.56473 0.0
C276 C 0.70474 0.98645 0.51483 0.0
H277 H 0.73543 0.01122 0.47751 0.0
C278 C 0.68641 0.97291 0.50535 0.0
C279 C 0.7226 1.00067 0.50478 0.0
C280 C 0.74277 0.01513 0.51441 0.0
C281 C 0.68544 0.97303 0.48606 0.0
C282 C 0.70353 0.98654 0.47595 0.0
C283 C 0.72171 1.00068 0.48537 0.0
C284 C 0.70356 0.98567 0.45556 0.0
C285 C 0.66492 0.95893 0.47664 0.0
C286 C 0.70445 0.9567 0.44641 0.0
C287 C 0.7003 0.95499 0.42749 0.0
C288 C 0.6954 0.98231 0.41734 0.0
C289 C 0.69624 0.01159 0.42632 0.0
C290 C 0.70024 0.01323 0.44534 0.0
H291 H 0.65031 0.95646 0.48626 0.0
H292 H 0.65953 0.9735 0.46471 0.0
H293 H 0.66932 0.93521 0.47141 0.0
H294 H 0.7073 0.93522 0.45408 0.0
H295 H 0.70014 0.93211 0.42094 0.0
H296 H 0.32206 0.93836 0.0645 0.0
H297 H 0.31439 0.94701 0.03183 0.0
H298 H 0.30753 0.04637 0.04172 0.0
H299 H 0.31549 0.03812 0.07454 0.0
H300 H 0.27672 0.97617 0.0133 0.0
H301 H 0.35862 0.03959 0.00261 0.0
H302 H 0.35309 0.01668 0.02307 0.0
H303 H 0.33996 0.0544 0.02024 0.0
C304 C 0.31882 0.96209 0.05982 0.0
C305 C 0.31967 0.9876 0.07216 0.0
C306 C 0.31434 0.96695 0.04113 0.0
C307 C 0.31069 0.99735 0.03436 0.0
C308 C 0.31064 0.02277 0.04667 0.0
H309 H 0.31477 0.04026 0.9158 0.0
H310 H 0.30732 0.04759 0.94879 0.0
C311 C 0.31511 0.01796 0.06543 0.0
C312 C 0.30812 0.00216 0.01425 0.0
H313 H 0.33675 0.02866 0.97637 0.0
C314 C 0.28966 0.98803 0.00521 0.0
C315 C 0.32496 0.01784 0.0038 0.0
C316 C 0.34539 0.03288 0.01282 0.0
C317 C 0.28804 0.98814 0.98589 0.0
C318 C 0.30557 0.00223 0.9754 0.0
C319 C 0.32336 0.01786 0.98448 0.0
C320 C 0.30725 0.99799 0.95517 0.0
C321 C 0.26783 0.97264 0.97687 0.0
C322 C 0.30961 0.96768 0.94785 0.0
C323 C 0.31394 0.96338 0.92909 0.0
C324 C 0.31614 0.98936 0.91724 0.0
C325 C 0.31313 0.01973 0.92452 0.0
C326 C 0.30887 0.02399 0.94336 0.0
H327 H 0.25281 0.9727 0.98618 0.0
H328 H 0.26321 0.98453 0.96376 0.0
H329 H 0.27206 0.94782 0.97374 0.0
H330 H 0.30895 0.94731 0.95679 0.0
H331 H 0.31611 0.93966 0.924 0.0
H332 H 0.68742 0.96879 0.9177 0.0
H333 H 0.69434 0.96447 0.95101 0.0
H334 H 0.70059 0.06511 0.95478 0.0
H335 H 0.69351 0.06978 0.92172 0.0
H336 H 0.73055 0.98919 0.97624 0.0
H337 H 0.64468 0.04007 0.98741 0.0
H338 H 0.65361 0.02427 0.96544 0.0
H339 H 0.66273 0.06274 0.97249 0.0
C340 C 0.69064 0.98996 0.92557 0.0
C341 C 0.6895 0.01967 0.91713 0.0
C342 C 0.69463 0.98742 0.94456 0.0
C343 C 0.69763 0.01452 0.95529 0.0
C344 C 0.698 0.04398 0.94671 0.0
H345 H 0.69649 0.06909 0.06843 0.0
H346 H 0.70287 0.0647 0.03528 0.0
C347 C 0.69389 0.04658 0.92783 0.0
C348 C 0.69812 0.0126 0.97564 0.0
H349 H 0.66822 0.03505 0.01373 0.0
C350 C 0.71691 0.99898 0.9845 0.0
C351 C 0.68014 0.02514 0.98628 0.0
C352 C 0.65903 0.03863 0.97747 0.0
C353 C 0.71854 0.99873 0.00388 0.0
C354 C 0.70086 0.01222 0.01445 0.0
C355 C 0.68186 0.02504 0.00553 0.0
C356 C 0.70149 0.01397 0.03481 0.0
C357 C 0.73933 0.98493 0.01294 0.0
C358 C 0.69922 0.98678 0.04557 0.0
C359 C 0.69553 0.98918 0.06461 0.0
C360 C 0.69382 0.01884 0.07307 0.0
C361 C 0.69744 0.04589 0.06234 0.0
C362 C 0.70119 0.04345 0.0434 0.0
H363 H 0.75315 0.98038 0.00283 0.0
H364 H 0.74581 0.00092 0.02386 0.0
H365 H 0.73471 0.96236 0.01961 0.0
H366 H 0.69906 0.96383 0.03913 0.0
H367 H 0.69279 0.96789 0.07247 0.0
H368 H 0.80896 0.46539 0.57537 0.0
H369 H 0.79941 0.45781 0.54276 0.0
H370 H 0.80969 0.55659 0.53277 0.0
H371 H 0.8188 0.5646 0.56521 0.0
H372 H 0.77179 0.53139 0.51402 0.0
H373 H 0.84997 0.45954 0.50377 0.0
H374 H 0.83024 0.44607 0.52098 0.0
H375 H 0.84529 0.4823 0.52443 0.0
C376 C 0.80894 0.48558 0.56629 0.0
C377 C 0.81499 0.51554 0.5729 0.0
C378 C 0.80355 0.48116 0.54765 0.0
C379 C 0.80424 0.50655 0.53532 0.0
C380 C 0.80914 0.53666 0.54206 0.0
H381 H 0.81554 0.56452 0.4255 0.0
H382 H 0.80637 0.55738 0.458 0.0
C383 C 0.81445 0.54114 0.56063 0.0
C384 C 0.8015 0.50192 0.51519 0.0
H385 H 0.82908 0.47276 0.47746 0.0
C386 C 0.78409 0.51817 0.50601 0.0
C387 C 0.81753 0.48453 0.50481 0.0
C388 C 0.83693 0.46724 0.5139 0.0
C389 C 0.78283 0.51854 0.48667 0.0
C390 C 0.79963 0.50267 0.47629 0.0
C391 C 0.81623 0.48492 0.48548 0.0
C392 C 0.80204 0.50702 0.4561 0.0
C393 C 0.76383 0.53649 0.47752 0.0
C394 C 0.80279 0.48103 0.4442 0.0
C395 C 0.80824 0.48498 0.42555 0.0
C396 C 0.81332 0.51499 0.41853 0.0
C397 C 0.81181 0.54106 0.4304 0.0
C398 C 0.80631 0.53708 0.44899 0.0
H399 H 0.74863 0.53781 0.4866 0.0
H400 H 0.76957 0.56086 0.47476 0.0
H401 H 0.75884 0.52555 0.4642 0.0
H402 H 0.79975 0.4576 0.44947 0.0
H403 H 0.80925 0.46438 0.41682 0.0
H404 H 0.18431 0.5366 0.57224 0.0
H405 H 0.18985 0.5435 0.53891 0.0
H406 H 0.19772 0.4435 0.5325 0.0
H407 H 0.19221 0.43622 0.56557 0.0
H408 H 0.22739 0.51708 0.51207 0.0
H409 H 0.13891 0.47412 0.50222 0.0
H410 H 0.14889 0.49012 0.52386 0.0
H411 H 0.15639 0.45082 0.51729 0.0
C412 C 0.18761 0.51613 0.56379 0.0
C413 C 0.18746 0.4858 0.57153 0.0
C414 C 0.19082 0.52015 0.54479 0.0
C415 C 0.19398 0.49396 0.53336 0.0
C416 C 0.19516 0.46394 0.54117 0.0
H417 H 0.19186 0.43533 0.42214 0.0
H418 H 0.19718 0.44261 0.45523 0.0
C419 C 0.1919 0.45986 0.56006 0.0
C420 C 0.19377 0.49717 0.5131 0.0
H421 H 0.16202 0.47748 0.47549 0.0
C422 C 0.21305 0.50886 0.50399 0.0
C423 C 0.17491 0.48658 0.50276 0.0
C424 C 0.15349 0.47492 0.51197 0.0
C425 C 0.21431 0.50879 0.4846 0.0
C426 C 0.1958 0.49685 0.47433 0.0
C427 C 0.17624 0.48635 0.48349 0.0
C428 C 0.19651 0.49332 0.45407 0.0
C429 C 0.23563 0.52021 0.4752 0.0
C430 C 0.19489 0.51955 0.44246 0.0
C431 C 0.19179 0.51551 0.42346 0.0
C432 C 0.19006 0.48516 0.41587 0.0
C433 C 0.19287 0.45903 0.42751 0.0
C434 C 0.19601 0.46311 0.44643 0.0
H435 H 0.24941 0.52551 0.48521 0.0
H436 H 0.2418 0.50232 0.46523 0.0
H437 H 0.23177 0.54188 0.46729 0.0
H438 H 0.19496 0.54304 0.4482 0.0
H439 H 0.18967 0.53613 0.41488 0.0
H440 H 0.81855 0.53414 0.9177 0.0
H441 H 0.81145 0.53773 0.95098 0.0
H442 H 0.804 0.43716 0.95376 0.0
H443 H 0.81133 0.43319 0.92068 0.0
H444 H 0.7756 0.51468 0.97594 0.0
H445 H 0.85981 0.45858 0.98669 0.0
H446 H 0.85119 0.47468 0.96474 0.0
H447 H 0.84092 0.43687 0.97196 0.0
C448 C 0.815 0.51283 0.92533 0.0
C449 C 0.81592 0.48332 0.91661 0.0
C450 C 0.81091 0.51496 0.94432 0.0
C451 C 0.8076 0.48766 0.9548 0.0
C452 C 0.80688 0.45844 0.94591 0.0
H453 H 0.80923 0.43578 0.0688 0.0
H454 H 0.80278 0.43894 0.03562 0.0
C455 C 0.81111 0.45624 0.92701 0.0
C456 C 0.80718 0.48919 0.97518 0.0
H457 H 0.83684 0.46556 0.01314 0.0
C458 C 0.78898 0.5041 0.98414 0.0
C459 C 0.82484 0.47563 0.98574 0.0
C460 C 0.84542 0.46078 0.97684 0.0
C461 C 0.78763 0.5048 0.00353 0.0
C462 C 0.80503 0.49051 0.01403 0.0
C463 C 0.8234 0.47621 0.00501 0.0
C464 C 0.80479 0.4896 0.03443 0.0
C465 C 0.76742 0.52007 0.01265 0.0
C466 C 0.80751 0.51716 0.04482 0.0
C467 C 0.81122 0.51547 0.06389 0.0
C468 C 0.81252 0.48614 0.07276 0.0
C469 C 0.8086 0.45873 0.06239 0.0
C470 C 0.80481 0.46047 0.04343 0.0
H471 H 0.75338 0.52438 0.00271 0.0
H472 H 0.76095 0.50523 0.02411 0.0
H473 H 0.77269 0.54297 0.01859 0.0
H474 H 0.80792 0.53984 0.03807 0.0
H475 H 0.81421 0.537 0.07147 0.0
H476 H 0.18688 0.56758 0.06548 0.0
H477 H 0.19309 0.56048 0.03247 0.0
H478 H 0.19469 0.4601 0.03975 0.0
H479 H 0.18847 0.46679 0.07299 0.0
H480 H 0.22962 0.4919 0.01299 0.0
H481 H 0.13815 0.51904 0.002 0.0
H482 H 0.15321 0.5457 0.01688 0.0
H483 H 0.14917 0.50566 0.0239 0.0
C484 C 0.1888 0.54394 0.06018 0.0
C485 C 0.18683 0.51772 0.07188 0.0
C486 C 0.19243 0.53999 0.04132 0.0
C487 C 0.19413 0.5098 0.03377 0.0
C488 C 0.19341 0.48357 0.04542 0.0
H489 H 0.19268 0.46467 0.91555 0.0
H490 H 0.19792 0.4586 0.94894 0.0
C491 C 0.1898 0.48748 0.06437 0.0
C492 C 0.19448 0.50599 0.01355 0.0
H493 H 0.16177 0.51881 0.97546 0.0
C494 C 0.21477 0.49731 0.00472 0.0
C495 C 0.17496 0.51288 0.00294 0.0
C496 C 0.15254 0.5211 0.01185 0.0
C497 C 0.21626 0.49686 0.98534 0.0
C498 C 0.197 0.5052 0.97481 0.0
C499 C 0.17653 0.51263 0.98368 0.0
C500 C 0.19779 0.50845 0.95456 0.0
C501 C 0.23852 0.48878 0.97619 0.0
C502 C 0.1964 0.53848 0.94679 0.0
C503 C 0.19333 0.54208 0.92784 0.0
C504 C 0.19145 0.51563 0.91629 0.0
C505 C 0.19404 0.48552 0.92404 0.0
C506 C 0.1971 0.48197 0.94308 0.0
H507 H 0.25228 0.4845 0.98638 0.0
H508 H 0.23634 0.46739 0.96761 0.0
H509 H 0.24377 0.50815 0.96685 0.0
H510 H 0.19683 0.55916 0.95551 0.0
H511 H 0.19165 0.56562 0.92235 0.0
H512 H 0.59322 0.93373 0.36853 0.0
H513 H 0.55181 0.94207 0.36953 0.0
H514 H 0.56259 0.04102 0.37856 0.0
H515 H 0.60353 0.03311 0.37719 0.0
H516 H 0.52259 0.96722 0.39588 0.0
H517 H 0.52252 0.04175 0.33316 0.0
H518 H 0.54682 0.01864 0.33993 0.0
H519 H 0.54134 0.0559 0.35078 0.0
C520 C 0.58671 0.95718 0.37087 0.0
C521 C 0.60168 0.9828 0.37249 0.0
C522 C 0.56307 0.96195 0.37139 0.0
C523 C 0.55409 0.99234 0.3736 0.0
C524 C 0.56906 0.01755 0.37623 0.0
H525 H 0.41535 0.06951 0.37585 0.0
H526 H 0.45679 0.06307 0.37884 0.0
C527 C 0.59252 0.0129 0.37554 0.0
C528 C 0.52913 0.99808 0.37297 0.0
H529 H 0.48814 0.04014 0.35037 0.0
C530 C 0.51506 0.98306 0.38589 0.0
C531 C 0.51927 0.01886 0.35994 0.0
C532 C 0.53322 0.03448 0.34505 0.0
C533 C 0.49148 0.98853 0.38627 0.0
C534 C 0.48168 0.00934 0.37329 0.0
C535 C 0.49573 0.02451 0.36045 0.0
C536 C 0.45668 0.01366 0.37185 0.0
C537 C 0.47723 0.97215 0.40066 0.0
C538 C 0.44302 0.98826 0.36663 0.0
C539 C 0.41957 0.99186 0.36481 0.0
C540 C 0.40905 0.02107 0.36814 0.0
C541 C 0.42281 0.0467 0.37324 0.0
C542 C 0.44647 0.04305 0.37496 0.0
H543 H 0.48771 0.9638 0.41244 0.0
H544 H 0.46374 0.98796 0.40602 0.0
H545 H 0.46886 0.95143 0.39432 0.0
H546 H 0.45056 0.96555 0.3638 0.0
H547 H 0.4097 0.9715 0.3608 0.0
H548 H 0.41469 0.9323 0.11079 0.0
H549 H 0.45626 0.93854 0.10904 0.0
H550 H 0.45085 0.02919 0.13515 0.0
H551 H 0.41001 0.02309 0.13732 0.0
H552 H 0.48184 0.98506 0.09136 0.0
H553 H 0.49893 0.98726 0.16647 0.0
H554 H 0.47221 0.97393 0.15703 0.0
H555 H 0.47764 0.01525 0.15995 0.0
C556 C 0.42241 0.95338 0.11633 0.0
C557 C 0.40887 0.97706 0.12426 0.0
C558 C 0.44615 0.95697 0.11526 0.0
C559 C 0.45673 0.98414 0.12225 0.0
C560 C 0.44322 0.00771 0.13006 0.0
H561 H 0.59216 0.06787 0.1241 0.0
H562 H 0.55074 0.05929 0.12304 0.0
C563 C 0.4197 0.00418 0.13116 0.0
C564 C 0.48175 0.98881 0.12101 0.0
H565 H 0.52849 0.00715 0.14697 0.0
C566 C 0.49208 0.98955 0.10353 0.0
C567 C 0.49516 0.99475 0.1369 0.0
C568 C 0.48546 0.99245 0.15615 0.0
C569 C 0.51529 0.9969 0.10151 0.0
C570 C 0.52844 0.00368 0.11735 0.0
C571 C 0.51823 0.00252 0.13482 0.0
C572 C 0.55321 0.00994 0.11625 0.0
C573 C 0.5256 0.99789 0.08246 0.0
C574 C 0.56816 0.98513 0.11266 0.0
C575 C 0.59163 0.98986 0.11345 0.0
C576 C 0.6007 0.01959 0.11773 0.0
C577 C 0.58569 0.04478 0.12065 0.0
C578 C 0.56208 0.03989 0.12012 0.0
H579 H 0.51246 0.99713 0.07145 0.0
H580 H 0.53598 0.01949 0.08073 0.0
H581 H 0.53706 0.97742 0.08066 0.0
H582 H 0.56167 0.96182 0.1098 0.0
H583 H 0.60271 0.96997 0.11102 0.0
H584 H 0.59292 0.93349 0.61348 0.0
H585 H 0.55149 0.94129 0.61221 0.0
H586 H 0.56072 0.0401 0.6227 0.0
H587 H 0.60158 0.03273 0.6241 0.0
H588 H 0.52939 0.01162 0.64621 0.0
H589 H 0.51131 0.98463 0.57253 0.0
H590 H 0.52722 0.95547 0.58499 0.0
H591 H 0.53959 0.99334 0.58083 0.0
C592 C 0.58611 0.9569 0.61531 0.0
C593 C 0.60068 0.98239 0.61899 0.0
C594 C 0.56245 0.96136 0.61451 0.0
C595 C 0.55304 0.99136 0.61726 0.0
C596 C 0.56758 0.01677 0.62055 0.0
H597 H 0.41338 0.06041 0.60459 0.0
H598 H 0.45487 0.05369 0.60253 0.0
C599 C 0.59104 0.01241 0.62136 0.0
C600 C 0.52806 0.99649 0.61786 0.0
H601 H 0.47958 0.99482 0.59182 0.0
C602 C 0.51851 0.00793 0.63431 0.0
C603 C 0.51394 0.99209 0.60226 0.0
C604 C 0.52346 0.98095 0.58407 0.0
C605 C 0.49522 0.01474 0.63566 0.0
C606 C 0.48102 0.00973 0.6202 0.0
C607 C 0.49054 0.99866 0.60365 0.0
C608 C 0.45605 0.01432 0.62137 0.0
C609 C 0.48599 0.02747 0.6536 0.0
C610 C 0.44308 0.99447 0.63261 0.0
C611 C 0.41957 0.99819 0.6338 0.0
C612 C 0.40837 0.0219 0.62374 0.0
C613 C 0.42145 0.04206 0.61259 0.0
C614 C 0.4451 0.03813 0.61131 0.0
H615 H 0.49971 0.03693 0.66257 0.0
H616 H 0.47337 0.04635 0.65102 0.0
H617 H 0.4773 0.0083 0.66121 0.0
H618 H 0.45116 0.97582 0.64038 0.0
H619 H 0.41014 0.98225 0.64258 0.0
H620 H 0.59825 0.97448 0.85752 0.0
H621 H 0.55734 0.96787 0.85859 0.0
H622 H 0.54961 0.06305 0.87773 0.0
H623 H 0.59118 0.07012 0.87686 0.0
H624 H 0.52225 0.01474 0.89716 0.0
H625 H 0.51347 0.00918 0.82094 0.0
H626 H 0.53473 0.98339 0.83022 0.0
H627 H 0.53834 0.02517 0.83214 0.0
C628 C 0.58805 0.99423 0.86198 0.0
C629 C 0.59819 0.02303 0.86698 0.0
C630 C 0.56454 0.99031 0.86254 0.0
C631 C 0.55041 0.01503 0.868 0.0
C632 C 0.56027 0.04369 0.8734 0.0
H633 H 0.4063 0.02454 0.84821 0.0
H634 H 0.44711 0.0323 0.85018 0.0
C635 C 0.584 0.04772 0.87283 0.0
C636 C 0.52536 0.01055 0.86766 0.0
H637 H 0.48143 0.99325 0.83854 0.0
C638 C 0.51324 0.01026 0.88436 0.0
C639 C 0.51368 0.00473 0.85093 0.0
C640 C 0.52564 0.00587 0.8325 0.0
C641 C 0.48975 0.00383 0.88477 0.0
C642 C 0.47821 0.99716 0.86806 0.0
C643 C 0.49033 0.99792 0.85137 0.0
C644 C 0.45325 0.99164 0.8673 0.0
C645 C 0.47739 0.00472 0.903 0.0
C646 C 0.44301 0.96576 0.87607 0.0
C647 C 0.41938 0.9611 0.87496 0.0
C648 C 0.40564 0.98229 0.86508 0.0
C649 C 0.41617 0.00779 0.85609 0.0
C650 C 0.43961 0.01232 0.85716 0.0
H651 H 0.4876 0.01649 0.9139 0.0
H652 H 0.46089 0.01715 0.90161 0.0
H653 H 0.47382 0.98035 0.90757 0.0
H654 H 0.45328 0.94912 0.88368 0.0
H655 H 0.41187 0.94122 0.88202 0.0
H656 H 0.90529 0.46743 0.37747 0.0
H657 H 0.9462 0.4596 0.37916 0.0
H658 H 0.95688 0.55881 0.37098 0.0
H659 H 0.91554 0.56701 0.36976 0.0
H660 H 0.97638 0.4694 0.35256 0.0
H661 H 0.99968 0.54187 0.41329 0.0
H662 H 0.97059 0.53194 0.40793 0.0
H663 H 0.98463 0.56334 0.39584 0.0
C664 C 0.91628 0.48774 0.37621 0.0
C665 C 0.9071 0.51789 0.37341 0.0
C666 C 0.93972 0.48317 0.37719 0.0
C667 C 0.95472 0.50856 0.37533 0.0
C668 C 0.94568 0.53889 0.37286 0.0
H669 H 0.09857 0.52697 0.35968 0.0
H670 H 0.05772 0.53276 0.36291 0.0
C671 C 0.92205 0.54357 0.37208 0.0
C672 C 0.97968 0.50259 0.37487 0.0
H673 H 0.03027 0.52245 0.39498 0.0
C674 C 0.98812 0.48083 0.36196 0.0
C675 C 0.99505 0.51737 0.38715 0.0
C676 C 0.98705 0.5397 0.40196 0.0
C677 C 0.01145 0.47402 0.36071 0.0
C678 C 0.02681 0.48916 0.37278 0.0
C679 C 0.01843 0.51074 0.38579 0.0
C680 C 0.0518 0.48474 0.37121 0.0
C681 C 0.01959 0.4514 0.34609 0.0
C682 C 0.0622 0.45568 0.37489 0.0
C683 C 0.08586 0.45214 0.37307 0.0
C684 C 0.09946 0.47763 0.3675 0.0
C685 C 0.08881 0.50666 0.36393 0.0
C686 C 0.06535 0.51016 0.36583 0.0
H687 H 0.00611 0.44595 0.33583 0.0
H688 H 0.03457 0.46112 0.33871 0.0
H689 H 0.02486 0.42912 0.35276 0.0
H690 H 0.05205 0.43581 0.37926 0.0
H691 H 0.09344 0.42952 0.376 0.0
H692 H 0.09603 0.48303 0.1406 0.0
H693 H 0.05516 0.47611 0.13851 0.0
H694 H 0.04996 0.55973 0.10528 0.0
H695 H 0.09145 0.56679 0.10706 0.0
H696 H 0.02116 0.51588 0.15018 0.0
H697 H 0.01515 0.49311 0.07474 0.0
H698 H 0.04179 0.49179 0.08712 0.0
H699 H 0.02928 0.5289 0.08125 0.0
C700 C 0.08636 0.50006 0.13275 0.0
C701 C 0.09719 0.52542 0.12387 0.0
C702 C 0.06289 0.49601 0.13161 0.0
C703 C 0.0495 0.51706 0.12152 0.0
C704 C 0.06004 0.54282 0.11286 0.0
H705 H 0.9043 0.53515 0.13065 0.0
H706 H 0.94522 0.54195 0.12944 0.0
C707 C 0.08371 0.547 0.11404 0.0
C708 C 0.0245 0.51199 0.12067 0.0
H709 H 0.98049 0.49487 0.09143 0.0
C710 C 0.01229 0.51135 0.13732 0.0
C711 C 0.01299 0.50551 0.10392 0.0
C712 C 0.02543 0.50456 0.08572 0.0
C713 C 0.98891 0.50477 0.13769 0.0
C714 C 0.97728 0.49903 0.12092 0.0
C715 C 0.98946 0.49928 0.10426 0.0
C716 C 0.95224 0.49453 0.12054 0.0
C717 C 0.97683 0.50373 0.15606 0.0
C718 C 0.94245 0.46565 0.11548 0.0
C719 C 0.91874 0.46151 0.11615 0.0
C720 C 0.90449 0.48629 0.12177 0.0
C721 C 0.91455 0.51533 0.12637 0.0
C722 C 0.93806 0.51936 0.12572 0.0
H723 H 0.98893 0.50077 0.16771 0.0
H724 H 0.96753 0.5261 0.15818 0.0
H725 H 0.96427 0.48426 0.15645 0.0
H726 H 0.95316 0.44619 0.11137 0.0
H727 H 0.91163 0.43891 0.11244 0.0
H728 H 0.91088 0.49273 0.64583 0.0
H729 H 0.9516 0.48389 0.64323 0.0
H730 H 0.95386 0.5428 0.59483 0.0
H731 H 0.91279 0.55259 0.59773 0.0
H732 H 0.97421 0.45554 0.61609 0.0
H733 H 0.00634 0.57745 0.62425 0.0
H734 H 0.97725 0.56689 0.62911 0.0
H735 H 0.98652 0.5721 0.60565 0.0
C736 C 0.92003 0.50412 0.6347 0.0
C737 C 0.90858 0.52335 0.62195 0.0
C738 C 0.94335 0.49894 0.63321 0.0
C739 C 0.9559 0.51266 0.61887 0.0
C740 C 0.94465 0.53235 0.60621 0.0
H741 H 0.09598 0.44362 0.59893 0.0
H742 H 0.05493 0.45265 0.59549 0.0
C743 C 0.92118 0.53791 0.60785 0.0
C744 C 0.98058 0.50531 0.61722 0.0
H745 H 0.03356 0.53803 0.61871 0.0
C746 C 0.98721 0.47359 0.61657 0.0
C747 C 0.99755 0.52883 0.61793 0.0
C748 C 0.99165 0.56322 0.61943 0.0
C749 C 0.01021 0.46471 0.61724 0.0
C750 C 0.02718 0.48823 0.61805 0.0
C751 C 0.02057 0.51997 0.61807 0.0
C752 C 0.05176 0.48072 0.62032 0.0
C753 C 0.01602 0.43023 0.61795 0.0
C754 C 0.06368 0.4934 0.63535 0.0
C755 C 0.08703 0.48866 0.63716 0.0
C756 C 0.09908 0.47087 0.62406 0.0
C757 C 0.08708 0.45708 0.60936 0.0
C758 C 0.06362 0.46224 0.6074 0.0
H759 H 1.00109 0.41569 0.62189 0.0
H760 H 0.02178 0.42244 0.6041 0.0
H761 H 0.02994 0.4257 0.62796 0.0
H762 H 0.05494 0.50752 0.64558 0.0
H763 H 0.09578 0.49949 0.64869 0.0
H764 H 0.095 0.56807 0.87603 0.0
H765 H 0.05365 0.56083 0.87911 0.0
H766 H 0.0602 0.46503 0.86074 0.0
H767 H 0.10098 0.47176 0.85764 0.0
H768 H 0.02195 0.54067 0.8505 0.0
H769 H 0.02389 0.45759 0.90947 0.0
H770 H 0.0477 0.48248 0.90361 0.0
H771 H 0.04233 0.44726 0.89065 0.0
C772 C 0.08763 0.54547 0.87269 0.0
C773 C 0.10147 0.52053 0.86667 0.0
C774 C 0.06402 0.54135 0.87448 0.0
C775 C 0.05393 0.51217 0.87049 0.0
C776 C 0.06765 0.4875 0.86429 0.0
H777 H 0.91721 0.43235 0.86561 0.0
H778 H 0.95868 0.44038 0.86658 0.0
C779 C 0.09106 0.49157 0.86242 0.0
C780 C 0.02898 0.50739 0.87206 0.0
H781 H 0.98865 0.46251 0.89355 0.0
C782 C 0.01462 0.52386 0.86005 0.0
C783 C 0.01951 0.48507 0.88434 0.0
C784 C 0.0341 0.46723 0.89787 0.0
C785 C 0.99109 0.51813 0.85967 0.0
C786 C 0.98156 0.49586 0.872 0.0
C787 C 0.99594 0.47948 0.88409 0.0
C788 C 0.95663 0.49003 0.87281 0.0
C789 C 0.97678 0.53533 0.84564 0.0
C790 C 0.94178 0.51488 0.8767 0.0
C791 C 0.91831 0.51043 0.876 0.0
C792 C 0.90902 0.48084 0.87172 0.0
C793 C 0.92385 0.4554 0.86892 0.0
C794 C 0.94751 0.46 0.86942 0.0
H795 H 0.9872 0.54399 0.8339 0.0
H796 H 0.96308 0.52003 0.84011 0.0
H797 H 0.96877 0.55599 0.85233 0.0
H798 H 0.94837 0.53799 0.87994 0.0
H799 H 0.90738 0.53042 0.87859 0.0
H800 H 0.23204 0.38079 0.37476 0.0
H801 H 0.25401 0.33298 0.37958 0.0
H802 H 0.19242 0.28223 0.39188 0.0
H803 H 0.17007 0.33042 0.38707 0.0
H804 H 0.25651 0.28979 0.4112 0.0
H805 H 0.2226 0.23609 0.34672 0.0
H806 H 0.22039 0.2776 0.35142 0.0
H807 H 0.2021 0.2504 0.36313 0.0
C808 C 0.22309 0.35956 0.37863 0.0
C809 C 0.19925 0.35932 0.38036 0.0
C810 C 0.23574 0.33227 0.38146 0.0
C811 C 0.22486 0.30403 0.38592 0.0
C812 C 0.20111 0.3038 0.38829 0.0
H813 H 0.27688 0.11411 0.3825 0.0
H814 H 0.25374 0.16084 0.38713 0.0
C815 C 0.18839 0.33131 0.3856 0.0
C816 C 0.23844 0.27471 0.38692 0.0
H817 H 0.2494 0.20696 0.36343 0.0
C818 C 0.25488 0.27149 0.40087 0.0
C819 C 0.2364 0.25108 0.37333 0.0
C820 C 0.21956 0.25384 0.35769 0.0
C821 C 0.26918 0.24503 0.40169 0.0
C822 C 0.26738 0.22157 0.3879 0.0
C823 C 0.25082 0.22485 0.37403 0.0
C824 C 0.28215 0.19314 0.38748 0.0
C825 C 0.28578 0.24226 0.41747 0.0
C826 C 0.30602 0.19546 0.38654 0.0
C827 C 0.31943 0.16846 0.38417 0.0
C828 C 0.30911 0.13888 0.38229 0.0
C829 C 0.28534 0.13662 0.38376 0.0
C830 C 0.27205 0.16335 0.38641 0.0
H831 H 0.28045 0.25674 0.42948 0.0
H832 H 0.28757 0.2175 0.42204 0.0
H833 H 0.30269 0.25079 0.41289 0.0
H834 H 0.31424 0.2182 0.38692 0.0
H835 H 0.3377 0.17091 0.38292 0.0
H836 H 0.73212 0.88076 0.3726 0.0
H837 H 0.75392 0.83284 0.37746 0.0
H838 H 0.69256 0.78355 0.39231 0.0
H839 H 0.67037 0.83192 0.38753 0.0
H840 H 0.75647 0.79108 0.41053 0.0
H841 H 0.72187 0.73517 0.34691 0.0
H842 H 0.72045 0.77701 0.35077 0.0
H843 H 0.70179 0.75118 0.36314 0.0
C844 C 0.72317 0.85982 0.377 0.0
C845 C 0.69944 0.86007 0.37952 0.0
C846 C 0.73573 0.83248 0.37986 0.0
C847 C 0.72486 0.80465 0.38513 0.0
C848 C 0.70124 0.80484 0.38814 0.0
H849 H 0.77642 0.61454 0.38341 0.0
H850 H 0.75337 0.66148 0.38759 0.0
C851 C 0.6886 0.83242 0.38543 0.0
C852 C 0.73834 0.77531 0.38644 0.0
H853 H 0.74912 0.70688 0.36362 0.0
C854 C 0.75479 0.77246 0.4004 0.0
C855 C 0.7362 0.75129 0.37311 0.0
C856 C 0.71926 0.75366 0.35752 0.0
C857 C 0.76903 0.74597 0.40148 0.0
C858 C 0.76717 0.72213 0.38793 0.0
C859 C 0.75059 0.72506 0.37404 0.0
C860 C 0.78187 0.69364 0.38779 0.0
C861 C 0.78562 0.7436 0.4173 0.0
C862 C 0.80576 0.69582 0.38695 0.0
C863 C 0.81911 0.6687 0.38487 0.0
C864 C 0.80871 0.63915 0.38317 0.0
C865 C 0.78492 0.63703 0.38454 0.0
C866 C 0.7717 0.66389 0.38692 0.0
H867 H 0.78027 0.75838 0.42918 0.0
H868 H 0.78741 0.71897 0.42209 0.0
H869 H 0.80253 0.75204 0.41266 0.0
H870 H 0.81404 0.71852 0.38717 0.0
H871 H 0.83739 0.671 0.38369 0.0
H872 H 0.16776 0.67267 0.10308 0.0
H873 H 0.19039 0.72061 0.09809 0.0
H874 H 0.25206 0.66751 0.10567 0.0
H875 H 0.22982 0.62002 0.11069 0.0
H876 H 0.22198 0.74456 0.12538 0.0
H877 H 0.26504 0.72011 0.05875 0.0
H878 H 0.2394 0.70006 0.06585 0.0
H879 H 0.26643 0.68869 0.07526 0.0
C880 C 0.18614 0.67121 0.10336 0.0
C881 C 0.19699 0.64262 0.10735 0.0
C882 C 0.19904 0.69855 0.10053 0.0
C883 C 0.22293 0.69752 0.10128 0.0
C884 C 0.23371 0.66878 0.10469 0.0
H885 H 0.33596 0.82941 0.10669 0.0
H886 H 0.31187 0.78253 0.1028 0.0
C887 C 0.22091 0.64168 0.10771 0.0
C888 C 0.23673 0.72669 0.10033 0.0
H889 H 0.28007 0.7622 0.07676 0.0
C890 C 0.23447 0.74866 0.11462 0.0
C891 C 0.2533 0.73164 0.08646 0.0
C892 C 0.25614 0.70903 0.0706 0.0
C893 C 0.2487 0.77508 0.11571 0.0
C894 C 0.26525 0.7802 0.1018 0.0
C895 C 0.26741 0.75831 0.0874 0.0
C896 C 0.2802 0.8084 0.10201 0.0
C897 C 0.24636 0.79662 0.13217 0.0
C898 C 0.27052 0.83847 0.10206 0.0
C899 C 0.28412 0.86498 0.1045 0.0
C900 C 0.30781 0.86214 0.10654 0.0
C901 C 0.31776 0.83225 0.10518 0.0
C902 C 0.30401 0.80551 0.10299 0.0
H903 H 0.23794 0.78468 0.14397 0.0
H904 H 0.2632 0.80538 0.13682 0.0
H905 H 0.23575 0.8171 0.12829 0.0
H906 H 0.2523 0.8414 0.10076 0.0
H907 H 0.27599 0.88776 0.10519 0.0
H908 H 0.66921 0.17125 0.10491 0.0
H909 H 0.69152 0.21968 0.10056 0.0
H910 H 0.75339 0.16798 0.11012 0.0
H911 H 0.73145 0.12003 0.11463 0.0
H912 H 0.72319 0.24326 0.12958 0.0
H913 H 0.7661 0.22137 0.06245 0.0
H914 H 0.73993 0.20204 0.06899 0.0
H915 H 0.7665 0.18937 0.07865 0.0
C916 C 0.68758 0.17022 0.10581 0.0
C917 C 0.69856 0.1419 0.1102 0.0
C918 C 0.70028 0.19782 0.10333 0.0
C919 C 0.72412 0.19728 0.10482 0.0
C920 C 0.73507 0.16884 0.10864 0.0
H921 H 0.83533 0.33284 0.10927 0.0
H922 H 0.81211 0.28501 0.10575 0.0
C923 C 0.72244 0.14149 0.11135 0.0
C924 C 0.73763 0.22668 0.10412 0.0
H925 H 0.78003 0.264 0.08041 0.0
C926 C 0.73542 0.24804 0.11872 0.0
C927 C 0.7539 0.23242 0.09013 0.0
C928 C 0.75674 0.21025 0.07406 0.0
C929 C 0.74936 0.27473 0.11995 0.0
C930 C 0.7655 0.28078 0.10585 0.0
C931 C 0.76766 0.25941 0.09118 0.0
C932 C 0.77986 0.30955 0.10607 0.0
C933 C 0.74714 0.29558 0.13673 0.0
C934 C 0.76954 0.33918 0.10665 0.0
C935 C 0.78265 0.36619 0.1089 0.0
C936 C 0.80646 0.36433 0.1102 0.0
C937 C 0.81701 0.33491 0.10836 0.0
C938 C 0.80376 0.30764 0.10637 0.0
H939 H 0.7394 0.28285 0.14855 0.0
H940 H 0.76393 0.30489 0.14112 0.0
H941 H 0.73592 0.31571 0.13336 0.0
H942 H 0.75122 0.34138 0.10584 0.0
H943 H 0.77404 0.3886 0.10993 0.0
H944 H 0.67814 0.84478 0.58636 0.0
H945 H 0.70169 0.79846 0.57948 0.0
H946 H 0.74156 0.81639 0.62839 0.0
H947 H 0.71894 0.86288 0.63478 0.0
H948 H 0.76856 0.80399 0.6004 0.0
H949 H 0.70047 0.71346 0.60297 0.0
H950 H 0.69637 0.74382 0.58612 0.0
H951 H 0.69573 0.75337 0.6103 0.0
C952 C 0.69181 0.83853 0.59568 0.0
C953 C 0.6967 0.85738 0.61111 0.0
C954 C 0.70524 0.81205 0.59177 0.0
C955 C 0.72337 0.80371 0.60349 0.0
C956 C 0.72784 0.82235 0.61905 0.0
H957 H 0.78608 0.63414 0.63195 0.0
H958 H 0.76338 0.68068 0.62614 0.0
C959 C 0.71479 0.8489 0.62274 0.0
C960 C 0.7381 0.77592 0.59989 0.0
H961 H 0.73769 0.69584 0.59786 0.0
C962 C 0.76182 0.78031 0.59968 0.0
C963 C 0.72931 0.74504 0.5989 0.0
C964 C 0.70411 0.73846 0.59972 0.0
C965 C 0.77694 0.75478 0.59972 0.0
C966 C 0.76814 0.72386 0.59925 0.0
C967 C 0.74445 0.71954 0.59824 0.0
C968 C 0.78272 0.69574 0.6023 0.0
C969 C 0.80209 0.76122 0.60147 0.0
C970 C 0.80148 0.68861 0.59095 0.0
C971 C 0.81494 0.66203 0.59453 0.0
C972 C 0.80949 0.64189 0.60925 0.0
C973 C 0.79068 0.64907 0.62043 0.0
C974 C 0.77759 0.67568 0.61708 0.0
H975 H 0.80558 0.78584 0.60567 0.0
H976 H 0.81001 0.74528 0.61174 0.0
H977 H 0.81041 0.75718 0.58792 0.0
H978 H 0.80556 0.70333 0.57923 0.0
H979 H 0.82921 0.65686 0.58558 0.0
H980 H 0.17329 0.32807 0.6047 0.0
H981 H 0.19721 0.28119 0.60058 0.0
H982 H 0.25725 0.33935 0.60175 0.0
H983 H 0.23367 0.38573 0.60642 0.0
H984 H 0.2298 0.26221 0.5751 0.0
H985 H 0.26925 0.27954 0.64391 0.0
H986 H 0.24453 0.30118 0.63653 0.0
H987 H 0.27246 0.31288 0.62903 0.0
C988 C 0.19157 0.33078 0.60388 0.0
C989 C 0.20165 0.36044 0.60619 0.0
C990 C 0.20522 0.30404 0.60155 0.0
C991 C 0.22907 0.30669 0.60137 0.0
C992 C 0.23896 0.33659 0.60242 0.0
H993 H 0.33952 0.16834 0.60246 0.0
H994 H 0.31775 0.21695 0.59744 0.0
C995 C 0.22543 0.36311 0.605 0.0
C996 C 0.24375 0.2783 0.60092 0.0
H997 H 0.28543 0.24016 0.62495 0.0
C998 C 0.24194 0.25736 0.586 0.0
C999 C 0.2596 0.27193 0.61518 0.0
C1000 C 0.26146 0.29238 0.63215 0.0
C1001 C 0.25569 0.2304 0.58492 0.0
C1002 C 0.27154 0.2242 0.59914 0.0
C1003 C 0.27349 0.24524 0.61394 0.0
C1004 C 0.28482 0.19464 0.5999 0.0
C1005 C 0.25322 0.20873 0.56857 0.0
C1006 C 0.27351 0.16614 0.60287 0.0
C1007 C 0.28582 0.13864 0.60593 0.0
C1008 C 0.30974 0.139 0.60601 0.0
C1009 C 0.32112 0.16735 0.60238 0.0
C1010 C 0.30872 0.19507 0.59954 0.0
H1011 H 0.2447 0.22053 0.55677 0.0
H1012 H 0.27007 0.19996 0.56397 0.0
H1013 H 0.24276 0.18817 0.57262 0.0
H1014 H 0.25511 0.16536 0.60353 0.0
H1015 H 0.27654 0.11715 0.60863 0.0
H1016 H 0.72879 0.11724 0.88436 0.0
H1017 H 0.75224 0.16375 0.88896 0.0
H1018 H 0.69279 0.22242 0.88381 0.0
H1019 H 0.66897 0.1754 0.87993 0.0
H1020 H 0.75931 0.20719 0.86425 0.0
H1021 H 0.72364 0.26447 0.92651 0.0
H1022 H 0.71637 0.22479 0.92003 0.0
H1023 H 0.70267 0.25758 0.90899 0.0
C1024 C 0.72062 0.14003 0.88457 0.0
C1025 C 0.69707 0.14275 0.88174 0.0
C1026 C 0.73407 0.16663 0.88719 0.0
C1027 C 0.72438 0.19671 0.88683 0.0
C1028 C 0.70067 0.1995 0.88457 0.0
H1029 H 0.77698 0.38203 0.87061 0.0
H1030 H 0.75453 0.33468 0.87547 0.0
C1031 C 0.68705 0.17266 0.88227 0.0
C1032 C 0.73952 0.22477 0.88707 0.0
H1033 H 0.74927 0.29526 0.90827 0.0
C1034 C 0.75725 0.22623 0.87406 0.0
C1035 C 0.73689 0.24972 0.89982 0.0
C1036 C 0.71901 0.24899 0.91474 0.0
C1037 C 0.77201 0.25209 0.87316 0.0
C1038 C 0.7691 0.27724 0.88566 0.0
C1039 C 0.75154 0.27581 0.89878 0.0
C1040 C 0.78297 0.30627 0.88424 0.0
C1041 C 0.79016 0.25283 0.85843 0.0
C1042 C 0.80647 0.30618 0.88787 0.0
C1043 C 0.81949 0.33343 0.88513 0.0
C1044 C 0.80917 0.36106 0.87862 0.0
C1045 C 0.78554 0.36111 0.87549 0.0
C1046 C 0.7726 0.33409 0.87834 0.0
H1047 H 0.78785 0.2339 0.84804 0.0
H1048 H 0.79013 0.27583 0.85121 0.0
H1049 H 0.80708 0.24978 0.86496 0.0
H1050 H 0.81475 0.28494 0.89258 0.0
H1051 H 0.83761 0.3327 0.88773 0.0
H1052 H 0.17167 0.67125 0.88237 0.0
H1053 H 0.19482 0.71897 0.88657 0.0
H1054 H 0.25583 0.66296 0.8848 0.0
H1055 H 0.23307 0.61584 0.88009 0.0
H1056 H 0.22756 0.73847 0.91216 0.0
H1057 H 0.26643 0.7241 0.84294 0.0
H1058 H 0.24204 0.70165 0.85028 0.0
H1059 H 0.2702 0.69032 0.85739 0.0
C1060 C 0.19 0.66921 0.88306 0.0
C1061 C 0.20058 0.63994 0.88059 0.0
C1062 C 0.20321 0.69642 0.88544 0.0
C1063 C 0.22711 0.69462 0.88549 0.0
C1064 C 0.2375 0.66509 0.88423 0.0
H1065 H 0.33732 0.8333 0.88553 0.0
H1066 H 0.3154 0.7846 0.88999 0.0
C1067 C 0.22442 0.63814 0.88162 0.0
C1068 C 0.2414 0.72344 0.88609 0.0
H1069 H 0.28285 0.76275 0.86239 0.0
C1070 C 0.2396 0.74384 0.90126 0.0
C1071 C 0.25711 0.73049 0.87184 0.0
C1072 C 0.25894 0.71067 0.85461 0.0
C1073 C 0.25331 0.77084 0.90265 0.0
C1074 C 0.26912 0.77763 0.88848 0.0
C1075 C 0.27097 0.75721 0.87338 0.0
C1076 C 0.28252 0.80717 0.88813 0.0
C1077 C 0.25091 0.79183 0.91931 0.0
C1078 C 0.27131 0.83588 0.88572 0.0
C1079 C 0.2837 0.86343 0.88298 0.0
C1080 C 0.30762 0.86295 0.88267 0.0
C1081 C 0.31892 0.8344 0.8858 0.0
C1082 C 0.30643 0.80662 0.88832 0.0
H1083 H 0.24244 0.77955 0.93096 0.0
H1084 H 0.26778 0.80045 0.92398 0.0
H1085 H 0.24043 0.81253 0.91557 0.0
H1086 H 0.25291 0.8368 0.88521 0.0
H1087 H 0.27447 0.88507 0.88066 0.0
H1088 H 0.36006 0.08117 0.30962 0.0
H1089 H 0.36095 0.06349 0.27748 0.0
H1090 H 0.3253 0.97891 0.29275 0.0
H1091 H 0.32429 0.99642 0.32498 0.0
H1092 H 0.37916 0.00559 0.26235 0.0
H1093 H 0.28622 0.01995 0.251 0.0
H1094 H 0.30102 0.03822 0.27003 0.0
H1095 H 0.29417 0.99717 0.27087 0.0
C1096 C 0.35246 0.05876 0.30615 0.0
C1097 C 0.34196 0.04025 0.31976 0.0
C1098 C 0.35302 0.04871 0.28781 0.0
C1099 C 0.34294 0.02014 0.28278 0.0
C1100 C 0.33289 0.00125 0.29638 0.0
H1101 H 0.35502 0.9164 0.18054 0.0
H1102 H 0.35686 0.93473 0.21249 0.0
C1103 C 0.3324 0.01122 0.31476 0.0
C1104 C 0.34274 0.01032 0.26322 0.0
H1105 H 0.30731 0.99663 0.2268 0.0
C1106 C 0.36349 0.00363 0.25453 0.0
C1107 C 0.32226 0.00827 0.25308 0.0
C1108 C 0.29962 0.01651 0.26161 0.0
C1109 C 0.36426 0.99436 0.23595 0.0
C1110 C 0.34372 0.9915 0.22594 0.0
C1111 C 0.32301 0.99871 0.23457 0.0
C1112 C 0.34327 0.98082 0.20653 0.0
C1113 C 0.38705 0.9881 0.22711 0.0
C1114 C 0.33466 1.00052 0.19267 0.0
C1115 C 0.33348 0.99006 0.1744 0.0
C1116 C 0.34074 0.95965 0.16977 0.0
C1117 C 0.34938 0.94001 0.18369 0.0
C1118 C 0.35057 0.95048 0.20192 0.0
H1119 H 0.40118 0.99891 0.23508 0.0
H1120 H 0.39001 0.96238 0.2266 0.0
H1121 H 0.38753 0.99722 0.21276 0.0
H1122 H 0.32885 0.02397 0.196 0.0
H1123 H 0.32673 0.00568 0.16396 0.0
H1124 H 0.69085 0.00662 0.16831 0.0
H1125 H 0.68768 0.98965 0.20047 0.0
H1126 H 0.63022 0.05136 0.20807 0.0
H1127 H 0.6342 0.06963 0.17624 0.0
H1128 H 0.65733 0.05766 0.23554 0.0
H1129 H 0.64524 0.93045 0.22463 0.0
H1130 H 0.67107 0.94349 0.214 0.0
H1131 H 0.64413 0.9582 0.20587 0.0
C1132 C 0.67742 0.01626 0.17683 0.0
C1133 C 0.66277 0.03938 0.16987 0.0
C1134 C 0.67549 0.0064 0.19515 0.0
C1135 C 0.65842 0.01875 0.20663 0.0
C1136 C 0.64349 0.04143 0.1995 0.0
H1137 H 0.63425 0.93424 0.31444 0.0
H1138 H 0.62999 0.953 0.28274 0.0
C1139 C 0.64575 0.05181 0.18132 0.0
C1140 C 0.65697 0.0095 0.22634 0.0
H1141 H 0.65664 0.94617 0.25512 0.0
C1142 C 0.65688 0.03326 0.23981 0.0
C1143 C 0.65593 0.97772 0.23197 0.0
C1144 C 0.65383 0.95107 0.21833 0.0
C1145 C 0.65642 0.02613 0.2587 0.0
C1146 C 0.65706 0.99433 0.26432 0.0
C1147 C 0.65649 0.97058 0.25086 0.0
C1148 C 0.6586 0.98499 0.28402 0.0
C1149 C 0.65487 0.05282 0.27236 0.0
C1150 C 0.67597 0.99688 0.29538 0.0
C1151 C 0.67806 0.98674 0.31364 0.0
C1152 C 0.66327 0.9638 0.32064 0.0
C1153 C 0.64592 0.95189 0.30932 0.0
C1154 C 0.6435 0.96256 0.29121 0.0
H1155 H 0.64649 0.07365 0.26613 0.0
H1156 H 0.64523 0.04593 0.2849 0.0
H1157 H 0.67227 0.05999 0.27654 0.0
H1158 H 0.68829 0.01342 0.29001 0.0
H1159 H 0.69174 0.99599 0.32206 0.0
H1160 H 0.68061 0.99827 0.825 0.0
H1161 H 0.67858 0.98005 0.79292 0.0
H1162 H 0.6449 0.06597 0.77735 0.0
H1163 H 0.64668 0.08422 0.80931 0.0
H1164 H 0.62506 0.01069 0.76231 0.0
H1165 H 0.71846 0.01676 0.751 0.0
H1166 H 0.70968 0.99401 0.77065 0.0
H1167 H 0.70463 0.03559 0.77031 0.0
C1168 C 0.67272 0.0132 0.81474 0.0
C1169 C 0.66397 0.04275 0.8196 0.0
C1170 C 0.67165 0.00283 0.79645 0.0
C1171 C 0.66188 0.0219 0.78279 0.0
C1172 C 0.65259 0.05101 0.78771 0.0
H1173 H 0.67956 0.00552 0.66436 0.0
H1174 H 0.67719 0.02431 0.69627 0.0
C1175 C 0.65367 0.0614 0.80596 0.0
C1176 C 0.66165 0.01185 0.76327 0.0
H1177 H 0.69637 0.99502 0.72687 0.0
C1178 C 0.64062 0.00724 0.75452 0.0
C1179 C 0.68199 0.00793 0.75315 0.0
C1180 C 0.705 0.01407 0.76165 0.0
C1181 C 0.63942 0.99829 0.7359 0.0
C1182 C 0.65979 0.99352 0.72592 0.0
C1183 C 0.68079 0.99857 0.73462 0.0
C1184 C 0.6598 0.98302 0.70647 0.0
C1185 C 0.61638 0.99449 0.727 0.0
C1186 C 0.65077 0.95365 0.7017 0.0
C1187 C 0.65207 0.94291 0.68352 0.0
C1188 C 0.66259 0.96128 0.66985 0.0
C1189 C 0.67137 0.99087 0.67461 0.0
C1190 C 0.67004 0.00161 0.6928 0.0
H1191 H 0.6029 0.00688 0.73489 0.0
H1192 H 0.61649 0.00352 0.71262 0.0
H1193 H 0.61192 0.96918 0.72655 0.0
H1194 H 0.6432 0.9387 0.71212 0.0
H1195 H 0.64523 0.91995 0.68026 0.0
H1196 H 0.31952 0.00483 0.82439 0.0
H1197 H 0.32087 0.02202 0.79209 0.0
H1198 H 0.35854 0.93873 0.77764 0.0
H1199 H 0.35728 0.92138 0.80981 0.0
H1200 H 0.37612 0.99776 0.763 0.0
H1201 H 0.28405 0.97868 0.74941 0.0
H1202 H 0.29086 0.00153 0.76956 0.0
H1203 H 0.29868 0.96083 0.76864 0.0
C1204 C 0.32812 0.99024 0.81433 0.0
C1205 C 0.33817 0.96168 0.81957 0.0
C1206 C 0.32881 1.00002 0.79592 0.0
C1207 C 0.33958 0.98142 0.78253 0.0
C1208 C 0.35007 0.95329 0.7878 0.0
H1209 H 0.32692 0.994 0.66337 0.0
H1210 H 0.32823 0.97622 0.69553 0.0
C1211 C 0.34929 0.94342 0.80616 0.0
C1212 C 0.33984 0.99112 0.76296 0.0
H1213 H 0.30551 0.00244 0.7256 0.0
C1214 C 0.36072 0.99881 0.75478 0.0
C1215 C 0.31973 0.99195 0.75231 0.0
C1216 C 0.29703 0.98259 0.76031 0.0
C1217 C 0.36198 0.00783 0.73618 0.0
C1218 C 0.34177 0.00948 0.72564 0.0
C1219 C 0.32094 0.0013 0.73377 0.0
C1220 C 0.3418 0.01987 0.70616 0.0
C1221 C 0.38494 0.0151 0.72792 0.0
C1222 C 0.34889 0.05031 0.70156 0.0
C1223 C 0.34822 0.06046 0.68325 0.0
C1224 C 0.34025 0.04042 0.66925 0.0
C1225 C 0.33315 0.00993 0.67387 0.0
C1226 C 0.33387 0.99977 0.69221 0.0
H1227 H 0.39898 0.00478 0.73619 0.0
H1228 H 0.38616 0.00614 0.71355 0.0
H1229 H 0.38741 0.04092 0.72759 0.0
H1230 H 0.35461 0.0664 0.71217 0.0
H1231 H 0.35368 0.08416 0.68011 0.0
H1232 H 0.81211 0.49872 0.16882 0.0
H1233 H 0.81497 0.51572 0.20103 0.0
H1234 H 0.87392 0.45666 0.20837 0.0
H1235 H 0.87025 0.43832 0.17654 0.0
H1236 H 0.84708 0.44858 0.23569 0.0
H1237 H 0.85571 0.57661 0.22566 0.0
H1238 H 0.83017 0.56224 0.21516 0.0
H1239 H 0.85743 0.54928 0.2067 0.0
C1240 C 0.8258 0.4897 0.1773 0.0
C1241 C 0.84094 0.46723 0.17029 0.0
C1242 C 0.82754 0.49958 0.19566 0.0
C1243 C 0.84492 0.48792 0.20709 0.0
C1244 C 0.86038 0.46602 0.19986 0.0
H1245 H 0.87153 0.57 0.31517 0.0
H1246 H 0.87412 0.55293 0.28299 0.0
C1247 C 0.8583 0.45559 0.18168 0.0
C1248 C 0.84619 0.49691 0.22687 0.0
H1249 H 0.84591 0.55961 0.25619 0.0
C1250 C 0.84708 0.4729 0.24015 0.0
C1251 C 0.84659 0.5286 0.23275 0.0
C1252 C 0.84768 0.55561 0.21929 0.0
C1253 C 0.84794 0.47963 0.25909 0.0
C1254 C 0.84686 0.51127 0.26499 0.0
C1255 C 0.84643 0.53531 0.25171 0.0
C1256 C 0.84608 0.52008 0.28481 0.0
C1257 C 0.8505 0.45271 0.27247 0.0
C1258 C 0.82954 0.50722 0.29661 0.0
C1259 C 0.82842 0.51638 0.31511 0.0
C1260 C 0.84335 0.53929 0.32197 0.0
C1261 C 0.85979 0.5523 0.31018 0.0
C1262 C 0.86125 0.54262 0.2918 0.0
H1263 H 0.85891 0.43224 0.26585 0.0
H1264 H 0.86058 0.45963 0.28478 0.0
H1265 H 0.83341 0.44496 0.2771 0.0
H1266 H 0.81717 0.49058 0.29144 0.0
H1267 H 0.8154 0.50631 0.32388 0.0
H1268 H 0.14729 0.41753 0.30859 0.0
H1269 H 0.14545 0.43555 0.27655 0.0
H1270 H 0.1807 0.52058 0.29165 0.0
H1271 H 0.18268 0.50271 0.32375 0.0
H1272 H 0.12655 0.49344 0.26177 0.0
H1273 H 0.21937 0.48009 0.24944 0.0
H1274 H 0.20495 0.46157 0.26857 0.0
H1275 H 0.21169 0.50267 0.26947 0.0
C1276 C 0.15459 0.44011 0.3051 0.0
C1277 C 0.16529 0.45864 0.31861 0.0
C1278 C 0.15347 0.45036 0.28683 0.0
C1279 C 0.16319 0.47915 0.28178 0.0
C1280 C 0.17339 0.49807 0.2953 0.0
H1281 H 0.14964 0.5851 0.18068 0.0
H1282 H 0.14766 0.5656 0.21238 0.0
C1283 C 0.17444 0.48789 0.3136 0.0
C1284 C 0.16301 0.48912 0.26227 0.0
H1285 H 0.19787 0.50395 0.22567 0.0
C1286 C 0.1421 0.49572 0.25383 0.0
C1287 C 0.18334 0.49155 0.25197 0.0
C1288 C 0.20614 0.48337 0.26021 0.0
C1289 C 0.14102 0.50536 0.23533 0.0
C1290 C 0.16142 0.5087 0.22518 0.0
C1291 C 0.18228 0.50152 0.23355 0.0
C1292 C 0.16161 0.51991 0.20589 0.0
C1293 C 0.11809 0.51155 0.22674 0.0
C1294 C 0.17043 0.50081 0.19183 0.0
C1295 C 0.17172 0.51194 0.17373 0.0
C1296 C 0.16434 0.54244 0.16947 0.0
C1297 C 0.15538 0.56145 0.18356 0.0
C1298 C 0.1541 0.5503 0.20164 0.0
H1299 H 0.10414 0.50027 0.23469 0.0
H1300 H 0.11492 0.53722 0.22654 0.0
H1301 H 0.1175 0.50287 0.21228 0.0
H1302 H 0.17641 0.47733 0.1949 0.0
H1303 H 0.17869 0.49678 0.16314 0.0
H1304 H 0.18661 0.49678 0.82385 0.0
H1305 H 0.18505 0.47847 0.79178 0.0
H1306 H 0.14718 0.56114 0.77654 0.0
H1307 H 0.14867 0.57966 0.8085 0.0
H1308 H 0.13 0.50044 0.76247 0.0
H1309 H 0.22178 0.52235 0.74888 0.0
H1310 H 0.21517 0.50015 0.76932 0.0
H1311 H 0.20671 0.54054 0.76779 0.0
C1312 C 0.17789 0.51098 0.81367 0.0
C1313 C 0.1679 0.53973 0.81861 0.0
C1314 C 0.17707 0.50054 0.7954 0.0
C1315 C 0.1662 0.51867 0.78186 0.0
C1316 C 0.1557 0.54694 0.78684 0.0
H1317 H 0.17944 0.50435 0.66303 0.0
H1318 H 0.17731 0.52261 0.69506 0.0
C1319 C 0.15662 0.55748 0.80507 0.0
C1320 C 0.16613 0.50847 0.7624 0.0
H1321 H 0.20078 0.49755 0.7252 0.0
C1322 C 0.14543 0.49977 0.75427 0.0
C1323 C 0.18629 0.50813 0.75179 0.0
C1324 C 0.20877 0.5185 0.75977 0.0
C1325 C 0.14441 0.4902 0.73575 0.0
C1326 C 0.16467 0.48912 0.72526 0.0
C1327 C 0.18531 0.49828 0.73335 0.0
C1328 C 0.16492 0.47843 0.70585 0.0
C1329 C 0.12165 0.48177 0.72751 0.0
C1330 C 0.15874 0.44754 0.7014 0.0
C1331 C 0.1599 0.4371 0.68316 0.0
C1332 C 0.16744 0.45731 0.66911 0.0
C1333 C 0.17357 0.48827 0.67359 0.0
C1334 C 0.17236 0.49872 0.69184 0.0
H1335 H 0.10735 0.49146 0.73576 0.0
H1336 H 0.12022 0.49055 0.71312 0.0
H1337 H 0.11985 0.45584 0.72722 0.0
H1338 H 0.15339 0.43136 0.71209 0.0
H1339 H 0.15517 0.41306 0.68012 0.0
H1340 H 0.82806 0.49789 0.66485 0.0
H1341 H 0.83051 0.48115 0.69715 0.0
H1342 H 0.86479 0.5675 0.71108 0.0
H1343 H 0.86259 0.5843 0.67884 0.0
H1344 H 0.88431 0.51252 0.7271 0.0
H1345 H 0.79104 0.52067 0.73847 0.0
H1346 H 0.79944 0.49686 0.71915 0.0
H1347 H 0.80499 0.53834 0.71885 0.0
C1348 C 0.8362 0.51323 0.67478 0.0
C1349 C 0.84494 0.54252 0.66938 0.0
C1350 C 0.83751 0.5037 0.69321 0.0
C1351 C 0.84751 0.52334 0.70648 0.0
C1352 C 0.85691 0.55212 0.70102 0.0
H1353 H 0.82974 0.5084 0.82526 0.0
H1354 H 0.83253 0.5276 0.79345 0.0
C1355 C 0.85559 0.56168 0.68262 0.0
C1356 C 0.84774 0.51425 0.72617 0.0
H1357 H 0.81291 0.49878 0.76271 0.0
C1358 C 0.86873 0.50955 0.73493 0.0
C1359 C 0.82738 0.51095 0.73635 0.0
C1360 C 0.80441 0.51722 0.72782 0.0
C1361 C 0.86988 0.50094 0.75361 0.0
C1362 C 0.84947 0.49665 0.76363 0.0
C1363 C 0.82851 0.50196 0.75494 0.0
C1364 C 0.84936 0.48602 0.78306 0.0
C1365 C 0.89287 0.49683 0.76251 0.0
C1366 C 0.85792 0.45634 0.78769 0.0
C1367 C 0.85634 0.44535 0.80579 0.0
C1368 C 0.84603 0.46378 0.81954 0.0
C1369 C 0.83776 0.4937 0.81494 0.0
C1370 C 0.83934 0.50468 0.79681 0.0
H1371 H 0.90646 0.50897 0.75459 0.0
H1372 H 0.89286 0.50593 0.77688 0.0
H1373 H 0.89711 0.47146 0.76299 0.0
H1374 H 0.86531 0.44134 0.7772 0.0
H1375 H 0.86282 0.42215 0.80892 0.0
loop_
_geom_bond_atom_site_label_1
_geom_bond_atom_site_label_2
_geom_bond_distance
_geom_bond_site_symmetry_2
_ccdc_geom_bond_type
Co0 O1 2.216 . S
Co0 O2 2.091 . S
Co0 O4 2.004 . S
Co0 O10 2.021 . S
Co0 O12 2.137 . S
Co0 O13 2.244 . S
O1 Co0 2.216 . S
O1 C8 1.247 . S
O2 Co0 2.091 . S
O2 C8 1.261 . S
C3 O12 1.247 . S
C3 O13 1.272 . S
O4 Co0 2.004 . S
O4 C9 1.259 . S
Co5 O6 2.061 1_565 S
Co5 O11 2.063 . S
Co5 O13 2.135 1_565 S
O6 Co5 2.061 1_545 S
O6 C9 1.235 . S
C7 O10 1.238 . S
C7 O11 1.219 1_545 S
C8 O1 1.247 . S
C8 O2 1.261 . S
C9 O4 1.259 . S
C9 O6 1.235 . S
O10 Co0 2.021 . S
O10 C7 1.238 . S
O11 Co5 2.063 . S
O11 C7 1.219 1_565 S
O12 Co0 2.137 . S
O12 C3 1.247 . S
O13 Co0 2.244 . S
O13 C3 1.272 . S
O13 Co5 2.135 1_545 S
Co14 O15 2.216 . S
Co14 O16 2.091 . S
Co14 O18 2.004 . S
Co14 O24 2.021 . S
Co14 O26 2.137 . S
Co14 O27 2.244 . S
O15 Co14 2.216 . S
O15 C22 1.247 . S
O16 Co14 2.091 . S
O16 C22 1.261 . S
C17 O26 1.247 . S
C17 O27 1.272 . S
O18 Co14 2.004 . S
O18 C23 1.259 . S
Co19 O20 2.061 1_545 S
Co19 O25 2.063 . S
Co19 O27 2.135 1_545 S
O20 Co19 2.061 1_565 S
O20 C23 1.235 . S
C21 O24 1.238 . S
C21 O25 1.218 1_565 S
C22 O15 1.247 . S
C22 O16 1.261 . S
C23 O18 1.259 . S
C23 O20 1.235 . S
O24 Co14 2.021 . S
O24 C21 1.238 . S
O25 Co19 2.063 . S
O25 C21 1.218 1_545 S
O26 Co14 2.137 . S
O26 C17 1.247 . S
O27 Co14 2.244 . S
O27 C17 1.272 . S
O27 Co19 2.135 1_565 S
Co28 O29 2.216 . S
Co28 O30 2.091 . S
Co28 O32 2.004 . S
Co28 O38 2.021 . S
Co28 O40 2.137 . S
Co28 O41 2.244 . S
O29 Co28 2.216 . S
O29 C36 1.247 . S
O30 Co28 2.091 . S
O30 C36 1.261 . S
C31 O40 1.247 . S
C31 O41 1.272 . S
O32 Co28 2.004 . S
O32 C37 1.259 . S
Co33 O34 2.061 1_545 S
Co33 O39 2.063 . S
Co33 O41 2.135 1_545 S
O34 Co33 2.061 1_565 S
O34 C37 1.235 . S
C35 O38 1.238 . S
C35 O39 1.219 1_565 S
C36 O29 1.247 . S
C36 O30 1.261 . S
C37 O32 1.259 . S
C37 O34 1.235 . S
O38 Co28 2.021 . S
O38 C35 1.238 . S
O39 Co33 2.063 . S
O39 C35 1.219 1_545 S
O40 Co28 2.137 . S
O40 C31 1.247 . S
O41 Co28 2.244 . S
O41 C31 1.272 . S
O41 Co33 2.135 1_565 S
Co42 O43 2.216 . S
Co42 O44 2.091 . S
Co42 O46 2.004 . S
Co42 O52 2.021 . S
Co42 O54 2.137 . S
Co42 O55 2.244 . S
O43 Co42 2.216 . S
O43 C50 1.247 . S
O44 Co42 2.091 . S
O44 C50 1.261 . S
C45 O54 1.247 . S
C45 O55 1.272 . S
O46 Co42 2.004 . S
O46 C51 1.259 . S
Co47 O48 2.061 1_565 S
Co47 O53 2.063 . S
Co47 O55 2.135 1_565 S
O48 Co47 2.061 1_545 S
O48 C51 1.235 . S
C49 O52 1.238 . S
C49 O53 1.218 1_545 S
C50 O43 1.247 . S
C50 O44 1.261 . S
C51 O46 1.259 . S
C51 O48 1.235 . S
O52 Co42 2.021 . S
O52 C49 1.238 . S
O53 Co47 2.063 . S
O53 C49 1.218 1_565 S
O54 Co42 2.137 . S
O54 C45 1.247 . S
O55 Co42 2.244 . S
O55 C45 1.272 . S
O55 Co47 2.135 1_545 S
Co56 O57 2.216 . S
Co56 O58 2.091 . S
Co56 O60 2.004 . S
Co56 O66 2.021 . S
Co56 O68 2.137 . S
Co56 O69 2.244 . S
O57 Co56 2.216 . S
O57 C64 1.247 . S
O58 Co56 2.091 . S
O58 C64 1.261 . S
C59 O68 1.247 . S
C59 O69 1.272 . S
O60 Co56 2.004 . S
O60 C65 1.259 . S
Co61 O62 2.061 1_545 S
Co61 O67 2.063 . S
Co61 O69 2.135 1_545 S
O62 Co61 2.061 1_565 S
O62 C65 1.235 . S
C63 O66 1.238 . S
C63 O67 1.219 1_565 S
C64 O57 1.247 . S
C64 O58 1.261 . S
C65 O60 1.259 . S
C65 O62 1.235 . S
O66 Co56 2.021 . S
O66 C63 1.238 . S
O67 Co61 2.063 . S
O67 C63 1.219 1_545 S
O68 Co56 2.137 . S
O68 C59 1.247 . S
O69 Co56 2.244 . S
O69 C59 1.272 . S
O69 Co61 2.135 1_565 S
Co70 O71 2.216 . S
Co70 O72 2.091 . S
Co70 O74 2.004 . S
Co70 O80 2.021 . S
Co70 O82 2.137 . S
Co70 O83 2.244 . S
O71 Co70 2.216 . S
O71 C78 1.247 . S
O72 Co70 2.091 . S
O72 C78 1.261 . S
C73 O82 1.247 . S
C73 O83 1.272 . S
O74 Co70 2.004 . S
O74 C79 1.259 . S
Co75 O76 2.061 1_565 S
Co75 O81 2.063 . S
Co75 O83 2.135 1_565 S
O76 Co75 2.061 1_545 S
O76 C79 1.235 . S
C77 O80 1.238 . S
C77 O81 1.218 1_545 S
C78 O71 1.247 . S
C78 O72 1.261 . S
C79 O74 1.259 . S
C79 O76 1.235 . S
O80 Co70 2.021 . S
O80 C77 1.238 . S
O81 Co75 2.063 . S
O81 C77 1.218 1_565 S
O82 Co70 2.137 . S
O82 C73 1.247 . S
O83 Co70 2.244 . S
O83 C73 1.272 . S
O83 Co75 2.135 1_545 S
Co84 O85 2.216 . S
Co84 O86 2.091 . S
Co84 O88 2.004 . S
Co84 O94 2.021 . S
Co84 O96 2.137 . S
Co84 O97 2.244 . S
O85 Co84 2.216 . S
O85 C92 1.247 . S
O86 Co84 2.091 . S
O86 C92 1.261 . S
C87 O96 1.247 . S
C87 O97 1.272 . S
O88 Co84 2.004 . S
O88 C93 1.259 . S
Co89 O90 2.061 1_565 S
Co89 O95 2.063 . S
Co89 O97 2.135 1_565 S
O90 Co89 2.061 1_545 S
O90 C93 1.235 . S
C91 O94 1.238 . S
C91 O95 1.219 1_545 S
C92 O85 1.247 . S
C92 O86 1.261 . S
C93 O88 1.259 . S
C93 O90 1.235 . S
O94 Co84 2.021 . S
O94 C91 1.238 . S
O95 Co89 2.063 . S
O95 C91 1.219 1_565 S
O96 Co84 2.137 . S
O96 C87 1.247 . S
O97 Co84 2.244 . S
O97 C87 1.272 . S
O97 Co89 2.135 1_545 S
Co98 O99 2.216 . S
Co98 O100 2.091 . S
Co98 O102 2.004 . S
Co98 O108 2.021 . S
Co98 O110 2.137 . S
Co98 O111 2.244 . S
O99 Co98 2.216 . S
O99 C106 1.247 . S
O100 Co98 2.091 . S
O100 C106 1.261 . S
C101 O110 1.247 . S
C101 O111 1.272 . S
O102 Co98 2.004 . S
O102 C107 1.259 . S
Co103 O104 2.061 1_545 S
Co103 O109 2.063 . S
Co103 O111 2.135 1_545 S
O104 Co103 2.061 1_565 S
O104 C107 1.235 . S
C105 O108 1.238 . S
C105 O109 1.218 1_565 S
C106 O99 1.247 . S
C106 O100 1.261 . S
C107 O102 1.259 . S
C107 O104 1.235 . S
O108 Co98 2.021 . S
O108 C105 1.238 . S
O109 Co103 2.063 . S
O109 C105 1.218 1_545 S
O110 Co98 2.137 . S
O110 C101 1.247 . S
O111 Co98 2.244 . S
O111 C101 1.272 . S
O111 Co103 2.135 1_565 S
Co112 O113 2.216 . S
Co112 O114 2.091 . S
Co112 O116 2.004 . S
Co112 O122 2.021 . S
Co112 O124 2.137 . S
Co112 O125 2.244 . S
O113 Co112 2.216 . S
O113 C120 1.247 . S
O114 Co112 2.091 . S
O114 C120 1.261 . S
C115 O124 1.247 . S
C115 O125 1.272 . S
O116 Co112 2.004 . S
O116 C121 1.259 . S
Co117 O118 2.061 . S
Co117 O123 2.052 . S
Co117 O125 2.135 . S
O118 Co117 2.061 . S
O118 C121 1.235 . S
C119 O122 1.238 . S
C119 O123 1.241 . S
C120 O113 1.247 . S
C120 O114 1.261 . S
C121 O116 1.259 . S
C121 O118 1.235 . S
O122 Co112 2.021 . S
O122 C119 1.238 . S
O123 Co117 2.052 . S
O123 C119 1.241 . S
O124 Co112 2.137 . S
O124 C115 1.247 . S
O125 Co112 2.244 . S
O125 C115 1.272 . S
O125 Co117 2.135 . S
Co126 O127 2.216 . S
Co126 O128 2.091 . S
Co126 O130 2.004 . S
Co126 O136 2.021 . S
Co126 O138 2.137 . S
Co126 O139 2.244 . S
O127 Co126 2.216 . S
O127 C134 1.247 . S
O128 Co126 2.091 . S
O128 C134 1.261 . S
C129 O138 1.247 . S
C129 O139 1.272 . S
O130 Co126 2.004 . S
O130 C135 1.259 . S
Co131 O132 2.061 . S
Co131 O137 2.052 . S
Co131 O139 2.135 . S
O132 Co131 2.061 . S
O132 C135 1.235 . S
C133 O136 1.238 . S
C133 O137 1.241 . S
C134 O127 1.247 . S
C134 O128 1.261 . S
C135 O130 1.259 . S
C135 O132 1.235 . S
O136 Co126 2.021 . S
O136 C133 1.238 . S
O137 Co131 2.052 . S
O137 C133 1.241 . S
O138 Co126 2.137 . S
O138 C129 1.247 . S
O139 Co126 2.244 . S
O139 C129 1.272 . S
O139 Co131 2.135 . S
Co140 O141 2.216 . S
Co140 O142 2.091 . S
Co140 O144 2.004 . S
Co140 O150 2.021 . S
Co140 O152 2.137 . S
Co140 O153 2.244 . S
O141 Co140 2.216 . S
O141 C148 1.247 . S
O142 Co140 2.091 . S
O142 C148 1.261 . S
C143 O152 1.247 . S
C143 O153 1.272 . S
O144 Co140 2.004 . S
O144 C149 1.259 . S
Co145 O146 2.061 . S
Co145 O151 2.052 . S
Co145 O153 2.135 . S
O146 Co145 2.061 . S
O146 C149 1.235 . S
C147 O150 1.238 . S
C147 O151 1.241 . S
C148 O141 1.247 . S
C148 O142 1.261 . S
C149 O144 1.259 . S
C149 O146 1.235 . S
O150 Co140 2.021 . S
O150 C147 1.238 . S
O151 Co145 2.052 . S
O151 C147 1.241 . S
O152 Co140 2.137 . S
O152 C143 1.247 . S
O153 Co140 2.244 . S
O153 C143 1.272 . S
O153 Co145 2.135 . S
Co154 O155 2.216 . S
Co154 O156 2.091 . S
Co154 O158 2.004 . S
Co154 O164 2.021 . S
Co154 O166 2.137 . S
Co154 O167 2.244 . S
O155 Co154 2.216 . S
O155 C162 1.247 . S
O156 Co154 2.091 . S
O156 C162 1.261 . S
C157 O166 1.247 . S
C157 O167 1.272 . S
O158 Co154 2.004 . S
O158 C163 1.259 . S
Co159 O160 2.061 . S
Co159 O165 2.052 . S
Co159 O167 2.135 . S
O160 Co159 2.061 . S
O160 C163 1.235 . S
C161 O164 1.238 . S
C161 O165 1.241 . S
C162 O155 1.247 . S
C162 O156 1.261 . S
C163 O158 1.259 . S
C163 O160 1.235 . S
O164 Co154 2.021 . S
O164 C161 1.238 . S
O165 Co159 2.052 . S
O165 C161 1.241 . S
O166 Co154 2.137 . S
O166 C157 1.247 . S
O167 Co154 2.244 . S
O167 C157 1.272 . S
O167 Co159 2.135 . S
Co168 O169 2.216 . S
Co168 O170 2.091 . S
Co168 O172 2.004 . S
Co168 O178 2.021 . S
Co168 O180 2.137 . S
Co168 O181 2.244 . S
O169 Co168 2.216 . S
O169 C176 1.247 . S
O170 Co168 2.091 . S
O170 C176 1.261 . S
C171 O180 1.247 . S
C171 O181 1.272 . S
O172 Co168 2.004 . S
O172 C177 1.259 . S
Co173 O174 2.061 . S
Co173 O179 2.052 . S
Co173 O181 2.135 . S
O174 Co173 2.061 . S
O174 C177 1.235 . S
C175 O178 1.238 . S
C175 O179 1.241 . S
C176 O169 1.247 . S
C176 O170 1.261 . S
C177 O172 1.259 . S
C177 O174 1.235 . S
O178 Co168 2.021 . S
O178 C175 1.238 . S
O179 Co173 2.052 . S
O179 C175 1.241 . S
O180 Co168 2.137 . S
O180 C171 1.247 . S
O181 Co168 2.244 . S
O181 C171 1.272 . S
O181 Co173 2.135 . S
Co182 O183 2.216 . S
Co182 O184 2.091 . S
Co182 O186 2.004 . S
Co182 O192 2.021 . S
Co182 O194 2.137 . S
Co182 O195 2.244 . S
O183 Co182 2.216 . S
O183 C190 1.247 . S
O184 Co182 2.091 . S
O184 C190 1.261 . S
C185 O194 1.247 . S
C185 O195 1.272 . S
O186 Co182 2.004 . S
O186 C191 1.259 . S
Co187 O188 2.061 . S
Co187 O193 2.052 . S
Co187 O195 2.135 . S
O188 Co187 2.061 . S
O188 C191 1.235 . S
C189 O192 1.238 . S
C189 O193 1.241 . S
C190 O183 1.247 . S
C190 O184 1.261 . S
C191 O186 1.259 . S
C191 O188 1.235 . S
O192 Co182 2.021 . S
O192 C189 1.238 . S
O193 Co187 2.052 . S
O193 C189 1.241 . S
O194 Co182 2.137 . S
O194 C185 1.247 . S
O195 Co182 2.244 . S
O195 C185 1.272 . S
O195 Co187 2.135 . S
Co196 O197 2.216 . S
Co196 O198 2.091 . S
Co196 O200 2.004 . S
Co196 O206 2.021 . S
Co196 O208 2.137 . S
Co196 O209 2.244 . S
O197 Co196 2.216 . S
O197 C204 1.247 . S
O198 Co196 2.091 . S
O198 C204 1.261 . S
C199 O208 1.247 . S
C199 O209 1.272 . S
O200 Co196 2.004 . S
O200 C205 1.259 . S
Co201 O202 2.061 . S
Co201 O207 2.052 . S
Co201 O209 2.135 . S
O202 Co201 2.061 . S
O202 C205 1.235 . S
C203 O206 1.238 . S
C203 O207 1.241 . S
C204 O197 1.247 . S
C204 O198 1.261 . S
C205 O200 1.259 . S
C205 O202 1.235 . S
O206 Co196 2.021 . S
O206 C203 1.238 . S
O207 Co201 2.052 . S
O207 C203 1.241 . S
O208 Co196 2.137 . S
O208 C199 1.247 . S
O209 Co196 2.244 . S
O209 C199 1.272 . S
O209 Co201 2.135 . S
Co210 O211 2.216 . S
Co210 O212 2.091 . S
Co210 O214 2.004 . S
Co210 O220 2.021 . S
Co210 O222 2.137 . S
Co210 O223 2.244 . S
O211 Co210 2.216 . S
O211 C218 1.247 . S
O212 Co210 2.091 . S
O212 C218 1.261 . S
C213 O222 1.247 . S
C213 O223 1.272 . S
O214 Co210 2.004 . S
O214 C219 1.259 . S
Co215 O216 2.061 . S
Co215 O221 2.052 . S
Co215 O223 2.135 . S
O216 Co215 2.061 . S
O216 C219 1.235 . S
C217 O220 1.238 . S
C217 O221 1.241 . S
C218 O211 1.247 . S
C218 O212 1.261 . S
C219 O214 1.259 . S
C219 O216 1.235 . S
O220 Co210 2.021 . S
O220 C217 1.238 . S
O221 Co215 2.052 . S
O221 C217 1.241 . S
O222 Co210 2.137 . S
O222 C213 1.247 . S
O223 Co210 2.244 . S
O223 C213 1.272 . S
O223 Co215 2.135 . S
H224 C232 0.929 . S
H225 C234 0.930 . S
H226 C236 0.930 . S
H227 C239 0.929 . S
H228 C242 0.930 . S
H229 C244 0.960 . S
H230 C244 0.960 . S
H231 C244 0.960 . S
C232 H224 0.929 . S
C232 C233 1.377 . S
C232 C234 1.384 . S
C233 C232 1.377 . S
C233 C239 1.390 . S
C234 H225 0.930 . S
C234 C232 1.384 . S
C234 C235 1.372 . S
C235 C234 1.372 . S
C235 C236 1.400 . S
C235 C240 1.490 . S
C236 H226 0.930 . S
C236 C235 1.400 . S
C236 C239 1.386 . S
H237 C253 0.930 . S
H238 C254 0.931 . S
C239 H227 0.929 . S
C239 C233 1.390 . S
C239 C236 1.386 . S
C240 C235 1.490 . S
C240 C242 1.395 . S
C240 C243 1.403 . S
H241 C247 0.930 1_565 S
C242 H228 0.930 . S
C242 C240 1.395 . S
C242 C245 1.403 . S
C243 C240 1.403 . S
C243 C244 1.524 1_545 S
C243 C247 1.400 . S
C244 H229 0.960 . S
C244 H230 0.960 . S
C244 H231 0.960 . S
C244 C243 1.524 1_565 S
C245 C242 1.403 . S
C245 C246 1.392 . S
C245 C249 1.495 . S
C246 C245 1.392 . S
C246 C247 1.385 . S
C246 C248 1.478 . S
C247 H241 0.930 1_545 S
C247 C243 1.400 . S
C247 C246 1.385 . S
C248 C246 1.478 . S
C248 C250 1.381 . S
C248 C254 1.383 . S
C249 C245 1.495 . S
C249 H255 0.959 . S
C249 H256 0.961 . S
C249 H257 0.960 . S
C250 C248 1.381 . S
C250 C251 1.394 . S
C250 H258 0.930 . S
C251 C250 1.394 . S
C251 C252 1.383 . S
C251 H259 0.929 . S
C252 C251 1.383 . S
C252 C253 1.377 . S
C253 H237 0.930 . S
C253 C252 1.377 . S
C253 C254 1.379 . S
C254 H238 0.931 . S
C254 C248 1.383 . S
C254 C253 1.379 . S
H255 C249 0.959 . S
H256 C249 0.961 . S
H257 C249 0.960 . S
H258 C250 0.930 . S
H259 C251 0.929 . S
H260 C268 0.929 . S
H261 C270 0.930 . S
H262 C272 0.930 1_545 S
H263 C275 0.929 1_545 S
H264 C278 0.930 . S
H265 C280 0.960 . S
H266 C280 0.960 . S
H267 C280 0.960 . S
C268 H260 0.929 . S
C268 C269 1.377 . S
C268 C270 1.384 . S
C269 C268 1.377 . S
C269 C275 1.390 . S
C270 H261 0.930 . S
C270 C268 1.384 . S
C270 C271 1.372 . S
C271 C270 1.372 . S
C271 C272 1.400 . S
C271 C276 1.490 . S
C272 H262 0.930 1_565 S
C272 C271 1.400 . S
C272 C275 1.386 . S
H273 C289 0.930 1_545 S
H274 C290 0.931 1_545 S
C275 H263 0.929 1_565 S
C275 C269 1.390 . S
C275 C272 1.386 . S
C276 C271 1.490 . S
C276 C278 1.395 . S
C276 C279 1.403 . S
H277 C283 0.930 1_545 S
C278 H264 0.930 . S
C278 C276 1.395 . S
C278 C281 1.403 . S
C279 C276 1.403 . S
C279 C280 1.524 1_565 S
C279 C283 1.400 . S
C280 H265 0.960 . S
C280 H266 0.960 . S
C280 H267 0.960 . S
C280 C279 1.524 1_545 S
C281 C278 1.403 . S
C281 C282 1.392 . S
C281 C285 1.495 . S
C282 C281 1.392 . S
C282 C283 1.385 . S
C282 C284 1.478 . S
C283 H277 0.930 1_565 S
C283 C279 1.400 . S
C283 C282 1.385 . S
C284 C282 1.478 . S
C284 C286 1.381 . S
C284 C290 1.383 . S
C285 C281 1.495 . S
C285 H291 0.959 . S
C285 H292 0.961 . S
C285 H293 0.960 . S
C286 C284 1.381 . S
C286 C287 1.394 . S
C286 H294 0.930 . S
C287 C286 1.394 . S
C287 C288 1.383 . S
C287 H295 0.929 . S
C288 C287 1.383 . S
C288 C289 1.377 . S
C289 H273 0.930 1_565 S
C289 C288 1.377 . S
C289 C290 1.379 . S
C290 H274 0.931 1_565 S
C290 C284 1.383 . S
C290 C289 1.379 . S
H291 C285 0.959 . S
H292 C285 0.961 . S
H293 C285 0.960 . S
H294 C286 0.930 . S
H295 C287 0.929 . S
H296 C304 0.929 . S
H297 C306 0.930 . S
H298 C308 0.930 1_545 S
H299 C311 0.929 1_545 S
H300 C314 0.930 . S
H301 C316 0.960 . S
H302 C316 0.960 . S
H303 C316 0.960 . S
C304 H296 0.929 . S
C304 C305 1.377 . S
C304 C306 1.384 . S
C305 C304 1.377 . S
C305 C311 1.390 . S
C306 H297 0.930 . S
C306 C304 1.384 . S
C306 C307 1.372 . S
C307 C306 1.372 . S
C307 C308 1.400 . S
C307 C312 1.490 . S
C308 H298 0.930 1_565 S
C308 C307 1.400 . S
C308 C311 1.386 . S
H309 C325 0.930 1_545 S
H310 C326 0.931 1_545 S
C311 H299 0.929 1_565 S
C311 C305 1.390 . S
C311 C308 1.386 . S
C312 C307 1.490 . S
C312 C314 1.395 . S
C312 C315 1.403 . S
H313 C319 0.930 . S
C314 H300 0.930 . S
C314 C312 1.395 . S
C314 C317 1.403 1_554 S
C315 C312 1.403 . S
C315 C316 1.524 . S
C315 C319 1.400 1_554 S
C316 H301 0.960 . S
C316 H302 0.960 . S
C316 H303 0.960 . S
C316 C315 1.524 . S
C317 C314 1.403 1_556 S
C317 C318 1.392 . S
C317 C321 1.495 . S
C318 C317 1.392 . S
C318 C319 1.385 . S
C318 C320 1.478 . S
C319 H313 0.930 . S
C319 C315 1.400 1_556 S
C319 C318 1.385 . S
C320 C318 1.478 . S
C320 C322 1.381 . S
C320 C326 1.383 . S
C321 C317 1.495 . S
C321 H327 0.959 . S
C321 H328 0.961 . S
C321 H329 0.960 . S
C322 C320 1.381 . S
C322 C323 1.394 . S
C322 H330 0.930 . S
C323 C322 1.394 . S
C323 C324 1.383 . S
C323 H331 0.929 . S
C324 C323 1.383 . S
C324 C325 1.377 . S
C325 H309 0.930 1_565 S
C325 C324 1.377 . S
C325 C326 1.379 . S
C326 H310 0.931 1_565 S
C326 C320 1.383 . S
C326 C325 1.379 . S
H327 C321 0.959 . S
H328 C321 0.961 . S
H329 C321 0.960 . S
H330 C322 0.930 . S
H331 C323 0.929 . S
H332 C340 0.929 . S
H333 C342 0.949 . S
H334 C344 0.930 . S
H335 C347 0.929 . S
H336 C350 0.930 . S
H337 C352 0.960 . S
H338 C352 0.960 . S
H339 C352 0.960 . S
C340 H332 0.929 . S
C340 C341 1.377 . S
C340 C342 1.384 . S
C341 C340 1.377 . S
C341 C347 1.390 . S
C342 H333 0.949 . S
C342 C340 1.384 . S
C342 C343 1.372 . S
C343 C342 1.372 . S
C343 C344 1.400 . S
C343 C348 1.490 . S
C344 H334 0.930 . S
C344 C343 1.400 . S
C344 C347 1.386 . S
H345 C361 0.930 . S
H346 C362 0.931 . S
C347 H335 0.929 . S
C347 C341 1.390 . S
C347 C344 1.386 . S
C348 C343 1.490 . S
C348 C350 1.395 1_545 S
C348 C351 1.403 . S
H349 C355 0.930 . S
C350 H336 0.930 . S
C350 C348 1.395 1_565 S
C350 C353 1.403 1_556 S
C351 C348 1.403 . S
C351 C352 1.524 . S
C351 C355 1.400 1_556 S
C352 H337 0.960 . S
C352 H338 0.960 . S
C352 H339 0.960 . S
C352 C351 1.524 . S
C353 C350 1.403 1_554 S
C353 C354 1.392 1_565 S
C353 C357 1.495 . S
C354 C353 1.392 1_545 S
C354 C355 1.385 . S
C354 C356 1.478 . S
C355 H349 0.930 . S
C355 C351 1.400 1_554 S
C355 C354 1.385 . S
C356 C354 1.478 . S
C356 C358 1.381 . S
C356 C362 1.383 . S
C357 C353 1.495 . S
C357 H363 0.959 . S
C357 H364 0.961 . S
C357 H365 0.960 . S
C358 C356 1.381 . S
C358 C359 1.394 . S
C358 H366 0.925 1_545 S
C359 C358 1.394 . S
C359 C360 1.383 . S
C359 H367 0.929 . S
C360 C359 1.383 . S
C360 C361 1.377 . S
C361 H345 0.930 . S
C361 C360 1.377 . S
C361 C362 1.379 . S
C362 H346 0.931 . S
C362 C356 1.383 . S
C362 C361 1.379 . S
H363 C357 0.959 . S
H364 C357 0.961 . S
H365 C357 0.960 . S
H366 C358 0.925 1_565 S
H367 C359 0.929 . S
H368 C376 0.929 . S
H369 C378 0.930 . S
H370 C380 0.930 . S
H371 C383 0.929 . S
H372 C386 0.930 . S
H373 C388 0.960 . S
H374 C388 0.960 . S
H375 C388 0.960 . S
C376 H368 0.929 . S
C376 C377 1.377 . S
C376 C378 1.384 . S
C377 C376 1.377 . S
C377 C383 1.390 . S
C378 H369 0.930 . S
C378 C376 1.384 . S
C378 C379 1.372 . S
C379 C378 1.372 . S
C379 C380 1.400 . S
C379 C384 1.490 . S
C380 H370 0.930 . S
C380 C379 1.400 . S
C380 C383 1.386 . S
H381 C397 0.930 . S
H382 C398 0.931 . S
C383 H371 0.929 . S
C383 C377 1.390 . S
C383 C380 1.386 . S
C384 C379 1.490 . S
C384 C386 1.395 . S
C384 C387 1.403 . S
H385 C391 0.930 . S
C386 H372 0.930 . S
C386 C384 1.395 . S
C386 C389 1.403 . S
C387 C384 1.403 . S
C387 C388 1.524 . S
C387 C391 1.400 . S
C388 H373 0.960 . S
C388 H374 0.960 . S
C388 H375 0.960 . S
C388 C387 1.524 . S
C389 C386 1.403 . S
C389 C390 1.392 . S
C389 C393 1.495 . S
C390 C389 1.392 . S
C390 C391 1.385 . S
C390 C392 1.478 . S
C391 H385 0.930 . S
C391 C387 1.400 . S
C391 C390 1.385 . S
C392 C390 1.478 . S
C392 C394 1.381 . S
C392 C398 1.383 . S
C393 C389 1.495 . S
C393 H399 0.959 . S
C393 H400 0.961 . S
C393 H401 0.960 . S
C394 C392 1.381 . S
C394 C395 1.394 . S
C394 H402 0.930 . S
C395 C394 1.394 . S
C395 C396 1.383 . S
C395 H403 0.929 . S
C396 C395 1.383 . S
C396 C397 1.377 . S
C397 H381 0.930 . S
C397 C396 1.377 . S
C397 C398 1.379 . S
C398 H382 0.931 . S
C398 C392 1.383 . S
C398 C397 1.379 . S
H399 C393 0.959 . S
H400 C393 0.961 . S
H401 C393 0.960 . S
H402 C394 0.930 . S
H403 C395 0.929 . S
H404 C412 0.929 . S
H405 C414 0.930 . S
H406 C416 0.930 . S
H407 C419 0.929 . S
H408 C422 0.930 . S
H409 C424 0.960 . S
H410 C424 0.960 . S
H411 C424 0.960 . S
C412 H404 0.929 . S
C412 C413 1.377 . S
C412 C414 1.384 . S
C413 C412 1.377 . S
C413 C419 1.390 . S
C414 H405 0.930 . S
C414 C412 1.384 . S
C414 C415 1.372 . S
C415 C414 1.372 . S
C415 C416 1.400 . S
C415 C420 1.490 . S
C416 H406 0.930 . S
C416 C415 1.400 . S
C416 C419 1.386 . S
H417 C433 0.930 . S
H418 C434 0.931 . S
C419 H407 0.929 . S
C419 C413 1.390 . S
C419 C416 1.386 . S
C420 C415 1.490 . S
C420 C422 1.395 . S
C420 C423 1.403 . S
H421 C427 0.930 . S
C422 H408 0.930 . S
C422 C420 1.395 . S
C422 C425 1.403 . S
C423 C420 1.403 . S
C423 C424 1.524 . S
C423 C427 1.400 . S
C424 H409 0.960 . S
C424 H410 0.960 . S
C424 H411 0.960 . S
C424 C423 1.524 . S
C425 C422 1.403 . S
C425 C426 1.392 . S
C425 C429 1.495 . S
C426 C425 1.392 . S
C426 C427 1.385 . S
C426 C428 1.478 . S
C427 H421 0.930 . S
C427 C423 1.400 . S
C427 C426 1.385 . S
C428 C426 1.478 . S
C428 C430 1.381 . S
C428 C434 1.383 . S
C429 C425 1.495 . S
C429 H435 0.959 . S
C429 H436 0.961 . S
C429 H437 0.960 . S
C430 C428 1.381 . S
C430 C431 1.394 . S
C430 H438 0.930 . S
C431 C430 1.394 . S
C431 C432 1.383 . S
C431 H439 0.929 . S
C432 C431 1.383 . S
C432 C433 1.377 . S
C433 H417 0.930 . S
C433 C432 1.377 . S
C433 C434 1.379 . S
C434 H418 0.931 . S
C434 C428 1.383 . S
C434 C433 1.379 . S
H435 C429 0.959 . S
H436 C429 0.961 . S
H437 C429 0.960 . S
H438 C430 0.930 . S
H439 C431 0.929 . S
H440 C448 0.929 . S
H441 C450 0.930 . S
H442 C452 0.930 . S
H443 C455 0.929 . S
H444 C458 0.930 . S
H445 C460 0.960 . S
H446 C460 0.960 . S
H447 C460 0.960 . S
C448 H440 0.929 . S
C448 C449 1.377 . S
C448 C450 1.384 . S
C449 C448 1.377 . S
C449 C455 1.390 . S
C450 H441 0.930 . S
C450 C448 1.384 . S
C450 C451 1.372 . S
C451 C450 1.372 . S
C451 C452 1.400 . S
C451 C456 1.490 . S
C452 H442 0.930 . S
C452 C451 1.400 . S
C452 C455 1.386 . S
H453 C469 0.930 . S
H454 C470 0.931 . S
C455 H443 0.929 . S
C455 C449 1.390 . S
C455 C452 1.386 . S
C456 C451 1.490 . S
C456 C458 1.395 . S
C456 C459 1.403 . S
H457 C463 0.930 . S
C458 H444 0.930 . S
C458 C456 1.395 . S
C458 C461 1.403 1_556 S
C459 C456 1.403 . S
C459 C460 1.524 . S
C459 C463 1.400 1_556 S
C460 H445 0.960 . S
C460 H446 0.960 . S
C460 H447 0.960 . S
C460 C459 1.524 . S
C461 C458 1.403 1_554 S
C461 C462 1.392 . S
C461 C465 1.495 . S
C462 C461 1.392 . S
C462 C463 1.385 . S
C462 C464 1.478 . S
C463 H457 0.930 . S
C463 C459 1.400 1_554 S
C463 C462 1.385 . S
C464 C462 1.478 . S
C464 C466 1.381 . S
C464 C470 1.383 . S
C465 C461 1.495 . S
C465 H471 0.959 . S
C465 H472 0.961 . S
C465 H473 0.960 . S
C466 C464 1.381 . S
C466 C467 1.394 . S
C466 H474 0.930 . S
C467 C466 1.394 . S
C467 C468 1.383 . S
C467 H475 0.929 . S
C468 C467 1.383 . S
C468 C469 1.377 . S
C469 H453 0.930 . S
C469 C468 1.377 . S
C469 C470 1.379 . S
C470 H454 0.931 . S
C470 C464 1.383 . S
C470 C469 1.379 . S
H471 C465 0.959 . S
H472 C465 0.961 . S
H473 C465 0.960 . S
H474 C466 0.930 . S
H475 C467 0.929 . S
H476 C484 0.929 . S
H477 C486 0.930 . S
H478 C488 0.930 . S
H479 C491 0.929 . S
H480 C494 0.930 . S
H481 C496 0.960 . S
H482 C496 0.960 . S
H483 C496 0.960 . S
C484 H476 0.929 . S
C484 C485 1.377 . S
C484 C486 1.384 . S
C485 C484 1.377 . S
C485 C491 1.390 . S
C486 H477 0.930 . S
C486 C484 1.384 . S
C486 C487 1.372 . S
C487 C486 1.372 . S
C487 C488 1.400 . S
C487 C492 1.490 . S
C488 H478 0.930 . S
C488 C487 1.400 . S
C488 C491 1.386 . S
H489 C505 0.930 . S
H490 C506 0.931 . S
C491 H479 0.929 . S
C491 C485 1.390 . S
C491 C488 1.386 . S
C492 C487 1.490 . S
C492 C494 1.395 . S
C492 C495 1.403 . S
H493 C499 0.930 . S
C494 H480 0.930 . S
C494 C492 1.395 . S
C494 C497 1.403 1_554 S
C495 C492 1.403 . S
C495 C496 1.524 . S
C495 C499 1.400 1_554 S
C496 H481 0.960 . S
C496 H482 0.960 . S
C496 H483 0.960 . S
C496 C495 1.524 . S
C497 C494 1.403 1_556 S
C497 C498 1.392 . S
C497 C501 1.495 . S
C498 C497 1.392 . S
C498 C499 1.385 . S
C498 C500 1.478 . S
C499 H493 0.930 . S
C499 C495 1.400 1_556 S
C499 C498 1.385 . S
C500 C498 1.478 . S
C500 C502 1.381 . S
C500 C506 1.383 . S
C501 C497 1.495 . S
C501 H507 0.959 . S
C501 H508 0.961 . S
C501 H509 0.960 . S
C502 C500 1.381 . S
C502 C503 1.394 . S
C502 H510 0.930 . S
C503 C502 1.394 . S
C503 C504 1.383 . S
C503 H511 0.929 . S
C504 C503 1.383 . S
C504 C505 1.377 . S
C505 H489 0.930 . S
C505 C504 1.377 . S
C505 C506 1.379 . S
C506 H490 0.931 . S
C506 C500 1.383 . S
C506 C505 1.379 . S
H507 C501 0.959 . S
H508 C501 0.961 . S
H509 C501 0.960 . S
H510 C502 0.930 . S
H511 C503 0.929 . S
H512 C520 0.929 . S
H513 C522 0.930 . S
H514 C524 0.930 . S
H515 C527 0.929 1_545 S
H516 C530 0.930 . S
H517 C532 0.960 . S
H518 C532 0.960 . S
H519 C532 0.960 . S
C520 H512 0.929 . S
C520 C521 1.377 . S
C520 C522 1.384 . S
C521 C520 1.377 . S
C521 C527 1.390 . S
C522 H513 0.930 . S
C522 C520 1.384 . S
C522 C523 1.372 . S
C523 C522 1.372 . S
C523 C524 1.400 1_565 S
C523 C528 1.490 . S
C524 H514 0.930 . S
C524 C523 1.400 1_545 S
C524 C527 1.386 1_545 S
H525 C541 0.930 . S
H526 C542 0.931 . S
C527 H515 0.929 1_565 S
C527 C521 1.390 . S
C527 C524 1.386 1_565 S
C528 C523 1.490 . S
C528 C530 1.395 . S
C528 C531 1.403 1_565 S
H529 C535 0.930 . S
C530 H516 0.930 . S
C530 C528 1.395 . S
C530 C533 1.403 . S
C531 C528 1.403 1_545 S
C531 C532 1.524 . S
C531 C535 1.400 . S
C532 H517 0.960 . S
C532 H518 0.960 . S
C532 H519 0.960 . S
C532 C531 1.524 . S
C533 C530 1.403 . S
C533 C534 1.392 1_565 S
C533 C537 1.495 . S
C534 C533 1.392 1_545 S
C534 C535 1.385 . S
C534 C536 1.478 . S
C535 H529 0.930 . S
C535 C531 1.400 . S
C535 C534 1.385 . S
C536 C534 1.478 . S
C536 C538 1.381 1_545 S
C536 C542 1.383 . S
C537 C533 1.495 . S
C537 H543 0.959 . S
C537 H544 0.961 . S
C537 H545 0.960 . S
C538 C536 1.381 1_565 S
C538 C539 1.394 1_565 S
C538 H546 0.930 . S
C539 C538 1.394 1_545 S
C539 C540 1.383 . S
C539 H547 0.929 1_545 S
C540 C539 1.383 . S
C540 C541 1.377 . S
C541 H525 0.930 . S
C541 C540 1.377 . S
C541 C542 1.379 . S
C542 H526 0.931 . S
C542 C536 1.383 . S
C542 C541 1.379 . S
H543 C537 0.959 . S
H544 C537 0.961 . S
H545 C537 0.960 . S
H546 C538 0.930 . S
H547 C539 0.929 1_565 S
H548 C556 0.929 . S
H549 C558 0.930 . S
H550 C560 0.937 . S
H551 C563 0.929 1_545 S
H552 C566 0.930 . S
H553 C568 0.960 . S
H554 C568 0.960 . S
H555 C568 0.960 . S
C556 H548 0.929 . S
C556 C557 1.377 . S
C556 C558 1.384 . S
C557 C556 1.377 . S
C557 C563 1.390 . S
C558 H549 0.930 . S
C558 C556 1.384 . S
C558 C559 1.372 . S
C559 C558 1.372 . S
C559 C560 1.395 1_565 S
C559 C564 1.490 . S
C560 H550 0.937 . S
C560 C559 1.395 1_545 S
C560 C563 1.384 1_545 S
H561 C577 0.930 . S
H562 C578 0.931 . S
C563 H551 0.929 1_565 S
C563 C557 1.390 . S
C563 C560 1.384 1_565 S
C564 C559 1.490 . S
C564 C566 1.395 1_565 S
C564 C567 1.403 . S
H565 C571 0.930 . S
C566 H552 0.930 . S
C566 C564 1.395 1_545 S
C566 C569 1.403 . S
C567 C564 1.403 . S
C567 C568 1.524 . S
C567 C571 1.400 . S
C568 H553 0.960 . S
C568 H554 0.960 . S
C568 H555 0.960 . S
C568 C567 1.524 . S
C569 C566 1.403 . S
C569 C570 1.392 . S
C569 C573 1.495 . S
C570 C569 1.392 . S
C570 C571 1.385 1_545 S
C570 C572 1.478 . S
C571 H565 0.930 . S
C571 C567 1.400 . S
C571 C570 1.385 1_565 S
C572 C570 1.478 . S
C572 C574 1.381 1_545 S
C572 C578 1.383 . S
C573 C569 1.495 . S
C573 H579 0.959 . S
C573 H580 0.961 . S
C573 H581 0.960 . S
C574 C572 1.381 1_565 S
C574 C575 1.394 1_565 S
C574 H582 0.930 . S
C575 C574 1.394 1_545 S
C575 C576 1.383 . S
C575 H583 0.929 1_545 S
C576 C575 1.383 . S
C576 C577 1.377 . S
C577 H561 0.930 . S
C577 C576 1.377 . S
C577 C578 1.379 . S
C578 H562 0.931 . S
C578 C572 1.383 . S
C578 C577 1.379 . S
H579 C573 0.959 . S
H580 C573 0.961 . S
H581 C573 0.960 . S
H582 C574 0.930 . S
H583 C575 0.929 1_565 S
H584 C592 0.929 . S
H585 C594 0.930 . S
H586 C596 0.930 1_545 S
H587 C599 0.929 . S
H588 C602 0.930 . S
H589 C604 0.960 . S
H590 C604 0.960 . S
H591 C604 0.960 . S
C592 H584 0.929 . S
C592 C593 1.377 . S
C592 C594 1.384 . S
C593 C592 1.377 . S
C593 C599 1.390 . S
C594 H585 0.930 . S
C594 C592 1.384 . S
C594 C595 1.372 . S
C595 C594 1.372 . S
C595 C596 1.400 . S
C595 C600 1.490 . S
C596 H586 0.930 1_565 S
C596 C595 1.400 . S
C596 C599 1.386 . S
H597 C613 0.930 . S
H598 C614 0.931 . S
C599 H587 0.929 . S
C599 C593 1.390 . S
C599 C596 1.386 . S
C600 C595 1.490 . S
C600 C602 1.395 1_565 S
C600 C603 1.403 . S
H601 C607 0.930 . S
C602 H588 0.930 . S
C602 C600 1.395 1_545 S
C602 C605 1.403 . S
C603 C600 1.403 . S
C603 C604 1.524 . S
C603 C607 1.400 . S
C604 H589 0.960 . S
C604 H590 0.960 . S
C604 H591 0.960 . S
C604 C603 1.524 . S
C605 C602 1.403 . S
C605 C606 1.392 . S
C605 C609 1.495 . S
C606 C605 1.392 . S
C606 C607 1.385 1_545 S
C606 C608 1.478 . S
C607 H601 0.930 . S
C607 C603 1.400 . S
C607 C606 1.385 1_565 S
C608 C606 1.478 . S
C608 C610 1.381 . S
C608 C614 1.383 . S
C609 C605 1.495 . S
C609 H615 0.959 . S
C609 H616 0.961 . S
C609 H617 0.960 . S
C610 C608 1.381 . S
C610 C611 1.394 . S
C610 H618 0.930 1_545 S
C611 C610 1.394 . S
C611 C612 1.383 . S
C611 H619 0.929 . S
C612 C611 1.383 . S
C612 C613 1.377 . S
C613 H597 0.930 . S
C613 C612 1.377 . S
C613 C614 1.379 . S
C614 H598 0.931 . S
C614 C608 1.383 . S
C614 C613 1.379 . S
H615 C609 0.959 . S
H616 C609 0.961 . S
H617 C609 0.960 . S
H618 C610 0.930 1_565 S
H619 C611 0.929 . S
H620 C628 0.929 1_565 S
H621 C630 0.930 . S
H622 C632 0.930 . S
H623 C635 0.929 . S
H624 C638 0.930 . S
H625 C640 0.960 . S
H626 C640 0.960 . S
H627 C640 0.960 1_545 S
C628 H620 0.929 1_545 S
C628 C629 1.377 . S
C628 C630 1.384 1_545 S
C629 C628 1.377 . S
C629 C635 1.390 . S
C630 H621 0.930 . S
C630 C628 1.384 1_565 S
C630 C631 1.372 1_565 S
C631 C630 1.372 1_545 S
C631 C632 1.400 . S
C631 C636 1.490 . S
C632 H622 0.930 . S
C632 C631 1.400 . S
C632 C635 1.386 . S
H633 C649 0.930 1_545 S
H634 C650 0.931 . S
C635 H623 0.929 . S
C635 C629 1.390 . S
C635 C632 1.386 . S
C636 C631 1.490 . S
C636 C638 1.395 . S
C636 C639 1.403 1_545 S
H637 C643 0.930 . S
C638 H624 0.930 . S
C638 C636 1.395 . S
C638 C641 1.403 . S
C639 C636 1.403 1_565 S
C639 C640 1.524 . S
C639 C643 1.400 . S
C640 H625 0.960 . S
C640 H626 0.960 . S
C640 H627 0.960 1_565 S
C640 C639 1.524 . S
C641 C638 1.403 . S
C641 C642 1.392 1_545 S
C641 C645 1.495 . S
C642 C641 1.392 1_565 S
C642 C643 1.385 . S
C642 C644 1.478 . S
C643 H637 0.930 . S
C643 C639 1.400 . S
C643 C642 1.385 . S
C644 C642 1.478 . S
C644 C646 1.381 . S
C644 C650 1.383 1_565 S
C645 C641 1.495 . S
C645 H651 0.959 . S
C645 H652 0.961 . S
C645 H653 0.960 1_545 S
C646 C644 1.381 . S
C646 C647 1.394 . S
C646 H654 0.930 . S
C647 C646 1.394 . S
C647 C648 1.383 . S
C647 H655 0.929 . S
C648 C647 1.383 . S
C648 C649 1.377 . S
C649 H633 0.930 1_565 S
C649 C648 1.377 . S
C649 C650 1.379 1_565 S
C650 H634 0.931 . S
C650 C644 1.383 1_545 S
C650 C649 1.379 1_545 S
H651 C645 0.959 . S
H652 C645 0.961 . S
H653 C645 0.960 1_565 S
H654 C646 0.930 . S
H655 C647 0.929 . S
H656 C664 0.929 . S
H657 C666 0.930 . S
H658 C668 0.930 . S
H659 C671 0.929 . S
H660 C674 0.930 . S
H661 C676 0.960 1_455 S
H662 C676 0.960 . S
H663 C676 0.960 . S
C664 H656 0.929 . S
C664 C665 1.377 . S
C664 C666 1.384 . S
C665 C664 1.377 . S
C665 C671 1.390 . S
C666 H657 0.930 . S
C666 C664 1.384 . S
C666 C667 1.372 . S
C667 C666 1.372 . S
C667 C668 1.400 . S
C667 C672 1.490 . S
C668 H658 0.930 . S
C668 C667 1.400 . S
C668 C671 1.386 . S
H669 C685 0.930 . S
H670 C686 0.931 . S
C671 H659 0.929 . S
C671 C665 1.390 . S
C671 C668 1.386 . S
C672 C667 1.490 . S
C672 C674 1.395 . S
C672 C675 1.403 . S
H673 C679 0.930 . S
C674 H660 0.930 . S
C674 C672 1.395 . S
C674 C677 1.403 1_655 S
C675 C672 1.403 . S
C675 C676 1.524 . S
C675 C679 1.400 1_655 S
C676 H661 0.960 1_655 S
C676 H662 0.960 . S
C676 H663 0.960 . S
C676 C675 1.524 . S
C677 C674 1.403 1_455 S
C677 C678 1.392 . S
C677 C681 1.495 . S
C678 C677 1.392 . S
C678 C679 1.385 . S
C678 C680 1.478 . S
C679 H673 0.930 . S
C679 C675 1.400 1_455 S
C679 C678 1.385 . S
C680 C678 1.478 . S
C680 C682 1.381 . S
C680 C686 1.383 . S
C681 C677 1.495 . S
C681 H687 0.959 1_455 S
C681 H688 0.961 . S
C681 H689 0.960 . S
C682 C680 1.381 . S
C682 C683 1.394 . S
C682 H690 0.930 . S
C683 C682 1.394 . S
C683 C684 1.383 . S
C683 H691 0.929 . S
C684 C683 1.383 . S
C684 C685 1.377 . S
C685 H669 0.930 . S
C685 C684 1.377 . S
C685 C686 1.379 . S
C686 H670 0.931 . S
C686 C680 1.383 . S
C686 C685 1.379 . S
H687 C681 0.959 1_655 S
H688 C681 0.961 . S
H689 C681 0.960 . S
H690 C682 0.930 . S
H691 C683 0.929 . S
H692 C700 0.929 . S
H693 C702 0.930 . S
H694 C704 0.930 . S
H695 C707 0.929 . S
H696 C710 0.930 . S
H697 C712 0.960 . S
H698 C712 0.960 . S
H699 C712 0.960 . S
C700 H692 0.929 . S
C700 C701 1.377 . S
C700 C702 1.384 . S
C701 C700 1.377 . S
C701 C707 1.390 . S
C702 H693 0.930 . S
C702 C700 1.384 . S
C702 C703 1.372 . S
C703 C702 1.372 . S
C703 C704 1.400 . S
C703 C708 1.490 . S
C704 H694 0.930 . S
C704 C703 1.400 . S
C704 C707 1.386 . S
H705 C721 0.930 . S
H706 C722 0.931 . S
C707 H695 0.929 . S
C707 C701 1.390 . S
C707 C704 1.386 . S
C708 C703 1.490 . S
C708 C710 1.395 . S
C708 C711 1.403 . S
H709 C715 0.930 . S
C710 H696 0.930 . S
C710 C708 1.395 . S
C710 C713 1.403 1_455 S
C711 C708 1.403 . S
C711 C712 1.524 . S
C711 C715 1.400 1_455 S
C712 H697 0.960 . S
C712 H698 0.960 . S
C712 H699 0.960 . S
C712 C711 1.524 . S
C713 C710 1.403 1_655 S
C713 C714 1.392 . S
C713 C717 1.495 . S
C714 C713 1.392 . S
C714 C715 1.385 . S
C714 C716 1.478 . S
C715 H709 0.930 . S
C715 C711 1.400 1_655 S
C715 C714 1.385 . S
C716 C714 1.478 . S
C716 C718 1.381 . S
C716 C722 1.383 . S
C717 C713 1.495 . S
C717 H723 0.959 . S
C717 H724 0.961 . S
C717 H725 0.960 . S
C718 C716 1.381 . S
C718 C719 1.394 . S
C718 H726 0.930 . S
C719 C718 1.394 . S
C719 C720 1.383 . S
C719 H727 0.929 . S
C720 C719 1.383 . S
C720 C721 1.377 . S
C721 H705 0.930 . S
C721 C720 1.377 . S
C721 C722 1.379 . S
C722 H706 0.931 . S
C722 C716 1.383 . S
C722 C721 1.379 . S
H723 C717 0.959 . S
H724 C717 0.961 . S
H725 C717 0.960 . S
H726 C718 0.930 . S
H727 C719 0.929 . S
H728 C736 0.929 . S
H729 C738 0.930 . S
H730 C740 0.930 . S
H731 C743 0.929 . S
H732 C746 0.930 . S
H733 C748 0.960 1_455 S
H734 C748 0.960 . S
H735 C748 0.960 . S
C736 H728 0.929 . S
C736 C737 1.377 . S
C736 C738 1.384 . S
C737 C736 1.377 . S
C737 C743 1.390 . S
C738 H729 0.930 . S
C738 C736 1.384 . S
C738 C739 1.372 . S
C739 C738 1.372 . S
C739 C740 1.400 . S
C739 C744 1.490 . S
C740 H730 0.930 . S
C740 C739 1.400 . S
C740 C743 1.386 . S
H741 C757 0.930 . S
H742 C758 0.931 . S
C743 H731 0.929 . S
C743 C737 1.390 . S
C743 C740 1.386 . S
C744 C739 1.490 . S
C744 C746 1.395 . S
C744 C747 1.403 . S
H745 C751 0.930 . S
C746 H732 0.930 . S
C746 C744 1.395 . S
C746 C749 1.403 1_655 S
C747 C744 1.403 . S
C747 C748 1.524 . S
C747 C751 1.400 1_655 S
C748 H733 0.960 1_655 S
C748 H734 0.960 . S
C748 H735 0.960 . S
C748 C747 1.524 . S
C749 C746 1.403 1_455 S
C749 C750 1.392 . S
C749 C753 1.495 . S
C750 C749 1.392 . S
C750 C751 1.385 . S
C750 C752 1.478 . S
C751 H745 0.930 . S
C751 C747 1.400 1_455 S
C751 C750 1.385 . S
C752 C750 1.478 . S
C752 C754 1.381 . S
C752 C758 1.383 . S
C753 C749 1.495 . S
C753 H759 0.959 1_455 S
C753 H760 0.961 . S
C753 H761 0.960 . S
C754 C752 1.381 . S
C754 C755 1.394 . S
C754 H762 0.930 . S
C755 C754 1.394 . S
C755 C756 1.383 . S
C755 H763 0.929 . S
C756 C755 1.383 . S
C756 C757 1.377 . S
C757 H741 0.930 . S
C757 C756 1.377 . S
C757 C758 1.379 . S
C758 H742 0.931 . S
C758 C752 1.383 . S
C758 C757 1.379 . S
H759 C753 0.959 1_655 S
H760 C753 0.961 . S
H761 C753 0.960 . S
H762 C754 0.930 . S
H763 C755 0.929 . S
H764 C772 0.929 . S
H765 C774 0.930 . S
H766 C776 0.930 . S
H767 C779 0.929 . S
H768 C782 0.930 . S
H769 C784 0.960 . S
H770 C784 0.960 . S
H771 C784 0.960 . S
C772 H764 0.929 . S
C772 C773 1.377 . S
C772 C774 1.384 . S
C773 C772 1.377 . S
C773 C779 1.390 . S
C774 H765 0.930 . S
C774 C772 1.384 . S
C774 C775 1.372 . S
C775 C774 1.372 . S
C775 C776 1.400 . S
C775 C780 1.490 . S
C776 H766 0.930 . S
C776 C775 1.400 . S
C776 C779 1.386 . S
H777 C793 0.930 . S
H778 C794 0.931 . S
C779 H767 0.929 . S
C779 C773 1.390 . S
C779 C776 1.386 . S
C780 C775 1.490 . S
C780 C782 1.395 . S
C780 C783 1.403 . S
H781 C787 0.930 . S
C782 H768 0.930 . S
C782 C780 1.395 . S
C782 C785 1.403 1_455 S
C783 C780 1.403 . S
C783 C784 1.524 . S
C783 C787 1.400 1_455 S
C784 H769 0.960 . S
C784 H770 0.960 . S
C784 H771 0.960 . S
C784 C783 1.524 . S
C785 C782 1.403 1_655 S
C785 C786 1.392 . S
C785 C789 1.495 . S
C786 C785 1.392 . S
C786 C787 1.385 . S
C786 C788 1.478 . S
C787 H781 0.930 . S
C787 C783 1.400 1_655 S
C787 C786 1.385 . S
C788 C786 1.478 . S
C788 C790 1.381 . S
C788 C794 1.383 . S
C789 C785 1.495 . S
C789 H795 0.959 . S
C789 H796 0.961 . S
C789 H797 0.960 . S
C790 C788 1.381 . S
C790 C791 1.394 . S
C790 H798 0.930 . S
C791 C790 1.394 . S
C791 C792 1.383 . S
C791 H799 0.929 . S
C792 C791 1.383 . S
C792 C793 1.377 . S
C793 H777 0.930 . S
C793 C792 1.377 . S
C793 C794 1.379 . S
C794 H778 0.931 . S
C794 C788 1.383 . S
C794 C793 1.379 . S
H795 C789 0.959 . S
H796 C789 0.961 . S
H797 C789 0.960 . S
H798 C790 0.930 . S
H799 C791 0.929 . S
H800 C808 0.929 . S
H801 C810 0.930 . S
H802 C812 0.930 . S
H803 C815 0.929 . S
H804 C818 0.930 . S
H805 C820 0.960 . S
H806 C820 0.960 . S
H807 C820 0.960 . S
C808 H800 0.929 . S
C808 C809 1.377 . S
C808 C810 1.384 . S
C809 C808 1.377 . S
C809 C815 1.390 . S
C810 H801 0.930 . S
C810 C808 1.384 . S
C810 C811 1.372 . S
C811 C810 1.372 . S
C811 C812 1.400 . S
C811 C816 1.490 . S
C812 H802 0.930 . S
C812 C811 1.400 . S
C812 C815 1.386 . S
H813 C829 0.930 . S
H814 C830 0.931 . S
C815 H803 0.929 . S
C815 C809 1.390 . S
C815 C812 1.386 . S
C816 C811 1.490 . S
C816 C818 1.395 . S
C816 C819 1.403 . S
H817 C823 0.930 . S
C818 H804 0.930 . S
C818 C816 1.395 . S
C818 C821 1.403 . S
C819 C816 1.403 . S
C819 C820 1.524 . S
C819 C823 1.400 . S
C820 H805 0.960 . S
C820 H806 0.960 . S
C820 H807 0.960 . S
C820 C819 1.524 . S
C821 C818 1.403 . S
C821 C822 1.392 . S
C821 C825 1.495 . S
C822 C821 1.392 . S
C822 C823 1.385 . S
C822 C824 1.478 . S
C823 H817 0.930 . S
C823 C819 1.400 . S
C823 C822 1.385 . S
C824 C822 1.478 . S
C824 C826 1.381 . S
C824 C830 1.383 . S
C825 C821 1.495 . S
C825 H831 0.959 . S
C825 H832 0.961 . S
C825 H833 0.960 . S
C826 C824 1.381 . S
C826 C827 1.394 . S
C826 H834 0.930 . S
C827 C826 1.394 . S
C827 C828 1.383 . S
C827 H835 0.929 . S
C828 C827 1.383 . S
C828 C829 1.377 . S
C829 H813 0.930 . S
C829 C828 1.377 . S
C829 C830 1.379 . S
C830 H814 0.931 . S
C830 C824 1.383 . S
C830 C829 1.379 . S
H831 C825 0.959 . S
H832 C825 0.961 . S
H833 C825 0.960 . S
H834 C826 0.930 . S
H835 C827 0.929 . S
H836 C844 0.929 . S
H837 C846 0.930 . S
H838 C848 0.930 . S
H839 C851 0.929 . S
H840 C854 0.930 . S
H841 C856 0.960 . S
H842 C856 0.960 . S
H843 C856 0.960 . S
C844 H836 0.929 . S
C844 C845 1.377 . S
C844 C846 1.384 . S
C845 C844 1.377 . S
C845 C851 1.390 . S
C846 H837 0.930 . S
C846 C844 1.384 . S
C846 C847 1.372 . S
C847 C846 1.372 . S
C847 C848 1.400 . S
C847 C852 1.490 . S
C848 H838 0.930 . S
C848 C847 1.400 . S
C848 C851 1.386 . S
H849 C865 0.930 . S
H850 C866 0.931 . S
C851 H839 0.929 . S
C851 C845 1.390 . S
C851 C848 1.386 . S
C852 C847 1.490 . S
C852 C854 1.395 . S
C852 C855 1.403 . S
H853 C859 0.930 . S
C854 H840 0.930 . S
C854 C852 1.395 . S
C854 C857 1.403 . S
C855 C852 1.403 . S
C855 C856 1.524 . S
C855 C859 1.400 . S
C856 H841 0.960 . S
C856 H842 0.960 . S
C856 H843 0.960 . S
C856 C855 1.524 . S
C857 C854 1.403 . S
C857 C858 1.392 . S
C857 C861 1.495 . S
C858 C857 1.392 . S
C858 C859 1.385 . S
C858 C860 1.478 . S
C859 H853 0.930 . S
C859 C855 1.400 . S
C859 C858 1.385 . S
C860 C858 1.478 . S
C860 C862 1.381 . S
C860 C866 1.383 . S
C861 C857 1.495 . S
C861 H867 0.959 . S
C861 H868 0.961 . S
C861 H869 0.960 . S
C862 C860 1.381 . S
C862 C863 1.394 . S
C862 H870 0.930 . S
C863 C862 1.394 . S
C863 C864 1.383 . S
C863 H871 0.929 . S
C864 C863 1.383 . S
C864 C865 1.377 . S
C865 H849 0.930 . S
C865 C864 1.377 . S
C865 C866 1.379 . S
C866 H850 0.931 . S
C866 C860 1.383 . S
C866 C865 1.379 . S
H867 C861 0.959 . S
H868 C861 0.961 . S
H869 C861 0.960 . S
H870 C862 0.930 . S
H871 C863 0.929 . S
H872 C880 0.929 . S
H873 C882 0.930 . S
H874 C884 0.930 . S
H875 C887 0.929 . S
H876 C890 0.930 . S
H877 C892 0.960 . S
H878 C892 0.960 . S
H879 C892 0.960 . S
C880 H872 0.929 . S
C880 C881 1.377 . S
C880 C882 1.384 . S
C881 C880 1.377 . S
C881 C887 1.390 . S
C882 H873 0.930 . S
C882 C880 1.384 . S
C882 C883 1.372 . S
C883 C882 1.372 . S
C883 C884 1.400 . S
C883 C888 1.490 . S
C884 H874 0.930 . S
C884 C883 1.400 . S
C884 C887 1.386 . S
H885 C901 0.930 . S
H886 C902 0.931 . S
C887 H875 0.929 . S
C887 C881 1.390 . S
C887 C884 1.386 . S
C888 C883 1.490 . S
C888 C890 1.395 . S
C888 C891 1.403 . S
H889 C895 0.930 . S
C890 H876 0.930 . S
C890 C888 1.395 . S
C890 C893 1.403 . S
C891 C888 1.403 . S
C891 C892 1.524 . S
C891 C895 1.400 . S
C892 H877 0.960 . S
C892 H878 0.960 . S
C892 H879 0.960 . S
C892 C891 1.524 . S
C893 C890 1.403 . S
C893 C894 1.392 . S
C893 C897 1.495 . S
C894 C893 1.392 . S
C894 C895 1.385 . S
C894 C896 1.478 . S
C895 H889 0.930 . S
C895 C891 1.400 . S
C895 C894 1.385 . S
C896 C894 1.478 . S
C896 C898 1.381 . S
C896 C902 1.383 . S
C897 C893 1.495 . S
C897 H903 0.959 . S
C897 H904 0.961 . S
C897 H905 0.960 . S
C898 C896 1.381 . S
C898 C899 1.394 . S
C898 H906 0.930 . S
C899 C898 1.394 . S
C899 C900 1.383 . S
C899 H907 0.929 . S
C900 C899 1.383 . S
C900 C901 1.377 . S
C901 H885 0.930 . S
C901 C900 1.377 . S
C901 C902 1.379 . S
C902 H886 0.931 . S
C902 C896 1.383 . S
C902 C901 1.379 . S
H903 C897 0.959 . S
H904 C897 0.961 . S
H905 C897 0.960 . S
H906 C898 0.930 . S
H907 C899 0.929 . S
H908 C916 0.929 . S
H909 C918 0.930 . S
H910 C920 0.930 . S
H911 C923 0.929 . S
H912 C926 0.930 . S
H913 C928 0.960 . S
H914 C928 0.960 . S
H915 C928 0.960 . S
C916 H908 0.929 . S
C916 C917 1.377 . S
C916 C918 1.384 . S
C917 C916 1.377 . S
C917 C923 1.390 . S
C918 H909 0.930 . S
C918 C916 1.384 . S
C918 C919 1.372 . S
C919 C918 1.372 . S
C919 C920 1.400 . S
C919 C924 1.490 . S
C920 H910 0.930 . S
C920 C919 1.400 . S
C920 C923 1.386 . S
H921 C937 0.930 . S
H922 C938 0.931 . S
C923 H911 0.929 . S
C923 C917 1.390 . S
C923 C920 1.386 . S
C924 C919 1.490 . S
C924 C926 1.395 . S
C924 C927 1.403 . S
H925 C931 0.930 . S
C926 H912 0.930 . S
C926 C924 1.395 . S
C926 C929 1.403 . S
C927 C924 1.403 . S
C927 C928 1.524 . S
C927 C931 1.400 . S
C928 H913 0.960 . S
C928 H914 0.960 . S
C928 H915 0.960 . S
C928 C927 1.524 . S
C929 C926 1.403 . S
C929 C930 1.392 . S
C929 C933 1.495 . S
C930 C929 1.392 . S
C930 C931 1.385 . S
C930 C932 1.478 . S
C931 H925 0.930 . S
C931 C927 1.400 . S
C931 C930 1.385 . S
C932 C930 1.478 . S
C932 C934 1.381 . S
C932 C938 1.383 . S
C933 C929 1.495 . S
C933 H939 0.959 . S
C933 H940 0.961 . S
C933 H941 0.960 . S
C934 C932 1.381 . S
C934 C935 1.394 . S
C934 H942 0.930 . S
C935 C934 1.394 . S
C935 C936 1.383 . S
C935 H943 0.929 . S
C936 C935 1.383 . S
C936 C937 1.377 . S
C937 H921 0.930 . S
C937 C936 1.377 . S
C937 C938 1.379 . S
C938 H922 0.931 . S
C938 C932 1.383 . S
C938 C937 1.379 . S
H939 C933 0.959 . S
H940 C933 0.961 . S
H941 C933 0.960 . S
H942 C934 0.930 . S
H943 C935 0.929 . S
H944 C952 0.929 . S
H945 C954 0.930 . S
H946 C956 0.930 . S
H947 C959 0.929 . S
H948 C962 0.930 . S
H949 C964 0.960 . S
H950 C964 0.960 . S
H951 C964 0.960 . S
C952 H944 0.929 . S
C952 C953 1.377 . S
C952 C954 1.384 . S
C953 C952 1.377 . S
C953 C959 1.390 . S
C954 H945 0.930 . S
C954 C952 1.384 . S
C954 C955 1.372 . S
C955 C954 1.372 . S
C955 C956 1.400 . S
C955 C960 1.490 . S
C956 H946 0.930 . S
C956 C955 1.400 . S
C956 C959 1.386 . S
H957 C973 0.930 . S
H958 C974 0.931 . S
C959 H947 0.929 . S
C959 C953 1.390 . S
C959 C956 1.386 . S
C960 C955 1.490 . S
C960 C962 1.395 . S
C960 C963 1.403 . S
H961 C967 0.930 . S
C962 H948 0.930 . S
C962 C960 1.395 . S
C962 C965 1.403 . S
C963 C960 1.403 . S
C963 C964 1.524 . S
C963 C967 1.400 . S
C964 H949 0.960 . S
C964 H950 0.960 . S
C964 H951 0.960 . S
C964 C963 1.524 . S
C965 C962 1.403 . S
C965 C966 1.392 . S
C965 C969 1.495 . S
C966 C965 1.392 . S
C966 C967 1.385 . S
C966 C968 1.478 . S
C967 H961 0.930 . S
C967 C963 1.400 . S
C967 C966 1.385 . S
C968 C966 1.478 . S
C968 C970 1.381 . S
C968 C974 1.383 . S
C969 C965 1.495 . S
C969 H975 0.959 . S
C969 H976 0.961 . S
C969 H977 0.960 . S
C970 C968 1.381 . S
C970 C971 1.394 . S
C970 H978 0.930 . S
C971 C970 1.394 . S
C971 C972 1.383 . S
C971 H979 0.929 . S
C972 C971 1.383 . S
C972 C973 1.377 . S
C973 H957 0.930 . S
C973 C972 1.377 . S
C973 C974 1.379 . S
C974 H958 0.931 . S
C974 C968 1.383 . S
C974 C973 1.379 . S
H975 C969 0.959 . S
H976 C969 0.961 . S
H977 C969 0.960 . S
H978 C970 0.930 . S
H979 C971 0.929 . S
H980 C988 0.929 . S
H981 C990 0.930 . S
H982 C992 0.930 . S
H983 C995 0.929 . S
H984 C998 0.930 . S
H985 C1000 0.960 . S
H986 C1000 0.960 . S
H987 C1000 0.960 . S
C988 H980 0.929 . S
C988 C989 1.377 . S
C988 C990 1.384 . S
C989 C988 1.377 . S
C989 C995 1.390 . S
C990 H981 0.930 . S
C990 C988 1.384 . S
C990 C991 1.372 . S
C991 C990 1.372 . S
C991 C992 1.400 . S
C991 C996 1.490 . S
C992 H982 0.930 . S
C992 C991 1.400 . S
C992 C995 1.386 . S
H993 C1009 0.930 . S
H994 C1010 0.931 . S
C995 H983 0.929 . S
C995 C989 1.390 . S
C995 C992 1.386 . S
C996 C991 1.490 . S
C996 C998 1.395 . S
C996 C999 1.403 . S
H997 C1003 0.930 . S
C998 H984 0.930 . S
C998 C996 1.395 . S
C998 C1001 1.403 . S
C999 C996 1.403 . S
C999 C1000 1.524 . S
C999 C1003 1.400 . S
C1000 H985 0.960 . S
C1000 H986 0.960 . S
C1000 H987 0.960 . S
C1000 C999 1.524 . S
C1001 C998 1.403 . S
C1001 C1002 1.392 . S
C1001 C1005 1.495 . S
C1002 C1001 1.392 . S
C1002 C1003 1.385 . S
C1002 C1004 1.478 . S
C1003 H997 0.930 . S
C1003 C999 1.400 . S
C1003 C1002 1.385 . S
C1004 C1002 1.478 . S
C1004 C1006 1.381 . S
C1004 C1010 1.383 . S
C1005 C1001 1.495 . S
C1005 H1011 0.959 . S
C1005 H1012 0.961 . S
C1005 H1013 0.960 . S
C1006 C1004 1.381 . S
C1006 C1007 1.394 . S
C1006 H1014 0.930 . S
C1007 C1006 1.394 . S
C1007 C1008 1.383 . S
C1007 H1015 0.929 . S
C1008 C1007 1.383 . S
C1008 C1009 1.377 . S
C1009 H993 0.930 . S
C1009 C1008 1.377 . S
C1009 C1010 1.379 . S
C1010 H994 0.931 . S
C1010 C1004 1.383 . S
C1010 C1009 1.379 . S
H1011 C1005 0.959 . S
H1012 C1005 0.961 . S
H1013 C1005 0.960 . S
H1014 C1006 0.930 . S
H1015 C1007 0.929 . S
H1016 C1024 0.929 . S
H1017 C1026 0.930 . S
H1018 C1028 0.930 . S
H1019 C1031 0.929 . S
H1020 C1034 0.930 . S
H1021 C1036 0.960 . S
H1022 C1036 0.960 . S
H1023 C1036 0.960 . S
C1024 H1016 0.929 . S
C1024 C1025 1.377 . S
C1024 C1026 1.384 . S
C1025 C1024 1.377 . S
C1025 C1031 1.390 . S
C1026 H1017 0.930 . S
C1026 C1024 1.384 . S
C1026 C1027 1.372 . S
C1027 C1026 1.372 . S
C1027 C1028 1.400 . S
C1027 C1032 1.490 . S
C1028 H1018 0.930 . S
C1028 C1027 1.400 . S
C1028 C1031 1.386 . S
H1029 C1045 0.930 . S
H1030 C1046 0.931 . S
C1031 H1019 0.929 . S
C1031 C1025 1.390 . S
C1031 C1028 1.386 . S
C1032 C1027 1.490 . S
C1032 C1034 1.395 . S
C1032 C1035 1.403 . S
H1033 C1039 0.930 . S
C1034 H1020 0.930 . S
C1034 C1032 1.395 . S
C1034 C1037 1.403 . S
C1035 C1032 1.403 . S
C1035 C1036 1.524 . S
C1035 C1039 1.400 . S
C1036 H1021 0.960 . S
C1036 H1022 0.960 . S
C1036 H1023 0.960 . S
C1036 C1035 1.524 . S
C1037 C1034 1.403 . S
C1037 C1038 1.392 . S
C1037 C1041 1.495 . S
C1038 C1037 1.392 . S
C1038 C1039 1.385 . S
C1038 C1040 1.478 . S
C1039 H1033 0.930 . S
C1039 C1035 1.400 . S
C1039 C1038 1.385 . S
C1040 C1038 1.478 . S
C1040 C1042 1.381 . S
C1040 C1046 1.383 . S
C1041 C1037 1.495 . S
C1041 H1047 0.959 . S
C1041 H1048 0.961 . S
C1041 H1049 0.960 . S
C1042 C1040 1.381 . S
C1042 C1043 1.394 . S
C1042 H1050 0.930 . S
C1043 C1042 1.394 . S
C1043 C1044 1.383 . S
C1043 H1051 0.929 . S
C1044 C1043 1.383 . S
C1044 C1045 1.377 . S
C1045 H1029 0.930 . S
C1045 C1044 1.377 . S
C1045 C1046 1.379 . S
C1046 H1030 0.931 . S
C1046 C1040 1.383 . S
C1046 C1045 1.379 . S
H1047 C1041 0.959 . S
H1048 C1041 0.961 . S
H1049 C1041 0.960 . S
H1050 C1042 0.930 . S
H1051 C1043 0.929 . S
H1052 C1060 0.929 . S
H1053 C1062 0.930 . S
H1054 C1064 0.930 . S
H1055 C1067 0.929 . S
H1056 C1070 0.930 . S
H1057 C1072 0.960 . S
H1058 C1072 0.960 . S
H1059 C1072 0.960 . S
C1060 H1052 0.929 . S
C1060 C1061 1.377 . S
C1060 C1062 1.384 . S
C1061 C1060 1.377 . S
C1061 C1067 1.390 . S
C1062 H1053 0.930 . S
C1062 C1060 1.384 . S
C1062 C1063 1.372 . S
C1063 C1062 1.372 . S
C1063 C1064 1.400 . S
C1063 C1068 1.490 . S
C1064 H1054 0.930 . S
C1064 C1063 1.400 . S
C1064 C1067 1.386 . S
H1065 C1081 0.930 . S
H1066 C1082 0.931 . S
C1067 H1055 0.929 . S
C1067 C1061 1.390 . S
C1067 C1064 1.386 . S
C1068 C1063 1.490 . S
C1068 C1070 1.395 . S
C1068 C1071 1.403 . S
H1069 C1075 0.930 . S
C1070 H1056 0.930 . S
C1070 C1068 1.395 . S
C1070 C1073 1.403 . S
C1071 C1068 1.403 . S
C1071 C1072 1.524 . S
C1071 C1075 1.400 . S
C1072 H1057 0.960 . S
C1072 H1058 0.960 . S
C1072 H1059 0.960 . S
C1072 C1071 1.524 . S
C1073 C1070 1.403 . S
C1073 C1074 1.392 . S
C1073 C1077 1.495 . S
C1074 C1073 1.392 . S
C1074 C1075 1.385 . S
C1074 C1076 1.478 . S
C1075 H1069 0.930 . S
C1075 C1071 1.400 . S
C1075 C1074 1.385 . S
C1076 C1074 1.478 . S
C1076 C1078 1.381 . S
C1076 C1082 1.383 . S
C1077 C1073 1.495 . S
C1077 H1083 0.959 . S
C1077 H1084 0.961 . S
C1077 H1085 0.960 . S
C1078 C1076 1.381 . S
C1078 C1079 1.394 . S
C1078 H1086 0.930 . S
C1079 C1078 1.394 . S
C1079 C1080 1.383 . S
C1079 H1087 0.929 . S
C1080 C1079 1.383 . S
C1080 C1081 1.377 . S
C1081 H1065 0.930 . S
C1081 C1080 1.377 . S
C1081 C1082 1.379 . S
C1082 H1066 0.931 . S
C1082 C1076 1.383 . S
C1082 C1081 1.379 . S
H1083 C1077 0.959 . S
H1084 C1077 0.961 . S
H1085 C1077 0.960 . S
H1086 C1078 0.930 . S
H1087 C1079 0.929 . S
H1088 C1096 0.929 . S
H1089 C1098 0.930 . S
H1090 C1100 0.936 . S
H1091 C1103 0.929 1_565 S
H1092 C1106 0.930 . S
H1093 C1108 0.960 . S
H1094 C1108 0.960 . S
H1095 C1108 0.960 . S
C1096 H1088 0.929 . S
C1096 C1097 1.377 . S
C1096 C1098 1.384 . S
C1097 C1096 1.377 . S
C1097 C1103 1.390 . S
C1098 H1089 0.930 . S
C1098 C1096 1.384 . S
C1098 C1099 1.372 . S
C1099 C1098 1.372 . S
C1099 C1100 1.395 1_545 S
C1099 C1104 1.490 . S
C1100 H1090 0.936 . S
C1100 C1099 1.395 1_565 S
C1100 C1103 1.384 1_565 S
H1101 C1117 0.930 . S
H1102 C1118 0.931 . S
C1103 H1091 0.929 1_545 S
C1103 C1097 1.390 . S
C1103 C1100 1.384 1_545 S
C1104 C1099 1.490 . S
C1104 C1106 1.395 1_545 S
C1104 C1107 1.403 . S
H1105 C1111 0.930 . S
C1106 H1092 0.930 . S
C1106 C1104 1.395 1_565 S
C1106 C1109 1.403 . S
C1107 C1104 1.403 . S
C1107 C1108 1.524 . S
C1107 C1111 1.400 . S
C1108 H1093 0.960 . S
C1108 H1094 0.960 . S
C1108 H1095 0.960 . S
C1108 C1107 1.524 . S
C1109 C1106 1.403 . S
C1109 C1110 1.392 . S
C1109 C1113 1.495 . S
C1110 C1109 1.392 . S
C1110 C1111 1.385 1_565 S
C1110 C1112 1.478 . S
C1111 H1105 0.930 . S
C1111 C1107 1.400 . S
C1111 C1110 1.385 1_545 S
C1112 C1110 1.478 . S
C1112 C1114 1.372 1_565 S
C1112 C1118 1.383 . S
C1113 C1109 1.495 . S
C1113 H1119 0.959 . S
C1113 H1120 0.961 . S
C1113 H1121 0.960 . S
C1114 C1112 1.372 1_545 S
C1114 C1115 1.393 1_545 S
C1114 H1122 0.941 . S
C1115 C1114 1.393 1_565 S
C1115 C1116 1.383 . S
C1115 H1123 0.929 1_565 S
C1116 C1115 1.383 . S
C1116 C1117 1.377 . S
C1117 H1101 0.930 . S
C1117 C1116 1.377 . S
C1117 C1118 1.379 . S
C1118 H1102 0.931 . S
C1118 C1112 1.383 . S
C1118 C1117 1.379 . S
H1119 C1113 0.959 . S
H1120 C1113 0.961 . S
H1121 C1113 0.960 . S
H1122 C1114 0.941 . S
H1123 C1115 0.929 1_545 S
H1124 C1132 0.929 . S
H1125 C1134 0.930 . S
H1126 C1136 0.924 1_565 S
H1127 C1139 0.929 1_565 S
H1128 C1142 0.930 . S
H1129 C1144 0.960 . S
H1130 C1144 0.960 . S
H1131 C1144 0.960 . S
C1132 H1124 0.929 . S
C1132 C1133 1.377 . S
C1132 C1134 1.384 . S
C1133 C1132 1.377 . S
C1133 C1139 1.390 . S
C1134 H1125 0.930 . S
C1134 C1132 1.384 . S
C1134 C1135 1.372 . S
C1135 C1134 1.372 . S
C1135 C1136 1.404 . S
C1135 C1140 1.490 . S
C1136 H1126 0.924 1_545 S
C1136 C1135 1.404 . S
C1136 C1139 1.388 . S
H1137 C1153 0.930 . S
H1138 C1154 0.931 . S
C1139 H1127 0.929 1_545 S
C1139 C1133 1.390 . S
C1139 C1136 1.388 . S
C1140 C1135 1.490 . S
C1140 C1142 1.395 . S
C1140 C1143 1.403 1_545 S
H1141 C1147 0.930 . S
C1142 H1128 0.930 . S
C1142 C1140 1.395 . S
C1142 C1145 1.403 . S
C1143 C1140 1.403 1_565 S
C1143 C1144 1.524 . S
C1143 C1147 1.400 . S
C1144 H1129 0.960 . S
C1144 H1130 0.960 . S
C1144 H1131 0.960 . S
C1144 C1143 1.524 . S
C1145 C1142 1.403 . S
C1145 C1146 1.392 . S
C1145 C1149 1.495 . S
C1146 C1145 1.392 . S
C1146 C1147 1.385 1_545 S
C1146 C1148 1.476 1_545 S
C1147 H1141 0.930 . S
C1147 C1143 1.400 . S
C1147 C1146 1.385 1_565 S
C1148 C1146 1.476 1_565 S
C1148 C1150 1.380 1_565 S
C1148 C1154 1.387 . S
C1149 C1145 1.495 . S
C1149 H1155 0.959 . S
C1149 H1156 0.961 . S
C1149 H1157 0.960 . S
C1150 C1148 1.380 1_545 S
C1150 C1151 1.394 1_545 S
C1150 H1158 0.930 . S
C1151 C1150 1.394 1_565 S
C1151 C1152 1.383 . S
C1151 H1159 0.929 . S
C1152 C1151 1.383 . S
C1152 C1153 1.377 . S
C1153 H1137 0.930 . S
C1153 C1152 1.377 . S
C1153 C1154 1.379 . S
C1154 H1138 0.931 . S
C1154 C1148 1.387 . S
C1154 C1153 1.379 . S
H1155 C1149 0.959 . S
H1156 C1149 0.961 . S
H1157 C1149 0.960 . S
H1158 C1150 0.930 . S
H1159 C1151 0.929 . S
H1160 C1168 0.929 . S
H1161 C1170 0.930 . S
H1162 C1172 0.930 . S
H1163 C1175 0.929 . S
H1164 C1178 0.930 . S
H1165 C1180 0.960 . S
H1166 C1180 0.960 . S
H1167 C1180 0.960 . S
C1168 H1160 0.929 . S
C1168 C1169 1.377 1_565 S
C1168 C1170 1.384 . S
C1169 C1168 1.377 1_545 S
C1169 C1175 1.390 . S
C1170 H1161 0.930 . S
C1170 C1168 1.384 . S
C1170 C1171 1.372 1_565 S
C1171 C1170 1.372 1_545 S
C1171 C1172 1.400 . S
C1171 C1176 1.495 . S
C1172 H1162 0.930 . S
C1172 C1171 1.400 . S
C1172 C1175 1.386 . S
H1173 C1189 0.930 . S
H1174 C1190 0.931 . S
C1175 H1163 0.929 . S
C1175 C1169 1.390 . S
C1175 C1172 1.386 . S
C1176 C1171 1.495 . S
C1176 C1178 1.369 1_545 S
C1176 C1179 1.424 . S
H1177 C1183 0.930 . S
C1178 H1164 0.930 . S
C1178 C1176 1.369 1_565 S
C1178 C1181 1.403 . S
C1179 C1176 1.424 . S
C1179 C1180 1.524 . S
C1179 C1183 1.400 . S
C1180 H1165 0.960 . S
C1180 H1166 0.960 . S
C1180 H1167 0.960 . S
C1180 C1179 1.524 . S
C1181 C1178 1.403 . S
C1181 C1182 1.392 . S
C1181 C1185 1.495 . S
C1182 C1181 1.392 . S
C1182 C1183 1.385 1_565 S
C1182 C1184 1.478 . S
C1183 H1177 0.930 . S
C1183 C1179 1.400 . S
C1183 C1182 1.385 1_545 S
C1184 C1182 1.478 . S
C1184 C1186 1.381 . S
C1184 C1190 1.383 1_565 S
C1185 C1181 1.495 . S
C1185 H1191 0.959 . S
C1185 H1192 0.961 . S
C1185 H1193 0.960 . S
C1186 C1184 1.381 . S
C1186 C1187 1.394 . S
C1186 H1194 0.930 . S
C1187 C1186 1.394 . S
C1187 C1188 1.383 . S
C1187 H1195 0.929 . S
C1188 C1187 1.383 . S
C1188 C1189 1.377 1_565 S
C1189 H1173 0.930 . S
C1189 C1188 1.377 1_545 S
C1189 C1190 1.379 . S
C1190 H1174 0.931 . S
C1190 C1184 1.383 1_545 S
C1190 C1189 1.379 . S
H1191 C1185 0.959 . S
H1192 C1185 0.961 . S
H1193 C1185 0.960 . S
H1194 C1186 0.930 . S
H1195 C1187 0.929 . S
H1196 C1204 0.929 . S
H1197 C1206 0.930 . S
H1198 C1208 0.930 . S
H1199 C1211 0.929 . S
H1200 C1214 0.930 . S
H1201 C1216 0.960 . S
H1202 C1216 0.960 . S
H1203 C1216 0.960 . S
C1204 H1196 0.929 . S
C1204 C1205 1.377 1_545 S
C1204 C1206 1.384 . S
C1205 C1204 1.377 1_565 S
C1205 C1211 1.390 . S
C1206 H1197 0.930 . S
C1206 C1204 1.384 . S
C1206 C1207 1.372 1_545 S
C1207 C1206 1.372 1_565 S
C1207 C1208 1.400 . S
C1207 C1212 1.490 . S
C1208 H1198 0.930 . S
C1208 C1207 1.400 . S
C1208 C1211 1.386 . S
H1209 C1225 0.931 . S
H1210 C1226 0.931 . S
C1211 H1199 0.929 . S
C1211 C1205 1.390 . S
C1211 C1208 1.386 . S
C1212 C1207 1.490 . S
C1212 C1214 1.395 1_565 S
C1212 C1215 1.403 . S
H1213 C1219 0.930 . S
C1214 H1200 0.930 . S
C1214 C1212 1.395 1_545 S
C1214 C1217 1.403 . S
C1215 C1212 1.403 . S
C1215 C1216 1.524 . S
C1215 C1219 1.400 . S
C1216 H1201 0.960 . S
C1216 H1202 0.960 . S
C1216 H1203 0.960 . S
C1216 C1215 1.524 . S
C1217 C1214 1.403 . S
C1217 C1218 1.392 . S
C1217 C1221 1.495 . S
C1218 C1217 1.392 . S
C1218 C1219 1.385 1_545 S
C1218 C1220 1.478 . S
C1219 H1213 0.930 . S
C1219 C1215 1.400 . S
C1219 C1218 1.385 1_565 S
C1220 C1218 1.478 . S
C1220 C1222 1.381 . S
C1220 C1226 1.383 1_545 S
C1221 C1217 1.495 . S
C1221 H1227 0.959 . S
C1221 H1228 0.961 . S
C1221 H1229 0.960 . S
C1222 C1220 1.381 . S
C1222 C1223 1.394 . S
C1222 H1230 0.930 . S
C1223 C1222 1.394 . S
C1223 C1224 1.383 . S
C1223 H1231 0.929 . S
C1224 C1223 1.383 . S
C1224 C1225 1.375 1_545 S
C1225 H1209 0.931 . S
C1225 C1224 1.375 1_565 S
C1225 C1226 1.380 . S
C1226 H1210 0.931 . S
C1226 C1220 1.383 1_565 S
C1226 C1225 1.380 . S
H1227 C1221 0.959 . S
H1228 C1221 0.961 . S
H1229 C1221 0.960 . S
H1230 C1222 0.930 . S
H1231 C1223 0.929 . S
H1232 C1240 0.929 . S
H1233 C1242 0.930 . S
H1234 C1244 0.930 . S
H1235 C1247 0.929 . S
H1236 C1250 0.930 . S
H1237 C1252 0.960 . S
H1238 C1252 0.960 . S
H1239 C1252 0.960 . S
C1240 H1232 0.929 . S
C1240 C1241 1.377 . S
C1240 C1242 1.384 . S
C1241 C1240 1.377 . S
C1241 C1247 1.390 . S
C1242 H1233 0.930 . S
C1242 C1240 1.384 . S
C1242 C1243 1.372 . S
C1243 C1242 1.372 . S
C1243 C1244 1.400 . S
C1243 C1248 1.490 . S
C1244 H1234 0.930 . S
C1244 C1243 1.400 . S
C1244 C1247 1.386 . S
H1245 C1261 0.930 . S
H1246 C1262 0.931 . S
C1247 H1235 0.929 . S
C1247 C1241 1.390 . S
C1247 C1244 1.386 . S
C1248 C1243 1.490 . S
C1248 C1250 1.395 . S
C1248 C1251 1.403 . S
H1249 C1255 0.930 . S
C1250 H1236 0.930 . S
C1250 C1248 1.395 . S
C1250 C1253 1.403 . S
C1251 C1248 1.403 . S
C1251 C1252 1.524 . S
C1251 C1255 1.400 . S
C1252 H1237 0.960 . S
C1252 H1238 0.960 . S
C1252 H1239 0.960 . S
C1252 C1251 1.524 . S
C1253 C1250 1.403 . S
C1253 C1254 1.392 . S
C1253 C1257 1.495 . S
C1254 C1253 1.392 . S
C1254 C1255 1.385 . S
C1254 C1256 1.478 . S
C1255 H1249 0.930 . S
C1255 C1251 1.400 . S
C1255 C1254 1.385 . S
C1256 C1254 1.478 . S
C1256 C1258 1.381 . S
C1256 C1262 1.383 . S
C1257 C1253 1.495 . S
C1257 H1263 0.959 . S
C1257 H1264 0.961 . S
C1257 H1265 0.960 . S
C1258 C1256 1.381 . S
C1258 C1259 1.394 . S
C1258 H1266 0.930 . S
C1259 C1258 1.394 . S
C1259 C1260 1.383 . S
C1259 H1267 0.929 . S
C1260 C1259 1.383 . S
C1260 C1261 1.377 . S
C1261 H1245 0.930 . S
C1261 C1260 1.377 . S
C1261 C1262 1.379 . S
C1262 H1246 0.931 . S
C1262 C1256 1.383 . S
C1262 C1261 1.379 . S
H1263 C1257 0.959 . S
H1264 C1257 0.961 . S
H1265 C1257 0.960 . S
H1266 C1258 0.930 . S
H1267 C1259 0.929 . S
H1268 C1276 0.929 . S
H1269 C1278 0.930 . S
H1270 C1280 0.930 . S
H1271 C1283 0.929 . S
H1272 C1286 0.930 . S
H1273 C1288 0.960 . S
H1274 C1288 0.960 . S
H1275 C1288 0.960 . S
C1276 H1268 0.929 . S
C1276 C1277 1.377 . S
C1276 C1278 1.384 . S
C1277 C1276 1.377 . S
C1277 C1283 1.390 . S
C1278 H1269 0.930 . S
C1278 C1276 1.384 . S
C1278 C1279 1.372 . S
C1279 C1278 1.372 . S
C1279 C1280 1.400 . S
C1279 C1284 1.490 . S
C1280 H1270 0.930 . S
C1280 C1279 1.400 . S
C1280 C1283 1.386 . S
H1281 C1297 0.930 . S
H1282 C1298 0.931 . S
C1283 H1271 0.929 . S
C1283 C1277 1.390 . S
C1283 C1280 1.386 . S
C1284 C1279 1.490 . S
C1284 C1286 1.395 . S
C1284 C1287 1.403 . S
H1285 C1291 0.930 . S
C1286 H1272 0.930 . S
C1286 C1284 1.395 . S
C1286 C1289 1.403 . S
C1287 C1284 1.403 . S
C1287 C1288 1.524 . S
C1287 C1291 1.400 . S
C1288 H1273 0.960 . S
C1288 H1274 0.960 . S
C1288 H1275 0.960 . S
C1288 C1287 1.524 . S
C1289 C1286 1.403 . S
C1289 C1290 1.392 . S
C1289 C1293 1.495 . S
C1290 C1289 1.392 . S
C1290 C1291 1.385 . S
C1290 C1292 1.478 . S
C1291 H1285 0.930 . S
C1291 C1287 1.400 . S
C1291 C1290 1.385 . S
C1292 C1290 1.478 . S
C1292 C1294 1.381 . S
C1292 C1298 1.383 . S
C1293 C1289 1.495 . S
C1293 H1299 0.959 . S
C1293 H1300 0.961 . S
C1293 H1301 0.960 . S
C1294 C1292 1.381 . S
C1294 C1295 1.394 . S
C1294 H1302 0.930 . S
C1295 C1294 1.394 . S
C1295 C1296 1.383 . S
C1295 H1303 0.929 . S
C1296 C1295 1.383 . S
C1296 C1297 1.377 . S
C1297 H1281 0.930 . S
C1297 C1296 1.377 . S
C1297 C1298 1.379 . S
C1298 H1282 0.931 . S
C1298 C1292 1.383 . S
C1298 C1297 1.379 . S
H1299 C1293 0.959 . S
H1300 C1293 0.961 . S
H1301 C1293 0.960 . S
H1302 C1294 0.930 . S
H1303 C1295 0.929 . S
H1304 C1312 0.929 . S
H1305 C1314 0.930 . S
H1306 C1316 0.930 . S
H1307 C1319 0.929 . S
H1308 C1322 0.930 . S
H1309 C1324 0.960 . S
H1310 C1324 0.960 . S
H1311 C1324 0.960 . S
C1312 H1304 0.929 . S
C1312 C1313 1.377 . S
C1312 C1314 1.384 . S
C1313 C1312 1.377 . S
C1313 C1319 1.390 . S
C1314 H1305 0.930 . S
C1314 C1312 1.384 . S
C1314 C1315 1.372 . S
C1315 C1314 1.372 . S
C1315 C1316 1.400 . S
C1315 C1320 1.490 . S
C1316 H1306 0.930 . S
C1316 C1315 1.400 . S
C1316 C1319 1.386 . S
H1317 C1333 0.930 . S
H1318 C1334 0.931 . S
C1319 H1307 0.929 . S
C1319 C1313 1.390 . S
C1319 C1316 1.386 . S
C1320 C1315 1.490 . S
C1320 C1322 1.395 . S
C1320 C1323 1.403 . S
H1321 C1327 0.930 . S
C1322 H1308 0.930 . S
C1322 C1320 1.395 . S
C1322 C1325 1.403 . S
C1323 C1320 1.403 . S
C1323 C1324 1.524 . S
C1323 C1327 1.400 . S
C1324 H1309 0.960 . S
C1324 H1310 0.960 . S
C1324 H1311 0.960 . S
C1324 C1323 1.524 . S
C1325 C1322 1.403 . S
C1325 C1326 1.392 . S
C1325 C1329 1.495 . S
C1326 C1325 1.392 . S
C1326 C1327 1.385 . S
C1326 C1328 1.478 . S
C1327 H1321 0.930 . S
C1327 C1323 1.400 . S
C1327 C1326 1.385 . S
C1328 C1326 1.478 . S
C1328 C1330 1.381 . S
C1328 C1334 1.383 . S
C1329 C1325 1.495 . S
C1329 H1335 0.959 . S
C1329 H1336 0.961 . S
C1329 H1337 0.960 . S
C1330 C1328 1.381 . S
C1330 C1331 1.394 . S
C1330 H1338 0.930 . S
C1331 C1330 1.394 . S
C1331 C1332 1.383 . S
C1331 H1339 0.929 . S
C1332 C1331 1.383 . S
C1332 C1333 1.377 . S
C1333 H1317 0.930 . S
C1333 C1332 1.377 . S
C1333 C1334 1.379 . S
C1334 H1318 0.931 . S
C1334 C1328 1.383 . S
C1334 C1333 1.379 . S
H1335 C1329 0.959 . S
H1336 C1329 0.961 . S
H1337 C1329 0.960 . S
H1338 C1330 0.930 . S
H1339 C1331 0.929 . S
H1340 C1348 0.929 . S
H1341 C1350 0.930 . S
H1342 C1352 0.930 . S
H1343 C1355 0.929 . S
H1344 C1358 0.930 . S
H1345 C1360 0.960 . S
H1346 C1360 0.960 . S
H1347 C1360 0.960 . S
C1348 H1340 0.929 . S
C1348 C1349 1.377 . S
C1348 C1350 1.384 . S
C1349 C1348 1.377 . S
C1349 C1355 1.390 . S
C1350 H1341 0.930 . S
C1350 C1348 1.384 . S
C1350 C1351 1.372 . S
C1351 C1350 1.372 . S
C1351 C1352 1.400 . S
C1351 C1356 1.490 . S
C1352 H1342 0.930 . S
C1352 C1351 1.400 . S
C1352 C1355 1.386 . S
H1353 C1369 0.930 . S
H1354 C1370 0.931 . S
C1355 H1343 0.929 . S
C1355 C1349 1.390 . S
C1355 C1352 1.386 . S
C1356 C1351 1.490 . S
C1356 C1358 1.395 . S
C1356 C1359 1.403 . S
H1357 C1363 0.930 . S
C1358 H1344 0.930 . S
C1358 C1356 1.395 . S
C1358 C1361 1.403 . S
C1359 C1356 1.403 . S
C1359 C1360 1.524 . S
C1359 C1363 1.400 . S
C1360 H1345 0.960 . S
C1360 H1346 0.960 . S
C1360 H1347 0.960 . S
C1360 C1359 1.524 . S
C1361 C1358 1.403 . S
C1361 C1362 1.392 . S
C1361 C1365 1.495 . S
C1362 C1361 1.392 . S
C1362 C1363 1.385 . S
C1362 C1364 1.478 . S
C1363 H1357 0.930 . S
C1363 C1359 1.400 . S
C1363 C1362 1.385 . S
C1364 C1362 1.478 . S
C1364 C1366 1.381 . S
C1364 C1370 1.383 . S
C1365 C1361 1.495 . S
C1365 H1371 0.959 . S
C1365 H1372 0.961 . S
C1365 H1373 0.960 . S
C1366 C1364 1.381 . S
C1366 C1367 1.394 . S
C1366 H1374 0.930 . S
C1367 C1366 1.394 . S
C1367 C1368 1.383 . S
C1367 H1375 0.929 . S
C1368 C1367 1.383 . S
C1368 C1369 1.377 . S
C1369 H1353 0.930 . S
C1369 C1368 1.377 . S
C1369 C1370 1.379 . S
C1370 H1354 0.931 . S
C1370 C1364 1.383 . S
C1370 C1369 1.379 . S
H1371 C1365 0.959 . S
H1372 C1365 0.961 . S
H1373 C1365 0.960 . S
H1374 C1366 0.930 . S
H1375 C1367 0.929 . S
C233 C7 1.125 . S
C252 C77 1.126 . S
C269 C63 1.134 . S
C288 C21 1.121 . S
C305 C35 1.128 . S
C324 C105 1.149 . S
C341 C91 1.125 . S
C360 C49 1.125 . S
C377 C189 1.131 . S
C396 C119 1.141 . S
C413 C175 1.125 . S
C432 C133 1.136 . S
C449 C217 1.126 . S
C468 C147 1.120 . S
C485 C161 1.130 . S
C504 C203 1.146 . S
C521 C23 1.488 . S
C540 C9 1.472 . S
C557 C37 1.492 . S
C576 C51 1.491 . S
C593 C65 1.492 . S
C612 C79 1.494 . S
C629 C93 1.485 . S
C648 C107 1.480 . S
C665 C121 1.489 . S
C684 C135 1.499 . S
C701 C163 1.485 . S
C720 C149 1.481 . S
C737 C191 1.490 . S
C756 C177 1.500 . S
C773 C205 1.488 . S
C792 C219 1.470 . S
C809 C134 1.521 . S
C828 C8 1.515 . S
C845 C22 1.521 . S
C864 C120 1.514 . S
C881 C162 1.522 . S
C900 C36 1.522 . S
C917 C50 1.521 . S
C936 C148 1.520 . S
C953 C64 1.521 . S
C972 C190 1.514 . S
C989 C176 1.521 . S
C1008 C78 1.522 . S
C1025 C92 1.521 . S
C1044 C218 1.514 . S
C1061 C204 1.521 . S
C1080 C106 1.521 . S
C1097 C3 1.100 . S
C1116 C31 1.071 . S
C1133 C45 1.115 . S
C1152 C17 1.139 . S
C1169 C87 1.113 . S
C1188 C59 1.070 . S
C1205 C101 1.110 . S
C1224 C73 1.071 . S
C1241 C143 1.114 . S
C1260 C115 1.137 . S
C1277 C129 1.100 . S
C1296 C157 1.070 . S
C1313 C199 1.110 . S
C1332 C171 1.070 . S
C1349 C185 1.115 . S
C1368 C213 1.080 . S
